# Generated by pormake.
# Topology svb, (7)-cn, num edge types: 1
# Building blocks:
#     Node 0, Type 0, BuildingBlock: NUHQUE_clean_sbu_2, # of connection points: 7
#     Node 1, Type 0, BuildingBlock: NUHQUE_clean_sbu_2, # of connection points: 7
#     Node 2, Type 0, BuildingBlock: NUHQUE_clean_sbu_2, # of connection points: 7
#     Node 3, Type 0, BuildingBlock: NUHQUE_clean_sbu_2, # of connection points: 7
#     Node 4, Type 0, BuildingBlock: NUHQUE_clean_sbu_2, # of connection points: 7
#     Node 5, Type 0, BuildingBlock: NUHQUE_clean_sbu_2, # of connection points: 7
#     Node 6, Type 0, BuildingBlock: NUHQUE_clean_sbu_2, # of connection points: 7
#     Node 7, Type 0, BuildingBlock: NUHQUE_clean_sbu_2, # of connection points: 7
#     Node 8, Type 0, BuildingBlock: NUHQUE_clean_sbu_2, # of connection points: 7
#     Node 9, Type 0, BuildingBlock: NUHQUE_clean_sbu_2, # of connection points: 7
#     Node 10, Type 0, BuildingBlock: NUHQUE_clean_sbu_2, # of connection points: 7
#     Node 11, Type 0, BuildingBlock: NUHQUE_clean_sbu_2, # of connection points: 7
#     Node 12, Type 0, BuildingBlock: NUHQUE_clean_sbu_2, # of connection points: 7
#     Node 13, Type 0, BuildingBlock: NUHQUE_clean_sbu_2, # of connection points: 7
#     Node 14, Type 0, BuildingBlock: NUHQUE_clean_sbu_2, # of connection points: 7
#     Node 15, Type 0, BuildingBlock: NUHQUE_clean_sbu_2, # of connection points: 7
#     Edge 16, Type (0, 0), BuildingBlock: TEMPAE_clean_linker_10, # of connection points: 2
#     Edge 17, Type (0, 0), BuildingBlock: TEMPAE_clean_linker_10, # of connection points: 2
#     Edge 18, Type (0, 0), BuildingBlock: TEMPAE_clean_linker_10, # of connection points: 2
#     Edge 19, Type (0, 0), BuildingBlock: TEMPAE_clean_linker_10, # of connection points: 2
#     Edge 20, Type (0, 0), BuildingBlock: TEMPAE_clean_linker_10, # of connection points: 2
#     Edge 21, Type (0, 0), BuildingBlock: TEMPAE_clean_linker_10, # of connection points: 2
#     Edge 22, Type (0, 0), BuildingBlock: TEMPAE_clean_linker_10, # of connection points: 2
#     Edge 23, Type (0, 0), BuildingBlock: TEMPAE_clean_linker_10, # of connection points: 2
#     Edge 24, Type (0, 0), BuildingBlock: TEMPAE_clean_linker_10, # of connection points: 2
#     Edge 25, Type (0, 0), BuildingBlock: TEMPAE_clean_linker_10, # of connection points: 2
#     Edge 26, Type (0, 0), BuildingBlock: TEMPAE_clean_linker_10, # of connection points: 2
#     Edge 27, Type (0, 0), BuildingBlock: TEMPAE_clean_linker_10, # of connection points: 2
#     Edge 28, Type (0, 0), BuildingBlock: TEMPAE_clean_linker_10, # of connection points: 2
#     Edge 29, Type (0, 0), BuildingBlock: TEMPAE_clean_linker_10, # of connection points: 2
#     Edge 30, Type (0, 0), BuildingBlock: TEMPAE_clean_linker_10, # of connection points: 2
#     Edge 31, Type (0, 0), BuildingBlock: TEMPAE_clean_linker_10, # of connection points: 2
#     Edge 32, Type (0, 0), BuildingBlock: TEMPAE_clean_linker_10, # of connection points: 2
#     Edge 33, Type (0, 0), BuildingBlock: TEMPAE_clean_linker_10, # of connection points: 2
#     Edge 34, Type (0, 0), BuildingBlock: TEMPAE_clean_linker_10, # of connection points: 2
#     Edge 35, Type (0, 0), BuildingBlock: TEMPAE_clean_linker_10, # of connection points: 2
#     Edge 36, Type (0, 0), BuildingBlock: TEMPAE_clean_linker_10, # of connection points: 2
#     Edge 37, Type (0, 0), BuildingBlock: TEMPAE_clean_linker_10, # of connection points: 2
#     Edge 38, Type (0, 0), BuildingBlock: TEMPAE_clean_linker_10, # of connection points: 2
#     Edge 39, Type (0, 0), BuildingBlock: TEMPAE_clean_linker_10, # of connection points: 2
#     Edge 40, Type (0, 0), BuildingBlock: TEMPAE_clean_linker_10, # of connection points: 2
#     Edge 41, Type (0, 0), BuildingBlock: TEMPAE_clean_linker_10, # of connection points: 2
#     Edge 42, Type (0, 0), BuildingBlock: TEMPAE_clean_linker_10, # of connection points: 2
#     Edge 43, Type (0, 0), BuildingBlock: TEMPAE_clean_linker_10, # of connection points: 2
#     Edge 44, Type (0, 0), BuildingBlock: TEMPAE_clean_linker_10, # of connection points: 2
#     Edge 45, Type (0, 0), BuildingBlock: TEMPAE_clean_linker_10, # of connection points: 2
#     Edge 46, Type (0, 0), BuildingBlock: TEMPAE_clean_linker_10, # of connection points: 2
#     Edge 47, Type (0, 0), BuildingBlock: TEMPAE_clean_linker_10, # of connection points: 2
#     Edge 48, Type (0, 0), BuildingBlock: TEMPAE_clean_linker_10, # of connection points: 2
#     Edge 49, Type (0, 0), BuildingBlock: TEMPAE_clean_linker_10, # of connection points: 2
#     Edge 50, Type (0, 0), BuildingBlock: TEMPAE_clean_linker_10, # of connection points: 2
#     Edge 51, Type (0, 0), BuildingBlock: TEMPAE_clean_linker_10, # of connection points: 2
#     Edge 52, Type (0, 0), BuildingBlock: TEMPAE_clean_linker_10, # of connection points: 2
#     Edge 53, Type (0, 0), BuildingBlock: TEMPAE_clean_linker_10, # of connection points: 2
#     Edge 54, Type (0, 0), BuildingBlock: TEMPAE_clean_linker_10, # of connection points: 2
#     Edge 55, Type (0, 0), BuildingBlock: TEMPAE_clean_linker_10, # of connection points: 2
#     Edge 56, Type (0, 0), BuildingBlock: TEMPAE_clean_linker_10, # of connection points: 2
#     Edge 57, Type (0, 0), BuildingBlock: TEMPAE_clean_linker_10, # of connection points: 2
#     Edge 58, Type (0, 0), BuildingBlock: TEMPAE_clean_linker_10, # of connection points: 2
#     Edge 59, Type (0, 0), BuildingBlock: TEMPAE_clean_linker_10, # of connection points: 2
#     Edge 60, Type (0, 0), BuildingBlock: TEMPAE_clean_linker_10, # of connection points: 2
#     Edge 61, Type (0, 0), BuildingBlock: TEMPAE_clean_linker_10, # of connection points: 2
#     Edge 62, Type (0, 0), BuildingBlock: TEMPAE_clean_linker_10, # of connection points: 2
#     Edge 63, Type (0, 0), BuildingBlock: TEMPAE_clean_linker_10, # of connection points: 2
#     Edge 64, Type (0, 0), BuildingBlock: TEMPAE_clean_linker_10, # of connection points: 2
#     Edge 65, Type (0, 0), BuildingBlock: TEMPAE_clean_linker_10, # of connection points: 2
#     Edge 66, Type (0, 0), BuildingBlock: TEMPAE_clean_linker_10, # of connection points: 2
#     Edge 67, Type (0, 0), BuildingBlock: TEMPAE_clean_linker_10, # of connection points: 2
#     Edge 68, Type (0, 0), BuildingBlock: TEMPAE_clean_linker_10, # of connection points: 2
#     Edge 69, Type (0, 0), BuildingBlock: TEMPAE_clean_linker_10, # of connection points: 2
#     Edge 70, Type (0, 0), BuildingBlock: TEMPAE_clean_linker_10, # of connection points: 2
#     Edge 71, Type (0, 0), BuildingBlock: TEMPAE_clean_linker_10, # of connection points: 2
# Relax obj value: 0.368
# Max RMSD: 0.313
# Mean RMSD: 0.299
data_MOF--net-svb--node1-NUHQUE_clean_sbu_2--edge1-TEMPAE_clean_linker_10
_symmetry_space_group_name_H-M    P1
_symmetry_Int_Tables_number       1
_symmetry_cell_setting            triclinic
loop_
_symmetry_equiv_pos_as_xyz
'x, y, z'
_cell_length_a     60.843558
_cell_length_b     60.002913
_cell_length_c     25.988671
_cell_angle_alpha  95.917296
_cell_angle_beta   93.216015
_cell_angle_gamma 90.04323
loop_
_atom_site_label
_atom_site_type_symbol
_atom_site_fract_x
_atom_site_fract_y
_atom_site_fract_z
_atom_type_partial_charge
O0 O 0.04052 0.34354 0.22444 0.0
Tb1 Tb 0.06787 0.34017 0.17275 0.0
Eu2 Eu 0.11452 0.34447 0.09448 0.0
C3 C 0.04004 0.35869 0.26488 0.0
O4 O 0.05585 0.37378 0.27301 0.0
C5 C 0.1128 0.33306 0.21177 0.0
O6 O 0.12353 0.31796 0.02945 0.0
C7 C 0.14266 0.37748 0.1045 0.0
C8 C 0.1083 0.30751 0.99744 0.0
O9 O 0.08753 0.31207 1.00452 0.0
C10 C 0.06174 0.35824 0.06236 0.0
C11 C 0.15907 0.3963 0.10981 0.0
C12 C 0.15496 0.41646 0.14058 0.0
C13 C 0.17072 0.43383 0.14752 0.0
C14 C 0.19085 0.43096 0.12369 0.0
C15 C 0.19547 0.41111 0.09211 0.0
C16 C 0.1793 0.3939 0.08549 0.0
O17 O 0.09857 0.34951 0.21425 0.0
O18 O 0.11859 0.32502 0.16531 0.0
O19 O 0.06501 0.3055 0.18831 0.0
O20 O 0.07588 0.3124 0.11545 0.0
C21 C 0.07194 0.29665 0.14456 0.0
O22 O 0.08234 0.35333 0.05104 0.0
O23 O 0.05428 0.35785 0.10922 0.0
O24 O 0.1459 0.35852 0.07591 0.0
O25 O 0.12377 0.37865 0.12711 0.0
H26 H 0.1396 0.41864 0.15963 0.0
H27 H 0.20306 0.44424 0.1307 0.0
H28 H 0.18237 0.37861 0.06109 0.0
O29 O 0.90724 0.80867 0.52296 0.0
Tb30 Tb 0.9215 0.8275 0.46569 0.0
Eu31 Eu 0.9352 0.86814 0.39775 0.0
C32 C 0.91947 0.80585 0.56525 0.0
O33 O 0.93882 0.81578 0.57201 0.0
C34 C 0.94765 0.86778 0.51899 0.0
O35 O 0.96077 0.87715 0.34138 0.0
C36 C 0.8997 0.89202 0.40388 0.0
C37 C 0.95884 0.86972 0.29151 0.0
O38 O 0.94042 0.8597 0.27322 0.0
C39 C 0.91141 0.82242 0.34984 0.0
C40 C 0.87954 0.90626 0.40662 0.0
C41 C 0.86047 0.9002 0.43124 0.0
C42 C 0.84169 0.9142 0.43218 0.0
C43 C 0.8422 0.93419 0.40835 0.0
C44 C 0.86117 0.94062 0.38502 0.0
C45 C 0.87958 0.92659 0.38426 0.0
O46 O 0.92854 0.85739 0.5195 0.0
O47 O 0.95546 0.87149 0.47427 0.0
O48 O 0.94382 0.79921 0.46434 0.0
O49 O 0.95448 0.8295 0.43755 0.0
C50 C 0.96005 0.80934 0.44599 0.0
O51 O 0.92891 0.83516 0.34871 0.0
O52 O 0.90118 0.82242 0.39328 0.0
O53 O 0.91747 0.89839 0.38231 0.0
O54 O 0.90117 0.87232 0.42193 0.0
H55 H 0.8602 0.88477 0.44946 0.0
H56 H 0.82798 0.94508 0.40917 0.0
H57 H 0.89401 0.93155 0.36546 0.0
O58 O 0.40045 0.70777 0.52439 0.0
Tb59 Tb 0.41562 0.68724 0.58171 0.0
Eu60 Eu 0.43101 0.64527 0.65719 0.0
C61 C 0.39743 0.70027 0.47494 0.0
O62 O 0.40026 0.67889 0.46074 0.0
C63 C 0.44268 0.6474 0.54063 0.0
O64 O 0.45479 0.63732 0.72342 0.0
C65 C 0.39951 0.61601 0.6373 0.0
C66 C 0.46628 0.65371 0.75019 0.0
O67 O 0.46443 0.67401 0.7358 0.0
C68 C 0.40384 0.69037 0.6958 0.0
C69 C 0.37941 0.60614 0.65547 0.0
C70 C 0.3587 0.61162 0.63338 0.0
C71 C 0.33963 0.60033 0.64465 0.0
C72 C 0.3413 0.58436 0.68028 0.0
C73 C 0.36185 0.57721 0.69909 0.0
C74 C 0.38089 0.58856 0.68757 0.0
O75 O 0.42295 0.65628 0.53479 0.0
O76 O 0.45136 0.64508 0.58735 0.0
O77 O 0.44056 0.71318 0.5798 0.0
O78 O 0.44712 0.68626 0.62546 0.0
C79 C 0.45507 0.70416 0.60963 0.0
O80 O 0.42007 0.67651 0.705 0.0
O81 O 0.39524 0.69172 0.64839 0.0
O82 O 0.4186 0.61156 0.66033 0.0
O83 O 0.39829 0.63647 0.62318 0.0
H84 H 0.35761 0.62361 0.60488 0.0
H85 H 0.32647 0.57627 0.69056 0.0
H86 H 0.39688 0.58282 0.70095 0.0
O87 O 0.55759 0.14485 0.7913 0.0
Tb88 Tb 0.57626 0.15907 0.86144 0.0
Eu89 Eu 0.61854 0.17052 0.95568 0.0
C90 C 0.55881 0.15507 0.74892 0.0
O91 O 0.57257 0.17202 0.75009 0.0
C92 C 0.61758 0.18328 0.84005 0.0
O93 O 0.62584 0.19532 0.02831 0.0
C94 C 0.64435 0.1362 0.94344 0.0
C95 C 0.60999 0.20888 0.04527 0.0
O96 O 0.59106 0.20806 1.01825 0.0
C97 C 0.57028 0.14844 0.97381 0.0
C98 C 0.65977 0.11679 0.9377 0.0
C99 C 0.65556 0.09783 0.90098 0.0
C100 C 0.67133 0.08048 0.89432 0.0
C101 C 0.69097 0.08232 0.92591 0.0
C102 C 0.69551 0.101 0.96207 0.0
C103 C 0.67977 0.11801 0.96783 0.0
O104 O 0.60808 0.16346 0.8294 0.0
O105 O 0.62065 0.19165 0.88884 0.0
O106 O 0.55328 0.18607 0.84955 0.0
O107 O 0.57926 0.19143 0.90767 0.0
C108 C 0.56284 0.20056 0.88416 0.0
O109 O 0.5865 0.16247 0.9901 0.0
O110 O 0.56768 0.1399 0.92478 0.0
O111 O 0.64985 0.15479 0.97297 0.0
O112 O 0.62432 0.13601 0.92125 0.0
H113 H 0.64046 0.09694 0.8767 0.0
H114 H 0.70312 0.06917 0.92177 0.0
H115 H 0.68318 0.13235 0.99605 0.0
O116 O 0.05545 0.6451 0.28797 0.0
Tb117 Tb 0.07531 0.65958 0.3559 0.0
Eu118 Eu 0.11567 0.66787 0.45465 0.0
C119 C 0.05926 0.65176 0.24247 0.0
O120 O 0.07611 0.66515 0.2394 0.0
C121 C 0.11799 0.68084 0.34168 0.0
O122 O 0.12365 0.69125 0.52909 0.0
C123 C 0.14089 0.63352 0.43778 0.0
C124 C 0.10771 0.70363 0.54974 0.0
O125 O 0.08814 0.70236 0.52559 0.0
C126 C 0.06603 0.64728 0.46725 0.0
C127 C 0.15614 0.61424 0.42964 0.0
C128 C 0.15168 0.59577 0.39178 0.0
C129 C 0.16795 0.57925 0.38121 0.0
C130 C 0.18836 0.5814 0.40959 0.0
C131 C 0.19279 0.59948 0.44726 0.0
C132 C 0.17663 0.6156 0.45734 0.0
O133 O 0.10864 0.66097 0.33121 0.0
O134 O 0.11904 0.68975 0.39017 0.0
O135 O 0.06085 0.69003 0.33086 0.0
O136 O 0.07603 0.69095 0.40675 0.0
C137 C 0.0667 0.70278 0.3727 0.0
O138 O 0.08351 0.65891 0.48664 0.0
O139 O 0.06228 0.64161 0.41688 0.0
O140 O 0.14655 0.65134 0.46982 0.0
O141 O 0.12081 0.63389 0.41614 0.0
H142 H 0.13607 0.59469 0.36945 0.0
H143 H 0.2009 0.56877 0.40282 0.0
H144 H 0.18048 0.62976 0.48581 0.0
O145 O 0.55117 0.85254 0.77824 0.0
Tb146 Tb 0.57539 0.84114 0.72182 0.0
Eu147 Eu 0.62121 0.84101 0.64054 0.0
C148 C 0.55241 0.84569 0.82505 0.0
O149 O 0.56916 0.83319 0.83784 0.0
C150 C 0.61929 0.82561 0.75492 0.0
O151 O 0.6272 0.81438 0.57363 0.0
C152 C 0.65252 0.87136 0.65538 0.0
C153 C 0.61033 0.80368 0.54783 0.0
O154 O 0.5904 0.80867 0.56192 0.0
C155 C 0.56978 0.85861 0.60915 0.0
C156 C 0.66469 0.89215 0.64528 0.0
C157 C 0.65978 0.91306 0.67223 0.0
C158 C 0.67274 0.93221 0.66823 0.0
C159 C 0.69106 0.93031 0.63736 0.0
C160 C 0.69691 0.90962 0.61075 0.0
C161 C 0.68337 0.89068 0.61482 0.0
O162 O 0.60738 0.84382 0.76272 0.0
O163 O 0.62334 0.81856 0.70658 0.0
O164 O 0.56458 0.80834 0.73871 0.0
O165 O 0.58018 0.81106 0.66852 0.0
C166 C 0.572 0.79727 0.69787 0.0
O167 O 0.59015 0.85289 0.59742 0.0
O168 O 0.56249 0.85852 0.65637 0.0
O169 O 0.65376 0.85297 0.62341 0.0
O170 O 0.63386 0.87301 0.67896 0.0
H171 H 0.6461 0.91444 0.69733 0.0
H172 H 0.70144 0.94493 0.63643 0.0
H173 H 0.68761 0.87462 0.59505 0.0
O174 O 0.40995 0.30764 1.02533 0.0
Tb175 Tb 0.42612 0.32817 0.97406 0.0
Eu176 Eu 0.43719 0.36867 0.89778 0.0
C177 C 0.41529 0.31041 0.07543 0.0
O178 O 0.42862 0.32699 0.0934 0.0
C179 C 0.44968 0.36968 1.01651 0.0
O180 O 0.46133 0.37898 0.8391 0.0
C181 C 0.40252 0.39277 0.91798 0.0
C182 C 0.45978 0.37076 0.78965 0.0
O183 O 0.44207 0.35924 0.77228 0.0
C184 C 0.41414 0.32068 0.85491 0.0
C185 C 0.38075 0.40262 0.90434 0.0
C186 C 0.36136 0.39635 0.92722 0.0
C187 C 0.34136 0.4078 0.91889 0.0
C188 C 0.34113 0.42579 0.88826 0.0
C189 C 0.36044 0.43291 0.86744 0.0
C190 C 0.37997 0.42096 0.87492 0.0
O191 O 0.42976 0.3611 1.01645 0.0
O192 O 0.45863 0.37009 0.97168 0.0
O193 O 0.45413 0.30994 1.00338 0.0
O194 O 0.45738 0.32706 0.93646 0.0
C195 C 0.46761 0.31559 0.97001 0.0
O196 O 0.4283 0.33656 0.8478 0.0
O197 O 0.40748 0.31757 0.90124 0.0
O198 O 0.42028 0.40044 0.89857 0.0
O199 O 0.4038 0.37147 0.92561 0.0
H200 H 0.36191 0.38295 0.95222 0.0
H201 H 0.32594 0.43486 0.8824 0.0
H202 H 0.395 0.42687 0.86033 0.0
O203 O 0.90169 0.19574 0.9756 0.0
Tb204 Tb 0.92012 0.17916 0.03558 0.0
Eu205 Eu 0.9386 0.13974 0.11645 0.0
C206 C 0.90989 0.19602 0.92971 0.0
O207 O 0.92836 0.18534 0.92111 0.0
C208 C 0.94803 0.13961 0.99622 0.0
O209 O 0.96672 0.13689 0.17702 0.0
C210 C 0.90824 0.10895 0.11114 0.0
C211 C 0.96301 0.13557 0.22618 0.0
O212 O 0.94257 0.13407 0.23942 0.0
C213 C 0.90956 0.18343 0.15119 0.0
C214 C 0.88817 0.10154 0.13498 0.0
C215 C 0.86718 0.1082 0.11667 0.0
C216 C 0.84793 0.09958 0.13498 0.0
C217 C 0.84978 0.08439 0.17253 0.0
C218 C 0.87045 0.07701 0.19025 0.0
C219 C 0.8896 0.08562 0.17133 0.0
O220 O 0.92795 0.14776 0.99067 0.0
O221 O 0.95704 0.13785 0.043 0.0
O222 O 0.94272 0.20693 0.02961 0.0
O223 O 0.95305 0.18027 0.07306 0.0
C224 C 0.95898 0.19874 0.05603 0.0
O225 O 0.92737 0.17167 0.16035 0.0
O226 O 0.90051 0.18363 0.10379 0.0
O227 O 0.92746 0.1073 0.13642 0.0
O228 O 0.90663 0.12688 0.08586 0.0
H229 H 0.86571 0.11965 0.08703 0.0
H230 H 0.83501 0.07705 0.18538 0.0
H231 H 0.90554 0.0795 0.18411 0.0
O232 O 0.95214 0.65296 0.77682 0.0
Tb233 Tb 0.93627 0.66766 0.84597 0.0
Eu234 Eu 0.89492 0.68026 0.93148 0.0
C235 C 0.95489 0.66571 0.73911 0.0
O236 O 0.94697 0.68613 0.74406 0.0
C237 C 0.89501 0.69344 0.81735 0.0
O238 O 0.88716 0.70054 1.00714 0.0
C239 C 0.87018 0.64515 0.90765 0.0
C240 C 0.8884 0.72262 1.01227 0.0
O241 O 0.89228 0.73288 0.97137 0.0
C242 C 0.94108 0.656 0.95843 0.0
C243 C 0.86081 0.62428 0.92314 0.0
C244 C 0.86456 0.60384 0.89323 0.0
C245 C 0.85288 0.5843 0.90103 0.0
C246 C 0.83794 0.58535 0.9405 0.0
C247 C 0.83366 0.60567 0.96943 0.0
C248 C 0.8452 0.62503 0.96117 0.0
O249 O 0.9043 0.67365 0.80786 0.0
O250 O 0.8927 0.7018 0.86563 0.0
O251 O 0.96335 0.69161 0.84712 0.0
O252 O 0.93445 0.70131 0.88559 0.0
C253 C 0.95339 0.70795 0.87277 0.0
O254 O 0.92758 0.67261 0.97096 0.0
O255 O 0.94207 0.64714 0.90992 0.0
O256 O 0.86293 0.66438 0.9293 0.0
O257 O 0.89116 0.64552 0.89767 0.0
H258 H 0.87548 0.60353 0.8616 0.0
H259 H 0.82857 0.5706 0.94688 0.0
H260 H 0.84102 0.64084 0.98234 0.0
O261 O 0.11543 0.21955 0.52056 0.0
Tb262 Tb 0.10574 0.19764 0.57845 0.0
Eu263 Eu 0.09358 0.15009 0.64261 0.0
C264 C 0.10099 0.22316 0.48238 0.0
O265 O 0.08188 0.2128 0.48015 0.0
C266 C 0.07858 0.15762 0.52436 0.0
O267 O 0.066 0.14316 0.69455 0.0
C268 C 0.12062 0.11638 0.633 0.0
C269 C 0.05821 0.15918 0.72714 0.0
O270 O 0.06677 0.17937 0.72954 0.0
C271 C 0.12382 0.19398 0.68936 0.0
C272 C 0.14085 0.1059 0.65495 0.0
C273 C 0.16176 0.11189 0.63985 0.0
C274 C 0.18087 0.10063 0.65576 0.0
C275 C 0.17889 0.08353 0.68844 0.0
C276 C 0.15823 0.07672 0.70292 0.0
C277 C 0.13923 0.08793 0.68579 0.0
O278 O 0.09675 0.16931 0.52167 0.0
O279 O 0.07192 0.15247 0.56913 0.0
O280 O 0.08547 0.22641 0.60037 0.0
O281 O 0.07564 0.19427 0.61889 0.0
C282 C 0.07096 0.21545 0.62273 0.0
O283 O 0.10836 0.17922 0.69584 0.0
O284 O 0.13012 0.19727 0.64279 0.0
O285 O 0.10264 0.11621 0.65875 0.0
O286 O 0.12282 0.13475 0.60987 0.0
H287 H 0.16307 0.12464 0.61353 0.0
H288 H 0.19348 0.07482 0.70123 0.0
H289 H 0.12322 0.08243 0.69594 0.0
O290 O 0.59598 0.29525 0.53563 0.0
Tb291 Tb 0.58925 0.32285 0.48801 0.0
Eu292 Eu 0.59371 0.37114 0.41367 0.0
C293 C 0.6115 0.29591 0.57325 0.0
O294 O 0.62485 0.3133 0.58095 0.0
C295 C 0.58047 0.36885 0.5314 0.0
O296 O 0.56636 0.37645 0.35282 0.0
C297 C 0.62301 0.40344 0.42047 0.0
C298 C 0.55545 0.35929 0.32752 0.0
O299 O 0.56058 0.33896 0.33813 0.0
C300 C 0.60808 0.31772 0.37393 0.0
C301 C 0.64249 0.41537 0.40283 0.0
C302 C 0.66394 0.41082 0.42247 0.0
C303 C 0.68223 0.42392 0.41244 0.0
C304 C 0.67869 0.44171 0.38135 0.0
C305 C 0.65743 0.44703 0.36176 0.0
C306 C 0.63946 0.43368 0.37287 0.0
O307 O 0.59667 0.3544 0.5329 0.0
O308 O 0.57367 0.37484 0.48574 0.0
O309 O 0.55644 0.31599 0.5112 0.0
O310 O 0.55977 0.33055 0.44104 0.0
C311 C 0.54583 0.324 0.47259 0.0
O312 O 0.60493 0.33914 0.36663 0.0
O313 O 0.60541 0.30932 0.4185 0.0
O314 O 0.60391 0.40406 0.39431 0.0
O315 O 0.62586 0.38489 0.44316 0.0
H316 H 0.66626 0.39768 0.44784 0.0
H317 H 0.69254 0.45191 0.3734 0.0
H318 H 0.62301 0.4378 0.35887 0.0
O319 O 0.39355 0.80312 0.04021 0.0
Tb320 Tb 0.41128 0.82403 0.10308 0.0
Eu321 Eu 0.42425 0.86513 0.20539 0.0
C322 C 0.39027 0.8099 0.99377 0.0
O323 O 0.39414 0.83096 0.98764 0.0
C324 C 0.43507 0.86637 0.08806 0.0
O325 O 0.44763 0.87361 0.27809 0.0
C326 C 0.38812 0.88794 0.19844 0.0
C327 C 0.46203 0.85838 0.29205 0.0
O328 O 0.46305 0.83948 0.26191 0.0
C329 C 0.4048 0.81528 0.21756 0.0
C330 C 0.36768 0.90177 0.19613 0.0
C331 C 0.34981 0.8967 0.15901 0.0
C332 C 0.33176 0.91165 0.15546 0.0
C333 C 0.33189 0.93128 0.19027 0.0
C334 C 0.34939 0.93656 0.22699 0.0
C335 C 0.36694 0.92154 0.23 0.0
O336 O 0.41516 0.85741 0.07988 0.0
O337 O 0.44409 0.86863 0.13566 0.0
O338 O 0.43802 0.80575 0.06648 0.0
O339 O 0.44402 0.82331 0.14142 0.0
C340 C 0.45288 0.81183 0.10296 0.0
O341 O 0.41905 0.83135 0.23388 0.0
O342 O 0.39528 0.81351 0.17025 0.0
O343 O 0.40601 0.89551 0.22578 0.0
O344 O 0.38963 0.86738 0.17571 0.0
H345 H 0.35032 0.88173 0.13201 0.0
H346 H 0.31833 0.94288 0.18812 0.0
H347 H 0.38031 0.92543 0.25886 0.0
O348 O 0.88591 0.29639 0.49897 0.0
Tb349 Tb 0.89996 0.31343 0.57189 0.0
Eu350 Eu 0.91673 0.35757 0.66097 0.0
C351 C 0.89863 0.29545 0.45927 0.0
O352 O 0.91792 0.30549 0.46626 0.0
C353 C 0.9316 0.35014 0.54619 0.0
O354 O 0.9402 0.36697 0.73195 0.0
C355 C 0.88457 0.38509 0.64795 0.0
C356 C 0.95392 0.35151 0.74714 0.0
O357 O 0.95385 0.33199 0.71922 0.0
C358 C 0.88956 0.31342 0.68511 0.0
C359 C 0.86655 0.40168 0.64214 0.0
C360 C 0.84725 0.39688 0.60961 0.0
C361 C 0.83031 0.413 0.6071 0.0
C362 C 0.83313 0.43395 0.63634 0.0
C363 C 0.85214 0.43889 0.66842 0.0
C364 C 0.86864 0.42275 0.67119 0.0
O365 O 0.91136 0.34246 0.53582 0.0
O366 O 0.93927 0.35384 0.59461 0.0
O367 O 0.91719 0.28166 0.56688 0.0
O368 O 0.93076 0.3094 0.61664 0.0
C369 C 0.93285 0.28831 0.60087 0.0
O370 O 0.90617 0.32737 0.69762 0.0
O371 O 0.87957 0.31197 0.63815 0.0
O372 O 0.90301 0.39076 0.67524 0.0
O373 O 0.88355 0.36413 0.62705 0.0
H374 H 0.84519 0.38067 0.58733 0.0
H375 H 0.82022 0.44636 0.6348 0.0
H376 H 0.88323 0.42674 0.69638 0.0
O377 O 0.45878 0.14986 0.28498 0.0
Tb378 Tb 0.43877 0.16572 0.34639 0.0
Eu379 Eu 0.39534 0.17952 0.43206 0.0
C380 C 0.45266 0.14963 0.23535 0.0
O381 O 0.43263 0.15593 0.22234 0.0
C382 C 0.39806 0.19119 0.316 0.0
O383 O 0.39041 0.20445 0.50246 0.0
C384 C 0.36425 0.14949 0.41806 0.0
C385 C 0.4074 0.21605 0.525 0.0
O386 O 0.4265 0.21383 0.50392 0.0
C387 C 0.44167 0.15305 0.45989 0.0
C388 C 0.35302 0.13012 0.43672 0.0
C389 C 0.35759 0.10829 0.41478 0.0
C390 C 0.34503 0.08991 0.42582 0.0
C391 C 0.32775 0.09339 0.45906 0.0
C392 C 0.32261 0.11501 0.48047 0.0
C393 C 0.33537 0.13334 0.46974 0.0
O394 O 0.40713 0.17127 0.30731 0.0
O395 O 0.39519 0.19986 0.36378 0.0
O396 O 0.4627 0.19213 0.33958 0.0
O397 O 0.43747 0.19808 0.39265 0.0
C398 C 0.45404 0.20679 0.3726 0.0
O399 O 0.42624 0.16765 0.47328 0.0
O400 O 0.44464 0.14561 0.41106 0.0
O401 O 0.36169 0.16951 0.44278 0.0
O402 O 0.38387 0.14642 0.39944 0.0
H403 H 0.37044 0.1056 0.38759 0.0
H404 H 0.31749 0.07935 0.46618 0.0
H405 H 0.33081 0.15009 0.48494 0.0
O406 O 0.5568 0.65224 0.23433 0.0
Tb407 Tb 0.57602 0.66651 0.17746 0.0
Eu408 Eu 0.61644 0.67787 0.10642 0.0
C409 C 0.55639 0.66306 0.28104 0.0
O410 O 0.56873 0.68108 0.29206 0.0
C411 C 0.61515 0.69376 0.22552 0.0
O412 O 0.62598 0.70126 0.0458 0.0
C413 C 0.6393 0.64281 0.12522 0.0
C414 C 0.61022 0.7136 1.02553 0.0
O415 O 0.59029 0.71164 0.04149 0.0
C416 C 0.57199 0.65153 0.0605 0.0
C417 C 0.65275 0.62271 0.13574 0.0
C418 C 0.64499 0.60526 0.16344 0.0
C419 C 0.6592 0.58762 0.17617 0.0
C420 C 0.68091 0.58756 0.16052 0.0
C421 C 0.68868 0.60457 0.13307 0.0
C422 C 0.67454 0.62189 0.12071 0.0
O423 O 0.60587 0.67396 0.2265 0.0
O424 O 0.61736 0.70147 0.18041 0.0
O425 O 0.55051 0.69156 0.18825 0.0
O426 O 0.57705 0.69779 0.14171 0.0
C427 C 0.55921 0.70586 0.16103 0.0
O428 O 0.58641 0.66732 0.0548 0.0
O429 O 0.56946 0.64437 0.10621 0.0
O430 O 0.64707 0.65918 0.10091 0.0
O431 O 0.61869 0.64516 0.13751 0.0
H432 H 0.62833 0.60569 0.17617 0.0
H433 H 0.69195 0.57429 0.1705 0.0
H434 H 0.68069 0.63494 0.0993 0.0
O435 O 0.09432 0.79135 0.03704 0.0
Tb436 Tb 0.08944 0.81866 0.9882 0.0
Eu437 Eu 0.09359 0.86488 0.91763 0.0
C438 C 0.11197 0.78988 0.06817 0.0
O439 O 0.12785 0.80474 0.0681 0.0
C440 C 0.07966 0.86382 0.03427 0.0
O441 O 0.0681 0.87301 0.85371 0.0
C442 C 0.12636 0.89329 0.93585 0.0
C443 C 0.058 0.85665 0.8231 0.0
O444 O 0.06315 0.83589 0.82985 0.0
C445 C 0.10904 0.81237 0.87709 0.0
C446 C 0.14732 0.90408 0.92316 0.0
C447 C 0.16781 0.89865 0.94723 0.0
C448 C 0.18719 0.91075 0.94012 0.0
C449 C 0.18578 0.92865 0.90892 0.0
C450 C 0.16541 0.935 0.88649 0.0
C451 C 0.14645 0.92241 0.89329 0.0
O452 O 0.09593 0.84951 0.0367 0.0
O453 O 0.07258 0.86882 0.98796 0.0
O454 O 0.05544 0.81289 1.00424 0.0
O455 O 0.06215 0.82728 0.93541 0.0
C456 C 0.04673 0.82144 0.96407 0.0
O457 O 0.10398 0.83322 0.86855 0.0
O458 O 0.10791 0.80475 0.92292 0.0
O459 O 0.10795 0.89744 0.90946 0.0
O460 O 0.12667 0.87324 0.95236 0.0
H461 H 0.16864 0.88532 0.9724 0.0
H462 H 0.20038 0.93852 0.90473 0.0
H463 H 0.13077 0.92742 0.87634 0.0
C464 C 0.99927 0.19279 0.06242 0.0
C465 C 0.98143 0.20748 0.06061 0.0
C466 C 0.02092 0.20101 0.06744 0.0
C467 C 0.0245 0.22444 0.0732 0.0
C468 C 1.00634 0.23924 0.06954 0.0
C469 C 0.98502 0.23044 0.06216 0.0
C470 C 0.03955 0.18444 0.06779 0.0
C471 C 0.00916 0.26445 0.076 0.0
C472 C 0.0629 0.25838 0.16216 0.0
C473 C 0.0698 0.27274 0.12705 0.0
C474 C 0.05104 0.23893 0.14428 0.0
C475 C 0.04634 0.23415 0.09035 0.0
C476 C 0.05799 0.24557 0.05534 0.0
C477 C 0.06944 0.26526 0.07418 0.0
C478 C 0.0403 0.22602 0.18307 0.0
C479 C 0.05538 0.23914 0.99771 0.0
H480 H 0.99634 0.17486 0.05955 0.0
H481 H 0.97105 0.24159 0.05991 0.0
H482 H 0.05577 0.19217 0.06288 0.0
H483 H 0.04023 0.17675 0.10489 0.0
H484 H 0.03643 0.17065 0.0363 0.0
H485 H 0.99317 0.27336 0.07415 0.0
H486 H 0.01785 0.26994 0.11386 0.0
H487 H 0.01919 0.26979 0.04508 0.0
H488 H 0.06416 0.26378 0.20334 0.0
H489 H 0.07575 0.27589 0.0471 0.0
H490 H 0.04183 0.20776 0.17233 0.0
H491 H 0.02249 0.23006 0.18322 0.0
H492 H 0.04773 0.23016 0.22295 0.0
H493 H 0.05269 0.2208 0.9889 0.0
H494 H 0.0701 0.24421 0.97817 0.0
H495 H 0.0409 0.24783 0.98145 0.0
C496 C 0.05281 0.7375 0.33971 0.0
C497 C 0.0625 0.72679 0.38048 0.0
C498 C 0.04279 0.75829 0.34979 0.0
C499 C 0.04238 0.76789 0.40172 0.0
C500 C 0.0563 0.75948 0.44047 0.0
C501 C 0.06612 0.7386 0.42948 0.0
C502 C 0.02955 0.76788 0.30658 0.0
C503 C 0.0578 0.77057 0.4953 0.0
C504 C 0.99934 0.81268 0.42616 0.0
C505 C 0.98154 0.79946 0.43708 0.0
C506 C 0.01988 0.80297 0.417 0.0
C507 C 0.02217 0.77955 0.41754 0.0
C508 C 1.00418 0.76632 0.42975 0.0
C509 C 0.98415 0.77656 0.43985 0.0
C510 C 0.03863 0.81787 0.40573 0.0
C511 C 1.00572 0.74118 0.43086 0.0
H512 H 0.05123 0.7288 0.30096 0.0
H513 H 0.07478 0.73077 0.46031 0.0
H514 H 0.01189 0.76364 0.30891 0.0
H515 H 0.03115 0.78639 0.31025 0.0
H516 H 0.03486 0.76103 0.26791 0.0
H517 H 0.07339 0.76616 0.51615 0.0
H518 H 0.05674 0.78907 0.4959 0.0
H519 H 0.04389 0.76477 0.51646 0.0
H520 H 0.99724 0.83056 0.42478 0.0
H521 H 0.97032 0.76649 0.44875 0.0
H522 H 0.0366 0.82174 0.3649 0.0
H523 H 0.05496 0.81004 0.41178 0.0
H524 H 0.03829 0.83405 0.43063 0.0
H525 H 0.01061 0.73314 0.39289 0.0
H526 H 0.98989 0.73353 0.43958 0.0
H527 H 0.01837 0.73716 0.46083 0.0
C528 C 0.56827 0.76403 0.63263 0.0
C529 C 0.56832 0.77329 0.6843 0.0
C530 C 0.55621 0.74439 0.61674 0.0
C531 C 0.54379 0.73486 0.6534 0.0
C532 C 0.54825 0.74121 0.70689 0.0
C533 C 0.56057 0.76066 0.72187 0.0
C534 C 0.55362 0.73629 0.55986 0.0
C535 C 0.53663 0.73029 0.74764 0.0
C536 C 0.48274 0.7343 0.62071 0.0
C537 C 0.47783 0.7116 0.61906 0.0
C538 C 0.50436 0.74193 0.63056 0.0
C539 C 0.52152 0.72619 0.637 0.0
C540 C 0.51666 0.70301 0.63271 0.0
C541 C 0.49467 0.69598 0.6245 0.0
C542 C 0.50855 0.76695 0.63551 0.0
C543 C 0.53443 0.68556 0.63528 0.0
H544 H 0.57529 0.77331 0.60386 0.0
H545 H 0.56176 0.76735 0.76234 0.0
H546 H 0.55071 0.71791 0.55407 0.0
H547 H 0.53922 0.7446 0.54207 0.0
H548 H 0.5684 0.74047 0.53943 0.0
H549 H 0.51956 0.73675 0.74938 0.0
H550 H 0.53567 0.71187 0.73803 0.0
H551 H 0.5451 0.73401 0.7866 0.0
H552 H 0.46953 0.74617 0.61581 0.0
H553 H 0.49068 0.67825 0.62138 0.0
H554 H 0.51947 0.7712 0.60514 0.0
H555 H 0.51683 0.77252 0.6738 0.0
H556 H 0.49314 0.77669 0.6315 0.0
H557 H 0.53975 0.68077 0.59549 0.0
H558 H 0.52816 0.6702 0.6502 0.0
H559 H 0.54914 0.69177 0.6597 0.0
C560 C 0.49877 0.2944 1.00443 0.0
C561 C 0.49064 0.30891 0.96925 0.0
C562 C 0.51833 0.28287 0.99579 0.0
C563 C 0.52962 0.28621 0.95105 0.0
C564 C 0.52393 0.30432 0.9224 0.0
C565 C 0.50398 0.31529 0.93107 0.0
C566 C 0.52491 0.26473 0.02973 0.0
C567 C 0.53725 0.30995 0.87825 0.0
C568 C 0.56978 0.23928 0.9254 0.0
C569 C 0.55608 0.22375 0.895 0.0
C570 C 0.56231 0.26092 0.94018 0.0
C571 C 0.54054 0.26664 0.92495 0.0
C572 C 0.52735 0.2514 0.89079 0.0
C573 C 0.53548 0.23018 0.87581 0.0
C574 C 0.57748 0.2769 0.97394 0.0
C575 C 0.50398 0.25668 0.87307 0.0
H576 H 0.48888 0.29043 0.03575 0.0
H577 H 0.49816 0.32753 0.90563 0.0
H578 H 0.52162 0.24803 1.00803 0.0
H579 H 0.54276 0.26589 0.04082 0.0
H580 H 0.5157 0.26585 0.06564 0.0
H581 H 0.5353 0.32785 0.87153 0.0
H582 H 0.55497 0.3064 0.88606 0.0
H583 H 0.53147 0.29958 0.8422 0.0
H584 H 0.58614 0.23442 0.93855 0.0
H585 H 0.5252 0.21817 0.85129 0.0
H586 H 0.5796 0.27116 1.01318 0.0
H587 H 0.57137 0.29437 0.97746 0.0
H588 H 0.59404 0.27669 0.95793 0.0
H589 H 0.4938 0.26023 0.90704 0.0
H590 H 0.49607 0.24269 0.84721 0.0
H591 H 0.50375 0.27173 0.8517 0.0
C592 C 0.94582 0.74867 0.88445 0.0
C593 C 0.96099 0.73112 0.87987 0.0
C594 C 0.95303 0.771 0.89121 0.0
C595 C 0.97589 0.77557 0.89551 0.0
C596 C 0.99117 0.75768 0.88879 0.0
C597 C 0.9834 0.73568 0.88019 0.0
C598 C 0.93601 0.78928 0.89483 0.0
C599 C 0.01584 0.76144 0.89311 0.0
C600 C 0.01556 0.82102 0.89794 0.0
C601 C 0.02315 0.82042 0.94962 0.0
C602 C 0.99579 0.81015 0.87993 0.0
C603 C 0.98453 0.79811 0.91444 0.0
C604 C 0.9893 0.80255 0.9684 0.0
C605 C 0.00887 0.81376 0.98559 0.0
C606 C 0.98933 0.80802 0.8228 0.0
C607 C 0.97628 0.79176 1.00702 0.0
H608 H 0.92831 0.74497 0.88239 0.0
H609 H 0.99493 0.72192 0.87565 0.0
H610 H 0.943 0.8061 0.89128 0.0
H611 H 0.92275 0.7856 0.86395 0.0
H612 H 0.92821 0.78958 0.93248 0.0
H613 H 0.02516 0.74553 0.88789 0.0
H614 H 0.02074 0.7721 0.86325 0.0
H615 H 0.02093 0.77007 0.93173 0.0
H616 H 0.02608 0.82735 0.8705 0.0
H617 H 0.01429 0.81458 1.02622 0.0
H618 H 0.97141 0.80468 0.8156 0.0
H619 H 0.9984 0.7939 0.80292 0.0
H620 H 0.99372 0.82351 0.80555 0.0
H621 H 0.9584 0.79376 0.9983 0.0
H622 H 0.98045 0.79909 0.0474 0.0
H623 H 0.97985 0.77354 1.00441 0.0
C624 C 0.0474 0.24821 0.64155 0.0
C625 C 0.05104 0.22535 0.64373 0.0
C626 C 0.02668 0.25728 0.65013 0.0
C627 C 0.00954 0.24306 0.66222 0.0
C628 C 0.01406 0.22072 0.67177 0.0
C629 C 0.03478 0.21188 0.66112 0.0
C630 C 0.02257 0.28134 0.64015 0.0
C631 C 0.99651 0.20564 0.68841 0.0
C632 C 0.95793 0.27683 0.67137 0.0
C633 C 0.95006 0.27391 0.61952 0.0
C634 C 0.97607 0.26467 0.68818 0.0
C635 C 0.98671 0.25003 0.65148 0.0
C636 C 0.97748 0.24566 0.60005 0.0
C637 C 0.95894 0.25754 0.58492 0.0
C638 C 0.98457 0.26874 0.74404 0.0
C639 C 0.98833 0.23012 0.55957 0.0
H640 H 0.06023 0.25869 0.62922 0.0
H641 H 0.03772 0.1942 0.66332 0.0
H642 H 0.01169 0.28181 0.60452 0.0
H643 H 0.01411 0.29037 0.67268 0.0
H644 H 0.03805 0.29049 0.63501 0.0
H645 H 1.00387 0.19146 0.70754 0.0
H646 H 0.98554 0.21513 0.71539 0.0
H647 H 0.98624 0.19858 0.65397 0.0
H648 H 0.95012 0.2888 0.69853 0.0
H649 H 0.95231 0.25513 0.54509 0.0
H650 H 0.99596 0.28334 0.74873 0.0
H651 H 0.9936 0.25405 0.75686 0.0
H652 H 0.97083 0.27274 0.76983 0.0
H653 H 1.00461 0.23708 0.55196 0.0
H654 H 0.97829 0.22773 0.52235 0.0
H655 H 0.99117 0.21348 0.57357 0.0
C656 C 0.44583 0.24694 0.39621 0.0
C657 C 0.46106 0.23013 0.38297 0.0
C658 C 0.45264 0.26935 0.40683 0.0
C659 C 0.4753 0.27461 0.40648 0.0
C660 C 0.49056 0.25752 0.39141 0.0
C661 C 0.48307 0.23556 0.37875 0.0
C662 C 0.43548 0.2869 0.41929 0.0
C663 C 0.51504 0.26201 0.39104 0.0
C664 C 0.51275 0.32265 0.41153 0.0
C665 C 0.52211 0.32093 0.46142 0.0
C666 C 0.4933 0.31086 0.39485 0.0
C667 C 0.48413 0.29674 0.42846 0.0
C668 C 0.49072 0.29931 0.48181 0.0
C669 C 0.50987 0.31152 0.4978 0.0
C670 C 0.4848 0.31062 0.3392 0.0
C671 C 0.48006 0.28603 0.52006 0.0
H672 H 0.42859 0.24263 0.39789 0.0
H673 H 0.49463 0.2224 0.36777 0.0
H674 H 0.42897 0.28463 0.45748 0.0
H675 H 0.44187 0.30426 0.4201 0.0
H676 H 0.42137 0.28461 0.39014 0.0
H677 H 0.52454 0.24652 0.381 0.0
H678 H 0.51828 0.27387 0.36232 0.0
H679 H 0.52144 0.26965 0.42967 0.0
H680 H 0.52169 0.33095 0.38399 0.0
H681 H 0.51667 0.31121 0.53718 0.0
H682 H 0.46698 0.30635 0.3347 0.0
H683 H 0.49385 0.29789 0.3147 0.0
H684 H 0.48751 0.32715 0.3248 0.0
H685 H 0.46191 0.2874 0.51581 0.0
H686 H 0.48553 0.29186 0.56074 0.0
H687 H 0.48437 0.26806 0.51233 0.0
C688 C 0.56154 0.74331 0.12848 0.0
C689 C 0.54973 0.72751 0.15216 0.0
C690 C 0.55157 0.76327 0.11613 0.0
C691 C 0.52948 0.76725 0.12844 0.0
C692 C 0.51799 0.75171 0.15496 0.0
C693 C 0.52838 0.73207 0.16663 0.0
C694 C 0.5648 0.77985 0.09044 0.0
C695 C 0.49437 0.7552 0.16931 0.0
C696 C 0.491 0.81388 0.14215 0.0
C697 C 0.47616 0.80629 0.10098 0.0
C698 C 0.51179 0.80413 0.14658 0.0
C699 C 0.51701 0.78616 0.10996 0.0
C700 C 0.50392 0.78188 0.06328 0.0
C701 C 0.48332 0.79198 0.05947 0.0
C702 C 0.52655 0.8105 0.19435 0.0
C703 C 0.5099 0.76396 1.02141 0.0
H704 H 0.57845 0.74001 0.11922 0.0
H705 H 0.51948 0.7199 0.18569 0.0
H706 H 0.55438 0.79002 0.06553 0.0
H707 H 0.57341 0.79149 0.121 0.0
H708 H 0.57751 0.77122 0.06669 0.0
H709 H 0.48794 0.74113 0.18888 0.0
H710 H 0.49304 0.77078 0.19584 0.0
H711 H 0.48358 0.7569 0.13412 0.0
H712 H 0.48581 0.82601 0.17285 0.0
H713 H 0.47217 0.78713 1.02616 0.0
H714 H 0.54413 0.80849 0.18559 0.0
H715 H 0.52301 0.79936 0.22447 0.0
H716 H 0.52368 0.82806 0.21047 0.0
H717 H 0.52779 0.76438 1.01537 0.0
H718 H 0.50065 0.76592 0.98406 0.0
H719 H 0.50585 0.74725 0.03331 0.0
C720 C 0.32053 0.40476 0.9991 0.0
C721 C 0.32082 0.40281 0.94487 0.0
C722 C 0.30051 0.40442 1.02407 0.0
C723 C 0.28023 0.40172 0.99419 0.0
C724 C 0.28062 0.39849 0.93941 0.0
C725 C 0.3008 0.39932 0.91554 0.0
C726 C 0.30099 0.40822 0.08241 0.0
C727 C 0.25959 0.39509 0.9058 0.0
C728 C 0.22767 0.38754 0.05974 0.0
C729 C 0.21717 0.40846 0.06658 0.0
C730 C 0.24805 0.38504 0.03627 0.0
C731 C 0.25859 0.40394 1.01976 0.0
C732 C 0.24819 0.42509 1.02677 0.0
C733 C 0.22766 0.42703 0.0494 0.0
C734 C 0.25829 0.36211 0.02899 0.0
C735 C 0.25876 0.44578 1.01019 0.0
H736 H 0.33588 0.40782 1.02201 0.0
H737 H 0.30089 0.39786 0.87362 0.0
H738 H 0.29327 0.42456 0.09431 0.0
H739 H 0.29129 0.39506 0.09808 0.0
H740 H 0.31802 0.40829 0.10025 0.0
H741 H 0.26278 0.39052 0.86438 0.0
H742 H 0.2494 0.38172 0.91921 0.0
H743 H 0.24982 0.41072 0.90891 0.0
H744 H 0.22013 0.37304 0.07333 0.0
H745 H 0.21974 0.44323 0.05309 0.0
H746 H 0.27464 0.36231 0.05015 0.0
H747 H 0.26095 0.35748 0.98737 0.0
H748 H 0.2479 0.349 0.04295 0.0
H749 H 0.27556 0.44813 0.02893 0.0
H750 H 0.24909 0.46116 1.02023 0.0
H751 H 0.26047 0.44375 0.9677 0.0
C752 C 0.87974 0.97698 0.37461 0.0
C753 C 0.8621 0.96205 0.36124 0.0
C754 C 0.88178 0.99661 0.35008 0.0
C755 C 0.866 1.00124 0.31054 0.0
C756 C 0.84796 0.98636 0.29739 0.0
C757 C 0.84612 0.96704 0.32326 0.0
C758 C 0.90099 0.01223 0.36601 0.0
C759 C 0.83094 0.99053 0.25497 0.0
C760 C 0.85963 0.06007 0.26934 0.0
C761 C 0.8715 0.05863 0.22442 0.0
C762 C 0.85825 0.04176 0.29865 0.0
C763 C 0.86862 0.02135 0.28203 0.0
C764 C 0.88103 0.01998 0.23726 0.0
C765 C 0.88247 0.0387 0.20924 0.0
C766 C 0.84527 0.04408 0.34672 0.0
C767 C 0.8921 0.99847 0.21783 0.0
H768 H 0.89203 0.97321 0.40428 0.0
H769 H 0.83258 0.95541 0.3126 0.0
H770 H 0.91163 0.01303 0.33295 0.0
H771 H 0.89498 0.02944 0.37675 0.0
H772 H 0.91116 1.00682 0.39927 0.0
H773 H 0.81779 0.97751 0.24984 0.0
H774 H 0.82323 0.00713 0.26376 0.0
H775 H 0.83898 0.99084 0.21776 0.0
H776 H 0.85114 0.07549 0.28109 0.0
H777 H 0.89138 0.03745 0.17408 0.0
H778 H 0.85549 0.03904 0.38026 0.0
H779 H 0.83074 0.03273 0.34112 0.0
H780 H 0.83946 0.06148 0.35633 0.0
H781 H 0.90344 0.99279 0.24869 0.0
H782 H 0.90157 1.00031 0.18317 0.0
H783 H 0.87951 0.9851 0.20767 0.0
C784 C 0.21621 0.60603 0.52943 0.0
C785 C 0.21462 0.60201 0.47529 0.0
C786 C 0.23679 0.60806 0.5566 0.0
C787 C 0.25618 0.60628 0.5288 0.0
C788 C 0.25463 0.60302 0.47398 0.0
C789 C 0.23383 0.60073 0.44785 0.0
C790 C 0.23779 0.61114 0.6151 0.0
C791 C 0.27495 0.60127 0.44304 0.0
C792 C 0.3105 0.62333 0.60217 0.0
C793 C 0.31847 0.60246 0.61423 0.0
C794 C 0.29033 0.62492 0.5736 0.0
C795 C 0.27792 0.60521 0.55724 0.0
C796 C 0.28608 0.58413 0.56869 0.0
C797 C 0.30631 0.58301 0.59641 0.0
C798 C 0.2822 0.64763 0.56129 0.0
C799 C 0.27335 0.5627 0.55208 0.0
H800 H 0.20132 0.60697 0.55058 0.0
H801 H 0.23255 0.59799 0.40589 0.0
H802 H 0.24504 0.59602 0.63042 0.0
H803 H 0.24857 0.62557 0.62987 0.0
H804 H 0.22126 0.61393 0.63066 0.0
H805 H 0.27092 0.60112 0.40078 0.0
H806 H 0.28633 0.61548 0.45578 0.0
H807 H 0.28386 0.58563 0.44986 0.0
H808 H 0.31987 0.63838 0.61561 0.0
H809 H 0.31268 0.56673 0.604 0.0
H810 H 0.26646 0.65143 0.57982 0.0
H811 H 0.27885 0.64761 0.51887 0.0
H812 H 0.29422 0.6612 0.57486 0.0
H813 H 0.25688 0.56364 0.56848 0.0
H814 H 0.28193 0.5477 0.56475 0.0
H815 H 0.2707 0.56042 0.50928 0.0
C816 C 0.664 0.97343 0.67443 0.0
C817 C 0.66828 0.95403 0.69909 0.0
C818 C 0.66149 0.99446 0.70322 0.0
C819 C 0.66409 0.99639 0.75812 0.0
C820 C 0.66803 0.9767 0.78313 0.0
C821 C 0.66978 0.95578 0.75341 0.0
C822 C 0.65665 0.01474 0.67472 0.0
C823 C 0.67152 0.97786 0.8413 0.0
C824 C 0.68646 0.05149 0.82838 0.0
C825 C 0.66825 0.06042 0.85445 0.0
C826 C 0.68521 0.03095 0.79691 0.0
C827 C 0.66497 0.01909 0.78906 0.0
C828 C 0.6461 0.02865 0.81231 0.0
C829 C 0.64798 0.04904 0.84505 0.0
C830 C 0.70588 0.02154 0.77362 0.0
C831 C 0.62401 0.01703 0.80369 0.0
H832 H 0.66277 0.97215 0.63245 0.0
H833 H 0.67329 0.94088 0.77262 0.0
H834 H 0.64301 0.02454 0.69234 0.0
H835 H 0.67135 0.02584 0.67792 0.0
H836 H 0.65214 0.01008 0.63298 0.0
H837 H 0.67339 0.96101 0.85507 0.0
H838 H 0.68656 0.98788 0.85406 0.0
H839 H 0.6575 0.98643 0.86021 0.0
H840 H 0.70207 0.06037 0.83352 0.0
H841 H 0.63374 0.05564 0.86459 0.0
H842 H 0.70346 0.01884 0.73083 0.0
H843 H 0.70959 1.005 0.78756 0.0
H844 H 0.72038 0.03273 0.78368 0.0
H845 H 0.62025 0.0123 0.7617 0.0
H846 H 0.61052 0.02771 0.81933 0.0
H847 H 0.62441 1.00135 0.82289 0.0
C848 C 0.81471 0.60154 0.05075 0.0
C849 C 0.81401 0.60733 0.99995 0.0
C850 C 0.79535 0.60131 0.07778 0.0
C851 C 0.77501 0.60662 0.05274 0.0
C852 C 0.77444 0.61271 1.00148 0.0
C853 C 0.79402 0.61307 0.97579 0.0
C854 C 0.79656 0.595 0.13259 0.0
C855 C 0.75308 0.61827 0.97324 0.0
C856 C 0.72059 0.58496 0.09228 0.0
C857 C 0.71169 0.60444 0.11718 0.0
C858 C 0.74166 0.58517 0.07301 0.0
C859 C 0.75411 0.60533 0.07914 0.0
C860 C 0.74559 0.62477 0.10633 0.0
C861 C 0.72444 0.62411 0.12492 0.0
C862 C 0.75014 0.56413 0.0439 0.0
C863 C 0.75844 0.64651 0.11397 0.0
H864 H 0.8303 0.59693 0.06891 0.0
H865 H 0.79367 0.61729 0.93615 0.0
H866 H 0.78888 0.60821 0.15866 0.0
H867 H 0.78717 0.57927 0.13434 0.0
H868 H 0.81378 0.59255 0.14742 0.0
H869 H 0.75558 0.62299 0.93374 0.0
H870 H 0.74175 0.60363 0.96984 0.0
H871 H 0.74483 0.63233 0.99549 0.0
H872 H 0.71072 0.56977 0.08604 0.0
H873 H 0.71771 0.6391 0.14496 0.0
H874 H 0.76692 0.56027 0.05931 0.0
H875 H 0.75132 0.56674 1.00248 0.0
H876 H 0.73928 0.54943 0.0463 0.0
H877 H 0.77536 0.64367 0.1301 0.0
H878 H 0.75044 0.65944 0.14027 0.0
H879 H 0.75996 0.65314 0.07601 0.0
C880 C 0.14725 0.9717 0.87215 0.0
C881 C 0.16351 0.95579 0.85929 0.0
C882 C 0.14538 0.9916 0.8479 0.0
C883 C 0.1599 0.99569 0.80911 0.0
C884 C 0.17622 0.97958 0.79556 0.0
C885 C 0.17797 0.95997 0.82113 0.0
C886 C 0.12804 0.00843 0.86441 0.0
C887 C 0.19184 0.98304 0.75395 0.0
C888 C 0.14356 0.03835 0.71408 0.0
C889 C 0.15686 0.05686 0.73292 0.0
C890 C 0.14427 0.01842 0.73854 0.0
C891 C 0.15834 0.01702 0.78353 0.0
C892 C 0.1712 0.03598 0.80368 0.0
C893 C 0.17047 0.05551 0.77792 0.0
C894 C 0.13048 0.99859 0.71527 0.0
C895 C 0.18606 0.0355 0.85207 0.0
H896 H 0.13621 0.96877 0.90212 0.0
H897 H 0.19049 0.94773 0.81079 0.0
H898 H 0.13598 0.02465 0.87929 0.0
H899 H 0.11692 0.01155 0.83066 0.0
H900 H 0.11797 1.00275 0.89502 0.0
H901 H 0.20307 0.96862 0.74659 0.0
H902 H 0.1824 0.98561 0.71726 0.0
H903 H 0.20191 0.99836 0.76536 0.0
H904 H 0.13325 0.03916 0.67894 0.0
H905 H 0.18075 0.06977 0.79272 0.0
H906 H 0.11967 0.993 0.74448 0.0
H907 H 0.14137 0.98436 0.70349 0.0
H908 H 0.12006 1.00247 0.68089 0.0
H909 H 0.1765 0.03062 0.8843 0.0
H910 H 0.1941 0.05197 0.86433 0.0
H911 H 0.19905 0.02275 0.84529 0.0
C912 C 0.71218 0.39814 0.44364 0.0
C913 C 0.70475 0.41993 0.43702 0.0
C914 C 0.73285 0.39437 0.46871 0.0
C915 C 0.74673 0.41278 0.48746 0.0
C916 C 0.73955 0.43475 0.48 0.0
C917 C 0.71874 0.43805 0.45537 0.0
C918 C 0.73968 0.37068 0.476 0.0
C919 C 0.75369 0.45494 0.49912 0.0
C920 C 0.7892 0.41021 0.60058 0.0
C921 C 0.80913 0.4086 0.57577 0.0
C922 C 0.76881 0.41042 0.57221 0.0
C923 C 0.76817 0.40937 0.51739 0.0
C924 C 0.78824 0.40679 0.49199 0.0
C925 C 0.80846 0.40634 0.52146 0.0
C926 C 0.74798 0.41286 0.6012 0.0
C927 C 0.78845 0.40577 0.43379 0.0
H928 H 0.70181 0.38392 0.4292 0.0
H929 H 0.71323 0.455 0.45174 0.0
H930 H 0.75585 0.36708 0.45934 0.0
H931 H 0.74169 0.36868 0.51798 0.0
H932 H 0.72747 0.35811 0.45762 0.0
H933 H 0.74643 0.47079 0.48757 0.0
H934 H 0.75586 0.45631 0.542 0.0
H935 H 0.7703 0.45301 0.48369 0.0
H936 H 0.78965 0.41211 0.64258 0.0
H937 H 0.82382 0.40545 0.50214 0.0
H938 H 0.7357 0.39998 0.58493 0.0
H939 H 0.74061 0.4295 0.59666 0.0
H940 H 0.75104 0.4113 0.64322 0.0
H941 H 0.7764 0.39312 0.4152 0.0
H942 H 0.80499 0.40159 0.41958 0.0
H943 H 0.78345 0.42223 0.42119 0.0
C944 C 0.36966 0.97054 0.27077 0.0
C945 C 0.34987 0.95839 0.26032 0.0
C946 C 0.37023 0.99157 0.29997 0.0
C947 C 0.35046 1.00102 0.31816 0.0
C948 C 0.33047 0.98884 0.30823 0.0
C949 C 0.33046 0.96759 0.28003 0.0
C950 C 0.39194 1.00388 0.3105 0.0
C951 C 0.30898 0.99848 0.32639 0.0
C952 C 0.35118 0.04874 0.42652 0.0
C953 C 0.3483 0.06737 0.39856 0.0
C954 C 0.3526 0.02706 0.40084 0.0
C955 C 0.35051 0.02398 0.346 0.0
C956 C 0.34781 0.04282 0.31765 0.0
C957 C 0.34696 0.06433 0.34432 0.0
C958 C 0.35602 0.00745 0.43234 0.0
C959 C 0.3451 0.04021 0.25921 0.0
H960 H 0.38471 0.96387 0.25507 0.0
H961 H 0.31516 0.95823 0.27314 0.0
H962 H 0.39159 0.01936 0.29053 0.0
H963 H 0.39474 0.00905 0.3526 0.0
H964 H 0.40604 0.99352 0.29711 0.0
H965 H 0.29487 0.98686 0.31557 0.0
H966 H 0.31008 1.00243 0.3691 0.0
H967 H 0.30559 0.01441 0.30928 0.0
H968 H 0.35223 0.05116 0.46851 0.0
H969 H 0.34442 0.07875 0.32279 0.0
H970 H 0.37042 0.99753 0.41915 0.0
H971 H 0.34144 0.99617 0.42649 0.0
H972 H 0.3587 0.01282 0.47443 0.0
H973 H 0.35942 0.03127 0.24254 0.0
H974 H 0.34345 0.05658 0.24298 0.0
H975 H 0.33024 0.02991 0.24651 0.0
C976 C 0.82018 0.91491 0.51219 0.0
C977 C 0.82147 0.90885 0.45888 0.0
C978 C 0.8001 0.91352 0.53658 0.0
C979 C 0.78072 0.90572 0.50713 0.0
C980 C 0.78221 0.89881 0.4535 0.0
C981 C 0.80244 0.9007 0.43001 0.0
C982 C 0.79943 0.92134 0.59353 0.0
C983 C 0.76223 0.89011 0.42047 0.0
C984 C 0.73121 0.88874 0.58086 0.0
C985 C 0.71776 0.90786 0.58134 0.0
C986 C 0.7514 0.88761 0.55619 0.0
C987 C 0.75874 0.90612 0.5317 0.0
C988 C 0.74515 0.9253 0.53138 0.0
C989 C 0.72492 0.92585 0.55556 0.0
C990 C 0.76507 0.86667 0.55703 0.0
C991 C 0.75215 0.94552 0.5061 0.0
H992 H 0.83473 0.92164 0.53445 0.0
H993 H 0.80327 0.89632 0.38865 0.0
H994 H 0.78871 0.93626 0.5988 0.0
H995 H 0.79223 0.90812 0.61437 0.0
H996 H 0.81604 0.92581 0.61165 0.0
H997 H 0.76644 0.88353 0.38072 0.0
H998 H 0.75412 0.87658 0.43867 0.0
H999 H 0.7501 0.90378 0.41751 0.0
H1000 H 0.72629 0.87478 0.60096 0.0
H1001 H 0.71468 0.94057 0.5543 0.0
H1002 H 0.78098 0.87062 0.57908 0.0
H1003 H 0.76891 0.8602 0.517 0.0
H1004 H 0.75662 0.85325 0.57497 0.0
H1005 H 0.76811 0.95206 0.52438 0.0
H1006 H 0.73986 0.9592 0.50928 0.0
H1007 H 0.75467 0.94071 0.46449 0.0
C1008 C 0.3492 0.47285 0.86171 0.0
C1009 C 0.3609 0.45401 0.84196 0.0
C1010 C 0.35034 0.4932 0.83985 0.0
C1011 C 0.3639 0.49494 0.79796 0.0
C1012 C 0.376 0.47614 0.77822 0.0
C1013 C 0.37411 0.45583 0.79995 0.0
C1014 C 0.3368 0.51276 0.86116 0.0
C1015 C 0.39083 0.47744 0.7339 0.0
C1016 C 0.34899 0.53815 0.70616 0.0
C1017 C 0.36311 0.55612 0.72464 0.0
C1018 C 0.34903 0.51831 0.72995 0.0
C1019 C 0.36412 0.51592 0.77231 0.0
C1020 C 0.37901 0.53357 0.79019 0.0
C1021 C 0.37823 0.55359 0.76636 0.0
C1022 C 0.33272 0.49998 0.71 0.0
C1023 C 0.39567 0.53132 0.83459 0.0
H1024 H 0.33935 0.47184 0.89487 0.0
H1025 H 0.38301 0.44134 0.78392 0.0
H1026 H 0.34765 0.52736 0.87412 0.0
H1027 H 0.32511 0.51788 0.83026 0.0
H1028 H 0.32728 0.50874 0.8943 0.0
H1029 H 0.4005 0.46189 0.72596 0.0
H1030 H 0.38084 0.48033 0.69822 0.0
H1031 H 0.40242 0.4918 0.74259 0.0
H1032 H 0.3378 0.53953 0.67271 0.0
H1033 H 0.38923 0.56731 0.78076 0.0
H1034 H 0.32239 0.49593 0.74169 0.0
H1035 H 0.34155 0.48449 0.69661 0.0
H1036 H 0.32172 0.50476 0.67741 0.0
H1037 H 0.38708 0.52923 0.87034 0.0
H1038 H 0.4068 0.54612 0.84218 0.0
H1039 H 0.40577 0.51613 0.82618 0.0
C1040 C 0.72866 0.12356 0.99935 0.0
C1041 C 0.7172 0.10303 0.99211 0.0
C1042 C 0.74975 0.12532 1.02454 0.0
C1043 C 0.75978 0.10604 0.04236 0.0
C1044 C 0.74816 0.0854 0.03609 0.0
C1045 C 0.72699 0.08419 1.01148 0.0
C1046 C 0.7615 0.14768 0.03101 0.0
C1047 C 0.75828 0.06441 0.05436 0.0
C1048 C 0.82209 0.10159 0.05722 0.0
C1049 C 0.82585 0.10431 0.11124 0.0
C1050 C 0.80074 0.10284 0.03422 0.0
C1051 C 0.78272 0.10713 0.06598 0.0
C1052 C 0.78656 0.11096 0.12043 0.0
C1053 C 0.80806 0.10935 0.14243 0.0
C1054 C 0.79735 0.09845 0.97605 0.0
C1055 C 0.76787 0.11596 0.15558 0.0
H1056 H 0.72142 0.13816 0.98403 0.0
H1057 H 0.71815 0.06836 1.00703 0.0
H1058 H 0.76718 0.15203 0.07215 0.0
H1059 H 0.77633 0.14672 1.00793 0.0
H1060 H 0.75086 0.16138 1.01841 0.0
H1061 H 0.74697 0.04974 0.04717 0.0
H1062 H 0.7736 0.06038 0.03414 0.0
H1063 H 0.76289 0.06713 0.09645 0.0
H1064 H 0.83573 0.09739 0.03299 0.0
H1065 H 0.81094 0.1116 0.1842 0.0
H1066 H 0.78781 0.11223 0.96037 0.0
H1067 H 0.78766 0.08278 0.96589 0.0
H1068 H 0.81317 0.09676 0.95667 0.0
H1069 H 0.75771 0.12985 0.14234 0.0
H1070 H 0.77381 0.12056 0.1965 0.0
H1071 H 0.75699 0.10102 0.15398 0.0
C1072 C 0.1456 0.54621 0.33727 0.0
C1073 C 0.16456 0.55975 0.34045 0.0
C1074 C 0.1441 0.52595 0.30417 0.0
C1075 C 0.16197 0.51901 0.27355 0.0
C1076 C 0.18064 0.53321 0.27485 0.0
C1077 C 0.18163 0.55334 0.30782 0.0
C1078 C 0.12376 0.51152 0.30353 0.0
C1079 C 0.20008 0.52672 0.24294 0.0
C1080 C 0.1732 0.45715 0.23338 0.0
C1081 C 0.16653 0.45498 0.18065 0.0
C1082 C 0.17099 0.47762 0.26445 0.0
C1083 C 0.16193 0.49648 0.24225 0.0
C1084 C 0.15461 0.4941 0.18914 0.0
C1085 C 0.15707 0.4734 0.15896 0.0
C1086 C 0.1791 0.47929 0.32068 0.0
C1087 C 0.14485 0.51362 0.16374 0.0
H1088 H 0.13236 0.55093 0.36232 0.0
H1089 H 0.19618 0.56386 0.30914 0.0
H1090 H 0.1174 0.50665 0.26308 0.0
H1091 H 0.12796 0.49587 0.32105 0.0
H1092 H 0.11049 0.52016 0.32537 0.0
H1093 H 0.21291 0.54006 0.24641 0.0
H1094 H 0.20763 0.51124 0.25571 0.0
H1095 H 0.19462 0.52304 0.2015 0.0
H1096 H 0.1806 0.4429 0.25005 0.0
H1097 H 0.15201 0.47173 0.11808 0.0
H1098 H 0.16598 0.48604 0.34574 0.0
H1099 H 0.19325 0.49112 0.32727 0.0
H1100 H 0.18441 0.46283 0.33291 0.0
H1101 H 0.1315 0.52134 0.18677 0.0
H1102 H 0.13812 0.50857 0.1236 0.0
H1103 H 0.15767 0.52667 0.1624 0.0
C1104 C 0.30316 0.12142 0.56302 0.0
C1105 C 0.30227 0.11823 0.50885 0.0
C1106 C 0.28379 0.12097 0.59013 0.0
C1107 C 0.26317 0.11736 0.56219 0.0
C1108 C 0.26225 0.11524 0.50731 0.0
C1109 C 0.28184 0.11555 0.48134 0.0
C1110 C 0.2855 0.12314 0.64858 0.0
C1111 C 0.24067 0.11155 0.47592 0.0
C1112 C 0.21677 0.08766 0.6201 0.0
C1113 C 0.20261 0.10537 0.63486 0.0
C1114 C 0.2368 0.09149 0.59813 0.0
C1115 C 0.24283 0.11357 0.58978 0.0
C1116 C 0.22882 0.1316 0.60507 0.0
C1117 C 0.20893 0.12731 0.62761 0.0
C1118 C 0.25125 0.07175 0.58251 0.0
C1119 C 0.23458 0.15535 0.59649 0.0
H1120 H 0.31905 0.12327 0.58411 0.0
H1121 H 0.28128 0.11298 0.43936 0.0
H1122 H 0.27359 0.13566 0.66445 0.0
H1123 H 0.28128 0.10685 0.66234 0.0
H1124 H 0.30232 0.12815 0.66448 0.0
H1125 H 0.24254 0.11244 0.4339 0.0
H1126 H 0.23388 0.09481 0.4812 0.0
H1127 H 0.22845 0.12421 0.48956 0.0
H1128 H 0.21194 0.07059 0.62434 0.0
H1129 H 0.19828 0.14116 0.63933 0.0
H1130 H 0.26822 0.07471 0.59978 0.0
H1131 H 0.25227 0.06971 0.53979 0.0
H1132 H 0.24494 0.05585 0.59475 0.0
H1133 H 0.25118 0.15988 0.61437 0.0
H1134 H 0.22251 0.16764 0.61283 0.0
H1135 H 0.23513 0.15678 0.55435 0.0
C1136 C 0.63681 0.4823 0.34192 0.0
C1137 C 0.65417 0.46724 0.33204 0.0
C1138 C 0.6347 0.5022 0.31722 0.0
C1139 C 0.65022 0.50735 0.28133 0.0
C1140 C 0.66738 0.4919 0.2701 0.0
C1141 C 0.66915 0.47221 0.29545 0.0
C1142 C 0.6162 0.51808 0.33077 0.0
C1143 C 0.68426 0.4964 0.23195 0.0
C1144 C 0.6397 0.55112 0.18452 0.0
C1145 C 0.65267 0.56925 0.20724 0.0
C1146 C 0.63793 0.53123 0.20905 0.0
C1147 C 0.64941 0.52934 0.25758 0.0
C1148 C 0.6616 0.54812 0.28171 0.0
C1149 C 0.66319 0.56766 0.25619 0.0
C1150 C 0.62478 0.51177 0.18162 0.0
C1151 C 0.67399 0.54719 0.33339 0.0
H1152 H 0.62524 0.47891 0.37039 0.0
H1153 H 0.68245 0.46067 0.28671 0.0
H1154 H 0.62309 0.53407 0.35042 0.0
H1155 H 0.60684 0.52208 0.29505 0.0
H1156 H 0.60464 0.51109 0.35666 0.0
H1157 H 0.69594 0.48231 0.22542 0.0
H1158 H 0.67594 0.49943 0.19423 0.0
H1159 H 0.6938 0.51177 0.24643 0.0
H1160 H 0.63193 0.55201 0.14621 0.0
H1161 H 0.67354 0.58145 0.27357 0.0
H1162 H 0.61348 0.50502 0.20835 0.0
H1163 H 0.63611 0.49808 0.16883 0.0
H1164 H 0.61497 0.51655 0.14714 0.0
H1165 H 0.663 0.54126 0.36186 0.0
H1166 H 0.68099 0.56375 0.34925 0.0
H1167 H 0.68767 0.53504 0.32907 0.0
C1168 C 0.21019 0.9074 1.02279 0.0
C1169 C 0.20863 0.90619 0.96848 0.0
C1170 C 0.2307 0.90586 0.05048 0.0
C1171 C 0.25025 0.90241 1.02338 0.0
C1172 C 0.24856 0.90002 0.96836 0.0
C1173 C 0.22792 0.90232 0.94173 0.0
C1174 C 0.23156 0.90911 0.10891 0.0
C1175 C 0.26868 0.89567 0.93753 0.0
C1176 C 0.30362 0.92632 0.0924 0.0
C1177 C 0.31271 0.90794 0.11557 0.0
C1178 C 0.28365 0.92461 0.06215 0.0
C1179 C 0.2725 0.90373 0.05254 0.0
C1180 C 0.28231 0.88468 0.0726 0.0
C1181 C 0.30214 0.88702 0.10417 0.0
C1182 C 0.27401 0.9455 0.04229 0.0
C1183 C 0.2715 0.86193 0.062 0.0
H1184 H 0.19543 0.91062 0.0438 0.0
H1185 H 0.22687 0.90128 0.89977 0.0
H1186 H 0.24026 0.89495 0.12513 0.0
H1187 H 0.24101 0.92461 0.12286 0.0
H1188 H 0.2149 0.9105 0.12433 0.0
H1189 H 0.26432 0.89107 0.8957 0.0
H1190 H 0.27922 0.91091 0.94151 0.0
H1191 H 0.27861 0.882 0.95261 0.0
H1192 H 0.31187 0.94245 0.09924 0.0
H1193 H 0.30888 0.87265 0.12147 0.0
H1194 H 0.25765 0.94886 0.05822 0.0
H1195 H 0.27149 0.94311 0.99949 0.0
H1196 H 0.28468 0.96048 0.05309 0.0
H1197 H 0.2561 0.86176 0.08288 0.0
H1198 H 0.28236 0.8484 0.0746 0.0
H1199 H 0.26693 0.85824 1.02004 0.0
C1200 C 0.83509 0.55113 0.84833 0.0
C1201 C 0.85429 0.56349 0.86475 0.0
C1202 C 0.83586 0.53122 0.81524 0.0
C1203 C 0.85627 0.52361 0.79694 0.0
C1204 C 0.87566 0.53627 0.81197 0.0
C1205 C 0.87447 0.55601 0.84596 0.0
C1206 C 0.81479 0.51818 0.80038 0.0
C1207 C 0.89767 0.52884 0.79253 0.0
C1208 C 0.85919 0.46131 0.7542 0.0
C1209 C 0.85444 0.46071 0.70069 0.0
C1210 C 0.86042 0.48174 0.78582 0.0
C1211 C 0.85717 0.50206 0.76321 0.0
C1212 C 0.85308 0.50156 0.70889 0.0
C1213 C 0.85153 0.48084 0.67831 0.0
C1214 C 0.86437 0.48152 0.84365 0.0
C1215 C 0.8499 0.52287 0.68324 0.0
H1216 H 0.81929 0.55708 0.86116 0.0
H1217 H 0.88938 0.56542 0.85839 0.0
H1218 H 0.81169 0.51643 0.75769 0.0
H1219 H 0.81634 0.50104 0.81258 0.0
H1220 H 0.80029 0.52632 0.81832 0.0
H1221 H 0.91099 0.54117 0.80553 0.0
H1222 H 0.90219 0.51253 0.80659 0.0
H1223 H 0.89668 0.52631 0.74956 0.0
H1224 H 0.86129 0.44571 0.77153 0.0
H1225 H 0.84807 0.48035 0.63682 0.0
H1226 H 0.84974 0.48827 0.86351 0.0
H1227 H 0.87855 0.49249 0.85801 0.0
H1228 H 0.86762 0.4644 0.85483 0.0
H1229 H 0.83454 0.53121 0.69575 0.0
H1230 H 0.84884 0.51972 0.64029 0.0
H1231 H 0.86369 0.53471 0.6953 0.0
C1232 C 0.13223 0.23331 0.72928 0.0
C1233 C 0.12966 0.21046 0.73503 0.0
C1234 C 0.1317 0.24969 0.77233 0.0
C1235 C 0.12878 0.24309 0.82245 0.0
C1236 C 0.12788 0.21994 0.82881 0.0
C1237 C 0.1282 0.204 0.78518 0.0
C1238 C 0.13257 0.27412 0.76348 0.0
C1239 C 0.125 0.21199 0.8813 0.0
C1240 C 0.13594 0.28534 0.94373 0.0
C1241 C 0.11403 0.29114 0.95288 0.0
C1242 C 0.14109 0.26993 0.90128 0.0
C1243 C 0.12397 0.26014 0.86688 0.0
C1244 C 0.10187 0.26607 0.87589 0.0
C1245 C 0.09721 0.28134 0.9186 0.0
C1246 C 0.16483 0.26393 0.89349 0.0
C1247 C 0.08301 0.25616 0.84051 0.0
H1248 H 0.133 0.23854 0.69072 0.0
H1249 H 0.12616 0.1864 0.79004 0.0
H1250 H 0.116 0.28155 0.76799 0.0
H1251 H 0.14405 0.28347 0.79267 0.0
H1252 H 0.13779 0.27653 0.72414 0.0
H1253 H 0.12746 0.19363 0.88098 0.0
H1254 H 0.13673 0.22076 0.91084 0.0
H1255 H 0.10813 0.21599 0.89343 0.0
H1256 H 0.14908 0.29276 0.96984 0.0
H1257 H 0.0802 0.2856 0.92503 0.0
H1258 H 0.16929 0.26751 0.85434 0.0
H1259 H 0.16719 0.24572 0.89575 0.0
H1260 H 0.17628 0.2733 0.92283 0.0
H1261 H 0.08548 0.25938 0.79994 0.0
H1262 H 0.06683 0.26311 0.85164 0.0
H1263 H 0.08247 0.23772 0.84142 0.0
C1264 C 0.06515 0.85316 0.1179 0.0
C1265 C 0.06443 0.86725 0.07782 0.0
C1266 C 0.04905 0.85438 0.15523 0.0
C1267 C 0.03186 0.87031 0.15326 0.0
C1268 C 0.03158 0.88516 0.11412 0.0
C1269 C 0.04768 0.88333 0.07686 0.0
C1270 C 0.04992 0.83793 0.19549 0.0
C1271 C 0.0138 0.90254 0.11047 0.0
C1272 C 0.97656 0.85776 0.20798 0.0
C1273 C 0.97761 0.87057 0.25658 0.0
C1274 C 0.99407 0.85739 0.17463 0.0
C1275 C 0.01329 0.87038 0.18946 0.0
C1276 C 0.01447 0.88347 0.23834 0.0
C1277 C 0.99675 0.88328 0.27142 0.0
C1278 C 0.99204 0.84283 0.12356 0.0
C1279 C 0.03447 0.89776 0.25563 0.0
H1280 H 0.07781 0.84048 0.11896 0.0
H1281 H 0.04689 0.89432 0.0462 0.0
H1282 H 0.04919 0.84691 0.23485 0.0
H1283 H 0.03539 0.82658 0.18913 0.0
H1284 H 0.06505 0.82758 0.19416 0.0
H1285 H 0.01692 0.91409 0.08088 0.0
H1286 H 0.99768 0.89411 0.10021 0.0
H1287 H 0.01248 0.91255 0.14852 0.0
H1288 H 0.96206 0.84761 0.19604 0.0
H1289 H 0.99786 0.89318 0.30878 0.0
H1290 H 1.00534 0.83018 0.12211 0.0
H1291 H 0.99403 0.85313 0.09102 0.0
H1292 H 0.97594 0.83395 0.11732 0.0
H1293 H 0.04933 0.88711 0.25714 0.0
H1294 H 0.03287 0.90715 0.29436 0.0
H1295 H 0.03713 0.90992 0.22714 0.0
C1296 C 0.3862 0.73782 0.44693 0.0
C1297 C 0.39441 0.71619 0.43478 0.0
C1298 C 0.38525 0.75353 0.41006 0.0
C1299 C 0.39335 0.74775 0.36031 0.0
C1300 C 0.40124 0.72577 0.3476 0.0
C1301 C 0.40138 0.71023 0.38462 0.0
C1302 C 0.37627 0.77659 0.42498 0.0
C1303 C 0.41068 0.71899 0.29582 0.0
C1304 C 0.38224 0.78435 0.24905 0.0
C1305 C 0.40121 0.79787 0.25337 0.0
C1306 C 0.37917 0.76824 0.28412 0.0
C1307 C 0.39569 0.76522 0.32359 0.0
C1308 C 0.41496 0.77866 0.32749 0.0
C1309 C 0.41735 0.79486 0.29288 0.0
C1310 C 0.35821 0.75456 0.2792 0.0
C1311 C 0.43329 0.77578 0.36793 0.0
H1312 H 0.38071 0.74256 0.48548 0.0
H1313 H 0.40796 0.69364 0.37493 0.0
H1314 H 0.38985 0.78909 0.42843 0.0
H1315 H 0.36417 0.78131 0.39447 0.0
H1316 H 0.3682 0.77762 0.46244 0.0
H1317 H 0.41504 0.70095 0.2908 0.0
H1318 H 0.39877 0.7225 0.26383 0.0
H1319 H 0.42574 0.72903 0.29218 0.0
H1320 H 0.36966 0.78659 0.21885 0.0
H1321 H 0.43223 0.80498 0.29636 0.0
H1322 H 0.34988 0.75666 0.31628 0.0
H1323 H 0.36207 0.73651 0.27124 0.0
H1324 H 0.34664 0.7594 0.24774 0.0
H1325 H 0.42704 0.77888 0.40728 0.0
H1326 H 0.44739 0.78731 0.36528 0.0
H1327 H 0.43938 0.75829 0.36347 0.0
C1328 C 0.47663 0.13452 0.49127 0.0
C1329 C 0.45787 0.14745 0.50193 0.0
C1330 C 0.4934 0.13217 0.53012 0.0
C1331 C 0.49154 0.14324 0.58062 0.0
C1332 C 0.4722 0.15541 0.5921 0.0
C1333 C 0.45563 0.15719 0.55296 0.0
C1334 C 0.51355 0.11868 0.51649 0.0
C1335 C 0.4695 0.16774 0.64506 0.0
C1336 C 0.528 0.13219 0.69988 0.0
C1337 C 0.54309 0.15005 0.7031 0.0
C1338 C 0.51183 0.12895 0.65865 0.0
C1339 C 0.51047 0.14414 0.62022 0.0
C1340 C 0.52615 0.16173 0.62248 0.0
C1341 C 0.54229 0.16434 0.66346 0.0
C1342 C 0.4957 0.10976 0.65722 0.0
C1343 C 0.52523 0.17856 0.58299 0.0
H1344 H 0.4786 0.12684 0.45221 0.0
H1345 H 0.44125 0.16714 0.56217 0.0
H1346 H 0.5278 0.13014 0.51535 0.0
H1347 H 0.51776 0.10725 0.54648 0.0
H1348 H 0.51124 0.10863 0.47821 0.0
H1349 H 0.45294 0.17534 0.64868 0.0
H1350 H 0.4722 0.15623 0.67552 0.0
H1351 H 0.48204 0.1813 0.6527 0.0
H1352 H 0.52852 0.121 0.73009 0.0
H1353 H 0.55384 0.1782 0.66532 0.0
H1354 H 0.49432 0.10046 0.61797 0.0
H1355 H 0.47914 0.11637 0.66581 0.0
H1356 H 0.50056 0.09788 0.68587 0.0
H1357 H 0.52518 0.16985 0.54323 0.0
H1358 H 0.53931 0.19053 0.58856 0.0
H1359 H 0.50973 0.18824 0.58587 0.0
C1360 C 0.11506 0.80356 0.78158 0.0
C1361 C 0.11409 0.79619 0.83112 0.0
C1362 C 0.11654 0.78833 0.73675 0.0
C1363 C 0.11699 0.76494 0.74086 0.0
C1364 C 0.11701 0.7574 0.79088 0.0
C1365 C 0.11561 0.77303 0.83517 0.0
C1366 C 0.11654 0.79729 0.68457 0.0
C1367 C 0.11735 0.73271 0.79747 0.0
C1368 C 0.09218 0.72736 0.62417 0.0
C1369 C 0.11081 0.7186 0.59961 0.0
C1370 C 0.09405 0.74199 0.67019 0.0
C1371 C 0.11513 0.74848 0.69274 0.0
C1372 C 0.13407 0.73962 0.66848 0.0
C1373 C 0.13171 0.7247 0.62248 0.0
C1374 C 0.07331 0.75067 0.69445 0.0
C1375 C 0.15686 0.74619 0.69072 0.0
H1376 H 0.11393 0.82131 0.77742 0.0
H1377 H 0.1148 0.76694 0.87286 0.0
H1378 H 0.13003 0.78964 0.6619 0.0
H1379 H 0.10081 0.79272 0.66225 0.0
H1380 H 0.11845 0.81581 0.68804 0.0
H1381 H 0.11956 0.72955 0.83881 0.0
H1382 H 0.10162 0.72485 0.7811 0.0
H1383 H 0.13079 0.72432 0.77591 0.0
H1384 H 0.0759 0.72275 0.60739 0.0
H1385 H 0.14621 0.71815 0.60397 0.0
H1386 H 0.07265 0.76917 0.69506 0.0
H1387 H 0.07334 0.7467 0.73522 0.0
H1388 H 0.05817 0.74341 0.67328 0.0
H1389 H 0.1592 0.76455 0.69103 0.0
H1390 H 0.16993 0.73751 0.66829 0.0
H1391 H 0.15887 0.74224 0.73148 0.0
C1392 C 0.44787 0.84998 1.0019 0.0
C1393 C 0.45009 0.86633 0.04457 0.0
C1394 C 0.46382 0.84745 0.96454 0.0
C1395 C 0.48247 0.86186 0.96934 0.0
C1396 C 0.48445 0.8789 1.01144 0.0
C1397 C 0.4684 0.88076 0.04875 0.0
C1398 C 0.4612 0.82867 0.92124 0.0
C1399 C 0.50393 0.89472 1.01807 0.0
C1400 C 0.53513 0.84031 0.90851 0.0
C1401 C 0.53467 0.85051 0.86211 0.0
C1402 C 0.51832 0.84385 0.94346 0.0
C1403 C 0.50054 0.85816 0.93233 0.0
C1404 C 0.50002 0.86866 0.88579 0.0
C1405 C 0.51701 0.86465 0.85119 0.0
C1406 C 0.51945 0.83196 0.99205 0.0
C1407 C 0.48145 0.88407 0.87245 0.0
H1408 H 0.4343 0.83825 0.99915 0.0
H1409 H 0.4704 0.89329 0.08187 0.0
H1410 H 0.46216 0.83534 0.88319 0.0
H1411 H 0.47482 0.81654 0.92479 0.0
H1412 H 0.44533 0.81952 0.92162 0.0
H1413 H 0.5022 0.90817 0.05029 0.0
H1414 H 0.51917 0.88525 1.02615 0.0
H1415 H 0.506 0.90256 0.98179 0.0
H1416 H 0.54856 0.82922 0.91741 0.0
H1417 H 0.51643 0.87259 0.81553 0.0
H1418 H 0.50471 0.82113 0.99248 0.0
H1419 H 0.51939 0.84435 1.02681 0.0
H1420 H 0.53436 0.8214 0.9952 0.0
H1421 H 0.46558 0.87477 0.86929 0.0
H1422 H 0.48362 0.89133 0.83542 0.0
H1423 H 0.48028 0.89795 0.90386 0.0
C1424 C 0.39777 0.27382 0.09011 0.0
C1425 C 0.40921 0.29343 0.11001 0.0
C1426 C 0.39407 0.25661 0.12158 0.0
C1427 C 0.40196 0.25907 0.1742 0.0
C1428 C 0.41291 0.27912 0.19491 0.0
C1429 C 0.41637 0.29603 0.16262 0.0
C1430 C 0.38236 0.23548 0.09809 0.0
C1431 C 0.42163 0.28245 0.25082 0.0
C1432 C 0.38063 0.22233 0.27193 0.0
C1433 C 0.39761 0.2067 0.27531 0.0
C1434 C 0.38143 0.23904 0.23787 0.0
C1435 C 0.39981 0.24031 0.2071 0.0
C1436 C 0.41685 0.22434 0.21002 0.0
C1437 C 0.4156 0.20786 0.24436 0.0
C1438 C 0.36297 0.25578 0.23606 0.0
C1439 C 0.43691 0.22521 0.17853 0.0
H1440 H 0.39221 0.27162 0.04954 0.0
H1441 H 0.42522 0.31111 0.17846 0.0
H1442 H 0.39382 0.22111 0.0985 0.0
H1443 H 0.36835 0.23177 0.12146 0.0
H1444 H 0.37608 0.23668 0.05751 0.0
H1445 H 0.42881 0.29943 0.2616 0.0
H1446 H 0.40826 0.27986 0.27695 0.0
H1447 H 0.43453 0.26987 0.2578 0.0
H1448 H 0.36692 0.22171 0.29666 0.0
H1449 H 0.42934 0.19671 0.24908 0.0
H1450 H 0.35655 0.25658 0.19549 0.0
H1451 H 0.36928 0.27273 0.25083 0.0
H1452 H 0.34915 0.25158 0.25962 0.0
H1453 H 0.43189 0.2257 0.13696 0.0
H1454 H 0.44787 0.21061 0.1824 0.0
H1455 H 0.44645 0.24075 0.1914 0.0
C1456 C 0.9783 0.12982 0.31562 0.0
C1457 C 0.98136 0.13729 0.26705 0.0
C1458 C 0.99486 0.13248 0.35593 0.0
C1459 C 0.01493 0.14334 0.34818 0.0
C1460 C 0.01818 0.15083 0.29908 0.0
C1461 C 1.00149 0.14749 0.25901 0.0
C1462 C 0.99072 0.12391 0.40717 0.0
C1463 C 0.03907 0.1629 0.28929 0.0
C1464 C 0.04659 0.16994 0.47048 0.0
C1465 C 0.06314 0.15419 0.47806 0.0
C1466 C 0.0312 0.16691 0.42777 0.0
C1467 C 0.03213 0.14743 0.39203 0.0
C1468 C 0.04895 0.1315 0.3996 0.0
C1469 C 0.06432 0.13513 0.44244 0.0
C1470 C 0.01377 0.18446 0.42131 0.0
C1471 C 0.05044 0.1104 0.36302 0.0
H1472 H 0.96286 0.12186 0.32225 0.0
H1473 H 1.00395 0.15353 0.22185 0.0
H1474 H 1.00415 0.1125 0.41805 0.0
H1475 H 0.99066 0.13813 0.43803 0.0
H1476 H 0.97478 0.11479 0.40619 0.0
H1477 H 0.03924 0.16744 0.24893 0.0
H1478 H 0.04095 0.17845 0.31629 0.0
H1479 H 0.05356 0.15228 0.29694 0.0
H1480 H 0.04564 0.18463 0.4983 0.0
H1481 H 0.07706 0.1229 0.44854 0.0
H1482 H 0.99722 0.17706 0.42405 0.0
H1483 H 0.01424 0.19043 0.38238 0.0
H1484 H 0.01589 0.19909 0.45109 0.0
H1485 H 0.03517 0.10032 0.36337 0.0
H1486 H 0.06474 0.09994 0.37347 0.0
H1487 H 0.05186 0.11469 0.32282 0.0
C1488 C 0.92215 0.79999 0.26878 0.0
C1489 C 0.90579 0.80606 0.30364 0.0
C1490 C 0.9177 0.7853 0.22373 0.0
C1491 C 0.89617 0.77657 0.21207 0.0
C1492 C 0.87955 0.78238 0.2473 0.0
C1493 C 0.88461 0.79687 0.29297 0.0
C1494 C 0.93612 0.77938 0.18816 0.0
C1495 C 0.85631 0.77378 0.236 0.0
C1496 C 0.88453 0.75913 0.06767 0.0
C1497 C 0.88769 0.73585 0.06411 0.0
C1498 C 0.88599 0.77234 0.11581 0.0
C1499 C 0.89116 0.76219 0.16186 0.0
C1500 C 0.89372 0.73859 0.15871 0.0
C1501 C 0.89176 0.7257 0.11002 0.0
C1502 C 0.88286 0.79734 0.11708 0.0
C1503 C 0.89967 0.72705 0.20645 0.0
H1504 H 0.93867 0.80672 0.27678 0.0
H1505 H 0.87186 0.80148 0.3195 0.0
H1506 H 0.93765 0.76091 0.18094 0.0
H1507 H 0.93235 0.78582 0.15017 0.0
H1508 H 0.95223 0.78646 0.20432 0.0
H1509 H 0.84545 0.7791 0.26794 0.0
H1510 H 0.84933 0.78006 0.19988 0.0
H1511 H 0.85619 0.75521 0.2295 0.0
H1512 H 0.88126 0.76716 0.03256 0.0
H1513 H 0.89439 0.70777 0.10777 0.0
H1514 H 0.89881 0.80604 0.12785 0.0
H1515 H 0.87122 0.80325 0.14686 0.0
H1516 H 0.87654 0.80235 0.07904 0.0
H1517 H 0.91654 0.73216 0.22158 0.0
H1518 H 0.89913 0.70851 0.19841 0.0
H1519 H 0.88834 0.73219 0.23742 0.0
C1520 C 0.0317 0.17237 0.79418 0.0
C1521 C 0.04034 0.15471 0.76179 0.0
C1522 C 0.01552 0.16856 0.82889 0.0
C1523 C 1.00768 0.14649 0.83159 0.0
C1524 C 0.01593 0.12864 0.79816 0.0
C1525 C 0.03212 0.13296 0.76366 0.0
C1526 C 1.00723 0.18813 0.86367 0.0
C1527 C 1.00806 0.10489 0.79984 0.0
C1528 C 0.98556 0.13595 0.96114 0.0
C1529 C 0.9627 0.13803 0.95183 0.0
C1530 C 1.00023 0.13792 0.92196 0.0
C1531 C 0.99198 0.14204 0.87181 0.0
C1532 C 0.96889 0.14316 0.86139 0.0
C1533 C 0.95454 0.14098 0.90139 0.0
C1534 C 0.02467 0.13663 0.93504 0.0
C1535 C 0.95938 0.14763 0.80858 0.0
H1536 H 0.03775 0.18929 0.79289 0.0
H1537 H 0.03861 0.1192 0.73878 0.0
H1538 H 0.98899 0.18875 0.85997 0.0
H1539 H 0.012 0.186 0.90471 0.0
H1540 H 0.01393 0.20441 0.85455 0.0
H1541 H 0.01504 0.09309 0.76929 0.0
H1542 H 0.01284 0.09922 0.83819 0.0
H1543 H 0.98983 0.10405 0.79504 0.0
H1544 H 0.9922 0.13364 0.99979 0.0
H1545 H 0.93694 0.14229 0.89348 0.0
H1546 H 0.03238 0.15325 0.93299 0.0
H1547 H 0.03247 0.12454 0.90651 0.0
H1548 H 0.02837 0.1315 0.97446 0.0
H1549 H 0.96426 0.16468 0.8004 0.0
H1550 H 0.94113 0.14644 0.80559 0.0
H1551 H 0.96607 0.13558 0.77819 0.0
C1552 C 0.61165 0.22129 0.8105 0.0
C1553 C 0.61784 0.19887 0.79905 0.0
C1554 C 0.61027 0.2362 0.77211 0.0
C1555 C 0.61596 0.22884 0.72101 0.0
C1556 C 0.62249 0.20624 0.7093 0.0
C1557 C 0.62297 0.19143 0.74822 0.0
C1558 C 0.60245 0.25981 0.78625 0.0
C1559 C 0.62911 0.19776 0.65574 0.0
C1560 C 0.59522 0.2633 0.6123 0.0
C1561 C 0.61311 0.27778 0.60859 0.0
C1562 C 0.596 0.24711 0.64805 0.0
C1563 C 0.6153 0.24495 0.68036 0.0
C1564 C 0.63363 0.25906 0.67562 0.0
C1565 C 0.63223 0.27541 0.64033 0.0
C1566 C 0.57589 0.2328 0.65242 0.0
C1567 C 0.65467 0.25712 0.70844 0.0
H1568 H 0.60724 0.22709 0.84943 0.0
H1569 H 0.62761 0.1741 0.73909 0.0
H1570 H 0.61574 0.27194 0.78126 0.0
H1571 H 0.58823 0.26359 0.75998 0.0
H1572 H 0.59742 0.26253 0.82686 0.0
H1573 H 0.63445 0.18 0.65323 0.0
H1574 H 0.6151 0.19923 0.62711 0.0
H1575 H 0.64277 0.20819 0.64452 0.0
H1576 H 0.58031 0.26506 0.58827 0.0
H1577 H 0.64618 0.28639 0.63767 0.0
H1578 H 0.56976 0.2361 0.69189 0.0
H1579 H 0.58015 0.21479 0.64673 0.0
H1580 H 0.56237 0.23609 0.6237 0.0
H1581 H 0.65161 0.26177 0.74983 0.0
H1582 H 0.66798 0.2681 0.69746 0.0
H1583 H 0.66047 0.23953 0.70474 0.0
C1584 C 0.48585 0.84209 0.36102 0.0
C1585 C 0.47661 0.86121 0.34127 0.0
C1586 C 0.5003 0.8436 0.40568 0.0
C1587 C 0.50629 0.86484 0.4318 0.0
C1588 C 0.49693 0.88429 0.41243 0.0
C1589 C 0.4821 0.88225 0.36786 0.0
C1590 C 0.50933 0.82229 0.42469 0.0
C1591 C 0.50293 0.90731 0.43827 0.0
C1592 C 0.53082 0.8643 0.57179 0.0
C1593 C 0.55365 0.86349 0.56526 0.0
C1594 C 0.51535 0.86563 0.52937 0.0
C1595 C 0.5226 0.86638 0.47855 0.0
C1596 C 0.54563 0.86655 0.47205 0.0
C1597 C 0.56073 0.865 0.51502 0.0
C1598 C 0.49111 0.86511 0.53868 0.0
C1599 C 0.55438 0.8675 0.41913 0.0
H1600 H 0.4817 0.82566 0.34148 0.0
H1601 H 0.47524 0.89716 0.35316 0.0
H1602 H 0.52749 0.82201 0.42271 0.0
H1603 H 0.50565 0.82159 0.46583 0.0
H1604 H 0.50237 0.80704 0.40161 0.0
H1605 H 0.49407 0.92076 0.41946 0.0
H1606 H 0.49909 0.90861 0.47969 0.0
H1607 H 0.52091 0.91015 0.43695 0.0
H1608 H 0.5249 0.86298 0.60991 0.0
H1609 H 0.57819 0.86438 0.50881 0.0
H1610 H 0.48375 0.84919 0.51987 0.0
H1611 H 0.48251 0.87899 0.52101 0.0
H1612 H 0.488 0.86647 0.5806 0.0
H1613 H 0.55019 0.85169 0.39446 0.0
H1614 H 0.57253 0.86985 0.42096 0.0
H1615 H 0.54656 0.8814 0.3999 0.0
C1616 C 0.88585 0.21529 0.1879 0.0
C1617 C 0.90163 0.19867 0.19526 0.0
C1618 C 0.88073 0.23136 0.22906 0.0
C1619 C 0.8918 0.23092 0.27848 0.0
C1620 C 0.90684 0.21347 0.28661 0.0
C1621 C 0.91141 0.19757 0.24523 0.0
C1622 C 0.86427 0.24941 0.219 0.0
C1623 C 0.91919 0.2123 0.33838 0.0
C1624 C 0.90653 0.28344 0.36758 0.0
C1625 C 0.89344 0.28129 0.40963 0.0
C1626 C 0.90506 0.26799 0.32318 0.0
C1627 C 0.88996 0.24988 0.32021 0.0
C1628 C 0.87549 0.24854 0.3608 0.0
C1629 C 0.87744 0.26425 0.40521 0.0
C1630 C 0.92087 0.2702 0.28116 0.0
C1631 C 0.8589 0.22975 0.3588 0.0
H1632 H 0.87807 0.21626 0.14966 0.0
H1633 H 0.92341 0.18468 0.25188 0.0
H1634 H 0.85286 0.25189 0.25091 0.0
H1635 H 0.87306 0.2655 0.21745 0.0
H1636 H 0.8545 0.24538 0.18179 0.0
H1637 H 0.9292 0.19686 0.33937 0.0
H1638 H 0.93035 0.22702 0.34684 0.0
H1639 H 0.90754 0.21287 0.36979 0.0
H1640 H 0.91875 0.29674 0.37021 0.0
H1641 H 0.86719 0.2625 0.43737 0.0
H1642 H 0.91193 0.26894 0.2426 0.0
H1643 H 0.9329 0.25628 0.2807 0.0
H1644 H 0.93013 0.28631 0.28699 0.0
H1645 H 0.85038 0.22689 0.31978 0.0
H1646 H 0.8464 0.23321 0.38811 0.0
H1647 H 0.8675 0.21403 0.36642 0.0
C1648 C 0.53682 0.12841 1.00227 0.0
C1649 C 0.55318 0.14508 1.01164 0.0
C1650 C 0.52025 0.12648 0.03771 0.0
C1651 C 0.51966 0.1419 0.08295 0.0
C1652 C 0.53619 0.15865 0.09252 0.0
C1653 C 0.55274 0.15986 0.05733 0.0
C1654 C 0.5032 0.10811 1.02648 0.0
C1655 C 0.53608 0.17586 0.13929 0.0
C1656 C 0.46592 0.15556 0.14817 0.0
C1657 C 0.46895 0.14557 0.1946 0.0
C1658 C 0.48195 0.15394 0.11097 0.0
C1659 C 0.50135 0.14146 0.11938 0.0
C1660 C 0.50407 0.13049 0.16518 0.0
C1661 C 0.48803 0.13298 0.20258 0.0
C1662 C 0.47857 0.16658 0.06383 0.0
C1663 C 0.52422 0.11663 0.17534 0.0
H1664 H 0.53694 0.11691 0.96729 0.0
H1665 H 0.56505 0.17301 0.06519 0.0
H1666 H 0.50232 0.09839 0.06042 0.0
H1667 H 0.48673 0.11553 1.01966 0.0
H1668 H 0.50681 0.09645 0.99198 0.0
H1669 H 0.55009 0.18786 0.14115 0.0
H1670 H 0.52052 0.18547 0.13841 0.0
H1671 H 0.53687 0.16742 0.17535 0.0
H1672 H 0.45137 0.16555 0.1418 0.0
H1673 H 0.49049 0.12514 0.23821 0.0
H1674 H 0.48025 0.15513 0.02798 0.0
H1675 H 0.49144 0.17975 0.06472 0.0
H1676 H 0.46217 0.17468 0.06172 0.0
H1677 H 0.52715 0.10471 0.14086 0.0
H1678 H 0.5227 0.10704 0.20933 0.0
H1679 H 0.5389 0.12772 0.18263 0.0
C1680 C 0.59521 0.73872 0.96023 0.0
C1681 C 0.6137 0.72952 0.98533 0.0
C1682 C 0.59725 0.75417 0.92334 0.0
C1683 C 0.61838 0.76115 0.91084 0.0
C1684 C 0.63719 0.75198 0.9359 0.0
C1685 C 0.63466 0.73623 0.97248 0.0
C1686 C 0.57662 0.76297 0.89753 0.0
C1687 C 0.66005 0.759 0.92436 0.0
C1688 C 0.62202 0.78614 0.78095 0.0
C1689 C 0.62086 0.80935 0.79544 0.0
C1690 C 0.62163 0.77042 0.81788 0.0
C1691 C 0.62052 0.77785 0.87134 0.0
C1692 C 0.61991 0.8013 0.88634 0.0
C1693 C 0.61988 0.81666 0.84841 0.0
C1694 C 0.62154 0.74574 0.7993 0.0
C1695 C 0.61875 0.8102 0.94257 0.0
H1696 H 0.57885 0.73378 0.96927 0.0
H1697 H 0.64909 0.72945 0.99151 0.0
H1698 H 0.57605 0.78149 0.90521 0.0
H1699 H 0.57672 0.75887 0.85494 0.0
H1700 H 0.56139 0.75587 0.9112 0.0
H1701 H 0.67302 0.75067 0.9472 0.0
H1702 H 0.66264 0.75491 0.88254 0.0
H1703 H 0.66195 0.77742 0.93308 0.0
H1704 H 0.62245 0.78011 0.74025 0.0
H1705 H 0.61893 0.83447 0.86027 0.0
H1706 H 0.6056 0.73817 0.80727 0.0
H1707 H 0.6347 0.73706 0.82062 0.0
H1708 H 0.62391 0.74259 0.75711 0.0
H1709 H 0.6028 0.80532 0.95698 0.0
H1710 H 0.62032 0.82875 0.94861 0.0
H1711 H 0.63199 0.80276 0.96634 0.0
C1712 C 0.9549 0.86743 0.61587 0.0
C1713 C 0.96252 0.87088 0.56722 0.0
C1714 C 0.96953 0.86733 0.66006 0.0
C1715 C 0.99246 0.87043 0.65567 0.0
C1716 C 1.00012 0.87463 0.60703 0.0
C1717 C 0.98512 0.87498 0.56377 0.0
C1718 C 0.96051 0.86301 0.71106 0.0
C1719 C 0.02437 0.87754 0.59988 0.0
C1720 C 0.03275 0.88225 0.7749 0.0
C1721 C 0.041 0.86078 0.78118 0.0
C1722 C 0.01661 0.88564 0.7351 0.0
C1723 C 1.00866 0.86721 0.70026 0.0
C1724 C 0.01687 0.84554 0.70677 0.0
C1725 C 0.03273 0.84261 0.74699 0.0
C1726 C 1.00806 0.90896 0.73023 0.0
C1727 C 0.00916 0.82535 0.67067 0.0
H1728 H 0.93754 0.86422 0.61922 0.0
H1729 H 0.99136 0.87749 0.52654 0.0
H1730 H 0.96567 0.84618 0.72104 0.0
H1731 H 0.96725 0.87544 0.74259 0.0
H1732 H 0.94225 0.86373 0.70983 0.0
H1733 H 0.0276 0.88215 0.56067 0.0
H1734 H 0.03156 0.89067 0.62918 0.0
H1735 H 0.03308 0.86167 0.60576 0.0
H1736 H 0.03883 0.89638 0.80117 0.0
H1737 H 0.03881 0.82589 0.75125 0.0
H1738 H 0.98985 0.90905 0.73132 0.0
H1739 H 0.01217 0.91436 0.69234 0.0
H1740 H 0.01507 0.92136 0.76157 0.0
H1741 H 0.99108 0.82326 0.67172 0.0
H1742 H 0.01716 0.80963 0.68084 0.0
H1743 H 0.01274 0.82783 0.63024 0.0
C1744 C 0.61794 0.7008 0.32301 0.0
C1745 C 0.61861 0.70901 0.27443 0.0
C1746 C 0.61856 0.71543 0.36916 0.0
C1747 C 0.61963 0.73892 0.36686 0.0
C1748 C 0.621 0.74724 0.31803 0.0
C1749 C 0.62064 0.73223 0.27262 0.0
C1750 C 0.61726 0.70576 0.42027 0.0
C1751 C 0.62178 0.77211 0.31345 0.0
C1752 C 0.59451 0.77742 0.47369 0.0
C1753 C 0.61317 0.78664 0.50263 0.0
C1754 C 0.59643 0.76179 0.43003 0.0
C1755 C 0.61756 0.75486 0.41477 0.0
C1756 C 0.63648 0.76371 0.44436 0.0
C1757 C 0.63408 0.77958 0.48772 0.0
C1758 C 0.57577 0.753 0.39968 0.0
C1759 C 0.65927 0.75649 0.43 0.0
H1760 H 0.61643 0.68291 0.32495 0.0
H1761 H 0.62102 0.73884 0.2354 0.0
H1762 H 0.63027 0.71318 0.44854 0.0
H1763 H 0.60116 0.70996 0.43666 0.0
H1764 H 0.61904 0.68724 0.41617 0.0
H1765 H 0.62411 0.77589 0.27315 0.0
H1766 H 0.60619 0.77989 0.3262 0.0
H1767 H 0.63535 0.78011 0.33916 0.0
H1768 H 0.57824 0.78263 0.48474 0.0
H1769 H 0.64858 0.78646 0.50988 0.0
H1770 H 0.57503 0.73447 0.39811 0.0
H1771 H 0.57598 0.75729 0.35918 0.0
H1772 H 0.56058 0.75997 0.41677 0.0
H1773 H 0.66057 0.73797 0.42804 0.0
H1774 H 0.67227 0.7641 0.45814 0.0
H1775 H 0.66244 0.76132 0.39101 0.0
C1776 C 0.54762 0.38698 0.57352 0.0
C1777 C 0.56496 0.37152 0.57464 0.0
C1778 C 0.53147 0.38822 0.61069 0.0
C1779 C 0.53233 0.37351 0.65013 0.0
C1780 C 0.55008 0.35821 0.65223 0.0
C1781 C 0.56617 0.35749 0.61486 0.0
C1782 C 0.51303 0.40487 0.60667 0.0
C1783 C 0.55165 0.34194 0.69286 0.0
C1784 C 0.49705 0.3858 0.76847 0.0
C1785 C 0.47835 0.37232 0.75427 0.0
C1786 C 0.51467 0.38645 0.73516 0.0
C1787 C 0.51385 0.37308 0.68662 0.0
C1788 C 0.49505 0.35937 0.67238 0.0
C1789 C 0.47765 0.35926 0.70595 0.0
C1790 C 0.5342 0.40149 0.75189 0.0
C1791 C 0.49343 0.34444 0.6218 0.0
H1792 H 0.54641 0.39793 0.54284 0.0
H1793 H 0.57929 0.34533 0.61616 0.0
H1794 H 0.4972 0.39579 0.59695 0.0
H1795 H 0.51149 0.41503 0.64445 0.0
H1796 H 0.51557 0.41633 0.57656 0.0
H1797 H 0.56714 0.33216 0.69165 0.0
H1798 H 0.5507 0.35102 0.73207 0.0
H1799 H 0.53753 0.33007 0.68684 0.0
H1800 H 0.49793 0.3959 0.80559 0.0
H1801 H 0.46351 0.34853 0.69442 0.0
H1802 H 0.53636 0.41358 0.72297 0.0
H1803 H 0.54942 0.39137 0.75362 0.0
H1804 H 0.53238 0.41099 0.7904 0.0
H1805 H 0.49555 0.35445 0.58882 0.0
H1806 H 0.47745 0.33534 0.61538 0.0
H1807 H 0.50686 0.33194 0.62154 0.0
C1808 C 0.90841 0.20822 0.84028 0.0
C1809 C 0.90038 0.21016 0.89018 0.0
C1810 C 0.90243 0.22353 0.80455 0.0
C1811 C 0.88801 0.24136 0.81881 0.0
C1812 C 0.87862 0.24249 0.86779 0.0
C1813 C 0.88489 0.22688 0.90287 0.0
C1814 C 0.91297 0.2216 0.75304 0.0
C1815 C 0.86318 0.26115 0.88464 0.0
C1816 C 0.90154 0.29577 0.7648 0.0
C1817 C 0.8865 0.29606 0.72159 0.0
C1818 C 0.90182 0.27835 0.79671 0.0
C1819 C 0.88619 0.26077 0.78684 0.0
C1820 C 0.87018 0.26135 0.74501 0.0
C1821 C 0.87069 0.27884 0.71238 0.0
C1822 C 0.91963 0.27834 0.83977 0.0
C1823 C 0.85296 0.24316 0.73387 0.0
H1824 H 0.92018 0.19522 0.82972 0.0
H1825 H 0.87851 0.2285 0.94118 0.0
H1826 H 0.90052 0.22366 0.72109 0.0
H1827 H 0.92542 0.23514 0.75311 0.0
H1828 H 0.92128 0.20523 0.74484 0.0
H1829 H 0.85444 0.25765 0.91938 0.0
H1830 H 0.87268 0.27697 0.89416 0.0
H1831 H 0.85083 0.26386 0.85287 0.0
H1832 H 0.91396 0.3088 0.77293 0.0
H1833 H 0.85901 0.2788 0.67932 0.0
H1834 H 0.93029 0.26348 0.83252 0.0
H1835 H 0.91219 0.27721 0.87741 0.0
H1836 H 0.93021 0.29358 0.8432 0.0
H1837 H 0.86091 0.2272 0.71999 0.0
H1838 H 0.84023 0.24726 0.70403 0.0
H1839 H 0.8448 0.24037 0.76982 0.0
C1840 C 0.02672 0.63098 0.1957 0.0
C1841 C 0.04313 0.64753 0.19737 0.0
C1842 C 0.01037 0.62847 0.15483 0.0
C1843 C 0.01008 0.64325 0.11556 0.0
C1844 C 0.02699 0.65954 0.11644 0.0
C1845 C 0.04339 0.66128 0.15684 0.0
C1846 C 0.99297 0.61054 0.15467 0.0
C1847 C 0.02714 0.67601 0.07622 0.0
C1848 C 0.97502 0.63541 0.98824 0.0
C1849 C 0.95737 0.64983 0.99953 0.0
C1850 C 0.99177 0.63203 1.02643 0.0
C1851 C 0.99098 0.64353 0.0768 0.0
C1852 C 0.97268 0.65724 0.08892 0.0
C1853 C 0.95611 0.66005 0.05045 0.0
C1854 C 0.01076 0.6169 1.01227 0.0
C1855 C 0.97114 0.67001 0.14184 0.0
H1856 H 0.02649 0.6202 0.22665 0.0
H1857 H 0.05593 0.67418 0.15777 0.0
H1858 H 0.977 0.6184 0.16408 0.0
H1859 H 0.99067 0.60117 0.11563 0.0
H1860 H 0.99719 0.59849 0.18337 0.0
H1861 H 0.04202 0.68694 0.08092 0.0
H1862 H 0.02637 0.66699 0.03672 0.0
H1863 H 0.01237 0.68682 0.07919 0.0
H1864 H 0.97614 0.62731 0.94924 0.0
H1865 H 0.94249 0.67104 0.06008 0.0
H1866 H 0.01426 0.60541 0.04252 0.0
H1867 H 0.02579 0.62716 1.01006 0.0
H1868 H 1.00749 0.60678 0.97434 0.0
H1869 H 0.97299 0.65847 0.17246 0.0
H1870 H 0.95527 0.67898 0.14593 0.0
H1871 H 0.98474 0.68249 0.14883 0.0
C1872 C 0.61281 0.27833 0.33011 0.0
C1873 C 0.61308 0.30166 0.32749 0.0
C1874 C 0.61436 0.26297 0.28538 0.0
C1875 C 0.61642 0.27088 0.23625 0.0
C1876 C 0.61767 0.29436 0.23361 0.0
C1877 C 0.61591 0.30936 0.27888 0.0
C1878 C 0.61273 0.2382 0.29046 0.0
C1879 C 0.61999 0.30372 0.18246 0.0
C1880 C 0.63278 0.22953 0.121 0.0
C1881 C 0.61233 0.22445 0.09451 0.0
C1882 C 0.63447 0.24466 0.1668 0.0
C1883 C 0.61525 0.25478 0.18731 0.0
C1884 C 0.5946 0.24948 0.16085 0.0
C1885 C 0.59344 0.23465 0.11505 0.0
C1886 C 0.65686 0.24999 0.19305 0.0
C1887 C 0.57357 0.25947 0.18098 0.0
H1888 H 0.61053 0.27195 0.36696 0.0
H1889 H 0.61615 0.32723 0.27574 0.0
H1890 H 0.5972 0.23141 0.27038 0.0
H1891 H 0.62651 0.22916 0.27157 0.0
H1892 H 0.61296 0.23458 0.33155 0.0
H1893 H 0.62294 0.32211 0.18732 0.0
H1894 H 0.63378 0.29547 0.16188 0.0
H1895 H 0.60476 0.30021 0.1574 0.0
H1896 H 0.6475 0.22191 0.10563 0.0
H1897 H 0.57747 0.2309 0.09543 0.0
H1898 H 0.65732 0.24546 0.23341 0.0
H1899 H 0.66012 0.26827 0.19516 0.0
H1900 H 0.67023 0.24095 0.17239 0.0
H1901 H 0.57159 0.25516 0.22098 0.0
H1902 H 0.55878 0.25345 0.15641 0.0
H1903 H 0.5743 0.278 0.18272 0.0
C1904 C 0.96928 0.3488 0.51172 0.0
C1905 C 0.94659 0.35221 0.50344 0.0
C1906 C 0.98375 0.34947 0.47146 0.0
C1907 C 0.97553 0.35439 0.42178 0.0
C1908 C 0.95263 0.35813 0.41334 0.0
C1909 C 0.93841 0.35663 0.45398 0.0
C1910 C 1.00784 0.34462 0.482 0.0
C1911 C 0.94318 0.36391 0.36149 0.0
C1912 C 0.0182 0.37683 0.33717 0.0
C1913 C 0.02253 0.35795 0.30276 0.0
C1914 C 1.00244 0.37611 0.37473 0.0
C1915 C 0.99102 0.35584 0.37912 0.0
C1916 C 0.9952 0.33674 0.34421 0.0
C1917 C 0.01069 0.3381 0.30619 0.0
C1918 C 0.99821 0.39702 0.41018 0.0
C1919 C 0.98385 0.31463 0.34809 0.0
H1920 H 0.97572 0.34499 0.54955 0.0
H1921 H 0.9209 0.35921 0.44722 0.0
H1922 H 0.01311 0.33068 0.45405 0.0
H1923 H 0.01791 0.35952 0.47652 0.0
H1924 H 0.01147 0.34004 0.52193 0.0
H1925 H 0.92522 0.36718 0.36168 0.0
H1926 H 0.95161 0.37897 0.35049 0.0
H1927 H 0.94607 0.34999 0.33116 0.0
H1928 H 0.02716 0.39228 0.33475 0.0
H1929 H 0.01401 0.32335 0.28013 0.0
H1930 H 1.00343 0.39439 0.45068 0.0
H1931 H 0.98033 0.40071 0.40924 0.0
H1932 H 1.00716 0.41184 0.39938 0.0
H1933 H 0.98823 0.30873 0.38641 0.0
H1934 H 0.98846 0.3015 0.31734 0.0
H1935 H 0.96572 0.3167 0.34528 0.0
C1936 C 0.88689 0.73119 0.78819 0.0
C1937 C 0.89295 0.70876 0.77597 0.0
C1938 C 0.88872 0.74703 0.7525 0.0
C1939 C 0.89702 0.74039 0.70352 0.0
C1940 C 0.90202 0.71755 0.68986 0.0
C1941 C 0.89954 0.70195 0.72595 0.0
C1942 C 0.88287 0.77113 0.76833 0.0
C1943 C 0.91134 0.70983 0.63844 0.0
C1944 C 0.89231 0.77938 0.59653 0.0
C1945 C 0.91302 0.78991 0.60187 0.0
C1946 C 0.88672 0.76339 0.62969 0.0
C1947 C 0.90231 0.75762 0.6686 0.0
C1948 C 0.92316 0.76837 0.67446 0.0
C1949 C 0.92819 0.78445 0.6413 0.0
C1950 C 0.86419 0.7526 0.62299 0.0
C1951 C 0.94033 0.76266 0.71533 0.0
H1952 H 0.88155 0.73665 0.82653 0.0
H1953 H 0.9039 0.68461 0.71581 0.0
H1954 H 0.89804 0.78158 0.77285 0.0
H1955 H 0.87195 0.7777 0.73783 0.0
H1956 H 0.87455 0.77314 0.80548 0.0
H1957 H 0.91279 0.69131 0.63213 0.0
H1958 H 0.90089 0.71563 0.60617 0.0
H1959 H 0.92796 0.71729 0.63688 0.0
H1960 H 0.88049 0.78354 0.56629 0.0
H1961 H 0.94426 0.79245 0.64577 0.0
H1962 H 0.85573 0.75525 0.65984 0.0
H1963 H 0.86577 0.73424 0.61336 0.0
H1964 H 0.85371 0.75938 0.59193 0.0
H1965 H 0.93389 0.76606 0.75445 0.0
H1966 H 0.95583 0.77237 0.71442 0.0
H1967 H 0.94421 0.74453 0.70964 0.0
C1968 C 0.53429 0.63997 1.02177 0.0
C1969 C 0.55651 0.64463 1.01529 0.0
C1970 C 0.51868 0.63848 0.97923 0.0
C1971 C 0.52551 0.64144 0.929 0.0
C1972 C 0.54818 0.64453 0.92194 0.0
C1973 C 0.5633 0.64624 0.96506 0.0
C1974 C 0.49469 0.63535 0.9887 0.0
C1975 C 0.55634 0.64748 0.86923 0.0
C1976 C 0.48747 0.62843 0.80698 0.0
C1977 C 0.48057 0.64996 0.79695 0.0
C1978 C 0.50172 0.62524 0.85037 0.0
C1979 C 0.50897 0.64397 0.885 0.0
C1980 C 0.50147 0.66563 0.87576 0.0
C1981 C 0.48758 0.66836 0.83185 0.0
C1982 C 0.50952 0.60192 0.85834 0.0
C1983 C 0.50848 0.6861 0.91178 0.0
H1984 H 0.52885 0.63896 0.06048 0.0
H1985 H 0.58046 0.64978 0.95966 0.0
H1986 H 0.48584 0.6513 0.98466 0.0
H1987 H 0.487 0.62247 0.95953 0.0
H1988 H 0.49234 0.63037 0.02803 0.0
H1989 H 0.57459 0.64694 0.86907 0.0
H1990 H 0.54939 0.63425 0.83983 0.0
H1991 H 0.55078 0.66387 0.85723 0.0
H1992 H 0.48215 0.61413 0.78028 0.0
H1993 H 0.48217 0.68505 0.8249 0.0
H1994 H 0.50631 0.59799 0.89803 0.0
H1995 H 0.52758 0.60095 0.85452 0.0
H1996 H 0.50139 0.58897 0.82991 0.0
H1997 H 0.50503 0.68361 0.95227 0.0
H1998 H 0.49997 0.70151 0.9013 0.0
H1999 H 0.52649 0.68876 0.91064 0.0
C2000 C 0.40559 0.31278 0.75969 0.0
C2001 C 0.4073 0.30493 0.80879 0.0
C2002 C 0.40299 0.29796 0.71422 0.0
C2003 C 0.40238 0.27456 0.71758 0.0
C2004 C 0.40301 0.26655 0.76719 0.0
C2005 C 0.40529 0.28186 0.81225 0.0
C2006 C 0.40207 0.30737 0.66243 0.0
C2007 C 0.40268 0.24177 0.77266 0.0
C2008 C 0.38522 0.2362 0.59475 0.0
C2009 C 0.40568 0.23065 0.57465 0.0
C2010 C 0.38381 0.25022 0.64154 0.0
C2011 C 0.40332 0.25865 0.6693 0.0
C2012 C 0.424 0.25273 0.64954 0.0
C2013 C 0.42491 0.23899 0.60254 0.0
C2014 C 0.36145 0.25636 0.66077 0.0
C2015 C 0.44526 0.26113 0.6778 0.0
H2016 H 0.40689 0.33061 0.75675 0.0
H2017 H 0.40682 0.27566 0.85001 0.0
H2018 H 0.41743 0.30314 0.6426 0.0
H2019 H 0.38815 0.29979 0.63715 0.0
H2020 H 0.40021 0.32587 0.66642 0.0
H2021 H 0.40093 0.23828 0.8134 0.0
H2022 H 0.38897 0.23341 0.74802 0.0
H2023 H 0.41823 0.23417 0.75919 0.0
H2024 H 0.37028 0.22985 0.57357 0.0
H2025 H 0.44083 0.23471 0.58774 0.0
H2026 H 0.35913 0.27474 0.66198 0.0
H2027 H 0.36025 0.25186 0.70087 0.0
H2028 H 0.34788 0.24785 0.6358 0.0
H2029 H 0.44615 0.27966 0.67939 0.0
H2030 H 0.45999 0.25401 0.65885 0.0
H2031 H 0.44585 0.25678 0.71833 0.0
C2032 C 0.47592 0.63128 0.49863 0.0
C2033 C 0.45734 0.64507 0.49675 0.0
C2034 C 0.49191 0.63153 0.4617 0.0
C2035 C 0.48942 0.64616 0.4224 0.0
C2036 C 0.47029 0.6595 0.41919 0.0
C2037 C 0.45447 0.65873 0.45629 0.0
C2038 C 0.51196 0.6169 0.46624 0.0
C2039 C 0.4671 0.67557 0.37834 0.0
C2040 C 0.5404 0.66913 0.36783 0.0
C2041 C 0.54046 0.65702 0.31862 0.0
C2042 C 0.52419 0.66536 0.40234 0.0
C2043 C 0.5076 0.64902 0.38745 0.0
C2044 C 0.50798 0.63621 0.33857 0.0
C2045 C 0.52441 0.64036 0.30469 0.0
C2046 C 0.52445 0.67939 0.45417 0.0
C2047 C 0.49067 0.61854 0.32152 0.0
H2048 H 0.47828 0.62074 0.52992 0.0
H2049 H 0.44053 0.66984 0.45524 0.0
H2050 H 0.51501 0.60759 0.42819 0.0
H2051 H 0.52665 0.62754 0.47816 0.0
H2052 H 0.51024 0.60467 0.49511 0.0
H2053 H 0.45063 0.68355 0.37878 0.0
H2054 H 0.47985 0.68895 0.3849 0.0
H2055 H 0.46911 0.66674 0.33927 0.0
H2056 H 0.55278 0.68197 0.37911 0.0
H2057 H 0.52433 0.63094 0.26679 0.0
H2058 H 0.52469 0.66842 0.48604 0.0
H2059 H 0.50925 0.68956 0.45673 0.0
H2060 H 0.53889 0.69088 0.46054 0.0
H2061 H 0.48966 0.60659 0.35118 0.0
H2062 H 0.49407 0.60903 0.28386 0.0
H2063 H 0.47432 0.62656 0.31763 0.0
C2064 C 0.12228 0.68775 0.24883 0.0
C2065 C 0.11872 0.69605 0.30009 0.0
C2066 C 0.12154 0.70203 0.20894 0.0
C2067 C 0.1167 0.72508 0.22042 0.0
C2068 C 0.11295 0.73346 0.27212 0.0
C2069 C 0.11434 0.71897 0.31128 0.0
C2070 C 0.1258 0.69243 0.15446 0.0
C2071 C 0.10708 0.75771 0.28606 0.0
C2072 C 0.13333 0.76866 0.13265 0.0
C2073 C 0.11344 0.77234 0.10486 0.0
C2074 C 0.13475 0.75287 0.16916 0.0
C2075 C 0.11577 0.74059 0.17876 0.0
C2076 C 0.09569 0.744 0.15037 0.0
C2077 C 0.0948 0.75972 0.1136 0.0
C2078 C 0.15651 0.74964 0.1982 0.0
C2079 C 0.07498 0.73151 0.15986 0.0
H2080 H 0.1256 0.67007 0.23994 0.0
H2081 H 0.11128 0.72555 0.35064 0.0
H2082 H 0.11101 0.69448 0.12848 0.0
H2083 H 0.13949 0.70171 0.13964 0.0
H2084 H 0.13003 0.67437 0.15216 0.0
H2085 H 0.10427 0.76149 0.32793 0.0
H2086 H 0.12044 0.76878 0.27595 0.0
H2087 H 0.09192 0.76191 0.2634 0.0
H2088 H 0.14784 0.77822 0.12611 0.0
H2089 H 0.07932 0.76248 0.09257 0.0
H2090 H 0.16103 0.73166 0.19427 0.0
H2091 H 0.15508 0.75486 0.24009 0.0
H2092 H 0.17002 0.75946 0.18412 0.0
H2093 H 0.07788 0.71319 0.15536 0.0
H2094 H 0.06094 0.73528 0.133 0.0
H2095 H 0.07029 0.73606 0.20024 0.0
C2096 C 0.05271 0.36412 0.96841 0.0
C2097 C 0.04556 0.36222 1.01835 0.0
C2098 C 0.03765 0.3647 0.9252 0.0
C2099 C 0.0147 0.36312 0.93142 0.0
C2100 C 1.00732 0.36204 0.98194 0.0
C2101 C 0.02275 0.36171 1.02459 0.0
C2102 C 0.04639 0.36608 0.87241 0.0
C2103 C 0.98312 0.36008 0.99069 0.0
C2104 C 0.97346 0.37647 0.8209 0.0
C2105 C 0.96895 0.35509 0.79508 0.0
C2106 C 0.98828 0.37942 0.86516 0.0
C2107 C 0.99864 0.36055 0.8847 0.0
C2108 C 0.99381 0.33894 0.85914 0.0
C2109 C 0.97923 0.33652 0.81485 0.0
C2110 C 0.99306 0.40278 0.89069 0.0
C2111 C 1.0041 0.31823 0.87846 0.0
H2112 H 0.07021 0.36454 0.96265 0.0
H2113 H 0.01684 0.36009 0.0626 0.0
H2114 H 0.04317 0.35001 0.84796 0.0
H2115 H 0.03779 0.37942 0.85273 0.0
H2116 H 0.06438 0.36954 0.87456 0.0
H2117 H 0.97985 0.36131 0.03252 0.0
H2118 H 0.97375 0.37338 0.97259 0.0
H2119 H 0.97672 0.34372 0.97197 0.0
H2120 H 0.9657 0.39093 0.80606 0.0
H2121 H 0.97581 0.31986 0.79575 0.0
H2122 H 0.0109 0.40653 0.89002 0.0
H2123 H 0.98895 0.40399 0.93193 0.0
H2124 H 0.98364 0.4157 0.87127 0.0
H2125 H 0.02227 0.31915 0.8771 0.0
H2126 H 0.99818 0.30259 0.85521 0.0
H2127 H 1.00034 0.31725 0.91945 0.0
C2128 C 0.41205 0.7101 0.78431 0.0
C2129 C 0.39786 0.70696 0.73951 0.0
C2130 C 0.4083 0.72683 0.82462 0.0
C2131 C 0.38953 0.74063 0.82111 0.0
C2132 C 0.37464 0.73709 0.77696 0.0
C2133 C 0.37912 0.72049 0.73635 0.0
C2134 C 0.42494 0.73021 0.87021 0.0
C2135 C 0.35418 0.75108 0.7723 0.0
C2136 C 0.37723 0.77226 0.9512 0.0
C2137 C 0.38695 0.7932 0.94757 0.0
C2138 C 0.37649 0.75548 0.90895 0.0
C2139 C 0.38644 0.75943 0.86263 0.0
C2140 C 0.39573 0.78079 0.85841 0.0
C2141 C 0.39553 0.79748 0.90052 0.0
C2142 C 0.36585 0.73321 0.91465 0.0
C2143 C 0.4072 0.7856 0.81065 0.0
H2144 H 0.42669 0.69993 0.78736 0.0
H2145 H 0.36802 0.71819 0.70211 0.0
H2146 H 0.43197 0.7474 0.87301 0.0
H2147 H 0.41683 0.72854 0.90679 0.0
H2148 H 0.43865 0.71802 0.86714 0.0
H2149 H 0.34325 0.74494 0.73809 0.0
H2150 H 0.34482 0.75103 0.80774 0.0
H2151 H 0.35881 0.76872 0.7688 0.0
H2152 H 0.37049 0.76887 0.98737 0.0
H2153 H 0.40326 0.81354 0.89749 0.0
H2154 H 0.37874 0.72028 0.91783 0.0
H2155 H 0.35494 0.72778 0.87996 0.0
H2156 H 0.35606 0.73389 0.94959 0.0
H2157 H 0.42198 0.77487 0.80661 0.0
H2158 H 0.41247 0.8034 0.81221 0.0
H2159 H 0.39623 0.78148 0.77543 0.0
C2160 C 0.97353 0.67427 0.65996 0.0
C2161 C 0.96858 0.65866 0.69446 0.0
C2162 C 0.98809 0.66914 0.62044 0.0
C2163 C 0.99782 0.64766 0.61424 0.0
C2164 C 0.99205 0.63139 0.64719 0.0
C2165 C 0.97765 0.63713 0.6872 0.0
C2166 C 0.99393 0.68719 0.58698 0.0
C2167 C 1.00168 0.60817 0.64133 0.0
C2168 C 0.02747 0.6364 0.48818 0.0
C2169 C 0.04909 0.64302 0.50469 0.0
C2170 C 0.01077 0.63637 0.52386 0.0
C2171 C 0.01572 0.64338 0.57712 0.0
C2172 C 0.03774 0.64881 0.5942 0.0
C2173 C 0.05407 0.64837 0.55808 0.0
C2174 C 0.9876 0.62999 0.50412 0.0
C2175 C 0.0439 0.65663 0.65032 0.0
H2176 H 0.96659 0.69094 0.66483 0.0
H2177 H 0.97383 0.62489 0.71332 0.0
H2178 H 0.01159 0.69175 0.59433 0.0
H2179 H 0.99143 0.68097 0.54538 0.0
H2180 H 0.98398 0.70258 0.59463 0.0
H2181 H 0.9934 0.59662 0.66498 0.0
H2182 H 1.00033 0.60107 0.60011 0.0
H2183 H 0.01944 0.60901 0.65366 0.0
H2184 H 0.02335 0.6322 0.44722 0.0
H2185 H 0.0707 0.65329 0.57177 0.0
H2186 H 0.97733 0.64527 0.50451 0.0
H2187 H 0.98014 0.6187 0.52967 0.0
H2188 H 0.98702 0.62158 0.46393 0.0
H2189 H 0.03605 0.67303 0.66101 0.0
H2190 H 0.06198 0.65861 0.65805 0.0
H2191 H 0.03775 0.64463 0.67595 0.0
C2192 C 0.10416 0.32402 0.30136 0.0
C2193 C 0.1146 0.31827 0.25495 0.0
C2194 C 0.10353 0.30911 0.33985 0.0
C2195 C 0.1136 0.28779 0.33219 0.0
C2196 C 0.12476 0.28216 0.2862 0.0
C2197 C 0.12515 0.29741 0.24836 0.0
C2198 C 0.0913 0.31585 0.3879 0.0
C2199 C 0.13561 0.25966 0.27598 0.0
C2200 C 0.12354 0.2536 0.44858 0.0
C2201 C 0.10518 0.23918 0.44337 0.0
C2202 C 0.12661 0.2694 0.41271 0.0
C2203 C 0.11103 0.27082 0.37038 0.0
C2204 C 0.09267 0.25605 0.36465 0.0
C2205 C 0.09 0.24054 0.40097 0.0
C2206 C 0.14641 0.28478 0.42041 0.0
C2207 C 0.07578 0.25655 0.31992 0.0
H2208 H 0.09589 0.34 0.30711 0.0
H2209 H 0.13323 0.29264 0.21281 0.0
H2210 H 0.07666 0.30485 0.38847 0.0
H2211 H 0.10193 0.31364 0.4231 0.0
H2212 H 0.0857 0.33352 0.38992 0.0
H2213 H 0.14528 0.25856 0.24079 0.0
H2214 H 0.1467 0.25627 0.3096 0.0
H2215 H 0.12285 0.24627 0.27072 0.0
H2216 H 0.13536 0.25279 0.4811 0.0
H2217 H 0.0758 0.22945 0.39608 0.0
H2218 H 0.14095 0.30246 0.42576 0.0
H2219 H 0.15616 0.28289 0.38543 0.0
H2220 H 0.15724 0.28137 0.45453 0.0
H2221 H 0.06919 0.27373 0.31843 0.0
H2222 H 0.06179 0.24488 0.32249 0.0
H2223 H 0.08368 0.25183 0.28297 0.0
C2224 C 0.48706 0.36797 0.06123 0.0
C2225 C 0.46428 0.37101 0.06463 0.0
C2226 C 0.50106 0.3669 0.10573 0.0
C2227 C 0.49223 0.36936 0.15527 0.0
C2228 C 0.46932 0.373 0.15914 0.0
C2229 C 0.4556 0.37361 0.11375 0.0
C2230 C 0.52525 0.36244 0.09953 0.0
C2231 C 0.45926 0.3758 0.21115 0.0
C2232 C 0.52617 0.34383 0.26172 0.0
C2233 C 0.53816 0.36241 0.28602 0.0
C2234 C 0.5107 0.34598 0.22033 0.0
C2235 C 0.507 0.36727 0.20255 0.0
C2236 C 0.51852 0.38622 0.22792 0.0
C2237 C 0.53396 0.38357 0.26931 0.0
C2238 C 0.4988 0.32531 0.1946 0.0
C2239 C 0.51497 0.40922 0.21041 0.0
H2240 H 0.49394 0.3656 1.02349 0.0
H2241 H 0.43803 0.37592 0.11668 0.0
H2242 H 0.53531 0.37591 0.12203 0.0
H2243 H 0.52982 0.34644 0.11514 0.0
H2244 H 0.5296 0.36137 0.0584 0.0
H2245 H 0.44147 0.37991 0.20784 0.0
H2246 H 0.46118 0.36012 0.2301 0.0
H2247 H 0.46796 0.3893 0.23691 0.0
H2248 H 0.5291 0.3274 0.27452 0.0
H2249 H 0.54304 0.39804 0.28788 0.0
H2250 H 0.50337 0.32209 0.15376 0.0
H2251 H 0.48074 0.32789 0.19392 0.0
H2252 H 0.50275 0.31019 0.2146 0.0
H2253 H 0.52065 0.40951 0.17065 0.0
H2254 H 0.52396 0.42248 0.23637 0.0
H2255 H 0.49716 0.41327 0.20889 0.0
loop_
_geom_bond_atom_site_label_1
_geom_bond_atom_site_label_2
_geom_bond_distance
_geom_bond_site_symmetry_2
_ccdc_geom_bond_type
O0 Tb1 2.292 . S
O0 C3 1.255 . S
Tb1 O0 2.292 . S
Tb1 O17 2.326 . S
Tb1 O19 2.500 . S
Tb1 O20 2.473 . S
Tb1 O23 2.324 . S
Eu2 O6 2.292 1_554 S
Eu2 C7 2.852 . S
Eu2 O18 2.324 . S
Eu2 O22 2.326 . S
Eu2 O24 2.500 . S
Eu2 O25 2.473 . S
C3 O0 1.255 . S
C3 O4 1.247 . S
O4 C3 1.247 . S
C5 O17 1.242 . S
C5 O18 1.258 . S
O6 Eu2 2.292 1_556 S
O6 C8 1.255 . S
C7 Eu2 2.852 . S
C7 C11 1.503 . S
C7 O24 1.273 . S
C7 O25 1.257 . S
C8 O6 1.255 . S
C8 O9 1.247 . S
O9 C8 1.247 . S
C10 O22 1.242 . S
C10 O23 1.258 . S
C11 C7 1.503 . S
C11 C12 1.379 . S
C11 C16 1.392 . S
C12 C11 1.379 . S
C12 C13 1.404 . S
C12 H26 0.929 . S
C13 C12 1.404 . S
C13 C14 1.389 . S
C14 C13 1.389 . S
C14 C15 1.399 . S
C14 H27 0.931 . S
C15 C14 1.399 . S
C15 C16 1.390 . S
C16 C11 1.392 . S
C16 C15 1.390 . S
C16 H28 0.929 . S
O17 Tb1 2.326 . S
O17 C5 1.242 . S
O18 Eu2 2.324 . S
O18 C5 1.258 . S
O19 Tb1 2.500 . S
O19 C21 1.273 . S
O20 Tb1 2.473 . S
O20 C21 1.257 . S
C21 O19 1.273 . S
C21 O20 1.257 . S
O22 Eu2 2.326 . S
O22 C10 1.242 . S
O23 Tb1 2.324 . S
O23 C10 1.258 . S
O24 Eu2 2.500 . S
O24 C7 1.273 . S
O25 Eu2 2.473 . S
O25 C7 1.257 . S
H26 C12 0.929 . S
H27 C14 0.931 . S
H28 C16 0.929 . S
O29 Tb30 2.292 . S
O29 C32 1.255 . S
Tb30 O29 2.292 . S
Tb30 O46 2.326 . S
Tb30 O48 2.500 . S
Tb30 O49 2.473 . S
Tb30 O52 2.324 . S
Eu31 O35 2.292 . S
Eu31 C36 2.852 . S
Eu31 O47 2.324 . S
Eu31 O51 2.326 . S
Eu31 O53 2.500 . S
Eu31 O54 2.473 . S
C32 O29 1.255 . S
C32 O33 1.247 . S
O33 C32 1.247 . S
C34 O46 1.242 . S
C34 O47 1.258 . S
O35 Eu31 2.292 . S
O35 C37 1.255 . S
C36 Eu31 2.852 . S
C36 C40 1.503 . S
C36 O53 1.273 . S
C36 O54 1.257 . S
C37 O35 1.255 . S
C37 O38 1.247 . S
O38 C37 1.247 . S
C39 O51 1.242 . S
C39 O52 1.258 . S
C40 C36 1.503 . S
C40 C41 1.379 . S
C40 C45 1.392 . S
C41 C40 1.379 . S
C41 C42 1.404 . S
C41 H55 0.929 . S
C42 C41 1.404 . S
C42 C43 1.389 . S
C43 C42 1.389 . S
C43 C44 1.399 . S
C43 H56 0.931 . S
C44 C43 1.399 . S
C44 C45 1.390 . S
C45 C40 1.392 . S
C45 C44 1.390 . S
C45 H57 0.929 . S
O46 Tb30 2.326 . S
O46 C34 1.242 . S
O47 Eu31 2.324 . S
O47 C34 1.258 . S
O48 Tb30 2.500 . S
O48 C50 1.273 . S
O49 Tb30 2.473 . S
O49 C50 1.257 . S
C50 O48 1.273 . S
C50 O49 1.257 . S
O51 Eu31 2.326 . S
O51 C39 1.242 . S
O52 Tb30 2.324 . S
O52 C39 1.258 . S
O53 Eu31 2.500 . S
O53 C36 1.273 . S
O54 Eu31 2.473 . S
O54 C36 1.257 . S
H55 C41 0.929 . S
H56 C43 0.931 . S
H57 C45 0.929 . S
O58 Tb59 2.292 . S
O58 C61 1.255 . S
Tb59 O58 2.292 . S
Tb59 O75 2.326 . S
Tb59 O77 2.500 . S
Tb59 O78 2.473 . S
Tb59 O81 2.324 . S
Eu60 O64 2.292 . S
Eu60 C65 2.852 . S
Eu60 O76 2.324 . S
Eu60 O80 2.326 . S
Eu60 O82 2.500 . S
Eu60 O83 2.473 . S
C61 O58 1.255 . S
C61 O62 1.247 . S
O62 C61 1.247 . S
C63 O75 1.242 . S
C63 O76 1.258 . S
O64 Eu60 2.292 . S
O64 C66 1.255 . S
C65 Eu60 2.852 . S
C65 C69 1.503 . S
C65 O82 1.273 . S
C65 O83 1.257 . S
C66 O64 1.255 . S
C66 O67 1.247 . S
O67 C66 1.247 . S
C68 O80 1.242 . S
C68 O81 1.258 . S
C69 C65 1.503 . S
C69 C70 1.379 . S
C69 C74 1.392 . S
C70 C69 1.379 . S
C70 C71 1.404 . S
C70 H84 0.929 . S
C71 C70 1.404 . S
C71 C72 1.389 . S
C72 C71 1.389 . S
C72 C73 1.399 . S
C72 H85 0.931 . S
C73 C72 1.399 . S
C73 C74 1.390 . S
C74 C69 1.392 . S
C74 C73 1.390 . S
C74 H86 0.929 . S
O75 Tb59 2.326 . S
O75 C63 1.242 . S
O76 Eu60 2.324 . S
O76 C63 1.258 . S
O77 Tb59 2.500 . S
O77 C79 1.273 . S
O78 Tb59 2.473 . S
O78 C79 1.257 . S
C79 O77 1.273 . S
C79 O78 1.257 . S
O80 Eu60 2.326 . S
O80 C68 1.242 . S
O81 Tb59 2.324 . S
O81 C68 1.258 . S
O82 Eu60 2.500 . S
O82 C65 1.273 . S
O83 Eu60 2.473 . S
O83 C65 1.257 . S
H84 C70 0.929 . S
H85 C72 0.931 . S
H86 C74 0.929 . S
O87 Tb88 2.292 . S
O87 C90 1.255 . S
Tb88 O87 2.292 . S
Tb88 O104 2.326 . S
Tb88 O106 2.500 . S
Tb88 O107 2.473 . S
Tb88 O110 2.324 . S
Eu89 O93 2.292 1_556 S
Eu89 C94 2.852 . S
Eu89 O105 2.324 . S
Eu89 O109 2.326 . S
Eu89 O111 2.500 . S
Eu89 O112 2.473 . S
C90 O87 1.255 . S
C90 O91 1.247 . S
O91 C90 1.247 . S
C92 O104 1.242 . S
C92 O105 1.258 . S
O93 Eu89 2.292 1_554 S
O93 C95 1.255 . S
C94 Eu89 2.852 . S
C94 C98 1.503 . S
C94 O111 1.273 . S
C94 O112 1.257 . S
C95 O93 1.255 . S
C95 O96 1.247 . S
O96 C95 1.247 . S
C97 O109 1.242 . S
C97 O110 1.258 . S
C98 C94 1.503 . S
C98 C99 1.379 . S
C98 C103 1.392 . S
C99 C98 1.379 . S
C99 C100 1.404 . S
C99 H113 0.929 . S
C100 C99 1.404 . S
C100 C101 1.389 . S
C101 C100 1.389 . S
C101 C102 1.399 . S
C101 H114 0.931 . S
C102 C101 1.399 . S
C102 C103 1.390 . S
C103 C98 1.392 . S
C103 C102 1.390 . S
C103 H115 0.929 . S
O104 Tb88 2.326 . S
O104 C92 1.242 . S
O105 Eu89 2.324 . S
O105 C92 1.258 . S
O106 Tb88 2.500 . S
O106 C108 1.273 . S
O107 Tb88 2.473 . S
O107 C108 1.257 . S
C108 O106 1.273 . S
C108 O107 1.257 . S
O109 Eu89 2.326 . S
O109 C97 1.242 . S
O110 Tb88 2.324 . S
O110 C97 1.258 . S
O111 Eu89 2.500 . S
O111 C94 1.273 . S
O112 Eu89 2.473 . S
O112 C94 1.257 . S
H113 C99 0.929 . S
H114 C101 0.931 . S
H115 C103 0.929 . S
O116 Tb117 2.292 . S
O116 C119 1.255 . S
Tb117 O116 2.292 . S
Tb117 O133 2.326 . S
Tb117 O135 2.500 . S
Tb117 O136 2.473 . S
Tb117 O139 2.324 . S
Eu118 O122 2.292 . S
Eu118 C123 2.852 . S
Eu118 O134 2.324 . S
Eu118 O138 2.326 . S
Eu118 O140 2.500 . S
Eu118 O141 2.473 . S
C119 O116 1.255 . S
C119 O120 1.247 . S
O120 C119 1.247 . S
C121 O133 1.242 . S
C121 O134 1.258 . S
O122 Eu118 2.292 . S
O122 C124 1.255 . S
C123 Eu118 2.852 . S
C123 C127 1.503 . S
C123 O140 1.273 . S
C123 O141 1.257 . S
C124 O122 1.255 . S
C124 O125 1.247 . S
O125 C124 1.247 . S
C126 O138 1.242 . S
C126 O139 1.258 . S
C127 C123 1.503 . S
C127 C128 1.379 . S
C127 C132 1.392 . S
C128 C127 1.379 . S
C128 C129 1.404 . S
C128 H142 0.929 . S
C129 C128 1.404 . S
C129 C130 1.389 . S
C130 C129 1.389 . S
C130 C131 1.399 . S
C130 H143 0.931 . S
C131 C130 1.399 . S
C131 C132 1.390 . S
C132 C127 1.392 . S
C132 C131 1.390 . S
C132 H144 0.929 . S
O133 Tb117 2.326 . S
O133 C121 1.242 . S
O134 Eu118 2.324 . S
O134 C121 1.258 . S
O135 Tb117 2.500 . S
O135 C137 1.273 . S
O136 Tb117 2.473 . S
O136 C137 1.257 . S
C137 O135 1.273 . S
C137 O136 1.257 . S
O138 Eu118 2.326 . S
O138 C126 1.242 . S
O139 Tb117 2.324 . S
O139 C126 1.258 . S
O140 Eu118 2.500 . S
O140 C123 1.273 . S
O141 Eu118 2.473 . S
O141 C123 1.257 . S
H142 C128 0.929 . S
H143 C130 0.931 . S
H144 C132 0.929 . S
O145 Tb146 2.292 . S
O145 C148 1.255 . S
Tb146 O145 2.292 . S
Tb146 O162 2.326 . S
Tb146 O164 2.500 . S
Tb146 O165 2.473 . S
Tb146 O168 2.324 . S
Eu147 O151 2.292 . S
Eu147 C152 2.852 . S
Eu147 O163 2.324 . S
Eu147 O167 2.326 . S
Eu147 O169 2.500 . S
Eu147 O170 2.473 . S
C148 O145 1.255 . S
C148 O149 1.247 . S
O149 C148 1.247 . S
C150 O162 1.242 . S
C150 O163 1.258 . S
O151 Eu147 2.292 . S
O151 C153 1.255 . S
C152 Eu147 2.852 . S
C152 C156 1.503 . S
C152 O169 1.273 . S
C152 O170 1.257 . S
C153 O151 1.255 . S
C153 O154 1.247 . S
O154 C153 1.247 . S
C155 O167 1.242 . S
C155 O168 1.258 . S
C156 C152 1.503 . S
C156 C157 1.379 . S
C156 C161 1.392 . S
C157 C156 1.379 . S
C157 C158 1.404 . S
C157 H171 0.929 . S
C158 C157 1.404 . S
C158 C159 1.389 . S
C159 C158 1.389 . S
C159 C160 1.399 . S
C159 H172 0.931 . S
C160 C159 1.399 . S
C160 C161 1.390 . S
C161 C156 1.392 . S
C161 C160 1.390 . S
C161 H173 0.929 . S
O162 Tb146 2.326 . S
O162 C150 1.242 . S
O163 Eu147 2.324 . S
O163 C150 1.258 . S
O164 Tb146 2.500 . S
O164 C166 1.273 . S
O165 Tb146 2.473 . S
O165 C166 1.257 . S
C166 O164 1.273 . S
C166 O165 1.257 . S
O167 Eu147 2.326 . S
O167 C155 1.242 . S
O168 Tb146 2.324 . S
O168 C155 1.258 . S
O169 Eu147 2.500 . S
O169 C152 1.273 . S
O170 Eu147 2.473 . S
O170 C152 1.257 . S
H171 C157 0.929 . S
H172 C159 0.931 . S
H173 C161 0.929 . S
O174 Tb175 2.292 . S
O174 C177 1.255 1_556 S
Tb175 O174 2.292 . S
Tb175 O191 2.326 . S
Tb175 O193 2.500 . S
Tb175 O194 2.473 . S
Tb175 O197 2.324 . S
Eu176 O180 2.292 . S
Eu176 C181 2.852 . S
Eu176 O192 2.324 . S
Eu176 O196 2.326 . S
Eu176 O198 2.500 . S
Eu176 O199 2.473 . S
C177 O174 1.255 1_554 S
C177 O178 1.247 . S
O178 C177 1.247 . S
C179 O191 1.242 . S
C179 O192 1.258 . S
O180 Eu176 2.292 . S
O180 C182 1.255 . S
C181 Eu176 2.852 . S
C181 C185 1.503 . S
C181 O198 1.273 . S
C181 O199 1.257 . S
C182 O180 1.255 . S
C182 O183 1.247 . S
O183 C182 1.247 . S
C184 O196 1.242 . S
C184 O197 1.258 . S
C185 C181 1.503 . S
C185 C186 1.379 . S
C185 C190 1.392 . S
C186 C185 1.379 . S
C186 C187 1.404 . S
C186 H200 0.929 . S
C187 C186 1.404 . S
C187 C188 1.389 . S
C188 C187 1.389 . S
C188 C189 1.399 . S
C188 H201 0.931 . S
C189 C188 1.399 . S
C189 C190 1.390 . S
C190 C185 1.392 . S
C190 C189 1.390 . S
C190 H202 0.929 . S
O191 Tb175 2.326 . S
O191 C179 1.242 . S
O192 Eu176 2.324 . S
O192 C179 1.258 . S
O193 Tb175 2.500 . S
O193 C195 1.273 . S
O194 Tb175 2.473 . S
O194 C195 1.257 . S
C195 O193 1.273 . S
C195 O194 1.257 . S
O196 Eu176 2.326 . S
O196 C184 1.242 . S
O197 Tb175 2.324 . S
O197 C184 1.258 . S
O198 Eu176 2.500 . S
O198 C181 1.273 . S
O199 Eu176 2.473 . S
O199 C181 1.257 . S
H200 C186 0.929 . S
H201 C188 0.931 . S
H202 C190 0.929 . S
O203 Tb204 2.292 1_556 S
O203 C206 1.255 . S
Tb204 O203 2.292 1_554 S
Tb204 O220 2.326 . S
Tb204 O222 2.500 . S
Tb204 O223 2.473 . S
Tb204 O226 2.324 . S
Eu205 O209 2.292 . S
Eu205 C210 2.852 . S
Eu205 O221 2.324 . S
Eu205 O225 2.326 . S
Eu205 O227 2.500 . S
Eu205 O228 2.473 . S
C206 O203 1.255 . S
C206 O207 1.247 . S
O207 C206 1.247 . S
C208 O220 1.242 . S
C208 O221 1.258 . S
O209 Eu205 2.292 . S
O209 C211 1.255 . S
C210 Eu205 2.852 . S
C210 C214 1.503 . S
C210 O227 1.273 . S
C210 O228 1.257 . S
C211 O209 1.255 . S
C211 O212 1.247 . S
O212 C211 1.247 . S
C213 O225 1.242 . S
C213 O226 1.258 . S
C214 C210 1.503 . S
C214 C215 1.379 . S
C214 C219 1.392 . S
C215 C214 1.379 . S
C215 C216 1.404 . S
C215 H229 0.929 . S
C216 C215 1.404 . S
C216 C217 1.389 . S
C217 C216 1.389 . S
C217 C218 1.399 . S
C217 H230 0.931 . S
C218 C217 1.399 . S
C218 C219 1.390 . S
C219 C214 1.392 . S
C219 C218 1.390 . S
C219 H231 0.929 . S
O220 Tb204 2.326 . S
O220 C208 1.242 . S
O221 Eu205 2.324 . S
O221 C208 1.258 . S
O222 Tb204 2.500 . S
O222 C224 1.273 . S
O223 Tb204 2.473 . S
O223 C224 1.257 . S
C224 O222 1.273 . S
C224 O223 1.257 . S
O225 Eu205 2.326 . S
O225 C213 1.242 . S
O226 Tb204 2.324 . S
O226 C213 1.258 . S
O227 Eu205 2.500 . S
O227 C210 1.273 . S
O228 Eu205 2.473 . S
O228 C210 1.257 . S
H229 C215 0.929 . S
H230 C217 0.931 . S
H231 C219 0.929 . S
O232 Tb233 2.292 . S
O232 C235 1.255 . S
Tb233 O232 2.292 . S
Tb233 O249 2.326 . S
Tb233 O251 2.500 . S
Tb233 O252 2.473 . S
Tb233 O255 2.324 . S
Eu234 O238 2.292 . S
Eu234 C239 2.852 . S
Eu234 O250 2.324 . S
Eu234 O254 2.326 . S
Eu234 O256 2.500 . S
Eu234 O257 2.473 . S
C235 O232 1.255 . S
C235 O236 1.247 . S
O236 C235 1.247 . S
C237 O249 1.242 . S
C237 O250 1.258 . S
O238 Eu234 2.292 . S
O238 C240 1.255 1_556 S
C239 Eu234 2.852 . S
C239 C243 1.503 . S
C239 O256 1.273 . S
C239 O257 1.257 . S
C240 O238 1.255 1_554 S
C240 O241 1.247 . S
O241 C240 1.247 . S
C242 O254 1.242 . S
C242 O255 1.258 . S
C243 C239 1.503 . S
C243 C244 1.379 . S
C243 C248 1.392 . S
C244 C243 1.379 . S
C244 C245 1.404 . S
C244 H258 0.929 . S
C245 C244 1.404 . S
C245 C246 1.389 . S
C246 C245 1.389 . S
C246 C247 1.399 . S
C246 H259 0.931 . S
C247 C246 1.399 . S
C247 C248 1.390 . S
C248 C243 1.392 . S
C248 C247 1.390 . S
C248 H260 0.929 . S
O249 Tb233 2.326 . S
O249 C237 1.242 . S
O250 Eu234 2.324 . S
O250 C237 1.258 . S
O251 Tb233 2.500 . S
O251 C253 1.273 . S
O252 Tb233 2.473 . S
O252 C253 1.257 . S
C253 O251 1.273 . S
C253 O252 1.257 . S
O254 Eu234 2.326 . S
O254 C242 1.242 . S
O255 Tb233 2.324 . S
O255 C242 1.258 . S
O256 Eu234 2.500 . S
O256 C239 1.273 . S
O257 Eu234 2.473 . S
O257 C239 1.257 . S
H258 C244 0.929 . S
H259 C246 0.931 . S
H260 C248 0.929 . S
O261 Tb262 2.292 . S
O261 C264 1.255 . S
Tb262 O261 2.292 . S
Tb262 O278 2.326 . S
Tb262 O280 2.500 . S
Tb262 O281 2.473 . S
Tb262 O284 2.324 . S
Eu263 O267 2.292 . S
Eu263 C268 2.852 . S
Eu263 O279 2.324 . S
Eu263 O283 2.326 . S
Eu263 O285 2.500 . S
Eu263 O286 2.473 . S
C264 O261 1.255 . S
C264 O265 1.247 . S
O265 C264 1.247 . S
C266 O278 1.242 . S
C266 O279 1.258 . S
O267 Eu263 2.292 . S
O267 C269 1.255 . S
C268 Eu263 2.852 . S
C268 C272 1.503 . S
C268 O285 1.273 . S
C268 O286 1.257 . S
C269 O267 1.255 . S
C269 O270 1.247 . S
O270 C269 1.247 . S
C271 O283 1.242 . S
C271 O284 1.258 . S
C272 C268 1.503 . S
C272 C273 1.379 . S
C272 C277 1.392 . S
C273 C272 1.379 . S
C273 C274 1.404 . S
C273 H287 0.929 . S
C274 C273 1.404 . S
C274 C275 1.389 . S
C275 C274 1.389 . S
C275 C276 1.399 . S
C275 H288 0.931 . S
C276 C275 1.399 . S
C276 C277 1.390 . S
C277 C272 1.392 . S
C277 C276 1.390 . S
C277 H289 0.929 . S
O278 Tb262 2.326 . S
O278 C266 1.242 . S
O279 Eu263 2.324 . S
O279 C266 1.258 . S
O280 Tb262 2.500 . S
O280 C282 1.273 . S
O281 Tb262 2.473 . S
O281 C282 1.257 . S
C282 O280 1.273 . S
C282 O281 1.257 . S
O283 Eu263 2.326 . S
O283 C271 1.242 . S
O284 Tb262 2.324 . S
O284 C271 1.258 . S
O285 Eu263 2.500 . S
O285 C268 1.273 . S
O286 Eu263 2.473 . S
O286 C268 1.257 . S
H287 C273 0.929 . S
H288 C275 0.931 . S
H289 C277 0.929 . S
O290 Tb291 2.292 . S
O290 C293 1.255 . S
Tb291 O290 2.292 . S
Tb291 O307 2.326 . S
Tb291 O309 2.500 . S
Tb291 O310 2.473 . S
Tb291 O313 2.324 . S
Eu292 O296 2.292 . S
Eu292 C297 2.852 . S
Eu292 O308 2.324 . S
Eu292 O312 2.326 . S
Eu292 O314 2.500 . S
Eu292 O315 2.473 . S
C293 O290 1.255 . S
C293 O294 1.247 . S
O294 C293 1.247 . S
C295 O307 1.242 . S
C295 O308 1.258 . S
O296 Eu292 2.292 . S
O296 C298 1.255 . S
C297 Eu292 2.852 . S
C297 C301 1.503 . S
C297 O314 1.273 . S
C297 O315 1.257 . S
C298 O296 1.255 . S
C298 O299 1.247 . S
O299 C298 1.247 . S
C300 O312 1.242 . S
C300 O313 1.258 . S
C301 C297 1.503 . S
C301 C302 1.379 . S
C301 C306 1.392 . S
C302 C301 1.379 . S
C302 C303 1.404 . S
C302 H316 0.929 . S
C303 C302 1.404 . S
C303 C304 1.389 . S
C304 C303 1.389 . S
C304 C305 1.399 . S
C304 H317 0.931 . S
C305 C304 1.399 . S
C305 C306 1.390 . S
C306 C301 1.392 . S
C306 C305 1.390 . S
C306 H318 0.929 . S
O307 Tb291 2.326 . S
O307 C295 1.242 . S
O308 Eu292 2.324 . S
O308 C295 1.258 . S
O309 Tb291 2.500 . S
O309 C311 1.273 . S
O310 Tb291 2.473 . S
O310 C311 1.257 . S
C311 O309 1.273 . S
C311 O310 1.257 . S
O312 Eu292 2.326 . S
O312 C300 1.242 . S
O313 Tb291 2.324 . S
O313 C300 1.258 . S
O314 Eu292 2.500 . S
O314 C297 1.273 . S
O315 Eu292 2.473 . S
O315 C297 1.257 . S
H316 C302 0.929 . S
H317 C304 0.931 . S
H318 C306 0.929 . S
O319 Tb320 2.292 . S
O319 C322 1.255 1_554 S
Tb320 O319 2.292 . S
Tb320 O336 2.326 . S
Tb320 O338 2.500 . S
Tb320 O339 2.473 . S
Tb320 O342 2.324 . S
Eu321 O325 2.292 . S
Eu321 C326 2.852 . S
Eu321 O337 2.324 . S
Eu321 O341 2.326 . S
Eu321 O343 2.500 . S
Eu321 O344 2.473 . S
C322 O319 1.255 1_556 S
C322 O323 1.247 . S
O323 C322 1.247 . S
C324 O336 1.242 . S
C324 O337 1.258 . S
O325 Eu321 2.292 . S
O325 C327 1.255 . S
C326 Eu321 2.852 . S
C326 C330 1.503 . S
C326 O343 1.273 . S
C326 O344 1.257 . S
C327 O325 1.255 . S
C327 O328 1.247 . S
O328 C327 1.247 . S
C329 O341 1.242 . S
C329 O342 1.258 . S
C330 C326 1.503 . S
C330 C331 1.379 . S
C330 C335 1.392 . S
C331 C330 1.379 . S
C331 C332 1.404 . S
C331 H345 0.929 . S
C332 C331 1.404 . S
C332 C333 1.389 . S
C333 C332 1.389 . S
C333 C334 1.399 . S
C333 H346 0.931 . S
C334 C333 1.399 . S
C334 C335 1.390 . S
C335 C330 1.392 . S
C335 C334 1.390 . S
C335 H347 0.929 . S
O336 Tb320 2.326 . S
O336 C324 1.242 . S
O337 Eu321 2.324 . S
O337 C324 1.258 . S
O338 Tb320 2.500 . S
O338 C340 1.273 . S
O339 Tb320 2.473 . S
O339 C340 1.257 . S
C340 O338 1.273 . S
C340 O339 1.257 . S
O341 Eu321 2.326 . S
O341 C329 1.242 . S
O342 Tb320 2.324 . S
O342 C329 1.258 . S
O343 Eu321 2.500 . S
O343 C326 1.273 . S
O344 Eu321 2.473 . S
O344 C326 1.257 . S
H345 C331 0.929 . S
H346 C333 0.931 . S
H347 C335 0.929 . S
O348 Tb349 2.292 . S
O348 C351 1.255 . S
Tb349 O348 2.292 . S
Tb349 O365 2.326 . S
Tb349 O367 2.500 . S
Tb349 O368 2.473 . S
Tb349 O371 2.324 . S
Eu350 O354 2.292 . S
Eu350 C355 2.852 . S
Eu350 O366 2.324 . S
Eu350 O370 2.326 . S
Eu350 O372 2.500 . S
Eu350 O373 2.473 . S
C351 O348 1.255 . S
C351 O352 1.247 . S
O352 C351 1.247 . S
C353 O365 1.242 . S
C353 O366 1.258 . S
O354 Eu350 2.292 . S
O354 C356 1.255 . S
C355 Eu350 2.852 . S
C355 C359 1.503 . S
C355 O372 1.273 . S
C355 O373 1.257 . S
C356 O354 1.255 . S
C356 O357 1.247 . S
O357 C356 1.247 . S
C358 O370 1.242 . S
C358 O371 1.258 . S
C359 C355 1.503 . S
C359 C360 1.379 . S
C359 C364 1.392 . S
C360 C359 1.379 . S
C360 C361 1.404 . S
C360 H374 0.929 . S
C361 C360 1.404 . S
C361 C362 1.389 . S
C362 C361 1.389 . S
C362 C363 1.399 . S
C362 H375 0.931 . S
C363 C362 1.399 . S
C363 C364 1.390 . S
C364 C359 1.392 . S
C364 C363 1.390 . S
C364 H376 0.929 . S
O365 Tb349 2.326 . S
O365 C353 1.242 . S
O366 Eu350 2.324 . S
O366 C353 1.258 . S
O367 Tb349 2.500 . S
O367 C369 1.273 . S
O368 Tb349 2.473 . S
O368 C369 1.257 . S
C369 O367 1.273 . S
C369 O368 1.257 . S
O370 Eu350 2.326 . S
O370 C358 1.242 . S
O371 Tb349 2.324 . S
O371 C358 1.258 . S
O372 Eu350 2.500 . S
O372 C355 1.273 . S
O373 Eu350 2.473 . S
O373 C355 1.257 . S
H374 C360 0.929 . S
H375 C362 0.931 . S
H376 C364 0.929 . S
O377 Tb378 2.292 . S
O377 C380 1.255 . S
Tb378 O377 2.292 . S
Tb378 O394 2.326 . S
Tb378 O396 2.500 . S
Tb378 O397 2.473 . S
Tb378 O400 2.324 . S
Eu379 O383 2.292 . S
Eu379 C384 2.852 . S
Eu379 O395 2.324 . S
Eu379 O399 2.326 . S
Eu379 O401 2.500 . S
Eu379 O402 2.473 . S
C380 O377 1.255 . S
C380 O381 1.247 . S
O381 C380 1.247 . S
C382 O394 1.242 . S
C382 O395 1.258 . S
O383 Eu379 2.292 . S
O383 C385 1.255 . S
C384 Eu379 2.852 . S
C384 C388 1.503 . S
C384 O401 1.273 . S
C384 O402 1.257 . S
C385 O383 1.255 . S
C385 O386 1.247 . S
O386 C385 1.247 . S
C387 O399 1.242 . S
C387 O400 1.258 . S
C388 C384 1.503 . S
C388 C389 1.379 . S
C388 C393 1.392 . S
C389 C388 1.379 . S
C389 C390 1.404 . S
C389 H403 0.929 . S
C390 C389 1.404 . S
C390 C391 1.389 . S
C391 C390 1.389 . S
C391 C392 1.399 . S
C391 H404 0.931 . S
C392 C391 1.399 . S
C392 C393 1.390 . S
C393 C388 1.392 . S
C393 C392 1.390 . S
C393 H405 0.929 . S
O394 Tb378 2.326 . S
O394 C382 1.242 . S
O395 Eu379 2.324 . S
O395 C382 1.258 . S
O396 Tb378 2.500 . S
O396 C398 1.273 . S
O397 Tb378 2.473 . S
O397 C398 1.257 . S
C398 O396 1.273 . S
C398 O397 1.257 . S
O399 Eu379 2.326 . S
O399 C387 1.242 . S
O400 Tb378 2.324 . S
O400 C387 1.258 . S
O401 Eu379 2.500 . S
O401 C384 1.273 . S
O402 Eu379 2.473 . S
O402 C384 1.257 . S
H403 C389 0.929 . S
H404 C391 0.931 . S
H405 C393 0.929 . S
O406 Tb407 2.292 . S
O406 C409 1.255 . S
Tb407 O406 2.292 . S
Tb407 O423 2.326 . S
Tb407 O425 2.500 . S
Tb407 O426 2.473 . S
Tb407 O429 2.324 . S
Eu408 O412 2.292 . S
Eu408 C413 2.852 . S
Eu408 O424 2.324 . S
Eu408 O428 2.326 . S
Eu408 O430 2.500 . S
Eu408 O431 2.473 . S
C409 O406 1.255 . S
C409 O410 1.247 . S
O410 C409 1.247 . S
C411 O423 1.242 . S
C411 O424 1.258 . S
O412 Eu408 2.292 . S
O412 C414 1.255 1_554 S
C413 Eu408 2.852 . S
C413 C417 1.503 . S
C413 O430 1.273 . S
C413 O431 1.257 . S
C414 O412 1.255 1_556 S
C414 O415 1.247 . S
O415 C414 1.247 . S
C416 O428 1.242 . S
C416 O429 1.258 . S
C417 C413 1.503 . S
C417 C418 1.379 . S
C417 C422 1.392 . S
C418 C417 1.379 . S
C418 C419 1.404 . S
C418 H432 0.929 . S
C419 C418 1.404 . S
C419 C420 1.389 . S
C420 C419 1.389 . S
C420 C421 1.399 . S
C420 H433 0.931 . S
C421 C420 1.399 . S
C421 C422 1.390 . S
C422 C417 1.392 . S
C422 C421 1.390 . S
C422 H434 0.929 . S
O423 Tb407 2.326 . S
O423 C411 1.242 . S
O424 Eu408 2.324 . S
O424 C411 1.258 . S
O425 Tb407 2.500 . S
O425 C427 1.273 . S
O426 Tb407 2.473 . S
O426 C427 1.257 . S
C427 O425 1.273 . S
C427 O426 1.257 . S
O428 Eu408 2.326 . S
O428 C416 1.242 . S
O429 Tb407 2.324 . S
O429 C416 1.258 . S
O430 Eu408 2.500 . S
O430 C413 1.273 . S
O431 Eu408 2.473 . S
O431 C413 1.257 . S
H432 C418 0.929 . S
H433 C420 0.931 . S
H434 C422 0.929 . S
O435 Tb436 2.292 1_554 S
O435 C438 1.255 . S
Tb436 O435 2.292 1_556 S
Tb436 O452 2.326 . S
Tb436 O454 2.500 . S
Tb436 O455 2.473 . S
Tb436 O458 2.324 . S
Eu437 O441 2.292 . S
Eu437 C442 2.852 . S
Eu437 O453 2.324 . S
Eu437 O457 2.326 . S
Eu437 O459 2.500 . S
Eu437 O460 2.473 . S
C438 O435 1.255 . S
C438 O439 1.247 . S
O439 C438 1.247 . S
C440 O452 1.242 . S
C440 O453 1.258 . S
O441 Eu437 2.292 . S
O441 C443 1.255 . S
C442 Eu437 2.852 . S
C442 C446 1.503 . S
C442 O459 1.273 . S
C442 O460 1.257 . S
C443 O441 1.255 . S
C443 O444 1.247 . S
O444 C443 1.247 . S
C445 O457 1.242 . S
C445 O458 1.258 . S
C446 C442 1.503 . S
C446 C447 1.379 . S
C446 C451 1.392 . S
C447 C446 1.379 . S
C447 C448 1.404 . S
C447 H461 0.929 . S
C448 C447 1.404 . S
C448 C449 1.389 . S
C449 C448 1.389 . S
C449 C450 1.399 . S
C449 H462 0.931 . S
C450 C449 1.399 . S
C450 C451 1.390 . S
C451 C446 1.392 . S
C451 C450 1.390 . S
C451 H463 0.929 . S
O452 Tb436 2.326 . S
O452 C440 1.242 . S
O453 Eu437 2.324 . S
O453 C440 1.258 . S
O454 Tb436 2.500 . S
O454 C456 1.273 . S
O455 Tb436 2.473 . S
O455 C456 1.257 . S
C456 O454 1.273 . S
C456 O455 1.257 . S
O457 Eu437 2.326 . S
O457 C445 1.242 . S
O458 Tb436 2.324 . S
O458 C445 1.258 . S
O459 Eu437 2.500 . S
O459 C442 1.273 . S
O460 Eu437 2.473 . S
O460 C442 1.257 . S
H461 C447 0.929 . S
H462 C449 0.931 . S
H463 C451 0.929 . S
C464 C465 1.391 . S
C464 C466 1.394 . S
C464 H480 0.931 . S
C465 C464 1.391 . S
C465 C469 1.376 . S
C466 C464 1.394 . S
C466 C467 1.369 . S
C466 C470 1.531 1_655 S
C467 C466 1.369 . S
C467 C468 1.410 . S
C467 C475 1.503 1_655 S
C468 C467 1.410 . S
C468 C469 1.392 . S
C468 C471 1.511 . S
C469 C465 1.376 . S
C469 C468 1.392 . S
C469 H481 0.929 . S
C470 C466 1.531 1_455 S
C470 H482 0.960 . S
C470 H483 0.962 . S
C470 H484 0.960 . S
C471 C468 1.511 . S
C471 H485 0.961 . S
C471 H486 0.961 . S
C471 H487 0.961 . S
C472 C473 1.370 . S
C472 C474 1.363 . S
C472 H488 0.931 . S
C473 C472 1.370 . S
C473 C477 1.408 . S
C474 C472 1.363 . S
C474 C475 1.370 . S
C474 C478 1.524 1_455 S
C475 C467 1.503 1_455 S
C475 C474 1.370 . S
C475 C476 1.403 . S
C476 C475 1.403 . S
C476 C477 1.404 . S
C476 C479 1.539 1_554 S
C477 C473 1.408 . S
C477 C476 1.404 . S
C477 H489 0.930 . S
C478 C474 1.524 1_655 S
C478 H490 0.955 1_655 S
C478 H491 0.961 . S
C478 H492 0.961 1_655 S
C479 C476 1.539 1_556 S
C479 H493 0.958 . S
C479 H494 0.961 . S
C479 H495 0.960 1_455 S
H480 C464 0.931 . S
H481 C469 0.929 . S
H482 C470 0.960 . S
H483 C470 0.962 . S
H484 C470 0.960 . S
H485 C471 0.961 . S
H486 C471 0.961 . S
H487 C471 0.961 . S
H488 C472 0.931 . S
H489 C477 0.930 . S
H490 C478 0.955 1_455 S
H491 C478 0.961 . S
H492 C478 0.961 1_455 S
H493 C479 0.958 . S
H494 C479 0.961 . S
H495 C479 0.960 1_655 S
C496 C497 1.391 . S
C496 C498 1.394 . S
C496 H512 0.931 . S
C497 C496 1.391 . S
C497 C501 1.376 . S
C498 C496 1.394 . S
C498 C499 1.369 1_455 S
C498 C502 1.531 1_455 S
C499 C498 1.369 1_655 S
C499 C500 1.410 1_655 S
C499 C507 1.503 . S
C500 C499 1.410 1_455 S
C500 C501 1.392 . S
C500 C503 1.511 1_455 S
C501 C497 1.376 . S
C501 C500 1.392 . S
C501 H513 0.929 . S
C502 C498 1.531 1_655 S
C502 H514 0.960 . S
C502 H515 0.984 . S
C502 H516 0.960 . S
C503 C500 1.511 1_655 S
C503 H517 0.961 1_655 S
C503 H518 0.961 . S
C503 H519 0.961 . S
C504 C505 1.370 . S
C504 C506 1.363 . S
C504 H520 0.931 . S
C505 C504 1.370 . S
C505 C509 1.408 . S
C506 C504 1.363 . S
C506 C507 1.370 . S
C506 C510 1.524 1_655 S
C507 C499 1.503 . S
C507 C506 1.370 . S
C507 C508 1.403 . S
C508 C507 1.403 . S
C508 C509 1.404 . S
C508 C511 1.539 . S
C509 C505 1.408 . S
C509 C508 1.404 . S
C509 H521 0.930 . S
C510 C506 1.524 1_455 S
C510 H522 0.956 . S
C510 H523 0.961 . S
C510 H524 0.961 . S
C511 C508 1.539 . S
C511 H525 0.958 . S
C511 H526 0.961 . S
C511 H527 0.960 . S
H512 C496 0.931 . S
H513 C501 0.929 . S
H514 C502 0.960 . S
H515 C502 0.984 . S
H516 C502 0.960 . S
H517 C503 0.961 1_455 S
H518 C503 0.961 . S
H519 C503 0.961 . S
H520 C504 0.931 . S
H521 C509 0.930 . S
H522 C510 0.956 . S
H523 C510 0.961 . S
H524 C510 0.961 . S
H525 C511 0.958 . S
H526 C511 0.961 . S
H527 C511 0.960 . S
C528 C529 1.391 . S
C528 C530 1.394 . S
C528 H544 0.931 . S
C529 C528 1.391 . S
C529 C533 1.376 . S
C530 C528 1.394 . S
C530 C531 1.369 . S
C530 C534 1.531 . S
C531 C530 1.369 . S
C531 C532 1.410 . S
C531 C539 1.503 . S
C532 C531 1.410 . S
C532 C533 1.392 . S
C532 C535 1.511 . S
C533 C529 1.376 . S
C533 C532 1.392 . S
C533 H545 0.929 . S
C534 C530 1.531 . S
C534 H546 0.960 . S
C534 H547 0.962 . S
C534 H548 0.960 . S
C535 C532 1.511 . S
C535 H549 0.961 . S
C535 H550 0.961 . S
C535 H551 0.961 . S
C536 C537 1.370 . S
C536 C538 1.363 . S
C536 H552 0.931 . S
C537 C536 1.370 . S
C537 C541 1.408 . S
C538 C536 1.363 . S
C538 C539 1.370 . S
C538 C542 1.524 . S
C539 C531 1.503 . S
C539 C538 1.370 . S
C539 C540 1.403 . S
C540 C539 1.403 . S
C540 C541 1.404 . S
C540 C543 1.539 . S
C541 C537 1.408 . S
C541 C540 1.404 . S
C541 H553 0.930 . S
C542 C538 1.524 . S
C542 H554 0.956 . S
C542 H555 0.961 . S
C542 H556 0.961 . S
C543 C540 1.539 . S
C543 H557 0.958 . S
C543 H558 0.961 . S
C543 H559 0.960 . S
H544 C528 0.931 . S
H545 C533 0.929 . S
H546 C534 0.960 . S
H547 C534 0.962 . S
H548 C534 0.960 . S
H549 C535 0.961 . S
H550 C535 0.961 . S
H551 C535 0.961 . S
H552 C536 0.931 . S
H553 C541 0.930 . S
H554 C542 0.956 . S
H555 C542 0.961 . S
H556 C542 0.961 . S
H557 C543 0.958 . S
H558 C543 0.961 . S
H559 C543 0.960 . S
C560 C561 1.391 . S
C560 C562 1.394 . S
C560 H576 0.931 . S
C561 C560 1.391 . S
C561 C565 1.376 . S
C562 C560 1.394 . S
C562 C563 1.369 . S
C562 C566 1.531 . S
C563 C562 1.369 . S
C563 C564 1.410 . S
C563 C571 1.503 . S
C564 C563 1.410 . S
C564 C565 1.392 . S
C564 C567 1.511 . S
C565 C561 1.376 . S
C565 C564 1.392 . S
C565 H577 0.929 . S
C566 C562 1.531 . S
C566 H578 0.960 . S
C566 H579 0.962 . S
C566 H580 0.960 . S
C567 C564 1.511 . S
C567 H581 0.961 . S
C567 H582 0.961 . S
C567 H583 0.961 . S
C568 C569 1.370 . S
C568 C570 1.363 . S
C568 H584 0.931 . S
C569 C568 1.370 . S
C569 C573 1.408 . S
C570 C568 1.363 . S
C570 C571 1.370 . S
C570 C574 1.524 . S
C571 C563 1.503 . S
C571 C570 1.370 . S
C571 C572 1.403 . S
C572 C571 1.403 . S
C572 C573 1.404 . S
C572 C575 1.539 . S
C573 C569 1.408 . S
C573 C572 1.404 . S
C573 H585 0.930 . S
C574 C570 1.524 . S
C574 H586 0.956 . S
C574 H587 0.961 . S
C574 H588 0.961 . S
C575 C572 1.539 . S
C575 H589 0.958 . S
C575 H590 0.961 . S
C575 H591 0.960 . S
H576 C560 0.931 . S
H577 C565 0.929 . S
H578 C566 0.960 . S
H579 C566 0.962 . S
H580 C566 0.960 . S
H581 C567 0.961 . S
H582 C567 0.961 . S
H583 C567 0.961 . S
H584 C568 0.931 . S
H585 C573 0.930 . S
H586 C574 0.956 . S
H587 C574 0.961 . S
H588 C574 0.961 . S
H589 C575 0.958 . S
H590 C575 0.961 . S
H591 C575 0.960 . S
C592 C593 1.391 . S
C592 C594 1.394 . S
C592 H608 0.931 . S
C593 C592 1.391 . S
C593 C597 1.376 . S
C594 C592 1.394 . S
C594 C595 1.416 . S
C594 C598 1.531 . S
C595 C594 1.416 . S
C595 C596 1.397 1_655 S
C595 C603 1.467 1_655 S
C596 C595 1.397 1_455 S
C596 C597 1.392 1_455 S
C596 C599 1.511 . S
C597 C593 1.376 . S
C597 C596 1.392 1_655 S
C597 H609 0.929 . S
C598 C594 1.531 . S
C598 H610 0.960 . S
C598 H611 0.962 . S
C598 H612 0.960 . S
C599 C596 1.511 . S
C599 H613 0.961 . S
C599 H614 0.961 . S
C599 H615 0.961 . S
C600 C601 1.370 . S
C600 C602 1.363 . S
C600 H616 0.931 . S
C601 C600 1.370 . S
C601 C605 1.408 . S
C602 C600 1.363 . S
C602 C603 1.370 . S
C602 C606 1.524 . S
C603 C595 1.467 1_455 S
C603 C602 1.370 . S
C603 C604 1.403 . S
C604 C603 1.403 . S
C604 C605 1.404 . S
C604 C607 1.539 1_556 S
C605 C601 1.408 . S
C605 C604 1.404 . S
C605 H617 0.930 1_556 S
C606 C602 1.524 . S
C606 H618 0.956 . S
C606 H619 0.961 . S
C606 H620 0.961 . S
C607 C604 1.539 1_554 S
C607 H621 0.958 1_455 S
C607 H622 0.961 . S
C607 H623 0.958 1_554 S
H608 C592 0.931 . S
H609 C597 0.929 . S
H610 C598 0.960 . S
H611 C598 0.962 . S
H612 C598 0.960 . S
H613 C599 0.961 . S
H614 C599 0.961 . S
H615 C599 0.961 . S
H616 C600 0.931 . S
H617 C605 0.930 1_554 S
H618 C606 0.956 . S
H619 C606 0.961 . S
H620 C606 0.961 . S
H621 C607 0.958 1_655 S
H622 C607 0.961 . S
H623 C607 0.958 1_556 S
C624 C625 1.391 . S
C624 C626 1.394 . S
C624 H640 0.931 . S
C625 C624 1.391 . S
C625 C629 1.376 . S
C626 C624 1.394 . S
C626 C627 1.369 . S
C626 C630 1.531 . S
C627 C626 1.369 . S
C627 C628 1.410 . S
C627 C635 1.503 1_455 S
C628 C627 1.410 . S
C628 C629 1.392 . S
C628 C631 1.511 1_455 S
C629 C625 1.376 . S
C629 C628 1.392 . S
C629 H641 0.929 . S
C630 C626 1.531 . S
C630 H642 0.960 . S
C630 H643 0.962 . S
C630 H644 0.960 . S
C631 C628 1.511 1_655 S
C631 H645 0.961 1_655 S
C631 H646 0.961 . S
C631 H647 0.961 . S
C632 C633 1.370 . S
C632 C634 1.363 . S
C632 H648 0.931 . S
C633 C632 1.370 . S
C633 C637 1.408 . S
C634 C632 1.363 . S
C634 C635 1.370 . S
C634 C638 1.524 1_655 S
C635 C627 1.503 1_655 S
C635 C634 1.370 . S
C635 C636 1.403 . S
C636 C635 1.403 . S
C636 C637 1.404 . S
C636 C639 1.539 . S
C637 C633 1.408 . S
C637 C636 1.404 . S
C637 H649 0.930 . S
C638 C634 1.524 1_455 S
C638 H650 0.956 . S
C638 H651 0.961 . S
C638 H652 0.961 . S
C639 C636 1.539 . S
C639 H653 0.958 . S
C639 H654 0.961 . S
C639 H655 0.960 . S
H640 C624 0.931 . S
H641 C629 0.929 . S
H642 C630 0.960 . S
H643 C630 0.962 . S
H644 C630 0.960 . S
H645 C631 0.961 1_455 S
H646 C631 0.961 . S
H647 C631 0.961 . S
H648 C632 0.931 . S
H649 C637 0.930 . S
H650 C638 0.956 . S
H651 C638 0.961 . S
H652 C638 0.961 . S
H653 C639 0.958 . S
H654 C639 0.961 . S
H655 C639 0.960 . S
C656 C657 1.391 . S
C656 C658 1.394 . S
C656 H672 0.931 . S
C657 C656 1.391 . S
C657 C661 1.376 . S
C658 C656 1.394 . S
C658 C659 1.369 . S
C658 C662 1.531 . S
C659 C658 1.369 . S
C659 C660 1.410 . S
C659 C667 1.503 . S
C660 C659 1.410 . S
C660 C661 1.392 . S
C660 C663 1.511 . S
C661 C657 1.376 . S
C661 C660 1.392 . S
C661 H673 0.929 . S
C662 C658 1.531 . S
C662 H674 0.960 . S
C662 H675 0.962 . S
C662 H676 0.960 . S
C663 C660 1.511 . S
C663 H677 0.961 . S
C663 H678 0.961 . S
C663 H679 0.961 . S
C664 C665 1.370 . S
C664 C666 1.363 . S
C664 H680 0.931 . S
C665 C664 1.370 . S
C665 C669 1.408 . S
C666 C664 1.363 . S
C666 C667 1.370 . S
C666 C670 1.524 . S
C667 C659 1.503 . S
C667 C666 1.370 . S
C667 C668 1.403 . S
C668 C667 1.403 . S
C668 C669 1.404 . S
C668 C671 1.539 . S
C669 C665 1.408 . S
C669 C668 1.404 . S
C669 H681 0.930 . S
C670 C666 1.524 . S
C670 H682 0.956 . S
C670 H683 0.961 . S
C670 H684 0.961 . S
C671 C668 1.539 . S
C671 H685 0.958 . S
C671 H686 0.961 . S
C671 H687 0.960 . S
H672 C656 0.931 . S
H673 C661 0.929 . S
H674 C662 0.960 . S
H675 C662 0.962 . S
H676 C662 0.960 . S
H677 C663 0.961 . S
H678 C663 0.961 . S
H679 C663 0.961 . S
H680 C664 0.931 . S
H681 C669 0.930 . S
H682 C670 0.956 . S
H683 C670 0.961 . S
H684 C670 0.961 . S
H685 C671 0.958 . S
H686 C671 0.961 . S
H687 C671 0.960 . S
C688 C689 1.391 . S
C688 C690 1.394 . S
C688 H704 0.931 . S
C689 C688 1.391 . S
C689 C693 1.376 . S
C690 C688 1.394 . S
C690 C691 1.369 . S
C690 C694 1.531 . S
C691 C690 1.369 . S
C691 C692 1.410 . S
C691 C699 1.503 . S
C692 C691 1.410 . S
C692 C693 1.392 . S
C692 C695 1.511 . S
C693 C689 1.376 . S
C693 C692 1.392 . S
C693 H705 0.929 . S
C694 C690 1.531 . S
C694 H706 0.960 . S
C694 H707 0.962 . S
C694 H708 0.960 . S
C695 C692 1.511 . S
C695 H709 0.961 . S
C695 H710 0.961 . S
C695 H711 0.961 . S
C696 C697 1.370 . S
C696 C698 1.363 . S
C696 H712 0.931 . S
C697 C696 1.370 . S
C697 C701 1.408 . S
C698 C696 1.363 . S
C698 C699 1.370 . S
C698 C702 1.524 . S
C699 C691 1.503 . S
C699 C698 1.370 . S
C699 C700 1.403 . S
C700 C699 1.403 . S
C700 C701 1.404 . S
C700 C703 1.539 . S
C701 C697 1.408 . S
C701 C700 1.404 . S
C701 H713 0.930 . S
C702 C698 1.524 . S
C702 H714 0.956 . S
C702 H715 0.961 . S
C702 H716 0.961 . S
C703 C700 1.539 . S
C703 H717 0.962 . S
C703 H718 0.961 1_554 S
C703 H719 0.960 . S
H704 C688 0.931 . S
H705 C693 0.929 . S
H706 C694 0.960 . S
H707 C694 0.962 . S
H708 C694 0.960 . S
H709 C695 0.961 . S
H710 C695 0.961 . S
H711 C695 0.961 . S
H712 C696 0.931 . S
H713 C701 0.930 . S
H714 C702 0.956 . S
H715 C702 0.961 . S
H716 C702 0.961 . S
H717 C703 0.962 . S
H718 C703 0.961 1_556 S
H719 C703 0.960 . S
C720 C721 1.391 . S
C720 C722 1.394 1_556 S
C720 H736 0.931 1_556 S
C721 C720 1.391 . S
C721 C725 1.376 . S
C722 C720 1.394 1_554 S
C722 C723 1.369 1_554 S
C722 C726 1.531 . S
C723 C722 1.369 1_556 S
C723 C724 1.410 . S
C723 C731 1.503 . S
C724 C723 1.410 . S
C724 C725 1.392 . S
C724 C727 1.511 . S
C725 C721 1.376 . S
C725 C724 1.392 . S
C725 H737 0.929 . S
C726 C722 1.531 . S
C726 H738 0.960 . S
C726 H739 0.962 . S
C726 H740 0.960 . S
C727 C724 1.511 . S
C727 H741 0.961 . S
C727 H742 0.961 . S
C727 H743 0.961 . S
C728 C729 1.370 . S
C728 C730 1.363 . S
C728 H744 0.931 . S
C729 C728 1.370 . S
C729 C733 1.399 1_554 S
C730 C728 1.363 . S
C730 C731 1.370 1_554 S
C730 C734 1.524 . S
C731 C723 1.503 . S
C731 C730 1.370 1_556 S
C731 C732 1.403 . S
C732 C731 1.403 . S
C732 C733 1.411 . S
C732 C735 1.539 . S
C733 C729 1.399 1_556 S
C733 C732 1.411 . S
C733 H745 0.932 . S
C734 C730 1.524 . S
C734 H746 0.956 . S
C734 H747 0.961 1_554 S
C734 H748 0.961 . S
C735 C732 1.539 . S
C735 H749 0.958 . S
C735 H750 0.961 . S
C735 H751 0.960 . S
H736 C720 0.931 1_554 S
H737 C725 0.929 . S
H738 C726 0.960 . S
H739 C726 0.962 . S
H740 C726 0.960 . S
H741 C727 0.961 . S
H742 C727 0.961 . S
H743 C727 0.961 . S
H744 C728 0.931 . S
H745 C733 0.932 . S
H746 C734 0.956 . S
H747 C734 0.961 1_556 S
H748 C734 0.961 . S
H749 C735 0.958 . S
H750 C735 0.961 . S
H751 C735 0.960 . S
C752 C753 1.391 . S
C752 C754 1.394 . S
C752 H768 0.931 . S
C753 C752 1.391 . S
C753 C757 1.376 . S
C754 C752 1.394 . S
C754 C755 1.369 . S
C754 C758 1.531 . S
C755 C754 1.369 . S
C755 C756 1.410 . S
C755 C763 1.503 1_565 S
C756 C755 1.410 . S
C756 C757 1.392 . S
C756 C759 1.511 . S
C757 C753 1.376 . S
C757 C756 1.392 . S
C757 H769 0.929 . S
C758 C754 1.531 . S
C758 H770 0.960 . S
C758 H771 0.953 1_565 S
C758 H772 0.960 . S
C759 C756 1.511 . S
C759 H773 0.961 . S
C759 H774 0.961 1_565 S
C759 H775 0.961 . S
C760 C761 1.370 . S
C760 C762 1.363 . S
C760 H776 0.931 . S
C761 C760 1.370 . S
C761 C765 1.408 . S
C762 C760 1.363 . S
C762 C763 1.370 . S
C762 C766 1.524 . S
C763 C755 1.503 1_545 S
C763 C762 1.370 . S
C763 C764 1.403 . S
C764 C763 1.403 . S
C764 C765 1.404 . S
C764 C767 1.539 1_545 S
C765 C761 1.408 . S
C765 C764 1.404 . S
C765 H777 0.930 . S
C766 C762 1.524 . S
C766 H778 0.956 . S
C766 H779 0.961 . S
C766 H780 0.961 . S
C767 C764 1.539 1_565 S
C767 H781 0.958 . S
C767 H782 0.970 . S
C767 H783 0.960 . S
H768 C752 0.931 . S
H769 C757 0.929 . S
H770 C758 0.960 . S
H771 C758 0.953 1_545 S
H772 C758 0.960 . S
H773 C759 0.961 . S
H774 C759 0.961 1_545 S
H775 C759 0.961 . S
H776 C760 0.931 . S
H777 C765 0.930 . S
H778 C766 0.956 . S
H779 C766 0.961 . S
H780 C766 0.961 . S
H781 C767 0.958 . S
H782 C767 0.970 . S
H783 C767 0.960 . S
C784 C785 1.391 . S
C784 C786 1.394 . S
C784 H800 0.931 . S
C785 C784 1.391 . S
C785 C789 1.376 . S
C786 C784 1.394 . S
C786 C787 1.369 . S
C786 C790 1.531 . S
C787 C786 1.369 . S
C787 C788 1.410 . S
C787 C795 1.503 . S
C788 C787 1.410 . S
C788 C789 1.392 . S
C788 C791 1.511 . S
C789 C785 1.376 . S
C789 C788 1.392 . S
C789 H801 0.929 . S
C790 C786 1.531 . S
C790 H802 0.960 . S
C790 H803 0.962 . S
C790 H804 0.960 . S
C791 C788 1.511 . S
C791 H805 0.961 . S
C791 H806 0.961 . S
C791 H807 0.961 . S
C792 C793 1.370 . S
C792 C794 1.363 . S
C792 H808 0.931 . S
C793 C792 1.370 . S
C793 C797 1.408 . S
C794 C792 1.363 . S
C794 C795 1.370 . S
C794 C798 1.524 . S
C795 C787 1.503 . S
C795 C794 1.370 . S
C795 C796 1.403 . S
C796 C795 1.403 . S
C796 C797 1.404 . S
C796 C799 1.539 . S
C797 C793 1.408 . S
C797 C796 1.404 . S
C797 H809 0.930 . S
C798 C794 1.524 . S
C798 H810 0.956 . S
C798 H811 0.961 . S
C798 H812 0.961 . S
C799 C796 1.539 . S
C799 H813 0.958 . S
C799 H814 0.961 . S
C799 H815 0.960 . S
H800 C784 0.931 . S
H801 C789 0.929 . S
H802 C790 0.960 . S
H803 C790 0.962 . S
H804 C790 0.960 . S
H805 C791 0.961 . S
H806 C791 0.961 . S
H807 C791 0.961 . S
H808 C792 0.931 . S
H809 C797 0.930 . S
H810 C798 0.956 . S
H811 C798 0.961 . S
H812 C798 0.961 . S
H813 C799 0.958 . S
H814 C799 0.961 . S
H815 C799 0.960 . S
C816 C817 1.391 . S
C816 C818 1.394 . S
C816 H832 0.931 . S
C817 C816 1.391 . S
C817 C821 1.376 . S
C818 C816 1.394 . S
C818 C819 1.369 . S
C818 C822 1.531 1_565 S
C819 C818 1.369 . S
C819 C820 1.410 . S
C819 C827 1.503 1_565 S
C820 C819 1.410 . S
C820 C821 1.392 . S
C820 C823 1.511 . S
C821 C817 1.376 . S
C821 C820 1.392 . S
C821 H833 0.929 . S
C822 C818 1.531 1_545 S
C822 H834 0.960 . S
C822 H835 0.962 . S
C822 H836 0.959 . S
C823 C820 1.511 . S
C823 H837 0.961 . S
C823 H838 0.961 . S
C823 H839 0.961 . S
C824 C825 1.370 . S
C824 C826 1.363 . S
C824 H840 0.931 . S
C825 C824 1.370 . S
C825 C829 1.408 . S
C826 C824 1.363 . S
C826 C827 1.370 . S
C826 C830 1.524 . S
C827 C819 1.503 1_545 S
C827 C826 1.370 . S
C827 C828 1.403 . S
C828 C827 1.403 . S
C828 C829 1.404 . S
C828 C831 1.539 . S
C829 C825 1.408 . S
C829 C828 1.404 . S
C829 H841 0.930 . S
C830 C826 1.524 . S
C830 H842 0.956 . S
C830 H843 0.961 . S
C830 H844 0.961 . S
C831 C828 1.539 . S
C831 H845 0.958 . S
C831 H846 0.961 . S
C831 H847 0.960 1_545 S
H832 C816 0.931 . S
H833 C821 0.929 . S
H834 C822 0.960 . S
H835 C822 0.962 . S
H836 C822 0.959 . S
H837 C823 0.961 . S
H838 C823 0.961 . S
H839 C823 0.961 . S
H840 C824 0.931 . S
H841 C829 0.930 . S
H842 C830 0.956 . S
H843 C830 0.961 . S
H844 C830 0.961 . S
H845 C831 0.958 . S
H846 C831 0.961 . S
H847 C831 0.960 1_565 S
C848 C849 1.391 1_554 S
C848 C850 1.394 . S
C848 H864 0.931 . S
C849 C848 1.391 1_556 S
C849 C853 1.376 . S
C850 C848 1.394 . S
C850 C851 1.369 1_554 S
C850 C854 1.531 . S
C851 C850 1.369 1_556 S
C851 C852 1.410 . S
C851 C859 1.503 . S
C852 C851 1.410 . S
C852 C853 1.392 . S
C852 C855 1.511 . S
C853 C849 1.376 . S
C853 C852 1.392 . S
C853 H865 0.929 . S
C854 C850 1.531 . S
C854 H866 0.960 . S
C854 H867 0.962 . S
C854 H868 0.960 . S
C855 C852 1.511 . S
C855 H869 0.961 . S
C855 H870 0.961 . S
C855 H871 0.961 . S
C856 C857 1.370 1_556 S
C856 C858 1.363 . S
C856 H872 0.931 . S
C857 C856 1.370 1_554 S
C857 C861 1.408 . S
C858 C856 1.363 . S
C858 C859 1.370 . S
C858 C862 1.524 . S
C859 C851 1.503 . S
C859 C858 1.370 . S
C859 C860 1.403 1_556 S
C860 C859 1.403 1_554 S
C860 C861 1.404 . S
C860 C863 1.539 . S
C861 C857 1.408 . S
C861 C860 1.404 . S
C861 H873 0.930 . S
C862 C858 1.524 . S
C862 H874 0.956 . S
C862 H875 0.961 . S
C862 H876 0.961 . S
C863 C860 1.539 . S
C863 H877 0.958 . S
C863 H878 0.961 . S
C863 H879 0.960 1_554 S
H864 C848 0.931 . S
H865 C853 0.929 . S
H866 C854 0.960 . S
H867 C854 0.962 . S
H868 C854 0.960 . S
H869 C855 0.961 . S
H870 C855 0.961 . S
H871 C855 0.961 . S
H872 C856 0.931 . S
H873 C861 0.930 . S
H874 C862 0.956 . S
H875 C862 0.961 . S
H876 C862 0.961 . S
H877 C863 0.958 . S
H878 C863 0.961 . S
H879 C863 0.960 1_556 S
C880 C881 1.391 . S
C880 C882 1.394 . S
C880 H896 0.931 . S
C881 C880 1.391 . S
C881 C885 1.376 . S
C882 C880 1.394 . S
C882 C883 1.369 . S
C882 C886 1.531 . S
C883 C882 1.369 . S
C883 C884 1.410 . S
C883 C891 1.503 1_565 S
C884 C883 1.410 . S
C884 C885 1.392 . S
C884 C887 1.511 . S
C885 C881 1.376 . S
C885 C884 1.392 . S
C885 H897 0.929 . S
C886 C882 1.531 . S
C886 H898 0.960 1_565 S
C886 H899 0.962 . S
C886 H900 0.960 . S
C887 C884 1.511 . S
C887 H901 0.961 . S
C887 H902 0.961 . S
C887 H903 0.961 . S
C888 C889 1.370 . S
C888 C890 1.363 . S
C888 H904 0.931 . S
C889 C888 1.370 . S
C889 C893 1.408 . S
C890 C888 1.363 . S
C890 C891 1.370 . S
C890 C894 1.524 1_545 S
C891 C883 1.503 1_545 S
C891 C890 1.370 . S
C891 C892 1.403 . S
C892 C891 1.403 . S
C892 C893 1.404 . S
C892 C895 1.539 . S
C893 C889 1.408 . S
C893 C892 1.404 . S
C893 H905 0.930 . S
C894 C890 1.524 1_565 S
C894 H906 0.956 . S
C894 H907 0.961 . S
C894 H908 0.961 . S
C895 C892 1.539 . S
C895 H909 0.958 . S
C895 H910 0.961 . S
C895 H911 0.960 . S
H896 C880 0.931 . S
H897 C885 0.929 . S
H898 C886 0.960 1_545 S
H899 C886 0.962 . S
H900 C886 0.960 . S
H901 C887 0.961 . S
H902 C887 0.961 . S
H903 C887 0.961 . S
H904 C888 0.931 . S
H905 C893 0.930 . S
H906 C894 0.956 . S
H907 C894 0.961 . S
H908 C894 0.961 . S
H909 C895 0.958 . S
H910 C895 0.961 . S
H911 C895 0.960 . S
C912 C913 1.391 . S
C912 C914 1.394 . S
C912 H928 0.931 . S
C913 C912 1.391 . S
C913 C917 1.376 . S
C914 C912 1.394 . S
C914 C915 1.369 . S
C914 C918 1.531 . S
C915 C914 1.369 . S
C915 C916 1.410 . S
C915 C923 1.503 . S
C916 C915 1.410 . S
C916 C917 1.392 . S
C916 C919 1.511 . S
C917 C913 1.376 . S
C917 C916 1.392 . S
C917 H929 0.929 . S
C918 C914 1.531 . S
C918 H930 0.960 . S
C918 H931 0.962 . S
C918 H932 0.960 . S
C919 C916 1.511 . S
C919 H933 0.961 . S
C919 H934 0.961 . S
C919 H935 0.961 . S
C920 C921 1.370 . S
C920 C922 1.363 . S
C920 H936 0.931 . S
C921 C920 1.370 . S
C921 C925 1.408 . S
C922 C920 1.363 . S
C922 C923 1.370 . S
C922 C926 1.524 . S
C923 C915 1.503 . S
C923 C922 1.370 . S
C923 C924 1.403 . S
C924 C923 1.403 . S
C924 C925 1.404 . S
C924 C927 1.539 . S
C925 C921 1.408 . S
C925 C924 1.404 . S
C925 H937 0.930 . S
C926 C922 1.524 . S
C926 H938 0.956 . S
C926 H939 0.961 . S
C926 H940 0.961 . S
C927 C924 1.539 . S
C927 H941 0.958 . S
C927 H942 0.961 . S
C927 H943 0.960 . S
H928 C912 0.931 . S
H929 C917 0.929 . S
H930 C918 0.960 . S
H931 C918 0.962 . S
H932 C918 0.960 . S
H933 C919 0.961 . S
H934 C919 0.961 . S
H935 C919 0.961 . S
H936 C920 0.931 . S
H937 C925 0.930 . S
H938 C926 0.956 . S
H939 C926 0.961 . S
H940 C926 0.961 . S
H941 C927 0.958 . S
H942 C927 0.961 . S
H943 C927 0.960 . S
C944 C945 1.391 . S
C944 C946 1.394 . S
C944 H960 0.931 . S
C945 C944 1.391 . S
C945 C949 1.376 . S
C946 C944 1.394 . S
C946 C947 1.369 . S
C946 C950 1.531 . S
C947 C946 1.369 . S
C947 C948 1.410 . S
C947 C955 1.503 1_565 S
C948 C947 1.410 . S
C948 C949 1.392 . S
C948 C951 1.511 . S
C949 C945 1.376 . S
C949 C948 1.392 . S
C949 H961 0.929 . S
C950 C946 1.531 . S
C950 H962 0.960 1_565 S
C950 H963 0.962 . S
C950 H964 0.960 . S
C951 C948 1.511 . S
C951 H965 0.961 . S
C951 H966 0.991 . S
C951 H967 0.961 . S
C952 C953 1.370 . S
C952 C954 1.363 . S
C952 H968 0.931 . S
C953 C952 1.370 . S
C953 C957 1.408 . S
C954 C952 1.363 . S
C954 C955 1.370 . S
C954 C958 1.512 1_545 S
C955 C947 1.503 1_545 S
C955 C954 1.370 . S
C955 C956 1.403 . S
C956 C955 1.403 . S
C956 C957 1.404 . S
C956 C959 1.539 . S
C957 C953 1.408 . S
C957 C956 1.404 . S
C957 H969 0.930 . S
C958 C954 1.512 1_565 S
C958 H970 0.962 . S
C958 H971 0.971 . S
C958 H972 0.956 1_565 S
C959 C956 1.539 . S
C959 H973 0.958 . S
C959 H974 0.961 . S
C959 H975 0.960 . S
H960 C944 0.931 . S
H961 C949 0.929 . S
H962 C950 0.960 1_545 S
H963 C950 0.962 . S
H964 C950 0.960 . S
H965 C951 0.961 . S
H966 C951 0.991 . S
H967 C951 0.961 . S
H968 C952 0.931 . S
H969 C957 0.930 . S
H970 C958 0.962 . S
H971 C958 0.971 . S
H972 C958 0.956 1_545 S
H973 C959 0.958 . S
H974 C959 0.961 . S
H975 C959 0.960 . S
C976 C977 1.391 . S
C976 C978 1.394 . S
C976 H992 0.931 . S
C977 C976 1.391 . S
C977 C981 1.376 . S
C978 C976 1.394 . S
C978 C979 1.369 . S
C978 C982 1.531 . S
C979 C978 1.369 . S
C979 C980 1.410 . S
C979 C987 1.503 . S
C980 C979 1.410 . S
C980 C981 1.392 . S
C980 C983 1.511 . S
C981 C977 1.376 . S
C981 C980 1.392 . S
C981 H993 0.929 . S
C982 C978 1.531 . S
C982 H994 0.960 . S
C982 H995 0.962 . S
C982 H996 0.960 . S
C983 C980 1.511 . S
C983 H997 0.961 . S
C983 H998 0.961 . S
C983 H999 0.961 . S
C984 C985 1.370 . S
C984 C986 1.363 . S
C984 H1000 0.931 . S
C985 C984 1.370 . S
C985 C989 1.408 . S
C986 C984 1.363 . S
C986 C987 1.370 . S
C986 C990 1.524 . S
C987 C979 1.503 . S
C987 C986 1.370 . S
C987 C988 1.403 . S
C988 C987 1.403 . S
C988 C989 1.404 . S
C988 C991 1.539 . S
C989 C985 1.408 . S
C989 C988 1.404 . S
C989 H1001 0.930 . S
C990 C986 1.524 . S
C990 H1002 0.956 . S
C990 H1003 0.961 . S
C990 H1004 0.961 . S
C991 C988 1.539 . S
C991 H1005 0.958 . S
C991 H1006 0.961 . S
C991 H1007 0.960 . S
H992 C976 0.931 . S
H993 C981 0.929 . S
H994 C982 0.960 . S
H995 C982 0.962 . S
H996 C982 0.960 . S
H997 C983 0.961 . S
H998 C983 0.961 . S
H999 C983 0.961 . S
H1000 C984 0.931 . S
H1001 C989 0.930 . S
H1002 C990 0.956 . S
H1003 C990 0.961 . S
H1004 C990 0.961 . S
H1005 C991 0.958 . S
H1006 C991 0.961 . S
H1007 C991 0.960 . S
C1008 C1009 1.391 . S
C1008 C1010 1.394 . S
C1008 H1024 0.931 . S
C1009 C1008 1.391 . S
C1009 C1013 1.376 . S
C1010 C1008 1.394 . S
C1010 C1011 1.369 . S
C1010 C1014 1.531 . S
C1011 C1010 1.369 . S
C1011 C1012 1.410 . S
C1011 C1019 1.503 . S
C1012 C1011 1.410 . S
C1012 C1013 1.392 . S
C1012 C1015 1.511 . S
C1013 C1009 1.376 . S
C1013 C1012 1.392 . S
C1013 H1025 0.929 . S
C1014 C1010 1.531 . S
C1014 H1026 0.960 . S
C1014 H1027 0.962 . S
C1014 H1028 0.960 . S
C1015 C1012 1.511 . S
C1015 H1029 0.961 . S
C1015 H1030 0.961 . S
C1015 H1031 0.961 . S
C1016 C1017 1.370 . S
C1016 C1018 1.363 . S
C1016 H1032 0.931 . S
C1017 C1016 1.370 . S
C1017 C1021 1.408 . S
C1018 C1016 1.363 . S
C1018 C1019 1.370 . S
C1018 C1022 1.524 . S
C1019 C1011 1.503 . S
C1019 C1018 1.370 . S
C1019 C1020 1.403 . S
C1020 C1019 1.403 . S
C1020 C1021 1.404 . S
C1020 C1023 1.539 . S
C1021 C1017 1.408 . S
C1021 C1020 1.404 . S
C1021 H1033 0.930 . S
C1022 C1018 1.524 . S
C1022 H1034 0.956 . S
C1022 H1035 0.961 . S
C1022 H1036 0.961 . S
C1023 C1020 1.539 . S
C1023 H1037 0.958 . S
C1023 H1038 0.961 . S
C1023 H1039 0.960 . S
H1024 C1008 0.931 . S
H1025 C1013 0.929 . S
H1026 C1014 0.960 . S
H1027 C1014 0.962 . S
H1028 C1014 0.960 . S
H1029 C1015 0.961 . S
H1030 C1015 0.961 . S
H1031 C1015 0.961 . S
H1032 C1016 0.931 . S
H1033 C1021 0.930 . S
H1034 C1022 0.956 . S
H1035 C1022 0.961 . S
H1036 C1022 0.961 . S
H1037 C1023 0.958 . S
H1038 C1023 0.961 . S
H1039 C1023 0.960 . S
C1040 C1041 1.391 1_554 S
C1040 C1042 1.394 . S
C1040 H1056 0.931 . S
C1041 C1040 1.391 1_556 S
C1041 C1045 1.376 . S
C1042 C1040 1.394 . S
C1042 C1043 1.369 . S
C1042 C1046 1.531 . S
C1043 C1042 1.369 . S
C1043 C1044 1.410 1_554 S
C1043 C1051 1.503 . S
C1044 C1043 1.410 1_556 S
C1044 C1045 1.392 . S
C1044 C1047 1.511 . S
C1045 C1041 1.376 . S
C1045 C1044 1.392 . S
C1045 H1057 0.929 . S
C1046 C1042 1.531 . S
C1046 H1058 0.960 . S
C1046 H1059 0.962 . S
C1046 H1060 0.960 . S
C1047 C1044 1.511 . S
C1047 H1061 0.961 . S
C1047 H1062 0.961 . S
C1047 H1063 0.961 1_556 S
C1048 C1049 1.370 1_556 S
C1048 C1050 1.363 . S
C1048 H1064 0.931 . S
C1049 C1048 1.370 1_554 S
C1049 C1053 1.408 . S
C1050 C1048 1.363 . S
C1050 C1051 1.370 1_556 S
C1050 C1054 1.524 . S
C1051 C1043 1.503 . S
C1051 C1050 1.370 1_554 S
C1051 C1052 1.403 . S
C1052 C1051 1.403 . S
C1052 C1053 1.404 . S
C1052 C1055 1.539 . S
C1053 C1049 1.408 . S
C1053 C1052 1.404 . S
C1053 H1065 0.930 . S
C1054 C1050 1.524 . S
C1054 H1066 0.956 . S
C1054 H1067 0.961 . S
C1054 H1068 0.961 . S
C1055 C1052 1.539 . S
C1055 H1069 0.958 . S
C1055 H1070 0.961 . S
C1055 H1071 0.960 . S
H1056 C1040 0.931 . S
H1057 C1045 0.929 . S
H1058 C1046 0.960 . S
H1059 C1046 0.962 . S
H1060 C1046 0.960 . S
H1061 C1047 0.961 . S
H1062 C1047 0.961 . S
H1063 C1047 0.961 1_554 S
H1064 C1048 0.931 . S
H1065 C1053 0.930 . S
H1066 C1054 0.956 . S
H1067 C1054 0.961 . S
H1068 C1054 0.961 . S
H1069 C1055 0.958 . S
H1070 C1055 0.961 . S
H1071 C1055 0.960 . S
C1072 C1073 1.391 . S
C1072 C1074 1.394 . S
C1072 H1088 0.931 . S
C1073 C1072 1.391 . S
C1073 C1077 1.376 . S
C1074 C1072 1.394 . S
C1074 C1075 1.369 . S
C1074 C1078 1.531 . S
C1075 C1074 1.369 . S
C1075 C1076 1.410 . S
C1075 C1083 1.503 . S
C1076 C1075 1.410 . S
C1076 C1077 1.392 . S
C1076 C1079 1.511 . S
C1077 C1073 1.376 . S
C1077 C1076 1.392 . S
C1077 H1089 0.929 . S
C1078 C1074 1.531 . S
C1078 H1090 0.960 . S
C1078 H1091 0.962 . S
C1078 H1092 0.960 . S
C1079 C1076 1.511 . S
C1079 H1093 0.961 . S
C1079 H1094 0.961 . S
C1079 H1095 0.961 . S
C1080 C1081 1.370 . S
C1080 C1082 1.363 . S
C1080 H1096 0.931 . S
C1081 C1080 1.370 . S
C1081 C1085 1.408 . S
C1082 C1080 1.363 . S
C1082 C1083 1.370 . S
C1082 C1086 1.524 . S
C1083 C1075 1.503 . S
C1083 C1082 1.370 . S
C1083 C1084 1.403 . S
C1084 C1083 1.403 . S
C1084 C1085 1.404 . S
C1084 C1087 1.539 . S
C1085 C1081 1.408 . S
C1085 C1084 1.404 . S
C1085 H1097 0.930 . S
C1086 C1082 1.524 . S
C1086 H1098 0.956 . S
C1086 H1099 0.961 . S
C1086 H1100 0.961 . S
C1087 C1084 1.539 . S
C1087 H1101 0.958 . S
C1087 H1102 0.961 . S
C1087 H1103 0.960 . S
H1088 C1072 0.931 . S
H1089 C1077 0.929 . S
H1090 C1078 0.960 . S
H1091 C1078 0.962 . S
H1092 C1078 0.960 . S
H1093 C1079 0.961 . S
H1094 C1079 0.961 . S
H1095 C1079 0.961 . S
H1096 C1080 0.931 . S
H1097 C1085 0.930 . S
H1098 C1086 0.956 . S
H1099 C1086 0.961 . S
H1100 C1086 0.961 . S
H1101 C1087 0.958 . S
H1102 C1087 0.961 . S
H1103 C1087 0.960 . S
C1104 C1105 1.391 . S
C1104 C1106 1.394 . S
C1104 H1120 0.931 . S
C1105 C1104 1.391 . S
C1105 C1109 1.376 . S
C1106 C1104 1.394 . S
C1106 C1107 1.369 . S
C1106 C1110 1.531 . S
C1107 C1106 1.369 . S
C1107 C1108 1.410 . S
C1107 C1115 1.503 . S
C1108 C1107 1.410 . S
C1108 C1109 1.392 . S
C1108 C1111 1.511 . S
C1109 C1105 1.376 . S
C1109 C1108 1.392 . S
C1109 H1121 0.929 . S
C1110 C1106 1.531 . S
C1110 H1122 0.960 . S
C1110 H1123 0.962 . S
C1110 H1124 0.960 . S
C1111 C1108 1.511 . S
C1111 H1125 0.961 . S
C1111 H1126 0.961 . S
C1111 H1127 0.961 . S
C1112 C1113 1.370 . S
C1112 C1114 1.363 . S
C1112 H1128 0.931 . S
C1113 C1112 1.370 . S
C1113 C1117 1.408 . S
C1114 C1112 1.363 . S
C1114 C1115 1.370 . S
C1114 C1118 1.524 . S
C1115 C1107 1.503 . S
C1115 C1114 1.370 . S
C1115 C1116 1.403 . S
C1116 C1115 1.403 . S
C1116 C1117 1.404 . S
C1116 C1119 1.539 . S
C1117 C1113 1.408 . S
C1117 C1116 1.404 . S
C1117 H1129 0.930 . S
C1118 C1114 1.524 . S
C1118 H1130 0.956 . S
C1118 H1131 0.961 . S
C1118 H1132 0.961 . S
C1119 C1116 1.539 . S
C1119 H1133 0.958 . S
C1119 H1134 0.961 . S
C1119 H1135 0.960 . S
H1120 C1104 0.931 . S
H1121 C1109 0.929 . S
H1122 C1110 0.960 . S
H1123 C1110 0.962 . S
H1124 C1110 0.960 . S
H1125 C1111 0.961 . S
H1126 C1111 0.961 . S
H1127 C1111 0.961 . S
H1128 C1112 0.931 . S
H1129 C1117 0.930 . S
H1130 C1118 0.956 . S
H1131 C1118 0.961 . S
H1132 C1118 0.961 . S
H1133 C1119 0.958 . S
H1134 C1119 0.961 . S
H1135 C1119 0.960 . S
C1136 C1137 1.391 . S
C1136 C1138 1.394 . S
C1136 H1152 0.931 . S
C1137 C1136 1.391 . S
C1137 C1141 1.376 . S
C1138 C1136 1.394 . S
C1138 C1139 1.369 . S
C1138 C1142 1.531 . S
C1139 C1138 1.369 . S
C1139 C1140 1.410 . S
C1139 C1147 1.503 . S
C1140 C1139 1.410 . S
C1140 C1141 1.392 . S
C1140 C1143 1.511 . S
C1141 C1137 1.376 . S
C1141 C1140 1.392 . S
C1141 H1153 0.929 . S
C1142 C1138 1.531 . S
C1142 H1154 0.960 . S
C1142 H1155 0.962 . S
C1142 H1156 0.960 . S
C1143 C1140 1.511 . S
C1143 H1157 0.961 . S
C1143 H1158 0.961 . S
C1143 H1159 0.961 . S
C1144 C1145 1.370 . S
C1144 C1146 1.363 . S
C1144 H1160 0.931 . S
C1145 C1144 1.370 . S
C1145 C1149 1.408 . S
C1146 C1144 1.363 . S
C1146 C1147 1.370 . S
C1146 C1150 1.524 . S
C1147 C1139 1.503 . S
C1147 C1146 1.370 . S
C1147 C1148 1.403 . S
C1148 C1147 1.403 . S
C1148 C1149 1.404 . S
C1148 C1151 1.539 . S
C1149 C1145 1.408 . S
C1149 C1148 1.404 . S
C1149 H1161 0.930 . S
C1150 C1146 1.524 . S
C1150 H1162 0.956 . S
C1150 H1163 0.961 . S
C1150 H1164 0.961 . S
C1151 C1148 1.539 . S
C1151 H1165 0.958 . S
C1151 H1166 0.961 . S
C1151 H1167 0.960 . S
H1152 C1136 0.931 . S
H1153 C1141 0.929 . S
H1154 C1142 0.960 . S
H1155 C1142 0.962 . S
H1156 C1142 0.960 . S
H1157 C1143 0.961 . S
H1158 C1143 0.961 . S
H1159 C1143 0.961 . S
H1160 C1144 0.931 . S
H1161 C1149 0.930 . S
H1162 C1150 0.956 . S
H1163 C1150 0.961 . S
H1164 C1150 0.961 . S
H1165 C1151 0.958 . S
H1166 C1151 0.961 . S
H1167 C1151 0.960 . S
C1168 C1169 1.391 1_554 S
C1168 C1170 1.394 . S
C1168 H1184 0.931 . S
C1169 C1168 1.391 1_556 S
C1169 C1173 1.376 . S
C1170 C1168 1.394 . S
C1170 C1171 1.369 . S
C1170 C1174 1.531 . S
C1171 C1170 1.369 . S
C1171 C1172 1.410 1_554 S
C1171 C1179 1.503 . S
C1172 C1171 1.410 1_556 S
C1172 C1173 1.392 . S
C1172 C1175 1.511 . S
C1173 C1169 1.376 . S
C1173 C1172 1.392 . S
C1173 H1185 0.929 . S
C1174 C1170 1.531 . S
C1174 H1186 0.960 . S
C1174 H1187 0.962 . S
C1174 H1188 0.960 . S
C1175 C1172 1.511 . S
C1175 H1189 0.961 . S
C1175 H1190 0.961 . S
C1175 H1191 0.961 . S
C1176 C1177 1.370 . S
C1176 C1178 1.363 . S
C1176 H1192 0.931 . S
C1177 C1176 1.370 . S
C1177 C1181 1.408 . S
C1178 C1176 1.363 . S
C1178 C1179 1.370 . S
C1178 C1182 1.524 . S
C1179 C1171 1.503 . S
C1179 C1178 1.370 . S
C1179 C1180 1.403 . S
C1180 C1179 1.403 . S
C1180 C1181 1.404 . S
C1180 C1183 1.539 . S
C1181 C1177 1.408 . S
C1181 C1180 1.404 . S
C1181 H1193 0.930 . S
C1182 C1178 1.524 . S
C1182 H1194 0.956 . S
C1182 H1195 0.961 . S
C1182 H1196 0.961 . S
C1183 C1180 1.539 . S
C1183 H1197 0.958 . S
C1183 H1198 0.961 1_554 S
C1183 H1199 0.960 1_554 S
H1184 C1168 0.931 . S
H1185 C1173 0.929 . S
H1186 C1174 0.960 . S
H1187 C1174 0.962 . S
H1188 C1174 0.960 . S
H1189 C1175 0.961 . S
H1190 C1175 0.961 . S
H1191 C1175 0.961 . S
H1192 C1176 0.931 . S
H1193 C1181 0.930 . S
H1194 C1182 0.956 . S
H1195 C1182 0.961 . S
H1196 C1182 0.961 . S
H1197 C1183 0.958 . S
H1198 C1183 0.961 1_556 S
H1199 C1183 0.960 1_556 S
C1200 C1201 1.391 . S
C1200 C1202 1.394 . S
C1200 H1216 0.931 . S
C1201 C1200 1.391 . S
C1201 C1205 1.376 . S
C1202 C1200 1.394 . S
C1202 C1203 1.369 . S
C1202 C1206 1.531 . S
C1203 C1202 1.369 . S
C1203 C1204 1.410 . S
C1203 C1211 1.503 . S
C1204 C1203 1.410 . S
C1204 C1205 1.392 . S
C1204 C1207 1.511 . S
C1205 C1201 1.376 . S
C1205 C1204 1.392 . S
C1205 H1217 0.929 . S
C1206 C1202 1.531 . S
C1206 H1218 0.960 . S
C1206 H1219 0.962 . S
C1206 H1220 0.960 . S
C1207 C1204 1.511 . S
C1207 H1221 0.961 . S
C1207 H1222 0.961 . S
C1207 H1223 0.961 . S
C1208 C1209 1.370 . S
C1208 C1210 1.363 . S
C1208 H1224 0.931 . S
C1209 C1208 1.370 . S
C1209 C1213 1.408 . S
C1210 C1208 1.363 . S
C1210 C1211 1.370 . S
C1210 C1214 1.524 . S
C1211 C1203 1.503 . S
C1211 C1210 1.370 . S
C1211 C1212 1.403 . S
C1212 C1211 1.403 . S
C1212 C1213 1.404 . S
C1212 C1215 1.539 . S
C1213 C1209 1.408 . S
C1213 C1212 1.404 . S
C1213 H1225 0.930 . S
C1214 C1210 1.524 . S
C1214 H1226 0.956 . S
C1214 H1227 0.961 . S
C1214 H1228 0.961 . S
C1215 C1212 1.539 . S
C1215 H1229 0.958 . S
C1215 H1230 0.961 . S
C1215 H1231 0.960 . S
H1216 C1200 0.931 . S
H1217 C1205 0.929 . S
H1218 C1206 0.960 . S
H1219 C1206 0.962 . S
H1220 C1206 0.960 . S
H1221 C1207 0.961 . S
H1222 C1207 0.961 . S
H1223 C1207 0.961 . S
H1224 C1208 0.931 . S
H1225 C1213 0.930 . S
H1226 C1214 0.956 . S
H1227 C1214 0.961 . S
H1228 C1214 0.961 . S
H1229 C1215 0.958 . S
H1230 C1215 0.961 . S
H1231 C1215 0.960 . S
C1232 C1233 1.391 . S
C1232 C1234 1.394 . S
C1232 H1248 0.931 . S
C1233 C1232 1.391 . S
C1233 C1237 1.376 . S
C1234 C1232 1.394 . S
C1234 C1235 1.369 . S
C1234 C1238 1.531 . S
C1235 C1234 1.369 . S
C1235 C1236 1.410 . S
C1235 C1243 1.503 . S
C1236 C1235 1.410 . S
C1236 C1237 1.392 . S
C1236 C1239 1.511 . S
C1237 C1233 1.376 . S
C1237 C1236 1.392 . S
C1237 H1249 0.929 . S
C1238 C1234 1.531 . S
C1238 H1250 0.960 . S
C1238 H1251 0.962 . S
C1238 H1252 0.960 . S
C1239 C1236 1.511 . S
C1239 H1253 0.961 . S
C1239 H1254 0.961 . S
C1239 H1255 0.961 . S
C1240 C1241 1.370 . S
C1240 C1242 1.363 . S
C1240 H1256 0.931 . S
C1241 C1240 1.370 . S
C1241 C1245 1.408 . S
C1242 C1240 1.363 . S
C1242 C1243 1.370 . S
C1242 C1246 1.524 . S
C1243 C1235 1.503 . S
C1243 C1242 1.370 . S
C1243 C1244 1.403 . S
C1244 C1243 1.403 . S
C1244 C1245 1.404 . S
C1244 C1247 1.539 . S
C1245 C1241 1.408 . S
C1245 C1244 1.404 . S
C1245 H1257 0.930 . S
C1246 C1242 1.524 . S
C1246 H1258 0.956 . S
C1246 H1259 0.961 . S
C1246 H1260 0.961 . S
C1247 C1244 1.539 . S
C1247 H1261 0.958 . S
C1247 H1262 0.961 . S
C1247 H1263 0.960 . S
H1248 C1232 0.931 . S
H1249 C1237 0.929 . S
H1250 C1238 0.960 . S
H1251 C1238 0.962 . S
H1252 C1238 0.960 . S
H1253 C1239 0.961 . S
H1254 C1239 0.961 . S
H1255 C1239 0.961 . S
H1256 C1240 0.931 . S
H1257 C1245 0.930 . S
H1258 C1246 0.956 . S
H1259 C1246 0.961 . S
H1260 C1246 0.961 . S
H1261 C1247 0.958 . S
H1262 C1247 0.961 . S
H1263 C1247 0.960 . S
C1264 C1265 1.391 . S
C1264 C1266 1.394 . S
C1264 H1280 0.931 . S
C1265 C1264 1.391 . S
C1265 C1269 1.376 . S
C1266 C1264 1.394 . S
C1266 C1267 1.369 . S
C1266 C1270 1.531 . S
C1267 C1266 1.369 . S
C1267 C1268 1.410 . S
C1267 C1275 1.503 . S
C1268 C1267 1.410 . S
C1268 C1269 1.392 . S
C1268 C1271 1.511 . S
C1269 C1265 1.376 . S
C1269 C1268 1.392 . S
C1269 H1281 0.929 . S
C1270 C1266 1.531 . S
C1270 H1282 0.960 . S
C1270 H1283 0.962 . S
C1270 H1284 0.960 . S
C1271 C1268 1.511 . S
C1271 H1285 0.961 . S
C1271 H1286 0.961 1_455 S
C1271 H1287 0.961 . S
C1272 C1273 1.370 . S
C1272 C1274 1.363 . S
C1272 H1288 0.931 . S
C1273 C1272 1.370 . S
C1273 C1277 1.408 . S
C1274 C1272 1.363 . S
C1274 C1275 1.370 1_655 S
C1274 C1278 1.524 . S
C1275 C1267 1.503 . S
C1275 C1274 1.370 1_455 S
C1275 C1276 1.403 . S
C1276 C1275 1.403 . S
C1276 C1277 1.404 1_455 S
C1276 C1279 1.539 . S
C1277 C1273 1.408 . S
C1277 C1276 1.404 1_655 S
C1277 H1289 0.930 . S
C1278 C1274 1.524 . S
C1278 H1290 0.956 . S
C1278 H1291 0.961 . S
C1278 H1292 0.961 . S
C1279 C1276 1.539 . S
C1279 H1293 0.958 . S
C1279 H1294 0.961 . S
C1279 H1295 0.960 . S
H1280 C1264 0.931 . S
H1281 C1269 0.929 . S
H1282 C1270 0.960 . S
H1283 C1270 0.962 . S
H1284 C1270 0.960 . S
H1285 C1271 0.961 . S
H1286 C1271 0.961 1_655 S
H1287 C1271 0.961 . S
H1288 C1272 0.931 . S
H1289 C1277 0.930 . S
H1290 C1278 0.956 . S
H1291 C1278 0.961 . S
H1292 C1278 0.961 . S
H1293 C1279 0.958 . S
H1294 C1279 0.961 . S
H1295 C1279 0.960 . S
C1296 C1297 1.391 . S
C1296 C1298 1.394 . S
C1296 H1312 0.931 . S
C1297 C1296 1.391 . S
C1297 C1301 1.376 . S
C1298 C1296 1.394 . S
C1298 C1299 1.369 . S
C1298 C1302 1.531 . S
C1299 C1298 1.369 . S
C1299 C1300 1.410 . S
C1299 C1307 1.503 . S
C1300 C1299 1.410 . S
C1300 C1301 1.392 . S
C1300 C1303 1.511 . S
C1301 C1297 1.376 . S
C1301 C1300 1.392 . S
C1301 H1313 0.929 . S
C1302 C1298 1.531 . S
C1302 H1314 0.960 . S
C1302 H1315 0.962 . S
C1302 H1316 0.960 . S
C1303 C1300 1.511 . S
C1303 H1317 0.961 . S
C1303 H1318 0.961 . S
C1303 H1319 0.961 . S
C1304 C1305 1.370 . S
C1304 C1306 1.363 . S
C1304 H1320 0.931 . S
C1305 C1304 1.370 . S
C1305 C1309 1.408 . S
C1306 C1304 1.363 . S
C1306 C1307 1.370 . S
C1306 C1310 1.524 . S
C1307 C1299 1.503 . S
C1307 C1306 1.370 . S
C1307 C1308 1.403 . S
C1308 C1307 1.403 . S
C1308 C1309 1.404 . S
C1308 C1311 1.539 . S
C1309 C1305 1.408 . S
C1309 C1308 1.404 . S
C1309 H1321 0.930 . S
C1310 C1306 1.524 . S
C1310 H1322 0.956 . S
C1310 H1323 0.961 . S
C1310 H1324 0.961 . S
C1311 C1308 1.539 . S
C1311 H1325 0.958 . S
C1311 H1326 0.961 . S
C1311 H1327 0.960 . S
H1312 C1296 0.931 . S
H1313 C1301 0.929 . S
H1314 C1302 0.960 . S
H1315 C1302 0.962 . S
H1316 C1302 0.960 . S
H1317 C1303 0.961 . S
H1318 C1303 0.961 . S
H1319 C1303 0.961 . S
H1320 C1304 0.931 . S
H1321 C1309 0.930 . S
H1322 C1310 0.956 . S
H1323 C1310 0.961 . S
H1324 C1310 0.961 . S
H1325 C1311 0.958 . S
H1326 C1311 0.961 . S
H1327 C1311 0.960 . S
C1328 C1329 1.391 . S
C1328 C1330 1.394 . S
C1328 H1344 0.931 . S
C1329 C1328 1.391 . S
C1329 C1333 1.376 . S
C1330 C1328 1.394 . S
C1330 C1331 1.369 . S
C1330 C1334 1.531 . S
C1331 C1330 1.369 . S
C1331 C1332 1.410 . S
C1331 C1339 1.503 . S
C1332 C1331 1.410 . S
C1332 C1333 1.392 . S
C1332 C1335 1.511 . S
C1333 C1329 1.376 . S
C1333 C1332 1.392 . S
C1333 H1345 0.929 . S
C1334 C1330 1.531 . S
C1334 H1346 0.960 . S
C1334 H1347 0.962 . S
C1334 H1348 0.960 . S
C1335 C1332 1.511 . S
C1335 H1349 0.961 . S
C1335 H1350 0.961 . S
C1335 H1351 0.961 . S
C1336 C1337 1.370 . S
C1336 C1338 1.363 . S
C1336 H1352 0.931 . S
C1337 C1336 1.370 . S
C1337 C1341 1.408 . S
C1338 C1336 1.363 . S
C1338 C1339 1.370 . S
C1338 C1342 1.524 . S
C1339 C1331 1.503 . S
C1339 C1338 1.370 . S
C1339 C1340 1.403 . S
C1340 C1339 1.403 . S
C1340 C1341 1.404 . S
C1340 C1343 1.539 . S
C1341 C1337 1.408 . S
C1341 C1340 1.404 . S
C1341 H1353 0.930 . S
C1342 C1338 1.524 . S
C1342 H1354 0.956 . S
C1342 H1355 0.961 . S
C1342 H1356 0.961 . S
C1343 C1340 1.539 . S
C1343 H1357 0.958 . S
C1343 H1358 0.961 . S
C1343 H1359 0.960 . S
H1344 C1328 0.931 . S
H1345 C1333 0.929 . S
H1346 C1334 0.960 . S
H1347 C1334 0.962 . S
H1348 C1334 0.960 . S
H1349 C1335 0.961 . S
H1350 C1335 0.961 . S
H1351 C1335 0.961 . S
H1352 C1336 0.931 . S
H1353 C1341 0.930 . S
H1354 C1342 0.956 . S
H1355 C1342 0.961 . S
H1356 C1342 0.961 . S
H1357 C1343 0.958 . S
H1358 C1343 0.961 . S
H1359 C1343 0.960 . S
C1360 C1361 1.391 . S
C1360 C1362 1.394 . S
C1360 H1376 0.931 . S
C1361 C1360 1.391 . S
C1361 C1365 1.376 . S
C1362 C1360 1.394 . S
C1362 C1363 1.369 . S
C1362 C1366 1.531 . S
C1363 C1362 1.369 . S
C1363 C1364 1.410 . S
C1363 C1371 1.503 . S
C1364 C1363 1.410 . S
C1364 C1365 1.392 . S
C1364 C1367 1.511 . S
C1365 C1361 1.376 . S
C1365 C1364 1.392 . S
C1365 H1377 0.929 . S
C1366 C1362 1.531 . S
C1366 H1378 0.960 . S
C1366 H1379 0.962 . S
C1366 H1380 0.960 . S
C1367 C1364 1.511 . S
C1367 H1381 0.961 . S
C1367 H1382 0.961 . S
C1367 H1383 0.961 . S
C1368 C1369 1.370 . S
C1368 C1370 1.363 . S
C1368 H1384 0.931 . S
C1369 C1368 1.370 . S
C1369 C1373 1.408 . S
C1370 C1368 1.363 . S
C1370 C1371 1.370 . S
C1370 C1374 1.524 . S
C1371 C1363 1.503 . S
C1371 C1370 1.370 . S
C1371 C1372 1.403 . S
C1372 C1371 1.403 . S
C1372 C1373 1.404 . S
C1372 C1375 1.539 . S
C1373 C1369 1.408 . S
C1373 C1372 1.404 . S
C1373 H1385 0.930 . S
C1374 C1370 1.524 . S
C1374 H1386 0.956 . S
C1374 H1387 0.961 . S
C1374 H1388 0.961 . S
C1375 C1372 1.539 . S
C1375 H1389 0.958 . S
C1375 H1390 0.961 . S
C1375 H1391 0.960 . S
H1376 C1360 0.931 . S
H1377 C1365 0.929 . S
H1378 C1366 0.960 . S
H1379 C1366 0.962 . S
H1380 C1366 0.960 . S
H1381 C1367 0.961 . S
H1382 C1367 0.961 . S
H1383 C1367 0.961 . S
H1384 C1368 0.931 . S
H1385 C1373 0.930 . S
H1386 C1374 0.956 . S
H1387 C1374 0.961 . S
H1388 C1374 0.961 . S
H1389 C1375 0.958 . S
H1390 C1375 0.961 . S
H1391 C1375 0.960 . S
C1392 C1393 1.391 1_556 S
C1392 C1394 1.394 . S
C1392 H1408 0.931 . S
C1393 C1392 1.391 1_554 S
C1393 C1397 1.375 1_554 S
C1394 C1392 1.394 . S
C1394 C1395 1.369 . S
C1394 C1398 1.531 . S
C1395 C1394 1.369 . S
C1395 C1396 1.410 . S
C1395 C1403 1.503 . S
C1396 C1395 1.410 . S
C1396 C1397 1.392 . S
C1396 C1399 1.511 . S
C1397 C1393 1.375 1_556 S
C1397 C1396 1.392 . S
C1397 H1409 0.929 . S
C1398 C1394 1.531 . S
C1398 H1410 0.960 . S
C1398 H1411 0.962 . S
C1398 H1412 0.960 . S
C1399 C1396 1.511 . S
C1399 H1413 0.961 . S
C1399 H1414 0.961 . S
C1399 H1415 0.961 . S
C1400 C1401 1.370 . S
C1400 C1402 1.363 . S
C1400 H1416 0.931 . S
C1401 C1400 1.370 . S
C1401 C1405 1.408 . S
C1402 C1400 1.363 . S
C1402 C1403 1.370 . S
C1402 C1406 1.524 . S
C1403 C1395 1.503 . S
C1403 C1402 1.370 . S
C1403 C1404 1.403 . S
C1404 C1403 1.403 . S
C1404 C1405 1.404 . S
C1404 C1407 1.539 . S
C1405 C1401 1.408 . S
C1405 C1404 1.404 . S
C1405 H1417 0.930 . S
C1406 C1402 1.524 . S
C1406 H1418 0.956 . S
C1406 H1419 0.961 . S
C1406 H1420 0.961 . S
C1407 C1404 1.539 . S
C1407 H1421 0.958 . S
C1407 H1422 0.961 . S
C1407 H1423 0.960 . S
H1408 C1392 0.931 . S
H1409 C1397 0.929 . S
H1410 C1398 0.960 . S
H1411 C1398 0.962 . S
H1412 C1398 0.960 . S
H1413 C1399 0.961 . S
H1414 C1399 0.961 . S
H1415 C1399 0.961 . S
H1416 C1400 0.931 . S
H1417 C1405 0.930 . S
H1418 C1406 0.956 . S
H1419 C1406 0.961 . S
H1420 C1406 0.961 . S
H1421 C1407 0.958 . S
H1422 C1407 0.961 . S
H1423 C1407 0.960 . S
C1424 C1425 1.391 . S
C1424 C1426 1.394 . S
C1424 H1440 0.931 . S
C1425 C1424 1.391 . S
C1425 C1429 1.376 . S
C1426 C1424 1.394 . S
C1426 C1427 1.369 . S
C1426 C1430 1.531 . S
C1427 C1426 1.369 . S
C1427 C1428 1.410 . S
C1427 C1435 1.503 . S
C1428 C1427 1.410 . S
C1428 C1429 1.392 . S
C1428 C1431 1.511 . S
C1429 C1425 1.376 . S
C1429 C1428 1.392 . S
C1429 H1441 0.929 . S
C1430 C1426 1.531 . S
C1430 H1442 0.960 . S
C1430 H1443 0.962 . S
C1430 H1444 0.960 . S
C1431 C1428 1.511 . S
C1431 H1445 0.961 . S
C1431 H1446 0.961 . S
C1431 H1447 0.961 . S
C1432 C1433 1.370 . S
C1432 C1434 1.363 . S
C1432 H1448 0.931 . S
C1433 C1432 1.370 . S
C1433 C1437 1.408 . S
C1434 C1432 1.363 . S
C1434 C1435 1.370 . S
C1434 C1438 1.524 . S
C1435 C1427 1.503 . S
C1435 C1434 1.370 . S
C1435 C1436 1.403 . S
C1436 C1435 1.403 . S
C1436 C1437 1.404 . S
C1436 C1439 1.539 . S
C1437 C1433 1.408 . S
C1437 C1436 1.404 . S
C1437 H1449 0.930 . S
C1438 C1434 1.524 . S
C1438 H1450 0.956 . S
C1438 H1451 0.961 . S
C1438 H1452 0.961 . S
C1439 C1436 1.539 . S
C1439 H1453 0.958 . S
C1439 H1454 0.961 . S
C1439 H1455 0.960 . S
H1440 C1424 0.931 . S
H1441 C1429 0.929 . S
H1442 C1430 0.960 . S
H1443 C1430 0.962 . S
H1444 C1430 0.960 . S
H1445 C1431 0.961 . S
H1446 C1431 0.961 . S
H1447 C1431 0.961 . S
H1448 C1432 0.931 . S
H1449 C1437 0.930 . S
H1450 C1438 0.956 . S
H1451 C1438 0.961 . S
H1452 C1438 0.961 . S
H1453 C1439 0.958 . S
H1454 C1439 0.961 . S
H1455 C1439 0.960 . S
C1456 C1457 1.391 . S
C1456 C1458 1.394 . S
C1456 H1472 0.931 . S
C1457 C1456 1.391 . S
C1457 C1461 1.376 . S
C1458 C1456 1.394 . S
C1458 C1459 1.369 . S
C1458 C1462 1.531 . S
C1459 C1458 1.369 . S
C1459 C1460 1.400 1_655 S
C1459 C1467 1.503 1_655 S
C1460 C1459 1.400 1_455 S
C1460 C1461 1.354 1_455 S
C1460 C1463 1.559 . S
C1461 C1457 1.376 . S
C1461 C1460 1.354 1_655 S
C1461 H1473 0.929 . S
C1462 C1458 1.531 . S
C1462 H1474 0.960 . S
C1462 H1475 0.962 . S
C1462 H1476 0.960 . S
C1463 C1460 1.559 . S
C1463 H1477 0.961 . S
C1463 H1478 0.961 . S
C1463 H1479 0.961 . S
C1464 C1465 1.370 . S
C1464 C1466 1.363 . S
C1464 H1480 0.931 . S
C1465 C1464 1.370 . S
C1465 C1469 1.408 . S
C1466 C1464 1.363 . S
C1466 C1467 1.370 . S
C1466 C1470 1.524 1_455 S
C1467 C1459 1.503 1_455 S
C1467 C1466 1.370 . S
C1467 C1468 1.403 . S
C1468 C1467 1.403 . S
C1468 C1469 1.404 . S
C1468 C1471 1.539 . S
C1469 C1465 1.408 . S
C1469 C1468 1.404 . S
C1469 H1481 0.930 . S
C1470 C1466 1.524 1_655 S
C1470 H1482 0.956 . S
C1470 H1483 0.961 . S
C1470 H1484 0.961 1_655 S
C1471 C1468 1.539 . S
C1471 H1485 0.958 . S
C1471 H1486 0.961 . S
C1471 H1487 0.960 . S
H1472 C1456 0.931 . S
H1473 C1461 0.929 . S
H1474 C1462 0.960 . S
H1475 C1462 0.962 . S
H1476 C1462 0.960 . S
H1477 C1463 0.961 . S
H1478 C1463 0.961 . S
H1479 C1463 0.961 . S
H1480 C1464 0.931 . S
H1481 C1469 0.930 . S
H1482 C1470 0.956 . S
H1483 C1470 0.961 . S
H1484 C1470 0.961 1_455 S
H1485 C1471 0.958 . S
H1486 C1471 0.961 . S
H1487 C1471 0.960 . S
C1488 C1489 1.391 . S
C1488 C1490 1.394 . S
C1488 H1504 0.931 . S
C1489 C1488 1.391 . S
C1489 C1493 1.376 . S
C1490 C1488 1.394 . S
C1490 C1491 1.369 . S
C1490 C1494 1.531 . S
C1491 C1490 1.369 . S
C1491 C1492 1.410 . S
C1491 C1499 1.503 . S
C1492 C1491 1.410 . S
C1492 C1493 1.392 . S
C1492 C1495 1.511 . S
C1493 C1489 1.376 . S
C1493 C1492 1.392 . S
C1493 H1505 0.929 . S
C1494 C1490 1.531 . S
C1494 H1506 0.960 . S
C1494 H1507 0.962 . S
C1494 H1508 0.960 . S
C1495 C1492 1.511 . S
C1495 H1509 0.961 . S
C1495 H1510 0.961 . S
C1495 H1511 0.961 . S
C1496 C1497 1.370 . S
C1496 C1498 1.363 . S
C1496 H1512 0.931 . S
C1497 C1496 1.370 . S
C1497 C1501 1.408 . S
C1498 C1496 1.363 . S
C1498 C1499 1.370 . S
C1498 C1502 1.524 . S
C1499 C1491 1.503 . S
C1499 C1498 1.370 . S
C1499 C1500 1.403 . S
C1500 C1499 1.403 . S
C1500 C1501 1.404 . S
C1500 C1503 1.539 . S
C1501 C1497 1.408 . S
C1501 C1500 1.404 . S
C1501 H1513 0.930 . S
C1502 C1498 1.524 . S
C1502 H1514 0.956 . S
C1502 H1515 0.961 . S
C1502 H1516 0.961 . S
C1503 C1500 1.539 . S
C1503 H1517 0.958 . S
C1503 H1518 0.961 . S
C1503 H1519 0.960 . S
H1504 C1488 0.931 . S
H1505 C1493 0.929 . S
H1506 C1494 0.960 . S
H1507 C1494 0.962 . S
H1508 C1494 0.960 . S
H1509 C1495 0.961 . S
H1510 C1495 0.961 . S
H1511 C1495 0.961 . S
H1512 C1496 0.931 . S
H1513 C1501 0.930 . S
H1514 C1502 0.956 . S
H1515 C1502 0.961 . S
H1516 C1502 0.961 . S
H1517 C1503 0.958 . S
H1518 C1503 0.961 . S
H1519 C1503 0.960 . S
C1520 C1521 1.391 . S
C1520 C1522 1.394 . S
C1520 H1536 0.931 . S
C1521 C1520 1.391 . S
C1521 C1525 1.376 . S
C1522 C1520 1.394 . S
C1522 C1523 1.369 1_455 S
C1522 C1526 1.531 . S
C1523 C1522 1.369 1_655 S
C1523 C1524 1.410 . S
C1523 C1531 1.503 . S
C1524 C1523 1.410 . S
C1524 C1525 1.392 1_655 S
C1524 C1527 1.511 . S
C1525 C1521 1.376 . S
C1525 C1524 1.392 1_455 S
C1525 H1537 0.929 . S
C1526 C1522 1.531 . S
C1526 H1538 0.960 . S
C1526 H1539 0.962 . S
C1526 H1540 0.960 . S
C1527 C1524 1.511 . S
C1527 H1541 0.961 . S
C1527 H1542 0.961 . S
C1527 H1543 0.961 . S
C1528 C1529 1.370 . S
C1528 C1530 1.363 . S
C1528 H1544 0.931 . S
C1529 C1528 1.370 . S
C1529 C1533 1.408 . S
C1530 C1528 1.363 . S
C1530 C1531 1.370 . S
C1530 C1534 1.524 . S
C1531 C1523 1.503 . S
C1531 C1530 1.370 . S
C1531 C1532 1.403 . S
C1532 C1531 1.403 . S
C1532 C1533 1.404 . S
C1532 C1535 1.539 . S
C1533 C1529 1.408 . S
C1533 C1532 1.404 . S
C1533 H1545 0.930 . S
C1534 C1530 1.524 . S
C1534 H1546 0.956 1_655 S
C1534 H1547 0.961 . S
C1534 H1548 0.961 . S
C1535 C1532 1.539 . S
C1535 H1549 0.958 . S
C1535 H1550 0.961 . S
C1535 H1551 0.960 . S
H1536 C1520 0.931 . S
H1537 C1525 0.929 . S
H1538 C1526 0.960 . S
H1539 C1526 0.962 . S
H1540 C1526 0.960 . S
H1541 C1527 0.961 . S
H1542 C1527 0.961 . S
H1543 C1527 0.961 . S
H1544 C1528 0.931 . S
H1545 C1533 0.930 . S
H1546 C1534 0.956 1_455 S
H1547 C1534 0.961 . S
H1548 C1534 0.961 . S
H1549 C1535 0.958 . S
H1550 C1535 0.961 . S
H1551 C1535 0.960 . S
C1552 C1553 1.391 . S
C1552 C1554 1.394 . S
C1552 H1568 0.931 . S
C1553 C1552 1.391 . S
C1553 C1557 1.376 . S
C1554 C1552 1.394 . S
C1554 C1555 1.369 . S
C1554 C1558 1.531 . S
C1555 C1554 1.369 . S
C1555 C1556 1.410 . S
C1555 C1563 1.503 . S
C1556 C1555 1.410 . S
C1556 C1557 1.392 . S
C1556 C1559 1.511 . S
C1557 C1553 1.376 . S
C1557 C1556 1.392 . S
C1557 H1569 0.929 . S
C1558 C1554 1.531 . S
C1558 H1570 0.960 . S
C1558 H1571 0.962 . S
C1558 H1572 0.960 . S
C1559 C1556 1.511 . S
C1559 H1573 0.961 . S
C1559 H1574 0.961 . S
C1559 H1575 0.961 . S
C1560 C1561 1.370 . S
C1560 C1562 1.363 . S
C1560 H1576 0.931 . S
C1561 C1560 1.370 . S
C1561 C1565 1.408 . S
C1562 C1560 1.363 . S
C1562 C1563 1.370 . S
C1562 C1566 1.524 . S
C1563 C1555 1.503 . S
C1563 C1562 1.370 . S
C1563 C1564 1.403 . S
C1564 C1563 1.403 . S
C1564 C1565 1.404 . S
C1564 C1567 1.539 . S
C1565 C1561 1.408 . S
C1565 C1564 1.404 . S
C1565 H1577 0.930 . S
C1566 C1562 1.524 . S
C1566 H1578 0.956 . S
C1566 H1579 0.961 . S
C1566 H1580 0.961 . S
C1567 C1564 1.539 . S
C1567 H1581 0.958 . S
C1567 H1582 0.961 . S
C1567 H1583 0.960 . S
H1568 C1552 0.931 . S
H1569 C1557 0.929 . S
H1570 C1558 0.960 . S
H1571 C1558 0.962 . S
H1572 C1558 0.960 . S
H1573 C1559 0.961 . S
H1574 C1559 0.961 . S
H1575 C1559 0.961 . S
H1576 C1560 0.931 . S
H1577 C1565 0.930 . S
H1578 C1566 0.956 . S
H1579 C1566 0.961 . S
H1580 C1566 0.961 . S
H1581 C1567 0.958 . S
H1582 C1567 0.961 . S
H1583 C1567 0.960 . S
C1584 C1585 1.391 . S
C1584 C1586 1.394 . S
C1584 H1600 0.931 . S
C1585 C1584 1.391 . S
C1585 C1589 1.376 . S
C1586 C1584 1.394 . S
C1586 C1587 1.369 . S
C1586 C1590 1.531 . S
C1587 C1586 1.369 . S
C1587 C1588 1.410 . S
C1587 C1595 1.503 . S
C1588 C1587 1.410 . S
C1588 C1589 1.392 . S
C1588 C1591 1.511 . S
C1589 C1585 1.376 . S
C1589 C1588 1.392 . S
C1589 H1601 0.929 . S
C1590 C1586 1.531 . S
C1590 H1602 0.960 . S
C1590 H1603 0.962 . S
C1590 H1604 0.960 . S
C1591 C1588 1.511 . S
C1591 H1605 0.961 . S
C1591 H1606 0.961 . S
C1591 H1607 0.961 . S
C1592 C1593 1.370 . S
C1592 C1594 1.363 . S
C1592 H1608 0.931 . S
C1593 C1592 1.370 . S
C1593 C1597 1.408 . S
C1594 C1592 1.363 . S
C1594 C1595 1.370 . S
C1594 C1598 1.524 . S
C1595 C1587 1.503 . S
C1595 C1594 1.370 . S
C1595 C1596 1.403 . S
C1596 C1595 1.403 . S
C1596 C1597 1.404 . S
C1596 C1599 1.539 . S
C1597 C1593 1.408 . S
C1597 C1596 1.404 . S
C1597 H1609 0.930 . S
C1598 C1594 1.524 . S
C1598 H1610 0.956 . S
C1598 H1611 0.961 . S
C1598 H1612 0.961 . S
C1599 C1596 1.539 . S
C1599 H1613 0.958 . S
C1599 H1614 0.961 . S
C1599 H1615 0.960 . S
H1600 C1584 0.931 . S
H1601 C1589 0.929 . S
H1602 C1590 0.960 . S
H1603 C1590 0.962 . S
H1604 C1590 0.960 . S
H1605 C1591 0.961 . S
H1606 C1591 0.961 . S
H1607 C1591 0.961 . S
H1608 C1592 0.931 . S
H1609 C1597 0.930 . S
H1610 C1598 0.956 . S
H1611 C1598 0.961 . S
H1612 C1598 0.961 . S
H1613 C1599 0.958 . S
H1614 C1599 0.961 . S
H1615 C1599 0.960 . S
C1616 C1617 1.391 . S
C1616 C1618 1.394 . S
C1616 H1632 0.931 . S
C1617 C1616 1.391 . S
C1617 C1621 1.376 . S
C1618 C1616 1.394 . S
C1618 C1619 1.369 . S
C1618 C1622 1.531 . S
C1619 C1618 1.369 . S
C1619 C1620 1.410 . S
C1619 C1627 1.503 . S
C1620 C1619 1.410 . S
C1620 C1621 1.392 . S
C1620 C1623 1.511 . S
C1621 C1617 1.376 . S
C1621 C1620 1.392 . S
C1621 H1633 0.929 . S
C1622 C1618 1.531 . S
C1622 H1634 0.960 . S
C1622 H1635 0.962 . S
C1622 H1636 0.960 . S
C1623 C1620 1.511 . S
C1623 H1637 0.961 . S
C1623 H1638 0.961 . S
C1623 H1639 0.961 . S
C1624 C1625 1.370 . S
C1624 C1626 1.363 . S
C1624 H1640 0.931 . S
C1625 C1624 1.370 . S
C1625 C1629 1.408 . S
C1626 C1624 1.363 . S
C1626 C1627 1.370 . S
C1626 C1630 1.524 . S
C1627 C1619 1.503 . S
C1627 C1626 1.370 . S
C1627 C1628 1.403 . S
C1628 C1627 1.403 . S
C1628 C1629 1.404 . S
C1628 C1631 1.539 . S
C1629 C1625 1.408 . S
C1629 C1628 1.404 . S
C1629 H1641 0.930 . S
C1630 C1626 1.524 . S
C1630 H1642 0.956 . S
C1630 H1643 0.961 . S
C1630 H1644 0.961 . S
C1631 C1628 1.539 . S
C1631 H1645 0.958 . S
C1631 H1646 0.961 . S
C1631 H1647 0.960 . S
H1632 C1616 0.931 . S
H1633 C1621 0.929 . S
H1634 C1622 0.960 . S
H1635 C1622 0.962 . S
H1636 C1622 0.960 . S
H1637 C1623 0.961 . S
H1638 C1623 0.961 . S
H1639 C1623 0.961 . S
H1640 C1624 0.931 . S
H1641 C1629 0.930 . S
H1642 C1630 0.956 . S
H1643 C1630 0.961 . S
H1644 C1630 0.961 . S
H1645 C1631 0.958 . S
H1646 C1631 0.961 . S
H1647 C1631 0.960 . S
C1648 C1649 1.391 . S
C1648 C1650 1.394 . S
C1648 H1664 0.931 1_554 S
C1649 C1648 1.391 . S
C1649 C1653 1.376 . S
C1650 C1648 1.394 . S
C1650 C1651 1.369 . S
C1650 C1654 1.531 . S
C1651 C1650 1.369 . S
C1651 C1652 1.410 . S
C1651 C1659 1.503 . S
C1652 C1651 1.410 . S
C1652 C1653 1.392 . S
C1652 C1655 1.511 . S
C1653 C1649 1.376 . S
C1653 C1652 1.392 . S
C1653 H1665 0.929 . S
C1654 C1650 1.531 . S
C1654 H1666 0.960 . S
C1654 H1667 0.962 . S
C1654 H1668 0.960 1_554 S
C1655 C1652 1.511 . S
C1655 H1669 0.961 . S
C1655 H1670 0.961 . S
C1655 H1671 0.961 . S
C1656 C1657 1.370 . S
C1656 C1658 1.363 . S
C1656 H1672 0.931 . S
C1657 C1656 1.370 . S
C1657 C1661 1.408 . S
C1658 C1656 1.363 . S
C1658 C1659 1.370 . S
C1658 C1662 1.524 . S
C1659 C1651 1.503 . S
C1659 C1658 1.370 . S
C1659 C1660 1.403 . S
C1660 C1659 1.403 . S
C1660 C1661 1.404 . S
C1660 C1663 1.539 . S
C1661 C1657 1.408 . S
C1661 C1660 1.404 . S
C1661 H1673 0.930 . S
C1662 C1658 1.524 . S
C1662 H1674 0.956 . S
C1662 H1675 0.961 . S
C1662 H1676 0.961 . S
C1663 C1660 1.539 . S
C1663 H1677 0.958 . S
C1663 H1678 0.961 . S
C1663 H1679 0.960 . S
H1664 C1648 0.931 1_556 S
H1665 C1653 0.929 . S
H1666 C1654 0.960 . S
H1667 C1654 0.962 . S
H1668 C1654 0.960 1_556 S
H1669 C1655 0.961 . S
H1670 C1655 0.961 . S
H1671 C1655 0.961 . S
H1672 C1656 0.931 . S
H1673 C1661 0.930 . S
H1674 C1662 0.956 . S
H1675 C1662 0.961 . S
H1676 C1662 0.961 . S
H1677 C1663 0.958 . S
H1678 C1663 0.961 . S
H1679 C1663 0.960 . S
C1680 C1681 1.391 . S
C1680 C1682 1.394 . S
C1680 H1696 0.931 . S
C1681 C1680 1.391 . S
C1681 C1685 1.376 . S
C1682 C1680 1.394 . S
C1682 C1683 1.369 . S
C1682 C1686 1.531 . S
C1683 C1682 1.369 . S
C1683 C1684 1.410 . S
C1683 C1691 1.503 . S
C1684 C1683 1.410 . S
C1684 C1685 1.392 . S
C1684 C1687 1.511 . S
C1685 C1681 1.376 . S
C1685 C1684 1.392 . S
C1685 H1697 0.929 . S
C1686 C1682 1.531 . S
C1686 H1698 0.960 . S
C1686 H1699 0.962 . S
C1686 H1700 0.960 . S
C1687 C1684 1.511 . S
C1687 H1701 0.961 . S
C1687 H1702 0.961 . S
C1687 H1703 0.961 . S
C1688 C1689 1.370 . S
C1688 C1690 1.363 . S
C1688 H1704 0.931 . S
C1689 C1688 1.370 . S
C1689 C1693 1.408 . S
C1690 C1688 1.363 . S
C1690 C1691 1.370 . S
C1690 C1694 1.524 . S
C1691 C1683 1.503 . S
C1691 C1690 1.370 . S
C1691 C1692 1.403 . S
C1692 C1691 1.403 . S
C1692 C1693 1.404 . S
C1692 C1695 1.539 . S
C1693 C1689 1.408 . S
C1693 C1692 1.404 . S
C1693 H1705 0.930 . S
C1694 C1690 1.524 . S
C1694 H1706 0.956 . S
C1694 H1707 0.961 . S
C1694 H1708 0.961 . S
C1695 C1692 1.539 . S
C1695 H1709 0.958 . S
C1695 H1710 0.961 . S
C1695 H1711 0.960 . S
H1696 C1680 0.931 . S
H1697 C1685 0.929 . S
H1698 C1686 0.960 . S
H1699 C1686 0.962 . S
H1700 C1686 0.960 . S
H1701 C1687 0.961 . S
H1702 C1687 0.961 . S
H1703 C1687 0.961 . S
H1704 C1688 0.931 . S
H1705 C1693 0.930 . S
H1706 C1694 0.956 . S
H1707 C1694 0.961 . S
H1708 C1694 0.961 . S
H1709 C1695 0.958 . S
H1710 C1695 0.961 . S
H1711 C1695 0.960 . S
C1712 C1713 1.391 . S
C1712 C1714 1.394 . S
C1712 H1728 0.931 . S
C1713 C1712 1.391 . S
C1713 C1717 1.376 . S
C1714 C1712 1.394 . S
C1714 C1715 1.369 . S
C1714 C1718 1.531 . S
C1715 C1714 1.369 . S
C1715 C1716 1.410 . S
C1715 C1723 1.503 1_655 S
C1716 C1715 1.410 . S
C1716 C1717 1.392 . S
C1716 C1719 1.511 1_655 S
C1717 C1713 1.376 . S
C1717 C1716 1.392 . S
C1717 H1729 0.929 . S
C1718 C1714 1.531 . S
C1718 H1730 0.960 . S
C1718 H1731 0.962 . S
C1718 H1732 0.960 . S
C1719 C1716 1.511 1_455 S
C1719 H1733 0.961 . S
C1719 H1734 0.961 . S
C1719 H1735 0.961 . S
C1720 C1721 1.370 . S
C1720 C1722 1.363 . S
C1720 H1736 0.931 . S
C1721 C1720 1.370 . S
C1721 C1725 1.408 . S
C1722 C1720 1.363 . S
C1722 C1723 1.370 . S
C1722 C1726 1.524 1_455 S
C1723 C1715 1.503 1_455 S
C1723 C1722 1.370 . S
C1723 C1724 1.403 . S
C1724 C1723 1.403 . S
C1724 C1725 1.404 . S
C1724 C1727 1.539 . S
C1725 C1721 1.408 . S
C1725 C1724 1.404 . S
C1725 H1737 0.930 . S
C1726 C1722 1.524 1_655 S
C1726 H1738 0.956 . S
C1726 H1739 0.961 . S
C1726 H1740 0.961 . S
C1727 C1724 1.539 . S
C1727 H1741 0.958 . S
C1727 H1742 0.961 . S
C1727 H1743 0.960 . S
H1728 C1712 0.931 . S
H1729 C1717 0.929 . S
H1730 C1718 0.960 . S
H1731 C1718 0.962 . S
H1732 C1718 0.960 . S
H1733 C1719 0.961 . S
H1734 C1719 0.961 . S
H1735 C1719 0.961 . S
H1736 C1720 0.931 . S
H1737 C1725 0.930 . S
H1738 C1726 0.956 . S
H1739 C1726 0.961 . S
H1740 C1726 0.961 . S
H1741 C1727 0.958 . S
H1742 C1727 0.961 . S
H1743 C1727 0.960 . S
C1744 C1745 1.391 . S
C1744 C1746 1.394 . S
C1744 H1760 0.931 . S
C1745 C1744 1.391 . S
C1745 C1749 1.376 . S
C1746 C1744 1.394 . S
C1746 C1747 1.369 . S
C1746 C1750 1.531 . S
C1747 C1746 1.369 . S
C1747 C1748 1.410 . S
C1747 C1755 1.503 . S
C1748 C1747 1.410 . S
C1748 C1749 1.392 . S
C1748 C1751 1.511 . S
C1749 C1745 1.376 . S
C1749 C1748 1.392 . S
C1749 H1761 0.929 . S
C1750 C1746 1.531 . S
C1750 H1762 0.960 . S
C1750 H1763 0.962 . S
C1750 H1764 0.960 . S
C1751 C1748 1.511 . S
C1751 H1765 0.961 . S
C1751 H1766 0.961 . S
C1751 H1767 0.961 . S
C1752 C1753 1.370 . S
C1752 C1754 1.363 . S
C1752 H1768 0.931 . S
C1753 C1752 1.370 . S
C1753 C1757 1.408 . S
C1754 C1752 1.363 . S
C1754 C1755 1.370 . S
C1754 C1758 1.524 . S
C1755 C1747 1.503 . S
C1755 C1754 1.370 . S
C1755 C1756 1.403 . S
C1756 C1755 1.403 . S
C1756 C1757 1.404 . S
C1756 C1759 1.539 . S
C1757 C1753 1.408 . S
C1757 C1756 1.404 . S
C1757 H1769 0.930 . S
C1758 C1754 1.524 . S
C1758 H1770 0.956 . S
C1758 H1771 0.961 . S
C1758 H1772 0.961 . S
C1759 C1756 1.539 . S
C1759 H1773 0.958 . S
C1759 H1774 0.961 . S
C1759 H1775 0.960 . S
H1760 C1744 0.931 . S
H1761 C1749 0.929 . S
H1762 C1750 0.960 . S
H1763 C1750 0.962 . S
H1764 C1750 0.960 . S
H1765 C1751 0.961 . S
H1766 C1751 0.961 . S
H1767 C1751 0.961 . S
H1768 C1752 0.931 . S
H1769 C1757 0.930 . S
H1770 C1758 0.956 . S
H1771 C1758 0.961 . S
H1772 C1758 0.961 . S
H1773 C1759 0.958 . S
H1774 C1759 0.961 . S
H1775 C1759 0.960 . S
C1776 C1777 1.391 . S
C1776 C1778 1.394 . S
C1776 H1792 0.931 . S
C1777 C1776 1.391 . S
C1777 C1781 1.376 . S
C1778 C1776 1.394 . S
C1778 C1779 1.369 . S
C1778 C1782 1.531 . S
C1779 C1778 1.369 . S
C1779 C1780 1.410 . S
C1779 C1787 1.503 . S
C1780 C1779 1.410 . S
C1780 C1781 1.392 . S
C1780 C1783 1.511 . S
C1781 C1777 1.376 . S
C1781 C1780 1.392 . S
C1781 H1793 0.929 . S
C1782 C1778 1.531 . S
C1782 H1794 0.960 . S
C1782 H1795 0.962 . S
C1782 H1796 0.960 . S
C1783 C1780 1.511 . S
C1783 H1797 0.961 . S
C1783 H1798 0.961 . S
C1783 H1799 0.961 . S
C1784 C1785 1.370 . S
C1784 C1786 1.363 . S
C1784 H1800 0.931 . S
C1785 C1784 1.370 . S
C1785 C1789 1.408 . S
C1786 C1784 1.363 . S
C1786 C1787 1.370 . S
C1786 C1790 1.524 . S
C1787 C1779 1.503 . S
C1787 C1786 1.370 . S
C1787 C1788 1.403 . S
C1788 C1787 1.403 . S
C1788 C1789 1.404 . S
C1788 C1791 1.539 . S
C1789 C1785 1.408 . S
C1789 C1788 1.404 . S
C1789 H1801 0.930 . S
C1790 C1786 1.524 . S
C1790 H1802 0.956 . S
C1790 H1803 0.961 . S
C1790 H1804 0.961 . S
C1791 C1788 1.539 . S
C1791 H1805 0.958 . S
C1791 H1806 0.961 . S
C1791 H1807 0.960 . S
H1792 C1776 0.931 . S
H1793 C1781 0.929 . S
H1794 C1782 0.960 . S
H1795 C1782 0.962 . S
H1796 C1782 0.960 . S
H1797 C1783 0.961 . S
H1798 C1783 0.961 . S
H1799 C1783 0.961 . S
H1800 C1784 0.931 . S
H1801 C1789 0.930 . S
H1802 C1790 0.956 . S
H1803 C1790 0.961 . S
H1804 C1790 0.961 . S
H1805 C1791 0.958 . S
H1806 C1791 0.961 . S
H1807 C1791 0.960 . S
C1808 C1809 1.391 . S
C1808 C1810 1.394 . S
C1808 H1824 0.931 . S
C1809 C1808 1.391 . S
C1809 C1813 1.376 . S
C1810 C1808 1.394 . S
C1810 C1811 1.369 . S
C1810 C1814 1.531 . S
C1811 C1810 1.369 . S
C1811 C1812 1.410 . S
C1811 C1819 1.503 . S
C1812 C1811 1.410 . S
C1812 C1813 1.392 . S
C1812 C1815 1.511 . S
C1813 C1809 1.376 . S
C1813 C1812 1.392 . S
C1813 H1825 0.929 . S
C1814 C1810 1.531 . S
C1814 H1826 0.960 . S
C1814 H1827 0.962 . S
C1814 H1828 0.960 . S
C1815 C1812 1.511 . S
C1815 H1829 0.961 . S
C1815 H1830 0.961 . S
C1815 H1831 0.961 . S
C1816 C1817 1.370 . S
C1816 C1818 1.363 . S
C1816 H1832 0.931 . S
C1817 C1816 1.370 . S
C1817 C1821 1.408 . S
C1818 C1816 1.363 . S
C1818 C1819 1.370 . S
C1818 C1822 1.524 . S
C1819 C1811 1.503 . S
C1819 C1818 1.370 . S
C1819 C1820 1.403 . S
C1820 C1819 1.403 . S
C1820 C1821 1.404 . S
C1820 C1823 1.539 . S
C1821 C1817 1.408 . S
C1821 C1820 1.404 . S
C1821 H1833 0.930 . S
C1822 C1818 1.524 . S
C1822 H1834 0.956 . S
C1822 H1835 0.961 . S
C1822 H1836 0.961 . S
C1823 C1820 1.539 . S
C1823 H1837 0.958 . S
C1823 H1838 0.961 . S
C1823 H1839 0.960 . S
H1824 C1808 0.931 . S
H1825 C1813 0.929 . S
H1826 C1814 0.960 . S
H1827 C1814 0.962 . S
H1828 C1814 0.960 . S
H1829 C1815 0.961 . S
H1830 C1815 0.961 . S
H1831 C1815 0.961 . S
H1832 C1816 0.931 . S
H1833 C1821 0.930 . S
H1834 C1822 0.956 . S
H1835 C1822 0.961 . S
H1836 C1822 0.961 . S
H1837 C1823 0.958 . S
H1838 C1823 0.961 . S
H1839 C1823 0.960 . S
C1840 C1841 1.391 . S
C1840 C1842 1.394 . S
C1840 H1856 0.931 . S
C1841 C1840 1.391 . S
C1841 C1845 1.376 . S
C1842 C1840 1.394 . S
C1842 C1843 1.369 1_455 S
C1842 C1846 1.531 . S
C1843 C1842 1.369 1_655 S
C1843 C1844 1.410 . S
C1843 C1851 1.503 . S
C1844 C1843 1.410 . S
C1844 C1845 1.392 1_655 S
C1844 C1847 1.511 . S
C1845 C1841 1.376 . S
C1845 C1844 1.392 1_455 S
C1845 H1857 0.929 . S
C1846 C1842 1.531 . S
C1846 H1858 0.960 1_455 S
C1846 H1859 0.962 . S
C1846 H1860 0.960 . S
C1847 C1844 1.511 . S
C1847 H1861 0.961 . S
C1847 H1862 0.961 . S
C1847 H1863 0.961 . S
C1848 C1849 1.370 . S
C1848 C1850 1.363 . S
C1848 H1864 0.931 1_554 S
C1849 C1848 1.370 . S
C1849 C1853 1.408 . S
C1850 C1848 1.363 . S
C1850 C1851 1.370 . S
C1850 C1854 1.524 1_655 S
C1851 C1843 1.503 . S
C1851 C1850 1.370 . S
C1851 C1852 1.403 . S
C1852 C1851 1.403 . S
C1852 C1853 1.404 . S
C1852 C1855 1.539 . S
C1853 C1849 1.408 . S
C1853 C1852 1.404 . S
C1853 H1865 0.930 . S
C1854 C1850 1.524 1_455 S
C1854 H1866 0.956 . S
C1854 H1867 0.961 . S
C1854 H1868 0.961 . S
C1855 C1852 1.539 . S
C1855 H1869 0.958 . S
C1855 H1870 0.961 . S
C1855 H1871 0.960 . S
H1856 C1840 0.931 . S
H1857 C1845 0.929 . S
H1858 C1846 0.960 1_655 S
H1859 C1846 0.962 . S
H1860 C1846 0.960 . S
H1861 C1847 0.961 . S
H1862 C1847 0.961 . S
H1863 C1847 0.961 . S
H1864 C1848 0.931 1_556 S
H1865 C1853 0.930 . S
H1866 C1854 0.956 . S
H1867 C1854 0.961 . S
H1868 C1854 0.961 . S
H1869 C1855 0.958 . S
H1870 C1855 0.961 . S
H1871 C1855 0.960 . S
C1872 C1873 1.391 . S
C1872 C1874 1.394 . S
C1872 H1888 0.931 . S
C1873 C1872 1.391 . S
C1873 C1877 1.376 . S
C1874 C1872 1.394 . S
C1874 C1875 1.369 . S
C1874 C1878 1.531 . S
C1875 C1874 1.369 . S
C1875 C1876 1.410 . S
C1875 C1883 1.503 . S
C1876 C1875 1.410 . S
C1876 C1877 1.392 . S
C1876 C1879 1.511 . S
C1877 C1873 1.376 . S
C1877 C1876 1.392 . S
C1877 H1889 0.929 . S
C1878 C1874 1.531 . S
C1878 H1890 0.960 . S
C1878 H1891 0.962 . S
C1878 H1892 0.960 . S
C1879 C1876 1.511 . S
C1879 H1893 0.961 . S
C1879 H1894 0.961 . S
C1879 H1895 0.961 . S
C1880 C1881 1.370 . S
C1880 C1882 1.363 . S
C1880 H1896 0.931 . S
C1881 C1880 1.370 . S
C1881 C1885 1.408 . S
C1882 C1880 1.363 . S
C1882 C1883 1.370 . S
C1882 C1886 1.524 . S
C1883 C1875 1.503 . S
C1883 C1882 1.370 . S
C1883 C1884 1.403 . S
C1884 C1883 1.403 . S
C1884 C1885 1.404 . S
C1884 C1887 1.539 . S
C1885 C1881 1.408 . S
C1885 C1884 1.404 . S
C1885 H1897 0.930 . S
C1886 C1882 1.524 . S
C1886 H1898 0.956 . S
C1886 H1899 0.961 . S
C1886 H1900 0.961 . S
C1887 C1884 1.539 . S
C1887 H1901 0.958 . S
C1887 H1902 0.961 . S
C1887 H1903 0.960 . S
H1888 C1872 0.931 . S
H1889 C1877 0.929 . S
H1890 C1878 0.960 . S
H1891 C1878 0.962 . S
H1892 C1878 0.960 . S
H1893 C1879 0.961 . S
H1894 C1879 0.961 . S
H1895 C1879 0.961 . S
H1896 C1880 0.931 . S
H1897 C1885 0.930 . S
H1898 C1886 0.956 . S
H1899 C1886 0.961 . S
H1900 C1886 0.961 . S
H1901 C1887 0.958 . S
H1902 C1887 0.961 . S
H1903 C1887 0.960 . S
C1904 C1905 1.391 . S
C1904 C1906 1.394 . S
C1904 H1920 0.931 . S
C1905 C1904 1.391 . S
C1905 C1909 1.376 . S
C1906 C1904 1.394 . S
C1906 C1907 1.369 . S
C1906 C1910 1.531 1_655 S
C1907 C1906 1.369 . S
C1907 C1908 1.410 . S
C1907 C1915 1.503 1_655 S
C1908 C1907 1.410 . S
C1908 C1909 1.392 . S
C1908 C1911 1.511 . S
C1909 C1905 1.376 . S
C1909 C1908 1.392 . S
C1909 H1921 0.929 . S
C1910 C1906 1.531 1_455 S
C1910 H1922 0.960 . S
C1910 H1923 0.962 . S
C1910 H1924 0.960 . S
C1911 C1908 1.511 . S
C1911 H1925 0.961 . S
C1911 H1926 0.961 . S
C1911 H1927 0.961 . S
C1912 C1913 1.370 . S
C1912 C1914 1.363 . S
C1912 H1928 0.931 . S
C1913 C1912 1.370 . S
C1913 C1917 1.408 . S
C1914 C1912 1.363 . S
C1914 C1915 1.370 . S
C1914 C1918 1.524 . S
C1915 C1907 1.503 1_455 S
C1915 C1914 1.370 . S
C1915 C1916 1.403 . S
C1916 C1915 1.403 . S
C1916 C1917 1.404 . S
C1916 C1919 1.539 1_455 S
C1917 C1913 1.408 . S
C1917 C1916 1.404 . S
C1917 H1929 0.930 . S
C1918 C1914 1.524 . S
C1918 H1930 0.956 . S
C1918 H1931 0.961 . S
C1918 H1932 0.961 . S
C1919 C1916 1.539 1_655 S
C1919 H1933 0.958 . S
C1919 H1934 0.961 . S
C1919 H1935 0.960 . S
H1920 C1904 0.931 . S
H1921 C1909 0.929 . S
H1922 C1910 0.960 . S
H1923 C1910 0.962 . S
H1924 C1910 0.960 . S
H1925 C1911 0.961 . S
H1926 C1911 0.961 . S
H1927 C1911 0.961 . S
H1928 C1912 0.931 . S
H1929 C1917 0.930 . S
H1930 C1918 0.956 . S
H1931 C1918 0.961 . S
H1932 C1918 0.961 . S
H1933 C1919 0.958 . S
H1934 C1919 0.961 . S
H1935 C1919 0.960 . S
C1936 C1937 1.391 . S
C1936 C1938 1.394 . S
C1936 H1952 0.931 . S
C1937 C1936 1.391 . S
C1937 C1941 1.376 . S
C1938 C1936 1.394 . S
C1938 C1939 1.369 . S
C1938 C1942 1.531 . S
C1939 C1938 1.369 . S
C1939 C1940 1.410 . S
C1939 C1947 1.503 . S
C1940 C1939 1.410 . S
C1940 C1941 1.392 . S
C1940 C1943 1.511 . S
C1941 C1937 1.376 . S
C1941 C1940 1.392 . S
C1941 H1953 0.929 . S
C1942 C1938 1.531 . S
C1942 H1954 0.960 . S
C1942 H1955 0.962 . S
C1942 H1956 0.960 . S
C1943 C1940 1.511 . S
C1943 H1957 0.961 . S
C1943 H1958 0.961 . S
C1943 H1959 0.961 . S
C1944 C1945 1.370 . S
C1944 C1946 1.363 . S
C1944 H1960 0.931 . S
C1945 C1944 1.370 . S
C1945 C1949 1.408 . S
C1946 C1944 1.363 . S
C1946 C1947 1.370 . S
C1946 C1950 1.524 . S
C1947 C1939 1.503 . S
C1947 C1946 1.370 . S
C1947 C1948 1.403 . S
C1948 C1947 1.403 . S
C1948 C1949 1.404 . S
C1948 C1951 1.539 . S
C1949 C1945 1.408 . S
C1949 C1948 1.404 . S
C1949 H1961 0.930 . S
C1950 C1946 1.524 . S
C1950 H1962 0.956 . S
C1950 H1963 0.961 . S
C1950 H1964 0.961 . S
C1951 C1948 1.539 . S
C1951 H1965 0.958 . S
C1951 H1966 0.961 . S
C1951 H1967 0.960 . S
H1952 C1936 0.931 . S
H1953 C1941 0.929 . S
H1954 C1942 0.960 . S
H1955 C1942 0.962 . S
H1956 C1942 0.960 . S
H1957 C1943 0.961 . S
H1958 C1943 0.961 . S
H1959 C1943 0.961 . S
H1960 C1944 0.931 . S
H1961 C1949 0.930 . S
H1962 C1950 0.956 . S
H1963 C1950 0.961 . S
H1964 C1950 0.961 . S
H1965 C1951 0.958 . S
H1966 C1951 0.961 . S
H1967 C1951 0.960 . S
C1968 C1969 1.391 . S
C1968 C1970 1.394 . S
C1968 H1984 0.931 1_556 S
C1969 C1968 1.391 . S
C1969 C1973 1.376 . S
C1970 C1968 1.394 . S
C1970 C1971 1.369 . S
C1970 C1974 1.531 . S
C1971 C1970 1.369 . S
C1971 C1972 1.410 . S
C1971 C1979 1.503 . S
C1972 C1971 1.410 . S
C1972 C1973 1.392 . S
C1972 C1975 1.511 . S
C1973 C1969 1.376 . S
C1973 C1972 1.392 . S
C1973 H1985 0.929 . S
C1974 C1970 1.531 . S
C1974 H1986 0.960 . S
C1974 H1987 0.962 . S
C1974 H1988 0.960 . S
C1975 C1972 1.511 . S
C1975 H1989 0.961 . S
C1975 H1990 0.961 . S
C1975 H1991 0.961 . S
C1976 C1977 1.370 . S
C1976 C1978 1.363 . S
C1976 H1992 0.931 . S
C1977 C1976 1.370 . S
C1977 C1981 1.408 . S
C1978 C1976 1.363 . S
C1978 C1979 1.370 . S
C1978 C1982 1.524 . S
C1979 C1971 1.503 . S
C1979 C1978 1.370 . S
C1979 C1980 1.403 . S
C1980 C1979 1.403 . S
C1980 C1981 1.404 . S
C1980 C1983 1.539 . S
C1981 C1977 1.408 . S
C1981 C1980 1.404 . S
C1981 H1993 0.930 . S
C1982 C1978 1.524 . S
C1982 H1994 0.956 . S
C1982 H1995 0.961 . S
C1982 H1996 0.961 . S
C1983 C1980 1.539 . S
C1983 H1997 0.958 . S
C1983 H1998 0.961 . S
C1983 H1999 0.960 . S
H1984 C1968 0.931 1_554 S
H1985 C1973 0.929 . S
H1986 C1974 0.960 . S
H1987 C1974 0.962 . S
H1988 C1974 0.960 . S
H1989 C1975 0.961 . S
H1990 C1975 0.961 . S
H1991 C1975 0.961 . S
H1992 C1976 0.931 . S
H1993 C1981 0.930 . S
H1994 C1982 0.956 . S
H1995 C1982 0.961 . S
H1996 C1982 0.961 . S
H1997 C1983 0.958 . S
H1998 C1983 0.961 . S
H1999 C1983 0.960 . S
C2000 C2001 1.391 . S
C2000 C2002 1.394 . S
C2000 H2016 0.931 . S
C2001 C2000 1.391 . S
C2001 C2005 1.376 . S
C2002 C2000 1.394 . S
C2002 C2003 1.369 . S
C2002 C2006 1.531 . S
C2003 C2002 1.369 . S
C2003 C2004 1.410 . S
C2003 C2011 1.503 . S
C2004 C2003 1.410 . S
C2004 C2005 1.392 . S
C2004 C2007 1.511 . S
C2005 C2001 1.376 . S
C2005 C2004 1.392 . S
C2005 H2017 0.929 . S
C2006 C2002 1.531 . S
C2006 H2018 0.960 . S
C2006 H2019 0.962 . S
C2006 H2020 0.960 . S
C2007 C2004 1.511 . S
C2007 H2021 0.961 . S
C2007 H2022 0.961 . S
C2007 H2023 0.961 . S
C2008 C2009 1.370 . S
C2008 C2010 1.363 . S
C2008 H2024 0.931 . S
C2009 C2008 1.370 . S
C2009 C2013 1.408 . S
C2010 C2008 1.363 . S
C2010 C2011 1.370 . S
C2010 C2014 1.524 . S
C2011 C2003 1.503 . S
C2011 C2010 1.370 . S
C2011 C2012 1.403 . S
C2012 C2011 1.403 . S
C2012 C2013 1.404 . S
C2012 C2015 1.539 . S
C2013 C2009 1.408 . S
C2013 C2012 1.404 . S
C2013 H2025 0.930 . S
C2014 C2010 1.524 . S
C2014 H2026 0.956 . S
C2014 H2027 0.961 . S
C2014 H2028 0.961 . S
C2015 C2012 1.539 . S
C2015 H2029 0.958 . S
C2015 H2030 0.961 . S
C2015 H2031 0.960 . S
H2016 C2000 0.931 . S
H2017 C2005 0.929 . S
H2018 C2006 0.960 . S
H2019 C2006 0.962 . S
H2020 C2006 0.960 . S
H2021 C2007 0.961 . S
H2022 C2007 0.961 . S
H2023 C2007 0.961 . S
H2024 C2008 0.931 . S
H2025 C2013 0.930 . S
H2026 C2014 0.956 . S
H2027 C2014 0.961 . S
H2028 C2014 0.961 . S
H2029 C2015 0.958 . S
H2030 C2015 0.961 . S
H2031 C2015 0.960 . S
C2032 C2033 1.391 . S
C2032 C2034 1.394 . S
C2032 H2048 0.931 . S
C2033 C2032 1.391 . S
C2033 C2037 1.376 . S
C2034 C2032 1.394 . S
C2034 C2035 1.369 . S
C2034 C2038 1.531 . S
C2035 C2034 1.369 . S
C2035 C2036 1.410 . S
C2035 C2043 1.503 . S
C2036 C2035 1.410 . S
C2036 C2037 1.392 . S
C2036 C2039 1.511 . S
C2037 C2033 1.376 . S
C2037 C2036 1.392 . S
C2037 H2049 0.929 . S
C2038 C2034 1.531 . S
C2038 H2050 0.960 . S
C2038 H2051 0.962 . S
C2038 H2052 0.960 . S
C2039 C2036 1.511 . S
C2039 H2053 0.961 . S
C2039 H2054 0.961 . S
C2039 H2055 0.961 . S
C2040 C2041 1.370 . S
C2040 C2042 1.363 . S
C2040 H2056 0.931 . S
C2041 C2040 1.370 . S
C2041 C2045 1.408 . S
C2042 C2040 1.363 . S
C2042 C2043 1.370 . S
C2042 C2046 1.524 . S
C2043 C2035 1.503 . S
C2043 C2042 1.370 . S
C2043 C2044 1.403 . S
C2044 C2043 1.403 . S
C2044 C2045 1.404 . S
C2044 C2047 1.539 . S
C2045 C2041 1.408 . S
C2045 C2044 1.404 . S
C2045 H2057 0.930 . S
C2046 C2042 1.524 . S
C2046 H2058 0.956 . S
C2046 H2059 0.961 . S
C2046 H2060 0.961 . S
C2047 C2044 1.539 . S
C2047 H2061 0.958 . S
C2047 H2062 0.961 . S
C2047 H2063 0.960 . S
H2048 C2032 0.931 . S
H2049 C2037 0.929 . S
H2050 C2038 0.960 . S
H2051 C2038 0.962 . S
H2052 C2038 0.960 . S
H2053 C2039 0.961 . S
H2054 C2039 0.961 . S
H2055 C2039 0.961 . S
H2056 C2040 0.931 . S
H2057 C2045 0.930 . S
H2058 C2046 0.956 . S
H2059 C2046 0.961 . S
H2060 C2046 0.961 . S
H2061 C2047 0.958 . S
H2062 C2047 0.961 . S
H2063 C2047 0.960 . S
C2064 C2065 1.391 . S
C2064 C2066 1.394 . S
C2064 H2080 0.931 . S
C2065 C2064 1.391 . S
C2065 C2069 1.376 . S
C2066 C2064 1.394 . S
C2066 C2067 1.369 . S
C2066 C2070 1.531 . S
C2067 C2066 1.369 . S
C2067 C2068 1.410 . S
C2067 C2075 1.503 . S
C2068 C2067 1.410 . S
C2068 C2069 1.392 . S
C2068 C2071 1.511 . S
C2069 C2065 1.376 . S
C2069 C2068 1.392 . S
C2069 H2081 0.929 . S
C2070 C2066 1.531 . S
C2070 H2082 0.960 . S
C2070 H2083 0.962 . S
C2070 H2084 0.960 . S
C2071 C2068 1.511 . S
C2071 H2085 0.961 . S
C2071 H2086 0.961 . S
C2071 H2087 0.961 . S
C2072 C2073 1.370 . S
C2072 C2074 1.363 . S
C2072 H2088 0.931 . S
C2073 C2072 1.370 . S
C2073 C2077 1.408 . S
C2074 C2072 1.363 . S
C2074 C2075 1.370 . S
C2074 C2078 1.524 . S
C2075 C2067 1.503 . S
C2075 C2074 1.370 . S
C2075 C2076 1.403 . S
C2076 C2075 1.403 . S
C2076 C2077 1.404 . S
C2076 C2079 1.539 . S
C2077 C2073 1.408 . S
C2077 C2076 1.404 . S
C2077 H2089 0.930 . S
C2078 C2074 1.524 . S
C2078 H2090 0.956 . S
C2078 H2091 0.961 . S
C2078 H2092 0.961 . S
C2079 C2076 1.539 . S
C2079 H2093 0.958 . S
C2079 H2094 0.961 . S
C2079 H2095 0.960 . S
H2080 C2064 0.931 . S
H2081 C2069 0.929 . S
H2082 C2070 0.960 . S
H2083 C2070 0.962 . S
H2084 C2070 0.960 . S
H2085 C2071 0.961 . S
H2086 C2071 0.961 . S
H2087 C2071 0.961 . S
H2088 C2072 0.931 . S
H2089 C2077 0.930 . S
H2090 C2078 0.956 . S
H2091 C2078 0.961 . S
H2092 C2078 0.961 . S
H2093 C2079 0.958 . S
H2094 C2079 0.961 . S
H2095 C2079 0.960 . S
C2096 C2097 1.391 . S
C2096 C2098 1.394 . S
C2096 H2112 0.931 . S
C2097 C2096 1.391 . S
C2097 C2101 1.376 . S
C2098 C2096 1.394 . S
C2098 C2099 1.369 . S
C2098 C2102 1.531 . S
C2099 C2098 1.369 . S
C2099 C2100 1.410 . S
C2099 C2107 1.503 . S
C2100 C2099 1.410 . S
C2100 C2101 1.392 . S
C2100 C2103 1.511 . S
C2101 C2097 1.376 . S
C2101 C2100 1.392 . S
C2101 H2113 0.929 1_556 S
C2102 C2098 1.531 . S
C2102 H2114 0.960 . S
C2102 H2115 0.962 . S
C2102 H2116 0.960 . S
C2103 C2100 1.511 . S
C2103 H2117 0.961 . S
C2103 H2118 0.976 . S
C2103 H2119 0.961 1_455 S
C2104 C2105 1.370 . S
C2104 C2106 1.363 1_655 S
C2104 H2120 0.942 . S
C2105 C2104 1.370 . S
C2105 C2109 1.408 . S
C2106 C2104 1.363 1_455 S
C2106 C2107 1.370 . S
C2106 C2110 1.524 . S
C2107 C2099 1.503 . S
C2107 C2106 1.370 . S
C2107 C2108 1.403 1_455 S
C2108 C2107 1.403 1_655 S
C2108 C2109 1.404 . S
C2108 C2111 1.539 . S
C2109 C2105 1.408 . S
C2109 C2108 1.404 . S
C2109 H2121 0.930 . S
C2110 C2106 1.524 . S
C2110 H2122 0.956 . S
C2110 H2123 0.961 . S
C2110 H2124 0.961 . S
C2111 C2108 1.539 . S
C2111 H2125 0.958 . S
C2111 H2126 0.961 . S
C2111 H2127 0.960 . S
H2112 C2096 0.931 . S
H2113 C2101 0.929 1_554 S
H2114 C2102 0.960 . S
H2115 C2102 0.962 . S
H2116 C2102 0.960 . S
H2117 C2103 0.961 . S
H2118 C2103 0.976 . S
H2119 C2103 0.961 1_655 S
H2120 C2104 0.942 . S
H2121 C2109 0.930 . S
H2122 C2110 0.956 . S
H2123 C2110 0.961 . S
H2124 C2110 0.961 . S
H2125 C2111 0.958 . S
H2126 C2111 0.961 . S
H2127 C2111 0.960 . S
C2128 C2129 1.391 . S
C2128 C2130 1.394 . S
C2128 H2144 0.931 . S
C2129 C2128 1.391 . S
C2129 C2133 1.376 . S
C2130 C2128 1.394 . S
C2130 C2131 1.369 . S
C2130 C2134 1.531 . S
C2131 C2130 1.369 . S
C2131 C2132 1.410 . S
C2131 C2139 1.503 . S
C2132 C2131 1.410 . S
C2132 C2133 1.392 . S
C2132 C2135 1.511 . S
C2133 C2129 1.376 . S
C2133 C2132 1.392 . S
C2133 H2145 0.929 . S
C2134 C2130 1.531 . S
C2134 H2146 0.960 . S
C2134 H2147 0.962 . S
C2134 H2148 0.960 . S
C2135 C2132 1.511 . S
C2135 H2149 0.961 . S
C2135 H2150 0.961 . S
C2135 H2151 0.961 . S
C2136 C2137 1.370 . S
C2136 C2138 1.363 . S
C2136 H2152 0.931 . S
C2137 C2136 1.370 . S
C2137 C2141 1.408 . S
C2138 C2136 1.363 . S
C2138 C2139 1.370 . S
C2138 C2142 1.524 . S
C2139 C2131 1.503 . S
C2139 C2138 1.370 . S
C2139 C2140 1.403 . S
C2140 C2139 1.403 . S
C2140 C2141 1.404 . S
C2140 C2143 1.539 . S
C2141 C2137 1.408 . S
C2141 C2140 1.404 . S
C2141 H2153 0.930 . S
C2142 C2138 1.524 . S
C2142 H2154 0.956 . S
C2142 H2155 0.961 . S
C2142 H2156 0.961 . S
C2143 C2140 1.539 . S
C2143 H2157 0.958 . S
C2143 H2158 0.961 . S
C2143 H2159 0.960 . S
H2144 C2128 0.931 . S
H2145 C2133 0.929 . S
H2146 C2134 0.960 . S
H2147 C2134 0.962 . S
H2148 C2134 0.960 . S
H2149 C2135 0.961 . S
H2150 C2135 0.961 . S
H2151 C2135 0.961 . S
H2152 C2136 0.931 . S
H2153 C2141 0.930 . S
H2154 C2142 0.956 . S
H2155 C2142 0.961 . S
H2156 C2142 0.961 . S
H2157 C2143 0.958 . S
H2158 C2143 0.961 . S
H2159 C2143 0.960 . S
C2160 C2161 1.391 . S
C2160 C2162 1.394 1_655 S
C2160 H2176 0.931 . S
C2161 C2160 1.391 . S
C2161 C2165 1.376 . S
C2162 C2160 1.394 1_455 S
C2162 C2163 1.369 . S
C2162 C2166 1.531 . S
C2163 C2162 1.369 . S
C2163 C2164 1.410 1_455 S
C2163 C2171 1.503 . S
C2164 C2163 1.410 1_655 S
C2164 C2165 1.392 . S
C2164 C2167 1.511 . S
C2165 C2161 1.376 . S
C2165 C2164 1.392 . S
C2165 H2177 0.929 . S
C2166 C2162 1.531 . S
C2166 H2178 0.960 . S
C2166 H2179 0.962 . S
C2166 H2180 0.960 . S
C2167 C2164 1.511 . S
C2167 H2181 0.961 . S
C2167 H2182 0.961 1_655 S
C2167 H2183 0.961 1_655 S
C2168 C2169 1.370 . S
C2168 C2170 1.363 . S
C2168 H2184 0.931 . S
C2169 C2168 1.370 . S
C2169 C2173 1.408 . S
C2170 C2168 1.363 . S
C2170 C2171 1.370 . S
C2170 C2174 1.524 1_455 S
C2171 C2163 1.503 . S
C2171 C2170 1.370 . S
C2171 C2172 1.403 . S
C2172 C2171 1.403 . S
C2172 C2173 1.404 . S
C2172 C2175 1.539 . S
C2173 C2169 1.408 . S
C2173 C2172 1.404 . S
C2173 H2185 0.930 . S
C2174 C2170 1.524 1_655 S
C2174 H2186 0.956 . S
C2174 H2187 0.961 . S
C2174 H2188 0.961 . S
C2175 C2172 1.539 . S
C2175 H2189 0.958 . S
C2175 H2190 0.961 . S
C2175 H2191 0.960 . S
H2176 C2160 0.931 . S
H2177 C2165 0.929 . S
H2178 C2166 0.960 . S
H2179 C2166 0.962 . S
H2180 C2166 0.960 . S
H2181 C2167 0.961 . S
H2182 C2167 0.961 1_455 S
H2183 C2167 0.961 1_455 S
H2184 C2168 0.931 . S
H2185 C2173 0.930 . S
H2186 C2174 0.956 . S
H2187 C2174 0.961 . S
H2188 C2174 0.961 . S
H2189 C2175 0.958 . S
H2190 C2175 0.961 . S
H2191 C2175 0.960 . S
C2192 C2193 1.391 . S
C2192 C2194 1.394 . S
C2192 H2208 0.931 . S
C2193 C2192 1.391 . S
C2193 C2197 1.376 . S
C2194 C2192 1.394 . S
C2194 C2195 1.369 . S
C2194 C2198 1.531 . S
C2195 C2194 1.369 . S
C2195 C2196 1.410 . S
C2195 C2203 1.503 . S
C2196 C2195 1.410 . S
C2196 C2197 1.392 . S
C2196 C2199 1.511 . S
C2197 C2193 1.376 . S
C2197 C2196 1.392 . S
C2197 H2209 0.929 . S
C2198 C2194 1.531 . S
C2198 H2210 0.960 . S
C2198 H2211 0.962 . S
C2198 H2212 0.960 . S
C2199 C2196 1.511 . S
C2199 H2213 0.961 . S
C2199 H2214 0.961 . S
C2199 H2215 0.961 . S
C2200 C2201 1.370 . S
C2200 C2202 1.363 . S
C2200 H2216 0.931 . S
C2201 C2200 1.370 . S
C2201 C2205 1.408 . S
C2202 C2200 1.363 . S
C2202 C2203 1.370 . S
C2202 C2206 1.524 . S
C2203 C2195 1.503 . S
C2203 C2202 1.370 . S
C2203 C2204 1.403 . S
C2204 C2203 1.403 . S
C2204 C2205 1.404 . S
C2204 C2207 1.539 . S
C2205 C2201 1.408 . S
C2205 C2204 1.404 . S
C2205 H2217 0.930 . S
C2206 C2202 1.524 . S
C2206 H2218 0.956 . S
C2206 H2219 0.961 . S
C2206 H2220 0.961 . S
C2207 C2204 1.539 . S
C2207 H2221 0.958 . S
C2207 H2222 0.961 . S
C2207 H2223 0.960 . S
H2208 C2192 0.931 . S
H2209 C2197 0.929 . S
H2210 C2198 0.960 . S
H2211 C2198 0.962 . S
H2212 C2198 0.960 . S
H2213 C2199 0.961 . S
H2214 C2199 0.961 . S
H2215 C2199 0.961 . S
H2216 C2200 0.931 . S
H2217 C2205 0.930 . S
H2218 C2206 0.956 . S
H2219 C2206 0.961 . S
H2220 C2206 0.961 . S
H2221 C2207 0.958 . S
H2222 C2207 0.961 . S
H2223 C2207 0.960 . S
C2224 C2225 1.391 . S
C2224 C2226 1.394 . S
C2224 H2240 0.931 . S
C2225 C2224 1.391 . S
C2225 C2229 1.376 . S
C2226 C2224 1.394 . S
C2226 C2227 1.369 . S
C2226 C2230 1.531 . S
C2227 C2226 1.369 . S
C2227 C2228 1.410 . S
C2227 C2235 1.503 . S
C2228 C2227 1.410 . S
C2228 C2229 1.392 . S
C2228 C2231 1.511 . S
C2229 C2225 1.376 . S
C2229 C2228 1.392 . S
C2229 H2241 0.929 . S
C2230 C2226 1.531 . S
C2230 H2242 0.960 . S
C2230 H2243 0.962 . S
C2230 H2244 0.960 . S
C2231 C2228 1.511 . S
C2231 H2245 0.961 . S
C2231 H2246 0.961 . S
C2231 H2247 0.961 . S
C2232 C2233 1.370 . S
C2232 C2234 1.363 . S
C2232 H2248 0.931 . S
C2233 C2232 1.370 . S
C2233 C2237 1.408 . S
C2234 C2232 1.363 . S
C2234 C2235 1.370 . S
C2234 C2238 1.524 . S
C2235 C2227 1.503 . S
C2235 C2234 1.370 . S
C2235 C2236 1.403 . S
C2236 C2235 1.403 . S
C2236 C2237 1.404 . S
C2236 C2239 1.539 . S
C2237 C2233 1.408 . S
C2237 C2236 1.404 . S
C2237 H2249 0.930 . S
C2238 C2234 1.524 . S
C2238 H2250 0.956 . S
C2238 H2251 0.961 . S
C2238 H2252 0.961 . S
C2239 C2236 1.539 . S
C2239 H2253 0.958 . S
C2239 H2254 0.961 . S
C2239 H2255 0.960 . S
H2240 C2224 0.931 . S
H2241 C2229 0.929 . S
H2242 C2230 0.960 . S
H2243 C2230 0.962 . S
H2244 C2230 0.960 . S
H2245 C2231 0.961 . S
H2246 C2231 0.961 . S
H2247 C2231 0.961 . S
H2248 C2232 0.931 . S
H2249 C2237 0.930 . S
H2250 C2238 0.956 . S
H2251 C2238 0.961 . S
H2252 C2238 0.961 . S
H2253 C2239 0.958 . S
H2254 C2239 0.961 . S
H2255 C2239 0.960 . S
C465 C224 0.470 . S
C473 C21 0.559 . S
C497 C137 0.339 . S
C505 C50 0.440 . S
C529 C166 0.554 . S
C537 C79 0.572 . S
C561 C195 0.481 . S
C569 C108 0.486 . S
C593 C253 0.467 . S
C601 C456 0.518 . S
C625 C282 0.417 . S
C633 C369 0.267 . S
C657 C398 0.467 . S
C665 C311 0.510 . S
C689 C427 0.418 . S
C697 C340 0.501 . S
C721 C187 2.359 . S
C729 C15 2.331 . S
C753 C44 2.755 . S
C761 C218 2.724 . S
C785 C131 2.345 . S
C793 C71 2.407 . S
C817 C158 2.386 . S
C825 C100 2.360 . S
C849 C247 2.516 . S
C857 C421 2.502 . S
C881 C450 2.665 . S
C889 C276 2.699 . S
C913 C303 2.355 . S
C921 C361 2.361 . S
C945 C334 2.300 . S
C953 C390 2.382 . S
C977 C42 2.649 . S
C985 C160 2.612 . S
C1009 C189 2.437 . S
C1017 C73 2.475 . S
C1041 C102 2.140 . S
C1049 C216 2.172 . S
C1073 C129 2.637 . S
C1081 C13 2.643 . S
C1105 C392 2.387 . S
C1113 C274 2.499 . S
C1137 C305 2.666 . S
C1145 C419 2.722 . S
C1169 C448 2.387 . S
C1177 C332 2.372 . S
C1201 C245 2.393 . S
C1209 C363 2.306 . S
C1233 C271 1.563 . S
C1241 C8 1.555 . S
C1265 C440 1.742 1_554 S
C1273 C37 1.598 . S
C1297 C61 2.151 . S
C1305 C329 2.035 . S
C1329 C387 1.441 . S
C1337 C90 1.566 . S
C1361 C445 1.638 . S
C1369 C124 1.541 . S
C1393 C324 1.888 . S
C1401 C148 1.891 . S
C1425 C177 2.081 . S
C1433 C382 2.072 . S
C1457 C211 1.280 . S
C1465 C266 1.370 . S
C1489 C39 1.497 . S
C1497 C240 1.527 . S
C1521 C269 1.802 . S
C1529 C208 1.991 1_556 S
C1553 C92 2.015 . S
C1561 C293 2.067 . S
C1585 C327 1.390 . S
C1593 C155 1.501 . S
C1617 C213 1.364 . S
C1625 C351 1.415 . S
C1649 C97 2.009 1_554 S
C1657 C380 2.150 . S
C1681 C414 1.789 . S
C1689 C150 1.952 . S
C1713 C34 1.619 . S
C1721 C443 1.502 . S
C1745 C411 1.424 . S
C1753 C153 1.300 . S
C1777 C295 1.813 . S
C1785 C182 1.716 . S
C1809 C206 2.312 . S
C1817 C358 2.185 . S
C1841 C119 1.739 . S
C1849 C242 1.642 1_554 S
C1873 C300 1.371 . S
C1881 C95 1.367 . S
C1905 C353 1.723 . S
C1913 C3 1.729 . S
C1937 C237 1.980 . S
C1945 C32 1.986 . S
C1969 C416 1.492 1_556 S
C1977 C66 1.552 . S
C2001 C184 1.318 . S
C2009 C385 1.299 . S
C2033 C63 1.871 . S
C2041 C409 1.891 . S
C2065 C121 1.921 . S
C2073 C438 1.921 . S
C2097 C10 1.694 1_556 S
C2105 C356 1.679 . S
C2129 C68 1.530 . S
C2137 C322 1.639 . S
C2161 C235 1.990 . S
C2169 C126 1.876 . S
C2193 C5 1.852 . S
C2201 C264 1.856 . S
C2225 C179 1.389 1_554 S
C2233 C298 1.343 . S
