# Generated by pormake.
# Topology yfy, (5)-cn, num edge types: 1
# Building blocks:
#     Node 0, Type 0, BuildingBlock: BEQFEK_clean_sbu_0, # of connection points: 5
#     Node 1, Type 0, BuildingBlock: BEQFEK_clean_sbu_0, # of connection points: 5
#     Node 2, Type 0, BuildingBlock: BEQFEK_clean_sbu_0, # of connection points: 5
#     Node 3, Type 0, BuildingBlock: BEQFEK_clean_sbu_0, # of connection points: 5
#     Node 4, Type 0, BuildingBlock: BEQFEK_clean_sbu_0, # of connection points: 5
#     Node 5, Type 0, BuildingBlock: BEQFEK_clean_sbu_0, # of connection points: 5
#     Node 6, Type 0, BuildingBlock: BEQFEK_clean_sbu_0, # of connection points: 5
#     Node 7, Type 0, BuildingBlock: BEQFEK_clean_sbu_0, # of connection points: 5
#     Node 8, Type 0, BuildingBlock: BEQFEK_clean_sbu_0, # of connection points: 5
#     Node 9, Type 0, BuildingBlock: BEQFEK_clean_sbu_0, # of connection points: 5
#     Node 10, Type 0, BuildingBlock: BEQFEK_clean_sbu_0, # of connection points: 5
#     Node 11, Type 0, BuildingBlock: BEQFEK_clean_sbu_0, # of connection points: 5
#     Node 12, Type 0, BuildingBlock: BEQFEK_clean_sbu_0, # of connection points: 5
#     Node 13, Type 0, BuildingBlock: BEQFEK_clean_sbu_0, # of connection points: 5
#     Node 14, Type 0, BuildingBlock: BEQFEK_clean_sbu_0, # of connection points: 5
#     Node 15, Type 0, BuildingBlock: BEQFEK_clean_sbu_0, # of connection points: 5
#     Edge 16, Type (0, 0), BuildingBlock: MIFKUJ_clean_linker_0, # of connection points: 2
#     Edge 17, Type (0, 0), BuildingBlock: MIFKUJ_clean_linker_0, # of connection points: 2
#     Edge 18, Type (0, 0), BuildingBlock: MIFKUJ_clean_linker_0, # of connection points: 2
#     Edge 19, Type (0, 0), BuildingBlock: MIFKUJ_clean_linker_0, # of connection points: 2
#     Edge 20, Type (0, 0), BuildingBlock: MIFKUJ_clean_linker_0, # of connection points: 2
#     Edge 21, Type (0, 0), BuildingBlock: MIFKUJ_clean_linker_0, # of connection points: 2
#     Edge 22, Type (0, 0), BuildingBlock: MIFKUJ_clean_linker_0, # of connection points: 2
#     Edge 23, Type (0, 0), BuildingBlock: MIFKUJ_clean_linker_0, # of connection points: 2
#     Edge 24, Type (0, 0), BuildingBlock: MIFKUJ_clean_linker_0, # of connection points: 2
#     Edge 25, Type (0, 0), BuildingBlock: MIFKUJ_clean_linker_0, # of connection points: 2
#     Edge 26, Type (0, 0), BuildingBlock: MIFKUJ_clean_linker_0, # of connection points: 2
#     Edge 27, Type (0, 0), BuildingBlock: MIFKUJ_clean_linker_0, # of connection points: 2
#     Edge 28, Type (0, 0), BuildingBlock: MIFKUJ_clean_linker_0, # of connection points: 2
#     Edge 29, Type (0, 0), BuildingBlock: MIFKUJ_clean_linker_0, # of connection points: 2
#     Edge 30, Type (0, 0), BuildingBlock: MIFKUJ_clean_linker_0, # of connection points: 2
#     Edge 31, Type (0, 0), BuildingBlock: MIFKUJ_clean_linker_0, # of connection points: 2
#     Edge 32, Type (0, 0), BuildingBlock: MIFKUJ_clean_linker_0, # of connection points: 2
#     Edge 33, Type (0, 0), BuildingBlock: MIFKUJ_clean_linker_0, # of connection points: 2
#     Edge 34, Type (0, 0), BuildingBlock: MIFKUJ_clean_linker_0, # of connection points: 2
#     Edge 35, Type (0, 0), BuildingBlock: MIFKUJ_clean_linker_0, # of connection points: 2
#     Edge 36, Type (0, 0), BuildingBlock: MIFKUJ_clean_linker_0, # of connection points: 2
#     Edge 37, Type (0, 0), BuildingBlock: MIFKUJ_clean_linker_0, # of connection points: 2
#     Edge 38, Type (0, 0), BuildingBlock: MIFKUJ_clean_linker_0, # of connection points: 2
#     Edge 39, Type (0, 0), BuildingBlock: MIFKUJ_clean_linker_0, # of connection points: 2
#     Edge 40, Type (0, 0), BuildingBlock: MIFKUJ_clean_linker_0, # of connection points: 2
#     Edge 41, Type (0, 0), BuildingBlock: MIFKUJ_clean_linker_0, # of connection points: 2
#     Edge 42, Type (0, 0), BuildingBlock: MIFKUJ_clean_linker_0, # of connection points: 2
#     Edge 43, Type (0, 0), BuildingBlock: MIFKUJ_clean_linker_0, # of connection points: 2
#     Edge 44, Type (0, 0), BuildingBlock: MIFKUJ_clean_linker_0, # of connection points: 2
#     Edge 45, Type (0, 0), BuildingBlock: MIFKUJ_clean_linker_0, # of connection points: 2
#     Edge 46, Type (0, 0), BuildingBlock: MIFKUJ_clean_linker_0, # of connection points: 2
#     Edge 47, Type (0, 0), BuildingBlock: MIFKUJ_clean_linker_0, # of connection points: 2
#     Edge 48, Type (0, 0), BuildingBlock: MIFKUJ_clean_linker_0, # of connection points: 2
#     Edge 49, Type (0, 0), BuildingBlock: MIFKUJ_clean_linker_0, # of connection points: 2
#     Edge 50, Type (0, 0), BuildingBlock: MIFKUJ_clean_linker_0, # of connection points: 2
#     Edge 51, Type (0, 0), BuildingBlock: MIFKUJ_clean_linker_0, # of connection points: 2
#     Edge 52, Type (0, 0), BuildingBlock: MIFKUJ_clean_linker_0, # of connection points: 2
#     Edge 53, Type (0, 0), BuildingBlock: MIFKUJ_clean_linker_0, # of connection points: 2
#     Edge 54, Type (0, 0), BuildingBlock: MIFKUJ_clean_linker_0, # of connection points: 2
#     Edge 55, Type (0, 0), BuildingBlock: MIFKUJ_clean_linker_0, # of connection points: 2
# Relax obj value: 0.032
# Max RMSD: 0.078
# Mean RMSD: 0.078
data_MOF--net-yfy--node1-BEQFEK_clean_sbu_0--edge1-MIFKUJ_clean_linker_0
_symmetry_space_group_name_H-M    P1
_symmetry_Int_Tables_number       1
_symmetry_cell_setting            triclinic
loop_
_symmetry_equiv_pos_as_xyz
'x, y, z'
_cell_length_a     60.394056
_cell_length_b     60.421876
_cell_length_c     56.129578
_cell_angle_alpha  89.982088
_cell_angle_beta   90.020538
_cell_angle_gamma 90.042776
loop_
_atom_site_label
_atom_site_type_symbol
_atom_site_fract_x
_atom_site_fract_y
_atom_site_fract_z
_atom_type_partial_charge
Co0 Co 0.09596 0.28399 0.32763 0.0
Co1 Co 0.0647 0.32571 0.32893 0.0
C2 C 0.04853 0.28074 0.31309 0.0
O3 O 0.06768 0.27212 0.31498 0.0
O4 O 0.04524 0.30102 0.3181 0.0
C5 C 0.11427 0.24031 0.32321 0.0
O6 O 0.09343 0.23436 0.3252 0.0
C7 C 0.03671 0.36032 0.30761 0.0
C8 C 0.03237 0.38335 0.33781 0.0
C9 C 0.02645 0.38 0.31421 0.0
N10 N 0.04821 0.3526 0.32639 0.0
N11 N 0.04558 0.36649 0.34435 0.0
C12 C 0.03466 0.34824 0.28443 0.0
H13 H 0.03975 0.33074 0.28639 0.0
H14 H 0.04571 0.35605 0.27107 0.0
H15 H 0.01739 0.34914 0.27772 0.0
C16 C 0.12376 0.31543 0.29997 0.0
N17 N 0.10473 0.31011 0.31117 0.0
N18 N 0.09179 0.32762 0.31178 0.0
C19 C 0.10237 0.34477 0.30137 0.0
C20 C 0.12293 0.33759 0.29336 0.0
C21 C 0.1424 0.29955 0.29604 0.0
H22 H 0.1358 0.28378 0.28883 0.0
H23 H 0.15487 0.30631 0.28348 0.0
H24 H 0.15047 0.29591 0.31337 0.0
O25 O 0.09176 0.29005 0.36243 0.0
O26 O 0.07115 0.32058 0.36291 0.0
H27 H 0.10777 0.3802 0.29864 0.0
H28 H 0.08132 0.37039 0.28812 0.0
C29 C 0.09422 0.36818 0.30197 0.0
H30 H 0.0868 0.37181 0.31958 0.0
H31 H 0.05259 0.3643 0.36118 0.0
O32 O 0.11921 0.26076 0.32406 0.0
C33 C 0.08169 0.30535 0.37376 0.0
Co34 Co 0.83504 0.09737 0.32984 0.0
Co35 Co 0.79604 0.06296 0.32553 0.0
C36 C 0.84199 0.05004 0.31299 0.0
O37 O 0.84897 0.06928 0.31851 0.0
O38 O 0.82148 0.04527 0.31405 0.0
C39 C 0.87308 0.12026 0.31199 0.0
O40 O 0.87372 0.10323 0.29746 0.0
C41 C 0.76417 0.03095 0.3057 0.0
C42 C 0.73539 0.03571 0.32945 0.0
C43 C 0.74259 0.02395 0.30974 0.0
N44 N 0.76943 0.04615 0.32226 0.0
N45 N 0.75223 0.04874 0.33654 0.0
C46 C 0.77887 0.02496 0.28525 0.0
H47 H 0.79014 0.03892 0.28097 0.0
H48 H 0.76896 0.02059 0.26928 0.0
H49 H 0.7891 0.01045 0.29032 0.0
C50 C 0.80319 0.12449 0.3019 0.0
N51 N 0.80953 0.10514 0.31178 0.0
N52 N 0.7934 0.09063 0.30956 0.0
C53 C 0.77635 0.10026 0.298 0.0
C54 C 0.78187 0.12209 0.29289 0.0
C55 C 0.81641 0.1454 0.30354 0.0
H56 H 0.82268 0.1475 0.32198 0.0
H57 H 0.83095 0.14415 0.29153 0.0
H58 H 0.80649 0.16012 0.2985 0.0
O59 O 0.82695 0.09296 0.36391 0.0
O60 O 0.80035 0.06776 0.36016 0.0
H61 H 0.74534 0.08663 0.309 0.0
H62 H 0.74489 0.09862 0.27951 0.0
C63 C 0.75495 0.08892 0.29234 0.0
H64 H 0.75834 0.07244 0.28455 0.0
H65 H 0.75184 0.05977 0.35084 0.0
O66 O 0.85772 0.12135 0.32746 0.0
C67 C 0.81279 0.07983 0.37312 0.0
Co68 Co 0.0237 0.83464 0.32827 0.0
Co69 Co 0.05626 0.79398 0.32819 0.0
C70 C 0.07122 0.83903 0.31272 0.0
O71 O 0.052 0.84717 0.31596 0.0
O72 O 0.07509 0.81862 0.31653 0.0
C73 C 0.00473 0.87807 0.3268 0.0
O74 O 0.02499 0.88399 0.33248 0.0
C75 C 0.08738 0.76117 0.30917 0.0
C76 C 0.08489 0.73421 0.33564 0.0
C77 C 0.0954 0.74025 0.31468 0.0
N78 N 0.07286 0.76718 0.32611 0.0
N79 N 0.07157 0.75107 0.34198 0.0
C80 C 0.09214 0.77469 0.28744 0.0
H81 H 0.07773 0.78536 0.28311 0.0
H82 H 0.09607 0.76389 0.27202 0.0
H83 H 0.10659 0.78554 0.29102 0.0
C84 C 0.99635 0.8027 0.3007 0.0
N85 N 0.0154 0.80851 0.31155 0.0
N86 N 0.02902 0.79152 0.31135 0.0
C87 C 0.019 0.7743 0.30045 0.0
C88 C 0.99791 0.78079 0.29331 0.0
C89 C 0.97696 0.81789 0.29781 0.0
H90 H 0.98266 0.83388 0.29026 0.0
H91 H 0.96415 0.81072 0.28592 0.0
H92 H 0.96963 0.82128 0.31556 0.0
O93 O 0.02761 0.82829 0.363 0.0
O94 O 0.05048 0.7995 0.36226 0.0
H95 H 0.01675 0.73924 0.29198 0.0
H96 H 0.04381 0.75163 0.28859 0.0
C97 C 0.02852 0.75144 0.29951 0.0
H98 H 0.03301 0.7461 0.31777 0.0
H99 H 0.0614 0.75148 0.357 0.0
O100 O 1.0003 0.85761 0.32441 0.0
C101 C 0.03909 0.81365 0.37377 0.0
Co102 Co 0.28561 0.02208 0.32943 0.0
Co103 Co 0.32505 0.05627 0.32654 0.0
C104 C 0.27911 0.06951 0.31339 0.0
O105 O 0.27197 0.05023 0.31841 0.0
O106 O 0.29962 0.07417 0.31496 0.0
C107 C 0.24615 1.00032 0.31298 0.0
O108 O 0.24436 0.01837 0.30008 0.0
C109 C 0.35828 0.08576 0.30491 0.0
C110 C 0.38184 0.09022 0.33462 0.0
C111 C 0.37787 0.09655 0.31123 0.0
N112 N 0.35122 0.07388 0.32369 0.0
N113 N 0.36535 0.07665 0.3414 0.0
C114 C 0.34683 0.08551 0.28127 0.0
H115 H 0.33583 0.07083 0.27987 0.0
H116 H 0.3591 0.0853 0.26656 0.0
H117 H 0.33642 0.10055 0.27958 0.0
C118 C 0.31723 0.99548 0.30091 0.0
N119 N 0.31124 0.01463 0.31139 0.0
N120 N 0.32793 0.02864 0.31041 0.0
C121 C 0.34521 0.01867 0.29956 0.0
C122 C 0.33899 0.99732 0.29308 0.0
C123 C 0.30239 0.9757 0.29897 0.0
H124 H 0.28622 0.98083 0.29141 0.0
H125 H 0.30964 0.96269 0.28743 0.0
H126 H 0.29934 0.96886 0.31702 0.0
O127 O 0.29364 0.02594 0.36369 0.0
O128 O 0.32055 0.05092 0.36094 0.0
H129 H 0.37224 0.03627 0.31552 0.0
H130 H 0.38068 0.01559 0.2943 0.0
C131 C 0.36802 0.02834 0.29832 0.0
H132 H 0.36848 0.04116 0.28419 0.0
H133 H 0.36372 0.06929 0.35813 0.0
O134 O 0.26274 0.99815 0.3268 0.0
C135 C 0.30789 0.03867 0.37342 0.0
Co136 Co 0.09517 0.8373 0.67081 0.0
Co137 Co 0.0641 0.79539 0.67272 0.0
C138 C 0.04804 0.84006 0.68796 0.0
O139 O 0.06689 0.84883 0.68411 0.0
O140 O 0.04474 0.8195 0.68443 0.0
C141 C 0.12067 0.87205 0.69234 0.0
O142 O 0.11012 0.86574 0.71165 0.0
C143 C 0.03374 0.76189 0.6924 0.0
C144 C 0.03882 0.73382 0.6678 0.0
C145 C 0.02714 0.74028 0.68786 0.0
N146 N 0.04862 0.76789 0.67579 0.0
N147 N 0.05142 0.7511 0.66102 0.0
C148 C 0.02726 0.77615 0.71302 0.0
H149 H 0.04114 0.78731 0.71792 0.0
H150 H 0.02249 0.76592 0.72863 0.0
H151 H 0.01289 0.78651 0.70779 0.0
C152 C 0.12492 0.80618 0.69724 0.0
N153 N 0.10526 0.81153 0.68731 0.0
N154 N 0.0919 0.79434 0.68877 0.0
C155 C 0.10249 0.77768 0.7 0.0
C156 C 0.12376 0.78461 0.70578 0.0
C157 C 0.1445 0.82137 0.6982 0.0
H158 H 0.14168 0.83397 0.71221 0.0
H159 H 0.15998 0.81243 0.70261 0.0
H160 H 0.14644 0.83 0.68088 0.0
O161 O 0.08999 0.83047 0.63648 0.0
O162 O 0.06868 0.80051 0.63828 0.0
H163 H 0.10472 0.74356 0.71223 0.0
H164 H 0.07736 0.75564 0.71265 0.0
C165 C 0.09323 0.75482 0.70276 0.0
H166 H 0.08989 0.7478 0.68488 0.0
H167 H 0.06218 0.75134 0.64647 0.0
O168 O 0.11711 0.86192 0.67285 0.0
C169 C 0.07893 0.81518 0.62625 0.0
Co170 Co 0.28476 0.09863 0.6668 0.0
Co171 Co 0.3222 0.0633 0.67576 0.0
C172 C 0.27562 0.05239 0.68631 0.0
O173 O 0.26967 0.07126 0.67842 0.0
O174 O 0.29596 0.04705 0.68773 0.0
C175 C 0.25113 0.12572 0.68646 0.0
O176 O 0.25523 0.11318 0.70508 0.0
C177 C 0.35368 0.03005 0.6956 0.0
C178 C 0.38319 0.03687 0.6735 0.0
C179 C 0.37557 0.02367 0.69193 0.0
N180 N 0.34884 0.04652 0.68027 0.0
N181 N 0.36654 0.05036 0.66705 0.0
C182 C 0.33717 0.01991 0.71224 0.0
H183 H 0.32121 0.01748 0.7029 0.0
H184 H 0.3343 0.03133 0.72741 0.0
H185 H 0.34283 0.00364 0.71903 0.0
C186 C 0.31653 0.12638 0.6943 0.0
N187 N 0.3098 0.10669 0.68556 0.0
N188 N 0.32498 0.09169 0.69017 0.0
C189 C 0.34155 0.10122 0.70261 0.0
C190 C 0.33692 0.12362 0.70547 0.0
C191 C 0.30489 0.1478 0.68953 0.0
H192 H 0.29673 0.14729 0.67184 0.0
H193 H 0.29199 0.15038 0.70333 0.0
H194 H 0.31657 0.16198 0.69003 0.0
O195 O 0.29397 0.09277 0.63362 0.0
O196 O 0.31881 0.06642 0.64052 0.0
H197 H 0.37343 0.08682 0.69708 0.0
H198 H 0.36949 0.09823 0.72649 0.0
C199 C 0.36136 0.08903 0.71178 0.0
H200 H 0.35633 0.07249 0.71837 0.0
H201 H 0.36726 0.06233 0.65367 0.0
O202 O 0.26218 0.12262 0.66746 0.0
C203 C 0.30771 0.07838 0.6261 0.0
Co204 Co 0.02307 0.28294 0.67038 0.0
Co205 Co 0.05447 0.3247 0.67076 0.0
C206 C 0.07057 0.28003 0.68643 0.0
O207 O 0.0516 0.27135 0.68299 0.0
O208 O 0.07389 0.30055 0.68261 0.0
C209 C 0.00465 0.23935 0.67792 0.0
O210 O 0.02554 0.23359 0.6798 0.0
C211 C 0.08497 0.35815 0.68988 0.0
C212 C 0.08102 0.38561 0.66422 0.0
C213 C 0.09215 0.37944 0.68476 0.0
N214 N 0.07031 0.352 0.67312 0.0
N215 N 0.06815 0.36842 0.65772 0.0
C216 C 0.09068 0.34438 0.71116 0.0
H217 H 0.07664 0.33331 0.71577 0.0
H218 H 0.09486 0.35499 0.72666 0.0
H219 H 0.10525 0.33394 0.70686 0.0
C220 C 0.99473 0.31412 0.69785 0.0
N221 N 0.01395 0.3089 0.68698 0.0
N222 N 0.02713 0.32625 0.68744 0.0
C223 C 0.0167 0.34308 0.69854 0.0
C224 C 0.99577 0.33598 0.70553 0.0
C225 C 0.97573 0.29841 0.70056 0.0
H226 H 0.98178 0.28261 0.70823 0.0
H227 H 0.96262 0.30525 0.71226 0.0
H228 H 0.96867 0.29476 0.68273 0.0
O229 O 0.02753 0.28924 0.63577 0.0
O230 O 0.04888 0.31926 0.63657 0.0
H231 H 0.02963 0.37202 0.68168 0.0
H232 H 0.01383 0.37787 0.70805 0.0
C233 C 0.02571 0.36614 0.6999 0.0
H234 H 0.04125 0.36608 0.71043 0.0
H235 H 0.05769 0.36799 0.64293 0.0
O236 O 0.99987 0.25948 0.67364 0.0
C237 C 0.0383 0.30447 0.62508 0.0
Co238 Co 0.83359 0.0212 0.66919 0.0
Co239 Co 0.79428 0.05536 0.67385 0.0
C240 C 0.8404 0.06822 0.68656 0.0
O241 O 0.84758 0.04902 0.68127 0.0
O242 O 0.81991 0.07286 0.68502 0.0
C243 C 0.87109 0.99803 0.68756 0.0
O244 O 0.87107 0.01463 0.70266 0.0
C245 C 0.76104 0.08633 0.69424 0.0
C246 C 0.73504 0.08482 0.66657 0.0
C247 C 0.74027 0.09456 0.6882 0.0
N248 N 0.76757 0.07218 0.67707 0.0
N249 N 0.75193 0.07143 0.66061 0.0
C250 C 0.7748 0.09238 0.71547 0.0
H251 H 0.79256 0.08942 0.71204 0.0
H252 H 0.76981 0.08195 0.73082 0.0
H253 H 0.77226 0.11001 0.7203 0.0
C254 C 0.8015 0.99348 0.69616 0.0
N255 N 0.80791 0.01307 0.68688 0.0
N256 N 0.79172 0.02746 0.6893 0.0
C257 C 0.77457 0.01753 0.70038 0.0
C258 C 0.78009 0.99561 0.70501 0.0
C259 C 0.81472 0.97263 0.69401 0.0
H260 H 0.82145 0.97121 0.67569 0.0
H261 H 0.82894 0.97341 0.70652 0.0
H262 H 0.80465 0.95775 0.69807 0.0
O263 O 0.82574 0.02633 0.63507 0.0
O264 O 0.79865 0.0509 0.6393 0.0
H265 H 0.74406 0.03212 0.68917 0.0
H266 H 0.74257 0.01856 0.71788 0.0
C267 C 0.75311 0.02875 0.70598 0.0
H268 H 0.75647 0.04474 0.71489 0.0
H269 H 0.75283 0.06179 0.64522 0.0
O270 O 0.85628 0.99725 0.67143 0.0
C271 C 0.81134 0.03936 0.62611 0.0
Co272 Co 0.59761 0.78305 0.82986 0.0
Co273 Co 0.56408 0.82299 0.82892 0.0
C274 C 0.55042 0.77702 0.81434 0.0
O275 O 0.56982 0.76944 0.81788 0.0
O276 O 0.54608 0.79743 0.8176 0.0
C277 C 0.61772 0.74025 0.82975 0.0
O278 O 0.59758 0.7341 0.83567 0.0
C279 C 0.53422 0.85647 0.80786 0.0
C280 C 0.52966 0.87928 0.83822 0.0
C281 C 0.52327 0.87569 0.81482 0.0
N282 N 0.5465 0.84923 0.82631 0.0
N283 N 0.54374 0.863 0.84434 0.0
C284 C 0.53213 0.84438 0.78471 0.0
H285 H 0.53792 0.82707 0.78648 0.0
H286 H 0.54259 0.85264 0.77112 0.0
H287 H 0.5147 0.84463 0.77842 0.0
C288 C 0.62424 0.81521 0.80185 0.0
N289 N 0.60524 0.80918 0.81266 0.0
N290 N 0.59143 0.82602 0.81246 0.0
C291 C 0.60139 0.84346 0.80191 0.0
C292 C 0.62252 0.83719 0.79469 0.0
C293 C 0.64369 0.80015 0.79875 0.0
H294 H 0.63797 0.78392 0.79187 0.0
H295 H 0.65603 0.80716 0.7862 0.0
H296 H 0.65162 0.79733 0.81632 0.0
O297 O 0.59317 0.78973 0.86439 0.0
O298 O 0.56995 0.81826 0.86317 0.0
H299 H 0.60476 0.87902 0.79772 0.0
H300 H 0.57885 0.86734 0.78778 0.0
C301 C 0.59195 0.86637 0.80159 0.0
H302 H 0.58437 0.87016 0.8191 0.0
H303 H 0.55123 0.86111 0.86097 0.0
O304 O 0.62173 0.76071 0.8267 0.0
C305 C 0.5815 0.80438 0.87489 0.0
Co306 Co 0.3322 0.59812 0.82955 0.0
Co307 Co 0.29289 0.56392 0.82617 0.0
C308 C 0.33833 0.55131 0.81116 0.0
O309 O 0.34553 0.57052 0.81647 0.0
O310 O 0.31793 0.54642 0.81344 0.0
C311 C 0.37528 0.6177 0.82953 0.0
O312 O 0.38112 0.59752 0.83558 0.0
C313 C 0.26054 0.53208 0.80693 0.0
C314 C 0.23236 0.5365 0.83158 0.0
C315 C 0.23912 0.5249 0.81158 0.0
N316 N 0.26615 0.54719 0.82346 0.0
N317 N 0.2493 0.5496 0.83825 0.0
C318 C 0.27476 0.52628 0.78603 0.0
H319 H 0.28564 0.54043 0.78135 0.0
H320 H 0.26447 0.52171 0.77039 0.0
H321 H 0.28539 0.51198 0.7908 0.0
C322 C 0.29967 0.62577 0.80336 0.0
N323 N 0.30611 0.60628 0.81283 0.0
N324 N 0.28982 0.59191 0.81093 0.0
C325 C 0.27254 0.60178 0.80004 0.0
C326 C 0.27812 0.6236 0.79497 0.0
C327 C 0.31317 0.64652 0.8047 0.0
H328 H 0.31969 0.64859 0.82305 0.0
H329 H 0.32755 0.64503 0.79251 0.0
H330 H 0.30338 0.66135 0.79977 0.0
O331 O 0.32546 0.59287 0.86386 0.0
O332 O 0.29841 0.56805 0.86067 0.0
H333 H 0.24174 0.58818 0.81174 0.0
H334 H 0.24062 0.60054 0.78245 0.0
C335 C 0.25094 0.59063 0.79484 0.0
H336 H 0.25403 0.57421 0.78674 0.0
H337 H 0.24923 0.56051 0.85266 0.0
O338 O 0.35486 0.62198 0.82644 0.0
C339 C 0.31149 0.57969 0.87335 0.0
Co340 Co 0.52057 0.33692 0.82832 0.0
Co341 Co 0.55437 0.29723 0.82521 0.0
C342 C 0.56737 0.34303 0.81061 0.0
O343 O 0.54803 0.35033 0.81503 0.0
O344 O 0.57208 0.32269 0.81356 0.0
C345 C 0.5014 0.38004 0.82751 0.0
O346 O 0.52189 0.38584 0.83233 0.0
C347 C 0.58539 0.26381 0.80529 0.0
C348 C 0.58361 0.23789 0.833 0.0
C349 C 0.59347 0.24301 0.8114 0.0
N350 N 0.5712 0.27046 0.82237 0.0
N351 N 0.5703 0.25487 0.83887 0.0
C352 C 0.59157 0.27745 0.78401 0.0
H353 H 0.58095 0.27265 0.76873 0.0
H354 H 0.60913 0.27463 0.77907 0.0
H355 H 0.58895 0.29524 0.78743 0.0
C356 C 0.49238 0.30406 0.80311 0.0
N357 N 0.51209 0.31065 0.81194 0.0
N358 N 0.52648 0.29445 0.80966 0.0
C359 C 0.51647 0.27716 0.79893 0.0
C360 C 0.49443 0.28253 0.79455 0.0
C361 C 0.47154 0.31729 0.8055 0.0
H362 H 0.47092 0.32511 0.82336 0.0
H363 H 0.47158 0.33069 0.79197 0.0
H364 H 0.45656 0.30691 0.80305 0.0
O365 O 0.5263 0.33051 0.86252 0.0
O366 O 0.54952 0.30203 0.85982 0.0
H367 H 0.5309 0.24645 0.80973 0.0
H368 H 0.51795 0.24557 0.78065 0.0
C369 C 0.52786 0.25585 0.79307 0.0
H370 H 0.54402 0.25942 0.78462 0.0
H371 H 0.56057 0.25585 0.85419 0.0
O372 O 0.49676 0.35959 0.82547 0.0
C373 C 0.53846 0.31581 0.87224 0.0
Co374 Co 0.78592 0.52079 0.83035 0.0
Co375 Co 0.826 0.55421 0.82758 0.0
C376 C 0.7802 0.568 0.81373 0.0
O377 O 0.77281 0.54865 0.81801 0.0
O378 O 0.80067 0.57255 0.81628 0.0
C379 C 0.74267 0.50166 0.83132 0.0
O380 O 0.73729 0.52174 0.83815 0.0
C381 C 0.85826 0.58596 0.80783 0.0
C382 C 0.88688 0.58112 0.83179 0.0
C383 C 0.87985 0.59292 0.81201 0.0
N384 N 0.85285 0.57078 0.82438 0.0
N385 N 0.86997 0.56812 0.83876 0.0
C386 C 0.84365 0.59202 0.78731 0.0
H387 H 0.83229 0.57813 0.78303 0.0
H388 H 0.85365 0.59628 0.77137 0.0
H389 H 0.83352 0.60661 0.7923 0.0
C390 C 0.81783 0.49297 0.8036 0.0
N391 N 0.81176 0.51249 0.81323 0.0
N392 N 0.82827 0.52661 0.81138 0.0
C393 C 0.84534 0.51653 0.80032 0.0
C394 C 0.8394 0.49481 0.79514 0.0
C395 C 0.80405 0.47241 0.80503 0.0
H396 H 0.79763 0.47042 0.82343 0.0
H397 H 0.7896 0.47413 0.79295 0.0
H398 H 0.81357 0.45743 0.80004 0.0
O399 O 0.79294 0.52576 0.86456 0.0
O400 O 0.82168 0.54877 0.86218 0.0
H401 H 0.87646 0.52933 0.8121 0.0
H402 H 0.87717 0.51744 0.78257 0.0
C403 C 0.86713 0.52734 0.79521 0.0
H404 H 0.86431 0.54395 0.78742 0.0
H405 H 0.87024 0.55712 0.85309 0.0
O406 O 0.76292 0.49724 0.82732 0.0
C407 C 0.8079 0.53753 0.87443 0.0
Co408 Co 0.59849 0.33552 0.169 0.0
Co409 Co 0.56599 0.29472 0.16996 0.0
C410 C 0.55145 0.34011 0.18547 0.0
O411 O 0.57062 0.34816 0.18173 0.0
O412 O 0.54751 0.31965 0.18195 0.0
C413 C 0.624 0.37013 0.1906 0.0
O414 O 0.61175 0.36529 0.20923 0.0
C415 C 0.53742 0.26032 0.19123 0.0
C416 C 0.53001 0.23946 0.1599 0.0
C417 C 0.5254 0.24195 0.18391 0.0
N418 N 0.5487 0.26826 0.1724 0.0
N419 N 0.54429 0.2556 0.15378 0.0
C420 C 0.5367 0.27131 0.21509 0.0
H421 H 0.54552 0.28742 0.21466 0.0
H422 H 0.54475 0.26053 0.22853 0.0
H423 H 0.51924 0.27377 0.22066 0.0
C424 C 0.62682 0.30314 0.19534 0.0
N425 N 0.60737 0.30916 0.1854 0.0
N426 N 0.5937 0.29216 0.18596 0.0
C427 C 0.60406 0.27479 0.19615 0.0
C428 C 0.62535 0.28117 0.20259 0.0
C429 C 0.64643 0.31816 0.19756 0.0
H430 H 0.6424 0.33163 0.21022 0.0
H431 H 0.66127 0.3094 0.20433 0.0
H432 H 0.65015 0.32575 0.18002 0.0
O433 O 0.59343 0.32931 0.13454 0.0
O434 O 0.5714 0.29978 0.13563 0.0
H435 H 0.60779 0.23929 0.20051 0.0
H436 H 0.58219 0.25085 0.21133 0.0
C437 C 0.59477 0.25181 0.19699 0.0
H438 H 0.58661 0.24783 0.17983 0.0
H439 H 0.55058 0.25832 0.13671 0.0
O440 O 0.62145 0.35912 0.17148 0.0
C441 C 0.58226 0.31429 0.12402 0.0
Co442 Co 0.78456 0.59772 0.17017 0.0
Co443 Co 0.82517 0.56473 0.17266 0.0
C444 C 0.77929 0.55029 0.186 0.0
O445 O 0.77145 0.56947 0.18186 0.0
O446 O 0.79984 0.54629 0.18341 0.0
C447 C 0.74535 0.61936 0.18737 0.0
O448 O 0.74379 0.60139 0.20044 0.0
C449 C 0.85889 0.53433 0.19315 0.0
C450 C 0.88516 0.53644 0.16587 0.0
C451 C 0.87997 0.52658 0.18746 0.0
N452 N 0.85221 0.54829 0.17585 0.0
N453 N 0.86801 0.54939 0.15961 0.0
C454 C 0.84504 0.52819 0.21427 0.0
H455 H 0.82732 0.53132 0.21085 0.0
H456 H 0.85004 0.53848 0.22973 0.0
H457 H 0.84742 0.5105 0.21892 0.0
C458 C 0.81641 0.62569 0.1971 0.0
N459 N 0.81037 0.6061 0.18753 0.0
N460 N 0.82709 0.5922 0.18905 0.0
C461 C 0.84425 0.60249 0.19974 0.0
C462 C 0.83816 0.6241 0.20508 0.0
C463 C 0.80246 0.64612 0.19588 0.0
H464 H 0.79634 0.64843 0.17741 0.0
H465 H 0.78783 0.64401 0.20762 0.0
H466 H 0.81177 0.66108 0.20144 0.0
O467 O 0.79196 0.59319 0.13591 0.0
O468 O 0.82091 0.57047 0.13815 0.0
H469 H 0.87468 0.58903 0.18677 0.0
H470 H 0.87711 0.60253 0.21543 0.0
C471 C 0.86635 0.59203 0.20408 0.0
H472 H 0.864 0.57591 0.21311 0.0
H473 H 0.86707 0.55903 0.14421 0.0
O474 O 0.76155 0.62139 0.17303 0.0
C475 C 0.80708 0.5817 0.12596 0.0
Co476 Co 0.52314 0.78413 0.1723 0.0
Co477 Co 0.55563 0.82489 0.17174 0.0
C478 C 0.57054 0.78002 0.18807 0.0
O479 O 0.55122 0.77191 0.18535 0.0
O480 O 0.57451 0.80028 0.18348 0.0
C481 C 0.50436 0.74084 0.17322 0.0
O482 O 0.52453 0.73542 0.16669 0.0
C483 C 0.58787 0.85758 0.18911 0.0
C484 C 0.58218 0.88564 0.16462 0.0
C485 C 0.59472 0.879 0.18402 0.0
N486 N 0.57206 0.85185 0.1734 0.0
N487 N 0.56887 0.86863 0.1587 0.0
C488 C 0.5947 0.84343 0.20972 0.0
H489 H 0.58075 0.83264 0.2153 0.0
H490 H 0.60013 0.85373 0.225 0.0
H491 H 0.60867 0.8327 0.20415 0.0
C492 C 0.4952 0.81695 0.19793 0.0
N493 N 0.51457 0.81069 0.18806 0.0
N494 N 0.52849 0.82745 0.18864 0.0
C495 C 0.51848 0.84484 0.19915 0.0
C496 C 0.49698 0.83889 0.20525 0.0
C497 C 0.4748 0.80287 0.19786 0.0
H498 H 0.47243 0.79558 0.17989 0.0
H499 H 0.47702 0.78903 0.21064 0.0
H500 H 0.45982 0.81244 0.20278 0.0
O501 O 0.52779 0.78943 0.13757 0.0
O502 O 0.54937 0.81934 0.13766 0.0
H503 H 0.53046 0.87566 0.18564 0.0
H504 H 0.51963 0.87725 0.2156 0.0
C505 C 0.52921 0.8669 0.20295 0.0
H506 H 0.54612 0.86455 0.21015 0.0
H507 H 0.55733 0.86859 0.14485 0.0
O508 O 0.49977 0.76115 0.17649 0.0
C509 C 0.53857 0.80445 0.12656 0.0
Co510 Co 0.33493 0.52051 0.16938 0.0
Co511 Co 0.29652 0.5555 0.17445 0.0
C512 C 0.34256 0.56743 0.18749 0.0
O513 O 0.34913 0.54811 0.18171 0.0
O514 O 0.32217 0.57267 0.18635 0.0
C515 C 0.37774 0.50009 0.16941 0.0
O516 O 0.38413 0.52021 0.16379 0.0
C517 C 0.2648 0.58797 0.1939 0.0
C518 C 0.23575 0.58238 0.17071 0.0
C519 C 0.24311 0.59466 0.18997 0.0
N520 N 0.26997 0.57242 0.17769 0.0
N521 N 0.25261 0.56935 0.16373 0.0
C522 C 0.2797 0.59464 0.21395 0.0
H523 H 0.29082 0.58075 0.21882 0.0
H524 H 0.26996 0.59979 0.22976 0.0
H525 H 0.29008 0.60881 0.20811 0.0
C526 C 0.30236 0.49329 0.19612 0.0
N527 N 0.30914 0.51279 0.18693 0.0
N528 N 0.29342 0.5276 0.18984 0.0
C529 C 0.27626 0.51807 0.20131 0.0
C530 C 0.28122 0.49595 0.20551 0.0
C531 C 0.31497 0.47212 0.19345 0.0
H532 H 0.32153 0.47082 0.17504 0.0
H533 H 0.3293 0.47229 0.20584 0.0
H534 H 0.30452 0.45745 0.19732 0.0
O535 O 0.32731 0.52576 0.13531 0.0
O536 O 0.30098 0.55112 0.13978 0.0
H537 H 0.24503 0.53212 0.19179 0.0
H538 H 0.24575 0.52041 0.22138 0.0
C539 C 0.25536 0.52985 0.20794 0.0
H540 H 0.25939 0.54636 0.21536 0.0
H541 H 0.25211 0.55796 0.14977 0.0
O542 O 0.35719 0.49622 0.17212 0.0
C543 C 0.31328 0.53925 0.12647 0.0
H544 H 0.08508 0.26915 0.4028 0.0
H545 H 0.07851 0.2677 0.44592 0.0
H546 H 0.06927 0.33843 0.44716 0.0
H547 H 0.07528 0.33999 0.40405 0.0
H548 H 0.09725 0.31881 0.48568 0.0
H549 H 0.02575 0.31166 0.4462 0.0
H550 H 1.00009 0.29409 0.41772 0.0
H551 H 0.00764 0.23185 0.45376 0.0
H552 H 0.03364 0.24901 0.48225 0.0
H553 H 0.04751 0.33917 0.59571 0.0
H554 H 0.05502 0.33803 0.55301 0.0
H555 H 0.04235 0.26772 0.5525 0.0
H556 H 0.03385 0.26898 0.59514 0.0
H557 H 0.02714 0.28449 0.51343 0.0
H558 H 0.09614 0.28964 0.55391 0.0
H559 H 0.12359 0.30459 0.58218 0.0
H560 H 0.1237 0.36656 0.54471 0.0
H561 H 0.09599 0.35208 0.5164 0.0
C562 C 0.08199 0.28443 0.41233 0.0
C563 C 0.08064 0.30468 0.40007 0.0
C564 C 0.07815 0.28355 0.4369 0.0
C565 C 0.07331 0.30295 0.4496 0.0
C566 C 0.07299 0.3233 0.43761 0.0
C567 C 0.07638 0.32414 0.41301 0.0
C568 C 0.06742 0.302 0.47516 0.0
C569 C 0.08186 0.3115 0.49181 0.0
C570 C 0.04768 0.29178 0.48308 0.0
C571 C 0.03183 0.28156 0.46618 0.0
C572 C 0.02209 0.29419 0.44793 0.0
C573 C 0.00746 0.28431 0.43181 0.0
C574 C 1.0023 0.26185 0.43388 0.0
C575 C 0.01169 0.24924 0.45215 0.0
C576 C 0.02636 0.25903 0.46829 0.0
C577 C 0.04606 0.32351 0.58644 0.0
C578 C 0.04024 0.30414 0.5988 0.0
C579 C 0.05052 0.32284 0.56205 0.0
C580 C 0.04989 0.30267 0.54961 0.0
C581 C 0.04311 0.28346 0.56171 0.0
C582 C 0.03822 0.2842 0.58608 0.0
C583 C 0.05683 0.30164 0.5242 0.0
C584 C 0.04263 0.29172 0.50749 0.0
C585 C 0.07705 0.31108 0.51627 0.0
C586 C 0.09384 0.31983 0.53315 0.0
C587 C 0.10191 0.3065 0.55179 0.0
C588 C 0.11753 0.31489 0.56781 0.0
C589 C 0.12535 0.33653 0.56527 0.0
C590 C 0.11761 0.34981 0.54667 0.0
C591 C 0.10196 0.34151 0.53061 0.0
H592 H 0.13744 0.343 0.5777 0.0
H593 H 0.99098 0.25422 0.42138 0.0
H594 H 0.83297 0.01617 0.59092 0.0
H595 H 0.83248 0.02362 0.54803 0.0
H596 H 0.78743 0.07799 0.55947 0.0
H597 H 0.78723 0.07024 0.60197 0.0
H598 H 0.77509 0.05732 0.5221 0.0
H599 H 0.84415 0.08607 0.54979 0.0
H600 H 0.88034 0.08519 0.57011 0.0
H601 H 0.90267 0.03442 0.52232 0.0
H602 H 0.86651 0.03485 0.50183 0.0
H603 H 0.83329 0.10492 0.40752 0.0
H604 H 0.83211 0.09943 0.45074 0.0
H605 H 0.78922 0.043 0.44112 0.0
H606 H 0.78972 0.04875 0.39823 0.0
H607 H 0.8456 0.0674 0.47808 0.0
H608 H 0.75456 0.03671 0.48695 0.0
H609 H 0.71829 0.04309 0.46791 0.0
H610 H 0.73964 0.10745 0.44495 0.0
H611 H 0.77591 0.10159 0.46412 0.0
C612 C 0.82282 0.02959 0.58426 0.0
C613 C 0.8102 0.04262 0.59994 0.0
C614 C 0.82267 0.03393 0.55975 0.0
C615 C 0.81019 0.05161 0.55051 0.0
C616 C 0.7972 0.06427 0.5661 0.0
C617 C 0.79714 0.0598 0.59048 0.0
C618 C 0.81069 0.05717 0.5247 0.0
C619 C 0.79052 0.05947 0.51249 0.0
C620 C 0.83078 0.06062 0.51222 0.0
C621 C 0.85256 0.06034 0.52443 0.0
C622 C 0.85673 0.07461 0.54372 0.0
C623 C 0.87724 0.07421 0.55525 0.0
C624 C 0.89377 0.05971 0.54756 0.0
C625 C 0.88984 0.04562 0.52827 0.0
C626 C 0.86935 0.04596 0.51667 0.0
C627 C 0.82343 0.09149 0.41464 0.0
C628 C 0.81149 0.07739 0.39938 0.0
C629 C 0.82286 0.0883 0.43934 0.0
C630 C 0.81039 0.07094 0.44925 0.0
C631 C 0.79858 0.05679 0.43401 0.0
C632 C 0.79895 0.06009 0.40941 0.0
C633 C 0.81 0.06724 0.47544 0.0
C634 C 0.83017 0.06524 0.4877 0.0
C635 C 0.78989 0.06484 0.48817 0.0
C636 C 0.76803 0.0686 0.47678 0.0
C637 C 0.75148 0.05226 0.47792 0.0
C638 C 0.73093 0.05578 0.46709 0.0
C639 C 0.72669 0.07563 0.45516 0.0
C640 C 0.74297 0.09204 0.45411 0.0
C641 C 0.76354 0.08862 0.46493 0.0
H642 H 0.71078 0.07832 0.44678 0.0
H643 H 0.90964 0.05942 0.55652 0.0
H644 H 0.09183 0.84737 0.59466 0.0
H645 H 0.08407 0.84897 0.55191 0.0
H646 H 0.05279 0.78486 0.55557 0.0
H647 H 0.06008 0.78327 0.59827 0.0
H648 H 0.09557 0.82444 0.51464 0.0
H649 H 0.00884 0.78321 0.51754 0.0
H650 H 0.9777 0.77881 0.54555 0.0
H651 H 0.99666 0.8386 0.58144 0.0
H652 H 0.02764 0.84368 0.55332 0.0
H653 H 0.06351 0.78609 0.40199 0.0
H654 H 0.06922 0.78843 0.44486 0.0
H655 H 0.02454 0.84393 0.44858 0.0
H656 H 0.01864 0.84179 0.40541 0.0
H657 H 0.01859 0.81376 0.48576 0.0
H658 H 0.07747 0.85446 0.44964 0.0
H659 H 0.1082 0.86065 0.4215 0.0
H660 H 0.14407 0.80647 0.45248 0.0
H661 H 0.11338 0.79973 0.48058 0.0
C662 C 0.08346 0.83352 0.58634 0.0
C663 C 0.07643 0.81527 0.59997 0.0
C664 C 0.07902 0.83448 0.5619 0.0
C665 C 0.06747 0.81723 0.55062 0.0
C666 C 0.06127 0.79859 0.56398 0.0
C667 C 0.06558 0.79767 0.5884 0.0
C668 C 0.06168 0.81877 0.52495 0.0
C669 C 0.07873 0.82215 0.50837 0.0
C670 C 0.03962 0.81622 0.51674 0.0
C671 C 0.02069 0.8137 0.53341 0.0
C672 C 0.00628 0.79552 0.53129 0.0
C673 C 0.98866 0.79291 0.5472 0.0
C674 C 0.98523 0.80842 0.56528 0.0
C675 C 0.99936 0.82662 0.56742 0.0
C676 C 0.01696 0.82937 0.55151 0.0
C677 C 0.0547 0.79873 0.41184 0.0
C678 C 0.04072 0.81388 0.40015 0.0
C679 C 0.05807 0.80006 0.43639 0.0
C680 C 0.04756 0.81655 0.44982 0.0
C681 C 0.03287 0.83114 0.43848 0.0
C682 C 0.02954 0.82989 0.41381 0.0
C683 C 0.05256 0.81879 0.47557 0.0
C684 C 0.03538 0.81615 0.49212 0.0
C685 C 0.07444 0.82235 0.4838 0.0
C686 C 0.09304 0.82648 0.46709 0.0
C687 C 0.09184 0.84376 0.45034 0.0
C688 C 0.10926 0.84739 0.43441 0.0
C689 C 0.12806 0.83394 0.43517 0.0
C690 C 0.12949 0.81686 0.4519 0.0
C691 C 0.1121 0.81315 0.46785 0.0
H692 H 0.14153 0.83676 0.42282 0.0
H693 H 0.97162 0.80634 0.57762 0.0
H694 H 0.28915 0.10199 0.58941 0.0
H695 H 0.29045 0.0934 0.54689 0.0
H696 H 0.33154 0.03661 0.5615 0.0
H697 H 0.33085 0.0454 0.60391 0.0
H698 H 0.3459 0.05618 0.52329 0.0
H699 H 0.27537 0.03134 0.55068 0.0
H700 H 0.23913 0.03436 0.57063 0.0
H701 H 0.21949 0.08497 0.52125 0.0
H702 H 0.25576 0.08247 0.50121 0.0
H703 H 0.28652 0.01323 0.40695 0.0
H704 H 0.28797 0.01731 0.45035 0.0
H705 H 0.33285 0.07244 0.44266 0.0
H706 H 0.33204 0.0681 0.3996 0.0
H707 H 0.27547 0.04937 0.47833 0.0
H708 H 0.36745 0.0764 0.48886 0.0
H709 H 0.40357 0.06921 0.46988 0.0
H710 H 0.38014 0.00617 0.44511 0.0
H711 H 0.34399 0.01284 0.46421 0.0
C712 C 0.29862 0.08777 0.58358 0.0
C713 C 0.30978 0.07432 0.60013 0.0
C714 C 0.29923 0.0828 0.55925 0.0
C715 C 0.31075 0.06411 0.55102 0.0
C716 C 0.32248 0.05107 0.56741 0.0
C717 C 0.32204 0.05613 0.5917 0.0
C718 C 0.31034 0.05794 0.52538 0.0
C719 C 0.3305 0.05469 0.51347 0.0
C720 C 0.29024 0.05538 0.51266 0.0
C721 C 0.26836 0.05685 0.52458 0.0
C722 C 0.26338 0.04322 0.54418 0.0
C723 C 0.24283 0.04482 0.55549 0.0
C724 C 0.22704 0.05988 0.54725 0.0
C725 C 0.23175 0.07333 0.52763 0.0
C726 C 0.25229 0.07182 0.51628 0.0
C727 C 0.29687 0.02608 0.41453 0.0
C728 C 0.30924 0.04025 0.39975 0.0
C729 C 0.29762 0.02844 0.43933 0.0
C730 C 0.31072 0.04502 0.44983 0.0
C731 C 0.323 0.05921 0.43508 0.0
C732 C 0.32243 0.05674 0.41038 0.0
C733 C 0.31107 0.04808 0.47611 0.0
C734 C 0.29088 0.05077 0.48815 0.0
C735 C 0.33114 0.04952 0.48909 0.0
C736 C 0.35294 0.04522 0.47781 0.0
C737 C 0.37004 0.06096 0.47946 0.0
C738 C 0.39051 0.05698 0.46866 0.0
C739 C 0.39412 0.03727 0.45624 0.0
C740 C 0.37729 0.02146 0.45467 0.0
C741 C 0.3568 0.02535 0.46545 0.0
H742 H 0.40998 0.03424 0.44787 0.0
H743 H 0.21113 0.0611 0.55603 0.0
H744 H 0.5672 0.838 0.90343 0.0
H745 H 0.56096 0.83701 0.94643 0.0
H746 H 0.58498 0.76987 0.94896 0.0
H747 H 0.59153 0.77076 0.90584 0.0
H748 H 0.54285 0.7772 0.97188 0.0
H749 H 0.61676 0.80754 0.97075 0.0
H750 H 0.64563 0.83388 0.958 0.0
H751 H 0.60764 0.88788 0.98623 0.0
H752 H 0.57839 0.86189 0.99886 0.0
H753 H 0.54189 0.76804 0.09824 0.0
H754 H 0.54988 0.76714 0.05558 0.0
H755 H 0.54624 0.83852 0.05307 0.0
H756 H 0.53991 0.8394 0.09608 0.0
H757 H 0.57924 0.8277 0.0295 0.0
H758 H 0.50469 0.80026 0.02886 0.0
H759 H 0.47366 0.77592 0.04033 0.0
H760 H 0.50915 0.7194 0.01412 0.0
H761 H 0.54051 0.74337 0.00276 0.0
C762 C 0.57141 0.82309 0.91314 0.0
C763 C 0.57988 0.80445 0.90122 0.0
C764 C 0.56784 0.82257 0.93771 0.0
C765 C 0.57251 0.80337 0.95082 0.0
C766 C 0.58127 0.78483 0.9391 0.0
C767 C 0.58514 0.78543 0.91452 0.0
C768 C 0.5675 0.80253 0.97664 0.0
C769 C 0.55099 0.78798 0.98462 0.0
C770 C 0.57762 0.81715 0.99299 0.0
C771 C 0.5953 0.83277 0.98557 0.0
C772 C 0.61448 0.82505 0.97408 0.0
C773 C 0.63093 0.83991 0.9669 0.0
C774 C 0.62845 0.86254 0.97125 0.0
C775 C 0.60953 0.87035 0.98285 0.0
C776 C 0.59303 0.85555 0.99005 0.0
C777 C 0.54247 0.78348 0.08845 0.0
C778 C 0.54019 0.80378 0.10035 0.0
C779 C 0.54696 0.78298 0.06401 0.0
C780 C 0.54839 0.80276 0.05083 0.0
C781 C 0.54535 0.82301 0.06272 0.0
C782 C 0.54157 0.82353 0.08727 0.0
C783 C 0.55421 0.80251 0.025 0.0
C784 C 0.57096 0.81686 0.01693 0.0
C785 C 0.54392 0.78802 0.00847 0.0
C786 C 0.52503 0.77359 0.01517 0.0
C787 C 0.50593 0.78262 0.02568 0.0
C788 C 0.48828 0.7689 0.03214 0.0
C789 C 0.48946 0.74612 0.02802 0.0
C790 C 0.50827 0.73704 0.01734 0.0
C791 C 0.52598 0.75069 0.01086 0.0
H792 H 0.47578 0.73552 0.03304 0.0
H793 H 0.6412 0.87403 0.96568 0.0
H794 H 0.29063 0.54717 0.8985 0.0
H795 H 0.29098 0.54108 0.94133 0.0
H796 H 0.33133 0.59938 0.95082 0.0
H797 H 0.33172 0.60519 0.90761 0.0
H798 H 0.34624 0.568 0.9782 0.0
H799 H 0.27475 0.59882 0.9641 0.0
H800 H 0.23827 0.60254 0.94478 0.0
H801 H 0.22049 0.53721 0.96809 0.0
H802 H 0.257 0.53298 0.98729 0.0
H803 H 0.28828 0.56942 0.10224 0.0
H804 H 0.28812 0.57691 0.05966 0.0
H805 H 0.33469 0.52383 0.0484 0.0
H806 H 0.33547 0.51657 0.09132 0.0
H807 H 0.27629 0.5551 0.0224 0.0
H808 H 0.36851 0.5365 0.00184 0.0
H809 H 0.40471 0.53749 0.02222 0.0
H810 H 0.38041 0.5871 0.07032 0.0
H811 H 0.34419 0.58661 0.05003 0.0
C812 C 0.2995 0.55883 0.90964 0.0
C813 C 0.31103 0.57679 0.89959 0.0
C814 C 0.29962 0.55533 0.93421 0.0
C815 C 0.31088 0.56995 0.94941 0.0
C816 C 0.32249 0.58788 0.93946 0.0
C817 C 0.32261 0.59125 0.91477 0.0
C818 C 0.31069 0.56627 0.97561 0.0
C819 C 0.33094 0.56522 0.98786 0.0
C820 C 0.29072 0.56301 0.98838 0.0
C821 C 0.26869 0.56552 0.97696 0.0
C822 C 0.26312 0.58519 0.96497 0.0
C823 C 0.24243 0.5874 0.95406 0.0
C824 C 0.22709 0.5701 0.95516 0.0
C825 C 0.23239 0.55058 0.96723 0.0
C826 C 0.25308 0.54828 0.97816 0.0
C827 C 0.29846 0.55922 0.09078 0.0
C828 C 0.312 0.54244 0.10029 0.0
C829 C 0.2983 0.56353 0.06635 0.0
C830 C 0.3116 0.55116 0.0508 0.0
C831 C 0.32461 0.5339 0.0601 0.0
C832 C 0.32493 0.52967 0.08463 0.0
C833 C 0.31185 0.55655 0.02495 0.0
C834 C 0.2916 0.55788 0.01275 0.0
C835 C 0.33177 0.56074 0.01241 0.0
C836 C 0.35358 0.56132 0.02457 0.0
C837 C 0.37093 0.54766 0.01671 0.0
C838 C 0.39145 0.54813 0.02826 0.0
C839 C 0.39484 0.56229 0.0476 0.0
C840 C 0.37774 0.57607 0.05539 0.0
C841 C 0.35721 0.57569 0.04389 0.0
H842 H 0.41072 0.56262 0.05652 0.0
H843 H 0.21108 0.57184 0.9467 0.0
H844 H 0.5317 0.34979 0.9036 0.0
H845 H 0.53942 0.34997 0.9465 0.0
H846 H 0.55894 0.28143 0.94294 0.0
H847 H 0.55168 0.28119 0.90003 0.0
H848 H 0.52926 0.29329 0.98206 0.0
H849 H 0.59799 0.31641 0.94446 0.0
H850 H 0.62136 0.34014 0.91902 0.0
H851 H 0.60306 0.39706 0.9603 0.0
H852 H 0.57935 0.37371 0.98582 0.0
H853 H 0.578 0.27889 0.09438 0.0
H854 H 0.5714 0.27938 0.05143 0.0
H855 H 0.57362 0.35083 0.052 0.0
H856 H 0.58179 0.35023 0.09469 0.0
H857 H 0.59119 0.33849 0.01387 0.0
H858 H 0.52312 0.31847 0.0514 0.0
H859 H 0.49841 0.29709 0.07777 0.0
H860 H 0.51165 0.23816 0.03751 0.0
H861 H 0.53668 0.25913 0.01108 0.0
C862 C 0.5374 0.33469 0.91201 0.0
C863 C 0.54109 0.31547 0.89845 0.0
C864 C 0.54192 0.33487 0.93645 0.0
C865 C 0.54987 0.31575 0.94778 0.0
C866 C 0.55284 0.29635 0.93447 0.0
C867 C 0.54871 0.29626 0.90998 0.0
C868 C 0.55548 0.31601 0.97345 0.0
C869 C 0.54292 0.30299 0.98907 0.0
C870 C 0.57282 0.32926 0.98256 0.0
C871 C 0.58674 0.34334 0.96691 0.0
C872 C 0.59875 0.33402 0.94795 0.0
C873 C 0.61212 0.34739 0.93357 0.0
C874 C 0.61372 0.37008 0.93808 0.0
C875 C 0.60184 0.37947 0.95687 0.0
C876 C 0.58844 0.36618 0.9713 0.0
C877 C 0.57736 0.29466 0.08523 0.0
C878 C 0.58033 0.31452 0.09781 0.0
C879 C 0.57335 0.29497 0.06072 0.0
C880 C 0.57129 0.31517 0.04847 0.0
C881 C 0.575 0.33501 0.06096 0.0
C882 C 0.57968 0.33467 0.08537 0.0
C883 C 0.565 0.31565 0.0228 0.0
C884 C 0.57742 0.32884 0.00707 0.0
C885 C 0.54712 0.30297 0.01367 0.0
C886 C 0.53193 0.29034 0.0294 0.0
C887 C 0.52086 0.30092 0.04826 0.0
C888 C 0.50679 0.28888 0.06321 0.0
C889 C 0.5035 0.26627 0.05935 0.0
C890 C 0.51423 0.25567 0.04049 0.0
C891 C 0.52835 0.26763 0.02551 0.0
H892 H 0.49261 0.25698 0.07095 0.0
H893 H 0.6242 0.38038 0.92705 0.0
H894 H 0.84246 0.5709 0.09804 0.0
H895 H 0.84261 0.56427 0.05497 0.0
H896 H 0.77319 0.58048 0.05158 0.0
H897 H 0.77298 0.58769 0.09458 0.0
H898 H 0.78825 0.53703 0.03029 0.0
H899 H 0.80282 0.6159 0.02961 0.0
H900 H 0.82325 0.64949 0.04143 0.0
H901 H 0.88319 0.62233 0.01256 0.0
H902 H 0.86316 0.58841 0.00088 0.0
H903 H 0.7731 0.53464 0.90519 0.0
H904 H 0.77317 0.54241 0.94787 0.0
H905 H 0.84396 0.55239 0.94571 0.0
H906 H 0.84365 0.54599 0.9027 0.0
H907 H 0.82823 0.5827 0.97075 0.0
H908 H 0.81681 0.50456 0.97168 0.0
H909 H 0.79932 0.46897 0.96125 0.0
H910 H 0.73776 0.49118 0.99106 0.0
H911 H 0.75481 0.52703 0.0014 0.0
C912 C 0.82729 0.57334 0.08807 0.0
C913 C 0.80771 0.57985 0.09968 0.0
C914 C 0.82742 0.56954 0.06351 0.0
C915 C 0.8079 0.57183 0.05021 0.0
C916 C 0.7884 0.57862 0.06162 0.0
C917 C 0.78835 0.58286 0.08612 0.0
C918 C 0.80773 0.56634 0.02452 0.0
C919 C 0.7967 0.54712 0.01712 0.0
C920 C 0.81951 0.5791 0.00768 0.0
C921 C 0.83153 0.59952 0.0146 0.0
C922 C 0.8204 0.617 0.02599 0.0
C923 C 0.83189 0.63612 0.03261 0.0
C924 C 0.85452 0.63802 0.02781 0.0
C925 C 0.86567 0.62082 0.0163 0.0
C926 C 0.85425 0.60166 0.00966 0.0
C927 C 0.78871 0.5382 0.91391 0.0
C928 C 0.80839 0.53963 0.90066 0.0
C929 C 0.78877 0.54257 0.93837 0.0
C930 C 0.80863 0.5477 0.95026 0.0
C931 C 0.82839 0.54855 0.93705 0.0
C932 C 0.82824 0.54477 0.91248 0.0
C933 C 0.80868 0.55318 0.97616 0.0
C934 C 0.81974 0.57245 0.98373 0.0
C935 C 0.79736 0.54011 0.99327 0.0
C936 C 0.78704 0.51856 0.9871 0.0
C937 C 0.7995 0.50191 0.97585 0.0
C938 C 0.78967 0.48168 0.96999 0.0
C939 C 0.76742 0.47784 0.97543 0.0
C940 C 0.75498 0.49419 0.98682 0.0
C941 C 0.76472 0.51446 0.99271 0.0
H942 H 0.75984 0.46216 0.97087 0.0
H943 H 0.86339 0.65284 0.03295 0.0
H944 H 0.10879 0.19568 0.31819 0.0
H945 H 0.13737 0.16755 0.3133 0.0
H946 H 0.18786 0.21803 0.31617 0.0
H947 H 0.15923 0.24644 0.32055 0.0
H948 H 0.1972 0.18811 0.28215 0.0
H949 H 0.17692 0.18555 0.36463 0.0
H950 H 0.15132 0.18299 0.39875 0.0
H951 H 0.12975 0.11895 0.37502 0.0
H952 H 0.15502 0.12126 0.34057 0.0
H953 H 0.28688 0.11411 0.30896 0.0
H954 H 0.25933 0.14368 0.30706 0.0
H955 H 0.20704 0.09506 0.30474 0.0
H956 H 0.23437 0.06544 0.30704 0.0
H957 H 0.19926 0.12481 0.3384 0.0
H958 H 0.22038 0.12738 0.25592 0.0
H959 H 0.2464 0.13022 0.22222 0.0
H960 H 0.26717 0.19436 0.24647 0.0
H961 H 0.24147 0.19177 0.28052 0.0
C962 C 0.12596 0.20086 0.31776 0.0
C963 C 0.13172 0.22332 0.31996 0.0
C964 C 0.14231 0.18472 0.31502 0.0
C965 C 0.1648 0.19062 0.31473 0.0
C966 C 0.17061 0.21307 0.31641 0.0
C967 C 0.15423 0.22928 0.31903 0.0
C968 C 0.18219 0.17327 0.31308 0.0
C969 C 0.19785 0.1744 0.29462 0.0
C970 C 0.18282 0.15518 0.32911 0.0
C971 C 0.16771 0.15368 0.3499 0.0
C972 C 0.1666 0.17099 0.3666 0.0
C973 C 0.15217 0.16958 0.38601 0.0
C974 C 0.13888 0.15085 0.38902 0.0
C975 C 0.14004 0.13346 0.37265 0.0
C976 C 0.15443 0.13481 0.35319 0.0
C977 C 0.26954 0.10967 0.3076 0.0
C978 C 0.26287 0.08735 0.30832 0.0
C979 C 0.25379 0.12663 0.30646 0.0
C980 C 0.23108 0.12161 0.30576 0.0
C981 C 0.22445 0.09935 0.30539 0.0
C982 C 0.24015 0.08241 0.30662 0.0
C983 C 0.21415 0.13943 0.30726 0.0
C984 C 0.19862 0.13845 0.32584 0.0
C985 C 0.21374 0.15766 0.29141 0.0
C986 C 0.22915 0.15928 0.2709 0.0
C987 C 0.23062 0.14201 0.25418 0.0
C988 C 0.24529 0.14359 0.23499 0.0
C989 C 0.25847 0.16243 0.23224 0.0
C990 C 0.25697 0.17976 0.24864 0.0
C991 C 0.24234 0.17825 0.26787 0.0
H992 H 0.26982 0.16363 0.21737 0.0
H993 H 0.12772 0.14978 0.40405 0.0
H994 H 0.87285 0.16142 0.33257 0.0
H995 H 0.90177 0.18986 0.33018 0.0
H996 H 0.94111 0.14683 0.28592 0.0
H997 H 0.91233 0.11844 0.28806 0.0
H998 H 0.96476 0.16615 0.32392 0.0
H999 H 0.91489 0.18821 0.26075 0.0
H1000 H 0.87839 0.19848 0.24447 0.0
H1001 H 0.87514 0.25376 0.2924 0.0
H1002 H 0.91151 0.24362 0.30921 0.0
H1003 H 0.04886 0.23996 0.29188 0.0
H1004 H 0.01796 0.21404 0.28836 0.0
H1005 H 0.97426 0.26218 0.32014 0.0
H1006 H 0.00485 0.28853 0.32264 0.0
H1007 H 0.95215 0.24037 0.28857 0.0
H1008 H 0.99924 0.21945 0.35322 0.0
H1009 H 0.03456 0.20991 0.37273 0.0
H1010 H 0.04159 0.15352 0.32681 0.0
H1011 H 0.00643 0.16291 0.3068 0.0
C1012 C 0.88766 0.15803 0.32231 0.0
C1013 C 0.8903 0.13767 0.31051 0.0
C1014 C 0.90411 0.17432 0.32089 0.0
C1015 C 0.92353 0.17046 0.30777 0.0
C1016 C 0.92624 0.15013 0.29611 0.0
C1017 C 0.90973 0.13396 0.2973 0.0
C1018 C 0.94125 0.18744 0.30649 0.0
C1019 C 0.96212 0.18228 0.3159 0.0
C1020 C 0.93753 0.20872 0.29676 0.0
C1021 C 0.91583 0.21503 0.28639 0.0
C1022 C 0.90633 0.20246 0.26793 0.0
C1023 C 0.88567 0.20828 0.25859 0.0
C1024 C 0.87442 0.22673 0.26744 0.0
C1025 C 0.88385 0.23946 0.28558 0.0
C1026 C 0.9045 0.2337 0.29501 0.0
C1027 C 0.03258 0.24516 0.29773 0.0
C1028 C 0.02936 0.26624 0.30774 0.0
C1029 C 0.01494 0.23026 0.29588 0.0
C1030 C 0.99387 0.23588 0.30462 0.0
C1031 C 0.99036 0.25736 0.3134 0.0
C1032 C 0.0079 0.27243 0.31483 0.0
C1033 C 0.97586 0.21904 0.30582 0.0
C1034 C 0.95488 0.22424 0.29652 0.0
C1035 C 0.97932 0.1979 0.31614 0.0
C1036 C 1.00031 0.19201 0.32836 0.0
C1037 C 0.00838 0.20509 0.34719 0.0
C1038 C 0.02836 0.1997 0.35835 0.0
C1039 C 0.04034 0.18116 0.35097 0.0
C1040 C 0.03231 0.1679 0.33248 0.0
C1041 C 0.01234 0.17324 0.32124 0.0
H1042 H 0.05582 0.17702 0.35961 0.0
H1043 H 0.85841 0.23118 0.26021 0.0
H1044 H 0.88725 0.05301 0.31314 0.0
H1045 H 0.91384 0.02278 0.31079 0.0
H1046 H 0.86057 0.97642 0.29916 0.0
H1047 H 0.83372 0.00657 0.30197 0.0
H1048 H 0.887 0.96199 0.33324 0.0
H1049 H 0.89792 0.9897 0.2545 0.0
H1050 H 0.90492 0.01785 0.2236 0.0
H1051 H 0.96814 0.03242 0.25494 0.0
H1052 H 0.9614 0.00456 0.28624 0.0
H1053 H 0.9611 0.87169 0.31506 0.0
H1054 H 0.93274 0.89996 0.30855 0.0
H1055 H 0.98072 0.95112 0.32307 0.0
H1056 H 0.0092 0.92303 0.32938 0.0
H1057 H 0.95558 0.9614 0.28464 0.0
H1058 H 0.94313 0.93591 0.36493 0.0
H1059 H 0.93607 0.90801 0.3961 0.0
H1060 H 0.87541 0.88944 0.36151 0.0
H1061 H 0.88228 0.91704 0.32994 0.0
C1062 C 0.88115 0.03646 0.30967 0.0
C1063 C 0.85828 0.03226 0.30786 0.0
C1064 C 0.89644 0.01916 0.30824 0.0
C1065 C 0.88926 0.99729 0.30468 0.0
C1066 C 0.86651 0.99314 0.30196 0.0
C1067 C 0.85118 0.01044 0.30347 0.0
C1068 C 0.90534 0.97865 0.3056 0.0
C1069 C 0.90176 0.96165 0.32224 0.0
C1070 C 0.9249 0.97842 0.29169 0.0
C1071 C 0.92907 0.99515 0.27284 0.0
C1072 C 0.91325 0.99902 0.25491 0.0
C1073 C 0.91718 0.01491 0.2373 0.0
C1074 C 0.93694 0.02695 0.23733 0.0
C1075 C 0.95283 0.02309 0.25494 0.0
C1076 C 0.94898 0.00723 0.27261 0.0
C1077 C 0.96563 0.88895 0.31688 0.0
C1078 C 0.98742 0.89508 0.32287 0.0
C1079 C 0.94938 0.9051 0.31319 0.0
C1080 C 0.95456 0.92767 0.3155 0.0
C1081 C 0.97635 0.93382 0.32116 0.0
C1082 C 0.99259 0.91771 0.32488 0.0
C1083 C 0.93726 0.94492 0.31237 0.0
C1084 C 0.94066 0.96166 0.2954 0.0
C1085 C 0.91751 0.94492 0.32595 0.0
C1086 C 0.91335 0.92836 0.34493 0.0
C1087 C 0.92838 0.92575 0.36386 0.0
C1088 C 0.9244 0.91002 0.38162 0.0
C1089 C 0.90534 0.89692 0.38075 0.0
C1090 C 0.89019 0.89957 0.36214 0.0
C1091 C 0.89411 0.91526 0.34432 0.0
H1092 H 0.90228 0.88475 0.39452 0.0
H1093 H 0.93995 0.03925 0.22369 0.0
H1094 H 0.24782 0.95767 0.32976 0.0
H1095 H 0.21877 0.92935 0.32716 0.0
H1096 H 0.17637 0.97554 0.29046 0.0
H1097 H 0.20524 0.0038 0.29282 0.0
H1098 H 0.15532 0.95313 0.32797 0.0
H1099 H 0.2008 0.93649 0.25945 0.0
H1100 H 0.23592 0.92764 0.23921 0.0
H1101 H 0.24244 0.86869 0.28137 0.0
H1102 H 0.20749 0.87737 0.30212 0.0
H1103 H 0.0694 0.88135 0.2953 0.0
H1104 H 0.0999 0.90778 0.29203 0.0
H1105 H 0.14567 0.85775 0.31618 0.0
H1106 H 0.11545 0.83099 0.3184 0.0
H1107 H 0.1656 0.88207 0.28509 0.0
H1108 H 0.12253 0.89766 0.35466 0.0
H1109 H 0.08844 0.90556 0.37728 0.0
H1110 H 0.07881 0.96523 0.33701 0.0
H1111 H 0.11271 0.95752 0.31392 0.0
C1112 C 0.23231 0.96177 0.32113 0.0
C1113 C 0.22884 0.98298 0.31149 0.0
C1114 C 0.21578 0.94556 0.31958 0.0
C1115 C 0.19546 0.95033 0.30852 0.0
C1116 C 0.19192 0.97152 0.29906 0.0
C1117 C 0.20849 0.98762 0.30036 0.0
C1118 C 0.17769 0.9334 0.30704 0.0
C1119 C 0.15744 0.9377 0.31834 0.0
C1120 C 0.18073 0.91301 0.2951 0.0
C1121 C 0.20164 0.9077 0.2825 0.0
C1122 C 0.20981 0.92174 0.26454 0.0
C1123 C 0.22967 0.91674 0.25295 0.0
C1124 C 0.24143 0.89765 0.25904 0.0
C1125 C 0.23332 0.88349 0.27669 0.0
C1126 C 0.21348 0.88843 0.28835 0.0
C1127 C 0.08602 0.87587 0.29952 0.0
C1128 C 0.08994 0.85411 0.30733 0.0
C1129 C 0.10344 0.89105 0.29782 0.0
C1130 C 0.12504 0.88498 0.30453 0.0
C1131 C 0.12917 0.86293 0.31105 0.0
C1132 C 0.11183 0.84762 0.31232 0.0
C1133 C 0.14305 0.90181 0.30592 0.0
C1134 C 0.16339 0.89749 0.29469 0.0
C1135 C 0.14025 0.92205 0.31834 0.0
C1136 C 0.12003 0.9269 0.33241 0.0
C1137 C 0.11307 0.9124 0.35054 0.0
C1138 C 0.09379 0.91685 0.36345 0.0
C1139 C 0.08143 0.93585 0.35854 0.0
C1140 C 0.08838 0.9505 0.34077 0.0
C1141 C 0.10764 0.94611 0.32778 0.0
H1142 H 0.0665 0.93926 0.36854 0.0
H1143 H 0.25681 0.89381 0.25005 0.0
H1144 H 0.23684 0.04695 0.6628 0.0
H1145 H 0.2105 0.0167 0.66657 0.0
H1146 H 0.24883 0.98947 0.72458 0.0
H1147 H 0.27634 0.01897 0.71935 0.0
H1148 H 0.23726 0.95768 0.7001 0.0
H1149 H 0.19469 0.01743 0.73057 0.0
H1150 H 0.17802 0.05466 0.73179 0.0
H1151 H 0.14126 0.04043 0.66811 0.0
H1152 H 0.15793 0.00322 0.66632 0.0
H1153 H 0.14311 0.8874 0.73123 0.0
H1154 H 0.16944 0.91833 0.7329 0.0
H1155 H 0.16014 0.92991 0.6578 0.0
H1156 H 0.13432 0.8986 0.65579 0.0
H1157 H 0.15607 0.9691 0.69493 0.0
H1158 H 0.20287 0.90869 0.6658 0.0
H1159 H 0.21869 0.87119 0.66895 0.0
H1160 H 0.24618 0.88734 0.73734 0.0
H1161 H 0.23019 0.92485 0.73474 0.0
C1162 C 0.23948 0.03469 0.6766 0.0
C1163 C 0.2585 0.03543 0.69097 0.0
C1164 C 0.22428 0.0174 0.67888 0.0
C1165 C 0.22719 1.00092 0.6963 0.0
C1166 C 0.24606 1.00192 0.71102 0.0
C1167 C 0.26172 0.01885 0.70817 0.0
C1168 C 0.2112 0.98209 0.69815 0.0
C1169 C 0.21952 0.96037 0.69942 0.0
C1170 C 0.18791 0.98525 0.69713 0.0
C1171 C 0.17769 0.00758 0.69824 0.0
C1172 C 0.18315 0.02228 0.71676 0.0
C1173 C 0.17369 0.04338 0.71755 0.0
C1174 C 0.15862 0.04992 0.70002 0.0
C1175 C 0.15294 0.03535 0.68168 0.0
C1176 C 0.16236 0.01424 0.68079 0.0
C1177 C 0.14671 0.89651 0.71507 0.0
C1178 C 0.13667 0.89059 0.69337 0.0
C1179 C 0.16175 0.91413 0.71606 0.0
C1180 C 0.16665 0.92635 0.69549 0.0
C1181 C 0.15651 0.92064 0.67386 0.0
C1182 C 0.14186 0.90272 0.67273 0.0
C1183 C 0.18232 0.94517 0.6965 0.0
C1184 C 0.17386 0.96674 0.69584 0.0
C1185 C 0.20537 0.94193 0.69876 0.0
C1186 C 0.2151 0.91946 0.7002 0.0
C1187 C 0.21208 0.90416 0.68161 0.0
C1188 C 0.22113 0.88292 0.68328 0.0
C1189 C 0.23337 0.87686 0.70337 0.0
C1190 C 0.23665 0.89205 0.72181 0.0
C1191 C 0.22762 0.9133 0.72024 0.0
H1192 H 0.24036 0.86041 0.70462 0.0
H1193 H 0.15133 0.06627 0.70066 0.0
H1194 H 0.11434 0.29162 0.69053 0.0
H1195 H 0.14615 0.26671 0.6929 0.0
H1196 H 0.10211 0.21066 0.69729 0.0
H1197 H 0.07023 0.23533 0.69471 0.0
H1198 H 0.16202 0.23552 0.7235 0.0
H1199 H 0.12226 0.16995 0.66169 0.0
H1200 H 0.09404 0.16795 0.62996 0.0
H1201 H 0.10597 0.23605 0.61218 0.0
H1202 H 0.13447 0.23836 0.64355 0.0
H1203 H 0.22441 0.13588 0.7242 0.0
H1204 H 0.19517 0.16372 0.72594 0.0
H1205 H 0.20931 0.18274 0.65344 0.0
H1206 H 0.23845 0.15468 0.65143 0.0
H1207 H 0.16599 0.17864 0.65986 0.0
H1208 H 0.22516 0.21536 0.70003 0.0
H1209 H 0.25505 0.21975 0.72959 0.0
H1210 H 0.2079 0.21364 0.78645 0.0
H1211 H 0.17774 0.20889 0.75722 0.0
C1212 C 0.11137 0.27403 0.69241 0.0
C1213 C 0.08967 0.26548 0.69208 0.0
C1214 C 0.12961 0.25981 0.69379 0.0
C1215 C 0.12651 0.23681 0.6948 0.0
C1216 C 0.10489 0.22834 0.69608 0.0
C1217 C 0.08666 0.24251 0.69468 0.0
C1218 C 0.14574 0.22161 0.69284 0.0
C1219 C 0.16288 0.22303 0.70966 0.0
C1220 C 0.14715 0.2057 0.67437 0.0
C1221 C 0.13033 0.20436 0.65514 0.0
C1222 C 0.11892 0.18446 0.65094 0.0
C1223 C 0.10287 0.18328 0.63302 0.0
C1224 C 0.09816 0.20188 0.61911 0.0
C1225 C 0.10957 0.22168 0.62302 0.0
C1226 C 0.12566 0.22293 0.64088 0.0
C1227 C 0.22138 0.14602 0.70862 0.0
C1228 C 0.23378 0.14303 0.68766 0.0
C1229 C 0.2047 0.16202 0.7097 0.0
C1230 C 0.20016 0.17548 0.6899 0.0
C1231 C 0.21252 0.17255 0.66894 0.0
C1232 C 0.22921 0.15653 0.66784 0.0
C1233 C 0.1821 0.19217 0.69086 0.0
C1234 C 0.16516 0.19106 0.67379 0.0
C1235 C 0.18115 0.20864 0.70879 0.0
C1236 C 0.19922 0.21157 0.72643 0.0
C1237 C 0.22118 0.21478 0.71884 0.0
C1238 C 0.23817 0.21736 0.73553 0.0
C1239 C 0.23339 0.21692 0.75988 0.0
C1240 C 0.21158 0.21395 0.76758 0.0
C1241 C 0.19453 0.21133 0.75096 0.0
H1242 H 0.24656 0.21893 0.77278 0.0
H1243 H 0.08571 0.20094 0.60528 0.0
H1244 H 0.83241 0.11273 0.68824 0.0
H1245 H 0.85968 0.14253 0.69031 0.0
H1246 H 0.91198 0.0946 0.69842 0.0
H1247 H 0.88483 0.06454 0.69606 0.0
H1248 H 0.91637 0.13365 0.72803 0.0
H1249 H 0.90465 0.1126 0.64643 0.0
H1250 H 0.88208 0.10446 0.61092 0.0
H1251 H 0.85698 0.17093 0.61126 0.0
H1252 H 0.87912 0.17934 0.64711 0.0
H1253 H 0.00948 0.19581 0.68993 0.0
H1254 H 0.98053 0.168 0.69491 0.0
H1255 H 0.93082 0.21677 0.67805 0.0
H1256 H 0.95978 0.24481 0.67294 0.0
H1257 H 0.92399 0.17817 0.65412 0.0
H1258 H 0.93745 0.19992 0.73464 0.0
H1259 H 0.95982 0.20779 0.7704 0.0
H1260 H 0.9817 0.14021 0.77227 0.0
H1261 H 0.9597 0.13201 0.73629 0.0
C1262 C 0.84965 0.10846 0.69089 0.0
C1263 C 0.85644 0.08619 0.69177 0.0
C1264 C 0.86522 0.12555 0.692 0.0
C1265 C 0.88784 0.12074 0.69425 0.0
C1266 C 0.89458 0.09863 0.69664 0.0
C1267 C 0.87904 0.08148 0.69523 0.0
C1268 C 0.90452 0.13866 0.69229 0.0
C1269 C 0.91823 0.14327 0.71183 0.0
C1270 C 0.90656 0.15145 0.67128 0.0
C1271 C 0.89334 0.14652 0.64963 0.0
C1272 C 0.89416 0.12542 0.63908 0.0
C1273 C 0.88147 0.12077 0.61885 0.0
C1274 C 0.86806 0.13715 0.60886 0.0
C1275 C 0.86735 0.15824 0.61905 0.0
C1276 C 0.87996 0.16296 0.63932 0.0
C1277 C 0.9924 0.20069 0.68731 0.0
C1278 C 0.98696 0.22256 0.68102 0.0
C1279 C 0.97585 0.18476 0.69029 0.0
C1280 C 0.95349 0.19034 0.6871 0.0
C1281 C 0.94797 0.21212 0.68066 0.0
C1282 C 0.96454 0.22812 0.67778 0.0
C1283 C 0.93597 0.17325 0.68989 0.0
C1284 C 0.92209 0.16872 0.67043 0.0
C1285 C 0.93381 0.16055 0.71099 0.0
C1286 C 0.94708 0.16541 0.73262 0.0
C1287 C 0.94718 0.18678 0.74255 0.0
C1288 C 0.95977 0.19129 0.76288 0.0
C1289 C 0.97222 0.17452 0.77356 0.0
C1290 C 0.97207 0.15319 0.76395 0.0
C1291 C 0.95953 0.1486 0.7436 0.0
H1292 H 0.98195 0.17805 0.78931 0.0
H1293 H 0.85826 0.13351 0.59319 0.0
H1294 H 0.00414 0.8308 0.68207 0.0
H1295 H 0.97312 0.85665 0.68483 0.0
H1296 H 0.0174 0.90789 0.70904 0.0
H1297 H 0.04875 0.88229 0.70577 0.0
H1298 H 0.97277 0.90339 0.73389 0.0
H1299 H 0.00764 0.91231 0.65686 0.0
H1300 H 0.02269 0.89908 0.61861 0.0
H1301 H 0.95935 0.87157 0.60031 0.0
H1302 H 0.94399 0.8844 0.63867 0.0
H1303 H 0.90974 0.99977 0.71256 0.0
H1304 H 0.93855 0.97162 0.71512 0.0
H1305 H 0.90017 0.92863 0.66965 0.0
H1306 H 0.87154 0.95717 0.66634 0.0
H1307 H 0.9412 0.92734 0.6564 0.0
H1308 H 0.90509 0.92038 0.73174 0.0
H1309 H 0.88958 0.93302 0.77002 0.0
H1310 H 0.9539 0.95534 0.79212 0.0
H1311 H 0.96975 0.9431 0.75383 0.0
C1312 C 0.00727 0.84744 0.68842 0.0
C1313 C 0.02895 0.85453 0.69358 0.0
C1314 C 0.98952 0.86219 0.6899 0.0
C1315 C 0.99305 0.88416 0.69697 0.0
C1316 C 0.0144 0.89097 0.70355 0.0
C1317 C 0.03227 0.87634 0.70163 0.0
C1318 C 0.97473 0.90038 0.69579 0.0
C1319 C 0.96595 0.90886 0.717 0.0
C1320 C 0.96555 0.90695 0.67373 0.0
C1321 C 0.97474 0.89909 0.65074 0.0
C1322 C 0.99698 0.90322 0.6448 0.0
C1323 C 0.00555 0.89586 0.62308 0.0
C1324 C 0.99199 0.88448 0.60706 0.0
C1325 C 0.96984 0.88039 0.61275 0.0
C1326 C 0.96119 0.88772 0.63448 0.0
C1327 C 0.90737 0.98429 0.70317 0.0
C1328 C 0.88832 0.98068 0.68929 0.0
C1329 C 0.92383 0.96813 0.70476 0.0
C1330 C 0.92141 0.94778 0.69295 0.0
C1331 C 0.90241 0.94415 0.67899 0.0
C1332 C 0.88605 0.96047 0.67713 0.0
C1333 C 0.93903 0.93061 0.69459 0.0
C1334 C 0.94777 0.92188 0.6734 0.0
C1335 C 0.94802 0.92368 0.71673 0.0
C1336 C 0.93857 0.93099 0.73982 0.0
C1337 C 0.9159 0.92812 0.74469 0.0
C1338 C 0.90705 0.9352 0.76641 0.0
C1339 C 0.92074 0.94502 0.78347 0.0
C1340 C 0.94332 0.94775 0.77888 0.0
C1341 C 0.95224 0.94072 0.75719 0.0
H1342 H 0.91386 0.95049 0.80027 0.0
H1343 H 0.99864 0.87893 0.59019 0.0
H1344 H 0.61369 0.69533 0.83257 0.0
H1345 H 0.64243 0.66752 0.82698 0.0
H1346 H 0.69043 0.71898 0.81376 0.0
H1347 H 0.66153 0.74704 0.81887 0.0
H1348 H 0.696 0.68536 0.78304 0.0
H1349 H 0.68909 0.6925 0.86722 0.0
H1350 H 0.66992 0.69415 0.90595 0.0
H1351 H 0.64663 0.62758 0.89638 0.0
H1352 H 0.66541 0.62564 0.85741 0.0
H1353 H 0.78886 0.61199 0.80516 0.0
H1354 H 0.76204 0.64238 0.80427 0.0
H1355 H 0.70856 0.59554 0.8113 0.0
H1356 H 0.73505 0.56514 0.81209 0.0
H1357 H 0.70778 0.62852 0.84557 0.0
H1358 H 0.71523 0.62239 0.76035 0.0
H1359 H 0.7357 0.62151 0.72237 0.0
H1360 H 0.76003 0.68722 0.73527 0.0
H1361 H 0.73993 0.68838 0.77351 0.0
C1362 C 0.63034 0.7008 0.8285 0.0
C1363 C 0.63533 0.72345 0.82635 0.0
C1364 C 0.6468 0.68484 0.82536 0.0
C1365 C 0.66869 0.69114 0.82029 0.0
C1366 C 0.67368 0.71372 0.81772 0.0
C1367 C 0.65716 0.72974 0.82076 0.0
C1368 C 0.68627 0.67405 0.81792 0.0
C1369 C 0.69881 0.67313 0.79686 0.0
C1370 C 0.68982 0.65793 0.83584 0.0
C1371 C 0.6785 0.65901 0.85929 0.0
C1372 C 0.67974 0.67828 0.87328 0.0
C1373 C 0.66897 0.67925 0.8953 0.0
C1374 C 0.65702 0.661 0.9036 0.0
C1375 C 0.65587 0.64172 0.88992 0.0
C1376 C 0.66659 0.64066 0.86787 0.0
C1377 C 0.77137 0.6081 0.80601 0.0
C1378 C 0.76417 0.58609 0.80889 0.0
C1379 C 0.75607 0.62551 0.8055 0.0
C1380 C 0.73332 0.62121 0.80787 0.0
C1381 C 0.72605 0.59922 0.80958 0.0
C1382 C 0.74126 0.58184 0.80993 0.0
C1383 C 0.71717 0.63956 0.81052 0.0
C1384 C 0.70499 0.64078 0.83176 0.0
C1385 C 0.71419 0.65604 0.7929 0.0
C1386 C 0.72627 0.65537 0.76992 0.0
C1387 C 0.72511 0.63657 0.7552 0.0
C1388 C 0.73661 0.63604 0.7336 0.0
C1389 C 0.74921 0.65427 0.72644 0.0
C1390 C 0.75029 0.6731 0.74085 0.0
C1391 C 0.73883 0.67371 0.76248 0.0
H1392 H 0.7581 0.65383 0.70971 0.0
H1393 H 0.6487 0.66179 0.92065 0.0
H1394 H 0.55203 0.73177 0.81354 0.0
H1395 H 0.521 0.7061 0.81142 0.0
H1396 H 0.47601 0.76077 0.80151 0.0
H1397 H 0.50702 0.78672 0.80427 0.0
H1398 H 0.46089 0.73464 0.83478 0.0
H1399 H 0.48786 0.72287 0.75597 0.0
H1400 H 0.51559 0.71517 0.72483 0.0
H1401 H 0.52889 0.65173 0.75618 0.0
H1402 H 0.50146 0.65916 0.78771 0.0
H1403 H 0.36916 0.66133 0.81759 0.0
H1404 H 0.39767 0.68947 0.81079 0.0
H1405 H 0.4485 0.64132 0.82579 0.0
H1406 H 0.4202 0.6131 0.83244 0.0
H1407 H 0.45854 0.66585 0.78663 0.0
H1408 H 0.43388 0.67943 0.86714 0.0
H1409 H 0.40623 0.68726 0.89833 0.0
H1410 H 0.38846 0.74774 0.86299 0.0
H1411 H 0.41583 0.74011 0.8314 0.0
C1412 C 0.53561 0.73838 0.81047 0.0
C1413 C 0.53206 0.76137 0.80917 0.0
C1414 C 0.51783 0.72362 0.80917 0.0
C1415 C 0.49611 0.73143 0.80614 0.0
C1416 C 0.4926 0.75432 0.80389 0.0
C1417 C 0.51038 0.76914 0.80537 0.0
C1418 C 0.47702 0.71583 0.80715 0.0
C1419 C 0.46017 0.71984 0.82385 0.0
C1420 C 0.47624 0.69624 0.79332 0.0
C1421 C 0.4927 0.69165 0.77431 0.0
C1422 C 0.49681 0.70734 0.75632 0.0
C1423 C 0.51246 0.70301 0.73858 0.0
C1424 C 0.52402 0.68299 0.73855 0.0
C1425 C 0.51993 0.66723 0.75623 0.0
C1426 C 0.5043 0.67148 0.77403 0.0
C1427 C 0.38641 0.65673 0.81948 0.0
C1428 C 0.39239 0.63497 0.82567 0.0
C1429 C 0.40268 0.67285 0.81562 0.0
C1430 C 0.42523 0.66754 0.81792 0.0
C1431 C 0.43122 0.64579 0.82387 0.0
C1432 C 0.41499 0.6297 0.82778 0.0
C1433 C 0.44267 0.68461 0.81439 0.0
C1434 C 0.45918 0.68083 0.79727 0.0
C1435 C 0.44313 0.70445 0.82777 0.0
C1436 C 0.42672 0.70907 0.84677 0.0
C1437 C 0.42395 0.6943 0.86592 0.0
C1438 C 0.40835 0.69872 0.88369 0.0
C1439 C 0.39555 0.71795 0.8826 0.0
C1440 C 0.39836 0.73283 0.86378 0.0
C1441 C 0.41392 0.72847 0.84595 0.0
H1442 H 0.38349 0.72135 0.89638 0.0
H1443 H 0.53614 0.67968 0.72481 0.0
H1444 H 0.45666 0.3742 0.82178 0.0
H1445 H 0.42857 0.4028 0.81558 0.0
H1446 H 0.47931 0.45309 0.81778 0.0
H1447 H 0.50731 0.42472 0.82466 0.0
H1448 H 0.44558 0.46564 0.84327 0.0
H1449 H 0.45425 0.43538 0.76454 0.0
H1450 H 0.45507 0.40574 0.73436 0.0
H1451 H 0.38713 0.39007 0.74939 0.0
H1452 H 0.386 0.41944 0.7799 0.0
H1453 H 0.38293 0.55551 0.80359 0.0
H1454 H 0.41027 0.52582 0.80193 0.0
H1455 H 0.358 0.47724 0.80508 0.0
H1456 H 0.33044 0.50682 0.80631 0.0
H1457 H 0.39192 0.46355 0.77632 0.0
H1458 H 0.38361 0.49313 0.85545 0.0
H1459 H 0.38258 0.5229 0.88549 0.0
H1460 H 0.45008 0.53967 0.86955 0.0
H1461 H 0.4514 0.51019 0.83916 0.0
C1462 C 0.46182 0.39136 0.82095 0.0
C1463 C 0.48423 0.39718 0.82374 0.0
C1464 C 0.44576 0.40769 0.81724 0.0
C1465 C 0.45183 0.43012 0.81588 0.0
C1466 C 0.47419 0.43592 0.81874 0.0
C1467 C 0.4902 0.41965 0.82266 0.0
C1468 C 0.43493 0.44769 0.81213 0.0
C1469 C 0.43409 0.4653 0.8284 0.0
C1470 C 0.4195 0.44703 0.7931 0.0
C1471 C 0.42011 0.42947 0.77466 0.0
C1472 C 0.43954 0.42551 0.76152 0.0
C1473 C 0.44005 0.40877 0.74434 0.0
C1474 C 0.42118 0.39599 0.74 0.0
C1475 C 0.40174 0.39996 0.75279 0.0
C1476 C 0.40115 0.41667 0.77001 0.0
C1477 C 0.37716 0.53853 0.80344 0.0
C1478 C 0.35447 0.53358 0.80545 0.0
C1479 C 0.39285 0.52156 0.80258 0.0
C1480 C 0.38619 0.49933 0.80396 0.0
C1481 C 0.36351 0.49429 0.80415 0.0
C1482 C 0.34777 0.51126 0.80489 0.0
C1483 C 0.40286 0.48153 0.80727 0.0
C1484 C 0.40354 0.46386 0.79106 0.0
C1485 C 0.41819 0.48209 0.82636 0.0
C1486 C 0.41753 0.49959 0.84489 0.0
C1487 C 0.39819 0.50326 0.85826 0.0
C1488 C 0.39756 0.52007 0.87535 0.0
C1489 C 0.41624 0.5332 0.87938 0.0
C1490 C 0.43561 0.5295 0.86638 0.0
C1491 C 0.43632 0.51273 0.84924 0.0
H1492 H 0.41571 0.54622 0.89261 0.0
H1493 H 0.42162 0.38304 0.7267 0.0
H1494 H 0.74789 0.45797 0.81912 0.0
H1495 H 0.71882 0.43037 0.81259 0.0
H1496 H 0.66903 0.47948 0.82798 0.0
H1497 H 0.69791 0.50696 0.83504 0.0
H1498 H 0.65926 0.44209 0.8497 0.0
H1499 H 0.6811 0.46247 0.77012 0.0
H1500 H 0.70744 0.46805 0.73708 0.0
H1501 H 0.72448 0.39909 0.73886 0.0
H1502 H 0.69845 0.39315 0.77213 0.0
H1503 H 0.56462 0.3882 0.808 0.0
H1504 H 0.59527 0.41451 0.80745 0.0
H1505 H 0.64177 0.36074 0.80113 0.0
H1506 H 0.61118 0.33416 0.80168 0.0
H1507 H 0.65398 0.39906 0.77459 0.0
H1508 H 0.63113 0.37854 0.85319 0.0
H1509 H 0.60369 0.37269 0.88501 0.0
H1510 H 0.58877 0.44215 0.88542 0.0
H1511 H 0.61553 0.4483 0.85286 0.0
C1512 C 0.73074 0.46288 0.82115 0.0
C1513 C 0.72523 0.4847 0.82759 0.0
C1514 C 0.71413 0.44711 0.81727 0.0
C1515 C 0.69168 0.45289 0.81949 0.0
C1516 C 0.6862 0.4746 0.82614 0.0
C1517 C 0.70277 0.49033 0.83014 0.0
C1518 C 0.67383 0.43636 0.8152 0.0
C1519 C 0.65799 0.43292 0.83314 0.0
C1520 C 0.67243 0.42391 0.79385 0.0
C1521 C 0.68799 0.42742 0.77377 0.0
C1522 C 0.69059 0.44853 0.76358 0.0
C1523 C 0.70544 0.45175 0.74479 0.0
C1524 C 0.71767 0.43395 0.73592 0.0
C1525 C 0.71502 0.41287 0.74577 0.0
C1526 C 0.70021 0.40956 0.76458 0.0
C1527 C 0.58129 0.38191 0.80597 0.0
C1528 C 0.58542 0.35899 0.80527 0.0
C1529 C 0.59881 0.39701 0.80569 0.0
C1530 C 0.62079 0.38954 0.80467 0.0
C1531 C 0.62492 0.36683 0.80203 0.0
C1532 C 0.60739 0.35166 0.80241 0.0
C1533 C 0.63933 0.40519 0.80889 0.0
C1534 C 0.65531 0.40832 0.79108 0.0
C1535 C 0.6409 0.41739 0.83037 0.0
C1536 C 0.62518 0.41385 0.85037 0.0
C1537 C 0.62186 0.39255 0.85988 0.0
C1538 C 0.60641 0.38917 0.87805 0.0
C1539 C 0.59451 0.40704 0.88727 0.0
C1540 C 0.59799 0.42832 0.87826 0.0
C1541 C 0.61325 0.43175 0.85988 0.0
H1542 H 0.58262 0.40439 0.90142 0.0
H1543 H 0.72916 0.43647 0.72138 0.0
H1544 H 0.643 0.3929 0.15385 0.0
H1545 H 0.67004 0.42292 0.15631 0.0
H1546 H 0.67062 0.41706 0.23296 0.0
H1547 H 0.64275 0.38777 0.23059 0.0
H1548 H 0.67104 0.45797 0.22284 0.0
H1549 H 0.71379 0.39653 0.19542 0.0
H1550 H 0.72321 0.36499 0.16944 0.0
H1551 H 0.72805 0.40869 0.10932 0.0
H1552 H 0.71838 0.44045 0.13488 0.0
H1553 H 0.78986 0.5076 0.19804 0.0
H1554 H 0.76459 0.47635 0.20309 0.0
H1555 H 0.70888 0.51951 0.19072 0.0
H1556 H 0.73394 0.5509 0.18625 0.0
H1557 H 0.73838 0.45809 0.17229 0.0
H1558 H 0.66308 0.5005 0.21809 0.0
H1559 H 0.65593 0.53003 0.24742 0.0
H1560 H 0.72069 0.52064 0.27733 0.0
H1561 H 0.72812 0.49086 0.24841 0.0
C1562 C 0.64895 0.39798 0.17121 0.0
C1563 C 0.6408 0.38793 0.19202 0.0
C1564 C 0.66451 0.41509 0.17261 0.0
C1565 C 0.67276 0.42207 0.19481 0.0
C1566 C 0.66457 0.41203 0.21561 0.0
C1567 C 0.64867 0.39523 0.21424 0.0
C1568 C 0.68964 0.44004 0.19637 0.0
C1569 C 0.68578 0.45793 0.21182 0.0
C1570 C 0.7092 0.43988 0.18242 0.0
C1571 C 0.7152 0.42084 0.16704 0.0
C1572 C 0.71675 0.39939 0.17663 0.0
C1573 C 0.72214 0.38148 0.16199 0.0
C1574 C 0.72619 0.38483 0.13774 0.0
C1575 C 0.7249 0.40611 0.1281 0.0
C1576 C 0.71949 0.42408 0.14266 0.0
C1577 C 0.77221 0.51054 0.19677 0.0
C1578 C 0.76397 0.53181 0.19172 0.0
C1579 C 0.75777 0.4926 0.19956 0.0
C1580 C 0.73479 0.49553 0.19738 0.0
C1581 C 0.7265 0.51684 0.19289 0.0
C1582 C 0.7409 0.53481 0.19026 0.0
C1583 C 0.71958 0.47614 0.19846 0.0
C1584 C 0.72371 0.45803 0.18343 0.0
C1585 C 0.70062 0.47581 0.21329 0.0
C1586 C 0.69621 0.49358 0.23092 0.0
C1587 C 0.67576 0.50467 0.23099 0.0
C1588 C 0.67167 0.52147 0.24753 0.0
C1589 C 0.68787 0.52726 0.26418 0.0
C1590 C 0.70818 0.51621 0.26437 0.0
C1591 C 0.71235 0.49939 0.24788 0.0
H1592 H 0.68468 0.54027 0.27697 0.0
H1593 H 0.73035 0.37094 0.12643 0.0
H1594 H 0.70444 0.61586 0.20753 0.0
H1595 H 0.67571 0.64422 0.21009 0.0
H1596 H 0.71857 0.69072 0.17443 0.0
H1597 H 0.74745 0.66227 0.17153 0.0
H1598 H 0.69579 0.70794 0.21605 0.0
H1599 H 0.68052 0.66928 0.14285 0.0
H1600 H 0.67388 0.6363 0.11798 0.0
H1601 H 0.61703 0.61967 0.1603 0.0
H1602 H 0.62353 0.65239 0.18565 0.0
H1603 H 0.61493 0.78857 0.18455 0.0
H1604 H 0.64525 0.76212 0.18759 0.0
H1605 H 0.59901 0.71092 0.20769 0.0
H1606 H 0.56845 0.73714 0.20379 0.0
H1607 H 0.62424 0.69603 0.17453 0.0
H1608 H 0.63824 0.7343 0.24751 0.0
H1609 H 0.64457 0.76658 0.2735 0.0
H1610 H 0.70304 0.78323 0.23383 0.0
H1611 H 0.69689 0.7512 0.20739 0.0
C1612 C 0.70782 0.63212 0.20027 0.0
C1613 C 0.72819 0.63679 0.18921 0.0
C1614 C 0.69136 0.6483 0.20173 0.0
C1615 C 0.695 0.66952 0.19237 0.0
C1616 C 0.71547 0.67442 0.18177 0.0
C1617 C 0.73188 0.65813 0.18001 0.0
C1618 C 0.67712 0.68631 0.19316 0.0
C1619 C 0.68022 0.70554 0.20676 0.0
C1620 C 0.65663 0.68281 0.18157 0.0
C1621 C 0.65265 0.66315 0.1663 0.0
C1622 C 0.66672 0.65848 0.14699 0.0
C1623 C 0.66296 0.63985 0.13277 0.0
C1624 C 0.64508 0.62586 0.1376 0.0
C1625 C 0.63089 0.6305 0.15661 0.0
C1626 C 0.6346 0.64909 0.17089 0.0
C1627 C 0.61121 0.77178 0.19005 0.0
C1628 C 0.58921 0.76497 0.19383 0.0
C1629 C 0.62864 0.75665 0.19187 0.0
C1630 C 0.62452 0.73447 0.198 0.0
C1631 C 0.60265 0.72789 0.20282 0.0
C1632 C 0.58518 0.74294 0.2007 0.0
C1633 C 0.64269 0.71781 0.19763 0.0
C1634 C 0.63971 0.69853 0.184 0.0
C1635 C 0.66319 0.72122 0.20941 0.0
C1636 C 0.66698 0.74046 0.22533 0.0
C1637 C 0.65235 0.74494 0.24421 0.0
C1638 C 0.65593 0.76318 0.25905 0.0
C1639 C 0.67416 0.77698 0.25528 0.0
C1640 C 0.6889 0.77253 0.23671 0.0
C1641 C 0.6854 0.75433 0.22181 0.0
H1642 H 0.6769 0.79109 0.26679 0.0
H1643 H 0.64219 0.61145 0.12657 0.0
H1644 H 0.50955 0.69611 0.1693 0.0
H1645 H 0.48166 0.66736 0.17486 0.0
H1646 H 0.43267 0.71715 0.19066 0.0
H1647 H 0.46068 0.74613 0.18552 0.0
H1648 H 0.42886 0.68257 0.22068 0.0
H1649 H 0.43373 0.6923 0.13648 0.0
H1650 H 0.45212 0.6953 0.0974 0.0
H1651 H 0.47653 0.62889 0.10439 0.0
H1652 H 0.45854 0.6256 0.14369 0.0
H1653 H 0.33538 0.61102 0.19901 0.0
H1654 H 0.36285 0.64076 0.20036 0.0
H1655 H 0.41495 0.59338 0.18802 0.0
H1656 H 0.38772 0.56357 0.1866 0.0
H1657 H 0.41611 0.6277 0.15639 0.0
H1658 H 0.41023 0.61852 0.24127 0.0
H1659 H 0.39062 0.61619 0.27971 0.0
H1660 H 0.36631 0.68239 0.27041 0.0
H1661 H 0.38554 0.68501 0.23173 0.0
C1662 C 0.49286 0.70101 0.17396 0.0
C1663 C 0.48733 0.72345 0.1768 0.0
C1664 C 0.4769 0.68452 0.17707 0.0
C1665 C 0.45498 0.69009 0.18286 0.0
C1666 C 0.44946 0.71246 0.18615 0.0
C1667 C 0.46548 0.729 0.1831 0.0
C1668 C 0.43787 0.67251 0.18516 0.0
C1669 C 0.42585 0.67075 0.20651 0.0
C1670 C 0.43413 0.65689 0.1668 0.0
C1671 C 0.44497 0.65879 0.14315 0.0
C1672 C 0.44317 0.6784 0.12978 0.0
C1673 C 0.4535 0.68014 0.10757 0.0
C1674 C 0.46553 0.66232 0.09844 0.0
C1675 C 0.46722 0.64269 0.11149 0.0
C1676 C 0.45695 0.64087 0.13373 0.0
C1677 C 0.35272 0.60683 0.19706 0.0
C1678 C 0.35928 0.58487 0.19251 0.0
C1679 C 0.36841 0.62388 0.19786 0.0
C1680 C 0.39095 0.6193 0.1942 0.0
C1681 C 0.39764 0.59729 0.19078 0.0
C1682 C 0.38201 0.58024 0.19008 0.0
C1683 C 0.40735 0.63753 0.19203 0.0
C1684 C 0.41915 0.63949 0.1706 0.0
C1685 C 0.41068 0.6534 0.21022 0.0
C1686 C 0.39914 0.65188 0.23348 0.0
C1687 C 0.40055 0.63251 0.24732 0.0
C1688 C 0.38953 0.63115 0.26917 0.0
C1689 C 0.37718 0.64911 0.27746 0.0
C1690 C 0.37586 0.66849 0.26395 0.0
C1691 C 0.38683 0.66992 0.24207 0.0
H1692 H 0.36867 0.64802 0.29439 0.0
H1693 H 0.47351 0.6637 0.08124 0.0
H1694 H 0.55265 0.38527 0.18865 0.0
H1695 H 0.52138 0.41054 0.19099 0.0
H1696 H 0.47661 0.35513 0.19695 0.0
H1697 H 0.5079 0.32959 0.19397 0.0
H1698 H 0.46223 0.38238 0.1643 0.0
H1699 H 0.48641 0.39141 0.24441 0.0
H1700 H 0.5129 0.39797 0.27709 0.0
H1701 H 0.52723 0.46259 0.24919 0.0
H1702 H 0.50104 0.45631 0.21614 0.0
H1703 H 0.37049 0.45628 0.17989 0.0
H1704 H 0.39829 0.42755 0.18714 0.0
H1705 H 0.45036 0.47522 0.17549 0.0
H1706 H 0.42278 0.50399 0.16834 0.0
H1707 H 0.45832 0.44966 0.21474 0.0
H1708 H 0.43675 0.43847 0.13264 0.0
H1709 H 0.4102 0.43166 0.10006 0.0
H1710 H 0.39061 0.37047 0.13281 0.0
H1711 H 0.41687 0.37707 0.16577 0.0
C1712 C 0.53623 0.37838 0.19091 0.0
C1713 C 0.53285 0.35534 0.19101 0.0
C1714 C 0.51829 0.39292 0.19235 0.0
C1715 C 0.49657 0.38481 0.1943 0.0
C1716 C 0.4932 0.36182 0.19541 0.0
C1717 C 0.51114 0.34722 0.19382 0.0
C1718 C 0.47741 0.40029 0.19325 0.0
C1719 C 0.46115 0.39683 0.17572 0.0
C1720 C 0.47613 0.41942 0.20778 0.0
C1721 C 0.49186 0.42331 0.22769 0.0
C1722 C 0.49532 0.40696 0.24514 0.0
C1723 C 0.51026 0.41064 0.26375 0.0
C1724 C 0.52177 0.43066 0.26519 0.0
C1725 C 0.51831 0.44708 0.24805 0.0
C1726 C 0.50339 0.44348 0.22939 0.0
C1727 C 0.38786 0.46064 0.17882 0.0
C1728 C 0.3944 0.48244 0.17343 0.0
C1729 C 0.40373 0.44419 0.18295 0.0
C1730 C 0.42642 0.44921 0.18175 0.0
C1731 C 0.43296 0.47097 0.17657 0.0
C1732 C 0.41714 0.48739 0.17236 0.0
C1733 C 0.44347 0.43184 0.18563 0.0
C1734 C 0.4593 0.43501 0.20363 0.0
C1735 C 0.44431 0.41239 0.17162 0.0
C1736 C 0.42858 0.40839 0.1518 0.0
C1737 C 0.42665 0.42366 0.13299 0.0
C1738 C 0.41168 0.41981 0.11444 0.0
C1739 C 0.39868 0.40068 0.1144 0.0
C1740 C 0.40066 0.38531 0.13289 0.0
C1741 C 0.41559 0.38908 0.1515 0.0
H1742 H 0.3871 0.39773 0.10002 0.0
H1743 H 0.53334 0.43348 0.27961 0.0
H1744 H 0.28881 0.46559 0.24071 0.0
H1745 H 0.26314 0.43724 0.25566 0.0
H1746 H 0.21387 0.45886 0.20506 0.0
H1747 H 0.23942 0.48712 0.19024 0.0
H1748 H 0.19576 0.45314 0.24785 0.0
H1749 H 0.24395 0.41124 0.19672 0.0
H1750 H 0.27996 0.39749 0.18227 0.0
H1751 H 0.29243 0.36738 0.25026 0.0
H1752 H 0.25663 0.38125 0.26524 0.0
H1753 H 0.11994 0.36487 0.25498 0.0
H1754 H 0.14826 0.39021 0.23963 0.0
H1755 H 0.19411 0.36702 0.29304 0.0
H1756 H 0.16579 0.34156 0.30832 0.0
H1757 H 0.2147 0.37327 0.25036 0.0
H1758 H 0.16616 0.41453 0.30119 0.0
H1759 H 0.12992 0.42783 0.31542 0.0
H1760 H 0.11815 0.45921 0.24796 0.0
H1761 H 0.15416 0.44575 0.23316 0.0
C1762 C 0.27252 0.46414 0.23277 0.0
C1763 C 0.26601 0.47856 0.21445 0.0
C1764 C 0.25789 0.44796 0.24127 0.0
C1765 C 0.23658 0.44581 0.23139 0.0
C1766 C 0.23015 0.46024 0.21304 0.0
C1767 C 0.24473 0.4764 0.20462 0.0
C1768 C 0.2208 0.42876 0.24026 0.0
C1769 C 0.19983 0.43565 0.24812 0.0
C1770 C 0.22626 0.40598 0.24121 0.0
C1771 C 0.24771 0.39748 0.23218 0.0
C1772 C 0.25445 0.40183 0.20865 0.0
C1773 C 0.27481 0.394 0.20036 0.0
C1774 C 0.2885 0.38162 0.21536 0.0
C1775 C 0.28182 0.377 0.23867 0.0
C1776 C 0.26149 0.38483 0.24707 0.0
C1777 C 0.13615 0.36509 0.26327 0.0
C1778 C 0.14072 0.35135 0.28282 0.0
C1779 C 0.15228 0.37957 0.25455 0.0
C1780 C 0.17322 0.38076 0.26541 0.0
C1781 C 0.17809 0.3664 0.28439 0.0
C1782 C 0.16194 0.35185 0.29307 0.0
C1783 C 0.18962 0.39766 0.25764 0.0
C1784 C 0.21068 0.39076 0.25009 0.0
C1785 C 0.18427 0.42047 0.25698 0.0
C1786 C 0.16279 0.42896 0.26599 0.0
C1787 C 0.15579 0.42415 0.28933 0.0
C1788 C 0.13529 0.43172 0.29751 0.0
C1789 C 0.12172 0.44432 0.28259 0.0
C1790 C 0.12867 0.44943 0.25949 0.0
C1791 C 0.14913 0.44184 0.2512 0.0
H1792 H 0.10585 0.45016 0.28895 0.0
H1793 H 0.30425 0.37556 0.2089 0.0
H1794 H 0.78901 0.1501 0.25542 0.0
H1795 H 0.76365 0.17832 0.23966 0.0
H1796 H 0.7161 0.16174 0.29423 0.0
H1797 H 0.74126 0.13342 0.30965 0.0
H1798 H 0.69593 0.1655 0.25294 0.0
H1799 H 0.74882 0.20925 0.29653 0.0
H1800 H 0.78626 0.22231 0.30705 0.0
H1801 H 0.79561 0.24625 0.23572 0.0
H1802 H 0.75833 0.23302 0.22467 0.0
H1803 H 0.62359 0.25669 0.24315 0.0
H1804 H 0.65161 0.23103 0.25854 0.0
H1805 H 0.69452 0.24735 0.19964 0.0
H1806 H 0.66645 0.27303 0.18426 0.0
H1807 H 0.71773 0.24398 0.24154 0.0
H1808 H 0.6645 0.20089 0.19832 0.0
H1809 H 0.62696 0.18804 0.18797 0.0
H1810 H 0.61833 0.16278 0.25888 0.0
H1811 H 0.65569 0.17586 0.26979 0.0
C1812 C 0.77317 0.15263 0.26403 0.0
C1813 C 0.76699 0.13958 0.28363 0.0
C1814 C 0.75871 0.16876 0.25509 0.0
C1815 C 0.73797 0.17232 0.26585 0.0
C1816 C 0.73193 0.15929 0.28554 0.0
C1817 C 0.74629 0.14312 0.29435 0.0
C1818 C 0.72232 0.18929 0.2565 0.0
C1819 C 0.70065 0.18271 0.25075 0.0
C1820 C 0.72858 0.21167 0.25301 0.0
C1821 C 0.75086 0.21995 0.25972 0.0
C1822 C 0.75892 0.21717 0.28305 0.0
C1823 C 0.78011 0.22462 0.28911 0.0
C1824 C 0.79334 0.23504 0.27204 0.0
C1825 C 0.78536 0.23813 0.24891 0.0
C1826 C 0.76419 0.23068 0.24274 0.0
C1827 C 0.6391 0.25488 0.23365 0.0
C1828 C 0.64297 0.26688 0.21265 0.0
C1829 C 0.65506 0.24022 0.24239 0.0
C1830 C 0.67511 0.2371 0.23012 0.0
C1831 C 0.67923 0.24954 0.20944 0.0
C1832 C 0.66324 0.26422 0.20071 0.0
C1833 C 0.69132 0.2202 0.23835 0.0
C1834 C 0.71306 0.22677 0.24376 0.0
C1835 C 0.68516 0.19778 0.24157 0.0
C1836 C 0.66283 0.18954 0.23493 0.0
C1837 C 0.65455 0.19273 0.21176 0.0
C1838 C 0.6333 0.18539 0.20578 0.0
C1839 C 0.62025 0.17464 0.22277 0.0
C1840 C 0.62845 0.17114 0.24574 0.0
C1841 C 0.64966 0.1785 0.25183 0.0
H1842 H 0.6038 0.16898 0.21811 0.0
H1843 H 0.80975 0.24077 0.27676 0.0
H1844 H 0.8773 0.63692 0.1857 0.0
H1845 H 0.90298 0.66509 0.20048 0.0
H1846 H 0.85782 0.68042 0.25768 0.0
H1847 H 0.83198 0.65209 0.24277 0.0
H1848 H 0.87639 0.71798 0.23826 0.0
H1849 H 0.90169 0.64827 0.26823 0.0
H1850 H 0.91285 0.60913 0.2653 0.0
H1851 H 0.96676 0.62711 0.21934 0.0
H1852 H 0.95568 0.66635 0.22164 0.0
H1853 H 0.95623 0.7742 0.31054 0.0
H1854 H 0.92771 0.74919 0.29495 0.0
H1855 H 0.97149 0.73012 0.2378 0.0
H1856 H 1.0 0.7552 0.25342 0.0
H1857 H 0.95289 0.69447 0.25828 0.0
H1858 H 0.92731 0.76414 0.2279 0.0
H1859 H 0.91585 0.80323 0.2304 0.0
H1860 H 0.86252 0.78536 0.27721 0.0
H1861 H 0.87387 0.74618 0.27527 0.0
C1862 C 0.87289 0.64631 0.20144 0.0
C1863 C 0.85287 0.64218 0.21335 0.0
C1864 C 0.88754 0.6624 0.20985 0.0
C1865 C 0.8825 0.67462 0.23043 0.0
C1866 C 0.86208 0.67112 0.24183 0.0
C1867 C 0.84737 0.65497 0.23337 0.0
C1868 C 0.89896 0.69048 0.24033 0.0
C1869 C 0.89302 0.7128 0.24297 0.0
C1870 C 0.9208 0.6838 0.24605 0.0
C1871 C 0.92773 0.66024 0.24494 0.0
C1872 C 0.91583 0.64387 0.25736 0.0
C1873 C 0.92215 0.62166 0.25582 0.0
C1874 C 0.94047 0.61563 0.2421 0.0
C1875 C 0.95255 0.63181 0.22994 0.0
C1876 C 0.94627 0.65404 0.23136 0.0
C1877 C 0.95959 0.76489 0.29446 0.0
C1878 C 0.98024 0.76662 0.2831 0.0
C1879 C 0.94332 0.75059 0.28557 0.0
C1880 C 0.94738 0.73786 0.26509 0.0
C1881 C 0.96798 0.73974 0.25364 0.0
C1882 C 0.98423 0.75405 0.26252 0.0
C1883 C 0.93043 0.72207 0.25601 0.0
C1884 C 0.93626 0.69969 0.2536 0.0
C1885 C 0.90851 0.72872 0.25053 0.0
C1886 C 0.90158 0.75225 0.25163 0.0
C1887 C 0.91325 0.76856 0.23888 0.0
C1888 C 0.90675 0.79073 0.24017 0.0
C1889 C 0.88851 0.79678 0.25401 0.0
C1890 C 0.87668 0.78065 0.26653 0.0
C1891 C 0.88312 0.75846 0.26533 0.0
H1892 H 0.8835 0.81395 0.25498 0.0
H1893 H 0.94533 0.59842 0.24092 0.0
H1894 H 0.34597 0.95599 0.3111 0.0
H1895 H 0.37096 0.92738 0.29582 0.0
H1896 H 0.39009 0.97065 0.23821 0.0
H1897 H 0.36466 0.99911 0.25322 0.0
H1898 H 0.38392 0.92859 0.22264 0.0
H1899 H 0.42298 0.96429 0.28661 0.0
H1900 H 0.42808 0.97789 0.32766 0.0
H1901 H 0.42185 0.9116 0.35444 0.0
H1902 H 0.41638 0.89763 0.31355 0.0
H1903 H 0.48435 0.87853 0.18683 0.0
H1904 H 0.45588 0.90369 0.20181 0.0
H1905 H 0.44056 0.85754 0.25813 0.0
H1906 H 0.46958 0.8325 0.2434 0.0
H1907 H 0.44337 0.89934 0.27492 0.0
H1908 H 0.4061 0.86339 0.21053 0.0
H1909 H 0.4012 0.84997 0.16939 0.0
H1910 H 0.40419 0.91671 0.14329 0.0
H1911 H 0.40944 0.93052 0.18425 0.0
C1912 C 0.35529 0.95923 0.29499 0.0
C1913 C 0.35338 0.97968 0.28325 0.0
C1914 C 0.36969 0.94298 0.28639 0.0
C1915 C 0.38259 0.94694 0.266 0.0
C1916 C 0.38033 0.96722 0.25397 0.0
C1917 C 0.36591 0.98348 0.26259 0.0
C1918 C 0.39878 0.93016 0.25747 0.0
C1919 C 0.39707 0.92237 0.23399 0.0
C1920 C 0.4156 0.92161 0.27245 0.0
C1921 C 0.41904 0.92995 0.29704 0.0
C1922 C 0.42253 0.95263 0.30127 0.0
C1923 C 0.42551 0.9604 0.3245 0.0
C1924 C 0.42523 0.94562 0.34365 0.0
C1925 C 0.42202 0.92303 0.33959 0.0
C1926 C 0.419 0.91518 0.31639 0.0
C1927 C 0.47496 0.87382 0.20247 0.0
C1928 C 0.47918 0.85366 0.21406 0.0
C1929 C 0.45856 0.8881 0.21089 0.0
C1930 C 0.44588 0.88243 0.23097 0.0
C1931 C 0.45009 0.86225 0.24259 0.0
C1932 C 0.46654 0.84792 0.23412 0.0
C1933 C 0.42862 0.89785 0.24002 0.0
C1934 C 0.43014 0.90543 0.26361 0.0
C1935 C 0.41163 0.90622 0.22512 0.0
C1936 C 0.40835 0.89798 0.20046 0.0
C1937 C 0.40588 0.8752 0.196 0.0
C1938 C 0.40301 0.86752 0.17272 0.0
C1939 C 0.40243 0.88247 0.15373 0.0
C1940 C 0.40466 0.90514 0.15801 0.0
C1941 C 0.40756 0.91291 0.18126 0.0
H1942 H 0.40021 0.87649 0.13571 0.0
H1943 H 0.42754 0.95167 0.36163 0.0
H1944 H 0.28503 0.65129 0.75727 0.0
H1945 H 0.26004 0.6801 0.74214 0.0
H1946 H 0.21319 0.66455 0.79776 0.0
H1947 H 0.23796 0.63556 0.81252 0.0
H1948 H 0.19213 0.66934 0.75744 0.0
H1949 H 0.24713 0.71121 0.79948 0.0
H1950 H 0.28495 0.72345 0.80958 0.0
H1951 H 0.29409 0.7473 0.73819 0.0
H1952 H 0.25643 0.73489 0.72755 0.0
H1953 H 0.12366 0.7637 0.74862 0.0
H1954 H 0.15151 0.73791 0.7642 0.0
H1955 H 0.19176 0.74878 0.70181 0.0
H1956 H 0.16374 0.77436 0.68606 0.0
H1957 H 0.21654 0.74687 0.7446 0.0
H1958 H 0.16064 0.70507 0.70334 0.0
H1959 H 0.12224 0.69388 0.69454 0.0
H1960 H 0.11448 0.67045 0.76629 0.0
H1961 H 0.15272 0.68192 0.77566 0.0
C1962 C 0.26941 0.65416 0.76623 0.0
C1963 C 0.26332 0.64125 0.78596 0.0
C1964 C 0.25518 0.67063 0.75766 0.0
C1965 C 0.23477 0.67469 0.76894 0.0
C1966 C 0.22877 0.66173 0.7887 0.0
C1967 C 0.24291 0.64519 0.79712 0.0
C1968 C 0.21948 0.69217 0.76004 0.0
C1969 C 0.19746 0.68634 0.75494 0.0
C1970 C 0.22644 0.71431 0.75627 0.0
C1971 C 0.24904 0.72192 0.76266 0.0
C1972 C 0.25727 0.71891 0.78588 0.0
C1973 C 0.27867 0.7259 0.79171 0.0
C1974 C 0.29194 0.73609 0.77452 0.0
C1975 C 0.28381 0.73937 0.75148 0.0
C1976 C 0.26243 0.73238 0.74554 0.0
C1977 C 0.13859 0.76072 0.73841 0.0
C1978 C 0.14166 0.77098 0.71622 0.0
C1979 C 0.15445 0.74603 0.74728 0.0
C1980 C 0.17362 0.74131 0.73406 0.0
C1981 C 0.17712 0.75225 0.71231 0.0
C1982 C 0.16117 0.76686 0.70338 0.0
C1983 C 0.1893 0.724 0.74229 0.0
C1984 C 0.21133 0.72985 0.74715 0.0
C1985 C 0.18234 0.7019 0.74601 0.0
C1986 C 0.15949 0.69454 0.74027 0.0
C1987 C 0.1507 0.69767 0.7173 0.0
C1988 C 0.12896 0.69127 0.7122 0.0
C1989 C 0.11591 0.6815 0.72986 0.0
C1990 C 0.1246 0.67805 0.75263 0.0
C1991 C 0.14631 0.68449 0.75785 0.0
H1992 H 0.09908 0.67657 0.72588 0.0
H1993 H 0.3085 0.74149 0.77907 0.0
H1994 H 0.32623 0.15717 0.73609 0.0
H1995 H 0.35052 0.18669 0.75097 0.0
H1996 H 0.40532 0.15838 0.71223 0.0
H1997 H 0.38091 0.12964 0.69652 0.0
H1998 H 0.38568 0.18714 0.77802 0.0
H1999 H 0.44038 0.19767 0.69333 0.0
H2000 H 0.43654 0.19471 0.64969 0.0
H2001 H 0.36673 0.20704 0.65538 0.0
H2002 H 0.3702 0.2104 0.699 0.0
H2003 H 0.4854 0.24025 0.8086 0.0
H2004 H 0.45687 0.21538 0.79333 0.0
H2005 H 0.43358 0.26692 0.74634 0.0
H2006 H 0.46316 0.29142 0.76062 0.0
H2007 H 0.43347 0.23038 0.72319 0.0
H2008 H 0.40536 0.2515 0.79893 0.0
H2009 H 0.40597 0.25772 0.84235 0.0
H2010 H 0.41646 0.18829 0.85414 0.0
H2011 H 0.41623 0.18169 0.81077 0.0
C2012 C 0.34344 0.15741 0.73066 0.0
C2013 C 0.3517 0.14109 0.71521 0.0
C2014 C 0.35734 0.17417 0.73927 0.0
C2015 C 0.37974 0.17496 0.73253 0.0
C2016 C 0.38805 0.15841 0.7174 0.0
C2017 C 0.37414 0.14178 0.70868 0.0
C2018 C 0.39454 0.19292 0.74138 0.0
C2019 C 0.39608 0.19663 0.76602 0.0
C2020 C 0.40773 0.2058 0.72575 0.0
C2021 C 0.40554 0.20409 0.69947 0.0
C2022 C 0.42423 0.19986 0.68526 0.0
C2023 C 0.42211 0.19809 0.66053 0.0
C2024 C 0.4014 0.20062 0.64978 0.0
C2025 C 0.38276 0.20501 0.66374 0.0
C2026 C 0.38479 0.20682 0.68847 0.0
C2027 C 0.47437 0.24618 0.79479 0.0
C2028 C 0.47661 0.26771 0.78565 0.0
C2029 C 0.45782 0.23205 0.78631 0.0
C2030 C 0.44274 0.23931 0.76891 0.0
C2031 C 0.44493 0.26089 0.75979 0.0
C2032 C 0.46172 0.27494 0.76807 0.0
C2033 C 0.42508 0.22419 0.7599 0.0
C2034 C 0.423 0.221 0.73522 0.0
C2035 C 0.41093 0.21227 0.77547 0.0
C2036 C 0.41094 0.21613 0.80158 0.0
C2037 C 0.40794 0.23758 0.81078 0.0
C2038 C 0.4082 0.24117 0.83538 0.0
C2039 C 0.41129 0.22342 0.85099 0.0
C2040 C 0.41408 0.20203 0.84203 0.0
C2041 C 0.41386 0.19835 0.81744 0.0
H2042 H 0.4115 0.22623 0.87003 0.0
H2043 H 0.39979 0.19922 0.63063 0.0
H2044 H 0.99724 0.36073 0.74604 0.0
H2045 H 0.9686 0.38557 0.76156 0.0
H2046 H 0.92518 0.36662 0.70398 0.0
H2047 H 0.9541 0.34222 0.68812 0.0
H2048 H 0.92545 0.4104 0.70922 0.0
H2049 H 0.91625 0.34849 0.7613 0.0
H2050 H 0.92799 0.31944 0.78944 0.0
H2051 H 0.95008 0.36906 0.83878 0.0
H2052 H 0.93876 0.39842 0.81078 0.0
H2053 H 0.83172 0.46651 0.75809 0.0
H2054 H 0.85629 0.43723 0.74313 0.0
H2055 H 0.90438 0.45379 0.79715 0.0
H2056 H 0.8797 0.48268 0.81232 0.0
H2057 H 0.89963 0.40949 0.79311 0.0
H2058 H 0.9109 0.47112 0.74008 0.0
H2059 H 0.89939 0.50027 0.71195 0.0
H2060 H 0.87343 0.45098 0.66442 0.0
H2061 H 0.88452 0.42153 0.69245 0.0
C2062 C 0.98151 0.36182 0.73683 0.0
C2063 C 0.97781 0.34959 0.71595 0.0
C2064 C 0.96511 0.37589 0.74576 0.0
C2065 C 0.9446 0.37784 0.73408 0.0
C2066 C 0.94082 0.36537 0.71334 0.0
C2067 C 0.95726 0.35133 0.70439 0.0
C2068 C 0.9275 0.39354 0.74298 0.0
C2069 C 0.91951 0.40994 0.72746 0.0
C2070 C 0.92007 0.39328 0.76691 0.0
C2071 C 0.92682 0.37566 0.78384 0.0
C2072 C 0.92377 0.35321 0.77807 0.0
C2073 C 0.93032 0.33668 0.79401 0.0
C2074 C 0.93982 0.34239 0.81586 0.0
C2075 C 0.94274 0.36465 0.82184 0.0
C2076 C 0.93623 0.38125 0.80595 0.0
C2077 C 0.84751 0.46376 0.76676 0.0
C2078 C 0.85396 0.47692 0.78618 0.0
C2079 C 0.86156 0.44714 0.75818 0.0
C2080 C 0.8823 0.44345 0.76887 0.0
C2081 C 0.8885 0.45634 0.78858 0.0
C2082 C 0.87449 0.47294 0.79711 0.0
C2083 C 0.89774 0.42641 0.7594 0.0
C2084 C 0.90544 0.4098 0.77483 0.0
C2085 C 0.90492 0.42646 0.73539 0.0
C2086 C 0.89832 0.44414 0.71848 0.0
C2087 C 0.90258 0.46651 0.72372 0.0
C2088 C 0.89616 0.48308 0.70778 0.0
C2089 C 0.88563 0.47749 0.68644 0.0
C2090 C 0.88155 0.4553 0.68097 0.0
C2091 C 0.88791 0.43865 0.69687 0.0
H2092 H 0.88068 0.49035 0.67411 0.0
H2093 H 0.94489 0.32957 0.82818 0.0
H2094 H 0.66489 0.84264 0.81063 0.0
H2095 H 0.6933 0.86761 0.79484 0.0
H2096 H 0.64772 0.88987 0.74069 0.0
H2097 H 0.6195 0.86436 0.75607 0.0
H2098 H 0.68834 0.88407 0.72232 0.0
H2099 H 0.65763 0.92051 0.79086 0.0
H2100 H 0.64669 0.92385 0.83302 0.0
H2101 H 0.71429 0.9148 0.85461 0.0
H2102 H 0.7256 0.91108 0.81256 0.0
H2103 H 0.73903 0.98493 0.68871 0.0
H2104 H 0.71394 0.95641 0.70383 0.0
H2105 H 0.76283 0.93722 0.75597 0.0
H2106 H 0.7878 0.9663 0.74116 0.0
H2107 H 0.72226 0.94004 0.77575 0.0
H2108 H 0.75316 0.90546 0.7067 0.0
H2109 H 0.7638 0.90256 0.66441 0.0
H2110 H 0.69563 0.90847 0.64362 0.0
H2111 H 0.6846 0.91173 0.68578 0.0
C2112 C 0.66108 0.85263 0.79514 0.0
C2113 C 0.64005 0.85157 0.78451 0.0
C2114 C 0.67724 0.86704 0.78627 0.0
C2115 C 0.67258 0.88085 0.76675 0.0
C2116 C 0.65171 0.87942 0.75579 0.0
C2117 C 0.63557 0.86496 0.76463 0.0
C2118 C 0.68928 0.89708 0.75801 0.0
C2119 C 0.69558 0.89645 0.73395 0.0
C2120 C 0.69916 0.91292 0.77329 0.0
C2121 C 0.69242 0.91529 0.79857 0.0
C2122 C 0.67014 0.91906 0.8046 0.0
C2123 C 0.66387 0.92105 0.82848 0.0
C2124 C 0.67978 0.91948 0.84649 0.0
C2125 C 0.70199 0.91598 0.84064 0.0
C2126 C 0.70834 0.91394 0.81679 0.0
C2127 C 0.74435 0.97469 0.70348 0.0
C2128 C 0.76526 0.97786 0.7139 0.0
C2129 C 0.7301 0.95826 0.71197 0.0
C2130 C 0.73656 0.94447 0.73089 0.0
C2131 C 0.75749 0.94762 0.74133 0.0
C2132 C 0.77177 0.96412 0.73282 0.0
C2133 C 0.72122 0.92713 0.74001 0.0
C2134 C 0.71515 0.92756 0.76415 0.0
C2135 C 0.71151 0.91113 0.72478 0.0
C2136 C 0.71807 0.90902 0.6994 0.0
C2137 C 0.74045 0.9063 0.6931 0.0
C2138 C 0.74655 0.90457 0.66915 0.0
C2139 C 0.73041 0.90538 0.65134 0.0
C2140 C 0.70812 0.90787 0.65744 0.0
C2141 C 0.70193 0.90963 0.68136 0.0
H2142 H 0.73517 0.90404 0.6328 0.0
H2143 H 0.67489 0.92102 0.86496 0.0
H2144 H 0.0323 0.69726 0.70032 0.0
H2145 H 0.00594 0.67337 0.72108 0.0
H2146 H 0.95944 0.7275 0.72492 0.0
H2147 H 0.98628 0.75167 0.70499 0.0
H2148 H 0.95784 0.70632 0.76446 0.0
H2149 H 0.95455 0.68357 0.68334 0.0
H2150 H 0.96883 0.67135 0.64436 0.0
H2151 H 0.99517 0.61249 0.6765 0.0
H2152 H 0.98131 0.62451 0.71576 0.0
H2153 H 0.8676 0.63283 0.79276 0.0
H2154 H 0.89115 0.65897 0.77085 0.0
H2155 H 0.94669 0.61476 0.77879 0.0
H2156 H 0.92328 0.58865 0.8007 0.0
H2157 H 0.94089 0.63192 0.73174 0.0
H2158 H 0.94411 0.65728 0.8137 0.0
H2159 H 0.92767 0.67019 0.85142 0.0
H2160 H 0.89808 0.72527 0.81505 0.0
H2161 H 0.9141 0.71249 0.77703 0.0
C2162 C 0.01648 0.70404 0.70572 0.0
C2163 C 0.01135 0.7263 0.70121 0.0
C2164 C 1.00134 0.69036 0.71743 0.0
C2165 C 0.98044 0.69845 0.72416 0.0
C2166 C 0.97542 0.72083 0.71992 0.0
C2167 C 0.99077 0.73465 0.7086 0.0
C2168 C 0.96392 0.68353 0.73563 0.0
C2169 C 0.95389 0.69021 0.75704 0.0
C2170 C 0.95876 0.66239 0.72614 0.0
C2171 C 0.96705 0.65504 0.70253 0.0
C2172 C 0.96352 0.66809 0.68213 0.0
C2173 C 0.97152 0.66119 0.65998 0.0
C2174 C 0.98294 0.64118 0.65796 0.0
C2175 C 0.98634 0.628 0.67809 0.0
C2176 C 0.97839 0.63483 0.70029 0.0
C2177 C 0.88474 0.62857 0.78953 0.0
C2178 C 0.89358 0.6086 0.79815 0.0
C2179 C 0.8982 0.64358 0.77721 0.0
C2180 C 0.92065 0.63878 0.77323 0.0
C2181 C 0.9294 0.61874 0.78162 0.0
C2182 C 0.91605 0.6039 0.79419 0.0
C2183 C 0.9352 0.65466 0.76057 0.0
C2184 C 0.94479 0.64813 0.73895 0.0
C2185 C 0.93961 0.67605 0.76961 0.0
C2186 C 0.9301 0.68379 0.79249 0.0
C2187 C 0.93394 0.67203 0.81371 0.0
C2188 C 0.92473 0.67935 0.83515 0.0
C2189 C 0.91178 0.6985 0.83562 0.0
C2190 C 0.90808 0.71042 0.81465 0.0
C2191 C 0.91723 0.70316 0.79316 0.0
H2192 H 0.90467 0.70414 0.85224 0.0
H2193 H 0.98912 0.63587 0.6408 0.0
H2194 H 0.40682 0.99666 0.67296 0.0
H2195 H 0.4308 0.97042 0.69374 0.0
H2196 H 0.39913 0.98686 0.76032 0.0
H2197 H 0.37588 0.01393 0.73975 0.0
H2198 H 0.44219 0.98571 0.7659 0.0
H2199 H 0.38881 0.93709 0.73065 0.0
H2200 H 0.36641 0.92112 0.69819 0.0
H2201 H 0.42561 0.90112 0.66176 0.0
H2202 H 0.4484 0.91725 0.69386 0.0
H2203 H 0.48772 0.89745 0.83279 0.0
H2204 H 0.46167 0.92142 0.81176 0.0
H2205 H 0.49653 0.9097 0.74592 0.0
H2206 H 0.52285 0.88598 0.7669 0.0
H2207 H 0.45126 0.90769 0.74016 0.0
H2208 H 0.5044 0.95708 0.77546 0.0
H2209 H 0.52651 0.97284 0.80828 0.0
H2210 H 0.46693 0.99109 0.84508 0.0
H2211 H 0.44446 0.97515 0.81261 0.0
C2212 C 0.40487 0.99455 0.69201 0.0
C2213 C 0.389 0.00687 0.7046 0.0
C2214 C 0.41848 0.97944 0.70385 0.0
C2215 C 0.41646 0.97628 0.72854 0.0
C2216 C 0.4008 0.98879 0.74121 0.0
C2217 C 0.38726 0.00402 0.72938 0.0
C2218 C 0.43132 0.96062 0.74125 0.0
C2219 C 0.44388 0.96856 0.76049 0.0
C2220 C 0.43398 0.93836 0.73386 0.0
C2221 C 0.42031 0.92856 0.71456 0.0
C2222 C 0.39706 0.92943 0.71563 0.0
C2223 C 0.38429 0.92033 0.69731 0.0
C2224 C 0.39458 0.91016 0.6779 0.0
C2225 C 0.41766 0.90902 0.6768 0.0
C2226 C 0.43051 0.91812 0.69506 0.0
C2227 C 0.48982 0.89992 0.81381 0.0
C2228 C 0.50717 0.88946 0.80147 0.0
C2229 C 0.47493 0.91364 0.80183 0.0
C2230 C 0.47722 0.91743 0.77729 0.0
C2231 C 0.49436 0.90685 0.76483 0.0
C2232 C 0.5093 0.8931 0.77684 0.0
C2233 C 0.462 0.93281 0.76477 0.0
C2234 C 0.44945 0.92483 0.74557 0.0
C2235 C 0.45926 0.95501 0.77224 0.0
C2236 C 0.47275 0.96473 0.79171 0.0
C2237 C 0.49601 0.9643 0.79064 0.0
C2238 C 0.50861 0.97329 0.80916 0.0
C2239 C 0.49813 0.98291 0.82878 0.0
C2240 C 0.47503 0.98361 0.82988 0.0
C2241 C 0.46235 0.97462 0.81142 0.0
H2242 H 0.50791 0.98986 0.84311 0.0
H2243 H 0.38466 0.90312 0.66373 0.0
H2244 H 0.13237 0.36757 0.70304 0.0
H2245 H 0.1589 0.39126 0.72395 0.0
H2246 H 0.11384 0.44641 0.71754 0.0
H2247 H 0.08778 0.42292 0.69574 0.0
H2248 H 0.15262 0.46036 0.70855 0.0
H2249 H 0.12248 0.41557 0.77134 0.0
H2250 H 0.1124 0.38085 0.79176 0.0
H2251 H 0.18079 0.36152 0.79353 0.0
H2252 H 0.19124 0.396 0.77282 0.0
H2253 H 0.19565 0.52919 0.8004 0.0
H2254 H 0.17235 0.5033 0.77804 0.0
H2255 H 0.22782 0.45898 0.77032 0.0
H2256 H 0.2513 0.48497 0.79258 0.0
H2257 H 0.18616 0.43877 0.78584 0.0
H2258 H 0.21537 0.48609 0.72439 0.0
H2259 H 0.22389 0.52206 0.70576 0.0
H2260 H 0.15463 0.53798 0.70384 0.0
H2261 H 0.14572 0.50223 0.72282 0.0
C2262 C 0.12808 0.38468 0.70637 0.0
C2263 C 0.10793 0.39338 0.69814 0.0
C2264 C 0.14323 0.39823 0.71833 0.0
C2265 C 0.13826 0.42059 0.72277 0.0
C2266 C 0.11811 0.42925 0.7144 0.0
C2267 C 0.10319 0.41582 0.70202 0.0
C2268 C 0.15412 0.43514 0.73572 0.0
C2269 C 0.1597 0.45568 0.72558 0.0
C2270 C 0.16385 0.42895 0.75773 0.0
C2271 C 0.15761 0.40826 0.77031 0.0
C2272 C 0.13535 0.40384 0.77594 0.0
C2273 C 0.12957 0.38422 0.78758 0.0
C2274 C 0.14594 0.36896 0.79388 0.0
C2275 C 0.16812 0.37333 0.78861 0.0
C2276 C 0.17399 0.39292 0.77693 0.0
C2277 C 0.20287 0.51395 0.79388 0.0
C2278 C 0.22533 0.50921 0.79787 0.0
C2279 C 0.18958 0.49922 0.78109 0.0
C2280 C 0.19844 0.47934 0.77241 0.0
C2281 C 0.22075 0.47432 0.77679 0.0
C2282 C 0.23416 0.48923 0.78929 0.0
C2283 C 0.18425 0.46389 0.75875 0.0
C2284 C 0.17906 0.44327 0.76875 0.0
C2285 C 0.17459 0.47013 0.73683 0.0
C2286 C 0.1799 0.49156 0.72522 0.0
C2287 C 0.20197 0.49734 0.72018 0.0
C2288 C 0.20687 0.51767 0.70952 0.0
C2289 C 0.18982 0.53232 0.70367 0.0
C2290 C 0.16782 0.52663 0.7084 0.0
C2291 C 0.16284 0.50632 0.71909 0.0
H2292 H 0.19364 0.54805 0.69542 0.0
H2293 H 0.14143 0.35377 0.80289 0.0
H2294 H 0.59781 0.2372 0.76296 0.0
H2295 H 0.62383 0.21319 0.74223 0.0
H2296 H 0.64934 0.19033 0.80969 0.0
H2297 H 0.6241 0.21533 0.83058 0.0
H2298 H 0.68239 0.19711 0.77946 0.0
H2299 H 0.6126 0.15928 0.77673 0.0
H2300 H 0.57271 0.1551 0.76846 0.0
H2301 H 0.58437 0.16715 0.69412 0.0
H2302 H 0.62432 0.1717 0.702 0.0
H2303 H 0.73433 0.09892 0.73662 0.0
H2304 H 0.71047 0.12526 0.75725 0.0
H2305 H 0.68881 0.15152 0.6897 0.0
H2306 H 0.71306 0.1255 0.66891 0.0
H2307 H 0.65432 0.14331 0.71988 0.0
H2308 H 0.72466 0.18039 0.72315 0.0
H2309 H 0.76452 0.18369 0.732 0.0
H2310 H 0.75168 0.17193 0.80617 0.0
H2311 H 0.71176 0.16823 0.79771 0.0
C2312 C 0.60936 0.22761 0.77343 0.0
C2313 C 0.60926 0.22863 0.79844 0.0
C2314 C 0.62398 0.21354 0.76153 0.0
C2315 C 0.63843 0.19981 0.7744 0.0
C2316 C 0.63839 0.20081 0.79938 0.0
C2317 C 0.62387 0.215 0.81128 0.0
C2318 C 0.65341 0.18421 0.76185 0.0
C2319 C 0.67621 0.18515 0.76666 0.0
C2320 C 0.64542 0.16888 0.74481 0.0
C2321 C 0.62142 0.16604 0.74 0.0
C2322 C 0.60664 0.1612 0.75865 0.0
C2323 C 0.58402 0.15874 0.75403 0.0
C2324 C 0.57601 0.16092 0.73079 0.0
C2325 C 0.5906 0.1655 0.71211 0.0
C2326 C 0.61323 0.168 0.71664 0.0
C2327 C 0.72502 0.11068 0.72613 0.0
C2328 C 0.72611 0.11056 0.70112 0.0
C2329 C 0.71119 0.1256 0.73797 0.0
C2330 C 0.69811 0.14056 0.72501 0.0
C2331 C 0.69885 0.14019 0.70004 0.0
C2332 C 0.71272 0.12533 0.68821 0.0
C2333 C 0.68324 0.15625 0.73748 0.0
C2334 C 0.66047 0.15529 0.73266 0.0
C2335 C 0.69125 0.17145 0.75461 0.0
C2336 C 0.71524 0.17382 0.75976 0.0
C2337 C 0.73036 0.17833 0.74132 0.0
C2338 C 0.75296 0.1803 0.74627 0.0
C2339 C 0.76064 0.17796 0.76962 0.0
C2340 C 0.74571 0.17371 0.78808 0.0
C2341 C 0.72309 0.17169 0.78323 0.0
H2342 H 0.77814 0.1795 0.77341 0.0
H2343 H 0.55849 0.15901 0.72725 0.0
H2344 H 0.99134 0.40333 0.33095 0.0
H2345 H 0.96633 0.42749 0.30875 0.0
H2346 H 1.0022 0.41354 0.24403 0.0
H2347 H 0.02785 0.39017 0.26633 0.0
H2348 H 0.99338 0.4563 0.24707 0.0
H2349 H 0.95146 0.38977 0.25514 0.0
H2350 H 0.93433 0.35824 0.27608 0.0
H2351 H 0.89464 0.40297 0.31737 0.0
H2352 H 0.91178 0.43481 0.29691 0.0
H2353 H 0.91012 0.49819 0.16858 0.0
H2354 H 0.93501 0.47294 0.18962 0.0
H2355 H 0.90806 0.49439 0.25684 0.0
H2356 H 0.88396 0.5204 0.23614 0.0
H2357 H 0.91183 0.44697 0.25137 0.0
H2358 H 0.95514 0.51349 0.24298 0.0
H2359 H 0.97205 0.54436 0.22073 0.0
H2360 H 0.00889 0.49821 0.1782 0.0
H2361 H 0.99192 0.46703 0.19998 0.0
C2362 C 0.99389 0.40537 0.31197 0.0
C2363 C 0.01125 0.39431 0.30031 0.0
C2364 C 0.97948 0.41907 0.29928 0.0
C2365 C 0.98208 0.42197 0.27462 0.0
C2366 C 0.99969 0.41132 0.26299 0.0
C2367 C 0.01416 0.39766 0.27572 0.0
C2368 C 0.96671 0.43649 0.26112 0.0
C2369 C 0.97557 0.45402 0.24773 0.0
C2370 C 0.94343 0.43379 0.26229 0.0
C2371 C 0.93307 0.41469 0.27465 0.0
C2372 C 0.93921 0.3929 0.26882 0.0
C2373 C 0.92948 0.37497 0.28058 0.0
C2374 C 0.91345 0.3786 0.29809 0.0
C2375 C 0.90708 0.40018 0.30383 0.0
C2376 C 0.91679 0.41818 0.29214 0.0
C2377 C 0.90946 0.49755 0.18785 0.0
C2378 C 0.8945 0.51093 0.20058 0.0
C2379 C 0.92367 0.48309 0.19982 0.0
C2380 C 0.92323 0.48172 0.22475 0.0
C2381 C 0.90839 0.495 0.23755 0.0
C2382 C 0.89437 0.50969 0.22561 0.0
C2383 C 0.93855 0.4667 0.2375 0.0
C2384 C 0.92966 0.44912 0.25071 0.0
C2385 C 0.96179 0.46921 0.23599 0.0
C2386 C 0.97207 0.48793 0.22293 0.0
C2387 C 0.96669 0.50992 0.22873 0.0
C2388 C 0.97632 0.52747 0.21624 0.0
C2389 C 0.99149 0.52325 0.19801 0.0
C2390 C 0.9971 0.50146 0.19229 0.0
C2391 C 0.9875 0.48384 0.20472 0.0
H2392 H 0.99893 0.53686 0.18836 0.0
H2393 H 0.90592 0.3647 0.30717 0.0
H2394 H 0.591 0.92246 0.19522 0.0
H2395 H 0.61799 0.94586 0.21566 0.0
H2396 H 0.66284 0.89046 0.22078 0.0
H2397 H 0.63548 0.86683 0.20094 0.0
H2398 H 0.6637 0.912 0.26059 0.0
H2399 H 0.67023 0.93333 0.17934 0.0
H2400 H 0.65761 0.94534 0.13961 0.0
H2401 H 0.63227 0.00559 0.16958 0.0
H2402 H 0.64446 0.9938 0.20957 0.0
H2403 H 0.7548 0.98387 0.29111 0.0
H2404 H 0.73146 0.95798 0.26857 0.0
H2405 H 0.67637 0.00301 0.27455 0.0
H2406 H 0.69954 0.02882 0.29719 0.0
H2407 H 0.68388 0.98543 0.22742 0.0
H2408 H 0.67664 0.96136 0.30954 0.0
H2409 H 0.69115 0.94864 0.34826 0.0
H2410 H 0.72092 0.89235 0.31434 0.0
H2411 H 0.70683 0.90493 0.27534 0.0
C2412 C 0.60662 0.9153 0.20075 0.0
C2413 C 0.6111 0.89283 0.19671 0.0
C2414 C 0.6221 0.9287 0.2123 0.0
C2415 C 0.64266 0.92005 0.21942 0.0
C2416 C 0.64711 0.89752 0.21549 0.0
C2417 C 0.63145 0.88401 0.20424 0.0
C2418 C 0.65933 0.93454 0.23116 0.0
C2419 C 0.66838 0.92787 0.25308 0.0
C2420 C 0.6654 0.95537 0.22153 0.0
C2421 C 0.65811 0.96259 0.19749 0.0
C2422 C 0.66183 0.94907 0.17749 0.0
C2423 C 0.65477 0.95585 0.15492 0.0
C2424 C 0.64411 0.9762 0.15208 0.0
C2425 C 0.64052 0.98983 0.17181 0.0
C2426 C 0.64752 0.98311 0.19443 0.0
C2427 C 0.73779 0.98832 0.28734 0.0
C2428 C 0.72899 0.00842 0.29563 0.0
C2429 C 0.72446 0.97348 0.27465 0.0
C2430 C 0.70223 0.97864 0.26992 0.0
C2431 C 0.69351 0.9988 0.27797 0.0
C2432 C 0.70671 0.01345 0.29095 0.0
C2433 C 0.68783 0.96296 0.25684 0.0
C2434 C 0.67928 0.96943 0.2347 0.0
C2435 C 0.68254 0.94183 0.26605 0.0
C2436 C 0.69091 0.93423 0.28949 0.0
C2437 C 0.68646 0.94638 0.3103 0.0
C2438 C 0.69457 0.93917 0.33231 0.0
C2439 C 0.70701 0.91973 0.33375 0.0
C2440 C 0.71131 0.90742 0.31319 0.0
C2441 C 0.70326 0.91458 0.29114 0.0
H2442 H 0.71327 0.91417 0.3508 0.0
H2443 H 0.63866 0.98142 0.13459 0.0
H2444 H 0.09312 0.69607 0.30672 0.0
H2445 H 0.11995 0.67271 0.28606 0.0
H2446 H 0.16132 0.72979 0.27329 0.0
H2447 H 0.13411 0.75331 0.29339 0.0
H2448 H 0.16118 0.70543 0.23537 0.0
H2449 H 0.17345 0.69069 0.31746 0.0
H2450 H 0.1639 0.68112 0.35891 0.0
H2451 H 0.14026 0.61753 0.33605 0.0
H2452 H 0.14939 0.62684 0.2944 0.0
H2453 H 0.25477 0.63575 0.20628 0.0
H2454 H 0.2313 0.662 0.22821 0.0
H2455 H 0.17748 0.61508 0.22663 0.0
H2456 H 0.2007 0.589 0.20443 0.0
H2457 H 0.18717 0.63585 0.27311 0.0
H2458 H 0.17401 0.65351 0.18981 0.0
H2459 H 0.18581 0.66407 0.14932 0.0
H2460 H 0.21466 0.72387 0.17669 0.0
H2461 H 0.2033 0.71347 0.21742 0.0
C2462 C 0.10792 0.70362 0.29942 0.0
C2463 C 0.11145 0.7265 0.30144 0.0
C2464 C 0.12332 0.69025 0.28774 0.0
C2465 C 0.1429 0.69939 0.27845 0.0
C2466 C 0.14635 0.72233 0.28027 0.0
C2467 C 0.13075 0.73578 0.29166 0.0
C2468 C 0.15966 0.68495 0.26681 0.0
C2469 C 0.16712 0.69043 0.24384 0.0
C2470 C 0.16741 0.66526 0.27773 0.0
C2471 C 0.16194 0.65954 0.30277 0.0
C2472 C 0.16607 0.67472 0.32125 0.0
C2473 C 0.16075 0.66934 0.34478 0.0
C2474 C 0.15143 0.64875 0.3501 0.0
C2475 C 0.14746 0.63348 0.3319 0.0
C2476 C 0.15273 0.63879 0.30832 0.0
C2477 C 0.23801 0.63101 0.21085 0.0
C2478 C 0.22954 0.61033 0.20389 0.0
C2479 C 0.22462 0.64601 0.22322 0.0
C2480 C 0.20271 0.64041 0.22901 0.0
C2481 C 0.19437 0.61964 0.22236 0.0
C2482 C 0.20759 0.60484 0.20963 0.0
C2483 C 0.18824 0.65623 0.24172 0.0
C2484 C 0.1813 0.65099 0.26486 0.0
C2485 C 0.18131 0.6763 0.23116 0.0
C2486 C 0.18805 0.68258 0.20668 0.0
C2487 C 0.18306 0.6688 0.18723 0.0
C2488 C 0.18963 0.67478 0.16422 0.0
C2489 C 0.20104 0.69459 0.16044 0.0
C2490 C 0.20586 0.7085 0.17965 0.0
C2491 C 0.19935 0.70258 0.20269 0.0
H2492 H 0.20611 0.6992 0.14262 0.0
H2493 H 0.14733 0.64461 0.36834 0.0
H2494 H 0.36692 0.12442 0.27363 0.0
H2495 H 0.39156 0.14904 0.25167 0.0
H2496 H 0.44602 0.12958 0.29662 0.0
H2497 H 0.4218 0.10403 0.31801 0.0
H2498 H 0.44069 0.17664 0.29037 0.0
H2499 H 0.44513 0.1092 0.24408 0.0
H2500 H 0.42935 0.0781 0.22123 0.0
H2501 H 0.40011 0.12379 0.17179 0.0
H2502 H 0.41545 0.15518 0.19457 0.0
H2503 H 0.53136 0.22319 0.22778 0.0
H2504 H 0.50556 0.19929 0.2494 0.0
H2505 H 0.45796 0.20618 0.19246 0.0
H2506 H 0.48415 0.22938 0.17047 0.0
H2507 H 0.45846 0.16589 0.20487 0.0
H2508 H 0.45316 0.23327 0.24882 0.0
H2509 H 0.46665 0.26563 0.27133 0.0
H2510 H 0.4942 0.22267 0.32458 0.0
H2511 H 0.48115 0.19003 0.3022 0.0
C2512 C 0.38421 0.12469 0.27844 0.0
C2513 C 0.39242 0.11159 0.29721 0.0
C2514 C 0.39824 0.13911 0.26605 0.0
C2515 C 0.42062 0.141 0.27244 0.0
C2516 C 0.42879 0.12833 0.29141 0.0
C2517 C 0.41488 0.11372 0.30358 0.0
C2518 C 0.43557 0.15625 0.25944 0.0
C2519 C 0.44481 0.17422 0.27173 0.0
C2520 C 0.44031 0.15341 0.23498 0.0
C2521 C 0.43124 0.13454 0.22117 0.0
C2522 C 0.43517 0.11262 0.22846 0.0
C2523 C 0.42634 0.09494 0.2155 0.0
C2524 C 0.41369 0.09897 0.19511 0.0
C2525 C 0.40989 0.12069 0.1876 0.0
C2526 C 0.41866 0.13843 0.20052 0.0
C2527 C 0.51524 0.21989 0.22012 0.0
C2528 C 0.50955 0.22841 0.19768 0.0
C2529 C 0.50048 0.20621 0.23246 0.0
C2530 C 0.47955 0.2012 0.22282 0.0
C2531 C 0.47394 0.20977 0.20034 0.0
C2532 C 0.48886 0.22308 0.18782 0.0
C2533 C 0.4638 0.18649 0.23575 0.0
C2534 C 0.45436 0.16853 0.22347 0.0
C2535 C 0.45855 0.1896 0.26014 0.0
C2536 C 0.46635 0.2092 0.27371 0.0
C2537 C 0.46223 0.23072 0.26524 0.0
C2538 C 0.46978 0.24911 0.27799 0.0
C2539 C 0.48132 0.24621 0.29934 0.0
C2540 C 0.48529 0.2249 0.30802 0.0
C2541 C 0.4778 0.20644 0.29532 0.0
H2542 H 0.48715 0.26047 0.30918 0.0
H2543 H 0.40686 0.08526 0.1851 0.0
loop_
_geom_bond_atom_site_label_1
_geom_bond_atom_site_label_2
_geom_bond_distance
_geom_bond_site_symmetry_2
_ccdc_geom_bond_type
Co0 O3 1.970 . S
Co0 N17 1.989 . S
Co0 O25 1.967 . S
Co0 O32 1.920 . S
Co1 O4 1.966 . S
Co1 N10 2.022 . S
Co1 N18 1.993 . S
Co1 O26 1.941 . S
C2 O3 1.258 . S
C2 O4 1.263 . S
O3 Co0 1.970 . S
O3 C2 1.258 . S
O4 Co1 1.966 . S
O4 C2 1.263 . S
C5 O6 1.235 . S
C5 O32 1.289 . S
O6 C5 1.235 . S
C7 C9 1.400 . S
C7 N10 1.351 . S
C7 C12 1.501 . S
C8 C9 1.387 . S
C8 N11 1.341 . S
C9 C7 1.400 . S
C9 C8 1.387 . S
N10 Co1 2.022 . S
N10 C7 1.351 . S
N10 N11 1.365 . S
N11 C8 1.341 . S
N11 N10 1.365 . S
N11 H31 0.862 . S
C12 C7 1.501 . S
C12 H13 0.961 . S
C12 H14 0.961 . S
C12 H15 0.960 1_455 S
H13 C12 0.961 . S
H14 C12 0.961 . S
H15 C12 0.960 1_655 S
C16 N17 1.342 . S
C16 C20 1.401 . S
C16 C21 1.499 . S
N17 Co0 1.989 . S
N17 C16 1.342 . S
N17 N18 1.388 . S
N18 Co1 1.993 . S
N18 N17 1.388 . S
N18 C19 1.346 . S
C19 N18 1.346 . S
C19 C20 1.396 . S
C19 C29 1.510 . S
C20 C16 1.401 . S
C20 C19 1.396 . S
C21 C16 1.499 . S
C21 H22 0.959 . S
C21 H23 0.960 . S
C21 H24 0.961 . S
H22 C21 0.959 . S
H23 C21 0.960 . S
H24 C21 0.961 . S
O25 Co0 1.967 . S
O25 C33 1.258 . S
O26 Co1 1.941 . S
O26 C33 1.266 . S
H27 C29 0.959 . S
H28 C29 0.961 . S
C29 C19 1.510 . S
C29 H27 0.959 . S
C29 H28 0.961 . S
C29 H30 0.960 . S
H30 C29 0.960 . S
H31 N11 0.862 . S
O32 Co0 1.920 . S
O32 C5 1.289 . S
C33 O25 1.258 . S
C33 O26 1.266 . S
Co34 O37 1.970 . S
Co34 N51 1.989 . S
Co34 O59 1.967 . S
Co34 O66 1.920 . S
Co35 O38 1.966 . S
Co35 N44 2.022 . S
Co35 N52 1.993 . S
Co35 O60 1.941 . S
C36 O37 1.258 . S
C36 O38 1.263 . S
O37 Co34 1.970 . S
O37 C36 1.258 . S
O38 Co35 1.966 . S
O38 C36 1.263 . S
C39 O40 1.235 . S
C39 O66 1.289 . S
O40 C39 1.235 . S
C41 C43 1.400 . S
C41 N44 1.351 . S
C41 C46 1.501 . S
C42 C43 1.387 . S
C42 N45 1.341 . S
C43 C41 1.400 . S
C43 C42 1.387 . S
N44 Co35 2.022 . S
N44 C41 1.351 . S
N44 N45 1.365 . S
N45 C42 1.341 . S
N45 N44 1.365 . S
N45 H65 0.862 . S
C46 C41 1.501 . S
C46 H47 0.961 . S
C46 H48 0.961 . S
C46 H49 0.960 1_545 S
H47 C46 0.961 . S
H48 C46 0.961 . S
H49 C46 0.960 1_565 S
C50 N51 1.342 . S
C50 C54 1.401 . S
C50 C55 1.499 . S
N51 Co34 1.989 . S
N51 C50 1.342 . S
N51 N52 1.388 . S
N52 Co35 1.993 . S
N52 N51 1.388 . S
N52 C53 1.346 . S
C53 N52 1.346 . S
C53 C54 1.396 . S
C53 C63 1.510 . S
C54 C50 1.401 . S
C54 C53 1.396 . S
C55 C50 1.499 . S
C55 H56 0.959 . S
C55 H57 0.960 . S
C55 H58 0.961 . S
H56 C55 0.959 . S
H57 C55 0.960 . S
H58 C55 0.961 . S
O59 Co34 1.967 . S
O59 C67 1.258 . S
O60 Co35 1.941 . S
O60 C67 1.266 . S
H61 C63 0.959 . S
H62 C63 0.961 . S
C63 C53 1.510 . S
C63 H61 0.959 . S
C63 H62 0.961 . S
C63 H64 0.960 . S
H64 C63 0.960 . S
H65 N45 0.862 . S
O66 Co34 1.920 . S
O66 C39 1.289 . S
C67 O59 1.258 . S
C67 O60 1.266 . S
Co68 O71 1.970 . S
Co68 N85 1.989 . S
Co68 O93 1.967 . S
Co68 O100 1.890 1_455 S
Co69 O72 1.966 . S
Co69 N78 2.022 . S
Co69 N86 1.993 . S
Co69 O94 1.941 . S
C70 O71 1.258 . S
C70 O72 1.263 . S
O71 Co68 1.970 . S
O71 C70 1.258 . S
O72 Co69 1.966 . S
O72 C70 1.263 . S
C73 O74 1.235 . S
C73 O100 1.303 . S
O74 C73 1.235 . S
C75 C77 1.400 . S
C75 N78 1.351 . S
C75 C80 1.501 . S
C76 C77 1.387 . S
C76 N79 1.341 . S
C77 C75 1.400 . S
C77 C76 1.387 . S
N78 Co69 2.022 . S
N78 C75 1.351 . S
N78 N79 1.365 . S
N79 C76 1.341 . S
N79 N78 1.365 . S
N79 H99 0.862 . S
C80 C75 1.501 . S
C80 H81 0.961 . S
C80 H82 0.961 . S
C80 H83 0.960 . S
H81 C80 0.961 . S
H82 C80 0.961 . S
H83 C80 0.960 . S
C84 N85 1.342 1_655 S
C84 C88 1.404 . S
C84 C89 1.499 . S
N85 Co68 1.989 . S
N85 C84 1.342 1_455 S
N85 N86 1.388 . S
N86 Co69 1.993 . S
N86 N85 1.388 . S
N86 C87 1.346 . S
C87 N86 1.346 . S
C87 C88 1.378 1_455 S
C87 C97 1.510 . S
C88 C84 1.404 . S
C88 C87 1.378 1_655 S
C89 C84 1.499 . S
C89 H90 0.959 . S
C89 H91 0.960 . S
C89 H92 0.961 . S
H90 C89 0.959 . S
H91 C89 0.960 . S
H92 C89 0.961 . S
O93 Co68 1.967 . S
O93 C101 1.258 . S
O94 Co69 1.941 . S
O94 C101 1.266 . S
H95 C97 0.959 . S
H96 C97 0.961 . S
C97 C87 1.510 . S
C97 H95 0.959 . S
C97 H96 0.961 . S
C97 H98 0.960 . S
H98 C97 0.960 . S
H99 N79 0.862 . S
O100 Co68 1.890 1_655 S
O100 C73 1.303 . S
C101 O93 1.258 . S
C101 O94 1.266 . S
Co102 O105 1.970 . S
Co102 N119 1.989 . S
Co102 O127 1.967 . S
Co102 O134 1.890 1_545 S
Co103 O106 1.966 . S
Co103 N112 2.022 . S
Co103 N120 1.993 . S
Co103 O128 1.941 . S
C104 O105 1.258 . S
C104 O106 1.263 . S
O105 Co102 1.970 . S
O105 C104 1.258 . S
O106 Co103 1.966 . S
O106 C104 1.263 . S
C107 O108 1.235 . S
C107 O134 1.303 . S
O108 C107 1.235 . S
C109 C111 1.400 . S
C109 N112 1.351 . S
C109 C114 1.501 . S
C110 C111 1.387 . S
C110 N113 1.341 . S
C111 C109 1.400 . S
C111 C110 1.387 . S
N112 Co103 2.022 . S
N112 C109 1.351 . S
N112 N113 1.365 . S
N113 C110 1.341 . S
N113 N112 1.365 . S
N113 H133 0.862 . S
C114 C109 1.501 . S
C114 H115 0.961 . S
C114 H116 0.961 . S
C114 H117 0.960 . S
H115 C114 0.961 . S
H116 C114 0.961 . S
H117 C114 0.960 . S
C118 N119 1.342 1_565 S
C118 C122 1.404 . S
C118 C123 1.499 . S
N119 Co102 1.989 . S
N119 C118 1.342 1_545 S
N119 N120 1.388 . S
N120 Co103 1.993 . S
N120 N119 1.388 . S
N120 C121 1.346 . S
C121 N120 1.346 . S
C121 C122 1.378 1_545 S
C121 C131 1.510 . S
C122 C118 1.404 . S
C122 C121 1.378 1_565 S
C123 C118 1.499 . S
C123 H124 0.959 . S
C123 H125 0.960 . S
C123 H126 0.961 . S
H124 C123 0.959 . S
H125 C123 0.960 . S
H126 C123 0.961 . S
O127 Co102 1.967 . S
O127 C135 1.258 . S
O128 Co103 1.941 . S
O128 C135 1.266 . S
H129 C131 0.959 . S
H130 C131 0.961 . S
C131 C121 1.510 . S
C131 H129 0.959 . S
C131 H130 0.961 . S
C131 H132 0.960 . S
H132 C131 0.960 . S
H133 N113 0.862 . S
O134 Co102 1.890 1_565 S
O134 C107 1.303 . S
C135 O127 1.258 . S
C135 O128 1.266 . S
Co136 O139 1.970 . S
Co136 N153 1.989 . S
Co136 O161 1.967 . S
Co136 O168 1.920 . S
Co137 O140 1.966 . S
Co137 N146 2.022 . S
Co137 N154 1.993 . S
Co137 O162 1.941 . S
C138 O139 1.258 . S
C138 O140 1.263 . S
O139 Co136 1.970 . S
O139 C138 1.258 . S
O140 Co137 1.966 . S
O140 C138 1.263 . S
C141 O142 1.235 . S
C141 O168 1.289 . S
O142 C141 1.235 . S
C143 C145 1.400 . S
C143 N146 1.351 . S
C143 C148 1.501 . S
C144 C145 1.387 . S
C144 N147 1.341 . S
C145 C143 1.400 . S
C145 C144 1.387 . S
N146 Co137 2.022 . S
N146 C143 1.351 . S
N146 N147 1.365 . S
N147 C144 1.341 . S
N147 N146 1.365 . S
N147 H167 0.862 . S
C148 C143 1.501 . S
C148 H149 0.961 . S
C148 H150 0.961 . S
C148 H151 0.960 1_455 S
H149 C148 0.961 . S
H150 C148 0.961 . S
H151 C148 0.960 1_655 S
C152 N153 1.342 . S
C152 C156 1.401 . S
C152 C157 1.499 . S
N153 Co136 1.989 . S
N153 C152 1.342 . S
N153 N154 1.388 . S
N154 Co137 1.993 . S
N154 N153 1.388 . S
N154 C155 1.346 . S
C155 N154 1.346 . S
C155 C156 1.396 . S
C155 C165 1.510 . S
C156 C152 1.401 . S
C156 C155 1.396 . S
C157 C152 1.499 . S
C157 H158 0.959 . S
C157 H159 0.960 . S
C157 H160 0.961 . S
H158 C157 0.959 . S
H159 C157 0.960 . S
H160 C157 0.961 . S
O161 Co136 1.967 . S
O161 C169 1.258 . S
O162 Co137 1.941 . S
O162 C169 1.266 . S
H163 C165 0.959 . S
H164 C165 0.961 . S
C165 C155 1.510 . S
C165 H163 0.959 . S
C165 H164 0.961 . S
C165 H166 0.960 . S
H166 C165 0.960 . S
H167 N147 0.862 . S
O168 Co136 1.920 . S
O168 C141 1.289 . S
C169 O161 1.258 . S
C169 O162 1.266 . S
Co170 O173 1.970 . S
Co170 N187 1.989 . S
Co170 O195 1.967 . S
Co170 O202 1.920 . S
Co171 O174 1.966 . S
Co171 N180 2.022 . S
Co171 N188 1.993 . S
Co171 O196 1.941 . S
C172 O173 1.258 . S
C172 O174 1.263 . S
O173 Co170 1.970 . S
O173 C172 1.258 . S
O174 Co171 1.966 . S
O174 C172 1.263 . S
C175 O176 1.235 . S
C175 O202 1.289 . S
O176 C175 1.235 . S
C177 C179 1.400 . S
C177 N180 1.351 . S
C177 C182 1.501 . S
C178 C179 1.387 . S
C178 N181 1.341 . S
C179 C177 1.400 . S
C179 C178 1.387 . S
N180 Co171 2.022 . S
N180 C177 1.351 . S
N180 N181 1.365 . S
N181 C178 1.341 . S
N181 N180 1.365 . S
N181 H201 0.862 . S
C182 C177 1.501 . S
C182 H183 0.961 . S
C182 H184 0.961 . S
C182 H185 0.960 1_545 S
H183 C182 0.961 . S
H184 C182 0.961 . S
H185 C182 0.960 1_565 S
C186 N187 1.342 . S
C186 C190 1.401 . S
C186 C191 1.499 . S
N187 Co170 1.989 . S
N187 C186 1.342 . S
N187 N188 1.388 . S
N188 Co171 1.993 . S
N188 N187 1.388 . S
N188 C189 1.346 . S
C189 N188 1.346 . S
C189 C190 1.396 . S
C189 C199 1.510 . S
C190 C186 1.401 . S
C190 C189 1.396 . S
C191 C186 1.499 . S
C191 H192 0.959 . S
C191 H193 0.960 . S
C191 H194 0.961 . S
H192 C191 0.959 . S
H193 C191 0.960 . S
H194 C191 0.961 . S
O195 Co170 1.967 . S
O195 C203 1.258 . S
O196 Co171 1.941 . S
O196 C203 1.266 . S
H197 C199 0.959 . S
H198 C199 0.961 . S
C199 C189 1.510 . S
C199 H197 0.959 . S
C199 H198 0.961 . S
C199 H200 0.960 . S
H200 C199 0.960 . S
H201 N181 0.862 . S
O202 Co170 1.920 . S
O202 C175 1.289 . S
C203 O195 1.258 . S
C203 O196 1.266 . S
Co204 O207 1.970 . S
Co204 N221 1.989 . S
Co204 O229 1.967 . S
Co204 O236 1.890 1_455 S
Co205 O208 1.966 . S
Co205 N214 2.022 . S
Co205 N222 1.993 . S
Co205 O230 1.941 . S
C206 O207 1.258 . S
C206 O208 1.263 . S
O207 Co204 1.970 . S
O207 C206 1.258 . S
O208 Co205 1.966 . S
O208 C206 1.263 . S
C209 O210 1.235 . S
C209 O236 1.303 . S
O210 C209 1.235 . S
C211 C213 1.400 . S
C211 N214 1.351 . S
C211 C216 1.501 . S
C212 C213 1.387 . S
C212 N215 1.341 . S
C213 C211 1.400 . S
C213 C212 1.387 . S
N214 Co205 2.022 . S
N214 C211 1.351 . S
N214 N215 1.365 . S
N215 C212 1.341 . S
N215 N214 1.365 . S
N215 H235 0.862 . S
C216 C211 1.501 . S
C216 H217 0.961 . S
C216 H218 0.961 . S
C216 H219 0.960 . S
H217 C216 0.961 . S
H218 C216 0.961 . S
H219 C216 0.960 . S
C220 N221 1.342 1_655 S
C220 C224 1.404 . S
C220 C225 1.499 . S
N221 Co204 1.989 . S
N221 C220 1.342 1_455 S
N221 N222 1.388 . S
N222 Co205 1.993 . S
N222 N221 1.388 . S
N222 C223 1.346 . S
C223 N222 1.346 . S
C223 C224 1.378 1_455 S
C223 C233 1.510 . S
C224 C220 1.404 . S
C224 C223 1.378 1_655 S
C225 C220 1.499 . S
C225 H226 0.959 . S
C225 H227 0.960 . S
C225 H228 0.961 . S
H226 C225 0.959 . S
H227 C225 0.960 . S
H228 C225 0.961 . S
O229 Co204 1.967 . S
O229 C237 1.258 . S
O230 Co205 1.941 . S
O230 C237 1.266 . S
H231 C233 0.959 . S
H232 C233 0.961 . S
C233 C223 1.510 . S
C233 H231 0.959 . S
C233 H232 0.961 . S
C233 H234 0.960 . S
H234 C233 0.960 . S
H235 N215 0.862 . S
O236 Co204 1.890 1_655 S
O236 C209 1.303 . S
C237 O229 1.258 . S
C237 O230 1.266 . S
Co238 O241 1.970 . S
Co238 N255 1.989 . S
Co238 O263 1.967 . S
Co238 O270 1.890 1_545 S
Co239 O242 1.966 . S
Co239 N248 2.022 . S
Co239 N256 1.993 . S
Co239 O264 1.941 . S
C240 O241 1.258 . S
C240 O242 1.263 . S
O241 Co238 1.970 . S
O241 C240 1.258 . S
O242 Co239 1.966 . S
O242 C240 1.263 . S
C243 O244 1.235 . S
C243 O270 1.303 . S
O244 C243 1.235 . S
C245 C247 1.400 . S
C245 N248 1.351 . S
C245 C250 1.501 . S
C246 C247 1.387 . S
C246 N249 1.341 . S
C247 C245 1.400 . S
C247 C246 1.387 . S
N248 Co239 2.022 . S
N248 C245 1.351 . S
N248 N249 1.365 . S
N249 C246 1.341 . S
N249 N248 1.365 . S
N249 H269 0.862 . S
C250 C245 1.501 . S
C250 H251 0.961 . S
C250 H252 0.961 . S
C250 H253 0.960 . S
H251 C250 0.961 . S
H252 C250 0.961 . S
H253 C250 0.960 . S
C254 N255 1.342 1_565 S
C254 C258 1.405 . S
C254 C259 1.499 . S
N255 Co238 1.989 . S
N255 C254 1.342 1_545 S
N255 N256 1.388 . S
N256 Co239 1.993 . S
N256 N255 1.388 . S
N256 C257 1.346 . S
C257 N256 1.346 . S
C257 C258 1.378 1_545 S
C257 C267 1.510 . S
C258 C254 1.405 . S
C258 C257 1.378 1_565 S
C259 C254 1.499 . S
C259 H260 0.959 . S
C259 H261 0.960 . S
C259 H262 0.961 . S
H260 C259 0.959 . S
H261 C259 0.960 . S
H262 C259 0.961 . S
O263 Co238 1.967 . S
O263 C271 1.258 . S
O264 Co239 1.941 . S
O264 C271 1.266 . S
H265 C267 0.959 . S
H266 C267 0.961 . S
C267 C257 1.510 . S
C267 H265 0.959 . S
C267 H266 0.961 . S
C267 H268 0.960 . S
H268 C267 0.960 . S
H269 N249 0.862 . S
O270 Co238 1.890 1_565 S
O270 C243 1.303 . S
C271 O263 1.258 . S
C271 O264 1.266 . S
Co272 O275 1.970 . S
Co272 N289 1.989 . S
Co272 O297 1.967 . S
Co272 O304 1.920 . S
Co273 O276 1.966 . S
Co273 N282 2.022 . S
Co273 N290 1.993 . S
Co273 O298 1.941 . S
C274 O275 1.258 . S
C274 O276 1.263 . S
O275 Co272 1.970 . S
O275 C274 1.258 . S
O276 Co273 1.966 . S
O276 C274 1.263 . S
C277 O278 1.235 . S
C277 O304 1.289 . S
O278 C277 1.235 . S
C279 C281 1.400 . S
C279 N282 1.351 . S
C279 C284 1.501 . S
C280 C281 1.387 . S
C280 N283 1.341 . S
C281 C279 1.400 . S
C281 C280 1.387 . S
N282 Co273 2.022 . S
N282 C279 1.351 . S
N282 N283 1.365 . S
N283 C280 1.341 . S
N283 N282 1.365 . S
N283 H303 0.862 . S
C284 C279 1.501 . S
C284 H285 0.961 . S
C284 H286 0.961 . S
C284 H287 0.960 . S
H285 C284 0.961 . S
H286 C284 0.961 . S
H287 C284 0.960 . S
C288 N289 1.342 . S
C288 C292 1.401 . S
C288 C293 1.499 . S
N289 Co272 1.989 . S
N289 C288 1.342 . S
N289 N290 1.388 . S
N290 Co273 1.993 . S
N290 N289 1.388 . S
N290 C291 1.346 . S
C291 N290 1.346 . S
C291 C292 1.396 . S
C291 C301 1.510 . S
C292 C288 1.401 . S
C292 C291 1.396 . S
C293 C288 1.499 . S
C293 H294 0.959 . S
C293 H295 0.960 . S
C293 H296 0.961 . S
H294 C293 0.959 . S
H295 C293 0.960 . S
H296 C293 0.961 . S
O297 Co272 1.967 . S
O297 C305 1.258 . S
O298 Co273 1.941 . S
O298 C305 1.266 . S
H299 C301 0.959 . S
H300 C301 0.961 . S
C301 C291 1.510 . S
C301 H299 0.959 . S
C301 H300 0.961 . S
C301 H302 0.960 . S
H302 C301 0.960 . S
H303 N283 0.862 . S
O304 Co272 1.920 . S
O304 C277 1.289 . S
C305 O297 1.258 . S
C305 O298 1.266 . S
Co306 O309 1.970 . S
Co306 N323 1.989 . S
Co306 O331 1.967 . S
Co306 O338 1.920 . S
Co307 O310 1.966 . S
Co307 N316 2.022 . S
Co307 N324 1.993 . S
Co307 O332 1.941 . S
C308 O309 1.258 . S
C308 O310 1.263 . S
O309 Co306 1.970 . S
O309 C308 1.258 . S
O310 Co307 1.966 . S
O310 C308 1.263 . S
C311 O312 1.235 . S
C311 O338 1.289 . S
O312 C311 1.235 . S
C313 C315 1.400 . S
C313 N316 1.351 . S
C313 C318 1.501 . S
C314 C315 1.387 . S
C314 N317 1.341 . S
C315 C313 1.400 . S
C315 C314 1.387 . S
N316 Co307 2.022 . S
N316 C313 1.351 . S
N316 N317 1.365 . S
N317 C314 1.341 . S
N317 N316 1.365 . S
N317 H337 0.862 . S
C318 C313 1.501 . S
C318 H319 0.961 . S
C318 H320 0.961 . S
C318 H321 0.960 . S
H319 C318 0.961 . S
H320 C318 0.961 . S
H321 C318 0.960 . S
C322 N323 1.342 . S
C322 C326 1.401 . S
C322 C327 1.499 . S
N323 Co306 1.989 . S
N323 C322 1.342 . S
N323 N324 1.388 . S
N324 Co307 1.993 . S
N324 N323 1.388 . S
N324 C325 1.346 . S
C325 N324 1.346 . S
C325 C326 1.396 . S
C325 C335 1.510 . S
C326 C322 1.401 . S
C326 C325 1.396 . S
C327 C322 1.499 . S
C327 H328 0.959 . S
C327 H329 0.960 . S
C327 H330 0.961 . S
H328 C327 0.959 . S
H329 C327 0.960 . S
H330 C327 0.961 . S
O331 Co306 1.967 . S
O331 C339 1.258 . S
O332 Co307 1.941 . S
O332 C339 1.266 . S
H333 C335 0.959 . S
H334 C335 0.961 . S
C335 C325 1.510 . S
C335 H333 0.959 . S
C335 H334 0.961 . S
C335 H336 0.960 . S
H336 C335 0.960 . S
H337 N317 0.862 . S
O338 Co306 1.920 . S
O338 C311 1.289 . S
C339 O331 1.258 . S
C339 O332 1.266 . S
Co340 O343 1.970 . S
Co340 N357 1.989 . S
Co340 O365 1.967 . S
Co340 O372 1.920 . S
Co341 O344 1.966 . S
Co341 N350 2.022 . S
Co341 N358 1.993 . S
Co341 O366 1.941 . S
C342 O343 1.258 . S
C342 O344 1.263 . S
O343 Co340 1.970 . S
O343 C342 1.258 . S
O344 Co341 1.966 . S
O344 C342 1.263 . S
C345 O346 1.235 . S
C345 O372 1.289 . S
O346 C345 1.235 . S
C347 C349 1.400 . S
C347 N350 1.351 . S
C347 C352 1.501 . S
C348 C349 1.387 . S
C348 N351 1.341 . S
C349 C347 1.400 . S
C349 C348 1.387 . S
N350 Co341 2.022 . S
N350 C347 1.351 . S
N350 N351 1.365 . S
N351 C348 1.341 . S
N351 N350 1.365 . S
N351 H371 0.862 . S
C352 C347 1.501 . S
C352 H353 0.961 . S
C352 H354 0.961 . S
C352 H355 0.960 . S
H353 C352 0.961 . S
H354 C352 0.961 . S
H355 C352 0.960 . S
C356 N357 1.342 . S
C356 C360 1.401 . S
C356 C361 1.499 . S
N357 Co340 1.989 . S
N357 C356 1.342 . S
N357 N358 1.388 . S
N358 Co341 1.993 . S
N358 N357 1.388 . S
N358 C359 1.346 . S
C359 N358 1.346 . S
C359 C360 1.396 . S
C359 C369 1.510 . S
C360 C356 1.401 . S
C360 C359 1.396 . S
C361 C356 1.499 . S
C361 H362 0.959 . S
C361 H363 0.960 . S
C361 H364 0.961 . S
H362 C361 0.959 . S
H363 C361 0.960 . S
H364 C361 0.961 . S
O365 Co340 1.967 . S
O365 C373 1.258 . S
O366 Co341 1.941 . S
O366 C373 1.266 . S
H367 C369 0.959 . S
H368 C369 0.961 . S
C369 C359 1.510 . S
C369 H367 0.959 . S
C369 H368 0.961 . S
C369 H370 0.960 . S
H370 C369 0.960 . S
H371 N351 0.862 . S
O372 Co340 1.920 . S
O372 C345 1.289 . S
C373 O365 1.258 . S
C373 O366 1.266 . S
Co374 O377 1.970 . S
Co374 N391 1.989 . S
Co374 O399 1.967 . S
Co374 O406 1.920 . S
Co375 O378 1.966 . S
Co375 N384 2.022 . S
Co375 N392 1.993 . S
Co375 O400 1.941 . S
C376 O377 1.258 . S
C376 O378 1.263 . S
O377 Co374 1.970 . S
O377 C376 1.258 . S
O378 Co375 1.966 . S
O378 C376 1.263 . S
C379 O380 1.235 . S
C379 O406 1.289 . S
O380 C379 1.235 . S
C381 C383 1.400 . S
C381 N384 1.351 . S
C381 C386 1.501 . S
C382 C383 1.387 . S
C382 N385 1.341 . S
C383 C381 1.400 . S
C383 C382 1.387 . S
N384 Co375 2.022 . S
N384 C381 1.351 . S
N384 N385 1.365 . S
N385 C382 1.341 . S
N385 N384 1.365 . S
N385 H405 0.862 . S
C386 C381 1.501 . S
C386 H387 0.961 . S
C386 H388 0.961 . S
C386 H389 0.960 . S
H387 C386 0.961 . S
H388 C386 0.961 . S
H389 C386 0.960 . S
C390 N391 1.342 . S
C390 C394 1.401 . S
C390 C395 1.499 . S
N391 Co374 1.989 . S
N391 C390 1.342 . S
N391 N392 1.388 . S
N392 Co375 1.993 . S
N392 N391 1.388 . S
N392 C393 1.346 . S
C393 N392 1.346 . S
C393 C394 1.396 . S
C393 C403 1.510 . S
C394 C390 1.401 . S
C394 C393 1.396 . S
C395 C390 1.499 . S
C395 H396 0.959 . S
C395 H397 0.960 . S
C395 H398 0.961 . S
H396 C395 0.959 . S
H397 C395 0.960 . S
H398 C395 0.961 . S
O399 Co374 1.967 . S
O399 C407 1.258 . S
O400 Co375 1.941 . S
O400 C407 1.266 . S
H401 C403 0.959 . S
H402 C403 0.961 . S
C403 C393 1.510 . S
C403 H401 0.959 . S
C403 H402 0.961 . S
C403 H404 0.960 . S
H404 C403 0.960 . S
H405 N385 0.862 . S
O406 Co374 1.920 . S
O406 C379 1.289 . S
C407 O399 1.258 . S
C407 O400 1.266 . S
Co408 O411 1.970 . S
Co408 N425 1.989 . S
Co408 O433 1.967 . S
Co408 O440 1.920 . S
Co409 O412 1.966 . S
Co409 N418 2.022 . S
Co409 N426 1.993 . S
Co409 O434 1.941 . S
C410 O411 1.258 . S
C410 O412 1.263 . S
O411 Co408 1.970 . S
O411 C410 1.258 . S
O412 Co409 1.966 . S
O412 C410 1.263 . S
C413 O414 1.235 . S
C413 O440 1.289 . S
O414 C413 1.235 . S
C415 C417 1.400 . S
C415 N418 1.351 . S
C415 C420 1.501 . S
C416 C417 1.387 . S
C416 N419 1.341 . S
C417 C415 1.400 . S
C417 C416 1.387 . S
N418 Co409 2.022 . S
N418 C415 1.351 . S
N418 N419 1.365 . S
N419 C416 1.341 . S
N419 N418 1.365 . S
N419 H439 0.862 . S
C420 C415 1.501 . S
C420 H421 0.961 . S
C420 H422 0.961 . S
C420 H423 0.960 . S
H421 C420 0.961 . S
H422 C420 0.961 . S
H423 C420 0.960 . S
C424 N425 1.342 . S
C424 C428 1.401 . S
C424 C429 1.499 . S
N425 Co408 1.989 . S
N425 C424 1.342 . S
N425 N426 1.388 . S
N426 Co409 1.993 . S
N426 N425 1.388 . S
N426 C427 1.346 . S
C427 N426 1.346 . S
C427 C428 1.396 . S
C427 C437 1.510 . S
C428 C424 1.401 . S
C428 C427 1.396 . S
C429 C424 1.499 . S
C429 H430 0.959 . S
C429 H431 0.960 . S
C429 H432 0.961 . S
H430 C429 0.959 . S
H431 C429 0.960 . S
H432 C429 0.961 . S
O433 Co408 1.967 . S
O433 C441 1.258 . S
O434 Co409 1.941 . S
O434 C441 1.266 . S
H435 C437 0.959 . S
H436 C437 0.961 . S
C437 C427 1.510 . S
C437 H435 0.959 . S
C437 H436 0.961 . S
C437 H438 0.960 . S
H438 C437 0.960 . S
H439 N419 0.862 . S
O440 Co408 1.920 . S
O440 C413 1.289 . S
C441 O433 1.258 . S
C441 O434 1.266 . S
Co442 O445 1.970 . S
Co442 N459 1.989 . S
Co442 O467 1.967 . S
Co442 O474 1.920 . S
Co443 O446 1.966 . S
Co443 N452 2.022 . S
Co443 N460 1.993 . S
Co443 O468 1.941 . S
C444 O445 1.258 . S
C444 O446 1.263 . S
O445 Co442 1.970 . S
O445 C444 1.258 . S
O446 Co443 1.966 . S
O446 C444 1.263 . S
C447 O448 1.235 . S
C447 O474 1.289 . S
O448 C447 1.235 . S
C449 C451 1.400 . S
C449 N452 1.351 . S
C449 C454 1.501 . S
C450 C451 1.387 . S
C450 N453 1.341 . S
C451 C449 1.400 . S
C451 C450 1.387 . S
N452 Co443 2.022 . S
N452 C449 1.351 . S
N452 N453 1.365 . S
N453 C450 1.341 . S
N453 N452 1.365 . S
N453 H473 0.862 . S
C454 C449 1.501 . S
C454 H455 0.961 . S
C454 H456 0.961 . S
C454 H457 0.960 . S
H455 C454 0.961 . S
H456 C454 0.961 . S
H457 C454 0.960 . S
C458 N459 1.342 . S
C458 C462 1.401 . S
C458 C463 1.499 . S
N459 Co442 1.989 . S
N459 C458 1.342 . S
N459 N460 1.388 . S
N460 Co443 1.993 . S
N460 N459 1.388 . S
N460 C461 1.346 . S
C461 N460 1.346 . S
C461 C462 1.396 . S
C461 C471 1.510 . S
C462 C458 1.401 . S
C462 C461 1.396 . S
C463 C458 1.499 . S
C463 H464 0.959 . S
C463 H465 0.960 . S
C463 H466 0.961 . S
H464 C463 0.959 . S
H465 C463 0.960 . S
H466 C463 0.961 . S
O467 Co442 1.967 . S
O467 C475 1.258 . S
O468 Co443 1.941 . S
O468 C475 1.266 . S
H469 C471 0.959 . S
H470 C471 0.961 . S
C471 C461 1.510 . S
C471 H469 0.959 . S
C471 H470 0.961 . S
C471 H472 0.960 . S
H472 C471 0.960 . S
H473 N453 0.862 . S
O474 Co442 1.920 . S
O474 C447 1.289 . S
C475 O467 1.258 . S
C475 O468 1.266 . S
Co476 O479 1.970 . S
Co476 N493 1.989 . S
Co476 O501 1.967 . S
Co476 O508 1.920 . S
Co477 O480 1.966 . S
Co477 N486 2.022 . S
Co477 N494 1.993 . S
Co477 O502 1.941 . S
C478 O479 1.258 . S
C478 O480 1.263 . S
O479 Co476 1.970 . S
O479 C478 1.258 . S
O480 Co477 1.966 . S
O480 C478 1.263 . S
C481 O482 1.235 . S
C481 O508 1.289 . S
O482 C481 1.235 . S
C483 C485 1.400 . S
C483 N486 1.351 . S
C483 C488 1.501 . S
C484 C485 1.387 . S
C484 N487 1.341 . S
C485 C483 1.400 . S
C485 C484 1.387 . S
N486 Co477 2.022 . S
N486 C483 1.351 . S
N486 N487 1.365 . S
N487 C484 1.341 . S
N487 N486 1.365 . S
N487 H507 0.862 . S
C488 C483 1.501 . S
C488 H489 0.961 . S
C488 H490 0.961 . S
C488 H491 0.960 . S
H489 C488 0.961 . S
H490 C488 0.961 . S
H491 C488 0.960 . S
C492 N493 1.342 . S
C492 C496 1.401 . S
C492 C497 1.499 . S
N493 Co476 1.989 . S
N493 C492 1.342 . S
N493 N494 1.388 . S
N494 Co477 1.993 . S
N494 N493 1.388 . S
N494 C495 1.346 . S
C495 N494 1.346 . S
C495 C496 1.396 . S
C495 C505 1.510 . S
C496 C492 1.401 . S
C496 C495 1.396 . S
C497 C492 1.499 . S
C497 H498 0.959 . S
C497 H499 0.960 . S
C497 H500 0.961 . S
H498 C497 0.959 . S
H499 C497 0.960 . S
H500 C497 0.961 . S
O501 Co476 1.967 . S
O501 C509 1.258 . S
O502 Co477 1.941 . S
O502 C509 1.266 . S
H503 C505 0.959 . S
H504 C505 0.961 . S
C505 C495 1.510 . S
C505 H503 0.959 . S
C505 H504 0.961 . S
C505 H506 0.960 . S
H506 C505 0.960 . S
H507 N487 0.862 . S
O508 Co476 1.920 . S
O508 C481 1.289 . S
C509 O501 1.258 . S
C509 O502 1.266 . S
Co510 O513 1.970 . S
Co510 N527 1.989 . S
Co510 O535 1.967 . S
Co510 O542 1.920 . S
Co511 O514 1.966 . S
Co511 N520 2.022 . S
Co511 N528 1.993 . S
Co511 O536 1.941 . S
C512 O513 1.258 . S
C512 O514 1.263 . S
O513 Co510 1.970 . S
O513 C512 1.258 . S
O514 Co511 1.966 . S
O514 C512 1.263 . S
C515 O516 1.235 . S
C515 O542 1.289 . S
O516 C515 1.235 . S
C517 C519 1.400 . S
C517 N520 1.351 . S
C517 C522 1.501 . S
C518 C519 1.387 . S
C518 N521 1.341 . S
C519 C517 1.400 . S
C519 C518 1.387 . S
N520 Co511 2.022 . S
N520 C517 1.351 . S
N520 N521 1.365 . S
N521 C518 1.341 . S
N521 N520 1.365 . S
N521 H541 0.862 . S
C522 C517 1.501 . S
C522 H523 0.961 . S
C522 H524 0.961 . S
C522 H525 0.960 . S
H523 C522 0.961 . S
H524 C522 0.961 . S
H525 C522 0.960 . S
C526 N527 1.342 . S
C526 C530 1.401 . S
C526 C531 1.499 . S
N527 Co510 1.989 . S
N527 C526 1.342 . S
N527 N528 1.388 . S
N528 Co511 1.993 . S
N528 N527 1.388 . S
N528 C529 1.346 . S
C529 N528 1.346 . S
C529 C530 1.396 . S
C529 C539 1.510 . S
C530 C526 1.401 . S
C530 C529 1.396 . S
C531 C526 1.499 . S
C531 H532 0.959 . S
C531 H533 0.960 . S
C531 H534 0.961 . S
H532 C531 0.959 . S
H533 C531 0.960 . S
H534 C531 0.961 . S
O535 Co510 1.967 . S
O535 C543 1.258 . S
O536 Co511 1.941 . S
O536 C543 1.266 . S
H537 C539 0.959 . S
H538 C539 0.961 . S
C539 C529 1.510 . S
C539 H537 0.959 . S
C539 H538 0.961 . S
C539 H540 0.960 . S
H540 C539 0.960 . S
H541 N521 0.862 . S
O542 Co510 1.920 . S
O542 C515 1.289 . S
C543 O535 1.258 . S
C543 O536 1.266 . S
H544 C562 0.951 . S
H545 C564 0.951 . S
H546 C566 0.950 . S
H547 C567 0.950 . S
H548 C569 0.950 . S
H549 C572 0.950 . S
H550 C573 0.950 . S
H551 C575 0.950 . S
H552 C576 0.950 . S
H553 C577 0.951 . S
H554 C579 0.951 . S
H555 C581 0.950 . S
H556 C582 0.950 . S
H557 C584 0.950 . S
H558 C587 0.950 . S
H559 C588 0.950 . S
H560 C590 0.950 . S
H561 C591 0.950 . S
C562 H544 0.951 . S
C562 C563 1.366 . S
C562 C564 1.388 . S
C563 C562 1.366 . S
C563 C567 1.385 . S
C564 H545 0.951 . S
C564 C562 1.388 . S
C564 C565 1.366 . S
C565 C564 1.366 . S
C565 C566 1.414 . S
C565 C568 1.499 . S
C566 H546 0.950 . S
C566 C565 1.414 . S
C566 C567 1.374 . S
C567 H547 0.950 . S
C567 C563 1.385 . S
C567 C566 1.374 . S
C568 C565 1.499 . S
C568 C569 1.373 . S
C568 C570 1.389 . S
C569 H548 0.950 . S
C569 C568 1.373 . S
C569 C585 1.377 . S
C570 C568 1.389 . S
C570 C571 1.524 . S
C570 C584 1.377 . S
C571 C570 1.524 . S
C571 C572 1.397 . S
C571 C576 1.363 . S
C572 H549 0.950 . S
C572 C571 1.397 . S
C572 C573 1.334 1_455 S
C573 H550 0.950 . S
C573 C572 1.334 1_655 S
C573 C574 1.287 . S
C574 C573 1.287 . S
C574 C575 1.524 . S
C574 H593 0.913 . S
C575 H551 0.950 . S
C575 C574 1.524 . S
C575 C576 1.415 1_655 S
C576 H552 0.950 . S
C576 C571 1.363 . S
C576 C575 1.415 1_455 S
C577 H553 0.951 . S
C577 C578 1.366 . S
C577 C579 1.388 . S
C578 C577 1.366 . S
C578 C582 1.385 . S
C579 H554 0.951 . S
C579 C577 1.388 . S
C579 C580 1.366 . S
C580 C579 1.366 . S
C580 C581 1.414 . S
C580 C583 1.499 . S
C581 H555 0.950 . S
C581 C580 1.414 . S
C581 C582 1.374 . S
C582 H556 0.950 . S
C582 C578 1.385 . S
C582 C581 1.374 . S
C583 C580 1.499 . S
C583 C584 1.373 . S
C583 C585 1.389 . S
C584 H557 0.950 . S
C584 C570 1.377 . S
C584 C583 1.373 . S
C585 C569 1.377 . S
C585 C583 1.389 . S
C585 C586 1.524 . S
C586 C585 1.524 . S
C586 C587 1.397 . S
C586 C591 1.363 . S
C587 H558 0.950 . S
C587 C586 1.397 . S
C587 C588 1.334 . S
C588 H559 0.950 . S
C588 C587 1.334 . S
C588 C589 1.287 . S
C589 C588 1.287 . S
C589 C590 1.524 . S
C589 H592 0.999 . S
C590 H560 0.950 . S
C590 C589 1.524 . S
C590 C591 1.415 . S
C591 H561 0.950 . S
C591 C586 1.363 . S
C591 C590 1.415 . S
H592 C589 0.999 . S
H593 C574 0.913 . S
H594 C612 0.951 . S
H595 C614 0.951 . S
H596 C616 0.950 . S
H597 C617 0.950 . S
H598 C619 0.950 . S
H599 C622 0.950 . S
H600 C623 0.950 . S
H601 C625 0.950 1_565 S
H602 C626 0.950 . S
H603 C627 0.951 . S
H604 C629 0.951 . S
H605 C631 0.950 . S
H606 C632 0.950 . S
H607 C634 0.950 . S
H608 C637 0.950 . S
H609 C638 0.950 . S
H610 C640 0.950 . S
H611 C641 0.950 . S
C612 H594 0.951 . S
C612 C613 1.366 . S
C612 C614 1.388 . S
C613 C612 1.366 . S
C613 C617 1.385 . S
C614 H595 0.951 . S
C614 C612 1.388 . S
C614 C615 1.366 . S
C615 C614 1.366 . S
C615 C616 1.414 . S
C615 C618 1.499 . S
C616 H596 0.950 . S
C616 C615 1.414 . S
C616 C617 1.374 . S
C617 H597 0.950 . S
C617 C613 1.385 . S
C617 C616 1.374 . S
C618 C615 1.499 . S
C618 C619 1.373 . S
C618 C620 1.389 . S
C619 H598 0.950 . S
C619 C618 1.373 . S
C619 C635 1.377 . S
C620 C618 1.389 . S
C620 C621 1.524 . S
C620 C634 1.377 . S
C621 C620 1.524 . S
C621 C622 1.397 . S
C621 C626 1.363 . S
C622 H599 0.950 . S
C622 C621 1.397 . S
C622 C623 1.334 . S
C623 H600 0.950 . S
C623 C622 1.334 . S
C623 C624 1.287 . S
C624 C623 1.287 . S
C624 C625 1.524 . S
C624 H643 0.913 . S
C625 H601 0.950 1_545 S
C625 C624 1.524 . S
C625 C626 1.415 . S
C626 H602 0.950 . S
C626 C621 1.363 . S
C626 C625 1.415 . S
C627 H603 0.951 . S
C627 C628 1.366 . S
C627 C629 1.388 . S
C628 C627 1.366 . S
C628 C632 1.385 . S
C629 H604 0.951 . S
C629 C627 1.388 . S
C629 C630 1.366 . S
C630 C629 1.366 . S
C630 C631 1.414 . S
C630 C633 1.499 . S
C631 H605 0.950 . S
C631 C630 1.414 . S
C631 C632 1.374 . S
C632 H606 0.950 . S
C632 C628 1.385 . S
C632 C631 1.374 . S
C633 C630 1.499 . S
C633 C634 1.373 . S
C633 C635 1.389 . S
C634 H607 0.950 . S
C634 C620 1.377 . S
C634 C633 1.373 . S
C635 C619 1.377 . S
C635 C633 1.389 . S
C635 C636 1.524 . S
C636 C635 1.524 . S
C636 C637 1.397 . S
C636 C641 1.363 . S
C637 H608 0.950 . S
C637 C636 1.397 . S
C637 C638 1.334 . S
C638 H609 0.950 . S
C638 C637 1.334 . S
C638 C639 1.287 . S
C639 C638 1.287 . S
C639 C640 1.524 . S
C639 H642 0.999 . S
C640 H610 0.950 . S
C640 C639 1.524 . S
C640 C641 1.415 . S
C641 H611 0.950 . S
C641 C636 1.363 . S
C641 C640 1.415 . S
H642 C639 0.999 . S
H643 C624 0.913 . S
H644 C662 0.951 . S
H645 C664 0.951 . S
H646 C666 0.950 . S
H647 C667 0.950 . S
H648 C669 0.950 . S
H649 C672 0.950 . S
H650 C673 0.950 . S
H651 C675 0.950 . S
H652 C676 0.955 . S
H653 C677 0.951 . S
H654 C679 0.951 . S
H655 C681 0.950 . S
H656 C682 0.950 . S
H657 C684 0.950 . S
H658 C687 0.950 . S
H659 C688 0.950 . S
H660 C690 0.950 . S
H661 C691 0.950 . S
C662 H644 0.951 . S
C662 C663 1.366 . S
C662 C664 1.388 . S
C663 C662 1.366 . S
C663 C667 1.385 . S
C664 H645 0.951 . S
C664 C662 1.388 . S
C664 C665 1.366 . S
C665 C664 1.366 . S
C665 C666 1.414 . S
C665 C668 1.499 . S
C666 H646 0.950 . S
C666 C665 1.414 . S
C666 C667 1.374 . S
C667 H647 0.950 . S
C667 C663 1.385 . S
C667 C666 1.374 . S
C668 C665 1.499 . S
C668 C669 1.373 . S
C668 C670 1.389 . S
C669 H648 0.950 . S
C669 C668 1.373 . S
C669 C685 1.377 . S
C670 C668 1.389 . S
C670 C671 1.524 . S
C670 C684 1.377 . S
C671 C670 1.524 . S
C671 C672 1.397 . S
C671 C676 1.320 1_455 S
C672 H649 0.950 . S
C672 C671 1.397 . S
C672 C673 1.334 . S
C673 H650 0.950 . S
C673 C672 1.334 . S
C673 C674 1.287 1_455 S
C674 C673 1.287 1_655 S
C674 C675 1.524 . S
C674 H693 0.913 . S
C675 H651 0.950 . S
C675 C674 1.524 . S
C675 C676 1.455 . S
C676 H652 0.955 . S
C676 C671 1.320 1_655 S
C676 C675 1.455 . S
C677 H653 0.951 . S
C677 C678 1.366 . S
C677 C679 1.388 . S
C678 C677 1.366 . S
C678 C682 1.385 . S
C679 H654 0.951 . S
C679 C677 1.388 . S
C679 C680 1.366 . S
C680 C679 1.366 . S
C680 C681 1.414 . S
C680 C683 1.499 . S
C681 H655 0.950 . S
C681 C680 1.414 . S
C681 C682 1.374 . S
C682 H656 0.950 . S
C682 C678 1.385 . S
C682 C681 1.374 . S
C683 C680 1.499 . S
C683 C684 1.373 . S
C683 C685 1.389 . S
C684 H657 0.950 . S
C684 C670 1.377 . S
C684 C683 1.373 . S
C685 C669 1.377 . S
C685 C683 1.389 . S
C685 C686 1.524 . S
C686 C685 1.524 . S
C686 C687 1.397 . S
C686 C691 1.363 . S
C687 H658 0.950 . S
C687 C686 1.397 . S
C687 C688 1.334 . S
C688 H659 0.950 . S
C688 C687 1.334 . S
C688 C689 1.287 . S
C689 C688 1.287 . S
C689 C690 1.524 . S
C689 H692 0.999 . S
C690 H660 0.950 . S
C690 C689 1.524 . S
C690 C691 1.415 . S
C691 H661 0.950 . S
C691 C686 1.363 . S
C691 C690 1.415 . S
H692 C689 0.999 . S
H693 C674 0.913 . S
H694 C712 0.951 . S
H695 C714 0.951 . S
H696 C716 0.950 . S
H697 C717 0.950 . S
H698 C719 0.950 . S
H699 C722 0.950 . S
H700 C723 0.950 . S
H701 C725 0.950 . S
H702 C726 0.950 . S
H703 C727 0.951 . S
H704 C729 0.951 . S
H705 C731 0.950 . S
H706 C732 0.950 . S
H707 C734 0.950 . S
H708 C737 0.950 . S
H709 C738 0.950 . S
H710 C740 0.950 . S
H711 C741 0.950 . S
C712 H694 0.951 . S
C712 C713 1.366 . S
C712 C714 1.388 . S
C713 C712 1.366 . S
C713 C717 1.385 . S
C714 H695 0.951 . S
C714 C712 1.388 . S
C714 C715 1.366 . S
C715 C714 1.366 . S
C715 C716 1.414 . S
C715 C718 1.499 . S
C716 H696 0.950 . S
C716 C715 1.414 . S
C716 C717 1.374 . S
C717 H697 0.950 . S
C717 C713 1.385 . S
C717 C716 1.374 . S
C718 C715 1.499 . S
C718 C719 1.373 . S
C718 C720 1.389 . S
C719 H698 0.950 . S
C719 C718 1.373 . S
C719 C735 1.377 . S
C720 C718 1.389 . S
C720 C721 1.524 . S
C720 C734 1.377 . S
C721 C720 1.524 . S
C721 C722 1.397 . S
C721 C726 1.363 . S
C722 H699 0.950 . S
C722 C721 1.397 . S
C722 C723 1.334 . S
C723 H700 0.950 . S
C723 C722 1.334 . S
C723 C724 1.287 . S
C724 C723 1.287 . S
C724 C725 1.524 . S
C724 H743 0.913 . S
C725 H701 0.950 . S
C725 C724 1.524 . S
C725 C726 1.415 . S
C726 H702 0.950 . S
C726 C721 1.363 . S
C726 C725 1.415 . S
C727 H703 0.951 . S
C727 C728 1.366 . S
C727 C729 1.388 . S
C728 C727 1.366 . S
C728 C732 1.385 . S
C729 H704 0.951 . S
C729 C727 1.388 . S
C729 C730 1.366 . S
C730 C729 1.366 . S
C730 C731 1.414 . S
C730 C733 1.499 . S
C731 H705 0.950 . S
C731 C730 1.414 . S
C731 C732 1.374 . S
C732 H706 0.950 . S
C732 C728 1.385 . S
C732 C731 1.374 . S
C733 C730 1.499 . S
C733 C734 1.373 . S
C733 C735 1.389 . S
C734 H707 0.950 . S
C734 C720 1.377 . S
C734 C733 1.373 . S
C735 C719 1.377 . S
C735 C733 1.389 . S
C735 C736 1.524 . S
C736 C735 1.524 . S
C736 C737 1.397 . S
C736 C741 1.363 . S
C737 H708 0.950 . S
C737 C736 1.397 . S
C737 C738 1.334 . S
C738 H709 0.950 . S
C738 C737 1.334 . S
C738 C739 1.287 . S
C739 C738 1.287 . S
C739 C740 1.524 . S
C739 H742 0.999 . S
C740 H710 0.950 . S
C740 C739 1.524 . S
C740 C741 1.415 . S
C741 H711 0.950 . S
C741 C736 1.363 . S
C741 C740 1.415 . S
H742 C739 0.999 . S
H743 C724 0.913 . S
H744 C762 0.951 . S
H745 C764 0.951 . S
H746 C766 0.950 . S
H747 C767 0.950 . S
H748 C769 0.950 . S
H749 C772 0.950 . S
H750 C773 0.950 . S
H751 C775 0.950 . S
H752 C776 0.950 . S
H753 C777 0.951 . S
H754 C779 0.951 . S
H755 C781 0.950 . S
H756 C782 0.950 . S
H757 C784 0.950 . S
H758 C787 0.950 . S
H759 C788 0.950 . S
H760 C790 0.950 . S
H761 C791 0.950 . S
C762 H744 0.951 . S
C762 C763 1.366 . S
C762 C764 1.388 . S
C763 C762 1.366 . S
C763 C767 1.385 . S
C764 H745 0.951 . S
C764 C762 1.388 . S
C764 C765 1.366 . S
C765 C764 1.366 . S
C765 C766 1.414 . S
C765 C768 1.499 . S
C766 H746 0.950 . S
C766 C765 1.414 . S
C766 C767 1.374 . S
C767 H747 0.950 . S
C767 C763 1.385 . S
C767 C766 1.374 . S
C768 C765 1.499 . S
C768 C769 1.373 . S
C768 C770 1.389 . S
C769 H748 0.950 . S
C769 C768 1.373 . S
C769 C785 1.377 1_556 S
C770 C768 1.389 . S
C770 C771 1.524 . S
C770 C784 1.377 1_556 S
C771 C770 1.524 . S
C771 C772 1.397 . S
C771 C776 1.363 . S
C772 H749 0.950 . S
C772 C771 1.397 . S
C772 C773 1.334 . S
C773 H750 0.950 . S
C773 C772 1.334 . S
C773 C774 1.287 . S
C774 C773 1.287 . S
C774 C775 1.524 . S
C774 H793 0.913 . S
C775 H751 0.950 . S
C775 C774 1.524 . S
C775 C776 1.415 . S
C776 H752 0.950 . S
C776 C771 1.363 . S
C776 C775 1.415 . S
C777 H753 0.951 . S
C777 C778 1.366 . S
C777 C779 1.388 . S
C778 C777 1.366 . S
C778 C782 1.385 . S
C779 H754 0.951 . S
C779 C777 1.388 . S
C779 C780 1.366 . S
C780 C779 1.366 . S
C780 C781 1.414 . S
C780 C783 1.499 . S
C781 H755 0.950 . S
C781 C780 1.414 . S
C781 C782 1.374 . S
C782 H756 0.950 . S
C782 C778 1.385 . S
C782 C781 1.374 . S
C783 C780 1.499 . S
C783 C784 1.373 . S
C783 C785 1.389 . S
C784 H757 0.950 . S
C784 C770 1.377 1_554 S
C784 C783 1.373 . S
C785 C769 1.377 1_554 S
C785 C783 1.389 . S
C785 C786 1.524 . S
C786 C785 1.524 . S
C786 C787 1.397 . S
C786 C791 1.363 . S
C787 H758 0.950 . S
C787 C786 1.397 . S
C787 C788 1.334 . S
C788 H759 0.950 . S
C788 C787 1.334 . S
C788 C789 1.287 . S
C789 C788 1.287 . S
C789 C790 1.524 . S
C789 H792 0.999 . S
C790 H760 0.950 . S
C790 C789 1.524 . S
C790 C791 1.415 . S
C791 H761 0.950 . S
C791 C786 1.363 . S
C791 C790 1.415 . S
H792 C789 0.999 . S
H793 C774 0.913 . S
H794 C812 0.951 . S
H795 C814 0.951 . S
H796 C816 0.950 . S
H797 C817 0.950 . S
H798 C819 0.950 . S
H799 C822 0.950 . S
H800 C823 0.950 . S
H801 C825 0.950 . S
H802 C826 0.950 . S
H803 C827 0.951 . S
H804 C829 0.951 . S
H805 C831 0.950 . S
H806 C832 0.950 . S
H807 C834 0.950 . S
H808 C837 0.950 . S
H809 C838 0.950 . S
H810 C840 0.950 . S
H811 C841 0.950 . S
C812 H794 0.951 . S
C812 C813 1.366 . S
C812 C814 1.388 . S
C813 C812 1.366 . S
C813 C817 1.385 . S
C814 H795 0.951 . S
C814 C812 1.388 . S
C814 C815 1.366 . S
C815 C814 1.366 . S
C815 C816 1.414 . S
C815 C818 1.499 . S
C816 H796 0.950 . S
C816 C815 1.414 . S
C816 C817 1.374 . S
C817 H797 0.950 . S
C817 C813 1.385 . S
C817 C816 1.374 . S
C818 C815 1.499 . S
C818 C819 1.373 . S
C818 C820 1.389 . S
C819 H798 0.950 . S
C819 C818 1.373 . S
C819 C835 1.377 1_556 S
C820 C818 1.389 . S
C820 C821 1.524 . S
C820 C834 1.377 1_556 S
C821 C820 1.524 . S
C821 C822 1.397 . S
C821 C826 1.363 . S
C822 H799 0.950 . S
C822 C821 1.397 . S
C822 C823 1.334 . S
C823 H800 0.950 . S
C823 C822 1.334 . S
C823 C824 1.287 . S
C824 C823 1.287 . S
C824 C825 1.524 . S
C824 H843 0.913 . S
C825 H801 0.950 . S
C825 C824 1.524 . S
C825 C826 1.415 . S
C826 H802 0.950 . S
C826 C821 1.363 . S
C826 C825 1.415 . S
C827 H803 0.951 . S
C827 C828 1.366 . S
C827 C829 1.388 . S
C828 C827 1.366 . S
C828 C832 1.385 . S
C829 H804 0.951 . S
C829 C827 1.388 . S
C829 C830 1.366 . S
C830 C829 1.366 . S
C830 C831 1.414 . S
C830 C833 1.499 . S
C831 H805 0.950 . S
C831 C830 1.414 . S
C831 C832 1.374 . S
C832 H806 0.950 . S
C832 C828 1.385 . S
C832 C831 1.374 . S
C833 C830 1.499 . S
C833 C834 1.373 . S
C833 C835 1.389 . S
C834 H807 0.950 . S
C834 C820 1.377 1_554 S
C834 C833 1.373 . S
C835 C819 1.377 1_554 S
C835 C833 1.389 . S
C835 C836 1.524 . S
C836 C835 1.524 . S
C836 C837 1.397 . S
C836 C841 1.363 . S
C837 H808 0.950 . S
C837 C836 1.397 . S
C837 C838 1.334 . S
C838 H809 0.950 . S
C838 C837 1.334 . S
C838 C839 1.287 . S
C839 C838 1.287 . S
C839 C840 1.524 . S
C839 H842 0.999 . S
C840 H810 0.950 . S
C840 C839 1.524 . S
C840 C841 1.415 . S
C841 H811 0.950 . S
C841 C836 1.363 . S
C841 C840 1.415 . S
H842 C839 0.999 . S
H843 C824 0.913 . S
H844 C862 0.951 . S
H845 C864 0.951 . S
H846 C866 0.950 . S
H847 C867 0.950 . S
H848 C869 0.950 . S
H849 C872 0.950 . S
H850 C873 0.950 . S
H851 C875 0.950 . S
H852 C876 0.950 . S
H853 C877 0.951 . S
H854 C879 0.951 . S
H855 C881 0.950 . S
H856 C882 0.950 . S
H857 C884 0.950 . S
H858 C887 0.950 . S
H859 C888 0.950 . S
H860 C890 0.950 . S
H861 C891 0.950 . S
C862 H844 0.951 . S
C862 C863 1.366 . S
C862 C864 1.388 . S
C863 C862 1.366 . S
C863 C867 1.385 . S
C864 H845 0.951 . S
C864 C862 1.388 . S
C864 C865 1.366 . S
C865 C864 1.366 . S
C865 C866 1.414 . S
C865 C868 1.499 . S
C866 H846 0.950 . S
C866 C865 1.414 . S
C866 C867 1.374 . S
C867 H847 0.950 . S
C867 C863 1.385 . S
C867 C866 1.374 . S
C868 C865 1.499 . S
C868 C869 1.373 . S
C868 C870 1.389 . S
C869 H848 0.950 . S
C869 C868 1.373 . S
C869 C885 1.377 1_556 S
C870 C868 1.389 . S
C870 C871 1.524 . S
C870 C884 1.377 1_556 S
C871 C870 1.524 . S
C871 C872 1.397 . S
C871 C876 1.363 . S
C872 H849 0.950 . S
C872 C871 1.397 . S
C872 C873 1.334 . S
C873 H850 0.950 . S
C873 C872 1.334 . S
C873 C874 1.287 . S
C874 C873 1.287 . S
C874 C875 1.524 . S
C874 H893 0.913 . S
C875 H851 0.950 . S
C875 C874 1.524 . S
C875 C876 1.415 . S
C876 H852 0.950 . S
C876 C871 1.363 . S
C876 C875 1.415 . S
C877 H853 0.951 . S
C877 C878 1.366 . S
C877 C879 1.388 . S
C878 C877 1.366 . S
C878 C882 1.385 . S
C879 H854 0.951 . S
C879 C877 1.388 . S
C879 C880 1.366 . S
C880 C879 1.366 . S
C880 C881 1.414 . S
C880 C883 1.499 . S
C881 H855 0.950 . S
C881 C880 1.414 . S
C881 C882 1.374 . S
C882 H856 0.950 . S
C882 C878 1.385 . S
C882 C881 1.374 . S
C883 C880 1.499 . S
C883 C884 1.373 . S
C883 C885 1.389 . S
C884 H857 0.950 . S
C884 C870 1.377 1_554 S
C884 C883 1.373 . S
C885 C869 1.377 1_554 S
C885 C883 1.389 . S
C885 C886 1.524 . S
C886 C885 1.524 . S
C886 C887 1.397 . S
C886 C891 1.363 . S
C887 H858 0.950 . S
C887 C886 1.397 . S
C887 C888 1.334 . S
C888 H859 0.950 . S
C888 C887 1.334 . S
C888 C889 1.287 . S
C889 C888 1.287 . S
C889 C890 1.524 . S
C889 H892 0.999 . S
C890 H860 0.950 . S
C890 C889 1.524 . S
C890 C891 1.415 . S
C891 H861 0.950 . S
C891 C886 1.363 . S
C891 C890 1.415 . S
H892 C889 0.999 . S
H893 C874 0.913 . S
H894 C912 0.951 . S
H895 C914 0.951 . S
H896 C916 0.950 . S
H897 C917 0.950 . S
H898 C919 0.950 . S
H899 C922 0.950 . S
H900 C923 0.950 . S
H901 C925 0.950 . S
H902 C926 0.950 . S
H903 C927 0.951 . S
H904 C929 0.951 . S
H905 C931 0.950 . S
H906 C932 0.950 . S
H907 C934 0.950 . S
H908 C937 0.950 . S
H909 C938 0.950 . S
H910 C940 0.950 . S
H911 C941 0.950 . S
C912 H894 0.951 . S
C912 C913 1.366 . S
C912 C914 1.388 . S
C913 C912 1.366 . S
C913 C917 1.385 . S
C914 H895 0.951 . S
C914 C912 1.388 . S
C914 C915 1.366 . S
C915 C914 1.366 . S
C915 C916 1.414 . S
C915 C918 1.499 . S
C916 H896 0.950 . S
C916 C915 1.414 . S
C916 C917 1.374 . S
C917 H897 0.950 . S
C917 C913 1.385 . S
C917 C916 1.374 . S
C918 C915 1.499 . S
C918 C919 1.373 . S
C918 C920 1.389 . S
C919 H898 0.950 . S
C919 C918 1.373 . S
C919 C935 1.377 1_554 S
C920 C918 1.389 . S
C920 C921 1.524 . S
C920 C934 1.377 1_554 S
C921 C920 1.524 . S
C921 C922 1.397 . S
C921 C926 1.363 . S
C922 H899 0.950 . S
C922 C921 1.397 . S
C922 C923 1.334 . S
C923 H900 0.950 . S
C923 C922 1.334 . S
C923 C924 1.287 . S
C924 C923 1.287 . S
C924 C925 1.524 . S
C924 H943 0.913 . S
C925 H901 0.950 . S
C925 C924 1.524 . S
C925 C926 1.415 . S
C926 H902 0.950 . S
C926 C921 1.363 . S
C926 C925 1.415 . S
C927 H903 0.951 . S
C927 C928 1.366 . S
C927 C929 1.388 . S
C928 C927 1.366 . S
C928 C932 1.385 . S
C929 H904 0.951 . S
C929 C927 1.388 . S
C929 C930 1.366 . S
C930 C929 1.366 . S
C930 C931 1.414 . S
C930 C933 1.499 . S
C931 H905 0.950 . S
C931 C930 1.414 . S
C931 C932 1.374 . S
C932 H906 0.950 . S
C932 C928 1.385 . S
C932 C931 1.374 . S
C933 C930 1.499 . S
C933 C934 1.373 . S
C933 C935 1.389 . S
C934 H907 0.950 . S
C934 C920 1.377 1_556 S
C934 C933 1.373 . S
C935 C919 1.377 1_556 S
C935 C933 1.389 . S
C935 C936 1.524 . S
C936 C935 1.524 . S
C936 C937 1.397 . S
C936 C941 1.363 . S
C937 H908 0.950 . S
C937 C936 1.397 . S
C937 C938 1.334 . S
C938 H909 0.950 . S
C938 C937 1.334 . S
C938 C939 1.287 . S
C939 C938 1.287 . S
C939 C940 1.524 . S
C939 H942 0.999 . S
C940 H910 0.950 . S
C940 C939 1.524 . S
C940 C941 1.415 . S
C941 H911 0.950 . S
C941 C936 1.363 . S
C941 C940 1.415 . S
H942 C939 0.999 . S
H943 C924 0.913 . S
H944 C962 0.951 . S
H945 C964 0.951 . S
H946 C966 0.950 . S
H947 C967 0.950 . S
H948 C969 0.950 . S
H949 C972 0.950 . S
H950 C973 0.950 . S
H951 C975 0.950 . S
H952 C976 0.950 . S
H953 C977 0.951 . S
H954 C979 0.951 . S
H955 C981 0.950 . S
H956 C982 0.950 . S
H957 C984 0.950 . S
H958 C987 0.950 . S
H959 C988 0.950 . S
H960 C990 0.950 . S
H961 C991 0.950 . S
C962 H944 0.951 . S
C962 C963 1.366 . S
C962 C964 1.388 . S
C963 C962 1.366 . S
C963 C967 1.385 . S
C964 H945 0.951 . S
C964 C962 1.388 . S
C964 C965 1.366 . S
C965 C964 1.366 . S
C965 C966 1.414 . S
C965 C968 1.499 . S
C966 H946 0.950 . S
C966 C965 1.414 . S
C966 C967 1.374 . S
C967 H947 0.950 . S
C967 C963 1.385 . S
C967 C966 1.374 . S
C968 C965 1.499 . S
C968 C969 1.373 . S
C968 C970 1.389 . S
C969 H948 0.950 . S
C969 C968 1.373 . S
C969 C985 1.377 . S
C970 C968 1.389 . S
C970 C971 1.524 . S
C970 C984 1.377 . S
C971 C970 1.524 . S
C971 C972 1.397 . S
C971 C976 1.363 . S
C972 H949 0.950 . S
C972 C971 1.397 . S
C972 C973 1.334 . S
C973 H950 0.950 . S
C973 C972 1.334 . S
C973 C974 1.287 . S
C974 C973 1.287 . S
C974 C975 1.524 . S
C974 H993 0.913 . S
C975 H951 0.950 . S
C975 C974 1.524 . S
C975 C976 1.415 . S
C976 H952 0.950 . S
C976 C971 1.363 . S
C976 C975 1.415 . S
C977 H953 0.951 . S
C977 C978 1.366 . S
C977 C979 1.388 . S
C978 C977 1.366 . S
C978 C982 1.385 . S
C979 H954 0.951 . S
C979 C977 1.388 . S
C979 C980 1.366 . S
C980 C979 1.366 . S
C980 C981 1.414 . S
C980 C983 1.499 . S
C981 H955 0.950 . S
C981 C980 1.414 . S
C981 C982 1.374 . S
C982 H956 0.950 . S
C982 C978 1.385 . S
C982 C981 1.374 . S
C983 C980 1.499 . S
C983 C984 1.373 . S
C983 C985 1.389 . S
C984 H957 0.950 . S
C984 C970 1.377 . S
C984 C983 1.373 . S
C985 C969 1.377 . S
C985 C983 1.389 . S
C985 C986 1.524 . S
C986 C985 1.524 . S
C986 C987 1.397 . S
C986 C991 1.363 . S
C987 H958 0.950 . S
C987 C986 1.397 . S
C987 C988 1.334 . S
C988 H959 0.950 . S
C988 C987 1.334 . S
C988 C989 1.287 . S
C989 C988 1.287 . S
C989 C990 1.524 . S
C989 H992 0.999 . S
C990 H960 0.950 . S
C990 C989 1.524 . S
C990 C991 1.415 . S
C991 H961 0.950 . S
C991 C986 1.363 . S
C991 C990 1.415 . S
H992 C989 0.999 . S
H993 C974 0.913 . S
H994 C1012 0.951 . S
H995 C1014 0.951 . S
H996 C1016 0.950 . S
H997 C1017 0.950 . S
H998 C1019 0.950 . S
H999 C1022 0.950 . S
H1000 C1023 0.950 . S
H1001 C1025 0.950 . S
H1002 C1026 0.950 . S
H1003 C1027 0.951 . S
H1004 C1029 0.951 . S
H1005 C1031 0.950 . S
H1006 C1032 0.950 . S
H1007 C1034 0.950 . S
H1008 C1037 0.971 . S
H1009 C1038 0.950 . S
H1010 C1040 0.950 . S
H1011 C1041 0.950 1_655 S
C1012 H994 0.951 . S
C1012 C1013 1.366 . S
C1012 C1014 1.388 . S
C1013 C1012 1.366 . S
C1013 C1017 1.385 . S
C1014 H995 0.951 . S
C1014 C1012 1.388 . S
C1014 C1015 1.366 . S
C1015 C1014 1.366 . S
C1015 C1016 1.414 . S
C1015 C1018 1.499 . S
C1016 H996 0.950 . S
C1016 C1015 1.414 . S
C1016 C1017 1.374 . S
C1017 H997 0.950 . S
C1017 C1013 1.385 . S
C1017 C1016 1.374 . S
C1018 C1015 1.499 . S
C1018 C1019 1.373 . S
C1018 C1020 1.389 . S
C1019 H998 0.950 . S
C1019 C1018 1.373 . S
C1019 C1035 1.377 . S
C1020 C1018 1.389 . S
C1020 C1021 1.524 . S
C1020 C1034 1.377 . S
C1021 C1020 1.524 . S
C1021 C1022 1.397 . S
C1021 C1026 1.363 . S
C1022 H999 0.950 . S
C1022 C1021 1.397 . S
C1022 C1023 1.334 . S
C1023 H1000 0.950 . S
C1023 C1022 1.334 . S
C1023 C1024 1.287 . S
C1024 C1023 1.287 . S
C1024 C1025 1.524 . S
C1024 H1043 0.913 . S
C1025 H1001 0.950 . S
C1025 C1024 1.524 . S
C1025 C1026 1.415 . S
C1026 H1002 0.950 . S
C1026 C1021 1.363 . S
C1026 C1025 1.415 . S
C1027 H1003 0.951 . S
C1027 C1028 1.366 . S
C1027 C1029 1.388 . S
C1028 C1027 1.366 . S
C1028 C1032 1.385 . S
C1029 H1004 0.951 . S
C1029 C1027 1.388 . S
C1029 C1030 1.366 1_455 S
C1030 C1029 1.366 1_655 S
C1030 C1031 1.414 . S
C1030 C1033 1.499 . S
C1031 H1005 0.950 . S
C1031 C1030 1.414 . S
C1031 C1032 1.374 1_655 S
C1032 H1006 0.950 . S
C1032 C1028 1.385 . S
C1032 C1031 1.374 1_455 S
C1033 C1030 1.499 . S
C1033 C1034 1.373 . S
C1033 C1035 1.389 . S
C1034 H1007 0.950 . S
C1034 C1020 1.377 . S
C1034 C1033 1.373 . S
C1035 C1019 1.377 . S
C1035 C1033 1.389 . S
C1035 C1036 1.524 . S
C1036 C1035 1.524 . S
C1036 C1037 1.397 1_655 S
C1036 C1041 1.363 1_655 S
C1037 H1008 0.971 . S
C1037 C1036 1.397 1_455 S
C1037 C1038 1.334 . S
C1038 H1009 0.950 . S
C1038 C1037 1.334 . S
C1038 C1039 1.287 . S
C1039 C1038 1.287 . S
C1039 C1040 1.524 . S
C1039 H1042 0.999 . S
C1040 H1010 0.950 . S
C1040 C1039 1.524 . S
C1040 C1041 1.415 . S
C1041 H1011 0.950 1_455 S
C1041 C1036 1.363 1_455 S
C1041 C1040 1.415 . S
H1042 C1039 0.999 . S
H1043 C1024 0.913 . S
H1044 C1062 0.951 . S
H1045 C1064 0.951 . S
H1046 C1066 0.950 . S
H1047 C1067 0.950 . S
H1048 C1069 0.950 . S
H1049 C1072 0.950 . S
H1050 C1073 0.950 . S
H1051 C1075 0.950 . S
H1052 C1076 0.950 . S
H1053 C1077 0.951 . S
H1054 C1079 0.951 . S
H1055 C1081 0.950 . S
H1056 C1082 0.991 . S
H1057 C1084 0.950 . S
H1058 C1087 0.950 . S
H1059 C1088 0.950 . S
H1060 C1090 0.950 . S
H1061 C1091 0.950 . S
C1062 H1044 0.951 . S
C1062 C1063 1.366 . S
C1062 C1064 1.388 . S
C1063 C1062 1.366 . S
C1063 C1067 1.385 . S
C1064 H1045 0.951 . S
C1064 C1062 1.388 . S
C1064 C1065 1.366 1_545 S
C1065 C1064 1.366 1_565 S
C1065 C1066 1.414 . S
C1065 C1068 1.499 . S
C1066 H1046 0.950 . S
C1066 C1065 1.414 . S
C1066 C1067 1.374 1_565 S
C1067 H1047 0.950 . S
C1067 C1063 1.385 . S
C1067 C1066 1.374 1_545 S
C1068 C1065 1.499 . S
C1068 C1069 1.373 . S
C1068 C1070 1.389 . S
C1069 H1048 0.950 . S
C1069 C1068 1.373 . S
C1069 C1085 1.377 . S
C1070 C1068 1.389 . S
C1070 C1071 1.524 . S
C1070 C1084 1.377 . S
C1071 C1070 1.524 . S
C1071 C1072 1.397 . S
C1071 C1076 1.363 . S
C1072 H1049 0.950 . S
C1072 C1071 1.397 . S
C1072 C1073 1.334 1_565 S
C1073 H1050 0.950 . S
C1073 C1072 1.334 1_545 S
C1073 C1074 1.287 . S
C1074 C1073 1.287 . S
C1074 C1075 1.524 . S
C1074 H1093 0.913 . S
C1075 H1051 0.950 . S
C1075 C1074 1.524 . S
C1075 C1076 1.415 1_545 S
C1076 H1052 0.950 . S
C1076 C1071 1.363 . S
C1076 C1075 1.415 1_565 S
C1077 H1053 0.951 . S
C1077 C1078 1.366 . S
C1077 C1079 1.388 . S
C1078 C1077 1.366 . S
C1078 C1082 1.385 . S
C1079 H1054 0.951 . S
C1079 C1077 1.388 . S
C1079 C1080 1.366 . S
C1080 C1079 1.366 . S
C1080 C1081 1.414 . S
C1080 C1083 1.499 . S
C1081 H1055 0.950 . S
C1081 C1080 1.414 . S
C1081 C1082 1.374 . S
C1082 H1056 0.991 . S
C1082 C1078 1.385 . S
C1082 C1081 1.374 . S
C1083 C1080 1.499 . S
C1083 C1084 1.373 . S
C1083 C1085 1.389 . S
C1084 H1057 0.950 . S
C1084 C1070 1.377 . S
C1084 C1083 1.373 . S
C1085 C1069 1.377 . S
C1085 C1083 1.389 . S
C1085 C1086 1.524 . S
C1086 C1085 1.524 . S
C1086 C1087 1.397 . S
C1086 C1091 1.363 . S
C1087 H1058 0.950 . S
C1087 C1086 1.397 . S
C1087 C1088 1.334 . S
C1088 H1059 0.950 . S
C1088 C1087 1.334 . S
C1088 C1089 1.287 . S
C1089 C1088 1.287 . S
C1089 C1090 1.524 . S
C1089 H1092 0.999 . S
C1090 H1060 0.950 . S
C1090 C1089 1.524 . S
C1090 C1091 1.415 . S
C1091 H1061 0.950 . S
C1091 C1086 1.363 . S
C1091 C1090 1.415 . S
H1092 C1089 0.999 . S
H1093 C1074 0.913 . S
H1094 C1112 0.951 . S
H1095 C1114 0.951 . S
H1096 C1116 0.950 . S
H1097 C1117 0.950 . S
H1098 C1119 0.950 . S
H1099 C1122 0.950 . S
H1100 C1123 0.950 . S
H1101 C1125 0.950 . S
H1102 C1126 0.950 . S
H1103 C1127 0.951 . S
H1104 C1129 0.951 . S
H1105 C1131 0.950 . S
H1106 C1132 0.950 . S
H1107 C1134 0.950 . S
H1108 C1137 0.950 . S
H1109 C1138 0.950 . S
H1110 C1140 0.950 . S
H1111 C1141 0.950 . S
C1112 H1094 0.951 . S
C1112 C1113 1.366 . S
C1112 C1114 1.388 . S
C1113 C1112 1.366 . S
C1113 C1117 1.385 . S
C1114 H1095 0.951 . S
C1114 C1112 1.388 . S
C1114 C1115 1.366 . S
C1115 C1114 1.366 . S
C1115 C1116 1.414 . S
C1115 C1118 1.499 . S
C1116 H1096 0.950 . S
C1116 C1115 1.414 . S
C1116 C1117 1.374 . S
C1117 H1097 0.950 . S
C1117 C1113 1.385 . S
C1117 C1116 1.374 . S
C1118 C1115 1.499 . S
C1118 C1119 1.373 . S
C1118 C1120 1.389 . S
C1119 H1098 0.950 . S
C1119 C1118 1.373 . S
C1119 C1135 1.377 . S
C1120 C1118 1.389 . S
C1120 C1121 1.524 . S
C1120 C1134 1.377 . S
C1121 C1120 1.524 . S
C1121 C1122 1.397 . S
C1121 C1126 1.363 . S
C1122 H1099 0.950 . S
C1122 C1121 1.397 . S
C1122 C1123 1.334 . S
C1123 H1100 0.950 . S
C1123 C1122 1.334 . S
C1123 C1124 1.287 . S
C1124 C1123 1.287 . S
C1124 C1125 1.524 . S
C1124 H1143 0.913 . S
C1125 H1101 0.950 . S
C1125 C1124 1.524 . S
C1125 C1126 1.415 . S
C1126 H1102 0.950 . S
C1126 C1121 1.363 . S
C1126 C1125 1.415 . S
C1127 H1103 0.951 . S
C1127 C1128 1.366 . S
C1127 C1129 1.388 . S
C1128 C1127 1.366 . S
C1128 C1132 1.385 . S
C1129 H1104 0.951 . S
C1129 C1127 1.388 . S
C1129 C1130 1.366 . S
C1130 C1129 1.366 . S
C1130 C1131 1.414 . S
C1130 C1133 1.499 . S
C1131 H1105 0.950 . S
C1131 C1130 1.414 . S
C1131 C1132 1.374 . S
C1132 H1106 0.950 . S
C1132 C1128 1.385 . S
C1132 C1131 1.374 . S
C1133 C1130 1.499 . S
C1133 C1134 1.373 . S
C1133 C1135 1.389 . S
C1134 H1107 0.950 . S
C1134 C1120 1.377 . S
C1134 C1133 1.373 . S
C1135 C1119 1.377 . S
C1135 C1133 1.389 . S
C1135 C1136 1.524 . S
C1136 C1135 1.524 . S
C1136 C1137 1.397 . S
C1136 C1141 1.363 . S
C1137 H1108 0.950 . S
C1137 C1136 1.397 . S
C1137 C1138 1.334 . S
C1138 H1109 0.950 . S
C1138 C1137 1.334 . S
C1138 C1139 1.287 . S
C1139 C1138 1.287 . S
C1139 C1140 1.524 . S
C1139 H1142 0.999 . S
C1140 H1110 0.950 . S
C1140 C1139 1.524 . S
C1140 C1141 1.415 . S
C1141 H1111 0.950 . S
C1141 C1136 1.363 . S
C1141 C1140 1.415 . S
H1142 C1139 0.999 . S
H1143 C1124 0.913 . S
H1144 C1162 0.951 . S
H1145 C1164 0.951 1_565 S
H1146 C1166 0.961 . S
H1147 C1167 0.950 . S
H1148 C1169 0.950 . S
H1149 C1172 0.950 . S
H1150 C1173 0.950 . S
H1151 C1175 0.950 . S
H1152 C1176 0.950 . S
H1153 C1177 0.951 . S
H1154 C1179 0.951 . S
H1155 C1181 0.950 . S
H1156 C1182 0.950 . S
H1157 C1184 0.950 . S
H1158 C1187 0.950 . S
H1159 C1188 0.950 . S
H1160 C1190 0.950 . S
H1161 C1191 0.950 . S
C1162 H1144 0.951 . S
C1162 C1163 1.366 . S
C1162 C1164 1.388 . S
C1163 C1162 1.366 . S
C1163 C1167 1.385 . S
C1164 H1145 0.951 1_545 S
C1164 C1162 1.388 . S
C1164 C1165 1.366 1_545 S
C1165 C1164 1.366 1_565 S
C1165 C1166 1.421 . S
C1165 C1168 1.499 . S
C1166 H1146 0.961 . S
C1166 C1165 1.421 . S
C1166 C1167 1.356 1_565 S
C1167 H1147 0.950 . S
C1167 C1163 1.385 . S
C1167 C1166 1.356 1_545 S
C1168 C1165 1.499 . S
C1168 C1169 1.373 . S
C1168 C1170 1.389 . S
C1169 H1148 0.950 . S
C1169 C1168 1.373 . S
C1169 C1185 1.377 . S
C1170 C1168 1.389 . S
C1170 C1171 1.524 . S
C1170 C1184 1.377 . S
C1171 C1170 1.524 . S
C1171 C1172 1.397 1_565 S
C1171 C1176 1.363 . S
C1172 H1149 0.950 . S
C1172 C1171 1.397 1_545 S
C1172 C1173 1.334 . S
C1173 H1150 0.950 . S
C1173 C1172 1.334 . S
C1173 C1174 1.287 . S
C1174 C1173 1.287 . S
C1174 C1175 1.524 . S
C1174 H1193 0.913 . S
C1175 H1151 0.950 . S
C1175 C1174 1.524 . S
C1175 C1176 1.415 1_545 S
C1176 H1152 0.950 . S
C1176 C1171 1.363 . S
C1176 C1175 1.415 1_565 S
C1177 H1153 0.951 . S
C1177 C1178 1.366 . S
C1177 C1179 1.388 . S
C1178 C1177 1.366 . S
C1178 C1182 1.385 . S
C1179 H1154 0.951 . S
C1179 C1177 1.388 . S
C1179 C1180 1.366 . S
C1180 C1179 1.366 . S
C1180 C1181 1.414 . S
C1180 C1183 1.499 . S
C1181 H1155 0.950 . S
C1181 C1180 1.414 . S
C1181 C1182 1.374 . S
C1182 H1156 0.950 . S
C1182 C1178 1.385 . S
C1182 C1181 1.374 . S
C1183 C1180 1.499 . S
C1183 C1184 1.373 . S
C1183 C1185 1.389 . S
C1184 H1157 0.950 . S
C1184 C1170 1.377 . S
C1184 C1183 1.373 . S
C1185 C1169 1.377 . S
C1185 C1183 1.389 . S
C1185 C1186 1.524 . S
C1186 C1185 1.524 . S
C1186 C1187 1.397 . S
C1186 C1191 1.363 . S
C1187 H1158 0.950 . S
C1187 C1186 1.397 . S
C1187 C1188 1.334 . S
C1188 H1159 0.950 . S
C1188 C1187 1.334 . S
C1188 C1189 1.287 . S
C1189 C1188 1.287 . S
C1189 C1190 1.524 . S
C1189 H1192 0.999 . S
C1190 H1160 0.950 . S
C1190 C1189 1.524 . S
C1190 C1191 1.415 . S
C1191 H1161 0.950 . S
C1191 C1186 1.363 . S
C1191 C1190 1.415 . S
H1192 C1189 0.999 . S
H1193 C1174 0.913 . S
H1194 C1212 0.951 . S
H1195 C1214 0.951 . S
H1196 C1216 0.950 . S
H1197 C1217 0.950 . S
H1198 C1219 0.950 . S
H1199 C1222 0.950 . S
H1200 C1223 0.950 . S
H1201 C1225 0.950 . S
H1202 C1226 0.950 . S
H1203 C1227 0.951 . S
H1204 C1229 0.951 . S
H1205 C1231 0.950 . S
H1206 C1232 0.950 . S
H1207 C1234 0.950 . S
H1208 C1237 0.950 . S
H1209 C1238 0.950 . S
H1210 C1240 0.950 . S
H1211 C1241 0.950 . S
C1212 H1194 0.951 . S
C1212 C1213 1.366 . S
C1212 C1214 1.388 . S
C1213 C1212 1.366 . S
C1213 C1217 1.385 . S
C1214 H1195 0.951 . S
C1214 C1212 1.388 . S
C1214 C1215 1.366 . S
C1215 C1214 1.366 . S
C1215 C1216 1.414 . S
C1215 C1218 1.499 . S
C1216 H1196 0.950 . S
C1216 C1215 1.414 . S
C1216 C1217 1.374 . S
C1217 H1197 0.950 . S
C1217 C1213 1.385 . S
C1217 C1216 1.374 . S
C1218 C1215 1.499 . S
C1218 C1219 1.373 . S
C1218 C1220 1.389 . S
C1219 H1198 0.950 . S
C1219 C1218 1.373 . S
C1219 C1235 1.377 . S
C1220 C1218 1.389 . S
C1220 C1221 1.524 . S
C1220 C1234 1.377 . S
C1221 C1220 1.524 . S
C1221 C1222 1.397 . S
C1221 C1226 1.363 . S
C1222 H1199 0.950 . S
C1222 C1221 1.397 . S
C1222 C1223 1.334 . S
C1223 H1200 0.950 . S
C1223 C1222 1.334 . S
C1223 C1224 1.287 . S
C1224 C1223 1.287 . S
C1224 C1225 1.524 . S
C1224 H1243 0.913 . S
C1225 H1201 0.950 . S
C1225 C1224 1.524 . S
C1225 C1226 1.415 . S
C1226 H1202 0.950 . S
C1226 C1221 1.363 . S
C1226 C1225 1.415 . S
C1227 H1203 0.951 . S
C1227 C1228 1.366 . S
C1227 C1229 1.388 . S
C1228 C1227 1.366 . S
C1228 C1232 1.385 . S
C1229 H1204 0.951 . S
C1229 C1227 1.388 . S
C1229 C1230 1.366 . S
C1230 C1229 1.366 . S
C1230 C1231 1.414 . S
C1230 C1233 1.499 . S
C1231 H1205 0.950 . S
C1231 C1230 1.414 . S
C1231 C1232 1.374 . S
C1232 H1206 0.950 . S
C1232 C1228 1.385 . S
C1232 C1231 1.374 . S
C1233 C1230 1.499 . S
C1233 C1234 1.373 . S
C1233 C1235 1.389 . S
C1234 H1207 0.950 . S
C1234 C1220 1.377 . S
C1234 C1233 1.373 . S
C1235 C1219 1.377 . S
C1235 C1233 1.389 . S
C1235 C1236 1.524 . S
C1236 C1235 1.524 . S
C1236 C1237 1.397 . S
C1236 C1241 1.363 . S
C1237 H1208 0.950 . S
C1237 C1236 1.397 . S
C1237 C1238 1.334 . S
C1238 H1209 0.950 . S
C1238 C1237 1.334 . S
C1238 C1239 1.287 . S
C1239 C1238 1.287 . S
C1239 C1240 1.524 . S
C1239 H1242 0.999 . S
C1240 H1210 0.950 . S
C1240 C1239 1.524 . S
C1240 C1241 1.415 . S
C1241 H1211 0.950 . S
C1241 C1236 1.363 . S
C1241 C1240 1.415 . S
H1242 C1239 0.999 . S
H1243 C1224 0.913 . S
H1244 C1262 0.951 . S
H1245 C1264 0.951 . S
H1246 C1266 0.950 . S
H1247 C1267 0.950 . S
H1248 C1269 0.950 . S
H1249 C1272 0.950 . S
H1250 C1273 0.950 . S
H1251 C1275 0.950 . S
H1252 C1276 0.950 . S
H1253 C1277 0.951 . S
H1254 C1279 0.951 . S
H1255 C1281 0.950 . S
H1256 C1282 0.950 . S
H1257 C1284 0.950 . S
H1258 C1287 0.950 . S
H1259 C1288 0.950 . S
H1260 C1290 0.950 . S
H1261 C1291 0.950 . S
C1262 H1244 0.951 . S
C1262 C1263 1.366 . S
C1262 C1264 1.388 . S
C1263 C1262 1.366 . S
C1263 C1267 1.385 . S
C1264 H1245 0.951 . S
C1264 C1262 1.388 . S
C1264 C1265 1.366 . S
C1265 C1264 1.366 . S
C1265 C1266 1.414 . S
C1265 C1268 1.499 . S
C1266 H1246 0.950 . S
C1266 C1265 1.414 . S
C1266 C1267 1.374 . S
C1267 H1247 0.950 . S
C1267 C1263 1.385 . S
C1267 C1266 1.374 . S
C1268 C1265 1.499 . S
C1268 C1269 1.373 . S
C1268 C1270 1.389 . S
C1269 H1248 0.950 . S
C1269 C1268 1.373 . S
C1269 C1285 1.377 . S
C1270 C1268 1.389 . S
C1270 C1271 1.524 . S
C1270 C1284 1.377 . S
C1271 C1270 1.524 . S
C1271 C1272 1.397 . S
C1271 C1276 1.363 . S
C1272 H1249 0.950 . S
C1272 C1271 1.397 . S
C1272 C1273 1.334 . S
C1273 H1250 0.950 . S
C1273 C1272 1.334 . S
C1273 C1274 1.287 . S
C1274 C1273 1.287 . S
C1274 C1275 1.524 . S
C1274 H1293 0.913 . S
C1275 H1251 0.950 . S
C1275 C1274 1.524 . S
C1275 C1276 1.415 . S
C1276 H1252 0.950 . S
C1276 C1271 1.363 . S
C1276 C1275 1.415 . S
C1277 H1253 0.951 . S
C1277 C1278 1.366 . S
C1277 C1279 1.388 . S
C1278 C1277 1.366 . S
C1278 C1282 1.385 . S
C1279 H1254 0.951 . S
C1279 C1277 1.388 . S
C1279 C1280 1.366 . S
C1280 C1279 1.366 . S
C1280 C1281 1.414 . S
C1280 C1283 1.499 . S
C1281 H1255 0.950 . S
C1281 C1280 1.414 . S
C1281 C1282 1.374 . S
C1282 H1256 0.950 . S
C1282 C1278 1.385 . S
C1282 C1281 1.374 . S
C1283 C1280 1.499 . S
C1283 C1284 1.373 . S
C1283 C1285 1.389 . S
C1284 H1257 0.950 . S
C1284 C1270 1.377 . S
C1284 C1283 1.373 . S
C1285 C1269 1.377 . S
C1285 C1283 1.389 . S
C1285 C1286 1.524 . S
C1286 C1285 1.524 . S
C1286 C1287 1.397 . S
C1286 C1291 1.363 . S
C1287 H1258 0.950 . S
C1287 C1286 1.397 . S
C1287 C1288 1.334 . S
C1288 H1259 0.950 . S
C1288 C1287 1.334 . S
C1288 C1289 1.287 . S
C1289 C1288 1.287 . S
C1289 C1290 1.524 . S
C1289 H1292 0.999 . S
C1290 H1260 0.950 . S
C1290 C1289 1.524 . S
C1290 C1291 1.415 . S
C1291 H1261 0.950 . S
C1291 C1286 1.363 . S
C1291 C1290 1.415 . S
H1292 C1289 0.999 . S
H1293 C1274 0.913 . S
H1294 C1312 0.951 . S
H1295 C1314 0.951 . S
H1296 C1316 0.950 . S
H1297 C1317 0.950 . S
H1298 C1319 0.950 . S
H1299 C1322 0.971 . S
H1300 C1323 0.950 1_455 S
H1301 C1325 0.950 . S
H1302 C1326 0.950 . S
H1303 C1327 0.951 . S
H1304 C1329 0.951 . S
H1305 C1331 0.950 . S
H1306 C1332 0.950 . S
H1307 C1334 0.950 . S
H1308 C1337 0.950 . S
H1309 C1338 0.950 . S
H1310 C1340 0.950 . S
H1311 C1341 0.950 . S
C1312 H1294 0.951 . S
C1312 C1313 1.366 . S
C1312 C1314 1.388 1_455 S
C1313 C1312 1.366 . S
C1313 C1317 1.385 . S
C1314 H1295 0.951 . S
C1314 C1312 1.388 1_655 S
C1314 C1315 1.366 . S
C1315 C1314 1.366 . S
C1315 C1316 1.414 1_655 S
C1315 C1318 1.499 . S
C1316 H1296 0.950 . S
C1316 C1315 1.414 1_455 S
C1316 C1317 1.374 . S
C1317 H1297 0.950 . S
C1317 C1313 1.385 . S
C1317 C1316 1.374 . S
C1318 C1315 1.499 . S
C1318 C1319 1.373 . S
C1318 C1320 1.389 . S
C1319 H1298 0.950 . S
C1319 C1318 1.373 . S
C1319 C1335 1.377 . S
C1320 C1318 1.389 . S
C1320 C1321 1.524 . S
C1320 C1334 1.377 . S
C1321 C1320 1.524 . S
C1321 C1322 1.397 . S
C1321 C1326 1.363 . S
C1322 H1299 0.971 . S
C1322 C1321 1.397 . S
C1322 C1323 1.334 . S
C1323 H1300 0.950 1_655 S
C1323 C1322 1.334 . S
C1323 C1324 1.287 . S
C1324 C1323 1.287 . S
C1324 C1325 1.524 . S
C1324 H1343 0.913 . S
C1325 H1301 0.950 . S
C1325 C1324 1.524 . S
C1325 C1326 1.415 . S
C1326 H1302 0.950 . S
C1326 C1321 1.363 . S
C1326 C1325 1.415 . S
C1327 H1303 0.951 . S
C1327 C1328 1.366 . S
C1327 C1329 1.388 . S
C1328 C1327 1.366 . S
C1328 C1332 1.385 . S
C1329 H1304 0.951 . S
C1329 C1327 1.388 . S
C1329 C1330 1.366 . S
C1330 C1329 1.366 . S
C1330 C1331 1.414 . S
C1330 C1333 1.499 . S
C1331 H1305 0.950 . S
C1331 C1330 1.414 . S
C1331 C1332 1.374 . S
C1332 H1306 0.950 . S
C1332 C1328 1.385 . S
C1332 C1331 1.374 . S
C1333 C1330 1.499 . S
C1333 C1334 1.373 . S
C1333 C1335 1.389 . S
C1334 H1307 0.950 . S
C1334 C1320 1.377 . S
C1334 C1333 1.373 . S
C1335 C1319 1.377 . S
C1335 C1333 1.389 . S
C1335 C1336 1.524 . S
C1336 C1335 1.524 . S
C1336 C1337 1.397 . S
C1336 C1341 1.363 . S
C1337 H1308 0.950 . S
C1337 C1336 1.397 . S
C1337 C1338 1.334 . S
C1338 H1309 0.950 . S
C1338 C1337 1.334 . S
C1338 C1339 1.287 . S
C1339 C1338 1.287 . S
C1339 C1340 1.524 . S
C1339 H1342 0.999 . S
C1340 H1310 0.950 . S
C1340 C1339 1.524 . S
C1340 C1341 1.415 . S
C1341 H1311 0.950 . S
C1341 C1336 1.363 . S
C1341 C1340 1.415 . S
H1342 C1339 0.999 . S
H1343 C1324 0.913 . S
H1344 C1362 0.951 . S
H1345 C1364 0.951 . S
H1346 C1366 0.950 . S
H1347 C1367 0.950 . S
H1348 C1369 0.950 . S
H1349 C1372 0.950 . S
H1350 C1373 0.950 . S
H1351 C1375 0.950 . S
H1352 C1376 0.950 . S
H1353 C1377 0.951 . S
H1354 C1379 0.951 . S
H1355 C1381 0.950 . S
H1356 C1382 0.950 . S
H1357 C1384 0.950 . S
H1358 C1387 0.950 . S
H1359 C1388 0.950 . S
H1360 C1390 0.950 . S
H1361 C1391 0.950 . S
C1362 H1344 0.951 . S
C1362 C1363 1.366 . S
C1362 C1364 1.388 . S
C1363 C1362 1.366 . S
C1363 C1367 1.385 . S
C1364 H1345 0.951 . S
C1364 C1362 1.388 . S
C1364 C1365 1.366 . S
C1365 C1364 1.366 . S
C1365 C1366 1.414 . S
C1365 C1368 1.499 . S
C1366 H1346 0.950 . S
C1366 C1365 1.414 . S
C1366 C1367 1.374 . S
C1367 H1347 0.950 . S
C1367 C1363 1.385 . S
C1367 C1366 1.374 . S
C1368 C1365 1.499 . S
C1368 C1369 1.373 . S
C1368 C1370 1.389 . S
C1369 H1348 0.950 . S
C1369 C1368 1.373 . S
C1369 C1385 1.377 . S
C1370 C1368 1.389 . S
C1370 C1371 1.524 . S
C1370 C1384 1.377 . S
C1371 C1370 1.524 . S
C1371 C1372 1.397 . S
C1371 C1376 1.363 . S
C1372 H1349 0.950 . S
C1372 C1371 1.397 . S
C1372 C1373 1.334 . S
C1373 H1350 0.950 . S
C1373 C1372 1.334 . S
C1373 C1374 1.287 . S
C1374 C1373 1.287 . S
C1374 C1375 1.524 . S
C1374 H1393 0.913 . S
C1375 H1351 0.950 . S
C1375 C1374 1.524 . S
C1375 C1376 1.415 . S
C1376 H1352 0.950 . S
C1376 C1371 1.363 . S
C1376 C1375 1.415 . S
C1377 H1353 0.951 . S
C1377 C1378 1.366 . S
C1377 C1379 1.388 . S
C1378 C1377 1.366 . S
C1378 C1382 1.385 . S
C1379 H1354 0.951 . S
C1379 C1377 1.388 . S
C1379 C1380 1.366 . S
C1380 C1379 1.366 . S
C1380 C1381 1.414 . S
C1380 C1383 1.499 . S
C1381 H1355 0.950 . S
C1381 C1380 1.414 . S
C1381 C1382 1.374 . S
C1382 H1356 0.950 . S
C1382 C1378 1.385 . S
C1382 C1381 1.374 . S
C1383 C1380 1.499 . S
C1383 C1384 1.373 . S
C1383 C1385 1.389 . S
C1384 H1357 0.950 . S
C1384 C1370 1.377 . S
C1384 C1383 1.373 . S
C1385 C1369 1.377 . S
C1385 C1383 1.389 . S
C1385 C1386 1.524 . S
C1386 C1385 1.524 . S
C1386 C1387 1.397 . S
C1386 C1391 1.363 . S
C1387 H1358 0.950 . S
C1387 C1386 1.397 . S
C1387 C1388 1.334 . S
C1388 H1359 0.950 . S
C1388 C1387 1.334 . S
C1388 C1389 1.287 . S
C1389 C1388 1.287 . S
C1389 C1390 1.524 . S
C1389 H1392 0.999 . S
C1390 H1360 0.950 . S
C1390 C1389 1.524 . S
C1390 C1391 1.415 . S
C1391 H1361 0.950 . S
C1391 C1386 1.363 . S
C1391 C1390 1.415 . S
H1392 C1389 0.999 . S
H1393 C1374 0.913 . S
H1394 C1412 0.951 . S
H1395 C1414 0.951 . S
H1396 C1416 0.950 . S
H1397 C1417 0.950 . S
H1398 C1419 0.950 . S
H1399 C1422 0.950 . S
H1400 C1423 0.950 . S
H1401 C1425 0.950 . S
H1402 C1426 0.950 . S
H1403 C1427 0.951 . S
H1404 C1429 0.951 . S
H1405 C1431 0.950 . S
H1406 C1432 0.950 . S
H1407 C1434 0.950 . S
H1408 C1437 0.950 . S
H1409 C1438 0.950 . S
H1410 C1440 0.950 . S
H1411 C1441 0.950 . S
C1412 H1394 0.951 . S
C1412 C1413 1.366 . S
C1412 C1414 1.388 . S
C1413 C1412 1.366 . S
C1413 C1417 1.385 . S
C1414 H1395 0.951 . S
C1414 C1412 1.388 . S
C1414 C1415 1.366 . S
C1415 C1414 1.366 . S
C1415 C1416 1.414 . S
C1415 C1418 1.499 . S
C1416 H1396 0.950 . S
C1416 C1415 1.414 . S
C1416 C1417 1.374 . S
C1417 H1397 0.950 . S
C1417 C1413 1.385 . S
C1417 C1416 1.374 . S
C1418 C1415 1.499 . S
C1418 C1419 1.373 . S
C1418 C1420 1.389 . S
C1419 H1398 0.950 . S
C1419 C1418 1.373 . S
C1419 C1435 1.377 . S
C1420 C1418 1.389 . S
C1420 C1421 1.524 . S
C1420 C1434 1.377 . S
C1421 C1420 1.524 . S
C1421 C1422 1.397 . S
C1421 C1426 1.363 . S
C1422 H1399 0.950 . S
C1422 C1421 1.397 . S
C1422 C1423 1.334 . S
C1423 H1400 0.950 . S
C1423 C1422 1.334 . S
C1423 C1424 1.287 . S
C1424 C1423 1.287 . S
C1424 C1425 1.524 . S
C1424 H1443 0.913 . S
C1425 H1401 0.950 . S
C1425 C1424 1.524 . S
C1425 C1426 1.415 . S
C1426 H1402 0.950 . S
C1426 C1421 1.363 . S
C1426 C1425 1.415 . S
C1427 H1403 0.951 . S
C1427 C1428 1.366 . S
C1427 C1429 1.388 . S
C1428 C1427 1.366 . S
C1428 C1432 1.385 . S
C1429 H1404 0.951 . S
C1429 C1427 1.388 . S
C1429 C1430 1.366 . S
C1430 C1429 1.366 . S
C1430 C1431 1.414 . S
C1430 C1433 1.499 . S
C1431 H1405 0.950 . S
C1431 C1430 1.414 . S
C1431 C1432 1.374 . S
C1432 H1406 0.950 . S
C1432 C1428 1.385 . S
C1432 C1431 1.374 . S
C1433 C1430 1.499 . S
C1433 C1434 1.373 . S
C1433 C1435 1.389 . S
C1434 H1407 0.950 . S
C1434 C1420 1.377 . S
C1434 C1433 1.373 . S
C1435 C1419 1.377 . S
C1435 C1433 1.389 . S
C1435 C1436 1.524 . S
C1436 C1435 1.524 . S
C1436 C1437 1.397 . S
C1436 C1441 1.363 . S
C1437 H1408 0.950 . S
C1437 C1436 1.397 . S
C1437 C1438 1.334 . S
C1438 H1409 0.950 . S
C1438 C1437 1.334 . S
C1438 C1439 1.287 . S
C1439 C1438 1.287 . S
C1439 C1440 1.524 . S
C1439 H1442 0.999 . S
C1440 H1410 0.950 . S
C1440 C1439 1.524 . S
C1440 C1441 1.415 . S
C1441 H1411 0.950 . S
C1441 C1436 1.363 . S
C1441 C1440 1.415 . S
H1442 C1439 0.999 . S
H1443 C1424 0.913 . S
H1444 C1462 0.951 . S
H1445 C1464 0.951 . S
H1446 C1466 0.950 . S
H1447 C1467 0.950 . S
H1448 C1469 0.950 . S
H1449 C1472 0.950 . S
H1450 C1473 0.950 . S
H1451 C1475 0.950 . S
H1452 C1476 0.950 . S
H1453 C1477 0.951 . S
H1454 C1479 0.951 . S
H1455 C1481 0.950 . S
H1456 C1482 0.950 . S
H1457 C1484 0.950 . S
H1458 C1487 0.950 . S
H1459 C1488 0.950 . S
H1460 C1490 0.950 . S
H1461 C1491 0.950 . S
C1462 H1444 0.951 . S
C1462 C1463 1.366 . S
C1462 C1464 1.388 . S
C1463 C1462 1.366 . S
C1463 C1467 1.385 . S
C1464 H1445 0.951 . S
C1464 C1462 1.388 . S
C1464 C1465 1.366 . S
C1465 C1464 1.366 . S
C1465 C1466 1.414 . S
C1465 C1468 1.499 . S
C1466 H1446 0.950 . S
C1466 C1465 1.414 . S
C1466 C1467 1.374 . S
C1467 H1447 0.950 . S
C1467 C1463 1.385 . S
C1467 C1466 1.374 . S
C1468 C1465 1.499 . S
C1468 C1469 1.373 . S
C1468 C1470 1.389 . S
C1469 H1448 0.950 . S
C1469 C1468 1.373 . S
C1469 C1485 1.377 . S
C1470 C1468 1.389 . S
C1470 C1471 1.524 . S
C1470 C1484 1.377 . S
C1471 C1470 1.524 . S
C1471 C1472 1.397 . S
C1471 C1476 1.363 . S
C1472 H1449 0.950 . S
C1472 C1471 1.397 . S
C1472 C1473 1.334 . S
C1473 H1450 0.950 . S
C1473 C1472 1.334 . S
C1473 C1474 1.287 . S
C1474 C1473 1.287 . S
C1474 C1475 1.524 . S
C1474 H1493 0.913 . S
C1475 H1451 0.950 . S
C1475 C1474 1.524 . S
C1475 C1476 1.415 . S
C1476 H1452 0.950 . S
C1476 C1471 1.363 . S
C1476 C1475 1.415 . S
C1477 H1453 0.951 . S
C1477 C1478 1.366 . S
C1477 C1479 1.388 . S
C1478 C1477 1.366 . S
C1478 C1482 1.385 . S
C1479 H1454 0.951 . S
C1479 C1477 1.388 . S
C1479 C1480 1.366 . S
C1480 C1479 1.366 . S
C1480 C1481 1.414 . S
C1480 C1483 1.499 . S
C1481 H1455 0.950 . S
C1481 C1480 1.414 . S
C1481 C1482 1.374 . S
C1482 H1456 0.950 . S
C1482 C1478 1.385 . S
C1482 C1481 1.374 . S
C1483 C1480 1.499 . S
C1483 C1484 1.373 . S
C1483 C1485 1.389 . S
C1484 H1457 0.950 . S
C1484 C1470 1.377 . S
C1484 C1483 1.373 . S
C1485 C1469 1.377 . S
C1485 C1483 1.389 . S
C1485 C1486 1.524 . S
C1486 C1485 1.524 . S
C1486 C1487 1.397 . S
C1486 C1491 1.363 . S
C1487 H1458 0.950 . S
C1487 C1486 1.397 . S
C1487 C1488 1.334 . S
C1488 H1459 0.950 . S
C1488 C1487 1.334 . S
C1488 C1489 1.287 . S
C1489 C1488 1.287 . S
C1489 C1490 1.524 . S
C1489 H1492 0.999 . S
C1490 H1460 0.950 . S
C1490 C1489 1.524 . S
C1490 C1491 1.415 . S
C1491 H1461 0.950 . S
C1491 C1486 1.363 . S
C1491 C1490 1.415 . S
H1492 C1489 0.999 . S
H1493 C1474 0.913 . S
H1494 C1512 0.951 . S
H1495 C1514 0.951 . S
H1496 C1516 0.950 . S
H1497 C1517 0.950 . S
H1498 C1519 0.950 . S
H1499 C1522 0.950 . S
H1500 C1523 0.950 . S
H1501 C1525 0.950 . S
H1502 C1526 0.950 . S
H1503 C1527 0.951 . S
H1504 C1529 0.951 . S
H1505 C1531 0.950 . S
H1506 C1532 0.950 . S
H1507 C1534 0.950 . S
H1508 C1537 0.950 . S
H1509 C1538 0.950 . S
H1510 C1540 0.950 . S
H1511 C1541 0.950 . S
C1512 H1494 0.951 . S
C1512 C1513 1.366 . S
C1512 C1514 1.388 . S
C1513 C1512 1.366 . S
C1513 C1517 1.385 . S
C1514 H1495 0.951 . S
C1514 C1512 1.388 . S
C1514 C1515 1.366 . S
C1515 C1514 1.366 . S
C1515 C1516 1.414 . S
C1515 C1518 1.499 . S
C1516 H1496 0.950 . S
C1516 C1515 1.414 . S
C1516 C1517 1.374 . S
C1517 H1497 0.950 . S
C1517 C1513 1.385 . S
C1517 C1516 1.374 . S
C1518 C1515 1.499 . S
C1518 C1519 1.373 . S
C1518 C1520 1.389 . S
C1519 H1498 0.950 . S
C1519 C1518 1.373 . S
C1519 C1535 1.377 . S
C1520 C1518 1.389 . S
C1520 C1521 1.524 . S
C1520 C1534 1.377 . S
C1521 C1520 1.524 . S
C1521 C1522 1.397 . S
C1521 C1526 1.363 . S
C1522 H1499 0.950 . S
C1522 C1521 1.397 . S
C1522 C1523 1.334 . S
C1523 H1500 0.950 . S
C1523 C1522 1.334 . S
C1523 C1524 1.287 . S
C1524 C1523 1.287 . S
C1524 C1525 1.524 . S
C1524 H1543 0.913 . S
C1525 H1501 0.950 . S
C1525 C1524 1.524 . S
C1525 C1526 1.415 . S
C1526 H1502 0.950 . S
C1526 C1521 1.363 . S
C1526 C1525 1.415 . S
C1527 H1503 0.951 . S
C1527 C1528 1.366 . S
C1527 C1529 1.388 . S
C1528 C1527 1.366 . S
C1528 C1532 1.385 . S
C1529 H1504 0.951 . S
C1529 C1527 1.388 . S
C1529 C1530 1.366 . S
C1530 C1529 1.366 . S
C1530 C1531 1.414 . S
C1530 C1533 1.499 . S
C1531 H1505 0.950 . S
C1531 C1530 1.414 . S
C1531 C1532 1.374 . S
C1532 H1506 0.950 . S
C1532 C1528 1.385 . S
C1532 C1531 1.374 . S
C1533 C1530 1.499 . S
C1533 C1534 1.373 . S
C1533 C1535 1.389 . S
C1534 H1507 0.950 . S
C1534 C1520 1.377 . S
C1534 C1533 1.373 . S
C1535 C1519 1.377 . S
C1535 C1533 1.389 . S
C1535 C1536 1.524 . S
C1536 C1535 1.524 . S
C1536 C1537 1.397 . S
C1536 C1541 1.363 . S
C1537 H1508 0.950 . S
C1537 C1536 1.397 . S
C1537 C1538 1.334 . S
C1538 H1509 0.950 . S
C1538 C1537 1.334 . S
C1538 C1539 1.287 . S
C1539 C1538 1.287 . S
C1539 C1540 1.524 . S
C1539 H1542 0.999 . S
C1540 H1510 0.950 . S
C1540 C1539 1.524 . S
C1540 C1541 1.415 . S
C1541 H1511 0.950 . S
C1541 C1536 1.363 . S
C1541 C1540 1.415 . S
H1542 C1539 0.999 . S
H1543 C1524 0.913 . S
H1544 C1562 0.951 . S
H1545 C1564 0.951 . S
H1546 C1566 0.950 . S
H1547 C1567 0.950 . S
H1548 C1569 0.950 . S
H1549 C1572 0.950 . S
H1550 C1573 0.950 . S
H1551 C1575 0.950 . S
H1552 C1576 0.950 . S
H1553 C1577 0.951 . S
H1554 C1579 0.951 . S
H1555 C1581 0.950 . S
H1556 C1582 0.950 . S
H1557 C1584 0.950 . S
H1558 C1587 0.950 . S
H1559 C1588 0.950 . S
H1560 C1590 0.950 . S
H1561 C1591 0.950 . S
C1562 H1544 0.951 . S
C1562 C1563 1.366 . S
C1562 C1564 1.388 . S
C1563 C1562 1.366 . S
C1563 C1567 1.385 . S
C1564 H1545 0.951 . S
C1564 C1562 1.388 . S
C1564 C1565 1.366 . S
C1565 C1564 1.366 . S
C1565 C1566 1.414 . S
C1565 C1568 1.499 . S
C1566 H1546 0.950 . S
C1566 C1565 1.414 . S
C1566 C1567 1.374 . S
C1567 H1547 0.950 . S
C1567 C1563 1.385 . S
C1567 C1566 1.374 . S
C1568 C1565 1.499 . S
C1568 C1569 1.373 . S
C1568 C1570 1.389 . S
C1569 H1548 0.950 . S
C1569 C1568 1.373 . S
C1569 C1585 1.377 . S
C1570 C1568 1.389 . S
C1570 C1571 1.524 . S
C1570 C1584 1.377 . S
C1571 C1570 1.524 . S
C1571 C1572 1.397 . S
C1571 C1576 1.363 . S
C1572 H1549 0.950 . S
C1572 C1571 1.397 . S
C1572 C1573 1.334 . S
C1573 H1550 0.950 . S
C1573 C1572 1.334 . S
C1573 C1574 1.287 . S
C1574 C1573 1.287 . S
C1574 C1575 1.524 . S
C1574 H1593 0.913 . S
C1575 H1551 0.950 . S
C1575 C1574 1.524 . S
C1575 C1576 1.415 . S
C1576 H1552 0.950 . S
C1576 C1571 1.363 . S
C1576 C1575 1.415 . S
C1577 H1553 0.951 . S
C1577 C1578 1.366 . S
C1577 C1579 1.388 . S
C1578 C1577 1.366 . S
C1578 C1582 1.385 . S
C1579 H1554 0.951 . S
C1579 C1577 1.388 . S
C1579 C1580 1.366 . S
C1580 C1579 1.366 . S
C1580 C1581 1.414 . S
C1580 C1583 1.499 . S
C1581 H1555 0.950 . S
C1581 C1580 1.414 . S
C1581 C1582 1.374 . S
C1582 H1556 0.950 . S
C1582 C1578 1.385 . S
C1582 C1581 1.374 . S
C1583 C1580 1.499 . S
C1583 C1584 1.373 . S
C1583 C1585 1.389 . S
C1584 H1557 0.950 . S
C1584 C1570 1.377 . S
C1584 C1583 1.373 . S
C1585 C1569 1.377 . S
C1585 C1583 1.389 . S
C1585 C1586 1.524 . S
C1586 C1585 1.524 . S
C1586 C1587 1.397 . S
C1586 C1591 1.363 . S
C1587 H1558 0.950 . S
C1587 C1586 1.397 . S
C1587 C1588 1.334 . S
C1588 H1559 0.950 . S
C1588 C1587 1.334 . S
C1588 C1589 1.287 . S
C1589 C1588 1.287 . S
C1589 C1590 1.524 . S
C1589 H1592 0.999 . S
C1590 H1560 0.950 . S
C1590 C1589 1.524 . S
C1590 C1591 1.415 . S
C1591 H1561 0.950 . S
C1591 C1586 1.363 . S
C1591 C1590 1.415 . S
H1592 C1589 0.999 . S
H1593 C1574 0.913 . S
H1594 C1612 0.951 . S
H1595 C1614 0.951 . S
H1596 C1616 0.950 . S
H1597 C1617 0.950 . S
H1598 C1619 0.950 . S
H1599 C1622 0.950 . S
H1600 C1623 0.950 . S
H1601 C1625 0.950 . S
H1602 C1626 0.950 . S
H1603 C1627 0.951 . S
H1604 C1629 0.951 . S
H1605 C1631 0.950 . S
H1606 C1632 0.950 . S
H1607 C1634 0.950 . S
H1608 C1637 0.950 . S
H1609 C1638 0.950 . S
H1610 C1640 0.950 . S
H1611 C1641 0.950 . S
C1612 H1594 0.951 . S
C1612 C1613 1.366 . S
C1612 C1614 1.388 . S
C1613 C1612 1.366 . S
C1613 C1617 1.385 . S
C1614 H1595 0.951 . S
C1614 C1612 1.388 . S
C1614 C1615 1.366 . S
C1615 C1614 1.366 . S
C1615 C1616 1.414 . S
C1615 C1618 1.499 . S
C1616 H1596 0.950 . S
C1616 C1615 1.414 . S
C1616 C1617 1.374 . S
C1617 H1597 0.950 . S
C1617 C1613 1.385 . S
C1617 C1616 1.374 . S
C1618 C1615 1.499 . S
C1618 C1619 1.373 . S
C1618 C1620 1.389 . S
C1619 H1598 0.950 . S
C1619 C1618 1.373 . S
C1619 C1635 1.377 . S
C1620 C1618 1.389 . S
C1620 C1621 1.524 . S
C1620 C1634 1.377 . S
C1621 C1620 1.524 . S
C1621 C1622 1.397 . S
C1621 C1626 1.363 . S
C1622 H1599 0.950 . S
C1622 C1621 1.397 . S
C1622 C1623 1.334 . S
C1623 H1600 0.950 . S
C1623 C1622 1.334 . S
C1623 C1624 1.287 . S
C1624 C1623 1.287 . S
C1624 C1625 1.524 . S
C1624 H1643 0.913 . S
C1625 H1601 0.950 . S
C1625 C1624 1.524 . S
C1625 C1626 1.415 . S
C1626 H1602 0.950 . S
C1626 C1621 1.363 . S
C1626 C1625 1.415 . S
C1627 H1603 0.951 . S
C1627 C1628 1.366 . S
C1627 C1629 1.388 . S
C1628 C1627 1.366 . S
C1628 C1632 1.385 . S
C1629 H1604 0.951 . S
C1629 C1627 1.388 . S
C1629 C1630 1.366 . S
C1630 C1629 1.366 . S
C1630 C1631 1.414 . S
C1630 C1633 1.499 . S
C1631 H1605 0.950 . S
C1631 C1630 1.414 . S
C1631 C1632 1.374 . S
C1632 H1606 0.950 . S
C1632 C1628 1.385 . S
C1632 C1631 1.374 . S
C1633 C1630 1.499 . S
C1633 C1634 1.373 . S
C1633 C1635 1.389 . S
C1634 H1607 0.950 . S
C1634 C1620 1.377 . S
C1634 C1633 1.373 . S
C1635 C1619 1.377 . S
C1635 C1633 1.389 . S
C1635 C1636 1.524 . S
C1636 C1635 1.524 . S
C1636 C1637 1.397 . S
C1636 C1641 1.363 . S
C1637 H1608 0.950 . S
C1637 C1636 1.397 . S
C1637 C1638 1.334 . S
C1638 H1609 0.950 . S
C1638 C1637 1.334 . S
C1638 C1639 1.287 . S
C1639 C1638 1.287 . S
C1639 C1640 1.524 . S
C1639 H1642 0.999 . S
C1640 H1610 0.950 . S
C1640 C1639 1.524 . S
C1640 C1641 1.415 . S
C1641 H1611 0.950 . S
C1641 C1636 1.363 . S
C1641 C1640 1.415 . S
H1642 C1639 0.999 . S
H1643 C1624 0.913 . S
H1644 C1662 0.951 . S
H1645 C1664 0.951 . S
H1646 C1666 0.950 . S
H1647 C1667 0.950 . S
H1648 C1669 0.950 . S
H1649 C1672 0.950 . S
H1650 C1673 0.950 . S
H1651 C1675 0.950 . S
H1652 C1676 0.950 . S
H1653 C1677 0.951 . S
H1654 C1679 0.951 . S
H1655 C1681 0.950 . S
H1656 C1682 0.950 . S
H1657 C1684 0.950 . S
H1658 C1687 0.950 . S
H1659 C1688 0.950 . S
H1660 C1690 0.950 . S
H1661 C1691 0.950 . S
C1662 H1644 0.951 . S
C1662 C1663 1.366 . S
C1662 C1664 1.388 . S
C1663 C1662 1.366 . S
C1663 C1667 1.385 . S
C1664 H1645 0.951 . S
C1664 C1662 1.388 . S
C1664 C1665 1.366 . S
C1665 C1664 1.366 . S
C1665 C1666 1.414 . S
C1665 C1668 1.499 . S
C1666 H1646 0.950 . S
C1666 C1665 1.414 . S
C1666 C1667 1.374 . S
C1667 H1647 0.950 . S
C1667 C1663 1.385 . S
C1667 C1666 1.374 . S
C1668 C1665 1.499 . S
C1668 C1669 1.373 . S
C1668 C1670 1.389 . S
C1669 H1648 0.950 . S
C1669 C1668 1.373 . S
C1669 C1685 1.377 . S
C1670 C1668 1.389 . S
C1670 C1671 1.524 . S
C1670 C1684 1.377 . S
C1671 C1670 1.524 . S
C1671 C1672 1.397 . S
C1671 C1676 1.363 . S
C1672 H1649 0.950 . S
C1672 C1671 1.397 . S
C1672 C1673 1.334 . S
C1673 H1650 0.950 . S
C1673 C1672 1.334 . S
C1673 C1674 1.287 . S
C1674 C1673 1.287 . S
C1674 C1675 1.524 . S
C1674 H1693 0.913 . S
C1675 H1651 0.950 . S
C1675 C1674 1.524 . S
C1675 C1676 1.415 . S
C1676 H1652 0.950 . S
C1676 C1671 1.363 . S
C1676 C1675 1.415 . S
C1677 H1653 0.951 . S
C1677 C1678 1.366 . S
C1677 C1679 1.388 . S
C1678 C1677 1.366 . S
C1678 C1682 1.385 . S
C1679 H1654 0.951 . S
C1679 C1677 1.388 . S
C1679 C1680 1.366 . S
C1680 C1679 1.366 . S
C1680 C1681 1.414 . S
C1680 C1683 1.499 . S
C1681 H1655 0.950 . S
C1681 C1680 1.414 . S
C1681 C1682 1.374 . S
C1682 H1656 0.950 . S
C1682 C1678 1.385 . S
C1682 C1681 1.374 . S
C1683 C1680 1.499 . S
C1683 C1684 1.373 . S
C1683 C1685 1.389 . S
C1684 H1657 0.950 . S
C1684 C1670 1.377 . S
C1684 C1683 1.373 . S
C1685 C1669 1.377 . S
C1685 C1683 1.389 . S
C1685 C1686 1.524 . S
C1686 C1685 1.524 . S
C1686 C1687 1.397 . S
C1686 C1691 1.363 . S
C1687 H1658 0.950 . S
C1687 C1686 1.397 . S
C1687 C1688 1.334 . S
C1688 H1659 0.950 . S
C1688 C1687 1.334 . S
C1688 C1689 1.287 . S
C1689 C1688 1.287 . S
C1689 C1690 1.524 . S
C1689 H1692 0.999 . S
C1690 H1660 0.950 . S
C1690 C1689 1.524 . S
C1690 C1691 1.415 . S
C1691 H1661 0.950 . S
C1691 C1686 1.363 . S
C1691 C1690 1.415 . S
H1692 C1689 0.999 . S
H1693 C1674 0.913 . S
H1694 C1712 0.951 . S
H1695 C1714 0.951 . S
H1696 C1716 0.950 . S
H1697 C1717 0.950 . S
H1698 C1719 0.950 . S
H1699 C1722 0.950 . S
H1700 C1723 0.950 . S
H1701 C1725 0.950 . S
H1702 C1726 0.950 . S
H1703 C1727 0.951 . S
H1704 C1729 0.951 . S
H1705 C1731 0.950 . S
H1706 C1732 0.950 . S
H1707 C1734 0.950 . S
H1708 C1737 0.950 . S
H1709 C1738 0.950 . S
H1710 C1740 0.950 . S
H1711 C1741 0.950 . S
C1712 H1694 0.951 . S
C1712 C1713 1.366 . S
C1712 C1714 1.388 . S
C1713 C1712 1.366 . S
C1713 C1717 1.385 . S
C1714 H1695 0.951 . S
C1714 C1712 1.388 . S
C1714 C1715 1.366 . S
C1715 C1714 1.366 . S
C1715 C1716 1.414 . S
C1715 C1718 1.499 . S
C1716 H1696 0.950 . S
C1716 C1715 1.414 . S
C1716 C1717 1.374 . S
C1717 H1697 0.950 . S
C1717 C1713 1.385 . S
C1717 C1716 1.374 . S
C1718 C1715 1.499 . S
C1718 C1719 1.373 . S
C1718 C1720 1.389 . S
C1719 H1698 0.950 . S
C1719 C1718 1.373 . S
C1719 C1735 1.377 . S
C1720 C1718 1.389 . S
C1720 C1721 1.524 . S
C1720 C1734 1.377 . S
C1721 C1720 1.524 . S
C1721 C1722 1.397 . S
C1721 C1726 1.363 . S
C1722 H1699 0.950 . S
C1722 C1721 1.397 . S
C1722 C1723 1.334 . S
C1723 H1700 0.950 . S
C1723 C1722 1.334 . S
C1723 C1724 1.287 . S
C1724 C1723 1.287 . S
C1724 C1725 1.524 . S
C1724 H1743 0.913 . S
C1725 H1701 0.950 . S
C1725 C1724 1.524 . S
C1725 C1726 1.415 . S
C1726 H1702 0.950 . S
C1726 C1721 1.363 . S
C1726 C1725 1.415 . S
C1727 H1703 0.951 . S
C1727 C1728 1.366 . S
C1727 C1729 1.388 . S
C1728 C1727 1.366 . S
C1728 C1732 1.385 . S
C1729 H1704 0.951 . S
C1729 C1727 1.388 . S
C1729 C1730 1.366 . S
C1730 C1729 1.366 . S
C1730 C1731 1.414 . S
C1730 C1733 1.499 . S
C1731 H1705 0.950 . S
C1731 C1730 1.414 . S
C1731 C1732 1.374 . S
C1732 H1706 0.950 . S
C1732 C1728 1.385 . S
C1732 C1731 1.374 . S
C1733 C1730 1.499 . S
C1733 C1734 1.373 . S
C1733 C1735 1.389 . S
C1734 H1707 0.950 . S
C1734 C1720 1.377 . S
C1734 C1733 1.373 . S
C1735 C1719 1.377 . S
C1735 C1733 1.389 . S
C1735 C1736 1.524 . S
C1736 C1735 1.524 . S
C1736 C1737 1.397 . S
C1736 C1741 1.363 . S
C1737 H1708 0.950 . S
C1737 C1736 1.397 . S
C1737 C1738 1.334 . S
C1738 H1709 0.950 . S
C1738 C1737 1.334 . S
C1738 C1739 1.287 . S
C1739 C1738 1.287 . S
C1739 C1740 1.524 . S
C1739 H1742 0.999 . S
C1740 H1710 0.950 . S
C1740 C1739 1.524 . S
C1740 C1741 1.415 . S
C1741 H1711 0.950 . S
C1741 C1736 1.363 . S
C1741 C1740 1.415 . S
H1742 C1739 0.999 . S
H1743 C1724 0.913 . S
H1744 C1762 0.951 . S
H1745 C1764 0.951 . S
H1746 C1766 0.950 . S
H1747 C1767 0.950 . S
H1748 C1769 0.950 . S
H1749 C1772 0.950 . S
H1750 C1773 0.950 . S
H1751 C1775 0.950 . S
H1752 C1776 0.950 . S
H1753 C1777 0.951 . S
H1754 C1779 0.951 . S
H1755 C1781 0.950 . S
H1756 C1782 0.950 . S
H1757 C1784 0.950 . S
H1758 C1787 0.950 . S
H1759 C1788 0.950 . S
H1760 C1790 0.950 . S
H1761 C1791 0.950 . S
C1762 H1744 0.951 . S
C1762 C1763 1.366 . S
C1762 C1764 1.388 . S
C1763 C1762 1.366 . S
C1763 C1767 1.385 . S
C1764 H1745 0.951 . S
C1764 C1762 1.388 . S
C1764 C1765 1.366 . S
C1765 C1764 1.366 . S
C1765 C1766 1.414 . S
C1765 C1768 1.499 . S
C1766 H1746 0.950 . S
C1766 C1765 1.414 . S
C1766 C1767 1.374 . S
C1767 H1747 0.950 . S
C1767 C1763 1.385 . S
C1767 C1766 1.374 . S
C1768 C1765 1.499 . S
C1768 C1769 1.373 . S
C1768 C1770 1.389 . S
C1769 H1748 0.950 . S
C1769 C1768 1.373 . S
C1769 C1785 1.377 . S
C1770 C1768 1.389 . S
C1770 C1771 1.524 . S
C1770 C1784 1.377 . S
C1771 C1770 1.524 . S
C1771 C1772 1.397 . S
C1771 C1776 1.363 . S
C1772 H1749 0.950 . S
C1772 C1771 1.397 . S
C1772 C1773 1.334 . S
C1773 H1750 0.950 . S
C1773 C1772 1.334 . S
C1773 C1774 1.287 . S
C1774 C1773 1.287 . S
C1774 C1775 1.524 . S
C1774 H1793 0.913 . S
C1775 H1751 0.950 . S
C1775 C1774 1.524 . S
C1775 C1776 1.415 . S
C1776 H1752 0.950 . S
C1776 C1771 1.363 . S
C1776 C1775 1.415 . S
C1777 H1753 0.951 . S
C1777 C1778 1.366 . S
C1777 C1779 1.388 . S
C1778 C1777 1.366 . S
C1778 C1782 1.385 . S
C1779 H1754 0.951 . S
C1779 C1777 1.388 . S
C1779 C1780 1.366 . S
C1780 C1779 1.366 . S
C1780 C1781 1.414 . S
C1780 C1783 1.499 . S
C1781 H1755 0.950 . S
C1781 C1780 1.414 . S
C1781 C1782 1.374 . S
C1782 H1756 0.950 . S
C1782 C1778 1.385 . S
C1782 C1781 1.374 . S
C1783 C1780 1.499 . S
C1783 C1784 1.373 . S
C1783 C1785 1.389 . S
C1784 H1757 0.950 . S
C1784 C1770 1.377 . S
C1784 C1783 1.373 . S
C1785 C1769 1.377 . S
C1785 C1783 1.389 . S
C1785 C1786 1.524 . S
C1786 C1785 1.524 . S
C1786 C1787 1.397 . S
C1786 C1791 1.363 . S
C1787 H1758 0.950 . S
C1787 C1786 1.397 . S
C1787 C1788 1.334 . S
C1788 H1759 0.950 . S
C1788 C1787 1.334 . S
C1788 C1789 1.287 . S
C1789 C1788 1.287 . S
C1789 C1790 1.524 . S
C1789 H1792 0.999 . S
C1790 H1760 0.950 . S
C1790 C1789 1.524 . S
C1790 C1791 1.415 . S
C1791 H1761 0.950 . S
C1791 C1786 1.363 . S
C1791 C1790 1.415 . S
H1792 C1789 0.999 . S
H1793 C1774 0.913 . S
H1794 C1812 0.951 . S
H1795 C1814 0.951 . S
H1796 C1816 0.950 . S
H1797 C1817 0.950 . S
H1798 C1819 0.950 . S
H1799 C1822 0.950 . S
H1800 C1823 0.950 . S
H1801 C1825 0.950 . S
H1802 C1826 0.950 . S
H1803 C1827 0.951 . S
H1804 C1829 0.951 . S
H1805 C1831 0.950 . S
H1806 C1832 0.950 . S
H1807 C1834 0.950 . S
H1808 C1837 0.950 . S
H1809 C1838 0.950 . S
H1810 C1840 0.950 . S
H1811 C1841 0.950 . S
C1812 H1794 0.951 . S
C1812 C1813 1.366 . S
C1812 C1814 1.388 . S
C1813 C1812 1.366 . S
C1813 C1817 1.385 . S
C1814 H1795 0.951 . S
C1814 C1812 1.388 . S
C1814 C1815 1.366 . S
C1815 C1814 1.366 . S
C1815 C1816 1.414 . S
C1815 C1818 1.499 . S
C1816 H1796 0.950 . S
C1816 C1815 1.414 . S
C1816 C1817 1.374 . S
C1817 H1797 0.950 . S
C1817 C1813 1.385 . S
C1817 C1816 1.374 . S
C1818 C1815 1.499 . S
C1818 C1819 1.373 . S
C1818 C1820 1.389 . S
C1819 H1798 0.950 . S
C1819 C1818 1.373 . S
C1819 C1835 1.377 . S
C1820 C1818 1.389 . S
C1820 C1821 1.524 . S
C1820 C1834 1.377 . S
C1821 C1820 1.524 . S
C1821 C1822 1.397 . S
C1821 C1826 1.363 . S
C1822 H1799 0.950 . S
C1822 C1821 1.397 . S
C1822 C1823 1.334 . S
C1823 H1800 0.950 . S
C1823 C1822 1.334 . S
C1823 C1824 1.287 . S
C1824 C1823 1.287 . S
C1824 C1825 1.524 . S
C1824 H1843 0.913 . S
C1825 H1801 0.950 . S
C1825 C1824 1.524 . S
C1825 C1826 1.415 . S
C1826 H1802 0.950 . S
C1826 C1821 1.363 . S
C1826 C1825 1.415 . S
C1827 H1803 0.951 . S
C1827 C1828 1.366 . S
C1827 C1829 1.388 . S
C1828 C1827 1.366 . S
C1828 C1832 1.385 . S
C1829 H1804 0.951 . S
C1829 C1827 1.388 . S
C1829 C1830 1.366 . S
C1830 C1829 1.366 . S
C1830 C1831 1.414 . S
C1830 C1833 1.499 . S
C1831 H1805 0.950 . S
C1831 C1830 1.414 . S
C1831 C1832 1.374 . S
C1832 H1806 0.950 . S
C1832 C1828 1.385 . S
C1832 C1831 1.374 . S
C1833 C1830 1.499 . S
C1833 C1834 1.373 . S
C1833 C1835 1.389 . S
C1834 H1807 0.950 . S
C1834 C1820 1.377 . S
C1834 C1833 1.373 . S
C1835 C1819 1.377 . S
C1835 C1833 1.389 . S
C1835 C1836 1.524 . S
C1836 C1835 1.524 . S
C1836 C1837 1.397 . S
C1836 C1841 1.363 . S
C1837 H1808 0.950 . S
C1837 C1836 1.397 . S
C1837 C1838 1.334 . S
C1838 H1809 0.950 . S
C1838 C1837 1.334 . S
C1838 C1839 1.287 . S
C1839 C1838 1.287 . S
C1839 C1840 1.524 . S
C1839 H1842 0.999 . S
C1840 H1810 0.950 . S
C1840 C1839 1.524 . S
C1840 C1841 1.415 . S
C1841 H1811 0.950 . S
C1841 C1836 1.363 . S
C1841 C1840 1.415 . S
H1842 C1839 0.999 . S
H1843 C1824 0.913 . S
H1844 C1862 0.951 . S
H1845 C1864 0.951 . S
H1846 C1866 0.950 . S
H1847 C1867 0.950 . S
H1848 C1869 0.950 . S
H1849 C1872 0.950 . S
H1850 C1873 0.950 . S
H1851 C1875 0.950 . S
H1852 C1876 0.950 . S
H1853 C1877 0.951 . S
H1854 C1879 0.951 . S
H1855 C1881 0.950 . S
H1856 C1882 0.950 1_455 S
H1857 C1884 0.950 . S
H1858 C1887 0.950 . S
H1859 C1888 0.950 . S
H1860 C1890 0.950 . S
H1861 C1891 0.950 . S
C1862 H1844 0.951 . S
C1862 C1863 1.366 . S
C1862 C1864 1.388 . S
C1863 C1862 1.366 . S
C1863 C1867 1.385 . S
C1864 H1845 0.951 . S
C1864 C1862 1.388 . S
C1864 C1865 1.366 . S
C1865 C1864 1.366 . S
C1865 C1866 1.414 . S
C1865 C1868 1.499 . S
C1866 H1846 0.950 . S
C1866 C1865 1.414 . S
C1866 C1867 1.374 . S
C1867 H1847 0.950 . S
C1867 C1863 1.385 . S
C1867 C1866 1.374 . S
C1868 C1865 1.499 . S
C1868 C1869 1.373 . S
C1868 C1870 1.389 . S
C1869 H1848 0.950 . S
C1869 C1868 1.373 . S
C1869 C1885 1.377 . S
C1870 C1868 1.389 . S
C1870 C1871 1.524 . S
C1870 C1884 1.377 . S
C1871 C1870 1.524 . S
C1871 C1872 1.397 . S
C1871 C1876 1.363 . S
C1872 H1849 0.950 . S
C1872 C1871 1.397 . S
C1872 C1873 1.334 . S
C1873 H1850 0.950 . S
C1873 C1872 1.334 . S
C1873 C1874 1.287 . S
C1874 C1873 1.287 . S
C1874 C1875 1.524 . S
C1874 H1893 0.913 . S
C1875 H1851 0.950 . S
C1875 C1874 1.524 . S
C1875 C1876 1.415 . S
C1876 H1852 0.950 . S
C1876 C1871 1.363 . S
C1876 C1875 1.415 . S
C1877 H1853 0.951 . S
C1877 C1878 1.366 . S
C1877 C1879 1.388 . S
C1878 C1877 1.366 . S
C1878 C1882 1.385 . S
C1879 H1854 0.951 . S
C1879 C1877 1.388 . S
C1879 C1880 1.366 . S
C1880 C1879 1.366 . S
C1880 C1881 1.414 . S
C1880 C1883 1.499 . S
C1881 H1855 0.950 . S
C1881 C1880 1.414 . S
C1881 C1882 1.374 . S
C1882 H1856 0.950 1_655 S
C1882 C1878 1.385 . S
C1882 C1881 1.374 . S
C1883 C1880 1.499 . S
C1883 C1884 1.373 . S
C1883 C1885 1.389 . S
C1884 H1857 0.950 . S
C1884 C1870 1.377 . S
C1884 C1883 1.373 . S
C1885 C1869 1.377 . S
C1885 C1883 1.389 . S
C1885 C1886 1.524 . S
C1886 C1885 1.524 . S
C1886 C1887 1.397 . S
C1886 C1891 1.363 . S
C1887 H1858 0.950 . S
C1887 C1886 1.397 . S
C1887 C1888 1.334 . S
C1888 H1859 0.950 . S
C1888 C1887 1.334 . S
C1888 C1889 1.287 . S
C1889 C1888 1.287 . S
C1889 C1890 1.524 . S
C1889 H1892 0.999 . S
C1890 H1860 0.950 . S
C1890 C1889 1.524 . S
C1890 C1891 1.415 . S
C1891 H1861 0.950 . S
C1891 C1886 1.363 . S
C1891 C1890 1.415 . S
H1892 C1889 0.999 . S
H1893 C1874 0.913 . S
H1894 C1912 0.951 . S
H1895 C1914 0.951 . S
H1896 C1916 0.950 . S
H1897 C1917 0.950 . S
H1898 C1919 0.950 . S
H1899 C1922 0.950 . S
H1900 C1923 0.950 . S
H1901 C1925 0.950 . S
H1902 C1926 0.950 . S
H1903 C1927 0.951 . S
H1904 C1929 0.951 . S
H1905 C1931 0.950 . S
H1906 C1932 0.950 . S
H1907 C1934 0.950 . S
H1908 C1937 0.950 . S
H1909 C1938 0.950 . S
H1910 C1940 0.950 . S
H1911 C1941 0.950 . S
C1912 H1894 0.951 . S
C1912 C1913 1.366 . S
C1912 C1914 1.388 . S
C1913 C1912 1.366 . S
C1913 C1917 1.385 . S
C1914 H1895 0.951 . S
C1914 C1912 1.388 . S
C1914 C1915 1.366 . S
C1915 C1914 1.366 . S
C1915 C1916 1.414 . S
C1915 C1918 1.499 . S
C1916 H1896 0.950 . S
C1916 C1915 1.414 . S
C1916 C1917 1.374 . S
C1917 H1897 0.950 . S
C1917 C1913 1.385 . S
C1917 C1916 1.374 . S
C1918 C1915 1.499 . S
C1918 C1919 1.373 . S
C1918 C1920 1.389 . S
C1919 H1898 0.950 . S
C1919 C1918 1.373 . S
C1919 C1935 1.377 . S
C1920 C1918 1.389 . S
C1920 C1921 1.524 . S
C1920 C1934 1.377 . S
C1921 C1920 1.524 . S
C1921 C1922 1.397 . S
C1921 C1926 1.363 . S
C1922 H1899 0.950 . S
C1922 C1921 1.397 . S
C1922 C1923 1.334 . S
C1923 H1900 0.950 . S
C1923 C1922 1.334 . S
C1923 C1924 1.287 . S
C1924 C1923 1.287 . S
C1924 C1925 1.524 . S
C1924 H1943 0.913 . S
C1925 H1901 0.950 . S
C1925 C1924 1.524 . S
C1925 C1926 1.415 . S
C1926 H1902 0.950 . S
C1926 C1921 1.363 . S
C1926 C1925 1.415 . S
C1927 H1903 0.951 . S
C1927 C1928 1.366 . S
C1927 C1929 1.388 . S
C1928 C1927 1.366 . S
C1928 C1932 1.385 . S
C1929 H1904 0.951 . S
C1929 C1927 1.388 . S
C1929 C1930 1.366 . S
C1930 C1929 1.366 . S
C1930 C1931 1.414 . S
C1930 C1933 1.499 . S
C1931 H1905 0.950 . S
C1931 C1930 1.414 . S
C1931 C1932 1.374 . S
C1932 H1906 0.950 . S
C1932 C1928 1.385 . S
C1932 C1931 1.374 . S
C1933 C1930 1.499 . S
C1933 C1934 1.373 . S
C1933 C1935 1.389 . S
C1934 H1907 0.950 . S
C1934 C1920 1.377 . S
C1934 C1933 1.373 . S
C1935 C1919 1.377 . S
C1935 C1933 1.389 . S
C1935 C1936 1.524 . S
C1936 C1935 1.524 . S
C1936 C1937 1.397 . S
C1936 C1941 1.363 . S
C1937 H1908 0.950 . S
C1937 C1936 1.397 . S
C1937 C1938 1.334 . S
C1938 H1909 0.950 . S
C1938 C1937 1.334 . S
C1938 C1939 1.287 . S
C1939 C1938 1.287 . S
C1939 C1940 1.524 . S
C1939 H1942 0.999 . S
C1940 H1910 0.950 . S
C1940 C1939 1.524 . S
C1940 C1941 1.415 . S
C1941 H1911 0.950 . S
C1941 C1936 1.363 . S
C1941 C1940 1.415 . S
H1942 C1939 0.999 . S
H1943 C1924 0.913 . S
H1944 C1962 0.951 . S
H1945 C1964 0.951 . S
H1946 C1966 0.950 . S
H1947 C1967 0.950 . S
H1948 C1969 0.950 . S
H1949 C1972 0.950 . S
H1950 C1973 0.950 . S
H1951 C1975 0.950 . S
H1952 C1976 0.950 . S
H1953 C1977 0.951 . S
H1954 C1979 0.951 . S
H1955 C1981 0.950 . S
H1956 C1982 0.950 . S
H1957 C1984 0.950 . S
H1958 C1987 0.950 . S
H1959 C1988 0.950 . S
H1960 C1990 0.950 . S
H1961 C1991 0.950 . S
C1962 H1944 0.951 . S
C1962 C1963 1.366 . S
C1962 C1964 1.388 . S
C1963 C1962 1.366 . S
C1963 C1967 1.385 . S
C1964 H1945 0.951 . S
C1964 C1962 1.388 . S
C1964 C1965 1.366 . S
C1965 C1964 1.366 . S
C1965 C1966 1.414 . S
C1965 C1968 1.499 . S
C1966 H1946 0.950 . S
C1966 C1965 1.414 . S
C1966 C1967 1.374 . S
C1967 H1947 0.950 . S
C1967 C1963 1.385 . S
C1967 C1966 1.374 . S
C1968 C1965 1.499 . S
C1968 C1969 1.373 . S
C1968 C1970 1.389 . S
C1969 H1948 0.950 . S
C1969 C1968 1.373 . S
C1969 C1985 1.377 . S
C1970 C1968 1.389 . S
C1970 C1971 1.524 . S
C1970 C1984 1.377 . S
C1971 C1970 1.524 . S
C1971 C1972 1.397 . S
C1971 C1976 1.363 . S
C1972 H1949 0.950 . S
C1972 C1971 1.397 . S
C1972 C1973 1.334 . S
C1973 H1950 0.950 . S
C1973 C1972 1.334 . S
C1973 C1974 1.287 . S
C1974 C1973 1.287 . S
C1974 C1975 1.524 . S
C1974 H1993 0.913 . S
C1975 H1951 0.950 . S
C1975 C1974 1.524 . S
C1975 C1976 1.415 . S
C1976 H1952 0.950 . S
C1976 C1971 1.363 . S
C1976 C1975 1.415 . S
C1977 H1953 0.951 . S
C1977 C1978 1.366 . S
C1977 C1979 1.388 . S
C1978 C1977 1.366 . S
C1978 C1982 1.385 . S
C1979 H1954 0.951 . S
C1979 C1977 1.388 . S
C1979 C1980 1.366 . S
C1980 C1979 1.366 . S
C1980 C1981 1.414 . S
C1980 C1983 1.499 . S
C1981 H1955 0.950 . S
C1981 C1980 1.414 . S
C1981 C1982 1.374 . S
C1982 H1956 0.950 . S
C1982 C1978 1.385 . S
C1982 C1981 1.374 . S
C1983 C1980 1.499 . S
C1983 C1984 1.373 . S
C1983 C1985 1.389 . S
C1984 H1957 0.950 . S
C1984 C1970 1.377 . S
C1984 C1983 1.373 . S
C1985 C1969 1.377 . S
C1985 C1983 1.389 . S
C1985 C1986 1.524 . S
C1986 C1985 1.524 . S
C1986 C1987 1.397 . S
C1986 C1991 1.363 . S
C1987 H1958 0.950 . S
C1987 C1986 1.397 . S
C1987 C1988 1.334 . S
C1988 H1959 0.950 . S
C1988 C1987 1.334 . S
C1988 C1989 1.287 . S
C1989 C1988 1.287 . S
C1989 C1990 1.524 . S
C1989 H1992 0.999 . S
C1990 H1960 0.950 . S
C1990 C1989 1.524 . S
C1990 C1991 1.415 . S
C1991 H1961 0.950 . S
C1991 C1986 1.363 . S
C1991 C1990 1.415 . S
H1992 C1989 0.999 . S
H1993 C1974 0.913 . S
H1994 C2012 0.951 . S
H1995 C2014 0.951 . S
H1996 C2016 0.950 . S
H1997 C2017 0.950 . S
H1998 C2019 0.950 . S
H1999 C2022 0.950 . S
H2000 C2023 0.950 . S
H2001 C2025 0.950 . S
H2002 C2026 0.950 . S
H2003 C2027 0.951 . S
H2004 C2029 0.951 . S
H2005 C2031 0.950 . S
H2006 C2032 0.950 . S
H2007 C2034 0.950 . S
H2008 C2037 0.950 . S
H2009 C2038 0.950 . S
H2010 C2040 0.950 . S
H2011 C2041 0.950 . S
C2012 H1994 0.951 . S
C2012 C2013 1.366 . S
C2012 C2014 1.388 . S
C2013 C2012 1.366 . S
C2013 C2017 1.385 . S
C2014 H1995 0.951 . S
C2014 C2012 1.388 . S
C2014 C2015 1.366 . S
C2015 C2014 1.366 . S
C2015 C2016 1.414 . S
C2015 C2018 1.499 . S
C2016 H1996 0.950 . S
C2016 C2015 1.414 . S
C2016 C2017 1.374 . S
C2017 H1997 0.950 . S
C2017 C2013 1.385 . S
C2017 C2016 1.374 . S
C2018 C2015 1.499 . S
C2018 C2019 1.373 . S
C2018 C2020 1.389 . S
C2019 H1998 0.950 . S
C2019 C2018 1.373 . S
C2019 C2035 1.377 . S
C2020 C2018 1.389 . S
C2020 C2021 1.524 . S
C2020 C2034 1.377 . S
C2021 C2020 1.524 . S
C2021 C2022 1.397 . S
C2021 C2026 1.363 . S
C2022 H1999 0.950 . S
C2022 C2021 1.397 . S
C2022 C2023 1.334 . S
C2023 H2000 0.950 . S
C2023 C2022 1.334 . S
C2023 C2024 1.287 . S
C2024 C2023 1.287 . S
C2024 C2025 1.524 . S
C2024 H2043 0.913 . S
C2025 H2001 0.950 . S
C2025 C2024 1.524 . S
C2025 C2026 1.415 . S
C2026 H2002 0.950 . S
C2026 C2021 1.363 . S
C2026 C2025 1.415 . S
C2027 H2003 0.951 . S
C2027 C2028 1.366 . S
C2027 C2029 1.388 . S
C2028 C2027 1.366 . S
C2028 C2032 1.385 . S
C2029 H2004 0.951 . S
C2029 C2027 1.388 . S
C2029 C2030 1.366 . S
C2030 C2029 1.366 . S
C2030 C2031 1.414 . S
C2030 C2033 1.499 . S
C2031 H2005 0.950 . S
C2031 C2030 1.414 . S
C2031 C2032 1.374 . S
C2032 H2006 0.950 . S
C2032 C2028 1.385 . S
C2032 C2031 1.374 . S
C2033 C2030 1.499 . S
C2033 C2034 1.373 . S
C2033 C2035 1.389 . S
C2034 H2007 0.950 . S
C2034 C2020 1.377 . S
C2034 C2033 1.373 . S
C2035 C2019 1.377 . S
C2035 C2033 1.389 . S
C2035 C2036 1.524 . S
C2036 C2035 1.524 . S
C2036 C2037 1.397 . S
C2036 C2041 1.363 . S
C2037 H2008 0.950 . S
C2037 C2036 1.397 . S
C2037 C2038 1.334 . S
C2038 H2009 0.950 . S
C2038 C2037 1.334 . S
C2038 C2039 1.287 . S
C2039 C2038 1.287 . S
C2039 C2040 1.524 . S
C2039 H2042 0.999 . S
C2040 H2010 0.950 . S
C2040 C2039 1.524 . S
C2040 C2041 1.415 . S
C2041 H2011 0.950 . S
C2041 C2036 1.363 . S
C2041 C2040 1.415 . S
H2042 C2039 0.999 . S
H2043 C2024 0.913 . S
H2044 C2062 0.951 . S
H2045 C2064 0.951 . S
H2046 C2066 0.950 . S
H2047 C2067 0.950 . S
H2048 C2069 0.950 . S
H2049 C2072 0.950 . S
H2050 C2073 0.950 . S
H2051 C2075 0.950 . S
H2052 C2076 0.950 . S
H2053 C2077 0.951 . S
H2054 C2079 0.951 . S
H2055 C2081 0.950 . S
H2056 C2082 0.950 . S
H2057 C2084 0.950 . S
H2058 C2087 0.950 . S
H2059 C2088 0.950 . S
H2060 C2090 0.950 . S
H2061 C2091 0.950 . S
C2062 H2044 0.951 . S
C2062 C2063 1.366 . S
C2062 C2064 1.388 . S
C2063 C2062 1.366 . S
C2063 C2067 1.385 . S
C2064 H2045 0.951 . S
C2064 C2062 1.388 . S
C2064 C2065 1.366 . S
C2065 C2064 1.366 . S
C2065 C2066 1.414 . S
C2065 C2068 1.499 . S
C2066 H2046 0.950 . S
C2066 C2065 1.414 . S
C2066 C2067 1.374 . S
C2067 H2047 0.950 . S
C2067 C2063 1.385 . S
C2067 C2066 1.374 . S
C2068 C2065 1.499 . S
C2068 C2069 1.373 . S
C2068 C2070 1.389 . S
C2069 H2048 0.950 . S
C2069 C2068 1.373 . S
C2069 C2085 1.377 . S
C2070 C2068 1.389 . S
C2070 C2071 1.524 . S
C2070 C2084 1.377 . S
C2071 C2070 1.524 . S
C2071 C2072 1.397 . S
C2071 C2076 1.363 . S
C2072 H2049 0.950 . S
C2072 C2071 1.397 . S
C2072 C2073 1.334 . S
C2073 H2050 0.950 . S
C2073 C2072 1.334 . S
C2073 C2074 1.287 . S
C2074 C2073 1.287 . S
C2074 C2075 1.524 . S
C2074 H2093 0.913 . S
C2075 H2051 0.950 . S
C2075 C2074 1.524 . S
C2075 C2076 1.415 . S
C2076 H2052 0.950 . S
C2076 C2071 1.363 . S
C2076 C2075 1.415 . S
C2077 H2053 0.951 . S
C2077 C2078 1.366 . S
C2077 C2079 1.388 . S
C2078 C2077 1.366 . S
C2078 C2082 1.385 . S
C2079 H2054 0.951 . S
C2079 C2077 1.388 . S
C2079 C2080 1.366 . S
C2080 C2079 1.366 . S
C2080 C2081 1.414 . S
C2080 C2083 1.499 . S
C2081 H2055 0.950 . S
C2081 C2080 1.414 . S
C2081 C2082 1.374 . S
C2082 H2056 0.950 . S
C2082 C2078 1.385 . S
C2082 C2081 1.374 . S
C2083 C2080 1.499 . S
C2083 C2084 1.373 . S
C2083 C2085 1.389 . S
C2084 H2057 0.950 . S
C2084 C2070 1.377 . S
C2084 C2083 1.373 . S
C2085 C2069 1.377 . S
C2085 C2083 1.389 . S
C2085 C2086 1.524 . S
C2086 C2085 1.524 . S
C2086 C2087 1.397 . S
C2086 C2091 1.363 . S
C2087 H2058 0.950 . S
C2087 C2086 1.397 . S
C2087 C2088 1.334 . S
C2088 H2059 0.950 . S
C2088 C2087 1.334 . S
C2088 C2089 1.287 . S
C2089 C2088 1.287 . S
C2089 C2090 1.524 . S
C2089 H2092 0.999 . S
C2090 H2060 0.950 . S
C2090 C2089 1.524 . S
C2090 C2091 1.415 . S
C2091 H2061 0.950 . S
C2091 C2086 1.363 . S
C2091 C2090 1.415 . S
H2092 C2089 0.999 . S
H2093 C2074 0.913 . S
H2094 C2112 0.951 . S
H2095 C2114 0.951 . S
H2096 C2116 0.950 . S
H2097 C2117 0.950 . S
H2098 C2119 0.950 . S
H2099 C2122 0.950 . S
H2100 C2123 0.950 . S
H2101 C2125 0.950 . S
H2102 C2126 0.950 . S
H2103 C2127 0.951 . S
H2104 C2129 0.951 . S
H2105 C2131 0.950 . S
H2106 C2132 0.950 . S
H2107 C2134 0.950 . S
H2108 C2137 0.950 . S
H2109 C2138 0.950 . S
H2110 C2140 0.950 . S
H2111 C2141 0.950 . S
C2112 H2094 0.951 . S
C2112 C2113 1.366 . S
C2112 C2114 1.388 . S
C2113 C2112 1.366 . S
C2113 C2117 1.385 . S
C2114 H2095 0.951 . S
C2114 C2112 1.388 . S
C2114 C2115 1.366 . S
C2115 C2114 1.366 . S
C2115 C2116 1.414 . S
C2115 C2118 1.499 . S
C2116 H2096 0.950 . S
C2116 C2115 1.414 . S
C2116 C2117 1.374 . S
C2117 H2097 0.950 . S
C2117 C2113 1.385 . S
C2117 C2116 1.374 . S
C2118 C2115 1.499 . S
C2118 C2119 1.373 . S
C2118 C2120 1.389 . S
C2119 H2098 0.950 . S
C2119 C2118 1.373 . S
C2119 C2135 1.377 . S
C2120 C2118 1.389 . S
C2120 C2121 1.524 . S
C2120 C2134 1.377 . S
C2121 C2120 1.524 . S
C2121 C2122 1.397 . S
C2121 C2126 1.363 . S
C2122 H2099 0.950 . S
C2122 C2121 1.397 . S
C2122 C2123 1.334 . S
C2123 H2100 0.950 . S
C2123 C2122 1.334 . S
C2123 C2124 1.287 . S
C2124 C2123 1.287 . S
C2124 C2125 1.524 . S
C2124 H2143 0.913 . S
C2125 H2101 0.950 . S
C2125 C2124 1.524 . S
C2125 C2126 1.415 . S
C2126 H2102 0.950 . S
C2126 C2121 1.363 . S
C2126 C2125 1.415 . S
C2127 H2103 0.951 . S
C2127 C2128 1.366 . S
C2127 C2129 1.388 . S
C2128 C2127 1.366 . S
C2128 C2132 1.385 . S
C2129 H2104 0.951 . S
C2129 C2127 1.388 . S
C2129 C2130 1.366 . S
C2130 C2129 1.366 . S
C2130 C2131 1.414 . S
C2130 C2133 1.499 . S
C2131 H2105 0.950 . S
C2131 C2130 1.414 . S
C2131 C2132 1.374 . S
C2132 H2106 0.950 . S
C2132 C2128 1.385 . S
C2132 C2131 1.374 . S
C2133 C2130 1.499 . S
C2133 C2134 1.373 . S
C2133 C2135 1.389 . S
C2134 H2107 0.950 . S
C2134 C2120 1.377 . S
C2134 C2133 1.373 . S
C2135 C2119 1.377 . S
C2135 C2133 1.389 . S
C2135 C2136 1.524 . S
C2136 C2135 1.524 . S
C2136 C2137 1.397 . S
C2136 C2141 1.363 . S
C2137 H2108 0.950 . S
C2137 C2136 1.397 . S
C2137 C2138 1.334 . S
C2138 H2109 0.950 . S
C2138 C2137 1.334 . S
C2138 C2139 1.287 . S
C2139 C2138 1.287 . S
C2139 C2140 1.524 . S
C2139 H2142 0.999 . S
C2140 H2110 0.950 . S
C2140 C2139 1.524 . S
C2140 C2141 1.415 . S
C2141 H2111 0.950 . S
C2141 C2136 1.363 . S
C2141 C2140 1.415 . S
H2142 C2139 0.999 . S
H2143 C2124 0.913 . S
H2144 C2162 0.951 . S
H2145 C2164 0.951 . S
H2146 C2166 0.950 . S
H2147 C2167 0.950 . S
H2148 C2169 0.950 . S
H2149 C2172 0.950 . S
H2150 C2173 0.950 . S
H2151 C2175 0.950 1_455 S
H2152 C2176 0.950 . S
H2153 C2177 0.951 . S
H2154 C2179 0.951 . S
H2155 C2181 0.950 . S
H2156 C2182 0.950 . S
H2157 C2184 0.950 . S
H2158 C2187 0.950 . S
H2159 C2188 0.950 . S
H2160 C2190 0.950 . S
H2161 C2191 0.950 . S
C2162 H2144 0.951 . S
C2162 C2163 1.378 . S
C2162 C2164 1.388 1_455 S
C2163 C2162 1.378 . S
C2163 C2167 1.347 1_455 S
C2164 H2145 0.951 . S
C2164 C2162 1.388 1_655 S
C2164 C2165 1.366 . S
C2165 C2164 1.366 . S
C2165 C2166 1.414 . S
C2165 C2168 1.499 . S
C2166 H2146 0.950 . S
C2166 C2165 1.414 . S
C2166 C2167 1.374 . S
C2167 H2147 0.950 . S
C2167 C2163 1.347 1_655 S
C2167 C2166 1.374 . S
C2168 C2165 1.499 . S
C2168 C2169 1.373 . S
C2168 C2170 1.389 . S
C2169 H2148 0.950 . S
C2169 C2168 1.373 . S
C2169 C2185 1.377 . S
C2170 C2168 1.389 . S
C2170 C2171 1.524 . S
C2170 C2184 1.377 . S
C2171 C2170 1.524 . S
C2171 C2172 1.397 . S
C2171 C2176 1.363 . S
C2172 H2149 0.950 . S
C2172 C2171 1.397 . S
C2172 C2173 1.334 . S
C2173 H2150 0.950 . S
C2173 C2172 1.334 . S
C2173 C2174 1.287 . S
C2174 C2173 1.287 . S
C2174 C2175 1.524 . S
C2174 H2193 0.913 1_655 S
C2175 H2151 0.950 1_655 S
C2175 C2174 1.524 . S
C2175 C2176 1.415 . S
C2176 H2152 0.950 . S
C2176 C2171 1.363 . S
C2176 C2175 1.415 . S
C2177 H2153 0.951 . S
C2177 C2178 1.366 . S
C2177 C2179 1.388 . S
C2178 C2177 1.366 . S
C2178 C2182 1.385 . S
C2179 H2154 0.951 . S
C2179 C2177 1.388 . S
C2179 C2180 1.366 . S
C2180 C2179 1.366 . S
C2180 C2181 1.414 . S
C2180 C2183 1.499 . S
C2181 H2155 0.950 . S
C2181 C2180 1.414 . S
C2181 C2182 1.374 . S
C2182 H2156 0.950 . S
C2182 C2178 1.385 . S
C2182 C2181 1.374 . S
C2183 C2180 1.499 . S
C2183 C2184 1.373 . S
C2183 C2185 1.389 . S
C2184 H2157 0.950 . S
C2184 C2170 1.377 . S
C2184 C2183 1.373 . S
C2185 C2169 1.377 . S
C2185 C2183 1.389 . S
C2185 C2186 1.524 . S
C2186 C2185 1.524 . S
C2186 C2187 1.397 . S
C2186 C2191 1.363 . S
C2187 H2158 0.950 . S
C2187 C2186 1.397 . S
C2187 C2188 1.334 . S
C2188 H2159 0.950 . S
C2188 C2187 1.334 . S
C2188 C2189 1.287 . S
C2189 C2188 1.287 . S
C2189 C2190 1.524 . S
C2189 H2192 0.999 . S
C2190 H2160 0.950 . S
C2190 C2189 1.524 . S
C2190 C2191 1.415 . S
C2191 H2161 0.950 . S
C2191 C2186 1.363 . S
C2191 C2190 1.415 . S
H2192 C2189 0.999 . S
H2193 C2174 0.913 1_455 S
H2194 C2212 0.951 1_545 S
H2195 C2214 0.951 . S
H2196 C2216 0.950 . S
H2197 C2217 0.950 . S
H2198 C2219 0.950 . S
H2199 C2222 0.950 . S
H2200 C2223 0.950 . S
H2201 C2225 0.950 . S
H2202 C2226 0.950 . S
H2203 C2227 0.951 . S
H2204 C2229 0.951 . S
H2205 C2231 0.950 . S
H2206 C2232 0.950 . S
H2207 C2234 0.950 . S
H2208 C2237 0.950 . S
H2209 C2238 0.950 . S
H2210 C2240 0.950 . S
H2211 C2241 0.950 . S
C2212 H2194 0.951 1_565 S
C2212 C2213 1.356 1_565 S
C2212 C2214 1.388 . S
C2213 C2212 1.356 1_545 S
C2213 C2217 1.368 1_545 S
C2214 H2195 0.951 . S
C2214 C2212 1.388 . S
C2214 C2215 1.366 . S
C2215 C2214 1.366 . S
C2215 C2216 1.414 . S
C2215 C2218 1.499 . S
C2216 H2196 0.950 . S
C2216 C2215 1.414 . S
C2216 C2217 1.374 . S
C2217 H2197 0.950 . S
C2217 C2213 1.368 1_565 S
C2217 C2216 1.374 . S
C2218 C2215 1.499 . S
C2218 C2219 1.373 . S
C2218 C2220 1.389 . S
C2219 H2198 0.950 . S
C2219 C2218 1.373 . S
C2219 C2235 1.377 . S
C2220 C2218 1.389 . S
C2220 C2221 1.524 . S
C2220 C2234 1.377 . S
C2221 C2220 1.524 . S
C2221 C2222 1.397 . S
C2221 C2226 1.363 . S
C2222 H2199 0.950 . S
C2222 C2221 1.397 . S
C2222 C2223 1.334 . S
C2223 H2200 0.950 . S
C2223 C2222 1.334 . S
C2223 C2224 1.287 . S
C2224 C2223 1.287 . S
C2224 C2225 1.524 . S
C2224 H2243 0.913 . S
C2225 H2201 0.950 . S
C2225 C2224 1.524 . S
C2225 C2226 1.415 . S
C2226 H2202 0.950 . S
C2226 C2221 1.363 . S
C2226 C2225 1.415 . S
C2227 H2203 0.951 . S
C2227 C2228 1.366 . S
C2227 C2229 1.388 . S
C2228 C2227 1.366 . S
C2228 C2232 1.385 . S
C2229 H2204 0.951 . S
C2229 C2227 1.388 . S
C2229 C2230 1.366 . S
C2230 C2229 1.366 . S
C2230 C2231 1.414 . S
C2230 C2233 1.499 . S
C2231 H2205 0.950 . S
C2231 C2230 1.414 . S
C2231 C2232 1.374 . S
C2232 H2206 0.950 . S
C2232 C2228 1.385 . S
C2232 C2231 1.374 . S
C2233 C2230 1.499 . S
C2233 C2234 1.373 . S
C2233 C2235 1.389 . S
C2234 H2207 0.950 . S
C2234 C2220 1.377 . S
C2234 C2233 1.373 . S
C2235 C2219 1.377 . S
C2235 C2233 1.389 . S
C2235 C2236 1.524 . S
C2236 C2235 1.524 . S
C2236 C2237 1.397 . S
C2236 C2241 1.363 . S
C2237 H2208 0.950 . S
C2237 C2236 1.397 . S
C2237 C2238 1.334 . S
C2238 H2209 0.950 . S
C2238 C2237 1.334 . S
C2238 C2239 1.287 . S
C2239 C2238 1.287 . S
C2239 C2240 1.524 . S
C2239 H2242 0.999 . S
C2240 H2210 0.950 . S
C2240 C2239 1.524 . S
C2240 C2241 1.415 . S
C2241 H2211 0.950 . S
C2241 C2236 1.363 . S
C2241 C2240 1.415 . S
H2242 C2239 0.999 . S
H2243 C2224 0.913 . S
H2244 C2262 0.951 . S
H2245 C2264 0.951 . S
H2246 C2266 0.950 . S
H2247 C2267 0.950 . S
H2248 C2269 0.950 . S
H2249 C2272 0.950 . S
H2250 C2273 0.950 . S
H2251 C2275 0.950 . S
H2252 C2276 0.950 . S
H2253 C2277 0.951 . S
H2254 C2279 0.951 . S
H2255 C2281 0.950 . S
H2256 C2282 0.950 . S
H2257 C2284 0.950 . S
H2258 C2287 0.950 . S
H2259 C2288 0.950 . S
H2260 C2290 0.950 . S
H2261 C2291 0.950 . S
C2262 H2244 0.951 . S
C2262 C2263 1.366 . S
C2262 C2264 1.388 . S
C2263 C2262 1.366 . S
C2263 C2267 1.385 . S
C2264 H2245 0.951 . S
C2264 C2262 1.388 . S
C2264 C2265 1.366 . S
C2265 C2264 1.366 . S
C2265 C2266 1.414 . S
C2265 C2268 1.499 . S
C2266 H2246 0.950 . S
C2266 C2265 1.414 . S
C2266 C2267 1.374 . S
C2267 H2247 0.950 . S
C2267 C2263 1.385 . S
C2267 C2266 1.374 . S
C2268 C2265 1.499 . S
C2268 C2269 1.373 . S
C2268 C2270 1.389 . S
C2269 H2248 0.950 . S
C2269 C2268 1.373 . S
C2269 C2285 1.377 . S
C2270 C2268 1.389 . S
C2270 C2271 1.524 . S
C2270 C2284 1.377 . S
C2271 C2270 1.524 . S
C2271 C2272 1.397 . S
C2271 C2276 1.363 . S
C2272 H2249 0.950 . S
C2272 C2271 1.397 . S
C2272 C2273 1.334 . S
C2273 H2250 0.950 . S
C2273 C2272 1.334 . S
C2273 C2274 1.287 . S
C2274 C2273 1.287 . S
C2274 C2275 1.524 . S
C2274 H2293 0.913 . S
C2275 H2251 0.950 . S
C2275 C2274 1.524 . S
C2275 C2276 1.415 . S
C2276 H2252 0.950 . S
C2276 C2271 1.363 . S
C2276 C2275 1.415 . S
C2277 H2253 0.951 . S
C2277 C2278 1.366 . S
C2277 C2279 1.388 . S
C2278 C2277 1.366 . S
C2278 C2282 1.385 . S
C2279 H2254 0.951 . S
C2279 C2277 1.388 . S
C2279 C2280 1.366 . S
C2280 C2279 1.366 . S
C2280 C2281 1.414 . S
C2280 C2283 1.499 . S
C2281 H2255 0.950 . S
C2281 C2280 1.414 . S
C2281 C2282 1.374 . S
C2282 H2256 0.950 . S
C2282 C2278 1.385 . S
C2282 C2281 1.374 . S
C2283 C2280 1.499 . S
C2283 C2284 1.373 . S
C2283 C2285 1.389 . S
C2284 H2257 0.950 . S
C2284 C2270 1.377 . S
C2284 C2283 1.373 . S
C2285 C2269 1.377 . S
C2285 C2283 1.389 . S
C2285 C2286 1.524 . S
C2286 C2285 1.524 . S
C2286 C2287 1.397 . S
C2286 C2291 1.363 . S
C2287 H2258 0.950 . S
C2287 C2286 1.397 . S
C2287 C2288 1.334 . S
C2288 H2259 0.950 . S
C2288 C2287 1.334 . S
C2288 C2289 1.287 . S
C2289 C2288 1.287 . S
C2289 C2290 1.524 . S
C2289 H2292 0.999 . S
C2290 H2260 0.950 . S
C2290 C2289 1.524 . S
C2290 C2291 1.415 . S
C2291 H2261 0.950 . S
C2291 C2286 1.363 . S
C2291 C2290 1.415 . S
H2292 C2289 0.999 . S
H2293 C2274 0.913 . S
H2294 C2312 0.951 . S
H2295 C2314 0.951 . S
H2296 C2316 0.950 . S
H2297 C2317 0.950 . S
H2298 C2319 0.950 . S
H2299 C2322 0.950 . S
H2300 C2323 0.950 . S
H2301 C2325 0.950 . S
H2302 C2326 0.950 . S
H2303 C2327 0.951 . S
H2304 C2329 0.951 . S
H2305 C2331 0.950 . S
H2306 C2332 0.950 . S
H2307 C2334 0.950 . S
H2308 C2337 0.950 . S
H2309 C2338 0.950 . S
H2310 C2340 0.950 . S
H2311 C2341 0.950 . S
C2312 H2294 0.951 . S
C2312 C2313 1.366 . S
C2312 C2314 1.388 . S
C2313 C2312 1.366 . S
C2313 C2317 1.385 . S
C2314 H2295 0.951 . S
C2314 C2312 1.388 . S
C2314 C2315 1.366 . S
C2315 C2314 1.366 . S
C2315 C2316 1.414 . S
C2315 C2318 1.499 . S
C2316 H2296 0.950 . S
C2316 C2315 1.414 . S
C2316 C2317 1.374 . S
C2317 H2297 0.950 . S
C2317 C2313 1.385 . S
C2317 C2316 1.374 . S
C2318 C2315 1.499 . S
C2318 C2319 1.373 . S
C2318 C2320 1.389 . S
C2319 H2298 0.950 . S
C2319 C2318 1.373 . S
C2319 C2335 1.377 . S
C2320 C2318 1.389 . S
C2320 C2321 1.524 . S
C2320 C2334 1.377 . S
C2321 C2320 1.524 . S
C2321 C2322 1.397 . S
C2321 C2326 1.363 . S
C2322 H2299 0.950 . S
C2322 C2321 1.397 . S
C2322 C2323 1.334 . S
C2323 H2300 0.950 . S
C2323 C2322 1.334 . S
C2323 C2324 1.287 . S
C2324 C2323 1.287 . S
C2324 C2325 1.524 . S
C2324 H2343 0.913 . S
C2325 H2301 0.950 . S
C2325 C2324 1.524 . S
C2325 C2326 1.415 . S
C2326 H2302 0.950 . S
C2326 C2321 1.363 . S
C2326 C2325 1.415 . S
C2327 H2303 0.951 . S
C2327 C2328 1.366 . S
C2327 C2329 1.388 . S
C2328 C2327 1.366 . S
C2328 C2332 1.385 . S
C2329 H2304 0.951 . S
C2329 C2327 1.388 . S
C2329 C2330 1.366 . S
C2330 C2329 1.366 . S
C2330 C2331 1.414 . S
C2330 C2333 1.499 . S
C2331 H2305 0.950 . S
C2331 C2330 1.414 . S
C2331 C2332 1.374 . S
C2332 H2306 0.950 . S
C2332 C2328 1.385 . S
C2332 C2331 1.374 . S
C2333 C2330 1.499 . S
C2333 C2334 1.373 . S
C2333 C2335 1.389 . S
C2334 H2307 0.950 . S
C2334 C2320 1.377 . S
C2334 C2333 1.373 . S
C2335 C2319 1.377 . S
C2335 C2333 1.389 . S
C2335 C2336 1.524 . S
C2336 C2335 1.524 . S
C2336 C2337 1.397 . S
C2336 C2341 1.363 . S
C2337 H2308 0.950 . S
C2337 C2336 1.397 . S
C2337 C2338 1.334 . S
C2338 H2309 0.950 . S
C2338 C2337 1.334 . S
C2338 C2339 1.287 . S
C2339 C2338 1.287 . S
C2339 C2340 1.524 . S
C2339 H2342 0.999 . S
C2340 H2310 0.950 . S
C2340 C2339 1.524 . S
C2340 C2341 1.415 . S
C2341 H2311 0.950 . S
C2341 C2336 1.363 . S
C2341 C2340 1.415 . S
H2342 C2339 0.999 . S
H2343 C2324 0.913 . S
H2344 C2362 0.951 . S
H2345 C2364 0.951 . S
H2346 C2366 0.950 . S
H2347 C2367 0.950 . S
H2348 C2369 0.950 . S
H2349 C2372 0.950 . S
H2350 C2373 0.950 . S
H2351 C2375 0.950 . S
H2352 C2376 0.950 . S
H2353 C2377 0.951 . S
H2354 C2379 0.951 . S
H2355 C2381 0.950 . S
H2356 C2382 0.950 . S
H2357 C2384 0.950 . S
H2358 C2387 0.950 . S
H2359 C2388 0.950 . S
H2360 C2390 0.950 . S
H2361 C2391 0.950 . S
C2362 H2344 0.951 . S
C2362 C2363 1.334 1_655 S
C2362 C2364 1.388 . S
C2363 C2362 1.334 1_455 S
C2363 C2367 1.391 . S
C2364 H2345 0.951 . S
C2364 C2362 1.388 . S
C2364 C2365 1.366 . S
C2365 C2364 1.366 . S
C2365 C2366 1.414 . S
C2365 C2368 1.499 . S
C2366 H2346 0.950 . S
C2366 C2365 1.414 . S
C2366 C2367 1.374 1_655 S
C2367 H2347 0.950 . S
C2367 C2363 1.391 . S
C2367 C2366 1.374 1_455 S
C2368 C2365 1.499 . S
C2368 C2369 1.373 . S
C2368 C2370 1.389 . S
C2369 H2348 0.950 . S
C2369 C2368 1.373 . S
C2369 C2385 1.377 . S
C2370 C2368 1.389 . S
C2370 C2371 1.524 . S
C2370 C2384 1.377 . S
C2371 C2370 1.524 . S
C2371 C2372 1.397 . S
C2371 C2376 1.363 . S
C2372 H2349 0.950 . S
C2372 C2371 1.397 . S
C2372 C2373 1.334 . S
C2373 H2350 0.950 . S
C2373 C2372 1.334 . S
C2373 C2374 1.287 . S
C2374 C2373 1.287 . S
C2374 C2375 1.524 . S
C2374 H2393 0.913 . S
C2375 H2351 0.950 . S
C2375 C2374 1.524 . S
C2375 C2376 1.415 . S
C2376 H2352 0.950 . S
C2376 C2371 1.363 . S
C2376 C2375 1.415 . S
C2377 H2353 0.951 . S
C2377 C2378 1.366 . S
C2377 C2379 1.388 . S
C2378 C2377 1.366 . S
C2378 C2382 1.385 . S
C2379 H2354 0.951 . S
C2379 C2377 1.388 . S
C2379 C2380 1.366 . S
C2380 C2379 1.366 . S
C2380 C2381 1.414 . S
C2380 C2383 1.499 . S
C2381 H2355 0.950 . S
C2381 C2380 1.414 . S
C2381 C2382 1.374 . S
C2382 H2356 0.950 . S
C2382 C2378 1.385 . S
C2382 C2381 1.374 . S
C2383 C2380 1.499 . S
C2383 C2384 1.373 . S
C2383 C2385 1.389 . S
C2384 H2357 0.950 . S
C2384 C2370 1.377 . S
C2384 C2383 1.373 . S
C2385 C2369 1.377 . S
C2385 C2383 1.389 . S
C2385 C2386 1.524 . S
C2386 C2385 1.524 . S
C2386 C2387 1.397 . S
C2386 C2391 1.363 . S
C2387 H2358 0.950 . S
C2387 C2386 1.397 . S
C2387 C2388 1.334 . S
C2388 H2359 0.950 . S
C2388 C2387 1.334 . S
C2388 C2389 1.287 . S
C2389 C2388 1.287 . S
C2389 C2390 1.524 . S
C2389 H2392 0.999 . S
C2390 H2360 0.950 . S
C2390 C2389 1.524 . S
C2390 C2391 1.415 . S
C2391 H2361 0.950 . S
C2391 C2386 1.363 . S
C2391 C2390 1.415 . S
H2392 C2389 0.999 . S
H2393 C2374 0.913 . S
H2394 C2412 0.951 . S
H2395 C2414 0.951 . S
H2396 C2416 0.950 . S
H2397 C2417 0.950 . S
H2398 C2419 0.950 . S
H2399 C2422 0.950 . S
H2400 C2423 0.950 . S
H2401 C2425 0.950 . S
H2402 C2426 0.950 . S
H2403 C2427 0.951 . S
H2404 C2429 0.951 . S
H2405 C2431 0.950 . S
H2406 C2432 0.950 . S
H2407 C2434 0.950 . S
H2408 C2437 0.950 . S
H2409 C2438 0.950 . S
H2410 C2440 0.950 . S
H2411 C2441 0.950 . S
C2412 H2394 0.951 . S
C2412 C2413 1.366 . S
C2412 C2414 1.388 . S
C2413 C2412 1.366 . S
C2413 C2417 1.385 . S
C2414 H2395 0.951 . S
C2414 C2412 1.388 . S
C2414 C2415 1.366 . S
C2415 C2414 1.366 . S
C2415 C2416 1.414 . S
C2415 C2418 1.499 . S
C2416 H2396 0.950 . S
C2416 C2415 1.414 . S
C2416 C2417 1.374 . S
C2417 H2397 0.950 . S
C2417 C2413 1.385 . S
C2417 C2416 1.374 . S
C2418 C2415 1.499 . S
C2418 C2419 1.373 . S
C2418 C2420 1.389 . S
C2419 H2398 0.950 . S
C2419 C2418 1.373 . S
C2419 C2435 1.377 . S
C2420 C2418 1.389 . S
C2420 C2421 1.524 . S
C2420 C2434 1.377 . S
C2421 C2420 1.524 . S
C2421 C2422 1.397 . S
C2421 C2426 1.363 . S
C2422 H2399 0.950 . S
C2422 C2421 1.397 . S
C2422 C2423 1.334 . S
C2423 H2400 0.950 . S
C2423 C2422 1.334 . S
C2423 C2424 1.287 . S
C2424 C2423 1.287 . S
C2424 C2425 1.524 . S
C2424 H2443 0.913 . S
C2425 H2401 0.950 . S
C2425 C2424 1.524 . S
C2425 C2426 1.415 . S
C2426 H2402 0.950 . S
C2426 C2421 1.363 . S
C2426 C2425 1.415 . S
C2427 H2403 0.951 . S
C2427 C2428 1.328 1_565 S
C2427 C2429 1.388 . S
C2428 C2427 1.328 1_545 S
C2428 C2432 1.397 . S
C2429 H2404 0.951 . S
C2429 C2427 1.388 . S
C2429 C2430 1.366 . S
C2430 C2429 1.366 . S
C2430 C2431 1.414 . S
C2430 C2433 1.499 . S
C2431 H2405 0.950 . S
C2431 C2430 1.414 . S
C2431 C2432 1.374 1_565 S
C2432 H2406 0.950 . S
C2432 C2428 1.397 . S
C2432 C2431 1.374 1_545 S
C2433 C2430 1.499 . S
C2433 C2434 1.373 . S
C2433 C2435 1.389 . S
C2434 H2407 0.950 . S
C2434 C2420 1.377 . S
C2434 C2433 1.373 . S
C2435 C2419 1.377 . S
C2435 C2433 1.389 . S
C2435 C2436 1.524 . S
C2436 C2435 1.524 . S
C2436 C2437 1.397 . S
C2436 C2441 1.363 . S
C2437 H2408 0.950 . S
C2437 C2436 1.397 . S
C2437 C2438 1.334 . S
C2438 H2409 0.950 . S
C2438 C2437 1.334 . S
C2438 C2439 1.287 . S
C2439 C2438 1.287 . S
C2439 C2440 1.524 . S
C2439 H2442 0.999 . S
C2440 H2410 0.950 . S
C2440 C2439 1.524 . S
C2440 C2441 1.415 . S
C2441 H2411 0.950 . S
C2441 C2436 1.363 . S
C2441 C2440 1.415 . S
H2442 C2439 0.999 . S
H2443 C2424 0.913 . S
H2444 C2462 0.951 . S
H2445 C2464 0.951 . S
H2446 C2466 0.950 . S
H2447 C2467 0.950 . S
H2448 C2469 0.950 . S
H2449 C2472 0.950 . S
H2450 C2473 0.950 . S
H2451 C2475 0.950 . S
H2452 C2476 0.950 . S
H2453 C2477 0.951 . S
H2454 C2479 0.951 . S
H2455 C2481 0.950 . S
H2456 C2482 0.950 . S
H2457 C2484 0.950 . S
H2458 C2487 0.950 . S
H2459 C2488 0.950 . S
H2460 C2490 0.950 . S
H2461 C2491 0.950 . S
C2462 H2444 0.951 . S
C2462 C2463 1.366 . S
C2462 C2464 1.388 . S
C2463 C2462 1.366 . S
C2463 C2467 1.385 . S
C2464 H2445 0.951 . S
C2464 C2462 1.388 . S
C2464 C2465 1.366 . S
C2465 C2464 1.366 . S
C2465 C2466 1.414 . S
C2465 C2468 1.499 . S
C2466 H2446 0.950 . S
C2466 C2465 1.414 . S
C2466 C2467 1.374 . S
C2467 H2447 0.950 . S
C2467 C2463 1.385 . S
C2467 C2466 1.374 . S
C2468 C2465 1.499 . S
C2468 C2469 1.373 . S
C2468 C2470 1.389 . S
C2469 H2448 0.950 . S
C2469 C2468 1.373 . S
C2469 C2485 1.377 . S
C2470 C2468 1.389 . S
C2470 C2471 1.524 . S
C2470 C2484 1.377 . S
C2471 C2470 1.524 . S
C2471 C2472 1.397 . S
C2471 C2476 1.363 . S
C2472 H2449 0.950 . S
C2472 C2471 1.397 . S
C2472 C2473 1.334 . S
C2473 H2450 0.950 . S
C2473 C2472 1.334 . S
C2473 C2474 1.287 . S
C2474 C2473 1.287 . S
C2474 C2475 1.524 . S
C2474 H2493 0.913 . S
C2475 H2451 0.950 . S
C2475 C2474 1.524 . S
C2475 C2476 1.415 . S
C2476 H2452 0.950 . S
C2476 C2471 1.363 . S
C2476 C2475 1.415 . S
C2477 H2453 0.951 . S
C2477 C2478 1.366 . S
C2477 C2479 1.388 . S
C2478 C2477 1.366 . S
C2478 C2482 1.385 . S
C2479 H2454 0.951 . S
C2479 C2477 1.388 . S
C2479 C2480 1.366 . S
C2480 C2479 1.366 . S
C2480 C2481 1.414 . S
C2480 C2483 1.499 . S
C2481 H2455 0.950 . S
C2481 C2480 1.414 . S
C2481 C2482 1.374 . S
C2482 H2456 0.950 . S
C2482 C2478 1.385 . S
C2482 C2481 1.374 . S
C2483 C2480 1.499 . S
C2483 C2484 1.373 . S
C2483 C2485 1.389 . S
C2484 H2457 0.950 . S
C2484 C2470 1.377 . S
C2484 C2483 1.373 . S
C2485 C2469 1.377 . S
C2485 C2483 1.389 . S
C2485 C2486 1.524 . S
C2486 C2485 1.524 . S
C2486 C2487 1.397 . S
C2486 C2491 1.363 . S
C2487 H2458 0.950 . S
C2487 C2486 1.397 . S
C2487 C2488 1.334 . S
C2488 H2459 0.950 . S
C2488 C2487 1.334 . S
C2488 C2489 1.287 . S
C2489 C2488 1.287 . S
C2489 C2490 1.524 . S
C2489 H2492 0.999 . S
C2490 H2460 0.950 . S
C2490 C2489 1.524 . S
C2490 C2491 1.415 . S
C2491 H2461 0.950 . S
C2491 C2486 1.363 . S
C2491 C2490 1.415 . S
H2492 C2489 0.999 . S
H2493 C2474 0.913 . S
H2494 C2512 0.951 . S
H2495 C2514 0.951 . S
H2496 C2516 0.950 . S
H2497 C2517 0.950 . S
H2498 C2519 0.950 . S
H2499 C2522 0.950 . S
H2500 C2523 0.950 . S
H2501 C2525 0.950 . S
H2502 C2526 0.950 . S
H2503 C2527 0.951 . S
H2504 C2529 0.951 . S
H2505 C2531 0.950 . S
H2506 C2532 0.950 . S
H2507 C2534 0.950 . S
H2508 C2537 0.950 . S
H2509 C2538 0.950 . S
H2510 C2540 0.950 . S
H2511 C2541 0.950 . S
C2512 H2494 0.951 . S
C2512 C2513 1.366 . S
C2512 C2514 1.388 . S
C2513 C2512 1.366 . S
C2513 C2517 1.385 . S
C2514 H2495 0.951 . S
C2514 C2512 1.388 . S
C2514 C2515 1.366 . S
C2515 C2514 1.366 . S
C2515 C2516 1.414 . S
C2515 C2518 1.499 . S
C2516 H2496 0.950 . S
C2516 C2515 1.414 . S
C2516 C2517 1.374 . S
C2517 H2497 0.950 . S
C2517 C2513 1.385 . S
C2517 C2516 1.374 . S
C2518 C2515 1.499 . S
C2518 C2519 1.373 . S
C2518 C2520 1.389 . S
C2519 H2498 0.950 . S
C2519 C2518 1.373 . S
C2519 C2535 1.377 . S
C2520 C2518 1.389 . S
C2520 C2521 1.524 . S
C2520 C2534 1.377 . S
C2521 C2520 1.524 . S
C2521 C2522 1.397 . S
C2521 C2526 1.363 . S
C2522 H2499 0.950 . S
C2522 C2521 1.397 . S
C2522 C2523 1.334 . S
C2523 H2500 0.950 . S
C2523 C2522 1.334 . S
C2523 C2524 1.287 . S
C2524 C2523 1.287 . S
C2524 C2525 1.524 . S
C2524 H2543 0.913 . S
C2525 H2501 0.950 . S
C2525 C2524 1.524 . S
C2525 C2526 1.415 . S
C2526 H2502 0.950 . S
C2526 C2521 1.363 . S
C2526 C2525 1.415 . S
C2527 H2503 0.951 . S
C2527 C2528 1.366 . S
C2527 C2529 1.388 . S
C2528 C2527 1.366 . S
C2528 C2532 1.385 . S
C2529 H2504 0.951 . S
C2529 C2527 1.388 . S
C2529 C2530 1.366 . S
C2530 C2529 1.366 . S
C2530 C2531 1.414 . S
C2530 C2533 1.499 . S
C2531 H2505 0.950 . S
C2531 C2530 1.414 . S
C2531 C2532 1.374 . S
C2532 H2506 0.950 . S
C2532 C2528 1.385 . S
C2532 C2531 1.374 . S
C2533 C2530 1.499 . S
C2533 C2534 1.373 . S
C2533 C2535 1.389 . S
C2534 H2507 0.950 . S
C2534 C2520 1.377 . S
C2534 C2533 1.373 . S
C2535 C2519 1.377 . S
C2535 C2533 1.389 . S
C2535 C2536 1.524 . S
C2536 C2535 1.524 . S
C2536 C2537 1.397 . S
C2536 C2541 1.363 . S
C2537 H2508 0.950 . S
C2537 C2536 1.397 . S
C2537 C2538 1.334 . S
C2538 H2509 0.950 . S
C2538 C2537 1.334 . S
C2538 C2539 1.287 . S
C2539 C2538 1.287 . S
C2539 C2540 1.524 . S
C2539 H2542 0.999 . S
C2540 H2510 0.950 . S
C2540 C2539 1.524 . S
C2540 C2541 1.415 . S
C2541 H2511 0.950 . S
C2541 C2536 1.363 . S
C2541 C2540 1.415 . S
H2542 C2539 0.999 . S
H2543 C2524 0.913 . S
C563 C33 1.575 . S
C578 C237 1.575 . S
C613 C271 1.575 . S
C628 C67 1.575 . S
C663 C169 1.575 . S
C678 C101 1.575 . S
C713 C203 1.575 . S
C728 C135 1.575 . S
C763 C305 1.575 . S
C778 C509 1.575 . S
C813 C339 1.575 . S
C828 C543 1.575 . S
C863 C373 1.575 . S
C878 C441 1.575 . S
C913 C475 1.575 . S
C928 C407 1.575 . S
C963 C5 1.440 . S
C978 C104 1.455 . S
C1013 C39 1.441 . S
C1028 C2 1.455 . S
C1063 C36 1.455 . S
C1078 C73 1.441 . S
C1113 C107 1.441 . S
C1128 C70 1.456 . S
C1163 C172 1.455 . S
C1178 C141 1.441 . S
C1213 C206 1.456 . S
C1228 C175 1.441 . S
C1263 C240 1.456 . S
C1278 C209 1.441 . S
C1313 C138 1.456 . S
C1328 C243 1.441 . S
C1363 C277 1.440 . S
C1378 C376 1.455 . S
C1413 C274 1.455 . S
C1428 C311 1.440 . S
C1463 C345 1.441 . S
C1478 C308 1.456 . S
C1513 C379 1.441 . S
C1528 C342 1.455 . S
C1563 C413 1.440 . S
C1578 C444 1.455 . S
C1613 C447 1.440 . S
C1628 C478 1.455 . S
C1663 C481 1.440 . S
C1678 C512 1.455 . S
C1713 C410 1.455 . S
C1728 C515 1.440 . S
C1763 C530 1.759 . S
C1778 C20 1.759 . S
C1813 C54 1.759 . S
C1828 C428 1.759 . S
C1863 C462 1.759 . S
C1878 C88 1.771 . S
C1913 C122 1.772 . S
C1928 C496 1.759 . S
C1963 C326 1.759 . S
C1978 C156 1.759 . S
C2013 C190 1.759 . S
C2028 C360 1.759 . S
C2063 C224 1.771 . S
C2078 C394 1.759 . S
C2113 C292 1.759 . S
C2128 C258 1.772 . S
C2163 C145 1.224 . S
C2178 C383 1.198 . S
C2213 C179 1.225 . S
C2228 C281 1.198 . S
C2263 C213 1.197 . S
C2278 C315 1.197 . S
C2313 C349 1.198 . S
C2328 C247 1.197 . S
C2363 C9 1.224 . S
C2378 C451 1.198 . S
C2413 C485 1.198 . S
C2428 C43 1.225 . S
C2463 C77 1.198 . S
C2478 C519 1.198 . S
C2513 C111 1.197 . S
C2528 C417 1.197 . S
