# Generated by pormake.
# Topology yfb, (5)-cn, num edge types: 1
# Building blocks:
#     Node 0, Type 0, BuildingBlock: BEQFEK_clean_sbu_0, # of connection points: 5
#     Node 1, Type 0, BuildingBlock: BEQFEK_clean_sbu_0, # of connection points: 5
#     Node 2, Type 0, BuildingBlock: BEQFEK_clean_sbu_0, # of connection points: 5
#     Node 3, Type 0, BuildingBlock: BEQFEK_clean_sbu_0, # of connection points: 5
#     Node 4, Type 0, BuildingBlock: BEQFEK_clean_sbu_0, # of connection points: 5
#     Node 5, Type 0, BuildingBlock: BEQFEK_clean_sbu_0, # of connection points: 5
#     Node 6, Type 0, BuildingBlock: BEQFEK_clean_sbu_0, # of connection points: 5
#     Node 7, Type 0, BuildingBlock: BEQFEK_clean_sbu_0, # of connection points: 5
#     Node 8, Type 0, BuildingBlock: BEQFEK_clean_sbu_0, # of connection points: 5
#     Node 9, Type 0, BuildingBlock: BEQFEK_clean_sbu_0, # of connection points: 5
#     Node 10, Type 0, BuildingBlock: BEQFEK_clean_sbu_0, # of connection points: 5
#     Node 11, Type 0, BuildingBlock: BEQFEK_clean_sbu_0, # of connection points: 5
#     Node 12, Type 0, BuildingBlock: BEQFEK_clean_sbu_0, # of connection points: 5
#     Node 13, Type 0, BuildingBlock: BEQFEK_clean_sbu_0, # of connection points: 5
#     Node 14, Type 0, BuildingBlock: BEQFEK_clean_sbu_0, # of connection points: 5
#     Node 15, Type 0, BuildingBlock: BEQFEK_clean_sbu_0, # of connection points: 5
#     Edge 16, Type (0, 0), BuildingBlock: CIFDUS_clean_linker_0, # of connection points: 2
#     Edge 17, Type (0, 0), BuildingBlock: CIFDUS_clean_linker_0, # of connection points: 2
#     Edge 18, Type (0, 0), BuildingBlock: CIFDUS_clean_linker_0, # of connection points: 2
#     Edge 19, Type (0, 0), BuildingBlock: CIFDUS_clean_linker_0, # of connection points: 2
#     Edge 20, Type (0, 0), BuildingBlock: CIFDUS_clean_linker_0, # of connection points: 2
#     Edge 21, Type (0, 0), BuildingBlock: CIFDUS_clean_linker_0, # of connection points: 2
#     Edge 22, Type (0, 0), BuildingBlock: CIFDUS_clean_linker_0, # of connection points: 2
#     Edge 23, Type (0, 0), BuildingBlock: CIFDUS_clean_linker_0, # of connection points: 2
#     Edge 24, Type (0, 0), BuildingBlock: CIFDUS_clean_linker_0, # of connection points: 2
#     Edge 25, Type (0, 0), BuildingBlock: CIFDUS_clean_linker_0, # of connection points: 2
#     Edge 26, Type (0, 0), BuildingBlock: CIFDUS_clean_linker_0, # of connection points: 2
#     Edge 27, Type (0, 0), BuildingBlock: CIFDUS_clean_linker_0, # of connection points: 2
#     Edge 28, Type (0, 0), BuildingBlock: CIFDUS_clean_linker_0, # of connection points: 2
#     Edge 29, Type (0, 0), BuildingBlock: CIFDUS_clean_linker_0, # of connection points: 2
#     Edge 30, Type (0, 0), BuildingBlock: CIFDUS_clean_linker_0, # of connection points: 2
#     Edge 31, Type (0, 0), BuildingBlock: CIFDUS_clean_linker_0, # of connection points: 2
#     Edge 32, Type (0, 0), BuildingBlock: CIFDUS_clean_linker_0, # of connection points: 2
#     Edge 33, Type (0, 0), BuildingBlock: CIFDUS_clean_linker_0, # of connection points: 2
#     Edge 34, Type (0, 0), BuildingBlock: CIFDUS_clean_linker_0, # of connection points: 2
#     Edge 35, Type (0, 0), BuildingBlock: CIFDUS_clean_linker_0, # of connection points: 2
#     Edge 36, Type (0, 0), BuildingBlock: CIFDUS_clean_linker_0, # of connection points: 2
#     Edge 37, Type (0, 0), BuildingBlock: CIFDUS_clean_linker_0, # of connection points: 2
#     Edge 38, Type (0, 0), BuildingBlock: CIFDUS_clean_linker_0, # of connection points: 2
#     Edge 39, Type (0, 0), BuildingBlock: CIFDUS_clean_linker_0, # of connection points: 2
#     Edge 40, Type (0, 0), BuildingBlock: CIFDUS_clean_linker_0, # of connection points: 2
#     Edge 41, Type (0, 0), BuildingBlock: CIFDUS_clean_linker_0, # of connection points: 2
#     Edge 42, Type (0, 0), BuildingBlock: CIFDUS_clean_linker_0, # of connection points: 2
#     Edge 43, Type (0, 0), BuildingBlock: CIFDUS_clean_linker_0, # of connection points: 2
#     Edge 44, Type (0, 0), BuildingBlock: CIFDUS_clean_linker_0, # of connection points: 2
#     Edge 45, Type (0, 0), BuildingBlock: CIFDUS_clean_linker_0, # of connection points: 2
#     Edge 46, Type (0, 0), BuildingBlock: CIFDUS_clean_linker_0, # of connection points: 2
#     Edge 47, Type (0, 0), BuildingBlock: CIFDUS_clean_linker_0, # of connection points: 2
#     Edge 48, Type (0, 0), BuildingBlock: CIFDUS_clean_linker_0, # of connection points: 2
#     Edge 49, Type (0, 0), BuildingBlock: CIFDUS_clean_linker_0, # of connection points: 2
#     Edge 50, Type (0, 0), BuildingBlock: CIFDUS_clean_linker_0, # of connection points: 2
#     Edge 51, Type (0, 0), BuildingBlock: CIFDUS_clean_linker_0, # of connection points: 2
#     Edge 52, Type (0, 0), BuildingBlock: CIFDUS_clean_linker_0, # of connection points: 2
#     Edge 53, Type (0, 0), BuildingBlock: CIFDUS_clean_linker_0, # of connection points: 2
#     Edge 54, Type (0, 0), BuildingBlock: CIFDUS_clean_linker_0, # of connection points: 2
#     Edge 55, Type (0, 0), BuildingBlock: CIFDUS_clean_linker_0, # of connection points: 2
# Relax obj value: 0.641
# Max RMSD: 0.206
# Mean RMSD: 0.206
data_MOF--net-yfb--node1-BEQFEK_clean_sbu_0--edge1-CIFDUS_clean_linker_0
_symmetry_space_group_name_H-M    P1
_symmetry_Int_Tables_number       1
_symmetry_cell_setting            triclinic
loop_
_symmetry_equiv_pos_as_xyz
'x, y, z'
_cell_length_a     41.881213
_cell_length_b     42.002094
_cell_length_c     38.027291
_cell_angle_alpha  90.041858
_cell_angle_beta   90.092786
_cell_angle_gamma 89.925974
loop_
_atom_site_label
_atom_site_type_symbol
_atom_site_fract_x
_atom_site_fract_y
_atom_site_fract_z
_atom_type_partial_charge
Co0 Co 0.69232 0.1251 0.12727 0.0
Co1 Co 0.66279 0.06539 0.09067 0.0
C2 C 0.63478 0.13264 0.08452 0.0
O3 O 0.65442 0.14481 0.10599 0.0
O4 O 0.63636 0.10325 0.07675 0.0
C5 C 0.69704 0.18093 0.16939 0.0
O6 O 0.66572 0.17926 0.16906 0.0
C7 C 0.60465 0.02863 0.0806 0.0
C8 C 0.61718 0.99697 0.03646 0.0
C9 C 0.59141 0.0077 0.05613 0.0
N10 N 0.63642 0.03039 0.07525 0.0
N11 N 0.64381 0.01089 0.04922 0.0
C12 C 0.587 0.05023 0.10517 0.0
H13 H 0.60344 0.06751 0.11774 0.0
H14 H 0.57582 0.03591 0.12628 0.0
H15 H 0.56778 0.06301 0.0908 0.0
C16 C 0.69598 0.08286 0.18739 0.0
N17 N 0.6832 0.08955 0.15575 0.0
N18 N 0.67445 0.06299 0.14011 0.0
C19 C 0.68316 0.03831 0.16098 0.0
C20 C 0.69699 0.0501 0.1919 0.0
C21 C 0.71345 0.10684 0.20934 0.0
H22 H 0.73561 0.11411 0.19558 0.0
H23 H 0.69818 0.12812 0.21313 0.0
H24 H 0.71995 0.0972 0.23554 0.0
O25 O 0.7228 0.1119 0.08933 0.0
O26 O 0.70258 0.06928 0.06219 0.0
H27 H 0.70296 1.0016 0.12897 0.0
H28 H 0.68822 0.98801 0.17106 0.0
C29 C 0.68374 0.00451 0.14879 0.0
H30 H 0.66073 0.99858 0.13586 0.0
H31 H 0.66656 0.00904 0.03825 0.0
O32 O 0.71324 0.15933 0.15421 0.0
C33 C 0.72445 0.09022 0.06582 0.0
Co34 Co 0.38016 0.70698 0.14657 0.0
Co35 Co 0.43297 0.67426 0.1008 0.0
C36 C 0.36332 0.65217 0.10279 0.0
O37 O 0.35528 0.67155 0.12673 0.0
O38 O 0.3917 0.65191 0.09105 0.0
C39 C 0.3331 0.71136 0.19993 0.0
O40 O 0.3363 0.68023 0.19993 0.0
C41 C 0.46023 0.61374 0.08026 0.0
C42 C 0.49771 0.62606 0.04208 0.0
C43 C 0.48108 0.60039 0.05593 0.0
N44 N 0.46372 0.6456 0.08015 0.0
N45 N 0.48652 0.65283 0.05754 0.0
C46 C 0.43728 0.59656 0.10366 0.0
H47 H 0.43267 0.61075 0.12777 0.0
H48 H 0.4468 0.57277 0.11089 0.0
H49 H 0.41427 0.59322 0.08966 0.0
C50 C 0.42948 0.70422 0.20039 0.0
N51 N 0.41814 0.69445 0.16909 0.0
N52 N 0.4417 0.68297 0.14998 0.0
C53 C 0.46916 0.68604 0.1686 0.0
C54 C 0.46219 0.69959 0.20127 0.0
C55 C 0.41016 0.72222 0.22698 0.0
H56 H 0.40115 0.74459 0.21506 0.0
H57 H 0.38951 0.70753 0.23507 0.0
H58 H 0.42418 0.72816 0.25086 0.0
O59 O 0.39119 0.73768 0.10821 0.0
O60 O 0.42919 0.71556 0.07494 0.0
H61 H 0.50527 0.69643 0.13081 0.0
H62 H 0.52056 0.68431 0.17343 0.0
C63 C 0.50157 0.68028 0.15352 0.0
H64 H 0.50296 0.6555 0.14351 0.0
H65 H 0.49322 0.67603 0.05122 0.0
O66 O 0.3507 0.72797 0.17982 0.0
C67 C 0.41031 0.73865 0.08204 0.0
Co68 Co 0.81724 0.38236 0.13051 0.0
Co69 Co 0.8468 0.44213 0.09409 0.0
C70 C 0.87509 0.37491 0.08851 0.0
O71 O 0.8555 0.36277 0.10998 0.0
O72 O 0.87335 0.40425 0.08055 0.0
C73 C 0.81201 0.32653 0.17258 0.0
O74 O 0.84333 0.3281 0.17282 0.0
C75 C 0.90448 0.47865 0.07832 0.0
C76 C 0.88627 0.51619 0.04311 0.0
C77 C 0.91438 0.50263 0.05551 0.0
N78 N 0.87226 0.47787 0.07881 0.0
N79 N 0.86157 0.50093 0.05832 0.0
C80 C 0.92503 0.45372 0.09511 0.0
H81 H 0.9344 0.43745 0.07453 0.0
H82 H 0.91117 0.43992 0.1147 0.0
H83 H 0.94562 0.46473 0.1087 0.0
C84 C 0.8128 0.425 0.19035 0.0
N85 N 0.82578 0.41817 0.15888 0.0
N86 N 0.83468 0.44467 0.14329 0.0
C87 C 0.82592 0.46944 0.164 0.0
C88 C 0.81188 0.45777 0.19478 0.0
C89 C 0.79526 0.40113 0.21226 0.0
H90 H 0.77316 0.39378 0.19835 0.0
H91 H 0.81051 0.37986 0.21626 0.0
H92 H 0.78867 0.41095 0.23836 0.0
O93 O 0.78723 0.39493 0.09181 0.0
O94 O 0.80736 0.43768 0.06504 0.0
H95 H 0.80791 0.50577 0.13017 0.0
H96 H 0.81934 0.51973 0.17349 0.0
C97 C 0.82561 0.50322 0.15174 0.0
H98 H 0.84939 0.50946 0.14095 0.0
H99 H 0.83748 0.50463 0.05251 0.0
O100 O 0.79606 0.34822 0.15721 0.0
C101 C 0.78572 0.41648 0.06818 0.0
Co102 Co 0.1352 0.81501 0.14719 0.0
Co103 Co 0.07934 0.84328 0.10222 0.0
C104 C 0.14787 0.86823 0.09921 0.0
O105 O 0.15746 0.85014 0.12367 0.0
O106 O 0.11903 0.86719 0.08877 0.0
C107 C 0.1849 0.81587 0.19774 0.0
O108 O 0.1805 0.84677 0.19535 0.0
C109 C 0.0463 0.90064 0.07917 0.0
C110 C 1.00402 0.88287 0.05076 0.0
C111 C 0.02053 0.91058 0.05889 0.0
N112 N 0.04549 0.8687 0.08223 0.0
N113 N 0.01998 0.85821 0.06534 0.0
C114 C 0.07083 0.92119 0.09663 0.0
H115 H 0.08004 0.90937 0.12071 0.0
H116 H 0.06057 0.94475 0.10357 0.0
H117 H 0.0911 0.92494 0.07835 0.0
C118 C 0.08809 0.81746 0.20281 0.0
N119 N 0.09786 0.82725 0.17092 0.0
N120 N 0.07303 0.83626 0.15212 0.0
C121 C 0.04635 0.83122 0.17145 0.0
C122 C 0.0551 0.81933 0.20439 0.0
C123 C 0.10921 0.80045 0.22857 0.0
H124 H 0.11856 0.77834 0.21635 0.0
H125 H 0.1296 0.81598 0.23558 0.0
H126 H 0.09645 0.79404 0.25309 0.0
O127 O 0.1236 0.78169 0.11168 0.0
O128 O 0.08371 0.80092 0.0788 0.0
H129 H 0.01113 0.81557 0.1347 0.0
H130 H 0.99513 0.82745 0.17704 0.0
C131 C 0.01331 0.83283 0.15668 0.0
H132 H 0.00903 0.85695 0.14575 0.0
H133 H 0.01395 0.83421 0.06292 0.0
O134 O 0.16708 0.79726 0.18008 0.0
C135 C 0.10347 0.77875 0.08656 0.0
Co136 Co 0.69593 0.38326 0.41807 0.0
Co137 Co 0.66431 0.4425 0.45399 0.0
C138 C 0.63908 0.37429 0.46122 0.0
O139 O 0.65883 0.3626 0.43958 0.0
O140 O 0.63958 0.40383 0.46852 0.0
C141 C 0.70207 0.32784 0.37575 0.0
O142 O 0.67074 0.32946 0.37536 0.0
C143 C 0.60556 0.47641 0.47203 0.0
C144 C 0.62266 0.52045 0.49728 0.0
C145 C 0.59512 0.50312 0.49041 0.0
N146 N 0.63761 0.47752 0.46899 0.0
N147 N 0.64765 0.50413 0.4839 0.0
C148 C 0.58541 0.45049 0.45664 0.0
H149 H 0.59737 0.44006 0.43328 0.0
H150 H 0.56156 0.45979 0.44901 0.0
H151 H 0.58211 0.43141 0.47646 0.0
C152 C 0.69811 0.42519 0.35759 0.0
N153 N 0.68566 0.41835 0.38929 0.0
N154 N 0.67595 0.44475 0.40461 0.0
C155 C 0.68369 0.46951 0.38346 0.0
C156 C 0.69787 0.45791 0.3527 0.0
C157 C 0.71634 0.40164 0.33583 0.0
H158 H 0.73858 0.39485 0.34984 0.0
H159 H 0.70163 0.38004 0.33183 0.0
H160 H 0.72277 0.41144 0.30971 0.0
O161 O 0.72562 0.39749 0.45631 0.0
O162 O 0.704 0.43986 0.48263 0.0
H163 H 0.69996 0.50669 0.41726 0.0
H164 H 0.68916 0.51984 0.37342 0.0
C165 C 0.68285 0.50345 0.39522 0.0
H166 H 0.65867 0.50925 0.40525 0.0
H167 H 0.67163 0.51053 0.48621 0.0
O168 O 0.7179 0.34938 0.39149 0.0
C169 C 0.7264 0.41938 0.47964 0.0
Co170 Co 0.12794 0.69576 0.40312 0.0
Co171 Co 0.07045 0.66837 0.44526 0.0
C172 C 0.14015 0.64546 0.45334 0.0
O173 O 0.15145 0.66177 0.42825 0.0
O174 O 0.11072 0.64741 0.46101 0.0
C175 C 0.17971 0.70072 0.3548 0.0
O176 O 0.18011 0.66952 0.35732 0.0
C177 C 0.04309 0.60797 0.46354 0.0
C178 C 0.00592 0.61937 0.50249 0.0
C179 C 0.02282 0.59407 0.48803 0.0
N180 N 0.03906 0.63976 0.46419 0.0
N181 N 0.01643 0.64645 0.48723 0.0
C182 C 0.06647 0.59153 0.43992 0.0
H183 H 0.07075 0.60606 0.41602 0.0
H184 H 0.05753 0.56761 0.43236 0.0
H185 H 0.08958 0.5886 0.45382 0.0
C186 C 0.0835 0.69082 0.34455 0.0
N187 N 0.09189 0.68206 0.37735 0.0
N188 N 0.06614 0.67423 0.39513 0.0
C189 C 0.04032 0.67937 0.37439 0.0
C190 C 0.05053 0.68994 0.34147 0.0
C191 C 0.10586 0.7061 0.31889 0.0
H192 H 0.1134 0.72967 0.3291 0.0
H193 H 0.12716 0.69079 0.31549 0.0
H194 H 0.09465 0.70961 0.29274 0.0
O195 O 0.11362 0.72868 0.43799 0.0
O196 O 0.07174 0.71079 0.46846 0.0
H197 H 1.00346 0.70061 0.40509 0.0
H198 H 0.98941 0.68081 0.36574 0.0
C199 C 0.00681 0.67961 0.38776 0.0
H200 H 1.0025 0.65797 0.40377 0.0
H201 H 0.00966 0.66951 0.49425 0.0
O202 O 0.15899 0.71651 0.37187 0.0
C203 C 0.09218 0.73247 0.46154 0.0
Co204 Co 0.81774 0.12389 0.41183 0.0
Co205 Co 0.84241 0.06383 0.45167 0.0
C206 C 0.86934 0.13118 0.46245 0.0
O207 O 0.85319 0.14347 0.43777 0.0
O208 O 0.86622 0.10188 0.46999 0.0
C209 C 0.81583 0.18085 0.37113 0.0
O210 O 0.84704 0.17933 0.37424 0.0
C211 C 0.90034 0.02821 0.46894 0.0
C212 C 0.88303 0.99257 0.50683 0.0
C213 C 0.91089 0.00553 0.49314 0.0
N214 N 0.8681 0.02884 0.46895 0.0
N215 N 0.85794 0.00694 0.49117 0.0
C216 C 0.92036 0.05182 0.44946 0.0
H217 H 0.90523 0.06892 0.43476 0.0
H218 H 0.93556 0.0392 0.43011 0.0
H219 H 0.93619 0.0647 0.46809 0.0
C220 C 0.81807 0.08178 0.35195 0.0
N221 N 0.82946 0.0885 0.38423 0.0
N222 N 0.83555 0.06185 0.40115 0.0
C223 C 0.82621 0.03727 0.3805 0.0
C224 C 0.81478 0.04904 0.34843 0.0
C225 C 0.80298 0.10619 0.32848 0.0
H226 H 0.77949 0.11325 0.33948 0.0
H227 H 0.81851 0.12748 0.32701 0.0
H228 H 0.79925 0.09682 0.30151 0.0
O229 O 0.78369 0.10988 0.44543 0.0
O230 O 0.79969 0.06663 0.47469 0.0
H231 H 0.80106 1.0038 0.41219 0.0
H232 H 0.81739 0.98722 0.37213 0.0
C233 C 0.82178 0.00418 0.39402 0.0
H234 H 0.84321 0.99679 0.40914 0.0
H235 H 0.83399 1.0035 0.49768 0.0
O236 O 0.79884 0.15853 0.38366 0.0
C237 C 0.77874 0.08798 0.46808 0.0
Co238 Co 0.38811 0.79746 0.41248 0.0
Co239 Co 0.43967 0.83633 0.45368 0.0
C240 C 0.36865 0.85413 0.45266 0.0
O241 O 0.36157 0.83224 0.43101 0.0
O242 O 0.39726 0.85764 0.46343 0.0
C243 C 0.34014 0.7836 0.36137 0.0
O244 O 0.33806 0.81475 0.35902 0.0
C245 C 0.47133 0.89739 0.46647 0.0
C246 C 0.50336 0.88629 0.51091 0.0
C247 C 0.49163 0.91145 0.49106 0.0
N248 N 0.47094 0.86569 0.47187 0.0
N249 N 0.49057 0.85918 0.49814 0.0
C250 C 0.44977 0.91394 0.44091 0.0
H251 H 0.43725 0.93401 0.454 0.0
H252 H 0.4322 0.89714 0.42947 0.0
H253 H 0.46423 0.92372 0.41905 0.0
C254 C 0.43418 0.80227 0.35563 0.0
N255 N 0.42393 0.8116 0.38749 0.0
N256 N 0.44728 0.82583 0.40456 0.0
C257 C 0.47368 0.82506 0.38393 0.0
C258 C 0.46607 0.81007 0.35216 0.0
C259 C 0.41487 0.78266 0.33042 0.0
H260 H 0.40845 0.7597 0.34291 0.0
H261 H 0.39275 0.79572 0.32361 0.0
H262 H 0.42783 0.77766 0.30562 0.0
O263 O 0.40256 0.76964 0.45158 0.0
O264 O 0.43941 0.79615 0.48218 0.0
H265 H 0.52449 0.83009 0.37579 0.0
H266 H 0.50564 0.86117 0.40164 0.0
C267 C 0.50605 0.83525 0.39597 0.0
H268 H 0.51208 0.82284 0.42088 0.0
H269 H 0.49371 0.83652 0.5088 0.0
O270 O 0.36034 0.77135 0.38231 0.0
C271 C 0.42239 0.77137 0.47698 0.0
Co272 Co 0.30586 0.88253 0.89356 0.0
Co273 Co 0.33972 0.93605 0.93723 0.0
C274 C 0.35977 0.86565 0.93897 0.0
O275 O 0.34034 0.85723 0.91509 0.0
O276 O 0.36097 0.89447 0.94925 0.0
C277 C 0.29553 0.83279 0.84299 0.0
O278 O 0.32684 0.83077 0.84298 0.0
C279 C 0.40038 0.96774 0.95195 0.0
C280 C 0.38878 0.99832 0.99733 0.0
C281 C 0.41427 0.98713 0.97753 0.0
N282 N 0.36849 0.96735 0.95672 0.0
N283 N 0.3617 0.98611 0.9836 0.0
C284 C 0.41724 0.94671 0.92617 0.0
H285 H 0.4005 0.92938 0.91416 0.0
H286 H 0.42725 0.96153 0.90474 0.0
H287 H 0.43725 0.93398 0.93924 0.0
C288 C 0.31093 0.9289 0.83729 0.0
N289 N 0.32013 0.91879 0.86929 0.0
N290 N 0.33145 0.94292 0.88756 0.0
C291 C 0.3285 0.9696 0.86777 0.0
C292 C 0.31553 0.96148 0.83508 0.0
C293 C 0.29266 0.90887 0.81157 0.0
H294 H 0.26929 0.90225 0.82313 0.0
H295 H 0.30635 0.88689 0.80591 0.0
H296 H 0.28827 0.92142 0.78638 0.0
O297 O 0.27542 0.89637 0.93091 0.0
O298 O 0.29804 0.93485 0.96281 0.0
H299 H 0.32917 0.02071 0.8612 0.0
H300 H 0.35849 0.00457 0.89161 0.0
C301 C 0.33363 1.00245 0.88174 0.0
H302 H 0.31743 0.00653 0.90438 0.0
H303 H 0.33884 0.9889 0.99408 0.0
O304 O 0.282 0.85365 0.86208 0.0
C305 C 0.27449 0.91649 0.95609 0.0
Co306 Co 0.61933 0.30763 0.91717 0.0
Co307 Co 0.56274 0.34493 0.95093 0.0
C308 C 0.63346 0.36349 0.9596 0.0
O309 O 0.6438 0.34289 0.93808 0.0
O310 O 0.60378 0.3654 0.9663 0.0
C311 C 0.67304 0.29433 0.87491 0.0
O312 O 0.67457 0.32554 0.87326 0.0
C313 C 0.5368 0.4079 0.9629 0.0
C314 C 0.4951 0.39953 0.99688 0.0
C315 C 0.51443 0.42361 0.98374 0.0
N316 N 0.53149 0.37632 0.96451 0.0
N317 N 0.5062 0.37148 0.98451 0.0
C318 C 0.563 0.42235 0.94149 0.0
H319 H 0.5691 0.40651 0.91909 0.0
H320 H 0.55577 0.44614 0.93153 0.0
H321 H 0.58466 0.42513 0.95801 0.0
C322 C 0.57881 0.30926 0.85515 0.0
N323 N 0.58585 0.32039 0.88741 0.0
N324 N 0.56027 0.33342 0.90147 0.0
C325 C 0.53566 0.32982 0.87856 0.0
C326 C 0.54676 0.31433 0.84839 0.0
C327 C 0.6012 0.28984 0.83311 0.0
H328 H 0.6063 0.26696 0.84654 0.0
H329 H 0.62385 0.30303 0.82966 0.0
H330 H 0.59119 0.28472 0.80668 0.0
O331 O 0.60159 0.28057 0.95539 0.0
O332 O 0.56029 0.30555 0.98016 0.0
H333 H 0.49382 0.32057 0.90873 0.0
H334 H 0.48591 0.33393 0.86424 0.0
C335 C 0.50168 0.3369 0.88751 0.0
H336 H 0.49979 0.36158 0.89776 0.0
H337 H 0.49769 0.34901 0.99147 0.0
O338 O 0.65038 0.28136 0.89174 0.0
C339 C 0.57904 0.28162 0.97789 0.0
Co340 Co 0.19988 0.62658 0.90303 0.0
Co341 Co 0.16814 0.57425 0.9501 0.0
C342 C 0.14712 0.64448 0.94902 0.0
O343 O 0.16547 0.65218 0.92393 0.0
O344 O 0.14687 0.61614 0.96087 0.0
C345 C 0.20894 0.67447 0.84996 0.0
O346 O 0.17765 0.67666 0.85063 0.0
C347 C 0.10853 0.5444 0.97354 0.0
C348 C 0.12546 0.50628 1.00881 0.0
C349 C 0.09793 0.52159 0.9974 0.0
N350 N 0.14065 0.54271 0.97131 0.0
N351 N 0.15052 0.51945 0.99202 0.0
C352 C 0.08926 0.57047 0.95701 0.0
H353 H 0.10246 0.58108 0.93463 0.0
H354 H 0.06604 0.56153 0.94732 0.0
H355 H 0.0845 0.58919 0.97694 0.0
C356 C 0.19477 0.57786 0.84935 0.0
N357 N 0.18573 0.58916 0.8809 0.0
N358 N 0.17579 0.56551 0.90075 0.0
C359 C 0.17979 0.53801 0.88259 0.0
C360 C 0.19186 0.54504 0.84927 0.0
C361 C 0.2114 0.59736 0.82194 0.0
H362 H 0.23523 0.60461 0.83186 0.0
H363 H 0.1971 0.61894 0.81626 0.0
H364 H 0.21467 0.58401 0.79702 0.0
O365 O 0.23123 0.61476 0.94053 0.0
O366 O 0.21014 0.57707 0.97467 0.0
H367 H 0.19395 0.50374 0.921 0.0
H368 H 0.18171 0.48667 0.87924 0.0
C369 C 0.17687 0.50574 0.89876 0.0
H370 H 0.15248 0.50285 0.90964 0.0
H371 H 0.17449 0.51379 0.99628 0.0
O372 O 0.22283 0.65433 0.86969 0.0
C373 C 0.23309 0.59568 0.96661 0.0
Co374 Co 0.89186 0.19923 0.92042 0.0
Co375 Co 0.94907 0.16275 0.95439 0.0
C376 C 0.8791 0.14211 0.96209 0.0
O377 O 0.86865 0.16325 0.94125 0.0
O378 O 0.90878 0.14021 0.96906 0.0
C379 C 0.83773 0.21076 0.87772 0.0
O380 O 0.83659 0.17951 0.87665 0.0
C381 C 0.98044 0.10208 0.96979 0.0
C382 C 0.02594 0.11647 0.99423 0.0
C383 C 0.0073 0.08996 0.9868 0.0
N384 N 0.98283 0.13404 0.96806 0.0
N385 N 0.01026 0.14246 0.98249 0.0
C386 C 0.95326 0.08373 0.95425 0.0
H387 H 0.9427 0.09706 0.93187 0.0
H388 H 0.96137 0.05995 0.94512 0.0
H389 H 0.9345 0.08042 0.97449 0.0
C390 C 0.93252 0.19848 0.85867 0.0
N391 N 0.92571 0.18736 0.89094 0.0
N392 N 0.95143 0.17455 0.905 0.0
C393 C 0.9759 0.17822 0.88201 0.0
C394 C 0.96456 0.19354 0.85183 0.0
C395 C 0.90985 0.2176 0.83661 0.0
H396 H 0.90421 0.24028 0.85022 0.0
H397 H 0.88749 0.20398 0.83283 0.0
H398 H 0.91986 0.22312 0.81032 0.0
O399 O 0.90851 0.227 0.95857 0.0
O400 O 0.94971 0.20222 0.98381 0.0
H401 H 0.01755 0.18637 0.91309 0.0
H402 H 0.02576 0.17543 0.86784 0.0
C403 C 0.00995 0.17113 0.89075 0.0
H404 H 0.01209 0.14597 0.89935 0.0
H405 H 0.01779 0.16599 0.98542 0.0
O406 O 0.86012 0.22432 0.89453 0.0
C407 C 0.93081 0.22602 0.98142 0.0
Co408 Co 0.30447 0.62598 0.64616 0.0
Co409 Co 0.34555 0.57374 0.60785 0.0
C410 C 0.36524 0.64361 0.61219 0.0
O411 O 0.34161 0.65128 0.63127 0.0
O412 O 0.369 0.61501 0.60188 0.0
C413 C 0.28959 0.67413 0.69685 0.0
O414 O 0.32073 0.67538 0.70088 0.0
C415 C 0.40628 0.54333 0.58743 0.0
C416 C 0.39038 0.49897 0.56184 0.0
C417 C 0.41741 0.51704 0.56877 0.0
N418 N 0.37427 0.54119 0.59066 0.0
N419 N 0.36501 0.51444 0.57546 0.0
C420 C 0.4258 0.56951 0.60324 0.0
H421 H 0.41419 0.57848 0.62753 0.0
H422 H 0.45025 0.56105 0.6096 0.0
H423 H 0.42756 0.58943 0.5842 0.0
C424 C 0.30341 0.57857 0.70197 0.0
N425 N 0.3153 0.58894 0.67123 0.0
N426 N 0.33081 0.56565 0.65549 0.0
C427 C 0.32857 0.53929 0.67595 0.0
C428 C 0.31108 0.54678 0.70611 0.0
C429 C 0.28207 0.59788 0.72539 0.0
H430 H 0.26049 0.60529 0.71055 0.0
H431 H 0.29503 0.61943 0.73415 0.0
H432 H 0.27449 0.58458 0.74912 0.0
O433 O 0.27927 0.61414 0.60373 0.0
O434 O 0.3079 0.5774 0.57543 0.0
H435 H 0.32585 0.49881 0.64223 0.0
H436 H 0.33761 0.48966 0.68696 0.0
C437 C 0.34002 0.50705 0.66516 0.0
H438 H 0.36534 0.50856 0.65678 0.0
H439 H 0.34124 0.5072 0.57345 0.0
O440 O 0.27768 0.65439 0.67516 0.0
C441 C 0.2832 0.59514 0.5779 0.0
Co442 Co 0.8863 0.30965 0.63542 0.0
Co443 Co 0.94481 0.34217 0.59959 0.0
C444 C 0.87596 0.36532 0.5908 0.0
O445 O 0.86457 0.34594 0.61292 0.0
O446 O 0.90558 0.36512 0.58383 0.0
C447 C 0.83289 0.30669 0.67963 0.0
O448 O 0.8373 0.33765 0.67997 0.0
C449 C 0.97377 0.40301 0.58681 0.0
C450 C 0.01136 0.39296 0.54792 0.0
C451 C 0.99452 0.41777 0.56343 0.0
N452 N 0.97746 0.37124 0.58447 0.0
N453 N 1.00039 0.36535 0.56153 0.0
C454 C 0.95013 0.41862 0.61081 0.0
H455 H 0.94542 0.40312 0.63387 0.0
H456 H 0.95911 0.44214 0.61973 0.0
H457 H 0.92724 0.42229 0.59671 0.0
C458 C 0.92855 0.30917 0.69618 0.0
N459 N 0.92129 0.32054 0.66408 0.0
N460 N 0.94716 0.33214 0.64925 0.0
C461 C 0.97204 0.32768 0.67158 0.0
C462 C 0.96095 0.31296 0.70214 0.0
C463 C 0.90593 0.29039 0.71851 0.0
H464 H 0.8845 0.305 0.72409 0.0
H465 H 0.91681 0.28322 0.74392 0.0
H466 H 0.89837 0.2687 0.70407 0.0
O467 O 0.90133 0.27969 0.59802 0.0
O468 O 0.94375 0.30175 0.57203 0.0
H469 H 0.01263 0.3163 0.64018 0.0
H470 H 0.02228 0.32926 0.68442 0.0
C471 C 0.0061 0.333 0.66163 0.0
H472 H 0.00893 0.35755 0.65133 0.0
H473 H 0.00689 0.34257 0.5532 0.0
O474 O 0.85245 0.28906 0.66303 0.0
C475 C 0.92366 0.27901 0.57512 0.0
Co476 Co 0.19652 0.88184 0.64304 0.0
Co477 Co 0.16655 0.9348 0.59519 0.0
C478 C 0.14348 0.86533 0.59656 0.0
O479 O 0.16167 0.85722 0.62171 0.0
O480 O 0.14408 0.89356 0.58445 0.0
C481 C 0.20326 0.83328 0.69563 0.0
O482 O 0.17196 0.83193 0.69377 0.0
C483 C 0.10733 0.96696 0.57317 0.0
C484 C 0.12433 0.99992 0.53226 0.0
C485 C 0.09657 0.98772 0.547 0.0
N486 N 0.13959 0.96666 0.57323 0.0
N487 N 0.14953 0.98694 0.54911 0.0
C488 C 0.08752 0.94527 0.59543 0.0
H489 H 0.10275 0.92891 0.61097 0.0
H490 H 0.07342 0.95962 0.61432 0.0
H491 H 0.07072 0.93153 0.57869 0.0
C492 C 0.19215 0.93074 0.69643 0.0
N493 N 0.18299 0.91966 0.66481 0.0
N494 N 0.17391 0.94353 0.64472 0.0
C495 C 0.17866 0.97095 0.66282 0.0
C496 C 0.19024 0.96365 0.69636 0.0
C497 C 0.2084 0.91081 0.72383 0.0
H498 H 0.23208 0.90307 0.71396 0.0
H499 H 0.19369 0.88951 0.72936 0.0
H500 H 0.21195 0.92397 0.74881 0.0
O501 O 0.22879 0.89283 0.60636 0.0
O502 O 0.20902 0.9307 0.57136 0.0
H503 H 0.19491 0.00474 0.62502 0.0
H504 H 0.18158 0.02222 0.6661 0.0
C505 C 0.177 1.00322 0.64643 0.0
H506 H 0.15309 0.00666 0.63439 0.0
H507 H 0.17347 0.99038 0.54256 0.0
O508 O 0.21816 0.85335 0.67683 0.0
C509 C 0.23151 0.91169 0.58021 0.0
Co510 Co 0.62758 0.198 0.63635 0.0
Co511 Co 0.57183 0.16115 0.59981 0.0
C512 C 0.64098 0.13894 0.5966 0.0
O513 O 0.65012 0.16113 0.61676 0.0
O514 O 0.61181 0.13651 0.58766 0.0
C515 C 0.67969 0.20337 0.68244 0.0
O516 O 0.67547 0.17243 0.68436 0.0
C517 C 0.5364 0.10205 0.59003 0.0
C518 C 0.50361 0.11401 0.54655 0.0
C519 C 0.51495 0.08858 0.56625 0.0
N520 N 0.53786 0.13367 0.58426 0.0
N521 N 0.51771 0.14073 0.55864 0.0
C522 C 0.55834 0.08484 0.61465 0.0
H523 H 0.57056 0.06506 0.60069 0.0
H524 H 0.57617 0.10132 0.62619 0.0
H525 H 0.54427 0.07455 0.63652 0.0
C526 C 0.58365 0.1996 0.69515 0.0
N527 N 0.59215 0.18731 0.66389 0.0
N528 N 0.5673 0.17374 0.64886 0.0
C529 C 0.54174 0.1778 0.6703 0.0
C530 C 0.55141 0.19438 0.7004 0.0
C531 C 0.60504 0.21995 0.7174 0.0
H532 H 0.6125 0.24119 0.70217 0.0
H533 H 0.62665 0.20619 0.72458 0.0
H534 H 0.59324 0.22787 0.742 0.0
O535 O 0.61328 0.22638 0.59745 0.0
O536 O 0.57382 0.20045 0.57019 0.0
H537 H 0.50195 0.18288 0.6356 0.0
H538 H 0.49114 0.17594 0.68117 0.0
C539 C 0.50828 0.16978 0.65998 0.0
H540 H 0.50675 0.14397 0.65398 0.0
H541 H 0.51531 0.16337 0.54767 0.0
O542 O 0.66038 0.22003 0.66429 0.0
C543 C 0.59216 0.22459 0.57327 0.0
H544 H 0.68985 0.0358 0.26117 0.0
H545 H 0.75754 0.03273 0.17623 0.0
H546 H 0.80144 0.02645 0.21824 0.0
H547 H 0.82097 0.03281 0.2794 0.0
H548 H 0.75322 0.03609 0.3643 0.0
H549 H 0.70906 0.03063 0.32252 0.0
C550 C 0.71407 0.0322 0.25191 0.0
C551 C 0.72045 0.03441 0.21567 0.0
C552 C 0.73929 0.02921 0.27639 0.0
C553 C 0.75202 0.03053 0.20396 0.0
C554 C 0.77718 0.02741 0.22804 0.0
C555 C 0.79659 0.03085 0.28875 0.0
C556 C 0.79033 0.03458 0.32488 0.0
C557 C 0.77124 0.02822 0.26438 0.0
C558 C 0.75862 0.03275 0.33668 0.0
C559 C 0.73333 0.03005 0.31271 0.0
H560 H 0.49166 0.75126 0.34767 0.0
H561 H 0.48194 0.83946 0.29128 0.0
H562 H 0.48888 0.81143 0.23542 0.0
H563 H 0.48208 0.7607 0.20349 0.0
H564 H 0.48587 0.67228 0.26034 0.0
H565 H 0.49769 0.701 0.31483 0.0
C566 C 0.49306 0.76449 0.32323 0.0
C567 C 0.48653 0.79742 0.32355 0.0
C568 C 0.49511 0.74781 0.29111 0.0
C569 C 0.48744 0.81426 0.29172 0.0
C570 C 0.49078 0.79806 0.2597 0.0
C571 C 0.48734 0.74773 0.22747 0.0
C572 C 0.48341 0.71442 0.22793 0.0
C573 C 0.49243 0.76464 0.25904 0.0
C574 C 0.4893 0.69783 0.25928 0.0
C575 C 0.49555 0.71435 0.29056 0.0
H576 H 0.6892 0.47318 0.28386 0.0
H577 H 0.7585 0.47545 0.36747 0.0
H578 H 0.80161 0.48172 0.32469 0.0
H579 H 0.81989 0.47492 0.26322 0.0
H580 H 0.75059 0.47263 0.17961 0.0
H581 H 0.70726 0.47874 0.22219 0.0
C582 C 0.71359 0.47667 0.29267 0.0
C583 C 0.72068 0.47414 0.32875 0.0
C584 C 0.73835 0.47969 0.26774 0.0
C585 C 0.75245 0.47788 0.33989 0.0
C586 C 0.77716 0.481 0.31535 0.0
C587 C 0.7954 0.47736 0.25431 0.0
C588 C 0.78841 0.47362 0.21833 0.0
C589 C 0.77053 0.48035 0.27914 0.0
C590 C 0.75653 0.476 0.2071 0.0
C591 C 0.73172 0.47905 0.23154 0.0
H592 H 0.03183 0.75145 0.34494 0.0
H593 H 0.03363 0.67008 0.27623 0.0
H594 H 0.02703 0.70476 0.22503 0.0
H595 H 0.03438 0.7585 0.19996 0.0
H596 H 0.03677 0.83977 0.26881 0.0
H597 H 0.02725 0.80538 0.31964 0.0
C598 C 0.02901 0.74131 0.31887 0.0
C599 C 0.03288 0.70827 0.3143 0.0
C600 C 0.02665 0.76163 0.28946 0.0
C601 C 0.03015 0.69537 0.28037 0.0
C602 C 0.02689 0.7153 0.25105 0.0
C603 C 0.03105 0.76875 0.2259 0.0
C604 C 0.03589 0.80164 0.23068 0.0
C605 C 0.02699 0.74854 0.25517 0.0
C606 C 0.03253 0.81463 0.26449 0.0
C607 C 0.0276 0.79485 0.29361 0.0
H608 H 0.25587 0.98596 0.83744 0.0
H609 H 0.33859 0.97787 0.77114 0.0
H610 H 0.30554 0.98682 0.71898 0.0
H611 H 0.25188 0.98218 0.69253 0.0
H612 H 0.16894 0.98592 0.75896 0.0
H613 H 0.20283 0.99444 0.81055 0.0
C614 C 0.26681 0.98804 0.81171 0.0
C615 C 0.29965 0.98155 0.8081 0.0
C616 C 0.2473 0.9917 0.7817 0.0
C617 C 0.3135 0.98335 0.77458 0.0
C618 C 0.29445 0.98792 0.74468 0.0
C619 C 0.24125 0.98675 0.71804 0.0
C620 C 0.20796 0.98369 0.72196 0.0
C621 C 0.2611 0.99009 0.74782 0.0
C622 C 0.19442 0.98873 0.75525 0.0
C623 C 0.2139 0.99303 0.78486 0.0
H624 H 0.52765 0.25296 0.84641 0.0
H625 H 0.53068 0.33871 0.78475 0.0
H626 H 0.52435 0.30756 0.73073 0.0
H627 H 0.53125 0.25556 0.70128 0.0
H628 H 0.53315 0.16986 0.76314 0.0
H629 H 0.52346 0.20086 0.81664 0.0
C630 C 0.52516 0.26484 0.82123 0.0
C631 C 0.52917 0.29812 0.81954 0.0
C632 C 0.52309 0.24653 0.7902 0.0
C633 C 0.52699 0.31325 0.78674 0.0
C634 C 0.5239 0.29533 0.7558 0.0
C635 C 0.52782 0.24362 0.72629 0.0
C636 C 0.53247 0.21043 0.72828 0.0
C637 C 0.52374 0.26187 0.75713 0.0
C638 C 0.52904 0.19525 0.7609 0.0
C639 C 0.52399 0.21309 0.79157 0.0
H640 H 0.25257 0.51994 0.70655 0.0
H641 H 0.33734 0.53198 0.76911 0.0
H642 H 0.30653 0.52323 0.82282 0.0
H643 H 0.25379 0.52734 0.85127 0.0
H644 H 0.1686 0.52077 0.78837 0.0
H645 H 0.20078 0.51119 0.73577 0.0
C646 C 0.26451 0.51871 0.73186 0.0
C647 C 0.29722 0.52631 0.73393 0.0
C648 C 0.2462 0.51539 0.76272 0.0
C649 C 0.31235 0.52565 0.76686 0.0
C650 C 0.29455 0.52121 0.79763 0.0
C651 C 0.24234 0.52192 0.82636 0.0
C652 C 0.20888 0.52447 0.82367 0.0
C653 C 0.26118 0.51816 0.79593 0.0
C654 C 0.19425 0.51837 0.79114 0.0
C655 C 0.21274 0.51345 0.76094 0.0
H656 H 0.98376 0.25484 0.8492 0.0
H657 H 0.97983 0.16864 0.78823 0.0
H658 H 0.98579 0.19933 0.73392 0.0
H659 H 0.97928 0.2512 0.70403 0.0
H660 H 0.97858 0.33739 0.76522 0.0
H661 H 0.98794 0.30668 0.819 0.0
C662 C 0.98596 0.24276 0.82409 0.0
C663 C 0.98185 0.20948 0.82268 0.0
C664 C 0.98783 0.26081 0.7929 0.0
C665 C 0.98363 0.1941 0.78999 0.0
C666 C 0.98649 0.21176 0.75889 0.0
C667 C 0.98281 0.26326 0.72897 0.0
C668 C 0.97872 0.29654 0.7307 0.0
C669 C 0.98684 0.24522 0.75995 0.0
C670 C 0.98227 0.31191 0.76322 0.0
C671 C 0.98717 0.29426 0.79403 0.0
H672 H 0.44129 0.99068 0.04253 0.0
H673 H 0.46501 0.99393 0.93229 0.0
H674 H 0.52154 0.999 0.94692 0.0
H675 H 0.56452 1.00326 0.99112 0.0
H676 H 0.54083 0.99995 0.10135 0.0
H677 H 0.48431 0.99458 0.08672 0.0
C678 C 0.45882 0.9926 1.02168 0.0
C679 C 0.44879 0.99128 0.98628 0.0
C680 C 0.49143 0.99572 0.03034 0.0
C681 C 0.47192 0.99384 0.95968 0.0
C682 C 0.50435 0.99705 0.96807 0.0
C683 C 0.54701 1.00119 1.01196 0.0
C684 C 0.55701 1.0027 0.04736 0.0
C685 C 0.51442 0.9979 1.0033 0.0
C686 C 0.53391 0.99995 0.07396 0.0
C687 C 0.5015 0.99656 0.06557 0.0
H688 H 0.46229 0.45913 1.00056 0.0
H689 H 0.565 0.46431 0.99526 0.0
H690 H 0.56362 0.51913 1.01557 0.0
H691 H 0.53338 0.56587 0.03678 0.0
H692 H 0.43078 0.56032 0.04322 0.0
H693 H 0.43207 0.50579 1.02157 0.0
C694 C 0.48436 0.47233 1.00362 0.0
C695 C 0.51358 0.45768 0.995 0.0
C696 C 0.48349 0.50388 1.01632 0.0
C697 C 0.54197 0.47511 0.99979 0.0
C698 C 0.54128 0.50651 1.0121 0.0
C699 C 0.51134 0.55264 0.03353 0.0
C700 C 0.48214 0.56695 0.04282 0.0
C701 C 0.5122 0.52117 1.02055 0.0
C702 C 0.45375 0.54961 0.03791 0.0
C703 C 0.45441 0.51844 0.02497 0.0
H704 H 0.03983 0.51734 0.96407 0.0
H705 H 0.08358 0.51613 0.06672 0.0
H706 H 0.03109 0.51079 0.09415 0.0
H707 H 0.97241 0.50783 0.0891 0.0
H708 H 0.92877 0.50925 0.98636 0.0
H709 H 0.9812 0.51495 0.95904 0.0
C710 C 0.03785 0.51678 0.99245 0.0
C711 C 0.06563 0.51798 1.0133 0.0
C712 C 0.00748 0.51395 1.00811 0.0
C713 C 0.06261 0.51543 0.05002 0.0
C714 C 0.03255 0.5125 0.06577 0.0
C715 C 0.97439 0.50871 0.06073 0.0
C716 C 0.94663 0.5074 0.03983 0.0
C717 C 1.00477 0.51178 0.0451 0.0
C718 C 0.94969 0.51014 1.00313 0.0
C719 C 0.97972 0.51324 0.98743 0.0
H720 H 0.96556 0.04363 1.00913 0.0
H721 H 0.06562 0.06184 0.99163 0.0
H722 H 0.07873 0.00834 1.01248 0.0
H723 H 0.06178 0.95623 0.03519 0.0
H724 H 0.96176 0.93766 0.05194 0.0
H725 H 0.94849 0.99107 0.03057 0.0
C726 C 0.99016 0.03573 1.00888 0.0
C727 C 0.0145 0.05666 0.9979 0.0
C728 C 0.99753 0.00483 1.02089 0.0
C729 C 0.04638 0.04623 0.9996 0.0
C730 C 0.0539 0.01561 1.01153 0.0
C731 C 0.03713 0.96404 0.03486 0.0
C732 C 0.01284 0.9432 0.04606 0.0
C733 C 0.0297 0.99474 1.02238 0.0
C734 C 0.98091 0.95331 0.04382 0.0
C735 C 0.97333 0.98387 0.03162 0.0
H736 H 0.46298 0.55845 0.54416 0.0
H737 H 0.44525 0.45882 0.56314 0.0
H738 H 0.49817 0.44551 0.54036 0.0
H739 H 0.54977 0.46219 0.51598 0.0
H740 H 0.56769 0.56169 0.49659 0.0
H741 H 0.51484 0.57516 0.51973 0.0
C742 C 0.4709 0.5339 0.5441 0.0
C743 C 0.45032 0.50972 0.55618 0.0
C744 C 0.50141 0.52639 0.53077 0.0
C745 C 0.46064 0.47791 0.55433 0.0
C746 C 0.49093 0.47028 0.54128 0.0
C747 C 0.54192 0.48675 0.51592 0.0
C748 C 0.56247 0.51081 0.50356 0.0
C749 C 0.51149 0.4943 0.52932 0.0
C750 C 0.55228 0.54266 0.50553 0.0
C751 C 0.52204 0.55038 0.51878 0.0
H752 H 0.04563 0.45329 0.54332 0.0
H753 H 0.94323 0.45768 0.55377 0.0
H754 H 0.94306 0.51223 0.53251 0.0
H755 H 0.97182 0.55898 0.50938 0.0
H756 H 0.0742 0.55458 0.49878 0.0
H757 H 0.07443 0.50017 0.52059 0.0
C758 C 0.02332 0.4663 0.54116 0.0
C759 C 0.99467 0.45159 0.55149 0.0
C760 C 0.02328 0.49772 0.52808 0.0
C761 C 0.96589 0.46866 0.54786 0.0
C762 C 0.96567 0.49986 0.53504 0.0
C763 C 0.99414 0.54602 0.51172 0.0
C764 C 0.02276 0.56061 0.5011 0.0
C765 C 0.99421 0.51468 0.52501 0.0
C766 C 0.05156 0.54363 0.50495 0.0
C767 C 0.05181 0.51252 0.51804 0.0
H768 H 0.96895 0.00527 0.45869 0.0
H769 H 0.92681 0.99414 0.56134 0.0
H770 H 0.97977 0.98808 0.58737 0.0
H771 H 0.03825 0.98769 0.58145 0.0
H772 H 0.08042 0.99849 0.47873 0.0
H773 H 0.02749 0.00448 0.45273 0.0
C774 C 0.97125 1.00216 0.48681 0.0
C775 C 0.94368 1.00082 0.50797 0.0
C776 C 1.00196 0.99884 0.50177 0.0
C777 C 0.94745 0.99531 0.54426 0.0
C778 C 0.97783 0.99199 0.55928 0.0
C779 C 0.03604 0.99061 0.55333 0.0
C780 C 0.06365 0.99196 0.53218 0.0
C781 C 1.00532 0.9938 0.53834 0.0
C782 C 0.05982 0.99731 0.49585 0.0
C783 C 0.02944 1.0006 0.48083 0.0
H784 H 0.49701 0.939 0.55544 0.0
H785 H 0.49752 0.96142 0.4448 0.0
H786 H 0.50321 0.01792 0.45845 0.0
H787 H 0.50877 0.06117 0.50188 0.0
H788 H 0.5083 0.03876 0.61251 0.0
H789 H 0.50231 0.98227 0.59887 0.0
C790 C 0.49847 0.95624 0.53429 0.0
C791 C 0.49617 0.94589 0.4991 0.0
C792 C 0.50197 0.98879 0.54238 0.0
C793 C 0.49816 0.96862 0.47208 0.0
C794 C 0.50173 1.00101 0.4799 0.0
C795 C 0.50719 0.04394 0.52303 0.0
C796 C 0.50966 0.05425 0.55821 0.0
C797 C 0.50355 0.0114 0.51495 0.0
C798 C 0.50754 0.03154 0.58523 0.0
C799 C 0.5038 0.99918 0.57743 0.0
H800 H 0.57896 0.21839 0.96524 0.0
H801 H 0.57822 0.28743 0.04902 0.0
H802 H 0.59186 0.24577 0.09161 0.0
H803 H 0.61257 0.19153 0.10271 0.0
H804 H 0.61095 0.12221 1.01889 0.0
H805 H 0.58894 0.16189 0.9788 0.0
C806 C 0.58079 0.22402 0.99302 0.0
C807 C 0.57781 0.2558 1.00409 0.0
C808 C 0.58857 0.19997 1.01723 0.0
C809 C 0.58018 0.26301 0.04005 0.0
C810 C 0.5883 0.23926 0.0643 0.0
C811 C 0.60662 0.18492 0.07591 0.0
C812 C 0.61396 0.15411 0.06367 0.0
C813 C 0.59384 0.20791 0.05291 0.0
C814 C 0.6057 0.14576 0.02901 0.0
C815 C 0.59331 0.16853 1.00594 0.0
H816 H 0.23605 0.59794 0.03795 0.0
H817 H 0.2945 0.59892 0.94482 0.0
H818 H 0.34164 0.6114 0.98023 0.0
H819 H 0.36464 0.62896 0.03622 0.0
H820 H 0.30505 0.63424 0.12846 0.0
H821 H 0.26022 0.61204 0.09523 0.0
C822 C 0.2593 0.6001 0.02567 0.0
C823 C 0.26195 0.59737 0.98893 0.0
C824 C 0.28604 0.60879 0.04605 0.0
C825 C 0.292 0.60088 0.97309 0.0
C826 C 0.31891 0.60813 0.99331 0.0
C827 C 0.34206 0.62458 0.04929 0.0
C828 C 0.3382 0.63332 0.08477 0.0
C829 C 0.31602 0.61316 0.02963 0.0
C830 C 0.30864 0.62781 0.10115 0.0
C831 C 0.28294 0.61523 0.08212 0.0
H832 H 0.93106 0.28933 0.96923 0.0
H833 H 0.93074 0.21989 0.0525 0.0
H834 H 0.91706 0.26142 0.09523 0.0
H835 H 0.89677 0.31577 0.10654 0.0
H836 H 0.89959 0.38552 1.0233 0.0
H837 H 0.92147 0.34585 0.98314 0.0
C838 C 0.92896 0.28358 0.99694 0.0
C839 C 0.93167 0.25173 1.00782 0.0
C840 C 0.92122 0.30757 1.02126 0.0
C841 C 0.92897 0.24435 0.04368 0.0
C842 C 0.92084 0.26804 0.06801 0.0
C843 C 0.90296 0.32248 0.07986 0.0
C844 C 0.89596 0.35342 0.06778 0.0
C845 C 0.91565 0.2995 0.05681 0.0
C846 C 0.90454 0.36187 0.03329 0.0
C847 C 0.91686 0.33911 1.01017 0.0
H848 H 0.27255 0.92026 0.02752 0.0
H849 H 0.21274 0.9107 0.93579 0.0
H850 H 0.1664 0.9003 0.97301 0.0
H851 H 0.14464 0.88655 0.03084 0.0
H852 H 0.20567 0.89014 0.12221 0.0
H853 H 0.24943 0.91067 0.0863 0.0
C854 C 0.24917 0.91672 1.01584 0.0
C855 C 0.24598 0.91631 0.97902 0.0
C856 C 0.22287 0.90931 0.03741 0.0
C857 C 0.21572 0.91108 0.9641 0.0
C858 C 0.18925 0.90504 0.98536 0.0
C859 C 0.16725 0.8926 0.04307 0.0
C860 C 0.17187 0.88676 0.07915 0.0
C861 C 0.19275 0.90301 1.02198 0.0
C862 C 0.2015 0.89433 0.09447 0.0
C863 C 0.2266 0.90594 0.0739 0.0
H864 H 0.61995 0.31389 0.44526 0.0
H865 H 0.61633 0.3849 0.52725 0.0
H866 H 0.59823 0.34488 0.56912 0.0
H867 H 0.59161 0.28821 0.58442 0.0
H868 H 0.59222 0.21753 0.50228 0.0
H869 H 0.60306 0.25884 0.45842 0.0
C870 C 0.6144 0.32075 0.47207 0.0
C871 C 0.62003 0.35224 0.48321 0.0
C872 C 0.6039 0.29757 0.49611 0.0
C873 C 0.61233 0.36085 0.51793 0.0
C874 C 0.60222 0.33789 0.54204 0.0
C875 C 0.59336 0.28207 0.55677 0.0
C876 C 0.59149 0.24999 0.54649 0.0
C877 C 0.5992 0.30597 0.53175 0.0
C878 C 0.59351 0.24216 0.51067 0.0
C879 C 0.59992 0.26573 0.48567 0.0
H880 H 0.20297 0.6289 0.44311 0.0
H881 H 0.12637 0.62322 0.51877 0.0
H882 H 0.16356 0.60452 0.5634 0.0
H883 H 0.21885 0.59612 0.58317 0.0
H884 H 0.29534 0.59829 0.50764 0.0
H885 H 0.2573 0.61165 0.4608 0.0
C886 C 0.19432 0.623 0.46916 0.0
C887 C 0.16195 0.62809 0.4776 0.0
C888 C 0.2159 0.61186 0.49491 0.0
C889 C 0.15113 0.61984 0.51143 0.0
C890 C 0.17244 0.60924 0.53716 0.0
C891 C 0.22701 0.59885 0.55627 0.0
C892 C 0.25977 0.59649 0.54881 0.0
C893 C 0.205 0.60614 0.52952 0.0
C894 C 0.27016 0.59984 0.51391 0.0
C895 C 0.24844 0.60772 0.4872 0.0
H896 H 0.89585 0.18892 0.44734 0.0
H897 H 0.88312 0.12129 0.53152 0.0
H898 H 0.90205 0.16049 0.57405 0.0
H899 H 0.91497 0.21628 0.58821 0.0
H900 H 0.93072 0.28322 0.50423 0.0
H901 H 0.91827 0.242 0.46071 0.0
C902 C 0.89791 0.18257 0.47489 0.0
C903 C 0.88762 0.15238 0.48628 0.0
C904 C 0.90906 0.20521 0.49929 0.0
C905 C 0.89081 0.14434 0.52201 0.0
C906 C 0.90142 0.16685 0.54644 0.0
C907 C 0.91641 0.22155 0.56032 0.0
C908 C 0.92344 0.25269 0.54934 0.0
C909 C 0.90952 0.19768 0.53553 0.0
C910 C 0.92549 0.25932 0.51323 0.0
C911 C 0.91811 0.23583 0.48837 0.0
H912 H 0.3667 0.87936 0.51845 0.0
H913 H 0.31083 0.8691 0.4238 0.0
H914 H 0.26405 0.89093 0.45383 0.0
H915 H 0.23726 0.90655 0.50914 0.0
H916 H 0.29208 0.91076 0.60498 0.0
H917 H 0.34089 0.89821 0.57256 0.0
C918 C 0.3445 0.88263 0.50417 0.0
C919 C 0.3423 0.87267 0.46891 0.0
C920 C 0.31731 0.8939 0.52205 0.0
C921 C 0.31316 0.87656 0.45096 0.0
C922 C 0.28635 0.88894 0.46817 0.0
C923 C 0.26007 0.90549 0.52264 0.0
C924 C 0.26121 0.90978 0.5593 0.0
C925 C 0.28785 0.89679 0.50402 0.0
C926 C 0.29073 0.90763 0.57673 0.0
C927 C 0.3186 0.90034 0.55822 0.0
H928 H 0.40984 0.73964 1.01046 0.0
H929 H 0.40576 0.80049 0.10165 0.0
H930 H 0.39475 0.84655 0.06426 0.0
H931 H 0.37989 0.86823 1.00672 0.0
H932 H 0.37772 0.80646 0.91612 0.0
H933 H 0.3979 0.7623 0.95183 0.0
C934 C 0.40725 0.76315 1.02193 0.0
C935 C 0.40874 0.76677 0.05869 0.0
C936 C 0.39949 0.78933 1.00034 0.0
C937 C 0.40471 0.79719 0.0734 0.0
C938 C 0.39834 0.8235 0.05204 0.0
C939 C 0.38455 0.84532 0.99458 0.0
C940 C 0.37737 0.8407 0.95876 0.0
C941 C 0.39476 0.8197 1.0156 0.0
C942 C 0.38304 0.81066 0.94362 0.0
C943 C 0.39446 0.78536 0.96408 0.0
H944 H 0.72217 0.41385 0.08081 0.0
H945 H 0.79141 0.41332 0.99721 0.0
H946 H 0.74967 0.39915 0.95471 0.0
H947 H 0.69447 0.38096 0.94295 0.0
H948 H 0.62464 0.38555 0.0261 0.0
H949 H 0.66531 0.40469 0.06693 0.0
C950 C 0.72787 0.41132 0.05312 0.0
C951 C 0.7597 0.41441 0.04204 0.0
C952 C 0.70366 0.40374 0.02882 0.0
C953 C 0.76696 0.41122 1.00619 0.0
C954 C 0.74315 0.40291 0.98197 0.0
C955 C 0.68806 0.3868 0.96981 0.0
C956 C 0.65663 0.38143 0.98152 0.0
C957 C 0.71156 0.39824 0.99317 0.0
C958 C 0.6486 0.38944 1.01633 0.0
C959 C 0.67193 0.40019 0.03983 0.0
H960 H 0.09875 0.77325 1.01539 0.0
H961 H 0.11198 0.71847 0.11012 0.0
H962 H 0.12142 0.67044 0.07529 0.0
H963 H 0.13221 0.64551 1.01827 0.0
H964 H 0.12547 0.70147 0.92353 0.0
H965 H 0.10676 0.74726 0.95767 0.0
C966 C 0.10304 0.75062 0.02829 0.0
C967 C 0.1046 0.7493 0.06522 0.0
C968 C 0.10985 0.72333 1.00802 0.0
C969 C 0.11075 0.72001 0.0817 0.0
C970 C 0.11619 0.69257 0.0618 0.0
C971 C 0.12589 0.66748 1.00498 0.0
C972 C 0.1301 0.67003 0.96838 0.0
C973 C 0.11668 0.69412 0.02497 0.0
C974 C 0.12238 0.69888 0.95166 0.0
C975 C 0.11184 0.72513 0.97121 0.0
H976 H 0.78775 0.09212 0.08041 0.0
H977 H 0.72045 0.0928 0.99466 0.0
H978 H 0.76331 0.1062 0.95341 0.0
H979 H 0.8188 0.12408 0.94338 0.0
H980 H 0.88673 0.1196 0.02864 0.0
H981 H 0.84505 0.10064 0.06824 0.0
C982 C 0.78272 0.0945 0.05254 0.0
C983 C 0.7511 0.09172 0.04049 0.0
C984 C 0.80757 0.10166 0.02896 0.0
C985 C 0.74471 0.09468 1.00439 0.0
C986 C 0.76916 0.10255 0.98089 0.0
C987 C 0.82461 0.11822 0.97042 0.0
C988 C 0.85576 0.12362 0.98311 0.0
C989 C 0.80053 0.107 0.99305 0.0
C990 C 0.863 0.11564 1.01814 0.0
C991 C 0.83909 0.10504 0.04093 0.0
H992 H 0.41285 0.77243 0.54752 0.0
H993 H 0.43262 0.70962 0.46065 0.0
H994 H 0.4226 0.66326 0.4979 0.0
H995 H 0.39969 0.64127 0.55181 0.0
H996 H 0.37373 0.70429 0.63674 0.0
H997 H 0.3951 0.74965 0.60416 0.0
C998 C 0.41591 0.74852 0.53723 0.0
C999 C 0.42366 0.74427 0.50158 0.0
C1000 C 0.4085 0.72201 0.55839 0.0
C1001 C 0.42683 0.7133 0.48812 0.0
C1002 C 0.42092 0.68685 0.50935 0.0
C1003 C 0.39951 0.66477 0.56366 0.0
C1004 C 0.38492 0.66936 0.5966 0.0
C1005 C 0.41048 0.69095 0.54409 0.0
C1006 C 0.38466 0.70009 0.61135 0.0
C1007 C 0.39674 0.7261 0.59264 0.0
H1008 H 0.78998 0.41555 0.46764 0.0
H1009 H 0.72019 0.41938 0.55061 0.0
H1010 H 0.76133 0.40572 0.59398 0.0
H1011 H 0.8158 0.38597 0.60672 0.0
H1012 H 0.88622 0.38588 0.524 0.0
H1013 H 0.84649 0.40545 0.48233 0.0
C1014 C 0.78405 0.41414 0.49536 0.0
C1015 C 0.75222 0.41821 0.50603 0.0
C1016 C 0.8079 0.40674 0.52013 0.0
C1017 C 0.74466 0.4165 0.54193 0.0
C1018 C 0.76811 0.40846 0.56666 0.0
C1019 C 0.82258 0.39093 0.57976 0.0
C1020 C 0.85381 0.384 0.5684 0.0
C1021 C 0.79962 0.40254 0.55588 0.0
C1022 C 0.86236 0.39093 0.53348 0.0
C1023 C 0.83957 0.40191 0.5095 0.0
H1024 H 0.08914 0.73811 0.53259 0.0
H1025 H 0.09935 0.79264 0.43735 0.0
H1026 H 0.11102 0.84051 0.47167 0.0
H1027 H 0.12535 0.86495 0.52807 0.0
H1028 H 0.12152 0.80894 0.62297 0.0
H1029 H 0.1 0.76384 0.58983 0.0
C1030 C 0.09311 0.76071 0.51953 0.0
C1031 C 0.0932 0.76202 0.48258 0.0
C1032 C 0.10134 0.7878 0.53943 0.0
C1033 C 0.09908 0.7912 0.4658 0.0
C1034 C 0.10588 0.8185 0.4854 0.0
C1035 C 0.11908 0.84313 0.54165 0.0
C1036 C 0.12503 0.84033 0.57794 0.0
C1037 C 0.1081 0.81686 0.52217 0.0
C1038 C 0.11722 0.8117 0.59504 0.0
C1039 C 0.10503 0.78585 0.57606 0.0
H1040 H 0.64313 0.12061 0.52836 0.0
H1041 H 0.69551 0.11545 0.6258 0.0
H1042 H 0.74193 0.09385 0.5948 0.0
H1043 H 0.77011 0.08383 0.53881 0.0
H1044 H 0.71949 0.09591 0.44101 0.0
H1045 H 0.67005 0.10698 0.47294 0.0
C1046 C 0.66439 0.11381 0.54289 0.0
C1047 C 0.66583 0.11932 0.57933 0.0
C1048 C 0.69156 0.10305 0.52459 0.0
C1049 C 0.69381 0.11121 0.59775 0.0
C1050 C 0.72042 0.09907 0.57999 0.0
C1051 C 0.74801 0.08808 0.52464 0.0
C1052 C 0.74829 0.0889 0.48768 0.0
C1053 C 0.71998 0.09595 0.54324 0.0
C1054 C 0.71974 0.09513 0.4695 0.0
C1055 C 0.69151 0.10155 0.48774 0.0
H1056 H 0.74882 0.31913 0.18522 0.0
H1057 H 0.83845 0.26828 0.18539 0.0
H1058 H 0.81008 0.21778 0.19031 0.0
H1059 H 0.75994 0.18816 0.18398 0.0
H1060 H 0.67034 0.23903 0.18226 0.0
H1061 H 0.69857 0.28944 0.18918 0.0
C1062 C 0.76215 0.29702 0.18702 0.0
C1063 C 0.79559 0.29732 0.18403 0.0
C1064 C 0.74569 0.26808 0.18918 0.0
C1065 C 0.81265 0.26864 0.18723 0.0
C1066 C 0.79644 0.23973 0.18983 0.0
C1067 C 0.74658 0.21025 0.18579 0.0
C1068 C 0.71323 0.21001 0.18171 0.0
C1069 C 0.76297 0.23914 0.18915 0.0
C1070 C 0.69609 0.23864 0.18492 0.0
C1071 C 0.71222 0.2675 0.18869 0.0
H1072 H 0.19471 0.75594 0.22187 0.0
H1073 H 0.2405 0.84731 0.21069 0.0
H1074 H 0.29264 0.82264 0.21943 0.0
H1075 H 0.32472 0.77393 0.21462 0.0
H1076 H 0.27895 0.68234 0.22368 0.0
H1077 H 0.22747 0.70829 0.23275 0.0
C1078 C 0.21607 0.77052 0.22236 0.0
C1079 C 0.21402 0.80309 0.21431 0.0
C1080 C 0.24601 0.75608 0.22655 0.0
C1081 C 0.24159 0.82203 0.21615 0.0
C1082 C 0.27146 0.80791 0.22091 0.0
C1083 C 0.3036 0.75969 0.21952 0.0
C1084 C 0.30528 0.72638 0.21694 0.0
C1085 C 0.27397 0.77473 0.22366 0.0
C1086 C 0.27809 0.7081 0.22464 0.0
C1087 C 0.24858 0.72291 0.22959 0.0
H1088 H 0.76555 0.32027 0.36445 0.0
H1089 H 0.67553 0.27057 0.35871 0.0
H1090 H 0.70358 0.22018 0.35046 0.0
H1091 H 0.75333 0.18967 0.35518 0.0
H1092 H 0.84332 0.23925 0.3627 0.0
H1093 H 0.81562 0.29028 0.35914 0.0
C1094 C 0.75207 0.29848 0.36077 0.0
C1095 C 0.71858 0.29899 0.3631 0.0
C1096 C 0.76833 0.26954 0.35664 0.0
C1097 C 0.70137 0.27075 0.35747 0.0
C1098 C 0.71738 0.24189 0.3529 0.0
C1099 C 0.76693 0.21164 0.35533 0.0
C1100 C 0.80021 0.21073 0.36011 0.0
C1101 C 0.75083 0.24088 0.35404 0.0
C1102 C 0.81762 0.23931 0.35946 0.0
C1103 C 0.80179 0.26853 0.35765 0.0
H1104 H 0.28374 0.80152 0.33229 0.0
H1105 H 0.34279 0.71926 0.35252 0.0
H1106 H 0.29741 0.68424 0.3419 0.0
H1107 H 0.23932 0.67855 0.34289 0.0
H1108 H 0.17959 0.76139 0.3295 0.0
H1109 H 0.22674 0.79445 0.32013 0.0
C1110 C 0.28688 0.77591 0.33336 0.0
C1111 C 0.31611 0.76299 0.34455 0.0
C1112 C 0.26036 0.75601 0.32892 0.0
C1113 C 0.32014 0.72976 0.34503 0.0
C1114 C 0.2942 0.70972 0.33901 0.0
C1115 C 0.2366 0.70364 0.33679 0.0
C1116 C 0.20629 0.71783 0.3381 0.0
C1117 C 0.26381 0.72274 0.33347 0.0
C1118 C 0.20292 0.75021 0.3296 0.0
C1119 C 0.22984 0.76912 0.3244 0.0
H1120 H 0.31452 0.77341 0.8245 0.0
H1121 H 0.23239 0.83547 0.82567 0.0
H1122 H 0.19709 0.7898 0.81782 0.0
H1123 H 0.18961 0.73255 0.82708 0.0
H1124 H 0.27185 0.67075 0.83217 0.0
H1125 H 0.30697 0.71574 0.82016 0.0
C1126 C 0.28897 0.77703 0.82195 0.0
C1127 C 0.27592 0.80749 0.827 0.0
C1128 C 0.26877 0.75055 0.81931 0.0
C1129 C 0.24286 0.812 0.82292 0.0
C1130 C 0.22267 0.7859 0.81856 0.0
C1131 C 0.21513 0.72877 0.8245 0.0
C1132 C 0.2283 0.69874 0.83186 0.0
C1133 C 0.23527 0.75499 0.81935 0.0
C1134 C 0.2613 0.69397 0.82768 0.0
C1135 C 0.28139 0.71968 0.82092 0.0
H1136 H 0.77805 0.19052 0.86225 0.0
H1137 H 0.83761 0.27428 0.86358 0.0
H1138 H 0.79076 0.30804 0.85513 0.0
H1139 H 0.7328 0.31395 0.85915 0.0
H1140 H 0.67317 0.23032 0.86338 0.0
H1141 H 0.72009 0.19626 0.85709 0.0
C1142 C 0.78085 0.21609 0.85979 0.0
C1143 C 0.81101 0.23001 0.86436 0.0
C1144 C 0.75373 0.23539 0.85638 0.0
C1145 C 0.81442 0.26313 0.86084 0.0
C1146 C 0.78768 0.28244 0.85607 0.0
C1147 C 0.73 0.2883 0.85778 0.0
C1148 C 0.69979 0.27458 0.86256 0.0
C1149 C 0.75713 0.2689 0.85565 0.0
C1150 C 0.69639 0.24135 0.86045 0.0
C1151 C 0.72317 0.22188 0.85693 0.0
H1152 H 0.3072 0.73222 0.72108 0.0
H1153 H 0.22539 0.6711 0.70759 0.0
H1154 H 0.18965 0.71635 0.71634 0.0
H1155 H 0.1827 0.77408 0.71199 0.0
H1156 H 0.26492 0.83552 0.71854 0.0
H1157 H 0.29932 0.78957 0.72945 0.0
C1158 C 0.28155 0.72867 0.72109 0.0
C1159 C 0.26886 0.69873 0.71246 0.0
C1160 C 0.26121 0.75504 0.72429 0.0
C1161 C 0.23564 0.69424 0.71319 0.0
C1162 C 0.21521 0.72009 0.71812 0.0
C1163 C 0.20799 0.77749 0.71692 0.0
C1164 C 0.22152 0.80786 0.71326 0.0
C1165 C 0.22781 0.75086 0.72119 0.0
C1166 C 0.25419 0.81212 0.72026 0.0
C1167 C 0.27387 0.78587 0.72634 0.0
H1168 H 0.82128 0.24513 0.69626 0.0
H1169 H 0.77696 0.33786 0.69189 0.0
H1170 H 0.72443 0.31369 0.69885 0.0
H1171 H 0.69112 0.26581 0.69473 0.0
H1172 H 0.73542 0.17304 0.69818 0.0
H1173 H 0.78791 0.19763 0.70385 0.0
C1174 C 0.80014 0.26005 0.6976 0.0
C1175 C 0.80279 0.29305 0.69261 0.0
C1176 C 0.77002 0.24598 0.70108 0.0
C1177 C 0.77544 0.3123 0.69525 0.0
C1178 C 0.74537 0.2985 0.69903 0.0
C1179 C 0.71223 0.25102 0.69752 0.0
C1180 C 0.7096 0.21778 0.69506 0.0
C1181 C 0.74233 0.26529 0.70018 0.0
C1182 C 0.73692 0.19876 0.69957 0.0
C1183 C 0.76697 0.21279 0.70258 0.0
loop_
_geom_bond_atom_site_label_1
_geom_bond_atom_site_label_2
_geom_bond_distance
_geom_bond_site_symmetry_2
_ccdc_geom_bond_type
Co0 O3 1.970 . S
Co0 N17 1.989 . S
Co0 O25 1.967 . S
Co0 O32 1.920 . S
Co1 O4 1.966 . S
Co1 N10 2.022 . S
Co1 N18 1.993 . S
Co1 O26 1.941 . S
C2 O3 1.258 . S
C2 O4 1.263 . S
O3 Co0 1.970 . S
O3 C2 1.258 . S
O4 Co1 1.966 . S
O4 C2 1.263 . S
C5 O6 1.235 . S
C5 O32 1.289 . S
O6 C5 1.235 . S
C7 C9 1.413 . S
C7 N10 1.351 . S
C7 C12 1.501 . S
C8 C9 1.380 1_565 S
C8 N11 1.341 1_565 S
C9 C7 1.413 . S
C9 C8 1.380 1_545 S
N10 Co1 2.022 . S
N10 C7 1.351 . S
N10 N11 1.365 . S
N11 C8 1.341 1_545 S
N11 N10 1.365 . S
N11 H31 0.862 1_545 S
C12 C7 1.501 . S
C12 H13 0.961 . S
C12 H14 0.961 . S
C12 H15 0.960 . S
H13 C12 0.961 . S
H14 C12 0.961 . S
H15 C12 0.960 . S
C16 N17 1.342 . S
C16 C20 1.401 . S
C16 C21 1.499 . S
N17 Co0 1.989 . S
N17 C16 1.342 . S
N17 N18 1.388 . S
N18 Co1 1.993 . S
N18 N17 1.388 . S
N18 C19 1.346 . S
C19 N18 1.346 . S
C19 C20 1.396 . S
C19 C29 1.510 . S
C20 C16 1.401 . S
C20 C19 1.396 . S
C21 C16 1.499 . S
C21 H22 0.959 . S
C21 H23 0.960 . S
C21 H24 0.961 . S
H22 C21 0.959 . S
H23 C21 0.960 . S
H24 C21 0.961 . S
O25 Co0 1.967 . S
O25 C33 1.258 . S
O26 Co1 1.941 . S
O26 C33 1.266 . S
H27 C29 0.959 . S
H28 C29 0.961 . S
C29 C19 1.510 . S
C29 H27 0.959 . S
C29 H28 0.961 . S
C29 H30 0.960 . S
H30 C29 0.960 . S
H31 N11 0.862 1_565 S
O32 Co0 1.920 . S
O32 C5 1.289 . S
C33 O25 1.258 . S
C33 O26 1.266 . S
Co34 O37 1.970 . S
Co34 N51 1.989 . S
Co34 O59 1.967 . S
Co34 O66 1.920 . S
Co35 O38 1.966 . S
Co35 N44 2.022 . S
Co35 N52 1.993 . S
Co35 O60 1.941 . S
C36 O37 1.258 . S
C36 O38 1.263 . S
O37 Co34 1.970 . S
O37 C36 1.258 . S
O38 Co35 1.966 . S
O38 C36 1.263 . S
C39 O40 1.235 . S
C39 O66 1.289 . S
O40 C39 1.235 . S
C41 C43 1.400 . S
C41 N44 1.351 . S
C41 C46 1.501 . S
C42 C43 1.387 . S
C42 N45 1.341 . S
C43 C41 1.400 . S
C43 C42 1.387 . S
N44 Co35 2.022 . S
N44 C41 1.351 . S
N44 N45 1.365 . S
N45 C42 1.341 . S
N45 N44 1.365 . S
N45 H65 0.862 . S
C46 C41 1.501 . S
C46 H47 0.961 . S
C46 H48 0.961 . S
C46 H49 0.960 . S
H47 C46 0.961 . S
H48 C46 0.961 . S
H49 C46 0.960 . S
C50 N51 1.342 . S
C50 C54 1.401 . S
C50 C55 1.499 . S
N51 Co34 1.989 . S
N51 C50 1.342 . S
N51 N52 1.388 . S
N52 Co35 1.993 . S
N52 N51 1.388 . S
N52 C53 1.346 . S
C53 N52 1.346 . S
C53 C54 1.396 . S
C53 C63 1.510 . S
C54 C50 1.401 . S
C54 C53 1.396 . S
C55 C50 1.499 . S
C55 H56 0.959 . S
C55 H57 0.960 . S
C55 H58 0.961 . S
H56 C55 0.959 . S
H57 C55 0.960 . S
H58 C55 0.961 . S
O59 Co34 1.967 . S
O59 C67 1.258 . S
O60 Co35 1.941 . S
O60 C67 1.266 . S
H61 C63 0.959 . S
H62 C63 0.961 . S
C63 C53 1.510 . S
C63 H61 0.959 . S
C63 H62 0.961 . S
C63 H64 0.960 . S
H64 C63 0.960 . S
H65 N45 0.862 . S
O66 Co34 1.920 . S
O66 C39 1.289 . S
C67 O59 1.258 . S
C67 O60 1.266 . S
Co68 O71 1.970 . S
Co68 N85 1.989 . S
Co68 O93 1.967 . S
Co68 O100 1.920 . S
Co69 O72 1.966 . S
Co69 N78 2.022 . S
Co69 N86 1.993 . S
Co69 O94 1.941 . S
C70 O71 1.258 . S
C70 O72 1.263 . S
O71 Co68 1.970 . S
O71 C70 1.258 . S
O72 Co69 1.966 . S
O72 C70 1.263 . S
C73 O74 1.235 . S
C73 O100 1.289 . S
O74 C73 1.235 . S
C75 C77 1.400 . S
C75 N78 1.351 . S
C75 C80 1.501 . S
C76 C77 1.387 . S
C76 N79 1.341 . S
C77 C75 1.400 . S
C77 C76 1.387 . S
N78 Co69 2.022 . S
N78 C75 1.351 . S
N78 N79 1.365 . S
N79 C76 1.341 . S
N79 N78 1.365 . S
N79 H99 0.862 . S
C80 C75 1.501 . S
C80 H81 0.961 . S
C80 H82 0.961 . S
C80 H83 0.960 . S
H81 C80 0.961 . S
H82 C80 0.961 . S
H83 C80 0.960 . S
C84 N85 1.342 . S
C84 C88 1.401 . S
C84 C89 1.499 . S
N85 Co68 1.989 . S
N85 C84 1.342 . S
N85 N86 1.388 . S
N86 Co69 1.993 . S
N86 N85 1.388 . S
N86 C87 1.346 . S
C87 N86 1.346 . S
C87 C88 1.396 . S
C87 C97 1.510 . S
C88 C84 1.401 . S
C88 C87 1.396 . S
C89 C84 1.499 . S
C89 H90 0.959 . S
C89 H91 0.960 . S
C89 H92 0.961 . S
H90 C89 0.959 . S
H91 C89 0.960 . S
H92 C89 0.961 . S
O93 Co68 1.967 . S
O93 C101 1.258 . S
O94 Co69 1.941 . S
O94 C101 1.266 . S
H95 C97 0.959 . S
H96 C97 0.961 . S
C97 C87 1.510 . S
C97 H95 0.959 . S
C97 H96 0.961 . S
C97 H98 0.960 . S
H98 C97 0.960 . S
H99 N79 0.862 . S
O100 Co68 1.920 . S
O100 C73 1.289 . S
C101 O93 1.258 . S
C101 O94 1.266 . S
Co102 O105 1.970 . S
Co102 N119 1.989 . S
Co102 O127 1.967 . S
Co102 O134 1.920 . S
Co103 O106 1.966 . S
Co103 N112 2.022 . S
Co103 N120 1.993 . S
Co103 O128 1.941 . S
C104 O105 1.258 . S
C104 O106 1.263 . S
O105 Co102 1.970 . S
O105 C104 1.258 . S
O106 Co103 1.966 . S
O106 C104 1.263 . S
C107 O108 1.235 . S
C107 O134 1.289 . S
O108 C107 1.235 . S
C109 C111 1.413 . S
C109 N112 1.351 . S
C109 C114 1.501 . S
C110 C111 1.380 1_655 S
C110 N113 1.341 1_655 S
C111 C109 1.413 . S
C111 C110 1.380 1_455 S
N112 Co103 2.022 . S
N112 C109 1.351 . S
N112 N113 1.365 . S
N113 C110 1.341 1_455 S
N113 N112 1.365 . S
N113 H133 0.862 1_455 S
C114 C109 1.501 . S
C114 H115 0.961 . S
C114 H116 0.961 . S
C114 H117 0.960 . S
H115 C114 0.961 . S
H116 C114 0.961 . S
H117 C114 0.960 . S
C118 N119 1.342 . S
C118 C122 1.401 . S
C118 C123 1.499 . S
N119 Co102 1.989 . S
N119 C118 1.342 . S
N119 N120 1.388 . S
N120 Co103 1.993 . S
N120 N119 1.388 . S
N120 C121 1.346 . S
C121 N120 1.346 . S
C121 C122 1.396 . S
C121 C131 1.510 . S
C122 C118 1.401 . S
C122 C121 1.396 . S
C123 C118 1.499 . S
C123 H124 0.959 . S
C123 H125 0.960 . S
C123 H126 0.961 . S
H124 C123 0.959 . S
H125 C123 0.960 . S
H126 C123 0.961 . S
O127 Co102 1.967 . S
O127 C135 1.258 . S
O128 Co103 1.941 . S
O128 C135 1.266 . S
H129 C131 0.959 . S
H130 C131 0.961 . S
C131 C121 1.510 . S
C131 H129 0.959 . S
C131 H130 0.961 . S
C131 H132 0.960 . S
H132 C131 0.960 . S
H133 N113 0.862 1_655 S
O134 Co102 1.920 . S
O134 C107 1.289 . S
C135 O127 1.258 . S
C135 O128 1.266 . S
Co136 O139 1.970 . S
Co136 N153 1.989 . S
Co136 O161 1.967 . S
Co136 O168 1.920 . S
Co137 O140 1.966 . S
Co137 N146 2.022 . S
Co137 N154 1.993 . S
Co137 O162 1.941 . S
C138 O139 1.258 . S
C138 O140 1.263 . S
O139 Co136 1.970 . S
O139 C138 1.258 . S
O140 Co137 1.966 . S
O140 C138 1.263 . S
C141 O142 1.235 . S
C141 O168 1.289 . S
O142 C141 1.235 . S
C143 C145 1.400 . S
C143 N146 1.351 . S
C143 C148 1.501 . S
C144 C145 1.387 . S
C144 N147 1.341 . S
C145 C143 1.400 . S
C145 C144 1.387 . S
N146 Co137 2.022 . S
N146 C143 1.351 . S
N146 N147 1.365 . S
N147 C144 1.341 . S
N147 N146 1.365 . S
N147 H167 0.862 . S
C148 C143 1.501 . S
C148 H149 0.961 . S
C148 H150 0.961 . S
C148 H151 0.960 . S
H149 C148 0.961 . S
H150 C148 0.961 . S
H151 C148 0.960 . S
C152 N153 1.342 . S
C152 C156 1.401 . S
C152 C157 1.499 . S
N153 Co136 1.989 . S
N153 C152 1.342 . S
N153 N154 1.388 . S
N154 Co137 1.993 . S
N154 N153 1.388 . S
N154 C155 1.346 . S
C155 N154 1.346 . S
C155 C156 1.396 . S
C155 C165 1.510 . S
C156 C152 1.401 . S
C156 C155 1.396 . S
C157 C152 1.499 . S
C157 H158 0.959 . S
C157 H159 0.960 . S
C157 H160 0.961 . S
H158 C157 0.959 . S
H159 C157 0.960 . S
H160 C157 0.961 . S
O161 Co136 1.967 . S
O161 C169 1.258 . S
O162 Co137 1.941 . S
O162 C169 1.266 . S
H163 C165 0.959 . S
H164 C165 0.961 . S
C165 C155 1.510 . S
C165 H163 0.959 . S
C165 H164 0.961 . S
C165 H166 0.960 . S
H166 C165 0.960 . S
H167 N147 0.862 . S
O168 Co136 1.920 . S
O168 C141 1.289 . S
C169 O161 1.258 . S
C169 O162 1.266 . S
Co170 O173 1.970 . S
Co170 N187 1.989 . S
Co170 O195 1.967 . S
Co170 O202 1.920 . S
Co171 O174 1.966 . S
Co171 N180 2.022 . S
Co171 N188 1.993 . S
Co171 O196 1.941 . S
C172 O173 1.258 . S
C172 O174 1.263 . S
O173 Co170 1.970 . S
O173 C172 1.258 . S
O174 Co171 1.966 . S
O174 C172 1.263 . S
C175 O176 1.235 . S
C175 O202 1.289 . S
O176 C175 1.235 . S
C177 C179 1.413 . S
C177 N180 1.351 . S
C177 C182 1.501 . S
C178 C179 1.380 1_655 S
C178 N181 1.341 1_655 S
C179 C177 1.413 . S
C179 C178 1.380 1_455 S
N180 Co171 2.022 . S
N180 C177 1.351 . S
N180 N181 1.365 . S
N181 C178 1.341 1_455 S
N181 N180 1.365 . S
N181 H201 0.862 1_455 S
C182 C177 1.501 . S
C182 H183 0.961 . S
C182 H184 0.961 . S
C182 H185 0.960 . S
H183 C182 0.961 . S
H184 C182 0.961 . S
H185 C182 0.960 . S
C186 N187 1.342 . S
C186 C190 1.401 . S
C186 C191 1.499 . S
N187 Co170 1.989 . S
N187 C186 1.342 . S
N187 N188 1.388 . S
N188 Co171 1.993 . S
N188 N187 1.388 . S
N188 C189 1.346 . S
C189 N188 1.346 . S
C189 C190 1.396 . S
C189 C199 1.510 . S
C190 C186 1.401 . S
C190 C189 1.396 . S
C191 C186 1.499 . S
C191 H192 0.959 . S
C191 H193 0.960 . S
C191 H194 0.961 . S
H192 C191 0.959 . S
H193 C191 0.960 . S
H194 C191 0.961 . S
O195 Co170 1.967 . S
O195 C203 1.258 . S
O196 Co171 1.941 . S
O196 C203 1.266 . S
H197 C199 0.959 . S
H198 C199 0.961 . S
C199 C189 1.510 . S
C199 H197 0.959 . S
C199 H198 0.961 . S
C199 H200 0.960 . S
H200 C199 0.960 . S
H201 N181 0.862 1_655 S
O202 Co170 1.920 . S
O202 C175 1.289 . S
C203 O195 1.258 . S
C203 O196 1.266 . S
Co204 O207 1.970 . S
Co204 N221 1.989 . S
Co204 O229 1.967 . S
Co204 O236 1.920 . S
Co205 O208 1.966 . S
Co205 N214 2.022 . S
Co205 N222 1.993 . S
Co205 O230 1.941 . S
C206 O207 1.258 . S
C206 O208 1.263 . S
O207 Co204 1.970 . S
O207 C206 1.258 . S
O208 Co205 1.966 . S
O208 C206 1.263 . S
C209 O210 1.235 . S
C209 O236 1.289 . S
O210 C209 1.235 . S
C211 C213 1.413 . S
C211 N214 1.351 . S
C211 C216 1.501 . S
C212 C213 1.380 1_565 S
C212 N215 1.341 1_565 S
C213 C211 1.413 . S
C213 C212 1.380 1_545 S
N214 Co205 2.022 . S
N214 C211 1.351 . S
N214 N215 1.365 . S
N215 C212 1.341 1_545 S
N215 N214 1.365 . S
N215 H235 0.862 1_545 S
C216 C211 1.501 . S
C216 H217 0.961 . S
C216 H218 0.961 . S
C216 H219 0.960 . S
H217 C216 0.961 . S
H218 C216 0.961 . S
H219 C216 0.960 . S
C220 N221 1.342 . S
C220 C224 1.401 . S
C220 C225 1.499 . S
N221 Co204 1.989 . S
N221 C220 1.342 . S
N221 N222 1.388 . S
N222 Co205 1.993 . S
N222 N221 1.388 . S
N222 C223 1.346 . S
C223 N222 1.346 . S
C223 C224 1.396 . S
C223 C233 1.510 . S
C224 C220 1.401 . S
C224 C223 1.396 . S
C225 C220 1.499 . S
C225 H226 0.959 . S
C225 H227 0.960 . S
C225 H228 0.961 . S
H226 C225 0.959 . S
H227 C225 0.960 . S
H228 C225 0.961 . S
O229 Co204 1.967 . S
O229 C237 1.258 . S
O230 Co205 1.941 . S
O230 C237 1.266 . S
H231 C233 0.959 . S
H232 C233 0.961 . S
C233 C223 1.510 . S
C233 H231 0.959 . S
C233 H232 0.961 . S
C233 H234 0.960 . S
H234 C233 0.960 . S
H235 N215 0.862 1_565 S
O236 Co204 1.920 . S
O236 C209 1.289 . S
C237 O229 1.258 . S
C237 O230 1.266 . S
Co238 O241 1.970 . S
Co238 N255 1.989 . S
Co238 O263 1.967 . S
Co238 O270 1.920 . S
Co239 O242 1.966 . S
Co239 N248 2.022 . S
Co239 N256 1.993 . S
Co239 O264 1.941 . S
C240 O241 1.258 . S
C240 O242 1.263 . S
O241 Co238 1.970 . S
O241 C240 1.258 . S
O242 Co239 1.966 . S
O242 C240 1.263 . S
C243 O244 1.235 . S
C243 O270 1.289 . S
O244 C243 1.235 . S
C245 C247 1.400 . S
C245 N248 1.351 . S
C245 C250 1.501 . S
C246 C247 1.387 . S
C246 N249 1.341 . S
C247 C245 1.400 . S
C247 C246 1.387 . S
N248 Co239 2.022 . S
N248 C245 1.351 . S
N248 N249 1.365 . S
N249 C246 1.341 . S
N249 N248 1.365 . S
N249 H269 0.862 . S
C250 C245 1.501 . S
C250 H251 0.961 . S
C250 H252 0.961 . S
C250 H253 0.960 . S
H251 C250 0.961 . S
H252 C250 0.961 . S
H253 C250 0.960 . S
C254 N255 1.342 . S
C254 C258 1.401 . S
C254 C259 1.499 . S
N255 Co238 1.989 . S
N255 C254 1.342 . S
N255 N256 1.388 . S
N256 Co239 1.993 . S
N256 N255 1.388 . S
N256 C257 1.346 . S
C257 N256 1.346 . S
C257 C258 1.396 . S
C257 C267 1.510 . S
C258 C254 1.401 . S
C258 C257 1.396 . S
C259 C254 1.499 . S
C259 H260 0.959 . S
C259 H261 0.960 . S
C259 H262 0.961 . S
H260 C259 0.959 . S
H261 C259 0.960 . S
H262 C259 0.961 . S
O263 Co238 1.967 . S
O263 C271 1.258 . S
O264 Co239 1.941 . S
O264 C271 1.266 . S
H265 C267 0.959 . S
H266 C267 0.961 . S
C267 C257 1.510 . S
C267 H265 0.959 . S
C267 H266 0.961 . S
C267 H268 0.960 . S
H268 C267 0.960 . S
H269 N249 0.862 . S
O270 Co238 1.920 . S
O270 C243 1.289 . S
C271 O263 1.258 . S
C271 O264 1.266 . S
Co272 O275 1.970 . S
Co272 N289 1.989 . S
Co272 O297 1.967 . S
Co272 O304 1.920 . S
Co273 O276 1.966 . S
Co273 N282 2.022 . S
Co273 N290 1.993 . S
Co273 O298 1.941 . S
C274 O275 1.258 . S
C274 O276 1.263 . S
O275 Co272 1.970 . S
O275 C274 1.258 . S
O276 Co273 1.966 . S
O276 C274 1.263 . S
C277 O278 1.235 . S
C277 O304 1.289 . S
O278 C277 1.235 . S
C279 C281 1.413 . S
C279 N282 1.351 . S
C279 C284 1.501 . S
C280 C281 1.380 1_545 S
C280 N283 1.341 1_545 S
C281 C279 1.413 . S
C281 C280 1.380 1_565 S
N282 Co273 2.022 . S
N282 C279 1.351 . S
N282 N283 1.365 . S
N283 C280 1.341 1_565 S
N283 N282 1.365 . S
N283 H303 0.862 1_565 S
C284 C279 1.501 . S
C284 H285 0.961 . S
C284 H286 0.961 . S
C284 H287 0.960 . S
H285 C284 0.961 . S
H286 C284 0.961 . S
H287 C284 0.960 . S
C288 N289 1.342 . S
C288 C292 1.401 . S
C288 C293 1.499 . S
N289 Co272 1.989 . S
N289 C288 1.342 . S
N289 N290 1.388 . S
N290 Co273 1.993 . S
N290 N289 1.388 . S
N290 C291 1.346 . S
C291 N290 1.346 . S
C291 C292 1.396 . S
C291 C301 1.510 . S
C292 C288 1.401 . S
C292 C291 1.396 . S
C293 C288 1.499 . S
C293 H294 0.959 . S
C293 H295 0.960 . S
C293 H296 0.961 . S
H294 C293 0.959 . S
H295 C293 0.960 . S
H296 C293 0.961 . S
O297 Co272 1.967 . S
O297 C305 1.258 . S
O298 Co273 1.941 . S
O298 C305 1.266 . S
H299 C301 0.959 . S
H300 C301 0.961 . S
C301 C291 1.510 . S
C301 H299 0.959 . S
C301 H300 0.961 . S
C301 H302 0.960 . S
H302 C301 0.960 . S
H303 N283 0.862 1_545 S
O304 Co272 1.920 . S
O304 C277 1.289 . S
C305 O297 1.258 . S
C305 O298 1.266 . S
Co306 O309 1.970 . S
Co306 N323 1.989 . S
Co306 O331 1.967 . S
Co306 O338 1.920 . S
Co307 O310 1.966 . S
Co307 N316 2.022 . S
Co307 N324 1.993 . S
Co307 O332 1.941 . S
C308 O309 1.258 . S
C308 O310 1.263 . S
O309 Co306 1.970 . S
O309 C308 1.258 . S
O310 Co307 1.966 . S
O310 C308 1.263 . S
C311 O312 1.235 . S
C311 O338 1.289 . S
O312 C311 1.235 . S
C313 C315 1.400 . S
C313 N316 1.351 . S
C313 C318 1.501 . S
C314 C315 1.387 . S
C314 N317 1.341 . S
C315 C313 1.400 . S
C315 C314 1.387 . S
N316 Co307 2.022 . S
N316 C313 1.351 . S
N316 N317 1.365 . S
N317 C314 1.341 . S
N317 N316 1.365 . S
N317 H337 0.862 . S
C318 C313 1.501 . S
C318 H319 0.961 . S
C318 H320 0.961 . S
C318 H321 0.960 . S
H319 C318 0.961 . S
H320 C318 0.961 . S
H321 C318 0.960 . S
C322 N323 1.342 . S
C322 C326 1.401 . S
C322 C327 1.499 . S
N323 Co306 1.989 . S
N323 C322 1.342 . S
N323 N324 1.388 . S
N324 Co307 1.993 . S
N324 N323 1.388 . S
N324 C325 1.346 . S
C325 N324 1.346 . S
C325 C326 1.396 . S
C325 C335 1.510 . S
C326 C322 1.401 . S
C326 C325 1.396 . S
C327 C322 1.499 . S
C327 H328 0.959 . S
C327 H329 0.960 . S
C327 H330 0.961 . S
H328 C327 0.959 . S
H329 C327 0.960 . S
H330 C327 0.961 . S
O331 Co306 1.967 . S
O331 C339 1.258 . S
O332 Co307 1.941 . S
O332 C339 1.266 . S
H333 C335 0.959 . S
H334 C335 0.961 . S
C335 C325 1.510 . S
C335 H333 0.959 . S
C335 H334 0.961 . S
C335 H336 0.960 . S
H336 C335 0.960 . S
H337 N317 0.862 . S
O338 Co306 1.920 . S
O338 C311 1.289 . S
C339 O331 1.258 . S
C339 O332 1.266 . S
Co340 O343 1.970 . S
Co340 N357 1.989 . S
Co340 O365 1.967 . S
Co340 O372 1.920 . S
Co341 O344 1.966 . S
Co341 N350 2.022 . S
Co341 N358 1.993 . S
Co341 O366 1.941 . S
C342 O343 1.258 . S
C342 O344 1.263 . S
O343 Co340 1.970 . S
O343 C342 1.258 . S
O344 Co341 1.966 . S
O344 C342 1.263 . S
C345 O346 1.235 . S
C345 O372 1.289 . S
O346 C345 1.235 . S
C347 C349 1.400 . S
C347 N350 1.351 . S
C347 C352 1.501 . S
C348 C349 1.387 . S
C348 N351 1.341 . S
C349 C347 1.400 . S
C349 C348 1.387 . S
N350 Co341 2.022 . S
N350 C347 1.351 . S
N350 N351 1.365 . S
N351 C348 1.341 . S
N351 N350 1.365 . S
N351 H371 0.862 . S
C352 C347 1.501 . S
C352 H353 0.961 . S
C352 H354 0.961 . S
C352 H355 0.960 . S
H353 C352 0.961 . S
H354 C352 0.961 . S
H355 C352 0.960 . S
C356 N357 1.342 . S
C356 C360 1.401 . S
C356 C361 1.499 . S
N357 Co340 1.989 . S
N357 C356 1.342 . S
N357 N358 1.388 . S
N358 Co341 1.993 . S
N358 N357 1.388 . S
N358 C359 1.346 . S
C359 N358 1.346 . S
C359 C360 1.396 . S
C359 C369 1.510 . S
C360 C356 1.401 . S
C360 C359 1.396 . S
C361 C356 1.499 . S
C361 H362 0.959 . S
C361 H363 0.960 . S
C361 H364 0.961 . S
H362 C361 0.959 . S
H363 C361 0.960 . S
H364 C361 0.961 . S
O365 Co340 1.967 . S
O365 C373 1.258 . S
O366 Co341 1.941 . S
O366 C373 1.266 . S
H367 C369 0.959 . S
H368 C369 0.961 . S
C369 C359 1.510 . S
C369 H367 0.959 . S
C369 H368 0.961 . S
C369 H370 0.960 . S
H370 C369 0.960 . S
H371 N351 0.862 . S
O372 Co340 1.920 . S
O372 C345 1.289 . S
C373 O365 1.258 . S
C373 O366 1.266 . S
Co374 O377 1.970 . S
Co374 N391 1.989 . S
Co374 O399 1.967 . S
Co374 O406 1.920 . S
Co375 O378 1.966 . S
Co375 N384 2.022 . S
Co375 N392 1.993 . S
Co375 O400 1.941 . S
C376 O377 1.258 . S
C376 O378 1.263 . S
O377 Co374 1.970 . S
O377 C376 1.258 . S
O378 Co375 1.966 . S
O378 C376 1.263 . S
C379 O380 1.235 . S
C379 O406 1.289 . S
O380 C379 1.235 . S
C381 C383 1.413 . S
C381 N384 1.351 . S
C381 C386 1.501 . S
C382 C383 1.380 1_455 S
C382 N385 1.341 1_455 S
C383 C381 1.413 . S
C383 C382 1.380 1_655 S
N384 Co375 2.022 . S
N384 C381 1.351 . S
N384 N385 1.365 . S
N385 C382 1.341 1_655 S
N385 N384 1.365 . S
N385 H405 0.862 1_655 S
C386 C381 1.501 . S
C386 H387 0.961 . S
C386 H388 0.961 . S
C386 H389 0.960 . S
H387 C386 0.961 . S
H388 C386 0.961 . S
H389 C386 0.960 . S
C390 N391 1.342 . S
C390 C394 1.401 . S
C390 C395 1.499 . S
N391 Co374 1.989 . S
N391 C390 1.342 . S
N391 N392 1.388 . S
N392 Co375 1.993 . S
N392 N391 1.388 . S
N392 C393 1.346 . S
C393 N392 1.346 . S
C393 C394 1.396 . S
C393 C403 1.510 . S
C394 C390 1.401 . S
C394 C393 1.396 . S
C395 C390 1.499 . S
C395 H396 0.959 . S
C395 H397 0.960 . S
C395 H398 0.961 . S
H396 C395 0.959 . S
H397 C395 0.960 . S
H398 C395 0.961 . S
O399 Co374 1.967 . S
O399 C407 1.258 . S
O400 Co375 1.941 . S
O400 C407 1.266 . S
H401 C403 0.959 . S
H402 C403 0.961 . S
C403 C393 1.510 . S
C403 H401 0.959 . S
C403 H402 0.961 . S
C403 H404 0.960 . S
H404 C403 0.960 . S
H405 N385 0.862 1_455 S
O406 Co374 1.920 . S
O406 C379 1.289 . S
C407 O399 1.258 . S
C407 O400 1.266 . S
Co408 O411 1.970 . S
Co408 N425 1.989 . S
Co408 O433 1.967 . S
Co408 O440 1.920 . S
Co409 O412 1.966 . S
Co409 N418 2.022 . S
Co409 N426 1.993 . S
Co409 O434 1.941 . S
C410 O411 1.258 . S
C410 O412 1.263 . S
O411 Co408 1.970 . S
O411 C410 1.258 . S
O412 Co409 1.966 . S
O412 C410 1.263 . S
C413 O414 1.235 . S
C413 O440 1.289 . S
O414 C413 1.235 . S
C415 C417 1.400 . S
C415 N418 1.351 . S
C415 C420 1.501 . S
C416 C417 1.387 . S
C416 N419 1.341 . S
C417 C415 1.400 . S
C417 C416 1.387 . S
N418 Co409 2.022 . S
N418 C415 1.351 . S
N418 N419 1.365 . S
N419 C416 1.341 . S
N419 N418 1.365 . S
N419 H439 0.862 . S
C420 C415 1.501 . S
C420 H421 0.961 . S
C420 H422 0.961 . S
C420 H423 0.960 . S
H421 C420 0.961 . S
H422 C420 0.961 . S
H423 C420 0.960 . S
C424 N425 1.342 . S
C424 C428 1.401 . S
C424 C429 1.499 . S
N425 Co408 1.989 . S
N425 C424 1.342 . S
N425 N426 1.388 . S
N426 Co409 1.993 . S
N426 N425 1.388 . S
N426 C427 1.346 . S
C427 N426 1.346 . S
C427 C428 1.396 . S
C427 C437 1.510 . S
C428 C424 1.401 . S
C428 C427 1.396 . S
C429 C424 1.499 . S
C429 H430 0.959 . S
C429 H431 0.960 . S
C429 H432 0.961 . S
H430 C429 0.959 . S
H431 C429 0.960 . S
H432 C429 0.961 . S
O433 Co408 1.967 . S
O433 C441 1.258 . S
O434 Co409 1.941 . S
O434 C441 1.266 . S
H435 C437 0.959 . S
H436 C437 0.961 . S
C437 C427 1.510 . S
C437 H435 0.959 . S
C437 H436 0.961 . S
C437 H438 0.960 . S
H438 C437 0.960 . S
H439 N419 0.862 . S
O440 Co408 1.920 . S
O440 C413 1.289 . S
C441 O433 1.258 . S
C441 O434 1.266 . S
Co442 O445 1.970 . S
Co442 N459 1.989 . S
Co442 O467 1.967 . S
Co442 O474 1.920 . S
Co443 O446 1.966 . S
Co443 N452 2.022 . S
Co443 N460 1.993 . S
Co443 O468 1.941 . S
C444 O445 1.258 . S
C444 O446 1.263 . S
O445 Co442 1.970 . S
O445 C444 1.258 . S
O446 Co443 1.966 . S
O446 C444 1.263 . S
C447 O448 1.235 . S
C447 O474 1.289 . S
O448 C447 1.235 . S
C449 C451 1.413 . S
C449 N452 1.351 . S
C449 C454 1.501 . S
C450 C451 1.380 1_455 S
C450 N453 1.341 1_455 S
C451 C449 1.413 . S
C451 C450 1.380 1_655 S
N452 Co443 2.022 . S
N452 C449 1.351 . S
N452 N453 1.365 . S
N453 C450 1.341 1_655 S
N453 N452 1.365 . S
N453 H473 0.862 1_655 S
C454 C449 1.501 . S
C454 H455 0.961 . S
C454 H456 0.961 . S
C454 H457 0.960 . S
H455 C454 0.961 . S
H456 C454 0.961 . S
H457 C454 0.960 . S
C458 N459 1.342 . S
C458 C462 1.401 . S
C458 C463 1.499 . S
N459 Co442 1.989 . S
N459 C458 1.342 . S
N459 N460 1.388 . S
N460 Co443 1.993 . S
N460 N459 1.388 . S
N460 C461 1.346 . S
C461 N460 1.346 . S
C461 C462 1.396 . S
C461 C471 1.510 . S
C462 C458 1.401 . S
C462 C461 1.396 . S
C463 C458 1.499 . S
C463 H464 0.959 . S
C463 H465 0.960 . S
C463 H466 0.961 . S
H464 C463 0.959 . S
H465 C463 0.960 . S
H466 C463 0.961 . S
O467 Co442 1.967 . S
O467 C475 1.258 . S
O468 Co443 1.941 . S
O468 C475 1.266 . S
H469 C471 0.959 . S
H470 C471 0.961 . S
C471 C461 1.510 . S
C471 H469 0.959 . S
C471 H470 0.961 . S
C471 H472 0.960 . S
H472 C471 0.960 . S
H473 N453 0.862 1_455 S
O474 Co442 1.920 . S
O474 C447 1.289 . S
C475 O467 1.258 . S
C475 O468 1.266 . S
Co476 O479 1.970 . S
Co476 N493 1.989 . S
Co476 O501 1.967 . S
Co476 O508 1.920 . S
Co477 O480 1.966 . S
Co477 N486 2.022 . S
Co477 N494 1.993 . S
Co477 O502 1.941 . S
C478 O479 1.258 . S
C478 O480 1.263 . S
O479 Co476 1.970 . S
O479 C478 1.258 . S
O480 Co477 1.966 . S
O480 C478 1.263 . S
C481 O482 1.235 . S
C481 O508 1.289 . S
O482 C481 1.235 . S
C483 C485 1.413 . S
C483 N486 1.351 . S
C483 C488 1.501 . S
C484 C485 1.380 1_545 S
C484 N487 1.341 1_545 S
C485 C483 1.413 . S
C485 C484 1.380 1_565 S
N486 Co477 2.022 . S
N486 C483 1.351 . S
N486 N487 1.365 . S
N487 C484 1.341 1_565 S
N487 N486 1.365 . S
N487 H507 0.862 1_565 S
C488 C483 1.501 . S
C488 H489 0.961 . S
C488 H490 0.961 . S
C488 H491 0.960 . S
H489 C488 0.961 . S
H490 C488 0.961 . S
H491 C488 0.960 . S
C492 N493 1.342 . S
C492 C496 1.401 . S
C492 C497 1.499 . S
N493 Co476 1.989 . S
N493 C492 1.342 . S
N493 N494 1.388 . S
N494 Co477 1.993 . S
N494 N493 1.388 . S
N494 C495 1.346 . S
C495 N494 1.346 . S
C495 C496 1.396 . S
C495 C505 1.510 . S
C496 C492 1.401 . S
C496 C495 1.396 . S
C497 C492 1.499 . S
C497 H498 0.959 . S
C497 H499 0.960 . S
C497 H500 0.961 . S
H498 C497 0.959 . S
H499 C497 0.960 . S
H500 C497 0.961 . S
O501 Co476 1.967 . S
O501 C509 1.258 . S
O502 Co477 1.941 . S
O502 C509 1.266 . S
H503 C505 0.959 . S
H504 C505 0.961 . S
C505 C495 1.510 . S
C505 H503 0.959 . S
C505 H504 0.961 . S
C505 H506 0.960 . S
H506 C505 0.960 . S
H507 N487 0.862 1_545 S
O508 Co476 1.920 . S
O508 C481 1.289 . S
C509 O501 1.258 . S
C509 O502 1.266 . S
Co510 O513 1.970 . S
Co510 N527 1.989 . S
Co510 O535 1.967 . S
Co510 O542 1.920 . S
Co511 O514 1.966 . S
Co511 N520 2.022 . S
Co511 N528 1.993 . S
Co511 O536 1.941 . S
C512 O513 1.258 . S
C512 O514 1.263 . S
O513 Co510 1.970 . S
O513 C512 1.258 . S
O514 Co511 1.966 . S
O514 C512 1.263 . S
C515 O516 1.235 . S
C515 O542 1.289 . S
O516 C515 1.235 . S
C517 C519 1.400 . S
C517 N520 1.351 . S
C517 C522 1.501 . S
C518 C519 1.387 . S
C518 N521 1.341 . S
C519 C517 1.400 . S
C519 C518 1.387 . S
N520 Co511 2.022 . S
N520 C517 1.351 . S
N520 N521 1.365 . S
N521 C518 1.341 . S
N521 N520 1.365 . S
N521 H541 0.862 . S
C522 C517 1.501 . S
C522 H523 0.961 . S
C522 H524 0.961 . S
C522 H525 0.960 . S
H523 C522 0.961 . S
H524 C522 0.961 . S
H525 C522 0.960 . S
C526 N527 1.342 . S
C526 C530 1.401 . S
C526 C531 1.499 . S
N527 Co510 1.989 . S
N527 C526 1.342 . S
N527 N528 1.388 . S
N528 Co511 1.993 . S
N528 N527 1.388 . S
N528 C529 1.346 . S
C529 N528 1.346 . S
C529 C530 1.396 . S
C529 C539 1.510 . S
C530 C526 1.401 . S
C530 C529 1.396 . S
C531 C526 1.499 . S
C531 H532 0.959 . S
C531 H533 0.960 . S
C531 H534 0.961 . S
H532 C531 0.959 . S
H533 C531 0.960 . S
H534 C531 0.961 . S
O535 Co510 1.967 . S
O535 C543 1.258 . S
O536 Co511 1.941 . S
O536 C543 1.266 . S
H537 C539 0.959 . S
H538 C539 0.961 . S
C539 C529 1.510 . S
C539 H537 0.959 . S
C539 H538 0.961 . S
C539 H540 0.960 . S
H540 C539 0.960 . S
H541 N521 0.862 . S
O542 Co510 1.920 . S
O542 C515 1.289 . S
C543 O535 1.258 . S
C543 O536 1.266 . S
H544 C550 0.930 . S
H545 C553 0.930 . S
H546 C554 0.930 . S
H547 C555 0.930 . S
H548 C558 0.930 . S
H549 C559 0.930 . S
C550 H544 0.930 . S
C550 C551 1.355 . S
C550 C552 1.415 . S
C551 C550 1.355 . S
C551 C553 1.419 . S
C552 C550 1.415 . S
C552 C557 1.425 . S
C552 C559 1.409 . S
C553 H545 0.930 . S
C553 C551 1.419 . S
C553 C554 1.362 . S
C554 H546 0.930 . S
C554 C553 1.362 . S
C554 C557 1.409 . S
C555 H547 0.930 . S
C555 C556 1.355 . S
C555 C557 1.415 . S
C556 C555 1.355 . S
C556 C558 1.419 . S
C557 C552 1.425 . S
C557 C554 1.409 . S
C557 C555 1.415 . S
C558 H548 0.930 . S
C558 C556 1.419 . S
C558 C559 1.362 . S
C559 H549 0.930 . S
C559 C552 1.409 . S
C559 C558 1.362 . S
H560 C566 0.930 . S
H561 C569 0.930 . S
H562 C570 0.930 . S
H563 C571 0.930 . S
H564 C574 0.930 . S
H565 C575 0.930 . S
C566 H560 0.930 . S
C566 C567 1.355 . S
C566 C568 1.415 . S
C567 C566 1.355 . S
C567 C569 1.419 . S
C568 C566 1.415 . S
C568 C573 1.425 . S
C568 C575 1.409 . S
C569 H561 0.930 . S
C569 C567 1.419 . S
C569 C570 1.362 . S
C570 H562 0.930 . S
C570 C569 1.362 . S
C570 C573 1.409 . S
C571 H563 0.930 . S
C571 C572 1.355 . S
C571 C573 1.415 . S
C572 C571 1.355 . S
C572 C574 1.419 . S
C573 C568 1.425 . S
C573 C570 1.409 . S
C573 C571 1.415 . S
C574 H564 0.930 . S
C574 C572 1.419 . S
C574 C575 1.362 . S
C575 H565 0.930 . S
C575 C568 1.409 . S
C575 C574 1.362 . S
H576 C582 0.930 . S
H577 C585 0.930 . S
H578 C586 0.930 . S
H579 C587 0.930 . S
H580 C590 0.930 . S
H581 C591 0.930 . S
C582 H576 0.930 . S
C582 C583 1.355 . S
C582 C584 1.415 . S
C583 C582 1.355 . S
C583 C585 1.419 . S
C584 C582 1.415 . S
C584 C589 1.425 . S
C584 C591 1.409 . S
C585 H577 0.930 . S
C585 C583 1.419 . S
C585 C586 1.362 . S
C586 H578 0.930 . S
C586 C585 1.362 . S
C586 C589 1.409 . S
C587 H579 0.930 . S
C587 C588 1.355 . S
C587 C589 1.415 . S
C588 C587 1.355 . S
C588 C590 1.419 . S
C589 C584 1.425 . S
C589 C586 1.409 . S
C589 C587 1.415 . S
C590 H580 0.930 . S
C590 C588 1.419 . S
C590 C591 1.362 . S
C591 H581 0.930 . S
C591 C584 1.409 . S
C591 C590 1.362 . S
H592 C598 0.930 . S
H593 C601 0.930 . S
H594 C602 0.930 . S
H595 C603 0.930 . S
H596 C606 0.930 . S
H597 C607 0.930 . S
C598 H592 0.930 . S
C598 C599 1.355 . S
C598 C600 1.415 . S
C599 C598 1.355 . S
C599 C601 1.419 . S
C600 C598 1.415 . S
C600 C605 1.425 . S
C600 C607 1.409 . S
C601 H593 0.930 . S
C601 C599 1.419 . S
C601 C602 1.362 . S
C602 H594 0.930 . S
C602 C601 1.362 . S
C602 C605 1.409 . S
C603 H595 0.930 . S
C603 C604 1.355 . S
C603 C605 1.415 . S
C604 C603 1.355 . S
C604 C606 1.419 . S
C605 C600 1.425 . S
C605 C602 1.409 . S
C605 C603 1.415 . S
C606 H596 0.930 . S
C606 C604 1.419 . S
C606 C607 1.362 . S
C607 H597 0.930 . S
C607 C600 1.409 . S
C607 C606 1.362 . S
H608 C614 0.930 . S
H609 C617 0.930 . S
H610 C618 0.930 . S
H611 C619 0.930 . S
H612 C622 0.930 . S
H613 C623 0.930 . S
C614 H608 0.930 . S
C614 C615 1.355 . S
C614 C616 1.415 . S
C615 C614 1.355 . S
C615 C617 1.419 . S
C616 C614 1.415 . S
C616 C621 1.425 . S
C616 C623 1.409 . S
C617 H609 0.930 . S
C617 C615 1.419 . S
C617 C618 1.362 . S
C618 H610 0.930 . S
C618 C617 1.362 . S
C618 C621 1.409 . S
C619 H611 0.930 . S
C619 C620 1.355 . S
C619 C621 1.415 . S
C620 C619 1.355 . S
C620 C622 1.419 . S
C621 C616 1.425 . S
C621 C618 1.409 . S
C621 C619 1.415 . S
C622 H612 0.930 . S
C622 C620 1.419 . S
C622 C623 1.362 . S
C623 H613 0.930 . S
C623 C616 1.409 . S
C623 C622 1.362 . S
H624 C630 0.930 . S
H625 C633 0.930 . S
H626 C634 0.930 . S
H627 C635 0.930 . S
H628 C638 0.930 . S
H629 C639 0.930 . S
C630 H624 0.930 . S
C630 C631 1.355 . S
C630 C632 1.415 . S
C631 C630 1.355 . S
C631 C633 1.419 . S
C632 C630 1.415 . S
C632 C637 1.425 . S
C632 C639 1.409 . S
C633 H625 0.930 . S
C633 C631 1.419 . S
C633 C634 1.362 . S
C634 H626 0.930 . S
C634 C633 1.362 . S
C634 C637 1.409 . S
C635 H627 0.930 . S
C635 C636 1.355 . S
C635 C637 1.415 . S
C636 C635 1.355 . S
C636 C638 1.419 . S
C637 C632 1.425 . S
C637 C634 1.409 . S
C637 C635 1.415 . S
C638 H628 0.930 . S
C638 C636 1.419 . S
C638 C639 1.362 . S
C639 H629 0.930 . S
C639 C632 1.409 . S
C639 C638 1.362 . S
H640 C646 0.930 . S
H641 C649 0.930 . S
H642 C650 0.930 . S
H643 C651 0.930 . S
H644 C654 0.930 . S
H645 C655 0.930 . S
C646 H640 0.930 . S
C646 C647 1.355 . S
C646 C648 1.415 . S
C647 C646 1.355 . S
C647 C649 1.419 . S
C648 C646 1.415 . S
C648 C653 1.425 . S
C648 C655 1.409 . S
C649 H641 0.930 . S
C649 C647 1.419 . S
C649 C650 1.362 . S
C650 H642 0.930 . S
C650 C649 1.362 . S
C650 C653 1.409 . S
C651 H643 0.930 . S
C651 C652 1.355 . S
C651 C653 1.415 . S
C652 C651 1.355 . S
C652 C654 1.419 . S
C653 C648 1.425 . S
C653 C650 1.409 . S
C653 C651 1.415 . S
C654 H644 0.930 . S
C654 C652 1.419 . S
C654 C655 1.362 . S
C655 H645 0.930 . S
C655 C648 1.409 . S
C655 C654 1.362 . S
H656 C662 0.930 . S
H657 C665 0.930 . S
H658 C666 0.930 . S
H659 C667 0.930 . S
H660 C670 0.930 . S
H661 C671 0.930 . S
C662 H656 0.930 . S
C662 C663 1.355 . S
C662 C664 1.415 . S
C663 C662 1.355 . S
C663 C665 1.419 . S
C664 C662 1.415 . S
C664 C669 1.425 . S
C664 C671 1.409 . S
C665 H657 0.930 . S
C665 C663 1.419 . S
C665 C666 1.362 . S
C666 H658 0.930 . S
C666 C665 1.362 . S
C666 C669 1.409 . S
C667 H659 0.930 . S
C667 C668 1.355 . S
C667 C669 1.415 . S
C668 C667 1.355 . S
C668 C670 1.419 . S
C669 C664 1.425 . S
C669 C666 1.409 . S
C669 C667 1.415 . S
C670 H660 0.930 . S
C670 C668 1.419 . S
C670 C671 1.362 . S
C671 H661 0.930 . S
C671 C664 1.409 . S
C671 C670 1.362 . S
H672 C678 0.930 1_554 S
H673 C681 0.930 . S
H674 C682 0.930 . S
H675 C683 0.930 1_556 S
H676 C686 0.930 . S
H677 C687 0.930 . S
C678 H672 0.930 1_556 S
C678 C679 1.355 . S
C678 C680 1.415 1_556 S
C679 C678 1.355 . S
C679 C681 1.419 1_545 S
C680 C678 1.415 1_554 S
C680 C685 1.425 1_544 S
C680 C687 1.409 . S
C681 H673 0.930 . S
C681 C679 1.419 1_565 S
C681 C682 1.362 . S
C682 H674 0.930 . S
C682 C681 1.362 . S
C682 C685 1.409 . S
C683 H675 0.930 1_554 S
C683 C684 1.355 . S
C683 C685 1.415 1_554 S
C684 C683 1.355 . S
C684 C686 1.419 1_565 S
C685 C680 1.425 1_566 S
C685 C682 1.409 . S
C685 C683 1.415 1_556 S
C686 H676 0.930 . S
C686 C684 1.419 1_545 S
C686 C687 1.362 . S
C687 H677 0.930 . S
C687 C680 1.409 . S
C687 C686 1.362 . S
H688 C694 0.930 . S
H689 C697 0.930 . S
H690 C698 0.925 1_554 S
H691 C699 0.930 . S
H692 C702 0.930 . S
H693 C703 0.925 1_556 S
C694 H688 0.930 . S
C694 C695 1.355 . S
C694 C696 1.415 . S
C695 C694 1.355 . S
C695 C697 1.419 . S
C696 C694 1.415 . S
C696 C701 1.425 1_556 S
C696 C703 1.409 1_556 S
C697 H689 0.930 . S
C697 C695 1.419 . S
C697 C698 1.362 . S
C698 H690 0.925 1_556 S
C698 C697 1.362 . S
C698 C701 1.409 1_556 S
C699 H691 0.930 . S
C699 C700 1.355 . S
C699 C701 1.415 . S
C700 C699 1.355 . S
C700 C702 1.419 . S
C701 C696 1.425 1_554 S
C701 C698 1.409 1_554 S
C701 C699 1.415 . S
C702 H692 0.930 . S
C702 C700 1.419 . S
C702 C703 1.362 . S
C703 H693 0.925 1_554 S
C703 C696 1.409 1_554 S
C703 C702 1.362 . S
H704 C710 0.930 . S
H705 C713 0.925 1_554 S
H706 C714 0.930 . S
H707 C715 0.930 . S
H708 C718 0.925 1_556 S
H709 C719 0.930 . S
C710 H704 0.930 . S
C710 C711 1.355 . S
C710 C712 1.415 1_455 S
C711 C710 1.355 . S
C711 C713 1.440 . S
C712 C710 1.415 1_655 S
C712 C717 1.425 1_656 S
C712 C719 1.409 . S
C713 H705 0.925 1_556 S
C713 C711 1.440 . S
C713 C714 1.346 1_556 S
C714 H706 0.930 . S
C714 C713 1.346 1_554 S
C714 C717 1.409 . S
C715 H707 0.930 . S
C715 C716 1.355 . S
C715 C717 1.415 1_655 S
C716 C715 1.355 . S
C716 C718 1.440 . S
C717 C712 1.425 1_454 S
C717 C714 1.409 . S
C717 C715 1.415 1_455 S
C718 H708 0.925 1_554 S
C718 C716 1.440 . S
C718 C719 1.346 1_554 S
C719 H709 0.930 . S
C719 C712 1.409 . S
C719 C718 1.346 1_556 S
H720 C726 0.930 . S
H721 C729 0.930 . S
H722 C730 0.930 . S
H723 C731 0.930 . S
H724 C734 0.930 . S
H725 C735 0.930 . S
C726 H720 0.930 . S
C726 C727 1.355 1_655 S
C726 C728 1.415 1_556 S
C727 C726 1.355 1_455 S
C727 C729 1.419 . S
C728 C726 1.415 1_554 S
C728 C733 1.425 1_644 S
C728 C735 1.409 . S
C729 H721 0.930 . S
C729 C727 1.419 . S
C729 C730 1.362 1_545 S
C730 H722 0.930 . S
C730 C729 1.362 1_565 S
C730 C733 1.409 . S
C731 H723 0.930 . S
C731 C732 1.355 1_455 S
C731 C733 1.415 1_554 S
C732 C731 1.355 1_655 S
C732 C734 1.419 . S
C733 C728 1.425 1_466 S
C733 C730 1.409 . S
C733 C731 1.415 1_556 S
C734 H724 0.930 . S
C734 C732 1.419 . S
C734 C735 1.362 1_565 S
C735 H725 0.930 . S
C735 C728 1.409 . S
C735 C734 1.362 1_545 S
H736 C742 0.930 . S
H737 C745 0.930 . S
H738 C746 0.930 . S
H739 C747 0.930 . S
H740 C750 0.930 . S
H741 C751 0.930 . S
C742 H736 0.930 . S
C742 C743 1.355 . S
C742 C744 1.415 . S
C743 C742 1.355 . S
C743 C745 1.419 . S
C744 C742 1.415 . S
C744 C749 1.425 . S
C744 C751 1.409 . S
C745 H737 0.930 . S
C745 C743 1.419 . S
C745 C746 1.362 . S
C746 H738 0.930 . S
C746 C745 1.362 . S
C746 C749 1.409 . S
C747 H739 0.930 . S
C747 C748 1.355 . S
C747 C749 1.415 . S
C748 C747 1.355 . S
C748 C750 1.419 . S
C749 C744 1.425 . S
C749 C746 1.409 . S
C749 C747 1.415 . S
C750 H740 0.930 . S
C750 C748 1.419 . S
C750 C751 1.362 . S
C751 H741 0.930 . S
C751 C744 1.409 . S
C751 C750 1.362 . S
H752 C758 0.930 . S
H753 C761 0.930 . S
H754 C762 0.930 . S
H755 C763 0.930 . S
H756 C766 0.930 . S
H757 C767 0.930 . S
C758 H752 0.930 . S
C758 C759 1.348 1_455 S
C758 C760 1.415 . S
C759 C758 1.348 1_655 S
C759 C761 1.427 . S
C760 C758 1.415 . S
C760 C765 1.425 1_455 S
C760 C767 1.409 . S
C761 H753 0.930 . S
C761 C759 1.427 . S
C761 C762 1.362 . S
C762 H754 0.930 . S
C762 C761 1.362 . S
C762 C765 1.409 . S
C763 H755 0.930 . S
C763 C764 1.348 1_655 S
C763 C765 1.415 . S
C764 C763 1.348 1_455 S
C764 C766 1.427 . S
C765 C760 1.425 1_655 S
C765 C762 1.409 . S
C765 C763 1.415 . S
C766 H756 0.930 . S
C766 C764 1.427 . S
C766 C767 1.362 . S
C767 H757 0.930 . S
C767 C760 1.409 . S
C767 C766 1.362 . S
H768 C774 0.928 1_545 S
H769 C777 0.930 . S
H770 C778 0.930 . S
H771 C779 0.928 1_565 S
H772 C782 0.930 . S
H773 C783 0.930 . S
C774 H768 0.928 1_565 S
C774 C775 1.357 . S
C774 C776 1.413 1_665 S
C775 C774 1.357 . S
C775 C777 1.419 . S
C776 C774 1.413 1_445 S
C776 C781 1.425 1_445 S
C776 C783 1.409 . S
C777 H769 0.930 . S
C777 C775 1.419 . S
C777 C778 1.362 . S
C778 H770 0.930 . S
C778 C777 1.362 . S
C778 C781 1.409 . S
C779 H771 0.928 1_545 S
C779 C780 1.357 . S
C779 C781 1.413 1_445 S
C780 C779 1.357 . S
C780 C782 1.419 . S
C781 C776 1.425 1_665 S
C781 C778 1.409 . S
C781 C779 1.413 1_665 S
C782 H772 0.930 . S
C782 C780 1.419 . S
C782 C783 1.362 . S
C783 H773 0.930 . S
C783 C776 1.409 . S
C783 C782 1.362 . S
H784 C790 0.930 . S
H785 C793 0.930 . S
H786 C794 0.930 1_545 S
H787 C795 0.930 . S
H788 C798 0.930 . S
H789 C799 0.930 1_565 S
C790 H784 0.930 . S
C790 C791 1.355 . S
C790 C792 1.415 . S
C791 C790 1.355 . S
C791 C793 1.419 . S
C792 C790 1.415 . S
C792 C797 1.425 1_565 S
C792 C799 1.409 1_565 S
C793 H785 0.930 . S
C793 C791 1.419 . S
C793 C794 1.362 . S
C794 H786 0.930 1_565 S
C794 C793 1.362 . S
C794 C797 1.409 1_565 S
C795 H787 0.930 . S
C795 C796 1.355 . S
C795 C797 1.415 . S
C796 C795 1.355 . S
C796 C798 1.419 . S
C797 C792 1.425 1_545 S
C797 C794 1.409 1_545 S
C797 C795 1.415 . S
C798 H788 0.930 . S
C798 C796 1.419 . S
C798 C799 1.362 . S
C799 H789 0.930 1_545 S
C799 C792 1.409 1_545 S
C799 C798 1.362 . S
H800 C806 0.930 . S
H801 C809 0.930 . S
H802 C810 0.930 . S
H803 C811 0.930 . S
H804 C814 0.930 . S
H805 C815 0.930 . S
C806 H800 0.930 . S
C806 C807 1.355 . S
C806 C808 1.415 . S
C807 C806 1.355 . S
C807 C809 1.419 1_556 S
C808 C806 1.415 . S
C808 C813 1.425 1_556 S
C808 C815 1.409 . S
C809 H801 0.930 . S
C809 C807 1.419 1_554 S
C809 C810 1.362 . S
C810 H802 0.930 . S
C810 C809 1.362 . S
C810 C813 1.409 . S
C811 H803 0.930 . S
C811 C812 1.355 . S
C811 C813 1.415 . S
C812 C811 1.355 . S
C812 C814 1.419 1_554 S
C813 C808 1.425 1_554 S
C813 C810 1.409 . S
C813 C811 1.415 . S
C814 H804 0.930 . S
C814 C812 1.419 1_556 S
C814 C815 1.362 . S
C815 H805 0.930 . S
C815 C808 1.409 . S
C815 C814 1.362 . S
H816 C822 0.930 . S
H817 C825 0.930 . S
H818 C826 0.930 . S
H819 C827 0.930 . S
H820 C830 0.930 . S
H821 C831 0.930 . S
C822 H816 0.930 . S
C822 C823 1.355 . S
C822 C824 1.415 1_556 S
C823 C822 1.355 . S
C823 C825 1.419 . S
C824 C822 1.415 1_554 S
C824 C829 1.425 . S
C824 C831 1.409 . S
C825 H817 0.930 . S
C825 C823 1.419 . S
C825 C826 1.362 . S
C826 H818 0.930 . S
C826 C825 1.362 . S
C826 C829 1.409 1_556 S
C827 H819 0.930 . S
C827 C828 1.355 . S
C827 C829 1.415 . S
C828 C827 1.355 . S
C828 C830 1.419 . S
C829 C824 1.425 . S
C829 C826 1.409 1_554 S
C829 C827 1.415 . S
C830 H820 0.930 . S
C830 C828 1.419 . S
C830 C831 1.362 . S
C831 H821 0.930 . S
C831 C824 1.409 . S
C831 C830 1.362 . S
H832 C838 0.934 . S
H833 C841 0.930 . S
H834 C842 0.930 . S
H835 C843 0.930 . S
H836 C846 0.930 . S
H837 C847 0.930 . S
C838 H832 0.934 . S
C838 C839 1.346 1_554 S
C838 C840 1.419 . S
C839 C838 1.346 1_556 S
C839 C841 1.419 . S
C840 C838 1.419 . S
C840 C845 1.423 1_554 S
C840 C847 1.409 . S
C841 H833 0.930 . S
C841 C839 1.419 . S
C841 C842 1.362 . S
C842 H834 0.930 . S
C842 C841 1.362 . S
C842 C845 1.413 . S
C843 H835 0.930 . S
C843 C844 1.355 . S
C843 C845 1.413 1_554 S
C844 C843 1.355 . S
C844 C846 1.419 . S
C845 C840 1.423 1_556 S
C845 C842 1.413 . S
C845 C843 1.413 1_556 S
C846 H836 0.930 . S
C846 C844 1.419 . S
C846 C847 1.362 . S
C847 H837 0.930 . S
C847 C840 1.409 . S
C847 C846 1.362 . S
H848 C854 0.930 . S
H849 C857 0.930 . S
H850 C858 0.930 . S
H851 C859 0.948 . S
H852 C862 0.930 . S
H853 C863 0.930 . S
C854 H848 0.930 . S
C854 C855 1.355 1_554 S
C854 C856 1.415 . S
C855 C854 1.355 1_556 S
C855 C857 1.419 . S
C856 C854 1.415 . S
C856 C861 1.425 1_554 S
C856 C863 1.409 . S
C857 H849 0.930 . S
C857 C855 1.419 . S
C857 C858 1.362 . S
C858 H850 0.930 . S
C858 C857 1.362 . S
C858 C861 1.409 . S
C859 H851 0.948 . S
C859 C860 1.332 1_556 S
C859 C861 1.420 . S
C860 C859 1.332 1_554 S
C860 C862 1.419 . S
C861 C856 1.425 1_556 S
C861 C858 1.409 . S
C861 C859 1.420 . S
C862 H852 0.930 . S
C862 C860 1.419 . S
C862 C863 1.362 . S
C863 H853 0.930 . S
C863 C856 1.409 . S
C863 C862 1.362 . S
H864 C870 0.930 . S
H865 C873 0.930 . S
H866 C874 0.930 . S
H867 C875 0.930 . S
H868 C878 0.930 . S
H869 C879 0.930 . S
C870 H864 0.930 . S
C870 C871 1.355 . S
C870 C872 1.415 . S
C871 C870 1.355 . S
C871 C873 1.419 . S
C872 C870 1.415 . S
C872 C877 1.425 . S
C872 C879 1.409 . S
C873 H865 0.930 . S
C873 C871 1.419 . S
C873 C874 1.362 . S
C874 H866 0.930 . S
C874 C873 1.362 . S
C874 C877 1.409 . S
C875 H867 0.930 . S
C875 C876 1.355 . S
C875 C877 1.415 . S
C876 C875 1.355 . S
C876 C878 1.419 . S
C877 C872 1.425 . S
C877 C874 1.409 . S
C877 C875 1.415 . S
C878 H868 0.930 . S
C878 C876 1.419 . S
C878 C879 1.362 . S
C879 H869 0.930 . S
C879 C872 1.409 . S
C879 C878 1.362 . S
H880 C886 0.930 . S
H881 C889 0.930 . S
H882 C890 0.930 . S
H883 C891 0.930 . S
H884 C894 0.930 . S
H885 C895 0.930 . S
C886 H880 0.930 . S
C886 C887 1.355 . S
C886 C888 1.415 . S
C887 C886 1.355 . S
C887 C889 1.419 . S
C888 C886 1.415 . S
C888 C893 1.425 . S
C888 C895 1.409 . S
C889 H881 0.930 . S
C889 C887 1.419 . S
C889 C890 1.362 . S
C890 H882 0.930 . S
C890 C889 1.362 . S
C890 C893 1.409 . S
C891 H883 0.930 . S
C891 C892 1.355 . S
C891 C893 1.415 . S
C892 C891 1.355 . S
C892 C894 1.419 . S
C893 C888 1.425 . S
C893 C890 1.409 . S
C893 C891 1.415 . S
C894 H884 0.930 . S
C894 C892 1.419 . S
C894 C895 1.362 . S
C895 H885 0.930 . S
C895 C888 1.409 . S
C895 C894 1.362 . S
H896 C902 0.930 . S
H897 C905 0.930 . S
H898 C906 0.930 . S
H899 C907 0.930 . S
H900 C910 0.930 . S
H901 C911 0.930 . S
C902 H896 0.930 . S
C902 C903 1.355 . S
C902 C904 1.415 . S
C903 C902 1.355 . S
C903 C905 1.419 . S
C904 C902 1.415 . S
C904 C909 1.425 . S
C904 C911 1.409 . S
C905 H897 0.930 . S
C905 C903 1.419 . S
C905 C906 1.362 . S
C906 H898 0.930 . S
C906 C905 1.362 . S
C906 C909 1.409 . S
C907 H899 0.930 . S
C907 C908 1.355 . S
C907 C909 1.415 . S
C908 C907 1.355 . S
C908 C910 1.419 . S
C909 C904 1.425 . S
C909 C906 1.409 . S
C909 C907 1.415 . S
C910 H900 0.930 . S
C910 C908 1.419 . S
C910 C911 1.362 . S
C911 H901 0.930 . S
C911 C904 1.409 . S
C911 C910 1.362 . S
H912 C918 0.930 . S
H913 C921 0.930 . S
H914 C922 0.930 . S
H915 C923 0.930 . S
H916 C926 0.930 . S
H917 C927 0.930 . S
C918 H912 0.930 . S
C918 C919 1.355 . S
C918 C920 1.415 . S
C919 C918 1.355 . S
C919 C921 1.419 . S
C920 C918 1.415 . S
C920 C925 1.425 . S
C920 C927 1.409 . S
C921 H913 0.930 . S
C921 C919 1.419 . S
C921 C922 1.362 . S
C922 H914 0.930 . S
C922 C921 1.362 . S
C922 C925 1.409 . S
C923 H915 0.930 . S
C923 C924 1.355 . S
C923 C925 1.415 . S
C924 C923 1.355 . S
C924 C926 1.419 . S
C925 C920 1.425 . S
C925 C922 1.409 . S
C925 C923 1.415 . S
C926 H916 0.930 . S
C926 C924 1.419 . S
C926 C927 1.362 . S
C927 H917 0.930 . S
C927 C920 1.409 . S
C927 C926 1.362 . S
H928 C934 0.930 . S
H929 C937 0.930 . S
H930 C938 0.930 . S
H931 C939 0.953 . S
H932 C942 0.930 . S
H933 C943 0.930 . S
C934 H928 0.930 . S
C934 C935 1.355 1_556 S
C934 C936 1.415 . S
C935 C934 1.355 1_554 S
C935 C937 1.419 . S
C936 C934 1.415 . S
C936 C941 1.425 1_556 S
C936 C943 1.409 . S
C937 H929 0.930 . S
C937 C935 1.419 . S
C937 C938 1.362 . S
C938 H930 0.930 . S
C938 C937 1.362 . S
C938 C941 1.409 . S
C939 H931 0.953 . S
C939 C940 1.325 1_554 S
C939 C941 1.422 . S
C940 C939 1.325 1_556 S
C940 C942 1.419 . S
C941 C936 1.425 1_554 S
C941 C938 1.409 . S
C941 C939 1.422 . S
C942 H932 0.930 . S
C942 C940 1.419 . S
C942 C943 1.362 . S
C943 H933 0.930 . S
C943 C936 1.409 . S
C943 C942 1.362 . S
H944 C950 0.930 . S
H945 C953 0.930 . S
H946 C954 0.930 . S
H947 C955 0.930 . S
H948 C958 0.930 . S
H949 C959 0.930 . S
C950 H944 0.930 . S
C950 C951 1.355 . S
C950 C952 1.415 . S
C951 C950 1.355 . S
C951 C953 1.419 1_554 S
C952 C950 1.415 . S
C952 C957 1.425 1_554 S
C952 C959 1.409 . S
C953 H945 0.930 . S
C953 C951 1.419 1_556 S
C953 C954 1.362 . S
C954 H946 0.930 . S
C954 C953 1.362 . S
C954 C957 1.409 . S
C955 H947 0.930 . S
C955 C956 1.355 . S
C955 C957 1.415 . S
C956 C955 1.355 . S
C956 C958 1.419 1_556 S
C957 C952 1.425 1_556 S
C957 C954 1.409 . S
C957 C955 1.415 . S
C958 H948 0.930 . S
C958 C956 1.419 1_554 S
C958 C959 1.362 . S
C959 H949 0.930 . S
C959 C952 1.409 . S
C959 C958 1.362 . S
H960 C966 0.930 . S
H961 C969 0.930 . S
H962 C970 0.930 . S
H963 C971 0.930 . S
H964 C974 0.930 . S
H965 C975 0.926 1_554 S
C966 H960 0.930 . S
C966 C967 1.355 . S
C966 C968 1.406 1_554 S
C967 C966 1.355 . S
C967 C969 1.419 . S
C968 C966 1.406 1_556 S
C968 C973 1.431 . S
C968 C975 1.413 . S
C969 H961 0.930 . S
C969 C967 1.419 . S
C969 C970 1.362 1_554 S
C970 H962 0.930 . S
C970 C969 1.362 1_556 S
C970 C973 1.409 . S
C971 H963 0.930 . S
C971 C972 1.355 . S
C971 C973 1.415 . S
C972 C971 1.355 . S
C972 C974 1.419 . S
C973 C968 1.431 . S
C973 C970 1.409 . S
C973 C971 1.415 . S
C974 H964 0.930 . S
C974 C972 1.419 . S
C974 C975 1.362 . S
C975 H965 0.926 1_556 S
C975 C968 1.413 . S
C975 C974 1.362 . S
H976 C982 0.930 . S
H977 C985 0.930 . S
H978 C986 0.930 . S
H979 C987 0.930 . S
H980 C990 0.930 . S
H981 C991 0.930 . S
C982 H976 0.930 . S
C982 C983 1.355 . S
C982 C984 1.415 . S
C983 C982 1.355 . S
C983 C985 1.419 1_554 S
C984 C982 1.415 . S
C984 C989 1.425 1_554 S
C984 C991 1.409 . S
C985 H977 0.930 . S
C985 C983 1.419 1_556 S
C985 C986 1.362 . S
C986 H978 0.930 . S
C986 C985 1.362 . S
C986 C989 1.409 . S
C987 H979 0.930 . S
C987 C988 1.355 . S
C987 C989 1.415 . S
C988 C987 1.355 . S
C988 C990 1.419 1_556 S
C989 C984 1.425 1_556 S
C989 C986 1.409 . S
C989 C987 1.415 . S
C990 H980 0.930 . S
C990 C988 1.419 1_554 S
C990 C991 1.362 . S
C991 H981 0.930 . S
C991 C984 1.409 . S
C991 C990 1.362 . S
H992 C998 0.930 . S
H993 C1001 0.930 . S
H994 C1002 0.930 . S
H995 C1003 0.930 . S
H996 C1006 0.930 . S
H997 C1007 0.930 . S
C998 H992 0.930 . S
C998 C999 1.355 . S
C998 C1000 1.415 . S
C999 C998 1.355 . S
C999 C1001 1.419 . S
C1000 C998 1.415 . S
C1000 C1005 1.425 . S
C1000 C1007 1.409 . S
C1001 H993 0.930 . S
C1001 C999 1.419 . S
C1001 C1002 1.362 . S
C1002 H994 0.930 . S
C1002 C1001 1.362 . S
C1002 C1005 1.409 . S
C1003 H995 0.930 . S
C1003 C1004 1.355 . S
C1003 C1005 1.415 . S
C1004 C1003 1.355 . S
C1004 C1006 1.419 . S
C1005 C1000 1.425 . S
C1005 C1002 1.409 . S
C1005 C1003 1.415 . S
C1006 H996 0.930 . S
C1006 C1004 1.419 . S
C1006 C1007 1.362 . S
C1007 H997 0.930 . S
C1007 C1000 1.409 . S
C1007 C1006 1.362 . S
H1008 C1014 0.930 . S
H1009 C1017 0.930 . S
H1010 C1018 0.930 . S
H1011 C1019 0.930 . S
H1012 C1022 0.930 . S
H1013 C1023 0.930 . S
C1014 H1008 0.930 . S
C1014 C1015 1.355 . S
C1014 C1016 1.415 . S
C1015 C1014 1.355 . S
C1015 C1017 1.419 . S
C1016 C1014 1.415 . S
C1016 C1021 1.425 . S
C1016 C1023 1.409 . S
C1017 H1009 0.930 . S
C1017 C1015 1.419 . S
C1017 C1018 1.362 . S
C1018 H1010 0.930 . S
C1018 C1017 1.362 . S
C1018 C1021 1.409 . S
C1019 H1011 0.930 . S
C1019 C1020 1.355 . S
C1019 C1021 1.415 . S
C1020 C1019 1.355 . S
C1020 C1022 1.419 . S
C1021 C1016 1.425 . S
C1021 C1018 1.409 . S
C1021 C1019 1.415 . S
C1022 H1012 0.930 . S
C1022 C1020 1.419 . S
C1022 C1023 1.362 . S
C1023 H1013 0.930 . S
C1023 C1016 1.409 . S
C1023 C1022 1.362 . S
H1024 C1030 0.930 . S
H1025 C1033 0.930 . S
H1026 C1034 0.930 . S
H1027 C1035 0.930 . S
H1028 C1038 0.930 . S
H1029 C1039 0.930 . S
C1030 H1024 0.930 . S
C1030 C1031 1.355 . S
C1030 C1032 1.415 . S
C1031 C1030 1.355 . S
C1031 C1033 1.419 . S
C1032 C1030 1.415 . S
C1032 C1037 1.425 . S
C1032 C1039 1.409 . S
C1033 H1025 0.930 . S
C1033 C1031 1.419 . S
C1033 C1034 1.362 . S
C1034 H1026 0.930 . S
C1034 C1033 1.362 . S
C1034 C1037 1.409 . S
C1035 H1027 0.930 . S
C1035 C1036 1.355 . S
C1035 C1037 1.415 . S
C1036 C1035 1.355 . S
C1036 C1038 1.419 . S
C1037 C1032 1.425 . S
C1037 C1034 1.409 . S
C1037 C1035 1.415 . S
C1038 H1028 0.930 . S
C1038 C1036 1.419 . S
C1038 C1039 1.362 . S
C1039 H1029 0.930 . S
C1039 C1032 1.409 . S
C1039 C1038 1.362 . S
H1040 C1046 0.930 . S
H1041 C1049 0.930 . S
H1042 C1050 0.930 . S
H1043 C1051 0.930 . S
H1044 C1054 0.930 . S
H1045 C1055 0.930 . S
C1046 H1040 0.930 . S
C1046 C1047 1.355 . S
C1046 C1048 1.415 . S
C1047 C1046 1.355 . S
C1047 C1049 1.419 . S
C1048 C1046 1.415 . S
C1048 C1053 1.425 . S
C1048 C1055 1.409 . S
C1049 H1041 0.930 . S
C1049 C1047 1.419 . S
C1049 C1050 1.362 . S
C1050 H1042 0.930 . S
C1050 C1049 1.362 . S
C1050 C1053 1.409 . S
C1051 H1043 0.930 . S
C1051 C1052 1.355 . S
C1051 C1053 1.415 . S
C1052 C1051 1.355 . S
C1052 C1054 1.419 . S
C1053 C1048 1.425 . S
C1053 C1050 1.409 . S
C1053 C1051 1.415 . S
C1054 H1044 0.930 . S
C1054 C1052 1.419 . S
C1054 C1055 1.362 . S
C1055 H1045 0.930 . S
C1055 C1048 1.409 . S
C1055 C1054 1.362 . S
H1056 C1062 0.930 . S
H1057 C1065 0.930 . S
H1058 C1066 0.930 . S
H1059 C1067 0.930 . S
H1060 C1070 0.930 . S
H1061 C1071 0.930 . S
C1062 H1056 0.930 . S
C1062 C1063 1.355 . S
C1062 C1064 1.415 . S
C1063 C1062 1.355 . S
C1063 C1065 1.419 . S
C1064 C1062 1.415 . S
C1064 C1069 1.425 . S
C1064 C1071 1.409 . S
C1065 H1057 0.930 . S
C1065 C1063 1.419 . S
C1065 C1066 1.362 . S
C1066 H1058 0.930 . S
C1066 C1065 1.362 . S
C1066 C1069 1.409 . S
C1067 H1059 0.930 . S
C1067 C1068 1.355 . S
C1067 C1069 1.415 . S
C1068 C1067 1.355 . S
C1068 C1070 1.419 . S
C1069 C1064 1.425 . S
C1069 C1066 1.409 . S
C1069 C1067 1.415 . S
C1070 H1060 0.930 . S
C1070 C1068 1.419 . S
C1070 C1071 1.362 . S
C1071 H1061 0.930 . S
C1071 C1064 1.409 . S
C1071 C1070 1.362 . S
H1072 C1078 0.930 . S
H1073 C1081 0.930 . S
H1074 C1082 0.930 . S
H1075 C1083 0.930 . S
H1076 C1086 0.930 . S
H1077 C1087 0.930 . S
C1078 H1072 0.930 . S
C1078 C1079 1.355 . S
C1078 C1080 1.415 . S
C1079 C1078 1.355 . S
C1079 C1081 1.419 . S
C1080 C1078 1.415 . S
C1080 C1085 1.425 . S
C1080 C1087 1.409 . S
C1081 H1073 0.930 . S
C1081 C1079 1.419 . S
C1081 C1082 1.362 . S
C1082 H1074 0.930 . S
C1082 C1081 1.362 . S
C1082 C1085 1.409 . S
C1083 H1075 0.930 . S
C1083 C1084 1.355 . S
C1083 C1085 1.415 . S
C1084 C1083 1.355 . S
C1084 C1086 1.419 . S
C1085 C1080 1.425 . S
C1085 C1082 1.409 . S
C1085 C1083 1.415 . S
C1086 H1076 0.930 . S
C1086 C1084 1.419 . S
C1086 C1087 1.362 . S
C1087 H1077 0.930 . S
C1087 C1080 1.409 . S
C1087 C1086 1.362 . S
H1088 C1094 0.930 . S
H1089 C1097 0.930 . S
H1090 C1098 0.930 . S
H1091 C1099 0.930 . S
H1092 C1102 0.930 . S
H1093 C1103 0.930 . S
C1094 H1088 0.930 . S
C1094 C1095 1.355 . S
C1094 C1096 1.415 . S
C1095 C1094 1.355 . S
C1095 C1097 1.419 . S
C1096 C1094 1.415 . S
C1096 C1101 1.425 . S
C1096 C1103 1.409 . S
C1097 H1089 0.930 . S
C1097 C1095 1.419 . S
C1097 C1098 1.362 . S
C1098 H1090 0.930 . S
C1098 C1097 1.362 . S
C1098 C1101 1.409 . S
C1099 H1091 0.930 . S
C1099 C1100 1.355 . S
C1099 C1101 1.415 . S
C1100 C1099 1.355 . S
C1100 C1102 1.419 . S
C1101 C1096 1.425 . S
C1101 C1098 1.409 . S
C1101 C1099 1.415 . S
C1102 H1092 0.930 . S
C1102 C1100 1.419 . S
C1102 C1103 1.362 . S
C1103 H1093 0.930 . S
C1103 C1096 1.409 . S
C1103 C1102 1.362 . S
H1104 C1110 0.930 . S
H1105 C1113 0.930 . S
H1106 C1114 0.930 . S
H1107 C1115 0.930 . S
H1108 C1118 0.930 . S
H1109 C1119 0.930 . S
C1110 H1104 0.930 . S
C1110 C1111 1.355 . S
C1110 C1112 1.415 . S
C1111 C1110 1.355 . S
C1111 C1113 1.419 . S
C1112 C1110 1.415 . S
C1112 C1117 1.425 . S
C1112 C1119 1.409 . S
C1113 H1105 0.930 . S
C1113 C1111 1.419 . S
C1113 C1114 1.362 . S
C1114 H1106 0.930 . S
C1114 C1113 1.362 . S
C1114 C1117 1.409 . S
C1115 H1107 0.930 . S
C1115 C1116 1.355 . S
C1115 C1117 1.415 . S
C1116 C1115 1.355 . S
C1116 C1118 1.419 . S
C1117 C1112 1.425 . S
C1117 C1114 1.409 . S
C1117 C1115 1.415 . S
C1118 H1108 0.930 . S
C1118 C1116 1.419 . S
C1118 C1119 1.362 . S
C1119 H1109 0.930 . S
C1119 C1112 1.409 . S
C1119 C1118 1.362 . S
H1120 C1126 0.930 . S
H1121 C1129 0.930 . S
H1122 C1130 0.930 . S
H1123 C1131 0.930 . S
H1124 C1134 0.930 . S
H1125 C1135 0.930 . S
C1126 H1120 0.930 . S
C1126 C1127 1.355 . S
C1126 C1128 1.415 . S
C1127 C1126 1.355 . S
C1127 C1129 1.419 . S
C1128 C1126 1.415 . S
C1128 C1133 1.425 . S
C1128 C1135 1.409 . S
C1129 H1121 0.930 . S
C1129 C1127 1.419 . S
C1129 C1130 1.362 . S
C1130 H1122 0.930 . S
C1130 C1129 1.362 . S
C1130 C1133 1.409 . S
C1131 H1123 0.930 . S
C1131 C1132 1.355 . S
C1131 C1133 1.415 . S
C1132 C1131 1.355 . S
C1132 C1134 1.419 . S
C1133 C1128 1.425 . S
C1133 C1130 1.409 . S
C1133 C1131 1.415 . S
C1134 H1124 0.930 . S
C1134 C1132 1.419 . S
C1134 C1135 1.362 . S
C1135 H1125 0.930 . S
C1135 C1128 1.409 . S
C1135 C1134 1.362 . S
H1136 C1142 0.930 . S
H1137 C1145 0.930 . S
H1138 C1146 0.930 . S
H1139 C1147 0.930 . S
H1140 C1150 0.930 . S
H1141 C1151 0.930 . S
C1142 H1136 0.930 . S
C1142 C1143 1.355 . S
C1142 C1144 1.415 . S
C1143 C1142 1.355 . S
C1143 C1145 1.419 . S
C1144 C1142 1.415 . S
C1144 C1149 1.425 . S
C1144 C1151 1.409 . S
C1145 H1137 0.930 . S
C1145 C1143 1.419 . S
C1145 C1146 1.362 . S
C1146 H1138 0.930 . S
C1146 C1145 1.362 . S
C1146 C1149 1.409 . S
C1147 H1139 0.930 . S
C1147 C1148 1.355 . S
C1147 C1149 1.415 . S
C1148 C1147 1.355 . S
C1148 C1150 1.419 . S
C1149 C1144 1.425 . S
C1149 C1146 1.409 . S
C1149 C1147 1.415 . S
C1150 H1140 0.930 . S
C1150 C1148 1.419 . S
C1150 C1151 1.362 . S
C1151 H1141 0.930 . S
C1151 C1144 1.409 . S
C1151 C1150 1.362 . S
H1152 C1158 0.930 . S
H1153 C1161 0.930 . S
H1154 C1162 0.930 . S
H1155 C1163 0.930 . S
H1156 C1166 0.930 . S
H1157 C1167 0.930 . S
C1158 H1152 0.930 . S
C1158 C1159 1.355 . S
C1158 C1160 1.415 . S
C1159 C1158 1.355 . S
C1159 C1161 1.419 . S
C1160 C1158 1.415 . S
C1160 C1165 1.425 . S
C1160 C1167 1.409 . S
C1161 H1153 0.930 . S
C1161 C1159 1.419 . S
C1161 C1162 1.362 . S
C1162 H1154 0.930 . S
C1162 C1161 1.362 . S
C1162 C1165 1.409 . S
C1163 H1155 0.930 . S
C1163 C1164 1.355 . S
C1163 C1165 1.415 . S
C1164 C1163 1.355 . S
C1164 C1166 1.419 . S
C1165 C1160 1.425 . S
C1165 C1162 1.409 . S
C1165 C1163 1.415 . S
C1166 H1156 0.930 . S
C1166 C1164 1.419 . S
C1166 C1167 1.362 . S
C1167 H1157 0.930 . S
C1167 C1160 1.409 . S
C1167 C1166 1.362 . S
H1168 C1174 0.930 . S
H1169 C1177 0.930 . S
H1170 C1178 0.930 . S
H1171 C1179 0.930 . S
H1172 C1182 0.930 . S
H1173 C1183 0.930 . S
C1174 H1168 0.930 . S
C1174 C1175 1.355 . S
C1174 C1176 1.415 . S
C1175 C1174 1.355 . S
C1175 C1177 1.419 . S
C1176 C1174 1.415 . S
C1176 C1181 1.425 . S
C1176 C1183 1.409 . S
C1177 H1169 0.930 . S
C1177 C1175 1.419 . S
C1177 C1178 1.362 . S
C1178 H1170 0.930 . S
C1178 C1177 1.362 . S
C1178 C1181 1.409 . S
C1179 H1171 0.930 . S
C1179 C1180 1.355 . S
C1179 C1181 1.415 . S
C1180 C1179 1.355 . S
C1180 C1182 1.419 . S
C1181 C1176 1.425 . S
C1181 C1178 1.409 . S
C1181 C1179 1.415 . S
C1182 H1172 0.930 . S
C1182 C1180 1.419 . S
C1182 C1183 1.362 . S
C1183 H1173 0.930 . S
C1183 C1176 1.409 . S
C1183 C1182 1.362 . S
C551 C20 1.674 . S
C556 C224 1.681 . S
C567 C258 1.715 . S
C572 C54 1.671 . S
C583 C156 1.671 . S
C588 C88 1.715 . S
C599 C190 1.738 . S
C604 C122 1.738 . S
C615 C292 1.735 . S
C620 C496 1.740 . S
C631 C326 1.733 . S
C636 C530 1.742 . S
C647 C428 1.734 . S
C652 C360 1.741 . S
C663 C394 1.670 . S
C668 C462 1.712 . S
C679 C281 2.539 1_545 S
C684 C9 2.539 1_565 S
C695 C315 2.506 . S
C700 C43 2.506 . S
C711 C349 2.497 . S
C716 C77 2.497 . S
C727 C383 2.537 1_455 S
C732 C111 2.537 1_655 S
C743 C417 2.542 . S
C748 C145 2.542 . S
C759 C451 2.499 . S
C764 C179 2.499 . S
C775 C213 2.501 1_565 S
C780 C485 2.501 1_545 S
C791 C247 2.509 . S
C796 C519 2.509 . S
C807 C339 1.064 . S
C812 C2 1.049 . S
C823 C373 1.038 . S
C828 C36 1.002 . S
C839 C407 0.947 . S
C844 C70 1.060 . S
C855 C305 0.958 . S
C860 C104 1.018 . S
C871 C138 1.074 . S
C876 C543 1.022 . S
C887 C172 1.055 . S
C892 C441 1.059 . S
C903 C206 1.036 . S
C908 C475 1.069 . S
C919 C240 1.001 . S
C924 C509 1.032 . S
C935 C67 0.995 . S
C940 C274 1.002 . S
C951 C101 0.999 . S
C956 C308 1.077 . S
C967 C135 1.069 . S
C972 C342 1.028 . S
C983 C33 1.005 . S
C988 C376 1.076 . S
C999 C271 1.058 . S
C1004 C410 1.011 . S
C1015 C169 0.978 . S
C1020 C444 1.075 . S
C1031 C203 0.957 . S
C1036 C478 1.019 . S
C1047 C512 1.000 . S
C1052 C237 1.007 . S
C1063 C73 0.454 . S
C1068 C5 0.378 . S
C1079 C107 0.425 . S
C1084 C39 0.357 . S
C1095 C141 0.554 . S
C1100 C209 0.487 . S
C1111 C243 0.593 . S
C1116 C175 0.573 . S
C1127 C277 0.585 . S
C1132 C345 0.590 . S
C1143 C379 0.593 . S
C1148 C311 0.577 . S
C1159 C413 0.551 . S
C1164 C481 0.482 . S
C1175 C447 0.348 . S
C1180 C515 0.345 . S
