# Generated by pormake.
# Topology crs, (6)-cn, num edge types: 1
# Building blocks:
#     Node 0, Type 0, BuildingBlock: NUHQIS_clean_sbu_0, # of connection points: 6
#     Node 1, Type 0, BuildingBlock: NUHQIS_clean_sbu_0, # of connection points: 6
#     Node 2, Type 0, BuildingBlock: NUHQIS_clean_sbu_0, # of connection points: 6
#     Node 3, Type 0, BuildingBlock: NUHQIS_clean_sbu_0, # of connection points: 6
#     Node 4, Type 0, BuildingBlock: NUHQIS_clean_sbu_0, # of connection points: 6
#     Node 5, Type 0, BuildingBlock: NUHQIS_clean_sbu_0, # of connection points: 6
#     Node 6, Type 0, BuildingBlock: NUHQIS_clean_sbu_0, # of connection points: 6
#     Node 7, Type 0, BuildingBlock: NUHQIS_clean_sbu_0, # of connection points: 6
#     Node 8, Type 0, BuildingBlock: NUHQIS_clean_sbu_0, # of connection points: 6
#     Node 9, Type 0, BuildingBlock: NUHQIS_clean_sbu_0, # of connection points: 6
#     Node 10, Type 0, BuildingBlock: NUHQIS_clean_sbu_0, # of connection points: 6
#     Node 11, Type 0, BuildingBlock: NUHQIS_clean_sbu_0, # of connection points: 6
#     Node 12, Type 0, BuildingBlock: NUHQIS_clean_sbu_0, # of connection points: 6
#     Node 13, Type 0, BuildingBlock: NUHQIS_clean_sbu_0, # of connection points: 6
#     Node 14, Type 0, BuildingBlock: NUHQIS_clean_sbu_0, # of connection points: 6
#     Node 15, Type 0, BuildingBlock: NUHQIS_clean_sbu_0, # of connection points: 6
#     Edge 16, Type (0, 0), BuildingBlock: ZUJKAS_clean_linker_0, # of connection points: 2
#     Edge 17, Type (0, 0), BuildingBlock: ZUJKAS_clean_linker_0, # of connection points: 2
#     Edge 18, Type (0, 0), BuildingBlock: ZUJKAS_clean_linker_0, # of connection points: 2
#     Edge 19, Type (0, 0), BuildingBlock: ZUJKAS_clean_linker_0, # of connection points: 2
#     Edge 20, Type (0, 0), BuildingBlock: ZUJKAS_clean_linker_0, # of connection points: 2
#     Edge 21, Type (0, 0), BuildingBlock: ZUJKAS_clean_linker_0, # of connection points: 2
#     Edge 22, Type (0, 0), BuildingBlock: ZUJKAS_clean_linker_0, # of connection points: 2
#     Edge 23, Type (0, 0), BuildingBlock: ZUJKAS_clean_linker_0, # of connection points: 2
#     Edge 24, Type (0, 0), BuildingBlock: ZUJKAS_clean_linker_0, # of connection points: 2
#     Edge 25, Type (0, 0), BuildingBlock: ZUJKAS_clean_linker_0, # of connection points: 2
#     Edge 26, Type (0, 0), BuildingBlock: ZUJKAS_clean_linker_0, # of connection points: 2
#     Edge 27, Type (0, 0), BuildingBlock: ZUJKAS_clean_linker_0, # of connection points: 2
#     Edge 28, Type (0, 0), BuildingBlock: ZUJKAS_clean_linker_0, # of connection points: 2
#     Edge 29, Type (0, 0), BuildingBlock: ZUJKAS_clean_linker_0, # of connection points: 2
#     Edge 30, Type (0, 0), BuildingBlock: ZUJKAS_clean_linker_0, # of connection points: 2
#     Edge 31, Type (0, 0), BuildingBlock: ZUJKAS_clean_linker_0, # of connection points: 2
#     Edge 32, Type (0, 0), BuildingBlock: ZUJKAS_clean_linker_0, # of connection points: 2
#     Edge 33, Type (0, 0), BuildingBlock: ZUJKAS_clean_linker_0, # of connection points: 2
#     Edge 34, Type (0, 0), BuildingBlock: ZUJKAS_clean_linker_0, # of connection points: 2
#     Edge 35, Type (0, 0), BuildingBlock: ZUJKAS_clean_linker_0, # of connection points: 2
#     Edge 36, Type (0, 0), BuildingBlock: ZUJKAS_clean_linker_0, # of connection points: 2
#     Edge 37, Type (0, 0), BuildingBlock: ZUJKAS_clean_linker_0, # of connection points: 2
#     Edge 38, Type (0, 0), BuildingBlock: ZUJKAS_clean_linker_0, # of connection points: 2
#     Edge 39, Type (0, 0), BuildingBlock: ZUJKAS_clean_linker_0, # of connection points: 2
#     Edge 40, Type (0, 0), BuildingBlock: ZUJKAS_clean_linker_0, # of connection points: 2
#     Edge 41, Type (0, 0), BuildingBlock: ZUJKAS_clean_linker_0, # of connection points: 2
#     Edge 42, Type (0, 0), BuildingBlock: ZUJKAS_clean_linker_0, # of connection points: 2
#     Edge 43, Type (0, 0), BuildingBlock: ZUJKAS_clean_linker_0, # of connection points: 2
#     Edge 44, Type (0, 0), BuildingBlock: ZUJKAS_clean_linker_0, # of connection points: 2
#     Edge 45, Type (0, 0), BuildingBlock: ZUJKAS_clean_linker_0, # of connection points: 2
#     Edge 46, Type (0, 0), BuildingBlock: ZUJKAS_clean_linker_0, # of connection points: 2
#     Edge 47, Type (0, 0), BuildingBlock: ZUJKAS_clean_linker_0, # of connection points: 2
#     Edge 48, Type (0, 0), BuildingBlock: ZUJKAS_clean_linker_0, # of connection points: 2
#     Edge 49, Type (0, 0), BuildingBlock: ZUJKAS_clean_linker_0, # of connection points: 2
#     Edge 50, Type (0, 0), BuildingBlock: ZUJKAS_clean_linker_0, # of connection points: 2
#     Edge 51, Type (0, 0), BuildingBlock: ZUJKAS_clean_linker_0, # of connection points: 2
#     Edge 52, Type (0, 0), BuildingBlock: ZUJKAS_clean_linker_0, # of connection points: 2
#     Edge 53, Type (0, 0), BuildingBlock: ZUJKAS_clean_linker_0, # of connection points: 2
#     Edge 54, Type (0, 0), BuildingBlock: ZUJKAS_clean_linker_0, # of connection points: 2
#     Edge 55, Type (0, 0), BuildingBlock: ZUJKAS_clean_linker_0, # of connection points: 2
#     Edge 56, Type (0, 0), BuildingBlock: ZUJKAS_clean_linker_0, # of connection points: 2
#     Edge 57, Type (0, 0), BuildingBlock: ZUJKAS_clean_linker_0, # of connection points: 2
#     Edge 58, Type (0, 0), BuildingBlock: ZUJKAS_clean_linker_0, # of connection points: 2
#     Edge 59, Type (0, 0), BuildingBlock: ZUJKAS_clean_linker_0, # of connection points: 2
#     Edge 60, Type (0, 0), BuildingBlock: ZUJKAS_clean_linker_0, # of connection points: 2
#     Edge 61, Type (0, 0), BuildingBlock: ZUJKAS_clean_linker_0, # of connection points: 2
#     Edge 62, Type (0, 0), BuildingBlock: ZUJKAS_clean_linker_0, # of connection points: 2
#     Edge 63, Type (0, 0), BuildingBlock: ZUJKAS_clean_linker_0, # of connection points: 2
# Relax obj value: 0.407
# Max RMSD: 0.341
# Mean RMSD: 0.296
data_MOF--net-crs--node1-NUHQIS_clean_sbu_0--edge1-ZUJKAS_clean_linker_0
_symmetry_space_group_name_H-M    P1
_symmetry_Int_Tables_number       1
_symmetry_cell_setting            triclinic
loop_
_symmetry_equiv_pos_as_xyz
'x, y, z'
_cell_length_a     61.736864
_cell_length_b     70.361852
_cell_length_c     56.537512
_cell_angle_alpha  77.984896
_cell_angle_beta   79.208214
_cell_angle_gamma 70.553874
loop_
_atom_site_label
_atom_site_type_symbol
_atom_site_fract_x
_atom_site_fract_y
_atom_site_fract_z
_atom_type_partial_charge
Tb0 Tb -0.01111 0.98482 0.04897 0.0
Eu1 Eu -0.00765 0.01647 0.99791 0.0
C2 C 0.03567 0.9938 0.02736 0.0
C3 C 0.98382 0.03084 0.04997 0.0
C4 C 0.97582 0.9413 0.08378 0.0
C5 C 0.98406 0.90801 0.07189 0.0
C6 C -0.00899 0.92162 0.08134 0.0
C7 C 0.95284 0.94624 0.07903 0.0
C8 C 0.94605 0.93279 0.06937 0.0
C9 C 0.9619 0.91399 0.06471 0.0
C10 C 0.98524 0.95786 0.08466 0.0
O11 O 0.9574 0.98996 0.03363 0.0
O12 O 0.95449 0.02147 0.01094 0.0
O13 O -0.01346 0.98958 0.9876 0.0
O14 O 0.0013 0.96615 0.01976 0.0
C15 C 0.94526 1.00706 0.02167 0.0
O16 O 0.9819 0.04705 0.97686 0.0
O17 O 0.00625 0.02204 0.95968 0.0
O18 O 0.02894 0.99935 1.0056 0.0
O19 O 0.02113 0.99131 0.04702 0.0
O20 O 0.97633 0.01511 0.05982 0.0
O21 O -0.00527 0.03224 0.02769 0.0
C22 C -0.00556 0.9706 0.99805 0.0
O23 O 0.00475 0.95724 0.07061 0.0
O24 O 0.97065 0.9763 0.0826 0.0
C25 C 0.01199 0.05424 0.94833 0.0
C26 C 0.04008 0.07993 0.93364 0.0
C27 C 0.01858 0.08531 0.92499 0.0
C28 C 0.00464 0.07249 0.93226 0.0
C29 C 0.0336 0.04867 0.95669 0.0
C30 C 0.04759 0.06136 0.9493 0.0
C31 C -0.0035 0.04176 0.95771 0.0
H32 H -0.00355 0.89343 0.06867 0.0
H33 H 0.00881 0.91741 0.08481 0.0
H34 H 0.94054 0.96115 0.08085 0.0
H35 H 0.92866 0.93748 0.06448 0.0
H36 H 0.01245 0.09953 0.91287 0.0
H37 H -0.01208 0.07703 0.9258 0.0
H38 H 0.0394 0.03475 0.96942 0.0
H39 H 0.06387 0.05701 0.95661 0.0
Tb40 Tb -0.00377 0.26902 0.27442 0.0
Eu41 Eu 0.96096 0.25568 0.24738 0.0
C42 C 0.00688 0.2236 0.26736 0.0
C43 C 0.00531 0.26643 0.2184 0.0
C44 C 0.01908 0.2937 0.31283 0.0
C45 C 0.03638 0.30896 0.33609 0.0
C46 C 0.03871 0.29588 0.31961 0.0
C47 C -0.00301 0.3045 0.3231 0.0
C48 C -0.00537 0.31761 0.33965 0.0
C49 C 0.01432 0.32018 0.34614 0.0
C50 C 0.02202 0.28085 0.29426 0.0
O51 O 0.96358 0.29332 0.276 0.0
O52 O 0.9501 0.29008 0.24232 0.0
O53 O 0.94304 0.26063 0.28495 0.0
O54 O 0.97509 0.25537 0.30363 0.0
C55 C 0.95046 0.30102 0.25842 0.0
O56 O 0.94497 0.25788 0.21517 0.0
O57 O 0.93758 0.238 0.2483 0.0
O58 O 0.98512 0.22698 0.26503 0.0
O59 O 0.01557 0.23854 0.26628 0.0
O60 O 0.00379 0.2774 0.23515 0.0
O61 O -0.0061 0.25319 0.22197 0.0
C62 C 0.95334 0.25625 0.30462 0.0
O63 O 0.01749 0.26361 0.30176 0.0
O64 O 0.01342 0.29028 0.27412 0.0
C65 C 0.93961 0.22698 0.21109 0.0
C66 C 0.94723 0.19444 0.18529 0.0
C67 C 0.9247 0.20504 0.19494 0.0
C68 C 0.92095 0.22115 0.20768 0.0
C69 C 0.96215 0.21647 0.20157 0.0
C70 C 0.96591 0.20041 0.18871 0.0
C71 C 0.93545 0.24361 0.22515 0.0
H72 H 0.05191 0.31029 0.34096 0.0
H73 H 0.05589 0.28764 0.31189 0.0
H74 H 0.98162 0.30306 0.31799 0.0
H75 H 0.97739 0.32614 0.34684 0.0
H76 H 0.9099 0.20101 0.19242 0.0
H77 H 0.90344 0.22904 0.21495 0.0
H78 H 0.97683 0.22061 0.20423 0.0
H79 H 0.9835 0.19244 0.18181 0.0
Tb80 Tb 0.74014 0.27513 0.5242 0.0
Eu81 Eu 0.72178 0.25893 0.48369 0.0
C82 C 0.68762 0.2824 0.52445 0.0
C83 C 0.73204 0.23106 0.53655 0.0
C84 C 0.75575 0.30609 0.56176 0.0
C85 C 0.75988 0.32327 0.59286 0.0
C86 C 0.75473 0.30733 0.58636 0.0
C87 C 0.76043 0.32173 0.54369 0.0
C88 C 0.76569 0.33766 0.55018 0.0
C89 C 0.76628 0.33817 0.5748 0.0
C90 C 0.75446 0.28731 0.5555 0.0
O91 O 0.76923 0.2516 0.50916 0.0
O92 O 0.75843 0.2584 0.47132 0.0
O93 O 0.71718 0.29236 0.46962 0.0
O94 O 0.74174 0.29813 0.49135 0.0
C95 C 0.77451 0.2511 0.48575 0.0
O96 O 0.7288 0.23815 0.45767 0.0
O97 O 0.69589 0.26225 0.4604 0.0
O98 O 0.69255 0.26651 0.51354 0.0
O99 O 0.7033 0.29122 0.52445 0.0
O100 O 0.73311 0.24712 0.5443 0.0
O101 O 0.7304 0.23141 0.51351 0.0
C102 C 0.72923 0.30362 0.47307 0.0
O103 O 0.73406 0.2849 0.5583 0.0
O104 O 0.76699 0.2815 0.53549 0.0
C105 C 0.69636 0.23187 0.4489 0.0
C106 C 0.67417 0.20398 0.44474 0.0
C107 C 0.67801 0.21859 0.42465 0.0
C108 C 0.68905 0.23241 0.42674 0.0
C109 C 0.69243 0.2175 0.46911 0.0
C110 C 0.6814 0.20362 0.46704 0.0
C111 C 0.70834 0.24622 0.45045 0.0
H112 H 0.75981 0.32346 0.61198 0.0
H113 H 0.75101 0.29545 0.60053 0.0
H114 H 0.76118 0.3211 0.52456 0.0
H115 H 0.77069 0.34882 0.53583 0.0
H116 H 0.67227 0.21948 0.40737 0.0
H117 H 0.69191 0.24351 0.41103 0.0
H118 H 0.69803 0.21695 0.48637 0.0
H119 H 0.67884 0.19244 0.48276 0.0
Tb120 Tb 0.72059 1.00954 0.74065 0.0
Eu121 Eu 0.74028 0.0292 0.77684 0.0
C122 C 0.77317 0.99587 0.74528 0.0
C123 C 0.72812 0.98633 0.79486 0.0
C124 C 0.70077 0.99818 0.68759 0.0
C125 C 0.70847 0.01186 0.64477 0.0
C126 C 0.71355 1.00804 0.6688 0.0
C127 C 0.68319 0.99202 0.68218 0.0
C128 C 0.67799 0.99598 0.6584 0.0
C129 C 0.69034 1.00616 0.63952 0.0
C130 C 0.70431 0.99504 0.7132 0.0
O131 O 0.6916 0.02333 0.76661 0.0
O132 O 0.70456 0.0489 0.77095 0.0
O133 O 0.74499 0.04794 0.73944 0.0
O134 O 0.72125 0.03929 0.7193 0.0
C135 C 0.68755 0.04162 0.77171 0.0
O136 O 0.73328 0.04354 0.80923 0.0
O137 O 0.76687 0.03888 0.78698 0.0
O138 O 0.76853 1.00157 0.76675 0.0
O139 O 0.75779 1.00259 0.72986 0.0
O140 O 0.7277 0.98516 0.77199 0.0
O141 O 0.72917 1.00302 0.80112 0.0
C142 C 0.73366 0.05103 0.72069 0.0
O143 O 0.72553 0.98761 0.71831 0.0
O144 O 0.69217 1.00989 0.72511 0.0
C145 C 0.76553 0.03634 0.82968 0.0
C146 C 0.786 0.02186 0.87305 0.0
C147 C 0.76767 0.04018 0.87075 0.0
C148 C 0.75758 0.04738 0.8492 0.0
C149 C 0.78347 0.01776 0.8321 0.0
C150 C 0.79373 1.01065 0.85358 0.0
C151 C 0.75442 0.0442 0.80732 0.0
H152 H 0.7182 0.01973 0.63048 0.0
H153 H 0.72711 0.01303 0.67278 0.0
H154 H 0.67317 0.98443 0.69648 0.0
H155 H 0.66416 0.99116 0.65476 0.0
H156 H 0.76158 0.04924 0.88537 0.0
H157 H 0.74363 0.06167 0.8477 0.0
H158 H 0.78962 1.0088 0.81738 0.0
H159 H 0.80774 0.99641 0.85498 0.0
Tb160 Tb 0.49282 0.7718 0.2764 0.0
Eu161 Eu 0.462 0.75812 0.24399 0.0
C162 C 0.50688 0.72675 0.26638 0.0
C163 C 0.5074 0.77004 0.21998 0.0
C164 C 0.51086 0.79546 0.32046 0.0
C165 C 0.52567 0.80623 0.35065 0.0
C166 C 0.52896 0.79363 0.33331 0.0
C167 C 0.48917 0.80981 0.32554 0.0
C168 C 0.48587 0.82249 0.34287 0.0
C169 C 0.50416 0.821 0.35548 0.0
C170 C 0.51541 0.78307 0.30097 0.0
O171 O 0.46081 0.79676 0.27339 0.0
O172 O 0.45129 0.79243 0.23788 0.0
O173 O 0.44001 0.76489 0.27934 0.0
O174 O 0.46927 0.75819 0.30249 0.0
C175 C 0.44981 0.80391 0.25408 0.0
O176 O 0.44911 0.75972 0.20999 0.0
O177 O 0.4392 0.7405 0.24262 0.0
O178 O 0.48557 0.72953 0.2628 0.0
O179 O 0.5142 0.74207 0.26741 0.0
O180 O 0.50472 0.78009 0.23803 0.0
O181 O 0.49586 0.75723 0.22082 0.0
C182 C 0.44768 0.76027 0.30058 0.0
O183 O 0.51062 0.76586 0.30684 0.0
O184 O 0.50879 0.79289 0.28005 0.0
C185 C 0.44312 0.72927 0.20515 0.0
C186 C 0.45083 0.69671 0.1795 0.0
C187 C 0.42833 0.70702 0.18946 0.0
C188 C 0.42453 0.72316 0.20214 0.0
C189 C 0.46564 0.71904 0.1953 0.0
C190 C 0.46945 0.70296 0.18247 0.0
C191 C 0.43872 0.74591 0.21917 0.0
H192 H 0.54023 0.80481 0.35973 0.0
H193 H 0.54585 0.78271 0.32955 0.0
H194 H 0.47494 0.81143 0.31584 0.0
H195 H 0.469 0.83351 0.34634 0.0
H196 H 0.4136 0.70276 0.18726 0.0
H197 H 0.40705 0.73084 0.20967 0.0
H198 H 0.48026 0.72341 0.19766 0.0
H199 H 0.487 0.69519 0.17525 0.0
Tb200 Tb 0.23355 0.78018 0.5388 0.0
Eu201 Eu 0.2165 0.7627 0.49869 0.0
C202 C 0.18171 0.78825 0.53672 0.0
C203 C 0.22799 0.73547 0.55129 0.0
C204 C 0.2578 0.80812 0.57074 0.0
C205 C 0.27114 0.82663 0.5936 0.0
C206 C 0.258 0.81411 0.59277 0.0
C207 C 0.27031 0.81519 0.54932 0.0
C208 C 0.28354 0.82767 0.55013 0.0
C209 C 0.28431 0.83328 0.57236 0.0
C210 C 0.24505 0.79402 0.57057 0.0
O211 O 0.26254 0.77366 0.51036 0.0
O212 O 0.25484 0.74763 0.49877 0.0
O213 O 0.22404 0.79138 0.4778 0.0
O214 O 0.22575 0.80664 0.50944 0.0
C215 C 0.26921 0.75765 0.49929 0.0
O216 O 0.22316 0.75079 0.46439 0.0
O217 O 0.18943 0.75549 0.48609 0.0
O218 O 0.1862 0.78731 0.5134 0.0
O219 O 0.19821 0.78016 0.55063 0.0
O220 O 0.23941 0.74771 0.55356 0.0
O221 O 0.21538 0.73971 0.53336 0.0
C222 C 0.22497 0.80722 0.48607 0.0
O223 O 0.22531 0.80211 0.56183 0.0
O224 O 0.25724 0.77703 0.56252 0.0
C225 C 0.20177 0.72896 0.46269 0.0
C226 C 0.19447 0.69348 0.45494 0.0
C227 C 0.19481 0.70964 0.43562 0.0
C228 C 0.19839 0.72726 0.43951 0.0
C229 C 0.20261 0.7125 0.48176 0.0
C230 C 0.19893 0.69488 0.47792 0.0
C231 C 0.20271 0.74847 0.467 0.0
H232 H 0.27164 0.83048 0.61102 0.0
H233 H 0.24838 0.80874 0.60943 0.0
H234 H 0.27015 0.81076 0.53212 0.0
H235 H 0.29337 0.83275 0.53347 0.0
H236 H 0.19116 0.70911 0.4178 0.0
H237 H 0.19769 0.73986 0.42462 0.0
H238 H 0.20536 0.71353 0.49977 0.0
H239 H 0.199 0.68257 0.49307 0.0
Tb240 Tb 0.23418 0.50812 0.747 0.0
Eu241 Eu 0.23858 0.53049 0.79068 0.0
C242 C 0.28056 0.49817 0.76679 0.0
C243 C 0.23093 0.486 0.80283 0.0
C244 C 0.22535 0.49388 0.69008 0.0
C245 C 0.2229 0.48233 0.65349 0.0
C246 C 0.23212 0.47872 0.67528 0.0
C247 C 0.20965 0.51294 0.68267 0.0
C248 C 0.20035 0.51658 0.66083 0.0
C249 C 0.20673 0.50121 0.64613 0.0
C250 C 0.23505 0.48948 0.71302 0.0
O251 O 0.1982 0.5258 0.75682 0.0
O252 O 0.20253 0.54599 0.782 0.0
O253 O 0.24561 0.55055 0.75446 0.0
O254 O 0.2282 0.53978 0.72944 0.0
C255 C 0.18987 0.54085 0.76973 0.0
O256 O 0.2251 0.54349 0.82424 0.0
O257 O 0.25928 0.54359 0.80586 0.0
O258 O 0.2697 0.50296 0.78784 0.0
O259 O 0.27014 0.50585 0.74729 0.0
O260 O 0.23705 0.48437 0.77952 0.0
O261 O 0.22695 0.50339 0.81057 0.0
C262 C 0.23687 0.55322 0.73393 0.0
O263 O 0.25006 0.49867 0.71348 0.0
O264 O 0.22043 0.48983 0.73295 0.0
C265 C 0.25394 0.538 0.84875 0.0
C266 C 0.27245 0.5217 0.89309 0.0
C267 C 0.25734 0.54176 0.88944 0.0
C268 C 0.24819 0.54986 0.86738 0.0
C269 C 0.26843 0.51777 0.85258 0.0
C270 C 0.27772 0.50972 0.87454 0.0
C271 C 0.24448 0.54662 0.82557 0.0
H272 H 0.22786 0.47006 0.64283 0.0
H273 H 0.24432 0.46396 0.68077 0.0
H274 H 0.20444 0.52487 0.69388 0.0
H275 H 0.18804 0.53131 0.65555 0.0
H276 H 0.25321 0.5514 0.90333 0.0
H277 H 0.23686 0.56544 0.86475 0.0
H278 H 0.27274 0.50829 0.83849 0.0
H279 H 0.28918 0.49418 0.87695 0.0
Tb280 Tb -0.00972 0.486 0.54327 0.0
Eu281 Eu 0.00013 0.51565 0.49176 0.0
C282 C 0.03986 0.49022 0.52498 0.0
C283 C -0.01015 0.53102 0.54297 0.0
C284 C 0.96591 0.45004 0.58661 0.0
C285 C 0.94589 0.43195 0.57079 0.0
C286 C 0.96303 0.4414 0.56761 0.0
C287 C 0.95191 0.44854 0.60907 0.0
C288 C 0.9346 0.4392 0.61221 0.0
C289 C 0.93113 0.4312 0.59291 0.0
C290 C 0.98066 0.46335 0.58182 0.0
O291 O 0.95996 0.49329 0.52508 0.0
O292 O 0.96147 0.52364 0.50133 0.0
O293 O -0.00713 0.48954 0.48126 0.0
O294 O 0.00305 0.46612 0.5153 0.0
C295 C 0.95005 0.51072 0.51194 0.0
O296 O -0.0051 0.54594 0.4699 0.0
O297 O 0.01686 0.51921 0.45432 0.0
O298 O 0.03473 0.49557 0.50258 0.0
O299 O 0.0239 0.48922 0.54373 0.0
O300 O 0.97945 0.51699 0.55162 0.0
O301 O 0.0029 0.53087 0.52182 0.0
C302 C -0.00129 0.47063 0.49251 0.0
O303 O -0.00028 0.45806 0.56688 0.0
O304 O 0.9695 0.48267 0.57675 0.0
C305 C 0.02888 0.54853 0.44477 0.0
C306 C 0.06331 0.56812 0.43421 0.0
C307 C 0.04334 0.57611 0.4223 0.0
C308 C 0.02625 0.56632 0.42752 0.0
C309 C 0.04889 0.54041 0.45645 0.0
C310 C 0.06603 0.55004 0.45111 0.0
C311 C 0.01024 0.53909 0.45191 0.0
H312 H 0.9434 0.42618 0.55549 0.0
H313 H 0.97331 0.44279 0.54993 0.0
H314 H 0.95369 0.45539 0.62379 0.0
H315 H 0.92354 0.4387 0.62949 0.0
H316 H 0.04086 0.59003 0.40917 0.0
H317 H 0.0108 0.57286 0.41849 0.0
H318 H 0.05099 0.52689 0.47015 0.0
H319 H 0.08099 0.54374 0.46092 0.0
Tb320 Tb 0.24194 0.27444 0.02889 0.0
Eu321 Eu 0.22707 0.2552 0.98916 0.0
C322 C 0.1901 0.27518 0.03214 0.0
C323 C 0.23486 0.22997 0.043 0.0
C324 C 0.26926 0.3048 0.05086 0.0
C325 C 0.29553 0.31946 0.06201 0.0
C326 C 0.28196 0.30632 0.06804 0.0
C327 C 0.27017 0.31656 0.02758 0.0
C328 C 0.28359 0.3298 0.02157 0.0
C329 C 0.29653 0.33133 0.03868 0.0
C330 C 0.25616 0.29012 0.05663 0.0
O331 O 0.27108 0.26797 1.00033 0.0
O332 O 0.26497 0.24048 0.9912 0.0
O333 O 0.23677 0.28318 0.96869 0.0
O334 O 0.22898 0.3005 1.0007 0.0
C335 C 0.27889 0.2509 0.99134 0.0
O336 O 0.23351 0.23059 0.96841 0.0
O337 O 0.20682 0.25926 0.95977 0.0
O338 O 0.19348 0.27191 1.00951 0.0
O339 O 0.2072 0.27382 0.04378 0.0
O340 O 0.24621 0.24231 0.04541 0.0
O341 O 0.22318 0.23368 0.0244 0.0
C342 C 0.23245 0.30032 0.97704 0.0
O343 O 0.23522 0.29706 0.05061 0.0
O344 O 0.26738 0.27234 0.05012 0.0
C345 C 0.20206 0.22953 0.95155 0.0
C346 C 0.17481 0.20678 0.94433 0.0
C347 C 0.19262 0.21032 0.92622 0.0
C348 C 0.20613 0.22162 0.92983 0.0
C349 C 0.18421 0.22625 0.96965 0.0
C350 C 0.17059 0.21498 0.96603 0.0
C351 C 0.21701 0.24075 0.95505 0.0
H352 H 0.30563 0.31999 0.07545 0.0
H353 H 0.28167 0.29712 0.08597 0.0
H354 H 0.26065 0.31539 0.01396 0.0
H355 H 0.28377 0.33885 1.00356 0.0
H356 H 0.19606 0.20441 0.90922 0.0
H357 H 0.21987 0.22408 0.91569 0.0
H358 H 0.18098 0.23222 0.9866 0.0
H359 H 0.15711 0.21231 0.98037 0.0
Tb360 Tb 0.2242 1.00985 0.2493 0.0
Eu361 Eu 0.24277 0.02975 0.28607 0.0
C362 C 0.27629 0.99648 0.25523 0.0
C363 C 0.22934 0.98753 0.30436 0.0
C364 C 0.21037 0.99711 0.19372 0.0
C365 C 0.21145 0.98135 0.15902 0.0
C366 C 0.21472 0.9796 0.18326 0.0
C367 C 0.20413 0.01642 0.17917 0.0
C368 C 0.20066 0.01818 0.15497 0.0
C369 C 0.20359 1.00068 0.14492 0.0
C370 C 0.21042 0.99493 0.22018 0.0
O371 O 0.19431 0.02399 0.27409 0.0
O372 O 0.20734 0.04942 0.27886 0.0
O373 O 0.24866 0.04803 0.24861 0.0
O374 O 0.22479 0.03975 0.22832 0.0
C375 C 0.19026 0.0423 0.27919 0.0
O376 O 0.23491 0.04478 0.31801 0.0
O377 O 0.26921 0.03902 0.29717 0.0
O378 O 0.2709 1.00168 0.27699 0.0
O379 O 0.26141 1.00377 0.23931 0.0
O380 O 0.22956 0.98599 0.28146 0.0
O381 O 0.23062 1.00421 0.31039 0.0
C382 C 0.23737 0.05131 0.22977 0.0
O383 O 0.23038 0.98661 0.22836 0.0
O384 O 0.19762 1.01051 0.23069 0.0
C385 C 0.26626 0.03708 0.33992 0.0
C386 C 0.2846 0.02239 0.38451 0.0
C387 C 0.26865 0.042 0.38045 0.0
C388 C 0.2596 0.04929 0.35828 0.0
C389 C 0.28179 0.01731 0.34407 0.0
C390 C 0.29102 1.01007 0.36616 0.0
C391 C 0.25614 0.04495 0.31698 0.0
H392 H 0.2136 0.96761 0.15185 0.0
H393 H 0.21959 0.96459 0.19418 0.0
H394 H 0.20095 0.03017 0.18675 0.0
H395 H 0.19476 0.03325 0.14443 0.0
H396 H 0.26362 0.0519 0.39416 0.0
H397 H 0.24746 0.06452 0.35543 0.0
H398 H 0.28683 1.0075 0.33025 0.0
H399 H 0.30317 0.99484 0.36892 0.0
Tb400 Tb 0.49729 0.27132 0.77527 0.0
Eu401 Eu 0.46661 0.26065 0.73996 0.0
C402 C 0.51073 0.22705 0.76102 0.0
C403 C 0.50958 0.2769 0.71935 0.0
C404 C 0.51427 0.29421 0.8204 0.0
C405 C 0.52738 0.30661 0.85043 0.0
C406 C 0.53178 0.29349 0.83342 0.0
C407 C 0.49216 0.30822 0.82461 0.0
C408 C 0.48772 0.3214 0.84164 0.0
C409 C 0.50529 0.32074 0.8548 0.0
C410 C 0.5194 0.28018 0.80265 0.0
O411 O 0.47375 0.30049 0.76086 0.0
O412 O 0.44467 0.29049 0.75174 0.0
O413 O 0.45897 0.24617 0.77874 0.0
O414 O 0.46462 0.27019 0.7965 0.0
C415 C 0.45243 0.30451 0.75616 0.0
O416 O 0.46054 0.25981 0.70351 0.0
O417 O 0.4389 0.24949 0.73481 0.0
O418 O 0.49907 0.23431 0.74225 0.0
O419 O 0.50959 0.23817 0.77756 0.0
O420 O 0.51791 0.26821 0.73999 0.0
O421 O 0.48774 0.28019 0.71746 0.0
C422 C 0.4557 0.25549 0.79754 0.0
O423 O 0.51009 0.26544 0.80883 0.0
O424 O 0.51778 0.28854 0.77994 0.0
C425 C 0.44733 0.23276 0.70036 0.0
C426 C 0.45307 0.19922 0.67699 0.0
C427 C 0.43178 0.21492 0.67853 0.0
C428 C 0.42897 0.23151 0.6901 0.0
C429 C 0.46847 0.21701 0.69927 0.0
C430 C 0.47132 0.2004 0.68772 0.0
C431 C 0.44455 0.25088 0.71125 0.0
H432 H 0.54142 0.30588 0.85987 0.0
H433 H 0.54896 0.2828 0.83036 0.0
H434 H 0.47838 0.30893 0.81475 0.0
H435 H 0.47047 0.33195 0.84468 0.0
H436 H 0.41724 0.21438 0.67083 0.0
H437 H 0.41251 0.2435 0.69079 0.0
H438 H 0.4829 0.21777 0.70697 0.0
H439 H 0.48802 0.18876 0.68667 0.0
Tb440 Tb -0.00478 0.77279 0.7717 0.0
Eu441 Eu 0.9661 0.75921 0.73726 0.0
C442 C 0.01495 0.73014 0.75236 0.0
C443 C 0.00169 0.78354 0.71525 0.0
C444 C 0.01246 0.79659 0.81659 0.0
C445 C 0.02769 0.81335 0.84016 0.0
C446 C 0.03113 0.80095 0.82256 0.0
C447 C -0.00988 0.80497 0.82839 0.0
C448 C -0.01337 0.81742 0.8461 0.0
C449 C 0.00543 0.82169 0.85232 0.0
C450 C 0.01696 0.78319 0.79813 0.0
O451 O 0.96716 0.8004 0.76185 0.0
O452 O 0.94145 0.78763 0.75017 0.0
O453 O 0.96318 0.7419 0.77533 0.0
O454 O 0.96511 0.76676 0.7944 0.0
C455 C 0.94665 0.80255 0.7561 0.0
O456 O 0.96103 0.7561 0.70136 0.0
O457 O 0.93908 0.7468 0.73316 0.0
O458 O 0.0018 0.73719 0.73483 0.0
O459 O 0.01245 0.74025 0.77039 0.0
O460 O 0.01253 0.77485 0.73447 0.0
O461 O 0.98042 0.78372 0.71521 0.0
C462 C 0.9589 0.75058 0.79481 0.0
O463 O 0.00941 0.76738 0.8044 0.0
O464 O 0.01338 0.79216 0.77597 0.0
C465 C 0.94787 0.72868 0.69985 0.0
C466 C 0.95443 0.69462 0.67722 0.0
C467 C 0.93397 0.71123 0.67595 0.0
C468 C 0.93077 0.7281 0.68712 0.0
C469 C 0.96808 0.71199 0.70175 0.0
C470 C 0.97133 0.69508 0.69055 0.0
C471 C 0.945 0.74728 0.7097 0.0
H472 H 0.04253 0.8166 0.84398 0.0
H473 H 0.04849 0.79474 0.81356 0.0
H474 H 0.97544 0.8018 0.824 0.0
H475 H 0.96927 0.82345 0.85515 0.0
H476 H 0.92043 0.71125 0.66622 0.0
H477 H 0.91506 0.74085 0.68549 0.0
H478 H 0.98154 0.71222 0.71144 0.0
H479 H -0.01263 0.68266 0.69174 0.0
Tb480 Tb 0.72847 0.5059 0.23497 0.0
Eu481 Eu 0.73825 0.52817 0.27585 0.0
C482 C 0.7792 0.49393 0.25022 0.0
C483 C 0.73192 0.48363 0.29038 0.0
C484 C 0.71221 0.49566 0.17981 0.0
C485 C 0.71135 0.48786 0.14028 0.0
C486 C 0.71936 0.48202 0.16299 0.0
C487 C 0.69746 0.51546 0.17345 0.0
C488 C 0.68927 0.52127 0.15076 0.0
C489 C 0.69595 0.50743 0.13406 0.0
C490 C 0.72079 0.489 0.20359 0.0
O491 O 0.69855 0.53261 0.23897 0.0
O492 O 0.70017 0.53269 0.27869 0.0
O493 O 0.73378 0.55197 0.24182 0.0
O494 O 0.73873 0.53186 0.21272 0.0
C495 C 0.68871 0.53856 0.25988 0.0
O496 O 0.72627 0.53821 0.31125 0.0
O497 O 0.75524 0.54625 0.28829 0.0
O498 O 0.77398 0.50944 0.26198 0.0
O499 O 0.76369 0.48918 0.2416 0.0
O500 O 0.7213 0.4877 0.2708 0.0
O501 O 0.74307 0.49559 0.29388 0.0
C502 C 0.73694 0.54948 0.21885 0.0
O503 O 0.74073 0.49133 0.20416 0.0
O504 O 0.70597 0.49451 0.22255 0.0
C505 C 0.75506 0.54089 0.33083 0.0
C506 C 0.77855 0.53059 0.37192 0.0
C507 C 0.75997 0.54868 0.36889 0.0
C508 C 0.74834 0.55379 0.34845 0.0
C509 C 0.77324 0.5226 0.33398 0.0
C510 C 0.78498 0.51752 0.35436 0.0
C511 C 0.74262 0.54647 0.30958 0.0
H512 H 0.71652 0.47677 0.12795 0.0
H513 H 0.73092 0.46675 0.16757 0.0
H514 H 0.69209 0.52631 0.1861 0.0
H515 H 0.67751 0.53648 0.14637 0.0
H516 H 0.75484 0.55913 0.38199 0.0
H517 H 0.7342 0.5679 0.34629 0.0
H518 H 0.77841 0.51235 0.32064 0.0
H519 H 0.7991 0.5034 0.35638 0.0
Tb520 Tb 0.74614 0.77266 0.02082 0.0
Eu521 Eu 0.72442 0.75697 0.98269 0.0
C522 C 0.69266 0.77725 0.02906 0.0
C523 C 0.73439 0.72971 0.03519 0.0
C524 C 0.78555 0.79336 0.0405 0.0
C525 C 0.81511 0.80367 0.05243 0.0
C526 C 0.79665 0.79555 0.05872 0.0
C527 C 0.79293 0.79947 0.01591 0.0
C528 C 0.8114 0.80756 1.00959 0.0
C529 C 0.82279 0.80963 0.02779 0.0
C530 C 0.7673 0.78353 0.04698 0.0
O531 O 0.77248 0.76516 0.99003 0.0
O532 O 0.76217 0.73954 0.98153 0.0
O533 O 0.73429 0.78479 0.96208 0.0
O534 O 0.73351 0.80014 0.99426 0.0
C535 C 0.77787 0.74835 0.98085 0.0
O536 O 0.72833 0.73559 0.95828 0.0
O537 O 0.6983 0.76252 0.95869 0.0
O538 O 0.69357 0.77312 1.0072 0.0
O539 O 0.71113 0.776 0.03837 0.0
O540 O 0.7466 0.74131 0.0377 0.0
O541 O 0.72226 0.73408 0.01686 0.0
C542 C 0.73346 0.80099 0.97077 0.0
O543 O 0.7471 0.79457 0.04048 0.0
O544 O 0.77343 0.7652 0.04157 0.0
C545 C 0.69389 0.73303 0.94937 0.0
C546 C 0.66771 0.70795 0.9462 0.0
C547 C 0.67206 0.72235 0.92609 0.0
C548 C 0.68509 0.73476 0.92768 0.0
C549 C 0.68924 0.71904 0.96968 0.0
C550 C 0.67626 0.70655 0.9681 0.0
C551 C 0.70854 0.74543 0.95018 0.0
H552 H 0.82326 0.80542 0.06688 0.0
H553 H 0.79118 0.79081 0.07777 0.0
H554 H 0.7846 0.7977 1.00161 0.0
H555 H 0.81702 0.81187 0.99047 0.0
H556 H 0.66538 0.72405 0.90912 0.0
H557 H 0.68849 0.74558 0.91188 0.0
H558 H 0.69596 0.71755 0.98659 0.0
H559 H 0.67338 0.69548 0.98383 0.0
Tb560 Tb 0.49127 0.98763 0.5472 0.0
Eu561 Eu 0.49016 0.01873 0.49517 0.0
C562 C 0.53628 0.9976 0.52005 0.0
C563 C 0.48531 0.0342 0.54565 0.0
C564 C 0.48166 0.94549 0.59261 0.0
C565 C 0.4563 0.92851 0.62034 0.0
C566 C 0.46964 0.94181 0.61584 0.0
C567 C 0.4813 0.93486 0.57434 0.0
C568 C 0.46811 0.92155 0.57883 0.0
C569 C 0.45485 0.91876 0.60161 0.0
C570 C 0.49106 0.96274 0.58625 0.0
O571 O 0.4584 0.99149 0.53521 0.0
O572 O 0.45317 0.02305 0.51176 0.0
O573 O 0.48412 0.99092 0.48778 0.0
O574 O 0.50211 0.9682 0.51874 0.0
C575 C 0.44497 1.00836 0.52402 0.0
O576 O 0.47994 0.04929 0.47394 0.0
O577 O 0.4992 0.02329 0.45573 0.0
O578 O 0.52764 1.00235 0.49936 0.0
O579 O 0.52334 0.99526 0.54102 0.0
O580 O 0.47853 0.01835 0.55666 0.0
O581 O 0.49483 0.03541 0.52283 0.0
C582 C 0.49379 0.97213 0.49784 0.0
O583 O 0.50882 0.96106 0.56928 0.0
O584 O 0.47545 0.9805 0.58266 0.0
C585 C 0.5098 0.05339 0.44293 0.0
C586 C 0.54279 0.07454 0.43089 0.0
C587 C 0.51933 0.08496 0.42848 0.0
C588 C 0.50294 0.07444 0.43451 0.0
C589 C 0.53343 0.0428 0.44391 0.0
C590 C 0.54977 0.05327 0.43789 0.0
C591 C 0.49228 0.04314 0.45396 0.0
H592 H 0.44636 0.92652 0.63811 0.0
H593 H 0.46954 0.95006 0.63006 0.0
H594 H 0.4901 0.93773 0.55613 0.0
H595 H 0.46706 0.91457 0.56389 0.0
H596 H 0.51344 0.10139 0.42333 0.0
H597 H 0.48478 0.08288 0.43384 0.0
H598 H 0.53922 0.02655 0.45042 0.0
H599 H 0.56777 0.04483 0.4396 0.0
Tb600 Tb 0.48541 0.48813 0.04631 0.0
Eu601 Eu 0.48388 0.51979 0.99468 0.0
C602 C 0.53005 0.49887 0.02012 0.0
C603 C 0.47931 0.5345 0.0458 0.0
C604 C 0.4736 0.44514 0.08383 0.0
C605 C 0.47462 0.41715 0.06415 0.0
C606 C 0.48621 0.42782 0.07275 0.0
C607 C 0.44939 0.44968 0.08922 0.0
C608 C 0.43786 0.4392 0.08034 0.0
C609 C 0.45038 0.42363 0.06666 0.0
C610 C 0.48424 0.46134 0.08286 0.0
O611 O 0.45266 0.49205 0.03422 0.0
O612 O 0.44683 0.52369 0.01095 0.0
O613 O 0.47783 0.49212 0.98681 0.0
O614 O 0.49703 0.46962 0.017 0.0
C615 C 0.43896 0.50882 0.02329 0.0
O616 O 0.47259 0.5504 0.97382 0.0
O617 O 0.49409 0.52504 0.95544 0.0
O618 O 0.52146 0.50391 0.99934 0.0
O619 O 0.51729 0.49578 0.04101 0.0
O620 O 0.47294 0.51845 0.05687 0.0
O621 O 0.4883 0.53612 0.0228 0.0
C622 C 0.48778 0.47336 0.99674 0.0
O623 O 0.5028 0.46061 0.0671 0.0
O624 O 0.46986 0.47985 0.08156 0.0
C625 C 0.50258 0.55625 0.94397 0.0
C626 C 0.53356 0.57939 0.93399 0.0
C627 C 0.50996 0.58892 0.9315 0.0
C628 C 0.49457 0.57741 0.93651 0.0
C629 C 0.52638 0.5466 0.945 0.0
C630 C 0.54172 0.55806 0.94001 0.0
C631 C 0.48592 0.54486 0.95402 0.0
H632 H 0.48452 0.40497 0.05383 0.0
H633 H 0.50488 0.42374 0.06855 0.0
H634 H 0.43914 0.4627 0.09803 0.0
H635 H 0.41909 0.44412 0.0828 0.0
H636 H 0.50315 0.60536 0.92707 0.0
H637 H 0.47626 0.58515 0.93579 0.0
H638 H 0.53306 0.53029 0.95076 0.0
H639 H 0.55987 0.55028 0.9417 0.0
H640 H 0.95832 0.03592 0.09487 0.0
H641 H 0.95171 0.06369 0.11785 0.0
H642 H -0.00534 0.09068 0.061 0.0
H643 H 0.00095 0.06333 0.03771 0.0
H644 H 0.98196 0.07575 0.13627 0.0
H645 H 0.93707 0.13876 0.06858 0.0
H646 H 0.94238 0.11227 0.06671 0.0
H647 H 0.96503 0.12396 0.05608 0.0
C648 C 0.9663 0.0478 0.08719 0.0
C649 C 0.98001 0.04743 0.0643 0.0
C650 C 0.96251 0.06368 0.10038 0.0
C651 C 0.9723 0.07953 0.09097 0.0
C652 C -0.01361 0.07896 0.06837 0.0
H653 H 0.97635 0.18605 0.14316 0.0
H654 H 0.98266 0.1578 0.12103 0.0
C655 C -0.00992 0.06319 0.05512 0.0
C656 C 0.96821 0.09643 0.10497 0.0
H657 H 0.94841 0.14839 0.1012 0.0
C658 C 0.97447 0.09162 0.12865 0.0
C659 C 0.95842 0.11718 0.09508 0.0
C660 C 0.95012 0.12338 0.07032 0.0
C661 C 0.9717 0.10696 0.14245 0.0
C662 C 0.96217 0.12768 0.13242 0.0
C663 C 0.95582 0.13251 0.10881 0.0
C664 C 0.95856 0.14459 0.14618 0.0
C665 C 0.97945 0.10092 0.16746 0.0
C666 C 0.94277 0.14665 0.16756 0.0
C667 C 0.93912 0.16278 0.18025 0.0
C668 C 0.9512 0.17721 0.17182 0.0
C669 C 0.96698 0.17509 0.15034 0.0
C670 C 0.97051 0.15902 0.13759 0.0
H671 H -0.00889 0.08496 0.17026 0.0
H672 H -0.01143 0.11126 0.1704 0.0
H673 H 0.96404 0.10213 0.18146 0.0
H674 H 0.93311 0.13587 0.17435 0.0
H675 H 0.92698 0.16384 0.19681 0.0
H676 H 0.79006 0.23897 0.44158 0.0
H677 H 0.82942 0.23143 0.42079 0.0
H678 H 0.85348 0.23876 0.48425 0.0
H679 H 0.81369 0.24652 0.50535 0.0
H680 H 0.86478 0.2633 0.44233 0.0
H681 H 0.88911 0.1845 0.42397 0.0
H682 H 0.86049 0.19843 0.41655 0.0
H683 H 0.86627 0.19403 0.44766 0.0
C684 C 0.80376 0.23857 0.45135 0.0
C685 C 0.79881 0.2435 0.47499 0.0
C686 C 0.82633 0.234 0.43954 0.0
C687 C 0.84443 0.2342 0.45112 0.0
C688 C 0.83975 0.23827 0.47515 0.0
H689 H 0.96743 0.24928 0.34967 0.0
H690 H 0.94569 0.24128 0.38935 0.0
C691 C 0.81707 0.2427 0.48713 0.0
C692 C 0.86708 0.23337 0.43644 0.0
H693 H 0.90457 0.20825 0.39246 0.0
C694 C 0.8741 0.25096 0.43202 0.0
C695 C 0.87922 0.21721 0.42313 0.0
C696 C 0.8735 0.1974 0.4283 0.0
C697 C 0.8913 0.25373 0.4128 0.0
C698 C 0.90172 0.23843 0.39792 0.0
C699 C 0.89628 0.22004 0.4038 0.0
C700 C 0.91548 0.24248 0.37427 0.0
C701 C 0.89682 0.27367 0.40716 0.0
C702 C 0.90562 0.24567 0.35283 0.0
C703 C 0.91785 0.2503 0.3302 0.0
C704 C 0.94026 0.25171 0.32865 0.0
C705 C 0.95017 0.24835 0.35024 0.0
C706 C 0.93784 0.24377 0.37292 0.0
H707 H 0.88625 0.28444 0.41982 0.0
H708 H 0.9154 0.27073 0.4085 0.0
H709 H 0.89374 0.28106 0.3882 0.0
H710 H 0.88829 0.24479 0.35364 0.0
H711 H 0.90974 0.2527 0.31397 0.0
H712 H 0.75064 0.08278 0.72005 0.0
H713 H 0.74995 0.11251 0.68842 0.0
H714 H 0.71787 0.08938 0.64402 0.0
H715 H 0.71783 0.05995 0.67591 0.0
H716 H 0.76942 0.11749 0.64301 0.0
H717 H 0.67466 0.14598 0.64074 0.0
H718 H 0.68775 0.12585 0.66401 0.0
H719 H 0.68711 0.12033 0.63448 0.0
C720 C 0.74337 0.08398 0.7036 0.0
C721 C 0.73414 0.06886 0.7008 0.0
C722 C 0.74298 0.10109 0.68541 0.0
C723 C 0.73338 0.10368 0.6638 0.0
C724 C 0.72471 0.08832 0.6607 0.0
H725 H 0.7232 0.19632 0.53081 0.0
H726 H 0.7238 0.16549 0.56093 0.0
C727 C 0.72489 0.07128 0.67897 0.0
C728 C 0.73293 0.12218 0.64448 0.0
H729 H 0.6974 0.16188 0.60935 0.0
C730 C 0.75359 0.12718 0.6358 0.0
C731 C 0.71236 0.1351 0.63482 0.0
C732 C 0.68918 0.1317 0.64415 0.0
C733 C 0.75432 0.14432 0.61781 0.0
C734 C 0.73382 0.1571 0.60809 0.0
C735 C 0.71319 0.15209 0.61659 0.0
C736 C 0.73338 0.17599 0.58963 0.0
C737 C 0.77719 0.14845 0.60905 0.0
C738 C 0.73827 0.19244 0.5956 0.0
C739 C 0.73778 0.21016 0.57847 0.0
C740 C 0.73249 0.21201 0.55471 0.0
C741 C 0.7275 0.19553 0.54878 0.0
C742 C 0.72777 0.17784 0.56606 0.0
H743 H 0.79207 0.13482 0.61381 0.0
H744 H 0.77922 0.15332 0.58898 0.0
H745 H 0.77781 0.16098 0.61776 0.0
H746 H 0.7423 0.19165 0.61369 0.0
H747 H 0.74167 0.22243 0.58389 0.0
H748 H 0.91914 0.98165 0.04239 0.0
H749 H 0.88424 0.9808 0.02861 0.0
H750 H 0.88492 0.03423 0.97506 0.0
H751 H 0.91908 0.03567 0.98924 0.0
H752 H 0.84145 0.03477 0.99402 0.0
H753 H 0.89128 0.95902 0.96628 0.0
H754 H 0.88774 0.96038 0.99819 0.0
H755 H 0.90496 0.97409 0.97688 0.0
C756 C 0.91156 0.99347 0.02801 0.0
C757 C 0.92208 1.00856 0.01664 0.0
C758 C 0.89171 0.99286 0.02006 0.0
C759 C 0.88237 1.00711 1.00038 0.0
C760 C 0.89191 0.023 0.99021 0.0
H761 H 0.83237 1.00953 0.87467 0.0
H762 H 0.85226 1.0028 0.91036 0.0
C763 C 0.91151 0.02378 0.99832 0.0
C764 C 0.86406 1.00485 0.98862 0.0
H765 H 0.85537 0.97555 0.95235 0.0
C766 C 0.8442 0.02167 0.98526 0.0
C767 C 0.86781 0.98768 0.97725 0.0
C768 C 0.88913 0.9693 0.97962 0.0
C769 C 0.82893 0.02256 0.96928 0.0
C770 C 0.83331 1.00582 0.95696 0.0
C771 C 0.85213 0.98832 0.96185 0.0
C772 C 0.82098 1.00745 0.9362 0.0
C773 C 0.80935 0.04203 0.9643 0.0
C774 C 0.79684 0.01172 0.93896 0.0
C775 C 0.7854 0.01582 0.91847 0.0
C776 C 0.798 0.01531 0.89503 0.0
C777 C 0.82225 1.00988 0.89252 0.0
C778 C 0.83361 1.00605 0.91291 0.0
H779 H 0.81093 0.05469 0.9721 0.0
H780 H 0.80881 0.04696 0.94439 0.0
H781 H 0.79265 0.03936 0.9726 0.0
H782 H 0.78682 0.0124 0.95683 0.0
H783 H 0.76669 0.0197 0.92088 0.0
H784 H 0.05472 0.98308 0.06967 0.0
H785 H 0.09255 0.98309 0.07578 0.0
H786 H 0.10936 0.99993 0.99833 0.0
H787 H 0.07084 1.00054 0.99198 0.0
H788 H 0.13639 0.96134 0.0587 0.0
H789 H 0.12012 0.04469 0.02596 0.0
H790 H 0.09716 0.03319 0.03172 0.0
H791 H 0.11829 0.02922 1.00524 0.0
C792 C 0.06639 0.98671 0.05382 0.0
C793 C 0.05962 0.992 0.03034 0.0
C794 C 0.08812 0.98663 0.05736 0.0
C795 C 0.1037 0.99173 0.03756 0.0
C796 C 0.09745 0.99628 0.01391 0.0
H797 H 0.22504 0.97963 0.10674 0.0
H798 H 0.20713 0.97817 0.07213 0.0
C799 C 0.07549 0.99649 0.01032 0.0
C800 C 0.12586 0.99296 0.04259 0.0
H801 H 0.15135 0.02778 0.04807 0.0
C802 C 0.1401 0.97573 0.0559 0.0
C803 C 0.13061 0.01178 0.03874 0.0
C804 C 0.11576 0.03085 0.02475 0.0
C805 C 0.15739 0.97721 0.0677 0.0
C806 C 0.16109 0.99639 0.06532 0.0
C807 C 0.14843 0.01314 0.0499 0.0
C808 C 0.17429 1.00024 0.08227 0.0
C809 C 0.16989 0.95867 0.08445 0.0
C810 C 0.16244 0.01424 0.09831 0.0
C811 C 0.17276 0.01541 0.11764 0.0
C812 C 0.19511 1.00249 0.12145 0.0
C813 C 0.20766 0.98957 0.10436 0.0
C814 C 0.19742 0.98865 0.08469 0.0
H815 H 0.16226 0.94602 0.08708 0.0
H816 H 0.18827 0.95298 0.07653 0.0
H817 H 0.16941 0.96259 0.10261 0.0
H818 H 0.14459 0.02336 0.09685 0.0
H819 H 0.16257 0.0254 0.1306 0.0
H820 H 0.00732 0.42959 0.5098 0.0
H821 H 0.00911 0.4027 0.48737 0.0
H822 H -0.00494 0.44727 0.42262 0.0
H823 H -0.00707 0.4742 0.44483 0.0
H824 H 0.96874 0.42096 0.43131 0.0
H825 H 0.06174 0.37801 0.43627 0.0
H826 H 0.04446 0.38203 0.46518 0.0
H827 H 0.04889 0.4035 0.4436 0.0
C828 C 0.00471 0.43367 0.49075 0.0
C829 C 0.00013 0.45409 0.47911 0.0
C830 C 0.00583 0.41825 0.47793 0.0
C831 C 0.00253 0.42292 0.4532 0.0
C832 C -0.00227 0.44329 0.44165 0.0
H833 H 0.03938 0.34659 0.34191 0.0
H834 H 0.03574 0.37066 0.36901 0.0
C835 C -0.00343 0.45868 0.45442 0.0
C836 C 0.00386 0.40675 0.43922 0.0
H837 H 0.04066 0.36375 0.41795 0.0
C838 C 0.98443 0.40839 0.42847 0.0
C839 C 0.02442 0.39049 0.43531 0.0
C840 C 0.04616 0.3884 0.44549 0.0
C841 C 0.98504 0.3943 0.41379 0.0
C842 C 0.00553 0.37792 0.41007 0.0
C843 C 0.02491 0.37622 0.42096 0.0
C844 C 0.00764 0.36299 0.39395 0.0
C845 C 0.96398 0.39749 0.40175 0.0
C846 C -0.00681 0.35049 0.39904 0.0
C847 C -0.00474 0.33663 0.38354 0.0
C848 C 0.01198 0.33487 0.36276 0.0
C849 C 0.02654 0.34731 0.3579 0.0
C850 C 0.02442 0.36116 0.37334 0.0
H851 H 0.95187 0.41324 0.40172 0.0
H852 H 0.96905 0.39451 0.38265 0.0
H853 H 0.95455 0.38671 0.41188 0.0
H854 H 0.98043 0.35132 0.4151 0.0
H855 H 0.984 0.32709 0.38804 0.0
H856 H 0.64874 0.27322 0.52176 0.0
H857 H 0.61334 0.27878 0.55064 0.0
H858 H 0.63975 0.31124 0.58949 0.0
H859 H 0.67503 0.30614 0.56035 0.0
H860 H 0.61599 0.2619 0.59782 0.0
H861 H 0.57183 0.34512 0.59161 0.0
H862 H 0.59344 0.33408 0.56782 0.0
H863 H 0.60205 0.33809 0.59461 0.0
C864 C 0.64677 0.282 0.53608 0.0
C865 C 0.66474 0.28907 0.53897 0.0
C866 C 0.62651 0.28521 0.55251 0.0
C867 C 0.62388 0.29549 0.57213 0.0
C868 C 0.64121 0.30364 0.5742 0.0
H869 H 0.55597 0.27094 0.71616 0.0
H870 H 0.58237 0.27732 0.67963 0.0
C871 C 0.66144 0.30059 0.55761 0.0
C872 C 0.60496 0.29479 0.59231 0.0
H873 H 0.5608 0.32397 0.62801 0.0
C874 C 0.60374 0.2755 0.60419 0.0
C875 C 0.58902 0.31255 0.60057 0.0
C876 C 0.58896 0.33364 0.58785 0.0
C877 C 0.58741 0.27343 0.62453 0.0
C878 C 0.57214 0.29112 0.63342 0.0
C879 C 0.57279 0.31047 0.62119 0.0
C880 C 0.55573 0.28951 0.65574 0.0
C881 C 0.5867 0.25232 0.6365 0.0
C882 C 0.53199 0.29477 0.65434 0.0
C883 C 0.51682 0.29109 0.67516 0.0
C884 C 0.52523 0.28216 0.69767 0.0
C885 C 0.54895 0.27768 0.6991 0.0
C886 C 0.56406 0.28134 0.67828 0.0
H887 H 0.5961 0.24072 0.62446 0.0
H888 H 0.59497 0.24796 0.65346 0.0
H889 H 0.56853 0.252 0.64152 0.0
H890 H 0.52533 0.30109 0.63702 0.0
H891 H 0.49862 0.29483 0.67349 0.0
H892 H 0.72648 0.949 0.78894 0.0
H893 H 0.72722 0.91876 0.81967 0.0
H894 H 0.73116 0.95096 0.87496 0.0
H895 H 0.73012 0.98145 0.84433 0.0
H896 H 0.76011 0.89529 0.84868 0.0
H897 H 0.67896 0.92802 0.90752 0.0
H898 H 0.68639 0.94075 0.87741 0.0
H899 H 0.69943 0.94197 0.90273 0.0
C900 C 0.72733 0.94981 0.80765 0.0
C901 C 0.72807 0.96792 0.81399 0.0
C902 C 0.72781 0.93237 0.82529 0.0
C903 C 0.72888 0.93245 0.8499 0.0
C904 C 0.72977 0.95047 0.85631 0.0
H905 H 0.73425 0.83766 0.98057 0.0
H906 H 0.73381 0.86916 0.95184 0.0
C907 C 0.7293 0.96795 0.83864 0.0
C908 C 0.72974 0.91352 0.86852 0.0
H909 H 0.70206 0.89475 0.92225 0.0
C910 C 0.74734 0.89522 0.86471 0.0
C911 C 0.71323 0.91321 0.88966 0.0
C912 C 0.6933 0.93197 0.89455 0.0
C913 C 0.74903 0.87691 0.88132 0.0
C914 C 0.73235 0.87652 0.90231 0.0
C915 C 0.71489 0.89487 0.90628 0.0
C916 C 0.73249 0.85722 0.92 0.0
C917 C 0.76906 0.85821 0.87643 0.0
C918 C 0.73152 0.83989 0.91203 0.0
C919 C 0.73181 0.82182 0.92844 0.0
C920 C 0.73286 0.8205 0.95346 0.0
C921 C 0.73346 0.83797 0.96151 0.0
C922 C 0.73319 0.85607 0.94504 0.0
H923 H 0.78377 0.86234 0.86438 0.0
H924 H 0.77534 0.84891 0.89364 0.0
H925 H 0.76333 0.84867 0.86708 0.0
H926 H 0.73036 0.84035 0.89304 0.0
H927 H 0.73114 0.80886 0.92142 0.0
H928 H 0.17544 0.28718 0.07673 0.0
H929 H 0.13893 0.28742 0.10242 0.0
H930 H 0.11546 0.27002 0.04539 0.0
H931 H 0.15211 0.26968 0.01931 0.0
H932 H 0.08346 0.30704 0.08128 0.0
H933 H 0.1241 0.22587 0.12049 0.0
H934 H 0.14144 0.24298 0.11329 0.0
H935 H 0.13189 0.23609 0.08916 0.0
C936 C 0.16243 0.2837 0.06943 0.0
C937 C 0.16676 0.27824 0.04604 0.0
C938 C 0.14158 0.28391 0.08412 0.0
C939 C 0.12472 0.27868 0.07572 0.0
C940 C 0.12838 0.27416 0.05203 0.0
H941 H 0.01526 0.24469 0.18074 0.0
H942 H 0.04133 0.24827 0.14291 0.0
C943 C 0.14928 0.27399 0.03721 0.0
C944 C 0.10429 0.27629 0.09272 0.0
H945 H 0.08819 0.24343 0.14072 0.0
C946 C 0.08424 0.29307 0.09406 0.0
C947 C 0.10551 0.25798 0.10914 0.0
C948 C 0.12681 0.23959 0.10806 0.0
C949 C 0.06554 0.29223 0.11225 0.0
C950 C 0.06729 0.27428 0.12959 0.0
C951 C 0.08694 0.25718 0.12742 0.0
C952 C 0.04989 0.27335 0.15128 0.0
C953 C 0.04426 0.31063 0.11302 0.0
C954 C 0.04622 0.28621 0.16851 0.0
C955 C 0.03147 0.28415 0.19017 0.0
C956 C 0.0202 0.26912 0.19503 0.0
C957 C 0.02366 0.25643 0.17755 0.0
C958 C 0.0385 0.25847 0.15591 0.0
H959 H 0.04263 0.32036 0.09484 0.0
H960 H 0.02831 0.30603 0.1193 0.0
H961 H 0.04555 0.31999 0.12595 0.0
H962 H 0.05528 0.29747 0.16552 0.0
H963 H 0.02921 0.29415 0.20324 0.0
H964 H 0.70973 0.45501 0.29176 0.0
H965 H 0.70892 0.42518 0.32308 0.0
H966 H 0.75234 0.44031 0.36296 0.0
H967 H 0.75293 0.47016 0.33215 0.0
H968 H 0.74342 0.39136 0.339 0.0
H969 H 0.70132 0.43312 0.4166 0.0
H970 H 0.70251 0.44585 0.38541 0.0
H971 H 0.72718 0.43893 0.40161 0.0
C972 C 0.719 0.45209 0.30726 0.0
C973 C 0.73122 0.46527 0.30934 0.0
C974 C 0.71855 0.43494 0.32522 0.0
C975 C 0.73018 0.43053 0.34585 0.0
C976 C 0.74266 0.44351 0.34773 0.0
H977 H 0.75184 0.33187 0.47233 0.0
H978 H 0.75241 0.3622 0.44171 0.0
C979 C 0.7431 0.46062 0.32986 0.0
C980 C 0.72979 0.41216 0.36502 0.0
H981 H 0.71707 0.39707 0.42639 0.0
C982 C 0.7375 0.39268 0.35806 0.0
C983 C 0.72222 0.41364 0.39008 0.0
C984 C 0.71263 0.43401 0.39889 0.0
C985 C 0.73823 0.37482 0.37529 0.0
C986 C 0.73064 0.37631 0.40033 0.0
C987 C 0.72299 0.39577 0.40731 0.0
C988 C 0.73003 0.35793 0.41937 0.0
C989 C 0.7477 0.35444 0.3665 0.0
C990 C 0.71691 0.34548 0.41754 0.0
C991 C 0.71651 0.32815 0.43504 0.0
C992 C 0.72915 0.3227 0.45509 0.0
C993 C 0.74193 0.33542 0.4572 0.0
C994 C 0.74227 0.35284 0.43964 0.0
H995 H 0.75882 0.35531 0.34867 0.0
H996 H 0.75797 0.34263 0.3799 0.0
H997 H 0.73307 0.34948 0.36408 0.0
H998 H 0.70682 0.34919 0.40254 0.0
H999 H 0.70631 0.31894 0.43269 0.0
H1000 H 0.56091 0.98432 0.55855 0.0
H1001 H 0.59861 0.98719 0.56063 0.0
H1002 H 0.60455 0.0122 0.48411 0.0
H1003 H 0.56629 1.00966 0.48191 0.0
H1004 H 0.643 0.97162 0.53486 0.0
H1005 H 0.61054 0.05672 0.51748 0.0
H1006 H 0.59062 0.04191 0.52429 0.0
H1007 H 0.60861 0.04239 0.49545 0.0
C1008 C 0.57024 0.99026 0.54205 0.0
C1009 C 0.56044 0.99699 0.52014 0.0
C1010 C 0.59188 0.99179 0.54323 0.0
C1011 C 0.60428 1.00008 0.52258 0.0
C1012 C 0.59514 1.00597 0.50032 0.0
H1013 H 0.71787 0.99764 0.59649 0.0
H1014 H 0.70443 0.9994 0.5575 0.0
C1015 C 0.57333 1.00441 0.49909 0.0
C1016 C 0.62579 1.0037 0.52571 0.0
H1017 H 0.64224 0.04144 0.53936 0.0
C1018 C 0.64346 0.98687 0.53505 0.0
C1019 C 0.62639 0.02365 0.52552 0.0
C1020 C 0.60808 0.04229 0.5152 0.0
C1021 C 0.6598 0.98937 0.54737 0.0
C1022 C 0.65858 1.00932 0.54991 0.0
C1023 C 0.64297 0.02619 0.53752 0.0
C1024 C 0.66816 0.01264 0.57032 0.0
C1025 C 0.67632 0.97061 0.56004 0.0
C1026 C 0.65245 0.02071 0.58979 0.0
C1027 C 0.66005 0.01986 0.61174 0.0
C1028 C 0.68354 0.01092 0.61472 0.0
C1029 C 0.69964 1.00451 0.59461 0.0
C1030 C 0.69197 1.00538 0.57245 0.0
H1031 H 0.67398 0.95626 0.55731 0.0
H1032 H 0.69442 0.97026 0.55285 0.0
H1033 H 0.6738 0.97098 0.57993 0.0
H1034 H 0.63401 0.02643 0.5886 0.0
H1035 H 0.64735 0.02521 0.62688 0.0
H1036 H -0.00064 0.9303 0.01705 0.0
H1037 H -6e-05 0.90316 0.99552 0.0
H1038 H -0.00909 0.94617 0.92889 0.0
H1039 H -0.00972 0.97329 0.95011 0.0
H1040 H 0.96545 0.90149 0.96693 0.0
H1041 H 0.05065 0.89891 0.91204 0.0
H1042 H 0.04078 0.91044 0.9394 0.0
H1043 H 0.02996 0.92396 0.91125 0.0
C1044 C -0.00232 0.93394 0.99776 0.0
C1045 C -0.00489 0.95394 0.98523 0.0
C1046 C -0.00214 0.91844 0.98554 0.0
C1047 C -0.00422 0.92259 0.96052 0.0
C1048 C -0.00714 0.94257 0.94811 0.0
H1049 H 0.96976 0.85663 0.86061 0.0
H1050 H 0.96625 0.87953 0.88932 0.0
C1051 C -0.00752 0.95807 0.96031 0.0
C1052 C -0.00291 0.90609 0.94707 0.0
H1053 H 0.02907 0.88083 0.90045 0.0
C1054 C 0.97941 0.89685 0.9525 0.0
C1055 C 0.01545 0.8999 0.92842 0.0
C1056 C 0.03543 0.90865 0.9225 0.0
C1057 C 0.97928 0.88199 0.93924 0.0
C1058 C -0.00278 0.87638 0.91997 0.0
C1059 C 0.01521 0.88524 0.91507 0.0
C1060 C -0.00215 0.86142 0.90447 0.0
C1061 C 0.96009 0.87231 0.94608 0.0
C1062 C 0.01675 0.8436 0.90339 0.0
C1063 C 0.01878 0.83045 0.88707 0.0
C1064 C 0.00209 0.83491 0.87115 0.0
C1065 C 0.98282 0.85254 0.87272 0.0
C1066 C 0.98077 0.86567 0.88917 0.0
H1067 H 0.95076 0.87478 0.96454 0.0
H1068 H 0.94741 0.87917 0.93276 0.0
H1069 H 0.96701 0.85565 0.94558 0.0
H1070 H 0.03017 0.83999 0.91499 0.0
H1071 H 0.03362 0.81685 0.88677 0.0
H1072 H 0.02482 0.12072 0.93537 0.0
H1073 H 0.04839 0.14324 0.93197 0.0
H1074 H 0.11025 0.09383 0.91643 0.0
H1075 H 0.08673 0.07115 0.92002 0.0
H1076 H 0.11201 0.11141 0.95429 0.0
H1077 H 0.08384 0.17131 0.87573 0.0
H1078 H 0.06018 0.16746 0.89796 0.0
H1079 H 0.0778 0.14724 0.88131 0.0
C1080 C 0.04339 0.11482 0.93055 0.0
C1081 C 0.05399 0.0942 0.92799 0.0
C1082 C 0.05683 0.12771 0.92856 0.0
C1083 C 0.08103 0.12024 0.92369 0.0
C1084 C 0.09157 0.09987 0.92013 0.0
H1085 H 0.19076 0.1708 0.92649 0.0
H1086 H 0.16812 0.14992 0.92046 0.0
C1087 C 0.07816 0.08695 0.92225 0.0
C1088 C 0.09542 0.13298 0.92502 0.0
H1089 H 0.10515 0.1787 0.9021 0.0
C1090 C 0.11071 0.12601 0.94269 0.0
C1091 C 0.09353 0.15207 0.90997 0.0
C1092 C 0.07811 0.1599 0.89002 0.0
C1093 C 0.12384 0.13784 0.94607 0.0
C1094 C 0.12172 0.15702 0.93124 0.0
C1095 C 0.10659 0.16397 0.91346 0.0
C1096 C 0.13518 0.17002 0.93403 0.0
C1097 C 0.13948 0.12999 0.96584 0.0
C1098 C 0.12399 0.18833 0.94331 0.0
C1099 C 0.13685 0.20032 0.94674 0.0
C1100 C 0.16105 0.19421 0.94069 0.0
C1101 C 0.17212 0.17597 0.9311 0.0
C1102 C 0.15927 0.16397 0.92779 0.0
H1103 H 0.13574 0.11685 0.97868 0.0
H1104 H 0.15777 0.12489 0.95737 0.0
H1105 H 0.13764 0.14226 0.97633 0.0
H1106 H 0.10536 0.1932 0.94816 0.0
H1107 H 0.12787 0.21442 0.9539 0.0
H1108 H 0.66095 0.5569 0.22379 0.0
H1109 H 0.62639 0.58676 0.22504 0.0
H1110 H 0.63072 0.58616 0.30046 0.0
H1111 H 0.66487 0.55617 0.2996 0.0
H1112 H 0.58541 0.59591 0.29062 0.0
H1113 H 0.63447 0.64226 0.22491 0.0
H1114 H 0.63279 0.62051 0.21427 0.0
H1115 H 0.64832 0.61682 0.23959 0.0
C1116 C 0.65431 0.5629 0.24077 0.0
C1117 C 0.66585 0.55434 0.2615 0.0
C1118 C 0.63465 0.58002 0.24139 0.0
C1119 C 0.62637 0.5889 0.26268 0.0
C1120 C 0.63695 0.5796 0.28381 0.0
H1121 H 0.55134 0.71391 0.27728 0.0
H1122 H 0.57923 0.67981 0.27715 0.0
C1123 C 0.65651 0.56246 0.28325 0.0
C1124 C 0.6078 0.60866 0.26265 0.0
H1125 H 0.59552 0.6591 0.23818 0.0
C1126 C 0.5875 0.60973 0.27908 0.0
C1127 C 0.61086 0.62669 0.24786 0.0
C1128 C 0.63285 0.62665 0.2308 0.0
C1129 C 0.57014 0.62842 0.28116 0.0
C1130 C 0.57307 0.64638 0.26612 0.0
C1131 C 0.59332 0.64527 0.24961 0.0
C1132 C 0.55565 0.66663 0.26749 0.0
C1133 C 0.54917 0.62885 0.29994 0.0
C1134 C 0.53317 0.67048 0.26211 0.0
C1135 C 0.51715 0.68992 0.26231 0.0
C1136 C 0.52343 0.70591 0.26762 0.0
C1137 C 0.54594 0.70195 0.27312 0.0
C1138 C 0.5619 0.68248 0.27304 0.0
H1139 H 0.55232 0.61498 0.31405 0.0
H1140 H 0.54401 0.6425 0.3091 0.0
H1141 H 0.53446 0.62954 0.29079 0.0
H1142 H 0.52815 0.65858 0.25726 0.0
H1143 H 0.50002 0.69247 0.25776 0.0
H1144 H 0.27511 0.86517 0.59716 0.0
H1145 H 0.30255 0.88166 0.603 0.0
H1146 H 0.35633 0.84344 0.5575 0.0
H1147 H 0.3291 0.82697 0.55155 0.0
H1148 H 0.34247 0.86221 0.6243 0.0
H1149 H 0.36288 0.89971 0.53025 0.0
H1150 H 0.3381 0.89045 0.53944 0.0
H1151 H 0.3664 0.87313 0.53188 0.0
C1152 C 0.29274 0.86046 0.58821 0.0
C1153 C 0.29999 0.84483 0.57386 0.0
C1154 C 0.30833 0.86991 0.59152 0.0
C1155 C 0.33135 0.86392 0.58045 0.0
C1156 C 0.33849 0.84862 0.56572 0.0
H1157 H 0.46016 0.88304 0.58592 0.0
H1158 H 0.42934 0.86919 0.58331 0.0
C1159 C 0.32292 0.83922 0.56234 0.0
C1160 C 0.34841 0.87251 0.58568 0.0
H1161 H 0.38921 0.8957 0.55841 0.0
C1162 C 0.35252 0.86975 0.60996 0.0
C1163 C 0.36141 0.88236 0.5669 0.0
C1164 C 0.35683 0.88678 0.54069 0.0
C1165 C 0.36994 0.87596 0.61584 0.0
C1166 C 0.38341 0.88517 0.59696 0.0
C1167 C 0.37897 0.88836 0.57277 0.0
C1168 C 0.40223 0.89177 0.60174 0.0
C1169 C 0.37429 0.87217 0.64205 0.0
C1170 C 0.39712 0.90871 0.61349 0.0
C1171 C 0.41462 0.91671 0.61489 0.0
C1172 C 0.43747 0.9079 0.60447 0.0
C1173 C 0.44269 0.89024 0.5939 0.0
C1174 C 0.42516 0.8823 0.59243 0.0
H1175 H 0.36505 0.86181 0.65386 0.0
H1176 H 0.39312 0.86546 0.64343 0.0
H1177 H 0.36821 0.88691 0.64909 0.0
H1178 H 0.37942 0.91635 0.62046 0.0
H1179 H 0.40998 0.93053 0.62278 0.0
H1180 H 0.04176 0.7072 0.78804 0.0
H1181 H 0.06798 0.67224 0.78868 0.0
H1182 H 0.05239 0.67136 0.71778 0.0
H1183 H 0.02638 0.7062 0.7168 0.0
H1184 H 0.05542 0.63673 0.78356 0.0
H1185 H 0.12436 0.65331 0.71118 0.0
H1186 H 0.10329 0.67285 0.72693 0.0
H1187 H 0.09516 0.66348 0.70381 0.0
C1188 C 0.04408 0.69966 0.77247 0.0
C1189 C 0.032 0.70955 0.75236 0.0
C1190 C 0.05897 0.67967 0.77292 0.0
C1191 C 0.06218 0.66934 0.75321 0.0
C1192 C 0.05034 0.67919 0.73304 0.0
H1193 H 0.16451 0.5514 0.73151 0.0
H1194 H 0.12916 0.58042 0.72645 0.0
C1195 C 0.03543 0.69911 0.73258 0.0
C1196 C 0.07763 0.64809 0.75394 0.0
H1197 H 0.12937 0.61896 0.72846 0.0
C1198 C 0.07154 0.63278 0.77144 0.0
C1199 C 0.09842 0.64301 0.73783 0.0
C1200 C 0.10589 0.65899 0.71894 0.0
C1201 C 0.08603 0.61251 0.77366 0.0
C1202 C 0.10733 0.60757 0.75827 0.0
C1203 C 0.11296 0.62275 0.74013 0.0
C1204 C 0.12542 0.58763 0.7627 0.0
C1205 C 0.07849 0.59662 0.79261 0.0
C1206 C 0.13456 0.58175 0.78494 0.0
C1207 C 0.1546 0.56531 0.78783 0.0
C1208 C 0.16594 0.55444 0.76851 0.0
C1209 C 0.15593 0.55937 0.74679 0.0
C1210 C 0.13587 0.576 0.74383 0.0
H1211 H 0.05931 0.60079 0.79636 0.0
H1212 H 0.08533 0.58135 0.78682 0.0
H1213 H 0.08512 0.59562 0.80992 0.0
H1214 H 0.12713 0.59071 0.79955 0.0
H1215 H 0.16197 0.56184 0.80475 0.0
H1216 H 0.79704 0.32955 0.60714 0.0
H1217 H 0.81809 0.35124 0.61381 0.0
H1218 H 0.78039 0.40069 0.56339 0.0
H1219 H 0.75914 0.37885 0.55647 0.0
H1220 H 0.82594 0.39325 0.5519 0.0
H1221 H 0.80433 0.39815 0.65007 0.0
H1222 H 0.81332 0.37208 0.64541 0.0
H1223 H 0.78739 0.38973 0.634 0.0
C1224 C 0.79262 0.34524 0.59805 0.0
C1225 C 0.77634 0.35251 0.58134 0.0
C1226 C 0.80466 0.35767 0.60195 0.0
C1227 C 0.80054 0.3777 0.58944 0.0
C1228 C 0.7837 0.3853 0.57338 0.0
H1229 H 0.88634 0.44868 0.61159 0.0
H1230 H 0.85261 0.43789 0.611 0.0
C1231 C 0.77166 0.37281 0.56937 0.0
C1232 C 0.81602 0.3895 0.59083 0.0
H1233 H 0.84159 0.40235 0.6311 0.0
C1234 C 0.82902 0.39563 0.56919 0.0
C1235 C 0.81983 0.39286 0.61331 0.0
C1236 C 0.80526 0.38805 0.63696 0.0
C1237 C 0.84671 0.40383 0.56959 0.0
C1238 C 0.85188 0.40547 0.59227 0.0
C1239 C 0.83792 0.40063 0.61377 0.0
C1240 C 0.8723 0.41138 0.594 0.0
C1241 C 0.85995 0.41035 0.54571 0.0
C1242 C 0.89457 0.39963 0.5854 0.0
C1243 C 0.91381 0.40571 0.58574 0.0
C1244 C 0.91114 0.42352 0.59498 0.0
C1245 C 0.88893 0.43478 0.60457 0.0
C1246 C 0.86965 0.42873 0.60411 0.0
H1247 H 0.84955 0.41408 0.53037 0.0
H1248 H 0.86512 0.42387 0.54649 0.0
H1249 H 0.87586 0.39765 0.54172 0.0
H1250 H 0.89702 0.38588 0.57813 0.0
H1251 H 0.93076 0.39661 0.57855 0.0
H1252 H 0.31266 0.98117 0.28169 0.0
H1253 H 0.34571 0.9507 0.27701 0.0
H1254 H 0.32236 0.94438 0.21261 0.0
H1255 H 0.2893 0.97506 0.21695 0.0
H1256 H 0.33809 0.91342 0.27917 0.0
H1257 H 0.39285 0.93194 0.19321 0.0
H1258 H 0.37186 0.95137 0.20923 0.0
H1259 H 0.36253 0.93834 0.19086 0.0
C1260 C 0.31481 0.97359 0.26619 0.0
C1261 C 0.29827 0.98042 0.24979 0.0
C1262 C 0.33373 0.9562 0.26354 0.0
C1263 C 0.3365 0.94536 0.24443 0.0
C1264 C 0.32074 0.95274 0.22724 0.0
H1265 H 0.42113 0.82351 0.21902 0.0
H1266 H 0.39427 0.85827 0.21586 0.0
C1267 C 0.3018 0.97023 0.22982 0.0
C1268 C 0.35405 0.92506 0.24445 0.0
H1269 H 0.40198 0.89707 0.21167 0.0
C1270 C 0.35216 0.90988 0.26449 0.0
C1271 C 0.37215 0.92048 0.22511 0.0
C1272 C 0.37517 0.9364 0.20344 0.0
C1273 C 0.36783 0.89015 0.26571 0.0
C1274 C 0.38613 0.88561 0.24656 0.0
C1275 C 0.38795 0.9007 0.22635 0.0
C1276 C 0.40354 0.8652 0.24741 0.0
C1277 C 0.36439 0.87423 0.28728 0.0
C1278 C 0.41792 0.85784 0.2659 0.0
C1279 C 0.43317 0.83801 0.26786 0.0
C1280 C 0.43441 0.82522 0.25123 0.0
C1281 C 0.42051 0.83292 0.2322 0.0
C1282 C 0.40521 0.85278 0.23031 0.0
H1283 H 0.34652 0.87868 0.29707 0.0
H1284 H 0.36793 0.85923 0.28148 0.0
H1285 H 0.3766 0.87237 0.30032 0.0
H1286 H 0.41712 0.86737 0.27902 0.0
H1287 H 0.44379 0.83268 0.28257 0.0
H1288 H 0.31219 0.48946 0.72667 0.0
H1289 H 0.34545 0.45871 0.72356 0.0
H1290 H 0.33099 0.43796 0.80051 0.0
H1291 H 0.29848 0.46903 0.80394 0.0
H1292 H 0.37627 0.42806 0.78688 0.0
H1293 H 0.33508 0.40575 0.72227 0.0
H1294 H 0.34099 0.42957 0.71129 0.0
H1295 H 0.32035 0.42725 0.73798 0.0
C1296 C 0.31641 0.4785 0.74298 0.0
C1297 C 0.30265 0.48153 0.76549 0.0
C1298 C 0.33527 0.46087 0.74115 0.0
C1299 C 0.34025 0.44575 0.76165 0.0
C1300 C 0.32736 0.44935 0.78441 0.0
H1301 H 0.40522 0.31693 0.76231 0.0
H1302 H 0.37915 0.3516 0.7637 0.0
C1303 C 0.3088 0.46714 0.78635 0.0
C1304 C 0.35791 0.42569 0.75932 0.0
H1305 H 0.37225 0.38427 0.73052 0.0
C1306 C 0.37545 0.41848 0.77453 0.0
C1307 C 0.35651 0.41306 0.74352 0.0
C1308 C 0.3371 0.41918 0.72802 0.0
C1309 C 0.39153 0.39891 0.77454 0.0
C1310 C 0.39051 0.38652 0.75824 0.0
C1311 C 0.37312 0.39385 0.74286 0.0
C1312 C 0.40658 0.36555 0.75753 0.0
C1313 C 0.40881 0.39148 0.79268 0.0
C1314 C 0.43065 0.36187 0.75334 0.0
C1315 C 0.44559 0.342 0.75296 0.0
C1316 C 0.43668 0.32554 0.75613 0.0
C1317 C 0.41258 0.32931 0.7597 0.0
C1318 C 0.39768 0.34912 0.76052 0.0
H1319 H 0.40296 0.40015 0.80825 0.0
H1320 H 0.41181 0.37501 0.79997 0.0
H1321 H 0.42555 0.39366 0.78355 0.0
H1322 H 0.43792 0.37435 0.75024 0.0
H1323 H 0.4641 0.33957 0.7499 0.0
H1324 H 0.14112 0.79701 0.5175 0.0
H1325 H 0.10166 0.80719 0.53918 0.0
H1326 H 0.12933 0.80833 0.60334 0.0
H1327 H 0.16834 0.79854 0.58196 0.0
H1328 H 0.08759 0.78342 0.5792 0.0
H1329 H 0.07389 0.85873 0.60347 0.0
H1330 H 0.09592 0.84868 0.5794 0.0
H1331 H 0.1016 0.84191 0.61071 0.0
C1332 C 0.13867 0.79993 0.53604 0.0
C1333 C 0.15779 0.7968 0.54814 0.0
C1334 C 0.11616 0.80577 0.54835 0.0
C1335 C 0.11254 0.80887 0.57272 0.0
C1336 C 0.13161 0.8066 0.58435 0.0
H1337 H 0.04521 0.78706 0.70864 0.0
H1338 H 0.06706 0.79768 0.67037 0.0
C1339 C 0.15398 0.8007 0.57218 0.0
C1340 C 0.08964 0.81124 0.58753 0.0
H1341 H 0.0554 0.83605 0.63345 0.0
C1342 C 0.07997 0.79532 0.59048 0.0
C1343 C 0.0797 0.82682 0.60213 0.0
C1344 C 0.08822 0.8451 0.59854 0.0
C1345 C 0.0622 0.79342 0.60939 0.0
C1346 C 0.05387 0.80793 0.62548 0.0
C1347 C 0.06207 0.82484 0.62119 0.0
C1348 C 0.03932 0.80411 0.64868 0.0
C1349 C 0.05382 0.77501 0.61332 0.0
C1350 C 0.01636 0.80467 0.6491 0.0
C1351 C 0.00382 0.79857 0.67095 0.0
C1352 C 0.01413 0.79177 0.69264 0.0
C1353 C 0.03684 0.79206 0.69225 0.0
C1354 C 0.0493 0.79822 0.67044 0.0
H1355 H 0.06347 0.76429 0.60028 0.0
H1356 H 0.05565 0.76667 0.63217 0.0
H1357 H 0.03518 0.78004 0.61104 0.0
H1358 H 0.00839 0.8093 0.63245 0.0
H1359 H -0.0137 0.79865 0.67066 0.0
H1360 H 0.22637 0.95035 0.29942 0.0
H1361 H 0.22544 0.9209 0.33101 0.0
H1362 H 0.2298 0.9539 0.38528 0.0
H1363 H 0.2304 0.98356 0.35384 0.0
H1364 H 0.25702 0.89715 0.36121 0.0
H1365 H 0.17588 0.93348 0.41772 0.0
H1366 H 0.18437 0.94528 0.38744 0.0
H1367 H 0.19716 0.9466 0.41291 0.0
C1368 C 0.22696 0.95149 0.31809 0.0
C1369 C 0.22829 0.96958 0.32391 0.0
C1370 C 0.22648 0.93452 0.33622 0.0
C1371 C 0.22716 0.93507 0.36081 0.0
C1372 C 0.22866 0.95306 0.36667 0.0
H1373 H 0.22778 0.84369 0.49448 0.0
H1374 H 0.22896 0.87433 0.46472 0.0
C1375 C 0.22914 0.97007 0.34853 0.0
C1376 C 0.22697 0.91667 0.38001 0.0
H1377 H 0.19779 0.9002 0.43406 0.0
C1378 C 0.24398 0.89787 0.37707 0.0
C1379 C 0.21011 0.91738 0.40095 0.0
C1380 C 0.19071 0.9367 0.40492 0.0
C1381 C 0.24476 0.88004 0.39436 0.0
C1382 C 0.22776 0.8807 0.41516 0.0
C1383 C 0.21088 0.89953 0.41825 0.0
C1384 C 0.2269 0.86196 0.43352 0.0
C1385 C 0.26418 0.86073 0.39036 0.0
C1386 C 0.22495 0.84471 0.42625 0.0
C1387 C 0.22428 0.82716 0.44324 0.0
C1388 C 0.22535 0.82626 0.46818 0.0
C1389 C 0.22695 0.84367 0.47553 0.0
C1390 C 0.22761 0.86128 0.45846 0.0
H1391 H 0.27928 0.86405 0.37821 0.0
H1392 H 0.27003 0.85176 0.40789 0.0
H1393 H 0.25798 0.85117 0.38153 0.0
H1394 H 0.22377 0.84485 0.40735 0.0
H1395 H 0.22289 0.81424 0.43672 0.0
H1396 H 0.94407 0.6961 0.63171 0.0
H1397 H 0.95015 0.66764 0.61024 0.0
H1398 H 0.98008 0.62522 0.67107 0.0
H1399 H 0.97389 0.65366 0.69286 0.0
H1400 H 0.00575 0.6173 0.62598 0.0
H1401 H 0.91298 0.62711 0.625 0.0
H1402 H 0.921 0.64985 0.6127 0.0
H1403 H 0.92255 0.6393 0.64439 0.0
C1404 C 0.95166 0.68071 0.64072 0.0
C1405 C 0.95828 0.67718 0.66415 0.0
C1406 C 0.95515 0.66445 0.62837 0.0
C1407 C 0.96521 0.64428 0.6392 0.0
C1408 C 0.97219 0.64067 0.66241 0.0
H1409 H 0.9647 0.536 0.58786 0.0
H1410 H 0.95959 0.56282 0.61167 0.0
C1411 C 0.96871 0.65695 0.6748 0.0
C1412 C 0.96878 0.62701 0.62609 0.0
H1413 H 0.94022 0.6043 0.6 0.0
C1414 C -0.00857 0.61438 0.62039 0.0
C1415 C 0.95005 0.62306 0.61908 0.0
C1416 C 0.92525 0.6354 0.62579 0.0
C1417 C -0.00411 0.59819 0.60739 0.0
C1418 C 0.97723 0.59473 0.59958 0.0
C1419 C 0.95455 0.60708 0.60576 0.0
C1420 C 0.98079 0.57828 0.58514 0.0
C1421 C 0.02052 0.58477 0.60245 0.0
C1422 C -0.00578 0.57815 0.56216 0.0
C1423 C -0.00278 0.5628 0.54848 0.0
C1424 C -0.01331 0.54734 0.55743 0.0
C1425 C 0.97309 0.54763 0.58038 0.0
C1426 C 0.97013 0.56297 0.59404 0.0
H1427 H 0.03168 0.58587 0.6151 0.0
H1428 H 0.0213 0.56855 0.60416 0.0
H1429 H 0.0278 0.58971 0.58357 0.0
H1430 H 0.0022 0.59006 0.55466 0.0
H1431 H 0.00772 0.56314 0.53084 0.0
H1432 H 0.30381 0.77428 0.49702 0.0
H1433 H 0.33804 0.77129 0.46658 0.0
H1434 H 0.32025 0.72783 0.43637 0.0
H1435 H 0.28602 0.73053 0.46688 0.0
H1436 H 0.36976 0.71951 0.43798 0.0
H1437 H 0.32521 0.79853 0.39554 0.0
H1438 H 0.32833 0.79542 0.42721 0.0
H1439 H 0.31027 0.78348 0.41818 0.0
C1440 C 0.30738 0.76377 0.48422 0.0
C1441 C 0.29199 0.75289 0.48411 0.0
C1442 C 0.32693 0.76212 0.46684 0.0
C1443 C 0.33134 0.74964 0.44904 0.0
C1444 C 0.31702 0.73761 0.44996 0.0
H1445 H 0.40225 0.76252 0.30368 0.0
H1446 H 0.37529 0.75859 0.34051 0.0
C1447 C 0.29746 0.73919 0.46739 0.0
C1448 C 0.3494 0.75073 0.42807 0.0
H1449 H 0.36288 0.78275 0.37745 0.0
C1450 C 0.36839 0.73332 0.42476 0.0
C1451 C 0.34723 0.76872 0.41075 0.0
C1452 C 0.32659 0.78758 0.41287 0.0
C1453 C 0.38545 0.7335 0.4045 0.0
C1454 C 0.38342 0.7516 0.38739 0.0
C1455 C 0.3644 0.76896 0.39073 0.0
C1456 C 0.40034 0.75278 0.36532 0.0
C1457 C 0.40517 0.71423 0.40121 0.0
C1458 C 0.42333 0.75088 0.36715 0.0
C1459 C 0.43884 0.75314 0.3461 0.0
C1460 C 0.43152 0.75745 0.32291 0.0
C1461 C 0.40847 0.75924 0.32123 0.0
C1462 C 0.39303 0.75697 0.34224 0.0
H1463 H 0.40158 0.7006 0.41302 0.0
H1464 H 0.40866 0.71174 0.38192 0.0
H1465 H 0.42108 0.7157 0.40607 0.0
H1466 H 0.42916 0.74803 0.38484 0.0
H1467 H 0.45645 0.75174 0.34805 0.0
H1468 H 0.2161 0.06365 0.18797 0.0
H1469 H 0.21633 0.09325 0.15632 0.0
H1470 H 0.25967 0.10963 0.195 0.0
H1471 H 0.25981 0.07993 0.22653 0.0
H1472 H 0.20083 0.13404 0.15868 0.0
H1473 H 0.29506 0.11216 0.12731 0.0
H1474 H 0.28138 0.09448 0.14682 0.0
H1475 H 0.28821 0.11295 0.15943 0.0
C1476 C 0.22587 0.07341 0.18973 0.0
C1477 C 0.23808 0.06913 0.20993 0.0
C1478 C 0.22593 0.09045 0.17154 0.0
C1479 C 0.23831 0.1037 0.17285 0.0
C1480 C 0.25041 0.09952 0.19306 0.0
H1481 H 0.25721 0.21664 0.08409 0.0
H1482 H 0.25745 0.18657 0.11511 0.0
C1483 C 0.25037 0.08249 0.21125 0.0
C1484 C 0.23802 0.1221 0.1535 0.0
H1485 H 0.27297 0.14587 0.11234 0.0
C1486 C 0.21663 0.13652 0.14848 0.0
C1487 C 0.25856 0.12558 0.14004 0.0
C1488 C 0.28209 0.1104 0.14346 0.0
C1489 C 0.21523 0.15432 0.13097 0.0
C1490 C 0.23578 0.15781 0.11752 0.0
C1491 C 0.25716 0.14338 0.12253 0.0
C1492 C 0.2355 0.1763 0.09833 0.0
C1493 C 0.1917 0.16953 0.12757 0.0
C1494 C 0.22336 0.18067 0.07811 0.0
C1495 C 0.22317 0.19796 0.06025 0.0
C1496 C 0.23525 0.21137 0.06194 0.0
C1497 C 0.24763 0.20681 0.08205 0.0
C1498 C 0.24782 0.18952 0.09989 0.0
H1499 H 0.1787 0.1677 0.14366 0.0
H1500 H 0.19241 0.18544 0.12437 0.0
H1501 H 0.18562 0.16709 0.11151 0.0
H1502 H 0.21415 0.17058 0.07597 0.0
H1503 H 0.21353 0.20077 0.04507 0.0
H1504 H 0.79379 0.71581 0.95612 0.0
H1505 H 0.83018 0.70604 0.92912 0.0
H1506 H 0.85017 0.75405 0.94693 0.0
H1507 H 0.81409 0.76376 0.97416 0.0
H1508 H 0.8403 0.73255 0.88928 0.0
H1509 H 0.91052 0.70727 0.94746 0.0
H1510 H 0.88093 0.70847 0.95959 0.0
H1511 H 0.8898 0.73113 0.95353 0.0
C1512 C 0.80614 0.72402 0.9547 0.0
C1513 C 0.80097 0.7407 0.96708 0.0
C1514 C 0.82695 0.71836 0.93932 0.0
C1515 C 0.84297 0.72915 0.93627 0.0
C1516 C 0.83829 0.74521 0.94946 0.0
H1517 H 0.94395 0.7668 0.83692 0.0
H1518 H 0.91827 0.75662 0.87193 0.0
C1519 C 0.81752 0.75088 0.96483 0.0
C1520 C 0.86281 0.7258 0.91677 0.0
H1521 H 0.92067 0.72007 0.90499 0.0
C1522 C 0.858 0.7293 0.89268 0.0
C1523 C 0.8858 0.7216 0.92136 0.0
C1524 C 0.89212 0.7167 0.94692 0.0
C1525 C 0.87528 0.73023 0.87292 0.0
C1526 C 0.89806 0.72714 0.87749 0.0
C1527 C 0.90316 0.72246 0.9016 0.0
C1528 C 0.91596 0.73124 0.85761 0.0
C1529 C 0.86866 0.73591 0.8474 0.0
C1530 C 0.92365 0.71995 0.83827 0.0
C1531 C 0.93817 0.72587 0.81803 0.0
C1532 C 0.94535 0.74305 0.81699 0.0
C1533 C 0.9386 0.7536 0.83703 0.0
C1534 C 0.92401 0.74775 0.85714 0.0
H1535 H 0.84958 0.74125 0.84733 0.0
H1536 H 0.87581 0.74812 0.83675 0.0
H1537 H 0.87596 0.72236 0.83797 0.0
H1538 H 0.91789 0.70694 0.83853 0.0
H1539 H 0.94331 0.71728 0.803 0.0
H1540 H 0.25469 0.58447 0.73416 0.0
H1541 H 0.25305 0.6152 0.7036 0.0
H1542 H 0.21632 0.59537 0.66066 0.0
H1543 H 0.21771 0.56485 0.69101 0.0
H1544 H 0.27026 0.61955 0.65407 0.0
H1545 H 0.17479 0.65348 0.66507 0.0
H1546 H 0.18965 0.63281 0.68682 0.0
H1547 H 0.1845 0.62778 0.65879 0.0
C1548 C 0.24619 0.58664 0.71826 0.0
C1549 C 0.23628 0.57203 0.71529 0.0
C1550 C 0.24528 0.60428 0.70072 0.0
C1551 C 0.2342 0.60796 0.67984 0.0
C1552 C 0.22452 0.59329 0.67674 0.0
H1553 H 0.2089 0.7048 0.55245 0.0
H1554 H 0.211 0.67407 0.583 0.0
C1555 C 0.2255 0.57566 0.69417 0.0
C1556 C 0.23317 0.62681 0.66108 0.0
H1557 H 0.19576 0.66894 0.63134 0.0
C1558 C 0.25394 0.63039 0.64924 0.0
C1559 C 0.21194 0.64106 0.65449 0.0
C1560 C 0.18894 0.63876 0.66709 0.0
C1561 C 0.2541 0.64739 0.63083 0.0
C1562 C 0.23286 0.6617 0.62426 0.0
C1563 C 0.21209 0.65811 0.63615 0.0
C1564 C 0.2318 0.68051 0.60535 0.0
C1565 C 0.27715 0.64948 0.61808 0.0
C1566 C 0.2425 0.69475 0.60757 0.0
C1567 C 0.24142 0.71234 0.59002 0.0
C1568 C 0.22938 0.71642 0.56973 0.0
C1569 C 0.21842 0.70227 0.56767 0.0
C1570 C 0.21957 0.68462 0.58524 0.0
H1571 H 0.29105 0.63457 0.61966 0.0
H1572 H 0.27629 0.65578 0.59845 0.0
H1573 H 0.28208 0.65999 0.62667 0.0
H1574 H 0.25151 0.69243 0.62312 0.0
H1575 H 0.2499 0.72286 0.59254 0.0
H1576 H 0.3304 1.00499 0.38855 0.0
H1577 H 0.34928 0.99743 0.42501 0.0
H1578 H 0.28266 0.01651 0.46832 0.0
H1579 H 0.26364 0.02468 0.43147 0.0
H1580 H 0.30951 0.03442 0.47778 0.0
H1581 H 0.35992 0.9535 0.48212 0.0
H1582 H 0.36614 0.96606 0.45189 0.0
H1583 H 0.33703 0.96522 0.46308 0.0
C1584 C 0.31974 1.00707 0.40593 0.0
C1585 C 0.29558 0.0154 0.40721 0.0
C1586 C 0.33054 1.0026 0.42685 0.0
C1587 C 0.31739 1.00595 0.44958 0.0
C1588 C 0.29315 0.01363 0.45104 0.0
H1589 H 0.42131 0.98133 0.54661 0.0
H1590 H 0.38455 0.98039 0.53733 0.0
C1591 C 0.28232 0.01836 0.43001 0.0
C1592 C 0.32935 1.004 0.4708 0.0
H1593 H 0.37829 0.97501 0.49584 0.0
C1594 C 0.32414 0.02117 0.48228 0.0
C1595 C 0.34794 0.98653 0.47749 0.0
C1596 C 0.35283 0.96674 0.46815 0.0
C1597 C 0.33862 0.02215 0.49806 0.0
C1598 C 0.35919 1.00586 0.50173 0.0
C1599 C 0.36287 0.98779 0.49256 0.0
C1600 C 0.37869 1.00836 0.51131 0.0
C1601 C 0.33217 0.04101 0.50978 0.0
C1602 C 0.38737 0.02462 0.50023 0.0
C1603 C 0.40817 0.02531 0.50565 0.0
C1604 C 0.42105 1.0095 0.52189 0.0
C1605 C 0.41184 0.99372 0.53392 0.0
C1606 C 0.39083 0.99315 0.52865 0.0
H1607 H 0.31308 0.04699 0.5144 0.0
H1608 H 0.34037 0.03797 0.52663 0.0
H1609 H 0.33777 0.05312 0.49668 0.0
H1610 H 0.37881 0.03621 0.48622 0.0
H1611 H 0.41476 0.03766 0.49597 0.0
H1612 H 0.82646 0.84237 0.9932 0.0
H1613 H 0.85694 0.85873 0.98562 0.0
H1614 H 0.89316 0.81334 0.04071 0.0
H1615 H 0.86329 0.79651 0.04772 0.0
H1616 H 0.86457 0.87526 0.02043 0.0
H1617 H 0.94658 0.81954 0.98938 0.0
H1618 H 0.91864 0.81693 0.98833 0.0
H1619 H 0.93181 0.80821 0.0161 0.0
C1620 C 0.84128 0.83553 1.00316 0.0
C1621 C 0.84238 0.81827 0.02124 0.0
C1622 C 0.85866 0.84489 0.99882 0.0
C1623 C 0.87748 0.8371 0.01236 0.0
C1624 C 0.87911 0.81935 0.02963 0.0
H1625 H 0.96294 0.87421 0.07821 0.0
H1626 H 0.94567 0.85564 0.05871 0.0
C1627 C 0.86179 0.80996 0.03394 0.0
C1628 C 0.89321 0.84918 0.01157 0.0
H1629 H 0.95005 0.84486 0.01095 0.0
C1630 C 0.88328 0.86885 0.0177 0.0
C1631 C 0.9176 0.84076 1.008 0.0
C1632 C 0.92925 0.82027 0.99983 0.0
C1633 C 0.89697 0.8797 0.02228 0.0
C1634 C 0.9213 0.87072 0.02024 0.0
C1635 C 0.93137 0.85159 0.01264 0.0
C1636 C 0.93601 0.88011 0.02864 0.0
C1637 C 0.88512 0.90007 0.03088 0.0
C1638 C 0.93713 0.89958 0.01754 0.0
C1639 C 0.94661 0.91024 0.02881 0.0
C1640 C 0.95539 0.90143 0.05112 0.0
C1641 C 0.95613 0.88128 0.06109 0.0
C1642 C 0.94638 0.87069 0.04993 0.0
H1643 H 0.86611 0.90307 0.03556 0.0
H1644 H 0.89227 0.90083 0.04716 0.0
H1645 H 0.88816 0.91245 0.01621 0.0
H1646 H 0.92954 0.90693 1.0009 0.0
H1647 H 0.94632 0.92567 0.02059 0.0
H1648 H 0.68123 0.18319 0.40681 0.0
H1649 H 0.66041 0.16047 0.4018 0.0
H1650 H 0.62076 0.16823 0.47245 0.0
H1651 H 0.6409 0.19155 0.47727 0.0
H1652 H 0.65663 0.12396 0.4305 0.0
H1653 H 0.57111 0.18357 0.42676 0.0
H1654 H 0.59782 0.18961 0.42371 0.0
H1655 H 0.58428 0.1814 0.45335 0.0
C1656 C 0.66792 0.1802 0.42119 0.0
C1657 C 0.66251 0.18932 0.44233 0.0
C1658 C 0.6562 0.16712 0.41837 0.0
C1659 C 0.63884 0.16299 0.43658 0.0
C1660 C 0.63384 0.17157 0.45801 0.0
H1661 H 0.57456 0.06871 0.46128 0.0
H1662 H 0.59961 0.08942 0.46004 0.0
C1663 C 0.64552 0.18469 0.46084 0.0
C1664 C 0.62586 0.14978 0.43308 0.0
H1665 H 0.57145 0.14922 0.43012 0.0
C1666 C 0.63803 0.12947 0.43025 0.0
C1667 C 0.60168 0.15719 0.43235 0.0
C1668 C 0.58795 0.17918 0.43396 0.0
C1669 C 0.62649 0.11613 0.42742 0.0
C1670 C 0.60216 0.1233 0.4278 0.0
C1671 C 0.59011 0.14377 0.42994 0.0
C1672 C 0.58862 0.10969 0.42709 0.0
C1673 C 0.64044 0.09455 0.42395 0.0
C1674 C 0.57395 0.11437 0.40911 0.0
C1675 C 0.55948 0.1026 0.40983 0.0
C1676 C 0.55948 0.086 0.42858 0.0
C1677 C 0.57454 0.08114 0.44629 0.0
C1678 C 0.58889 0.09294 0.44561 0.0
H1679 H 0.65879 0.09334 0.41668 0.0
H1680 H 0.64028 0.08441 0.44183 0.0
H1681 H 0.63304 0.08893 0.41134 0.0
H1682 H 0.57343 0.12733 0.39475 0.0
H1683 H 0.54811 0.10661 0.39592 0.0
H1684 H 0.80968 0.48184 0.284 0.0
H1685 H 0.84378 0.45123 0.28562 0.0
H1686 H 0.83511 0.44229 0.21521 0.0
H1687 H 0.80115 0.47252 0.21359 0.0
H1688 H 0.8316 0.4101 0.25673 0.0
H1689 H 0.91163 0.43259 0.2472 0.0
H1690 H 0.88655 0.44493 0.26687 0.0
H1691 H 0.88585 0.44954 0.2346 0.0
C1692 C 0.81563 0.47376 0.2685 0.0
C1693 C 0.80276 0.47939 0.24875 0.0
C1694 C 0.83505 0.45629 0.26946 0.0
C1695 C 0.84186 0.44455 0.25053 0.0
C1696 C 0.8301 0.45118 0.22996 0.0
H1697 H 0.92204 0.32328 0.22398 0.0
H1698 H 0.89652 0.35842 0.22278 0.0
C1699 C 0.81072 0.46843 0.22908 0.0
C1700 C 0.85862 0.42383 0.25352 0.0
H1701 H 0.91606 0.39731 0.25331 0.0
C1702 C 0.85008 0.40728 0.25603 0.0
C1703 C 0.88258 0.42029 0.25291 0.0
C1704 C 0.89239 0.43771 0.25015 0.0
C1705 C 0.86492 0.3872 0.25758 0.0
C1706 C 0.88903 0.38364 0.25602 0.0
C1707 C 0.89756 0.40015 0.25423 0.0
C1708 C 0.90555 0.36282 0.256 0.0
C1709 C 0.8546 0.36999 0.26108 0.0
C1710 C 0.91958 0.35391 0.27467 0.0
C1711 C 0.93428 0.33387 0.27535 0.0
C1712 C 0.93524 0.3224 0.25731 0.0
C1713 C 0.92154 0.33158 0.2383 0.0
C1714 C 0.90691 0.35165 0.2376 0.0
H1715 H 0.83598 0.37471 0.26865 0.0
H1716 H 0.85594 0.36528 0.24317 0.0
H1717 H 0.86398 0.35654 0.27348 0.0
H1718 H 0.91883 0.36232 0.28898 0.0
H1719 H 0.94469 0.32733 0.29019 0.0
H1720 H 0.11055 0.55259 0.42714 0.0
H1721 H 0.13873 0.57053 0.42596 0.0
H1722 H 0.08294 0.62648 0.43272 0.0
H1723 H 0.05479 0.60875 0.43354 0.0
H1724 H 0.11979 0.63242 0.39994 0.0
H1725 H 0.149 0.58623 0.48729 0.0
H1726 H 0.15214 0.57189 0.46337 0.0
H1727 H 0.12371 0.58563 0.47623 0.0
C1728 C 0.10436 0.56876 0.42817 0.0
C1729 C 0.0805 0.57928 0.43057 0.0
C1730 C 0.12044 0.57895 0.42759 0.0
C1731 C 0.11288 0.59972 0.42975 0.0
C1732 C 0.08913 0.61042 0.43108 0.0
H1733 H 0.16387 0.67649 0.48551 0.0
H1734 H 0.14775 0.6514 0.47781 0.0
C1735 C 0.07307 0.60031 0.43145 0.0
C1736 C 0.1294 0.61029 0.43175 0.0
H1737 H 0.16621 0.61182 0.46896 0.0
C1738 C 0.13015 0.62783 0.41486 0.0
C1739 C 0.14269 0.6043 0.45141 0.0
C1740 C 0.14178 0.5861 0.47075 0.0
C1741 C 0.14328 0.63996 0.41751 0.0
C1742 C 0.15644 0.63406 0.43728 0.0
C1743 C 0.15627 0.61616 0.45372 0.0
C1744 C 0.16839 0.64741 0.44272 0.0
C1745 C 0.14196 0.65952 0.39989 0.0
C1746 C 0.18591 0.65298 0.42589 0.0
C1747 C 0.19514 0.66739 0.43023 0.0
C1748 C 0.18718 0.67625 0.45162 0.0
C1749 C 0.17054 0.66979 0.469 0.0
C1750 C 0.16124 0.65551 0.46457 0.0
H1751 H 0.12739 0.66388 0.3889 0.0
H1752 H 0.13979 0.67227 0.40974 0.0
H1753 H 0.15828 0.65752 0.38714 0.0
H1754 H 0.19203 0.64654 0.40916 0.0
H1755 H 0.20817 0.6719 0.41668 0.0
H1756 H 0.64831 0.04077 0.7565 0.0
H1757 H 0.61065 0.06761 0.75778 0.0
H1758 H 0.63585 0.09968 0.79835 0.0
H1759 H 0.67326 0.07316 0.79711 0.0
H1760 H 0.58661 0.09952 0.8128 0.0
H1761 H 0.61179 0.12415 0.71397 0.0
H1762 H 0.61221 0.09804 0.72415 0.0
H1763 H 0.63277 0.10715 0.73328 0.0
C1764 C 0.64554 0.05327 0.76624 0.0
C1765 C 0.66371 0.05508 0.77644 0.0
C1766 C 0.62412 0.06858 0.76689 0.0
C1767 C 0.62069 0.08564 0.77795 0.0
C1768 C 0.63823 0.0866 0.78973 0.0
H1769 H 0.54226 0.20717 0.79312 0.0
H1770 H 0.56563 0.17128 0.79777 0.0
C1771 C 0.65961 0.07151 0.78889 0.0
C1772 C 0.60025 0.10381 0.77483 0.0
H1773 H 0.57999 0.14649 0.73394 0.0
C1774 C 0.58479 0.10965 0.79549 0.0
C1775 C 0.59807 0.11693 0.75219 0.0
C1776 C 0.61458 0.11143 0.72957 0.0
C1777 C 0.5676 0.1287 0.79427 0.0
C1778 C 0.56637 0.14236 0.77197 0.0
C1779 C 0.58106 0.13602 0.75105 0.0
C1780 C 0.55119 0.16376 0.77015 0.0
C1781 C 0.55119 0.13409 0.81696 0.0
C1782 C 0.53585 0.1716 0.75257 0.0
C1783 C 0.52281 0.19218 0.74955 0.0
C1784 C 0.52486 0.20533 0.76408 0.0
C1785 C 0.54019 0.19743 0.78174 0.0
C1786 C 0.55337 0.17686 0.7846 0.0
H1787 H 0.54906 0.12018 0.8294 0.0
H1788 H 0.55836 0.14217 0.82693 0.0
H1789 H 0.53389 0.1442 0.81244 0.0
H1790 H 0.53407 0.16179 0.74108 0.0
H1791 H 0.51108 0.19771 0.73587 0.0
H1792 H 0.73299 0.55419 0.16996 0.0
H1793 H 0.73273 0.58421 0.13857 0.0
H1794 H 0.74191 0.61569 0.19183 0.0
H1795 H 0.74196 0.58593 0.22332 0.0
H1796 H 0.70101 0.62745 0.1407 0.0
H1797 H 0.7945 0.61994 0.13272 0.0
H1798 H 0.78338 0.59864 0.14475 0.0
H1799 H 0.77921 0.61784 0.16308 0.0
C1800 C 0.73511 0.56743 0.17502 0.0
C1801 C 0.73762 0.56746 0.1993 0.0
C1802 C 0.73487 0.58466 0.15701 0.0
C1803 C 0.73749 0.60225 0.16268 0.0
C1804 C 0.74009 0.60229 0.18684 0.0
H1805 H 0.75024 0.71886 0.08001 0.0
H1806 H 0.75011 0.6885 0.11036 0.0
C1807 C 0.74006 0.5852 0.2049 0.0
C1808 C 0.73712 0.62069 0.14355 0.0
H1809 H 0.77097 0.64962 0.11097 0.0
C1810 C 0.71634 0.63225 0.13409 0.0
C1811 C 0.757 0.62717 0.13504 0.0
C1812 C 0.77989 0.61525 0.14422 0.0
C1813 C 0.71476 0.65022 0.11684 0.0
C1814 C 0.73477 0.65661 0.10799 0.0
C1815 C 0.75558 0.64493 0.11749 0.0
C1816 C 0.7345 0.6754 0.08923 0.0
C1817 C 0.69138 0.66256 0.10905 0.0
C1818 C 0.72603 0.6784 0.06682 0.0
C1819 C 0.72581 0.69599 0.04946 0.0
C1820 C 0.73451 0.71096 0.05373 0.0
C1821 C 0.74339 0.70776 0.07595 0.0
C1822 C 0.74335 0.69029 0.09341 0.0
H1823 H 0.67708 0.65952 0.12289 0.0
H1824 H 0.68911 0.67918 0.10595 0.0
H1825 H 0.68976 0.65824 0.09182 0.0
H1826 H 0.71978 0.66701 0.06254 0.0
H1827 H 0.71906 0.6977 0.03253 0.0
H1828 H 0.91889 0.4906 0.53454 0.0
H1829 H 0.88247 0.49331 0.52092 0.0
H1830 H 0.89201 0.54135 0.46255 0.0
H1831 H 0.92794 0.53921 0.47642 0.0
H1832 H 0.84654 0.54795 0.48203 0.0
H1833 H 0.88638 0.46879 0.46089 0.0
H1834 H 0.88396 0.4716 0.4922 0.0
H1835 H 0.90295 0.48247 0.4695 0.0
C1836 C 0.91302 0.50198 0.51904 0.0
C1837 C 0.92646 0.51448 0.50628 0.0
C1838 C 0.89226 0.50344 0.51126 0.0
C1839 C 0.88489 0.51717 0.49039 0.0
C1840 C 0.89748 0.53057 0.47865 0.0
H1841 H 0.82538 0.51778 0.37032 0.0
H1842 H 0.84786 0.51288 0.40348 0.0
C1843 C 0.91805 0.52931 0.48657 0.0
C1844 C 0.86538 0.51654 0.47919 0.0
H1845 H 0.85052 0.48734 0.44764 0.0
C1846 C 0.84712 0.53462 0.47483 0.0
C1847 C 0.86637 0.49909 0.46978 0.0
C1848 C 0.88601 0.47941 0.47312 0.0
C1849 C 0.83054 0.53613 0.46007 0.0
C1850 C 0.83206 0.5189 0.44992 0.0
C1851 C 0.84946 0.50046 0.45554 0.0
C1852 C 0.81797 0.52044 0.43076 0.0
C1853 C 0.81254 0.55648 0.45413 0.0
C1854 C 0.79373 0.5259 0.43526 0.0
C1855 C 0.78081 0.52881 0.41624 0.0
C1856 C 0.79201 0.52603 0.39257 0.0
C1857 C 0.8163 0.51982 0.3884 0.0
C1858 C 0.82915 0.51707 0.40732 0.0
H1859 H 0.81628 0.56903 0.46008 0.0
H1860 H 0.8115 0.56034 0.43422 0.0
H1861 H 0.79534 0.55569 0.46356 0.0
H1862 H 0.78482 0.52816 0.45335 0.0
H1863 H 0.76209 0.53335 0.41998 0.0
H1864 H 0.16085 0.51881 0.64161 0.0
H1865 H 0.14079 0.51797 0.60878 0.0
H1866 H 0.20604 0.48867 0.56876 0.0
H1867 H 0.2264 0.48956 0.60162 0.0
H1868 H 0.1442 0.53104 0.55673 0.0
H1869 H 0.16991 0.44643 0.58395 0.0
H1870 H 0.17319 0.4629 0.60268 0.0
H1871 H 0.19253 0.45828 0.57508 0.0
C1872 C 0.17104 0.51273 0.62554 0.0
C1873 C 0.19518 0.504 0.62435 0.0
C1874 C 0.15953 0.51222 0.6068 0.0
C1875 C 0.17193 0.50297 0.58658 0.0
C1876 C 0.19617 0.49559 0.58443 0.0
H1877 H 0.07634 0.49668 0.49167 0.0
H1878 H 0.11293 0.4984 0.50059 0.0
C1879 C 0.20773 0.49606 0.60322 0.0
C1880 C 0.15899 0.49905 0.56959 0.0
H1881 H 0.14101 0.46123 0.55844 0.0
C1882 C 0.14388 0.51576 0.55648 0.0
C1883 C 0.15868 0.47905 0.56948 0.0
C1884 C 0.17431 0.46057 0.5836 0.0
C1885 C 0.1273 0.51311 0.54463 0.0
C1886 C 0.126 0.49322 0.54593 0.0
C1887 C 0.14221 0.47641 0.5575 0.0
C1888 C 0.10553 0.48996 0.53957 0.0
C1889 C 0.11013 0.53166 0.53245 0.0
C1890 C 0.08978 0.4839 0.55846 0.0
C1891 C 0.06893 0.48298 0.55351 0.0
C1892 C 0.06344 0.48806 0.52951 0.0
C1893 C 0.0799 0.49294 0.5104 0.0
C1894 C 0.10079 0.49397 0.51542 0.0
H1895 H 0.11249 0.54614 0.53468 0.0
H1896 H 0.11219 0.53109 0.51266 0.0
H1897 H 0.09216 0.53179 0.54013 0.0
H1898 H 0.09323 0.48068 0.57723 0.0
H1899 H 0.05678 0.47901 0.56865 0.0
H1900 H 0.5381 0.79159 0.21385 0.0
H1901 H 0.56667 0.79569 0.1785 0.0
H1902 H 0.54318 0.75984 0.14158 0.0
H1903 H 0.51449 0.75555 0.17689 0.0
H1904 H 0.60167 0.75982 0.15878 0.0
H1905 H 0.54552 0.81367 0.09151 0.0
H1906 H 0.53671 0.81186 0.12404 0.0
H1907 H 0.53664 0.79221 0.10836 0.0
C1908 C 0.53882 0.7847 0.19816 0.0
C1909 C 0.52404 0.77319 0.19822 0.0
C1910 C 0.55514 0.7871 0.17799 0.0
C1911 C 0.55678 0.77824 0.15745 0.0
C1912 C 0.54189 0.76701 0.15721 0.0
H1913 H 0.65377 0.76848 0.02453 0.0
H1914 H 0.61952 0.77005 0.05492 0.0
C1915 C 0.52563 0.76448 0.17745 0.0
C1916 C 0.57527 0.77954 0.13704 0.0
H1917 H 0.58549 0.80105 0.07778 0.0
C1918 C 0.59819 0.76886 0.14108 0.0
C1919 C 0.57049 0.79117 0.11399 0.0
C1920 C 0.54604 0.80302 0.10907 0.0
C1921 C 0.61661 0.76943 0.12255 0.0
C1922 C 0.61196 0.78149 0.09961 0.0
C1923 C 0.58896 0.79198 0.09546 0.0
C1924 C 0.63091 0.78321 0.07981 0.0
C1925 C 0.64086 0.75676 0.12758 0.0
C1926 C 0.64808 0.79093 0.08333 0.0
C1927 C 0.6677 0.78991 0.06618 0.0
C1928 C 0.6703 0.78143 0.04501 0.0
C1929 C 0.65226 0.77509 0.04067 0.0
C1930 C 0.63271 0.77594 0.05801 0.0
H1931 H 0.64075 0.74432 0.14332 0.0
H1932 H 0.65106 0.74987 0.11141 0.0
H1933 H 0.64977 0.76666 0.13202 0.0
H1934 H 0.6467 0.79707 0.0998 0.0
H1935 H 0.68115 0.79518 0.06988 0.0
H1936 H 0.65038 0.52516 0.1289 0.0
H1937 H 0.63151 0.52723 0.09389 0.0
H1938 H 0.69809 0.50311 0.05268 0.0
H1939 H 0.71717 0.5006 0.08809 0.0
H1940 H 0.63283 0.54438 0.04516 0.0
H1941 H 0.66773 0.45938 0.05662 0.0
H1942 H 0.67042 0.47344 0.07858 0.0
H1943 H 0.6882 0.47351 0.04953 0.0
C1944 C 0.66107 0.52081 0.1122 0.0
C1945 C 0.68521 0.51245 0.11132 0.0
C1946 C 0.65027 0.522 0.09216 0.0
C1947 C 0.66338 0.51494 0.07084 0.0
C1948 C 0.68763 0.50821 0.06915 0.0
H1949 H 0.55873 0.51428 0.98346 0.0
H1950 H 0.59621 0.51783 0.98691 0.0
C1951 C 0.69848 0.5068 0.08934 0.0
C1952 C 0.65112 0.51229 0.0522 0.0
H1953 H 0.63655 0.47511 0.03455 0.0
C1954 C 0.63402 0.52931 0.04215 0.0
C1955 C 0.65288 0.49257 0.04825 0.0
C1956 C 0.67068 0.47362 0.05885 0.0
C1957 C 0.61712 0.52696 0.03047 0.0
C1958 C 0.61767 0.50707 0.02857 0.0
C1959 C 0.63625 0.4903 0.03617 0.0
C1960 C 0.59681 0.50296 0.02447 0.0
C1961 C 0.59758 0.54554 0.02241 0.0
C1962 C 0.58528 0.49275 0.04409 0.0
C1963 C 0.5641 0.49063 0.04217 0.0
C1964 C 0.55397 0.49867 0.02054 0.0
C1965 C 0.56609 0.50797 1.00039 0.0
C1966 C 0.58741 0.51013 1.00235 0.0
H1967 H 0.59896 0.55975 0.02675 0.0
H1968 H 0.59771 0.54738 1.00241 0.0
H1969 H 0.58066 0.54361 0.03136 0.0
H1970 H 0.59225 0.4871 0.06133 0.0
H1971 H 0.55534 0.48324 0.05797 0.0
H1972 H 0.4485 0.3849 0.072 0.0
H1973 H 0.42431 0.37321 0.05222 0.0
H1974 H 0.4012 0.43326 1.00988 0.0
H1975 H 0.42461 0.44511 0.03061 0.0
H1976 H 0.36603 0.42253 0.02959 0.0
H1977 H 0.42575 0.35721 0.98885 0.0
H1978 H 0.4306 0.35291 0.02001 0.0
H1979 H 0.43617 0.37464 0.99949 0.0
C1980 C 0.43851 0.39541 0.05818 0.0
C1981 C 0.43805 0.41585 0.05293 0.0
C1982 C 0.42494 0.38871 0.04662 0.0
C1983 C 0.41121 0.40225 0.02919 0.0
C1984 C 0.41168 0.42252 0.02317 0.0
H1985 H 0.32375 0.33799 0.99542 0.0
H1986 H 0.34955 0.35925 0.98567 0.0
C1987 C 0.42493 0.42928 0.03504 0.0
C1988 C 0.39395 0.39597 0.02025 0.0
H1989 H 0.38646 0.35421 1.00557 0.0
C1990 C 0.3706 0.40784 0.02364 0.0
C1991 C 0.39975 0.37722 0.01156 0.0
C1992 C 0.4245 0.36496 1.0045 0.0
C1993 C 0.35287 0.40037 0.0213 0.0
C1994 C 0.35864 0.38026 0.01636 0.0
C1995 C 0.38198 0.36939 1.01016 0.0
C1996 C 0.34118 0.3693 0.02086 0.0
C1997 C 0.32811 0.41381 0.02514 0.0
C1998 C 0.32794 0.36789 0.04386 0.0
C1999 C 0.31302 0.35602 0.04937 0.0
C2000 C 0.31132 0.34496 0.03215 0.0
C2001 C 0.32441 0.34654 1.00899 0.0
C2002 C 0.33925 0.35859 1.00342 0.0
H2003 H 0.32689 0.43012 0.01861 0.0
H2004 H 0.31664 0.40963 0.01553 0.0
H2005 H 0.32173 0.41228 0.04493 0.0
H2006 H 0.32963 0.3755 0.0579 0.0
H2007 H 0.303 0.35533 0.06726 0.0
H2008 H -0.00198 0.18981 0.26029 0.0
H2009 H 0.02285 0.15437 0.26648 0.0
H2010 H 0.07442 0.17353 0.28867 0.0
H2011 H 0.0498 0.20908 0.28247 0.0
H2012 H 0.07082 0.13967 0.24268 0.0
H2013 H 0.06277 0.12594 0.34373 0.0
H2014 H 0.04164 0.1458 0.32679 0.0
H2015 H 0.06846 0.14945 0.32951 0.0
C2016 C 0.0146 0.1865 0.26662 0.0
C2017 C 0.02196 0.20224 0.27096 0.0
C2018 C 0.02871 0.16625 0.27014 0.0
C2019 C 0.05021 0.16141 0.27837 0.0
C2020 C 0.05765 0.17703 0.28268 0.0
H2021 H 0.1768 0.07731 0.29826 0.0
H2022 H 0.13886 0.10274 0.30008 0.0
C2023 C 0.04366 0.19731 0.27895 0.0
C2024 C 0.06558 0.14018 0.28126 0.0
H2025 H 0.09488 0.10278 0.323 0.0
C2026 C 0.07579 0.13132 0.26025 0.0
C2027 C 0.07173 0.12942 0.30426 0.0
C2028 C 0.06045 0.13802 0.32743 0.0
C2029 C 0.0935 0.1126 0.2614 0.0
C2030 C 0.10069 0.10239 0.2843 0.0
C2031 C 0.08928 0.11063 0.3055 0.0
C2032 C 0.12245 0.08533 0.28608 0.0
C2033 C 0.10553 0.10469 0.23797 0.0
C2034 C 0.12563 0.06676 0.27834 0.0
C2035 C 0.14753 0.0521 0.27711 0.0
C2036 C 0.1664 0.05592 0.28365 0.0
C2037 C 0.1627 0.07401 0.29278 0.0
C2038 C 0.14097 0.08854 0.29398 0.0
H2039 H 0.09989 0.11591 0.2216 0.0
H2040 H 0.12459 0.10087 0.23708 0.0
H2041 H 0.10158 0.09056 0.23729 0.0
H2042 H 0.1114 0.06389 0.27254 0.0
H2043 H 0.14988 0.03824 0.27012 0.0
H2044 H 0.22523 0.33895 0.98698 0.0
H2045 H 0.22421 0.37038 0.95801 0.0
H2046 H 0.23805 0.3371 0.89812 0.0
H2047 H 0.2387 0.30578 0.92687 0.0
H2048 H 0.25669 0.38102 0.92278 0.0
H2049 H 0.18259 0.38405 0.87856 0.0
H2050 H 0.19007 0.36704 0.90648 0.0
H2051 H 0.20567 0.36049 0.87757 0.0
C2052 C 0.2279 0.3383 0.96765 0.0
C2053 C 0.23182 0.31969 0.95943 0.0
C2054 C 0.22737 0.35636 0.95102 0.0
C2055 C 0.23058 0.35642 0.92568 0.0
C2056 C 0.23487 0.33778 0.91746 0.0
H2057 H 0.23783 0.44706 0.79436 0.0
H2058 H 0.23785 0.41633 0.82418 0.0
C2059 C 0.2354 0.31974 0.93404 0.0
C2060 C 0.22992 0.37579 0.90789 0.0
H2061 H 0.20384 0.40698 0.85921 0.0
C2062 C 0.24499 0.38673 0.90902 0.0
C2063 C 0.21474 0.38345 0.88974 0.0
C2064 C 0.19719 0.37328 0.8881 0.0
C2065 C 0.2457 0.40461 0.89233 0.0
C2066 C 0.23061 0.41219 0.87409 0.0
C2067 C 0.21548 0.4013 0.87303 0.0
C2068 C 0.23034 0.43125 0.85589 0.0
C2069 C 0.26315 0.41489 0.89398 0.0
C2070 C 0.22573 0.45021 0.86347 0.0
C2071 C 0.22565 0.46792 0.84637 0.0
C2072 C 0.23009 0.46726 0.82111 0.0
C2073 C 0.23435 0.44831 0.81356 0.0
C2074 C 0.23437 0.43063 0.83068 0.0
H2075 H 0.27743 0.40438 0.90417 0.0
H2076 H 0.27072 0.4206 0.87557 0.0
H2077 H 0.25441 0.42809 0.9038 0.0
H2078 H 0.22203 0.45137 0.8827 0.0
H2079 H 0.22224 0.48213 0.85303 0.0
H2080 H 0.29996 0.2167 0.97017 0.0
H2081 H 0.33583 0.20971 0.94207 0.0
H2082 H 0.34661 0.26449 0.9534 0.0
H2083 H 0.31081 0.27159 0.98168 0.0
H2084 H 0.33916 0.23781 0.89993 0.0
H2085 H 0.41198 0.22297 0.95246 0.0
H2086 H 0.38411 0.22035 0.96661 0.0
H2087 H 0.38817 0.24515 0.95863 0.0
C2088 C 0.31021 0.22704 0.96715 0.0
C2089 C 0.3024 0.24486 0.97789 0.0
C2090 C 0.33074 0.22296 0.95115 0.0
C2091 C 0.34389 0.2365 0.94582 0.0
C2092 C 0.3369 0.25365 0.95764 0.0
H2093 H 0.43992 0.27547 0.83673 0.0
H2094 H 0.41466 0.26719 0.87328 0.0
C2095 C 0.31634 0.25777 0.97366 0.0
C2096 C 0.3627 0.23454 0.92525 0.0
H2097 H 0.4192 0.23308 0.90915 0.0
C2098 C 0.35681 0.23636 0.90192 0.0
C2099 C 0.38558 0.23276 0.92804 0.0
C2100 C 0.39294 0.23 0.95282 0.0
C2101 C 0.37286 0.23765 0.88107 0.0
C2102 C 0.39557 0.23658 0.88376 0.0
C2103 C 0.40176 0.23387 0.90719 0.0
C2104 C 0.41237 0.24026 0.86242 0.0
C2105 C 0.36496 0.24136 0.85633 0.0
C2106 C 0.41973 0.22764 0.84439 0.0
C2107 C 0.43395 0.23248 0.82325 0.0
C2108 C 0.44125 0.24987 0.82005 0.0
C2109 C 0.43451 0.26202 0.83858 0.0
C2110 C 0.42017 0.25727 0.85955 0.0
H2111 H 0.34578 0.24605 0.85744 0.0
H2112 H 0.37124 0.25337 0.8438 0.0
H2113 H 0.37214 0.22709 0.84827 0.0
H2114 H 0.41422 0.21422 0.84653 0.0
H2115 H 0.43912 0.22268 0.80943 0.0
H2116 H 0.4082 0.53698 0.99477 0.0
H2117 H 0.37195 0.53471 0.98668 0.0
H2118 H 0.37924 0.47986 0.03978 0.0
H2119 H 0.41609 0.4817 0.04749 0.0
H2120 H 0.37105 0.47345 0.99958 0.0
H2121 H 0.30707 0.54599 0.01838 0.0
H2122 H 0.33129 0.55176 0.99908 0.0
H2123 H 0.33504 0.53715 0.02916 0.0
C2124 C 0.40187 0.52471 1.00521 0.0
C2125 C 0.41511 0.50948 0.02167 0.0
C2126 C 0.38095 0.52352 1.00073 0.0
C2127 C 0.37257 0.50732 0.01296 0.0
C2128 C 0.38523 0.49259 0.03028 0.0
H2129 H 0.2531 0.52398 0.94058 0.0
H2130 H 0.27361 0.51503 0.97648 0.0
C2131 C 0.40631 0.49367 0.03464 0.0
C2132 C 0.35246 0.50452 1.00495 0.0
H2133 H 0.30142 0.53255 0.98355 0.0
C2134 C 0.35547 0.48618 0.99673 0.0
C2135 C 0.33169 0.52072 1.002 0.0
C2136 C 0.32603 0.53988 0.01295 0.0
C2137 C 0.33956 0.48455 0.98311 0.0
C2138 C 0.32066 0.50191 0.97691 0.0
C2139 C 0.31623 0.51936 0.98764 0.0
C2140 C 0.30765 0.50361 0.95661 0.0
C2141 C 0.34375 0.46448 0.97471 0.0
C2142 C 0.31987 0.49992 0.93359 0.0
C2143 C 0.30822 0.50484 0.91322 0.0
C2144 C 0.28412 0.51396 0.91534 0.0
C2145 C 0.27173 0.51707 0.93847 0.0
C2146 C 0.28341 0.51188 0.95896 0.0
H2147 H 0.35158 0.45149 0.9886 0.0
H2148 H 0.32749 0.46278 0.97105 0.0
H2149 H 0.35625 0.46352 0.95778 0.0
H2150 H 0.33861 0.49432 0.93101 0.0
H2151 H 0.31825 0.50261 0.89557 0.0
H2152 H 0.63448 0.69644 0.97985 0.0
H2153 H 0.61319 0.67359 0.97636 0.0
H2154 H 0.64938 0.66636 0.90416 0.0
H2155 H 0.67137 0.68852 0.90784 0.0
H2156 H 0.58418 0.67852 0.94221 0.0
H2157 H 0.65827 0.6075 0.9379 0.0
H2158 H 0.6602 0.6297 0.94757 0.0
H2159 H 0.66208 0.62882 0.91568 0.0
C2160 C 0.63814 0.68975 0.96337 0.0
C2161 C 0.65464 0.69424 0.94414 0.0
C2162 C 0.62586 0.67683 0.96134 0.0
C2163 C 0.62996 0.66812 0.94013 0.0
C2164 C 0.64627 0.67266 0.92084 0.0
H2165 H 0.53722 0.61285 0.90051 0.0
H2166 H 0.56121 0.63448 0.90055 0.0
C2167 C 0.6586 0.68553 0.92287 0.0
C2168 C 0.61666 0.65472 0.93795 0.0
H2169 H 0.62229 0.60648 0.92994 0.0
C2170 C 0.59247 0.66276 0.93954 0.0
C2171 C 0.62759 0.63414 0.93471 0.0
C2172 C 0.65345 0.62442 0.93408 0.0
C2173 C 0.57885 0.65077 0.93789 0.0
C2174 C 0.58982 0.63033 0.93404 0.0
C2175 C 0.61401 0.62225 0.93256 0.0
C2176 C 0.57638 0.61675 0.93288 0.0
C2177 C 0.55282 0.6599 0.94092 0.0
C2178 C 0.57762 0.59932 0.95053 0.0
C2179 C 0.56411 0.58694 0.95046 0.0
C2180 C 0.54915 0.59175 0.93266 0.0
C2181 C 0.54839 0.60894 0.91459 0.0
C2182 C 0.56202 0.62129 0.91462 0.0
H2183 H 0.5471 0.67395 0.94942 0.0
H2184 H 0.5467 0.66402 0.92275 0.0
H2185 H 0.54439 0.64879 0.95232 0.0
H2186 H 0.58861 0.59558 0.96477 0.0
H2187 H 0.56483 0.57396 0.96484 0.0
H2188 H 0.94721 0.83599 0.77332 0.0
H2189 H 0.91898 0.87012 0.7691 0.0
H2190 H 0.87913 0.84959 0.73044 0.0
H2191 H 0.90679 0.81543 0.73509 0.0
H2192 H 0.9062 0.89668 0.72783 0.0
H2193 H 0.83024 0.87607 0.78183 0.0
H2194 H 0.85937 0.85887 0.7822 0.0
H2195 H 0.84336 0.8614 0.75758 0.0
C2196 C 0.93231 0.8387 0.76412 0.0
C2197 C 0.92915 0.82294 0.75472 0.0
C2198 C 0.91625 0.85821 0.76167 0.0
C2199 C 0.89681 0.8623 0.74977 0.0
C2200 C 0.89371 0.84664 0.74023 0.0
H2201 H 0.78261 0.97007 0.71207 0.0
H2202 H 0.81497 0.93853 0.7099 0.0
C2203 C 0.9096 0.82712 0.74286 0.0
C2204 C 0.87999 0.88303 0.74681 0.0
H2205 H 0.82267 0.90929 0.75832 0.0
C2206 C 0.88796 0.89946 0.73459 0.0
C2207 C 0.8562 0.88661 0.75571 0.0
C2208 C 0.8468 0.86984 0.77027 0.0
C2209 C 0.87265 0.91937 0.73077 0.0
C2210 C 0.84891 0.92279 0.73931 0.0
C2211 C 0.84092 0.90643 0.75151 0.0
C2212 C 0.83204 0.94341 0.73717 0.0
C2213 C 0.88179 0.93663 0.71753 0.0
C2214 C 0.83139 0.95669 0.75279 0.0
C2215 C 0.81289 0.97458 0.75424 0.0
C2216 C 0.79482 0.97946 0.74 0.0
C2217 C 0.79634 0.96678 0.72316 0.0
C2218 C 0.81475 0.94875 0.72193 0.0
H2219 H 0.89998 0.93104 0.70891 0.0
H2220 H 0.87081 0.94606 0.70326 0.0
H2221 H 0.88108 0.94663 0.73065 0.0
H2222 H 0.84452 0.95266 0.76484 0.0
H2223 H 0.81221 0.98409 0.76734 0.0
H2224 H 0.47643 0.15858 0.68968 0.0
H2225 H 0.48225 0.13053 0.66748 0.0
H2226 H 0.44291 0.17255 0.61233 0.0
H2227 H 0.43717 0.20071 0.63424 0.0
H2228 H 0.43023 0.13707 0.62749 0.0
H2229 H 0.52559 0.11893 0.60424 0.0
H2230 H 0.5155 0.1189 0.63617 0.0
H2231 H 0.50767 0.14229 0.61511 0.0
C2232 C 0.46921 0.16192 0.6727 0.0
C2233 C 0.45637 0.18197 0.66375 0.0
C2234 C 0.47256 0.14584 0.66002 0.0
C2235 C 0.4633 0.14947 0.63805 0.0
C2236 C 0.45026 0.16939 0.62922 0.0
H2237 H 0.49797 0.06903 0.52954 0.0
H2238 H 0.49225 0.09689 0.552 0.0
C2239 C 0.44689 0.18547 0.64187 0.0
C2240 C 0.46684 0.13249 0.62442 0.0
H2241 H 0.50851 0.09603 0.59529 0.0
C2242 C 0.44734 0.12811 0.62043 0.0
C2243 C 0.48916 0.12096 0.61493 0.0
C2244 C 0.51069 0.12557 0.61759 0.0
C2245 C 0.44956 0.11236 0.60753 0.0
C2246 C 0.47192 0.10046 0.59863 0.0
C2247 C 0.4914 0.10503 0.60231 0.0
C2248 C 0.47542 0.08341 0.58515 0.0
C2249 C 0.42793 0.10884 0.60314 0.0
C2250 C 0.46814 0.06642 0.59641 0.0
C2251 C 0.47136 0.05045 0.58362 0.0
C2252 C 0.48205 0.05108 0.5593 0.0
C2253 C 0.48959 0.06803 0.54818 0.0
C2254 C 0.48638 0.08398 0.56101 0.0
H2255 H 0.41242 0.1223 0.60558 0.0
H2256 H 0.42974 0.10533 0.58447 0.0
H2257 H 0.42493 0.09563 0.61638 0.0
H2258 H 0.46005 0.06544 0.61517 0.0
H2259 H 0.46545 0.03761 0.59284 0.0
H2260 H 0.47999 0.36135 0.85074 0.0
H2261 H 0.47509 0.38498 0.879 0.0
H2262 H 0.5158 0.33602 0.92746 0.0
H2263 H 0.5206 0.31223 0.8995 0.0
H2264 H 0.45698 0.38399 0.93025 0.0
H2265 H 0.55019 0.37942 0.91209 0.0
H2266 H 0.53674 0.3705 0.89272 0.0
H2267 H 0.54424 0.35545 0.92152 0.0
C2268 C 0.48763 0.35552 0.86757 0.0
C2269 C 0.50091 0.3349 0.87269 0.0
C2270 C 0.48486 0.36907 0.88367 0.0
C2271 C 0.49537 0.36232 0.90515 0.0
C2272 C 0.50792 0.34164 0.91076 0.0
H2273 H 0.50778 0.43228 0.01096 0.0
H2274 H 0.50828 0.40416 0.9913 0.0
C2275 C 0.51069 0.32808 0.8947 0.0
C2276 C 0.49396 0.3771 0.92115 0.0
H2277 H 0.52675 0.39979 0.9411 0.0
C2278 C 0.47223 0.38743 0.93268 0.0
C2279 C 0.5139 0.38146 0.92442 0.0
C2280 C 0.5376 0.37128 0.91193 0.0
C2281 C 0.46992 0.4021 0.94727 0.0
C2282 C 0.4898 0.4068 0.95001 0.0
C2283 C 0.51156 0.39613 0.93897 0.0
C2284 C 0.48828 0.42363 0.96291 0.0
C2285 C 0.4463 0.41242 0.95977 0.0
C2286 C 0.477 0.44388 0.95337 0.0
C2287 C 0.47688 0.45997 0.96436 0.0
C2288 C 0.48807 0.45616 0.98515 0.0
C2289 C 0.49914 0.4358 0.99487 0.0
C2290 C 0.49937 0.41969 0.98373 0.0
H2291 H 0.43395 0.40376 0.96076 0.0
H2292 H 0.44744 0.41417 0.97853 0.0
H2293 H 0.43921 0.42787 0.94941 0.0
H2294 H 0.46867 0.44729 0.93708 0.0
H2295 H 0.46808 0.47543 0.95644 0.0
H2296 H 0.5208 0.81232 0.39958 0.0
H2297 H 0.51795 0.83618 0.42679 0.0
H2298 H 0.47846 0.88576 0.37795 0.0
H2299 H 0.48129 0.86207 0.35063 0.0
H2300 H 0.53414 0.8693 0.41674 0.0
H2301 H 0.43915 0.89434 0.44327 0.0
H2302 H 0.45388 0.87212 0.4287 0.0
H2303 H 0.44722 0.89723 0.41085 0.0
C2304 C 0.51145 0.8283 0.39464 0.0
C2305 C 0.50122 0.83524 0.3729 0.0
C2306 C 0.50977 0.84191 0.41028 0.0
C2307 C 0.49771 0.86273 0.40463 0.0
C2308 C 0.48736 0.86969 0.38304 0.0
H2309 H 0.47711 0.97494 0.45534 0.0
H2310 H 0.47856 0.94733 0.43465 0.0
C2311 C 0.489 0.8561 0.36741 0.0
C2312 C 0.49696 0.87736 0.42061 0.0
H2313 H 0.46006 0.9146 0.45214 0.0
C2314 C 0.51795 0.87904 0.42473 0.0
C2315 C 0.47584 0.89004 0.43108 0.0
C2316 C 0.45275 0.88824 0.42848 0.0
C2317 C 0.51838 0.89359 0.4382 0.0
C2318 C 0.49724 0.90663 0.44812 0.0
C2319 C 0.47626 0.90464 0.44447 0.0
C2320 C 0.49646 0.92316 0.46122 0.0
C2321 C 0.54142 0.89543 0.44092 0.0
C2322 C 0.50588 0.91878 0.48324 0.0
C2323 C 0.50512 0.93462 0.49521 0.0
C2324 C 0.49487 0.95513 0.48538 0.0
C2325 C 0.48526 0.95937 0.46344 0.0
C2326 C 0.486 0.94358 0.45157 0.0
H2327 H 0.55572 0.88724 0.42806 0.0
H2328 H 0.54083 0.9117 0.43778 0.0
H2329 H 0.54548 0.88874 0.45975 0.0
H2330 H 0.51369 0.90312 0.49125 0.0
H2331 H 0.51254 0.93077 0.51213 0.0
H2332 H 0.45692 0.53931 0.09191 0.0
H2333 H 0.45237 0.56693 0.11434 0.0
H2334 H 0.49174 0.59441 0.0539 0.0
H2335 H 0.49594 0.5672 0.03115 0.0
H2336 H 0.48475 0.57873 0.12925 0.0
H2337 H 0.43471 0.6422 0.06555 0.0
H2338 H 0.43956 0.61576 0.0638 0.0
H2339 H 0.46182 0.62758 0.05111 0.0
C2340 C 0.46453 0.55128 0.08333 0.0
C2341 C 0.47663 0.5511 0.05963 0.0
C2342 C 0.46192 0.56705 0.09619 0.0
C2343 C 0.47133 0.58297 0.08564 0.0
C2344 C 0.48379 0.58262 0.06218 0.0
H2345 H 0.47871 0.68903 0.13654 0.0
H2346 H 0.48446 0.66097 0.11425 0.0
C2347 C 0.48628 0.56695 0.04924 0.0
C2348 C 0.46855 0.59968 0.09939 0.0
H2349 H 0.44835 0.65151 0.09676 0.0
C2350 C 0.47668 0.59463 0.12219 0.0
C2351 C 0.45802 0.62046 0.09018 0.0
C2352 C 0.44782 0.62686 0.06643 0.0
C2353 C 0.47489 0.60977 0.13585 0.0
C2354 C 0.46451 0.6305 0.12655 0.0
C2355 C 0.45641 0.63559 0.10376 0.0
C2356 C 0.4615 0.64714 0.14041 0.0
C2357 C 0.48444 0.60353 0.15994 0.0
C2358 C 0.44658 0.64871 0.16241 0.0
C2359 C 0.44324 0.66471 0.17515 0.0
C2360 C 0.45477 0.67947 0.16614 0.0
C2361 C 0.46978 0.6778 0.14411 0.0
C2362 C 0.47299 0.66185 0.13129 0.0
H2363 H 0.49638 0.58765 0.16194 0.0
H2364 H 0.49383 0.61397 0.16198 0.0
H2365 H 0.46991 0.60441 0.17498 0.0
H2366 H 0.43732 0.63767 0.16961 0.0
H2367 H 0.43172 0.66547 0.19215 0.0
loop_
_geom_bond_atom_site_label_1
_geom_bond_atom_site_label_2
_geom_bond_distance
_geom_bond_site_symmetry_2
_ccdc_geom_bond_type
Tb0 C10 2.825 . S
Tb0 O11 2.347 1_564 S
Tb0 O14 2.366 1_654 S
Tb0 O19 2.418 1_655 S
Tb0 O20 2.384 1_565 S
Tb0 O23 2.479 . S
Tb0 O24 2.471 . S
Eu1 O12 2.418 1_455 S
Eu1 O13 2.384 1_545 S
Eu1 O16 2.479 . S
Eu1 O17 2.471 . S
Eu1 O18 2.347 1_546 S
Eu1 O21 2.366 1_456 S
Eu1 C31 2.825 . S
C2 O18 1.259 . S
C2 O19 1.265 . S
C3 O20 1.255 . S
C3 O21 1.265 . S
C4 C6 1.380 . S
C4 C7 1.374 . S
C4 C10 1.507 . S
C5 C6 1.384 . S
C5 C9 1.387 . S
C5 H32 0.930 . S
C6 C4 1.380 . S
C6 C5 1.384 . S
C6 H33 0.931 . S
C7 C4 1.374 . S
C7 C8 1.390 . S
C7 H34 0.930 1_554 S
C8 C7 1.390 . S
C8 C9 1.391 . S
C8 H35 0.930 1_554 S
C9 C5 1.387 . S
C9 C8 1.391 . S
C10 Tb0 2.825 . S
C10 C4 1.507 . S
C10 O23 1.238 . S
C10 O24 1.247 . S
O11 Tb0 2.347 1_546 S
O11 C15 1.259 . S
O12 Eu1 2.418 1_655 S
O12 C15 1.265 . S
O13 Eu1 2.384 1_565 S
O13 C22 1.255 . S
O14 Tb0 2.366 1_456 S
O14 C22 1.265 . S
C15 O11 1.259 . S
C15 O12 1.265 . S
O16 Eu1 2.479 . S
O16 C31 1.238 . S
O17 Eu1 2.471 . S
O17 C31 1.247 . S
O18 Eu1 2.347 1_564 S
O18 C2 1.259 . S
O19 Tb0 2.418 1_455 S
O19 C2 1.265 . S
O20 Tb0 2.384 1_545 S
O20 C3 1.255 . S
O21 Eu1 2.366 1_654 S
O21 C3 1.265 . S
C22 O13 1.255 . S
C22 O14 1.265 . S
O23 Tb0 2.479 . S
O23 C10 1.238 . S
O24 Tb0 2.471 . S
O24 C10 1.247 . S
C25 C28 1.380 . S
C25 C29 1.374 . S
C25 C31 1.507 . S
C26 C27 1.387 . S
C26 C30 1.391 . S
C27 C26 1.387 . S
C27 C28 1.384 . S
C27 H36 0.930 . S
C28 C25 1.380 . S
C28 C27 1.384 . S
C28 H37 0.931 . S
C29 C25 1.374 . S
C29 C30 1.390 . S
C29 H38 0.930 1_556 S
C30 C26 1.391 . S
C30 C29 1.390 . S
C30 H39 0.930 1_556 S
C31 Eu1 2.825 . S
C31 O16 1.238 . S
C31 O17 1.247 . S
C31 C25 1.507 . S
H32 C5 0.930 . S
H33 C6 0.931 . S
H34 C7 0.930 1_556 S
H35 C8 0.930 1_556 S
H36 C27 0.930 . S
H37 C28 0.931 . S
H38 C29 0.930 1_554 S
H39 C30 0.930 1_554 S
Tb40 C50 2.825 . S
Tb40 O51 2.347 1_455 S
Tb40 O54 2.366 1_455 S
Tb40 O59 2.418 . S
Tb40 O60 2.384 . S
Tb40 O63 2.479 . S
Tb40 O64 2.471 1_455 S
Eu41 O52 2.418 . S
Eu41 O53 2.384 . S
Eu41 O56 2.479 . S
Eu41 O57 2.471 1_655 S
Eu41 O58 2.347 1_655 S
Eu41 O61 2.366 1_655 S
Eu41 C71 2.825 . S
C42 O58 1.259 . S
C42 O59 1.265 . S
C43 O60 1.255 . S
C43 O61 1.265 . S
C44 C46 1.380 . S
C44 C47 1.374 1_455 S
C44 C50 1.507 . S
C45 C46 1.384 . S
C45 C49 1.387 1_455 S
C45 H72 0.930 . S
C46 C44 1.380 . S
C46 C45 1.384 . S
C46 H73 0.931 . S
C47 C44 1.374 1_655 S
C47 C48 1.390 . S
C47 H74 0.930 . S
C48 C47 1.390 . S
C48 C49 1.391 . S
C48 H75 0.930 . S
C49 C45 1.387 1_655 S
C49 C48 1.391 . S
C50 Tb40 2.825 . S
C50 C44 1.507 . S
C50 O63 1.238 . S
C50 O64 1.247 1_455 S
O51 Tb40 2.347 1_655 S
O51 C55 1.259 . S
O52 Eu41 2.418 . S
O52 C55 1.265 . S
O53 Eu41 2.384 . S
O53 C62 1.255 . S
O54 Tb40 2.366 1_655 S
O54 C62 1.265 . S
C55 O51 1.259 . S
C55 O52 1.265 . S
O56 Eu41 2.479 . S
O56 C71 1.238 . S
O57 Eu41 2.471 1_455 S
O57 C71 1.247 1_455 S
O58 Eu41 2.347 1_455 S
O58 C42 1.259 . S
O59 Tb40 2.418 . S
O59 C42 1.265 . S
O60 Tb40 2.384 . S
O60 C43 1.255 . S
O61 Eu41 2.366 1_455 S
O61 C43 1.265 . S
C62 O53 1.255 . S
C62 O54 1.265 . S
O63 Tb40 2.479 . S
O63 C50 1.238 . S
O64 Tb40 2.471 1_655 S
O64 C50 1.247 1_655 S
C65 C68 1.380 . S
C65 C69 1.374 1_655 S
C65 C71 1.507 . S
C66 C67 1.387 1_455 S
C66 C70 1.391 . S
C67 C66 1.387 1_655 S
C67 C68 1.384 . S
C67 H76 0.930 . S
C68 C65 1.380 . S
C68 C67 1.384 . S
C68 H77 0.931 . S
C69 C65 1.374 1_455 S
C69 C70 1.390 . S
C69 H78 0.930 . S
C70 C66 1.391 . S
C70 C69 1.390 . S
C70 H79 0.930 . S
C71 Eu41 2.825 . S
C71 O56 1.238 . S
C71 O57 1.247 1_655 S
C71 C65 1.507 . S
H72 C45 0.930 . S
H73 C46 0.931 . S
H74 C47 0.930 . S
H75 C48 0.930 . S
H76 C67 0.930 . S
H77 C68 0.931 . S
H78 C69 0.930 . S
H79 C70 0.930 . S
Tb80 C90 2.825 . S
Tb80 O91 2.347 . S
Tb80 O94 2.366 . S
Tb80 O99 2.418 . S
Tb80 O100 2.384 . S
Tb80 O103 2.479 . S
Tb80 O104 2.471 . S
Eu81 O92 2.418 . S
Eu81 O93 2.384 . S
Eu81 O96 2.479 . S
Eu81 O97 2.471 . S
Eu81 O98 2.347 . S
Eu81 O101 2.366 . S
Eu81 C111 2.825 . S
C82 O98 1.259 . S
C82 O99 1.265 . S
C83 O100 1.255 . S
C83 O101 1.265 . S
C84 C86 1.380 . S
C84 C87 1.374 . S
C84 C90 1.507 . S
C85 C86 1.384 . S
C85 C89 1.387 . S
C85 H112 0.930 . S
C86 C84 1.380 . S
C86 C85 1.384 . S
C86 H113 0.931 . S
C87 C84 1.374 . S
C87 C88 1.390 . S
C87 H114 0.930 . S
C88 C87 1.390 . S
C88 C89 1.391 . S
C88 H115 0.930 . S
C89 C85 1.387 . S
C89 C88 1.391 . S
C90 Tb80 2.825 . S
C90 C84 1.507 . S
C90 O103 1.238 . S
C90 O104 1.247 . S
O91 Tb80 2.347 . S
O91 C95 1.259 . S
O92 Eu81 2.418 . S
O92 C95 1.265 . S
O93 Eu81 2.384 . S
O93 C102 1.255 . S
O94 Tb80 2.366 . S
O94 C102 1.265 . S
C95 O91 1.259 . S
C95 O92 1.265 . S
O96 Eu81 2.479 . S
O96 C111 1.238 . S
O97 Eu81 2.471 . S
O97 C111 1.247 . S
O98 Eu81 2.347 . S
O98 C82 1.259 . S
O99 Tb80 2.418 . S
O99 C82 1.265 . S
O100 Tb80 2.384 . S
O100 C83 1.255 . S
O101 Eu81 2.366 . S
O101 C83 1.265 . S
C102 O93 1.255 . S
C102 O94 1.265 . S
O103 Tb80 2.479 . S
O103 C90 1.238 . S
O104 Tb80 2.471 . S
O104 C90 1.247 . S
C105 C108 1.380 . S
C105 C109 1.374 . S
C105 C111 1.507 . S
C106 C107 1.387 . S
C106 C110 1.391 . S
C107 C106 1.387 . S
C107 C108 1.384 . S
C107 H116 0.930 . S
C108 C105 1.380 . S
C108 C107 1.384 . S
C108 H117 0.931 . S
C109 C105 1.374 . S
C109 C110 1.390 . S
C109 H118 0.930 . S
C110 C106 1.391 . S
C110 C109 1.390 . S
C110 H119 0.930 . S
C111 Eu81 2.825 . S
C111 O96 1.238 . S
C111 O97 1.247 . S
C111 C105 1.507 . S
H112 C85 0.930 . S
H113 C86 0.931 . S
H114 C87 0.930 . S
H115 C88 0.930 . S
H116 C107 0.930 . S
H117 C108 0.931 . S
H118 C109 0.930 . S
H119 C110 0.930 . S
Tb120 C130 2.825 . S
Tb120 O131 2.347 1_565 S
Tb120 O134 2.366 1_565 S
Tb120 O139 2.418 . S
Tb120 O140 2.384 . S
Tb120 O143 2.479 . S
Tb120 O144 2.471 1_565 S
Eu121 O132 2.418 . S
Eu121 O133 2.384 . S
Eu121 O136 2.479 . S
Eu121 O137 2.471 1_545 S
Eu121 O138 2.347 1_545 S
Eu121 O141 2.366 1_545 S
Eu121 C151 2.825 . S
C122 O138 1.259 . S
C122 O139 1.265 . S
C123 O140 1.255 . S
C123 O141 1.265 . S
C124 C126 1.380 1_545 S
C124 C127 1.374 . S
C124 C130 1.507 1_545 S
C125 C126 1.384 . S
C125 C129 1.387 1_565 S
C125 H152 0.930 . S
C126 C124 1.380 1_565 S
C126 C125 1.384 . S
C126 H153 0.931 . S
C127 C124 1.374 . S
C127 C128 1.390 . S
C127 H154 0.930 . S
C128 C127 1.390 . S
C128 C129 1.391 . S
C128 H155 0.930 . S
C129 C125 1.387 1_545 S
C129 C128 1.391 . S
C130 Tb120 2.825 . S
C130 C124 1.507 1_565 S
C130 O143 1.238 . S
C130 O144 1.247 1_565 S
O131 Tb120 2.347 1_545 S
O131 C135 1.259 . S
O132 Eu121 2.418 . S
O132 C135 1.265 . S
O133 Eu121 2.384 . S
O133 C142 1.255 . S
O134 Tb120 2.366 1_545 S
O134 C142 1.265 . S
C135 O131 1.259 . S
C135 O132 1.265 . S
O136 Eu121 2.479 . S
O136 C151 1.238 . S
O137 Eu121 2.471 1_565 S
O137 C151 1.247 1_565 S
O138 Eu121 2.347 1_565 S
O138 C122 1.259 . S
O139 Tb120 2.418 . S
O139 C122 1.265 . S
O140 Tb120 2.384 . S
O140 C123 1.255 . S
O141 Eu121 2.366 1_565 S
O141 C123 1.265 . S
C142 O133 1.255 . S
C142 O134 1.265 . S
O143 Tb120 2.479 . S
O143 C130 1.238 . S
O144 Tb120 2.471 1_545 S
O144 C130 1.247 1_545 S
C145 C148 1.380 1_565 S
C145 C149 1.374 . S
C145 C151 1.507 1_565 S
C146 C147 1.387 1_565 S
C146 C150 1.391 . S
C147 C146 1.387 1_545 S
C147 C148 1.384 . S
C147 H156 0.930 . S
C148 C145 1.380 1_545 S
C148 C147 1.384 . S
C148 H157 0.931 . S
C149 C145 1.374 . S
C149 C150 1.390 . S
C149 H158 0.930 . S
C150 C146 1.391 . S
C150 C149 1.390 . S
C150 H159 0.930 . S
C151 Eu121 2.825 . S
C151 O136 1.238 . S
C151 O137 1.247 1_545 S
C151 C145 1.507 1_545 S
H152 C125 0.930 . S
H153 C126 0.931 . S
H154 C127 0.930 . S
H155 C128 0.930 . S
H156 C147 0.930 . S
H157 C148 0.931 . S
H158 C149 0.930 . S
H159 C150 0.930 . S
Tb160 C170 2.825 . S
Tb160 O171 2.347 . S
Tb160 O174 2.366 . S
Tb160 O179 2.418 . S
Tb160 O180 2.384 . S
Tb160 O183 2.479 . S
Tb160 O184 2.471 . S
Eu161 O172 2.418 . S
Eu161 O173 2.384 . S
Eu161 O176 2.479 . S
Eu161 O177 2.471 . S
Eu161 O178 2.347 . S
Eu161 O181 2.366 . S
Eu161 C191 2.825 . S
C162 O178 1.259 . S
C162 O179 1.265 . S
C163 O180 1.255 . S
C163 O181 1.265 . S
C164 C166 1.380 . S
C164 C167 1.374 . S
C164 C170 1.507 . S
C165 C166 1.384 . S
C165 C169 1.387 . S
C165 H192 0.930 . S
C166 C164 1.380 . S
C166 C165 1.384 . S
C166 H193 0.931 . S
C167 C164 1.374 . S
C167 C168 1.390 . S
C167 H194 0.930 . S
C168 C167 1.390 . S
C168 C169 1.391 . S
C168 H195 0.930 . S
C169 C165 1.387 . S
C169 C168 1.391 . S
C170 Tb160 2.825 . S
C170 C164 1.507 . S
C170 O183 1.238 . S
C170 O184 1.247 . S
O171 Tb160 2.347 . S
O171 C175 1.259 . S
O172 Eu161 2.418 . S
O172 C175 1.265 . S
O173 Eu161 2.384 . S
O173 C182 1.255 . S
O174 Tb160 2.366 . S
O174 C182 1.265 . S
C175 O171 1.259 . S
C175 O172 1.265 . S
O176 Eu161 2.479 . S
O176 C191 1.238 . S
O177 Eu161 2.471 . S
O177 C191 1.247 . S
O178 Eu161 2.347 . S
O178 C162 1.259 . S
O179 Tb160 2.418 . S
O179 C162 1.265 . S
O180 Tb160 2.384 . S
O180 C163 1.255 . S
O181 Eu161 2.366 . S
O181 C163 1.265 . S
C182 O173 1.255 . S
C182 O174 1.265 . S
O183 Tb160 2.479 . S
O183 C170 1.238 . S
O184 Tb160 2.471 . S
O184 C170 1.247 . S
C185 C188 1.380 . S
C185 C189 1.374 . S
C185 C191 1.507 . S
C186 C187 1.387 . S
C186 C190 1.391 . S
C187 C186 1.387 . S
C187 C188 1.384 . S
C187 H196 0.930 . S
C188 C185 1.380 . S
C188 C187 1.384 . S
C188 H197 0.931 . S
C189 C185 1.374 . S
C189 C190 1.390 . S
C189 H198 0.930 . S
C190 C186 1.391 . S
C190 C189 1.390 . S
C190 H199 0.930 . S
C191 Eu161 2.825 . S
C191 O176 1.238 . S
C191 O177 1.247 . S
C191 C185 1.507 . S
H192 C165 0.930 . S
H193 C166 0.931 . S
H194 C167 0.930 . S
H195 C168 0.930 . S
H196 C187 0.930 . S
H197 C188 0.931 . S
H198 C189 0.930 . S
H199 C190 0.930 . S
Tb200 C210 2.825 . S
Tb200 O211 2.347 . S
Tb200 O214 2.366 . S
Tb200 O219 2.418 . S
Tb200 O220 2.384 . S
Tb200 O223 2.479 . S
Tb200 O224 2.471 . S
Eu201 O212 2.418 . S
Eu201 O213 2.384 . S
Eu201 O216 2.479 . S
Eu201 O217 2.471 . S
Eu201 O218 2.347 . S
Eu201 O221 2.366 . S
Eu201 C231 2.825 . S
C202 O218 1.259 . S
C202 O219 1.265 . S
C203 O220 1.255 . S
C203 O221 1.265 . S
C204 C206 1.380 . S
C204 C207 1.374 . S
C204 C210 1.507 . S
C205 C206 1.384 . S
C205 C209 1.387 . S
C205 H232 0.930 . S
C206 C204 1.380 . S
C206 C205 1.384 . S
C206 H233 0.931 . S
C207 C204 1.374 . S
C207 C208 1.390 . S
C207 H234 0.930 . S
C208 C207 1.390 . S
C208 C209 1.391 . S
C208 H235 0.930 . S
C209 C205 1.387 . S
C209 C208 1.391 . S
C210 Tb200 2.825 . S
C210 C204 1.507 . S
C210 O223 1.238 . S
C210 O224 1.247 . S
O211 Tb200 2.347 . S
O211 C215 1.259 . S
O212 Eu201 2.418 . S
O212 C215 1.265 . S
O213 Eu201 2.384 . S
O213 C222 1.255 . S
O214 Tb200 2.366 . S
O214 C222 1.265 . S
C215 O211 1.259 . S
C215 O212 1.265 . S
O216 Eu201 2.479 . S
O216 C231 1.238 . S
O217 Eu201 2.471 . S
O217 C231 1.247 . S
O218 Eu201 2.347 . S
O218 C202 1.259 . S
O219 Tb200 2.418 . S
O219 C202 1.265 . S
O220 Tb200 2.384 . S
O220 C203 1.255 . S
O221 Eu201 2.366 . S
O221 C203 1.265 . S
C222 O213 1.255 . S
C222 O214 1.265 . S
O223 Tb200 2.479 . S
O223 C210 1.238 . S
O224 Tb200 2.471 . S
O224 C210 1.247 . S
C225 C228 1.380 . S
C225 C229 1.374 . S
C225 C231 1.507 . S
C226 C227 1.387 . S
C226 C230 1.391 . S
C227 C226 1.387 . S
C227 C228 1.384 . S
C227 H236 0.930 . S
C228 C225 1.380 . S
C228 C227 1.384 . S
C228 H237 0.931 . S
C229 C225 1.374 . S
C229 C230 1.390 . S
C229 H238 0.930 . S
C230 C226 1.391 . S
C230 C229 1.390 . S
C230 H239 0.930 . S
C231 Eu201 2.825 . S
C231 O216 1.238 . S
C231 O217 1.247 . S
C231 C225 1.507 . S
H232 C205 0.930 . S
H233 C206 0.931 . S
H234 C207 0.930 . S
H235 C208 0.930 . S
H236 C227 0.930 . S
H237 C228 0.931 . S
H238 C229 0.930 . S
H239 C230 0.930 . S
Tb240 C250 2.825 . S
Tb240 O251 2.347 . S
Tb240 O254 2.366 . S
Tb240 O259 2.418 . S
Tb240 O260 2.384 . S
Tb240 O263 2.479 . S
Tb240 O264 2.471 . S
Eu241 O252 2.418 . S
Eu241 O253 2.384 . S
Eu241 O256 2.479 . S
Eu241 O257 2.471 . S
Eu241 O258 2.347 . S
Eu241 O261 2.366 . S
Eu241 C271 2.825 . S
C242 O258 1.259 . S
C242 O259 1.265 . S
C243 O260 1.255 . S
C243 O261 1.265 . S
C244 C246 1.380 . S
C244 C247 1.374 . S
C244 C250 1.507 . S
C245 C246 1.384 . S
C245 C249 1.387 . S
C245 H272 0.930 . S
C246 C244 1.380 . S
C246 C245 1.384 . S
C246 H273 0.931 . S
C247 C244 1.374 . S
C247 C248 1.390 . S
C247 H274 0.930 . S
C248 C247 1.390 . S
C248 C249 1.391 . S
C248 H275 0.930 . S
C249 C245 1.387 . S
C249 C248 1.391 . S
C250 Tb240 2.825 . S
C250 C244 1.507 . S
C250 O263 1.238 . S
C250 O264 1.247 . S
O251 Tb240 2.347 . S
O251 C255 1.259 . S
O252 Eu241 2.418 . S
O252 C255 1.265 . S
O253 Eu241 2.384 . S
O253 C262 1.255 . S
O254 Tb240 2.366 . S
O254 C262 1.265 . S
C255 O251 1.259 . S
C255 O252 1.265 . S
O256 Eu241 2.479 . S
O256 C271 1.238 . S
O257 Eu241 2.471 . S
O257 C271 1.247 . S
O258 Eu241 2.347 . S
O258 C242 1.259 . S
O259 Tb240 2.418 . S
O259 C242 1.265 . S
O260 Tb240 2.384 . S
O260 C243 1.255 . S
O261 Eu241 2.366 . S
O261 C243 1.265 . S
C262 O253 1.255 . S
C262 O254 1.265 . S
O263 Tb240 2.479 . S
O263 C250 1.238 . S
O264 Tb240 2.471 . S
O264 C250 1.247 . S
C265 C268 1.380 . S
C265 C269 1.374 . S
C265 C271 1.507 . S
C266 C267 1.387 . S
C266 C270 1.391 . S
C267 C266 1.387 . S
C267 C268 1.384 . S
C267 H276 0.930 . S
C268 C265 1.380 . S
C268 C267 1.384 . S
C268 H277 0.931 . S
C269 C265 1.374 . S
C269 C270 1.390 . S
C269 H278 0.930 . S
C270 C266 1.391 . S
C270 C269 1.390 . S
C270 H279 0.930 . S
C271 Eu241 2.825 . S
C271 O256 1.238 . S
C271 O257 1.247 . S
C271 C265 1.507 . S
H272 C245 0.930 . S
H273 C246 0.931 . S
H274 C247 0.930 . S
H275 C248 0.930 . S
H276 C267 0.930 . S
H277 C268 0.931 . S
H278 C269 0.930 . S
H279 C270 0.930 . S
Tb280 C290 2.825 . S
Tb280 O291 2.347 . S
Tb280 O294 2.366 1_655 S
Tb280 O299 2.418 1_655 S
Tb280 O300 2.384 . S
Tb280 O303 2.479 . S
Tb280 O304 2.471 . S
Eu281 O292 2.418 1_455 S
Eu281 O293 2.384 . S
Eu281 O296 2.479 . S
Eu281 O297 2.471 . S
Eu281 O298 2.347 . S
Eu281 O301 2.366 1_455 S
Eu281 C311 2.825 . S
C282 O298 1.259 . S
C282 O299 1.265 . S
C283 O300 1.255 . S
C283 O301 1.265 . S
C284 C286 1.380 . S
C284 C287 1.374 . S
C284 C290 1.507 . S
C285 C286 1.384 . S
C285 C289 1.387 . S
C285 H312 0.930 . S
C286 C284 1.380 . S
C286 C285 1.384 . S
C286 H313 0.931 . S
C287 C284 1.374 . S
C287 C288 1.390 . S
C287 H314 0.930 . S
C288 C287 1.390 . S
C288 C289 1.391 . S
C288 H315 0.930 . S
C289 C285 1.387 . S
C289 C288 1.391 . S
C290 Tb280 2.825 . S
C290 C284 1.507 . S
C290 O303 1.238 . S
C290 O304 1.247 . S
O291 Tb280 2.347 . S
O291 C295 1.259 . S
O292 Eu281 2.418 1_655 S
O292 C295 1.265 . S
O293 Eu281 2.384 . S
O293 C302 1.255 . S
O294 Tb280 2.366 1_455 S
O294 C302 1.265 . S
C295 O291 1.259 . S
C295 O292 1.265 . S
O296 Eu281 2.479 . S
O296 C311 1.238 . S
O297 Eu281 2.471 . S
O297 C311 1.247 . S
O298 Eu281 2.347 . S
O298 C282 1.259 . S
O299 Tb280 2.418 1_455 S
O299 C282 1.265 . S
O300 Tb280 2.384 . S
O300 C283 1.255 . S
O301 Eu281 2.366 1_655 S
O301 C283 1.265 . S
C302 O293 1.255 . S
C302 O294 1.265 . S
O303 Tb280 2.479 . S
O303 C290 1.238 . S
O304 Tb280 2.471 . S
O304 C290 1.247 . S
C305 C308 1.380 . S
C305 C309 1.374 . S
C305 C311 1.507 . S
C306 C307 1.387 . S
C306 C310 1.391 . S
C307 C306 1.387 . S
C307 C308 1.384 . S
C307 H316 0.930 . S
C308 C305 1.380 . S
C308 C307 1.384 . S
C308 H317 0.931 . S
C309 C305 1.374 . S
C309 C310 1.390 . S
C309 H318 0.930 . S
C310 C306 1.391 . S
C310 C309 1.390 . S
C310 H319 0.930 . S
C311 Eu281 2.825 . S
C311 O296 1.238 . S
C311 O297 1.247 . S
C311 C305 1.507 . S
H312 C285 0.930 . S
H313 C286 0.931 . S
H314 C287 0.930 . S
H315 C288 0.930 . S
H316 C307 0.930 . S
H317 C308 0.931 . S
H318 C309 0.930 . S
H319 C310 0.930 . S
Tb320 C330 2.825 . S
Tb320 O331 2.347 1_554 S
Tb320 O334 2.366 1_554 S
Tb320 O339 2.418 . S
Tb320 O340 2.384 . S
Tb320 O343 2.479 . S
Tb320 O344 2.471 . S
Eu321 O332 2.418 . S
Eu321 O333 2.384 . S
Eu321 O336 2.479 . S
Eu321 O337 2.471 . S
Eu321 O338 2.347 1_556 S
Eu321 O341 2.366 1_556 S
Eu321 C351 2.825 . S
C322 O338 1.259 . S
C322 O339 1.265 . S
C323 O340 1.255 . S
C323 O341 1.265 . S
C324 C326 1.380 . S
C324 C327 1.374 1_554 S
C324 C330 1.507 . S
C325 C326 1.384 . S
C325 C329 1.387 . S
C325 H352 0.930 . S
C326 C324 1.380 . S
C326 C325 1.384 . S
C326 H353 0.931 . S
C327 C324 1.374 1_556 S
C327 C328 1.390 . S
C327 H354 0.930 . S
C328 C327 1.390 . S
C328 C329 1.391 1_556 S
C328 H355 0.930 . S
C329 C325 1.387 . S
C329 C328 1.391 1_554 S
C330 Tb320 2.825 . S
C330 C324 1.507 . S
C330 O343 1.238 . S
C330 O344 1.247 . S
O331 Tb320 2.347 1_556 S
O331 C335 1.259 . S
O332 Eu321 2.418 . S
O332 C335 1.265 . S
O333 Eu321 2.384 . S
O333 C342 1.255 . S
O334 Tb320 2.366 1_556 S
O334 C342 1.265 . S
C335 O331 1.259 . S
C335 O332 1.265 . S
O336 Eu321 2.479 . S
O336 C351 1.238 . S
O337 Eu321 2.471 . S
O337 C351 1.247 . S
O338 Eu321 2.347 1_554 S
O338 C322 1.259 . S
O339 Tb320 2.418 . S
O339 C322 1.265 . S
O340 Tb320 2.384 . S
O340 C323 1.255 . S
O341 Eu321 2.366 1_554 S
O341 C323 1.265 . S
C342 O333 1.255 . S
C342 O334 1.265 . S
O343 Tb320 2.479 . S
O343 C330 1.238 . S
O344 Tb320 2.471 . S
O344 C330 1.247 . S
C345 C348 1.380 . S
C345 C349 1.374 1_556 S
C345 C351 1.507 . S
C346 C347 1.387 . S
C346 C350 1.391 1_556 S
C347 C346 1.387 . S
C347 C348 1.384 . S
C347 H356 0.930 . S
C348 C345 1.380 . S
C348 C347 1.384 . S
C348 H357 0.931 . S
C349 C345 1.374 1_554 S
C349 C350 1.390 . S
C349 H358 0.930 . S
C350 C346 1.391 1_554 S
C350 C349 1.390 . S
C350 H359 0.930 . S
C351 Eu321 2.825 . S
C351 O336 1.238 . S
C351 O337 1.247 . S
C351 C345 1.507 . S
H352 C325 0.930 . S
H353 C326 0.931 . S
H354 C327 0.930 . S
H355 C328 0.930 . S
H356 C347 0.930 . S
H357 C348 0.931 . S
H358 C349 0.930 . S
H359 C350 0.930 . S
Tb360 C370 2.825 . S
Tb360 O371 2.347 1_565 S
Tb360 O374 2.366 1_565 S
Tb360 O379 2.418 . S
Tb360 O380 2.384 . S
Tb360 O383 2.479 . S
Tb360 O384 2.471 1_565 S
Eu361 O372 2.418 . S
Eu361 O373 2.384 . S
Eu361 O376 2.479 . S
Eu361 O377 2.471 1_545 S
Eu361 O378 2.347 1_545 S
Eu361 O381 2.366 1_545 S
Eu361 C391 2.825 . S
C362 O378 1.259 . S
C362 O379 1.265 . S
C363 O380 1.255 . S
C363 O381 1.265 . S
C364 C366 1.380 1_545 S
C364 C367 1.374 . S
C364 C370 1.507 1_545 S
C365 C366 1.384 . S
C365 C369 1.387 1_565 S
C365 H392 0.930 . S
C366 C364 1.380 1_565 S
C366 C365 1.384 . S
C366 H393 0.931 . S
C367 C364 1.374 . S
C367 C368 1.390 . S
C367 H394 0.930 . S
C368 C367 1.390 . S
C368 C369 1.391 . S
C368 H395 0.930 . S
C369 C365 1.387 1_545 S
C369 C368 1.391 . S
C370 Tb360 2.825 . S
C370 C364 1.507 1_565 S
C370 O383 1.238 . S
C370 O384 1.247 1_565 S
O371 Tb360 2.347 1_545 S
O371 C375 1.259 . S
O372 Eu361 2.418 . S
O372 C375 1.265 . S
O373 Eu361 2.384 . S
O373 C382 1.255 . S
O374 Tb360 2.366 1_545 S
O374 C382 1.265 . S
C375 O371 1.259 . S
C375 O372 1.265 . S
O376 Eu361 2.479 . S
O376 C391 1.238 . S
O377 Eu361 2.471 1_565 S
O377 C391 1.247 1_565 S
O378 Eu361 2.347 1_565 S
O378 C362 1.259 . S
O379 Tb360 2.418 . S
O379 C362 1.265 . S
O380 Tb360 2.384 . S
O380 C363 1.255 . S
O381 Eu361 2.366 1_565 S
O381 C363 1.265 . S
C382 O373 1.255 . S
C382 O374 1.265 . S
O383 Tb360 2.479 . S
O383 C370 1.238 . S
O384 Tb360 2.471 1_545 S
O384 C370 1.247 1_545 S
C385 C388 1.380 1_565 S
C385 C389 1.374 . S
C385 C391 1.507 1_565 S
C386 C387 1.387 1_565 S
C386 C390 1.391 . S
C387 C386 1.387 1_545 S
C387 C388 1.384 . S
C387 H396 0.930 . S
C388 C385 1.380 1_545 S
C388 C387 1.384 . S
C388 H397 0.931 . S
C389 C385 1.374 . S
C389 C390 1.390 . S
C389 H398 0.930 . S
C390 C386 1.391 . S
C390 C389 1.390 . S
C390 H399 0.930 . S
C391 Eu361 2.825 . S
C391 O376 1.238 . S
C391 O377 1.247 1_545 S
C391 C385 1.507 1_545 S
H392 C365 0.930 . S
H393 C366 0.931 . S
H394 C367 0.930 . S
H395 C368 0.930 . S
H396 C387 0.930 . S
H397 C388 0.931 . S
H398 C389 0.930 . S
H399 C390 0.930 . S
Tb400 C410 2.825 . S
Tb400 O411 2.347 . S
Tb400 O414 2.366 . S
Tb400 O419 2.418 . S
Tb400 O420 2.384 . S
Tb400 O423 2.479 . S
Tb400 O424 2.471 . S
Eu401 O412 2.418 . S
Eu401 O413 2.384 . S
Eu401 O416 2.479 . S
Eu401 O417 2.471 . S
Eu401 O418 2.347 . S
Eu401 O421 2.366 . S
Eu401 C431 2.825 . S
C402 O418 1.259 . S
C402 O419 1.265 . S
C403 O420 1.255 . S
C403 O421 1.265 . S
C404 C406 1.380 . S
C404 C407 1.374 . S
C404 C410 1.507 . S
C405 C406 1.384 . S
C405 C409 1.387 . S
C405 H432 0.930 . S
C406 C404 1.380 . S
C406 C405 1.384 . S
C406 H433 0.931 . S
C407 C404 1.374 . S
C407 C408 1.390 . S
C407 H434 0.930 . S
C408 C407 1.390 . S
C408 C409 1.391 . S
C408 H435 0.930 . S
C409 C405 1.387 . S
C409 C408 1.391 . S
C410 Tb400 2.825 . S
C410 C404 1.507 . S
C410 O423 1.238 . S
C410 O424 1.247 . S
O411 Tb400 2.347 . S
O411 C415 1.259 . S
O412 Eu401 2.418 . S
O412 C415 1.265 . S
O413 Eu401 2.384 . S
O413 C422 1.255 . S
O414 Tb400 2.366 . S
O414 C422 1.265 . S
C415 O411 1.259 . S
C415 O412 1.265 . S
O416 Eu401 2.479 . S
O416 C431 1.238 . S
O417 Eu401 2.471 . S
O417 C431 1.247 . S
O418 Eu401 2.347 . S
O418 C402 1.259 . S
O419 Tb400 2.418 . S
O419 C402 1.265 . S
O420 Tb400 2.384 . S
O420 C403 1.255 . S
O421 Eu401 2.366 . S
O421 C403 1.265 . S
C422 O413 1.255 . S
C422 O414 1.265 . S
O423 Tb400 2.479 . S
O423 C410 1.238 . S
O424 Tb400 2.471 . S
O424 C410 1.247 . S
C425 C428 1.380 . S
C425 C429 1.374 . S
C425 C431 1.507 . S
C426 C427 1.387 . S
C426 C430 1.391 . S
C427 C426 1.387 . S
C427 C428 1.384 . S
C427 H436 0.930 . S
C428 C425 1.380 . S
C428 C427 1.384 . S
C428 H437 0.931 . S
C429 C425 1.374 . S
C429 C430 1.390 . S
C429 H438 0.930 . S
C430 C426 1.391 . S
C430 C429 1.390 . S
C430 H439 0.930 . S
C431 Eu401 2.825 . S
C431 O416 1.238 . S
C431 O417 1.247 . S
C431 C425 1.507 . S
H432 C405 0.930 . S
H433 C406 0.931 . S
H434 C407 0.930 . S
H435 C408 0.930 . S
H436 C427 0.930 . S
H437 C428 0.931 . S
H438 C429 0.930 . S
H439 C430 0.930 . S
Tb440 C450 2.825 . S
Tb440 O451 2.347 1_455 S
Tb440 O454 2.366 1_455 S
Tb440 O459 2.418 . S
Tb440 O460 2.384 . S
Tb440 O463 2.479 . S
Tb440 O464 2.471 1_455 S
Eu441 O452 2.418 . S
Eu441 O453 2.384 . S
Eu441 O456 2.479 . S
Eu441 O457 2.471 1_655 S
Eu441 O458 2.347 1_655 S
Eu441 O461 2.366 1_655 S
Eu441 C471 2.825 . S
C442 O458 1.259 . S
C442 O459 1.265 . S
C443 O460 1.255 . S
C443 O461 1.265 . S
C444 C446 1.380 . S
C444 C447 1.374 1_455 S
C444 C450 1.507 . S
C445 C446 1.384 . S
C445 C449 1.387 1_455 S
C445 H472 0.930 . S
C446 C444 1.380 . S
C446 C445 1.384 . S
C446 H473 0.931 . S
C447 C444 1.374 1_655 S
C447 C448 1.390 . S
C447 H474 0.930 . S
C448 C447 1.390 . S
C448 C449 1.391 . S
C448 H475 0.930 . S
C449 C445 1.387 1_655 S
C449 C448 1.391 . S
C450 Tb440 2.825 . S
C450 C444 1.507 . S
C450 O463 1.238 . S
C450 O464 1.247 1_455 S
O451 Tb440 2.347 1_655 S
O451 C455 1.259 . S
O452 Eu441 2.418 . S
O452 C455 1.265 . S
O453 Eu441 2.384 . S
O453 C462 1.255 . S
O454 Tb440 2.366 1_655 S
O454 C462 1.265 . S
C455 O451 1.259 . S
C455 O452 1.265 . S
O456 Eu441 2.479 . S
O456 C471 1.238 . S
O457 Eu441 2.471 1_455 S
O457 C471 1.247 1_455 S
O458 Eu441 2.347 1_455 S
O458 C442 1.259 . S
O459 Tb440 2.418 . S
O459 C442 1.265 . S
O460 Tb440 2.384 . S
O460 C443 1.255 . S
O461 Eu441 2.366 1_455 S
O461 C443 1.265 . S
C462 O453 1.255 . S
C462 O454 1.265 . S
O463 Tb440 2.479 . S
O463 C450 1.238 . S
O464 Tb440 2.471 1_655 S
O464 C450 1.247 1_655 S
C465 C468 1.380 . S
C465 C469 1.374 1_655 S
C465 C471 1.507 . S
C466 C467 1.387 1_455 S
C466 C470 1.391 . S
C467 C466 1.387 1_655 S
C467 C468 1.384 . S
C467 H476 0.930 . S
C468 C465 1.380 . S
C468 C467 1.384 . S
C468 H477 0.931 . S
C469 C465 1.374 1_455 S
C469 C470 1.390 . S
C469 H478 0.930 . S
C470 C466 1.391 . S
C470 C469 1.390 . S
C470 H479 0.930 . S
C471 Eu441 2.825 . S
C471 O456 1.238 . S
C471 O457 1.247 1_655 S
C471 C465 1.507 . S
H472 C445 0.930 . S
H473 C446 0.931 . S
H474 C447 0.930 . S
H475 C448 0.930 . S
H476 C467 0.930 . S
H477 C468 0.931 . S
H478 C469 0.930 . S
H479 C470 0.930 . S
Tb480 C490 2.825 . S
Tb480 O491 2.347 . S
Tb480 O494 2.366 . S
Tb480 O499 2.418 . S
Tb480 O500 2.384 . S
Tb480 O503 2.479 . S
Tb480 O504 2.471 . S
Eu481 O492 2.418 . S
Eu481 O493 2.384 . S
Eu481 O496 2.479 . S
Eu481 O497 2.471 . S
Eu481 O498 2.347 . S
Eu481 O501 2.366 . S
Eu481 C511 2.825 . S
C482 O498 1.259 . S
C482 O499 1.265 . S
C483 O500 1.255 . S
C483 O501 1.265 . S
C484 C486 1.380 . S
C484 C487 1.374 . S
C484 C490 1.507 . S
C485 C486 1.384 . S
C485 C489 1.387 . S
C485 H512 0.930 . S
C486 C484 1.380 . S
C486 C485 1.384 . S
C486 H513 0.931 . S
C487 C484 1.374 . S
C487 C488 1.390 . S
C487 H514 0.930 . S
C488 C487 1.390 . S
C488 C489 1.391 . S
C488 H515 0.930 . S
C489 C485 1.387 . S
C489 C488 1.391 . S
C490 Tb480 2.825 . S
C490 C484 1.507 . S
C490 O503 1.238 . S
C490 O504 1.247 . S
O491 Tb480 2.347 . S
O491 C495 1.259 . S
O492 Eu481 2.418 . S
O492 C495 1.265 . S
O493 Eu481 2.384 . S
O493 C502 1.255 . S
O494 Tb480 2.366 . S
O494 C502 1.265 . S
C495 O491 1.259 . S
C495 O492 1.265 . S
O496 Eu481 2.479 . S
O496 C511 1.238 . S
O497 Eu481 2.471 . S
O497 C511 1.247 . S
O498 Eu481 2.347 . S
O498 C482 1.259 . S
O499 Tb480 2.418 . S
O499 C482 1.265 . S
O500 Tb480 2.384 . S
O500 C483 1.255 . S
O501 Eu481 2.366 . S
O501 C483 1.265 . S
C502 O493 1.255 . S
C502 O494 1.265 . S
O503 Tb480 2.479 . S
O503 C490 1.238 . S
O504 Tb480 2.471 . S
O504 C490 1.247 . S
C505 C508 1.380 . S
C505 C509 1.374 . S
C505 C511 1.507 . S
C506 C507 1.387 . S
C506 C510 1.391 . S
C507 C506 1.387 . S
C507 C508 1.384 . S
C507 H516 0.930 . S
C508 C505 1.380 . S
C508 C507 1.384 . S
C508 H517 0.931 . S
C509 C505 1.374 . S
C509 C510 1.390 . S
C509 H518 0.930 . S
C510 C506 1.391 . S
C510 C509 1.390 . S
C510 H519 0.930 . S
C511 Eu481 2.825 . S
C511 O496 1.238 . S
C511 O497 1.247 . S
C511 C505 1.507 . S
H512 C485 0.930 . S
H513 C486 0.931 . S
H514 C487 0.930 . S
H515 C488 0.930 . S
H516 C507 0.930 . S
H517 C508 0.931 . S
H518 C509 0.930 . S
H519 C510 0.930 . S
Tb520 C530 2.825 . S
Tb520 O531 2.347 1_554 S
Tb520 O534 2.366 1_554 S
Tb520 O539 2.418 . S
Tb520 O540 2.384 . S
Tb520 O543 2.479 . S
Tb520 O544 2.471 . S
Eu521 O532 2.418 . S
Eu521 O533 2.384 . S
Eu521 O536 2.479 . S
Eu521 O537 2.471 . S
Eu521 O538 2.347 1_556 S
Eu521 O541 2.366 1_556 S
Eu521 C551 2.825 . S
C522 O538 1.259 . S
C522 O539 1.265 . S
C523 O540 1.255 . S
C523 O541 1.265 . S
C524 C526 1.380 . S
C524 C527 1.374 1_554 S
C524 C530 1.507 . S
C525 C526 1.384 . S
C525 C529 1.387 . S
C525 H552 0.930 . S
C526 C524 1.380 . S
C526 C525 1.384 . S
C526 H553 0.931 . S
C527 C524 1.374 1_556 S
C527 C528 1.390 . S
C527 H554 0.930 . S
C528 C527 1.390 . S
C528 C529 1.391 1_556 S
C528 H555 0.930 . S
C529 C525 1.387 . S
C529 C528 1.391 1_554 S
C530 Tb520 2.825 . S
C530 C524 1.507 . S
C530 O543 1.238 . S
C530 O544 1.247 . S
O531 Tb520 2.347 1_556 S
O531 C535 1.259 . S
O532 Eu521 2.418 . S
O532 C535 1.265 . S
O533 Eu521 2.384 . S
O533 C542 1.255 . S
O534 Tb520 2.366 1_556 S
O534 C542 1.265 . S
C535 O531 1.259 . S
C535 O532 1.265 . S
O536 Eu521 2.479 . S
O536 C551 1.238 . S
O537 Eu521 2.471 . S
O537 C551 1.247 . S
O538 Eu521 2.347 1_554 S
O538 C522 1.259 . S
O539 Tb520 2.418 . S
O539 C522 1.265 . S
O540 Tb520 2.384 . S
O540 C523 1.255 . S
O541 Eu521 2.366 1_554 S
O541 C523 1.265 . S
C542 O533 1.255 . S
C542 O534 1.265 . S
O543 Tb520 2.479 . S
O543 C530 1.238 . S
O544 Tb520 2.471 . S
O544 C530 1.247 . S
C545 C548 1.380 . S
C545 C549 1.374 1_556 S
C545 C551 1.507 . S
C546 C547 1.387 . S
C546 C550 1.391 1_556 S
C547 C546 1.387 . S
C547 C548 1.384 . S
C547 H556 0.930 . S
C548 C545 1.380 . S
C548 C547 1.384 . S
C548 H557 0.931 . S
C549 C545 1.374 1_554 S
C549 C550 1.390 . S
C549 H558 0.930 . S
C550 C546 1.391 1_554 S
C550 C549 1.390 . S
C550 H559 0.930 . S
C551 Eu521 2.825 . S
C551 O536 1.238 . S
C551 O537 1.247 . S
C551 C545 1.507 . S
H552 C525 0.930 . S
H553 C526 0.931 . S
H554 C527 0.930 . S
H555 C528 0.930 . S
H556 C547 0.930 . S
H557 C548 0.931 . S
H558 C549 0.930 . S
H559 C550 0.930 . S
Tb560 C570 2.825 . S
Tb560 O571 2.347 1_565 S
Tb560 O574 2.366 . S
Tb560 O579 2.418 . S
Tb560 O580 2.384 1_565 S
Tb560 O583 2.479 . S
Tb560 O584 2.471 . S
Eu561 O572 2.418 . S
Eu561 O573 2.384 1_545 S
Eu561 O576 2.479 . S
Eu561 O577 2.471 . S
Eu561 O578 2.347 1_545 S
Eu561 O581 2.366 . S
Eu561 C591 2.825 . S
C562 O578 1.259 . S
C562 O579 1.265 . S
C563 O580 1.255 . S
C563 O581 1.265 . S
C564 C566 1.380 . S
C564 C567 1.374 . S
C564 C570 1.507 . S
C565 C566 1.384 . S
C565 C569 1.387 . S
C565 H592 0.930 . S
C566 C564 1.380 . S
C566 C565 1.384 . S
C566 H593 0.931 . S
C567 C564 1.374 . S
C567 C568 1.390 . S
C567 H594 0.930 . S
C568 C567 1.390 . S
C568 C569 1.391 . S
C568 H595 0.930 . S
C569 C565 1.387 . S
C569 C568 1.391 . S
C570 Tb560 2.825 . S
C570 C564 1.507 . S
C570 O583 1.238 . S
C570 O584 1.247 . S
O571 Tb560 2.347 1_545 S
O571 C575 1.259 . S
O572 Eu561 2.418 . S
O572 C575 1.265 . S
O573 Eu561 2.384 1_565 S
O573 C582 1.255 . S
O574 Tb560 2.366 . S
O574 C582 1.265 . S
C575 O571 1.259 . S
C575 O572 1.265 . S
O576 Eu561 2.479 . S
O576 C591 1.238 . S
O577 Eu561 2.471 . S
O577 C591 1.247 . S
O578 Eu561 2.347 1_565 S
O578 C562 1.259 . S
O579 Tb560 2.418 . S
O579 C562 1.265 . S
O580 Tb560 2.384 1_545 S
O580 C563 1.255 . S
O581 Eu561 2.366 . S
O581 C563 1.265 . S
C582 O573 1.255 . S
C582 O574 1.265 . S
O583 Tb560 2.479 . S
O583 C570 1.238 . S
O584 Tb560 2.471 . S
O584 C570 1.247 . S
C585 C588 1.380 . S
C585 C589 1.374 . S
C585 C591 1.507 . S
C586 C587 1.387 . S
C586 C590 1.391 . S
C587 C586 1.387 . S
C587 C588 1.384 . S
C587 H596 0.930 . S
C588 C585 1.380 . S
C588 C587 1.384 . S
C588 H597 0.931 . S
C589 C585 1.374 . S
C589 C590 1.390 . S
C589 H598 0.930 . S
C590 C586 1.391 . S
C590 C589 1.390 . S
C590 H599 0.930 . S
C591 Eu561 2.825 . S
C591 O576 1.238 . S
C591 O577 1.247 . S
C591 C585 1.507 . S
H592 C565 0.930 . S
H593 C566 0.931 . S
H594 C567 0.930 . S
H595 C568 0.930 . S
H596 C587 0.930 . S
H597 C588 0.931 . S
H598 C589 0.930 . S
H599 C590 0.930 . S
Tb600 C610 2.825 . S
Tb600 O611 2.347 1_554 S
Tb600 O614 2.366 1_554 S
Tb600 O619 2.418 . S
Tb600 O620 2.384 . S
Tb600 O623 2.479 . S
Tb600 O624 2.471 . S
Eu601 O612 2.418 . S
Eu601 O613 2.384 . S
Eu601 O616 2.479 . S
Eu601 O617 2.471 . S
Eu601 O618 2.347 1_556 S
Eu601 O621 2.366 1_556 S
Eu601 C631 2.825 . S
C602 O618 1.259 . S
C602 O619 1.265 . S
C603 O620 1.255 . S
C603 O621 1.265 . S
C604 C606 1.380 . S
C604 C607 1.374 . S
C604 C610 1.507 . S
C605 C606 1.384 . S
C605 C609 1.387 . S
C605 H632 0.930 . S
C606 C604 1.380 . S
C606 C605 1.384 . S
C606 H633 0.931 . S
C607 C604 1.374 . S
C607 C608 1.390 . S
C607 H634 0.930 1_554 S
C608 C607 1.390 . S
C608 C609 1.391 . S
C608 H635 0.930 1_554 S
C609 C605 1.387 . S
C609 C608 1.391 . S
C610 Tb600 2.825 . S
C610 C604 1.507 . S
C610 O623 1.238 . S
C610 O624 1.247 . S
O611 Tb600 2.347 1_556 S
O611 C615 1.259 . S
O612 Eu601 2.418 . S
O612 C615 1.265 . S
O613 Eu601 2.384 . S
O613 C622 1.255 . S
O614 Tb600 2.366 1_556 S
O614 C622 1.265 . S
C615 O611 1.259 . S
C615 O612 1.265 . S
O616 Eu601 2.479 . S
O616 C631 1.238 . S
O617 Eu601 2.471 . S
O617 C631 1.247 . S
O618 Eu601 2.347 1_554 S
O618 C602 1.259 . S
O619 Tb600 2.418 . S
O619 C602 1.265 . S
O620 Tb600 2.384 . S
O620 C603 1.255 . S
O621 Eu601 2.366 1_554 S
O621 C603 1.265 . S
C622 O613 1.255 . S
C622 O614 1.265 . S
O623 Tb600 2.479 . S
O623 C610 1.238 . S
O624 Tb600 2.471 . S
O624 C610 1.247 . S
C625 C628 1.380 . S
C625 C629 1.374 . S
C625 C631 1.507 . S
C626 C627 1.387 . S
C626 C630 1.391 . S
C627 C626 1.387 . S
C627 C628 1.384 . S
C627 H636 0.930 . S
C628 C625 1.380 . S
C628 C627 1.384 . S
C628 H637 0.931 . S
C629 C625 1.374 . S
C629 C630 1.390 . S
C629 H638 0.930 1_556 S
C630 C626 1.391 . S
C630 C629 1.390 . S
C630 H639 0.930 1_556 S
C631 Eu601 2.825 . S
C631 O616 1.238 . S
C631 O617 1.247 . S
C631 C625 1.507 . S
H632 C605 0.930 . S
H633 C606 0.931 . S
H634 C607 0.930 1_556 S
H635 C608 0.930 1_556 S
H636 C627 0.930 . S
H637 C628 0.931 . S
H638 C629 0.930 1_554 S
H639 C630 0.930 1_554 S
H640 C648 0.929 . S
H641 C650 0.930 . S
H642 C652 0.930 . S
H643 C655 0.929 . S
H644 C658 0.930 . S
H645 C660 0.960 . S
H646 C660 0.960 1_655 S
H647 C660 0.960 . S
C648 H640 0.929 . S
C648 C649 1.377 . S
C648 C650 1.384 . S
C649 C648 1.377 . S
C649 C655 1.390 1_655 S
C650 H641 0.930 . S
C650 C648 1.384 . S
C650 C651 1.372 . S
C651 C650 1.372 . S
C651 C652 1.400 1_655 S
C651 C656 1.490 . S
C652 H642 0.930 . S
C652 C651 1.400 1_455 S
C652 C655 1.386 . S
H653 C669 0.930 . S
H654 C670 0.931 . S
C655 H643 0.929 . S
C655 C649 1.390 1_455 S
C655 C652 1.386 . S
C656 C651 1.490 . S
C656 C658 1.395 . S
C656 C659 1.403 . S
H657 C663 0.945 . S
C658 H644 0.930 . S
C658 C656 1.395 . S
C658 C661 1.403 . S
C659 C656 1.403 . S
C659 C660 1.524 1_655 S
C659 C663 1.387 1_655 S
C660 H645 0.960 . S
C660 H646 0.960 1_455 S
C660 H647 0.960 . S
C660 C659 1.524 1_455 S
C661 C658 1.403 . S
C661 C662 1.392 . S
C661 C665 1.495 . S
C662 C661 1.392 . S
C662 C663 1.384 1_655 S
C662 C664 1.499 . S
C663 H657 0.945 . S
C663 C659 1.387 1_455 S
C663 C662 1.384 1_455 S
C664 C662 1.499 . S
C664 C666 1.404 . S
C664 C670 1.339 1_655 S
C665 C661 1.495 . S
C665 H671 0.959 . S
C665 H672 0.961 . S
C665 H673 0.960 . S
C666 C664 1.404 . S
C666 C667 1.394 . S
C666 H674 0.930 . S
C667 C666 1.394 . S
C667 C668 1.383 1_655 S
C667 H675 0.929 . S
C668 C667 1.383 1_455 S
C668 C669 1.377 . S
C669 H653 0.930 . S
C669 C668 1.377 . S
C669 C670 1.379 . S
C670 H654 0.931 . S
C670 C664 1.339 1_455 S
C670 C669 1.379 . S
H671 C665 0.959 . S
H672 C665 0.961 . S
H673 C665 0.960 . S
H674 C666 0.930 . S
H675 C667 0.929 . S
H676 C684 0.929 . S
H677 C686 0.930 . S
H678 C688 0.930 . S
H679 C691 0.929 . S
H680 C694 0.930 . S
H681 C696 0.960 . S
H682 C696 0.960 . S
H683 C696 0.960 . S
C684 H676 0.929 . S
C684 C685 1.377 . S
C684 C686 1.384 . S
C685 C684 1.377 . S
C685 C691 1.390 . S
C686 H677 0.930 . S
C686 C684 1.384 . S
C686 C687 1.372 . S
C687 C686 1.372 . S
C687 C688 1.400 . S
C687 C692 1.490 . S
C688 H678 0.930 . S
C688 C687 1.400 . S
C688 C691 1.386 . S
H689 C705 0.930 . S
H690 C706 0.931 . S
C691 H679 0.929 . S
C691 C685 1.390 . S
C691 C688 1.386 . S
C692 C687 1.490 . S
C692 C694 1.395 . S
C692 C695 1.403 . S
H693 C699 0.930 . S
C694 H680 0.930 . S
C694 C692 1.395 . S
C694 C697 1.403 . S
C695 C692 1.403 . S
C695 C696 1.524 . S
C695 C699 1.400 . S
C696 H681 0.960 . S
C696 H682 0.960 . S
C696 H683 0.960 . S
C696 C695 1.524 . S
C697 C694 1.403 . S
C697 C698 1.392 . S
C697 C701 1.495 . S
C698 C697 1.392 . S
C698 C699 1.385 . S
C698 C700 1.478 . S
C699 H693 0.930 . S
C699 C695 1.400 . S
C699 C698 1.385 . S
C700 C698 1.478 . S
C700 C702 1.381 . S
C700 C706 1.383 . S
C701 C697 1.495 . S
C701 H707 0.959 . S
C701 H708 0.961 . S
C701 H709 0.960 . S
C702 C700 1.381 . S
C702 C703 1.394 . S
C702 H710 0.930 . S
C703 C702 1.394 . S
C703 C704 1.383 . S
C703 H711 0.929 . S
C704 C703 1.383 . S
C704 C705 1.377 . S
C705 H689 0.930 . S
C705 C704 1.377 . S
C705 C706 1.379 . S
C706 H690 0.931 . S
C706 C700 1.383 . S
C706 C705 1.379 . S
H707 C701 0.959 . S
H708 C701 0.961 . S
H709 C701 0.960 . S
H710 C702 0.930 . S
H711 C703 0.929 . S
H712 C720 0.929 . S
H713 C722 0.930 . S
H714 C724 0.930 . S
H715 C727 0.929 . S
H716 C730 0.930 . S
H717 C732 0.960 . S
H718 C732 0.960 . S
H719 C732 0.960 . S
C720 H712 0.929 . S
C720 C721 1.377 . S
C720 C722 1.384 . S
C721 C720 1.377 . S
C721 C727 1.390 . S
C722 H713 0.930 . S
C722 C720 1.384 . S
C722 C723 1.372 . S
C723 C722 1.372 . S
C723 C724 1.400 . S
C723 C728 1.490 . S
C724 H714 0.930 . S
C724 C723 1.400 . S
C724 C727 1.386 . S
H725 C741 0.930 . S
H726 C742 0.931 . S
C727 H715 0.929 . S
C727 C721 1.390 . S
C727 C724 1.386 . S
C728 C723 1.490 . S
C728 C730 1.395 . S
C728 C731 1.403 . S
H729 C735 0.930 . S
C730 H716 0.930 . S
C730 C728 1.395 . S
C730 C733 1.403 . S
C731 C728 1.403 . S
C731 C732 1.524 . S
C731 C735 1.400 . S
C732 H717 0.960 . S
C732 H718 0.960 . S
C732 H719 0.960 . S
C732 C731 1.524 . S
C733 C730 1.403 . S
C733 C734 1.392 . S
C733 C737 1.495 . S
C734 C733 1.392 . S
C734 C735 1.385 . S
C734 C736 1.478 . S
C735 H729 0.930 . S
C735 C731 1.400 . S
C735 C734 1.385 . S
C736 C734 1.478 . S
C736 C738 1.381 . S
C736 C742 1.383 . S
C737 C733 1.495 . S
C737 H743 0.959 . S
C737 H744 0.961 . S
C737 H745 0.960 . S
C738 C736 1.381 . S
C738 C739 1.394 . S
C738 H746 0.930 . S
C739 C738 1.394 . S
C739 C740 1.383 . S
C739 H747 0.929 . S
C740 C739 1.383 . S
C740 C741 1.377 . S
C741 H725 0.930 . S
C741 C740 1.377 . S
C741 C742 1.379 . S
C742 H726 0.931 . S
C742 C736 1.383 . S
C742 C741 1.379 . S
H743 C737 0.959 . S
H744 C737 0.961 . S
H745 C737 0.960 . S
H746 C738 0.930 . S
H747 C739 0.929 . S
H748 C756 0.929 . S
H749 C758 0.927 . S
H750 C760 0.930 . S
H751 C763 0.929 . S
H752 C766 0.930 . S
H753 C768 0.960 . S
H754 C768 0.960 . S
H755 C768 0.960 . S
C756 H748 0.929 . S
C756 C757 1.377 . S
C756 C758 1.384 . S
C757 C756 1.377 . S
C757 C763 1.390 . S
C758 H749 0.927 . S
C758 C756 1.384 . S
C758 C759 1.372 . S
C759 C758 1.372 . S
C759 C760 1.400 . S
C759 C764 1.490 . S
C760 H750 0.930 . S
C760 C759 1.400 . S
C760 C763 1.386 . S
H761 C777 0.930 1_545 S
H762 C778 0.931 . S
C763 H751 0.929 . S
C763 C757 1.390 . S
C763 C760 1.386 . S
C764 C759 1.490 . S
C764 C766 1.395 . S
C764 C767 1.403 1_545 S
H765 C771 0.930 . S
C766 H752 0.930 . S
C766 C764 1.395 . S
C766 C769 1.403 . S
C767 C764 1.403 1_565 S
C767 C768 1.524 . S
C767 C771 1.400 . S
C768 H753 0.960 . S
C768 H754 0.960 . S
C768 H755 0.960 . S
C768 C767 1.524 . S
C769 C766 1.403 . S
C769 C770 1.396 . S
C769 C773 1.495 . S
C770 C769 1.396 . S
C770 C771 1.385 1_545 S
C770 C772 1.475 1_545 S
C771 H765 0.930 . S
C771 C767 1.400 . S
C771 C770 1.385 1_565 S
C772 C770 1.475 1_565 S
C772 C774 1.381 . S
C772 C778 1.383 1_565 S
C773 C769 1.495 . S
C773 H779 0.959 . S
C773 H780 0.961 . S
C773 H781 0.960 . S
C774 C772 1.381 . S
C774 C775 1.394 . S
C774 H782 0.930 . S
C775 C774 1.394 . S
C775 C776 1.383 . S
C775 H783 0.929 . S
C776 C775 1.383 . S
C776 C777 1.377 . S
C777 H761 0.930 1_565 S
C777 C776 1.377 . S
C777 C778 1.379 1_565 S
C778 H762 0.931 . S
C778 C772 1.383 1_545 S
C778 C777 1.379 1_545 S
H779 C773 0.959 . S
H780 C773 0.961 . S
H781 C773 0.960 . S
H782 C774 0.930 . S
H783 C775 0.929 . S
H784 C792 0.929 1_545 S
H785 C794 0.930 . S
H786 C796 0.930 . S
H787 C799 0.929 . S
H788 C802 0.917 . S
H789 C804 0.960 . S
H790 C804 0.989 . S
H791 C804 0.960 . S
C792 H784 0.929 1_565 S
C792 C793 1.377 . S
C792 C794 1.384 1_565 S
C793 C792 1.377 . S
C793 C799 1.390 . S
C794 H785 0.930 . S
C794 C792 1.384 1_545 S
C794 C795 1.372 1_545 S
C795 C794 1.372 1_565 S
C795 C796 1.400 . S
C795 C800 1.490 . S
C796 H786 0.930 . S
C796 C795 1.400 . S
C796 C799 1.386 . S
H797 C813 0.930 . S
H798 C814 0.931 . S
C799 H787 0.929 . S
C799 C793 1.390 . S
C799 C796 1.386 . S
C800 C795 1.490 . S
C800 C802 1.395 . S
C800 C803 1.403 . S
H801 C807 0.930 . S
C802 H788 0.917 . S
C802 C800 1.395 . S
C802 C805 1.403 1_565 S
C803 C800 1.403 . S
C803 C804 1.524 . S
C803 C807 1.400 . S
C804 H789 0.960 . S
C804 H790 0.989 . S
C804 H791 0.960 . S
C804 C803 1.524 . S
C805 C802 1.403 1_545 S
C805 C806 1.392 . S
C805 C809 1.495 . S
C806 C805 1.392 . S
C806 C807 1.385 1_545 S
C806 C808 1.478 . S
C807 H801 0.930 . S
C807 C803 1.400 . S
C807 C806 1.385 1_565 S
C808 C806 1.478 . S
C808 C810 1.381 . S
C808 C814 1.383 1_545 S
C809 C805 1.495 . S
C809 H815 0.959 . S
C809 H816 0.938 1_545 S
C809 H817 0.960 . S
C810 C808 1.381 . S
C810 C811 1.394 . S
C810 H818 0.930 . S
C811 C810 1.394 . S
C811 C812 1.383 . S
C811 H819 0.929 . S
C812 C811 1.383 . S
C812 C813 1.377 1_545 S
C813 H797 0.930 . S
C813 C812 1.377 1_565 S
C813 C814 1.379 . S
C814 H798 0.931 . S
C814 C808 1.383 1_565 S
C814 C813 1.379 . S
H815 C809 0.959 . S
H816 C809 0.938 1_565 S
H817 C809 0.960 . S
H818 C810 0.930 . S
H819 C811 0.929 . S
H820 C828 0.917 1_655 S
H821 C830 0.930 . S
H822 C832 0.930 . S
H823 C835 0.929 . S
H824 C838 0.930 . S
H825 C840 0.960 . S
H826 C840 0.960 . S
H827 C840 0.960 . S
C828 H820 0.917 1_455 S
C828 C829 1.410 . S
C828 C830 1.365 1_455 S
C829 C828 1.410 . S
C829 C835 1.390 . S
C830 H821 0.930 . S
C830 C828 1.365 1_655 S
C830 C831 1.372 1_655 S
C831 C830 1.372 1_455 S
C831 C832 1.400 . S
C831 C836 1.490 . S
C832 H822 0.930 . S
C832 C831 1.400 . S
C832 C835 1.386 . S
H833 C849 0.930 . S
H834 C850 0.931 . S
C835 H823 0.929 . S
C835 C829 1.390 . S
C835 C832 1.386 . S
C836 C831 1.490 . S
C836 C838 1.395 1_455 S
C836 C839 1.403 . S
H837 C843 0.930 . S
C838 H824 0.930 . S
C838 C836 1.395 1_655 S
C838 C841 1.403 . S
C839 C836 1.403 . S
C839 C840 1.524 . S
C839 C843 1.400 . S
C840 H825 0.960 . S
C840 H826 0.960 . S
C840 H827 0.960 . S
C840 C839 1.524 . S
C841 C838 1.403 . S
C841 C842 1.392 . S
C841 C845 1.495 . S
C842 C841 1.392 . S
C842 C843 1.385 1_655 S
C842 C844 1.478 . S
C843 H837 0.930 . S
C843 C839 1.400 . S
C843 C842 1.385 1_455 S
C844 C842 1.478 . S
C844 C846 1.381 . S
C844 C850 1.383 1_655 S
C845 C841 1.495 . S
C845 H851 0.959 . S
C845 H852 0.961 . S
C845 H853 0.960 . S
C846 C844 1.381 . S
C846 C847 1.394 . S
C846 H854 0.930 . S
C847 C846 1.394 . S
C847 C848 1.383 . S
C847 H855 0.929 . S
C848 C847 1.383 . S
C848 C849 1.377 1_655 S
C849 H833 0.930 . S
C849 C848 1.377 1_455 S
C849 C850 1.379 . S
C850 H834 0.931 . S
C850 C844 1.383 1_455 S
C850 C849 1.379 . S
H851 C845 0.959 . S
H852 C845 0.961 . S
H853 C845 0.960 . S
H854 C846 0.930 . S
H855 C847 0.929 . S
H856 C864 0.929 . S
H857 C866 0.930 . S
H858 C868 0.930 . S
H859 C871 0.929 . S
H860 C874 0.930 . S
H861 C876 0.960 . S
H862 C876 0.960 . S
H863 C876 0.960 . S
C864 H856 0.929 . S
C864 C865 1.377 . S
C864 C866 1.384 . S
C865 C864 1.377 . S
C865 C871 1.390 . S
C866 H857 0.930 . S
C866 C864 1.384 . S
C866 C867 1.372 . S
C867 C866 1.372 . S
C867 C868 1.400 . S
C867 C872 1.490 . S
C868 H858 0.930 . S
C868 C867 1.400 . S
C868 C871 1.386 . S
H869 C885 0.930 . S
H870 C886 0.931 . S
C871 H859 0.929 . S
C871 C865 1.390 . S
C871 C868 1.386 . S
C872 C867 1.490 . S
C872 C874 1.395 . S
C872 C875 1.403 . S
H873 C879 0.930 . S
C874 H860 0.930 . S
C874 C872 1.395 . S
C874 C877 1.403 . S
C875 C872 1.403 . S
C875 C876 1.524 . S
C875 C879 1.400 . S
C876 H861 0.960 . S
C876 H862 0.960 . S
C876 H863 0.960 . S
C876 C875 1.524 . S
C877 C874 1.403 . S
C877 C878 1.392 . S
C877 C881 1.495 . S
C878 C877 1.392 . S
C878 C879 1.385 . S
C878 C880 1.478 . S
C879 H873 0.930 . S
C879 C875 1.400 . S
C879 C878 1.385 . S
C880 C878 1.478 . S
C880 C882 1.381 . S
C880 C886 1.383 . S
C881 C877 1.495 . S
C881 H887 0.959 . S
C881 H888 0.961 . S
C881 H889 0.960 . S
C882 C880 1.381 . S
C882 C883 1.394 . S
C882 H890 0.930 . S
C883 C882 1.394 . S
C883 C884 1.383 . S
C883 H891 0.929 . S
C884 C883 1.383 . S
C884 C885 1.377 . S
C885 H869 0.930 . S
C885 C884 1.377 . S
C885 C886 1.379 . S
C886 H870 0.931 . S
C886 C880 1.383 . S
C886 C885 1.379 . S
H887 C881 0.959 . S
H888 C881 0.961 . S
H889 C881 0.960 . S
H890 C882 0.930 . S
H891 C883 0.929 . S
H892 C900 0.929 . S
H893 C902 0.930 . S
H894 C904 0.930 . S
H895 C907 0.929 . S
H896 C910 0.930 . S
H897 C912 0.960 . S
H898 C912 0.960 . S
H899 C912 0.960 . S
C900 H892 0.929 . S
C900 C901 1.377 . S
C900 C902 1.384 . S
C901 C900 1.377 . S
C901 C907 1.390 . S
C902 H893 0.930 . S
C902 C900 1.384 . S
C902 C903 1.372 . S
C903 C902 1.372 . S
C903 C904 1.400 . S
C903 C908 1.490 . S
C904 H894 0.930 . S
C904 C903 1.400 . S
C904 C907 1.386 . S
H905 C921 0.930 . S
H906 C922 0.931 . S
C907 H895 0.929 . S
C907 C901 1.390 . S
C907 C904 1.386 . S
C908 C903 1.490 . S
C908 C910 1.395 . S
C908 C911 1.403 . S
H909 C915 0.930 . S
C910 H896 0.930 . S
C910 C908 1.395 . S
C910 C913 1.403 . S
C911 C908 1.403 . S
C911 C912 1.524 . S
C911 C915 1.400 . S
C912 H897 0.960 . S
C912 H898 0.960 . S
C912 H899 0.960 . S
C912 C911 1.524 . S
C913 C910 1.403 . S
C913 C914 1.392 . S
C913 C917 1.495 . S
C914 C913 1.392 . S
C914 C915 1.385 . S
C914 C916 1.478 . S
C915 H909 0.930 . S
C915 C911 1.400 . S
C915 C914 1.385 . S
C916 C914 1.478 . S
C916 C918 1.381 . S
C916 C922 1.383 . S
C917 C913 1.495 . S
C917 H923 0.959 . S
C917 H924 0.961 . S
C917 H925 0.960 . S
C918 C916 1.381 . S
C918 C919 1.394 . S
C918 H926 0.930 . S
C919 C918 1.394 . S
C919 C920 1.383 . S
C919 H927 0.929 . S
C920 C919 1.383 . S
C920 C921 1.377 . S
C921 H905 0.930 . S
C921 C920 1.377 . S
C921 C922 1.379 . S
C922 H906 0.931 . S
C922 C916 1.383 . S
C922 C921 1.379 . S
H923 C917 0.959 . S
H924 C917 0.961 . S
H925 C917 0.960 . S
H926 C918 0.930 . S
H927 C919 0.929 . S
H928 C936 0.929 . S
H929 C938 0.930 . S
H930 C940 0.930 . S
H931 C943 0.929 . S
H932 C946 0.930 . S
H933 C948 0.960 . S
H934 C948 0.960 . S
H935 C948 0.960 . S
C936 H928 0.929 . S
C936 C937 1.377 . S
C936 C938 1.384 . S
C937 C936 1.377 . S
C937 C943 1.390 . S
C938 H929 0.930 . S
C938 C936 1.384 . S
C938 C939 1.372 . S
C939 C938 1.372 . S
C939 C940 1.400 . S
C939 C944 1.490 . S
C940 H930 0.930 . S
C940 C939 1.400 . S
C940 C943 1.386 . S
H941 C957 0.930 . S
H942 C958 0.931 . S
C943 H931 0.929 . S
C943 C937 1.390 . S
C943 C940 1.386 . S
C944 C939 1.490 . S
C944 C946 1.395 . S
C944 C947 1.403 . S
H945 C951 0.930 . S
C946 H932 0.930 . S
C946 C944 1.395 . S
C946 C949 1.403 . S
C947 C944 1.403 . S
C947 C948 1.524 . S
C947 C951 1.400 . S
C948 H933 0.960 . S
C948 H934 0.960 . S
C948 H935 0.960 . S
C948 C947 1.524 . S
C949 C946 1.403 . S
C949 C950 1.392 . S
C949 C953 1.495 . S
C950 C949 1.392 . S
C950 C951 1.385 . S
C950 C952 1.478 . S
C951 H945 0.930 . S
C951 C947 1.400 . S
C951 C950 1.385 . S
C952 C950 1.478 . S
C952 C954 1.381 . S
C952 C958 1.383 . S
C953 C949 1.495 . S
C953 H959 0.959 . S
C953 H960 0.961 . S
C953 H961 0.960 . S
C954 C952 1.381 . S
C954 C955 1.394 . S
C954 H962 0.930 . S
C955 C954 1.394 . S
C955 C956 1.383 . S
C955 H963 0.929 . S
C956 C955 1.383 . S
C956 C957 1.377 . S
C957 H941 0.930 . S
C957 C956 1.377 . S
C957 C958 1.379 . S
C958 H942 0.931 . S
C958 C952 1.383 . S
C958 C957 1.379 . S
H959 C953 0.959 . S
H960 C953 0.961 . S
H961 C953 0.960 . S
H962 C954 0.930 . S
H963 C955 0.929 . S
H964 C972 0.929 . S
H965 C974 0.930 . S
H966 C976 0.930 . S
H967 C979 0.929 . S
H968 C982 0.930 . S
H969 C984 0.960 . S
H970 C984 0.960 . S
H971 C984 0.960 . S
C972 H964 0.929 . S
C972 C973 1.377 . S
C972 C974 1.384 . S
C973 C972 1.377 . S
C973 C979 1.390 . S
C974 H965 0.930 . S
C974 C972 1.384 . S
C974 C975 1.372 . S
C975 C974 1.372 . S
C975 C976 1.400 . S
C975 C980 1.490 . S
C976 H966 0.930 . S
C976 C975 1.400 . S
C976 C979 1.386 . S
H977 C993 0.930 . S
H978 C994 0.931 . S
C979 H967 0.929 . S
C979 C973 1.390 . S
C979 C976 1.386 . S
C980 C975 1.490 . S
C980 C982 1.395 . S
C980 C983 1.403 . S
H981 C987 0.930 . S
C982 H968 0.930 . S
C982 C980 1.395 . S
C982 C985 1.403 . S
C983 C980 1.403 . S
C983 C984 1.524 . S
C983 C987 1.400 . S
C984 H969 0.960 . S
C984 H970 0.960 . S
C984 H971 0.960 . S
C984 C983 1.524 . S
C985 C982 1.403 . S
C985 C986 1.392 . S
C985 C989 1.495 . S
C986 C985 1.392 . S
C986 C987 1.385 . S
C986 C988 1.478 . S
C987 H981 0.930 . S
C987 C983 1.400 . S
C987 C986 1.385 . S
C988 C986 1.478 . S
C988 C990 1.381 . S
C988 C994 1.383 . S
C989 C985 1.495 . S
C989 H995 0.959 . S
C989 H996 0.961 . S
C989 H997 0.960 . S
C990 C988 1.381 . S
C990 C991 1.394 . S
C990 H998 0.930 . S
C991 C990 1.394 . S
C991 C992 1.383 . S
C991 H999 0.929 . S
C992 C991 1.383 . S
C992 C993 1.377 . S
C993 H977 0.930 . S
C993 C992 1.377 . S
C993 C994 1.379 . S
C994 H978 0.931 . S
C994 C988 1.383 . S
C994 C993 1.379 . S
H995 C989 0.959 . S
H996 C989 0.961 . S
H997 C989 0.960 . S
H998 C990 0.930 . S
H999 C991 0.929 . S
H1000 C1008 0.929 1_545 S
H1001 C1010 0.930 . S
H1002 C1012 0.930 . S
H1003 C1015 0.929 . S
H1004 C1018 0.930 . S
H1005 C1020 0.960 . S
H1006 C1020 0.960 . S
H1007 C1020 0.960 . S
C1008 H1000 0.929 1_565 S
C1008 C1009 1.377 . S
C1008 C1010 1.384 1_565 S
C1009 C1008 1.377 . S
C1009 C1015 1.390 . S
C1010 H1001 0.930 . S
C1010 C1008 1.384 1_545 S
C1010 C1011 1.372 1_545 S
C1011 C1010 1.372 1_565 S
C1011 C1012 1.400 . S
C1011 C1016 1.490 . S
C1012 H1002 0.930 . S
C1012 C1011 1.400 . S
C1012 C1015 1.386 . S
H1013 C1029 0.930 . S
H1014 C1030 0.931 . S
C1015 H1003 0.929 . S
C1015 C1009 1.390 . S
C1015 C1012 1.386 . S
C1016 C1011 1.490 . S
C1016 C1018 1.394 1_565 S
C1016 C1019 1.403 . S
H1017 C1023 0.930 . S
C1018 H1004 0.930 . S
C1018 C1016 1.394 1_545 S
C1018 C1021 1.404 . S
C1019 C1016 1.403 . S
C1019 C1020 1.524 . S
C1019 C1023 1.400 . S
C1020 H1005 0.960 . S
C1020 H1006 0.960 . S
C1020 H1007 0.960 . S
C1020 C1019 1.524 . S
C1021 C1018 1.404 . S
C1021 C1022 1.392 . S
C1021 C1025 1.495 . S
C1022 C1021 1.392 . S
C1022 C1023 1.385 1_545 S
C1022 C1024 1.478 . S
C1023 H1017 0.930 . S
C1023 C1019 1.400 . S
C1023 C1022 1.385 1_565 S
C1024 C1022 1.478 . S
C1024 C1026 1.381 . S
C1024 C1030 1.383 1_545 S
C1025 C1021 1.495 . S
C1025 H1031 0.959 . S
C1025 H1032 0.961 . S
C1025 H1033 0.960 . S
C1026 C1024 1.381 . S
C1026 C1027 1.394 . S
C1026 H1034 0.930 . S
C1027 C1026 1.394 . S
C1027 C1028 1.383 . S
C1027 H1035 0.929 . S
C1028 C1027 1.383 . S
C1028 C1029 1.377 1_545 S
C1029 H1013 0.930 . S
C1029 C1028 1.377 1_565 S
C1029 C1030 1.379 . S
C1030 H1014 0.931 . S
C1030 C1024 1.383 1_565 S
C1030 C1029 1.379 . S
H1031 C1025 0.959 . S
H1032 C1025 0.961 . S
H1033 C1025 0.960 . S
H1034 C1026 0.930 . S
H1035 C1027 0.929 . S
H1036 C1044 0.929 . S
H1037 C1046 0.930 . S
H1038 C1048 0.930 1_655 S
H1039 C1051 0.929 1_655 S
H1040 C1054 0.930 . S
H1041 C1056 0.960 . S
H1042 C1056 0.960 . S
H1043 C1056 0.960 . S
C1044 H1036 0.929 . S
C1044 C1045 1.377 . S
C1044 C1046 1.384 . S
C1045 C1044 1.377 . S
C1045 C1051 1.390 . S
C1046 H1037 0.930 . S
C1046 C1044 1.384 . S
C1046 C1047 1.372 . S
C1047 C1046 1.372 . S
C1047 C1048 1.400 . S
C1047 C1052 1.490 . S
C1048 H1038 0.930 1_455 S
C1048 C1047 1.400 . S
C1048 C1051 1.386 . S
H1049 C1065 0.930 . S
H1050 C1066 0.931 . S
C1051 H1039 0.929 1_455 S
C1051 C1045 1.390 . S
C1051 C1048 1.386 . S
C1052 C1047 1.490 . S
C1052 C1054 1.395 1_455 S
C1052 C1055 1.403 . S
H1053 C1059 0.930 . S
C1054 H1040 0.930 . S
C1054 C1052 1.395 1_655 S
C1054 C1057 1.403 . S
C1055 C1052 1.403 . S
C1055 C1056 1.524 . S
C1055 C1059 1.400 . S
C1056 H1041 0.960 . S
C1056 H1042 0.960 . S
C1056 H1043 0.960 . S
C1056 C1055 1.524 . S
C1057 C1054 1.403 . S
C1057 C1058 1.392 1_655 S
C1057 C1061 1.495 . S
C1058 C1057 1.392 1_455 S
C1058 C1059 1.385 . S
C1058 C1060 1.478 1_455 S
C1059 H1053 0.930 . S
C1059 C1055 1.400 . S
C1059 C1058 1.385 . S
C1060 C1058 1.478 1_655 S
C1060 C1062 1.381 1_655 S
C1060 C1066 1.383 . S
C1061 C1057 1.495 . S
C1061 H1067 0.959 . S
C1061 H1068 0.961 . S
C1061 H1069 0.960 . S
C1062 C1060 1.381 1_455 S
C1062 C1063 1.394 . S
C1062 H1070 0.930 . S
C1063 C1062 1.394 . S
C1063 C1064 1.383 1_455 S
C1063 H1071 0.929 . S
C1064 C1063 1.383 1_655 S
C1064 C1065 1.377 . S
C1065 H1049 0.930 . S
C1065 C1064 1.377 . S
C1065 C1066 1.379 . S
C1066 H1050 0.931 . S
C1066 C1060 1.383 . S
C1066 C1065 1.379 . S
H1067 C1061 0.959 . S
H1068 C1061 0.961 . S
H1069 C1061 0.960 . S
H1070 C1062 0.930 . S
H1071 C1063 0.929 . S
H1072 C1080 0.929 . S
H1073 C1082 0.930 . S
H1074 C1084 0.930 . S
H1075 C1087 0.929 . S
H1076 C1090 0.925 1_554 S
H1077 C1092 0.960 . S
H1078 C1092 0.960 . S
H1079 C1092 0.960 . S
C1080 H1072 0.929 . S
C1080 C1081 1.377 . S
C1080 C1082 1.384 . S
C1081 C1080 1.377 . S
C1081 C1087 1.390 . S
C1082 H1073 0.930 . S
C1082 C1080 1.384 . S
C1082 C1083 1.372 . S
C1083 C1082 1.372 . S
C1083 C1084 1.400 . S
C1083 C1088 1.490 . S
C1084 H1074 0.930 . S
C1084 C1083 1.400 . S
C1084 C1087 1.386 . S
H1085 C1101 0.930 . S
H1086 C1102 0.938 . S
C1087 H1075 0.929 . S
C1087 C1081 1.390 . S
C1087 C1084 1.386 . S
C1088 C1083 1.490 . S
C1088 C1090 1.395 . S
C1088 C1091 1.403 . S
H1089 C1095 0.930 . S
C1090 H1076 0.925 1_556 S
C1090 C1088 1.395 . S
C1090 C1093 1.403 . S
C1091 C1088 1.403 . S
C1091 C1092 1.524 . S
C1091 C1095 1.400 . S
C1092 H1077 0.960 . S
C1092 H1078 0.960 . S
C1092 H1079 0.960 . S
C1092 C1091 1.524 . S
C1093 C1090 1.403 . S
C1093 C1094 1.392 . S
C1093 C1097 1.495 1_556 S
C1094 C1093 1.392 . S
C1094 C1095 1.385 . S
C1094 C1096 1.478 . S
C1095 H1089 0.930 . S
C1095 C1091 1.400 . S
C1095 C1094 1.385 . S
C1096 C1094 1.478 . S
C1096 C1098 1.381 . S
C1096 C1102 1.368 1_556 S
C1097 C1093 1.495 1_554 S
C1097 H1103 0.959 . S
C1097 H1104 0.961 . S
C1097 H1105 0.960 . S
C1098 C1096 1.381 . S
C1098 C1099 1.394 . S
C1098 H1106 0.930 . S
C1099 C1098 1.394 . S
C1099 C1100 1.383 . S
C1099 H1107 0.929 . S
C1100 C1099 1.383 . S
C1100 C1101 1.377 1_556 S
C1101 H1085 0.930 . S
C1101 C1100 1.377 1_554 S
C1101 C1102 1.388 . S
C1102 H1086 0.938 . S
C1102 C1096 1.368 1_554 S
C1102 C1101 1.388 . S
H1103 C1097 0.959 . S
H1104 C1097 0.961 . S
H1105 C1097 0.960 . S
H1106 C1098 0.930 . S
H1107 C1099 0.929 . S
H1108 C1116 0.929 . S
H1109 C1118 0.930 . S
H1110 C1120 0.930 . S
H1111 C1123 0.929 . S
H1112 C1126 0.930 . S
H1113 C1128 0.960 . S
H1114 C1128 0.960 . S
H1115 C1128 0.960 . S
C1116 H1108 0.929 . S
C1116 C1117 1.377 . S
C1116 C1118 1.384 . S
C1117 C1116 1.377 . S
C1117 C1123 1.390 . S
C1118 H1109 0.930 . S
C1118 C1116 1.384 . S
C1118 C1119 1.372 . S
C1119 C1118 1.372 . S
C1119 C1120 1.400 . S
C1119 C1124 1.490 . S
C1120 H1110 0.930 . S
C1120 C1119 1.400 . S
C1120 C1123 1.386 . S
H1121 C1137 0.930 . S
H1122 C1138 0.931 . S
C1123 H1111 0.929 . S
C1123 C1117 1.390 . S
C1123 C1120 1.386 . S
C1124 C1119 1.490 . S
C1124 C1126 1.395 . S
C1124 C1127 1.403 . S
H1125 C1131 0.930 . S
C1126 H1112 0.930 . S
C1126 C1124 1.395 . S
C1126 C1129 1.403 . S
C1127 C1124 1.403 . S
C1127 C1128 1.524 . S
C1127 C1131 1.400 . S
C1128 H1113 0.960 . S
C1128 H1114 0.960 . S
C1128 H1115 0.960 . S
C1128 C1127 1.524 . S
C1129 C1126 1.403 . S
C1129 C1130 1.392 . S
C1129 C1133 1.495 . S
C1130 C1129 1.392 . S
C1130 C1131 1.385 . S
C1130 C1132 1.478 . S
C1131 H1125 0.930 . S
C1131 C1127 1.400 . S
C1131 C1130 1.385 . S
C1132 C1130 1.478 . S
C1132 C1134 1.381 . S
C1132 C1138 1.383 . S
C1133 C1129 1.495 . S
C1133 H1139 0.959 . S
C1133 H1140 0.961 . S
C1133 H1141 0.960 . S
C1134 C1132 1.381 . S
C1134 C1135 1.394 . S
C1134 H1142 0.930 . S
C1135 C1134 1.394 . S
C1135 C1136 1.383 . S
C1135 H1143 0.929 . S
C1136 C1135 1.383 . S
C1136 C1137 1.377 . S
C1137 H1121 0.930 . S
C1137 C1136 1.377 . S
C1137 C1138 1.379 . S
C1138 H1122 0.931 . S
C1138 C1132 1.383 . S
C1138 C1137 1.379 . S
H1139 C1133 0.959 . S
H1140 C1133 0.961 . S
H1141 C1133 0.960 . S
H1142 C1134 0.930 . S
H1143 C1135 0.929 . S
H1144 C1152 0.929 . S
H1145 C1154 0.930 . S
H1146 C1156 0.930 . S
H1147 C1159 0.929 . S
H1148 C1162 0.930 . S
H1149 C1164 0.960 . S
H1150 C1164 0.960 . S
H1151 C1164 0.960 . S
C1152 H1144 0.929 . S
C1152 C1153 1.377 . S
C1152 C1154 1.384 . S
C1153 C1152 1.377 . S
C1153 C1159 1.390 . S
C1154 H1145 0.930 . S
C1154 C1152 1.384 . S
C1154 C1155 1.372 . S
C1155 C1154 1.372 . S
C1155 C1156 1.400 . S
C1155 C1160 1.490 . S
C1156 H1146 0.930 . S
C1156 C1155 1.400 . S
C1156 C1159 1.386 . S
H1157 C1173 0.930 . S
H1158 C1174 0.931 . S
C1159 H1147 0.929 . S
C1159 C1153 1.390 . S
C1159 C1156 1.386 . S
C1160 C1155 1.490 . S
C1160 C1162 1.395 . S
C1160 C1163 1.403 . S
H1161 C1167 0.930 . S
C1162 H1148 0.930 . S
C1162 C1160 1.395 . S
C1162 C1165 1.403 . S
C1163 C1160 1.403 . S
C1163 C1164 1.524 . S
C1163 C1167 1.400 . S
C1164 H1149 0.960 . S
C1164 H1150 0.960 . S
C1164 H1151 0.960 . S
C1164 C1163 1.524 . S
C1165 C1162 1.403 . S
C1165 C1166 1.392 . S
C1165 C1169 1.495 . S
C1166 C1165 1.392 . S
C1166 C1167 1.385 . S
C1166 C1168 1.478 . S
C1167 H1161 0.930 . S
C1167 C1163 1.400 . S
C1167 C1166 1.385 . S
C1168 C1166 1.478 . S
C1168 C1170 1.381 . S
C1168 C1174 1.383 . S
C1169 C1165 1.495 . S
C1169 H1175 0.959 . S
C1169 H1176 0.961 . S
C1169 H1177 0.960 . S
C1170 C1168 1.381 . S
C1170 C1171 1.394 . S
C1170 H1178 0.930 . S
C1171 C1170 1.394 . S
C1171 C1172 1.383 . S
C1171 H1179 0.929 . S
C1172 C1171 1.383 . S
C1172 C1173 1.377 . S
C1173 H1157 0.930 . S
C1173 C1172 1.377 . S
C1173 C1174 1.379 . S
C1174 H1158 0.931 . S
C1174 C1168 1.383 . S
C1174 C1173 1.379 . S
H1175 C1169 0.959 . S
H1176 C1169 0.961 . S
H1177 C1169 0.960 . S
H1178 C1170 0.930 . S
H1179 C1171 0.929 . S
H1180 C1188 0.929 . S
H1181 C1190 0.930 . S
H1182 C1192 0.930 . S
H1183 C1195 0.929 . S
H1184 C1198 0.930 . S
H1185 C1200 0.960 . S
H1186 C1200 0.960 . S
H1187 C1200 0.960 . S
C1188 H1180 0.929 . S
C1188 C1189 1.377 . S
C1188 C1190 1.384 . S
C1189 C1188 1.377 . S
C1189 C1195 1.390 . S
C1190 H1181 0.930 . S
C1190 C1188 1.384 . S
C1190 C1191 1.372 . S
C1191 C1190 1.372 . S
C1191 C1192 1.400 . S
C1191 C1196 1.490 . S
C1192 H1182 0.930 . S
C1192 C1191 1.400 . S
C1192 C1195 1.386 . S
H1193 C1209 0.930 . S
H1194 C1210 0.931 . S
C1195 H1183 0.929 . S
C1195 C1189 1.390 . S
C1195 C1192 1.386 . S
C1196 C1191 1.490 . S
C1196 C1198 1.395 . S
C1196 C1199 1.403 . S
H1197 C1203 0.930 . S
C1198 H1184 0.930 . S
C1198 C1196 1.395 . S
C1198 C1201 1.403 . S
C1199 C1196 1.403 . S
C1199 C1200 1.524 . S
C1199 C1203 1.400 . S
C1200 H1185 0.960 . S
C1200 H1186 0.960 . S
C1200 H1187 0.960 . S
C1200 C1199 1.524 . S
C1201 C1198 1.403 . S
C1201 C1202 1.392 . S
C1201 C1205 1.495 . S
C1202 C1201 1.392 . S
C1202 C1203 1.385 . S
C1202 C1204 1.478 . S
C1203 H1197 0.930 . S
C1203 C1199 1.400 . S
C1203 C1202 1.385 . S
C1204 C1202 1.478 . S
C1204 C1206 1.381 . S
C1204 C1210 1.383 . S
C1205 C1201 1.495 . S
C1205 H1211 0.959 . S
C1205 H1212 0.961 . S
C1205 H1213 0.960 . S
C1206 C1204 1.381 . S
C1206 C1207 1.394 . S
C1206 H1214 0.930 . S
C1207 C1206 1.394 . S
C1207 C1208 1.383 . S
C1207 H1215 0.929 . S
C1208 C1207 1.383 . S
C1208 C1209 1.377 . S
C1209 H1193 0.930 . S
C1209 C1208 1.377 . S
C1209 C1210 1.379 . S
C1210 H1194 0.931 . S
C1210 C1204 1.383 . S
C1210 C1209 1.379 . S
H1211 C1205 0.959 . S
H1212 C1205 0.961 . S
H1213 C1205 0.960 . S
H1214 C1206 0.930 . S
H1215 C1207 0.929 . S
H1216 C1224 0.929 . S
H1217 C1226 0.930 . S
H1218 C1228 0.930 . S
H1219 C1231 0.929 . S
H1220 C1234 0.930 . S
H1221 C1236 0.960 . S
H1222 C1236 0.960 . S
H1223 C1236 0.960 . S
C1224 H1216 0.929 . S
C1224 C1225 1.377 . S
C1224 C1226 1.384 . S
C1225 C1224 1.377 . S
C1225 C1231 1.390 . S
C1226 H1217 0.930 . S
C1226 C1224 1.384 . S
C1226 C1227 1.372 . S
C1227 C1226 1.372 . S
C1227 C1228 1.400 . S
C1227 C1232 1.490 . S
C1228 H1218 0.930 . S
C1228 C1227 1.400 . S
C1228 C1231 1.386 . S
H1229 C1245 0.930 . S
H1230 C1246 0.931 . S
C1231 H1219 0.929 . S
C1231 C1225 1.390 . S
C1231 C1228 1.386 . S
C1232 C1227 1.490 . S
C1232 C1234 1.395 . S
C1232 C1235 1.403 . S
H1233 C1239 0.930 . S
C1234 H1220 0.930 . S
C1234 C1232 1.395 . S
C1234 C1237 1.403 . S
C1235 C1232 1.403 . S
C1235 C1236 1.524 . S
C1235 C1239 1.400 . S
C1236 H1221 0.960 . S
C1236 H1222 0.960 . S
C1236 H1223 0.960 . S
C1236 C1235 1.524 . S
C1237 C1234 1.403 . S
C1237 C1238 1.392 . S
C1237 C1241 1.495 . S
C1238 C1237 1.392 . S
C1238 C1239 1.385 . S
C1238 C1240 1.478 . S
C1239 H1233 0.930 . S
C1239 C1235 1.400 . S
C1239 C1238 1.385 . S
C1240 C1238 1.478 . S
C1240 C1242 1.381 . S
C1240 C1246 1.383 . S
C1241 C1237 1.495 . S
C1241 H1247 0.959 . S
C1241 H1248 0.961 . S
C1241 H1249 0.960 . S
C1242 C1240 1.381 . S
C1242 C1243 1.394 . S
C1242 H1250 0.930 . S
C1243 C1242 1.394 . S
C1243 C1244 1.383 . S
C1243 H1251 0.929 . S
C1244 C1243 1.383 . S
C1244 C1245 1.377 . S
C1245 H1229 0.930 . S
C1245 C1244 1.377 . S
C1245 C1246 1.379 . S
C1246 H1230 0.931 . S
C1246 C1240 1.383 . S
C1246 C1245 1.379 . S
H1247 C1241 0.959 . S
H1248 C1241 0.961 . S
H1249 C1241 0.960 . S
H1250 C1242 0.930 . S
H1251 C1243 0.929 . S
H1252 C1260 0.929 . S
H1253 C1262 0.930 . S
H1254 C1264 0.930 . S
H1255 C1267 0.929 . S
H1256 C1270 0.930 . S
H1257 C1272 0.960 . S
H1258 C1272 0.960 . S
H1259 C1272 0.960 . S
C1260 H1252 0.929 . S
C1260 C1261 1.377 . S
C1260 C1262 1.384 . S
C1261 C1260 1.377 . S
C1261 C1267 1.390 . S
C1262 H1253 0.930 . S
C1262 C1260 1.384 . S
C1262 C1263 1.372 . S
C1263 C1262 1.372 . S
C1263 C1264 1.400 . S
C1263 C1268 1.490 . S
C1264 H1254 0.930 . S
C1264 C1263 1.400 . S
C1264 C1267 1.386 . S
H1265 C1281 0.930 . S
H1266 C1282 0.931 . S
C1267 H1255 0.929 . S
C1267 C1261 1.390 . S
C1267 C1264 1.386 . S
C1268 C1263 1.490 . S
C1268 C1270 1.395 . S
C1268 C1271 1.403 . S
H1269 C1275 0.930 . S
C1270 H1256 0.930 . S
C1270 C1268 1.395 . S
C1270 C1273 1.403 . S
C1271 C1268 1.403 . S
C1271 C1272 1.524 . S
C1271 C1275 1.400 . S
C1272 H1257 0.960 . S
C1272 H1258 0.960 . S
C1272 H1259 0.960 . S
C1272 C1271 1.524 . S
C1273 C1270 1.403 . S
C1273 C1274 1.392 . S
C1273 C1277 1.495 . S
C1274 C1273 1.392 . S
C1274 C1275 1.385 . S
C1274 C1276 1.478 . S
C1275 H1269 0.930 . S
C1275 C1271 1.400 . S
C1275 C1274 1.385 . S
C1276 C1274 1.478 . S
C1276 C1278 1.381 . S
C1276 C1282 1.383 . S
C1277 C1273 1.495 . S
C1277 H1283 0.959 . S
C1277 H1284 0.961 . S
C1277 H1285 0.960 . S
C1278 C1276 1.381 . S
C1278 C1279 1.394 . S
C1278 H1286 0.930 . S
C1279 C1278 1.394 . S
C1279 C1280 1.383 . S
C1279 H1287 0.929 . S
C1280 C1279 1.383 . S
C1280 C1281 1.377 . S
C1281 H1265 0.930 . S
C1281 C1280 1.377 . S
C1281 C1282 1.379 . S
C1282 H1266 0.931 . S
C1282 C1276 1.383 . S
C1282 C1281 1.379 . S
H1283 C1277 0.959 . S
H1284 C1277 0.961 . S
H1285 C1277 0.960 . S
H1286 C1278 0.930 . S
H1287 C1279 0.929 . S
H1288 C1296 0.929 . S
H1289 C1298 0.930 . S
H1290 C1300 0.930 . S
H1291 C1303 0.929 . S
H1292 C1306 0.930 . S
H1293 C1308 0.960 . S
H1294 C1308 0.960 . S
H1295 C1308 0.960 . S
C1296 H1288 0.929 . S
C1296 C1297 1.377 . S
C1296 C1298 1.384 . S
C1297 C1296 1.377 . S
C1297 C1303 1.390 . S
C1298 H1289 0.930 . S
C1298 C1296 1.384 . S
C1298 C1299 1.372 . S
C1299 C1298 1.372 . S
C1299 C1300 1.400 . S
C1299 C1304 1.490 . S
C1300 H1290 0.930 . S
C1300 C1299 1.400 . S
C1300 C1303 1.386 . S
H1301 C1317 0.930 . S
H1302 C1318 0.931 . S
C1303 H1291 0.929 . S
C1303 C1297 1.390 . S
C1303 C1300 1.386 . S
C1304 C1299 1.490 . S
C1304 C1306 1.395 . S
C1304 C1307 1.403 . S
H1305 C1311 0.930 . S
C1306 H1292 0.930 . S
C1306 C1304 1.395 . S
C1306 C1309 1.403 . S
C1307 C1304 1.403 . S
C1307 C1308 1.524 . S
C1307 C1311 1.400 . S
C1308 H1293 0.960 . S
C1308 H1294 0.960 . S
C1308 H1295 0.960 . S
C1308 C1307 1.524 . S
C1309 C1306 1.403 . S
C1309 C1310 1.392 . S
C1309 C1313 1.495 . S
C1310 C1309 1.392 . S
C1310 C1311 1.385 . S
C1310 C1312 1.478 . S
C1311 H1305 0.930 . S
C1311 C1307 1.400 . S
C1311 C1310 1.385 . S
C1312 C1310 1.478 . S
C1312 C1314 1.381 . S
C1312 C1318 1.383 . S
C1313 C1309 1.495 . S
C1313 H1319 0.959 . S
C1313 H1320 0.961 . S
C1313 H1321 0.960 . S
C1314 C1312 1.381 . S
C1314 C1315 1.394 . S
C1314 H1322 0.930 . S
C1315 C1314 1.394 . S
C1315 C1316 1.383 . S
C1315 H1323 0.929 . S
C1316 C1315 1.383 . S
C1316 C1317 1.377 . S
C1317 H1301 0.930 . S
C1317 C1316 1.377 . S
C1317 C1318 1.379 . S
C1318 H1302 0.931 . S
C1318 C1312 1.383 . S
C1318 C1317 1.379 . S
H1319 C1313 0.959 . S
H1320 C1313 0.961 . S
H1321 C1313 0.960 . S
H1322 C1314 0.930 . S
H1323 C1315 0.929 . S
H1324 C1332 0.929 . S
H1325 C1334 0.930 . S
H1326 C1336 0.930 . S
H1327 C1339 0.929 . S
H1328 C1342 0.930 . S
H1329 C1344 0.960 . S
H1330 C1344 0.960 . S
H1331 C1344 0.960 . S
C1332 H1324 0.929 . S
C1332 C1333 1.377 . S
C1332 C1334 1.384 . S
C1333 C1332 1.377 . S
C1333 C1339 1.390 . S
C1334 H1325 0.930 . S
C1334 C1332 1.384 . S
C1334 C1335 1.372 . S
C1335 C1334 1.372 . S
C1335 C1336 1.400 . S
C1335 C1340 1.490 . S
C1336 H1326 0.930 . S
C1336 C1335 1.400 . S
C1336 C1339 1.386 . S
H1337 C1353 0.930 . S
H1338 C1354 0.931 . S
C1339 H1327 0.929 . S
C1339 C1333 1.390 . S
C1339 C1336 1.386 . S
C1340 C1335 1.490 . S
C1340 C1342 1.395 . S
C1340 C1343 1.403 . S
H1341 C1347 0.930 . S
C1342 H1328 0.930 . S
C1342 C1340 1.395 . S
C1342 C1345 1.403 . S
C1343 C1340 1.403 . S
C1343 C1344 1.524 . S
C1343 C1347 1.400 . S
C1344 H1329 0.960 . S
C1344 H1330 0.960 . S
C1344 H1331 0.960 . S
C1344 C1343 1.524 . S
C1345 C1342 1.403 . S
C1345 C1346 1.392 . S
C1345 C1349 1.495 . S
C1346 C1345 1.392 . S
C1346 C1347 1.385 . S
C1346 C1348 1.478 . S
C1347 H1341 0.930 . S
C1347 C1343 1.400 . S
C1347 C1346 1.385 . S
C1348 C1346 1.478 . S
C1348 C1350 1.381 . S
C1348 C1354 1.383 . S
C1349 C1345 1.495 . S
C1349 H1355 0.959 . S
C1349 H1356 0.961 . S
C1349 H1357 0.960 . S
C1350 C1348 1.381 . S
C1350 C1351 1.394 . S
C1350 H1358 0.930 . S
C1351 C1350 1.394 . S
C1351 C1352 1.383 . S
C1351 H1359 0.929 . S
C1352 C1351 1.383 . S
C1352 C1353 1.377 . S
C1353 H1337 0.930 . S
C1353 C1352 1.377 . S
C1353 C1354 1.379 . S
C1354 H1338 0.931 . S
C1354 C1348 1.383 . S
C1354 C1353 1.379 . S
H1355 C1349 0.959 . S
H1356 C1349 0.961 . S
H1357 C1349 0.960 . S
H1358 C1350 0.930 . S
H1359 C1351 0.929 . S
H1360 C1368 0.929 . S
H1361 C1370 0.930 . S
H1362 C1372 0.930 . S
H1363 C1375 0.929 . S
H1364 C1378 0.930 . S
H1365 C1380 0.960 . S
H1366 C1380 0.960 . S
H1367 C1380 0.960 . S
C1368 H1360 0.929 . S
C1368 C1369 1.377 . S
C1368 C1370 1.384 . S
C1369 C1368 1.377 . S
C1369 C1375 1.390 . S
C1370 H1361 0.930 . S
C1370 C1368 1.384 . S
C1370 C1371 1.372 . S
C1371 C1370 1.372 . S
C1371 C1372 1.400 . S
C1371 C1376 1.490 . S
C1372 H1362 0.930 . S
C1372 C1371 1.400 . S
C1372 C1375 1.386 . S
H1373 C1389 0.930 . S
H1374 C1390 0.931 . S
C1375 H1363 0.929 . S
C1375 C1369 1.390 . S
C1375 C1372 1.386 . S
C1376 C1371 1.490 . S
C1376 C1378 1.395 . S
C1376 C1379 1.403 . S
H1377 C1383 0.930 . S
C1378 H1364 0.930 . S
C1378 C1376 1.395 . S
C1378 C1381 1.403 . S
C1379 C1376 1.403 . S
C1379 C1380 1.524 . S
C1379 C1383 1.400 . S
C1380 H1365 0.960 . S
C1380 H1366 0.960 . S
C1380 H1367 0.960 . S
C1380 C1379 1.524 . S
C1381 C1378 1.403 . S
C1381 C1382 1.392 . S
C1381 C1385 1.495 . S
C1382 C1381 1.392 . S
C1382 C1383 1.385 . S
C1382 C1384 1.478 . S
C1383 H1377 0.930 . S
C1383 C1379 1.400 . S
C1383 C1382 1.385 . S
C1384 C1382 1.478 . S
C1384 C1386 1.381 . S
C1384 C1390 1.383 . S
C1385 C1381 1.495 . S
C1385 H1391 0.959 . S
C1385 H1392 0.961 . S
C1385 H1393 0.960 . S
C1386 C1384 1.381 . S
C1386 C1387 1.394 . S
C1386 H1394 0.930 . S
C1387 C1386 1.394 . S
C1387 C1388 1.383 . S
C1387 H1395 0.929 . S
C1388 C1387 1.383 . S
C1388 C1389 1.377 . S
C1389 H1373 0.930 . S
C1389 C1388 1.377 . S
C1389 C1390 1.379 . S
C1390 H1374 0.931 . S
C1390 C1384 1.383 . S
C1390 C1389 1.379 . S
H1391 C1385 0.959 . S
H1392 C1385 0.961 . S
H1393 C1385 0.960 . S
H1394 C1386 0.930 . S
H1395 C1387 0.929 . S
H1396 C1404 0.929 . S
H1397 C1406 0.930 . S
H1398 C1408 0.930 . S
H1399 C1411 0.929 . S
H1400 C1414 0.930 . S
H1401 C1416 0.960 . S
H1402 C1416 0.960 . S
H1403 C1416 0.960 . S
C1404 H1396 0.929 . S
C1404 C1405 1.377 . S
C1404 C1406 1.384 . S
C1405 C1404 1.377 . S
C1405 C1411 1.390 1_455 S
C1406 H1397 0.930 . S
C1406 C1404 1.384 . S
C1406 C1407 1.372 . S
C1407 C1406 1.372 . S
C1407 C1408 1.400 1_455 S
C1407 C1412 1.490 1_455 S
C1408 H1398 0.930 . S
C1408 C1407 1.400 1_655 S
C1408 C1411 1.386 . S
H1409 C1425 0.930 . S
H1410 C1426 0.931 . S
C1411 H1399 0.929 . S
C1411 C1405 1.390 1_655 S
C1411 C1408 1.386 . S
C1412 C1407 1.490 1_655 S
C1412 C1414 1.395 1_655 S
C1412 C1415 1.403 . S
H1413 C1419 0.930 . S
C1414 H1400 0.930 . S
C1414 C1412 1.395 1_455 S
C1414 C1417 1.403 . S
C1415 C1412 1.403 . S
C1415 C1416 1.524 . S
C1415 C1419 1.400 . S
C1416 H1401 0.960 . S
C1416 H1402 0.960 . S
C1416 H1403 0.960 . S
C1416 C1415 1.524 . S
C1417 C1414 1.403 . S
C1417 C1418 1.392 1_455 S
C1417 C1421 1.495 . S
C1418 C1417 1.392 1_655 S
C1418 C1419 1.385 . S
C1418 C1420 1.478 . S
C1419 H1413 0.930 . S
C1419 C1415 1.400 . S
C1419 C1418 1.385 . S
C1420 C1418 1.478 . S
C1420 C1422 1.381 . S
C1420 C1426 1.383 . S
C1421 C1417 1.495 . S
C1421 H1427 0.959 . S
C1421 H1428 0.961 . S
C1421 H1429 0.960 . S
C1422 C1420 1.381 . S
C1422 C1423 1.394 . S
C1422 H1430 0.930 1_655 S
C1423 C1422 1.394 . S
C1423 C1424 1.383 . S
C1423 H1431 0.931 . S
C1424 C1423 1.383 . S
C1424 C1425 1.377 . S
C1425 H1409 0.930 . S
C1425 C1424 1.377 . S
C1425 C1426 1.379 . S
C1426 H1410 0.931 . S
C1426 C1420 1.383 . S
C1426 C1425 1.379 . S
H1427 C1421 0.959 . S
H1428 C1421 0.961 . S
H1429 C1421 0.960 . S
H1430 C1422 0.930 1_455 S
H1431 C1423 0.931 . S
H1432 C1440 0.929 . S
H1433 C1442 0.930 . S
H1434 C1444 0.930 . S
H1435 C1447 0.929 . S
H1436 C1450 0.930 . S
H1437 C1452 0.960 . S
H1438 C1452 0.960 . S
H1439 C1452 0.960 . S
C1440 H1432 0.929 . S
C1440 C1441 1.377 . S
C1440 C1442 1.384 . S
C1441 C1440 1.377 . S
C1441 C1447 1.390 . S
C1442 H1433 0.930 . S
C1442 C1440 1.384 . S
C1442 C1443 1.372 . S
C1443 C1442 1.372 . S
C1443 C1444 1.400 . S
C1443 C1448 1.490 . S
C1444 H1434 0.930 . S
C1444 C1443 1.400 . S
C1444 C1447 1.386 . S
H1445 C1461 0.930 . S
H1446 C1462 0.931 . S
C1447 H1435 0.929 . S
C1447 C1441 1.390 . S
C1447 C1444 1.386 . S
C1448 C1443 1.490 . S
C1448 C1450 1.395 . S
C1448 C1451 1.403 . S
H1449 C1455 0.930 . S
C1450 H1436 0.930 . S
C1450 C1448 1.395 . S
C1450 C1453 1.403 . S
C1451 C1448 1.403 . S
C1451 C1452 1.524 . S
C1451 C1455 1.400 . S
C1452 H1437 0.960 . S
C1452 H1438 0.960 . S
C1452 H1439 0.960 . S
C1452 C1451 1.524 . S
C1453 C1450 1.403 . S
C1453 C1454 1.392 . S
C1453 C1457 1.495 . S
C1454 C1453 1.392 . S
C1454 C1455 1.385 . S
C1454 C1456 1.478 . S
C1455 H1449 0.930 . S
C1455 C1451 1.400 . S
C1455 C1454 1.385 . S
C1456 C1454 1.478 . S
C1456 C1458 1.381 . S
C1456 C1462 1.383 . S
C1457 C1453 1.495 . S
C1457 H1463 0.959 . S
C1457 H1464 0.961 . S
C1457 H1465 0.960 . S
C1458 C1456 1.381 . S
C1458 C1459 1.394 . S
C1458 H1466 0.930 . S
C1459 C1458 1.394 . S
C1459 C1460 1.383 . S
C1459 H1467 0.929 . S
C1460 C1459 1.383 . S
C1460 C1461 1.377 . S
C1461 H1445 0.930 . S
C1461 C1460 1.377 . S
C1461 C1462 1.379 . S
C1462 H1446 0.931 . S
C1462 C1456 1.383 . S
C1462 C1461 1.379 . S
H1463 C1457 0.959 . S
H1464 C1457 0.961 . S
H1465 C1457 0.960 . S
H1466 C1458 0.930 . S
H1467 C1459 0.929 . S
H1468 C1476 0.929 . S
H1469 C1478 0.930 . S
H1470 C1480 0.930 . S
H1471 C1483 0.929 . S
H1472 C1486 0.930 . S
H1473 C1488 0.960 . S
H1474 C1488 0.960 . S
H1475 C1488 0.960 . S
C1476 H1468 0.929 . S
C1476 C1477 1.377 . S
C1476 C1478 1.384 . S
C1477 C1476 1.377 . S
C1477 C1483 1.390 . S
C1478 H1469 0.930 . S
C1478 C1476 1.384 . S
C1478 C1479 1.372 . S
C1479 C1478 1.372 . S
C1479 C1480 1.400 . S
C1479 C1484 1.490 . S
C1480 H1470 0.930 . S
C1480 C1479 1.400 . S
C1480 C1483 1.386 . S
H1481 C1497 0.930 . S
H1482 C1498 0.931 . S
C1483 H1471 0.929 . S
C1483 C1477 1.390 . S
C1483 C1480 1.386 . S
C1484 C1479 1.490 . S
C1484 C1486 1.395 . S
C1484 C1487 1.403 . S
H1485 C1491 0.930 . S
C1486 H1472 0.930 . S
C1486 C1484 1.395 . S
C1486 C1489 1.403 . S
C1487 C1484 1.403 . S
C1487 C1488 1.524 . S
C1487 C1491 1.400 . S
C1488 H1473 0.960 . S
C1488 H1474 0.960 . S
C1488 H1475 0.960 . S
C1488 C1487 1.524 . S
C1489 C1486 1.403 . S
C1489 C1490 1.392 . S
C1489 C1493 1.495 . S
C1490 C1489 1.392 . S
C1490 C1491 1.385 . S
C1490 C1492 1.478 . S
C1491 H1485 0.930 . S
C1491 C1487 1.400 . S
C1491 C1490 1.385 . S
C1492 C1490 1.478 . S
C1492 C1494 1.381 . S
C1492 C1498 1.383 . S
C1493 C1489 1.495 . S
C1493 H1499 0.959 . S
C1493 H1500 0.961 . S
C1493 H1501 0.960 . S
C1494 C1492 1.381 . S
C1494 C1495 1.394 . S
C1494 H1502 0.930 . S
C1495 C1494 1.394 . S
C1495 C1496 1.383 . S
C1495 H1503 0.929 . S
C1496 C1495 1.383 . S
C1496 C1497 1.377 . S
C1497 H1481 0.930 . S
C1497 C1496 1.377 . S
C1497 C1498 1.379 . S
C1498 H1482 0.931 . S
C1498 C1492 1.383 . S
C1498 C1497 1.379 . S
H1499 C1493 0.959 . S
H1500 C1493 0.961 . S
H1501 C1493 0.960 . S
H1502 C1494 0.930 . S
H1503 C1495 0.929 . S
H1504 C1512 0.929 . S
H1505 C1514 0.930 . S
H1506 C1516 0.930 . S
H1507 C1519 0.929 . S
H1508 C1522 0.930 . S
H1509 C1524 0.960 . S
H1510 C1524 0.960 . S
H1511 C1524 0.960 . S
C1512 H1504 0.929 . S
C1512 C1513 1.377 . S
C1512 C1514 1.384 . S
C1513 C1512 1.377 . S
C1513 C1519 1.390 . S
C1514 H1505 0.930 . S
C1514 C1512 1.384 . S
C1514 C1515 1.372 . S
C1515 C1514 1.372 . S
C1515 C1516 1.400 . S
C1515 C1520 1.490 . S
C1516 H1506 0.930 . S
C1516 C1515 1.400 . S
C1516 C1519 1.386 . S
H1517 C1533 0.930 . S
H1518 C1534 0.931 . S
C1519 H1507 0.929 . S
C1519 C1513 1.390 . S
C1519 C1516 1.386 . S
C1520 C1515 1.490 . S
C1520 C1522 1.395 . S
C1520 C1523 1.403 . S
H1521 C1527 0.930 . S
C1522 H1508 0.930 . S
C1522 C1520 1.395 . S
C1522 C1525 1.403 . S
C1523 C1520 1.403 . S
C1523 C1524 1.524 . S
C1523 C1527 1.400 . S
C1524 H1509 0.960 . S
C1524 H1510 0.960 . S
C1524 H1511 0.960 . S
C1524 C1523 1.524 . S
C1525 C1522 1.403 . S
C1525 C1526 1.392 . S
C1525 C1529 1.495 . S
C1526 C1525 1.392 . S
C1526 C1527 1.385 . S
C1526 C1528 1.478 . S
C1527 H1521 0.930 . S
C1527 C1523 1.400 . S
C1527 C1526 1.385 . S
C1528 C1526 1.478 . S
C1528 C1530 1.381 . S
C1528 C1534 1.383 . S
C1529 C1525 1.495 . S
C1529 H1535 0.959 . S
C1529 H1536 0.961 . S
C1529 H1537 0.960 . S
C1530 C1528 1.381 . S
C1530 C1531 1.394 . S
C1530 H1538 0.930 . S
C1531 C1530 1.394 . S
C1531 C1532 1.383 . S
C1531 H1539 0.929 . S
C1532 C1531 1.383 . S
C1532 C1533 1.377 . S
C1533 H1517 0.930 . S
C1533 C1532 1.377 . S
C1533 C1534 1.379 . S
C1534 H1518 0.931 . S
C1534 C1528 1.383 . S
C1534 C1533 1.379 . S
H1535 C1529 0.959 . S
H1536 C1529 0.961 . S
H1537 C1529 0.960 . S
H1538 C1530 0.930 . S
H1539 C1531 0.929 . S
H1540 C1548 0.929 . S
H1541 C1550 0.930 . S
H1542 C1552 0.930 . S
H1543 C1555 0.929 . S
H1544 C1558 0.930 . S
H1545 C1560 0.960 . S
H1546 C1560 0.960 . S
H1547 C1560 0.960 . S
C1548 H1540 0.929 . S
C1548 C1549 1.377 . S
C1548 C1550 1.384 . S
C1549 C1548 1.377 . S
C1549 C1555 1.390 . S
C1550 H1541 0.930 . S
C1550 C1548 1.384 . S
C1550 C1551 1.372 . S
C1551 C1550 1.372 . S
C1551 C1552 1.400 . S
C1551 C1556 1.490 . S
C1552 H1542 0.930 . S
C1552 C1551 1.400 . S
C1552 C1555 1.386 . S
H1553 C1569 0.930 . S
H1554 C1570 0.931 . S
C1555 H1543 0.929 . S
C1555 C1549 1.390 . S
C1555 C1552 1.386 . S
C1556 C1551 1.490 . S
C1556 C1558 1.395 . S
C1556 C1559 1.403 . S
H1557 C1563 0.930 . S
C1558 H1544 0.930 . S
C1558 C1556 1.395 . S
C1558 C1561 1.403 . S
C1559 C1556 1.403 . S
C1559 C1560 1.524 . S
C1559 C1563 1.400 . S
C1560 H1545 0.960 . S
C1560 H1546 0.960 . S
C1560 H1547 0.960 . S
C1560 C1559 1.524 . S
C1561 C1558 1.403 . S
C1561 C1562 1.392 . S
C1561 C1565 1.495 . S
C1562 C1561 1.392 . S
C1562 C1563 1.385 . S
C1562 C1564 1.478 . S
C1563 H1557 0.930 . S
C1563 C1559 1.400 . S
C1563 C1562 1.385 . S
C1564 C1562 1.478 . S
C1564 C1566 1.381 . S
C1564 C1570 1.383 . S
C1565 C1561 1.495 . S
C1565 H1571 0.959 . S
C1565 H1572 0.961 . S
C1565 H1573 0.960 . S
C1566 C1564 1.381 . S
C1566 C1567 1.394 . S
C1566 H1574 0.930 . S
C1567 C1566 1.394 . S
C1567 C1568 1.383 . S
C1567 H1575 0.929 . S
C1568 C1567 1.383 . S
C1568 C1569 1.377 . S
C1569 H1553 0.930 . S
C1569 C1568 1.377 . S
C1569 C1570 1.379 . S
C1570 H1554 0.931 . S
C1570 C1564 1.383 . S
C1570 C1569 1.379 . S
H1571 C1565 0.959 . S
H1572 C1565 0.961 . S
H1573 C1565 0.960 . S
H1574 C1566 0.930 . S
H1575 C1567 0.929 . S
H1576 C1584 0.929 1_545 S
H1577 C1586 0.930 . S
H1578 C1588 0.930 . S
H1579 C1591 0.929 . S
H1580 C1594 0.930 . S
H1581 C1596 0.960 . S
H1582 C1596 0.960 . S
H1583 C1596 0.960 . S
C1584 H1576 0.929 1_565 S
C1584 C1585 1.377 . S
C1584 C1586 1.384 1_565 S
C1585 C1584 1.377 . S
C1585 C1591 1.390 . S
C1586 H1577 0.930 . S
C1586 C1584 1.384 1_545 S
C1586 C1587 1.372 1_545 S
C1587 C1586 1.372 1_565 S
C1587 C1588 1.400 . S
C1587 C1592 1.492 . S
C1588 H1578 0.930 . S
C1588 C1587 1.400 . S
C1588 C1591 1.386 . S
H1589 C1605 0.930 . S
H1590 C1606 0.931 . S
C1591 H1579 0.929 . S
C1591 C1585 1.390 . S
C1591 C1588 1.386 . S
C1592 C1587 1.492 . S
C1592 C1594 1.391 1_565 S
C1592 C1595 1.404 . S
H1593 C1599 0.930 . S
C1594 H1580 0.930 . S
C1594 C1592 1.391 1_545 S
C1594 C1597 1.403 . S
C1595 C1592 1.404 . S
C1595 C1596 1.524 . S
C1595 C1599 1.400 . S
C1596 H1581 0.960 . S
C1596 H1582 0.960 . S
C1596 H1583 0.960 . S
C1596 C1595 1.524 . S
C1597 C1594 1.403 . S
C1597 C1598 1.392 . S
C1597 C1601 1.495 . S
C1598 C1597 1.392 . S
C1598 C1599 1.385 1_545 S
C1598 C1600 1.478 . S
C1599 H1593 0.930 . S
C1599 C1595 1.400 . S
C1599 C1598 1.385 1_565 S
C1600 C1598 1.478 . S
C1600 C1602 1.381 . S
C1600 C1606 1.383 . S
C1601 C1597 1.495 . S
C1601 H1607 0.959 . S
C1601 H1608 0.961 . S
C1601 H1609 0.960 . S
C1602 C1600 1.381 . S
C1602 C1603 1.394 . S
C1602 H1610 0.930 . S
C1603 C1602 1.394 . S
C1603 C1604 1.383 . S
C1603 H1611 0.929 . S
C1604 C1603 1.383 . S
C1604 C1605 1.377 . S
C1605 H1589 0.930 . S
C1605 C1604 1.377 . S
C1605 C1606 1.379 . S
C1606 H1590 0.931 . S
C1606 C1600 1.383 . S
C1606 C1605 1.379 . S
H1607 C1601 0.959 . S
H1608 C1601 0.961 . S
H1609 C1601 0.960 . S
H1610 C1602 0.930 . S
H1611 C1603 0.929 . S
H1612 C1620 0.929 . S
H1613 C1622 0.930 . S
H1614 C1624 0.930 . S
H1615 C1627 0.929 . S
H1616 C1630 0.930 . S
H1617 C1632 0.960 . S
H1618 C1632 0.960 . S
H1619 C1632 0.960 . S
C1620 H1612 0.929 . S
C1620 C1621 1.377 1_556 S
C1620 C1622 1.384 . S
C1621 C1620 1.377 1_554 S
C1621 C1627 1.390 . S
C1622 H1613 0.930 . S
C1622 C1620 1.384 . S
C1622 C1623 1.372 1_556 S
C1623 C1622 1.372 1_554 S
C1623 C1624 1.400 . S
C1623 C1628 1.490 . S
C1624 H1614 0.930 . S
C1624 C1623 1.400 . S
C1624 C1627 1.386 . S
H1625 C1641 0.930 . S
H1626 C1642 0.931 . S
C1627 H1615 0.929 . S
C1627 C1621 1.390 . S
C1627 C1624 1.386 . S
C1628 C1623 1.490 . S
C1628 C1630 1.395 . S
C1628 C1631 1.403 . S
H1629 C1635 0.930 . S
C1630 H1616 0.930 . S
C1630 C1628 1.395 . S
C1630 C1633 1.403 . S
C1631 C1628 1.403 . S
C1631 C1632 1.524 . S
C1631 C1635 1.400 . S
C1632 H1617 0.960 . S
C1632 H1618 0.960 . S
C1632 H1619 0.960 . S
C1632 C1631 1.524 . S
C1633 C1630 1.403 . S
C1633 C1634 1.392 . S
C1633 C1637 1.495 . S
C1634 C1633 1.392 . S
C1634 C1635 1.385 . S
C1634 C1636 1.478 . S
C1635 H1629 0.930 . S
C1635 C1631 1.400 . S
C1635 C1634 1.385 . S
C1636 C1634 1.478 . S
C1636 C1638 1.381 . S
C1636 C1642 1.383 . S
C1637 C1633 1.495 . S
C1637 H1643 0.959 . S
C1637 H1644 0.961 . S
C1637 H1645 0.960 1_554 S
C1638 C1636 1.381 . S
C1638 C1639 1.394 . S
C1638 H1646 0.930 1_554 S
C1639 C1638 1.394 . S
C1639 C1640 1.383 . S
C1639 H1647 0.929 1_554 S
C1640 C1639 1.383 . S
C1640 C1641 1.377 . S
C1641 H1625 0.930 . S
C1641 C1640 1.377 . S
C1641 C1642 1.379 . S
C1642 H1626 0.931 . S
C1642 C1636 1.383 . S
C1642 C1641 1.379 . S
H1643 C1637 0.959 . S
H1644 C1637 0.961 . S
H1645 C1637 0.960 1_556 S
H1646 C1638 0.930 1_556 S
H1647 C1639 0.929 1_556 S
H1648 C1656 0.929 . S
H1649 C1658 0.930 . S
H1650 C1660 0.930 . S
H1651 C1663 0.929 . S
H1652 C1666 0.930 . S
H1653 C1668 0.960 . S
H1654 C1668 0.960 . S
H1655 C1668 0.960 . S
C1656 H1648 0.929 . S
C1656 C1657 1.377 . S
C1656 C1658 1.384 . S
C1657 C1656 1.377 . S
C1657 C1663 1.390 . S
C1658 H1649 0.930 . S
C1658 C1656 1.384 . S
C1658 C1659 1.372 . S
C1659 C1658 1.372 . S
C1659 C1660 1.400 . S
C1659 C1664 1.490 . S
C1660 H1650 0.930 . S
C1660 C1659 1.400 . S
C1660 C1663 1.386 . S
H1661 C1677 0.930 . S
H1662 C1678 0.931 . S
C1663 H1651 0.929 . S
C1663 C1657 1.390 . S
C1663 C1660 1.386 . S
C1664 C1659 1.490 . S
C1664 C1666 1.395 . S
C1664 C1667 1.403 . S
H1665 C1671 0.930 . S
C1666 H1652 0.930 . S
C1666 C1664 1.395 . S
C1666 C1669 1.403 . S
C1667 C1664 1.403 . S
C1667 C1668 1.524 . S
C1667 C1671 1.400 . S
C1668 H1653 0.960 . S
C1668 H1654 0.960 . S
C1668 H1655 0.960 . S
C1668 C1667 1.524 . S
C1669 C1666 1.403 . S
C1669 C1670 1.392 . S
C1669 C1673 1.495 . S
C1670 C1669 1.392 . S
C1670 C1671 1.385 . S
C1670 C1672 1.478 . S
C1671 H1665 0.930 . S
C1671 C1667 1.400 . S
C1671 C1670 1.385 . S
C1672 C1670 1.478 . S
C1672 C1674 1.381 . S
C1672 C1678 1.383 . S
C1673 C1669 1.495 . S
C1673 H1679 0.959 . S
C1673 H1680 0.961 . S
C1673 H1681 0.960 . S
C1674 C1672 1.381 . S
C1674 C1675 1.394 . S
C1674 H1682 0.930 . S
C1675 C1674 1.394 . S
C1675 C1676 1.383 . S
C1675 H1683 0.929 . S
C1676 C1675 1.383 . S
C1676 C1677 1.377 . S
C1677 H1661 0.930 . S
C1677 C1676 1.377 . S
C1677 C1678 1.379 . S
C1678 H1662 0.931 . S
C1678 C1672 1.383 . S
C1678 C1677 1.379 . S
H1679 C1673 0.959 . S
H1680 C1673 0.961 . S
H1681 C1673 0.960 . S
H1682 C1674 0.930 . S
H1683 C1675 0.929 . S
H1684 C1692 0.929 . S
H1685 C1694 0.930 . S
H1686 C1696 0.930 . S
H1687 C1699 0.929 . S
H1688 C1702 0.930 . S
H1689 C1704 0.960 . S
H1690 C1704 0.960 . S
H1691 C1704 0.960 . S
C1692 H1684 0.929 . S
C1692 C1693 1.377 . S
C1692 C1694 1.384 . S
C1693 C1692 1.377 . S
C1693 C1699 1.390 . S
C1694 H1685 0.930 . S
C1694 C1692 1.384 . S
C1694 C1695 1.372 . S
C1695 C1694 1.372 . S
C1695 C1696 1.400 . S
C1695 C1700 1.490 . S
C1696 H1686 0.930 . S
C1696 C1695 1.400 . S
C1696 C1699 1.386 . S
H1697 C1713 0.930 . S
H1698 C1714 0.931 . S
C1699 H1687 0.929 . S
C1699 C1693 1.390 . S
C1699 C1696 1.386 . S
C1700 C1695 1.490 . S
C1700 C1702 1.395 . S
C1700 C1703 1.403 . S
H1701 C1707 0.930 . S
C1702 H1688 0.930 . S
C1702 C1700 1.395 . S
C1702 C1705 1.403 . S
C1703 C1700 1.403 . S
C1703 C1704 1.524 . S
C1703 C1707 1.400 . S
C1704 H1689 0.960 . S
C1704 H1690 0.960 . S
C1704 H1691 0.960 . S
C1704 C1703 1.524 . S
C1705 C1702 1.403 . S
C1705 C1706 1.392 . S
C1705 C1709 1.495 . S
C1706 C1705 1.392 . S
C1706 C1707 1.385 . S
C1706 C1708 1.478 . S
C1707 H1701 0.930 . S
C1707 C1703 1.400 . S
C1707 C1706 1.385 . S
C1708 C1706 1.478 . S
C1708 C1710 1.381 . S
C1708 C1714 1.383 . S
C1709 C1705 1.495 . S
C1709 H1715 0.959 . S
C1709 H1716 0.961 . S
C1709 H1717 0.960 . S
C1710 C1708 1.381 . S
C1710 C1711 1.394 . S
C1710 H1718 0.930 . S
C1711 C1710 1.394 . S
C1711 C1712 1.383 . S
C1711 H1719 0.929 . S
C1712 C1711 1.383 . S
C1712 C1713 1.377 . S
C1713 H1697 0.930 . S
C1713 C1712 1.377 . S
C1713 C1714 1.379 . S
C1714 H1698 0.931 . S
C1714 C1708 1.383 . S
C1714 C1713 1.379 . S
H1715 C1709 0.959 . S
H1716 C1709 0.961 . S
H1717 C1709 0.960 . S
H1718 C1710 0.930 . S
H1719 C1711 0.929 . S
H1720 C1728 0.929 . S
H1721 C1730 0.930 . S
H1722 C1732 0.930 . S
H1723 C1735 0.929 . S
H1724 C1738 0.930 . S
H1725 C1740 0.960 . S
H1726 C1740 0.960 . S
H1727 C1740 0.960 . S
C1728 H1720 0.929 . S
C1728 C1729 1.377 . S
C1728 C1730 1.384 . S
C1729 C1728 1.377 . S
C1729 C1735 1.390 . S
C1730 H1721 0.930 . S
C1730 C1728 1.384 . S
C1730 C1731 1.372 . S
C1731 C1730 1.372 . S
C1731 C1732 1.400 . S
C1731 C1736 1.490 . S
C1732 H1722 0.930 . S
C1732 C1731 1.400 . S
C1732 C1735 1.386 . S
H1733 C1749 0.930 . S
H1734 C1750 0.931 . S
C1735 H1723 0.929 . S
C1735 C1729 1.390 . S
C1735 C1732 1.386 . S
C1736 C1731 1.490 . S
C1736 C1738 1.395 . S
C1736 C1739 1.403 . S
H1737 C1743 0.930 . S
C1738 H1724 0.930 . S
C1738 C1736 1.395 . S
C1738 C1741 1.403 . S
C1739 C1736 1.403 . S
C1739 C1740 1.524 . S
C1739 C1743 1.400 . S
C1740 H1725 0.960 . S
C1740 H1726 0.960 . S
C1740 H1727 0.960 . S
C1740 C1739 1.524 . S
C1741 C1738 1.403 . S
C1741 C1742 1.392 . S
C1741 C1745 1.495 . S
C1742 C1741 1.392 . S
C1742 C1743 1.385 . S
C1742 C1744 1.478 . S
C1743 H1737 0.930 . S
C1743 C1739 1.400 . S
C1743 C1742 1.385 . S
C1744 C1742 1.478 . S
C1744 C1746 1.381 . S
C1744 C1750 1.383 . S
C1745 C1741 1.495 . S
C1745 H1751 0.959 . S
C1745 H1752 0.961 . S
C1745 H1753 0.960 . S
C1746 C1744 1.381 . S
C1746 C1747 1.394 . S
C1746 H1754 0.930 . S
C1747 C1746 1.394 . S
C1747 C1748 1.383 . S
C1747 H1755 0.929 . S
C1748 C1747 1.383 . S
C1748 C1749 1.377 . S
C1749 H1733 0.930 . S
C1749 C1748 1.377 . S
C1749 C1750 1.379 . S
C1750 H1734 0.931 . S
C1750 C1744 1.383 . S
C1750 C1749 1.379 . S
H1751 C1745 0.959 . S
H1752 C1745 0.961 . S
H1753 C1745 0.960 . S
H1754 C1746 0.930 . S
H1755 C1747 0.929 . S
H1756 C1764 0.929 . S
H1757 C1766 0.930 . S
H1758 C1768 0.930 . S
H1759 C1771 0.929 . S
H1760 C1774 0.930 . S
H1761 C1776 0.960 . S
H1762 C1776 0.960 . S
H1763 C1776 0.960 . S
C1764 H1756 0.929 . S
C1764 C1765 1.377 . S
C1764 C1766 1.384 . S
C1765 C1764 1.377 . S
C1765 C1771 1.390 . S
C1766 H1757 0.930 . S
C1766 C1764 1.384 . S
C1766 C1767 1.372 . S
C1767 C1766 1.372 . S
C1767 C1768 1.400 . S
C1767 C1772 1.490 . S
C1768 H1758 0.930 . S
C1768 C1767 1.400 . S
C1768 C1771 1.386 . S
H1769 C1785 0.930 . S
H1770 C1786 0.931 . S
C1771 H1759 0.929 . S
C1771 C1765 1.390 . S
C1771 C1768 1.386 . S
C1772 C1767 1.490 . S
C1772 C1774 1.395 . S
C1772 C1775 1.403 . S
H1773 C1779 0.930 . S
C1774 H1760 0.930 . S
C1774 C1772 1.395 . S
C1774 C1777 1.403 . S
C1775 C1772 1.403 . S
C1775 C1776 1.524 . S
C1775 C1779 1.400 . S
C1776 H1761 0.960 . S
C1776 H1762 0.960 . S
C1776 H1763 0.960 . S
C1776 C1775 1.524 . S
C1777 C1774 1.403 . S
C1777 C1778 1.392 . S
C1777 C1781 1.495 . S
C1778 C1777 1.392 . S
C1778 C1779 1.385 . S
C1778 C1780 1.478 . S
C1779 H1773 0.930 . S
C1779 C1775 1.400 . S
C1779 C1778 1.385 . S
C1780 C1778 1.478 . S
C1780 C1782 1.381 . S
C1780 C1786 1.383 . S
C1781 C1777 1.495 . S
C1781 H1787 0.959 . S
C1781 H1788 0.961 . S
C1781 H1789 0.960 . S
C1782 C1780 1.381 . S
C1782 C1783 1.394 . S
C1782 H1790 0.930 . S
C1783 C1782 1.394 . S
C1783 C1784 1.383 . S
C1783 H1791 0.929 . S
C1784 C1783 1.383 . S
C1784 C1785 1.377 . S
C1785 H1769 0.930 . S
C1785 C1784 1.377 . S
C1785 C1786 1.379 . S
C1786 H1770 0.931 . S
C1786 C1780 1.383 . S
C1786 C1785 1.379 . S
H1787 C1781 0.959 . S
H1788 C1781 0.961 . S
H1789 C1781 0.960 . S
H1790 C1782 0.930 . S
H1791 C1783 0.929 . S
H1792 C1800 0.929 . S
H1793 C1802 0.930 . S
H1794 C1804 0.930 . S
H1795 C1807 0.929 . S
H1796 C1810 0.930 . S
H1797 C1812 0.960 . S
H1798 C1812 0.960 . S
H1799 C1812 0.960 . S
C1800 H1792 0.929 . S
C1800 C1801 1.377 . S
C1800 C1802 1.384 . S
C1801 C1800 1.377 . S
C1801 C1807 1.390 . S
C1802 H1793 0.930 . S
C1802 C1800 1.384 . S
C1802 C1803 1.372 . S
C1803 C1802 1.372 . S
C1803 C1804 1.400 . S
C1803 C1808 1.490 . S
C1804 H1794 0.930 . S
C1804 C1803 1.400 . S
C1804 C1807 1.386 . S
H1805 C1821 0.930 . S
H1806 C1822 0.931 . S
C1807 H1795 0.929 . S
C1807 C1801 1.390 . S
C1807 C1804 1.386 . S
C1808 C1803 1.490 . S
C1808 C1810 1.395 . S
C1808 C1811 1.403 . S
H1809 C1815 0.930 . S
C1810 H1796 0.930 . S
C1810 C1808 1.395 . S
C1810 C1813 1.403 . S
C1811 C1808 1.403 . S
C1811 C1812 1.524 . S
C1811 C1815 1.400 . S
C1812 H1797 0.960 . S
C1812 H1798 0.960 . S
C1812 H1799 0.960 . S
C1812 C1811 1.524 . S
C1813 C1810 1.403 . S
C1813 C1814 1.392 . S
C1813 C1817 1.495 . S
C1814 C1813 1.392 . S
C1814 C1815 1.385 . S
C1814 C1816 1.478 . S
C1815 H1809 0.930 . S
C1815 C1811 1.400 . S
C1815 C1814 1.385 . S
C1816 C1814 1.478 . S
C1816 C1818 1.381 . S
C1816 C1822 1.383 . S
C1817 C1813 1.495 . S
C1817 H1823 0.959 . S
C1817 H1824 0.961 . S
C1817 H1825 0.960 . S
C1818 C1816 1.381 . S
C1818 C1819 1.394 . S
C1818 H1826 0.930 . S
C1819 C1818 1.394 . S
C1819 C1820 1.383 . S
C1819 H1827 0.929 . S
C1820 C1819 1.383 . S
C1820 C1821 1.377 . S
C1821 H1805 0.930 . S
C1821 C1820 1.377 . S
C1821 C1822 1.379 . S
C1822 H1806 0.931 . S
C1822 C1816 1.383 . S
C1822 C1821 1.379 . S
H1823 C1817 0.959 . S
H1824 C1817 0.961 . S
H1825 C1817 0.960 . S
H1826 C1818 0.930 . S
H1827 C1819 0.929 . S
H1828 C1836 0.929 . S
H1829 C1838 0.930 . S
H1830 C1840 0.930 . S
H1831 C1843 0.929 . S
H1832 C1846 0.930 . S
H1833 C1848 0.960 . S
H1834 C1848 0.960 . S
H1835 C1848 0.960 . S
C1836 H1828 0.929 . S
C1836 C1837 1.377 . S
C1836 C1838 1.384 . S
C1837 C1836 1.377 . S
C1837 C1843 1.390 . S
C1838 H1829 0.930 . S
C1838 C1836 1.384 . S
C1838 C1839 1.372 . S
C1839 C1838 1.372 . S
C1839 C1840 1.400 . S
C1839 C1844 1.490 . S
C1840 H1830 0.930 . S
C1840 C1839 1.400 . S
C1840 C1843 1.386 . S
H1841 C1857 0.930 . S
H1842 C1858 0.931 . S
C1843 H1831 0.929 . S
C1843 C1837 1.390 . S
C1843 C1840 1.386 . S
C1844 C1839 1.490 . S
C1844 C1846 1.395 . S
C1844 C1847 1.403 . S
H1845 C1851 0.930 . S
C1846 H1832 0.930 . S
C1846 C1844 1.395 . S
C1846 C1849 1.403 . S
C1847 C1844 1.403 . S
C1847 C1848 1.524 . S
C1847 C1851 1.400 . S
C1848 H1833 0.960 . S
C1848 H1834 0.960 . S
C1848 H1835 0.960 . S
C1848 C1847 1.524 . S
C1849 C1846 1.403 . S
C1849 C1850 1.392 . S
C1849 C1853 1.495 . S
C1850 C1849 1.392 . S
C1850 C1851 1.385 . S
C1850 C1852 1.478 . S
C1851 H1845 0.930 . S
C1851 C1847 1.400 . S
C1851 C1850 1.385 . S
C1852 C1850 1.478 . S
C1852 C1854 1.381 . S
C1852 C1858 1.383 . S
C1853 C1849 1.495 . S
C1853 H1859 0.959 . S
C1853 H1860 0.961 . S
C1853 H1861 0.960 . S
C1854 C1852 1.381 . S
C1854 C1855 1.394 . S
C1854 H1862 0.930 . S
C1855 C1854 1.394 . S
C1855 C1856 1.383 . S
C1855 H1863 0.929 . S
C1856 C1855 1.383 . S
C1856 C1857 1.377 . S
C1857 H1841 0.930 . S
C1857 C1856 1.377 . S
C1857 C1858 1.379 . S
C1858 H1842 0.931 . S
C1858 C1852 1.383 . S
C1858 C1857 1.379 . S
H1859 C1853 0.959 . S
H1860 C1853 0.961 . S
H1861 C1853 0.960 . S
H1862 C1854 0.930 . S
H1863 C1855 0.929 . S
H1864 C1872 0.929 . S
H1865 C1874 0.930 . S
H1866 C1876 0.930 . S
H1867 C1879 0.929 . S
H1868 C1882 0.930 . S
H1869 C1884 0.960 . S
H1870 C1884 0.960 . S
H1871 C1884 0.960 . S
C1872 H1864 0.929 . S
C1872 C1873 1.377 . S
C1872 C1874 1.384 . S
C1873 C1872 1.377 . S
C1873 C1879 1.390 . S
C1874 H1865 0.930 . S
C1874 C1872 1.384 . S
C1874 C1875 1.372 . S
C1875 C1874 1.372 . S
C1875 C1876 1.400 . S
C1875 C1880 1.490 . S
C1876 H1866 0.930 . S
C1876 C1875 1.400 . S
C1876 C1879 1.386 . S
H1877 C1893 0.930 . S
H1878 C1894 0.931 . S
C1879 H1867 0.929 . S
C1879 C1873 1.390 . S
C1879 C1876 1.386 . S
C1880 C1875 1.490 . S
C1880 C1882 1.395 . S
C1880 C1883 1.403 . S
H1881 C1887 0.930 . S
C1882 H1868 0.930 . S
C1882 C1880 1.395 . S
C1882 C1885 1.403 . S
C1883 C1880 1.403 . S
C1883 C1884 1.524 . S
C1883 C1887 1.400 . S
C1884 H1869 0.960 . S
C1884 H1870 0.960 . S
C1884 H1871 0.960 . S
C1884 C1883 1.524 . S
C1885 C1882 1.403 . S
C1885 C1886 1.392 . S
C1885 C1889 1.495 . S
C1886 C1885 1.392 . S
C1886 C1887 1.385 . S
C1886 C1888 1.478 . S
C1887 H1881 0.930 . S
C1887 C1883 1.400 . S
C1887 C1886 1.385 . S
C1888 C1886 1.478 . S
C1888 C1890 1.381 . S
C1888 C1894 1.383 . S
C1889 C1885 1.495 . S
C1889 H1895 0.959 . S
C1889 H1896 0.961 . S
C1889 H1897 0.960 . S
C1890 C1888 1.381 . S
C1890 C1891 1.394 . S
C1890 H1898 0.930 . S
C1891 C1890 1.394 . S
C1891 C1892 1.383 . S
C1891 H1899 0.929 . S
C1892 C1891 1.383 . S
C1892 C1893 1.377 . S
C1893 H1877 0.930 . S
C1893 C1892 1.377 . S
C1893 C1894 1.379 . S
C1894 H1878 0.931 . S
C1894 C1888 1.383 . S
C1894 C1893 1.379 . S
H1895 C1889 0.959 . S
H1896 C1889 0.961 . S
H1897 C1889 0.960 . S
H1898 C1890 0.930 . S
H1899 C1891 0.929 . S
H1900 C1908 0.929 . S
H1901 C1910 0.930 . S
H1902 C1912 0.930 . S
H1903 C1915 0.929 . S
H1904 C1918 0.930 . S
H1905 C1920 0.960 . S
H1906 C1920 0.960 . S
H1907 C1920 0.960 . S
C1908 H1900 0.929 . S
C1908 C1909 1.377 . S
C1908 C1910 1.384 . S
C1909 C1908 1.377 . S
C1909 C1915 1.390 . S
C1910 H1901 0.930 . S
C1910 C1908 1.384 . S
C1910 C1911 1.372 . S
C1911 C1910 1.372 . S
C1911 C1912 1.400 . S
C1911 C1916 1.490 . S
C1912 H1902 0.930 . S
C1912 C1911 1.400 . S
C1912 C1915 1.386 . S
H1913 C1929 0.930 . S
H1914 C1930 0.931 . S
C1915 H1903 0.929 . S
C1915 C1909 1.390 . S
C1915 C1912 1.386 . S
C1916 C1911 1.490 . S
C1916 C1918 1.395 . S
C1916 C1919 1.403 . S
H1917 C1923 0.930 . S
C1918 H1904 0.930 . S
C1918 C1916 1.395 . S
C1918 C1921 1.403 . S
C1919 C1916 1.403 . S
C1919 C1920 1.524 . S
C1919 C1923 1.400 . S
C1920 H1905 0.960 . S
C1920 H1906 0.960 . S
C1920 H1907 0.960 . S
C1920 C1919 1.524 . S
C1921 C1918 1.403 . S
C1921 C1922 1.392 . S
C1921 C1925 1.495 . S
C1922 C1921 1.392 . S
C1922 C1923 1.385 . S
C1922 C1924 1.478 . S
C1923 H1917 0.930 . S
C1923 C1919 1.400 . S
C1923 C1922 1.385 . S
C1924 C1922 1.478 . S
C1924 C1926 1.381 . S
C1924 C1930 1.383 . S
C1925 C1921 1.495 . S
C1925 H1931 0.959 . S
C1925 H1932 0.961 . S
C1925 H1933 0.960 . S
C1926 C1924 1.381 . S
C1926 C1927 1.394 . S
C1926 H1934 0.930 . S
C1927 C1926 1.394 . S
C1927 C1928 1.383 . S
C1927 H1935 0.929 . S
C1928 C1927 1.383 . S
C1928 C1929 1.377 . S
C1929 H1913 0.930 . S
C1929 C1928 1.377 . S
C1929 C1930 1.379 . S
C1930 H1914 0.931 . S
C1930 C1924 1.383 . S
C1930 C1929 1.379 . S
H1931 C1925 0.959 . S
H1932 C1925 0.961 . S
H1933 C1925 0.960 . S
H1934 C1926 0.930 . S
H1935 C1927 0.929 . S
H1936 C1944 0.929 . S
H1937 C1946 0.930 . S
H1938 C1948 0.930 . S
H1939 C1951 0.929 . S
H1940 C1954 0.930 . S
H1941 C1956 0.960 . S
H1942 C1956 0.960 . S
H1943 C1956 0.960 . S
C1944 H1936 0.929 . S
C1944 C1945 1.377 . S
C1944 C1946 1.384 . S
C1945 C1944 1.377 . S
C1945 C1951 1.390 . S
C1946 H1937 0.930 . S
C1946 C1944 1.384 . S
C1946 C1947 1.372 . S
C1947 C1946 1.372 . S
C1947 C1948 1.400 . S
C1947 C1952 1.490 . S
C1948 H1938 0.930 . S
C1948 C1947 1.400 . S
C1948 C1951 1.386 . S
H1949 C1965 0.930 . S
H1950 C1966 0.931 . S
C1951 H1939 0.929 . S
C1951 C1945 1.390 . S
C1951 C1948 1.386 . S
C1952 C1947 1.490 . S
C1952 C1954 1.395 . S
C1952 C1955 1.403 . S
H1953 C1959 0.930 . S
C1954 H1940 0.930 . S
C1954 C1952 1.395 . S
C1954 C1957 1.403 . S
C1955 C1952 1.403 . S
C1955 C1956 1.524 . S
C1955 C1959 1.400 . S
C1956 H1941 0.960 . S
C1956 H1942 0.960 . S
C1956 H1943 0.960 . S
C1956 C1955 1.524 . S
C1957 C1954 1.403 . S
C1957 C1958 1.392 . S
C1957 C1961 1.495 . S
C1958 C1957 1.392 . S
C1958 C1959 1.385 . S
C1958 C1960 1.478 . S
C1959 H1953 0.930 . S
C1959 C1955 1.400 . S
C1959 C1958 1.385 . S
C1960 C1958 1.478 . S
C1960 C1962 1.381 . S
C1960 C1966 1.383 . S
C1961 C1957 1.495 . S
C1961 H1967 0.959 . S
C1961 H1968 0.961 . S
C1961 H1969 0.960 . S
C1962 C1960 1.381 . S
C1962 C1963 1.394 . S
C1962 H1970 0.930 . S
C1963 C1962 1.394 . S
C1963 C1964 1.383 . S
C1963 H1971 0.929 . S
C1964 C1963 1.383 . S
C1964 C1965 1.377 . S
C1965 H1949 0.930 . S
C1965 C1964 1.377 . S
C1965 C1966 1.379 . S
C1966 H1950 0.931 . S
C1966 C1960 1.383 . S
C1966 C1965 1.379 . S
H1967 C1961 0.959 . S
H1968 C1961 0.961 . S
H1969 C1961 0.960 . S
H1970 C1962 0.930 . S
H1971 C1963 0.929 . S
H1972 C1980 0.929 . S
H1973 C1982 0.930 . S
H1974 C1984 0.930 . S
H1975 C1987 0.929 . S
H1976 C1990 0.930 . S
H1977 C1992 0.960 . S
H1978 C1992 0.960 . S
H1979 C1992 0.960 . S
C1980 H1972 0.929 . S
C1980 C1981 1.377 . S
C1980 C1982 1.384 . S
C1981 C1980 1.377 . S
C1981 C1987 1.390 . S
C1982 H1973 0.930 . S
C1982 C1980 1.384 . S
C1982 C1983 1.372 . S
C1983 C1982 1.372 . S
C1983 C1984 1.400 . S
C1983 C1988 1.490 . S
C1984 H1974 0.930 . S
C1984 C1983 1.400 . S
C1984 C1987 1.386 . S
H1985 C2001 0.930 . S
H1986 C2002 0.931 . S
C1987 H1975 0.929 . S
C1987 C1981 1.390 . S
C1987 C1984 1.386 . S
C1988 C1983 1.490 . S
C1988 C1990 1.395 . S
C1988 C1991 1.403 . S
H1989 C1995 0.930 . S
C1990 H1976 0.930 . S
C1990 C1988 1.395 . S
C1990 C1993 1.403 . S
C1991 C1988 1.403 . S
C1991 C1992 1.524 . S
C1991 C1995 1.400 . S
C1992 H1977 0.960 . S
C1992 H1978 0.960 . S
C1992 H1979 0.960 . S
C1992 C1991 1.524 . S
C1993 C1990 1.403 . S
C1993 C1994 1.392 . S
C1993 C1997 1.495 . S
C1994 C1993 1.392 . S
C1994 C1995 1.385 . S
C1994 C1996 1.478 . S
C1995 H1989 0.930 . S
C1995 C1991 1.400 . S
C1995 C1994 1.385 . S
C1996 C1994 1.478 . S
C1996 C1998 1.381 . S
C1996 C2002 1.383 1_554 S
C1997 C1993 1.495 . S
C1997 H2003 0.959 . S
C1997 H2004 0.961 1_554 S
C1997 H2005 0.960 . S
C1998 C1996 1.381 . S
C1998 C1999 1.394 . S
C1998 H2006 0.930 . S
C1999 C1998 1.394 . S
C1999 C2000 1.383 . S
C1999 H2007 0.929 . S
C2000 C1999 1.383 . S
C2000 C2001 1.377 1_554 S
C2001 H1985 0.930 . S
C2001 C2000 1.377 1_556 S
C2001 C2002 1.379 . S
C2002 H1986 0.931 . S
C2002 C1996 1.383 1_556 S
C2002 C2001 1.379 . S
H2003 C1997 0.959 . S
H2004 C1997 0.961 1_556 S
H2005 C1997 0.960 . S
H2006 C1998 0.930 . S
H2007 C1999 0.929 . S
H2008 C2016 0.929 . S
H2009 C2018 0.930 . S
H2010 C2020 0.930 . S
H2011 C2023 0.929 . S
H2012 C2026 0.930 . S
H2013 C2028 0.960 . S
H2014 C2028 0.960 . S
H2015 C2028 0.960 . S
C2016 H2008 0.929 . S
C2016 C2017 1.377 . S
C2016 C2018 1.384 . S
C2017 C2016 1.377 . S
C2017 C2023 1.390 . S
C2018 H2009 0.930 . S
C2018 C2016 1.384 . S
C2018 C2019 1.372 . S
C2019 C2018 1.372 . S
C2019 C2020 1.400 . S
C2019 C2024 1.490 . S
C2020 H2010 0.930 . S
C2020 C2019 1.400 . S
C2020 C2023 1.386 . S
H2021 C2037 0.930 . S
H2022 C2038 0.931 . S
C2023 H2011 0.929 . S
C2023 C2017 1.390 . S
C2023 C2020 1.386 . S
C2024 C2019 1.490 . S
C2024 C2026 1.395 . S
C2024 C2027 1.403 . S
H2025 C2031 0.930 . S
C2026 H2012 0.930 . S
C2026 C2024 1.395 . S
C2026 C2029 1.403 . S
C2027 C2024 1.403 . S
C2027 C2028 1.524 . S
C2027 C2031 1.400 . S
C2028 H2013 0.960 . S
C2028 H2014 0.960 . S
C2028 H2015 0.960 . S
C2028 C2027 1.524 . S
C2029 C2026 1.403 . S
C2029 C2030 1.392 . S
C2029 C2033 1.495 . S
C2030 C2029 1.392 . S
C2030 C2031 1.385 . S
C2030 C2032 1.478 . S
C2031 H2025 0.930 . S
C2031 C2027 1.400 . S
C2031 C2030 1.385 . S
C2032 C2030 1.478 . S
C2032 C2034 1.381 . S
C2032 C2038 1.383 . S
C2033 C2029 1.495 . S
C2033 H2039 0.959 . S
C2033 H2040 0.961 . S
C2033 H2041 0.960 . S
C2034 C2032 1.381 . S
C2034 C2035 1.394 . S
C2034 H2042 0.930 . S
C2035 C2034 1.394 . S
C2035 C2036 1.383 . S
C2035 H2043 0.929 . S
C2036 C2035 1.383 . S
C2036 C2037 1.377 . S
C2037 H2021 0.930 . S
C2037 C2036 1.377 . S
C2037 C2038 1.379 . S
C2038 H2022 0.931 . S
C2038 C2032 1.383 . S
C2038 C2037 1.379 . S
H2039 C2033 0.959 . S
H2040 C2033 0.961 . S
H2041 C2033 0.960 . S
H2042 C2034 0.930 . S
H2043 C2035 0.929 . S
H2044 C2052 0.929 . S
H2045 C2054 0.930 . S
H2046 C2056 0.930 . S
H2047 C2059 0.929 . S
H2048 C2062 0.930 . S
H2049 C2064 0.960 . S
H2050 C2064 0.960 . S
H2051 C2064 0.960 . S
C2052 H2044 0.929 . S
C2052 C2053 1.377 . S
C2052 C2054 1.384 . S
C2053 C2052 1.377 . S
C2053 C2059 1.390 . S
C2054 H2045 0.930 . S
C2054 C2052 1.384 . S
C2054 C2055 1.372 . S
C2055 C2054 1.372 . S
C2055 C2056 1.400 . S
C2055 C2060 1.490 . S
C2056 H2046 0.930 . S
C2056 C2055 1.400 . S
C2056 C2059 1.386 . S
H2057 C2073 0.930 . S
H2058 C2074 0.931 . S
C2059 H2047 0.929 . S
C2059 C2053 1.390 . S
C2059 C2056 1.386 . S
C2060 C2055 1.490 . S
C2060 C2062 1.395 . S
C2060 C2063 1.403 . S
H2061 C2067 0.930 . S
C2062 H2048 0.930 . S
C2062 C2060 1.395 . S
C2062 C2065 1.403 . S
C2063 C2060 1.403 . S
C2063 C2064 1.524 . S
C2063 C2067 1.400 . S
C2064 H2049 0.960 . S
C2064 H2050 0.960 . S
C2064 H2051 0.960 . S
C2064 C2063 1.524 . S
C2065 C2062 1.403 . S
C2065 C2066 1.392 . S
C2065 C2069 1.495 . S
C2066 C2065 1.392 . S
C2066 C2067 1.385 . S
C2066 C2068 1.478 . S
C2067 H2061 0.930 . S
C2067 C2063 1.400 . S
C2067 C2066 1.385 . S
C2068 C2066 1.478 . S
C2068 C2070 1.381 . S
C2068 C2074 1.383 . S
C2069 C2065 1.495 . S
C2069 H2075 0.959 . S
C2069 H2076 0.961 . S
C2069 H2077 0.960 . S
C2070 C2068 1.381 . S
C2070 C2071 1.394 . S
C2070 H2078 0.930 . S
C2071 C2070 1.394 . S
C2071 C2072 1.383 . S
C2071 H2079 0.929 . S
C2072 C2071 1.383 . S
C2072 C2073 1.377 . S
C2073 H2057 0.930 . S
C2073 C2072 1.377 . S
C2073 C2074 1.379 . S
C2074 H2058 0.931 . S
C2074 C2068 1.383 . S
C2074 C2073 1.379 . S
H2075 C2069 0.959 . S
H2076 C2069 0.961 . S
H2077 C2069 0.960 . S
H2078 C2070 0.930 . S
H2079 C2071 0.929 . S
H2080 C2088 0.929 . S
H2081 C2090 0.930 . S
H2082 C2092 0.930 . S
H2083 C2095 0.929 . S
H2084 C2098 0.930 . S
H2085 C2100 0.960 . S
H2086 C2100 0.960 . S
H2087 C2100 0.960 . S
C2088 H2080 0.929 . S
C2088 C2089 1.377 . S
C2088 C2090 1.384 . S
C2089 C2088 1.377 . S
C2089 C2095 1.390 . S
C2090 H2081 0.930 . S
C2090 C2088 1.384 . S
C2090 C2091 1.372 . S
C2091 C2090 1.372 . S
C2091 C2092 1.400 . S
C2091 C2096 1.490 . S
C2092 H2082 0.930 . S
C2092 C2091 1.400 . S
C2092 C2095 1.386 . S
H2093 C2109 0.930 . S
H2094 C2110 0.931 . S
C2095 H2083 0.929 . S
C2095 C2089 1.390 . S
C2095 C2092 1.386 . S
C2096 C2091 1.490 . S
C2096 C2098 1.395 . S
C2096 C2099 1.403 . S
H2097 C2103 0.930 . S
C2098 H2084 0.930 . S
C2098 C2096 1.395 . S
C2098 C2101 1.403 . S
C2099 C2096 1.403 . S
C2099 C2100 1.524 . S
C2099 C2103 1.400 . S
C2100 H2085 0.960 . S
C2100 H2086 0.960 . S
C2100 H2087 0.960 . S
C2100 C2099 1.524 . S
C2101 C2098 1.403 . S
C2101 C2102 1.392 . S
C2101 C2105 1.495 . S
C2102 C2101 1.392 . S
C2102 C2103 1.385 . S
C2102 C2104 1.478 . S
C2103 H2097 0.930 . S
C2103 C2099 1.400 . S
C2103 C2102 1.385 . S
C2104 C2102 1.478 . S
C2104 C2106 1.381 . S
C2104 C2110 1.383 . S
C2105 C2101 1.495 . S
C2105 H2111 0.959 . S
C2105 H2112 0.961 . S
C2105 H2113 0.960 . S
C2106 C2104 1.381 . S
C2106 C2107 1.394 . S
C2106 H2114 0.930 . S
C2107 C2106 1.394 . S
C2107 C2108 1.383 . S
C2107 H2115 0.929 . S
C2108 C2107 1.383 . S
C2108 C2109 1.377 . S
C2109 H2093 0.930 . S
C2109 C2108 1.377 . S
C2109 C2110 1.379 . S
C2110 H2094 0.931 . S
C2110 C2104 1.383 . S
C2110 C2109 1.379 . S
H2111 C2105 0.959 . S
H2112 C2105 0.961 . S
H2113 C2105 0.960 . S
H2114 C2106 0.930 . S
H2115 C2107 0.929 . S
H2116 C2124 0.929 . S
H2117 C2126 0.930 . S
H2118 C2128 0.930 . S
H2119 C2131 0.929 . S
H2120 C2134 0.930 . S
H2121 C2136 0.960 . S
H2122 C2136 0.960 . S
H2123 C2136 0.960 . S
C2124 H2116 0.929 . S
C2124 C2125 1.377 . S
C2124 C2126 1.384 . S
C2125 C2124 1.377 . S
C2125 C2131 1.390 . S
C2126 H2117 0.930 . S
C2126 C2124 1.384 . S
C2126 C2127 1.372 . S
C2127 C2126 1.372 . S
C2127 C2128 1.400 . S
C2127 C2132 1.490 . S
C2128 H2118 0.930 . S
C2128 C2127 1.400 . S
C2128 C2131 1.386 . S
H2129 C2145 0.930 . S
H2130 C2146 0.931 . S
C2131 H2119 0.929 . S
C2131 C2125 1.390 . S
C2131 C2128 1.386 . S
C2132 C2127 1.490 . S
C2132 C2134 1.395 . S
C2132 C2135 1.403 . S
H2133 C2139 0.930 . S
C2134 H2120 0.930 . S
C2134 C2132 1.395 . S
C2134 C2137 1.403 . S
C2135 C2132 1.403 . S
C2135 C2136 1.524 . S
C2135 C2139 1.400 . S
C2136 H2121 0.960 . S
C2136 H2122 0.960 . S
C2136 H2123 0.960 . S
C2136 C2135 1.524 . S
C2137 C2134 1.403 . S
C2137 C2138 1.392 . S
C2137 C2141 1.495 . S
C2138 C2137 1.392 . S
C2138 C2139 1.385 . S
C2138 C2140 1.478 . S
C2139 H2133 0.930 . S
C2139 C2135 1.400 . S
C2139 C2138 1.385 . S
C2140 C2138 1.478 . S
C2140 C2142 1.381 . S
C2140 C2146 1.383 . S
C2141 C2137 1.495 . S
C2141 H2147 0.959 . S
C2141 H2148 0.961 . S
C2141 H2149 0.960 . S
C2142 C2140 1.381 . S
C2142 C2143 1.394 . S
C2142 H2150 0.930 . S
C2143 C2142 1.394 . S
C2143 C2144 1.383 . S
C2143 H2151 0.929 . S
C2144 C2143 1.383 . S
C2144 C2145 1.377 . S
C2145 H2129 0.930 . S
C2145 C2144 1.377 . S
C2145 C2146 1.379 . S
C2146 H2130 0.931 . S
C2146 C2140 1.383 . S
C2146 C2145 1.379 . S
H2147 C2141 0.959 . S
H2148 C2141 0.961 . S
H2149 C2141 0.960 . S
H2150 C2142 0.930 . S
H2151 C2143 0.929 . S
H2152 C2160 0.929 . S
H2153 C2162 0.930 . S
H2154 C2164 0.926 1_554 S
H2155 C2167 0.917 1_554 S
H2156 C2170 0.930 . S
H2157 C2172 0.960 . S
H2158 C2172 0.960 . S
H2159 C2172 0.960 . S
C2160 H2152 0.929 . S
C2160 C2161 1.377 . S
C2160 C2162 1.384 . S
C2161 C2160 1.377 . S
C2161 C2167 1.394 . S
C2162 H2153 0.930 . S
C2162 C2160 1.384 . S
C2162 C2163 1.372 . S
C2163 C2162 1.372 . S
C2163 C2164 1.400 . S
C2163 C2168 1.490 . S
C2164 H2154 0.926 1_556 S
C2164 C2163 1.400 . S
C2164 C2167 1.395 . S
H2165 C2181 0.930 . S
H2166 C2182 0.931 . S
C2167 H2155 0.917 1_556 S
C2167 C2161 1.394 . S
C2167 C2164 1.395 . S
C2168 C2163 1.490 . S
C2168 C2170 1.395 . S
C2168 C2171 1.403 1_556 S
H2169 C2175 0.930 1_554 S
C2170 H2156 0.930 . S
C2170 C2168 1.395 . S
C2170 C2173 1.403 . S
C2171 C2168 1.403 1_554 S
C2171 C2172 1.524 . S
C2171 C2175 1.400 1_554 S
C2172 H2157 0.960 . S
C2172 H2158 0.960 . S
C2172 H2159 0.960 . S
C2172 C2171 1.524 . S
C2173 C2170 1.403 . S
C2173 C2174 1.392 . S
C2173 C2177 1.495 . S
C2174 C2173 1.392 . S
C2174 C2175 1.385 . S
C2174 C2176 1.478 . S
C2175 H2169 0.930 1_556 S
C2175 C2171 1.400 1_556 S
C2175 C2174 1.385 . S
C2176 C2174 1.478 . S
C2176 C2178 1.381 . S
C2176 C2182 1.383 . S
C2177 C2173 1.495 . S
C2177 H2183 0.959 . S
C2177 H2184 0.961 . S
C2177 H2185 0.960 . S
C2178 C2176 1.381 . S
C2178 C2179 1.394 . S
C2178 H2186 0.930 . S
C2179 C2178 1.394 . S
C2179 C2180 1.383 . S
C2179 H2187 0.929 . S
C2180 C2179 1.383 . S
C2180 C2181 1.377 . S
C2181 H2165 0.930 . S
C2181 C2180 1.377 . S
C2181 C2182 1.379 . S
C2182 H2166 0.931 . S
C2182 C2176 1.383 . S
C2182 C2181 1.379 . S
H2183 C2177 0.959 . S
H2184 C2177 0.961 . S
H2185 C2177 0.960 . S
H2186 C2178 0.930 . S
H2187 C2179 0.929 . S
H2188 C2196 0.929 . S
H2189 C2198 0.930 . S
H2190 C2200 0.930 . S
H2191 C2203 0.929 . S
H2192 C2206 0.930 . S
H2193 C2208 0.960 . S
H2194 C2208 0.960 . S
H2195 C2208 0.960 . S
C2196 H2188 0.929 . S
C2196 C2197 1.377 . S
C2196 C2198 1.384 . S
C2197 C2196 1.377 . S
C2197 C2203 1.390 . S
C2198 H2189 0.930 . S
C2198 C2196 1.384 . S
C2198 C2199 1.372 . S
C2199 C2198 1.372 . S
C2199 C2200 1.400 . S
C2199 C2204 1.490 . S
C2200 H2190 0.930 . S
C2200 C2199 1.400 . S
C2200 C2203 1.386 . S
H2201 C2217 0.930 . S
H2202 C2218 0.931 . S
C2203 H2191 0.929 . S
C2203 C2197 1.390 . S
C2203 C2200 1.386 . S
C2204 C2199 1.490 . S
C2204 C2206 1.395 . S
C2204 C2207 1.403 . S
H2205 C2211 0.930 . S
C2206 H2192 0.930 . S
C2206 C2204 1.395 . S
C2206 C2209 1.403 . S
C2207 C2204 1.403 . S
C2207 C2208 1.524 . S
C2207 C2211 1.400 . S
C2208 H2193 0.960 . S
C2208 H2194 0.960 . S
C2208 H2195 0.960 . S
C2208 C2207 1.524 . S
C2209 C2206 1.403 . S
C2209 C2210 1.392 . S
C2209 C2213 1.495 . S
C2210 C2209 1.392 . S
C2210 C2211 1.385 . S
C2210 C2212 1.478 . S
C2211 H2205 0.930 . S
C2211 C2207 1.400 . S
C2211 C2210 1.385 . S
C2212 C2210 1.478 . S
C2212 C2214 1.381 . S
C2212 C2218 1.383 . S
C2213 C2209 1.495 . S
C2213 H2219 0.959 . S
C2213 H2220 0.961 . S
C2213 H2221 0.960 . S
C2214 C2212 1.381 . S
C2214 C2215 1.394 . S
C2214 H2222 0.930 . S
C2215 C2214 1.394 . S
C2215 C2216 1.383 . S
C2215 H2223 0.929 . S
C2216 C2215 1.383 . S
C2216 C2217 1.377 . S
C2217 H2201 0.930 . S
C2217 C2216 1.377 . S
C2217 C2218 1.379 . S
C2218 H2202 0.931 . S
C2218 C2212 1.383 . S
C2218 C2217 1.379 . S
H2219 C2213 0.959 . S
H2220 C2213 0.961 . S
H2221 C2213 0.960 . S
H2222 C2214 0.930 . S
H2223 C2215 0.929 . S
H2224 C2232 0.929 . S
H2225 C2234 0.930 . S
H2226 C2236 0.930 . S
H2227 C2239 0.929 . S
H2228 C2242 0.930 . S
H2229 C2244 0.960 . S
H2230 C2244 0.960 . S
H2231 C2244 0.960 . S
C2232 H2224 0.929 . S
C2232 C2233 1.377 . S
C2232 C2234 1.384 . S
C2233 C2232 1.377 . S
C2233 C2239 1.390 . S
C2234 H2225 0.930 . S
C2234 C2232 1.384 . S
C2234 C2235 1.372 . S
C2235 C2234 1.372 . S
C2235 C2236 1.400 . S
C2235 C2240 1.490 . S
C2236 H2226 0.930 . S
C2236 C2235 1.400 . S
C2236 C2239 1.386 . S
H2237 C2253 0.930 . S
H2238 C2254 0.931 . S
C2239 H2227 0.929 . S
C2239 C2233 1.390 . S
C2239 C2236 1.386 . S
C2240 C2235 1.490 . S
C2240 C2242 1.395 . S
C2240 C2243 1.403 . S
H2241 C2247 0.930 . S
C2242 H2228 0.930 . S
C2242 C2240 1.395 . S
C2242 C2245 1.403 . S
C2243 C2240 1.403 . S
C2243 C2244 1.524 . S
C2243 C2247 1.400 . S
C2244 H2229 0.960 . S
C2244 H2230 0.960 . S
C2244 H2231 0.960 . S
C2244 C2243 1.524 . S
C2245 C2242 1.403 . S
C2245 C2246 1.392 . S
C2245 C2249 1.495 . S
C2246 C2245 1.392 . S
C2246 C2247 1.385 . S
C2246 C2248 1.478 . S
C2247 H2241 0.930 . S
C2247 C2243 1.400 . S
C2247 C2246 1.385 . S
C2248 C2246 1.478 . S
C2248 C2250 1.381 . S
C2248 C2254 1.383 . S
C2249 C2245 1.495 . S
C2249 H2255 0.959 . S
C2249 H2256 0.961 . S
C2249 H2257 0.960 . S
C2250 C2248 1.381 . S
C2250 C2251 1.394 . S
C2250 H2258 0.930 . S
C2251 C2250 1.394 . S
C2251 C2252 1.383 . S
C2251 H2259 0.929 . S
C2252 C2251 1.383 . S
C2252 C2253 1.377 . S
C2253 H2237 0.930 . S
C2253 C2252 1.377 . S
C2253 C2254 1.379 . S
C2254 H2238 0.931 . S
C2254 C2248 1.383 . S
C2254 C2253 1.379 . S
H2255 C2249 0.959 . S
H2256 C2249 0.961 . S
H2257 C2249 0.960 . S
H2258 C2250 0.930 . S
H2259 C2251 0.929 . S
H2260 C2268 0.929 . S
H2261 C2270 0.930 . S
H2262 C2272 0.930 . S
H2263 C2275 0.929 . S
H2264 C2278 0.930 . S
H2265 C2280 0.960 . S
H2266 C2280 0.960 . S
H2267 C2280 0.960 . S
C2268 H2260 0.929 . S
C2268 C2269 1.377 . S
C2268 C2270 1.384 . S
C2269 C2268 1.377 . S
C2269 C2275 1.390 . S
C2270 H2261 0.930 . S
C2270 C2268 1.384 . S
C2270 C2271 1.372 . S
C2271 C2270 1.372 . S
C2271 C2272 1.400 . S
C2271 C2276 1.490 . S
C2272 H2262 0.930 . S
C2272 C2271 1.400 . S
C2272 C2275 1.386 . S
H2273 C2289 0.930 . S
H2274 C2290 0.931 . S
C2275 H2263 0.929 . S
C2275 C2269 1.390 . S
C2275 C2272 1.386 . S
C2276 C2271 1.490 . S
C2276 C2278 1.395 . S
C2276 C2279 1.403 . S
H2277 C2283 0.930 . S
C2278 H2264 0.930 . S
C2278 C2276 1.395 . S
C2278 C2281 1.403 . S
C2279 C2276 1.403 . S
C2279 C2280 1.524 . S
C2279 C2283 1.400 . S
C2280 H2265 0.960 . S
C2280 H2266 0.960 . S
C2280 H2267 0.960 . S
C2280 C2279 1.524 . S
C2281 C2278 1.403 . S
C2281 C2282 1.392 . S
C2281 C2285 1.495 . S
C2282 C2281 1.392 . S
C2282 C2283 1.385 . S
C2282 C2284 1.478 . S
C2283 H2277 0.930 . S
C2283 C2279 1.400 . S
C2283 C2282 1.385 . S
C2284 C2282 1.478 . S
C2284 C2286 1.381 . S
C2284 C2290 1.383 . S
C2285 C2281 1.495 . S
C2285 H2291 0.959 . S
C2285 H2292 0.961 . S
C2285 H2293 0.960 . S
C2286 C2284 1.381 . S
C2286 C2287 1.394 . S
C2286 H2294 0.930 . S
C2287 C2286 1.394 . S
C2287 C2288 1.383 . S
C2287 H2295 0.929 . S
C2288 C2287 1.383 . S
C2288 C2289 1.377 . S
C2289 H2273 0.930 . S
C2289 C2288 1.377 . S
C2289 C2290 1.379 . S
C2290 H2274 0.931 . S
C2290 C2284 1.383 . S
C2290 C2289 1.379 . S
H2291 C2285 0.959 . S
H2292 C2285 0.961 . S
H2293 C2285 0.960 . S
H2294 C2286 0.930 . S
H2295 C2287 0.929 . S
H2296 C2304 0.929 . S
H2297 C2306 0.930 . S
H2298 C2308 0.930 . S
H2299 C2311 0.929 . S
H2300 C2314 0.930 . S
H2301 C2316 0.960 . S
H2302 C2316 0.960 . S
H2303 C2316 0.960 . S
C2304 H2296 0.929 . S
C2304 C2305 1.377 . S
C2304 C2306 1.384 . S
C2305 C2304 1.377 . S
C2305 C2311 1.390 . S
C2306 H2297 0.930 . S
C2306 C2304 1.384 . S
C2306 C2307 1.372 . S
C2307 C2306 1.372 . S
C2307 C2308 1.400 . S
C2307 C2312 1.490 . S
C2308 H2298 0.930 . S
C2308 C2307 1.400 . S
C2308 C2311 1.386 . S
H2309 C2325 0.930 . S
H2310 C2326 0.931 . S
C2311 H2299 0.929 . S
C2311 C2305 1.390 . S
C2311 C2308 1.386 . S
C2312 C2307 1.490 . S
C2312 C2314 1.395 . S
C2312 C2315 1.403 . S
H2313 C2319 0.930 . S
C2314 H2300 0.930 . S
C2314 C2312 1.395 . S
C2314 C2317 1.403 . S
C2315 C2312 1.403 . S
C2315 C2316 1.524 . S
C2315 C2319 1.400 . S
C2316 H2301 0.960 . S
C2316 H2302 0.960 . S
C2316 H2303 0.960 . S
C2316 C2315 1.524 . S
C2317 C2314 1.403 . S
C2317 C2318 1.392 . S
C2317 C2321 1.495 . S
C2318 C2317 1.392 . S
C2318 C2319 1.385 . S
C2318 C2320 1.478 . S
C2319 H2313 0.930 . S
C2319 C2315 1.400 . S
C2319 C2318 1.385 . S
C2320 C2318 1.478 . S
C2320 C2322 1.381 . S
C2320 C2326 1.383 . S
C2321 C2317 1.495 . S
C2321 H2327 0.959 . S
C2321 H2328 0.961 . S
C2321 H2329 0.960 . S
C2322 C2320 1.381 . S
C2322 C2323 1.394 . S
C2322 H2330 0.930 . S
C2323 C2322 1.394 . S
C2323 C2324 1.383 . S
C2323 H2331 0.929 . S
C2324 C2323 1.383 . S
C2324 C2325 1.377 . S
C2325 H2309 0.930 . S
C2325 C2324 1.377 . S
C2325 C2326 1.379 . S
C2326 H2310 0.931 . S
C2326 C2320 1.383 . S
C2326 C2325 1.379 . S
H2327 C2321 0.959 . S
H2328 C2321 0.961 . S
H2329 C2321 0.960 . S
H2330 C2322 0.930 . S
H2331 C2323 0.929 . S
H2332 C2340 0.929 . S
H2333 C2342 0.930 . S
H2334 C2344 0.930 . S
H2335 C2347 0.929 . S
H2336 C2350 0.930 . S
H2337 C2352 0.960 . S
H2338 C2352 0.960 . S
H2339 C2352 0.960 . S
C2340 H2332 0.929 . S
C2340 C2341 1.377 . S
C2340 C2342 1.384 . S
C2341 C2340 1.377 . S
C2341 C2347 1.390 . S
C2342 H2333 0.930 . S
C2342 C2340 1.384 . S
C2342 C2343 1.372 . S
C2343 C2342 1.372 . S
C2343 C2344 1.400 . S
C2343 C2348 1.490 . S
C2344 H2334 0.930 . S
C2344 C2343 1.400 . S
C2344 C2347 1.386 . S
H2345 C2361 0.930 . S
H2346 C2362 0.931 . S
C2347 H2335 0.929 . S
C2347 C2341 1.390 . S
C2347 C2344 1.386 . S
C2348 C2343 1.490 . S
C2348 C2350 1.395 . S
C2348 C2351 1.403 . S
H2349 C2355 0.930 . S
C2350 H2336 0.930 . S
C2350 C2348 1.395 . S
C2350 C2353 1.403 . S
C2351 C2348 1.403 . S
C2351 C2352 1.524 . S
C2351 C2355 1.400 . S
C2352 H2337 0.960 . S
C2352 H2338 0.960 . S
C2352 H2339 0.960 . S
C2352 C2351 1.524 . S
C2353 C2350 1.403 . S
C2353 C2354 1.392 . S
C2353 C2357 1.495 . S
C2354 C2353 1.392 . S
C2354 C2355 1.385 . S
C2354 C2356 1.478 . S
C2355 H2349 0.930 . S
C2355 C2351 1.400 . S
C2355 C2354 1.385 . S
C2356 C2354 1.478 . S
C2356 C2358 1.381 . S
C2356 C2362 1.383 . S
C2357 C2353 1.495 . S
C2357 H2363 0.959 . S
C2357 H2364 0.961 . S
C2357 H2365 0.960 . S
C2358 C2356 1.381 . S
C2358 C2359 1.394 . S
C2358 H2366 0.930 . S
C2359 C2358 1.394 . S
C2359 C2360 1.383 . S
C2359 H2367 0.929 . S
C2360 C2359 1.383 . S
C2360 C2361 1.377 . S
C2361 H2345 0.930 . S
C2361 C2360 1.377 . S
C2361 C2362 1.379 . S
C2362 H2346 0.931 . S
C2362 C2356 1.383 . S
C2362 C2361 1.379 . S
H2363 C2357 0.959 . S
H2364 C2357 0.961 . S
H2365 C2357 0.960 . S
H2366 C2358 0.930 . S
H2367 C2359 0.929 . S
C649 C3 1.292 . S
C668 C66 1.224 . S
C685 C95 1.290 . S
C704 C62 1.269 . S
C721 C142 2.330 . S
C740 C83 2.364 . S
C757 C15 0.554 . S
C776 C146 0.597 . S
C793 C2 0.558 . S
C812 C369 0.542 . S
C829 C302 1.289 . S
C848 C49 1.262 . S
C865 C82 1.290 . S
C884 C403 1.298 . S
C901 C123 2.335 . S
C920 C542 2.353 . S
C937 C322 1.283 . S
C956 C43 1.305 . S
C973 C483 2.334 . S
C992 C102 2.351 . S
C1009 C562 0.559 . S
C1028 C129 0.547 . S
C1045 C22 1.293 . S
C1064 C449 1.287 . S
C1081 C26 0.642 . S
C1100 C346 0.670 . S
C1117 C495 1.567 . S
C1136 C162 1.611 . S
C1153 C209 0.673 . S
C1172 C569 0.628 . S
C1189 C442 1.595 . S
C1208 C255 1.566 . S
C1225 C89 0.668 . S
C1244 C289 0.691 . S
C1261 C362 1.573 . S
C1280 C175 1.580 . S
C1297 C242 1.569 . S
C1316 C415 1.609 . S
C1333 C202 1.290 . S
C1352 C443 1.297 . S
C1369 C363 2.330 . S
C1388 C222 2.351 . S
C1405 C466 1.261 . S
C1424 C283 1.265 . S
C1441 C215 1.285 . S
C1460 C182 1.291 . S
C1477 C382 2.335 . S
C1496 C323 2.349 . S
C1513 C535 1.290 . S
C1532 C462 1.269 . S
C1549 C262 2.330 . S
C1568 C203 2.364 . S
C1585 C386 0.580 . S
C1604 C575 0.630 . S
C1621 C529 0.665 . S
C1640 C9 0.607 . S
C1657 C106 0.667 . S
C1676 C586 0.619 . S
C1693 C482 1.570 . S
C1712 C55 1.580 . S
C1729 C306 0.628 . S
C1748 C226 0.662 . S
C1765 C135 1.572 . S
C1784 C402 1.601 . S
C1801 C502 2.335 . S
C1820 C523 2.349 . S
C1837 C295 0.553 . S
C1856 C506 0.609 . S
C1873 C249 0.575 . S
C1892 C282 0.510 . S
C1909 C163 1.294 . S
C1928 C522 1.271 . S
C1945 C489 0.576 . S
C1964 C602 0.516 . S
C1981 C609 0.641 . S
C2000 C329 0.723 . S
C2017 C42 1.598 . S
C2036 C375 1.587 . S
C2053 C342 2.362 . S
C2072 C243 2.338 . S
C2089 C335 1.290 . S
C2108 C422 1.269 . S
C2125 C615 0.568 . S
C2144 C266 0.638 . S
C2161 C546 0.662 . S
C2180 C626 0.666 . S
C2197 C455 1.601 . S
C2216 C122 1.573 . S
C2233 C426 1.259 . S
C2252 C563 1.300 . S
C2269 C409 1.250 . S
C2288 C622 1.265 . S
C2305 C169 1.261 . S
C2324 C582 1.299 . S
C2341 C603 1.292 . S
C2360 C186 1.224 . S
