# Generated by pormake.
# Topology unw, (4)-cn, num edge types: 1
# Building blocks:
#     Node 0, Type 0, BuildingBlock: ICAMEG_clean_sbu_1, # of connection points: 4
#     Node 1, Type 0, BuildingBlock: ICAMEG_clean_sbu_1, # of connection points: 4
#     Node 2, Type 0, BuildingBlock: ICAMEG_clean_sbu_1, # of connection points: 4
#     Node 3, Type 0, BuildingBlock: ICAMEG_clean_sbu_1, # of connection points: 4
#     Node 4, Type 0, BuildingBlock: ICAMEG_clean_sbu_1, # of connection points: 4
#     Node 5, Type 0, BuildingBlock: ICAMEG_clean_sbu_1, # of connection points: 4
#     Node 6, Type 0, BuildingBlock: ICAMEG_clean_sbu_1, # of connection points: 4
#     Node 7, Type 0, BuildingBlock: ICAMEG_clean_sbu_1, # of connection points: 4
#     Node 8, Type 0, BuildingBlock: ICAMEG_clean_sbu_1, # of connection points: 4
#     Node 9, Type 0, BuildingBlock: ICAMEG_clean_sbu_1, # of connection points: 4
#     Node 10, Type 0, BuildingBlock: ICAMEG_clean_sbu_1, # of connection points: 4
#     Node 11, Type 0, BuildingBlock: ICAMEG_clean_sbu_1, # of connection points: 4
#     Node 12, Type 0, BuildingBlock: ICAMEG_clean_sbu_1, # of connection points: 4
#     Node 13, Type 0, BuildingBlock: ICAMEG_clean_sbu_1, # of connection points: 4
#     Node 14, Type 0, BuildingBlock: ICAMEG_clean_sbu_1, # of connection points: 4
#     Node 15, Type 0, BuildingBlock: ICAMEG_clean_sbu_1, # of connection points: 4
#     Node 16, Type 0, BuildingBlock: ICAMEG_clean_sbu_1, # of connection points: 4
#     Node 17, Type 0, BuildingBlock: ICAMEG_clean_sbu_1, # of connection points: 4
#     Node 18, Type 0, BuildingBlock: ICAMEG_clean_sbu_1, # of connection points: 4
#     Node 19, Type 0, BuildingBlock: ICAMEG_clean_sbu_1, # of connection points: 4
#     Node 20, Type 0, BuildingBlock: ICAMEG_clean_sbu_1, # of connection points: 4
#     Node 21, Type 0, BuildingBlock: ICAMEG_clean_sbu_1, # of connection points: 4
#     Node 22, Type 0, BuildingBlock: ICAMEG_clean_sbu_1, # of connection points: 4
#     Node 23, Type 0, BuildingBlock: ICAMEG_clean_sbu_1, # of connection points: 4
#     Edge 24, Type (0, 0), BuildingBlock: UVAHIK_clean_linker_0, # of connection points: 2
#     Edge 25, Type (0, 0), BuildingBlock: UVAHIK_clean_linker_0, # of connection points: 2
#     Edge 26, Type (0, 0), BuildingBlock: UVAHIK_clean_linker_0, # of connection points: 2
#     Edge 27, Type (0, 0), BuildingBlock: UVAHIK_clean_linker_0, # of connection points: 2
#     Edge 28, Type (0, 0), BuildingBlock: UVAHIK_clean_linker_0, # of connection points: 2
#     Edge 29, Type (0, 0), BuildingBlock: UVAHIK_clean_linker_0, # of connection points: 2
#     Edge 30, Type (0, 0), BuildingBlock: UVAHIK_clean_linker_0, # of connection points: 2
#     Edge 31, Type (0, 0), BuildingBlock: UVAHIK_clean_linker_0, # of connection points: 2
#     Edge 32, Type (0, 0), BuildingBlock: UVAHIK_clean_linker_0, # of connection points: 2
#     Edge 33, Type (0, 0), BuildingBlock: UVAHIK_clean_linker_0, # of connection points: 2
#     Edge 34, Type (0, 0), BuildingBlock: UVAHIK_clean_linker_0, # of connection points: 2
#     Edge 35, Type (0, 0), BuildingBlock: UVAHIK_clean_linker_0, # of connection points: 2
#     Edge 36, Type (0, 0), BuildingBlock: UVAHIK_clean_linker_0, # of connection points: 2
#     Edge 37, Type (0, 0), BuildingBlock: UVAHIK_clean_linker_0, # of connection points: 2
#     Edge 38, Type (0, 0), BuildingBlock: UVAHIK_clean_linker_0, # of connection points: 2
#     Edge 39, Type (0, 0), BuildingBlock: UVAHIK_clean_linker_0, # of connection points: 2
#     Edge 40, Type (0, 0), BuildingBlock: UVAHIK_clean_linker_0, # of connection points: 2
#     Edge 41, Type (0, 0), BuildingBlock: UVAHIK_clean_linker_0, # of connection points: 2
#     Edge 42, Type (0, 0), BuildingBlock: UVAHIK_clean_linker_0, # of connection points: 2
#     Edge 43, Type (0, 0), BuildingBlock: UVAHIK_clean_linker_0, # of connection points: 2
#     Edge 44, Type (0, 0), BuildingBlock: UVAHIK_clean_linker_0, # of connection points: 2
#     Edge 45, Type (0, 0), BuildingBlock: UVAHIK_clean_linker_0, # of connection points: 2
#     Edge 46, Type (0, 0), BuildingBlock: UVAHIK_clean_linker_0, # of connection points: 2
#     Edge 47, Type (0, 0), BuildingBlock: UVAHIK_clean_linker_0, # of connection points: 2
#     Edge 48, Type (0, 0), BuildingBlock: UVAHIK_clean_linker_0, # of connection points: 2
#     Edge 49, Type (0, 0), BuildingBlock: UVAHIK_clean_linker_0, # of connection points: 2
#     Edge 50, Type (0, 0), BuildingBlock: UVAHIK_clean_linker_0, # of connection points: 2
#     Edge 51, Type (0, 0), BuildingBlock: UVAHIK_clean_linker_0, # of connection points: 2
#     Edge 52, Type (0, 0), BuildingBlock: UVAHIK_clean_linker_0, # of connection points: 2
#     Edge 53, Type (0, 0), BuildingBlock: UVAHIK_clean_linker_0, # of connection points: 2
#     Edge 54, Type (0, 0), BuildingBlock: UVAHIK_clean_linker_0, # of connection points: 2
#     Edge 55, Type (0, 0), BuildingBlock: UVAHIK_clean_linker_0, # of connection points: 2
#     Edge 56, Type (0, 0), BuildingBlock: UVAHIK_clean_linker_0, # of connection points: 2
#     Edge 57, Type (0, 0), BuildingBlock: UVAHIK_clean_linker_0, # of connection points: 2
#     Edge 58, Type (0, 0), BuildingBlock: UVAHIK_clean_linker_0, # of connection points: 2
#     Edge 59, Type (0, 0), BuildingBlock: UVAHIK_clean_linker_0, # of connection points: 2
#     Edge 60, Type (0, 0), BuildingBlock: UVAHIK_clean_linker_0, # of connection points: 2
#     Edge 61, Type (0, 0), BuildingBlock: UVAHIK_clean_linker_0, # of connection points: 2
#     Edge 62, Type (0, 0), BuildingBlock: UVAHIK_clean_linker_0, # of connection points: 2
#     Edge 63, Type (0, 0), BuildingBlock: UVAHIK_clean_linker_0, # of connection points: 2
#     Edge 64, Type (0, 0), BuildingBlock: UVAHIK_clean_linker_0, # of connection points: 2
#     Edge 65, Type (0, 0), BuildingBlock: UVAHIK_clean_linker_0, # of connection points: 2
#     Edge 66, Type (0, 0), BuildingBlock: UVAHIK_clean_linker_0, # of connection points: 2
#     Edge 67, Type (0, 0), BuildingBlock: UVAHIK_clean_linker_0, # of connection points: 2
#     Edge 68, Type (0, 0), BuildingBlock: UVAHIK_clean_linker_0, # of connection points: 2
#     Edge 69, Type (0, 0), BuildingBlock: UVAHIK_clean_linker_0, # of connection points: 2
#     Edge 70, Type (0, 0), BuildingBlock: UVAHIK_clean_linker_0, # of connection points: 2
#     Edge 71, Type (0, 0), BuildingBlock: UVAHIK_clean_linker_0, # of connection points: 2
# Relax obj value: 0.244
# Max RMSD: 0.172
# Mean RMSD: 0.172
data_MOF--net-unw--node1-ICAMEG_clean_sbu_1--edge1-UVAHIK_clean_linker_0
_symmetry_space_group_name_H-M    P1
_symmetry_Int_Tables_number       1
_symmetry_cell_setting            triclinic
loop_
_symmetry_equiv_pos_as_xyz
'x, y, z'
_cell_length_a     65.887271
_cell_length_b     65.903468
_cell_length_c     65.906118
_cell_angle_alpha  90.004453
_cell_angle_beta   89.983115
_cell_angle_gamma 90.025703
loop_
_atom_site_label
_atom_site_type_symbol
_atom_site_fract_x
_atom_site_fract_y
_atom_site_fract_z
_atom_type_partial_charge
Co0 Co 0.15182 0.3694 0.26386 0.0
Co1 Co 0.1114 0.34709 0.23884 0.0
O2 O 0.12389 0.36918 0.25415 0.0
C3 C 0.14882 0.40391 0.23624 0.0
O4 O 0.13746 0.39211 0.22495 0.0
C5 C 0.0879 0.35071 0.27631 0.0
O6 O 0.10548 0.35245 0.28548 0.0
O7 O 0.12321 0.32636 0.25717 0.0
O8 O 0.14919 0.34089 0.2739 0.0
H9 H 0.10934 0.27961 0.20339 0.0
H10 H 0.12411 0.40259 0.27608 0.0
O11 O 0.15531 0.39766 0.25335 0.0
H12 H 0.14522 0.36984 0.33996 0.0
H13 H 0.21276 0.40116 0.2972 0.0
H14 H 0.18621 0.34042 0.26246 0.0
H15 H 0.15836 0.35768 0.30707 0.0
H16 H 0.17728 0.4 0.2853 0.0
O17 O 0.08714 0.34869 0.25708 0.0
H18 H 0.12542 0.30767 0.22226 0.0
H19 H 0.06945 0.33955 0.22381 0.0
H20 H 0.22174 0.34083 0.27427 0.0
H21 H 0.11072 0.41536 0.30864 0.0
H22 H 0.23523 0.37138 0.29178 0.0
H23 H 0.12123 0.3989 0.34087 0.0
O24 O 0.1619 0.35923 0.23749 0.0
H25 H 0.07417 0.41155 0.22239 0.0
H26 H 0.10944 0.35201 0.19393 0.0
H27 H 0.09545 0.37791 0.17082 0.0
H28 H 0.07765 0.40793 0.18504 0.0
H29 H 0.08856 0.38539 0.24496 0.0
H30 H 0.05269 0.31176 0.20511 0.0
H31 H 0.07271 0.28156 0.1947 0.0
O32 O 0.13576 0.34484 0.22075 0.0
C33 C 0.13777 0.32576 0.26986 0.0
C34 C 0.10048 0.29274 0.20775 0.0
C35 C 0.06868 0.31077 0.20874 0.0
N36 N 0.09845 0.32533 0.22388 0.0
C37 C 0.10953 0.3087 0.21836 0.0
C38 C 0.07824 0.32644 0.21934 0.0
C39 C 0.07992 0.29383 0.2029 0.0
C40 C 0.1289 0.3955 0.29007 0.0
N41 N 0.14207 0.3795 0.28971 0.0
C42 C 0.12121 0.40273 0.30844 0.0
C43 C 0.12709 0.39347 0.32652 0.0
C44 C 0.14054 0.37715 0.32602 0.0
C45 C 0.1479 0.37031 0.30736 0.0
C46 C 0.20704 0.38773 0.28967 0.0
C47 C 0.19192 0.35367 0.27025 0.0
C48 C 0.18697 0.38699 0.28289 0.0
N49 N 0.17962 0.37004 0.27347 0.0
C50 C 0.21207 0.35386 0.27683 0.0
C51 C 0.21964 0.37101 0.28662 0.0
C52 C 0.15434 0.35015 0.2222 0.0
C53 C 0.08185 0.39851 0.21602 0.0
C54 C 0.10175 0.36506 0.20023 0.0
C55 C 0.09383 0.37965 0.18707 0.0
C56 C 0.08383 0.39649 0.19506 0.0
N57 N 0.09974 0.36716 0.22077 0.0
C58 C 0.08994 0.38361 0.22871 0.0
Co59 Co 0.61136 0.14829 0.25847 0.0
Co60 Co 0.64265 0.11396 0.2342 0.0
O61 O 0.61727 0.12168 0.24718 0.0
C62 C 0.58169 0.14189 0.22624 0.0
O63 O 0.59702 0.13494 0.21564 0.0
C64 C 0.638 0.08738 0.26934 0.0
O65 O 0.63296 0.10387 0.27926 0.0
O66 O 0.65884 0.12726 0.25579 0.0
O67 O 0.63853 0.14943 0.27204 0.0
H68 H 0.71333 0.1249 0.2077 0.0
H69 H 0.58202 0.1147 0.26452 0.0
O70 O 0.58438 0.14778 0.24448 0.0
H71 H 0.60281 0.1356 0.33329 0.0
H72 H 0.56592 0.20046 0.29076 0.0
H73 H 0.63412 0.18686 0.2631 0.0
H74 H 0.61643 0.15314 0.30314 0.0
H75 H 0.57449 0.16671 0.27698 0.0
O76 O 0.64254 0.08835 0.25054 0.0
H77 H 0.68102 0.13505 0.22367 0.0
H78 H 0.65852 0.07494 0.21791 0.0
H79 H 0.62627 0.22078 0.27687 0.0
H80 H 0.56789 0.09685 0.29425 0.0
H81 H 0.59195 0.22774 0.29084 0.0
H82 H 0.57835 0.10725 0.32893 0.0
O83 O 0.62309 0.16201 0.23447 0.0
H84 H 0.5872 0.06918 0.20702 0.0
H85 H 0.64369 0.11488 0.18901 0.0
H86 H 0.62331 0.09916 0.16182 0.0
H87 H 0.59485 0.07611 0.17077 0.0
H88 H 0.60785 0.08537 0.23372 0.0
H89 H 0.69065 0.06407 0.20202 0.0
H90 H 0.7183 0.08917 0.19675 0.0
O91 O 0.64321 0.13978 0.21812 0.0
C92 C 0.65564 0.14075 0.26928 0.0
C93 C 0.70137 0.11384 0.20983 0.0
C94 C 0.68865 0.0797 0.20667 0.0
N95 N 0.66784 0.10565 0.22149 0.0
C96 C 0.68302 0.11952 0.21879 0.0
C97 C 0.67051 0.08592 0.21569 0.0
C98 C 0.70415 0.09379 0.20371 0.0
C99 C 0.58647 0.11944 0.27957 0.0
N100 N 0.59993 0.13501 0.2821 0.0
C101 C 0.57849 0.10922 0.29634 0.0
C102 C 0.58439 0.11505 0.3158 0.0
C103 C 0.59812 0.13095 0.31825 0.0
C104 C 0.60581 0.1408 0.30113 0.0
C105 C 0.58095 0.19759 0.2848 0.0
C106 C 0.61923 0.18973 0.26935 0.0
C107 C 0.58589 0.17852 0.27698 0.0
N108 N 0.60488 0.17476 0.26954 0.0
C109 C 0.61484 0.20898 0.27703 0.0
C110 C 0.59557 0.21289 0.28484 0.0
C111 C 0.63517 0.15731 0.22011 0.0
C112 C 0.5996 0.07915 0.20293 0.0
C113 C 0.63131 0.10489 0.19302 0.0
C114 C 0.61984 0.09601 0.17756 0.0
C115 C 0.60388 0.08307 0.18259 0.0
N116 N 0.62702 0.10095 0.21292 0.0
C117 C 0.6114 0.08828 0.21798 0.0
Co118 Co 0.86793 0.65499 0.22746 0.0
Co119 Co 0.84281 0.62123 0.2589 0.0
O120 O 0.86498 0.62869 0.24071 0.0
C121 C 0.90397 0.65017 0.2528 0.0
O122 O 0.8917 0.64212 0.26623 0.0
C123 C 0.84029 0.59307 0.22477 0.0
O124 O 0.84367 0.60899 0.21331 0.0
O125 O 0.82232 0.63334 0.24048 0.0
O126 O 0.83864 0.65486 0.21958 0.0
H127 H 0.77855 0.63258 0.29839 0.0
H128 H 0.89631 0.62174 0.21693 0.0
O129 O 0.89718 0.65587 0.23562 0.0
H130 H 0.8616 0.63922 0.15299 0.0
H131 H 0.90433 0.70674 0.18467 0.0
H132 H 0.8434 0.69266 0.22581 0.0
H133 H 0.85384 0.65779 0.18456 0.0
H134 H 0.89979 0.67346 0.20121 0.0
O135 O 0.83982 0.59491 0.24402 0.0
H136 H 0.80674 0.64226 0.27571 0.0
H137 H 0.83144 0.58292 0.28002 0.0
H138 H 0.84723 0.72609 0.2094 0.0
H139 H 0.90466 0.60288 0.18567 0.0
H140 H 0.87788 0.7333 0.18865 0.0
H141 H 0.88718 0.61155 0.15343 0.0
O142 O 0.86114 0.66953 0.25287 0.0
H143 H 0.90326 0.57802 0.27594 0.0
H144 H 0.85111 0.62421 0.30327 0.0
H145 H 0.87692 0.60989 0.32629 0.0
H146 H 0.90323 0.58661 0.31264 0.0
H147 H 0.87729 0.59284 0.25343 0.0
H148 H 0.80342 0.57252 0.3026 0.0
H149 H 0.77678 0.59747 0.312 0.0
O150 O 0.84509 0.64767 0.27368 0.0
C151 C 0.82257 0.6461 0.22596 0.0
C152 C 0.79013 0.6216 0.2945 0.0
C153 C 0.80407 0.58788 0.29684 0.0
N154 N 0.82087 0.61327 0.27682 0.0
C155 C 0.80617 0.62703 0.28175 0.0
C156 C 0.81989 0.59385 0.28404 0.0
C157 C 0.78913 0.60189 0.30211 0.0
C158 C 0.88881 0.62573 0.2029 0.0
N159 N 0.8747 0.64091 0.20253 0.0
C160 C 0.89353 0.61495 0.18528 0.0
C161 C 0.88369 0.6198 0.1672 0.0
C162 C 0.86933 0.63532 0.16694 0.0
C163 C 0.86498 0.64576 0.18487 0.0
C164 C 0.89088 0.70376 0.19361 0.0
C165 C 0.85669 0.69563 0.21667 0.0
C166 C 0.88824 0.68496 0.20303 0.0
N167 N 0.87123 0.68106 0.21426 0.0
C168 C 0.85881 0.71461 0.20747 0.0
C169 C 0.87603 0.71865 0.19585 0.0
C170 C 0.85241 0.66513 0.26955 0.0
C171 C 0.89184 0.58811 0.28208 0.0
C172 C 0.86254 0.61412 0.29722 0.0
C173 C 0.87708 0.60603 0.31033 0.0
C174 C 0.89183 0.59295 0.30266 0.0
N175 N 0.86265 0.60929 0.27705 0.0
C176 C 0.87704 0.59646 0.26942 0.0
Co177 Co 0.34647 0.88273 0.24011 0.0
Co178 Co 0.38214 0.84923 0.25871 0.0
O179 O 0.37381 0.87569 0.24865 0.0
C180 C 0.35588 0.90921 0.27447 0.0
O181 O 0.36334 0.89295 0.28314 0.0
C182 C 0.40548 0.8563 0.22161 0.0
O183 O 0.38834 0.86269 0.21379 0.0
O184 O 0.36642 0.83506 0.23732 0.0
O185 O 0.34407 0.85711 0.22397 0.0
H186 H 0.37209 0.77682 0.2804 0.0
H187 H 0.37987 0.91241 0.23447 0.0
O188 O 0.34838 0.90816 0.25665 0.0
H189 H 0.35338 0.8989 0.1658 0.0
H190 H 0.29235 0.93134 0.21698 0.0
H191 H 0.30756 0.86048 0.23557 0.0
H192 H 0.33812 0.88229 0.19569 0.0
H193 H 0.32695 0.92138 0.22726 0.0
O194 O 0.40611 0.85023 0.23998 0.0
H195 H 0.36123 0.81047 0.26815 0.0
H196 H 0.42216 0.83146 0.26981 0.0
H197 H 0.27279 0.86974 0.22524 0.0
H198 H 0.39548 0.92948 0.20502 0.0
H199 H 0.26501 0.9054 0.21585 0.0
H200 H 0.38227 0.9227 0.17039 0.0
O201 O 0.33442 0.86861 0.26379 0.0
H202 H 0.43055 0.9016 0.28576 0.0
H203 H 0.38548 0.84453 0.30354 0.0
H204 H 0.40417 0.86238 0.33062 0.0
H205 H 0.42691 0.89113 0.32178 0.0
H206 H 0.41145 0.88343 0.25918 0.0
H207 H 0.43372 0.79797 0.28193 0.0
H208 H 0.40858 0.77041 0.28738 0.0
O209 O 0.35795 0.84774 0.27704 0.0
C210 C 0.35224 0.83957 0.22497 0.0
C211 C 0.38318 0.78874 0.27817 0.0
C212 C 0.41777 0.8006 0.279 0.0
N213 N 0.39102 0.82296 0.2685 0.0
C214 C 0.37711 0.80784 0.27131 0.0
C215 C 0.41115 0.81951 0.27211 0.0
C216 C 0.40365 0.78514 0.28206 0.0
C217 C 0.3739 0.90955 0.21946 0.0
N218 N 0.35803 0.89648 0.2168 0.0
C219 C 0.38286 0.91919 0.20284 0.0
C220 C 0.37546 0.91536 0.1834 0.0
C221 C 0.35926 0.902 0.18082 0.0
C222 C 0.3507 0.89262 0.19779 0.0
C223 C 0.29556 0.91575 0.22098 0.0
C224 C 0.30432 0.87599 0.23135 0.0
C225 C 0.31511 0.91003 0.22683 0.0
N226 N 0.3193 0.89033 0.23179 0.0
C227 C 0.28459 0.88116 0.22559 0.0
C228 C 0.28023 0.90118 0.22034 0.0
C229 C 0.3402 0.85555 0.27683 0.0
C230 C 0.42073 0.88906 0.28979 0.0
C231 C 0.39534 0.85704 0.29958 0.0
C232 C 0.4059 0.86707 0.31498 0.0
C233 C 0.41866 0.88319 0.31001 0.0
N234 N 0.39747 0.86287 0.2798 0.0
C235 C 0.40995 0.87866 0.2748 0.0
Co236 Co 0.11186 0.64352 0.75503 0.0
Co237 Co 0.1424 0.61081 0.72776 0.0
O238 O 0.11697 0.61803 0.74094 0.0
C239 C 0.08331 0.64208 0.7212 0.0
O240 O 0.09876 0.63573 0.71039 0.0
C241 C 0.13584 0.58033 0.75944 0.0
O242 O 0.12947 0.59531 0.77089 0.0
O243 O 0.15844 0.62128 0.751 0.0
O244 O 0.13827 0.64143 0.76977 0.0
H245 H 0.21393 0.62253 0.70403 0.0
H246 H 0.0806 0.6111 0.75579 0.0
O247 O 0.08559 0.64606 0.73999 0.0
H248 H 0.09893 0.62277 0.82738 0.0
H249 H 0.06754 0.6941 0.7912 0.0
H250 H 0.13647 0.67965 0.76585 0.0
H251 H 0.11495 0.64284 0.80013 0.0
H252 H 0.07501 0.66184 0.77371 0.0
O253 O 0.14148 0.58366 0.74125 0.0
H254 H 0.18149 0.63184 0.72024 0.0
H255 H 0.15767 0.57327 0.70773 0.0
H256 H 0.12971 0.71203 0.78339 0.0
H257 H 0.06407 0.59081 0.78257 0.0
H258 H 0.09503 0.71941 0.7962 0.0
H259 H 0.07328 0.59655 0.81866 0.0
O260 O 0.12541 0.65951 0.73332 0.0
H261 H 0.08613 0.57101 0.69514 0.0
H262 H 0.14456 0.61618 0.6829 0.0
H263 H 0.12425 0.60406 0.65389 0.0
H264 H 0.0948 0.5813 0.65993 0.0
H265 H 0.10675 0.58363 0.72372 0.0
H266 H 0.18991 0.56326 0.69151 0.0
H267 H 0.21829 0.58801 0.68953 0.0
O268 O 0.14395 0.63795 0.71447 0.0
C269 C 0.15523 0.63275 0.76624 0.0
C270 C 0.20165 0.61164 0.70473 0.0
C271 C 0.18818 0.57836 0.69773 0.0
N272 N 0.16765 0.60318 0.71474 0.0
C273 C 0.18323 0.61685 0.71383 0.0
C274 C 0.16998 0.5841 0.70695 0.0
C275 C 0.20409 0.59226 0.69661 0.0
C276 C 0.08452 0.61383 0.77147 0.0
N277 N 0.09863 0.6282 0.7764 0.0
C278 C 0.07519 0.60223 0.78656 0.0
C279 C 0.08038 0.60544 0.80681 0.0
C280 C 0.09478 0.62015 0.81171 0.0
C281 C 0.10382 0.63143 0.79622 0.0
C282 C 0.08272 0.69103 0.78573 0.0
C283 C 0.12138 0.6827 0.77152 0.0
C284 C 0.08703 0.67281 0.77579 0.0
N285 N 0.1062 0.6688 0.76896 0.0
C286 C 0.11762 0.70108 0.78137 0.0
C287 C 0.09816 0.70523 0.78854 0.0
C288 C 0.13724 0.65566 0.71849 0.0
C289 C 0.09896 0.58087 0.69231 0.0
C290 C 0.13176 0.60629 0.68565 0.0
C291 C 0.12034 0.59945 0.66916 0.0
C292 C 0.10382 0.58667 0.67256 0.0
N293 N 0.1269 0.60052 0.70497 0.0
C294 C 0.11074 0.58799 0.70842 0.0
Co295 Co 0.37025 0.14281 0.73122 0.0
Co296 Co 0.34291 0.11208 0.76391 0.0
O297 O 0.36701 0.11856 0.74789 0.0
C298 C 0.40269 0.14444 0.76146 0.0
O299 O 0.38922 0.13759 0.77442 0.0
C300 C 0.34758 0.07939 0.73437 0.0
O301 O 0.35243 0.09368 0.72141 0.0
O302 O 0.32453 0.12021 0.74151 0.0
O303 O 0.34246 0.13927 0.71964 0.0
H304 H 0.2735 0.12455 0.79292 0.0
H305 H 0.40174 0.11074 0.72969 0.0
O306 O 0.39794 0.14708 0.74291 0.0
H307 H 0.37551 0.11616 0.65982 0.0
H308 H 0.40928 0.19065 0.68625 0.0
H309 H 0.34396 0.17768 0.72044 0.0
H310 H 0.36228 0.13837 0.6869 0.0
H311 H 0.40443 0.15987 0.70701 0.0
O312 O 0.3432 0.08387 0.75267 0.0
H313 H 0.30409 0.13293 0.773 0.0
H314 H 0.33047 0.07623 0.78847 0.0
H315 H 0.34808 0.20856 0.69967 0.0
H316 H 0.41552 0.08834 0.70304 0.0
H317 H 0.38094 0.2152 0.68241 0.0
H318 H 0.40232 0.09092 0.66784 0.0
O319 O 0.35918 0.16026 0.75309 0.0
H320 H 0.40265 0.07591 0.79448 0.0
H321 H 0.34483 0.12141 0.80812 0.0
H322 H 0.36794 0.11211 0.83606 0.0
H323 H 0.39709 0.08919 0.82931 0.0
H324 H 0.37927 0.08574 0.76696 0.0
H325 H 0.30009 0.06714 0.80842 0.0
H326 H 0.27137 0.09143 0.8108 0.0
O327 O 0.34201 0.14032 0.77495 0.0
C328 C 0.32609 0.13057 0.72527 0.0
C329 C 0.28595 0.11388 0.79208 0.0
C330 C 0.30087 0.08164 0.80076 0.0
N331 N 0.31913 0.1052 0.77981 0.0
C332 C 0.30334 0.11858 0.78091 0.0
C333 C 0.31801 0.08686 0.78943 0.0
C334 C 0.28476 0.09528 0.80209 0.0
C335 C 0.39609 0.1121 0.71435 0.0
N336 N 0.38131 0.12591 0.70982 0.0
C337 C 0.40388 0.09932 0.69935 0.0
C338 C 0.39645 0.10075 0.67961 0.0
C339 C 0.38139 0.1149 0.6751 0.0
C340 C 0.37394 0.12742 0.6905 0.0
C341 C 0.39488 0.1879 0.69365 0.0
C342 C 0.35825 0.1804 0.71285 0.0
C343 C 0.39205 0.17052 0.70545 0.0
N344 N 0.37387 0.1669 0.71475 0.0
C345 C 0.36052 0.19794 0.70117 0.0
C346 C 0.37897 0.20166 0.6915 0.0
C347 C 0.34877 0.15753 0.76916 0.0
C348 C 0.38997 0.08585 0.79762 0.0
C349 C 0.3575 0.11145 0.80507 0.0
C350 C 0.37051 0.10621 0.82095 0.0
C351 C 0.38685 0.09334 0.81715 0.0
N352 N 0.36065 0.10403 0.78596 0.0
C353 C 0.37663 0.09139 0.78212 0.0
Co354 Co 0.84978 0.38284 0.73769 0.0
Co355 Co 0.88532 0.35188 0.7606 0.0
O356 O 0.87674 0.3774 0.74844 0.0
C357 C 0.85582 0.41214 0.77041 0.0
O358 O 0.86321 0.39688 0.78081 0.0
C359 C 0.91146 0.35781 0.72528 0.0
O360 O 0.89486 0.36304 0.71563 0.0
O361 O 0.87215 0.33595 0.73877 0.0
O362 O 0.84919 0.35602 0.72347 0.0
H363 H 0.87686 0.27996 0.78448 0.0
H364 H 0.88253 0.41316 0.73177 0.0
O365 O 0.84981 0.40949 0.75221 0.0
H366 H 0.86087 0.39354 0.66289 0.0
H367 H 0.79578 0.42756 0.70749 0.0
H368 H 0.81196 0.35894 0.73257 0.0
H369 H 0.8443 0.37868 0.693 0.0
H370 H 0.82995 0.41966 0.72062 0.0
O371 O 0.91071 0.35301 0.744 0.0
H372 H 0.86561 0.31242 0.76963 0.0
H373 H 0.92488 0.33682 0.77641 0.0
H374 H 0.77765 0.36612 0.71943 0.0
H375 H 0.89939 0.42853 0.70209 0.0
H376 H 0.76938 0.40064 0.70677 0.0
H377 H 0.88862 0.41867 0.66734 0.0
O378 O 0.83671 0.37028 0.76173 0.0
H379 H 0.92896 0.40775 0.78872 0.0
H380 H 0.88493 0.34967 0.80576 0.0
H381 H 0.90042 0.36976 0.8333 0.0
H382 H 0.92263 0.39902 0.82483 0.0
H383 H 0.91302 0.38737 0.76167 0.0
H384 H 0.93684 0.30456 0.79117 0.0
H385 H 0.91272 0.27588 0.79537 0.0
O386 O 0.85977 0.35011 0.7769 0.0
C387 C 0.85832 0.33906 0.72561 0.0
C388 C 0.88748 0.29238 0.78285 0.0
C389 C 0.92115 0.30618 0.78658 0.0
N390 N 0.89449 0.32659 0.77249 0.0
C391 C 0.88117 0.31083 0.77456 0.0
C392 C 0.9143 0.3244 0.77821 0.0
C393 C 0.90761 0.2901 0.78893 0.0
C394 C 0.87762 0.40895 0.7167 0.0
N395 N 0.86238 0.39513 0.71411 0.0
C396 C 0.88729 0.41764 0.69995 0.0
C397 C 0.88125 0.41208 0.68046 0.0
C398 C 0.86569 0.39797 0.67795 0.0
C399 C 0.85639 0.38958 0.69505 0.0
C400 C 0.79921 0.41244 0.71291 0.0
C401 C 0.80851 0.37396 0.72694 0.0
C402 C 0.81852 0.4079 0.72038 0.0
N403 N 0.82298 0.38881 0.72715 0.0
C404 C 0.78904 0.37795 0.71958 0.0
C405 C 0.78441 0.39733 0.71251 0.0
C406 C 0.84206 0.35785 0.77554 0.0
C407 C 0.91936 0.395 0.7926 0.0
C408 C 0.89455 0.36241 0.80197 0.0
C409 C 0.9033 0.3737 0.81762 0.0
C410 C 0.91578 0.39011 0.81286 0.0
N411 N 0.89816 0.36729 0.78214 0.0
C412 C 0.91036 0.38335 0.77734 0.0
Co413 Co 0.64539 0.87559 0.7624 0.0
Co414 Co 0.6149 0.84645 0.73146 0.0
O415 O 0.62052 0.87108 0.74694 0.0
C416 C 0.64542 0.90627 0.73005 0.0
O417 O 0.63629 0.89277 0.71865 0.0
C418 C 0.58413 0.84794 0.76373 0.0
O419 O 0.59794 0.85653 0.77518 0.0
O420 O 0.62691 0.82885 0.75286 0.0
O421 O 0.642 0.84881 0.77601 0.0
H422 H 0.63197 0.77906 0.70017 0.0
H423 H 0.61342 0.9072 0.76246 0.0
O424 O 0.64956 0.90231 0.74852 0.0
H425 H 0.62101 0.88652 0.83396 0.0
H426 H 0.69474 0.91767 0.80277 0.0
H427 H 0.68044 0.84998 0.77423 0.0
H428 H 0.64226 0.87105 0.8073 0.0
H429 H 0.66329 0.91141 0.78343 0.0
O430 O 0.58802 0.8435 0.74532 0.0
H431 H 0.63891 0.8103 0.7196 0.0
H432 H 0.57831 0.8302 0.71041 0.0
H433 H 0.71198 0.85552 0.79362 0.0
H434 H 0.59197 0.92321 0.78865 0.0
H435 H 0.7193 0.88957 0.80804 0.0
H436 H 0.59567 0.91282 0.82469 0.0
O437 O 0.66242 0.86281 0.74099 0.0
H438 H 0.56981 0.90203 0.70524 0.0
H439 H 0.61958 0.84937 0.68656 0.0
H440 H 0.60513 0.87131 0.65992 0.0
H441 H 0.58003 0.89786 0.6692 0.0
H442 H 0.58479 0.87985 0.73142 0.0
H443 H 0.57065 0.79909 0.69103 0.0
H444 H 0.59762 0.7733 0.68574 0.0
O445 O 0.64179 0.84864 0.71785 0.0
C446 C 0.63584 0.83154 0.76982 0.0
C447 C 0.62011 0.79022 0.70231 0.0
C448 C 0.58569 0.80145 0.6972 0.0
N449 N 0.60909 0.82213 0.71597 0.0
C450 C 0.62398 0.80797 0.71323 0.0
C451 C 0.5901 0.81901 0.70821 0.0
C452 C 0.60083 0.78699 0.69423 0.0
C453 C 0.61524 0.90276 0.77814 0.0
N454 N 0.62914 0.88831 0.78337 0.0
C455 C 0.603 0.9118 0.79289 0.0
C456 C 0.60506 0.90595 0.8131 0.0
C457 C 0.61928 0.89118 0.81832 0.0
C458 C 0.63124 0.88245 0.80315 0.0
C459 C 0.6917 0.90275 0.79661 0.0
C460 C 0.68345 0.8648 0.78059 0.0
C461 C 0.67394 0.89913 0.78562 0.0
N462 N 0.66997 0.8803 0.77788 0.0
C463 C 0.70137 0.86786 0.7915 0.0
C464 C 0.70547 0.88698 0.79956 0.0
C465 C 0.65932 0.85406 0.72402 0.0
C466 C 0.58069 0.89048 0.701 0.0
C467 C 0.60869 0.86091 0.69072 0.0
C468 C 0.60054 0.87326 0.67556 0.0
C469 C 0.58645 0.88815 0.68078 0.0
N470 N 0.60294 0.86327 0.7105 0.0
C471 C 0.58914 0.87783 0.71574 0.0
Co472 Co 0.25755 0.14645 0.37433 0.0
Co473 Co 0.23589 0.1047 0.35108 0.0
O474 O 0.24887 0.11821 0.37403 0.0
C475 C 0.2275 0.14313 0.40684 0.0
O476 O 0.21722 0.13137 0.3945 0.0
C477 C 0.27383 0.08281 0.35817 0.0
O478 O 0.28216 0.10075 0.36034 0.0
O479 O 0.25532 0.11687 0.33152 0.0
O480 O 0.26994 0.14362 0.34684 0.0
H481 H 0.20623 0.09979 0.28102 0.0
H482 H 0.2681 0.11988 0.40902 0.0
O483 O 0.24477 0.15007 0.40158 0.0
H484 H 0.33358 0.14292 0.38097 0.0
H485 H 0.28597 0.20931 0.40713 0.0
H486 H 0.25748 0.18006 0.34441 0.0
H487 H 0.3013 0.15447 0.36593 0.0
H488 H 0.27543 0.17339 0.40593 0.0
O489 O 0.25486 0.08126 0.35464 0.0
H490 H 0.22215 0.11719 0.31009 0.0
H491 H 0.22301 0.06207 0.34342 0.0
H492 H 0.26798 0.216 0.34487 0.0
H493 H 0.30002 0.10809 0.42465 0.0
H494 H 0.28234 0.23084 0.37641 0.0
H495 H 0.33306 0.11958 0.41056 0.0
O496 O 0.23173 0.1553 0.36183 0.0
H497 H 0.21584 0.06818 0.41496 0.0
H498 H 0.19083 0.101 0.35254 0.0
H499 H 0.16629 0.08663 0.37691 0.0
H500 H 0.17877 0.07006 0.40837 0.0
H501 H 0.23984 0.08291 0.39027 0.0
H502 H 0.20725 0.044 0.31465 0.0
H503 H 0.19868 0.06292 0.2832 0.0
O504 O 0.21712 0.12823 0.34686 0.0
C505 C 0.26749 0.13191 0.33162 0.0
C506 C 0.20979 0.0914 0.29468 0.0
C507 C 0.21039 0.06008 0.31355 0.0
N508 N 0.22321 0.09072 0.32852 0.0
C509 C 0.21871 0.1012 0.31122 0.0
C510 C 0.21932 0.07038 0.32978 0.0
C511 C 0.20558 0.07071 0.29591 0.0
C512 C 0.28243 0.1251 0.40295 0.0
N513 N 0.28286 0.13792 0.38667 0.0
C514 C 0.30044 0.11831 0.41179 0.0
C515 C 0.31898 0.12473 0.40386 0.0
C516 C 0.31928 0.13782 0.38726 0.0
C517 C 0.30096 0.14428 0.37878 0.0
C518 C 0.2798 0.203 0.39328 0.0
C519 C 0.26388 0.18638 0.35813 0.0
C520 C 0.27379 0.18269 0.39252 0.0
N521 N 0.26609 0.1746 0.37504 0.0
C522 C 0.26972 0.20675 0.35833 0.0
C523 C 0.27776 0.21507 0.37603 0.0
C524 C 0.21748 0.14698 0.35174 0.0
C525 C 0.21022 0.07531 0.40128 0.0
C526 C 0.19637 0.09385 0.36622 0.0
C527 C 0.18241 0.0857 0.37994 0.0
C528 C 0.18942 0.0764 0.39758 0.0
N529 N 0.21674 0.09271 0.36995 0.0
C530 C 0.22374 0.0836 0.3872 0.0
Co531 Co 0.87931 0.24026 0.3464 0.0
Co532 Co 0.84516 0.26183 0.37981 0.0
O533 O 0.87154 0.25044 0.37301 0.0
C534 C 0.90762 0.27318 0.35544 0.0
O535 O 0.89158 0.28332 0.36145 0.0
C536 C 0.8503 0.22681 0.40648 0.0
O537 O 0.85644 0.21712 0.39021 0.0
O538 O 0.83092 0.23932 0.36589 0.0
O539 O 0.85272 0.22581 0.34329 0.0
H540 H 0.77329 0.28348 0.36638 0.0
H541 H 0.90686 0.23397 0.38142 0.0
O542 O 0.90574 0.25503 0.34897 0.0
H543 H 0.88967 0.16535 0.35701 0.0
H544 H 0.9287 0.21129 0.29588 0.0
H545 H 0.85888 0.23604 0.30653 0.0
H546 H 0.87602 0.19564 0.33979 0.0
H547 H 0.9178 0.22369 0.3295 0.0
O548 O 0.84521 0.24544 0.40536 0.0
H549 H 0.8069 0.26961 0.35743 0.0
H550 H 0.82693 0.27723 0.41818 0.0
H551 H 0.86906 0.22362 0.27271 0.0
H552 H 0.92099 0.20409 0.39899 0.0
H553 H 0.90421 0.21112 0.26723 0.0
H554 H 0.91234 0.16948 0.38683 0.0
O555 O 0.86767 0.26441 0.33282 0.0
H556 H 0.8971 0.29211 0.42672 0.0
H557 H 0.84147 0.3069 0.37891 0.0
H558 H 0.85961 0.33519 0.39541 0.0
H559 H 0.88763 0.32786 0.41952 0.0
H560 H 0.87868 0.26428 0.40974 0.0
H561 H 0.79349 0.29103 0.42786 0.0
H562 H 0.76642 0.29431 0.40183 0.0
O563 O 0.84455 0.27796 0.35406 0.0
C564 C 0.83534 0.22682 0.35181 0.0
C565 C 0.78499 0.28224 0.37784 0.0
C566 C 0.79632 0.28645 0.41235 0.0
N567 N 0.81893 0.27291 0.3872 0.0
C568 C 0.80407 0.27448 0.37283 0.0
C569 C 0.81522 0.27861 0.40679 0.0
C570 C 0.78114 0.28828 0.39773 0.0
C571 C 0.9032 0.21896 0.37592 0.0
N572 N 0.89073 0.21655 0.35954 0.0
C573 C 0.91117 0.2021 0.38598 0.0
C574 C 0.90629 0.18268 0.37916 0.0
C575 C 0.89356 0.18035 0.36244 0.0
C576 C 0.88585 0.19756 0.35277 0.0
C577 C 0.91332 0.21662 0.2981 0.0
C578 C 0.87413 0.23045 0.3043 0.0
C579 C 0.90708 0.22367 0.31708 0.0
N580 N 0.88765 0.23032 0.32001 0.0
C581 C 0.87984 0.22351 0.2851 0.0
C582 C 0.89957 0.21653 0.28203 0.0
C583 C 0.8541 0.27746 0.3372 0.0
C584 C 0.88488 0.29549 0.41628 0.0
C585 C 0.85367 0.3036 0.38936 0.0
C586 C 0.86386 0.31968 0.39868 0.0
C587 C 0.87957 0.31555 0.41221 0.0
N588 N 0.85895 0.28396 0.39344 0.0
C589 C 0.87433 0.2798 0.4067 0.0
Co590 Co 0.72792 0.84549 0.37433 0.0
Co591 Co 0.75149 0.88221 0.34522 0.0
O592 O 0.73785 0.87295 0.3698 0.0
C593 C 0.75736 0.85307 0.40662 0.0
O594 O 0.76853 0.86181 0.39265 0.0
C595 C 0.71507 0.90716 0.34908 0.0
O596 O 0.70554 0.89015 0.35306 0.0
O597 O 0.73106 0.86874 0.3277 0.0
O598 O 0.71613 0.84438 0.34642 0.0
H599 H 0.781 0.87519 0.27526 0.0
H600 H 0.7178 0.87779 0.40394 0.0
O601 O 0.73995 0.84595 0.40213 0.0
H602 H 0.65199 0.85305 0.37828 0.0
H603 H 0.69627 0.7899 0.41606 0.0
H604 H 0.72711 0.80754 0.35019 0.0
H605 H 0.68404 0.8379 0.36623 0.0
H606 H 0.70831 0.82473 0.40938 0.0
O607 O 0.73411 0.90707 0.34557 0.0
H608 H 0.7642 0.86315 0.30649 0.0
H609 H 0.76685 0.92245 0.33153 0.0
H610 H 0.7151 0.77257 0.35614 0.0
H611 H 0.68612 0.89326 0.41654 0.0
H612 H 0.69956 0.76357 0.38929 0.0
H613 H 0.65292 0.88093 0.40363 0.0
O614 O 0.75361 0.83372 0.36414 0.0
H615 H 0.77451 0.92605 0.40323 0.0
H616 H 0.79672 0.88319 0.34605 0.0
H617 H 0.82238 0.89926 0.36807 0.0
H618 H 0.81131 0.92088 0.39689 0.0
H619 H 0.74937 0.90953 0.38094 0.0
H620 H 0.78352 0.9352 0.30051 0.0
H621 H 0.79078 0.91146 0.27214 0.0
O622 O 0.76873 0.85719 0.34438 0.0
C623 C 0.71853 0.85417 0.32988 0.0
C624 C 0.77801 0.88565 0.28756 0.0
C625 C 0.7794 0.91934 0.30172 0.0
N626 N 0.76481 0.89202 0.3209 0.0
C627 C 0.76858 0.8789 0.3053 0.0
C628 C 0.76994 0.91205 0.31923 0.0
C629 C 0.78347 0.90602 0.28581 0.0
C630 C 0.7034 0.87221 0.39842 0.0
N631 N 0.70276 0.8569 0.38446 0.0
C632 C 0.68552 0.88109 0.40554 0.0
C633 C 0.66689 0.87418 0.39826 0.0
C634 C 0.66637 0.85854 0.38403 0.0
C635 C 0.68456 0.85005 0.37724 0.0
C636 C 0.70295 0.79365 0.40154 0.0
C637 C 0.72019 0.80377 0.36458 0.0
C638 C 0.70981 0.81333 0.39768 0.0
N639 N 0.71817 0.81819 0.37933 0.0
C640 C 0.7135 0.78393 0.36789 0.0
C641 C 0.7048 0.77889 0.3865 0.0
C642 C 0.76792 0.83966 0.35257 0.0
C643 C 0.77952 0.9167 0.39069 0.0
C644 C 0.79179 0.89254 0.35859 0.0
C645 C 0.80639 0.90163 0.37098 0.0
C646 C 0.80016 0.91377 0.38714 0.0
N647 N 0.77157 0.89549 0.36217 0.0
C648 C 0.76535 0.90739 0.37796 0.0
Co649 Co 0.1192 0.75965 0.33988 0.0
Co650 Co 0.14208 0.72838 0.37508 0.0
O651 O 0.11999 0.74605 0.36619 0.0
C652 C 0.08473 0.73145 0.33994 0.0
O653 O 0.09624 0.71917 0.35052 0.0
C654 C 0.14218 0.7632 0.40295 0.0
O655 O 0.13617 0.77428 0.38758 0.0
O656 O 0.16304 0.74649 0.36303 0.0
O657 O 0.14729 0.77005 0.34412 0.0
H658 H 0.20634 0.68829 0.36641 0.0
H659 H 0.08588 0.76664 0.36926 0.0
O660 O 0.09117 0.74898 0.33491 0.0
H661 H 0.11635 0.83396 0.35736 0.0
H662 H 0.08615 0.80037 0.28437 0.0
H663 H 0.14834 0.76481 0.30599 0.0
H664 H 0.12946 0.80372 0.3396 0.0
H665 H 0.08774 0.78335 0.31768 0.0
O666 O 0.14461 0.74411 0.40095 0.0
H667 H 0.17832 0.71046 0.3553 0.0
H668 H 0.15275 0.70886 0.41444 0.0
H669 H 0.14749 0.78177 0.27262 0.0
H670 H 0.07216 0.7965 0.38721 0.0
H671 H 0.11622 0.7997 0.26163 0.0
H672 H 0.08747 0.83044 0.38134 0.0
O673 O 0.13007 0.7353 0.32576 0.0
H674 H 0.08039 0.71269 0.41707 0.0
H675 H 0.13407 0.68389 0.37359 0.0
H676 H 0.10798 0.66128 0.38809 0.0
H677 H 0.08091 0.67566 0.41002 0.0
H678 H 0.10669 0.73477 0.40211 0.0
H679 H 0.1806 0.68681 0.42625 0.0
H680 H 0.2076 0.67632 0.40213 0.0
O681 O 0.14037 0.71282 0.34923 0.0
C682 C 0.16315 0.76261 0.35235 0.0
C683 C 0.19462 0.69269 0.37705 0.0
C684 C 0.18019 0.69188 0.41064 0.0
N685 N 0.16382 0.71078 0.38416 0.0
C686 C 0.17868 0.70518 0.37082 0.0
C687 C 0.16448 0.70439 0.40387 0.0
C688 C 0.19533 0.686 0.3971 0.0
C689 C 0.09247 0.7814 0.36649 0.0
N690 N 0.10837 0.78347 0.35334 0.0
C691 C 0.08471 0.79823 0.37676 0.0
C692 C 0.09333 0.81727 0.37348 0.0
C693 C 0.10954 0.81925 0.36003 0.0
C694 C 0.11692 0.80208 0.35005 0.0
C695 C 0.09988 0.79265 0.28901 0.0
C696 C 0.13474 0.77272 0.30136 0.0
C697 C 0.10086 0.78296 0.30784 0.0
N698 N 0.11818 0.77327 0.31383 0.0
C699 C 0.13432 0.78223 0.28243 0.0
C700 C 0.11676 0.79227 0.27626 0.0
C701 C 0.13667 0.71786 0.33092 0.0
C702 C 0.09214 0.70623 0.40758 0.0
C703 C 0.12232 0.69026 0.3831 0.0
C704 C 0.10761 0.67738 0.39129 0.0
C705 C 0.09243 0.68546 0.4036 0.0
N706 N 0.12195 0.71061 0.3871 0.0
C707 C 0.10712 0.71865 0.39915 0.0
Co708 Co 0.2377 0.87261 0.63996 0.0
Co709 Co 0.26666 0.84279 0.60789 0.0
O710 O 0.2527 0.86801 0.61484 0.0
C711 C 0.27052 0.90254 0.64019 0.0
O712 O 0.2819 0.88847 0.63192 0.0
C713 C 0.23558 0.84851 0.57665 0.0
O714 O 0.22373 0.85498 0.59127 0.0
O715 O 0.24363 0.82609 0.61778 0.0
O716 O 0.2238 0.84585 0.63723 0.0
H717 H 0.29145 0.77171 0.61991 0.0
H718 H 0.23702 0.90414 0.60794 0.0
O719 O 0.25178 0.89921 0.64362 0.0
H720 H 0.16563 0.88356 0.61711 0.0
H721 H 0.19852 0.91509 0.6899 0.0
H722 H 0.22681 0.84732 0.67555 0.0
H723 H 0.1927 0.86814 0.63786 0.0
H724 H 0.21713 0.90857 0.65806 0.0
O725 O 0.2538 0.84326 0.58043 0.0
H726 H 0.27421 0.80371 0.62886 0.0
H727 H 0.28826 0.8282 0.57094 0.0
H728 H 0.20814 0.85311 0.70749 0.0
H729 H 0.21041 0.92008 0.58697 0.0
H730 H 0.19386 0.88721 0.71483 0.0
H731 H 0.17443 0.90973 0.59145 0.0
O732 O 0.2595 0.85988 0.65634 0.0
H733 H 0.29881 0.89961 0.56847 0.0
H734 H 0.31142 0.84196 0.61447 0.0
H735 H 0.3402 0.86293 0.60288 0.0
H736 H 0.33397 0.89198 0.5797 0.0
H737 H 0.27045 0.87835 0.58059 0.0
H738 H 0.30551 0.7964 0.56128 0.0
H739 H 0.30725 0.76792 0.5859 0.0
O740 O 0.27935 0.84159 0.63537 0.0
C741 C 0.22798 0.82895 0.62878 0.0
C742 C 0.29089 0.78406 0.6091 0.0
C743 C 0.29875 0.7979 0.57618 0.0
N744 N 0.2805 0.81789 0.60055 0.0
C745 C 0.28124 0.80224 0.61411 0.0
C746 C 0.28896 0.81586 0.58172 0.0
C747 C 0.29973 0.78193 0.59 0.0
C748 C 0.22137 0.89972 0.61011 0.0
N749 N 0.21639 0.88531 0.62416 0.0
C750 C 0.20638 0.90873 0.59813 0.0
C751 C 0.1862 0.9029 0.60064 0.0
C752 C 0.18125 0.8882 0.61502 0.0
C753 C 0.19664 0.8795 0.6267 0.0
C754 C 0.20462 0.90016 0.68685 0.0
C755 C 0.22049 0.86215 0.67858 0.0
C756 C 0.21519 0.89639 0.66887 0.0
N757 N 0.22285 0.87753 0.66488 0.0
C758 C 0.21 0.86536 0.69671 0.0
C759 C 0.20201 0.8845 0.70083 0.0
C760 C 0.2748 0.8486 0.65283 0.0
C761 C 0.30172 0.88696 0.57853 0.0
C762 C 0.30859 0.8546 0.60441 0.0
C763 C 0.32495 0.86639 0.59787 0.0
C764 C 0.32144 0.88268 0.58485 0.0
N765 N 0.2893 0.85888 0.59812 0.0
C766 C 0.28574 0.87482 0.58536 0.0
Co767 Co 0.14773 0.25945 0.61798 0.0
Co768 Co 0.11118 0.23323 0.64492 0.0
O769 O 0.12048 0.24857 0.62138 0.0
C770 C 0.14181 0.23087 0.58444 0.0
O771 O 0.13256 0.21914 0.59759 0.0
C772 C 0.08681 0.27025 0.64369 0.0
O773 O 0.10391 0.27958 0.63965 0.0
O774 O 0.1253 0.25179 0.66413 0.0
O775 O 0.14741 0.27053 0.64612 0.0
H776 H 0.11848 0.19734 0.71179 0.0
H777 H 0.11596 0.26913 0.58765 0.0
O778 O 0.14867 0.24811 0.58987 0.0
H779 H 0.13782 0.33514 0.61532 0.0
H780 H 0.20372 0.29376 0.57895 0.0
H781 H 0.18467 0.26126 0.64362 0.0
H782 H 0.1537 0.30336 0.6271 0.0
H783 H 0.16912 0.28038 0.58408 0.0
O784 O 0.08659 0.25108 0.64634 0.0
H785 H 0.13052 0.21653 0.68198 0.0
H786 H 0.07076 0.21775 0.6579 0.0
H787 H 0.21939 0.27458 0.6392 0.0
H788 H 0.09979 0.30054 0.5753 0.0
H789 H 0.22911 0.29097 0.60667 0.0
H790 H 0.11066 0.33384 0.58922 0.0
O791 O 0.16008 0.23395 0.62816 0.0
H792 H 0.0665 0.21594 0.58559 0.0
H793 H 0.10933 0.18829 0.64036 0.0
H794 H 0.0926 0.16485 0.61644 0.0
H795 H 0.07099 0.17866 0.58882 0.0
H796 H 0.08364 0.23883 0.60974 0.0
H797 H 0.05802 0.19871 0.68753 0.0
H798 H 0.08199 0.18831 0.7147 0.0
O799 O 0.13591 0.21569 0.64395 0.0
C800 C 0.13872 0.26566 0.66273 0.0
C801 C 0.10791 0.20172 0.70002 0.0
C802 C 0.07397 0.20252 0.68641 0.0
N803 N 0.10139 0.21807 0.66814 0.0
C804 C 0.11465 0.21252 0.68307 0.0
C805 C 0.08125 0.21332 0.6697 0.0
C806 C 0.08742 0.19668 0.70165 0.0
C807 C 0.12092 0.28358 0.59361 0.0
N808 N 0.13582 0.28443 0.60799 0.0
C809 C 0.11164 0.30131 0.58663 0.0
C810 C 0.11773 0.31998 0.59447 0.0
C811 C 0.13296 0.32072 0.60912 0.0
C812 C 0.14188 0.30268 0.61576 0.0
C813 C 0.19966 0.2867 0.59321 0.0
C814 C 0.18875 0.26851 0.62948 0.0
C815 C 0.1801 0.27907 0.59619 0.0
N816 N 0.17485 0.27023 0.6142 0.0
C817 C 0.20845 0.27596 0.62704 0.0
C818 C 0.21389 0.28513 0.60877 0.0
C819 C 0.15406 0.21816 0.6376 0.0
C820 C 0.07583 0.20974 0.5976 0.0
C821 C 0.09997 0.19441 0.62836 0.0
C822 C 0.09051 0.18106 0.61489 0.0
C823 C 0.07838 0.18882 0.5994 0.0
N824 N 0.09737 0.2149 0.6265 0.0
C825 C 0.0855 0.22262 0.61136 0.0
Co826 Co 0.7655 0.11449 0.64811 0.0
Co827 Co 0.73787 0.1424 0.61333 0.0
O828 O 0.75375 0.11873 0.62133 0.0
C829 C 0.73768 0.08044 0.6418 0.0
O830 O 0.72543 0.0936 0.63329 0.0
C831 C 0.77353 0.14218 0.58696 0.0
O832 O 0.78392 0.13818 0.60344 0.0
O833 O 0.75714 0.16128 0.6268 0.0
O834 O 0.77576 0.14297 0.64873 0.0
H835 H 0.70309 0.20948 0.62354 0.0
H836 H 0.77519 0.08582 0.61486 0.0
O837 O 0.75504 0.08602 0.64823 0.0
H838 H 0.84094 0.11473 0.63593 0.0
H839 H 0.80265 0.07429 0.70135 0.0
H840 H 0.76758 0.13858 0.68605 0.0
H841 H 0.80929 0.12481 0.6532 0.0
H842 H 0.7881 0.08041 0.66741 0.0
O843 O 0.75432 0.14433 0.58787 0.0
H844 H 0.72288 0.17947 0.63399 0.0
H845 H 0.71985 0.15582 0.57414 0.0
H846 H 0.78206 0.13317 0.72014 0.0
H847 H 0.80649 0.07517 0.59727 0.0
H848 H 0.79974 0.10082 0.72796 0.0
H849 H 0.83965 0.08973 0.60774 0.0
O850 O 0.74 0.12319 0.66158 0.0
H851 H 0.71825 0.08397 0.5684 0.0
H852 H 0.69288 0.1377 0.61389 0.0
H853 H 0.6686 0.11405 0.59799 0.0
H854 H 0.68126 0.08696 0.57505 0.0
H855 H 0.74201 0.10783 0.58477 0.0
H856 H 0.70018 0.18566 0.56297 0.0
H857 H 0.6916 0.2127 0.58779 0.0
O858 O 0.72162 0.14102 0.63892 0.0
C859 C 0.77098 0.15968 0.64021 0.0
C860 C 0.70663 0.19774 0.61261 0.0
C861 C 0.70502 0.18439 0.57861 0.0
N862 N 0.72222 0.16579 0.60477 0.0
C863 C 0.71773 0.18067 0.61847 0.0
C864 C 0.71617 0.16754 0.58501 0.0
C865 C 0.70021 0.19955 0.59255 0.0
C866 C 0.78959 0.09205 0.61963 0.0
N867 N 0.79043 0.10584 0.63508 0.0
C868 C 0.80725 0.08604 0.60956 0.0
C869 C 0.82585 0.09424 0.61543 0.0
C870 C 0.82658 0.10827 0.63123 0.0
C871 C 0.80861 0.11395 0.64093 0.0
C872 C 0.79503 0.08846 0.69811 0.0
C873 C 0.77539 0.12453 0.6893 0.0
C874 C 0.78673 0.092 0.67893 0.0
N875 N 0.77717 0.10991 0.67472 0.0
C876 C 0.78349 0.12152 0.70865 0.0
C877 C 0.7934 0.10336 0.71303 0.0
C878 C 0.7243 0.13326 0.65647 0.0
C879 C 0.71255 0.09575 0.57832 0.0
C880 C 0.69851 0.12593 0.60396 0.0
C881 C 0.68469 0.1126 0.59497 0.0
C882 C 0.6918 0.09741 0.58208 0.0
N883 N 0.71883 0.1242 0.60018 0.0
C884 C 0.72592 0.10936 0.58756 0.0
Co885 Co 0.8427 0.73382 0.61047 0.0
Co886 Co 0.87668 0.7602 0.64048 0.0
O887 O 0.86941 0.74523 0.61601 0.0
C888 C 0.84996 0.76342 0.5782 0.0
O889 O 0.85877 0.7746 0.5921 0.0
C890 C 0.90271 0.72433 0.63996 0.0
O891 O 0.88634 0.71423 0.63488 0.0
O892 O 0.86245 0.74029 0.65807 0.0
O893 O 0.84112 0.72225 0.63842 0.0
H894 H 0.86417 0.79271 0.70831 0.0
H895 H 0.87656 0.72544 0.58209 0.0
O896 O 0.84334 0.74579 0.58262 0.0
H897 H 0.85473 0.65846 0.60738 0.0
H898 H 0.79066 0.69872 0.56695 0.0
H899 H 0.8038 0.73134 0.63299 0.0
H900 H 0.83736 0.68965 0.61866 0.0
H901 H 0.82449 0.71269 0.57489 0.0
O902 O 0.9019 0.74347 0.6427 0.0
H903 H 0.85468 0.77421 0.67717 0.0
H904 H 0.91554 0.77718 0.65613 0.0
H905 H 0.76979 0.71743 0.62577 0.0
H906 H 0.89426 0.69463 0.57027 0.0
H907 H 0.76306 0.70097 0.59253 0.0
H908 H 0.88339 0.66085 0.583 0.0
O909 O 0.82908 0.75879 0.6201 0.0
H910 H 0.92404 0.78161 0.58465 0.0
H911 H 0.87669 0.80532 0.63754 0.0
H912 H 0.89376 0.83034 0.61552 0.0
H913 H 0.91765 0.81851 0.58887 0.0
H914 H 0.90649 0.75711 0.60687 0.0
H915 H 0.92574 0.79555 0.68713 0.0
H916 H 0.89993 0.80351 0.71343 0.0
O917 O 0.85128 0.77675 0.63882 0.0
C918 C 0.84915 0.72647 0.65552 0.0
C919 C 0.87553 0.78942 0.69691 0.0
C920 C 0.91009 0.79099 0.68504 0.0
N921 N 0.88449 0.77487 0.66475 0.0
C922 C 0.87023 0.77903 0.67922 0.0
C923 C 0.90424 0.78057 0.66753 0.0
C924 C 0.8956 0.79545 0.69979 0.0
C925 C 0.87163 0.71077 0.58752 0.0
N926 N 0.85589 0.70932 0.60094 0.0
C927 C 0.88175 0.69339 0.58085 0.0
C928 C 0.87566 0.67444 0.58802 0.0
C929 C 0.85959 0.67309 0.60171 0.0
C930 C 0.84984 0.6908 0.60807 0.0
C931 C 0.79343 0.70577 0.58152 0.0
C932 C 0.80104 0.72401 0.61859 0.0
C933 C 0.81255 0.7137 0.5861 0.0
N934 N 0.81618 0.72253 0.60451 0.0
C935 C 0.78173 0.71625 0.61455 0.0
C936 C 0.77795 0.70704 0.59588 0.0
C937 C 0.83385 0.77421 0.63073 0.0
C938 C 0.91371 0.78695 0.59625 0.0
C939 C 0.88703 0.80006 0.62594 0.0
C940 C 0.89668 0.8143 0.61355 0.0
C941 C 0.91009 0.80765 0.5986 0.0
N942 N 0.89067 0.77979 0.62354 0.0
C943 C 0.9038 0.77315 0.60893 0.0
Co944 Co 0.34234 0.22987 0.10679 0.0
Co945 Co 0.3714 0.25226 0.14426 0.0
O946 O 0.36744 0.24178 0.11696 0.0
C947 C 0.35015 0.26563 0.08188 0.0
O948 O 0.35445 0.27467 0.09907 0.0
C949 C 0.40103 0.2196 0.13981 0.0
O950 O 0.38629 0.20919 0.13143 0.0
O951 O 0.3583 0.22801 0.15621 0.0
O952 O 0.33922 0.21311 0.13201 0.0
H953 H 0.35086 0.26924 0.2157 0.0
H954 H 0.37931 0.22913 0.08111 0.0
O955 O 0.34495 0.24698 0.08177 0.0
H956 H 0.36075 0.15737 0.09144 0.0
H957 H 0.29768 0.20061 0.05222 0.0
H958 H 0.30205 0.22005 0.12434 0.0
H959 H 0.33995 0.18472 0.10629 0.0
H960 H 0.32927 0.21513 0.06615 0.0
O961 O 0.39807 0.23783 0.14554 0.0
H962 H 0.3456 0.25645 0.18091 0.0
H963 H 0.40699 0.26945 0.16618 0.0
H964 H 0.27021 0.20544 0.11111 0.0
H965 H 0.40044 0.20227 0.06584 0.0
H966 H 0.26789 0.19561 0.07479 0.0
H967 H 0.39123 0.16609 0.07103 0.0
O968 O 0.3257 0.25158 0.11931 0.0
H969 H 0.41958 0.28858 0.09763 0.0
H970 H 0.36677 0.2969 0.15002 0.0
H971 H 0.38235 0.32724 0.13457 0.0
H972 H 0.40897 0.32317 0.10818 0.0
H973 H 0.40347 0.25866 0.11336 0.0
H974 H 0.41298 0.28223 0.20087 0.0
H975 H 0.38475 0.28226 0.22586 0.0
O976 O 0.34454 0.2664 0.14361 0.0
C977 C 0.34625 0.2142 0.15004 0.0
C978 C 0.36325 0.2694 0.20492 0.0
C979 C 0.39812 0.27667 0.1966 0.0
N980 N 0.3759 0.26247 0.17148 0.0
C981 C 0.36034 0.26226 0.18518 0.0
C982 C 0.39465 0.2694 0.177 0.0
C983 C 0.38228 0.27668 0.21062 0.0
C984 C 0.3751 0.21343 0.08327 0.0
N985 N 0.35837 0.2085 0.09447 0.0
C986 C 0.38717 0.19828 0.07466 0.0
C987 C 0.382 0.17798 0.0776 0.0
C988 C 0.36491 0.17308 0.08906 0.0
C989 C 0.35321 0.18863 0.09746 0.0
C990 C 0.29852 0.20477 0.06808 0.0
C991 C 0.3012 0.21563 0.10857 0.0
C992 C 0.31636 0.21301 0.07604 0.0
N993 N 0.31756 0.21819 0.09608 0.0
C994 C 0.28311 0.20745 0.10114 0.0
C995 C 0.28182 0.20196 0.08076 0.0
C996 C 0.32816 0.26453 0.13344 0.0
C997 C 0.40804 0.29055 0.10916 0.0
C998 C 0.37833 0.29502 0.13853 0.0
C999 C 0.38712 0.31225 0.12986 0.0
C1000 C 0.40206 0.30995 0.11506 0.0
N1001 N 0.38429 0.27604 0.13266 0.0
C1002 C 0.39894 0.27367 0.11818 0.0
Co1003 Co 0.37633 0.72711 0.84649 0.0
Co1004 Co 0.34589 0.75614 0.87786 0.0
O1005 O 0.37073 0.74117 0.87189 0.0
C1006 C 0.40826 0.75773 0.85056 0.0
O1007 O 0.39408 0.76987 0.85745 0.0
C1008 C 0.34772 0.72346 0.9077 0.0
O1009 O 0.3531 0.7118 0.89249 0.0
O1010 O 0.32865 0.73437 0.86611 0.0
O1011 O 0.34863 0.71488 0.8465 0.0
H1012 H 0.27689 0.785 0.86302 0.0
H1013 H 0.40491 0.72283 0.88093 0.0
O1014 O 0.40401 0.73948 0.84577 0.0
H1015 H 0.38098 0.65347 0.86622 0.0
H1016 H 0.42018 0.68774 0.7979 0.0
H1017 H 0.35327 0.71951 0.80862 0.0
H1018 H 0.36908 0.68245 0.84575 0.0
H1019 H 0.41231 0.70518 0.83009 0.0
O1020 O 0.34436 0.74228 0.90479 0.0
H1021 H 0.3084 0.76637 0.85516 0.0
H1022 H 0.33037 0.77712 0.91476 0.0
H1023 H 0.36041 0.70206 0.77627 0.0
H1024 H 0.41735 0.69427 0.90169 0.0
H1025 H 0.39408 0.68603 0.77076 0.0
H1026 H 0.4053 0.6593 0.89441 0.0
O1027 O 0.36621 0.75044 0.83035 0.0
H1028 H 0.40188 0.78402 0.9215 0.0
H1029 H 0.34765 0.80106 0.87285 0.0
H1030 H 0.36932 0.82833 0.88658 0.0
H1031 H 0.39666 0.81986 0.9111 0.0
H1032 H 0.37997 0.75721 0.90725 0.0
H1033 H 0.29903 0.79572 0.92335 0.0
H1034 H 0.27206 0.79983 0.89734 0.0
O1035 O 0.34683 0.76979 0.85083 0.0
C1036 C 0.33146 0.71934 0.85426 0.0
C1037 C 0.28858 0.78341 0.87445 0.0
C1038 C 0.30099 0.7894 0.90832 0.0
N1039 N 0.32132 0.77095 0.88438 0.0
C1040 C 0.30649 0.77298 0.87005 0.0
C1041 C 0.31869 0.77885 0.90337 0.0
C1042 C 0.28586 0.7917 0.89372 0.0
C1043 C 0.39977 0.70763 0.87756 0.0
N1044 N 0.38638 0.70429 0.8621 0.0
C1045 C 0.40679 0.69153 0.88941 0.0
C1046 C 0.40001 0.67192 0.88534 0.0
C1047 C 0.38635 0.66863 0.86953 0.0
C1048 C 0.37964 0.6851 0.85801 0.0
C1049 C 0.40543 0.69462 0.80014 0.0
C1050 C 0.3679 0.71243 0.80638 0.0
C1051 C 0.40091 0.70455 0.81831 0.0
N1052 N 0.38229 0.71318 0.82128 0.0
C1053 C 0.37188 0.70264 0.78801 0.0
C1054 C 0.39078 0.69367 0.78492 0.0
C1055 C 0.35504 0.76587 0.83373 0.0
C1056 C 0.38998 0.7879 0.91087 0.0
C1057 C 0.35954 0.79726 0.88349 0.0
C1058 C 0.37173 0.81277 0.89124 0.0
C1059 C 0.38706 0.80801 0.90501 0.0
N1060 N 0.36249 0.77758 0.88932 0.0
C1061 C 0.37747 0.7728 0.90283 0.0
Co1062 Co 0.24004 0.35259 0.88177 0.0
Co1063 Co 0.26288 0.38364 0.8462 0.0
O1064 O 0.25189 0.3783 0.87313 0.0
C1065 C 0.27532 0.35905 0.90795 0.0
O1066 O 0.28481 0.36498 0.89149 0.0
C1067 C 0.22899 0.4119 0.85115 0.0
O1068 O 0.21963 0.39717 0.8607 0.0
O1069 O 0.23973 0.36979 0.83304 0.0
O1070 O 0.22363 0.35068 0.85626 0.0
H1071 H 0.28216 0.36626 0.7745 0.0
H1072 H 0.23858 0.38796 0.90956 0.0
O1073 O 0.2567 0.35385 0.90713 0.0
H1074 H 0.16714 0.3694 0.89719 0.0
H1075 H 0.2104 0.30463 0.93329 0.0
H1076 H 0.23087 0.31329 0.86183 0.0
H1077 H 0.19489 0.34976 0.88152 0.0
H1078 H 0.22483 0.33709 0.92141 0.0
O1079 O 0.24716 0.40954 0.84492 0.0
H1080 H 0.26883 0.35934 0.80879 0.0
H1081 H 0.27936 0.42054 0.82594 0.0
H1082 H 0.21636 0.28063 0.87301 0.0
H1083 H 0.21131 0.4079 0.92569 0.0
H1084 H 0.20601 0.27616 0.90898 0.0
H1085 H 0.17528 0.39869 0.91946 0.0
O1086 O 0.26217 0.33692 0.86867 0.0
H1087 H 0.29533 0.43221 0.89517 0.0
H1088 H 0.30784 0.38126 0.84181 0.0
H1089 H 0.3369 0.3979 0.85857 0.0
H1090 H 0.33072 0.42359 0.88544 0.0
H1091 H 0.26672 0.41506 0.87812 0.0
H1092 H 0.29264 0.42821 0.79177 0.0
H1093 H 0.29418 0.40092 0.76581 0.0
O1094 O 0.27817 0.35747 0.84653 0.0
C1095 C 0.22559 0.35772 0.83832 0.0
C1096 C 0.2817 0.37824 0.78572 0.0
C1097 C 0.28755 0.41302 0.79541 0.0
N1098 N 0.27368 0.38941 0.81944 0.0
C1099 C 0.27427 0.37438 0.80519 0.0
C1100 C 0.28002 0.40859 0.81472 0.0
C1101 C 0.28841 0.3977 0.78084 0.0
C1102 C 0.22295 0.38374 0.90696 0.0
N1103 N 0.21833 0.36767 0.8947 0.0
C1104 C 0.20757 0.39514 0.91605 0.0
C1105 C 0.18736 0.38998 0.91253 0.0
C1106 C 0.18277 0.37355 0.90002 0.0
C1107 C 0.19855 0.36252 0.89116 0.0
C1108 C 0.21479 0.30642 0.91757 0.0
C1109 C 0.22625 0.3115 0.87747 0.0
C1110 C 0.22299 0.32475 0.91076 0.0
N1111 N 0.22846 0.32713 0.8909 0.0
C1112 C 0.21811 0.29296 0.88373 0.0
C1113 C 0.21233 0.29045 0.90392 0.0
C1114 C 0.2759 0.34045 0.8555 0.0
C1115 C 0.29822 0.42108 0.88344 0.0
C1116 C 0.30505 0.39239 0.85352 0.0
C1117 C 0.32155 0.40179 0.86293 0.0
C1118 C 0.31807 0.41622 0.87799 0.0
N1119 N 0.28562 0.39728 0.85892 0.0
C1120 C 0.28208 0.41139 0.87368 0.0
Co1121 Co 0.61807 0.25966 0.83829 0.0
Co1122 Co 0.6446 0.23121 0.87356 0.0
O1123 O 0.62118 0.24725 0.865 0.0
C1124 C 0.58395 0.23155 0.84226 0.0
O1125 O 0.5968 0.21917 0.85105 0.0
C1126 C 0.64356 0.26578 0.90136 0.0
O1127 O 0.63929 0.27683 0.88537 0.0
O1128 O 0.66382 0.25127 0.86189 0.0
O1129 O 0.64655 0.26997 0.83915 0.0
H1130 H 0.71248 0.19753 0.86507 0.0
H1131 H 0.58778 0.26851 0.87032 0.0
O1132 O 0.58967 0.24915 0.83665 0.0
H1133 H 0.61764 0.33475 0.85234 0.0
H1134 H 0.58015 0.29827 0.78441 0.0
H1135 H 0.64362 0.26243 0.80136 0.0
H1136 H 0.62871 0.30353 0.83491 0.0
H1137 H 0.58487 0.28286 0.81821 0.0
O1138 O 0.64544 0.24661 0.89969 0.0
H1139 H 0.68273 0.21742 0.85406 0.0
H1140 H 0.65639 0.21167 0.91258 0.0
H1141 H 0.63963 0.27777 0.76744 0.0
H1142 H 0.57613 0.29938 0.88802 0.0
H1143 H 0.60771 0.29584 0.75879 0.0
H1144 H 0.59115 0.33279 0.87909 0.0
O1145 O 0.62734 0.23456 0.82455 0.0
H1146 H 0.58435 0.20954 0.91499 0.0
H1147 H 0.64032 0.18622 0.8711 0.0
H1148 H 0.61612 0.16124 0.88497 0.0
H1149 H 0.5879 0.17286 0.9071 0.0
H1150 H 0.60879 0.23404 0.90064 0.0
H1151 H 0.68592 0.19188 0.92431 0.0
H1152 H 0.71419 0.18462 0.90044 0.0
O1153 O 0.64457 0.21588 0.84738 0.0
C1154 C 0.66272 0.26541 0.84875 0.0
C1155 C 0.7002 0.2005 0.87558 0.0
C1156 C 0.68531 0.19735 0.90884 0.0
N1157 N 0.66772 0.21543 0.88256 0.0
C1158 C 0.68329 0.21166 0.8694 0.0
C1159 C 0.66864 0.20857 0.90211 0.0
C1160 C 0.70117 0.19328 0.89544 0.0
C1161 C 0.59423 0.28303 0.86623 0.0
N1162 N 0.60882 0.28424 0.85154 0.0
C1163 C 0.58764 0.30044 0.87636 0.0
C1164 C 0.5961 0.31917 0.87136 0.0
C1165 C 0.61097 0.32028 0.85636 0.0
C1166 C 0.61721 0.30255 0.84657 0.0
C1167 C 0.59416 0.29049 0.78802 0.0
C1168 C 0.62976 0.27043 0.79775 0.0
C1169 C 0.5969 0.28173 0.80712 0.0
N1170 N 0.6146 0.27198 0.81181 0.0
C1171 C 0.62756 0.27901 0.7785 0.0
C1172 C 0.60963 0.28913 0.77365 0.0
C1173 C 0.63741 0.21888 0.82965 0.0
C1174 C 0.59661 0.20429 0.90541 0.0
C1175 C 0.62805 0.1914 0.88068 0.0
C1176 C 0.61442 0.17718 0.88853 0.0
C1177 C 0.5986 0.18371 0.90095 0.0
N1178 N 0.62599 0.21155 0.88513 0.0
C1179 C 0.61054 0.21807 0.89732 0.0
Co1180 Co 0.75513 0.64817 0.88229 0.0
Co1181 Co 0.73058 0.61415 0.85084 0.0
O1182 O 0.74501 0.62123 0.87563 0.0
C1183 C 0.72649 0.6373 0.91438 0.0
O1184 O 0.71489 0.63032 0.89979 0.0
C1185 C 0.76724 0.58933 0.85115 0.0
O1186 O 0.77668 0.60605 0.85639 0.0
O1187 O 0.75038 0.62928 0.83397 0.0
O1188 O 0.76629 0.65171 0.85428 0.0
H1189 H 0.69868 0.62727 0.78285 0.0
H1190 H 0.76576 0.61331 0.90871 0.0
O1191 O 0.74367 0.64517 0.91024 0.0
H1192 H 0.83108 0.64014 0.88386 0.0
H1193 H 0.78786 0.69977 0.92811 0.0
H1194 H 0.75559 0.68812 0.86161 0.0
H1195 H 0.79883 0.65635 0.87394 0.0
H1196 H 0.77552 0.6657 0.91862 0.0
O1197 O 0.74809 0.58944 0.84835 0.0
H1198 H 0.71651 0.63656 0.81443 0.0
H1199 H 0.71491 0.57522 0.8341 0.0
H1200 H 0.76785 0.72239 0.87038 0.0
H1201 H 0.79765 0.59673 0.91914 0.0
H1202 H 0.78412 0.72838 0.90385 0.0
H1203 H 0.83061 0.61011 0.90663 0.0
O1204 O 0.72938 0.66092 0.87355 0.0
H1205 H 0.70961 0.56524 0.90546 0.0
H1206 H 0.68541 0.6129 0.85311 0.0
H1207 H 0.66054 0.59485 0.87451 0.0
H1208 H 0.67262 0.57082 0.90091 0.0
H1209 H 0.73396 0.58374 0.88384 0.0
H1210 H 0.69721 0.56521 0.80265 0.0
H1211 H 0.68891 0.59136 0.77681 0.0
O1212 O 0.71331 0.63911 0.85277 0.0
C1213 C 0.76312 0.64351 0.83702 0.0
C1214 C 0.70213 0.61575 0.79404 0.0
C1215 C 0.70133 0.58092 0.80514 0.0
N1216 N 0.71649 0.60649 0.82619 0.0
C1217 C 0.71215 0.62094 0.81198 0.0
C1218 C 0.71136 0.58667 0.8229 0.0
C1219 C 0.69667 0.5956 0.79065 0.0
C1220 C 0.78005 0.61935 0.90338 0.0
N1221 N 0.78045 0.63585 0.89084 0.0
C1222 C 0.79805 0.60984 0.90926 0.0
C1223 C 0.81654 0.61734 0.90221 0.0
C1224 C 0.81681 0.63418 0.88943 0.0
C1225 C 0.79851 0.64328 0.88384 0.0
C1226 C 0.78086 0.69734 0.91345 0.0
C1227 C 0.76283 0.69058 0.87612 0.0
C1228 C 0.77384 0.67809 0.90801 0.0
N1229 N 0.76509 0.6749 0.88948 0.0
C1230 C 0.76966 0.71003 0.88104 0.0
C1231 C 0.77876 0.71338 0.89983 0.0
C1232 C 0.71467 0.65613 0.86197 0.0
C1233 C 0.70417 0.57563 0.89397 0.0
C1234 C 0.69078 0.60248 0.86458 0.0
C1235 C 0.67663 0.59228 0.87663 0.0
C1236 C 0.68341 0.57879 0.89143 0.0
N1237 N 0.71111 0.5993 0.86717 0.0
C1238 C 0.71788 0.58607 0.88162 0.0
Co1239 Co 0.63763 0.7573 0.11033 0.0
Co1240 Co 0.59872 0.73869 0.14023 0.0
O1241 O 0.60975 0.74836 0.11449 0.0
C1242 C 0.63266 0.72259 0.08308 0.0
O1243 O 0.62175 0.71422 0.09747 0.0
C1244 C 0.57497 0.77478 0.1299 0.0
O1245 O 0.59231 0.78318 0.12491 0.0
O1246 O 0.61197 0.76104 0.15551 0.0
O1247 O 0.63694 0.77354 0.13587 0.0
H1248 H 0.60095 0.71964 0.21403 0.0
H1249 H 0.60789 0.76218 0.07701 0.0
O1250 O 0.6393 0.74065 0.08509 0.0
H1251 H 0.63136 0.83142 0.09302 0.0
H1252 H 0.69652 0.78162 0.06817 0.0
H1253 H 0.67385 0.76173 0.13666 0.0
H1254 H 0.64507 0.80192 0.11153 0.0
H1255 H 0.66112 0.77094 0.07418 0.0
O1256 O 0.57446 0.75646 0.13611 0.0
H1257 H 0.61521 0.73137 0.18146 0.0
H1258 H 0.55733 0.72637 0.1536 0.0
H1259 H 0.70933 0.77249 0.13139 0.0
H1260 H 0.59389 0.79124 0.05799 0.0
H1261 H 0.72087 0.78253 0.09693 0.0
H1262 H 0.6056 0.82616 0.06602 0.0
O1263 O 0.64827 0.73373 0.12555 0.0
H1264 H 0.55725 0.70873 0.08369 0.0
H1265 H 0.5963 0.69387 0.14575 0.0
H1266 H 0.58055 0.66574 0.12672 0.0
H1267 H 0.56084 0.67311 0.09546 0.0
H1268 H 0.57341 0.73637 0.10308 0.0
H1269 H 0.54237 0.71475 0.18591 0.0
H1270 H 0.56426 0.71124 0.21639 0.0
O1271 O 0.62309 0.72118 0.14501 0.0
C1272 C 0.62663 0.77323 0.15226 0.0
C1273 C 0.59127 0.72101 0.20083 0.0
C1274 C 0.55839 0.71829 0.18505 0.0
N1275 N 0.58718 0.72927 0.1656 0.0
C1276 C 0.59929 0.72755 0.18233 0.0
C1277 C 0.56694 0.72489 0.16682 0.0
C1278 C 0.57068 0.71632 0.20215 0.0
C1279 C 0.61318 0.77732 0.08044 0.0
N1280 N 0.62734 0.78036 0.09527 0.0
C1281 C 0.60515 0.79372 0.06969 0.0
C1282 C 0.61171 0.81331 0.07422 0.0
C1283 C 0.62615 0.81628 0.08938 0.0
C1284 C 0.63383 0.79952 0.09983 0.0
C1285 C 0.69166 0.77737 0.08327 0.0
C1286 C 0.67871 0.76629 0.12167 0.0
C1287 C 0.67164 0.77131 0.08676 0.0
N1288 N 0.66537 0.76603 0.10581 0.0
C1289 C 0.69884 0.77227 0.11876 0.0
C1290 C 0.70531 0.77787 0.09942 0.0
C1291 C 0.64128 0.72106 0.13836 0.0
C1292 C 0.56576 0.70533 0.09732 0.0
C1293 C 0.58779 0.69718 0.13213 0.0
C1294 C 0.57887 0.6812 0.12144 0.0
C1295 C 0.5678 0.68535 0.10391 0.0
N1296 N 0.5857 0.71674 0.12557 0.0
C1297 C 0.57486 0.72093 0.10841 0.0
Co1298 Co 0.2635 0.61385 0.15093 0.0
Co1299 Co 0.23151 0.63936 0.11814 0.0
O1300 O 0.2504 0.61751 0.12469 0.0
C1301 C 0.23872 0.57752 0.14453 0.0
O1302 O 0.22548 0.58963 0.13596 0.0
C1303 C 0.26652 0.64487 0.09151 0.0
O1304 O 0.27753 0.64092 0.1076 0.0
O1305 O 0.24845 0.65982 0.13245 0.0
O1306 O 0.27111 0.64317 0.15175 0.0
H1307 H 0.18839 0.70055 0.13263 0.0
H1308 H 0.27443 0.58676 0.11676 0.0
O1309 O 0.25559 0.58451 0.15092 0.0
H1310 H 0.33804 0.62124 0.13591 0.0
H1311 H 0.3061 0.57621 0.2019 0.0
H1312 H 0.26485 0.63734 0.18928 0.0
H1313 H 0.30631 0.62806 0.15457 0.0
H1314 H 0.28981 0.58164 0.16864 0.0
O1315 O 0.2472 0.6448 0.09269 0.0
H1316 H 0.21199 0.67277 0.14114 0.0
H1317 H 0.21146 0.65269 0.07991 0.0
H1318 H 0.28099 0.6326 0.22272 0.0
H1319 H 0.30585 0.57934 0.09778 0.0
H1320 H 0.30179 0.60185 0.2292 0.0
H1321 H 0.33793 0.59671 0.10729 0.0
O1322 O 0.23791 0.61995 0.16555 0.0
H1323 H 0.21875 0.58156 0.07005 0.0
H1324 H 0.18749 0.62898 0.11878 0.0
H1325 H 0.16614 0.60341 0.10168 0.0
H1326 H 0.18177 0.57949 0.0771 0.0
H1327 H 0.23956 0.60724 0.08764 0.0
H1328 H 0.18798 0.68036 0.07068 0.0
H1329 H 0.17623 0.70447 0.09717 0.0
O1330 O 0.216 0.63445 0.14374 0.0
C1331 C 0.26346 0.65948 0.14465 0.0
C1332 C 0.19332 0.69008 0.12097 0.0
C1333 C 0.19312 0.67877 0.0862 0.0
N1334 N 0.21287 0.66099 0.11109 0.0
C1335 C 0.20661 0.67428 0.12572 0.0
C1336 C 0.20642 0.66315 0.0915 0.0
C1337 C 0.18653 0.69229 0.10107 0.0
C1338 C 0.28838 0.5942 0.12111 0.0
N1339 N 0.28857 0.60773 0.13681 0.0
C1340 C 0.3061 0.59002 0.11025 0.0
C1341 C 0.32409 0.59979 0.11558 0.0
C1342 C 0.32417 0.61356 0.13163 0.0
C1343 C 0.30615 0.61739 0.14212 0.0
C1344 C 0.29712 0.5897 0.19925 0.0
C1345 C 0.27401 0.624 0.19195 0.0
C1346 C 0.28785 0.59284 0.18046 0.0
N1347 N 0.27657 0.60989 0.17698 0.0
C1348 C 0.28305 0.62137 0.21093 0.0
C1349 C 0.2947 0.60409 0.21456 0.0
C1350 C 0.22059 0.62737 0.16118 0.0
C1351 C 0.21176 0.59193 0.08069 0.0
C1352 C 0.1944 0.61859 0.10814 0.0
C1353 C 0.18223 0.60417 0.09847 0.0
C1354 C 0.19101 0.59076 0.08467 0.0
N1355 N 0.21473 0.61965 0.10413 0.0
C1356 C 0.22345 0.60656 0.09062 0.0
Co1357 Co 0.73315 0.37678 0.14165 0.0
Co1358 Co 0.7641 0.34678 0.11174 0.0
O1359 O 0.74852 0.37141 0.11698 0.0
C1360 C 0.76395 0.40871 0.13972 0.0
O1361 O 0.77648 0.39443 0.13379 0.0
C1362 C 0.73231 0.34794 0.08087 0.0
O1363 O 0.7203 0.35364 0.09567 0.0
O1364 O 0.7423 0.32923 0.12293 0.0
O1365 O 0.72109 0.34899 0.14091 0.0
H1366 H 0.79391 0.27861 0.12833 0.0
H1367 H 0.73043 0.40556 0.1072 0.0
O1368 O 0.74536 0.40454 0.14307 0.0
H1369 H 0.66055 0.38112 0.11827 0.0
H1370 H 0.69113 0.42017 0.18839 0.0
H1371 H 0.72373 0.35348 0.17898 0.0
H1372 H 0.68854 0.36927 0.1401 0.0
H1373 H 0.71025 0.41257 0.1571 0.0
O1374 O 0.75107 0.34468 0.08433 0.0
H1375 H 0.77447 0.30983 0.13525 0.0
H1376 H 0.78643 0.33123 0.07567 0.0
H1377 H 0.70461 0.36037 0.21043 0.0
H1378 H 0.70287 0.41796 0.08511 0.0
H1379 H 0.68815 0.39392 0.21528 0.0
H1380 H 0.66764 0.40565 0.09055 0.0
O1381 O 0.75567 0.36665 0.15889 0.0
H1382 H 0.79237 0.40285 0.06846 0.0
H1383 H 0.80878 0.34941 0.11819 0.0
H1384 H 0.8361 0.37142 0.10511 0.0
H1385 H 0.82796 0.39836 0.08004 0.0
H1386 H 0.76549 0.38061 0.08208 0.0
H1387 H 0.80587 0.30015 0.06802 0.0
H1388 H 0.80978 0.27362 0.0945 0.0
O1389 O 0.77679 0.34826 0.13925 0.0
C1390 C 0.72648 0.33182 0.13376 0.0
C1391 C 0.79241 0.2901 0.11671 0.0
C1392 C 0.79909 0.30218 0.08284 0.0
N1393 N 0.77957 0.32244 0.10598 0.0
C1394 C 0.7815 0.30785 0.12057 0.0
C1395 C 0.78806 0.31973 0.08725 0.0
C1396 C 0.80128 0.2873 0.09771 0.0
C1397 C 0.71511 0.40031 0.10978 0.0
N1398 N 0.71108 0.38679 0.12497 0.0
C1399 C 0.69958 0.40731 0.09718 0.0
C1400 C 0.67982 0.40037 0.10021 0.0
C1401 C 0.67583 0.3866 0.11576 0.0
C1402 C 0.69175 0.37992 0.12805 0.0
C1403 C 0.69819 0.40547 0.18643 0.0
C1404 C 0.71648 0.36806 0.18092 0.0
C1405 C 0.70906 0.4011 0.16877 0.0
N1406 N 0.71792 0.38253 0.16615 0.0
C1407 C 0.70573 0.3719 0.19879 0.0
C1408 C 0.69652 0.39074 0.20151 0.0
C1409 C 0.77165 0.35607 0.15624 0.0
C1410 C 0.79612 0.39113 0.07934 0.0
C1411 C 0.80512 0.36112 0.10731 0.0
C1412 C 0.82066 0.37352 0.09993 0.0
C1413 C 0.81608 0.38862 0.08586 0.0
N1414 N 0.78559 0.36366 0.10081 0.0
C1415 C 0.78098 0.37844 0.08703 0.0
C1416 C 0.21512 0.54827 0.14086 0.0
C1417 C 0.23251 0.55674 0.1498 0.0
C1418 C 0.20695 0.53027 0.14837 0.0
C1419 C 0.21646 0.48702 0.18316 0.0
H1420 H 0.15807 0.48947 0.19054 0.0
C1421 C 0.17366 0.43251 0.23616 0.0
C1422 C 0.15662 0.42297 0.22761 0.0
C1423 C 0.18283 0.44883 0.22628 0.0
C1424 C 0.17435 0.48853 0.18843 0.0
H1425 H 0.25579 0.55242 0.17267 0.0
H1426 H 0.24129 0.52121 0.18606 0.0
H1427 H 0.17533 0.51659 0.17232 0.0
H1428 H 0.13516 0.42362 0.20264 0.0
H1429 H 0.15107 0.45231 0.18553 0.0
H1430 H 0.2154 0.45912 0.19976 0.0
C1431 C 0.23407 0.5283 0.17311 0.0
C1432 C 0.18424 0.50396 0.17788 0.0
C1433 C 0.24237 0.54621 0.16547 0.0
C1434 C 0.14832 0.43065 0.20955 0.0
C1435 C 0.15738 0.44708 0.19978 0.0
C1436 C 0.20656 0.47165 0.19385 0.0
C1437 C 0.2159 0.52052 0.16508 0.0
C1438 C 0.20541 0.50341 0.17518 0.0
C1439 C 0.17497 0.45601 0.20783 0.0
C1440 C 0.18544 0.47234 0.19664 0.0
H1441 H 0.20737 0.55595 0.12856 0.0
H1442 H 0.19323 0.52436 0.14152 0.0
H1443 H 0.23274 0.48606 0.18113 0.0
H1444 H 0.18041 0.42689 0.25006 0.0
H1445 H 0.19622 0.45568 0.23292 0.0
C1446 C 0.54507 0.15176 0.22726 0.0
C1447 C 0.56195 0.14486 0.21623 0.0
C1448 C 0.52706 0.15661 0.21724 0.0
C1449 C 0.48818 0.1569 0.19152 0.0
H1450 H 0.49534 0.19573 0.14779 0.0
C1451 C 0.42145 0.18815 0.14453 0.0
C1452 C 0.4203 0.20945 0.14464 0.0
C1453 C 0.43899 0.17839 0.1512 0.0
C1454 C 0.49318 0.1848 0.15988 0.0
H1455 H 0.57293 0.13667 0.18623 0.0
H1456 H 0.54155 0.14548 0.1688 0.0
H1457 H 0.52511 0.18081 0.16415 0.0
H1458 H 0.4368 0.23725 0.15087 0.0
H1459 H 0.46765 0.22009 0.16219 0.0
H1460 H 0.45622 0.16117 0.18743 0.0
C1461 C 0.54232 0.14715 0.18514 0.0
C1462 C 0.51013 0.17619 0.16913 0.0
C1463 C 0.56023 0.14208 0.19515 0.0
C1464 C 0.43728 0.22082 0.15069 0.0
C1465 C 0.45492 0.21104 0.15707 0.0
C1466 C 0.47121 0.16529 0.18206 0.0
C1467 C 0.52576 0.15482 0.19605 0.0
C1468 C 0.50775 0.16242 0.18522 0.0
C1469 C 0.45573 0.18976 0.15775 0.0
C1470 C 0.47361 0.17955 0.1664 0.0
H1471 H 0.54594 0.15395 0.24353 0.0
H1472 H 0.51446 0.16261 0.22594 0.0
H1473 H 0.48604 0.14627 0.20387 0.0
H1474 H 0.40858 0.179 0.13997 0.0
H1475 H 0.43938 0.16196 0.1515 0.0
C1476 C 0.79292 0.4327 0.14391 0.0
C1477 C 0.77195 0.42895 0.14481 0.0
C1478 C 0.80084 0.45099 0.15101 0.0
C1479 C 0.81307 0.49449 0.15948 0.0
H1480 H 0.79027 0.51435 0.20998 0.0
C1481 C 0.83389 0.57209 0.19396 0.0
C1482 C 0.83526 0.57352 0.21519 0.0
C1483 C 0.8273 0.55419 0.18484 0.0
C1484 C 0.79695 0.50887 0.19599 0.0
H1485 H 0.74269 0.44181 0.15276 0.0
H1486 H 0.75651 0.47394 0.16479 0.0
H1487 H 0.776 0.48421 0.19417 0.0
H1488 H 0.83171 0.55706 0.24348 0.0
H1489 H 0.82055 0.52562 0.22749 0.0
H1490 H 0.8344 0.51887 0.16164 0.0
C1491 C 0.76686 0.46253 0.15905 0.0
C1492 C 0.78855 0.49181 0.18676 0.0
C1493 C 0.75894 0.4442 0.15203 0.0
C1494 C 0.83067 0.55645 0.22709 0.0
C1495 C 0.82415 0.53851 0.21794 0.0
C1496 C 0.82153 0.51154 0.16877 0.0
C1497 C 0.78793 0.46592 0.15904 0.0
C1498 C 0.7965 0.48445 0.16839 0.0
C1499 C 0.82205 0.53732 0.19675 0.0
C1500 C 0.81355 0.5189 0.18712 0.0
H1501 H 0.80334 0.42125 0.13839 0.0
H1502 H 0.81714 0.45307 0.15095 0.0
H1503 H 0.81944 0.48925 0.14526 0.0
H1504 H 0.83736 0.58498 0.18436 0.0
H1505 H 0.82566 0.55382 0.16849 0.0
C1506 C 0.55784 0.80855 0.12956 0.0
C1507 C 0.5565 0.7873 0.13095 0.0
C1508 C 0.54097 0.82061 0.13386 0.0
C1509 C 0.50976 0.83812 0.16307 0.0
H1510 H 0.4542 0.82463 0.14911 0.0
C1511 C 0.44228 0.84861 0.21667 0.0
C1512 C 0.42358 0.85479 0.20857 0.0
C1513 C 0.45887 0.84539 0.20393 0.0
C1514 C 0.46963 0.82887 0.15288 0.0
H1515 H 0.53614 0.76196 0.13621 0.0
H1516 H 0.50671 0.78301 0.14363 0.0
H1517 H 0.4821 0.80915 0.13026 0.0
H1518 H 0.40784 0.86347 0.18093 0.0
H1519 H 0.43683 0.85753 0.1587 0.0
H1520 H 0.4973 0.85705 0.18637 0.0
C1521 C 0.52077 0.79035 0.13928 0.0
C1522 C 0.48555 0.81992 0.14219 0.0
C1523 C 0.53766 0.7783 0.13519 0.0
C1524 C 0.42202 0.85854 0.18762 0.0
C1525 C 0.43857 0.85515 0.17487 0.0
C1526 C 0.49384 0.84693 0.17388 0.0
C1527 C 0.52246 0.8116 0.13933 0.0
C1528 C 0.50574 0.82399 0.14762 0.0
C1529 C 0.45701 0.84818 0.18288 0.0
C1530 C 0.47367 0.84187 0.16928 0.0
H1531 H 0.57214 0.81593 0.12618 0.0
H1532 H 0.54258 0.83696 0.13365 0.0
H1533 H 0.5252 0.84139 0.16769 0.0
H1534 H 0.44396 0.8457 0.23277 0.0
H1535 H 0.47288 0.8398 0.21046 0.0
C1536 C 0.19889 0.43462 0.85429 0.0
C1537 C 0.21731 0.42974 0.84469 0.0
C1538 C 0.1865 0.44991 0.84645 0.0
C1539 C 0.17255 0.47259 0.79914 0.0
H1540 H 0.1593 0.52192 0.8283 0.0
C1541 C 0.15104 0.54578 0.75865 0.0
C1542 C 0.13874 0.56012 0.76844 0.0
C1543 C 0.15624 0.52779 0.76841 0.0
C1544 C 0.16235 0.50802 0.82008 0.0
H1545 H 0.23752 0.43727 0.81978 0.0
H1546 H 0.21563 0.46372 0.80592 0.0
H1547 H 0.17759 0.49476 0.84561 0.0
H1548 H 0.12086 0.56629 0.7954 0.0
H1549 H 0.12952 0.53452 0.81228 0.0
H1550 H 0.15744 0.4856 0.77361 0.0
C1551 C 0.2109 0.45575 0.81951 0.0
C1552 C 0.17294 0.49259 0.82999 0.0
C1553 C 0.22345 0.44079 0.82754 0.0
C1554 C 0.13063 0.55559 0.78762 0.0
C1555 C 0.13565 0.53745 0.79732 0.0
C1556 C 0.16167 0.48782 0.78933 0.0
C1557 C 0.19223 0.46015 0.82872 0.0
C1558 C 0.17866 0.47512 0.81934 0.0
C1559 C 0.14902 0.52364 0.78807 0.0
C1560 C 0.1571 0.50602 0.79946 0.0
H1561 H 0.19386 0.42633 0.86757 0.0
H1562 H 0.17216 0.45323 0.85377 0.0
H1563 H 0.17663 0.45902 0.7908 0.0
H1564 H 0.15753 0.54887 0.74386 0.0
H1565 H 0.1668 0.51768 0.76093 0.0
C1566 C 0.55313 0.23336 0.82047 0.0
C1567 C 0.56381 0.22402 0.83637 0.0
C1568 C 0.5354 0.2246 0.81297 0.0
C1569 C 0.49378 0.19046 0.8245 0.0
H1570 H 0.49372 0.17916 0.76672 0.0
C1571 C 0.42973 0.14427 0.78782 0.0
C1572 C 0.42261 0.15107 0.76895 0.0
C1573 C 0.44763 0.1521 0.79593 0.0
C1574 C 0.49336 0.18243 0.78281 0.0
H1575 H 0.56383 0.19891 0.85766 0.0
H1576 H 0.53245 0.18384 0.84477 0.0
H1577 H 0.52264 0.19649 0.78196 0.0
H1578 H 0.42875 0.17097 0.74347 0.0
H1579 H 0.45963 0.18515 0.75786 0.0
H1580 H 0.4643 0.17705 0.8254 0.0
C1581 C 0.53799 0.19778 0.83803 0.0
C1582 C 0.50992 0.1923 0.79151 0.0
C1583 C 0.55591 0.20636 0.84533 0.0
C1584 C 0.43399 0.16537 0.75801 0.0
C1585 C 0.45173 0.17343 0.76625 0.0
C1586 C 0.47706 0.18086 0.81576 0.0
C1587 C 0.52791 0.20657 0.82147 0.0
C1588 C 0.51023 0.1964 0.81239 0.0
C1589 C 0.4586 0.16711 0.78544 0.0
C1590 C 0.47665 0.17673 0.79481 0.0
H1591 H 0.55891 0.24695 0.81324 0.0
H1592 H 0.52771 0.2317 0.80029 0.0
H1593 H 0.49372 0.19358 0.84064 0.0
H1594 H 0.42132 0.13309 0.79647 0.0
H1595 H 0.45275 0.14654 0.81051 0.0
C1596 C 0.76939 0.55244 0.8427 0.0
C1597 C 0.77913 0.57086 0.84716 0.0
C1598 C 0.78076 0.53538 0.83746 0.0
C1599 C 0.82815 0.52192 0.8133 0.0
H1600 H 0.81601 0.46777 0.8329 0.0
C1601 C 0.84544 0.44855 0.76945 0.0
C1602 C 0.8525 0.43177 0.78051 0.0
C1603 C 0.84014 0.46643 0.77945 0.0
C1604 C 0.81976 0.48284 0.8275 0.0
H1605 H 0.80841 0.58571 0.85037 0.0
H1606 H 0.82818 0.55591 0.84095 0.0
H1607 H 0.79907 0.497 0.84818 0.0
H1608 H 0.86059 0.42086 0.81055 0.0
H1609 H 0.85106 0.45209 0.82797 0.0
H1610 H 0.84832 0.5077 0.79215 0.0
C1611 C 0.81179 0.55475 0.84148 0.0
C1612 C 0.80996 0.49949 0.83611 0.0
C1613 C 0.80045 0.57175 0.84691 0.0
C1614 C 0.85506 0.4335 0.80162 0.0
C1615 C 0.84958 0.45131 0.81162 0.0
C1616 C 0.83778 0.50525 0.80454 0.0
C1617 C 0.80203 0.53653 0.83645 0.0
C1618 C 0.81384 0.51912 0.82885 0.0
C1619 C 0.84169 0.46775 0.80065 0.0
C1620 C 0.83342 0.48556 0.81136 0.0
H1621 H 0.75298 0.5513 0.84285 0.0
H1622 H 0.77289 0.52151 0.83347 0.0
H1623 H 0.83126 0.53693 0.80735 0.0
H1624 H 0.84341 0.44768 0.75316 0.0
H1625 H 0.83395 0.47888 0.77068 0.0
C1626 C 0.55424 0.82483 0.76436 0.0
C1627 C 0.56511 0.84097 0.77306 0.0
C1628 C 0.53777 0.81638 0.77459 0.0
C1629 C 0.49843 0.82556 0.81136 0.0
H1630 H 0.50124 0.76765 0.8216 0.0
C1631 C 0.4346 0.78464 0.85422 0.0
C1632 C 0.42848 0.76597 0.84599 0.0
C1633 C 0.45273 0.79363 0.84798 0.0
C1634 C 0.50012 0.78379 0.81871 0.0
H1635 H 0.56676 0.86164 0.79864 0.0
H1636 H 0.53743 0.84711 0.81625 0.0
H1637 H 0.52909 0.78455 0.804 0.0
H1638 H 0.43676 0.74167 0.8254 0.0
H1639 H 0.46793 0.7576 0.81399 0.0
H1640 H 0.4691 0.82481 0.82511 0.0
C1641 C 0.54193 0.84091 0.8017 0.0
C1642 C 0.51607 0.79342 0.80871 0.0
C1643 C 0.55865 0.84915 0.79166 0.0
C1644 C 0.44116 0.75604 0.83207 0.0
C1645 C 0.45911 0.76515 0.82561 0.0
C1646 C 0.48229 0.81588 0.82107 0.0
C1647 C 0.53172 0.82417 0.79345 0.0
C1648 C 0.51521 0.8143 0.80477 0.0
C1649 C 0.46492 0.78425 0.8332 0.0
C1650 C 0.48284 0.79482 0.82464 0.0
H1651 H 0.55895 0.81819 0.75008 0.0
H1652 H 0.52991 0.80357 0.76791 0.0
H1653 H 0.49751 0.84171 0.80839 0.0
H1654 H 0.42518 0.79251 0.86517 0.0
H1655 H 0.45698 0.80812 0.85446 0.0
C1656 C 0.16048 0.23298 0.55162 0.0
C1657 C 0.14615 0.22315 0.56395 0.0
C1658 C 0.16647 0.22436 0.53327 0.0
C1659 C 0.16958 0.17456 0.5085 0.0
H1660 H 0.18627 0.20688 0.46224 0.0
C1661 C 0.19997 0.14134 0.43279 0.0
C1662 C 0.21786 0.15046 0.42559 0.0
C1663 C 0.18967 0.14962 0.44934 0.0
C1664 C 0.18169 0.19772 0.4751 0.0
H1665 H 0.12585 0.19732 0.5662 0.0
H1666 H 0.13597 0.18249 0.53386 0.0
H1667 H 0.16923 0.22323 0.49074 0.0
H1668 H 0.23932 0.17502 0.43033 0.0
H1669 H 0.22123 0.1895 0.45916 0.0
H1670 H 0.18207 0.14904 0.49268 0.0
C1671 C 0.14299 0.19656 0.53864 0.0
C1672 C 0.17197 0.20704 0.4914 0.0
C1673 C 0.13712 0.2051 0.5571 0.0
C1674 C 0.22558 0.16764 0.43555 0.0
C1675 C 0.21516 0.17604 0.45192 0.0
C1676 C 0.17911 0.1652 0.49207 0.0
C1677 C 0.15809 0.20584 0.52678 0.0
C1678 C 0.1662 0.19564 0.50847 0.0
C1679 C 0.19699 0.16726 0.45875 0.0
C1680 C 0.18561 0.17679 0.47546 0.0
H1681 H 0.16773 0.24691 0.55651 0.0
H1682 H 0.17833 0.23179 0.52465 0.0
H1683 H 0.16561 0.16537 0.52153 0.0
H1684 H 0.19371 0.12804 0.42542 0.0
H1685 H 0.17568 0.14261 0.4544 0.0
C1686 C 0.80567 0.14581 0.56728 0.0
C1687 C 0.78434 0.14564 0.56771 0.0
C1688 C 0.81597 0.15101 0.54954 0.0
C1689 C 0.83039 0.17921 0.51598 0.0
H1690 H 0.81386 0.16143 0.46237 0.0
C1691 C 0.84224 0.22594 0.44348 0.0
C1692 C 0.84781 0.21566 0.42567 0.0
C1693 C 0.83813 0.21512 0.46119 0.0
C1694 C 0.81885 0.16631 0.47725 0.0
H1695 H 0.75708 0.14969 0.54968 0.0
H1696 H 0.77513 0.15877 0.51869 0.0
H1697 H 0.79932 0.14516 0.49235 0.0
H1698 H 0.85432 0.18609 0.41263 0.0
H1699 H 0.8469 0.16723 0.44361 0.0
H1700 H 0.84942 0.2008 0.50088 0.0
C1701 C 0.78385 0.15486 0.53206 0.0
C1702 C 0.81042 0.15712 0.49436 0.0
C1703 C 0.77352 0.1498 0.54983 0.0
C1704 C 0.84994 0.19444 0.4261 0.0
C1705 C 0.84566 0.18362 0.44377 0.0
C1706 C 0.83868 0.1885 0.49888 0.0
C1707 C 0.80514 0.15593 0.5319 0.0
C1708 C 0.81583 0.16378 0.51385 0.0
C1709 C 0.8394 0.19385 0.46136 0.0
C1710 C 0.83267 0.1824 0.47939 0.0
H1711 H 0.81444 0.14251 0.58078 0.0
H1712 H 0.83241 0.15155 0.54972 0.0
H1713 H 0.83469 0.18473 0.53085 0.0
H1714 H 0.84056 0.24229 0.44363 0.0
H1715 H 0.83314 0.22335 0.47452 0.0
C1716 C 0.75697 0.83478 0.43965 0.0
C1717 C 0.76614 0.84899 0.42671 0.0
C1718 C 0.76675 0.8286 0.4573 0.0
C1719 C 0.81821 0.82442 0.47825 0.0
H1720 H 0.78877 0.80622 0.52585 0.0
C1721 C 0.85302 0.79128 0.55278 0.0
C1722 C 0.84419 0.77282 0.55883 0.0
C1723 C 0.84508 0.80202 0.53635 0.0
C1724 C 0.79712 0.81127 0.51261 0.0
H1725 H 0.792 0.86901 0.42277 0.0
H1726 H 0.80888 0.85857 0.454 0.0
H1727 H 0.77088 0.82489 0.49941 0.0
H1728 H 0.82091 0.75055 0.55183 0.0
H1729 H 0.80692 0.76953 0.52333 0.0
H1730 H 0.84451 0.81084 0.49181 0.0
C1731 C 0.79441 0.85178 0.45017 0.0
C1732 C 0.78693 0.8219 0.49748 0.0
C1733 C 0.78469 0.85783 0.43237 0.0
C1734 C 0.82804 0.76473 0.54752 0.0
C1735 C 0.81993 0.77561 0.53134 0.0
C1736 C 0.82848 0.81404 0.49358 0.0
C1737 C 0.78581 0.83668 0.46253 0.0
C1738 C 0.79722 0.8281 0.47987 0.0
C1739 C 0.82806 0.79455 0.52602 0.0
C1740 C 0.81785 0.80695 0.51057 0.0
H1741 H 0.74268 0.82766 0.43567 0.0
H1742 H 0.7598 0.81673 0.4663 0.0
H1743 H 0.82655 0.82876 0.46477 0.0
H1744 H 0.86555 0.79779 0.56121 0.0
H1745 H 0.85157 0.81659 0.53237 0.0
C1746 C 0.1637 0.76421 0.43393 0.0
C1747 C 0.14894 0.77335 0.42159 0.0
C1748 C 0.17232 0.77499 0.44993 0.0
C1749 C 0.16537 0.81356 0.48689 0.0
H1750 H 0.22346 0.82248 0.48299 0.0
C1751 C 0.2085 0.85394 0.55081 0.0
C1752 C 0.22699 0.84497 0.55638 0.0
C1753 C 0.19909 0.8486 0.53262 0.0
C1754 C 0.20728 0.81999 0.48442 0.0
H1755 H 0.13078 0.8004 0.41687 0.0
H1756 H 0.14549 0.81903 0.44553 0.0
H1757 H 0.20569 0.80506 0.45559 0.0
H1758 H 0.2506 0.82402 0.54705 0.0
H1759 H 0.23393 0.81411 0.5158 0.0
H1760 H 0.16694 0.82729 0.51617 0.0
C1761 C 0.15053 0.80369 0.44246 0.0
C1762 C 0.19715 0.81013 0.4687 0.0
C1763 C 0.14219 0.79306 0.42616 0.0
C1764 C 0.23637 0.83125 0.54309 0.0
C1765 C 0.22683 0.82567 0.52508 0.0
C1766 C 0.17555 0.82309 0.50282 0.0
C1767 C 0.166 0.79487 0.45408 0.0
C1768 C 0.17623 0.80659 0.47001 0.0
C1769 C 0.20787 0.83395 0.51982 0.0
C1770 C 0.1967 0.82609 0.50192 0.0
H1771 H 0.16926 0.74908 0.43067 0.0
H1772 H 0.18417 0.76795 0.4589 0.0
H1773 H 0.14919 0.81089 0.4881 0.0
H1774 H 0.20107 0.86476 0.56072 0.0
H1775 H 0.18473 0.85561 0.52881 0.0
C1776 C 0.66933 0.93558 0.7296 0.0
C1777 C 0.65319 0.92493 0.72062 0.0
C1778 C 0.67843 0.95172 0.71938 0.0
C1779 C 0.67054 0.99018 0.6809 0.0
H1780 H 0.72905 0.98828 0.67449 0.0
C1781 C 0.71242 0.05264 0.63728 0.0
C1782 C 0.73016 0.05997 0.64653 0.0
C1783 C 0.70369 0.03449 0.6438 0.0
C1784 C 0.71273 0.98913 0.67629 0.0
H1785 H 0.63327 0.92332 0.69446 0.0
H1786 H 0.64894 0.95195 0.67682 0.0
H1787 H 0.71163 0.96087 0.69226 0.0
H1788 H 0.75324 0.05368 0.66915 0.0
H1789 H 0.73773 0.02243 0.68095 0.0
H1790 H 0.67156 0.01877 0.66574 0.0
C1791 C 0.65464 0.9476 0.69161 0.0
C1792 C 0.7028 0.97344 0.68643 0.0
C1793 C 0.64573 0.93125 0.70168 0.0
C1794 C 0.73958 0.04836 0.66169 0.0
C1795 C 0.73071 0.03037 0.66839 0.0
C1796 C 0.68048 0.00603 0.671 0.0
C1797 C 0.67132 0.95765 0.7002 0.0
C1798 C 0.68167 0.97396 0.68897 0.0
C1799 C 0.7124 0.02348 0.65986 0.0
C1800 C 0.70173 0.00578 0.66876 0.0
H1801 H 0.67543 0.93098 0.74415 0.0
H1802 H 0.69115 0.95945 0.72636 0.0
H1803 H 0.65422 0.99089 0.68278 0.0
H1804 H 0.70498 0.06119 0.62537 0.0
H1805 H 0.68985 0.02935 0.63659 0.0
C1806 C 0.9397 0.72384 0.64806 0.0
C1807 C 0.92166 0.71326 0.64398 0.0
C1808 C 0.95722 0.71331 0.65348 0.0
C1809 C 0.99427 0.68579 0.65545 0.0
H1810 H 0.98783 0.64811 0.70027 0.0
C1811 C 0.06199 0.64346 0.69003 0.0
C1812 C 0.06372 0.64578 0.71116 0.0
C1813 C 0.04403 0.64862 0.68016 0.0
C1814 C 0.98979 0.6585 0.68768 0.0
H1815 H 0.90796 0.68336 0.64159 0.0
H1816 H 0.9386 0.66504 0.6513 0.0
H1817 H 0.95785 0.66356 0.68483 0.0
H1818 H 0.04776 0.65433 0.73867 0.0
H1819 H 0.0163 0.66335 0.72134 0.0
H1820 H 0.02623 0.68122 0.65868 0.0
C1821 C 0.9391 0.68144 0.65035 0.0
C1822 C 0.97269 0.66719 0.67876 0.0
C1823 C 0.92162 0.69194 0.64474 0.0
C1824 C 0.04688 0.65249 0.72235 0.0
C1825 C 0.02886 0.65752 0.71248 0.0
C1826 C 0.01135 0.67696 0.66424 0.0
C1827 C 0.95693 0.69207 0.65504 0.0
C1828 C 0.97484 0.68121 0.66285 0.0
C1829 C 0.02745 0.65602 0.69127 0.0
C1830 C 0.00926 0.66356 0.68067 0.0
H1831 H 0.94018 0.74026 0.64751 0.0
H1832 H 0.97078 0.72184 0.6572 0.0
H1833 H -0.00374 0.69649 0.64312 0.0
H1834 H 0.07466 0.63815 0.68099 0.0
H1835 H 0.0432 0.64715 0.66381 0.0
C1836 C 0.35531 0.05233 0.70931 0.0
C1837 C 0.34524 0.05852 0.72701 0.0
C1838 C 0.35102 0.03353 0.70063 0.0
C1839 C 0.32292 0.98508 0.70905 0.0
H1840 H 0.31658 0.98718 0.65054 0.0
C1841 C 0.27089 0.93157 0.6643 0.0
C1842 C 0.28014 0.92092 0.64833 0.0
C1843 C 0.2811 0.94746 0.6738 0.0
C1844 C 0.31851 0.98636 0.66685 0.0
H1845 H 0.32359 0.04972 0.75016 0.0
H1846 H 0.3154 0.01729 0.7346 0.0
H1847 H 0.33148 0.01595 0.6683 0.0
H1848 H 0.30686 0.91893 0.62918 0.0
H1849 H 0.32446 0.94734 0.64549 0.0
H1850 H 0.30875 0.95585 0.70748 0.0
C1851 C 0.32701 0.02659 0.72762 0.0
C1852 C 0.32718 0.00273 0.67705 0.0
C1853 C 0.3316 0.04524 0.73651 0.0
C1854 C 0.29943 0.92692 0.64149 0.0
C1855 C 0.30948 0.94308 0.65077 0.0
C1856 C 0.31392 0.96887 0.69886 0.0
C1857 C 0.33627 0.02077 0.70927 0.0
C1858 C 0.3292 0.00242 0.69832 0.0
C1859 C 0.30053 0.95315 0.66724 0.0
C1860 C 0.3114 0.96956 0.67775 0.0
H1861 H 0.36615 0.06223 0.70188 0.0
H1862 H 0.35883 0.02929 0.68681 0.0
H1863 H 0.32462 0.98415 0.72537 0.0
H1864 H 0.25609 0.92719 0.66996 0.0
H1865 H 0.27387 0.95524 0.68635 0.0
C1866 C 0.06898 0.30357 0.64502 0.0
C1867 C 0.06819 0.28229 0.6464 0.0
C1868 C 0.05189 0.31521 0.64944 0.0
C1869 C -0.00348 0.31328 0.65623 0.0
H1870 H 0.00574 0.35464 0.69714 0.0
C1871 C 0.94853 0.3502 0.72401 0.0
C1872 C 0.93053 0.35541 0.71389 0.0
C1873 C 0.96597 0.34552 0.71299 0.0
C1874 C 0.00299 0.34328 0.68557 0.0
H1875 H 0.04866 0.25646 0.65242 0.0
H1876 H 0.01878 0.27687 0.6602 0.0
H1877 H 0.03465 0.33734 0.68172 0.0
H1878 H 0.91695 0.36101 0.68438 0.0
H1879 H 0.94745 0.35258 0.66517 0.0
H1880 H 0.96482 0.31862 0.66073 0.0
C1881 C 0.03261 0.28449 0.65564 0.0
C1882 C 0.01949 0.3335 0.67665 0.0
C1883 C 0.04974 0.27283 0.65133 0.0
C1884 C 0.93057 0.35688 0.69261 0.0
C1885 C 0.94797 0.35203 0.68159 0.0
C1886 C 0.98002 0.32319 0.66503 0.0
C1887 C 0.03368 0.30579 0.65516 0.0
C1888 C 0.01636 0.31804 0.66231 0.0
C1889 C 0.96566 0.34586 0.69168 0.0
C1890 C 0.98312 0.33787 0.68017 0.0
H1891 H 0.08293 0.31131 0.64106 0.0
H1892 H 0.05301 0.3316 0.64878 0.0
H1893 H 0.99375 0.30152 0.64509 0.0
H1894 H 0.94899 0.34906 0.7404 0.0
H1895 H 0.97939 0.34063 0.72113 0.0
C1896 C 0.71344 0.94459 0.3437 0.0
C1897 C 0.70342 0.92609 0.34706 0.0
C1898 C 0.70233 0.96214 0.33977 0.0
C1899 C 0.65528 0.97726 0.31629 0.0
H1900 H 0.67063 0.03077 0.33537 0.0
C1901 C 0.64501 0.05015 0.27011 0.0
C1902 C 0.63959 0.06802 0.28035 0.0
C1903 C 0.64827 0.03226 0.28092 0.0
C1904 C 0.66591 0.01591 0.33016 0.0
H1905 H 0.67393 0.91162 0.35003 0.0
H1906 H 0.65457 0.94235 0.34289 0.0
H1907 H 0.68535 0.00075 0.3513 0.0
H1908 H 0.63224 0.08096 0.30978 0.0
H1909 H 0.63818 0.04969 0.32862 0.0
H1910 H 0.63645 0.99245 0.29461 0.0
C1911 C 0.67099 0.94318 0.34324 0.0
C1912 C 0.67444 -0.00121 0.33916 0.0
C1913 C 0.68209 0.92565 0.34734 0.0
C1914 C 0.63661 0.06746 0.30147 0.0
C1915 C 0.64 0.04961 0.31228 0.0
C1916 C 0.64686 0.99439 0.30718 0.0
C1917 C 0.68103 0.96147 0.33902 0.0
C1918 C 0.66961 0.97935 0.33193 0.0
C1919 C 0.64625 0.03197 0.30214 0.0
C1920 C 0.65253 0.01386 0.31369 0.0
H1921 H 0.72986 0.94541 0.34351 0.0
H1922 H 0.71045 0.97603 0.33636 0.0
H1923 H 0.65142 0.96243 0.31034 0.0
H1924 H 0.6473 0.0501 0.25383 0.0
H1925 H 0.65328 0.0189 0.27276 0.0
C1926 C 0.93555 0.67069 0.24889 0.0
C1927 C 0.92483 0.65522 0.25886 0.0
C1928 C 0.95387 0.67779 0.25681 0.0
C1929 C 0.98025 0.68082 0.30587 0.0
H1930 H 0.02512 0.70069 0.27337 0.0
C1931 C 0.0569 0.70588 0.33955 0.0
C1932 C 0.06529 0.72393 0.33193 0.0
C1933 C 0.03963 0.69754 0.33065 0.0
C1934 C 0.01259 0.69534 0.28258 0.0
H1935 H 0.92552 0.63386 0.28388 0.0
H1936 H 0.9578 0.64578 0.29734 0.0
H1937 H -0.00365 0.68424 0.25675 0.0
H1938 H 0.06197 0.74769 0.30937 0.0
H1939 H 0.03172 0.73298 0.29377 0.0
H1940 H -0.00339 0.69173 0.33169 0.0
C1941 C 0.95176 0.65294 0.28383 0.0
C1942 C -0.00384 0.68592 0.27309 0.0
C1943 C 0.93337 0.64602 0.27606 0.0
C1944 C 0.05579 0.73379 0.31559 0.0
C1945 C 0.03862 0.72531 0.30656 0.0
C1946 C -0.00327 0.69007 0.31534 0.0
C1947 C 0.96186 0.66937 0.27471 0.0
C1948 C 0.97979 0.67859 0.28465 0.0
C1949 C 0.03055 0.70699 0.31387 0.0
C1950 C 0.01299 0.69746 0.30378 0.0
H1951 H 0.92928 0.67809 0.23562 0.0
H1952 H 0.9612 0.69054 0.24948 0.0
H1953 H 0.96767 0.67578 0.31518 0.0
H1954 H 0.06389 0.69798 0.35215 0.0
H1955 H 0.03373 0.68335 0.33651 0.0
C1956 C 0.35972 0.92853 0.3068 0.0
C1957 C 0.35471 0.92828 0.28606 0.0
C1958 C 0.35648 0.94595 0.31838 0.0
C1959 C 0.34622 0.0008 0.31552 0.0
H1960 H 0.31119 0.99128 0.3619 0.0
C1961 C 0.27826 0.04533 0.35502 0.0
C1962 C 0.28687 0.06468 0.35732 0.0
C1963 C 0.2906 0.02856 0.35129 0.0
C1964 C 0.32118 0.99414 0.34916 0.0
H1965 H 0.3436 0.94637 0.26091 0.0
H1966 H 0.338 0.9768 0.28115 0.0
H1967 H 0.32675 0.96252 0.34447 0.0
H1968 H 0.31521 0.08145 0.35901 0.0
H1969 H 0.33671 0.0521 0.35224 0.0
H1970 H 0.3398 0.03233 0.31953 0.0
C1971 C 0.34443 0.96354 0.28843 0.0
C1972 C 0.3302 0.97774 0.33928 0.0
C1973 C 0.34748 0.94608 0.27688 0.0
C1974 C 0.30811 0.06674 0.35711 0.0
C1975 C 0.32043 0.04999 0.35321 0.0
C1976 C 0.33736 0.01721 0.3255 0.0
C1977 C 0.34843 0.96346 0.30937 0.0
C1978 C 0.3422 0.9809 0.32195 0.0
C1979 C 0.31174 0.03087 0.34971 0.0
C1980 C 0.32419 0.01395 0.34196 0.0
H1981 H 0.36546 0.91508 0.31429 0.0
H1982 H 0.35981 0.94558 0.33447 0.0
H1983 H 0.35556 0.0036 0.30227 0.0
H1984 H 0.26194 0.04324 0.35525 0.0
H1985 H 0.28349 0.014 0.34847 0.0
C1986 C 0.07044 0.34805 0.30981 0.0
C1987 C 0.06925 0.34903 0.28853 0.0
C1988 C 0.05315 0.34395 0.32131 0.0
C1989 C 0.01877 0.31732 0.33685 0.0
H1990 H 0.96536 0.33883 0.32479 0.0
C1991 C 0.94474 0.27301 0.34777 0.0
C1992 C 0.9274 0.28353 0.3543 0.0
C1993 C 0.96289 0.28338 0.34447 0.0
C1994 C 0.98021 0.33292 0.3286 0.0
H1995 H 0.04888 0.3478 0.2627 0.0
H1996 H 0.01868 0.34065 0.28282 0.0
H1997 H 0.9953 0.35455 0.30961 0.0
H1998 H 0.91576 0.31291 0.36366 0.0
H1999 H 0.94749 0.33101 0.35767 0.0
H2000 H 0.00362 0.29519 0.35521 0.0
C2001 C 0.03297 0.34307 0.29058 0.0
C2002 C -0.00272 0.3418 0.3198 0.0
C2003 C 0.05028 0.34701 0.27906 0.0
C2004 C 0.92882 0.30441 0.35845 0.0
C2005 C 0.94694 0.31479 0.355 0.0
C2006 C 0.00169 0.30833 0.34554 0.0
C2007 C 0.03436 0.34098 0.31175 0.0
C2008 C 0.01666 0.33375 0.32344 0.0
C2009 C 0.96399 0.30445 0.34755 0.0
C2010 C 0.98223 0.31574 0.34107 0.0
H2011 H 0.08483 0.3497 0.31757 0.0
H2012 H 0.05455 0.34259 0.33763 0.0
H2013 H 0.03354 0.31071 0.33979 0.0
H2014 H 0.94413 0.2569 0.34455 0.0
H2015 H 0.97578 0.27507 0.33854 0.0
C2016 C 0.72773 0.65065 0.94971 0.0
C2017 C 0.71856 0.63805 0.93523 0.0
C2018 C 0.71848 0.65379 0.96846 0.0
C2019 C 0.66741 0.65389 0.99016 0.0
H2020 H 0.69693 0.67038 0.03831 0.0
C2021 C 0.6313 0.69108 0.06202 0.0
C2022 C 0.64029 0.70994 0.06636 0.0
C2023 C 0.64002 0.67815 0.04766 0.0
C2024 C 0.68851 0.6656 0.02502 0.0
H2025 H 0.69355 0.61737 0.92956 0.0
H2026 H 0.6776 0.62252 0.96254 0.0
H2027 H 0.71483 0.65283 0.01104 0.0
H2028 H 0.66521 0.7302 0.05894 0.0
H2029 H 0.68048 0.70752 0.03411 0.0
H2030 H 0.64118 0.66707 0.00416 0.0
C2031 C 0.69161 0.63044 0.9592 0.0
C2032 C 0.69872 0.65566 0.0094 0.0
C2033 C 0.70077 0.62745 0.94035 0.0
C2034 C 0.65787 0.71582 0.05585 0.0
C2035 C 0.66674 0.70278 0.04183 0.0
C2036 C 0.65715 0.66358 0.00594 0.0
C2037 C 0.69999 0.64419 0.97317 0.0
C2038 C 0.68847 0.65049 0.99143 0.0
C2039 C 0.65803 0.68378 0.03782 0.0
C2040 C 0.66782 0.67021 0.02307 0.0
H2041 H 0.74147 0.65898 0.9462 0.0
H2042 H 0.72525 0.66469 0.97872 0.0
H2043 H 0.65907 0.65031 0.97647 0.0
H2044 H 0.61773 0.6862 0.06994 0.0
H2045 H 0.63303 0.66358 0.04462 0.0
C2046 C 0.29794 0.65212 0.0718 0.0
C2047 C 0.2767 0.65028 0.07239 0.0
C2048 C 0.30765 0.65838 0.0541 0.0
C2049 C 0.32076 0.68628 0.01981 0.0
H2050 H 0.30595 0.66482 0.96705 0.0
C2051 C 0.33763 0.72649 0.94408 0.0
C2052 C 0.34382 0.71436 0.9277 0.0
C2053 C 0.332 0.71757 0.96242 0.0
C2054 C 0.31039 0.67078 0.98171 0.0
H2055 H 0.24898 0.65294 0.05481 0.0
H2056 H 0.26604 0.66386 0.02378 0.0
H2057 H 0.29062 0.65047 -0.0024 0.0
H2058 H 0.34998 0.68348 0.91795 0.0
H2059 H 0.34003 0.66796 0.95 0.0
H2060 H 0.3403 0.7068 0.00389 0.0
C2061 C 0.27512 0.66041 0.03703 0.0
C2062 C 0.30149 0.66272 -0.00088 0.0
C2063 C 0.26537 0.65426 0.0548 0.0
C2064 C 0.34511 0.69323 0.93025 0.0
C2065 C 0.33936 0.68432 0.94854 0.0
C2066 C 0.32954 0.69445 0.00238 0.0
C2067 C 0.29631 0.66276 0.03664 0.0
C2068 C 0.30647 0.67052 0.01829 0.0
C2069 C 0.3324 0.69639 0.96463 0.0
C2070 C 0.3243 0.68687 0.98319 0.0
H2071 H 0.30711 0.64905 0.08509 0.0
H2072 H 0.32402 0.65988 0.05407 0.0
H2073 H 0.32472 0.69266 0.03443 0.0
H2074 H 0.33657 0.74283 0.94258 0.0
H2075 H 0.32655 0.72719 0.97459 0.0
C2076 C 0.30821 0.35645 0.92649 0.0
C2077 C 0.28688 0.35605 0.92682 0.0
C2078 C 0.31926 0.35083 0.94363 0.0
C2079 C 0.33442 0.32045 0.97513 0.0
H2080 H 0.31999 0.33565 0.03012 0.0
C2081 C 0.34377 0.26881 0.04462 0.0
C2082 C 0.34954 0.27771 0.0631 0.0
C2083 C 0.34089 0.28085 0.02745 0.0
C2084 C 0.32446 0.3315 0.01485 0.0
H2085 H 0.26038 0.35083 0.94566 0.0
H2086 H 0.27972 0.34118 0.97566 0.0
H2087 H 0.30535 0.35418 0.00157 0.0
H2088 H 0.35817 0.30596 0.07777 0.0
H2089 H 0.3529 0.32693 0.0478 0.0
H2090 H 0.35281 0.29717 0.9884 0.0
C2091 C 0.28786 0.34577 0.96214 0.0
C2092 C 0.31598 0.342 -0.00143 0.0
C2093 C 0.2768 0.35116 0.94494 0.0
C2094 C 0.35347 0.29867 0.06381 0.0
C2095 C 0.35046 0.3107 0.04669 0.0
C2096 C 0.34274 0.30981 0.99142 0.0
C2097 C 0.30916 0.34502 0.96144 0.0
C2098 C 0.32051 0.33623 0.97859 0.0
C2099 C 0.34367 0.30197 0.02852 0.0
C2100 C 0.33744 0.31495 0.01139 0.0
H2101 H 0.31641 0.36024 0.91275 0.0
H2102 H 0.33568 0.35048 0.94282 0.0
H2103 H 0.33801 0.31562 0.95984 0.0
H2104 H 0.34074 0.25268 0.0436 0.0
H2105 H 0.33549 0.27378 0.01364 0.0
C2106 C 0.70256 0.34582 0.05767 0.0
C2107 C 0.72352 0.34351 0.06081 0.0
C2108 C 0.69369 0.33957 0.03954 0.0
C2109 C 0.7023 0.30348 -0.00178 0.0
H2110 H 0.65639 0.33089 0.97364 0.0
C2111 C 0.65133 0.29701 0.9213 0.0
C2112 C 0.64913 0.27582 0.92053 0.0
C2113 C 0.65936 0.30632 0.93852 0.0
C2114 C 0.66928 0.32314 0.98026 0.0
H2115 H 0.75184 0.33395 0.047 0.0
H2116 H 0.73636 0.32334 0.01509 0.0
H2117 H 0.67406 0.34669 0.00207 0.0
H2118 H 0.65236 0.24787 0.93764 0.0
H2119 H 0.66591 0.26419 0.96789 0.0
H2120 H 0.69785 0.28015 0.97619 0.0
C2121 C 0.72673 0.32957 0.02687 0.0
C2122 C 0.67929 0.3321 -0.00338 0.0
C2123 C 0.73561 0.33575 0.04507 0.0
C2124 C 0.65406 0.26422 0.93771 0.0
C2125 C 0.66197 0.27355 0.95497 0.0
C2126 C 0.69235 0.29457 0.98183 0.0
C2127 C 0.70562 0.33098 0.02411 0.0
C2128 C 0.69582 0.32229 0.00586 0.0
C2129 C 0.66521 0.29463 0.95534 0.0
C2130 C 0.67563 0.30421 0.97279 0.0
H2131 H 0.69282 0.35184 0.06947 0.0
H2132 H 0.67737 0.34068 0.03798 0.0
H2133 H 0.71479 0.29538 0.00517 0.0
H2134 H 0.64765 0.30637 0.9083 0.0
H2135 H 0.66177 0.32258 0.9383 0.0
C2136 C 0.16138 0.30176 0.28728 0.0
C2137 C 0.14186 0.30623 0.27998 0.0
C2138 C 0.16574 0.28253 0.29499 0.0
C2139 C 0.14547 0.23855 0.31978 0.0
H2140 H 0.18973 0.2095 0.29398 0.0
C2141 C 0.19549 0.1772 0.35648 0.0
C2142 C 0.20115 0.16041 0.34464 0.0
C2143 C 0.18313 0.19231 0.34838 0.0
C2144 C 0.17712 0.21728 0.3011 0.0
H2145 H 0.11134 0.29444 0.27597 0.0
H2146 H 0.11894 0.26094 0.29013 0.0
H2147 H 0.17912 0.24243 0.28062 0.0
H2148 H 0.19733 0.14549 0.3156 0.0
H2149 H 0.17611 0.17239 0.30113 0.0
H2150 H 0.14427 0.21384 0.34098 0.0
C2151 C 0.13084 0.27227 0.28948 0.0
C2152 C 0.17123 0.23615 0.29361 0.0
C2153 C 0.12656 0.29137 0.28137 0.0
C2154 C 0.19313 0.15827 0.32502 0.0
C2155 C 0.18108 0.17364 0.31675 0.0
C2156 C 0.15166 0.2198 0.32755 0.0
C2157 C 0.15056 0.26762 0.29594 0.0
C2158 C 0.1556 0.24705 0.30308 0.0
C2159 C 0.17653 0.19106 0.32818 0.0
C2160 C 0.16771 0.20916 0.31841 0.0
H2161 H 0.17347 0.31286 0.28642 0.0
H2162 H 0.18102 0.27924 0.30007 0.0
H2163 H 0.13337 0.24677 0.32727 0.0
H2164 H 0.20141 0.1791 0.3717 0.0
H2165 H 0.17995 0.20566 0.35743 0.0
C2166 C 0.80314 0.20797 0.35803 0.0
C2167 C 0.81899 0.21328 0.34477 0.0
C2168 C 0.78631 0.19729 0.3509 0.0
C2169 C 0.75575 0.1931 0.30633 0.0
H2170 H 0.73209 0.14526 0.33127 0.0
C2171 C 0.67417 0.1668 0.28973 0.0
C2172 C 0.67313 0.14707 0.28174 0.0
C2173 C 0.69198 0.17366 0.29894 0.0
C2174 C 0.73858 0.15864 0.32424 0.0
H2175 H 0.83009 0.21093 0.31389 0.0
H2176 H 0.80025 0.19268 0.30128 0.0
H2177 H 0.76467 0.15847 0.34374 0.0
H2178 H 0.68935 0.11861 0.27831 0.0
H2179 H 0.72028 0.13051 0.29496 0.0
H2180 H 0.72949 0.19363 0.28719 0.0
C2181 C 0.80105 0.19668 0.31721 0.0
C2182 C 0.75712 0.16614 0.33132 0.0
C2183 C 0.8181 0.20701 0.32443 0.0
C2184 C 0.68978 0.13395 0.28421 0.0
C2185 C 0.70743 0.14069 0.29378 0.0
C2186 C 0.73705 0.18587 0.29955 0.0
C2187 C 0.78489 0.19207 0.33033 0.0
C2188 C 0.76586 0.18339 0.32235 0.0
C2189 C 0.70884 0.16076 0.30071 0.0
C2190 C 0.72833 0.16859 0.30844 0.0
H2191 H 0.80352 0.21252 0.37383 0.0
H2192 H 0.77398 0.19397 0.36126 0.0
H2193 H 0.76211 0.20657 0.29935 0.0
H2194 H 0.66159 0.17724 0.28805 0.0
H2195 H 0.69276 0.18918 0.30432 0.0
C2196 C 0.83248 0.68275 0.29648 0.0
C2197 C 0.84993 0.68167 0.28437 0.0
C2198 C 0.82851 0.70013 0.30793 0.0
C2199 C 0.84194 0.75477 0.30855 0.0
H2200 H 0.80562 0.75421 0.35473 0.0
C2201 C 0.79156 0.82285 0.32833 0.0
C2202 C 0.78402 0.82491 0.3481 0.0
C2203 C 0.80419 0.80656 0.3234 0.0
C2204 C 0.81615 0.75483 0.34214 0.0
H2205 H 0.87787 0.69693 0.27608 0.0
H2206 H 0.87157 0.72678 0.29692 0.0
H2207 H 0.82 0.72268 0.34271 0.0
H2208 H 0.78504 0.81288 0.37866 0.0
H2209 H 0.80808 0.7852 0.37044 0.0
H2210 H 0.83866 0.787 0.30842 0.0
C2211 C 0.8604 0.71473 0.29689 0.0
C2212 C 0.82413 0.73657 0.33498 0.0
C2213 C 0.86411 0.69756 0.28507 0.0
C2214 C 0.79047 0.81138 0.3632 0.0
C2215 C 0.80353 0.79542 0.35842 0.0
C2216 C 0.83434 0.77309 0.31601 0.0
C2217 C 0.84218 0.7166 0.30787 0.0
C2218 C 0.83651 0.7362 0.31761 0.0
C2219 C 0.80991 0.79229 0.33829 0.0
C2220 C 0.82073 0.77331 0.33244 0.0
H2221 H 0.82128 0.67073 0.29616 0.0
H2222 H 0.81418 0.70099 0.31591 0.0
H2223 H 0.8513 0.75523 0.29506 0.0
H2224 H 0.78668 0.83305 0.31641 0.0
H2225 H 0.8085 0.80462 0.30767 0.0
C2226 C 0.32868 0.83149 0.3041 0.0
C2227 C 0.32497 0.84848 0.29175 0.0
C2228 C 0.31311 0.82324 0.31596 0.0
C2229 C 0.26059 0.83298 0.33484 0.0
H2230 H 0.2544 0.77482 0.32845 0.0
C2231 C 0.18358 0.79213 0.33968 0.0
C2232 C 0.18274 0.77324 0.34956 0.0
C2233 C 0.20216 0.80188 0.33668 0.0
C2234 C 0.25607 0.79101 0.33069 0.0
H2235 H 0.30234 0.87092 0.28326 0.0
H2236 H 0.27537 0.85643 0.30351 0.0
H2237 H 0.28544 0.79123 0.31694 0.0
H2238 H 0.20085 0.74995 0.3643 0.0
H2239 H 0.23323 0.76696 0.35886 0.0
H2240 H 0.23075 0.83279 0.34776 0.0
C2241 C 0.29026 0.84951 0.30426 0.0
C2242 C 0.2739 0.80043 0.32417 0.0
C2243 C 0.30575 0.85773 0.29246 0.0
C2244 C 0.20091 0.76446 0.35658 0.0
C2245 C 0.21949 0.77415 0.35344 0.0
C2246 C 0.24271 0.82357 0.34124 0.0
C2247 C 0.29358 0.83186 0.31574 0.0
C2248 C 0.27616 0.82159 0.32569 0.0
C2249 C 0.22031 0.79289 0.34335 0.0
C2250 C 0.24009 0.80257 0.33878 0.0
H2251 H 0.34334 0.82407 0.30402 0.0
H2252 H 0.31621 0.80979 0.32488 0.0
H2253 H 0.26201 0.84926 0.33657 0.0
H2254 H 0.16991 0.79935 0.3341 0.0
H2255 H 0.20238 0.8162 0.32861 0.0
C2256 C 0.13724 0.69263 0.70975 0.0
C2257 C 0.14344 0.67271 0.70527 0.0
C2258 C 0.14393 0.70889 0.69796 0.0
C2259 C 0.18611 0.72338 0.66478 0.0
H2260 H 0.15238 0.77025 0.65336 0.0
C2261 C 0.21851 0.79257 0.6234 0.0
C2262 C 0.21461 0.81135 0.63276 0.0
C2263 C 0.20754 0.77533 0.62892 0.0
C2264 C 0.16197 0.75727 0.65647 0.0
H2265 H 0.16103 0.65423 0.68439 0.0
H2266 H 0.17253 0.68264 0.66373 0.0
H2267 H 0.13736 0.74023 0.66915 0.0
H2268 H 0.1953 0.82693 0.65446 0.0
H2269 H 0.17635 0.79675 0.66424 0.0
H2270 H 0.21079 0.74049 0.65259 0.0
C2271 C 0.16271 0.68567 0.67656 0.0
C2272 C 0.15339 0.74011 0.66552 0.0
C2273 C 0.15605 0.66938 0.68837 0.0
C2274 C 0.19876 0.8127 0.64699 0.0
C2275 C 0.1878 0.79542 0.65252 0.0
C2276 C 0.19465 0.74049 0.65572 0.0
C2277 C 0.15694 0.70562 0.6814 0.0
C2278 C 0.16545 0.72311 0.67006 0.0
C2279 C 0.19244 0.77646 0.64391 0.0
C2280 C 0.18276 0.75773 0.65174 0.0
H2281 H 0.12754 0.69579 0.72264 0.0
H2282 H 0.13943 0.7241 0.70227 0.0
H2283 H 0.19589 0.71069 0.66838 0.0
H2284 H 0.23046 0.79099 0.61222 0.0
H2285 H 0.2112 0.76099 0.62177 0.0
C2286 C 0.28935 0.12366 0.71837 0.0
C2287 C 0.30768 0.13303 0.71264 0.0
C2288 C 0.27151 0.1274 0.7076 0.0
C2289 C 0.25104 0.14901 0.65989 0.0
H2290 H 0.20573 0.16476 0.694 0.0
C2291 C 0.18918 0.20422 0.63436 0.0
C2292 C 0.16937 0.20235 0.64209 0.0
C2293 C 0.20441 0.19089 0.64045 0.0
C2294 C 0.21801 0.15996 0.68418 0.0
H2295 H 0.32175 0.15293 0.69045 0.0
H2296 H 0.29055 0.15962 0.67184 0.0
H2297 H 0.23592 0.15026 0.70938 0.0
H2298 H 0.14976 0.18413 0.66131 0.0
H2299 H 0.17646 0.16072 0.67187 0.0
H2300 H 0.23331 0.1594 0.63474 0.0
C2301 C 0.29004 0.14923 0.68456 0.0
C2302 C 0.23536 0.15167 0.69302 0.0
C2303 C 0.30791 0.14551 0.69534 0.0
C2304 C 0.16489 0.18611 0.65519 0.0
C2305 C 0.18019 0.17275 0.6613 0.0
C2306 C 0.23364 0.15726 0.65103 0.0
C2307 C 0.27158 0.14055 0.69084 0.0
C2308 C 0.25227 0.14663 0.68104 0.0
C2309 C 0.20023 0.17532 0.65439 0.0
C2310 C 0.21716 0.16337 0.66315 0.0
H2311 H 0.28861 0.1138 0.7315 0.0
H2312 H 0.25756 0.12029 0.71263 0.0
H2313 H 0.26372 0.14495 0.65025 0.0
H2314 H 0.19318 0.21646 0.62413 0.0
H2315 H 0.2197 0.19348 0.635 0.0
C2316 C 0.77512 0.19747 0.63999 0.0
C2317 C 0.78202 0.17827 0.64625 0.0
C2318 C 0.78488 0.21509 0.64657 0.0
C2319 C 0.81786 0.23338 0.68784 0.0
H2320 H 0.824 0.28083 0.65353 0.0
C2321 C 0.86199 0.30288 0.71492 0.0
C2322 C 0.85208 0.32167 0.71286 0.0
C2323 C 0.85482 0.28578 0.70479 0.0
C2324 C 0.82228 0.2677 0.66327 0.0
H2325 H 0.80505 0.16255 0.66378 0.0
H2326 H 0.82231 0.19322 0.67484 0.0
H2327 H 0.80912 0.24982 0.63954 0.0
H2328 H 0.82745 0.33738 0.69763 0.0
H2329 H 0.8149 0.30731 0.67992 0.0
H2330 H 0.831 0.25118 0.71153 0.0
C2331 C 0.80906 0.19469 0.66523 0.0
C2332 C 0.81374 0.24998 0.6553 0.0
C2333 C 0.79922 0.17708 0.65879 0.0
C2334 C 0.83541 0.32314 0.69961 0.0
C2335 C 0.82826 0.30596 0.6894 0.0
C2336 C 0.82649 0.251 0.69572 0.0
C2337 C 0.80183 0.21391 0.65945 0.0
C2338 C 0.81141 0.23262 0.66753 0.0
C2339 C 0.83761 0.28702 0.69233 0.0
C2340 C 0.82878 0.26833 0.68355 0.0
H2341 H 0.76187 0.19897 0.63038 0.0
H2342 H 0.77875 0.22965 0.64204 0.0
H2343 H 0.81587 0.22048 0.69782 0.0
H2344 H 0.87501 0.30118 0.72481 0.0
H2345 H 0.86254 0.27143 0.70703 0.0
C2346 C 0.81879 0.8022 0.65165 0.0
C2347 C 0.81764 0.78913 0.63484 0.0
C2348 C 0.80183 0.81348 0.65759 0.0
C2349 C 0.74671 0.80896 0.65517 0.0
H2350 H 0.74707 0.86182 0.68097 0.0
C2351 C 0.67454 0.84168 0.6914 0.0
C2352 C 0.67705 0.85016 0.71081 0.0
C2353 C 0.69141 0.83737 0.67931 0.0
C2354 C 0.74676 0.84701 0.67384 0.0
H2355 H 0.79856 0.77926 0.60984 0.0
H2356 H 0.76922 0.79915 0.62003 0.0
H2357 H 0.77778 0.84936 0.66424 0.0
H2358 H 0.6993 0.86124 0.7325 0.0
H2359 H 0.7286 0.85329 0.71162 0.0
H2360 H 0.71607 0.80617 0.6653 0.0
C2361 C 0.78297 0.80023 0.62897 0.0
C2362 C 0.76432 0.83992 0.66426 0.0
C2363 C 0.79981 0.78888 0.62312 0.0
C2364 C 0.69677 0.85468 0.71764 0.0
C2365 C 0.71361 0.8503 0.70559 0.0
C2366 C 0.72924 0.81601 0.66476 0.0
C2367 C 0.78352 0.81198 0.64673 0.0
C2368 C 0.76453 0.82069 0.65507 0.0
C2369 C 0.71114 0.84137 0.68639 0.0
C2370 C 0.72914 0.83496 0.67449 0.0
H2371 H 0.83235 0.80281 0.66092 0.0
H2372 H 0.80271 0.82237 0.67139 0.0
H2373 H 0.74648 0.7939 0.6486 0.0
H2374 H 0.65958 0.83816 0.68559 0.0
H2375 H 0.689 0.83073 0.66447 0.0
C2376 C 0.28862 0.15509 0.31023 0.0
C2377 C 0.2789 0.1363 0.31281 0.0
C2378 C 0.2979 0.15994 0.29184 0.0
C2379 C 0.32422 0.16402 0.2548 0.0
H2380 H 0.29689 0.14837 0.2051 0.0
C2381 C 0.35479 0.19154 0.17878 0.0
C2382 C 0.34031 0.1988 0.16499 0.0
C2383 C 0.34887 0.17964 0.19521 0.0
C2384 C 0.30467 0.15293 0.21883 0.0
H2385 H 0.27209 0.10748 0.29835 0.0
H2386 H 0.28885 0.11572 0.26647 0.0
H2387 H 0.28374 0.13673 0.2376 0.0
H2388 H 0.30853 0.19862 0.15676 0.0
H2389 H 0.29788 0.17857 0.18604 0.0
H2390 H 0.34428 0.18135 0.23633 0.0
C2391 C 0.28879 0.12695 0.27847 0.0
C2392 C 0.2973 0.14602 0.23748 0.0
C2393 C 0.27929 0.12218 0.29681 0.0
C2394 C 0.31995 0.19307 0.1672 0.0
C2395 C 0.31391 0.18152 0.18396 0.0
C2396 C 0.33141 0.17113 0.23623 0.0
C2397 C 0.29794 0.14601 0.27565 0.0
C2398 C 0.30679 0.15177 0.25572 0.0
C2399 C 0.32825 0.17522 0.19853 0.0
C2400 C 0.32159 0.16592 0.218 0.0
H2401 H 0.28854 0.16636 0.32219 0.0
H2402 H 0.30448 0.1749 0.29014 0.0
H2403 H 0.33214 0.16845 0.2685 0.0
H2404 H 0.37066 0.19558 0.17716 0.0
H2405 H 0.36041 0.17452 0.20572 0.0
C2406 C 0.86332 0.29838 0.30711 0.0
C2407 C 0.84869 0.29217 0.32129 0.0
C2408 C 0.85773 0.30997 0.29031 0.0
C2409 C 0.84036 0.31932 0.24924 0.0
H2410 H 0.7928 0.35381 0.24845 0.0
C2411 C 0.79596 0.33464 0.17588 0.0
C2412 C 0.78468 0.35258 0.17406 0.0
C2413 C 0.80638 0.33035 0.19381 0.0
C2414 C 0.80638 0.34457 0.24833 0.0
H2415 H 0.81694 0.29387 0.3296 0.0
H2416 H 0.8069 0.31317 0.29984 0.0
H2417 H 0.80645 0.34258 0.28067 0.0
H2418 H 0.77662 0.38082 0.18888 0.0
H2419 H 0.79562 0.37387 0.21975 0.0
H2420 H 0.84074 0.3219 0.21696 0.0
C2421 C 0.82283 0.30973 0.30186 0.0
C2422 C 0.81402 0.3378 0.26689 0.0
C2423 C 0.82853 0.29855 0.31892 0.0
C2424 C 0.78494 0.36669 0.19002 0.0
C2425 C 0.79573 0.36262 0.20778 0.0
C2426 C 0.83298 0.32642 0.23072 0.0
C2427 C 0.83728 0.31516 0.28704 0.0
C2428 C 0.83076 0.32461 0.26758 0.0
C2429 C 0.80613 0.34414 0.21015 0.0
C2430 C 0.81554 0.33866 0.22995 0.0
H2431 H 0.87905 0.29388 0.30878 0.0
H2432 H 0.8694 0.31436 0.2796 0.0
H2433 H 0.85315 0.30901 0.24902 0.0
H2434 H 0.79597 0.32347 0.16382 0.0
H2435 H 0.81392 0.31582 0.19509 0.0
C2436 C 0.65239 0.79507 0.16951 0.0
C2437 C 0.63272 0.7869 0.16894 0.0
C2438 C 0.65916 0.80553 0.18662 0.0
C2439 C 0.66921 0.83268 0.22196 0.0
H2440 H 0.65165 0.81079 0.27365 0.0
C2441 C 0.70196 0.86293 0.29699 0.0
C2442 C 0.7059 0.84862 0.31228 0.0
C2443 C 0.6906 0.85758 0.27995 0.0
C2444 C 0.65687 0.81699 0.25936 0.0
H2445 H 0.60416 0.78466 0.18518 0.0
H2446 H 0.61565 0.8037 0.21466 0.0
H2447 H 0.63673 0.79801 0.24256 0.0
H2448 H 0.70091 0.81756 0.32186 0.0
H2449 H 0.68194 0.80789 0.29172 0.0
H2450 H 0.69042 0.85055 0.23865 0.0
C2451 C 0.62617 0.80132 0.20227 0.0
C2452 C 0.64801 0.80991 0.24147 0.0
C2453 C 0.61952 0.79053 0.18529 0.0
C2454 C 0.69804 0.82893 0.31034 0.0
C2455 C 0.687 0.82345 0.29311 0.0
C2456 C 0.67832 0.83949 0.23982 0.0
C2457 C 0.64628 0.80842 0.20342 0.0
C2458 C 0.65428 0.81745 0.2225 0.0
C2459 C 0.68325 0.83768 0.27761 0.0
C2460 C 0.67248 0.83152 0.25874 0.0
H2461 H 0.66295 0.79255 0.15717 0.0
H2462 H 0.67482 0.81051 0.18698 0.0
H2463 H 0.67418 0.83912 0.20768 0.0
H2464 H 0.70759 0.87833 0.29823 0.0
H2465 H 0.68764 0.86908 0.2686 0.0
C2466 C 0.18956 0.64278 0.17679 0.0
C2467 C 0.20556 0.62874 0.17774 0.0
C2468 C 0.17764 0.64657 0.19391 0.0
C2469 C 0.18351 0.64515 0.24899 0.0
H2470 H 0.12802 0.66465 0.24857 0.0
C2471 C 0.14917 0.68393 0.31896 0.0
C2472 C 0.14007 0.70275 0.31468 0.0
C2473 C 0.1535 0.67031 0.30331 0.0
C2474 C 0.14351 0.65916 0.24892 0.0
H2475 H 0.22021 0.60607 0.19662 0.0
H2476 H 0.19915 0.61237 0.22627 0.0
H2477 H 0.14185 0.64805 0.21841 0.0
H2478 H 0.12749 0.72155 0.29069 0.0
H2479 H 0.13533 0.69798 0.26351 0.0
H2480 H 0.18551 0.65691 0.2791 0.0
C2481 C 0.19623 0.62094 0.21255 0.0
C2482 C 0.15142 0.64969 0.23167 0.0
C2483 C 0.20827 0.61732 0.19554 0.0
C2484 C 0.13465 0.70726 0.29455 0.0
C2485 C 0.13893 0.69364 0.27895 0.0
C2486 C 0.17561 0.65455 0.2662 0.0
C2487 C 0.18137 0.63621 0.2122 0.0
C2488 C 0.17171 0.64311 0.23133 0.0
C2489 C 0.14874 0.67519 0.2831 0.0
C2490 C 0.15573 0.6622 0.26614 0.0
H2491 H 0.187 0.65173 0.16325 0.0
H2492 H 0.16639 0.65852 0.19314 0.0
H2493 H 0.1993 0.64058 0.24918 0.0
H2494 H 0.1534 0.6799 0.33432 0.0
H2495 H 0.16091 0.65611 0.30696 0.0
C2496 C 0.36514 0.78165 0.80084 0.0
C2497 C 0.35089 0.7795 0.81653 0.0
C2498 C 0.36042 0.7929 0.78354 0.0
C2499 C 0.34215 0.8038 0.74319 0.0
H2500 H 0.30152 0.84623 0.74376 0.0
C2501 C 0.29639 0.82411 0.67191 0.0
C2502 C 0.28793 0.84353 0.67011 0.0
C2503 C 0.3071 0.81873 0.68937 0.0
C2504 C 0.31321 0.83472 0.74318 0.0
H2505 H 0.32081 0.78788 0.82678 0.0
H2506 H 0.31204 0.80645 0.79626 0.0
H2507 H 0.3154 0.83415 0.77547 0.0
H2508 H 0.28512 0.87305 0.68427 0.0
H2509 H 0.30485 0.86416 0.71419 0.0
H2510 H 0.34068 0.80506 0.71087 0.0
C2511 C 0.32717 0.80017 0.79743 0.0
C2512 C 0.32091 0.82747 0.76151 0.0
C2513 C 0.33211 0.78936 0.81495 0.0
C2514 C 0.29126 0.85784 0.68551 0.0
C2515 C 0.30244 0.85267 0.70272 0.0
C2516 C 0.33482 0.81142 0.72484 0.0
C2517 C 0.34113 0.80181 0.78131 0.0
C2518 C 0.33502 0.81146 0.76181 0.0
C2519 C 0.31004 0.83286 0.70517 0.0
C2520 C 0.31979 0.82655 0.72457 0.0
H2521 H 0.37987 0.77442 0.80185 0.0
H2522 H 0.3718 0.79427 0.77177 0.0
H2523 H 0.35284 0.79136 0.74265 0.0
H2524 H 0.29394 0.81279 0.66025 0.0
H2525 H 0.31234 0.80323 0.69074 0.0
C2526 C 0.19925 0.33364 0.82475 0.0
C2527 C 0.21151 0.35093 0.82222 0.0
C2528 C 0.18845 0.32567 0.80827 0.0
C2529 C 0.19304 0.32314 0.75333 0.0
H2530 H 0.13782 0.30283 0.75352 0.0
C2531 C 0.15618 0.29451 0.68018 0.0
C2532 C 0.14446 0.27674 0.68137 0.0
C2533 C 0.16238 0.30447 0.69779 0.0
C2534 C 0.15333 0.30826 0.75331 0.0
H2535 H 0.22064 0.37439 0.80089 0.0
H2536 H 0.20184 0.36054 0.77244 0.0
H2537 H 0.1517 0.31869 0.78414 0.0
H2538 H 0.12975 0.2557 0.70204 0.0
H2539 H 0.14106 0.27281 0.73277 0.0
H2540 H 0.19507 0.31239 0.72289 0.0
C2541 C 0.20092 0.3529 0.78696 0.0
C2542 C 0.16122 0.31736 0.7708 0.0
C2543 C 0.21165 0.36084 0.80332 0.0
C2544 C 0.13874 0.26939 0.70058 0.0
C2545 C 0.14512 0.27926 0.71821 0.0
C2546 C 0.18526 0.31395 0.73598 0.0
C2547 C 0.18977 0.33489 0.78909 0.0
C2548 C 0.1811 0.32504 0.77088 0.0
C2549 C 0.15723 0.29678 0.71702 0.0
C2550 C 0.16527 0.30653 0.73567 0.0
H2551 H 0.19875 0.32572 0.83914 0.0
H2552 H 0.17993 0.31175 0.81029 0.0
H2553 H 0.20858 0.32851 0.75311 0.0
H2554 H 0.16068 0.30072 0.66564 0.0
H2555 H 0.17134 0.31817 0.69631 0.0
C2556 C 0.70574 0.1224 0.6876 0.0
C2557 C 0.70888 0.13682 0.67224 0.0
C2558 C 0.69312 0.12681 0.70403 0.0
C2559 C 0.65733 0.16632 0.72437 0.0
H2560 H 0.67769 0.14693 0.77598 0.0
C2561 C 0.62699 0.20014 0.79853 0.0
C2562 C 0.64142 0.20372 0.81377 0.0
C2563 C 0.63163 0.18758 0.78211 0.0
C2564 C 0.67188 0.15267 0.76174 0.0
H2565 H 0.70072 0.16676 0.6615 0.0
H2566 H 0.67976 0.17502 0.69057 0.0
H2567 H 0.69221 0.13406 0.74487 0.0
H2568 H 0.67169 0.19655 0.82429 0.0
H2569 H 0.68034 0.17571 0.7952 0.0
H2570 H 0.63843 0.18639 0.74121 0.0
C2571 C 0.68632 0.15999 0.6898 0.0
C2572 C 0.67996 0.14493 0.74375 0.0
C2573 C 0.6985 0.15535 0.67311 0.0
C2574 C 0.66027 0.19394 0.81277 0.0
C2575 C 0.66513 0.18183 0.79608 0.0
C2576 C 0.64963 0.17445 0.74235 0.0
C2577 C 0.68382 0.14596 0.70575 0.0
C2578 C 0.67317 0.15203 0.72478 0.0
C2579 C 0.65102 0.17882 0.78028 0.0
C2580 C 0.65717 0.16812 0.7613 0.0
H2581 H 0.71337 0.10785 0.68709 0.0
H2582 H 0.69112 0.11535 0.71563 0.0
H2583 H 0.65125 0.17178 0.71012 0.0
H2584 H 0.61221 0.20732 0.79915 0.0
H2585 H 0.62012 0.18518 0.77065 0.0
C2586 C 0.82315 0.7063 0.67435 0.0
C2587 C 0.84259 0.71496 0.67354 0.0
C2588 C 0.81629 0.69703 0.69211 0.0
C2589 C 0.80729 0.67077 0.72838 0.0
H2590 H 0.82413 0.69406 0.7797 0.0
C2591 C 0.77962 0.63696 0.80369 0.0
C2592 C 0.77505 0.6505 0.81948 0.0
C2593 C 0.78987 0.64367 0.78644 0.0
C2594 C 0.81908 0.68748 0.76552 0.0
H2595 H 0.87054 0.71976 0.69023 0.0
H2596 H 0.85899 0.70271 0.72087 0.0
H2597 H 0.83742 0.70786 0.7483 0.0
H2598 H 0.77783 0.68154 0.82987 0.0
H2599 H 0.79483 0.6936 0.79934 0.0
H2600 H 0.78787 0.65136 0.74548 0.0
C2601 C 0.84866 0.70379 0.70815 0.0
C2602 C 0.82702 0.69518 0.74745 0.0
C2603 C 0.85536 0.71343 0.69053 0.0
C2604 C 0.78126 0.67079 0.81792 0.0
C2605 C 0.79113 0.67763 0.80045 0.0
C2606 C 0.79906 0.66335 0.74642 0.0
C2607 C 0.82889 0.69582 0.70933 0.0
C2608 C 0.82115 0.68699 0.72862 0.0
C2609 C 0.79538 0.66419 0.78437 0.0
C2610 C 0.80478 0.67165 0.76524 0.0
H2611 H 0.81294 0.70733 0.66152 0.0
H2612 H 0.80086 0.6914 0.69248 0.0
H2613 H 0.80265 0.66382 0.71424 0.0
H2614 H 0.77526 0.62113 0.80467 0.0
H2615 H 0.79336 0.63273 0.7747 0.0
C2616 C 0.18319 0.35942 0.19993 0.0
C2617 C 0.16843 0.34521 0.20568 0.0
C2618 C 0.1991 0.35376 0.1872 0.0
C2619 C 0.23881 0.33445 0.17653 0.0
H2620 H 0.23674 0.28993 0.13823 0.0
C2621 C 0.30922 0.28687 0.15758 0.0
C2622 C 0.31081 0.27781 0.13838 0.0
C2623 C 0.2918 0.2977 0.16288 0.0
C2624 C 0.23764 0.30264 0.14859 0.0
H2625 H 0.15791 0.31434 0.20199 0.0
H2626 H 0.18622 0.30402 0.18053 0.0
H2627 H 0.20532 0.30461 0.15069 0.0
H2628 H 0.29598 0.27401 0.10922 0.0
H2629 H 0.26598 0.29355 0.11819 0.0
H2630 H 0.27107 0.33287 0.17406 0.0
C2631 C 0.18532 0.31973 0.18524 0.0
C2632 C 0.21956 0.31087 0.15599 0.0
C2633 C 0.16909 0.32557 0.19759 0.0
C2634 C 0.29507 0.2806 0.12426 0.0
C2635 C 0.2778 0.2917 0.12945 0.0
C2636 C 0.25685 0.32646 0.16889 0.0
C2637 C 0.20092 0.33358 0.18047 0.0
C2638 C 0.21991 0.32655 0.17045 0.0
C2639 C 0.27573 0.30001 0.14898 0.0
C2640 C 0.25653 0.31008 0.15525 0.0
H2641 H 0.18279 0.37476 0.20587 0.0
H2642 H 0.21043 0.36503 0.18334 0.0
H2643 H 0.23982 0.34632 0.18784 0.0
H2644 H 0.32106 0.28494 0.16881 0.0
H2645 H 0.29067 0.30359 0.17818 0.0
C2646 C 0.31612 0.68894 0.83728 0.0
C2647 C 0.31374 0.70657 0.84906 0.0
C2648 C 0.29921 0.67768 0.83127 0.0
C2649 C 0.24405 0.67026 0.84062 0.0
H2650 H 0.24378 0.65421 0.78403 0.0
C2651 C 0.19098 0.62649 0.77725 0.0
C2652 C 0.17254 0.63689 0.77992 0.0
C2653 C 0.20814 0.632 0.78831 0.0
C2654 C 0.24372 0.65825 0.79997 0.0
H2655 H 0.29169 0.72579 0.86428 0.0
H2656 H 0.26227 0.7064 0.85341 0.0
H2657 H 0.27414 0.66926 0.79848 0.0
H2658 H 0.1574 0.66047 0.79725 0.0
H2659 H 0.18751 0.67025 0.81641 0.0
H2660 H 0.21326 0.65976 0.84179 0.0
C2661 C 0.27721 0.70109 0.8491 0.0
C2662 C 0.26115 0.66687 0.80827 0.0
C2663 C 0.29411 0.7123 0.85521 0.0
C2664 C 0.17138 0.65219 0.79475 0.0
C2665 C 0.18861 0.65773 0.80581 0.0
C2666 C 0.22653 0.66168 0.83227 0.0
C2667 C 0.27954 0.68384 0.83679 0.0
C2668 C 0.26147 0.67318 0.82862 0.0
C2669 C 0.20728 0.64805 0.80229 0.0
C2670 C 0.22615 0.65576 0.8118 0.0
H2671 H 0.33102 0.68398 0.83241 0.0
H2672 H 0.30154 0.66427 0.82206 0.0
H2673 H 0.24391 0.67474 0.85643 0.0
H2674 H 0.19239 0.61443 0.76616 0.0
H2675 H 0.22224 0.62401 0.78556 0.0
C2676 C 0.29671 0.32177 0.83 0.0
C2677 C 0.2893 0.32348 0.84987 0.0
C2678 C 0.30672 0.30417 0.82381 0.0
C2679 C 0.31137 0.24995 0.83842 0.0
H2680 H 0.34861 0.24958 0.79295 0.0
C2681 C 0.32618 0.17758 0.792 0.0
C2682 C 0.34474 0.17542 0.78185 0.0
C2683 C 0.32184 0.19541 0.8026 0.0
C2684 C 0.33856 0.24928 0.80594 0.0
H2685 H 0.28797 0.30899 0.87936 0.0
H2686 H 0.30647 0.27877 0.86895 0.0
H2687 H 0.33865 0.2816 0.80787 0.0
H2688 H 0.37388 0.18942 0.7758 0.0
H2689 H 0.36688 0.22 0.79522 0.0
H2690 H 0.312 0.2176 0.8371 0.0
C2691 C 0.30373 0.2905 0.85779 0.0
C2692 C 0.33252 0.26778 0.81429 0.0
C2693 C 0.29327 0.3079 0.86383 0.0
C2694 C 0.35929 0.19091 0.78325 0.0
C2695 C 0.35519 0.2085 0.79428 0.0
C2696 C 0.31778 0.23144 0.83038 0.0
C2697 C 0.30997 0.28808 0.83751 0.0
C2698 C 0.31842 0.2684 0.83028 0.0
C2699 C 0.33622 0.21123 0.8037 0.0
C2700 C 0.33105 0.23084 0.81368 0.0
H2701 H 0.29382 0.33353 0.81891 0.0
H2702 H 0.31099 0.30287 0.808 0.0
H2703 H 0.30031 0.24968 0.85056 0.0
H2704 H 0.31469 0.16585 0.79105 0.0
H2705 H 0.30693 0.197 0.80931 0.0
C2706 C 0.68375 0.28743 0.82619 0.0
C2707 C 0.68118 0.27742 0.84479 0.0
C2708 C 0.70154 0.2982 0.8222 0.0
C2709 C 0.75495 0.30319 0.83953 0.0
H2710 H 0.75355 0.34927 0.80309 0.0
C2711 C 0.81061 0.36476 0.79531 0.0
C2712 C 0.82635 0.35143 0.79005 0.0
C2713 C 0.79394 0.35784 0.80638 0.0
C2714 C 0.75432 0.33673 0.81366 0.0
H2715 H 0.6948 0.27147 0.87415 0.0
H2716 H 0.72548 0.29096 0.86754 0.0
H2717 H 0.72206 0.33408 0.81419 0.0
H2718 H 0.83762 0.32072 0.79308 0.0
H2719 H 0.80815 0.30828 0.81141 0.0
H2720 H 0.78722 0.30634 0.83958 0.0
C2721 C 0.71414 0.28993 0.85571 0.0
C2722 C 0.73616 0.32771 0.81972 0.0
C2723 C 0.6965 0.27882 0.85954 0.0
C2724 C 0.8257 0.33133 0.79699 0.0
C2725 C 0.80879 0.32424 0.80763 0.0
C2726 C 0.77313 0.31247 0.83379 0.0
C2727 C 0.717 0.29958 0.83689 0.0
C2728 C 0.73624 0.31047 0.83226 0.0
C2729 C 0.7924 0.33727 0.81193 0.0
C2730 C 0.77309 0.32904 0.82034 0.0
H2731 H 0.67224 0.28653 0.81449 0.0
H2732 H 0.70332 0.30504 0.80736 0.0
H2733 H 0.75568 0.28987 0.84911 0.0
H2734 H 0.81093 0.38045 0.79038 0.0
H2735 H 0.78197 0.36849 0.80997 0.0
C2736 C 0.68698 0.67105 0.84053 0.0
C2737 C 0.69937 0.67202 0.85786 0.0
C2738 C 0.67562 0.68795 0.83455 0.0
C2739 C 0.67931 0.74302 0.83824 0.0
H2740 H 0.6273 0.74272 0.81078 0.0
C2741 C 0.64735 0.8157 0.80246 0.0
C2742 C 0.63924 0.81358 0.78285 0.0
C2743 C 0.65138 0.79861 0.81433 0.0
C2744 C 0.64188 0.74302 0.81836 0.0
H2745 H 0.70789 0.69068 0.88366 0.0
H2746 H 0.68789 0.7199 0.87338 0.0
H2747 H 0.63955 0.71177 0.82719 0.0
H2748 H 0.62852 0.79176 0.76057 0.0
H2749 H 0.63604 0.76207 0.78102 0.0
H2750 H 0.68214 0.77387 0.82885 0.0
C2751 C 0.68739 0.70634 0.86411 0.0
C2752 C 0.64885 0.72532 0.82778 0.0
C2753 C 0.69879 0.68955 0.87001 0.0
C2754 C 0.63478 0.794 0.7756 0.0
C2755 C 0.63892 0.77693 0.78741 0.0
C2756 C 0.67241 0.76062 0.82879 0.0
C2757 C 0.67638 0.70603 0.84588 0.0
C2758 C 0.66776 0.72509 0.8376 0.0
C2759 C 0.64753 0.77901 0.80681 0.0
C2760 C 0.65376 0.76077 0.81848 0.0
H2761 H 0.687 0.65774 0.83089 0.0
H2762 H 0.66729 0.68726 0.8204 0.0
H2763 H 0.69414 0.74324 0.84532 0.0
H2764 H 0.65079 0.83056 0.80861 0.0
H2765 H 0.65772 0.80076 0.82933 0.0
C2766 C 0.65738 0.70284 0.16727 0.0
C2767 C 0.65568 0.70608 0.14632 0.0
C2768 C 0.67399 0.69219 0.17505 0.0
C2769 C 0.72674 0.68023 0.16009 0.0
H2770 H 0.72738 0.65247 0.21189 0.0
C2771 C 0.78659 0.63728 0.21773 0.0
C2772 C 0.80315 0.65059 0.21574 0.0
C2773 C 0.76812 0.64159 0.20832 0.0
C2774 C 0.72748 0.6599 0.19725 0.0
H2775 H 0.66859 0.69927 0.1169 0.0
H2776 H 0.69687 0.67963 0.13029 0.0
H2777 H 0.69508 0.662 0.19677 0.0
H2778 H 0.8133 0.6789 0.20239 0.0
H2779 H 0.78092 0.68684 0.18663 0.0
H2780 H 0.75901 0.67762 0.1602 0.0
C2781 C 0.68607 0.68606 0.14087 0.0
C2782 C 0.70893 0.66562 0.1887 0.0
C2783 C 0.66978 0.69711 0.13316 0.0
C2784 C 0.80087 0.66828 0.20411 0.0
C2785 C 0.78231 0.67274 0.19494 0.0
C2786 C 0.74521 0.67426 0.16847 0.0
C2787 C 0.68894 0.68429 0.16195 0.0
C2788 C 0.70834 0.67618 0.17017 0.0
C2789 C 0.76569 0.65944 0.19691 0.0
C2790 C 0.74587 0.6644 0.18735 0.0
H2791 H 0.64673 0.70978 0.17769 0.0
H2792 H 0.6757 0.69131 0.19136 0.0
H2793 H 0.72704 0.68864 0.14599 0.0
H2794 H 0.78793 0.6234 0.22644 0.0
H2795 H 0.7558 0.63082 0.20988 0.0
C2796 C 0.32718 0.82598 0.19961 0.0
C2797 C 0.34456 0.82318 0.21167 0.0
C2798 C 0.31889 0.8097 0.18878 0.0
C2799 C 0.32999 0.75728 0.17103 0.0
H2800 H 0.27187 0.74973 0.17641 0.0
C2801 C 0.29115 0.67969 0.16118 0.0
C2802 C 0.27288 0.6791 0.1502 0.0
C2803 C 0.30008 0.69825 0.16617 0.0
C2804 C 0.28808 0.75177 0.17453 0.0
H2805 H 0.36734 0.80125 0.22105 0.0
H2806 H 0.3528 0.77308 0.20253 0.0
H2807 H 0.28745 0.78098 0.18863 0.0
H2808 H 0.24961 0.69763 0.13594 0.0
H2809 H 0.26521 0.72994 0.1448 0.0
H2810 H 0.33065 0.72773 0.15754 0.0
C2811 C 0.34565 0.78782 0.2012 0.0
C2812 C 0.297 0.7697 0.18145 0.0
C2813 C 0.35391 0.80401 0.21198 0.0
C2814 C 0.26371 0.69749 0.1444 0.0
C2815 C 0.27258 0.71603 0.14952 0.0
C2816 C 0.32108 0.73931 0.16422 0.0
C2817 C 0.32786 0.79036 0.18976 0.0
C2818 C 0.31811 0.77249 0.18013 0.0
C2819 C 0.29086 0.71659 0.16042 0.0
C2820 C 0.30009 0.73624 0.16623 0.0
H2821 H 0.31963 0.84057 0.19896 0.0
H2822 H 0.3053 0.81219 0.17989 0.0
H2823 H 0.34626 0.75912 0.16947 0.0
H2824 H 0.29862 0.66584 0.16591 0.0
H2825 H 0.31405 0.69825 0.17483 0.0
C2826 C 0.72094 0.29425 0.13359 0.0
C2827 C 0.7139 0.31382 0.13839 0.0
C2828 C 0.7098 0.27713 0.13918 0.0
C2829 C 0.67186 0.26119 0.17675 0.0
H2830 H 0.67035 0.21178 0.14477 0.0
C2831 C 0.62931 0.19169 0.20548 0.0
C2832 C 0.64053 0.17354 0.2056 0.0
C2833 C 0.63584 0.20827 0.19413 0.0
C2834 C 0.6707 0.22548 0.15384 0.0
H2835 H 0.68913 0.33074 0.15201 0.0
H2836 H 0.66951 0.30087 0.16138 0.0
H2837 H 0.68596 0.24237 0.13064 0.0
H2838 H 0.66663 0.15811 0.19275 0.0
H2839 H 0.67819 0.18732 0.17302 0.0
H2840 H 0.65688 0.24435 0.20002 0.0
C2841 C 0.68389 0.29876 0.1537 0.0
C2842 C 0.67965 0.24297 0.1458 0.0
C2843 C 0.6951 0.3159 0.14825 0.0
C2844 C 0.65771 0.17191 0.19305 0.0
C2845 C 0.66429 0.1886 0.1817 0.0
C2846 C 0.66285 0.24381 0.18471 0.0
C2847 C 0.6913 0.27918 0.14957 0.0
C2848 C 0.68049 0.26097 0.15727 0.0
C2849 C 0.65376 0.20713 0.18268 0.0
C2850 C 0.66231 0.22573 0.17342 0.0
H2851 H 0.73536 0.29206 0.12602 0.0
H2852 H 0.71609 0.26229 0.136 0.0
H2853 H 0.67264 0.27462 0.1862 0.0
H2854 H 0.61579 0.19337 0.21469 0.0
H2855 H 0.62719 0.22223 0.19483 0.0
loop_
_geom_bond_atom_site_label_1
_geom_bond_atom_site_label_2
_geom_bond_distance
_geom_bond_site_symmetry_2
_ccdc_geom_bond_type
Co0 O2 2.143 . S
Co0 O8 2.074 . S
Co0 O11 2.093 . S
Co0 O24 2.097 . S
Co0 N41 2.151 . S
Co0 N49 2.214 . S
Co1 O2 2.160 . S
Co1 O7 2.058 . S
Co1 O17 2.057 . S
Co1 O32 2.037 . S
Co1 N36 2.145 . S
Co1 N57 2.257 . S
O2 Co0 2.143 . S
O2 Co1 2.160 . S
C3 O4 1.278 . S
C3 O11 1.224 . S
O4 C3 1.278 . S
C5 O6 1.245 . S
C5 O17 1.232 . S
O6 C5 1.245 . S
O7 Co1 2.058 . S
O7 C33 1.269 . S
O8 Co0 2.074 . S
O8 C33 1.257 . S
H9 C34 0.930 . S
H10 C40 0.930 . S
O11 Co0 2.093 . S
O11 C3 1.224 . S
H12 C44 0.929 . S
H13 C46 0.930 . S
H14 C47 0.930 . S
H15 C45 0.929 . S
H16 C48 0.928 . S
O17 Co1 2.057 . S
O17 C5 1.232 . S
H18 C37 0.929 . S
H19 C38 0.929 . S
H20 C50 0.931 . S
H21 C42 0.929 . S
H22 C51 0.930 . S
H23 C43 0.931 . S
O24 Co0 2.097 . S
O24 C52 1.214 . S
H25 C53 0.929 . S
H26 C54 0.929 . S
H27 C55 0.930 . S
H28 C56 0.929 . S
H29 C58 0.930 . S
H30 C35 0.930 . S
H31 C39 0.930 . S
O32 Co1 2.037 . S
O32 C52 1.234 . S
C33 O7 1.269 . S
C33 O8 1.257 . S
C34 H9 0.930 . S
C34 C37 1.388 . S
C34 C39 1.418 . S
C35 H30 0.930 . S
C35 C38 1.404 . S
C35 C39 1.353 . S
N36 Co1 2.145 . S
N36 C37 1.397 . S
N36 C38 1.334 . S
C37 H18 0.929 . S
C37 C34 1.388 . S
C37 N36 1.397 . S
C38 H19 0.929 . S
C38 C35 1.404 . S
C38 N36 1.334 . S
C39 H31 0.930 . S
C39 C34 1.418 . S
C39 C35 1.353 . S
C40 H10 0.930 . S
C40 N41 1.330 . S
C40 C42 1.446 . S
N41 Co0 2.151 . S
N41 C40 1.330 . S
N41 C45 1.418 . S
C42 H21 0.929 . S
C42 C40 1.446 . S
C42 C43 1.332 . S
C43 H23 0.931 . S
C43 C42 1.332 . S
C43 C44 1.267 . S
C44 H12 0.929 . S
C44 C43 1.267 . S
C44 C45 1.251 . S
C45 H15 0.929 . S
C45 N41 1.418 . S
C45 C44 1.251 . S
C46 H13 0.930 . S
C46 C48 1.406 . S
C46 C51 1.261 . S
C47 H14 0.930 . S
C47 N49 1.325 . S
C47 C50 1.357 . S
C48 H16 0.928 . S
C48 C46 1.406 . S
C48 N49 1.261 . S
N49 Co0 2.214 . S
N49 C47 1.325 . S
N49 C48 1.261 . S
C50 H20 0.931 . S
C50 C47 1.357 . S
C50 C51 1.312 . S
C51 H22 0.930 . S
C51 C46 1.261 . S
C51 C50 1.312 . S
C52 O24 1.214 . S
C52 O32 1.234 . S
C53 H25 0.929 . S
C53 C56 1.391 . S
C53 C58 1.391 . S
C54 H26 0.929 . S
C54 C55 1.390 . S
C54 N57 1.391 . S
C55 H27 0.930 . S
C55 C54 1.390 . S
C55 C56 1.392 . S
C56 H28 0.929 . S
C56 C53 1.391 . S
C56 C55 1.392 . S
N57 Co1 2.257 . S
N57 C54 1.391 . S
N57 C58 1.388 . S
C58 H29 0.930 . S
C58 C53 1.391 . S
C58 N57 1.388 . S
Co59 O61 2.143 . S
Co59 O67 2.074 . S
Co59 O70 2.093 . S
Co59 O83 2.097 . S
Co59 N100 2.151 . S
Co59 N108 2.214 . S
Co60 O61 2.160 . S
Co60 O66 2.058 . S
Co60 O76 2.057 . S
Co60 O91 2.037 . S
Co60 N95 2.145 . S
Co60 N116 2.257 . S
O61 Co59 2.143 . S
O61 Co60 2.160 . S
C62 O63 1.278 . S
C62 O70 1.224 . S
O63 C62 1.278 . S
C64 O65 1.245 . S
C64 O76 1.232 . S
O65 C64 1.245 . S
O66 Co60 2.058 . S
O66 C92 1.269 . S
O67 Co59 2.074 . S
O67 C92 1.257 . S
H68 C93 0.930 . S
H69 C99 0.930 . S
O70 Co59 2.093 . S
O70 C62 1.224 . S
H71 C103 0.929 . S
H72 C105 0.930 . S
H73 C106 0.930 . S
H74 C104 0.929 . S
H75 C107 0.928 . S
O76 Co60 2.057 . S
O76 C64 1.232 . S
H77 C96 0.929 . S
H78 C97 0.929 . S
H79 C109 0.931 . S
H80 C101 0.929 . S
H81 C110 0.930 . S
H82 C102 0.931 . S
O83 Co59 2.097 . S
O83 C111 1.214 . S
H84 C112 0.929 . S
H85 C113 0.929 . S
H86 C114 0.930 . S
H87 C115 0.929 . S
H88 C117 0.930 . S
H89 C94 0.930 . S
H90 C98 0.930 . S
O91 Co60 2.037 . S
O91 C111 1.234 . S
C92 O66 1.269 . S
C92 O67 1.257 . S
C93 H68 0.930 . S
C93 C96 1.388 . S
C93 C98 1.418 . S
C94 H89 0.930 . S
C94 C97 1.404 . S
C94 C98 1.353 . S
N95 Co60 2.145 . S
N95 C96 1.397 . S
N95 C97 1.334 . S
C96 H77 0.929 . S
C96 C93 1.388 . S
C96 N95 1.397 . S
C97 H78 0.929 . S
C97 C94 1.404 . S
C97 N95 1.334 . S
C98 H90 0.930 . S
C98 C93 1.418 . S
C98 C94 1.353 . S
C99 H69 0.930 . S
C99 N100 1.330 . S
C99 C101 1.446 . S
N100 Co59 2.151 . S
N100 C99 1.330 . S
N100 C104 1.418 . S
C101 H80 0.929 . S
C101 C99 1.446 . S
C101 C102 1.332 . S
C102 H82 0.931 . S
C102 C101 1.332 . S
C102 C103 1.267 . S
C103 H71 0.929 . S
C103 C102 1.267 . S
C103 C104 1.251 . S
C104 H74 0.929 . S
C104 N100 1.418 . S
C104 C103 1.251 . S
C105 H72 0.930 . S
C105 C107 1.406 . S
C105 C110 1.261 . S
C106 H73 0.930 . S
C106 N108 1.325 . S
C106 C109 1.357 . S
C107 H75 0.928 . S
C107 C105 1.406 . S
C107 N108 1.261 . S
N108 Co59 2.214 . S
N108 C106 1.325 . S
N108 C107 1.261 . S
C109 H79 0.931 . S
C109 C106 1.357 . S
C109 C110 1.312 . S
C110 H81 0.930 . S
C110 C105 1.261 . S
C110 C109 1.312 . S
C111 O83 1.214 . S
C111 O91 1.234 . S
C112 H84 0.929 . S
C112 C115 1.391 . S
C112 C117 1.391 . S
C113 H85 0.929 . S
C113 C114 1.390 . S
C113 N116 1.391 . S
C114 H86 0.930 . S
C114 C113 1.390 . S
C114 C115 1.392 . S
C115 H87 0.929 . S
C115 C112 1.391 . S
C115 C114 1.392 . S
N116 Co60 2.257 . S
N116 C113 1.391 . S
N116 C117 1.388 . S
C117 H88 0.930 . S
C117 C112 1.391 . S
C117 N116 1.388 . S
Co118 O120 2.143 . S
Co118 O126 2.074 . S
Co118 O129 2.093 . S
Co118 O142 2.097 . S
Co118 N159 2.151 . S
Co118 N167 2.214 . S
Co119 O120 2.160 . S
Co119 O125 2.058 . S
Co119 O135 2.057 . S
Co119 O150 2.037 . S
Co119 N154 2.145 . S
Co119 N175 2.257 . S
O120 Co118 2.143 . S
O120 Co119 2.160 . S
C121 O122 1.278 . S
C121 O129 1.224 . S
O122 C121 1.278 . S
C123 O124 1.245 . S
C123 O135 1.232 . S
O124 C123 1.245 . S
O125 Co119 2.058 . S
O125 C151 1.269 . S
O126 Co118 2.074 . S
O126 C151 1.257 . S
H127 C152 0.930 . S
H128 C158 0.930 . S
O129 Co118 2.093 . S
O129 C121 1.224 . S
H130 C162 0.929 . S
H131 C164 0.930 . S
H132 C165 0.930 . S
H133 C163 0.929 . S
H134 C166 0.928 . S
O135 Co119 2.057 . S
O135 C123 1.232 . S
H136 C155 0.929 . S
H137 C156 0.929 . S
H138 C168 0.931 . S
H139 C160 0.929 . S
H140 C169 0.930 . S
H141 C161 0.931 . S
O142 Co118 2.097 . S
O142 C170 1.214 . S
H143 C171 0.929 . S
H144 C172 0.929 . S
H145 C173 0.930 . S
H146 C174 0.929 . S
H147 C176 0.930 . S
H148 C153 0.930 . S
H149 C157 0.930 . S
O150 Co119 2.037 . S
O150 C170 1.234 . S
C151 O125 1.269 . S
C151 O126 1.257 . S
C152 H127 0.930 . S
C152 C155 1.388 . S
C152 C157 1.418 . S
C153 H148 0.930 . S
C153 C156 1.404 . S
C153 C157 1.353 . S
N154 Co119 2.145 . S
N154 C155 1.397 . S
N154 C156 1.334 . S
C155 H136 0.929 . S
C155 C152 1.388 . S
C155 N154 1.397 . S
C156 H137 0.929 . S
C156 C153 1.404 . S
C156 N154 1.334 . S
C157 H149 0.930 . S
C157 C152 1.418 . S
C157 C153 1.353 . S
C158 H128 0.930 . S
C158 N159 1.330 . S
C158 C160 1.446 . S
N159 Co118 2.151 . S
N159 C158 1.330 . S
N159 C163 1.418 . S
C160 H139 0.929 . S
C160 C158 1.446 . S
C160 C161 1.332 . S
C161 H141 0.931 . S
C161 C160 1.332 . S
C161 C162 1.267 . S
C162 H130 0.929 . S
C162 C161 1.267 . S
C162 C163 1.251 . S
C163 H133 0.929 . S
C163 N159 1.418 . S
C163 C162 1.251 . S
C164 H131 0.930 . S
C164 C166 1.406 . S
C164 C169 1.261 . S
C165 H132 0.930 . S
C165 N167 1.325 . S
C165 C168 1.357 . S
C166 H134 0.928 . S
C166 C164 1.406 . S
C166 N167 1.261 . S
N167 Co118 2.214 . S
N167 C165 1.325 . S
N167 C166 1.261 . S
C168 H138 0.931 . S
C168 C165 1.357 . S
C168 C169 1.312 . S
C169 H140 0.930 . S
C169 C164 1.261 . S
C169 C168 1.312 . S
C170 O142 1.214 . S
C170 O150 1.234 . S
C171 H143 0.929 . S
C171 C174 1.391 . S
C171 C176 1.391 . S
C172 H144 0.929 . S
C172 C173 1.390 . S
C172 N175 1.391 . S
C173 H145 0.930 . S
C173 C172 1.390 . S
C173 C174 1.392 . S
C174 H146 0.929 . S
C174 C171 1.391 . S
C174 C173 1.392 . S
N175 Co119 2.257 . S
N175 C172 1.391 . S
N175 C176 1.388 . S
C176 H147 0.930 . S
C176 C171 1.391 . S
C176 N175 1.388 . S
Co177 O179 2.143 . S
Co177 O185 2.074 . S
Co177 O188 2.093 . S
Co177 O201 2.097 . S
Co177 N218 2.151 . S
Co177 N226 2.214 . S
Co178 O179 2.160 . S
Co178 O184 2.058 . S
Co178 O194 2.057 . S
Co178 O209 2.037 . S
Co178 N213 2.145 . S
Co178 N234 2.257 . S
O179 Co177 2.143 . S
O179 Co178 2.160 . S
C180 O181 1.278 . S
C180 O188 1.224 . S
O181 C180 1.278 . S
C182 O183 1.245 . S
C182 O194 1.232 . S
O183 C182 1.245 . S
O184 Co178 2.058 . S
O184 C210 1.269 . S
O185 Co177 2.074 . S
O185 C210 1.257 . S
H186 C211 0.930 . S
H187 C217 0.930 . S
O188 Co177 2.093 . S
O188 C180 1.224 . S
H189 C221 0.929 . S
H190 C223 0.930 . S
H191 C224 0.930 . S
H192 C222 0.929 . S
H193 C225 0.928 . S
O194 Co178 2.057 . S
O194 C182 1.232 . S
H195 C214 0.929 . S
H196 C215 0.929 . S
H197 C227 0.931 . S
H198 C219 0.929 . S
H199 C228 0.930 . S
H200 C220 0.931 . S
O201 Co177 2.097 . S
O201 C229 1.214 . S
H202 C230 0.929 . S
H203 C231 0.929 . S
H204 C232 0.930 . S
H205 C233 0.929 . S
H206 C235 0.930 . S
H207 C212 0.930 . S
H208 C216 0.930 . S
O209 Co178 2.037 . S
O209 C229 1.234 . S
C210 O184 1.269 . S
C210 O185 1.257 . S
C211 H186 0.930 . S
C211 C214 1.388 . S
C211 C216 1.418 . S
C212 H207 0.930 . S
C212 C215 1.404 . S
C212 C216 1.353 . S
N213 Co178 2.145 . S
N213 C214 1.397 . S
N213 C215 1.334 . S
C214 H195 0.929 . S
C214 C211 1.388 . S
C214 N213 1.397 . S
C215 H196 0.929 . S
C215 C212 1.404 . S
C215 N213 1.334 . S
C216 H208 0.930 . S
C216 C211 1.418 . S
C216 C212 1.353 . S
C217 H187 0.930 . S
C217 N218 1.330 . S
C217 C219 1.446 . S
N218 Co177 2.151 . S
N218 C217 1.330 . S
N218 C222 1.418 . S
C219 H198 0.929 . S
C219 C217 1.446 . S
C219 C220 1.332 . S
C220 H200 0.931 . S
C220 C219 1.332 . S
C220 C221 1.267 . S
C221 H189 0.929 . S
C221 C220 1.267 . S
C221 C222 1.251 . S
C222 H192 0.929 . S
C222 N218 1.418 . S
C222 C221 1.251 . S
C223 H190 0.930 . S
C223 C225 1.406 . S
C223 C228 1.261 . S
C224 H191 0.930 . S
C224 N226 1.325 . S
C224 C227 1.357 . S
C225 H193 0.928 . S
C225 C223 1.406 . S
C225 N226 1.261 . S
N226 Co177 2.214 . S
N226 C224 1.325 . S
N226 C225 1.261 . S
C227 H197 0.931 . S
C227 C224 1.357 . S
C227 C228 1.312 . S
C228 H199 0.930 . S
C228 C223 1.261 . S
C228 C227 1.312 . S
C229 O201 1.214 . S
C229 O209 1.234 . S
C230 H202 0.929 . S
C230 C233 1.391 . S
C230 C235 1.391 . S
C231 H203 0.929 . S
C231 C232 1.390 . S
C231 N234 1.391 . S
C232 H204 0.930 . S
C232 C231 1.390 . S
C232 C233 1.392 . S
C233 H205 0.929 . S
C233 C230 1.391 . S
C233 C232 1.392 . S
N234 Co178 2.257 . S
N234 C231 1.391 . S
N234 C235 1.388 . S
C235 H206 0.930 . S
C235 C230 1.391 . S
C235 N234 1.388 . S
Co236 O238 2.143 . S
Co236 O244 2.074 . S
Co236 O247 2.093 . S
Co236 O260 2.097 . S
Co236 N277 2.151 . S
Co236 N285 2.214 . S
Co237 O238 2.160 . S
Co237 O243 2.058 . S
Co237 O253 2.057 . S
Co237 O268 2.037 . S
Co237 N272 2.145 . S
Co237 N293 2.257 . S
O238 Co236 2.143 . S
O238 Co237 2.160 . S
C239 O240 1.278 . S
C239 O247 1.224 . S
O240 C239 1.278 . S
C241 O242 1.245 . S
C241 O253 1.232 . S
O242 C241 1.245 . S
O243 Co237 2.058 . S
O243 C269 1.269 . S
O244 Co236 2.074 . S
O244 C269 1.257 . S
H245 C270 0.930 . S
H246 C276 0.930 . S
O247 Co236 2.093 . S
O247 C239 1.224 . S
H248 C280 0.929 . S
H249 C282 0.930 . S
H250 C283 0.930 . S
H251 C281 0.929 . S
H252 C284 0.928 . S
O253 Co237 2.057 . S
O253 C241 1.232 . S
H254 C273 0.929 . S
H255 C274 0.929 . S
H256 C286 0.931 . S
H257 C278 0.929 . S
H258 C287 0.930 . S
H259 C279 0.931 . S
O260 Co236 2.097 . S
O260 C288 1.214 . S
H261 C289 0.929 . S
H262 C290 0.929 . S
H263 C291 0.930 . S
H264 C292 0.929 . S
H265 C294 0.930 . S
H266 C271 0.930 . S
H267 C275 0.930 . S
O268 Co237 2.037 . S
O268 C288 1.234 . S
C269 O243 1.269 . S
C269 O244 1.257 . S
C270 H245 0.930 . S
C270 C273 1.388 . S
C270 C275 1.418 . S
C271 H266 0.930 . S
C271 C274 1.404 . S
C271 C275 1.353 . S
N272 Co237 2.145 . S
N272 C273 1.397 . S
N272 C274 1.334 . S
C273 H254 0.929 . S
C273 C270 1.388 . S
C273 N272 1.397 . S
C274 H255 0.929 . S
C274 C271 1.404 . S
C274 N272 1.334 . S
C275 H267 0.930 . S
C275 C270 1.418 . S
C275 C271 1.353 . S
C276 H246 0.930 . S
C276 N277 1.330 . S
C276 C278 1.446 . S
N277 Co236 2.151 . S
N277 C276 1.330 . S
N277 C281 1.418 . S
C278 H257 0.929 . S
C278 C276 1.446 . S
C278 C279 1.332 . S
C279 H259 0.931 . S
C279 C278 1.332 . S
C279 C280 1.267 . S
C280 H248 0.929 . S
C280 C279 1.267 . S
C280 C281 1.251 . S
C281 H251 0.929 . S
C281 N277 1.418 . S
C281 C280 1.251 . S
C282 H249 0.930 . S
C282 C284 1.406 . S
C282 C287 1.261 . S
C283 H250 0.930 . S
C283 N285 1.325 . S
C283 C286 1.357 . S
C284 H252 0.928 . S
C284 C282 1.406 . S
C284 N285 1.261 . S
N285 Co236 2.214 . S
N285 C283 1.325 . S
N285 C284 1.261 . S
C286 H256 0.931 . S
C286 C283 1.357 . S
C286 C287 1.312 . S
C287 H258 0.930 . S
C287 C282 1.261 . S
C287 C286 1.312 . S
C288 O260 1.214 . S
C288 O268 1.234 . S
C289 H261 0.929 . S
C289 C292 1.391 . S
C289 C294 1.391 . S
C290 H262 0.929 . S
C290 C291 1.390 . S
C290 N293 1.391 . S
C291 H263 0.930 . S
C291 C290 1.390 . S
C291 C292 1.392 . S
C292 H264 0.929 . S
C292 C289 1.391 . S
C292 C291 1.392 . S
N293 Co237 2.257 . S
N293 C290 1.391 . S
N293 C294 1.388 . S
C294 H265 0.930 . S
C294 C289 1.391 . S
C294 N293 1.388 . S
Co295 O297 2.143 . S
Co295 O303 2.074 . S
Co295 O306 2.093 . S
Co295 O319 2.097 . S
Co295 N336 2.151 . S
Co295 N344 2.214 . S
Co296 O297 2.160 . S
Co296 O302 2.058 . S
Co296 O312 2.057 . S
Co296 O327 2.037 . S
Co296 N331 2.145 . S
Co296 N352 2.257 . S
O297 Co295 2.143 . S
O297 Co296 2.160 . S
C298 O299 1.278 . S
C298 O306 1.224 . S
O299 C298 1.278 . S
C300 O301 1.245 . S
C300 O312 1.232 . S
O301 C300 1.245 . S
O302 Co296 2.058 . S
O302 C328 1.269 . S
O303 Co295 2.074 . S
O303 C328 1.257 . S
H304 C329 0.930 . S
H305 C335 0.930 . S
O306 Co295 2.093 . S
O306 C298 1.224 . S
H307 C339 0.929 . S
H308 C341 0.930 . S
H309 C342 0.930 . S
H310 C340 0.929 . S
H311 C343 0.928 . S
O312 Co296 2.057 . S
O312 C300 1.232 . S
H313 C332 0.929 . S
H314 C333 0.929 . S
H315 C345 0.931 . S
H316 C337 0.929 . S
H317 C346 0.930 . S
H318 C338 0.931 . S
O319 Co295 2.097 . S
O319 C347 1.214 . S
H320 C348 0.929 . S
H321 C349 0.929 . S
H322 C350 0.930 . S
H323 C351 0.929 . S
H324 C353 0.930 . S
H325 C330 0.930 . S
H326 C334 0.930 . S
O327 Co296 2.037 . S
O327 C347 1.234 . S
C328 O302 1.269 . S
C328 O303 1.257 . S
C329 H304 0.930 . S
C329 C332 1.388 . S
C329 C334 1.418 . S
C330 H325 0.930 . S
C330 C333 1.404 . S
C330 C334 1.353 . S
N331 Co296 2.145 . S
N331 C332 1.397 . S
N331 C333 1.334 . S
C332 H313 0.929 . S
C332 C329 1.388 . S
C332 N331 1.397 . S
C333 H314 0.929 . S
C333 C330 1.404 . S
C333 N331 1.334 . S
C334 H326 0.930 . S
C334 C329 1.418 . S
C334 C330 1.353 . S
C335 H305 0.930 . S
C335 N336 1.330 . S
C335 C337 1.446 . S
N336 Co295 2.151 . S
N336 C335 1.330 . S
N336 C340 1.418 . S
C337 H316 0.929 . S
C337 C335 1.446 . S
C337 C338 1.332 . S
C338 H318 0.931 . S
C338 C337 1.332 . S
C338 C339 1.267 . S
C339 H307 0.929 . S
C339 C338 1.267 . S
C339 C340 1.251 . S
C340 H310 0.929 . S
C340 N336 1.418 . S
C340 C339 1.251 . S
C341 H308 0.930 . S
C341 C343 1.406 . S
C341 C346 1.261 . S
C342 H309 0.930 . S
C342 N344 1.325 . S
C342 C345 1.357 . S
C343 H311 0.928 . S
C343 C341 1.406 . S
C343 N344 1.261 . S
N344 Co295 2.214 . S
N344 C342 1.325 . S
N344 C343 1.261 . S
C345 H315 0.931 . S
C345 C342 1.357 . S
C345 C346 1.312 . S
C346 H317 0.930 . S
C346 C341 1.261 . S
C346 C345 1.312 . S
C347 O319 1.214 . S
C347 O327 1.234 . S
C348 H320 0.929 . S
C348 C351 1.391 . S
C348 C353 1.391 . S
C349 H321 0.929 . S
C349 C350 1.390 . S
C349 N352 1.391 . S
C350 H322 0.930 . S
C350 C349 1.390 . S
C350 C351 1.392 . S
C351 H323 0.929 . S
C351 C348 1.391 . S
C351 C350 1.392 . S
N352 Co296 2.257 . S
N352 C349 1.391 . S
N352 C353 1.388 . S
C353 H324 0.930 . S
C353 C348 1.391 . S
C353 N352 1.388 . S
Co354 O356 2.143 . S
Co354 O362 2.074 . S
Co354 O365 2.093 . S
Co354 O378 2.097 . S
Co354 N395 2.151 . S
Co354 N403 2.214 . S
Co355 O356 2.160 . S
Co355 O361 2.058 . S
Co355 O371 2.057 . S
Co355 O386 2.037 . S
Co355 N390 2.145 . S
Co355 N411 2.257 . S
O356 Co354 2.143 . S
O356 Co355 2.160 . S
C357 O358 1.278 . S
C357 O365 1.224 . S
O358 C357 1.278 . S
C359 O360 1.245 . S
C359 O371 1.232 . S
O360 C359 1.245 . S
O361 Co355 2.058 . S
O361 C387 1.269 . S
O362 Co354 2.074 . S
O362 C387 1.257 . S
H363 C388 0.930 . S
H364 C394 0.930 . S
O365 Co354 2.093 . S
O365 C357 1.224 . S
H366 C398 0.929 . S
H367 C400 0.930 . S
H368 C401 0.930 . S
H369 C399 0.929 . S
H370 C402 0.928 . S
O371 Co355 2.057 . S
O371 C359 1.232 . S
H372 C391 0.929 . S
H373 C392 0.929 . S
H374 C404 0.931 . S
H375 C396 0.929 . S
H376 C405 0.930 . S
H377 C397 0.931 . S
O378 Co354 2.097 . S
O378 C406 1.214 . S
H379 C407 0.929 . S
H380 C408 0.929 . S
H381 C409 0.930 . S
H382 C410 0.929 . S
H383 C412 0.930 . S
H384 C389 0.930 . S
H385 C393 0.930 . S
O386 Co355 2.037 . S
O386 C406 1.234 . S
C387 O361 1.269 . S
C387 O362 1.257 . S
C388 H363 0.930 . S
C388 C391 1.388 . S
C388 C393 1.418 . S
C389 H384 0.930 . S
C389 C392 1.404 . S
C389 C393 1.353 . S
N390 Co355 2.145 . S
N390 C391 1.397 . S
N390 C392 1.334 . S
C391 H372 0.929 . S
C391 C388 1.388 . S
C391 N390 1.397 . S
C392 H373 0.929 . S
C392 C389 1.404 . S
C392 N390 1.334 . S
C393 H385 0.930 . S
C393 C388 1.418 . S
C393 C389 1.353 . S
C394 H364 0.930 . S
C394 N395 1.330 . S
C394 C396 1.446 . S
N395 Co354 2.151 . S
N395 C394 1.330 . S
N395 C399 1.418 . S
C396 H375 0.929 . S
C396 C394 1.446 . S
C396 C397 1.332 . S
C397 H377 0.931 . S
C397 C396 1.332 . S
C397 C398 1.267 . S
C398 H366 0.929 . S
C398 C397 1.267 . S
C398 C399 1.251 . S
C399 H369 0.929 . S
C399 N395 1.418 . S
C399 C398 1.251 . S
C400 H367 0.930 . S
C400 C402 1.406 . S
C400 C405 1.261 . S
C401 H368 0.930 . S
C401 N403 1.325 . S
C401 C404 1.357 . S
C402 H370 0.928 . S
C402 C400 1.406 . S
C402 N403 1.261 . S
N403 Co354 2.214 . S
N403 C401 1.325 . S
N403 C402 1.261 . S
C404 H374 0.931 . S
C404 C401 1.357 . S
C404 C405 1.312 . S
C405 H376 0.930 . S
C405 C400 1.261 . S
C405 C404 1.312 . S
C406 O378 1.214 . S
C406 O386 1.234 . S
C407 H379 0.929 . S
C407 C410 1.391 . S
C407 C412 1.391 . S
C408 H380 0.929 . S
C408 C409 1.390 . S
C408 N411 1.391 . S
C409 H381 0.930 . S
C409 C408 1.390 . S
C409 C410 1.392 . S
C410 H382 0.929 . S
C410 C407 1.391 . S
C410 C409 1.392 . S
N411 Co355 2.257 . S
N411 C408 1.391 . S
N411 C412 1.388 . S
C412 H383 0.930 . S
C412 C407 1.391 . S
C412 N411 1.388 . S
Co413 O415 2.143 . S
Co413 O421 2.074 . S
Co413 O424 2.093 . S
Co413 O437 2.097 . S
Co413 N454 2.151 . S
Co413 N462 2.214 . S
Co414 O415 2.160 . S
Co414 O420 2.058 . S
Co414 O430 2.057 . S
Co414 O445 2.037 . S
Co414 N449 2.145 . S
Co414 N470 2.257 . S
O415 Co413 2.143 . S
O415 Co414 2.160 . S
C416 O417 1.278 . S
C416 O424 1.224 . S
O417 C416 1.278 . S
C418 O419 1.245 . S
C418 O430 1.232 . S
O419 C418 1.245 . S
O420 Co414 2.058 . S
O420 C446 1.269 . S
O421 Co413 2.074 . S
O421 C446 1.257 . S
H422 C447 0.930 . S
H423 C453 0.930 . S
O424 Co413 2.093 . S
O424 C416 1.224 . S
H425 C457 0.929 . S
H426 C459 0.930 . S
H427 C460 0.930 . S
H428 C458 0.929 . S
H429 C461 0.928 . S
O430 Co414 2.057 . S
O430 C418 1.232 . S
H431 C450 0.929 . S
H432 C451 0.929 . S
H433 C463 0.931 . S
H434 C455 0.929 . S
H435 C464 0.930 . S
H436 C456 0.931 . S
O437 Co413 2.097 . S
O437 C465 1.214 . S
H438 C466 0.929 . S
H439 C467 0.929 . S
H440 C468 0.930 . S
H441 C469 0.929 . S
H442 C471 0.930 . S
H443 C448 0.930 . S
H444 C452 0.930 . S
O445 Co414 2.037 . S
O445 C465 1.234 . S
C446 O420 1.269 . S
C446 O421 1.257 . S
C447 H422 0.930 . S
C447 C450 1.388 . S
C447 C452 1.418 . S
C448 H443 0.930 . S
C448 C451 1.404 . S
C448 C452 1.353 . S
N449 Co414 2.145 . S
N449 C450 1.397 . S
N449 C451 1.334 . S
C450 H431 0.929 . S
C450 C447 1.388 . S
C450 N449 1.397 . S
C451 H432 0.929 . S
C451 C448 1.404 . S
C451 N449 1.334 . S
C452 H444 0.930 . S
C452 C447 1.418 . S
C452 C448 1.353 . S
C453 H423 0.930 . S
C453 N454 1.330 . S
C453 C455 1.446 . S
N454 Co413 2.151 . S
N454 C453 1.330 . S
N454 C458 1.418 . S
C455 H434 0.929 . S
C455 C453 1.446 . S
C455 C456 1.332 . S
C456 H436 0.931 . S
C456 C455 1.332 . S
C456 C457 1.267 . S
C457 H425 0.929 . S
C457 C456 1.267 . S
C457 C458 1.251 . S
C458 H428 0.929 . S
C458 N454 1.418 . S
C458 C457 1.251 . S
C459 H426 0.930 . S
C459 C461 1.406 . S
C459 C464 1.261 . S
C460 H427 0.930 . S
C460 N462 1.325 . S
C460 C463 1.357 . S
C461 H429 0.928 . S
C461 C459 1.406 . S
C461 N462 1.261 . S
N462 Co413 2.214 . S
N462 C460 1.325 . S
N462 C461 1.261 . S
C463 H433 0.931 . S
C463 C460 1.357 . S
C463 C464 1.312 . S
C464 H435 0.930 . S
C464 C459 1.261 . S
C464 C463 1.312 . S
C465 O437 1.214 . S
C465 O445 1.234 . S
C466 H438 0.929 . S
C466 C469 1.391 . S
C466 C471 1.391 . S
C467 H439 0.929 . S
C467 C468 1.390 . S
C467 N470 1.391 . S
C468 H440 0.930 . S
C468 C467 1.390 . S
C468 C469 1.392 . S
C469 H441 0.929 . S
C469 C466 1.391 . S
C469 C468 1.392 . S
N470 Co414 2.257 . S
N470 C467 1.391 . S
N470 C471 1.388 . S
C471 H442 0.930 . S
C471 C466 1.391 . S
C471 N470 1.388 . S
Co472 O474 2.143 . S
Co472 O480 2.074 . S
Co472 O483 2.093 . S
Co472 O496 2.097 . S
Co472 N513 2.151 . S
Co472 N521 2.214 . S
Co473 O474 2.160 . S
Co473 O479 2.058 . S
Co473 O489 2.057 . S
Co473 O504 2.037 . S
Co473 N508 2.145 . S
Co473 N529 2.257 . S
O474 Co472 2.143 . S
O474 Co473 2.160 . S
C475 O476 1.278 . S
C475 O483 1.224 . S
O476 C475 1.278 . S
C477 O478 1.245 . S
C477 O489 1.232 . S
O478 C477 1.245 . S
O479 Co473 2.058 . S
O479 C505 1.269 . S
O480 Co472 2.074 . S
O480 C505 1.257 . S
H481 C506 0.930 . S
H482 C512 0.930 . S
O483 Co472 2.093 . S
O483 C475 1.224 . S
H484 C516 0.929 . S
H485 C518 0.930 . S
H486 C519 0.930 . S
H487 C517 0.929 . S
H488 C520 0.928 . S
O489 Co473 2.057 . S
O489 C477 1.232 . S
H490 C509 0.929 . S
H491 C510 0.929 . S
H492 C522 0.931 . S
H493 C514 0.929 . S
H494 C523 0.930 . S
H495 C515 0.931 . S
O496 Co472 2.097 . S
O496 C524 1.214 . S
H497 C525 0.929 . S
H498 C526 0.929 . S
H499 C527 0.930 . S
H500 C528 0.929 . S
H501 C530 0.930 . S
H502 C507 0.930 . S
H503 C511 0.930 . S
O504 Co473 2.037 . S
O504 C524 1.234 . S
C505 O479 1.269 . S
C505 O480 1.257 . S
C506 H481 0.930 . S
C506 C509 1.388 . S
C506 C511 1.418 . S
C507 H502 0.930 . S
C507 C510 1.404 . S
C507 C511 1.353 . S
N508 Co473 2.145 . S
N508 C509 1.397 . S
N508 C510 1.334 . S
C509 H490 0.929 . S
C509 C506 1.388 . S
C509 N508 1.397 . S
C510 H491 0.929 . S
C510 C507 1.404 . S
C510 N508 1.334 . S
C511 H503 0.930 . S
C511 C506 1.418 . S
C511 C507 1.353 . S
C512 H482 0.930 . S
C512 N513 1.330 . S
C512 C514 1.446 . S
N513 Co472 2.151 . S
N513 C512 1.330 . S
N513 C517 1.418 . S
C514 H493 0.929 . S
C514 C512 1.446 . S
C514 C515 1.332 . S
C515 H495 0.931 . S
C515 C514 1.332 . S
C515 C516 1.267 . S
C516 H484 0.929 . S
C516 C515 1.267 . S
C516 C517 1.251 . S
C517 H487 0.929 . S
C517 N513 1.418 . S
C517 C516 1.251 . S
C518 H485 0.930 . S
C518 C520 1.406 . S
C518 C523 1.261 . S
C519 H486 0.930 . S
C519 N521 1.325 . S
C519 C522 1.357 . S
C520 H488 0.928 . S
C520 C518 1.406 . S
C520 N521 1.261 . S
N521 Co472 2.214 . S
N521 C519 1.325 . S
N521 C520 1.261 . S
C522 H492 0.931 . S
C522 C519 1.357 . S
C522 C523 1.312 . S
C523 H494 0.930 . S
C523 C518 1.261 . S
C523 C522 1.312 . S
C524 O496 1.214 . S
C524 O504 1.234 . S
C525 H497 0.929 . S
C525 C528 1.391 . S
C525 C530 1.391 . S
C526 H498 0.929 . S
C526 C527 1.390 . S
C526 N529 1.391 . S
C527 H499 0.930 . S
C527 C526 1.390 . S
C527 C528 1.392 . S
C528 H500 0.929 . S
C528 C525 1.391 . S
C528 C527 1.392 . S
N529 Co473 2.257 . S
N529 C526 1.391 . S
N529 C530 1.388 . S
C530 H501 0.930 . S
C530 C525 1.391 . S
C530 N529 1.388 . S
Co531 O533 2.143 . S
Co531 O539 2.074 . S
Co531 O542 2.093 . S
Co531 O555 2.097 . S
Co531 N572 2.151 . S
Co531 N580 2.214 . S
Co532 O533 2.160 . S
Co532 O538 2.058 . S
Co532 O548 2.057 . S
Co532 O563 2.037 . S
Co532 N567 2.145 . S
Co532 N588 2.257 . S
O533 Co531 2.143 . S
O533 Co532 2.160 . S
C534 O535 1.278 . S
C534 O542 1.224 . S
O535 C534 1.278 . S
C536 O537 1.245 . S
C536 O548 1.232 . S
O537 C536 1.245 . S
O538 Co532 2.058 . S
O538 C564 1.269 . S
O539 Co531 2.074 . S
O539 C564 1.257 . S
H540 C565 0.930 . S
H541 C571 0.930 . S
O542 Co531 2.093 . S
O542 C534 1.224 . S
H543 C575 0.929 . S
H544 C577 0.930 . S
H545 C578 0.930 . S
H546 C576 0.929 . S
H547 C579 0.928 . S
O548 Co532 2.057 . S
O548 C536 1.232 . S
H549 C568 0.929 . S
H550 C569 0.929 . S
H551 C581 0.931 . S
H552 C573 0.929 . S
H553 C582 0.930 . S
H554 C574 0.931 . S
O555 Co531 2.097 . S
O555 C583 1.214 . S
H556 C584 0.929 . S
H557 C585 0.929 . S
H558 C586 0.930 . S
H559 C587 0.929 . S
H560 C589 0.930 . S
H561 C566 0.930 . S
H562 C570 0.930 . S
O563 Co532 2.037 . S
O563 C583 1.234 . S
C564 O538 1.269 . S
C564 O539 1.257 . S
C565 H540 0.930 . S
C565 C568 1.388 . S
C565 C570 1.418 . S
C566 H561 0.930 . S
C566 C569 1.404 . S
C566 C570 1.353 . S
N567 Co532 2.145 . S
N567 C568 1.397 . S
N567 C569 1.334 . S
C568 H549 0.929 . S
C568 C565 1.388 . S
C568 N567 1.397 . S
C569 H550 0.929 . S
C569 C566 1.404 . S
C569 N567 1.334 . S
C570 H562 0.930 . S
C570 C565 1.418 . S
C570 C566 1.353 . S
C571 H541 0.930 . S
C571 N572 1.330 . S
C571 C573 1.446 . S
N572 Co531 2.151 . S
N572 C571 1.330 . S
N572 C576 1.418 . S
C573 H552 0.929 . S
C573 C571 1.446 . S
C573 C574 1.332 . S
C574 H554 0.931 . S
C574 C573 1.332 . S
C574 C575 1.267 . S
C575 H543 0.929 . S
C575 C574 1.267 . S
C575 C576 1.251 . S
C576 H546 0.929 . S
C576 N572 1.418 . S
C576 C575 1.251 . S
C577 H544 0.930 . S
C577 C579 1.406 . S
C577 C582 1.261 . S
C578 H545 0.930 . S
C578 N580 1.325 . S
C578 C581 1.357 . S
C579 H547 0.928 . S
C579 C577 1.406 . S
C579 N580 1.261 . S
N580 Co531 2.214 . S
N580 C578 1.325 . S
N580 C579 1.261 . S
C581 H551 0.931 . S
C581 C578 1.357 . S
C581 C582 1.312 . S
C582 H553 0.930 . S
C582 C577 1.261 . S
C582 C581 1.312 . S
C583 O555 1.214 . S
C583 O563 1.234 . S
C584 H556 0.929 . S
C584 C587 1.391 . S
C584 C589 1.391 . S
C585 H557 0.929 . S
C585 C586 1.390 . S
C585 N588 1.391 . S
C586 H558 0.930 . S
C586 C585 1.390 . S
C586 C587 1.392 . S
C587 H559 0.929 . S
C587 C584 1.391 . S
C587 C586 1.392 . S
N588 Co532 2.257 . S
N588 C585 1.391 . S
N588 C589 1.388 . S
C589 H560 0.930 . S
C589 C584 1.391 . S
C589 N588 1.388 . S
Co590 O592 2.143 . S
Co590 O598 2.074 . S
Co590 O601 2.093 . S
Co590 O614 2.097 . S
Co590 N631 2.151 . S
Co590 N639 2.214 . S
Co591 O592 2.160 . S
Co591 O597 2.058 . S
Co591 O607 2.057 . S
Co591 O622 2.037 . S
Co591 N626 2.145 . S
Co591 N647 2.257 . S
O592 Co590 2.143 . S
O592 Co591 2.160 . S
C593 O594 1.278 . S
C593 O601 1.224 . S
O594 C593 1.278 . S
C595 O596 1.245 . S
C595 O607 1.232 . S
O596 C595 1.245 . S
O597 Co591 2.058 . S
O597 C623 1.269 . S
O598 Co590 2.074 . S
O598 C623 1.257 . S
H599 C624 0.930 . S
H600 C630 0.930 . S
O601 Co590 2.093 . S
O601 C593 1.224 . S
H602 C634 0.929 . S
H603 C636 0.930 . S
H604 C637 0.930 . S
H605 C635 0.929 . S
H606 C638 0.928 . S
O607 Co591 2.057 . S
O607 C595 1.232 . S
H608 C627 0.929 . S
H609 C628 0.929 . S
H610 C640 0.931 . S
H611 C632 0.929 . S
H612 C641 0.930 . S
H613 C633 0.931 . S
O614 Co590 2.097 . S
O614 C642 1.214 . S
H615 C643 0.929 . S
H616 C644 0.929 . S
H617 C645 0.930 . S
H618 C646 0.929 . S
H619 C648 0.930 . S
H620 C625 0.930 . S
H621 C629 0.930 . S
O622 Co591 2.037 . S
O622 C642 1.234 . S
C623 O597 1.269 . S
C623 O598 1.257 . S
C624 H599 0.930 . S
C624 C627 1.388 . S
C624 C629 1.418 . S
C625 H620 0.930 . S
C625 C628 1.404 . S
C625 C629 1.353 . S
N626 Co591 2.145 . S
N626 C627 1.397 . S
N626 C628 1.334 . S
C627 H608 0.929 . S
C627 C624 1.388 . S
C627 N626 1.397 . S
C628 H609 0.929 . S
C628 C625 1.404 . S
C628 N626 1.334 . S
C629 H621 0.930 . S
C629 C624 1.418 . S
C629 C625 1.353 . S
C630 H600 0.930 . S
C630 N631 1.330 . S
C630 C632 1.446 . S
N631 Co590 2.151 . S
N631 C630 1.330 . S
N631 C635 1.418 . S
C632 H611 0.929 . S
C632 C630 1.446 . S
C632 C633 1.332 . S
C633 H613 0.931 . S
C633 C632 1.332 . S
C633 C634 1.267 . S
C634 H602 0.929 . S
C634 C633 1.267 . S
C634 C635 1.251 . S
C635 H605 0.929 . S
C635 N631 1.418 . S
C635 C634 1.251 . S
C636 H603 0.930 . S
C636 C638 1.406 . S
C636 C641 1.261 . S
C637 H604 0.930 . S
C637 N639 1.325 . S
C637 C640 1.357 . S
C638 H606 0.928 . S
C638 C636 1.406 . S
C638 N639 1.261 . S
N639 Co590 2.214 . S
N639 C637 1.325 . S
N639 C638 1.261 . S
C640 H610 0.931 . S
C640 C637 1.357 . S
C640 C641 1.312 . S
C641 H612 0.930 . S
C641 C636 1.261 . S
C641 C640 1.312 . S
C642 O614 1.214 . S
C642 O622 1.234 . S
C643 H615 0.929 . S
C643 C646 1.391 . S
C643 C648 1.391 . S
C644 H616 0.929 . S
C644 C645 1.390 . S
C644 N647 1.391 . S
C645 H617 0.930 . S
C645 C644 1.390 . S
C645 C646 1.392 . S
C646 H618 0.929 . S
C646 C643 1.391 . S
C646 C645 1.392 . S
N647 Co591 2.257 . S
N647 C644 1.391 . S
N647 C648 1.388 . S
C648 H619 0.930 . S
C648 C643 1.391 . S
C648 N647 1.388 . S
Co649 O651 2.143 . S
Co649 O657 2.074 . S
Co649 O660 2.093 . S
Co649 O673 2.097 . S
Co649 N690 2.151 . S
Co649 N698 2.214 . S
Co650 O651 2.160 . S
Co650 O656 2.058 . S
Co650 O666 2.057 . S
Co650 O681 2.037 . S
Co650 N685 2.145 . S
Co650 N706 2.257 . S
O651 Co649 2.143 . S
O651 Co650 2.160 . S
C652 O653 1.278 . S
C652 O660 1.224 . S
O653 C652 1.278 . S
C654 O655 1.245 . S
C654 O666 1.232 . S
O655 C654 1.245 . S
O656 Co650 2.058 . S
O656 C682 1.269 . S
O657 Co649 2.074 . S
O657 C682 1.257 . S
H658 C683 0.930 . S
H659 C689 0.930 . S
O660 Co649 2.093 . S
O660 C652 1.224 . S
H661 C693 0.929 . S
H662 C695 0.930 . S
H663 C696 0.930 . S
H664 C694 0.929 . S
H665 C697 0.928 . S
O666 Co650 2.057 . S
O666 C654 1.232 . S
H667 C686 0.929 . S
H668 C687 0.929 . S
H669 C699 0.931 . S
H670 C691 0.929 . S
H671 C700 0.930 . S
H672 C692 0.931 . S
O673 Co649 2.097 . S
O673 C701 1.214 . S
H674 C702 0.929 . S
H675 C703 0.929 . S
H676 C704 0.930 . S
H677 C705 0.929 . S
H678 C707 0.930 . S
H679 C684 0.930 . S
H680 C688 0.930 . S
O681 Co650 2.037 . S
O681 C701 1.234 . S
C682 O656 1.269 . S
C682 O657 1.257 . S
C683 H658 0.930 . S
C683 C686 1.388 . S
C683 C688 1.418 . S
C684 H679 0.930 . S
C684 C687 1.404 . S
C684 C688 1.353 . S
N685 Co650 2.145 . S
N685 C686 1.397 . S
N685 C687 1.334 . S
C686 H667 0.929 . S
C686 C683 1.388 . S
C686 N685 1.397 . S
C687 H668 0.929 . S
C687 C684 1.404 . S
C687 N685 1.334 . S
C688 H680 0.930 . S
C688 C683 1.418 . S
C688 C684 1.353 . S
C689 H659 0.930 . S
C689 N690 1.330 . S
C689 C691 1.446 . S
N690 Co649 2.151 . S
N690 C689 1.330 . S
N690 C694 1.418 . S
C691 H670 0.929 . S
C691 C689 1.446 . S
C691 C692 1.332 . S
C692 H672 0.931 . S
C692 C691 1.332 . S
C692 C693 1.267 . S
C693 H661 0.929 . S
C693 C692 1.267 . S
C693 C694 1.251 . S
C694 H664 0.929 . S
C694 N690 1.418 . S
C694 C693 1.251 . S
C695 H662 0.930 . S
C695 C697 1.406 . S
C695 C700 1.261 . S
C696 H663 0.930 . S
C696 N698 1.325 . S
C696 C699 1.357 . S
C697 H665 0.928 . S
C697 C695 1.406 . S
C697 N698 1.261 . S
N698 Co649 2.214 . S
N698 C696 1.325 . S
N698 C697 1.261 . S
C699 H669 0.931 . S
C699 C696 1.357 . S
C699 C700 1.312 . S
C700 H671 0.930 . S
C700 C695 1.261 . S
C700 C699 1.312 . S
C701 O673 1.214 . S
C701 O681 1.234 . S
C702 H674 0.929 . S
C702 C705 1.391 . S
C702 C707 1.391 . S
C703 H675 0.929 . S
C703 C704 1.390 . S
C703 N706 1.391 . S
C704 H676 0.930 . S
C704 C703 1.390 . S
C704 C705 1.392 . S
C705 H677 0.929 . S
C705 C702 1.391 . S
C705 C704 1.392 . S
N706 Co650 2.257 . S
N706 C703 1.391 . S
N706 C707 1.388 . S
C707 H678 0.930 . S
C707 C702 1.391 . S
C707 N706 1.388 . S
Co708 O710 2.143 . S
Co708 O716 2.074 . S
Co708 O719 2.093 . S
Co708 O732 2.097 . S
Co708 N749 2.151 . S
Co708 N757 2.214 . S
Co709 O710 2.160 . S
Co709 O715 2.058 . S
Co709 O725 2.057 . S
Co709 O740 2.037 . S
Co709 N744 2.145 . S
Co709 N765 2.257 . S
O710 Co708 2.143 . S
O710 Co709 2.160 . S
C711 O712 1.278 . S
C711 O719 1.224 . S
O712 C711 1.278 . S
C713 O714 1.245 . S
C713 O725 1.232 . S
O714 C713 1.245 . S
O715 Co709 2.058 . S
O715 C741 1.269 . S
O716 Co708 2.074 . S
O716 C741 1.257 . S
H717 C742 0.930 . S
H718 C748 0.930 . S
O719 Co708 2.093 . S
O719 C711 1.224 . S
H720 C752 0.929 . S
H721 C754 0.930 . S
H722 C755 0.930 . S
H723 C753 0.929 . S
H724 C756 0.928 . S
O725 Co709 2.057 . S
O725 C713 1.232 . S
H726 C745 0.929 . S
H727 C746 0.929 . S
H728 C758 0.931 . S
H729 C750 0.929 . S
H730 C759 0.930 . S
H731 C751 0.931 . S
O732 Co708 2.097 . S
O732 C760 1.214 . S
H733 C761 0.929 . S
H734 C762 0.929 . S
H735 C763 0.930 . S
H736 C764 0.929 . S
H737 C766 0.930 . S
H738 C743 0.930 . S
H739 C747 0.930 . S
O740 Co709 2.037 . S
O740 C760 1.234 . S
C741 O715 1.269 . S
C741 O716 1.257 . S
C742 H717 0.930 . S
C742 C745 1.388 . S
C742 C747 1.418 . S
C743 H738 0.930 . S
C743 C746 1.404 . S
C743 C747 1.353 . S
N744 Co709 2.145 . S
N744 C745 1.397 . S
N744 C746 1.334 . S
C745 H726 0.929 . S
C745 C742 1.388 . S
C745 N744 1.397 . S
C746 H727 0.929 . S
C746 C743 1.404 . S
C746 N744 1.334 . S
C747 H739 0.930 . S
C747 C742 1.418 . S
C747 C743 1.353 . S
C748 H718 0.930 . S
C748 N749 1.330 . S
C748 C750 1.446 . S
N749 Co708 2.151 . S
N749 C748 1.330 . S
N749 C753 1.418 . S
C750 H729 0.929 . S
C750 C748 1.446 . S
C750 C751 1.332 . S
C751 H731 0.931 . S
C751 C750 1.332 . S
C751 C752 1.267 . S
C752 H720 0.929 . S
C752 C751 1.267 . S
C752 C753 1.251 . S
C753 H723 0.929 . S
C753 N749 1.418 . S
C753 C752 1.251 . S
C754 H721 0.930 . S
C754 C756 1.406 . S
C754 C759 1.261 . S
C755 H722 0.930 . S
C755 N757 1.325 . S
C755 C758 1.357 . S
C756 H724 0.928 . S
C756 C754 1.406 . S
C756 N757 1.261 . S
N757 Co708 2.214 . S
N757 C755 1.325 . S
N757 C756 1.261 . S
C758 H728 0.931 . S
C758 C755 1.357 . S
C758 C759 1.312 . S
C759 H730 0.930 . S
C759 C754 1.261 . S
C759 C758 1.312 . S
C760 O732 1.214 . S
C760 O740 1.234 . S
C761 H733 0.929 . S
C761 C764 1.391 . S
C761 C766 1.391 . S
C762 H734 0.929 . S
C762 C763 1.390 . S
C762 N765 1.391 . S
C763 H735 0.930 . S
C763 C762 1.390 . S
C763 C764 1.392 . S
C764 H736 0.929 . S
C764 C761 1.391 . S
C764 C763 1.392 . S
N765 Co709 2.257 . S
N765 C762 1.391 . S
N765 C766 1.388 . S
C766 H737 0.930 . S
C766 C761 1.391 . S
C766 N765 1.388 . S
Co767 O769 2.143 . S
Co767 O775 2.074 . S
Co767 O778 2.093 . S
Co767 O791 2.097 . S
Co767 N808 2.151 . S
Co767 N816 2.214 . S
Co768 O769 2.160 . S
Co768 O774 2.058 . S
Co768 O784 2.057 . S
Co768 O799 2.037 . S
Co768 N803 2.145 . S
Co768 N824 2.257 . S
O769 Co767 2.143 . S
O769 Co768 2.160 . S
C770 O771 1.278 . S
C770 O778 1.224 . S
O771 C770 1.278 . S
C772 O773 1.245 . S
C772 O784 1.232 . S
O773 C772 1.245 . S
O774 Co768 2.058 . S
O774 C800 1.269 . S
O775 Co767 2.074 . S
O775 C800 1.257 . S
H776 C801 0.930 . S
H777 C807 0.930 . S
O778 Co767 2.093 . S
O778 C770 1.224 . S
H779 C811 0.929 . S
H780 C813 0.930 . S
H781 C814 0.930 . S
H782 C812 0.929 . S
H783 C815 0.928 . S
O784 Co768 2.057 . S
O784 C772 1.232 . S
H785 C804 0.929 . S
H786 C805 0.929 . S
H787 C817 0.931 . S
H788 C809 0.929 . S
H789 C818 0.930 . S
H790 C810 0.931 . S
O791 Co767 2.097 . S
O791 C819 1.214 . S
H792 C820 0.929 . S
H793 C821 0.929 . S
H794 C822 0.930 . S
H795 C823 0.929 . S
H796 C825 0.930 . S
H797 C802 0.930 . S
H798 C806 0.930 . S
O799 Co768 2.037 . S
O799 C819 1.234 . S
C800 O774 1.269 . S
C800 O775 1.257 . S
C801 H776 0.930 . S
C801 C804 1.388 . S
C801 C806 1.418 . S
C802 H797 0.930 . S
C802 C805 1.404 . S
C802 C806 1.353 . S
N803 Co768 2.145 . S
N803 C804 1.397 . S
N803 C805 1.334 . S
C804 H785 0.929 . S
C804 C801 1.388 . S
C804 N803 1.397 . S
C805 H786 0.929 . S
C805 C802 1.404 . S
C805 N803 1.334 . S
C806 H798 0.930 . S
C806 C801 1.418 . S
C806 C802 1.353 . S
C807 H777 0.930 . S
C807 N808 1.330 . S
C807 C809 1.446 . S
N808 Co767 2.151 . S
N808 C807 1.330 . S
N808 C812 1.418 . S
C809 H788 0.929 . S
C809 C807 1.446 . S
C809 C810 1.332 . S
C810 H790 0.931 . S
C810 C809 1.332 . S
C810 C811 1.267 . S
C811 H779 0.929 . S
C811 C810 1.267 . S
C811 C812 1.251 . S
C812 H782 0.929 . S
C812 N808 1.418 . S
C812 C811 1.251 . S
C813 H780 0.930 . S
C813 C815 1.406 . S
C813 C818 1.261 . S
C814 H781 0.930 . S
C814 N816 1.325 . S
C814 C817 1.357 . S
C815 H783 0.928 . S
C815 C813 1.406 . S
C815 N816 1.261 . S
N816 Co767 2.214 . S
N816 C814 1.325 . S
N816 C815 1.261 . S
C817 H787 0.931 . S
C817 C814 1.357 . S
C817 C818 1.312 . S
C818 H789 0.930 . S
C818 C813 1.261 . S
C818 C817 1.312 . S
C819 O791 1.214 . S
C819 O799 1.234 . S
C820 H792 0.929 . S
C820 C823 1.391 . S
C820 C825 1.391 . S
C821 H793 0.929 . S
C821 C822 1.390 . S
C821 N824 1.391 . S
C822 H794 0.930 . S
C822 C821 1.390 . S
C822 C823 1.392 . S
C823 H795 0.929 . S
C823 C820 1.391 . S
C823 C822 1.392 . S
N824 Co768 2.257 . S
N824 C821 1.391 . S
N824 C825 1.388 . S
C825 H796 0.930 . S
C825 C820 1.391 . S
C825 N824 1.388 . S
Co826 O828 2.143 . S
Co826 O834 2.074 . S
Co826 O837 2.093 . S
Co826 O850 2.097 . S
Co826 N867 2.151 . S
Co826 N875 2.214 . S
Co827 O828 2.160 . S
Co827 O833 2.058 . S
Co827 O843 2.057 . S
Co827 O858 2.037 . S
Co827 N862 2.145 . S
Co827 N883 2.257 . S
O828 Co826 2.143 . S
O828 Co827 2.160 . S
C829 O830 1.278 . S
C829 O837 1.224 . S
O830 C829 1.278 . S
C831 O832 1.245 . S
C831 O843 1.232 . S
O832 C831 1.245 . S
O833 Co827 2.058 . S
O833 C859 1.269 . S
O834 Co826 2.074 . S
O834 C859 1.257 . S
H835 C860 0.930 . S
H836 C866 0.930 . S
O837 Co826 2.093 . S
O837 C829 1.224 . S
H838 C870 0.929 . S
H839 C872 0.930 . S
H840 C873 0.930 . S
H841 C871 0.929 . S
H842 C874 0.928 . S
O843 Co827 2.057 . S
O843 C831 1.232 . S
H844 C863 0.929 . S
H845 C864 0.929 . S
H846 C876 0.931 . S
H847 C868 0.929 . S
H848 C877 0.930 . S
H849 C869 0.931 . S
O850 Co826 2.097 . S
O850 C878 1.214 . S
H851 C879 0.929 . S
H852 C880 0.929 . S
H853 C881 0.930 . S
H854 C882 0.929 . S
H855 C884 0.930 . S
H856 C861 0.930 . S
H857 C865 0.930 . S
O858 Co827 2.037 . S
O858 C878 1.234 . S
C859 O833 1.269 . S
C859 O834 1.257 . S
C860 H835 0.930 . S
C860 C863 1.388 . S
C860 C865 1.418 . S
C861 H856 0.930 . S
C861 C864 1.404 . S
C861 C865 1.353 . S
N862 Co827 2.145 . S
N862 C863 1.397 . S
N862 C864 1.334 . S
C863 H844 0.929 . S
C863 C860 1.388 . S
C863 N862 1.397 . S
C864 H845 0.929 . S
C864 C861 1.404 . S
C864 N862 1.334 . S
C865 H857 0.930 . S
C865 C860 1.418 . S
C865 C861 1.353 . S
C866 H836 0.930 . S
C866 N867 1.330 . S
C866 C868 1.446 . S
N867 Co826 2.151 . S
N867 C866 1.330 . S
N867 C871 1.418 . S
C868 H847 0.929 . S
C868 C866 1.446 . S
C868 C869 1.332 . S
C869 H849 0.931 . S
C869 C868 1.332 . S
C869 C870 1.267 . S
C870 H838 0.929 . S
C870 C869 1.267 . S
C870 C871 1.251 . S
C871 H841 0.929 . S
C871 N867 1.418 . S
C871 C870 1.251 . S
C872 H839 0.930 . S
C872 C874 1.406 . S
C872 C877 1.261 . S
C873 H840 0.930 . S
C873 N875 1.325 . S
C873 C876 1.357 . S
C874 H842 0.928 . S
C874 C872 1.406 . S
C874 N875 1.261 . S
N875 Co826 2.214 . S
N875 C873 1.325 . S
N875 C874 1.261 . S
C876 H846 0.931 . S
C876 C873 1.357 . S
C876 C877 1.312 . S
C877 H848 0.930 . S
C877 C872 1.261 . S
C877 C876 1.312 . S
C878 O850 1.214 . S
C878 O858 1.234 . S
C879 H851 0.929 . S
C879 C882 1.391 . S
C879 C884 1.391 . S
C880 H852 0.929 . S
C880 C881 1.390 . S
C880 N883 1.391 . S
C881 H853 0.930 . S
C881 C880 1.390 . S
C881 C882 1.392 . S
C882 H854 0.929 . S
C882 C879 1.391 . S
C882 C881 1.392 . S
N883 Co827 2.257 . S
N883 C880 1.391 . S
N883 C884 1.388 . S
C884 H855 0.930 . S
C884 C879 1.391 . S
C884 N883 1.388 . S
Co885 O887 2.143 . S
Co885 O893 2.074 . S
Co885 O896 2.093 . S
Co885 O909 2.097 . S
Co885 N926 2.151 . S
Co885 N934 2.214 . S
Co886 O887 2.160 . S
Co886 O892 2.058 . S
Co886 O902 2.057 . S
Co886 O917 2.037 . S
Co886 N921 2.145 . S
Co886 N942 2.257 . S
O887 Co885 2.143 . S
O887 Co886 2.160 . S
C888 O889 1.278 . S
C888 O896 1.224 . S
O889 C888 1.278 . S
C890 O891 1.245 . S
C890 O902 1.232 . S
O891 C890 1.245 . S
O892 Co886 2.058 . S
O892 C918 1.269 . S
O893 Co885 2.074 . S
O893 C918 1.257 . S
H894 C919 0.930 . S
H895 C925 0.930 . S
O896 Co885 2.093 . S
O896 C888 1.224 . S
H897 C929 0.929 . S
H898 C931 0.930 . S
H899 C932 0.930 . S
H900 C930 0.929 . S
H901 C933 0.928 . S
O902 Co886 2.057 . S
O902 C890 1.232 . S
H903 C922 0.929 . S
H904 C923 0.929 . S
H905 C935 0.931 . S
H906 C927 0.929 . S
H907 C936 0.930 . S
H908 C928 0.931 . S
O909 Co885 2.097 . S
O909 C937 1.214 . S
H910 C938 0.929 . S
H911 C939 0.929 . S
H912 C940 0.930 . S
H913 C941 0.929 . S
H914 C943 0.930 . S
H915 C920 0.930 . S
H916 C924 0.930 . S
O917 Co886 2.037 . S
O917 C937 1.234 . S
C918 O892 1.269 . S
C918 O893 1.257 . S
C919 H894 0.930 . S
C919 C922 1.388 . S
C919 C924 1.418 . S
C920 H915 0.930 . S
C920 C923 1.404 . S
C920 C924 1.353 . S
N921 Co886 2.145 . S
N921 C922 1.397 . S
N921 C923 1.334 . S
C922 H903 0.929 . S
C922 C919 1.388 . S
C922 N921 1.397 . S
C923 H904 0.929 . S
C923 C920 1.404 . S
C923 N921 1.334 . S
C924 H916 0.930 . S
C924 C919 1.418 . S
C924 C920 1.353 . S
C925 H895 0.930 . S
C925 N926 1.330 . S
C925 C927 1.446 . S
N926 Co885 2.151 . S
N926 C925 1.330 . S
N926 C930 1.418 . S
C927 H906 0.929 . S
C927 C925 1.446 . S
C927 C928 1.332 . S
C928 H908 0.931 . S
C928 C927 1.332 . S
C928 C929 1.267 . S
C929 H897 0.929 . S
C929 C928 1.267 . S
C929 C930 1.251 . S
C930 H900 0.929 . S
C930 N926 1.418 . S
C930 C929 1.251 . S
C931 H898 0.930 . S
C931 C933 1.406 . S
C931 C936 1.261 . S
C932 H899 0.930 . S
C932 N934 1.325 . S
C932 C935 1.357 . S
C933 H901 0.928 . S
C933 C931 1.406 . S
C933 N934 1.261 . S
N934 Co885 2.214 . S
N934 C932 1.325 . S
N934 C933 1.261 . S
C935 H905 0.931 . S
C935 C932 1.357 . S
C935 C936 1.312 . S
C936 H907 0.930 . S
C936 C931 1.261 . S
C936 C935 1.312 . S
C937 O909 1.214 . S
C937 O917 1.234 . S
C938 H910 0.929 . S
C938 C941 1.391 . S
C938 C943 1.391 . S
C939 H911 0.929 . S
C939 C940 1.390 . S
C939 N942 1.391 . S
C940 H912 0.930 . S
C940 C939 1.390 . S
C940 C941 1.392 . S
C941 H913 0.929 . S
C941 C938 1.391 . S
C941 C940 1.392 . S
N942 Co886 2.257 . S
N942 C939 1.391 . S
N942 C943 1.388 . S
C943 H914 0.930 . S
C943 C938 1.391 . S
C943 N942 1.388 . S
Co944 O946 2.143 . S
Co944 O952 2.074 . S
Co944 O955 2.093 . S
Co944 O968 2.097 . S
Co944 N985 2.151 . S
Co944 N993 2.214 . S
Co945 O946 2.160 . S
Co945 O951 2.058 . S
Co945 O961 2.057 . S
Co945 O976 2.037 . S
Co945 N980 2.145 . S
Co945 N1001 2.257 . S
O946 Co944 2.143 . S
O946 Co945 2.160 . S
C947 O948 1.278 . S
C947 O955 1.224 . S
O948 C947 1.278 . S
C949 O950 1.245 . S
C949 O961 1.232 . S
O950 C949 1.245 . S
O951 Co945 2.058 . S
O951 C977 1.269 . S
O952 Co944 2.074 . S
O952 C977 1.257 . S
H953 C978 0.930 . S
H954 C984 0.930 . S
O955 Co944 2.093 . S
O955 C947 1.224 . S
H956 C988 0.929 . S
H957 C990 0.930 . S
H958 C991 0.930 . S
H959 C989 0.929 . S
H960 C992 0.928 . S
O961 Co945 2.057 . S
O961 C949 1.232 . S
H962 C981 0.929 . S
H963 C982 0.929 . S
H964 C994 0.931 . S
H965 C986 0.929 . S
H966 C995 0.930 . S
H967 C987 0.931 . S
O968 Co944 2.097 . S
O968 C996 1.214 . S
H969 C997 0.929 . S
H970 C998 0.929 . S
H971 C999 0.930 . S
H972 C1000 0.929 . S
H973 C1002 0.930 . S
H974 C979 0.930 . S
H975 C983 0.930 . S
O976 Co945 2.037 . S
O976 C996 1.234 . S
C977 O951 1.269 . S
C977 O952 1.257 . S
C978 H953 0.930 . S
C978 C981 1.388 . S
C978 C983 1.418 . S
C979 H974 0.930 . S
C979 C982 1.404 . S
C979 C983 1.353 . S
N980 Co945 2.145 . S
N980 C981 1.397 . S
N980 C982 1.334 . S
C981 H962 0.929 . S
C981 C978 1.388 . S
C981 N980 1.397 . S
C982 H963 0.929 . S
C982 C979 1.404 . S
C982 N980 1.334 . S
C983 H975 0.930 . S
C983 C978 1.418 . S
C983 C979 1.353 . S
C984 H954 0.930 . S
C984 N985 1.330 . S
C984 C986 1.446 . S
N985 Co944 2.151 . S
N985 C984 1.330 . S
N985 C989 1.418 . S
C986 H965 0.929 . S
C986 C984 1.446 . S
C986 C987 1.332 . S
C987 H967 0.931 . S
C987 C986 1.332 . S
C987 C988 1.267 . S
C988 H956 0.929 . S
C988 C987 1.267 . S
C988 C989 1.251 . S
C989 H959 0.929 . S
C989 N985 1.418 . S
C989 C988 1.251 . S
C990 H957 0.930 . S
C990 C992 1.406 . S
C990 C995 1.261 . S
C991 H958 0.930 . S
C991 N993 1.325 . S
C991 C994 1.357 . S
C992 H960 0.928 . S
C992 C990 1.406 . S
C992 N993 1.261 . S
N993 Co944 2.214 . S
N993 C991 1.325 . S
N993 C992 1.261 . S
C994 H964 0.931 . S
C994 C991 1.357 . S
C994 C995 1.312 . S
C995 H966 0.930 . S
C995 C990 1.261 . S
C995 C994 1.312 . S
C996 O968 1.214 . S
C996 O976 1.234 . S
C997 H969 0.929 . S
C997 C1000 1.391 . S
C997 C1002 1.391 . S
C998 H970 0.929 . S
C998 C999 1.390 . S
C998 N1001 1.391 . S
C999 H971 0.930 . S
C999 C998 1.390 . S
C999 C1000 1.392 . S
C1000 H972 0.929 . S
C1000 C997 1.391 . S
C1000 C999 1.392 . S
N1001 Co945 2.257 . S
N1001 C998 1.391 . S
N1001 C1002 1.388 . S
C1002 H973 0.930 . S
C1002 C997 1.391 . S
C1002 N1001 1.388 . S
Co1003 O1005 2.143 . S
Co1003 O1011 2.074 . S
Co1003 O1014 2.093 . S
Co1003 O1027 2.097 . S
Co1003 N1044 2.151 . S
Co1003 N1052 2.214 . S
Co1004 O1005 2.160 . S
Co1004 O1010 2.058 . S
Co1004 O1020 2.057 . S
Co1004 O1035 2.037 . S
Co1004 N1039 2.145 . S
Co1004 N1060 2.257 . S
O1005 Co1003 2.143 . S
O1005 Co1004 2.160 . S
C1006 O1007 1.278 . S
C1006 O1014 1.224 . S
O1007 C1006 1.278 . S
C1008 O1009 1.245 . S
C1008 O1020 1.232 . S
O1009 C1008 1.245 . S
O1010 Co1004 2.058 . S
O1010 C1036 1.269 . S
O1011 Co1003 2.074 . S
O1011 C1036 1.257 . S
H1012 C1037 0.930 . S
H1013 C1043 0.930 . S
O1014 Co1003 2.093 . S
O1014 C1006 1.224 . S
H1015 C1047 0.929 . S
H1016 C1049 0.930 . S
H1017 C1050 0.930 . S
H1018 C1048 0.929 . S
H1019 C1051 0.928 . S
O1020 Co1004 2.057 . S
O1020 C1008 1.232 . S
H1021 C1040 0.929 . S
H1022 C1041 0.929 . S
H1023 C1053 0.931 . S
H1024 C1045 0.929 . S
H1025 C1054 0.930 . S
H1026 C1046 0.931 . S
O1027 Co1003 2.097 . S
O1027 C1055 1.214 . S
H1028 C1056 0.929 . S
H1029 C1057 0.929 . S
H1030 C1058 0.930 . S
H1031 C1059 0.929 . S
H1032 C1061 0.930 . S
H1033 C1038 0.930 . S
H1034 C1042 0.930 . S
O1035 Co1004 2.037 . S
O1035 C1055 1.234 . S
C1036 O1010 1.269 . S
C1036 O1011 1.257 . S
C1037 H1012 0.930 . S
C1037 C1040 1.388 . S
C1037 C1042 1.418 . S
C1038 H1033 0.930 . S
C1038 C1041 1.404 . S
C1038 C1042 1.353 . S
N1039 Co1004 2.145 . S
N1039 C1040 1.397 . S
N1039 C1041 1.334 . S
C1040 H1021 0.929 . S
C1040 C1037 1.388 . S
C1040 N1039 1.397 . S
C1041 H1022 0.929 . S
C1041 C1038 1.404 . S
C1041 N1039 1.334 . S
C1042 H1034 0.930 . S
C1042 C1037 1.418 . S
C1042 C1038 1.353 . S
C1043 H1013 0.930 . S
C1043 N1044 1.330 . S
C1043 C1045 1.446 . S
N1044 Co1003 2.151 . S
N1044 C1043 1.330 . S
N1044 C1048 1.418 . S
C1045 H1024 0.929 . S
C1045 C1043 1.446 . S
C1045 C1046 1.332 . S
C1046 H1026 0.931 . S
C1046 C1045 1.332 . S
C1046 C1047 1.267 . S
C1047 H1015 0.929 . S
C1047 C1046 1.267 . S
C1047 C1048 1.251 . S
C1048 H1018 0.929 . S
C1048 N1044 1.418 . S
C1048 C1047 1.251 . S
C1049 H1016 0.930 . S
C1049 C1051 1.406 . S
C1049 C1054 1.261 . S
C1050 H1017 0.930 . S
C1050 N1052 1.325 . S
C1050 C1053 1.357 . S
C1051 H1019 0.928 . S
C1051 C1049 1.406 . S
C1051 N1052 1.261 . S
N1052 Co1003 2.214 . S
N1052 C1050 1.325 . S
N1052 C1051 1.261 . S
C1053 H1023 0.931 . S
C1053 C1050 1.357 . S
C1053 C1054 1.312 . S
C1054 H1025 0.930 . S
C1054 C1049 1.261 . S
C1054 C1053 1.312 . S
C1055 O1027 1.214 . S
C1055 O1035 1.234 . S
C1056 H1028 0.929 . S
C1056 C1059 1.391 . S
C1056 C1061 1.391 . S
C1057 H1029 0.929 . S
C1057 C1058 1.390 . S
C1057 N1060 1.391 . S
C1058 H1030 0.930 . S
C1058 C1057 1.390 . S
C1058 C1059 1.392 . S
C1059 H1031 0.929 . S
C1059 C1056 1.391 . S
C1059 C1058 1.392 . S
N1060 Co1004 2.257 . S
N1060 C1057 1.391 . S
N1060 C1061 1.388 . S
C1061 H1032 0.930 . S
C1061 C1056 1.391 . S
C1061 N1060 1.388 . S
Co1062 O1064 2.143 . S
Co1062 O1070 2.074 . S
Co1062 O1073 2.093 . S
Co1062 O1086 2.097 . S
Co1062 N1103 2.151 . S
Co1062 N1111 2.214 . S
Co1063 O1064 2.160 . S
Co1063 O1069 2.058 . S
Co1063 O1079 2.057 . S
Co1063 O1094 2.037 . S
Co1063 N1098 2.145 . S
Co1063 N1119 2.257 . S
O1064 Co1062 2.143 . S
O1064 Co1063 2.160 . S
C1065 O1066 1.278 . S
C1065 O1073 1.224 . S
O1066 C1065 1.278 . S
C1067 O1068 1.245 . S
C1067 O1079 1.232 . S
O1068 C1067 1.245 . S
O1069 Co1063 2.058 . S
O1069 C1095 1.269 . S
O1070 Co1062 2.074 . S
O1070 C1095 1.257 . S
H1071 C1096 0.930 . S
H1072 C1102 0.930 . S
O1073 Co1062 2.093 . S
O1073 C1065 1.224 . S
H1074 C1106 0.929 . S
H1075 C1108 0.930 . S
H1076 C1109 0.930 . S
H1077 C1107 0.929 . S
H1078 C1110 0.928 . S
O1079 Co1063 2.057 . S
O1079 C1067 1.232 . S
H1080 C1099 0.929 . S
H1081 C1100 0.929 . S
H1082 C1112 0.931 . S
H1083 C1104 0.929 . S
H1084 C1113 0.930 . S
H1085 C1105 0.931 . S
O1086 Co1062 2.097 . S
O1086 C1114 1.214 . S
H1087 C1115 0.929 . S
H1088 C1116 0.929 . S
H1089 C1117 0.930 . S
H1090 C1118 0.929 . S
H1091 C1120 0.930 . S
H1092 C1097 0.930 . S
H1093 C1101 0.930 . S
O1094 Co1063 2.037 . S
O1094 C1114 1.234 . S
C1095 O1069 1.269 . S
C1095 O1070 1.257 . S
C1096 H1071 0.930 . S
C1096 C1099 1.388 . S
C1096 C1101 1.418 . S
C1097 H1092 0.930 . S
C1097 C1100 1.404 . S
C1097 C1101 1.353 . S
N1098 Co1063 2.145 . S
N1098 C1099 1.397 . S
N1098 C1100 1.334 . S
C1099 H1080 0.929 . S
C1099 C1096 1.388 . S
C1099 N1098 1.397 . S
C1100 H1081 0.929 . S
C1100 C1097 1.404 . S
C1100 N1098 1.334 . S
C1101 H1093 0.930 . S
C1101 C1096 1.418 . S
C1101 C1097 1.353 . S
C1102 H1072 0.930 . S
C1102 N1103 1.330 . S
C1102 C1104 1.446 . S
N1103 Co1062 2.151 . S
N1103 C1102 1.330 . S
N1103 C1107 1.418 . S
C1104 H1083 0.929 . S
C1104 C1102 1.446 . S
C1104 C1105 1.332 . S
C1105 H1085 0.931 . S
C1105 C1104 1.332 . S
C1105 C1106 1.267 . S
C1106 H1074 0.929 . S
C1106 C1105 1.267 . S
C1106 C1107 1.251 . S
C1107 H1077 0.929 . S
C1107 N1103 1.418 . S
C1107 C1106 1.251 . S
C1108 H1075 0.930 . S
C1108 C1110 1.406 . S
C1108 C1113 1.261 . S
C1109 H1076 0.930 . S
C1109 N1111 1.325 . S
C1109 C1112 1.357 . S
C1110 H1078 0.928 . S
C1110 C1108 1.406 . S
C1110 N1111 1.261 . S
N1111 Co1062 2.214 . S
N1111 C1109 1.325 . S
N1111 C1110 1.261 . S
C1112 H1082 0.931 . S
C1112 C1109 1.357 . S
C1112 C1113 1.312 . S
C1113 H1084 0.930 . S
C1113 C1108 1.261 . S
C1113 C1112 1.312 . S
C1114 O1086 1.214 . S
C1114 O1094 1.234 . S
C1115 H1087 0.929 . S
C1115 C1118 1.391 . S
C1115 C1120 1.391 . S
C1116 H1088 0.929 . S
C1116 C1117 1.390 . S
C1116 N1119 1.391 . S
C1117 H1089 0.930 . S
C1117 C1116 1.390 . S
C1117 C1118 1.392 . S
C1118 H1090 0.929 . S
C1118 C1115 1.391 . S
C1118 C1117 1.392 . S
N1119 Co1063 2.257 . S
N1119 C1116 1.391 . S
N1119 C1120 1.388 . S
C1120 H1091 0.930 . S
C1120 C1115 1.391 . S
C1120 N1119 1.388 . S
Co1121 O1123 2.143 . S
Co1121 O1129 2.074 . S
Co1121 O1132 2.093 . S
Co1121 O1145 2.097 . S
Co1121 N1162 2.151 . S
Co1121 N1170 2.214 . S
Co1122 O1123 2.160 . S
Co1122 O1128 2.058 . S
Co1122 O1138 2.057 . S
Co1122 O1153 2.037 . S
Co1122 N1157 2.145 . S
Co1122 N1178 2.257 . S
O1123 Co1121 2.143 . S
O1123 Co1122 2.160 . S
C1124 O1125 1.278 . S
C1124 O1132 1.224 . S
O1125 C1124 1.278 . S
C1126 O1127 1.245 . S
C1126 O1138 1.232 . S
O1127 C1126 1.245 . S
O1128 Co1122 2.058 . S
O1128 C1154 1.269 . S
O1129 Co1121 2.074 . S
O1129 C1154 1.257 . S
H1130 C1155 0.930 . S
H1131 C1161 0.930 . S
O1132 Co1121 2.093 . S
O1132 C1124 1.224 . S
H1133 C1165 0.929 . S
H1134 C1167 0.930 . S
H1135 C1168 0.930 . S
H1136 C1166 0.929 . S
H1137 C1169 0.928 . S
O1138 Co1122 2.057 . S
O1138 C1126 1.232 . S
H1139 C1158 0.929 . S
H1140 C1159 0.929 . S
H1141 C1171 0.931 . S
H1142 C1163 0.929 . S
H1143 C1172 0.930 . S
H1144 C1164 0.931 . S
O1145 Co1121 2.097 . S
O1145 C1173 1.214 . S
H1146 C1174 0.929 . S
H1147 C1175 0.929 . S
H1148 C1176 0.930 . S
H1149 C1177 0.929 . S
H1150 C1179 0.930 . S
H1151 C1156 0.930 . S
H1152 C1160 0.930 . S
O1153 Co1122 2.037 . S
O1153 C1173 1.234 . S
C1154 O1128 1.269 . S
C1154 O1129 1.257 . S
C1155 H1130 0.930 . S
C1155 C1158 1.388 . S
C1155 C1160 1.418 . S
C1156 H1151 0.930 . S
C1156 C1159 1.404 . S
C1156 C1160 1.353 . S
N1157 Co1122 2.145 . S
N1157 C1158 1.397 . S
N1157 C1159 1.334 . S
C1158 H1139 0.929 . S
C1158 C1155 1.388 . S
C1158 N1157 1.397 . S
C1159 H1140 0.929 . S
C1159 C1156 1.404 . S
C1159 N1157 1.334 . S
C1160 H1152 0.930 . S
C1160 C1155 1.418 . S
C1160 C1156 1.353 . S
C1161 H1131 0.930 . S
C1161 N1162 1.330 . S
C1161 C1163 1.446 . S
N1162 Co1121 2.151 . S
N1162 C1161 1.330 . S
N1162 C1166 1.418 . S
C1163 H1142 0.929 . S
C1163 C1161 1.446 . S
C1163 C1164 1.332 . S
C1164 H1144 0.931 . S
C1164 C1163 1.332 . S
C1164 C1165 1.267 . S
C1165 H1133 0.929 . S
C1165 C1164 1.267 . S
C1165 C1166 1.251 . S
C1166 H1136 0.929 . S
C1166 N1162 1.418 . S
C1166 C1165 1.251 . S
C1167 H1134 0.930 . S
C1167 C1169 1.406 . S
C1167 C1172 1.261 . S
C1168 H1135 0.930 . S
C1168 N1170 1.325 . S
C1168 C1171 1.357 . S
C1169 H1137 0.928 . S
C1169 C1167 1.406 . S
C1169 N1170 1.261 . S
N1170 Co1121 2.214 . S
N1170 C1168 1.325 . S
N1170 C1169 1.261 . S
C1171 H1141 0.931 . S
C1171 C1168 1.357 . S
C1171 C1172 1.312 . S
C1172 H1143 0.930 . S
C1172 C1167 1.261 . S
C1172 C1171 1.312 . S
C1173 O1145 1.214 . S
C1173 O1153 1.234 . S
C1174 H1146 0.929 . S
C1174 C1177 1.391 . S
C1174 C1179 1.391 . S
C1175 H1147 0.929 . S
C1175 C1176 1.390 . S
C1175 N1178 1.391 . S
C1176 H1148 0.930 . S
C1176 C1175 1.390 . S
C1176 C1177 1.392 . S
C1177 H1149 0.929 . S
C1177 C1174 1.391 . S
C1177 C1176 1.392 . S
N1178 Co1122 2.257 . S
N1178 C1175 1.391 . S
N1178 C1179 1.388 . S
C1179 H1150 0.930 . S
C1179 C1174 1.391 . S
C1179 N1178 1.388 . S
Co1180 O1182 2.143 . S
Co1180 O1188 2.074 . S
Co1180 O1191 2.093 . S
Co1180 O1204 2.097 . S
Co1180 N1221 2.151 . S
Co1180 N1229 2.214 . S
Co1181 O1182 2.160 . S
Co1181 O1187 2.058 . S
Co1181 O1197 2.057 . S
Co1181 O1212 2.037 . S
Co1181 N1216 2.145 . S
Co1181 N1237 2.257 . S
O1182 Co1180 2.143 . S
O1182 Co1181 2.160 . S
C1183 O1184 1.278 . S
C1183 O1191 1.224 . S
O1184 C1183 1.278 . S
C1185 O1186 1.245 . S
C1185 O1197 1.232 . S
O1186 C1185 1.245 . S
O1187 Co1181 2.058 . S
O1187 C1213 1.269 . S
O1188 Co1180 2.074 . S
O1188 C1213 1.257 . S
H1189 C1214 0.930 . S
H1190 C1220 0.930 . S
O1191 Co1180 2.093 . S
O1191 C1183 1.224 . S
H1192 C1224 0.929 . S
H1193 C1226 0.930 . S
H1194 C1227 0.930 . S
H1195 C1225 0.929 . S
H1196 C1228 0.928 . S
O1197 Co1181 2.057 . S
O1197 C1185 1.232 . S
H1198 C1217 0.929 . S
H1199 C1218 0.929 . S
H1200 C1230 0.931 . S
H1201 C1222 0.929 . S
H1202 C1231 0.930 . S
H1203 C1223 0.931 . S
O1204 Co1180 2.097 . S
O1204 C1232 1.214 . S
H1205 C1233 0.929 . S
H1206 C1234 0.929 . S
H1207 C1235 0.930 . S
H1208 C1236 0.929 . S
H1209 C1238 0.930 . S
H1210 C1215 0.930 . S
H1211 C1219 0.930 . S
O1212 Co1181 2.037 . S
O1212 C1232 1.234 . S
C1213 O1187 1.269 . S
C1213 O1188 1.257 . S
C1214 H1189 0.930 . S
C1214 C1217 1.388 . S
C1214 C1219 1.418 . S
C1215 H1210 0.930 . S
C1215 C1218 1.404 . S
C1215 C1219 1.353 . S
N1216 Co1181 2.145 . S
N1216 C1217 1.397 . S
N1216 C1218 1.334 . S
C1217 H1198 0.929 . S
C1217 C1214 1.388 . S
C1217 N1216 1.397 . S
C1218 H1199 0.929 . S
C1218 C1215 1.404 . S
C1218 N1216 1.334 . S
C1219 H1211 0.930 . S
C1219 C1214 1.418 . S
C1219 C1215 1.353 . S
C1220 H1190 0.930 . S
C1220 N1221 1.330 . S
C1220 C1222 1.446 . S
N1221 Co1180 2.151 . S
N1221 C1220 1.330 . S
N1221 C1225 1.418 . S
C1222 H1201 0.929 . S
C1222 C1220 1.446 . S
C1222 C1223 1.332 . S
C1223 H1203 0.931 . S
C1223 C1222 1.332 . S
C1223 C1224 1.267 . S
C1224 H1192 0.929 . S
C1224 C1223 1.267 . S
C1224 C1225 1.251 . S
C1225 H1195 0.929 . S
C1225 N1221 1.418 . S
C1225 C1224 1.251 . S
C1226 H1193 0.930 . S
C1226 C1228 1.406 . S
C1226 C1231 1.261 . S
C1227 H1194 0.930 . S
C1227 N1229 1.325 . S
C1227 C1230 1.357 . S
C1228 H1196 0.928 . S
C1228 C1226 1.406 . S
C1228 N1229 1.261 . S
N1229 Co1180 2.214 . S
N1229 C1227 1.325 . S
N1229 C1228 1.261 . S
C1230 H1200 0.931 . S
C1230 C1227 1.357 . S
C1230 C1231 1.312 . S
C1231 H1202 0.930 . S
C1231 C1226 1.261 . S
C1231 C1230 1.312 . S
C1232 O1204 1.214 . S
C1232 O1212 1.234 . S
C1233 H1205 0.929 . S
C1233 C1236 1.391 . S
C1233 C1238 1.391 . S
C1234 H1206 0.929 . S
C1234 C1235 1.390 . S
C1234 N1237 1.391 . S
C1235 H1207 0.930 . S
C1235 C1234 1.390 . S
C1235 C1236 1.392 . S
C1236 H1208 0.929 . S
C1236 C1233 1.391 . S
C1236 C1235 1.392 . S
N1237 Co1181 2.257 . S
N1237 C1234 1.391 . S
N1237 C1238 1.388 . S
C1238 H1209 0.930 . S
C1238 C1233 1.391 . S
C1238 N1237 1.388 . S
Co1239 O1241 2.143 . S
Co1239 O1247 2.074 . S
Co1239 O1250 2.093 . S
Co1239 O1263 2.097 . S
Co1239 N1280 2.151 . S
Co1239 N1288 2.214 . S
Co1240 O1241 2.160 . S
Co1240 O1246 2.058 . S
Co1240 O1256 2.057 . S
Co1240 O1271 2.037 . S
Co1240 N1275 2.145 . S
Co1240 N1296 2.257 . S
O1241 Co1239 2.143 . S
O1241 Co1240 2.160 . S
C1242 O1243 1.278 . S
C1242 O1250 1.224 . S
O1243 C1242 1.278 . S
C1244 O1245 1.245 . S
C1244 O1256 1.232 . S
O1245 C1244 1.245 . S
O1246 Co1240 2.058 . S
O1246 C1272 1.269 . S
O1247 Co1239 2.074 . S
O1247 C1272 1.257 . S
H1248 C1273 0.930 . S
H1249 C1279 0.930 . S
O1250 Co1239 2.093 . S
O1250 C1242 1.224 . S
H1251 C1283 0.929 . S
H1252 C1285 0.930 . S
H1253 C1286 0.930 . S
H1254 C1284 0.929 . S
H1255 C1287 0.928 . S
O1256 Co1240 2.057 . S
O1256 C1244 1.232 . S
H1257 C1276 0.929 . S
H1258 C1277 0.929 . S
H1259 C1289 0.931 . S
H1260 C1281 0.929 . S
H1261 C1290 0.930 . S
H1262 C1282 0.931 . S
O1263 Co1239 2.097 . S
O1263 C1291 1.214 . S
H1264 C1292 0.929 . S
H1265 C1293 0.929 . S
H1266 C1294 0.930 . S
H1267 C1295 0.929 . S
H1268 C1297 0.930 . S
H1269 C1274 0.930 . S
H1270 C1278 0.930 . S
O1271 Co1240 2.037 . S
O1271 C1291 1.234 . S
C1272 O1246 1.269 . S
C1272 O1247 1.257 . S
C1273 H1248 0.930 . S
C1273 C1276 1.388 . S
C1273 C1278 1.418 . S
C1274 H1269 0.930 . S
C1274 C1277 1.404 . S
C1274 C1278 1.353 . S
N1275 Co1240 2.145 . S
N1275 C1276 1.397 . S
N1275 C1277 1.334 . S
C1276 H1257 0.929 . S
C1276 C1273 1.388 . S
C1276 N1275 1.397 . S
C1277 H1258 0.929 . S
C1277 C1274 1.404 . S
C1277 N1275 1.334 . S
C1278 H1270 0.930 . S
C1278 C1273 1.418 . S
C1278 C1274 1.353 . S
C1279 H1249 0.930 . S
C1279 N1280 1.330 . S
C1279 C1281 1.446 . S
N1280 Co1239 2.151 . S
N1280 C1279 1.330 . S
N1280 C1284 1.418 . S
C1281 H1260 0.929 . S
C1281 C1279 1.446 . S
C1281 C1282 1.332 . S
C1282 H1262 0.931 . S
C1282 C1281 1.332 . S
C1282 C1283 1.267 . S
C1283 H1251 0.929 . S
C1283 C1282 1.267 . S
C1283 C1284 1.251 . S
C1284 H1254 0.929 . S
C1284 N1280 1.418 . S
C1284 C1283 1.251 . S
C1285 H1252 0.930 . S
C1285 C1287 1.406 . S
C1285 C1290 1.261 . S
C1286 H1253 0.930 . S
C1286 N1288 1.325 . S
C1286 C1289 1.357 . S
C1287 H1255 0.928 . S
C1287 C1285 1.406 . S
C1287 N1288 1.261 . S
N1288 Co1239 2.214 . S
N1288 C1286 1.325 . S
N1288 C1287 1.261 . S
C1289 H1259 0.931 . S
C1289 C1286 1.357 . S
C1289 C1290 1.312 . S
C1290 H1261 0.930 . S
C1290 C1285 1.261 . S
C1290 C1289 1.312 . S
C1291 O1263 1.214 . S
C1291 O1271 1.234 . S
C1292 H1264 0.929 . S
C1292 C1295 1.391 . S
C1292 C1297 1.391 . S
C1293 H1265 0.929 . S
C1293 C1294 1.390 . S
C1293 N1296 1.391 . S
C1294 H1266 0.930 . S
C1294 C1293 1.390 . S
C1294 C1295 1.392 . S
C1295 H1267 0.929 . S
C1295 C1292 1.391 . S
C1295 C1294 1.392 . S
N1296 Co1240 2.257 . S
N1296 C1293 1.391 . S
N1296 C1297 1.388 . S
C1297 H1268 0.930 . S
C1297 C1292 1.391 . S
C1297 N1296 1.388 . S
Co1298 O1300 2.143 . S
Co1298 O1306 2.074 . S
Co1298 O1309 2.093 . S
Co1298 O1322 2.097 . S
Co1298 N1339 2.151 . S
Co1298 N1347 2.214 . S
Co1299 O1300 2.160 . S
Co1299 O1305 2.058 . S
Co1299 O1315 2.057 . S
Co1299 O1330 2.037 . S
Co1299 N1334 2.145 . S
Co1299 N1355 2.257 . S
O1300 Co1298 2.143 . S
O1300 Co1299 2.160 . S
C1301 O1302 1.278 . S
C1301 O1309 1.224 . S
O1302 C1301 1.278 . S
C1303 O1304 1.245 . S
C1303 O1315 1.232 . S
O1304 C1303 1.245 . S
O1305 Co1299 2.058 . S
O1305 C1331 1.269 . S
O1306 Co1298 2.074 . S
O1306 C1331 1.257 . S
H1307 C1332 0.930 . S
H1308 C1338 0.930 . S
O1309 Co1298 2.093 . S
O1309 C1301 1.224 . S
H1310 C1342 0.929 . S
H1311 C1344 0.930 . S
H1312 C1345 0.930 . S
H1313 C1343 0.929 . S
H1314 C1346 0.928 . S
O1315 Co1299 2.057 . S
O1315 C1303 1.232 . S
H1316 C1335 0.929 . S
H1317 C1336 0.929 . S
H1318 C1348 0.931 . S
H1319 C1340 0.929 . S
H1320 C1349 0.930 . S
H1321 C1341 0.931 . S
O1322 Co1298 2.097 . S
O1322 C1350 1.214 . S
H1323 C1351 0.929 . S
H1324 C1352 0.929 . S
H1325 C1353 0.930 . S
H1326 C1354 0.929 . S
H1327 C1356 0.930 . S
H1328 C1333 0.930 . S
H1329 C1337 0.930 . S
O1330 Co1299 2.037 . S
O1330 C1350 1.234 . S
C1331 O1305 1.269 . S
C1331 O1306 1.257 . S
C1332 H1307 0.930 . S
C1332 C1335 1.388 . S
C1332 C1337 1.418 . S
C1333 H1328 0.930 . S
C1333 C1336 1.404 . S
C1333 C1337 1.353 . S
N1334 Co1299 2.145 . S
N1334 C1335 1.397 . S
N1334 C1336 1.334 . S
C1335 H1316 0.929 . S
C1335 C1332 1.388 . S
C1335 N1334 1.397 . S
C1336 H1317 0.929 . S
C1336 C1333 1.404 . S
C1336 N1334 1.334 . S
C1337 H1329 0.930 . S
C1337 C1332 1.418 . S
C1337 C1333 1.353 . S
C1338 H1308 0.930 . S
C1338 N1339 1.330 . S
C1338 C1340 1.446 . S
N1339 Co1298 2.151 . S
N1339 C1338 1.330 . S
N1339 C1343 1.418 . S
C1340 H1319 0.929 . S
C1340 C1338 1.446 . S
C1340 C1341 1.332 . S
C1341 H1321 0.931 . S
C1341 C1340 1.332 . S
C1341 C1342 1.267 . S
C1342 H1310 0.929 . S
C1342 C1341 1.267 . S
C1342 C1343 1.251 . S
C1343 H1313 0.929 . S
C1343 N1339 1.418 . S
C1343 C1342 1.251 . S
C1344 H1311 0.930 . S
C1344 C1346 1.406 . S
C1344 C1349 1.261 . S
C1345 H1312 0.930 . S
C1345 N1347 1.325 . S
C1345 C1348 1.357 . S
C1346 H1314 0.928 . S
C1346 C1344 1.406 . S
C1346 N1347 1.261 . S
N1347 Co1298 2.214 . S
N1347 C1345 1.325 . S
N1347 C1346 1.261 . S
C1348 H1318 0.931 . S
C1348 C1345 1.357 . S
C1348 C1349 1.312 . S
C1349 H1320 0.930 . S
C1349 C1344 1.261 . S
C1349 C1348 1.312 . S
C1350 O1322 1.214 . S
C1350 O1330 1.234 . S
C1351 H1323 0.929 . S
C1351 C1354 1.391 . S
C1351 C1356 1.391 . S
C1352 H1324 0.929 . S
C1352 C1353 1.390 . S
C1352 N1355 1.391 . S
C1353 H1325 0.930 . S
C1353 C1352 1.390 . S
C1353 C1354 1.392 . S
C1354 H1326 0.929 . S
C1354 C1351 1.391 . S
C1354 C1353 1.392 . S
N1355 Co1299 2.257 . S
N1355 C1352 1.391 . S
N1355 C1356 1.388 . S
C1356 H1327 0.930 . S
C1356 C1351 1.391 . S
C1356 N1355 1.388 . S
Co1357 O1359 2.143 . S
Co1357 O1365 2.074 . S
Co1357 O1368 2.093 . S
Co1357 O1381 2.097 . S
Co1357 N1398 2.151 . S
Co1357 N1406 2.214 . S
Co1358 O1359 2.160 . S
Co1358 O1364 2.058 . S
Co1358 O1374 2.057 . S
Co1358 O1389 2.037 . S
Co1358 N1393 2.145 . S
Co1358 N1414 2.257 . S
O1359 Co1357 2.143 . S
O1359 Co1358 2.160 . S
C1360 O1361 1.278 . S
C1360 O1368 1.224 . S
O1361 C1360 1.278 . S
C1362 O1363 1.245 . S
C1362 O1374 1.232 . S
O1363 C1362 1.245 . S
O1364 Co1358 2.058 . S
O1364 C1390 1.269 . S
O1365 Co1357 2.074 . S
O1365 C1390 1.257 . S
H1366 C1391 0.930 . S
H1367 C1397 0.930 . S
O1368 Co1357 2.093 . S
O1368 C1360 1.224 . S
H1369 C1401 0.929 . S
H1370 C1403 0.930 . S
H1371 C1404 0.930 . S
H1372 C1402 0.929 . S
H1373 C1405 0.928 . S
O1374 Co1358 2.057 . S
O1374 C1362 1.232 . S
H1375 C1394 0.929 . S
H1376 C1395 0.929 . S
H1377 C1407 0.931 . S
H1378 C1399 0.929 . S
H1379 C1408 0.930 . S
H1380 C1400 0.931 . S
O1381 Co1357 2.097 . S
O1381 C1409 1.214 . S
H1382 C1410 0.929 . S
H1383 C1411 0.929 . S
H1384 C1412 0.930 . S
H1385 C1413 0.929 . S
H1386 C1415 0.930 . S
H1387 C1392 0.930 . S
H1388 C1396 0.930 . S
O1389 Co1358 2.037 . S
O1389 C1409 1.234 . S
C1390 O1364 1.269 . S
C1390 O1365 1.257 . S
C1391 H1366 0.930 . S
C1391 C1394 1.388 . S
C1391 C1396 1.418 . S
C1392 H1387 0.930 . S
C1392 C1395 1.404 . S
C1392 C1396 1.353 . S
N1393 Co1358 2.145 . S
N1393 C1394 1.397 . S
N1393 C1395 1.334 . S
C1394 H1375 0.929 . S
C1394 C1391 1.388 . S
C1394 N1393 1.397 . S
C1395 H1376 0.929 . S
C1395 C1392 1.404 . S
C1395 N1393 1.334 . S
C1396 H1388 0.930 . S
C1396 C1391 1.418 . S
C1396 C1392 1.353 . S
C1397 H1367 0.930 . S
C1397 N1398 1.330 . S
C1397 C1399 1.446 . S
N1398 Co1357 2.151 . S
N1398 C1397 1.330 . S
N1398 C1402 1.418 . S
C1399 H1378 0.929 . S
C1399 C1397 1.446 . S
C1399 C1400 1.332 . S
C1400 H1380 0.931 . S
C1400 C1399 1.332 . S
C1400 C1401 1.267 . S
C1401 H1369 0.929 . S
C1401 C1400 1.267 . S
C1401 C1402 1.251 . S
C1402 H1372 0.929 . S
C1402 N1398 1.418 . S
C1402 C1401 1.251 . S
C1403 H1370 0.930 . S
C1403 C1405 1.406 . S
C1403 C1408 1.261 . S
C1404 H1371 0.930 . S
C1404 N1406 1.325 . S
C1404 C1407 1.357 . S
C1405 H1373 0.928 . S
C1405 C1403 1.406 . S
C1405 N1406 1.261 . S
N1406 Co1357 2.214 . S
N1406 C1404 1.325 . S
N1406 C1405 1.261 . S
C1407 H1377 0.931 . S
C1407 C1404 1.357 . S
C1407 C1408 1.312 . S
C1408 H1379 0.930 . S
C1408 C1403 1.261 . S
C1408 C1407 1.312 . S
C1409 O1381 1.214 . S
C1409 O1389 1.234 . S
C1410 H1382 0.929 . S
C1410 C1413 1.391 . S
C1410 C1415 1.391 . S
C1411 H1383 0.929 . S
C1411 C1412 1.390 . S
C1411 N1414 1.391 . S
C1412 H1384 0.930 . S
C1412 C1411 1.390 . S
C1412 C1413 1.392 . S
C1413 H1385 0.929 . S
C1413 C1410 1.391 . S
C1413 C1412 1.392 . S
N1414 Co1358 2.257 . S
N1414 C1411 1.391 . S
N1414 C1415 1.388 . S
C1415 H1386 0.930 . S
C1415 C1410 1.391 . S
C1415 N1414 1.388 . S
C1416 C1417 1.349 . S
C1416 C1418 1.327 . S
C1416 H1441 0.950 . S
C1417 C1416 1.349 . S
C1417 C1433 1.349 . S
C1418 C1416 1.327 . S
C1418 C1437 1.429 . S
C1418 H1442 0.950 . S
C1419 C1436 1.574 . S
C1419 C1438 1.368 . S
C1419 H1443 0.949 . S
H1420 C1424 0.949 . S
C1421 C1422 1.349 . S
C1421 C1423 1.327 . S
C1421 H1444 0.950 . S
C1422 C1421 1.349 . S
C1422 C1434 1.349 . S
C1423 C1421 1.327 . S
C1423 C1439 1.429 . S
C1423 H1445 0.950 . S
C1424 H1420 0.949 . S
C1424 C1432 1.574 . S
C1424 C1440 1.368 . S
H1425 C1433 0.950 . S
H1426 C1431 0.950 . S
H1427 C1432 0.949 . S
H1428 C1434 0.950 . S
H1429 C1435 0.950 . S
H1430 C1436 0.949 . S
C1431 H1426 0.950 . S
C1431 C1433 1.327 . S
C1431 C1437 1.429 . S
C1432 C1424 1.574 . S
C1432 H1427 0.949 . S
C1432 C1438 1.368 . S
C1433 C1417 1.349 . S
C1433 H1425 0.950 . S
C1433 C1431 1.327 . S
C1434 C1422 1.349 . S
C1434 H1428 0.950 . S
C1434 C1435 1.327 . S
C1435 H1429 0.950 . S
C1435 C1434 1.327 . S
C1435 C1439 1.429 . S
C1436 C1419 1.574 . S
C1436 H1430 0.949 . S
C1436 C1440 1.368 . S
C1437 C1418 1.429 . S
C1437 C1431 1.429 . S
C1437 C1438 1.523 . S
C1438 C1419 1.368 . S
C1438 C1432 1.368 . S
C1438 C1437 1.523 . S
C1439 C1423 1.429 . S
C1439 C1435 1.429 . S
C1439 C1440 1.523 . S
C1440 C1424 1.368 . S
C1440 C1436 1.368 . S
C1440 C1439 1.523 . S
H1441 C1416 0.950 . S
H1442 C1418 0.950 . S
H1443 C1419 0.949 . S
H1444 C1421 0.950 . S
H1445 C1423 0.950 . S
C1446 C1447 1.349 . S
C1446 C1448 1.327 . S
C1446 H1471 0.950 . S
C1447 C1446 1.349 . S
C1447 C1463 1.349 . S
C1448 C1446 1.327 . S
C1448 C1467 1.429 . S
C1448 H1472 0.950 . S
C1449 C1466 1.574 . S
C1449 C1468 1.368 . S
C1449 H1473 0.949 . S
H1450 C1454 0.949 . S
C1451 C1452 1.349 . S
C1451 C1453 1.327 . S
C1451 H1474 0.950 . S
C1452 C1451 1.349 . S
C1452 C1464 1.349 . S
C1453 C1451 1.327 . S
C1453 C1469 1.429 . S
C1453 H1475 0.950 . S
C1454 H1450 0.949 . S
C1454 C1462 1.574 . S
C1454 C1470 1.368 . S
H1455 C1463 0.950 . S
H1456 C1461 0.950 . S
H1457 C1462 0.949 . S
H1458 C1464 0.950 . S
H1459 C1465 0.950 . S
H1460 C1466 0.949 . S
C1461 H1456 0.950 . S
C1461 C1463 1.327 . S
C1461 C1467 1.429 . S
C1462 C1454 1.574 . S
C1462 H1457 0.949 . S
C1462 C1468 1.368 . S
C1463 C1447 1.349 . S
C1463 H1455 0.950 . S
C1463 C1461 1.327 . S
C1464 C1452 1.349 . S
C1464 H1458 0.950 . S
C1464 C1465 1.327 . S
C1465 H1459 0.950 . S
C1465 C1464 1.327 . S
C1465 C1469 1.429 . S
C1466 C1449 1.574 . S
C1466 H1460 0.949 . S
C1466 C1470 1.368 . S
C1467 C1448 1.429 . S
C1467 C1461 1.429 . S
C1467 C1468 1.523 . S
C1468 C1449 1.368 . S
C1468 C1462 1.368 . S
C1468 C1467 1.523 . S
C1469 C1453 1.429 . S
C1469 C1465 1.429 . S
C1469 C1470 1.523 . S
C1470 C1454 1.368 . S
C1470 C1466 1.368 . S
C1470 C1469 1.523 . S
H1471 C1446 0.950 . S
H1472 C1448 0.950 . S
H1473 C1449 0.949 . S
H1474 C1451 0.950 . S
H1475 C1453 0.950 . S
C1476 C1477 1.349 . S
C1476 C1478 1.327 . S
C1476 H1501 0.950 . S
C1477 C1476 1.349 . S
C1477 C1493 1.349 . S
C1478 C1476 1.327 . S
C1478 C1497 1.429 . S
C1478 H1502 0.950 . S
C1479 C1496 1.574 . S
C1479 C1498 1.368 . S
C1479 H1503 0.949 . S
H1480 C1484 0.949 . S
C1481 C1482 1.349 . S
C1481 C1483 1.327 . S
C1481 H1504 0.950 . S
C1482 C1481 1.349 . S
C1482 C1494 1.349 . S
C1483 C1481 1.327 . S
C1483 C1499 1.429 . S
C1483 H1505 0.950 . S
C1484 H1480 0.949 . S
C1484 C1492 1.574 . S
C1484 C1500 1.368 . S
H1485 C1493 0.950 . S
H1486 C1491 0.950 . S
H1487 C1492 0.949 . S
H1488 C1494 0.950 . S
H1489 C1495 0.950 . S
H1490 C1496 0.949 . S
C1491 H1486 0.950 . S
C1491 C1493 1.327 . S
C1491 C1497 1.429 . S
C1492 C1484 1.574 . S
C1492 H1487 0.949 . S
C1492 C1498 1.368 . S
C1493 C1477 1.349 . S
C1493 H1485 0.950 . S
C1493 C1491 1.327 . S
C1494 C1482 1.349 . S
C1494 H1488 0.950 . S
C1494 C1495 1.327 . S
C1495 H1489 0.950 . S
C1495 C1494 1.327 . S
C1495 C1499 1.429 . S
C1496 C1479 1.574 . S
C1496 H1490 0.949 . S
C1496 C1500 1.368 . S
C1497 C1478 1.429 . S
C1497 C1491 1.429 . S
C1497 C1498 1.523 . S
C1498 C1479 1.368 . S
C1498 C1492 1.368 . S
C1498 C1497 1.523 . S
C1499 C1483 1.429 . S
C1499 C1495 1.429 . S
C1499 C1500 1.523 . S
C1500 C1484 1.368 . S
C1500 C1496 1.368 . S
C1500 C1499 1.523 . S
H1501 C1476 0.950 . S
H1502 C1478 0.950 . S
H1503 C1479 0.949 . S
H1504 C1481 0.950 . S
H1505 C1483 0.950 . S
C1506 C1507 1.349 . S
C1506 C1508 1.327 . S
C1506 H1531 0.950 . S
C1507 C1506 1.349 . S
C1507 C1523 1.349 . S
C1508 C1506 1.327 . S
C1508 C1527 1.429 . S
C1508 H1532 0.950 . S
C1509 C1526 1.574 . S
C1509 C1528 1.368 . S
C1509 H1533 0.949 . S
H1510 C1514 0.949 . S
C1511 C1512 1.349 . S
C1511 C1513 1.327 . S
C1511 H1534 0.950 . S
C1512 C1511 1.349 . S
C1512 C1524 1.349 . S
C1513 C1511 1.327 . S
C1513 C1529 1.429 . S
C1513 H1535 0.950 . S
C1514 H1510 0.949 . S
C1514 C1522 1.574 . S
C1514 C1530 1.368 . S
H1515 C1523 0.950 . S
H1516 C1521 0.950 . S
H1517 C1522 0.949 . S
H1518 C1524 0.950 . S
H1519 C1525 0.950 . S
H1520 C1526 0.949 . S
C1521 H1516 0.950 . S
C1521 C1523 1.327 . S
C1521 C1527 1.429 . S
C1522 C1514 1.574 . S
C1522 H1517 0.949 . S
C1522 C1528 1.368 . S
C1523 C1507 1.349 . S
C1523 H1515 0.950 . S
C1523 C1521 1.327 . S
C1524 C1512 1.349 . S
C1524 H1518 0.950 . S
C1524 C1525 1.327 . S
C1525 H1519 0.950 . S
C1525 C1524 1.327 . S
C1525 C1529 1.429 . S
C1526 C1509 1.574 . S
C1526 H1520 0.949 . S
C1526 C1530 1.368 . S
C1527 C1508 1.429 . S
C1527 C1521 1.429 . S
C1527 C1528 1.523 . S
C1528 C1509 1.368 . S
C1528 C1522 1.368 . S
C1528 C1527 1.523 . S
C1529 C1513 1.429 . S
C1529 C1525 1.429 . S
C1529 C1530 1.523 . S
C1530 C1514 1.368 . S
C1530 C1526 1.368 . S
C1530 C1529 1.523 . S
H1531 C1506 0.950 . S
H1532 C1508 0.950 . S
H1533 C1509 0.949 . S
H1534 C1511 0.950 . S
H1535 C1513 0.950 . S
C1536 C1537 1.349 . S
C1536 C1538 1.327 . S
C1536 H1561 0.950 . S
C1537 C1536 1.349 . S
C1537 C1553 1.349 . S
C1538 C1536 1.327 . S
C1538 C1557 1.429 . S
C1538 H1562 0.950 . S
C1539 C1556 1.574 . S
C1539 C1558 1.368 . S
C1539 H1563 0.949 . S
H1540 C1544 0.949 . S
C1541 C1542 1.349 . S
C1541 C1543 1.327 . S
C1541 H1564 0.950 . S
C1542 C1541 1.349 . S
C1542 C1554 1.349 . S
C1543 C1541 1.327 . S
C1543 C1559 1.429 . S
C1543 H1565 0.950 . S
C1544 H1540 0.949 . S
C1544 C1552 1.574 . S
C1544 C1560 1.368 . S
H1545 C1553 0.950 . S
H1546 C1551 0.950 . S
H1547 C1552 0.949 . S
H1548 C1554 0.950 . S
H1549 C1555 0.950 . S
H1550 C1556 0.949 . S
C1551 H1546 0.950 . S
C1551 C1553 1.327 . S
C1551 C1557 1.429 . S
C1552 C1544 1.574 . S
C1552 H1547 0.949 . S
C1552 C1558 1.368 . S
C1553 C1537 1.349 . S
C1553 H1545 0.950 . S
C1553 C1551 1.327 . S
C1554 C1542 1.349 . S
C1554 H1548 0.950 . S
C1554 C1555 1.327 . S
C1555 H1549 0.950 . S
C1555 C1554 1.327 . S
C1555 C1559 1.429 . S
C1556 C1539 1.574 . S
C1556 H1550 0.949 . S
C1556 C1560 1.368 . S
C1557 C1538 1.429 . S
C1557 C1551 1.429 . S
C1557 C1558 1.523 . S
C1558 C1539 1.368 . S
C1558 C1552 1.368 . S
C1558 C1557 1.523 . S
C1559 C1543 1.429 . S
C1559 C1555 1.429 . S
C1559 C1560 1.523 . S
C1560 C1544 1.368 . S
C1560 C1556 1.368 . S
C1560 C1559 1.523 . S
H1561 C1536 0.950 . S
H1562 C1538 0.950 . S
H1563 C1539 0.949 . S
H1564 C1541 0.950 . S
H1565 C1543 0.950 . S
C1566 C1567 1.349 . S
C1566 C1568 1.327 . S
C1566 H1591 0.950 . S
C1567 C1566 1.349 . S
C1567 C1583 1.349 . S
C1568 C1566 1.327 . S
C1568 C1587 1.429 . S
C1568 H1592 0.950 . S
C1569 C1586 1.574 . S
C1569 C1588 1.368 . S
C1569 H1593 0.949 . S
H1570 C1574 0.949 . S
C1571 C1572 1.349 . S
C1571 C1573 1.327 . S
C1571 H1594 0.950 . S
C1572 C1571 1.349 . S
C1572 C1584 1.349 . S
C1573 C1571 1.327 . S
C1573 C1589 1.429 . S
C1573 H1595 0.950 . S
C1574 H1570 0.949 . S
C1574 C1582 1.574 . S
C1574 C1590 1.368 . S
H1575 C1583 0.950 . S
H1576 C1581 0.950 . S
H1577 C1582 0.949 . S
H1578 C1584 0.950 . S
H1579 C1585 0.950 . S
H1580 C1586 0.949 . S
C1581 H1576 0.950 . S
C1581 C1583 1.327 . S
C1581 C1587 1.429 . S
C1582 C1574 1.574 . S
C1582 H1577 0.949 . S
C1582 C1588 1.368 . S
C1583 C1567 1.349 . S
C1583 H1575 0.950 . S
C1583 C1581 1.327 . S
C1584 C1572 1.349 . S
C1584 H1578 0.950 . S
C1584 C1585 1.327 . S
C1585 H1579 0.950 . S
C1585 C1584 1.327 . S
C1585 C1589 1.429 . S
C1586 C1569 1.574 . S
C1586 H1580 0.949 . S
C1586 C1590 1.368 . S
C1587 C1568 1.429 . S
C1587 C1581 1.429 . S
C1587 C1588 1.523 . S
C1588 C1569 1.368 . S
C1588 C1582 1.368 . S
C1588 C1587 1.523 . S
C1589 C1573 1.429 . S
C1589 C1585 1.429 . S
C1589 C1590 1.523 . S
C1590 C1574 1.368 . S
C1590 C1586 1.368 . S
C1590 C1589 1.523 . S
H1591 C1566 0.950 . S
H1592 C1568 0.950 . S
H1593 C1569 0.949 . S
H1594 C1571 0.950 . S
H1595 C1573 0.950 . S
C1596 C1597 1.349 . S
C1596 C1598 1.327 . S
C1596 H1621 0.950 . S
C1597 C1596 1.349 . S
C1597 C1613 1.349 . S
C1598 C1596 1.327 . S
C1598 C1617 1.429 . S
C1598 H1622 0.950 . S
C1599 C1616 1.574 . S
C1599 C1618 1.368 . S
C1599 H1623 0.949 . S
H1600 C1604 0.949 . S
C1601 C1602 1.349 . S
C1601 C1603 1.327 . S
C1601 H1624 0.950 . S
C1602 C1601 1.349 . S
C1602 C1614 1.349 . S
C1603 C1601 1.327 . S
C1603 C1619 1.429 . S
C1603 H1625 0.950 . S
C1604 H1600 0.949 . S
C1604 C1612 1.574 . S
C1604 C1620 1.368 . S
H1605 C1613 0.950 . S
H1606 C1611 0.950 . S
H1607 C1612 0.949 . S
H1608 C1614 0.950 . S
H1609 C1615 0.950 . S
H1610 C1616 0.949 . S
C1611 H1606 0.950 . S
C1611 C1613 1.327 . S
C1611 C1617 1.429 . S
C1612 C1604 1.574 . S
C1612 H1607 0.949 . S
C1612 C1618 1.368 . S
C1613 C1597 1.349 . S
C1613 H1605 0.950 . S
C1613 C1611 1.327 . S
C1614 C1602 1.349 . S
C1614 H1608 0.950 . S
C1614 C1615 1.327 . S
C1615 H1609 0.950 . S
C1615 C1614 1.327 . S
C1615 C1619 1.429 . S
C1616 C1599 1.574 . S
C1616 H1610 0.949 . S
C1616 C1620 1.368 . S
C1617 C1598 1.429 . S
C1617 C1611 1.429 . S
C1617 C1618 1.523 . S
C1618 C1599 1.368 . S
C1618 C1612 1.368 . S
C1618 C1617 1.523 . S
C1619 C1603 1.429 . S
C1619 C1615 1.429 . S
C1619 C1620 1.523 . S
C1620 C1604 1.368 . S
C1620 C1616 1.368 . S
C1620 C1619 1.523 . S
H1621 C1596 0.950 . S
H1622 C1598 0.950 . S
H1623 C1599 0.949 . S
H1624 C1601 0.950 . S
H1625 C1603 0.950 . S
C1626 C1627 1.349 . S
C1626 C1628 1.327 . S
C1626 H1651 0.950 . S
C1627 C1626 1.349 . S
C1627 C1643 1.349 . S
C1628 C1626 1.327 . S
C1628 C1647 1.429 . S
C1628 H1652 0.950 . S
C1629 C1646 1.574 . S
C1629 C1648 1.368 . S
C1629 H1653 0.949 . S
H1630 C1634 0.949 . S
C1631 C1632 1.349 . S
C1631 C1633 1.327 . S
C1631 H1654 0.950 . S
C1632 C1631 1.349 . S
C1632 C1644 1.349 . S
C1633 C1631 1.327 . S
C1633 C1649 1.429 . S
C1633 H1655 0.950 . S
C1634 H1630 0.949 . S
C1634 C1642 1.574 . S
C1634 C1650 1.368 . S
H1635 C1643 0.950 . S
H1636 C1641 0.950 . S
H1637 C1642 0.949 . S
H1638 C1644 0.950 . S
H1639 C1645 0.950 . S
H1640 C1646 0.949 . S
C1641 H1636 0.950 . S
C1641 C1643 1.327 . S
C1641 C1647 1.429 . S
C1642 C1634 1.574 . S
C1642 H1637 0.949 . S
C1642 C1648 1.368 . S
C1643 C1627 1.349 . S
C1643 H1635 0.950 . S
C1643 C1641 1.327 . S
C1644 C1632 1.349 . S
C1644 H1638 0.950 . S
C1644 C1645 1.327 . S
C1645 H1639 0.950 . S
C1645 C1644 1.327 . S
C1645 C1649 1.429 . S
C1646 C1629 1.574 . S
C1646 H1640 0.949 . S
C1646 C1650 1.368 . S
C1647 C1628 1.429 . S
C1647 C1641 1.429 . S
C1647 C1648 1.523 . S
C1648 C1629 1.368 . S
C1648 C1642 1.368 . S
C1648 C1647 1.523 . S
C1649 C1633 1.429 . S
C1649 C1645 1.429 . S
C1649 C1650 1.523 . S
C1650 C1634 1.368 . S
C1650 C1646 1.368 . S
C1650 C1649 1.523 . S
H1651 C1626 0.950 . S
H1652 C1628 0.950 . S
H1653 C1629 0.949 . S
H1654 C1631 0.950 . S
H1655 C1633 0.950 . S
C1656 C1657 1.349 . S
C1656 C1658 1.327 . S
C1656 H1681 0.950 . S
C1657 C1656 1.349 . S
C1657 C1673 1.349 . S
C1658 C1656 1.327 . S
C1658 C1677 1.429 . S
C1658 H1682 0.950 . S
C1659 C1676 1.574 . S
C1659 C1678 1.368 . S
C1659 H1683 0.949 . S
H1660 C1664 0.949 . S
C1661 C1662 1.349 . S
C1661 C1663 1.327 . S
C1661 H1684 0.950 . S
C1662 C1661 1.349 . S
C1662 C1674 1.349 . S
C1663 C1661 1.327 . S
C1663 C1679 1.429 . S
C1663 H1685 0.950 . S
C1664 H1660 0.949 . S
C1664 C1672 1.574 . S
C1664 C1680 1.368 . S
H1665 C1673 0.950 . S
H1666 C1671 0.950 . S
H1667 C1672 0.949 . S
H1668 C1674 0.950 . S
H1669 C1675 0.950 . S
H1670 C1676 0.949 . S
C1671 H1666 0.950 . S
C1671 C1673 1.327 . S
C1671 C1677 1.429 . S
C1672 C1664 1.574 . S
C1672 H1667 0.949 . S
C1672 C1678 1.368 . S
C1673 C1657 1.349 . S
C1673 H1665 0.950 . S
C1673 C1671 1.327 . S
C1674 C1662 1.349 . S
C1674 H1668 0.950 . S
C1674 C1675 1.327 . S
C1675 H1669 0.950 . S
C1675 C1674 1.327 . S
C1675 C1679 1.429 . S
C1676 C1659 1.574 . S
C1676 H1670 0.949 . S
C1676 C1680 1.368 . S
C1677 C1658 1.429 . S
C1677 C1671 1.429 . S
C1677 C1678 1.523 . S
C1678 C1659 1.368 . S
C1678 C1672 1.368 . S
C1678 C1677 1.523 . S
C1679 C1663 1.429 . S
C1679 C1675 1.429 . S
C1679 C1680 1.523 . S
C1680 C1664 1.368 . S
C1680 C1676 1.368 . S
C1680 C1679 1.523 . S
H1681 C1656 0.950 . S
H1682 C1658 0.950 . S
H1683 C1659 0.949 . S
H1684 C1661 0.950 . S
H1685 C1663 0.950 . S
C1686 C1687 1.349 . S
C1686 C1688 1.327 . S
C1686 H1711 0.950 . S
C1687 C1686 1.349 . S
C1687 C1703 1.349 . S
C1688 C1686 1.327 . S
C1688 C1707 1.429 . S
C1688 H1712 0.950 . S
C1689 C1706 1.574 . S
C1689 C1708 1.368 . S
C1689 H1713 0.949 . S
H1690 C1694 0.949 . S
C1691 C1692 1.349 . S
C1691 C1693 1.327 . S
C1691 H1714 0.950 . S
C1692 C1691 1.349 . S
C1692 C1704 1.349 . S
C1693 C1691 1.327 . S
C1693 C1709 1.429 . S
C1693 H1715 0.950 . S
C1694 H1690 0.949 . S
C1694 C1702 1.574 . S
C1694 C1710 1.368 . S
H1695 C1703 0.950 . S
H1696 C1701 0.950 . S
H1697 C1702 0.949 . S
H1698 C1704 0.950 . S
H1699 C1705 0.950 . S
H1700 C1706 0.949 . S
C1701 H1696 0.950 . S
C1701 C1703 1.327 . S
C1701 C1707 1.429 . S
C1702 C1694 1.574 . S
C1702 H1697 0.949 . S
C1702 C1708 1.368 . S
C1703 C1687 1.349 . S
C1703 H1695 0.950 . S
C1703 C1701 1.327 . S
C1704 C1692 1.349 . S
C1704 H1698 0.950 . S
C1704 C1705 1.327 . S
C1705 H1699 0.950 . S
C1705 C1704 1.327 . S
C1705 C1709 1.429 . S
C1706 C1689 1.574 . S
C1706 H1700 0.949 . S
C1706 C1710 1.368 . S
C1707 C1688 1.429 . S
C1707 C1701 1.429 . S
C1707 C1708 1.523 . S
C1708 C1689 1.368 . S
C1708 C1702 1.368 . S
C1708 C1707 1.523 . S
C1709 C1693 1.429 . S
C1709 C1705 1.429 . S
C1709 C1710 1.523 . S
C1710 C1694 1.368 . S
C1710 C1706 1.368 . S
C1710 C1709 1.523 . S
H1711 C1686 0.950 . S
H1712 C1688 0.950 . S
H1713 C1689 0.949 . S
H1714 C1691 0.950 . S
H1715 C1693 0.950 . S
C1716 C1717 1.349 . S
C1716 C1718 1.327 . S
C1716 H1741 0.950 . S
C1717 C1716 1.349 . S
C1717 C1733 1.349 . S
C1718 C1716 1.327 . S
C1718 C1737 1.429 . S
C1718 H1742 0.950 . S
C1719 C1736 1.574 . S
C1719 C1738 1.368 . S
C1719 H1743 0.949 . S
H1720 C1724 0.949 . S
C1721 C1722 1.349 . S
C1721 C1723 1.327 . S
C1721 H1744 0.950 . S
C1722 C1721 1.349 . S
C1722 C1734 1.349 . S
C1723 C1721 1.327 . S
C1723 C1739 1.429 . S
C1723 H1745 0.950 . S
C1724 H1720 0.949 . S
C1724 C1732 1.574 . S
C1724 C1740 1.368 . S
H1725 C1733 0.950 . S
H1726 C1731 0.950 . S
H1727 C1732 0.949 . S
H1728 C1734 0.950 . S
H1729 C1735 0.950 . S
H1730 C1736 0.949 . S
C1731 H1726 0.950 . S
C1731 C1733 1.327 . S
C1731 C1737 1.429 . S
C1732 C1724 1.574 . S
C1732 H1727 0.949 . S
C1732 C1738 1.368 . S
C1733 C1717 1.349 . S
C1733 H1725 0.950 . S
C1733 C1731 1.327 . S
C1734 C1722 1.349 . S
C1734 H1728 0.950 . S
C1734 C1735 1.327 . S
C1735 H1729 0.950 . S
C1735 C1734 1.327 . S
C1735 C1739 1.429 . S
C1736 C1719 1.574 . S
C1736 H1730 0.949 . S
C1736 C1740 1.368 . S
C1737 C1718 1.429 . S
C1737 C1731 1.429 . S
C1737 C1738 1.523 . S
C1738 C1719 1.368 . S
C1738 C1732 1.368 . S
C1738 C1737 1.523 . S
C1739 C1723 1.429 . S
C1739 C1735 1.429 . S
C1739 C1740 1.523 . S
C1740 C1724 1.368 . S
C1740 C1736 1.368 . S
C1740 C1739 1.523 . S
H1741 C1716 0.950 . S
H1742 C1718 0.950 . S
H1743 C1719 0.949 . S
H1744 C1721 0.950 . S
H1745 C1723 0.950 . S
C1746 C1747 1.349 . S
C1746 C1748 1.327 . S
C1746 H1771 0.950 . S
C1747 C1746 1.349 . S
C1747 C1763 1.349 . S
C1748 C1746 1.327 . S
C1748 C1767 1.429 . S
C1748 H1772 0.950 . S
C1749 C1766 1.574 . S
C1749 C1768 1.368 . S
C1749 H1773 0.949 . S
H1750 C1754 0.949 . S
C1751 C1752 1.349 . S
C1751 C1753 1.327 . S
C1751 H1774 0.950 . S
C1752 C1751 1.349 . S
C1752 C1764 1.349 . S
C1753 C1751 1.327 . S
C1753 C1769 1.429 . S
C1753 H1775 0.950 . S
C1754 H1750 0.949 . S
C1754 C1762 1.574 . S
C1754 C1770 1.368 . S
H1755 C1763 0.950 . S
H1756 C1761 0.950 . S
H1757 C1762 0.949 . S
H1758 C1764 0.950 . S
H1759 C1765 0.950 . S
H1760 C1766 0.949 . S
C1761 H1756 0.950 . S
C1761 C1763 1.327 . S
C1761 C1767 1.429 . S
C1762 C1754 1.574 . S
C1762 H1757 0.949 . S
C1762 C1768 1.368 . S
C1763 C1747 1.349 . S
C1763 H1755 0.950 . S
C1763 C1761 1.327 . S
C1764 C1752 1.349 . S
C1764 H1758 0.950 . S
C1764 C1765 1.327 . S
C1765 H1759 0.950 . S
C1765 C1764 1.327 . S
C1765 C1769 1.429 . S
C1766 C1749 1.574 . S
C1766 H1760 0.949 . S
C1766 C1770 1.368 . S
C1767 C1748 1.429 . S
C1767 C1761 1.429 . S
C1767 C1768 1.523 . S
C1768 C1749 1.368 . S
C1768 C1762 1.368 . S
C1768 C1767 1.523 . S
C1769 C1753 1.429 . S
C1769 C1765 1.429 . S
C1769 C1770 1.523 . S
C1770 C1754 1.368 . S
C1770 C1766 1.368 . S
C1770 C1769 1.523 . S
H1771 C1746 0.950 . S
H1772 C1748 0.950 . S
H1773 C1749 0.949 . S
H1774 C1751 0.950 . S
H1775 C1753 0.950 . S
C1776 C1777 1.349 . S
C1776 C1778 1.327 . S
C1776 H1801 0.950 . S
C1777 C1776 1.349 . S
C1777 C1793 1.349 . S
C1778 C1776 1.327 . S
C1778 C1797 1.429 . S
C1778 H1802 0.950 . S
C1779 C1796 1.574 1_565 S
C1779 C1798 1.368 . S
C1779 H1803 0.949 . S
H1780 C1784 0.949 . S
C1781 C1782 1.349 . S
C1781 C1783 1.327 . S
C1781 H1804 0.950 . S
C1782 C1781 1.349 . S
C1782 C1794 1.349 . S
C1783 C1781 1.327 . S
C1783 C1799 1.429 . S
C1783 H1805 0.950 . S
C1784 H1780 0.949 . S
C1784 C1792 1.574 1_545 S
C1784 C1800 1.368 . S
H1785 C1793 0.950 . S
H1786 C1791 0.950 . S
H1787 C1792 0.949 . S
H1788 C1794 0.950 . S
H1789 C1795 0.950 . S
H1790 C1796 0.949 . S
C1791 H1786 0.950 . S
C1791 C1793 1.327 . S
C1791 C1797 1.429 . S
C1792 C1784 1.574 1_565 S
C1792 H1787 0.949 . S
C1792 C1798 1.368 . S
C1793 C1777 1.349 . S
C1793 H1785 0.950 . S
C1793 C1791 1.327 . S
C1794 C1782 1.349 . S
C1794 H1788 0.950 . S
C1794 C1795 1.327 . S
C1795 H1789 0.950 . S
C1795 C1794 1.327 . S
C1795 C1799 1.429 . S
C1796 C1779 1.574 1_545 S
C1796 H1790 0.949 . S
C1796 C1800 1.368 . S
C1797 C1778 1.429 . S
C1797 C1791 1.429 . S
C1797 C1798 1.523 . S
C1798 C1779 1.368 . S
C1798 C1792 1.368 . S
C1798 C1797 1.523 . S
C1799 C1783 1.429 . S
C1799 C1795 1.429 . S
C1799 C1800 1.523 . S
C1800 C1784 1.368 . S
C1800 C1796 1.368 . S
C1800 C1799 1.523 . S
H1801 C1776 0.950 . S
H1802 C1778 0.950 . S
H1803 C1779 0.949 . S
H1804 C1781 0.950 . S
H1805 C1783 0.950 . S
C1806 C1807 1.349 . S
C1806 C1808 1.327 . S
C1806 H1831 0.950 . S
C1807 C1806 1.349 . S
C1807 C1823 1.349 . S
C1808 C1806 1.327 . S
C1808 C1827 1.429 . S
C1808 H1832 0.950 . S
C1809 C1826 1.574 . S
C1809 C1828 1.368 1_455 S
C1809 H1833 0.949 . S
H1810 C1814 0.949 . S
C1811 C1812 1.349 . S
C1811 C1813 1.327 . S
C1811 H1834 0.950 . S
C1812 C1811 1.349 . S
C1812 C1824 1.349 . S
C1813 C1811 1.327 . S
C1813 C1829 1.429 . S
C1813 H1835 0.950 . S
C1814 H1810 0.949 . S
C1814 C1822 1.574 . S
C1814 C1830 1.368 1_655 S
H1815 C1823 0.950 . S
H1816 C1821 0.950 . S
H1817 C1822 0.949 . S
H1818 C1824 0.950 . S
H1819 C1825 0.950 . S
H1820 C1826 0.949 . S
C1821 H1816 0.950 . S
C1821 C1823 1.327 . S
C1821 C1827 1.429 . S
C1822 C1814 1.574 . S
C1822 H1817 0.949 . S
C1822 C1828 1.368 . S
C1823 C1807 1.349 . S
C1823 H1815 0.950 . S
C1823 C1821 1.327 . S
C1824 C1812 1.349 . S
C1824 H1818 0.950 . S
C1824 C1825 1.327 . S
C1825 H1819 0.950 . S
C1825 C1824 1.327 . S
C1825 C1829 1.429 . S
C1826 C1809 1.574 . S
C1826 H1820 0.949 . S
C1826 C1830 1.368 . S
C1827 C1808 1.429 . S
C1827 C1821 1.429 . S
C1827 C1828 1.523 . S
C1828 C1809 1.368 1_655 S
C1828 C1822 1.368 . S
C1828 C1827 1.523 . S
C1829 C1813 1.429 . S
C1829 C1825 1.429 . S
C1829 C1830 1.523 . S
C1830 C1814 1.368 1_455 S
C1830 C1826 1.368 . S
C1830 C1829 1.523 . S
H1831 C1806 0.950 . S
H1832 C1808 0.950 . S
H1833 C1809 0.949 . S
H1834 C1811 0.950 . S
H1835 C1813 0.950 . S
C1836 C1837 1.349 . S
C1836 C1838 1.327 . S
C1836 H1861 0.950 . S
C1837 C1836 1.349 . S
C1837 C1853 1.349 . S
C1838 C1836 1.327 . S
C1838 C1857 1.429 . S
C1838 H1862 0.950 . S
C1839 C1856 1.584 . S
C1839 C1858 1.358 1_565 S
C1839 H1863 0.949 1_565 S
H1840 C1844 0.949 . S
C1841 C1842 1.349 . S
C1841 C1843 1.327 . S
C1841 H1864 0.950 . S
C1842 C1841 1.349 . S
C1842 C1854 1.349 . S
C1843 C1841 1.327 . S
C1843 C1859 1.429 . S
C1843 H1865 0.950 . S
C1844 H1840 0.949 . S
C1844 C1852 1.568 1_565 S
C1844 C1860 1.374 . S
H1845 C1853 0.950 . S
H1846 C1851 0.950 . S
H1847 C1852 0.949 . S
H1848 C1854 0.950 . S
H1849 C1855 0.950 . S
H1850 C1856 0.949 . S
C1851 H1846 0.950 . S
C1851 C1853 1.327 . S
C1851 C1857 1.429 . S
C1852 C1844 1.568 1_545 S
C1852 H1847 0.949 . S
C1852 C1858 1.368 . S
C1853 C1837 1.349 . S
C1853 H1845 0.950 . S
C1853 C1851 1.327 . S
C1854 C1842 1.349 . S
C1854 H1848 0.950 . S
C1854 C1855 1.327 . S
C1855 H1849 0.950 . S
C1855 C1854 1.327 . S
C1855 C1859 1.429 . S
C1856 C1839 1.584 . S
C1856 H1850 0.949 . S
C1856 C1860 1.368 . S
C1857 C1838 1.429 . S
C1857 C1851 1.429 . S
C1857 C1858 1.523 . S
C1858 C1839 1.358 1_545 S
C1858 C1852 1.368 . S
C1858 C1857 1.523 . S
C1859 C1843 1.429 . S
C1859 C1855 1.429 . S
C1859 C1860 1.523 . S
C1860 C1844 1.374 . S
C1860 C1856 1.368 . S
C1860 C1859 1.523 . S
H1861 C1836 0.950 . S
H1862 C1838 0.950 . S
H1863 C1839 0.949 1_545 S
H1864 C1841 0.950 . S
H1865 C1843 0.950 . S
C1866 C1867 1.349 . S
C1866 C1868 1.327 . S
C1866 H1891 0.950 . S
C1867 C1866 1.349 . S
C1867 C1883 1.349 . S
C1868 C1866 1.327 . S
C1868 C1887 1.429 . S
C1868 H1892 0.950 . S
C1869 C1886 1.574 1_455 S
C1869 C1888 1.368 . S
C1869 H1893 0.949 . S
H1870 C1874 0.949 . S
C1871 C1872 1.349 . S
C1871 C1873 1.327 . S
C1871 H1894 0.950 . S
C1872 C1871 1.349 . S
C1872 C1884 1.349 . S
C1873 C1871 1.327 . S
C1873 C1889 1.429 . S
C1873 H1895 0.950 . S
C1874 H1870 0.949 . S
C1874 C1882 1.574 1_655 S
C1874 C1890 1.368 . S
H1875 C1883 0.950 . S
H1876 C1881 0.950 . S
H1877 C1882 0.949 . S
H1878 C1884 0.950 . S
H1879 C1885 0.950 . S
H1880 C1886 0.949 . S
C1881 H1876 0.950 . S
C1881 C1883 1.327 . S
C1881 C1887 1.429 . S
C1882 C1874 1.574 1_455 S
C1882 H1877 0.949 . S
C1882 C1888 1.368 . S
C1883 C1867 1.349 . S
C1883 H1875 0.950 . S
C1883 C1881 1.327 . S
C1884 C1872 1.349 . S
C1884 H1878 0.950 . S
C1884 C1885 1.327 . S
C1885 H1879 0.950 . S
C1885 C1884 1.327 . S
C1885 C1889 1.429 . S
C1886 C1869 1.574 1_655 S
C1886 H1880 0.949 . S
C1886 C1890 1.368 . S
C1887 C1868 1.429 . S
C1887 C1881 1.429 . S
C1887 C1888 1.523 . S
C1888 C1869 1.368 . S
C1888 C1882 1.368 . S
C1888 C1887 1.523 . S
C1889 C1873 1.429 . S
C1889 C1885 1.429 . S
C1889 C1890 1.523 . S
C1890 C1874 1.368 . S
C1890 C1886 1.368 . S
C1890 C1889 1.523 . S
H1891 C1866 0.950 . S
H1892 C1868 0.950 . S
H1893 C1869 0.949 . S
H1894 C1871 0.950 . S
H1895 C1873 0.950 . S
C1896 C1897 1.349 . S
C1896 C1898 1.327 . S
C1896 H1921 0.950 . S
C1897 C1896 1.349 . S
C1897 C1913 1.349 . S
C1898 C1896 1.327 . S
C1898 C1917 1.429 . S
C1898 H1922 0.950 . S
C1899 C1916 1.574 . S
C1899 C1918 1.368 . S
C1899 H1923 0.949 . S
H1900 C1904 0.949 . S
C1901 C1902 1.349 . S
C1901 C1903 1.327 . S
C1901 H1924 0.950 . S
C1902 C1901 1.349 . S
C1902 C1914 1.349 . S
C1903 C1901 1.327 . S
C1903 C1919 1.429 . S
C1903 H1925 0.950 . S
C1904 H1900 0.949 . S
C1904 C1912 1.574 . S
C1904 C1920 1.368 . S
H1905 C1913 0.950 . S
H1906 C1911 0.950 . S
H1907 C1912 0.949 . S
H1908 C1914 0.950 . S
H1909 C1915 0.950 . S
H1910 C1916 0.949 . S
C1911 H1906 0.950 . S
C1911 C1913 1.327 . S
C1911 C1917 1.429 . S
C1912 C1904 1.574 . S
C1912 H1907 0.949 . S
C1912 C1918 1.368 1_545 S
C1913 C1897 1.349 . S
C1913 H1905 0.950 . S
C1913 C1911 1.327 . S
C1914 C1902 1.349 . S
C1914 H1908 0.950 . S
C1914 C1915 1.327 . S
C1915 H1909 0.950 . S
C1915 C1914 1.327 . S
C1915 C1919 1.429 . S
C1916 C1899 1.574 . S
C1916 H1910 0.949 . S
C1916 C1920 1.368 1_565 S
C1917 C1898 1.429 . S
C1917 C1911 1.429 . S
C1917 C1918 1.523 . S
C1918 C1899 1.368 . S
C1918 C1912 1.368 1_565 S
C1918 C1917 1.523 . S
C1919 C1903 1.429 . S
C1919 C1915 1.429 . S
C1919 C1920 1.523 . S
C1920 C1904 1.368 . S
C1920 C1916 1.368 1_545 S
C1920 C1919 1.523 . S
H1921 C1896 0.950 . S
H1922 C1898 0.950 . S
H1923 C1899 0.949 . S
H1924 C1901 0.950 . S
H1925 C1903 0.950 . S
C1926 C1927 1.349 . S
C1926 C1928 1.327 . S
C1926 H1951 0.950 . S
C1927 C1926 1.349 . S
C1927 C1943 1.349 . S
C1928 C1926 1.327 . S
C1928 C1947 1.429 . S
C1928 H1952 0.950 . S
C1929 C1946 1.574 . S
C1929 C1948 1.368 . S
C1929 H1953 0.949 . S
H1930 C1934 0.949 . S
C1931 C1932 1.349 . S
C1931 C1933 1.327 . S
C1931 H1954 0.950 . S
C1932 C1931 1.349 . S
C1932 C1944 1.349 . S
C1933 C1931 1.327 . S
C1933 C1949 1.429 . S
C1933 H1955 0.950 . S
C1934 H1930 0.949 . S
C1934 C1942 1.574 . S
C1934 C1950 1.368 . S
H1935 C1943 0.950 . S
H1936 C1941 0.950 . S
H1937 C1942 0.949 . S
H1938 C1944 0.950 . S
H1939 C1945 0.950 . S
H1940 C1946 0.949 . S
C1941 H1936 0.950 . S
C1941 C1943 1.327 . S
C1941 C1947 1.429 . S
C1942 C1934 1.574 . S
C1942 H1937 0.949 . S
C1942 C1948 1.368 1_455 S
C1943 C1927 1.349 . S
C1943 H1935 0.950 . S
C1943 C1941 1.327 . S
C1944 C1932 1.349 . S
C1944 H1938 0.950 . S
C1944 C1945 1.327 . S
C1945 H1939 0.950 . S
C1945 C1944 1.327 . S
C1945 C1949 1.429 . S
C1946 C1929 1.574 . S
C1946 H1940 0.949 . S
C1946 C1950 1.368 1_655 S
C1947 C1928 1.429 . S
C1947 C1941 1.429 . S
C1947 C1948 1.523 . S
C1948 C1929 1.368 . S
C1948 C1942 1.368 1_655 S
C1948 C1947 1.523 . S
C1949 C1933 1.429 . S
C1949 C1945 1.429 . S
C1949 C1950 1.523 . S
C1950 C1934 1.368 . S
C1950 C1946 1.368 1_455 S
C1950 C1949 1.523 . S
H1951 C1926 0.950 . S
H1952 C1928 0.950 . S
H1953 C1929 0.949 . S
H1954 C1931 0.950 . S
H1955 C1933 0.950 . S
C1956 C1957 1.349 . S
C1956 C1958 1.327 . S
C1956 H1981 0.950 . S
C1957 C1956 1.349 . S
C1957 C1973 1.349 . S
C1958 C1956 1.327 . S
C1958 C1977 1.429 . S
C1958 H1982 0.950 . S
C1959 C1976 1.574 1_565 S
C1959 C1978 1.368 . S
C1959 H1983 0.949 . S
H1960 C1964 0.949 . S
C1961 C1962 1.349 . S
C1961 C1963 1.327 . S
C1961 H1984 0.950 . S
C1962 C1961 1.349 . S
C1962 C1974 1.349 . S
C1963 C1961 1.327 . S
C1963 C1979 1.429 . S
C1963 H1985 0.950 . S
C1964 H1960 0.949 . S
C1964 C1972 1.574 1_545 S
C1964 C1980 1.368 . S
H1965 C1973 0.950 . S
H1966 C1971 0.950 . S
H1967 C1972 0.949 . S
H1968 C1974 0.950 . S
H1969 C1975 0.950 . S
H1970 C1976 0.949 . S
C1971 H1966 0.950 . S
C1971 C1973 1.327 . S
C1971 C1977 1.429 . S
C1972 C1964 1.574 1_565 S
C1972 H1967 0.949 . S
C1972 C1978 1.368 . S
C1973 C1957 1.349 . S
C1973 H1965 0.950 . S
C1973 C1971 1.327 . S
C1974 C1962 1.349 . S
C1974 H1968 0.950 . S
C1974 C1975 1.327 . S
C1975 H1969 0.950 . S
C1975 C1974 1.327 . S
C1975 C1979 1.429 . S
C1976 C1959 1.574 1_545 S
C1976 H1970 0.949 . S
C1976 C1980 1.368 . S
C1977 C1958 1.429 . S
C1977 C1971 1.429 . S
C1977 C1978 1.523 . S
C1978 C1959 1.368 . S
C1978 C1972 1.368 . S
C1978 C1977 1.523 . S
C1979 C1963 1.429 . S
C1979 C1975 1.429 . S
C1979 C1980 1.523 . S
C1980 C1964 1.368 . S
C1980 C1976 1.368 . S
C1980 C1979 1.523 . S
H1981 C1956 0.950 . S
H1982 C1958 0.950 . S
H1983 C1959 0.949 . S
H1984 C1961 0.950 . S
H1985 C1963 0.950 . S
C1986 C1987 1.349 . S
C1986 C1988 1.327 . S
C1986 H2011 0.950 . S
C1987 C1986 1.349 . S
C1987 C2003 1.349 . S
C1988 C1986 1.327 . S
C1988 C2007 1.429 . S
C1988 H2012 0.950 . S
C1989 C2006 1.574 1_455 S
C1989 C2008 1.368 . S
C1989 H2013 0.949 . S
H1990 C1994 0.949 . S
C1991 C1992 1.349 . S
C1991 C1993 1.327 . S
C1991 H2014 0.950 . S
C1992 C1991 1.349 . S
C1992 C2004 1.349 . S
C1993 C1991 1.327 . S
C1993 C2009 1.429 . S
C1993 H2015 0.950 . S
C1994 H1990 0.949 . S
C1994 C2002 1.574 1_655 S
C1994 C2010 1.368 . S
H1995 C2003 0.950 . S
H1996 C2001 0.950 . S
H1997 C2002 0.949 . S
H1998 C2004 0.950 . S
H1999 C2005 0.950 . S
H2000 C2006 0.949 . S
C2001 H1996 0.950 . S
C2001 C2003 1.327 . S
C2001 C2007 1.429 . S
C2002 C1994 1.574 1_455 S
C2002 H1997 0.949 . S
C2002 C2008 1.368 . S
C2003 C1987 1.349 . S
C2003 H1995 0.950 . S
C2003 C2001 1.327 . S
C2004 C1992 1.349 . S
C2004 H1998 0.950 . S
C2004 C2005 1.327 . S
C2005 H1999 0.950 . S
C2005 C2004 1.327 . S
C2005 C2009 1.429 . S
C2006 C1989 1.574 1_655 S
C2006 H2000 0.949 . S
C2006 C2010 1.368 . S
C2007 C1988 1.429 . S
C2007 C2001 1.429 . S
C2007 C2008 1.523 . S
C2008 C1989 1.368 . S
C2008 C2002 1.368 . S
C2008 C2007 1.523 . S
C2009 C1993 1.429 . S
C2009 C2005 1.429 . S
C2009 C2010 1.523 . S
C2010 C1994 1.368 . S
C2010 C2006 1.368 . S
C2010 C2009 1.523 . S
H2011 C1986 0.950 . S
H2012 C1988 0.950 . S
H2013 C1989 0.949 . S
H2014 C1991 0.950 . S
H2015 C1993 0.950 . S
C2016 C2017 1.349 . S
C2016 C2018 1.327 . S
C2016 H2041 0.950 . S
C2017 C2016 1.349 . S
C2017 C2033 1.349 . S
C2018 C2016 1.327 . S
C2018 C2037 1.429 . S
C2018 H2042 0.950 . S
C2019 C2036 1.574 . S
C2019 C2038 1.368 . S
C2019 H2043 0.949 . S
H2020 C2024 0.949 . S
C2021 C2022 1.349 . S
C2021 C2023 1.327 . S
C2021 H2044 0.950 . S
C2022 C2021 1.349 . S
C2022 C2034 1.349 . S
C2023 C2021 1.327 . S
C2023 C2039 1.429 . S
C2023 H2045 0.950 . S
C2024 H2020 0.949 . S
C2024 C2032 1.574 . S
C2024 C2040 1.368 . S
H2025 C2033 0.950 . S
H2026 C2031 0.950 . S
H2027 C2032 0.949 . S
H2028 C2034 0.950 . S
H2029 C2035 0.950 . S
H2030 C2036 0.949 . S
C2031 H2026 0.950 . S
C2031 C2033 1.327 . S
C2031 C2037 1.429 . S
C2032 C2024 1.574 . S
C2032 H2027 0.949 . S
C2032 C2038 1.368 1_554 S
C2033 C2017 1.349 . S
C2033 H2025 0.950 . S
C2033 C2031 1.327 . S
C2034 C2022 1.349 . S
C2034 H2028 0.950 . S
C2034 C2035 1.327 . S
C2035 H2029 0.950 . S
C2035 C2034 1.327 . S
C2035 C2039 1.429 . S
C2036 C2019 1.574 . S
C2036 H2030 0.949 . S
C2036 C2040 1.368 1_556 S
C2037 C2018 1.429 . S
C2037 C2031 1.429 . S
C2037 C2038 1.523 . S
C2038 C2019 1.368 . S
C2038 C2032 1.368 1_556 S
C2038 C2037 1.523 . S
C2039 C2023 1.429 . S
C2039 C2035 1.429 . S
C2039 C2040 1.523 . S
C2040 C2024 1.368 . S
C2040 C2036 1.368 1_554 S
C2040 C2039 1.523 . S
H2041 C2016 0.950 . S
H2042 C2018 0.950 . S
H2043 C2019 0.949 . S
H2044 C2021 0.950 . S
H2045 C2023 0.950 . S
C2046 C2047 1.349 . S
C2046 C2048 1.327 . S
C2046 H2071 0.950 . S
C2047 C2046 1.349 . S
C2047 C2063 1.349 . S
C2048 C2046 1.327 . S
C2048 C2067 1.429 . S
C2048 H2072 0.950 . S
C2049 C2066 1.574 1_554 S
C2049 C2068 1.368 . S
C2049 H2073 0.949 . S
H2050 C2054 0.949 . S
C2051 C2052 1.349 . S
C2051 C2053 1.327 . S
C2051 H2074 0.950 . S
C2052 C2051 1.349 . S
C2052 C2064 1.349 . S
C2053 C2051 1.327 . S
C2053 C2069 1.429 . S
C2053 H2075 0.950 . S
C2054 H2050 0.949 . S
C2054 C2062 1.574 1_556 S
C2054 C2070 1.368 . S
H2055 C2063 0.950 . S
H2056 C2061 0.950 . S
H2057 C2062 0.949 . S
H2058 C2064 0.950 . S
H2059 C2065 0.950 . S
H2060 C2066 0.949 . S
C2061 H2056 0.950 . S
C2061 C2063 1.327 . S
C2061 C2067 1.429 . S
C2062 C2054 1.574 1_554 S
C2062 H2057 0.949 . S
C2062 C2068 1.368 . S
C2063 C2047 1.349 . S
C2063 H2055 0.950 . S
C2063 C2061 1.327 . S
C2064 C2052 1.349 . S
C2064 H2058 0.950 . S
C2064 C2065 1.327 . S
C2065 H2059 0.950 . S
C2065 C2064 1.327 . S
C2065 C2069 1.429 . S
C2066 C2049 1.574 1_556 S
C2066 H2060 0.949 . S
C2066 C2070 1.368 . S
C2067 C2048 1.429 . S
C2067 C2061 1.429 . S
C2067 C2068 1.523 . S
C2068 C2049 1.368 . S
C2068 C2062 1.368 . S
C2068 C2067 1.523 . S
C2069 C2053 1.429 . S
C2069 C2065 1.429 . S
C2069 C2070 1.523 . S
C2070 C2054 1.368 . S
C2070 C2066 1.368 . S
C2070 C2069 1.523 . S
H2071 C2046 0.950 . S
H2072 C2048 0.950 . S
H2073 C2049 0.949 . S
H2074 C2051 0.950 . S
H2075 C2053 0.950 . S
C2076 C2077 1.349 . S
C2076 C2078 1.327 . S
C2076 H2101 0.950 . S
C2077 C2076 1.349 . S
C2077 C2093 1.349 . S
C2078 C2076 1.327 . S
C2078 C2097 1.429 . S
C2078 H2102 0.950 . S
C2079 C2096 1.574 1_556 S
C2079 C2098 1.368 . S
C2079 H2103 0.949 . S
H2080 C2084 0.949 . S
C2081 C2082 1.349 . S
C2081 C2083 1.327 . S
C2081 H2104 0.950 . S
C2082 C2081 1.349 . S
C2082 C2094 1.349 . S
C2083 C2081 1.327 . S
C2083 C2099 1.429 . S
C2083 H2105 0.950 . S
C2084 H2080 0.949 . S
C2084 C2092 1.574 1_554 S
C2084 C2100 1.368 . S
H2085 C2093 0.950 . S
H2086 C2091 0.950 . S
H2087 C2092 0.949 . S
H2088 C2094 0.950 . S
H2089 C2095 0.950 . S
H2090 C2096 0.949 . S
C2091 H2086 0.950 . S
C2091 C2093 1.327 . S
C2091 C2097 1.429 . S
C2092 C2084 1.574 1_556 S
C2092 H2087 0.949 . S
C2092 C2098 1.368 . S
C2093 C2077 1.349 . S
C2093 H2085 0.950 . S
C2093 C2091 1.327 . S
C2094 C2082 1.349 . S
C2094 H2088 0.950 . S
C2094 C2095 1.327 . S
C2095 H2089 0.950 . S
C2095 C2094 1.327 . S
C2095 C2099 1.429 . S
C2096 C2079 1.574 1_554 S
C2096 H2090 0.949 . S
C2096 C2100 1.368 . S
C2097 C2078 1.429 . S
C2097 C2091 1.429 . S
C2097 C2098 1.523 . S
C2098 C2079 1.368 . S
C2098 C2092 1.368 . S
C2098 C2097 1.523 . S
C2099 C2083 1.429 . S
C2099 C2095 1.429 . S
C2099 C2100 1.523 . S
C2100 C2084 1.368 . S
C2100 C2096 1.368 . S
C2100 C2099 1.523 . S
H2101 C2076 0.950 . S
H2102 C2078 0.950 . S
H2103 C2079 0.949 . S
H2104 C2081 0.950 . S
H2105 C2083 0.950 . S
C2106 C2107 1.349 . S
C2106 C2108 1.327 . S
C2106 H2131 0.950 . S
C2107 C2106 1.349 . S
C2107 C2123 1.349 . S
C2108 C2106 1.327 . S
C2108 C2127 1.429 . S
C2108 H2132 0.950 . S
C2109 C2126 1.574 . S
C2109 C2128 1.368 1_556 S
C2109 H2133 0.949 . S
H2110 C2114 0.949 . S
C2111 C2112 1.349 . S
C2111 C2113 1.327 . S
C2111 H2134 0.950 . S
C2112 C2111 1.349 . S
C2112 C2124 1.349 . S
C2113 C2111 1.327 . S
C2113 C2129 1.429 . S
C2113 H2135 0.950 . S
C2114 H2110 0.949 . S
C2114 C2122 1.574 . S
C2114 C2130 1.368 1_554 S
H2115 C2123 0.950 . S
H2116 C2121 0.950 . S
H2117 C2122 0.949 . S
H2118 C2124 0.950 . S
H2119 C2125 0.950 . S
H2120 C2126 0.949 . S
C2121 H2116 0.950 . S
C2121 C2123 1.327 . S
C2121 C2127 1.429 . S
C2122 C2114 1.574 . S
C2122 H2117 0.949 . S
C2122 C2128 1.368 . S
C2123 C2107 1.349 . S
C2123 H2115 0.950 . S
C2123 C2121 1.327 . S
C2124 C2112 1.349 . S
C2124 H2118 0.950 . S
C2124 C2125 1.327 . S
C2125 H2119 0.950 . S
C2125 C2124 1.327 . S
C2125 C2129 1.429 . S
C2126 C2109 1.574 . S
C2126 H2120 0.949 . S
C2126 C2130 1.368 . S
C2127 C2108 1.429 . S
C2127 C2121 1.429 . S
C2127 C2128 1.523 . S
C2128 C2109 1.368 1_554 S
C2128 C2122 1.368 . S
C2128 C2127 1.523 . S
C2129 C2113 1.429 . S
C2129 C2125 1.429 . S
C2129 C2130 1.523 . S
C2130 C2114 1.368 1_556 S
C2130 C2126 1.368 . S
C2130 C2129 1.523 . S
H2131 C2106 0.950 . S
H2132 C2108 0.950 . S
H2133 C2109 0.949 . S
H2134 C2111 0.950 . S
H2135 C2113 0.950 . S
C2136 C2137 1.349 . S
C2136 C2138 1.327 . S
C2136 H2161 0.950 . S
C2137 C2136 1.349 . S
C2137 C2153 1.349 . S
C2138 C2136 1.327 . S
C2138 C2157 1.429 . S
C2138 H2162 0.950 . S
C2139 C2156 1.574 . S
C2139 C2158 1.368 . S
C2139 H2163 0.949 . S
H2140 C2144 0.949 . S
C2141 C2142 1.349 . S
C2141 C2143 1.327 . S
C2141 H2164 0.950 . S
C2142 C2141 1.349 . S
C2142 C2154 1.349 . S
C2143 C2141 1.327 . S
C2143 C2159 1.429 . S
C2143 H2165 0.950 . S
C2144 H2140 0.949 . S
C2144 C2152 1.574 . S
C2144 C2160 1.368 . S
H2145 C2153 0.950 . S
H2146 C2151 0.950 . S
H2147 C2152 0.949 . S
H2148 C2154 0.950 . S
H2149 C2155 0.950 . S
H2150 C2156 0.949 . S
C2151 H2146 0.950 . S
C2151 C2153 1.327 . S
C2151 C2157 1.429 . S
C2152 C2144 1.574 . S
C2152 H2147 0.949 . S
C2152 C2158 1.368 . S
C2153 C2137 1.349 . S
C2153 H2145 0.950 . S
C2153 C2151 1.327 . S
C2154 C2142 1.349 . S
C2154 H2148 0.950 . S
C2154 C2155 1.327 . S
C2155 H2149 0.950 . S
C2155 C2154 1.327 . S
C2155 C2159 1.429 . S
C2156 C2139 1.574 . S
C2156 H2150 0.949 . S
C2156 C2160 1.368 . S
C2157 C2138 1.429 . S
C2157 C2151 1.429 . S
C2157 C2158 1.523 . S
C2158 C2139 1.368 . S
C2158 C2152 1.368 . S
C2158 C2157 1.523 . S
C2159 C2143 1.429 . S
C2159 C2155 1.429 . S
C2159 C2160 1.523 . S
C2160 C2144 1.368 . S
C2160 C2156 1.368 . S
C2160 C2159 1.523 . S
H2161 C2136 0.950 . S
H2162 C2138 0.950 . S
H2163 C2139 0.949 . S
H2164 C2141 0.950 . S
H2165 C2143 0.950 . S
C2166 C2167 1.349 . S
C2166 C2168 1.327 . S
C2166 H2191 0.950 . S
C2167 C2166 1.349 . S
C2167 C2183 1.349 . S
C2168 C2166 1.327 . S
C2168 C2187 1.429 . S
C2168 H2192 0.950 . S
C2169 C2186 1.574 . S
C2169 C2188 1.368 . S
C2169 H2193 0.949 . S
H2170 C2174 0.949 . S
C2171 C2172 1.349 . S
C2171 C2173 1.327 . S
C2171 H2194 0.950 . S
C2172 C2171 1.349 . S
C2172 C2184 1.349 . S
C2173 C2171 1.327 . S
C2173 C2189 1.429 . S
C2173 H2195 0.950 . S
C2174 H2170 0.949 . S
C2174 C2182 1.574 . S
C2174 C2190 1.368 . S
H2175 C2183 0.950 . S
H2176 C2181 0.950 . S
H2177 C2182 0.949 . S
H2178 C2184 0.950 . S
H2179 C2185 0.950 . S
H2180 C2186 0.949 . S
C2181 H2176 0.950 . S
C2181 C2183 1.327 . S
C2181 C2187 1.429 . S
C2182 C2174 1.574 . S
C2182 H2177 0.949 . S
C2182 C2188 1.368 . S
C2183 C2167 1.349 . S
C2183 H2175 0.950 . S
C2183 C2181 1.327 . S
C2184 C2172 1.349 . S
C2184 H2178 0.950 . S
C2184 C2185 1.327 . S
C2185 H2179 0.950 . S
C2185 C2184 1.327 . S
C2185 C2189 1.429 . S
C2186 C2169 1.574 . S
C2186 H2180 0.949 . S
C2186 C2190 1.368 . S
C2187 C2168 1.429 . S
C2187 C2181 1.429 . S
C2187 C2188 1.523 . S
C2188 C2169 1.368 . S
C2188 C2182 1.368 . S
C2188 C2187 1.523 . S
C2189 C2173 1.429 . S
C2189 C2185 1.429 . S
C2189 C2190 1.523 . S
C2190 C2174 1.368 . S
C2190 C2186 1.368 . S
C2190 C2189 1.523 . S
H2191 C2166 0.950 . S
H2192 C2168 0.950 . S
H2193 C2169 0.949 . S
H2194 C2171 0.950 . S
H2195 C2173 0.950 . S
C2196 C2197 1.349 . S
C2196 C2198 1.327 . S
C2196 H2221 0.950 . S
C2197 C2196 1.349 . S
C2197 C2213 1.349 . S
C2198 C2196 1.327 . S
C2198 C2217 1.429 . S
C2198 H2222 0.950 . S
C2199 C2216 1.574 . S
C2199 C2218 1.368 . S
C2199 H2223 0.949 . S
H2200 C2204 0.949 . S
C2201 C2202 1.349 . S
C2201 C2203 1.327 . S
C2201 H2224 0.950 . S
C2202 C2201 1.349 . S
C2202 C2214 1.349 . S
C2203 C2201 1.327 . S
C2203 C2219 1.429 . S
C2203 H2225 0.950 . S
C2204 H2200 0.949 . S
C2204 C2212 1.574 . S
C2204 C2220 1.368 . S
H2205 C2213 0.950 . S
H2206 C2211 0.950 . S
H2207 C2212 0.949 . S
H2208 C2214 0.950 . S
H2209 C2215 0.950 . S
H2210 C2216 0.949 . S
C2211 H2206 0.950 . S
C2211 C2213 1.327 . S
C2211 C2217 1.429 . S
C2212 C2204 1.574 . S
C2212 H2207 0.949 . S
C2212 C2218 1.368 . S
C2213 C2197 1.349 . S
C2213 H2205 0.950 . S
C2213 C2211 1.327 . S
C2214 C2202 1.349 . S
C2214 H2208 0.950 . S
C2214 C2215 1.327 . S
C2215 H2209 0.950 . S
C2215 C2214 1.327 . S
C2215 C2219 1.429 . S
C2216 C2199 1.574 . S
C2216 H2210 0.949 . S
C2216 C2220 1.368 . S
C2217 C2198 1.429 . S
C2217 C2211 1.429 . S
C2217 C2218 1.523 . S
C2218 C2199 1.368 . S
C2218 C2212 1.368 . S
C2218 C2217 1.523 . S
C2219 C2203 1.429 . S
C2219 C2215 1.429 . S
C2219 C2220 1.523 . S
C2220 C2204 1.368 . S
C2220 C2216 1.368 . S
C2220 C2219 1.523 . S
H2221 C2196 0.950 . S
H2222 C2198 0.950 . S
H2223 C2199 0.949 . S
H2224 C2201 0.950 . S
H2225 C2203 0.950 . S
C2226 C2227 1.349 . S
C2226 C2228 1.327 . S
C2226 H2251 0.950 . S
C2227 C2226 1.349 . S
C2227 C2243 1.349 . S
C2228 C2226 1.327 . S
C2228 C2247 1.429 . S
C2228 H2252 0.950 . S
C2229 C2246 1.574 . S
C2229 C2248 1.368 . S
C2229 H2253 0.949 . S
H2230 C2234 0.949 . S
C2231 C2232 1.349 . S
C2231 C2233 1.327 . S
C2231 H2254 0.950 . S
C2232 C2231 1.349 . S
C2232 C2244 1.349 . S
C2233 C2231 1.327 . S
C2233 C2249 1.429 . S
C2233 H2255 0.950 . S
C2234 H2230 0.949 . S
C2234 C2242 1.574 . S
C2234 C2250 1.368 . S
H2235 C2243 0.950 . S
H2236 C2241 0.950 . S
H2237 C2242 0.949 . S
H2238 C2244 0.950 . S
H2239 C2245 0.950 . S
H2240 C2246 0.949 . S
C2241 H2236 0.950 . S
C2241 C2243 1.327 . S
C2241 C2247 1.429 . S
C2242 C2234 1.574 . S
C2242 H2237 0.949 . S
C2242 C2248 1.368 . S
C2243 C2227 1.349 . S
C2243 H2235 0.950 . S
C2243 C2241 1.327 . S
C2244 C2232 1.349 . S
C2244 H2238 0.950 . S
C2244 C2245 1.327 . S
C2245 H2239 0.950 . S
C2245 C2244 1.327 . S
C2245 C2249 1.429 . S
C2246 C2229 1.574 . S
C2246 H2240 0.949 . S
C2246 C2250 1.368 . S
C2247 C2228 1.429 . S
C2247 C2241 1.429 . S
C2247 C2248 1.523 . S
C2248 C2229 1.368 . S
C2248 C2242 1.368 . S
C2248 C2247 1.523 . S
C2249 C2233 1.429 . S
C2249 C2245 1.429 . S
C2249 C2250 1.523 . S
C2250 C2234 1.368 . S
C2250 C2246 1.368 . S
C2250 C2249 1.523 . S
H2251 C2226 0.950 . S
H2252 C2228 0.950 . S
H2253 C2229 0.949 . S
H2254 C2231 0.950 . S
H2255 C2233 0.950 . S
C2256 C2257 1.349 . S
C2256 C2258 1.327 . S
C2256 H2281 0.950 . S
C2257 C2256 1.349 . S
C2257 C2273 1.349 . S
C2258 C2256 1.327 . S
C2258 C2277 1.429 . S
C2258 H2282 0.950 . S
C2259 C2276 1.574 . S
C2259 C2278 1.368 . S
C2259 H2283 0.949 . S
H2260 C2264 0.949 . S
C2261 C2262 1.349 . S
C2261 C2263 1.327 . S
C2261 H2284 0.950 . S
C2262 C2261 1.349 . S
C2262 C2274 1.349 . S
C2263 C2261 1.327 . S
C2263 C2279 1.429 . S
C2263 H2285 0.950 . S
C2264 H2260 0.949 . S
C2264 C2272 1.574 . S
C2264 C2280 1.368 . S
H2265 C2273 0.950 . S
H2266 C2271 0.950 . S
H2267 C2272 0.949 . S
H2268 C2274 0.950 . S
H2269 C2275 0.950 . S
H2270 C2276 0.949 . S
C2271 H2266 0.950 . S
C2271 C2273 1.327 . S
C2271 C2277 1.429 . S
C2272 C2264 1.574 . S
C2272 H2267 0.949 . S
C2272 C2278 1.368 . S
C2273 C2257 1.349 . S
C2273 H2265 0.950 . S
C2273 C2271 1.327 . S
C2274 C2262 1.349 . S
C2274 H2268 0.950 . S
C2274 C2275 1.327 . S
C2275 H2269 0.950 . S
C2275 C2274 1.327 . S
C2275 C2279 1.429 . S
C2276 C2259 1.574 . S
C2276 H2270 0.949 . S
C2276 C2280 1.368 . S
C2277 C2258 1.429 . S
C2277 C2271 1.429 . S
C2277 C2278 1.523 . S
C2278 C2259 1.368 . S
C2278 C2272 1.368 . S
C2278 C2277 1.523 . S
C2279 C2263 1.429 . S
C2279 C2275 1.429 . S
C2279 C2280 1.523 . S
C2280 C2264 1.368 . S
C2280 C2276 1.368 . S
C2280 C2279 1.523 . S
H2281 C2256 0.950 . S
H2282 C2258 0.950 . S
H2283 C2259 0.949 . S
H2284 C2261 0.950 . S
H2285 C2263 0.950 . S
C2286 C2287 1.349 . S
C2286 C2288 1.327 . S
C2286 H2311 0.950 . S
C2287 C2286 1.349 . S
C2287 C2303 1.349 . S
C2288 C2286 1.327 . S
C2288 C2307 1.429 . S
C2288 H2312 0.950 . S
C2289 C2306 1.574 . S
C2289 C2308 1.368 . S
C2289 H2313 0.949 . S
H2290 C2294 0.949 . S
C2291 C2292 1.349 . S
C2291 C2293 1.327 . S
C2291 H2314 0.950 . S
C2292 C2291 1.349 . S
C2292 C2304 1.349 . S
C2293 C2291 1.327 . S
C2293 C2309 1.429 . S
C2293 H2315 0.950 . S
C2294 H2290 0.949 . S
C2294 C2302 1.574 . S
C2294 C2310 1.368 . S
H2295 C2303 0.950 . S
H2296 C2301 0.950 . S
H2297 C2302 0.949 . S
H2298 C2304 0.950 . S
H2299 C2305 0.950 . S
H2300 C2306 0.949 . S
C2301 H2296 0.950 . S
C2301 C2303 1.327 . S
C2301 C2307 1.429 . S
C2302 C2294 1.574 . S
C2302 H2297 0.949 . S
C2302 C2308 1.368 . S
C2303 C2287 1.349 . S
C2303 H2295 0.950 . S
C2303 C2301 1.327 . S
C2304 C2292 1.349 . S
C2304 H2298 0.950 . S
C2304 C2305 1.327 . S
C2305 H2299 0.950 . S
C2305 C2304 1.327 . S
C2305 C2309 1.429 . S
C2306 C2289 1.574 . S
C2306 H2300 0.949 . S
C2306 C2310 1.368 . S
C2307 C2288 1.429 . S
C2307 C2301 1.429 . S
C2307 C2308 1.523 . S
C2308 C2289 1.368 . S
C2308 C2302 1.368 . S
C2308 C2307 1.523 . S
C2309 C2293 1.429 . S
C2309 C2305 1.429 . S
C2309 C2310 1.523 . S
C2310 C2294 1.368 . S
C2310 C2306 1.368 . S
C2310 C2309 1.523 . S
H2311 C2286 0.950 . S
H2312 C2288 0.950 . S
H2313 C2289 0.949 . S
H2314 C2291 0.950 . S
H2315 C2293 0.950 . S
C2316 C2317 1.349 . S
C2316 C2318 1.327 . S
C2316 H2341 0.950 . S
C2317 C2316 1.349 . S
C2317 C2333 1.349 . S
C2318 C2316 1.327 . S
C2318 C2337 1.429 . S
C2318 H2342 0.950 . S
C2319 C2336 1.574 . S
C2319 C2338 1.368 . S
C2319 H2343 0.949 . S
H2320 C2324 0.949 . S
C2321 C2322 1.349 . S
C2321 C2323 1.327 . S
C2321 H2344 0.950 . S
C2322 C2321 1.349 . S
C2322 C2334 1.349 . S
C2323 C2321 1.327 . S
C2323 C2339 1.429 . S
C2323 H2345 0.950 . S
C2324 H2320 0.949 . S
C2324 C2332 1.574 . S
C2324 C2340 1.368 . S
H2325 C2333 0.950 . S
H2326 C2331 0.950 . S
H2327 C2332 0.949 . S
H2328 C2334 0.950 . S
H2329 C2335 0.950 . S
H2330 C2336 0.949 . S
C2331 H2326 0.950 . S
C2331 C2333 1.327 . S
C2331 C2337 1.429 . S
C2332 C2324 1.574 . S
C2332 H2327 0.949 . S
C2332 C2338 1.368 . S
C2333 C2317 1.349 . S
C2333 H2325 0.950 . S
C2333 C2331 1.327 . S
C2334 C2322 1.349 . S
C2334 H2328 0.950 . S
C2334 C2335 1.327 . S
C2335 H2329 0.950 . S
C2335 C2334 1.327 . S
C2335 C2339 1.429 . S
C2336 C2319 1.574 . S
C2336 H2330 0.949 . S
C2336 C2340 1.368 . S
C2337 C2318 1.429 . S
C2337 C2331 1.429 . S
C2337 C2338 1.523 . S
C2338 C2319 1.368 . S
C2338 C2332 1.368 . S
C2338 C2337 1.523 . S
C2339 C2323 1.429 . S
C2339 C2335 1.429 . S
C2339 C2340 1.523 . S
C2340 C2324 1.368 . S
C2340 C2336 1.368 . S
C2340 C2339 1.523 . S
H2341 C2316 0.950 . S
H2342 C2318 0.950 . S
H2343 C2319 0.949 . S
H2344 C2321 0.950 . S
H2345 C2323 0.950 . S
C2346 C2347 1.349 . S
C2346 C2348 1.327 . S
C2346 H2371 0.950 . S
C2347 C2346 1.349 . S
C2347 C2363 1.349 . S
C2348 C2346 1.327 . S
C2348 C2367 1.429 . S
C2348 H2372 0.950 . S
C2349 C2366 1.574 . S
C2349 C2368 1.368 . S
C2349 H2373 0.949 . S
H2350 C2354 0.949 . S
C2351 C2352 1.349 . S
C2351 C2353 1.327 . S
C2351 H2374 0.950 . S
C2352 C2351 1.349 . S
C2352 C2364 1.349 . S
C2353 C2351 1.327 . S
C2353 C2369 1.429 . S
C2353 H2375 0.950 . S
C2354 H2350 0.949 . S
C2354 C2362 1.574 . S
C2354 C2370 1.368 . S
H2355 C2363 0.950 . S
H2356 C2361 0.950 . S
H2357 C2362 0.949 . S
H2358 C2364 0.950 . S
H2359 C2365 0.950 . S
H2360 C2366 0.949 . S
C2361 H2356 0.950 . S
C2361 C2363 1.327 . S
C2361 C2367 1.429 . S
C2362 C2354 1.574 . S
C2362 H2357 0.949 . S
C2362 C2368 1.368 . S
C2363 C2347 1.349 . S
C2363 H2355 0.950 . S
C2363 C2361 1.327 . S
C2364 C2352 1.349 . S
C2364 H2358 0.950 . S
C2364 C2365 1.327 . S
C2365 H2359 0.950 . S
C2365 C2364 1.327 . S
C2365 C2369 1.429 . S
C2366 C2349 1.574 . S
C2366 H2360 0.949 . S
C2366 C2370 1.368 . S
C2367 C2348 1.429 . S
C2367 C2361 1.429 . S
C2367 C2368 1.523 . S
C2368 C2349 1.368 . S
C2368 C2362 1.368 . S
C2368 C2367 1.523 . S
C2369 C2353 1.429 . S
C2369 C2365 1.429 . S
C2369 C2370 1.523 . S
C2370 C2354 1.368 . S
C2370 C2366 1.368 . S
C2370 C2369 1.523 . S
H2371 C2346 0.950 . S
H2372 C2348 0.950 . S
H2373 C2349 0.949 . S
H2374 C2351 0.950 . S
H2375 C2353 0.950 . S
C2376 C2377 1.349 . S
C2376 C2378 1.327 . S
C2376 H2401 0.950 . S
C2377 C2376 1.349 . S
C2377 C2393 1.349 . S
C2378 C2376 1.327 . S
C2378 C2397 1.429 . S
C2378 H2402 0.950 . S
C2379 C2396 1.574 . S
C2379 C2398 1.368 . S
C2379 H2403 0.949 . S
H2380 C2384 0.949 . S
C2381 C2382 1.349 . S
C2381 C2383 1.327 . S
C2381 H2404 0.950 . S
C2382 C2381 1.349 . S
C2382 C2394 1.349 . S
C2383 C2381 1.327 . S
C2383 C2399 1.429 . S
C2383 H2405 0.950 . S
C2384 H2380 0.949 . S
C2384 C2392 1.574 . S
C2384 C2400 1.368 . S
H2385 C2393 0.950 . S
H2386 C2391 0.950 . S
H2387 C2392 0.949 . S
H2388 C2394 0.950 . S
H2389 C2395 0.950 . S
H2390 C2396 0.949 . S
C2391 H2386 0.950 . S
C2391 C2393 1.327 . S
C2391 C2397 1.429 . S
C2392 C2384 1.574 . S
C2392 H2387 0.949 . S
C2392 C2398 1.368 . S
C2393 C2377 1.349 . S
C2393 H2385 0.950 . S
C2393 C2391 1.327 . S
C2394 C2382 1.349 . S
C2394 H2388 0.950 . S
C2394 C2395 1.327 . S
C2395 H2389 0.950 . S
C2395 C2394 1.327 . S
C2395 C2399 1.429 . S
C2396 C2379 1.574 . S
C2396 H2390 0.949 . S
C2396 C2400 1.368 . S
C2397 C2378 1.429 . S
C2397 C2391 1.429 . S
C2397 C2398 1.523 . S
C2398 C2379 1.368 . S
C2398 C2392 1.368 . S
C2398 C2397 1.523 . S
C2399 C2383 1.429 . S
C2399 C2395 1.429 . S
C2399 C2400 1.523 . S
C2400 C2384 1.368 . S
C2400 C2396 1.368 . S
C2400 C2399 1.523 . S
H2401 C2376 0.950 . S
H2402 C2378 0.950 . S
H2403 C2379 0.949 . S
H2404 C2381 0.950 . S
H2405 C2383 0.950 . S
C2406 C2407 1.349 . S
C2406 C2408 1.327 . S
C2406 H2431 0.950 . S
C2407 C2406 1.349 . S
C2407 C2423 1.349 . S
C2408 C2406 1.327 . S
C2408 C2427 1.429 . S
C2408 H2432 0.950 . S
C2409 C2426 1.574 . S
C2409 C2428 1.368 . S
C2409 H2433 0.949 . S
H2410 C2414 0.949 . S
C2411 C2412 1.349 . S
C2411 C2413 1.327 . S
C2411 H2434 0.950 . S
C2412 C2411 1.349 . S
C2412 C2424 1.349 . S
C2413 C2411 1.327 . S
C2413 C2429 1.429 . S
C2413 H2435 0.950 . S
C2414 H2410 0.949 . S
C2414 C2422 1.574 . S
C2414 C2430 1.368 . S
H2415 C2423 0.950 . S
H2416 C2421 0.950 . S
H2417 C2422 0.949 . S
H2418 C2424 0.950 . S
H2419 C2425 0.950 . S
H2420 C2426 0.949 . S
C2421 H2416 0.950 . S
C2421 C2423 1.327 . S
C2421 C2427 1.429 . S
C2422 C2414 1.574 . S
C2422 H2417 0.949 . S
C2422 C2428 1.368 . S
C2423 C2407 1.349 . S
C2423 H2415 0.950 . S
C2423 C2421 1.327 . S
C2424 C2412 1.349 . S
C2424 H2418 0.950 . S
C2424 C2425 1.327 . S
C2425 H2419 0.950 . S
C2425 C2424 1.327 . S
C2425 C2429 1.429 . S
C2426 C2409 1.574 . S
C2426 H2420 0.949 . S
C2426 C2430 1.368 . S
C2427 C2408 1.429 . S
C2427 C2421 1.429 . S
C2427 C2428 1.523 . S
C2428 C2409 1.368 . S
C2428 C2422 1.368 . S
C2428 C2427 1.523 . S
C2429 C2413 1.429 . S
C2429 C2425 1.429 . S
C2429 C2430 1.523 . S
C2430 C2414 1.368 . S
C2430 C2426 1.368 . S
C2430 C2429 1.523 . S
H2431 C2406 0.950 . S
H2432 C2408 0.950 . S
H2433 C2409 0.949 . S
H2434 C2411 0.950 . S
H2435 C2413 0.950 . S
C2436 C2437 1.349 . S
C2436 C2438 1.327 . S
C2436 H2461 0.950 . S
C2437 C2436 1.349 . S
C2437 C2453 1.349 . S
C2438 C2436 1.327 . S
C2438 C2457 1.429 . S
C2438 H2462 0.950 . S
C2439 C2456 1.574 . S
C2439 C2458 1.368 . S
C2439 H2463 0.949 . S
H2440 C2444 0.949 . S
C2441 C2442 1.349 . S
C2441 C2443 1.327 . S
C2441 H2464 0.950 . S
C2442 C2441 1.349 . S
C2442 C2454 1.349 . S
C2443 C2441 1.327 . S
C2443 C2459 1.429 . S
C2443 H2465 0.950 . S
C2444 H2440 0.949 . S
C2444 C2452 1.574 . S
C2444 C2460 1.368 . S
H2445 C2453 0.950 . S
H2446 C2451 0.950 . S
H2447 C2452 0.949 . S
H2448 C2454 0.950 . S
H2449 C2455 0.950 . S
H2450 C2456 0.949 . S
C2451 H2446 0.950 . S
C2451 C2453 1.327 . S
C2451 C2457 1.429 . S
C2452 C2444 1.574 . S
C2452 H2447 0.949 . S
C2452 C2458 1.368 . S
C2453 C2437 1.349 . S
C2453 H2445 0.950 . S
C2453 C2451 1.327 . S
C2454 C2442 1.349 . S
C2454 H2448 0.950 . S
C2454 C2455 1.327 . S
C2455 H2449 0.950 . S
C2455 C2454 1.327 . S
C2455 C2459 1.429 . S
C2456 C2439 1.574 . S
C2456 H2450 0.949 . S
C2456 C2460 1.368 . S
C2457 C2438 1.429 . S
C2457 C2451 1.429 . S
C2457 C2458 1.523 . S
C2458 C2439 1.368 . S
C2458 C2452 1.368 . S
C2458 C2457 1.523 . S
C2459 C2443 1.429 . S
C2459 C2455 1.429 . S
C2459 C2460 1.523 . S
C2460 C2444 1.368 . S
C2460 C2456 1.368 . S
C2460 C2459 1.523 . S
H2461 C2436 0.950 . S
H2462 C2438 0.950 . S
H2463 C2439 0.949 . S
H2464 C2441 0.950 . S
H2465 C2443 0.950 . S
C2466 C2467 1.349 . S
C2466 C2468 1.327 . S
C2466 H2491 0.950 . S
C2467 C2466 1.349 . S
C2467 C2483 1.349 . S
C2468 C2466 1.327 . S
C2468 C2487 1.429 . S
C2468 H2492 0.950 . S
C2469 C2486 1.574 . S
C2469 C2488 1.368 . S
C2469 H2493 0.949 . S
H2470 C2474 0.949 . S
C2471 C2472 1.349 . S
C2471 C2473 1.327 . S
C2471 H2494 0.950 . S
C2472 C2471 1.349 . S
C2472 C2484 1.349 . S
C2473 C2471 1.327 . S
C2473 C2489 1.429 . S
C2473 H2495 0.950 . S
C2474 H2470 0.949 . S
C2474 C2482 1.574 . S
C2474 C2490 1.368 . S
H2475 C2483 0.950 . S
H2476 C2481 0.950 . S
H2477 C2482 0.949 . S
H2478 C2484 0.950 . S
H2479 C2485 0.950 . S
H2480 C2486 0.949 . S
C2481 H2476 0.950 . S
C2481 C2483 1.327 . S
C2481 C2487 1.429 . S
C2482 C2474 1.574 . S
C2482 H2477 0.949 . S
C2482 C2488 1.368 . S
C2483 C2467 1.349 . S
C2483 H2475 0.950 . S
C2483 C2481 1.327 . S
C2484 C2472 1.349 . S
C2484 H2478 0.950 . S
C2484 C2485 1.327 . S
C2485 H2479 0.950 . S
C2485 C2484 1.327 . S
C2485 C2489 1.429 . S
C2486 C2469 1.574 . S
C2486 H2480 0.949 . S
C2486 C2490 1.368 . S
C2487 C2468 1.429 . S
C2487 C2481 1.429 . S
C2487 C2488 1.523 . S
C2488 C2469 1.368 . S
C2488 C2482 1.368 . S
C2488 C2487 1.523 . S
C2489 C2473 1.429 . S
C2489 C2485 1.429 . S
C2489 C2490 1.523 . S
C2490 C2474 1.368 . S
C2490 C2486 1.368 . S
C2490 C2489 1.523 . S
H2491 C2466 0.950 . S
H2492 C2468 0.950 . S
H2493 C2469 0.949 . S
H2494 C2471 0.950 . S
H2495 C2473 0.950 . S
C2496 C2497 1.349 . S
C2496 C2498 1.327 . S
C2496 H2521 0.950 . S
C2497 C2496 1.349 . S
C2497 C2513 1.349 . S
C2498 C2496 1.327 . S
C2498 C2517 1.429 . S
C2498 H2522 0.950 . S
C2499 C2516 1.574 . S
C2499 C2518 1.368 . S
C2499 H2523 0.949 . S
H2500 C2504 0.949 . S
C2501 C2502 1.349 . S
C2501 C2503 1.327 . S
C2501 H2524 0.950 . S
C2502 C2501 1.349 . S
C2502 C2514 1.349 . S
C2503 C2501 1.327 . S
C2503 C2519 1.429 . S
C2503 H2525 0.950 . S
C2504 H2500 0.949 . S
C2504 C2512 1.574 . S
C2504 C2520 1.368 . S
H2505 C2513 0.950 . S
H2506 C2511 0.950 . S
H2507 C2512 0.949 . S
H2508 C2514 0.950 . S
H2509 C2515 0.950 . S
H2510 C2516 0.949 . S
C2511 H2506 0.950 . S
C2511 C2513 1.327 . S
C2511 C2517 1.429 . S
C2512 C2504 1.574 . S
C2512 H2507 0.949 . S
C2512 C2518 1.368 . S
C2513 C2497 1.349 . S
C2513 H2505 0.950 . S
C2513 C2511 1.327 . S
C2514 C2502 1.349 . S
C2514 H2508 0.950 . S
C2514 C2515 1.327 . S
C2515 H2509 0.950 . S
C2515 C2514 1.327 . S
C2515 C2519 1.429 . S
C2516 C2499 1.574 . S
C2516 H2510 0.949 . S
C2516 C2520 1.368 . S
C2517 C2498 1.429 . S
C2517 C2511 1.429 . S
C2517 C2518 1.523 . S
C2518 C2499 1.368 . S
C2518 C2512 1.368 . S
C2518 C2517 1.523 . S
C2519 C2503 1.429 . S
C2519 C2515 1.429 . S
C2519 C2520 1.523 . S
C2520 C2504 1.368 . S
C2520 C2516 1.368 . S
C2520 C2519 1.523 . S
H2521 C2496 0.950 . S
H2522 C2498 0.950 . S
H2523 C2499 0.949 . S
H2524 C2501 0.950 . S
H2525 C2503 0.950 . S
C2526 C2527 1.349 . S
C2526 C2528 1.327 . S
C2526 H2551 0.950 . S
C2527 C2526 1.349 . S
C2527 C2543 1.349 . S
C2528 C2526 1.327 . S
C2528 C2547 1.429 . S
C2528 H2552 0.950 . S
C2529 C2546 1.574 . S
C2529 C2548 1.368 . S
C2529 H2553 0.949 . S
H2530 C2534 0.949 . S
C2531 C2532 1.349 . S
C2531 C2533 1.327 . S
C2531 H2554 0.950 . S
C2532 C2531 1.349 . S
C2532 C2544 1.349 . S
C2533 C2531 1.327 . S
C2533 C2549 1.429 . S
C2533 H2555 0.950 . S
C2534 H2530 0.949 . S
C2534 C2542 1.574 . S
C2534 C2550 1.368 . S
H2535 C2543 0.950 . S
H2536 C2541 0.950 . S
H2537 C2542 0.949 . S
H2538 C2544 0.950 . S
H2539 C2545 0.950 . S
H2540 C2546 0.949 . S
C2541 H2536 0.950 . S
C2541 C2543 1.327 . S
C2541 C2547 1.429 . S
C2542 C2534 1.574 . S
C2542 H2537 0.949 . S
C2542 C2548 1.368 . S
C2543 C2527 1.349 . S
C2543 H2535 0.950 . S
C2543 C2541 1.327 . S
C2544 C2532 1.349 . S
C2544 H2538 0.950 . S
C2544 C2545 1.327 . S
C2545 H2539 0.950 . S
C2545 C2544 1.327 . S
C2545 C2549 1.429 . S
C2546 C2529 1.574 . S
C2546 H2540 0.949 . S
C2546 C2550 1.368 . S
C2547 C2528 1.429 . S
C2547 C2541 1.429 . S
C2547 C2548 1.523 . S
C2548 C2529 1.368 . S
C2548 C2542 1.368 . S
C2548 C2547 1.523 . S
C2549 C2533 1.429 . S
C2549 C2545 1.429 . S
C2549 C2550 1.523 . S
C2550 C2534 1.368 . S
C2550 C2546 1.368 . S
C2550 C2549 1.523 . S
H2551 C2526 0.950 . S
H2552 C2528 0.950 . S
H2553 C2529 0.949 . S
H2554 C2531 0.950 . S
H2555 C2533 0.950 . S
C2556 C2557 1.349 . S
C2556 C2558 1.327 . S
C2556 H2581 0.950 . S
C2557 C2556 1.349 . S
C2557 C2573 1.349 . S
C2558 C2556 1.327 . S
C2558 C2577 1.429 . S
C2558 H2582 0.950 . S
C2559 C2576 1.574 . S
C2559 C2578 1.368 . S
C2559 H2583 0.949 . S
H2560 C2564 0.949 . S
C2561 C2562 1.349 . S
C2561 C2563 1.327 . S
C2561 H2584 0.950 . S
C2562 C2561 1.349 . S
C2562 C2574 1.349 . S
C2563 C2561 1.327 . S
C2563 C2579 1.429 . S
C2563 H2585 0.950 . S
C2564 H2560 0.949 . S
C2564 C2572 1.574 . S
C2564 C2580 1.368 . S
H2565 C2573 0.950 . S
H2566 C2571 0.950 . S
H2567 C2572 0.949 . S
H2568 C2574 0.950 . S
H2569 C2575 0.950 . S
H2570 C2576 0.949 . S
C2571 H2566 0.950 . S
C2571 C2573 1.327 . S
C2571 C2577 1.429 . S
C2572 C2564 1.574 . S
C2572 H2567 0.949 . S
C2572 C2578 1.368 . S
C2573 C2557 1.349 . S
C2573 H2565 0.950 . S
C2573 C2571 1.327 . S
C2574 C2562 1.349 . S
C2574 H2568 0.950 . S
C2574 C2575 1.327 . S
C2575 H2569 0.950 . S
C2575 C2574 1.327 . S
C2575 C2579 1.429 . S
C2576 C2559 1.574 . S
C2576 H2570 0.949 . S
C2576 C2580 1.368 . S
C2577 C2558 1.429 . S
C2577 C2571 1.429 . S
C2577 C2578 1.523 . S
C2578 C2559 1.368 . S
C2578 C2572 1.368 . S
C2578 C2577 1.523 . S
C2579 C2563 1.429 . S
C2579 C2575 1.429 . S
C2579 C2580 1.523 . S
C2580 C2564 1.368 . S
C2580 C2576 1.368 . S
C2580 C2579 1.523 . S
H2581 C2556 0.950 . S
H2582 C2558 0.950 . S
H2583 C2559 0.949 . S
H2584 C2561 0.950 . S
H2585 C2563 0.950 . S
C2586 C2587 1.349 . S
C2586 C2588 1.327 . S
C2586 H2611 0.950 . S
C2587 C2586 1.349 . S
C2587 C2603 1.349 . S
C2588 C2586 1.327 . S
C2588 C2607 1.429 . S
C2588 H2612 0.950 . S
C2589 C2606 1.574 . S
C2589 C2608 1.368 . S
C2589 H2613 0.949 . S
H2590 C2594 0.949 . S
C2591 C2592 1.349 . S
C2591 C2593 1.327 . S
C2591 H2614 0.950 . S
C2592 C2591 1.349 . S
C2592 C2604 1.349 . S
C2593 C2591 1.327 . S
C2593 C2609 1.429 . S
C2593 H2615 0.950 . S
C2594 H2590 0.949 . S
C2594 C2602 1.574 . S
C2594 C2610 1.368 . S
H2595 C2603 0.950 . S
H2596 C2601 0.950 . S
H2597 C2602 0.949 . S
H2598 C2604 0.950 . S
H2599 C2605 0.950 . S
H2600 C2606 0.949 . S
C2601 H2596 0.950 . S
C2601 C2603 1.327 . S
C2601 C2607 1.429 . S
C2602 C2594 1.574 . S
C2602 H2597 0.949 . S
C2602 C2608 1.368 . S
C2603 C2587 1.349 . S
C2603 H2595 0.950 . S
C2603 C2601 1.327 . S
C2604 C2592 1.349 . S
C2604 H2598 0.950 . S
C2604 C2605 1.327 . S
C2605 H2599 0.950 . S
C2605 C2604 1.327 . S
C2605 C2609 1.429 . S
C2606 C2589 1.574 . S
C2606 H2600 0.949 . S
C2606 C2610 1.368 . S
C2607 C2588 1.429 . S
C2607 C2601 1.429 . S
C2607 C2608 1.523 . S
C2608 C2589 1.368 . S
C2608 C2602 1.368 . S
C2608 C2607 1.523 . S
C2609 C2593 1.429 . S
C2609 C2605 1.429 . S
C2609 C2610 1.523 . S
C2610 C2594 1.368 . S
C2610 C2606 1.368 . S
C2610 C2609 1.523 . S
H2611 C2586 0.950 . S
H2612 C2588 0.950 . S
H2613 C2589 0.949 . S
H2614 C2591 0.950 . S
H2615 C2593 0.950 . S
C2616 C2617 1.349 . S
C2616 C2618 1.327 . S
C2616 H2641 0.950 . S
C2617 C2616 1.349 . S
C2617 C2633 1.349 . S
C2618 C2616 1.327 . S
C2618 C2637 1.429 . S
C2618 H2642 0.950 . S
C2619 C2636 1.574 . S
C2619 C2638 1.368 . S
C2619 H2643 0.949 . S
H2620 C2624 0.949 . S
C2621 C2622 1.349 . S
C2621 C2623 1.327 . S
C2621 H2644 0.950 . S
C2622 C2621 1.349 . S
C2622 C2634 1.349 . S
C2623 C2621 1.327 . S
C2623 C2639 1.429 . S
C2623 H2645 0.950 . S
C2624 H2620 0.949 . S
C2624 C2632 1.574 . S
C2624 C2640 1.368 . S
H2625 C2633 0.950 . S
H2626 C2631 0.950 . S
H2627 C2632 0.949 . S
H2628 C2634 0.950 . S
H2629 C2635 0.950 . S
H2630 C2636 0.949 . S
C2631 H2626 0.950 . S
C2631 C2633 1.327 . S
C2631 C2637 1.429 . S
C2632 C2624 1.574 . S
C2632 H2627 0.949 . S
C2632 C2638 1.368 . S
C2633 C2617 1.349 . S
C2633 H2625 0.950 . S
C2633 C2631 1.327 . S
C2634 C2622 1.349 . S
C2634 H2628 0.950 . S
C2634 C2635 1.327 . S
C2635 H2629 0.950 . S
C2635 C2634 1.327 . S
C2635 C2639 1.429 . S
C2636 C2619 1.574 . S
C2636 H2630 0.949 . S
C2636 C2640 1.368 . S
C2637 C2618 1.429 . S
C2637 C2631 1.429 . S
C2637 C2638 1.523 . S
C2638 C2619 1.368 . S
C2638 C2632 1.368 . S
C2638 C2637 1.523 . S
C2639 C2623 1.429 . S
C2639 C2635 1.429 . S
C2639 C2640 1.523 . S
C2640 C2624 1.368 . S
C2640 C2636 1.368 . S
C2640 C2639 1.523 . S
H2641 C2616 0.950 . S
H2642 C2618 0.950 . S
H2643 C2619 0.949 . S
H2644 C2621 0.950 . S
H2645 C2623 0.950 . S
C2646 C2647 1.349 . S
C2646 C2648 1.327 . S
C2646 H2671 0.950 . S
C2647 C2646 1.349 . S
C2647 C2663 1.349 . S
C2648 C2646 1.327 . S
C2648 C2667 1.429 . S
C2648 H2672 0.950 . S
C2649 C2666 1.574 . S
C2649 C2668 1.368 . S
C2649 H2673 0.949 . S
H2650 C2654 0.949 . S
C2651 C2652 1.349 . S
C2651 C2653 1.327 . S
C2651 H2674 0.950 . S
C2652 C2651 1.349 . S
C2652 C2664 1.349 . S
C2653 C2651 1.327 . S
C2653 C2669 1.429 . S
C2653 H2675 0.950 . S
C2654 H2650 0.949 . S
C2654 C2662 1.574 . S
C2654 C2670 1.368 . S
H2655 C2663 0.950 . S
H2656 C2661 0.950 . S
H2657 C2662 0.949 . S
H2658 C2664 0.950 . S
H2659 C2665 0.950 . S
H2660 C2666 0.949 . S
C2661 H2656 0.950 . S
C2661 C2663 1.327 . S
C2661 C2667 1.429 . S
C2662 C2654 1.574 . S
C2662 H2657 0.949 . S
C2662 C2668 1.368 . S
C2663 C2647 1.349 . S
C2663 H2655 0.950 . S
C2663 C2661 1.327 . S
C2664 C2652 1.349 . S
C2664 H2658 0.950 . S
C2664 C2665 1.327 . S
C2665 H2659 0.950 . S
C2665 C2664 1.327 . S
C2665 C2669 1.429 . S
C2666 C2649 1.574 . S
C2666 H2660 0.949 . S
C2666 C2670 1.368 . S
C2667 C2648 1.429 . S
C2667 C2661 1.429 . S
C2667 C2668 1.523 . S
C2668 C2649 1.368 . S
C2668 C2662 1.368 . S
C2668 C2667 1.523 . S
C2669 C2653 1.429 . S
C2669 C2665 1.429 . S
C2669 C2670 1.523 . S
C2670 C2654 1.368 . S
C2670 C2666 1.368 . S
C2670 C2669 1.523 . S
H2671 C2646 0.950 . S
H2672 C2648 0.950 . S
H2673 C2649 0.949 . S
H2674 C2651 0.950 . S
H2675 C2653 0.950 . S
C2676 C2677 1.349 . S
C2676 C2678 1.327 . S
C2676 H2701 0.950 . S
C2677 C2676 1.349 . S
C2677 C2693 1.349 . S
C2678 C2676 1.327 . S
C2678 C2697 1.429 . S
C2678 H2702 0.950 . S
C2679 C2696 1.574 . S
C2679 C2698 1.368 . S
C2679 H2703 0.949 . S
H2680 C2684 0.949 . S
C2681 C2682 1.349 . S
C2681 C2683 1.327 . S
C2681 H2704 0.950 . S
C2682 C2681 1.349 . S
C2682 C2694 1.349 . S
C2683 C2681 1.327 . S
C2683 C2699 1.429 . S
C2683 H2705 0.950 . S
C2684 H2680 0.949 . S
C2684 C2692 1.574 . S
C2684 C2700 1.368 . S
H2685 C2693 0.950 . S
H2686 C2691 0.950 . S
H2687 C2692 0.949 . S
H2688 C2694 0.950 . S
H2689 C2695 0.950 . S
H2690 C2696 0.949 . S
C2691 H2686 0.950 . S
C2691 C2693 1.327 . S
C2691 C2697 1.429 . S
C2692 C2684 1.574 . S
C2692 H2687 0.949 . S
C2692 C2698 1.368 . S
C2693 C2677 1.349 . S
C2693 H2685 0.950 . S
C2693 C2691 1.327 . S
C2694 C2682 1.349 . S
C2694 H2688 0.950 . S
C2694 C2695 1.327 . S
C2695 H2689 0.950 . S
C2695 C2694 1.327 . S
C2695 C2699 1.429 . S
C2696 C2679 1.574 . S
C2696 H2690 0.949 . S
C2696 C2700 1.368 . S
C2697 C2678 1.429 . S
C2697 C2691 1.429 . S
C2697 C2698 1.523 . S
C2698 C2679 1.368 . S
C2698 C2692 1.368 . S
C2698 C2697 1.523 . S
C2699 C2683 1.429 . S
C2699 C2695 1.429 . S
C2699 C2700 1.523 . S
C2700 C2684 1.368 . S
C2700 C2696 1.368 . S
C2700 C2699 1.523 . S
H2701 C2676 0.950 . S
H2702 C2678 0.950 . S
H2703 C2679 0.949 . S
H2704 C2681 0.950 . S
H2705 C2683 0.950 . S
C2706 C2707 1.349 . S
C2706 C2708 1.327 . S
C2706 H2731 0.950 . S
C2707 C2706 1.349 . S
C2707 C2723 1.349 . S
C2708 C2706 1.327 . S
C2708 C2727 1.429 . S
C2708 H2732 0.950 . S
C2709 C2726 1.574 . S
C2709 C2728 1.368 . S
C2709 H2733 0.949 . S
H2710 C2714 0.949 . S
C2711 C2712 1.349 . S
C2711 C2713 1.327 . S
C2711 H2734 0.950 . S
C2712 C2711 1.349 . S
C2712 C2724 1.349 . S
C2713 C2711 1.327 . S
C2713 C2729 1.429 . S
C2713 H2735 0.950 . S
C2714 H2710 0.949 . S
C2714 C2722 1.574 . S
C2714 C2730 1.368 . S
H2715 C2723 0.950 . S
H2716 C2721 0.950 . S
H2717 C2722 0.949 . S
H2718 C2724 0.950 . S
H2719 C2725 0.950 . S
H2720 C2726 0.949 . S
C2721 H2716 0.950 . S
C2721 C2723 1.327 . S
C2721 C2727 1.429 . S
C2722 C2714 1.574 . S
C2722 H2717 0.949 . S
C2722 C2728 1.368 . S
C2723 C2707 1.349 . S
C2723 H2715 0.950 . S
C2723 C2721 1.327 . S
C2724 C2712 1.349 . S
C2724 H2718 0.950 . S
C2724 C2725 1.327 . S
C2725 H2719 0.950 . S
C2725 C2724 1.327 . S
C2725 C2729 1.429 . S
C2726 C2709 1.574 . S
C2726 H2720 0.949 . S
C2726 C2730 1.368 . S
C2727 C2708 1.429 . S
C2727 C2721 1.429 . S
C2727 C2728 1.523 . S
C2728 C2709 1.368 . S
C2728 C2722 1.368 . S
C2728 C2727 1.523 . S
C2729 C2713 1.429 . S
C2729 C2725 1.429 . S
C2729 C2730 1.523 . S
C2730 C2714 1.368 . S
C2730 C2726 1.368 . S
C2730 C2729 1.523 . S
H2731 C2706 0.950 . S
H2732 C2708 0.950 . S
H2733 C2709 0.949 . S
H2734 C2711 0.950 . S
H2735 C2713 0.950 . S
C2736 C2737 1.349 . S
C2736 C2738 1.327 . S
C2736 H2761 0.950 . S
C2737 C2736 1.349 . S
C2737 C2753 1.349 . S
C2738 C2736 1.327 . S
C2738 C2757 1.429 . S
C2738 H2762 0.950 . S
C2739 C2756 1.574 . S
C2739 C2758 1.368 . S
C2739 H2763 0.949 . S
H2740 C2744 0.949 . S
C2741 C2742 1.349 . S
C2741 C2743 1.327 . S
C2741 H2764 0.950 . S
C2742 C2741 1.349 . S
C2742 C2754 1.349 . S
C2743 C2741 1.327 . S
C2743 C2759 1.429 . S
C2743 H2765 0.950 . S
C2744 H2740 0.949 . S
C2744 C2752 1.574 . S
C2744 C2760 1.368 . S
H2745 C2753 0.950 . S
H2746 C2751 0.950 . S
H2747 C2752 0.949 . S
H2748 C2754 0.950 . S
H2749 C2755 0.950 . S
H2750 C2756 0.949 . S
C2751 H2746 0.950 . S
C2751 C2753 1.327 . S
C2751 C2757 1.429 . S
C2752 C2744 1.574 . S
C2752 H2747 0.949 . S
C2752 C2758 1.368 . S
C2753 C2737 1.349 . S
C2753 H2745 0.950 . S
C2753 C2751 1.327 . S
C2754 C2742 1.349 . S
C2754 H2748 0.950 . S
C2754 C2755 1.327 . S
C2755 H2749 0.950 . S
C2755 C2754 1.327 . S
C2755 C2759 1.429 . S
C2756 C2739 1.574 . S
C2756 H2750 0.949 . S
C2756 C2760 1.368 . S
C2757 C2738 1.429 . S
C2757 C2751 1.429 . S
C2757 C2758 1.523 . S
C2758 C2739 1.368 . S
C2758 C2752 1.368 . S
C2758 C2757 1.523 . S
C2759 C2743 1.429 . S
C2759 C2755 1.429 . S
C2759 C2760 1.523 . S
C2760 C2744 1.368 . S
C2760 C2756 1.368 . S
C2760 C2759 1.523 . S
H2761 C2736 0.950 . S
H2762 C2738 0.950 . S
H2763 C2739 0.949 . S
H2764 C2741 0.950 . S
H2765 C2743 0.950 . S
C2766 C2767 1.349 . S
C2766 C2768 1.327 . S
C2766 H2791 0.950 . S
C2767 C2766 1.349 . S
C2767 C2783 1.349 . S
C2768 C2766 1.327 . S
C2768 C2787 1.429 . S
C2768 H2792 0.950 . S
C2769 C2786 1.574 . S
C2769 C2788 1.368 . S
C2769 H2793 0.949 . S
H2770 C2774 0.949 . S
C2771 C2772 1.349 . S
C2771 C2773 1.327 . S
C2771 H2794 0.950 . S
C2772 C2771 1.349 . S
C2772 C2784 1.349 . S
C2773 C2771 1.327 . S
C2773 C2789 1.429 . S
C2773 H2795 0.950 . S
C2774 H2770 0.949 . S
C2774 C2782 1.574 . S
C2774 C2790 1.368 . S
H2775 C2783 0.950 . S
H2776 C2781 0.950 . S
H2777 C2782 0.949 . S
H2778 C2784 0.950 . S
H2779 C2785 0.950 . S
H2780 C2786 0.949 . S
C2781 H2776 0.950 . S
C2781 C2783 1.327 . S
C2781 C2787 1.429 . S
C2782 C2774 1.574 . S
C2782 H2777 0.949 . S
C2782 C2788 1.368 . S
C2783 C2767 1.349 . S
C2783 H2775 0.950 . S
C2783 C2781 1.327 . S
C2784 C2772 1.349 . S
C2784 H2778 0.950 . S
C2784 C2785 1.327 . S
C2785 H2779 0.950 . S
C2785 C2784 1.327 . S
C2785 C2789 1.429 . S
C2786 C2769 1.574 . S
C2786 H2780 0.949 . S
C2786 C2790 1.368 . S
C2787 C2768 1.429 . S
C2787 C2781 1.429 . S
C2787 C2788 1.523 . S
C2788 C2769 1.368 . S
C2788 C2782 1.368 . S
C2788 C2787 1.523 . S
C2789 C2773 1.429 . S
C2789 C2785 1.429 . S
C2789 C2790 1.523 . S
C2790 C2774 1.368 . S
C2790 C2786 1.368 . S
C2790 C2789 1.523 . S
H2791 C2766 0.950 . S
H2792 C2768 0.950 . S
H2793 C2769 0.949 . S
H2794 C2771 0.950 . S
H2795 C2773 0.950 . S
C2796 C2797 1.349 . S
C2796 C2798 1.327 . S
C2796 H2821 0.950 . S
C2797 C2796 1.349 . S
C2797 C2813 1.349 . S
C2798 C2796 1.327 . S
C2798 C2817 1.429 . S
C2798 H2822 0.950 . S
C2799 C2816 1.574 . S
C2799 C2818 1.368 . S
C2799 H2823 0.949 . S
H2800 C2804 0.949 . S
C2801 C2802 1.349 . S
C2801 C2803 1.327 . S
C2801 H2824 0.950 . S
C2802 C2801 1.349 . S
C2802 C2814 1.349 . S
C2803 C2801 1.327 . S
C2803 C2819 1.429 . S
C2803 H2825 0.950 . S
C2804 H2800 0.949 . S
C2804 C2812 1.574 . S
C2804 C2820 1.368 . S
H2805 C2813 0.950 . S
H2806 C2811 0.950 . S
H2807 C2812 0.949 . S
H2808 C2814 0.950 . S
H2809 C2815 0.950 . S
H2810 C2816 0.949 . S
C2811 H2806 0.950 . S
C2811 C2813 1.327 . S
C2811 C2817 1.429 . S
C2812 C2804 1.574 . S
C2812 H2807 0.949 . S
C2812 C2818 1.368 . S
C2813 C2797 1.349 . S
C2813 H2805 0.950 . S
C2813 C2811 1.327 . S
C2814 C2802 1.349 . S
C2814 H2808 0.950 . S
C2814 C2815 1.327 . S
C2815 H2809 0.950 . S
C2815 C2814 1.327 . S
C2815 C2819 1.429 . S
C2816 C2799 1.574 . S
C2816 H2810 0.949 . S
C2816 C2820 1.368 . S
C2817 C2798 1.429 . S
C2817 C2811 1.429 . S
C2817 C2818 1.523 . S
C2818 C2799 1.368 . S
C2818 C2812 1.368 . S
C2818 C2817 1.523 . S
C2819 C2803 1.429 . S
C2819 C2815 1.429 . S
C2819 C2820 1.523 . S
C2820 C2804 1.368 . S
C2820 C2816 1.368 . S
C2820 C2819 1.523 . S
H2821 C2796 0.950 . S
H2822 C2798 0.950 . S
H2823 C2799 0.949 . S
H2824 C2801 0.950 . S
H2825 C2803 0.950 . S
C2826 C2827 1.349 . S
C2826 C2828 1.327 . S
C2826 H2851 0.950 . S
C2827 C2826 1.349 . S
C2827 C2843 1.349 . S
C2828 C2826 1.327 . S
C2828 C2847 1.429 . S
C2828 H2852 0.950 . S
C2829 C2846 1.574 . S
C2829 C2848 1.368 . S
C2829 H2853 0.949 . S
H2830 C2834 0.949 . S
C2831 C2832 1.349 . S
C2831 C2833 1.327 . S
C2831 H2854 0.950 . S
C2832 C2831 1.349 . S
C2832 C2844 1.349 . S
C2833 C2831 1.327 . S
C2833 C2849 1.429 . S
C2833 H2855 0.950 . S
C2834 H2830 0.949 . S
C2834 C2842 1.574 . S
C2834 C2850 1.368 . S
H2835 C2843 0.950 . S
H2836 C2841 0.950 . S
H2837 C2842 0.949 . S
H2838 C2844 0.950 . S
H2839 C2845 0.950 . S
H2840 C2846 0.949 . S
C2841 H2836 0.950 . S
C2841 C2843 1.327 . S
C2841 C2847 1.429 . S
C2842 C2834 1.574 . S
C2842 H2837 0.949 . S
C2842 C2848 1.368 . S
C2843 C2827 1.349 . S
C2843 H2835 0.950 . S
C2843 C2841 1.327 . S
C2844 C2832 1.349 . S
C2844 H2838 0.950 . S
C2844 C2845 1.327 . S
C2845 H2839 0.950 . S
C2845 C2844 1.327 . S
C2845 C2849 1.429 . S
C2846 C2829 1.574 . S
C2846 H2840 0.949 . S
C2846 C2850 1.368 . S
C2847 C2828 1.429 . S
C2847 C2841 1.429 . S
C2847 C2848 1.523 . S
C2848 C2829 1.368 . S
C2848 C2842 1.368 . S
C2848 C2847 1.523 . S
C2849 C2833 1.429 . S
C2849 C2845 1.429 . S
C2849 C2850 1.523 . S
C2850 C2834 1.368 . S
C2850 C2846 1.368 . S
C2850 C2849 1.523 . S
H2851 C2826 0.950 . S
H2852 C2828 0.950 . S
H2853 C2829 0.949 . S
H2854 C2831 0.950 . S
H2855 C2833 0.950 . S
C1417 C1301 1.654 . S
C1422 C3 1.654 . S
C1447 C62 1.654 . S
C1452 C949 1.695 . S
C1477 C1360 1.650 . S
C1482 C123 1.690 . S
C1507 C1244 1.696 . S
C1512 C182 1.696 . S
C1537 C1067 1.693 . S
C1542 C241 1.693 . S
C1567 C1124 1.652 . S
C1572 C298 1.652 . S
C1597 C1185 1.697 . S
C1602 C357 1.657 . S
C1627 C418 1.693 . S
C1632 C1006 1.653 . S
C1657 C770 1.659 . S
C1662 C475 1.659 . S
C1687 C831 1.690 . S
C1692 C536 1.690 . S
C1717 C593 1.657 . S
C1722 C888 1.657 . S
C1747 C654 1.689 . S
C1752 C713 1.689 . S
C1777 C416 1.654 . S
C1782 C829 1.654 . S
C1807 C890 1.695 . S
C1812 C239 1.654 . S
C1837 C300 1.690 . S
C1842 C711 1.650 . S
C1867 C772 1.696 . S
C1872 C359 1.696 . S
C1897 C595 1.693 . S
C1902 C64 1.693 . S
C1927 C121 1.652 . S
C1932 C652 1.652 . S
C1957 C180 1.657 . S
C1962 C477 1.697 . S
C1987 C5 1.693 . S
C1992 C534 1.653 . S
C2017 C1183 1.659 . S
C2022 C1242 1.659 . S
C2047 C1303 1.690 . S
C2052 C1008 1.690 . S
C2077 C1065 1.657 . S
C2082 C947 1.657 . S
C2107 C1362 1.689 . S
C2112 C1126 1.689 . S
C2137 C33 0.493 . S
C2142 C524 0.479 . S
C2167 C564 0.485 . S
C2172 C92 0.485 . S
C2197 C170 0.477 . S
C2202 C642 0.477 . S
C2227 C229 0.475 . S
C2232 C682 0.489 . S
C2257 C288 0.471 . S
C2262 C741 0.486 . S
C2287 C328 0.490 . S
C2292 C819 0.475 . S
C2317 C859 0.488 . S
C2322 C387 0.488 . S
C2347 C937 0.480 . S
C2352 C465 0.480 . S
C2377 C505 0.492 . S
C2382 C977 0.492 . S
C2407 C583 0.473 . S
C2412 C1409 0.473 . S
C2437 C1272 0.491 . S
C2442 C623 0.491 . S
C2467 C1350 0.473 . S
C2472 C701 0.473 . S
C2497 C1055 0.473 . S
C2502 C760 0.473 . S
C2527 C1095 0.491 . S
C2532 C800 0.491 . S
C2557 C878 0.473 . S
C2562 C1173 0.473 . S
C2587 C918 0.492 . S
C2592 C1213 0.492 . S
C2617 C52 0.480 . S
C2622 C996 0.480 . S
C2647 C1036 0.485 . S
C2652 C269 0.485 . S
C2677 C1114 0.477 . S
C2682 C347 0.477 . S
C2707 C1154 0.489 . S
C2712 C406 0.475 . S
C2737 C1232 0.479 . S
C2742 C446 0.493 . S
C2767 C1291 0.475 . S
C2772 C151 0.490 . S
C2797 C210 0.488 . S
C2802 C1331 0.488 . S
C2827 C1390 0.486 . S
C2832 C111 0.471 . S
