# Generated by pormake.
# Topology wgi, (5)-cn, num edge types: 1
# Building blocks:
#     Node 0, Type 0, BuildingBlock: BEQFEK_clean_sbu_0, # of connection points: 5
#     Node 1, Type 0, BuildingBlock: BEQFEK_clean_sbu_0, # of connection points: 5
#     Node 2, Type 0, BuildingBlock: BEQFEK_clean_sbu_0, # of connection points: 5
#     Node 3, Type 0, BuildingBlock: BEQFEK_clean_sbu_0, # of connection points: 5
#     Node 4, Type 0, BuildingBlock: BEQFEK_clean_sbu_0, # of connection points: 5
#     Node 5, Type 0, BuildingBlock: BEQFEK_clean_sbu_0, # of connection points: 5
#     Node 6, Type 0, BuildingBlock: BEQFEK_clean_sbu_0, # of connection points: 5
#     Node 7, Type 0, BuildingBlock: BEQFEK_clean_sbu_0, # of connection points: 5
#     Node 8, Type 0, BuildingBlock: BEQFEK_clean_sbu_0, # of connection points: 5
#     Node 9, Type 0, BuildingBlock: BEQFEK_clean_sbu_0, # of connection points: 5
#     Node 10, Type 0, BuildingBlock: BEQFEK_clean_sbu_0, # of connection points: 5
#     Node 11, Type 0, BuildingBlock: BEQFEK_clean_sbu_0, # of connection points: 5
#     Node 12, Type 0, BuildingBlock: BEQFEK_clean_sbu_0, # of connection points: 5
#     Node 13, Type 0, BuildingBlock: BEQFEK_clean_sbu_0, # of connection points: 5
#     Node 14, Type 0, BuildingBlock: BEQFEK_clean_sbu_0, # of connection points: 5
#     Node 15, Type 0, BuildingBlock: BEQFEK_clean_sbu_0, # of connection points: 5
#     Node 16, Type 0, BuildingBlock: BEQFEK_clean_sbu_0, # of connection points: 5
#     Node 17, Type 0, BuildingBlock: BEQFEK_clean_sbu_0, # of connection points: 5
#     Node 18, Type 0, BuildingBlock: BEQFEK_clean_sbu_0, # of connection points: 5
#     Node 19, Type 0, BuildingBlock: BEQFEK_clean_sbu_0, # of connection points: 5
#     Node 20, Type 0, BuildingBlock: BEQFEK_clean_sbu_0, # of connection points: 5
#     Node 21, Type 0, BuildingBlock: BEQFEK_clean_sbu_0, # of connection points: 5
#     Node 22, Type 0, BuildingBlock: BEQFEK_clean_sbu_0, # of connection points: 5
#     Node 23, Type 0, BuildingBlock: BEQFEK_clean_sbu_0, # of connection points: 5
#     Node 24, Type 0, BuildingBlock: BEQFEK_clean_sbu_0, # of connection points: 5
#     Node 25, Type 0, BuildingBlock: BEQFEK_clean_sbu_0, # of connection points: 5
#     Node 26, Type 0, BuildingBlock: BEQFEK_clean_sbu_0, # of connection points: 5
#     Node 27, Type 0, BuildingBlock: BEQFEK_clean_sbu_0, # of connection points: 5
#     Node 28, Type 0, BuildingBlock: BEQFEK_clean_sbu_0, # of connection points: 5
#     Node 29, Type 0, BuildingBlock: BEQFEK_clean_sbu_0, # of connection points: 5
#     Node 30, Type 0, BuildingBlock: BEQFEK_clean_sbu_0, # of connection points: 5
#     Node 31, Type 0, BuildingBlock: BEQFEK_clean_sbu_0, # of connection points: 5
#     Edge 32, Type (0, 0), BuildingBlock: AJUNOK_clean_linker_0, # of connection points: 2
#     Edge 33, Type (0, 0), BuildingBlock: AJUNOK_clean_linker_0, # of connection points: 2
#     Edge 34, Type (0, 0), BuildingBlock: AJUNOK_clean_linker_0, # of connection points: 2
#     Edge 35, Type (0, 0), BuildingBlock: AJUNOK_clean_linker_0, # of connection points: 2
#     Edge 36, Type (0, 0), BuildingBlock: AJUNOK_clean_linker_0, # of connection points: 2
#     Edge 37, Type (0, 0), BuildingBlock: AJUNOK_clean_linker_0, # of connection points: 2
#     Edge 38, Type (0, 0), BuildingBlock: AJUNOK_clean_linker_0, # of connection points: 2
#     Edge 39, Type (0, 0), BuildingBlock: AJUNOK_clean_linker_0, # of connection points: 2
#     Edge 40, Type (0, 0), BuildingBlock: AJUNOK_clean_linker_0, # of connection points: 2
#     Edge 41, Type (0, 0), BuildingBlock: AJUNOK_clean_linker_0, # of connection points: 2
#     Edge 42, Type (0, 0), BuildingBlock: AJUNOK_clean_linker_0, # of connection points: 2
#     Edge 43, Type (0, 0), BuildingBlock: AJUNOK_clean_linker_0, # of connection points: 2
#     Edge 44, Type (0, 0), BuildingBlock: AJUNOK_clean_linker_0, # of connection points: 2
#     Edge 45, Type (0, 0), BuildingBlock: AJUNOK_clean_linker_0, # of connection points: 2
#     Edge 46, Type (0, 0), BuildingBlock: AJUNOK_clean_linker_0, # of connection points: 2
#     Edge 47, Type (0, 0), BuildingBlock: AJUNOK_clean_linker_0, # of connection points: 2
#     Edge 48, Type (0, 0), BuildingBlock: AJUNOK_clean_linker_0, # of connection points: 2
#     Edge 49, Type (0, 0), BuildingBlock: AJUNOK_clean_linker_0, # of connection points: 2
#     Edge 50, Type (0, 0), BuildingBlock: AJUNOK_clean_linker_0, # of connection points: 2
#     Edge 51, Type (0, 0), BuildingBlock: AJUNOK_clean_linker_0, # of connection points: 2
#     Edge 52, Type (0, 0), BuildingBlock: AJUNOK_clean_linker_0, # of connection points: 2
#     Edge 53, Type (0, 0), BuildingBlock: AJUNOK_clean_linker_0, # of connection points: 2
#     Edge 54, Type (0, 0), BuildingBlock: AJUNOK_clean_linker_0, # of connection points: 2
#     Edge 55, Type (0, 0), BuildingBlock: AJUNOK_clean_linker_0, # of connection points: 2
#     Edge 56, Type (0, 0), BuildingBlock: AJUNOK_clean_linker_0, # of connection points: 2
#     Edge 57, Type (0, 0), BuildingBlock: AJUNOK_clean_linker_0, # of connection points: 2
#     Edge 58, Type (0, 0), BuildingBlock: AJUNOK_clean_linker_0, # of connection points: 2
#     Edge 59, Type (0, 0), BuildingBlock: AJUNOK_clean_linker_0, # of connection points: 2
#     Edge 60, Type (0, 0), BuildingBlock: AJUNOK_clean_linker_0, # of connection points: 2
#     Edge 61, Type (0, 0), BuildingBlock: AJUNOK_clean_linker_0, # of connection points: 2
#     Edge 62, Type (0, 0), BuildingBlock: AJUNOK_clean_linker_0, # of connection points: 2
#     Edge 63, Type (0, 0), BuildingBlock: AJUNOK_clean_linker_0, # of connection points: 2
#     Edge 64, Type (0, 0), BuildingBlock: AJUNOK_clean_linker_0, # of connection points: 2
#     Edge 65, Type (0, 0), BuildingBlock: AJUNOK_clean_linker_0, # of connection points: 2
#     Edge 66, Type (0, 0), BuildingBlock: AJUNOK_clean_linker_0, # of connection points: 2
#     Edge 67, Type (0, 0), BuildingBlock: AJUNOK_clean_linker_0, # of connection points: 2
#     Edge 68, Type (0, 0), BuildingBlock: AJUNOK_clean_linker_0, # of connection points: 2
#     Edge 69, Type (0, 0), BuildingBlock: AJUNOK_clean_linker_0, # of connection points: 2
#     Edge 70, Type (0, 0), BuildingBlock: AJUNOK_clean_linker_0, # of connection points: 2
#     Edge 71, Type (0, 0), BuildingBlock: AJUNOK_clean_linker_0, # of connection points: 2
#     Edge 72, Type (0, 0), BuildingBlock: AJUNOK_clean_linker_0, # of connection points: 2
#     Edge 73, Type (0, 0), BuildingBlock: AJUNOK_clean_linker_0, # of connection points: 2
#     Edge 74, Type (0, 0), BuildingBlock: AJUNOK_clean_linker_0, # of connection points: 2
#     Edge 75, Type (0, 0), BuildingBlock: AJUNOK_clean_linker_0, # of connection points: 2
#     Edge 76, Type (0, 0), BuildingBlock: AJUNOK_clean_linker_0, # of connection points: 2
#     Edge 77, Type (0, 0), BuildingBlock: AJUNOK_clean_linker_0, # of connection points: 2
#     Edge 78, Type (0, 0), BuildingBlock: AJUNOK_clean_linker_0, # of connection points: 2
#     Edge 79, Type (0, 0), BuildingBlock: AJUNOK_clean_linker_0, # of connection points: 2
#     Edge 80, Type (0, 0), BuildingBlock: AJUNOK_clean_linker_0, # of connection points: 2
#     Edge 81, Type (0, 0), BuildingBlock: AJUNOK_clean_linker_0, # of connection points: 2
#     Edge 82, Type (0, 0), BuildingBlock: AJUNOK_clean_linker_0, # of connection points: 2
#     Edge 83, Type (0, 0), BuildingBlock: AJUNOK_clean_linker_0, # of connection points: 2
#     Edge 84, Type (0, 0), BuildingBlock: AJUNOK_clean_linker_0, # of connection points: 2
#     Edge 85, Type (0, 0), BuildingBlock: AJUNOK_clean_linker_0, # of connection points: 2
#     Edge 86, Type (0, 0), BuildingBlock: AJUNOK_clean_linker_0, # of connection points: 2
#     Edge 87, Type (0, 0), BuildingBlock: AJUNOK_clean_linker_0, # of connection points: 2
#     Edge 88, Type (0, 0), BuildingBlock: AJUNOK_clean_linker_0, # of connection points: 2
#     Edge 89, Type (0, 0), BuildingBlock: AJUNOK_clean_linker_0, # of connection points: 2
#     Edge 90, Type (0, 0), BuildingBlock: AJUNOK_clean_linker_0, # of connection points: 2
#     Edge 91, Type (0, 0), BuildingBlock: AJUNOK_clean_linker_0, # of connection points: 2
#     Edge 92, Type (0, 0), BuildingBlock: AJUNOK_clean_linker_0, # of connection points: 2
#     Edge 93, Type (0, 0), BuildingBlock: AJUNOK_clean_linker_0, # of connection points: 2
#     Edge 94, Type (0, 0), BuildingBlock: AJUNOK_clean_linker_0, # of connection points: 2
#     Edge 95, Type (0, 0), BuildingBlock: AJUNOK_clean_linker_0, # of connection points: 2
#     Edge 96, Type (0, 0), BuildingBlock: AJUNOK_clean_linker_0, # of connection points: 2
#     Edge 97, Type (0, 0), BuildingBlock: AJUNOK_clean_linker_0, # of connection points: 2
#     Edge 98, Type (0, 0), BuildingBlock: AJUNOK_clean_linker_0, # of connection points: 2
#     Edge 99, Type (0, 0), BuildingBlock: AJUNOK_clean_linker_0, # of connection points: 2
#     Edge 100, Type (0, 0), BuildingBlock: AJUNOK_clean_linker_0, # of connection points: 2
#     Edge 101, Type (0, 0), BuildingBlock: AJUNOK_clean_linker_0, # of connection points: 2
#     Edge 102, Type (0, 0), BuildingBlock: AJUNOK_clean_linker_0, # of connection points: 2
#     Edge 103, Type (0, 0), BuildingBlock: AJUNOK_clean_linker_0, # of connection points: 2
#     Edge 104, Type (0, 0), BuildingBlock: AJUNOK_clean_linker_0, # of connection points: 2
#     Edge 105, Type (0, 0), BuildingBlock: AJUNOK_clean_linker_0, # of connection points: 2
#     Edge 106, Type (0, 0), BuildingBlock: AJUNOK_clean_linker_0, # of connection points: 2
#     Edge 107, Type (0, 0), BuildingBlock: AJUNOK_clean_linker_0, # of connection points: 2
#     Edge 108, Type (0, 0), BuildingBlock: AJUNOK_clean_linker_0, # of connection points: 2
#     Edge 109, Type (0, 0), BuildingBlock: AJUNOK_clean_linker_0, # of connection points: 2
#     Edge 110, Type (0, 0), BuildingBlock: AJUNOK_clean_linker_0, # of connection points: 2
#     Edge 111, Type (0, 0), BuildingBlock: AJUNOK_clean_linker_0, # of connection points: 2
# Relax obj value: 0.190
# Max RMSD: 0.119
# Mean RMSD: 0.119
data_MOF--net-wgi--node1-BEQFEK_clean_sbu_0--edge1-AJUNOK_clean_linker_0
_symmetry_space_group_name_H-M    P1
_symmetry_Int_Tables_number       1
_symmetry_cell_setting            triclinic
loop_
_symmetry_equiv_pos_as_xyz
'x, y, z'
_cell_length_a     60.260357
_cell_length_b     60.248958
_cell_length_c     22.125266
_cell_angle_alpha  90.062962
_cell_angle_beta   89.945767
_cell_angle_gamma 90.006243
loop_
_atom_site_label
_atom_site_type_symbol
_atom_site_fract_x
_atom_site_fract_y
_atom_site_fract_z
_atom_type_partial_charge
Co0 Co 0.10525 0.16582 0.34818 0.0
Co1 Co 0.15737 0.1742 0.34476 0.0
C2 C 0.13138 0.15275 0.24087 0.0
O3 O 0.11306 0.15467 0.26897 0.0
O4 O 0.14975 0.15966 0.2635 0.0
C5 C 0.06124 0.14429 0.34939 0.0
O6 O 0.07015 0.12866 0.31576 0.0
C7 C 0.2039 0.16286 0.38557 0.0
C8 C 0.21896 0.19614 0.38006 0.0
C9 C 0.22295 0.17485 0.4011 0.0
N10 N 0.18927 0.17673 0.35849 0.0
N11 N 0.19877 0.19643 0.35429 0.0
C12 C 0.20003 0.13851 0.39398 0.0
H13 H 0.18448 0.13329 0.37115 0.0
H14 H 0.19898 0.13426 0.4425 0.0
H15 H 0.21429 0.12915 0.37498 0.0
C16 C 0.11763 0.14091 0.45518 0.0
N17 N 0.12356 0.15168 0.40474 0.0
N18 N 0.14428 0.15835 0.40968 0.0
C19 C 0.15127 0.15419 0.46639 0.0
C20 C 0.13493 0.14223 0.49577 0.0
C21 C 0.09461 0.13297 0.46861 0.0
H22 H 0.08352 0.14745 0.47551 0.0
H23 H 0.08841 0.12305 0.43001 0.0
H24 H 0.09424 0.12252 0.50991 0.0
O25 O 0.10912 0.19869 0.35427 0.0
O26 O 0.14534 0.20489 0.34915 0.0
H27 H 0.17577 0.18054 0.46872 0.0
H28 H 0.16168 0.17568 0.53862 0.0
C29 C 0.16884 0.16744 0.49815 0.0
H30 H 0.18205 0.15622 0.5147 0.0
H31 H 0.1909 0.21052 0.33721 0.0
O32 O 0.07319 0.16053 0.36641 0.0
C33 C 0.12552 0.21204 0.35438 0.0
Co34 Co 0.08906 0.85323 0.58988 0.0
Co35 Co 0.08567 0.9062 0.59194 0.0
C36 C 0.10741 0.88288 0.48901 0.0
O37 O 0.10321 0.86453 0.51536 0.0
O38 O 0.10127 0.90159 0.51136 0.0
C39 C 0.11508 0.81283 0.60272 0.0
O40 O 0.13221 0.8262 0.59792 0.0
C41 C 0.09176 0.95539 0.62897 0.0
C42 C 0.0613 0.95744 0.68418 0.0
C43 C 0.08051 0.96885 0.67058 0.0
N44 N 0.0799 0.93647 0.62067 0.0
N45 N 0.06141 0.93847 0.65252 0.0
C46 C 0.11409 0.95977 0.60206 0.0
H47 H 0.12074 0.9446 0.58001 0.0
H48 H 0.12568 0.96588 0.63733 0.0
H49 H 0.1125 0.97306 0.56764 0.0
C50 C 0.10722 0.86174 0.71015 0.0
N51 N 0.1002 0.86897 0.65603 0.0
N52 N 0.10142 0.8908 0.65425 0.0
C53 C 0.11053 0.89793 0.70644 0.0
C54 C 0.1141 0.87985 0.74349 0.0
C55 C 0.10416 0.83851 0.73285 0.0
H56 H 0.09012 0.83035 0.70936 0.0
H57 H 0.11957 0.82892 0.72456 0.0
H58 H 0.10084 0.83839 0.7822 0.0
O59 O 0.05676 0.85666 0.58866 0.0
O60 O 0.05466 0.89332 0.5883 0.0
H61 H 0.10122 0.93101 0.73007 0.0
H62 H 0.12746 0.92244 0.76088 0.0
C63 C 0.11648 0.9214 0.72072 0.0
H64 H 0.12539 0.92858 0.68177 0.0
H65 H 0.04957 0.92599 0.6571 0.0
O66 O 0.09563 0.82094 0.5989 0.0
C67 C 0.04527 0.87434 0.58892 0.0
Co68 Co 0.4128 0.84139 0.84568 0.0
Co69 Co 0.35984 0.83941 0.85094 0.0
C70 C 0.38196 0.8579 0.74372 0.0
O71 O 0.40052 0.854 0.76963 0.0
O72 O 0.3633 0.85276 0.76812 0.0
C73 C 0.45441 0.86628 0.85624 0.0
O74 O 0.44171 0.88399 0.85349 0.0
C75 C 0.31053 0.84362 0.89013 0.0
C76 C 0.31314 0.81927 0.96457 0.0
C77 C 0.29887 0.8345 0.93914 0.0
N78 N 0.33102 0.83435 0.8884 0.0
N79 N 0.332 0.81959 0.93256 0.0
C80 C 0.30333 0.86236 0.85055 0.0
H81 H 0.31794 0.8706 0.82977 0.0
H82 H 0.29336 0.87451 0.87682 0.0
H83 H 0.2928 0.85572 0.81364 0.0
C84 C 0.40469 0.86222 0.96382 0.0
N85 N 0.39771 0.85455 0.91008 0.0
N86 N 0.37606 0.85695 0.9064 0.0
C87 C 0.36885 0.86771 0.95587 0.0
C88 C 0.38654 0.87071 -0.00552 0.0
C89 C 0.42743 0.85827 0.98893 0.0
H90 H 0.4355 0.84409 0.9657 0.0
H91 H 0.43764 0.87339 0.98222 0.0
H92 H 0.42667 0.85481 0.03815 0.0
O93 O 0.40865 0.80918 0.85001 0.0
O94 O 0.372 0.80844 0.8511 0.0
H95 H 0.33545 0.86223 0.98594 0.0
H96 H 0.34542 0.88987 -0.00204 0.0
C97 C 0.34561 0.87563 0.96604 0.0
H98 H 0.33819 0.88081 0.92252 0.0
H99 H 0.34621 0.81058 0.94352 0.0
O100 O 0.44546 0.84721 0.8522 0.0
C101 C 0.39057 0.79839 0.85251 0.0
Co102 Co 0.42143 0.16161 0.08827 0.0
Co103 Co 0.4264 0.10913 0.10362 0.0
C104 C 0.40442 0.12939 -0.00515 0.0
O105 O 0.4083 0.14873 0.01564 0.0
O106 O 0.41071 0.11172 0.02233 0.0
C107 C 0.39801 0.2038 0.0772 0.0
O108 O 0.38153 0.19189 0.0558 0.0
C109 C 0.41784 0.0617 0.14732 0.0
C110 C 0.45025 0.05635 0.19161 0.0
C111 C 0.42942 0.04718 0.18509 0.0
N112 N 0.43121 0.07911 0.13413 0.0
N113 N 0.45068 0.07527 0.15972 0.0
C114 C 0.394 0.06008 0.12939 0.0
H115 H 0.38768 0.07651 0.11456 0.0
H116 H 0.3839 0.0536 0.16747 0.0
H117 H 0.3925 0.04819 0.09129 0.0
C118 C 0.39766 0.15641 0.20273 0.0
N119 N 0.40818 0.14762 0.15482 0.0
N120 N 0.41065 0.12607 0.16297 0.0
C121 C 0.4023 0.12074 0.21768 0.0
C122 C 0.39355 0.1397 0.24367 0.0
C123 C 0.39303 0.18063 0.2115 0.0
H124 H 0.40849 0.19032 0.205 0.0
H125 H 0.38058 0.18598 0.17778 0.0
H126 H 0.38611 0.18424 0.2569 0.0
O127 O 0.454 0.15783 0.09171 0.0
O128 O 0.45711 0.12135 0.09822 0.0
H129 H 0.42356 0.09379 0.24302 0.0
H130 H 0.40323 0.10055 0.29906 0.0
C131 C 0.4062 0.09921 0.24974 0.0
H132 H 0.39469 0.08654 0.23176 0.0
H133 H 0.46388 0.08641 0.15953 0.0
O134 O 0.41605 0.19421 0.09138 0.0
C135 C 0.46596 0.1405 0.09569 0.0
Co136 Co 0.09995 0.83993 0.14917 0.0
Co137 Co 0.15264 0.83628 0.14261 0.0
C138 C 0.13093 0.8574 0.24862 0.0
O139 O 0.11225 0.85354 0.22353 0.0
O140 O 0.14935 0.85133 0.22432 0.0
C141 C 0.0604 0.86672 0.1377 0.0
O142 O 0.07442 0.88334 0.14199 0.0
C143 C 0.20161 0.84129 0.10323 0.0
C144 C 0.2011 0.81356 0.03774 0.0
C145 C 0.21388 0.8312 0.05697 0.0
N146 N 0.18196 0.83049 0.1086 0.0
N147 N 0.18233 0.81363 0.07024 0.0
C148 C 0.20758 0.86194 0.13694 0.0
H149 H 0.19297 0.86853 0.16179 0.0
H150 H 0.21414 0.87462 0.10522 0.0
H151 H 0.22092 0.85805 0.16979 0.0
C152 C 0.10733 0.85987 0.03032 0.0
N153 N 0.11498 0.85168 0.08274 0.0
N154 N 0.13678 0.85298 0.0836 0.0
C155 C 0.14352 0.8634 0.03293 0.0
C156 C 0.12517 0.86795 -0.0023 0.0
C157 C 0.0842 0.85626 0.00736 0.0
H158 H 0.07649 0.84175 0.02985 0.0
H159 H 0.07405 0.87124 0.01657 0.0
H160 H 0.08422 0.8534 0.95779 0.0
O161 O 0.10314 0.80759 0.14859 0.0
O162 O 0.13975 0.80535 0.14605 0.0
H163 H 0.1756 0.85398 0.00091 0.0
H164 H 0.16783 0.88192 0.98199 0.0
C165 C 0.167 0.86902 0.01769 0.0
H166 H 0.17543 0.87537 0.05851 0.0
H167 H 0.169 0.80292 0.06298 0.0
O168 O 0.06777 0.847 0.14205 0.0
C169 C 0.12075 0.79603 0.1467 0.0
Co170 Co 0.42232 0.85007 0.39959 0.0
Co171 Co 0.4245 0.90306 0.39509 0.0
C172 C 0.40506 0.88043 0.50107 0.0
O173 O 0.4091 0.86188 0.47524 0.0
O174 O 0.41061 0.89909 0.47738 0.0
C175 C 0.39807 0.80813 0.38804 0.0
O176 O 0.38014 0.82036 0.39389 0.0
C177 C 0.41886 0.9525 0.35935 0.0
C178 C 0.44409 0.95174 0.28671 0.0
C179 C 0.42787 0.96497 0.31192 0.0
N180 N 0.42911 0.93246 0.36045 0.0
N181 N 0.44442 0.93262 0.31754 0.0
C182 C 0.39941 0.9586 0.39783 0.0
H183 H 0.39298 0.94382 0.42215 0.0
H184 H 0.38617 0.96606 0.36954 0.0
H185 H 0.40464 0.97123 0.43143 0.0
C186 C 0.4013 0.858 0.28215 0.0
N187 N 0.40941 0.86524 0.33512 0.0
N188 N 0.40737 0.88696 0.33807 0.0
C189 C 0.39644 0.89399 0.28871 0.0
C190 C 0.39264 0.87604 0.25138 0.0
C191 C 0.40539 0.8352 0.25733 0.0
H192 H 0.4202 0.82767 0.27881 0.0
H193 H 0.39074 0.82459 0.26658 0.0
H194 H 0.40799 0.8357 0.20769 0.0
O195 O 0.45446 0.85437 0.39688 0.0
O196 O 0.45566 0.89103 0.395 0.0
H197 H 0.40383 0.92662 0.25656 0.0
H198 H 0.37572 0.91802 0.24392 0.0
C199 C 0.38971 0.91743 0.27651 0.0
H200 H 0.3845 0.92548 0.31919 0.0
H201 H 0.45418 0.91894 0.30622 0.0
O202 O 0.41697 0.81745 0.39122 0.0
C203 C 0.46547 0.87231 0.39427 0.0
Co204 Co 0.40772 0.16927 0.6543 0.0
Co205 Co 0.35479 0.17424 0.65345 0.0
C206 C 0.38043 0.15161 0.75549 0.0
O207 O 0.39898 0.15565 0.73024 0.0
O208 O 0.36197 0.15784 0.73207 0.0
C209 C 0.45191 0.14879 0.65624 0.0
O210 O 0.4422 0.13288 0.68705 0.0
C211 C 0.30931 0.16198 0.60431 0.0
C212 C 0.2933 0.19473 0.61094 0.0
C213 C 0.29044 0.17374 0.58674 0.0
N214 N 0.32287 0.17564 0.63607 0.0
N215 N 0.31262 0.19494 0.64139 0.0
C216 C 0.31449 0.13834 0.58908 0.0
H217 H 0.33207 0.13436 0.59907 0.0
H218 H 0.31047 0.13477 0.54112 0.0
H219 H 0.30377 0.12742 0.617 0.0
C220 C 0.39835 0.14675 0.54101 0.0
N221 N 0.39112 0.15582 0.59278 0.0
N222 N 0.37006 0.16125 0.58709 0.0
C223 C 0.36401 0.15802 0.52918 0.0
C224 C 0.38141 0.14792 0.49922 0.0
C225 C 0.42165 0.13917 0.5299 0.0
H226 H 0.4272 0.12874 0.56819 0.0
H227 H 0.4229 0.1293 0.48766 0.0
H228 H 0.43274 0.15381 0.52635 0.0
O229 O 0.40188 0.20202 0.65299 0.0
O230 O 0.36524 0.20546 0.65717 0.0
H231 H 0.35196 0.17863 0.45698 0.0
H232 H 0.33253 0.15881 0.48441 0.0
C233 C 0.3457 0.17049 0.49864 0.0
H234 H 0.33889 0.18353 0.52865 0.0
H235 H 0.31961 0.20889 0.66177 0.0
O236 O 0.44039 0.16534 0.63923 0.0
C237 C 0.3845 0.21413 0.65423 0.0
Co238 Co 0.08952 0.16159 0.89907 0.0
Co239 Co 0.08491 0.10871 0.89269 0.0
C240 C 0.10638 0.13301 -0.0014 0.0
O241 O 0.10239 0.15188 0.9752 0.0
O242 O 0.10036 0.1148 0.97324 0.0
C243 C 0.11002 0.20554 0.90688 0.0
O244 O 0.12513 0.19559 0.93992 0.0
C245 C 0.09695 0.06239 0.84687 0.0
C246 C 0.06353 0.04747 0.84867 0.0
C247 C 0.08502 0.04358 0.82965 0.0
N248 N 0.08285 0.07703 0.87328 0.0
N249 N 0.06306 0.06755 0.8752 0.0
C250 C 0.12137 0.06592 0.83981 0.0
H251 H 0.12575 0.08364 0.84634 0.0
H252 H 0.12709 0.05987 0.79504 0.0
H253 H 0.13013 0.05599 0.87462 0.0
C254 C 0.11576 0.15331 0.79047 0.0
N255 N 0.10401 0.14577 0.8377 0.0
N256 N 0.09956 0.12454 0.82973 0.0
C257 C 0.10658 0.11861 0.77421 0.0
C258 C 0.11784 0.13633 0.74915 0.0
C259 C 0.12363 0.17671 0.78307 0.0
H260 H 0.133 0.18173 0.82387 0.0
H261 H 0.13471 0.1785 0.74327 0.0
H262 H 0.10915 0.18789 0.7776 0.0
O263 O 0.05688 0.15611 0.89441 0.0
O264 O 0.05374 0.11945 0.89445 0.0
H265 H 0.09199 0.10501 0.69366 0.0
H266 H 0.11097 0.08718 0.73135 0.0
C267 C 0.09757 0.09941 0.73896 0.0
H268 H 0.08324 0.09174 0.7622 0.0
H269 H 0.04886 0.07526 0.89201 0.0
O270 O 0.09378 0.19426 0.88675 0.0
C271 C 0.04493 0.13865 0.89304 0.0
Co272 Co 0.9103 0.8394 0.65677 0.0
Co273 Co 0.85746 0.83666 0.64644 0.0
C274 C 0.87824 0.8586 0.75138 0.0
O275 O 0.89716 0.85433 0.72806 0.0
O276 O 0.86004 0.85236 0.72656 0.0
C277 C 0.95054 0.8654 0.64232 0.0
O278 O 0.93677 0.8823 0.64151 0.0
C279 C 0.80916 0.8427 0.60236 0.0
C280 C 0.80903 0.81329 0.54266 0.0
C281 C 0.79677 0.83182 0.55772 0.0
N282 N 0.82826 0.83123 0.61126 0.0
N283 N 0.82748 0.81342 0.57636 0.0
C284 C 0.80389 0.86452 0.63116 0.0
H285 H 0.81838 0.87087 0.65686 0.0
H286 H 0.79871 0.87666 0.5962 0.0
H287 H 0.78977 0.86233 0.66279 0.0
C288 C 0.90436 0.85595 0.53424 0.0
N289 N 0.89605 0.84951 0.58761 0.0
N290 N 0.87442 0.85227 0.58775 0.0
C291 C 0.86851 0.86241 0.53601 0.0
C292 C 0.88722 0.86465 0.50004 0.0
C293 C 0.92743 0.85067 0.5133 0.0
H294 H 0.93445 0.83673 0.53979 0.0
H295 H 0.93816 0.86548 0.51893 0.0
H296 H 0.92746 0.84604 0.46472 0.0
O297 O 0.90656 0.80743 0.66069 0.0
O298 O 0.86997 0.80552 0.65316 0.0
H299 H 0.83465 0.85854 0.50909 0.0
H300 H 0.8467 0.88487 0.48857 0.0
C301 C 0.84602 0.87189 0.52408 0.0
H302 H 0.83951 0.87941 0.56612 0.0
H303 H 0.8404 0.80202 0.57201 0.0
O304 O 0.94276 0.846 0.6507 0.0
C305 C 0.88886 0.79607 0.65745 0.0
Co306 Co 0.92393 0.16053 0.40317 0.0
Co307 Co 0.92566 0.1078 0.39397 0.0
C308 C 0.90258 0.12975 0.49659 0.0
O309 O 0.90775 0.14845 0.47354 0.0
O310 O 0.90878 0.11133 0.47272 0.0
C311 C 0.89955 0.20193 0.39133 0.0
O312 O 0.88173 0.1895 0.39629 0.0
C313 C 0.91809 0.05985 0.34976 0.0
C314 C 0.94891 0.05775 0.29599 0.0
C315 C 0.92912 0.04691 0.30657 0.0
N316 N 0.93064 0.07803 0.36168 0.0
N317 N 0.9493 0.07597 0.33067 0.0
C318 C 0.89534 0.05594 0.37458 0.0
H319 H 0.88902 0.07104 0.39772 0.0
H320 H 0.88389 0.05074 0.33791 0.0
H321 H 0.8961 0.04219 0.40782 0.0
C322 C 0.90818 0.15499 0.27917 0.0
N323 N 0.91389 0.14654 0.33314 0.0
N324 N 0.91157 0.12481 0.3321 0.0
C325 C 0.90292 0.119 0.27818 0.0
C326 C 0.90094 0.1378 0.24295 0.0
C327 C 0.91255 0.1784 0.25983 0.0
H328 H 0.92667 0.18547 0.28549 0.0
H329 H 0.89751 0.18856 0.26813 0.0
H330 H 0.91643 0.17921 0.21084 0.0
O331 O 0.95597 0.15607 0.4093 0.0
O332 O 0.95706 0.11943 0.4029 0.0
H333 H 0.90997 0.08573 0.25085 0.0
H334 H 0.88446 0.09657 0.22085 0.0
C335 C 0.89539 0.09623 0.2612 0.0
H336 H 0.8859 0.08908 0.29917 0.0
H337 H 0.96164 0.08805 0.32878 0.0
O338 O 0.91856 0.19294 0.39598 0.0
C339 C 0.96695 0.1381 0.40723 0.0
Co340 Co 0.60233 0.17278 0.15025 0.0
Co341 Co 0.65503 0.1771 0.14384 0.0
C342 C 0.63071 0.15515 0.24901 0.0
O343 O 0.61197 0.15935 0.2253 0.0
O344 O 0.64897 0.16114 0.22397 0.0
C345 C 0.55947 0.15127 0.15638 0.0
O346 O 0.5705 0.13533 0.18348 0.0
C347 C 0.70124 0.16508 0.09729 0.0
C348 C 0.71678 0.19814 0.10405 0.0
C349 C 0.72036 0.17695 0.08218 0.0
N350 N 0.68676 0.179 0.12502 0.0
N351 N 0.69658 0.19855 0.12987 0.0
C352 C 0.69739 0.14079 0.0881 0.0
H353 H 0.67959 0.13661 0.09388 0.0
H354 H 0.70347 0.13543 0.04308 0.0
H355 H 0.70708 0.13152 0.12242 0.0
C356 C 0.6099 0.14852 0.03787 0.0
N357 N 0.6178 0.15888 0.08711 0.0
N358 N 0.6391 0.1631 0.07961 0.0
C359 C 0.64476 0.15725 0.02281 0.0
C360 C 0.62674 0.14711 -0.00403 0.0
C361 C 0.58623 0.14177 0.02871 0.0
H362 H 0.58113 0.13067 0.06602 0.0
H363 H 0.58389 0.13267 0.98557 0.0
H364 H 0.57548 0.15671 0.02874 0.0
O365 O 0.60781 0.20532 0.14756 0.0
O366 O 0.64445 0.20849 0.1469 0.0
H367 H 0.65896 0.17279 0.94434 0.0
H368 H 0.67603 0.15259 0.97997 0.0
C369 C 0.66426 0.16629 0.98899 0.0
H370 H 0.67232 0.17997 0.01407 0.0
H371 H 0.68909 0.21257 0.14851 0.0
O372 O 0.56973 0.1687 0.14009 0.0
C373 C 0.62523 0.2173 0.14624 0.0
Co374 Co 0.59583 0.85716 0.89787 0.0
Co375 Co 0.58827 0.90925 0.89937 0.0
C376 C 0.61111 0.88388 0.00189 0.0
O377 O 0.60844 0.86543 0.97498 0.0
O378 O 0.60408 0.90219 0.97922 0.0
C379 C 0.61722 0.81332 0.89782 0.0
O380 O 0.63274 0.82233 0.93156 0.0
C381 C 0.59899 0.9558 0.85742 0.0
C382 C 0.56572 0.97073 0.86583 0.0
C383 C 0.58679 0.97482 0.84342 0.0
N384 N 0.58544 0.94103 0.88511 0.0
N385 N 0.56575 0.95044 0.89105 0.0
C386 C 0.62329 0.95217 0.84734 0.0
H387 H 0.628 0.93482 0.85814 0.0
H388 H 0.62808 0.95626 0.80036 0.0
H389 H 0.63269 0.96355 0.87735 0.0
C390 C 0.61935 0.86813 0.78731 0.0
N391 N 0.6091 0.87467 0.83808 0.0
N392 N 0.60303 0.89557 0.83277 0.0
C393 C 0.60732 0.90219 0.77569 0.0
C394 C 0.61849 0.88528 0.74625 0.0
C395 C 0.62703 0.84494 0.7749 0.0
H396 H 0.63732 0.83908 0.81312 0.0
H397 H 0.63709 0.84408 0.73289 0.0
H398 H 0.61244 0.83386 0.76996 0.0
O399 O 0.56296 0.86115 0.89598 0.0
O400 O 0.55739 0.89744 0.90025 0.0
H401 H 0.58821 0.91497 0.70147 0.0
H402 H 0.60788 0.93384 0.7323 0.0
C403 C 0.59566 0.92088 0.74444 0.0
H404 H 0.58221 0.92782 0.77281 0.0
H405 H 0.55188 0.94249 0.90919 0.0
O406 O 0.60093 0.82515 0.88079 0.0
C407 C 0.54984 0.87772 0.89699 0.0
Co408 Co 0.9097 0.17294 0.82913 0.0
Co409 Co 0.8569 0.17709 0.83977 0.0
C410 C 0.87811 0.15394 0.73495 0.0
O411 O 0.89708 0.15794 0.75795 0.0
O412 O 0.86007 0.16065 0.75988 0.0
C413 C 0.95036 0.14756 0.8393 0.0
O414 O 0.93691 0.13041 0.83725 0.0
C415 C 0.80854 0.17021 0.88134 0.0
C416 C 0.80546 0.20185 0.93103 0.0
C417 C 0.79483 0.18186 0.92144 0.0
N418 N 0.82685 0.18265 0.87004 0.0
N419 N 0.82424 0.20178 0.89854 0.0
C420 C 0.80498 0.14715 0.85834 0.0
H421 H 0.82054 0.14037 0.83874 0.0
H422 H 0.79878 0.13628 0.89517 0.0
H423 H 0.79208 0.14754 0.82262 0.0
C424 C 0.90395 0.156 0.95153 0.0
N425 N 0.89536 0.16271 0.89863 0.0
N426 N 0.87351 0.16221 0.90156 0.0
C427 C 0.86766 0.15403 0.95609 0.0
C428 C 0.88669 0.14984 0.98894 0.0
C429 C 0.92764 0.15947 0.96993 0.0
H430 H 0.93494 0.17367 0.94506 0.0
H431 H 0.93733 0.14426 0.95996 0.0
H432 H 0.92896 0.16283 0.01913 0.0
O433 O 0.90606 0.20502 0.82501 0.0
O434 O 0.86954 0.20808 0.83214 0.0
H435 H 0.83626 0.16691 0.98411 0.0
H436 H 0.84386 0.14135 0.02088 0.0
C437 C 0.84442 0.15061 0.97761 0.0
H438 H 0.83534 0.14079 0.94361 0.0
H439 H 0.83618 0.21428 0.89996 0.0
O440 O 0.94223 0.16694 0.83429 0.0
C441 C 0.88871 0.21693 0.82782 0.0
Co442 Co 0.5912 0.15955 0.588 0.0
Co443 Co 0.58478 0.10712 0.59313 0.0
C444 C 0.6074 0.13092 0.48802 0.0
O445 O 0.60403 0.14977 0.5122 0.0
O446 O 0.60062 0.11285 0.51253 0.0
C447 C 0.61392 0.20218 0.58315 0.0
O448 O 0.62935 0.1913 0.5534 0.0
C449 C 0.59636 0.06128 0.63979 0.0
C450 C 0.56268 0.04714 0.64382 0.0
C451 C 0.58435 0.04313 0.66127 0.0
N452 N 0.58225 0.07554 0.61225 0.0
N453 N 0.56229 0.06643 0.6133 0.0
C454 C 0.62066 0.06532 0.6481 0.0
H455 H 0.6249 0.08291 0.639 0.0
H456 H 0.62599 0.06038 0.69416 0.0
H457 H 0.62991 0.05474 0.61564 0.0
C458 C 0.61537 0.15069 0.69951 0.0
N459 N 0.60485 0.14334 0.64995 0.0
N460 N 0.59952 0.1223 0.65724 0.0
C461 C 0.6046 0.11638 0.71432 0.0
C462 C 0.61553 0.13387 0.7416 0.0
C463 C 0.6231 0.17404 0.70918 0.0
H464 H 0.60858 0.18533 0.71089 0.0
H465 H 0.63401 0.17897 0.67125 0.0
H466 H 0.63265 0.17574 0.75179 0.0
O467 O 0.55833 0.15522 0.59187 0.0
O468 O 0.55381 0.11868 0.5923 0.0
H469 H 0.57946 0.09108 0.72193 0.0
H470 H 0.58732 0.1037 0.79217 0.0
C471 C 0.59365 0.09779 0.74783 0.0
H472 H 0.60598 0.08465 0.75748 0.0
H473 H 0.54798 0.07422 0.5974 0.0
O474 O 0.59655 0.1919 0.59996 0.0
C475 C 0.54573 0.13823 0.5937 0.0
Co476 Co 0.60204 0.84146 0.33958 0.0
Co477 Co 0.65432 0.83516 0.34753 0.0
C478 C 0.63144 0.85841 0.24226 0.0
O479 O 0.61238 0.85492 0.26506 0.0
O480 O 0.64927 0.85141 0.2675 0.0
C481 C 0.5591 0.86342 0.33159 0.0
O482 O 0.5698 0.87877 0.30116 0.0
C483 C 0.70082 0.84637 0.39083 0.0
C484 C 0.71496 0.81259 0.39217 0.0
C485 C 0.71948 0.8343 0.40814 0.0
N486 N 0.68572 0.8322 0.36702 0.0
N487 N 0.69465 0.81215 0.36709 0.0
C488 C 0.69772 0.87092 0.39593 0.0
H489 H 0.68 0.87546 0.39047 0.0
H490 H 0.70427 0.87707 0.43972 0.0
H491 H 0.70742 0.87911 0.35958 0.0
C492 C 0.61012 0.86609 0.45118 0.0
N493 N 0.61771 0.85472 0.40325 0.0
N494 N 0.63885 0.84996 0.41126 0.0
C495 C 0.64474 0.85662 0.46723 0.0
C496 C 0.62698 0.86768 0.49297 0.0
C497 C 0.58682 0.87429 0.4584 0.0
H498 H 0.57531 0.85996 0.46127 0.0
H499 H 0.58235 0.8845 0.41867 0.0
H500 H 0.58488 0.88471 0.49945 0.0
O501 O 0.60626 0.80869 0.34116 0.0
O502 O 0.64271 0.80417 0.34422 0.0
H503 H 0.67167 0.83337 0.47873 0.0
H504 H 0.65944 0.84318 0.54786 0.0
C505 C 0.66437 0.84805 0.50136 0.0
H506 H 0.6768 0.86146 0.50589 0.0
H507 H 0.68646 0.79787 0.35249 0.0
O508 O 0.56963 0.84646 0.35013 0.0
C509 C 0.62319 0.79606 0.34333 0.0
Co510 Co 0.92182 0.85561 0.089 0.0
Co511 Co 0.92615 0.90828 0.08902 0.0
C512 C 0.90203 0.88258 0.99041 0.0
O513 O 0.90624 0.86414 0.01566 0.0
O514 O 0.90899 0.90096 0.01237 0.0
C515 C 0.89997 0.81238 0.09374 0.0
O516 O 0.88233 0.82325 0.07535 0.0
C517 C 0.91218 0.95435 0.12883 0.0
C518 C 0.94392 0.97194 0.11588 0.0
C519 C 0.92291 0.97446 0.14031 0.0
N520 N 0.92668 0.94037 0.10148 0.0
N521 N 0.94535 0.95138 0.09245 0.0
C522 C 0.88885 0.94829 0.14518 0.0
H523 H 0.88306 0.93422 0.11683 0.0
H524 H 0.88792 0.94318 0.19315 0.0
H525 H 0.87779 0.96286 0.13924 0.0
C526 C 0.90367 0.8642 0.20878 0.0
N527 N 0.91054 0.87176 0.15485 0.0
N528 N 0.9145 0.89325 0.15849 0.0
C529 C 0.91183 0.89961 0.21658 0.0
C530 C 0.90345 0.88179 0.24896 0.0
C531 C 0.90242 0.84006 0.22495 0.0
H532 H 0.91774 0.83156 0.20983 0.0
H533 H 0.88794 0.83245 0.20206 0.0
H534 H 0.9009 0.83735 0.27431 0.0
O535 O 0.95423 0.86151 0.08471 0.0
O536 O 0.95759 0.89822 0.08285 0.0
H537 H 0.93888 0.91325 0.26622 0.0
H538 H 0.91266 0.92671 0.27958 0.0
C539 C 0.92336 0.91906 0.24453 0.0
H540 H 0.92889 0.93127 0.21131 0.0
H541 H 0.95957 0.94444 0.0733 0.0
O542 O 0.91806 0.82294 0.10108 0.0
C543 C 0.96628 0.87891 0.08363 0.0
Co544 Co 0.6017 0.67738 0.82941 0.0
Co545 Co 0.65432 0.67831 0.84106 0.0
C546 C 0.63329 0.65735 0.73474 0.0
O547 O 0.61449 0.66225 0.75785 0.0
O548 O 0.65168 0.663 0.75977 0.0
C549 C 0.56037 0.65309 0.83954 0.0
O550 O 0.57307 0.63539 0.83624 0.0
C551 C 0.7027 0.6721 0.88533 0.0
C552 C 0.70083 0.69802 0.95605 0.0
C553 C 0.71438 0.68143 0.934 0.0
N554 N 0.68289 0.68261 0.88048 0.0
N555 N 0.68234 0.69825 0.92245 0.0
C556 C 0.70914 0.65219 0.84899 0.0
H557 H 0.69431 0.6446 0.82758 0.0
H558 H 0.71782 0.6399 0.8779 0.0
H559 H 0.72068 0.65739 0.81257 0.0
C560 C 0.60682 0.65935 0.95143 0.0
N561 N 0.61521 0.66607 0.89833 0.0
N562 N 0.63673 0.66264 0.89772 0.0
C563 C 0.64249 0.65196 0.94868 0.0
C564 C 0.62384 0.65004 0.98501 0.0
C565 C 0.58377 0.66463 0.97253 0.0
H566 H 0.57698 0.679 0.94735 0.0
H567 H 0.57292 0.65002 0.96502 0.0
H568 H 0.58365 0.66856 0.02155 0.0
O569 O 0.60643 0.70928 0.82719 0.0
O570 O 0.64302 0.70988 0.83601 0.0
H571 H 0.67631 0.65453 0.97773 0.0
H572 H 0.66369 0.62804 -0.00737 0.0
C573 C 0.66482 0.64185 0.9596 0.0
H574 H 0.67167 0.63546 0.91648 0.0
H575 H 0.66866 0.70842 0.9306 0.0
O576 O 0.56921 0.67216 0.83474 0.0
C577 C 0.62448 0.71999 0.83167 0.0
Co578 Co 0.58917 0.35255 0.0852 0.0
Co579 Co 0.58709 0.40562 0.09132 0.0
C580 C 0.609 0.38244 0.98775 0.0
O581 O 0.60424 0.36391 0.01231 0.0
O582 O 0.60322 0.401 0.01159 0.0
C583 C 0.61439 0.31203 0.0959 0.0
O584 O 0.63136 0.32562 0.09125 0.0
C585 C 0.59594 0.45426 0.12826 0.0
C586 C 0.56355 0.46042 0.1718 0.0
C587 C 0.58419 0.46975 0.16287 0.0
N588 N 0.5828 0.43629 0.11882 0.0
N589 N 0.56338 0.44057 0.14423 0.0
C590 C 0.61906 0.45672 0.10465 0.0
H591 H 0.62521 0.44073 0.08611 0.0
H592 H 0.63023 0.46284 0.14087 0.0
H593 H 0.61909 0.46934 0.06816 0.0
C594 C 0.60706 0.3592 0.20648 0.0
N595 N 0.60032 0.36734 0.15305 0.0
N596 N 0.60152 0.38919 0.15399 0.0
C597 C 0.6101 0.39544 0.20765 0.0
C598 C 0.61385 0.37674 0.24215 0.0
C599 C 0.60328 0.33578 0.22683 0.0
H600 H 0.58878 0.32852 0.20323 0.0
H601 H 0.61822 0.32571 0.21666 0.0
H602 H 0.60029 0.33502 0.27629 0.0
O603 O 0.55698 0.35723 0.08201 0.0
O604 O 0.55569 0.39397 0.08494 0.0
H605 H 0.59812 0.42752 0.23217 0.0
H606 H 0.62339 0.41969 0.27026 0.0
C607 C 0.6142 0.4188 0.22691 0.0
H608 H 0.62439 0.42708 0.1922 0.0
H609 H 0.55025 0.42934 0.14611 0.0
O610 O 0.59487 0.31998 0.09253 0.0
C611 C 0.5459 0.37519 0.08302 0.0
Co612 Co 0.91183 0.33992 0.3312 0.0
Co613 Co 0.85919 0.33615 0.33953 0.0
C614 C 0.88069 0.35772 0.23354 0.0
O615 O 0.89947 0.35383 0.25787 0.0
O616 O 0.86239 0.35141 0.25794 0.0
C617 C 0.95257 0.36512 0.34112 0.0
O618 O 0.93937 0.38244 0.33816 0.0
C619 C 0.81027 0.34162 0.37829 0.0
C620 C 0.81 0.3134 0.44208 0.0
C621 C 0.79752 0.33128 0.42319 0.0
N622 N 0.82976 0.33055 0.37302 0.0
N623 N 0.82896 0.31344 0.41038 0.0
C624 C 0.80501 0.36277 0.34604 0.0
H625 H 0.82032 0.37021 0.32678 0.0
H626 H 0.79673 0.37463 0.37718 0.0
H627 H 0.79341 0.35914 0.30839 0.0
C628 C 0.90512 0.35935 0.45116 0.0
N629 N 0.89719 0.35154 0.39855 0.0
N630 N 0.87536 0.35251 0.39901 0.0
C631 C 0.86886 0.36226 0.45097 0.0
C632 C 0.88741 0.36673 0.48551 0.0
C633 C 0.9285 0.35602 0.47242 0.0
H634 H 0.93613 0.34157 0.44935 0.0
H635 H 0.93838 0.3711 0.46238 0.0
H636 H 0.92905 0.35319 0.52195 0.0
O637 O 0.90832 0.3078 0.33092 0.0
O638 O 0.87178 0.30512 0.33545 0.0
H639 H 0.83719 0.35158 0.48322 0.0
H640 H 0.84461 0.37924 0.50614 0.0
C641 C 0.8454 0.3671 0.46843 0.0
H642 H 0.83651 0.37413 0.42924 0.0
H643 H 0.84209 0.30249 0.41752 0.0
O644 O 0.94423 0.34582 0.33683 0.0
C645 C 0.89089 0.29606 0.33364 0.0
Co646 Co 0.92301 0.66117 0.5858 0.0
Co647 Co 0.92613 0.60852 0.58923 0.0
C648 C 0.90506 0.63102 0.48496 0.0
O649 O 0.90909 0.64952 0.51102 0.0
O650 O 0.91097 0.6124 0.5082 0.0
C651 C 0.89756 0.70205 0.60005 0.0
O652 O 0.87988 0.68958 0.59263 0.0
C653 C 0.9213 0.55952 0.62821 0.0
C654 C 0.94928 0.56016 0.69276 0.0
C655 C 0.93161 0.54736 0.67414 0.0
N656 N 0.93209 0.57915 0.62224 0.0
N657 N 0.9491 0.57885 0.66003 0.0
C658 C 0.9004 0.55351 0.59581 0.0
H659 H 0.89402 0.56788 0.56969 0.0
H660 H 0.88774 0.54769 0.62865 0.0
H661 H 0.90387 0.53957 0.5644 0.0
C662 C 0.90439 0.65307 0.70606 0.0
N663 N 0.91156 0.64585 0.652 0.0
N664 N 0.90983 0.6241 0.64956 0.0
C665 C 0.90008 0.617 0.70084 0.0
C666 C 0.89678 0.635 0.73843 0.0
C667 C 0.90797 0.6761 0.72974 0.0
H668 H 0.92226 0.68402 0.70672 0.0
H669 H 0.89282 0.68612 0.7217 0.0
H670 H 0.91118 0.67591 0.77912 0.0
O671 O 0.95529 0.65783 0.58511 0.0
O672 O 0.95708 0.6212 0.58537 0.0
H673 H 0.9077 0.58385 0.7279 0.0
H674 H 0.88056 0.59304 0.75006 0.0
C675 C 0.89314 0.59366 0.71342 0.0
H676 H 0.88597 0.58632 0.67199 0.0
H677 H 0.95976 0.59222 0.66714 0.0
O678 O 0.91669 0.6933 0.59573 0.0
C679 C 0.96663 0.64007 0.58568 0.0
Co680 Co 0.60174 0.3385 0.6525 0.0
Co681 Co 0.65439 0.33671 0.6419 0.0
C682 C 0.63325 0.35762 0.74851 0.0
O683 O 0.61444 0.35303 0.72504 0.0
O684 O 0.65163 0.35185 0.72349 0.0
C685 C 0.55977 0.36237 0.64219 0.0
O686 O 0.57179 0.38052 0.64596 0.0
C687 C 0.70293 0.3421 0.59742 0.0
C688 C 0.70064 0.31592 0.52759 0.0
C689 C 0.71427 0.3326 0.54854 0.0
N690 N 0.68305 0.33177 0.60319 0.0
N691 N 0.6823 0.31591 0.56184 0.0
C692 C 0.70982 0.36209 0.63272 0.0
H693 H 0.69601 0.36799 0.66187 0.0
H694 H 0.71515 0.37546 0.60143 0.0
H695 H 0.72427 0.35775 0.66142 0.0
C696 C 0.60752 0.35714 0.5311 0.0
N697 N 0.61561 0.35024 0.58442 0.0
N698 N 0.63729 0.35278 0.58484 0.0
C699 C 0.64346 0.36285 0.53324 0.0
C700 C 0.62494 0.36538 0.49718 0.0
C701 C 0.58433 0.35285 0.50968 0.0
H702 H 0.57699 0.33856 0.53408 0.0
H703 H 0.57407 0.36783 0.51787 0.0
H704 H 0.58408 0.3493 0.46045 0.0
O705 O 0.60603 0.30642 0.6528 0.0
O706 O 0.64261 0.30539 0.64613 0.0
H707 H 0.67649 0.35734 0.50084 0.0
H708 H 0.66585 0.38453 0.48542 0.0
C709 C 0.66634 0.37102 0.51948 0.0
H710 H 0.67418 0.3773 0.56138 0.0
H711 H 0.66847 0.30593 0.55395 0.0
O712 O 0.56926 0.34362 0.64684 0.0
C713 C 0.62395 0.29546 0.64863 0.0
Co714 Co 0.92502 0.35176 0.8949 0.0
Co715 Co 0.92677 0.40441 0.89004 0.0
C716 C 0.90547 0.38195 -0.00612 0.0
O717 O 0.91024 0.36348 0.96862 0.0
O718 O 0.91108 0.40063 0.97039 0.0
C719 C 0.89974 0.31108 0.88136 0.0
O720 O 0.88229 0.32394 0.88786 0.0
C721 C 0.92134 0.45325 0.85033 0.0
C722 C 0.94879 0.45248 0.78388 0.0
C723 C 0.93139 0.46542 0.80381 0.0
N724 N 0.93215 0.43362 0.85566 0.0
N725 N 0.94877 0.43379 0.81656 0.0
C726 C 0.90051 0.459 0.88355 0.0
H727 H 0.89328 0.44401 0.90508 0.0
H728 H 0.88836 0.46675 0.85237 0.0
H729 H 0.90445 0.47121 0.91952 0.0
C730 C 0.90695 0.35903 0.77345 0.0
N731 N 0.91367 0.36654 0.82763 0.0
N732 N 0.91126 0.38822 0.82973 0.0
C733 C 0.90157 0.39498 0.77811 0.0
C734 C 0.899 0.37684 0.7406 0.0
C735 C 0.91102 0.336 0.75042 0.0
H736 H 0.92525 0.32834 0.77427 0.0
H737 H 0.89595 0.32579 0.75799 0.0
H738 H 0.91453 0.33613 0.70117 0.0
O739 O 0.95732 0.35585 0.89704 0.0
O740 O 0.95796 0.39252 0.89553 0.0
H741 H 0.90798 0.4283 0.7498 0.0
H742 H 0.88103 0.41815 0.72934 0.0
C743 C 0.89385 0.41807 0.76535 0.0
H744 H 0.88673 0.4254 0.80692 0.0
H745 H 0.95924 0.42032 0.80866 0.0
O746 O 0.91902 0.31951 0.88579 0.0
C747 C 0.96811 0.37397 0.8963 0.0
Co748 Co 0.91262 0.67328 0.14516 0.0
Co749 Co 0.85989 0.67767 0.1398 0.0
C750 C 0.88175 0.65569 0.24431 0.0
O751 O 0.90045 0.65941 0.21911 0.0
O752 O 0.86338 0.66225 0.22087 0.0
C753 C 0.95366 0.64741 0.13447 0.0
O754 O 0.94114 0.62984 0.14318 0.0
C755 C 0.81073 0.67299 0.10176 0.0
C756 C 0.81108 0.70101 0.03738 0.0
C757 C 0.79832 0.68333 0.05636 0.0
N758 N 0.83043 0.68372 0.107 0.0
N759 N 0.82995 0.70076 0.06934 0.0
C760 C 0.8048 0.65218 0.13471 0.0
H761 H 0.81938 0.64558 0.15953 0.0
H762 H 0.79839 0.63959 0.10246 0.0
H763 H 0.79133 0.65587 0.16743 0.0
C764 C 0.90476 0.65382 0.02601 0.0
N765 N 0.89729 0.66199 0.07874 0.0
N766 N 0.87547 0.66108 0.0798 0.0
C767 C 0.86851 0.65097 0.02886 0.0
C768 C 0.88674 0.64624 -0.00676 0.0
C769 C 0.92803 0.65683 0.00343 0.0
H770 H 0.93577 0.67159 0.02472 0.0
H771 H 0.93796 0.64192 0.01479 0.0
H772 H 0.92836 0.65897 0.95363 0.0
O773 O 0.90964 0.70563 0.14627 0.0
O774 O 0.87306 0.70848 0.14389 0.0
H775 H 0.83646 0.66096 -0.00186 0.0
H776 H 0.84386 0.63305 0.97754 0.0
C777 C 0.84493 0.64572 0.01388 0.0
H778 H 0.83654 0.63919 0.05456 0.0
H779 H 0.84328 0.71147 0.06207 0.0
O780 O 0.94483 0.66658 0.13632 0.0
C781 C 0.89222 0.71747 0.14491 0.0
Co782 Co 0.58952 0.65837 0.39496 0.0
Co783 Co 0.58686 0.60535 0.39553 0.0
C784 C 0.60878 0.63136 0.49644 0.0
O785 O 0.60427 0.64953 0.46999 0.0
O786 O 0.60291 0.61261 0.47422 0.0
C787 C 0.6124 0.70109 0.39096 0.0
O788 O 0.62975 0.6896 0.40865 0.0
C789 C 0.59801 0.5579 0.3583 0.0
C790 C 0.56369 0.54584 0.34812 0.0
C791 C 0.58544 0.54047 0.33438 0.0
N792 N 0.58404 0.57339 0.3813 0.0
N793 N 0.56371 0.56529 0.37772 0.0
C794 C 0.62275 0.55986 0.35836 0.0
H795 H 0.62786 0.57753 0.36147 0.0
H796 H 0.63002 0.55174 0.31788 0.0
H797 H 0.62927 0.55112 0.39872 0.0
C798 C 0.60806 0.64996 0.2757 0.0
N799 N 0.60136 0.64216 0.32954 0.0
N800 N 0.59996 0.62028 0.32732 0.0
C801 C 0.60527 0.61368 0.27058 0.0
C802 C 0.6112 0.63219 0.23728 0.0
C803 C 0.60733 0.67397 0.25801 0.0
H804 H 0.59176 0.68161 0.27467 0.0
H805 H 0.62166 0.68272 0.27846 0.0
H806 H 0.608 0.67625 0.20832 0.0
O807 O 0.5571 0.65311 0.39663 0.0
O808 O 0.55546 0.6163 0.39722 0.0
H809 H 0.60059 0.59039 0.19615 0.0
H810 H 0.61683 0.5807 0.2562 0.0
C811 C 0.60204 0.59076 0.24584 0.0
H812 H 0.58686 0.58324 0.26504 0.0
H813 H 0.54952 0.57382 0.39135 0.0
O814 O 0.594 0.69107 0.38355 0.0
C815 C 0.54591 0.63519 0.39567 0.0
Co816 Co 0.40961 0.34184 0.13832 0.0
Co817 Co 0.3567 0.33808 0.13713 0.0
C818 C 0.38018 0.35843 0.24166 0.0
O819 O 0.39853 0.35477 0.21464 0.0
O820 O 0.36148 0.3525 0.21898 0.0
C821 C 0.45042 0.36772 0.12663 0.0
O822 O 0.4374 0.38507 0.13251 0.0
C823 C 0.30704 0.34395 0.10556 0.0
C824 C 0.30378 0.31315 0.05214 0.0
C825 C 0.29246 0.33207 0.06861 0.0
N826 N 0.32635 0.33248 0.10975 0.0
N827 N 0.32383 0.31398 0.07818 0.0
C828 C 0.3027 0.3659 0.13474 0.0
H829 H 0.31806 0.37258 0.15561 0.0
H830 H 0.29602 0.37774 0.10092 0.0
H831 H 0.28984 0.36378 0.1702 0.0
C832 C 0.40058 0.36228 0.02117 0.0
N833 N 0.39353 0.35412 0.07426 0.0
N834 N 0.37169 0.35483 0.07636 0.0
C835 C 0.3643 0.36465 0.0255 0.0
C836 C 0.38228 0.36958 0.98911 0.0
C837 C 0.42366 0.35915 -0.0028 0.0
H838 H 0.43158 0.34452 0.0185 0.0
H839 H 0.43368 0.37413 0.00733 0.0
H840 H 0.42357 0.3567 0.94748 0.0
O841 O 0.40627 0.30949 0.13621 0.0
O842 O 0.36966 0.30721 0.13734 0.0
H843 H 0.33217 0.35288 0.00026 0.0
H844 H 0.33879 0.37999 0.97095 0.0
C845 C 0.34051 0.36883 0.01054 0.0
H846 H 0.33243 0.37686 0.04962 0.0
H847 H 0.3364 0.30244 0.07068 0.0
O848 O 0.44196 0.34839 0.12929 0.0
C849 C 0.38865 0.29792 0.1354 0.0
Co850 Co 0.421 0.66196 0.8994 0.0
Co851 Co 0.42733 0.60974 0.8829 0.0
C852 C 0.40518 0.62852 -0.00743 0.0
O853 O 0.40846 0.64795 0.97155 0.0
O854 O 0.41191 0.61095 0.96504 0.0
C855 C 0.39681 0.70405 0.91032 0.0
O856 O 0.37998 0.6923 0.93032 0.0
C857 C 0.42569 0.56071 0.83934 0.0
C858 C 0.45464 0.56336 0.77841 0.0
C859 C 0.43801 0.54897 0.79581 0.0
N860 N 0.43457 0.5813 0.84532 0.0
N861 N 0.45199 0.58234 0.80903 0.0
C862 C 0.40639 0.55251 0.87548 0.0
H863 H 0.40579 0.56113 0.91981 0.0
H864 H 0.39074 0.55621 0.8512 0.0
H865 H 0.40755 0.53428 0.8822 0.0
C866 C 0.39758 0.65645 0.78469 0.0
N867 N 0.40826 0.64798 0.83265 0.0
N868 N 0.4101 0.62632 0.82626 0.0
C869 C 0.40037 0.62041 0.77379 0.0
C870 C 0.39227 0.63928 0.74595 0.0
C871 C 0.39409 0.68072 0.77356 0.0
H872 H 0.40974 0.68992 0.7818 0.0
H873 H 0.38121 0.68691 0.80507 0.0
H874 H 0.38823 0.68407 0.72695 0.0
O875 O 0.45342 0.65956 0.89571 0.0
O876 O 0.4576 0.62327 0.88925 0.0
H877 H 0.41866 0.59359 0.73478 0.0
H878 H 0.39115 0.59631 0.70512 0.0
C879 C 0.40128 0.59767 0.74669 0.0
H880 H 0.39501 0.58551 0.77991 0.0
H881 H 0.46169 0.59649 0.8029 0.0
O882 O 0.41487 0.69428 0.89727 0.0
C883 C 0.46589 0.64266 0.8918 0.0
Co884 Co 0.10196 0.67421 0.64758 0.0
Co885 Co 0.15476 0.67688 0.63883 0.0
C886 C 0.13329 0.65468 0.74316 0.0
O887 O 0.11452 0.65934 0.71964 0.0
O888 O 0.15167 0.66078 0.71883 0.0
C889 C 0.06137 0.6486 0.63793 0.0
O890 O 0.07476 0.63145 0.64183 0.0
C891 C 0.2033 0.67116 0.59573 0.0
C892 C 0.20339 0.7006 0.5363 0.0
C893 C 0.21565 0.68204 0.551 0.0
N894 N 0.18417 0.68258 0.60481 0.0
N895 N 0.18497 0.70046 0.5702 0.0
C896 C 0.20869 0.64941 0.62465 0.0
H897 H 0.19397 0.64262 0.64853 0.0
H898 H 0.21479 0.63748 0.59016 0.0
H899 H 0.2222 0.65194 0.65797 0.0
C900 C 0.10809 0.65531 0.52688 0.0
N901 N 0.11632 0.66304 0.57925 0.0
N902 N 0.1381 0.66139 0.57873 0.0
C903 C 0.14424 0.65123 0.52705 0.0
C904 C 0.12553 0.64719 0.49272 0.0
C905 C 0.08475 0.65913 0.50597 0.0
H906 H 0.07752 0.67382 0.52891 0.0
H907 H 0.07452 0.64434 0.51656 0.0
H908 H 0.08419 0.6618 0.45637 0.0
O909 O 0.10584 0.70644 0.65019 0.0
O910 O 0.14247 0.70797 0.64623 0.0
H911 H 0.17658 0.66013 0.49586 0.0
H912 H 0.16783 0.63281 0.47311 0.0
C913 C 0.16747 0.64509 0.5105 0.0
H914 H 0.17567 0.63766 0.55019 0.0
H915 H 0.17202 0.71181 0.56582 0.0
O916 O 0.06953 0.66803 0.64158 0.0
C917 C 0.12368 0.71765 0.64864 0.0
Co918 Co 0.09157 0.34971 0.39815 0.0
Co919 Co 0.08755 0.40256 0.38472 0.0
C920 C 0.10912 0.38023 0.49277 0.0
O921 O 0.10482 0.36104 0.4718 0.0
O922 O 0.10335 0.39806 0.46528 0.0
C923 C 0.11206 0.30586 0.41223 0.0
O924 O 0.12766 0.31651 0.44194 0.0
C925 C 0.09976 0.44829 0.33531 0.0
C926 C 0.06605 0.46233 0.32838 0.0
C927 C 0.08792 0.46654 0.31373 0.0
N928 N 0.0853 0.43373 0.36044 0.0
N929 N 0.06529 0.44267 0.35696 0.0
C930 C 0.12429 0.44487 0.33177 0.0
H931 H 0.12857 0.42717 0.33931 0.0
H932 H 0.13077 0.4507 0.28757 0.0
H933 H 0.13234 0.45498 0.3675 0.0
C934 C 0.11661 0.35539 0.28672 0.0
N935 N 0.10565 0.36414 0.33382 0.0
N936 N 0.10169 0.38533 0.32348 0.0
C937 C 0.10837 0.3901 0.26683 0.0
C938 C 0.11852 0.37149 0.24292 0.0
C939 C 0.12415 0.33177 0.28238 0.0
H940 H 0.10953 0.3206 0.28121 0.0
H941 H 0.13429 0.32767 0.32258 0.0
H942 H 0.13438 0.32889 0.24137 0.0
O943 O 0.05901 0.35533 0.39432 0.0
O944 O 0.05642 0.39201 0.38985 0.0
H945 H 0.08595 0.41748 0.25198 0.0
H946 H 0.09595 0.40442 0.18432 0.0
C947 C 0.10061 0.40963 0.23076 0.0
H948 H 0.11434 0.42171 0.2262 0.0
H949 H 0.05082 0.43484 0.37138 0.0
O950 O 0.09567 0.31676 0.3915 0.0
C951 C 0.04734 0.37295 0.39148 0.0
Co952 Co 0.40966 0.66752 0.3349 0.0
Co953 Co 0.35727 0.6746 0.33546 0.0
C954 C 0.38219 0.65112 0.2329 0.0
O955 O 0.40079 0.65443 0.25847 0.0
O956 O 0.36392 0.65802 0.2563 0.0
C957 C 0.45246 0.64537 0.33166 0.0
O958 O 0.44195 0.63064 0.29855 0.0
C959 C 0.31094 0.66413 0.38239 0.0
C960 C 0.29556 0.69704 0.37008 0.0
C961 C 0.29187 0.67639 0.39541 0.0
N962 N 0.32547 0.67729 0.35225 0.0
N963 N 0.31579 0.69677 0.3443 0.0
C964 C 0.31478 0.64016 0.39647 0.0
H965 H 0.33225 0.63542 0.38747 0.0
H966 H 0.31021 0.63649 0.44397 0.0
H967 H 0.30379 0.62997 0.36734 0.0
C968 C 0.39927 0.64467 0.4471 0.0
N969 N 0.39255 0.65441 0.3958 0.0
N970 N 0.37177 0.66078 0.40166 0.0
C971 C 0.36553 0.6575 0.45936 0.0
C972 C 0.38236 0.64639 0.48903 0.0
C973 C 0.42208 0.63562 0.45746 0.0
H974 H 0.42706 0.6253 0.41828 0.0
H975 H 0.4227 0.62525 0.49884 0.0
H976 H 0.43401 0.64954 0.46222 0.0
O977 O 0.40524 0.70043 0.33694 0.0
O978 O 0.36882 0.70546 0.33269 0.0
H979 H 0.35389 0.67815 0.53206 0.0
H980 H 0.33437 0.6586 0.50373 0.0
C981 C 0.34751 0.6703 0.49011 0.0
H982 H 0.3408 0.6835 0.46061 0.0
H983 H 0.32347 0.71035 0.32386 0.0
O984 O 0.44188 0.66228 0.35049 0.0
C985 C 0.38842 0.71329 0.33593 0.0
Co986 Co 0.09191 0.65835 0.08201 0.0
Co987 Co 0.08806 0.60536 0.0857 0.0
C988 C 0.11043 0.62875 0.98256 0.0
O989 O 0.10663 0.6473 0.00838 0.0
O990 O 0.1039 0.61028 0.00544 0.0
C991 C 0.11551 0.70095 0.09418 0.0
O992 O 0.13388 0.68952 0.08664 0.0
C993 C 0.09588 0.55632 0.11979 0.0
C994 C 0.06451 0.55162 0.16967 0.0
C995 C 0.08456 0.5415 0.15747 0.0
N996 N 0.08313 0.57466 0.11189 0.0
N997 N 0.06418 0.57113 0.14055 0.0
C998 C 0.11886 0.55356 0.0955 0.0
H999 H 0.12515 0.56947 0.07685 0.0
H1000 H 0.13008 0.54728 0.1314 0.0
H1001 H 0.11856 0.54094 0.05893 0.0
C1002 C 0.10894 0.65053 0.20337 0.0
N1003 N 0.10251 0.64287 0.14913 0.0
N1004 N 0.10315 0.62099 0.14905 0.0
C1005 C 0.11119 0.61421 0.20286 0.0
C1006 C 0.11481 0.63263 0.2388 0.0
C1007 C 0.10604 0.67405 0.22404 0.0
H1008 H 0.0916 0.68173 0.20121 0.0
H1009 H 0.12122 0.68363 0.21299 0.0
H1010 H 0.10335 0.67498 0.2736 0.0
O1011 O 0.05984 0.65434 0.07846 0.0
O1012 O 0.05683 0.61774 0.0815 0.0
H1013 H 0.09985 0.58165 0.22537 0.0
H1014 H 0.12516 0.58959 0.26297 0.0
C1015 C 0.11573 0.59068 0.22003 0.0
H1016 H 0.12578 0.58285 0.18418 0.0
H1017 H 0.05151 0.58283 0.14435 0.0
O1018 O 0.09697 0.69092 0.0918 0.0
C1019 C 0.04794 0.63696 0.07982 0.0
Co1020 Co 0.10526 0.34448 0.83633 0.0
Co1021 Co 0.15725 0.33541 0.83425 0.0
C1022 C 0.1327 0.35947 0.73314 0.0
O1023 O 0.11409 0.35702 0.75944 0.0
O1024 O 0.15074 0.35173 0.75543 0.0
C1025 C 0.06255 0.36784 0.83931 0.0
O1026 O 0.07297 0.38399 0.81128 0.0
C1027 C 0.20312 0.34568 0.87998 0.0
C1028 C 0.21675 0.31174 0.87963 0.0
C1029 C 0.22081 0.33296 0.901 0.0
N1030 N 0.18888 0.33227 0.84978 0.0
N1031 N 0.19773 0.31221 0.84797 0.0
C1032 C 0.19914 0.36975 0.89256 0.0
H1033 H 0.1821 0.37469 0.87929 0.0
H1034 H 0.20222 0.37358 0.94088 0.0
H1035 H 0.21118 0.37967 0.86591 0.0
C1036 C 0.11721 0.36672 0.94828 0.0
N1037 N 0.1233 0.35714 0.89615 0.0
N1038 N 0.14385 0.34993 0.90089 0.0
C1039 C 0.1505 0.35244 0.9586 0.0
C1040 C 0.13418 0.36389 0.98935 0.0
C1041 C 0.09445 0.37541 0.96159 0.0
H1042 H 0.08939 0.38703 0.92539 0.0
H1043 H 0.09396 0.38431 0.00553 0.0
H1044 H 0.08248 0.36144 0.96312 0.0
O1045 O 0.10858 0.31147 0.83916 0.0
O1046 O 0.14478 0.30494 0.83399 0.0
H1047 H 0.16138 0.33081 0.03022 0.0
H1048 H 0.18221 0.34894 0.00173 0.0
C1049 C 0.16797 0.33844 0.98822 0.0
H1050 H 0.17349 0.32487 0.95798 0.0
H1051 H 0.18978 0.29832 0.82992 0.0
O1052 O 0.07314 0.35026 0.85262 0.0
C1053 C 0.12487 0.29797 0.83836 0.0
Co1054 Co 0.42103 0.34888 0.58594 0.0
Co1055 Co 0.42567 0.40163 0.58955 0.0
C1056 C 0.40497 0.38016 0.48409 0.0
O1057 O 0.40824 0.36151 0.51028 0.0
O1058 O 0.41123 0.39865 0.50772 0.0
C1059 C 0.39449 0.30885 0.60171 0.0
O1060 O 0.37755 0.32255 0.60017 0.0
C1061 C 0.42551 0.45139 0.62986 0.0
C1062 C 0.44991 0.44612 0.70301 0.0
C1063 C 0.4363 0.46208 0.67813 0.0
N1064 N 0.43239 0.42995 0.62797 0.0
N1065 N 0.44706 0.42732 0.67181 0.0
C1066 C 0.40934 0.46125 0.58636 0.0
H1067 H 0.40989 0.45213 0.54276 0.0
H1068 H 0.39232 0.45978 0.60498 0.0
H1069 H 0.41301 0.47911 0.57912 0.0
C1070 C 0.40097 0.35844 0.70467 0.0
N1071 N 0.40926 0.36474 0.65098 0.0
N1072 N 0.40788 0.38644 0.64636 0.0
C1073 C 0.39718 0.39447 0.69501 0.0
C1074 C 0.39301 0.37713 0.73412 0.0
C1075 C 0.40366 0.33568 0.7309 0.0
H1076 H 0.41724 0.3266 0.70782 0.0
H1077 H 0.38792 0.32635 0.72548 0.0
H1078 H 0.40741 0.33666 0.77994 0.0
O1079 O 0.45333 0.35148 0.58746 0.0
O1080 O 0.45617 0.38804 0.58699 0.0
H1081 H 0.40333 0.42806 0.72268 0.0
H1082 H 0.37522 0.41905 0.73299 0.0
C1083 C 0.38985 0.41805 0.70252 0.0
H1084 H 0.38555 0.42513 0.65783 0.0
H1085 H 0.45466 0.41225 0.68217 0.0
O1086 O 0.41394 0.3166 0.59435 0.0
C1087 C 0.46515 0.3689 0.588 0.0
C1088 C 0.10789 0.1218 0.10699 0.0
C1089 C 0.11744 0.13312 0.05815 0.0
C1090 C 0.11404 0.12696 0.16654 0.0
C1091 C 0.13015 0.14334 0.17913 0.0
H1092 H 0.09432 0.11033 0.09954 0.0
H1093 H 0.10508 0.11907 0.20317 0.0
S1094 S 0.16271 0.1748 0.06602 0.0
N1095 N 0.14574 0.15926 0.02542 0.0
N1096 N 0.15744 0.1687 0.13738 0.0
C1097 C 0.14138 0.15308 0.13042 0.0
C1098 C 0.13493 0.14805 0.06985 0.0
C1099 C 0.10857 0.89162 0.37857 0.0
C1100 C 0.11826 0.88134 0.42895 0.0
C1101 C 0.11425 0.88499 0.3196 0.0
C1102 C 0.13014 0.86821 0.30889 0.0
H1103 H 0.09518 0.90341 0.38469 0.0
H1104 H 0.10514 0.8921 0.28212 0.0
S1105 S 0.1626 0.83858 0.42563 0.0
N1106 N 0.14616 0.85529 0.46443 0.0
N1107 N 0.15714 0.8433 0.35362 0.0
C1108 C 0.14142 0.85937 0.35873 0.0
C1109 C 0.13537 0.8658 0.41877 0.0
C1110 C 0.39928 0.88408 0.67037 0.0
C1111 C 0.38308 0.86776 0.68258 0.0
C1112 C 0.40485 0.88996 0.61086 0.0
C1113 C 0.39473 0.87935 0.56161 0.0
H1114 H 0.40861 0.89144 0.70711 0.0
H1115 H 0.41839 0.90148 0.60349 0.0
S1116 S 0.34959 0.83752 0.56901 0.0
N1117 N 0.35542 0.8429 0.6405 0.0
N1118 N 0.36624 0.85346 0.52859 0.0
C1119 C 0.37741 0.86422 0.57321 0.0
C1120 C 0.37145 0.85857 0.63377 0.0
C1121 C 0.39855 0.12521 0.82673 0.0
C1122 C 0.38138 0.1406 0.81526 0.0
C1123 C 0.40433 0.11917 0.88592 0.0
C1124 C 0.39329 0.12855 0.93552 0.0
H1125 H 0.40864 0.11901 0.78983 0.0
H1126 H 0.41885 0.10887 0.89287 0.0
S1127 S 0.34504 0.16673 0.93006 0.0
N1128 N 0.35159 0.16266 0.85837 0.0
N1129 N 0.36265 0.1516 0.96967 0.0
C1130 C 0.37476 0.1422 0.92453 0.0
C1131 C 0.3687 0.14814 0.8643 0.0
C1132 C 0.89417 0.88644 0.82221 0.0
C1133 C 0.87849 0.86953 0.8112 0.0
C1134 C 0.90001 0.8926 0.8813 0.0
C1135 C 0.8907 0.88167 0.93123 0.0
H1136 H 0.90313 0.89386 0.78486 0.0
H1137 H 0.91335 0.90443 0.88766 0.0
S1138 S 0.84661 0.8387 0.92697 0.0
N1139 N 0.85179 0.84406 0.85511 0.0
N1140 N 0.86308 0.85522 0.96624 0.0
C1141 C 0.87359 0.86619 0.92086 0.0
C1142 C 0.86737 0.86023 0.86074 0.0
C1143 C 0.89364 0.12563 0.66449 0.0
C1144 C 0.8782 0.14282 0.6752 0.0
C1145 C 0.89966 0.11938 0.60549 0.0
C1146 C 0.89077 0.13046 0.55529 0.0
H1147 H 0.90235 0.11809 0.70205 0.0
H1148 H 0.91288 0.10738 0.59948 0.0
S1149 S 0.84748 0.17425 0.5585 0.0
N1150 N 0.85219 0.16876 0.6305 0.0
N1151 N 0.86381 0.15744 0.51967 0.0
C1152 C 0.87387 0.14622 0.5653 0.0
C1153 C 0.86747 0.15229 0.62531 0.0
C1154 C 0.6135 0.12789 0.31938 0.0
C1155 C 0.63018 0.14387 0.30839 0.0
C1156 C 0.60779 0.12149 0.37837 0.0
C1157 C 0.61839 0.13112 0.42829 0.0
H1158 H 0.6037 0.12146 0.28224 0.0
H1159 H 0.59366 0.11063 0.38492 0.0
S1160 S 0.66546 0.17083 0.42394 0.0
N1161 N 0.65913 0.16679 0.35212 0.0
N1162 N 0.64828 0.15502 0.46312 0.0
C1163 C 0.6365 0.14542 0.41773 0.0
C1164 C 0.64248 0.15172 0.35766 0.0
C1165 C 0.64264 0.86001 0.13385 0.0
C1166 C 0.63186 0.86985 0.18323 0.0
C1167 C 0.63731 0.86631 0.07455 0.0
C1168 C 0.62126 0.88283 0.06275 0.0
H1169 H 0.65367 0.84604 0.14072 0.0
H1170 H 0.64465 0.85706 0.03756 0.0
S1171 S 0.59155 0.91637 0.1774 0.0
N1172 N 0.60685 0.89898 0.21723 0.0
N1173 N 0.59704 0.91091 0.10574 0.0
C1174 C 0.61224 0.89441 0.11193 0.0
C1175 C 0.61747 0.88784 0.17225 0.0
C1176 C 0.63562 0.64995 0.566 0.0
C1177 C 0.61977 0.63305 0.55625 0.0
C1178 C 0.64213 0.65617 0.62461 0.0
C1179 C 0.63269 0.64597 0.67548 0.0
H1180 H 0.64199 0.65939 0.52811 0.0
H1181 H 0.65304 0.67033 0.6301 0.0
S1182 S 0.59263 0.5992 0.67477 0.0
N1183 N 0.59675 0.60469 0.60247 0.0
N1184 N 0.60849 0.61674 0.71258 0.0
C1185 C 0.6182 0.62793 0.66627 0.0
C1186 C 0.61188 0.62134 0.60663 0.0
C1187 C 0.64249 0.35869 0.85846 0.0
C1188 C 0.63267 0.36882 0.80808 0.0
C1189 C 0.63613 0.36471 0.91739 0.0
C1190 C 0.62009 0.38135 0.92794 0.0
H1191 H 0.65357 0.3447 0.85238 0.0
H1192 H 0.64274 0.35525 0.95492 0.0
S1193 S 0.59202 0.41508 0.81096 0.0
N1194 N 0.60796 0.39784 0.7723 0.0
N1195 N 0.5965 0.40948 0.88301 0.0
C1196 C 0.61185 0.39306 0.87804 0.0
C1197 C 0.618 0.38667 0.81808 0.0
C1198 C 0.87871 0.36364 0.06426 0.0
C1199 C 0.89435 0.38066 0.05369 0.0
C1200 C 0.87213 0.35783 0.12315 0.0
C1201 C 0.88129 0.36859 0.17355 0.0
H1202 H 0.87256 0.35378 0.02686 0.0
H1203 H 0.8614 0.34357 0.1293 0.0
S1204 S 0.92065 0.41596 0.17052 0.0
N1205 N 0.91683 0.40975 0.09852 0.0
N1206 N 0.90495 0.39853 0.20916 0.0
C1207 C 0.89555 0.38676 0.16342 0.0
C1208 C 0.90194 0.39292 0.10347 0.0
C1209 C 0.87236 0.65484 0.35434 0.0
C1210 C 0.88247 0.64474 0.30421 0.0
C1211 C 0.87847 0.64886 0.41344 0.0
C1212 C 0.89453 0.63229 0.42446 0.0
H1213 H 0.86118 0.66872 0.348 0.0
H1214 H 0.87156 0.65825 0.45079 0.0
S1215 S 0.92328 0.59862 0.30823 0.0
N1216 N 0.90746 0.61578 0.26915 0.0
N1217 N 0.91847 0.60426 0.38015 0.0
C1218 C 0.90311 0.62064 0.37476 0.0
C1219 C 0.89721 0.62698 0.31462 0.0
C1220 C 0.37819 0.36312 0.41151 0.0
C1221 C 0.39458 0.3793 0.42339 0.0
C1222 C 0.37168 0.35795 0.35217 0.0
C1223 C 0.38167 0.36849 0.30261 0.0
H1224 H 0.37123 0.35349 0.44827 0.0
H1225 H 0.36017 0.34439 0.34501 0.0
S1226 S 0.42332 0.41382 0.30917 0.0
N1227 N 0.41879 0.40742 0.38072 0.0
N1228 N 0.40702 0.39738 0.26917 0.0
C1229 C 0.39682 0.38582 0.31401 0.0
C1230 C 0.40314 0.39135 0.37444 0.0
C1231 C 0.40549 0.61837 0.1016 0.0
C1232 C 0.39422 0.62761 0.05229 0.0
C1233 C 0.39998 0.62457 0.16096 0.0
C1234 C 0.3829 0.64005 0.17298 0.0
H1235 H 0.41998 0.60806 0.09422 0.0
H1236 H 0.41023 0.61842 0.19749 0.0
S1237 S 0.34596 0.66579 0.05929 0.0
N1238 N 0.36337 0.65054 0.01919 0.0
N1239 N 0.35289 0.66195 0.13075 0.0
C1240 C 0.36997 0.64742 0.12435 0.0
C1241 C 0.37572 0.64128 0.06393 0.0
C1242 C 0.13759 0.64595 0.91139 0.0
C1243 C 0.12101 0.62985 0.92208 0.0
C1244 C 0.14351 0.6523 0.85241 0.0
C1245 C 0.1327 0.64308 0.80216 0.0
H1246 H 0.14499 0.65477 0.94902 0.0
H1247 H 0.15509 0.66588 0.84645 0.0
S1248 S 0.09035 0.59836 0.80508 0.0
N1249 N 0.09583 0.6031 0.8771 0.0
N1250 N 0.10652 0.61534 0.76638 0.0
C1251 C 0.11747 0.6257 0.81208 0.0
C1252 C 0.11175 0.61897 0.87204 0.0
C1253 C 0.14285 0.35973 0.62403 0.0
C1254 C 0.13223 0.37004 0.67298 0.0
C1255 C 0.13678 0.36491 0.56453 0.0
C1256 C 0.1202 0.38081 0.55217 0.0
H1257 H 0.15429 0.34614 0.63165 0.0
H1258 H 0.1439 0.35521 0.52807 0.0
S1259 S 0.09071 0.41545 0.66463 0.0
N1260 N 0.10684 0.39911 0.7054 0.0
N1261 N 0.09568 0.40895 0.59332 0.0
C1262 C 0.11138 0.39298 0.60044 0.0
C1263 C 0.11733 0.38753 0.66104 0.0
C1264 C 0.11735 0.15589 0.58881 0.0
C1265 C 0.13215 0.14111 0.561 0.0
C1266 C 0.11323 0.15454 0.65044 0.0
C1267 C 0.12403 0.13856 0.68578 0.0
H1268 H 0.10863 0.16827 0.56244 0.0
H1269 H 0.1011 0.16566 0.67025 0.0
S1270 S 0.16497 0.09686 0.63413 0.0
N1271 N 0.15814 0.11063 0.5723 0.0
N1272 N 0.15049 0.10816 0.68972 0.0
C1273 C 0.13925 0.12403 0.65876 0.0
C1274 C 0.14341 0.12539 0.59575 0.0
C1275 C 0.13542 0.86539 0.83042 0.0
C1276 C 0.11928 0.87999 0.80818 0.0
C1277 C 0.13817 0.86249 0.89248 0.0
C1278 C 0.12502 0.87436 0.93383 0.0
H1279 H 0.14524 0.8554 0.79962 0.0
H1280 H 0.14977 0.85 0.90799 0.0
S1281 S 0.08169 0.91584 0.89838 0.0
N1282 N 0.09042 0.90693 0.83189 0.0
N1283 N 0.09676 0.90253 0.949 0.0
C1284 C 0.10982 0.89001 0.91222 0.0
C1285 C 0.10666 0.89262 0.84909 0.0
C1286 C 0.39914 0.88989 0.08699 0.0
C1287 C 0.38514 0.87432 0.05969 0.0
C1288 C 0.40057 0.89118 0.14976 0.0
C1289 C 0.38786 0.87705 0.18664 0.0
H1290 H 0.40974 0.9004 0.05967 0.0
H1291 H 0.41259 0.90244 0.16932 0.0
S1292 S 0.34819 0.83397 0.13675 0.0
N1293 N 0.35833 0.84448 0.07362 0.0
N1294 N 0.36006 0.848 0.19213 0.0
C1295 C 0.37303 0.86216 0.1599 0.0
C1296 C 0.37188 0.86052 0.09606 0.0
C1297 C 0.40354 0.15563 0.34232 0.0
C1298 C 0.38891 0.14272 0.3078 0.0
C1299 C 0.4008 0.15741 0.40447 0.0
C1300 C 0.38369 0.1459 0.43381 0.0
H1301 H 0.41737 0.16413 0.3212 0.0
H1302 H 0.41219 0.16779 0.42972 0.0
S1303 S 0.34089 0.11033 0.36308 0.0
N1304 N 0.35649 0.1188 0.3061 0.0
N1305 N 0.35162 0.12169 0.42448 0.0
C1306 C 0.36875 0.13321 0.39978 0.0
C1307 C 0.37139 0.13161 0.33621 0.0
C1308 C 0.91177 0.88837 0.35842 0.0
C1309 C 0.89732 0.88066 0.31335 0.0
C1310 C 0.90715 0.88479 0.41928 0.0
C1311 C 0.88875 0.87212 0.43698 0.0
H1312 H 0.92737 0.89612 0.34753 0.0
H1313 H 0.9188 0.89096 0.45256 0.0
S1314 S 0.84529 0.84898 0.33626 0.0
N1315 N 0.86246 0.86216 0.29056 0.0
N1316 N 0.85569 0.85212 0.40471 0.0
C1317 C 0.87381 0.86478 0.39259 0.0
C1318 C 0.87773 0.86977 0.33079 0.0
C1319 C 0.88058 0.15477 0.15757 0.0
C1320 C 0.89584 0.13896 0.17832 0.0
C1321 C 0.87702 0.15768 0.09581 0.0
C1322 C 0.88837 0.14456 0.05336 0.0
H1323 H 0.87182 0.16535 0.18924 0.0
H1324 H 0.86596 0.17078 0.0812 0.0
S1325 S 0.92962 0.10057 0.08481 0.0
N1326 N 0.92261 0.11026 0.15199 0.0
N1327 N 0.9146 0.11465 0.03566 0.0
C1328 C 0.90304 0.12816 0.07358 0.0
C1329 C 0.90709 0.12557 0.1363 0.0
C1330 C 0.60611 0.15263 0.83715 0.0
C1331 C 0.61881 0.13673 0.80639 0.0
C1332 C 0.6088 0.15582 0.89891 0.0
C1333 C 0.62402 0.14295 0.93149 0.0
H1334 H 0.59403 0.16265 0.81327 0.0
H1335 H 0.59902 0.1685 0.92129 0.0
S1336 S 0.66083 0.099 0.87157 0.0
N1337 N 0.64687 0.10788 0.81204 0.0
N1338 N 0.65187 0.11383 0.92957 0.0
C1339 C 0.63674 0.12694 0.90143 0.0
C1340 C 0.63402 0.1237 0.83833 0.0
C1341 C 0.60598 0.86733 0.6524 0.0
C1342 C 0.62023 0.88244 0.68099 0.0
C1343 C 0.60818 0.86286 0.59106 0.0
C1344 C 0.6245 0.87361 0.55663 0.0
H1345 H 0.59334 0.85863 0.67797 0.0
H1346 H 0.59733 0.85062 0.57068 0.0
S1347 S 0.66524 0.9151 0.61045 0.0
N1348 N 0.65072 0.90851 0.67128 0.0
N1349 N 0.65477 0.90025 0.55446 0.0
C1350 C 0.63859 0.88905 0.58441 0.0
C1351 C 0.63636 0.89357 0.64714 0.0
C1352 C 0.60443 0.63043 0.06816 0.0
C1353 C 0.62268 0.64299 0.04853 0.0
C1354 C 0.60095 0.62646 0.12951 0.0
C1355 C 0.61639 0.6337 0.17267 0.0
H1356 H 0.5922 0.62448 0.03616 0.0
H1357 H 0.58562 0.61855 0.14322 0.0
S1358 S 0.66688 0.66714 0.14516 0.0
N1359 N 0.65571 0.6637 0.07772 0.0
N1360 N 0.65073 0.65342 0.19243 0.0
C1361 C 0.63525 0.64531 0.15353 0.0
C1362 C 0.63814 0.65051 0.09147 0.0
C1363 C 0.60898 0.38543 0.40996 0.0
C1364 C 0.62452 0.37024 0.4324 0.0
C1365 C 0.60617 0.3881 0.34784 0.0
C1366 C 0.61907 0.37587 0.30671 0.0
H1367 H 0.59841 0.39468 0.44061 0.0
H1368 H 0.59323 0.39913 0.33196 0.0
S1369 S 0.66228 0.33435 0.34282 0.0
N1370 N 0.65277 0.34261 0.40913 0.0
N1371 N 0.64847 0.34887 0.29199 0.0
C1372 C 0.63525 0.36129 0.32857 0.0
C1373 C 0.63779 0.3582 0.39171 0.0
C1374 C 0.87836 0.36183 0.65301 0.0
C1375 C 0.89388 0.37698 0.67591 0.0
C1376 C 0.87549 0.3594 0.59081 0.0
C1377 C 0.88792 0.37223 0.55002 0.0
H1378 H 0.86906 0.3512 0.68333 0.0
H1379 H 0.86429 0.34665 0.57463 0.0
S1380 S 0.92988 0.4149 0.58746 0.0
N1381 N 0.92164 0.40516 0.65349 0.0
N1382 N 0.91518 0.40145 0.53621 0.0
C1383 C 0.90268 0.38819 0.57238 0.0
C1384 C 0.9059 0.39039 0.63562 0.0
C1385 C 0.87591 0.64945 0.82633 0.0
C1386 C 0.89171 0.63464 0.80317 0.0
C1387 C 0.87349 0.65225 0.88856 0.0
C1388 C 0.88665 0.64009 0.92914 0.0
H1389 H 0.86615 0.65969 0.79613 0.0
H1390 H 0.86216 0.66487 0.90478 0.0
S1391 S 0.92934 0.59823 0.89107 0.0
N1392 N 0.92035 0.60732 0.82513 0.0
N1393 N 0.91464 0.61156 0.94258 0.0
C1394 C 0.90152 0.62427 0.9066 0.0
C1395 C 0.90434 0.62175 0.84329 0.0
C1396 C 0.36899 0.36221 0.88505 0.0
C1397 C 0.38183 0.37515 0.92467 0.0
C1398 C 0.3716 0.36411 0.82264 0.0
C1399 C 0.38738 0.37869 0.79838 0.0
H1400 H 0.35784 0.34962 0.90228 0.0
H1401 H 0.36211 0.35328 0.7933 0.0
S1402 S 0.42425 0.41686 0.88355 0.0
N1403 N 0.40938 0.40424 0.93593 0.0
N1404 N 0.4157 0.40659 0.81841 0.0
C1405 C 0.39965 0.39238 0.8375 0.0
C1406 C 0.39653 0.39086 0.90091 0.0
C1407 C 0.40461 0.65248 0.64643 0.0
C1408 C 0.38849 0.64157 0.68115 0.0
C1409 C 0.40244 0.65395 0.58408 0.0
C1410 C 0.38443 0.64398 0.55454 0.0
H1411 H 0.41904 0.65984 0.66769 0.0
H1412 H 0.41487 0.66309 0.55898 0.0
S1413 S 0.33775 0.6137 0.62566 0.0
N1414 N 0.35368 0.62128 0.68285 0.0
N1415 N 0.35012 0.62303 0.56401 0.0
C1416 C 0.36814 0.63307 0.58872 0.0
C1417 C 0.37011 0.632 0.6526 0.0
C1418 C 0.13837 0.65153 0.38699 0.0
C1419 C 0.12479 0.64053 0.429 0.0
C1420 C 0.1359 0.64779 0.3252 0.0
C1421 C 0.1195 0.63328 0.30374 0.0
H1422 H 0.15028 0.66386 0.4017 0.0
H1423 H 0.14617 0.65703 0.29386 0.0
S1424 S 0.0805 0.59975 0.39581 0.0
N1425 N 0.09571 0.61332 0.44572 0.0
N1426 N 0.08974 0.60756 0.32884 0.0
C1427 C 0.10626 0.62167 0.34531 0.0
C1428 C 0.10921 0.62505 0.4083 0.0
C1429 C 0.13979 0.3814 0.15128 0.0
C1430 C 0.12382 0.36797 0.17941 0.0
C1431 C 0.14369 0.37954 0.08927 0.0
C1432 C 0.13149 0.36439 0.05463 0.0
H1433 H 0.14897 0.3936 0.17719 0.0
H1434 H 0.15577 0.39035 0.06804 0.0
S1435 S 0.08827 0.3253 0.10748 0.0
N1436 N 0.09576 0.33921 0.16847 0.0
N1437 N 0.10386 0.33503 0.05214 0.0
C1438 C 0.11601 0.35044 0.08255 0.0
C1439 C 0.11189 0.35246 0.14517 0.0
C1440 C 0.25448 0.1589 0.54445 0.0
C1441 C 0.27517 0.16918 0.5353 0.0
C1442 C 0.23807 0.15895 0.49885 0.0
C1443 C 0.24178 0.16929 0.44246 0.0
H1444 H 0.25048 0.15197 0.58828 0.0
H1445 H 0.22191 0.15234 0.50984 0.0
S1446 S 0.29387 0.19709 0.39488 0.0
N1447 N 0.29877 0.18904 0.46488 0.0
N1448 N 0.26846 0.18861 0.37925 0.0
C1449 C 0.2629 0.17847 0.432 0.0
C1450 C 0.27943 0.17856 0.47833 0.0
C1451 C 0.08845 0.98478 0.77215 0.0
C1452 C 0.08859 0.9875 0.70884 0.0
C1453 C 0.08957 1.00305 0.81149 0.0
C1454 C 0.09115 0.02481 0.78923 0.0
H1455 H 0.08591 0.96845 0.79148 0.0
H1456 H 0.08769 1.00024 0.85959 0.0
S1457 S 0.09365 0.04091 0.62753 0.0
N1458 N 0.09176 0.01355 0.62588 0.0
N1459 N 0.09396 0.04794 0.69973 0.0
C1460 C 0.09285 0.02767 0.72617 0.0
C1461 C 0.09161 0.00899 0.68597 0.0
C1462 C 0.25442 0.84087 0.05928 0.0
C1463 C 0.23476 0.83806 0.02626 0.0
C1464 C 0.27511 0.84161 0.02982 0.0
C1465 C 0.2769 0.83985 0.96627 0.0
H1466 H 0.254 0.8408 0.10822 0.0
H1467 H 0.28997 0.8423 0.05731 0.0
S1468 S 0.22999 0.83521 0.85903 0.0
N1469 N 0.21811 0.83591 0.9263 0.0
N1470 N 0.25695 0.83715 0.87144 0.0
C1471 C 0.25724 0.83883 0.93264 0.0
C1472 C 0.23619 0.83793 0.96257 0.0
C1473 C 0.41695 0.98733 0.22188 0.0
C1474 C 0.42107 0.98644 0.28466 0.0
C1475 C 0.41718 0.00756 0.19013 0.0
C1476 C 0.42184 0.02756 0.22001 0.0
H1477 H 0.41506 0.97207 0.19639 0.0
H1478 H 0.41561 0.00728 0.14136 0.0
S1479 S 0.43116 0.03466 0.38466 0.0
N1480 N 0.42774 0.00763 0.37605 0.0
N1481 N 0.42839 0.0456 0.31664 0.0
C1482 C 0.42424 0.02709 0.28336 0.0
C1483 C 0.42377 1.00654 0.31571 0.0
C1484 C 0.76021 0.83886 0.42061 0.0
C1485 C 0.73887 0.84082 0.44547 0.0
C1486 C 0.77909 0.83823 0.45765 0.0
C1487 C 0.77741 0.83921 0.5212 0.0
H1488 H 0.76222 0.83636 0.37241 0.0
H1489 H 0.79508 0.83547 0.43647 0.0
S1490 S 0.72533 0.84555 0.60855 0.0
N1491 N 0.71717 0.84498 0.53729 0.0
N1492 N 0.75268 0.84352 0.60701 0.0
C1493 C 0.7563 0.84261 0.54648 0.0
C1494 C 0.73701 0.84339 0.50856 0.0
C1495 C 0.92112 0.01495 0.16147 0.0
C1496 C 0.91704 0.99319 0.18139 0.0
C1497 C 0.92277 0.03267 0.20242 0.0
C1498 C 0.92066 0.02937 0.26523 0.0
H1499 H 0.92456 0.01807 0.11415 0.0
H1500 H 0.92723 0.04887 0.185 0.0
S1501 S 0.90812 0.9761 0.34083 0.0
N1502 N 0.90923 0.96977 0.26823 0.0
N1503 N 0.9126 1.0031 0.34507 0.0
C1504 C 0.91493 0.00811 0.28557 0.0
C1505 C 0.91309 0.99 0.24366 0.0
C1506 C 0.77923 0.17588 0.02435 0.0
C1507 C 0.77656 0.17396 0.96127 0.0
C1508 C 0.76105 0.17462 0.06392 0.0
C1509 C 0.73942 0.17116 0.04226 0.0
H1510 H 0.79538 0.17984 0.04304 0.0
H1511 H 0.76376 0.17779 0.11157 0.0
S1512 S 0.7236 0.16376 0.88136 0.0
N1513 N 0.7508 0.16718 0.87925 0.0
N1514 N 0.71656 0.16484 0.95349 0.0
C1515 C 0.7367 0.16775 0.97963 0.0
C1516 C 0.7553 0.1691 0.93916 0.0
C1517 C 0.59906 1.00642 0.698 0.0
C1518 C 0.59019 0.0275 0.71073 0.0
C1519 C 0.59986 0.98976 0.74279 0.0
C1520 C 0.59187 0.99365 0.80189 0.0
H1521 H 0.60408 1.00234 0.65229 0.0
H1522 H 0.60512 0.97333 0.72949 0.0
S1523 S 0.56848 0.04662 0.85879 0.0
N1524 N 0.57425 0.05162 0.78713 0.0
N1525 N 0.5762 0.02072 0.87107 0.0
C1526 C 0.58415 0.01508 0.81563 0.0
C1527 C 0.5832 0.03188 0.77018 0.0
C1528 C 0.73702 0.67465 0.02687 0.0
C1529 C 0.73583 0.67546 0.96309 0.0
C1530 C 0.7575 0.675 0.05747 0.0
C1531 C 0.77752 0.67647 0.02535 0.0
H1532 H 0.72192 0.67506 0.05349 0.0
H1533 H 0.75754 0.67586 0.10637 0.0
S1534 S 0.78379 0.67651 0.85836 0.0
N1535 N 0.75668 0.67581 0.8693 0.0
N1536 N 0.79507 0.6764 0.92635 0.0
C1537 C 0.77662 0.67562 0.96166 0.0
C1538 C 0.7558 0.6751 0.93059 0.0
C1539 C 0.57982 0.5269 0.22918 0.0
C1540 C 0.59112 0.52479 0.28463 0.0
C1541 C 0.57987 0.50978 0.18612 0.0
C1542 C 0.59147 0.48991 0.1962 0.0
H1543 H 0.56958 0.54135 0.22071 0.0
H1544 H 0.56938 0.51144 0.14663 0.0
S1545 S 0.62562 0.47694 0.3311 0.0
N1546 N 0.61572 0.50202 0.3451 0.0
N1547 N 0.61608 0.46986 0.26378 0.0
C1548 C 0.60434 0.48831 0.2492 0.0
C1549 C 0.60414 0.50576 0.2935 0.0
C1550 C 0.75544 0.33848 0.54911 0.0
C1551 C 0.73525 0.33897 0.51769 0.0
C1552 C 0.77576 0.3379 0.51771 0.0
C1553 C 0.77663 0.33808 0.45388 0.0
H1554 H 0.75554 0.33671 0.59782 0.0
H1555 H 0.79089 0.33598 0.54358 0.0
S1556 S 0.72836 0.34229 0.35117 0.0
N1557 N 0.71735 0.34198 0.41958 0.0
N1558 N 0.75549 0.34091 0.36101 0.0
C1559 C 0.75663 0.34046 0.4223 0.0
C1560 C 0.73595 0.34087 0.45415 0.0
C1561 C 0.9243 0.48644 0.70857 0.0
C1562 C 0.92463 0.48613 0.77244 0.0
C1563 C 0.92416 0.5065 0.67606 0.0
C1564 C 0.9246 0.52694 0.70638 0.0
H1565 H 0.92557 0.47104 0.68348 0.0
H1566 H 0.92557 0.50596 0.62727 0.0
S1567 S 0.9227 0.53533 0.87259 0.0
N1568 N 0.92314 0.50808 0.86423 0.0
N1569 N 0.92286 0.54575 0.80356 0.0
C1570 C 0.9231 0.52684 0.77002 0.0
C1571 C 0.92309 0.50644 0.80302 0.0
C1572 C 0.2547 0.35185 0.94407 0.0
C1573 C 0.23629 0.33777 0.95171 0.0
C1574 C 0.27209 0.35218 0.98688 0.0
C1575 C 0.27145 0.33857 0.0387 0.0
H1576 H 0.25647 0.36135 0.90281 0.0
H1577 H 0.28691 0.36165 0.97677 0.0
S1578 S 0.22551 0.30121 0.0833 0.0
N1579 N 0.21739 0.31186 0.01823 0.0
N1580 N 0.24995 0.31242 0.09772 0.0
C1581 C 0.25232 0.32588 0.04889 0.0
C1582 C 0.23476 0.3255 0.00564 0.0
C1583 C 0.45542 0.5147 0.75543 0.0
C1584 C 0.43579 0.52635 0.76883 0.0
C1585 C 0.45514 0.49463 0.7237 0.0
C1586 C 0.43521 0.48504 0.70332 0.0
H1587 H 0.47137 0.52121 0.7695 0.0
H1588 H 0.47085 0.4864 0.7155 0.0
S1589 S 0.37894 0.50874 0.72551 0.0
N1590 N 0.39566 0.5271 0.75722 0.0
N1591 N 0.39504 0.48861 0.69991 0.0
C1592 C 0.41531 0.4964 0.71614 0.0
C1593 C 0.41561 0.51716 0.74847 0.0
C1594 C 0.25108 0.6736 0.41178 0.0
C1595 C 0.2726 0.67132 0.43528 0.0
C1596 C 0.23251 0.67498 0.44997 0.0
C1597 C 0.23465 0.67437 0.51342 0.0
H1598 H 0.2487 0.67562 0.36356 0.0
H1599 H 0.21641 0.67787 0.42966 0.0
S1600 S 0.28719 0.66794 0.59806 0.0
N1601 N 0.2948 0.6678 0.52634 0.0
N1602 N 0.25988 0.67034 0.59792 0.0
C1603 C 0.25586 0.67082 0.53754 0.0
C1604 C 0.27484 0.66938 0.49851 0.0
C1605 C 0.09434 0.52516 0.25721 0.0
C1606 C 0.09291 0.52256 0.19399 0.0
C1607 C 0.09516 0.50672 0.29607 0.0
C1608 C 0.09478 0.48496 0.27323 0.0
H1609 H 0.0931 0.54157 0.27705 0.0
H1610 H 0.09443 0.5095 0.34442 0.0
S1611 S 0.09272 0.46912 0.11131 0.0
N1612 N 0.09253 0.49656 0.11034 0.0
N1613 N 0.09421 0.46188 0.18323 0.0
C1614 C 0.09493 0.48215 0.21003 0.0
C1615 C 0.094 0.50097 0.17041 0.0
C1616 C 0.13931 0.24967 0.38559 0.0
C1617 C 0.12166 0.23613 0.36596 0.0
C1618 C 0.13596 0.27202 0.4011 0.0
C1619 C 0.11487 0.28194 0.39698 0.0
H1620 H 0.15587 0.24288 0.39019 0.0
H1621 H 0.15014 0.28162 0.41604 0.0
S1622 S 0.06306 0.25403 0.34702 0.0
N1623 N 0.08221 0.2345 0.34275 0.0
N1624 N 0.07602 0.2765 0.37114 0.0
C1625 C 0.09709 0.26872 0.37668 0.0
C1626 C 0.10045 0.24586 0.36144 0.0
C1627 C 0.98862 0.8498 0.62539 0.0
C1628 C 0.97449 0.86839 0.62733 0.0
C1629 C 0.01116 0.85186 0.61079 0.0
C1630 C 0.02075 0.87263 0.5975 0.0
H1631 H 0.98229 0.83339 0.63561 0.0
H1632 H 0.02123 0.83697 0.61128 0.0
S1633 S 0.99079 0.92651 0.59262 0.0
N1634 N 0.97161 0.90831 0.61214 0.0
N1635 N 0.01392 0.91216 0.5845 0.0
C1636 C 0.00671 0.89135 0.59781 0.0
C1637 C 0.98367 0.88925 0.61281 0.0
C1638 C 0.41338 0.74053 0.88096 0.0
C1639 C 0.39441 0.72802 0.89587 0.0
C1640 C 0.41185 0.763 0.86539 0.0
C1641 C 0.39126 0.77402 0.86365 0.0
H1642 H 0.42969 0.73299 0.88167 0.0
H1643 H 0.42707 0.77183 0.85533 0.0
S1644 S 0.33631 0.74855 0.89623 0.0
N1645 N 0.35422 0.72817 0.90627 0.0
N1646 N 0.35125 0.77033 0.87655 0.0
C1647 C 0.37204 0.76159 0.87735 0.0
C1648 C 0.37364 0.73867 0.8937 0.0
C1649 C 0.49963 0.16402 0.11517 0.0
C1650 C 0.49035 0.14285 0.10497 0.0
C1651 C 0.522 0.16658 0.13125 0.0
C1652 C 0.53597 0.1481 0.13863 0.0
H1653 H 0.48944 0.17878 0.11219 0.0
H1654 H 0.52826 0.18318 0.13935 0.0
S1655 S 0.52097 0.0893 0.10986 0.0
N1656 N 0.49783 0.1032 0.09742 0.0
N1657 N 0.53958 0.10807 0.12944 0.0
C1658 C 0.52723 0.12692 0.12658 0.0
C1659 C 0.50454 0.1243 0.10922 0.0
C1660 C 0.13821 0.75901 0.12418 0.0
C1661 C 0.11912 0.77148 0.13851 0.0
C1662 C 0.13688 0.73631 0.11013 0.0
C1663 C 0.11642 0.72502 0.10976 0.0
H1664 H 0.15435 0.7669 0.12243 0.0
H1665 H 0.15207 0.72763 0.09879 0.0
S1666 S 0.06155 0.74953 0.14814 0.0
N1667 N 0.07914 0.7704 0.15439 0.0
N1668 N 0.07666 0.72792 0.12802 0.0
C1669 C 0.09724 0.73714 0.12554 0.0
C1670 C 0.09859 0.76025 0.13994 0.0
C1671 C 0.50063 0.85035 0.38495 0.0
C1672 C 0.48985 0.8711 0.38342 0.0
C1673 C 0.52298 0.84812 0.36848 0.0
C1674 C 0.53551 0.86649 0.3491 0.0
H1675 H 0.49168 0.83553 0.39804 0.0
H1676 H 0.53035 0.83173 0.36995 0.0
S1677 S 0.51588 0.92482 0.34091 0.0
N1678 N 0.49403 0.91069 0.36423 0.0
N1679 N 0.5359 0.90638 0.33244 0.0
C1680 C 0.5252 0.88744 0.34869 0.0
C1681 C 0.50246 0.88978 0.36619 0.0
C1682 C 0.40747 0.24787 0.6307 0.0
C1683 C 0.38669 0.23863 0.6457 0.0
C1684 C 0.40975 0.27045 0.61659 0.0
C1685 C 0.39138 0.28492 0.61676 0.0
H1686 H 0.42213 0.2375 0.62855 0.0
H1687 H 0.42611 0.27654 0.60488 0.0
S1688 S 0.33346 0.2696 0.65666 0.0
N1689 N 0.34747 0.24618 0.66259 0.0
N1690 N 0.35177 0.28849 0.63598 0.0
C1691 C 0.37057 0.27607 0.63301 0.0
C1692 C 0.36824 0.25303 0.64752 0.0
C1693 C 0.98888 0.16293 0.8491 0.0
C1694 C 0.9743 0.14474 0.85401 0.0
C1695 C 0.01147 0.16096 0.86354 0.0
C1696 C 0.02052 0.14071 0.88364 0.0
H1697 H 0.98289 0.17885 0.83336 0.0
H1698 H 0.02198 0.17538 0.85759 0.0
S1699 S 0.9891 0.08849 0.90952 0.0
N1700 N 0.97036 0.10608 0.88388 0.0
N1701 N 0.01267 0.10241 0.91125 0.0
C1702 C 1.006 0.12252 0.8903 0.0
C1703 C 0.98298 0.12452 0.8754 0.0
C1704 C 0.8749 0.73675 0.61208 0.0
C1705 C 0.89533 0.72568 0.61846 0.0
C1706 C 0.87261 0.75924 0.62762 0.0
C1707 C 0.89065 0.77156 0.65037 0.0
H1708 H 0.86065 0.72814 0.59358 0.0
H1709 H 0.85674 0.76715 0.61979 0.0
S1710 S 0.94697 0.74955 0.68334 0.0
N1711 N 0.93342 0.72826 0.65437 0.0
N1712 N 0.92911 0.77029 0.68386 0.0
C1713 C 0.91087 0.76036 0.65978 0.0
C1714 C 0.91323 0.73752 0.64368 0.0
C1715 C 1.00328 0.12105 0.37629 0.0
C1716 C 0.99156 0.13919 0.40083 0.0
C1717 C 0.02578 0.12279 0.36048 0.0
C1718 C 0.03766 0.14265 0.36921 0.0
H1719 H 0.99486 0.10556 0.367 0.0
H1720 H 0.03381 0.10847 0.34048 0.0
S1721 S 0.01543 0.19445 0.43765 0.0
N1722 N 0.9941 0.17726 0.43709 0.0
N1723 N 0.03632 0.18046 0.40802 0.0
C1724 C 0.02646 0.16061 0.3964 0.0
C1725 C 1.00348 0.1589 0.41206 0.0
C1726 C 0.602 0.25092 0.12401 0.0
C1727 C 0.62292 0.24178 0.13783 0.0
C1728 C 0.59947 0.27353 0.11055 0.0
C1729 C 0.61774 0.2881 0.11021 0.0
H1730 H 0.58739 0.24047 0.12232 0.0
H1731 H 0.58301 0.27954 0.09971 0.0
S1732 S 0.67594 0.2731 0.14767 0.0
N1733 N 0.66214 0.24954 0.15344 0.0
N1734 N 0.65741 0.29192 0.12805 0.0
C1735 C 0.6387 0.27935 0.12532 0.0
C1736 C 0.64128 0.25629 0.13918 0.0
C1737 C 0.48828 0.88978 0.87356 0.0
C1738 C 0.47873 0.86855 0.86759 0.0
C1739 C 0.51107 0.89252 0.8844 0.0
C1740 C 0.52543 0.87416 0.8898 0.0
H1741 H 0.47812 0.90452 0.86953 0.0
H1742 H 0.51748 0.90927 0.88775 0.0
S1743 S 0.50874 0.81483 0.87988 0.0
N1744 N 0.48545 0.82871 0.86945 0.0
N1745 N 0.52814 0.83382 0.88974 0.0
C1746 C 0.51605 0.85278 0.88482 0.0
C1747 C 0.4928 0.84999 0.87373 0.0
C1748 C 0.87622 0.27696 0.86966 0.0
C1749 C 0.89704 0.28737 0.86415 0.0
C1750 C 0.87339 0.25445 0.85504 0.0
C1751 C 0.89124 0.24142 0.83415 0.0
H1752 H 0.86206 0.28611 0.88666 0.0
H1753 H 0.8572 0.2471 0.86203 0.0
S1754 S 0.94856 0.2615 0.80437 0.0
N1755 N 0.93539 0.28339 0.83124 0.0
N1756 N 0.93008 0.2413 0.80354 0.0
C1757 C 0.91191 0.25194 0.82573 0.0
C1758 C 0.91481 0.27482 0.84087 0.0
C1759 C 0.50889 0.12337 0.62792 0.0
C1760 C 0.52144 0.14113 0.60447 0.0
C1761 C 0.48655 0.12606 0.64443 0.0
C1762 C 0.47562 0.14657 0.63768 0.0
H1763 H 0.5165 0.10731 0.63523 0.0
H1764 H 0.47784 0.11188 0.66286 0.0
S1765 S 0.50053 0.19812 0.5753 0.0
N1766 N 0.52093 0.17985 0.57335 0.0
N1767 N 0.47895 0.18483 0.60368 0.0
C1768 C 0.48777 0.16435 0.61279 0.0
C1769 C 0.51063 0.16166 0.59643 0.0
C1770 C 0.63816 0.75829 0.36879 0.0
C1771 C 0.62014 0.77162 0.3507 0.0
C1772 C 0.63547 0.73563 0.38147 0.0
C1773 C 0.61465 0.72516 0.37642 0.0
H1774 H 0.6545 0.76548 0.37463 0.0
H1775 H 0.64989 0.72631 0.39585 0.0
S1776 S 0.56225 0.75216 0.32709 0.0
N1777 N 0.5808 0.77231 0.32587 0.0
N1778 N 0.57577 0.72981 0.34943 0.0
C1779 C 0.59655 0.73814 0.35692 0.0
C1780 C 0.59928 0.76128 0.34415 0.0
C1781 C 0.02222 0.85233 0.11623 0.0
C1782 C 0.0367 0.87055 0.12179 0.0
C1783 C 0.99982 0.85519 0.10134 0.0
C1784 C 0.99075 0.87644 0.09137 0.0
H1785 H 0.02813 0.83559 0.12403 0.0
H1786 H 0.98944 0.84054 0.09913 0.0
S1787 S 0.02191 0.92966 0.096 0.0
N1788 N 0.04059 0.91063 0.11291 0.0
N1789 N 0.99849 0.91604 0.08511 0.0
C1790 C 1.00519 0.89481 0.09498 0.0
C1791 C 0.0281 0.89187 0.1102 0.0
C1792 C 0.6386 0.77768 0.88946 0.0
C1793 C 0.61929 0.78996 0.87662 0.0
C1794 C 0.64069 0.7554 0.87168 0.0
C1795 C 0.62347 0.74442 0.84073 0.0
H1796 H 0.65214 0.78518 0.9143 0.0
H1797 H 0.65558 0.74652 0.88447 0.0
S1798 S 0.57021 0.76954 0.79131 0.0
N1799 N 0.58316 0.78975 0.82724 0.0
N1800 N 0.58708 0.74799 0.79426 0.0
C1801 C 0.60442 0.75673 0.82554 0.0
C1802 C 0.60233 0.77944 0.84336 0.0
C1803 C 0.48831 0.35149 0.11164 0.0
C1804 C 0.47453 0.37034 0.11326 0.0
C1805 C 0.51109 0.35323 0.09976 0.0
C1806 C 0.52125 0.37392 0.08887 0.0
H1807 H 0.48155 0.33515 0.12041 0.0
H1808 H 0.52086 0.33815 0.10055 0.0
S1809 S 0.49231 0.42834 0.08295 0.0
N1810 N 0.47254 0.41038 0.09955 0.0
N1811 N 0.51531 0.41363 0.07685 0.0
C1812 C 0.50755 0.39289 0.08851 0.0
C1813 C 0.48427 0.39112 0.10083 0.0
C1814 C 0.87467 0.25896 0.36113 0.0
C1815 C 0.89307 0.27163 0.34228 0.0
C1816 C 0.87689 0.23648 0.37673 0.0
C1817 C 0.89762 0.22573 0.37433 0.0
H1818 H 0.85846 0.26656 0.36545 0.0
H1819 H 0.86227 0.22759 0.39172 0.0
S1820 S 0.9507 0.25077 0.32246 0.0
N1821 N 0.93251 0.27116 0.31809 0.0
N1822 N 0.93668 0.22916 0.34769 0.0
C1823 C 0.91604 0.238 0.35373 0.0
C1824 C 0.91376 0.26083 0.33758 0.0
C1825 C 1.00114 0.66244 0.60306 0.0
C1826 C 0.99116 0.64154 0.59402 0.0
C1827 C 0.0237 0.66445 0.61732 0.0
C1828 C 0.03742 0.64567 0.62323 0.0
H1829 H 0.99138 0.6775 0.60033 0.0
H1830 H 0.03034 0.68096 0.6242 0.0
S1831 S 0.02 0.58707 0.60079 0.0
N1832 N 0.99718 0.60161 0.5895 0.0
N1833 N 0.03953 0.60539 0.61647 0.0
C1834 C 0.02786 0.62465 0.61301 0.0
C1835 C 1.0048 0.62259 0.59832 0.0
C1836 C 0.59927 0.23816 0.62314 0.0
C1837 C 0.61738 0.2256 0.60213 0.0
C1838 C 0.6018 0.26038 0.64058 0.0
C1839 C 0.62261 0.27104 0.6383 0.0
H1840 H 0.58281 0.23095 0.62504 0.0
H1841 H 0.58712 0.26938 0.65466 0.0
S1842 S 0.67584 0.24479 0.5923 0.0
N1843 N 0.65719 0.22497 0.58378 0.0
N1844 N 0.66205 0.26661 0.61726 0.0
C1845 C 0.64108 0.25836 0.6198 0.0
C1846 C 0.63843 0.23573 0.60141 0.0
C1847 C 1.00378 0.35268 0.8866 0.0
C1848 C 0.99272 0.3733 0.88853 0.0
C1849 C 0.02636 0.35118 0.87169 0.0
C1850 C 0.03889 0.37018 0.85741 0.0
H1851 H 0.99483 0.33742 0.89526 0.0
H1852 H 0.03388 0.33486 0.86986 0.0
S1853 S 0.01873 0.42839 0.86156 0.0
N1854 N 0.99677 0.4134 0.87946 0.0
N1855 N 0.03903 0.41045 0.85047 0.0
C1856 C 0.02835 0.39097 0.86121 0.0
C1857 C 1.00537 0.39256 0.87711 0.0
C1858 C 0.87786 0.7773 0.10548 0.0
C1859 C 0.89839 0.78838 0.10959 0.0
C1860 C 0.87586 0.75466 0.11931 0.0
C1861 C 0.89433 0.742 0.13758 0.0
H1862 H 0.86315 0.78611 0.09086 0.0
H1863 H 0.85975 0.74693 0.11404 0.0
S1864 S 0.95167 0.7633 0.15944 0.0
N1865 N 0.93745 0.78508 0.13624 0.0
N1866 N 0.93372 0.74264 0.16197 0.0
C1867 C 0.91487 0.753 0.14347 0.0
C1868 C 0.91689 0.7761 0.12954 0.0
C1869 C 0.48754 0.6587 0.38109 0.0
C1870 C 0.47597 0.64185 0.35006 0.0
C1871 C 0.50989 0.65611 0.39758 0.0
C1872 C 0.52158 0.63646 0.38445 0.0
H1873 H 0.47942 0.67424 0.39191 0.0
H1874 H 0.51815 0.66979 0.42007 0.0
S1875 S 0.4989 0.58702 0.30506 0.0
N1876 N 0.4779 0.60455 0.30806 0.0
N1877 N 0.51975 0.59976 0.33871 0.0
C1878 C 0.51007 0.61928 0.35464 0.0
C1879 C 0.48735 0.62196 0.33749 0.0
C1880 C 0.41361 0.24138 0.09964 0.0
C1881 C 0.39495 0.22762 0.09242 0.0
C1882 C 0.41139 0.26382 0.11531 0.0
C1883 C 0.39039 0.2735 0.12514 0.0
H1884 H 0.43015 0.23484 0.09234 0.0
H1885 H 0.42635 0.2737 0.11874 0.0
S1886 S 0.33628 0.24395 0.11792 0.0
N1887 N 0.35478 0.22488 0.09973 0.0
N1888 N 0.35056 0.26685 0.13063 0.0
C1889 C 0.37159 0.25967 0.1201 0.0
C1890 C 0.37386 0.23684 0.10327 0.0
C1891 C 0.50367 0.6273 0.86826 0.0
C1892 C 0.49025 0.64565 0.88339 0.0
C1893 C 0.52623 0.62988 0.85416 0.0
C1894 C 0.53639 0.65091 0.85443 0.0
H1895 H 0.49666 0.61077 0.86605 0.0
H1896 H 0.5357 0.61522 0.84227 0.0
S1897 S 0.50915 0.70424 0.89521 0.0
N1898 N 0.48924 0.68556 0.90083 0.0
N1899 N 0.53149 0.69038 0.87429 0.0
C1900 C 0.52333 0.66937 0.87092 0.0
C1901 C 0.50036 0.66674 0.88547 0.0
C1902 C 0.09929 0.77512 0.62333 0.0
C1903 C 0.11805 0.78883 0.61671 0.0
C1904 C 0.10133 0.75243 0.6359 0.0
C1905 C 0.12226 0.74228 0.64243 0.0
H1906 H 0.08274 0.78188 0.61816 0.0
H1907 H 0.08626 0.74271 0.63915 0.0
S1908 S 0.17676 0.77099 0.6334 0.0
N1909 N 0.15838 0.79073 0.62047 0.0
N1910 N 0.16224 0.74812 0.64432 0.0
C1911 C 0.14122 0.7559 0.63767 0.0
C1912 C 0.13912 0.7791 0.62472 0.0
C1913 C 0.99083 0.34924 0.35058 0.0
C1914 C 0.97655 0.36767 0.35534 0.0
C1915 C 0.01347 0.35093 0.3643 0.0
C1916 C 0.02287 0.37114 0.38347 0.0
H1917 H 0.98455 0.33333 0.3354 0.0
H1918 H 0.02376 0.33635 0.35836 0.0
S1919 S 0.99234 0.42391 0.4091 0.0
N1920 N 0.97325 0.4065 0.38436 0.0
N1921 N 0.01572 0.40965 0.41053 0.0
C1922 C 0.00866 0.38956 0.39019 0.0
C1923 C 0.98557 0.38785 0.37599 0.0
C1924 C 0.3752 0.77397 0.36916 0.0
C1925 C 0.39623 0.78403 0.37324 0.0
C1926 C 0.37287 0.75136 0.35522 0.0
C1927 C 0.39148 0.73768 0.34476 0.0
H1928 H 0.36029 0.78358 0.37726 0.0
H1929 H 0.35626 0.74449 0.35387 0.0
S1930 S 0.45036 0.75605 0.34656 0.0
N1931 N 0.43612 0.77863 0.36317 0.0
N1932 N 0.43175 0.73625 0.33712 0.0
C1933 C 0.41263 0.74763 0.3474 0.0
C1934 C 0.41501 0.7707 0.36161 0.0
C1935 C 0.01048 0.62141 0.10702 0.0
C1936 C 0.02346 0.63943 0.08707 0.0
C1937 C 0.98796 0.6241 0.12188 0.0
C1938 C 0.97745 0.64491 0.11749 0.0
H1939 H 0.01787 0.60519 0.113 0.0
H1940 H 0.97885 0.60977 0.13798 0.0
S1941 S 1.00335 0.69702 0.06158 0.0
N1942 N 0.02354 0.67855 0.05937 0.0
N1943 N 0.98146 0.68357 0.08739 0.0
C1944 C 0.99002 0.66291 0.09547 0.0
C1945 C 0.0129 0.66016 0.08019 0.0
C1946 C 0.13808 0.26084 0.87433 0.0
C1947 C 0.12085 0.27399 0.85052 0.0
C1948 C 0.13433 0.23888 0.89274 0.0
C1949 C 0.11327 0.22897 0.88744 0.0
H1950 H 0.15453 0.26771 0.88053 0.0
H1951 H 0.14815 0.22962 0.91124 0.0
S1952 S 0.06271 0.25578 0.82526 0.0
N1953 N 0.08199 0.27519 0.82101 0.0
N1954 N 0.07504 0.23385 0.85473 0.0
C1955 C 0.09599 0.24172 0.8623 0.0
C1956 C 0.09976 0.2642 0.84413 0.0
C1957 C 0.50214 0.38586 0.6126 0.0
C1958 C 0.48958 0.36699 0.59679 0.0
C1959 C 0.52474 0.38421 0.62718 0.0
C1960 C 0.53578 0.36363 0.62673 0.0
H1961 H 0.49438 0.40206 0.61514 0.0
H1962 H 0.53354 0.39921 0.63963 0.0
S1963 S 0.51098 0.30932 0.58396 0.0
N1964 N 0.49031 0.32716 0.57833 0.0
N1965 N 0.53262 0.32405 0.6058 0.0
C1966 C 0.52357 0.34468 0.60951 0.0
C1967 C 0.50057 0.34637 0.5945 0.0
loop_
_geom_bond_atom_site_label_1
_geom_bond_atom_site_label_2
_geom_bond_distance
_geom_bond_site_symmetry_2
_ccdc_geom_bond_type
Co0 O3 1.970 . S
Co0 N17 1.989 . S
Co0 O25 1.967 . S
Co0 O32 1.920 . S
Co1 O4 1.966 . S
Co1 N10 2.022 . S
Co1 N18 1.993 . S
Co1 O26 1.941 . S
C2 O3 1.258 . S
C2 O4 1.263 . S
O3 Co0 1.970 . S
O3 C2 1.258 . S
O4 Co1 1.966 . S
O4 C2 1.263 . S
C5 O6 1.235 . S
C5 O32 1.289 . S
O6 C5 1.235 . S
C7 C9 1.400 . S
C7 N10 1.351 . S
C7 C12 1.501 . S
C8 C9 1.387 . S
C8 N11 1.341 . S
C9 C7 1.400 . S
C9 C8 1.387 . S
N10 Co1 2.022 . S
N10 C7 1.351 . S
N10 N11 1.365 . S
N11 C8 1.341 . S
N11 N10 1.365 . S
N11 H31 0.862 . S
C12 C7 1.501 . S
C12 H13 0.961 . S
C12 H14 0.961 . S
C12 H15 0.960 . S
H13 C12 0.961 . S
H14 C12 0.961 . S
H15 C12 0.960 . S
C16 N17 1.342 . S
C16 C20 1.401 . S
C16 C21 1.499 . S
N17 Co0 1.989 . S
N17 C16 1.342 . S
N17 N18 1.388 . S
N18 Co1 1.993 . S
N18 N17 1.388 . S
N18 C19 1.346 . S
C19 N18 1.346 . S
C19 C20 1.396 . S
C19 C29 1.510 . S
C20 C16 1.401 . S
C20 C19 1.396 . S
C21 C16 1.499 . S
C21 H22 0.959 . S
C21 H23 0.960 . S
C21 H24 0.961 . S
H22 C21 0.959 . S
H23 C21 0.960 . S
H24 C21 0.961 . S
O25 Co0 1.967 . S
O25 C33 1.258 . S
O26 Co1 1.941 . S
O26 C33 1.266 . S
H27 C29 0.959 . S
H28 C29 0.961 . S
C29 C19 1.510 . S
C29 H27 0.959 . S
C29 H28 0.961 . S
C29 H30 0.960 . S
H30 C29 0.960 . S
H31 N11 0.862 . S
O32 Co0 1.920 . S
O32 C5 1.289 . S
C33 O25 1.258 . S
C33 O26 1.266 . S
Co34 O37 1.970 . S
Co34 N51 1.989 . S
Co34 O59 1.967 . S
Co34 O66 1.920 . S
Co35 O38 1.966 . S
Co35 N44 2.022 . S
Co35 N52 1.993 . S
Co35 O60 1.941 . S
C36 O37 1.258 . S
C36 O38 1.263 . S
O37 Co34 1.970 . S
O37 C36 1.258 . S
O38 Co35 1.966 . S
O38 C36 1.263 . S
C39 O40 1.235 . S
C39 O66 1.289 . S
O40 C39 1.235 . S
C41 C43 1.400 . S
C41 N44 1.351 . S
C41 C46 1.501 . S
C42 C43 1.387 . S
C42 N45 1.341 . S
C43 C41 1.400 . S
C43 C42 1.387 . S
N44 Co35 2.022 . S
N44 C41 1.351 . S
N44 N45 1.365 . S
N45 C42 1.341 . S
N45 N44 1.365 . S
N45 H65 0.862 . S
C46 C41 1.501 . S
C46 H47 0.961 . S
C46 H48 0.961 . S
C46 H49 0.960 . S
H47 C46 0.961 . S
H48 C46 0.961 . S
H49 C46 0.960 . S
C50 N51 1.342 . S
C50 C54 1.401 . S
C50 C55 1.499 . S
N51 Co34 1.989 . S
N51 C50 1.342 . S
N51 N52 1.388 . S
N52 Co35 1.993 . S
N52 N51 1.388 . S
N52 C53 1.346 . S
C53 N52 1.346 . S
C53 C54 1.396 . S
C53 C63 1.510 . S
C54 C50 1.401 . S
C54 C53 1.396 . S
C55 C50 1.499 . S
C55 H56 0.959 . S
C55 H57 0.960 . S
C55 H58 0.961 . S
H56 C55 0.959 . S
H57 C55 0.960 . S
H58 C55 0.961 . S
O59 Co34 1.967 . S
O59 C67 1.258 . S
O60 Co35 1.941 . S
O60 C67 1.266 . S
H61 C63 0.959 . S
H62 C63 0.961 . S
C63 C53 1.510 . S
C63 H61 0.959 . S
C63 H62 0.961 . S
C63 H64 0.960 . S
H64 C63 0.960 . S
H65 N45 0.862 . S
O66 Co34 1.920 . S
O66 C39 1.289 . S
C67 O59 1.258 . S
C67 O60 1.266 . S
Co68 O71 1.970 . S
Co68 N85 1.989 . S
Co68 O93 1.967 . S
Co68 O100 1.920 . S
Co69 O72 1.966 . S
Co69 N78 2.022 . S
Co69 N86 1.993 . S
Co69 O94 1.941 . S
C70 O71 1.258 . S
C70 O72 1.263 . S
O71 Co68 1.970 . S
O71 C70 1.258 . S
O72 Co69 1.966 . S
O72 C70 1.263 . S
C73 O74 1.235 . S
C73 O100 1.289 . S
O74 C73 1.235 . S
C75 C77 1.400 . S
C75 N78 1.351 . S
C75 C80 1.501 . S
C76 C77 1.387 . S
C76 N79 1.341 . S
C77 C75 1.400 . S
C77 C76 1.387 . S
N78 Co69 2.022 . S
N78 C75 1.351 . S
N78 N79 1.365 . S
N79 C76 1.341 . S
N79 N78 1.365 . S
N79 H99 0.862 . S
C80 C75 1.501 . S
C80 H81 0.961 . S
C80 H82 0.961 . S
C80 H83 0.960 . S
H81 C80 0.961 . S
H82 C80 0.961 . S
H83 C80 0.960 . S
C84 N85 1.358 . S
C84 C88 1.390 1_556 S
C84 C89 1.496 1_556 S
N85 Co68 1.989 . S
N85 C84 1.358 . S
N85 N86 1.388 . S
N86 Co69 1.993 . S
N86 N85 1.388 . S
N86 C87 1.346 1_556 S
C87 N86 1.346 1_554 S
C87 C88 1.396 . S
C87 C97 1.510 . S
C88 C84 1.390 1_554 S
C88 C87 1.396 . S
C89 C84 1.496 1_554 S
C89 H90 0.959 1_554 S
C89 H91 0.960 . S
C89 H92 0.961 . S
H90 C89 0.959 1_556 S
H91 C89 0.960 . S
H92 C89 0.961 . S
O93 Co68 1.967 . S
O93 C101 1.258 . S
O94 Co69 1.941 . S
O94 C101 1.266 . S
H95 C97 0.959 . S
H96 C97 0.961 . S
C97 C87 1.510 . S
C97 H95 0.959 . S
C97 H96 0.961 . S
C97 H98 0.960 1_554 S
H98 C97 0.960 1_556 S
H99 N79 0.862 . S
O100 Co68 1.920 . S
O100 C73 1.289 . S
C101 O93 1.258 . S
C101 O94 1.266 . S
Co102 O105 1.970 . S
Co102 N119 1.989 . S
Co102 O127 1.967 . S
Co102 O134 1.920 . S
Co103 O106 1.966 . S
Co103 N112 2.022 . S
Co103 N120 1.993 . S
Co103 O128 1.941 . S
C104 O105 1.258 . S
C104 O106 1.263 . S
O105 Co102 1.970 . S
O105 C104 1.258 . S
O106 Co103 1.966 . S
O106 C104 1.263 . S
C107 O108 1.235 . S
C107 O134 1.289 . S
O108 C107 1.235 . S
C109 C111 1.400 . S
C109 N112 1.351 . S
C109 C114 1.501 . S
C110 C111 1.387 . S
C110 N113 1.341 . S
C111 C109 1.400 . S
C111 C110 1.387 . S
N112 Co103 2.022 . S
N112 C109 1.351 . S
N112 N113 1.365 . S
N113 C110 1.341 . S
N113 N112 1.365 . S
N113 H133 0.862 . S
C114 C109 1.501 . S
C114 H115 0.961 . S
C114 H116 0.961 . S
C114 H117 0.960 . S
H115 C114 0.961 . S
H116 C114 0.961 . S
H117 C114 0.960 . S
C118 N119 1.342 . S
C118 C122 1.401 . S
C118 C123 1.499 . S
N119 Co102 1.989 . S
N119 C118 1.342 . S
N119 N120 1.388 . S
N120 Co103 1.993 . S
N120 N119 1.388 . S
N120 C121 1.346 . S
C121 N120 1.346 . S
C121 C122 1.396 . S
C121 C131 1.510 . S
C122 C118 1.401 . S
C122 C121 1.396 . S
C123 C118 1.499 . S
C123 H124 0.959 . S
C123 H125 0.960 . S
C123 H126 0.961 . S
H124 C123 0.959 . S
H125 C123 0.960 . S
H126 C123 0.961 . S
O127 Co102 1.967 . S
O127 C135 1.258 . S
O128 Co103 1.941 . S
O128 C135 1.266 . S
H129 C131 0.959 . S
H130 C131 0.961 . S
C131 C121 1.510 . S
C131 H129 0.959 . S
C131 H130 0.961 . S
C131 H132 0.960 . S
H132 C131 0.960 . S
H133 N113 0.862 . S
O134 Co102 1.920 . S
O134 C107 1.289 . S
C135 O127 1.258 . S
C135 O128 1.266 . S
Co136 O139 1.970 . S
Co136 N153 1.989 . S
Co136 O161 1.967 . S
Co136 O168 1.920 . S
Co137 O140 1.966 . S
Co137 N146 2.022 . S
Co137 N154 1.993 . S
Co137 O162 1.941 . S
C138 O139 1.258 . S
C138 O140 1.263 . S
O139 Co136 1.970 . S
O139 C138 1.258 . S
O140 Co137 1.966 . S
O140 C138 1.263 . S
C141 O142 1.235 . S
C141 O168 1.289 . S
O142 C141 1.235 . S
C143 C145 1.400 . S
C143 N146 1.351 . S
C143 C148 1.501 . S
C144 C145 1.387 . S
C144 N147 1.341 . S
C145 C143 1.400 . S
C145 C144 1.387 . S
N146 Co137 2.022 . S
N146 C143 1.351 . S
N146 N147 1.365 . S
N147 C144 1.341 . S
N147 N146 1.365 . S
N147 H167 0.862 . S
C148 C143 1.501 . S
C148 H149 0.961 . S
C148 H150 0.961 . S
C148 H151 0.960 . S
H149 C148 0.961 . S
H150 C148 0.961 . S
H151 C148 0.960 . S
C152 N153 1.358 . S
C152 C156 1.390 1_554 S
C152 C157 1.496 1_554 S
N153 Co136 1.989 . S
N153 C152 1.358 . S
N153 N154 1.388 . S
N154 Co137 1.993 . S
N154 N153 1.388 . S
N154 C155 1.346 1_554 S
C155 N154 1.346 1_556 S
C155 C156 1.396 . S
C155 C165 1.510 . S
C156 C152 1.390 1_556 S
C156 C155 1.396 . S
C157 C152 1.496 1_556 S
C157 H158 0.959 1_556 S
C157 H159 0.960 . S
C157 H160 0.961 . S
H158 C157 0.959 1_554 S
H159 C157 0.960 . S
H160 C157 0.961 . S
O161 Co136 1.967 . S
O161 C169 1.258 . S
O162 Co137 1.941 . S
O162 C169 1.266 . S
H163 C165 0.959 . S
H164 C165 0.961 . S
C165 C155 1.510 . S
C165 H163 0.959 . S
C165 H164 0.961 . S
C165 H166 0.960 1_556 S
H166 C165 0.960 1_554 S
H167 N147 0.862 . S
O168 Co136 1.920 . S
O168 C141 1.289 . S
C169 O161 1.258 . S
C169 O162 1.266 . S
Co170 O173 1.970 . S
Co170 N187 1.989 . S
Co170 O195 1.967 . S
Co170 O202 1.920 . S
Co171 O174 1.966 . S
Co171 N180 2.022 . S
Co171 N188 1.993 . S
Co171 O196 1.941 . S
C172 O173 1.258 . S
C172 O174 1.263 . S
O173 Co170 1.970 . S
O173 C172 1.258 . S
O174 Co171 1.966 . S
O174 C172 1.263 . S
C175 O176 1.235 . S
C175 O202 1.289 . S
O176 C175 1.235 . S
C177 C179 1.400 . S
C177 N180 1.351 . S
C177 C182 1.501 . S
C178 C179 1.387 . S
C178 N181 1.341 . S
C179 C177 1.400 . S
C179 C178 1.387 . S
N180 Co171 2.022 . S
N180 C177 1.351 . S
N180 N181 1.365 . S
N181 C178 1.341 . S
N181 N180 1.365 . S
N181 H201 0.862 . S
C182 C177 1.501 . S
C182 H183 0.961 . S
C182 H184 0.961 . S
C182 H185 0.960 . S
H183 C182 0.961 . S
H184 C182 0.961 . S
H185 C182 0.960 . S
C186 N187 1.342 . S
C186 C190 1.401 . S
C186 C191 1.499 . S
N187 Co170 1.989 . S
N187 C186 1.342 . S
N187 N188 1.388 . S
N188 Co171 1.993 . S
N188 N187 1.388 . S
N188 C189 1.346 . S
C189 N188 1.346 . S
C189 C190 1.396 . S
C189 C199 1.510 . S
C190 C186 1.401 . S
C190 C189 1.396 . S
C191 C186 1.499 . S
C191 H192 0.959 . S
C191 H193 0.960 . S
C191 H194 0.961 . S
H192 C191 0.959 . S
H193 C191 0.960 . S
H194 C191 0.961 . S
O195 Co170 1.967 . S
O195 C203 1.258 . S
O196 Co171 1.941 . S
O196 C203 1.266 . S
H197 C199 0.959 . S
H198 C199 0.961 . S
C199 C189 1.510 . S
C199 H197 0.959 . S
C199 H198 0.961 . S
C199 H200 0.960 . S
H200 C199 0.960 . S
H201 N181 0.862 . S
O202 Co170 1.920 . S
O202 C175 1.289 . S
C203 O195 1.258 . S
C203 O196 1.266 . S
Co204 O207 1.970 . S
Co204 N221 1.989 . S
Co204 O229 1.967 . S
Co204 O236 1.920 . S
Co205 O208 1.966 . S
Co205 N214 2.022 . S
Co205 N222 1.993 . S
Co205 O230 1.941 . S
C206 O207 1.258 . S
C206 O208 1.263 . S
O207 Co204 1.970 . S
O207 C206 1.258 . S
O208 Co205 1.966 . S
O208 C206 1.263 . S
C209 O210 1.235 . S
C209 O236 1.289 . S
O210 C209 1.235 . S
C211 C213 1.400 . S
C211 N214 1.351 . S
C211 C216 1.501 . S
C212 C213 1.387 . S
C212 N215 1.341 . S
C213 C211 1.400 . S
C213 C212 1.387 . S
N214 Co205 2.022 . S
N214 C211 1.351 . S
N214 N215 1.365 . S
N215 C212 1.341 . S
N215 N214 1.365 . S
N215 H235 0.862 . S
C216 C211 1.501 . S
C216 H217 0.961 . S
C216 H218 0.961 . S
C216 H219 0.960 . S
H217 C216 0.961 . S
H218 C216 0.961 . S
H219 C216 0.960 . S
C220 N221 1.342 . S
C220 C224 1.401 . S
C220 C225 1.499 . S
N221 Co204 1.989 . S
N221 C220 1.342 . S
N221 N222 1.388 . S
N222 Co205 1.993 . S
N222 N221 1.388 . S
N222 C223 1.346 . S
C223 N222 1.346 . S
C223 C224 1.396 . S
C223 C233 1.510 . S
C224 C220 1.401 . S
C224 C223 1.396 . S
C225 C220 1.499 . S
C225 H226 0.959 . S
C225 H227 0.960 . S
C225 H228 0.961 . S
H226 C225 0.959 . S
H227 C225 0.960 . S
H228 C225 0.961 . S
O229 Co204 1.967 . S
O229 C237 1.258 . S
O230 Co205 1.941 . S
O230 C237 1.266 . S
H231 C233 0.959 . S
H232 C233 0.961 . S
C233 C223 1.510 . S
C233 H231 0.959 . S
C233 H232 0.961 . S
C233 H234 0.960 . S
H234 C233 0.960 . S
H235 N215 0.862 . S
O236 Co204 1.920 . S
O236 C209 1.289 . S
C237 O229 1.258 . S
C237 O230 1.266 . S
Co238 O241 1.970 . S
Co238 N255 1.989 . S
Co238 O263 1.967 . S
Co238 O270 1.920 . S
Co239 O242 1.966 . S
Co239 N248 2.022 . S
Co239 N256 1.993 . S
Co239 O264 1.941 . S
C240 O241 1.258 . S
C240 O242 1.263 . S
O241 Co238 1.970 . S
O241 C240 1.258 . S
O242 Co239 1.966 . S
O242 C240 1.263 . S
C243 O244 1.235 . S
C243 O270 1.289 . S
O244 C243 1.235 . S
C245 C247 1.400 . S
C245 N248 1.351 . S
C245 C250 1.501 . S
C246 C247 1.387 . S
C246 N249 1.341 . S
C247 C245 1.400 . S
C247 C246 1.387 . S
N248 Co239 2.022 . S
N248 C245 1.351 . S
N248 N249 1.365 . S
N249 C246 1.341 . S
N249 N248 1.365 . S
N249 H269 0.862 . S
C250 C245 1.501 . S
C250 H251 0.961 . S
C250 H252 0.961 . S
C250 H253 0.960 . S
H251 C250 0.961 . S
H252 C250 0.961 . S
H253 C250 0.960 . S
C254 N255 1.342 . S
C254 C258 1.401 . S
C254 C259 1.499 . S
N255 Co238 1.989 . S
N255 C254 1.342 . S
N255 N256 1.388 . S
N256 Co239 1.993 . S
N256 N255 1.388 . S
N256 C257 1.346 . S
C257 N256 1.346 . S
C257 C258 1.396 . S
C257 C267 1.510 . S
C258 C254 1.401 . S
C258 C257 1.396 . S
C259 C254 1.499 . S
C259 H260 0.959 . S
C259 H261 0.960 . S
C259 H262 0.961 . S
H260 C259 0.959 . S
H261 C259 0.960 . S
H262 C259 0.961 . S
O263 Co238 1.967 . S
O263 C271 1.258 . S
O264 Co239 1.941 . S
O264 C271 1.266 . S
H265 C267 0.959 . S
H266 C267 0.961 . S
C267 C257 1.510 . S
C267 H265 0.959 . S
C267 H266 0.961 . S
C267 H268 0.960 . S
H268 C267 0.960 . S
H269 N249 0.862 . S
O270 Co238 1.920 . S
O270 C243 1.289 . S
C271 O263 1.258 . S
C271 O264 1.266 . S
Co272 O275 1.970 . S
Co272 N289 1.989 . S
Co272 O297 1.967 . S
Co272 O304 1.920 . S
Co273 O276 1.966 . S
Co273 N282 2.022 . S
Co273 N290 1.993 . S
Co273 O298 1.941 . S
C274 O275 1.258 . S
C274 O276 1.263 . S
O275 Co272 1.970 . S
O275 C274 1.258 . S
O276 Co273 1.966 . S
O276 C274 1.263 . S
C277 O278 1.235 . S
C277 O304 1.289 . S
O278 C277 1.235 . S
C279 C281 1.400 . S
C279 N282 1.351 . S
C279 C284 1.501 . S
C280 C281 1.387 . S
C280 N283 1.341 . S
C281 C279 1.400 . S
C281 C280 1.387 . S
N282 Co273 2.022 . S
N282 C279 1.351 . S
N282 N283 1.365 . S
N283 C280 1.341 . S
N283 N282 1.365 . S
N283 H303 0.862 . S
C284 C279 1.501 . S
C284 H285 0.961 . S
C284 H286 0.961 . S
C284 H287 0.960 . S
H285 C284 0.961 . S
H286 C284 0.961 . S
H287 C284 0.960 . S
C288 N289 1.342 . S
C288 C292 1.401 . S
C288 C293 1.499 . S
N289 Co272 1.989 . S
N289 C288 1.342 . S
N289 N290 1.388 . S
N290 Co273 1.993 . S
N290 N289 1.388 . S
N290 C291 1.346 . S
C291 N290 1.346 . S
C291 C292 1.396 . S
C291 C301 1.510 . S
C292 C288 1.401 . S
C292 C291 1.396 . S
C293 C288 1.499 . S
C293 H294 0.959 . S
C293 H295 0.960 . S
C293 H296 0.961 . S
H294 C293 0.959 . S
H295 C293 0.960 . S
H296 C293 0.961 . S
O297 Co272 1.967 . S
O297 C305 1.258 . S
O298 Co273 1.941 . S
O298 C305 1.266 . S
H299 C301 0.959 . S
H300 C301 0.961 . S
C301 C291 1.510 . S
C301 H299 0.959 . S
C301 H300 0.961 . S
C301 H302 0.960 . S
H302 C301 0.960 . S
H303 N283 0.862 . S
O304 Co272 1.920 . S
O304 C277 1.289 . S
C305 O297 1.258 . S
C305 O298 1.266 . S
Co306 O309 1.970 . S
Co306 N323 1.989 . S
Co306 O331 1.967 . S
Co306 O338 1.920 . S
Co307 O310 1.966 . S
Co307 N316 2.022 . S
Co307 N324 1.993 . S
Co307 O332 1.941 . S
C308 O309 1.258 . S
C308 O310 1.263 . S
O309 Co306 1.970 . S
O309 C308 1.258 . S
O310 Co307 1.966 . S
O310 C308 1.263 . S
C311 O312 1.235 . S
C311 O338 1.289 . S
O312 C311 1.235 . S
C313 C315 1.400 . S
C313 N316 1.351 . S
C313 C318 1.501 . S
C314 C315 1.387 . S
C314 N317 1.341 . S
C315 C313 1.400 . S
C315 C314 1.387 . S
N316 Co307 2.022 . S
N316 C313 1.351 . S
N316 N317 1.365 . S
N317 C314 1.341 . S
N317 N316 1.365 . S
N317 H337 0.862 . S
C318 C313 1.501 . S
C318 H319 0.961 . S
C318 H320 0.961 . S
C318 H321 0.960 . S
H319 C318 0.961 . S
H320 C318 0.961 . S
H321 C318 0.960 . S
C322 N323 1.342 . S
C322 C326 1.401 . S
C322 C327 1.499 . S
N323 Co306 1.989 . S
N323 C322 1.342 . S
N323 N324 1.388 . S
N324 Co307 1.993 . S
N324 N323 1.388 . S
N324 C325 1.346 . S
C325 N324 1.346 . S
C325 C326 1.396 . S
C325 C335 1.510 . S
C326 C322 1.401 . S
C326 C325 1.396 . S
C327 C322 1.499 . S
C327 H328 0.959 . S
C327 H329 0.960 . S
C327 H330 0.961 . S
H328 C327 0.959 . S
H329 C327 0.960 . S
H330 C327 0.961 . S
O331 Co306 1.967 . S
O331 C339 1.258 . S
O332 Co307 1.941 . S
O332 C339 1.266 . S
H333 C335 0.959 . S
H334 C335 0.961 . S
C335 C325 1.510 . S
C335 H333 0.959 . S
C335 H334 0.961 . S
C335 H336 0.960 . S
H336 C335 0.960 . S
H337 N317 0.862 . S
O338 Co306 1.920 . S
O338 C311 1.289 . S
C339 O331 1.258 . S
C339 O332 1.266 . S
Co340 O343 1.970 . S
Co340 N357 1.989 . S
Co340 O365 1.967 . S
Co340 O372 1.920 . S
Co341 O344 1.966 . S
Co341 N350 2.022 . S
Co341 N358 1.993 . S
Co341 O366 1.941 . S
C342 O343 1.258 . S
C342 O344 1.263 . S
O343 Co340 1.970 . S
O343 C342 1.258 . S
O344 Co341 1.966 . S
O344 C342 1.263 . S
C345 O346 1.235 . S
C345 O372 1.289 . S
O346 C345 1.235 . S
C347 C349 1.400 . S
C347 N350 1.351 . S
C347 C352 1.501 . S
C348 C349 1.387 . S
C348 N351 1.341 . S
C349 C347 1.400 . S
C349 C348 1.387 . S
N350 Co341 2.022 . S
N350 C347 1.351 . S
N350 N351 1.365 . S
N351 C348 1.341 . S
N351 N350 1.365 . S
N351 H371 0.862 . S
C352 C347 1.501 . S
C352 H353 0.961 . S
C352 H354 0.961 . S
C352 H355 0.960 . S
H353 C352 0.961 . S
H354 C352 0.961 . S
H355 C352 0.960 . S
C356 N357 1.358 . S
C356 C360 1.390 1_554 S
C356 C361 1.496 1_554 S
N357 Co340 1.989 . S
N357 C356 1.358 . S
N357 N358 1.388 . S
N358 Co341 1.993 . S
N358 N357 1.388 . S
N358 C359 1.346 1_554 S
C359 N358 1.346 1_556 S
C359 C360 1.396 . S
C359 C369 1.510 . S
C360 C356 1.390 1_556 S
C360 C359 1.396 . S
C361 C356 1.496 1_556 S
C361 H362 0.959 1_556 S
C361 H363 0.960 . S
C361 H364 0.961 . S
H362 C361 0.959 1_554 S
H363 C361 0.960 . S
H364 C361 0.961 . S
O365 Co340 1.967 . S
O365 C373 1.258 . S
O366 Co341 1.941 . S
O366 C373 1.266 . S
H367 C369 0.959 . S
H368 C369 0.961 . S
C369 C359 1.510 . S
C369 H367 0.959 . S
C369 H368 0.961 . S
C369 H370 0.960 1_556 S
H370 C369 0.960 1_554 S
H371 N351 0.862 . S
O372 Co340 1.920 . S
O372 C345 1.289 . S
C373 O365 1.258 . S
C373 O366 1.266 . S
Co374 O377 1.970 . S
Co374 N391 1.989 . S
Co374 O399 1.967 . S
Co374 O406 1.920 . S
Co375 O378 1.966 . S
Co375 N384 2.022 . S
Co375 N392 1.993 . S
Co375 O400 1.941 . S
C376 O377 1.258 . S
C376 O378 1.263 . S
O377 Co374 1.970 . S
O377 C376 1.258 . S
O378 Co375 1.966 . S
O378 C376 1.263 . S
C379 O380 1.235 . S
C379 O406 1.289 . S
O380 C379 1.235 . S
C381 C383 1.400 . S
C381 N384 1.351 . S
C381 C386 1.501 . S
C382 C383 1.387 . S
C382 N385 1.341 . S
C383 C381 1.400 . S
C383 C382 1.387 . S
N384 Co375 2.022 . S
N384 C381 1.351 . S
N384 N385 1.365 . S
N385 C382 1.341 . S
N385 N384 1.365 . S
N385 H405 0.862 . S
C386 C381 1.501 . S
C386 H387 0.961 . S
C386 H388 0.961 . S
C386 H389 0.960 . S
H387 C386 0.961 . S
H388 C386 0.961 . S
H389 C386 0.960 . S
C390 N391 1.342 . S
C390 C394 1.401 . S
C390 C395 1.499 . S
N391 Co374 1.989 . S
N391 C390 1.342 . S
N391 N392 1.388 . S
N392 Co375 1.993 . S
N392 N391 1.388 . S
N392 C393 1.346 . S
C393 N392 1.346 . S
C393 C394 1.396 . S
C393 C403 1.510 . S
C394 C390 1.401 . S
C394 C393 1.396 . S
C395 C390 1.499 . S
C395 H396 0.959 . S
C395 H397 0.960 . S
C395 H398 0.961 . S
H396 C395 0.959 . S
H397 C395 0.960 . S
H398 C395 0.961 . S
O399 Co374 1.967 . S
O399 C407 1.258 . S
O400 Co375 1.941 . S
O400 C407 1.266 . S
H401 C403 0.959 . S
H402 C403 0.961 . S
C403 C393 1.510 . S
C403 H401 0.959 . S
C403 H402 0.961 . S
C403 H404 0.960 . S
H404 C403 0.960 . S
H405 N385 0.862 . S
O406 Co374 1.920 . S
O406 C379 1.289 . S
C407 O399 1.258 . S
C407 O400 1.266 . S
Co408 O411 1.970 . S
Co408 N425 1.989 . S
Co408 O433 1.967 . S
Co408 O440 1.920 . S
Co409 O412 1.966 . S
Co409 N418 2.022 . S
Co409 N426 1.993 . S
Co409 O434 1.941 . S
C410 O411 1.258 . S
C410 O412 1.263 . S
O411 Co408 1.970 . S
O411 C410 1.258 . S
O412 Co409 1.966 . S
O412 C410 1.263 . S
C413 O414 1.235 . S
C413 O440 1.289 . S
O414 C413 1.235 . S
C415 C417 1.400 . S
C415 N418 1.351 . S
C415 C420 1.501 . S
C416 C417 1.387 . S
C416 N419 1.341 . S
C417 C415 1.400 . S
C417 C416 1.387 . S
N418 Co409 2.022 . S
N418 C415 1.351 . S
N418 N419 1.365 . S
N419 C416 1.341 . S
N419 N418 1.365 . S
N419 H439 0.862 . S
C420 C415 1.501 . S
C420 H421 0.961 . S
C420 H422 0.961 . S
C420 H423 0.960 . S
H421 C420 0.961 . S
H422 C420 0.961 . S
H423 C420 0.960 . S
C424 N425 1.358 . S
C424 C428 1.390 1_556 S
C424 C429 1.496 1_556 S
N425 Co408 1.989 . S
N425 C424 1.358 . S
N425 N426 1.388 . S
N426 Co409 1.993 . S
N426 N425 1.388 . S
N426 C427 1.346 1_556 S
C427 N426 1.346 1_554 S
C427 C428 1.396 . S
C427 C437 1.510 . S
C428 C424 1.390 1_554 S
C428 C427 1.396 . S
C429 C424 1.496 1_554 S
C429 H430 0.959 1_554 S
C429 H431 0.960 . S
C429 H432 0.961 . S
H430 C429 0.959 1_556 S
H431 C429 0.960 . S
H432 C429 0.961 . S
O433 Co408 1.967 . S
O433 C441 1.258 . S
O434 Co409 1.941 . S
O434 C441 1.266 . S
H435 C437 0.959 . S
H436 C437 0.961 . S
C437 C427 1.510 . S
C437 H435 0.959 . S
C437 H436 0.961 . S
C437 H438 0.960 1_554 S
H438 C437 0.960 1_556 S
H439 N419 0.862 . S
O440 Co408 1.920 . S
O440 C413 1.289 . S
C441 O433 1.258 . S
C441 O434 1.266 . S
Co442 O445 1.970 . S
Co442 N459 1.989 . S
Co442 O467 1.967 . S
Co442 O474 1.920 . S
Co443 O446 1.966 . S
Co443 N452 2.022 . S
Co443 N460 1.993 . S
Co443 O468 1.941 . S
C444 O445 1.258 . S
C444 O446 1.263 . S
O445 Co442 1.970 . S
O445 C444 1.258 . S
O446 Co443 1.966 . S
O446 C444 1.263 . S
C447 O448 1.235 . S
C447 O474 1.289 . S
O448 C447 1.235 . S
C449 C451 1.400 . S
C449 N452 1.351 . S
C449 C454 1.501 . S
C450 C451 1.387 . S
C450 N453 1.341 . S
C451 C449 1.400 . S
C451 C450 1.387 . S
N452 Co443 2.022 . S
N452 C449 1.351 . S
N452 N453 1.365 . S
N453 C450 1.341 . S
N453 N452 1.365 . S
N453 H473 0.862 . S
C454 C449 1.501 . S
C454 H455 0.961 . S
C454 H456 0.961 . S
C454 H457 0.960 . S
H455 C454 0.961 . S
H456 C454 0.961 . S
H457 C454 0.960 . S
C458 N459 1.342 . S
C458 C462 1.401 . S
C458 C463 1.499 . S
N459 Co442 1.989 . S
N459 C458 1.342 . S
N459 N460 1.388 . S
N460 Co443 1.993 . S
N460 N459 1.388 . S
N460 C461 1.346 . S
C461 N460 1.346 . S
C461 C462 1.396 . S
C461 C471 1.510 . S
C462 C458 1.401 . S
C462 C461 1.396 . S
C463 C458 1.499 . S
C463 H464 0.959 . S
C463 H465 0.960 . S
C463 H466 0.961 . S
H464 C463 0.959 . S
H465 C463 0.960 . S
H466 C463 0.961 . S
O467 Co442 1.967 . S
O467 C475 1.258 . S
O468 Co443 1.941 . S
O468 C475 1.266 . S
H469 C471 0.959 . S
H470 C471 0.961 . S
C471 C461 1.510 . S
C471 H469 0.959 . S
C471 H470 0.961 . S
C471 H472 0.960 . S
H472 C471 0.960 . S
H473 N453 0.862 . S
O474 Co442 1.920 . S
O474 C447 1.289 . S
C475 O467 1.258 . S
C475 O468 1.266 . S
Co476 O479 1.970 . S
Co476 N493 1.989 . S
Co476 O501 1.967 . S
Co476 O508 1.920 . S
Co477 O480 1.966 . S
Co477 N486 2.022 . S
Co477 N494 1.993 . S
Co477 O502 1.941 . S
C478 O479 1.258 . S
C478 O480 1.263 . S
O479 Co476 1.970 . S
O479 C478 1.258 . S
O480 Co477 1.966 . S
O480 C478 1.263 . S
C481 O482 1.235 . S
C481 O508 1.289 . S
O482 C481 1.235 . S
C483 C485 1.400 . S
C483 N486 1.351 . S
C483 C488 1.501 . S
C484 C485 1.387 . S
C484 N487 1.341 . S
C485 C483 1.400 . S
C485 C484 1.387 . S
N486 Co477 2.022 . S
N486 C483 1.351 . S
N486 N487 1.365 . S
N487 C484 1.341 . S
N487 N486 1.365 . S
N487 H507 0.862 . S
C488 C483 1.501 . S
C488 H489 0.961 . S
C488 H490 0.961 . S
C488 H491 0.960 . S
H489 C488 0.961 . S
H490 C488 0.961 . S
H491 C488 0.960 . S
C492 N493 1.342 . S
C492 C496 1.401 . S
C492 C497 1.499 . S
N493 Co476 1.989 . S
N493 C492 1.342 . S
N493 N494 1.388 . S
N494 Co477 1.993 . S
N494 N493 1.388 . S
N494 C495 1.346 . S
C495 N494 1.346 . S
C495 C496 1.396 . S
C495 C505 1.510 . S
C496 C492 1.401 . S
C496 C495 1.396 . S
C497 C492 1.499 . S
C497 H498 0.959 . S
C497 H499 0.960 . S
C497 H500 0.961 . S
H498 C497 0.959 . S
H499 C497 0.960 . S
H500 C497 0.961 . S
O501 Co476 1.967 . S
O501 C509 1.258 . S
O502 Co477 1.941 . S
O502 C509 1.266 . S
H503 C505 0.959 . S
H504 C505 0.961 . S
C505 C495 1.510 . S
C505 H503 0.959 . S
C505 H504 0.961 . S
C505 H506 0.960 . S
H506 C505 0.960 . S
H507 N487 0.862 . S
O508 Co476 1.920 . S
O508 C481 1.289 . S
C509 O501 1.258 . S
C509 O502 1.266 . S
Co510 O513 1.970 . S
Co510 N527 1.989 . S
Co510 O535 1.967 . S
Co510 O542 1.920 . S
Co511 O514 1.966 . S
Co511 N520 2.022 . S
Co511 N528 1.993 . S
Co511 O536 1.941 . S
C512 O513 1.258 . S
C512 O514 1.263 . S
O513 Co510 1.970 . S
O513 C512 1.258 . S
O514 Co511 1.966 . S
O514 C512 1.263 . S
C515 O516 1.235 . S
C515 O542 1.289 . S
O516 C515 1.235 . S
C517 C519 1.400 . S
C517 N520 1.351 . S
C517 C522 1.501 . S
C518 C519 1.387 . S
C518 N521 1.341 . S
C519 C517 1.400 . S
C519 C518 1.387 . S
N520 Co511 2.022 . S
N520 C517 1.351 . S
N520 N521 1.365 . S
N521 C518 1.341 . S
N521 N520 1.365 . S
N521 H541 0.862 . S
C522 C517 1.501 . S
C522 H523 0.961 . S
C522 H524 0.961 . S
C522 H525 0.960 . S
H523 C522 0.961 . S
H524 C522 0.961 . S
H525 C522 0.960 . S
C526 N527 1.342 . S
C526 C530 1.401 . S
C526 C531 1.499 . S
N527 Co510 1.989 . S
N527 C526 1.342 . S
N527 N528 1.388 . S
N528 Co511 1.993 . S
N528 N527 1.388 . S
N528 C529 1.346 . S
C529 N528 1.346 . S
C529 C530 1.396 . S
C529 C539 1.510 . S
C530 C526 1.401 . S
C530 C529 1.396 . S
C531 C526 1.499 . S
C531 H532 0.959 . S
C531 H533 0.960 . S
C531 H534 0.961 . S
H532 C531 0.959 . S
H533 C531 0.960 . S
H534 C531 0.961 . S
O535 Co510 1.967 . S
O535 C543 1.258 . S
O536 Co511 1.941 . S
O536 C543 1.266 . S
H537 C539 0.959 . S
H538 C539 0.961 . S
C539 C529 1.510 . S
C539 H537 0.959 . S
C539 H538 0.961 . S
C539 H540 0.960 . S
H540 C539 0.960 . S
H541 N521 0.862 . S
O542 Co510 1.920 . S
O542 C515 1.289 . S
C543 O535 1.258 . S
C543 O536 1.266 . S
Co544 O547 1.970 . S
Co544 N561 1.989 . S
Co544 O569 1.967 . S
Co544 O576 1.920 . S
Co545 O548 1.966 . S
Co545 N554 2.022 . S
Co545 N562 1.993 . S
Co545 O570 1.941 . S
C546 O547 1.258 . S
C546 O548 1.263 . S
O547 Co544 1.970 . S
O547 C546 1.258 . S
O548 Co545 1.966 . S
O548 C546 1.263 . S
C549 O550 1.235 . S
C549 O576 1.289 . S
O550 C549 1.235 . S
C551 C553 1.400 . S
C551 N554 1.351 . S
C551 C556 1.501 . S
C552 C553 1.387 . S
C552 N555 1.341 . S
C553 C551 1.400 . S
C553 C552 1.387 . S
N554 Co545 2.022 . S
N554 C551 1.351 . S
N554 N555 1.365 . S
N555 C552 1.341 . S
N555 N554 1.365 . S
N555 H575 0.862 . S
C556 C551 1.501 . S
C556 H557 0.961 . S
C556 H558 0.961 . S
C556 H559 0.960 . S
H557 C556 0.961 . S
H558 C556 0.961 . S
H559 C556 0.960 . S
C560 N561 1.358 . S
C560 C564 1.390 1_556 S
C560 C565 1.496 1_556 S
N561 Co544 1.989 . S
N561 C560 1.358 . S
N561 N562 1.388 . S
N562 Co545 1.993 . S
N562 N561 1.388 . S
N562 C563 1.346 1_556 S
C563 N562 1.346 1_554 S
C563 C564 1.396 . S
C563 C573 1.510 . S
C564 C560 1.390 1_554 S
C564 C563 1.396 . S
C565 C560 1.496 1_554 S
C565 H566 0.959 1_554 S
C565 H567 0.960 . S
C565 H568 0.961 . S
H566 C565 0.959 1_556 S
H567 C565 0.960 . S
H568 C565 0.961 . S
O569 Co544 1.967 . S
O569 C577 1.258 . S
O570 Co545 1.941 . S
O570 C577 1.266 . S
H571 C573 0.959 . S
H572 C573 0.961 . S
C573 C563 1.510 . S
C573 H571 0.959 . S
C573 H572 0.961 . S
C573 H574 0.960 1_554 S
H574 C573 0.960 1_556 S
H575 N555 0.862 . S
O576 Co544 1.920 . S
O576 C549 1.289 . S
C577 O569 1.258 . S
C577 O570 1.266 . S
Co578 O581 1.970 . S
Co578 N595 1.989 . S
Co578 O603 1.967 . S
Co578 O610 1.920 . S
Co579 O582 1.966 . S
Co579 N588 2.022 . S
Co579 N596 1.993 . S
Co579 O604 1.941 . S
C580 O581 1.258 . S
C580 O582 1.263 . S
O581 Co578 1.970 . S
O581 C580 1.258 . S
O582 Co579 1.966 . S
O582 C580 1.263 . S
C583 O584 1.235 . S
C583 O610 1.289 . S
O584 C583 1.235 . S
C585 C587 1.400 . S
C585 N588 1.351 . S
C585 C590 1.501 . S
C586 C587 1.387 . S
C586 N589 1.341 . S
C587 C585 1.400 . S
C587 C586 1.387 . S
N588 Co579 2.022 . S
N588 C585 1.351 . S
N588 N589 1.365 . S
N589 C586 1.341 . S
N589 N588 1.365 . S
N589 H609 0.862 . S
C590 C585 1.501 . S
C590 H591 0.961 . S
C590 H592 0.961 . S
C590 H593 0.960 . S
H591 C590 0.961 . S
H592 C590 0.961 . S
H593 C590 0.960 . S
C594 N595 1.342 . S
C594 C598 1.401 . S
C594 C599 1.499 . S
N595 Co578 1.989 . S
N595 C594 1.342 . S
N595 N596 1.388 . S
N596 Co579 1.993 . S
N596 N595 1.388 . S
N596 C597 1.346 . S
C597 N596 1.346 . S
C597 C598 1.396 . S
C597 C607 1.510 . S
C598 C594 1.401 . S
C598 C597 1.396 . S
C599 C594 1.499 . S
C599 H600 0.959 . S
C599 H601 0.960 . S
C599 H602 0.961 . S
H600 C599 0.959 . S
H601 C599 0.960 . S
H602 C599 0.961 . S
O603 Co578 1.967 . S
O603 C611 1.258 . S
O604 Co579 1.941 . S
O604 C611 1.266 . S
H605 C607 0.959 . S
H606 C607 0.961 . S
C607 C597 1.510 . S
C607 H605 0.959 . S
C607 H606 0.961 . S
C607 H608 0.960 . S
H608 C607 0.960 . S
H609 N589 0.862 . S
O610 Co578 1.920 . S
O610 C583 1.289 . S
C611 O603 1.258 . S
C611 O604 1.266 . S
Co612 O615 1.970 . S
Co612 N629 1.989 . S
Co612 O637 1.967 . S
Co612 O644 1.920 . S
Co613 O616 1.966 . S
Co613 N622 2.022 . S
Co613 N630 1.993 . S
Co613 O638 1.941 . S
C614 O615 1.258 . S
C614 O616 1.263 . S
O615 Co612 1.970 . S
O615 C614 1.258 . S
O616 Co613 1.966 . S
O616 C614 1.263 . S
C617 O618 1.235 . S
C617 O644 1.289 . S
O618 C617 1.235 . S
C619 C621 1.400 . S
C619 N622 1.351 . S
C619 C624 1.501 . S
C620 C621 1.387 . S
C620 N623 1.341 . S
C621 C619 1.400 . S
C621 C620 1.387 . S
N622 Co613 2.022 . S
N622 C619 1.351 . S
N622 N623 1.365 . S
N623 C620 1.341 . S
N623 N622 1.365 . S
N623 H643 0.862 . S
C624 C619 1.501 . S
C624 H625 0.961 . S
C624 H626 0.961 . S
C624 H627 0.960 . S
H625 C624 0.961 . S
H626 C624 0.961 . S
H627 C624 0.960 . S
C628 N629 1.342 . S
C628 C632 1.401 . S
C628 C633 1.499 . S
N629 Co612 1.989 . S
N629 C628 1.342 . S
N629 N630 1.388 . S
N630 Co613 1.993 . S
N630 N629 1.388 . S
N630 C631 1.346 . S
C631 N630 1.346 . S
C631 C632 1.396 . S
C631 C641 1.510 . S
C632 C628 1.401 . S
C632 C631 1.396 . S
C633 C628 1.499 . S
C633 H634 0.959 . S
C633 H635 0.960 . S
C633 H636 0.961 . S
H634 C633 0.959 . S
H635 C633 0.960 . S
H636 C633 0.961 . S
O637 Co612 1.967 . S
O637 C645 1.258 . S
O638 Co613 1.941 . S
O638 C645 1.266 . S
H639 C641 0.959 . S
H640 C641 0.961 . S
C641 C631 1.510 . S
C641 H639 0.959 . S
C641 H640 0.961 . S
C641 H642 0.960 . S
H642 C641 0.960 . S
H643 N623 0.862 . S
O644 Co612 1.920 . S
O644 C617 1.289 . S
C645 O637 1.258 . S
C645 O638 1.266 . S
Co646 O649 1.970 . S
Co646 N663 1.989 . S
Co646 O671 1.967 . S
Co646 O678 1.920 . S
Co647 O650 1.966 . S
Co647 N656 2.022 . S
Co647 N664 1.993 . S
Co647 O672 1.941 . S
C648 O649 1.258 . S
C648 O650 1.263 . S
O649 Co646 1.970 . S
O649 C648 1.258 . S
O650 Co647 1.966 . S
O650 C648 1.263 . S
C651 O652 1.235 . S
C651 O678 1.289 . S
O652 C651 1.235 . S
C653 C655 1.400 . S
C653 N656 1.351 . S
C653 C658 1.501 . S
C654 C655 1.387 . S
C654 N657 1.341 . S
C655 C653 1.400 . S
C655 C654 1.387 . S
N656 Co647 2.022 . S
N656 C653 1.351 . S
N656 N657 1.365 . S
N657 C654 1.341 . S
N657 N656 1.365 . S
N657 H677 0.862 . S
C658 C653 1.501 . S
C658 H659 0.961 . S
C658 H660 0.961 . S
C658 H661 0.960 . S
H659 C658 0.961 . S
H660 C658 0.961 . S
H661 C658 0.960 . S
C662 N663 1.342 . S
C662 C666 1.401 . S
C662 C667 1.499 . S
N663 Co646 1.989 . S
N663 C662 1.342 . S
N663 N664 1.388 . S
N664 Co647 1.993 . S
N664 N663 1.388 . S
N664 C665 1.346 . S
C665 N664 1.346 . S
C665 C666 1.396 . S
C665 C675 1.510 . S
C666 C662 1.401 . S
C666 C665 1.396 . S
C667 C662 1.499 . S
C667 H668 0.959 . S
C667 H669 0.960 . S
C667 H670 0.961 . S
H668 C667 0.959 . S
H669 C667 0.960 . S
H670 C667 0.961 . S
O671 Co646 1.967 . S
O671 C679 1.258 . S
O672 Co647 1.941 . S
O672 C679 1.266 . S
H673 C675 0.959 . S
H674 C675 0.961 . S
C675 C665 1.510 . S
C675 H673 0.959 . S
C675 H674 0.961 . S
C675 H676 0.960 . S
H676 C675 0.960 . S
H677 N657 0.862 . S
O678 Co646 1.920 . S
O678 C651 1.289 . S
C679 O671 1.258 . S
C679 O672 1.266 . S
Co680 O683 1.970 . S
Co680 N697 1.989 . S
Co680 O705 1.967 . S
Co680 O712 1.920 . S
Co681 O684 1.966 . S
Co681 N690 2.022 . S
Co681 N698 1.993 . S
Co681 O706 1.941 . S
C682 O683 1.258 . S
C682 O684 1.263 . S
O683 Co680 1.970 . S
O683 C682 1.258 . S
O684 Co681 1.966 . S
O684 C682 1.263 . S
C685 O686 1.235 . S
C685 O712 1.289 . S
O686 C685 1.235 . S
C687 C689 1.400 . S
C687 N690 1.351 . S
C687 C692 1.501 . S
C688 C689 1.387 . S
C688 N691 1.341 . S
C689 C687 1.400 . S
C689 C688 1.387 . S
N690 Co681 2.022 . S
N690 C687 1.351 . S
N690 N691 1.365 . S
N691 C688 1.341 . S
N691 N690 1.365 . S
N691 H711 0.862 . S
C692 C687 1.501 . S
C692 H693 0.961 . S
C692 H694 0.961 . S
C692 H695 0.960 . S
H693 C692 0.961 . S
H694 C692 0.961 . S
H695 C692 0.960 . S
C696 N697 1.342 . S
C696 C700 1.401 . S
C696 C701 1.499 . S
N697 Co680 1.989 . S
N697 C696 1.342 . S
N697 N698 1.388 . S
N698 Co681 1.993 . S
N698 N697 1.388 . S
N698 C699 1.346 . S
C699 N698 1.346 . S
C699 C700 1.396 . S
C699 C709 1.510 . S
C700 C696 1.401 . S
C700 C699 1.396 . S
C701 C696 1.499 . S
C701 H702 0.959 . S
C701 H703 0.960 . S
C701 H704 0.961 . S
H702 C701 0.959 . S
H703 C701 0.960 . S
H704 C701 0.961 . S
O705 Co680 1.967 . S
O705 C713 1.258 . S
O706 Co681 1.941 . S
O706 C713 1.266 . S
H707 C709 0.959 . S
H708 C709 0.961 . S
C709 C699 1.510 . S
C709 H707 0.959 . S
C709 H708 0.961 . S
C709 H710 0.960 . S
H710 C709 0.960 . S
H711 N691 0.862 . S
O712 Co680 1.920 . S
O712 C685 1.289 . S
C713 O705 1.258 . S
C713 O706 1.266 . S
Co714 O717 1.970 . S
Co714 N731 1.989 . S
Co714 O739 1.967 . S
Co714 O746 1.920 . S
Co715 O718 1.966 . S
Co715 N724 2.022 . S
Co715 N732 1.993 . S
Co715 O740 1.941 . S
C716 O717 1.258 . S
C716 O718 1.263 . S
O717 Co714 1.970 . S
O717 C716 1.258 . S
O718 Co715 1.966 . S
O718 C716 1.263 . S
C719 O720 1.235 . S
C719 O746 1.289 . S
O720 C719 1.235 . S
C721 C723 1.400 . S
C721 N724 1.351 . S
C721 C726 1.501 . S
C722 C723 1.387 . S
C722 N725 1.341 . S
C723 C721 1.400 . S
C723 C722 1.387 . S
N724 Co715 2.022 . S
N724 C721 1.351 . S
N724 N725 1.365 . S
N725 C722 1.341 . S
N725 N724 1.365 . S
N725 H745 0.862 . S
C726 C721 1.501 . S
C726 H727 0.961 . S
C726 H728 0.961 . S
C726 H729 0.960 . S
H727 C726 0.961 . S
H728 C726 0.961 . S
H729 C726 0.960 . S
C730 N731 1.342 . S
C730 C734 1.401 . S
C730 C735 1.499 . S
N731 Co714 1.989 . S
N731 C730 1.342 . S
N731 N732 1.388 . S
N732 Co715 1.993 . S
N732 N731 1.388 . S
N732 C733 1.346 . S
C733 N732 1.346 . S
C733 C734 1.396 . S
C733 C743 1.510 . S
C734 C730 1.401 . S
C734 C733 1.396 . S
C735 C730 1.499 . S
C735 H736 0.959 . S
C735 H737 0.960 . S
C735 H738 0.961 . S
H736 C735 0.959 . S
H737 C735 0.960 . S
H738 C735 0.961 . S
O739 Co714 1.967 . S
O739 C747 1.258 . S
O740 Co715 1.941 . S
O740 C747 1.266 . S
H741 C743 0.959 . S
H742 C743 0.961 . S
C743 C733 1.510 . S
C743 H741 0.959 . S
C743 H742 0.961 . S
C743 H744 0.960 . S
H744 C743 0.960 . S
H745 N725 0.862 . S
O746 Co714 1.920 . S
O746 C719 1.289 . S
C747 O739 1.258 . S
C747 O740 1.266 . S
Co748 O751 1.970 . S
Co748 N765 1.989 . S
Co748 O773 1.967 . S
Co748 O780 1.920 . S
Co749 O752 1.966 . S
Co749 N758 2.022 . S
Co749 N766 1.993 . S
Co749 O774 1.941 . S
C750 O751 1.258 . S
C750 O752 1.263 . S
O751 Co748 1.970 . S
O751 C750 1.258 . S
O752 Co749 1.966 . S
O752 C750 1.263 . S
C753 O754 1.235 . S
C753 O780 1.289 . S
O754 C753 1.235 . S
C755 C757 1.400 . S
C755 N758 1.351 . S
C755 C760 1.501 . S
C756 C757 1.387 . S
C756 N759 1.341 . S
C757 C755 1.400 . S
C757 C756 1.387 . S
N758 Co749 2.022 . S
N758 C755 1.351 . S
N758 N759 1.365 . S
N759 C756 1.341 . S
N759 N758 1.365 . S
N759 H779 0.862 . S
C760 C755 1.501 . S
C760 H761 0.961 . S
C760 H762 0.961 . S
C760 H763 0.960 . S
H761 C760 0.961 . S
H762 C760 0.961 . S
H763 C760 0.960 . S
C764 N765 1.358 . S
C764 C768 1.390 1_554 S
C764 C769 1.496 1_554 S
N765 Co748 1.989 . S
N765 C764 1.358 . S
N765 N766 1.388 . S
N766 Co749 1.993 . S
N766 N765 1.388 . S
N766 C767 1.346 1_554 S
C767 N766 1.346 1_556 S
C767 C768 1.396 . S
C767 C777 1.510 . S
C768 C764 1.390 1_556 S
C768 C767 1.396 . S
C769 C764 1.496 1_556 S
C769 H770 0.959 1_556 S
C769 H771 0.960 . S
C769 H772 0.961 . S
H770 C769 0.959 1_554 S
H771 C769 0.960 . S
H772 C769 0.961 . S
O773 Co748 1.967 . S
O773 C781 1.258 . S
O774 Co749 1.941 . S
O774 C781 1.266 . S
H775 C777 0.959 . S
H776 C777 0.961 . S
C777 C767 1.510 . S
C777 H775 0.959 . S
C777 H776 0.961 . S
C777 H778 0.960 1_556 S
H778 C777 0.960 1_554 S
H779 N759 0.862 . S
O780 Co748 1.920 . S
O780 C753 1.289 . S
C781 O773 1.258 . S
C781 O774 1.266 . S
Co782 O785 1.970 . S
Co782 N799 1.989 . S
Co782 O807 1.967 . S
Co782 O814 1.920 . S
Co783 O786 1.966 . S
Co783 N792 2.022 . S
Co783 N800 1.993 . S
Co783 O808 1.941 . S
C784 O785 1.258 . S
C784 O786 1.263 . S
O785 Co782 1.970 . S
O785 C784 1.258 . S
O786 Co783 1.966 . S
O786 C784 1.263 . S
C787 O788 1.235 . S
C787 O814 1.289 . S
O788 C787 1.235 . S
C789 C791 1.400 . S
C789 N792 1.351 . S
C789 C794 1.501 . S
C790 C791 1.387 . S
C790 N793 1.341 . S
C791 C789 1.400 . S
C791 C790 1.387 . S
N792 Co783 2.022 . S
N792 C789 1.351 . S
N792 N793 1.365 . S
N793 C790 1.341 . S
N793 N792 1.365 . S
N793 H813 0.862 . S
C794 C789 1.501 . S
C794 H795 0.961 . S
C794 H796 0.961 . S
C794 H797 0.960 . S
H795 C794 0.961 . S
H796 C794 0.961 . S
H797 C794 0.960 . S
C798 N799 1.342 . S
C798 C802 1.401 . S
C798 C803 1.499 . S
N799 Co782 1.989 . S
N799 C798 1.342 . S
N799 N800 1.388 . S
N800 Co783 1.993 . S
N800 N799 1.388 . S
N800 C801 1.346 . S
C801 N800 1.346 . S
C801 C802 1.396 . S
C801 C811 1.510 . S
C802 C798 1.401 . S
C802 C801 1.396 . S
C803 C798 1.499 . S
C803 H804 0.959 . S
C803 H805 0.960 . S
C803 H806 0.961 . S
H804 C803 0.959 . S
H805 C803 0.960 . S
H806 C803 0.961 . S
O807 Co782 1.967 . S
O807 C815 1.258 . S
O808 Co783 1.941 . S
O808 C815 1.266 . S
H809 C811 0.959 . S
H810 C811 0.961 . S
C811 C801 1.510 . S
C811 H809 0.959 . S
C811 H810 0.961 . S
C811 H812 0.960 . S
H812 C811 0.960 . S
H813 N793 0.862 . S
O814 Co782 1.920 . S
O814 C787 1.289 . S
C815 O807 1.258 . S
C815 O808 1.266 . S
Co816 O819 1.970 . S
Co816 N833 1.989 . S
Co816 O841 1.967 . S
Co816 O848 1.920 . S
Co817 O820 1.966 . S
Co817 N826 2.022 . S
Co817 N834 1.993 . S
Co817 O842 1.941 . S
C818 O819 1.258 . S
C818 O820 1.263 . S
O819 Co816 1.970 . S
O819 C818 1.258 . S
O820 Co817 1.966 . S
O820 C818 1.263 . S
C821 O822 1.235 . S
C821 O848 1.289 . S
O822 C821 1.235 . S
C823 C825 1.400 . S
C823 N826 1.351 . S
C823 C828 1.501 . S
C824 C825 1.387 . S
C824 N827 1.341 . S
C825 C823 1.400 . S
C825 C824 1.387 . S
N826 Co817 2.022 . S
N826 C823 1.351 . S
N826 N827 1.365 . S
N827 C824 1.341 . S
N827 N826 1.365 . S
N827 H847 0.862 . S
C828 C823 1.501 . S
C828 H829 0.961 . S
C828 H830 0.961 . S
C828 H831 0.960 . S
H829 C828 0.961 . S
H830 C828 0.961 . S
H831 C828 0.960 . S
C832 N833 1.358 . S
C832 C836 1.390 1_554 S
C832 C837 1.496 1_554 S
N833 Co816 1.989 . S
N833 C832 1.358 . S
N833 N834 1.388 . S
N834 Co817 1.993 . S
N834 N833 1.388 . S
N834 C835 1.346 1_554 S
C835 N834 1.346 1_556 S
C835 C836 1.396 . S
C835 C845 1.510 . S
C836 C832 1.390 1_556 S
C836 C835 1.396 . S
C837 C832 1.496 1_556 S
C837 H838 0.959 1_556 S
C837 H839 0.960 . S
C837 H840 0.961 . S
H838 C837 0.959 1_554 S
H839 C837 0.960 . S
H840 C837 0.961 . S
O841 Co816 1.967 . S
O841 C849 1.258 . S
O842 Co817 1.941 . S
O842 C849 1.266 . S
H843 C845 0.959 . S
H844 C845 0.961 . S
C845 C835 1.510 . S
C845 H843 0.959 . S
C845 H844 0.961 . S
C845 H846 0.960 1_556 S
H846 C845 0.960 1_554 S
H847 N827 0.862 . S
O848 Co816 1.920 . S
O848 C821 1.289 . S
C849 O841 1.258 . S
C849 O842 1.266 . S
Co850 O853 1.970 . S
Co850 N867 1.989 . S
Co850 O875 1.967 . S
Co850 O882 1.920 . S
Co851 O854 1.966 . S
Co851 N860 2.022 . S
Co851 N868 1.993 . S
Co851 O876 1.941 . S
C852 O853 1.258 . S
C852 O854 1.263 . S
O853 Co850 1.970 . S
O853 C852 1.258 . S
O854 Co851 1.966 . S
O854 C852 1.263 . S
C855 O856 1.235 . S
C855 O882 1.289 . S
O856 C855 1.235 . S
C857 C859 1.400 . S
C857 N860 1.351 . S
C857 C862 1.501 . S
C858 C859 1.387 . S
C858 N861 1.341 . S
C859 C857 1.400 . S
C859 C858 1.387 . S
N860 Co851 2.022 . S
N860 C857 1.351 . S
N860 N861 1.365 . S
N861 C858 1.341 . S
N861 N860 1.365 . S
N861 H881 0.862 . S
C862 C857 1.501 . S
C862 H863 0.961 . S
C862 H864 0.961 . S
C862 H865 0.960 . S
H863 C862 0.961 . S
H864 C862 0.961 . S
H865 C862 0.960 . S
C866 N867 1.342 . S
C866 C870 1.401 . S
C866 C871 1.499 . S
N867 Co850 1.989 . S
N867 C866 1.342 . S
N867 N868 1.388 . S
N868 Co851 1.993 . S
N868 N867 1.388 . S
N868 C869 1.346 . S
C869 N868 1.346 . S
C869 C870 1.396 . S
C869 C879 1.510 . S
C870 C866 1.401 . S
C870 C869 1.396 . S
C871 C866 1.499 . S
C871 H872 0.959 . S
C871 H873 0.960 . S
C871 H874 0.961 . S
H872 C871 0.959 . S
H873 C871 0.960 . S
H874 C871 0.961 . S
O875 Co850 1.967 . S
O875 C883 1.258 . S
O876 Co851 1.941 . S
O876 C883 1.266 . S
H877 C879 0.959 . S
H878 C879 0.961 . S
C879 C869 1.510 . S
C879 H877 0.959 . S
C879 H878 0.961 . S
C879 H880 0.960 . S
H880 C879 0.960 . S
H881 N861 0.862 . S
O882 Co850 1.920 . S
O882 C855 1.289 . S
C883 O875 1.258 . S
C883 O876 1.266 . S
Co884 O887 1.970 . S
Co884 N901 1.989 . S
Co884 O909 1.967 . S
Co884 O916 1.920 . S
Co885 O888 1.966 . S
Co885 N894 2.022 . S
Co885 N902 1.993 . S
Co885 O910 1.941 . S
C886 O887 1.258 . S
C886 O888 1.263 . S
O887 Co884 1.970 . S
O887 C886 1.258 . S
O888 Co885 1.966 . S
O888 C886 1.263 . S
C889 O890 1.235 . S
C889 O916 1.289 . S
O890 C889 1.235 . S
C891 C893 1.400 . S
C891 N894 1.351 . S
C891 C896 1.501 . S
C892 C893 1.387 . S
C892 N895 1.341 . S
C893 C891 1.400 . S
C893 C892 1.387 . S
N894 Co885 2.022 . S
N894 C891 1.351 . S
N894 N895 1.365 . S
N895 C892 1.341 . S
N895 N894 1.365 . S
N895 H915 0.862 . S
C896 C891 1.501 . S
C896 H897 0.961 . S
C896 H898 0.961 . S
C896 H899 0.960 . S
H897 C896 0.961 . S
H898 C896 0.961 . S
H899 C896 0.960 . S
C900 N901 1.342 . S
C900 C904 1.401 . S
C900 C905 1.499 . S
N901 Co884 1.989 . S
N901 C900 1.342 . S
N901 N902 1.388 . S
N902 Co885 1.993 . S
N902 N901 1.388 . S
N902 C903 1.346 . S
C903 N902 1.346 . S
C903 C904 1.396 . S
C903 C913 1.510 . S
C904 C900 1.401 . S
C904 C903 1.396 . S
C905 C900 1.499 . S
C905 H906 0.959 . S
C905 H907 0.960 . S
C905 H908 0.961 . S
H906 C905 0.959 . S
H907 C905 0.960 . S
H908 C905 0.961 . S
O909 Co884 1.967 . S
O909 C917 1.258 . S
O910 Co885 1.941 . S
O910 C917 1.266 . S
H911 C913 0.959 . S
H912 C913 0.961 . S
C913 C903 1.510 . S
C913 H911 0.959 . S
C913 H912 0.961 . S
C913 H914 0.960 . S
H914 C913 0.960 . S
H915 N895 0.862 . S
O916 Co884 1.920 . S
O916 C889 1.289 . S
C917 O909 1.258 . S
C917 O910 1.266 . S
Co918 O921 1.970 . S
Co918 N935 1.989 . S
Co918 O943 1.967 . S
Co918 O950 1.920 . S
Co919 O922 1.966 . S
Co919 N928 2.022 . S
Co919 N936 1.993 . S
Co919 O944 1.941 . S
C920 O921 1.258 . S
C920 O922 1.263 . S
O921 Co918 1.970 . S
O921 C920 1.258 . S
O922 Co919 1.966 . S
O922 C920 1.263 . S
C923 O924 1.235 . S
C923 O950 1.289 . S
O924 C923 1.235 . S
C925 C927 1.400 . S
C925 N928 1.351 . S
C925 C930 1.501 . S
C926 C927 1.387 . S
C926 N929 1.341 . S
C927 C925 1.400 . S
C927 C926 1.387 . S
N928 Co919 2.022 . S
N928 C925 1.351 . S
N928 N929 1.365 . S
N929 C926 1.341 . S
N929 N928 1.365 . S
N929 H949 0.862 . S
C930 C925 1.501 . S
C930 H931 0.961 . S
C930 H932 0.961 . S
C930 H933 0.960 . S
H931 C930 0.961 . S
H932 C930 0.961 . S
H933 C930 0.960 . S
C934 N935 1.342 . S
C934 C938 1.401 . S
C934 C939 1.499 . S
N935 Co918 1.989 . S
N935 C934 1.342 . S
N935 N936 1.388 . S
N936 Co919 1.993 . S
N936 N935 1.388 . S
N936 C937 1.346 . S
C937 N936 1.346 . S
C937 C938 1.396 . S
C937 C947 1.510 . S
C938 C934 1.401 . S
C938 C937 1.396 . S
C939 C934 1.499 . S
C939 H940 0.959 . S
C939 H941 0.960 . S
C939 H942 0.961 . S
H940 C939 0.959 . S
H941 C939 0.960 . S
H942 C939 0.961 . S
O943 Co918 1.967 . S
O943 C951 1.258 . S
O944 Co919 1.941 . S
O944 C951 1.266 . S
H945 C947 0.959 . S
H946 C947 0.961 . S
C947 C937 1.510 . S
C947 H945 0.959 . S
C947 H946 0.961 . S
C947 H948 0.960 . S
H948 C947 0.960 . S
H949 N929 0.862 . S
O950 Co918 1.920 . S
O950 C923 1.289 . S
C951 O943 1.258 . S
C951 O944 1.266 . S
Co952 O955 1.970 . S
Co952 N969 1.989 . S
Co952 O977 1.967 . S
Co952 O984 1.920 . S
Co953 O956 1.966 . S
Co953 N962 2.022 . S
Co953 N970 1.993 . S
Co953 O978 1.941 . S
C954 O955 1.258 . S
C954 O956 1.263 . S
O955 Co952 1.970 . S
O955 C954 1.258 . S
O956 Co953 1.966 . S
O956 C954 1.263 . S
C957 O958 1.235 . S
C957 O984 1.289 . S
O958 C957 1.235 . S
C959 C961 1.400 . S
C959 N962 1.351 . S
C959 C964 1.501 . S
C960 C961 1.387 . S
C960 N963 1.341 . S
C961 C959 1.400 . S
C961 C960 1.387 . S
N962 Co953 2.022 . S
N962 C959 1.351 . S
N962 N963 1.365 . S
N963 C960 1.341 . S
N963 N962 1.365 . S
N963 H983 0.862 . S
C964 C959 1.501 . S
C964 H965 0.961 . S
C964 H966 0.961 . S
C964 H967 0.960 . S
H965 C964 0.961 . S
H966 C964 0.961 . S
H967 C964 0.960 . S
C968 N969 1.342 . S
C968 C972 1.401 . S
C968 C973 1.499 . S
N969 Co952 1.989 . S
N969 C968 1.342 . S
N969 N970 1.388 . S
N970 Co953 1.993 . S
N970 N969 1.388 . S
N970 C971 1.346 . S
C971 N970 1.346 . S
C971 C972 1.396 . S
C971 C981 1.510 . S
C972 C968 1.401 . S
C972 C971 1.396 . S
C973 C968 1.499 . S
C973 H974 0.959 . S
C973 H975 0.960 . S
C973 H976 0.961 . S
H974 C973 0.959 . S
H975 C973 0.960 . S
H976 C973 0.961 . S
O977 Co952 1.967 . S
O977 C985 1.258 . S
O978 Co953 1.941 . S
O978 C985 1.266 . S
H979 C981 0.959 . S
H980 C981 0.961 . S
C981 C971 1.510 . S
C981 H979 0.959 . S
C981 H980 0.961 . S
C981 H982 0.960 . S
H982 C981 0.960 . S
H983 N963 0.862 . S
O984 Co952 1.920 . S
O984 C957 1.289 . S
C985 O977 1.258 . S
C985 O978 1.266 . S
Co986 O989 1.970 . S
Co986 N1003 1.989 . S
Co986 O1011 1.967 . S
Co986 O1018 1.920 . S
Co987 O990 1.966 . S
Co987 N996 2.022 . S
Co987 N1004 1.993 . S
Co987 O1012 1.941 . S
C988 O989 1.258 . S
C988 O990 1.263 . S
O989 Co986 1.970 . S
O989 C988 1.258 . S
O990 Co987 1.966 . S
O990 C988 1.263 . S
C991 O992 1.235 . S
C991 O1018 1.289 . S
O992 C991 1.235 . S
C993 C995 1.400 . S
C993 N996 1.351 . S
C993 C998 1.501 . S
C994 C995 1.387 . S
C994 N997 1.341 . S
C995 C993 1.400 . S
C995 C994 1.387 . S
N996 Co987 2.022 . S
N996 C993 1.351 . S
N996 N997 1.365 . S
N997 C994 1.341 . S
N997 N996 1.365 . S
N997 H1017 0.862 . S
C998 C993 1.501 . S
C998 H999 0.961 . S
C998 H1000 0.961 . S
C998 H1001 0.960 . S
H999 C998 0.961 . S
H1000 C998 0.961 . S
H1001 C998 0.960 . S
C1002 N1003 1.342 . S
C1002 C1006 1.401 . S
C1002 C1007 1.499 . S
N1003 Co986 1.989 . S
N1003 C1002 1.342 . S
N1003 N1004 1.388 . S
N1004 Co987 1.993 . S
N1004 N1003 1.388 . S
N1004 C1005 1.346 . S
C1005 N1004 1.346 . S
C1005 C1006 1.396 . S
C1005 C1015 1.510 . S
C1006 C1002 1.401 . S
C1006 C1005 1.396 . S
C1007 C1002 1.499 . S
C1007 H1008 0.959 . S
C1007 H1009 0.960 . S
C1007 H1010 0.961 . S
H1008 C1007 0.959 . S
H1009 C1007 0.960 . S
H1010 C1007 0.961 . S
O1011 Co986 1.967 . S
O1011 C1019 1.258 . S
O1012 Co987 1.941 . S
O1012 C1019 1.266 . S
H1013 C1015 0.959 . S
H1014 C1015 0.961 . S
C1015 C1005 1.510 . S
C1015 H1013 0.959 . S
C1015 H1014 0.961 . S
C1015 H1016 0.960 . S
H1016 C1015 0.960 . S
H1017 N997 0.862 . S
O1018 Co986 1.920 . S
O1018 C991 1.289 . S
C1019 O1011 1.258 . S
C1019 O1012 1.266 . S
Co1020 O1023 1.970 . S
Co1020 N1037 1.989 . S
Co1020 O1045 1.967 . S
Co1020 O1052 1.920 . S
Co1021 O1024 1.966 . S
Co1021 N1030 2.022 . S
Co1021 N1038 1.993 . S
Co1021 O1046 1.941 . S
C1022 O1023 1.258 . S
C1022 O1024 1.263 . S
O1023 Co1020 1.970 . S
O1023 C1022 1.258 . S
O1024 Co1021 1.966 . S
O1024 C1022 1.263 . S
C1025 O1026 1.235 . S
C1025 O1052 1.289 . S
O1026 C1025 1.235 . S
C1027 C1029 1.400 . S
C1027 N1030 1.351 . S
C1027 C1032 1.501 . S
C1028 C1029 1.387 . S
C1028 N1031 1.341 . S
C1029 C1027 1.400 . S
C1029 C1028 1.387 . S
N1030 Co1021 2.022 . S
N1030 C1027 1.351 . S
N1030 N1031 1.365 . S
N1031 C1028 1.341 . S
N1031 N1030 1.365 . S
N1031 H1051 0.862 . S
C1032 C1027 1.501 . S
C1032 H1033 0.961 . S
C1032 H1034 0.961 . S
C1032 H1035 0.960 . S
H1033 C1032 0.961 . S
H1034 C1032 0.961 . S
H1035 C1032 0.960 . S
C1036 N1037 1.358 . S
C1036 C1040 1.390 1_556 S
C1036 C1041 1.496 1_556 S
N1037 Co1020 1.989 . S
N1037 C1036 1.358 . S
N1037 N1038 1.388 . S
N1038 Co1021 1.993 . S
N1038 N1037 1.388 . S
N1038 C1039 1.346 1_556 S
C1039 N1038 1.346 1_554 S
C1039 C1040 1.396 . S
C1039 C1049 1.510 . S
C1040 C1036 1.390 1_554 S
C1040 C1039 1.396 . S
C1041 C1036 1.496 1_554 S
C1041 H1042 0.959 1_554 S
C1041 H1043 0.960 . S
C1041 H1044 0.961 . S
H1042 C1041 0.959 1_556 S
H1043 C1041 0.960 . S
H1044 C1041 0.961 . S
O1045 Co1020 1.967 . S
O1045 C1053 1.258 . S
O1046 Co1021 1.941 . S
O1046 C1053 1.266 . S
H1047 C1049 0.959 . S
H1048 C1049 0.961 . S
C1049 C1039 1.510 . S
C1049 H1047 0.959 . S
C1049 H1048 0.961 . S
C1049 H1050 0.960 1_554 S
H1050 C1049 0.960 1_556 S
H1051 N1031 0.862 . S
O1052 Co1020 1.920 . S
O1052 C1025 1.289 . S
C1053 O1045 1.258 . S
C1053 O1046 1.266 . S
Co1054 O1057 1.970 . S
Co1054 N1071 1.989 . S
Co1054 O1079 1.967 . S
Co1054 O1086 1.920 . S
Co1055 O1058 1.966 . S
Co1055 N1064 2.022 . S
Co1055 N1072 1.993 . S
Co1055 O1080 1.941 . S
C1056 O1057 1.258 . S
C1056 O1058 1.263 . S
O1057 Co1054 1.970 . S
O1057 C1056 1.258 . S
O1058 Co1055 1.966 . S
O1058 C1056 1.263 . S
C1059 O1060 1.235 . S
C1059 O1086 1.289 . S
O1060 C1059 1.235 . S
C1061 C1063 1.400 . S
C1061 N1064 1.351 . S
C1061 C1066 1.501 . S
C1062 C1063 1.387 . S
C1062 N1065 1.341 . S
C1063 C1061 1.400 . S
C1063 C1062 1.387 . S
N1064 Co1055 2.022 . S
N1064 C1061 1.351 . S
N1064 N1065 1.365 . S
N1065 C1062 1.341 . S
N1065 N1064 1.365 . S
N1065 H1085 0.862 . S
C1066 C1061 1.501 . S
C1066 H1067 0.961 . S
C1066 H1068 0.961 . S
C1066 H1069 0.960 . S
H1067 C1066 0.961 . S
H1068 C1066 0.961 . S
H1069 C1066 0.960 . S
C1070 N1071 1.342 . S
C1070 C1074 1.401 . S
C1070 C1075 1.499 . S
N1071 Co1054 1.989 . S
N1071 C1070 1.342 . S
N1071 N1072 1.388 . S
N1072 Co1055 1.993 . S
N1072 N1071 1.388 . S
N1072 C1073 1.346 . S
C1073 N1072 1.346 . S
C1073 C1074 1.396 . S
C1073 C1083 1.510 . S
C1074 C1070 1.401 . S
C1074 C1073 1.396 . S
C1075 C1070 1.499 . S
C1075 H1076 0.959 . S
C1075 H1077 0.960 . S
C1075 H1078 0.961 . S
H1076 C1075 0.959 . S
H1077 C1075 0.960 . S
H1078 C1075 0.961 . S
O1079 Co1054 1.967 . S
O1079 C1087 1.258 . S
O1080 Co1055 1.941 . S
O1080 C1087 1.266 . S
H1081 C1083 0.959 . S
H1082 C1083 0.961 . S
C1083 C1073 1.510 . S
C1083 H1081 0.959 . S
C1083 H1082 0.961 . S
C1083 H1084 0.960 . S
H1084 C1083 0.960 . S
H1085 N1065 0.862 . S
O1086 Co1054 1.920 . S
O1086 C1059 1.289 . S
C1087 O1079 1.258 . S
C1087 O1080 1.266 . S
C1088 C1089 1.369 . S
C1088 C1090 1.419 . S
C1088 H1092 0.930 . S
C1089 C1088 1.369 . S
C1089 C1098 1.429 . S
C1090 C1088 1.419 . S
C1090 C1091 1.363 . S
C1090 H1093 0.929 . S
C1091 C1090 1.363 . S
C1091 C1097 1.428 . S
H1092 C1088 0.930 . S
H1093 C1090 0.929 . S
S1094 N1095 1.613 . S
S1094 N1096 1.610 . S
N1095 S1094 1.613 . S
N1095 C1098 1.350 . S
N1096 S1094 1.610 . S
N1096 C1097 1.351 . S
C1097 C1091 1.428 . S
C1097 N1096 1.351 . S
C1097 C1098 1.434 . S
C1098 C1089 1.429 . S
C1098 N1095 1.350 . S
C1098 C1097 1.434 . S
C1099 C1100 1.369 . S
C1099 C1101 1.419 . S
C1099 H1103 0.930 . S
C1100 C1099 1.369 . S
C1100 C1109 1.429 . S
C1101 C1099 1.419 . S
C1101 C1102 1.363 . S
C1101 H1104 0.929 . S
C1102 C1101 1.363 . S
C1102 C1108 1.428 . S
H1103 C1099 0.930 . S
H1104 C1101 0.929 . S
S1105 N1106 1.613 . S
S1105 N1107 1.610 . S
N1106 S1105 1.613 . S
N1106 C1109 1.350 . S
N1107 S1105 1.610 . S
N1107 C1108 1.351 . S
C1108 C1102 1.428 . S
C1108 N1107 1.351 . S
C1108 C1109 1.434 . S
C1109 C1100 1.429 . S
C1109 N1106 1.350 . S
C1109 C1108 1.434 . S
C1110 C1111 1.369 . S
C1110 C1112 1.419 . S
C1110 H1114 0.930 . S
C1111 C1110 1.369 . S
C1111 C1120 1.429 . S
C1112 C1110 1.419 . S
C1112 C1113 1.363 . S
C1112 H1115 0.929 . S
C1113 C1112 1.363 . S
C1113 C1119 1.428 . S
H1114 C1110 0.930 . S
H1115 C1112 0.929 . S
S1116 N1117 1.613 . S
S1116 N1118 1.610 . S
N1117 S1116 1.613 . S
N1117 C1120 1.350 . S
N1118 S1116 1.610 . S
N1118 C1119 1.351 . S
C1119 C1113 1.428 . S
C1119 N1118 1.351 . S
C1119 C1120 1.434 . S
C1120 C1111 1.429 . S
C1120 N1117 1.350 . S
C1120 C1119 1.434 . S
C1121 C1122 1.369 . S
C1121 C1123 1.419 . S
C1121 H1125 0.930 . S
C1122 C1121 1.369 . S
C1122 C1131 1.429 . S
C1123 C1121 1.419 . S
C1123 C1124 1.363 . S
C1123 H1126 0.929 . S
C1124 C1123 1.363 . S
C1124 C1130 1.428 . S
H1125 C1121 0.930 . S
H1126 C1123 0.929 . S
S1127 N1128 1.613 . S
S1127 N1129 1.610 . S
N1128 S1127 1.613 . S
N1128 C1131 1.350 . S
N1129 S1127 1.610 . S
N1129 C1130 1.351 . S
C1130 C1124 1.428 . S
C1130 N1129 1.351 . S
C1130 C1131 1.434 . S
C1131 C1122 1.429 . S
C1131 N1128 1.350 . S
C1131 C1130 1.434 . S
C1132 C1133 1.369 . S
C1132 C1134 1.419 . S
C1132 H1136 0.930 . S
C1133 C1132 1.369 . S
C1133 C1142 1.429 . S
C1134 C1132 1.419 . S
C1134 C1135 1.363 . S
C1134 H1137 0.929 . S
C1135 C1134 1.363 . S
C1135 C1141 1.428 . S
H1136 C1132 0.930 . S
H1137 C1134 0.929 . S
S1138 N1139 1.613 . S
S1138 N1140 1.610 . S
N1139 S1138 1.613 . S
N1139 C1142 1.350 . S
N1140 S1138 1.610 . S
N1140 C1141 1.351 . S
C1141 C1135 1.428 . S
C1141 N1140 1.351 . S
C1141 C1142 1.434 . S
C1142 C1133 1.429 . S
C1142 N1139 1.350 . S
C1142 C1141 1.434 . S
C1143 C1144 1.369 . S
C1143 C1145 1.419 . S
C1143 H1147 0.930 . S
C1144 C1143 1.369 . S
C1144 C1153 1.429 . S
C1145 C1143 1.419 . S
C1145 C1146 1.363 . S
C1145 H1148 0.929 . S
C1146 C1145 1.363 . S
C1146 C1152 1.428 . S
H1147 C1143 0.930 . S
H1148 C1145 0.929 . S
S1149 N1150 1.613 . S
S1149 N1151 1.610 . S
N1150 S1149 1.613 . S
N1150 C1153 1.350 . S
N1151 S1149 1.610 . S
N1151 C1152 1.351 . S
C1152 C1146 1.428 . S
C1152 N1151 1.351 . S
C1152 C1153 1.434 . S
C1153 C1144 1.429 . S
C1153 N1150 1.350 . S
C1153 C1152 1.434 . S
C1154 C1155 1.369 . S
C1154 C1156 1.419 . S
C1154 H1158 0.930 . S
C1155 C1154 1.369 . S
C1155 C1164 1.429 . S
C1156 C1154 1.419 . S
C1156 C1157 1.363 . S
C1156 H1159 0.929 . S
C1157 C1156 1.363 . S
C1157 C1163 1.428 . S
H1158 C1154 0.930 . S
H1159 C1156 0.929 . S
S1160 N1161 1.613 . S
S1160 N1162 1.610 . S
N1161 S1160 1.613 . S
N1161 C1164 1.350 . S
N1162 S1160 1.610 . S
N1162 C1163 1.351 . S
C1163 C1157 1.428 . S
C1163 N1162 1.351 . S
C1163 C1164 1.434 . S
C1164 C1155 1.429 . S
C1164 N1161 1.350 . S
C1164 C1163 1.434 . S
C1165 C1166 1.369 . S
C1165 C1167 1.419 . S
C1165 H1169 0.930 . S
C1166 C1165 1.369 . S
C1166 C1175 1.429 . S
C1167 C1165 1.419 . S
C1167 C1168 1.363 . S
C1167 H1170 0.929 . S
C1168 C1167 1.363 . S
C1168 C1174 1.428 . S
H1169 C1165 0.930 . S
H1170 C1167 0.929 . S
S1171 N1172 1.613 . S
S1171 N1173 1.610 . S
N1172 S1171 1.613 . S
N1172 C1175 1.350 . S
N1173 S1171 1.610 . S
N1173 C1174 1.351 . S
C1174 C1168 1.428 . S
C1174 N1173 1.351 . S
C1174 C1175 1.434 . S
C1175 C1166 1.429 . S
C1175 N1172 1.350 . S
C1175 C1174 1.434 . S
C1176 C1177 1.369 . S
C1176 C1178 1.419 . S
C1176 H1180 0.930 . S
C1177 C1176 1.369 . S
C1177 C1186 1.429 . S
C1178 C1176 1.419 . S
C1178 C1179 1.363 . S
C1178 H1181 0.929 . S
C1179 C1178 1.363 . S
C1179 C1185 1.428 . S
H1180 C1176 0.930 . S
H1181 C1178 0.929 . S
S1182 N1183 1.613 . S
S1182 N1184 1.610 . S
N1183 S1182 1.613 . S
N1183 C1186 1.350 . S
N1184 S1182 1.610 . S
N1184 C1185 1.351 . S
C1185 C1179 1.428 . S
C1185 N1184 1.351 . S
C1185 C1186 1.434 . S
C1186 C1177 1.429 . S
C1186 N1183 1.350 . S
C1186 C1185 1.434 . S
C1187 C1188 1.369 . S
C1187 C1189 1.419 . S
C1187 H1191 0.930 . S
C1188 C1187 1.369 . S
C1188 C1197 1.429 . S
C1189 C1187 1.419 . S
C1189 C1190 1.363 . S
C1189 H1192 0.929 . S
C1190 C1189 1.363 . S
C1190 C1196 1.428 . S
H1191 C1187 0.930 . S
H1192 C1189 0.929 . S
S1193 N1194 1.613 . S
S1193 N1195 1.610 . S
N1194 S1193 1.613 . S
N1194 C1197 1.350 . S
N1195 S1193 1.610 . S
N1195 C1196 1.351 . S
C1196 C1190 1.428 . S
C1196 N1195 1.351 . S
C1196 C1197 1.434 . S
C1197 C1188 1.429 . S
C1197 N1194 1.350 . S
C1197 C1196 1.434 . S
C1198 C1199 1.369 . S
C1198 C1200 1.419 . S
C1198 H1202 0.930 . S
C1199 C1198 1.369 . S
C1199 C1208 1.429 . S
C1200 C1198 1.419 . S
C1200 C1201 1.363 . S
C1200 H1203 0.929 . S
C1201 C1200 1.363 . S
C1201 C1207 1.428 . S
H1202 C1198 0.930 . S
H1203 C1200 0.929 . S
S1204 N1205 1.613 . S
S1204 N1206 1.610 . S
N1205 S1204 1.613 . S
N1205 C1208 1.350 . S
N1206 S1204 1.610 . S
N1206 C1207 1.351 . S
C1207 C1201 1.428 . S
C1207 N1206 1.351 . S
C1207 C1208 1.434 . S
C1208 C1199 1.429 . S
C1208 N1205 1.350 . S
C1208 C1207 1.434 . S
C1209 C1210 1.369 . S
C1209 C1211 1.419 . S
C1209 H1213 0.930 . S
C1210 C1209 1.369 . S
C1210 C1219 1.429 . S
C1211 C1209 1.419 . S
C1211 C1212 1.363 . S
C1211 H1214 0.929 . S
C1212 C1211 1.363 . S
C1212 C1218 1.428 . S
H1213 C1209 0.930 . S
H1214 C1211 0.929 . S
S1215 N1216 1.613 . S
S1215 N1217 1.610 . S
N1216 S1215 1.613 . S
N1216 C1219 1.350 . S
N1217 S1215 1.610 . S
N1217 C1218 1.351 . S
C1218 C1212 1.428 . S
C1218 N1217 1.351 . S
C1218 C1219 1.434 . S
C1219 C1210 1.429 . S
C1219 N1216 1.350 . S
C1219 C1218 1.434 . S
C1220 C1221 1.369 . S
C1220 C1222 1.419 . S
C1220 H1224 0.930 . S
C1221 C1220 1.369 . S
C1221 C1230 1.429 . S
C1222 C1220 1.419 . S
C1222 C1223 1.363 . S
C1222 H1225 0.929 . S
C1223 C1222 1.363 . S
C1223 C1229 1.428 . S
H1224 C1220 0.930 . S
H1225 C1222 0.929 . S
S1226 N1227 1.613 . S
S1226 N1228 1.610 . S
N1227 S1226 1.613 . S
N1227 C1230 1.350 . S
N1228 S1226 1.610 . S
N1228 C1229 1.351 . S
C1229 C1223 1.428 . S
C1229 N1228 1.351 . S
C1229 C1230 1.434 . S
C1230 C1221 1.429 . S
C1230 N1227 1.350 . S
C1230 C1229 1.434 . S
C1231 C1232 1.369 . S
C1231 C1233 1.419 . S
C1231 H1235 0.930 . S
C1232 C1231 1.369 . S
C1232 C1241 1.429 . S
C1233 C1231 1.419 . S
C1233 C1234 1.363 . S
C1233 H1236 0.929 . S
C1234 C1233 1.363 . S
C1234 C1240 1.428 . S
H1235 C1231 0.930 . S
H1236 C1233 0.929 . S
S1237 N1238 1.613 . S
S1237 N1239 1.610 . S
N1238 S1237 1.613 . S
N1238 C1241 1.350 . S
N1239 S1237 1.610 . S
N1239 C1240 1.351 . S
C1240 C1234 1.428 . S
C1240 N1239 1.351 . S
C1240 C1241 1.434 . S
C1241 C1232 1.429 . S
C1241 N1238 1.350 . S
C1241 C1240 1.434 . S
C1242 C1243 1.369 . S
C1242 C1244 1.419 . S
C1242 H1246 0.930 . S
C1243 C1242 1.369 . S
C1243 C1252 1.429 . S
C1244 C1242 1.419 . S
C1244 C1245 1.363 . S
C1244 H1247 0.929 . S
C1245 C1244 1.363 . S
C1245 C1251 1.428 . S
H1246 C1242 0.930 . S
H1247 C1244 0.929 . S
S1248 N1249 1.613 . S
S1248 N1250 1.610 . S
N1249 S1248 1.613 . S
N1249 C1252 1.350 . S
N1250 S1248 1.610 . S
N1250 C1251 1.351 . S
C1251 C1245 1.428 . S
C1251 N1250 1.351 . S
C1251 C1252 1.434 . S
C1252 C1243 1.429 . S
C1252 N1249 1.350 . S
C1252 C1251 1.434 . S
C1253 C1254 1.369 . S
C1253 C1255 1.419 . S
C1253 H1257 0.930 . S
C1254 C1253 1.369 . S
C1254 C1263 1.429 . S
C1255 C1253 1.419 . S
C1255 C1256 1.363 . S
C1255 H1258 0.929 . S
C1256 C1255 1.363 . S
C1256 C1262 1.428 . S
H1257 C1253 0.930 . S
H1258 C1255 0.929 . S
S1259 N1260 1.613 . S
S1259 N1261 1.610 . S
N1260 S1259 1.613 . S
N1260 C1263 1.350 . S
N1261 S1259 1.610 . S
N1261 C1262 1.351 . S
C1262 C1256 1.428 . S
C1262 N1261 1.351 . S
C1262 C1263 1.434 . S
C1263 C1254 1.429 . S
C1263 N1260 1.350 . S
C1263 C1262 1.434 . S
C1264 C1265 1.369 . S
C1264 C1266 1.419 . S
C1264 H1268 0.930 . S
C1265 C1264 1.369 . S
C1265 C1274 1.429 . S
C1266 C1264 1.419 . S
C1266 C1267 1.363 . S
C1266 H1269 0.929 . S
C1267 C1266 1.363 . S
C1267 C1273 1.428 . S
H1268 C1264 0.930 . S
H1269 C1266 0.929 . S
S1270 N1271 1.613 . S
S1270 N1272 1.610 . S
N1271 S1270 1.613 . S
N1271 C1274 1.350 . S
N1272 S1270 1.610 . S
N1272 C1273 1.351 . S
C1273 C1267 1.428 . S
C1273 N1272 1.351 . S
C1273 C1274 1.434 . S
C1274 C1265 1.429 . S
C1274 N1271 1.350 . S
C1274 C1273 1.434 . S
C1275 C1276 1.369 . S
C1275 C1277 1.419 . S
C1275 H1279 0.930 . S
C1276 C1275 1.369 . S
C1276 C1285 1.429 . S
C1277 C1275 1.419 . S
C1277 C1278 1.363 . S
C1277 H1280 0.929 . S
C1278 C1277 1.363 . S
C1278 C1284 1.428 . S
H1279 C1275 0.930 . S
H1280 C1277 0.929 . S
S1281 N1282 1.613 . S
S1281 N1283 1.610 . S
N1282 S1281 1.613 . S
N1282 C1285 1.350 . S
N1283 S1281 1.610 . S
N1283 C1284 1.351 . S
C1284 C1278 1.428 . S
C1284 N1283 1.351 . S
C1284 C1285 1.434 . S
C1285 C1276 1.429 . S
C1285 N1282 1.350 . S
C1285 C1284 1.434 . S
C1286 C1287 1.369 . S
C1286 C1288 1.419 . S
C1286 H1290 0.930 . S
C1287 C1286 1.369 . S
C1287 C1296 1.429 . S
C1288 C1286 1.419 . S
C1288 C1289 1.363 . S
C1288 H1291 0.929 . S
C1289 C1288 1.363 . S
C1289 C1295 1.428 . S
H1290 C1286 0.930 . S
H1291 C1288 0.929 . S
S1292 N1293 1.613 . S
S1292 N1294 1.610 . S
N1293 S1292 1.613 . S
N1293 C1296 1.350 . S
N1294 S1292 1.610 . S
N1294 C1295 1.351 . S
C1295 C1289 1.428 . S
C1295 N1294 1.351 . S
C1295 C1296 1.434 . S
C1296 C1287 1.429 . S
C1296 N1293 1.350 . S
C1296 C1295 1.434 . S
C1297 C1298 1.369 . S
C1297 C1299 1.419 . S
C1297 H1301 0.930 . S
C1298 C1297 1.369 . S
C1298 C1307 1.429 . S
C1299 C1297 1.419 . S
C1299 C1300 1.363 . S
C1299 H1302 0.929 . S
C1300 C1299 1.363 . S
C1300 C1306 1.428 . S
H1301 C1297 0.930 . S
H1302 C1299 0.929 . S
S1303 N1304 1.613 . S
S1303 N1305 1.610 . S
N1304 S1303 1.613 . S
N1304 C1307 1.350 . S
N1305 S1303 1.610 . S
N1305 C1306 1.351 . S
C1306 C1300 1.428 . S
C1306 N1305 1.351 . S
C1306 C1307 1.434 . S
C1307 C1298 1.429 . S
C1307 N1304 1.350 . S
C1307 C1306 1.434 . S
C1308 C1309 1.369 . S
C1308 C1310 1.419 . S
C1308 H1312 0.930 . S
C1309 C1308 1.369 . S
C1309 C1318 1.429 . S
C1310 C1308 1.419 . S
C1310 C1311 1.363 . S
C1310 H1313 0.929 . S
C1311 C1310 1.363 . S
C1311 C1317 1.428 . S
H1312 C1308 0.930 . S
H1313 C1310 0.929 . S
S1314 N1315 1.613 . S
S1314 N1316 1.610 . S
N1315 S1314 1.613 . S
N1315 C1318 1.350 . S
N1316 S1314 1.610 . S
N1316 C1317 1.351 . S
C1317 C1311 1.428 . S
C1317 N1316 1.351 . S
C1317 C1318 1.434 . S
C1318 C1309 1.429 . S
C1318 N1315 1.350 . S
C1318 C1317 1.434 . S
C1319 C1320 1.369 . S
C1319 C1321 1.419 . S
C1319 H1323 0.930 . S
C1320 C1319 1.369 . S
C1320 C1329 1.429 . S
C1321 C1319 1.419 . S
C1321 C1322 1.363 . S
C1321 H1324 0.929 . S
C1322 C1321 1.363 . S
C1322 C1328 1.428 . S
H1323 C1319 0.930 . S
H1324 C1321 0.929 . S
S1325 N1326 1.613 . S
S1325 N1327 1.610 . S
N1326 S1325 1.613 . S
N1326 C1329 1.350 . S
N1327 S1325 1.610 . S
N1327 C1328 1.351 . S
C1328 C1322 1.428 . S
C1328 N1327 1.351 . S
C1328 C1329 1.434 . S
C1329 C1320 1.429 . S
C1329 N1326 1.350 . S
C1329 C1328 1.434 . S
C1330 C1331 1.369 . S
C1330 C1332 1.419 . S
C1330 H1334 0.930 . S
C1331 C1330 1.369 . S
C1331 C1340 1.429 . S
C1332 C1330 1.419 . S
C1332 C1333 1.363 . S
C1332 H1335 0.929 . S
C1333 C1332 1.363 . S
C1333 C1339 1.428 . S
H1334 C1330 0.930 . S
H1335 C1332 0.929 . S
S1336 N1337 1.613 . S
S1336 N1338 1.610 . S
N1337 S1336 1.613 . S
N1337 C1340 1.350 . S
N1338 S1336 1.610 . S
N1338 C1339 1.351 . S
C1339 C1333 1.428 . S
C1339 N1338 1.351 . S
C1339 C1340 1.434 . S
C1340 C1331 1.429 . S
C1340 N1337 1.350 . S
C1340 C1339 1.434 . S
C1341 C1342 1.369 . S
C1341 C1343 1.419 . S
C1341 H1345 0.930 . S
C1342 C1341 1.369 . S
C1342 C1351 1.429 . S
C1343 C1341 1.419 . S
C1343 C1344 1.363 . S
C1343 H1346 0.929 . S
C1344 C1343 1.363 . S
C1344 C1350 1.428 . S
H1345 C1341 0.930 . S
H1346 C1343 0.929 . S
S1347 N1348 1.613 . S
S1347 N1349 1.610 . S
N1348 S1347 1.613 . S
N1348 C1351 1.350 . S
N1349 S1347 1.610 . S
N1349 C1350 1.351 . S
C1350 C1344 1.428 . S
C1350 N1349 1.351 . S
C1350 C1351 1.434 . S
C1351 C1342 1.429 . S
C1351 N1348 1.350 . S
C1351 C1350 1.434 . S
C1352 C1353 1.369 . S
C1352 C1354 1.419 . S
C1352 H1356 0.930 . S
C1353 C1352 1.369 . S
C1353 C1362 1.429 . S
C1354 C1352 1.419 . S
C1354 C1355 1.363 . S
C1354 H1357 0.929 . S
C1355 C1354 1.363 . S
C1355 C1361 1.428 . S
H1356 C1352 0.930 . S
H1357 C1354 0.929 . S
S1358 N1359 1.613 . S
S1358 N1360 1.610 . S
N1359 S1358 1.613 . S
N1359 C1362 1.350 . S
N1360 S1358 1.610 . S
N1360 C1361 1.351 . S
C1361 C1355 1.428 . S
C1361 N1360 1.351 . S
C1361 C1362 1.434 . S
C1362 C1353 1.429 . S
C1362 N1359 1.350 . S
C1362 C1361 1.434 . S
C1363 C1364 1.369 . S
C1363 C1365 1.419 . S
C1363 H1367 0.930 . S
C1364 C1363 1.369 . S
C1364 C1373 1.429 . S
C1365 C1363 1.419 . S
C1365 C1366 1.363 . S
C1365 H1368 0.929 . S
C1366 C1365 1.363 . S
C1366 C1372 1.428 . S
H1367 C1363 0.930 . S
H1368 C1365 0.929 . S
S1369 N1370 1.613 . S
S1369 N1371 1.610 . S
N1370 S1369 1.613 . S
N1370 C1373 1.350 . S
N1371 S1369 1.610 . S
N1371 C1372 1.351 . S
C1372 C1366 1.428 . S
C1372 N1371 1.351 . S
C1372 C1373 1.434 . S
C1373 C1364 1.429 . S
C1373 N1370 1.350 . S
C1373 C1372 1.434 . S
C1374 C1375 1.369 . S
C1374 C1376 1.419 . S
C1374 H1378 0.930 . S
C1375 C1374 1.369 . S
C1375 C1384 1.429 . S
C1376 C1374 1.419 . S
C1376 C1377 1.363 . S
C1376 H1379 0.929 . S
C1377 C1376 1.363 . S
C1377 C1383 1.428 . S
H1378 C1374 0.930 . S
H1379 C1376 0.929 . S
S1380 N1381 1.613 . S
S1380 N1382 1.610 . S
N1381 S1380 1.613 . S
N1381 C1384 1.350 . S
N1382 S1380 1.610 . S
N1382 C1383 1.351 . S
C1383 C1377 1.428 . S
C1383 N1382 1.351 . S
C1383 C1384 1.434 . S
C1384 C1375 1.429 . S
C1384 N1381 1.350 . S
C1384 C1383 1.434 . S
C1385 C1386 1.369 . S
C1385 C1387 1.419 . S
C1385 H1389 0.930 . S
C1386 C1385 1.369 . S
C1386 C1395 1.429 . S
C1387 C1385 1.419 . S
C1387 C1388 1.363 . S
C1387 H1390 0.929 . S
C1388 C1387 1.363 . S
C1388 C1394 1.428 . S
H1389 C1385 0.930 . S
H1390 C1387 0.929 . S
S1391 N1392 1.613 . S
S1391 N1393 1.610 . S
N1392 S1391 1.613 . S
N1392 C1395 1.350 . S
N1393 S1391 1.610 . S
N1393 C1394 1.351 . S
C1394 C1388 1.428 . S
C1394 N1393 1.351 . S
C1394 C1395 1.434 . S
C1395 C1386 1.429 . S
C1395 N1392 1.350 . S
C1395 C1394 1.434 . S
C1396 C1397 1.369 . S
C1396 C1398 1.419 . S
C1396 H1400 0.930 . S
C1397 C1396 1.369 . S
C1397 C1406 1.429 . S
C1398 C1396 1.419 . S
C1398 C1399 1.363 . S
C1398 H1401 0.929 . S
C1399 C1398 1.363 . S
C1399 C1405 1.428 . S
H1400 C1396 0.930 . S
H1401 C1398 0.929 . S
S1402 N1403 1.613 . S
S1402 N1404 1.610 . S
N1403 S1402 1.613 . S
N1403 C1406 1.350 . S
N1404 S1402 1.610 . S
N1404 C1405 1.351 . S
C1405 C1399 1.428 . S
C1405 N1404 1.351 . S
C1405 C1406 1.434 . S
C1406 C1397 1.429 . S
C1406 N1403 1.350 . S
C1406 C1405 1.434 . S
C1407 C1408 1.369 . S
C1407 C1409 1.419 . S
C1407 H1411 0.930 . S
C1408 C1407 1.369 . S
C1408 C1417 1.429 . S
C1409 C1407 1.419 . S
C1409 C1410 1.363 . S
C1409 H1412 0.929 . S
C1410 C1409 1.363 . S
C1410 C1416 1.428 . S
H1411 C1407 0.930 . S
H1412 C1409 0.929 . S
S1413 N1414 1.613 . S
S1413 N1415 1.610 . S
N1414 S1413 1.613 . S
N1414 C1417 1.350 . S
N1415 S1413 1.610 . S
N1415 C1416 1.351 . S
C1416 C1410 1.428 . S
C1416 N1415 1.351 . S
C1416 C1417 1.434 . S
C1417 C1408 1.429 . S
C1417 N1414 1.350 . S
C1417 C1416 1.434 . S
C1418 C1419 1.369 . S
C1418 C1420 1.419 . S
C1418 H1422 0.930 . S
C1419 C1418 1.369 . S
C1419 C1428 1.429 . S
C1420 C1418 1.419 . S
C1420 C1421 1.363 . S
C1420 H1423 0.929 . S
C1421 C1420 1.363 . S
C1421 C1427 1.428 . S
H1422 C1418 0.930 . S
H1423 C1420 0.929 . S
S1424 N1425 1.613 . S
S1424 N1426 1.610 . S
N1425 S1424 1.613 . S
N1425 C1428 1.350 . S
N1426 S1424 1.610 . S
N1426 C1427 1.351 . S
C1427 C1421 1.428 . S
C1427 N1426 1.351 . S
C1427 C1428 1.434 . S
C1428 C1419 1.429 . S
C1428 N1425 1.350 . S
C1428 C1427 1.434 . S
C1429 C1430 1.369 . S
C1429 C1431 1.419 . S
C1429 H1433 0.930 . S
C1430 C1429 1.369 . S
C1430 C1439 1.429 . S
C1431 C1429 1.419 . S
C1431 C1432 1.363 . S
C1431 H1434 0.929 . S
C1432 C1431 1.363 . S
C1432 C1438 1.428 . S
H1433 C1429 0.930 . S
H1434 C1431 0.929 . S
S1435 N1436 1.613 . S
S1435 N1437 1.610 . S
N1436 S1435 1.613 . S
N1436 C1439 1.350 . S
N1437 S1435 1.610 . S
N1437 C1438 1.351 . S
C1438 C1432 1.428 . S
C1438 N1437 1.351 . S
C1438 C1439 1.434 . S
C1439 C1430 1.429 . S
C1439 N1436 1.350 . S
C1439 C1438 1.434 . S
C1440 C1441 1.369 . S
C1440 C1442 1.419 . S
C1440 H1444 0.930 . S
C1441 C1440 1.369 . S
C1441 C1450 1.429 . S
C1442 C1440 1.419 . S
C1442 C1443 1.363 . S
C1442 H1445 0.929 . S
C1443 C1442 1.363 . S
C1443 C1449 1.428 . S
H1444 C1440 0.930 . S
H1445 C1442 0.929 . S
S1446 N1447 1.613 . S
S1446 N1448 1.610 . S
N1447 S1446 1.613 . S
N1447 C1450 1.350 . S
N1448 S1446 1.610 . S
N1448 C1449 1.351 . S
C1449 C1443 1.428 . S
C1449 N1448 1.351 . S
C1449 C1450 1.434 . S
C1450 C1441 1.429 . S
C1450 N1447 1.350 . S
C1450 C1449 1.434 . S
C1451 C1452 1.369 . S
C1451 C1453 1.419 . S
C1451 H1455 0.930 . S
C1452 C1451 1.369 . S
C1452 C1461 1.429 1_565 S
C1453 C1451 1.419 . S
C1453 C1454 1.363 1_565 S
C1453 H1456 0.929 . S
C1454 C1453 1.363 1_545 S
C1454 C1460 1.428 . S
H1455 C1451 0.930 . S
H1456 C1453 0.929 . S
S1457 N1458 1.613 . S
S1457 N1459 1.610 . S
N1458 S1457 1.613 . S
N1458 C1461 1.350 . S
N1459 S1457 1.610 . S
N1459 C1460 1.351 . S
C1460 C1454 1.428 . S
C1460 N1459 1.351 . S
C1460 C1461 1.434 . S
C1461 C1452 1.429 1_545 S
C1461 N1458 1.350 . S
C1461 C1460 1.434 . S
C1462 C1463 1.369 . S
C1462 C1464 1.419 . S
C1462 H1466 0.930 . S
C1463 C1462 1.369 . S
C1463 C1472 1.429 1_554 S
C1464 C1462 1.419 . S
C1464 C1465 1.363 1_554 S
C1464 H1467 0.929 . S
C1465 C1464 1.363 1_556 S
C1465 C1471 1.428 . S
H1466 C1462 0.930 . S
H1467 C1464 0.929 . S
S1468 N1469 1.613 . S
S1468 N1470 1.610 . S
N1469 S1468 1.613 . S
N1469 C1472 1.350 . S
N1470 S1468 1.610 . S
N1470 C1471 1.351 . S
C1471 C1465 1.428 . S
C1471 N1470 1.351 . S
C1471 C1472 1.434 . S
C1472 C1463 1.429 1_556 S
C1472 N1469 1.350 . S
C1472 C1471 1.434 . S
C1473 C1474 1.369 . S
C1473 C1475 1.419 . S
C1473 H1477 0.930 . S
C1474 C1473 1.369 . S
C1474 C1483 1.429 1_565 S
C1475 C1473 1.419 . S
C1475 C1476 1.363 1_565 S
C1475 H1478 0.929 . S
C1476 C1475 1.363 1_545 S
C1476 C1482 1.428 . S
H1477 C1473 0.930 . S
H1478 C1475 0.929 . S
S1479 N1480 1.613 . S
S1479 N1481 1.610 . S
N1480 S1479 1.613 . S
N1480 C1483 1.350 . S
N1481 S1479 1.610 . S
N1481 C1482 1.351 . S
C1482 C1476 1.428 . S
C1482 N1481 1.351 . S
C1482 C1483 1.434 . S
C1483 C1474 1.429 1_545 S
C1483 N1480 1.350 . S
C1483 C1482 1.434 . S
C1484 C1485 1.369 . S
C1484 C1486 1.419 . S
C1484 H1488 0.930 . S
C1485 C1484 1.369 . S
C1485 C1494 1.429 . S
C1486 C1484 1.419 . S
C1486 C1487 1.363 . S
C1486 H1489 0.929 . S
C1487 C1486 1.363 . S
C1487 C1493 1.428 . S
H1488 C1484 0.930 . S
H1489 C1486 0.929 . S
S1490 N1491 1.613 . S
S1490 N1492 1.610 . S
N1491 S1490 1.613 . S
N1491 C1494 1.350 . S
N1492 S1490 1.610 . S
N1492 C1493 1.351 . S
C1493 C1487 1.428 . S
C1493 N1492 1.351 . S
C1493 C1494 1.434 . S
C1494 C1485 1.429 . S
C1494 N1491 1.350 . S
C1494 C1493 1.434 . S
C1495 C1496 1.369 1_545 S
C1495 C1497 1.419 . S
C1495 H1499 0.930 . S
C1496 C1495 1.369 1_565 S
C1496 C1505 1.429 . S
C1497 C1495 1.419 . S
C1497 C1498 1.363 . S
C1497 H1500 0.929 . S
C1498 C1497 1.363 . S
C1498 C1504 1.428 1_545 S
H1499 C1495 0.930 . S
H1500 C1497 0.929 . S
S1501 N1502 1.613 . S
S1501 N1503 1.610 . S
N1502 S1501 1.613 . S
N1502 C1505 1.350 . S
N1503 S1501 1.610 . S
N1503 C1504 1.351 . S
C1504 C1498 1.428 1_565 S
C1504 N1503 1.351 . S
C1504 C1505 1.434 . S
C1505 C1496 1.429 . S
C1505 N1502 1.350 . S
C1505 C1504 1.434 . S
C1506 C1507 1.369 1_554 S
C1506 C1508 1.419 . S
C1506 H1510 0.930 . S
C1507 C1506 1.369 1_556 S
C1507 C1516 1.429 . S
C1508 C1506 1.419 . S
C1508 C1509 1.363 . S
C1508 H1511 0.929 . S
C1509 C1508 1.363 . S
C1509 C1515 1.428 1_554 S
H1510 C1506 0.930 . S
H1511 C1508 0.929 . S
S1512 N1513 1.613 . S
S1512 N1514 1.610 . S
N1513 S1512 1.613 . S
N1513 C1516 1.350 . S
N1514 S1512 1.610 . S
N1514 C1515 1.351 . S
C1515 C1509 1.428 1_556 S
C1515 N1514 1.351 . S
C1515 C1516 1.434 . S
C1516 C1507 1.429 . S
C1516 N1513 1.350 . S
C1516 C1515 1.434 . S
C1517 C1518 1.368 . S
C1517 C1519 1.419 1_545 S
C1517 H1521 0.929 1_545 S
C1518 C1517 1.368 . S
C1518 C1527 1.429 . S
C1519 C1517 1.419 1_565 S
C1519 C1520 1.363 . S
C1519 H1522 0.929 . S
C1520 C1519 1.363 . S
C1520 C1526 1.398 1_565 S
H1521 C1517 0.929 1_565 S
H1522 C1519 0.929 . S
S1523 N1524 1.613 . S
S1523 N1525 1.610 . S
N1524 S1523 1.613 . S
N1524 C1527 1.350 . S
N1525 S1523 1.610 . S
N1525 C1526 1.358 . S
C1526 C1520 1.398 1_545 S
C1526 N1525 1.358 . S
C1526 C1527 1.463 . S
C1527 C1518 1.429 . S
C1527 N1524 1.350 . S
C1527 C1526 1.463 . S
C1528 C1529 1.369 . S
C1528 C1530 1.419 1_556 S
C1528 H1532 0.930 . S
C1529 C1528 1.369 . S
C1529 C1538 1.429 . S
C1530 C1528 1.419 1_554 S
C1530 C1531 1.363 . S
C1530 H1533 0.929 . S
C1531 C1530 1.363 . S
C1531 C1537 1.428 . S
H1532 C1528 0.930 . S
H1533 C1530 0.929 . S
S1534 N1535 1.613 . S
S1534 N1536 1.610 . S
N1535 S1534 1.613 . S
N1535 C1538 1.350 . S
N1536 S1534 1.610 . S
N1536 C1537 1.351 1_556 S
C1537 C1531 1.428 . S
C1537 N1536 1.351 1_554 S
C1537 C1538 1.434 1_554 S
C1538 C1529 1.429 . S
C1538 N1535 1.350 . S
C1538 C1537 1.434 1_556 S
C1539 C1540 1.369 . S
C1539 C1541 1.419 . S
C1539 H1543 0.930 . S
C1540 C1539 1.369 . S
C1540 C1549 1.429 . S
C1541 C1539 1.419 . S
C1541 C1542 1.363 . S
C1541 H1544 0.929 . S
C1542 C1541 1.363 . S
C1542 C1548 1.428 . S
H1543 C1539 0.930 . S
H1544 C1541 0.929 . S
S1545 N1546 1.613 . S
S1545 N1547 1.610 . S
N1546 S1545 1.613 . S
N1546 C1549 1.350 . S
N1547 S1545 1.610 . S
N1547 C1548 1.351 . S
C1548 C1542 1.428 . S
C1548 N1547 1.351 . S
C1548 C1549 1.434 . S
C1549 C1540 1.429 . S
C1549 N1546 1.350 . S
C1549 C1548 1.434 . S
C1550 C1551 1.369 . S
C1550 C1552 1.419 . S
C1550 H1554 0.930 . S
C1551 C1550 1.369 . S
C1551 C1560 1.429 . S
C1552 C1550 1.419 . S
C1552 C1553 1.363 . S
C1552 H1555 0.929 . S
C1553 C1552 1.363 . S
C1553 C1559 1.428 . S
H1554 C1550 0.930 . S
H1555 C1552 0.929 . S
S1556 N1557 1.613 . S
S1556 N1558 1.610 . S
N1557 S1556 1.613 . S
N1557 C1560 1.350 . S
N1558 S1556 1.610 . S
N1558 C1559 1.351 . S
C1559 C1553 1.428 . S
C1559 N1558 1.351 . S
C1559 C1560 1.434 . S
C1560 C1551 1.429 . S
C1560 N1557 1.350 . S
C1560 C1559 1.434 . S
C1561 C1562 1.369 . S
C1561 C1563 1.419 . S
C1561 H1565 0.930 . S
C1562 C1561 1.369 . S
C1562 C1571 1.429 . S
C1563 C1561 1.419 . S
C1563 C1564 1.363 . S
C1563 H1566 0.929 . S
C1564 C1563 1.363 . S
C1564 C1570 1.428 . S
H1565 C1561 0.930 . S
H1566 C1563 0.929 . S
S1567 N1568 1.613 . S
S1567 N1569 1.610 . S
N1568 S1567 1.613 . S
N1568 C1571 1.350 . S
N1569 S1567 1.610 . S
N1569 C1570 1.351 . S
C1570 C1564 1.428 . S
C1570 N1569 1.351 . S
C1570 C1571 1.434 . S
C1571 C1562 1.429 . S
C1571 N1568 1.350 . S
C1571 C1570 1.434 . S
C1572 C1573 1.369 . S
C1572 C1574 1.419 . S
C1572 H1576 0.930 . S
C1573 C1572 1.369 . S
C1573 C1582 1.429 1_556 S
C1574 C1572 1.419 . S
C1574 C1575 1.363 1_556 S
C1574 H1577 0.929 . S
C1575 C1574 1.363 1_554 S
C1575 C1581 1.428 . S
H1576 C1572 0.930 . S
H1577 C1574 0.929 . S
S1578 N1579 1.613 . S
S1578 N1580 1.610 . S
N1579 S1578 1.613 . S
N1579 C1582 1.350 . S
N1580 S1578 1.610 . S
N1580 C1581 1.351 . S
C1581 C1575 1.428 . S
C1581 N1580 1.351 . S
C1581 C1582 1.434 . S
C1582 C1573 1.429 1_554 S
C1582 N1579 1.350 . S
C1582 C1581 1.434 . S
C1583 C1584 1.369 . S
C1583 C1585 1.419 . S
C1583 H1587 0.930 . S
C1584 C1583 1.369 . S
C1584 C1593 1.429 . S
C1585 C1583 1.419 . S
C1585 C1586 1.363 . S
C1585 H1588 0.929 . S
C1586 C1585 1.363 . S
C1586 C1592 1.428 . S
H1587 C1583 0.930 . S
H1588 C1585 0.929 . S
S1589 N1590 1.613 . S
S1589 N1591 1.610 . S
N1590 S1589 1.613 . S
N1590 C1593 1.350 . S
N1591 S1589 1.610 . S
N1591 C1592 1.351 . S
C1592 C1586 1.428 . S
C1592 N1591 1.351 . S
C1592 C1593 1.434 . S
C1593 C1584 1.429 . S
C1593 N1590 1.350 . S
C1593 C1592 1.434 . S
C1594 C1595 1.369 . S
C1594 C1596 1.419 . S
C1594 H1598 0.930 . S
C1595 C1594 1.369 . S
C1595 C1604 1.429 . S
C1596 C1594 1.419 . S
C1596 C1597 1.363 . S
C1596 H1599 0.929 . S
C1597 C1596 1.363 . S
C1597 C1603 1.428 . S
H1598 C1594 0.930 . S
H1599 C1596 0.929 . S
S1600 N1601 1.613 . S
S1600 N1602 1.610 . S
N1601 S1600 1.613 . S
N1601 C1604 1.350 . S
N1602 S1600 1.610 . S
N1602 C1603 1.351 . S
C1603 C1597 1.428 . S
C1603 N1602 1.351 . S
C1603 C1604 1.434 . S
C1604 C1595 1.429 . S
C1604 N1601 1.350 . S
C1604 C1603 1.434 . S
C1605 C1606 1.369 . S
C1605 C1607 1.419 . S
C1605 H1609 0.930 . S
C1606 C1605 1.369 . S
C1606 C1615 1.429 . S
C1607 C1605 1.419 . S
C1607 C1608 1.363 . S
C1607 H1610 0.929 . S
C1608 C1607 1.363 . S
C1608 C1614 1.428 . S
H1609 C1605 0.930 . S
H1610 C1607 0.929 . S
S1611 N1612 1.613 . S
S1611 N1613 1.610 . S
N1612 S1611 1.613 . S
N1612 C1615 1.350 . S
N1613 S1611 1.610 . S
N1613 C1614 1.351 . S
C1614 C1608 1.428 . S
C1614 N1613 1.351 . S
C1614 C1615 1.434 . S
C1615 C1606 1.429 . S
C1615 N1612 1.350 . S
C1615 C1614 1.434 . S
C1616 C1617 1.369 . S
C1616 C1618 1.419 . S
C1616 H1620 0.930 . S
C1617 C1616 1.369 . S
C1617 C1626 1.429 . S
C1618 C1616 1.419 . S
C1618 C1619 1.363 . S
C1618 H1621 0.929 . S
C1619 C1618 1.363 . S
C1619 C1625 1.428 . S
H1620 C1616 0.930 . S
H1621 C1618 0.929 . S
S1622 N1623 1.613 . S
S1622 N1624 1.610 . S
N1623 S1622 1.613 . S
N1623 C1626 1.350 . S
N1624 S1622 1.610 . S
N1624 C1625 1.351 . S
C1625 C1619 1.428 . S
C1625 N1624 1.351 . S
C1625 C1626 1.434 . S
C1626 C1617 1.429 . S
C1626 N1623 1.350 . S
C1626 C1625 1.434 . S
C1627 C1628 1.369 . S
C1627 C1629 1.419 1_655 S
C1627 H1631 0.930 . S
C1628 C1627 1.369 . S
C1628 C1637 1.429 . S
C1629 C1627 1.419 1_455 S
C1629 C1630 1.363 . S
C1629 H1632 0.929 . S
C1630 C1629 1.363 . S
C1630 C1636 1.428 . S
H1631 C1627 0.930 . S
H1632 C1629 0.929 . S
S1633 N1634 1.613 1_455 S
S1633 N1635 1.610 . S
N1634 S1633 1.613 1_655 S
N1634 C1637 1.350 . S
N1635 S1633 1.610 . S
N1635 C1636 1.351 . S
C1636 C1630 1.428 . S
C1636 N1635 1.351 . S
C1636 C1637 1.434 1_455 S
C1637 C1628 1.429 . S
C1637 N1634 1.350 . S
C1637 C1636 1.434 1_655 S
C1638 C1639 1.369 . S
C1638 C1640 1.419 . S
C1638 H1642 0.930 . S
C1639 C1638 1.369 . S
C1639 C1648 1.429 . S
C1640 C1638 1.419 . S
C1640 C1641 1.363 . S
C1640 H1643 0.929 . S
C1641 C1640 1.363 . S
C1641 C1647 1.428 . S
H1642 C1638 0.930 . S
H1643 C1640 0.929 . S
S1644 N1645 1.613 . S
S1644 N1646 1.610 . S
N1645 S1644 1.613 . S
N1645 C1648 1.350 . S
N1646 S1644 1.610 . S
N1646 C1647 1.351 . S
C1647 C1641 1.428 . S
C1647 N1646 1.351 . S
C1647 C1648 1.434 . S
C1648 C1639 1.429 . S
C1648 N1645 1.350 . S
C1648 C1647 1.434 . S
C1649 C1650 1.369 . S
C1649 C1651 1.419 . S
C1649 H1653 0.930 . S
C1650 C1649 1.369 . S
C1650 C1659 1.429 . S
C1651 C1649 1.419 . S
C1651 C1652 1.363 . S
C1651 H1654 0.929 . S
C1652 C1651 1.363 . S
C1652 C1658 1.428 . S
H1653 C1649 0.930 . S
H1654 C1651 0.929 . S
S1655 N1656 1.613 . S
S1655 N1657 1.610 . S
N1656 S1655 1.613 . S
N1656 C1659 1.350 . S
N1657 S1655 1.610 . S
N1657 C1658 1.351 . S
C1658 C1652 1.428 . S
C1658 N1657 1.351 . S
C1658 C1659 1.434 . S
C1659 C1650 1.429 . S
C1659 N1656 1.350 . S
C1659 C1658 1.434 . S
C1660 C1661 1.369 . S
C1660 C1662 1.419 . S
C1660 H1664 0.930 . S
C1661 C1660 1.369 . S
C1661 C1670 1.429 . S
C1662 C1660 1.419 . S
C1662 C1663 1.363 . S
C1662 H1665 0.929 . S
C1663 C1662 1.363 . S
C1663 C1669 1.428 . S
H1664 C1660 0.930 . S
H1665 C1662 0.929 . S
S1666 N1667 1.613 . S
S1666 N1668 1.610 . S
N1667 S1666 1.613 . S
N1667 C1670 1.350 . S
N1668 S1666 1.610 . S
N1668 C1669 1.351 . S
C1669 C1663 1.428 . S
C1669 N1668 1.351 . S
C1669 C1670 1.434 . S
C1670 C1661 1.429 . S
C1670 N1667 1.350 . S
C1670 C1669 1.434 . S
C1671 C1672 1.369 . S
C1671 C1673 1.419 . S
C1671 H1675 0.930 . S
C1672 C1671 1.369 . S
C1672 C1681 1.429 . S
C1673 C1671 1.419 . S
C1673 C1674 1.363 . S
C1673 H1676 0.929 . S
C1674 C1673 1.363 . S
C1674 C1680 1.428 . S
H1675 C1671 0.930 . S
H1676 C1673 0.929 . S
S1677 N1678 1.613 . S
S1677 N1679 1.610 . S
N1678 S1677 1.613 . S
N1678 C1681 1.350 . S
N1679 S1677 1.610 . S
N1679 C1680 1.351 . S
C1680 C1674 1.428 . S
C1680 N1679 1.351 . S
C1680 C1681 1.434 . S
C1681 C1672 1.429 . S
C1681 N1678 1.350 . S
C1681 C1680 1.434 . S
C1682 C1683 1.369 . S
C1682 C1684 1.419 . S
C1682 H1686 0.930 . S
C1683 C1682 1.369 . S
C1683 C1692 1.429 . S
C1684 C1682 1.419 . S
C1684 C1685 1.363 . S
C1684 H1687 0.929 . S
C1685 C1684 1.363 . S
C1685 C1691 1.428 . S
H1686 C1682 0.930 . S
H1687 C1684 0.929 . S
S1688 N1689 1.613 . S
S1688 N1690 1.610 . S
N1689 S1688 1.613 . S
N1689 C1692 1.350 . S
N1690 S1688 1.610 . S
N1690 C1691 1.351 . S
C1691 C1685 1.428 . S
C1691 N1690 1.351 . S
C1691 C1692 1.434 . S
C1692 C1683 1.429 . S
C1692 N1689 1.350 . S
C1692 C1691 1.434 . S
C1693 C1694 1.369 . S
C1693 C1695 1.419 1_655 S
C1693 H1697 0.930 . S
C1694 C1693 1.369 . S
C1694 C1703 1.429 . S
C1695 C1693 1.419 1_455 S
C1695 C1696 1.363 . S
C1695 H1698 0.929 . S
C1696 C1695 1.363 . S
C1696 C1702 1.428 . S
H1697 C1693 0.930 . S
H1698 C1695 0.929 . S
S1699 N1700 1.613 1_554 S
S1699 N1701 1.610 1_654 S
N1700 S1699 1.613 1_556 S
N1700 C1703 1.350 . S
N1701 S1699 1.610 1_456 S
N1701 C1702 1.351 . S
C1702 C1696 1.428 . S
C1702 N1701 1.351 . S
C1702 C1703 1.434 1_455 S
C1703 C1694 1.429 . S
C1703 N1700 1.350 . S
C1703 C1702 1.434 1_655 S
C1704 C1705 1.369 . S
C1704 C1706 1.419 . S
C1704 H1708 0.930 . S
C1705 C1704 1.369 . S
C1705 C1714 1.429 . S
C1706 C1704 1.419 . S
C1706 C1707 1.363 . S
C1706 H1709 0.929 . S
C1707 C1706 1.363 . S
C1707 C1713 1.428 . S
H1708 C1704 0.930 . S
H1709 C1706 0.929 . S
S1710 N1711 1.613 . S
S1710 N1712 1.610 . S
N1711 S1710 1.613 . S
N1711 C1714 1.350 . S
N1712 S1710 1.610 . S
N1712 C1713 1.351 . S
C1713 C1707 1.428 . S
C1713 N1712 1.351 . S
C1713 C1714 1.434 . S
C1714 C1705 1.429 . S
C1714 N1711 1.350 . S
C1714 C1713 1.434 . S
C1715 C1716 1.369 . S
C1715 C1717 1.419 1_655 S
C1715 H1719 0.930 . S
C1716 C1715 1.369 . S
C1716 C1725 1.429 . S
C1717 C1715 1.419 1_455 S
C1717 C1718 1.363 . S
C1717 H1720 0.929 . S
C1718 C1717 1.363 . S
C1718 C1724 1.428 . S
H1719 C1715 0.930 . S
H1720 C1717 0.929 . S
S1721 N1722 1.613 1_455 S
S1721 N1723 1.610 . S
N1722 S1721 1.613 1_655 S
N1722 C1725 1.350 . S
N1723 S1721 1.610 . S
N1723 C1724 1.351 . S
C1724 C1718 1.428 . S
C1724 N1723 1.351 . S
C1724 C1725 1.434 1_455 S
C1725 C1716 1.429 . S
C1725 N1722 1.350 . S
C1725 C1724 1.434 1_655 S
C1726 C1727 1.369 . S
C1726 C1728 1.419 . S
C1726 H1730 0.930 . S
C1727 C1726 1.369 . S
C1727 C1736 1.429 . S
C1728 C1726 1.419 . S
C1728 C1729 1.363 . S
C1728 H1731 0.929 . S
C1729 C1728 1.363 . S
C1729 C1735 1.428 . S
H1730 C1726 0.930 . S
H1731 C1728 0.929 . S
S1732 N1733 1.613 . S
S1732 N1734 1.610 . S
N1733 S1732 1.613 . S
N1733 C1736 1.350 . S
N1734 S1732 1.610 . S
N1734 C1735 1.351 . S
C1735 C1729 1.428 . S
C1735 N1734 1.351 . S
C1735 C1736 1.434 . S
C1736 C1727 1.429 . S
C1736 N1733 1.350 . S
C1736 C1735 1.434 . S
C1737 C1738 1.369 . S
C1737 C1739 1.419 . S
C1737 H1741 0.930 . S
C1738 C1737 1.369 . S
C1738 C1747 1.429 . S
C1739 C1737 1.419 . S
C1739 C1740 1.363 . S
C1739 H1742 0.929 . S
C1740 C1739 1.363 . S
C1740 C1746 1.428 . S
H1741 C1737 0.930 . S
H1742 C1739 0.929 . S
S1743 N1744 1.613 . S
S1743 N1745 1.610 . S
N1744 S1743 1.613 . S
N1744 C1747 1.350 . S
N1745 S1743 1.610 . S
N1745 C1746 1.351 . S
C1746 C1740 1.428 . S
C1746 N1745 1.351 . S
C1746 C1747 1.434 . S
C1747 C1738 1.429 . S
C1747 N1744 1.350 . S
C1747 C1746 1.434 . S
C1748 C1749 1.369 . S
C1748 C1750 1.419 . S
C1748 H1752 0.930 . S
C1749 C1748 1.369 . S
C1749 C1758 1.429 . S
C1750 C1748 1.419 . S
C1750 C1751 1.363 . S
C1750 H1753 0.929 . S
C1751 C1750 1.363 . S
C1751 C1757 1.428 . S
H1752 C1748 0.930 . S
H1753 C1750 0.929 . S
S1754 N1755 1.613 1_554 S
S1754 N1756 1.610 1_554 S
N1755 S1754 1.613 1_556 S
N1755 C1758 1.350 . S
N1756 S1754 1.610 1_556 S
N1756 C1757 1.351 . S
C1757 C1751 1.428 . S
C1757 N1756 1.351 . S
C1757 C1758 1.434 . S
C1758 C1749 1.429 . S
C1758 N1755 1.350 . S
C1758 C1757 1.434 . S
C1759 C1760 1.369 . S
C1759 C1761 1.419 . S
C1759 H1763 0.930 . S
C1760 C1759 1.369 . S
C1760 C1769 1.429 . S
C1761 C1759 1.419 . S
C1761 C1762 1.363 . S
C1761 H1764 0.929 . S
C1762 C1761 1.363 . S
C1762 C1768 1.428 . S
H1763 C1759 0.930 . S
H1764 C1761 0.929 . S
S1765 N1766 1.613 . S
S1765 N1767 1.610 . S
N1766 S1765 1.613 . S
N1766 C1769 1.350 . S
N1767 S1765 1.610 . S
N1767 C1768 1.351 . S
C1768 C1762 1.428 . S
C1768 N1767 1.351 . S
C1768 C1769 1.434 . S
C1769 C1760 1.429 . S
C1769 N1766 1.350 . S
C1769 C1768 1.434 . S
C1770 C1771 1.369 . S
C1770 C1772 1.419 . S
C1770 H1774 0.930 . S
C1771 C1770 1.369 . S
C1771 C1780 1.429 . S
C1772 C1770 1.419 . S
C1772 C1773 1.363 . S
C1772 H1775 0.929 . S
C1773 C1772 1.363 . S
C1773 C1779 1.428 . S
H1774 C1770 0.930 . S
H1775 C1772 0.929 . S
S1776 N1777 1.613 . S
S1776 N1778 1.610 . S
N1777 S1776 1.613 . S
N1777 C1780 1.350 . S
N1778 S1776 1.610 . S
N1778 C1779 1.351 . S
C1779 C1773 1.428 . S
C1779 N1778 1.351 . S
C1779 C1780 1.434 . S
C1780 C1771 1.429 . S
C1780 N1777 1.350 . S
C1780 C1779 1.434 . S
C1781 C1782 1.369 . S
C1781 C1783 1.419 1_455 S
C1781 H1785 0.930 . S
C1782 C1781 1.369 . S
C1782 C1791 1.429 . S
C1783 C1781 1.419 1_655 S
C1783 C1784 1.363 . S
C1783 H1786 0.929 . S
C1784 C1783 1.363 . S
C1784 C1790 1.428 . S
H1785 C1781 0.930 . S
H1786 C1783 0.929 . S
S1787 N1788 1.613 . S
S1787 N1789 1.610 1_455 S
N1788 S1787 1.613 . S
N1788 C1791 1.350 . S
N1789 S1787 1.610 1_655 S
N1789 C1790 1.351 . S
C1790 C1784 1.428 . S
C1790 N1789 1.351 . S
C1790 C1791 1.434 1_655 S
C1791 C1782 1.429 . S
C1791 N1788 1.350 . S
C1791 C1790 1.434 1_455 S
C1792 C1793 1.369 . S
C1792 C1794 1.419 . S
C1792 H1796 0.930 . S
C1793 C1792 1.369 . S
C1793 C1802 1.429 . S
C1794 C1792 1.419 . S
C1794 C1795 1.363 . S
C1794 H1797 0.929 . S
C1795 C1794 1.363 . S
C1795 C1801 1.428 . S
H1796 C1792 0.930 . S
H1797 C1794 0.929 . S
S1798 N1799 1.613 1_554 S
S1798 N1800 1.610 1_554 S
N1799 S1798 1.613 1_556 S
N1799 C1802 1.350 . S
N1800 S1798 1.610 1_556 S
N1800 C1801 1.351 . S
C1801 C1795 1.428 . S
C1801 N1800 1.351 . S
C1801 C1802 1.434 . S
C1802 C1793 1.429 . S
C1802 N1799 1.350 . S
C1802 C1801 1.434 . S
C1803 C1804 1.369 . S
C1803 C1805 1.419 . S
C1803 H1807 0.930 . S
C1804 C1803 1.369 . S
C1804 C1813 1.429 . S
C1805 C1803 1.419 . S
C1805 C1806 1.363 . S
C1805 H1808 0.929 . S
C1806 C1805 1.363 . S
C1806 C1812 1.428 . S
H1807 C1803 0.930 . S
H1808 C1805 0.929 . S
S1809 N1810 1.613 . S
S1809 N1811 1.610 . S
N1810 S1809 1.613 . S
N1810 C1813 1.350 . S
N1811 S1809 1.610 . S
N1811 C1812 1.351 . S
C1812 C1806 1.428 . S
C1812 N1811 1.351 . S
C1812 C1813 1.434 . S
C1813 C1804 1.429 . S
C1813 N1810 1.350 . S
C1813 C1812 1.434 . S
C1814 C1815 1.369 . S
C1814 C1816 1.419 . S
C1814 H1818 0.930 . S
C1815 C1814 1.369 . S
C1815 C1824 1.429 . S
C1816 C1814 1.419 . S
C1816 C1817 1.363 . S
C1816 H1819 0.929 . S
C1817 C1816 1.363 . S
C1817 C1823 1.428 . S
H1818 C1814 0.930 . S
H1819 C1816 0.929 . S
S1820 N1821 1.613 . S
S1820 N1822 1.610 . S
N1821 S1820 1.613 . S
N1821 C1824 1.350 . S
N1822 S1820 1.610 . S
N1822 C1823 1.351 . S
C1823 C1817 1.428 . S
C1823 N1822 1.351 . S
C1823 C1824 1.434 . S
C1824 C1815 1.429 . S
C1824 N1821 1.350 . S
C1824 C1823 1.434 . S
C1825 C1826 1.369 . S
C1825 C1827 1.419 1_655 S
C1825 H1829 0.930 . S
C1826 C1825 1.369 . S
C1826 C1835 1.429 . S
C1827 C1825 1.419 1_455 S
C1827 C1828 1.363 . S
C1827 H1830 0.929 . S
C1828 C1827 1.363 . S
C1828 C1834 1.428 . S
H1829 C1825 0.930 . S
H1830 C1827 0.929 . S
S1831 N1832 1.613 . S
S1831 N1833 1.610 1_655 S
N1832 S1831 1.613 . S
N1832 C1835 1.350 . S
N1833 S1831 1.610 1_455 S
N1833 C1834 1.351 . S
C1834 C1828 1.428 . S
C1834 N1833 1.351 . S
C1834 C1835 1.434 1_455 S
C1835 C1826 1.429 . S
C1835 N1832 1.350 . S
C1835 C1834 1.434 1_655 S
C1836 C1837 1.369 . S
C1836 C1838 1.419 . S
C1836 H1840 0.930 . S
C1837 C1836 1.369 . S
C1837 C1846 1.429 . S
C1838 C1836 1.419 . S
C1838 C1839 1.363 . S
C1838 H1841 0.929 . S
C1839 C1838 1.363 . S
C1839 C1845 1.428 . S
H1840 C1836 0.930 . S
H1841 C1838 0.929 . S
S1842 N1843 1.613 . S
S1842 N1844 1.610 . S
N1843 S1842 1.613 . S
N1843 C1846 1.350 . S
N1844 S1842 1.610 . S
N1844 C1845 1.351 . S
C1845 C1839 1.428 . S
C1845 N1844 1.351 . S
C1845 C1846 1.434 . S
C1846 C1837 1.429 . S
C1846 N1843 1.350 . S
C1846 C1845 1.434 . S
C1847 C1848 1.369 . S
C1847 C1849 1.419 1_655 S
C1847 H1851 0.930 . S
C1848 C1847 1.369 . S
C1848 C1857 1.429 . S
C1849 C1847 1.419 1_455 S
C1849 C1850 1.363 . S
C1849 H1852 0.929 . S
C1850 C1849 1.363 . S
C1850 C1856 1.428 . S
H1851 C1847 0.930 . S
H1852 C1849 0.929 . S
S1853 N1854 1.613 . S
S1853 N1855 1.610 1_655 S
N1854 S1853 1.613 . S
N1854 C1857 1.350 . S
N1855 S1853 1.610 1_455 S
N1855 C1856 1.351 . S
C1856 C1850 1.428 . S
C1856 N1855 1.351 . S
C1856 C1857 1.434 1_455 S
C1857 C1848 1.429 . S
C1857 N1854 1.350 . S
C1857 C1856 1.434 1_655 S
C1858 C1859 1.369 . S
C1858 C1860 1.419 . S
C1858 H1862 0.930 . S
C1859 C1858 1.369 . S
C1859 C1868 1.429 . S
C1860 C1858 1.419 . S
C1860 C1861 1.363 . S
C1860 H1863 0.929 . S
C1861 C1860 1.363 . S
C1861 C1867 1.428 . S
H1862 C1858 0.930 . S
H1863 C1860 0.929 . S
S1864 N1865 1.613 . S
S1864 N1866 1.610 . S
N1865 S1864 1.613 . S
N1865 C1868 1.350 . S
N1866 S1864 1.610 . S
N1866 C1867 1.351 . S
C1867 C1861 1.428 . S
C1867 N1866 1.351 . S
C1867 C1868 1.434 . S
C1868 C1859 1.429 . S
C1868 N1865 1.350 . S
C1868 C1867 1.434 . S
C1869 C1870 1.369 . S
C1869 C1871 1.419 . S
C1869 H1873 0.930 . S
C1870 C1869 1.369 . S
C1870 C1879 1.429 . S
C1871 C1869 1.419 . S
C1871 C1872 1.363 . S
C1871 H1874 0.929 . S
C1872 C1871 1.363 . S
C1872 C1878 1.428 . S
H1873 C1869 0.930 . S
H1874 C1871 0.929 . S
S1875 N1876 1.613 . S
S1875 N1877 1.610 . S
N1876 S1875 1.613 . S
N1876 C1879 1.350 . S
N1877 S1875 1.610 . S
N1877 C1878 1.351 . S
C1878 C1872 1.428 . S
C1878 N1877 1.351 . S
C1878 C1879 1.434 . S
C1879 C1870 1.429 . S
C1879 N1876 1.350 . S
C1879 C1878 1.434 . S
C1880 C1881 1.369 . S
C1880 C1882 1.419 . S
C1880 H1884 0.930 . S
C1881 C1880 1.369 . S
C1881 C1890 1.429 . S
C1882 C1880 1.419 . S
C1882 C1883 1.363 . S
C1882 H1885 0.929 . S
C1883 C1882 1.363 . S
C1883 C1889 1.428 . S
H1884 C1880 0.930 . S
H1885 C1882 0.929 . S
S1886 N1887 1.613 1_556 S
S1886 N1888 1.610 1_556 S
N1887 S1886 1.613 1_554 S
N1887 C1890 1.350 . S
N1888 S1886 1.610 1_554 S
N1888 C1889 1.351 . S
C1889 C1883 1.428 . S
C1889 N1888 1.351 . S
C1889 C1890 1.434 . S
C1890 C1881 1.429 . S
C1890 N1887 1.350 . S
C1890 C1889 1.434 . S
C1891 C1892 1.369 . S
C1891 C1893 1.419 . S
C1891 H1895 0.930 . S
C1892 C1891 1.369 . S
C1892 C1901 1.429 . S
C1893 C1891 1.419 . S
C1893 C1894 1.363 . S
C1893 H1896 0.929 . S
C1894 C1893 1.363 . S
C1894 C1900 1.428 . S
H1895 C1891 0.930 . S
H1896 C1893 0.929 . S
S1897 N1898 1.613 1_554 S
S1897 N1899 1.610 1_554 S
N1898 S1897 1.613 1_556 S
N1898 C1901 1.350 . S
N1899 S1897 1.610 1_556 S
N1899 C1900 1.351 . S
C1900 C1894 1.428 . S
C1900 N1899 1.351 . S
C1900 C1901 1.434 . S
C1901 C1892 1.429 . S
C1901 N1898 1.350 . S
C1901 C1900 1.434 . S
C1902 C1903 1.369 . S
C1902 C1904 1.419 . S
C1902 H1906 0.930 . S
C1903 C1902 1.369 . S
C1903 C1912 1.429 . S
C1904 C1902 1.419 . S
C1904 C1905 1.363 . S
C1904 H1907 0.929 . S
C1905 C1904 1.363 . S
C1905 C1911 1.428 . S
H1906 C1902 0.930 . S
H1907 C1904 0.929 . S
S1908 N1909 1.613 . S
S1908 N1910 1.610 . S
N1909 S1908 1.613 . S
N1909 C1912 1.350 . S
N1910 S1908 1.610 . S
N1910 C1911 1.351 . S
C1911 C1905 1.428 . S
C1911 N1910 1.351 . S
C1911 C1912 1.434 . S
C1912 C1903 1.429 . S
C1912 N1909 1.350 . S
C1912 C1911 1.434 . S
C1913 C1914 1.369 . S
C1913 C1915 1.419 1_655 S
C1913 H1917 0.930 . S
C1914 C1913 1.369 . S
C1914 C1923 1.429 . S
C1915 C1913 1.419 1_455 S
C1915 C1916 1.363 . S
C1915 H1918 0.929 . S
C1916 C1915 1.363 . S
C1916 C1922 1.428 . S
H1917 C1913 0.930 . S
H1918 C1915 0.929 . S
S1919 N1920 1.613 1_455 S
S1919 N1921 1.610 . S
N1920 S1919 1.613 1_655 S
N1920 C1923 1.350 . S
N1921 S1919 1.610 . S
N1921 C1922 1.351 . S
C1922 C1916 1.428 . S
C1922 N1921 1.351 . S
C1922 C1923 1.434 1_455 S
C1923 C1914 1.429 . S
C1923 N1920 1.350 . S
C1923 C1922 1.434 1_655 S
C1924 C1925 1.369 . S
C1924 C1926 1.419 . S
C1924 H1928 0.930 . S
C1925 C1924 1.369 . S
C1925 C1934 1.429 . S
C1926 C1924 1.419 . S
C1926 C1927 1.363 . S
C1926 H1929 0.929 . S
C1927 C1926 1.363 . S
C1927 C1933 1.428 . S
H1928 C1924 0.930 . S
H1929 C1926 0.929 . S
S1930 N1931 1.613 . S
S1930 N1932 1.610 . S
N1931 S1930 1.613 . S
N1931 C1934 1.350 . S
N1932 S1930 1.610 . S
N1932 C1933 1.351 . S
C1933 C1927 1.428 . S
C1933 N1932 1.351 . S
C1933 C1934 1.434 . S
C1934 C1925 1.429 . S
C1934 N1931 1.350 . S
C1934 C1933 1.434 . S
C1935 C1936 1.369 . S
C1935 C1937 1.419 1_455 S
C1935 H1939 0.930 . S
C1936 C1935 1.369 . S
C1936 C1945 1.429 . S
C1937 C1935 1.419 1_655 S
C1937 C1938 1.363 . S
C1937 H1940 0.929 . S
C1938 C1937 1.363 . S
C1938 C1944 1.428 . S
H1939 C1935 0.930 . S
H1940 C1937 0.929 . S
S1941 N1942 1.613 1_656 S
S1941 N1943 1.610 1_556 S
N1942 S1941 1.613 1_454 S
N1942 C1945 1.350 . S
N1943 S1941 1.610 1_554 S
N1943 C1944 1.351 . S
C1944 C1938 1.428 . S
C1944 N1943 1.351 . S
C1944 C1945 1.434 1_655 S
C1945 C1936 1.429 . S
C1945 N1942 1.350 . S
C1945 C1944 1.434 1_455 S
C1946 C1947 1.369 . S
C1946 C1948 1.419 . S
C1946 H1950 0.930 . S
C1947 C1946 1.369 . S
C1947 C1956 1.429 . S
C1948 C1946 1.419 . S
C1948 C1949 1.363 . S
C1948 H1951 0.929 . S
C1949 C1948 1.363 . S
C1949 C1955 1.428 . S
H1950 C1946 0.930 . S
H1951 C1948 0.929 . S
S1952 N1953 1.613 1_554 S
S1952 N1954 1.610 1_554 S
N1953 S1952 1.613 1_556 S
N1953 C1956 1.350 . S
N1954 S1952 1.610 1_556 S
N1954 C1955 1.351 . S
C1955 C1949 1.428 . S
C1955 N1954 1.351 . S
C1955 C1956 1.434 . S
C1956 C1947 1.429 . S
C1956 N1953 1.350 . S
C1956 C1955 1.434 . S
C1957 C1958 1.369 . S
C1957 C1959 1.419 . S
C1957 H1961 0.930 . S
C1958 C1957 1.369 . S
C1958 C1967 1.429 . S
C1959 C1957 1.419 . S
C1959 C1960 1.363 . S
C1959 H1962 0.929 . S
C1960 C1959 1.363 . S
C1960 C1966 1.428 . S
H1961 C1957 0.930 . S
H1962 C1959 0.929 . S
S1963 N1964 1.613 . S
S1963 N1965 1.610 . S
N1964 S1963 1.613 . S
N1964 C1967 1.350 . S
N1965 S1963 1.610 . S
N1965 C1966 1.351 . S
C1966 C1960 1.428 . S
C1966 N1965 1.351 . S
C1966 C1967 1.434 . S
C1967 C1958 1.429 . S
C1967 N1964 1.350 . S
C1967 C1966 1.434 . S
C1089 C240 1.857 1_554 S
C1091 C2 1.859 . S
C1100 C36 1.862 . S
C1102 C138 1.861 . S
C1111 C70 1.861 . S
C1113 C172 1.859 . S
C1122 C206 1.858 . S
C1124 C104 1.858 1_556 S
C1133 C274 1.861 . S
C1135 C512 1.859 1_556 S
C1144 C410 1.861 . S
C1146 C308 1.859 . S
C1155 C342 1.859 . S
C1157 C444 1.858 . S
C1166 C478 1.858 . S
C1168 C376 1.858 1_554 S
C1177 C784 1.860 . S
C1179 C546 1.858 . S
C1188 C682 1.857 . S
C1190 C580 1.858 1_556 S
C1199 C716 1.862 1_554 S
C1201 C614 1.861 . S
C1210 C750 1.857 . S
C1212 C648 1.858 . S
C1221 C1056 1.859 . S
C1223 C818 1.858 . S
C1232 C852 1.857 1_554 S
C1234 C954 1.860 . S
C1243 C988 1.861 1_556 S
C1245 C886 1.861 . S
C1254 C1022 1.858 . S
C1256 C920 1.858 . S
C1265 C20 0.537 . S
C1267 C258 0.522 . S
C1276 C54 0.518 . S
C1278 C156 0.534 . S
C1287 C88 0.518 . S
C1289 C190 0.534 . S
C1298 C122 0.537 . S
C1300 C224 0.522 . S
C1309 C530 0.532 . S
C1311 C292 0.518 . S
C1320 C326 0.516 . S
C1322 C428 0.534 . S
C1331 C462 0.532 . S
C1333 C360 0.528 . S
C1342 C394 0.521 . S
C1344 C496 0.534 . S
C1353 C564 0.516 . S
C1355 C802 0.530 . S
C1364 C700 0.517 . S
C1366 C598 0.534 . S
C1375 C734 0.518 . S
C1377 C632 0.535 . S
C1386 C666 0.522 . S
C1388 C768 0.535 . S
C1397 C836 0.534 . S
C1399 C1074 0.518 . S
C1408 C870 0.532 . S
C1410 C972 0.529 . S
C1419 C904 0.537 . S
C1421 C1006 0.522 . S
C1430 C938 0.523 . S
C1432 C1040 0.523 . S
C1441 C213 1.689 . S
C1443 C9 1.698 . S
C1452 C43 1.699 . S
C1454 C247 1.690 . S
C1463 C145 1.689 . S
C1465 C77 1.694 . S
C1474 C179 1.701 . S
C1476 C111 1.692 . S
C1485 C485 1.690 . S
C1487 C281 1.698 . S
C1496 C519 1.693 . S
C1498 C315 1.700 . S
C1507 C417 1.698 . S
C1509 C349 1.690 . S
C1518 C451 1.688 . S
C1520 C383 1.696 . S
C1529 C553 1.696 . S
C1531 C757 1.690 . S
C1540 C791 1.701 . S
C1542 C587 1.693 . S
C1551 C689 1.688 . S
C1553 C621 1.696 . S
C1562 C723 1.700 . S
C1564 C655 1.691 . S
C1573 C1029 1.690 . S
C1575 C825 1.699 . S
C1584 C859 1.701 . S
C1586 C1063 1.696 . S
C1595 C961 1.692 . S
C1597 C893 1.700 . S
C1606 C995 1.701 . S
C1608 C927 1.694 . S
C1617 C33 1.582 . S
C1619 C923 1.586 . S
C1628 C277 1.586 . S
C1630 C67 1.578 . S
C1639 C855 1.585 . S
C1641 C101 1.581 . S
C1650 C135 1.577 . S
C1652 C345 1.586 . S
C1661 C169 1.582 . S
C1663 C991 1.587 . S
C1672 C203 1.578 . S
C1674 C481 1.588 . S
C1683 C237 1.578 . S
C1685 C1059 1.586 . S
C1694 C413 1.585 . S
C1696 C271 1.581 . S
C1705 C651 1.589 . S
C1707 C305 1.579 . S
C1716 C339 1.582 . S
C1718 C5 1.586 . S
C1727 C373 1.582 . S
C1729 C583 1.585 . S
C1738 C73 1.588 . S
C1740 C407 1.580 . S
C1749 C719 1.589 . S
C1751 C441 1.578 . S
C1760 C475 1.579 . S
C1762 C209 1.588 . S
C1771 C509 1.579 . S
C1773 C787 1.588 . S
C1782 C141 1.585 . S
C1784 C543 1.580 . S
C1793 C379 1.588 . S
C1795 C577 1.578 . S
C1804 C821 1.585 . S
C1806 C611 1.580 . S
C1815 C645 1.579 . S
C1817 C311 1.588 . S
C1826 C679 1.577 . S
C1828 C889 1.587 . S
C1837 C447 1.587 . S
C1839 C713 1.578 . S
C1848 C747 1.577 . S
C1850 C1025 1.587 . S
C1859 C515 1.589 . S
C1861 C781 1.579 . S
C1870 C957 1.587 . S
C1872 C815 1.578 . S
C1881 C107 1.589 . S
C1883 C849 1.578 . S
C1892 C883 1.582 . S
C1894 C549 1.587 . S
C1903 C39 1.588 . S
C1905 C917 1.578 . S
C1914 C617 1.588 . S
C1916 C951 1.578 . S
C1925 C175 1.587 . S
C1927 C985 1.581 . S
C1936 C1019 1.582 . S
C1938 C753 1.586 . S
C1947 C1053 1.577 . S
C1949 C243 1.588 . S
C1958 C1087 1.577 . S
C1960 C685 1.588 . S
