# Generated by pormake.
# Topology zfd, (5)-cn, num edge types: 1
# Building blocks:
#     Node 0, Type 0, BuildingBlock: XOMCOT_clean_sbu_1, # of connection points: 5
#     Node 1, Type 0, BuildingBlock: XOMCOT_clean_sbu_1, # of connection points: 5
#     Node 2, Type 0, BuildingBlock: XOMCOT_clean_sbu_1, # of connection points: 5
#     Node 3, Type 0, BuildingBlock: XOMCOT_clean_sbu_1, # of connection points: 5
#     Node 4, Type 0, BuildingBlock: XOMCOT_clean_sbu_1, # of connection points: 5
#     Node 5, Type 0, BuildingBlock: XOMCOT_clean_sbu_1, # of connection points: 5
#     Node 6, Type 0, BuildingBlock: XOMCOT_clean_sbu_1, # of connection points: 5
#     Node 7, Type 0, BuildingBlock: XOMCOT_clean_sbu_1, # of connection points: 5
#     Node 8, Type 0, BuildingBlock: XOMCOT_clean_sbu_1, # of connection points: 5
#     Node 9, Type 0, BuildingBlock: XOMCOT_clean_sbu_1, # of connection points: 5
#     Node 10, Type 0, BuildingBlock: XOMCOT_clean_sbu_1, # of connection points: 5
#     Node 11, Type 0, BuildingBlock: XOMCOT_clean_sbu_1, # of connection points: 5
#     Node 12, Type 0, BuildingBlock: XOMCOT_clean_sbu_1, # of connection points: 5
#     Node 13, Type 0, BuildingBlock: XOMCOT_clean_sbu_1, # of connection points: 5
#     Node 14, Type 0, BuildingBlock: XOMCOT_clean_sbu_1, # of connection points: 5
#     Node 15, Type 0, BuildingBlock: XOMCOT_clean_sbu_1, # of connection points: 5
#     Edge 16, Type (0, 0), BuildingBlock: AJUNOK_clean_linker_0, # of connection points: 2
#     Edge 17, Type (0, 0), BuildingBlock: AJUNOK_clean_linker_0, # of connection points: 2
#     Edge 18, Type (0, 0), BuildingBlock: AJUNOK_clean_linker_0, # of connection points: 2
#     Edge 19, Type (0, 0), BuildingBlock: AJUNOK_clean_linker_0, # of connection points: 2
#     Edge 20, Type (0, 0), BuildingBlock: AJUNOK_clean_linker_0, # of connection points: 2
#     Edge 21, Type (0, 0), BuildingBlock: AJUNOK_clean_linker_0, # of connection points: 2
#     Edge 22, Type (0, 0), BuildingBlock: AJUNOK_clean_linker_0, # of connection points: 2
#     Edge 23, Type (0, 0), BuildingBlock: AJUNOK_clean_linker_0, # of connection points: 2
#     Edge 24, Type (0, 0), BuildingBlock: AJUNOK_clean_linker_0, # of connection points: 2
#     Edge 25, Type (0, 0), BuildingBlock: AJUNOK_clean_linker_0, # of connection points: 2
#     Edge 26, Type (0, 0), BuildingBlock: AJUNOK_clean_linker_0, # of connection points: 2
#     Edge 27, Type (0, 0), BuildingBlock: AJUNOK_clean_linker_0, # of connection points: 2
#     Edge 28, Type (0, 0), BuildingBlock: AJUNOK_clean_linker_0, # of connection points: 2
#     Edge 29, Type (0, 0), BuildingBlock: AJUNOK_clean_linker_0, # of connection points: 2
#     Edge 30, Type (0, 0), BuildingBlock: AJUNOK_clean_linker_0, # of connection points: 2
#     Edge 31, Type (0, 0), BuildingBlock: AJUNOK_clean_linker_0, # of connection points: 2
#     Edge 32, Type (0, 0), BuildingBlock: AJUNOK_clean_linker_0, # of connection points: 2
#     Edge 33, Type (0, 0), BuildingBlock: AJUNOK_clean_linker_0, # of connection points: 2
#     Edge 34, Type (0, 0), BuildingBlock: AJUNOK_clean_linker_0, # of connection points: 2
#     Edge 35, Type (0, 0), BuildingBlock: AJUNOK_clean_linker_0, # of connection points: 2
#     Edge 36, Type (0, 0), BuildingBlock: AJUNOK_clean_linker_0, # of connection points: 2
#     Edge 37, Type (0, 0), BuildingBlock: AJUNOK_clean_linker_0, # of connection points: 2
#     Edge 38, Type (0, 0), BuildingBlock: AJUNOK_clean_linker_0, # of connection points: 2
#     Edge 39, Type (0, 0), BuildingBlock: AJUNOK_clean_linker_0, # of connection points: 2
#     Edge 40, Type (0, 0), BuildingBlock: AJUNOK_clean_linker_0, # of connection points: 2
#     Edge 41, Type (0, 0), BuildingBlock: AJUNOK_clean_linker_0, # of connection points: 2
#     Edge 42, Type (0, 0), BuildingBlock: AJUNOK_clean_linker_0, # of connection points: 2
#     Edge 43, Type (0, 0), BuildingBlock: AJUNOK_clean_linker_0, # of connection points: 2
#     Edge 44, Type (0, 0), BuildingBlock: AJUNOK_clean_linker_0, # of connection points: 2
#     Edge 45, Type (0, 0), BuildingBlock: AJUNOK_clean_linker_0, # of connection points: 2
#     Edge 46, Type (0, 0), BuildingBlock: AJUNOK_clean_linker_0, # of connection points: 2
#     Edge 47, Type (0, 0), BuildingBlock: AJUNOK_clean_linker_0, # of connection points: 2
#     Edge 48, Type (0, 0), BuildingBlock: AJUNOK_clean_linker_0, # of connection points: 2
#     Edge 49, Type (0, 0), BuildingBlock: AJUNOK_clean_linker_0, # of connection points: 2
#     Edge 50, Type (0, 0), BuildingBlock: AJUNOK_clean_linker_0, # of connection points: 2
#     Edge 51, Type (0, 0), BuildingBlock: AJUNOK_clean_linker_0, # of connection points: 2
#     Edge 52, Type (0, 0), BuildingBlock: AJUNOK_clean_linker_0, # of connection points: 2
#     Edge 53, Type (0, 0), BuildingBlock: AJUNOK_clean_linker_0, # of connection points: 2
#     Edge 54, Type (0, 0), BuildingBlock: AJUNOK_clean_linker_0, # of connection points: 2
#     Edge 55, Type (0, 0), BuildingBlock: AJUNOK_clean_linker_0, # of connection points: 2
# Relax obj value: 0.255
# Max RMSD: 0.191
# Mean RMSD: 0.191
data_MOF--net-zfd--node1-XOMCOT_clean_sbu_1--edge1-AJUNOK_clean_linker_0
_symmetry_space_group_name_H-M    P1
_symmetry_Int_Tables_number       1
_symmetry_cell_setting            triclinic
loop_
_symmetry_equiv_pos_as_xyz
'x, y, z'
_cell_length_a     51.624257
_cell_length_b     51.315055
_cell_length_c     15.170694
_cell_angle_alpha  90.463846
_cell_angle_beta   90.505495
_cell_angle_gamma 89.181327
loop_
_atom_site_label
_atom_site_type_symbol
_atom_site_fract_x
_atom_site_fract_y
_atom_site_fract_z
_atom_type_partial_charge
C0 C 0.16189 0.23945 0.28734 0.0
C1 C 0.15796 0.22609 0.36376 0.0
N2 N 0.14907 0.20233 0.34226 0.0
N3 N 0.15579 0.2241 0.21773 0.0
C4 C 0.14909 0.20128 0.25323 0.0
H5 H 0.16538 0.26009 0.28425 0.0
Co6 Co 0.14084 0.23744 0.11738 0.0
C7 C 0.1626 0.20801 0.9567 0.0
O8 O 0.16146 0.23112 0.92045 0.0
N9 N 0.12457 0.25214 1.01955 0.0
C10 C 0.10739 0.27871 0.91905 0.0
C11 C 0.12536 0.27645 0.98532 0.0
C12 C 0.10604 0.24008 0.97225 0.0
N13 N 0.09543 0.25581 0.91121 0.0
O14 O 0.10674 0.22047 0.15322 0.0
H15 H 0.13694 0.2924 1.00824 0.0
H16 H 0.09928 0.22067 0.98595 0.0
O17 O 0.15445 0.20612 1.03764 0.0
C18 C 0.09476 0.23329 0.21505 0.0
O19 O 0.1047 0.25553 0.24076 0.0
N20 N 0.17156 0.25656 0.09679 0.0
C21 C 0.21177 0.29222 0.07758 0.0
C22 C 0.21554 0.26571 0.05626 0.0
C23 C 0.19531 0.24802 0.06827 0.0
C24 C 0.16869 0.2816 0.12603 0.0
C25 C 0.18808 0.29982 0.11489 0.0
H26 H 0.19902 0.2276 0.05568 0.0
H27 H 0.15058 0.28773 0.15565 0.0
H28 H 0.14195 0.18524 0.2139 0.0
H29 H 0.1594 0.2341 0.4298 0.0
H30 H 0.10226 0.29625 0.88333 0.0
H31 H 0.23403 0.2586 1.03215 0.0
H32 H 0.18425 0.31986 0.13416 0.0
C33 C 0.81773 0.1427 0.15945 0.0
C34 C 0.81985 0.16667 0.19841 0.0
N35 N 0.84015 0.17863 0.16249 0.0
N36 N 0.83657 0.13963 0.09877 0.0
C37 C 0.8504 0.1615 0.10407 0.0
H38 H 0.80198 0.12944 0.16951 0.0
Co39 Co 0.83463 0.11632 1.00695 0.0
C40 C 0.85417 0.14437 0.83895 0.0
O41 O 0.83378 0.13539 0.79685 0.0
N42 N 0.83221 0.09285 0.9173 0.0
C43 C 0.84424 0.06617 0.80934 0.0
C44 C 0.8528 0.08324 0.87287 0.0
C45 C 0.81152 0.08085 0.88241 0.0
N46 N 0.81834 0.06495 0.81593 0.0
O47 O 0.81814 0.0899 0.09007 0.0
H48 H 0.87271 0.08841 0.88605 0.0
H49 H 0.79191 0.0832 0.90515 0.0
O50 O 0.85626 0.13987 0.92294 0.0
C51 C 0.83393 0.07673 0.14028 0.0
O52 O 0.85866 0.08196 0.13387 0.0
N53 N 0.80178 0.1346 0.97592 0.0
C54 C 0.75746 0.16842 0.9667 0.0
C55 C 0.78234 0.17719 0.94818 0.0
C56 C 0.80381 0.16035 0.95314 0.0
C57 C 0.77763 0.12561 0.99589 0.0
C58 C 0.75533 0.14202 0.99073 0.0
H59 H 0.82234 0.16932 0.94642 0.0
H60 H 0.77547 0.10611 1.02077 0.0
H61 H 0.86718 0.16492 0.06413 0.0
H62 H 0.80699 0.1749 0.24764 0.0
H63 H 0.85604 0.05491 0.76381 0.0
H64 H 0.78572 0.19756 0.93517 0.0
H65 H 0.73668 0.13423 1.0079 0.0
C66 C 0.91308 0.83659 0.15428 0.0
C67 C 0.91734 0.85904 0.20114 0.0
N68 N 0.92578 0.87743 0.14532 0.0
N69 N 0.91842 0.84098 0.06919 0.0
C70 C 0.92614 0.86582 0.06549 0.0
H71 H 0.90739 0.81806 0.18086 0.0
Co72 Co 0.92473 0.81725 0.98426 0.0
C73 C 0.90599 0.85081 0.82849 0.0
O74 O 0.93009 0.85023 0.80141 0.0
N75 N 0.93193 0.79302 0.89737 0.0
C76 C 0.92969 0.76578 0.78311 0.0
C77 C 0.91595 0.78317 0.8349 0.0
C78 C 0.95493 0.78138 0.88309 0.0
N79 N 0.95411 0.7645 0.81469 0.0
O80 O 0.95063 0.80011 0.07382 0.0
H81 H 0.8958 0.78873 0.82641 0.0
H82 H 0.97243 0.78643 0.9186 0.0
O83 O 0.90046 0.83766 0.89837 0.0
C84 C 0.97345 0.80952 0.09025 0.0
O85 O 0.98173 0.82782 1.03792 0.0
N86 N 0.89628 0.79536 1.02069 0.0
C87 C 0.85499 0.75948 1.02966 0.0
C88 C 0.8503 0.78645 1.02034 0.0
C89 C 0.87108 0.80398 1.01629 0.0
C90 C 0.90118 0.76947 1.03553 0.0
C91 C 0.88103 0.75134 0.03895 0.0
H92 H 0.86683 0.82441 1.006 0.0
H93 H 0.92095 0.76225 1.03795 0.0
H94 H 0.93199 0.8752 1.00535 0.0
H95 H 0.91319 0.86196 0.2704 0.0
H96 H 0.9227 0.75585 0.72455 0.0
H97 H 0.83068 0.79399 1.0143 0.0
H98 H 0.8861 0.73088 0.04411 0.0
C99 C 0.20627 0.91687 0.18482 0.0
C100 C 0.18529 0.91727 0.23931 0.0
N101 N 0.16577 0.93032 0.19875 0.0
N102 N 0.19981 0.92947 0.11005 0.0
C103 C 0.17513 0.93743 0.12038 0.0
H104 H 0.22489 0.90797 0.19929 0.0
Co105 Co 0.21893 0.94056 1.01882 0.0
C106 C 0.20243 0.90058 0.86568 0.0
O107 O 0.22614 0.89786 0.83591 0.0
N108 N 0.23793 0.9535 0.92543 0.0
C109 C 0.25009 0.96738 0.79399 0.0
C110 C 0.23147 0.95425 0.83907 0.0
C111 C 0.25971 0.96769 0.93139 0.0
N112 N 0.26791 0.97568 0.85255 0.0
O113 O 0.2347 0.96819 0.10522 0.0
H114 H 0.21339 0.94774 0.811 0.0
H115 H 0.26834 0.97416 0.99264 0.0
O116 O 0.19837 0.9156 0.9336 0.0
C117 C 0.24615 0.96922 0.18159 0.0
O118 O 0.25378 0.94729 0.21813 0.0
N119 N 0.24543 0.91362 0.03948 0.0
C120 C 0.28339 0.87333 1.03193 0.0
C121 C 0.25685 0.86779 1.02909 0.0
C122 C 0.23833 0.88802 1.03364 0.0
C123 C 0.27114 0.91907 0.05064 0.0
C124 C 0.29032 0.89945 0.04522 0.0
H125 H 0.21812 0.88295 1.03071 0.0
H126 H 0.27737 0.93867 0.06207 0.0
H127 H 0.16422 0.9481 0.07086 0.0
H128 H 0.18398 0.90739 0.30191 0.0
H129 H 0.24906 0.9729 0.72528 0.0
H130 H 0.25033 0.8479 1.02209 0.0
H131 H 0.31045 0.90499 0.04829 0.0
C132 C 0.11013 0.82478 0.34108 0.0
C133 C 0.11016 0.84487 0.28213 0.0
N134 N 0.10177 0.86673 0.32374 0.0
N135 N 0.10252 0.83425 0.41987 0.0
C136 C 0.09743 0.85965 0.40738 0.0
H137 H 0.11431 0.80449 0.32659 0.0
Co138 Co 0.09036 0.81689 0.5128 0.0
C139 C 0.12996 0.83258 0.66538 0.0
O140 O 0.13113 0.80852 0.69429 0.0
N141 N 0.07597 0.79968 0.60809 0.0
C142 C 0.05959 0.79261 0.74042 0.0
C143 C 0.07472 0.80866 0.69182 0.0
C144 C 0.06014 0.77892 0.60682 0.0
N145 N 0.05033 0.7739 0.68672 0.0
O146 O 0.06468 0.79988 0.42386 0.0
H147 H 0.08194 0.82715 0.71485 0.0
H148 H 0.05373 0.76917 0.5473 0.0
O149 O 0.11527 0.83774 0.59755 0.0
C150 C 0.04151 0.80919 0.40935 0.0
O151 O 0.03288 0.82745 0.46311 0.0
N152 N 0.11681 0.78957 0.49904 0.0
C153 C 0.15661 0.7511 0.51219 0.0
C154 C 0.16236 0.77772 0.50756 0.0
C155 C 0.14237 0.79646 0.50007 0.0
C156 C 0.11098 0.76366 0.49537 0.0
C157 C 0.13039 0.74426 0.50379 0.0
H158 H 0.14758 0.81676 0.49766 0.0
H159 H 0.09123 0.75759 0.48785 0.0
H160 H 0.09012 0.87258 0.45842 0.0
H161 H 0.11675 0.8436 0.21468 0.0
H162 H 0.05314 0.79644 0.8071 0.0
H163 H 0.18223 0.78416 0.51068 0.0
H164 H 0.12463 0.72409 0.50657 0.0
C165 C 0.20732 0.11148 0.418 0.0
C166 C 0.18196 0.11667 0.39736 0.0
N167 N 0.1678 0.11597 0.47179 0.0
N168 N 0.20926 0.10676 0.50478 0.0
C169 C 0.18489 0.10891 0.53515 0.0
H170 H 0.22332 0.11374 0.37397 0.0
Co171 Co 0.23745 0.09913 0.5742 0.0
C172 C 0.21332 0.1228 0.74087 0.0
O173 O 0.21065 0.09872 0.76768 0.0
N174 N 0.26529 0.09089 0.64651 0.0
C175 C 0.2965 0.09219 0.74802 0.0
C176 C 0.27862 0.10678 0.70134 0.0
C177 C 0.27555 0.06709 0.65964 0.0
N178 N 0.29461 0.06724 0.72099 0.0
O179 O 0.24723 0.06944 0.48326 0.0
H180 H 0.27479 0.12743 0.70964 0.0
H181 H 0.26751 0.04954 0.63096 0.0
O182 O 0.22466 0.1264 0.66615 0.0
C183 C 0.25412 0.0665 0.40147 0.0
O184 O 0.26071 0.087 0.35625 0.0
N185 N 0.25878 0.12525 0.5198 0.0
C186 C 0.29621 0.16472 0.51448 0.0
C187 C 0.2697 0.17094 0.5218 0.0
C188 C 0.25129 0.15093 0.524 0.0
C189 C 0.28408 0.11916 0.50114 0.0
C190 C 0.30304 0.13849 0.49921 0.0
H191 H 0.23129 0.15606 0.53664 0.0
H192 H 0.29037 0.09899 0.49784 0.0
H193 H 0.18011 0.10821 0.60432 0.0
H194 H 0.1753 0.12462 0.33506 0.0
H195 H 0.30838 0.09892 0.80255 0.0
H196 H 0.26338 0.19094 0.53216 0.0
H197 H 0.32314 0.13276 0.49082 0.0
C198 C 0.94604 0.26197 0.35891 0.0
C199 C 0.92715 0.2623 0.2947 0.0
N200 N 0.91134 0.24242 0.31073 0.0
N201 N 0.94208 0.24175 0.41353 0.0
C202 C 0.92099 0.23001 0.38182 0.0
H203 H 0.96006 0.27709 0.37014 0.0
Co204 Co 0.95595 0.24006 0.52367 0.0
C205 C 0.93802 0.19133 0.62258 0.0
O206 O 0.96185 0.18715 0.65065 0.0
N207 N 0.97001 0.24022 0.63502 0.0
C208 C 0.97493 0.24296 0.78028 0.0
C209 C 0.95728 0.2427 0.71236 0.0
C210 C 0.99519 0.23908 0.65728 0.0
N211 N 0.99858 0.2404 0.74491 0.0
O212 O 0.98609 0.2187 0.47331 0.0
H213 H 0.9365 0.24429 0.71921 0.0
H214 H 1.01086 0.23842 0.61056 0.0
O215 O 0.93413 0.20855 0.56165 0.0
C216 C 1.0029 0.23258 0.43216 0.0
O217 O 1.00067 0.25803 0.43831 0.0
N218 N 0.92889 0.26295 0.56093 0.0
C219 C 0.88987 0.30134 0.56624 0.0
C220 C 0.88383 0.27495 0.57376 0.0
C221 C 0.90354 0.25603 0.57011 0.0
C222 C 0.93527 0.28864 0.55926 0.0
C223 C 0.91605 0.30818 0.56157 0.0
H224 H 0.89787 0.23597 0.56895 0.0
H225 H 0.95528 0.29392 0.55015 0.0
H226 H 0.91171 0.21392 0.41379 0.0
H227 H 0.92415 0.27699 0.24465 0.0
H228 H 0.97088 0.24534 0.84981 0.0
H229 H 0.86386 0.26884 0.57693 0.0
H230 H 0.92155 0.3284 0.55667 0.0
C231 C 0.81807 0.91674 0.28469 0.0
C232 C 0.8382 0.91909 0.22701 0.0
N233 N 0.85818 0.93043 0.26994 0.0
N234 N 0.82566 0.92601 0.36376 0.0
C235 C 0.85007 0.93406 0.35311 0.0
H236 H 0.79871 0.9104 0.26851 0.0
Co237 Co 0.80508 0.93799 0.45074 0.0
C238 C 0.8296 0.9172 0.62447 0.0
O239 O 0.80569 0.91662 0.65319 0.0
N240 N 0.78368 0.9517 0.53681 0.0
C241 C 0.75134 0.97324 0.60247 0.0
C242 C 0.75756 0.95418 0.54152 0.0
C243 C 0.79271 0.9691 0.59525 0.0
N244 N 0.77361 0.98248 0.63525 0.0
O245 O 0.81854 0.97438 0.42518 0.0
H246 H 0.74379 0.9452 0.49745 0.0
H247 H 0.813 0.97404 0.60096 0.0
O248 O 0.83329 0.92681 0.54622 0.0
C249 C 0.80502 0.98586 0.36384 0.0
O250 O 0.784 0.97401 0.33651 0.0
N251 N 0.78952 0.90479 0.45956 0.0
C252 C 0.75872 0.86071 0.47088 0.0
C253 C 0.78429 0.86018 0.5028 0.0
C254 C 0.79977 0.88221 0.49341 0.0
C255 C 0.76582 0.90438 0.41928 0.0
C256 C 0.74992 0.88273 0.42521 0.0
H257 H 0.81981 0.88087 0.51351 0.0
H258 H 0.75899 0.9213 0.38347 0.0
H259 H 0.86073 0.9444 0.40365 0.0
H260 H 0.8381 0.91291 0.15857 0.0
H261 H 0.73229 0.98157 0.6145 0.0
H262 H 0.79218 0.84294 0.53452 0.0
H263 H 0.7306 0.88355 0.39686 0.0
C264 C 0.61664 0.73768 0.71738 0.0
C265 C 0.61361 0.71919 0.78108 0.0
N266 N 0.60081 0.69891 0.745 0.0
N267 N 0.6064 0.72869 0.64132 0.0
C268 C 0.59731 0.70496 0.6597 0.0
H269 H 0.62423 0.757 0.72746 0.0
Co270 Co 0.59522 0.74814 0.54918 0.0
C271 C 0.61417 0.71971 0.38211 0.0
O272 O 0.61552 0.74297 0.34717 0.0
N273 N 0.58251 0.7685 0.45745 0.0
C274 C 0.56825 0.80011 0.36893 0.0
C275 C 0.58553 0.79378 0.43518 0.0
C276 C 0.56345 0.76006 0.40412 0.0
N277 N 0.5544 0.77879 0.35027 0.0
O278 O 0.55867 0.73642 0.57618 0.0
H279 H 0.59835 0.80742 0.46669 0.0
H280 H 0.55539 0.74074 0.40789 0.0
O281 O 0.6047 0.7179 0.46112 0.0
C282 C 0.54959 0.7481 0.64558 0.0
O283 O 0.56383 0.76635 0.68195 0.0
N284 N 0.62905 0.76185 0.53757 0.0
C285 C 0.67596 0.78818 0.53026 0.0
C286 C 0.67437 0.76225 0.5015 0.0
C287 C 0.65091 0.74906 0.50899 0.0
C288 C 0.6311 0.78621 0.5733 0.0
C289 C 0.65421 0.79991 0.56914 0.0
H290 H 0.65071 0.72858 0.49292 0.0
H291 H 0.6144 0.79528 0.60413 0.0
H292 H 0.58673 0.69312 0.61267 0.0
H293 H 0.62054 0.72056 0.84843 0.0
H294 H 0.56556 0.81904 0.33898 0.0
H295 H 0.69116 0.75222 0.47461 0.0
H296 H 0.65489 0.81972 0.59418 0.0
C297 C 0.32545 0.62257 0.69686 0.0
C298 C 0.34883 0.61808 0.73779 0.0
N299 N 0.36549 0.60797 0.67799 0.0
N300 N 0.32768 0.61592 0.61125 0.0
C301 C 0.35222 0.60731 0.60142 0.0
H302 H 0.30769 0.62875 0.72849 0.0
Co303 Co 0.30223 0.60762 0.5348 0.0
C304 C 0.32492 0.62806 0.36628 0.0
O305 O 0.32103 0.60488 0.33171 0.0
N306 N 0.2764 0.59821 0.45637 0.0
C307 C 0.24596 0.59772 0.35189 0.0
C308 C 0.26215 0.61332 0.40117 0.0
C309 C 0.2686 0.57384 0.44008 0.0
N310 N 0.24986 0.57296 0.37784 0.0
O311 O 0.29179 0.58047 0.62634 0.0
H312 H 0.26408 0.63419 0.39505 0.0
H313 H 0.27787 0.5568 0.46864 0.0
O314 O 0.31703 0.63266 0.44539 0.0
C315 C 0.27773 0.56344 0.66516 0.0
O316 O 0.25451 0.55888 0.63308 0.0
N317 N 0.27911 0.63461 0.57972 0.0
C318 C 0.2398 0.67329 0.57988 0.0
C319 C 0.26593 0.67992 0.57054 0.0
C320 C 0.2853 0.66031 0.57081 0.0
C321 C 0.25418 0.62833 0.5999 0.0
C322 C 0.23428 0.64726 0.59919 0.0
H323 H 0.30503 0.66569 0.55735 0.0
H324 H 0.24894 0.60821 0.60702 0.0
H325 H 0.35995 0.59993 0.53982 0.0
H326 H 0.35341 0.62247 0.80606 0.0
H327 H 0.23348 0.60382 0.29793 0.0
H328 H 0.27122 0.69984 0.5571 0.0
H329 H 0.21448 0.64129 0.60911 0.0
C330 C 0.41349 0.32113 0.74766 0.0
C331 C 0.41572 0.33949 0.81334 0.0
N332 N 0.42954 0.35951 0.78226 0.0
N333 N 0.42503 0.33008 0.67474 0.0
C334 C 0.43442 0.35345 0.69757 0.0
H335 H 0.40568 0.30185 0.75515 0.0
Co336 Co 0.43843 0.3122 0.58204 0.0
C337 C 0.42109 0.3526 0.45252 0.0
O338 O 0.44477 0.36112 0.46344 0.0
N339 N 0.45301 0.29409 0.4886 0.0
C340 C 0.46333 0.27889 0.35602 0.0
C341 C 0.4446 0.29166 0.40448 0.0
C342 C 0.47615 0.28176 0.49026 0.0
N343 N 0.48331 0.27304 0.41041 0.0
O344 O 0.46408 0.29557 0.6715 0.0
H345 H 0.42653 0.29946 0.37883 0.0
H346 H 0.4879 0.27943 0.54856 0.0
O347 O 0.41465 0.33222 0.49621 0.0
C348 C 0.48436 0.30881 0.69435 0.0
O349 O 0.48798 0.33087 0.65321 0.0
N350 N 0.41295 0.28496 0.59177 0.0
C351 C 0.37552 0.24526 0.57522 0.0
C352 C 0.3683 0.27177 0.5759 0.0
C353 C 0.38714 0.29116 0.58391 0.0
C354 C 0.42036 0.25928 0.59496 0.0
C355 C 0.40209 0.23926 0.58592 0.0
H356 H 0.38085 0.31133 0.58268 0.0
H357 H 0.44066 0.25409 0.60055 0.0
H358 H 0.44622 0.36493 0.65444 0.0
H359 H 0.40778 0.33805 0.87883 0.0
H360 H 0.46298 0.2757 0.28539 0.0
H361 H 0.34814 0.27762 0.5695 0.0
H362 H 0.40899 0.21925 0.58406 0.0
C363 C 0.75467 0.42651 0.73509 0.0
C364 C 0.74234 0.42239 0.81371 0.0
N365 N 0.71671 0.42146 0.79689 0.0
N366 N 0.73675 0.42746 0.66999 0.0
C367 C 0.71398 0.42398 0.70913 0.0
H368 H 0.77504 0.43035 0.72661 0.0
Co369 Co 0.7406 0.44211 0.56297 0.0
C370 C 0.7121 0.40557 0.43316 0.0
O371 O 0.73419 0.40631 0.39096 0.0
N372 N 0.74473 0.45884 0.45592 0.0
C373 C 0.73629 0.47921 0.33019 0.0
C374 C 0.72723 0.46183 0.38983 0.0
C375 C 0.76342 0.47603 0.43747 0.0
N376 N 0.75899 0.48823 0.36056 0.0
O377 O 0.7194 0.47314 0.60914 0.0
H378 H 0.70786 0.4542 0.38869 0.0
H379 H 0.7785 0.48158 0.48356 0.0
O380 O 0.70997 0.41965 0.50543 0.0
C381 C 0.73457 0.48856 0.6537 0.0
O382 O 0.7595 0.48317 0.65055 0.0
N383 N 0.76476 0.41491 0.53347 0.0
C384 C 0.80482 0.37722 0.53124 0.0
C385 C 0.77914 0.37014 0.54696 0.0
C386 C 0.75951 0.38926 0.5492 0.0
C387 C 0.78974 0.42204 0.51905 0.0
C388 C 0.80991 0.40358 0.51658 0.0
H389 H 0.74027 0.38357 0.56804 0.0
H390 H 0.79468 0.44227 0.51605 0.0
H391 H 0.69568 0.42433 0.67387 0.0
H392 H 0.75132 0.42113 0.87831 0.0
H393 H 0.72549 0.48715 0.27479 0.0
H394 H 0.77435 0.35009 0.56032 0.0
H395 H 0.82957 0.41019 0.50848 0.0
C396 C 0.61637 0.33506 0.91589 0.0
C397 C 0.62556 0.35741 0.87947 0.0
N398 N 0.63422 0.37281 0.94525 0.0
N399 N 0.61928 0.33651 1.00421 0.0
C400 C 0.63 0.35983 1.01997 0.0
H401 H 0.60956 0.31821 0.87975 0.0
Co402 Co 0.61129 0.31158 0.08451 0.0
C403 C 0.63292 0.34093 0.24031 0.0
O404 O 0.60829 0.34456 0.25832 0.0
N405 N 0.6032 0.28683 0.16558 0.0
C406 C 0.60494 0.2571 0.27115 0.0
C407 C 0.61938 0.272 0.2154 0.0
C408 C 0.57938 0.28106 0.19249 0.0
N409 N 0.57986 0.2626 0.25468 0.0
O410 O 0.58143 0.30025 0.9981 0.0
H411 H 0.6403 0.27269 0.21339 0.0
H412 H 0.56203 0.29136 0.1709 0.0
O413 O 0.63853 0.32644 0.17235 0.0
C414 C 0.56357 0.2838 0.976 0.0
O415 O 0.56152 0.26239 1.02206 0.0
N416 N 0.63653 0.28734 1.0337 0.0
C417 C 0.67461 0.2487 0.99621 0.0
C418 C 0.68134 0.27494 1.00897 0.0
C419 C 0.66208 0.29388 1.02818 0.0
C420 C 0.62959 0.26219 1.01527 0.0
C421 C 0.64824 0.24263 0.99804 0.0
H422 H 0.6679 0.31366 0.04213 0.0
H423 H 0.60967 0.25655 1.02022 0.0
H424 H 0.63644 0.3666 0.08395 0.0
H425 H 0.62829 0.36086 0.80984 0.0
H426 H 0.61218 0.24448 0.32292 0.0
H427 H 0.70147 0.28059 1.00789 0.0
H428 H 0.64208 0.22273 0.98796 0.0
C429 C 0.69026 0.62951 0.86616 0.0
C430 C 0.66723 0.62949 0.82081 0.0
N431 N 0.64792 0.62492 0.87812 0.0
N432 N 0.68538 0.62529 0.9517 0.0
C433 C 0.65965 0.62236 0.95713 0.0
H434 H 0.70933 0.63183 0.83854 0.0
Co435 Co 0.70804 0.61711 0.03829 0.0
C436 C 0.67531 0.63792 0.18685 0.0
O437 O 0.67265 0.61326 0.20686 0.0
N438 N 0.731 0.60842 0.12704 0.0
C439 C 0.75892 0.61028 0.23907 0.0
C440 C 0.74258 0.62459 0.18554 0.0
C441 C 0.74035 0.5846 0.14605 0.0
N442 N 0.75744 0.58516 0.21367 0.0
O443 O 0.72299 0.58883 0.95331 0.0
H444 H 0.7394 0.64545 0.18877 0.0
H445 H 0.73405 0.56701 0.11282 0.0
O446 O 0.68995 0.6434 0.12098 0.0
C447 C 0.7082 0.56988 0.92756 0.0
O448 O 0.68571 0.56794 0.96659 0.0
N449 N 0.73241 0.64338 1.00069 0.0
C450 C 0.77141 0.68161 0.99665 0.0
C451 C 0.74503 0.68869 1.00093 0.0
C452 C 0.72588 0.66935 1.0031 0.0
C453 C 0.75778 0.63627 0.98793 0.0
C454 C 0.77747 0.65496 0.9868 0.0
H455 H 0.70589 0.67532 1.01145 0.0
H456 H 0.76327 0.61587 0.98584 0.0
H457 H 0.64982 0.61812 1.01792 0.0
H458 H 0.66476 0.63393 0.75156 0.0
H459 H 0.77064 0.61767 0.29294 0.0
H460 H 0.73928 0.70899 1.00742 0.0
H461 H 0.79745 0.64847 0.98119 0.0
C462 C 0.39128 0.70009 0.84068 0.0
C463 C 0.39651 0.68123 0.7787 0.0
N464 N 0.4171 0.66696 0.80655 0.0
N465 N 0.40843 0.69746 0.90777 0.0
C466 C 0.42353 0.67684 0.8858 0.0
H467 H 0.37703 0.7155 0.83326 0.0
Co468 Co 0.41875 0.71832 0.99877 0.0
C469 C 0.39663 0.69138 0.15612 0.0
O470 O 0.42041 0.6914 0.1876 0.0
N471 N 0.43035 0.73868 0.09004 0.0
C472 C 0.43522 0.76491 0.20556 0.0
C473 C 0.41747 0.75237 0.15252 0.0
C474 C 0.45549 0.74294 0.1061 0.0
N475 N 0.45908 0.75901 0.17534 0.0
O476 O 0.44775 0.7317 0.91788 0.0
H477 H 0.39663 0.753 0.15936 0.0
H478 H 0.47091 0.73423 0.06774 0.0
O479 O 0.39228 0.70173 0.08005 0.0
C480 C 0.44978 0.73597 0.83423 0.0
O481 O 0.42861 0.73674 0.78578 0.0
N482 N 0.39444 0.74594 0.96857 0.0
C483 C 0.35944 0.78856 0.97319 0.0
C484 C 0.35066 0.76293 0.97876 0.0
C485 C 0.36839 0.74202 0.97732 0.0
C486 C 0.40313 0.77075 0.95681 0.0
C487 C 0.386 0.79229 0.95968 0.0
H488 H 0.36103 0.72262 0.98583 0.0
H489 H 0.42365 0.77427 0.9521 0.0
H490 H 0.43945 0.66973 0.92623 0.0
H491 H 0.38569 0.67791 0.71823 0.0
H492 H 0.43088 0.7766 0.2634 0.0
H493 H 0.33032 0.7591 0.98878 0.0
H494 H 0.39361 0.81177 0.95414 0.0
C495 C 0.35007 0.44493 0.90193 0.0
C496 C 0.37312 0.44227 0.8591 0.0
N497 N 0.3926 0.44267 0.91926 0.0
N498 N 0.35489 0.44706 0.9889 0.0
C499 C 0.38082 0.44617 0.99755 0.0
H500 H 0.33098 0.44457 0.87198 0.0
Co501 Co 0.33126 0.45267 0.0755 0.0
C502 C 0.34706 0.40883 0.2109 0.0
O503 O 0.3228 0.40151 0.21452 0.0
N504 N 0.30748 0.46004 0.16546 0.0
C505 C 0.29211 0.46981 0.29814 0.0
C506 C 0.31212 0.45838 0.25293 0.0
C507 C 0.28482 0.47352 0.15985 0.0
N508 N 0.27488 0.47953 0.23949 0.0
O509 O 0.31197 0.47748 0.9904 0.0
H510 H 0.33014 0.45214 0.28303 0.0
H511 H 0.2769 0.48111 0.09899 0.0
O512 O 0.35265 0.42829 0.16052 0.0
C513 C 0.32162 0.49875 0.96037 0.0
O514 O 0.34435 0.50577 0.99125 0.0
N515 N 0.31143 0.42335 1.03478 0.0
C516 C 0.28181 0.37837 1.01911 0.0
C517 C 0.30887 0.37669 1.01708 0.0
C518 C 0.32337 0.39953 1.02388 0.0
C519 C 0.28519 0.42533 1.02354 0.0
C520 C 0.26997 0.40306 1.01804 0.0
H521 H 0.34425 0.39779 1.02738 0.0
H522 H 0.27556 0.44402 1.02259 0.0
H523 H 0.39073 0.44716 0.06053 0.0
H524 H 0.37515 0.43782 0.78958 0.0
H525 H 0.29218 0.47382 0.36832 0.0
H526 H 0.31871 0.3579 1.01633 0.0
H527 H 0.24906 0.40509 1.01659 0.0
C528 C 0.23621 0.33162 0.12817 0.0
C529 C 0.23208 0.31222 0.06341 0.0
C530 C 0.25261 0.35261 0.11318 0.0
C531 C 0.26593 0.35494 1.03341 0.0
H532 H 0.22633 0.33086 0.19075 0.0
H533 H 0.25472 0.36733 0.16428 0.0
S534 S 0.26306 0.30931 0.84339 0.0
N535 N 0.24334 0.29669 0.91636 0.0
N536 N 0.27492 0.33586 0.88997 0.0
C537 C 0.26296 0.33532 0.9693 0.0
C538 C 0.24592 0.314 0.98395 0.0
C539 C 0.69679 0.20664 0.04394 0.0
C540 C 0.6949 0.22761 0.98452 0.0
C541 C 0.71636 0.18719 1.03626 0.0
C542 C 0.7348 0.18757 0.96801 0.0
H543 H 0.68344 0.20565 0.09845 0.0
H544 H 0.71752 0.17221 0.08607 0.0
S545 S 0.73579 0.23634 0.78767 0.0
N546 N 0.71181 0.24643 0.85129 0.0
N547 N 0.74762 0.20964 0.83395 0.0
C548 C 0.73217 0.20785 0.90566 0.0
C549 C 0.71256 0.22786 0.91463 0.0
C550 C 0.79262 0.72435 0.95543 0.0
C551 C 0.79249 0.7016 1.00698 0.0
C552 C 0.81251 0.74295 0.9639 0.0
C553 C 0.83317 0.73993 1.02512 0.0
H554 H 0.77746 0.72758 0.90676 0.0
H555 H 0.81193 0.75961 0.92055 0.0
S556 S 0.83995 0.68545 0.18435 0.0
N557 N 0.8138 0.6782 0.12629 0.0
N558 N 0.85046 0.71311 0.14398 0.0
C559 C 0.83267 0.71764 0.07918 0.0
C560 C 0.8126 0.6986 0.06976 0.0
C561 C 0.31774 0.81263 0.93767 0.0
C562 C 0.34101 0.81103 0.98648 0.0
C563 C 0.29946 0.83278 0.95262 0.0
C564 C 0.30342 0.85212 1.01792 0.0
H565 H 0.31365 0.79819 0.88714 0.0
H566 H 0.28211 0.83327 0.91199 0.0
S567 S 0.36039 0.8554 0.16899 0.0
N568 N 0.3666 0.82988 0.10521 0.0
N569 N 0.33215 0.86725 0.13505 0.0
C570 C 0.32657 0.85052 0.0679 0.0
C571 C 0.34532 0.83014 0.05185 0.0
C572 C 0.19806 0.73585 0.58864 0.0
C573 C 0.17777 0.73094 0.52777 0.0
C574 C 0.21796 0.71731 0.6053 0.0
C575 C 0.21837 0.69282 0.56274 0.0
H576 H 0.19846 0.75413 0.6248 0.0
H577 H 0.23299 0.72208 0.65277 0.0
S578 S 0.1716 0.6708 0.39137 0.0
N579 N 0.16081 0.70008 0.42004 0.0
N580 N 0.1976 0.6653 0.45291 0.0
C581 C 0.19847 0.68773 0.501 0.0
C582 C 0.17838 0.70668 0.48328 0.0
C583 C 0.33506 0.22791 0.49904 0.0
C584 C 0.35549 0.22433 0.56079 0.0
C585 C 0.31605 0.20877 0.4843 0.0
C586 C 0.31669 0.18493 0.52971 0.0
H587 H 0.33384 0.24561 0.46076 0.0
H588 H 0.30089 0.21255 0.43608 0.0
S589 S 0.36424 0.1664 0.70417 0.0
N590 N 0.3737 0.1954 0.67217 0.0
N591 N 0.33859 0.1595 0.64301 0.0
C592 C 0.33674 0.18116 0.59225 0.0
C593 C 0.35593 0.20073 0.60798 0.0
C594 C 0.82763 0.34011 0.60857 0.0
C595 C 0.82649 0.3577 0.53769 0.0
C596 C 0.84828 0.32218 0.61797 0.0
C597 C 0.86874 0.32125 0.5573 0.0
H598 H 0.81263 0.34045 0.65806 0.0
H599 H 0.84835 0.30907 0.67358 0.0
S600 S 0.87398 0.36136 0.35606 0.0
N601 N 0.84697 0.37183 0.40284 0.0
N602 N 0.88582 0.33836 0.42109 0.0
C603 C 0.86771 0.33846 0.4856 0.0
C604 C 0.84662 0.35661 0.47569 0.0
C605 C 0.72778 0.82685 0.41656 0.0
C606 C 0.74065 0.8391 0.48742 0.0
C607 C 0.70783 0.80912 0.43124 0.0
C608 C 0.69972 0.8035 0.51717 0.0
H609 H 0.73269 0.8316 0.34935 0.0
H610 H 0.69782 0.80074 0.37493 0.0
S611 S 0.72789 0.82946 0.72492 0.0
N612 N 0.74471 0.8434 0.64651 0.0
N613 N 0.70681 0.81053 0.67393 0.0
C614 C 0.71297 0.81495 0.58851 0.0
C615 C 0.73357 0.83262 0.57365 0.0
C616 C 0.02403 0.22204 0.28487 0.0
C617 C 0.02552 0.22223 0.37836 0.0
C618 C 0.04654 0.2225 0.23077 0.0
C619 C 0.07177 0.22369 0.26743 0.0
H620 H 1.00521 0.22361 0.25311 0.0
H621 H 0.04399 0.22422 0.16012 0.0
S622 S 0.08671 0.22441 0.50781 0.0
N623 N 0.0548 0.2228 0.50364 0.0
N624 N 0.09637 0.22451 0.40436 0.0
C625 C 0.0734 0.22282 0.36057 0.0
C626 C 0.05063 0.22191 0.41513 0.0
C627 C 0.79464 1.02263 0.25545 0.0
C628 C 0.81249 1.01073 0.31548 0.0
C629 C 0.80112 0.04412 0.20156 0.0
C630 C 0.82598 0.05512 0.20373 0.0
H631 H 0.77531 1.01494 0.24841 0.0
H632 H 0.78664 0.05172 0.15615 0.0
S633 S 0.8798 0.03277 0.35267 0.0
N634 N 0.85599 1.01285 0.37543 0.0
N635 N 0.86833 0.05276 0.27647 0.0
C636 C 0.84382 0.04391 0.26558 0.0
C637 C 0.83711 1.02203 0.32052 0.0
C638 C 0.03447 0.80356 0.2418 0.0
C639 C 0.02464 0.80271 0.32837 0.0
C640 C 1.01787 0.80402 0.16594 0.0
C641 C 0.9904 0.80299 0.17125 0.0
H642 H 0.05511 0.80568 0.23254 0.0
H643 H 0.02672 0.80625 0.10203 0.0
S644 S 0.95449 0.79903 0.38164 0.0
N645 N 0.98515 0.79997 0.41354 0.0
N646 N 0.95463 0.79982 0.27279 0.0
C647 C 0.98045 0.8007 0.25718 0.0
C648 C 0.99728 0.80087 0.33457 0.0
C649 C 0.23387 0.03903 0.27812 0.0
C650 C 0.25136 0.04088 0.35057 0.0
C651 C 0.23256 1.01648 0.22265 0.0
C652 C 0.24898 0.99451 0.23544 0.0
H653 H 0.22097 0.05533 0.26397 0.0
H654 H 0.21829 1.01619 0.16992 0.0
S655 S 0.30095 0.99065 0.40673 0.0
N656 N 0.28703 1.0193 0.42593 0.0
N657 N 0.285 0.97757 0.32307 0.0
C658 C 0.26709 0.99654 0.30611 0.0
C659 C 0.26822 1.0194 0.36285 0.0
C660 C 1.00538 0.76385 0.64893 0.0
C661 C 0.02713 0.75999 0.70411 0.0
C662 C 0.98037 0.76124 0.68195 0.0
C663 C 0.97668 0.75475 0.77068 0.0
H664 H 1.00752 0.77228 0.58426 0.0
H665 H 0.96416 0.76782 0.64176 0.0
S666 S 0.02721 0.73424 0.93097 0.0
N667 N 0.04344 0.74301 0.84289 0.0
N668 N 0.99623 0.73791 0.90502 0.0
C669 C 0.99813 0.74628 0.82063 0.0
C670 C 0.02352 0.74901 0.78723 0.0
C671 C 0.28352 1.01923 0.88992 0.0
C672 C 0.28539 0.99652 0.83774 0.0
C673 C 0.29154 0.04309 0.85703 0.0
C674 C 0.30123 0.04466 0.77108 0.0
H675 H 0.27277 1.01927 0.95087 0.0
H676 H 0.28635 0.06067 0.8931 0.0
S677 S 0.31946 0.98939 0.62597 0.0
N678 N 0.30474 0.97579 0.70978 0.0
N679 N 0.3195 1.02105 0.6468 0.0
C680 C 0.3078 1.02152 0.72657 0.0
C681 C 0.29973 0.99724 0.76008 0.0
C682 C 0.02644 0.26451 0.84569 0.0
C683 C 0.02272 0.24315 0.78919 0.0
C684 C 0.05058 0.26883 0.88405 0.0
C685 C 0.07139 0.25166 0.86774 0.0
H686 H 1.01074 0.27822 0.85838 0.0
H687 H 0.053 0.28546 0.92763 0.0
S688 S 0.07108 0.19243 0.72759 0.0
N689 N 0.04128 0.20447 0.71956 0.0
N690 N 0.08693 0.21237 0.79427 0.0
C691 C 0.06783 0.22999 0.81282 0.0
C692 C 0.04335 0.2258 0.77258 0.0
C693 C 0.78742 0.02933 0.81457 0.0
C694 C 0.80183 0.04777 0.76872 0.0
C695 C 0.77549 1.00888 0.76913 0.0
C696 C 0.77748 1.00693 0.67736 0.0
H697 H 0.78717 0.02961 0.88595 0.0
H698 H 0.76659 0.99343 0.80592 0.0
S699 S 0.80916 0.05301 0.52755 0.0
N700 N 0.8148 0.0648 0.62748 0.0
N701 N 0.79167 0.02667 0.54147 0.0
C702 C 0.78956 0.02678 0.6307 0.0
C703 C 0.80206 0.04718 0.67674 0.0
C704 C 0.50075 0.73948 0.64754 0.0
C705 C 0.52469 0.7413 0.69217 0.0
C706 C 0.47701 0.73786 0.69402 0.0
C707 C 0.47583 0.73777 0.78772 0.0
H708 H 0.5002 0.74038 0.57624 0.0
H709 H 0.4593 0.73689 0.65547 0.0
S710 S 0.53341 0.74002 0.93605 0.0
N711 N 0.54573 0.74155 0.83615 0.0
N712 N 0.50173 0.73817 0.92197 0.0
C713 C 0.49982 0.73866 0.83268 0.0
C714 C 0.52391 0.74053 0.7855 0.0
C715 C 0.32287 0.53612 0.85001 0.0
C716 C 0.30921 0.51501 0.88664 0.0
C717 C 0.31275 0.55148 0.7799 0.0
C718 C 0.28814 0.54697 0.74199 0.0
H719 H 0.34195 0.54085 0.87511 0.0
H720 H 0.32452 0.567 0.75499 0.0
S721 S 0.24394 0.49422 0.81222 0.0
N722 N 0.26941 0.49061 0.87782 0.0
N723 N 0.25027 0.51919 0.74823 0.0
C724 C 0.27413 0.52597 0.77827 0.0
C725 C 0.2846 0.51018 0.84949 0.0
C726 C 0.54388 0.3124 0.85295 0.0
C727 C 0.54357 0.28924 0.90235 0.0
C728 C 0.52498 0.31802 0.78678 0.0
C729 C 0.5043 0.30098 0.76534 0.0
H730 H 0.55879 0.32659 0.86578 0.0
H731 H 0.52663 0.33631 0.75238 0.0
S732 S 0.49414 0.23731 0.87301 0.0
N733 N 0.52028 0.2487 0.92274 0.0
N734 N 0.48525 0.25951 0.80013 0.0
C735 C 0.50377 0.27766 0.81365 0.0
C736 C 0.52312 0.2718 0.88111 0.0
C737 C 0.73975 0.5463 0.82094 0.0
C738 C 0.71444 0.55047 0.85257 0.0
C739 C 0.74544 0.52707 0.75537 0.0
C740 C 0.72626 0.51081 0.71621 0.0
H741 H 0.75551 0.55753 0.84851 0.0
H742 H 0.7655 0.52472 0.73625 0.0
S743 S 0.65628 0.51527 0.76794 0.0
N744 N 0.66945 0.53742 0.8332 0.0
N745 N 0.68038 0.50192 0.71183 0.0
C746 C 0.70075 0.51546 0.74465 0.0
C747 C 0.69487 0.53496 0.81185 0.0
C748 C 0.53662 0.2455 0.27234 0.0
C749 C 0.55837 0.25757 0.30931 0.0
C750 C 0.51223 0.24888 0.31026 0.0
C751 C 0.50892 0.26494 0.38493 0.0
H752 H 0.53824 0.23517 0.21004 0.0
H753 H 0.49561 0.24032 0.27772 0.0
S754 S 0.56105 0.29984 0.50704 0.0
N755 N 0.57606 0.2843 0.4263 0.0
N756 N 0.53028 0.29206 0.49645 0.0
C757 C 0.53112 0.27567 0.42567 0.0
C758 C 0.5559 0.27158 0.38798 0.0
C759 C 0.77435 0.54052 0.20677 0.0
C760 C 0.76758 0.56257 0.25749 0.0
C761 C 0.77501 0.51577 0.24422 0.0
C762 C 0.76924 0.51251 0.33347 0.0
H763 H 0.77656 0.54216 0.1361 0.0
H764 H 0.77733 0.49887 0.20164 0.0
S765 S 0.75539 0.56443 0.49789 0.0
N766 N 0.7589 0.58001 0.40402 0.0
N767 N 0.76056 0.53332 0.47459 0.0
C768 C 0.76597 0.53466 0.38726 0.0
C769 C 0.76505 0.55987 0.34907 0.0
C770 C 0.52806 0.75298 0.24921 0.0
C771 C 0.53192 0.7764 0.2953 0.0
C772 C 0.50439 0.74774 0.20885 0.0
C773 C 0.4837 0.76581 0.21275 0.0
H774 H 0.54322 0.73818 0.24741 0.0
H775 H 0.50202 0.72889 0.17752 0.0
S776 S 0.48486 0.83122 0.31806 0.0
N777 N 0.51384 0.81855 0.33877 0.0
N778 N 0.4693 0.80906 0.25939 0.0
C779 C 0.4877 0.78994 0.2547 0.0
C780 C 0.51191 0.79522 0.29647 0.0
C781 C 0.25064 0.5475 0.24196 0.0
C782 C 0.24343 0.54973 0.33062 0.0
C783 C 0.25751 0.52322 0.20626 0.0
C784 C 0.25719 0.50066 0.25863 0.0
H785 H 0.25461 0.5648 0.20426 0.0
H786 H 0.26636 0.5229 0.14188 0.0
S787 S 0.2303 0.4958 0.48317 0.0
N788 N 0.22952 0.5273 0.46153 0.0
N789 N 0.24172 0.48129 0.39365 0.0
C790 C 0.2451 0.50226 0.34107 0.0
C791 C 0.23837 0.52699 0.37748 0.0
C792 C 0.15403 0.15733 0.53064 0.0
C793 C 0.14709 0.13438 0.48534 0.0
C794 C 0.15244 0.18112 0.48682 0.0
C795 C 0.1412 0.1824 0.40214 0.0
H796 H 0.1664 0.15626 0.58851 0.0
H797 H 0.16294 0.19738 0.51447 0.0
S798 S 0.10137 0.131 0.2975 0.0
N799 N 0.11651 0.11636 0.38026 0.0
N800 N 0.11012 0.16183 0.3022 0.0
C801 C 0.126 0.16129 0.374 0.0
C802 C 0.1288 0.13698 0.4173 0.0
C803 C 0.84925 0.21004 0.27992 0.0
C804 C 0.85111 0.20277 0.19073 0.0
C805 C 0.86732 0.22665 0.3174 0.0
C806 C 0.88779 0.23596 0.26697 0.0
H807 H 0.83591 0.20062 0.32349 0.0
H808 H 0.8671 0.22973 0.38817 0.0
S809 S 0.89435 0.23142 1.02477 0.0
N810 N 0.86916 0.21325 0.0476 0.0
N811 N 0.9046 0.24323 0.12032 0.0
C812 C 0.88695 0.23288 0.17531 0.0
C813 C 0.86814 0.21639 0.13654 0.0
C814 C 0.88715 0.93361 0.14434 0.0
C815 C 0.88384 0.93359 0.23628 0.0
C816 C 0.90771 0.91952 0.10716 0.0
C817 C 0.92425 0.90491 0.16247 0.0
H818 H 0.87161 0.9403 0.10141 0.0
H819 H 0.90673 0.91532 1.03716 0.0
S820 S 0.93412 0.91502 0.40102 0.0
N821 N 0.90647 0.93015 0.3779 0.0
N822 N 0.94518 0.90388 0.30587 0.0
C823 C 0.92652 0.91317 0.25029 0.0
C824 C 0.90555 0.92715 0.28892 0.0
C825 C 0.13367 0.92905 0.31378 0.0
C826 C 0.13923 0.9285 0.2234 0.0
C827 C 0.11657 0.9111 0.34847 0.0
C828 C 0.1047 0.89276 0.29249 0.0
H829 H 0.14611 0.93967 0.35888 0.0
H830 H 0.11641 0.90874 0.41929 0.0
S831 S 0.10195 0.8943 0.04916 0.0
N832 N 0.12372 0.91622 0.07714 0.0
N833 N 0.09076 0.88294 0.14279 0.0
C834 C 0.10449 0.89744 0.20163 0.0
C835 C 0.12207 0.91551 0.16641 0.0
C836 C 0.8913 0.87644 0.69079 0.0
C837 C 0.88621 0.86776 0.77778 0.0
C838 C 0.8738 0.89289 0.64244 0.0
C839 C 0.85016 0.90202 0.67844 0.0
H840 H 0.90902 0.87021 0.65874 0.0
H841 H 0.87868 0.89806 0.57561 0.0
S842 S 0.82821 0.88727 0.90663 0.0
N843 N 0.85596 0.87112 0.89846 0.0
N844 N 0.82372 0.90184 0.81095 0.0
C845 C 0.84523 0.894 0.76646 0.0
C846 C 0.86291 0.87705 0.81492 0.0
C847 C 0.14817 0.85173 0.80873 0.0
C848 C 0.14548 0.85309 0.71562 0.0
C849 C 0.16505 0.86824 0.85768 0.0
C850 C 0.18085 0.88657 0.81603 0.0
H851 H 0.13741 0.8373 0.84437 0.0
H852 H 0.16669 0.86566 0.92831 0.0
S853 S 0.1812 0.89884 0.57453 0.0
N854 N 0.15969 0.87555 0.58511 0.0
N855 N 0.19198 0.9054 0.67512 0.0
C856 C 0.17802 0.88848 0.72325 0.0
C857 C 0.16027 0.87219 0.67379 0.0
C858 C 0.19037 0.14016 0.88032 0.0
C859 C 0.20133 0.14496 0.79624 0.0
C860 C 0.17808 0.16008 0.93212 0.0
C861 C 0.17575 0.18605 0.90274 0.0
H862 H 0.19119 0.12065 0.90686 0.0
H863 H 0.17023 0.15496 0.99551 0.0
S864 S 0.20111 0.20942 0.68719 0.0
N865 N 0.20894 0.17817 0.68761 0.0
N866 N 0.1861 0.21503 0.78115 0.0
C867 C 0.18674 0.19102 0.81848 0.0
C868 C 0.19937 0.17081 0.7666 0.0
C869 C 0.90069 0.16026 0.81601 0.0
C870 C 0.87493 0.15804 0.78533 0.0
C871 C 0.92055 0.17063 0.76271 0.0
C872 C 0.91594 0.17974 0.67562 0.0
H873 H 0.90577 0.15339 0.88131 0.0
H874 H 0.93985 0.17163 0.79088 0.0
S875 S 0.85179 0.17941 0.56315 0.0
N876 N 0.84602 0.16677 0.66072 0.0
N877 N 0.88299 0.18601 0.56275 0.0
C878 C 0.8902 0.1781 0.64469 0.0
C879 C 0.86996 0.16736 0.69859 0.0
C880 C 0.61257 0.62953 0.77347 0.0
C881 C 0.62118 0.63118 0.86145 0.0
C882 C 0.60105 0.65135 0.7342 0.0
C883 C 0.59671 0.67409 0.78468 0.0
H884 H 0.62011 0.61423 0.73085 0.0
H885 H 0.59986 0.65174 0.66298 0.0
S886 S 0.59733 0.67874 1.02792 0.0
N887 N 0.6117 0.65055 1.00507 0.0
N888 N 0.58847 0.69112 0.9319 0.0
C889 C 0.59677 0.67184 0.87665 0.0
C890 C 0.60907 0.6499 0.91592 0.0
C891 C 0.40777 0.62264 0.63612 0.0
C892 C 0.39301 0.60641 0.68974 0.0
C893 C 0.42415 0.6408 0.67613 0.0
C894 C 0.42506 0.64255 0.76867 0.0
H895 H 0.40219 0.62573 0.56798 0.0
H896 H 0.43037 0.65713 0.63716 0.0
S897 S 0.40595 0.59127 0.92311 0.0
N898 N 0.39252 0.583 0.82781 0.0
N899 N 0.42293 0.61764 0.90374 0.0
C900 C 0.41886 0.62012 0.81564 0.0
C901 C 0.40249 0.60151 0.77491 0.0
C902 C 0.42659 0.43045 0.81708 0.0
C903 C 0.41738 0.43043 0.90404 0.0
C904 C 0.43426 0.40701 0.77719 0.0
C905 C 0.43461 0.38382 0.82604 0.0
H906 H 0.42243 0.44698 0.77504 0.0
H907 H 0.43617 0.40661 0.70625 0.0
S908 S 0.43126 0.379 0.06887 0.0
N909 N 0.42206 0.40921 0.04664 0.0
N910 N 0.43848 0.36545 0.97292 0.0
C911 C 0.43377 0.38583 0.91818 0.0
C912 C 0.42519 0.40951 0.9579 0.0
C913 C 0.70039 0.39729 0.92235 0.0
C914 C 0.69635 0.41617 0.85713 0.0
C915 C 0.67936 0.38512 0.96068 0.0
C916 C 0.65394 0.39151 0.93403 0.0
H917 H 0.7197 0.38988 0.9367 0.0
H918 H 0.68303 0.36865 1.00345 0.0
S919 S 0.63326 0.44499 0.78713 0.0
N920 N 0.66525 0.44533 0.78513 0.0
N921 N 0.62563 0.42113 0.85412 0.0
C922 C 0.64966 0.41271 0.87865 0.0
C923 C 0.671 0.42547 0.84095 0.0
C924 C 0.35961 0.37226 0.31746 0.0
C925 C 0.36686 0.39468 0.26962 0.0
C926 C 0.37691 0.35881 0.37522 0.0
C927 C 0.40264 0.3669 0.38908 0.0
H928 H 0.34014 0.3649 0.31069 0.0
H929 H 0.36993 0.34193 0.40966 0.0
S930 S 0.43197 0.42434 0.28054 0.0
N931 N 0.40205 0.4241 0.24127 0.0
N932 N 0.4344 0.39925 0.3477 0.0
C933 C 0.41025 0.38921 0.34108 0.0
C934 C 0.39255 0.40289 0.28227 0.0
C935 C 0.69697 0.37444 0.31125 0.0
C936 C 0.69105 0.38863 0.38998 0.0
C937 C 0.67872 0.35878 0.26531 0.0
C938 C 0.6531 0.35611 0.29453 0.0
H939 H 0.71613 0.3755 0.28324 0.0
H940 H 0.68474 0.34907 0.20506 0.0
S941 S 0.62702 0.38766 0.49886 0.0
N942 N 0.65723 0.39778 0.49583 0.0
N943 N 0.62307 0.36874 0.41121 0.0
C944 C 0.64688 0.36978 0.37412 0.0
C945 C 0.66564 0.38579 0.4211 0.0
C946 C 0.6544 0.68329 0.20335 0.0
C947 C 0.65999 0.65854 0.23879 0.0
C948 C 0.63906 0.7021 0.24907 0.0
C949 C 0.62845 0.69757 0.33373 0.0
H950 H 0.66165 0.68817 0.13886 0.0
H951 H 0.63571 0.72066 0.21718 0.0
S952 S 0.6377 0.63618 0.45859 0.0
N953 N 0.65355 0.6307 0.36595 0.0
N954 N 0.62542 0.66598 0.451 0.0
C955 C 0.63393 0.6729 0.37016 0.0
C956 C 0.64942 0.65357 0.32324 0.0
C957 C 0.33992 0.64724 0.22104 0.0
C958 C 0.3406 0.64742 0.31449 0.0
C959 C 0.35678 0.66264 0.17008 0.0
C960 C 0.37579 0.67845 0.20987 0.0
H961 H 0.32651 0.63462 0.1866 0.0
H962 H 0.35576 0.66109 0.09889 0.0
S963 S 0.38554 0.68673 0.45192 0.0
N964 N 0.36146 0.66596 0.44392 0.0
N965 N 0.39344 0.69389 0.3497 0.0
C966 C 0.37626 0.67925 0.30326 0.0
C967 C 0.35868 0.6641 0.35497 0.0
loop_
_geom_bond_atom_site_label_1
_geom_bond_atom_site_label_2
_geom_bond_distance
_geom_bond_site_symmetry_2
_ccdc_geom_bond_type
C0 C1 1.351 . S
C0 N3 1.368 . S
C0 H5 0.931 . S
C1 C0 1.351 . S
C1 N2 1.373 . S
C1 H29 0.930 . S
N2 C1 1.373 . S
N2 C4 1.340 . S
N3 C0 1.368 . S
N3 C4 1.321 . S
N3 Co6 2.135 . S
C4 N2 1.340 . S
C4 N3 1.321 . S
C4 H28 0.930 . S
H5 C0 0.931 . S
Co6 N3 2.135 . S
Co6 N9 2.121 1_554 S
Co6 O14 2.055 . S
Co6 O17 2.039 1_554 S
Co6 N20 2.140 . S
C7 O8 1.227 . S
C7 O17 1.265 . S
O8 C7 1.227 . S
N9 Co6 2.121 1_556 S
N9 C11 1.375 . S
N9 C12 1.313 . S
C10 C11 1.338 . S
C10 N13 1.377 . S
C10 H30 0.930 . S
C11 N9 1.375 . S
C11 C10 1.338 . S
C11 H15 0.931 . S
C12 N9 1.313 . S
C12 N13 1.344 . S
C12 H16 0.930 . S
N13 C10 1.377 . S
N13 C12 1.344 . S
O14 Co6 2.055 . S
O14 C18 1.253 . S
H15 C11 0.931 . S
H16 C12 0.930 . S
O17 Co6 2.039 1_556 S
O17 C7 1.265 . S
C18 O14 1.253 . S
C18 O19 1.227 . S
O19 C18 1.227 . S
N20 Co6 2.140 . S
N20 C23 1.346 . S
N20 C24 1.345 1_554 S
C21 C22 1.386 1_556 S
C21 C25 1.392 . S
C22 C21 1.386 1_554 S
C22 C23 1.369 . S
C22 H31 0.929 . S
C23 N20 1.346 . S
C23 C22 1.369 . S
C23 H26 0.928 . S
C24 N20 1.345 1_556 S
C24 C25 1.371 . S
C24 H27 0.931 . S
C25 C21 1.392 . S
C25 C24 1.371 . S
C25 H32 0.930 . S
H26 C23 0.928 . S
H27 C24 0.931 . S
H28 C4 0.930 . S
H29 C1 0.930 . S
H30 C10 0.930 . S
H31 C22 0.929 . S
H32 C25 0.930 . S
C33 C34 1.351 . S
C33 N36 1.368 . S
C33 H38 0.931 . S
C34 C33 1.351 . S
C34 N35 1.373 . S
C34 H62 0.930 . S
N35 C34 1.373 . S
N35 C37 1.340 . S
N36 C33 1.368 . S
N36 C37 1.321 . S
N36 Co39 2.135 . S
C37 N35 1.340 . S
C37 N36 1.321 . S
C37 H61 0.930 . S
H38 C33 0.931 . S
Co39 N36 2.135 . S
Co39 N42 2.121 1_554 S
Co39 O47 2.055 . S
Co39 O50 2.039 1_554 S
Co39 N53 2.140 . S
C40 O41 1.227 . S
C40 O50 1.265 . S
O41 C40 1.227 . S
N42 Co39 2.121 1_556 S
N42 C44 1.375 . S
N42 C45 1.313 . S
C43 C44 1.338 . S
C43 N46 1.377 . S
C43 H63 0.930 . S
C44 N42 1.375 . S
C44 C43 1.338 . S
C44 H48 0.931 . S
C45 N42 1.313 . S
C45 N46 1.344 . S
C45 H49 0.930 . S
N46 C43 1.377 . S
N46 C45 1.344 . S
O47 Co39 2.055 . S
O47 C51 1.253 . S
H48 C44 0.931 . S
H49 C45 0.930 . S
O50 Co39 2.039 1_556 S
O50 C40 1.265 . S
C51 O47 1.253 . S
C51 O52 1.227 . S
O52 C51 1.227 . S
N53 Co39 2.140 . S
N53 C56 1.346 . S
N53 C57 1.345 1_554 S
C54 C55 1.386 1_556 S
C54 C58 1.392 . S
C55 C54 1.386 1_554 S
C55 C56 1.369 . S
C55 H64 0.929 . S
C56 N53 1.346 . S
C56 C55 1.369 . S
C56 H59 0.928 . S
C57 N53 1.345 1_556 S
C57 C58 1.371 . S
C57 H60 0.931 . S
C58 C54 1.392 . S
C58 C57 1.371 . S
C58 H65 0.930 . S
H59 C56 0.928 . S
H60 C57 0.931 . S
H61 C37 0.930 . S
H62 C34 0.930 . S
H63 C43 0.930 . S
H64 C55 0.929 . S
H65 C58 0.930 . S
C66 C67 1.351 . S
C66 N69 1.368 . S
C66 H71 0.931 . S
C67 C66 1.351 . S
C67 N68 1.373 . S
C67 H95 0.930 . S
N68 C67 1.373 . S
N68 C70 1.340 . S
N69 C66 1.368 . S
N69 C70 1.321 . S
N69 Co72 2.135 . S
C70 N68 1.340 . S
C70 N69 1.321 . S
C70 H94 0.930 . S
H71 C66 0.931 . S
Co72 N69 2.135 . S
Co72 N75 2.121 1_554 S
Co72 O80 2.055 . S
Co72 O83 2.039 1_554 S
Co72 N86 2.140 . S
C73 O74 1.227 . S
C73 O83 1.265 . S
O74 C73 1.227 . S
N75 Co72 2.121 1_556 S
N75 C77 1.375 . S
N75 C78 1.313 . S
C76 C77 1.338 . S
C76 N79 1.377 . S
C76 H96 0.930 . S
C77 N75 1.375 . S
C77 C76 1.338 . S
C77 H81 0.931 . S
C78 N75 1.313 . S
C78 N79 1.344 . S
C78 H82 0.930 . S
N79 C76 1.377 . S
N79 C78 1.344 . S
O80 Co72 2.055 . S
O80 C84 1.253 . S
H81 C77 0.931 . S
H82 C78 0.930 . S
O83 Co72 2.039 1_556 S
O83 C73 1.265 . S
C84 O80 1.253 . S
C84 O85 1.227 . S
O85 C84 1.227 . S
N86 Co72 2.140 . S
N86 C89 1.346 . S
N86 C90 1.345 1_554 S
C87 C88 1.386 1_556 S
C87 C91 1.392 . S
C88 C87 1.386 1_554 S
C88 C89 1.369 . S
C88 H97 0.929 . S
C89 N86 1.346 . S
C89 C88 1.369 . S
C89 H92 0.928 . S
C90 N86 1.345 1_556 S
C90 C91 1.371 . S
C90 H93 0.931 . S
C91 C87 1.392 . S
C91 C90 1.371 . S
C91 H98 0.930 . S
H92 C89 0.928 . S
H93 C90 0.931 . S
H94 C70 0.930 . S
H95 C67 0.930 . S
H96 C76 0.930 . S
H97 C88 0.929 . S
H98 C91 0.930 . S
C99 C100 1.351 . S
C99 N102 1.368 . S
C99 H104 0.931 . S
C100 C99 1.351 . S
C100 N101 1.373 . S
C100 H128 0.930 . S
N101 C100 1.373 . S
N101 C103 1.340 . S
N102 C99 1.368 . S
N102 C103 1.321 . S
N102 Co105 2.135 . S
C103 N101 1.340 . S
C103 N102 1.321 . S
C103 H127 0.930 . S
H104 C99 0.931 . S
Co105 N102 2.135 . S
Co105 N108 2.121 1_554 S
Co105 O113 2.055 . S
Co105 O116 2.039 1_554 S
Co105 N119 2.140 . S
C106 O107 1.227 . S
C106 O116 1.265 . S
O107 C106 1.227 . S
N108 Co105 2.121 1_556 S
N108 C110 1.375 . S
N108 C111 1.313 . S
C109 C110 1.338 . S
C109 N112 1.377 . S
C109 H129 0.930 . S
C110 N108 1.375 . S
C110 C109 1.338 . S
C110 H114 0.931 . S
C111 N108 1.313 . S
C111 N112 1.344 . S
C111 H115 0.930 . S
N112 C109 1.377 . S
N112 C111 1.344 . S
O113 Co105 2.055 . S
O113 C117 1.253 . S
H114 C110 0.931 . S
H115 C111 0.930 . S
O116 Co105 2.039 1_556 S
O116 C106 1.265 . S
C117 O113 1.253 . S
C117 O118 1.227 . S
O118 C117 1.227 . S
N119 Co105 2.140 . S
N119 C122 1.346 . S
N119 C123 1.345 1_554 S
C120 C121 1.386 1_556 S
C120 C124 1.392 . S
C121 C120 1.386 1_554 S
C121 C122 1.369 . S
C121 H130 0.929 . S
C122 N119 1.346 . S
C122 C121 1.369 . S
C122 H125 0.928 . S
C123 N119 1.345 1_556 S
C123 C124 1.371 . S
C123 H126 0.931 . S
C124 C120 1.392 . S
C124 C123 1.371 . S
C124 H131 0.930 . S
H125 C122 0.928 . S
H126 C123 0.931 . S
H127 C103 0.930 . S
H128 C100 0.930 . S
H129 C109 0.930 . S
H130 C121 0.929 . S
H131 C124 0.930 . S
C132 C133 1.351 . S
C132 N135 1.368 . S
C132 H137 0.931 . S
C133 C132 1.351 . S
C133 N134 1.373 . S
C133 H161 0.930 . S
N134 C133 1.373 . S
N134 C136 1.340 . S
N135 C132 1.368 . S
N135 C136 1.321 . S
N135 Co138 2.135 . S
C136 N134 1.340 . S
C136 N135 1.321 . S
C136 H160 0.930 . S
H137 C132 0.931 . S
Co138 N135 2.135 . S
Co138 N141 2.121 . S
Co138 O146 2.055 . S
Co138 O149 2.039 . S
Co138 N152 2.140 . S
C139 O140 1.227 . S
C139 O149 1.265 . S
O140 C139 1.227 . S
N141 Co138 2.121 . S
N141 C143 1.375 . S
N141 C144 1.313 . S
C142 C143 1.338 . S
C142 N145 1.377 . S
C142 H162 0.930 . S
C143 N141 1.375 . S
C143 C142 1.338 . S
C143 H147 0.931 . S
C144 N141 1.313 . S
C144 N145 1.344 . S
C144 H148 0.930 . S
N145 C142 1.377 . S
N145 C144 1.344 . S
O146 Co138 2.055 . S
O146 C150 1.253 . S
H147 C143 0.931 . S
H148 C144 0.930 . S
O149 Co138 2.039 . S
O149 C139 1.265 . S
C150 O146 1.253 . S
C150 O151 1.227 . S
O151 C150 1.227 . S
N152 Co138 2.140 . S
N152 C155 1.346 . S
N152 C156 1.345 . S
C153 C154 1.387 . S
C153 C157 1.391 . S
C154 C153 1.387 . S
C154 C155 1.369 . S
C154 H163 0.929 . S
C155 N152 1.346 . S
C155 C154 1.369 . S
C155 H158 0.928 . S
C156 N152 1.345 . S
C156 C157 1.371 . S
C156 H159 0.931 . S
C157 C153 1.391 . S
C157 C156 1.371 . S
C157 H164 0.930 . S
H158 C155 0.928 . S
H159 C156 0.931 . S
H160 C136 0.930 . S
H161 C133 0.930 . S
H162 C142 0.930 . S
H163 C154 0.929 . S
H164 C157 0.930 . S
C165 C166 1.351 . S
C165 N168 1.368 . S
C165 H170 0.931 . S
C166 C165 1.351 . S
C166 N167 1.373 . S
C166 H194 0.930 . S
N167 C166 1.373 . S
N167 C169 1.340 . S
N168 C165 1.368 . S
N168 C169 1.321 . S
N168 Co171 2.135 . S
C169 N167 1.340 . S
C169 N168 1.321 . S
C169 H193 0.930 . S
H170 C165 0.931 . S
Co171 N168 2.135 . S
Co171 N174 2.121 . S
Co171 O179 2.055 . S
Co171 O182 2.039 . S
Co171 N185 2.140 . S
C172 O173 1.227 . S
C172 O182 1.265 . S
O173 C172 1.227 . S
N174 Co171 2.121 . S
N174 C176 1.375 . S
N174 C177 1.313 . S
C175 C176 1.338 . S
C175 N178 1.377 . S
C175 H195 0.930 . S
C176 N174 1.375 . S
C176 C175 1.338 . S
C176 H180 0.931 . S
C177 N174 1.313 . S
C177 N178 1.344 . S
C177 H181 0.930 . S
N178 C175 1.377 . S
N178 C177 1.344 . S
O179 Co171 2.055 . S
O179 C183 1.253 . S
H180 C176 0.931 . S
H181 C177 0.930 . S
O182 Co171 2.039 . S
O182 C172 1.265 . S
C183 O179 1.253 . S
C183 O184 1.227 . S
O184 C183 1.227 . S
N185 Co171 2.140 . S
N185 C188 1.346 . S
N185 C189 1.345 . S
C186 C187 1.387 . S
C186 C190 1.391 . S
C187 C186 1.387 . S
C187 C188 1.369 . S
C187 H196 0.929 . S
C188 N185 1.346 . S
C188 C187 1.369 . S
C188 H191 0.928 . S
C189 N185 1.345 . S
C189 C190 1.371 . S
C189 H192 0.931 . S
C190 C186 1.391 . S
C190 C189 1.371 . S
C190 H197 0.930 . S
H191 C188 0.928 . S
H192 C189 0.931 . S
H193 C169 0.930 . S
H194 C166 0.930 . S
H195 C175 0.930 . S
H196 C187 0.929 . S
H197 C190 0.930 . S
C198 C199 1.351 . S
C198 N201 1.368 . S
C198 H203 0.931 . S
C199 C198 1.351 . S
C199 N200 1.373 . S
C199 H227 0.930 . S
N200 C199 1.373 . S
N200 C202 1.340 . S
N201 C198 1.368 . S
N201 C202 1.321 . S
N201 Co204 2.135 . S
C202 N200 1.340 . S
C202 N201 1.321 . S
C202 H226 0.930 . S
H203 C198 0.931 . S
Co204 N201 2.135 . S
Co204 N207 2.121 . S
Co204 O212 2.055 . S
Co204 O215 2.039 . S
Co204 N218 2.140 . S
C205 O206 1.227 . S
C205 O215 1.265 . S
O206 C205 1.227 . S
N207 Co204 2.121 . S
N207 C209 1.375 . S
N207 C210 1.313 . S
C208 C209 1.338 . S
C208 N211 1.377 . S
C208 H228 0.930 . S
C209 N207 1.375 . S
C209 C208 1.338 . S
C209 H213 0.931 . S
C210 N207 1.313 . S
C210 N211 1.344 . S
C210 H214 0.930 . S
N211 C208 1.377 . S
N211 C210 1.344 . S
O212 Co204 2.055 . S
O212 C216 1.253 . S
H213 C209 0.931 . S
H214 C210 0.930 . S
O215 Co204 2.039 . S
O215 C205 1.265 . S
C216 O212 1.253 . S
C216 O217 1.227 . S
O217 C216 1.227 . S
N218 Co204 2.140 . S
N218 C221 1.346 . S
N218 C222 1.345 . S
C219 C220 1.387 . S
C219 C223 1.391 . S
C220 C219 1.387 . S
C220 C221 1.369 . S
C220 H229 0.929 . S
C221 N218 1.346 . S
C221 C220 1.369 . S
C221 H224 0.928 . S
C222 N218 1.345 . S
C222 C223 1.371 . S
C222 H225 0.931 . S
C223 C219 1.391 . S
C223 C222 1.371 . S
C223 H230 0.930 . S
H224 C221 0.928 . S
H225 C222 0.931 . S
H226 C202 0.930 . S
H227 C199 0.930 . S
H228 C208 0.930 . S
H229 C220 0.929 . S
H230 C223 0.930 . S
C231 C232 1.351 . S
C231 N234 1.368 . S
C231 H236 0.931 . S
C232 C231 1.351 . S
C232 N233 1.373 . S
C232 H260 0.930 . S
N233 C232 1.373 . S
N233 C235 1.340 . S
N234 C231 1.368 . S
N234 C235 1.321 . S
N234 Co237 2.135 . S
C235 N233 1.340 . S
C235 N234 1.321 . S
C235 H259 0.930 . S
H236 C231 0.931 . S
Co237 N234 2.135 . S
Co237 N240 2.121 . S
Co237 O245 2.055 . S
Co237 O248 2.039 . S
Co237 N251 2.140 . S
C238 O239 1.227 . S
C238 O248 1.265 . S
O239 C238 1.227 . S
N240 Co237 2.121 . S
N240 C242 1.375 . S
N240 C243 1.313 . S
C241 C242 1.338 . S
C241 N244 1.377 . S
C241 H261 0.930 . S
C242 N240 1.375 . S
C242 C241 1.338 . S
C242 H246 0.931 . S
C243 N240 1.313 . S
C243 N244 1.344 . S
C243 H247 0.930 . S
N244 C241 1.377 . S
N244 C243 1.344 . S
O245 Co237 2.055 . S
O245 C249 1.253 . S
H246 C242 0.931 . S
H247 C243 0.930 . S
O248 Co237 2.039 . S
O248 C238 1.265 . S
C249 O245 1.253 . S
C249 O250 1.227 . S
O250 C249 1.227 . S
N251 Co237 2.140 . S
N251 C254 1.346 . S
N251 C255 1.345 . S
C252 C253 1.387 . S
C252 C256 1.391 . S
C253 C252 1.387 . S
C253 C254 1.369 . S
C253 H262 0.929 . S
C254 N251 1.346 . S
C254 C253 1.369 . S
C254 H257 0.928 . S
C255 N251 1.345 . S
C255 C256 1.371 . S
C255 H258 0.931 . S
C256 C252 1.391 . S
C256 C255 1.371 . S
C256 H263 0.930 . S
H257 C254 0.928 . S
H258 C255 0.931 . S
H259 C235 0.930 . S
H260 C232 0.930 . S
H261 C241 0.930 . S
H262 C253 0.929 . S
H263 C256 0.930 . S
C264 C265 1.351 . S
C264 N267 1.368 . S
C264 H269 0.931 . S
C265 C264 1.351 . S
C265 N266 1.373 . S
C265 H293 0.930 . S
N266 C265 1.373 . S
N266 C268 1.340 . S
N267 C264 1.368 . S
N267 C268 1.321 . S
N267 Co270 2.135 . S
C268 N266 1.340 . S
C268 N267 1.321 . S
C268 H292 0.930 . S
H269 C264 0.931 . S
Co270 N267 2.135 . S
Co270 N273 2.121 . S
Co270 O278 2.055 . S
Co270 O281 2.039 . S
Co270 N284 2.140 . S
C271 O272 1.227 . S
C271 O281 1.265 . S
O272 C271 1.227 . S
N273 Co270 2.121 . S
N273 C275 1.375 . S
N273 C276 1.313 . S
C274 C275 1.338 . S
C274 N277 1.377 . S
C274 H294 0.930 . S
C275 N273 1.375 . S
C275 C274 1.338 . S
C275 H279 0.931 . S
C276 N273 1.313 . S
C276 N277 1.344 . S
C276 H280 0.930 . S
N277 C274 1.377 . S
N277 C276 1.344 . S
O278 Co270 2.055 . S
O278 C282 1.253 . S
H279 C275 0.931 . S
H280 C276 0.930 . S
O281 Co270 2.039 . S
O281 C271 1.265 . S
C282 O278 1.253 . S
C282 O283 1.227 . S
O283 C282 1.227 . S
N284 Co270 2.140 . S
N284 C287 1.346 . S
N284 C288 1.345 . S
C285 C286 1.387 . S
C285 C289 1.391 . S
C286 C285 1.387 . S
C286 C287 1.369 . S
C286 H295 0.929 . S
C287 N284 1.346 . S
C287 C286 1.369 . S
C287 H290 0.928 . S
C288 N284 1.345 . S
C288 C289 1.371 . S
C288 H291 0.931 . S
C289 C285 1.391 . S
C289 C288 1.371 . S
C289 H296 0.930 . S
H290 C287 0.928 . S
H291 C288 0.931 . S
H292 C268 0.930 . S
H293 C265 0.930 . S
H294 C274 0.930 . S
H295 C286 0.929 . S
H296 C289 0.930 . S
C297 C298 1.351 . S
C297 N300 1.368 . S
C297 H302 0.931 . S
C298 C297 1.351 . S
C298 N299 1.373 . S
C298 H326 0.930 . S
N299 C298 1.373 . S
N299 C301 1.340 . S
N300 C297 1.368 . S
N300 C301 1.321 . S
N300 Co303 2.135 . S
C301 N299 1.340 . S
C301 N300 1.321 . S
C301 H325 0.930 . S
H302 C297 0.931 . S
Co303 N300 2.135 . S
Co303 N306 2.121 . S
Co303 O311 2.055 . S
Co303 O314 2.039 . S
Co303 N317 2.140 . S
C304 O305 1.227 . S
C304 O314 1.265 . S
O305 C304 1.227 . S
N306 Co303 2.121 . S
N306 C308 1.375 . S
N306 C309 1.313 . S
C307 C308 1.338 . S
C307 N310 1.377 . S
C307 H327 0.930 . S
C308 N306 1.375 . S
C308 C307 1.338 . S
C308 H312 0.931 . S
C309 N306 1.313 . S
C309 N310 1.344 . S
C309 H313 0.930 . S
N310 C307 1.377 . S
N310 C309 1.344 . S
O311 Co303 2.055 . S
O311 C315 1.253 . S
H312 C308 0.931 . S
H313 C309 0.930 . S
O314 Co303 2.039 . S
O314 C304 1.265 . S
C315 O311 1.253 . S
C315 O316 1.227 . S
O316 C315 1.227 . S
N317 Co303 2.140 . S
N317 C320 1.346 . S
N317 C321 1.345 . S
C318 C319 1.387 . S
C318 C322 1.391 . S
C319 C318 1.387 . S
C319 C320 1.369 . S
C319 H328 0.929 . S
C320 N317 1.346 . S
C320 C319 1.369 . S
C320 H323 0.928 . S
C321 N317 1.345 . S
C321 C322 1.371 . S
C321 H324 0.931 . S
C322 C318 1.391 . S
C322 C321 1.371 . S
C322 H329 0.930 . S
H323 C320 0.928 . S
H324 C321 0.931 . S
H325 C301 0.930 . S
H326 C298 0.930 . S
H327 C307 0.930 . S
H328 C319 0.929 . S
H329 C322 0.930 . S
C330 C331 1.351 . S
C330 N333 1.368 . S
C330 H335 0.931 . S
C331 C330 1.351 . S
C331 N332 1.373 . S
C331 H359 0.930 . S
N332 C331 1.373 . S
N332 C334 1.340 . S
N333 C330 1.368 . S
N333 C334 1.321 . S
N333 Co336 2.135 . S
C334 N332 1.340 . S
C334 N333 1.321 . S
C334 H358 0.930 . S
H335 C330 0.931 . S
Co336 N333 2.135 . S
Co336 N339 2.121 . S
Co336 O344 2.055 . S
Co336 O347 2.039 . S
Co336 N350 2.140 . S
C337 O338 1.227 . S
C337 O347 1.265 . S
O338 C337 1.227 . S
N339 Co336 2.121 . S
N339 C341 1.375 . S
N339 C342 1.313 . S
C340 C341 1.338 . S
C340 N343 1.377 . S
C340 H360 0.930 . S
C341 N339 1.375 . S
C341 C340 1.338 . S
C341 H345 0.931 . S
C342 N339 1.313 . S
C342 N343 1.344 . S
C342 H346 0.930 . S
N343 C340 1.377 . S
N343 C342 1.344 . S
O344 Co336 2.055 . S
O344 C348 1.253 . S
H345 C341 0.931 . S
H346 C342 0.930 . S
O347 Co336 2.039 . S
O347 C337 1.265 . S
C348 O344 1.253 . S
C348 O349 1.227 . S
O349 C348 1.227 . S
N350 Co336 2.140 . S
N350 C353 1.346 . S
N350 C354 1.345 . S
C351 C352 1.387 . S
C351 C355 1.391 . S
C352 C351 1.387 . S
C352 C353 1.369 . S
C352 H361 0.929 . S
C353 N350 1.346 . S
C353 C352 1.369 . S
C353 H356 0.928 . S
C354 N350 1.345 . S
C354 C355 1.371 . S
C354 H357 0.931 . S
C355 C351 1.391 . S
C355 C354 1.371 . S
C355 H362 0.930 . S
H356 C353 0.928 . S
H357 C354 0.931 . S
H358 C334 0.930 . S
H359 C331 0.930 . S
H360 C340 0.930 . S
H361 C352 0.929 . S
H362 C355 0.930 . S
C363 C364 1.351 . S
C363 N366 1.368 . S
C363 H368 0.931 . S
C364 C363 1.351 . S
C364 N365 1.373 . S
C364 H392 0.930 . S
N365 C364 1.373 . S
N365 C367 1.340 . S
N366 C363 1.368 . S
N366 C367 1.321 . S
N366 Co369 2.135 . S
C367 N365 1.340 . S
C367 N366 1.321 . S
C367 H391 0.930 . S
H368 C363 0.931 . S
Co369 N366 2.135 . S
Co369 N372 2.121 . S
Co369 O377 2.055 . S
Co369 O380 2.039 . S
Co369 N383 2.140 . S
C370 O371 1.227 . S
C370 O380 1.265 . S
O371 C370 1.227 . S
N372 Co369 2.121 . S
N372 C374 1.375 . S
N372 C375 1.313 . S
C373 C374 1.338 . S
C373 N376 1.377 . S
C373 H393 0.930 . S
C374 N372 1.375 . S
C374 C373 1.338 . S
C374 H378 0.931 . S
C375 N372 1.313 . S
C375 N376 1.344 . S
C375 H379 0.930 . S
N376 C373 1.377 . S
N376 C375 1.344 . S
O377 Co369 2.055 . S
O377 C381 1.253 . S
H378 C374 0.931 . S
H379 C375 0.930 . S
O380 Co369 2.039 . S
O380 C370 1.265 . S
C381 O377 1.253 . S
C381 O382 1.227 . S
O382 C381 1.227 . S
N383 Co369 2.140 . S
N383 C386 1.346 . S
N383 C387 1.345 . S
C384 C385 1.387 . S
C384 C388 1.391 . S
C385 C384 1.387 . S
C385 C386 1.369 . S
C385 H394 0.929 . S
C386 N383 1.346 . S
C386 C385 1.369 . S
C386 H389 0.928 . S
C387 N383 1.345 . S
C387 C388 1.371 . S
C387 H390 0.931 . S
C388 C384 1.391 . S
C388 C387 1.371 . S
C388 H395 0.930 . S
H389 C386 0.928 . S
H390 C387 0.931 . S
H391 C367 0.930 . S
H392 C364 0.930 . S
H393 C373 0.930 . S
H394 C385 0.929 . S
H395 C388 0.930 . S
C396 C397 1.351 . S
C396 N399 1.368 . S
C396 H401 0.931 . S
C397 C396 1.351 . S
C397 N398 1.373 . S
C397 H425 0.930 . S
N398 C397 1.373 . S
N398 C400 1.340 . S
N399 C396 1.368 . S
N399 C400 1.321 . S
N399 Co402 2.135 . S
C400 N398 1.340 . S
C400 N399 1.321 . S
C400 H424 0.930 . S
H401 C396 0.931 . S
Co402 N399 2.135 . S
Co402 N405 2.121 1_556 S
Co402 O410 2.055 . S
Co402 O413 2.039 1_556 S
Co402 N416 2.140 . S
C403 O404 1.227 . S
C403 O413 1.265 . S
O404 C403 1.227 . S
N405 Co402 2.121 1_554 S
N405 C407 1.375 . S
N405 C408 1.313 . S
C406 C407 1.338 . S
C406 N409 1.377 . S
C406 H426 0.930 . S
C407 N405 1.375 . S
C407 C406 1.338 . S
C407 H411 0.931 . S
C408 N405 1.313 . S
C408 N409 1.344 . S
C408 H412 0.930 . S
N409 C406 1.377 . S
N409 C408 1.344 . S
O410 Co402 2.055 . S
O410 C414 1.253 . S
H411 C407 0.931 . S
H412 C408 0.930 . S
O413 Co402 2.039 1_554 S
O413 C403 1.265 . S
C414 O410 1.253 . S
C414 O415 1.227 . S
O415 C414 1.227 . S
N416 Co402 2.140 . S
N416 C419 1.346 . S
N416 C420 1.345 1_556 S
C417 C418 1.387 1_554 S
C417 C421 1.391 . S
C418 C417 1.387 1_556 S
C418 C419 1.369 . S
C418 H427 0.929 . S
C419 N416 1.346 . S
C419 C418 1.369 . S
C419 H422 0.928 . S
C420 N416 1.345 1_554 S
C420 C421 1.371 . S
C420 H423 0.931 . S
C421 C417 1.391 . S
C421 C420 1.371 . S
C421 H428 0.930 . S
H422 C419 0.928 . S
H423 C420 0.931 . S
H424 C400 0.930 . S
H425 C397 0.930 . S
H426 C406 0.930 . S
H427 C418 0.929 . S
H428 C421 0.930 . S
C429 C430 1.351 . S
C429 N432 1.368 . S
C429 H434 0.931 . S
C430 C429 1.351 . S
C430 N431 1.373 . S
C430 H458 0.930 . S
N431 C430 1.373 . S
N431 C433 1.340 . S
N432 C429 1.368 . S
N432 C433 1.321 . S
N432 Co435 2.135 . S
C433 N431 1.340 . S
C433 N432 1.321 . S
C433 H457 0.930 . S
H434 C429 0.931 . S
Co435 N432 2.135 . S
Co435 N438 2.121 1_556 S
Co435 O443 2.055 . S
Co435 O446 2.039 1_556 S
Co435 N449 2.140 . S
C436 O437 1.227 . S
C436 O446 1.265 . S
O437 C436 1.227 . S
N438 Co435 2.121 1_554 S
N438 C440 1.375 . S
N438 C441 1.313 . S
C439 C440 1.338 . S
C439 N442 1.377 . S
C439 H459 0.930 . S
C440 N438 1.375 . S
C440 C439 1.338 . S
C440 H444 0.931 . S
C441 N438 1.313 . S
C441 N442 1.344 . S
C441 H445 0.930 . S
N442 C439 1.377 . S
N442 C441 1.344 . S
O443 Co435 2.055 . S
O443 C447 1.253 . S
H444 C440 0.931 . S
H445 C441 0.930 . S
O446 Co435 2.039 1_554 S
O446 C436 1.265 . S
C447 O443 1.253 . S
C447 O448 1.227 . S
O448 C447 1.227 . S
N449 Co435 2.140 . S
N449 C452 1.346 . S
N449 C453 1.345 1_556 S
C450 C451 1.387 1_554 S
C450 C454 1.391 . S
C451 C450 1.387 1_556 S
C451 C452 1.369 . S
C451 H460 0.929 . S
C452 N449 1.346 . S
C452 C451 1.369 . S
C452 H455 0.928 . S
C453 N449 1.345 1_554 S
C453 C454 1.371 . S
C453 H456 0.931 . S
C454 C450 1.391 . S
C454 C453 1.371 . S
C454 H461 0.930 . S
H455 C452 0.928 . S
H456 C453 0.931 . S
H457 C433 0.930 . S
H458 C430 0.930 . S
H459 C439 0.930 . S
H460 C451 0.929 . S
H461 C454 0.930 . S
C462 C463 1.351 . S
C462 N465 1.368 . S
C462 H467 0.931 . S
C463 C462 1.351 . S
C463 N464 1.373 . S
C463 H491 0.930 . S
N464 C463 1.373 . S
N464 C466 1.340 . S
N465 C462 1.368 . S
N465 C466 1.321 . S
N465 Co468 2.135 . S
C466 N464 1.340 . S
C466 N465 1.321 . S
C466 H490 0.930 . S
H467 C462 0.931 . S
Co468 N465 2.135 . S
Co468 N471 2.121 1_556 S
Co468 O476 2.055 . S
Co468 O479 2.039 1_556 S
Co468 N482 2.140 . S
C469 O470 1.227 . S
C469 O479 1.265 . S
O470 C469 1.227 . S
N471 Co468 2.121 1_554 S
N471 C473 1.375 . S
N471 C474 1.313 . S
C472 C473 1.338 . S
C472 N475 1.377 . S
C472 H492 0.930 . S
C473 N471 1.375 . S
C473 C472 1.338 . S
C473 H477 0.931 . S
C474 N471 1.313 . S
C474 N475 1.344 . S
C474 H478 0.930 . S
N475 C472 1.377 . S
N475 C474 1.344 . S
O476 Co468 2.055 . S
O476 C480 1.253 . S
H477 C473 0.931 . S
H478 C474 0.930 . S
O479 Co468 2.039 1_554 S
O479 C469 1.265 . S
C480 O476 1.253 . S
C480 O481 1.227 . S
O481 C480 1.227 . S
N482 Co468 2.140 . S
N482 C485 1.346 . S
N482 C486 1.345 1_556 S
C483 C484 1.387 1_554 S
C483 C487 1.391 . S
C484 C483 1.387 1_556 S
C484 C485 1.369 . S
C484 H493 0.929 . S
C485 N482 1.346 . S
C485 C484 1.369 . S
C485 H488 0.928 . S
C486 N482 1.345 1_554 S
C486 C487 1.371 . S
C486 H489 0.931 . S
C487 C483 1.391 . S
C487 C486 1.371 . S
C487 H494 0.930 . S
H488 C485 0.928 . S
H489 C486 0.931 . S
H490 C466 0.930 . S
H491 C463 0.930 . S
H492 C472 0.930 . S
H493 C484 0.929 . S
H494 C487 0.930 . S
C495 C496 1.351 . S
C495 N498 1.368 . S
C495 H500 0.931 . S
C496 C495 1.351 . S
C496 N497 1.373 . S
C496 H524 0.930 . S
N497 C496 1.373 . S
N497 C499 1.340 . S
N498 C495 1.368 . S
N498 C499 1.321 . S
N498 Co501 2.135 . S
C499 N497 1.340 . S
C499 N498 1.321 . S
C499 H523 0.930 . S
H500 C495 0.931 . S
Co501 N498 2.135 . S
Co501 N504 2.121 1_556 S
Co501 O509 2.055 . S
Co501 O512 2.039 1_556 S
Co501 N515 2.140 . S
C502 O503 1.227 . S
C502 O512 1.265 . S
O503 C502 1.227 . S
N504 Co501 2.121 1_554 S
N504 C506 1.375 . S
N504 C507 1.313 . S
C505 C506 1.338 . S
C505 N508 1.377 . S
C505 H525 0.930 . S
C506 N504 1.375 . S
C506 C505 1.338 . S
C506 H510 0.931 . S
C507 N504 1.313 . S
C507 N508 1.344 . S
C507 H511 0.930 . S
N508 C505 1.377 . S
N508 C507 1.344 . S
O509 Co501 2.055 . S
O509 C513 1.253 . S
H510 C506 0.931 . S
H511 C507 0.930 . S
O512 Co501 2.039 1_554 S
O512 C502 1.265 . S
C513 O509 1.253 . S
C513 O514 1.227 . S
O514 C513 1.227 . S
N515 Co501 2.140 . S
N515 C518 1.346 . S
N515 C519 1.345 1_556 S
C516 C517 1.387 1_554 S
C516 C520 1.391 . S
C517 C516 1.387 1_556 S
C517 C518 1.369 . S
C517 H526 0.929 . S
C518 N515 1.346 . S
C518 C517 1.369 . S
C518 H521 0.928 . S
C519 N515 1.345 1_554 S
C519 C520 1.371 . S
C519 H522 0.931 . S
C520 C516 1.391 . S
C520 C519 1.371 . S
C520 H527 0.930 . S
H521 C518 0.928 . S
H522 C519 0.931 . S
H523 C499 0.930 . S
H524 C496 0.930 . S
H525 C505 0.930 . S
H526 C517 0.929 . S
H527 C520 0.930 . S
C528 C529 1.369 1_554 S
C528 C530 1.419 . S
C528 H532 0.930 . S
C529 C528 1.369 1_556 S
C529 C538 1.429 . S
C530 C528 1.419 . S
C530 C531 1.371 . S
C530 H533 0.929 . S
C531 C530 1.371 . S
C531 C537 1.420 1_554 S
H532 C528 0.930 . S
H533 C530 0.929 . S
S534 N535 1.613 . S
S534 N536 1.610 . S
N535 S534 1.613 . S
N535 C538 1.350 . S
N536 S534 1.610 . S
N536 C537 1.351 . S
C537 C531 1.420 1_556 S
C537 N536 1.351 . S
C537 C538 1.434 . S
C538 C529 1.429 . S
C538 N535 1.350 . S
C538 C537 1.434 . S
C539 C540 1.371 . S
C539 C541 1.419 . S
C539 H543 0.930 . S
C540 C539 1.371 . S
C540 C549 1.426 1_554 S
C541 C539 1.419 . S
C541 C542 1.363 1_554 S
C541 H544 0.929 . S
C542 C541 1.363 1_556 S
C542 C548 1.428 . S
H543 C539 0.930 . S
H544 C541 0.929 . S
S545 N546 1.613 . S
S545 N547 1.610 . S
N546 S545 1.613 . S
N546 C549 1.350 . S
N547 S545 1.610 . S
N547 C548 1.351 . S
C548 C542 1.428 . S
C548 N547 1.351 . S
C548 C549 1.434 . S
C549 C540 1.426 1_556 S
C549 N546 1.350 . S
C549 C548 1.434 . S
C550 C551 1.369 1_556 S
C550 C552 1.419 . S
C550 H554 0.930 . S
C551 C550 1.369 1_554 S
C551 C560 1.429 . S
C552 C550 1.419 . S
C552 C553 1.363 . S
C552 H555 0.929 . S
C553 C552 1.363 . S
C553 C559 1.428 1_556 S
H554 C550 0.930 . S
H555 C552 0.929 . S
S556 N557 1.613 . S
S556 N558 1.610 . S
N557 S556 1.613 . S
N557 C560 1.350 . S
N558 S556 1.610 . S
N558 C559 1.351 . S
C559 C553 1.428 1_554 S
C559 N558 1.351 . S
C559 C560 1.434 . S
C560 C551 1.429 . S
C560 N557 1.350 . S
C560 C559 1.434 . S
C561 C562 1.369 1_556 S
C561 C563 1.419 . S
C561 H565 0.930 . S
C562 C561 1.369 1_554 S
C562 C571 1.429 . S
C563 C561 1.419 . S
C563 C564 1.363 . S
C563 H566 0.929 . S
C564 C563 1.363 . S
C564 C570 1.428 1_556 S
H565 C561 0.930 . S
H566 C563 0.929 . S
S567 N568 1.613 . S
S567 N569 1.610 . S
N568 S567 1.613 . S
N568 C571 1.350 . S
N569 S567 1.610 . S
N569 C570 1.351 . S
C570 C564 1.428 1_554 S
C570 N569 1.351 . S
C570 C571 1.434 . S
C571 C562 1.429 . S
C571 N568 1.350 . S
C571 C570 1.434 . S
C572 C573 1.369 . S
C572 C574 1.419 . S
C572 H576 0.930 . S
C573 C572 1.369 . S
C573 C582 1.429 . S
C574 C572 1.419 . S
C574 C575 1.363 . S
C574 H577 0.929 . S
C575 C574 1.363 . S
C575 C581 1.428 . S
H576 C572 0.930 . S
H577 C574 0.929 . S
S578 N579 1.613 . S
S578 N580 1.610 . S
N579 S578 1.613 . S
N579 C582 1.350 . S
N580 S578 1.610 . S
N580 C581 1.351 . S
C581 C575 1.428 . S
C581 N580 1.351 . S
C581 C582 1.434 . S
C582 C573 1.429 . S
C582 N579 1.350 . S
C582 C581 1.434 . S
C583 C584 1.369 . S
C583 C585 1.419 . S
C583 H587 0.930 . S
C584 C583 1.369 . S
C584 C593 1.429 . S
C585 C583 1.419 . S
C585 C586 1.363 . S
C585 H588 0.929 . S
C586 C585 1.363 . S
C586 C592 1.428 . S
H587 C583 0.930 . S
H588 C585 0.929 . S
S589 N590 1.613 . S
S589 N591 1.610 . S
N590 S589 1.613 . S
N590 C593 1.350 . S
N591 S589 1.610 . S
N591 C592 1.351 . S
C592 C586 1.428 . S
C592 N591 1.351 . S
C592 C593 1.434 . S
C593 C584 1.429 . S
C593 N590 1.350 . S
C593 C592 1.434 . S
C594 C595 1.369 . S
C594 C596 1.419 . S
C594 H598 0.930 . S
C595 C594 1.369 . S
C595 C604 1.429 . S
C596 C594 1.419 . S
C596 C597 1.363 . S
C596 H599 0.929 . S
C597 C596 1.363 . S
C597 C603 1.428 . S
H598 C594 0.930 . S
H599 C596 0.929 . S
S600 N601 1.613 . S
S600 N602 1.610 . S
N601 S600 1.613 . S
N601 C604 1.350 . S
N602 S600 1.610 . S
N602 C603 1.351 . S
C603 C597 1.428 . S
C603 N602 1.351 . S
C603 C604 1.434 . S
C604 C595 1.429 . S
C604 N601 1.350 . S
C604 C603 1.434 . S
C605 C606 1.369 . S
C605 C607 1.419 . S
C605 H609 0.930 . S
C606 C605 1.369 . S
C606 C615 1.429 . S
C607 C605 1.419 . S
C607 C608 1.363 . S
C607 H610 0.929 . S
C608 C607 1.363 . S
C608 C614 1.428 . S
H609 C605 0.930 . S
H610 C607 0.929 . S
S611 N612 1.613 . S
S611 N613 1.610 . S
N612 S611 1.613 . S
N612 C615 1.350 . S
N613 S611 1.610 . S
N613 C614 1.351 . S
C614 C608 1.428 . S
C614 N613 1.351 . S
C614 C615 1.434 . S
C615 C606 1.429 . S
C615 N612 1.350 . S
C615 C614 1.434 . S
C616 C617 1.369 . S
C616 C618 1.419 . S
C616 H620 0.930 . S
C617 C616 1.369 . S
C617 C626 1.429 1_655 S
C618 C616 1.419 . S
C618 C619 1.363 1_655 S
C618 H621 0.929 . S
C619 C618 1.363 1_455 S
C619 C625 1.428 . S
H620 C616 0.930 . S
H621 C618 0.929 . S
S622 N623 1.613 . S
S622 N624 1.610 . S
N623 S622 1.613 . S
N623 C626 1.350 . S
N624 S622 1.610 . S
N624 C625 1.351 . S
C625 C619 1.428 . S
C625 N624 1.351 . S
C625 C626 1.434 . S
C626 C617 1.429 1_455 S
C626 N623 1.350 . S
C626 C625 1.434 . S
C627 C628 1.369 1_545 S
C627 C629 1.419 . S
C627 H631 0.930 . S
C628 C627 1.369 1_565 S
C628 C637 1.429 . S
C629 C627 1.419 . S
C629 C630 1.363 . S
C629 H632 0.929 . S
C630 C629 1.363 . S
C630 C636 1.428 1_545 S
H631 C627 0.930 . S
H632 C629 0.929 . S
S633 N634 1.613 . S
S633 N635 1.610 . S
N634 S633 1.613 . S
N634 C637 1.350 . S
N635 S633 1.610 . S
N635 C636 1.351 . S
C636 C630 1.428 1_565 S
C636 N635 1.351 . S
C636 C637 1.434 . S
C637 C628 1.429 . S
C637 N634 1.350 . S
C637 C636 1.434 . S
C638 C639 1.369 . S
C638 C640 1.419 . S
C638 H642 0.930 . S
C639 C638 1.369 . S
C639 C648 1.429 1_455 S
C640 C638 1.419 . S
C640 C641 1.363 1_455 S
C640 H643 0.929 . S
C641 C640 1.363 1_655 S
C641 C647 1.428 . S
H642 C638 0.930 . S
H643 C640 0.929 . S
S644 N645 1.613 . S
S644 N646 1.610 . S
N645 S644 1.613 . S
N645 C648 1.350 . S
N646 S644 1.610 . S
N646 C647 1.351 . S
C647 C641 1.428 . S
C647 N646 1.351 . S
C647 C648 1.434 . S
C648 C639 1.429 1_655 S
C648 N645 1.350 . S
C648 C647 1.434 . S
C649 C650 1.369 . S
C649 C651 1.419 1_545 S
C649 H653 0.930 . S
C650 C649 1.369 . S
C650 C659 1.429 . S
C651 C649 1.419 1_565 S
C651 C652 1.363 . S
C651 H654 0.929 . S
C652 C651 1.363 . S
C652 C658 1.428 . S
H653 C649 0.930 . S
H654 C651 0.929 . S
S655 N656 1.613 1_565 S
S655 N657 1.610 . S
N656 S655 1.613 1_545 S
N656 C659 1.350 . S
N657 S655 1.610 . S
N657 C658 1.351 . S
C658 C652 1.428 . S
C658 N657 1.351 . S
C658 C659 1.434 1_565 S
C659 C650 1.429 . S
C659 N656 1.350 . S
C659 C658 1.434 1_545 S
C660 C661 1.369 . S
C660 C662 1.419 1_455 S
C660 H664 0.930 . S
C661 C660 1.369 . S
C661 C670 1.429 . S
C662 C660 1.419 1_655 S
C662 C663 1.363 . S
C662 H665 0.929 . S
C663 C662 1.363 . S
C663 C669 1.453 . S
H664 C660 0.930 . S
H665 C662 0.929 . S
S666 N667 1.613 . S
S666 N668 1.610 . S
N667 S666 1.613 . S
N667 C670 1.350 . S
N668 S666 1.610 . S
N668 C669 1.349 1_455 S
C669 C663 1.453 . S
C669 N668 1.349 1_655 S
C669 C670 1.409 1_655 S
C670 C661 1.429 . S
C670 N667 1.350 . S
C670 C669 1.409 1_455 S
C671 C672 1.369 . S
C671 C673 1.419 1_565 S
C671 H675 0.930 . S
C672 C671 1.369 . S
C672 C681 1.429 . S
C673 C671 1.419 1_545 S
C673 C674 1.363 . S
C673 H676 0.929 . S
C674 C673 1.363 . S
C674 C680 1.428 . S
H675 C671 0.930 . S
H676 C673 0.929 . S
S677 N678 1.613 . S
S677 N679 1.598 1_565 S
N678 S677 1.613 . S
N678 C681 1.350 . S
N679 S677 1.598 1_545 S
N679 C680 1.352 . S
C680 C674 1.428 . S
C680 N679 1.352 . S
C680 C681 1.434 1_545 S
C681 C672 1.429 . S
C681 N678 1.350 . S
C681 C680 1.434 1_565 S
C682 C683 1.369 . S
C682 C684 1.419 1_655 S
C682 H686 0.930 . S
C683 C682 1.369 . S
C683 C692 1.429 . S
C684 C682 1.419 1_455 S
C684 C685 1.363 . S
C684 H687 0.929 . S
C685 C684 1.363 . S
C685 C691 1.428 . S
H686 C682 0.930 . S
H687 C684 0.929 . S
S688 N689 1.613 1_455 S
S688 N690 1.610 . S
N689 S688 1.613 1_655 S
N689 C692 1.350 . S
N690 S688 1.610 . S
N690 C691 1.351 . S
C691 C685 1.428 . S
C691 N690 1.351 . S
C691 C692 1.434 1_455 S
C692 C683 1.429 . S
C692 N689 1.350 . S
C692 C691 1.434 1_655 S
C693 C694 1.343 1_565 S
C693 C695 1.442 . S
C693 H697 0.933 . S
C694 C693 1.343 1_545 S
C694 C703 1.429 . S
C695 C693 1.442 . S
C695 C696 1.363 . S
C695 H698 0.929 . S
C696 C695 1.363 . S
C696 C702 1.428 1_565 S
H697 C693 0.933 . S
H698 C695 0.929 . S
S699 N700 1.613 . S
S699 N701 1.610 . S
N700 S699 1.613 . S
N700 C703 1.350 . S
N701 S699 1.610 . S
N701 C702 1.351 . S
C702 C696 1.428 1_545 S
C702 N701 1.351 . S
C702 C703 1.434 . S
C703 C694 1.429 . S
C703 N700 1.350 . S
C703 C702 1.434 . S
C704 C705 1.369 . S
C704 C706 1.419 . S
C704 H708 0.930 . S
C705 C704 1.369 . S
C705 C714 1.429 . S
C706 C704 1.419 . S
C706 C707 1.363 . S
C706 H709 0.929 . S
C707 C706 1.363 . S
C707 C713 1.428 . S
H708 C704 0.930 . S
H709 C706 0.929 . S
S710 N711 1.613 . S
S710 N712 1.610 . S
N711 S710 1.613 . S
N711 C714 1.350 . S
N712 S710 1.610 . S
N712 C713 1.351 . S
C713 C707 1.428 . S
C713 N712 1.351 . S
C713 C714 1.434 . S
C714 C705 1.429 . S
C714 N711 1.350 . S
C714 C713 1.434 . S
C715 C716 1.369 . S
C715 C717 1.419 . S
C715 H719 0.930 . S
C716 C715 1.369 . S
C716 C725 1.429 . S
C717 C715 1.419 . S
C717 C718 1.363 . S
C717 H720 0.929 . S
C718 C717 1.363 . S
C718 C724 1.428 . S
H719 C715 0.930 . S
H720 C717 0.929 . S
S721 N722 1.613 . S
S721 N723 1.610 . S
N722 S721 1.613 . S
N722 C725 1.350 . S
N723 S721 1.610 . S
N723 C724 1.351 . S
C724 C718 1.428 . S
C724 N723 1.351 . S
C724 C725 1.434 . S
C725 C716 1.429 . S
C725 N722 1.350 . S
C725 C724 1.434 . S
C726 C727 1.369 . S
C726 C728 1.419 . S
C726 H730 0.930 . S
C727 C726 1.369 . S
C727 C736 1.429 . S
C728 C726 1.419 . S
C728 C729 1.363 . S
C728 H731 0.929 . S
C729 C728 1.363 . S
C729 C735 1.428 . S
H730 C726 0.930 . S
H731 C728 0.929 . S
S732 N733 1.613 . S
S732 N734 1.610 . S
N733 S732 1.613 . S
N733 C736 1.350 . S
N734 S732 1.610 . S
N734 C735 1.351 . S
C735 C729 1.428 . S
C735 N734 1.351 . S
C735 C736 1.434 . S
C736 C727 1.429 . S
C736 N733 1.350 . S
C736 C735 1.434 . S
C737 C738 1.369 . S
C737 C739 1.419 . S
C737 H741 0.930 . S
C738 C737 1.369 . S
C738 C747 1.429 . S
C739 C737 1.419 . S
C739 C740 1.363 . S
C739 H742 0.929 . S
C740 C739 1.363 . S
C740 C746 1.428 . S
H741 C737 0.930 . S
H742 C739 0.929 . S
S743 N744 1.613 . S
S743 N745 1.610 . S
N744 S743 1.613 . S
N744 C747 1.350 . S
N745 S743 1.610 . S
N745 C746 1.351 . S
C746 C740 1.428 . S
C746 N745 1.351 . S
C746 C747 1.434 . S
C747 C738 1.429 . S
C747 N744 1.350 . S
C747 C746 1.434 . S
C748 C749 1.369 . S
C748 C750 1.419 . S
C748 H752 0.930 . S
C749 C748 1.369 . S
C749 C758 1.429 . S
C750 C748 1.419 . S
C750 C751 1.363 . S
C750 H753 0.929 . S
C751 C750 1.363 . S
C751 C757 1.428 . S
H752 C748 0.930 . S
H753 C750 0.929 . S
S754 N755 1.613 . S
S754 N756 1.610 . S
N755 S754 1.613 . S
N755 C758 1.350 . S
N756 S754 1.610 . S
N756 C757 1.351 . S
C757 C751 1.428 . S
C757 N756 1.351 . S
C757 C758 1.434 . S
C758 C749 1.429 . S
C758 N755 1.350 . S
C758 C757 1.434 . S
C759 C760 1.369 . S
C759 C761 1.419 . S
C759 H763 0.930 . S
C760 C759 1.369 . S
C760 C769 1.429 . S
C761 C759 1.419 . S
C761 C762 1.363 . S
C761 H764 0.929 . S
C762 C761 1.363 . S
C762 C768 1.428 . S
H763 C759 0.930 . S
H764 C761 0.929 . S
S765 N766 1.613 . S
S765 N767 1.610 . S
N766 S765 1.613 . S
N766 C769 1.350 . S
N767 S765 1.610 . S
N767 C768 1.351 . S
C768 C762 1.428 . S
C768 N767 1.351 . S
C768 C769 1.434 . S
C769 C760 1.429 . S
C769 N766 1.350 . S
C769 C768 1.434 . S
C770 C771 1.369 . S
C770 C772 1.419 . S
C770 H774 0.930 . S
C771 C770 1.369 . S
C771 C780 1.429 . S
C772 C770 1.419 . S
C772 C773 1.363 . S
C772 H775 0.929 . S
C773 C772 1.363 . S
C773 C779 1.428 . S
H774 C770 0.930 . S
H775 C772 0.929 . S
S776 N777 1.613 . S
S776 N778 1.610 . S
N777 S776 1.613 . S
N777 C780 1.350 . S
N778 S776 1.610 . S
N778 C779 1.351 . S
C779 C773 1.428 . S
C779 N778 1.351 . S
C779 C780 1.434 . S
C780 C771 1.429 . S
C780 N777 1.350 . S
C780 C779 1.434 . S
C781 C782 1.369 . S
C781 C783 1.419 . S
C781 H785 0.930 . S
C782 C781 1.369 . S
C782 C791 1.429 . S
C783 C781 1.419 . S
C783 C784 1.363 . S
C783 H786 0.929 . S
C784 C783 1.363 . S
C784 C790 1.428 . S
H785 C781 0.930 . S
H786 C783 0.929 . S
S787 N788 1.613 . S
S787 N789 1.610 . S
N788 S787 1.613 . S
N788 C791 1.350 . S
N789 S787 1.610 . S
N789 C790 1.351 . S
C790 C784 1.428 . S
C790 N789 1.351 . S
C790 C791 1.434 . S
C791 C782 1.429 . S
C791 N788 1.350 . S
C791 C790 1.434 . S
C792 C793 1.369 . S
C792 C794 1.419 . S
C792 H796 0.930 . S
C793 C792 1.369 . S
C793 C802 1.429 . S
C794 C792 1.419 . S
C794 C795 1.363 . S
C794 H797 0.929 . S
C795 C794 1.363 . S
C795 C801 1.428 . S
H796 C792 0.930 . S
H797 C794 0.929 . S
S798 N799 1.613 . S
S798 N800 1.610 . S
N799 S798 1.613 . S
N799 C802 1.350 . S
N800 S798 1.610 . S
N800 C801 1.351 . S
C801 C795 1.428 . S
C801 N800 1.351 . S
C801 C802 1.434 . S
C802 C793 1.429 . S
C802 N799 1.350 . S
C802 C801 1.434 . S
C803 C804 1.369 . S
C803 C805 1.419 . S
C803 H807 0.930 . S
C804 C803 1.369 . S
C804 C813 1.429 . S
C805 C803 1.419 . S
C805 C806 1.363 . S
C805 H808 0.929 . S
C806 C805 1.363 . S
C806 C812 1.428 . S
H807 C803 0.930 . S
H808 C805 0.929 . S
S809 N810 1.613 . S
S809 N811 1.610 . S
N810 S809 1.613 . S
N810 C813 1.350 . S
N811 S809 1.610 . S
N811 C812 1.351 . S
C812 C806 1.428 . S
C812 N811 1.351 . S
C812 C813 1.434 . S
C813 C804 1.429 . S
C813 N810 1.350 . S
C813 C812 1.434 . S
C814 C815 1.369 . S
C814 C816 1.419 . S
C814 H818 0.930 . S
C815 C814 1.369 . S
C815 C824 1.429 . S
C816 C814 1.419 . S
C816 C817 1.363 . S
C816 H819 0.929 . S
C817 C816 1.363 . S
C817 C823 1.428 . S
H818 C814 0.930 . S
H819 C816 0.929 . S
S820 N821 1.613 . S
S820 N822 1.610 . S
N821 S820 1.613 . S
N821 C824 1.350 . S
N822 S820 1.610 . S
N822 C823 1.351 . S
C823 C817 1.428 . S
C823 N822 1.351 . S
C823 C824 1.434 . S
C824 C815 1.429 . S
C824 N821 1.350 . S
C824 C823 1.434 . S
C825 C826 1.369 . S
C825 C827 1.419 . S
C825 H829 0.930 . S
C826 C825 1.369 . S
C826 C835 1.429 . S
C827 C825 1.419 . S
C827 C828 1.363 . S
C827 H830 0.929 . S
C828 C827 1.363 . S
C828 C834 1.428 . S
H829 C825 0.930 . S
H830 C827 0.929 . S
S831 N832 1.613 . S
S831 N833 1.610 . S
N832 S831 1.613 . S
N832 C835 1.350 . S
N833 S831 1.610 . S
N833 C834 1.351 . S
C834 C828 1.428 . S
C834 N833 1.351 . S
C834 C835 1.434 . S
C835 C826 1.429 . S
C835 N832 1.350 . S
C835 C834 1.434 . S
C836 C837 1.369 . S
C836 C838 1.419 . S
C836 H840 0.930 . S
C837 C836 1.369 . S
C837 C846 1.429 . S
C838 C836 1.419 . S
C838 C839 1.363 . S
C838 H841 0.929 . S
C839 C838 1.363 . S
C839 C845 1.428 . S
H840 C836 0.930 . S
H841 C838 0.929 . S
S842 N843 1.613 . S
S842 N844 1.610 . S
N843 S842 1.613 . S
N843 C846 1.350 . S
N844 S842 1.610 . S
N844 C845 1.351 . S
C845 C839 1.428 . S
C845 N844 1.351 . S
C845 C846 1.434 . S
C846 C837 1.429 . S
C846 N843 1.350 . S
C846 C845 1.434 . S
C847 C848 1.369 . S
C847 C849 1.419 . S
C847 H851 0.930 . S
C848 C847 1.369 . S
C848 C857 1.429 . S
C849 C847 1.419 . S
C849 C850 1.363 . S
C849 H852 0.929 . S
C850 C849 1.363 . S
C850 C856 1.428 . S
H851 C847 0.930 . S
H852 C849 0.929 . S
S853 N854 1.613 . S
S853 N855 1.610 . S
N854 S853 1.613 . S
N854 C857 1.350 . S
N855 S853 1.610 . S
N855 C856 1.351 . S
C856 C850 1.428 . S
C856 N855 1.351 . S
C856 C857 1.434 . S
C857 C848 1.429 . S
C857 N854 1.350 . S
C857 C856 1.434 . S
C858 C859 1.369 . S
C858 C860 1.419 . S
C858 H862 0.930 . S
C859 C858 1.369 . S
C859 C868 1.429 . S
C860 C858 1.419 . S
C860 C861 1.363 . S
C860 H863 0.929 . S
C861 C860 1.363 . S
C861 C867 1.428 . S
H862 C858 0.930 . S
H863 C860 0.929 . S
S864 N865 1.613 . S
S864 N866 1.610 . S
N865 S864 1.613 . S
N865 C868 1.350 . S
N866 S864 1.610 . S
N866 C867 1.351 . S
C867 C861 1.428 . S
C867 N866 1.351 . S
C867 C868 1.434 . S
C868 C859 1.429 . S
C868 N865 1.350 . S
C868 C867 1.434 . S
C869 C870 1.369 . S
C869 C871 1.419 . S
C869 H873 0.930 . S
C870 C869 1.369 . S
C870 C879 1.429 . S
C871 C869 1.419 . S
C871 C872 1.363 . S
C871 H874 0.929 . S
C872 C871 1.363 . S
C872 C878 1.428 . S
H873 C869 0.930 . S
H874 C871 0.929 . S
S875 N876 1.613 . S
S875 N877 1.610 . S
N876 S875 1.613 . S
N876 C879 1.350 . S
N877 S875 1.610 . S
N877 C878 1.351 . S
C878 C872 1.428 . S
C878 N877 1.351 . S
C878 C879 1.434 . S
C879 C870 1.429 . S
C879 N876 1.350 . S
C879 C878 1.434 . S
C880 C881 1.369 . S
C880 C882 1.419 . S
C880 H884 0.930 . S
C881 C880 1.369 . S
C881 C890 1.429 . S
C882 C880 1.419 . S
C882 C883 1.363 . S
C882 H885 0.929 . S
C883 C882 1.363 . S
C883 C889 1.428 . S
H884 C880 0.930 . S
H885 C882 0.929 . S
S886 N887 1.613 . S
S886 N888 1.610 . S
N887 S886 1.613 . S
N887 C890 1.350 . S
N888 S886 1.610 . S
N888 C889 1.351 . S
C889 C883 1.428 . S
C889 N888 1.351 . S
C889 C890 1.434 . S
C890 C881 1.429 . S
C890 N887 1.350 . S
C890 C889 1.434 . S
C891 C892 1.369 . S
C891 C893 1.419 . S
C891 H895 0.930 . S
C892 C891 1.369 . S
C892 C901 1.429 . S
C893 C891 1.419 . S
C893 C894 1.363 . S
C893 H896 0.929 . S
C894 C893 1.363 . S
C894 C900 1.428 . S
H895 C891 0.930 . S
H896 C893 0.929 . S
S897 N898 1.613 . S
S897 N899 1.610 . S
N898 S897 1.613 . S
N898 C901 1.350 . S
N899 S897 1.610 . S
N899 C900 1.351 . S
C900 C894 1.428 . S
C900 N899 1.351 . S
C900 C901 1.434 . S
C901 C892 1.429 . S
C901 N898 1.350 . S
C901 C900 1.434 . S
C902 C903 1.369 . S
C902 C904 1.419 . S
C902 H906 0.930 . S
C903 C902 1.369 . S
C903 C912 1.429 . S
C904 C902 1.419 . S
C904 C905 1.363 . S
C904 H907 0.929 . S
C905 C904 1.363 . S
C905 C911 1.428 . S
H906 C902 0.930 . S
H907 C904 0.929 . S
S908 N909 1.613 . S
S908 N910 1.610 . S
N909 S908 1.613 . S
N909 C912 1.350 . S
N910 S908 1.610 . S
N910 C911 1.351 . S
C911 C905 1.428 . S
C911 N910 1.351 . S
C911 C912 1.434 . S
C912 C903 1.429 . S
C912 N909 1.350 . S
C912 C911 1.434 . S
C913 C914 1.369 . S
C913 C915 1.419 . S
C913 H917 0.930 . S
C914 C913 1.369 . S
C914 C923 1.429 . S
C915 C913 1.419 . S
C915 C916 1.363 . S
C915 H918 0.929 . S
C916 C915 1.363 . S
C916 C922 1.428 . S
H917 C913 0.930 . S
H918 C915 0.929 . S
S919 N920 1.613 . S
S919 N921 1.610 . S
N920 S919 1.613 . S
N920 C923 1.350 . S
N921 S919 1.610 . S
N921 C922 1.351 . S
C922 C916 1.428 . S
C922 N921 1.351 . S
C922 C923 1.434 . S
C923 C914 1.429 . S
C923 N920 1.350 . S
C923 C922 1.434 . S
C924 C925 1.369 . S
C924 C926 1.419 . S
C924 H928 0.930 . S
C925 C924 1.369 . S
C925 C934 1.429 . S
C926 C924 1.419 . S
C926 C927 1.363 . S
C926 H929 0.929 . S
C927 C926 1.363 . S
C927 C933 1.428 . S
H928 C924 0.930 . S
H929 C926 0.929 . S
S930 N931 1.613 . S
S930 N932 1.610 . S
N931 S930 1.613 . S
N931 C934 1.350 . S
N932 S930 1.610 . S
N932 C933 1.351 . S
C933 C927 1.428 . S
C933 N932 1.351 . S
C933 C934 1.434 . S
C934 C925 1.429 . S
C934 N931 1.350 . S
C934 C933 1.434 . S
C935 C936 1.369 . S
C935 C937 1.419 . S
C935 H939 0.930 . S
C936 C935 1.369 . S
C936 C945 1.429 . S
C937 C935 1.419 . S
C937 C938 1.363 . S
C937 H940 0.929 . S
C938 C937 1.363 . S
C938 C944 1.428 . S
H939 C935 0.930 . S
H940 C937 0.929 . S
S941 N942 1.613 . S
S941 N943 1.610 . S
N942 S941 1.613 . S
N942 C945 1.350 . S
N943 S941 1.610 . S
N943 C944 1.351 . S
C944 C938 1.428 . S
C944 N943 1.351 . S
C944 C945 1.434 . S
C945 C936 1.429 . S
C945 N942 1.350 . S
C945 C944 1.434 . S
C946 C947 1.369 . S
C946 C948 1.419 . S
C946 H950 0.930 . S
C947 C946 1.369 . S
C947 C956 1.429 . S
C948 C946 1.419 . S
C948 C949 1.363 . S
C948 H951 0.929 . S
C949 C948 1.363 . S
C949 C955 1.428 . S
H950 C946 0.930 . S
H951 C948 0.929 . S
S952 N953 1.613 . S
S952 N954 1.610 . S
N953 S952 1.613 . S
N953 C956 1.350 . S
N954 S952 1.610 . S
N954 C955 1.351 . S
C955 C949 1.428 . S
C955 N954 1.351 . S
C955 C956 1.434 . S
C956 C947 1.429 . S
C956 N953 1.350 . S
C956 C955 1.434 . S
C957 C958 1.369 . S
C957 C959 1.419 . S
C957 H961 0.930 . S
C958 C957 1.369 . S
C958 C967 1.429 . S
C959 C957 1.419 . S
C959 C960 1.363 . S
C959 H962 0.929 . S
C960 C959 1.363 . S
C960 C966 1.428 . S
H961 C957 0.930 . S
H962 C959 0.929 . S
S963 N964 1.613 . S
S963 N965 1.610 . S
N964 S963 1.613 . S
N964 C967 1.350 . S
N965 S963 1.610 . S
N965 C966 1.351 . S
C966 C960 1.428 . S
C966 N965 1.351 . S
C966 C967 1.434 . S
C967 C958 1.429 . S
C967 N964 1.350 . S
C967 C966 1.434 . S
C529 C21 1.309 . S
C531 C516 1.309 . S
C540 C417 1.308 . S
C542 C54 1.309 . S
C551 C450 1.312 . S
C553 C87 1.312 . S
C562 C483 1.312 . S
C564 C120 1.312 . S
C573 C153 1.312 . S
C575 C318 1.312 . S
C584 C351 1.313 . S
C586 C186 1.312 . S
C595 C384 1.309 . S
C597 C219 1.309 . S
C606 C252 1.309 . S
C608 C285 1.309 . S
C617 C216 2.022 . S
C619 C18 2.019 . S
C628 C249 2.020 . S
C630 C51 2.022 . S
C639 C150 2.020 . S
C641 C84 2.019 . S
C650 C183 2.019 . S
C652 C117 2.020 . S
C661 N145 0.896 . S
C663 N79 0.898 . S
C672 N112 0.897 . S
C674 N178 0.898 . S
C683 N211 0.886 . S
C685 N13 0.889 . S
C694 N46 0.894 . S
C696 N244 0.898 . S
C705 C282 2.020 . S
C707 C480 2.022 . S
C716 C513 2.019 . S
C718 C315 2.021 . S
C727 C414 2.021 . S
C729 C348 2.019 . S
C738 C447 2.021 . S
C740 C381 2.022 . S
C749 N409 0.887 . S
C751 N343 0.888 . S
C760 N442 0.886 . S
C762 N376 0.893 . S
C771 N277 0.900 . S
C773 N475 0.895 . S
C782 N310 0.897 . S
C784 N508 0.890 . S
C793 N167 0.885 . S
C795 N2 0.891 . S
C804 N35 0.891 . S
C806 N200 0.886 . S
C815 N233 0.886 . S
C817 N68 0.884 . S
C826 N101 0.890 . S
C828 N134 0.885 . S
C837 C73 2.241 . S
C839 C238 2.241 . S
C848 C139 2.237 . S
C850 C106 2.238 . S
C859 C172 2.238 . S
C861 C7 2.238 . S
C870 C40 2.241 . S
C872 C205 2.240 . S
C881 N431 0.892 . S
C883 N266 0.894 . S
C892 N299 0.883 . S
C894 N464 0.888 . S
C903 N497 0.892 . S
C905 N332 0.886 . S
C914 N365 0.883 . S
C916 N398 0.888 . S
C925 C502 2.238 . S
C927 C337 2.238 . S
C936 C370 2.239 . S
C938 C403 2.240 . S
C947 C436 2.242 . S
C949 C271 2.240 . S
C958 C304 2.240 . S
C960 C469 2.241 . S
