# Generated by pormake.
# Topology npo, (4)-cn, num edge types: 1
# Building blocks:
#     Node 0, Type 0, BuildingBlock: KUFVIS_clean_sbu_0, # of connection points: 4
#     Node 1, Type 0, BuildingBlock: KUFVIS_clean_sbu_0, # of connection points: 4
#     Node 2, Type 0, BuildingBlock: KUFVIS_clean_sbu_0, # of connection points: 4
#     Node 3, Type 0, BuildingBlock: KUFVIS_clean_sbu_0, # of connection points: 4
#     Node 4, Type 0, BuildingBlock: KUFVIS_clean_sbu_0, # of connection points: 4
#     Node 5, Type 0, BuildingBlock: KUFVIS_clean_sbu_0, # of connection points: 4
#     Edge 6, Type (0, 0), BuildingBlock: OJICUG_clean_linker_0, # of connection points: 2
#     Edge 7, Type (0, 0), BuildingBlock: OJICUG_clean_linker_0, # of connection points: 2
#     Edge 8, Type (0, 0), BuildingBlock: OJICUG_clean_linker_0, # of connection points: 2
#     Edge 9, Type (0, 0), BuildingBlock: OJICUG_clean_linker_0, # of connection points: 2
#     Edge 10, Type (0, 0), BuildingBlock: OJICUG_clean_linker_0, # of connection points: 2
#     Edge 11, Type (0, 0), BuildingBlock: OJICUG_clean_linker_0, # of connection points: 2
#     Edge 12, Type (0, 0), BuildingBlock: OJICUG_clean_linker_0, # of connection points: 2
#     Edge 13, Type (0, 0), BuildingBlock: OJICUG_clean_linker_0, # of connection points: 2
#     Edge 14, Type (0, 0), BuildingBlock: OJICUG_clean_linker_0, # of connection points: 2
#     Edge 15, Type (0, 0), BuildingBlock: OJICUG_clean_linker_0, # of connection points: 2
#     Edge 16, Type (0, 0), BuildingBlock: OJICUG_clean_linker_0, # of connection points: 2
#     Edge 17, Type (0, 0), BuildingBlock: OJICUG_clean_linker_0, # of connection points: 2
# Relax obj value: 0.272
# Max RMSD: 0.241
# Mean RMSD: 0.233
data_MOF--net-npo--node1-KUFVIS_clean_sbu_0--edge1-OJICUG_clean_linker_0
_symmetry_space_group_name_H-M    P1
_symmetry_Int_Tables_number       1
_symmetry_cell_setting            triclinic
loop_
_symmetry_equiv_pos_as_xyz
'x, y, z'
_cell_length_a     31.111728
_cell_length_b     32.666704
_cell_length_c     16.86452
_cell_angle_alpha  90.215463
_cell_angle_beta   92.129794
_cell_angle_gamma 121.58544
loop_
_atom_site_label
_atom_site_type_symbol
_atom_site_fract_x
_atom_site_fract_y
_atom_site_fract_z
_atom_type_partial_charge
Mn0 Mn 0.58973 0.14788 0.33348 0.0
Mn1 Mn 0.65816 0.09674 0.30729 0.0
C2 C 0.67797 0.19377 0.35066 0.0
C3 C 0.54838 0.18785 0.29697 0.0
C4 C 0.59348 0.07755 0.44837 0.0
O5 O 0.54213 0.08859 0.26209 0.0
O6 O 0.5945 0.06149 0.24144 0.0
C7 C 0.68198 0.11564 0.13796 0.0
N8 N 0.69765 0.12009 0.21571 0.0
C9 C 0.78402 0.15423 0.18133 0.0
C10 C 0.76894 0.1503 0.10085 0.0
C11 C 0.71775 0.13132 0.07913 0.0
C12 C 0.74694 0.13948 0.23732 0.0
H13 H 0.64251 0.1 0.121 0.0
C14 C 0.55297 0.06019 0.2278 0.0
O15 O 0.53564 0.16006 0.35703 0.0
O16 O 0.58439 0.19131 0.2549 0.0
N17 N 0.72104 0.12878 0.36717 0.0
C18 C 0.72959 0.13227 0.44745 0.0
C19 C 0.77889 0.15088 0.47918 0.0
C20 C 0.81858 0.16469 0.42807 0.0
C21 C 0.80884 0.16127 0.34567 0.0
C22 C 0.75924 0.14371 0.31754 0.0
H23 H 0.69895 0.12025 0.487 0.0
O24 O 0.64989 0.20553 0.38767 0.0
O25 O 0.65328 0.15444 0.30773 0.0
O26 O 0.58094 0.10744 0.42936 0.0
O27 O 0.62043 0.06877 0.4049 0.0
C28 C 0.84612 0.17335 0.29033 0.0
C29 C 0.8341 0.17098 0.20824 0.0
H30 H 0.79628 0.16145 0.05525 0.0
H31 H 0.70578 0.12802 1.01715 0.0
H32 H 0.78611 0.15355 0.54283 0.0
H33 H 0.85627 0.17764 0.45282 0.0
H34 H 0.88397 0.18388 0.31056 0.0
H35 H 0.86345 0.18135 0.16636 0.0
Mn36 Mn 0.40042 0.55317 0.72673 0.0
Mn37 Mn 0.33101 0.43448 0.75933 0.0
C38 C 0.31268 0.51071 0.70541 0.0
C39 C 0.44061 0.63495 0.75862 0.0
C40 C 0.39247 0.47496 0.61423 0.0
O41 O 0.44777 0.54388 0.80201 0.0
O42 O 0.39799 0.46387 0.81583 0.0
C43 C 0.3194 0.44063 0.93188 0.0
N44 N 0.29839 0.42451 0.85736 0.0
C45 C 0.21522 0.37789 0.90752 0.0
C46 C 0.2359 0.39385 0.98481 0.0
C47 C 0.2882 0.42571 0.99694 0.0
C48 C 0.24803 0.395 0.84484 0.0
H49 H 0.35964 0.46452 0.94178 0.0
C50 C 0.43862 0.5043 0.8319 0.0
O51 O 0.45449 0.61899 0.70082 0.0
O52 O 0.40429 0.60322 0.80078 0.0
N53 N 0.26456 0.40132 0.71047 0.0
C54 C 0.25052 0.3905 0.63209 0.0
C55 C 0.19952 0.35833 0.60979 0.0
C56 C 0.16379 0.33711 0.66837 0.0
C57 C 0.17894 0.34964 0.74858 0.0
C58 C 0.23017 0.38221 0.76712 0.0
H59 H 0.27818 0.40547 0.58708 0.0
O60 O 0.34153 0.54958 0.66723 0.0
O61 O 0.3362 0.49708 0.75336 0.0
O62 O 0.40995 0.51833 0.63567 0.0
O63 O 0.36214 0.43964 0.65577 0.0
C64 C 0.14557 0.33014 0.8111 0.0
C65 C 0.16348 0.34501 0.89031 0.0
H66 H 0.21201 0.3818 0.03524 0.0
H67 H 0.30449 0.43824 0.05639 0.0
H68 H 0.18796 0.34895 0.54778 0.0
H69 H 0.12501 0.31076 0.65098 0.0
H70 H 0.10612 0.30339 0.79932 0.0
H71 H 0.13726 0.33032 0.93762 0.0
Mn72 Mn 0.86461 0.45202 0.25463 0.0
Mn73 Mn 0.94967 0.42521 0.32323 0.0
C74 C 0.8426 0.37176 0.26073 0.0
C75 C 0.80069 0.46843 0.26062 0.0
C76 C 0.95233 0.46451 0.16016 0.0
O77 O 0.91359 0.51215 0.32108 0.0
O78 O 0.96753 0.48974 0.36437 0.0
C79 C 0.93337 0.42041 0.49607 0.0
N80 N 0.93526 0.39953 0.42732 0.0
C81 C 0.9323 0.33431 0.49799 0.0
C82 C 0.93023 0.35508 0.56954 0.0
C83 C 0.93026 0.39809 0.56845 0.0
C84 C 0.93358 0.35735 0.42752 0.0
H85 H 0.93523 0.45424 0.49585 0.0
C86 C 0.95208 0.51922 0.36278 0.0
O87 O 0.83234 0.48405 0.20471 0.0
O88 O 0.80675 0.44391 0.31596 0.0
N89 N 0.93673 0.36365 0.29031 0.0
C90 C 0.93861 0.34825 0.21609 0.0
C91 C 0.94187 0.30731 0.2069 0.0
C92 C 0.94351 0.28294 0.27413 0.0
C93 C 0.93866 0.29785 0.34964 0.0
C94 C 0.93531 0.33881 0.35501 0.0
H95 H 0.93907 0.36781 0.16447 0.0
O96 O 0.82085 0.38534 0.20896 0.0
O97 O 0.87826 0.406 0.30577 0.0
O98 O 0.91427 0.46805 0.16879 0.0
O99 O 0.9698 0.44972 0.21476 0.0
C100 C 0.93895 0.27485 0.41999 0.0
C101 C 0.93487 0.29255 0.494 0.0
H102 H 0.92934 0.33871 0.62568 0.0
H103 H 0.9292 0.41464 0.62346 0.0
H104 H 0.94474 0.29547 0.14839 0.0
H105 H 0.94908 0.25316 0.26682 0.0
H106 H 0.94248 0.24361 0.41792 0.0
H107 H 0.93491 0.27442 0.54762 0.0
Mn108 Mn 0.45781 0.87814 0.82109 0.0
Mn109 Mn 0.39066 0.93066 0.78856 0.0
C110 C 0.37198 0.83656 0.83736 0.0
C111 C 0.48555 0.82739 0.78593 0.0
C112 C 0.45786 0.95118 0.9364 0.0
O113 O 0.504 0.93343 0.75002 0.0
O114 O 0.45584 0.96632 0.7344 0.0
C115 C 0.37042 0.91112 0.61514 0.0
N116 N 0.35296 0.90592 0.68962 0.0
C117 C 0.26689 0.8554 0.63969 0.0
C118 C 0.28398 0.86043 0.56252 0.0
C119 C 0.33596 0.88846 0.55022 0.0
C120 C 0.30296 0.87924 0.70204 0.0
H121 H 0.41034 0.93221 0.60525 0.0
C122 C 0.49533 0.96471 0.72063 0.0
O123 O 0.50728 0.85813 0.84492 0.0
O124 O 0.4517 0.82983 0.74264 0.0
N125 N 0.32642 0.89745 0.8362 0.0
C126 C 0.31619 0.89453 0.91456 0.0
C127 C 0.2659 0.86721 0.937 0.0
C128 C 0.22669 0.84306 0.87875 0.0
C129 C 0.23811 0.84667 0.79848 0.0
C130 C 0.28889 0.87494 0.77958 0.0
H131 H 0.34619 0.91255 0.95971 0.0
O132 O 0.40046 0.82518 0.87721 0.0
O133 O 0.39512 0.87347 0.79271 0.0
O134 O 0.47362 0.92403 0.91515 0.0
O135 O 0.42692 0.95709 0.8934 0.0
C136 C 0.20117 0.82266 0.73663 0.0
C137 C 0.21555 0.82702 0.6573 0.0
H138 H 0.25756 0.84267 0.51233 0.0
H139 H 0.34947 0.89234 0.49085 0.0
H140 H 0.2574 0.86445 0.9991 0.0
H141 H 0.18799 0.82157 0.89637 0.0
H142 H 0.16162 0.8004 0.74949 0.0
H143 H 0.18683 0.80805 0.61033 0.0
Mn144 Mn 0.5265 0.4111 0.23631 0.0
Mn145 Mn 0.59366 0.53025 0.27446 0.0
C146 C 0.61202 0.45555 0.21864 0.0
C147 C 0.49942 0.33246 0.2679 0.0
C148 C 0.52748 0.48578 0.12498 0.0
O149 O 0.48018 0.41907 0.30946 0.0
O150 O 0.52792 0.49988 0.3273 0.0
C151 C 0.6123 0.52794 0.44757 0.0
N152 N 0.63045 0.54149 0.3738 0.0
C153 C 0.71614 0.57639 0.42523 0.0
C154 C 0.69833 0.56297 0.50171 0.0
C155 C 0.64619 0.53869 0.5129 0.0
C156 C 0.68061 0.56509 0.36246 0.0
H157 H 0.57227 0.50889 0.45661 0.0
C158 C 0.4885 0.45869 0.34006 0.0
O159 O 0.47736 0.34177 0.21002 0.0
O160 O 0.5331 0.36838 0.31208 0.0
N161 N 0.6584 0.56232 0.22835 0.0
C162 C 0.66942 0.57155 0.15056 0.0
C163 C 0.71999 0.59527 0.12926 0.0
C164 C 0.75867 0.60918 0.18804 0.0
C165 C 0.74645 0.59956 0.26773 0.0
C166 C 0.69542 0.57635 0.28555 0.0
H167 H 0.63984 0.56051 0.10497 0.0
O168 O 0.58333 0.416 0.17796 0.0
O169 O 0.58942 0.46879 0.26607 0.0
O170 O 0.51074 0.44248 0.14452 0.0
O171 O 0.55845 0.52198 0.16939 0.0
C172 C 0.78285 0.61149 0.33003 0.0
C173 C 0.76771 0.59991 0.40872 0.0
H174 H 0.72432 0.57088 0.55218 0.0
H175 H 0.63214 0.52806 0.57171 0.0
H176 H 0.72911 0.60248 0.06759 0.0
H177 H 0.79759 0.627 0.17126 0.0
H178 H 0.82257 0.62929 0.31801 0.0
H179 H 0.79602 0.60897 0.45604 0.0
Mn180 Mn 0.12033 0.5817 0.76296 0.0
Mn181 Mn 0.04141 0.47117 0.68347 0.0
C182 C 0.14359 0.52429 0.76225 0.0
C183 C 0.18473 0.66211 0.76856 0.0
C184 C 0.03025 0.50133 0.84606 0.0
O185 O 0.07577 0.5943 0.68877 0.0
O186 O 0.02028 0.5172 0.65159 0.0
C187 C 0.06237 0.49446 0.51383 0.0
N188 N 0.05963 0.46775 0.57739 0.0
C189 C 0.06975 0.4135 0.49457 0.0
C190 C 0.07226 0.44027 0.42826 0.0
C191 C 0.06911 0.48127 0.43813 0.0
C192 C 0.06453 0.4293 0.56894 0.0
H193 H 0.05871 0.5251 0.52054 0.0
C194 C 0.03594 0.56217 0.6507 0.0
O195 O 0.14889 0.64457 0.81791 0.0
O196 O 0.18251 0.63326 0.7128 0.0
N197 N 0.05624 0.42237 0.70564 0.0
C198 C 0.05078 0.3991 0.77486 0.0
C199 C 0.04989 0.35574 0.77435 0.0
C200 C 0.05399 0.33646 0.70254 0.0
C201 C 0.06132 0.36173 0.63251 0.0
C202 C 0.06189 0.4048 0.63663 0.0
H203 H 0.04531 0.41257 0.82959 0.0
O204 O 0.16096 0.55799 0.81703 0.0
O205 O 0.11134 0.5238 0.71023 0.0
O206 O 0.06377 0.54506 0.83828 0.0
O207 O 0.01941 0.469 0.79326 0.0
C208 C 0.06572 0.34471 0.55817 0.0
C209 C 0.07063 0.37093 0.4894 0.0
H210 H 0.07614 0.42943 0.36948 0.0
H211 H 0.07081 0.5021 0.38727 0.0
H212 H 0.0444 0.33643 0.82873 0.0
H213 H 0.0505 0.30173 0.70154 0.0
H214 H 0.06478 0.3112 0.553 0.0
H215 H 0.07381 0.3574 0.43256 0.0
C216 C 0.50882 0.231 0.35003 0.0
C217 C 0.52672 0.21833 0.28458 0.0
H218 H 0.48602 0.27774 0.396 0.0
C219 C 0.52715 0.23804 0.21066 0.0
H220 H 0.50822 0.21651 0.40794 0.0
C221 C 0.5122 0.2716 0.20337 0.0
C222 C 0.49814 0.2869 0.27038 0.0
H223 H 0.54066 0.22882 0.15936 0.0
H224 H 0.51566 0.2885 0.14685 0.0
C225 C 0.49564 0.26569 0.34333 0.0
C226 C 0.23066 0.49925 0.65255 0.0
C227 C 0.25951 0.49649 0.71607 0.0
H228 H 0.16943 0.5085 0.61724 0.0
C229 C 0.24205 0.49175 0.79319 0.0
H230 H 0.24349 0.50339 0.59262 0.0
C231 C 0.1998 0.49492 0.80742 0.0
C232 C 0.174 0.50264 0.74482 0.0
H233 H 0.26404 0.49078 0.84363 0.0
H234 H 0.19014 0.49573 0.86823 0.0
C235 C 0.18797 0.50184 0.66669 0.0
C236 C 0.76176 0.26755 0.38974 0.0
C237 C 0.73007 0.23225 0.33212 0.0
H238 H 0.82443 0.33943 0.41233 0.0
C239 C 0.74359 0.24012 0.25245 0.0
H240 H 0.75203 0.2627 0.45143 0.0
C241 C 0.7847 0.28416 0.22988 0.0
C242 C 0.81353 0.32118 0.28653 0.0
H243 H 0.71936 0.21433 0.20625 0.0
H244 H 0.79115 0.29076 0.16727 0.0
C245 C 0.80351 0.31142 0.36726 0.0
C246 C 0.47771 0.75574 0.84979 0.0
C247 C 0.48742 0.78341 0.7816 0.0
H248 H 0.45363 0.68603 0.89586 0.0
C249 C 0.48682 0.76339 0.70768 0.0
H250 H 0.47676 0.77014 0.90724 0.0
C251 C 0.4749 0.71585 0.70157 0.0
C252 C 0.46129 0.68697 0.76879 0.0
H253 H 0.49318 0.78377 0.65424 0.0
H254 H 0.47299 0.70076 0.6433 0.0
C255 C 0.46386 0.70755 0.84326 0.0
C256 C 0.69544 0.47951 0.16876 0.0
C257 C 0.66497 0.47056 0.23309 0.0
H258 H 0.76342 0.48762 0.12811 0.0
C259 C 0.68172 0.4659 0.30919 0.0
H260 H 0.68265 0.48236 0.10955 0.0
C261 C 0.72719 0.46713 0.31976 0.0
C262 C 0.75667 0.47396 0.25449 0.0
H263 H 0.65802 0.45799 0.35935 0.0
H264 H 0.73826 0.46098 0.37802 0.0
C265 C 0.74144 0.48221 0.17965 0.0
C266 C 0.30598 0.78015 0.73889 0.0
C267 C 0.31978 0.7982 0.81753 0.0
H268 H 0.25212 0.72203 0.66131 0.0
C269 C 0.28688 0.77367 0.87794 0.0
H270 H 0.3315 0.79825 0.69162 0.0
C271 C 0.2412 0.73092 0.86036 0.0
C272 C 0.22881 0.71103 0.78264 0.0
H273 H 0.29733 0.78669 0.939 0.0
H274 H 0.2171 0.71193 0.90869 0.0
C275 C 0.26096 0.73652 0.72162 0.0
C276 C 0.50263 0.96287 0.06852 0.0
C277 C 0.47633 0.97617 1.01553 0.0
H278 H 0.54561 0.97775 0.17779 0.0
C279 C 0.46915 0.01357 0.03893 0.0
H280 H 0.50809 0.93364 0.05378 0.0
C281 C 0.49074 0.03901 0.11139 0.0
C282 C 0.51972 0.02736 0.16167 0.0
H283 H 0.44861 0.02442 1.00001 0.0
H284 H 0.4872 0.06943 0.12573 0.0
C285 C 0.52389 0.98799 0.14033 0.0
C286 C 0.42811 0.41859 0.45022 0.0
C287 C 0.45469 0.45805 0.40069 0.0
H288 H 0.38749 0.39272 0.55734 0.0
C289 C 0.4552 0.50044 0.41748 0.0
H290 H 0.42728 0.3855 0.43919 0.0
C291 C 0.43296 0.50465 0.48474 0.0
C292 C 0.40947 0.46662 0.53768 0.0
H293 H 0.47482 0.53138 0.3803 0.0
H294 H 0.43579 0.53863 0.49653 0.0
C295 C 0.40563 0.42283 0.5182 0.0
C296 C 0.98281 0.51145 0.9518 0.0
C297 C 0.00653 0.48821 0.92328 0.0
H298 H 0.94713 0.52216 0.04887 0.0
C299 C 0.01447 0.45858 0.97407 0.0
H300 H 0.97751 0.53547 0.91428 0.0
C301 C -0.00114 0.45231 0.05237 0.0
C302 C 0.97403 0.47476 0.08057 0.0
H303 H 0.03434 0.44166 0.95424 0.0
H304 H 0.00572 0.42947 0.09029 0.0
C305 C 0.96604 0.50425 0.02912 0.0
C306 C 0.57944 0.01246 0.54423 0.0
C307 C 0.57468 0.05173 0.52384 0.0
H308 H 0.55862 0.95421 0.62358 0.0
C309 C 0.54944 0.06539 0.5752 0.0
H310 H 0.59897 1.00118 0.50646 0.0
C311 C 0.52684 0.0389 0.64206 0.0
C312 C 0.52875 0.9979 0.65998 0.0
H313 H 0.54566 0.09587 0.56262 0.0
H314 H 0.50605 0.04958 0.67813 0.0
C315 C 0.55668 0.98578 0.61176 0.0
C316 C 0.46828 0.46083 0.91652 0.0
C317 C 0.47153 0.50426 0.89796 0.0
H318 H 0.48272 0.42099 1.00179 0.0
C319 C 0.49794 0.5436 0.95183 0.0
H320 H 0.44848 0.42985 0.87631 0.0
C321 C 0.51761 0.53841 0.02498 0.0
C322 C 0.51092 0.49372 0.04559 0.0
H323 H 0.50063 0.57739 0.93976 0.0
H324 H 0.53609 0.56873 0.06661 0.0
C325 C 0.48749 0.45559 0.98918 0.0
C326 C 0.96144 0.55139 0.5726 0.0
C327 C 0.01412 0.57645 0.58517 0.0
H328 H 0.89954 0.51667 0.48708 0.0
C329 C 0.0445 0.59864 0.52031 0.0
H330 H 0.93717 0.53383 0.62146 0.0
C331 C 0.02317 0.58601 0.44277 0.0
C332 C 0.97099 0.55412 0.43006 0.0
H333 H 0.08529 0.61806 0.52837 0.0
H334 H 0.04797 0.59595 0.39365 0.0
C335 C 0.93994 0.54151 0.49525 0.0
loop_
_geom_bond_atom_site_label_1
_geom_bond_atom_site_label_2
_geom_bond_distance
_geom_bond_site_symmetry_2
_ccdc_geom_bond_type
Mn0 O5 2.095 . S
Mn0 O15 2.162 . S
Mn0 O16 2.297 . S
Mn0 O24 2.385 . S
Mn0 O25 2.209 . S
Mn0 O26 2.094 . S
Mn1 O6 2.121 . S
Mn1 N8 2.257 . S
Mn1 N17 2.282 . S
Mn1 O25 2.215 . S
Mn1 O27 2.117 . S
C2 O24 1.234 . S
C2 O25 1.283 . S
C3 O15 1.281 . S
C3 O16 1.236 . S
C4 O26 1.240 . S
C4 O27 1.264 . S
O5 Mn0 2.095 . S
O5 C14 1.250 . S
O6 Mn1 2.121 . S
O6 C14 1.258 . S
C7 N8 1.326 . S
C7 C11 1.460 . S
C7 H13 0.929 . S
N8 Mn1 2.257 . S
N8 C7 1.326 . S
N8 C12 1.362 . S
C9 C10 1.258 . S
C9 C12 1.431 . S
C9 C29 1.449 . S
C10 C9 1.258 . S
C10 C11 1.477 . S
C10 H30 0.931 . S
C11 C7 1.460 . S
C11 C10 1.477 . S
C11 H31 0.930 . S
C12 N8 1.362 . S
C12 C9 1.431 . S
C12 C22 1.476 . S
H13 C7 0.929 . S
C14 O5 1.250 . S
C14 O6 1.258 . S
O15 Mn0 2.162 . S
O15 C3 1.281 . S
O16 Mn0 2.297 . S
O16 C3 1.236 . S
N17 Mn1 2.282 . S
N17 C18 1.328 . S
N17 C22 1.318 . S
C18 N17 1.328 . S
C18 C19 1.457 . S
C18 H23 0.929 . S
C19 C18 1.457 . S
C19 C20 1.291 . S
C19 H32 0.931 . S
C20 C19 1.291 . S
C20 C21 1.373 . S
C20 H33 0.929 . S
C21 C20 1.373 . S
C21 C22 1.396 . S
C21 C28 1.403 . S
C22 C12 1.476 . S
C22 N17 1.318 . S
C22 C21 1.396 . S
H23 C18 0.929 . S
O24 Mn0 2.385 . S
O24 C2 1.234 . S
O25 Mn0 2.209 . S
O25 Mn1 2.215 . S
O25 C2 1.283 . S
O26 Mn0 2.094 . S
O26 C4 1.240 . S
O27 Mn1 2.117 . S
O27 C4 1.264 . S
C28 C21 1.403 . S
C28 C29 1.399 . S
C28 H34 0.929 . S
C29 C9 1.449 . S
C29 C28 1.399 . S
C29 H35 0.930 . S
H30 C10 0.931 . S
H31 C11 0.930 . S
H32 C19 0.931 . S
H33 C20 0.929 . S
H34 C28 0.929 . S
H35 C29 0.930 . S
Mn36 O41 2.095 . S
Mn36 O51 2.162 . S
Mn36 O52 2.297 . S
Mn36 O60 2.385 . S
Mn36 O61 2.209 . S
Mn36 O62 2.094 . S
Mn37 O42 2.121 . S
Mn37 N44 2.257 . S
Mn37 N53 2.282 . S
Mn37 O61 2.215 . S
Mn37 O63 2.117 . S
C38 O60 1.234 . S
C38 O61 1.283 . S
C39 O51 1.281 . S
C39 O52 1.236 . S
C40 O62 1.240 . S
C40 O63 1.264 . S
O41 Mn36 2.095 . S
O41 C50 1.250 . S
O42 Mn37 2.121 . S
O42 C50 1.258 . S
C43 N44 1.326 . S
C43 C47 1.460 . S
C43 H49 0.929 . S
N44 Mn37 2.257 . S
N44 C43 1.326 . S
N44 C48 1.362 . S
C45 C46 1.258 . S
C45 C48 1.431 . S
C45 C65 1.449 . S
C46 C45 1.258 . S
C46 C47 1.477 . S
C46 H66 0.931 . S
C47 C43 1.460 . S
C47 C46 1.477 . S
C47 H67 0.930 . S
C48 N44 1.362 . S
C48 C45 1.431 . S
C48 C58 1.476 . S
H49 C43 0.929 . S
C50 O41 1.250 . S
C50 O42 1.258 . S
O51 Mn36 2.162 . S
O51 C39 1.281 . S
O52 Mn36 2.297 . S
O52 C39 1.236 . S
N53 Mn37 2.282 . S
N53 C54 1.328 . S
N53 C58 1.318 . S
C54 N53 1.328 . S
C54 C55 1.457 . S
C54 H59 0.929 . S
C55 C54 1.457 . S
C55 C56 1.291 . S
C55 H68 0.931 . S
C56 C55 1.291 . S
C56 C57 1.373 . S
C56 H69 0.929 . S
C57 C56 1.373 . S
C57 C58 1.396 . S
C57 C64 1.403 . S
C58 C48 1.476 . S
C58 N53 1.318 . S
C58 C57 1.396 . S
H59 C54 0.929 . S
O60 Mn36 2.385 . S
O60 C38 1.234 . S
O61 Mn36 2.209 . S
O61 Mn37 2.215 . S
O61 C38 1.283 . S
O62 Mn36 2.094 . S
O62 C40 1.240 . S
O63 Mn37 2.117 . S
O63 C40 1.264 . S
C64 C57 1.403 . S
C64 C65 1.399 . S
C64 H70 0.929 . S
C65 C45 1.449 . S
C65 C64 1.399 . S
C65 H71 0.930 . S
H66 C46 0.931 . S
H67 C47 0.930 . S
H68 C55 0.931 . S
H69 C56 0.929 . S
H70 C64 0.929 . S
H71 C65 0.930 . S
Mn72 O77 2.095 . S
Mn72 O87 2.162 . S
Mn72 O88 2.297 . S
Mn72 O96 2.385 . S
Mn72 O97 2.209 . S
Mn72 O98 2.094 . S
Mn73 O78 2.121 . S
Mn73 N80 2.257 . S
Mn73 N89 2.282 . S
Mn73 O97 2.215 . S
Mn73 O99 2.117 . S
C74 O96 1.234 . S
C74 O97 1.283 . S
C75 O87 1.281 . S
C75 O88 1.236 . S
C76 O98 1.240 . S
C76 O99 1.264 . S
O77 Mn72 2.095 . S
O77 C86 1.250 . S
O78 Mn73 2.121 . S
O78 C86 1.258 . S
C79 N80 1.326 . S
C79 C83 1.460 . S
C79 H85 0.929 . S
N80 Mn73 2.257 . S
N80 C79 1.326 . S
N80 C84 1.362 . S
C81 C82 1.258 . S
C81 C84 1.431 . S
C81 C101 1.449 . S
C82 C81 1.258 . S
C82 C83 1.477 . S
C82 H102 0.931 . S
C83 C79 1.460 . S
C83 C82 1.477 . S
C83 H103 0.930 . S
C84 N80 1.362 . S
C84 C81 1.431 . S
C84 C94 1.476 . S
H85 C79 0.929 . S
C86 O77 1.250 . S
C86 O78 1.258 . S
O87 Mn72 2.162 . S
O87 C75 1.281 . S
O88 Mn72 2.297 . S
O88 C75 1.236 . S
N89 Mn73 2.282 . S
N89 C90 1.328 . S
N89 C94 1.318 . S
C90 N89 1.328 . S
C90 C91 1.457 . S
C90 H95 0.929 . S
C91 C90 1.457 . S
C91 C92 1.291 . S
C91 H104 0.931 . S
C92 C91 1.291 . S
C92 C93 1.373 . S
C92 H105 0.929 . S
C93 C92 1.373 . S
C93 C94 1.396 . S
C93 C100 1.403 . S
C94 C84 1.476 . S
C94 N89 1.318 . S
C94 C93 1.396 . S
H95 C90 0.929 . S
O96 Mn72 2.385 . S
O96 C74 1.234 . S
O97 Mn72 2.209 . S
O97 Mn73 2.215 . S
O97 C74 1.283 . S
O98 Mn72 2.094 . S
O98 C76 1.240 . S
O99 Mn73 2.117 . S
O99 C76 1.264 . S
C100 C93 1.403 . S
C100 C101 1.399 . S
C100 H106 0.929 . S
C101 C81 1.449 . S
C101 C100 1.399 . S
C101 H107 0.930 . S
H102 C82 0.931 . S
H103 C83 0.930 . S
H104 C91 0.931 . S
H105 C92 0.929 . S
H106 C100 0.929 . S
H107 C101 0.930 . S
Mn108 O113 2.095 . S
Mn108 O123 2.162 . S
Mn108 O124 2.297 . S
Mn108 O132 2.385 . S
Mn108 O133 2.209 . S
Mn108 O134 2.094 . S
Mn109 O114 2.121 . S
Mn109 N116 2.257 . S
Mn109 N125 2.282 . S
Mn109 O133 2.215 . S
Mn109 O135 2.117 . S
C110 O132 1.234 . S
C110 O133 1.283 . S
C111 O123 1.281 . S
C111 O124 1.236 . S
C112 O134 1.240 . S
C112 O135 1.264 . S
O113 Mn108 2.095 . S
O113 C122 1.250 . S
O114 Mn109 2.121 . S
O114 C122 1.258 . S
C115 N116 1.326 . S
C115 C119 1.460 . S
C115 H121 0.929 . S
N116 Mn109 2.257 . S
N116 C115 1.326 . S
N116 C120 1.362 . S
C117 C118 1.258 . S
C117 C120 1.431 . S
C117 C137 1.449 . S
C118 C117 1.258 . S
C118 C119 1.477 . S
C118 H138 0.931 . S
C119 C115 1.460 . S
C119 C118 1.477 . S
C119 H139 0.930 . S
C120 N116 1.362 . S
C120 C117 1.431 . S
C120 C130 1.476 . S
H121 C115 0.929 . S
C122 O113 1.250 . S
C122 O114 1.258 . S
O123 Mn108 2.162 . S
O123 C111 1.281 . S
O124 Mn108 2.297 . S
O124 C111 1.236 . S
N125 Mn109 2.282 . S
N125 C126 1.328 . S
N125 C130 1.318 . S
C126 N125 1.328 . S
C126 C127 1.457 . S
C126 H131 0.929 . S
C127 C126 1.457 . S
C127 C128 1.291 . S
C127 H140 0.931 . S
C128 C127 1.291 . S
C128 C129 1.373 . S
C128 H141 0.929 . S
C129 C128 1.373 . S
C129 C130 1.396 . S
C129 C136 1.403 . S
C130 C120 1.476 . S
C130 N125 1.318 . S
C130 C129 1.396 . S
H131 C126 0.929 . S
O132 Mn108 2.385 . S
O132 C110 1.234 . S
O133 Mn108 2.209 . S
O133 Mn109 2.215 . S
O133 C110 1.283 . S
O134 Mn108 2.094 . S
O134 C112 1.240 . S
O135 Mn109 2.117 . S
O135 C112 1.264 . S
C136 C129 1.403 . S
C136 C137 1.399 . S
C136 H142 0.929 . S
C137 C117 1.449 . S
C137 C136 1.399 . S
C137 H143 0.930 . S
H138 C118 0.931 . S
H139 C119 0.930 . S
H140 C127 0.931 . S
H141 C128 0.929 . S
H142 C136 0.929 . S
H143 C137 0.930 . S
Mn144 O149 2.095 . S
Mn144 O159 2.162 . S
Mn144 O160 2.297 . S
Mn144 O168 2.385 . S
Mn144 O169 2.209 . S
Mn144 O170 2.094 . S
Mn145 O150 2.121 . S
Mn145 N152 2.257 . S
Mn145 N161 2.282 . S
Mn145 O169 2.215 . S
Mn145 O171 2.117 . S
C146 O168 1.234 . S
C146 O169 1.283 . S
C147 O159 1.281 . S
C147 O160 1.236 . S
C148 O170 1.240 . S
C148 O171 1.264 . S
O149 Mn144 2.095 . S
O149 C158 1.250 . S
O150 Mn145 2.121 . S
O150 C158 1.258 . S
C151 N152 1.326 . S
C151 C155 1.460 . S
C151 H157 0.929 . S
N152 Mn145 2.257 . S
N152 C151 1.326 . S
N152 C156 1.362 . S
C153 C154 1.258 . S
C153 C156 1.431 . S
C153 C173 1.449 . S
C154 C153 1.258 . S
C154 C155 1.477 . S
C154 H174 0.931 . S
C155 C151 1.460 . S
C155 C154 1.477 . S
C155 H175 0.930 . S
C156 N152 1.362 . S
C156 C153 1.431 . S
C156 C166 1.476 . S
H157 C151 0.929 . S
C158 O149 1.250 . S
C158 O150 1.258 . S
O159 Mn144 2.162 . S
O159 C147 1.281 . S
O160 Mn144 2.297 . S
O160 C147 1.236 . S
N161 Mn145 2.282 . S
N161 C162 1.328 . S
N161 C166 1.318 . S
C162 N161 1.328 . S
C162 C163 1.457 . S
C162 H167 0.929 . S
C163 C162 1.457 . S
C163 C164 1.291 . S
C163 H176 0.931 . S
C164 C163 1.291 . S
C164 C165 1.373 . S
C164 H177 0.929 . S
C165 C164 1.373 . S
C165 C166 1.396 . S
C165 C172 1.403 . S
C166 C156 1.476 . S
C166 N161 1.318 . S
C166 C165 1.396 . S
H167 C162 0.929 . S
O168 Mn144 2.385 . S
O168 C146 1.234 . S
O169 Mn144 2.209 . S
O169 Mn145 2.215 . S
O169 C146 1.283 . S
O170 Mn144 2.094 . S
O170 C148 1.240 . S
O171 Mn145 2.117 . S
O171 C148 1.264 . S
C172 C165 1.403 . S
C172 C173 1.399 . S
C172 H178 0.929 . S
C173 C153 1.449 . S
C173 C172 1.399 . S
C173 H179 0.930 . S
H174 C154 0.931 . S
H175 C155 0.930 . S
H176 C163 0.931 . S
H177 C164 0.929 . S
H178 C172 0.929 . S
H179 C173 0.930 . S
Mn180 O185 2.095 . S
Mn180 O195 2.162 . S
Mn180 O196 2.297 . S
Mn180 O204 2.385 . S
Mn180 O205 2.209 . S
Mn180 O206 2.094 . S
Mn181 O186 2.121 . S
Mn181 N188 2.257 . S
Mn181 N197 2.282 . S
Mn181 O205 2.215 . S
Mn181 O207 2.117 . S
C182 O204 1.234 . S
C182 O205 1.283 . S
C183 O195 1.281 . S
C183 O196 1.236 . S
C184 O206 1.240 . S
C184 O207 1.264 . S
O185 Mn180 2.095 . S
O185 C194 1.250 . S
O186 Mn181 2.121 . S
O186 C194 1.258 . S
C187 N188 1.326 . S
C187 C191 1.460 . S
C187 H193 0.929 . S
N188 Mn181 2.257 . S
N188 C187 1.326 . S
N188 C192 1.362 . S
C189 C190 1.258 . S
C189 C192 1.431 . S
C189 C209 1.449 . S
C190 C189 1.258 . S
C190 C191 1.477 . S
C190 H210 0.931 . S
C191 C187 1.460 . S
C191 C190 1.477 . S
C191 H211 0.930 . S
C192 N188 1.362 . S
C192 C189 1.431 . S
C192 C202 1.476 . S
H193 C187 0.929 . S
C194 O185 1.250 . S
C194 O186 1.258 . S
O195 Mn180 2.162 . S
O195 C183 1.281 . S
O196 Mn180 2.297 . S
O196 C183 1.236 . S
N197 Mn181 2.282 . S
N197 C198 1.328 . S
N197 C202 1.318 . S
C198 N197 1.328 . S
C198 C199 1.457 . S
C198 H203 0.929 . S
C199 C198 1.457 . S
C199 C200 1.291 . S
C199 H212 0.931 . S
C200 C199 1.291 . S
C200 C201 1.373 . S
C200 H213 0.929 . S
C201 C200 1.373 . S
C201 C202 1.396 . S
C201 C208 1.403 . S
C202 C192 1.476 . S
C202 N197 1.318 . S
C202 C201 1.396 . S
H203 C198 0.929 . S
O204 Mn180 2.385 . S
O204 C182 1.234 . S
O205 Mn180 2.209 . S
O205 Mn181 2.215 . S
O205 C182 1.283 . S
O206 Mn180 2.094 . S
O206 C184 1.240 . S
O207 Mn181 2.117 . S
O207 C184 1.264 . S
C208 C201 1.403 . S
C208 C209 1.399 . S
C208 H214 0.929 . S
C209 C189 1.449 . S
C209 C208 1.399 . S
C209 H215 0.930 . S
H210 C190 0.931 . S
H211 C191 0.930 . S
H212 C199 0.931 . S
H213 C200 0.929 . S
H214 C208 0.929 . S
H215 C209 0.930 . S
C216 C217 1.387 . S
C216 H220 0.950 . S
C216 C225 1.390 . S
C217 C216 1.387 . S
C217 C219 1.387 . S
H218 C225 0.950 . S
C219 C217 1.387 . S
C219 C221 1.390 . S
C219 H223 0.950 . S
H220 C216 0.950 . S
C221 C219 1.390 . S
C221 C222 1.387 . S
C221 H224 0.950 . S
C222 C221 1.387 . S
C222 C225 1.387 . S
H223 C219 0.950 . S
H224 C221 0.950 . S
C225 C216 1.390 . S
C225 H218 0.950 . S
C225 C222 1.387 . S
C226 C227 1.387 . S
C226 H230 0.950 . S
C226 C235 1.390 . S
C227 C226 1.387 . S
C227 C229 1.387 . S
H228 C235 0.950 . S
C229 C227 1.387 . S
C229 C231 1.390 . S
C229 H233 0.950 . S
H230 C226 0.950 . S
C231 C229 1.390 . S
C231 C232 1.387 . S
C231 H234 0.950 . S
C232 C231 1.387 . S
C232 C235 1.387 . S
H233 C229 0.950 . S
H234 C231 0.950 . S
C235 C226 1.390 . S
C235 H228 0.950 . S
C235 C232 1.387 . S
C236 C237 1.387 . S
C236 H240 0.950 . S
C236 C245 1.390 . S
C237 C236 1.387 . S
C237 C239 1.387 . S
H238 C245 0.950 . S
C239 C237 1.387 . S
C239 C241 1.390 . S
C239 H243 0.950 . S
H240 C236 0.950 . S
C241 C239 1.390 . S
C241 C242 1.387 . S
C241 H244 0.950 . S
C242 C241 1.387 . S
C242 C245 1.387 . S
H243 C239 0.950 . S
H244 C241 0.950 . S
C245 C236 1.390 . S
C245 H238 0.950 . S
C245 C242 1.387 . S
C246 C247 1.387 . S
C246 H250 0.950 . S
C246 C255 1.390 . S
C247 C246 1.387 . S
C247 C249 1.387 . S
H248 C255 0.950 . S
C249 C247 1.387 . S
C249 C251 1.390 . S
C249 H253 0.950 . S
H250 C246 0.950 . S
C251 C249 1.390 . S
C251 C252 1.387 . S
C251 H254 0.950 . S
C252 C251 1.387 . S
C252 C255 1.387 . S
H253 C249 0.950 . S
H254 C251 0.950 . S
C255 C246 1.390 . S
C255 H248 0.950 . S
C255 C252 1.387 . S
C256 C257 1.387 . S
C256 H260 0.950 . S
C256 C265 1.390 . S
C257 C256 1.387 . S
C257 C259 1.387 . S
H258 C265 0.950 . S
C259 C257 1.387 . S
C259 C261 1.390 . S
C259 H263 0.950 . S
H260 C256 0.950 . S
C261 C259 1.390 . S
C261 C262 1.387 . S
C261 H264 0.950 . S
C262 C261 1.387 . S
C262 C265 1.387 . S
H263 C259 0.950 . S
H264 C261 0.950 . S
C265 C256 1.390 . S
C265 H258 0.950 . S
C265 C262 1.387 . S
C266 C267 1.387 . S
C266 H270 0.950 . S
C266 C275 1.390 . S
C267 C266 1.387 . S
C267 C269 1.387 . S
H268 C275 0.950 . S
C269 C267 1.387 . S
C269 C271 1.390 . S
C269 H273 0.950 . S
H270 C266 0.950 . S
C271 C269 1.390 . S
C271 C272 1.387 . S
C271 H274 0.950 . S
C272 C271 1.387 . S
C272 C275 1.387 . S
H273 C269 0.950 . S
H274 C271 0.950 . S
C275 C266 1.390 . S
C275 H268 0.950 . S
C275 C272 1.387 . S
C276 C277 1.387 1_554 S
C276 H280 0.950 . S
C276 C285 1.390 . S
C277 C276 1.387 1_556 S
C277 C279 1.387 1_565 S
H278 C285 0.950 . S
C279 C277 1.387 1_545 S
C279 C281 1.390 1_556 S
C279 H283 0.950 . S
H280 C276 0.950 . S
C281 C279 1.390 1_554 S
C281 C282 1.387 . S
C281 H284 0.950 . S
C282 C281 1.387 . S
C282 C285 1.387 1_545 S
H283 C279 0.950 . S
H284 C281 0.950 . S
C285 C276 1.390 . S
C285 H278 0.950 . S
C285 C282 1.387 1_565 S
C286 C287 1.387 . S
C286 H290 0.950 . S
C286 C295 1.390 . S
C287 C286 1.387 . S
C287 C289 1.387 . S
H288 C295 0.950 . S
C289 C287 1.387 . S
C289 C291 1.390 . S
C289 H293 0.950 . S
H290 C286 0.950 . S
C291 C289 1.390 . S
C291 C292 1.387 . S
C291 H294 0.950 . S
C292 C291 1.387 . S
C292 C295 1.387 . S
H293 C289 0.950 . S
H294 C291 0.950 . S
C295 C286 1.390 . S
C295 H288 0.950 . S
C295 C292 1.387 . S
C296 C297 1.387 . S
C296 H300 0.950 . S
C296 C305 1.390 1_456 S
C297 C296 1.387 . S
C297 C299 1.387 . S
H298 C305 0.950 . S
C299 C297 1.387 . S
C299 C301 1.390 1_456 S
C299 H303 0.950 . S
H300 C296 0.950 . S
C301 C299 1.390 1_654 S
C301 C302 1.387 . S
C301 H304 0.950 . S
C302 C301 1.387 . S
C302 C305 1.387 . S
H303 C299 0.950 . S
H304 C301 0.950 . S
C305 C296 1.390 1_654 S
C305 H298 0.950 . S
C305 C302 1.387 . S
C306 C307 1.387 1_565 S
C306 H310 0.950 . S
C306 C315 1.390 . S
C307 C306 1.387 1_545 S
C307 C309 1.387 . S
H308 C315 0.950 . S
C309 C307 1.387 . S
C309 C311 1.390 . S
C309 H313 0.950 . S
H310 C306 0.950 . S
C311 C309 1.390 . S
C311 C312 1.387 1_545 S
C311 H314 0.950 . S
C312 C311 1.387 1_565 S
C312 C315 1.387 . S
H313 C309 0.950 . S
H314 C311 0.950 . S
C315 C306 1.390 . S
C315 H308 0.950 . S
C315 C312 1.387 . S
C316 C317 1.387 . S
C316 H320 0.950 . S
C316 C325 1.390 1_556 S
C317 C316 1.387 . S
C317 C319 1.387 . S
H318 C325 0.950 . S
C319 C317 1.387 . S
C319 C321 1.390 1_556 S
C319 H323 0.950 . S
H320 C316 0.950 . S
C321 C319 1.390 1_554 S
C321 C322 1.387 . S
C321 H324 0.950 . S
C322 C321 1.387 . S
C322 C325 1.387 . S
H323 C319 0.950 . S
H324 C321 0.950 . S
C325 C316 1.390 1_554 S
C325 H318 0.950 . S
C325 C322 1.387 . S
C326 C327 1.387 1_655 S
C326 H330 0.950 . S
C326 C335 1.390 . S
C327 C326 1.387 1_455 S
C327 C329 1.387 . S
H328 C335 0.950 . S
C329 C327 1.387 . S
C329 C331 1.390 . S
C329 H333 0.950 . S
H330 C326 0.950 . S
C331 C329 1.390 . S
C331 C332 1.387 1_455 S
C331 H334 0.950 . S
C332 C331 1.387 1_655 S
C332 C335 1.387 . S
H333 C329 0.950 . S
H334 C331 0.950 . S
C335 C326 1.390 . S
C335 H328 0.950 . S
C335 C332 1.387 . S
C217 C3 1.262 . S
C222 C147 1.235 . S
C227 C38 1.259 . S
C232 C182 1.262 . S
C237 C2 1.258 . S
C242 C74 1.263 . S
C247 C111 1.237 . S
C252 C39 1.262 . S
C257 C146 1.260 . S
C262 C75 1.243 . S
C267 C110 1.261 . S
C272 C183 1.240 . S
C277 C112 1.423 . S
C282 C14 1.362 . S
C287 C158 1.366 . S
C292 C40 1.439 . S
C297 C184 1.454 . S
C302 C76 1.454 . S
C307 C4 1.439 . S
C312 C122 1.367 . S
C317 C50 1.363 . S
C322 C148 1.423 . S
C327 C194 1.370 . S
C332 C86 1.372 . S
