# Generated by pormake.
# Topology wnr, (7)-cn, num edge types: 1
# Building blocks:
#     Node 0, Type 0, BuildingBlock: NUHQUE_clean_sbu_2, # of connection points: 7
#     Node 1, Type 0, BuildingBlock: NUHQUE_clean_sbu_2, # of connection points: 7
#     Node 2, Type 0, BuildingBlock: NUHQUE_clean_sbu_2, # of connection points: 7
#     Node 3, Type 0, BuildingBlock: NUHQUE_clean_sbu_2, # of connection points: 7
#     Node 4, Type 0, BuildingBlock: NUHQUE_clean_sbu_2, # of connection points: 7
#     Node 5, Type 0, BuildingBlock: NUHQUE_clean_sbu_2, # of connection points: 7
#     Edge 6, Type (0, 0), BuildingBlock: XIVTED_clean_linker_0, # of connection points: 2
#     Edge 7, Type (0, 0), BuildingBlock: XIVTED_clean_linker_0, # of connection points: 2
#     Edge 8, Type (0, 0), BuildingBlock: XIVTED_clean_linker_0, # of connection points: 2
#     Edge 9, Type (0, 0), BuildingBlock: XIVTED_clean_linker_0, # of connection points: 2
#     Edge 10, Type (0, 0), BuildingBlock: XIVTED_clean_linker_0, # of connection points: 2
#     Edge 11, Type (0, 0), BuildingBlock: XIVTED_clean_linker_0, # of connection points: 2
#     Edge 12, Type (0, 0), BuildingBlock: XIVTED_clean_linker_0, # of connection points: 2
#     Edge 13, Type (0, 0), BuildingBlock: XIVTED_clean_linker_0, # of connection points: 2
#     Edge 14, Type (0, 0), BuildingBlock: XIVTED_clean_linker_0, # of connection points: 2
#     Edge 15, Type (0, 0), BuildingBlock: XIVTED_clean_linker_0, # of connection points: 2
#     Edge 16, Type (0, 0), BuildingBlock: XIVTED_clean_linker_0, # of connection points: 2
#     Edge 17, Type (0, 0), BuildingBlock: XIVTED_clean_linker_0, # of connection points: 2
#     Edge 18, Type (0, 0), BuildingBlock: XIVTED_clean_linker_0, # of connection points: 2
#     Edge 19, Type (0, 0), BuildingBlock: XIVTED_clean_linker_0, # of connection points: 2
#     Edge 20, Type (0, 0), BuildingBlock: XIVTED_clean_linker_0, # of connection points: 2
#     Edge 21, Type (0, 0), BuildingBlock: XIVTED_clean_linker_0, # of connection points: 2
#     Edge 22, Type (0, 0), BuildingBlock: XIVTED_clean_linker_0, # of connection points: 2
#     Edge 23, Type (0, 0), BuildingBlock: XIVTED_clean_linker_0, # of connection points: 2
#     Edge 24, Type (0, 0), BuildingBlock: XIVTED_clean_linker_0, # of connection points: 2
#     Edge 25, Type (0, 0), BuildingBlock: XIVTED_clean_linker_0, # of connection points: 2
#     Edge 26, Type (0, 0), BuildingBlock: XIVTED_clean_linker_0, # of connection points: 2
# Relax obj value: 0.187
# Max RMSD: 0.215
# Mean RMSD: 0.215
data_MOF--net-wnr--node1-NUHQUE_clean_sbu_2--edge1-XIVTED_clean_linker_0
_symmetry_space_group_name_H-M    P1
_symmetry_Int_Tables_number       1
_symmetry_cell_setting            triclinic
loop_
_symmetry_equiv_pos_as_xyz
'x, y, z'
_cell_length_a     46.007029
_cell_length_b     45.986032
_cell_length_c     18.378747
_cell_angle_alpha  89.919987
_cell_angle_beta   90.053683
_cell_angle_gamma 119.79165
loop_
_atom_site_label
_atom_site_type_symbol
_atom_site_fract_x
_atom_site_fract_y
_atom_site_fract_z
_atom_type_partial_charge
O0 O 0.27006 0.4559 0.88392 0.0
Tb1 Tb 0.29582 0.48039 0.9845 0.0
Eu2 Eu 0.24547 0.42341 0.13527 0.0
C3 C 0.28014 0.43894 0.84343 0.0
O4 O 0.30282 0.4323 0.86938 0.0
C5 C 0.30612 0.42091 0.04808 0.0
O6 O 0.24742 0.41564 0.25719 0.0
C7 C 0.18389 0.39 0.08987 0.0
C8 C 0.26837 0.44039 0.29955 0.0
O9 O 0.29004 0.46908 0.26995 0.0
C10 C 0.2576 0.49634 0.10355 0.0
C11 C 0.15034 0.38678 0.09649 0.0
C12 C 0.13191 0.38313 0.03255 0.0
C13 C 0.09921 0.37795 0.03663 0.0
C14 C 0.08511 0.37672 0.10452 0.0
C15 C 0.10222 0.37847 0.1686 0.0
C16 C 0.13499 0.38366 0.16487 0.0
O17 O 0.3194 0.45227 0.02568 0.0
O18 O 0.27694 0.40461 0.08127 0.0
O19 O 0.32772 0.51576 0.90078 0.0
O20 O 0.33718 0.53068 0.0112 0.0
C21 C 0.34679 0.53998 0.94445 0.0
O22 O 0.26195 0.47789 0.15192 0.0
O23 O 0.25883 0.49114 0.0335 0.0
O24 O 0.19525 0.38101 0.14619 0.0
O25 O 0.20727 0.41639 0.05536 0.0
H26 H 0.14256 0.38328 0.97985 0.0
H27 H 0.0593 0.37123 0.10758 0.0
H28 H 0.14794 0.38433 0.21465 0.0
O29 O 0.57653 0.80334 0.55229 0.0
Tb30 Tb 0.558 0.81586 0.64907 0.0
Eu31 Eu 0.60419 0.8269 0.80944 0.0
C32 C 0.60283 0.82563 0.51581 0.0
O33 O 0.62235 0.85521 0.54457 0.0
C34 C 0.61052 0.88928 0.71592 0.0
O35 O 0.61352 0.82872 0.93023 0.0
C36 C 0.64198 0.80725 0.7464 0.0
C37 C 0.58971 0.82358 0.97666 0.0
O38 O 0.56086 0.81882 0.95211 0.0
C39 C 0.53462 0.76288 0.77514 0.0
C40 C 0.6479 0.77838 0.74973 0.0
C41 C 0.6516 0.76455 0.68438 0.0
C42 C 0.65791 0.73763 0.68604 0.0
C43 C 0.66046 0.72462 0.75288 0.0
C44 C 0.65849 0.73893 0.81822 0.0
C45 C 0.65205 0.76579 0.81694 0.0
O46 O 0.59488 0.86942 0.66024 0.0
O47 O 0.61313 0.87808 0.78011 0.0
O48 O 0.52263 0.81089 0.56418 0.0
O49 O 0.51116 0.81587 0.67366 0.0
C50 C 0.50072 0.81218 0.60647 0.0
O51 O 0.55107 0.78587 0.8243 0.0
O52 O 0.54306 0.76857 0.70601 0.0
O53 O 0.65138 0.82716 0.80332 0.0
O54 O 0.61337 0.80187 0.71839 0.0
H55 H 0.65018 0.77504 0.63251 0.0
H56 H 0.66667 0.70472 0.75407 0.0
H57 H 0.65084 0.77705 0.86778 0.0
O58 O 0.23547 0.76925 0.21187 0.0
Tb59 Tb 0.2205 0.73942 0.31083 0.0
Eu60 Eu 0.20837 0.77024 0.47144 0.0
C61 C 0.21608 0.77825 0.17744 0.0
O62 O 0.18886 0.7744 0.2093 0.0
C63 C 0.1477 0.71832 0.37557 0.0
O64 O 0.20755 0.77871 0.59205 0.0
C65 C 0.22528 0.82581 0.40294 0.0
C66 C 0.21281 0.75988 0.638 0.0
O67 O 0.21664 0.7353 0.61264 0.0
C68 C 0.27444 0.76834 0.43658 0.0
C69 C 0.2539 0.86051 0.40218 0.0
C70 C 0.26691 0.87644 0.33492 0.0
C71 C 0.2942 0.90924 0.33295 0.0
C72 C 0.30832 0.92602 0.39793 0.0
C73 C 0.29489 0.9113 0.46509 0.0
C74 C 0.26767 0.87841 0.46745 0.0
O75 O 0.16825 0.72862 0.31923 0.0
O76 O 0.15879 0.72612 0.44254 0.0
O77 O 0.22276 0.70682 0.22786 0.0
O78 O 0.21679 0.69097 0.33802 0.0
C79 C 0.21984 0.68321 0.27121 0.0
O80 O 0.25108 0.76058 0.48553 0.0
O81 O 0.26849 0.77028 0.36704 0.0
O82 O 0.20645 0.8163 0.46167 0.0
O83 O 0.23078 0.8024 0.37651 0.0
H84 H 0.25566 0.86354 0.28445 0.0
H85 H 0.32856 0.95185 0.39606 0.0
H86 H 0.25721 0.86707 0.51965 0.0
O87 O 0.46347 0.25878 0.11587 0.0
Tb88 Tb 0.48945 0.28518 0.01698 0.0
Eu89 Eu 0.43346 0.23567 0.86515 0.0
C90 C 0.4473 0.26963 0.15676 0.0
O91 O 0.44216 0.29346 0.13166 0.0
C92 C 0.43126 0.29654 0.95126 0.0
O93 O 0.42546 0.23768 0.7433 0.0
C94 C 0.40024 0.17401 0.91038 0.0
C95 C 0.45039 0.25761 0.70008 0.0
O96 O 0.47965 0.27837 0.72867 0.0
C97 C 0.50609 0.24743 0.89827 0.0
C98 C 0.3978 0.14077 0.90404 0.0
C99 C 0.39466 0.12259 0.96813 0.0
C100 C 0.39026 0.09016 0.96434 0.0
C101 C 0.38936 0.07612 0.89656 0.0
C102 C 0.39056 0.09293 0.83232 0.0
C103 C 0.39495 0.12542 0.83581 0.0
O104 O 0.46268 0.30957 0.97276 0.0
O105 O 0.41457 0.26715 0.91907 0.0
O106 O 0.52362 0.3165 0.10295 0.0
O107 O 0.5403 0.32625 0.99364 0.0
C108 C 0.54858 0.33557 0.06089 0.0
O109 O 0.48798 0.25204 0.84948 0.0
O110 O 0.50045 0.24836 0.96818 0.0
O111 O 0.39146 0.18524 0.85349 0.0
O112 O 0.42612 0.1976 0.94573 0.0
H113 H 0.39456 0.13319 0.02073 0.0
H114 H 0.3844 0.05046 0.89372 0.0
H115 H 0.39518 0.13812 0.78592 0.0
O116 O 0.77875 0.22722 0.78953 0.0
Tb117 Tb 0.74981 0.21208 0.68948 0.0
Eu118 Eu 0.77926 0.19897 0.52931 0.0
C119 C 0.78871 0.20852 0.82359 0.0
O120 O 0.7863 0.18202 0.79104 0.0
C121 C 0.72785 0.13917 0.62652 0.0
O122 O 0.78737 0.19782 0.40868 0.0
C123 C 0.8345 0.21447 0.59762 0.0
C124 C 0.76871 0.20346 0.36302 0.0
O125 O 0.74446 0.20772 0.38877 0.0
C126 C 0.77957 0.26619 0.56404 0.0
C127 C 0.8695 0.24249 0.59855 0.0
C128 C 0.88545 0.25518 0.66591 0.0
C129 C 0.91849 0.282 0.66805 0.0
C130 C 0.9355 0.29595 0.60317 0.0
C131 C 0.9207 0.28285 0.53593 0.0
C132 C 0.88757 0.2561 0.53337 0.0
O133 O 0.73978 0.16003 0.68211 0.0
O134 O 0.73441 0.15006 0.55922 0.0
O135 O 0.71638 0.21407 0.77063 0.0
O136 O 0.70148 0.20803 0.65982 0.0
C137 C 0.6931 0.21098 0.72615 0.0
O138 O 0.77121 0.24271 0.51512 0.0
O139 O 0.78126 0.26008 0.63361 0.0
O140 O 0.82461 0.19574 0.53877 0.0
O141 O 0.81161 0.22071 0.62413 0.0
H142 H 0.87236 0.24409 0.71632 0.0
H143 H 0.96147 0.31585 0.60517 0.0
H144 H 0.87616 0.24592 0.48109 0.0
O145 O 0.81033 0.56482 0.45032 0.0
Tb146 Tb 0.82507 0.54883 0.35279 0.0
Eu147 Eu 0.83668 0.59241 0.19074 0.0
C148 C 0.83042 0.59274 0.48498 0.0
O149 O 0.85835 0.61511 0.4538 0.0
C150 C 0.89791 0.60012 0.28651 0.0
O151 O 0.83739 0.60114 0.06988 0.0
C152 C 0.81879 0.63114 0.2558 0.0
C153 C 0.83233 0.5771 0.02423 0.0
O154 O 0.82864 0.54877 0.04982 0.0
C155 C 0.7718 0.52363 0.2266 0.0
C156 C 0.79042 0.63782 0.25388 0.0
C157 C 0.77701 0.6414 0.31997 0.0
C158 C 0.75028 0.64794 0.31962 0.0
C159 C 0.737 0.65086 0.25357 0.0
C160 C 0.75081 0.64893 0.18744 0.0
C161 C 0.77756 0.6423 0.18736 0.0
O162 O 0.87768 0.58887 0.34332 0.0
O163 O 0.88674 0.59863 0.22003 0.0
O164 O 0.82238 0.51421 0.43716 0.0
O165 O 0.82764 0.50335 0.32736 0.0
C166 C 0.82466 0.49296 0.39452 0.0
O167 O 0.79496 0.53966 0.1775 0.0
O168 O 0.77739 0.5321 0.29578 0.0
O169 O 0.83846 0.64035 0.19843 0.0
O170 O 0.81277 0.60218 0.28301 0.0
H171 H 0.78762 0.63961 0.37136 0.0
H172 H 0.71714 0.65714 0.2538 0.0
H173 H 0.78842 0.64101 0.13601 0.0
H174 H 0.06677 0.40921 0.98242 0.0
H175 H 0.93778 0.24757 0.75717 0.0
H176 H 0.07867 0.32283 0.95205 0.0
H177 H 0.94576 0.3442 0.72733 0.0
H178 H 0.9839 0.27251 0.84535 0.0
H179 H 1.01894 0.38477 0.89867 0.0
C180 C 0.05981 0.38552 0.95629 0.0
C181 C 0.07688 0.36819 0.97281 0.0
C182 C 0.97517 0.28814 0.82042 0.0
C183 C 1.02147 0.33941 0.88027 0.0
C184 C 0.94848 0.27378 0.77137 0.0
C185 C 0.93787 0.29387 0.73602 0.0
C186 C 0.99112 0.32275 0.83413 0.0
C187 C 0.95309 0.32791 0.75442 0.0
C188 C 0.03233 0.3714 0.9094 0.0
C189 C 0.0665 0.3372 0.93932 0.0
N190 N 0.97912 0.34137 0.80199 0.0
N191 N 0.03917 0.32357 0.89519 0.0
H192 H 0.68889 0.61232 0.38206 0.0
H193 H 0.71008 0.77307 0.59421 0.0
H194 H 0.78298 0.70423 0.4009 0.0
H195 H 0.62759 0.67379 0.6341 0.0
H196 H 0.7338 0.74939 0.50898 0.0
H197 H 0.66375 0.63447 0.46745 0.0
C198 C 0.70446 0.63672 0.40636 0.0
C199 C 0.73812 0.6563 0.38601 0.0
C200 C 0.71026 0.73284 0.53561 0.0
C201 C 0.70933 0.68247 0.48001 0.0
C202 C 0.69644 0.74643 0.583 0.0
C203 C 0.66675 0.72531 0.62034 0.0
C204 C 0.6941 0.69797 0.52543 0.0
C205 C 0.6504 0.69084 0.6056 0.0
C206 C 0.69006 0.64955 0.45407 0.0
C207 C 0.75712 0.68818 0.41678 0.0
N208 N 0.66437 0.67817 0.55949 0.0
N209 N 0.74235 0.7005 0.46163 0.0
H210 H 0.26003 0.92888 0.24408 0.0
H211 H 0.42141 0.05739 0.01763 0.0
H212 H 0.35644 0.93644 0.27373 0.0
H213 H 0.33568 0.07012 0.05046 0.0
H214 H 0.39704 1.00958 0.10162 0.0
H215 H 0.28515 0.97514 0.15615 0.0
C216 C 0.28623 0.93953 0.22989 0.0
C217 C 0.30621 0.92876 0.26513 0.0
C218 C 0.38381 0.02317 0.09137 0.0
C219 C 0.33528 0.98215 0.16728 0.0
C220 C 0.3979 0.05062 0.04432 0.0
C221 C 0.3807 0.06788 0.02832 0.0
C222 C 0.352 1.01254 0.1212 0.0
C223 C 0.34995 0.05778 0.06267 0.0
C224 C 0.30069 0.96629 0.18099 0.0
C225 C 0.34024 0.9439 0.24674 0.0
N226 N 0.33634 0.03047 0.10689 0.0
N227 N 0.3538 0.97 0.19928 0.0
H228 H 0.24954 0.51124 0.24402 0.0
H229 H 0.22428 0.66572 0.13236 0.0
H230 H 0.24871 0.54156 0.02194 0.0
H231 H 0.2215 0.63419 0.35453 0.0
H232 H 0.2318 0.61943 0.09136 0.0
H233 H 0.23822 0.55507 0.28559 0.0
C234 C 0.24694 0.52705 0.20383 0.0
C235 C 0.25016 0.52263 0.12915 0.0
C236 C 0.22941 0.62244 0.14908 0.0
C237 C 0.23717 0.57308 0.17683 0.0
C238 C 0.22506 0.64888 0.17258 0.0
C239 C 0.22228 0.65381 0.24701 0.0
C240 C 0.23116 0.60068 0.20035 0.0
C241 C 0.22349 0.63123 0.29664 0.0
C242 C 0.24043 0.5521 0.22777 0.0
C243 C 0.24645 0.54395 0.07995 0.0
N244 N 0.22798 0.60571 0.27244 0.0
N245 N 0.24024 0.56824 0.10466 0.0
H246 H 0.38861 0.59357 0.02947 0.0
H247 H 0.49385 0.70816 0.69081 0.0
H248 H 0.36864 0.5609 0.80612 0.0
H249 H 0.51288 0.74139 0.91422 0.0
H250 H 0.44848 0.65383 0.732 0.0
H251 H 0.43475 0.64771 0.98853 0.0
C252 C 0.39398 0.59782 0.97183 0.0
C253 C 0.37482 0.57279 0.9211 0.0
C254 C 0.46261 0.673 0.77202 0.0
C255 C 0.42753 0.63458 0.87369 0.0
C256 C 0.48859 0.70406 0.7485 0.0
C257 C 0.50732 0.72949 0.799 0.0
C258 C 0.45522 0.66722 0.84666 0.0
C259 C 0.4992 0.72263 0.87314 0.0
C260 C 0.4203 0.62871 0.94843 0.0
C261 C 0.38281 0.57957 0.84705 0.0
N262 N 0.47381 0.69224 0.89463 0.0
N263 N 0.40852 0.60978 0.82559 0.0
H264 H 0.479 0.80683 0.46674 0.0
H265 H 0.29668 0.7737 0.57684 0.0
H266 H 0.4488 0.80803 0.68821 0.0
H267 H 0.32982 0.7817 0.35426 0.0
H268 H 0.352 0.7861 0.61825 0.0
H269 H 0.42469 0.79772 0.42452 0.0
C270 C 0.46094 0.80532 0.50652 0.0
C271 C 0.46838 0.80818 0.58113 0.0
C272 C 0.34727 0.78524 0.56035 0.0
C273 C 0.40596 0.79753 0.53314 0.0
C274 C 0.31557 0.77809 0.53646 0.0
C275 C 0.30841 0.77655 0.46169 0.0
C276 C 0.37218 0.79079 0.50931 0.0
C277 C 0.33411 0.78261 0.41234 0.0
C278 C 0.42991 0.80011 0.48234 0.0
C279 C 0.44407 0.80601 0.63022 0.0
N280 N 0.36478 0.78934 0.43701 0.0
N281 N 0.41389 0.80068 0.60538 0.0
H282 H 0.55029 0.23785 0.98153 0.0
H283 H 0.64458 0.21226 0.64041 0.0
H284 H 0.52233 0.24025 0.75822 0.0
H285 H 0.67436 0.21511 0.86399 0.0
H286 H 0.5977 0.21946 0.6818 0.0
H287 H 0.59414 0.22672 0.93903 0.0
C288 C 0.55328 0.23596 0.92358 0.0
C289 C 0.53254 0.24008 0.87352 0.0
C290 C 0.61443 0.21836 0.72177 0.0
C291 C 0.5829 0.2273 0.82422 0.0
C292 C 0.64109 0.21415 0.69813 0.0
C293 C 0.66336 0.21314 0.74884 0.0
C294 C 0.61007 0.22151 0.79663 0.0
C295 C 0.6578 0.21582 0.823 0.0
C296 C 0.57838 0.22961 0.89926 0.0
C297 C 0.53772 0.23735 0.79896 0.0
N298 N 0.63184 0.21994 0.84457 0.0
N299 N 0.56235 0.23119 0.77664 0.0
H300 H 0.78543 0.2886 0.42374 0.0
H301 H 0.82105 0.47175 0.53411 0.0
H302 H 0.79428 0.32199 0.64628 0.0
H303 H 0.82065 0.44115 0.3123 0.0
H304 H 0.8122 0.4175 0.57614 0.0
H305 H 0.79887 0.34427 0.38226 0.0
C306 C 0.79024 0.30762 0.46409 0.0
C307 C 0.78858 0.30042 0.53888 0.0
C308 C 0.81422 0.42262 0.51829 0.0
C309 C 0.80404 0.36459 0.49117 0.0
C310 C 0.81931 0.45363 0.49421 0.0
C311 C 0.82156 0.46093 0.41956 0.0
C312 C 0.81113 0.39851 0.46736 0.0
C313 C 0.8191 0.43654 0.37033 0.0
C314 C 0.798 0.33952 0.44017 0.0
C315 C 0.79523 0.3263 0.5882 0.0
N316 N 0.81384 0.40635 0.39508 0.0
N317 N 0.80252 0.35715 0.56348 0.0
H318 H 0.56768 0.35679 0.20036 0.0
H319 H 0.75114 0.50247 0.08725 0.0
H320 H 0.60329 0.37755 0.97903 0.0
H321 H 0.71639 0.48262 0.30965 0.0
H322 H 0.69698 0.45723 0.04718 0.0
H323 H 0.62159 0.40288 0.24173 0.0
C324 C 0.58689 0.37109 0.16047 0.0
C325 C 0.58107 0.36338 0.08616 0.0
C326 C 0.7011 0.46274 0.10476 0.0
C327 C 0.64284 0.41618 0.13305 0.0
C328 C 0.73212 0.48866 0.12786 0.0
C329 C 0.73848 0.49648 0.20217 0.0
C330 C 0.67603 0.44426 0.15614 0.0
C331 C 0.71268 0.47756 0.25188 0.0
C332 C 0.61766 0.39741 0.18411 0.0
C333 C 0.60677 0.38268 0.03682 0.0
N334 N 0.68263 0.45233 0.22798 0.0
N335 N 0.63652 0.40817 0.06113 0.0
H336 H 0.94029 0.24871 0.44629 0.0
H337 H 0.07654 0.41291 0.23778 0.0
H338 H 0.95239 0.34659 0.48355 0.0
H339 H 0.08027 0.32124 0.24659 0.0
H340 H 0.02977 0.38909 0.32407 0.0
H341 H 0.98802 0.27376 0.36209 0.0
C342 C 0.95235 0.27531 0.43474 0.0
C343 C 0.94229 0.29564 0.4709 0.0
C344 C 0.04122 0.37439 0.30838 0.0
C345 C 0.9974 0.3246 0.37725 0.0
C346 C 0.06821 0.38819 0.26017 0.0
C347 C 0.08257 0.36919 0.2365 0.0
C348 C 1.02807 0.34108 0.33175 0.0
C349 C 0.07028 0.33688 0.26499 0.0
C350 C 0.97994 0.2897 0.38793 0.0
C351 C 0.95926 0.33011 0.45588 0.0
N352 N 0.0434 0.32363 0.31045 0.0
N353 N 0.98608 0.34355 0.41042 0.0
H354 H 0.78606 0.70286 0.09911 0.0
H355 H 0.6239 0.67817 0.88429 0.0
H356 H 0.68782 0.61747 0.1309 0.0
H357 H 0.71573 0.77264 0.89698 0.0
H358 H 0.64706 0.65405 0.9699 0.0
H359 H 0.76206 0.72629 0.01346 0.0
C360 C 0.75964 0.68855 0.08599 0.0
C361 C 0.73891 0.65804 0.12111 0.0
C362 C 0.66196 0.68024 0.95516 0.0
C363 C 0.71108 0.68508 0.02573 0.0
C364 C 0.64853 0.69409 0.90729 0.0
C365 C 0.66772 0.72758 0.88509 0.0
C366 C 0.6951 0.69984 0.9797 0.0
C367 C 0.69992 0.74694 0.91429 0.0
C368 C 0.74583 0.70219 0.03834 0.0
C369 C 0.70464 0.64088 0.10406 0.0
N370 N 0.71279 0.73269 0.95949 0.0
N371 N 0.69176 0.65469 0.05786 0.0
H372 H 0.42477 0.06659 0.76451 0.0
H373 H 0.26089 0.93115 0.55443 0.0
H374 H 0.33372 0.07133 0.75319 0.0
H375 H 0.35855 0.94269 0.51791 0.0
H376 H 0.286 0.97884 0.63866 0.0
H377 H 0.40096 0.01979 0.67832 0.0
C378 C 0.4002 0.05847 0.74165 0.0
C379 C 0.38135 0.07311 0.76462 0.0
C380 C 0.30187 0.97065 0.61297 0.0
C381 C 0.35325 0.0186 0.6694 0.0
C382 C 0.28744 0.94308 0.56615 0.0
C383 C 0.30769 0.93287 0.53015 0.0
C384 C 0.33674 0.98794 0.62389 0.0
C385 C 0.34212 0.94967 0.54542 0.0
C386 C 0.3864 0.03147 0.69346 0.0
C387 C 0.34924 0.0611 0.73541 0.0
N388 N 0.3556 0.97648 0.59091 0.0
N389 N 0.33598 0.03421 0.69 0.0
H390 H 0.28259 0.35329 0.05397 0.0
H391 H 0.45881 0.36359 0.98417 0.0
H392 H 0.37284 0.44718 0.01287 0.0
H393 H 0.36381 0.2741 0.94699 0.0
H394 H 0.429 0.39445 0.00789 0.0
H395 H 0.31328 0.32369 0.02931 0.0
C396 C 0.30893 0.36777 0.04025 0.0
C397 C 0.32509 0.40289 0.03568 0.0
C398 C 0.41476 0.36809 0.99422 0.0
C399 C 0.3605 0.3689 0.00737 0.0
C400 C 0.43173 0.35041 0.98078 0.0
C401 C 0.41385 0.31613 0.96322 0.0
C402 C 0.3796 0.3513 0.99142 0.0
C403 C 0.37874 0.30049 0.95977 0.0
C404 C 0.32639 0.35077 0.02573 0.0
C405 C 0.35926 0.42013 0.01698 0.0
N406 N 0.36282 0.31809 0.97421 0.0
N407 N 0.37586 0.403 0.00389 0.0
H408 H 0.64324 0.93976 0.81648 0.0
H409 H 0.69667 0.08847 0.52665 0.0
H410 H 0.61565 0.92365 0.58939 0.0
H411 H 0.71646 0.10542 0.75684 0.0
H412 H 0.66755 0.02814 0.54881 0.0
H413 H 0.67074 1.00026 0.79588 0.0
C414 C 0.64287 0.94883 0.76226 0.0
C415 C 0.627 0.92629 0.70462 0.0
C416 C 0.67819 0.04501 0.59457 0.0
C417 C 0.6587 0.99594 0.68066 0.0
C418 C 0.6949 0.07958 0.58195 0.0
C419 C 0.70921 0.10229 0.6399 0.0
C420 C 0.67576 0.03275 0.66571 0.0
C421 C 0.70588 0.08901 0.71037 0.0
C422 C 0.65861 0.98349 0.7506 0.0
C423 C 0.62746 0.93984 0.63566 0.0
N424 N 0.68965 0.05521 0.72121 0.0
N425 N 0.64307 0.97364 0.62567 0.0
H426 H 0.9483 0.62589 0.18429 0.0
H427 H 0.09719 0.6924 0.47723 0.0
H428 H 0.93214 0.6127 0.41621 0.0
H429 H 0.11361 0.70174 0.24509 0.0
H430 H 0.03684 0.66323 0.45572 0.0
H431 H 1.0087 0.65369 0.20533 0.0
C432 C 0.95735 0.62879 0.2397 0.0
C433 C 0.93484 0.61687 0.29853 0.0
C434 C 0.05361 0.67159 0.40943 0.0
C435 C 1.00441 0.64889 0.323 0.0
C436 C 0.0882 0.68832 0.42165 0.0
C437 C 0.11077 0.69972 0.36293 0.0
C438 C 0.0412 0.66615 0.33788 0.0
C439 C 0.09733 0.6935 0.29217 0.0
C440 C 0.99196 0.64469 0.25164 0.0
C441 C 0.94835 0.62141 0.36903 0.0
N442 N 0.06353 0.67725 0.2817 0.0
N443 N 0.98213 0.63706 0.37922 0.0
H444 H 0.28325 0.49011 0.3972 0.0
H445 H 0.28358 0.39397 0.75054 0.0
H446 H 0.24865 0.38422 0.38515 0.0
H447 H 0.25776 0.47218 0.75684 0.0
H448 H 0.27653 0.39117 0.61756 0.0
H449 H 0.28087 0.48625 0.52993 0.0
C450 C 0.2752 0.46601 0.42255 0.0
C451 C 0.26622 0.43744 0.38004 0.0
C452 C 0.27195 0.40855 0.64838 0.0
C453 C 0.26386 0.43298 0.53233 0.0
C454 C 0.27597 0.4102 0.72415 0.0
C455 C 0.27123 0.43334 0.76498 0.0
C456 C 0.26407 0.43084 0.61307 0.0
C457 C 0.2615 0.45384 0.7278 0.0
C458 C 0.27364 0.46381 0.4983 0.0
C459 C 0.25571 0.40681 0.41596 0.0
N460 N 0.25883 0.45252 0.65397 0.0
N461 N 0.25527 0.40544 0.49021 0.0
H462 H 0.55817 0.77352 0.43171 0.0
H463 H 0.64883 0.8504 0.05276 0.0
H464 H 0.65314 0.86548 0.42061 0.0
H465 H 0.54162 0.79201 0.07973 0.0
H466 H 0.65549 0.84745 0.18499 0.0
H467 H 0.55737 0.77034 0.29923 0.0
C468 C 0.57921 0.79273 0.40162 0.0
C469 C 0.60557 0.82009 0.43741 0.0
C470 C 0.63059 0.8352 0.16159 0.0
C471 C 0.60463 0.81653 0.28558 0.0
C472 C 0.62676 0.83683 0.08642 0.0
C473 C 0.59461 0.82168 0.05554 0.0
C474 C 0.60209 0.81763 0.20551 0.0
C475 C 0.56684 0.80437 0.10141 0.0
C476 C 0.57857 0.79098 0.32592 0.0
C477 C 0.63216 0.84413 0.39523 0.0
N478 N 0.57123 0.80273 0.17402 0.0
N479 N 0.63091 0.84195 0.32132 0.0
H480 H 0.24245 0.73979 0.73893 0.0
H481 H 0.1799 0.79508 0.08424 0.0
H482 H 0.19119 0.79645 0.7164 0.0
H483 H 0.26295 0.77624 0.0897 0.0
H484 H 0.18205 0.79544 0.95087 0.0
H485 H 0.24763 0.75094 0.86926 0.0
C486 C 0.23222 0.75456 0.76148 0.0
C487 C 0.21617 0.76704 0.71687 0.0
C488 C 0.2001 0.79178 0.98149 0.0
C489 C 0.22199 0.77988 0.86639 0.0
C490 C 0.19895 0.79162 0.05758 0.0
C491 C 0.22101 0.78521 0.09835 0.0
C492 C 0.22312 0.78498 0.9462 0.0
C493 C 0.24523 0.781 0.06077 0.0
C494 C 0.23543 0.76115 0.83586 0.0
C495 C 0.2037 0.78633 0.74901 0.0
N496 N 0.24527 0.78042 0.98694 0.0
N497 N 0.20653 0.79187 0.82214 0.0
H498 H 0.49882 0.26959 0.601 0.0
H499 H 0.40402 0.27542 0.25075 0.0
H500 H 0.39427 0.24036 0.61617 0.0
H501 H 0.47824 0.24424 0.24194 0.0
H502 H 0.40133 0.26814 0.38368 0.0
H503 H 0.49416 0.26705 0.46842 0.0
C504 C 0.47485 0.26268 0.57636 0.0
C505 C 0.4469 0.25527 0.61971 0.0
C506 C 0.41778 0.26242 0.35232 0.0
C507 C 0.44154 0.25273 0.46756 0.0
C508 C 0.41936 0.26656 0.27657 0.0
C509 C 0.44139 0.26042 0.23506 0.0
C510 C 0.43906 0.25299 0.3869 0.0
C511 C 0.46077 0.24912 0.27151 0.0
C512 C 0.47217 0.26102 0.50069 0.0
C513 C 0.41639 0.24619 0.5847 0.0
N514 N 0.45959 0.24635 0.34532 0.0
N515 N 0.4146 0.24564 0.51048 0.0
H516 H 0.74829 0.23291 0.26226 0.0
H517 H 0.80631 0.17287 0.91665 0.0
H518 H 0.80558 0.18227 0.2844 0.0
H519 H 0.78499 0.25433 0.91175 0.0
H520 H 0.80607 0.17449 0.05004 0.0
H521 H 0.75967 0.2385 0.13203 0.0
C522 C 0.76324 0.22289 0.23965 0.0
C523 C 0.77584 0.20691 0.28414 0.0
C524 C 0.80198 0.19231 0.01955 0.0
C525 C 0.78897 0.21323 0.13471 0.0
C526 C 0.80218 0.19147 0.94345 0.0
C527 C 0.79524 0.21322 0.90283 0.0
C528 C 0.79433 0.21472 0.05497 0.0
C529 C 0.79016 0.23685 0.94057 0.0
C530 C 0.76995 0.22634 0.16532 0.0
C531 C 0.79535 0.19472 0.25191 0.0
N532 N 0.78929 0.2366 0.01438 0.0
N533 N 0.80105 0.19781 0.17884 0.0
H534 H 0.86729 0.64517 0.57819 0.0
H535 H 0.80274 0.52765 0.92323 0.0
H536 H 0.78254 0.54475 0.57226 0.0
H537 H 0.8544 0.63525 0.94584 0.0
H538 H 0.79788 0.53389 0.79273 0.0
H539 H 0.8648 0.64331 0.71154 0.0
C540 C 0.8478 0.623 0.60475 0.0
C541 C 0.82534 0.59493 0.56389 0.0
C542 C 0.8101 0.55616 0.82622 0.0
C543 C 0.82285 0.59246 0.71596 0.0
C544 C 0.81312 0.55263 0.90066 0.0
C545 C 0.82918 0.58099 0.94531 0.0
C546 C 0.82376 0.58832 0.79573 0.0
C547 C 0.84186 0.61274 0.91319 0.0
C548 C 0.84646 0.62195 0.68081 0.0
C549 C 0.80056 0.56691 0.6013 0.0
N550 N 0.83923 0.61561 0.84004 0.0
N551 N 0.80035 0.56619 0.67512 0.0
loop_
_geom_bond_atom_site_label_1
_geom_bond_atom_site_label_2
_geom_bond_distance
_geom_bond_site_symmetry_2
_ccdc_geom_bond_type
O0 Tb1 2.292 . S
O0 C3 1.255 . S
Tb1 O0 2.292 . S
Tb1 O17 2.326 1_556 S
Tb1 O19 2.500 . S
Tb1 O20 2.473 1_556 S
Tb1 O23 2.324 1_556 S
Eu2 O6 2.292 . S
Eu2 C7 2.852 . S
Eu2 O18 2.324 . S
Eu2 O22 2.326 . S
Eu2 O24 2.500 . S
Eu2 O25 2.473 . S
C3 O0 1.255 . S
C3 O4 1.247 . S
O4 C3 1.247 . S
C5 O17 1.242 . S
C5 O18 1.258 . S
O6 Eu2 2.292 . S
O6 C8 1.255 . S
C7 Eu2 2.852 . S
C7 C11 1.503 . S
C7 O24 1.273 . S
C7 O25 1.257 . S
C8 O6 1.255 . S
C8 O9 1.247 . S
O9 C8 1.247 . S
C10 O22 1.242 . S
C10 O23 1.258 . S
C11 C7 1.503 . S
C11 C12 1.379 . S
C11 C16 1.392 . S
C12 C11 1.379 . S
C12 C13 1.404 . S
C12 H26 0.929 . S
C13 C12 1.404 . S
C13 C14 1.389 . S
C14 C13 1.389 . S
C14 C15 1.399 . S
C14 H27 0.931 . S
C15 C14 1.399 . S
C15 C16 1.390 . S
C16 C11 1.392 . S
C16 C15 1.390 . S
C16 H28 0.929 . S
O17 Tb1 2.326 1_554 S
O17 C5 1.242 . S
O18 Eu2 2.324 . S
O18 C5 1.258 . S
O19 Tb1 2.500 . S
O19 C21 1.273 1_556 S
O20 Tb1 2.473 1_554 S
O20 C21 1.257 . S
C21 O19 1.273 1_554 S
C21 O20 1.257 . S
O22 Eu2 2.326 . S
O22 C10 1.242 . S
O23 Tb1 2.324 1_554 S
O23 C10 1.258 . S
O24 Eu2 2.500 . S
O24 C7 1.273 . S
O25 Eu2 2.473 . S
O25 C7 1.257 . S
H26 C12 0.929 . S
H27 C14 0.931 . S
H28 C16 0.929 . S
O29 Tb30 2.292 . S
O29 C32 1.255 . S
Tb30 O29 2.292 . S
Tb30 O46 2.326 . S
Tb30 O48 2.500 . S
Tb30 O49 2.473 . S
Tb30 O52 2.324 . S
Eu31 O35 2.292 . S
Eu31 C36 2.852 . S
Eu31 O47 2.324 . S
Eu31 O51 2.326 . S
Eu31 O53 2.500 . S
Eu31 O54 2.473 . S
C32 O29 1.255 . S
C32 O33 1.247 . S
O33 C32 1.247 . S
C34 O46 1.242 . S
C34 O47 1.258 . S
O35 Eu31 2.292 . S
O35 C37 1.255 1_556 S
C36 Eu31 2.852 . S
C36 C40 1.503 . S
C36 O53 1.273 . S
C36 O54 1.257 . S
C37 O35 1.255 1_554 S
C37 O38 1.247 1_554 S
O38 C37 1.247 1_556 S
C39 O51 1.242 . S
C39 O52 1.258 . S
C40 C36 1.503 . S
C40 C41 1.379 . S
C40 C45 1.392 . S
C41 C40 1.379 . S
C41 C42 1.404 . S
C41 H55 0.929 . S
C42 C41 1.404 . S
C42 C43 1.389 . S
C43 C42 1.389 . S
C43 C44 1.399 . S
C43 H56 0.931 . S
C44 C43 1.399 . S
C44 C45 1.390 . S
C45 C40 1.392 . S
C45 C44 1.390 . S
C45 H57 0.929 . S
O46 Tb30 2.326 . S
O46 C34 1.242 . S
O47 Eu31 2.324 . S
O47 C34 1.258 . S
O48 Tb30 2.500 . S
O48 C50 1.273 . S
O49 Tb30 2.473 . S
O49 C50 1.257 . S
C50 O48 1.273 . S
C50 O49 1.257 . S
O51 Eu31 2.326 . S
O51 C39 1.242 . S
O52 Tb30 2.324 . S
O52 C39 1.258 . S
O53 Eu31 2.500 . S
O53 C36 1.273 . S
O54 Eu31 2.473 . S
O54 C36 1.257 . S
H55 C41 0.929 . S
H56 C43 0.931 . S
H57 C45 0.929 . S
O58 Tb59 2.292 . S
O58 C61 1.255 . S
Tb59 O58 2.292 . S
Tb59 O75 2.326 . S
Tb59 O77 2.500 . S
Tb59 O78 2.473 . S
Tb59 O81 2.324 . S
Eu60 O64 2.292 . S
Eu60 C65 2.852 . S
Eu60 O76 2.324 . S
Eu60 O80 2.326 . S
Eu60 O82 2.500 . S
Eu60 O83 2.473 . S
C61 O58 1.255 . S
C61 O62 1.247 . S
O62 C61 1.247 . S
C63 O75 1.242 . S
C63 O76 1.258 . S
O64 Eu60 2.292 . S
O64 C66 1.255 . S
C65 Eu60 2.852 . S
C65 C69 1.503 . S
C65 O82 1.273 . S
C65 O83 1.257 . S
C66 O64 1.255 . S
C66 O67 1.247 . S
O67 C66 1.247 . S
C68 O80 1.242 . S
C68 O81 1.258 . S
C69 C65 1.503 . S
C69 C70 1.379 . S
C69 C74 1.392 . S
C70 C69 1.379 . S
C70 C71 1.404 . S
C70 H84 0.929 . S
C71 C70 1.404 . S
C71 C72 1.389 . S
C72 C71 1.389 . S
C72 C73 1.399 . S
C72 H85 0.931 . S
C73 C72 1.399 . S
C73 C74 1.390 . S
C74 C69 1.392 . S
C74 C73 1.390 . S
C74 H86 0.929 . S
O75 Tb59 2.326 . S
O75 C63 1.242 . S
O76 Eu60 2.324 . S
O76 C63 1.258 . S
O77 Tb59 2.500 . S
O77 C79 1.273 . S
O78 Tb59 2.473 . S
O78 C79 1.257 . S
C79 O77 1.273 . S
C79 O78 1.257 . S
O80 Eu60 2.326 . S
O80 C68 1.242 . S
O81 Tb59 2.324 . S
O81 C68 1.258 . S
O82 Eu60 2.500 . S
O82 C65 1.273 . S
O83 Eu60 2.473 . S
O83 C65 1.257 . S
H84 C70 0.929 . S
H85 C72 0.931 . S
H86 C74 0.929 . S
O87 Tb88 2.292 . S
O87 C90 1.255 . S
Tb88 O87 2.292 . S
Tb88 O104 2.326 1_554 S
Tb88 O106 2.500 . S
Tb88 O107 2.473 1_554 S
Tb88 O110 2.324 1_554 S
Eu89 O93 2.292 . S
Eu89 C94 2.852 . S
Eu89 O105 2.324 . S
Eu89 O109 2.326 . S
Eu89 O111 2.500 . S
Eu89 O112 2.473 . S
C90 O87 1.255 . S
C90 O91 1.247 . S
O91 C90 1.247 . S
C92 O104 1.242 . S
C92 O105 1.258 . S
O93 Eu89 2.292 . S
O93 C95 1.255 . S
C94 Eu89 2.852 . S
C94 C98 1.503 . S
C94 O111 1.273 . S
C94 O112 1.257 . S
C95 O93 1.255 . S
C95 O96 1.247 . S
O96 C95 1.247 . S
C97 O109 1.242 . S
C97 O110 1.258 . S
C98 C94 1.503 . S
C98 C99 1.379 . S
C98 C103 1.392 . S
C99 C98 1.379 . S
C99 C100 1.404 . S
C99 H113 0.929 . S
C100 C99 1.404 . S
C100 C101 1.389 . S
C101 C100 1.389 . S
C101 C102 1.399 . S
C101 H114 0.931 . S
C102 C101 1.399 . S
C102 C103 1.390 . S
C103 C98 1.392 . S
C103 C102 1.390 . S
C103 H115 0.929 . S
O104 Tb88 2.326 1_556 S
O104 C92 1.242 . S
O105 Eu89 2.324 . S
O105 C92 1.258 . S
O106 Tb88 2.500 . S
O106 C108 1.273 1_554 S
O107 Tb88 2.473 1_556 S
O107 C108 1.257 . S
C108 O106 1.273 1_556 S
C108 O107 1.257 . S
O109 Eu89 2.326 . S
O109 C97 1.242 . S
O110 Tb88 2.324 1_556 S
O110 C97 1.258 . S
O111 Eu89 2.500 . S
O111 C94 1.273 . S
O112 Eu89 2.473 . S
O112 C94 1.257 . S
H113 C99 0.929 . S
H114 C101 0.931 . S
H115 C103 0.929 . S
O116 Tb117 2.292 . S
O116 C119 1.255 . S
Tb117 O116 2.292 . S
Tb117 O133 2.326 . S
Tb117 O135 2.500 . S
Tb117 O136 2.473 . S
Tb117 O139 2.324 . S
Eu118 O122 2.292 . S
Eu118 C123 2.852 . S
Eu118 O134 2.324 . S
Eu118 O138 2.326 . S
Eu118 O140 2.500 . S
Eu118 O141 2.473 . S
C119 O116 1.255 . S
C119 O120 1.247 . S
O120 C119 1.247 . S
C121 O133 1.242 . S
C121 O134 1.258 . S
O122 Eu118 2.292 . S
O122 C124 1.255 . S
C123 Eu118 2.852 . S
C123 C127 1.503 . S
C123 O140 1.273 . S
C123 O141 1.257 . S
C124 O122 1.255 . S
C124 O125 1.247 . S
O125 C124 1.247 . S
C126 O138 1.242 . S
C126 O139 1.258 . S
C127 C123 1.503 . S
C127 C128 1.379 . S
C127 C132 1.392 . S
C128 C127 1.379 . S
C128 C129 1.404 . S
C128 H142 0.929 . S
C129 C128 1.404 . S
C129 C130 1.389 . S
C130 C129 1.389 . S
C130 C131 1.399 . S
C130 H143 0.931 . S
C131 C130 1.399 . S
C131 C132 1.390 . S
C132 C127 1.392 . S
C132 C131 1.390 . S
C132 H144 0.929 . S
O133 Tb117 2.326 . S
O133 C121 1.242 . S
O134 Eu118 2.324 . S
O134 C121 1.258 . S
O135 Tb117 2.500 . S
O135 C137 1.273 . S
O136 Tb117 2.473 . S
O136 C137 1.257 . S
C137 O135 1.273 . S
C137 O136 1.257 . S
O138 Eu118 2.326 . S
O138 C126 1.242 . S
O139 Tb117 2.324 . S
O139 C126 1.258 . S
O140 Eu118 2.500 . S
O140 C123 1.273 . S
O141 Eu118 2.473 . S
O141 C123 1.257 . S
H142 C128 0.929 . S
H143 C130 0.931 . S
H144 C132 0.929 . S
O145 Tb146 2.292 . S
O145 C148 1.255 . S
Tb146 O145 2.292 . S
Tb146 O162 2.326 . S
Tb146 O164 2.500 . S
Tb146 O165 2.473 . S
Tb146 O168 2.324 . S
Eu147 O151 2.292 . S
Eu147 C152 2.852 . S
Eu147 O163 2.324 . S
Eu147 O167 2.326 . S
Eu147 O169 2.500 . S
Eu147 O170 2.473 . S
C148 O145 1.255 . S
C148 O149 1.247 . S
O149 C148 1.247 . S
C150 O162 1.242 . S
C150 O163 1.258 . S
O151 Eu147 2.292 . S
O151 C153 1.255 1_554 S
C152 Eu147 2.852 . S
C152 C156 1.503 . S
C152 O169 1.273 . S
C152 O170 1.257 . S
C153 O151 1.255 1_556 S
C153 O154 1.247 1_556 S
O154 C153 1.247 1_554 S
C155 O167 1.242 . S
C155 O168 1.258 . S
C156 C152 1.503 . S
C156 C157 1.379 . S
C156 C161 1.392 . S
C157 C156 1.379 . S
C157 C158 1.404 . S
C157 H171 0.929 . S
C158 C157 1.404 . S
C158 C159 1.389 . S
C159 C158 1.389 . S
C159 C160 1.399 . S
C159 H172 0.931 . S
C160 C159 1.399 . S
C160 C161 1.390 . S
C161 C156 1.392 . S
C161 C160 1.390 . S
C161 H173 0.929 . S
O162 Tb146 2.326 . S
O162 C150 1.242 . S
O163 Eu147 2.324 . S
O163 C150 1.258 . S
O164 Tb146 2.500 . S
O164 C166 1.273 . S
O165 Tb146 2.473 . S
O165 C166 1.257 . S
C166 O164 1.273 . S
C166 O165 1.257 . S
O167 Eu147 2.326 . S
O167 C155 1.242 . S
O168 Tb146 2.324 . S
O168 C155 1.258 . S
O169 Eu147 2.500 . S
O169 C152 1.273 . S
O170 Eu147 2.473 . S
O170 C152 1.257 . S
H171 C157 0.929 . S
H172 C159 0.931 . S
H173 C161 0.929 . S
H174 C180 0.930 . S
H175 C184 0.930 . S
H176 C189 0.918 1_554 S
H177 C187 0.929 . S
H178 C182 0.929 . S
H179 C188 0.929 . S
C180 H174 0.930 . S
C180 C181 1.367 . S
C180 C188 1.378 . S
C181 C180 1.367 . S
C181 C189 1.433 . S
C182 H178 0.929 . S
C182 C184 1.378 . S
C182 C186 1.350 . S
C183 C186 1.463 1_455 S
C183 C188 1.350 . S
C183 N191 1.427 . S
C184 H175 0.930 . S
C184 C182 1.378 . S
C184 C185 1.367 . S
C185 C184 1.367 . S
C185 C187 1.433 . S
C186 C182 1.350 . S
C186 C183 1.463 1_655 S
C186 N190 1.427 . S
C187 H177 0.929 . S
C187 C185 1.433 . S
C187 N190 1.384 . S
C188 H179 0.929 . S
C188 C180 1.378 . S
C188 C183 1.350 . S
C189 H176 0.918 1_556 S
C189 C181 1.433 . S
C189 N191 1.384 . S
N190 C186 1.427 . S
N190 C187 1.384 . S
N191 C183 1.427 . S
N191 C189 1.384 . S
H192 C198 0.930 . S
H193 C202 0.930 . S
H194 C207 0.929 . S
H195 C205 0.929 . S
H196 C200 0.929 . S
H197 C206 0.929 . S
C198 H192 0.930 . S
C198 C199 1.367 . S
C198 C206 1.378 . S
C199 C198 1.367 . S
C199 C207 1.433 . S
C200 H196 0.929 . S
C200 C202 1.378 . S
C200 C204 1.350 . S
C201 C204 1.463 . S
C201 C206 1.350 . S
C201 N209 1.427 . S
C202 H193 0.930 . S
C202 C200 1.378 . S
C202 C203 1.367 . S
C203 C202 1.367 . S
C203 C205 1.433 . S
C204 C200 1.350 . S
C204 C201 1.463 . S
C204 N208 1.427 . S
C205 H195 0.929 . S
C205 C203 1.433 . S
C205 N208 1.384 . S
C206 H197 0.929 . S
C206 C198 1.378 . S
C206 C201 1.350 . S
C207 H194 0.929 . S
C207 C199 1.433 . S
C207 N209 1.384 . S
N208 C204 1.427 . S
N208 C205 1.384 . S
N209 C201 1.427 . S
N209 C207 1.384 . S
H210 C216 0.930 . S
H211 C220 0.930 . S
H212 C225 0.929 . S
H213 C223 0.929 . S
H214 C218 0.929 . S
H215 C224 0.929 . S
C216 H210 0.930 . S
C216 C217 1.367 . S
C216 C224 1.378 . S
C217 C216 1.367 . S
C217 C225 1.433 . S
C218 H214 0.929 . S
C218 C220 1.378 . S
C218 C222 1.350 . S
C219 C222 1.463 1_565 S
C219 C224 1.350 . S
C219 N227 1.427 . S
C220 H211 0.930 . S
C220 C218 1.378 . S
C220 C221 1.367 . S
C221 C220 1.367 . S
C221 C223 1.433 . S
C222 C218 1.350 . S
C222 C219 1.463 1_545 S
C222 N226 1.427 . S
C223 H213 0.929 . S
C223 C221 1.433 . S
C223 N226 1.384 . S
C224 H215 0.929 . S
C224 C216 1.378 . S
C224 C219 1.350 . S
C225 H212 0.929 . S
C225 C217 1.433 . S
C225 N227 1.384 . S
N226 C222 1.427 . S
N226 C223 1.384 . S
N227 C219 1.427 . S
N227 C225 1.384 . S
H228 C234 0.930 . S
H229 C238 0.930 . S
H230 C243 0.929 . S
H231 C241 0.929 . S
H232 C236 0.929 . S
H233 C242 0.929 . S
C234 H228 0.930 . S
C234 C235 1.367 . S
C234 C242 1.378 . S
C235 C234 1.367 . S
C235 C243 1.433 . S
C236 H232 0.929 . S
C236 C238 1.378 . S
C236 C240 1.350 . S
C237 C240 1.463 . S
C237 C242 1.350 . S
C237 N245 1.427 . S
C238 H229 0.930 . S
C238 C236 1.378 . S
C238 C239 1.367 . S
C239 C238 1.367 . S
C239 C241 1.433 . S
C240 C236 1.350 . S
C240 C237 1.463 . S
C240 N244 1.427 . S
C241 H231 0.929 . S
C241 C239 1.433 . S
C241 N244 1.384 . S
C242 H233 0.929 . S
C242 C234 1.378 . S
C242 C237 1.350 . S
C243 H230 0.929 . S
C243 C235 1.433 . S
C243 N245 1.384 . S
N244 C240 1.427 . S
N244 C241 1.384 . S
N245 C237 1.427 . S
N245 C243 1.384 . S
H246 C252 0.930 1_554 S
H247 C256 0.930 . S
H248 C261 0.929 . S
H249 C259 0.929 . S
H250 C254 0.929 . S
H251 C260 0.929 . S
C252 H246 0.930 1_556 S
C252 C253 1.367 . S
C252 C260 1.378 . S
C253 C252 1.367 . S
C253 C261 1.433 . S
C254 H250 0.929 . S
C254 C256 1.378 . S
C254 C258 1.350 . S
C255 C258 1.463 . S
C255 C260 1.350 . S
C255 N263 1.427 . S
C256 H247 0.930 . S
C256 C254 1.378 . S
C256 C257 1.367 . S
C257 C256 1.367 . S
C257 C259 1.433 . S
C258 C254 1.350 . S
C258 C255 1.463 . S
C258 N262 1.427 . S
C259 H249 0.929 . S
C259 C257 1.433 . S
C259 N262 1.384 . S
C260 H251 0.929 . S
C260 C252 1.378 . S
C260 C255 1.350 . S
C261 H248 0.929 . S
C261 C253 1.433 . S
C261 N263 1.384 . S
N262 C258 1.427 . S
N262 C259 1.384 . S
N263 C255 1.427 . S
N263 C261 1.384 . S
H264 C270 0.930 . S
H265 C274 0.930 . S
H266 C279 0.929 . S
H267 C277 0.929 . S
H268 C272 0.929 . S
H269 C278 0.929 . S
C270 H264 0.930 . S
C270 C271 1.367 . S
C270 C278 1.378 . S
C271 C270 1.367 . S
C271 C279 1.433 . S
C272 H268 0.929 . S
C272 C274 1.378 . S
C272 C276 1.350 . S
C273 C276 1.463 . S
C273 C278 1.350 . S
C273 N281 1.427 . S
C274 H265 0.930 . S
C274 C272 1.378 . S
C274 C275 1.367 . S
C275 C274 1.367 . S
C275 C277 1.433 . S
C276 C272 1.350 . S
C276 C273 1.463 . S
C276 N280 1.427 . S
C277 H267 0.929 . S
C277 C275 1.433 . S
C277 N280 1.384 . S
C278 H269 0.929 . S
C278 C270 1.378 . S
C278 C273 1.350 . S
C279 H266 0.929 . S
C279 C271 1.433 . S
C279 N281 1.384 . S
N280 C276 1.427 . S
N280 C277 1.384 . S
N281 C273 1.427 . S
N281 C279 1.384 . S
H282 C288 0.930 . S
H283 C292 0.930 . S
H284 C297 0.929 . S
H285 C295 0.929 . S
H286 C290 0.929 . S
H287 C296 0.929 . S
C288 H282 0.930 . S
C288 C289 1.367 . S
C288 C296 1.378 . S
C289 C288 1.367 . S
C289 C297 1.433 . S
C290 H286 0.929 . S
C290 C292 1.378 . S
C290 C294 1.350 . S
C291 C294 1.463 . S
C291 C296 1.350 . S
C291 N299 1.427 . S
C292 H283 0.930 . S
C292 C290 1.378 . S
C292 C293 1.367 . S
C293 C292 1.367 . S
C293 C295 1.433 . S
C294 C290 1.350 . S
C294 C291 1.463 . S
C294 N298 1.427 . S
C295 H285 0.929 . S
C295 C293 1.433 . S
C295 N298 1.384 . S
C296 H287 0.929 . S
C296 C288 1.378 . S
C296 C291 1.350 . S
C297 H284 0.929 . S
C297 C289 1.433 . S
C297 N299 1.384 . S
N298 C294 1.427 . S
N298 C295 1.384 . S
N299 C291 1.427 . S
N299 C297 1.384 . S
H300 C306 0.930 . S
H301 C310 0.930 . S
H302 C315 0.929 . S
H303 C313 0.929 . S
H304 C308 0.929 . S
H305 C314 0.929 . S
C306 H300 0.930 . S
C306 C307 1.367 . S
C306 C314 1.378 . S
C307 C306 1.367 . S
C307 C315 1.433 . S
C308 H304 0.929 . S
C308 C310 1.378 . S
C308 C312 1.350 . S
C309 C312 1.463 . S
C309 C314 1.350 . S
C309 N317 1.427 . S
C310 H301 0.930 . S
C310 C308 1.378 . S
C310 C311 1.367 . S
C311 C310 1.367 . S
C311 C313 1.433 . S
C312 C308 1.350 . S
C312 C309 1.463 . S
C312 N316 1.427 . S
C313 H303 0.929 . S
C313 C311 1.433 . S
C313 N316 1.384 . S
C314 H305 0.929 . S
C314 C306 1.378 . S
C314 C309 1.350 . S
C315 H302 0.929 . S
C315 C307 1.433 . S
C315 N317 1.384 . S
N316 C312 1.427 . S
N316 C313 1.384 . S
N317 C309 1.427 . S
N317 C315 1.384 . S
H318 C324 0.930 . S
H319 C328 0.930 . S
H320 C333 0.929 . S
H321 C331 0.929 . S
H322 C326 0.929 . S
H323 C332 0.929 . S
C324 H318 0.930 . S
C324 C325 1.367 . S
C324 C332 1.378 . S
C325 C324 1.367 . S
C325 C333 1.433 1_554 S
C326 H322 0.929 . S
C326 C328 1.378 . S
C326 C330 1.350 . S
C327 C330 1.463 . S
C327 C332 1.350 . S
C327 N335 1.427 1_554 S
C328 H319 0.930 . S
C328 C326 1.378 . S
C328 C329 1.367 . S
C329 C328 1.367 . S
C329 C331 1.433 . S
C330 C326 1.350 . S
C330 C327 1.463 . S
C330 N334 1.427 . S
C331 H321 0.929 . S
C331 C329 1.433 . S
C331 N334 1.384 . S
C332 H323 0.929 . S
C332 C324 1.378 . S
C332 C327 1.350 . S
C333 H320 0.929 . S
C333 C325 1.433 1_556 S
C333 N335 1.384 . S
N334 C330 1.427 . S
N334 C331 1.384 . S
N335 C327 1.427 1_556 S
N335 C333 1.384 . S
H336 C342 0.930 . S
H337 C346 0.930 . S
H338 C351 0.929 . S
H339 C349 0.929 . S
H340 C344 0.929 1_655 S
H341 C350 0.929 . S
C342 H336 0.930 . S
C342 C343 1.367 . S
C342 C350 1.378 . S
C343 C342 1.367 . S
C343 C351 1.433 . S
C344 H340 0.929 1_455 S
C344 C346 1.378 . S
C344 C348 1.350 . S
C345 C348 1.463 1_655 S
C345 C350 1.350 . S
C345 N353 1.427 . S
C346 H337 0.930 . S
C346 C344 1.378 . S
C346 C347 1.367 . S
C347 C346 1.367 . S
C347 C349 1.433 . S
C348 C344 1.350 . S
C348 C345 1.463 1_455 S
C348 N352 1.427 . S
C349 H339 0.929 . S
C349 C347 1.433 . S
C349 N352 1.384 . S
C350 H341 0.929 . S
C350 C342 1.378 . S
C350 C345 1.350 . S
C351 H338 0.929 . S
C351 C343 1.433 . S
C351 N353 1.384 . S
N352 C348 1.427 . S
N352 C349 1.384 . S
N353 C345 1.427 . S
N353 C351 1.384 . S
H354 C360 0.930 . S
H355 C364 0.930 . S
H356 C369 0.929 . S
H357 C367 0.929 . S
H358 C362 0.929 1_554 S
H359 C368 0.929 1_556 S
C360 H354 0.930 . S
C360 C361 1.367 . S
C360 C368 1.378 . S
C361 C360 1.367 . S
C361 C369 1.433 . S
C362 H358 0.929 1_556 S
C362 C364 1.378 . S
C362 C366 1.350 . S
C363 C366 1.463 1_554 S
C363 C368 1.350 . S
C363 N371 1.427 . S
C364 H355 0.930 . S
C364 C362 1.378 . S
C364 C365 1.367 . S
C365 C364 1.367 . S
C365 C367 1.433 . S
C366 C362 1.350 . S
C366 C363 1.463 1_556 S
C366 N370 1.427 . S
C367 H357 0.929 . S
C367 C365 1.433 . S
C367 N370 1.384 . S
C368 H359 0.929 1_554 S
C368 C360 1.378 . S
C368 C363 1.350 . S
C369 H356 0.929 . S
C369 C361 1.433 . S
C369 N371 1.384 . S
N370 C366 1.427 . S
N370 C367 1.384 . S
N371 C363 1.427 . S
N371 C369 1.384 . S
H372 C378 0.930 . S
H373 C382 0.930 . S
H374 C387 0.929 . S
H375 C385 0.929 . S
H376 C380 0.929 1_545 S
H377 C386 0.929 1_565 S
C378 H372 0.930 . S
C378 C379 1.367 . S
C378 C386 1.378 . S
C379 C378 1.367 . S
C379 C387 1.433 . S
C380 H376 0.929 1_565 S
C380 C382 1.378 . S
C380 C384 1.350 . S
C381 C384 1.463 1_545 S
C381 C386 1.350 . S
C381 N389 1.427 . S
C382 H373 0.930 . S
C382 C380 1.378 . S
C382 C383 1.367 . S
C383 C382 1.367 . S
C383 C385 1.433 . S
C384 C380 1.350 . S
C384 C381 1.463 1_565 S
C384 N388 1.427 . S
C385 H375 0.929 . S
C385 C383 1.433 . S
C385 N388 1.384 . S
C386 H377 0.929 1_545 S
C386 C378 1.378 . S
C386 C381 1.350 . S
C387 H374 0.929 . S
C387 C379 1.433 . S
C387 N389 1.384 . S
N388 C384 1.427 . S
N388 C385 1.384 . S
N389 C381 1.427 . S
N389 C387 1.384 . S
H390 C396 0.930 . S
H391 C400 0.930 . S
H392 C405 0.929 . S
H393 C403 0.929 . S
H394 C398 0.929 . S
H395 C404 0.929 . S
C396 H390 0.930 . S
C396 C397 1.367 . S
C396 C404 1.378 . S
C397 C396 1.367 . S
C397 C405 1.433 1_554 S
C398 H394 0.929 . S
C398 C400 1.378 . S
C398 C402 1.350 . S
C399 C402 1.463 1_554 S
C399 C404 1.350 . S
C399 N407 1.427 1_554 S
C400 H391 0.930 . S
C400 C398 1.378 . S
C400 C401 1.367 . S
C401 C400 1.367 . S
C401 C403 1.433 1_556 S
C402 C398 1.350 . S
C402 C399 1.463 1_556 S
C402 N406 1.427 1_556 S
C403 H393 0.929 . S
C403 C401 1.433 1_554 S
C403 N406 1.384 . S
C404 H395 0.929 . S
C404 C396 1.378 . S
C404 C399 1.350 . S
C405 H392 0.929 . S
C405 C397 1.433 1_556 S
C405 N407 1.384 . S
N406 C402 1.427 1_554 S
N406 C403 1.384 . S
N407 C399 1.427 1_556 S
N407 C405 1.384 . S
H408 C414 0.930 . S
H409 C418 0.930 . S
H410 C423 0.929 . S
H411 C421 0.929 . S
H412 C416 0.929 . S
H413 C422 0.929 . S
C414 H408 0.930 . S
C414 C415 1.367 . S
C414 C422 1.378 . S
C415 C414 1.367 . S
C415 C423 1.433 . S
C416 H412 0.929 . S
C416 C418 1.378 . S
C416 C420 1.350 . S
C417 C420 1.463 1_565 S
C417 C422 1.350 . S
C417 N425 1.427 . S
C418 H409 0.930 . S
C418 C416 1.378 . S
C418 C419 1.367 . S
C419 C418 1.367 . S
C419 C421 1.433 . S
C420 C416 1.350 . S
C420 C417 1.463 1_545 S
C420 N424 1.427 . S
C421 H411 0.929 . S
C421 C419 1.433 . S
C421 N424 1.384 . S
C422 H413 0.929 . S
C422 C414 1.378 . S
C422 C417 1.350 . S
C423 H410 0.929 . S
C423 C415 1.433 . S
C423 N425 1.384 . S
N424 C420 1.427 . S
N424 C421 1.384 . S
N425 C417 1.427 . S
N425 C423 1.384 . S
H426 C432 0.930 . S
H427 C436 0.930 . S
H428 C441 0.929 . S
H429 C439 0.929 . S
H430 C434 0.929 . S
H431 C440 0.929 . S
C432 H426 0.930 . S
C432 C433 1.367 . S
C432 C440 1.378 . S
C433 C432 1.367 . S
C433 C441 1.433 . S
C434 H430 0.929 . S
C434 C436 1.378 . S
C434 C438 1.350 . S
C435 C438 1.463 1_655 S
C435 C440 1.350 . S
C435 N443 1.427 . S
C436 H427 0.930 . S
C436 C434 1.378 . S
C436 C437 1.367 . S
C437 C436 1.367 . S
C437 C439 1.433 . S
C438 C434 1.350 . S
C438 C435 1.463 1_455 S
C438 N442 1.427 . S
C439 H429 0.929 . S
C439 C437 1.433 . S
C439 N442 1.384 . S
C440 H431 0.929 . S
C440 C432 1.378 . S
C440 C435 1.350 . S
C441 H428 0.929 . S
C441 C433 1.433 . S
C441 N443 1.384 . S
N442 C438 1.427 . S
N442 C439 1.384 . S
N443 C435 1.427 . S
N443 C441 1.384 . S
H444 C450 0.930 . S
H445 C454 0.930 . S
H446 C459 0.929 . S
H447 C457 0.929 . S
H448 C452 0.929 . S
H449 C458 0.929 . S
C450 H444 0.930 . S
C450 C451 1.367 . S
C450 C458 1.378 . S
C451 C450 1.367 . S
C451 C459 1.433 . S
C452 H448 0.929 . S
C452 C454 1.378 . S
C452 C456 1.350 . S
C453 C456 1.463 . S
C453 C458 1.350 . S
C453 N461 1.427 . S
C454 H445 0.930 . S
C454 C452 1.378 . S
C454 C455 1.367 . S
C455 C454 1.367 . S
C455 C457 1.433 . S
C456 C452 1.350 . S
C456 C453 1.463 . S
C456 N460 1.427 . S
C457 H447 0.929 . S
C457 C455 1.433 . S
C457 N460 1.384 . S
C458 H449 0.929 . S
C458 C450 1.378 . S
C458 C453 1.350 . S
C459 H446 0.929 . S
C459 C451 1.433 . S
C459 N461 1.384 . S
N460 C456 1.427 . S
N460 C457 1.384 . S
N461 C453 1.427 . S
N461 C459 1.384 . S
H462 C468 0.930 . S
H463 C472 0.930 . S
H464 C477 0.929 . S
H465 C475 0.929 . S
H466 C470 0.929 . S
H467 C476 0.929 . S
C468 H462 0.930 . S
C468 C469 1.367 . S
C468 C476 1.378 . S
C469 C468 1.367 . S
C469 C477 1.433 . S
C470 H466 0.929 . S
C470 C472 1.378 . S
C470 C474 1.350 . S
C471 C474 1.463 . S
C471 C476 1.350 . S
C471 N479 1.427 . S
C472 H463 0.930 . S
C472 C470 1.378 . S
C472 C473 1.367 . S
C473 C472 1.367 . S
C473 C475 1.433 . S
C474 C470 1.350 . S
C474 C471 1.463 . S
C474 N478 1.427 . S
C475 H465 0.929 . S
C475 C473 1.433 . S
C475 N478 1.384 . S
C476 H467 0.929 . S
C476 C468 1.378 . S
C476 C471 1.350 . S
C477 H464 0.929 . S
C477 C469 1.433 . S
C477 N479 1.384 . S
N478 C474 1.427 . S
N478 C475 1.384 . S
N479 C471 1.427 . S
N479 C477 1.384 . S
H480 C486 0.930 . S
H481 C490 0.930 . S
H482 C495 0.929 . S
H483 C493 0.929 . S
H484 C488 0.929 . S
H485 C494 0.929 . S
C486 H480 0.930 . S
C486 C487 1.367 . S
C486 C494 1.378 . S
C487 C486 1.367 . S
C487 C495 1.433 . S
C488 H484 0.929 . S
C488 C490 1.378 1_556 S
C488 C492 1.350 . S
C489 C492 1.463 . S
C489 C494 1.350 . S
C489 N497 1.427 . S
C490 H481 0.930 . S
C490 C488 1.378 1_554 S
C490 C491 1.367 . S
C491 C490 1.367 . S
C491 C493 1.433 . S
C492 C488 1.350 . S
C492 C489 1.463 . S
C492 N496 1.427 . S
C493 H483 0.929 . S
C493 C491 1.433 . S
C493 N496 1.384 1_554 S
C494 H485 0.929 . S
C494 C486 1.378 . S
C494 C489 1.350 . S
C495 H482 0.929 . S
C495 C487 1.433 . S
C495 N497 1.384 . S
N496 C492 1.427 . S
N496 C493 1.384 1_556 S
N497 C489 1.427 . S
N497 C495 1.384 . S
H498 C504 0.930 . S
H499 C508 0.930 . S
H500 C513 0.929 . S
H501 C511 0.929 . S
H502 C506 0.929 . S
H503 C512 0.929 . S
C504 H498 0.930 . S
C504 C505 1.367 . S
C504 C512 1.378 . S
C505 C504 1.367 . S
C505 C513 1.433 . S
C506 H502 0.929 . S
C506 C508 1.378 . S
C506 C510 1.350 . S
C507 C510 1.463 . S
C507 C512 1.350 . S
C507 N515 1.427 . S
C508 H499 0.930 . S
C508 C506 1.378 . S
C508 C509 1.367 . S
C509 C508 1.367 . S
C509 C511 1.433 . S
C510 C506 1.350 . S
C510 C507 1.463 . S
C510 N514 1.427 . S
C511 H501 0.929 . S
C511 C509 1.433 . S
C511 N514 1.384 . S
C512 H503 0.929 . S
C512 C504 1.378 . S
C512 C507 1.350 . S
C513 H500 0.929 . S
C513 C505 1.433 . S
C513 N515 1.384 . S
N514 C510 1.427 . S
N514 C511 1.384 . S
N515 C507 1.427 . S
N515 C513 1.384 . S
H516 C522 0.930 . S
H517 C526 0.930 . S
H518 C531 0.929 . S
H519 C529 0.929 . S
H520 C524 0.929 . S
H521 C530 0.929 . S
C522 H516 0.930 . S
C522 C523 1.367 . S
C522 C530 1.378 . S
C523 C522 1.367 . S
C523 C531 1.433 . S
C524 H520 0.929 . S
C524 C526 1.378 1_554 S
C524 C528 1.350 . S
C525 C528 1.463 . S
C525 C530 1.350 . S
C525 N533 1.427 . S
C526 H517 0.930 . S
C526 C524 1.378 1_556 S
C526 C527 1.367 . S
C527 C526 1.367 . S
C527 C529 1.433 . S
C528 C524 1.350 . S
C528 C525 1.463 . S
C528 N532 1.427 . S
C529 H519 0.929 . S
C529 C527 1.433 . S
C529 N532 1.384 1_556 S
C530 H521 0.929 . S
C530 C522 1.378 . S
C530 C525 1.350 . S
C531 H518 0.929 . S
C531 C523 1.433 . S
C531 N533 1.384 . S
N532 C528 1.427 . S
N532 C529 1.384 1_554 S
N533 C525 1.427 . S
N533 C531 1.384 . S
H534 C540 0.930 . S
H535 C544 0.930 . S
H536 C549 0.929 . S
H537 C547 0.929 . S
H538 C542 0.929 . S
H539 C548 0.929 . S
C540 H534 0.930 . S
C540 C541 1.367 . S
C540 C548 1.378 . S
C541 C540 1.367 . S
C541 C549 1.433 . S
C542 H538 0.929 . S
C542 C544 1.378 . S
C542 C546 1.350 . S
C543 C546 1.463 . S
C543 C548 1.350 . S
C543 N551 1.427 . S
C544 H535 0.930 . S
C544 C542 1.378 . S
C544 C545 1.367 . S
C545 C544 1.367 . S
C545 C547 1.433 . S
C546 C542 1.350 . S
C546 C543 1.463 . S
C546 N550 1.427 . S
C547 H537 0.929 . S
C547 C545 1.433 . S
C547 N550 1.384 . S
C548 H539 0.929 . S
C548 C540 1.378 . S
C548 C543 1.350 . S
C549 H536 0.929 . S
C549 C541 1.433 . S
C549 N551 1.384 . S
N550 C546 1.427 . S
N550 C547 1.384 . S
N551 C543 1.427 . S
N551 C549 1.384 . S
C181 C13 2.395 1_556 S
C185 C129 2.395 . S
C199 C158 2.395 . S
C203 C42 2.394 . S
C217 C71 2.390 . S
C221 C100 2.390 1_554 S
C235 C10 1.927 . S
C239 C79 1.636 . S
C253 C21 1.630 1_556 S
C257 C39 1.925 . S
C271 C50 1.632 . S
C275 C68 1.928 . S
C289 C97 1.921 . S
C293 C137 1.651 . S
C307 C126 1.927 . S
C311 C166 1.637 . S
C325 C108 1.629 1_554 S
C329 C155 1.928 . S
C343 C131 1.380 . S
C347 C15 1.387 . S
C361 C160 1.383 . S
C365 C44 1.390 . S
C379 C102 1.383 . S
C383 C73 1.382 . S
C397 C5 2.698 . S
C401 C92 2.698 . S
C415 C34 2.697 . S
C419 C121 2.697 . S
C433 C150 2.696 . S
C437 C63 2.696 . S
C451 C8 1.108 . S
C455 C3 1.108 . S
C469 C32 1.098 . S
C473 C37 1.098 . S
C487 C66 1.103 . S
C491 C61 1.103 . S
C505 C95 1.104 . S
C509 C90 1.104 . S
C523 C124 1.103 . S
C527 C119 1.103 . S
C541 C148 1.097 . S
C545 C153 1.097 . S
