# Generated by pormake.
# Topology uli, (4)-cn, num edge types: 1
# Building blocks:
#     Node 0, Type 0, BuildingBlock: CEKHIL_clean_sbu_0, # of connection points: 4
#     Node 1, Type 0, BuildingBlock: CEKHIL_clean_sbu_0, # of connection points: 4
#     Node 2, Type 0, BuildingBlock: CEKHIL_clean_sbu_0, # of connection points: 4
#     Node 3, Type 0, BuildingBlock: CEKHIL_clean_sbu_0, # of connection points: 4
#     Node 4, Type 0, BuildingBlock: CEKHIL_clean_sbu_0, # of connection points: 4
#     Node 5, Type 0, BuildingBlock: CEKHIL_clean_sbu_0, # of connection points: 4
#     Node 6, Type 0, BuildingBlock: CEKHIL_clean_sbu_0, # of connection points: 4
#     Node 7, Type 0, BuildingBlock: CEKHIL_clean_sbu_0, # of connection points: 4
#     Node 8, Type 0, BuildingBlock: CEKHIL_clean_sbu_0, # of connection points: 4
#     Node 9, Type 0, BuildingBlock: CEKHIL_clean_sbu_0, # of connection points: 4
#     Node 10, Type 0, BuildingBlock: CEKHIL_clean_sbu_0, # of connection points: 4
#     Node 11, Type 0, BuildingBlock: CEKHIL_clean_sbu_0, # of connection points: 4
#     Node 12, Type 0, BuildingBlock: CEKHIL_clean_sbu_0, # of connection points: 4
#     Node 13, Type 0, BuildingBlock: CEKHIL_clean_sbu_0, # of connection points: 4
#     Node 14, Type 0, BuildingBlock: CEKHIL_clean_sbu_0, # of connection points: 4
#     Node 15, Type 0, BuildingBlock: CEKHIL_clean_sbu_0, # of connection points: 4
#     Node 16, Type 0, BuildingBlock: CEKHIL_clean_sbu_0, # of connection points: 4
#     Node 17, Type 0, BuildingBlock: CEKHIL_clean_sbu_0, # of connection points: 4
#     Node 18, Type 0, BuildingBlock: CEKHIL_clean_sbu_0, # of connection points: 4
#     Node 19, Type 0, BuildingBlock: CEKHIL_clean_sbu_0, # of connection points: 4
#     Node 20, Type 0, BuildingBlock: CEKHIL_clean_sbu_0, # of connection points: 4
#     Node 21, Type 0, BuildingBlock: CEKHIL_clean_sbu_0, # of connection points: 4
#     Node 22, Type 0, BuildingBlock: CEKHIL_clean_sbu_0, # of connection points: 4
#     Node 23, Type 0, BuildingBlock: CEKHIL_clean_sbu_0, # of connection points: 4
#     Node 24, Type 0, BuildingBlock: CEKHIL_clean_sbu_0, # of connection points: 4
#     Node 25, Type 0, BuildingBlock: CEKHIL_clean_sbu_0, # of connection points: 4
#     Node 26, Type 0, BuildingBlock: CEKHIL_clean_sbu_0, # of connection points: 4
#     Node 27, Type 0, BuildingBlock: CEKHIL_clean_sbu_0, # of connection points: 4
#     Node 28, Type 0, BuildingBlock: CEKHIL_clean_sbu_0, # of connection points: 4
#     Node 29, Type 0, BuildingBlock: CEKHIL_clean_sbu_0, # of connection points: 4
#     Node 30, Type 0, BuildingBlock: CEKHIL_clean_sbu_0, # of connection points: 4
#     Node 31, Type 0, BuildingBlock: CEKHIL_clean_sbu_0, # of connection points: 4
#     Node 32, Type 0, BuildingBlock: CEKHIL_clean_sbu_0, # of connection points: 4
#     Node 33, Type 0, BuildingBlock: CEKHIL_clean_sbu_0, # of connection points: 4
#     Node 34, Type 0, BuildingBlock: CEKHIL_clean_sbu_0, # of connection points: 4
#     Node 35, Type 0, BuildingBlock: CEKHIL_clean_sbu_0, # of connection points: 4
#     Node 36, Type 0, BuildingBlock: CEKHIL_clean_sbu_0, # of connection points: 4
#     Node 37, Type 0, BuildingBlock: CEKHIL_clean_sbu_0, # of connection points: 4
#     Node 38, Type 0, BuildingBlock: CEKHIL_clean_sbu_0, # of connection points: 4
#     Node 39, Type 0, BuildingBlock: CEKHIL_clean_sbu_0, # of connection points: 4
#     Node 40, Type 0, BuildingBlock: CEKHIL_clean_sbu_0, # of connection points: 4
#     Node 41, Type 0, BuildingBlock: CEKHIL_clean_sbu_0, # of connection points: 4
#     Node 42, Type 0, BuildingBlock: CEKHIL_clean_sbu_0, # of connection points: 4
#     Node 43, Type 0, BuildingBlock: CEKHIL_clean_sbu_0, # of connection points: 4
#     Node 44, Type 0, BuildingBlock: CEKHIL_clean_sbu_0, # of connection points: 4
#     Node 45, Type 0, BuildingBlock: CEKHIL_clean_sbu_0, # of connection points: 4
#     Node 46, Type 0, BuildingBlock: CEKHIL_clean_sbu_0, # of connection points: 4
#     Node 47, Type 0, BuildingBlock: CEKHIL_clean_sbu_0, # of connection points: 4
#     Edge 48, Type (0, 0), BuildingBlock: UVAHIK_clean_linker_0, # of connection points: 2
#     Edge 49, Type (0, 0), BuildingBlock: UVAHIK_clean_linker_0, # of connection points: 2
#     Edge 50, Type (0, 0), BuildingBlock: UVAHIK_clean_linker_0, # of connection points: 2
#     Edge 51, Type (0, 0), BuildingBlock: UVAHIK_clean_linker_0, # of connection points: 2
#     Edge 52, Type (0, 0), BuildingBlock: UVAHIK_clean_linker_0, # of connection points: 2
#     Edge 53, Type (0, 0), BuildingBlock: UVAHIK_clean_linker_0, # of connection points: 2
#     Edge 54, Type (0, 0), BuildingBlock: UVAHIK_clean_linker_0, # of connection points: 2
#     Edge 55, Type (0, 0), BuildingBlock: UVAHIK_clean_linker_0, # of connection points: 2
#     Edge 56, Type (0, 0), BuildingBlock: UVAHIK_clean_linker_0, # of connection points: 2
#     Edge 57, Type (0, 0), BuildingBlock: UVAHIK_clean_linker_0, # of connection points: 2
#     Edge 58, Type (0, 0), BuildingBlock: UVAHIK_clean_linker_0, # of connection points: 2
#     Edge 59, Type (0, 0), BuildingBlock: UVAHIK_clean_linker_0, # of connection points: 2
#     Edge 60, Type (0, 0), BuildingBlock: UVAHIK_clean_linker_0, # of connection points: 2
#     Edge 61, Type (0, 0), BuildingBlock: UVAHIK_clean_linker_0, # of connection points: 2
#     Edge 62, Type (0, 0), BuildingBlock: UVAHIK_clean_linker_0, # of connection points: 2
#     Edge 63, Type (0, 0), BuildingBlock: UVAHIK_clean_linker_0, # of connection points: 2
#     Edge 64, Type (0, 0), BuildingBlock: UVAHIK_clean_linker_0, # of connection points: 2
#     Edge 65, Type (0, 0), BuildingBlock: UVAHIK_clean_linker_0, # of connection points: 2
#     Edge 66, Type (0, 0), BuildingBlock: UVAHIK_clean_linker_0, # of connection points: 2
#     Edge 67, Type (0, 0), BuildingBlock: UVAHIK_clean_linker_0, # of connection points: 2
#     Edge 68, Type (0, 0), BuildingBlock: UVAHIK_clean_linker_0, # of connection points: 2
#     Edge 69, Type (0, 0), BuildingBlock: UVAHIK_clean_linker_0, # of connection points: 2
#     Edge 70, Type (0, 0), BuildingBlock: UVAHIK_clean_linker_0, # of connection points: 2
#     Edge 71, Type (0, 0), BuildingBlock: UVAHIK_clean_linker_0, # of connection points: 2
#     Edge 72, Type (0, 0), BuildingBlock: UVAHIK_clean_linker_0, # of connection points: 2
#     Edge 73, Type (0, 0), BuildingBlock: UVAHIK_clean_linker_0, # of connection points: 2
#     Edge 74, Type (0, 0), BuildingBlock: UVAHIK_clean_linker_0, # of connection points: 2
#     Edge 75, Type (0, 0), BuildingBlock: UVAHIK_clean_linker_0, # of connection points: 2
#     Edge 76, Type (0, 0), BuildingBlock: UVAHIK_clean_linker_0, # of connection points: 2
#     Edge 77, Type (0, 0), BuildingBlock: UVAHIK_clean_linker_0, # of connection points: 2
#     Edge 78, Type (0, 0), BuildingBlock: UVAHIK_clean_linker_0, # of connection points: 2
#     Edge 79, Type (0, 0), BuildingBlock: UVAHIK_clean_linker_0, # of connection points: 2
#     Edge 80, Type (0, 0), BuildingBlock: UVAHIK_clean_linker_0, # of connection points: 2
#     Edge 81, Type (0, 0), BuildingBlock: UVAHIK_clean_linker_0, # of connection points: 2
#     Edge 82, Type (0, 0), BuildingBlock: UVAHIK_clean_linker_0, # of connection points: 2
#     Edge 83, Type (0, 0), BuildingBlock: UVAHIK_clean_linker_0, # of connection points: 2
#     Edge 84, Type (0, 0), BuildingBlock: UVAHIK_clean_linker_0, # of connection points: 2
#     Edge 85, Type (0, 0), BuildingBlock: UVAHIK_clean_linker_0, # of connection points: 2
#     Edge 86, Type (0, 0), BuildingBlock: UVAHIK_clean_linker_0, # of connection points: 2
#     Edge 87, Type (0, 0), BuildingBlock: UVAHIK_clean_linker_0, # of connection points: 2
#     Edge 88, Type (0, 0), BuildingBlock: UVAHIK_clean_linker_0, # of connection points: 2
#     Edge 89, Type (0, 0), BuildingBlock: UVAHIK_clean_linker_0, # of connection points: 2
#     Edge 90, Type (0, 0), BuildingBlock: UVAHIK_clean_linker_0, # of connection points: 2
#     Edge 91, Type (0, 0), BuildingBlock: UVAHIK_clean_linker_0, # of connection points: 2
#     Edge 92, Type (0, 0), BuildingBlock: UVAHIK_clean_linker_0, # of connection points: 2
#     Edge 93, Type (0, 0), BuildingBlock: UVAHIK_clean_linker_0, # of connection points: 2
#     Edge 94, Type (0, 0), BuildingBlock: UVAHIK_clean_linker_0, # of connection points: 2
#     Edge 95, Type (0, 0), BuildingBlock: UVAHIK_clean_linker_0, # of connection points: 2
#     Edge 96, Type (0, 0), BuildingBlock: UVAHIK_clean_linker_0, # of connection points: 2
#     Edge 97, Type (0, 0), BuildingBlock: UVAHIK_clean_linker_0, # of connection points: 2
#     Edge 98, Type (0, 0), BuildingBlock: UVAHIK_clean_linker_0, # of connection points: 2
#     Edge 99, Type (0, 0), BuildingBlock: UVAHIK_clean_linker_0, # of connection points: 2
#     Edge 100, Type (0, 0), BuildingBlock: UVAHIK_clean_linker_0, # of connection points: 2
#     Edge 101, Type (0, 0), BuildingBlock: UVAHIK_clean_linker_0, # of connection points: 2
#     Edge 102, Type (0, 0), BuildingBlock: UVAHIK_clean_linker_0, # of connection points: 2
#     Edge 103, Type (0, 0), BuildingBlock: UVAHIK_clean_linker_0, # of connection points: 2
#     Edge 104, Type (0, 0), BuildingBlock: UVAHIK_clean_linker_0, # of connection points: 2
#     Edge 105, Type (0, 0), BuildingBlock: UVAHIK_clean_linker_0, # of connection points: 2
#     Edge 106, Type (0, 0), BuildingBlock: UVAHIK_clean_linker_0, # of connection points: 2
#     Edge 107, Type (0, 0), BuildingBlock: UVAHIK_clean_linker_0, # of connection points: 2
#     Edge 108, Type (0, 0), BuildingBlock: UVAHIK_clean_linker_0, # of connection points: 2
#     Edge 109, Type (0, 0), BuildingBlock: UVAHIK_clean_linker_0, # of connection points: 2
#     Edge 110, Type (0, 0), BuildingBlock: UVAHIK_clean_linker_0, # of connection points: 2
#     Edge 111, Type (0, 0), BuildingBlock: UVAHIK_clean_linker_0, # of connection points: 2
#     Edge 112, Type (0, 0), BuildingBlock: UVAHIK_clean_linker_0, # of connection points: 2
#     Edge 113, Type (0, 0), BuildingBlock: UVAHIK_clean_linker_0, # of connection points: 2
#     Edge 114, Type (0, 0), BuildingBlock: UVAHIK_clean_linker_0, # of connection points: 2
#     Edge 115, Type (0, 0), BuildingBlock: UVAHIK_clean_linker_0, # of connection points: 2
#     Edge 116, Type (0, 0), BuildingBlock: UVAHIK_clean_linker_0, # of connection points: 2
#     Edge 117, Type (0, 0), BuildingBlock: UVAHIK_clean_linker_0, # of connection points: 2
#     Edge 118, Type (0, 0), BuildingBlock: UVAHIK_clean_linker_0, # of connection points: 2
#     Edge 119, Type (0, 0), BuildingBlock: UVAHIK_clean_linker_0, # of connection points: 2
#     Edge 120, Type (0, 0), BuildingBlock: UVAHIK_clean_linker_0, # of connection points: 2
#     Edge 121, Type (0, 0), BuildingBlock: UVAHIK_clean_linker_0, # of connection points: 2
#     Edge 122, Type (0, 0), BuildingBlock: UVAHIK_clean_linker_0, # of connection points: 2
#     Edge 123, Type (0, 0), BuildingBlock: UVAHIK_clean_linker_0, # of connection points: 2
#     Edge 124, Type (0, 0), BuildingBlock: UVAHIK_clean_linker_0, # of connection points: 2
#     Edge 125, Type (0, 0), BuildingBlock: UVAHIK_clean_linker_0, # of connection points: 2
#     Edge 126, Type (0, 0), BuildingBlock: UVAHIK_clean_linker_0, # of connection points: 2
#     Edge 127, Type (0, 0), BuildingBlock: UVAHIK_clean_linker_0, # of connection points: 2
#     Edge 128, Type (0, 0), BuildingBlock: UVAHIK_clean_linker_0, # of connection points: 2
#     Edge 129, Type (0, 0), BuildingBlock: UVAHIK_clean_linker_0, # of connection points: 2
#     Edge 130, Type (0, 0), BuildingBlock: UVAHIK_clean_linker_0, # of connection points: 2
#     Edge 131, Type (0, 0), BuildingBlock: UVAHIK_clean_linker_0, # of connection points: 2
#     Edge 132, Type (0, 0), BuildingBlock: UVAHIK_clean_linker_0, # of connection points: 2
#     Edge 133, Type (0, 0), BuildingBlock: UVAHIK_clean_linker_0, # of connection points: 2
#     Edge 134, Type (0, 0), BuildingBlock: UVAHIK_clean_linker_0, # of connection points: 2
#     Edge 135, Type (0, 0), BuildingBlock: UVAHIK_clean_linker_0, # of connection points: 2
#     Edge 136, Type (0, 0), BuildingBlock: UVAHIK_clean_linker_0, # of connection points: 2
#     Edge 137, Type (0, 0), BuildingBlock: UVAHIK_clean_linker_0, # of connection points: 2
#     Edge 138, Type (0, 0), BuildingBlock: UVAHIK_clean_linker_0, # of connection points: 2
#     Edge 139, Type (0, 0), BuildingBlock: UVAHIK_clean_linker_0, # of connection points: 2
#     Edge 140, Type (0, 0), BuildingBlock: UVAHIK_clean_linker_0, # of connection points: 2
#     Edge 141, Type (0, 0), BuildingBlock: UVAHIK_clean_linker_0, # of connection points: 2
#     Edge 142, Type (0, 0), BuildingBlock: UVAHIK_clean_linker_0, # of connection points: 2
#     Edge 143, Type (0, 0), BuildingBlock: UVAHIK_clean_linker_0, # of connection points: 2
# Relax obj value: 0.466
# Max RMSD: 0.154
# Mean RMSD: 0.154
data_MOF--net-uli--node1-CEKHIL_clean_sbu_0--edge1-UVAHIK_clean_linker_0
_symmetry_space_group_name_H-M    P1
_symmetry_Int_Tables_number       1
_symmetry_cell_setting            triclinic
loop_
_symmetry_equiv_pos_as_xyz
'x, y, z'
_cell_length_a     86.131286
_cell_length_b     86.107553
_cell_length_c     86.107141
_cell_angle_alpha  90.021281
_cell_angle_beta   90.029166
_cell_angle_gamma 90.024741
loop_
_atom_site_label
_atom_site_type_symbol
_atom_site_fract_x
_atom_site_fract_y
_atom_site_fract_z
_atom_type_partial_charge
Co0 Co 0.0917 0.26442 0.21252 0.0
O1 O 0.07444 0.26465 0.2263 0.0
O2 O 0.07315 0.27034 0.20118 0.0
C3 C 0.10052 0.24094 0.22006 0.0
O4 O 0.1074 0.2647 0.19485 0.0
Co5 Co 0.12471 0.26406 0.22698 0.0
O6 O 0.13139 0.26211 0.20505 0.0
C7 C 0.10555 0.29224 0.22867 0.0
C8 C 0.06606 0.26832 0.21438 0.0
C9 C 0.12221 0.26328 0.19349 0.0
O10 O 0.09642 0.28669 0.21822 0.0
O11 O 0.11642 0.2843 0.23499 0.0
O12 O 0.08958 0.24205 0.20977 0.0
O13 O 0.10474 0.25387 0.22641 0.0
Co14 Co 0.72581 0.09341 0.21272 0.0
O15 O 0.72635 0.07663 0.2271 0.0
O16 O 0.72183 0.07412 0.20182 0.0
C17 C 0.74816 0.10444 0.22075 0.0
O18 O 0.72509 0.10839 0.19445 0.0
Co19 Co 0.72283 0.12684 0.22581 0.0
O20 O 0.72566 0.13286 0.20378 0.0
C21 C 0.69614 0.10566 0.22678 0.0
C22 C 0.72383 0.06761 0.21532 0.0
C23 C 0.72567 0.1232 0.19255 0.0
O24 O 0.70301 0.09645 0.21727 0.0
O25 O 0.70265 0.11756 0.23285 0.0
O26 O 0.74832 0.09303 0.21093 0.0
O27 O 0.7347 0.1078 0.22651 0.0
Co28 Co 0.90479 0.73058 0.20886 0.0
O29 O 0.92225 0.72977 0.22239 0.0
O30 O 0.92331 0.7262 0.19685 0.0
C31 C 0.89519 0.75295 0.2185 0.0
O32 O 0.88888 0.73116 0.19139 0.0
Co33 Co 0.8719 0.7286 0.2236 0.0
O34 O 0.86491 0.73197 0.20193 0.0
C35 C 0.89214 0.70118 0.22283 0.0
C36 C 0.93053 0.72724 0.21011 0.0
C37 C 0.874 0.73208 0.19024 0.0
O38 O 0.9009 0.70778 0.21272 0.0
O39 O 0.88105 0.70812 0.22985 0.0
O40 O 0.90605 0.75321 0.20807 0.0
O41 O 0.89156 0.73935 0.22367 0.0
Co42 Co 0.26726 0.90573 0.21497 0.0
O43 O 0.2684 0.92584 0.22401 0.0
O44 O 0.27514 0.92033 0.19972 0.0
C45 C 0.24292 0.9005 0.22298 0.0
O46 O 0.26693 0.88601 0.2019 0.0
Co47 Co 0.26403 0.87774 0.23753 0.0
O48 O 0.26216 0.86582 0.21792 0.0
C49 C 0.29386 0.89408 0.23497 0.0
C50 C 0.27332 0.93063 0.21064 0.0
C51 C 0.26441 0.87148 0.20442 0.0
O52 O 0.28887 0.9011 0.22277 0.0
O53 O 0.28517 0.88555 0.2435 0.0
O54 O 0.24529 0.90861 0.21052 0.0
O55 O 0.2552 0.8973 0.23101 0.0
Co56 Co 0.08983 0.73247 0.78532 0.0
O57 O 0.07127 0.73176 0.77336 0.0
O58 O 0.07278 0.72599 0.79848 0.0
C59 C 0.09734 0.75606 0.77678 0.0
O60 O 0.10713 0.73247 0.80137 0.0
Co61 Co 0.12143 0.73367 0.76809 0.0
O62 O 0.13013 0.73562 0.78931 0.0
C63 C 0.10259 0.70516 0.76769 0.0
C64 C 0.06434 0.72764 0.78605 0.0
C65 C 0.12197 0.73417 0.80157 0.0
O66 O 0.09445 0.71034 0.77908 0.0
O67 O 0.11269 0.71342 0.76054 0.0
O68 O 0.08755 0.75486 0.78818 0.0
O69 O 0.10122 0.74315 0.77022 0.0
Co70 Co 0.26724 0.08966 0.77611 0.0
O71 O 0.26854 0.06907 0.76812 0.0
O72 O 0.2718 0.07544 0.79293 0.0
C73 C 0.24484 0.09617 0.76423 0.0
O74 O 0.26609 0.10984 0.78836 0.0
Co75 Co 0.26899 0.11714 0.75267 0.0
O76 O 0.26398 0.12964 0.77136 0.0
C77 C 0.29702 0.0991 0.75992 0.0
C78 C 0.27107 0.06471 0.7823 0.0
C79 C 0.26415 0.12433 0.78519 0.0
O80 O 0.29006 0.09289 0.7716 0.0
O81 O 0.29005 0.10764 0.74994 0.0
O82 O 0.24461 0.08827 0.77706 0.0
O83 O 0.25842 0.0982 0.75822 0.0
Co84 Co 0.90498 0.26418 0.77458 0.0
O85 O 0.92343 0.26808 0.7631 0.0
O86 O 0.92091 0.27204 0.78843 0.0
C87 C 0.90094 0.24015 0.76502 0.0
O88 O 0.88748 0.26072 0.79014 0.0
Co89 Co 0.8742 0.25938 0.75636 0.0
O90 O 0.86736 0.25082 0.77665 0.0
C91 C 0.88778 0.29072 0.7592 0.0
C92 C 0.92978 0.27191 0.77618 0.0
C93 C 0.87416 0.25396 0.78944 0.0
O94 O 0.89732 0.28573 0.76957 0.0
O95 O 0.87864 0.28179 0.75157 0.0
O96 O 0.91048 0.24234 0.77646 0.0
O97 O 0.89543 0.25264 0.75877 0.0
Co98 Co 0.72807 0.90173 0.77891 0.0
O99 O 0.72767 0.92017 0.76677 0.0
O100 O 0.72192 0.91907 0.79191 0.0
C101 C 0.7515 0.8937 0.77048 0.0
O102 O 0.72788 0.88446 0.79506 0.0
Co103 Co 0.72865 0.87007 0.76155 0.0
O104 O 0.73087 0.86151 0.78278 0.0
C105 C 0.70056 0.88947 0.76122 0.0
C106 C 0.72371 0.92733 0.77937 0.0
C107 C 0.72956 0.8696 0.79511 0.0
O108 O 0.70586 0.89743 0.77271 0.0
O109 O 0.70864 0.87928 0.75401 0.0
O110 O 0.75051 0.90368 0.78173 0.0
O111 O 0.73852 0.89005 0.76393 0.0
Co112 Co 0.21476 0.08813 0.26827 0.0
O113 O 0.2275 0.07018 0.27019 0.0
O114 O 0.20176 0.07001 0.2713 0.0
C115 C 0.22662 0.09742 0.24686 0.0
O116 O 0.198 0.10472 0.26599 0.0
Co117 Co 0.23004 0.12079 0.27121 0.0
O118 O 0.21058 0.12702 0.26059 0.0
C119 C 0.22534 0.10133 0.29905 0.0
C120 C 0.21475 0.06227 0.27118 0.0
C121 C 0.19824 0.11884 0.26107 0.0
O122 O 0.2167 0.09188 0.29135 0.0
O123 O 0.23261 0.11275 0.29293 0.0
O124 O 0.21597 0.08683 0.24568 0.0
O125 O 0.23071 0.10091 0.26088 0.0
Co126 Co 0.90419 0.21789 0.2681 0.0
O127 O 0.92394 0.22759 0.27041 0.0
O128 O 0.91965 0.20227 0.27288 0.0
C129 C 0.89771 0.22977 0.24569 0.0
O130 O 0.88517 0.20398 0.26579 0.0
Co131 Co 0.87455 0.23857 0.26882 0.0
O132 O 0.86509 0.21962 0.25969 0.0
C133 C 0.89224 0.23272 0.29755 0.0
C134 C 0.92944 0.21379 0.27274 0.0
C135 C 0.87122 0.20618 0.26084 0.0
O136 O 0.89977 0.2217 0.29082 0.0
O137 O 0.88285 0.24173 0.29036 0.0
O138 O 0.90661 0.21762 0.24553 0.0
O139 O 0.89453 0.2352 0.25931 0.0
Co140 Co 0.78033 0.9044 0.26789 0.0
O141 O 0.76923 0.92352 0.26825 0.0
O142 O 0.7946 0.92117 0.27242 0.0
C143 C 0.77012 0.8955 0.2455 0.0
O144 O 0.79559 0.88636 0.2678 0.0
Co145 Co 0.76151 0.87359 0.27 0.0
O146 O 0.7821 0.86395 0.26639 0.0
C147 C 0.76415 0.89411 0.29714 0.0
C148 C 0.78247 0.93008 0.27108 0.0
C149 C 0.79487 0.87148 0.26657 0.0
O150 O 0.77553 0.90131 0.29066 0.0
O151 O 0.75586 0.88401 0.29004 0.0
O152 O 0.78168 0.90517 0.24523 0.0
O153 O 0.76422 0.89292 0.25903 0.0
Co154 Co 0.09196 0.78354 0.26384 0.0
O155 O 0.07445 0.7707 0.26823 0.0
O156 O 0.07461 0.79642 0.26993 0.0
C157 C 0.09777 0.77197 0.24108 0.0
O158 O 0.10783 0.80058 0.25954 0.0
Co159 Co 0.12486 0.76931 0.26113 0.0
O160 O 0.12903 0.78888 0.24984 0.0
C161 C 0.11102 0.77465 0.29217 0.0
C162 C 0.06689 0.78346 0.27078 0.0
C163 C 0.12092 0.80099 0.25234 0.0
O164 O 0.09912 0.78126 0.28603 0.0
O165 O 0.1221 0.76866 0.28426 0.0
O166 O 0.08725 0.78273 0.24172 0.0
O167 O 0.10354 0.76773 0.25428 0.0
Co168 Co 0.21429 0.90126 0.72718 0.0
O169 O 0.22888 0.9179 0.72775 0.0
O170 O 0.20344 0.92082 0.7249 0.0
C171 C 0.22344 0.88896 0.74841 0.0
O172 O 0.19582 0.88649 0.72679 0.0
Co173 Co 0.22679 0.86769 0.72202 0.0
O174 O 0.2049 0.86193 0.72602 0.0
C175 C 0.22601 0.88989 0.69607 0.0
C176 C 0.21707 0.92714 0.72659 0.0
C177 C 0.19379 0.87167 0.72694 0.0
O178 O 0.21743 0.89922 0.70398 0.0
O179 O 0.23215 0.87759 0.70168 0.0
O180 O 0.21392 0.90053 0.74982 0.0
O181 O 0.22827 0.88627 0.73447 0.0
Co182 Co 0.09036 0.21591 0.7285 0.0
O183 O 0.07062 0.22577 0.72793 0.0
O184 O 0.07466 0.20087 0.72248 0.0
C185 C 0.09734 0.22539 0.75188 0.0
O186 O 0.10946 0.20196 0.7285 0.0
Co187 Co 0.11955 0.23715 0.7288 0.0
O188 O 0.13067 0.21713 0.73116 0.0
C189 C 0.10103 0.23399 0.7003 0.0
C190 C 0.06498 0.21237 0.72414 0.0
C191 C 0.12422 0.20384 0.73004 0.0
O192 O 0.094 0.22218 0.70618 0.0
O193 O 0.11032 0.24259 0.70811 0.0
O194 O 0.08869 0.21309 0.75093 0.0
O195 O 0.10014 0.2323 0.73887 0.0
Co196 Co 0.78124 0.09058 0.73113 0.0
O197 O 0.76759 0.07362 0.72705 0.0
O198 O 0.79322 0.07281 0.72442 0.0
C199 C 0.77068 0.09658 0.75429 0.0
O200 O 0.79901 0.10579 0.73488 0.0
Co201 Co 0.7684 0.12398 0.73464 0.0
O202 O 0.78855 0.12737 0.74516 0.0
C203 C 0.772 0.11018 0.70333 0.0
C204 C 0.77994 0.06561 0.72393 0.0
C205 C 0.80022 0.11884 0.7421 0.0
O206 O 0.77839 0.098 0.70911 0.0
O207 O 0.76674 0.12142 0.71153 0.0
O208 O 0.78104 0.08572 0.75323 0.0
O209 O 0.76622 0.10265 0.7413 0.0
Co210 Co 0.90268 0.77762 0.72644 0.0
O211 O 0.92131 0.76578 0.72557 0.0
O212 O 0.91999 0.79132 0.72213 0.0
C213 C 0.89388 0.76717 0.74877 0.0
O214 O 0.8853 0.79357 0.72712 0.0
Co215 Co 0.87117 0.76008 0.72448 0.0
O216 O 0.86237 0.78099 0.72842 0.0
C217 C 0.89106 0.76285 0.69687 0.0
C218 C 0.92842 0.77882 0.7232 0.0
C219 C 0.87042 0.79344 0.7284 0.0
O220 O 0.89906 0.77353 0.70361 0.0
O221 O 0.88071 0.75481 0.70389 0.0
O222 O 0.90385 0.77847 0.74909 0.0
O223 O 0.8908 0.76168 0.73516 0.0
Co224 Co 0.26324 0.212 0.08854 0.0
O225 O 0.2641 0.22076 0.06832 0.0
O226 O 0.26985 0.19622 0.07381 0.0
C227 C 0.23953 0.22144 0.09439 0.0
O228 O 0.26301 0.19922 0.10842 0.0
Co229 Co 0.26191 0.23507 0.11633 0.0
O230 O 0.25976 0.21567 0.12857 0.0
C231 C 0.29067 0.23147 0.09847 0.0
C232 C 0.26819 0.20714 0.06348 0.0
C233 C 0.26119 0.20201 0.123 0.0
O234 O 0.28534 0.21888 0.09243 0.0
O235 O 0.28242 0.24064 0.10675 0.0
O236 O 0.24089 0.20868 0.08649 0.0
O237 O 0.25236 0.22871 0.09709 0.0
Co238 Co 0.26417 0.77649 0.90775 0.0
O239 O 0.26683 0.76932 0.92848 0.0
O240 O 0.27123 0.79352 0.92073 0.0
C241 C 0.24044 0.76606 0.90421 0.0
O242 O 0.26203 0.78783 0.88709 0.0
Co243 Co 0.26144 0.75165 0.8816 0.0
O244 O 0.25694 0.77005 0.86852 0.0
C245 C 0.29169 0.75775 0.89628 0.0
C246 C 0.27065 0.78343 0.93198 0.0
C247 C 0.25867 0.78408 0.873 0.0
O248 O 0.28615 0.77006 0.90271 0.0
O249 O 0.28326 0.74798 0.88887 0.0
O250 O 0.24196 0.7793 0.91124 0.0
O251 O 0.25326 0.75892 0.90112 0.0
Co252 Co 0.21408 0.26733 0.90264 0.0
O253 O 0.22686 0.26649 0.92068 0.0
O254 O 0.20136 0.27037 0.92094 0.0
C255 C 0.22365 0.24571 0.89145 0.0
O256 O 0.1973 0.26825 0.886 0.0
Co257 Co 0.23025 0.27176 0.87059 0.0
O258 O 0.20891 0.2687 0.86251 0.0
C259 C 0.22904 0.29746 0.89301 0.0
C260 C 0.21424 0.26846 0.92862 0.0
C261 C 0.19682 0.26816 0.87105 0.0
O262 O 0.2184 0.29035 0.90073 0.0
O263 O 0.23653 0.29117 0.88182 0.0
O264 O 0.21295 0.24467 0.90199 0.0
O265 O 0.22921 0.25945 0.88926 0.0
Co266 Co 0.73052 0.21336 0.90394 0.0
O267 O 0.73066 0.22678 0.92149 0.0
O268 O 0.7254 0.20155 0.92242 0.0
C269 C 0.75357 0.22131 0.89441 0.0
O270 O 0.72993 0.19608 0.88781 0.0
Co271 Co 0.72947 0.22884 0.87134 0.0
O272 O 0.73158 0.20708 0.86408 0.0
C273 C 0.70185 0.22905 0.89126 0.0
C274 C 0.72747 0.21463 0.92974 0.0
C275 C 0.73085 0.1952 0.87291 0.0
O276 O 0.70802 0.21867 0.90003 0.0
O277 O 0.70915 0.2359 0.88029 0.0
O278 O 0.75297 0.21089 0.90526 0.0
O279 O 0.74044 0.22764 0.89085 0.0
Co280 Co 0.77862 0.72723 0.90519 0.0
O281 O 0.76697 0.72774 0.92392 0.0
O282 O 0.79213 0.72237 0.92261 0.0
C283 C 0.7698 0.75019 0.8962 0.0
O284 O 0.79419 0.72631 0.8874 0.0
Co285 Co 0.75976 0.72581 0.8744 0.0
O286 O 0.78068 0.72732 0.86493 0.0
C287 C 0.76105 0.69871 0.89496 0.0
C288 C 0.77981 0.72467 0.93107 0.0
C289 C 0.79343 0.72681 0.87247 0.0
O290 O 0.77269 0.70469 0.90218 0.0
O291 O 0.75305 0.7061 0.88485 0.0
O292 O 0.78131 0.74973 0.9059 0.0
O293 O 0.76315 0.73702 0.89349 0.0
Co294 Co 0.73121 0.7806 0.08751 0.0
O295 O 0.72949 0.77205 0.06722 0.0
O296 O 0.72337 0.79634 0.0734 0.0
C297 C 0.75546 0.77181 0.092 0.0
O298 O 0.73217 0.79328 0.10746 0.0
Co299 Co 0.73501 0.75765 0.11519 0.0
O300 O 0.73751 0.77705 0.12733 0.0
C301 C 0.70497 0.76039 0.09914 0.0
C302 C 0.7248 0.78563 0.06282 0.0
C303 C 0.73516 0.79062 0.12187 0.0
O304 O 0.70957 0.77296 0.09248 0.0
O305 O 0.714 0.7517 0.10714 0.0
O306 O 0.75333 0.78459 0.08432 0.0
O307 O 0.74301 0.76416 0.09533 0.0
Co308 Co 0.21296 0.72647 0.09094 0.0
O309 O 0.22622 0.72697 0.07326 0.0
O310 O 0.20062 0.72431 0.07219 0.0
C311 C 0.22328 0.74766 0.10239 0.0
O312 O 0.19579 0.72608 0.10722 0.0
Co313 Co 0.22839 0.72123 0.12324 0.0
O314 O 0.20704 0.72507 0.13088 0.0
C315 C 0.22587 0.69546 0.10096 0.0
C316 C 0.21377 0.72588 0.06491 0.0
C317 C 0.19509 0.72606 0.12217 0.0
O318 O 0.21617 0.70327 0.09271 0.0
O319 O 0.23328 0.70115 0.11252 0.0
O320 O 0.21275 0.74912 0.09173 0.0
O321 O 0.22822 0.73368 0.10466 0.0
Co322 Co 0.7791 0.2631 0.08973 0.0
O323 O 0.77064 0.26513 0.06943 0.0
O324 O 0.79513 0.27036 0.07567 0.0
C325 C 0.76942 0.23921 0.09426 0.0
O326 O 0.79174 0.26175 0.10965 0.0
Co327 Co 0.75613 0.26039 0.11742 0.0
O328 O 0.77541 0.25708 0.12957 0.0
C329 C 0.76026 0.29035 0.10157 0.0
C330 C 0.78439 0.26938 0.06507 0.0
C331 C 0.78904 0.25892 0.12408 0.0
O332 O 0.7724 0.28503 0.09466 0.0
O333 O 0.75123 0.28184 0.10975 0.0
O334 O 0.78226 0.24087 0.08656 0.0
O335 O 0.76221 0.25193 0.09758 0.0
Co336 Co 0.59088 0.76564 0.71457 0.0
O337 O 0.57369 0.76806 0.72832 0.0
O338 O 0.57196 0.76758 0.70261 0.0
C339 C 0.60123 0.74517 0.72716 0.0
O340 O 0.60629 0.76256 0.69682 0.0
Co341 Co 0.62458 0.76966 0.72687 0.0
O342 O 0.62934 0.75742 0.70799 0.0
C343 C 0.60511 0.79729 0.7207 0.0
C344 C 0.565 0.76802 0.71602 0.0
C345 C 0.62031 0.7574 0.69626 0.0
O346 O 0.5943 0.78885 0.71479 0.0
O347 O 0.61755 0.79184 0.72674 0.0
O348 O 0.59004 0.7432 0.71728 0.0
O349 O 0.60486 0.75945 0.73009 0.0
Co350 Co 0.22459 0.59273 0.71298 0.0
O351 O 0.22369 0.57655 0.72809 0.0
O352 O 0.22005 0.57324 0.70277 0.0
C353 C 0.24711 0.60307 0.72139 0.0
O354 O 0.22539 0.60683 0.69399 0.0
Co355 Co 0.22308 0.62704 0.72418 0.0
O356 O 0.22764 0.63163 0.70215 0.0
C357 C 0.19458 0.60813 0.72333 0.0
C358 C 0.2212 0.56719 0.71657 0.0
C359 C 0.22722 0.62144 0.69142 0.0
O360 O 0.2018 0.59708 0.71636 0.0
O361 O 0.20117 0.62048 0.72831 0.0
O362 O 0.2471 0.59116 0.71218 0.0
O363 O 0.23364 0.60736 0.72644 0.0
Co364 Co 0.40347 0.2277 0.71335 0.0
O365 O 0.4234 0.2276 0.72277 0.0
O366 O 0.41892 0.22158 0.69808 0.0
C367 C 0.39651 0.25121 0.72256 0.0
O368 O 0.38401 0.2272 0.69992 0.0
Co369 Co 0.37492 0.22806 0.73543 0.0
O370 O 0.3632 0.22964 0.71566 0.0
C371 C 0.39424 0.20016 0.73282 0.0
C372 C 0.42882 0.22363 0.70933 0.0
C373 C 0.36929 0.22846 0.7022 0.0
O374 O 0.40022 0.20551 0.72022 0.0
O375 O 0.38539 0.20818 0.74166 0.0
O376 O 0.40481 0.25011 0.71003 0.0
O377 O 0.39402 0.2383 0.72976 0.0
Co378 Co 0.76148 0.40473 0.7114 0.0
O379 O 0.76083 0.42403 0.72209 0.0
O380 O 0.76622 0.42147 0.697 0.0
C381 C 0.73866 0.3959 0.72072 0.0
O382 O 0.7626 0.38617 0.69678 0.0
Co383 Co 0.76322 0.37496 0.73187 0.0
O384 O 0.76201 0.36441 0.71142 0.0
C385 C 0.79016 0.3956 0.72931 0.0
C386 C 0.76393 0.43053 0.70891 0.0
C387 C 0.76243 0.37129 0.69829 0.0
O388 O 0.78404 0.40219 0.71738 0.0
O389 O 0.78287 0.38593 0.73791 0.0
O390 O 0.73894 0.40507 0.70878 0.0
O391 O 0.75188 0.39371 0.72743 0.0
Co392 Co 0.58699 0.22669 0.27916 0.0
O393 O 0.56695 0.22671 0.26994 0.0
O394 O 0.57149 0.22222 0.29493 0.0
C395 C 0.59485 0.24926 0.26846 0.0
O396 O 0.60658 0.22639 0.29244 0.0
Co397 Co 0.61538 0.22475 0.25682 0.0
O398 O 0.62723 0.22766 0.27635 0.0
C399 C 0.59552 0.19743 0.26175 0.0
C400 C 0.56153 0.22394 0.28367 0.0
C401 C 0.62129 0.22734 0.28992 0.0
O402 O 0.58939 0.20395 0.27373 0.0
O403 O 0.60464 0.20457 0.25243 0.0
O404 O 0.58655 0.24931 0.28103 0.0
O405 O 0.59669 0.23583 0.26206 0.0
Co406 Co 0.76348 0.5894 0.27774 0.0
O407 O 0.76701 0.57087 0.26625 0.0
O408 O 0.77162 0.57351 0.29148 0.0
C409 C 0.73931 0.59355 0.26861 0.0
O410 O 0.76052 0.60701 0.29328 0.0
Co411 Co 0.75845 0.62013 0.25948 0.0
O412 O 0.75038 0.62709 0.27992 0.0
C413 C 0.78964 0.60608 0.26136 0.0
C414 C 0.77129 0.56463 0.27923 0.0
C415 C 0.75379 0.62036 0.29267 0.0
O416 O 0.78494 0.59687 0.27214 0.0
O417 O 0.78055 0.61518 0.25388 0.0
O418 O 0.7416 0.58409 0.28009 0.0
O419 O 0.75173 0.59893 0.26213 0.0
Co420 Co 0.40408 0.76847 0.27944 0.0
O421 O 0.42373 0.76832 0.26939 0.0
O422 O 0.42031 0.77183 0.29473 0.0
C423 C 0.39483 0.7467 0.26822 0.0
O424 O 0.38507 0.76875 0.29349 0.0
Co425 Co 0.37509 0.77275 0.25818 0.0
O426 O 0.36388 0.76948 0.27804 0.0
C427 C 0.39627 0.79877 0.26367 0.0
C428 C 0.42975 0.77044 0.283 0.0
C429 C 0.37025 0.7687 0.2914 0.0
O430 O 0.40218 0.7915 0.2753 0.0
O431 O 0.38675 0.7925 0.25414 0.0
O432 O 0.40387 0.74579 0.28024 0.0
O433 O 0.39328 0.76045 0.26244 0.0
Co434 Co 0.22856 0.40514 0.28198 0.0
O435 O 0.22853 0.42157 0.26718 0.0
O436 O 0.22519 0.42475 0.29253 0.0
C437 C 0.25055 0.39404 0.27309 0.0
O438 O 0.22853 0.39053 0.30062 0.0
Co439 Co 0.22554 0.37122 0.26977 0.0
O440 O 0.23021 0.36594 0.29164 0.0
C441 C 0.19813 0.39173 0.27047 0.0
C442 C 0.22676 0.43093 0.27881 0.0
C443 C 0.23 0.3758 0.30267 0.0
O444 O 0.20557 0.40194 0.27845 0.0
O445 O 0.20434 0.37945 0.26488 0.0
O446 O 0.25117 0.40557 0.28275 0.0
O447 O 0.23683 0.3905 0.26813 0.0
Co448 Co 0.71652 0.58855 0.76712 0.0
O449 O 0.72478 0.56805 0.76756 0.0
O450 O 0.70004 0.57392 0.77179 0.0
C451 C 0.72758 0.59555 0.74444 0.0
O452 O 0.70408 0.60865 0.76697 0.0
Co453 Co 0.73988 0.61614 0.76857 0.0
O454 O 0.72089 0.62864 0.76496 0.0
C455 C 0.73361 0.5976 0.79657 0.0
C456 C 0.71076 0.56337 0.77027 0.0
C457 C 0.70711 0.62323 0.76552 0.0
O458 O 0.72183 0.59127 0.78985 0.0
O459 O 0.74326 0.60637 0.78943 0.0
O460 O 0.71473 0.58769 0.74451 0.0
O461 O 0.73405 0.59738 0.75784 0.0
Co462 Co 0.40528 0.71587 0.76284 0.0
O463 O 0.42538 0.72426 0.76664 0.0
O464 O 0.41899 0.69948 0.76987 0.0
C465 C 0.40199 0.72701 0.73939 0.0
O466 O 0.38561 0.70322 0.75945 0.0
Co467 Co 0.37731 0.73852 0.75961 0.0
O468 O 0.36696 0.71963 0.75127 0.0
C469 C 0.39188 0.73321 0.79011 0.0
C470 C 0.42959 0.71026 0.77015 0.0
C471 C 0.37211 0.70594 0.75363 0.0
O472 O 0.39898 0.72121 0.78476 0.0
O473 O 0.38404 0.74255 0.7816 0.0
O474 O 0.40981 0.7142 0.74067 0.0
O475 O 0.39785 0.73333 0.75235 0.0
Co476 Co 0.28067 0.40057 0.76823 0.0
O477 O 0.26759 0.41841 0.76782 0.0
O478 O 0.29313 0.41899 0.77156 0.0
C479 C 0.27105 0.38948 0.74655 0.0
O480 O 0.29776 0.38426 0.76876 0.0
Co481 Co 0.26521 0.36821 0.77256 0.0
O482 O 0.28665 0.36054 0.76921 0.0
C483 C 0.26615 0.39044 0.79836 0.0
C484 C 0.28009 0.42648 0.77009 0.0
C485 C 0.29855 0.36933 0.76855 0.0
O486 O 0.27661 0.39835 0.79123 0.0
O487 O 0.25888 0.37905 0.79218 0.0
O488 O 0.28158 0.40023 0.74555 0.0
O489 O 0.26568 0.38701 0.76033 0.0
Co490 Co 0.58676 0.27826 0.76406 0.0
O491 O 0.56797 0.26673 0.76538 0.0
O492 O 0.57029 0.29167 0.77152 0.0
C493 C 0.59304 0.27043 0.73991 0.0
O494 O 0.60457 0.29379 0.76346 0.0
Co495 Co 0.61756 0.25968 0.76115 0.0
O496 O 0.62672 0.28066 0.75866 0.0
C497 C 0.6009 0.26047 0.79092 0.0
C498 C 0.56145 0.27952 0.76983 0.0
C499 C 0.61927 0.29328 0.76077 0.0
O500 O 0.59236 0.27162 0.78584 0.0
O501 O 0.61042 0.25298 0.7823 0.0
O502 O 0.58341 0.28181 0.74199 0.0
O503 O 0.59723 0.26319 0.75237 0.0
Co504 Co 0.71227 0.40414 0.22871 0.0
O505 O 0.72374 0.42299 0.22821 0.0
O506 O 0.69847 0.42114 0.22336 0.0
C507 C 0.72174 0.39597 0.25171 0.0
O508 O 0.69685 0.38622 0.22872 0.0
Co509 Co 0.73131 0.37343 0.2279 0.0
O510 O 0.71046 0.36382 0.22981 0.0
C511 C 0.72916 0.39301 0.20015 0.0
C512 C 0.71078 0.4298 0.22487 0.0
C513 C 0.69769 0.37131 0.22943 0.0
O514 O 0.71763 0.40034 0.20618 0.0
O515 O 0.73744 0.38324 0.20767 0.0
O516 O 0.71017 0.4056 0.25126 0.0
O517 O 0.72804 0.3929 0.23847 0.0
Co518 Co 0.58892 0.71142 0.22933 0.0
O519 O 0.57133 0.72432 0.22574 0.0
O520 O 0.57133 0.69865 0.22351 0.0
C521 C 0.59536 0.72245 0.25219 0.0
O522 O 0.60502 0.69445 0.23281 0.0
Co523 Co 0.6217 0.72634 0.23124 0.0
O524 O 0.62673 0.70625 0.24132 0.0
C525 C 0.60618 0.72265 0.20086 0.0
C526 C 0.56362 0.71165 0.22324 0.0
C527 C 0.61855 0.6941 0.23916 0.0
O528 O 0.59548 0.71426 0.20702 0.0
O529 O 0.61693 0.72939 0.20861 0.0
O530 O 0.58485 0.71168 0.2516 0.0
O531 O 0.60066 0.72706 0.23893 0.0
Co532 Co 0.2806 0.58872 0.22847 0.0
O533 O 0.27265 0.56818 0.22682 0.0
O534 O 0.29666 0.57511 0.22043 0.0
C535 C 0.27201 0.59294 0.25283 0.0
O536 O 0.29265 0.60906 0.22931 0.0
Co537 Co 0.25686 0.61559 0.23224 0.0
O538 O 0.27584 0.62839 0.23475 0.0
C539 C 0.26012 0.59992 0.20208 0.0
C540 C 0.28628 0.56421 0.22191 0.0
C541 C 0.28956 0.62338 0.23234 0.0
O542 O 0.27268 0.5934 0.20688 0.0
O543 O 0.25124 0.60785 0.21097 0.0
O544 O 0.28497 0.58566 0.25048 0.0
O545 O 0.26402 0.59602 0.2405 0.0
Co546 Co 0.40315 0.2771 0.22835 0.0
O547 O 0.42253 0.26656 0.22709 0.0
O548 O 0.4193 0.29178 0.22282 0.0
C549 C 0.39615 0.26699 0.25146 0.0
O550 O 0.38468 0.2918 0.22924 0.0
Co551 Co 0.37297 0.25725 0.2285 0.0
O552 O 0.36289 0.2776 0.23227 0.0
C553 C 0.39102 0.26073 0.19971 0.0
C554 C 0.42864 0.27995 0.22402 0.0
C555 C 0.36993 0.2906 0.23132 0.0
O556 O 0.39882 0.27191 0.20586 0.0
O557 O 0.38151 0.25229 0.20741 0.0
O558 O 0.40529 0.27894 0.25085 0.0
O559 O 0.39284 0.26073 0.23823 0.0
Co560 Co 0.76352 0.71266 0.58828 0.0
O561 O 0.76395 0.72345 0.56903 0.0
O562 O 0.77077 0.69875 0.5721 0.0
C563 C 0.73949 0.72036 0.59519 0.0
O564 O 0.76392 0.69792 0.60674 0.0
Co565 Co 0.76168 0.73273 0.61822 0.0
O566 O 0.76078 0.71215 0.62855 0.0
C567 C 0.79024 0.73217 0.59981 0.0
C568 C 0.76871 0.71058 0.56291 0.0
C569 C 0.76242 0.69919 0.62156 0.0
O570 O 0.78534 0.71997 0.59275 0.0
O571 O 0.78179 0.74018 0.60903 0.0
O572 O 0.74136 0.70861 0.58595 0.0
O573 O 0.75199 0.72795 0.59856 0.0
Co574 Co 0.76694 0.27975 0.40235 0.0
O575 O 0.76617 0.26739 0.42063 0.0
O576 O 0.77004 0.29292 0.42035 0.0
C577 C 0.7453 0.26983 0.39146 0.0
O578 O 0.7678 0.29611 0.38533 0.0
Co579 Co 0.77148 0.26281 0.37076 0.0
O580 O 0.76826 0.28392 0.36214 0.0
C581 C 0.7969 0.26433 0.3934 0.0
C582 C 0.76826 0.28017 0.42828 0.0
C583 C 0.76765 0.29623 0.37038 0.0
O584 O 0.78991 0.27539 0.40058 0.0
O585 O 0.7907 0.25655 0.38236 0.0
O586 O 0.7443 0.28084 0.40171 0.0
O587 O 0.75905 0.26424 0.38936 0.0
Co588 Co 0.71174 0.76643 0.4025 0.0
O589 O 0.72461 0.76682 0.42045 0.0
O590 O 0.69935 0.772 0.42047 0.0
C591 C 0.72011 0.74321 0.39379 0.0
O592 O 0.69496 0.76652 0.38584 0.0
Co593 Co 0.72813 0.76694 0.3704 0.0
O594 O 0.70666 0.76437 0.3625 0.0
C595 C 0.72805 0.79475 0.39006 0.0
C596 C 0.71222 0.77028 0.42821 0.0
C597 C 0.69452 0.76517 0.37095 0.0
O598 O 0.71715 0.78884 0.39834 0.0
O599 O 0.73525 0.78724 0.37946 0.0
O600 O 0.70934 0.74402 0.40427 0.0
O601 O 0.72647 0.7563 0.39009 0.0
Co602 Co 0.22508 0.70804 0.39997 0.0
O603 O 0.22439 0.72315 0.41617 0.0
O604 O 0.22256 0.69769 0.41976 0.0
C605 C 0.24628 0.7181 0.38833 0.0
O606 O 0.22601 0.68898 0.38588 0.0
Co607 Co 0.22109 0.71862 0.36565 0.0
O608 O 0.2265 0.69688 0.36091 0.0
C609 C 0.19367 0.71613 0.38615 0.0
C610 C 0.22332 0.71158 0.42571 0.0
C611 C 0.22711 0.68629 0.3712 0.0
O612 O 0.20186 0.71016 0.39712 0.0
O613 O 0.19932 0.72101 0.37331 0.0
O614 O 0.24771 0.70872 0.40002 0.0
O615 O 0.23223 0.72201 0.38483 0.0
Co616 Co 0.27992 0.2274 0.4043 0.0
O617 O 0.26839 0.22761 0.42312 0.0
O618 O 0.29355 0.22228 0.42152 0.0
C619 C 0.27091 0.25044 0.39575 0.0
O620 O 0.29553 0.22677 0.38657 0.0
Co621 Co 0.26169 0.22666 0.37322 0.0
O622 O 0.28259 0.22904 0.36391 0.0
C623 C 0.26264 0.199 0.39326 0.0
C624 C 0.28129 0.22437 0.43011 0.0
C625 C 0.29516 0.22808 0.37168 0.0
O626 O 0.27397 0.20492 0.40102 0.0
O627 O 0.25505 0.20657 0.38296 0.0
O628 O 0.28256 0.24989 0.40527 0.0
O629 O 0.26433 0.23728 0.39279 0.0
Co630 Co 0.22514 0.27685 0.58897 0.0
O631 O 0.22472 0.26788 0.56877 0.0
O632 O 0.22151 0.293 0.5737 0.0
C633 C 0.24709 0.26504 0.59696 0.0
O634 O 0.22552 0.28994 0.60867 0.0
Co635 Co 0.22173 0.25438 0.61712 0.0
O636 O 0.22593 0.27359 0.62915 0.0
C637 C 0.19504 0.26082 0.597 0.0
C638 C 0.22266 0.28183 0.56357 0.0
C639 C 0.2264 0.28723 0.62336 0.0
O640 O 0.20215 0.27266 0.5913 0.0
O641 O 0.20157 0.25094 0.60597 0.0
O642 O 0.24782 0.27754 0.58859 0.0
O643 O 0.23336 0.25926 0.59863 0.0
Co644 Co 0.7101 0.22688 0.58928 0.0
O645 O 0.72232 0.22264 0.57129 0.0
O646 O 0.69655 0.22283 0.57186 0.0
C647 C 0.72342 0.24828 0.59639 0.0
O648 O 0.69358 0.23146 0.6056 0.0
Co649 Co 0.72466 0.22683 0.62227 0.0
O650 O 0.70601 0.23932 0.62716 0.0
C651 C 0.71705 0.19707 0.60667 0.0
C652 C 0.70928 0.22152 0.56384 0.0
C653 C 0.69373 0.23806 0.61901 0.0
O654 O 0.71084 0.20419 0.5951 0.0
O655 O 0.7236 0.20396 0.61811 0.0
O656 O 0.71259 0.24916 0.58595 0.0
O657 O 0.72663 0.23445 0.60126 0.0
Co658 Co 0.28227 0.76158 0.58919 0.0
O659 O 0.27031 0.76259 0.57061 0.0
O660 O 0.29528 0.76884 0.57234 0.0
C661 C 0.27434 0.73756 0.59598 0.0
O662 O 0.29829 0.76137 0.60655 0.0
Co663 Co 0.26491 0.75914 0.62063 0.0
O664 O 0.28613 0.75715 0.62934 0.0
C665 C 0.26449 0.78843 0.60311 0.0
C666 C 0.28291 0.76716 0.56381 0.0
C667 C 0.29842 0.75913 0.62133 0.0
O668 O 0.27565 0.78345 0.59452 0.0
O669 O 0.25745 0.77986 0.61301 0.0
O670 O 0.28567 0.73937 0.58621 0.0
O671 O 0.26739 0.75017 0.60021 0.0
C672 C 0.95578 0.22269 0.27918 0.0
C673 C 0.94626 0.21161 0.27201 0.0
C674 C 0.97062 0.22557 0.27345 0.0
C675 C 0.98722 0.22713 0.23531 0.0
H676 H 0.02317 0.24305 0.2572 0.0
C677 C 0.04158 0.25558 0.20675 0.0
C678 C 0.0492 0.26683 0.21575 0.0
C679 C 0.02817 0.24838 0.21244 0.0
C680 C 0.0131 0.23881 0.25094 0.0
H681 H 0.94519 0.19354 0.25456 0.0
H682 H 0.97125 0.19863 0.24441 0.0
H683 H 0.00403 0.22763 0.27119 0.0
H684 H 0.04789 0.28102 0.23643 0.0
H685 H 0.02404 0.26914 0.24595 0.0
H686 H 0.99611 0.23872 0.21515 0.0
C687 C 0.96723 0.20511 0.25441 0.0
C688 C 0.00229 0.22981 0.25893 0.0
C689 C 0.95244 0.20205 0.26035 0.0
C690 C 0.04214 0.27236 0.22931 0.0
C691 C 0.02868 0.26535 0.23489 0.0
C692 C -0.00194 0.23617 0.22731 0.0
C693 C 0.97602 0.21756 0.2603 0.0
C694 C 0.98905 0.22419 0.25129 0.0
C695 C 0.02225 0.25254 0.22708 0.0
C696 C 0.01089 0.24246 0.23517 0.0
H697 H 0.95115 0.23025 0.28812 0.0
H698 H 0.9771 0.23524 0.27824 0.0
H699 H 0.97698 0.22316 0.22918 0.0
H700 H 0.04698 0.25099 0.19635 0.0
H701 H 0.02338 0.23863 0.20611 0.0
C702 C 0.79289 0.95383 0.25886 0.0
C703 C 0.7835 0.947 0.27027 0.0
C704 C 0.78936 0.96868 0.25332 0.0
C705 C 0.76439 0.00313 0.2591 0.0
H706 H 0.75474 -0.00169 0.2153 0.0
C707 C 0.72146 0.04396 0.23114 0.0
C708 C 0.72633 0.05093 0.21727 0.0
C709 C 0.72875 0.03058 0.23651 0.0
C710 C 0.75751 -8e-05 0.22747 0.0
H711 H 0.76445 0.95063 0.2862 0.0
H712 H 0.75866 0.97674 0.27707 0.0
H713 H 0.7705 0.97876 0.22848 0.0
H714 H 0.7414 0.04872 0.19729 0.0
H715 H 0.75436 0.02531 0.20674 0.0
H716 H 0.75129 0.02413 0.25823 0.0
C717 C 0.76857 0.97072 0.27219 0.0
C718 C 0.76665 0.98882 0.23498 0.0
C719 C 0.77189 0.95581 0.27747 0.0
C720 C 0.73734 0.04339 0.20794 0.0
C721 C 0.74485 0.03008 0.21344 0.0
C722 C 0.75536 0.01425 0.25159 0.0
C723 C 0.77662 0.97686 0.25941 0.0
C724 C 0.76985 0.99015 0.25095 0.0
C725 C 0.74125 0.02414 0.22822 0.0
C726 C 0.75144 0.01254 0.23581 0.0
H727 H 0.80177 0.9471 0.25302 0.0
H728 H 0.7958 0.97327 0.24354 0.0
H729 H 0.76676 0.00444 0.27139 0.0
H730 H 0.71295 0.04962 0.23849 0.0
H731 H 0.72534 0.02592 0.24768 0.0
C732 C 0.04166 0.79301 0.26102 0.0
C733 C 0.04989 0.78294 0.27083 0.0
C734 C 0.0271 0.78864 0.25534 0.0
C735 C 0.99565 0.75956 0.2579 0.0
H736 H -0.00018 0.75751 0.21305 0.0
C737 C 0.9547 0.72126 0.22398 0.0
C738 C 0.94738 0.72856 0.21143 0.0
C739 C 0.96839 0.72735 0.23007 0.0
C740 C -0.0016 0.75811 0.22553 0.0
H741 H 0.04869 0.76173 0.28425 0.0
H742 H 0.02308 0.75436 0.27483 0.0
H743 H 0.01857 0.77237 0.22827 0.0
H744 H 0.94925 0.74679 0.19426 0.0
H745 H 0.97309 0.75767 0.20499 0.0
H746 H 0.97552 0.74538 0.25528 0.0
C747 C 0.02787 0.76543 0.27123 0.0
C748 C 0.00904 0.76673 0.23423 0.0
C749 C 0.04251 0.76966 0.27668 0.0
C750 C 0.95486 0.74085 0.20383 0.0
C751 C 0.96845 0.74716 0.2101 0.0
C752 C 0.98495 0.75107 0.24921 0.0
C753 C 0.02056 0.77434 0.25971 0.0
C754 C 0.00787 0.76735 0.25051 0.0
C755 C 0.97474 0.74106 0.22389 0.0
C756 C 0.98636 0.75 0.23295 0.0
H757 H 0.04719 0.80327 0.25627 0.0
H758 H 0.02153 0.7958 0.24662 0.0
H759 H 0.9945 0.75989 0.27043 0.0
H760 H 0.94904 0.71177 0.23002 0.0
H761 H 0.9733 0.72204 0.24036 0.0
C762 C 0.28077 0.95671 0.21909 0.0
C763 C 0.27361 0.94736 0.20786 0.0
C764 C 0.27488 0.97141 0.22235 0.0
C765 C 0.23616 0.98704 0.22406 0.0
H766 H 0.25702 0.02181 0.24356 0.0
C767 C 0.2069 0.0393 0.25591 0.0
C768 C 0.2155 0.04553 0.26829 0.0
C769 C 0.21257 0.02642 0.24777 0.0
C770 C 0.25105 0.01207 0.23827 0.0
H771 H 0.25625 0.9466 0.18973 0.0
H772 H 0.24596 0.97248 0.19531 0.0
H773 H 0.27172 0.00428 0.22693 0.0
H774 H 0.23519 0.04199 0.28348 0.0
H775 H 0.2447 0.01914 0.26976 0.0
H776 H 0.21553 0.99474 0.23571 0.0
C777 C 0.25599 0.96841 0.20172 0.0
C778 C 0.25944 0.00217 0.22861 0.0
C779 C 0.26205 0.95373 0.19833 0.0
C780 C 0.22841 0.03738 0.27392 0.0
C781 C 0.23399 0.02449 0.26591 0.0
C782 C 0.22773 -0.00298 0.2337 0.0
C783 C 0.26164 0.97685 0.21451 0.0
C784 C 0.2522 0.98929 0.22174 0.0
C785 C 0.22677 0.01966 0.25209 0.0
C786 C 0.23523 0.00934 0.24127 0.0
H787 H 0.2896 0.95191 0.22666 0.0
H788 H 0.27954 0.97761 0.23226 0.0
H789 H 0.23028 0.97706 0.21914 0.0
H790 H 0.19697 0.04549 0.25128 0.0
H791 H 0.20669 0.02281 0.23725 0.0
C792 C 0.95153 0.78823 0.73718 0.0
C793 C 0.94527 0.7792 0.72514 0.0
C794 C 0.96515 0.78346 0.74462 0.0
C795 C 0.98251 0.74586 0.75295 0.0
H796 H 0.01548 0.76917 0.7728 0.0
C797 C 0.03964 0.72039 0.77387 0.0
C798 C 0.0474 0.72752 0.78627 0.0
C799 C 0.02494 0.72548 0.7695 0.0
C800 C 0.0061 0.76258 0.76761 0.0
H801 H 0.94929 0.75979 0.70973 0.0
H802 H 0.9735 0.75195 0.72208 0.0
H803 H -0.00318 0.78268 0.7562 0.0
H804 H 0.04552 0.74425 0.80491 0.0
H805 H 0.01965 0.75328 0.79724 0.0
H806 H 0.99193 0.72574 0.76406 0.0
C807 C 0.96763 0.76225 0.72628 0.0
C808 C 0.99556 0.77029 0.75798 0.0
C809 C 0.95395 0.76688 0.71904 0.0
C810 C 0.03959 0.73848 0.79543 0.0
C811 C 0.02494 0.74378 0.7909 0.0
C812 C 0.99302 0.73818 0.76254 0.0
C813 C 0.97265 0.76975 0.73989 0.0
C814 C 0.98389 0.76192 0.75026 0.0
C815 C 0.01794 0.73795 0.77734 0.0
C816 C 0.0051 0.7464 0.76972 0.0
H817 H 0.9449 0.7977 0.74216 0.0
H818 H 0.96884 0.78956 0.75499 0.0
H819 H 0.9733 0.73917 0.74758 0.0
H820 H 0.04559 0.71203 0.76658 0.0
H821 H 0.01986 0.72077 0.75899 0.0
C822 C 0.25817 0.04273 0.79534 0.0
C823 C 0.27029 0.04815 0.78592 0.0
C824 C 0.25255 0.02761 0.79339 0.0
C825 C 0.25875 0.99055 0.77219 0.0
H826 H 0.21595 0.99599 0.75906 0.0
C827 C 0.23348 0.95058 0.72681 0.0
C828 C 0.21923 0.9436 0.7304 0.0
C829 C 0.23847 0.96358 0.73502 0.0
C830 C 0.22781 0.99421 0.76286 0.0
H831 H 0.28741 0.04183 0.76871 0.0
H832 H 0.27812 0.01535 0.7657 0.0
H833 H 0.22856 0.01605 0.77468 0.0
H834 H 0.19827 0.94549 0.74416 0.0
H835 H 0.20702 0.96837 0.75861 0.0
H836 H 0.2582 0.96898 0.75995 0.0
C837 C 0.27274 0.02262 0.77443 0.0
C838 C 0.235 0.00561 0.77193 0.0
C839 C 0.27813 0.03777 0.77617 0.0
C840 C 0.20926 0.95079 0.7411 0.0
C841 C 0.21434 0.96378 0.74947 0.0
C842 C 0.25158 0.97918 0.76316 0.0
C843 C 0.25923 0.01778 0.7822 0.0
C844 C 0.2507 0.00411 0.77622 0.0
C845 C 0.22937 0.9697 0.74709 0.0
C846 C 0.23624 0.98117 0.75792 0.0
H847 H 0.25185 0.05066 0.80279 0.0
H848 H 0.24223 0.02406 0.79963 0.0
H849 H 0.27081 0.98905 0.77545 0.0
H850 H 0.24131 0.94524 0.71854 0.0
H851 H 0.24989 0.96826 0.73257 0.0
C852 C 0.03912 0.22147 0.71666 0.0
C853 C 0.04814 0.21044 0.72449 0.0
C854 C 0.02451 0.22549 0.7223 0.0
C855 C 0.00809 0.2298 0.7606 0.0
H856 H 0.97352 0.24743 0.73787 0.0
C857 C 0.95363 0.26027 0.78663 0.0
C858 C 0.94674 0.27155 0.77708 0.0
C859 C 0.96738 0.25302 0.78194 0.0
C860 C 0.98322 0.24273 0.74435 0.0
H861 H 0.04847 0.19356 0.74308 0.0
H862 H 0.02274 0.20048 0.75295 0.0
H863 H 0.99169 0.23038 0.72452 0.0
H864 H 0.94999 0.28615 0.75692 0.0
H865 H 0.97437 0.27411 0.74916 0.0
H866 H -0.00037 0.24235 0.7804 0.0
C867 C 0.027 0.20613 0.74255 0.0
C868 C 0.9935 0.23282 0.73674 0.0
C869 C 0.04158 0.20197 0.73675 0.0
C870 C 0.9551 0.27743 0.76442 0.0
C871 C 0.96888 0.27033 0.75983 0.0
C872 C -0.00226 0.2397 0.76825 0.0
C873 C 0.01883 0.21865 0.73598 0.0
C874 C 0.00625 0.22653 0.74467 0.0
C875 C 0.97439 0.25722 0.76781 0.0
C876 C 0.98545 0.24658 0.76007 0.0
H877 H 0.04409 0.22826 0.7073 0.0
H878 H 0.01854 0.23518 0.71694 0.0
H879 H 0.01797 0.22534 0.76698 0.0
H880 H 0.94731 0.25547 0.79639 0.0
H881 H 0.97149 0.24306 0.78842 0.0
C882 C 0.76508 0.04198 0.71761 0.0
C883 C 0.77872 0.04866 0.72348 0.0
C884 C 0.76036 0.02736 0.72267 0.0
C885 C 0.76142 0.00715 0.75894 0.0
H886 H 0.73934 0.97476 0.73686 0.0
C887 C 0.7364 0.95163 0.78719 0.0
C888 C 0.72416 0.94427 0.77938 0.0
C889 C 0.74225 0.9657 0.7816 0.0
C890 C 0.7452 0.98389 0.74323 0.0
H891 H 0.79909 0.04479 0.73772 0.0
H892 H 0.79076 0.01915 0.7467 0.0
H893 H 0.75389 0.99412 0.72229 0.0
H894 H 0.70696 0.94654 0.76123 0.0
H895 H 0.71642 0.97161 0.75212 0.0
H896 H 0.7524 -0.00278 0.77987 0.0
C897 C 0.78371 0.02524 0.73825 0.0
C898 C 0.75373 0.9948 0.73486 0.0
C899 C 0.78856 0.03979 0.73295 0.0
C900 C 0.71639 0.95212 0.76744 0.0
C901 C 0.72202 0.96629 0.76205 0.0
C902 C 0.75277 0.9963 0.76733 0.0
C903 C 0.76913 0.01937 0.73385 0.0
C904 C 0.76185 0.00657 0.74263 0.0
C905 C 0.73575 0.97257 0.76827 0.0
C906 C 0.74443 0.98464 0.75956 0.0
H907 H 0.75731 0.04868 0.71032 0.0
H908 H 0.74909 0.02308 0.71906 0.0
H909 H 0.76732 0.01634 0.7652 0.0
H910 H 0.7427 0.94561 0.79627 0.0
H911 H 0.75279 0.97026 0.78673 0.0
C912 C 0.27631 0.21457 0.03738 0.0
C913 C 0.26786 0.20432 0.04676 0.0
C914 C 0.27022 0.21941 0.02319 0.0
C915 C 0.23794 0.21638 0.99512 0.0
H916 H 0.23744 0.26121 4e-05 0.0
C917 C 0.20479 0.25486 0.95215 0.0
C918 C 0.21474 0.26586 0.94541 0.0
C919 C 0.20893 0.24769 0.96614 0.0
C920 C 0.23746 0.24872 -0.00149 0.0
H921 H 0.24788 0.18915 0.04783 0.0
H922 H 0.23721 0.19752 0.02292 0.0
H923 H 0.25198 0.24531 0.01828 0.0
H924 H 0.23571 0.27933 0.94854 0.0
H925 H 0.24272 0.26727 0.97303 0.0
H926 H 0.22363 0.21991 0.97508 0.0
C927 C 0.24846 0.2019 0.02648 0.0
C928 C 0.24592 0.23962 0.00884 0.0
C929 C 0.25467 0.19695 0.04066 0.0
C930 C 0.22783 0.27093 0.95362 0.0
C931 C 0.23185 0.26396 0.96764 0.0
C932 C 0.22952 0.22554 0.98466 0.0
C933 C 0.25557 0.21411 0.01834 0.0
C934 C 0.24655 0.2234 0.00705 0.0
C935 C 0.22292 0.25166 0.97358 0.0
C936 C 0.22946 0.24184 0.98609 0.0
H937 H 0.28646 0.22045 0.04193 0.0
H938 H 0.27613 0.22855 0.01687 0.0
H939 H 0.23808 0.20389 0.99364 0.0
H940 H 0.19471 0.25066 0.94588 0.0
H941 H 0.20172 0.2384 0.97061 0.0
C942 C 0.2783 0.77779 0.95879 0.0
C943 C 0.27077 0.78778 0.9484 0.0
C944 C 0.27251 0.77581 0.97376 0.0
C945 C 0.23379 0.77417 0.98931 0.0
H946 H 0.25522 0.75775 0.02528 0.0
C947 C 0.20582 0.74189 0.04239 0.0
C948 C 0.2149 0.72974 0.04837 0.0
C949 C 0.21121 0.75059 0.02975 0.0
C950 C 0.24909 0.76224 0.01526 0.0
H951 H 0.25287 0.80522 0.94594 0.0
H952 H 0.24273 0.80186 0.97225 0.0
H953 H 0.2693 0.77401 0.00689 0.0
H954 H 0.23542 0.71572 0.04478 0.0
H955 H 0.24452 0.73046 0.02242 0.0
H956 H 0.21366 0.76198 -0.00244 0.0
C957 C 0.25297 0.79541 0.96881 0.0
C958 C 0.25711 0.77167 0.00484 0.0
C959 C 0.25893 0.79753 0.95385 0.0
C960 C 0.22825 0.72507 0.04034 0.0
C961 C 0.23358 0.73365 0.02773 0.0
C962 C 0.22572 0.76478 -0.00018 0.0
C963 C 0.259 0.78369 0.97845 0.0
C964 C 0.24971 0.77728 0.99144 0.0
C965 C 0.22567 0.74711 0.02302 0.0
C966 C 0.23348 0.75826 0.01255 0.0
H967 H 0.28738 0.77008 0.95474 0.0
H968 H 0.27749 0.76671 0.98087 0.0
H969 H 0.22779 0.77812 0.97898 0.0
H970 H 0.19557 0.74581 0.04854 0.0
H971 H 0.20482 0.76083 0.02621 0.0
C972 C 0.72453 0.22917 0.95407 0.0
C973 C 0.72965 0.21567 0.94655 0.0
C974 C 0.73219 0.23452 0.96727 0.0
C975 C 0.75968 0.25012 0.98172 0.0
H976 H 0.77604 0.228 0.01729 0.0
C977 C 0.77699 0.27763 0.03888 0.0
C978 C 0.78764 0.26991 0.04844 0.0
C979 C 0.77423 0.27232 0.02385 0.0
C980 C 0.7719 0.23423 0.00717 0.0
H981 H 0.74538 0.19613 0.9478 0.0
H982 H 0.75884 0.20546 0.97101 0.0
H983 H 0.75973 0.21427 -0.00143 0.0
H984 H 0.80533 0.25211 0.04936 0.0
H985 H 0.80057 0.24276 0.02295 0.0
H986 H 0.77145 0.27017 0.99051 0.0
C987 C 0.74895 0.21193 0.96672 0.0
C988 C 0.76242 0.2264 -0.00342 0.0
C989 C 0.74113 0.20648 0.95356 0.0
C990 C 0.79716 0.25832 0.04209 0.0
C991 C 0.79425 0.25282 0.02709 0.0
C992 C 0.76915 0.25793 0.99227 0.0
C993 C 0.7452 0.22653 0.97301 0.0
C994 C 0.75584 0.23439 0.98401 0.0
C995 C 0.78199 0.25907 0.01831 0.0
C996 C 0.77503 0.25018 0.00533 0.0
H997 H 0.7157 0.23643 0.94881 0.0
H998 H 0.72872 0.24555 0.97222 0.0
H999 H 0.7552 0.25646 0.97182 0.0
H1000 H 0.76944 0.28651 0.04366 0.0
H1001 H 0.76473 0.27742 0.01739 0.0
C1002 C 0.7677 0.72199 0.95663 0.0
C1003 C 0.78029 0.72736 0.94784 0.0
C1004 C 0.76261 0.7304 0.96948 0.0
C1005 C 0.76962 0.76303 0.99603 0.0
H1006 H 0.72573 0.77056 0.98895 0.0
C1007 C 0.7361 0.7983 0.03993 0.0
C1008 C 0.7244 0.78884 0.04616 0.0
C1009 C 0.74201 0.79512 0.02514 0.0
C1010 C 0.73799 0.76867 0.99102 0.0
H1011 H 0.79882 0.7443 0.94667 0.0
H1012 H 0.79005 0.75896 0.96938 0.0
H1013 H 0.74004 0.75355 0.97145 0.0
H1014 H 0.70799 0.77049 0.04127 0.0
H1015 H 0.7178 0.76527 0.01541 0.0
H1016 H 0.76742 0.77765 0.01598 0.0
C1017 C 0.78403 0.74836 0.96628 0.0
C1018 C 0.74615 0.75881 0.98112 0.0
C1019 C 0.78918 0.73984 0.95342 0.0
C1020 C 0.71695 0.778 0.03659 0.0
C1021 C 0.7227 0.77495 0.02179 0.0
C1022 C 0.76141 0.77284 0.00604 0.0
C1023 C 0.77004 0.74431 0.97364 0.0
C1024 C 0.76191 0.75551 0.98382 0.0
C1025 C 0.73609 0.78262 0.01645 0.0
C1026 C 0.74539 0.77539 0.00389 0.0
H1027 H 0.76065 0.71241 0.95248 0.0
H1028 H 0.75204 0.7268 0.97527 0.0
H1029 H 0.7818 0.7608 -0.00176 0.0
H1030 H 0.74211 0.80662 0.04721 0.0
H1031 H 0.75214 0.80143 0.02116 0.0
C1032 C 0.54098 0.76931 0.73152 0.0
C1033 C 0.54842 0.76459 0.71784 0.0
C1034 C 0.52807 0.76124 0.73694 0.0
C1035 C 0.49899 0.73095 0.72833 0.0
H1036 H 0.50448 0.72188 0.77218 0.0
C1037 C 0.45262 0.69704 0.75966 0.0
C1038 C 0.4462 0.70687 0.77095 0.0
C1039 C 0.46779 0.69958 0.75446 0.0
C1040 C 0.5029 0.72417 0.75991 0.0
H1041 H 0.54723 0.74906 0.69807 0.0
H1042 H 0.52456 0.73488 0.70755 0.0
H1043 H 0.52345 0.73799 0.7587 0.0
H1044 H 0.45098 0.7252 0.78742 0.0
H1045 H 0.47752 0.72929 0.77886 0.0
H1046 H 0.47817 0.71749 0.72967 0.0
C1047 C 0.52873 0.74476 0.71414 0.0
C1048 C 0.51362 0.73356 0.75223 0.0
C1049 C 0.54161 0.75298 0.70862 0.0
C1050 C 0.45578 0.71746 0.77874 0.0
C1051 C 0.47098 0.71983 0.77375 0.0
C1052 C 0.48825 0.72153 0.73603 0.0
C1053 C 0.5225 0.74822 0.72883 0.0
C1054 C 0.5115 0.73745 0.7365 0.0
C1055 C 0.47665 0.71177 0.76074 0.0
C1056 C 0.48987 0.71843 0.752 0.0
H1057 H 0.546 0.77831 0.73876 0.0
H1058 H 0.52313 0.7645 0.74804 0.0
H1059 H 0.49712 0.73368 0.7162 0.0
H1060 H 0.44535 0.68889 0.7534 0.0
H1061 H 0.47201 0.69305 0.74457 0.0
C1062 C 0.26692 0.45107 0.77628 0.0
C1063 C 0.27924 0.44338 0.76895 0.0
C1064 C 0.26248 0.46582 0.77138 0.0
C1065 C 0.25903 0.48553 0.73525 0.0
H1066 H 0.24561 0.52064 0.75997 0.0
C1067 C 0.23269 0.54181 0.70953 0.0
C1068 C 0.22281 0.55046 0.71914 0.0
C1069 C 0.23914 0.52793 0.71493 0.0
C1070 C 0.24903 0.5108 0.75293 0.0
H1071 H 0.29733 0.44522 0.75162 0.0
H1072 H 0.28932 0.47108 0.74273 0.0
H1073 H 0.2605 0.49991 0.77213 0.0
H1074 H 0.21026 0.55068 0.7409 0.0
H1075 H 0.22064 0.52597 0.74993 0.0
H1076 H 0.24704 0.49601 0.71619 0.0
C1077 C 0.28326 0.46576 0.75238 0.0
C1078 C 0.25776 0.49908 0.75987 0.0
C1079 C 0.28794 0.4511 0.75756 0.0
C1080 C 0.21794 0.54419 0.73335 0.0
C1081 C 0.22411 0.53019 0.7386 0.0
C1082 C 0.2501 0.49716 0.72833 0.0
C1083 C 0.27007 0.47289 0.75881 0.0
C1084 C 0.26274 0.48631 0.75112 0.0
C1085 C 0.23556 0.52245 0.72991 0.0
C1086 C 0.24484 0.50985 0.73713 0.0
H1087 H 0.26 0.44519 0.78498 0.0
H1088 H 0.25224 0.47107 0.77647 0.0
H1089 H 0.26249 0.4756 0.72835 0.0
H1090 H 0.23672 0.54654 0.69859 0.0
H1091 H 0.24787 0.52225 0.70789 0.0
C1092 C 0.45143 0.23792 0.69981 0.0
C1093 C 0.44559 0.22455 0.70708 0.0
C1094 C 0.46514 0.24474 0.70525 0.0
C1095 C 0.48158 0.24824 0.74355 0.0
H1096 H 0.51491 0.27163 0.7245 0.0
C1097 C 0.53616 0.26758 0.77508 0.0
C1098 C 0.5445 0.28034 0.76942 0.0
C1099 C 0.52186 0.2637 0.76859 0.0
C1100 C 0.50541 0.26546 0.72996 0.0
H1101 H 0.45056 0.20628 0.72354 0.0
H1102 H 0.47486 0.21769 0.73249 0.0
H1103 H 0.49731 0.25643 0.70815 0.0
H1104 H 0.5438 0.30024 0.75411 0.0
H1105 H 0.51859 0.29359 0.74281 0.0
H1106 H 0.48957 0.25714 0.76531 0.0
C1107 C 0.46865 0.22327 0.72308 0.0
C1108 C 0.49551 0.2566 0.7206 0.0
C1109 C 0.45492 0.21657 0.71775 0.0
C1110 C 0.53745 0.29042 0.75876 0.0
C1111 C 0.52318 0.28645 0.75209 0.0
C1112 C 0.49136 0.25714 0.75285 0.0
C1113 C 0.4731 0.23806 0.71783 0.0
C1114 C 0.48377 0.24758 0.72737 0.0
C1115 C 0.51579 0.27248 0.75624 0.0
C1116 C 0.50362 0.26557 0.74622 0.0
H1117 H 0.44429 0.24435 0.69169 0.0
H1118 H 0.46842 0.25607 0.70089 0.0
H1119 H 0.47225 0.24183 0.74904 0.0
H1120 H 0.54149 0.25958 0.78321 0.0
H1121 H 0.51649 0.25287 0.77209 0.0
C1122 C 0.7681 0.45653 0.7195 0.0
C1123 C 0.76172 0.44732 0.70769 0.0
C1124 C 0.76033 0.4698 0.72451 0.0
C1125 C 0.72881 0.49742 0.71929 0.0
H1126 H 0.72162 0.48901 0.76302 0.0
C1127 C 0.6975 0.54216 0.75629 0.0
C1128 C 0.70734 0.54683 0.76842 0.0
C1129 C 0.69973 0.52773 0.74914 0.0
C1130 C 0.72342 0.49148 0.75082 0.0
H1131 H 0.7436 0.44573 0.69034 0.0
H1132 H 0.73008 0.46924 0.69896 0.0
H1133 H 0.73707 0.47102 0.74761 0.0
H1134 H 0.72561 0.5396 0.78403 0.0
H1135 H 0.72922 0.5144 0.77203 0.0
H1136 H 0.71581 0.51833 0.72269 0.0
C1137 C 0.74099 0.46613 0.7044 0.0
C1138 C 0.73235 0.48127 0.74204 0.0
C1139 C 0.74884 0.45282 0.69934 0.0
C1140 C 0.71782 0.53614 0.77476 0.0
C1141 C 0.71991 0.5217 0.76779 0.0
C1142 C 0.71997 0.50779 0.72816 0.0
C1143 C 0.7461 0.47397 0.71776 0.0
C1144 C 0.73556 0.48441 0.72635 0.0
C1145 C 0.71167 0.51782 0.75422 0.0
C1146 C 0.71762 0.50517 0.74415 0.0
H1147 H 0.77797 0.45243 0.72615 0.0
H1148 H 0.76464 0.4759 0.73464 0.0
H1149 H 0.73099 0.49995 0.70717 0.0
H1150 H 0.68946 0.55033 0.75111 0.0
H1151 H 0.69302 0.52491 0.73887 0.0
C1152 C 0.45163 0.29171 0.2365 0.0
C1153 C 0.4455 0.28156 0.22531 0.0
C1154 C 0.466 0.28848 0.24336 0.0
C1155 C 0.49973 0.26138 0.24208 0.0
H1156 H 0.4932 0.25845 0.28661 0.0
C1157 C 0.5349 0.21863 0.27552 0.0
C1158 C 0.54487 0.22597 0.28609 0.0
C1159 C 0.52139 0.22605 0.27066 0.0
C1160 C 0.49517 0.25928 0.27422 0.0
H1161 H 0.45018 0.26152 0.21094 0.0
H1162 H 0.47531 0.25612 0.22241 0.0
H1163 H 0.47515 0.27357 0.27065 0.0
H1164 H 0.54753 0.24545 0.30173 0.0
H1165 H 0.52368 0.25843 0.29336 0.0
H1166 H 0.51932 0.24659 0.24553 0.0
C1167 C 0.46916 0.26643 0.22616 0.0
C1168 C 0.485 0.26809 0.26509 0.0
C1169 C 0.45477 0.26954 0.21949 0.0
C1170 C 0.53989 0.23951 0.29369 0.0
C1171 C 0.52635 0.24703 0.28875 0.0
C1172 C 0.50973 0.25248 0.25114 0.0
C1173 C 0.47442 0.27522 0.23889 0.0
C1174 C 0.48695 0.26886 0.24885 0.0
C1175 C 0.51775 0.24091 0.27631 0.0
C1176 C 0.50727 0.25098 0.2672 0.0
H1177 H 0.44456 0.30096 0.24128 0.0
H1178 H 0.46993 0.29561 0.25295 0.0
H1179 H 0.50168 0.26194 0.22966 0.0
H1180 H 0.53858 0.20822 0.26948 0.0
H1181 H 0.5147 0.22096 0.26129 0.0
C1182 C 0.7021 0.4538 0.23772 0.0
C1183 C 0.7103 0.44674 0.22556 0.0
C1184 C 0.70718 0.46802 0.24372 0.0
C1185 C 0.73558 0.50006 0.23836 0.0
H1186 H 0.74352 0.49416 0.28237 0.0
C1187 C 0.7782 0.53962 0.26754 0.0
C1188 C 0.77162 0.54767 0.28007 0.0
C1189 C 0.77183 0.52555 0.26271 0.0
C1190 C 0.74134 0.49598 0.27011 0.0
H1191 H 0.72875 0.44959 0.2088 0.0
H1192 H 0.73729 0.47456 0.2188 0.0
H1193 H 0.72659 0.47604 0.26853 0.0
H1194 H 0.75507 0.54637 0.29891 0.0
H1195 H 0.74385 0.52177 0.29049 0.0
H1196 H 0.75039 0.51986 0.23983 0.0
C1197 C 0.72711 0.46923 0.22391 0.0
C1198 C 0.7315 0.48574 0.26222 0.0
C1199 C 0.72217 0.45497 0.21808 0.0
C1200 C 0.76039 0.54028 0.28927 0.0
C1201 C 0.75384 0.52626 0.28431 0.0
C1202 C 0.7454 0.51025 0.24622 0.0
C1203 C 0.72036 0.47534 0.23745 0.0
C1204 C 0.72869 0.48757 0.24621 0.0
C1205 C 0.7587 0.51949 0.27027 0.0
C1206 C 0.74861 0.50818 0.26212 0.0
H1207 H 0.69305 0.44751 0.2438 0.0
H1208 H 0.70161 0.47264 0.25401 0.0
H1209 H 0.73354 0.50182 0.22607 0.0
H1210 H 0.7869 0.54514 0.26031 0.0
H1211 H 0.77615 0.52027 0.25215 0.0
C1212 C 0.53915 0.70296 0.23532 0.0
C1213 C 0.54666 0.71231 0.22428 0.0
C1214 C 0.52558 0.70825 0.24251 0.0
C1215 C 0.51118 0.74633 0.25331 0.0
H1216 H 0.47495 0.72489 0.26911 0.0
C1217 C 0.45608 0.77617 0.27388 0.0
C1218 C 0.44654 0.76865 0.28468 0.0
C1219 C 0.4704 0.76982 0.26989 0.0
C1220 C 0.48522 0.73092 0.26509 0.0
H1221 H 0.54475 0.73297 0.21014 0.0
H1222 H 0.52073 0.74186 0.22212 0.0
H1223 H 0.4932 0.71104 0.25235 0.0
H1224 H 0.44495 0.74972 0.30112 0.0
H1225 H 0.47018 0.73857 0.29423 0.0
H1226 H 0.50319 0.76624 0.26583 0.0
C1227 C 0.52558 0.73083 0.22574 0.0
C1228 C 0.49554 0.72303 0.25534 0.0
C1229 C 0.53916 0.72563 0.2187 0.0
C1230 C 0.45227 0.75581 0.29289 0.0
C1231 C 0.46656 0.7493 0.28876 0.0
C1232 C 0.50093 0.75417 0.26306 0.0
C1233 C 0.5194 0.72282 0.23853 0.0
C1234 C 0.50839 0.7308 0.24904 0.0
C1235 C 0.47527 0.75573 0.27653 0.0
C1236 C 0.48766 0.74667 0.26878 0.0
H1237 H 0.54479 0.69268 0.23988 0.0
H1238 H 0.52095 0.70175 0.25223 0.0
H1239 H 0.52129 0.75247 0.24905 0.0
H1240 H 0.45175 0.78598 0.2673 0.0
H1241 H 0.47681 0.77507 0.26043 0.0
C1242 C 0.2993 0.54142 0.23292 0.0
C1243 C 0.28991 0.54766 0.22117 0.0
C1244 C 0.2964 0.52643 0.23845 0.0
C1245 C 0.27146 0.49149 0.23338 0.0
H1246 H 0.26103 0.49867 0.27666 0.0
C1247 C 0.22582 0.45414 0.26218 0.0
C1248 C 0.23009 0.44744 0.27638 0.0
C1249 C 0.23402 0.46681 0.25637 0.0
C1250 C 0.26401 0.4964 0.26465 0.0
H1251 H 0.27199 0.54268 0.20432 0.0
H1252 H 0.26731 0.51641 0.21344 0.0
H1253 H 0.27762 0.5171 0.26297 0.0
H1254 H 0.24502 0.4496 0.29649 0.0
H1255 H 0.25943 0.47186 0.28635 0.0
H1256 H 0.25755 0.47101 0.23492 0.0
C1257 C 0.27671 0.52296 0.21864 0.0
C1258 C 0.27366 0.50685 0.25684 0.0
C1259 C 0.27946 0.53799 0.2133 0.0
C1260 C 0.24141 0.45471 0.28558 0.0
C1261 C 0.24977 0.46734 0.27968 0.0
C1262 C 0.26186 0.48104 0.24118 0.0
C1263 C 0.28426 0.51755 0.23206 0.0
C1264 C 0.27714 0.50471 0.24101 0.0
C1265 C 0.24675 0.47286 0.2646 0.0
C1266 C 0.25766 0.48363 0.25677 0.0
H1267 H 0.3073 0.54878 0.23927 0.0
H1268 H 0.30256 0.5224 0.24865 0.0
H1269 H 0.27402 0.48951 0.22122 0.0
H1270 H 0.2171 0.44869 0.25491 0.0
H1271 H 0.23106 0.47118 0.24495 0.0
C1272 C 0.77616 0.72147 0.53772 0.0
C1273 C 0.76899 0.70944 0.54599 0.0
C1274 C 0.7707 0.72564 0.52308 0.0
C1275 C 0.73279 0.72781 0.50584 0.0
H1276 H 0.75472 0.74728 0.47175 0.0
C1277 C 0.7042 0.75716 0.45228 0.0
C1278 C 0.71284 0.76896 0.44512 0.0
C1279 C 0.70984 0.75006 0.46575 0.0
C1280 C 0.74845 0.74209 0.48134 0.0
H1281 H 0.7519 0.69106 0.54496 0.0
H1282 H 0.7423 0.69829 0.5192 0.0
H1283 H 0.76896 0.73106 0.49003 0.0
H1284 H 0.73262 0.78426 0.44739 0.0
H1285 H 0.74199 0.77254 0.47137 0.0
H1286 H 0.71233 0.73914 0.49733 0.0
C1287 C 0.75206 0.70456 0.52405 0.0
C1288 C 0.75658 0.73263 0.49164 0.0
C1289 C 0.75772 0.70026 0.53865 0.0
C1290 C 0.72578 0.77517 0.45278 0.0
C1291 C 0.73129 0.76825 0.46631 0.0
C1292 C 0.72464 0.73731 0.49552 0.0
C1293 C 0.75783 0.71792 0.51665 0.0
C1294 C 0.74889 0.72559 0.50414 0.0
C1295 C 0.72405 0.75487 0.47221 0.0
C1296 C 0.73246 0.7448 0.48335 0.0
H1297 H 0.78475 0.7288 0.54331 0.0
H1298 H 0.77539 0.73598 0.51767 0.0
H1299 H 0.7266 0.72278 0.51556 0.0
H1300 H 0.69428 0.75207 0.44642 0.0
H1301 H 0.70392 0.73985 0.4701 0.0
C1302 C 0.77272 0.26787 0.45355 0.0
C1303 C 0.76587 0.27992 0.44506 0.0
C1304 C 0.76568 0.26244 0.46704 0.0
C1305 C 0.7336 0.2678 0.49503 0.0
H1306 H 0.73096 0.22293 0.49113 0.0
C1307 C 0.69938 0.23265 0.53926 0.0
C1308 C 0.70943 0.22231 0.54685 0.0
C1309 C 0.70335 0.23853 0.52466 0.0
C1310 C 0.73151 0.23545 0.4923 0.0
H1311 H 0.74747 0.29702 0.44471 0.0
H1312 H 0.735 0.28747 0.46835 0.0
H1313 H 0.74606 0.23776 0.47238 0.0
H1314 H 0.73015 0.2083 0.54453 0.0
H1315 H 0.73684 0.21813 0.51894 0.0
H1316 H 0.71923 0.26538 0.51515 0.0
C1317 C 0.74583 0.28224 0.46468 0.0
C1318 C 0.74031 0.24393 0.48171 0.0
C1319 C 0.75305 0.28783 0.45125 0.0
C1320 C 0.72225 0.21629 0.53886 0.0
C1321 C 0.72608 0.22196 0.52421 0.0
C1322 C 0.72476 0.25928 0.50564 0.0
C1323 C 0.75152 0.26882 0.47203 0.0
C1324 C 0.74178 0.26014 0.48321 0.0
C1325 C 0.71722 0.23387 0.51746 0.0
C1326 C 0.72394 0.24299 0.50456 0.0
H1327 H 0.7826 0.26161 0.4489 0.0
H1328 H 0.77058 0.25239 0.47279 0.0
H1329 H 0.73444 0.28028 0.49638 0.0
H1330 H 0.68946 0.23752 0.54526 0.0
H1331 H 0.69621 0.24754 0.51955 0.0
C1332 C 0.22086 0.72827 0.44887 0.0
C1333 C 0.22613 0.71437 0.44225 0.0
C1334 C 0.22782 0.73406 0.46228 0.0
C1335 C 0.25668 0.72577 0.49337 0.0
H1336 H 0.2636 0.77022 0.49018 0.0
C1337 C 0.29281 0.75712 0.5389 0.0
C1338 C 0.28321 0.76759 0.54685 0.0
C1339 C 0.28869 0.75209 0.52402 0.0
C1340 C 0.26187 0.75779 0.49111 0.0
H1341 H 0.24174 0.69487 0.44502 0.0
H1342 H 0.25419 0.70512 0.46832 0.0
H1343 H 0.24858 0.7569 0.47022 0.0
H1344 H 0.26307 0.78248 0.54514 0.0
H1345 H 0.25627 0.77429 0.51891 0.0
H1346 H 0.27006 0.72677 0.5143 0.0
C1347 C 0.24457 0.7115 0.46335 0.0
C1348 C 0.25307 0.75017 0.47984 0.0
C1349 C 0.23737 0.70554 0.45006 0.0
C1350 C 0.2707 0.77451 0.53908 0.0
C1351 C 0.26678 0.76976 0.52412 0.0
C1352 C 0.26565 0.73338 0.50454 0.0
C1353 C 0.24042 0.72624 0.46908 0.0
C1354 C 0.25007 0.73412 0.48102 0.0
C1355 C 0.27515 0.75777 0.51691 0.0
C1356 C 0.26809 0.74949 0.50364 0.0
H1357 H 0.21215 0.73522 0.44302 0.0
H1358 H 0.22393 0.74516 0.46675 0.0
H1359 H 0.25456 0.71344 0.49467 0.0
H1360 H 0.30236 0.75147 0.54482 0.0
H1361 H 0.29537 0.74292 0.51859 0.0
C1362 C 0.2176 0.274 0.53665 0.0
C1363 C 0.22458 0.28452 0.54691 0.0
C1364 C 0.22423 0.27113 0.52219 0.0
C1365 C 0.26349 0.26878 0.50762 0.0
H1366 H 0.24263 0.25229 0.47131 0.0
C1367 C 0.29096 0.23854 0.45301 0.0
C1368 C 0.28189 0.22641 0.44696 0.0
C1369 C 0.28609 0.24642 0.46637 0.0
C1370 C 0.2486 0.25679 0.48145 0.0
H1371 H 0.24277 0.30163 0.54965 0.0
H1372 H 0.25444 0.2967 0.52419 0.0
H1373 H 0.22828 0.26858 0.48942 0.0
H1374 H 0.26224 0.21136 0.45115 0.0
H1375 H 0.25407 0.22466 0.47476 0.0
H1376 H 0.28379 0.25671 0.49958 0.0
C1377 C 0.24391 0.29058 0.52736 0.0
C1378 C 0.24042 0.26622 0.49172 0.0
C1379 C 0.2371 0.2936 0.5418 0.0
C1380 C 0.2694 0.22068 0.45567 0.0
C1381 C 0.2646 0.22844 0.46901 0.0
C1382 C 0.27174 0.25941 0.49722 0.0
C1383 C 0.23809 0.27861 0.51787 0.0
C1384 C 0.2476 0.27188 0.5052 0.0
C1385 C 0.2722 0.24208 0.47374 0.0
C1386 C 0.26417 0.25289 0.48436 0.0
H1387 H 0.20802 0.26679 0.54046 0.0
H1388 H 0.21944 0.26183 0.51521 0.0
H1389 H 0.26932 0.27281 0.51802 0.0
H1390 H 0.30053 0.24327 0.44634 0.0
H1391 H 0.29221 0.25683 0.46991 0.0
C1392 C 0.16981 0.12464 0.26376 0.0
C1393 C 0.18384 0.12624 0.25562 0.0
C1394 C 0.15692 0.1337 0.25962 0.0
C1395 C 0.13952 0.1648 0.25592 0.0
H1396 H 0.12944 0.17442 0.21308 0.0
C1397 C 0.11838 0.22486 0.23633 0.0
C1398 C 0.10715 0.22581 0.22456 0.0
C1399 C 0.12452 0.21048 0.24065 0.0
C1400 C 0.13188 0.17173 0.22513 0.0
H1401 H 0.1952 0.1375 0.2362 0.0
H1402 H 0.17278 0.15298 0.22883 0.0
H1403 H 0.14528 0.15171 0.21899 0.0
H1404 H 0.09333 0.21248 0.20823 0.0
H1405 H 0.10412 0.18737 0.21573 0.0
H1406 H 0.12664 0.18518 0.26201 0.0
C1407 C 0.17165 0.14493 0.23843 0.0
C1408 C 0.141 0.15877 0.22849 0.0
C1409 C 0.18452 0.13617 0.24273 0.0
C1410 C 0.10206 0.21211 0.21729 0.0
C1411 C 0.10822 0.19774 0.22157 0.0
C1412 C 0.13046 0.17782 0.25255 0.0
C1413 C 0.15786 0.14413 0.24708 0.0
C1414 C 0.14537 0.1555 0.24387 0.0
C1415 C 0.11957 0.19677 0.23326 0.0
C1416 C 0.127 0.18172 0.23708 0.0
H1417 H 0.16906 0.11706 0.27376 0.0
H1418 H 0.1464 0.13288 0.26646 0.0
H1419 H 0.14278 0.1626 0.26787 0.0
H1420 H 0.1225 0.23523 0.24215 0.0
H1421 H 0.13344 0.21015 0.24952 0.0
C1422 C 0.86304 0.17828 0.2635 0.0
C1423 C 0.86169 0.19276 0.25609 0.0
C1424 C 0.85293 0.16613 0.2596 0.0
C1425 C 0.8212 0.1494 0.25652 0.0
H1426 H 0.81106 0.14047 0.21352 0.0
C1427 C 0.76239 0.12396 0.23695 0.0
C1428 C 0.76252 0.11264 0.22522 0.0
C1429 C 0.77611 0.13152 0.2412 0.0
C1430 C 0.81388 0.14267 0.22558 0.0
H1431 H 0.84942 0.20565 0.23828 0.0
H1432 H 0.83207 0.18445 0.23133 0.0
H1433 H 0.83313 0.15721 0.21957 0.0
H1434 H 0.77709 0.10021 0.20884 0.0
H1435 H 0.80099 0.11353 0.21618 0.0
H1436 H 0.80159 0.13527 0.2625 0.0
C1437 C 0.84076 0.18249 0.24022 0.0
C1438 C 0.82645 0.15229 0.22903 0.0
C1439 C 0.8506 0.19466 0.24429 0.0
C1440 C 0.77662 0.10895 0.21788 0.0
C1441 C 0.7903 0.11658 0.22206 0.0
C1442 C 0.8085 0.13988 0.25306 0.0
C1443 C 0.84164 0.1682 0.24799 0.0
C1444 C 0.83001 0.15603 0.24451 0.0
C1445 C 0.79019 0.12797 0.23373 0.0
C1446 C 0.80452 0.1367 0.23754 0.0
H1447 H 0.87152 0.17654 0.27263 0.0
H1448 H 0.85383 0.15518 0.26573 0.0
H1449 H 0.82365 0.15219 0.26854 0.0
H1450 H 0.75169 0.127 0.24282 0.0
H1451 H 0.77565 0.14041 0.25009 0.0
C1452 C 0.87667 0.76638 0.23622 0.0
C1453 C 0.88794 0.76724 0.2245 0.0
C1454 C 0.87003 0.77988 0.24221 0.0
C1455 C 0.86183 0.82047 0.23248 0.0
H1456 H 0.85086 0.82243 0.27613 0.0
C1457 C 0.82239 0.86884 0.25738 0.0
C1458 C 0.80935 0.86249 0.26487 0.0
C1459 C 0.83529 0.85949 0.2541 0.0
C1460 C 0.85397 0.82211 0.26394 0.0
H1461 H 0.90118 0.78289 0.20986 0.0
H1462 H 0.88953 0.80655 0.22036 0.0
H1463 H 0.8674 0.80142 0.26677 0.0
H1464 H 0.79993 0.84178 0.27566 0.0
H1465 H 0.82241 0.82564 0.27016 0.0
H1466 H 0.84794 0.8409 0.22961 0.0
C1467 C 0.88579 0.79542 0.22485 0.0
C1468 C 0.86335 0.81005 0.25857 0.0
C1469 C 0.89246 0.78188 0.21887 0.0
C1470 C 0.80978 0.84695 0.26977 0.0
C1471 C 0.82271 0.83774 0.26674 0.0
C1472 C 0.85248 0.83259 0.23789 0.0
C1473 C 0.87452 0.79456 0.23662 0.0
C1474 C 0.86687 0.80875 0.24268 0.0
C1475 C 0.83544 0.84379 0.25856 0.0
C1476 C 0.84799 0.83316 0.25356 0.0
H1477 H 0.87294 0.75526 0.24077 0.0
H1478 H 0.86115 0.77879 0.25104 0.0
H1479 H 0.8643 0.81977 0.22017 0.0
H1480 H 0.82234 0.88078 0.25345 0.0
H1481 H 0.84499 0.86443 0.24779 0.0
C1482 C 0.22517 0.88435 0.23934 0.0
C1483 C 0.22728 0.89494 0.22716 0.0
C1484 C 0.21041 0.87843 0.24257 0.0
C1485 C 0.17349 0.87063 0.22294 0.0
H1486 H 0.16077 0.85815 0.26428 0.0
C1487 C 0.12515 0.82952 0.25649 0.0
C1488 C 0.12764 0.81602 0.24767 0.0
C1489 C 0.13378 0.84298 0.25345 0.0
C1490 C 0.16393 0.86185 0.25269 0.0
H1491 H 0.21557 0.90827 0.20927 0.0
H1492 H 0.18981 0.89809 0.21501 0.0
H1493 H 0.18324 0.8751 0.26107 0.0
H1494 H 0.14 0.80633 0.228 0.0
H1495 H 0.15487 0.82966 0.22265 0.0
H1496 H 0.15446 0.85702 0.21453 0.0
C1497 C 0.19955 0.89412 0.2219 0.0
C1498 C 0.17694 0.87138 0.25084 0.0
C1499 C 0.21431 0.89996 0.21864 0.0
C1500 C 0.13797 0.81654 0.23508 0.0
C1501 C 0.14639 0.82997 0.23193 0.0
C1502 C 0.16049 0.86113 0.22479 0.0
C1503 C 0.19747 0.88307 0.23371 0.0
C1504 C 0.1822 0.87537 0.23591 0.0
C1505 C 0.14478 0.84317 0.24138 0.0
C1506 C 0.15597 0.85613 0.23964 0.0
H1507 H 0.23497 0.88029 0.24611 0.0
H1508 H 0.20925 0.86976 0.2516 0.0
H1509 H 0.17722 0.87343 0.21126 0.0
H1510 H 0.11723 0.82941 0.26626 0.0
H1511 H 0.13225 0.85304 0.26085 0.0
C1512 C 0.09908 0.78504 0.77882 0.0
C1513 C 0.10294 0.7712 0.77107 0.0
C1514 C 0.10424 0.79936 0.77315 0.0
C1515 C 0.12002 0.81816 0.73783 0.0
H1516 H 0.14257 0.84453 0.76656 0.0
C1517 C 0.17434 0.8511 0.72166 0.0
C1518 C 0.17802 0.8653 0.72875 0.0
C1519 C 0.16059 0.84344 0.7253 0.0
C1520 C 0.13595 0.83758 0.75842 0.0
H1521 H 0.11505 0.76147 0.75126 0.0
H1522 H 0.12412 0.78634 0.74145 0.0
H1523 H 0.12695 0.82311 0.77652 0.0
H1524 H 0.16988 0.88313 0.74452 0.0
H1525 H 0.14575 0.86945 0.75121 0.0
H1526 H 0.12975 0.83207 0.71968 0.0
C1527 C 0.11696 0.78621 0.75178 0.0
C1528 C 0.12704 0.82527 0.76413 0.0
C1529 C 0.11191 0.77193 0.7575 0.0
C1530 C 0.16725 0.8722 0.73887 0.0
C1531 C 0.15352 0.86436 0.74274 0.0
C1532 C 0.12891 0.83045 0.73213 0.0
C1533 C 0.11321 0.80008 0.75954 0.0
C1534 C 0.11962 0.815 0.75383 0.0
C1535 C 0.15028 0.8497 0.73628 0.0
C1536 C 0.13757 0.8398 0.74233 0.0
H1537 H 0.09211 0.7848 0.78929 0.0
H1538 H 0.1012 0.80987 0.77936 0.0
H1539 H 0.11411 0.81064 0.72965 0.0
H1540 H 0.18242 0.84559 0.71375 0.0
H1541 H 0.15855 0.83209 0.72026 0.0
C1542 C 0.21648 0.10235 0.76568 0.0
C1543 C 0.23094 0.10426 0.75835 0.0
C1544 C 0.20369 0.11123 0.76108 0.0
C1545 C 0.19559 0.14912 0.74477 0.0
H1546 H 0.15367 0.1342 0.73772 0.0
C1547 C 0.14926 0.19108 0.72385 0.0
C1548 C 0.13447 0.19016 0.73058 0.0
C1549 C 0.15993 0.17911 0.72582 0.0
C1550 C 0.16528 0.13855 0.73981 0.0
H1551 H 0.24316 0.11635 0.73995 0.0
H1552 H 0.2209 0.13194 0.73205 0.0
H1553 H 0.17442 0.11569 0.74392 0.0
H1554 H 0.1189 0.17575 0.74408 0.0
H1555 H 0.13787 0.1549 0.74811 0.0
H1556 H 0.18668 0.17191 0.74131 0.0
C1557 C 0.21949 0.12366 0.7414 0.0
C1558 C 0.17714 0.12796 0.7433 0.0
C1559 C 0.23221 0.11471 0.74591 0.0
C1560 C 0.13026 0.17669 0.73875 0.0
C1561 C 0.14111 0.16476 0.74101 0.0
C1562 C 0.1838 0.15967 0.7415 0.0
C1563 C 0.20521 0.12225 0.74916 0.0
C1564 C 0.19243 0.13317 0.74561 0.0
C1565 C 0.15623 0.16607 0.73492 0.0
C1566 C 0.16853 0.15454 0.73875 0.0
H1567 H 0.21515 0.09432 0.77527 0.0
H1568 H 0.19282 0.10998 0.76728 0.0
H1569 H 0.2072 0.15349 0.7469 0.0
H1570 H 0.15269 0.20123 0.71725 0.0
H1571 H 0.17126 0.18029 0.72049 0.0
C1572 C 0.88382 0.22235 0.74971 0.0
C1573 C 0.89561 0.22445 0.76076 0.0
C1574 C 0.87794 0.20753 0.74673 0.0
C1575 C 0.87249 0.17039 0.76639 0.0
H1576 H 0.85638 0.15791 0.72622 0.0
C1577 C 0.82847 0.12244 0.7361 0.0
C1578 C 0.81569 0.12511 0.74587 0.0
C1579 C 0.84223 0.13087 0.73818 0.0
C1580 C 0.86111 0.161 0.73746 0.0
H1581 H 0.91105 0.21264 0.7768 0.0
H1582 H 0.90081 0.18677 0.77154 0.0
H1583 H 0.8735 0.18042 0.72808 0.0
H1584 H 0.80764 0.13753 0.76623 0.0
H1585 H 0.83154 0.15203 0.76995 0.0
H1586 H 0.85963 0.15134 0.77584 0.0
C1587 C 0.89598 0.19658 0.76532 0.0
C1588 C 0.87074 0.17402 0.73855 0.0
C1589 C 0.90185 0.21139 0.76831 0.0
C1590 C 0.81729 0.13536 0.75845 0.0
C1591 C 0.83104 0.14357 0.76065 0.0
C1592 C 0.86285 0.15741 0.7653 0.0
C1593 C 0.88375 0.19452 0.75473 0.0
C1594 C 0.87603 0.17919 0.7531 0.0
C1595 C 0.84346 0.14183 0.75023 0.0
C1596 C 0.85656 0.15297 0.75091 0.0
H1597 H 0.87881 0.2322 0.74371 0.0
H1598 H 0.86836 0.20636 0.73865 0.0
H1599 H 0.87633 0.17409 0.77778 0.0
H1600 H 0.82752 0.11459 0.72631 0.0
H1601 H 0.85168 0.12925 0.73004 0.0
C1602 C 0.86868 0.82087 0.7381 0.0
C1603 C 0.86206 0.80828 0.73008 0.0
C1604 C 0.85988 0.83422 0.74109 0.0
C1605 C 0.82458 0.85526 0.72918 0.0
H1606 H 0.8184 0.8636 0.773 0.0
C1607 C 0.76684 0.87684 0.7527 0.0
C1608 C 0.76645 0.88724 0.76523 0.0
C1609 C 0.78091 0.87077 0.74754 0.0
C1610 C 0.82022 0.86173 0.7607 0.0
H1611 H 0.84149 0.80007 0.7181 0.0
H1612 H 0.82631 0.82338 0.72301 0.0
H1613 H 0.83977 0.8469 0.76477 0.0
H1614 H 0.78047 0.89959 0.78214 0.0
H1615 H 0.80519 0.88889 0.77309 0.0
H1616 H 0.80472 0.86956 0.72508 0.0
C1617 C 0.8382 0.82296 0.7271 0.0
C1618 C 0.83247 0.85218 0.756 0.0
C1619 C 0.84684 0.80956 0.72441 0.0
C1620 C 0.78044 0.89153 0.77248 0.0
C1621 C 0.79457 0.88542 0.76731 0.0
C1622 C 0.81242 0.86487 0.73385 0.0
C1623 C 0.8445 0.83527 0.73573 0.0
C1624 C 0.83431 0.84831 0.74026 0.0
C1625 C 0.79494 0.87497 0.75477 0.0
C1626 C 0.80967 0.8676 0.7497 0.0
H1627 H 0.8804 0.82012 0.74263 0.0
H1628 H 0.86496 0.84357 0.7478 0.0
H1629 H 0.82591 0.85261 0.71695 0.0
H1630 H 0.75625 0.87331 0.74689 0.0
H1631 H 0.78074 0.86249 0.73807 0.0
C1632 C 0.24268 0.11847 0.2351 0.0
C1633 C 0.23222 0.10612 0.23322 0.0
C1634 C 0.24715 0.1274 0.22235 0.0
C1635 C 0.24905 0.12865 0.17963 0.0
H1636 H 0.24662 0.17312 0.18623 0.0
C1637 C 0.25352 0.17479 0.13016 0.0
C1638 C 0.2606 0.18897 0.13408 0.0
C1639 C 0.2512 0.16339 0.14155 0.0
C1640 C 0.24763 0.16074 0.18421 0.0
H1641 H 0.21866 0.09303 0.21648 0.0
H1642 H 0.22648 0.10873 0.19416 0.0
H1643 H 0.24067 0.15559 0.20743 0.0
H1644 H 0.27198 0.20185 0.15246 0.0
H1645 H 0.26853 0.18188 0.17205 0.0
H1646 H 0.25609 0.13392 0.15631 0.0
C1647 C 0.23125 0.11144 0.20548 0.0
C1648 C 0.24417 0.1507 0.19639 0.0
C1649 C 0.22672 0.10252 0.21827 0.0
C1650 C 0.2662 0.19115 0.14922 0.0
C1651 C 0.26414 0.17973 0.16046 0.0
C1652 C 0.25264 0.13876 0.16739 0.0
C1653 C 0.24129 0.12414 0.20746 0.0
C1654 C 0.24495 0.13457 0.19429 0.0
C1655 C 0.25611 0.16595 0.15694 0.0
C1656 C 0.25212 0.15494 0.16962 0.0
H1657 H 0.2472 0.12143 0.24646 0.0
H1658 H 0.25509 0.13699 0.22416 0.0
H1659 H 0.24974 0.11624 0.17771 0.0
H1660 H 0.24909 0.17285 0.11854 0.0
H1661 H 0.24496 0.15291 0.13846 0.0
C1662 C 0.81662 0.25189 0.13044 0.0
C1663 C 0.80216 0.25787 0.13503 0.0
C1664 C 0.82843 0.24967 0.14142 0.0
C1665 C 0.83312 0.2454 0.18406 0.0
H1666 H 0.87702 0.25078 0.17558 0.0
C1667 C 0.87775 0.24635 0.23288 0.0
C1668 C 0.88947 0.2351 0.23165 0.0
C1669 C 0.86852 0.24996 0.22008 0.0
C1670 C 0.86478 0.2492 0.17802 0.0
H1671 H 0.78905 0.26726 0.15434 0.0
H1672 H 0.8097 0.26411 0.17322 0.0
H1673 H 0.85796 0.25571 0.15497 0.0
H1674 H 0.90143 0.21953 0.21585 0.0
H1675 H 0.88532 0.2261 0.19331 0.0
H1676 H 0.83988 0.23928 0.20715 0.0
C1677 C 0.81181 0.26041 0.16139 0.0
C1678 C 0.85388 0.25194 0.16625 0.0
C1679 C 0.79998 0.26233 0.15055 0.0
C1680 C 0.89241 0.2282 0.21714 0.0
C1681 C 0.88327 0.23198 0.20425 0.0
C1682 C 0.84394 0.24291 0.19581 0.0
C1683 C 0.82603 0.25364 0.15711 0.0
C1684 C 0.83789 0.25025 0.16921 0.0
C1685 C 0.87098 0.24256 0.20576 0.0
C1686 C 0.85982 0.24494 0.19296 0.0
H1687 H 0.81857 0.24836 0.11852 0.0
H1688 H 0.83921 0.24438 0.13771 0.0
H1689 H 0.82098 0.24345 0.18667 0.0
H1690 H 0.8753 0.25196 0.24386 0.0
H1691 H 0.85919 0.25828 0.22145 0.0
C1692 C 0.75408 0.87492 0.23298 0.0
C1693 C 0.76505 0.88689 0.23158 0.0
C1694 C 0.74999 0.86601 0.22009 0.0
C1695 C 0.74887 0.86433 0.17775 0.0
H1696 H 0.752 0.81992 0.18445 0.0
C1697 C 0.74274 0.81796 0.1286 0.0
C1698 C 0.73607 0.8037 0.13287 0.0
C1699 C 0.74548 0.82942 0.13985 0.0
C1700 C 0.75079 0.83227 0.1824 0.0
H1701 H 0.77988 0.89939 0.21551 0.0
H1702 H 0.77256 0.88378 0.19284 0.0
H1703 H 0.75811 0.83763 0.2055 0.0
H1704 H 0.72583 0.79068 0.1518 0.0
H1705 H 0.72992 0.81076 0.17116 0.0
H1706 H 0.74125 0.85889 0.15465 0.0
C1707 C 0.76721 0.88132 0.20395 0.0
C1708 C 0.75438 0.8424 0.19447 0.0
C1709 C 0.77144 0.89017 0.21692 0.0
C1710 C 0.73127 0.80147 0.14827 0.0
C1711 C 0.73372 0.81295 0.15938 0.0
C1712 C 0.74507 0.85412 0.16564 0.0
C1713 C 0.75668 0.86897 0.20552 0.0
C1714 C 0.7533 0.8585 0.19233 0.0
C1715 C 0.74138 0.82682 0.15547 0.0
C1716 C 0.74579 0.83795 0.16792 0.0
H1717 H 0.74888 0.87218 0.24409 0.0
H1718 H 0.74171 0.85665 0.22156 0.0
H1719 H 0.74797 0.87673 0.17585 0.0
H1720 H 0.74654 0.81993 0.11677 0.0
H1721 H 0.75141 0.83997 0.13644 0.0
C1722 C 0.09838 0.77209 0.21202 0.0
C1723 C 0.10335 0.76565 0.22617 0.0
C1724 C 0.10404 0.76635 0.19792 0.0
C1725 C 0.12401 0.73256 0.1804 0.0
H1726 H 0.14201 0.76277 0.15228 0.0
C1727 C 0.17788 0.72067 0.14465 0.0
C1728 C 0.1799 0.72744 0.12997 0.0
C1729 C 0.16451 0.72353 0.15326 0.0
C1730 C 0.1367 0.75416 0.15975 0.0
H1731 H 0.11783 0.74796 0.2367 0.0
H1732 H 0.12772 0.73797 0.21215 0.0
H1733 H 0.12593 0.77157 0.17386 0.0
H1734 H 0.16919 0.74192 0.11239 0.0
H1735 H 0.1457 0.74721 0.1277 0.0
H1736 H 0.13539 0.7152 0.16674 0.0
C1737 C 0.11936 0.74736 0.2119 0.0
C1738 C 0.12752 0.75921 0.17216 0.0
C1739 C 0.11381 0.75317 0.22597 0.0
C1740 C 0.1679 0.73654 0.12369 0.0
C1741 C 0.15453 0.73962 0.13246 0.0
C1742 C 0.13314 0.72752 0.16801 0.0
C1743 C 0.11464 0.75396 0.19773 0.0
C1744 C 0.12165 0.7485 0.18298 0.0
C1745 C 0.15287 0.73337 0.14747 0.0
C1746 C 0.14015 0.73831 0.15797 0.0
H1747 H 0.09028 0.78171 0.21183 0.0
H1748 H 0.10017 0.77163 0.18718 0.0
H1749 H 0.11933 0.72402 0.18837 0.0
H1750 H 0.18689 0.71351 0.14973 0.0
H1751 H 0.16372 0.7187 0.16484 0.0
C1752 C 0.2362 0.86542 0.75955 0.0
C1753 C 0.22787 0.87924 0.76178 0.0
C1754 C 0.23996 0.85601 0.7722 0.0
C1755 C 0.24545 0.85569 0.81442 0.0
H1756 H 0.23642 0.81178 0.81028 0.0
C1757 C 0.25161 0.81134 0.86522 0.0
C1758 C 0.25671 0.79637 0.86119 0.0
C1759 C 0.24846 0.82233 0.85363 0.0
C1760 C 0.23925 0.82397 0.81158 0.0
H1761 H 0.21725 0.89427 0.77899 0.0
H1762 H 0.22396 0.87782 0.80113 0.0
H1763 H 0.23051 0.82927 0.78896 0.0
H1764 H 0.2635 0.7815 0.84203 0.0
H1765 H 0.25858 0.80066 0.82202 0.0
H1766 H 0.25447 0.85031 0.837 0.0
C1767 C 0.22755 0.8743 0.7896 0.0
C1768 C 0.2358 0.83398 0.79936 0.0
C1769 C 0.22364 0.88364 0.77693 0.0
C1770 C 0.25929 0.79285 0.84549 0.0
C1771 C 0.25637 0.80382 0.83399 0.0
C1772 C 0.24907 0.84561 0.82665 0.0
C1773 C 0.23559 0.86031 0.78733 0.0
C1774 C 0.23899 0.8499 0.80058 0.0
C1775 C 0.25052 0.81856 0.83785 0.0
C1776 C 0.24618 0.82958 0.82528 0.0
H1777 H 0.23966 0.86178 0.74802 0.0
H1778 H 0.24632 0.84535 0.77015 0.0
H1779 H 0.24805 0.86794 0.81562 0.0
H1780 H 0.24951 0.81436 0.87725 0.0
H1781 H 0.24392 0.83356 0.857 0.0
C1782 C 0.11302 0.24428 0.76729 0.0
C1783 C 0.10351 0.23106 0.76682 0.0
C1784 C 0.11903 0.24955 0.78138 0.0
C1785 C 0.12954 0.23581 0.82025 0.0
H1786 H 0.1366 0.27975 0.82725 0.0
C1787 C 0.16961 0.25791 0.86931 0.0
C1788 C 0.1817 0.26694 0.86311 0.0
C1789 C 0.15627 0.25492 0.86047 0.0
C1790 C 0.13455 0.26745 0.82555 0.0
H1791 H 0.09254 0.21316 0.78073 0.0
H1792 H 0.10303 0.22243 0.80541 0.0
H1793 H 0.12002 0.27145 0.8058 0.0
H1794 H 0.18893 0.28081 0.8434 0.0
H1795 H 0.16568 0.27587 0.82818 0.0
H1796 H 0.14456 0.23185 0.83967 0.0
C1797 C 0.10594 0.22863 0.79487 0.0
C1798 C 0.12515 0.26269 0.81322 0.0
C1799 C 0.09993 0.22334 0.78074 0.0
C1800 C 0.17982 0.27373 0.84842 0.0
C1801 C 0.16644 0.27101 0.83976 0.0
C1802 C 0.13888 0.24059 0.83264 0.0
C1803 C 0.11564 0.24175 0.79533 0.0
C1804 C 0.12309 0.24681 0.81004 0.0
C1805 C 0.15472 0.26124 0.84549 0.0
C1806 C 0.14198 0.25644 0.83499 0.0
H1807 H 0.11598 0.25046 0.75674 0.0
H1808 H 0.12671 0.25952 0.78126 0.0
H1809 H 0.12824 0.22349 0.8181 0.0
H1810 H 0.17082 0.25249 0.8806 0.0
H1811 H 0.14737 0.24736 0.86514 0.0
C1812 C 0.77127 0.09659 0.78336 0.0
C1813 C 0.76478 0.10204 0.76941 0.0
C1814 C 0.76587 0.1021 0.79766 0.0
C1815 C 0.75984 0.12539 0.82389 0.0
H1816 H 0.71629 0.13522 0.82967 0.0
C1817 C 0.72458 0.17808 0.85061 0.0
C1818 C 0.73127 0.17985 0.86536 0.0
C1819 C 0.72655 0.16437 0.84229 0.0
C1820 C 0.72846 0.13238 0.82833 0.0
H1821 H 0.74736 0.11723 0.75944 0.0
H1822 H 0.73801 0.12689 0.78429 0.0
H1823 H 0.72416 0.11867 0.80805 0.0
H1824 H 0.74468 0.16847 0.88335 0.0
H1825 H 0.74852 0.14438 0.86848 0.0
H1826 H 0.76421 0.13981 0.84368 0.0
C1827 C 0.74714 0.11825 0.78425 0.0
C1828 C 0.73298 0.12297 0.81593 0.0
C1829 C 0.7526 0.11284 0.77 0.0
C1830 C 0.73938 0.16734 0.87199 0.0
C1831 C 0.74162 0.15363 0.86349 0.0
C1832 C 0.75532 0.13481 0.83632 0.0
C1833 C 0.75379 0.11304 0.79823 0.0
C1834 C 0.74877 0.12 0.81316 0.0
C1835 C 0.73545 0.15216 0.84843 0.0
C1836 C 0.73966 0.13899 0.8382 0.0
H1837 H 0.78065 0.08822 0.78325 0.0
H1838 H 0.77119 0.09787 0.80825 0.0
H1839 H 0.77211 0.12332 0.82205 0.0
H1840 H 0.71818 0.18751 0.84528 0.0
H1841 H 0.72183 0.16369 0.83064 0.0
C1842 C 0.81968 0.73779 0.8665 0.0
C1843 C 0.80778 0.72714 0.86323 0.0
C1844 C 0.83145 0.74048 0.85557 0.0
C1845 C 0.83553 0.73832 0.81329 0.0
H1846 H 0.87889 0.74823 0.82022 0.0
C1847 C 0.87617 0.74855 0.76205 0.0
C1848 C 0.88611 0.76142 0.7629 0.0
C1849 C 0.86831 0.74339 0.77522 0.0
C1850 C 0.86677 0.74557 0.81816 0.0
H1851 H 0.79956 0.70982 0.84695 0.0
H1852 H 0.82031 0.71398 0.82824 0.0
H1853 H 0.86254 0.7403 0.84219 0.0
H1854 H 0.89604 0.77873 0.77829 0.0
H1855 H 0.88201 0.76986 0.80134 0.0
H1856 H 0.83949 0.74375 0.78947 0.0
C1857 C 0.82035 0.72072 0.83888 0.0
C1858 C 0.85744 0.74103 0.83071 0.0
C1859 C 0.80853 0.71824 0.84961 0.0
C1860 C 0.88838 0.76879 0.77729 0.0
C1861 C 0.88045 0.76365 0.79051 0.0
C1862 C 0.84478 0.74282 0.80085 0.0
C1863 C 0.83147 0.73241 0.84134 0.0
C1864 C 0.84174 0.7372 0.82834 0.0
C1865 C 0.87013 0.75104 0.78954 0.0
C1866 C 0.86053 0.74638 0.80307 0.0
H1867 H 0.81926 0.74482 0.87693 0.0
H1868 H 0.83987 0.74955 0.8578 0.0
H1869 H 0.82337 0.73595 0.81112 0.0
H1870 H 0.87433 0.74252 0.75116 0.0
H1871 H 0.86067 0.73345 0.77416 0.0
C1872 C 0.1225 0.25367 0.16602 0.0
C1873 C 0.12922 0.26261 0.17791 0.0
C1874 C 0.13074 0.2509 0.15226 0.0
C1875 C 0.16482 0.26346 0.12925 0.0
H1876 H 0.17299 0.21949 0.12405 0.0
C1877 C 0.2235 0.24078 0.1088 0.0
C1878 C 0.22438 0.22715 0.09994 0.0
C1879 C 0.20922 0.24605 0.11433 0.0
C1880 C 0.17061 0.23181 0.12501 0.0
H1881 H 0.14908 0.2766 0.18442 0.0
H1882 H 0.16323 0.27211 0.16039 0.0
H1883 H 0.15146 0.22788 0.14035 0.0
H1884 H 0.21098 0.20852 0.08952 0.0
H1885 H 0.18596 0.21778 0.09915 0.0
H1886 H 0.18434 0.26743 0.11443 0.0
C1887 C 0.15174 0.26714 0.16163 0.0
C1888 C 0.15824 0.2366 0.13433 0.0
C1889 C 0.1437 0.26962 0.17543 0.0
C1890 C 0.21066 0.21903 0.09643 0.0
C1891 C 0.19634 0.22432 0.10195 0.0
C1892 C 0.17711 0.25868 0.11984 0.0
C1893 C 0.14558 0.25735 0.15011 0.0
C1894 C 0.15569 0.25247 0.1371 0.0
C1895 C 0.19548 0.23783 0.11107 0.0
C1896 C 0.1806 0.24281 0.11822 0.0
H1897 H 0.11136 0.24809 0.16774 0.0
H1898 H 0.12576 0.2433 0.14355 0.0
H1899 H 0.16295 0.27578 0.13105 0.0
H1900 H 0.23388 0.24729 0.11168 0.0
H1901 H 0.20904 0.25633 0.12157 0.0
C1902 C 0.22425 0.74732 0.88919 0.0
C1903 C 0.22521 0.76036 0.89889 0.0
C1904 C 0.20997 0.74267 0.88311 0.0
C1905 C 0.17193 0.75897 0.87293 0.0
H1906 H 0.16397 0.71624 0.86111 0.0
C1907 C 0.12338 0.74142 0.82973 0.0
C1908 C 0.13012 0.73443 0.8166 0.0
C1909 C 0.13195 0.74296 0.84347 0.0
C1910 C 0.16592 0.72818 0.86455 0.0
H1911 H 0.21195 0.77833 0.91053 0.0
H1912 H 0.18692 0.77004 0.90012 0.0
H1913 H 0.18487 0.72207 0.87936 0.0
H1914 H 0.15058 0.72279 0.80774 0.0
H1915 H 0.16532 0.72511 0.83178 0.0
H1916 H 0.1532 0.76504 0.85771 0.0
C1917 C 0.19723 0.76358 0.89695 0.0
C1918 C 0.17795 0.73156 0.87488 0.0
C1919 C 0.21155 0.7683 0.90294 0.0
C1920 C 0.14517 0.72832 0.81767 0.0
C1921 C 0.15355 0.72952 0.83145 0.0
C1922 C 0.15976 0.75556 0.86275 0.0
C1923 C 0.19631 0.75089 0.8867 0.0
C1924 C 0.18157 0.74705 0.8786 0.0
C1925 C 0.14715 0.73712 0.84436 0.0
C1926 C 0.15713 0.74021 0.85796 0.0
H1927 H 0.23458 0.74097 0.88588 0.0
H1928 H 0.20979 0.73303 0.87504 0.0
H1929 H 0.17442 0.77104 0.87544 0.0
H1930 H 0.11179 0.74626 0.82915 0.0
H1931 H 0.12683 0.74893 0.8533 0.0
C1932 C 0.22306 0.21727 0.88547 0.0
C1933 C 0.22846 0.23229 0.88198 0.0
C1934 C 0.22731 0.20465 0.87617 0.0
C1935 C 0.23887 0.19585 0.83652 0.0
H1936 H 0.25504 0.15707 0.85277 0.0
C1937 C 0.26524 0.15124 0.79565 0.0
C1938 C 0.26171 0.1355 0.79797 0.0
C1939 C 0.26166 0.16222 0.80695 0.0
C1940 C 0.25036 0.16776 0.84808 0.0
H1941 H 0.24274 0.24584 0.8663 0.0
H1942 H 0.24996 0.22387 0.84998 0.0
H1943 H 0.24751 0.17787 0.87071 0.0
H1944 H 0.25218 0.11879 0.81421 0.0
H1945 H 0.2455 0.13817 0.83395 0.0
H1946 H 0.24135 0.18589 0.814 0.0
C1947 C 0.24243 0.22187 0.85985 0.0
C1948 C 0.24609 0.17964 0.85834 0.0
C1949 C 0.23833 0.23443 0.86921 0.0
C1950 C 0.25505 0.13087 0.81213 0.0
C1951 C 0.25126 0.14195 0.82343 0.0
C1952 C 0.24297 0.18399 0.82633 0.0
C1953 C 0.23685 0.2069 0.86315 0.0
C1954 C 0.24058 0.19388 0.85259 0.0
C1955 C 0.25421 0.15781 0.82078 0.0
C1956 C 0.24906 0.16992 0.83193 0.0
H1957 H 0.21548 0.21529 0.8953 0.0
H1958 H 0.22281 0.19323 0.8789 0.0
H1959 H 0.23432 0.20659 0.83182 0.0
H1960 H 0.27064 0.15513 0.78497 0.0
H1961 H 0.26456 0.17426 0.80473 0.0
C1962 C 0.78215 0.218 0.89105 0.0
C1963 C 0.7683 0.22547 0.88674 0.0
C1964 C 0.7961 0.22165 0.88367 0.0
C1965 C 0.81519 0.25105 0.85877 0.0
H1966 H 0.83926 0.21604 0.84383 0.0
C1967 C 0.85546 0.23735 0.80382 0.0
C1968 C 0.86596 0.24983 0.8039 0.0
C1969 C 0.84643 0.23412 0.81683 0.0
C1970 C 0.83275 0.22594 0.84807 0.0
H1971 H 0.75821 0.24282 0.87157 0.0
H1972 H 0.78258 0.24909 0.85851 0.0
H1973 H 0.8173 0.21155 0.86111 0.0
H1974 H 0.87571 0.26837 0.81786 0.0
H1975 H 0.85954 0.26288 0.84071 0.0
H1976 H 0.83024 0.26535 0.84507 0.0
C1977 C 0.78268 0.24055 0.86774 0.0
C1978 C 0.82024 0.22339 0.85804 0.0
C1979 C 0.76871 0.23687 0.87511 0.0
C1980 C 0.8677 0.25868 0.81751 0.0
C1981 C 0.85843 0.25559 0.83052 0.0
C1982 C 0.82778 0.25361 0.84885 0.0
C1983 C 0.7965 0.23288 0.87185 0.0
C1984 C 0.81103 0.23587 0.8631 0.0
C1985 C 0.84755 0.2434 0.83019 0.0
C1986 C 0.83635 0.24102 0.84301 0.0
H1987 H 0.78221 0.20923 0.90006 0.0
H1988 H 0.80658 0.21564 0.88717 0.0
H1989 H 0.80843 0.26091 0.86268 0.0
H1990 H 0.85399 0.23022 0.79355 0.0
H1991 H 0.83805 0.22476 0.81616 0.0
C1992 C 0.72424 0.84617 0.81099 0.0
C1993 C 0.73027 0.86127 0.81003 0.0
C1994 C 0.7265 0.83727 0.82429 0.0
C1995 C 0.75514 0.83078 0.85371 0.0
H1996 H 0.72419 0.80239 0.86997 0.0
C1997 C 0.77149 0.77902 0.89328 0.0
C1998 C 0.76441 0.76487 0.88924 0.0
C1999 C 0.76627 0.79296 0.88683 0.0
C2000 C 0.73297 0.81023 0.86555 0.0
H2001 H 0.74292 0.8792 0.82237 0.0
H2002 H 0.74731 0.86331 0.8457 0.0
H2003 H 0.71616 0.82385 0.8533 0.0
H2004 H 0.74634 0.75417 0.87537 0.0
H2005 H 0.73743 0.7784 0.86386 0.0
H2006 H 0.77206 0.81665 0.86516 0.0
C2007 C 0.74065 0.85852 0.83616 0.0
C2008 C 0.72836 0.82257 0.85612 0.0
C2009 C 0.7381 0.86759 0.82289 0.0
C2010 C 0.752 0.7649 0.87871 0.0
C2011 C 0.7468 0.77882 0.87225 0.0
C2012 C 0.75978 0.81836 0.86308 0.0
C2013 C 0.73507 0.84318 0.83684 0.0
C2014 C 0.73946 0.83259 0.84964 0.0
C2015 C 0.75388 0.79301 0.87621 0.0
C2016 C 0.74879 0.80761 0.86859 0.0
H2017 H 0.7181 0.84106 0.80126 0.0
H2018 H 0.72224 0.82543 0.82441 0.0
H2019 H 0.76395 0.83827 0.84876 0.0
H2020 H 0.78105 0.77934 0.90145 0.0
H2021 H 0.77191 0.80369 0.89019 0.0
C2022 C 0.77259 0.75282 0.1055 0.0
C2023 C 0.77097 0.76664 0.09705 0.0
C2024 C 0.78715 0.74811 0.11078 0.0
C2025 C 0.82486 0.76401 0.122 0.0
H2026 H 0.83457 0.72033 0.12705 0.0
C2027 C 0.87339 0.74291 0.16322 0.0
C2028 C 0.86684 0.73343 0.17478 0.0
C2029 C 0.86519 0.74587 0.14948 0.0
C2030 C 0.83215 0.73258 0.12552 0.0
H2031 H 0.78333 0.78617 0.08705 0.0
H2032 H 0.80888 0.7779 0.09628 0.0
H2033 H 0.8131 0.72805 0.11023 0.0
H2034 H 0.84727 0.71877 0.18069 0.0
H2035 H 0.83319 0.72361 0.15668 0.0
H2036 H 0.84352 0.76846 0.13784 0.0
C2037 C 0.79886 0.77078 0.09893 0.0
C2038 C 0.81981 0.737 0.11599 0.0
C2039 C 0.78425 0.7755 0.09364 0.0
C2040 C 0.85251 0.72619 0.17199 0.0
C2041 C 0.84453 0.72886 0.15819 0.0
C2042 C 0.83729 0.75958 0.13145 0.0
C2043 C 0.80044 0.75709 0.10769 0.0
C2044 C 0.81554 0.75271 0.11476 0.0
C2045 C 0.85056 0.73905 0.14699 0.0
C2046 C 0.84055 0.74379 0.13386 0.0
H2047 H 0.76257 0.74575 0.1083 0.0
H2048 H 0.78788 0.73767 0.11776 0.0
H2049 H 0.82187 0.77621 0.12134 0.0
H2050 H 0.88441 0.74866 0.16517 0.0
H2051 H 0.87004 0.7538 0.14101 0.0
C2052 C 0.24004 0.75893 0.1232 0.0
C2053 C 0.22905 0.76105 0.11136 0.0
C2054 C 0.24528 0.77159 0.13187 0.0
C2055 C 0.24841 0.81431 0.13237 0.0
H2056 H 0.24939 0.80838 0.17697 0.0
C2057 C 0.25603 0.86432 0.17747 0.0
C2058 C 0.26384 0.86056 0.19128 0.0
C2059 C 0.25325 0.85283 0.16626 0.0
C2060 C 0.24947 0.8102 0.16452 0.0
H2061 H 0.21516 0.77808 0.09904 0.0
H2062 H 0.22427 0.80021 0.11431 0.0
H2063 H 0.24171 0.78703 0.16029 0.0
H2064 H 0.27609 0.84244 0.20367 0.0
H2065 H 0.2719 0.82267 0.18397 0.0
H2066 H 0.25619 0.83759 0.13672 0.0
C2067 C 0.2289 0.78878 0.11679 0.0
C2068 C 0.24501 0.79794 0.15497 0.0
C2069 C 0.22361 0.7761 0.10815 0.0
C2070 C 0.26981 0.84554 0.19322 0.0
C2071 C 0.2673 0.8342 0.18197 0.0
C2072 C 0.25299 0.82663 0.14198 0.0
C2073 C 0.23966 0.78662 0.12886 0.0
C2074 C 0.2445 0.79981 0.1388 0.0
C2075 C 0.25843 0.8375 0.16867 0.0
C2076 C 0.25367 0.82465 0.15818 0.0
H2077 H 0.24452 0.74748 0.12585 0.0
H2078 H 0.25374 0.7696 0.14097 0.0
H2079 H 0.24815 0.81605 0.11991 0.0
H2080 H 0.25129 0.87585 0.17576 0.0
H2081 H 0.24637 0.85576 0.15615 0.0
C2082 C 0.73665 0.12278 0.16562 0.0
C2083 C 0.72687 0.12961 0.17675 0.0
C2084 C 0.73987 0.13057 0.1517 0.0
C2085 C 0.72751 0.16345 0.12683 0.0
H2086 H 0.77142 0.17287 0.12379 0.0
C2087 C 0.74969 0.22259 0.10741 0.0
C2088 C 0.7637 0.22385 0.09922 0.0
C2089 C 0.74447 0.20815 0.11255 0.0
C2090 C 0.75916 0.17012 0.12414 0.0
H2091 H 0.71187 0.14918 0.18169 0.0
H2092 H 0.71716 0.16255 0.15738 0.0
H2093 H 0.76281 0.15147 0.14016 0.0
H2094 H 0.78305 0.21095 0.08955 0.0
H2095 H 0.77391 0.18563 0.09859 0.0
H2096 H 0.72378 0.18256 0.1114 0.0
C2097 C 0.72244 0.1513 0.15934 0.0
C2098 C 0.75423 0.15782 0.13351 0.0
C2099 C 0.7195 0.14372 0.1733 0.0
C2100 C 0.77223 0.21033 0.09594 0.0
C2101 C 0.76702 0.19584 0.10111 0.0
C2102 C 0.73243 0.17568 0.11741 0.0
C2103 C 0.73304 0.14507 0.14862 0.0
C2104 C 0.73831 0.15488 0.13552 0.0
C2105 C 0.75314 0.19462 0.10961 0.0
C2106 C 0.74825 0.17963 0.11658 0.0
H2107 H 0.74252 0.11193 0.16809 0.0
H2108 H 0.74809 0.12555 0.14362 0.0
H2109 H 0.71518 0.16127 0.12803 0.0
H2110 H 0.74286 0.23281 0.11009 0.0
H2111 H 0.73388 0.20768 0.11932 0.0
C2112 C 0.67983 0.63023 0.75781 0.0
C2113 C 0.69421 0.63446 0.76427 0.0
C2114 C 0.66843 0.64153 0.75509 0.0
C2115 C 0.66569 0.68384 0.74891 0.0
H2116 H 0.62136 0.67779 0.7538 0.0
C2117 C 0.62331 0.73455 0.74264 0.0
C2118 C 0.61031 0.73197 0.73316 0.0
C2119 C 0.6325 0.72211 0.74747 0.0
C2120 C 0.63372 0.67958 0.75231 0.0
H2121 H 0.7075 0.65349 0.77406 0.0
H2122 H 0.6876 0.67296 0.76979 0.0
H2123 H 0.63927 0.65674 0.76058 0.0
H2124 H 0.59638 0.71433 0.72173 0.0
H2125 H 0.61253 0.69258 0.73015 0.0
H2126 H 0.66026 0.70659 0.74069 0.0
C2127 C 0.68526 0.66112 0.76625 0.0
C2128 C 0.64395 0.66754 0.75616 0.0
C2129 C 0.69665 0.64994 0.76877 0.0
C2130 C 0.60638 0.71667 0.72901 0.0
C2131 C 0.61555 0.70421 0.73389 0.0
C2132 C 0.65552 0.69583 0.74518 0.0
C2133 C 0.67122 0.65718 0.75893 0.0
C2134 C 0.66008 0.66962 0.75463 0.0
C2135 C 0.62886 0.70685 0.74294 0.0
C2136 C 0.63945 0.6939 0.74695 0.0
H2137 H 0.67765 0.61836 0.75424 0.0
H2138 H 0.65774 0.63812 0.74941 0.0
H2139 H 0.678 0.6857 0.74715 0.0
H2140 H 0.62655 0.7462 0.74611 0.0
H2141 H 0.64257 0.72446 0.75464 0.0
C2142 C 0.2755 0.60747 0.71779 0.0
C2143 C 0.26156 0.61138 0.7253 0.0
C2144 C 0.28919 0.61547 0.72117 0.0
C2145 C 0.30808 0.64026 0.75039 0.0
H2146 H 0.33099 0.65695 0.71538 0.0
C2147 C 0.35028 0.69463 0.73836 0.0
C2148 C 0.36188 0.69276 0.74968 0.0
C2149 C 0.33998 0.68259 0.73505 0.0
C2150 C 0.32478 0.65224 0.72525 0.0
H2151 H 0.25103 0.62649 0.74245 0.0
H2152 H 0.27502 0.64048 0.74842 0.0
H2153 H 0.30889 0.63975 0.71077 0.0
H2154 H 0.37202 0.67668 0.76619 0.0
H2155 H 0.35363 0.65562 0.76062 0.0
H2156 H 0.32376 0.65311 0.76484 0.0
C2157 C 0.27534 0.63117 0.73996 0.0
C2158 C 0.3122 0.64235 0.72263 0.0
C2159 C 0.26161 0.62326 0.73646 0.0
C2160 C 0.36318 0.67844 0.75741 0.0
C2161 C 0.35266 0.66644 0.75428 0.0
C2162 C 0.32079 0.65001 0.75302 0.0
C2163 C 0.28923 0.62744 0.73224 0.0
C2164 C 0.30351 0.63657 0.73516 0.0
C2165 C 0.34091 0.66847 0.74314 0.0
C2166 C 0.329 0.65639 0.74046 0.0
H2167 H 0.27583 0.59832 0.70915 0.0
H2168 H 0.29975 0.6123 0.71512 0.0
H2169 H 0.30166 0.63581 0.76024 0.0
H2170 H 0.34907 0.70549 0.73211 0.0
H2171 H 0.33094 0.68451 0.72651 0.0
C2172 C 0.38176 0.26683 0.74195 0.0
C2173 C 0.39065 0.26622 0.72833 0.0
C2174 C 0.37615 0.281 0.74744 0.0
C2175 C 0.36535 0.31986 0.73406 0.0
H2176 H 0.36017 0.32687 0.77826 0.0
C2177 C 0.32552 0.36826 0.75764 0.0
C2178 C 0.31382 0.36176 0.76698 0.0
C2179 C 0.33896 0.35974 0.75427 0.0
C2180 C 0.36171 0.32517 0.76589 0.0
H2181 H 0.40095 0.27994 0.7099 0.0
H2182 H 0.39115 0.30478 0.71953 0.0
H2183 H 0.37647 0.3055 0.76927 0.0
H2184 H 0.30741 0.34188 0.78101 0.0
H2185 H 0.33086 0.32721 0.7754 0.0
H2186 H 0.35006 0.33918 0.73072 0.0
C2187 C 0.38841 0.29428 0.72589 0.0
C2188 C 0.37094 0.3129 0.76074 0.0
C2189 C 0.39402 0.28007 0.72039 0.0
C2190 C 0.31621 0.34712 0.7737 0.0
C2191 C 0.3297 0.33878 0.77059 0.0
C2192 C 0.35617 0.33221 0.73923 0.0
C2193 C 0.37935 0.29489 0.73945 0.0
C2194 C 0.37228 0.30968 0.74479 0.0
C2195 C 0.341 0.34479 0.76049 0.0
C2196 C 0.35372 0.33453 0.75519 0.0
H2197 H 0.37898 0.25634 0.74831 0.0
H2198 H 0.36894 0.28099 0.75774 0.0
H2199 H 0.3661 0.31768 0.7217 0.0
H2200 H 0.3239 0.37953 0.75228 0.0
H2201 H 0.34751 0.36462 0.74645 0.0
C2202 C 0.62188 0.32122 0.75298 0.0
C2203 C 0.62817 0.30786 0.75993 0.0
C2204 C 0.63124 0.3343 0.75047 0.0
C2205 C 0.66782 0.35308 0.76223 0.0
H2206 H 0.67258 0.36402 0.71882 0.0
C2207 C 0.72457 0.37788 0.73849 0.0
C2208 C 0.7242 0.38864 0.72628 0.0
C2209 C 0.7109 0.37094 0.74372 0.0
C2210 C 0.6712 0.36142 0.73105 0.0
H2211 H 0.64871 0.29795 0.77055 0.0
H2212 H 0.66486 0.32081 0.76654 0.0
H2213 H 0.6512 0.34723 0.72677 0.0
H2214 H 0.70923 0.40083 0.71011 0.0
H2215 H 0.68527 0.38885 0.71938 0.0
H2216 H 0.68798 0.36691 0.76654 0.0
C2217 C 0.65282 0.3212 0.7629 0.0
C2218 C 0.65893 0.35181 0.73558 0.0
C2219 C 0.64362 0.30808 0.76509 0.0
C2220 C 0.70987 0.39248 0.71949 0.0
C2221 C 0.69615 0.3856 0.72478 0.0
C2222 C 0.67998 0.3628 0.75774 0.0
C2223 C 0.64684 0.33429 0.75526 0.0
C2224 C 0.6575 0.34709 0.75112 0.0
C2225 C 0.69652 0.37469 0.73692 0.0
C2226 C 0.68217 0.36658 0.74201 0.0
H2227 H 0.61 0.32128 0.74884 0.0
H2228 H 0.62641 0.34427 0.74453 0.0
H2229 H 0.66684 0.34972 0.77432 0.0
H2230 H 0.73546 0.37467 0.74392 0.0
H2231 H 0.71168 0.36235 0.75286 0.0
C2232 C 0.68232 0.34871 0.22062 0.0
C2233 C 0.68336 0.36206 0.22986 0.0
C2234 C 0.67025 0.33818 0.22276 0.0
C2235 C 0.63293 0.33066 0.24317 0.0
H2236 H 0.6489 0.28854 0.24325 0.0
C2237 C 0.60143 0.27749 0.27061 0.0
C2238 C 0.6025 0.26336 0.2625 0.0
C2239 C 0.60947 0.29059 0.26539 0.0
C2240 C 0.64417 0.30019 0.24306 0.0
H2241 H 0.67222 0.37551 0.24793 0.0
H2242 H 0.65124 0.3567 0.25218 0.0
H2243 H 0.66584 0.30977 0.23606 0.0
H2244 H 0.61217 0.25201 0.24222 0.0
H2245 H 0.62612 0.27484 0.23307 0.0
H2246 H 0.61127 0.32082 0.25068 0.0
C2247 C 0.65959 0.35452 0.24304 0.0
C2248 C 0.65388 0.3124 0.23889 0.0
C2249 C 0.67158 0.36527 0.24065 0.0
C2250 C 0.61127 0.26269 0.24881 0.0
C2251 C 0.61928 0.27576 0.24358 0.0
C2252 C 0.62317 0.31835 0.24745 0.0
C2253 C 0.65917 0.34056 0.23451 0.0
C2254 C 0.64839 0.32778 0.23876 0.0
C2255 C 0.61873 0.28975 0.25198 0.0
C2256 C 0.62871 0.30298 0.24733 0.0
H2257 H 0.69119 0.34614 0.21207 0.0
H2258 H 0.66998 0.32781 0.21564 0.0
H2259 H 0.62835 0.34237 0.24318 0.0
H2260 H 0.59468 0.27833 0.28119 0.0
H2261 H 0.60892 0.30118 0.27215 0.0
C2262 C 0.71058 0.59354 0.27256 0.0
C2263 C 0.72362 0.59889 0.26434 0.0
C2264 C 0.69583 0.59942 0.26928 0.0
C2265 C 0.67339 0.6225 0.24057 0.0
H2266 H 0.65151 0.63775 0.27684 0.0
C2267 C 0.63622 0.67857 0.25584 0.0
C2268 C 0.62546 0.67908 0.24361 0.0
C2269 C 0.64439 0.665 0.25901 0.0
C2270 C 0.65736 0.63337 0.2666 0.0
H2271 H 0.73141 0.61411 0.24588 0.0
H2272 H 0.70571 0.62453 0.24028 0.0
H2273 H 0.67383 0.6207 0.28015 0.0
H2274 H 0.61415 0.66559 0.2256 0.0
H2275 H 0.62883 0.64173 0.23098 0.0
H2276 H 0.6575 0.63603 0.22708 0.0
C2277 C 0.70682 0.61565 0.24912 0.0
C2278 C 0.67009 0.62352 0.26848 0.0
C2279 C 0.72157 0.6098 0.25242 0.0
C2280 C 0.62242 0.66549 0.23509 0.0
C2281 C 0.63082 0.65189 0.23812 0.0
C2282 C 0.66062 0.63232 0.23869 0.0
C2283 C 0.69383 0.61073 0.2577 0.0
C2284 C 0.67862 0.61851 0.25551 0.0
C2285 C 0.64212 0.65165 0.24992 0.0
C2286 C 0.65291 0.63838 0.25173 0.0
H2287 H 0.71181 0.58505 0.28175 0.0
H2288 H 0.68602 0.59531 0.276 0.0
H2289 H 0.6796 0.6186 0.23035 0.0
H2290 H 0.63867 0.68884 0.26269 0.0
H2291 H 0.65314 0.66524 0.26806 0.0
C2292 C 0.3168 0.63078 0.23955 0.0
C2293 C 0.30232 0.63476 0.23322 0.0
C2294 C 0.32807 0.64226 0.24209 0.0
C2295 C 0.33059 0.68501 0.24699 0.0
H2296 H 0.375 0.6783 0.24408 0.0
C2297 C 0.37395 0.73527 0.25167 0.0
C2298 C 0.3859 0.73324 0.26256 0.0
C2299 C 0.36477 0.72269 0.24715 0.0
C2300 C 0.36261 0.68027 0.24496 0.0
H2301 H 0.28862 0.65347 0.22347 0.0
H2302 H 0.30838 0.67325 0.22716 0.0
H2303 H 0.35711 0.65718 0.23743 0.0
H2304 H 0.39804 0.7164 0.27683 0.0
H2305 H 0.38202 0.69435 0.26876 0.0
H2306 H 0.33606 0.70811 0.25427 0.0
C2307 C 0.3109 0.66151 0.23087 0.0
C2308 C 0.35237 0.66819 0.24123 0.0
C2309 C 0.29961 0.65015 0.22864 0.0
C2310 C 0.38885 0.7183 0.26845 0.0
C2311 C 0.37977 0.70567 0.26378 0.0
C2312 C 0.34078 0.69707 0.2505 0.0
C2313 C 0.32508 0.65785 0.2381 0.0
C2314 C 0.33621 0.67046 0.24211 0.0
C2315 C 0.36747 0.70783 0.2533 0.0
C2316 C 0.35687 0.69486 0.24946 0.0
H2317 H 0.31914 0.61898 0.24321 0.0
H2318 H 0.33882 0.63902 0.24774 0.0
H2319 H 0.31826 0.68709 0.2483 0.0
H2320 H 0.37145 0.74662 0.24689 0.0
H2321 H 0.35543 0.72462 0.23894 0.0
C2322 C 0.34477 0.30442 0.22833 0.0
C2323 C 0.36046 0.30482 0.23271 0.0
C2324 C 0.33526 0.31726 0.23071 0.0
C2325 C 0.32985 0.34921 0.25707 0.0
H2326 H 0.29827 0.36134 0.22731 0.0
C2327 C 0.27937 0.39073 0.27294 0.0
C2328 C 0.26465 0.38599 0.26771 0.0
C2329 C 0.29278 0.38338 0.26752 0.0
C2330 C 0.307 0.35806 0.23576 0.0
H2331 H 0.37867 0.31911 0.24263 0.0
H2332 H 0.36177 0.34165 0.24719 0.0
H2333 H 0.31938 0.34429 0.21919 0.0
H2334 H 0.25238 0.36983 0.25281 0.0
H2335 H 0.27571 0.35681 0.24356 0.0
H2336 H 0.31707 0.36235 0.27385 0.0
C2337 C 0.35696 0.33136 0.24177 0.0
C2338 C 0.31911 0.34839 0.23108 0.0
C2339 C 0.36661 0.31852 0.23912 0.0
C2340 C 0.26357 0.37375 0.25701 0.0
C2341 C 0.27695 0.36641 0.25161 0.0
C2342 C 0.31766 0.35884 0.26178 0.0
C2343 C 0.34116 0.33075 0.23771 0.0
C2344 C 0.33035 0.34345 0.24181 0.0
C2345 C 0.29171 0.37116 0.25676 0.0
C2346 C 0.30582 0.36292 0.2513 0.0
H2347 H 0.33974 0.29406 0.22325 0.0
H2348 H 0.32309 0.31639 0.22764 0.0
H2349 H 0.3383 0.34548 0.2656 0.0
H2350 H 0.28055 0.40019 0.28115 0.0
H2351 H 0.30397 0.38737 0.27165 0.0
C2352 C 0.72535 0.60192 0.71618 0.0
C2353 C 0.73349 0.60315 0.73028 0.0
C2354 C 0.73032 0.61012 0.70307 0.0
C2355 C 0.75132 0.64556 0.69355 0.0
H2356 H 0.75174 0.62988 0.65132 0.0
C2357 C 0.77146 0.685 0.64483 0.0
C2358 C 0.76252 0.68515 0.63125 0.0
C2359 C 0.76985 0.673 0.65555 0.0
C2360 C 0.75158 0.63444 0.66304 0.0
H2361 H 0.7536 0.61326 0.74156 0.0
H2362 H 0.76229 0.62754 0.71871 0.0
H2363 H 0.74509 0.61242 0.6728 0.0
H2364 H 0.74544 0.67266 0.61768 0.0
H2365 H 0.74205 0.65184 0.63681 0.0
H2366 H 0.75719 0.6676 0.68405 0.0
C2367 C 0.75196 0.62041 0.71783 0.0
C2368 C 0.74781 0.62445 0.67532 0.0
C2369 C 0.74701 0.61222 0.73089 0.0
C2370 C 0.75251 0.67268 0.62809 0.0
C2371 C 0.75061 0.66078 0.63903 0.0
C2372 C 0.75495 0.65552 0.68136 0.0
C2373 C 0.74349 0.61971 0.70388 0.0
C2374 C 0.74774 0.62993 0.6907 0.0
C2375 C 0.7589 0.66111 0.65314 0.0
C2376 C 0.75525 0.65011 0.66595 0.0
H2377 H 0.7149 0.59496 0.71536 0.0
H2378 H 0.72351 0.60944 0.69252 0.0
H2379 H 0.75097 0.65023 0.70523 0.0
H2380 H 0.7794 0.69443 0.64738 0.0
H2381 H 0.77681 0.67336 0.66602 0.0
C2382 C 0.38641 0.74558 0.72359 0.0
C2383 C 0.39656 0.73287 0.72425 0.0
C2384 C 0.38014 0.75034 0.70944 0.0
C2385 C 0.37041 0.73471 0.67098 0.0
H2386 H 0.35713 0.77721 0.66426 0.0
C2387 C 0.32674 0.75247 0.62275 0.0
C2388 C 0.3134 0.75889 0.62961 0.0
C2389 C 0.34046 0.75097 0.63138 0.0
C2390 C 0.36097 0.76533 0.66586 0.0
H2391 H 0.40879 0.71565 0.71054 0.0
H2392 H 0.39803 0.72415 0.6857 0.0
H2393 H 0.37564 0.77143 0.68494 0.0
H2394 H 0.3041 0.76952 0.65044 0.0
H2395 H 0.32807 0.76729 0.6653 0.0
H2396 H 0.35534 0.72864 0.6521 0.0
C2397 C 0.39466 0.73025 0.69617 0.0
C2398 C 0.37145 0.76199 0.67776 0.0
C2399 C 0.40087 0.72541 0.71039 0.0
C2400 C 0.31419 0.76445 0.64491 0.0
C2401 C 0.32793 0.76329 0.65336 0.0
C2402 C 0.36007 0.7381 0.65893 0.0
C2403 C 0.38398 0.74259 0.69557 0.0
C2404 C 0.37571 0.74654 0.68094 0.0
C2405 C 0.34109 0.75629 0.6468 0.0
C2406 C 0.35476 0.75334 0.65674 0.0
H2407 H 0.38289 0.75157 0.73407 0.0
H2408 H 0.37175 0.7597 0.70951 0.0
H2409 H 0.37334 0.72267 0.67311 0.0
H2410 H 0.32638 0.74806 0.61097 0.0
H2411 H 0.35047 0.74547 0.62613 0.0
C2412 C 0.25524 0.36824 0.73482 0.0
C2413 C 0.26591 0.38041 0.73296 0.0
C2414 C 0.25055 0.35942 0.72206 0.0
C2415 C 0.24768 0.35901 0.67946 0.0
H2416 H 0.24699 0.31439 0.68542 0.0
C2417 C 0.23695 0.31362 0.63004 0.0
C2418 C 0.22857 0.30027 0.63428 0.0
C2419 C 0.24091 0.32474 0.64127 0.0
C2420 C 0.2469 0.32684 0.68359 0.0
H2421 H 0.27984 0.39312 0.71626 0.0
H2422 H 0.27163 0.3776 0.69389 0.0
H2423 H 0.25525 0.33112 0.70655 0.0
H2424 H 0.21661 0.28873 0.65318 0.0
H2425 H 0.22304 0.30821 0.67253 0.0
H2426 H 0.23918 0.3546 0.65643 0.0
C2427 C 0.26686 0.37497 0.70523 0.0
C2428 C 0.25168 0.33641 0.69571 0.0
C2429 C 0.27162 0.38377 0.71804 0.0
C2430 C 0.22334 0.29876 0.64964 0.0
C2431 C 0.22711 0.30988 0.66074 0.0
C2432 C 0.24279 0.34937 0.66728 0.0
C2433 C 0.25641 0.36259 0.70716 0.0
C2434 C 0.25193 0.3526 0.69387 0.0
C2435 C 0.23642 0.3227 0.65685 0.0
C2436 C 0.24212 0.33318 0.66932 0.0
H2437 H 0.25056 0.36544 0.74615 0.0
H2438 H 0.24231 0.35009 0.72386 0.0
H2439 H 0.24775 0.37147 0.67774 0.0
H2440 H 0.24113 0.31506 0.61826 0.0
H2441 H 0.24808 0.33451 0.6379 0.0
C2442 C 0.67945 0.25558 0.6369 0.0
C2443 C 0.67908 0.24351 0.62595 0.0
C2444 C 0.66618 0.25947 0.64525 0.0
C2445 C 0.63518 0.26864 0.65875 0.0
H2446 H 0.61843 0.23282 0.6803 0.0
C2447 C 0.59462 0.27535 0.71141 0.0
C2448 C 0.59918 0.2666 0.72441 0.0
C2449 C 0.60089 0.27223 0.69679 0.0
C2450 C 0.62291 0.24292 0.67429 0.0
H2451 H 0.66438 0.22662 0.61445 0.0
H2452 H 0.64105 0.23326 0.6294 0.0
H2453 H 0.6356 0.22904 0.65807 0.0
H2454 H 0.61348 0.24746 0.73228 0.0
H2455 H 0.62459 0.2421 0.70678 0.0
H2456 H 0.62327 0.28253 0.67551 0.0
C2457 C 0.65166 0.23971 0.63142 0.0
C2458 C 0.63257 0.24077 0.66145 0.0
C2459 C 0.66495 0.23596 0.62286 0.0
C2460 C 0.60979 0.2544 0.72247 0.0
C2461 C 0.61603 0.25125 0.70783 0.0
C2462 C 0.62547 0.2708 0.67154 0.0
C2463 C 0.65228 0.25126 0.64296 0.0
C2464 C 0.63928 0.2536 0.65395 0.0
C2465 C 0.6118 0.26026 0.69489 0.0
C2466 C 0.61972 0.25795 0.67979 0.0
H2467 H 0.69017 0.2617 0.6394 0.0
H2468 H 0.66707 0.26831 0.65416 0.0
H2469 H 0.64011 0.27874 0.65308 0.0
H2470 H 0.58638 0.28477 0.71254 0.0
H2471 H 0.59733 0.27929 0.68701 0.0
C2472 C 0.72046 0.39308 0.2806 0.0
C2473 C 0.7275 0.38928 0.26638 0.0
C2474 C 0.72604 0.38677 0.29449 0.0
C2475 C 0.7603 0.3668 0.31139 0.0
H2476 H 0.73035 0.34825 0.33941 0.0
C2477 C 0.77233 0.31266 0.34711 0.0
C2478 C 0.76613 0.31115 0.36211 0.0
C2479 C 0.7693 0.32585 0.33827 0.0
C2480 C 0.73887 0.35369 0.33192 0.0
H2481 H 0.74591 0.37601 0.2555 0.0
H2482 H 0.75548 0.36483 0.27961 0.0
H2483 H 0.72132 0.3645 0.31804 0.0
H2484 H 0.75244 0.3225 0.37991 0.0
H2485 H 0.7468 0.34561 0.36418 0.0
H2486 H 0.77777 0.35526 0.32478 0.0
C2487 C 0.74584 0.37289 0.28014 0.0
C2488 C 0.7337 0.36298 0.31965 0.0
C2489 C 0.74026 0.37916 0.26629 0.0
C2490 C 0.75739 0.32342 0.36839 0.0
C2491 C 0.75412 0.33657 0.35939 0.0
C2492 C 0.76545 0.35748 0.32359 0.0
C2493 C 0.7388 0.37659 0.2944 0.0
C2494 C 0.74434 0.36912 0.3089 0.0
C2495 C 0.75983 0.33775 0.34414 0.0
C2496 C 0.75474 0.35035 0.33361 0.0
H2497 H 0.71063 0.40091 0.28102 0.0
H2498 H 0.72042 0.3899 0.30529 0.0
H2499 H 0.7688 0.37171 0.30353 0.0
H2500 H 0.77918 0.30342 0.34202 0.0
H2501 H 0.77371 0.32634 0.3265 0.0
C2502 C 0.59628 0.72213 0.28124 0.0
C2503 C 0.60126 0.72855 0.26708 0.0
C2504 C 0.60215 0.72771 0.29532 0.0
C2505 C 0.62323 0.761 0.3127 0.0
H2506 H 0.64012 0.73031 0.341 0.0
C2507 C 0.67794 0.77048 0.34798 0.0
C2508 C 0.6794 0.76428 0.36298 0.0
C2509 C 0.66447 0.7681 0.33938 0.0
C2510 C 0.63513 0.73905 0.33346 0.0
H2511 H 0.61603 0.74597 0.25652 0.0
H2512 H 0.62637 0.75562 0.28102 0.0
H2513 H 0.62366 0.72198 0.31948 0.0
H2514 H 0.66772 0.75122 0.38103 0.0
H2515 H 0.64406 0.74665 0.36567 0.0
H2516 H 0.63543 0.77798 0.32618 0.0
C2517 C 0.61779 0.74642 0.2813 0.0
C2518 C 0.62572 0.73428 0.3211 0.0
C2519 C 0.61199 0.7408 0.26725 0.0
C2520 C 0.66683 0.75617 0.3695 0.0
C2521 C 0.65337 0.75352 0.36072 0.0
C2522 C 0.63264 0.76576 0.32502 0.0
C2523 C 0.61302 0.73988 0.29549 0.0
C2524 C 0.62025 0.74515 0.31021 0.0
C2525 C 0.6522 0.75926 0.34547 0.0
C2526 C 0.63922 0.75476 0.3351 0.0
H2527 H 0.58796 0.71269 0.28145 0.0
H2528 H 0.59822 0.72248 0.30606 0.0
H2529 H 0.61886 0.76968 0.30471 0.0
H2530 H 0.68743 0.77685 0.34272 0.0
H2531 H 0.66402 0.77249 0.3276 0.0
C2532 C 0.22058 0.66549 0.35255 0.0
C2533 C 0.22907 0.67029 0.36559 0.0
C2534 C 0.22429 0.65172 0.34497 0.0
C2535 C 0.25849 0.62992 0.33566 0.0
H2536 H 0.22886 0.60505 0.31254 0.0
C2537 C 0.27643 0.59466 0.28149 0.0
C2538 C 0.26687 0.59743 0.26854 0.0
C2539 C 0.27171 0.59923 0.29633 0.0
C2540 C 0.23729 0.61183 0.31897 0.0
H2541 H 0.24748 0.66418 0.38157 0.0
H2542 H 0.25432 0.63999 0.36798 0.0
H2543 H 0.22012 0.62018 0.33487 0.0
H2544 H 0.24478 0.60681 0.26098 0.0
H2545 H 0.23661 0.61492 0.28681 0.0
H2546 H 0.27548 0.62232 0.31922 0.0
C2547 C 0.24467 0.64687 0.36376 0.0
C2548 C 0.23231 0.62041 0.33179 0.0
C2549 C 0.24073 0.66061 0.37156 0.0
C2550 C 0.25239 0.60455 0.27074 0.0
C2551 C 0.24765 0.60904 0.28557 0.0
C2552 C 0.26348 0.62132 0.32283 0.0
C2553 C 0.23676 0.64255 0.35011 0.0
C2554 C 0.2427 0.63013 0.33978 0.0
C2555 C 0.25731 0.60656 0.29851 0.0
C2556 C 0.25277 0.61279 0.31392 0.0
H2557 H 0.21151 0.6728 0.34777 0.0
H2558 H 0.2181 0.64887 0.33439 0.0
H2559 H 0.26676 0.63739 0.3415 0.0
H2560 H 0.28763 0.58913 0.28014 0.0
H2561 H 0.27937 0.59713 0.30609 0.0
C2562 C 0.31042 0.22295 0.34773 0.0
C2563 C 0.30987 0.22877 0.36295 0.0
C2564 C 0.32362 0.225 0.33864 0.0
C2565 C 0.35392 0.25271 0.33202 0.0
H2566 H 0.36937 0.22124 0.30374 0.0
C2567 C 0.39386 0.26821 0.28039 0.0
C2568 C 0.38964 0.26127 0.26622 0.0
C2569 C 0.38742 0.263 0.29434 0.0
C2570 C 0.36518 0.23017 0.31154 0.0
H2571 H 0.32283 0.24089 0.38081 0.0
H2572 H 0.34597 0.24491 0.36459 0.0
H2573 H 0.35229 0.21376 0.32507 0.0
H2574 H 0.37558 0.24333 0.25554 0.0
H2575 H 0.36409 0.23446 0.27975 0.0
H2576 H 0.36597 0.26927 0.31798 0.0
C2577 C 0.33618 0.23858 0.35986 0.0
C2578 C 0.3555 0.22586 0.3238 0.0
C2579 C 0.32301 0.23623 0.36912 0.0
C2580 C 0.37906 0.24889 0.26628 0.0
C2581 C 0.3726 0.24371 0.2802 0.0
C2582 C 0.36351 0.25705 0.31967 0.0
C2583 C 0.33649 0.23315 0.34447 0.0
C2584 C 0.34934 0.23716 0.33381 0.0
C2585 C 0.37662 0.25075 0.29439 0.0
C2586 C 0.36877 0.24589 0.30896 0.0
H2587 H 0.30048 0.21708 0.34272 0.0
H2588 H 0.32347 0.22086 0.32676 0.0
H2589 H 0.34922 0.26166 0.3395 0.0
H2590 H 0.40208 0.27774 0.28069 0.0
H2591 H 0.39086 0.26858 0.30508 0.0
C2592 C 0.7225 0.73712 0.61171 0.0
C2593 C 0.72413 0.72455 0.60147 0.0
C2594 C 0.70799 0.74075 0.61797 0.0
C2595 C 0.67112 0.72232 0.62798 0.0
H2596 H 0.65902 0.76464 0.63753 0.0
C2597 C 0.62374 0.75912 0.66738 0.0
C2598 C 0.62675 0.75161 0.68153 0.0
C2599 C 0.63211 0.75502 0.65403 0.0
C2600 C 0.66202 0.75277 0.63466 0.0
H2601 H 0.71181 0.70619 0.58935 0.0
H2602 H 0.68647 0.71255 0.60029 0.0
H2603 H 0.68107 0.7599 0.62035 0.0
H2604 H 0.63981 0.73323 0.69268 0.0
H2605 H 0.65414 0.72594 0.66952 0.0
H2606 H 0.65244 0.7152 0.64274 0.0
C2607 C 0.69641 0.71951 0.60359 0.0
C2608 C 0.67477 0.75005 0.625 0.0
C2609 C 0.71092 0.71589 0.59732 0.0
C2610 C 0.63737 0.73927 0.68191 0.0
C2611 C 0.64548 0.73501 0.66861 0.0
C2612 C 0.65842 0.72504 0.63766 0.0
C2613 C 0.69481 0.73188 0.61411 0.0
C2614 C 0.6798 0.7348 0.62203 0.0
C2615 C 0.6433 0.74314 0.65464 0.0
C2616 C 0.65412 0.74028 0.64158 0.0
H2617 H 0.73247 0.744 0.61509 0.0
H2618 H 0.7072 0.75019 0.62624 0.0
H2619 H 0.6747 0.71044 0.62596 0.0
H2620 H 0.61561 0.76871 0.66684 0.0
H2621 H 0.63019 0.76144 0.64338 0.0
C2622 C 0.7335 0.253 0.37103 0.0
C2623 C 0.73172 0.26432 0.38261 0.0
C2624 C 0.72072 0.248 0.36242 0.0
C2625 C 0.67801 0.24603 0.3618 0.0
H2626 H 0.68415 0.2436 0.31728 0.0
C2627 C 0.62829 0.23712 0.31649 0.0
C2628 C 0.63211 0.22855 0.30314 0.0
C2629 C 0.63968 0.24037 0.32767 0.0
C2630 C 0.68226 0.24395 0.32971 0.0
H2631 H 0.71513 0.27906 0.39454 0.0
H2632 H 0.69275 0.27033 0.37937 0.0
H2633 H 0.70551 0.25152 0.33384 0.0
H2634 H 0.65026 0.21544 0.29167 0.0
H2635 H 0.66985 0.22058 0.31131 0.0
H2636 H 0.65465 0.2384 0.35754 0.0
C2637 C 0.70403 0.26528 0.37704 0.0
C2638 C 0.69452 0.24855 0.33919 0.0
C2639 C 0.71685 0.27034 0.38563 0.0
C2640 C 0.64709 0.22233 0.30172 0.0
C2641 C 0.65834 0.22536 0.31293 0.0
C2642 C 0.66568 0.24132 0.35226 0.0
C2643 C 0.70588 0.25419 0.36522 0.0
C2644 C 0.69259 0.24951 0.35534 0.0
C2645 C 0.65497 0.23494 0.3257 0.0
C2646 C 0.66775 0.24008 0.33611 0.0
H2647 H 0.7448 0.24808 0.36852 0.0
H2648 H 0.72246 0.23929 0.35351 0.0
H2649 H 0.67622 0.24665 0.37423 0.0
H2650 H 0.6168 0.24206 0.31783 0.0
H2651 H 0.63672 0.24778 0.33739 0.0
C2652 C 0.75941 0.6275 0.32041 0.0
C2653 C 0.74993 0.62862 0.30717 0.0
C2654 C 0.75653 0.63695 0.33335 0.0
C2655 C 0.75416 0.66809 0.35094 0.0
H2656 H 0.71226 0.67739 0.36452 0.0
C2657 C 0.73606 0.72767 0.37512 0.0
C2658 C 0.72479 0.72826 0.38687 0.0
C2659 C 0.74016 0.71346 0.36842 0.0
C2660 C 0.72407 0.6748 0.3611 0.0
H2661 H 0.72949 0.6396 0.29742 0.0
H2662 H 0.72437 0.65581 0.31992 0.0
H2663 H 0.71693 0.65492 0.34799 0.0
H2664 H 0.70934 0.71446 0.4012 0.0
H2665 H 0.71654 0.68969 0.38956 0.0
H2666 H 0.76123 0.68829 0.36367 0.0
C2667 C 0.73406 0.6478 0.32037 0.0
C2668 C 0.72672 0.66198 0.35156 0.0
C2669 C 0.73707 0.63862 0.30741 0.0
C2670 C 0.71796 0.71438 0.39205 0.0
C2671 C 0.72207 0.70019 0.38538 0.0
C2672 C 0.7515 0.68098 0.36046 0.0
C2673 C 0.74394 0.64735 0.33333 0.0
C2674 C 0.7417 0.65881 0.34596 0.0
C2675 C 0.73308 0.69958 0.37337 0.0
C2676 C 0.73635 0.68474 0.36523 0.0
H2677 H 0.76941 0.61987 0.32049 0.0
H2678 H 0.7643 0.63637 0.34324 0.0
H2679 H 0.76582 0.66596 0.34674 0.0
H2680 H 0.74153 0.73819 0.37092 0.0
H2681 H 0.74852 0.71341 0.35903 0.0
C2682 C 0.27491 0.7191 0.38353 0.0
C2683 C 0.25985 0.72417 0.37985 0.0
C2684 C 0.28776 0.72497 0.37553 0.0
C2685 C 0.29774 0.74363 0.33843 0.0
H2686 H 0.33669 0.75395 0.35863 0.0
C2687 C 0.34496 0.77375 0.3042 0.0
C2688 C 0.35979 0.76703 0.30485 0.0
C2689 C 0.33379 0.77003 0.31525 0.0
C2690 C 0.3259 0.75103 0.35286 0.0
H2691 H 0.24641 0.73961 0.36521 0.0
H2692 H 0.26876 0.74998 0.35138 0.0
H2693 H 0.31491 0.74412 0.37413 0.0
H2694 H 0.37498 0.75205 0.31817 0.0
H2695 H 0.35517 0.74522 0.3375 0.0
H2696 H 0.30857 0.75038 0.31723 0.0
C2697 C 0.27068 0.74126 0.36024 0.0
C2698 C 0.31346 0.74538 0.3617 0.0
C2699 C 0.25786 0.73536 0.36818 0.0
C2700 C 0.36361 0.75738 0.31743 0.0
C2701 C 0.35229 0.75349 0.32847 0.0
C2702 C 0.31008 0.74927 0.32967 0.0
C2703 C 0.28576 0.73604 0.3637 0.0
C2704 C 0.2992 0.74176 0.35456 0.0
C2705 C 0.33709 0.75932 0.32708 0.0
C2706 C 0.32424 0.7532 0.33677 0.0
H2707 H 0.27678 0.7105 0.39253 0.0
H2708 H 0.2992 0.72061 0.37837 0.0
H2709 H 0.28708 0.74056 0.33251 0.0
H2710 H 0.3418 0.78146 0.29477 0.0
H2711 H 0.32231 0.77505 0.31413 0.0
C2712 C 0.25015 0.26612 0.38312 0.0
C2713 C 0.26521 0.26517 0.38921 0.0
C2714 C 0.24464 0.2801 0.37706 0.0
C2715 C 0.25326 0.32263 0.37422 0.0
H2716 H 0.22818 0.31888 0.33703 0.0
C2717 C 0.24549 0.36919 0.32606 0.0
C2718 C 0.23112 0.36947 0.31841 0.0
C2719 C 0.24793 0.35886 0.33838 0.0
C2720 C 0.23492 0.32018 0.34758 0.0
H2721 H 0.28633 0.27802 0.39393 0.0
H2722 H 0.27704 0.30226 0.38262 0.0
H2723 H 0.23609 0.29569 0.35071 0.0
H2724 H 0.20771 0.36039 0.31814 0.0
H2725 H 0.21182 0.34263 0.33987 0.0
H2726 H 0.25269 0.34728 0.37033 0.0
C2727 C 0.26925 0.2924 0.38293 0.0
C2728 C 0.23946 0.30683 0.35548 0.0
C2729 C 0.27465 0.27846 0.38927 0.0
C2730 C 0.21884 0.36041 0.32403 0.0
C2731 C 0.22124 0.35018 0.33634 0.0
C2732 C 0.24886 0.33605 0.36614 0.0
C2733 C 0.2542 0.29337 0.37663 0.0
C2734 C 0.24877 0.30783 0.36886 0.0
C2735 C 0.23604 0.34868 0.34305 0.0
C2736 C 0.23968 0.33491 0.35271 0.0
H2737 H 0.24255 0.2561 0.38317 0.0
H2738 H 0.23286 0.28047 0.37268 0.0
H2739 H 0.26025 0.32387 0.3846 0.0
H2740 H 0.25516 0.37593 0.32167 0.0
H2741 H 0.25948 0.35789 0.34328 0.0
C2742 C 0.34391 0.22208 0.69014 0.0
C2743 C 0.35867 0.22882 0.68879 0.0
C2744 C 0.33289 0.22403 0.67846 0.0
C2745 C 0.3264 0.23818 0.6381 0.0
H2746 H 0.2851 0.24594 0.6543 0.0
C2747 C 0.27545 0.26564 0.60313 0.0
C2748 C 0.26073 0.25892 0.6053 0.0
C2749 C 0.28816 0.26059 0.61187 0.0
C2750 C 0.29652 0.24361 0.64957 0.0
H2751 H 0.37383 0.24226 0.6739 0.0
H2752 H 0.35428 0.24624 0.65359 0.0
H2753 H 0.30601 0.23967 0.67206 0.0
H2754 H 0.24788 0.24128 0.61783 0.0
H2755 H 0.27003 0.23256 0.63318 0.0
H2756 H 0.31673 0.24276 0.61556 0.0
C2757 C 0.35132 0.23916 0.66355 0.0
C2758 C 0.30854 0.23995 0.65974 0.0
C2759 C 0.3625 0.23693 0.67517 0.0
C2760 C 0.25905 0.24674 0.61598 0.0
C2761 C 0.27171 0.24178 0.62479 0.0
C2762 C 0.31433 0.24203 0.62789 0.0
C2763 C 0.33622 0.2331 0.6653 0.0
C2764 C 0.32361 0.23703 0.65417 0.0
C2765 C 0.28633 0.24883 0.62302 0.0
C2766 C 0.29925 0.24465 0.63355 0.0
H2767 H 0.34076 0.21554 0.70042 0.0
H2768 H 0.32158 0.21874 0.67998 0.0
H2769 H 0.33784 0.23595 0.6334 0.0
H2770 H 0.2771 0.27502 0.59491 0.0
H2771 H 0.29927 0.26629 0.61035 0.0
C2772 C 0.72421 0.27707 0.60055 0.0
C2773 C 0.73017 0.26221 0.60372 0.0
C2774 C 0.72976 0.29004 0.60862 0.0
C2775 C 0.7476 0.29924 0.64606 0.0
H2776 H 0.75433 0.3403 0.62878 0.0
C2777 C 0.7704 0.34711 0.68488 0.0
C2778 C 0.76249 0.36133 0.68438 0.0
C2779 C 0.76855 0.33626 0.67304 0.0
C2780 C 0.75242 0.32891 0.63375 0.0
H2781 H 0.74719 0.24936 0.6171 0.0
H2782 H 0.75698 0.27195 0.63101 0.0
H2783 H 0.74708 0.31872 0.6116 0.0
H2784 H 0.74724 0.37588 0.67066 0.0
H2785 H 0.74355 0.35657 0.64999 0.0
H2786 H 0.75252 0.30923 0.66814 0.0
C2787 C 0.74781 0.27357 0.62255 0.0
C2788 C 0.74827 0.31658 0.62394 0.0
C2789 C 0.74224 0.26064 0.61455 0.0
C2790 C 0.75346 0.36496 0.67128 0.0
C2791 C 0.75139 0.35393 0.65947 0.0
C2792 C 0.75168 0.31147 0.65579 0.0
C2793 C 0.74136 0.28835 0.61998 0.0
C2794 C 0.74593 0.30159 0.63002 0.0
C2795 C 0.75847 0.33924 0.66056 0.0
C2796 C 0.75427 0.32643 0.64979 0.0
H2797 H 0.71492 0.27861 0.59221 0.0
H2798 H 0.72451 0.30126 0.60645 0.0
H2799 H 0.74545 0.28796 0.65119 0.0
H2800 H 0.77766 0.34415 0.69473 0.0
H2801 H 0.77455 0.32525 0.674 0.0
C2802 C 0.2214 0.64068 0.67095 0.0
C2803 C 0.22911 0.62707 0.67543 0.0
C2804 C 0.2252 0.64805 0.65708 0.0
C2805 C 0.2591 0.65524 0.63407 0.0
H2806 H 0.22998 0.67998 0.61025 0.0
C2807 C 0.2554 0.72052 0.60968 0.0
C2808 C 0.26925 0.7221 0.60128 0.0
C2809 C 0.25033 0.7059 0.61445 0.0
C2810 C 0.23827 0.67306 0.6167 0.0
H2811 H 0.24621 0.60993 0.6687 0.0
H2812 H 0.25323 0.62314 0.64436 0.0
H2813 H 0.22053 0.6581 0.6256 0.0
H2814 H 0.2887 0.70965 0.59122 0.0
H2815 H 0.27993 0.684 0.59988 0.0
H2816 H 0.27672 0.67078 0.62589 0.0
C2817 C 0.24411 0.62796 0.65154 0.0
C2818 C 0.23287 0.66051 0.62542 0.0
C2819 C 0.24006 0.62038 0.66538 0.0
C2820 C 0.27797 0.70876 0.59772 0.0
C2821 C 0.27297 0.6941 0.60265 0.0
C2822 C 0.26451 0.66779 0.6253 0.0
C2823 C 0.23699 0.6421 0.6475 0.0
C2824 C 0.24312 0.652 0.63483 0.0
C2825 C 0.25906 0.69254 0.61102 0.0
C2826 C 0.25401 0.67728 0.61719 0.0
H2827 H 0.21292 0.64603 0.67854 0.0
H2828 H 0.21964 0.65902 0.65444 0.0
H2829 H 0.26727 0.64895 0.64127 0.0
H2830 H 0.24843 0.73058 0.61257 0.0
H2831 H 0.23972 0.7051 0.62116 0.0
C2832 C 0.17142 0.38527 0.27841 0.0
C2833 C 0.18133 0.3933 0.26835 0.0
C2834 C 0.15613 0.38216 0.27403 0.0
C2835 C 0.13687 0.37354 0.23752 0.0
H2836 H 0.10513 0.35907 0.26592 0.0
C2837 C 0.1013 0.32025 0.22188 0.0
C2838 C 0.10442 0.30877 0.23305 0.0
C2839 C 0.10365 0.33596 0.22545 0.0
C2840 C 0.11371 0.36327 0.25773 0.0
H2841 H 0.183 0.40558 0.24653 0.0
H2842 H 0.15605 0.40056 0.23894 0.0
H2843 H 0.12311 0.37939 0.27417 0.0
H2844 H 0.11074 0.30467 0.25704 0.0
H2845 H 0.11465 0.33187 0.26331 0.0
H2846 H 0.12819 0.35673 0.22148 0.0
C2847 C 0.16006 0.39645 0.25013 0.0
C2848 C 0.12406 0.37486 0.26247 0.0
C2849 C 0.17542 0.39947 0.2545 0.0
C2850 C 0.10842 0.3133 0.24818 0.0
C2851 C 0.11049 0.32893 0.25181 0.0
C2852 C 0.12647 0.36205 0.23275 0.0
C2853 C 0.15052 0.38695 0.25942 0.0
C2854 C 0.13646 0.37931 0.25281 0.0
C2855 C 0.10884 0.34039 0.24031 0.0
C2856 C 0.11549 0.35604 0.2432 0.0
H2857 H 0.17588 0.38023 0.28905 0.0
H2858 H 0.14929 0.37467 0.28146 0.0
H2859 H 0.14622 0.3766 0.2297 0.0
H2860 H 0.09819 0.31703 0.21012 0.0
H2861 H 0.10225 0.34456 0.21637 0.0
C2862 C 0.67507 0.09889 0.24519 0.0
C2863 C 0.67964 0.10332 0.23022 0.0
C2864 C 0.6596 0.1005 0.24981 0.0
C2865 C 0.62048 0.11482 0.23629 0.0
H2866 H 0.62285 0.13789 0.27485 0.0
C2867 C 0.59594 0.17432 0.24446 0.0
C2868 C 0.59384 0.18052 0.25939 0.0
C2869 C 0.59915 0.15858 0.24248 0.0
C2870 C 0.62162 0.13113 0.26431 0.0
H2871 H 0.67182 0.11188 0.20798 0.0
H2872 H 0.64497 0.11539 0.21609 0.0
H2873 H 0.64354 0.12044 0.26803 0.0
H2874 H 0.59129 0.17481 0.28376 0.0
H2875 H 0.59696 0.14718 0.28032 0.0
H2876 H 0.59904 0.12674 0.23211 0.0
C2877 C 0.65301 0.11017 0.22423 0.0
C2878 C 0.63361 0.12102 0.26033 0.0
C2879 C 0.66843 0.10826 0.21954 0.0
C2880 C 0.59303 0.17036 0.27212 0.0
C2881 C 0.59634 0.15455 0.27015 0.0
C2882 C 0.60847 0.12502 0.24026 0.0
C2883 C 0.64856 0.10706 0.23968 0.0
C2884 C 0.6337 0.1135 0.24582 0.0
C2885 C 0.60044 0.14872 0.25542 0.0
C2886 C 0.60944 0.13406 0.25385 0.0
H2887 H 0.68362 0.09504 0.25357 0.0
H2888 H 0.65654 0.09761 0.26166 0.0
H2889 H 0.61992 0.10884 0.22524 0.0
H2890 H 0.59636 0.18186 0.2344 0.0
H2891 H 0.60222 0.1546 0.23096 0.0
C2892 C 0.81119 0.61164 0.2429 0.0
C2893 C 0.80638 0.60684 0.25772 0.0
C2894 C 0.82683 0.61445 0.23986 0.0
C2895 C 0.85904 0.63069 0.25993 0.0
H2896 H 0.87888 0.6264 0.21976 0.0
C2897 C 0.89785 0.67906 0.24029 0.0
C2898 C 0.89354 0.68446 0.22556 0.0
C2899 C 0.89448 0.66381 0.2447 0.0
C2900 C 0.87358 0.62768 0.23109 0.0
H2901 H 0.81424 0.6002 0.2807 0.0
H2902 H 0.84171 0.60566 0.27549 0.0
H2903 H 0.85776 0.60889 0.22695 0.0
H2904 H 0.88354 0.67816 0.20343 0.0
H2905 H 0.87692 0.65188 0.21118 0.0
H2906 H 0.87348 0.65035 0.26361 0.0
C2907 C 0.83332 0.60705 0.26621 0.0
C2908 C 0.86157 0.61757 0.23523 0.0
C2909 C 0.81764 0.60396 0.26918 0.0
C2910 C 0.88711 0.67411 0.2148 0.0
C2911 C 0.88338 0.65898 0.2193 0.0
C2912 C 0.87085 0.64093 0.25572 0.0
C2913 C 0.83799 0.61274 0.25164 0.0
C2914 C 0.85361 0.61958 0.24933 0.0
C2915 C 0.88617 0.65393 0.23464 0.0
C2916 C 0.87763 0.64018 0.24084 0.0
H2917 H 0.80279 0.61377 0.23379 0.0
H2918 H 0.83001 0.61902 0.22858 0.0
H2919 H 0.8531 0.63257 0.27086 0.0
H2920 H 0.90284 0.68694 0.24874 0.0
H2921 H 0.89728 0.66021 0.25641 0.0
C2922 C 0.39289 0.82524 0.27431 0.0
C2923 C 0.3983 0.81564 0.26236 0.0
C2924 C 0.38929 0.84077 0.27126 0.0
C2925 C 0.37532 0.86161 0.2368 0.0
H2926 H 0.363 0.89117 0.2684 0.0
C2927 C 0.32161 0.89811 0.22701 0.0
C2928 C 0.31066 0.89454 0.23859 0.0
C2929 C 0.33743 0.89546 0.2296 0.0
C2930 C 0.36656 0.88318 0.25935 0.0
H2931 H 0.40642 0.81496 0.23862 0.0
H2932 H 0.40136 0.84236 0.23356 0.0
H2933 H 0.38432 0.87321 0.27359 0.0
H2934 H 0.30786 0.88713 0.2625 0.0
H2935 H 0.3353 0.88246 0.26696 0.0
H2936 H 0.35719 0.87106 0.22285 0.0
C2937 C 0.39899 0.83785 0.24505 0.0
C2938 C 0.3787 0.8728 0.26235 0.0
C2939 C 0.4021 0.8222 0.24796 0.0
C2940 C 0.31597 0.88976 0.25326 0.0
C2941 C 0.33176 0.88726 0.25588 0.0
C2942 C 0.36339 0.87211 0.23375 0.0
C2943 C 0.39133 0.84699 0.25624 0.0
C2944 C 0.38253 0.86117 0.25149 0.0
C2945 C 0.34258 0.88938 0.24386 0.0
C2946 C 0.35823 0.88233 0.24534 0.0
H2947 H 0.3898 0.82035 0.28549 0.0
H2948 H 0.38344 0.84728 0.28027 0.0
H2949 H 0.37771 0.8529 0.22807 0.0
H2950 H 0.3179 0.90193 0.21562 0.0
H2951 H 0.34553 0.89729 0.22016 0.0
C2952 C 0.10465 0.68453 0.74764 0.0
C2953 C 0.10118 0.68873 0.76299 0.0
C2954 C 0.10635 0.66898 0.74357 0.0
C2955 C 0.12194 0.63491 0.7616 0.0
H2956 H 0.11937 0.62021 0.71912 0.0
C2957 C 0.17122 0.59898 0.73764 0.0
C2958 C 0.17771 0.6072 0.72518 0.0
C2959 C 0.15575 0.60159 0.74193 0.0
C2960 C 0.11999 0.62391 0.73113 0.0
H2961 H 0.09537 0.67996 0.78585 0.0
H2962 H 0.09869 0.65256 0.77877 0.0
H2963 H 0.10101 0.63973 0.72835 0.0
H2964 H 0.17322 0.62354 0.70668 0.0
H2965 H 0.14633 0.62808 0.71397 0.0
H2966 H 0.1417 0.62017 0.76404 0.0
C2967 C 0.10006 0.66136 0.76989 0.0
C2968 C 0.10949 0.63509 0.73642 0.0
C2969 C 0.09814 0.67702 0.77393 0.0
C2970 C 0.16831 0.61699 0.71624 0.0
C2971 C 0.15288 0.61949 0.7204 0.0
C2972 C 0.13242 0.62371 0.75633 0.0
C2973 C 0.1048 0.65723 0.7548 0.0
C2974 C 0.11115 0.64157 0.75133 0.0
C2975 C 0.14664 0.61243 0.73376 0.0
C2976 C 0.13228 0.619 0.74069 0.0
H2977 H 0.10685 0.69332 0.73892 0.0
H2978 H 0.11017 0.66631 0.73188 0.0
H2979 H 0.12355 0.63958 0.77317 0.0
H2980 H 0.1784 0.59148 0.74474 0.0
H2981 H 0.15126 0.59595 0.75223 0.0
C2982 C 0.39259 0.17229 0.72534 0.0
C2983 C 0.3959 0.18358 0.73659 0.0
C2984 C 0.38968 0.15695 0.7298 0.0
C2985 C 0.37361 0.13816 0.76452 0.0
H2986 H 0.36989 0.10363 0.73591 0.0
C2987 C 0.32338 0.09728 0.77214 0.0
C2988 C 0.31412 0.09817 0.75873 0.0
C2989 C 0.33922 0.10088 0.77138 0.0
C2990 C 0.37104 0.11304 0.74417 0.0
H2991 H 0.4009 0.18752 0.76089 0.0
H2992 H 0.39688 0.16058 0.76861 0.0
H2993 H 0.38903 0.12396 0.73094 0.0
H2994 H 0.31449 0.10131 0.73376 0.0
H2995 H 0.34188 0.10763 0.73242 0.0
H2996 H 0.35514 0.1278 0.77729 0.0
C2997 C 0.39567 0.16358 0.75646 0.0
C2998 C 0.38193 0.12477 0.74128 0.0
C2999 C 0.39812 0.179 0.75205 0.0
C3000 C 0.3213 0.1008 0.74433 0.0
C3001 C 0.3371 0.10426 0.74355 0.0
C3002 C 0.36288 0.1264 0.76748 0.0
C3003 C 0.39034 0.15259 0.74558 0.0
C3004 C 0.38265 0.13798 0.7509 0.0
C3005 C 0.34602 0.1053 0.75718 0.0
C3006 C 0.36079 0.11423 0.75683 0.0
H3007 H 0.39079 0.1756 0.71333 0.0
H3008 H 0.38557 0.14894 0.72102 0.0
H3009 H 0.37362 0.14808 0.77224 0.0
H3010 H 0.31818 0.09516 0.7834 0.0
H3011 H 0.34586 0.10136 0.78205 0.0
C3012 C 0.81247 0.39949 0.74715 0.0
C3013 C 0.80694 0.39697 0.73205 0.0
C3014 C 0.82777 0.39571 0.75099 0.0
C3015 C 0.86364 0.37616 0.73474 0.0
H3016 H 0.85966 0.35249 0.77282 0.0
C3017 C 0.88113 0.31311 0.74208 0.0
C3018 C 0.88655 0.30761 0.75645 0.0
C3019 C 0.87779 0.32882 0.74003 0.0
C3020 C 0.86126 0.35929 0.76235 0.0
H3021 H 0.81319 0.39 0.70876 0.0
H3022 H 0.83947 0.3825 0.71549 0.0
H3023 H 0.8416 0.37319 0.76756 0.0
H3024 H 0.89369 0.3144 0.77963 0.0
H3025 H 0.8873 0.34192 0.77617 0.0
H3026 H 0.88244 0.36085 0.72901 0.0
C3027 C 0.83244 0.38785 0.72441 0.0
C3028 C 0.85086 0.37132 0.75929 0.0
C3029 C 0.81728 0.39212 0.72048 0.0
C3030 C 0.88949 0.31831 0.76844 0.0
C3031 C 0.88586 0.33404 0.76647 0.0
C3032 C 0.87388 0.3639 0.73771 0.0
C3033 C 0.83757 0.38865 0.73995 0.0
C3034 C 0.85134 0.37938 0.74504 0.0
C3035 C 0.87956 0.33934 0.75237 0.0
C3036 C 0.87225 0.35487 0.7512 0.0
H3037 H 0.80466 0.40334 0.75622 0.0
H3038 H 0.83145 0.39714 0.76293 0.0
H3039 H 0.86476 0.38242 0.7239 0.0
H3040 H 0.87892 0.30516 0.73258 0.0
H3041 H 0.87278 0.33252 0.72909 0.0
C3042 C 0.67247 0.89447 0.76731 0.0
C3043 C 0.68419 0.89121 0.75644 0.0
C3044 C 0.65681 0.89278 0.76318 0.0
C3045 C 0.63073 0.88298 0.72952 0.0
H3046 H 0.61502 0.85183 0.75788 0.0
C3047 C 0.61348 0.82317 0.71173 0.0
C3048 C 0.60343 0.81422 0.72083 0.0
C3049 C 0.61562 0.83889 0.715 0.0
C3050 C 0.61879 0.86082 0.74994 0.0
H3051 H 0.68881 0.88545 0.73239 0.0
H3052 H 0.66183 0.88243 0.72523 0.0
H3053 H 0.63444 0.87006 0.76677 0.0
H3054 H 0.58684 0.81459 0.73966 0.0
H3055 H 0.59072 0.8422 0.74562 0.0
H3056 H 0.61614 0.87257 0.71225 0.0
C3057 C 0.66446 0.88628 0.73692 0.0
C3058 C 0.63 0.87136 0.75507 0.0
C3059 C 0.68001 0.88779 0.74107 0.0
C3060 C 0.59452 0.82142 0.7324 0.0
C3061 C 0.5968 0.83715 0.73584 0.0
C3062 C 0.61958 0.87236 0.72435 0.0
C3063 C 0.65268 0.888 0.74808 0.0
C3064 C 0.63696 0.88174 0.74458 0.0
C3065 C 0.60797 0.84584 0.72767 0.0
C3066 C 0.61439 0.86045 0.73422 0.0
H3067 H 0.6754 0.89723 0.77923 0.0
H3068 H 0.64799 0.89432 0.77201 0.0
H3069 H 0.63556 0.89116 0.72127 0.0
H3070 H 0.62059 0.81774 0.70287 0.0
H3071 H 0.62446 0.84514 0.70859 0.0
C3072 C 0.27043 0.17127 0.39763 0.0
C3073 C 0.25878 0.18239 0.39506 0.0
C3074 C 0.26725 0.15546 0.39536 0.0
C3075 C 0.2354 0.12752 0.38479 0.0
H3076 H 0.26415 0.11578 0.35229 0.0
C3077 C 0.21639 0.10718 0.32569 0.0
C3078 C 0.22685 0.09954 0.31589 0.0
C3079 C 0.22027 0.10991 0.34121 0.0
C3080 C 0.25612 0.11841 0.36161 0.0
H3081 H 0.23436 0.18571 0.39008 0.0
H3082 H 0.22882 0.15842 0.38612 0.0
H3083 H 0.27174 0.13513 0.37107 0.0
H3084 H 0.24882 0.08747 0.31462 0.0
H3085 H 0.2555 0.09179 0.3419 0.0
H3086 H 0.21933 0.11155 0.37447 0.0
C3087 C 0.2404 0.16166 0.38982 0.0
C3088 C 0.26053 0.12959 0.37247 0.0
C3089 C 0.2436 0.17738 0.39191 0.0
C3090 C 0.24056 0.09333 0.32208 0.0
C3091 C 0.24441 0.09592 0.33765 0.0
C3092 C 0.23098 0.11628 0.37391 0.0
C3093 C 0.25235 0.15058 0.39067 0.0
C3094 C 0.24983 0.13507 0.38349 0.0
C3095 C 0.23475 0.10508 0.34714 0.0
C3096 C 0.24092 0.1124 0.36155 0.0
H3097 H 0.28223 0.17483 0.40014 0.0
H3098 H 0.27667 0.14717 0.39626 0.0
H3099 H 0.22702 0.13122 0.39341 0.0
H3100 H 0.20585 0.11222 0.32102 0.0
H3101 H 0.21258 0.11712 0.34804 0.0
C3102 C 0.89055 0.24925 0.32116 0.0
C3103 C 0.89342 0.23463 0.31455 0.0
C3104 C 0.88828 0.25076 0.33711 0.0
C3105 C 0.86945 0.22792 0.36604 0.0
H3106 H 0.87297 0.26635 0.38923 0.0
C3107 C 0.81797 0.24617 0.4007 0.0
C3108 C 0.81333 0.26122 0.39661 0.0
C3109 C 0.83346 0.24166 0.39902 0.0
C3110 C 0.87191 0.25547 0.38301 0.0
H3111 H 0.89779 0.21036 0.31957 0.0
H3112 H 0.89348 0.21294 0.34759 0.0
H3113 H 0.8921 0.26019 0.36924 0.0
H3114 H 0.82113 0.2838 0.38896 0.0
H3115 H 0.84793 0.27587 0.38515 0.0
H3116 H 0.84857 0.22375 0.37844 0.0
C3117 C 0.893 0.22323 0.34038 0.0
C3118 C 0.88294 0.2519 0.37163 0.0
C3119 C 0.89547 0.22176 0.32437 0.0
C3120 C 0.82455 0.27215 0.39227 0.0
C3121 C 0.83997 0.26754 0.39017 0.0
C3122 C 0.85837 0.23153 0.37727 0.0
C3123 C 0.88864 0.23763 0.3468 0.0
C3124 C 0.88118 0.2386 0.36231 0.0
C3125 C 0.84441 0.25195 0.39257 0.0
C3126 C 0.85884 0.24588 0.38514 0.0
H3127 H 0.88915 0.25942 0.31389 0.0
H3128 H 0.88484 0.262 0.34157 0.0
H3129 H 0.8677 0.21757 0.3591 0.0
H3130 H 0.80944 0.2376 0.40416 0.0
H3131 H 0.83652 0.22973 0.40153 0.0
C3132 C 0.77372 0.89766 0.32437 0.0
C3133 C 0.7613 0.89598 0.31393 0.0
C3134 C 0.77148 0.8947 0.34021 0.0
C3135 C 0.74154 0.88229 0.36942 0.0
H3136 H 0.7697 0.84765 0.37458 0.0
C3137 C 0.74691 0.81579 0.39572 0.0
C3138 C 0.73179 0.81127 0.39179 0.0
C3139 C 0.75152 0.83126 0.39404 0.0
C3140 C 0.76188 0.85746 0.37387 0.0
H3141 H 0.73651 0.89224 0.31197 0.0
H3142 H 0.7326 0.88707 0.33934 0.0
H3143 H 0.77644 0.86829 0.3571 0.0
H3144 H 0.70928 0.8192 0.38406 0.0
H3145 H 0.71743 0.84597 0.38014 0.0
H3146 H 0.72655 0.87086 0.38562 0.0
C3147 C 0.74407 0.89055 0.33554 0.0
C3148 C 0.76582 0.86943 0.36373 0.0
C3149 C 0.74633 0.89334 0.31977 0.0
C3150 C 0.721 0.82253 0.38723 0.0
C3151 C 0.72571 0.83793 0.38511 0.0
C3152 C 0.73764 0.87034 0.37973 0.0
C3153 C 0.75679 0.89015 0.34577 0.0
C3154 C 0.75523 0.88141 0.36056 0.0
C3155 C 0.74126 0.84234 0.38777 0.0
C3156 C 0.74729 0.85723 0.38124 0.0
H3157 H 0.78537 0.89981 0.32016 0.0
H3158 H 0.78146 0.8947 0.34786 0.0
H3159 H 0.73327 0.89157 0.36746 0.0
H3160 H 0.75536 0.80722 0.3994 0.0
H3161 H 0.76343 0.83427 0.39671 0.0
C3162 C 0.16701 0.71223 0.37655 0.0
C3163 C 0.17686 0.71803 0.38812 0.0
C3164 C 0.15211 0.71826 0.37474 0.0
C3165 C 0.13705 0.75679 0.37747 0.0
H3166 H 0.10573 0.73777 0.35132 0.0
C3167 C 0.12657 0.77478 0.31641 0.0
C3168 C 0.11204 0.77344 0.30921 0.0
C3169 C 0.12829 0.77125 0.33209 0.0
C3170 C 0.11401 0.74342 0.35894 0.0
H3171 H 0.17853 0.73332 0.40798 0.0
H3172 H 0.15236 0.74409 0.40477 0.0
H3173 H 0.11913 0.72214 0.37073 0.0
H3174 H 0.0877 0.76819 0.31281 0.0
H3175 H 0.09086 0.76137 0.34038 0.0
H3176 H 0.1328 0.77774 0.36482 0.0
C3177 C 0.15611 0.73486 0.3971 0.0
C3178 C 0.12178 0.73442 0.37001 0.0
C3179 C 0.17103 0.72865 0.39901 0.0
C3180 C 0.09903 0.76934 0.31817 0.0
C3181 C 0.10082 0.76544 0.33389 0.0
C3182 C 0.12926 0.76578 0.36647 0.0
C3183 C 0.14689 0.73044 0.38431 0.0
C3184 C 0.13431 0.74071 0.37842 0.0
C3185 C 0.11557 0.76602 0.34089 0.0
C3186 C 0.11861 0.75884 0.35624 0.0
H3187 H 0.17134 0.70406 0.36801 0.0
H3188 H 0.14548 0.71458 0.3647 0.0
H3189 H 0.14653 0.76212 0.3838 0.0
H3190 H 0.13675 0.77799 0.30976 0.0
H3191 H 0.13986 0.77158 0.33703 0.0
C3192 C 0.24522 0.80962 0.60712 0.0
C3193 C 0.2602 0.80504 0.60259 0.0
C3194 C 0.24176 0.82527 0.60943 0.0
C3195 C 0.26141 0.85831 0.62485 0.0
H3196 H 0.22055 0.87685 0.62147 0.0
C3197 C 0.24206 0.89711 0.67332 0.0
C3198 C 0.22778 0.89212 0.6793 0.0
C3199 C 0.24604 0.89383 0.65792 0.0
C3200 C 0.23208 0.87194 0.62248 0.0
H3201 H 0.28295 0.8133 0.59571 0.0
H3202 H 0.27699 0.84078 0.60019 0.0
H3203 H 0.22787 0.8557 0.60406 0.0
H3204 H 0.20594 0.88105 0.67386 0.0
H3205 H 0.21291 0.87479 0.64731 0.0
H3206 H 0.26524 0.87322 0.64415 0.0
C3207 C 0.26792 0.83221 0.60183 0.0
C3208 C 0.23628 0.85988 0.61243 0.0
C3209 C 0.27132 0.81651 0.59927 0.0
C3210 C 0.21694 0.88519 0.66936 0.0
C3211 C 0.221 0.88164 0.65407 0.0
C3212 C 0.25716 0.87019 0.63501 0.0
C3213 C 0.25326 0.83668 0.60748 0.0
C3214 C 0.25066 0.85236 0.61414 0.0
C3215 C 0.236 0.88501 0.64845 0.0
C3216 C 0.24207 0.8765 0.63461 0.0
H3217 H 0.23636 0.80104 0.60959 0.0
H3218 H 0.23041 0.82827 0.61394 0.0
H3219 H 0.27257 0.85274 0.62651 0.0
H3220 H 0.25061 0.9024 0.68089 0.0
H3221 H 0.2575 0.89705 0.65389 0.0
C3222 C 0.17154 0.24501 0.59164 0.0
C3223 C 0.17812 0.25945 0.59528 0.0
C3224 C 0.15594 0.24206 0.59492 0.0
C3225 C 0.12089 0.25938 0.61489 0.0
H3226 H 0.12288 0.22034 0.63717 0.0
C3227 C 0.1038 0.25174 0.67759 0.0
C3228 C 0.09974 0.23706 0.68344 0.0
C3229 C 0.10598 0.25394 0.6617 0.0
C3230 C 0.12174 0.23109 0.63075 0.0
H3231 H 0.17343 0.28263 0.60369 0.0
H3232 H 0.14653 0.27737 0.6103 0.0
H3233 H 0.14114 0.22537 0.61669 0.0
H3234 H 0.09314 0.2136 0.67709 0.0
H3235 H 0.09717 0.21741 0.64922 0.0
H3236 H 0.10227 0.2655 0.63025 0.0
C3237 C 0.15304 0.26834 0.60446 0.0
C3238 C 0.1323 0.23403 0.61885 0.0
C3239 C 0.16854 0.27141 0.60073 0.0
C3240 C 0.09641 0.22501 0.67294 0.0
C3241 C 0.09874 0.22718 0.65699 0.0
C3242 C 0.11039 0.25648 0.62697 0.0
C3243 C 0.14683 0.2533 0.60255 0.0
C3244 C 0.13266 0.24859 0.61138 0.0
C3245 C 0.10428 0.24148 0.6513 0.0
C3246 C 0.11134 0.24266 0.6356 0.0
H3247 H 0.17875 0.23565 0.5873 0.0
H3248 H 0.15143 0.23053 0.59269 0.0
H3249 H 0.12045 0.27052 0.60908 0.0
H3250 H 0.10621 0.26133 0.68538 0.0
H3251 H 0.11033 0.26507 0.65778 0.0
C3252 C 0.77213 0.12569 0.67908 0.0
C3253 C 0.77007 0.1113 0.68638 0.0
C3254 C 0.76796 0.12766 0.66358 0.0
C3255 C 0.73757 0.11615 0.63867 0.0
H3256 H 0.75824 0.14546 0.61149 0.0
C3257 C 0.72614 0.17195 0.59567 0.0
C3258 C 0.71747 0.18004 0.60684 0.0
C3259 C 0.73095 0.15668 0.59861 0.0
C3260 C 0.75232 0.13687 0.61852 0.0
H3261 H 0.76281 0.08743 0.68315 0.0
H3262 H 0.75479 0.09109 0.65596 0.0
H3263 H 0.77339 0.13063 0.63013 0.0
H3264 H 0.70553 0.17832 0.62883 0.0
H3265 H 0.7135 0.15175 0.63386 0.0
H3266 H 0.71631 0.12355 0.6281 0.0
C3267 C 0.75997 0.1007 0.6622 0.0
C3268 C 0.76103 0.12845 0.62928 0.0
C3269 C 0.76455 0.09863 0.67769 0.0
C3270 C 0.71217 0.17221 0.62006 0.0
C3271 C 0.71669 0.15694 0.62286 0.0
C3272 C 0.72884 0.12464 0.62794 0.0
C3273 C 0.76132 0.11536 0.65514 0.0
C3274 C 0.75358 0.11892 0.64021 0.0
C3275 C 0.72694 0.14934 0.61265 0.0
C3276 C 0.73601 0.13597 0.61862 0.0
H3277 H 0.77642 0.13561 0.68555 0.0
H3278 H 0.76891 0.13915 0.65855 0.0
H3279 H 0.73153 0.10883 0.64692 0.0
H3280 H 0.73044 0.17787 0.58544 0.0
H3281 H 0.7388 0.15109 0.59053 0.0
C3282 C 0.81115 0.75188 0.59684 0.0
C3283 C 0.80677 0.73633 0.59881 0.0
C3284 C 0.82653 0.75643 0.59931 0.0
C3285 C 0.86554 0.74129 0.61275 0.0
H3286 H 0.86328 0.77809 0.63854 0.0
C3287 C 0.88888 0.74613 0.67344 0.0
C3288 C 0.89227 0.76071 0.67991 0.0
C3289 C 0.8856 0.74472 0.65765 0.0
C3290 C 0.86444 0.76804 0.63106 0.0
H3291 H 0.81498 0.71312 0.60372 0.0
H3292 H 0.8415 0.72106 0.60913 0.0
H3293 H 0.8427 0.77273 0.62049 0.0
H3294 H 0.89669 0.78493 0.67472 0.0
H3295 H 0.89062 0.78252 0.64703 0.0
H3296 H 0.88668 0.73596 0.62481 0.0
C3297 C 0.83343 0.7298 0.6051 0.0
C3298 C 0.85252 0.7649 0.62057 0.0
C3299 C 0.81815 0.72519 0.60211 0.0
C3300 C 0.89403 0.77356 0.67003 0.0
C3301 C 0.89053 0.77219 0.6542 0.0
C3302 C 0.87739 0.74433 0.62347 0.0
C3303 C 0.83767 0.74562 0.60449 0.0
C3304 C 0.85241 0.75101 0.61191 0.0
C3305 C 0.88542 0.75791 0.64806 0.0
C3306 C 0.87647 0.7573 0.63334 0.0
H3307 H 0.80254 0.76062 0.59407 0.0
H3308 H 0.8294 0.76861 0.5981 0.0
H3309 H 0.8662 0.73076 0.6059 0.0
H3310 H 0.88764 0.736 0.68081 0.0
H3311 H 0.88166 0.73357 0.65336 0.0
C3312 C 0.31813 0.22328 0.10199 0.0
C3313 C 0.30742 0.23476 0.09772 0.0
C3314 C 0.33338 0.22738 0.10579 0.0
C3315 C 0.35252 0.26206 0.12192 0.0
H3316 H 0.38577 0.23247 0.1284 0.0
C3317 C 0.39318 0.27102 0.17258 0.0
C3318 C 0.39148 0.25836 0.18273 0.0
C3319 C 0.38946 0.26941 0.15682 0.0
C3320 C 0.37672 0.24099 0.12647 0.0
H3321 H 0.30452 0.25904 0.09203 0.0
H3322 H 0.33137 0.26609 0.09755 0.0
H3323 H 0.36616 0.22738 0.10854 0.0
H3324 H 0.38655 0.23372 0.18409 0.0
H3325 H 0.38015 0.23089 0.15677 0.0
H3326 H 0.36262 0.27531 0.14025 0.0
C3327 C 0.32794 0.25407 0.09885 0.0
C3328 C 0.36539 0.23803 0.11518 0.0
C3329 C 0.31258 0.25004 0.09552 0.0
C3330 C 0.38775 0.24372 0.17656 0.0
C3331 C 0.38424 0.24207 0.16084 0.0
C3332 C 0.36392 0.2651 0.13301 0.0
C3333 C 0.33825 0.24301 0.10508 0.0
C3334 C 0.35261 0.24807 0.11342 0.0
C3335 C 0.3842 0.25507 0.15098 0.0
C3336 C 0.37562 0.25418 0.13604 0.0
H3337 H 0.31436 0.21141 0.10382 0.0
H3338 H 0.34083 0.21847 0.11057 0.0
H3339 H 0.3429 0.2701 0.12115 0.0
H3340 H 0.39609 0.28243 0.17702 0.0
H3341 H 0.38966 0.2796 0.14945 0.0
C3342 C 0.38734 0.72393 0.81712 0.0
C3343 C 0.39157 0.73591 0.80697 0.0
C3344 C 0.38342 0.72731 0.83252 0.0
C3345 C 0.37483 0.73643 0.86528 0.0
H3346 H 0.34939 0.77353 0.86494 0.0
C3347 C 0.31884 0.76827 0.89686 0.0
C3348 C 0.30871 0.75553 0.89562 0.0
C3349 C 0.33436 0.76684 0.89228 0.0
C3350 C 0.35675 0.76335 0.86556 0.0
H3351 H 0.39693 0.76039 0.80514 0.0
H3352 H 0.39114 0.76619 0.83223 0.0
H3353 H 0.3676 0.76923 0.84424 0.0
H3354 H 0.30735 0.73086 0.89067 0.0
H3355 H 0.33421 0.72841 0.8826 0.0
H3356 H 0.36267 0.73005 0.88606 0.0
C3357 C 0.38999 0.75432 0.82826 0.0
C3358 C 0.36731 0.76084 0.85358 0.0
C3359 C 0.39343 0.75101 0.81277 0.0
C3360 C 0.3148 0.74097 0.89148 0.0
C3361 C 0.3303 0.73952 0.88701 0.0
C3362 C 0.36407 0.73888 0.87721 0.0
C3363 C 0.384 0.74271 0.83809 0.0
C3364 C 0.37597 0.74698 0.85284 0.0
C3365 C 0.34 0.75262 0.88651 0.0
C3366 C 0.35439 0.75203 0.87704 0.0
H3367 H 0.38581 0.71219 0.81285 0.0
H3368 H 0.37879 0.71802 0.8396 0.0
H3369 H 0.3816 0.72584 0.86536 0.0
H3370 H 0.31454 0.77962 0.90016 0.0
H3371 H 0.34165 0.77709 0.89221 0.0
C3372 C 0.21957 0.32451 0.89778 0.0
C3373 C 0.23195 0.31411 0.89575 0.0
C3374 C 0.2219 0.34047 0.89552 0.0
C3375 C 0.25218 0.3701 0.885 0.0
H3376 H 0.22454 0.3773 0.85028 0.0
C3377 C 0.27358 0.38845 0.82606 0.0
C3378 C 0.263 0.3935 0.8148 0.0
C3379 C 0.2688 0.3866 0.84146 0.0
C3380 C 0.23221 0.37602 0.86016 0.0
H3381 H 0.25672 0.31219 0.89196 0.0
H3382 H 0.26082 0.33977 0.88811 0.0
H3383 H 0.2173 0.3589 0.86997 0.0
H3384 H 0.23985 0.40228 0.81078 0.0
H3385 H 0.23168 0.39998 0.83784 0.0
H3386 H 0.26756 0.38657 0.87451 0.0
C3387 C 0.24932 0.33587 0.89135 0.0
C3388 C 0.22799 0.36534 0.87157 0.0
C3389 C 0.24696 0.31999 0.8934 0.0
C3390 C 0.24816 0.39833 0.81936 0.0
C3391 C 0.24347 0.39684 0.83482 0.0
C3392 C 0.25637 0.38091 0.87361 0.0
C3393 C 0.23666 0.34617 0.89137 0.0
C3394 C 0.23841 0.36143 0.88348 0.0
C3395 C 0.25337 0.38993 0.84585 0.0
C3396 C 0.24693 0.38314 0.86044 0.0
H3397 H 0.20789 0.32024 0.89963 0.0
H3398 H 0.21195 0.34815 0.89578 0.0
H3399 H 0.26031 0.36757 0.89426 0.0
H3400 H 0.28505 0.38453 0.82269 0.0
H3401 H 0.2768 0.38116 0.84948 0.0
C3402 C 0.59848 0.26889 0.81867 0.0
C3403 C 0.60114 0.25706 0.80774 0.0
C3404 C 0.60228 0.26658 0.83431 0.0
C3405 C 0.61608 0.23744 0.86321 0.0
H3406 H 0.64867 0.26756 0.87047 0.0
C3407 C 0.67468 0.22047 0.8876 0.0
C3408 C 0.68512 0.232 0.89232 0.0
C3409 C 0.65935 0.22435 0.88395 0.0
C3410 C 0.63938 0.2592 0.86918 0.0
H3411 H 0.60806 0.23304 0.80481 0.0
H3412 H 0.61455 0.22898 0.83199 0.0
H3413 H 0.62904 0.27289 0.85131 0.0
H3414 H 0.68763 0.25614 0.89873 0.0
H3415 H 0.66058 0.2628 0.89355 0.0
H3416 H 0.62677 0.22348 0.88075 0.0
C3417 C 0.60964 0.24005 0.82858 0.0
C3418 C 0.62805 0.26231 0.85805 0.0
C3419 C 0.60609 0.24243 0.81296 0.0
C3420 C 0.6797 0.2471 0.89501 0.0
C3421 C 0.66425 0.2509 0.89184 0.0
C3422 C 0.62728 0.23443 0.8746 0.0
C3423 C 0.60853 0.25233 0.83927 0.0
C3424 C 0.61686 0.25108 0.85429 0.0
C3425 C 0.65415 0.23984 0.88522 0.0
C3426 C 0.63968 0.24483 0.87702 0.0
H3427 H 0.59462 0.28028 0.81499 0.0
H3428 H 0.60126 0.27621 0.84234 0.0
H3429 H 0.60741 0.22868 0.86068 0.0
H3430 H 0.67872 0.20877 0.88534 0.0
H3431 H 0.65212 0.21544 0.87883 0.0
C3432 C 0.72203 0.59571 0.8232 0.0
C3433 C 0.73522 0.59665 0.81364 0.0
C3434 C 0.72312 0.59945 0.83899 0.0
C3435 C 0.75087 0.61191 0.87025 0.0
H3436 H 0.72242 0.64654 0.87363 0.0
C3437 C 0.76904 0.67106 0.89305 0.0
C3438 C 0.75763 0.68207 0.89669 0.0
C3439 C 0.7648 0.65572 0.88978 0.0
C3440 C 0.73026 0.63672 0.8734 0.0
H3441 H 0.76015 0.60004 0.81345 0.0
H3442 H 0.76205 0.60657 0.84078 0.0
H3443 H 0.71737 0.62641 0.85496 0.0
H3444 H 0.7333 0.68553 0.90174 0.0
H3445 H 0.72598 0.65856 0.89715 0.0
H3446 H 0.76419 0.62276 0.88824 0.0
C3447 C 0.75085 0.60306 0.83625 0.0
C3448 C 0.7273 0.62507 0.86255 0.0
C3449 C 0.74975 0.59946 0.8205 0.0
C3450 C 0.74226 0.6772 0.89882 0.0
C3451 C 0.73808 0.66178 0.896 0.0
C3452 C 0.75376 0.62353 0.88126 0.0
C3453 C 0.73742 0.60405 0.84546 0.0
C3454 C 0.73803 0.61302 0.86021 0.0
C3455 C 0.74909 0.65109 0.89036 0.0
C3456 C 0.74397 0.63658 0.88233 0.0
H3457 H 0.71068 0.59347 0.81825 0.0
H3458 H 0.7126 0.59988 0.84586 0.0
H3459 H 0.75921 0.6026 0.8689 0.0
H3460 H 0.78097 0.67463 0.89124 0.0
H3461 H 0.77368 0.64796 0.88543 0.0
C3462 C 0.68379 0.74102 0.10255 0.0
C3463 C 0.68828 0.75631 0.09911 0.0
C3464 C 0.66843 0.73759 0.10627 0.0
C3465 C 0.63738 0.75743 0.12633 0.0
H3466 H 0.61994 0.71591 0.12616 0.0
C3467 C 0.61524 0.71429 0.17489 0.0
C3468 C 0.60651 0.72457 0.18396 0.0
C3469 C 0.61878 0.71801 0.1595 0.0
C3470 C 0.62452 0.72763 0.12621 0.0
H3471 H 0.67989 0.7797 0.09508 0.0
H3472 H 0.65289 0.7737 0.10161 0.0
H3473 H 0.63842 0.72346 0.10602 0.0
H3474 H 0.59375 0.74618 0.18415 0.0
H3475 H 0.59971 0.75266 0.1571 0.0
H3476 H 0.62437 0.76134 0.14701 0.0
C3477 C 0.66135 0.7644 0.10166 0.0
C3478 C 0.6351 0.73196 0.11468 0.0
C3479 C 0.67679 0.76782 0.09785 0.0
C3480 C 0.60044 0.73807 0.17723 0.0
C3481 C 0.60392 0.74179 0.16182 0.0
C3482 C 0.62678 0.75313 0.13779 0.0
C3483 C 0.65717 0.7494 0.10669 0.0
C3484 C 0.64239 0.74659 0.11519 0.0
C3485 C 0.61372 0.73214 0.15299 0.0
C3486 C 0.62095 0.73788 0.1384 0.0
H3487 H 0.69234 0.73183 0.10335 0.0
H3488 H 0.66576 0.72593 0.11014 0.0
H3489 H 0.64276 0.76877 0.12719 0.0
H3490 H 0.62018 0.70391 0.18 0.0
H3491 H 0.62653 0.71041 0.15317 0.0
C3492 C 0.24133 0.60357 0.18028 0.0
C3493 C 0.25634 0.5996 0.1853 0.0
C3494 C 0.23834 0.60629 0.1646 0.0
C3495 C 0.25911 0.62325 0.13273 0.0
H3496 H 0.21881 0.62071 0.11284 0.0
C3497 C 0.21613 0.6688 0.10486 0.0
C3498 C 0.22744 0.67868 0.09862 0.0
C3499 C 0.21982 0.6534 0.10838 0.0
C3500 C 0.23018 0.62149 0.11815 0.0
H3501 H 0.27962 0.59387 0.1776 0.0
H3502 H 0.27441 0.59885 0.15013 0.0
H3503 H 0.22535 0.60266 0.13372 0.0
H3504 H 0.25071 0.68003 0.08936 0.0
H3505 H 0.25691 0.65284 0.09449 0.0
H3506 H 0.26357 0.64284 0.11844 0.0
C3507 C 0.26499 0.59992 0.15839 0.0
C3508 C 0.23394 0.61109 0.13006 0.0
C3509 C 0.26797 0.59706 0.17412 0.0
C3510 C 0.24182 0.67253 0.09416 0.0
C3511 C 0.2454 0.65702 0.09731 0.0
C3512 C 0.2553 0.63372 0.12099 0.0
C3513 C 0.25031 0.60522 0.15357 0.0
C3514 C 0.24812 0.61246 0.13806 0.0
C3515 C 0.23488 0.6476 0.10558 0.0
C3516 C 0.24044 0.63359 0.11416 0.0
H3517 H 0.23205 0.60539 0.18857 0.0
H3518 H 0.22693 0.61046 0.16134 0.0
H3519 H 0.2701 0.62471 0.13867 0.0
H3520 H 0.20503 0.67342 0.10857 0.0
H3521 H 0.21135 0.64666 0.11477 0.0
C3522 C 0.74701 0.39677 0.17787 0.0
C3523 C 0.73195 0.39405 0.18337 0.0
C3524 C 0.75086 0.39326 0.16251 0.0
C3525 C 0.73479 0.37488 0.12598 0.0
H3526 H 0.77301 0.35136 0.12917 0.0
C3527 C 0.74252 0.31291 0.10552 0.0
C3528 C 0.7573 0.30727 0.10154 0.0
C3529 C 0.74032 0.32861 0.10882 0.0
C3530 C 0.76252 0.35814 0.12775 0.0
H3531 H 0.70875 0.38683 0.17708 0.0
H3532 H 0.71551 0.37978 0.15062 0.0
H3533 H 0.76746 0.37111 0.14812 0.0
H3534 H 0.78102 0.31393 0.09635 0.0
H3535 H 0.77721 0.34143 0.10239 0.0
H3536 H 0.72936 0.36055 0.10632 0.0
C3537 C 0.72437 0.38512 0.15776 0.0
C3538 C 0.75928 0.36962 0.13869 0.0
C3539 C 0.72043 0.38911 0.173 0.0
C3540 C 0.76952 0.31791 0.09951 0.0
C3541 C 0.76735 0.33364 0.10298 0.0
C3542 C 0.73796 0.36319 0.11512 0.0
C3543 C 0.73986 0.3863 0.15258 0.0
C3544 C 0.745 0.37759 0.13848 0.0
C3545 C 0.75289 0.339 0.10836 0.0
C3546 C 0.75151 0.35419 0.1164 0.0
H3547 H 0.75604 0.40069 0.18572 0.0
H3548 H 0.76275 0.39492 0.15882 0.0
H3549 H 0.7239 0.38108 0.12512 0.0
H3550 H 0.73281 0.30503 0.10696 0.0
H3551 H 0.72906 0.33231 0.11302 0.0
loop_
_geom_bond_atom_site_label_1
_geom_bond_atom_site_label_2
_geom_bond_distance
_geom_bond_site_symmetry_2
_ccdc_geom_bond_type
Co0 O1 2.216 . S
Co0 O2 2.091 . S
Co0 O4 2.004 . S
Co0 O10 2.021 . S
Co0 O12 2.137 . S
Co0 O13 2.244 . S
O1 Co0 2.216 . S
O1 C8 1.247 . S
O2 Co0 2.091 . S
O2 C8 1.261 . S
C3 O12 1.247 . S
C3 O13 1.272 . S
O4 Co0 2.004 . S
O4 C9 1.259 . S
Co5 O6 2.061 . S
Co5 O11 2.052 . S
Co5 O13 2.135 . S
O6 Co5 2.061 . S
O6 C9 1.235 . S
C7 O10 1.238 . S
C7 O11 1.241 . S
C8 O1 1.247 . S
C8 O2 1.261 . S
C9 O4 1.259 . S
C9 O6 1.235 . S
O10 Co0 2.021 . S
O10 C7 1.238 . S
O11 Co5 2.052 . S
O11 C7 1.241 . S
O12 Co0 2.137 . S
O12 C3 1.247 . S
O13 Co0 2.244 . S
O13 C3 1.272 . S
O13 Co5 2.135 . S
Co14 O15 2.216 . S
Co14 O16 2.091 . S
Co14 O18 2.004 . S
Co14 O24 2.021 . S
Co14 O26 2.137 . S
Co14 O27 2.244 . S
O15 Co14 2.216 . S
O15 C22 1.247 . S
O16 Co14 2.091 . S
O16 C22 1.261 . S
C17 O26 1.247 . S
C17 O27 1.272 . S
O18 Co14 2.004 . S
O18 C23 1.259 . S
Co19 O20 2.061 . S
Co19 O25 2.052 . S
Co19 O27 2.135 . S
O20 Co19 2.061 . S
O20 C23 1.235 . S
C21 O24 1.238 . S
C21 O25 1.241 . S
C22 O15 1.247 . S
C22 O16 1.261 . S
C23 O18 1.259 . S
C23 O20 1.235 . S
O24 Co14 2.021 . S
O24 C21 1.238 . S
O25 Co19 2.052 . S
O25 C21 1.241 . S
O26 Co14 2.137 . S
O26 C17 1.247 . S
O27 Co14 2.244 . S
O27 C17 1.272 . S
O27 Co19 2.135 . S
Co28 O29 2.216 . S
Co28 O30 2.091 . S
Co28 O32 2.004 . S
Co28 O38 2.021 . S
Co28 O40 2.137 . S
Co28 O41 2.244 . S
O29 Co28 2.216 . S
O29 C36 1.247 . S
O30 Co28 2.091 . S
O30 C36 1.261 . S
C31 O40 1.247 . S
C31 O41 1.272 . S
O32 Co28 2.004 . S
O32 C37 1.259 . S
Co33 O34 2.061 . S
Co33 O39 2.052 . S
Co33 O41 2.135 . S
O34 Co33 2.061 . S
O34 C37 1.235 . S
C35 O38 1.238 . S
C35 O39 1.241 . S
C36 O29 1.247 . S
C36 O30 1.261 . S
C37 O32 1.259 . S
C37 O34 1.235 . S
O38 Co28 2.021 . S
O38 C35 1.238 . S
O39 Co33 2.052 . S
O39 C35 1.241 . S
O40 Co28 2.137 . S
O40 C31 1.247 . S
O41 Co28 2.244 . S
O41 C31 1.272 . S
O41 Co33 2.135 . S
Co42 O43 2.216 . S
Co42 O44 2.091 . S
Co42 O46 2.004 . S
Co42 O52 2.021 . S
Co42 O54 2.137 . S
Co42 O55 2.244 . S
O43 Co42 2.216 . S
O43 C50 1.247 . S
O44 Co42 2.091 . S
O44 C50 1.261 . S
C45 O54 1.247 . S
C45 O55 1.272 . S
O46 Co42 2.004 . S
O46 C51 1.259 . S
Co47 O48 2.061 . S
Co47 O53 2.052 . S
Co47 O55 2.135 . S
O48 Co47 2.061 . S
O48 C51 1.235 . S
C49 O52 1.238 . S
C49 O53 1.241 . S
C50 O43 1.247 . S
C50 O44 1.261 . S
C51 O46 1.259 . S
C51 O48 1.235 . S
O52 Co42 2.021 . S
O52 C49 1.238 . S
O53 Co47 2.052 . S
O53 C49 1.241 . S
O54 Co42 2.137 . S
O54 C45 1.247 . S
O55 Co42 2.244 . S
O55 C45 1.272 . S
O55 Co47 2.135 . S
Co56 O57 2.216 . S
Co56 O58 2.091 . S
Co56 O60 2.004 . S
Co56 O66 2.021 . S
Co56 O68 2.137 . S
Co56 O69 2.244 . S
O57 Co56 2.216 . S
O57 C64 1.247 . S
O58 Co56 2.091 . S
O58 C64 1.261 . S
C59 O68 1.247 . S
C59 O69 1.272 . S
O60 Co56 2.004 . S
O60 C65 1.259 . S
Co61 O62 2.061 . S
Co61 O67 2.052 . S
Co61 O69 2.135 . S
O62 Co61 2.061 . S
O62 C65 1.235 . S
C63 O66 1.238 . S
C63 O67 1.241 . S
C64 O57 1.247 . S
C64 O58 1.261 . S
C65 O60 1.259 . S
C65 O62 1.235 . S
O66 Co56 2.021 . S
O66 C63 1.238 . S
O67 Co61 2.052 . S
O67 C63 1.241 . S
O68 Co56 2.137 . S
O68 C59 1.247 . S
O69 Co56 2.244 . S
O69 C59 1.272 . S
O69 Co61 2.135 . S
Co70 O71 2.216 . S
Co70 O72 2.091 . S
Co70 O74 2.004 . S
Co70 O80 2.021 . S
Co70 O82 2.137 . S
Co70 O83 2.244 . S
O71 Co70 2.216 . S
O71 C78 1.247 . S
O72 Co70 2.091 . S
O72 C78 1.261 . S
C73 O82 1.247 . S
C73 O83 1.272 . S
O74 Co70 2.004 . S
O74 C79 1.259 . S
Co75 O76 2.061 . S
Co75 O81 2.052 . S
Co75 O83 2.135 . S
O76 Co75 2.061 . S
O76 C79 1.235 . S
C77 O80 1.238 . S
C77 O81 1.241 . S
C78 O71 1.247 . S
C78 O72 1.261 . S
C79 O74 1.259 . S
C79 O76 1.235 . S
O80 Co70 2.021 . S
O80 C77 1.238 . S
O81 Co75 2.052 . S
O81 C77 1.241 . S
O82 Co70 2.137 . S
O82 C73 1.247 . S
O83 Co70 2.244 . S
O83 C73 1.272 . S
O83 Co75 2.135 . S
Co84 O85 2.216 . S
Co84 O86 2.091 . S
Co84 O88 2.004 . S
Co84 O94 2.021 . S
Co84 O96 2.137 . S
Co84 O97 2.244 . S
O85 Co84 2.216 . S
O85 C92 1.247 . S
O86 Co84 2.091 . S
O86 C92 1.261 . S
C87 O96 1.247 . S
C87 O97 1.272 . S
O88 Co84 2.004 . S
O88 C93 1.259 . S
Co89 O90 2.061 . S
Co89 O95 2.052 . S
Co89 O97 2.135 . S
O90 Co89 2.061 . S
O90 C93 1.235 . S
C91 O94 1.238 . S
C91 O95 1.241 . S
C92 O85 1.247 . S
C92 O86 1.261 . S
C93 O88 1.259 . S
C93 O90 1.235 . S
O94 Co84 2.021 . S
O94 C91 1.238 . S
O95 Co89 2.052 . S
O95 C91 1.241 . S
O96 Co84 2.137 . S
O96 C87 1.247 . S
O97 Co84 2.244 . S
O97 C87 1.272 . S
O97 Co89 2.135 . S
Co98 O99 2.216 . S
Co98 O100 2.091 . S
Co98 O102 2.004 . S
Co98 O108 2.021 . S
Co98 O110 2.137 . S
Co98 O111 2.244 . S
O99 Co98 2.216 . S
O99 C106 1.247 . S
O100 Co98 2.091 . S
O100 C106 1.261 . S
C101 O110 1.247 . S
C101 O111 1.272 . S
O102 Co98 2.004 . S
O102 C107 1.259 . S
Co103 O104 2.061 . S
Co103 O109 2.052 . S
Co103 O111 2.135 . S
O104 Co103 2.061 . S
O104 C107 1.235 . S
C105 O108 1.238 . S
C105 O109 1.241 . S
C106 O99 1.247 . S
C106 O100 1.261 . S
C107 O102 1.259 . S
C107 O104 1.235 . S
O108 Co98 2.021 . S
O108 C105 1.238 . S
O109 Co103 2.052 . S
O109 C105 1.241 . S
O110 Co98 2.137 . S
O110 C101 1.247 . S
O111 Co98 2.244 . S
O111 C101 1.272 . S
O111 Co103 2.135 . S
Co112 O113 2.216 . S
Co112 O114 2.091 . S
Co112 O116 2.004 . S
Co112 O122 2.021 . S
Co112 O124 2.137 . S
Co112 O125 2.244 . S
O113 Co112 2.216 . S
O113 C120 1.247 . S
O114 Co112 2.091 . S
O114 C120 1.261 . S
C115 O124 1.247 . S
C115 O125 1.272 . S
O116 Co112 2.004 . S
O116 C121 1.259 . S
Co117 O118 2.061 . S
Co117 O123 2.052 . S
Co117 O125 2.135 . S
O118 Co117 2.061 . S
O118 C121 1.235 . S
C119 O122 1.238 . S
C119 O123 1.241 . S
C120 O113 1.247 . S
C120 O114 1.261 . S
C121 O116 1.259 . S
C121 O118 1.235 . S
O122 Co112 2.021 . S
O122 C119 1.238 . S
O123 Co117 2.052 . S
O123 C119 1.241 . S
O124 Co112 2.137 . S
O124 C115 1.247 . S
O125 Co112 2.244 . S
O125 C115 1.272 . S
O125 Co117 2.135 . S
Co126 O127 2.216 . S
Co126 O128 2.091 . S
Co126 O130 2.004 . S
Co126 O136 2.021 . S
Co126 O138 2.137 . S
Co126 O139 2.244 . S
O127 Co126 2.216 . S
O127 C134 1.247 . S
O128 Co126 2.091 . S
O128 C134 1.261 . S
C129 O138 1.247 . S
C129 O139 1.272 . S
O130 Co126 2.004 . S
O130 C135 1.259 . S
Co131 O132 2.061 . S
Co131 O137 2.052 . S
Co131 O139 2.135 . S
O132 Co131 2.061 . S
O132 C135 1.235 . S
C133 O136 1.238 . S
C133 O137 1.241 . S
C134 O127 1.247 . S
C134 O128 1.261 . S
C135 O130 1.259 . S
C135 O132 1.235 . S
O136 Co126 2.021 . S
O136 C133 1.238 . S
O137 Co131 2.052 . S
O137 C133 1.241 . S
O138 Co126 2.137 . S
O138 C129 1.247 . S
O139 Co126 2.244 . S
O139 C129 1.272 . S
O139 Co131 2.135 . S
Co140 O141 2.216 . S
Co140 O142 2.091 . S
Co140 O144 2.004 . S
Co140 O150 2.021 . S
Co140 O152 2.137 . S
Co140 O153 2.244 . S
O141 Co140 2.216 . S
O141 C148 1.247 . S
O142 Co140 2.091 . S
O142 C148 1.261 . S
C143 O152 1.247 . S
C143 O153 1.272 . S
O144 Co140 2.004 . S
O144 C149 1.259 . S
Co145 O146 2.061 . S
Co145 O151 2.052 . S
Co145 O153 2.135 . S
O146 Co145 2.061 . S
O146 C149 1.235 . S
C147 O150 1.238 . S
C147 O151 1.241 . S
C148 O141 1.247 . S
C148 O142 1.261 . S
C149 O144 1.259 . S
C149 O146 1.235 . S
O150 Co140 2.021 . S
O150 C147 1.238 . S
O151 Co145 2.052 . S
O151 C147 1.241 . S
O152 Co140 2.137 . S
O152 C143 1.247 . S
O153 Co140 2.244 . S
O153 C143 1.272 . S
O153 Co145 2.135 . S
Co154 O155 2.216 . S
Co154 O156 2.091 . S
Co154 O158 2.004 . S
Co154 O164 2.021 . S
Co154 O166 2.137 . S
Co154 O167 2.244 . S
O155 Co154 2.216 . S
O155 C162 1.247 . S
O156 Co154 2.091 . S
O156 C162 1.261 . S
C157 O166 1.247 . S
C157 O167 1.272 . S
O158 Co154 2.004 . S
O158 C163 1.259 . S
Co159 O160 2.061 . S
Co159 O165 2.052 . S
Co159 O167 2.135 . S
O160 Co159 2.061 . S
O160 C163 1.235 . S
C161 O164 1.238 . S
C161 O165 1.241 . S
C162 O155 1.247 . S
C162 O156 1.261 . S
C163 O158 1.259 . S
C163 O160 1.235 . S
O164 Co154 2.021 . S
O164 C161 1.238 . S
O165 Co159 2.052 . S
O165 C161 1.241 . S
O166 Co154 2.137 . S
O166 C157 1.247 . S
O167 Co154 2.244 . S
O167 C157 1.272 . S
O167 Co159 2.135 . S
Co168 O169 2.216 . S
Co168 O170 2.091 . S
Co168 O172 2.004 . S
Co168 O178 2.021 . S
Co168 O180 2.137 . S
Co168 O181 2.244 . S
O169 Co168 2.216 . S
O169 C176 1.247 . S
O170 Co168 2.091 . S
O170 C176 1.261 . S
C171 O180 1.247 . S
C171 O181 1.272 . S
O172 Co168 2.004 . S
O172 C177 1.259 . S
Co173 O174 2.061 . S
Co173 O179 2.052 . S
Co173 O181 2.135 . S
O174 Co173 2.061 . S
O174 C177 1.235 . S
C175 O178 1.238 . S
C175 O179 1.241 . S
C176 O169 1.247 . S
C176 O170 1.261 . S
C177 O172 1.259 . S
C177 O174 1.235 . S
O178 Co168 2.021 . S
O178 C175 1.238 . S
O179 Co173 2.052 . S
O179 C175 1.241 . S
O180 Co168 2.137 . S
O180 C171 1.247 . S
O181 Co168 2.244 . S
O181 C171 1.272 . S
O181 Co173 2.135 . S
Co182 O183 2.216 . S
Co182 O184 2.091 . S
Co182 O186 2.004 . S
Co182 O192 2.021 . S
Co182 O194 2.137 . S
Co182 O195 2.244 . S
O183 Co182 2.216 . S
O183 C190 1.247 . S
O184 Co182 2.091 . S
O184 C190 1.261 . S
C185 O194 1.247 . S
C185 O195 1.272 . S
O186 Co182 2.004 . S
O186 C191 1.259 . S
Co187 O188 2.061 . S
Co187 O193 2.052 . S
Co187 O195 2.135 . S
O188 Co187 2.061 . S
O188 C191 1.235 . S
C189 O192 1.238 . S
C189 O193 1.241 . S
C190 O183 1.247 . S
C190 O184 1.261 . S
C191 O186 1.259 . S
C191 O188 1.235 . S
O192 Co182 2.021 . S
O192 C189 1.238 . S
O193 Co187 2.052 . S
O193 C189 1.241 . S
O194 Co182 2.137 . S
O194 C185 1.247 . S
O195 Co182 2.244 . S
O195 C185 1.272 . S
O195 Co187 2.135 . S
Co196 O197 2.216 . S
Co196 O198 2.091 . S
Co196 O200 2.004 . S
Co196 O206 2.021 . S
Co196 O208 2.137 . S
Co196 O209 2.244 . S
O197 Co196 2.216 . S
O197 C204 1.247 . S
O198 Co196 2.091 . S
O198 C204 1.261 . S
C199 O208 1.247 . S
C199 O209 1.272 . S
O200 Co196 2.004 . S
O200 C205 1.259 . S
Co201 O202 2.061 . S
Co201 O207 2.052 . S
Co201 O209 2.135 . S
O202 Co201 2.061 . S
O202 C205 1.235 . S
C203 O206 1.238 . S
C203 O207 1.241 . S
C204 O197 1.247 . S
C204 O198 1.261 . S
C205 O200 1.259 . S
C205 O202 1.235 . S
O206 Co196 2.021 . S
O206 C203 1.238 . S
O207 Co201 2.052 . S
O207 C203 1.241 . S
O208 Co196 2.137 . S
O208 C199 1.247 . S
O209 Co196 2.244 . S
O209 C199 1.272 . S
O209 Co201 2.135 . S
Co210 O211 2.216 . S
Co210 O212 2.091 . S
Co210 O214 2.004 . S
Co210 O220 2.021 . S
Co210 O222 2.137 . S
Co210 O223 2.244 . S
O211 Co210 2.216 . S
O211 C218 1.247 . S
O212 Co210 2.091 . S
O212 C218 1.261 . S
C213 O222 1.247 . S
C213 O223 1.272 . S
O214 Co210 2.004 . S
O214 C219 1.259 . S
Co215 O216 2.061 . S
Co215 O221 2.052 . S
Co215 O223 2.135 . S
O216 Co215 2.061 . S
O216 C219 1.235 . S
C217 O220 1.238 . S
C217 O221 1.241 . S
C218 O211 1.247 . S
C218 O212 1.261 . S
C219 O214 1.259 . S
C219 O216 1.235 . S
O220 Co210 2.021 . S
O220 C217 1.238 . S
O221 Co215 2.052 . S
O221 C217 1.241 . S
O222 Co210 2.137 . S
O222 C213 1.247 . S
O223 Co210 2.244 . S
O223 C213 1.272 . S
O223 Co215 2.135 . S
Co224 O225 2.216 . S
Co224 O226 2.091 . S
Co224 O228 2.004 . S
Co224 O234 2.021 . S
Co224 O236 2.137 . S
Co224 O237 2.244 . S
O225 Co224 2.216 . S
O225 C232 1.247 . S
O226 Co224 2.091 . S
O226 C232 1.261 . S
C227 O236 1.247 . S
C227 O237 1.272 . S
O228 Co224 2.004 . S
O228 C233 1.259 . S
Co229 O230 2.061 . S
Co229 O235 2.052 . S
Co229 O237 2.135 . S
O230 Co229 2.061 . S
O230 C233 1.235 . S
C231 O234 1.238 . S
C231 O235 1.241 . S
C232 O225 1.247 . S
C232 O226 1.261 . S
C233 O228 1.259 . S
C233 O230 1.235 . S
O234 Co224 2.021 . S
O234 C231 1.238 . S
O235 Co229 2.052 . S
O235 C231 1.241 . S
O236 Co224 2.137 . S
O236 C227 1.247 . S
O237 Co224 2.244 . S
O237 C227 1.272 . S
O237 Co229 2.135 . S
Co238 O239 2.216 . S
Co238 O240 2.091 . S
Co238 O242 2.004 . S
Co238 O248 2.021 . S
Co238 O250 2.137 . S
Co238 O251 2.244 . S
O239 Co238 2.216 . S
O239 C246 1.247 . S
O240 Co238 2.091 . S
O240 C246 1.261 . S
C241 O250 1.247 . S
C241 O251 1.272 . S
O242 Co238 2.004 . S
O242 C247 1.259 . S
Co243 O244 2.061 . S
Co243 O249 2.052 . S
Co243 O251 2.135 . S
O244 Co243 2.061 . S
O244 C247 1.235 . S
C245 O248 1.238 . S
C245 O249 1.241 . S
C246 O239 1.247 . S
C246 O240 1.261 . S
C247 O242 1.259 . S
C247 O244 1.235 . S
O248 Co238 2.021 . S
O248 C245 1.238 . S
O249 Co243 2.052 . S
O249 C245 1.241 . S
O250 Co238 2.137 . S
O250 C241 1.247 . S
O251 Co238 2.244 . S
O251 C241 1.272 . S
O251 Co243 2.135 . S
Co252 O253 2.216 . S
Co252 O254 2.091 . S
Co252 O256 2.004 . S
Co252 O262 2.021 . S
Co252 O264 2.137 . S
Co252 O265 2.244 . S
O253 Co252 2.216 . S
O253 C260 1.247 . S
O254 Co252 2.091 . S
O254 C260 1.261 . S
C255 O264 1.247 . S
C255 O265 1.272 . S
O256 Co252 2.004 . S
O256 C261 1.259 . S
Co257 O258 2.061 . S
Co257 O263 2.052 . S
Co257 O265 2.135 . S
O258 Co257 2.061 . S
O258 C261 1.235 . S
C259 O262 1.238 . S
C259 O263 1.241 . S
C260 O253 1.247 . S
C260 O254 1.261 . S
C261 O256 1.259 . S
C261 O258 1.235 . S
O262 Co252 2.021 . S
O262 C259 1.238 . S
O263 Co257 2.052 . S
O263 C259 1.241 . S
O264 Co252 2.137 . S
O264 C255 1.247 . S
O265 Co252 2.244 . S
O265 C255 1.272 . S
O265 Co257 2.135 . S
Co266 O267 2.216 . S
Co266 O268 2.091 . S
Co266 O270 2.004 . S
Co266 O276 2.021 . S
Co266 O278 2.137 . S
Co266 O279 2.244 . S
O267 Co266 2.216 . S
O267 C274 1.247 . S
O268 Co266 2.091 . S
O268 C274 1.261 . S
C269 O278 1.247 . S
C269 O279 1.272 . S
O270 Co266 2.004 . S
O270 C275 1.259 . S
Co271 O272 2.061 . S
Co271 O277 2.052 . S
Co271 O279 2.135 . S
O272 Co271 2.061 . S
O272 C275 1.235 . S
C273 O276 1.238 . S
C273 O277 1.241 . S
C274 O267 1.247 . S
C274 O268 1.261 . S
C275 O270 1.259 . S
C275 O272 1.235 . S
O276 Co266 2.021 . S
O276 C273 1.238 . S
O277 Co271 2.052 . S
O277 C273 1.241 . S
O278 Co266 2.137 . S
O278 C269 1.247 . S
O279 Co266 2.244 . S
O279 C269 1.272 . S
O279 Co271 2.135 . S
Co280 O281 2.216 . S
Co280 O282 2.091 . S
Co280 O284 2.004 . S
Co280 O290 2.021 . S
Co280 O292 2.137 . S
Co280 O293 2.244 . S
O281 Co280 2.216 . S
O281 C288 1.247 . S
O282 Co280 2.091 . S
O282 C288 1.261 . S
C283 O292 1.247 . S
C283 O293 1.272 . S
O284 Co280 2.004 . S
O284 C289 1.259 . S
Co285 O286 2.061 . S
Co285 O291 2.052 . S
Co285 O293 2.135 . S
O286 Co285 2.061 . S
O286 C289 1.235 . S
C287 O290 1.238 . S
C287 O291 1.241 . S
C288 O281 1.247 . S
C288 O282 1.261 . S
C289 O284 1.259 . S
C289 O286 1.235 . S
O290 Co280 2.021 . S
O290 C287 1.238 . S
O291 Co285 2.052 . S
O291 C287 1.241 . S
O292 Co280 2.137 . S
O292 C283 1.247 . S
O293 Co280 2.244 . S
O293 C283 1.272 . S
O293 Co285 2.135 . S
Co294 O295 2.216 . S
Co294 O296 2.091 . S
Co294 O298 2.004 . S
Co294 O304 2.021 . S
Co294 O306 2.137 . S
Co294 O307 2.244 . S
O295 Co294 2.216 . S
O295 C302 1.247 . S
O296 Co294 2.091 . S
O296 C302 1.261 . S
C297 O306 1.247 . S
C297 O307 1.272 . S
O298 Co294 2.004 . S
O298 C303 1.259 . S
Co299 O300 2.061 . S
Co299 O305 2.052 . S
Co299 O307 2.135 . S
O300 Co299 2.061 . S
O300 C303 1.235 . S
C301 O304 1.238 . S
C301 O305 1.241 . S
C302 O295 1.247 . S
C302 O296 1.261 . S
C303 O298 1.259 . S
C303 O300 1.235 . S
O304 Co294 2.021 . S
O304 C301 1.238 . S
O305 Co299 2.052 . S
O305 C301 1.241 . S
O306 Co294 2.137 . S
O306 C297 1.247 . S
O307 Co294 2.244 . S
O307 C297 1.272 . S
O307 Co299 2.135 . S
Co308 O309 2.216 . S
Co308 O310 2.091 . S
Co308 O312 2.004 . S
Co308 O318 2.021 . S
Co308 O320 2.137 . S
Co308 O321 2.244 . S
O309 Co308 2.216 . S
O309 C316 1.247 . S
O310 Co308 2.091 . S
O310 C316 1.261 . S
C311 O320 1.247 . S
C311 O321 1.272 . S
O312 Co308 2.004 . S
O312 C317 1.259 . S
Co313 O314 2.061 . S
Co313 O319 2.052 . S
Co313 O321 2.135 . S
O314 Co313 2.061 . S
O314 C317 1.235 . S
C315 O318 1.238 . S
C315 O319 1.241 . S
C316 O309 1.247 . S
C316 O310 1.261 . S
C317 O312 1.259 . S
C317 O314 1.235 . S
O318 Co308 2.021 . S
O318 C315 1.238 . S
O319 Co313 2.052 . S
O319 C315 1.241 . S
O320 Co308 2.137 . S
O320 C311 1.247 . S
O321 Co308 2.244 . S
O321 C311 1.272 . S
O321 Co313 2.135 . S
Co322 O323 2.216 . S
Co322 O324 2.091 . S
Co322 O326 2.004 . S
Co322 O332 2.021 . S
Co322 O334 2.137 . S
Co322 O335 2.244 . S
O323 Co322 2.216 . S
O323 C330 1.247 . S
O324 Co322 2.091 . S
O324 C330 1.261 . S
C325 O334 1.247 . S
C325 O335 1.272 . S
O326 Co322 2.004 . S
O326 C331 1.259 . S
Co327 O328 2.061 . S
Co327 O333 2.052 . S
Co327 O335 2.135 . S
O328 Co327 2.061 . S
O328 C331 1.235 . S
C329 O332 1.238 . S
C329 O333 1.241 . S
C330 O323 1.247 . S
C330 O324 1.261 . S
C331 O326 1.259 . S
C331 O328 1.235 . S
O332 Co322 2.021 . S
O332 C329 1.238 . S
O333 Co327 2.052 . S
O333 C329 1.241 . S
O334 Co322 2.137 . S
O334 C325 1.247 . S
O335 Co322 2.244 . S
O335 C325 1.272 . S
O335 Co327 2.135 . S
Co336 O337 2.216 . S
Co336 O338 2.091 . S
Co336 O340 2.004 . S
Co336 O346 2.021 . S
Co336 O348 2.137 . S
Co336 O349 2.244 . S
O337 Co336 2.216 . S
O337 C344 1.247 . S
O338 Co336 2.091 . S
O338 C344 1.261 . S
C339 O348 1.247 . S
C339 O349 1.272 . S
O340 Co336 2.004 . S
O340 C345 1.259 . S
Co341 O342 2.061 . S
Co341 O347 2.052 . S
Co341 O349 2.135 . S
O342 Co341 2.061 . S
O342 C345 1.235 . S
C343 O346 1.238 . S
C343 O347 1.241 . S
C344 O337 1.247 . S
C344 O338 1.261 . S
C345 O340 1.259 . S
C345 O342 1.235 . S
O346 Co336 2.021 . S
O346 C343 1.238 . S
O347 Co341 2.052 . S
O347 C343 1.241 . S
O348 Co336 2.137 . S
O348 C339 1.247 . S
O349 Co336 2.244 . S
O349 C339 1.272 . S
O349 Co341 2.135 . S
Co350 O351 2.216 . S
Co350 O352 2.091 . S
Co350 O354 2.004 . S
Co350 O360 2.021 . S
Co350 O362 2.137 . S
Co350 O363 2.244 . S
O351 Co350 2.216 . S
O351 C358 1.247 . S
O352 Co350 2.091 . S
O352 C358 1.261 . S
C353 O362 1.247 . S
C353 O363 1.272 . S
O354 Co350 2.004 . S
O354 C359 1.259 . S
Co355 O356 2.061 . S
Co355 O361 2.052 . S
Co355 O363 2.135 . S
O356 Co355 2.061 . S
O356 C359 1.235 . S
C357 O360 1.238 . S
C357 O361 1.241 . S
C358 O351 1.247 . S
C358 O352 1.261 . S
C359 O354 1.259 . S
C359 O356 1.235 . S
O360 Co350 2.021 . S
O360 C357 1.238 . S
O361 Co355 2.052 . S
O361 C357 1.241 . S
O362 Co350 2.137 . S
O362 C353 1.247 . S
O363 Co350 2.244 . S
O363 C353 1.272 . S
O363 Co355 2.135 . S
Co364 O365 2.216 . S
Co364 O366 2.091 . S
Co364 O368 2.004 . S
Co364 O374 2.021 . S
Co364 O376 2.137 . S
Co364 O377 2.244 . S
O365 Co364 2.216 . S
O365 C372 1.247 . S
O366 Co364 2.091 . S
O366 C372 1.261 . S
C367 O376 1.247 . S
C367 O377 1.272 . S
O368 Co364 2.004 . S
O368 C373 1.259 . S
Co369 O370 2.061 . S
Co369 O375 2.052 . S
Co369 O377 2.135 . S
O370 Co369 2.061 . S
O370 C373 1.235 . S
C371 O374 1.238 . S
C371 O375 1.241 . S
C372 O365 1.247 . S
C372 O366 1.261 . S
C373 O368 1.259 . S
C373 O370 1.235 . S
O374 Co364 2.021 . S
O374 C371 1.238 . S
O375 Co369 2.052 . S
O375 C371 1.241 . S
O376 Co364 2.137 . S
O376 C367 1.247 . S
O377 Co364 2.244 . S
O377 C367 1.272 . S
O377 Co369 2.135 . S
Co378 O379 2.216 . S
Co378 O380 2.091 . S
Co378 O382 2.004 . S
Co378 O388 2.021 . S
Co378 O390 2.137 . S
Co378 O391 2.244 . S
O379 Co378 2.216 . S
O379 C386 1.247 . S
O380 Co378 2.091 . S
O380 C386 1.261 . S
C381 O390 1.247 . S
C381 O391 1.272 . S
O382 Co378 2.004 . S
O382 C387 1.259 . S
Co383 O384 2.061 . S
Co383 O389 2.052 . S
Co383 O391 2.135 . S
O384 Co383 2.061 . S
O384 C387 1.235 . S
C385 O388 1.238 . S
C385 O389 1.241 . S
C386 O379 1.247 . S
C386 O380 1.261 . S
C387 O382 1.259 . S
C387 O384 1.235 . S
O388 Co378 2.021 . S
O388 C385 1.238 . S
O389 Co383 2.052 . S
O389 C385 1.241 . S
O390 Co378 2.137 . S
O390 C381 1.247 . S
O391 Co378 2.244 . S
O391 C381 1.272 . S
O391 Co383 2.135 . S
Co392 O393 2.216 . S
Co392 O394 2.091 . S
Co392 O396 2.004 . S
Co392 O402 2.021 . S
Co392 O404 2.137 . S
Co392 O405 2.244 . S
O393 Co392 2.216 . S
O393 C400 1.247 . S
O394 Co392 2.091 . S
O394 C400 1.261 . S
C395 O404 1.247 . S
C395 O405 1.272 . S
O396 Co392 2.004 . S
O396 C401 1.259 . S
Co397 O398 2.061 . S
Co397 O403 2.052 . S
Co397 O405 2.135 . S
O398 Co397 2.061 . S
O398 C401 1.235 . S
C399 O402 1.238 . S
C399 O403 1.241 . S
C400 O393 1.247 . S
C400 O394 1.261 . S
C401 O396 1.259 . S
C401 O398 1.235 . S
O402 Co392 2.021 . S
O402 C399 1.238 . S
O403 Co397 2.052 . S
O403 C399 1.241 . S
O404 Co392 2.137 . S
O404 C395 1.247 . S
O405 Co392 2.244 . S
O405 C395 1.272 . S
O405 Co397 2.135 . S
Co406 O407 2.216 . S
Co406 O408 2.091 . S
Co406 O410 2.004 . S
Co406 O416 2.021 . S
Co406 O418 2.137 . S
Co406 O419 2.244 . S
O407 Co406 2.216 . S
O407 C414 1.247 . S
O408 Co406 2.091 . S
O408 C414 1.261 . S
C409 O418 1.247 . S
C409 O419 1.272 . S
O410 Co406 2.004 . S
O410 C415 1.259 . S
Co411 O412 2.061 . S
Co411 O417 2.052 . S
Co411 O419 2.135 . S
O412 Co411 2.061 . S
O412 C415 1.235 . S
C413 O416 1.238 . S
C413 O417 1.241 . S
C414 O407 1.247 . S
C414 O408 1.261 . S
C415 O410 1.259 . S
C415 O412 1.235 . S
O416 Co406 2.021 . S
O416 C413 1.238 . S
O417 Co411 2.052 . S
O417 C413 1.241 . S
O418 Co406 2.137 . S
O418 C409 1.247 . S
O419 Co406 2.244 . S
O419 C409 1.272 . S
O419 Co411 2.135 . S
Co420 O421 2.216 . S
Co420 O422 2.091 . S
Co420 O424 2.004 . S
Co420 O430 2.021 . S
Co420 O432 2.137 . S
Co420 O433 2.244 . S
O421 Co420 2.216 . S
O421 C428 1.247 . S
O422 Co420 2.091 . S
O422 C428 1.261 . S
C423 O432 1.247 . S
C423 O433 1.272 . S
O424 Co420 2.004 . S
O424 C429 1.259 . S
Co425 O426 2.061 . S
Co425 O431 2.052 . S
Co425 O433 2.135 . S
O426 Co425 2.061 . S
O426 C429 1.235 . S
C427 O430 1.238 . S
C427 O431 1.241 . S
C428 O421 1.247 . S
C428 O422 1.261 . S
C429 O424 1.259 . S
C429 O426 1.235 . S
O430 Co420 2.021 . S
O430 C427 1.238 . S
O431 Co425 2.052 . S
O431 C427 1.241 . S
O432 Co420 2.137 . S
O432 C423 1.247 . S
O433 Co420 2.244 . S
O433 C423 1.272 . S
O433 Co425 2.135 . S
Co434 O435 2.216 . S
Co434 O436 2.091 . S
Co434 O438 2.004 . S
Co434 O444 2.021 . S
Co434 O446 2.137 . S
Co434 O447 2.244 . S
O435 Co434 2.216 . S
O435 C442 1.247 . S
O436 Co434 2.091 . S
O436 C442 1.261 . S
C437 O446 1.247 . S
C437 O447 1.272 . S
O438 Co434 2.004 . S
O438 C443 1.259 . S
Co439 O440 2.061 . S
Co439 O445 2.052 . S
Co439 O447 2.135 . S
O440 Co439 2.061 . S
O440 C443 1.235 . S
C441 O444 1.238 . S
C441 O445 1.241 . S
C442 O435 1.247 . S
C442 O436 1.261 . S
C443 O438 1.259 . S
C443 O440 1.235 . S
O444 Co434 2.021 . S
O444 C441 1.238 . S
O445 Co439 2.052 . S
O445 C441 1.241 . S
O446 Co434 2.137 . S
O446 C437 1.247 . S
O447 Co434 2.244 . S
O447 C437 1.272 . S
O447 Co439 2.135 . S
Co448 O449 2.216 . S
Co448 O450 2.091 . S
Co448 O452 2.004 . S
Co448 O458 2.021 . S
Co448 O460 2.137 . S
Co448 O461 2.244 . S
O449 Co448 2.216 . S
O449 C456 1.247 . S
O450 Co448 2.091 . S
O450 C456 1.261 . S
C451 O460 1.247 . S
C451 O461 1.272 . S
O452 Co448 2.004 . S
O452 C457 1.259 . S
Co453 O454 2.061 . S
Co453 O459 2.052 . S
Co453 O461 2.135 . S
O454 Co453 2.061 . S
O454 C457 1.235 . S
C455 O458 1.238 . S
C455 O459 1.241 . S
C456 O449 1.247 . S
C456 O450 1.261 . S
C457 O452 1.259 . S
C457 O454 1.235 . S
O458 Co448 2.021 . S
O458 C455 1.238 . S
O459 Co453 2.052 . S
O459 C455 1.241 . S
O460 Co448 2.137 . S
O460 C451 1.247 . S
O461 Co448 2.244 . S
O461 C451 1.272 . S
O461 Co453 2.135 . S
Co462 O463 2.216 . S
Co462 O464 2.091 . S
Co462 O466 2.004 . S
Co462 O472 2.021 . S
Co462 O474 2.137 . S
Co462 O475 2.244 . S
O463 Co462 2.216 . S
O463 C470 1.247 . S
O464 Co462 2.091 . S
O464 C470 1.261 . S
C465 O474 1.247 . S
C465 O475 1.272 . S
O466 Co462 2.004 . S
O466 C471 1.259 . S
Co467 O468 2.061 . S
Co467 O473 2.052 . S
Co467 O475 2.135 . S
O468 Co467 2.061 . S
O468 C471 1.235 . S
C469 O472 1.238 . S
C469 O473 1.241 . S
C470 O463 1.247 . S
C470 O464 1.261 . S
C471 O466 1.259 . S
C471 O468 1.235 . S
O472 Co462 2.021 . S
O472 C469 1.238 . S
O473 Co467 2.052 . S
O473 C469 1.241 . S
O474 Co462 2.137 . S
O474 C465 1.247 . S
O475 Co462 2.244 . S
O475 C465 1.272 . S
O475 Co467 2.135 . S
Co476 O477 2.216 . S
Co476 O478 2.091 . S
Co476 O480 2.004 . S
Co476 O486 2.021 . S
Co476 O488 2.137 . S
Co476 O489 2.244 . S
O477 Co476 2.216 . S
O477 C484 1.247 . S
O478 Co476 2.091 . S
O478 C484 1.261 . S
C479 O488 1.247 . S
C479 O489 1.272 . S
O480 Co476 2.004 . S
O480 C485 1.259 . S
Co481 O482 2.061 . S
Co481 O487 2.052 . S
Co481 O489 2.135 . S
O482 Co481 2.061 . S
O482 C485 1.235 . S
C483 O486 1.238 . S
C483 O487 1.241 . S
C484 O477 1.247 . S
C484 O478 1.261 . S
C485 O480 1.259 . S
C485 O482 1.235 . S
O486 Co476 2.021 . S
O486 C483 1.238 . S
O487 Co481 2.052 . S
O487 C483 1.241 . S
O488 Co476 2.137 . S
O488 C479 1.247 . S
O489 Co476 2.244 . S
O489 C479 1.272 . S
O489 Co481 2.135 . S
Co490 O491 2.216 . S
Co490 O492 2.091 . S
Co490 O494 2.004 . S
Co490 O500 2.021 . S
Co490 O502 2.137 . S
Co490 O503 2.244 . S
O491 Co490 2.216 . S
O491 C498 1.247 . S
O492 Co490 2.091 . S
O492 C498 1.261 . S
C493 O502 1.247 . S
C493 O503 1.272 . S
O494 Co490 2.004 . S
O494 C499 1.259 . S
Co495 O496 2.061 . S
Co495 O501 2.052 . S
Co495 O503 2.135 . S
O496 Co495 2.061 . S
O496 C499 1.235 . S
C497 O500 1.238 . S
C497 O501 1.241 . S
C498 O491 1.247 . S
C498 O492 1.261 . S
C499 O494 1.259 . S
C499 O496 1.235 . S
O500 Co490 2.021 . S
O500 C497 1.238 . S
O501 Co495 2.052 . S
O501 C497 1.241 . S
O502 Co490 2.137 . S
O502 C493 1.247 . S
O503 Co490 2.244 . S
O503 C493 1.272 . S
O503 Co495 2.135 . S
Co504 O505 2.216 . S
Co504 O506 2.091 . S
Co504 O508 2.004 . S
Co504 O514 2.021 . S
Co504 O516 2.137 . S
Co504 O517 2.244 . S
O505 Co504 2.216 . S
O505 C512 1.247 . S
O506 Co504 2.091 . S
O506 C512 1.261 . S
C507 O516 1.247 . S
C507 O517 1.272 . S
O508 Co504 2.004 . S
O508 C513 1.259 . S
Co509 O510 2.061 . S
Co509 O515 2.052 . S
Co509 O517 2.135 . S
O510 Co509 2.061 . S
O510 C513 1.235 . S
C511 O514 1.238 . S
C511 O515 1.241 . S
C512 O505 1.247 . S
C512 O506 1.261 . S
C513 O508 1.259 . S
C513 O510 1.235 . S
O514 Co504 2.021 . S
O514 C511 1.238 . S
O515 Co509 2.052 . S
O515 C511 1.241 . S
O516 Co504 2.137 . S
O516 C507 1.247 . S
O517 Co504 2.244 . S
O517 C507 1.272 . S
O517 Co509 2.135 . S
Co518 O519 2.216 . S
Co518 O520 2.091 . S
Co518 O522 2.004 . S
Co518 O528 2.021 . S
Co518 O530 2.137 . S
Co518 O531 2.244 . S
O519 Co518 2.216 . S
O519 C526 1.247 . S
O520 Co518 2.091 . S
O520 C526 1.261 . S
C521 O530 1.247 . S
C521 O531 1.272 . S
O522 Co518 2.004 . S
O522 C527 1.259 . S
Co523 O524 2.061 . S
Co523 O529 2.052 . S
Co523 O531 2.135 . S
O524 Co523 2.061 . S
O524 C527 1.235 . S
C525 O528 1.238 . S
C525 O529 1.241 . S
C526 O519 1.247 . S
C526 O520 1.261 . S
C527 O522 1.259 . S
C527 O524 1.235 . S
O528 Co518 2.021 . S
O528 C525 1.238 . S
O529 Co523 2.052 . S
O529 C525 1.241 . S
O530 Co518 2.137 . S
O530 C521 1.247 . S
O531 Co518 2.244 . S
O531 C521 1.272 . S
O531 Co523 2.135 . S
Co532 O533 2.216 . S
Co532 O534 2.091 . S
Co532 O536 2.004 . S
Co532 O542 2.021 . S
Co532 O544 2.137 . S
Co532 O545 2.244 . S
O533 Co532 2.216 . S
O533 C540 1.247 . S
O534 Co532 2.091 . S
O534 C540 1.261 . S
C535 O544 1.247 . S
C535 O545 1.272 . S
O536 Co532 2.004 . S
O536 C541 1.259 . S
Co537 O538 2.061 . S
Co537 O543 2.052 . S
Co537 O545 2.135 . S
O538 Co537 2.061 . S
O538 C541 1.235 . S
C539 O542 1.238 . S
C539 O543 1.241 . S
C540 O533 1.247 . S
C540 O534 1.261 . S
C541 O536 1.259 . S
C541 O538 1.235 . S
O542 Co532 2.021 . S
O542 C539 1.238 . S
O543 Co537 2.052 . S
O543 C539 1.241 . S
O544 Co532 2.137 . S
O544 C535 1.247 . S
O545 Co532 2.244 . S
O545 C535 1.272 . S
O545 Co537 2.135 . S
Co546 O547 2.216 . S
Co546 O548 2.091 . S
Co546 O550 2.004 . S
Co546 O556 2.021 . S
Co546 O558 2.137 . S
Co546 O559 2.244 . S
O547 Co546 2.216 . S
O547 C554 1.247 . S
O548 Co546 2.091 . S
O548 C554 1.261 . S
C549 O558 1.247 . S
C549 O559 1.272 . S
O550 Co546 2.004 . S
O550 C555 1.259 . S
Co551 O552 2.061 . S
Co551 O557 2.052 . S
Co551 O559 2.135 . S
O552 Co551 2.061 . S
O552 C555 1.235 . S
C553 O556 1.238 . S
C553 O557 1.241 . S
C554 O547 1.247 . S
C554 O548 1.261 . S
C555 O550 1.259 . S
C555 O552 1.235 . S
O556 Co546 2.021 . S
O556 C553 1.238 . S
O557 Co551 2.052 . S
O557 C553 1.241 . S
O558 Co546 2.137 . S
O558 C549 1.247 . S
O559 Co546 2.244 . S
O559 C549 1.272 . S
O559 Co551 2.135 . S
Co560 O561 2.216 . S
Co560 O562 2.091 . S
Co560 O564 2.004 . S
Co560 O570 2.021 . S
Co560 O572 2.137 . S
Co560 O573 2.244 . S
O561 Co560 2.216 . S
O561 C568 1.247 . S
O562 Co560 2.091 . S
O562 C568 1.261 . S
C563 O572 1.247 . S
C563 O573 1.272 . S
O564 Co560 2.004 . S
O564 C569 1.259 . S
Co565 O566 2.061 . S
Co565 O571 2.052 . S
Co565 O573 2.135 . S
O566 Co565 2.061 . S
O566 C569 1.235 . S
C567 O570 1.238 . S
C567 O571 1.241 . S
C568 O561 1.247 . S
C568 O562 1.261 . S
C569 O564 1.259 . S
C569 O566 1.235 . S
O570 Co560 2.021 . S
O570 C567 1.238 . S
O571 Co565 2.052 . S
O571 C567 1.241 . S
O572 Co560 2.137 . S
O572 C563 1.247 . S
O573 Co560 2.244 . S
O573 C563 1.272 . S
O573 Co565 2.135 . S
Co574 O575 2.216 . S
Co574 O576 2.091 . S
Co574 O578 2.004 . S
Co574 O584 2.021 . S
Co574 O586 2.137 . S
Co574 O587 2.244 . S
O575 Co574 2.216 . S
O575 C582 1.247 . S
O576 Co574 2.091 . S
O576 C582 1.261 . S
C577 O586 1.247 . S
C577 O587 1.272 . S
O578 Co574 2.004 . S
O578 C583 1.259 . S
Co579 O580 2.061 . S
Co579 O585 2.052 . S
Co579 O587 2.135 . S
O580 Co579 2.061 . S
O580 C583 1.235 . S
C581 O584 1.238 . S
C581 O585 1.241 . S
C582 O575 1.247 . S
C582 O576 1.261 . S
C583 O578 1.259 . S
C583 O580 1.235 . S
O584 Co574 2.021 . S
O584 C581 1.238 . S
O585 Co579 2.052 . S
O585 C581 1.241 . S
O586 Co574 2.137 . S
O586 C577 1.247 . S
O587 Co574 2.244 . S
O587 C577 1.272 . S
O587 Co579 2.135 . S
Co588 O589 2.216 . S
Co588 O590 2.091 . S
Co588 O592 2.004 . S
Co588 O598 2.021 . S
Co588 O600 2.137 . S
Co588 O601 2.244 . S
O589 Co588 2.216 . S
O589 C596 1.247 . S
O590 Co588 2.091 . S
O590 C596 1.261 . S
C591 O600 1.247 . S
C591 O601 1.272 . S
O592 Co588 2.004 . S
O592 C597 1.259 . S
Co593 O594 2.061 . S
Co593 O599 2.052 . S
Co593 O601 2.135 . S
O594 Co593 2.061 . S
O594 C597 1.235 . S
C595 O598 1.238 . S
C595 O599 1.241 . S
C596 O589 1.247 . S
C596 O590 1.261 . S
C597 O592 1.259 . S
C597 O594 1.235 . S
O598 Co588 2.021 . S
O598 C595 1.238 . S
O599 Co593 2.052 . S
O599 C595 1.241 . S
O600 Co588 2.137 . S
O600 C591 1.247 . S
O601 Co588 2.244 . S
O601 C591 1.272 . S
O601 Co593 2.135 . S
Co602 O603 2.216 . S
Co602 O604 2.091 . S
Co602 O606 2.004 . S
Co602 O612 2.021 . S
Co602 O614 2.137 . S
Co602 O615 2.244 . S
O603 Co602 2.216 . S
O603 C610 1.247 . S
O604 Co602 2.091 . S
O604 C610 1.261 . S
C605 O614 1.247 . S
C605 O615 1.272 . S
O606 Co602 2.004 . S
O606 C611 1.259 . S
Co607 O608 2.061 . S
Co607 O613 2.052 . S
Co607 O615 2.135 . S
O608 Co607 2.061 . S
O608 C611 1.235 . S
C609 O612 1.238 . S
C609 O613 1.241 . S
C610 O603 1.247 . S
C610 O604 1.261 . S
C611 O606 1.259 . S
C611 O608 1.235 . S
O612 Co602 2.021 . S
O612 C609 1.238 . S
O613 Co607 2.052 . S
O613 C609 1.241 . S
O614 Co602 2.137 . S
O614 C605 1.247 . S
O615 Co602 2.244 . S
O615 C605 1.272 . S
O615 Co607 2.135 . S
Co616 O617 2.216 . S
Co616 O618 2.091 . S
Co616 O620 2.004 . S
Co616 O626 2.021 . S
Co616 O628 2.137 . S
Co616 O629 2.244 . S
O617 Co616 2.216 . S
O617 C624 1.247 . S
O618 Co616 2.091 . S
O618 C624 1.261 . S
C619 O628 1.247 . S
C619 O629 1.272 . S
O620 Co616 2.004 . S
O620 C625 1.259 . S
Co621 O622 2.061 . S
Co621 O627 2.052 . S
Co621 O629 2.135 . S
O622 Co621 2.061 . S
O622 C625 1.235 . S
C623 O626 1.238 . S
C623 O627 1.241 . S
C624 O617 1.247 . S
C624 O618 1.261 . S
C625 O620 1.259 . S
C625 O622 1.235 . S
O626 Co616 2.021 . S
O626 C623 1.238 . S
O627 Co621 2.052 . S
O627 C623 1.241 . S
O628 Co616 2.137 . S
O628 C619 1.247 . S
O629 Co616 2.244 . S
O629 C619 1.272 . S
O629 Co621 2.135 . S
Co630 O631 2.216 . S
Co630 O632 2.091 . S
Co630 O634 2.004 . S
Co630 O640 2.021 . S
Co630 O642 2.137 . S
Co630 O643 2.244 . S
O631 Co630 2.216 . S
O631 C638 1.247 . S
O632 Co630 2.091 . S
O632 C638 1.261 . S
C633 O642 1.247 . S
C633 O643 1.272 . S
O634 Co630 2.004 . S
O634 C639 1.259 . S
Co635 O636 2.061 . S
Co635 O641 2.052 . S
Co635 O643 2.135 . S
O636 Co635 2.061 . S
O636 C639 1.235 . S
C637 O640 1.238 . S
C637 O641 1.241 . S
C638 O631 1.247 . S
C638 O632 1.261 . S
C639 O634 1.259 . S
C639 O636 1.235 . S
O640 Co630 2.021 . S
O640 C637 1.238 . S
O641 Co635 2.052 . S
O641 C637 1.241 . S
O642 Co630 2.137 . S
O642 C633 1.247 . S
O643 Co630 2.244 . S
O643 C633 1.272 . S
O643 Co635 2.135 . S
Co644 O645 2.216 . S
Co644 O646 2.091 . S
Co644 O648 2.004 . S
Co644 O654 2.021 . S
Co644 O656 2.137 . S
Co644 O657 2.244 . S
O645 Co644 2.216 . S
O645 C652 1.247 . S
O646 Co644 2.091 . S
O646 C652 1.261 . S
C647 O656 1.247 . S
C647 O657 1.272 . S
O648 Co644 2.004 . S
O648 C653 1.259 . S
Co649 O650 2.061 . S
Co649 O655 2.052 . S
Co649 O657 2.135 . S
O650 Co649 2.061 . S
O650 C653 1.235 . S
C651 O654 1.238 . S
C651 O655 1.241 . S
C652 O645 1.247 . S
C652 O646 1.261 . S
C653 O648 1.259 . S
C653 O650 1.235 . S
O654 Co644 2.021 . S
O654 C651 1.238 . S
O655 Co649 2.052 . S
O655 C651 1.241 . S
O656 Co644 2.137 . S
O656 C647 1.247 . S
O657 Co644 2.244 . S
O657 C647 1.272 . S
O657 Co649 2.135 . S
Co658 O659 2.216 . S
Co658 O660 2.091 . S
Co658 O662 2.004 . S
Co658 O668 2.021 . S
Co658 O670 2.137 . S
Co658 O671 2.244 . S
O659 Co658 2.216 . S
O659 C666 1.247 . S
O660 Co658 2.091 . S
O660 C666 1.261 . S
C661 O670 1.247 . S
C661 O671 1.272 . S
O662 Co658 2.004 . S
O662 C667 1.259 . S
Co663 O664 2.061 . S
Co663 O669 2.052 . S
Co663 O671 2.135 . S
O664 Co663 2.061 . S
O664 C667 1.235 . S
C665 O668 1.238 . S
C665 O669 1.241 . S
C666 O659 1.247 . S
C666 O660 1.261 . S
C667 O662 1.259 . S
C667 O664 1.235 . S
O668 Co658 2.021 . S
O668 C665 1.238 . S
O669 Co663 2.052 . S
O669 C665 1.241 . S
O670 Co658 2.137 . S
O670 C661 1.247 . S
O671 Co658 2.244 . S
O671 C661 1.272 . S
O671 Co663 2.135 . S
C672 C673 1.349 . S
C672 C674 1.327 . S
C672 H697 0.950 . S
C673 C672 1.349 . S
C673 C689 1.349 . S
C674 C672 1.327 . S
C674 C693 1.429 . S
C674 H698 0.950 . S
C675 C692 1.574 . S
C675 C694 1.368 . S
C675 H699 0.949 . S
H676 C680 0.949 . S
C677 C678 1.349 . S
C677 C679 1.327 . S
C677 H700 0.950 . S
C678 C677 1.349 . S
C678 C690 1.349 . S
C679 C677 1.327 . S
C679 C695 1.429 . S
C679 H701 0.950 . S
C680 H676 0.949 . S
C680 C688 1.574 . S
C680 C696 1.368 . S
H681 C689 0.950 . S
H682 C687 0.950 . S
H683 C688 0.949 . S
H684 C690 0.950 . S
H685 C691 0.950 . S
H686 C692 0.949 . S
C687 H682 0.950 . S
C687 C689 1.327 . S
C687 C693 1.429 . S
C688 C680 1.574 . S
C688 H683 0.949 . S
C688 C694 1.368 1_455 S
C689 C673 1.349 . S
C689 H681 0.950 . S
C689 C687 1.327 . S
C690 C678 1.349 . S
C690 H684 0.950 . S
C690 C691 1.327 . S
C691 H685 0.950 . S
C691 C690 1.327 . S
C691 C695 1.429 . S
C692 C675 1.574 . S
C692 H686 0.949 . S
C692 C696 1.368 1_655 S
C693 C674 1.429 . S
C693 C687 1.429 . S
C693 C694 1.523 . S
C694 C675 1.368 . S
C694 C688 1.368 1_655 S
C694 C693 1.523 . S
C695 C679 1.429 . S
C695 C691 1.429 . S
C695 C696 1.523 . S
C696 C680 1.368 . S
C696 C692 1.368 1_455 S
C696 C695 1.523 . S
H697 C672 0.950 . S
H698 C674 0.950 . S
H699 C675 0.949 . S
H700 C677 0.950 . S
H701 C679 0.950 . S
C702 C703 1.349 . S
C702 C704 1.327 . S
C702 H727 0.950 . S
C703 C702 1.349 . S
C703 C719 1.349 . S
C704 C702 1.327 . S
C704 C723 1.429 . S
C704 H728 0.950 . S
C705 C722 1.574 . S
C705 C724 1.368 1_545 S
C705 H729 0.949 . S
H706 C710 0.949 . S
C707 C708 1.349 . S
C707 C709 1.327 . S
C707 H730 0.950 . S
C708 C707 1.349 . S
C708 C720 1.349 . S
C709 C707 1.327 . S
C709 C725 1.429 . S
C709 H731 0.950 . S
C710 H706 0.949 . S
C710 C718 1.574 . S
C710 C726 1.368 1_565 S
H711 C719 0.950 . S
H712 C717 0.950 . S
H713 C718 0.949 . S
H714 C720 0.950 . S
H715 C721 0.950 . S
H716 C722 0.949 . S
C717 H712 0.950 . S
C717 C719 1.327 . S
C717 C723 1.429 . S
C718 C710 1.574 . S
C718 H713 0.949 . S
C718 C724 1.368 . S
C719 C703 1.349 . S
C719 H711 0.950 . S
C719 C717 1.327 . S
C720 C708 1.349 . S
C720 H714 0.950 . S
C720 C721 1.327 . S
C721 H715 0.950 . S
C721 C720 1.327 . S
C721 C725 1.429 . S
C722 C705 1.574 . S
C722 H716 0.949 . S
C722 C726 1.368 . S
C723 C704 1.429 . S
C723 C717 1.429 . S
C723 C724 1.523 . S
C724 C705 1.368 1_565 S
C724 C718 1.368 . S
C724 C723 1.523 . S
C725 C709 1.429 . S
C725 C721 1.429 . S
C725 C726 1.523 . S
C726 C710 1.368 1_545 S
C726 C722 1.368 . S
C726 C725 1.523 . S
H727 C702 0.950 . S
H728 C704 0.950 . S
H729 C705 0.949 . S
H730 C707 0.950 . S
H731 C709 0.950 . S
C732 C733 1.349 . S
C732 C734 1.327 . S
C732 H757 0.950 . S
C733 C732 1.349 . S
C733 C749 1.349 . S
C734 C732 1.327 . S
C734 C753 1.429 . S
C734 H758 0.950 . S
C735 C752 1.574 1_455 S
C735 C754 1.368 . S
C735 H759 0.949 . S
H736 C740 0.949 . S
C737 C738 1.349 . S
C737 C739 1.327 . S
C737 H760 0.950 . S
C738 C737 1.349 . S
C738 C750 1.349 . S
C739 C737 1.327 . S
C739 C755 1.429 . S
C739 H761 0.950 . S
C740 H736 0.949 . S
C740 C748 1.574 1_655 S
C740 C756 1.368 . S
H741 C749 0.950 . S
H742 C747 0.950 . S
H743 C748 0.949 . S
H744 C750 0.950 . S
H745 C751 0.950 . S
H746 C752 0.949 . S
C747 H742 0.950 . S
C747 C749 1.327 . S
C747 C753 1.429 . S
C748 C740 1.574 1_455 S
C748 H743 0.949 . S
C748 C754 1.368 . S
C749 C733 1.349 . S
C749 H741 0.950 . S
C749 C747 1.327 . S
C750 C738 1.349 . S
C750 H744 0.950 . S
C750 C751 1.327 . S
C751 H745 0.950 . S
C751 C750 1.327 . S
C751 C755 1.429 . S
C752 C735 1.574 1_655 S
C752 H746 0.949 . S
C752 C756 1.368 . S
C753 C734 1.429 . S
C753 C747 1.429 . S
C753 C754 1.523 . S
C754 C735 1.368 . S
C754 C748 1.368 . S
C754 C753 1.523 . S
C755 C739 1.429 . S
C755 C751 1.429 . S
C755 C756 1.523 . S
C756 C740 1.368 . S
C756 C752 1.368 . S
C756 C755 1.523 . S
H757 C732 0.950 . S
H758 C734 0.950 . S
H759 C735 0.949 . S
H760 C737 0.950 . S
H761 C739 0.950 . S
C762 C763 1.349 . S
C762 C764 1.327 . S
C762 H787 0.950 . S
C763 C762 1.349 . S
C763 C779 1.349 . S
C764 C762 1.327 . S
C764 C783 1.429 . S
C764 H788 0.950 . S
C765 C782 1.574 1_565 S
C765 C784 1.368 . S
C765 H789 0.949 . S
H766 C770 0.949 . S
C767 C768 1.349 . S
C767 C769 1.327 . S
C767 H790 0.950 . S
C768 C767 1.349 . S
C768 C780 1.349 . S
C769 C767 1.327 . S
C769 C785 1.429 . S
C769 H791 0.950 . S
C770 H766 0.949 . S
C770 C778 1.574 1_545 S
C770 C786 1.368 . S
H771 C779 0.950 . S
H772 C777 0.950 . S
H773 C778 0.949 . S
H774 C780 0.950 . S
H775 C781 0.950 . S
H776 C782 0.949 . S
C777 H772 0.950 . S
C777 C779 1.327 . S
C777 C783 1.429 . S
C778 C770 1.574 1_565 S
C778 H773 0.949 . S
C778 C784 1.368 . S
C779 C763 1.349 . S
C779 H771 0.950 . S
C779 C777 1.327 . S
C780 C768 1.349 . S
C780 H774 0.950 . S
C780 C781 1.327 . S
C781 H775 0.950 . S
C781 C780 1.327 . S
C781 C785 1.429 . S
C782 C765 1.574 1_545 S
C782 H776 0.949 . S
C782 C786 1.368 . S
C783 C764 1.429 . S
C783 C777 1.429 . S
C783 C784 1.523 . S
C784 C765 1.368 . S
C784 C778 1.368 . S
C784 C783 1.523 . S
C785 C769 1.429 . S
C785 C781 1.429 . S
C785 C786 1.523 . S
C786 C770 1.368 . S
C786 C782 1.368 . S
C786 C785 1.523 . S
H787 C762 0.950 . S
H788 C764 0.950 . S
H789 C765 0.949 . S
H790 C767 0.950 . S
H791 C769 0.950 . S
C792 C793 1.349 . S
C792 C794 1.327 . S
C792 H817 0.950 . S
C793 C792 1.349 . S
C793 C809 1.349 . S
C794 C792 1.327 . S
C794 C813 1.429 . S
C794 H818 0.950 . S
C795 C812 1.574 . S
C795 C814 1.368 . S
C795 H819 0.949 . S
H796 C800 0.949 . S
C797 C798 1.349 . S
C797 C799 1.327 . S
C797 H820 0.950 . S
C798 C797 1.349 . S
C798 C810 1.349 . S
C799 C797 1.327 . S
C799 C815 1.429 . S
C799 H821 0.950 . S
C800 H796 0.949 . S
C800 C808 1.574 . S
C800 C816 1.368 . S
H801 C809 0.950 . S
H802 C807 0.950 . S
H803 C808 0.949 . S
H804 C810 0.950 . S
H805 C811 0.950 . S
H806 C812 0.949 . S
C807 H802 0.950 . S
C807 C809 1.327 . S
C807 C813 1.429 . S
C808 C800 1.574 . S
C808 H803 0.949 . S
C808 C814 1.368 1_455 S
C809 C793 1.349 . S
C809 H801 0.950 . S
C809 C807 1.327 . S
C810 C798 1.349 . S
C810 H804 0.950 . S
C810 C811 1.327 . S
C811 H805 0.950 . S
C811 C810 1.327 . S
C811 C815 1.429 . S
C812 C795 1.574 . S
C812 H806 0.949 . S
C812 C816 1.368 1_655 S
C813 C794 1.429 . S
C813 C807 1.429 . S
C813 C814 1.523 . S
C814 C795 1.368 . S
C814 C808 1.368 1_655 S
C814 C813 1.523 . S
C815 C799 1.429 . S
C815 C811 1.429 . S
C815 C816 1.523 . S
C816 C800 1.368 . S
C816 C812 1.368 1_455 S
C816 C815 1.523 . S
H817 C792 0.950 . S
H818 C794 0.950 . S
H819 C795 0.949 . S
H820 C797 0.950 . S
H821 C799 0.950 . S
C822 C823 1.349 . S
C822 C824 1.327 . S
C822 H847 0.950 . S
C823 C822 1.349 . S
C823 C839 1.349 . S
C824 C822 1.327 . S
C824 C843 1.429 . S
C824 H848 0.950 . S
C825 C842 1.574 . S
C825 C844 1.368 1_565 S
C825 H849 0.949 . S
H826 C830 0.949 . S
C827 C828 1.349 . S
C827 C829 1.327 . S
C827 H850 0.950 . S
C828 C827 1.349 . S
C828 C840 1.349 . S
C829 C827 1.327 . S
C829 C845 1.429 . S
C829 H851 0.950 . S
C830 H826 0.949 . S
C830 C838 1.574 . S
C830 C846 1.368 1_545 S
H831 C839 0.950 . S
H832 C837 0.950 . S
H833 C838 0.949 . S
H834 C840 0.950 . S
H835 C841 0.950 . S
H836 C842 0.949 . S
C837 H832 0.950 . S
C837 C839 1.327 . S
C837 C843 1.429 . S
C838 C830 1.574 . S
C838 H833 0.949 . S
C838 C844 1.368 . S
C839 C823 1.349 . S
C839 H831 0.950 . S
C839 C837 1.327 . S
C840 C828 1.349 . S
C840 H834 0.950 . S
C840 C841 1.327 . S
C841 H835 0.950 . S
C841 C840 1.327 . S
C841 C845 1.429 . S
C842 C825 1.574 . S
C842 H836 0.949 . S
C842 C846 1.368 . S
C843 C824 1.429 . S
C843 C837 1.429 . S
C843 C844 1.523 . S
C844 C825 1.368 1_545 S
C844 C838 1.368 . S
C844 C843 1.523 . S
C845 C829 1.429 . S
C845 C841 1.429 . S
C845 C846 1.523 . S
C846 C830 1.368 1_565 S
C846 C842 1.368 . S
C846 C845 1.523 . S
H847 C822 0.950 . S
H848 C824 0.950 . S
H849 C825 0.949 . S
H850 C827 0.950 . S
H851 C829 0.950 . S
C852 C853 1.349 . S
C852 C854 1.327 . S
C852 H877 0.950 . S
C853 C852 1.349 . S
C853 C869 1.349 . S
C854 C852 1.327 . S
C854 C873 1.429 . S
C854 H878 0.950 . S
C855 C872 1.602 . S
C855 C874 1.368 . S
C855 H879 0.949 . S
H856 C860 0.949 . S
C857 C858 1.349 . S
C857 C859 1.327 . S
C857 H880 0.950 . S
C858 C857 1.349 . S
C858 C870 1.349 . S
C859 C857 1.327 . S
C859 C875 1.429 . S
C859 H881 0.950 . S
C860 H856 0.949 . S
C860 C868 1.602 . S
C860 C876 1.368 . S
H861 C869 0.950 . S
H862 C867 0.950 . S
H863 C868 0.949 . S
H864 C870 0.950 . S
H865 C871 0.950 . S
H866 C872 0.949 . S
C867 H862 0.950 . S
C867 C869 1.327 . S
C867 C873 1.429 . S
C868 C860 1.602 . S
C868 H863 0.949 . S
C868 C874 1.340 1_655 S
C869 C853 1.349 . S
C869 H861 0.950 . S
C869 C867 1.327 . S
C870 C858 1.349 . S
C870 H864 0.950 . S
C870 C871 1.327 . S
C871 H865 0.950 . S
C871 C870 1.327 . S
C871 C875 1.429 . S
C872 C855 1.602 . S
C872 H866 0.949 . S
C872 C876 1.340 1_455 S
C873 C854 1.429 . S
C873 C867 1.429 . S
C873 C874 1.523 . S
C874 C855 1.368 . S
C874 C868 1.340 1_455 S
C874 C873 1.523 . S
C875 C859 1.429 . S
C875 C871 1.429 . S
C875 C876 1.523 . S
C876 C860 1.368 . S
C876 C872 1.340 1_655 S
C876 C875 1.523 . S
H877 C852 0.950 . S
H878 C854 0.950 . S
H879 C855 0.949 . S
H880 C857 0.950 . S
H881 C859 0.950 . S
C882 C883 1.349 . S
C882 C884 1.327 . S
C882 H907 0.950 . S
C883 C882 1.349 . S
C883 C899 1.349 . S
C884 C882 1.327 . S
C884 C903 1.429 . S
C884 H908 0.950 . S
C885 C902 1.574 1_545 S
C885 C904 1.368 . S
C885 H909 0.949 . S
H886 C890 0.949 . S
C887 C888 1.349 . S
C887 C889 1.327 . S
C887 H910 0.950 . S
C888 C887 1.349 . S
C888 C900 1.349 . S
C889 C887 1.327 . S
C889 C905 1.429 . S
C889 H911 0.950 . S
C890 H886 0.949 . S
C890 C898 1.574 1_565 S
C890 C906 1.368 . S
H891 C899 0.950 . S
H892 C897 0.950 . S
H893 C898 0.949 . S
H894 C900 0.950 . S
H895 C901 0.950 . S
H896 C902 0.949 . S
C897 H892 0.950 . S
C897 C899 1.327 . S
C897 C903 1.429 . S
C898 C890 1.574 1_545 S
C898 H893 0.949 . S
C898 C904 1.368 . S
C899 C883 1.349 . S
C899 H891 0.950 . S
C899 C897 1.327 . S
C900 C888 1.349 . S
C900 H894 0.950 . S
C900 C901 1.327 . S
C901 H895 0.950 . S
C901 C900 1.327 . S
C901 C905 1.429 . S
C902 C885 1.574 1_565 S
C902 H896 0.949 . S
C902 C906 1.368 . S
C903 C884 1.429 . S
C903 C897 1.429 . S
C903 C904 1.523 . S
C904 C885 1.368 . S
C904 C898 1.368 . S
C904 C903 1.523 . S
C905 C889 1.429 . S
C905 C901 1.429 . S
C905 C906 1.523 . S
C906 C890 1.368 . S
C906 C902 1.368 . S
C906 C905 1.523 . S
H907 C882 0.950 . S
H908 C884 0.950 . S
H909 C885 0.949 . S
H910 C887 0.950 . S
H911 C889 0.950 . S
C912 C913 1.349 . S
C912 C914 1.327 . S
C912 H937 0.950 . S
C913 C912 1.349 . S
C913 C929 1.349 . S
C914 C912 1.327 . S
C914 C933 1.429 . S
C914 H938 0.950 . S
C915 C932 1.574 1_554 S
C915 C934 1.368 . S
C915 H939 0.949 . S
H916 C920 0.949 . S
C917 C918 1.349 . S
C917 C919 1.327 . S
C917 H940 0.950 . S
C918 C917 1.349 . S
C918 C930 1.349 . S
C919 C917 1.327 . S
C919 C935 1.429 . S
C919 H941 0.950 . S
C920 H916 0.949 . S
C920 C928 1.574 1_556 S
C920 C936 1.368 . S
H921 C929 0.950 . S
H922 C927 0.950 . S
H923 C928 0.949 . S
H924 C930 0.950 . S
H925 C931 0.950 . S
H926 C932 0.949 . S
C927 H922 0.950 . S
C927 C929 1.327 . S
C927 C933 1.429 . S
C928 C920 1.574 1_554 S
C928 H923 0.949 . S
C928 C934 1.368 . S
C929 C913 1.349 . S
C929 H921 0.950 . S
C929 C927 1.327 . S
C930 C918 1.349 . S
C930 H924 0.950 . S
C930 C931 1.327 . S
C931 H925 0.950 . S
C931 C930 1.327 . S
C931 C935 1.429 . S
C932 C915 1.574 1_556 S
C932 H926 0.949 . S
C932 C936 1.368 . S
C933 C914 1.429 . S
C933 C927 1.429 . S
C933 C934 1.523 . S
C934 C915 1.368 . S
C934 C928 1.368 . S
C934 C933 1.523 . S
C935 C919 1.429 . S
C935 C931 1.429 . S
C935 C936 1.523 . S
C936 C920 1.368 . S
C936 C932 1.368 . S
C936 C935 1.523 . S
H937 C912 0.950 . S
H938 C914 0.950 . S
H939 C915 0.949 . S
H940 C917 0.950 . S
H941 C919 0.950 . S
C942 C943 1.349 . S
C942 C944 1.327 . S
C942 H967 0.950 . S
C943 C942 1.349 . S
C943 C959 1.349 . S
C944 C942 1.327 . S
C944 C963 1.429 . S
C944 H968 0.950 . S
C945 C962 1.574 1_556 S
C945 C964 1.368 . S
C945 H969 0.949 . S
H946 C950 0.949 . S
C947 C948 1.349 . S
C947 C949 1.327 . S
C947 H970 0.950 . S
C948 C947 1.349 . S
C948 C960 1.349 . S
C949 C947 1.327 . S
C949 C965 1.429 . S
C949 H971 0.950 . S
C950 H946 0.949 . S
C950 C958 1.574 1_554 S
C950 C966 1.368 . S
H951 C959 0.950 . S
H952 C957 0.950 . S
H953 C958 0.949 . S
H954 C960 0.950 . S
H955 C961 0.950 . S
H956 C962 0.949 . S
C957 H952 0.950 . S
C957 C959 1.327 . S
C957 C963 1.429 . S
C958 C950 1.574 1_556 S
C958 H953 0.949 . S
C958 C964 1.368 . S
C959 C943 1.349 . S
C959 H951 0.950 . S
C959 C957 1.327 . S
C960 C948 1.349 . S
C960 H954 0.950 . S
C960 C961 1.327 . S
C961 H955 0.950 . S
C961 C960 1.327 . S
C961 C965 1.429 . S
C962 C945 1.574 1_554 S
C962 H956 0.949 . S
C962 C966 1.368 . S
C963 C944 1.429 . S
C963 C957 1.429 . S
C963 C964 1.523 . S
C964 C945 1.368 . S
C964 C958 1.368 . S
C964 C963 1.523 . S
C965 C949 1.429 . S
C965 C961 1.429 . S
C965 C966 1.523 . S
C966 C950 1.368 . S
C966 C962 1.368 . S
C966 C965 1.523 . S
H967 C942 0.950 . S
H968 C944 0.950 . S
H969 C945 0.949 . S
H970 C947 0.950 . S
H971 C949 0.950 . S
C972 C973 1.349 . S
C972 C974 1.327 . S
C972 H997 0.950 . S
C973 C972 1.349 . S
C973 C989 1.349 . S
C974 C972 1.327 . S
C974 C993 1.429 . S
C974 H998 0.950 . S
C975 C992 1.574 . S
C975 C994 1.368 . S
C975 H999 0.949 . S
H976 C980 0.949 . S
C977 C978 1.349 . S
C977 C979 1.327 . S
C977 H1000 0.950 . S
C978 C977 1.349 . S
C978 C990 1.349 . S
C979 C977 1.327 . S
C979 C995 1.429 . S
C979 H1001 0.950 . S
C980 H976 0.949 . S
C980 C988 1.574 . S
C980 C996 1.368 . S
H981 C989 0.950 . S
H982 C987 0.950 . S
H983 C988 0.949 . S
H984 C990 0.950 . S
H985 C991 0.950 . S
H986 C992 0.949 . S
C987 H982 0.950 . S
C987 C989 1.327 . S
C987 C993 1.429 . S
C988 C980 1.574 . S
C988 H983 0.949 . S
C988 C994 1.368 1_554 S
C989 C973 1.349 . S
C989 H981 0.950 . S
C989 C987 1.327 . S
C990 C978 1.349 . S
C990 H984 0.950 . S
C990 C991 1.327 . S
C991 H985 0.950 . S
C991 C990 1.327 . S
C991 C995 1.429 . S
C992 C975 1.574 . S
C992 H986 0.949 . S
C992 C996 1.368 1_556 S
C993 C974 1.429 . S
C993 C987 1.429 . S
C993 C994 1.523 . S
C994 C975 1.368 . S
C994 C988 1.368 1_556 S
C994 C993 1.523 . S
C995 C979 1.429 . S
C995 C991 1.429 . S
C995 C996 1.523 . S
C996 C980 1.368 . S
C996 C992 1.368 1_554 S
C996 C995 1.523 . S
H997 C972 0.950 . S
H998 C974 0.950 . S
H999 C975 0.949 . S
H1000 C977 0.950 . S
H1001 C979 0.950 . S
C1002 C1003 1.349 . S
C1002 C1004 1.327 . S
C1002 H1027 0.950 . S
C1003 C1002 1.349 . S
C1003 C1019 1.349 . S
C1004 C1002 1.327 . S
C1004 C1023 1.429 . S
C1004 H1028 0.950 . S
C1005 C1022 1.574 . S
C1005 C1024 1.368 1_554 S
C1005 H1029 0.949 . S
H1006 C1010 0.949 . S
C1007 C1008 1.349 . S
C1007 C1009 1.327 . S
C1007 H1030 0.950 . S
C1008 C1007 1.349 . S
C1008 C1020 1.349 . S
C1009 C1007 1.327 . S
C1009 C1025 1.429 . S
C1009 H1031 0.950 . S
C1010 H1006 0.949 . S
C1010 C1018 1.574 . S
C1010 C1026 1.368 1_556 S
H1011 C1019 0.950 . S
H1012 C1017 0.950 . S
H1013 C1018 0.949 . S
H1014 C1020 0.950 . S
H1015 C1021 0.950 . S
H1016 C1022 0.949 . S
C1017 H1012 0.950 . S
C1017 C1019 1.327 . S
C1017 C1023 1.429 . S
C1018 C1010 1.574 . S
C1018 H1013 0.949 . S
C1018 C1024 1.368 . S
C1019 C1003 1.349 . S
C1019 H1011 0.950 . S
C1019 C1017 1.327 . S
C1020 C1008 1.349 . S
C1020 H1014 0.950 . S
C1020 C1021 1.327 . S
C1021 H1015 0.950 . S
C1021 C1020 1.327 . S
C1021 C1025 1.429 . S
C1022 C1005 1.574 . S
C1022 H1016 0.949 . S
C1022 C1026 1.368 . S
C1023 C1004 1.429 . S
C1023 C1017 1.429 . S
C1023 C1024 1.523 . S
C1024 C1005 1.368 1_556 S
C1024 C1018 1.368 . S
C1024 C1023 1.523 . S
C1025 C1009 1.429 . S
C1025 C1021 1.429 . S
C1025 C1026 1.523 . S
C1026 C1010 1.368 1_554 S
C1026 C1022 1.368 . S
C1026 C1025 1.523 . S
H1027 C1002 0.950 . S
H1028 C1004 0.950 . S
H1029 C1005 0.949 . S
H1030 C1007 0.950 . S
H1031 C1009 0.950 . S
C1032 C1033 1.349 . S
C1032 C1034 1.327 . S
C1032 H1057 0.950 . S
C1033 C1032 1.349 . S
C1033 C1049 1.349 . S
C1034 C1032 1.327 . S
C1034 C1053 1.429 . S
C1034 H1058 0.950 . S
C1035 C1052 1.574 . S
C1035 C1054 1.368 . S
C1035 H1059 0.949 . S
H1036 C1040 0.949 . S
C1037 C1038 1.349 . S
C1037 C1039 1.327 . S
C1037 H1060 0.950 . S
C1038 C1037 1.349 . S
C1038 C1050 1.349 . S
C1039 C1037 1.327 . S
C1039 C1055 1.429 . S
C1039 H1061 0.950 . S
C1040 H1036 0.949 . S
C1040 C1048 1.574 . S
C1040 C1056 1.368 . S
H1041 C1049 0.950 . S
H1042 C1047 0.950 . S
H1043 C1048 0.949 . S
H1044 C1050 0.950 . S
H1045 C1051 0.950 . S
H1046 C1052 0.949 . S
C1047 H1042 0.950 . S
C1047 C1049 1.327 . S
C1047 C1053 1.429 . S
C1048 C1040 1.574 . S
C1048 H1043 0.949 . S
C1048 C1054 1.368 . S
C1049 C1033 1.349 . S
C1049 H1041 0.950 . S
C1049 C1047 1.327 . S
C1050 C1038 1.349 . S
C1050 H1044 0.950 . S
C1050 C1051 1.327 . S
C1051 H1045 0.950 . S
C1051 C1050 1.327 . S
C1051 C1055 1.429 . S
C1052 C1035 1.574 . S
C1052 H1046 0.949 . S
C1052 C1056 1.368 . S
C1053 C1034 1.429 . S
C1053 C1047 1.429 . S
C1053 C1054 1.523 . S
C1054 C1035 1.368 . S
C1054 C1048 1.368 . S
C1054 C1053 1.523 . S
C1055 C1039 1.429 . S
C1055 C1051 1.429 . S
C1055 C1056 1.523 . S
C1056 C1040 1.368 . S
C1056 C1052 1.368 . S
C1056 C1055 1.523 . S
H1057 C1032 0.950 . S
H1058 C1034 0.950 . S
H1059 C1035 0.949 . S
H1060 C1037 0.950 . S
H1061 C1039 0.950 . S
C1062 C1063 1.349 . S
C1062 C1064 1.327 . S
C1062 H1087 0.950 . S
C1063 C1062 1.349 . S
C1063 C1079 1.349 . S
C1064 C1062 1.327 . S
C1064 C1083 1.429 . S
C1064 H1088 0.950 . S
C1065 C1082 1.574 . S
C1065 C1084 1.368 . S
C1065 H1089 0.949 . S
H1066 C1070 0.949 . S
C1067 C1068 1.349 . S
C1067 C1069 1.327 . S
C1067 H1090 0.950 . S
C1068 C1067 1.349 . S
C1068 C1080 1.349 . S
C1069 C1067 1.327 . S
C1069 C1085 1.429 . S
C1069 H1091 0.950 . S
C1070 H1066 0.949 . S
C1070 C1078 1.574 . S
C1070 C1086 1.368 . S
H1071 C1079 0.950 . S
H1072 C1077 0.950 . S
H1073 C1078 0.949 . S
H1074 C1080 0.950 . S
H1075 C1081 0.950 . S
H1076 C1082 0.949 . S
C1077 H1072 0.950 . S
C1077 C1079 1.327 . S
C1077 C1083 1.429 . S
C1078 C1070 1.574 . S
C1078 H1073 0.949 . S
C1078 C1084 1.368 . S
C1079 C1063 1.349 . S
C1079 H1071 0.950 . S
C1079 C1077 1.327 . S
C1080 C1068 1.349 . S
C1080 H1074 0.950 . S
C1080 C1081 1.327 . S
C1081 H1075 0.950 . S
C1081 C1080 1.327 . S
C1081 C1085 1.429 . S
C1082 C1065 1.574 . S
C1082 H1076 0.949 . S
C1082 C1086 1.368 . S
C1083 C1064 1.429 . S
C1083 C1077 1.429 . S
C1083 C1084 1.523 . S
C1084 C1065 1.368 . S
C1084 C1078 1.368 . S
C1084 C1083 1.523 . S
C1085 C1069 1.429 . S
C1085 C1081 1.429 . S
C1085 C1086 1.523 . S
C1086 C1070 1.368 . S
C1086 C1082 1.368 . S
C1086 C1085 1.523 . S
H1087 C1062 0.950 . S
H1088 C1064 0.950 . S
H1089 C1065 0.949 . S
H1090 C1067 0.950 . S
H1091 C1069 0.950 . S
C1092 C1093 1.349 . S
C1092 C1094 1.327 . S
C1092 H1117 0.950 . S
C1093 C1092 1.349 . S
C1093 C1109 1.349 . S
C1094 C1092 1.327 . S
C1094 C1113 1.429 . S
C1094 H1118 0.950 . S
C1095 C1112 1.574 . S
C1095 C1114 1.368 . S
C1095 H1119 0.949 . S
H1096 C1100 0.949 . S
C1097 C1098 1.349 . S
C1097 C1099 1.327 . S
C1097 H1120 0.950 . S
C1098 C1097 1.349 . S
C1098 C1110 1.349 . S
C1099 C1097 1.327 . S
C1099 C1115 1.429 . S
C1099 H1121 0.950 . S
C1100 H1096 0.949 . S
C1100 C1108 1.574 . S
C1100 C1116 1.368 . S
H1101 C1109 0.950 . S
H1102 C1107 0.950 . S
H1103 C1108 0.949 . S
H1104 C1110 0.950 . S
H1105 C1111 0.950 . S
H1106 C1112 0.949 . S
C1107 H1102 0.950 . S
C1107 C1109 1.327 . S
C1107 C1113 1.429 . S
C1108 C1100 1.574 . S
C1108 H1103 0.949 . S
C1108 C1114 1.368 . S
C1109 C1093 1.349 . S
C1109 H1101 0.950 . S
C1109 C1107 1.327 . S
C1110 C1098 1.349 . S
C1110 H1104 0.950 . S
C1110 C1111 1.327 . S
C1111 H1105 0.950 . S
C1111 C1110 1.327 . S
C1111 C1115 1.429 . S
C1112 C1095 1.574 . S
C1112 H1106 0.949 . S
C1112 C1116 1.368 . S
C1113 C1094 1.429 . S
C1113 C1107 1.429 . S
C1113 C1114 1.523 . S
C1114 C1095 1.368 . S
C1114 C1108 1.368 . S
C1114 C1113 1.523 . S
C1115 C1099 1.429 . S
C1115 C1111 1.429 . S
C1115 C1116 1.523 . S
C1116 C1100 1.368 . S
C1116 C1112 1.368 . S
C1116 C1115 1.523 . S
H1117 C1092 0.950 . S
H1118 C1094 0.950 . S
H1119 C1095 0.949 . S
H1120 C1097 0.950 . S
H1121 C1099 0.950 . S
C1122 C1123 1.349 . S
C1122 C1124 1.327 . S
C1122 H1147 0.950 . S
C1123 C1122 1.349 . S
C1123 C1139 1.349 . S
C1124 C1122 1.327 . S
C1124 C1143 1.429 . S
C1124 H1148 0.950 . S
C1125 C1142 1.574 . S
C1125 C1144 1.368 . S
C1125 H1149 0.949 . S
H1126 C1130 0.949 . S
C1127 C1128 1.349 . S
C1127 C1129 1.327 . S
C1127 H1150 0.950 . S
C1128 C1127 1.349 . S
C1128 C1140 1.349 . S
C1129 C1127 1.327 . S
C1129 C1145 1.429 . S
C1129 H1151 0.950 . S
C1130 H1126 0.949 . S
C1130 C1138 1.574 . S
C1130 C1146 1.368 . S
H1131 C1139 0.950 . S
H1132 C1137 0.950 . S
H1133 C1138 0.949 . S
H1134 C1140 0.950 . S
H1135 C1141 0.950 . S
H1136 C1142 0.949 . S
C1137 H1132 0.950 . S
C1137 C1139 1.327 . S
C1137 C1143 1.429 . S
C1138 C1130 1.574 . S
C1138 H1133 0.949 . S
C1138 C1144 1.368 . S
C1139 C1123 1.349 . S
C1139 H1131 0.950 . S
C1139 C1137 1.327 . S
C1140 C1128 1.349 . S
C1140 H1134 0.950 . S
C1140 C1141 1.327 . S
C1141 H1135 0.950 . S
C1141 C1140 1.327 . S
C1141 C1145 1.429 . S
C1142 C1125 1.574 . S
C1142 H1136 0.949 . S
C1142 C1146 1.368 . S
C1143 C1124 1.429 . S
C1143 C1137 1.429 . S
C1143 C1144 1.523 . S
C1144 C1125 1.368 . S
C1144 C1138 1.368 . S
C1144 C1143 1.523 . S
C1145 C1129 1.429 . S
C1145 C1141 1.429 . S
C1145 C1146 1.523 . S
C1146 C1130 1.368 . S
C1146 C1142 1.368 . S
C1146 C1145 1.523 . S
H1147 C1122 0.950 . S
H1148 C1124 0.950 . S
H1149 C1125 0.949 . S
H1150 C1127 0.950 . S
H1151 C1129 0.950 . S
C1152 C1153 1.349 . S
C1152 C1154 1.327 . S
C1152 H1177 0.950 . S
C1153 C1152 1.349 . S
C1153 C1169 1.349 . S
C1154 C1152 1.327 . S
C1154 C1173 1.429 . S
C1154 H1178 0.950 . S
C1155 C1172 1.574 . S
C1155 C1174 1.368 . S
C1155 H1179 0.949 . S
H1156 C1160 0.949 . S
C1157 C1158 1.349 . S
C1157 C1159 1.327 . S
C1157 H1180 0.950 . S
C1158 C1157 1.349 . S
C1158 C1170 1.349 . S
C1159 C1157 1.327 . S
C1159 C1175 1.429 . S
C1159 H1181 0.950 . S
C1160 H1156 0.949 . S
C1160 C1168 1.574 . S
C1160 C1176 1.368 . S
H1161 C1169 0.950 . S
H1162 C1167 0.950 . S
H1163 C1168 0.949 . S
H1164 C1170 0.950 . S
H1165 C1171 0.950 . S
H1166 C1172 0.949 . S
C1167 H1162 0.950 . S
C1167 C1169 1.327 . S
C1167 C1173 1.429 . S
C1168 C1160 1.574 . S
C1168 H1163 0.949 . S
C1168 C1174 1.368 . S
C1169 C1153 1.349 . S
C1169 H1161 0.950 . S
C1169 C1167 1.327 . S
C1170 C1158 1.349 . S
C1170 H1164 0.950 . S
C1170 C1171 1.327 . S
C1171 H1165 0.950 . S
C1171 C1170 1.327 . S
C1171 C1175 1.429 . S
C1172 C1155 1.574 . S
C1172 H1166 0.949 . S
C1172 C1176 1.368 . S
C1173 C1154 1.429 . S
C1173 C1167 1.429 . S
C1173 C1174 1.523 . S
C1174 C1155 1.368 . S
C1174 C1168 1.368 . S
C1174 C1173 1.523 . S
C1175 C1159 1.429 . S
C1175 C1171 1.429 . S
C1175 C1176 1.523 . S
C1176 C1160 1.368 . S
C1176 C1172 1.368 . S
C1176 C1175 1.523 . S
H1177 C1152 0.950 . S
H1178 C1154 0.950 . S
H1179 C1155 0.949 . S
H1180 C1157 0.950 . S
H1181 C1159 0.950 . S
C1182 C1183 1.349 . S
C1182 C1184 1.327 . S
C1182 H1207 0.950 . S
C1183 C1182 1.349 . S
C1183 C1199 1.349 . S
C1184 C1182 1.327 . S
C1184 C1203 1.429 . S
C1184 H1208 0.950 . S
C1185 C1202 1.574 . S
C1185 C1204 1.368 . S
C1185 H1209 0.949 . S
H1186 C1190 0.949 . S
C1187 C1188 1.349 . S
C1187 C1189 1.327 . S
C1187 H1210 0.950 . S
C1188 C1187 1.349 . S
C1188 C1200 1.349 . S
C1189 C1187 1.327 . S
C1189 C1205 1.429 . S
C1189 H1211 0.950 . S
C1190 H1186 0.949 . S
C1190 C1198 1.574 . S
C1190 C1206 1.368 . S
H1191 C1199 0.950 . S
H1192 C1197 0.950 . S
H1193 C1198 0.949 . S
H1194 C1200 0.950 . S
H1195 C1201 0.950 . S
H1196 C1202 0.949 . S
C1197 H1192 0.950 . S
C1197 C1199 1.327 . S
C1197 C1203 1.429 . S
C1198 C1190 1.574 . S
C1198 H1193 0.949 . S
C1198 C1204 1.368 . S
C1199 C1183 1.349 . S
C1199 H1191 0.950 . S
C1199 C1197 1.327 . S
C1200 C1188 1.349 . S
C1200 H1194 0.950 . S
C1200 C1201 1.327 . S
C1201 H1195 0.950 . S
C1201 C1200 1.327 . S
C1201 C1205 1.429 . S
C1202 C1185 1.574 . S
C1202 H1196 0.949 . S
C1202 C1206 1.368 . S
C1203 C1184 1.429 . S
C1203 C1197 1.429 . S
C1203 C1204 1.523 . S
C1204 C1185 1.368 . S
C1204 C1198 1.368 . S
C1204 C1203 1.523 . S
C1205 C1189 1.429 . S
C1205 C1201 1.429 . S
C1205 C1206 1.523 . S
C1206 C1190 1.368 . S
C1206 C1202 1.368 . S
C1206 C1205 1.523 . S
H1207 C1182 0.950 . S
H1208 C1184 0.950 . S
H1209 C1185 0.949 . S
H1210 C1187 0.950 . S
H1211 C1189 0.950 . S
C1212 C1213 1.349 . S
C1212 C1214 1.327 . S
C1212 H1237 0.950 . S
C1213 C1212 1.349 . S
C1213 C1229 1.349 . S
C1214 C1212 1.327 . S
C1214 C1233 1.429 . S
C1214 H1238 0.950 . S
C1215 C1232 1.574 . S
C1215 C1234 1.368 . S
C1215 H1239 0.949 . S
H1216 C1220 0.949 . S
C1217 C1218 1.349 . S
C1217 C1219 1.327 . S
C1217 H1240 0.950 . S
C1218 C1217 1.349 . S
C1218 C1230 1.349 . S
C1219 C1217 1.327 . S
C1219 C1235 1.429 . S
C1219 H1241 0.950 . S
C1220 H1216 0.949 . S
C1220 C1228 1.574 . S
C1220 C1236 1.368 . S
H1221 C1229 0.950 . S
H1222 C1227 0.950 . S
H1223 C1228 0.949 . S
H1224 C1230 0.950 . S
H1225 C1231 0.950 . S
H1226 C1232 0.949 . S
C1227 H1222 0.950 . S
C1227 C1229 1.327 . S
C1227 C1233 1.429 . S
C1228 C1220 1.574 . S
C1228 H1223 0.949 . S
C1228 C1234 1.368 . S
C1229 C1213 1.349 . S
C1229 H1221 0.950 . S
C1229 C1227 1.327 . S
C1230 C1218 1.349 . S
C1230 H1224 0.950 . S
C1230 C1231 1.327 . S
C1231 H1225 0.950 . S
C1231 C1230 1.327 . S
C1231 C1235 1.429 . S
C1232 C1215 1.574 . S
C1232 H1226 0.949 . S
C1232 C1236 1.368 . S
C1233 C1214 1.429 . S
C1233 C1227 1.429 . S
C1233 C1234 1.523 . S
C1234 C1215 1.368 . S
C1234 C1228 1.368 . S
C1234 C1233 1.523 . S
C1235 C1219 1.429 . S
C1235 C1231 1.429 . S
C1235 C1236 1.523 . S
C1236 C1220 1.368 . S
C1236 C1232 1.368 . S
C1236 C1235 1.523 . S
H1237 C1212 0.950 . S
H1238 C1214 0.950 . S
H1239 C1215 0.949 . S
H1240 C1217 0.950 . S
H1241 C1219 0.950 . S
C1242 C1243 1.349 . S
C1242 C1244 1.327 . S
C1242 H1267 0.950 . S
C1243 C1242 1.349 . S
C1243 C1259 1.349 . S
C1244 C1242 1.327 . S
C1244 C1263 1.429 . S
C1244 H1268 0.950 . S
C1245 C1262 1.574 . S
C1245 C1264 1.368 . S
C1245 H1269 0.949 . S
H1246 C1250 0.949 . S
C1247 C1248 1.349 . S
C1247 C1249 1.327 . S
C1247 H1270 0.950 . S
C1248 C1247 1.349 . S
C1248 C1260 1.349 . S
C1249 C1247 1.327 . S
C1249 C1265 1.429 . S
C1249 H1271 0.950 . S
C1250 H1246 0.949 . S
C1250 C1258 1.574 . S
C1250 C1266 1.368 . S
H1251 C1259 0.950 . S
H1252 C1257 0.950 . S
H1253 C1258 0.949 . S
H1254 C1260 0.950 . S
H1255 C1261 0.950 . S
H1256 C1262 0.949 . S
C1257 H1252 0.950 . S
C1257 C1259 1.327 . S
C1257 C1263 1.429 . S
C1258 C1250 1.574 . S
C1258 H1253 0.949 . S
C1258 C1264 1.368 . S
C1259 C1243 1.349 . S
C1259 H1251 0.950 . S
C1259 C1257 1.327 . S
C1260 C1248 1.349 . S
C1260 H1254 0.950 . S
C1260 C1261 1.327 . S
C1261 H1255 0.950 . S
C1261 C1260 1.327 . S
C1261 C1265 1.429 . S
C1262 C1245 1.574 . S
C1262 H1256 0.949 . S
C1262 C1266 1.368 . S
C1263 C1244 1.429 . S
C1263 C1257 1.429 . S
C1263 C1264 1.523 . S
C1264 C1245 1.368 . S
C1264 C1258 1.368 . S
C1264 C1263 1.523 . S
C1265 C1249 1.429 . S
C1265 C1261 1.429 . S
C1265 C1266 1.523 . S
C1266 C1250 1.368 . S
C1266 C1262 1.368 . S
C1266 C1265 1.523 . S
H1267 C1242 0.950 . S
H1268 C1244 0.950 . S
H1269 C1245 0.949 . S
H1270 C1247 0.950 . S
H1271 C1249 0.950 . S
C1272 C1273 1.349 . S
C1272 C1274 1.327 . S
C1272 H1297 0.950 . S
C1273 C1272 1.349 . S
C1273 C1289 1.349 . S
C1274 C1272 1.327 . S
C1274 C1293 1.429 . S
C1274 H1298 0.950 . S
C1275 C1292 1.574 . S
C1275 C1294 1.368 . S
C1275 H1299 0.949 . S
H1276 C1280 0.949 . S
C1277 C1278 1.349 . S
C1277 C1279 1.327 . S
C1277 H1300 0.950 . S
C1278 C1277 1.349 . S
C1278 C1290 1.349 . S
C1279 C1277 1.327 . S
C1279 C1295 1.429 . S
C1279 H1301 0.950 . S
C1280 H1276 0.949 . S
C1280 C1288 1.574 . S
C1280 C1296 1.368 . S
H1281 C1289 0.950 . S
H1282 C1287 0.950 . S
H1283 C1288 0.949 . S
H1284 C1290 0.950 . S
H1285 C1291 0.950 . S
H1286 C1292 0.949 . S
C1287 H1282 0.950 . S
C1287 C1289 1.327 . S
C1287 C1293 1.429 . S
C1288 C1280 1.574 . S
C1288 H1283 0.949 . S
C1288 C1294 1.368 . S
C1289 C1273 1.349 . S
C1289 H1281 0.950 . S
C1289 C1287 1.327 . S
C1290 C1278 1.349 . S
C1290 H1284 0.950 . S
C1290 C1291 1.327 . S
C1291 H1285 0.950 . S
C1291 C1290 1.327 . S
C1291 C1295 1.429 . S
C1292 C1275 1.574 . S
C1292 H1286 0.949 . S
C1292 C1296 1.368 . S
C1293 C1274 1.429 . S
C1293 C1287 1.429 . S
C1293 C1294 1.523 . S
C1294 C1275 1.368 . S
C1294 C1288 1.368 . S
C1294 C1293 1.523 . S
C1295 C1279 1.429 . S
C1295 C1291 1.429 . S
C1295 C1296 1.523 . S
C1296 C1280 1.368 . S
C1296 C1292 1.368 . S
C1296 C1295 1.523 . S
H1297 C1272 0.950 . S
H1298 C1274 0.950 . S
H1299 C1275 0.949 . S
H1300 C1277 0.950 . S
H1301 C1279 0.950 . S
C1302 C1303 1.349 . S
C1302 C1304 1.327 . S
C1302 H1327 0.950 . S
C1303 C1302 1.349 . S
C1303 C1319 1.349 . S
C1304 C1302 1.327 . S
C1304 C1323 1.429 . S
C1304 H1328 0.950 . S
C1305 C1322 1.574 . S
C1305 C1324 1.368 . S
C1305 H1329 0.949 . S
H1306 C1310 0.949 . S
C1307 C1308 1.349 . S
C1307 C1309 1.327 . S
C1307 H1330 0.950 . S
C1308 C1307 1.349 . S
C1308 C1320 1.349 . S
C1309 C1307 1.327 . S
C1309 C1325 1.429 . S
C1309 H1331 0.950 . S
C1310 H1306 0.949 . S
C1310 C1318 1.574 . S
C1310 C1326 1.368 . S
H1311 C1319 0.950 . S
H1312 C1317 0.950 . S
H1313 C1318 0.949 . S
H1314 C1320 0.950 . S
H1315 C1321 0.950 . S
H1316 C1322 0.949 . S
C1317 H1312 0.950 . S
C1317 C1319 1.327 . S
C1317 C1323 1.429 . S
C1318 C1310 1.574 . S
C1318 H1313 0.949 . S
C1318 C1324 1.368 . S
C1319 C1303 1.349 . S
C1319 H1311 0.950 . S
C1319 C1317 1.327 . S
C1320 C1308 1.349 . S
C1320 H1314 0.950 . S
C1320 C1321 1.327 . S
C1321 H1315 0.950 . S
C1321 C1320 1.327 . S
C1321 C1325 1.429 . S
C1322 C1305 1.574 . S
C1322 H1316 0.949 . S
C1322 C1326 1.368 . S
C1323 C1304 1.429 . S
C1323 C1317 1.429 . S
C1323 C1324 1.523 . S
C1324 C1305 1.368 . S
C1324 C1318 1.368 . S
C1324 C1323 1.523 . S
C1325 C1309 1.429 . S
C1325 C1321 1.429 . S
C1325 C1326 1.523 . S
C1326 C1310 1.368 . S
C1326 C1322 1.368 . S
C1326 C1325 1.523 . S
H1327 C1302 0.950 . S
H1328 C1304 0.950 . S
H1329 C1305 0.949 . S
H1330 C1307 0.950 . S
H1331 C1309 0.950 . S
C1332 C1333 1.349 . S
C1332 C1334 1.327 . S
C1332 H1357 0.950 . S
C1333 C1332 1.349 . S
C1333 C1349 1.349 . S
C1334 C1332 1.327 . S
C1334 C1353 1.429 . S
C1334 H1358 0.950 . S
C1335 C1352 1.574 . S
C1335 C1354 1.368 . S
C1335 H1359 0.949 . S
H1336 C1340 0.949 . S
C1337 C1338 1.349 . S
C1337 C1339 1.327 . S
C1337 H1360 0.950 . S
C1338 C1337 1.349 . S
C1338 C1350 1.349 . S
C1339 C1337 1.327 . S
C1339 C1355 1.429 . S
C1339 H1361 0.950 . S
C1340 H1336 0.949 . S
C1340 C1348 1.574 . S
C1340 C1356 1.368 . S
H1341 C1349 0.950 . S
H1342 C1347 0.950 . S
H1343 C1348 0.949 . S
H1344 C1350 0.950 . S
H1345 C1351 0.950 . S
H1346 C1352 0.949 . S
C1347 H1342 0.950 . S
C1347 C1349 1.327 . S
C1347 C1353 1.429 . S
C1348 C1340 1.574 . S
C1348 H1343 0.949 . S
C1348 C1354 1.368 . S
C1349 C1333 1.349 . S
C1349 H1341 0.950 . S
C1349 C1347 1.327 . S
C1350 C1338 1.349 . S
C1350 H1344 0.950 . S
C1350 C1351 1.327 . S
C1351 H1345 0.950 . S
C1351 C1350 1.327 . S
C1351 C1355 1.429 . S
C1352 C1335 1.574 . S
C1352 H1346 0.949 . S
C1352 C1356 1.368 . S
C1353 C1334 1.429 . S
C1353 C1347 1.429 . S
C1353 C1354 1.523 . S
C1354 C1335 1.368 . S
C1354 C1348 1.368 . S
C1354 C1353 1.523 . S
C1355 C1339 1.429 . S
C1355 C1351 1.429 . S
C1355 C1356 1.523 . S
C1356 C1340 1.368 . S
C1356 C1352 1.368 . S
C1356 C1355 1.523 . S
H1357 C1332 0.950 . S
H1358 C1334 0.950 . S
H1359 C1335 0.949 . S
H1360 C1337 0.950 . S
H1361 C1339 0.950 . S
C1362 C1363 1.349 . S
C1362 C1364 1.327 . S
C1362 H1387 0.950 . S
C1363 C1362 1.349 . S
C1363 C1379 1.349 . S
C1364 C1362 1.327 . S
C1364 C1383 1.429 . S
C1364 H1388 0.950 . S
C1365 C1382 1.574 . S
C1365 C1384 1.368 . S
C1365 H1389 0.949 . S
H1366 C1370 0.949 . S
C1367 C1368 1.349 . S
C1367 C1369 1.327 . S
C1367 H1390 0.950 . S
C1368 C1367 1.349 . S
C1368 C1380 1.349 . S
C1369 C1367 1.327 . S
C1369 C1385 1.429 . S
C1369 H1391 0.950 . S
C1370 H1366 0.949 . S
C1370 C1378 1.574 . S
C1370 C1386 1.368 . S
H1371 C1379 0.950 . S
H1372 C1377 0.950 . S
H1373 C1378 0.949 . S
H1374 C1380 0.950 . S
H1375 C1381 0.950 . S
H1376 C1382 0.949 . S
C1377 H1372 0.950 . S
C1377 C1379 1.327 . S
C1377 C1383 1.429 . S
C1378 C1370 1.574 . S
C1378 H1373 0.949 . S
C1378 C1384 1.368 . S
C1379 C1363 1.349 . S
C1379 H1371 0.950 . S
C1379 C1377 1.327 . S
C1380 C1368 1.349 . S
C1380 H1374 0.950 . S
C1380 C1381 1.327 . S
C1381 H1375 0.950 . S
C1381 C1380 1.327 . S
C1381 C1385 1.429 . S
C1382 C1365 1.574 . S
C1382 H1376 0.949 . S
C1382 C1386 1.368 . S
C1383 C1364 1.429 . S
C1383 C1377 1.429 . S
C1383 C1384 1.523 . S
C1384 C1365 1.368 . S
C1384 C1378 1.368 . S
C1384 C1383 1.523 . S
C1385 C1369 1.429 . S
C1385 C1381 1.429 . S
C1385 C1386 1.523 . S
C1386 C1370 1.368 . S
C1386 C1382 1.368 . S
C1386 C1385 1.523 . S
H1387 C1362 0.950 . S
H1388 C1364 0.950 . S
H1389 C1365 0.949 . S
H1390 C1367 0.950 . S
H1391 C1369 0.950 . S
C1392 C1393 1.349 . S
C1392 C1394 1.327 . S
C1392 H1417 0.950 . S
C1393 C1392 1.349 . S
C1393 C1409 1.349 . S
C1394 C1392 1.327 . S
C1394 C1413 1.429 . S
C1394 H1418 0.950 . S
C1395 C1412 1.574 . S
C1395 C1414 1.368 . S
C1395 H1419 0.949 . S
H1396 C1400 0.949 . S
C1397 C1398 1.349 . S
C1397 C1399 1.327 . S
C1397 H1420 0.950 . S
C1398 C1397 1.349 . S
C1398 C1410 1.349 . S
C1399 C1397 1.327 . S
C1399 C1415 1.429 . S
C1399 H1421 0.950 . S
C1400 H1396 0.949 . S
C1400 C1408 1.574 . S
C1400 C1416 1.368 . S
H1401 C1409 0.950 . S
H1402 C1407 0.950 . S
H1403 C1408 0.949 . S
H1404 C1410 0.950 . S
H1405 C1411 0.950 . S
H1406 C1412 0.949 . S
C1407 H1402 0.950 . S
C1407 C1409 1.327 . S
C1407 C1413 1.429 . S
C1408 C1400 1.574 . S
C1408 H1403 0.949 . S
C1408 C1414 1.368 . S
C1409 C1393 1.349 . S
C1409 H1401 0.950 . S
C1409 C1407 1.327 . S
C1410 C1398 1.349 . S
C1410 H1404 0.950 . S
C1410 C1411 1.327 . S
C1411 H1405 0.950 . S
C1411 C1410 1.327 . S
C1411 C1415 1.429 . S
C1412 C1395 1.574 . S
C1412 H1406 0.949 . S
C1412 C1416 1.368 . S
C1413 C1394 1.429 . S
C1413 C1407 1.429 . S
C1413 C1414 1.523 . S
C1414 C1395 1.368 . S
C1414 C1408 1.368 . S
C1414 C1413 1.523 . S
C1415 C1399 1.429 . S
C1415 C1411 1.429 . S
C1415 C1416 1.523 . S
C1416 C1400 1.368 . S
C1416 C1412 1.368 . S
C1416 C1415 1.523 . S
H1417 C1392 0.950 . S
H1418 C1394 0.950 . S
H1419 C1395 0.949 . S
H1420 C1397 0.950 . S
H1421 C1399 0.950 . S
C1422 C1423 1.349 . S
C1422 C1424 1.327 . S
C1422 H1447 0.950 . S
C1423 C1422 1.349 . S
C1423 C1439 1.349 . S
C1424 C1422 1.327 . S
C1424 C1443 1.429 . S
C1424 H1448 0.950 . S
C1425 C1442 1.574 . S
C1425 C1444 1.368 . S
C1425 H1449 0.949 . S
H1426 C1430 0.949 . S
C1427 C1428 1.349 . S
C1427 C1429 1.327 . S
C1427 H1450 0.950 . S
C1428 C1427 1.349 . S
C1428 C1440 1.349 . S
C1429 C1427 1.327 . S
C1429 C1445 1.429 . S
C1429 H1451 0.950 . S
C1430 H1426 0.949 . S
C1430 C1438 1.574 . S
C1430 C1446 1.368 . S
H1431 C1439 0.950 . S
H1432 C1437 0.950 . S
H1433 C1438 0.949 . S
H1434 C1440 0.950 . S
H1435 C1441 0.950 . S
H1436 C1442 0.949 . S
C1437 H1432 0.950 . S
C1437 C1439 1.327 . S
C1437 C1443 1.429 . S
C1438 C1430 1.574 . S
C1438 H1433 0.949 . S
C1438 C1444 1.368 . S
C1439 C1423 1.349 . S
C1439 H1431 0.950 . S
C1439 C1437 1.327 . S
C1440 C1428 1.349 . S
C1440 H1434 0.950 . S
C1440 C1441 1.327 . S
C1441 H1435 0.950 . S
C1441 C1440 1.327 . S
C1441 C1445 1.429 . S
C1442 C1425 1.574 . S
C1442 H1436 0.949 . S
C1442 C1446 1.368 . S
C1443 C1424 1.429 . S
C1443 C1437 1.429 . S
C1443 C1444 1.523 . S
C1444 C1425 1.368 . S
C1444 C1438 1.368 . S
C1444 C1443 1.523 . S
C1445 C1429 1.429 . S
C1445 C1441 1.429 . S
C1445 C1446 1.523 . S
C1446 C1430 1.368 . S
C1446 C1442 1.368 . S
C1446 C1445 1.523 . S
H1447 C1422 0.950 . S
H1448 C1424 0.950 . S
H1449 C1425 0.949 . S
H1450 C1427 0.950 . S
H1451 C1429 0.950 . S
C1452 C1453 1.349 . S
C1452 C1454 1.327 . S
C1452 H1477 0.950 . S
C1453 C1452 1.349 . S
C1453 C1469 1.349 . S
C1454 C1452 1.327 . S
C1454 C1473 1.429 . S
C1454 H1478 0.950 . S
C1455 C1472 1.574 . S
C1455 C1474 1.368 . S
C1455 H1479 0.949 . S
H1456 C1460 0.949 . S
C1457 C1458 1.349 . S
C1457 C1459 1.327 . S
C1457 H1480 0.950 . S
C1458 C1457 1.349 . S
C1458 C1470 1.349 . S
C1459 C1457 1.327 . S
C1459 C1475 1.429 . S
C1459 H1481 0.950 . S
C1460 H1456 0.949 . S
C1460 C1468 1.574 . S
C1460 C1476 1.368 . S
H1461 C1469 0.950 . S
H1462 C1467 0.950 . S
H1463 C1468 0.949 . S
H1464 C1470 0.950 . S
H1465 C1471 0.950 . S
H1466 C1472 0.949 . S
C1467 H1462 0.950 . S
C1467 C1469 1.327 . S
C1467 C1473 1.429 . S
C1468 C1460 1.574 . S
C1468 H1463 0.949 . S
C1468 C1474 1.368 . S
C1469 C1453 1.349 . S
C1469 H1461 0.950 . S
C1469 C1467 1.327 . S
C1470 C1458 1.349 . S
C1470 H1464 0.950 . S
C1470 C1471 1.327 . S
C1471 H1465 0.950 . S
C1471 C1470 1.327 . S
C1471 C1475 1.429 . S
C1472 C1455 1.574 . S
C1472 H1466 0.949 . S
C1472 C1476 1.368 . S
C1473 C1454 1.429 . S
C1473 C1467 1.429 . S
C1473 C1474 1.523 . S
C1474 C1455 1.368 . S
C1474 C1468 1.368 . S
C1474 C1473 1.523 . S
C1475 C1459 1.429 . S
C1475 C1471 1.429 . S
C1475 C1476 1.523 . S
C1476 C1460 1.368 . S
C1476 C1472 1.368 . S
C1476 C1475 1.523 . S
H1477 C1452 0.950 . S
H1478 C1454 0.950 . S
H1479 C1455 0.949 . S
H1480 C1457 0.950 . S
H1481 C1459 0.950 . S
C1482 C1483 1.349 . S
C1482 C1484 1.327 . S
C1482 H1507 0.950 . S
C1483 C1482 1.349 . S
C1483 C1499 1.349 . S
C1484 C1482 1.327 . S
C1484 C1503 1.429 . S
C1484 H1508 0.950 . S
C1485 C1502 1.574 . S
C1485 C1504 1.368 . S
C1485 H1509 0.949 . S
H1486 C1490 0.949 . S
C1487 C1488 1.349 . S
C1487 C1489 1.327 . S
C1487 H1510 0.950 . S
C1488 C1487 1.349 . S
C1488 C1500 1.349 . S
C1489 C1487 1.327 . S
C1489 C1505 1.429 . S
C1489 H1511 0.950 . S
C1490 H1486 0.949 . S
C1490 C1498 1.574 . S
C1490 C1506 1.368 . S
H1491 C1499 0.950 . S
H1492 C1497 0.950 . S
H1493 C1498 0.949 . S
H1494 C1500 0.950 . S
H1495 C1501 0.950 . S
H1496 C1502 0.949 . S
C1497 H1492 0.950 . S
C1497 C1499 1.327 . S
C1497 C1503 1.429 . S
C1498 C1490 1.574 . S
C1498 H1493 0.949 . S
C1498 C1504 1.368 . S
C1499 C1483 1.349 . S
C1499 H1491 0.950 . S
C1499 C1497 1.327 . S
C1500 C1488 1.349 . S
C1500 H1494 0.950 . S
C1500 C1501 1.327 . S
C1501 H1495 0.950 . S
C1501 C1500 1.327 . S
C1501 C1505 1.429 . S
C1502 C1485 1.574 . S
C1502 H1496 0.949 . S
C1502 C1506 1.368 . S
C1503 C1484 1.429 . S
C1503 C1497 1.429 . S
C1503 C1504 1.523 . S
C1504 C1485 1.368 . S
C1504 C1498 1.368 . S
C1504 C1503 1.523 . S
C1505 C1489 1.429 . S
C1505 C1501 1.429 . S
C1505 C1506 1.523 . S
C1506 C1490 1.368 . S
C1506 C1502 1.368 . S
C1506 C1505 1.523 . S
H1507 C1482 0.950 . S
H1508 C1484 0.950 . S
H1509 C1485 0.949 . S
H1510 C1487 0.950 . S
H1511 C1489 0.950 . S
C1512 C1513 1.349 . S
C1512 C1514 1.327 . S
C1512 H1537 0.950 . S
C1513 C1512 1.349 . S
C1513 C1529 1.349 . S
C1514 C1512 1.327 . S
C1514 C1533 1.429 . S
C1514 H1538 0.950 . S
C1515 C1532 1.574 . S
C1515 C1534 1.368 . S
C1515 H1539 0.949 . S
H1516 C1520 0.949 . S
C1517 C1518 1.349 . S
C1517 C1519 1.327 . S
C1517 H1540 0.950 . S
C1518 C1517 1.349 . S
C1518 C1530 1.349 . S
C1519 C1517 1.327 . S
C1519 C1535 1.429 . S
C1519 H1541 0.950 . S
C1520 H1516 0.949 . S
C1520 C1528 1.574 . S
C1520 C1536 1.368 . S
H1521 C1529 0.950 . S
H1522 C1527 0.950 . S
H1523 C1528 0.949 . S
H1524 C1530 0.950 . S
H1525 C1531 0.950 . S
H1526 C1532 0.949 . S
C1527 H1522 0.950 . S
C1527 C1529 1.327 . S
C1527 C1533 1.429 . S
C1528 C1520 1.574 . S
C1528 H1523 0.949 . S
C1528 C1534 1.368 . S
C1529 C1513 1.349 . S
C1529 H1521 0.950 . S
C1529 C1527 1.327 . S
C1530 C1518 1.349 . S
C1530 H1524 0.950 . S
C1530 C1531 1.327 . S
C1531 H1525 0.950 . S
C1531 C1530 1.327 . S
C1531 C1535 1.429 . S
C1532 C1515 1.574 . S
C1532 H1526 0.949 . S
C1532 C1536 1.368 . S
C1533 C1514 1.429 . S
C1533 C1527 1.429 . S
C1533 C1534 1.523 . S
C1534 C1515 1.368 . S
C1534 C1528 1.368 . S
C1534 C1533 1.523 . S
C1535 C1519 1.429 . S
C1535 C1531 1.429 . S
C1535 C1536 1.523 . S
C1536 C1520 1.368 . S
C1536 C1532 1.368 . S
C1536 C1535 1.523 . S
H1537 C1512 0.950 . S
H1538 C1514 0.950 . S
H1539 C1515 0.949 . S
H1540 C1517 0.950 . S
H1541 C1519 0.950 . S
C1542 C1543 1.349 . S
C1542 C1544 1.327 . S
C1542 H1567 0.950 . S
C1543 C1542 1.349 . S
C1543 C1559 1.349 . S
C1544 C1542 1.327 . S
C1544 C1563 1.429 . S
C1544 H1568 0.950 . S
C1545 C1562 1.574 . S
C1545 C1564 1.368 . S
C1545 H1569 0.949 . S
H1546 C1550 0.949 . S
C1547 C1548 1.349 . S
C1547 C1549 1.327 . S
C1547 H1570 0.950 . S
C1548 C1547 1.349 . S
C1548 C1560 1.349 . S
C1549 C1547 1.327 . S
C1549 C1565 1.429 . S
C1549 H1571 0.950 . S
C1550 H1546 0.949 . S
C1550 C1558 1.574 . S
C1550 C1566 1.368 . S
H1551 C1559 0.950 . S
H1552 C1557 0.950 . S
H1553 C1558 0.949 . S
H1554 C1560 0.950 . S
H1555 C1561 0.950 . S
H1556 C1562 0.949 . S
C1557 H1552 0.950 . S
C1557 C1559 1.327 . S
C1557 C1563 1.429 . S
C1558 C1550 1.574 . S
C1558 H1553 0.949 . S
C1558 C1564 1.368 . S
C1559 C1543 1.349 . S
C1559 H1551 0.950 . S
C1559 C1557 1.327 . S
C1560 C1548 1.349 . S
C1560 H1554 0.950 . S
C1560 C1561 1.327 . S
C1561 H1555 0.950 . S
C1561 C1560 1.327 . S
C1561 C1565 1.429 . S
C1562 C1545 1.574 . S
C1562 H1556 0.949 . S
C1562 C1566 1.368 . S
C1563 C1544 1.429 . S
C1563 C1557 1.429 . S
C1563 C1564 1.523 . S
C1564 C1545 1.368 . S
C1564 C1558 1.368 . S
C1564 C1563 1.523 . S
C1565 C1549 1.429 . S
C1565 C1561 1.429 . S
C1565 C1566 1.523 . S
C1566 C1550 1.368 . S
C1566 C1562 1.368 . S
C1566 C1565 1.523 . S
H1567 C1542 0.950 . S
H1568 C1544 0.950 . S
H1569 C1545 0.949 . S
H1570 C1547 0.950 . S
H1571 C1549 0.950 . S
C1572 C1573 1.349 . S
C1572 C1574 1.327 . S
C1572 H1597 0.950 . S
C1573 C1572 1.349 . S
C1573 C1589 1.349 . S
C1574 C1572 1.327 . S
C1574 C1593 1.429 . S
C1574 H1598 0.950 . S
C1575 C1592 1.574 . S
C1575 C1594 1.368 . S
C1575 H1599 0.949 . S
H1576 C1580 0.949 . S
C1577 C1578 1.349 . S
C1577 C1579 1.327 . S
C1577 H1600 0.950 . S
C1578 C1577 1.349 . S
C1578 C1590 1.349 . S
C1579 C1577 1.327 . S
C1579 C1595 1.429 . S
C1579 H1601 0.950 . S
C1580 H1576 0.949 . S
C1580 C1588 1.574 . S
C1580 C1596 1.368 . S
H1581 C1589 0.950 . S
H1582 C1587 0.950 . S
H1583 C1588 0.949 . S
H1584 C1590 0.950 . S
H1585 C1591 0.950 . S
H1586 C1592 0.949 . S
C1587 H1582 0.950 . S
C1587 C1589 1.327 . S
C1587 C1593 1.429 . S
C1588 C1580 1.574 . S
C1588 H1583 0.949 . S
C1588 C1594 1.368 . S
C1589 C1573 1.349 . S
C1589 H1581 0.950 . S
C1589 C1587 1.327 . S
C1590 C1578 1.349 . S
C1590 H1584 0.950 . S
C1590 C1591 1.327 . S
C1591 H1585 0.950 . S
C1591 C1590 1.327 . S
C1591 C1595 1.429 . S
C1592 C1575 1.574 . S
C1592 H1586 0.949 . S
C1592 C1596 1.368 . S
C1593 C1574 1.429 . S
C1593 C1587 1.429 . S
C1593 C1594 1.523 . S
C1594 C1575 1.368 . S
C1594 C1588 1.368 . S
C1594 C1593 1.523 . S
C1595 C1579 1.429 . S
C1595 C1591 1.429 . S
C1595 C1596 1.523 . S
C1596 C1580 1.368 . S
C1596 C1592 1.368 . S
C1596 C1595 1.523 . S
H1597 C1572 0.950 . S
H1598 C1574 0.950 . S
H1599 C1575 0.949 . S
H1600 C1577 0.950 . S
H1601 C1579 0.950 . S
C1602 C1603 1.349 . S
C1602 C1604 1.327 . S
C1602 H1627 0.950 . S
C1603 C1602 1.349 . S
C1603 C1619 1.349 . S
C1604 C1602 1.327 . S
C1604 C1623 1.429 . S
C1604 H1628 0.950 . S
C1605 C1622 1.574 . S
C1605 C1624 1.368 . S
C1605 H1629 0.949 . S
H1606 C1610 0.949 . S
C1607 C1608 1.349 . S
C1607 C1609 1.327 . S
C1607 H1630 0.950 . S
C1608 C1607 1.349 . S
C1608 C1620 1.349 . S
C1609 C1607 1.327 . S
C1609 C1625 1.429 . S
C1609 H1631 0.950 . S
C1610 H1606 0.949 . S
C1610 C1618 1.574 . S
C1610 C1626 1.368 . S
H1611 C1619 0.950 . S
H1612 C1617 0.950 . S
H1613 C1618 0.949 . S
H1614 C1620 0.950 . S
H1615 C1621 0.950 . S
H1616 C1622 0.949 . S
C1617 H1612 0.950 . S
C1617 C1619 1.327 . S
C1617 C1623 1.429 . S
C1618 C1610 1.574 . S
C1618 H1613 0.949 . S
C1618 C1624 1.368 . S
C1619 C1603 1.349 . S
C1619 H1611 0.950 . S
C1619 C1617 1.327 . S
C1620 C1608 1.349 . S
C1620 H1614 0.950 . S
C1620 C1621 1.327 . S
C1621 H1615 0.950 . S
C1621 C1620 1.327 . S
C1621 C1625 1.429 . S
C1622 C1605 1.574 . S
C1622 H1616 0.949 . S
C1622 C1626 1.368 . S
C1623 C1604 1.429 . S
C1623 C1617 1.429 . S
C1623 C1624 1.523 . S
C1624 C1605 1.368 . S
C1624 C1618 1.368 . S
C1624 C1623 1.523 . S
C1625 C1609 1.429 . S
C1625 C1621 1.429 . S
C1625 C1626 1.523 . S
C1626 C1610 1.368 . S
C1626 C1622 1.368 . S
C1626 C1625 1.523 . S
H1627 C1602 0.950 . S
H1628 C1604 0.950 . S
H1629 C1605 0.949 . S
H1630 C1607 0.950 . S
H1631 C1609 0.950 . S
C1632 C1633 1.349 . S
C1632 C1634 1.327 . S
C1632 H1657 0.950 . S
C1633 C1632 1.349 . S
C1633 C1649 1.349 . S
C1634 C1632 1.327 . S
C1634 C1653 1.429 . S
C1634 H1658 0.950 . S
C1635 C1652 1.574 . S
C1635 C1654 1.368 . S
C1635 H1659 0.949 . S
H1636 C1640 0.949 . S
C1637 C1638 1.349 . S
C1637 C1639 1.327 . S
C1637 H1660 0.950 . S
C1638 C1637 1.349 . S
C1638 C1650 1.349 . S
C1639 C1637 1.327 . S
C1639 C1655 1.429 . S
C1639 H1661 0.950 . S
C1640 H1636 0.949 . S
C1640 C1648 1.574 . S
C1640 C1656 1.368 . S
H1641 C1649 0.950 . S
H1642 C1647 0.950 . S
H1643 C1648 0.949 . S
H1644 C1650 0.950 . S
H1645 C1651 0.950 . S
H1646 C1652 0.949 . S
C1647 H1642 0.950 . S
C1647 C1649 1.327 . S
C1647 C1653 1.429 . S
C1648 C1640 1.574 . S
C1648 H1643 0.949 . S
C1648 C1654 1.368 . S
C1649 C1633 1.349 . S
C1649 H1641 0.950 . S
C1649 C1647 1.327 . S
C1650 C1638 1.349 . S
C1650 H1644 0.950 . S
C1650 C1651 1.327 . S
C1651 H1645 0.950 . S
C1651 C1650 1.327 . S
C1651 C1655 1.429 . S
C1652 C1635 1.574 . S
C1652 H1646 0.949 . S
C1652 C1656 1.368 . S
C1653 C1634 1.429 . S
C1653 C1647 1.429 . S
C1653 C1654 1.523 . S
C1654 C1635 1.368 . S
C1654 C1648 1.368 . S
C1654 C1653 1.523 . S
C1655 C1639 1.429 . S
C1655 C1651 1.429 . S
C1655 C1656 1.523 . S
C1656 C1640 1.368 . S
C1656 C1652 1.368 . S
C1656 C1655 1.523 . S
H1657 C1632 0.950 . S
H1658 C1634 0.950 . S
H1659 C1635 0.949 . S
H1660 C1637 0.950 . S
H1661 C1639 0.950 . S
C1662 C1663 1.349 . S
C1662 C1664 1.327 . S
C1662 H1687 0.950 . S
C1663 C1662 1.349 . S
C1663 C1679 1.349 . S
C1664 C1662 1.327 . S
C1664 C1683 1.429 . S
C1664 H1688 0.950 . S
C1665 C1682 1.574 . S
C1665 C1684 1.368 . S
C1665 H1689 0.949 . S
H1666 C1670 0.949 . S
C1667 C1668 1.349 . S
C1667 C1669 1.327 . S
C1667 H1690 0.950 . S
C1668 C1667 1.349 . S
C1668 C1680 1.349 . S
C1669 C1667 1.327 . S
C1669 C1685 1.429 . S
C1669 H1691 0.950 . S
C1670 H1666 0.949 . S
C1670 C1678 1.574 . S
C1670 C1686 1.368 . S
H1671 C1679 0.950 . S
H1672 C1677 0.950 . S
H1673 C1678 0.949 . S
H1674 C1680 0.950 . S
H1675 C1681 0.950 . S
H1676 C1682 0.949 . S
C1677 H1672 0.950 . S
C1677 C1679 1.327 . S
C1677 C1683 1.429 . S
C1678 C1670 1.574 . S
C1678 H1673 0.949 . S
C1678 C1684 1.368 . S
C1679 C1663 1.349 . S
C1679 H1671 0.950 . S
C1679 C1677 1.327 . S
C1680 C1668 1.349 . S
C1680 H1674 0.950 . S
C1680 C1681 1.327 . S
C1681 H1675 0.950 . S
C1681 C1680 1.327 . S
C1681 C1685 1.429 . S
C1682 C1665 1.574 . S
C1682 H1676 0.949 . S
C1682 C1686 1.368 . S
C1683 C1664 1.429 . S
C1683 C1677 1.429 . S
C1683 C1684 1.523 . S
C1684 C1665 1.368 . S
C1684 C1678 1.368 . S
C1684 C1683 1.523 . S
C1685 C1669 1.429 . S
C1685 C1681 1.429 . S
C1685 C1686 1.523 . S
C1686 C1670 1.368 . S
C1686 C1682 1.368 . S
C1686 C1685 1.523 . S
H1687 C1662 0.950 . S
H1688 C1664 0.950 . S
H1689 C1665 0.949 . S
H1690 C1667 0.950 . S
H1691 C1669 0.950 . S
C1692 C1693 1.349 . S
C1692 C1694 1.327 . S
C1692 H1717 0.950 . S
C1693 C1692 1.349 . S
C1693 C1709 1.349 . S
C1694 C1692 1.327 . S
C1694 C1713 1.429 . S
C1694 H1718 0.950 . S
C1695 C1712 1.574 . S
C1695 C1714 1.368 . S
C1695 H1719 0.949 . S
H1696 C1700 0.949 . S
C1697 C1698 1.349 . S
C1697 C1699 1.327 . S
C1697 H1720 0.950 . S
C1698 C1697 1.349 . S
C1698 C1710 1.349 . S
C1699 C1697 1.327 . S
C1699 C1715 1.429 . S
C1699 H1721 0.950 . S
C1700 H1696 0.949 . S
C1700 C1708 1.574 . S
C1700 C1716 1.368 . S
H1701 C1709 0.950 . S
H1702 C1707 0.950 . S
H1703 C1708 0.949 . S
H1704 C1710 0.950 . S
H1705 C1711 0.950 . S
H1706 C1712 0.949 . S
C1707 H1702 0.950 . S
C1707 C1709 1.327 . S
C1707 C1713 1.429 . S
C1708 C1700 1.574 . S
C1708 H1703 0.949 . S
C1708 C1714 1.368 . S
C1709 C1693 1.349 . S
C1709 H1701 0.950 . S
C1709 C1707 1.327 . S
C1710 C1698 1.349 . S
C1710 H1704 0.950 . S
C1710 C1711 1.327 . S
C1711 H1705 0.950 . S
C1711 C1710 1.327 . S
C1711 C1715 1.429 . S
C1712 C1695 1.574 . S
C1712 H1706 0.949 . S
C1712 C1716 1.368 . S
C1713 C1694 1.429 . S
C1713 C1707 1.429 . S
C1713 C1714 1.523 . S
C1714 C1695 1.368 . S
C1714 C1708 1.368 . S
C1714 C1713 1.523 . S
C1715 C1699 1.429 . S
C1715 C1711 1.429 . S
C1715 C1716 1.523 . S
C1716 C1700 1.368 . S
C1716 C1712 1.368 . S
C1716 C1715 1.523 . S
H1717 C1692 0.950 . S
H1718 C1694 0.950 . S
H1719 C1695 0.949 . S
H1720 C1697 0.950 . S
H1721 C1699 0.950 . S
C1722 C1723 1.349 . S
C1722 C1724 1.327 . S
C1722 H1747 0.950 . S
C1723 C1722 1.349 . S
C1723 C1739 1.349 . S
C1724 C1722 1.327 . S
C1724 C1743 1.429 . S
C1724 H1748 0.950 . S
C1725 C1742 1.574 . S
C1725 C1744 1.368 . S
C1725 H1749 0.949 . S
H1726 C1730 0.949 . S
C1727 C1728 1.349 . S
C1727 C1729 1.327 . S
C1727 H1750 0.950 . S
C1728 C1727 1.349 . S
C1728 C1740 1.349 . S
C1729 C1727 1.327 . S
C1729 C1745 1.429 . S
C1729 H1751 0.950 . S
C1730 H1726 0.949 . S
C1730 C1738 1.574 . S
C1730 C1746 1.368 . S
H1731 C1739 0.950 . S
H1732 C1737 0.950 . S
H1733 C1738 0.949 . S
H1734 C1740 0.950 . S
H1735 C1741 0.950 . S
H1736 C1742 0.949 . S
C1737 H1732 0.950 . S
C1737 C1739 1.327 . S
C1737 C1743 1.429 . S
C1738 C1730 1.574 . S
C1738 H1733 0.949 . S
C1738 C1744 1.368 . S
C1739 C1723 1.349 . S
C1739 H1731 0.950 . S
C1739 C1737 1.327 . S
C1740 C1728 1.349 . S
C1740 H1734 0.950 . S
C1740 C1741 1.327 . S
C1741 H1735 0.950 . S
C1741 C1740 1.327 . S
C1741 C1745 1.429 . S
C1742 C1725 1.574 . S
C1742 H1736 0.949 . S
C1742 C1746 1.368 . S
C1743 C1724 1.429 . S
C1743 C1737 1.429 . S
C1743 C1744 1.523 . S
C1744 C1725 1.368 . S
C1744 C1738 1.368 . S
C1744 C1743 1.523 . S
C1745 C1729 1.429 . S
C1745 C1741 1.429 . S
C1745 C1746 1.523 . S
C1746 C1730 1.368 . S
C1746 C1742 1.368 . S
C1746 C1745 1.523 . S
H1747 C1722 0.950 . S
H1748 C1724 0.950 . S
H1749 C1725 0.949 . S
H1750 C1727 0.950 . S
H1751 C1729 0.950 . S
C1752 C1753 1.349 . S
C1752 C1754 1.327 . S
C1752 H1777 0.950 . S
C1753 C1752 1.349 . S
C1753 C1769 1.349 . S
C1754 C1752 1.327 . S
C1754 C1773 1.429 . S
C1754 H1778 0.950 . S
C1755 C1772 1.574 . S
C1755 C1774 1.368 . S
C1755 H1779 0.949 . S
H1756 C1760 0.949 . S
C1757 C1758 1.349 . S
C1757 C1759 1.327 . S
C1757 H1780 0.950 . S
C1758 C1757 1.349 . S
C1758 C1770 1.349 . S
C1759 C1757 1.327 . S
C1759 C1775 1.429 . S
C1759 H1781 0.950 . S
C1760 H1756 0.949 . S
C1760 C1768 1.574 . S
C1760 C1776 1.368 . S
H1761 C1769 0.950 . S
H1762 C1767 0.950 . S
H1763 C1768 0.949 . S
H1764 C1770 0.950 . S
H1765 C1771 0.950 . S
H1766 C1772 0.949 . S
C1767 H1762 0.950 . S
C1767 C1769 1.327 . S
C1767 C1773 1.429 . S
C1768 C1760 1.574 . S
C1768 H1763 0.949 . S
C1768 C1774 1.368 . S
C1769 C1753 1.349 . S
C1769 H1761 0.950 . S
C1769 C1767 1.327 . S
C1770 C1758 1.349 . S
C1770 H1764 0.950 . S
C1770 C1771 1.327 . S
C1771 H1765 0.950 . S
C1771 C1770 1.327 . S
C1771 C1775 1.429 . S
C1772 C1755 1.574 . S
C1772 H1766 0.949 . S
C1772 C1776 1.368 . S
C1773 C1754 1.429 . S
C1773 C1767 1.429 . S
C1773 C1774 1.523 . S
C1774 C1755 1.368 . S
C1774 C1768 1.368 . S
C1774 C1773 1.523 . S
C1775 C1759 1.429 . S
C1775 C1771 1.429 . S
C1775 C1776 1.523 . S
C1776 C1760 1.368 . S
C1776 C1772 1.368 . S
C1776 C1775 1.523 . S
H1777 C1752 0.950 . S
H1778 C1754 0.950 . S
H1779 C1755 0.949 . S
H1780 C1757 0.950 . S
H1781 C1759 0.950 . S
C1782 C1783 1.349 . S
C1782 C1784 1.327 . S
C1782 H1807 0.950 . S
C1783 C1782 1.349 . S
C1783 C1799 1.349 . S
C1784 C1782 1.327 . S
C1784 C1803 1.429 . S
C1784 H1808 0.950 . S
C1785 C1802 1.574 . S
C1785 C1804 1.368 . S
C1785 H1809 0.949 . S
H1786 C1790 0.949 . S
C1787 C1788 1.349 . S
C1787 C1789 1.327 . S
C1787 H1810 0.950 . S
C1788 C1787 1.349 . S
C1788 C1800 1.349 . S
C1789 C1787 1.327 . S
C1789 C1805 1.429 . S
C1789 H1811 0.950 . S
C1790 H1786 0.949 . S
C1790 C1798 1.574 . S
C1790 C1806 1.368 . S
H1791 C1799 0.950 . S
H1792 C1797 0.950 . S
H1793 C1798 0.949 . S
H1794 C1800 0.950 . S
H1795 C1801 0.950 . S
H1796 C1802 0.949 . S
C1797 H1792 0.950 . S
C1797 C1799 1.327 . S
C1797 C1803 1.429 . S
C1798 C1790 1.574 . S
C1798 H1793 0.949 . S
C1798 C1804 1.368 . S
C1799 C1783 1.349 . S
C1799 H1791 0.950 . S
C1799 C1797 1.327 . S
C1800 C1788 1.349 . S
C1800 H1794 0.950 . S
C1800 C1801 1.327 . S
C1801 H1795 0.950 . S
C1801 C1800 1.327 . S
C1801 C1805 1.429 . S
C1802 C1785 1.574 . S
C1802 H1796 0.949 . S
C1802 C1806 1.368 . S
C1803 C1784 1.429 . S
C1803 C1797 1.429 . S
C1803 C1804 1.523 . S
C1804 C1785 1.368 . S
C1804 C1798 1.368 . S
C1804 C1803 1.523 . S
C1805 C1789 1.429 . S
C1805 C1801 1.429 . S
C1805 C1806 1.523 . S
C1806 C1790 1.368 . S
C1806 C1802 1.368 . S
C1806 C1805 1.523 . S
H1807 C1782 0.950 . S
H1808 C1784 0.950 . S
H1809 C1785 0.949 . S
H1810 C1787 0.950 . S
H1811 C1789 0.950 . S
C1812 C1813 1.349 . S
C1812 C1814 1.327 . S
C1812 H1837 0.950 . S
C1813 C1812 1.349 . S
C1813 C1829 1.349 . S
C1814 C1812 1.327 . S
C1814 C1833 1.429 . S
C1814 H1838 0.950 . S
C1815 C1832 1.574 . S
C1815 C1834 1.368 . S
C1815 H1839 0.949 . S
H1816 C1820 0.949 . S
C1817 C1818 1.349 . S
C1817 C1819 1.327 . S
C1817 H1840 0.950 . S
C1818 C1817 1.349 . S
C1818 C1830 1.349 . S
C1819 C1817 1.327 . S
C1819 C1835 1.429 . S
C1819 H1841 0.950 . S
C1820 H1816 0.949 . S
C1820 C1828 1.574 . S
C1820 C1836 1.368 . S
H1821 C1829 0.950 . S
H1822 C1827 0.950 . S
H1823 C1828 0.949 . S
H1824 C1830 0.950 . S
H1825 C1831 0.950 . S
H1826 C1832 0.949 . S
C1827 H1822 0.950 . S
C1827 C1829 1.327 . S
C1827 C1833 1.429 . S
C1828 C1820 1.574 . S
C1828 H1823 0.949 . S
C1828 C1834 1.368 . S
C1829 C1813 1.349 . S
C1829 H1821 0.950 . S
C1829 C1827 1.327 . S
C1830 C1818 1.349 . S
C1830 H1824 0.950 . S
C1830 C1831 1.327 . S
C1831 H1825 0.950 . S
C1831 C1830 1.327 . S
C1831 C1835 1.429 . S
C1832 C1815 1.574 . S
C1832 H1826 0.949 . S
C1832 C1836 1.368 . S
C1833 C1814 1.429 . S
C1833 C1827 1.429 . S
C1833 C1834 1.523 . S
C1834 C1815 1.368 . S
C1834 C1828 1.368 . S
C1834 C1833 1.523 . S
C1835 C1819 1.429 . S
C1835 C1831 1.429 . S
C1835 C1836 1.523 . S
C1836 C1820 1.368 . S
C1836 C1832 1.368 . S
C1836 C1835 1.523 . S
H1837 C1812 0.950 . S
H1838 C1814 0.950 . S
H1839 C1815 0.949 . S
H1840 C1817 0.950 . S
H1841 C1819 0.950 . S
C1842 C1843 1.349 . S
C1842 C1844 1.327 . S
C1842 H1867 0.950 . S
C1843 C1842 1.349 . S
C1843 C1859 1.349 . S
C1844 C1842 1.327 . S
C1844 C1863 1.429 . S
C1844 H1868 0.950 . S
C1845 C1862 1.574 . S
C1845 C1864 1.368 . S
C1845 H1869 0.949 . S
H1846 C1850 0.949 . S
C1847 C1848 1.349 . S
C1847 C1849 1.327 . S
C1847 H1870 0.950 . S
C1848 C1847 1.349 . S
C1848 C1860 1.349 . S
C1849 C1847 1.327 . S
C1849 C1865 1.429 . S
C1849 H1871 0.950 . S
C1850 H1846 0.949 . S
C1850 C1858 1.574 . S
C1850 C1866 1.368 . S
H1851 C1859 0.950 . S
H1852 C1857 0.950 . S
H1853 C1858 0.949 . S
H1854 C1860 0.950 . S
H1855 C1861 0.950 . S
H1856 C1862 0.949 . S
C1857 H1852 0.950 . S
C1857 C1859 1.327 . S
C1857 C1863 1.429 . S
C1858 C1850 1.574 . S
C1858 H1853 0.949 . S
C1858 C1864 1.368 . S
C1859 C1843 1.349 . S
C1859 H1851 0.950 . S
C1859 C1857 1.327 . S
C1860 C1848 1.349 . S
C1860 H1854 0.950 . S
C1860 C1861 1.327 . S
C1861 H1855 0.950 . S
C1861 C1860 1.327 . S
C1861 C1865 1.429 . S
C1862 C1845 1.574 . S
C1862 H1856 0.949 . S
C1862 C1866 1.368 . S
C1863 C1844 1.429 . S
C1863 C1857 1.429 . S
C1863 C1864 1.523 . S
C1864 C1845 1.368 . S
C1864 C1858 1.368 . S
C1864 C1863 1.523 . S
C1865 C1849 1.429 . S
C1865 C1861 1.429 . S
C1865 C1866 1.523 . S
C1866 C1850 1.368 . S
C1866 C1862 1.368 . S
C1866 C1865 1.523 . S
H1867 C1842 0.950 . S
H1868 C1844 0.950 . S
H1869 C1845 0.949 . S
H1870 C1847 0.950 . S
H1871 C1849 0.950 . S
C1872 C1873 1.349 . S
C1872 C1874 1.327 . S
C1872 H1897 0.950 . S
C1873 C1872 1.349 . S
C1873 C1889 1.349 . S
C1874 C1872 1.327 . S
C1874 C1893 1.429 . S
C1874 H1898 0.950 . S
C1875 C1892 1.574 . S
C1875 C1894 1.368 . S
C1875 H1899 0.949 . S
H1876 C1880 0.949 . S
C1877 C1878 1.349 . S
C1877 C1879 1.327 . S
C1877 H1900 0.950 . S
C1878 C1877 1.349 . S
C1878 C1890 1.349 . S
C1879 C1877 1.327 . S
C1879 C1895 1.429 . S
C1879 H1901 0.950 . S
C1880 H1876 0.949 . S
C1880 C1888 1.574 . S
C1880 C1896 1.368 . S
H1881 C1889 0.950 . S
H1882 C1887 0.950 . S
H1883 C1888 0.949 . S
H1884 C1890 0.950 . S
H1885 C1891 0.950 . S
H1886 C1892 0.949 . S
C1887 H1882 0.950 . S
C1887 C1889 1.327 . S
C1887 C1893 1.429 . S
C1888 C1880 1.574 . S
C1888 H1883 0.949 . S
C1888 C1894 1.368 . S
C1889 C1873 1.349 . S
C1889 H1881 0.950 . S
C1889 C1887 1.327 . S
C1890 C1878 1.349 . S
C1890 H1884 0.950 . S
C1890 C1891 1.327 . S
C1891 H1885 0.950 . S
C1891 C1890 1.327 . S
C1891 C1895 1.429 . S
C1892 C1875 1.574 . S
C1892 H1886 0.949 . S
C1892 C1896 1.368 . S
C1893 C1874 1.429 . S
C1893 C1887 1.429 . S
C1893 C1894 1.523 . S
C1894 C1875 1.368 . S
C1894 C1888 1.368 . S
C1894 C1893 1.523 . S
C1895 C1879 1.429 . S
C1895 C1891 1.429 . S
C1895 C1896 1.523 . S
C1896 C1880 1.368 . S
C1896 C1892 1.368 . S
C1896 C1895 1.523 . S
H1897 C1872 0.950 . S
H1898 C1874 0.950 . S
H1899 C1875 0.949 . S
H1900 C1877 0.950 . S
H1901 C1879 0.950 . S
C1902 C1903 1.349 . S
C1902 C1904 1.327 . S
C1902 H1927 0.950 . S
C1903 C1902 1.349 . S
C1903 C1919 1.349 . S
C1904 C1902 1.327 . S
C1904 C1923 1.429 . S
C1904 H1928 0.950 . S
C1905 C1922 1.574 . S
C1905 C1924 1.368 . S
C1905 H1929 0.949 . S
H1906 C1910 0.949 . S
C1907 C1908 1.349 . S
C1907 C1909 1.327 . S
C1907 H1930 0.950 . S
C1908 C1907 1.349 . S
C1908 C1920 1.349 . S
C1909 C1907 1.327 . S
C1909 C1925 1.429 . S
C1909 H1931 0.950 . S
C1910 H1906 0.949 . S
C1910 C1918 1.574 . S
C1910 C1926 1.368 . S
H1911 C1919 0.950 . S
H1912 C1917 0.950 . S
H1913 C1918 0.949 . S
H1914 C1920 0.950 . S
H1915 C1921 0.950 . S
H1916 C1922 0.949 . S
C1917 H1912 0.950 . S
C1917 C1919 1.327 . S
C1917 C1923 1.429 . S
C1918 C1910 1.574 . S
C1918 H1913 0.949 . S
C1918 C1924 1.368 . S
C1919 C1903 1.349 . S
C1919 H1911 0.950 . S
C1919 C1917 1.327 . S
C1920 C1908 1.349 . S
C1920 H1914 0.950 . S
C1920 C1921 1.327 . S
C1921 H1915 0.950 . S
C1921 C1920 1.327 . S
C1921 C1925 1.429 . S
C1922 C1905 1.574 . S
C1922 H1916 0.949 . S
C1922 C1926 1.368 . S
C1923 C1904 1.429 . S
C1923 C1917 1.429 . S
C1923 C1924 1.523 . S
C1924 C1905 1.368 . S
C1924 C1918 1.368 . S
C1924 C1923 1.523 . S
C1925 C1909 1.429 . S
C1925 C1921 1.429 . S
C1925 C1926 1.523 . S
C1926 C1910 1.368 . S
C1926 C1922 1.368 . S
C1926 C1925 1.523 . S
H1927 C1902 0.950 . S
H1928 C1904 0.950 . S
H1929 C1905 0.949 . S
H1930 C1907 0.950 . S
H1931 C1909 0.950 . S
C1932 C1933 1.349 . S
C1932 C1934 1.327 . S
C1932 H1957 0.950 . S
C1933 C1932 1.349 . S
C1933 C1949 1.349 . S
C1934 C1932 1.327 . S
C1934 C1953 1.429 . S
C1934 H1958 0.950 . S
C1935 C1952 1.574 . S
C1935 C1954 1.368 . S
C1935 H1959 0.949 . S
H1936 C1940 0.949 . S
C1937 C1938 1.349 . S
C1937 C1939 1.327 . S
C1937 H1960 0.950 . S
C1938 C1937 1.349 . S
C1938 C1950 1.349 . S
C1939 C1937 1.327 . S
C1939 C1955 1.429 . S
C1939 H1961 0.950 . S
C1940 H1936 0.949 . S
C1940 C1948 1.574 . S
C1940 C1956 1.368 . S
H1941 C1949 0.950 . S
H1942 C1947 0.950 . S
H1943 C1948 0.949 . S
H1944 C1950 0.950 . S
H1945 C1951 0.950 . S
H1946 C1952 0.949 . S
C1947 H1942 0.950 . S
C1947 C1949 1.327 . S
C1947 C1953 1.429 . S
C1948 C1940 1.574 . S
C1948 H1943 0.949 . S
C1948 C1954 1.368 . S
C1949 C1933 1.349 . S
C1949 H1941 0.950 . S
C1949 C1947 1.327 . S
C1950 C1938 1.349 . S
C1950 H1944 0.950 . S
C1950 C1951 1.327 . S
C1951 H1945 0.950 . S
C1951 C1950 1.327 . S
C1951 C1955 1.429 . S
C1952 C1935 1.574 . S
C1952 H1946 0.949 . S
C1952 C1956 1.368 . S
C1953 C1934 1.429 . S
C1953 C1947 1.429 . S
C1953 C1954 1.523 . S
C1954 C1935 1.368 . S
C1954 C1948 1.368 . S
C1954 C1953 1.523 . S
C1955 C1939 1.429 . S
C1955 C1951 1.429 . S
C1955 C1956 1.523 . S
C1956 C1940 1.368 . S
C1956 C1952 1.368 . S
C1956 C1955 1.523 . S
H1957 C1932 0.950 . S
H1958 C1934 0.950 . S
H1959 C1935 0.949 . S
H1960 C1937 0.950 . S
H1961 C1939 0.950 . S
C1962 C1963 1.349 . S
C1962 C1964 1.327 . S
C1962 H1987 0.950 . S
C1963 C1962 1.349 . S
C1963 C1979 1.349 . S
C1964 C1962 1.327 . S
C1964 C1983 1.429 . S
C1964 H1988 0.950 . S
C1965 C1982 1.574 . S
C1965 C1984 1.368 . S
C1965 H1989 0.949 . S
H1966 C1970 0.949 . S
C1967 C1968 1.349 . S
C1967 C1969 1.327 . S
C1967 H1990 0.950 . S
C1968 C1967 1.349 . S
C1968 C1980 1.349 . S
C1969 C1967 1.327 . S
C1969 C1985 1.429 . S
C1969 H1991 0.950 . S
C1970 H1966 0.949 . S
C1970 C1978 1.574 . S
C1970 C1986 1.368 . S
H1971 C1979 0.950 . S
H1972 C1977 0.950 . S
H1973 C1978 0.949 . S
H1974 C1980 0.950 . S
H1975 C1981 0.950 . S
H1976 C1982 0.949 . S
C1977 H1972 0.950 . S
C1977 C1979 1.327 . S
C1977 C1983 1.429 . S
C1978 C1970 1.574 . S
C1978 H1973 0.949 . S
C1978 C1984 1.368 . S
C1979 C1963 1.349 . S
C1979 H1971 0.950 . S
C1979 C1977 1.327 . S
C1980 C1968 1.349 . S
C1980 H1974 0.950 . S
C1980 C1981 1.327 . S
C1981 H1975 0.950 . S
C1981 C1980 1.327 . S
C1981 C1985 1.429 . S
C1982 C1965 1.574 . S
C1982 H1976 0.949 . S
C1982 C1986 1.368 . S
C1983 C1964 1.429 . S
C1983 C1977 1.429 . S
C1983 C1984 1.523 . S
C1984 C1965 1.368 . S
C1984 C1978 1.368 . S
C1984 C1983 1.523 . S
C1985 C1969 1.429 . S
C1985 C1981 1.429 . S
C1985 C1986 1.523 . S
C1986 C1970 1.368 . S
C1986 C1982 1.368 . S
C1986 C1985 1.523 . S
H1987 C1962 0.950 . S
H1988 C1964 0.950 . S
H1989 C1965 0.949 . S
H1990 C1967 0.950 . S
H1991 C1969 0.950 . S
C1992 C1993 1.349 . S
C1992 C1994 1.327 . S
C1992 H2017 0.950 . S
C1993 C1992 1.349 . S
C1993 C2009 1.349 . S
C1994 C1992 1.327 . S
C1994 C2013 1.429 . S
C1994 H2018 0.950 . S
C1995 C2012 1.574 . S
C1995 C2014 1.368 . S
C1995 H2019 0.949 . S
H1996 C2000 0.949 . S
C1997 C1998 1.349 . S
C1997 C1999 1.327 . S
C1997 H2020 0.950 . S
C1998 C1997 1.349 . S
C1998 C2010 1.349 . S
C1999 C1997 1.327 . S
C1999 C2015 1.429 . S
C1999 H2021 0.950 . S
C2000 H1996 0.949 . S
C2000 C2008 1.574 . S
C2000 C2016 1.368 . S
H2001 C2009 0.950 . S
H2002 C2007 0.950 . S
H2003 C2008 0.949 . S
H2004 C2010 0.950 . S
H2005 C2011 0.950 . S
H2006 C2012 0.949 . S
C2007 H2002 0.950 . S
C2007 C2009 1.327 . S
C2007 C2013 1.429 . S
C2008 C2000 1.574 . S
C2008 H2003 0.949 . S
C2008 C2014 1.368 . S
C2009 C1993 1.349 . S
C2009 H2001 0.950 . S
C2009 C2007 1.327 . S
C2010 C1998 1.349 . S
C2010 H2004 0.950 . S
C2010 C2011 1.327 . S
C2011 H2005 0.950 . S
C2011 C2010 1.327 . S
C2011 C2015 1.429 . S
C2012 C1995 1.574 . S
C2012 H2006 0.949 . S
C2012 C2016 1.368 . S
C2013 C1994 1.429 . S
C2013 C2007 1.429 . S
C2013 C2014 1.523 . S
C2014 C1995 1.368 . S
C2014 C2008 1.368 . S
C2014 C2013 1.523 . S
C2015 C1999 1.429 . S
C2015 C2011 1.429 . S
C2015 C2016 1.523 . S
C2016 C2000 1.368 . S
C2016 C2012 1.368 . S
C2016 C2015 1.523 . S
H2017 C1992 0.950 . S
H2018 C1994 0.950 . S
H2019 C1995 0.949 . S
H2020 C1997 0.950 . S
H2021 C1999 0.950 . S
C2022 C2023 1.349 . S
C2022 C2024 1.327 . S
C2022 H2047 0.950 . S
C2023 C2022 1.349 . S
C2023 C2039 1.349 . S
C2024 C2022 1.327 . S
C2024 C2043 1.429 . S
C2024 H2048 0.950 . S
C2025 C2042 1.574 . S
C2025 C2044 1.368 . S
C2025 H2049 0.949 . S
H2026 C2030 0.949 . S
C2027 C2028 1.349 . S
C2027 C2029 1.327 . S
C2027 H2050 0.950 . S
C2028 C2027 1.349 . S
C2028 C2040 1.349 . S
C2029 C2027 1.327 . S
C2029 C2045 1.429 . S
C2029 H2051 0.950 . S
C2030 H2026 0.949 . S
C2030 C2038 1.574 . S
C2030 C2046 1.368 . S
H2031 C2039 0.950 . S
H2032 C2037 0.950 . S
H2033 C2038 0.949 . S
H2034 C2040 0.950 . S
H2035 C2041 0.950 . S
H2036 C2042 0.949 . S
C2037 H2032 0.950 . S
C2037 C2039 1.327 . S
C2037 C2043 1.429 . S
C2038 C2030 1.574 . S
C2038 H2033 0.949 . S
C2038 C2044 1.368 . S
C2039 C2023 1.349 . S
C2039 H2031 0.950 . S
C2039 C2037 1.327 . S
C2040 C2028 1.349 . S
C2040 H2034 0.950 . S
C2040 C2041 1.327 . S
C2041 H2035 0.950 . S
C2041 C2040 1.327 . S
C2041 C2045 1.429 . S
C2042 C2025 1.574 . S
C2042 H2036 0.949 . S
C2042 C2046 1.368 . S
C2043 C2024 1.429 . S
C2043 C2037 1.429 . S
C2043 C2044 1.523 . S
C2044 C2025 1.368 . S
C2044 C2038 1.368 . S
C2044 C2043 1.523 . S
C2045 C2029 1.429 . S
C2045 C2041 1.429 . S
C2045 C2046 1.523 . S
C2046 C2030 1.368 . S
C2046 C2042 1.368 . S
C2046 C2045 1.523 . S
H2047 C2022 0.950 . S
H2048 C2024 0.950 . S
H2049 C2025 0.949 . S
H2050 C2027 0.950 . S
H2051 C2029 0.950 . S
C2052 C2053 1.349 . S
C2052 C2054 1.327 . S
C2052 H2077 0.950 . S
C2053 C2052 1.349 . S
C2053 C2069 1.349 . S
C2054 C2052 1.327 . S
C2054 C2073 1.429 . S
C2054 H2078 0.950 . S
C2055 C2072 1.574 . S
C2055 C2074 1.368 . S
C2055 H2079 0.949 . S
H2056 C2060 0.949 . S
C2057 C2058 1.349 . S
C2057 C2059 1.327 . S
C2057 H2080 0.950 . S
C2058 C2057 1.349 . S
C2058 C2070 1.349 . S
C2059 C2057 1.327 . S
C2059 C2075 1.429 . S
C2059 H2081 0.950 . S
C2060 H2056 0.949 . S
C2060 C2068 1.574 . S
C2060 C2076 1.368 . S
H2061 C2069 0.950 . S
H2062 C2067 0.950 . S
H2063 C2068 0.949 . S
H2064 C2070 0.950 . S
H2065 C2071 0.950 . S
H2066 C2072 0.949 . S
C2067 H2062 0.950 . S
C2067 C2069 1.327 . S
C2067 C2073 1.429 . S
C2068 C2060 1.574 . S
C2068 H2063 0.949 . S
C2068 C2074 1.368 . S
C2069 C2053 1.349 . S
C2069 H2061 0.950 . S
C2069 C2067 1.327 . S
C2070 C2058 1.349 . S
C2070 H2064 0.950 . S
C2070 C2071 1.327 . S
C2071 H2065 0.950 . S
C2071 C2070 1.327 . S
C2071 C2075 1.429 . S
C2072 C2055 1.574 . S
C2072 H2066 0.949 . S
C2072 C2076 1.368 . S
C2073 C2054 1.429 . S
C2073 C2067 1.429 . S
C2073 C2074 1.523 . S
C2074 C2055 1.368 . S
C2074 C2068 1.368 . S
C2074 C2073 1.523 . S
C2075 C2059 1.429 . S
C2075 C2071 1.429 . S
C2075 C2076 1.523 . S
C2076 C2060 1.368 . S
C2076 C2072 1.368 . S
C2076 C2075 1.523 . S
H2077 C2052 0.950 . S
H2078 C2054 0.950 . S
H2079 C2055 0.949 . S
H2080 C2057 0.950 . S
H2081 C2059 0.950 . S
C2082 C2083 1.349 . S
C2082 C2084 1.327 . S
C2082 H2107 0.950 . S
C2083 C2082 1.349 . S
C2083 C2099 1.349 . S
C2084 C2082 1.327 . S
C2084 C2103 1.429 . S
C2084 H2108 0.950 . S
C2085 C2102 1.574 . S
C2085 C2104 1.368 . S
C2085 H2109 0.949 . S
H2086 C2090 0.949 . S
C2087 C2088 1.349 . S
C2087 C2089 1.327 . S
C2087 H2110 0.950 . S
C2088 C2087 1.349 . S
C2088 C2100 1.349 . S
C2089 C2087 1.327 . S
C2089 C2105 1.429 . S
C2089 H2111 0.950 . S
C2090 H2086 0.949 . S
C2090 C2098 1.574 . S
C2090 C2106 1.368 . S
H2091 C2099 0.950 . S
H2092 C2097 0.950 . S
H2093 C2098 0.949 . S
H2094 C2100 0.950 . S
H2095 C2101 0.950 . S
H2096 C2102 0.949 . S
C2097 H2092 0.950 . S
C2097 C2099 1.327 . S
C2097 C2103 1.429 . S
C2098 C2090 1.574 . S
C2098 H2093 0.949 . S
C2098 C2104 1.368 . S
C2099 C2083 1.349 . S
C2099 H2091 0.950 . S
C2099 C2097 1.327 . S
C2100 C2088 1.349 . S
C2100 H2094 0.950 . S
C2100 C2101 1.327 . S
C2101 H2095 0.950 . S
C2101 C2100 1.327 . S
C2101 C2105 1.429 . S
C2102 C2085 1.574 . S
C2102 H2096 0.949 . S
C2102 C2106 1.368 . S
C2103 C2084 1.429 . S
C2103 C2097 1.429 . S
C2103 C2104 1.523 . S
C2104 C2085 1.368 . S
C2104 C2098 1.368 . S
C2104 C2103 1.523 . S
C2105 C2089 1.429 . S
C2105 C2101 1.429 . S
C2105 C2106 1.523 . S
C2106 C2090 1.368 . S
C2106 C2102 1.368 . S
C2106 C2105 1.523 . S
H2107 C2082 0.950 . S
H2108 C2084 0.950 . S
H2109 C2085 0.949 . S
H2110 C2087 0.950 . S
H2111 C2089 0.950 . S
C2112 C2113 1.349 . S
C2112 C2114 1.327 . S
C2112 H2137 0.950 . S
C2113 C2112 1.349 . S
C2113 C2129 1.349 . S
C2114 C2112 1.327 . S
C2114 C2133 1.429 . S
C2114 H2138 0.950 . S
C2115 C2132 1.574 . S
C2115 C2134 1.368 . S
C2115 H2139 0.949 . S
H2116 C2120 0.949 . S
C2117 C2118 1.349 . S
C2117 C2119 1.327 . S
C2117 H2140 0.950 . S
C2118 C2117 1.349 . S
C2118 C2130 1.349 . S
C2119 C2117 1.327 . S
C2119 C2135 1.429 . S
C2119 H2141 0.950 . S
C2120 H2116 0.949 . S
C2120 C2128 1.574 . S
C2120 C2136 1.368 . S
H2121 C2129 0.950 . S
H2122 C2127 0.950 . S
H2123 C2128 0.949 . S
H2124 C2130 0.950 . S
H2125 C2131 0.950 . S
H2126 C2132 0.949 . S
C2127 H2122 0.950 . S
C2127 C2129 1.327 . S
C2127 C2133 1.429 . S
C2128 C2120 1.574 . S
C2128 H2123 0.949 . S
C2128 C2134 1.368 . S
C2129 C2113 1.349 . S
C2129 H2121 0.950 . S
C2129 C2127 1.327 . S
C2130 C2118 1.349 . S
C2130 H2124 0.950 . S
C2130 C2131 1.327 . S
C2131 H2125 0.950 . S
C2131 C2130 1.327 . S
C2131 C2135 1.429 . S
C2132 C2115 1.574 . S
C2132 H2126 0.949 . S
C2132 C2136 1.368 . S
C2133 C2114 1.429 . S
C2133 C2127 1.429 . S
C2133 C2134 1.523 . S
C2134 C2115 1.368 . S
C2134 C2128 1.368 . S
C2134 C2133 1.523 . S
C2135 C2119 1.429 . S
C2135 C2131 1.429 . S
C2135 C2136 1.523 . S
C2136 C2120 1.368 . S
C2136 C2132 1.368 . S
C2136 C2135 1.523 . S
H2137 C2112 0.950 . S
H2138 C2114 0.950 . S
H2139 C2115 0.949 . S
H2140 C2117 0.950 . S
H2141 C2119 0.950 . S
C2142 C2143 1.349 . S
C2142 C2144 1.327 . S
C2142 H2167 0.950 . S
C2143 C2142 1.349 . S
C2143 C2159 1.349 . S
C2144 C2142 1.327 . S
C2144 C2163 1.429 . S
C2144 H2168 0.950 . S
C2145 C2162 1.574 . S
C2145 C2164 1.368 . S
C2145 H2169 0.949 . S
H2146 C2150 0.949 . S
C2147 C2148 1.349 . S
C2147 C2149 1.327 . S
C2147 H2170 0.950 . S
C2148 C2147 1.349 . S
C2148 C2160 1.349 . S
C2149 C2147 1.327 . S
C2149 C2165 1.429 . S
C2149 H2171 0.950 . S
C2150 H2146 0.949 . S
C2150 C2158 1.574 . S
C2150 C2166 1.368 . S
H2151 C2159 0.950 . S
H2152 C2157 0.950 . S
H2153 C2158 0.949 . S
H2154 C2160 0.950 . S
H2155 C2161 0.950 . S
H2156 C2162 0.949 . S
C2157 H2152 0.950 . S
C2157 C2159 1.327 . S
C2157 C2163 1.429 . S
C2158 C2150 1.574 . S
C2158 H2153 0.949 . S
C2158 C2164 1.368 . S
C2159 C2143 1.349 . S
C2159 H2151 0.950 . S
C2159 C2157 1.327 . S
C2160 C2148 1.349 . S
C2160 H2154 0.950 . S
C2160 C2161 1.327 . S
C2161 H2155 0.950 . S
C2161 C2160 1.327 . S
C2161 C2165 1.429 . S
C2162 C2145 1.574 . S
C2162 H2156 0.949 . S
C2162 C2166 1.368 . S
C2163 C2144 1.429 . S
C2163 C2157 1.429 . S
C2163 C2164 1.523 . S
C2164 C2145 1.368 . S
C2164 C2158 1.368 . S
C2164 C2163 1.523 . S
C2165 C2149 1.429 . S
C2165 C2161 1.429 . S
C2165 C2166 1.523 . S
C2166 C2150 1.368 . S
C2166 C2162 1.368 . S
C2166 C2165 1.523 . S
H2167 C2142 0.950 . S
H2168 C2144 0.950 . S
H2169 C2145 0.949 . S
H2170 C2147 0.950 . S
H2171 C2149 0.950 . S
C2172 C2173 1.349 . S
C2172 C2174 1.327 . S
C2172 H2197 0.950 . S
C2173 C2172 1.349 . S
C2173 C2189 1.349 . S
C2174 C2172 1.327 . S
C2174 C2193 1.429 . S
C2174 H2198 0.950 . S
C2175 C2192 1.574 . S
C2175 C2194 1.368 . S
C2175 H2199 0.949 . S
H2176 C2180 0.949 . S
C2177 C2178 1.349 . S
C2177 C2179 1.327 . S
C2177 H2200 0.950 . S
C2178 C2177 1.349 . S
C2178 C2190 1.349 . S
C2179 C2177 1.327 . S
C2179 C2195 1.429 . S
C2179 H2201 0.950 . S
C2180 H2176 0.949 . S
C2180 C2188 1.574 . S
C2180 C2196 1.368 . S
H2181 C2189 0.950 . S
H2182 C2187 0.950 . S
H2183 C2188 0.949 . S
H2184 C2190 0.950 . S
H2185 C2191 0.950 . S
H2186 C2192 0.949 . S
C2187 H2182 0.950 . S
C2187 C2189 1.327 . S
C2187 C2193 1.429 . S
C2188 C2180 1.574 . S
C2188 H2183 0.949 . S
C2188 C2194 1.368 . S
C2189 C2173 1.349 . S
C2189 H2181 0.950 . S
C2189 C2187 1.327 . S
C2190 C2178 1.349 . S
C2190 H2184 0.950 . S
C2190 C2191 1.327 . S
C2191 H2185 0.950 . S
C2191 C2190 1.327 . S
C2191 C2195 1.429 . S
C2192 C2175 1.574 . S
C2192 H2186 0.949 . S
C2192 C2196 1.368 . S
C2193 C2174 1.429 . S
C2193 C2187 1.429 . S
C2193 C2194 1.523 . S
C2194 C2175 1.368 . S
C2194 C2188 1.368 . S
C2194 C2193 1.523 . S
C2195 C2179 1.429 . S
C2195 C2191 1.429 . S
C2195 C2196 1.523 . S
C2196 C2180 1.368 . S
C2196 C2192 1.368 . S
C2196 C2195 1.523 . S
H2197 C2172 0.950 . S
H2198 C2174 0.950 . S
H2199 C2175 0.949 . S
H2200 C2177 0.950 . S
H2201 C2179 0.950 . S
C2202 C2203 1.349 . S
C2202 C2204 1.327 . S
C2202 H2227 0.950 . S
C2203 C2202 1.349 . S
C2203 C2219 1.349 . S
C2204 C2202 1.327 . S
C2204 C2223 1.429 . S
C2204 H2228 0.950 . S
C2205 C2222 1.574 . S
C2205 C2224 1.368 . S
C2205 H2229 0.949 . S
H2206 C2210 0.949 . S
C2207 C2208 1.349 . S
C2207 C2209 1.327 . S
C2207 H2230 0.950 . S
C2208 C2207 1.349 . S
C2208 C2220 1.349 . S
C2209 C2207 1.327 . S
C2209 C2225 1.429 . S
C2209 H2231 0.950 . S
C2210 H2206 0.949 . S
C2210 C2218 1.574 . S
C2210 C2226 1.368 . S
H2211 C2219 0.950 . S
H2212 C2217 0.950 . S
H2213 C2218 0.949 . S
H2214 C2220 0.950 . S
H2215 C2221 0.950 . S
H2216 C2222 0.949 . S
C2217 H2212 0.950 . S
C2217 C2219 1.327 . S
C2217 C2223 1.429 . S
C2218 C2210 1.574 . S
C2218 H2213 0.949 . S
C2218 C2224 1.368 . S
C2219 C2203 1.349 . S
C2219 H2211 0.950 . S
C2219 C2217 1.327 . S
C2220 C2208 1.349 . S
C2220 H2214 0.950 . S
C2220 C2221 1.327 . S
C2221 H2215 0.950 . S
C2221 C2220 1.327 . S
C2221 C2225 1.429 . S
C2222 C2205 1.574 . S
C2222 H2216 0.949 . S
C2222 C2226 1.368 . S
C2223 C2204 1.429 . S
C2223 C2217 1.429 . S
C2223 C2224 1.523 . S
C2224 C2205 1.368 . S
C2224 C2218 1.368 . S
C2224 C2223 1.523 . S
C2225 C2209 1.429 . S
C2225 C2221 1.429 . S
C2225 C2226 1.523 . S
C2226 C2210 1.368 . S
C2226 C2222 1.368 . S
C2226 C2225 1.523 . S
H2227 C2202 0.950 . S
H2228 C2204 0.950 . S
H2229 C2205 0.949 . S
H2230 C2207 0.950 . S
H2231 C2209 0.950 . S
C2232 C2233 1.349 . S
C2232 C2234 1.327 . S
C2232 H2257 0.950 . S
C2233 C2232 1.349 . S
C2233 C2249 1.349 . S
C2234 C2232 1.327 . S
C2234 C2253 1.429 . S
C2234 H2258 0.950 . S
C2235 C2252 1.574 . S
C2235 C2254 1.368 . S
C2235 H2259 0.949 . S
H2236 C2240 0.949 . S
C2237 C2238 1.349 . S
C2237 C2239 1.327 . S
C2237 H2260 0.950 . S
C2238 C2237 1.349 . S
C2238 C2250 1.349 . S
C2239 C2237 1.327 . S
C2239 C2255 1.429 . S
C2239 H2261 0.950 . S
C2240 H2236 0.949 . S
C2240 C2248 1.574 . S
C2240 C2256 1.368 . S
H2241 C2249 0.950 . S
H2242 C2247 0.950 . S
H2243 C2248 0.949 . S
H2244 C2250 0.950 . S
H2245 C2251 0.950 . S
H2246 C2252 0.949 . S
C2247 H2242 0.950 . S
C2247 C2249 1.327 . S
C2247 C2253 1.429 . S
C2248 C2240 1.574 . S
C2248 H2243 0.949 . S
C2248 C2254 1.368 . S
C2249 C2233 1.349 . S
C2249 H2241 0.950 . S
C2249 C2247 1.327 . S
C2250 C2238 1.349 . S
C2250 H2244 0.950 . S
C2250 C2251 1.327 . S
C2251 H2245 0.950 . S
C2251 C2250 1.327 . S
C2251 C2255 1.429 . S
C2252 C2235 1.574 . S
C2252 H2246 0.949 . S
C2252 C2256 1.368 . S
C2253 C2234 1.429 . S
C2253 C2247 1.429 . S
C2253 C2254 1.523 . S
C2254 C2235 1.368 . S
C2254 C2248 1.368 . S
C2254 C2253 1.523 . S
C2255 C2239 1.429 . S
C2255 C2251 1.429 . S
C2255 C2256 1.523 . S
C2256 C2240 1.368 . S
C2256 C2252 1.368 . S
C2256 C2255 1.523 . S
H2257 C2232 0.950 . S
H2258 C2234 0.950 . S
H2259 C2235 0.949 . S
H2260 C2237 0.950 . S
H2261 C2239 0.950 . S
C2262 C2263 1.349 . S
C2262 C2264 1.327 . S
C2262 H2287 0.950 . S
C2263 C2262 1.349 . S
C2263 C2279 1.349 . S
C2264 C2262 1.327 . S
C2264 C2283 1.429 . S
C2264 H2288 0.950 . S
C2265 C2282 1.574 . S
C2265 C2284 1.368 . S
C2265 H2289 0.949 . S
H2266 C2270 0.949 . S
C2267 C2268 1.349 . S
C2267 C2269 1.327 . S
C2267 H2290 0.950 . S
C2268 C2267 1.349 . S
C2268 C2280 1.349 . S
C2269 C2267 1.327 . S
C2269 C2285 1.429 . S
C2269 H2291 0.950 . S
C2270 H2266 0.949 . S
C2270 C2278 1.574 . S
C2270 C2286 1.368 . S
H2271 C2279 0.950 . S
H2272 C2277 0.950 . S
H2273 C2278 0.949 . S
H2274 C2280 0.950 . S
H2275 C2281 0.950 . S
H2276 C2282 0.949 . S
C2277 H2272 0.950 . S
C2277 C2279 1.327 . S
C2277 C2283 1.429 . S
C2278 C2270 1.574 . S
C2278 H2273 0.949 . S
C2278 C2284 1.368 . S
C2279 C2263 1.349 . S
C2279 H2271 0.950 . S
C2279 C2277 1.327 . S
C2280 C2268 1.349 . S
C2280 H2274 0.950 . S
C2280 C2281 1.327 . S
C2281 H2275 0.950 . S
C2281 C2280 1.327 . S
C2281 C2285 1.429 . S
C2282 C2265 1.574 . S
C2282 H2276 0.949 . S
C2282 C2286 1.368 . S
C2283 C2264 1.429 . S
C2283 C2277 1.429 . S
C2283 C2284 1.523 . S
C2284 C2265 1.368 . S
C2284 C2278 1.368 . S
C2284 C2283 1.523 . S
C2285 C2269 1.429 . S
C2285 C2281 1.429 . S
C2285 C2286 1.523 . S
C2286 C2270 1.368 . S
C2286 C2282 1.368 . S
C2286 C2285 1.523 . S
H2287 C2262 0.950 . S
H2288 C2264 0.950 . S
H2289 C2265 0.949 . S
H2290 C2267 0.950 . S
H2291 C2269 0.950 . S
C2292 C2293 1.349 . S
C2292 C2294 1.327 . S
C2292 H2317 0.950 . S
C2293 C2292 1.349 . S
C2293 C2309 1.349 . S
C2294 C2292 1.327 . S
C2294 C2313 1.429 . S
C2294 H2318 0.950 . S
C2295 C2312 1.574 . S
C2295 C2314 1.368 . S
C2295 H2319 0.949 . S
H2296 C2300 0.949 . S
C2297 C2298 1.349 . S
C2297 C2299 1.327 . S
C2297 H2320 0.950 . S
C2298 C2297 1.349 . S
C2298 C2310 1.349 . S
C2299 C2297 1.327 . S
C2299 C2315 1.429 . S
C2299 H2321 0.950 . S
C2300 H2296 0.949 . S
C2300 C2308 1.574 . S
C2300 C2316 1.368 . S
H2301 C2309 0.950 . S
H2302 C2307 0.950 . S
H2303 C2308 0.949 . S
H2304 C2310 0.950 . S
H2305 C2311 0.950 . S
H2306 C2312 0.949 . S
C2307 H2302 0.950 . S
C2307 C2309 1.327 . S
C2307 C2313 1.429 . S
C2308 C2300 1.574 . S
C2308 H2303 0.949 . S
C2308 C2314 1.368 . S
C2309 C2293 1.349 . S
C2309 H2301 0.950 . S
C2309 C2307 1.327 . S
C2310 C2298 1.349 . S
C2310 H2304 0.950 . S
C2310 C2311 1.327 . S
C2311 H2305 0.950 . S
C2311 C2310 1.327 . S
C2311 C2315 1.429 . S
C2312 C2295 1.574 . S
C2312 H2306 0.949 . S
C2312 C2316 1.368 . S
C2313 C2294 1.429 . S
C2313 C2307 1.429 . S
C2313 C2314 1.523 . S
C2314 C2295 1.368 . S
C2314 C2308 1.368 . S
C2314 C2313 1.523 . S
C2315 C2299 1.429 . S
C2315 C2311 1.429 . S
C2315 C2316 1.523 . S
C2316 C2300 1.368 . S
C2316 C2312 1.368 . S
C2316 C2315 1.523 . S
H2317 C2292 0.950 . S
H2318 C2294 0.950 . S
H2319 C2295 0.949 . S
H2320 C2297 0.950 . S
H2321 C2299 0.950 . S
C2322 C2323 1.349 . S
C2322 C2324 1.327 . S
C2322 H2347 0.950 . S
C2323 C2322 1.349 . S
C2323 C2339 1.349 . S
C2324 C2322 1.327 . S
C2324 C2343 1.429 . S
C2324 H2348 0.950 . S
C2325 C2342 1.574 . S
C2325 C2344 1.368 . S
C2325 H2349 0.949 . S
H2326 C2330 0.949 . S
C2327 C2328 1.349 . S
C2327 C2329 1.327 . S
C2327 H2350 0.950 . S
C2328 C2327 1.349 . S
C2328 C2340 1.349 . S
C2329 C2327 1.327 . S
C2329 C2345 1.429 . S
C2329 H2351 0.950 . S
C2330 H2326 0.949 . S
C2330 C2338 1.574 . S
C2330 C2346 1.368 . S
H2331 C2339 0.950 . S
H2332 C2337 0.950 . S
H2333 C2338 0.949 . S
H2334 C2340 0.950 . S
H2335 C2341 0.950 . S
H2336 C2342 0.949 . S
C2337 H2332 0.950 . S
C2337 C2339 1.327 . S
C2337 C2343 1.429 . S
C2338 C2330 1.574 . S
C2338 H2333 0.949 . S
C2338 C2344 1.368 . S
C2339 C2323 1.349 . S
C2339 H2331 0.950 . S
C2339 C2337 1.327 . S
C2340 C2328 1.349 . S
C2340 H2334 0.950 . S
C2340 C2341 1.327 . S
C2341 H2335 0.950 . S
C2341 C2340 1.327 . S
C2341 C2345 1.429 . S
C2342 C2325 1.574 . S
C2342 H2336 0.949 . S
C2342 C2346 1.368 . S
C2343 C2324 1.429 . S
C2343 C2337 1.429 . S
C2343 C2344 1.523 . S
C2344 C2325 1.368 . S
C2344 C2338 1.368 . S
C2344 C2343 1.523 . S
C2345 C2329 1.429 . S
C2345 C2341 1.429 . S
C2345 C2346 1.523 . S
C2346 C2330 1.368 . S
C2346 C2342 1.368 . S
C2346 C2345 1.523 . S
H2347 C2322 0.950 . S
H2348 C2324 0.950 . S
H2349 C2325 0.949 . S
H2350 C2327 0.950 . S
H2351 C2329 0.950 . S
C2352 C2353 1.349 . S
C2352 C2354 1.327 . S
C2352 H2377 0.950 . S
C2353 C2352 1.349 . S
C2353 C2369 1.349 . S
C2354 C2352 1.327 . S
C2354 C2373 1.429 . S
C2354 H2378 0.950 . S
C2355 C2372 1.574 . S
C2355 C2374 1.368 . S
C2355 H2379 0.949 . S
H2356 C2360 0.949 . S
C2357 C2358 1.349 . S
C2357 C2359 1.327 . S
C2357 H2380 0.950 . S
C2358 C2357 1.349 . S
C2358 C2370 1.349 . S
C2359 C2357 1.327 . S
C2359 C2375 1.429 . S
C2359 H2381 0.950 . S
C2360 H2356 0.949 . S
C2360 C2368 1.574 . S
C2360 C2376 1.368 . S
H2361 C2369 0.950 . S
H2362 C2367 0.950 . S
H2363 C2368 0.949 . S
H2364 C2370 0.950 . S
H2365 C2371 0.950 . S
H2366 C2372 0.949 . S
C2367 H2362 0.950 . S
C2367 C2369 1.327 . S
C2367 C2373 1.429 . S
C2368 C2360 1.574 . S
C2368 H2363 0.949 . S
C2368 C2374 1.368 . S
C2369 C2353 1.349 . S
C2369 H2361 0.950 . S
C2369 C2367 1.327 . S
C2370 C2358 1.349 . S
C2370 H2364 0.950 . S
C2370 C2371 1.327 . S
C2371 H2365 0.950 . S
C2371 C2370 1.327 . S
C2371 C2375 1.429 . S
C2372 C2355 1.574 . S
C2372 H2366 0.949 . S
C2372 C2376 1.368 . S
C2373 C2354 1.429 . S
C2373 C2367 1.429 . S
C2373 C2374 1.523 . S
C2374 C2355 1.368 . S
C2374 C2368 1.368 . S
C2374 C2373 1.523 . S
C2375 C2359 1.429 . S
C2375 C2371 1.429 . S
C2375 C2376 1.523 . S
C2376 C2360 1.368 . S
C2376 C2372 1.368 . S
C2376 C2375 1.523 . S
H2377 C2352 0.950 . S
H2378 C2354 0.950 . S
H2379 C2355 0.949 . S
H2380 C2357 0.950 . S
H2381 C2359 0.950 . S
C2382 C2383 1.349 . S
C2382 C2384 1.327 . S
C2382 H2407 0.950 . S
C2383 C2382 1.349 . S
C2383 C2399 1.349 . S
C2384 C2382 1.327 . S
C2384 C2403 1.429 . S
C2384 H2408 0.950 . S
C2385 C2402 1.574 . S
C2385 C2404 1.368 . S
C2385 H2409 0.949 . S
H2386 C2390 0.949 . S
C2387 C2388 1.349 . S
C2387 C2389 1.327 . S
C2387 H2410 0.950 . S
C2388 C2387 1.349 . S
C2388 C2400 1.349 . S
C2389 C2387 1.327 . S
C2389 C2405 1.429 . S
C2389 H2411 0.950 . S
C2390 H2386 0.949 . S
C2390 C2398 1.574 . S
C2390 C2406 1.368 . S
H2391 C2399 0.950 . S
H2392 C2397 0.950 . S
H2393 C2398 0.949 . S
H2394 C2400 0.950 . S
H2395 C2401 0.950 . S
H2396 C2402 0.949 . S
C2397 H2392 0.950 . S
C2397 C2399 1.327 . S
C2397 C2403 1.429 . S
C2398 C2390 1.574 . S
C2398 H2393 0.949 . S
C2398 C2404 1.368 . S
C2399 C2383 1.349 . S
C2399 H2391 0.950 . S
C2399 C2397 1.327 . S
C2400 C2388 1.349 . S
C2400 H2394 0.950 . S
C2400 C2401 1.327 . S
C2401 H2395 0.950 . S
C2401 C2400 1.327 . S
C2401 C2405 1.429 . S
C2402 C2385 1.574 . S
C2402 H2396 0.949 . S
C2402 C2406 1.368 . S
C2403 C2384 1.429 . S
C2403 C2397 1.429 . S
C2403 C2404 1.523 . S
C2404 C2385 1.368 . S
C2404 C2398 1.368 . S
C2404 C2403 1.523 . S
C2405 C2389 1.429 . S
C2405 C2401 1.429 . S
C2405 C2406 1.523 . S
C2406 C2390 1.368 . S
C2406 C2402 1.368 . S
C2406 C2405 1.523 . S
H2407 C2382 0.950 . S
H2408 C2384 0.950 . S
H2409 C2385 0.949 . S
H2410 C2387 0.950 . S
H2411 C2389 0.950 . S
C2412 C2413 1.349 . S
C2412 C2414 1.327 . S
C2412 H2437 0.950 . S
C2413 C2412 1.349 . S
C2413 C2429 1.349 . S
C2414 C2412 1.327 . S
C2414 C2433 1.429 . S
C2414 H2438 0.950 . S
C2415 C2432 1.574 . S
C2415 C2434 1.368 . S
C2415 H2439 0.949 . S
H2416 C2420 0.949 . S
C2417 C2418 1.349 . S
C2417 C2419 1.327 . S
C2417 H2440 0.950 . S
C2418 C2417 1.349 . S
C2418 C2430 1.349 . S
C2419 C2417 1.327 . S
C2419 C2435 1.429 . S
C2419 H2441 0.950 . S
C2420 H2416 0.949 . S
C2420 C2428 1.574 . S
C2420 C2436 1.368 . S
H2421 C2429 0.950 . S
H2422 C2427 0.950 . S
H2423 C2428 0.949 . S
H2424 C2430 0.950 . S
H2425 C2431 0.950 . S
H2426 C2432 0.949 . S
C2427 H2422 0.950 . S
C2427 C2429 1.327 . S
C2427 C2433 1.429 . S
C2428 C2420 1.574 . S
C2428 H2423 0.949 . S
C2428 C2434 1.368 . S
C2429 C2413 1.349 . S
C2429 H2421 0.950 . S
C2429 C2427 1.327 . S
C2430 C2418 1.349 . S
C2430 H2424 0.950 . S
C2430 C2431 1.327 . S
C2431 H2425 0.950 . S
C2431 C2430 1.327 . S
C2431 C2435 1.429 . S
C2432 C2415 1.574 . S
C2432 H2426 0.949 . S
C2432 C2436 1.368 . S
C2433 C2414 1.429 . S
C2433 C2427 1.429 . S
C2433 C2434 1.523 . S
C2434 C2415 1.368 . S
C2434 C2428 1.368 . S
C2434 C2433 1.523 . S
C2435 C2419 1.429 . S
C2435 C2431 1.429 . S
C2435 C2436 1.523 . S
C2436 C2420 1.368 . S
C2436 C2432 1.368 . S
C2436 C2435 1.523 . S
H2437 C2412 0.950 . S
H2438 C2414 0.950 . S
H2439 C2415 0.949 . S
H2440 C2417 0.950 . S
H2441 C2419 0.950 . S
C2442 C2443 1.349 . S
C2442 C2444 1.327 . S
C2442 H2467 0.950 . S
C2443 C2442 1.349 . S
C2443 C2459 1.349 . S
C2444 C2442 1.327 . S
C2444 C2463 1.429 . S
C2444 H2468 0.950 . S
C2445 C2462 1.574 . S
C2445 C2464 1.368 . S
C2445 H2469 0.949 . S
H2446 C2450 0.949 . S
C2447 C2448 1.349 . S
C2447 C2449 1.327 . S
C2447 H2470 0.950 . S
C2448 C2447 1.349 . S
C2448 C2460 1.349 . S
C2449 C2447 1.327 . S
C2449 C2465 1.429 . S
C2449 H2471 0.950 . S
C2450 H2446 0.949 . S
C2450 C2458 1.574 . S
C2450 C2466 1.368 . S
H2451 C2459 0.950 . S
H2452 C2457 0.950 . S
H2453 C2458 0.949 . S
H2454 C2460 0.950 . S
H2455 C2461 0.950 . S
H2456 C2462 0.949 . S
C2457 H2452 0.950 . S
C2457 C2459 1.327 . S
C2457 C2463 1.429 . S
C2458 C2450 1.574 . S
C2458 H2453 0.949 . S
C2458 C2464 1.368 . S
C2459 C2443 1.349 . S
C2459 H2451 0.950 . S
C2459 C2457 1.327 . S
C2460 C2448 1.349 . S
C2460 H2454 0.950 . S
C2460 C2461 1.327 . S
C2461 H2455 0.950 . S
C2461 C2460 1.327 . S
C2461 C2465 1.429 . S
C2462 C2445 1.574 . S
C2462 H2456 0.949 . S
C2462 C2466 1.368 . S
C2463 C2444 1.429 . S
C2463 C2457 1.429 . S
C2463 C2464 1.523 . S
C2464 C2445 1.368 . S
C2464 C2458 1.368 . S
C2464 C2463 1.523 . S
C2465 C2449 1.429 . S
C2465 C2461 1.429 . S
C2465 C2466 1.523 . S
C2466 C2450 1.368 . S
C2466 C2462 1.368 . S
C2466 C2465 1.523 . S
H2467 C2442 0.950 . S
H2468 C2444 0.950 . S
H2469 C2445 0.949 . S
H2470 C2447 0.950 . S
H2471 C2449 0.950 . S
C2472 C2473 1.349 . S
C2472 C2474 1.327 . S
C2472 H2497 0.950 . S
C2473 C2472 1.349 . S
C2473 C2489 1.349 . S
C2474 C2472 1.327 . S
C2474 C2493 1.429 . S
C2474 H2498 0.950 . S
C2475 C2492 1.574 . S
C2475 C2494 1.368 . S
C2475 H2499 0.949 . S
H2476 C2480 0.949 . S
C2477 C2478 1.349 . S
C2477 C2479 1.327 . S
C2477 H2500 0.950 . S
C2478 C2477 1.349 . S
C2478 C2490 1.349 . S
C2479 C2477 1.327 . S
C2479 C2495 1.429 . S
C2479 H2501 0.950 . S
C2480 H2476 0.949 . S
C2480 C2488 1.574 . S
C2480 C2496 1.368 . S
H2481 C2489 0.950 . S
H2482 C2487 0.950 . S
H2483 C2488 0.949 . S
H2484 C2490 0.950 . S
H2485 C2491 0.950 . S
H2486 C2492 0.949 . S
C2487 H2482 0.950 . S
C2487 C2489 1.327 . S
C2487 C2493 1.429 . S
C2488 C2480 1.574 . S
C2488 H2483 0.949 . S
C2488 C2494 1.368 . S
C2489 C2473 1.349 . S
C2489 H2481 0.950 . S
C2489 C2487 1.327 . S
C2490 C2478 1.349 . S
C2490 H2484 0.950 . S
C2490 C2491 1.327 . S
C2491 H2485 0.950 . S
C2491 C2490 1.327 . S
C2491 C2495 1.429 . S
C2492 C2475 1.574 . S
C2492 H2486 0.949 . S
C2492 C2496 1.368 . S
C2493 C2474 1.429 . S
C2493 C2487 1.429 . S
C2493 C2494 1.523 . S
C2494 C2475 1.368 . S
C2494 C2488 1.368 . S
C2494 C2493 1.523 . S
C2495 C2479 1.429 . S
C2495 C2491 1.429 . S
C2495 C2496 1.523 . S
C2496 C2480 1.368 . S
C2496 C2492 1.368 . S
C2496 C2495 1.523 . S
H2497 C2472 0.950 . S
H2498 C2474 0.950 . S
H2499 C2475 0.949 . S
H2500 C2477 0.950 . S
H2501 C2479 0.950 . S
C2502 C2503 1.349 . S
C2502 C2504 1.327 . S
C2502 H2527 0.950 . S
C2503 C2502 1.349 . S
C2503 C2519 1.349 . S
C2504 C2502 1.327 . S
C2504 C2523 1.429 . S
C2504 H2528 0.950 . S
C2505 C2522 1.574 . S
C2505 C2524 1.368 . S
C2505 H2529 0.949 . S
H2506 C2510 0.949 . S
C2507 C2508 1.349 . S
C2507 C2509 1.327 . S
C2507 H2530 0.950 . S
C2508 C2507 1.349 . S
C2508 C2520 1.349 . S
C2509 C2507 1.327 . S
C2509 C2525 1.429 . S
C2509 H2531 0.950 . S
C2510 H2506 0.949 . S
C2510 C2518 1.574 . S
C2510 C2526 1.368 . S
H2511 C2519 0.950 . S
H2512 C2517 0.950 . S
H2513 C2518 0.949 . S
H2514 C2520 0.950 . S
H2515 C2521 0.950 . S
H2516 C2522 0.949 . S
C2517 H2512 0.950 . S
C2517 C2519 1.327 . S
C2517 C2523 1.429 . S
C2518 C2510 1.574 . S
C2518 H2513 0.949 . S
C2518 C2524 1.368 . S
C2519 C2503 1.349 . S
C2519 H2511 0.950 . S
C2519 C2517 1.327 . S
C2520 C2508 1.349 . S
C2520 H2514 0.950 . S
C2520 C2521 1.327 . S
C2521 H2515 0.950 . S
C2521 C2520 1.327 . S
C2521 C2525 1.429 . S
C2522 C2505 1.574 . S
C2522 H2516 0.949 . S
C2522 C2526 1.368 . S
C2523 C2504 1.429 . S
C2523 C2517 1.429 . S
C2523 C2524 1.523 . S
C2524 C2505 1.368 . S
C2524 C2518 1.368 . S
C2524 C2523 1.523 . S
C2525 C2509 1.429 . S
C2525 C2521 1.429 . S
C2525 C2526 1.523 . S
C2526 C2510 1.368 . S
C2526 C2522 1.368 . S
C2526 C2525 1.523 . S
H2527 C2502 0.950 . S
H2528 C2504 0.950 . S
H2529 C2505 0.949 . S
H2530 C2507 0.950 . S
H2531 C2509 0.950 . S
C2532 C2533 1.349 . S
C2532 C2534 1.327 . S
C2532 H2557 0.950 . S
C2533 C2532 1.349 . S
C2533 C2549 1.349 . S
C2534 C2532 1.327 . S
C2534 C2553 1.429 . S
C2534 H2558 0.950 . S
C2535 C2552 1.574 . S
C2535 C2554 1.368 . S
C2535 H2559 0.949 . S
H2536 C2540 0.949 . S
C2537 C2538 1.349 . S
C2537 C2539 1.327 . S
C2537 H2560 0.950 . S
C2538 C2537 1.349 . S
C2538 C2550 1.349 . S
C2539 C2537 1.327 . S
C2539 C2555 1.429 . S
C2539 H2561 0.950 . S
C2540 H2536 0.949 . S
C2540 C2548 1.574 . S
C2540 C2556 1.368 . S
H2541 C2549 0.950 . S
H2542 C2547 0.950 . S
H2543 C2548 0.949 . S
H2544 C2550 0.950 . S
H2545 C2551 0.950 . S
H2546 C2552 0.949 . S
C2547 H2542 0.950 . S
C2547 C2549 1.327 . S
C2547 C2553 1.429 . S
C2548 C2540 1.574 . S
C2548 H2543 0.949 . S
C2548 C2554 1.368 . S
C2549 C2533 1.349 . S
C2549 H2541 0.950 . S
C2549 C2547 1.327 . S
C2550 C2538 1.349 . S
C2550 H2544 0.950 . S
C2550 C2551 1.327 . S
C2551 H2545 0.950 . S
C2551 C2550 1.327 . S
C2551 C2555 1.429 . S
C2552 C2535 1.574 . S
C2552 H2546 0.949 . S
C2552 C2556 1.368 . S
C2553 C2534 1.429 . S
C2553 C2547 1.429 . S
C2553 C2554 1.523 . S
C2554 C2535 1.368 . S
C2554 C2548 1.368 . S
C2554 C2553 1.523 . S
C2555 C2539 1.429 . S
C2555 C2551 1.429 . S
C2555 C2556 1.523 . S
C2556 C2540 1.368 . S
C2556 C2552 1.368 . S
C2556 C2555 1.523 . S
H2557 C2532 0.950 . S
H2558 C2534 0.950 . S
H2559 C2535 0.949 . S
H2560 C2537 0.950 . S
H2561 C2539 0.950 . S
C2562 C2563 1.349 . S
C2562 C2564 1.327 . S
C2562 H2587 0.950 . S
C2563 C2562 1.349 . S
C2563 C2579 1.349 . S
C2564 C2562 1.327 . S
C2564 C2583 1.429 . S
C2564 H2588 0.950 . S
C2565 C2582 1.574 . S
C2565 C2584 1.368 . S
C2565 H2589 0.949 . S
H2566 C2570 0.949 . S
C2567 C2568 1.349 . S
C2567 C2569 1.327 . S
C2567 H2590 0.950 . S
C2568 C2567 1.349 . S
C2568 C2580 1.349 . S
C2569 C2567 1.327 . S
C2569 C2585 1.429 . S
C2569 H2591 0.950 . S
C2570 H2566 0.949 . S
C2570 C2578 1.574 . S
C2570 C2586 1.368 . S
H2571 C2579 0.950 . S
H2572 C2577 0.950 . S
H2573 C2578 0.949 . S
H2574 C2580 0.950 . S
H2575 C2581 0.950 . S
H2576 C2582 0.949 . S
C2577 H2572 0.950 . S
C2577 C2579 1.327 . S
C2577 C2583 1.429 . S
C2578 C2570 1.574 . S
C2578 H2573 0.949 . S
C2578 C2584 1.368 . S
C2579 C2563 1.349 . S
C2579 H2571 0.950 . S
C2579 C2577 1.327 . S
C2580 C2568 1.349 . S
C2580 H2574 0.950 . S
C2580 C2581 1.327 . S
C2581 H2575 0.950 . S
C2581 C2580 1.327 . S
C2581 C2585 1.429 . S
C2582 C2565 1.574 . S
C2582 H2576 0.949 . S
C2582 C2586 1.368 . S
C2583 C2564 1.429 . S
C2583 C2577 1.429 . S
C2583 C2584 1.523 . S
C2584 C2565 1.368 . S
C2584 C2578 1.368 . S
C2584 C2583 1.523 . S
C2585 C2569 1.429 . S
C2585 C2581 1.429 . S
C2585 C2586 1.523 . S
C2586 C2570 1.368 . S
C2586 C2582 1.368 . S
C2586 C2585 1.523 . S
H2587 C2562 0.950 . S
H2588 C2564 0.950 . S
H2589 C2565 0.949 . S
H2590 C2567 0.950 . S
H2591 C2569 0.950 . S
C2592 C2593 1.349 . S
C2592 C2594 1.327 . S
C2592 H2617 0.950 . S
C2593 C2592 1.349 . S
C2593 C2609 1.349 . S
C2594 C2592 1.327 . S
C2594 C2613 1.429 . S
C2594 H2618 0.950 . S
C2595 C2612 1.574 . S
C2595 C2614 1.368 . S
C2595 H2619 0.949 . S
H2596 C2600 0.949 . S
C2597 C2598 1.349 . S
C2597 C2599 1.327 . S
C2597 H2620 0.950 . S
C2598 C2597 1.349 . S
C2598 C2610 1.349 . S
C2599 C2597 1.327 . S
C2599 C2615 1.429 . S
C2599 H2621 0.950 . S
C2600 H2596 0.949 . S
C2600 C2608 1.574 . S
C2600 C2616 1.368 . S
H2601 C2609 0.950 . S
H2602 C2607 0.950 . S
H2603 C2608 0.949 . S
H2604 C2610 0.950 . S
H2605 C2611 0.950 . S
H2606 C2612 0.949 . S
C2607 H2602 0.950 . S
C2607 C2609 1.327 . S
C2607 C2613 1.429 . S
C2608 C2600 1.574 . S
C2608 H2603 0.949 . S
C2608 C2614 1.368 . S
C2609 C2593 1.349 . S
C2609 H2601 0.950 . S
C2609 C2607 1.327 . S
C2610 C2598 1.349 . S
C2610 H2604 0.950 . S
C2610 C2611 1.327 . S
C2611 H2605 0.950 . S
C2611 C2610 1.327 . S
C2611 C2615 1.429 . S
C2612 C2595 1.574 . S
C2612 H2606 0.949 . S
C2612 C2616 1.368 . S
C2613 C2594 1.429 . S
C2613 C2607 1.429 . S
C2613 C2614 1.523 . S
C2614 C2595 1.368 . S
C2614 C2608 1.368 . S
C2614 C2613 1.523 . S
C2615 C2599 1.429 . S
C2615 C2611 1.429 . S
C2615 C2616 1.523 . S
C2616 C2600 1.368 . S
C2616 C2612 1.368 . S
C2616 C2615 1.523 . S
H2617 C2592 0.950 . S
H2618 C2594 0.950 . S
H2619 C2595 0.949 . S
H2620 C2597 0.950 . S
H2621 C2599 0.950 . S
C2622 C2623 1.349 . S
C2622 C2624 1.327 . S
C2622 H2647 0.950 . S
C2623 C2622 1.349 . S
C2623 C2639 1.349 . S
C2624 C2622 1.327 . S
C2624 C2643 1.429 . S
C2624 H2648 0.950 . S
C2625 C2642 1.574 . S
C2625 C2644 1.368 . S
C2625 H2649 0.949 . S
H2626 C2630 0.949 . S
C2627 C2628 1.349 . S
C2627 C2629 1.327 . S
C2627 H2650 0.950 . S
C2628 C2627 1.349 . S
C2628 C2640 1.349 . S
C2629 C2627 1.327 . S
C2629 C2645 1.429 . S
C2629 H2651 0.950 . S
C2630 H2626 0.949 . S
C2630 C2638 1.574 . S
C2630 C2646 1.368 . S
H2631 C2639 0.950 . S
H2632 C2637 0.950 . S
H2633 C2638 0.949 . S
H2634 C2640 0.950 . S
H2635 C2641 0.950 . S
H2636 C2642 0.949 . S
C2637 H2632 0.950 . S
C2637 C2639 1.327 . S
C2637 C2643 1.429 . S
C2638 C2630 1.574 . S
C2638 H2633 0.949 . S
C2638 C2644 1.368 . S
C2639 C2623 1.349 . S
C2639 H2631 0.950 . S
C2639 C2637 1.327 . S
C2640 C2628 1.349 . S
C2640 H2634 0.950 . S
C2640 C2641 1.327 . S
C2641 H2635 0.950 . S
C2641 C2640 1.327 . S
C2641 C2645 1.429 . S
C2642 C2625 1.574 . S
C2642 H2636 0.949 . S
C2642 C2646 1.368 . S
C2643 C2624 1.429 . S
C2643 C2637 1.429 . S
C2643 C2644 1.523 . S
C2644 C2625 1.368 . S
C2644 C2638 1.368 . S
C2644 C2643 1.523 . S
C2645 C2629 1.429 . S
C2645 C2641 1.429 . S
C2645 C2646 1.523 . S
C2646 C2630 1.368 . S
C2646 C2642 1.368 . S
C2646 C2645 1.523 . S
H2647 C2622 0.950 . S
H2648 C2624 0.950 . S
H2649 C2625 0.949 . S
H2650 C2627 0.950 . S
H2651 C2629 0.950 . S
C2652 C2653 1.349 . S
C2652 C2654 1.327 . S
C2652 H2677 0.950 . S
C2653 C2652 1.349 . S
C2653 C2669 1.349 . S
C2654 C2652 1.327 . S
C2654 C2673 1.429 . S
C2654 H2678 0.950 . S
C2655 C2672 1.574 . S
C2655 C2674 1.368 . S
C2655 H2679 0.949 . S
H2656 C2660 0.949 . S
C2657 C2658 1.349 . S
C2657 C2659 1.327 . S
C2657 H2680 0.950 . S
C2658 C2657 1.349 . S
C2658 C2670 1.349 . S
C2659 C2657 1.327 . S
C2659 C2675 1.429 . S
C2659 H2681 0.950 . S
C2660 H2656 0.949 . S
C2660 C2668 1.574 . S
C2660 C2676 1.368 . S
H2661 C2669 0.950 . S
H2662 C2667 0.950 . S
H2663 C2668 0.949 . S
H2664 C2670 0.950 . S
H2665 C2671 0.950 . S
H2666 C2672 0.949 . S
C2667 H2662 0.950 . S
C2667 C2669 1.327 . S
C2667 C2673 1.429 . S
C2668 C2660 1.574 . S
C2668 H2663 0.949 . S
C2668 C2674 1.368 . S
C2669 C2653 1.349 . S
C2669 H2661 0.950 . S
C2669 C2667 1.327 . S
C2670 C2658 1.349 . S
C2670 H2664 0.950 . S
C2670 C2671 1.327 . S
C2671 H2665 0.950 . S
C2671 C2670 1.327 . S
C2671 C2675 1.429 . S
C2672 C2655 1.574 . S
C2672 H2666 0.949 . S
C2672 C2676 1.368 . S
C2673 C2654 1.429 . S
C2673 C2667 1.429 . S
C2673 C2674 1.523 . S
C2674 C2655 1.368 . S
C2674 C2668 1.368 . S
C2674 C2673 1.523 . S
C2675 C2659 1.429 . S
C2675 C2671 1.429 . S
C2675 C2676 1.523 . S
C2676 C2660 1.368 . S
C2676 C2672 1.368 . S
C2676 C2675 1.523 . S
H2677 C2652 0.950 . S
H2678 C2654 0.950 . S
H2679 C2655 0.949 . S
H2680 C2657 0.950 . S
H2681 C2659 0.950 . S
C2682 C2683 1.349 . S
C2682 C2684 1.327 . S
C2682 H2707 0.950 . S
C2683 C2682 1.349 . S
C2683 C2699 1.349 . S
C2684 C2682 1.327 . S
C2684 C2703 1.429 . S
C2684 H2708 0.950 . S
C2685 C2702 1.574 . S
C2685 C2704 1.368 . S
C2685 H2709 0.949 . S
H2686 C2690 0.949 . S
C2687 C2688 1.349 . S
C2687 C2689 1.327 . S
C2687 H2710 0.950 . S
C2688 C2687 1.349 . S
C2688 C2700 1.349 . S
C2689 C2687 1.327 . S
C2689 C2705 1.429 . S
C2689 H2711 0.950 . S
C2690 H2686 0.949 . S
C2690 C2698 1.574 . S
C2690 C2706 1.368 . S
H2691 C2699 0.950 . S
H2692 C2697 0.950 . S
H2693 C2698 0.949 . S
H2694 C2700 0.950 . S
H2695 C2701 0.950 . S
H2696 C2702 0.949 . S
C2697 H2692 0.950 . S
C2697 C2699 1.327 . S
C2697 C2703 1.429 . S
C2698 C2690 1.574 . S
C2698 H2693 0.949 . S
C2698 C2704 1.368 . S
C2699 C2683 1.349 . S
C2699 H2691 0.950 . S
C2699 C2697 1.327 . S
C2700 C2688 1.349 . S
C2700 H2694 0.950 . S
C2700 C2701 1.327 . S
C2701 H2695 0.950 . S
C2701 C2700 1.327 . S
C2701 C2705 1.429 . S
C2702 C2685 1.574 . S
C2702 H2696 0.949 . S
C2702 C2706 1.368 . S
C2703 C2684 1.429 . S
C2703 C2697 1.429 . S
C2703 C2704 1.523 . S
C2704 C2685 1.368 . S
C2704 C2698 1.368 . S
C2704 C2703 1.523 . S
C2705 C2689 1.429 . S
C2705 C2701 1.429 . S
C2705 C2706 1.523 . S
C2706 C2690 1.368 . S
C2706 C2702 1.368 . S
C2706 C2705 1.523 . S
H2707 C2682 0.950 . S
H2708 C2684 0.950 . S
H2709 C2685 0.949 . S
H2710 C2687 0.950 . S
H2711 C2689 0.950 . S
C2712 C2713 1.349 . S
C2712 C2714 1.327 . S
C2712 H2737 0.950 . S
C2713 C2712 1.349 . S
C2713 C2729 1.349 . S
C2714 C2712 1.327 . S
C2714 C2733 1.429 . S
C2714 H2738 0.950 . S
C2715 C2732 1.574 . S
C2715 C2734 1.368 . S
C2715 H2739 0.949 . S
H2716 C2720 0.949 . S
C2717 C2718 1.349 . S
C2717 C2719 1.327 . S
C2717 H2740 0.950 . S
C2718 C2717 1.349 . S
C2718 C2730 1.349 . S
C2719 C2717 1.327 . S
C2719 C2735 1.429 . S
C2719 H2741 0.950 . S
C2720 H2716 0.949 . S
C2720 C2728 1.574 . S
C2720 C2736 1.368 . S
H2721 C2729 0.950 . S
H2722 C2727 0.950 . S
H2723 C2728 0.949 . S
H2724 C2730 0.950 . S
H2725 C2731 0.950 . S
H2726 C2732 0.949 . S
C2727 H2722 0.950 . S
C2727 C2729 1.327 . S
C2727 C2733 1.429 . S
C2728 C2720 1.574 . S
C2728 H2723 0.949 . S
C2728 C2734 1.368 . S
C2729 C2713 1.349 . S
C2729 H2721 0.950 . S
C2729 C2727 1.327 . S
C2730 C2718 1.349 . S
C2730 H2724 0.950 . S
C2730 C2731 1.327 . S
C2731 H2725 0.950 . S
C2731 C2730 1.327 . S
C2731 C2735 1.429 . S
C2732 C2715 1.574 . S
C2732 H2726 0.949 . S
C2732 C2736 1.368 . S
C2733 C2714 1.429 . S
C2733 C2727 1.429 . S
C2733 C2734 1.523 . S
C2734 C2715 1.368 . S
C2734 C2728 1.368 . S
C2734 C2733 1.523 . S
C2735 C2719 1.429 . S
C2735 C2731 1.429 . S
C2735 C2736 1.523 . S
C2736 C2720 1.368 . S
C2736 C2732 1.368 . S
C2736 C2735 1.523 . S
H2737 C2712 0.950 . S
H2738 C2714 0.950 . S
H2739 C2715 0.949 . S
H2740 C2717 0.950 . S
H2741 C2719 0.950 . S
C2742 C2743 1.349 . S
C2742 C2744 1.327 . S
C2742 H2767 0.950 . S
C2743 C2742 1.349 . S
C2743 C2759 1.349 . S
C2744 C2742 1.327 . S
C2744 C2763 1.429 . S
C2744 H2768 0.950 . S
C2745 C2762 1.574 . S
C2745 C2764 1.368 . S
C2745 H2769 0.949 . S
H2746 C2750 0.949 . S
C2747 C2748 1.349 . S
C2747 C2749 1.327 . S
C2747 H2770 0.950 . S
C2748 C2747 1.349 . S
C2748 C2760 1.349 . S
C2749 C2747 1.327 . S
C2749 C2765 1.429 . S
C2749 H2771 0.950 . S
C2750 H2746 0.949 . S
C2750 C2758 1.574 . S
C2750 C2766 1.368 . S
H2751 C2759 0.950 . S
H2752 C2757 0.950 . S
H2753 C2758 0.949 . S
H2754 C2760 0.950 . S
H2755 C2761 0.950 . S
H2756 C2762 0.949 . S
C2757 H2752 0.950 . S
C2757 C2759 1.327 . S
C2757 C2763 1.429 . S
C2758 C2750 1.574 . S
C2758 H2753 0.949 . S
C2758 C2764 1.368 . S
C2759 C2743 1.349 . S
C2759 H2751 0.950 . S
C2759 C2757 1.327 . S
C2760 C2748 1.349 . S
C2760 H2754 0.950 . S
C2760 C2761 1.327 . S
C2761 H2755 0.950 . S
C2761 C2760 1.327 . S
C2761 C2765 1.429 . S
C2762 C2745 1.574 . S
C2762 H2756 0.949 . S
C2762 C2766 1.368 . S
C2763 C2744 1.429 . S
C2763 C2757 1.429 . S
C2763 C2764 1.523 . S
C2764 C2745 1.368 . S
C2764 C2758 1.368 . S
C2764 C2763 1.523 . S
C2765 C2749 1.429 . S
C2765 C2761 1.429 . S
C2765 C2766 1.523 . S
C2766 C2750 1.368 . S
C2766 C2762 1.368 . S
C2766 C2765 1.523 . S
H2767 C2742 0.950 . S
H2768 C2744 0.950 . S
H2769 C2745 0.949 . S
H2770 C2747 0.950 . S
H2771 C2749 0.950 . S
C2772 C2773 1.349 . S
C2772 C2774 1.327 . S
C2772 H2797 0.950 . S
C2773 C2772 1.349 . S
C2773 C2789 1.349 . S
C2774 C2772 1.327 . S
C2774 C2793 1.429 . S
C2774 H2798 0.950 . S
C2775 C2792 1.574 . S
C2775 C2794 1.368 . S
C2775 H2799 0.949 . S
H2776 C2780 0.949 . S
C2777 C2778 1.349 . S
C2777 C2779 1.327 . S
C2777 H2800 0.950 . S
C2778 C2777 1.349 . S
C2778 C2790 1.349 . S
C2779 C2777 1.327 . S
C2779 C2795 1.429 . S
C2779 H2801 0.950 . S
C2780 H2776 0.949 . S
C2780 C2788 1.574 . S
C2780 C2796 1.368 . S
H2781 C2789 0.950 . S
H2782 C2787 0.950 . S
H2783 C2788 0.949 . S
H2784 C2790 0.950 . S
H2785 C2791 0.950 . S
H2786 C2792 0.949 . S
C2787 H2782 0.950 . S
C2787 C2789 1.327 . S
C2787 C2793 1.429 . S
C2788 C2780 1.574 . S
C2788 H2783 0.949 . S
C2788 C2794 1.368 . S
C2789 C2773 1.349 . S
C2789 H2781 0.950 . S
C2789 C2787 1.327 . S
C2790 C2778 1.349 . S
C2790 H2784 0.950 . S
C2790 C2791 1.327 . S
C2791 H2785 0.950 . S
C2791 C2790 1.327 . S
C2791 C2795 1.429 . S
C2792 C2775 1.574 . S
C2792 H2786 0.949 . S
C2792 C2796 1.368 . S
C2793 C2774 1.429 . S
C2793 C2787 1.429 . S
C2793 C2794 1.523 . S
C2794 C2775 1.368 . S
C2794 C2788 1.368 . S
C2794 C2793 1.523 . S
C2795 C2779 1.429 . S
C2795 C2791 1.429 . S
C2795 C2796 1.523 . S
C2796 C2780 1.368 . S
C2796 C2792 1.368 . S
C2796 C2795 1.523 . S
H2797 C2772 0.950 . S
H2798 C2774 0.950 . S
H2799 C2775 0.949 . S
H2800 C2777 0.950 . S
H2801 C2779 0.950 . S
C2802 C2803 1.349 . S
C2802 C2804 1.327 . S
C2802 H2827 0.950 . S
C2803 C2802 1.349 . S
C2803 C2819 1.349 . S
C2804 C2802 1.327 . S
C2804 C2823 1.429 . S
C2804 H2828 0.950 . S
C2805 C2822 1.574 . S
C2805 C2824 1.368 . S
C2805 H2829 0.949 . S
H2806 C2810 0.949 . S
C2807 C2808 1.349 . S
C2807 C2809 1.327 . S
C2807 H2830 0.950 . S
C2808 C2807 1.349 . S
C2808 C2820 1.349 . S
C2809 C2807 1.327 . S
C2809 C2825 1.429 . S
C2809 H2831 0.950 . S
C2810 H2806 0.949 . S
C2810 C2818 1.574 . S
C2810 C2826 1.368 . S
H2811 C2819 0.950 . S
H2812 C2817 0.950 . S
H2813 C2818 0.949 . S
H2814 C2820 0.950 . S
H2815 C2821 0.950 . S
H2816 C2822 0.949 . S
C2817 H2812 0.950 . S
C2817 C2819 1.327 . S
C2817 C2823 1.429 . S
C2818 C2810 1.574 . S
C2818 H2813 0.949 . S
C2818 C2824 1.368 . S
C2819 C2803 1.349 . S
C2819 H2811 0.950 . S
C2819 C2817 1.327 . S
C2820 C2808 1.349 . S
C2820 H2814 0.950 . S
C2820 C2821 1.327 . S
C2821 H2815 0.950 . S
C2821 C2820 1.327 . S
C2821 C2825 1.429 . S
C2822 C2805 1.574 . S
C2822 H2816 0.949 . S
C2822 C2826 1.368 . S
C2823 C2804 1.429 . S
C2823 C2817 1.429 . S
C2823 C2824 1.523 . S
C2824 C2805 1.368 . S
C2824 C2818 1.368 . S
C2824 C2823 1.523 . S
C2825 C2809 1.429 . S
C2825 C2821 1.429 . S
C2825 C2826 1.523 . S
C2826 C2810 1.368 . S
C2826 C2822 1.368 . S
C2826 C2825 1.523 . S
H2827 C2802 0.950 . S
H2828 C2804 0.950 . S
H2829 C2805 0.949 . S
H2830 C2807 0.950 . S
H2831 C2809 0.950 . S
C2832 C2833 1.349 . S
C2832 C2834 1.327 . S
C2832 H2857 0.950 . S
C2833 C2832 1.349 . S
C2833 C2849 1.349 . S
C2834 C2832 1.327 . S
C2834 C2853 1.429 . S
C2834 H2858 0.950 . S
C2835 C2852 1.574 . S
C2835 C2854 1.368 . S
C2835 H2859 0.949 . S
H2836 C2840 0.949 . S
C2837 C2838 1.349 . S
C2837 C2839 1.327 . S
C2837 H2860 0.950 . S
C2838 C2837 1.349 . S
C2838 C2850 1.349 . S
C2839 C2837 1.327 . S
C2839 C2855 1.429 . S
C2839 H2861 0.950 . S
C2840 H2836 0.949 . S
C2840 C2848 1.574 . S
C2840 C2856 1.368 . S
H2841 C2849 0.950 . S
H2842 C2847 0.950 . S
H2843 C2848 0.949 . S
H2844 C2850 0.950 . S
H2845 C2851 0.950 . S
H2846 C2852 0.949 . S
C2847 H2842 0.950 . S
C2847 C2849 1.327 . S
C2847 C2853 1.429 . S
C2848 C2840 1.574 . S
C2848 H2843 0.949 . S
C2848 C2854 1.368 . S
C2849 C2833 1.349 . S
C2849 H2841 0.950 . S
C2849 C2847 1.327 . S
C2850 C2838 1.349 . S
C2850 H2844 0.950 . S
C2850 C2851 1.327 . S
C2851 H2845 0.950 . S
C2851 C2850 1.327 . S
C2851 C2855 1.429 . S
C2852 C2835 1.574 . S
C2852 H2846 0.949 . S
C2852 C2856 1.368 . S
C2853 C2834 1.429 . S
C2853 C2847 1.429 . S
C2853 C2854 1.523 . S
C2854 C2835 1.368 . S
C2854 C2848 1.368 . S
C2854 C2853 1.523 . S
C2855 C2839 1.429 . S
C2855 C2851 1.429 . S
C2855 C2856 1.523 . S
C2856 C2840 1.368 . S
C2856 C2852 1.368 . S
C2856 C2855 1.523 . S
H2857 C2832 0.950 . S
H2858 C2834 0.950 . S
H2859 C2835 0.949 . S
H2860 C2837 0.950 . S
H2861 C2839 0.950 . S
C2862 C2863 1.349 . S
C2862 C2864 1.327 . S
C2862 H2887 0.950 . S
C2863 C2862 1.349 . S
C2863 C2879 1.349 . S
C2864 C2862 1.327 . S
C2864 C2883 1.429 . S
C2864 H2888 0.950 . S
C2865 C2882 1.574 . S
C2865 C2884 1.368 . S
C2865 H2889 0.949 . S
H2866 C2870 0.949 . S
C2867 C2868 1.349 . S
C2867 C2869 1.327 . S
C2867 H2890 0.950 . S
C2868 C2867 1.349 . S
C2868 C2880 1.349 . S
C2869 C2867 1.327 . S
C2869 C2885 1.429 . S
C2869 H2891 0.950 . S
C2870 H2866 0.949 . S
C2870 C2878 1.574 . S
C2870 C2886 1.368 . S
H2871 C2879 0.950 . S
H2872 C2877 0.950 . S
H2873 C2878 0.949 . S
H2874 C2880 0.950 . S
H2875 C2881 0.950 . S
H2876 C2882 0.949 . S
C2877 H2872 0.950 . S
C2877 C2879 1.327 . S
C2877 C2883 1.429 . S
C2878 C2870 1.574 . S
C2878 H2873 0.949 . S
C2878 C2884 1.368 . S
C2879 C2863 1.349 . S
C2879 H2871 0.950 . S
C2879 C2877 1.327 . S
C2880 C2868 1.349 . S
C2880 H2874 0.950 . S
C2880 C2881 1.327 . S
C2881 H2875 0.950 . S
C2881 C2880 1.327 . S
C2881 C2885 1.429 . S
C2882 C2865 1.574 . S
C2882 H2876 0.949 . S
C2882 C2886 1.368 . S
C2883 C2864 1.429 . S
C2883 C2877 1.429 . S
C2883 C2884 1.523 . S
C2884 C2865 1.368 . S
C2884 C2878 1.368 . S
C2884 C2883 1.523 . S
C2885 C2869 1.429 . S
C2885 C2881 1.429 . S
C2885 C2886 1.523 . S
C2886 C2870 1.368 . S
C2886 C2882 1.368 . S
C2886 C2885 1.523 . S
H2887 C2862 0.950 . S
H2888 C2864 0.950 . S
H2889 C2865 0.949 . S
H2890 C2867 0.950 . S
H2891 C2869 0.950 . S
C2892 C2893 1.349 . S
C2892 C2894 1.327 . S
C2892 H2917 0.950 . S
C2893 C2892 1.349 . S
C2893 C2909 1.349 . S
C2894 C2892 1.327 . S
C2894 C2913 1.429 . S
C2894 H2918 0.950 . S
C2895 C2912 1.574 . S
C2895 C2914 1.368 . S
C2895 H2919 0.949 . S
H2896 C2900 0.949 . S
C2897 C2898 1.349 . S
C2897 C2899 1.327 . S
C2897 H2920 0.950 . S
C2898 C2897 1.349 . S
C2898 C2910 1.349 . S
C2899 C2897 1.327 . S
C2899 C2915 1.429 . S
C2899 H2921 0.950 . S
C2900 H2896 0.949 . S
C2900 C2908 1.574 . S
C2900 C2916 1.368 . S
H2901 C2909 0.950 . S
H2902 C2907 0.950 . S
H2903 C2908 0.949 . S
H2904 C2910 0.950 . S
H2905 C2911 0.950 . S
H2906 C2912 0.949 . S
C2907 H2902 0.950 . S
C2907 C2909 1.327 . S
C2907 C2913 1.429 . S
C2908 C2900 1.574 . S
C2908 H2903 0.949 . S
C2908 C2914 1.368 . S
C2909 C2893 1.349 . S
C2909 H2901 0.950 . S
C2909 C2907 1.327 . S
C2910 C2898 1.349 . S
C2910 H2904 0.950 . S
C2910 C2911 1.327 . S
C2911 H2905 0.950 . S
C2911 C2910 1.327 . S
C2911 C2915 1.429 . S
C2912 C2895 1.574 . S
C2912 H2906 0.949 . S
C2912 C2916 1.368 . S
C2913 C2894 1.429 . S
C2913 C2907 1.429 . S
C2913 C2914 1.523 . S
C2914 C2895 1.368 . S
C2914 C2908 1.368 . S
C2914 C2913 1.523 . S
C2915 C2899 1.429 . S
C2915 C2911 1.429 . S
C2915 C2916 1.523 . S
C2916 C2900 1.368 . S
C2916 C2912 1.368 . S
C2916 C2915 1.523 . S
H2917 C2892 0.950 . S
H2918 C2894 0.950 . S
H2919 C2895 0.949 . S
H2920 C2897 0.950 . S
H2921 C2899 0.950 . S
C2922 C2923 1.349 . S
C2922 C2924 1.327 . S
C2922 H2947 0.950 . S
C2923 C2922 1.349 . S
C2923 C2939 1.349 . S
C2924 C2922 1.327 . S
C2924 C2943 1.429 . S
C2924 H2948 0.950 . S
C2925 C2942 1.574 . S
C2925 C2944 1.368 . S
C2925 H2949 0.949 . S
H2926 C2930 0.949 . S
C2927 C2928 1.349 . S
C2927 C2929 1.327 . S
C2927 H2950 0.950 . S
C2928 C2927 1.349 . S
C2928 C2940 1.349 . S
C2929 C2927 1.327 . S
C2929 C2945 1.429 . S
C2929 H2951 0.950 . S
C2930 H2926 0.949 . S
C2930 C2938 1.574 . S
C2930 C2946 1.368 . S
H2931 C2939 0.950 . S
H2932 C2937 0.950 . S
H2933 C2938 0.949 . S
H2934 C2940 0.950 . S
H2935 C2941 0.950 . S
H2936 C2942 0.949 . S
C2937 H2932 0.950 . S
C2937 C2939 1.327 . S
C2937 C2943 1.429 . S
C2938 C2930 1.574 . S
C2938 H2933 0.949 . S
C2938 C2944 1.368 . S
C2939 C2923 1.349 . S
C2939 H2931 0.950 . S
C2939 C2937 1.327 . S
C2940 C2928 1.349 . S
C2940 H2934 0.950 . S
C2940 C2941 1.327 . S
C2941 H2935 0.950 . S
C2941 C2940 1.327 . S
C2941 C2945 1.429 . S
C2942 C2925 1.574 . S
C2942 H2936 0.949 . S
C2942 C2946 1.368 . S
C2943 C2924 1.429 . S
C2943 C2937 1.429 . S
C2943 C2944 1.523 . S
C2944 C2925 1.368 . S
C2944 C2938 1.368 . S
C2944 C2943 1.523 . S
C2945 C2929 1.429 . S
C2945 C2941 1.429 . S
C2945 C2946 1.523 . S
C2946 C2930 1.368 . S
C2946 C2942 1.368 . S
C2946 C2945 1.523 . S
H2947 C2922 0.950 . S
H2948 C2924 0.950 . S
H2949 C2925 0.949 . S
H2950 C2927 0.950 . S
H2951 C2929 0.950 . S
C2952 C2953 1.349 . S
C2952 C2954 1.327 . S
C2952 H2977 0.950 . S
C2953 C2952 1.349 . S
C2953 C2969 1.349 . S
C2954 C2952 1.327 . S
C2954 C2973 1.429 . S
C2954 H2978 0.950 . S
C2955 C2972 1.574 . S
C2955 C2974 1.368 . S
C2955 H2979 0.949 . S
H2956 C2960 0.949 . S
C2957 C2958 1.349 . S
C2957 C2959 1.327 . S
C2957 H2980 0.950 . S
C2958 C2957 1.349 . S
C2958 C2970 1.349 . S
C2959 C2957 1.327 . S
C2959 C2975 1.429 . S
C2959 H2981 0.950 . S
C2960 H2956 0.949 . S
C2960 C2968 1.574 . S
C2960 C2976 1.368 . S
H2961 C2969 0.950 . S
H2962 C2967 0.950 . S
H2963 C2968 0.949 . S
H2964 C2970 0.950 . S
H2965 C2971 0.950 . S
H2966 C2972 0.949 . S
C2967 H2962 0.950 . S
C2967 C2969 1.327 . S
C2967 C2973 1.429 . S
C2968 C2960 1.574 . S
C2968 H2963 0.949 . S
C2968 C2974 1.368 . S
C2969 C2953 1.349 . S
C2969 H2961 0.950 . S
C2969 C2967 1.327 . S
C2970 C2958 1.349 . S
C2970 H2964 0.950 . S
C2970 C2971 1.327 . S
C2971 H2965 0.950 . S
C2971 C2970 1.327 . S
C2971 C2975 1.429 . S
C2972 C2955 1.574 . S
C2972 H2966 0.949 . S
C2972 C2976 1.368 . S
C2973 C2954 1.429 . S
C2973 C2967 1.429 . S
C2973 C2974 1.523 . S
C2974 C2955 1.368 . S
C2974 C2968 1.368 . S
C2974 C2973 1.523 . S
C2975 C2959 1.429 . S
C2975 C2971 1.429 . S
C2975 C2976 1.523 . S
C2976 C2960 1.368 . S
C2976 C2972 1.368 . S
C2976 C2975 1.523 . S
H2977 C2952 0.950 . S
H2978 C2954 0.950 . S
H2979 C2955 0.949 . S
H2980 C2957 0.950 . S
H2981 C2959 0.950 . S
C2982 C2983 1.349 . S
C2982 C2984 1.327 . S
C2982 H3007 0.950 . S
C2983 C2982 1.349 . S
C2983 C2999 1.349 . S
C2984 C2982 1.327 . S
C2984 C3003 1.429 . S
C2984 H3008 0.950 . S
C2985 C3002 1.574 . S
C2985 C3004 1.368 . S
C2985 H3009 0.949 . S
H2986 C2990 0.949 . S
C2987 C2988 1.349 . S
C2987 C2989 1.327 . S
C2987 H3010 0.950 . S
C2988 C2987 1.349 . S
C2988 C3000 1.349 . S
C2989 C2987 1.327 . S
C2989 C3005 1.429 . S
C2989 H3011 0.950 . S
C2990 H2986 0.949 . S
C2990 C2998 1.574 . S
C2990 C3006 1.368 . S
H2991 C2999 0.950 . S
H2992 C2997 0.950 . S
H2993 C2998 0.949 . S
H2994 C3000 0.950 . S
H2995 C3001 0.950 . S
H2996 C3002 0.949 . S
C2997 H2992 0.950 . S
C2997 C2999 1.327 . S
C2997 C3003 1.429 . S
C2998 C2990 1.574 . S
C2998 H2993 0.949 . S
C2998 C3004 1.368 . S
C2999 C2983 1.349 . S
C2999 H2991 0.950 . S
C2999 C2997 1.327 . S
C3000 C2988 1.349 . S
C3000 H2994 0.950 . S
C3000 C3001 1.327 . S
C3001 H2995 0.950 . S
C3001 C3000 1.327 . S
C3001 C3005 1.429 . S
C3002 C2985 1.574 . S
C3002 H2996 0.949 . S
C3002 C3006 1.368 . S
C3003 C2984 1.429 . S
C3003 C2997 1.429 . S
C3003 C3004 1.523 . S
C3004 C2985 1.368 . S
C3004 C2998 1.368 . S
C3004 C3003 1.523 . S
C3005 C2989 1.429 . S
C3005 C3001 1.429 . S
C3005 C3006 1.523 . S
C3006 C2990 1.368 . S
C3006 C3002 1.368 . S
C3006 C3005 1.523 . S
H3007 C2982 0.950 . S
H3008 C2984 0.950 . S
H3009 C2985 0.949 . S
H3010 C2987 0.950 . S
H3011 C2989 0.950 . S
C3012 C3013 1.349 . S
C3012 C3014 1.327 . S
C3012 H3037 0.950 . S
C3013 C3012 1.349 . S
C3013 C3029 1.349 . S
C3014 C3012 1.327 . S
C3014 C3033 1.429 . S
C3014 H3038 0.950 . S
C3015 C3032 1.574 . S
C3015 C3034 1.368 . S
C3015 H3039 0.949 . S
H3016 C3020 0.949 . S
C3017 C3018 1.349 . S
C3017 C3019 1.327 . S
C3017 H3040 0.950 . S
C3018 C3017 1.349 . S
C3018 C3030 1.349 . S
C3019 C3017 1.327 . S
C3019 C3035 1.429 . S
C3019 H3041 0.950 . S
C3020 H3016 0.949 . S
C3020 C3028 1.574 . S
C3020 C3036 1.368 . S
H3021 C3029 0.950 . S
H3022 C3027 0.950 . S
H3023 C3028 0.949 . S
H3024 C3030 0.950 . S
H3025 C3031 0.950 . S
H3026 C3032 0.949 . S
C3027 H3022 0.950 . S
C3027 C3029 1.327 . S
C3027 C3033 1.429 . S
C3028 C3020 1.574 . S
C3028 H3023 0.949 . S
C3028 C3034 1.368 . S
C3029 C3013 1.349 . S
C3029 H3021 0.950 . S
C3029 C3027 1.327 . S
C3030 C3018 1.349 . S
C3030 H3024 0.950 . S
C3030 C3031 1.327 . S
C3031 H3025 0.950 . S
C3031 C3030 1.327 . S
C3031 C3035 1.429 . S
C3032 C3015 1.574 . S
C3032 H3026 0.949 . S
C3032 C3036 1.368 . S
C3033 C3014 1.429 . S
C3033 C3027 1.429 . S
C3033 C3034 1.523 . S
C3034 C3015 1.368 . S
C3034 C3028 1.368 . S
C3034 C3033 1.523 . S
C3035 C3019 1.429 . S
C3035 C3031 1.429 . S
C3035 C3036 1.523 . S
C3036 C3020 1.368 . S
C3036 C3032 1.368 . S
C3036 C3035 1.523 . S
H3037 C3012 0.950 . S
H3038 C3014 0.950 . S
H3039 C3015 0.949 . S
H3040 C3017 0.950 . S
H3041 C3019 0.950 . S
C3042 C3043 1.349 . S
C3042 C3044 1.327 . S
C3042 H3067 0.950 . S
C3043 C3042 1.349 . S
C3043 C3059 1.349 . S
C3044 C3042 1.327 . S
C3044 C3063 1.429 . S
C3044 H3068 0.950 . S
C3045 C3062 1.574 . S
C3045 C3064 1.368 . S
C3045 H3069 0.949 . S
H3046 C3050 0.949 . S
C3047 C3048 1.349 . S
C3047 C3049 1.327 . S
C3047 H3070 0.950 . S
C3048 C3047 1.349 . S
C3048 C3060 1.349 . S
C3049 C3047 1.327 . S
C3049 C3065 1.429 . S
C3049 H3071 0.950 . S
C3050 H3046 0.949 . S
C3050 C3058 1.574 . S
C3050 C3066 1.368 . S
H3051 C3059 0.950 . S
H3052 C3057 0.950 . S
H3053 C3058 0.949 . S
H3054 C3060 0.950 . S
H3055 C3061 0.950 . S
H3056 C3062 0.949 . S
C3057 H3052 0.950 . S
C3057 C3059 1.327 . S
C3057 C3063 1.429 . S
C3058 C3050 1.574 . S
C3058 H3053 0.949 . S
C3058 C3064 1.368 . S
C3059 C3043 1.349 . S
C3059 H3051 0.950 . S
C3059 C3057 1.327 . S
C3060 C3048 1.349 . S
C3060 H3054 0.950 . S
C3060 C3061 1.327 . S
C3061 H3055 0.950 . S
C3061 C3060 1.327 . S
C3061 C3065 1.429 . S
C3062 C3045 1.574 . S
C3062 H3056 0.949 . S
C3062 C3066 1.368 . S
C3063 C3044 1.429 . S
C3063 C3057 1.429 . S
C3063 C3064 1.523 . S
C3064 C3045 1.368 . S
C3064 C3058 1.368 . S
C3064 C3063 1.523 . S
C3065 C3049 1.429 . S
C3065 C3061 1.429 . S
C3065 C3066 1.523 . S
C3066 C3050 1.368 . S
C3066 C3062 1.368 . S
C3066 C3065 1.523 . S
H3067 C3042 0.950 . S
H3068 C3044 0.950 . S
H3069 C3045 0.949 . S
H3070 C3047 0.950 . S
H3071 C3049 0.950 . S
C3072 C3073 1.349 . S
C3072 C3074 1.327 . S
C3072 H3097 0.950 . S
C3073 C3072 1.349 . S
C3073 C3089 1.349 . S
C3074 C3072 1.327 . S
C3074 C3093 1.429 . S
C3074 H3098 0.950 . S
C3075 C3092 1.574 . S
C3075 C3094 1.368 . S
C3075 H3099 0.949 . S
H3076 C3080 0.949 . S
C3077 C3078 1.349 . S
C3077 C3079 1.327 . S
C3077 H3100 0.950 . S
C3078 C3077 1.349 . S
C3078 C3090 1.349 . S
C3079 C3077 1.327 . S
C3079 C3095 1.429 . S
C3079 H3101 0.950 . S
C3080 H3076 0.949 . S
C3080 C3088 1.574 . S
C3080 C3096 1.368 . S
H3081 C3089 0.950 . S
H3082 C3087 0.950 . S
H3083 C3088 0.949 . S
H3084 C3090 0.950 . S
H3085 C3091 0.950 . S
H3086 C3092 0.949 . S
C3087 H3082 0.950 . S
C3087 C3089 1.327 . S
C3087 C3093 1.429 . S
C3088 C3080 1.574 . S
C3088 H3083 0.949 . S
C3088 C3094 1.368 . S
C3089 C3073 1.349 . S
C3089 H3081 0.950 . S
C3089 C3087 1.327 . S
C3090 C3078 1.349 . S
C3090 H3084 0.950 . S
C3090 C3091 1.327 . S
C3091 H3085 0.950 . S
C3091 C3090 1.327 . S
C3091 C3095 1.429 . S
C3092 C3075 1.574 . S
C3092 H3086 0.949 . S
C3092 C3096 1.368 . S
C3093 C3074 1.429 . S
C3093 C3087 1.429 . S
C3093 C3094 1.523 . S
C3094 C3075 1.368 . S
C3094 C3088 1.368 . S
C3094 C3093 1.523 . S
C3095 C3079 1.429 . S
C3095 C3091 1.429 . S
C3095 C3096 1.523 . S
C3096 C3080 1.368 . S
C3096 C3092 1.368 . S
C3096 C3095 1.523 . S
H3097 C3072 0.950 . S
H3098 C3074 0.950 . S
H3099 C3075 0.949 . S
H3100 C3077 0.950 . S
H3101 C3079 0.950 . S
C3102 C3103 1.349 . S
C3102 C3104 1.327 . S
C3102 H3127 0.950 . S
C3103 C3102 1.349 . S
C3103 C3119 1.349 . S
C3104 C3102 1.327 . S
C3104 C3123 1.429 . S
C3104 H3128 0.950 . S
C3105 C3122 1.574 . S
C3105 C3124 1.368 . S
C3105 H3129 0.949 . S
H3106 C3110 0.949 . S
C3107 C3108 1.349 . S
C3107 C3109 1.327 . S
C3107 H3130 0.950 . S
C3108 C3107 1.349 . S
C3108 C3120 1.349 . S
C3109 C3107 1.327 . S
C3109 C3125 1.429 . S
C3109 H3131 0.950 . S
C3110 H3106 0.949 . S
C3110 C3118 1.574 . S
C3110 C3126 1.368 . S
H3111 C3119 0.950 . S
H3112 C3117 0.950 . S
H3113 C3118 0.949 . S
H3114 C3120 0.950 . S
H3115 C3121 0.950 . S
H3116 C3122 0.949 . S
C3117 H3112 0.950 . S
C3117 C3119 1.327 . S
C3117 C3123 1.429 . S
C3118 C3110 1.574 . S
C3118 H3113 0.949 . S
C3118 C3124 1.368 . S
C3119 C3103 1.349 . S
C3119 H3111 0.950 . S
C3119 C3117 1.327 . S
C3120 C3108 1.349 . S
C3120 H3114 0.950 . S
C3120 C3121 1.327 . S
C3121 H3115 0.950 . S
C3121 C3120 1.327 . S
C3121 C3125 1.429 . S
C3122 C3105 1.574 . S
C3122 H3116 0.949 . S
C3122 C3126 1.368 . S
C3123 C3104 1.429 . S
C3123 C3117 1.429 . S
C3123 C3124 1.523 . S
C3124 C3105 1.368 . S
C3124 C3118 1.368 . S
C3124 C3123 1.523 . S
C3125 C3109 1.429 . S
C3125 C3121 1.429 . S
C3125 C3126 1.523 . S
C3126 C3110 1.368 . S
C3126 C3122 1.368 . S
C3126 C3125 1.523 . S
H3127 C3102 0.950 . S
H3128 C3104 0.950 . S
H3129 C3105 0.949 . S
H3130 C3107 0.950 . S
H3131 C3109 0.950 . S
C3132 C3133 1.349 . S
C3132 C3134 1.327 . S
C3132 H3157 0.950 . S
C3133 C3132 1.349 . S
C3133 C3149 1.349 . S
C3134 C3132 1.327 . S
C3134 C3153 1.429 . S
C3134 H3158 0.950 . S
C3135 C3152 1.574 . S
C3135 C3154 1.368 . S
C3135 H3159 0.949 . S
H3136 C3140 0.949 . S
C3137 C3138 1.349 . S
C3137 C3139 1.327 . S
C3137 H3160 0.950 . S
C3138 C3137 1.349 . S
C3138 C3150 1.349 . S
C3139 C3137 1.327 . S
C3139 C3155 1.429 . S
C3139 H3161 0.950 . S
C3140 H3136 0.949 . S
C3140 C3148 1.574 . S
C3140 C3156 1.368 . S
H3141 C3149 0.950 . S
H3142 C3147 0.950 . S
H3143 C3148 0.949 . S
H3144 C3150 0.950 . S
H3145 C3151 0.950 . S
H3146 C3152 0.949 . S
C3147 H3142 0.950 . S
C3147 C3149 1.327 . S
C3147 C3153 1.429 . S
C3148 C3140 1.574 . S
C3148 H3143 0.949 . S
C3148 C3154 1.368 . S
C3149 C3133 1.349 . S
C3149 H3141 0.950 . S
C3149 C3147 1.327 . S
C3150 C3138 1.349 . S
C3150 H3144 0.950 . S
C3150 C3151 1.327 . S
C3151 H3145 0.950 . S
C3151 C3150 1.327 . S
C3151 C3155 1.429 . S
C3152 C3135 1.574 . S
C3152 H3146 0.949 . S
C3152 C3156 1.368 . S
C3153 C3134 1.429 . S
C3153 C3147 1.429 . S
C3153 C3154 1.523 . S
C3154 C3135 1.368 . S
C3154 C3148 1.368 . S
C3154 C3153 1.523 . S
C3155 C3139 1.429 . S
C3155 C3151 1.429 . S
C3155 C3156 1.523 . S
C3156 C3140 1.368 . S
C3156 C3152 1.368 . S
C3156 C3155 1.523 . S
H3157 C3132 0.950 . S
H3158 C3134 0.950 . S
H3159 C3135 0.949 . S
H3160 C3137 0.950 . S
H3161 C3139 0.950 . S
C3162 C3163 1.349 . S
C3162 C3164 1.327 . S
C3162 H3187 0.950 . S
C3163 C3162 1.349 . S
C3163 C3179 1.349 . S
C3164 C3162 1.327 . S
C3164 C3183 1.429 . S
C3164 H3188 0.950 . S
C3165 C3182 1.574 . S
C3165 C3184 1.368 . S
C3165 H3189 0.949 . S
H3166 C3170 0.949 . S
C3167 C3168 1.349 . S
C3167 C3169 1.327 . S
C3167 H3190 0.950 . S
C3168 C3167 1.349 . S
C3168 C3180 1.349 . S
C3169 C3167 1.327 . S
C3169 C3185 1.429 . S
C3169 H3191 0.950 . S
C3170 H3166 0.949 . S
C3170 C3178 1.574 . S
C3170 C3186 1.368 . S
H3171 C3179 0.950 . S
H3172 C3177 0.950 . S
H3173 C3178 0.949 . S
H3174 C3180 0.950 . S
H3175 C3181 0.950 . S
H3176 C3182 0.949 . S
C3177 H3172 0.950 . S
C3177 C3179 1.327 . S
C3177 C3183 1.429 . S
C3178 C3170 1.574 . S
C3178 H3173 0.949 . S
C3178 C3184 1.368 . S
C3179 C3163 1.349 . S
C3179 H3171 0.950 . S
C3179 C3177 1.327 . S
C3180 C3168 1.349 . S
C3180 H3174 0.950 . S
C3180 C3181 1.327 . S
C3181 H3175 0.950 . S
C3181 C3180 1.327 . S
C3181 C3185 1.429 . S
C3182 C3165 1.574 . S
C3182 H3176 0.949 . S
C3182 C3186 1.368 . S
C3183 C3164 1.429 . S
C3183 C3177 1.429 . S
C3183 C3184 1.523 . S
C3184 C3165 1.368 . S
C3184 C3178 1.368 . S
C3184 C3183 1.523 . S
C3185 C3169 1.429 . S
C3185 C3181 1.429 . S
C3185 C3186 1.523 . S
C3186 C3170 1.368 . S
C3186 C3182 1.368 . S
C3186 C3185 1.523 . S
H3187 C3162 0.950 . S
H3188 C3164 0.950 . S
H3189 C3165 0.949 . S
H3190 C3167 0.950 . S
H3191 C3169 0.950 . S
C3192 C3193 1.349 . S
C3192 C3194 1.327 . S
C3192 H3217 0.950 . S
C3193 C3192 1.349 . S
C3193 C3209 1.349 . S
C3194 C3192 1.327 . S
C3194 C3213 1.429 . S
C3194 H3218 0.950 . S
C3195 C3212 1.574 . S
C3195 C3214 1.368 . S
C3195 H3219 0.949 . S
H3196 C3200 0.949 . S
C3197 C3198 1.349 . S
C3197 C3199 1.327 . S
C3197 H3220 0.950 . S
C3198 C3197 1.349 . S
C3198 C3210 1.349 . S
C3199 C3197 1.327 . S
C3199 C3215 1.429 . S
C3199 H3221 0.950 . S
C3200 H3196 0.949 . S
C3200 C3208 1.574 . S
C3200 C3216 1.368 . S
H3201 C3209 0.950 . S
H3202 C3207 0.950 . S
H3203 C3208 0.949 . S
H3204 C3210 0.950 . S
H3205 C3211 0.950 . S
H3206 C3212 0.949 . S
C3207 H3202 0.950 . S
C3207 C3209 1.327 . S
C3207 C3213 1.429 . S
C3208 C3200 1.574 . S
C3208 H3203 0.949 . S
C3208 C3214 1.368 . S
C3209 C3193 1.349 . S
C3209 H3201 0.950 . S
C3209 C3207 1.327 . S
C3210 C3198 1.349 . S
C3210 H3204 0.950 . S
C3210 C3211 1.327 . S
C3211 H3205 0.950 . S
C3211 C3210 1.327 . S
C3211 C3215 1.429 . S
C3212 C3195 1.574 . S
C3212 H3206 0.949 . S
C3212 C3216 1.368 . S
C3213 C3194 1.429 . S
C3213 C3207 1.429 . S
C3213 C3214 1.523 . S
C3214 C3195 1.368 . S
C3214 C3208 1.368 . S
C3214 C3213 1.523 . S
C3215 C3199 1.429 . S
C3215 C3211 1.429 . S
C3215 C3216 1.523 . S
C3216 C3200 1.368 . S
C3216 C3212 1.368 . S
C3216 C3215 1.523 . S
H3217 C3192 0.950 . S
H3218 C3194 0.950 . S
H3219 C3195 0.949 . S
H3220 C3197 0.950 . S
H3221 C3199 0.950 . S
C3222 C3223 1.349 . S
C3222 C3224 1.327 . S
C3222 H3247 0.950 . S
C3223 C3222 1.349 . S
C3223 C3239 1.349 . S
C3224 C3222 1.327 . S
C3224 C3243 1.429 . S
C3224 H3248 0.950 . S
C3225 C3242 1.574 . S
C3225 C3244 1.368 . S
C3225 H3249 0.949 . S
H3226 C3230 0.949 . S
C3227 C3228 1.349 . S
C3227 C3229 1.327 . S
C3227 H3250 0.950 . S
C3228 C3227 1.349 . S
C3228 C3240 1.349 . S
C3229 C3227 1.327 . S
C3229 C3245 1.429 . S
C3229 H3251 0.950 . S
C3230 H3226 0.949 . S
C3230 C3238 1.574 . S
C3230 C3246 1.368 . S
H3231 C3239 0.950 . S
H3232 C3237 0.950 . S
H3233 C3238 0.949 . S
H3234 C3240 0.950 . S
H3235 C3241 0.950 . S
H3236 C3242 0.949 . S
C3237 H3232 0.950 . S
C3237 C3239 1.327 . S
C3237 C3243 1.429 . S
C3238 C3230 1.574 . S
C3238 H3233 0.949 . S
C3238 C3244 1.368 . S
C3239 C3223 1.349 . S
C3239 H3231 0.950 . S
C3239 C3237 1.327 . S
C3240 C3228 1.349 . S
C3240 H3234 0.950 . S
C3240 C3241 1.327 . S
C3241 H3235 0.950 . S
C3241 C3240 1.327 . S
C3241 C3245 1.429 . S
C3242 C3225 1.574 . S
C3242 H3236 0.949 . S
C3242 C3246 1.368 . S
C3243 C3224 1.429 . S
C3243 C3237 1.429 . S
C3243 C3244 1.523 . S
C3244 C3225 1.368 . S
C3244 C3238 1.368 . S
C3244 C3243 1.523 . S
C3245 C3229 1.429 . S
C3245 C3241 1.429 . S
C3245 C3246 1.523 . S
C3246 C3230 1.368 . S
C3246 C3242 1.368 . S
C3246 C3245 1.523 . S
H3247 C3222 0.950 . S
H3248 C3224 0.950 . S
H3249 C3225 0.949 . S
H3250 C3227 0.950 . S
H3251 C3229 0.950 . S
C3252 C3253 1.349 . S
C3252 C3254 1.327 . S
C3252 H3277 0.950 . S
C3253 C3252 1.349 . S
C3253 C3269 1.349 . S
C3254 C3252 1.327 . S
C3254 C3273 1.429 . S
C3254 H3278 0.950 . S
C3255 C3272 1.574 . S
C3255 C3274 1.368 . S
C3255 H3279 0.949 . S
H3256 C3260 0.949 . S
C3257 C3258 1.349 . S
C3257 C3259 1.327 . S
C3257 H3280 0.950 . S
C3258 C3257 1.349 . S
C3258 C3270 1.349 . S
C3259 C3257 1.327 . S
C3259 C3275 1.429 . S
C3259 H3281 0.950 . S
C3260 H3256 0.949 . S
C3260 C3268 1.574 . S
C3260 C3276 1.368 . S
H3261 C3269 0.950 . S
H3262 C3267 0.950 . S
H3263 C3268 0.949 . S
H3264 C3270 0.950 . S
H3265 C3271 0.950 . S
H3266 C3272 0.949 . S
C3267 H3262 0.950 . S
C3267 C3269 1.327 . S
C3267 C3273 1.429 . S
C3268 C3260 1.574 . S
C3268 H3263 0.949 . S
C3268 C3274 1.368 . S
C3269 C3253 1.349 . S
C3269 H3261 0.950 . S
C3269 C3267 1.327 . S
C3270 C3258 1.349 . S
C3270 H3264 0.950 . S
C3270 C3271 1.327 . S
C3271 H3265 0.950 . S
C3271 C3270 1.327 . S
C3271 C3275 1.429 . S
C3272 C3255 1.574 . S
C3272 H3266 0.949 . S
C3272 C3276 1.368 . S
C3273 C3254 1.429 . S
C3273 C3267 1.429 . S
C3273 C3274 1.523 . S
C3274 C3255 1.368 . S
C3274 C3268 1.368 . S
C3274 C3273 1.523 . S
C3275 C3259 1.429 . S
C3275 C3271 1.429 . S
C3275 C3276 1.523 . S
C3276 C3260 1.368 . S
C3276 C3272 1.368 . S
C3276 C3275 1.523 . S
H3277 C3252 0.950 . S
H3278 C3254 0.950 . S
H3279 C3255 0.949 . S
H3280 C3257 0.950 . S
H3281 C3259 0.950 . S
C3282 C3283 1.349 . S
C3282 C3284 1.327 . S
C3282 H3307 0.950 . S
C3283 C3282 1.349 . S
C3283 C3299 1.349 . S
C3284 C3282 1.327 . S
C3284 C3303 1.429 . S
C3284 H3308 0.950 . S
C3285 C3302 1.574 . S
C3285 C3304 1.368 . S
C3285 H3309 0.949 . S
H3286 C3290 0.949 . S
C3287 C3288 1.349 . S
C3287 C3289 1.327 . S
C3287 H3310 0.950 . S
C3288 C3287 1.349 . S
C3288 C3300 1.349 . S
C3289 C3287 1.327 . S
C3289 C3305 1.429 . S
C3289 H3311 0.950 . S
C3290 H3286 0.949 . S
C3290 C3298 1.574 . S
C3290 C3306 1.368 . S
H3291 C3299 0.950 . S
H3292 C3297 0.950 . S
H3293 C3298 0.949 . S
H3294 C3300 0.950 . S
H3295 C3301 0.950 . S
H3296 C3302 0.949 . S
C3297 H3292 0.950 . S
C3297 C3299 1.327 . S
C3297 C3303 1.429 . S
C3298 C3290 1.574 . S
C3298 H3293 0.949 . S
C3298 C3304 1.368 . S
C3299 C3283 1.349 . S
C3299 H3291 0.950 . S
C3299 C3297 1.327 . S
C3300 C3288 1.349 . S
C3300 H3294 0.950 . S
C3300 C3301 1.327 . S
C3301 H3295 0.950 . S
C3301 C3300 1.327 . S
C3301 C3305 1.429 . S
C3302 C3285 1.574 . S
C3302 H3296 0.949 . S
C3302 C3306 1.368 . S
C3303 C3284 1.429 . S
C3303 C3297 1.429 . S
C3303 C3304 1.523 . S
C3304 C3285 1.368 . S
C3304 C3298 1.368 . S
C3304 C3303 1.523 . S
C3305 C3289 1.429 . S
C3305 C3301 1.429 . S
C3305 C3306 1.523 . S
C3306 C3290 1.368 . S
C3306 C3302 1.368 . S
C3306 C3305 1.523 . S
H3307 C3282 0.950 . S
H3308 C3284 0.950 . S
H3309 C3285 0.949 . S
H3310 C3287 0.950 . S
H3311 C3289 0.950 . S
C3312 C3313 1.349 . S
C3312 C3314 1.327 . S
C3312 H3337 0.950 . S
C3313 C3312 1.349 . S
C3313 C3329 1.349 . S
C3314 C3312 1.327 . S
C3314 C3333 1.429 . S
C3314 H3338 0.950 . S
C3315 C3332 1.574 . S
C3315 C3334 1.368 . S
C3315 H3339 0.949 . S
H3316 C3320 0.949 . S
C3317 C3318 1.349 . S
C3317 C3319 1.327 . S
C3317 H3340 0.950 . S
C3318 C3317 1.349 . S
C3318 C3330 1.349 . S
C3319 C3317 1.327 . S
C3319 C3335 1.429 . S
C3319 H3341 0.950 . S
C3320 H3316 0.949 . S
C3320 C3328 1.574 . S
C3320 C3336 1.368 . S
H3321 C3329 0.950 . S
H3322 C3327 0.950 . S
H3323 C3328 0.949 . S
H3324 C3330 0.950 . S
H3325 C3331 0.950 . S
H3326 C3332 0.949 . S
C3327 H3322 0.950 . S
C3327 C3329 1.327 . S
C3327 C3333 1.429 . S
C3328 C3320 1.574 . S
C3328 H3323 0.949 . S
C3328 C3334 1.368 . S
C3329 C3313 1.349 . S
C3329 H3321 0.950 . S
C3329 C3327 1.327 . S
C3330 C3318 1.349 . S
C3330 H3324 0.950 . S
C3330 C3331 1.327 . S
C3331 H3325 0.950 . S
C3331 C3330 1.327 . S
C3331 C3335 1.429 . S
C3332 C3315 1.574 . S
C3332 H3326 0.949 . S
C3332 C3336 1.368 . S
C3333 C3314 1.429 . S
C3333 C3327 1.429 . S
C3333 C3334 1.523 . S
C3334 C3315 1.368 . S
C3334 C3328 1.368 . S
C3334 C3333 1.523 . S
C3335 C3319 1.429 . S
C3335 C3331 1.429 . S
C3335 C3336 1.523 . S
C3336 C3320 1.368 . S
C3336 C3332 1.368 . S
C3336 C3335 1.523 . S
H3337 C3312 0.950 . S
H3338 C3314 0.950 . S
H3339 C3315 0.949 . S
H3340 C3317 0.950 . S
H3341 C3319 0.950 . S
C3342 C3343 1.349 . S
C3342 C3344 1.327 . S
C3342 H3367 0.950 . S
C3343 C3342 1.349 . S
C3343 C3359 1.349 . S
C3344 C3342 1.327 . S
C3344 C3363 1.429 . S
C3344 H3368 0.950 . S
C3345 C3362 1.574 . S
C3345 C3364 1.368 . S
C3345 H3369 0.949 . S
H3346 C3350 0.949 . S
C3347 C3348 1.349 . S
C3347 C3349 1.327 . S
C3347 H3370 0.950 . S
C3348 C3347 1.349 . S
C3348 C3360 1.349 . S
C3349 C3347 1.327 . S
C3349 C3365 1.429 . S
C3349 H3371 0.950 . S
C3350 H3346 0.949 . S
C3350 C3358 1.574 . S
C3350 C3366 1.368 . S
H3351 C3359 0.950 . S
H3352 C3357 0.950 . S
H3353 C3358 0.949 . S
H3354 C3360 0.950 . S
H3355 C3361 0.950 . S
H3356 C3362 0.949 . S
C3357 H3352 0.950 . S
C3357 C3359 1.327 . S
C3357 C3363 1.429 . S
C3358 C3350 1.574 . S
C3358 H3353 0.949 . S
C3358 C3364 1.368 . S
C3359 C3343 1.349 . S
C3359 H3351 0.950 . S
C3359 C3357 1.327 . S
C3360 C3348 1.349 . S
C3360 H3354 0.950 . S
C3360 C3361 1.327 . S
C3361 H3355 0.950 . S
C3361 C3360 1.327 . S
C3361 C3365 1.429 . S
C3362 C3345 1.574 . S
C3362 H3356 0.949 . S
C3362 C3366 1.368 . S
C3363 C3344 1.429 . S
C3363 C3357 1.429 . S
C3363 C3364 1.523 . S
C3364 C3345 1.368 . S
C3364 C3358 1.368 . S
C3364 C3363 1.523 . S
C3365 C3349 1.429 . S
C3365 C3361 1.429 . S
C3365 C3366 1.523 . S
C3366 C3350 1.368 . S
C3366 C3362 1.368 . S
C3366 C3365 1.523 . S
H3367 C3342 0.950 . S
H3368 C3344 0.950 . S
H3369 C3345 0.949 . S
H3370 C3347 0.950 . S
H3371 C3349 0.950 . S
C3372 C3373 1.349 . S
C3372 C3374 1.327 . S
C3372 H3397 0.950 . S
C3373 C3372 1.349 . S
C3373 C3389 1.349 . S
C3374 C3372 1.327 . S
C3374 C3393 1.429 . S
C3374 H3398 0.950 . S
C3375 C3392 1.574 . S
C3375 C3394 1.368 . S
C3375 H3399 0.949 . S
H3376 C3380 0.949 . S
C3377 C3378 1.349 . S
C3377 C3379 1.327 . S
C3377 H3400 0.950 . S
C3378 C3377 1.349 . S
C3378 C3390 1.349 . S
C3379 C3377 1.327 . S
C3379 C3395 1.429 . S
C3379 H3401 0.950 . S
C3380 H3376 0.949 . S
C3380 C3388 1.574 . S
C3380 C3396 1.368 . S
H3381 C3389 0.950 . S
H3382 C3387 0.950 . S
H3383 C3388 0.949 . S
H3384 C3390 0.950 . S
H3385 C3391 0.950 . S
H3386 C3392 0.949 . S
C3387 H3382 0.950 . S
C3387 C3389 1.327 . S
C3387 C3393 1.429 . S
C3388 C3380 1.574 . S
C3388 H3383 0.949 . S
C3388 C3394 1.368 . S
C3389 C3373 1.349 . S
C3389 H3381 0.950 . S
C3389 C3387 1.327 . S
C3390 C3378 1.349 . S
C3390 H3384 0.950 . S
C3390 C3391 1.327 . S
C3391 H3385 0.950 . S
C3391 C3390 1.327 . S
C3391 C3395 1.429 . S
C3392 C3375 1.574 . S
C3392 H3386 0.949 . S
C3392 C3396 1.368 . S
C3393 C3374 1.429 . S
C3393 C3387 1.429 . S
C3393 C3394 1.523 . S
C3394 C3375 1.368 . S
C3394 C3388 1.368 . S
C3394 C3393 1.523 . S
C3395 C3379 1.429 . S
C3395 C3391 1.429 . S
C3395 C3396 1.523 . S
C3396 C3380 1.368 . S
C3396 C3392 1.368 . S
C3396 C3395 1.523 . S
H3397 C3372 0.950 . S
H3398 C3374 0.950 . S
H3399 C3375 0.949 . S
H3400 C3377 0.950 . S
H3401 C3379 0.950 . S
C3402 C3403 1.349 . S
C3402 C3404 1.327 . S
C3402 H3427 0.950 . S
C3403 C3402 1.349 . S
C3403 C3419 1.349 . S
C3404 C3402 1.327 . S
C3404 C3423 1.429 . S
C3404 H3428 0.950 . S
C3405 C3422 1.574 . S
C3405 C3424 1.368 . S
C3405 H3429 0.949 . S
H3406 C3410 0.949 . S
C3407 C3408 1.349 . S
C3407 C3409 1.327 . S
C3407 H3430 0.950 . S
C3408 C3407 1.349 . S
C3408 C3420 1.349 . S
C3409 C3407 1.327 . S
C3409 C3425 1.429 . S
C3409 H3431 0.950 . S
C3410 H3406 0.949 . S
C3410 C3418 1.574 . S
C3410 C3426 1.368 . S
H3411 C3419 0.950 . S
H3412 C3417 0.950 . S
H3413 C3418 0.949 . S
H3414 C3420 0.950 . S
H3415 C3421 0.950 . S
H3416 C3422 0.949 . S
C3417 H3412 0.950 . S
C3417 C3419 1.327 . S
C3417 C3423 1.429 . S
C3418 C3410 1.574 . S
C3418 H3413 0.949 . S
C3418 C3424 1.368 . S
C3419 C3403 1.349 . S
C3419 H3411 0.950 . S
C3419 C3417 1.327 . S
C3420 C3408 1.349 . S
C3420 H3414 0.950 . S
C3420 C3421 1.327 . S
C3421 H3415 0.950 . S
C3421 C3420 1.327 . S
C3421 C3425 1.429 . S
C3422 C3405 1.574 . S
C3422 H3416 0.949 . S
C3422 C3426 1.368 . S
C3423 C3404 1.429 . S
C3423 C3417 1.429 . S
C3423 C3424 1.523 . S
C3424 C3405 1.368 . S
C3424 C3418 1.368 . S
C3424 C3423 1.523 . S
C3425 C3409 1.429 . S
C3425 C3421 1.429 . S
C3425 C3426 1.523 . S
C3426 C3410 1.368 . S
C3426 C3422 1.368 . S
C3426 C3425 1.523 . S
H3427 C3402 0.950 . S
H3428 C3404 0.950 . S
H3429 C3405 0.949 . S
H3430 C3407 0.950 . S
H3431 C3409 0.950 . S
C3432 C3433 1.349 . S
C3432 C3434 1.327 . S
C3432 H3457 0.950 . S
C3433 C3432 1.349 . S
C3433 C3449 1.349 . S
C3434 C3432 1.327 . S
C3434 C3453 1.429 . S
C3434 H3458 0.950 . S
C3435 C3452 1.574 . S
C3435 C3454 1.368 . S
C3435 H3459 0.949 . S
H3436 C3440 0.949 . S
C3437 C3438 1.349 . S
C3437 C3439 1.327 . S
C3437 H3460 0.950 . S
C3438 C3437 1.349 . S
C3438 C3450 1.349 . S
C3439 C3437 1.327 . S
C3439 C3455 1.429 . S
C3439 H3461 0.950 . S
C3440 H3436 0.949 . S
C3440 C3448 1.574 . S
C3440 C3456 1.368 . S
H3441 C3449 0.950 . S
H3442 C3447 0.950 . S
H3443 C3448 0.949 . S
H3444 C3450 0.950 . S
H3445 C3451 0.950 . S
H3446 C3452 0.949 . S
C3447 H3442 0.950 . S
C3447 C3449 1.327 . S
C3447 C3453 1.429 . S
C3448 C3440 1.574 . S
C3448 H3443 0.949 . S
C3448 C3454 1.368 . S
C3449 C3433 1.349 . S
C3449 H3441 0.950 . S
C3449 C3447 1.327 . S
C3450 C3438 1.349 . S
C3450 H3444 0.950 . S
C3450 C3451 1.327 . S
C3451 H3445 0.950 . S
C3451 C3450 1.327 . S
C3451 C3455 1.429 . S
C3452 C3435 1.574 . S
C3452 H3446 0.949 . S
C3452 C3456 1.368 . S
C3453 C3434 1.429 . S
C3453 C3447 1.429 . S
C3453 C3454 1.523 . S
C3454 C3435 1.368 . S
C3454 C3448 1.368 . S
C3454 C3453 1.523 . S
C3455 C3439 1.429 . S
C3455 C3451 1.429 . S
C3455 C3456 1.523 . S
C3456 C3440 1.368 . S
C3456 C3452 1.368 . S
C3456 C3455 1.523 . S
H3457 C3432 0.950 . S
H3458 C3434 0.950 . S
H3459 C3435 0.949 . S
H3460 C3437 0.950 . S
H3461 C3439 0.950 . S
C3462 C3463 1.349 . S
C3462 C3464 1.327 . S
C3462 H3487 0.950 . S
C3463 C3462 1.349 . S
C3463 C3479 1.349 . S
C3464 C3462 1.327 . S
C3464 C3483 1.429 . S
C3464 H3488 0.950 . S
C3465 C3482 1.574 . S
C3465 C3484 1.368 . S
C3465 H3489 0.949 . S
H3466 C3470 0.949 . S
C3467 C3468 1.349 . S
C3467 C3469 1.327 . S
C3467 H3490 0.950 . S
C3468 C3467 1.349 . S
C3468 C3480 1.349 . S
C3469 C3467 1.327 . S
C3469 C3485 1.429 . S
C3469 H3491 0.950 . S
C3470 H3466 0.949 . S
C3470 C3478 1.574 . S
C3470 C3486 1.368 . S
H3471 C3479 0.950 . S
H3472 C3477 0.950 . S
H3473 C3478 0.949 . S
H3474 C3480 0.950 . S
H3475 C3481 0.950 . S
H3476 C3482 0.949 . S
C3477 H3472 0.950 . S
C3477 C3479 1.327 . S
C3477 C3483 1.429 . S
C3478 C3470 1.574 . S
C3478 H3473 0.949 . S
C3478 C3484 1.368 . S
C3479 C3463 1.349 . S
C3479 H3471 0.950 . S
C3479 C3477 1.327 . S
C3480 C3468 1.349 . S
C3480 H3474 0.950 . S
C3480 C3481 1.327 . S
C3481 H3475 0.950 . S
C3481 C3480 1.327 . S
C3481 C3485 1.429 . S
C3482 C3465 1.574 . S
C3482 H3476 0.949 . S
C3482 C3486 1.368 . S
C3483 C3464 1.429 . S
C3483 C3477 1.429 . S
C3483 C3484 1.523 . S
C3484 C3465 1.368 . S
C3484 C3478 1.368 . S
C3484 C3483 1.523 . S
C3485 C3469 1.429 . S
C3485 C3481 1.429 . S
C3485 C3486 1.523 . S
C3486 C3470 1.368 . S
C3486 C3482 1.368 . S
C3486 C3485 1.523 . S
H3487 C3462 0.950 . S
H3488 C3464 0.950 . S
H3489 C3465 0.949 . S
H3490 C3467 0.950 . S
H3491 C3469 0.950 . S
C3492 C3493 1.349 . S
C3492 C3494 1.327 . S
C3492 H3517 0.950 . S
C3493 C3492 1.349 . S
C3493 C3509 1.349 . S
C3494 C3492 1.327 . S
C3494 C3513 1.429 . S
C3494 H3518 0.950 . S
C3495 C3512 1.574 . S
C3495 C3514 1.368 . S
C3495 H3519 0.949 . S
H3496 C3500 0.949 . S
C3497 C3498 1.349 . S
C3497 C3499 1.327 . S
C3497 H3520 0.950 . S
C3498 C3497 1.349 . S
C3498 C3510 1.349 . S
C3499 C3497 1.327 . S
C3499 C3515 1.429 . S
C3499 H3521 0.950 . S
C3500 H3496 0.949 . S
C3500 C3508 1.574 . S
C3500 C3516 1.368 . S
H3501 C3509 0.950 . S
H3502 C3507 0.950 . S
H3503 C3508 0.949 . S
H3504 C3510 0.950 . S
H3505 C3511 0.950 . S
H3506 C3512 0.949 . S
C3507 H3502 0.950 . S
C3507 C3509 1.327 . S
C3507 C3513 1.429 . S
C3508 C3500 1.574 . S
C3508 H3503 0.949 . S
C3508 C3514 1.368 . S
C3509 C3493 1.349 . S
C3509 H3501 0.950 . S
C3509 C3507 1.327 . S
C3510 C3498 1.349 . S
C3510 H3504 0.950 . S
C3510 C3511 1.327 . S
C3511 H3505 0.950 . S
C3511 C3510 1.327 . S
C3511 C3515 1.429 . S
C3512 C3495 1.574 . S
C3512 H3506 0.949 . S
C3512 C3516 1.368 . S
C3513 C3494 1.429 . S
C3513 C3507 1.429 . S
C3513 C3514 1.523 . S
C3514 C3495 1.368 . S
C3514 C3508 1.368 . S
C3514 C3513 1.523 . S
C3515 C3499 1.429 . S
C3515 C3511 1.429 . S
C3515 C3516 1.523 . S
C3516 C3500 1.368 . S
C3516 C3512 1.368 . S
C3516 C3515 1.523 . S
H3517 C3492 0.950 . S
H3518 C3494 0.950 . S
H3519 C3495 0.949 . S
H3520 C3497 0.950 . S
H3521 C3499 0.950 . S
C3522 C3523 1.349 . S
C3522 C3524 1.327 . S
C3522 H3547 0.950 . S
C3523 C3522 1.349 . S
C3523 C3539 1.349 . S
C3524 C3522 1.327 . S
C3524 C3543 1.429 . S
C3524 H3548 0.950 . S
C3525 C3542 1.574 . S
C3525 C3544 1.368 . S
C3525 H3549 0.949 . S
H3526 C3530 0.949 . S
C3527 C3528 1.349 . S
C3527 C3529 1.327 . S
C3527 H3550 0.950 . S
C3528 C3527 1.349 . S
C3528 C3540 1.349 . S
C3529 C3527 1.327 . S
C3529 C3545 1.429 . S
C3529 H3551 0.950 . S
C3530 H3526 0.949 . S
C3530 C3538 1.574 . S
C3530 C3546 1.368 . S
H3531 C3539 0.950 . S
H3532 C3537 0.950 . S
H3533 C3538 0.949 . S
H3534 C3540 0.950 . S
H3535 C3541 0.950 . S
H3536 C3542 0.949 . S
C3537 H3532 0.950 . S
C3537 C3539 1.327 . S
C3537 C3543 1.429 . S
C3538 C3530 1.574 . S
C3538 H3533 0.949 . S
C3538 C3544 1.368 . S
C3539 C3523 1.349 . S
C3539 H3531 0.950 . S
C3539 C3537 1.327 . S
C3540 C3528 1.349 . S
C3540 H3534 0.950 . S
C3540 C3541 1.327 . S
C3541 H3535 0.950 . S
C3541 C3540 1.327 . S
C3541 C3545 1.429 . S
C3542 C3525 1.574 . S
C3542 H3536 0.949 . S
C3542 C3546 1.368 . S
C3543 C3524 1.429 . S
C3543 C3537 1.429 . S
C3543 C3544 1.523 . S
C3544 C3525 1.368 . S
C3544 C3538 1.368 . S
C3544 C3543 1.523 . S
C3545 C3529 1.429 . S
C3545 C3541 1.429 . S
C3545 C3546 1.523 . S
C3546 C3530 1.368 . S
C3546 C3542 1.368 . S
C3546 C3545 1.523 . S
H3547 C3522 0.950 . S
H3548 C3524 0.950 . S
H3549 C3525 0.949 . S
H3550 C3527 0.950 . S
H3551 C3529 0.950 . S
C673 C134 1.473 . S
C678 C8 1.473 . S
C703 C148 1.473 . S
C708 C22 1.473 . S
C733 C162 1.473 . S
C738 C36 1.473 . S
C763 C50 1.473 . S
C768 C120 1.473 . S
C793 C218 1.473 . S
C798 C64 1.473 . S
C823 C78 1.473 . S
C828 C176 1.473 . S
C853 C190 1.473 . S
C858 C92 1.473 . S
C883 C204 1.473 . S
C888 C106 1.473 . S
C913 C232 1.473 . S
C918 C260 1.473 . S
C943 C246 1.473 . S
C948 C316 1.473 . S
C973 C274 1.473 . S
C978 C330 1.473 . S
C1003 C288 1.473 . S
C1008 C302 1.473 . S
C1033 C344 1.473 . S
C1038 C470 1.473 . S
C1063 C484 1.473 . S
C1068 C358 1.473 . S
C1093 C372 1.473 . S
C1098 C498 1.473 . S
C1123 C386 1.473 . S
C1128 C456 1.473 . S
C1153 C554 1.473 . S
C1158 C400 1.473 . S
C1183 C512 1.473 . S
C1188 C414 1.473 . S
C1213 C526 1.473 . S
C1218 C428 1.473 . S
C1243 C540 1.473 . S
C1248 C442 1.473 . S
C1273 C568 1.473 . S
C1278 C596 1.473 . S
C1303 C582 1.473 . S
C1308 C652 1.473 . S
C1333 C610 1.473 . S
C1338 C666 1.473 . S
C1363 C638 1.473 . S
C1368 C624 1.473 . S
C1393 C121 0.980 . S
C1398 C3 1.065 . S
C1423 C135 0.980 . S
C1428 C17 1.065 . S
C1453 C31 1.065 . S
C1458 C149 0.980 . S
C1483 C45 1.065 . S
C1488 C163 0.980 . S
C1513 C59 1.065 . S
C1518 C177 0.980 . S
C1543 C73 1.065 . S
C1548 C191 0.980 . S
C1573 C87 1.065 . S
C1578 C205 0.980 . S
C1603 C219 0.980 . S
C1608 C101 1.065 . S
C1633 C115 1.065 . S
C1638 C233 0.980 . S
C1663 C331 0.980 . S
C1668 C129 1.065 . S
C1693 C143 1.065 . S
C1698 C303 0.980 . S
C1723 C157 1.065 . S
C1728 C317 0.980 . S
C1753 C171 1.065 . S
C1758 C247 0.980 . S
C1783 C185 1.065 . S
C1788 C261 0.980 . S
C1813 C199 1.065 . S
C1818 C275 0.980 . S
C1843 C289 0.980 . S
C1848 C213 1.065 . S
C1873 C9 0.980 . S
C1878 C227 1.065 . S
C1903 C241 1.065 . S
C1908 C65 0.980 . S
C1933 C255 1.065 . S
C1938 C79 0.980 . S
C1963 C269 1.065 . S
C1968 C93 0.980 . S
C1993 C107 0.980 . S
C1998 C283 1.065 . S
C2023 C297 1.065 . S
C2028 C37 0.980 . S
C2053 C311 1.065 . S
C2058 C51 0.980 . S
C2083 C23 0.980 . S
C2088 C325 1.065 . S
C2113 C457 0.980 . S
C2118 C339 1.065 . S
C2143 C353 1.065 . S
C2148 C471 0.980 . S
C2173 C367 1.065 . S
C2178 C485 0.980 . S
C2203 C499 0.980 . S
C2208 C381 1.065 . S
C2233 C513 0.980 . S
C2238 C395 1.065 . S
C2263 C409 1.065 . S
C2268 C527 0.980 . S
C2293 C541 0.980 . S
C2298 C423 1.065 . S
C2323 C555 0.980 . S
C2328 C437 1.065 . S
C2353 C451 1.065 . S
C2358 C569 0.980 . S
C2383 C465 1.065 . S
C2388 C667 0.980 . S
C2413 C479 1.065 . S
C2418 C639 0.980 . S
C2443 C653 0.980 . S
C2448 C493 1.065 . S
C2473 C507 1.065 . S
C2478 C583 0.980 . S
C2503 C521 1.065 . S
C2508 C597 0.980 . S
C2533 C611 0.980 . S
C2538 C535 1.065 . S
C2563 C625 0.980 . S
C2568 C549 1.065 . S
C2593 C563 1.065 . S
C2598 C345 0.980 . S
C2623 C577 1.065 . S
C2628 C401 0.980 . S
C2653 C415 0.980 . S
C2658 C591 1.065 . S
C2683 C605 1.065 . S
C2688 C429 0.980 . S
C2713 C619 1.065 . S
C2718 C443 0.980 . S
C2743 C373 0.980 . S
C2748 C633 1.065 . S
C2773 C647 1.065 . S
C2778 C387 0.980 . S
C2803 C359 0.980 . S
C2808 C661 1.065 . S
C2833 C441 1.252 . S
C2838 C7 1.252 . S
C2863 C21 1.252 . S
C2868 C399 1.252 . S
C2893 C413 1.252 . S
C2898 C35 1.252 . S
C2923 C427 1.252 . S
C2928 C49 1.252 . S
C2953 C63 1.252 . S
C2958 C357 1.252 . S
C2983 C371 1.252 . S
C2988 C77 1.252 . S
C3013 C385 1.252 . S
C3018 C91 1.252 . S
C3043 C105 1.252 . S
C3048 C343 1.252 . S
C3073 C623 1.252 . S
C3078 C119 1.252 . S
C3103 C133 1.252 . S
C3108 C581 1.252 . S
C3133 C147 1.252 . S
C3138 C595 1.252 . S
C3163 C609 1.252 . S
C3168 C161 1.252 . S
C3193 C665 1.252 . S
C3198 C175 1.252 . S
C3223 C637 1.252 . S
C3228 C189 1.252 . S
C3253 C203 1.252 . S
C3258 C651 1.252 . S
C3283 C567 1.252 . S
C3288 C217 1.252 . S
C3313 C231 1.252 . S
C3318 C553 1.252 . S
C3343 C469 1.252 . S
C3348 C245 1.252 . S
C3373 C259 1.252 . S
C3378 C483 1.252 . S
C3403 C497 1.252 . S
C3408 C273 1.252 . S
C3433 C455 1.252 . S
C3438 C287 1.252 . S
C3463 C301 1.252 . S
C3468 C525 1.252 . S
C3493 C539 1.252 . S
C3498 C315 1.252 . S
C3523 C511 1.252 . S
C3528 C329 1.252 . S
