# Generated by pormake.
# Topology kfi, (4)-cn, num edge types: 1
# Building blocks:
#     Node 0, Type 0, BuildingBlock: CEKHIL_clean_sbu_0, # of connection points: 4
#     Node 1, Type 0, BuildingBlock: CEKHIL_clean_sbu_0, # of connection points: 4
#     Node 2, Type 0, BuildingBlock: CEKHIL_clean_sbu_0, # of connection points: 4
#     Node 3, Type 0, BuildingBlock: CEKHIL_clean_sbu_0, # of connection points: 4
#     Node 4, Type 0, BuildingBlock: CEKHIL_clean_sbu_0, # of connection points: 4
#     Node 5, Type 0, BuildingBlock: CEKHIL_clean_sbu_0, # of connection points: 4
#     Node 6, Type 0, BuildingBlock: CEKHIL_clean_sbu_0, # of connection points: 4
#     Node 7, Type 0, BuildingBlock: CEKHIL_clean_sbu_0, # of connection points: 4
#     Node 8, Type 0, BuildingBlock: CEKHIL_clean_sbu_0, # of connection points: 4
#     Node 9, Type 0, BuildingBlock: CEKHIL_clean_sbu_0, # of connection points: 4
#     Node 10, Type 0, BuildingBlock: CEKHIL_clean_sbu_0, # of connection points: 4
#     Node 11, Type 0, BuildingBlock: CEKHIL_clean_sbu_0, # of connection points: 4
#     Node 12, Type 0, BuildingBlock: CEKHIL_clean_sbu_0, # of connection points: 4
#     Node 13, Type 0, BuildingBlock: CEKHIL_clean_sbu_0, # of connection points: 4
#     Node 14, Type 0, BuildingBlock: CEKHIL_clean_sbu_0, # of connection points: 4
#     Node 15, Type 0, BuildingBlock: CEKHIL_clean_sbu_0, # of connection points: 4
#     Node 16, Type 0, BuildingBlock: CEKHIL_clean_sbu_0, # of connection points: 4
#     Node 17, Type 0, BuildingBlock: CEKHIL_clean_sbu_0, # of connection points: 4
#     Node 18, Type 0, BuildingBlock: CEKHIL_clean_sbu_0, # of connection points: 4
#     Node 19, Type 0, BuildingBlock: CEKHIL_clean_sbu_0, # of connection points: 4
#     Node 20, Type 0, BuildingBlock: CEKHIL_clean_sbu_0, # of connection points: 4
#     Node 21, Type 0, BuildingBlock: CEKHIL_clean_sbu_0, # of connection points: 4
#     Node 22, Type 0, BuildingBlock: CEKHIL_clean_sbu_0, # of connection points: 4
#     Node 23, Type 0, BuildingBlock: CEKHIL_clean_sbu_0, # of connection points: 4
#     Node 24, Type 0, BuildingBlock: CEKHIL_clean_sbu_0, # of connection points: 4
#     Node 25, Type 0, BuildingBlock: CEKHIL_clean_sbu_0, # of connection points: 4
#     Node 26, Type 0, BuildingBlock: CEKHIL_clean_sbu_0, # of connection points: 4
#     Node 27, Type 0, BuildingBlock: CEKHIL_clean_sbu_0, # of connection points: 4
#     Node 28, Type 0, BuildingBlock: CEKHIL_clean_sbu_0, # of connection points: 4
#     Node 29, Type 0, BuildingBlock: CEKHIL_clean_sbu_0, # of connection points: 4
#     Node 30, Type 0, BuildingBlock: CEKHIL_clean_sbu_0, # of connection points: 4
#     Node 31, Type 0, BuildingBlock: CEKHIL_clean_sbu_0, # of connection points: 4
#     Node 32, Type 0, BuildingBlock: CEKHIL_clean_sbu_0, # of connection points: 4
#     Node 33, Type 0, BuildingBlock: CEKHIL_clean_sbu_0, # of connection points: 4
#     Node 34, Type 0, BuildingBlock: CEKHIL_clean_sbu_0, # of connection points: 4
#     Node 35, Type 0, BuildingBlock: CEKHIL_clean_sbu_0, # of connection points: 4
#     Node 36, Type 0, BuildingBlock: CEKHIL_clean_sbu_0, # of connection points: 4
#     Node 37, Type 0, BuildingBlock: CEKHIL_clean_sbu_0, # of connection points: 4
#     Node 38, Type 0, BuildingBlock: CEKHIL_clean_sbu_0, # of connection points: 4
#     Node 39, Type 0, BuildingBlock: CEKHIL_clean_sbu_0, # of connection points: 4
#     Node 40, Type 0, BuildingBlock: CEKHIL_clean_sbu_0, # of connection points: 4
#     Node 41, Type 0, BuildingBlock: CEKHIL_clean_sbu_0, # of connection points: 4
#     Node 42, Type 0, BuildingBlock: CEKHIL_clean_sbu_0, # of connection points: 4
#     Node 43, Type 0, BuildingBlock: CEKHIL_clean_sbu_0, # of connection points: 4
#     Node 44, Type 0, BuildingBlock: CEKHIL_clean_sbu_0, # of connection points: 4
#     Node 45, Type 0, BuildingBlock: CEKHIL_clean_sbu_0, # of connection points: 4
#     Node 46, Type 0, BuildingBlock: CEKHIL_clean_sbu_0, # of connection points: 4
#     Node 47, Type 0, BuildingBlock: CEKHIL_clean_sbu_0, # of connection points: 4
#     Node 48, Type 0, BuildingBlock: CEKHIL_clean_sbu_0, # of connection points: 4
#     Node 49, Type 0, BuildingBlock: CEKHIL_clean_sbu_0, # of connection points: 4
#     Node 50, Type 0, BuildingBlock: CEKHIL_clean_sbu_0, # of connection points: 4
#     Node 51, Type 0, BuildingBlock: CEKHIL_clean_sbu_0, # of connection points: 4
#     Node 52, Type 0, BuildingBlock: CEKHIL_clean_sbu_0, # of connection points: 4
#     Node 53, Type 0, BuildingBlock: CEKHIL_clean_sbu_0, # of connection points: 4
#     Node 54, Type 0, BuildingBlock: CEKHIL_clean_sbu_0, # of connection points: 4
#     Node 55, Type 0, BuildingBlock: CEKHIL_clean_sbu_0, # of connection points: 4
#     Node 56, Type 0, BuildingBlock: CEKHIL_clean_sbu_0, # of connection points: 4
#     Node 57, Type 0, BuildingBlock: CEKHIL_clean_sbu_0, # of connection points: 4
#     Node 58, Type 0, BuildingBlock: CEKHIL_clean_sbu_0, # of connection points: 4
#     Node 59, Type 0, BuildingBlock: CEKHIL_clean_sbu_0, # of connection points: 4
#     Node 60, Type 0, BuildingBlock: CEKHIL_clean_sbu_0, # of connection points: 4
#     Node 61, Type 0, BuildingBlock: CEKHIL_clean_sbu_0, # of connection points: 4
#     Node 62, Type 0, BuildingBlock: CEKHIL_clean_sbu_0, # of connection points: 4
#     Node 63, Type 0, BuildingBlock: CEKHIL_clean_sbu_0, # of connection points: 4
#     Node 64, Type 0, BuildingBlock: CEKHIL_clean_sbu_0, # of connection points: 4
#     Node 65, Type 0, BuildingBlock: CEKHIL_clean_sbu_0, # of connection points: 4
#     Node 66, Type 0, BuildingBlock: CEKHIL_clean_sbu_0, # of connection points: 4
#     Node 67, Type 0, BuildingBlock: CEKHIL_clean_sbu_0, # of connection points: 4
#     Node 68, Type 0, BuildingBlock: CEKHIL_clean_sbu_0, # of connection points: 4
#     Node 69, Type 0, BuildingBlock: CEKHIL_clean_sbu_0, # of connection points: 4
#     Node 70, Type 0, BuildingBlock: CEKHIL_clean_sbu_0, # of connection points: 4
#     Node 71, Type 0, BuildingBlock: CEKHIL_clean_sbu_0, # of connection points: 4
#     Node 72, Type 0, BuildingBlock: CEKHIL_clean_sbu_0, # of connection points: 4
#     Node 73, Type 0, BuildingBlock: CEKHIL_clean_sbu_0, # of connection points: 4
#     Node 74, Type 0, BuildingBlock: CEKHIL_clean_sbu_0, # of connection points: 4
#     Node 75, Type 0, BuildingBlock: CEKHIL_clean_sbu_0, # of connection points: 4
#     Node 76, Type 0, BuildingBlock: CEKHIL_clean_sbu_0, # of connection points: 4
#     Node 77, Type 0, BuildingBlock: CEKHIL_clean_sbu_0, # of connection points: 4
#     Node 78, Type 0, BuildingBlock: CEKHIL_clean_sbu_0, # of connection points: 4
#     Node 79, Type 0, BuildingBlock: CEKHIL_clean_sbu_0, # of connection points: 4
#     Node 80, Type 0, BuildingBlock: CEKHIL_clean_sbu_0, # of connection points: 4
#     Node 81, Type 0, BuildingBlock: CEKHIL_clean_sbu_0, # of connection points: 4
#     Node 82, Type 0, BuildingBlock: CEKHIL_clean_sbu_0, # of connection points: 4
#     Node 83, Type 0, BuildingBlock: CEKHIL_clean_sbu_0, # of connection points: 4
#     Node 84, Type 0, BuildingBlock: CEKHIL_clean_sbu_0, # of connection points: 4
#     Node 85, Type 0, BuildingBlock: CEKHIL_clean_sbu_0, # of connection points: 4
#     Node 86, Type 0, BuildingBlock: CEKHIL_clean_sbu_0, # of connection points: 4
#     Node 87, Type 0, BuildingBlock: CEKHIL_clean_sbu_0, # of connection points: 4
#     Node 88, Type 0, BuildingBlock: CEKHIL_clean_sbu_0, # of connection points: 4
#     Node 89, Type 0, BuildingBlock: CEKHIL_clean_sbu_0, # of connection points: 4
#     Node 90, Type 0, BuildingBlock: CEKHIL_clean_sbu_0, # of connection points: 4
#     Node 91, Type 0, BuildingBlock: CEKHIL_clean_sbu_0, # of connection points: 4
#     Node 92, Type 0, BuildingBlock: CEKHIL_clean_sbu_0, # of connection points: 4
#     Node 93, Type 0, BuildingBlock: CEKHIL_clean_sbu_0, # of connection points: 4
#     Node 94, Type 0, BuildingBlock: CEKHIL_clean_sbu_0, # of connection points: 4
#     Node 95, Type 0, BuildingBlock: CEKHIL_clean_sbu_0, # of connection points: 4
#     Edge 96, Type (0, 0), BuildingBlock: CIFDUS_clean_linker_0, # of connection points: 2
#     Edge 97, Type (0, 0), BuildingBlock: CIFDUS_clean_linker_0, # of connection points: 2
#     Edge 98, Type (0, 0), BuildingBlock: CIFDUS_clean_linker_0, # of connection points: 2
#     Edge 99, Type (0, 0), BuildingBlock: CIFDUS_clean_linker_0, # of connection points: 2
#     Edge 100, Type (0, 0), BuildingBlock: CIFDUS_clean_linker_0, # of connection points: 2
#     Edge 101, Type (0, 0), BuildingBlock: CIFDUS_clean_linker_0, # of connection points: 2
#     Edge 102, Type (0, 0), BuildingBlock: CIFDUS_clean_linker_0, # of connection points: 2
#     Edge 103, Type (0, 0), BuildingBlock: CIFDUS_clean_linker_0, # of connection points: 2
#     Edge 104, Type (0, 0), BuildingBlock: CIFDUS_clean_linker_0, # of connection points: 2
#     Edge 105, Type (0, 0), BuildingBlock: CIFDUS_clean_linker_0, # of connection points: 2
#     Edge 106, Type (0, 0), BuildingBlock: CIFDUS_clean_linker_0, # of connection points: 2
#     Edge 107, Type (0, 0), BuildingBlock: CIFDUS_clean_linker_0, # of connection points: 2
#     Edge 108, Type (0, 0), BuildingBlock: CIFDUS_clean_linker_0, # of connection points: 2
#     Edge 109, Type (0, 0), BuildingBlock: CIFDUS_clean_linker_0, # of connection points: 2
#     Edge 110, Type (0, 0), BuildingBlock: CIFDUS_clean_linker_0, # of connection points: 2
#     Edge 111, Type (0, 0), BuildingBlock: CIFDUS_clean_linker_0, # of connection points: 2
#     Edge 112, Type (0, 0), BuildingBlock: CIFDUS_clean_linker_0, # of connection points: 2
#     Edge 113, Type (0, 0), BuildingBlock: CIFDUS_clean_linker_0, # of connection points: 2
#     Edge 114, Type (0, 0), BuildingBlock: CIFDUS_clean_linker_0, # of connection points: 2
#     Edge 115, Type (0, 0), BuildingBlock: CIFDUS_clean_linker_0, # of connection points: 2
#     Edge 116, Type (0, 0), BuildingBlock: CIFDUS_clean_linker_0, # of connection points: 2
#     Edge 117, Type (0, 0), BuildingBlock: CIFDUS_clean_linker_0, # of connection points: 2
#     Edge 118, Type (0, 0), BuildingBlock: CIFDUS_clean_linker_0, # of connection points: 2
#     Edge 119, Type (0, 0), BuildingBlock: CIFDUS_clean_linker_0, # of connection points: 2
#     Edge 120, Type (0, 0), BuildingBlock: CIFDUS_clean_linker_0, # of connection points: 2
#     Edge 121, Type (0, 0), BuildingBlock: CIFDUS_clean_linker_0, # of connection points: 2
#     Edge 122, Type (0, 0), BuildingBlock: CIFDUS_clean_linker_0, # of connection points: 2
#     Edge 123, Type (0, 0), BuildingBlock: CIFDUS_clean_linker_0, # of connection points: 2
#     Edge 124, Type (0, 0), BuildingBlock: CIFDUS_clean_linker_0, # of connection points: 2
#     Edge 125, Type (0, 0), BuildingBlock: CIFDUS_clean_linker_0, # of connection points: 2
#     Edge 126, Type (0, 0), BuildingBlock: CIFDUS_clean_linker_0, # of connection points: 2
#     Edge 127, Type (0, 0), BuildingBlock: CIFDUS_clean_linker_0, # of connection points: 2
#     Edge 128, Type (0, 0), BuildingBlock: CIFDUS_clean_linker_0, # of connection points: 2
#     Edge 129, Type (0, 0), BuildingBlock: CIFDUS_clean_linker_0, # of connection points: 2
#     Edge 130, Type (0, 0), BuildingBlock: CIFDUS_clean_linker_0, # of connection points: 2
#     Edge 131, Type (0, 0), BuildingBlock: CIFDUS_clean_linker_0, # of connection points: 2
#     Edge 132, Type (0, 0), BuildingBlock: CIFDUS_clean_linker_0, # of connection points: 2
#     Edge 133, Type (0, 0), BuildingBlock: CIFDUS_clean_linker_0, # of connection points: 2
#     Edge 134, Type (0, 0), BuildingBlock: CIFDUS_clean_linker_0, # of connection points: 2
#     Edge 135, Type (0, 0), BuildingBlock: CIFDUS_clean_linker_0, # of connection points: 2
#     Edge 136, Type (0, 0), BuildingBlock: CIFDUS_clean_linker_0, # of connection points: 2
#     Edge 137, Type (0, 0), BuildingBlock: CIFDUS_clean_linker_0, # of connection points: 2
#     Edge 138, Type (0, 0), BuildingBlock: CIFDUS_clean_linker_0, # of connection points: 2
#     Edge 139, Type (0, 0), BuildingBlock: CIFDUS_clean_linker_0, # of connection points: 2
#     Edge 140, Type (0, 0), BuildingBlock: CIFDUS_clean_linker_0, # of connection points: 2
#     Edge 141, Type (0, 0), BuildingBlock: CIFDUS_clean_linker_0, # of connection points: 2
#     Edge 142, Type (0, 0), BuildingBlock: CIFDUS_clean_linker_0, # of connection points: 2
#     Edge 143, Type (0, 0), BuildingBlock: CIFDUS_clean_linker_0, # of connection points: 2
#     Edge 144, Type (0, 0), BuildingBlock: CIFDUS_clean_linker_0, # of connection points: 2
#     Edge 145, Type (0, 0), BuildingBlock: CIFDUS_clean_linker_0, # of connection points: 2
#     Edge 146, Type (0, 0), BuildingBlock: CIFDUS_clean_linker_0, # of connection points: 2
#     Edge 147, Type (0, 0), BuildingBlock: CIFDUS_clean_linker_0, # of connection points: 2
#     Edge 148, Type (0, 0), BuildingBlock: CIFDUS_clean_linker_0, # of connection points: 2
#     Edge 149, Type (0, 0), BuildingBlock: CIFDUS_clean_linker_0, # of connection points: 2
#     Edge 150, Type (0, 0), BuildingBlock: CIFDUS_clean_linker_0, # of connection points: 2
#     Edge 151, Type (0, 0), BuildingBlock: CIFDUS_clean_linker_0, # of connection points: 2
#     Edge 152, Type (0, 0), BuildingBlock: CIFDUS_clean_linker_0, # of connection points: 2
#     Edge 153, Type (0, 0), BuildingBlock: CIFDUS_clean_linker_0, # of connection points: 2
#     Edge 154, Type (0, 0), BuildingBlock: CIFDUS_clean_linker_0, # of connection points: 2
#     Edge 155, Type (0, 0), BuildingBlock: CIFDUS_clean_linker_0, # of connection points: 2
#     Edge 156, Type (0, 0), BuildingBlock: CIFDUS_clean_linker_0, # of connection points: 2
#     Edge 157, Type (0, 0), BuildingBlock: CIFDUS_clean_linker_0, # of connection points: 2
#     Edge 158, Type (0, 0), BuildingBlock: CIFDUS_clean_linker_0, # of connection points: 2
#     Edge 159, Type (0, 0), BuildingBlock: CIFDUS_clean_linker_0, # of connection points: 2
#     Edge 160, Type (0, 0), BuildingBlock: CIFDUS_clean_linker_0, # of connection points: 2
#     Edge 161, Type (0, 0), BuildingBlock: CIFDUS_clean_linker_0, # of connection points: 2
#     Edge 162, Type (0, 0), BuildingBlock: CIFDUS_clean_linker_0, # of connection points: 2
#     Edge 163, Type (0, 0), BuildingBlock: CIFDUS_clean_linker_0, # of connection points: 2
#     Edge 164, Type (0, 0), BuildingBlock: CIFDUS_clean_linker_0, # of connection points: 2
#     Edge 165, Type (0, 0), BuildingBlock: CIFDUS_clean_linker_0, # of connection points: 2
#     Edge 166, Type (0, 0), BuildingBlock: CIFDUS_clean_linker_0, # of connection points: 2
#     Edge 167, Type (0, 0), BuildingBlock: CIFDUS_clean_linker_0, # of connection points: 2
#     Edge 168, Type (0, 0), BuildingBlock: CIFDUS_clean_linker_0, # of connection points: 2
#     Edge 169, Type (0, 0), BuildingBlock: CIFDUS_clean_linker_0, # of connection points: 2
#     Edge 170, Type (0, 0), BuildingBlock: CIFDUS_clean_linker_0, # of connection points: 2
#     Edge 171, Type (0, 0), BuildingBlock: CIFDUS_clean_linker_0, # of connection points: 2
#     Edge 172, Type (0, 0), BuildingBlock: CIFDUS_clean_linker_0, # of connection points: 2
#     Edge 173, Type (0, 0), BuildingBlock: CIFDUS_clean_linker_0, # of connection points: 2
#     Edge 174, Type (0, 0), BuildingBlock: CIFDUS_clean_linker_0, # of connection points: 2
#     Edge 175, Type (0, 0), BuildingBlock: CIFDUS_clean_linker_0, # of connection points: 2
#     Edge 176, Type (0, 0), BuildingBlock: CIFDUS_clean_linker_0, # of connection points: 2
#     Edge 177, Type (0, 0), BuildingBlock: CIFDUS_clean_linker_0, # of connection points: 2
#     Edge 178, Type (0, 0), BuildingBlock: CIFDUS_clean_linker_0, # of connection points: 2
#     Edge 179, Type (0, 0), BuildingBlock: CIFDUS_clean_linker_0, # of connection points: 2
#     Edge 180, Type (0, 0), BuildingBlock: CIFDUS_clean_linker_0, # of connection points: 2
#     Edge 181, Type (0, 0), BuildingBlock: CIFDUS_clean_linker_0, # of connection points: 2
#     Edge 182, Type (0, 0), BuildingBlock: CIFDUS_clean_linker_0, # of connection points: 2
#     Edge 183, Type (0, 0), BuildingBlock: CIFDUS_clean_linker_0, # of connection points: 2
#     Edge 184, Type (0, 0), BuildingBlock: CIFDUS_clean_linker_0, # of connection points: 2
#     Edge 185, Type (0, 0), BuildingBlock: CIFDUS_clean_linker_0, # of connection points: 2
#     Edge 186, Type (0, 0), BuildingBlock: CIFDUS_clean_linker_0, # of connection points: 2
#     Edge 187, Type (0, 0), BuildingBlock: CIFDUS_clean_linker_0, # of connection points: 2
#     Edge 188, Type (0, 0), BuildingBlock: CIFDUS_clean_linker_0, # of connection points: 2
#     Edge 189, Type (0, 0), BuildingBlock: CIFDUS_clean_linker_0, # of connection points: 2
#     Edge 190, Type (0, 0), BuildingBlock: CIFDUS_clean_linker_0, # of connection points: 2
#     Edge 191, Type (0, 0), BuildingBlock: CIFDUS_clean_linker_0, # of connection points: 2
#     Edge 192, Type (0, 0), BuildingBlock: CIFDUS_clean_linker_0, # of connection points: 2
#     Edge 193, Type (0, 0), BuildingBlock: CIFDUS_clean_linker_0, # of connection points: 2
#     Edge 194, Type (0, 0), BuildingBlock: CIFDUS_clean_linker_0, # of connection points: 2
#     Edge 195, Type (0, 0), BuildingBlock: CIFDUS_clean_linker_0, # of connection points: 2
#     Edge 196, Type (0, 0), BuildingBlock: CIFDUS_clean_linker_0, # of connection points: 2
#     Edge 197, Type (0, 0), BuildingBlock: CIFDUS_clean_linker_0, # of connection points: 2
#     Edge 198, Type (0, 0), BuildingBlock: CIFDUS_clean_linker_0, # of connection points: 2
#     Edge 199, Type (0, 0), BuildingBlock: CIFDUS_clean_linker_0, # of connection points: 2
#     Edge 200, Type (0, 0), BuildingBlock: CIFDUS_clean_linker_0, # of connection points: 2
#     Edge 201, Type (0, 0), BuildingBlock: CIFDUS_clean_linker_0, # of connection points: 2
#     Edge 202, Type (0, 0), BuildingBlock: CIFDUS_clean_linker_0, # of connection points: 2
#     Edge 203, Type (0, 0), BuildingBlock: CIFDUS_clean_linker_0, # of connection points: 2
#     Edge 204, Type (0, 0), BuildingBlock: CIFDUS_clean_linker_0, # of connection points: 2
#     Edge 205, Type (0, 0), BuildingBlock: CIFDUS_clean_linker_0, # of connection points: 2
#     Edge 206, Type (0, 0), BuildingBlock: CIFDUS_clean_linker_0, # of connection points: 2
#     Edge 207, Type (0, 0), BuildingBlock: CIFDUS_clean_linker_0, # of connection points: 2
#     Edge 208, Type (0, 0), BuildingBlock: CIFDUS_clean_linker_0, # of connection points: 2
#     Edge 209, Type (0, 0), BuildingBlock: CIFDUS_clean_linker_0, # of connection points: 2
#     Edge 210, Type (0, 0), BuildingBlock: CIFDUS_clean_linker_0, # of connection points: 2
#     Edge 211, Type (0, 0), BuildingBlock: CIFDUS_clean_linker_0, # of connection points: 2
#     Edge 212, Type (0, 0), BuildingBlock: CIFDUS_clean_linker_0, # of connection points: 2
#     Edge 213, Type (0, 0), BuildingBlock: CIFDUS_clean_linker_0, # of connection points: 2
#     Edge 214, Type (0, 0), BuildingBlock: CIFDUS_clean_linker_0, # of connection points: 2
#     Edge 215, Type (0, 0), BuildingBlock: CIFDUS_clean_linker_0, # of connection points: 2
#     Edge 216, Type (0, 0), BuildingBlock: CIFDUS_clean_linker_0, # of connection points: 2
#     Edge 217, Type (0, 0), BuildingBlock: CIFDUS_clean_linker_0, # of connection points: 2
#     Edge 218, Type (0, 0), BuildingBlock: CIFDUS_clean_linker_0, # of connection points: 2
#     Edge 219, Type (0, 0), BuildingBlock: CIFDUS_clean_linker_0, # of connection points: 2
#     Edge 220, Type (0, 0), BuildingBlock: CIFDUS_clean_linker_0, # of connection points: 2
#     Edge 221, Type (0, 0), BuildingBlock: CIFDUS_clean_linker_0, # of connection points: 2
#     Edge 222, Type (0, 0), BuildingBlock: CIFDUS_clean_linker_0, # of connection points: 2
#     Edge 223, Type (0, 0), BuildingBlock: CIFDUS_clean_linker_0, # of connection points: 2
#     Edge 224, Type (0, 0), BuildingBlock: CIFDUS_clean_linker_0, # of connection points: 2
#     Edge 225, Type (0, 0), BuildingBlock: CIFDUS_clean_linker_0, # of connection points: 2
#     Edge 226, Type (0, 0), BuildingBlock: CIFDUS_clean_linker_0, # of connection points: 2
#     Edge 227, Type (0, 0), BuildingBlock: CIFDUS_clean_linker_0, # of connection points: 2
#     Edge 228, Type (0, 0), BuildingBlock: CIFDUS_clean_linker_0, # of connection points: 2
#     Edge 229, Type (0, 0), BuildingBlock: CIFDUS_clean_linker_0, # of connection points: 2
#     Edge 230, Type (0, 0), BuildingBlock: CIFDUS_clean_linker_0, # of connection points: 2
#     Edge 231, Type (0, 0), BuildingBlock: CIFDUS_clean_linker_0, # of connection points: 2
#     Edge 232, Type (0, 0), BuildingBlock: CIFDUS_clean_linker_0, # of connection points: 2
#     Edge 233, Type (0, 0), BuildingBlock: CIFDUS_clean_linker_0, # of connection points: 2
#     Edge 234, Type (0, 0), BuildingBlock: CIFDUS_clean_linker_0, # of connection points: 2
#     Edge 235, Type (0, 0), BuildingBlock: CIFDUS_clean_linker_0, # of connection points: 2
#     Edge 236, Type (0, 0), BuildingBlock: CIFDUS_clean_linker_0, # of connection points: 2
#     Edge 237, Type (0, 0), BuildingBlock: CIFDUS_clean_linker_0, # of connection points: 2
#     Edge 238, Type (0, 0), BuildingBlock: CIFDUS_clean_linker_0, # of connection points: 2
#     Edge 239, Type (0, 0), BuildingBlock: CIFDUS_clean_linker_0, # of connection points: 2
#     Edge 240, Type (0, 0), BuildingBlock: CIFDUS_clean_linker_0, # of connection points: 2
#     Edge 241, Type (0, 0), BuildingBlock: CIFDUS_clean_linker_0, # of connection points: 2
#     Edge 242, Type (0, 0), BuildingBlock: CIFDUS_clean_linker_0, # of connection points: 2
#     Edge 243, Type (0, 0), BuildingBlock: CIFDUS_clean_linker_0, # of connection points: 2
#     Edge 244, Type (0, 0), BuildingBlock: CIFDUS_clean_linker_0, # of connection points: 2
#     Edge 245, Type (0, 0), BuildingBlock: CIFDUS_clean_linker_0, # of connection points: 2
#     Edge 246, Type (0, 0), BuildingBlock: CIFDUS_clean_linker_0, # of connection points: 2
#     Edge 247, Type (0, 0), BuildingBlock: CIFDUS_clean_linker_0, # of connection points: 2
#     Edge 248, Type (0, 0), BuildingBlock: CIFDUS_clean_linker_0, # of connection points: 2
#     Edge 249, Type (0, 0), BuildingBlock: CIFDUS_clean_linker_0, # of connection points: 2
#     Edge 250, Type (0, 0), BuildingBlock: CIFDUS_clean_linker_0, # of connection points: 2
#     Edge 251, Type (0, 0), BuildingBlock: CIFDUS_clean_linker_0, # of connection points: 2
#     Edge 252, Type (0, 0), BuildingBlock: CIFDUS_clean_linker_0, # of connection points: 2
#     Edge 253, Type (0, 0), BuildingBlock: CIFDUS_clean_linker_0, # of connection points: 2
#     Edge 254, Type (0, 0), BuildingBlock: CIFDUS_clean_linker_0, # of connection points: 2
#     Edge 255, Type (0, 0), BuildingBlock: CIFDUS_clean_linker_0, # of connection points: 2
#     Edge 256, Type (0, 0), BuildingBlock: CIFDUS_clean_linker_0, # of connection points: 2
#     Edge 257, Type (0, 0), BuildingBlock: CIFDUS_clean_linker_0, # of connection points: 2
#     Edge 258, Type (0, 0), BuildingBlock: CIFDUS_clean_linker_0, # of connection points: 2
#     Edge 259, Type (0, 0), BuildingBlock: CIFDUS_clean_linker_0, # of connection points: 2
#     Edge 260, Type (0, 0), BuildingBlock: CIFDUS_clean_linker_0, # of connection points: 2
#     Edge 261, Type (0, 0), BuildingBlock: CIFDUS_clean_linker_0, # of connection points: 2
#     Edge 262, Type (0, 0), BuildingBlock: CIFDUS_clean_linker_0, # of connection points: 2
#     Edge 263, Type (0, 0), BuildingBlock: CIFDUS_clean_linker_0, # of connection points: 2
#     Edge 264, Type (0, 0), BuildingBlock: CIFDUS_clean_linker_0, # of connection points: 2
#     Edge 265, Type (0, 0), BuildingBlock: CIFDUS_clean_linker_0, # of connection points: 2
#     Edge 266, Type (0, 0), BuildingBlock: CIFDUS_clean_linker_0, # of connection points: 2
#     Edge 267, Type (0, 0), BuildingBlock: CIFDUS_clean_linker_0, # of connection points: 2
#     Edge 268, Type (0, 0), BuildingBlock: CIFDUS_clean_linker_0, # of connection points: 2
#     Edge 269, Type (0, 0), BuildingBlock: CIFDUS_clean_linker_0, # of connection points: 2
#     Edge 270, Type (0, 0), BuildingBlock: CIFDUS_clean_linker_0, # of connection points: 2
#     Edge 271, Type (0, 0), BuildingBlock: CIFDUS_clean_linker_0, # of connection points: 2
#     Edge 272, Type (0, 0), BuildingBlock: CIFDUS_clean_linker_0, # of connection points: 2
#     Edge 273, Type (0, 0), BuildingBlock: CIFDUS_clean_linker_0, # of connection points: 2
#     Edge 274, Type (0, 0), BuildingBlock: CIFDUS_clean_linker_0, # of connection points: 2
#     Edge 275, Type (0, 0), BuildingBlock: CIFDUS_clean_linker_0, # of connection points: 2
#     Edge 276, Type (0, 0), BuildingBlock: CIFDUS_clean_linker_0, # of connection points: 2
#     Edge 277, Type (0, 0), BuildingBlock: CIFDUS_clean_linker_0, # of connection points: 2
#     Edge 278, Type (0, 0), BuildingBlock: CIFDUS_clean_linker_0, # of connection points: 2
#     Edge 279, Type (0, 0), BuildingBlock: CIFDUS_clean_linker_0, # of connection points: 2
#     Edge 280, Type (0, 0), BuildingBlock: CIFDUS_clean_linker_0, # of connection points: 2
#     Edge 281, Type (0, 0), BuildingBlock: CIFDUS_clean_linker_0, # of connection points: 2
#     Edge 282, Type (0, 0), BuildingBlock: CIFDUS_clean_linker_0, # of connection points: 2
#     Edge 283, Type (0, 0), BuildingBlock: CIFDUS_clean_linker_0, # of connection points: 2
#     Edge 284, Type (0, 0), BuildingBlock: CIFDUS_clean_linker_0, # of connection points: 2
#     Edge 285, Type (0, 0), BuildingBlock: CIFDUS_clean_linker_0, # of connection points: 2
#     Edge 286, Type (0, 0), BuildingBlock: CIFDUS_clean_linker_0, # of connection points: 2
#     Edge 287, Type (0, 0), BuildingBlock: CIFDUS_clean_linker_0, # of connection points: 2
# Relax obj value: 0.163
# Max RMSD: 0.098
# Mean RMSD: 0.098
data_MOF--net-kfi--node1-CEKHIL_clean_sbu_0--edge1-CIFDUS_clean_linker_0
_symmetry_space_group_name_H-M    P1
_symmetry_Int_Tables_number       1
_symmetry_cell_setting            triclinic
loop_
_symmetry_equiv_pos_as_xyz
'x, y, z'
_cell_length_a     76.486204
_cell_length_b     76.504299
_cell_length_c     76.506833
_cell_angle_alpha  89.970864
_cell_angle_beta   90.047875
_cell_angle_gamma 90.044668
loop_
_atom_site_label
_atom_site_type_symbol
_atom_site_fract_x
_atom_site_fract_y
_atom_site_fract_z
_atom_type_partial_charge
Co0 Co 0.08641 0.20336 0.32709 0.0
O1 O 0.06717 0.18938 0.31876 0.0
O2 O 0.06529 0.20869 0.34015 0.0
C3 C 0.10648 0.18136 0.32775 0.0
O4 O 0.1034 0.21981 0.33963 0.0
Co5 Co 0.11984 0.20786 0.30414 0.0
O6 O 0.12854 0.22151 0.32439 0.0
C7 C 0.08693 0.2249 0.29393 0.0
C8 C 0.05749 0.19728 0.33023 0.0
C9 C 0.11911 0.22557 0.33752 0.0
O10 O 0.08053 0.22219 0.30928 0.0
O11 O 0.10138 0.21828 0.28875 0.0
O12 O 0.09565 0.18333 0.34072 0.0
O13 O 0.10377 0.19159 0.31471 0.0
Co14 Co 0.80709 0.08618 0.33027 0.0
O15 O 0.82009 0.06616 0.32243 0.0
O16 O 0.79833 0.06492 0.34134 0.0
C17 C 0.83095 0.10347 0.33475 0.0
O18 O 0.79106 0.10433 0.34185 0.0
Co19 Co 0.8092 0.12098 0.30913 0.0
O20 O 0.79614 0.13049 0.32936 0.0
C21 C 0.78981 0.0908 0.29496 0.0
C22 C 0.81022 0.05665 0.3324 0.0
C23 C 0.78868 0.12102 0.3409 0.0
O24 O 0.79013 0.08317 0.30999 0.0
O25 O 0.79828 0.10485 0.29162 0.0
O26 O 0.82606 0.09245 0.34675 0.0
O27 O 0.82216 0.10265 0.32044 0.0
Co28 Co 0.92385 0.81085 0.3291 0.0
O29 O 0.9442 0.82482 0.3244 0.0
O30 O 0.94445 0.80086 0.34048 0.0
C31 C 0.90575 0.83375 0.33515 0.0
O32 O 0.90498 0.79346 0.337 0.0
Co33 Co 0.89122 0.81581 0.30493 0.0
O34 O 0.88052 0.79887 0.32137 0.0
C35 C 0.92242 0.79771 0.29165 0.0
C36 C 0.95318 0.81377 0.33357 0.0
C37 C 0.8888 0.79046 0.33318 0.0
O38 O 0.92859 0.79641 0.30729 0.0
O39 O 0.90889 0.80681 0.28787 0.0
O40 O 0.916 0.82763 0.34727 0.0
O41 O 0.90801 0.82691 0.31999 0.0
Co42 Co 0.20245 0.92438 0.32809 0.0
O43 O 0.19088 0.94631 0.32292 0.0
O44 O 0.21207 0.94291 0.3423 0.0
C45 C 0.17794 0.90741 0.32914 0.0
O46 O 0.21736 0.90459 0.33784 0.0
Co47 Co 0.20086 0.8919 0.30371 0.0
O48 O 0.21501 0.88002 0.32196 0.0
C49 C 0.22018 0.92351 0.29304 0.0
C50 C 0.20133 0.95338 0.33433 0.0
C51 C 0.2211 0.88846 0.33497 0.0
O52 O 0.22014 0.92927 0.30888 0.0
O53 O 0.21142 0.91012 0.28816 0.0
O54 O 0.18249 0.91656 0.34277 0.0
O55 O 0.18749 0.90978 0.31553 0.0
Co56 Co 0.08769 0.80126 0.67949 0.0
O57 O 0.06602 0.81253 0.68588 0.0
O58 O 0.06855 0.79247 0.66528 0.0
C59 C 0.1045 0.82592 0.67923 0.0
O60 O 0.10777 0.78709 0.66888 0.0
Co61 Co 0.1197 0.80258 0.70479 0.0
O62 O 0.13195 0.79066 0.6853 0.0
C63 C 0.08921 0.78071 0.71338 0.0
C64 C 0.05844 0.80288 0.67416 0.0
C65 C 0.12414 0.78439 0.67194 0.0
O66 O 0.08331 0.78232 0.69766 0.0
O67 O 0.10225 0.78945 0.71921 0.0
O68 O 0.09505 0.82197 0.66562 0.0
O69 O 0.10222 0.81585 0.69248 0.0
Co70 Co 0.20654 0.08383 0.68028 0.0
O71 O 0.19525 0.06167 0.68404 0.0
O72 O 0.21774 0.06567 0.66638 0.0
C73 C 0.1817 0.09993 0.67731 0.0
O74 O 0.22113 0.10507 0.67292 0.0
Co75 Co 0.20048 0.11358 0.70754 0.0
O76 O 0.21399 0.12765 0.69043 0.0
C77 C 0.22396 0.08439 0.71621 0.0
C78 C 0.20645 0.05494 0.67328 0.0
C79 C 0.22242 0.12126 0.67754 0.0
O80 O 0.22336 0.07903 0.70025 0.0
O81 O 0.21426 0.09669 0.72207 0.0
O82 O 0.18777 0.09119 0.66407 0.0
O83 O 0.1897 0.09712 0.69186 0.0
Co84 Co 0.9272 0.19938 0.68216 0.0
O85 O 0.94825 0.18756 0.68974 0.0
O86 O 0.94682 0.2064 0.66786 0.0
C87 C 0.909 0.17576 0.68299 0.0
O88 O 0.90837 0.2139 0.67005 0.0
Co89 Co 0.89458 0.20182 0.70636 0.0
O90 O 0.88397 0.21471 0.68645 0.0
C91 C 0.92628 0.22193 0.71461 0.0
C92 C 0.95638 0.19629 0.67764 0.0
C93 C 0.89251 0.21884 0.67275 0.0
O94 O 0.93225 0.21919 0.69911 0.0
O95 O 0.91265 0.21432 0.72065 0.0
O96 O 0.91903 0.1783 0.66947 0.0
O97 O 0.9115 0.18647 0.6957 0.0
Co98 Co 0.8081 0.92272 0.68877 0.0
O99 O 0.82158 0.94284 0.69588 0.0
O100 O 0.80054 0.94343 0.67608 0.0
C101 C 0.83116 0.90392 0.68651 0.0
O102 O 0.79178 0.90475 0.67744 0.0
Co103 Co 0.80731 0.88876 0.7114 0.0
O104 O 0.79397 0.87898 0.69145 0.0
C105 C 0.78975 0.92073 0.72369 0.0
C106 C 0.81229 0.95196 0.68496 0.0
C107 C 0.78795 0.88841 0.67909 0.0
O108 O 0.79058 0.92754 0.70825 0.0
O109 O 0.79746 0.90649 0.72785 0.0
O110 O 0.82761 0.9145 0.67364 0.0
O111 O 0.82171 0.90612 0.70019 0.0
Co112 Co 0.32282 0.08812 0.2008 0.0
O113 O 0.3186 0.06552 0.19021 0.0
O114 O 0.33672 0.07011 0.2122 0.0
C115 C 0.32515 0.10358 0.17532 0.0
O116 O 0.33117 0.10939 0.21484 0.0
Co117 Co 0.29708 0.11924 0.19468 0.0
O118 O 0.31516 0.13288 0.20731 0.0
C119 C 0.28675 0.08971 0.21724 0.0
C120 C 0.32956 0.05903 0.20145 0.0
C121 C 0.32775 0.12588 0.21573 0.0
O122 O 0.30267 0.08407 0.21781 0.0
O123 O 0.28179 0.10212 0.20717 0.0
O124 O 0.3386 0.095 0.18127 0.0
O125 O 0.31101 0.10126 0.18404 0.0
Co126 Co 0.92193 0.32345 0.20216 0.0
O127 O 0.94406 0.32058 0.19041 0.0
O128 O 0.93968 0.33801 0.21302 0.0
C129 C 0.90505 0.32523 0.17764 0.0
O130 O 0.90105 0.33029 0.21741 0.0
Co131 Co 0.89208 0.29598 0.19755 0.0
O132 O 0.87825 0.31249 0.21196 0.0
C133 C 0.92392 0.28706 0.21721 0.0
C134 C 0.95056 0.33143 0.20173 0.0
C135 C 0.88503 0.32559 0.21976 0.0
O136 O 0.92803 0.30337 0.21845 0.0
O137 O 0.91141 0.28149 0.20758 0.0
O138 O 0.91321 0.33909 0.18325 0.0
O139 O 0.90857 0.31115 0.18605 0.0
Co140 Co 0.68181 0.92621 0.20323 0.0
O141 O 0.69069 0.94584 0.19021 0.0
O142 O 0.66813 0.94711 0.20818 0.0
C143 C 0.68291 0.90665 0.18077 0.0
O144 O 0.66884 0.90845 0.21858 0.0
Co145 Co 0.70587 0.89352 0.20807 0.0
O146 O 0.68541 0.88416 0.22096 0.0
C147 C 0.71362 0.92614 0.22676 0.0
C148 C 0.67874 0.95527 0.19764 0.0
C149 C 0.6716 0.89285 0.22438 0.0
O150 O 0.69824 0.93203 0.22326 0.0
O151 O 0.71985 0.91218 0.21999 0.0
O152 O 0.66957 0.91712 0.18219 0.0
O153 O 0.69524 0.9095 0.19181 0.0
Co154 Co 0.08758 0.6869 0.20514 0.0
O155 O 0.06534 0.69151 0.19414 0.0
O156 O 0.06951 0.67174 0.21476 0.0
C157 C 0.104 0.68701 0.18021 0.0
O158 O 0.10868 0.67819 0.21916 0.0
Co159 Co 0.1175 0.71458 0.20228 0.0
O160 O 0.13152 0.69592 0.21363 0.0
C161 C 0.0873 0.72127 0.22512 0.0
C162 C 0.05867 0.67969 0.20431 0.0
C163 C 0.12496 0.68234 0.22078 0.0
O164 O 0.08238 0.7052 0.22371 0.0
O165 O 0.09967 0.7279 0.216 0.0
O166 O 0.09551 0.67295 0.18467 0.0
O167 O 0.10088 0.70038 0.18985 0.0
Co168 Co 0.31998 0.92165 0.80521 0.0
O169 O 0.31598 0.9441 0.81594 0.0
O170 O 0.33526 0.93914 0.795 0.0
C171 C 0.32034 0.90565 0.83029 0.0
O172 O 0.32817 0.90036 0.79136 0.0
Co173 Co 0.29235 0.89187 0.80881 0.0
O174 O 0.31039 0.87757 0.79684 0.0
C175 C 0.28534 0.92191 0.78577 0.0
C176 C 0.32782 0.95028 0.80547 0.0
C177 C 0.3239 0.88415 0.78961 0.0
O178 O 0.30142 0.92683 0.78695 0.0
O179 O 0.27883 0.90959 0.79505 0.0
O180 O 0.33434 0.91397 0.82533 0.0
O181 O 0.30666 0.90867 0.82098 0.0
Co182 Co 0.08516 0.32729 0.81059 0.0
O183 O 0.06259 0.32394 0.82123 0.0
O184 O 0.06739 0.34076 0.79826 0.0
C185 C 0.10068 0.33115 0.83574 0.0
O186 O 0.10682 0.33412 0.79643 0.0
Co187 Co 0.11459 0.30016 0.81838 0.0
O188 O 0.12915 0.31685 0.80484 0.0
C189 C 0.08619 0.29089 0.79415 0.0
C190 C 0.05623 0.3342 0.80932 0.0
C191 C 0.12304 0.32947 0.7958 0.0
O192 O 0.0808 0.30684 0.79428 0.0
O193 O 0.09824 0.28523 0.80431 0.0
O194 O 0.09204 0.34413 0.82893 0.0
O195 O 0.098 0.31629 0.82829 0.0
Co196 Co 0.68766 0.09004 0.80836 0.0
O197 O 0.69461 0.06991 0.8219 0.0
O198 O 0.67496 0.06936 0.80074 0.0
C199 C 0.68535 0.10886 0.83136 0.0
O200 O 0.67646 0.10798 0.79192 0.0
Co201 Co 0.71024 0.12406 0.80761 0.0
O202 O 0.6905 0.13377 0.79392 0.0
C203 C 0.72278 0.09186 0.79063 0.0
C204 C 0.68373 0.06082 0.81254 0.0
C205 C 0.67815 0.12429 0.78793 0.0
O206 O 0.70728 0.08516 0.79106 0.0
O207 O 0.72683 0.10611 0.79839 0.0
O208 O 0.67244 0.09834 0.82774 0.0
O209 O 0.69906 0.10664 0.82197 0.0
Co210 Co 0.92614 0.68454 0.80831 0.0
O211 O 0.94706 0.69052 0.82081 0.0
O212 O 0.94621 0.67198 0.79872 0.0
C213 C 0.9089 0.68063 0.83227 0.0
O214 O 0.90645 0.6751 0.79278 0.0
Co215 Co 0.89413 0.70957 0.81207 0.0
O216 O 0.8822 0.69063 0.79896 0.0
C217 C 0.92364 0.7198 0.78963 0.0
C218 C 0.95548 0.68005 0.81053 0.0
C219 C 0.88995 0.67819 0.79098 0.0
O220 O 0.93026 0.7044 0.79119 0.0
O221 O 0.91036 0.72498 0.7984 0.0
O222 O 0.91914 0.66815 0.82699 0.0
O223 O 0.91091 0.69525 0.82416 0.0
Co224 Co 0.2033 0.32 0.08869 0.0
O225 O 0.18962 0.31228 0.06899 0.0
O226 O 0.21005 0.33265 0.06765 0.0
C227 C 0.18048 0.32188 0.10772 0.0
O228 O 0.21962 0.33186 0.10639 0.0
Co229 Co 0.20501 0.2973 0.1226 0.0
O230 O 0.21821 0.31748 0.13206 0.0
C231 C 0.22234 0.28549 0.09034 0.0
C232 C 0.19835 0.32333 0.05953 0.0
C233 C 0.22378 0.33009 0.12266 0.0
O234 O 0.2212 0.30095 0.08369 0.0
O235 O 0.21484 0.28108 0.10463 0.0
O236 O 0.18361 0.33474 0.09701 0.0
O237 O 0.19021 0.30839 0.10553 0.0
Co238 Co 0.201 0.68872 0.9229 0.0
O239 O 0.18952 0.69275 0.94505 0.0
O240 O 0.21224 0.67535 0.94136 0.0
C241 C 0.17618 0.68561 0.90658 0.0
O242 O 0.21608 0.68076 0.90225 0.0
Co243 Co 0.1954 0.71414 0.89144 0.0
O244 O 0.20929 0.69658 0.8784 0.0
C245 C 0.2158 0.72535 0.92215 0.0
C246 C 0.20101 0.68238 0.95202 0.0
C247 C 0.21769 0.68422 0.88582 0.0
O248 O 0.21711 0.7094 0.92751 0.0
O249 O 0.20601 0.72994 0.90938 0.0
O250 O 0.18219 0.67232 0.91537 0.0
O251 O 0.18446 0.69998 0.90911 0.0
Co252 Co 0.32195 0.19868 0.92228 0.0
O253 O 0.31864 0.18477 0.94293 0.0
O254 O 0.33609 0.20773 0.94154 0.0
C255 C 0.3245 0.17588 0.90329 0.0
O256 O 0.32883 0.21577 0.90276 0.0
Co257 Co 0.29414 0.19583 0.89241 0.0
O258 O 0.31095 0.21101 0.8798 0.0
C259 C 0.28541 0.21378 0.92514 0.0
C260 C 0.32938 0.19518 0.9509 0.0
C261 C 0.32393 0.21877 0.88687 0.0
O262 O 0.30171 0.21435 0.92944 0.0
O263 O 0.27967 0.205 0.91211 0.0
O264 O 0.33805 0.18088 0.91231 0.0
O265 O 0.31017 0.18358 0.90737 0.0
Co266 Co 0.80594 0.32536 0.9218 0.0
O267 O 0.81744 0.32126 0.94389 0.0
O268 O 0.79379 0.3375 0.94046 0.0
C269 C 0.83054 0.33072 0.90589 0.0
O270 O 0.79073 0.33308 0.90115 0.0
Co271 Co 0.81342 0.301 0.88998 0.0
O272 O 0.79883 0.31817 0.87714 0.0
C273 C 0.79256 0.28805 0.91964 0.0
C274 C 0.80539 0.33086 0.951 0.0
C275 C 0.78964 0.32989 0.88463 0.0
O276 O 0.79088 0.30375 0.92557 0.0
O277 O 0.80266 0.28417 0.90688 0.0
O278 O 0.82364 0.34315 0.91523 0.0
O279 O 0.82337 0.31565 0.90786 0.0
Co280 Co 0.68283 0.80921 0.92265 0.0
O281 O 0.68932 0.82099 0.94411 0.0
O282 O 0.66924 0.80031 0.94206 0.0
C283 C 0.6819 0.83355 0.90534 0.0
O284 O 0.67195 0.79419 0.90335 0.0
Co285 Co 0.70644 0.80989 0.88948 0.0
O286 O 0.68718 0.79652 0.87835 0.0
C287 C 0.71746 0.79078 0.92108 0.0
C288 C 0.67809 0.81093 0.95196 0.0
C289 C 0.67431 0.79052 0.88708 0.0
O290 O 0.70173 0.7911 0.92712 0.0
O291 O 0.72222 0.79931 0.90749 0.0
O292 O 0.66848 0.82955 0.91505 0.0
O293 O 0.69525 0.82361 0.90742 0.0
Co294 Co 0.81163 0.68622 0.08516 0.0
O295 O 0.82272 0.68976 0.06277 0.0
O296 O 0.79966 0.6729 0.06714 0.0
C297 C 0.83635 0.6821 0.10128 0.0
O298 O 0.79696 0.67897 0.10626 0.0
Co299 Co 0.81849 0.71246 0.11558 0.0
O300 O 0.80451 0.6955 0.1294 0.0
C301 C 0.79547 0.72271 0.08649 0.0
C302 C 0.81091 0.67946 0.0562 0.0
C303 C 0.79576 0.68305 0.12257 0.0
O304 O 0.79553 0.70687 0.08073 0.0
O305 O 0.80528 0.7279 0.09902 0.0
O306 O 0.82981 0.66927 0.09223 0.0
O307 O 0.82898 0.69701 0.09868 0.0
Co308 Co 0.32952 0.80725 0.08827 0.0
O309 O 0.32503 0.81865 0.06622 0.0
O310 O 0.34254 0.79594 0.06967 0.0
C311 C 0.33345 0.83194 0.10453 0.0
O312 O 0.33787 0.79232 0.10878 0.0
Co313 Co 0.3043 0.81273 0.11971 0.0
O314 O 0.32213 0.79899 0.13268 0.0
C315 C 0.29341 0.7904 0.09031 0.0
C316 C 0.3354 0.80724 0.05915 0.0
C317 C 0.3345 0.79068 0.1252 0.0
O318 O 0.30909 0.79075 0.08416 0.0
O319 O 0.28849 0.79981 0.10324 0.0
O320 O 0.34619 0.8258 0.09509 0.0
O321 O 0.3187 0.82408 0.1024 0.0
Co322 Co 0.68235 0.20332 0.08811 0.0
O323 O 0.68561 0.19265 0.06553 0.0
O324 O 0.66884 0.21564 0.07045 0.0
C325 C 0.67833 0.17827 0.10373 0.0
O326 O 0.67544 0.21755 0.10958 0.0
Co327 Co 0.70911 0.19593 0.1179 0.0
O328 O 0.69229 0.20944 0.13231 0.0
C329 C 0.71863 0.22017 0.08955 0.0
C330 C 0.67526 0.20455 0.05926 0.0
C331 C 0.67976 0.21837 0.12586 0.0
O332 O 0.70282 0.21963 0.08375 0.0
O333 O 0.72415 0.21031 0.10192 0.0
O334 O 0.66545 0.18507 0.09494 0.0
O335 O 0.69328 0.18564 0.10115 0.0
Co336 Co 0.92452 0.80841 0.68271 0.0
O337 O 0.94486 0.8216 0.68979 0.0
O338 O 0.94546 0.79908 0.67175 0.0
C339 C 0.90687 0.83189 0.67753 0.0
O340 O 0.90639 0.7919 0.67184 0.0
Co341 Co 0.88967 0.8108 0.70377 0.0
O342 O 0.88037 0.79534 0.68518 0.0
C343 C 0.92031 0.79303 0.71885 0.0
C344 C 0.95407 0.81111 0.68016 0.0
C345 C 0.88999 0.78829 0.67354 0.0
O346 O 0.92769 0.79233 0.7037 0.0
O347 O 0.90631 0.8017 0.72178 0.0
O348 O 0.91793 0.82685 0.66563 0.0
O349 O 0.90797 0.8236 0.6921 0.0
Co350 Co 0.1979 0.92161 0.67957 0.0
O351 O 0.18442 0.94233 0.68404 0.0
O352 O 0.20843 0.94177 0.66803 0.0
C353 C 0.17471 0.90376 0.67368 0.0
O354 O 0.21493 0.90248 0.67184 0.0
Co355 Co 0.19259 0.88911 0.70378 0.0
O356 O 0.20898 0.87797 0.68708 0.0
C357 C 0.21112 0.92012 0.71696 0.0
C358 C 0.19581 0.95091 0.67486 0.0
C359 C 0.21761 0.88621 0.67541 0.0
O360 O 0.21245 0.92625 0.70132 0.0
O361 O 0.20188 0.9067 0.72079 0.0
O362 O 0.18094 0.91387 0.66149 0.0
O363 O 0.18159 0.90607 0.68883 0.0
Co364 Co 0.08955 0.19673 0.69207 0.0
O365 O 0.06972 0.18306 0.69968 0.0
O366 O 0.06864 0.2038 0.67959 0.0
C367 C 0.10857 0.17397 0.68974 0.0
O368 O 0.10696 0.21324 0.68022 0.0
Co369 Co 0.12391 0.19851 0.71393 0.0
O370 O 0.1329 0.21254 0.69408 0.0
C371 C 0.09174 0.21541 0.72668 0.0
C372 C 0.06037 0.19211 0.68876 0.0
C373 C 0.12308 0.21793 0.68172 0.0
O374 O 0.08475 0.21438 0.71136 0.0
O375 O 0.1062 0.208 0.73067 0.0
O376 O 0.09776 0.17729 0.67701 0.0
O377 O 0.10658 0.18352 0.70339 0.0
Co378 Co 0.81007 0.08553 0.68119 0.0
O379 O 0.82097 0.06335 0.68598 0.0
O380 O 0.79856 0.06693 0.66812 0.0
C381 C 0.83508 0.10129 0.67744 0.0
O382 O 0.79576 0.10667 0.67302 0.0
Co383 Co 0.8165 0.11591 0.70757 0.0
O384 O 0.80332 0.12961 0.68989 0.0
C385 C 0.79227 0.0876 0.71691 0.0
C386 C 0.80952 0.05629 0.67566 0.0
C387 C 0.79474 0.12301 0.67718 0.0
O388 O 0.79311 0.08172 0.70117 0.0
O389 O 0.80204 0.09996 0.72259 0.0
O390 O 0.82883 0.09194 0.66468 0.0
O391 O 0.82722 0.09913 0.69218 0.0
Co392 Co 0.92452 0.19897 0.32517 0.0
O393 O 0.94671 0.18758 0.32167 0.0
O394 O 0.94205 0.20884 0.34066 0.0
C395 C 0.90751 0.17456 0.32548 0.0
O396 O 0.90343 0.21352 0.33253 0.0
Co397 Co 0.89577 0.19595 0.29635 0.0
O398 O 0.88127 0.2086 0.31377 0.0
C399 C 0.92625 0.21864 0.29062 0.0
C400 C 0.95305 0.19811 0.33337 0.0
C401 C 0.88749 0.21577 0.32749 0.0
O402 O 0.93067 0.21704 0.30679 0.0
O403 O 0.91403 0.20967 0.28351 0.0
O404 O 0.91583 0.17928 0.33956 0.0
O405 O 0.91134 0.18347 0.31173 0.0
Co406 Co 0.80589 0.92336 0.32778 0.0
O407 O 0.81758 0.94543 0.32425 0.0
O408 O 0.79562 0.94124 0.34254 0.0
C409 C 0.83039 0.90644 0.32894 0.0
O410 O 0.79082 0.90257 0.33532 0.0
Co411 Co 0.8096 0.89346 0.30027 0.0
O412 O 0.79619 0.87967 0.31768 0.0
C413 C 0.78934 0.92508 0.29197 0.0
C414 C 0.80667 0.95205 0.33542 0.0
C415 C 0.78863 0.88645 0.3309 0.0
O416 O 0.78887 0.92934 0.30826 0.0
O417 O 0.7987 0.91254 0.28607 0.0
O418 O 0.82525 0.91474 0.34288 0.0
O419 O 0.82158 0.90991 0.31508 0.0
Co420 Co 0.08682 0.80988 0.33035 0.0
O421 O 0.06445 0.82107 0.32716 0.0
O422 O 0.06866 0.79717 0.34281 0.0
C423 C 0.10261 0.8346 0.3357 0.0
O424 O 0.10795 0.79493 0.33708 0.0
Co425 Co 0.11758 0.81829 0.30494 0.0
O426 O 0.13122 0.80319 0.32105 0.0
C427 C 0.08807 0.7967 0.29289 0.0
C428 C 0.05777 0.80872 0.33669 0.0
C429 C 0.12428 0.79389 0.33303 0.0
O430 O 0.08259 0.795 0.30873 0.0
O431 O 0.10049 0.80705 0.28857 0.0
O432 O 0.09371 0.82731 0.34824 0.0
O433 O 0.10023 0.82776 0.32052 0.0
Co434 Co 0.2019 0.08754 0.33004 0.0
O435 O 0.18911 0.06768 0.32152 0.0
O436 O 0.20988 0.06618 0.34152 0.0
C437 C 0.17831 0.10527 0.33374 0.0
O438 O 0.21741 0.10583 0.34211 0.0
Co439 Co 0.20101 0.12144 0.30742 0.0
O440 O 0.21267 0.13144 0.32834 0.0
C441 C 0.22229 0.09161 0.296 0.0
C442 C 0.19838 0.05805 0.33191 0.0
C443 C 0.21959 0.12252 0.34064 0.0
O444 O 0.22008 0.08425 0.31098 0.0
O445 O 0.21425 0.10552 0.29134 0.0
O446 O 0.18243 0.0939 0.34569 0.0
O447 O 0.18734 0.10414 0.31957 0.0
Co448 Co 0.67914 0.92724 0.81006 0.0
O449 O 0.68418 0.94938 0.82093 0.0
O450 O 0.66614 0.94595 0.79864 0.0
C451 C 0.67541 0.91141 0.83504 0.0
O452 O 0.67066 0.90613 0.79589 0.0
Co453 Co 0.70543 0.89674 0.81642 0.0
O454 O 0.68713 0.88311 0.80402 0.0
C455 C 0.71486 0.92496 0.79215 0.0
C456 C 0.67384 0.95653 0.80956 0.0
C457 C 0.67446 0.88969 0.79537 0.0
O458 O 0.69912 0.93089 0.79297 0.0
O459 O 0.72049 0.91262 0.80195 0.0
O460 O 0.66267 0.92088 0.82894 0.0
O461 O 0.69011 0.91358 0.82711 0.0
Co462 Co 0.08895 0.67849 0.80581 0.0
O463 O 0.06674 0.68262 0.81689 0.0
O464 O 0.07047 0.66581 0.79372 0.0
C465 C 0.10449 0.67406 0.83089 0.0
O466 O 0.10999 0.6708 0.79118 0.0
Co467 Co 0.12 0.70389 0.81333 0.0
O468 O 0.1334 0.68676 0.79924 0.0
C469 C 0.09072 0.71538 0.79111 0.0
C470 C 0.05978 0.6727 0.80502 0.0
C471 C 0.12641 0.67456 0.79025 0.0
O472 O 0.08507 0.69953 0.79001 0.0
O473 O 0.10316 0.71996 0.80133 0.0
O474 O 0.09554 0.66129 0.82407 0.0
O475 O 0.1024 0.68891 0.82329 0.0
Co476 Co 0.32942 0.08414 0.80647 0.0
O477 O 0.3212 0.06477 0.82027 0.0
O478 O 0.33982 0.06243 0.79832 0.0
C479 C 0.33453 0.10241 0.82939 0.0
O480 O 0.34131 0.10127 0.78964 0.0
Co481 Co 0.309 0.11945 0.80704 0.0
O482 O 0.32797 0.1275 0.79135 0.0
C483 C 0.29379 0.08851 0.79004 0.0
C484 C 0.3307 0.05473 0.81046 0.0
C485 C 0.33977 0.11747 0.7852 0.0
O486 O 0.30885 0.08095 0.78991 0.0
O487 O 0.29083 0.10281 0.79819 0.0
O488 O 0.34621 0.09083 0.82507 0.0
O489 O 0.32015 0.10148 0.82074 0.0
Co490 Co 0.92307 0.32175 0.80854 0.0
O491 O 0.94355 0.31718 0.82236 0.0
O492 O 0.9428 0.33583 0.80034 0.0
C493 C 0.90421 0.32346 0.83162 0.0
O494 O 0.9038 0.33 0.79174 0.0
Co495 Co 0.89245 0.29458 0.81011 0.0
O496 O 0.88051 0.31224 0.79536 0.0
C497 C 0.925 0.28597 0.7916 0.0
C498 C 0.95189 0.32822 0.81259 0.0
C499 C 0.8879 0.32542 0.78827 0.0
O500 O 0.92978 0.30215 0.79187 0.0
O501 O 0.91178 0.28016 0.80005 0.0
O502 O 0.9134 0.3371 0.82722 0.0
O503 O 0.9079 0.30956 0.82302 0.0
Co504 Co 0.68235 0.08885 0.20418 0.0
O505 O 0.68856 0.06697 0.19305 0.0
O506 O 0.66733 0.07021 0.21236 0.0
C507 C 0.6833 0.10592 0.17973 0.0
O508 O 0.67144 0.10873 0.21817 0.0
Co509 Co 0.70737 0.12094 0.20466 0.0
O510 O 0.68787 0.13305 0.21679 0.0
C511 C 0.71524 0.08999 0.22624 0.0
C512 C 0.6762 0.05981 0.20228 0.0
C513 C 0.67427 0.12489 0.22193 0.0
O514 O 0.69967 0.08399 0.22377 0.0
O515 O 0.72131 0.10329 0.2181 0.0
O516 O 0.66944 0.09662 0.18309 0.0
O517 O 0.69619 0.10346 0.19027 0.0
Co518 Co 0.92504 0.68947 0.20272 0.0
O519 O 0.94557 0.69578 0.18967 0.0
O520 O 0.94518 0.67563 0.21031 0.0
C521 C 0.90661 0.6886 0.17916 0.0
O522 O 0.90591 0.67942 0.21869 0.0
Co523 Co 0.89352 0.71556 0.20237 0.0
O524 O 0.88216 0.69671 0.2161 0.0
C525 C 0.92508 0.72381 0.2228 0.0
C526 C 0.95419 0.68444 0.19883 0.0
C527 C 0.88993 0.68337 0.22246 0.0
O528 O 0.93071 0.70802 0.22091 0.0
O529 O 0.91176 0.72981 0.21463 0.0
O530 O 0.91626 0.67508 0.18287 0.0
O531 O 0.90961 0.70205 0.18872 0.0
Co532 Co 0.32642 0.92483 0.20192 0.0
O533 O 0.3183 0.9449 0.18908 0.0
O534 O 0.3399 0.94569 0.20818 0.0
C535 C 0.32643 0.90591 0.17878 0.0
O536 O 0.33842 0.9063 0.21725 0.0
Co537 Co 0.30157 0.89244 0.20426 0.0
O538 O 0.32207 0.88178 0.21606 0.0
C539 C 0.29381 0.92404 0.22463 0.0
C540 C 0.32985 0.95416 0.19732 0.0
C541 C 0.3356 0.89011 0.22123 0.0
O542 O 0.30919 0.93011 0.2214 0.0
O543 O 0.2876 0.91034 0.2173 0.0
O544 O 0.33968 0.91631 0.18126 0.0
O545 O 0.31349 0.90859 0.18914 0.0
Co546 Co 0.08435 0.32457 0.20021 0.0
O547 O 0.06403 0.31914 0.18651 0.0
O548 O 0.06374 0.33639 0.20963 0.0
C549 C 0.10246 0.32968 0.17713 0.0
O550 O 0.10338 0.33327 0.21708 0.0
Co551 Co 0.11679 0.3 0.19617 0.0
O552 O 0.12787 0.31796 0.21121 0.0
C553 C 0.08583 0.28783 0.21538 0.0
C554 C 0.05504 0.32886 0.19705 0.0
C555 C 0.11978 0.32996 0.21951 0.0
O556 O 0.07968 0.30352 0.21577 0.0
O557 O 0.09926 0.2835 0.2064 0.0
O558 O 0.09209 0.34198 0.18259 0.0
O559 O 0.10016 0.3148 0.18457 0.0
Co560 Co 0.8091 0.68523 0.92242 0.0
O561 O 0.82178 0.69345 0.94251 0.0
O562 O 0.8031 0.67142 0.94305 0.0
C563 C 0.83222 0.68579 0.90363 0.0
O564 O 0.79405 0.67296 0.90391 0.0
Co565 Co 0.80616 0.70984 0.88993 0.0
O566 O 0.79502 0.689 0.87922 0.0
C567 C 0.78584 0.71735 0.92167 0.0
C568 C 0.81384 0.68154 0.95159 0.0
C569 C 0.79012 0.67547 0.88767 0.0
O570 O 0.7893 0.70204 0.92778 0.0
O571 O 0.79299 0.7236 0.9079 0.0
O572 O 0.82998 0.67244 0.91393 0.0
O573 O 0.82158 0.69851 0.90625 0.0
Co574 Co 0.80867 0.32642 0.0852 0.0
O575 O 0.82163 0.31846 0.06513 0.0
O576 O 0.7992 0.3366 0.06389 0.0
C577 C 0.83248 0.33212 0.10221 0.0
O578 O 0.79253 0.33812 0.10306 0.0
Co579 Co 0.81163 0.30681 0.12085 0.0
O580 O 0.79803 0.32699 0.12972 0.0
C581 C 0.79278 0.29068 0.0913 0.0
C582 C 0.81119 0.32785 0.0556 0.0
C583 C 0.79026 0.33789 0.11976 0.0
O584 O 0.79241 0.30542 0.08308 0.0
O585 O 0.80146 0.28829 0.10542 0.0
O586 O 0.82725 0.34368 0.09086 0.0
O587 O 0.82407 0.31758 0.10183 0.0
Co588 Co 0.69124 0.81306 0.0858 0.0
O589 O 0.69673 0.82677 0.06541 0.0
O590 O 0.68065 0.8028 0.06496 0.0
C591 C 0.68411 0.83599 0.10341 0.0
O592 O 0.68259 0.79587 0.10453 0.0
Co593 Co 0.71387 0.81845 0.11942 0.0
O594 O 0.69682 0.80184 0.12968 0.0
C595 C 0.72855 0.79963 0.0893 0.0
C596 C 0.68781 0.81561 0.0563 0.0
C597 C 0.68554 0.79317 0.12094 0.0
O598 O 0.71326 0.79859 0.08223 0.0
O599 O 0.73172 0.80878 0.10294 0.0
O600 O 0.67263 0.82974 0.09253 0.0
O601 O 0.6995 0.82939 0.10193 0.0
Co602 Co 0.19948 0.68882 0.08639 0.0
O603 O 0.18589 0.69529 0.0662 0.0
O604 O 0.20904 0.67814 0.06526 0.0
C605 C 0.17616 0.68276 0.10407 0.0
O606 O 0.21646 0.67902 0.10475 0.0
Co607 Co 0.19549 0.71092 0.12056 0.0
O608 O 0.21186 0.69326 0.13015 0.0
C609 C 0.21467 0.72537 0.09047 0.0
C610 C 0.19654 0.68606 0.05681 0.0
C611 C 0.21975 0.6817 0.12109 0.0
O612 O 0.215 0.71022 0.08306 0.0
O613 O 0.20576 0.72861 0.10424 0.0
O614 O 0.18181 0.67101 0.09315 0.0
O615 O 0.18372 0.69769 0.10274 0.0
Co616 Co 0.33374 0.20067 0.08384 0.0
O617 O 0.32927 0.18948 0.06175 0.0
O618 O 0.34714 0.2119 0.06533 0.0
C619 C 0.33693 0.17578 0.09997 0.0
O620 O 0.3418 0.21523 0.10477 0.0
Co621 Co 0.30727 0.19487 0.11429 0.0
O622 O 0.32511 0.20797 0.1279 0.0
C623 C 0.29799 0.2184 0.08533 0.0
C624 C 0.33976 0.2008 0.05472 0.0
C625 C 0.33782 0.2164 0.12111 0.0
O626 O 0.31379 0.21765 0.07955 0.0
O627 O 0.29235 0.20879 0.09782 0.0
O628 O 0.34999 0.1818 0.09088 0.0
O629 O 0.32238 0.18386 0.09747 0.0
Co630 Co 0.19984 0.32369 0.92622 0.0
O631 O 0.18861 0.3188 0.94827 0.0
O632 O 0.20921 0.33871 0.9444 0.0
C633 C 0.17524 0.32369 0.90935 0.0
O634 O 0.21421 0.33267 0.90558 0.0
Co635 Co 0.19791 0.29645 0.89597 0.0
O636 O 0.21031 0.31488 0.88249 0.0
C637 C 0.21994 0.28953 0.92672 0.0
C638 C 0.19881 0.33053 0.95511 0.0
C639 C 0.21689 0.32854 0.88946 0.0
O640 O 0.21841 0.30556 0.93161 0.0
O641 O 0.21113 0.28292 0.91412 0.0
O642 O 0.17954 0.33764 0.9181 0.0
O643 O 0.18483 0.31024 0.91247 0.0
Co644 Co 0.68008 0.20369 0.92545 0.0
O645 O 0.68604 0.19015 0.94571 0.0
O646 O 0.66805 0.21271 0.94611 0.0
C647 C 0.67565 0.18044 0.90732 0.0
O648 O 0.67088 0.22037 0.90658 0.0
Co649 Co 0.70491 0.20047 0.89312 0.0
O650 O 0.68722 0.2161 0.88238 0.0
C651 C 0.716 0.22105 0.92361 0.0
C652 C 0.67604 0.20038 0.95475 0.0
C653 C 0.67476 0.22368 0.89049 0.0
O654 O 0.70046 0.2201 0.93005 0.0
O655 O 0.72086 0.21238 0.91016 0.0
O656 O 0.66323 0.18554 0.91774 0.0
O657 O 0.69032 0.18836 0.90958 0.0
Co658 Co 0.32611 0.81219 0.92566 0.0
O659 O 0.32038 0.82484 0.94651 0.0
O660 O 0.3391 0.8029 0.94563 0.0
C661 C 0.32934 0.836 0.90812 0.0
O662 O 0.33523 0.79658 0.90591 0.0
Co663 Co 0.30013 0.81552 0.89428 0.0
O664 O 0.31882 0.80232 0.88208 0.0
C665 C 0.29087 0.79345 0.92434 0.0
C666 C 0.33099 0.81467 0.9549 0.0
C667 C 0.33159 0.79456 0.88954 0.0
O668 O 0.30652 0.79494 0.93037 0.0
O669 O 0.28521 0.8022 0.91123 0.0
O670 O 0.34216 0.83096 0.91809 0.0
O671 O 0.31488 0.82774 0.91058 0.0
Co672 Co 0.59001 0.69859 0.82472 0.0
O673 O 0.56926 0.68528 0.81985 0.0
O674 O 0.56985 0.7087 0.83667 0.0
C675 C 0.60763 0.67514 0.82993 0.0
O676 O 0.60948 0.71526 0.83282 0.0
Co677 Co 0.62208 0.69351 0.79993 0.0
O678 O 0.63368 0.70893 0.81724 0.0
C679 C 0.59136 0.71321 0.78777 0.0
C680 C 0.5607 0.69626 0.82945 0.0
C681 C 0.62583 0.71752 0.82919 0.0
O682 O 0.58532 0.71386 0.80348 0.0
O683 O 0.60464 0.70401 0.78345 0.0
O684 O 0.59768 0.68115 0.84232 0.0
O685 O 0.6053 0.6824 0.81496 0.0
Co686 Co 0.31021 0.59015 0.8305 0.0
O687 O 0.32332 0.56978 0.8236 0.0
O688 O 0.303 0.56986 0.8441 0.0
C689 C 0.3334 0.60898 0.8314 0.0
O690 O 0.29428 0.60872 0.84138 0.0
Co691 Co 0.30892 0.62249 0.80567 0.0
O692 O 0.29526 0.63315 0.82496 0.0
C693 C 0.28969 0.59048 0.79652 0.0
C694 C 0.31427 0.56099 0.83495 0.0
C695 C 0.28981 0.62469 0.83827 0.0
O696 O 0.29178 0.58457 0.81217 0.0
O697 O 0.29733 0.60425 0.79085 0.0
O698 O 0.33018 0.59885 0.84469 0.0
O699 O 0.32364 0.6062 0.818 0.0
Co700 Co 0.41784 0.30897 0.82862 0.0
O701 O 0.43938 0.32089 0.82256 0.0
O702 O 0.43708 0.29978 0.84216 0.0
C703 C 0.40045 0.33316 0.83023 0.0
O704 O 0.39855 0.29376 0.83911 0.0
Co705 Co 0.38471 0.30998 0.80503 0.0
O706 O 0.37343 0.29653 0.82414 0.0
C707 C 0.41625 0.29103 0.79363 0.0
C708 C 0.44707 0.31061 0.83372 0.0
C709 C 0.38222 0.29028 0.83685 0.0
O710 O 0.42241 0.29127 0.80932 0.0
O711 O 0.40256 0.29947 0.78903 0.0
O712 O 0.41026 0.32886 0.84348 0.0
O713 O 0.40256 0.32366 0.81654 0.0
Co714 Co 0.69939 0.42382 0.82571 0.0
O715 O 0.68696 0.44419 0.81773 0.0
O716 O 0.70603 0.44425 0.83943 0.0
C717 C 0.67607 0.40518 0.82538 0.0
O718 O 0.71443 0.40518 0.83768 0.0
Co719 Co 0.70174 0.3914 0.801 0.0
O720 O 0.71388 0.3807 0.8213 0.0
C721 C 0.72214 0.42302 0.79326 0.0
C722 C 0.69546 0.45307 0.82941 0.0
C723 C 0.71876 0.38912 0.83487 0.0
O724 O 0.71902 0.42901 0.80867 0.0
O725 O 0.7147 0.40938 0.78703 0.0
O726 O 0.67853 0.41547 0.83872 0.0
O727 O 0.68659 0.40779 0.81256 0.0
Co728 Co 0.58777 0.30885 0.18431 0.0
O729 O 0.56608 0.32052 0.19001 0.0
O730 O 0.56926 0.30076 0.16915 0.0
C731 C 0.60543 0.33279 0.18513 0.0
O732 O 0.60747 0.29427 0.174 0.0
Co733 Co 0.61941 0.30797 0.20992 0.0
O734 O 0.63148 0.295 0.19095 0.0
C735 C 0.5876 0.28773 0.21767 0.0
C736 C 0.55894 0.31114 0.17775 0.0
C737 C 0.62342 0.29002 0.17723 0.0
O738 O 0.58217 0.28973 0.20184 0.0
O739 O 0.60091 0.29576 0.22387 0.0
O740 O 0.59621 0.3295 0.17119 0.0
O741 O 0.60248 0.32256 0.19815 0.0
Co742 Co 0.70736 0.58811 0.18045 0.0
O743 O 0.6961 0.56634 0.18666 0.0
O744 O 0.71655 0.56914 0.16645 0.0
C745 C 0.6828 0.60502 0.17961 0.0
O746 O 0.7217 0.60792 0.16988 0.0
Co747 Co 0.70616 0.62056 0.20498 0.0
O748 O 0.71912 0.63245 0.18586 0.0
C749 C 0.72769 0.5901 0.21448 0.0
C750 C 0.70611 0.55891 0.17513 0.0
C751 C 0.72505 0.62418 0.17267 0.0
O752 O 0.72605 0.58385 0.19891 0.0
O753 O 0.71909 0.60337 0.21993 0.0
O754 O 0.68691 0.59538 0.16621 0.0
O755 O 0.69262 0.60286 0.1931 0.0
Co756 Co 0.42702 0.69602 0.17864 0.0
O757 O 0.4473 0.68305 0.18607 0.0
O758 O 0.44781 0.70428 0.1665 0.0
C759 C 0.40875 0.6727 0.17524 0.0
O760 O 0.40867 0.712 0.16757 0.0
Co761 Co 0.3937 0.69533 0.20211 0.0
O762 O 0.3837 0.70986 0.18307 0.0
C763 C 0.4241 0.71622 0.21288 0.0
C764 C 0.45643 0.69273 0.17555 0.0
C765 C 0.39255 0.71608 0.17036 0.0
O766 O 0.43114 0.71392 0.19777 0.0
O767 O 0.41025 0.70826 0.21785 0.0
O768 O 0.41976 0.67683 0.16296 0.0
O769 O 0.41053 0.68149 0.18949 0.0
Co770 Co 0.30517 0.4226 0.18676 0.0
O771 O 0.31629 0.44493 0.19059 0.0
O772 O 0.29488 0.44038 0.17174 0.0
C773 C 0.33007 0.40624 0.18597 0.0
O774 O 0.2909 0.4013 0.17882 0.0
Co775 Co 0.30925 0.39299 0.21459 0.0
O776 O 0.29747 0.37867 0.19646 0.0
C777 C 0.28747 0.42373 0.22218 0.0
C778 C 0.30565 0.45137 0.17905 0.0
C779 C 0.28974 0.38501 0.1831 0.0
O780 O 0.28751 0.4281 0.20589 0.0
O781 O 0.29698 0.41146 0.2284 0.0
O782 O 0.32498 0.41459 0.17203 0.0
O783 O 0.32104 0.4095 0.19974 0.0
Co784 Co 0.83622 0.5832 0.69975 0.0
O785 O 0.82961 0.56165 0.68833 0.0
O786 O 0.84965 0.56388 0.70907 0.0
C787 C 0.83805 0.60022 0.67536 0.0
O788 O 0.84693 0.60278 0.71433 0.0
Co789 Co 0.81174 0.61561 0.69822 0.0
O790 O 0.83061 0.62712 0.71191 0.0
C791 C 0.80214 0.58552 0.72008 0.0
C792 C 0.8408 0.5539 0.6985 0.0
C793 C 0.84384 0.61892 0.71791 0.0
O794 O 0.81763 0.57919 0.71824 0.0
O795 O 0.79661 0.59878 0.71151 0.0
O796 O 0.851 0.59012 0.67976 0.0
O797 O 0.82414 0.59831 0.68467 0.0
Co798 Co 0.42358 0.82696 0.70553 0.0
O799 O 0.44535 0.82082 0.69431 0.0
O800 O 0.44241 0.84151 0.71424 0.0
C801 C 0.40656 0.82712 0.68107 0.0
O802 O 0.40353 0.83742 0.71966 0.0
Co803 Co 0.39191 0.80138 0.70486 0.0
O804 O 0.37954 0.82054 0.71724 0.0
C805 C 0.42233 0.79355 0.72707 0.0
C806 C 0.45268 0.83276 0.70392 0.0
C807 C 0.38735 0.83413 0.72297 0.0
O808 O 0.42825 0.80916 0.7247 0.0
O809 O 0.40922 0.78737 0.71869 0.0
O810 O 0.4161 0.84068 0.68491 0.0
O811 O 0.40899 0.81375 0.69101 0.0
Co812 Co 0.18709 0.41912 0.70586 0.0
O813 O 0.1937 0.4405 0.69395 0.0
O814 O 0.17355 0.43853 0.71456 0.0
C815 C 0.18582 0.40164 0.68175 0.0
O816 O 0.17589 0.40015 0.72088 0.0
Co817 Co 0.20997 0.38558 0.70585 0.0
O818 O 0.19058 0.3748 0.71932 0.0
C819 C 0.22149 0.41701 0.72497 0.0
C820 C 0.18231 0.44835 0.70383 0.0
C821 C 0.17781 0.38392 0.72488 0.0
O822 O 0.20597 0.42353 0.72408 0.0
O823 O 0.22603 0.40315 0.71679 0.0
O824 O 0.17261 0.41162 0.68569 0.0
O825 O 0.19933 0.40355 0.69159 0.0
Co826 Co 0.58762 0.18512 0.70201 0.0
O827 O 0.5653 0.18892 0.69085 0.0
O828 O 0.56904 0.17332 0.71485 0.0
C829 C 0.60298 0.17893 0.67718 0.0
O830 O 0.60868 0.17783 0.71692 0.0
Co831 Co 0.6192 0.20933 0.69284 0.0
O832 O 0.63241 0.19259 0.7076 0.0
C833 C 0.59061 0.22271 0.71495 0.0
C834 C 0.55833 0.1796 0.70319 0.0
C835 C 0.62523 0.18114 0.71738 0.0
O836 O 0.58429 0.20715 0.71666 0.0
O837 O 0.60317 0.22636 0.7045 0.0
O838 O 0.59376 0.16678 0.68473 0.0
O839 O 0.60118 0.19424 0.68387 0.0
Co840 Co 0.82871 0.42208 0.30795 0.0
O841 O 0.82332 0.44406 0.3194 0.0
O842 O 0.84005 0.4413 0.29604 0.0
C843 C 0.83458 0.40621 0.3325 0.0
O844 O 0.83818 0.40237 0.29266 0.0
Co845 Co 0.80734 0.38799 0.31387 0.0
O846 O 0.8252 0.37674 0.29879 0.0
C847 C 0.79192 0.41734 0.29412 0.0
C848 C 0.83288 0.45156 0.3075 0.0
C849 C 0.83651 0.38576 0.29051 0.0
O850 O 0.80707 0.42465 0.29262 0.0
O851 O 0.7892 0.40389 0.30371 0.0
O852 O 0.8465 0.41644 0.32591 0.0
O853 O 0.81955 0.40712 0.325 0.0
Co854 Co 0.58614 0.81967 0.30708 0.0
O855 O 0.56554 0.8108 0.31847 0.0
O856 O 0.56543 0.83285 0.29988 0.0
C857 C 0.6036 0.81983 0.33132 0.0
O858 O 0.60525 0.83259 0.29335 0.0
Co859 Co 0.61943 0.79599 0.30637 0.0
O860 O 0.63041 0.81798 0.29807 0.0
C861 C 0.58956 0.7877 0.28355 0.0
C862 C 0.55657 0.82248 0.3101 0.0
C863 C 0.62203 0.83111 0.29205 0.0
O864 O 0.58256 0.80266 0.28694 0.0
O865 O 0.60314 0.78193 0.29145 0.0
O866 O 0.59295 0.83277 0.32843 0.0
O867 O 0.60193 0.80696 0.32064 0.0
Co868 Co 0.185 0.58906 0.31144 0.0
O869 O 0.19213 0.56894 0.32488 0.0
O870 O 0.17148 0.5686 0.30467 0.0
C871 C 0.1842 0.6082 0.33431 0.0
O872 O 0.1737 0.60716 0.29523 0.0
Co873 Co 0.20899 0.62205 0.30938 0.0
O874 O 0.18946 0.63204 0.29558 0.0
C875 C 0.21917 0.58944 0.29173 0.0
C876 C 0.18072 0.55997 0.31606 0.0
C877 C 0.17633 0.62312 0.29043 0.0
O878 O 0.2035 0.58338 0.29321 0.0
O879 O 0.22433 0.60349 0.29921 0.0
O880 O 0.17089 0.59799 0.33138 0.0
O881 O 0.19744 0.60545 0.32439 0.0
Co882 Co 0.42183 0.18633 0.30571 0.0
O883 O 0.44171 0.19375 0.3193 0.0
O884 O 0.44314 0.17538 0.29709 0.0
C885 C 0.40384 0.1814 0.32894 0.0
O886 O 0.40402 0.17511 0.28904 0.0
Co887 Co 0.38689 0.20735 0.30728 0.0
O888 O 0.37784 0.18816 0.29244 0.0
C889 C 0.41775 0.22223 0.28969 0.0
C890 C 0.4513 0.18397 0.30932 0.0
C891 C 0.38757 0.17654 0.2855 0.0
O892 O 0.42521 0.2071 0.28938 0.0
O893 O 0.40359 0.22524 0.29806 0.0
O894 O 0.41503 0.16948 0.32426 0.0
O895 O 0.40499 0.19583 0.32043 0.0
Co896 Co 0.70213 0.82744 0.58856 0.0
O897 O 0.69062 0.82385 0.56642 0.0
O898 O 0.71435 0.83992 0.57008 0.0
C899 C 0.67754 0.83266 0.60452 0.0
O900 O 0.71727 0.83458 0.6095 0.0
Co901 Co 0.69421 0.80216 0.61963 0.0
O902 O 0.70893 0.81884 0.63295 0.0
C903 C 0.71543 0.79003 0.58995 0.0
C904 C 0.70265 0.83358 0.55946 0.0
C905 C 0.71822 0.83078 0.62591 0.0
O906 O 0.71715 0.80587 0.58441 0.0
O907 O 0.70516 0.78578 0.60246 0.0
O908 O 0.68456 0.8452 0.59539 0.0
O909 O 0.68455 0.81756 0.60223 0.0
Co910 Co 0.69974 0.19005 0.42422 0.0
O911 O 0.68613 0.19638 0.44439 0.0
O912 O 0.70724 0.17673 0.44468 0.0
C913 C 0.67661 0.18833 0.4054 0.0
O914 O 0.71631 0.1801 0.40559 0.0
Co915 Co 0.69943 0.21554 0.39217 0.0
O916 O 0.71399 0.19698 0.3815 0.0
C917 C 0.71843 0.22502 0.42425 0.0
C918 C 0.69544 0.18543 0.45335 0.0
C919 C 0.72041 0.1839 0.38965 0.0
O920 O 0.71729 0.2092 0.42995 0.0
O921 O 0.71029 0.23051 0.41069 0.0
O922 O 0.68041 0.17503 0.4153 0.0
O923 O 0.68583 0.20203 0.40835 0.0
Co924 Co 0.82323 0.70164 0.42444 0.0
O925 O 0.81501 0.68824 0.4442 0.0
O926 O 0.83536 0.70867 0.44568 0.0
C927 C 0.82541 0.67864 0.40552 0.0
O928 O 0.83566 0.71782 0.407 0.0
Co929 Co 0.80193 0.70329 0.38962 0.0
O930 O 0.82301 0.71533 0.38057 0.0
C931 C 0.78887 0.72073 0.42139 0.0
C932 C 0.82579 0.69719 0.45381 0.0
C933 C 0.83503 0.72128 0.39049 0.0
O934 O 0.80404 0.7196 0.42873 0.0
O935 O 0.7851 0.7133 0.40689 0.0
O936 O 0.83805 0.68173 0.41653 0.0
O937 O 0.812 0.68853 0.40734 0.0
Co938 Co 0.31047 0.82945 0.42183 0.0
O939 O 0.32184 0.82591 0.44404 0.0
O940 O 0.29919 0.84333 0.43988 0.0
C941 C 0.33514 0.83269 0.40548 0.0
O942 O 0.29569 0.83662 0.40076 0.0
Co943 Co 0.31633 0.80235 0.39202 0.0
O944 O 0.30263 0.81936 0.37797 0.0
C945 C 0.29277 0.79358 0.42116 0.0
C946 C 0.31048 0.83658 0.4507 0.0
C947 C 0.29421 0.83214 0.38457 0.0
O948 O 0.29378 0.80941 0.42681 0.0
O949 O 0.30219 0.78776 0.40861 0.0
O950 O 0.32896 0.84584 0.4143 0.0
O951 O 0.32741 0.818 0.40839 0.0
Co952 Co 0.17762 0.31487 0.42703 0.0
O953 O 0.18309 0.32694 0.44833 0.0
O954 O 0.16525 0.30431 0.44681 0.0
C955 C 0.17325 0.33917 0.41027 0.0
O956 O 0.16883 0.29971 0.40671 0.0
Co957 Co 0.20328 0.3204 0.39574 0.0
O958 O 0.18451 0.3077 0.38307 0.0
C959 C 0.21365 0.29766 0.42488 0.0
C960 C 0.17301 0.31603 0.45645 0.0
C961 C 0.17212 0.29902 0.39016 0.0
O962 O 0.19796 0.29826 0.43096 0.0
O963 O 0.21887 0.30709 0.41208 0.0
O964 O 0.16079 0.33331 0.42025 0.0
O965 O 0.18805 0.33143 0.41239 0.0
Co966 Co 0.30883 0.1856 0.58443 0.0
O967 O 0.31991 0.19285 0.56281 0.0
O968 O 0.298 0.17409 0.56473 0.0
C969 C 0.33374 0.18125 0.60024 0.0
O970 O 0.29427 0.17411 0.60362 0.0
Co971 Co 0.31278 0.20615 0.61928 0.0
O972 O 0.29902 0.18675 0.62969 0.0
C973 C 0.29199 0.22086 0.59032 0.0
C974 C 0.30884 0.18266 0.55486 0.0
C975 C 0.29179 0.17509 0.62023 0.0
O976 O 0.29174 0.2059 0.58254 0.0
O977 O 0.3013 0.22395 0.60389 0.0
O978 O 0.3282 0.16922 0.58954 0.0
O979 O 0.32499 0.19561 0.59985 0.0
Co980 Co 0.82994 0.30722 0.58461 0.0
O981 O 0.82315 0.31981 0.5641 0.0
O982 O 0.84253 0.29846 0.56412 0.0
C983 C 0.83333 0.33109 0.60195 0.0
O984 O 0.83995 0.29194 0.6043 0.0
Co985 Co 0.8043 0.3103 0.61625 0.0
O986 O 0.82407 0.29856 0.62826 0.0
C987 C 0.7951 0.28763 0.5867 0.0
C988 C 0.83382 0.31016 0.55526 0.0
C989 C 0.83686 0.29076 0.62088 0.0
O990 O 0.81063 0.28948 0.58045 0.0
O991 O 0.7894 0.29636 0.59978 0.0
O992 O 0.84587 0.3263 0.59156 0.0
O993 O 0.81892 0.3226 0.59993 0.0
Co994 Co 0.19775 0.70031 0.58897 0.0
O995 O 0.20383 0.68753 0.5682 0.0
O996 O 0.18453 0.70898 0.56896 0.0
C997 C 0.19555 0.67654 0.60679 0.0
O998 O 0.18785 0.71604 0.60834 0.0
Co999 Co 0.22283 0.69841 0.62123 0.0
O1000 O 0.20366 0.7114 0.63278 0.0
C1001 C 0.23318 0.71802 0.58982 0.0
C1002 C 0.19293 0.69739 0.55975 0.0
C1003 C 0.19088 0.71856 0.62477 0.0
O1004 O 0.21732 0.71768 0.58405 0.0
O1005 O 0.23826 0.70931 0.60317 0.0
O1006 O 0.18237 0.68091 0.59694 0.0
O1007 O 0.20945 0.68559 0.60427 0.0
Co1008 Co 0.42511 0.31203 0.18138 0.0
O1009 O 0.44466 0.32536 0.18999 0.0
O1010 O 0.44657 0.30458 0.17002 0.0
C1011 C 0.40665 0.33508 0.17768 0.0
O1012 O 0.40776 0.29583 0.16909 0.0
Co1013 Co 0.3906 0.31139 0.20294 0.0
O1014 O 0.38195 0.29688 0.18324 0.0
C1015 C 0.42109 0.29145 0.21523 0.0
C1016 C 0.45447 0.31618 0.17967 0.0
C1017 C 0.39164 0.29122 0.17091 0.0
O1018 O 0.42878 0.29395 0.20047 0.0
O1019 O 0.40678 0.29901 0.21947 0.0
O1020 O 0.41814 0.33134 0.16573 0.0
O1021 O 0.4079 0.32593 0.19177 0.0
Co1022 Co 0.70253 0.42503 0.18518 0.0
O1023 O 0.68974 0.44564 0.19157 0.0
O1024 O 0.71208 0.44558 0.17332 0.0
C1025 C 0.67868 0.40777 0.18051 0.0
O1026 O 0.71847 0.40574 0.17558 0.0
Co1027 Co 0.69835 0.39253 0.20961 0.0
O1028 O 0.71314 0.38142 0.19146 0.0
C1029 C 0.7207 0.42182 0.22071 0.0
C1030 C 0.70012 0.45449 0.18156 0.0
C1031 C 0.72104 0.38943 0.17912 0.0
O1032 O 0.71932 0.42879 0.20542 0.0
O1033 O 0.71181 0.40847 0.22551 0.0
O1034 O 0.68414 0.41827 0.16831 0.0
O1035 O 0.6866 0.40949 0.19526 0.0
Co1036 Co 0.59028 0.70145 0.17467 0.0
O1037 O 0.56879 0.68932 0.18043 0.0
O1038 O 0.5707 0.71193 0.16255 0.0
C1039 C 0.60709 0.67719 0.17037 0.0
O1040 O 0.60956 0.71713 0.16477 0.0
Co1041 Co 0.62414 0.69779 0.19695 0.0
O1042 O 0.63513 0.71212 0.17833 0.0
C1043 C 0.59366 0.71691 0.21084 0.0
C1044 C 0.56087 0.70042 0.17027 0.0
C1045 C 0.6261 0.71976 0.16657 0.0
O1046 O 0.58673 0.71764 0.19547 0.0
O1047 O 0.60737 0.70794 0.21428 0.0
O1048 O 0.59691 0.68283 0.15793 0.0
O1049 O 0.60568 0.68547 0.18493 0.0
Co1050 Co 0.3062 0.58535 0.18231 0.0
O1051 O 0.31874 0.56537 0.19107 0.0
O1052 O 0.29977 0.56434 0.16933 0.0
C1053 C 0.3296 0.60393 0.18195 0.0
O1054 O 0.29114 0.60349 0.1695 0.0
Co1055 Co 0.30384 0.61892 0.20539 0.0
O1056 O 0.29311 0.62901 0.18403 0.0
C1057 C 0.2836 0.58756 0.2148 0.0
C1058 C 0.3105 0.556 0.1796 0.0
C1059 C 0.28777 0.61996 0.17106 0.0
O1060 O 0.28664 0.58079 0.19968 0.0
O1061 O 0.29091 0.60161 0.22022 0.0
O1062 O 0.32706 0.59319 0.169 0.0
O1063 O 0.31902 0.60191 0.19483 0.0
Co1064 Co 0.42693 0.70463 0.83358 0.0
O1065 O 0.44842 0.69276 0.82742 0.0
O1066 O 0.44664 0.71536 0.84532 0.0
C1067 C 0.41027 0.68031 0.83823 0.0
O1068 O 0.40771 0.72003 0.84384 0.0
Co1069 Co 0.39283 0.70066 0.81164 0.0
O1070 O 0.38213 0.71538 0.8301 0.0
C1071 C 0.4228 0.72028 0.79749 0.0
C1072 C 0.45643 0.70398 0.83738 0.0
C1073 C 0.39122 0.7228 0.84194 0.0
O1074 O 0.42991 0.72098 0.81278 0.0
O1075 O 0.40924 0.71107 0.79412 0.0
O1076 O 0.42076 0.68592 0.85043 0.0
O1077 O 0.41145 0.68854 0.82362 0.0
Co1078 Co 0.30565 0.42731 0.83726 0.0
O1079 O 0.31732 0.44893 0.83122 0.0
O1080 O 0.29567 0.4467 0.85018 0.0
C1081 C 0.33009 0.41049 0.84033 0.0
O1082 O 0.2907 0.40755 0.84726 0.0
Co1083 Co 0.30883 0.39464 0.81313 0.0
O1084 O 0.29458 0.38303 0.83146 0.0
C1085 C 0.28689 0.4243 0.80228 0.0
C1086 C 0.30673 0.45668 0.84198 0.0
C1087 C 0.28765 0.39126 0.84419 0.0
O1088 O 0.28803 0.43101 0.8177 0.0
O1089 O 0.29588 0.41109 0.79737 0.0
O1090 O 0.32502 0.42057 0.85305 0.0
O1091 O 0.32139 0.4123 0.82603 0.0
Co1092 Co 0.58119 0.31048 0.82587 0.0
O1093 O 0.56132 0.32301 0.81677 0.0
O1094 O 0.55976 0.30235 0.83689 0.0
C1095 C 0.59874 0.33424 0.82987 0.0
O1096 O 0.59889 0.29511 0.83882 0.0
Co1097 Co 0.61638 0.31108 0.8054 0.0
O1098 O 0.62535 0.29914 0.82663 0.0
C1099 C 0.58702 0.28986 0.79227 0.0
C1100 C 0.55164 0.31369 0.82712 0.0
C1101 C 0.61554 0.29248 0.83838 0.0
O1102 O 0.57869 0.29216 0.80674 0.0
O1103 O 0.60126 0.29783 0.78854 0.0
O1104 O 0.58705 0.33017 0.84151 0.0
O1105 O 0.59818 0.32498 0.81582 0.0
Co1106 Co 0.7076 0.58594 0.82067 0.0
O1107 O 0.69574 0.56401 0.81674 0.0
O1108 O 0.71762 0.56766 0.83524 0.0
C1109 C 0.68303 0.60276 0.82212 0.0
O1110 O 0.72265 0.60662 0.82873 0.0
Co1111 Co 0.70366 0.61647 0.79379 0.0
O1112 O 0.71681 0.62988 0.81166 0.0
C1113 C 0.72449 0.58536 0.78486 0.0
C1114 C 0.7063 0.55713 0.8281 0.0
C1115 C 0.72455 0.62289 0.82469 0.0
O1116 O 0.72469 0.58041 0.80101 0.0
O1117 O 0.7151 0.59803 0.77927 0.0
O1118 O 0.68823 0.59423 0.83591 0.0
O1119 O 0.69187 0.59963 0.80822 0.0
Co1120 Co 0.17672 0.4266 0.30784 0.0
O1121 O 0.18372 0.44806 0.31922 0.0
O1122 O 0.16224 0.44589 0.30002 0.0
C1123 C 0.17746 0.40925 0.33212 0.0
O1124 O 0.16534 0.407 0.29363 0.0
Co1125 Co 0.20165 0.39438 0.30717 0.0
O1126 O 0.18168 0.38264 0.29542 0.0
C1127 C 0.20951 0.42533 0.28569 0.0
C1128 C 0.17164 0.45581 0.31016 0.0
C1129 C 0.16814 0.39078 0.29006 0.0
O1130 O 0.19397 0.43132 0.2882 0.0
O1131 O 0.21564 0.41202 0.29377 0.0
O1132 O 0.16378 0.41887 0.32895 0.0
O1133 O 0.19029 0.41163 0.32154 0.0
Co1134 Co 0.58505 0.18533 0.30839 0.0
O1135 O 0.56272 0.18877 0.31956 0.0
O1136 O 0.56685 0.17267 0.29595 0.0
C1137 C 0.60095 0.18042 0.33309 0.0
O1138 O 0.60618 0.17845 0.29349 0.0
Co1139 Co 0.61574 0.21107 0.31634 0.0
O1140 O 0.62938 0.19469 0.30159 0.0
C1141 C 0.58608 0.22259 0.29475 0.0
C1142 C 0.55598 0.1791 0.30735 0.0
C1143 C 0.62251 0.18257 0.29242 0.0
O1144 O 0.5808 0.20667 0.29318 0.0
O1145 O 0.59842 0.22716 0.3051 0.0
O1146 O 0.59197 0.16775 0.32612 0.0
O1147 O 0.5985 0.19547 0.32601 0.0
Co1148 Co 0.82929 0.586 0.30916 0.0
O1149 O 0.82096 0.56608 0.32216 0.0
O1150 O 0.83989 0.56453 0.30045 0.0
C1151 C 0.8341 0.60345 0.33288 0.0
O1152 O 0.84124 0.60396 0.29313 0.0
Co1153 Co 0.80851 0.62106 0.3111 0.0
O1154 O 0.82888 0.63022 0.29797 0.0
C1155 C 0.79412 0.59117 0.29154 0.0
C1156 C 0.83068 0.55639 0.31224 0.0
C1157 C 0.84038 0.62065 0.29061 0.0
O1158 O 0.80904 0.58334 0.29207 0.0
O1159 O 0.79086 0.60522 0.3 0.0
O1160 O 0.84583 0.59205 0.32824 0.0
O1161 O 0.81979 0.60272 0.32408 0.0
Co1162 Co 0.42263 0.82014 0.3042 0.0
O1163 O 0.44474 0.81536 0.31552 0.0
O1164 O 0.44126 0.83384 0.29363 0.0
C1165 C 0.40642 0.82228 0.32918 0.0
O1166 O 0.40203 0.82909 0.28946 0.0
Co1167 Co 0.39084 0.79489 0.30873 0.0
O1168 O 0.37802 0.81329 0.29574 0.0
C1169 C 0.42154 0.7841 0.28812 0.0
C1170 C 0.45183 0.82626 0.3046 0.0
C1171 C 0.38553 0.82591 0.28783 0.0
O1172 O 0.42702 0.80006 0.28727 0.0
O1173 O 0.40871 0.77934 0.29774 0.0
O1174 O 0.41535 0.83573 0.32373 0.0
O1175 O 0.40873 0.80829 0.32024 0.0
Co1176 Co 0.18966 0.5823 0.70114 0.0
O1177 O 0.19794 0.56234 0.68821 0.0
O1178 O 0.17859 0.56104 0.70961 0.0
C1179 C 0.18543 0.59993 0.67755 0.0
O1180 O 0.17762 0.60016 0.71704 0.0
Co1181 Co 0.21049 0.6174 0.69988 0.0
O1182 O 0.19047 0.62644 0.71359 0.0
C1183 C 0.2246 0.58715 0.71909 0.0
C1184 C 0.18786 0.5528 0.69797 0.0
C1185 C 0.17871 0.61668 0.72029 0.0
O1186 O 0.20962 0.57941 0.71849 0.0
O1187 O 0.22799 0.60123 0.71071 0.0
O1188 O 0.17348 0.58862 0.68189 0.0
O1189 O 0.19959 0.59904 0.68656 0.0
Co1190 Co 0.42429 0.18705 0.69964 0.0
O1191 O 0.44525 0.19498 0.68827 0.0
O1192 O 0.44443 0.17317 0.70714 0.0
C1193 C 0.40701 0.18747 0.67526 0.0
O1194 O 0.40458 0.17514 0.71341 0.0
Co1195 Co 0.39202 0.21218 0.6998 0.0
O1196 O 0.38013 0.19093 0.70878 0.0
C1197 C 0.42204 0.21939 0.72277 0.0
C1198 C 0.45371 0.18309 0.69685 0.0
C1199 C 0.38792 0.1775 0.71493 0.0
O1200 O 0.42841 0.2041 0.71964 0.0
O1201 O 0.40884 0.22568 0.71463 0.0
O1202 O 0.41701 0.17406 0.67832 0.0
O1203 O 0.40917 0.20028 0.6859 0.0
Co1204 Co 0.82515 0.42092 0.7015 0.0
O1205 O 0.81791 0.44085 0.68788 0.0
O1206 O 0.83851 0.44149 0.70814 0.0
C1207 C 0.82619 0.40182 0.67876 0.0
O1208 O 0.83665 0.40296 0.71779 0.0
Co1209 Co 0.8017 0.38756 0.70361 0.0
O1210 O 0.82221 0.37741 0.71575 0.0
C1211 C 0.79082 0.42035 0.72062 0.0
C1212 C 0.82932 0.44993 0.69656 0.0
C1213 C 0.83492 0.38658 0.72147 0.0
O1214 O 0.80646 0.42655 0.71949 0.0
O1215 O 0.78602 0.40609 0.71332 0.0
O1216 O 0.83941 0.41213 0.68174 0.0
O1217 O 0.81285 0.4044 0.68861 0.0
Co1218 Co 0.58633 0.82511 0.70313 0.0
O1219 O 0.5665 0.81663 0.69008 0.0
O1220 O 0.56535 0.83788 0.7096 0.0
C1221 C 0.60518 0.82607 0.68008 0.0
O1222 O 0.60396 0.83773 0.71882 0.0
Co1223 Co 0.62033 0.80273 0.7057 0.0
O1224 O 0.62944 0.823 0.71907 0.0
C1225 C 0.58847 0.79179 0.72428 0.0
C1226 C 0.55709 0.82791 0.69856 0.0
C1227 C 0.61997 0.83589 0.72376 0.0
O1228 O 0.58164 0.80704 0.72206 0.0
O1229 O 0.60266 0.78696 0.71687 0.0
O1230 O 0.59444 0.839 0.68274 0.0
O1231 O 0.60315 0.81301 0.69043 0.0
Co1232 Co 0.30732 0.19597 0.42142 0.0
O1233 O 0.32163 0.20231 0.44119 0.0
O1234 O 0.29972 0.1835 0.44223 0.0
C1235 C 0.32967 0.19272 0.40197 0.0
O1236 O 0.28996 0.18582 0.40365 0.0
Co1237 Co 0.30721 0.21988 0.38828 0.0
O1238 O 0.29176 0.20142 0.3787 0.0
C1239 C 0.29044 0.23177 0.42069 0.0
C1240 C 0.31203 0.19188 0.45051 0.0
C1241 C 0.28545 0.18886 0.38767 0.0
O1242 O 0.29076 0.21609 0.42692 0.0
O1243 O 0.29834 0.2362 0.40663 0.0
O1244 O 0.3258 0.17995 0.41255 0.0
O1245 O 0.32111 0.20688 0.40469 0.0
Co1246 Co 0.31383 0.83285 0.5845 0.0
O1247 O 0.3271 0.82555 0.56443 0.0
O1248 O 0.30562 0.84481 0.56357 0.0
C1249 C 0.33707 0.83635 0.60288 0.0
O1250 O 0.29752 0.84386 0.60259 0.0
Co1251 Co 0.31443 0.80992 0.61824 0.0
O1252 O 0.30027 0.82932 0.62804 0.0
C1253 C 0.29487 0.79807 0.58731 0.0
C1254 C 0.31738 0.83588 0.55513 0.0
C1255 C 0.29375 0.84164 0.61887 0.0
O1256 O 0.29638 0.81331 0.5803 0.0
O1257 O 0.30285 0.79358 0.60132 0.0
O1258 O 0.33288 0.84871 0.59196 0.0
O1259 O 0.32824 0.82214 0.6011 0.0
Co1260 Co 0.17907 0.30519 0.58949 0.0
O1261 O 0.18249 0.31651 0.56726 0.0
O1262 O 0.1653 0.29368 0.57135 0.0
C1263 C 0.17567 0.33001 0.60565 0.0
O1264 O 0.17206 0.29051 0.61079 0.0
Co1265 Co 0.2064 0.31189 0.61907 0.0
O1266 O 0.18925 0.29861 0.63331 0.0
C1267 C 0.21536 0.28841 0.58998 0.0
C1268 C 0.17192 0.30507 0.56056 0.0
C1269 C 0.17658 0.28973 0.62704 0.0
O1270 O 0.19937 0.28876 0.58462 0.0
O1271 O 0.2211 0.29819 0.60229 0.0
O1272 O 0.16253 0.32363 0.59692 0.0
O1273 O 0.19037 0.32235 0.60275 0.0
Co1274 Co 0.70272 0.18384 0.58707 0.0
O1275 O 0.69085 0.19014 0.56554 0.0
O1276 O 0.71159 0.17018 0.56776 0.0
C1277 C 0.67838 0.18289 0.60433 0.0
O1278 O 0.71782 0.17289 0.6062 0.0
Co1279 Co 0.70233 0.20682 0.6206 0.0
O1280 O 0.71634 0.18786 0.63141 0.0
C1281 C 0.72102 0.21854 0.58899 0.0
C1282 C 0.70085 0.17878 0.55781 0.0
C1283 C 0.72198 0.17506 0.62237 0.0
O1284 O 0.72074 0.20292 0.58263 0.0
O1285 O 0.71258 0.22295 0.60274 0.0
O1286 O 0.68242 0.16943 0.59472 0.0
O1287 O 0.6884 0.19621 0.60238 0.0
Co1288 Co 0.82476 0.70137 0.58766 0.0
O1289 O 0.81943 0.69044 0.56552 0.0
O1290 O 0.83913 0.71124 0.56914 0.0
C1291 C 0.82576 0.67644 0.60405 0.0
O1292 O 0.83407 0.71543 0.60848 0.0
Co1293 Co 0.79811 0.69812 0.61836 0.0
O1294 O 0.81699 0.70987 0.63178 0.0
C1295 C 0.79031 0.72134 0.58871 0.0
C1296 C 0.8309 0.70079 0.55851 0.0
C1297 C 0.83032 0.71713 0.62484 0.0
O1298 O 0.80615 0.71981 0.58316 0.0
O1299 O 0.7841 0.7122 0.60128 0.0
O1300 O 0.83932 0.68118 0.59493 0.0
O1301 O 0.81201 0.68577 0.60145 0.0
Co1302 Co 0.69875 0.8283 0.42562 0.0
O1303 O 0.68616 0.82061 0.44599 0.0
O1304 O 0.70679 0.84084 0.4463 0.0
C1305 C 0.67507 0.8307 0.40761 0.0
O1306 O 0.71419 0.83982 0.40707 0.0
Co1307 Co 0.69861 0.80474 0.3924 0.0
O1308 O 0.712 0.82443 0.38206 0.0
C1309 C 0.71978 0.7946 0.42285 0.0
C1310 C 0.69554 0.83149 0.45501 0.0
C1311 C 0.71797 0.83731 0.39083 0.0
O1312 O 0.71723 0.80973 0.42975 0.0
O1313 O 0.71188 0.78938 0.40905 0.0
O1314 O 0.67897 0.84325 0.41841 0.0
O1315 O 0.68443 0.81681 0.40936 0.0
Co1316 Co 0.18551 0.70514 0.42611 0.0
O1317 O 0.19231 0.69336 0.44747 0.0
O1318 O 0.17462 0.71615 0.4461 0.0
C1319 C 0.17991 0.68074 0.40997 0.0
O1320 O 0.17471 0.72048 0.4071 0.0
Co1321 Co 0.20589 0.70064 0.39119 0.0
O1322 O 0.18701 0.7152 0.38095 0.0
C1323 C 0.22164 0.72017 0.42045 0.0
C1324 C 0.18271 0.70471 0.4557 0.0
C1325 C 0.17574 0.72292 0.39047 0.0
O1326 O 0.20668 0.72118 0.42816 0.0
O1327 O 0.22425 0.71085 0.4068 0.0
O1328 O 0.16817 0.68662 0.42079 0.0
O1329 O 0.19466 0.68882 0.41048 0.0
Co1330 Co 0.83245 0.30573 0.42207 0.0
O1331 O 0.82734 0.31714 0.444 0.0
O1332 O 0.84761 0.29687 0.44029 0.0
C1333 C 0.8319 0.33007 0.40483 0.0
O1334 O 0.84207 0.29123 0.40199 0.0
Co1335 Co 0.80627 0.30597 0.39093 0.0
O1336 O 0.82463 0.29256 0.37838 0.0
C1337 C 0.79846 0.28558 0.42258 0.0
C1338 C 0.83932 0.30722 0.45088 0.0
C1339 C 0.8384 0.28718 0.38609 0.0
O1340 O 0.81448 0.28697 0.42764 0.0
O1341 O 0.79223 0.29401 0.40954 0.0
O1342 O 0.84594 0.32629 0.41371 0.0
O1343 O 0.81875 0.32003 0.40783 0.0
H1344 H 0.14206 0.25114 0.33032 0.0
H1345 H 0.11224 0.22921 0.37277 0.0
H1346 H 0.12547 0.25037 0.39307 0.0
H1347 H 0.14658 0.27468 0.3987 0.0
H1348 H 0.17487 0.29654 0.35488 0.0
H1349 H 0.16108 0.27594 0.33532 0.0
C1350 C 0.13847 0.2509 0.34403 0.0
C1351 C 0.12641 0.23844 0.35007 0.0
C1352 C 0.14585 0.26318 0.35544 0.0
C1353 C 0.12158 0.23863 0.36781 0.0
C1354 C 0.12916 0.25071 0.3794 0.0
C1355 C 0.14961 0.27502 0.38487 0.0
C1356 C 0.162 0.28713 0.37847 0.0
C1357 C 0.14146 0.26302 0.37338 0.0
C1358 C 0.1656 0.28736 0.3604 0.0
C1359 C 0.15771 0.27553 0.34908 0.0
H1360 H 0.73028 0.14912 0.39334 0.0
H1361 H 0.74217 0.1966 0.36512 0.0
H1362 H 0.76457 0.18161 0.34861 0.0
H1363 H 0.78017 0.15532 0.34119 0.0
H1364 H 0.76865 0.10682 0.36761 0.0
H1365 H 0.74692 0.1219 0.38579 0.0
C1366 C 0.73784 0.15613 0.38363 0.0
C1367 C 0.73432 0.17397 0.3804 0.0
C1368 C 0.75079 0.14728 0.37379 0.0
C1369 C 0.74429 0.18285 0.36774 0.0
C1370 C 0.75723 0.1743 0.35828 0.0
C1371 C 0.77303 0.14791 0.35094 0.0
C1372 C 0.77612 0.12988 0.35291 0.0
C1373 C 0.76045 0.15654 0.36105 0.0
C1374 C 0.76661 0.1207 0.36574 0.0
C1375 C 0.75413 0.12933 0.37613 0.0
H1376 H 0.83746 0.73073 0.35645 0.0
H1377 H 0.86206 0.73928 0.40651 0.0
H1378 H 0.88188 0.76069 0.39317 0.0
H1379 H 0.89111 0.77833 0.3672 0.0
H1380 H 0.86482 0.76971 0.31799 0.0
H1381 H 0.84693 0.74702 0.3311 0.0
C1382 C 0.84718 0.73715 0.36455 0.0
C1383 C 0.84811 0.73339 0.38254 0.0
C1384 C 0.85827 0.74958 0.3569 0.0
C1385 C 0.86095 0.74189 0.39264 0.0
C1386 C 0.87229 0.75418 0.38501 0.0
C1387 C 0.88157 0.77133 0.35938 0.0
C1388 C 0.87922 0.77585 0.34166 0.0
C1389 C 0.87093 0.75833 0.36715 0.0
C1390 C 0.86675 0.7667 0.3317 0.0
C1391 C 0.85651 0.75366 0.33916 0.0
H1392 H 0.24088 0.85988 0.3279 0.0
H1393 H 0.23013 0.89757 0.36841 0.0
H1394 H 0.2519 0.88373 0.38732 0.0
H1395 H 0.27415 0.86089 0.3923 0.0
H1396 H 0.2853 0.82403 0.35099 0.0
H1397 H 0.26337 0.83769 0.33253 0.0
C1398 C 0.24318 0.865 0.34092 0.0
C1399 C 0.23377 0.87966 0.34675 0.0
C1400 C 0.25593 0.85721 0.35159 0.0
C1401 C 0.23716 0.88628 0.36358 0.0
C1402 C 0.24963 0.87839 0.3744 0.0
C1403 C 0.27185 0.85588 0.37924 0.0
C1404 C 0.28144 0.84139 0.37316 0.0
C1405 C 0.25916 0.86386 0.36853 0.0
C1406 C 0.27822 0.83516 0.35613 0.0
C1407 C 0.2656 0.84292 0.34551 0.0
H1408 H 0.15932 0.73402 0.61581 0.0
H1409 H 0.19767 0.73101 0.65728 0.0
H1410 H 0.18078 0.75114 0.67478 0.0
H1411 H 0.1554 0.76946 0.67887 0.0
H1412 H 0.11586 0.77264 0.63876 0.0
H1413 H 0.13293 0.75272 0.6203 0.0
C1414 C 0.16396 0.73778 0.62866 0.0
C1415 C 0.17983 0.73086 0.63509 0.0
C1416 C 0.154 0.74946 0.63898 0.0
C1417 C 0.18554 0.73592 0.65186 0.0
C1418 C 0.1759 0.74754 0.66197 0.0
C1419 C 0.15047 0.76596 0.66604 0.0
C1420 C 0.13438 0.7727 0.66022 0.0
C1421 C 0.16016 0.75438 0.65569 0.0
C1422 C 0.12821 0.7677 0.64361 0.0
C1423 C 0.13798 0.75629 0.63305 0.0
H1424 H 0.27493 0.17919 0.65108 0.0
H1425 H 0.28055 0.14322 0.60807 0.0
H1426 H 0.25967 0.12322 0.62185 0.0
H1427 H 0.23961 0.11602 0.64631 0.0
H1428 H 0.23363 0.1532 0.6884 0.0
H1429 H 0.25471 0.17253 0.67474 0.0
C1430 C 0.2717 0.16693 0.64474 0.0
C1431 C 0.27942 0.16268 0.62862 0.0
C1432 C 0.25948 0.15568 0.65255 0.0
C1433 C 0.27482 0.14683 0.62049 0.0
C1434 C 0.26287 0.13538 0.62837 0.0
C1435 C 0.2429 0.12835 0.65247 0.0
C1436 C 0.23494 0.13303 0.66841 0.0
C1437 C 0.25506 0.13967 0.64442 0.0
C1438 C 0.23938 0.14917 0.67611 0.0
C1439 C 0.25153 0.16029 0.66834 0.0
H1440 H 0.86185 0.26616 0.61169 0.0
H1441 H 0.83626 0.28957 0.6563 0.0
H1442 H 0.85075 0.2693 0.6757 0.0
H1443 H 0.86968 0.24435 0.68042 0.0
H1444 H 0.89715 0.2212 0.6371 0.0
H1445 H 0.88298 0.24182 0.61691 0.0
C1446 C 0.8596 0.26693 0.62565 0.0
C1447 C 0.8477 0.27932 0.63235 0.0
C1448 C 0.86817 0.25513 0.63704 0.0
C1449 C 0.84508 0.28011 0.65057 0.0
C1450 C 0.85338 0.26848 0.6618 0.0
C1451 C 0.87251 0.24371 0.66653 0.0
C1452 C 0.88418 0.23107 0.66022 0.0
C1453 C 0.86469 0.25578 0.65518 0.0
C1454 C 0.88807 0.23075 0.64226 0.0
C1455 C 0.87999 0.24255 0.63073 0.0
H1456 H 0.77111 0.85755 0.68315 0.0
H1457 H 0.77641 0.90068 0.64717 0.0
H1458 H 0.75554 0.88667 0.62722 0.0
H1459 H 0.73551 0.86196 0.62017 0.0
H1460 H 0.73022 0.81981 0.65743 0.0
H1461 H 0.75132 0.83369 0.67657 0.0
C1462 C 0.76783 0.86393 0.67091 0.0
C1463 C 0.77545 0.88013 0.66667 0.0
C1464 C 0.75572 0.85596 0.65969 0.0
C1465 C 0.77077 0.8882 0.65081 0.0
C1466 C 0.75884 0.88019 0.63938 0.0
C1467 C 0.73901 0.85583 0.63246 0.0
C1468 C 0.73117 0.83984 0.63728 0.0
C1469 C 0.75118 0.86403 0.6437 0.0
C1470 C 0.73584 0.83215 0.65334 0.0
C1471 C 0.748 0.84005 0.66434 0.0
H1472 H 0.35846 0.1186 0.23344 0.0
H1473 H 0.31998 0.15918 0.22528 0.0
H1474 H 0.33512 0.17799 0.24576 0.0
H1475 H 0.35859 0.18305 0.26648 0.0
H1476 H 0.39812 0.14374 0.27473 0.0
H1477 H 0.38334 0.12444 0.25371 0.0
C1478 C 0.35343 0.13157 0.2361 0.0
C1479 C 0.33798 0.13732 0.22776 0.0
C1480 C 0.36236 0.1426 0.24797 0.0
C1481 C 0.33179 0.15428 0.23137 0.0
C1482 C 0.34043 0.16512 0.24317 0.0
C1483 C 0.36402 0.17024 0.26376 0.0
C1484 C 0.37935 0.1648 0.27235 0.0
C1485 C 0.3556 0.15939 0.25162 0.0
C1486 C 0.38631 0.14827 0.26834 0.0
C1487 C 0.37783 0.13722 0.25635 0.0
H1488 H 0.89146 0.35727 0.23542 0.0
H1489 H 0.85373 0.31526 0.23331 0.0
H1490 H 0.83585 0.32989 0.25508 0.0
H1491 H 0.83076 0.35439 0.27489 0.0
H1492 H 0.86753 0.39715 0.27658 0.0
H1493 H 0.88586 0.38244 0.25491 0.0
C1494 C 0.87932 0.35132 0.2397 0.0
C1495 C 0.87404 0.33513 0.23266 0.0
C1496 C 0.86889 0.35991 0.25223 0.0
C1497 C 0.85818 0.32772 0.23836 0.0
C1498 C 0.84791 0.33605 0.2509 0.0
C1499 C 0.84282 0.36049 0.27061 0.0
C1500 C 0.84778 0.37681 0.27748 0.0
C1501 C 0.85315 0.35211 0.25796 0.0
C1502 C 0.86337 0.38459 0.27154 0.0
C1503 C 0.87387 0.37618 0.25914 0.0
H1504 H 0.67974 0.87433 0.25287 0.0
H1505 H 0.63547 0.89324 0.22366 0.0
H1506 H 0.6156 0.87682 0.24299 0.0
H1507 H 0.61134 0.85496 0.26698 0.0
H1508 H 0.6566 0.83735 0.29588 0.0
H1509 H 0.67545 0.85553 0.27805 0.0
C1510 C 0.66572 0.87493 0.25076 0.0
C1511 C 0.65907 0.8847 0.23671 0.0
C1512 C 0.65454 0.86565 0.2619 0.0
C1513 C 0.64088 0.88571 0.23437 0.0
C1514 C 0.62956 0.87629 0.24539 0.0
C1515 C 0.62528 0.85535 0.26953 0.0
C1516 C 0.63251 0.8445 0.28261 0.0
C1517 C 0.63627 0.86591 0.25904 0.0
C1518 C 0.65063 0.84525 0.28575 0.0
C1519 C 0.66149 0.85567 0.27554 0.0
H1520 H 0.11696 0.65319 0.24063 0.0
H1521 H 0.15964 0.68763 0.22678 0.0
H1522 H 0.17879 0.67242 0.24688 0.0
H1523 H 0.18357 0.6502 0.26901 0.0
H1524 H 0.14203 0.61471 0.28295 0.0
H1525 H 0.12241 0.62943 0.26221 0.0
C1526 C 0.13047 0.65728 0.24191 0.0
C1527 C 0.13668 0.67171 0.23219 0.0
C1528 C 0.14166 0.64837 0.25362 0.0
C1529 C 0.15431 0.67671 0.23406 0.0
C1530 C 0.16537 0.66801 0.24562 0.0
C1531 C 0.1702 0.64567 0.26761 0.0
C1532 C 0.16424 0.63151 0.27772 0.0
C1533 C 0.15915 0.65401 0.2556 0.0
C1534 C 0.14696 0.62563 0.2754 0.0
C1535 C 0.13574 0.63406 0.26355 0.0
H1536 H 0.35434 0.89202 0.77218 0.0
H1537 H 0.31717 0.85029 0.78068 0.0
H1538 H 0.33318 0.83165 0.76063 0.0
H1539 H 0.35739 0.827 0.7405 0.0
H1540 H 0.39536 0.86792 0.73223 0.0
H1541 H 0.37932 0.887 0.75228 0.0
C1542 C 0.34976 0.87884 0.76971 0.0
C1543 C 0.33448 0.87268 0.77799 0.0
C1544 C 0.35911 0.86801 0.7581 0.0
C1545 C 0.32885 0.85549 0.77459 0.0
C1546 C 0.33798 0.84476 0.76305 0.0
C1547 C 0.36215 0.84014 0.74295 0.0
C1548 C 0.3775 0.84603 0.73472 0.0
C1549 C 0.35304 0.85091 0.75466 0.0
C1550 C 0.38356 0.86302 0.73834 0.0
C1551 C 0.3744 0.87395 0.74982 0.0
H1552 H 0.18273 0.355 0.7448 0.0
H1553 H 0.14454 0.39471 0.73284 0.0
H1554 H 0.12415 0.3816 0.75374 0.0
H1555 H 0.11722 0.35871 0.77558 0.0
H1556 H 0.15641 0.31992 0.78789 0.0
H1557 H 0.17624 0.3329 0.76683 0.0
C1558 C 0.16991 0.36075 0.74664 0.0
C1559 C 0.16516 0.37574 0.73714 0.0
C1560 C 0.1584 0.35335 0.75888 0.0
C1561 C 0.14856 0.38315 0.73995 0.0
C1562 C 0.13688 0.37566 0.75192 0.0
C1563 C 0.13011 0.35313 0.7737 0.0
C1564 C 0.13518 0.33829 0.7834 0.0
C1565 C 0.14167 0.36076 0.76152 0.0
C1566 C 0.15203 0.33133 0.78074 0.0
C1567 C 0.16344 0.33871 0.76861 0.0
H1568 H 0.61911 0.15052 0.73552 0.0
H1569 H 0.65718 0.19172 0.72859 0.0
H1570 H 0.67634 0.17799 0.74978 0.0
H1571 H 0.68268 0.15454 0.77015 0.0
H1572 H 0.64589 0.11233 0.77703 0.0
H1573 H 0.62596 0.12618 0.75605 0.0
C1574 C 0.63158 0.15648 0.73868 0.0
C1575 C 0.63662 0.17216 0.73036 0.0
C1576 C 0.64283 0.14835 0.75089 0.0
C1577 C 0.65292 0.17962 0.73459 0.0
C1578 C 0.66393 0.1718 0.7468 0.0
C1579 C 0.67027 0.14833 0.76719 0.0
C1580 C 0.66579 0.13244 0.7753 0.0
C1581 C 0.65905 0.1562 0.755 0.0
C1582 C 0.64971 0.12456 0.77102 0.0
C1583 C 0.63829 0.13249 0.75902 0.0
H1584 H 0.90005 0.65036 0.77032 0.0
H1585 H 0.85555 0.68275 0.78315 0.0
H1586 H 0.83801 0.66776 0.76151 0.0
H1587 H 0.83496 0.64595 0.73868 0.0
H1588 H 0.87824 0.61218 0.72606 0.0
H1589 H 0.8965 0.62725 0.74774 0.0
C1590 C 0.8865 0.65407 0.76844 0.0
C1591 C 0.8793 0.66781 0.77841 0.0
C1592 C 0.87623 0.64525 0.75588 0.0
C1593 C 0.86163 0.67232 0.77576 0.0
C1594 C 0.85149 0.66378 0.7633 0.0
C1595 C 0.84844 0.64194 0.74053 0.0
C1596 C 0.85528 0.62812 0.73059 0.0
C1597 C 0.85866 0.65036 0.75321 0.0
C1598 C 0.87267 0.62286 0.73348 0.0
C1599 C 0.8831 0.63146 0.7459 0.0
H1600 H 0.24304 0.32477 0.15174 0.0
H1601 H 0.23227 0.36369 0.11239 0.0
H1602 H 0.25189 0.38429 0.12735 0.0
H1603 H 0.27171 0.39131 0.15231 0.0
H1604 H 0.28221 0.35113 0.19069 0.0
H1605 H 0.26313 0.33111 0.17535 0.0
C1606 C 0.24488 0.33777 0.14638 0.0
C1607 C 0.23601 0.3427 0.13104 0.0
C1608 C 0.2562 0.34939 0.15492 0.0
C1609 C 0.23889 0.35953 0.1242 0.0
C1610 C 0.25009 0.37133 0.13278 0.0
C1611 C 0.26986 0.37817 0.15728 0.0
C1612 C 0.27844 0.37291 0.17277 0.0
C1613 C 0.25877 0.36643 0.14826 0.0
C1614 C 0.27588 0.35572 0.17888 0.0
C1615 C 0.2649 0.34416 0.17012 0.0
H1616 H 0.23701 0.65504 0.89481 0.0
H1617 H 0.22719 0.69088 0.8522 0.0
H1618 H 0.2486 0.67591 0.83434 0.0
H1619 H 0.27025 0.65308 0.83052 0.0
H1620 H 0.28012 0.61615 0.87198 0.0
H1621 H 0.25862 0.63111 0.89048 0.0
C1622 C 0.23952 0.65954 0.88161 0.0
C1623 C 0.23041 0.67418 0.87499 0.0
C1624 C 0.25194 0.65073 0.87116 0.0
C1625 C 0.23387 0.67971 0.85777 0.0
C1626 C 0.24619 0.67117 0.84748 0.0
C1627 C 0.26784 0.64829 0.84365 0.0
C1628 C 0.27698 0.63358 0.84988 0.0
C1629 C 0.25535 0.65676 0.85404 0.0
C1630 C 0.27335 0.62747 0.86684 0.0
C1631 C 0.26104 0.63603 0.87742 0.0
H1632 H 0.35088 0.27434 0.8322 0.0
H1633 H 0.39394 0.27773 0.86851 0.0
H1634 H 0.37978 0.25615 0.88748 0.0
H1635 H 0.35516 0.23576 0.89345 0.0
H1636 H 0.31296 0.23243 0.85596 0.0
H1637 H 0.32684 0.25441 0.83792 0.0
C1638 C 0.35718 0.27051 0.84431 0.0
C1639 C 0.37345 0.27776 0.84889 0.0
C1640 C 0.34913 0.25794 0.85499 0.0
C1641 C 0.38142 0.27239 0.86461 0.0
C1642 C 0.37332 0.26003 0.87547 0.0
C1643 C 0.34901 0.23986 0.88135 0.0
C1644 C 0.333 0.23229 0.87617 0.0
C1645 C 0.35718 0.2526 0.87075 0.0
C1646 C 0.32529 0.23782 0.86037 0.0
C1647 C 0.3332 0.2505 0.84997 0.0
H1648 H 0.73715 0.35965 0.82854 0.0
H1649 H 0.72822 0.39839 0.8685 0.0
H1650 H 0.74922 0.3835 0.88768 0.0
H1651 H 0.77051 0.35939 0.89283 0.0
H1652 H 0.77942 0.32183 0.85159 0.0
H1653 H 0.7581 0.33643 0.83329 0.0
C1654 C 0.73962 0.36485 0.84149 0.0
C1655 C 0.73095 0.38008 0.84707 0.0
C1656 C 0.75185 0.35645 0.85225 0.0
C1657 C 0.73464 0.38667 0.86385 0.0
C1658 C 0.74667 0.37816 0.87482 0.0
C1659 C 0.76778 0.35442 0.87985 0.0
C1660 C 0.77668 0.33947 0.87369 0.0
C1661 C 0.75544 0.36304 0.86912 0.0
C1662 C 0.77295 0.3333 0.85676 0.0
C1663 C 0.76067 0.34162 0.84622 0.0
H1664 H 0.6181 0.73556 0.85963 0.0
H1665 H 0.65718 0.7307 0.81912 0.0
H1666 H 0.67479 0.75303 0.83295 0.0
H1667 H 0.67976 0.77365 0.85646 0.0
H1668 H 0.64207 0.77858 0.89807 0.0
H1669 H 0.62338 0.75672 0.88388 0.0
C1670 C 0.63045 0.73941 0.85385 0.0
C1671 C 0.63621 0.73127 0.83833 0.0
C1672 C 0.64084 0.75236 0.86203 0.0
C1673 C 0.65234 0.73649 0.83109 0.0
C1674 C 0.66249 0.74938 0.83896 0.0
C1675 C 0.6674 0.77011 0.86243 0.0
C1676 C 0.66235 0.77789 0.8783 0.0
C1677 C 0.65693 0.75736 0.85441 0.0
C1678 C 0.64633 0.77286 0.88586 0.0
C1679 C 0.63563 0.76032 0.87774 0.0
H1680 H 0.77664 0.6536 0.11492 0.0
H1681 H 0.78617 0.69134 0.15586 0.0
H1682 H 0.76479 0.67696 0.17439 0.0
H1683 H 0.74345 0.65377 0.17928 0.0
H1684 H 0.73431 0.61514 0.13922 0.0
H1685 H 0.75534 0.62983 0.1201 0.0
C1686 C 0.77407 0.65867 0.1279 0.0
C1687 C 0.78309 0.67359 0.13389 0.0
C1688 C 0.76173 0.65023 0.13868 0.0
C1689 C 0.77956 0.67988 0.15082 0.0
C1690 C 0.76725 0.67169 0.16148 0.0
C1691 C 0.74591 0.64861 0.16631 0.0
C1692 C 0.73719 0.63343 0.16068 0.0
C1693 C 0.75823 0.6569 0.15554 0.0
C1694 C 0.74081 0.62681 0.14391 0.0
C1695 C 0.75286 0.6352 0.13296 0.0
H1696 H 0.36308 0.77102 0.11556 0.0
H1697 H 0.3284 0.78123 0.15898 0.0
H1698 H 0.34307 0.75905 0.17623 0.0
H1699 H 0.36514 0.73643 0.17913 0.0
H1700 H 0.40093 0.72626 0.13681 0.0
H1701 H 0.38641 0.74871 0.11905 0.0
C1702 C 0.35879 0.76846 0.12882 0.0
C1703 C 0.34454 0.77784 0.13584 0.0
C1704 C 0.36739 0.7556 0.13887 0.0
C1705 C 0.33927 0.77432 0.15312 0.0
C1706 C 0.34763 0.76155 0.16305 0.0
C1707 C 0.36974 0.73899 0.16597 0.0
C1708 C 0.38397 0.72949 0.15924 0.0
C1709 C 0.36157 0.75203 0.15603 0.0
C1710 C 0.38996 0.73331 0.14229 0.0
C1711 C 0.38165 0.74616 0.13214 0.0
H1712 H 0.65168 0.23936 0.11827 0.0
H1713 H 0.68731 0.22568 0.15995 0.0
H1714 H 0.67359 0.24702 0.179 0.0
H1715 H 0.65161 0.26959 0.18407 0.0
H1716 H 0.61515 0.28288 0.14311 0.0
H1717 H 0.62915 0.26181 0.12359 0.0
C1718 C 0.65642 0.24099 0.13153 0.0
C1719 C 0.67057 0.23085 0.13756 0.0
C1720 C 0.6484 0.25333 0.14257 0.0
C1721 C 0.67645 0.2332 0.15486 0.0
C1722 C 0.66864 0.24548 0.16581 0.0
C1723 C 0.64679 0.26802 0.17083 0.0
C1724 C 0.63242 0.27792 0.16505 0.0
C1725 C 0.65467 0.25566 0.1598 0.0
C1726 C 0.62621 0.27546 0.14791 0.0
C1727 C 0.6342 0.26338 0.13674 0.0
H1728 H 0.8623 0.76793 0.68136 0.0
H1729 H 0.89943 0.77819 0.64025 0.0
H1730 H 0.88468 0.75668 0.62149 0.0
H1731 H 0.86032 0.7356 0.61656 0.0
H1732 H 0.82432 0.72534 0.65891 0.0
H1733 H 0.83962 0.74608 0.67727 0.0
C1734 C 0.86719 0.76553 0.66827 0.0
C1735 C 0.88181 0.77484 0.66214 0.0
C1736 C 0.85883 0.75307 0.65773 0.0
C1737 C 0.88816 0.77125 0.64528 0.0
C1738 C 0.87971 0.75896 0.63454 0.0
C1739 C 0.8559 0.73781 0.62984 0.0
C1740 C 0.84102 0.72889 0.63616 0.0
C1741 C 0.8649 0.74986 0.64059 0.0
C1742 C 0.83562 0.73193 0.6535 0.0
C1743 C 0.84436 0.74388 0.6641 0.0
H1744 H 0.23508 0.89448 0.64488 0.0
H1745 H 0.2327 0.85604 0.68625 0.0
H1746 H 0.25625 0.83972 0.67285 0.0
H1747 H 0.2772 0.83576 0.64953 0.0
H1748 H 0.2797 0.87275 0.60701 0.0
H1749 H 0.25656 0.89018 0.62076 0.0
C1750 C 0.23974 0.88254 0.65093 0.0
C1751 C 0.23196 0.87654 0.66655 0.0
C1752 C 0.25336 0.87292 0.643 0.0
C1753 C 0.2382 0.86098 0.67417 0.0
C1754 C 0.25178 0.8516 0.66656 0.0
C1755 C 0.27286 0.8477 0.64324 0.0
C1756 C 0.28032 0.85294 0.62727 0.0
C1757 C 0.25941 0.8574 0.651 0.0
C1758 C 0.27424 0.86838 0.61932 0.0
C1759 C 0.26098 0.87835 0.62717 0.0
H1760 H 0.15129 0.23864 0.68662 0.0
H1761 H 0.11143 0.22633 0.64866 0.0
H1762 H 0.12419 0.24756 0.62826 0.0
H1763 H 0.14716 0.26951 0.62116 0.0
H1764 H 0.18599 0.28183 0.6604 0.0
H1765 H 0.17306 0.26081 0.6802 0.0
C1766 C 0.14539 0.24049 0.67385 0.0
C1767 C 0.13053 0.23074 0.66914 0.0
C1768 C 0.1526 0.25283 0.66237 0.0
C1769 C 0.12292 0.23361 0.65263 0.0
C1770 C 0.13022 0.24575 0.64095 0.0
C1771 C 0.15274 0.26764 0.63406 0.0
C1772 C 0.16762 0.27733 0.63912 0.0
C1773 C 0.14512 0.25544 0.64567 0.0
C1774 C 0.17457 0.2747 0.65599 0.0
C1775 C 0.16722 0.26259 0.6674 0.0
H1776 H 0.77372 0.11571 0.6487 0.0
H1777 H 0.78755 0.15703 0.68471 0.0
H1778 H 0.76613 0.17616 0.6714 0.0
H1779 H 0.74316 0.18143 0.65 0.0
H1780 H 0.72962 0.14129 0.61282 0.0
H1781 H 0.75109 0.12156 0.62615 0.0
C1782 C 0.77212 0.12892 0.65357 0.0
C1783 C 0.78232 0.13475 0.6678 0.0
C1784 C 0.75969 0.14012 0.64574 0.0
C1785 C 0.78 0.15201 0.67383 0.0
C1786 C 0.76766 0.16305 0.66626 0.0
C1787 C 0.74478 0.16832 0.64486 0.0
C1788 C 0.73464 0.16281 0.63056 0.0
C1789 C 0.75735 0.15722 0.65232 0.0
C1790 C 0.73721 0.14587 0.62387 0.0
C1791 C 0.7495 0.13458 0.63148 0.0
H1792 H 0.8957 0.23561 0.3562 0.0
H1793 H 0.85335 0.22373 0.32069 0.0
H1794 H 0.8349 0.24511 0.33518 0.0
H1795 H 0.83064 0.26739 0.35766 0.0
H1796 H 0.8724 0.27898 0.39383 0.0
H1797 H 0.89117 0.25764 0.37925 0.0
C1798 C 0.88241 0.2376 0.35167 0.0
C1799 C 0.87603 0.22801 0.3373 0.0
C1800 C 0.87175 0.25001 0.36009 0.0
C1801 C 0.85872 0.23086 0.33168 0.0
C1802 C 0.84812 0.24316 0.33993 0.0
C1803 C 0.8439 0.26538 0.36229 0.0
C1804 C 0.85012 0.27489 0.37674 0.0
C1805 C 0.85452 0.25289 0.35405 0.0
C1806 C 0.86726 0.27187 0.38271 0.0
C1807 C 0.87801 0.25964 0.3744 0.0
H1808 H 0.77064 0.8943 0.36114 0.0
H1809 H 0.77837 0.85328 0.32306 0.0
H1810 H 0.75717 0.83507 0.33799 0.0
H1811 H 0.73627 0.83055 0.36139 0.0
H1812 H 0.72851 0.87045 0.40045 0.0
H1813 H 0.74983 0.88926 0.38557 0.0
C1814 C 0.76773 0.88136 0.35614 0.0
C1815 C 0.77617 0.8753 0.34089 0.0
C1816 C 0.75543 0.87073 0.3649 0.0
C1817 C 0.7722 0.85842 0.33471 0.0
C1818 C 0.75999 0.84793 0.34323 0.0
C1819 C 0.73909 0.84341 0.36666 0.0
C1820 C 0.73062 0.84912 0.38195 0.0
C1821 C 0.75148 0.85397 0.35823 0.0
C1822 C 0.73477 0.86572 0.38868 0.0
C1823 C 0.74698 0.87648 0.38017 0.0
H1824 H 0.18031 0.73937 0.3594 0.0
H1825 H 0.14445 0.73551 0.40273 0.0
H1826 H 0.12514 0.75691 0.3888 0.0
H1827 H 0.11854 0.77694 0.36419 0.0
H1828 H 0.15553 0.78128 0.32176 0.0
H1829 H 0.17419 0.75955 0.33549 0.0
C1830 C 0.16822 0.7431 0.36579 0.0
C1831 C 0.16381 0.73573 0.38205 0.0
C1832 C 0.15736 0.7556 0.35788 0.0
C1833 C 0.1482 0.74097 0.39022 0.0
C1834 C 0.13713 0.75321 0.38225 0.0
C1835 C 0.13067 0.77312 0.35796 0.0
C1836 C 0.13556 0.7808 0.34194 0.0
C1837 C 0.14159 0.76066 0.36607 0.0
C1838 C 0.15142 0.77573 0.33413 0.0
C1839 C 0.16213 0.76322 0.34194 0.0
H1840 H 0.22511 0.15739 0.34182 0.0
H1841 H 0.24084 0.10941 0.36698 0.0
H1842 H 0.26201 0.12572 0.38482 0.0
H1843 H 0.27738 0.1538 0.39187 0.0
H1844 H 0.26164 0.20073 0.3647 0.0
H1845 H 0.23922 0.18459 0.34911 0.0
C1846 C 0.23306 0.15036 0.35123 0.0
C1847 C 0.23139 0.1321 0.35288 0.0
C1848 C 0.24536 0.15969 0.36106 0.0
C1849 C 0.2418 0.12344 0.36535 0.0
C1850 C 0.25397 0.13277 0.37552 0.0
C1851 C 0.26893 0.16044 0.38263 0.0
C1852 C 0.27134 0.17844 0.37935 0.0
C1853 C 0.25608 0.15092 0.37329 0.0
C1854 C 0.26029 0.18687 0.36731 0.0
C1855 C 0.24739 0.17767 0.35839 0.0
H1856 H 0.64685 0.8971 0.77312 0.0
H1857 H 0.68003 0.8549 0.79087 0.0
H1858 H 0.66631 0.83513 0.77038 0.0
H1859 H 0.64571 0.82956 0.74694 0.0
H1860 H 0.6112 0.87044 0.72924 0.0
H1861 H 0.62459 0.89086 0.75013 0.0
C1862 C 0.65099 0.88357 0.77258 0.0
C1863 C 0.66464 0.87769 0.78355 0.0
C1864 C 0.6429 0.87197 0.76067 0.0
C1865 C 0.6697 0.86 0.78264 0.0
C1866 C 0.66186 0.84857 0.77086 0.0
C1867 C 0.64113 0.84297 0.74754 0.0
C1868 C 0.62765 0.84852 0.73636 0.0
C1869 C 0.64863 0.85444 0.7597 0.0
C1870 C 0.62163 0.86584 0.73764 0.0
C1871 C 0.62929 0.87751 0.74959 0.0
H1872 H 0.1833 0.64716 0.73747 0.0
H1873 H 0.14678 0.60451 0.73199 0.0
H1874 H 0.12711 0.61858 0.75306 0.0
H1875 H 0.12037 0.64335 0.77312 0.0
H1876 H 0.15826 0.68495 0.7786 0.0
H1877 H 0.17718 0.67089 0.75749 0.0
C1878 C 0.171 0.64091 0.74075 0.0
C1879 C 0.16649 0.62485 0.733 0.0
C1880 C 0.15996 0.64889 0.75298 0.0
C1881 C 0.15059 0.61688 0.73772 0.0
C1882 C 0.13933 0.62494 0.74977 0.0
C1883 C 0.13277 0.6493 0.76969 0.0
C1884 C 0.13779 0.66523 0.77754 0.0
C1885 C 0.14388 0.64099 0.7575 0.0
C1886 C 0.15399 0.67268 0.77295 0.0
C1887 C 0.16487 0.66468 0.76079 0.0
H1888 H 0.33041 0.13891 0.75918 0.0
H1889 H 0.37523 0.11272 0.78097 0.0
H1890 H 0.39443 0.1281 0.76022 0.0
H1891 H 0.39842 0.15099 0.73725 0.0
H1892 H 0.35251 0.17578 0.7155 0.0
H1893 H 0.3339 0.15884 0.73468 0.0
C1894 C 0.34439 0.13648 0.75932 0.0
C1895 C 0.35145 0.12495 0.77171 0.0
C1896 C 0.35518 0.14518 0.74735 0.0
C1897 C 0.36951 0.12162 0.77154 0.0
C1898 C 0.38048 0.13046 0.75973 0.0
C1899 C 0.38435 0.15248 0.73654 0.0
C1900 C 0.377 0.16497 0.72509 0.0
C1901 C 0.37348 0.14256 0.74774 0.0
C1902 C 0.35867 0.16657 0.72432 0.0
C1903 C 0.34792 0.15686 0.73532 0.0
H1904 H 0.89157 0.35946 0.77628 0.0
H1905 H 0.86095 0.31244 0.76952 0.0
H1906 H 0.84277 0.32694 0.74807 0.0
H1907 H 0.83466 0.35276 0.73186 0.0
H1908 H 0.8638 0.40067 0.73824 0.0
H1909 H 0.8834 0.38602 0.75901 0.0
C1910 C 0.88097 0.35242 0.77004 0.0
C1911 C 0.8776 0.33489 0.77473 0.0
C1912 C 0.87022 0.36097 0.75763 0.0
C1913 C 0.86377 0.32598 0.76646 0.0
C1914 C 0.85334 0.33424 0.75408 0.0
C1915 C 0.8453 0.36012 0.73768 0.0
C1916 C 0.84762 0.37787 0.73345 0.0
C1917 C 0.85631 0.35173 0.7497 0.0
C1918 C 0.86162 0.387 0.74121 0.0
C1919 C 0.87283 0.37862 0.75314 0.0
H1920 H 0.68001 0.15475 0.24021 0.0
H1921 H 0.6407 0.11542 0.23055 0.0
H1922 H 0.62106 0.12976 0.25132 0.0
H1923 H 0.6153 0.15328 0.27279 0.0
H1924 H 0.65556 0.19168 0.28277 0.0
H1925 H 0.67445 0.17782 0.26142 0.0
C1926 C 0.66709 0.14936 0.24248 0.0
C1927 C 0.66185 0.13406 0.23372 0.0
C1928 C 0.65601 0.15745 0.25466 0.0
C1929 C 0.64511 0.12719 0.23708 0.0
C1930 C 0.63386 0.13537 0.24899 0.0
C1931 C 0.6282 0.15861 0.2703 0.0
C1932 C 0.63391 0.17353 0.2795 0.0
C1933 C 0.63922 0.15046 0.25797 0.0
C1934 C 0.65074 0.18019 0.27606 0.0
C1935 C 0.6616 0.1723 0.26376 0.0
H1936 H 0.89383 0.64874 0.23295 0.0
H1937 H 0.86403 0.69569 0.24286 0.0
H1938 H 0.84711 0.68069 0.26492 0.0
H1939 H 0.83994 0.65464 0.28099 0.0
H1940 H 0.86788 0.60659 0.27153 0.0
H1941 H 0.88629 0.62162 0.24989 0.0
C1942 C 0.88365 0.65563 0.23998 0.0
C1943 C 0.88017 0.67333 0.236 0.0
C1944 C 0.87358 0.64677 0.25277 0.0
C1945 C 0.86691 0.68204 0.24531 0.0
C1946 C 0.85721 0.6735 0.25807 0.0
C1947 C 0.85008 0.64731 0.27433 0.0
C1948 C 0.85244 0.62943 0.27799 0.0
C1949 C 0.86032 0.65589 0.26181 0.0
C1950 C 0.86571 0.62036 0.26905 0.0
C1951 C 0.87624 0.62896 0.25663 0.0
H1952 H 0.3294 0.85956 0.23782 0.0
H1953 H 0.3691 0.8992 0.23182 0.0
H1954 H 0.38832 0.88294 0.25183 0.0
H1955 H 0.39365 0.85712 0.27119 0.0
H1956 H 0.35256 0.81868 0.27689 0.0
H1957 H 0.33422 0.83489 0.25686 0.0
C1958 C 0.34229 0.86472 0.24072 0.0
C1959 C 0.34778 0.88058 0.23313 0.0
C1960 C 0.35307 0.85549 0.2523 0.0
C1961 C 0.36449 0.88702 0.23739 0.0
C1962 C 0.37549 0.87771 0.24885 0.0
C1963 C 0.38069 0.85232 0.26805 0.0
C1964 C 0.37462 0.8366 0.27568 0.0
C1965 C 0.36991 0.86188 0.25642 0.0
C1966 C 0.3577 0.83069 0.27142 0.0
C1967 C 0.34713 0.83995 0.25987 0.0
H1968 H 0.17379 0.35976 0.2741 0.0
H1969 H 0.13525 0.40063 0.27875 0.0
H1970 H 0.11645 0.38541 0.25766 0.0
H1971 H 0.11144 0.36056 0.23708 0.0
H1972 H 0.15143 0.32088 0.23261 0.0
H1973 H 0.16901 0.33563 0.2543 0.0
C1974 C 0.16121 0.36536 0.2707 0.0
C1975 C 0.15597 0.38132 0.27813 0.0
C1976 C 0.15069 0.35676 0.25839 0.0
C1977 C 0.13966 0.38835 0.27328 0.0
C1978 C 0.1289 0.37966 0.26118 0.0
C1979 C 0.12397 0.35515 0.2409 0.0
C1980 C 0.13 0.3396 0.23302 0.0
C1981 C 0.13435 0.36387 0.2535 0.0
C1982 C 0.14636 0.33285 0.23819 0.0
C1983 C 0.1565 0.34125 0.25072 0.0
H1984 H 0.77506 0.67989 0.85599 0.0
H1985 H 0.77887 0.64269 0.89824 0.0
H1986 H 0.75908 0.62286 0.88255 0.0
H1987 H 0.74028 0.61637 0.85665 0.0
H1988 H 0.73666 0.65494 0.81547 0.0
H1989 H 0.75674 0.67382 0.83101 0.0
C1990 C 0.77173 0.66742 0.86185 0.0
C1991 C 0.7786 0.66283 0.8783 0.0
C1992 C 0.76024 0.65628 0.85293 0.0
C1993 C 0.77385 0.64661 0.8856 0.0
C1994 C 0.7625 0.63526 0.87662 0.0
C1995 C 0.7439 0.6289 0.8511 0.0
C1996 C 0.73681 0.63413 0.83486 0.0
C1997 C 0.75553 0.63999 0.86025 0.0
C1998 C 0.74169 0.65049 0.82794 0.0
C1999 C 0.75327 0.66136 0.8368 0.0
H2000 H 0.77947 0.33785 0.15341 0.0
H2001 H 0.77216 0.3654 0.10472 0.0
H2002 H 0.75054 0.38449 0.11873 0.0
H2003 H 0.73296 0.39279 0.14506 0.0
H2004 H 0.7405 0.36354 0.19279 0.0
H2005 H 0.76274 0.34586 0.17888 0.0
C2006 C 0.77328 0.34806 0.14576 0.0
C2007 C 0.77753 0.35011 0.128 0.0
C2008 C 0.76077 0.35873 0.15377 0.0
C2009 C 0.76918 0.36345 0.11842 0.0
C2010 C 0.75679 0.37439 0.12644 0.0
C2011 C 0.73955 0.38259 0.15236 0.0
C2012 C 0.73489 0.37943 0.16992 0.0
C2013 C 0.75236 0.37208 0.14413 0.0
C2014 C 0.74357 0.36612 0.1792 0.0
C2015 C 0.75638 0.356 0.17129 0.0
H2016 H 0.65356 0.7779 0.11374 0.0
H2017 H 0.69734 0.77582 0.14938 0.0
H2018 H 0.68325 0.7527 0.16586 0.0
H2019 H 0.65846 0.73358 0.17096 0.0
H2020 H 0.61366 0.73571 0.13672 0.0
H2021 H 0.62816 0.75813 0.119 0.0
C2022 C 0.66 0.77231 0.12506 0.0
C2023 C 0.67647 0.77874 0.13031 0.0
C2024 C 0.65165 0.759 0.13482 0.0
C2025 C 0.6846 0.77135 0.14509 0.0
C2026 C 0.67658 0.75804 0.15456 0.0
C2027 C 0.65183 0.7388 0.15956 0.0
C2028 C 0.63498 0.73286 0.15521 0.0
C2029 C 0.66008 0.75185 0.14964 0.0
C2030 C 0.62664 0.74001 0.14043 0.0
C2031 C 0.63493 0.75286 0.13027 0.0
H2032 H 0.28006 0.65445 0.16964 0.0
H2033 H 0.26918 0.60571 0.14341 0.0
H2034 H 0.2479 0.62059 0.12453 0.0
H2035 H 0.23077 0.64745 0.11692 0.0
H2036 H 0.24161 0.69517 0.14505 0.0
H2037 H 0.26443 0.68066 0.16163 0.0
C2038 C 0.27317 0.64697 0.15975 0.0
C2039 C 0.27621 0.6289 0.15812 0.0
C2040 C 0.26076 0.65547 0.14929 0.0
C2041 C 0.26715 0.61962 0.14504 0.0
C2042 C 0.2549 0.62813 0.13427 0.0
C2043 C 0.23827 0.65463 0.12657 0.0
C2044 C 0.23432 0.67234 0.12986 0.0
C2045 C 0.25134 0.64604 0.13648 0.0
C2046 C 0.24414 0.68148 0.14244 0.0
C2047 C 0.25727 0.67321 0.15192 0.0
H2048 H 0.3658 0.23773 0.11292 0.0
H2049 H 0.33131 0.2234 0.15536 0.0
H2050 H 0.34474 0.24522 0.17395 0.0
H2051 H 0.36546 0.26886 0.17829 0.0
H2052 H 0.40116 0.28315 0.1371 0.0
H2053 H 0.38808 0.2609 0.11798 0.0
C2054 C 0.36131 0.2393 0.12627 0.0
C2055 C 0.34741 0.2289 0.13257 0.0
C2056 C 0.3692 0.25197 0.13713 0.0
C2057 C 0.34188 0.23114 0.14999 0.0
C2058 C 0.34954 0.2437 0.16071 0.0
C2059 C 0.37036 0.26722 0.16509 0.0
C2060 C 0.38409 0.27784 0.15905 0.0
C2061 C 0.36303 0.2543 0.15438 0.0
C2062 C 0.39053 0.27521 0.14204 0.0
C2063 C 0.38305 0.26249 0.13112 0.0
H2064 H 0.26963 0.36203 0.8356 0.0
H2065 H 0.27631 0.39935 0.87734 0.0
H2066 H 0.25468 0.38358 0.89498 0.0
H2067 H 0.23409 0.35882 0.89859 0.0
H2068 H 0.22724 0.32242 0.85592 0.0
H2069 H 0.24858 0.33833 0.83866 0.0
C2070 C 0.26647 0.36671 0.84861 0.0
C2071 C 0.27476 0.38176 0.85519 0.0
C2072 C 0.25387 0.35779 0.85851 0.0
C2073 C 0.2702 0.38776 0.87195 0.0
C2074 C 0.25781 0.37876 0.88204 0.0
C2075 C 0.23718 0.35442 0.88548 0.0
C2076 C 0.22901 0.33932 0.87869 0.0
C2077 C 0.24956 0.36371 0.87545 0.0
C2078 C 0.23322 0.33393 0.86161 0.0
C2079 C 0.24551 0.343 0.85168 0.0
H2080 H 0.64047 0.23502 0.89326 0.0
H2081 H 0.68907 0.24467 0.86619 0.0
H2082 H 0.67534 0.26734 0.84885 0.0
H2083 H 0.6497 0.2835 0.84017 0.0
H2084 H 0.60016 0.27395 0.8654 0.0
H2085 H 0.61409 0.25239 0.88466 0.0
C2086 C 0.648 0.24219 0.88363 0.0
C2087 C 0.66574 0.23796 0.88092 0.0
C2088 C 0.63988 0.25523 0.87331 0.0
C2089 C 0.67534 0.24739 0.86838 0.0
C2090 C 0.66753 0.26045 0.85846 0.0
C2091 C 0.64184 0.27684 0.84991 0.0
C2092 C 0.62384 0.28037 0.8512 0.0
C2093 C 0.6498 0.26431 0.86063 0.0
C2094 C 0.61404 0.27153 0.86404 0.0
C2095 C 0.622 0.25914 0.87505 0.0
H2096 H 0.36168 0.77639 0.89799 0.0
H2097 H 0.32417 0.78415 0.85638 0.0
H2098 H 0.33901 0.76269 0.83858 0.0
H2099 H 0.36214 0.74136 0.83454 0.0
H2100 H 0.40085 0.73376 0.87483 0.0
H2101 H 0.38606 0.75538 0.8933 0.0
C2102 C 0.3568 0.77342 0.88502 0.0
C2103 C 0.34172 0.78195 0.8787 0.0
C2104 C 0.36555 0.76099 0.87456 0.0
C2105 C 0.3357 0.77793 0.86175 0.0
C2106 C 0.34416 0.76556 0.85147 0.0
C2107 C 0.36733 0.74433 0.84741 0.0
C2108 C 0.38246 0.73581 0.85335 0.0
C2109 C 0.35899 0.75693 0.85775 0.0
C2110 C 0.38917 0.7401 0.86994 0.0
C2111 C 0.38071 0.75247 0.88051 0.0
H2112 H 0.08112 0.22036 0.25968 0.0
H2113 H 0.07515 0.25785 0.30119 0.0
H2114 H 0.07063 0.28122 0.27966 0.0
H2115 H 0.07462 0.29152 0.24909 0.0
H2116 H 0.082 0.25351 0.20815 0.0
H2117 H 0.07927 0.2298 0.22924 0.0
C2118 C 0.07823 0.23356 0.26398 0.0
C2119 C 0.07862 0.23748 0.28189 0.0
C2120 C 0.07611 0.24688 0.25157 0.0
C2121 C 0.07482 0.25456 0.28742 0.0
C2122 C 0.07244 0.26794 0.2751 0.0
C2123 C 0.07496 0.27803 0.24475 0.0
C2124 C 0.07874 0.27424 0.22714 0.0
C2125 C 0.07395 0.26438 0.25712 0.0
C2126 C 0.07928 0.25672 0.22167 0.0
C2127 C 0.07781 0.24315 0.23374 0.0
H2128 H 0.75562 0.0802 0.29656 0.0
H2129 H 0.79902 0.08708 0.26127 0.0
H2130 H 0.77957 0.08392 0.23623 0.0
H2131 H 0.74991 0.08491 0.22462 0.0
H2132 H 0.70586 0.07957 0.25924 0.0
H2133 H 0.72573 0.07603 0.28421 0.0
C2134 C 0.76083 0.08039 0.28338 0.0
C2135 C 0.77868 0.08401 0.28071 0.0
C2136 C 0.74939 0.07912 0.26893 0.0
C2137 C 0.78529 0.08442 0.26359 0.0
C2138 C 0.77417 0.0827 0.24927 0.0
C2139 C 0.74468 0.08247 0.23758 0.0
C2140 C 0.72651 0.0827 0.24016 0.0
C2141 C 0.75613 0.08092 0.2518 0.0
C2142 C 0.71983 0.07939 0.25694 0.0
C2143 C 0.73121 0.07756 0.27124 0.0
H2144 H 0.92959 0.75864 0.22107 0.0
H2145 H 0.93634 0.71462 0.25553 0.0
H2146 H 0.93957 0.73446 0.28051 0.0
H2147 H 0.9344 0.76403 0.29298 0.0
H2148 H 0.92617 0.80744 0.25794 0.0
H2149 H 0.92994 0.78829 0.23281 0.0
C2150 C 0.9323 0.75343 0.23398 0.0
C2151 C 0.9325 0.73524 0.23653 0.0
C2152 C 0.93364 0.76485 0.24825 0.0
C2153 C 0.93617 0.7286 0.25326 0.0
C2154 C 0.93781 0.73995 0.26757 0.0
C2155 C 0.93406 0.76935 0.27984 0.0
C2156 C 0.92978 0.78707 0.27729 0.0
C2157 C 0.9357 0.75807 0.26533 0.0
C2158 C 0.92926 0.79381 0.2602 0.0
C2159 C 0.93134 0.78285 0.24582 0.0
H2160 H 0.25479 0.93229 0.2954 0.0
H2161 H 0.21078 0.93161 0.26018 0.0
H2162 H 0.23022 0.93526 0.23524 0.0
H2163 H 0.25969 0.93216 0.2233 0.0
H2164 H 0.30414 0.93196 0.25784 0.0
H2165 H 0.28477 0.93544 0.28315 0.0
C2166 C 0.24949 0.93366 0.28232 0.0
C2167 C 0.23143 0.9315 0.27955 0.0
C2168 C 0.26088 0.93523 0.26789 0.0
C2169 C 0.22467 0.93312 0.26255 0.0
C2170 C 0.23579 0.93509 0.24828 0.0
C2171 C 0.26513 0.93349 0.23634 0.0
C2172 C 0.2832 0.93165 0.2388 0.0
C2173 C 0.25392 0.93516 0.25074 0.0
C2174 C 0.29022 0.93343 0.25568 0.0
C2175 C 0.27912 0.93523 0.27015 0.0
H2176 H 0.08089 0.71208 0.75679 0.0
H2177 H 0.08599 0.74951 0.79865 0.0
H2178 H 0.0825 0.7735 0.77802 0.0
H2179 H 0.08362 0.78377 0.74787 0.0
H2180 H 0.07986 0.74703 0.70541 0.0
H2181 H 0.07681 0.7229 0.72636 0.0
C2182 C 0.08067 0.72547 0.76141 0.0
C2183 C 0.08395 0.72904 0.77918 0.0
C2184 C 0.07915 0.73934 0.74931 0.0
C2185 C 0.08371 0.74646 0.785 0.0
C2186 C 0.08177 0.76019 0.77321 0.0
C2187 C 0.08163 0.77052 0.74321 0.0
C2188 C 0.08217 0.76712 0.72519 0.0
C2189 C 0.08035 0.75679 0.75529 0.0
C2190 C 0.07944 0.74996 0.71925 0.0
C2191 C 0.07789 0.73615 0.73125 0.0
H2192 H 0.29455 0.07564 0.75667 0.0
H2193 H 0.26005 0.08657 0.79984 0.0
H2194 H 0.23468 0.08297 0.78092 0.0
H2195 H 0.2227 0.08218 0.75139 0.0
H2196 H 0.2567 0.07268 0.70753 0.0
H2197 H 0.28174 0.06986 0.72733 0.0
C2198 C 0.28145 0.07663 0.76198 0.0
C2199 C 0.27913 0.08154 0.77956 0.0
C2200 C 0.26683 0.07509 0.75083 0.0
C2201 C 0.26212 0.08295 0.78631 0.0
C2202 C 0.2476 0.08097 0.77548 0.0
C2203 C 0.23553 0.07907 0.7462 0.0
C2204 C 0.2379 0.07794 0.72803 0.0
C2205 C 0.24985 0.0779 0.75759 0.0
C2206 C 0.25453 0.07365 0.72148 0.0
C2207 C 0.26889 0.0722 0.7328 0.0
H2208 H 0.93375 0.29049 0.75731 0.0
H2209 H 0.93424 0.25288 0.79928 0.0
H2210 H 0.93845 0.22918 0.77843 0.0
H2211 H 0.93525 0.21885 0.74837 0.0
H2212 H 0.93351 0.2558 0.70596 0.0
H2213 H 0.93684 0.28005 0.72669 0.0
C2214 C 0.93553 0.27719 0.76187 0.0
C2215 C 0.93353 0.27336 0.77976 0.0
C2216 C 0.93734 0.26347 0.74968 0.0
C2217 C 0.93565 0.25607 0.78555 0.0
C2218 C 0.93791 0.2425 0.77362 0.0
C2219 C 0.93624 0.2322 0.74366 0.0
C2220 C 0.934 0.23562 0.72578 0.0
C2221 C 0.93775 0.24597 0.75565 0.0
C2222 C 0.93531 0.2529 0.71971 0.0
C2223 C 0.93701 0.26676 0.73159 0.0
H2224 H 0.74994 0.92884 0.79362 0.0
H2225 H 0.70604 0.93399 0.75869 0.0
H2226 H 0.72594 0.93653 0.73373 0.0
H2227 H 0.75575 0.9318 0.72156 0.0
H2228 H 0.79915 0.92612 0.75709 0.0
H2229 H 0.77969 0.92974 0.78202 0.0
C2230 C 0.74476 0.93097 0.78059 0.0
C2231 C 0.72658 0.93096 0.77796 0.0
C2232 C 0.75625 0.93222 0.76634 0.0
C2233 C 0.72001 0.93393 0.76105 0.0
C2234 C 0.73139 0.93525 0.74674 0.0
C2235 C 0.76097 0.93206 0.73475 0.0
C2236 C 0.77882 0.92857 0.73753 0.0
C2237 C 0.74954 0.93366 0.74915 0.0
C2238 C 0.78543 0.92871 0.75467 0.0
C2239 C 0.77429 0.93064 0.76894 0.0
H2240 H 0.21891 0.08606 0.26143 0.0
H2241 H 0.25602 0.08276 0.30363 0.0
H2242 H 0.2799 0.07867 0.28261 0.0
H2243 H 0.29049 0.0812 0.25192 0.0
H2244 H 0.25265 0.08435 0.21021 0.0
H2245 H 0.22883 0.08278 0.23121 0.0
C2246 C 0.23218 0.08397 0.266 0.0
C2247 C 0.23579 0.08489 0.28395 0.0
C2248 C 0.24575 0.08168 0.25388 0.0
C2249 C 0.25297 0.08206 0.28982 0.0
C2250 C 0.26663 0.07985 0.27779 0.0
C2251 C 0.27704 0.08088 0.24745 0.0
C2252 C 0.27334 0.08314 0.22955 0.0
C2253 C 0.26326 0.08034 0.25973 0.0
C2254 C 0.25583 0.08281 0.22393 0.0
C2255 C 0.24217 0.08203 0.23594 0.0
H2256 H 0.93253 0.28964 0.25178 0.0
H2257 H 0.93346 0.25454 0.20772 0.0
H2258 H 0.938 0.22973 0.22716 0.0
H2259 H 0.93504 0.21762 0.25657 0.0
H2260 H 0.93307 0.25209 0.30101 0.0
H2261 H 0.93595 0.27749 0.2817 0.0
C2262 C 0.93444 0.27665 0.24646 0.0
C2263 C 0.93241 0.27384 0.2284 0.0
C2264 C 0.93649 0.26228 0.25782 0.0
C2265 C 0.93479 0.25694 0.22162 0.0
C2266 C 0.93727 0.24273 0.23273 0.0
C2267 C 0.93583 0.23068 0.26204 0.0
C2268 C 0.93359 0.23305 0.28008 0.0
C2269 C 0.93711 0.24515 0.25086 0.0
C2270 C 0.93478 0.24997 0.28711 0.0
C2271 C 0.93624 0.26451 0.27605 0.0
H2272 H 0.75484 0.93337 0.29596 0.0
H2273 H 0.79744 0.93478 0.25911 0.0
H2274 H 0.77698 0.93932 0.23512 0.0
H2275 H 0.74713 0.93599 0.22421 0.0
H2276 H 0.70413 0.93323 0.26035 0.0
H2277 H 0.7244 0.93648 0.28502 0.0
C2278 C 0.75961 0.93539 0.28276 0.0
C2279 C 0.77756 0.9335 0.27921 0.0
C2280 C 0.74765 0.93741 0.26887 0.0
C2281 C 0.78364 0.936 0.26207 0.0
C2282 C 0.77195 0.9385 0.24834 0.0
C2283 C 0.74218 0.93681 0.23748 0.0
C2284 C 0.72429 0.93427 0.24056 0.0
C2285 C 0.75392 0.93819 0.25148 0.0
C2286 C 0.7179 0.93529 0.25773 0.0
C2287 C 0.72952 0.93692 0.27182 0.0
H2288 H 0.08098 0.75578 0.22318 0.0
H2289 H 0.0783 0.71206 0.25857 0.0
H2290 H 0.075 0.73213 0.28335 0.0
H2291 H 0.07867 0.76222 0.29513 0.0
H2292 H 0.08282 0.8054 0.25908 0.0
H2293 H 0.07943 0.78555 0.23444 0.0
C2294 C 0.07918 0.75064 0.23628 0.0
C2295 C 0.08012 0.73252 0.2391 0.0
C2296 C 0.07778 0.76223 0.2504 0.0
C2297 C 0.07759 0.72598 0.25608 0.0
C2298 C 0.0759 0.73747 0.27027 0.0
C2299 C 0.07823 0.76729 0.2819 0.0
C2300 C 0.08122 0.78522 0.2789 0.0
C2301 C 0.07681 0.75565 0.26765 0.0
C2302 C 0.08075 0.79163 0.26169 0.0
C2303 C 0.07888 0.78028 0.24758 0.0
H2304 H 0.24506 0.93114 0.71543 0.0
H2305 H 0.20154 0.92448 0.75062 0.0
H2306 H 0.2209 0.928 0.77569 0.0
H2307 H 0.25057 0.92705 0.78736 0.0
H2308 H 0.29465 0.93208 0.7527 0.0
H2309 H 0.27482 0.93552 0.72774 0.0
C2310 C 0.23979 0.93109 0.72858 0.0
C2311 C 0.22196 0.92736 0.73122 0.0
C2312 C 0.25116 0.93252 0.74303 0.0
C2313 C 0.21526 0.92718 0.74831 0.0
C2314 C 0.22633 0.9291 0.76265 0.0
C2315 C 0.25582 0.92937 0.77439 0.0
C2316 C 0.274 0.92902 0.7718 0.0
C2317 C 0.24438 0.93085 0.76015 0.0
C2318 C 0.28068 0.93228 0.75501 0.0
C2319 C 0.26933 0.93407 0.74071 0.0
H2320 H 0.07963 0.24897 0.72426 0.0
H2321 H 0.08716 0.20629 0.76029 0.0
H2322 H 0.08294 0.22592 0.78499 0.0
H2323 H 0.08288 0.25579 0.7962 0.0
H2324 H 0.07639 0.29907 0.7607 0.0
H2325 H 0.0741 0.27876 0.73606 0.0
C2326 C 0.07968 0.24393 0.73752 0.0
C2327 C 0.08383 0.22627 0.74051 0.0
C2328 C 0.07778 0.25548 0.75177 0.0
C2329 C 0.08407 0.21988 0.75773 0.0
C2330 C 0.08178 0.23111 0.77186 0.0
C2331 C 0.08052 0.26075 0.78311 0.0
C2332 C 0.0801 0.27888 0.78023 0.0
C2333 C 0.07954 0.24905 0.76904 0.0
C2334 C 0.07679 0.28514 0.76326 0.0
C2335 C 0.07563 0.27353 0.74913 0.0
H2336 H 0.72122 0.08036 0.75679 0.0
H2337 H 0.75605 0.0867 0.80066 0.0
H2338 H 0.78131 0.08311 0.78162 0.0
H2339 H 0.79334 0.08398 0.75204 0.0
H2340 H 0.75906 0.07815 0.7077 0.0
H2341 H 0.73385 0.07547 0.72725 0.0
C2342 C 0.73433 0.08025 0.76221 0.0
C2343 C 0.73682 0.08394 0.78005 0.0
C2344 C 0.74891 0.07867 0.75103 0.0
C2345 C 0.75387 0.08397 0.78693 0.0
C2346 C 0.76832 0.08206 0.77604 0.0
C2347 C 0.78039 0.08168 0.74669 0.0
C2348 C 0.778 0.08155 0.7285 0.0
C2349 C 0.766 0.08033 0.75798 0.0
C2350 C 0.76122 0.07833 0.7217 0.0
C2351 C 0.74677 0.07693 0.73288 0.0
H2352 H 0.925 0.75504 0.79044 0.0
H2353 H 0.93594 0.71093 0.75724 0.0
H2354 H 0.939 0.73045 0.732 0.0
H2355 H 0.93329 0.7596 0.71871 0.0
H2356 H 0.92167 0.80316 0.75252 0.0
H2357 H 0.92454 0.78448 0.77813 0.0
C2358 C 0.92849 0.74976 0.77776 0.0
C2359 C 0.92999 0.73159 0.77564 0.0
C2360 C 0.92996 0.761 0.76334 0.0
C2361 C 0.93472 0.7249 0.7592 0.0
C2362 C 0.93632 0.73605 0.74473 0.0
C2363 C 0.93199 0.76506 0.73172 0.0
C2364 C 0.92705 0.78267 0.73373 0.0
C2365 C 0.93323 0.75407 0.7465 0.0
C2366 C 0.92529 0.78959 0.75066 0.0
C2367 C 0.92684 0.77891 0.76532 0.0
H2368 H 0.25618 0.28829 0.07905 0.0
H2369 H 0.21335 0.25204 0.08452 0.0
H2370 H 0.23314 0.22747 0.08029 0.0
H2371 H 0.26305 0.21632 0.08094 0.0
H2372 H 0.30642 0.25197 0.07632 0.0
H2373 H 0.28614 0.27665 0.07399 0.0
C2374 C 0.25116 0.27503 0.07862 0.0
C2375 C 0.23339 0.27192 0.08222 0.0
C2376 C 0.26278 0.26084 0.0767 0.0
C2377 C 0.22701 0.2547 0.08185 0.0
C2378 C 0.23834 0.24063 0.07956 0.0
C2379 C 0.26803 0.22945 0.07894 0.0
C2380 C 0.28616 0.23237 0.07906 0.0
C2381 C 0.25633 0.24353 0.0779 0.0
C2382 C 0.29249 0.2494 0.07626 0.0
C2383 C 0.28089 0.26354 0.07509 0.0
H2384 H 0.25004 0.72326 0.93257 0.0
H2385 H 0.20665 0.75892 0.92762 0.0
H2386 H 0.22626 0.78376 0.93093 0.0
H2387 H 0.25604 0.79526 0.92933 0.0
H2388 H 0.29987 0.76024 0.9338 0.0
H2389 H 0.27993 0.73533 0.93689 0.0
C2390 C 0.24486 0.73645 0.93286 0.0
C2391 C 0.22698 0.73928 0.92956 0.0
C2392 C 0.25635 0.75082 0.93435 0.0
C2393 C 0.22042 0.75644 0.92991 0.0
C2394 C 0.23163 0.77067 0.93171 0.0
C2395 C 0.26119 0.78222 0.93148 0.0
C2396 C 0.27933 0.77951 0.9311 0.0
C2397 C 0.24968 0.76803 0.933 0.0
C2398 C 0.28592 0.76262 0.93407 0.0
C2399 C 0.27451 0.74836 0.93567 0.0
H2400 H 0.21746 0.25555 0.93536 0.0
H2401 H 0.25368 0.29864 0.93406 0.0
H2402 H 0.27826 0.27836 0.93747 0.0
H2403 H 0.28926 0.24801 0.93426 0.0
H2404 H 0.25245 0.20531 0.93434 0.0
H2405 H 0.22833 0.22568 0.93852 0.0
C2406 C 0.23072 0.26051 0.93641 0.0
C2407 C 0.23384 0.27845 0.93422 0.0
C2408 C 0.2447 0.24877 0.93799 0.0
C2409 C 0.251 0.28484 0.93573 0.0
C2410 C 0.26506 0.27322 0.9375 0.0
C2411 C 0.27604 0.24318 0.93595 0.0
C2412 C 0.27256 0.22524 0.93379 0.0
C2413 C 0.26209 0.25508 0.93772 0.0
C2414 C 0.25537 0.21909 0.93583 0.0
C2415 C 0.24156 0.23074 0.93808 0.0
H2416 H 0.75109 0.21835 0.92552 0.0
H2417 H 0.70864 0.25386 0.93579 0.0
H2418 H 0.72939 0.27815 0.9385 0.0
H2419 H 0.7591 0.2899 0.93246 0.0
H2420 H 0.80099 0.2538 0.92143 0.0
H2421 H 0.7811 0.2292 0.92483 0.0
C2422 C 0.74643 0.23133 0.92882 0.0
C2423 C 0.72839 0.23438 0.93021 0.0
C2424 C 0.75837 0.24521 0.93 0.0
C2425 C 0.7225 0.25119 0.93468 0.0
C2426 C 0.73436 0.26512 0.93605 0.0
C2427 C 0.76394 0.27663 0.93135 0.0
C2428 C 0.78142 0.2737 0.92637 0.0
C2429 C 0.75227 0.26242 0.93294 0.0
C2430 C 0.78752 0.25641 0.92497 0.0
C2431 C 0.77615 0.24232 0.92687 0.0
H2432 H 0.71508 0.75622 0.92991 0.0
H2433 H 0.7503 0.80024 0.92917 0.0
H2434 H 0.77524 0.78082 0.933 0.0
H2435 H 0.78718 0.75138 0.92998 0.0
H2436 H 0.75267 0.70692 0.92963 0.0
H2437 H 0.72733 0.72627 0.93312 0.0
C2438 C 0.72816 0.76153 0.93131 0.0
C2439 C 0.73094 0.77957 0.92908 0.0
C2440 C 0.74258 0.75016 0.93295 0.0
C2441 C 0.74793 0.78635 0.93073 0.0
C2442 C 0.7622 0.77525 0.9328 0.0
C2443 C 0.77414 0.74593 0.9313 0.0
C2444 C 0.77169 0.72787 0.9294 0.0
C2445 C 0.75974 0.75713 0.93292 0.0
C2446 C 0.75481 0.72083 0.93115 0.0
C2447 C 0.74033 0.73192 0.93295 0.0
H2448 H 0.79818 0.75789 0.08527 0.0
H2449 H 0.76263 0.71567 0.07385 0.0
H2450 H 0.73858 0.73657 0.07058 0.0
H2451 H 0.72691 0.76636 0.0762 0.0
H2452 H 0.76289 0.80794 0.0888 0.0
H2453 H 0.78748 0.78792 0.08607 0.0
C2454 C 0.78524 0.75329 0.08168 0.0
C2455 C 0.78214 0.73525 0.08009 0.0
C2456 C 0.77148 0.76531 0.0802 0.0
C2457 C 0.76537 0.7295 0.07518 0.0
C2458 C 0.75158 0.74145 0.07346 0.0
C2459 C 0.74018 0.77111 0.07777 0.0
C2460 C 0.74307 0.78856 0.08291 0.0
C2461 C 0.75433 0.75933 0.07668 0.0
C2462 C 0.76033 0.79453 0.08503 0.0
C2463 C 0.7744 0.78307 0.08355 0.0
H2464 H 0.24824 0.72297 0.07822 0.0
H2465 H 0.20724 0.75985 0.08985 0.0
H2466 H 0.228 0.78395 0.0881 0.0
H2467 H 0.25834 0.79388 0.08846 0.0
H2468 H 0.29994 0.75749 0.07772 0.0
H2469 H 0.27851 0.73398 0.07363 0.0
C2470 C 0.2438 0.73634 0.07976 0.0
C2471 C 0.22627 0.73962 0.08435 0.0
C2472 C 0.25599 0.7502 0.07923 0.0
C2473 C 0.2207 0.757 0.08646 0.0
C2474 C 0.23258 0.77078 0.08556 0.0
C2475 C 0.2627 0.78088 0.08484 0.0
C2476 C 0.28069 0.77736 0.08367 0.0
C2477 C 0.25036 0.76745 0.08279 0.0
C2478 C 0.28614 0.76053 0.07872 0.0
C2479 C 0.27389 0.74705 0.07652 0.0
H2480 H 0.75397 0.21924 0.08879 0.0
H2481 H 0.71017 0.25258 0.07679 0.0
H2482 H 0.72993 0.27755 0.07327 0.0
H2483 H 0.75924 0.29072 0.07853 0.0
H2484 H 0.80243 0.25685 0.0914 0.0
H2485 H 0.78348 0.23135 0.08932 0.0
C2486 C 0.74877 0.2319 0.08504 0.0
C2487 C 0.73062 0.2341 0.08334 0.0
C2488 C 0.76015 0.24619 0.08332 0.0
C2489 C 0.7241 0.25052 0.07822 0.0
C2490 C 0.7354 0.26485 0.07633 0.0
C2491 C 0.76455 0.2777 0.08031 0.0
C2492 C 0.78215 0.27567 0.08531 0.0
C2493 C 0.7534 0.263 0.07954 0.0
C2494 C 0.78887 0.25874 0.08771 0.0
C2495 C 0.77804 0.24414 0.0866 0.0
H2496 H 0.5844 0.75725 0.72005 0.0
H2497 H 0.57687 0.7986 0.75744 0.0
H2498 H 0.57372 0.77697 0.78095 0.0
H2499 H 0.57911 0.74663 0.79132 0.0
H2500 H 0.58814 0.70595 0.75336 0.0
H2501 H 0.58434 0.72683 0.72963 0.0
C2502 C 0.58151 0.76148 0.73328 0.0
C2503 C 0.58104 0.77941 0.7371 0.0
C2504 C 0.58023 0.74904 0.74667 0.0
C2505 C 0.5772 0.78482 0.75421 0.0
C2506 C 0.57561 0.77245 0.76767 0.0
C2507 C 0.57964 0.74228 0.77784 0.0
C2508 C 0.58415 0.72483 0.77408 0.0
C2509 C 0.57797 0.75455 0.76417 0.0
C2510 C 0.5849 0.71935 0.75656 0.0
C2511 C 0.58279 0.7313 0.74298 0.0
H2512 H 0.22188 0.5767 0.7532 0.0
H2513 H 0.25876 0.58429 0.71128 0.0
H2514 H 0.28302 0.58268 0.73187 0.0
H2515 H 0.29318 0.58503 0.76203 0.0
H2516 H 0.25685 0.57868 0.80453 0.0
H2517 H 0.23301 0.57356 0.78363 0.0
C2518 C 0.23526 0.57733 0.74857 0.0
C2519 C 0.23857 0.58077 0.73079 0.0
C2520 C 0.24922 0.57695 0.76065 0.0
C2521 C 0.25594 0.58176 0.72493 0.0
C2522 C 0.26981 0.58095 0.73671 0.0
C2523 C 0.28012 0.58202 0.7667 0.0
C2524 C 0.27668 0.58244 0.78471 0.0
C2525 C 0.26654 0.57947 0.75465 0.0
C2526 C 0.25979 0.57838 0.79068 0.0
C2527 C 0.24614 0.57563 0.77872 0.0
H2528 H 0.42855 0.25386 0.72287 0.0
H2529 H 0.42924 0.20839 0.75603 0.0
H2530 H 0.43084 0.22712 0.78202 0.0
H2531 H 0.42601 0.25658 0.79508 0.0
H2532 H 0.42413 0.30151 0.76109 0.0
H2533 H 0.42944 0.28301 0.73575 0.0
C2534 C 0.42964 0.24807 0.73579 0.0
C2535 C 0.42863 0.22985 0.73761 0.0
C2536 C 0.43012 0.2589 0.75056 0.0
C2537 C 0.4301 0.22242 0.75434 0.0
C2538 C 0.4308 0.23315 0.7692 0.0
C2539 C 0.42742 0.26231 0.78219 0.0
C2540 C 0.42453 0.28033 0.77988 0.0
C2541 C 0.42996 0.25144 0.76749 0.0
C2542 C 0.4262 0.28764 0.76312 0.0
C2543 C 0.42914 0.27706 0.74861 0.0
H2544 H 0.72104 0.43083 0.75907 0.0
H2545 H 0.75525 0.43113 0.80378 0.0
H2546 H 0.78072 0.43423 0.78457 0.0
H2547 H 0.79315 0.43026 0.75481 0.0
H2548 H 0.75829 0.42881 0.71055 0.0
H2549 H 0.73323 0.43331 0.72966 0.0
C2550 C 0.73405 0.43221 0.76459 0.0
C2551 C 0.73638 0.43056 0.78269 0.0
C2552 C 0.74854 0.43361 0.75347 0.0
C2553 C 0.7532 0.43242 0.78982 0.0
C2554 C 0.76777 0.434 0.77882 0.0
C2555 C 0.78013 0.43169 0.74937 0.0
C2556 C 0.77747 0.42908 0.73137 0.0
C2557 C 0.76564 0.43368 0.76058 0.0
C2558 C 0.76056 0.43073 0.7244 0.0
C2559 C 0.74622 0.43315 0.73533 0.0
H2560 H 0.57659 0.21943 0.26043 0.0
H2561 H 0.58105 0.25665 0.30255 0.0
H2562 H 0.57823 0.28076 0.28193 0.0
H2563 H 0.5806 0.29104 0.25184 0.0
H2564 H 0.57764 0.25441 0.20923 0.0
H2565 H 0.57337 0.23032 0.23 0.0
C2566 C 0.57632 0.23281 0.26511 0.0
C2567 C 0.5793 0.2363 0.28294 0.0
C2568 C 0.57525 0.24671 0.25304 0.0
C2569 C 0.57901 0.25368 0.28885 0.0
C2570 C 0.57746 0.26747 0.27706 0.0
C2571 C 0.57847 0.27784 0.24711 0.0
C2572 C 0.57964 0.2744 0.22913 0.0
C2573 C 0.57652 0.26413 0.2591 0.0
C2574 C 0.57674 0.25733 0.22305 0.0
C2575 C 0.5745 0.24355 0.23495 0.0
H2576 H 0.79646 0.57978 0.25766 0.0
H2577 H 0.75995 0.58894 0.29958 0.0
H2578 H 0.7355 0.58615 0.27935 0.0
H2579 H 0.72492 0.58652 0.2493 0.0
H2580 H 0.76081 0.57876 0.20667 0.0
H2581 H 0.785 0.57521 0.22749 0.0
C2582 C 0.78312 0.58056 0.26239 0.0
C2583 C 0.77998 0.58471 0.28004 0.0
C2584 C 0.76903 0.57948 0.25049 0.0
C2585 C 0.76266 0.58588 0.28602 0.0
C2586 C 0.74868 0.58437 0.27445 0.0
C2587 C 0.73797 0.5836 0.24459 0.0
C2588 C 0.74115 0.58313 0.22652 0.0
C2589 C 0.75176 0.58201 0.25657 0.0
C2590 C 0.75805 0.57915 0.22054 0.0
C2591 C 0.77191 0.5773 0.23246 0.0
H2592 H 0.42893 0.71438 0.2477 0.0
H2593 H 0.43331 0.74949 0.20392 0.0
H2594 H 0.43617 0.77441 0.22389 0.0
H2595 H 0.43181 0.78641 0.25381 0.0
H2596 H 0.42733 0.75059 0.29714 0.0
H2597 H 0.43064 0.72582 0.27749 0.0
C2598 C 0.43105 0.72745 0.24258 0.0
C2599 C 0.43073 0.73018 0.22445 0.0
C2600 C 0.43252 0.74163 0.2541 0.0
C2601 C 0.43357 0.7471 0.21788 0.0
C2602 C 0.43505 0.76136 0.2293 0.0
C2603 C 0.43222 0.77321 0.25897 0.0
C2604 C 0.42904 0.77031 0.27685 0.0
C2605 C 0.43375 0.75887 0.24745 0.0
C2606 C 0.42952 0.75313 0.28338 0.0
C2607 C 0.43132 0.73893 0.27214 0.0
H2608 H 0.25278 0.43103 0.21721 0.0
H2609 H 0.29437 0.43371 0.2552 0.0
H2610 H 0.2732 0.43814 0.27855 0.0
H2611 H 0.24311 0.43487 0.28871 0.0
H2612 H 0.20107 0.43108 0.25148 0.0
H2613 H 0.22198 0.43379 0.22729 0.0
C2614 C 0.25717 0.43327 0.23051 0.0
C2615 C 0.27507 0.43184 0.23455 0.0
C2616 C 0.2448 0.43527 0.24404 0.0
C2617 C 0.28063 0.43461 0.25184 0.0
C2618 C 0.26853 0.43704 0.26521 0.0
C2619 C 0.23851 0.43527 0.27529 0.0
C2620 C 0.22069 0.43266 0.27179 0.0
C2621 C 0.2506 0.43643 0.26158 0.0
C2622 C 0.21476 0.43319 0.25443 0.0
C2623 C 0.22675 0.43453 0.24061 0.0
H2624 H 0.75912 0.57726 0.78893 0.0
H2625 H 0.71701 0.57729 0.75143 0.0
H2626 H 0.73782 0.57446 0.72754 0.0
H2627 H 0.76787 0.57807 0.71717 0.0
H2628 H 0.81043 0.57829 0.75402 0.0
H2629 H 0.78974 0.57472 0.77826 0.0
C2630 C 0.75453 0.57592 0.77558 0.0
C2631 C 0.73658 0.57769 0.77191 0.0
C2632 C 0.76669 0.57476 0.76176 0.0
C2633 C 0.73078 0.5761 0.75454 0.0
C2634 C 0.74268 0.57462 0.74085 0.0
C2635 C 0.77261 0.5768 0.73048 0.0
C2636 C 0.79054 0.57863 0.73389 0.0
C2637 C 0.76066 0.5749 0.74426 0.0
C2638 C 0.79664 0.57687 0.75113 0.0
C2639 C 0.78479 0.57498 0.76499 0.0
H2640 H 0.42729 0.75876 0.72626 0.0
H2641 H 0.43262 0.80359 0.75988 0.0
H2642 H 0.43652 0.78432 0.78524 0.0
H2643 H 0.43289 0.75468 0.79827 0.0
H2644 H 0.42659 0.7104 0.76397 0.0
H2645 H 0.429 0.72936 0.73851 0.0
C2646 C 0.42978 0.7643 0.73909 0.0
C2647 C 0.42945 0.78251 0.74127 0.0
C2648 C 0.43168 0.75318 0.75354 0.0
C2649 C 0.43285 0.78957 0.75789 0.0
C2650 C 0.43491 0.77854 0.77241 0.0
C2651 C 0.43268 0.74918 0.78521 0.0
C2652 C 0.42938 0.7312 0.78297 0.0
C2653 C 0.43358 0.76031 0.7705 0.0
C2654 C 0.42897 0.72422 0.76599 0.0
C2655 C 0.43026 0.73506 0.75142 0.0
H2656 H 0.28983 0.42757 0.76741 0.0
H2657 H 0.25319 0.43385 0.80963 0.0
H2658 H 0.22896 0.43532 0.78863 0.0
H2659 H 0.21803 0.42912 0.75856 0.0
H2660 H 0.25538 0.42179 0.71701 0.0
H2661 H 0.27944 0.42679 0.73727 0.0
C2662 C 0.27658 0.42977 0.77196 0.0
C2663 C 0.27324 0.4304 0.78999 0.0
C2664 C 0.26279 0.43021 0.75988 0.0
C2665 C 0.25607 0.43339 0.79578 0.0
C2666 C 0.2422 0.43403 0.78377 0.0
C2667 C 0.23142 0.42923 0.7539 0.0
C2668 C 0.23497 0.42488 0.73638 0.0
C2669 C 0.24533 0.43164 0.76582 0.0
C2670 C 0.25237 0.42493 0.73049 0.0
C2671 C 0.26614 0.42771 0.74208 0.0
H2672 H 0.58689 0.29232 0.75719 0.0
H2673 H 0.57456 0.257 0.79925 0.0
H2674 H 0.5719 0.23277 0.77836 0.0
H2675 H 0.57784 0.22102 0.74857 0.0
H2676 H 0.59031 0.25715 0.70705 0.0
H2677 H 0.58781 0.28162 0.72714 0.0
C2678 C 0.5832 0.27939 0.76172 0.0
C2679 C 0.5811 0.27638 0.7797 0.0
C2680 C 0.58189 0.2656 0.7497 0.0
C2681 C 0.57618 0.25963 0.78543 0.0
C2682 C 0.57482 0.24575 0.77349 0.0
C2683 C 0.57949 0.23428 0.74385 0.0
C2684 C 0.58457 0.23719 0.72637 0.0
C2685 C 0.57831 0.24845 0.75564 0.0
C2686 C 0.58667 0.25449 0.72047 0.0
C2687 C 0.58529 0.26853 0.73197 0.0
H2688 H 0.79163 0.43113 0.2609 0.0
H2689 H 0.75806 0.41692 0.30394 0.0
H2690 H 0.73242 0.4198 0.28534 0.0
H2691 H 0.72003 0.42144 0.256 0.0
H2692 H 0.75293 0.43507 0.21238 0.0
H2693 H 0.77816 0.43768 0.23198 0.0
C2694 C 0.77866 0.42918 0.26628 0.0
C2695 C 0.77679 0.42353 0.28371 0.0
C2696 C 0.76383 0.43051 0.25533 0.0
C2697 C 0.75988 0.42102 0.2905 0.0
C2698 C 0.74519 0.42262 0.27987 0.0
C2699 C 0.73264 0.42539 0.25084 0.0
C2700 C 0.73466 0.42782 0.23276 0.0
C2701 C 0.74707 0.42657 0.26211 0.0
C2702 C 0.75102 0.43313 0.22627 0.0
C2703 C 0.7655 0.43447 0.23747 0.0
H2704 H 0.5856 0.75284 0.2831 0.0
H2705 H 0.57982 0.7986 0.25084 0.0
H2706 H 0.57745 0.7801 0.22472 0.0
H2707 H 0.58257 0.75105 0.21084 0.0
H2708 H 0.58934 0.70588 0.24391 0.0
H2709 H 0.5854 0.72385 0.26986 0.0
C2710 C 0.58331 0.75872 0.27039 0.0
C2711 C 0.58307 0.77699 0.26882 0.0
C2712 C 0.58233 0.74805 0.25552 0.0
C2713 C 0.57999 0.78452 0.25235 0.0
C2714 C 0.57882 0.77394 0.2374 0.0
C2715 C 0.58257 0.74512 0.22372 0.0
C2716 C 0.58643 0.72721 0.2255 0.0
C2717 C 0.58076 0.7557 0.23875 0.0
C2718 C 0.58655 0.71967 0.24225 0.0
C2719 C 0.58438 0.72995 0.25711 0.0
H2720 H 0.28669 0.57997 0.24889 0.0
H2721 H 0.24986 0.57951 0.20633 0.0
H2722 H 0.2256 0.57627 0.22707 0.0
H2723 H 0.21495 0.57988 0.25759 0.0
H2724 H 0.25244 0.58141 0.29965 0.0
H2725 H 0.27633 0.57738 0.27899 0.0
C2726 C 0.27338 0.57854 0.24417 0.0
C2727 C 0.26997 0.58011 0.22622 0.0
C2728 C 0.2596 0.57703 0.25615 0.0
C2729 C 0.25274 0.57823 0.22014 0.0
C2730 C 0.23888 0.57657 0.23201 0.0
C2731 C 0.22829 0.57857 0.26222 0.0
C2732 C 0.23201 0.58105 0.28006 0.0
C2733 C 0.2421 0.57683 0.25011 0.0
C2734 C 0.24934 0.57959 0.28595 0.0
C2735 C 0.26301 0.57743 0.27413 0.0
H2736 H 0.43136 0.22157 0.2565 0.0
H2737 H 0.41869 0.25608 0.29921 0.0
H2738 H 0.42147 0.28135 0.28007 0.0
H2739 H 0.42201 0.29305 0.25037 0.0
H2740 H 0.43418 0.2592 0.20711 0.0
H2741 H 0.43739 0.23438 0.22718 0.0
C2742 C 0.42983 0.23466 0.26169 0.0
C2743 C 0.42458 0.23696 0.27917 0.0
C2744 C 0.43103 0.24925 0.25043 0.0
C2745 C 0.42253 0.25399 0.28574 0.0
C2746 C 0.42403 0.26846 0.27479 0.0
C2747 C 0.42583 0.28032 0.24542 0.0
C2748 C 0.42763 0.27786 0.22733 0.0
C2749 C 0.42741 0.26617 0.25697 0.0
C2750 C 0.43274 0.26139 0.22102 0.0
C2751 C 0.43442 0.24717 0.23249 0.0
H2752 H 0.75555 0.71983 0.58336 0.0
H2753 H 0.79963 0.75469 0.57957 0.0
H2754 H 0.7798 0.77969 0.57638 0.0
H2755 H 0.74988 0.79185 0.58023 0.0
H2756 H 0.70632 0.75632 0.58498 0.0
H2757 H 0.72587 0.73142 0.58185 0.0
C2758 C 0.76081 0.73286 0.58137 0.0
C2759 C 0.77897 0.73548 0.58193 0.0
C2760 C 0.74937 0.7471 0.5799 0.0
C2761 C 0.78567 0.75236 0.57915 0.0
C2762 C 0.77432 0.76667 0.5775 0.0
C2763 C 0.74466 0.77867 0.57998 0.0
C2764 C 0.72671 0.77591 0.58309 0.0
C2765 C 0.75612 0.76428 0.57865 0.0
C2766 C 0.72011 0.75876 0.58282 0.0
C2767 C 0.73129 0.7445 0.58111 0.0
H2768 H 0.76495 0.29042 0.43168 0.0
H2769 H 0.80555 0.25148 0.43069 0.0
H2770 H 0.78371 0.22836 0.43505 0.0
H2771 H 0.75258 0.21927 0.43273 0.0
H2772 H 0.71245 0.2588 0.43217 0.0
H2773 H 0.73447 0.28163 0.43535 0.0
C2774 C 0.76904 0.2769 0.43301 0.0
C2775 C 0.78672 0.27257 0.43067 0.0
C2776 C 0.75642 0.26377 0.43507 0.0
C2777 C 0.79197 0.25508 0.4325 0.0
C2778 C 0.77946 0.24187 0.43481 0.0
C2779 C 0.74868 0.23283 0.43405 0.0
C2780 C 0.73097 0.23742 0.4321 0.0
C2781 C 0.76155 0.24601 0.43521 0.0
C2782 C 0.72604 0.25503 0.43358 0.0
C2783 C 0.73863 0.26809 0.43526 0.0
H2784 H 0.79045 0.75477 0.43237 0.0
H2785 H 0.75556 0.71091 0.42635 0.0
H2786 H 0.73033 0.7301 0.42917 0.0
H2787 H 0.71844 0.7597 0.42736 0.0
H2788 H 0.75269 0.80405 0.43299 0.0
H2789 H 0.77783 0.78448 0.43655 0.0
C2790 C 0.77733 0.7494 0.43241 0.0
C2791 C 0.77482 0.7315 0.42902 0.0
C2792 C 0.76275 0.76067 0.43356 0.0
C2793 C 0.75776 0.72468 0.42888 0.0
C2794 C 0.74332 0.73566 0.43034 0.0
C2795 C 0.73135 0.76504 0.42988 0.0
C2796 C 0.7338 0.78321 0.4297 0.0
C2797 C 0.74568 0.75374 0.43175 0.0
C2798 C 0.75052 0.79005 0.43311 0.0
C2799 C 0.76491 0.77886 0.43499 0.0
H2800 H 0.22177 0.75401 0.43239 0.0
H2801 H 0.2554 0.71019 0.42119 0.0
H2802 H 0.28106 0.72892 0.42323 0.0
H2803 H 0.29344 0.75832 0.42311 0.0
H2804 H 0.26039 0.80271 0.43346 0.0
H2805 H 0.23517 0.78329 0.43717 0.0
C2806 C 0.23476 0.74852 0.43097 0.0
C2807 C 0.23668 0.7308 0.42642 0.0
C2808 C 0.24957 0.75954 0.43172 0.0
C2809 C 0.25359 0.72385 0.4245 0.0
C2810 C 0.26828 0.73456 0.42559 0.0
C2811 C 0.28079 0.76372 0.42657 0.0
C2812 C 0.27874 0.78192 0.42774 0.0
C2813 C 0.26636 0.75253 0.42838 0.0
C2814 C 0.26233 0.78872 0.43247 0.0
C2815 C 0.24786 0.77762 0.43445 0.0
H2816 H 0.25686 0.22875 0.43261 0.0
H2817 H 0.29897 0.26558 0.42554 0.0
H2818 H 0.27877 0.2899 0.42923 0.0
H2819 H 0.24863 0.30048 0.42856 0.0
H2820 H 0.20601 0.26419 0.4349 0.0
H2821 H 0.22679 0.23997 0.4377 0.0
C2822 C 0.26166 0.2421 0.43258 0.0
C2823 C 0.27933 0.24541 0.42863 0.0
C2824 C 0.2498 0.25613 0.4342 0.0
C2825 C 0.28539 0.26275 0.42844 0.0
C2826 C 0.27383 0.27667 0.43042 0.0
C2827 C 0.24393 0.28732 0.43102 0.0
C2828 C 0.22586 0.28406 0.43125 0.0
C2829 C 0.25591 0.27351 0.43237 0.0
C2830 C 0.21989 0.26702 0.43466 0.0
C2831 C 0.23177 0.25314 0.43611 0.0
H2832 H 0.25046 0.29069 0.58723 0.0
H2833 H 0.20742 0.2554 0.57837 0.0
H2834 H 0.22794 0.23107 0.57468 0.0
H2835 H 0.25793 0.21918 0.57908 0.0
H2836 H 0.30032 0.25504 0.58906 0.0
H2837 H 0.28038 0.27973 0.5869 0.0
C2838 C 0.24558 0.27774 0.5841 0.0
C2839 C 0.22746 0.2748 0.58334 0.0
C2840 C 0.25739 0.26383 0.58236 0.0
C2841 C 0.22133 0.25801 0.57904 0.0
C2842 C 0.23306 0.24406 0.57708 0.0
C2843 C 0.26283 0.23244 0.58022 0.0
C2844 C 0.28053 0.23529 0.58442 0.0
C2845 C 0.25111 0.24668 0.57944 0.0
C2846 C 0.28671 0.25252 0.586 0.0
C2847 C 0.2753 0.26666 0.58483 0.0
H2848 H 0.76027 0.28879 0.58137 0.0
H2849 H 0.80468 0.2544 0.57798 0.0
H2850 H 0.78515 0.22915 0.57494 0.0
H2851 H 0.75535 0.21666 0.57894 0.0
H2852 H 0.7114 0.25171 0.58269 0.0
H2853 H 0.73069 0.27683 0.57938 0.0
C2854 C 0.76565 0.27581 0.57946 0.0
C2855 C 0.78381 0.27339 0.58013 0.0
C2856 C 0.75437 0.26142 0.5779 0.0
C2857 C 0.79069 0.25656 0.57749 0.0
C2858 C 0.77952 0.2421 0.5759 0.0
C2859 C 0.75 0.22977 0.57832 0.0
C2860 C 0.73203 0.23238 0.58124 0.0
C2861 C 0.76131 0.2443 0.57687 0.0
C2862 C 0.72523 0.24943 0.58059 0.0
C2863 C 0.73626 0.26381 0.57883 0.0
H2864 H 0.29962 0.76359 0.58267 0.0
H2865 H 0.26123 0.80435 0.57708 0.0
H2866 H 0.23806 0.78237 0.57388 0.0
H2867 H 0.22842 0.75167 0.57856 0.0
H2868 H 0.26742 0.71146 0.58484 0.0
H2869 H 0.29064 0.73297 0.58138 0.0
C2870 C 0.28624 0.76762 0.5802 0.0
C2871 C 0.28204 0.78546 0.5803 0.0
C2872 C 0.27306 0.75496 0.57866 0.0
C2873 C 0.26473 0.79063 0.577 0.0
C2874 C 0.25147 0.77806 0.57534 0.0
C2875 C 0.24199 0.74758 0.5785 0.0
C2876 C 0.24623 0.73007 0.58221 0.0
C2877 C 0.25539 0.76018 0.57698 0.0
C2878 C 0.26387 0.72492 0.58221 0.0
C2879 C 0.27716 0.73722 0.58033 0.0
H2880 H 0.03264 0.21503 0.34904 0.0
H2881 H 0.03924 0.17221 0.31292 0.0
H2882 H 0.00771 0.16796 0.31176 0.0
H2883 H 0.97819 0.17743 0.3194 0.0
H2884 H 0.97095 0.22059 0.35491 0.0
H2885 H 1.00269 0.22354 0.35803 0.0
C2886 C 0.02718 0.20466 0.34107 0.0
C2887 C 0.03835 0.19402 0.33101 0.0
C2888 C 0.00888 0.20237 0.34029 0.0
C2889 C 0.03101 0.18066 0.32073 0.0
C2890 C 0.01294 0.17821 0.32004 0.0
C2891 C 0.98351 0.18739 0.32798 0.0
C2892 C 0.97216 0.19881 0.33685 0.0
C2893 C 1.00174 0.18915 0.32952 0.0
C2894 C 0.97935 0.21161 0.34792 0.0
C2895 C 0.99753 0.21334 0.34966 0.0
H2896 H 0.82815 0.97684 0.32199 0.0
H2897 H 0.7834 0.97044 0.35565 0.0
H2898 H 0.78077 1.00225 0.35837 0.0
H2899 H 0.7904 0.0321 0.34983 0.0
H2900 H 0.83507 0.03767 0.31578 0.0
H2901 H 0.83845 0.00612 0.31462 0.0
C2902 C 0.81789 0.98235 0.33006 0.0
C2903 C 0.80597 0.97122 0.33856 0.0
C2904 C 0.81636 1.00061 0.33141 0.0
C2905 C 0.79278 0.97868 0.34897 0.0
C2906 C 0.79123 0.99689 0.35048 0.0
C2907 C 0.80093 0.02639 0.34226 0.0
C2908 C 0.81239 0.03734 0.33284 0.0
C2909 C 0.80281 0.00803 0.34155 0.0
C2910 C 0.82598 0.02966 0.32312 0.0
C2911 C 0.82796 0.01156 0.32243 0.0
H2912 H 0.97735 0.79074 0.34735 0.0
H2913 H 0.97257 0.84134 0.32277 0.0
H2914 H 1.00415 0.84448 0.32237 0.0
H2915 H 0.03325 0.83253 0.32747 0.0
H2916 H 0.03899 0.78203 0.35185 0.0
H2917 H 0.00711 0.77928 0.35397 0.0
C2918 C 0.98324 0.8025 0.34208 0.0
C2919 C 0.97249 0.81572 0.33502 0.0
C2920 C 1.00165 0.80425 0.34177 0.0
C2921 C 0.98041 0.83088 0.32822 0.0
C2922 C 0.99854 0.83272 0.32796 0.0
C2923 C 0.02758 0.82094 0.33337 0.0
C2924 C 0.03854 0.80748 0.33941 0.0
C2925 C 0.00929 0.81942 0.33446 0.0
C2926 C 0.03089 0.79262 0.34709 0.0
C2927 C 0.01263 0.79101 0.34826 0.0
H2928 H 0.21681 0.03325 0.35036 0.0
H2929 H 0.17468 0.03936 0.31326 0.0
H2930 H 0.17135 0.00783 0.31135 0.0
H2931 H 0.18105 0.97832 0.31909 0.0
H2932 H 0.22315 0.97166 0.35603 0.0
H2933 H 0.2257 1.00336 0.35918 0.0
C2934 C 0.20683 0.02766 0.34197 0.0
C2935 C 0.19609 0.03875 0.33193 0.0
C2936 C 0.20496 0.00933 0.34084 0.0
C2937 C 0.18321 0.03123 0.32112 0.0
C2938 C 0.18127 0.01313 0.31998 0.0
C2939 C 0.1907 0.98378 0.32794 0.0
C2940 C 0.2019 0.97258 0.33726 0.0
C2941 C 0.19217 1.00204 0.32962 0.0
C2942 C 0.21433 0.97994 0.34868 0.0
C2943 C 0.21584 0.99811 0.35046 0.0
H2944 H 0.03507 0.82442 0.68998 0.0
H2945 H 0.03825 0.78158 0.65349 0.0
H2946 H 0.0063 0.78059 0.65162 0.0
H2947 H 0.97727 0.79117 0.66137 0.0
H2948 H 0.97463 0.83412 0.69786 0.0
H2949 H 0.00642 0.83576 0.69864 0.0
C2950 C 0.02881 0.81492 0.68152 0.0
C2951 C 0.0391 0.80305 0.67194 0.0
C2952 C 0.01044 0.81439 0.68055 0.0
C2953 C 0.0307 0.79089 0.66101 0.0
C2954 C 0.01239 0.79028 0.65997 0.0
C2955 C 0.98366 0.80095 0.66941 0.0
C2956 C 0.97348 0.81245 0.67959 0.0
C2957 C 1.0021 0.80185 0.66983 0.0
C2958 C 0.98204 0.82506 0.6899 0.0
C2959 C 1.00027 0.82602 0.69038 0.0
H2960 H 0.18142 0.03164 0.6821 0.0
H2961 H 0.23185 0.03513 0.65721 0.0
H2962 H 0.23277 1.00317 0.65448 0.0
H2963 H 0.21982 0.97397 0.66093 0.0
H2964 H 0.16929 0.97151 0.68598 0.0
H2965 H 0.16786 1.00322 0.68677 0.0
C2966 C 0.1926 0.02546 0.67596 0.0
C2967 C 0.2066 0.03578 0.66998 0.0
C2968 C 0.19305 0.00717 0.67451 0.0
C2969 C 0.22088 0.02751 0.66193 0.0
C2970 C 0.22144 0.00921 0.66042 0.0
C2971 C 0.20843 0.9804 0.66637 0.0
C2972 C 0.19473 0.97028 0.67348 0.0
C2973 C 0.20769 0.99886 0.66691 0.0
C2974 C 0.18008 0.97887 0.6805 0.0
C2975 C 0.17923 0.99706 0.68099 0.0
H2976 H 0.97947 0.17703 0.69676 0.0
H2977 H 0.97689 0.21507 0.65519 0.0
H2978 H 0.00878 0.21669 0.65445 0.0
H2979 H 0.03748 0.20846 0.66668 0.0
H2980 H 0.0399 0.17042 0.70828 0.0
H2981 H 0.00813 0.16765 0.70788 0.0
C2982 C 0.98587 0.18555 0.68742 0.0
C2983 C 0.97574 0.19595 0.67609 0.0
C2984 C 1.00426 0.18652 0.68713 0.0
C2985 C 0.98431 0.20691 0.66407 0.0
C2986 C 1.00259 0.2079 0.66367 0.0
C2987 C 0.03107 0.19948 0.67558 0.0
C2988 C 0.04112 0.18974 0.68755 0.0
C2989 C 0.0127 0.19795 0.67531 0.0
C2990 C 0.03255 0.17812 0.69894 0.0
C2991 C 0.01434 0.17653 0.69875 0.0
H2992 H 0.83082 0.03219 0.69049 0.0
H2993 H 0.78567 0.03681 0.65699 0.0
H2994 H 0.78288 1.00487 0.6562 0.0
H2995 H 0.79256 0.97555 0.6663 0.0
H2996 H 0.83747 0.97175 0.70032 0.0
H2997 H 0.84101 1.00336 0.69959 0.0
C2998 C 0.82042 0.02626 0.68289 0.0
C2999 C 0.80846 0.03694 0.67384 0.0
C3000 C 0.81879 0.00796 0.68266 0.0
C3001 C 0.79508 0.02894 0.66407 0.0
C3002 C 0.79345 0.01066 0.66366 0.0
C3003 C 0.80319 0.98164 0.67344 0.0
C3004 C 0.8147 0.9712 0.6834 0.0
C3005 C 0.80511 1.00001 0.67309 0.0
C3006 C 0.82837 0.97937 0.6926 0.0
C3007 C 0.83043 0.9975 0.6922 0.0
H3008 H 0.34637 0.97915 0.21755 0.0
H3009 H 0.31406 0.97281 0.1717 0.0
H3010 H 0.31175 1.00435 0.1686 0.0
H3011 H 0.3174 0.03383 0.17956 0.0
H3012 H 0.34934 0.04099 0.22546 0.0
H3013 H 0.35332 0.00929 0.22781 0.0
C3014 C 0.33903 0.9847 0.20677 0.0
C3015 C 0.33037 0.97351 0.19492 0.0
C3016 C 0.33754 1.00308 0.20512 0.0
C3017 C 0.32081 0.98099 0.18109 0.0
C3018 C 0.31944 0.9991 0.17929 0.0
C3019 C 0.32533 0.02851 0.19004 0.0
C3020 C 0.33298 0.03985 0.20235 0.0
C3021 C 0.3275 0.01027 0.19135 0.0
C3022 C 0.34326 0.03262 0.21579 0.0
C3023 C 0.34553 0.01445 0.21716 0.0
H3024 H 0.97511 0.32138 0.17832 0.0
H3025 H 0.96911 0.34884 0.22714 0.0
H3026 H 1.00095 0.35146 0.22978 0.0
H3027 H 0.03077 0.34413 0.21898 0.0
H3028 H 0.03582 0.31646 0.17005 0.0
H3029 H 1.00427 0.31584 0.16675 0.0
C3030 C 0.98072 0.32809 0.18948 0.0
C3031 C 0.9697 0.33481 0.20254 0.0
C3032 C 0.99899 0.32943 0.19097 0.0
C3033 C 0.97726 0.34354 0.21686 0.0
C3034 C 0.9955 0.34498 0.21842 0.0
C3035 C 0.02495 0.33814 0.20753 0.0
C3036 C 0.03576 0.33024 0.19487 0.0
C3037 C 0.00655 0.33771 0.20567 0.0
C3038 C 0.02793 0.32254 0.1801 0.0
C3039 C 0.00981 0.32216 0.17815 0.0
H3040 H 0.65879 0.97972 0.21473 0.0
H3041 H 0.6983 0.97426 0.17486 0.0
H3042 H 0.70041 0.0059 0.1722 0.0
H3043 H 0.69239 0.03526 0.18226 0.0
H3044 H 0.6531 0.04113 0.22223 0.0
H3045 H 0.64952 0.0094 0.22368 0.0
C3046 C 0.6677 0.98546 0.20533 0.0
C3047 C 0.6784 0.97455 0.19508 0.0
C3048 C 0.669 1.00383 0.20393 0.0
C3049 C 0.68992 0.98227 0.18298 0.0
C3050 C 0.69119 1.00042 0.18145 0.0
C3051 C 0.68294 0.02962 0.1912 0.0
C3052 C 0.6731 0.04061 0.20216 0.0
C3053 C 0.681 0.01134 0.19204 0.0
C3054 C 0.66088 0.03303 0.21363 0.0
C3055 C 0.65884 0.01484 0.2145 0.0
H3056 H 0.03445 0.69218 0.18168 0.0
H3057 H 0.03956 0.6604 0.22795 0.0
H3058 H 0.00764 0.65799 0.22995 0.0
H3059 H 0.978 0.66669 0.21947 0.0
H3060 H 0.97389 0.69871 0.17315 0.0
H3061 H 1.0055 0.69913 0.17028 0.0
C3062 C 0.02863 0.68459 0.19215 0.0
C3063 C 0.03944 0.67657 0.20469 0.0
C3064 C 0.01032 0.68336 0.19327 0.0
C3065 C 0.03159 0.66671 0.21809 0.0
C3066 C 0.0133 0.66538 0.21928 0.0
C3067 C 0.98404 0.67357 0.20865 0.0
C3068 C 0.97347 0.68276 0.19663 0.0
C3069 C 1.00248 0.6739 0.20708 0.0
C3070 C 0.98159 0.69162 0.1827 0.0
C3071 C 0.99974 0.6919 0.18101 0.0
H3072 H 0.31551 0.97541 0.82717 0.0
H3073 H 0.34894 0.96792 0.78243 0.0
H3074 H 0.35355 0.99955 0.78038 0.0
H3075 H 0.34679 0.02959 0.79051 0.0
H3076 H 0.31315 0.03642 0.83528 0.0
H3077 H 0.31001 1.0049 0.83809 0.0
C3078 C 0.32391 0.98065 0.81702 0.0
C3079 C 0.33179 0.96929 0.80493 0.0
C3080 C 0.32642 0.99881 0.81588 0.0
C3081 C 0.34269 0.97636 0.79192 0.0
C3082 C 0.3453 0.99446 0.79071 0.0
C3083 C 0.33891 0.02416 0.80096 0.0
C3084 C 0.33016 0.03543 0.81261 0.0
C3085 C 0.33705 0.00586 0.8025 0.0
C3086 C 0.31999 0.02814 0.82608 0.0
C3087 C 0.31815 0.01006 0.82771 0.0
H3088 H 0.0316 0.32507 0.83296 0.0
H3089 H 0.0376 0.3495 0.78253 0.0
H3090 H 0.0057 0.3511 0.77939 0.0
H3091 H 0.97589 0.34347 0.79027 0.0
H3092 H 0.97099 0.31863 0.84072 0.0
H3093 H 1.00251 0.3194 0.84452 0.0
C3094 C 0.02598 0.3309 0.82131 0.0
C3095 C 0.03702 0.33704 0.80796 0.0
C3096 C 0.00771 0.33163 0.81955 0.0
C3097 C 0.02943 0.34466 0.79303 0.0
C3098 C 0.01117 0.34552 0.7912 0.0
C3099 C 0.98174 0.33846 0.80217 0.0
C3100 C 0.971 0.33088 0.81513 0.0
C3101 C 1.00013 0.33876 0.80427 0.0
C3102 C 0.97885 0.32441 0.83046 0.0
C3103 C 0.99693 0.32482 0.83267 0.0
H3104 H 0.6649 0.03736 0.79283 0.0
H3105 H 0.69909 0.0409 0.83762 0.0
H3106 H 0.69821 0.00927 0.84108 0.0
H3107 H 0.68891 0.98051 0.83084 0.0
H3108 H 0.65521 0.97617 0.78583 0.0
H3109 H 0.6546 0.00811 0.78311 0.0
C3110 C 0.67205 0.03121 0.80341 0.0
C3111 C 0.6821 0.04157 0.81491 0.0
C3112 C 0.67161 0.01283 0.80529 0.0
C3113 C 0.6913 0.03333 0.82853 0.0
C3114 C 0.69081 0.01519 0.83054 0.0
C3115 C 0.68131 0.9865 0.82049 0.0
C3116 C 0.67214 0.97589 0.80854 0.0
C3117 C 0.68118 1.00481 0.8189 0.0
C3118 C 0.66237 0.98398 0.79523 0.0
C3119 C 0.66207 1.00226 0.79364 0.0
H3120 H 0.97884 0.6638 0.78826 0.0
H3121 H 0.97559 0.69223 0.83691 0.0
H3122 H 0.00717 0.69156 0.83981 0.0
H3123 H 0.03584 0.68437 0.82817 0.0
H3124 H 0.04025 0.65637 0.77949 0.0
H3125 H 0.00826 0.65527 0.77708 0.0
C3126 C 0.98506 0.66969 0.79955 0.0
C3127 C 0.97476 0.67814 0.81229 0.0
C3128 C 1.0035 0.6694 0.80115 0.0
C3129 C 0.98309 0.68574 0.82682 0.0
C3130 C 1.00122 0.68537 0.82854 0.0
C3131 C 0.02986 0.6779 0.81706 0.0
C3132 C 0.04047 0.67053 0.80401 0.0
C3133 C 0.01156 0.67747 0.8157 0.0
C3134 C 0.03241 0.66215 0.78975 0.0
C3135 C 0.0141 0.66157 0.78834 0.0
H3136 H 0.21602 0.34312 0.03524 0.0
H3137 H 0.1739 0.30589 0.04057 0.0
H3138 H 0.16967 0.30576 0.00905 0.0
H3139 H 0.17874 0.31486 0.9798 0.0
H3140 H 0.22099 0.35173 0.97378 0.0
H3141 H 0.22419 0.35348 0.00559 0.0
C3142 C 0.20584 0.33509 0.0295 0.0
C3143 C 0.19538 0.32446 0.04034 0.0
C3144 C 0.20348 0.33498 0.01118 0.0
C3145 C 0.18223 0.31415 0.03263 0.0
C3146 C 0.17977 0.31405 0.01455 0.0
C3147 C 0.18855 0.32343 0.98541 0.0
C3148 C 0.19963 0.33311 0.97437 0.0
C3149 C 0.19044 0.32422 1.00368 0.0
C3150 C 0.21226 0.34414 0.98194 0.0
C3151 C 0.21415 0.34509 1.00016 0.0
H3152 H 0.17884 0.69516 0.9766 0.0
H3153 H 0.2254 0.66395 0.97091 0.0
H3154 H 0.22799 0.66169 1.00275 0.0
H3155 H 0.21761 0.66977 0.03248 0.0
H3156 H 0.17098 0.70116 0.03741 0.0
H3157 H 0.1679 0.70209 0.0058 0.0
C3158 C 0.1895 0.68775 0.98228 0.0
C3159 C 0.20192 0.67978 0.97131 0.0
C3160 C 0.19097 0.68659 1.00059 0.0
C3161 C 0.21562 0.67021 0.97899 0.0
C3162 C 0.21715 0.66896 0.99724 0.0
C3163 C 0.20673 0.67671 0.02663 0.0
C3164 C 0.19461 0.68544 0.03743 0.0
C3165 C 0.20499 0.67727 0.00822 0.0
C3166 C 0.18057 0.69435 0.02954 0.0
C3167 C 0.17877 0.69492 0.01139 0.0
H3168 H 0.32924 0.1767 0.03112 0.0
H3169 H 0.35482 0.2268 0.03486 0.0
H3170 H 0.35504 0.22919 1.00287 0.0
H3171 H 0.34586 0.2178 0.97373 0.0
H3172 H 0.32003 0.16766 0.97105 0.0
H3173 H 0.3221 0.16457 1.00258 0.0
C3174 C 0.33502 0.1881 0.02498 0.0
C3175 C 0.34189 0.2016 0.03541 0.0
C3176 C 0.33496 0.18944 0.00667 0.0
C3177 C 0.34944 0.2162 0.02716 0.0
C3178 C 0.3495 0.2176 0.00885 0.0
C3179 C 0.3409 0.20612 0.98005 0.0
C3180 C 0.33267 0.19305 0.96995 0.0
C3181 C 0.342 0.20442 0.99844 0.0
C3182 C 0.3263 0.17801 0.97841 0.0
C3183 C 0.32746 0.1762 0.9965 0.0
H3184 H 0.82757 0.31767 0.97535 0.0
H3185 H 0.78117 0.34924 0.97004 0.0
H3186 H 0.77905 0.35165 1.00189 0.0
H3187 H 0.78992 0.34387 0.03145 0.0
H3188 H 0.8362 0.31191 0.03612 0.0
H3189 H 0.83878 0.31063 1.00444 0.0
C3190 C 0.81703 0.32518 0.98112 0.0
C3191 C 0.80454 0.33324 0.97027 0.0
C3192 C 0.81582 0.32639 0.99941 0.0
C3193 C 0.79098 0.3429 0.97805 0.0
C3194 C 0.78974 0.34425 0.99629 0.0
C3195 C 0.80061 0.33671 0.02552 0.0
C3196 C 0.81282 0.32797 0.03623 0.0
C3197 C 0.80201 0.33592 0.00714 0.0
C3198 C 0.82658 0.31874 0.02828 0.0
C3199 C 0.82808 0.31798 0.01011 0.0
H3200 H 0.6687 0.79587 0.03301 0.0
H3201 H 0.70443 0.83948 0.03596 0.0
H3202 H 0.70398 0.84235 1.0043 0.0
H3203 H 0.69441 0.83201 0.97554 0.0
H3204 H 0.6585 0.78866 0.97205 0.0
H3205 H 0.65795 0.78631 1.00393 0.0
C3206 C 0.67632 0.80603 0.02672 0.0
C3207 C 0.68664 0.81737 0.03695 0.0
C3208 C 0.67598 0.8077 0.00832 0.0
C3209 C 0.69637 0.83052 0.02852 0.0
C3210 C 0.69615 0.8322 0.01034 0.0
C3211 C 0.68634 0.82213 0.98173 0.0
C3212 C 0.67655 0.81052 0.97135 0.0
C3213 C 0.68613 0.8208 1.00009 0.0
C3214 C 0.66616 0.79781 0.97967 0.0
C3215 C 0.66589 0.79641 0.99795 0.0
H3216 H 0.83285 0.69165 0.03116 0.0
H3217 H 0.78648 0.66031 0.03805 0.0
H3218 H 0.78378 0.65706 0.0063 0.0
H3219 H 0.79379 0.66462 0.97629 0.0
H3220 H 0.83991 0.6966 0.9702 0.0
H3221 H 0.84351 0.69796 1.00176 0.0
C3222 C 0.82221 0.68399 0.02576 0.0
C3223 C 0.80986 0.6763 0.03703 0.0
C3224 C 0.82065 0.68231 0.00753 0.0
C3225 C 0.79618 0.6664 0.02972 0.0
C3226 C 0.7946 0.66456 0.01153 0.0
C3227 C 0.80473 0.67169 0.98189 0.0
C3228 C 0.81652 0.68054 0.97082 0.0
C3229 C 0.80665 0.67265 1.00026 0.0
C3230 C 0.83057 0.68974 0.97834 0.0
C3231 C 0.83266 0.69055 0.99644 0.0
H3232 H 0.32455 0.83105 0.03533 0.0
H3233 H 0.35211 0.78211 0.03968 0.0
H3234 H 0.35426 0.78035 0.00775 0.0
H3235 H 0.34666 0.79208 0.97832 0.0
H3236 H 0.3189 0.8411 0.97496 0.0
H3237 H 0.31859 0.84344 0.0066 0.0
C3238 C 0.33114 0.82003 0.02934 0.0
C3239 C 0.33806 0.80669 0.03991 0.0
C3240 C 0.33225 0.81908 0.01103 0.0
C3241 C 0.34665 0.79257 0.03186 0.0
C3242 C 0.34784 0.79153 0.01358 0.0
C3243 C 0.34074 0.80335 0.98454 0.0
C3244 C 0.33272 0.81632 0.97419 0.0
C3245 C 0.34047 0.80461 1.00298 0.0
C3246 C 0.32507 0.83083 0.98251 0.0
C3247 C 0.32486 0.83221 1.00066 0.0
H3248 H 0.66187 0.2227 0.97933 0.0
H3249 H 0.68789 0.17295 0.97362 0.0
H3250 H 0.68909 0.16957 1.00514 0.0
H3251 H 0.68445 0.1812 0.03439 0.0
H3252 H 0.65869 0.23084 0.04112 0.0
H3253 H 0.65559 0.23371 0.00933 0.0
C3254 C 0.6676 0.21105 0.98501 0.0
C3255 C 0.67487 0.19817 0.97403 0.0
C3256 C 0.66841 0.20917 1.00339 0.0
C3257 C 0.68229 0.18316 0.98166 0.0
C3258 C 0.68301 0.18118 0.99975 0.0
C3259 C 0.67804 0.19262 0.02896 0.0
C3260 C 0.67192 0.20582 0.04015 0.0
C3261 C 0.67639 0.1942 0.01074 0.0
C3262 C 0.66354 0.22046 0.03282 0.0
C3263 C 0.66181 0.22213 0.01462 0.0
H3264 H 0.47971 0.68087 0.82374 0.0
H3265 H 0.47679 0.72808 0.85437 0.0
H3266 H 0.50873 0.7297 0.85532 0.0
H3267 H 0.53774 0.71827 0.84634 0.0
H3268 H 0.54001 0.6709 0.81578 0.0
H3269 H 0.50831 0.66881 0.81602 0.0
C3270 C 0.48604 0.69147 0.83071 0.0
C3271 C 0.47582 0.70435 0.8389 0.0
C3272 C 0.50442 0.69235 0.8312 0.0
C3273 C 0.4843 0.71796 0.84793 0.0
C3274 C 0.5026 0.71893 0.84846 0.0
C3275 C 0.53128 0.70744 0.83987 0.0
C3276 C 0.54135 0.69482 0.831 0.0
C3277 C 0.51284 0.70628 0.83998 0.0
C3278 C 0.5327 0.68086 0.82268 0.0
C3279 C 0.5145 0.67963 0.82277 0.0
H3280 H 0.29421 0.53784 0.85377 0.0
H3281 H 0.33836 0.54054 0.81877 0.0
H3282 H 0.34034 0.50879 0.81845 0.0
H3283 H 0.3288 0.4801 0.82683 0.0
H3284 H 0.28453 0.47686 0.86157 0.0
H3285 H 0.28341 0.50879 0.86332 0.0
C3286 C 0.30436 0.53148 0.84623 0.0
C3287 C 0.31608 0.54166 0.83628 0.0
C3288 C 0.30537 0.51304 0.84596 0.0
C3289 C 0.32912 0.53313 0.82652 0.0
C3290 C 0.33027 0.51491 0.8263 0.0
C3291 C 0.31896 0.48635 0.83489 0.0
C3292 C 0.30673 0.47604 0.844 0.0
C3293 C 0.31834 0.50472 0.83576 0.0
C3294 C 0.29411 0.48443 0.8544 0.0
C3295 C 0.29344 0.50272 0.85538 0.0
H3296 H 0.52756 0.29631 0.84721 0.0
H3297 H 0.53219 0.33586 0.80722 0.0
H3298 H 0.5005 0.33899 0.8063 0.0
H3299 H 0.47129 0.32989 0.81603 0.0
H3300 H 0.46639 0.29025 0.85585 0.0
H3301 H 0.49819 0.2879 0.85772 0.0
C3302 C 0.52164 0.30565 0.83835 0.0
C3303 C 0.53231 0.31577 0.82726 0.0
C3304 C 0.50328 0.30741 0.83784 0.0
C3305 C 0.52436 0.32785 0.81589 0.0
C3306 C 0.50619 0.32967 0.81534 0.0
C3307 C 0.47716 0.32084 0.82523 0.0
C3308 C 0.46641 0.31026 0.83576 0.0
C3309 C 0.4955 0.31944 0.82615 0.0
C3310 C 0.4743 0.29857 0.84757 0.0
C3311 C 0.49253 0.29718 0.84862 0.0
H3312 H 0.71691 0.47676 0.84598 0.0
H3313 H 0.67079 0.47304 0.81363 0.0
H3314 H 0.66966 0.50473 0.81115 0.0
H3315 H 0.68262 0.53343 0.81646 0.0
H3316 H 0.72894 0.53788 0.84833 0.0
H3317 H 0.72908 0.50614 0.85275 0.0
C3318 C 0.70648 0.48292 0.83861 0.0
C3319 C 0.69399 0.47246 0.82996 0.0
C3320 C 0.70601 0.50132 0.837 0.0
C3321 C 0.68063 0.48069 0.82037 0.0
C3322 C 0.67997 0.49886 0.8189 0.0
C3323 C 0.69271 0.52751 0.82448 0.0
C3324 C 0.70581 0.53806 0.83196 0.0
C3325 C 0.69275 0.50929 0.82687 0.0
C3326 C 0.7187 0.5301 0.84238 0.0
C3327 C 0.7188 0.51192 0.84489 0.0
H3328 H 0.47896 0.29838 0.16053 0.0
H3329 H 0.47342 0.3389 0.19938 0.0
H3330 H 0.50508 0.34151 0.20159 0.0
H3331 H 0.53444 0.33141 0.19365 0.0
H3332 H 0.54031 0.29092 0.15488 0.0
H3333 H 0.50859 0.28931 0.15142 0.0
C3334 C 0.48469 0.30787 0.16937 0.0
C3335 C 0.47377 0.31835 0.17982 0.0
C3336 C 0.50302 0.30931 0.17065 0.0
C3337 C 0.48145 0.3306 0.1912 0.0
C3338 C 0.4996 0.33212 0.19251 0.0
C3339 C 0.5288 0.32233 0.18434 0.0
C3340 C 0.53978 0.31127 0.1746 0.0
C3341 C 0.51052 0.3214 0.18247 0.0
C3342 C 0.5322 0.2996 0.16256 0.0
C3343 C 0.51403 0.29863 0.1606 0.0
H3344 H 0.72033 0.47804 0.16312 0.0
H3345 H 0.67604 0.4746 0.19794 0.0
H3346 H 0.67358 0.50622 0.19841 0.0
H3347 H 0.68453 0.53506 0.19013 0.0
H3348 H 0.7286 0.53931 0.15527 0.0
H3349 H 0.73049 0.5074 0.15354 0.0
C3350 C 0.71009 0.48423 0.1707 0.0
C3351 C 0.69847 0.47385 0.18054 0.0
C3352 C 0.70869 0.50266 0.17096 0.0
C3353 C 0.68525 0.48215 0.19027 0.0
C3354 C 0.68379 0.50031 0.19058 0.0
C3355 C 0.69448 0.52904 0.18205 0.0
C3356 C 0.70643 0.5396 0.17291 0.0
C3357 C 0.69553 0.51071 0.18115 0.0
C3358 C 0.7192 0.53151 0.16245 0.0
C3359 C 0.72034 0.51324 0.1615 0.0
H3360 H 0.53727 0.67826 0.18516 0.0
H3361 H 0.54089 0.72293 0.15092 0.0
H3362 H 0.50902 0.72415 0.14883 0.0
H3363 H 0.47989 0.7132 0.15769 0.0
H3364 H 0.47663 0.66865 0.19218 0.0
H3365 H 0.5084 0.66671 0.1931 0.0
C3366 C 0.53111 0.68821 0.17715 0.0
C3367 C 0.54152 0.7005 0.16826 0.0
C3368 C 0.51274 0.6889 0.17607 0.0
C3369 C 0.53325 0.71329 0.15793 0.0
C3370 C 0.51498 0.71402 0.15674 0.0
C3371 C 0.48614 0.70299 0.16529 0.0
C3372 C 0.47581 0.69113 0.17488 0.0
C3373 C 0.50456 0.70199 0.16588 0.0
C3374 C 0.48418 0.678 0.18469 0.0
C3375 C 0.5024 0.67687 0.18525 0.0
H3376 H 0.32721 0.47624 0.19223 0.0
H3377 H 0.28293 0.4696 0.15794 0.0
H3378 H 0.281 0.50137 0.15411 0.0
H3379 H 0.29101 0.53132 0.16195 0.0
H3380 H 0.3351 0.53713 0.19675 0.0
H3381 H 0.33797 0.50555 0.19882 0.0
C3382 C 0.31719 0.48168 0.1838 0.0
C3383 C 0.3052 0.47049 0.17545 0.0
C3384 C 0.31607 0.49992 0.18179 0.0
C3385 C 0.29235 0.47787 0.16454 0.0
C3386 C 0.29121 0.49606 0.16238 0.0
C3387 C 0.30135 0.52565 0.16982 0.0
C3388 C 0.31277 0.53668 0.17923 0.0
C3389 C 0.30287 0.50727 0.17114 0.0
C3390 C 0.32605 0.52906 0.18942 0.0
C3391 C 0.32773 0.51094 0.19065 0.0
H3392 H 0.82317 0.53028 0.67863 0.0
H3393 H 0.86162 0.53396 0.71975 0.0
H3394 H 0.86213 0.50209 0.72234 0.0
H3395 H 0.85044 0.47312 0.71395 0.0
H3396 H 0.81173 0.4699 0.67298 0.0
H3397 H 0.8126 0.50151 0.66934 0.0
C3398 C 0.83179 0.52413 0.68806 0.0
C3399 C 0.8423 0.53455 0.699 0.0
C3400 C 0.8319 0.50581 0.6896 0.0
C3401 C 0.85339 0.5263 0.71115 0.0
C3402 C 0.85365 0.50805 0.71268 0.0
C3403 C 0.8423 0.47933 0.70414 0.0
C3404 C 0.83098 0.46909 0.69382 0.0
C3405 C 0.84278 0.49766 0.70214 0.0
C3406 C 0.82053 0.47739 0.68116 0.0
C3407 C 0.821 0.49552 0.67905 0.0
H3408 H 0.53323 0.84775 0.71647 0.0
H3409 H 0.53748 0.80898 0.67572 0.0
H3410 H 0.50575 0.80771 0.67323 0.0
H3411 H 0.47671 0.8164 0.68352 0.0
H3412 H 0.47201 0.85492 0.7244 0.0
H3413 H 0.50386 0.85756 0.72584 0.0
C3414 C 0.52721 0.83915 0.70694 0.0
C3415 C 0.53779 0.82843 0.69635 0.0
C3416 C 0.50882 0.83837 0.70563 0.0
C3417 C 0.52972 0.81735 0.68409 0.0
C3418 C 0.51153 0.81658 0.68265 0.0
C3419 C 0.48262 0.82548 0.69266 0.0
C3420 C 0.47194 0.83539 0.70387 0.0
C3421 C 0.50094 0.82685 0.6935 0.0
C3422 C 0.47988 0.84711 0.71561 0.0
C3423 C 0.49812 0.8486 0.71647 0.0
H3424 H 0.16839 0.52899 0.71635 0.0
H3425 H 0.20709 0.53304 0.67553 0.0
H3426 H 0.2083 0.5013 0.67322 0.0
H3427 H 0.19928 0.47222 0.68347 0.0
H3428 H 0.1606 0.46795 0.72427 0.0
H3429 H 0.15842 0.49976 0.72579 0.0
C3430 C 0.17701 0.52293 0.70689 0.0
C3431 C 0.18768 0.53345 0.6962 0.0
C3432 C 0.17769 0.50455 0.70562 0.0
C3433 C 0.19875 0.52532 0.68398 0.0
C3434 C 0.19948 0.50712 0.68263 0.0
C3435 C 0.19028 0.47824 0.69261 0.0
C3436 C 0.18016 0.46766 0.70376 0.0
C3437 C 0.18913 0.49659 0.69349 0.0
C3438 C 0.16856 0.47573 0.71552 0.0
C3439 C 0.16733 0.49396 0.71643 0.0
H3440 H 0.47754 0.16702 0.71879 0.0
H3441 H 0.47346 0.19656 0.67086 0.0
H3442 H 0.50512 0.19737 0.66832 0.0
H3443 H 0.53403 0.19118 0.68017 0.0
H3444 H 0.53914 0.16231 0.72831 0.0
H3445 H 0.50722 0.15972 0.73025 0.0
C3446 C 0.48361 0.17344 0.70771 0.0
C3447 C 0.47305 0.18176 0.69507 0.0
C3448 C 0.50207 0.17411 0.7064 0.0
C3449 C 0.48118 0.19013 0.68085 0.0
C3450 C 0.49934 0.19062 0.67936 0.0
C3451 C 0.52822 0.18422 0.69107 0.0
C3452 C 0.53903 0.17701 0.7041 0.0
C3453 C 0.50992 0.18291 0.69215 0.0
C3454 C 0.53117 0.16802 0.71809 0.0
C3455 C 0.51289 0.16655 0.71921 0.0
H3456 H 0.81873 0.47623 0.32899 0.0
H3457 H 0.85191 0.4704 0.28381 0.0
H3458 H 0.85471 0.50214 0.28148 0.0
H3459 H 0.84705 0.53182 0.29181 0.0
H3460 H 0.81362 0.5373 0.3369 0.0
H3461 H 0.8117 0.50565 0.3397 0.0
C3462 C 0.82664 0.48188 0.31868 0.0
C3463 C 0.83506 0.47088 0.30659 0.0
C3464 C 0.82815 0.50019 0.31735 0.0
C3465 C 0.84525 0.4785 0.29331 0.0
C3466 C 0.84686 0.4967 0.29194 0.0
C3467 C 0.83944 0.52608 0.3023 0.0
C3468 C 0.83049 0.53701 0.31409 0.0
C3469 C 0.83828 0.50771 0.30383 0.0
C3470 C 0.82065 0.52929 0.32759 0.0
C3471 C 0.81951 0.51113 0.32922 0.0
H3472 H 0.53247 0.84088 0.29044 0.0
H3473 H 0.53695 0.80528 0.33402 0.0
H3474 H 0.50531 0.80399 0.3366 0.0
H3475 H 0.47623 0.81171 0.32589 0.0
H3476 H 0.47091 0.84683 0.28211 0.0
H3477 H 0.50278 0.84962 0.2803 0.0
C3478 C 0.5265 0.83298 0.30058 0.0
C3479 C 0.53719 0.82314 0.31197 0.0
C3480 C 0.50807 0.83212 0.30195 0.0
C3481 C 0.52916 0.81293 0.325 0.0
C3482 C 0.511 0.81216 0.32651 0.0
C3483 C 0.48199 0.82008 0.316 0.0
C3484 C 0.47112 0.829 0.30413 0.0
C3485 C 0.50031 0.8215 0.31495 0.0
C3486 C 0.47892 0.83979 0.29143 0.0
C3487 C 0.49718 0.84137 0.29037 0.0
H3488 H 0.18894 0.4791 0.33073 0.0
H3489 H 0.15001 0.47609 0.29001 0.0
H3490 H 0.14866 0.50802 0.28873 0.0
H3491 H 0.15978 0.53695 0.29813 0.0
H3492 H 0.19883 0.5395 0.33882 0.0
H3493 H 0.19879 0.50775 0.34117 0.0
C3494 C 0.18004 0.4854 0.32166 0.0
C3495 C 0.16965 0.47515 0.31044 0.0
C3496 C 0.1794 0.50377 0.32093 0.0
C3497 C 0.15817 0.48361 0.29881 0.0
C3498 C 0.15742 0.5019 0.29804 0.0
C3499 C 0.16816 0.53056 0.30761 0.0
C3500 C 0.17935 0.54068 0.31822 0.0
C3501 C 0.16816 0.51215 0.30887 0.0
C3502 C 0.19011 0.53212 0.33044 0.0
C3503 C 0.19013 0.51391 0.3318 0.0
H3504 H 0.53109 0.19206 0.32897 0.0
H3505 H 0.5375 0.161 0.28239 0.0
H3506 H 0.50567 0.15911 0.2791 0.0
H3507 H 0.47585 0.16746 0.28887 0.0
H3508 H 0.47022 0.19901 0.3353 0.0
H3509 H 0.50178 0.19948 0.33917 0.0
C3510 C 0.52557 0.18475 0.31814 0.0
C3511 C 0.53672 0.17671 0.30594 0.0
C3512 C 0.50731 0.18388 0.31624 0.0
C3513 C 0.52926 0.16731 0.292 0.0
C3514 C 0.51103 0.16627 0.29008 0.0
C3515 C 0.48155 0.17434 0.29988 0.0
C3516 C 0.47059 0.18324 0.31173 0.0
C3517 C 0.4999 0.17468 0.30202 0.0
C3518 C 0.47824 0.1921 0.32592 0.0
C3519 C 0.49635 0.19239 0.32817 0.0
H3520 H 0.71734 0.84734 0.4789 0.0
H3521 H 0.66985 0.81707 0.47469 0.0
H3522 H 0.66755 0.8158 0.50637 0.0
H3523 H 0.67953 0.8219 0.53529 0.0
H3524 H 0.72723 0.85158 0.54032 0.0
H3525 H 0.72887 0.85452 0.50844 0.0
C3526 C 0.70641 0.84063 0.48494 0.0
C3527 C 0.69382 0.83227 0.47436 0.0
C3528 C 0.70523 0.83975 0.50335 0.0
C3529 C 0.67978 0.82356 0.48244 0.0
C3530 C 0.67844 0.82281 0.50061 0.0
C3531 C 0.69026 0.82912 0.52947 0.0
C3532 C 0.70327 0.83645 0.54023 0.0
C3533 C 0.69118 0.83063 0.51119 0.0
C3534 C 0.71703 0.84578 0.53238 0.0
C3535 C 0.71799 0.84744 0.51413 0.0
H3536 H 0.71467 0.16627 0.47701 0.0
H3537 H 0.6712 0.20203 0.47322 0.0
H3538 H 0.66853 0.20256 0.50489 0.0
H3539 H 0.67936 0.19423 0.53391 0.0
H3540 H 0.72271 0.15845 0.53816 0.0
H3541 H 0.72448 0.15653 0.50632 0.0
C3542 C 0.70451 0.17403 0.48311 0.0
C3543 C 0.69323 0.18415 0.47264 0.0
C3544 C 0.70304 0.17437 0.50152 0.0
C3545 C 0.68014 0.19414 0.48085 0.0
C3546 C 0.67859 0.19449 0.49904 0.0
C3547 C 0.68912 0.1859 0.52789 0.0
C3548 C 0.70092 0.17658 0.53847 0.0
C3549 C 0.69011 0.18487 0.50953 0.0
C3550 C 0.71344 0.1658 0.53038 0.0
C3551 C 0.7145 0.16472 0.51213 0.0
H3552 H 0.8152 0.68037 0.53403 0.0
H3553 H 0.85211 0.72267 0.53949 0.0
H3554 H 0.85443 0.72492 0.50764 0.0
H3555 H 0.84487 0.71567 0.47805 0.0
H3556 H 0.80765 0.6735 0.47316 0.0
H3557 H 0.80664 0.67042 0.50483 0.0
C3558 C 0.82387 0.69002 0.52829 0.0
C3559 C 0.83344 0.70136 0.53921 0.0
C3560 C 0.82504 0.69132 0.50997 0.0
C3561 C 0.8446 0.71375 0.53146 0.0
C3562 C 0.8459 0.71508 0.51321 0.0
C3563 C 0.83664 0.70573 0.48391 0.0
C3564 C 0.82631 0.69488 0.47314 0.0
C3565 C 0.83602 0.70406 0.5023 0.0
C3566 C 0.81572 0.68208 0.48104 0.0
C3567 C 0.81511 0.6803 0.4992 0.0
H3568 H 0.3335 0.82509 0.47504 0.0
H3569 H 0.28631 0.85541 0.46948 0.0
H3570 H 0.28465 0.8588 0.5013 0.0
H3571 H 0.29592 0.85172 0.53096 0.0
H3572 H 0.34299 0.82096 0.53573 0.0
H3573 H 0.34537 0.81927 0.50408 0.0
C3574 C 0.32289 0.83255 0.48074 0.0
C3575 C 0.31001 0.83992 0.46984 0.0
C3576 C 0.32196 0.83433 0.49899 0.0
C3577 C 0.29641 0.84959 0.47752 0.0
C3578 C 0.29543 0.8515 0.49575 0.0
C3579 C 0.30678 0.84481 0.52505 0.0
C3580 C 0.31921 0.83643 0.53579 0.0
C3581 C 0.30803 0.84373 0.50666 0.0
C3582 C 0.33318 0.82748 0.52787 0.0
C3583 C 0.33457 0.82648 0.50972 0.0
H3584 H 0.15933 0.29161 0.47946 0.0
H3585 H 0.18363 0.34254 0.47719 0.0
H3586 H 0.18453 0.34387 0.50885 0.0
H3587 H 0.18022 0.33021 0.53722 0.0
H3588 H 0.15615 0.27938 0.54073 0.0
H3589 H 0.15323 0.27845 0.50876 0.0
C3590 C 0.16461 0.30306 0.48593 0.0
C3591 C 0.17151 0.31689 0.47584 0.0
C3592 C 0.16524 0.30375 0.50443 0.0
C3593 C 0.17834 0.33162 0.4845 0.0
C3594 C 0.17889 0.33243 0.50268 0.0
C3595 C 0.17422 0.31894 0.53105 0.0
C3596 C 0.16853 0.30484 0.54139 0.0
C3597 C 0.17267 0.31849 0.51276 0.0
C3598 C 0.16065 0.29043 0.53311 0.0
C3599 C 0.15903 0.28988 0.5148 0.0
H3600 H 0.32984 0.19883 0.53098 0.0
H3601 H 0.28582 0.16378 0.53509 0.0
H3602 H 0.28327 0.16288 0.50328 0.0
H3603 H 0.29282 0.17298 0.47414 0.0
H3604 H 0.33683 0.20811 0.47024 0.0
H3605 H 0.3401 0.20794 0.50193 0.0
C3606 C 0.31974 0.19091 0.52492 0.0
C3607 C 0.30801 0.18144 0.53547 0.0
C3608 C 0.3183 0.19048 0.50657 0.0
C3609 C 0.29503 0.17123 0.52735 0.0
C3610 C 0.29354 0.17072 0.50911 0.0
C3611 C 0.3032 0.18049 0.48021 0.0
C3612 C 0.31451 0.19058 0.46975 0.0
C3613 C 0.305 0.18042 0.49857 0.0
C3614 C 0.32789 0.20024 0.4779 0.0
C3615 C 0.32978 0.20018 0.49608 0.0
H3616 H 0.82518 0.32848 0.47539 0.0
H3617 H 0.85971 0.28437 0.46955 0.0
H3618 H 0.86188 0.28158 0.50137 0.0
H3619 H 0.85242 0.29074 0.53112 0.0
H3620 H 0.8178 0.33506 0.53599 0.0
H3621 H 0.8173 0.33862 0.50452 0.0
C3622 C 0.83332 0.31835 0.48105 0.0
C3623 C 0.84219 0.30662 0.47008 0.0
C3624 C 0.83442 0.31675 0.49931 0.0
C3625 C 0.85273 0.2936 0.47768 0.0
C3626 C 0.85393 0.29195 0.49591 0.0
C3627 C 0.84491 0.30124 0.52527 0.0
C3628 C 0.83506 0.31249 0.53601 0.0
C3629 C 0.8446 0.30329 0.5069 0.0
C3630 C 0.82543 0.32608 0.52816 0.0
C3631 C 0.82511 0.32818 0.51008 0.0
H3632 H 0.17459 0.71845 0.53709 0.0
H3633 H 0.20749 0.67266 0.53892 0.0
H3634 H 0.20675 0.67055 0.5072 0.0
H3635 H 0.19789 0.68223 0.47873 0.0
H3636 H 0.16518 0.72807 0.47637 0.0
H3637 H 0.16468 0.72956 0.5083 0.0
C3638 C 0.18146 0.70794 0.53055 0.0
C3639 C 0.19112 0.69578 0.54046 0.0
C3640 C 0.18111 0.70682 0.51212 0.0
C3641 C 0.19999 0.68226 0.5317 0.0
C3642 C 0.1996 0.68102 0.5135 0.0
C3643 C 0.19057 0.69251 0.48518 0.0
C3644 C 0.18165 0.70504 0.47511 0.0
C3645 C 0.19039 0.69333 0.50355 0.0
C3646 C 0.1722 0.71824 0.48375 0.0
C3647 C 0.17192 0.71912 0.50205 0.0
H3648 H 0.16978 0.13123 0.31132 0.0
H3649 H 0.15581 0.10956 0.36143 0.0
H3650 H 0.13252 0.13139 0.3645 0.0
H3651 H 0.11555 0.15645 0.35235 0.0
H3652 H 0.13038 0.17739 0.30205 0.0
H3653 H 0.1538 0.15618 0.29977 0.0
C3654 C 0.16169 0.13127 0.32296 0.0
C3655 C 0.16452 0.11873 0.33608 0.0
C3656 C 0.14839 0.1438 0.32462 0.0
C3657 C 0.15392 0.11906 0.3511 0.0
C3658 C 0.14058 0.13154 0.35285 0.0
C3659 C 0.12398 0.15639 0.34096 0.0
C3660 C 0.1211 0.16855 0.3274 0.0
C3661 C 0.1376 0.14396 0.33962 0.0
C3662 C 0.13218 0.16825 0.31272 0.0
C3663 C 0.14563 0.15608 0.31135 0.0
H3664 H 0.89438 0.15443 0.35254 0.0
H3665 H 0.88846 0.1649 0.29736 0.0
H3666 H 0.86439 0.14436 0.29571 0.0
H3667 H 0.84486 0.12356 0.30948 0.0
H3668 H 0.85022 0.11154 0.36427 0.0
H3669 H 0.87458 0.13245 0.36652 0.0
C3670 C 0.88783 0.15214 0.34018 0.0
C3671 C 0.89325 0.16133 0.32512 0.0
C3672 C 0.87385 0.14004 0.33923 0.0
C3673 C 0.88461 0.15816 0.3092 0.0
C3674 C 0.87078 0.14637 0.3082 0.0
C3675 C 0.85128 0.12549 0.32198 0.0
C3676 C 0.84565 0.11604 0.3367 0.0
C3677 C 0.86526 0.1373 0.32309 0.0
C3678 C 0.85427 0.11866 0.35272 0.0
C3679 C 0.86821 0.13062 0.354 0.0
H3680 H 0.88572 0.84859 0.31048 0.0
H3681 H 0.89553 0.84993 0.36594 0.0
H3682 H 0.87311 0.87277 0.36934 0.0
H3683 H 0.85038 0.89248 0.35606 0.0
H3684 H 0.84216 0.89005 0.30019 0.0
H3685 H 0.8642 0.86763 0.29757 0.0
C3686 C 0.883 0.85379 0.32338 0.0
C3687 C 0.89227 0.84749 0.33793 0.0
C3688 C 0.87029 0.86683 0.32517 0.0
C3689 C 0.88856 0.85453 0.3545 0.0
C3690 C 0.87574 0.8676 0.35643 0.0
C3691 C 0.85348 0.88704 0.34336 0.0
C3692 C 0.84445 0.893 0.32838 0.0
C3693 C 0.86647 0.8739 0.34181 0.0
C3694 C 0.8487 0.88577 0.31201 0.0
C3695 C 0.86138 0.87289 0.31042 0.0
H3696 H 0.12085 0.85112 0.31064 0.0
H3697 H 0.11373 0.85012 0.3665 0.0
H3698 H 0.13608 0.87306 0.3698 0.0
H3699 H 0.15843 0.89309 0.3564 0.0
H3700 H 0.16457 0.89259 0.30025 0.0
H3701 H 0.14193 0.87068 0.29759 0.0
C3702 C 0.12411 0.85587 0.3236 0.0
C3703 C 0.11564 0.84883 0.33829 0.0
C3704 C 0.13692 0.86887 0.32535 0.0
C3705 C 0.12005 0.85529 0.35494 0.0
C3706 C 0.13285 0.86841 0.35682 0.0
C3707 C 0.15471 0.88822 0.34363 0.0
C3708 C 0.16335 0.89452 0.32857 0.0
C3709 C 0.1415 0.87528 0.34208 0.0
C3710 C 0.15834 0.888 0.31211 0.0
C3711 C 0.14532 0.87541 0.31051 0.0
H3712 H 0.16149 0.88218 0.69802 0.0
H3713 H 0.15745 0.89444 0.64318 0.0
H3714 H 0.13507 0.87155 0.63969 0.0
H3715 H 0.11658 0.84769 0.65268 0.0
H3716 H 0.12202 0.83654 0.70781 0.0
H3717 H 0.14384 0.85927 0.71062 0.0
C3718 C 0.15581 0.8799 0.68523 0.0
C3719 C 0.16121 0.89003 0.67088 0.0
C3720 C 0.1431 0.86683 0.68338 0.0
C3721 C 0.15356 0.88683 0.65446 0.0
C3722 C 0.14075 0.87374 0.65248 0.0
C3723 C 0.12254 0.85031 0.66527 0.0
C3724 C 0.11759 0.8403 0.67999 0.0
C3725 C 0.13538 0.8636 0.6669 0.0
C3726 C 0.12552 0.84388 0.69621 0.0
C3727 C 0.13805 0.85694 0.69789 0.0
H3728 H 0.16978 0.12067 0.70309 0.0
H3729 H 0.16151 0.10869 0.64866 0.0
H3730 H 0.13792 0.13047 0.64735 0.0
H3731 H 0.11951 0.15317 0.6621 0.0
H3732 H 0.12931 0.16449 0.71657 0.0
H3733 H 0.15235 0.14285 0.71733 0.0
C3734 C 0.16288 0.12278 0.69088 0.0
C3735 C 0.16742 0.11304 0.67601 0.0
C3736 C 0.14953 0.1353 0.69022 0.0
C3737 C 0.15828 0.11602 0.66033 0.0
C3738 C 0.14478 0.12848 0.65958 0.0
C3739 C 0.12671 0.15086 0.67409 0.0
C3740 C 0.12259 0.16052 0.68924 0.0
C3741 C 0.14025 0.13824 0.6745 0.0
C3742 C 0.13212 0.15736 0.70467 0.0
C3743 C 0.14535 0.14492 0.70517 0.0
H3744 H 0.89696 0.15325 0.65731 0.0
H3745 H 0.88957 0.16774 0.71135 0.0
H3746 H 0.86647 0.14618 0.71431 0.0
H3747 H 0.84812 0.12329 0.7019 0.0
H3748 H 0.8544 0.10839 0.64795 0.0
H3749 H 0.87802 0.12987 0.64465 0.0
C3750 C 0.8903 0.15163 0.66971 0.0
C3751 C 0.89508 0.16218 0.68407 0.0
C3752 C 0.87676 0.13911 0.67138 0.0
C3753 C 0.88623 0.15991 0.70003 0.0
C3754 C 0.87297 0.14753 0.70179 0.0
C3755 C 0.85463 0.1247 0.68939 0.0
C3756 C 0.84947 0.11421 0.67521 0.0
C3757 C 0.86809 0.13709 0.68758 0.0
C3758 C 0.85809 0.11628 0.65911 0.0
C3759 C 0.87162 0.12858 0.65721 0.0
H3760 H 0.88273 0.84168 0.70092 0.0
H3761 H 0.9008 0.85347 0.64889 0.0
H3762 H 0.87877 0.87685 0.64653 0.0
H3763 H 0.85438 0.8944 0.66002 0.0
H3764 H 0.83786 0.88115 0.71242 0.0
H3765 H 0.85915 0.85797 0.71372 0.0
C3766 C 0.88191 0.84924 0.68896 0.0
C3767 C 0.89345 0.84578 0.67511 0.0
C3768 C 0.86938 0.86252 0.68777 0.0
C3769 C 0.89208 0.85583 0.65977 0.0
C3770 C 0.87948 0.86922 0.65845 0.0
C3771 C 0.85546 0.88638 0.67165 0.0
C3772 C 0.84439 0.88964 0.68608 0.0
C3773 C 0.86805 0.87278 0.67245 0.0
C3774 C 0.84603 0.87908 0.70106 0.0
C3775 C 0.85829 0.86573 0.70189 0.0
H3776 H 0.31056 0.16035 0.11744 0.0
H3777 H 0.36662 0.1591 0.11213 0.0
H3778 H 0.36833 0.13624 0.13469 0.0
H3779 H 0.35351 0.11692 0.15671 0.0
H3780 H 0.2972 0.11916 0.16073 0.0
H3781 H 0.29608 0.14114 0.13803 0.0
C3782 C 0.3232 0.1551 0.12115 0.0
C3783 C 0.33843 0.16151 0.11313 0.0
C3784 C 0.32405 0.14205 0.13402 0.0
C3785 C 0.35467 0.15441 0.11809 0.0
C3786 C 0.35564 0.14134 0.13102 0.0
C3787 C 0.34103 0.12217 0.15251 0.0
C3788 C 0.32548 0.11636 0.1606 0.0
C3789 C 0.34038 0.13508 0.1392 0.0
C3790 C 0.30943 0.12336 0.15494 0.0
C3791 C 0.30871 0.136 0.14188 0.0
H3792 H 0.89205 0.35249 0.15707 0.0
H3793 H 0.88783 0.29685 0.16619 0.0
H3794 H 0.86551 0.29451 0.14408 0.0
H3795 H 0.84694 0.30754 0.12236 0.0
H3796 H 0.85002 0.36268 0.1113 0.0
H3797 H 0.87299 0.36589 0.13373 0.0
C3798 C 0.88623 0.33991 0.15415 0.0
C3799 C 0.89165 0.32492 0.16351 0.0
C3800 C 0.87317 0.33849 0.14103 0.0
C3801 C 0.88397 0.30869 0.15945 0.0
C3802 C 0.87114 0.30725 0.14671 0.0
C3803 C 0.85255 0.32034 0.12479 0.0
C3804 C 0.84667 0.33485 0.11522 0.0
C3805 C 0.86561 0.322 0.13749 0.0
C3806 C 0.8543 0.35127 0.1185 0.0
C3807 C 0.86741 0.35309 0.13135 0.0
H3808 H 0.65917 0.89585 0.15554 0.0
H3809 H 0.71071 0.8855 0.17627 0.0
H3810 H 0.71523 0.8629 0.15462 0.0
H3811 H 0.70536 0.84648 0.12946 0.0
H3812 H 0.65399 0.85535 0.10803 0.0
H3813 H 0.64863 0.87799 0.13019 0.0
C3814 C 0.67133 0.88858 0.15531 0.0
C3815 C 0.68458 0.8925 0.16756 0.0
C3816 C 0.67395 0.87533 0.14266 0.0
C3817 C 0.70025 0.88288 0.16709 0.0
C3818 C 0.70291 0.8699 0.15466 0.0
C3819 C 0.69292 0.85327 0.1296 0.0
C3820 C 0.68013 0.84924 0.11704 0.0
C3821 C 0.68995 0.8661 0.14233 0.0
C3822 C 0.66409 0.85819 0.11755 0.0
C3823 C 0.66103 0.87116 0.13021 0.0
H3824 H 0.16221 0.7068 0.1255 0.0
H3825 H 0.15883 0.65207 0.11264 0.0
H3826 H 0.13599 0.64817 0.13497 0.0
H3827 H 0.11693 0.66075 0.15857 0.0
H3828 H 0.1213 0.71591 0.16996 0.0
H3829 H 0.14369 0.71909 0.1479 0.0
C3830 C 0.15656 0.69395 0.12753 0.0
C3831 C 0.16231 0.67974 0.11742 0.0
C3832 C 0.14351 0.69188 0.14023 0.0
C3833 C 0.15468 0.66325 0.12025 0.0
C3834 C 0.14161 0.66103 0.13303 0.0
C3835 C 0.12278 0.67343 0.15615 0.0
C3836 C 0.11737 0.68803 0.16608 0.0
C3837 C 0.13588 0.6753 0.14316 0.0
C3838 C 0.12514 0.70438 0.16271 0.0
C3839 C 0.13801 0.70627 0.15002 0.0
H3840 H 0.34728 0.89419 0.85149 0.0
H3841 H 0.29208 0.88762 0.84144 0.0
H3842 H 0.29018 0.86577 0.86433 0.0
H3843 H 0.3038 0.84833 0.88714 0.0
H3844 H 0.35877 0.8542 0.89815 0.0
H3845 H 0.36112 0.87643 0.8751 0.0
C3846 C 0.33486 0.88798 0.85436 0.0
C3847 C 0.31987 0.89258 0.84466 0.0
C3848 C 0.33378 0.87526 0.86774 0.0
C3849 C 0.30387 0.88438 0.84858 0.0
C3850 C 0.30272 0.87183 0.86172 0.0
C3851 C 0.31634 0.85444 0.88453 0.0
C3852 C 0.33109 0.84958 0.89435 0.0
C3853 C 0.31756 0.86715 0.87135 0.0
C3854 C 0.34719 0.8577 0.89079 0.0
C3855 C 0.34854 0.87041 0.87759 0.0
H3856 H 0.15501 0.35054 0.89584 0.0
H3857 H 0.16385 0.29489 0.89244 0.0
H3858 H 0.14171 0.29242 0.86985 0.0
H3859 H 0.12008 0.30569 0.85069 0.0
H3860 H 0.11061 0.36117 0.85303 0.0
H3861 H 0.13258 0.36404 0.87629 0.0
C3862 C 0.15202 0.3379 0.89018 0.0
C3863 C 0.16118 0.32294 0.89589 0.0
C3864 C 0.13914 0.3365 0.87694 0.0
C3865 C 0.15713 0.30666 0.88834 0.0
C3866 C 0.14442 0.30519 0.87537 0.0
C3867 C 0.12276 0.31845 0.85626 0.0
C3868 C 0.11369 0.33319 0.85008 0.0
C3869 C 0.1354 0.31998 0.86951 0.0
C3870 C 0.11738 0.34959 0.85753 0.0
C3871 C 0.12997 0.35123 0.87084 0.0
H3872 H 0.69982 0.17037 0.88394 0.0
H3873 H 0.6469 0.1597 0.90002 0.0
H3874 H 0.64472 0.13655 0.87779 0.0
H3875 H 0.65852 0.11886 0.85383 0.0
H3876 H 0.71172 0.13087 0.839 0.0
H3877 H 0.71299 0.15386 0.86055 0.0
C3878 C 0.68773 0.16308 0.88261 0.0
C3879 C 0.67357 0.16678 0.89367 0.0
C3880 C 0.68662 0.14991 0.86994 0.0
C3881 C 0.65803 0.15712 0.89167 0.0
C3882 C 0.6568 0.14387 0.87896 0.0
C3883 C 0.67032 0.12657 0.85533 0.0
C3884 C 0.68498 0.12302 0.84469 0.0
C3885 C 0.67109 0.14005 0.86803 0.0
C3886 C 0.70018 0.13318 0.84686 0.0
C3887 C 0.701 0.14641 0.85926 0.0
H3888 H 0.88477 0.70423 0.8428 0.0
H3889 H 0.90265 0.65173 0.85273 0.0
H3890 H 0.88052 0.64838 0.87569 0.0
H3891 H 0.85603 0.66072 0.89326 0.0
H3892 H 0.83862 0.71329 0.88234 0.0
H3893 H 0.86049 0.71616 0.85955 0.0
C3894 C 0.88385 0.69202 0.84994 0.0
C3895 C 0.8954 0.67828 0.84605 0.0
C3896 C 0.8711 0.69018 0.86302 0.0
C3897 C 0.89393 0.66254 0.85545 0.0
C3898 C 0.88127 0.66062 0.8686 0.0
C3899 C 0.85703 0.67276 0.88586 0.0
C3900 C 0.84564 0.68676 0.8896 0.0
C3901 C 0.86977 0.67439 0.87256 0.0
C3902 C 0.84714 0.70227 0.87982 0.0
C3903 C 0.85969 0.70398 0.86674 0.0
H3904 H 0.15706 0.34807 0.11698 0.0
H3905 H 0.17351 0.29562 0.13007 0.0
H3906 H 0.15135 0.29384 0.15248 0.0
H3907 H 0.12693 0.30628 0.16796 0.0
H3908 H 0.10945 0.35857 0.15644 0.0
H3909 H 0.13228 0.36129 0.13393 0.0
C3910 C 0.1558 0.33633 0.12481 0.0
C3911 C 0.16701 0.322 0.12172 0.0
C3912 C 0.14279 0.33528 0.13795 0.0
C3913 C 0.16517 0.30688 0.13203 0.0
C3914 C 0.15243 0.30578 0.14492 0.0
C3915 C 0.12807 0.31836 0.16064 0.0
C3916 C 0.11645 0.33217 0.16388 0.0
C3917 C 0.14113 0.3198 0.14791 0.0
C3918 C 0.11824 0.34771 0.15421 0.0
C3919 C 0.13128 0.34925 0.14132 0.0
H3920 H 0.1597 0.65692 0.89109 0.0
H3921 H 0.15992 0.7134 0.89271 0.0
H3922 H 0.13788 0.71451 0.87009 0.0
H3923 H 0.11926 0.70013 0.84907 0.0
H3924 H 0.11758 0.64391 0.84623 0.0
H3925 H 0.13924 0.64203 0.87001 0.0
C3926 C 0.15478 0.66941 0.88656 0.0
C3927 C 0.16166 0.68505 0.8936 0.0
C3928 C 0.14186 0.67007 0.87324 0.0
C3929 C 0.1551 0.70113 0.88752 0.0
C3930 C 0.14242 0.70184 0.87453 0.0
C3931 C 0.12356 0.6874 0.85362 0.0
C3932 C 0.11688 0.6722 0.84578 0.0
C3933 C 0.13587 0.68647 0.86716 0.0
C3934 C 0.12253 0.65585 0.85202 0.0
C3935 C 0.13495 0.65479 0.86561 0.0
H3936 H 0.35162 0.15437 0.89226 0.0
H3937 H 0.29807 0.16864 0.88116 0.0
H3938 H 0.29707 0.14805 0.85732 0.0
H3939 H 0.31049 0.12552 0.83999 0.0
H3940 H 0.36341 0.10917 0.85033 0.0
H3941 H 0.36555 0.13092 0.87397 0.0
C3942 C 0.3398 0.15298 0.88454 0.0
C3943 C 0.32497 0.16321 0.88857 0.0
C3944 C 0.33914 0.14067 0.87071 0.0
C3945 C 0.30973 0.16113 0.87847 0.0
C3946 C 0.30909 0.14927 0.86475 0.0
C3947 C 0.32259 0.12668 0.8473 0.0
C3948 C 0.33677 0.11572 0.84335 0.0
C3949 C 0.32361 0.13893 0.86084 0.0
C3950 C 0.35228 0.11746 0.85308 0.0
C3951 C 0.35348 0.12989 0.86662 0.0
H3952 H 0.89093 0.35064 0.85189 0.0
H3953 H 0.88596 0.29524 0.84191 0.0
H3954 H 0.86325 0.29294 0.8637 0.0
H3955 H 0.84482 0.30597 0.88561 0.0
H3956 H 0.84819 0.3611 0.8967 0.0
H3957 H 0.87144 0.36415 0.87465 0.0
C3958 C 0.88483 0.33812 0.85452 0.0
C3959 C 0.89023 0.32316 0.84514 0.0
C3960 C 0.87149 0.33677 0.86732 0.0
C3961 C 0.88215 0.30702 0.84876 0.0
C3962 C 0.8691 0.30563 0.8613 0.0
C3963 C 0.85054 0.31873 0.88326 0.0
C3964 C 0.84471 0.33328 0.89281 0.0
C3965 C 0.86369 0.32035 0.87064 0.0
C3966 C 0.85242 0.34966 0.88954 0.0
C3967 C 0.86572 0.35139 0.87691 0.0
H3968 H 0.70017 0.88987 0.84797 0.0
H3969 H 0.64559 0.90265 0.85339 0.0
H3970 H 0.64239 0.87991 0.87587 0.0
H3971 H 0.6554 0.85581 0.89392 0.0
H3972 H 0.7102 0.84388 0.88715 0.0
H3973 H 0.71288 0.86667 0.86542 0.0
C3974 C 0.68754 0.88775 0.85404 0.0
C3975 C 0.67316 0.89798 0.84896 0.0
C3976 C 0.6858 0.87466 0.8668 0.0
C3977 C 0.65691 0.89498 0.85705 0.0
C3978 C 0.65507 0.88194 0.8699 0.0
C3979 C 0.66789 0.85826 0.88769 0.0
C3980 C 0.68253 0.84799 0.89225 0.0
C3981 C 0.66945 0.8716 0.87489 0.0
C3982 C 0.69863 0.85139 0.88397 0.0
C3983 C 0.70025 0.86451 0.87148 0.0
H3984 H 0.84875 0.70673 0.1233 0.0
H3985 H 0.85476 0.65232 0.11007 0.0
H3986 H 0.87711 0.64915 0.13295 0.0
H3987 H 0.89508 0.6622 0.15703 0.0
H3988 H 0.88762 0.71672 0.16966 0.0
H3989 H 0.86576 0.71936 0.1469 0.0
C3990 C 0.8549 0.69413 0.12537 0.0
C3991 C 0.85006 0.6798 0.11493 0.0
C3992 C 0.86754 0.6924 0.13857 0.0
C3993 C 0.85823 0.66359 0.11789 0.0
C3994 C 0.87102 0.66178 0.131 0.0
C3995 C 0.88863 0.67461 0.15478 0.0
C3996 C 0.89309 0.68922 0.16515 0.0
C3997 C 0.8758 0.67613 0.14148 0.0
C3998 C 0.88454 0.70521 0.16202 0.0
C3999 C 0.87199 0.70679 0.14892 0.0
H4000 H 0.309 0.84418 0.12689 0.0
H4001 H 0.36265 0.85193 0.11153 0.0
H4002 H 0.36551 0.87561 0.13302 0.0
H4003 H 0.35243 0.89433 0.15638 0.0
H4004 H 0.2987 0.88536 0.17124 0.0
H4005 H 0.29631 0.86207 0.14987 0.0
C4006 C 0.32136 0.851 0.1282 0.0
C4007 C 0.33558 0.84625 0.11756 0.0
C4008 C 0.32291 0.86448 0.14058 0.0
C4009 C 0.35148 0.85529 0.11954 0.0
C4010 C 0.35311 0.86885 0.13184 0.0
C4011 C 0.34023 0.88726 0.15491 0.0
C4012 C 0.32578 0.89169 0.16548 0.0
C4013 C 0.33888 0.87361 0.14246 0.0
C4014 C 0.31008 0.88232 0.16339 0.0
C4015 C 0.30865 0.86894 0.15112 0.0
H4016 H 0.70314 0.16409 0.12463 0.0
H4017 H 0.64822 0.16058 0.11244 0.0
H4018 H 0.64466 0.13759 0.13454 0.0
H4019 H 0.65733 0.11861 0.15789 0.0
H4020 H 0.71236 0.12327 0.16967 0.0
H4021 H 0.71561 0.14554 0.14731 0.0
C4022 C 0.69037 0.15831 0.12675 0.0
C4023 C 0.67599 0.16409 0.11686 0.0
C4024 C 0.68841 0.14523 0.13951 0.0
C4025 C 0.65954 0.1564 0.11985 0.0
C4026 C 0.6575 0.14324 0.13252 0.0
C4027 C 0.67001 0.12448 0.15549 0.0
C4028 C 0.68456 0.11921 0.16555 0.0
C4029 C 0.67185 0.13755 0.14251 0.0
C4030 C 0.70089 0.12703 0.16226 0.0
C4031 C 0.70281 0.13981 0.14942 0.0
H4032 H 0.62719 0.66051 0.8048 0.0
H4033 H 0.61817 0.65852 0.86036 0.0
H4034 H 0.64064 0.63567 0.86325 0.0
H4035 H 0.66327 0.61625 0.84953 0.0
H4036 H 0.67082 0.61933 0.79362 0.0
H4037 H 0.64861 0.64165 0.79144 0.0
C4038 C 0.63009 0.65515 0.81761 0.0
C4039 C 0.62104 0.66128 0.83233 0.0
C4040 C 0.64286 0.64212 0.81911 0.0
C4041 C 0.62497 0.65405 0.84878 0.0
C4042 C 0.63782 0.64098 0.85043 0.0
C4043 C 0.65998 0.6218 0.83692 0.0
C4044 C 0.66887 0.61607 0.8218 0.0
C4045 C 0.64692 0.63488 0.83564 0.0
C4046 C 0.66439 0.62344 0.80554 0.0
C4047 C 0.65161 0.63627 0.80421 0.0
H4048 H 0.35669 0.61925 0.85739 0.0
H4049 H 0.34074 0.63032 0.80433 0.0
H4050 H 0.36275 0.65294 0.80209 0.0
H4051 H 0.38667 0.66945 0.81451 0.0
H4052 H 0.40359 0.65981 0.86739 0.0
H4053 H 0.38122 0.63684 0.87035 0.0
C4054 C 0.35804 0.62666 0.84539 0.0
C4055 C 0.34696 0.62297 0.83106 0.0
C4056 C 0.37096 0.63991 0.8441 0.0
C4057 C 0.34895 0.63276 0.81561 0.0
C4058 C 0.36161 0.64576 0.81426 0.0
C4059 C 0.38552 0.66242 0.82676 0.0
C4060 C 0.39684 0.6664 0.8407 0.0
C4061 C 0.37269 0.64941 0.82834 0.0
C4062 C 0.39506 0.65703 0.85643 0.0
C4063 C 0.38225 0.64389 0.85811 0.0
H4064 H 0.39027 0.35527 0.85727 0.0
H4065 H 0.38027 0.34294 0.80306 0.0
H4066 H 0.3581 0.36542 0.80162 0.0
H4067 H 0.34136 0.38857 0.8152 0.0
H4068 H 0.35016 0.40197 0.8692 0.0
H4069 H 0.37286 0.37929 0.87123 0.0
C4070 C 0.38322 0.35755 0.84518 0.0
C4071 C 0.38702 0.34728 0.83032 0.0
C4072 C 0.37022 0.37074 0.84435 0.0
C4073 C 0.37771 0.35047 0.81476 0.0
C4074 C 0.36496 0.3634 0.81386 0.0
C4075 C 0.34819 0.38658 0.82747 0.0
C4076 C 0.34401 0.39698 0.84202 0.0
C4077 C 0.3611 0.37359 0.82852 0.0
C4078 C 0.3531 0.39416 0.85777 0.0
C4079 C 0.36609 0.38117 0.85893 0.0
H4080 H 0.62442 0.3434 0.80742 0.0
H4081 H 0.60341 0.35615 0.85809 0.0
H4082 H 0.62556 0.37914 0.8616 0.0
H4083 H 0.65095 0.39601 0.84981 0.0
H4084 H 0.67104 0.38243 0.79884 0.0
H4085 H 0.64936 0.35949 0.79604 0.0
C4086 C 0.62466 0.35115 0.81929 0.0
C4087 C 0.61223 0.34804 0.83245 0.0
C4088 C 0.63736 0.36429 0.82118 0.0
C4089 C 0.61281 0.35826 0.84772 0.0
C4090 C 0.62549 0.37143 0.84973 0.0
C4091 C 0.65057 0.38798 0.83814 0.0
C4092 C 0.6627 0.39104 0.82458 0.0
C4093 C 0.63784 0.37463 0.83649 0.0
C4094 C 0.66197 0.38048 0.80953 0.0
C4095 C 0.64952 0.36729 0.80786 0.0
H4096 H 0.66588 0.38536 0.20457 0.0
H4097 H 0.6599 0.40052 0.15063 0.0
H4098 H 0.63656 0.37875 0.14698 0.0
H4099 H 0.61767 0.3552 0.15945 0.0
H4100 H 0.62451 0.34095 0.21368 0.0
H4101 H 0.64756 0.36248 0.21679 0.0
C4102 C 0.65953 0.38393 0.19198 0.0
C4103 C 0.66466 0.39456 0.17791 0.0
C4104 C 0.64617 0.37149 0.19001 0.0
C4105 C 0.65621 0.39249 0.1617 0.0
C4106 C 0.64285 0.38005 0.15961 0.0
C4107 C 0.62421 0.35686 0.17192 0.0
C4108 C 0.6193 0.34638 0.18628 0.0
C4109 C 0.63767 0.36944 0.17372 0.0
C4110 C 0.62796 0.34872 0.20235 0.0
C4111 C 0.6412 0.36108 0.2042 0.0
H4112 H 0.62797 0.66425 0.19551 0.0
H4113 H 0.61583 0.65807 0.14084 0.0
H4114 H 0.63803 0.63489 0.13855 0.0
H4115 H 0.66138 0.61646 0.15248 0.0
H4116 H 0.67238 0.62392 0.20739 0.0
H4117 H 0.65023 0.64642 0.20909 0.0
C4118 C 0.63011 0.65791 0.18302 0.0
C4119 C 0.62024 0.66298 0.16836 0.0
C4120 C 0.64279 0.64473 0.18185 0.0
C4121 C 0.62324 0.65445 0.15235 0.0
C4122 C 0.63595 0.64119 0.15106 0.0
C4123 C 0.65886 0.623 0.16479 0.0
C4124 C 0.66868 0.61843 0.17977 0.0
C4125 C 0.64588 0.63621 0.16576 0.0
C4126 C 0.66519 0.6271 0.19561 0.0
C4127 C 0.65246 0.64003 0.19664 0.0
H4128 H 0.38336 0.66438 0.19842 0.0
H4129 H 0.40267 0.65088 0.14727 0.0
H4130 H 0.37984 0.62849 0.14443 0.0
H4131 H 0.35439 0.61232 0.15694 0.0
H4132 H 0.33573 0.62676 0.2082 0.0
H4133 H 0.35815 0.6491 0.21043 0.0
C4134 C 0.3826 0.65659 0.18661 0.0
C4135 C 0.39477 0.65931 0.17311 0.0
C4136 C 0.36947 0.64382 0.18507 0.0
C4137 C 0.39349 0.64907 0.15789 0.0
C4138 C 0.38043 0.63624 0.15627 0.0
C4139 C 0.35523 0.6204 0.16855 0.0
C4140 C 0.34332 0.61776 0.18238 0.0
C4141 C 0.36834 0.63342 0.16983 0.0
C4142 C 0.34463 0.6284 0.19732 0.0
C4143 C 0.35751 0.64124 0.19866 0.0
H4144 H 0.3846 0.34674 0.20251 0.0
H4145 H 0.3982 0.35436 0.14839 0.0
H4146 H 0.37565 0.37708 0.14579 0.0
H4147 H 0.35183 0.39497 0.15927 0.0
H4148 H 0.33984 0.38697 0.21388 0.0
H4149 H 0.36185 0.36436 0.21581 0.0
C4150 C 0.38265 0.35332 0.1901 0.0
C4151 C 0.39305 0.3488 0.17567 0.0
C4152 C 0.36986 0.36639 0.18877 0.0
C4153 C 0.39037 0.35757 0.15972 0.0
C4154 C 0.37746 0.37058 0.15824 0.0
C4155 C 0.35408 0.38826 0.17156 0.0
C4156 C 0.34402 0.3927 0.18636 0.0
C4157 C 0.3671 0.37515 0.17272 0.0
C4158 C 0.3472 0.38388 0.2022 0.0
C4159 C 0.35986 0.37088 0.20338 0.0
H4160 H 0.85307 0.65512 0.61454 0.0
H4161 H 0.79852 0.66606 0.62405 0.0
H4162 H 0.79766 0.64379 0.64662 0.0
H4163 H 0.81205 0.62128 0.66393 0.0
H4164 H 0.86639 0.60935 0.65505 0.0
H4165 H 0.86765 0.63176 0.6321 0.0
C4166 C 0.84102 0.65258 0.62155 0.0
C4167 C 0.8259 0.66238 0.61754 0.0
C4168 C 0.84054 0.63954 0.63469 0.0
C4169 C 0.81039 0.65886 0.62679 0.0
C4170 C 0.80985 0.64607 0.63976 0.0
C4171 C 0.82421 0.62354 0.65701 0.0
C4172 C 0.8391 0.61363 0.66127 0.0
C4173 C 0.82481 0.63636 0.64385 0.0
C4174 C 0.85471 0.61677 0.65206 0.0
C4175 C 0.85543 0.62961 0.63892 0.0
H4176 H 0.34701 0.81172 0.6261 0.0
H4177 H 0.35767 0.86491 0.61082 0.0
H4178 H 0.38017 0.86705 0.63367 0.0
H4179 H 0.39701 0.85342 0.65813 0.0
H4180 H 0.38559 0.8 0.67244 0.0
H4181 H 0.36328 0.79841 0.64993 0.0
C4182 C 0.3542 0.82384 0.62773 0.0
C4183 C 0.35062 0.83814 0.61673 0.0
C4184 C 0.36706 0.82493 0.6408 0.0
C4185 C 0.36014 0.8537 0.61909 0.0
C4186 C 0.37302 0.85491 0.63217 0.0
C4187 C 0.38962 0.84146 0.65629 0.0
C4188 C 0.39304 0.82686 0.66705 0.0
C4189 C 0.37664 0.84056 0.64312 0.0
C4190 C 0.38331 0.81147 0.66445 0.0
C4191 C 0.37049 0.81051 0.65153 0.0
H4192 H 0.20146 0.34335 0.6257 0.0
H4193 H 0.14624 0.34837 0.61563 0.0
H4194 H 0.14419 0.37129 0.63803 0.0
H4195 H 0.1584 0.38983 0.66099 0.0
H4196 H 0.21373 0.38344 0.67041 0.0
H4197 H 0.21533 0.36127 0.64789 0.0
C4198 C 0.18893 0.34942 0.62835 0.0
C4199 C 0.17404 0.3441 0.61897 0.0
C4200 C 0.18786 0.36243 0.64124 0.0
C4201 C 0.15794 0.35219 0.62264 0.0
C4202 C 0.15677 0.36531 0.63547 0.0
C4203 C 0.17077 0.3836 0.65805 0.0
C4204 C 0.18591 0.38837 0.6675 0.0
C4205 C 0.17167 0.37055 0.64493 0.0
C4206 C 0.20183 0.38008 0.6635 0.0
C4207 C 0.20281 0.36734 0.65055 0.0
H4208 H 0.65842 0.15606 0.61914 0.0
H4209 H 0.66502 0.21217 0.61812 0.0
H4210 H 0.64236 0.2156 0.63981 0.0
H4211 H 0.62127 0.2033 0.65976 0.0
H4212 H 0.61361 0.14756 0.66241 0.0
H4213 H 0.63584 0.1434 0.63951 0.0
C4214 C 0.65477 0.16899 0.62362 0.0
C4215 C 0.66359 0.18381 0.61697 0.0
C4216 C 0.64154 0.171 0.63648 0.0
C4217 C 0.65868 0.20048 0.623 0.0
C4218 C 0.64563 0.20253 0.63546 0.0
C4219 C 0.62438 0.19018 0.65538 0.0
C4220 C 0.6158 0.17577 0.66288 0.0
C4221 C 0.63711 0.18794 0.6424 0.0
C4222 C 0.62001 0.15891 0.65687 0.0
C4223 C 0.63275 0.15654 0.64378 0.0
H4224 H 0.85773 0.35222 0.39181 0.0
H4225 H 0.80273 0.33986 0.38774 0.0
H4226 H 0.799 0.36212 0.3656 0.0
H4227 H 0.81081 0.38483 0.3471 0.0
H4228 H 0.86548 0.39825 0.34977 0.0
H4229 H 0.86983 0.37604 0.37267 0.0
C4230 C 0.84496 0.35447 0.38608 0.0
C4231 C 0.83056 0.34423 0.39151 0.0
C4232 C 0.8428 0.36751 0.37306 0.0
C4233 C 0.81411 0.34737 0.38388 0.0
C4234 C 0.8119 0.36017 0.37116 0.0
C4235 C 0.82374 0.38298 0.35262 0.0
C4236 C 0.8378 0.39321 0.34665 0.0
C4237 C 0.8261 0.37025 0.36561 0.0
C4238 C 0.85441 0.39057 0.35411 0.0
C4239 C 0.85689 0.37784 0.3672 0.0
H4240 H 0.66556 0.80597 0.38415 0.0
H4241 H 0.65305 0.85832 0.40074 0.0
H4242 H 0.62975 0.85985 0.37871 0.0
H4243 H 0.61269 0.84597 0.3546 0.0
H4244 H 0.62595 0.79347 0.33875 0.0
H4245 H 0.64905 0.79241 0.36051 0.0
C4246 C 0.65779 0.81776 0.38297 0.0
C4247 C 0.66109 0.832 0.39412 0.0
C4248 C 0.64444 0.81852 0.37034 0.0
C4249 C 0.65082 0.84715 0.39234 0.0
C4250 C 0.63747 0.84802 0.37974 0.0
C4251 C 0.62064 0.83432 0.35595 0.0
C4252 C 0.6175 0.81983 0.34497 0.0
C4253 C 0.6341 0.83374 0.36865 0.0
C4254 C 0.62799 0.80485 0.34692 0.0
C4255 C 0.64126 0.80419 0.35941 0.0
H4256 H 0.20274 0.66935 0.38595 0.0
H4257 H 0.15031 0.66039 0.40451 0.0
H4258 H 0.14652 0.63706 0.38263 0.0
H4259 H 0.15871 0.61894 0.35804 0.0
H4260 H 0.21144 0.62952 0.34066 0.0
H4261 H 0.21435 0.65245 0.36213 0.0
C4262 C 0.1904 0.6624 0.38528 0.0
C4263 C 0.17684 0.66666 0.3969 0.0
C4264 C 0.18836 0.64921 0.37276 0.0
C4265 C 0.16099 0.65739 0.39573 0.0
C4266 C 0.15884 0.64405 0.38321 0.0
C4267 C 0.17077 0.62632 0.35897 0.0
C4268 C 0.18481 0.62239 0.34763 0.0
C4269 C 0.1725 0.63978 0.37161 0.0
C4270 C 0.20036 0.63213 0.34907 0.0
C4271 C 0.20211 0.64532 0.36142 0.0
H4272 H 0.35255 0.16589 0.39283 0.0
H4273 H 0.33522 0.21751 0.37766 0.0
H4274 H 0.35576 0.21785 0.35379 0.0
H4275 H 0.3792 0.20463 0.33768 0.0
H4276 H 0.39835 0.15352 0.3516 0.0
H4277 H 0.37665 0.15185 0.37535 0.0
C4278 C 0.35326 0.17712 0.38421 0.0
C4279 C 0.34222 0.19164 0.38716 0.0
C4280 C 0.36549 0.17741 0.37029 0.0
C4281 C 0.34339 0.20611 0.37585 0.0
C4282 C 0.35522 0.20639 0.36211 0.0
C4283 C 0.37867 0.19301 0.34578 0.0
C4284 C 0.39043 0.17924 0.34284 0.0
C4285 C 0.36639 0.19225 0.35931 0.0
C4286 C 0.38943 0.16433 0.35356 0.0
C4287 C 0.37704 0.16341 0.36717 0.0
H4288 H 0.66435 0.80821 0.62601 0.0
H4289 H 0.65909 0.86271 0.61274 0.0
H4290 H 0.6359 0.86584 0.63481 0.0
H4291 H 0.61706 0.85263 0.65824 0.0
H4292 H 0.62421 0.79803 0.67087 0.0
H4293 H 0.64668 0.79552 0.64881 0.0
C4294 C 0.65823 0.82085 0.62789 0.0
C4295 C 0.66349 0.8352 0.6177 0.0
C4296 C 0.64516 0.82253 0.64059 0.0
C4297 C 0.6553 0.85143 0.6204 0.0
C4298 C 0.64204 0.85321 0.63303 0.0
C4299 C 0.62356 0.84023 0.65611 0.0
C4300 C 0.61886 0.82556 0.66629 0.0
C4301 C 0.63683 0.8388 0.64326 0.0
C4302 C 0.62749 0.80958 0.66337 0.0
C4303 C 0.64039 0.80807 0.65069 0.0
H4304 H 0.62174 0.20531 0.34657 0.0
H4305 H 0.61017 0.15036 0.35113 0.0
H4306 H 0.63255 0.14755 0.37412 0.0
H4307 H 0.65572 0.1612 0.39302 0.0
H4308 H 0.66647 0.21632 0.38668 0.0
H4309 H 0.64425 0.21844 0.36431 0.0
C4310 C 0.62406 0.19265 0.3525 0.0
C4311 C 0.61426 0.17808 0.34709 0.0
C4312 C 0.63692 0.19115 0.36546 0.0
C4313 C 0.61751 0.16182 0.35504 0.0
C4314 C 0.63033 0.16022 0.36818 0.0
C4315 C 0.65316 0.17362 0.38671 0.0
C4316 C 0.66286 0.18856 0.39163 0.0
C4317 C 0.64017 0.17485 0.37353 0.0
C4318 C 0.65936 0.20456 0.38325 0.0
C4319 C 0.64658 0.20585 0.3704 0.0
H4320 H 0.81117 0.62828 0.34217 0.0
H4321 H 0.86221 0.60839 0.35533 0.0
H4322 H 0.8646 0.63007 0.37902 0.0
H4323 H 0.85142 0.65466 0.39647 0.0
H4324 H 0.79996 0.67302 0.38193 0.0
H4325 H 0.79866 0.6521 0.35843 0.0
C4326 C 0.82292 0.62864 0.35012 0.0
C4327 C 0.83647 0.61669 0.34694 0.0
C4328 C 0.82413 0.64096 0.36359 0.0
C4329 C 0.85155 0.61745 0.35747 0.0
C4330 C 0.85289 0.62984 0.37104 0.0
C4331 C 0.83999 0.65407 0.38811 0.0
C4332 C 0.82584 0.66556 0.3911 0.0
C4333 C 0.83917 0.64167 0.37432 0.0
C4334 C 0.81112 0.66453 0.38008 0.0
C4335 C 0.81029 0.65248 0.36654 0.0
H4336 H 0.39344 0.85024 0.34855 0.0
H4337 H 0.39041 0.79412 0.34286 0.0
H4338 H 0.36863 0.79256 0.3657 0.0
H4339 H 0.34992 0.80662 0.387 0.0
H4340 H 0.35187 0.86249 0.39381 0.0
H4341 H 0.37445 0.86461 0.37106 0.0
C4342 C 0.38805 0.83771 0.3524 0.0
C4343 C 0.3936 0.82235 0.34383 0.0
C4344 C 0.37525 0.83679 0.36578 0.0
C4345 C 0.38641 0.80621 0.34903 0.0
C4346 C 0.3739 0.80524 0.36217 0.0
C4347 C 0.35526 0.8193 0.38357 0.0
C4348 C 0.34915 0.83436 0.39209 0.0
C4349 C 0.36814 0.8204 0.37056 0.0
C4350 C 0.35633 0.85066 0.38746 0.0
C4351 C 0.36924 0.85187 0.37443 0.0
H4352 H 0.15199 0.39815 0.35542 0.0
H4353 H 0.20591 0.39023 0.34069 0.0
H4354 H 0.20922 0.36827 0.3633 0.0
H4355 H 0.19724 0.35116 0.38726 0.0
H4356 H 0.14347 0.35793 0.40261 0.0
H4357 H 0.13971 0.38036 0.37994 0.0
C4358 C 0.16444 0.39161 0.3572 0.0
C4359 C 0.17866 0.39592 0.34627 0.0
C4360 C 0.16633 0.37874 0.37039 0.0
C4361 C 0.19469 0.38724 0.34879 0.0
C4362 C 0.19665 0.37463 0.36178 0.0
C4363 C 0.18466 0.3575 0.3857 0.0
C4364 C 0.17068 0.35284 0.39666 0.0
C4365 C 0.1826 0.37026 0.37264 0.0
C4366 C 0.15448 0.36126 0.39437 0.0
C4367 C 0.15233 0.3741 0.38138 0.0
H4368 H 0.3959 0.16158 0.6523 0.0
H4369 H 0.38709 0.21535 0.66713 0.0
H4370 H 0.36413 0.2179 0.64547 0.0
H4371 H 0.34631 0.20535 0.62256 0.0
H4372 H 0.35387 0.15183 0.60671 0.0
H4373 H 0.37748 0.14874 0.62837 0.0
C4374 C 0.38896 0.17383 0.65072 0.0
C4375 C 0.39329 0.18823 0.66145 0.0
C4376 C 0.37551 0.1753 0.63804 0.0
C4377 C 0.38411 0.204 0.6592 0.0
C4378 C 0.37092 0.20553 0.64676 0.0
C4379 C 0.35306 0.19295 0.62377 0.0
C4380 C 0.34826 0.17884 0.613 0.0
C4381 C 0.36648 0.19131 0.63617 0.0
C4382 C 0.35728 0.16293 0.61481 0.0
C4383 C 0.37078 0.16117 0.62722 0.0
H4384 H 0.85183 0.39214 0.65519 0.0
H4385 H 0.79949 0.37966 0.67236 0.0
H4386 H 0.79732 0.35687 0.65052 0.0
H4387 H 0.80963 0.34069 0.6262 0.0
H4388 H 0.8618 0.35214 0.60826 0.0
H4389 H 0.86465 0.37499 0.63059 0.0
C4390 C 0.84002 0.38437 0.65415 0.0
C4391 C 0.82587 0.38769 0.66546 0.0
C4392 C 0.83875 0.37109 0.64136 0.0
C4393 C 0.81063 0.37748 0.66392 0.0
C4394 C 0.80931 0.36439 0.65137 0.0
C4395 C 0.82166 0.34814 0.62715 0.0
C4396 C 0.83544 0.34474 0.61555 0.0
C4397 C 0.8232 0.36114 0.63998 0.0
C4398 C 0.85096 0.35452 0.61704 0.0
C4399 C 0.85259 0.36759 0.62981 0.0
H4400 H 0.20971 0.62302 0.66741 0.0
H4401 H 0.15673 0.60717 0.65653 0.0
H4402 H 0.15469 0.62971 0.6336 0.0
H4403 H 0.1686 0.65404 0.6164 0.0
H4404 H 0.222 0.66822 0.62843 0.0
H4405 H 0.22311 0.64633 0.65111 0.0
C4406 C 0.19763 0.62444 0.66012 0.0
C4407 C 0.18339 0.61342 0.66372 0.0
C4408 C 0.19663 0.63723 0.64708 0.0
C4409 C 0.1679 0.6155 0.65402 0.0
C4410 C 0.16676 0.62839 0.64091 0.0
C4411 C 0.18041 0.65232 0.62403 0.0
C4412 C 0.19516 0.66292 0.62065 0.0
C4413 C 0.18111 0.63936 0.63727 0.0
C4414 C 0.21039 0.66043 0.63067 0.0
C4415 C 0.21111 0.64783 0.64371 0.0
loop_
_geom_bond_atom_site_label_1
_geom_bond_atom_site_label_2
_geom_bond_distance
_geom_bond_site_symmetry_2
_ccdc_geom_bond_type
Co0 O1 2.216 . S
Co0 O2 2.091 . S
Co0 O4 2.004 . S
Co0 O10 2.021 . S
Co0 O12 2.137 . S
Co0 O13 2.244 . S
O1 Co0 2.216 . S
O1 C8 1.247 . S
O2 Co0 2.091 . S
O2 C8 1.261 . S
C3 O12 1.247 . S
C3 O13 1.272 . S
O4 Co0 2.004 . S
O4 C9 1.259 . S
Co5 O6 2.061 . S
Co5 O11 2.052 . S
Co5 O13 2.135 . S
O6 Co5 2.061 . S
O6 C9 1.235 . S
C7 O10 1.238 . S
C7 O11 1.241 . S
C8 O1 1.247 . S
C8 O2 1.261 . S
C9 O4 1.259 . S
C9 O6 1.235 . S
O10 Co0 2.021 . S
O10 C7 1.238 . S
O11 Co5 2.052 . S
O11 C7 1.241 . S
O12 Co0 2.137 . S
O12 C3 1.247 . S
O13 Co0 2.244 . S
O13 C3 1.272 . S
O13 Co5 2.135 . S
Co14 O15 2.216 . S
Co14 O16 2.091 . S
Co14 O18 2.004 . S
Co14 O24 2.021 . S
Co14 O26 2.137 . S
Co14 O27 2.244 . S
O15 Co14 2.216 . S
O15 C22 1.247 . S
O16 Co14 2.091 . S
O16 C22 1.261 . S
C17 O26 1.247 . S
C17 O27 1.272 . S
O18 Co14 2.004 . S
O18 C23 1.259 . S
Co19 O20 2.061 . S
Co19 O25 2.052 . S
Co19 O27 2.135 . S
O20 Co19 2.061 . S
O20 C23 1.235 . S
C21 O24 1.238 . S
C21 O25 1.241 . S
C22 O15 1.247 . S
C22 O16 1.261 . S
C23 O18 1.259 . S
C23 O20 1.235 . S
O24 Co14 2.021 . S
O24 C21 1.238 . S
O25 Co19 2.052 . S
O25 C21 1.241 . S
O26 Co14 2.137 . S
O26 C17 1.247 . S
O27 Co14 2.244 . S
O27 C17 1.272 . S
O27 Co19 2.135 . S
Co28 O29 2.216 . S
Co28 O30 2.091 . S
Co28 O32 2.004 . S
Co28 O38 2.021 . S
Co28 O40 2.137 . S
Co28 O41 2.244 . S
O29 Co28 2.216 . S
O29 C36 1.247 . S
O30 Co28 2.091 . S
O30 C36 1.261 . S
C31 O40 1.247 . S
C31 O41 1.272 . S
O32 Co28 2.004 . S
O32 C37 1.259 . S
Co33 O34 2.061 . S
Co33 O39 2.052 . S
Co33 O41 2.135 . S
O34 Co33 2.061 . S
O34 C37 1.235 . S
C35 O38 1.238 . S
C35 O39 1.241 . S
C36 O29 1.247 . S
C36 O30 1.261 . S
C37 O32 1.259 . S
C37 O34 1.235 . S
O38 Co28 2.021 . S
O38 C35 1.238 . S
O39 Co33 2.052 . S
O39 C35 1.241 . S
O40 Co28 2.137 . S
O40 C31 1.247 . S
O41 Co28 2.244 . S
O41 C31 1.272 . S
O41 Co33 2.135 . S
Co42 O43 2.216 . S
Co42 O44 2.091 . S
Co42 O46 2.004 . S
Co42 O52 2.021 . S
Co42 O54 2.137 . S
Co42 O55 2.244 . S
O43 Co42 2.216 . S
O43 C50 1.247 . S
O44 Co42 2.091 . S
O44 C50 1.261 . S
C45 O54 1.247 . S
C45 O55 1.272 . S
O46 Co42 2.004 . S
O46 C51 1.259 . S
Co47 O48 2.061 . S
Co47 O53 2.052 . S
Co47 O55 2.135 . S
O48 Co47 2.061 . S
O48 C51 1.235 . S
C49 O52 1.238 . S
C49 O53 1.241 . S
C50 O43 1.247 . S
C50 O44 1.261 . S
C51 O46 1.259 . S
C51 O48 1.235 . S
O52 Co42 2.021 . S
O52 C49 1.238 . S
O53 Co47 2.052 . S
O53 C49 1.241 . S
O54 Co42 2.137 . S
O54 C45 1.247 . S
O55 Co42 2.244 . S
O55 C45 1.272 . S
O55 Co47 2.135 . S
Co56 O57 2.216 . S
Co56 O58 2.091 . S
Co56 O60 2.004 . S
Co56 O66 2.021 . S
Co56 O68 2.137 . S
Co56 O69 2.244 . S
O57 Co56 2.216 . S
O57 C64 1.247 . S
O58 Co56 2.091 . S
O58 C64 1.261 . S
C59 O68 1.247 . S
C59 O69 1.272 . S
O60 Co56 2.004 . S
O60 C65 1.259 . S
Co61 O62 2.061 . S
Co61 O67 2.052 . S
Co61 O69 2.135 . S
O62 Co61 2.061 . S
O62 C65 1.235 . S
C63 O66 1.238 . S
C63 O67 1.241 . S
C64 O57 1.247 . S
C64 O58 1.261 . S
C65 O60 1.259 . S
C65 O62 1.235 . S
O66 Co56 2.021 . S
O66 C63 1.238 . S
O67 Co61 2.052 . S
O67 C63 1.241 . S
O68 Co56 2.137 . S
O68 C59 1.247 . S
O69 Co56 2.244 . S
O69 C59 1.272 . S
O69 Co61 2.135 . S
Co70 O71 2.216 . S
Co70 O72 2.091 . S
Co70 O74 2.004 . S
Co70 O80 2.021 . S
Co70 O82 2.137 . S
Co70 O83 2.244 . S
O71 Co70 2.216 . S
O71 C78 1.247 . S
O72 Co70 2.091 . S
O72 C78 1.261 . S
C73 O82 1.247 . S
C73 O83 1.272 . S
O74 Co70 2.004 . S
O74 C79 1.259 . S
Co75 O76 2.061 . S
Co75 O81 2.052 . S
Co75 O83 2.135 . S
O76 Co75 2.061 . S
O76 C79 1.235 . S
C77 O80 1.238 . S
C77 O81 1.241 . S
C78 O71 1.247 . S
C78 O72 1.261 . S
C79 O74 1.259 . S
C79 O76 1.235 . S
O80 Co70 2.021 . S
O80 C77 1.238 . S
O81 Co75 2.052 . S
O81 C77 1.241 . S
O82 Co70 2.137 . S
O82 C73 1.247 . S
O83 Co70 2.244 . S
O83 C73 1.272 . S
O83 Co75 2.135 . S
Co84 O85 2.216 . S
Co84 O86 2.091 . S
Co84 O88 2.004 . S
Co84 O94 2.021 . S
Co84 O96 2.137 . S
Co84 O97 2.244 . S
O85 Co84 2.216 . S
O85 C92 1.247 . S
O86 Co84 2.091 . S
O86 C92 1.261 . S
C87 O96 1.247 . S
C87 O97 1.272 . S
O88 Co84 2.004 . S
O88 C93 1.259 . S
Co89 O90 2.061 . S
Co89 O95 2.052 . S
Co89 O97 2.135 . S
O90 Co89 2.061 . S
O90 C93 1.235 . S
C91 O94 1.238 . S
C91 O95 1.241 . S
C92 O85 1.247 . S
C92 O86 1.261 . S
C93 O88 1.259 . S
C93 O90 1.235 . S
O94 Co84 2.021 . S
O94 C91 1.238 . S
O95 Co89 2.052 . S
O95 C91 1.241 . S
O96 Co84 2.137 . S
O96 C87 1.247 . S
O97 Co84 2.244 . S
O97 C87 1.272 . S
O97 Co89 2.135 . S
Co98 O99 2.216 . S
Co98 O100 2.091 . S
Co98 O102 2.004 . S
Co98 O108 2.021 . S
Co98 O110 2.137 . S
Co98 O111 2.244 . S
O99 Co98 2.216 . S
O99 C106 1.247 . S
O100 Co98 2.091 . S
O100 C106 1.261 . S
C101 O110 1.247 . S
C101 O111 1.272 . S
O102 Co98 2.004 . S
O102 C107 1.259 . S
Co103 O104 2.061 . S
Co103 O109 2.052 . S
Co103 O111 2.135 . S
O104 Co103 2.061 . S
O104 C107 1.235 . S
C105 O108 1.238 . S
C105 O109 1.241 . S
C106 O99 1.247 . S
C106 O100 1.261 . S
C107 O102 1.259 . S
C107 O104 1.235 . S
O108 Co98 2.021 . S
O108 C105 1.238 . S
O109 Co103 2.052 . S
O109 C105 1.241 . S
O110 Co98 2.137 . S
O110 C101 1.247 . S
O111 Co98 2.244 . S
O111 C101 1.272 . S
O111 Co103 2.135 . S
Co112 O113 2.216 . S
Co112 O114 2.091 . S
Co112 O116 2.004 . S
Co112 O122 2.021 . S
Co112 O124 2.137 . S
Co112 O125 2.244 . S
O113 Co112 2.216 . S
O113 C120 1.247 . S
O114 Co112 2.091 . S
O114 C120 1.261 . S
C115 O124 1.247 . S
C115 O125 1.272 . S
O116 Co112 2.004 . S
O116 C121 1.259 . S
Co117 O118 2.061 . S
Co117 O123 2.052 . S
Co117 O125 2.135 . S
O118 Co117 2.061 . S
O118 C121 1.235 . S
C119 O122 1.238 . S
C119 O123 1.241 . S
C120 O113 1.247 . S
C120 O114 1.261 . S
C121 O116 1.259 . S
C121 O118 1.235 . S
O122 Co112 2.021 . S
O122 C119 1.238 . S
O123 Co117 2.052 . S
O123 C119 1.241 . S
O124 Co112 2.137 . S
O124 C115 1.247 . S
O125 Co112 2.244 . S
O125 C115 1.272 . S
O125 Co117 2.135 . S
Co126 O127 2.216 . S
Co126 O128 2.091 . S
Co126 O130 2.004 . S
Co126 O136 2.021 . S
Co126 O138 2.137 . S
Co126 O139 2.244 . S
O127 Co126 2.216 . S
O127 C134 1.247 . S
O128 Co126 2.091 . S
O128 C134 1.261 . S
C129 O138 1.247 . S
C129 O139 1.272 . S
O130 Co126 2.004 . S
O130 C135 1.259 . S
Co131 O132 2.061 . S
Co131 O137 2.052 . S
Co131 O139 2.135 . S
O132 Co131 2.061 . S
O132 C135 1.235 . S
C133 O136 1.238 . S
C133 O137 1.241 . S
C134 O127 1.247 . S
C134 O128 1.261 . S
C135 O130 1.259 . S
C135 O132 1.235 . S
O136 Co126 2.021 . S
O136 C133 1.238 . S
O137 Co131 2.052 . S
O137 C133 1.241 . S
O138 Co126 2.137 . S
O138 C129 1.247 . S
O139 Co126 2.244 . S
O139 C129 1.272 . S
O139 Co131 2.135 . S
Co140 O141 2.216 . S
Co140 O142 2.091 . S
Co140 O144 2.004 . S
Co140 O150 2.021 . S
Co140 O152 2.137 . S
Co140 O153 2.244 . S
O141 Co140 2.216 . S
O141 C148 1.247 . S
O142 Co140 2.091 . S
O142 C148 1.261 . S
C143 O152 1.247 . S
C143 O153 1.272 . S
O144 Co140 2.004 . S
O144 C149 1.259 . S
Co145 O146 2.061 . S
Co145 O151 2.052 . S
Co145 O153 2.135 . S
O146 Co145 2.061 . S
O146 C149 1.235 . S
C147 O150 1.238 . S
C147 O151 1.241 . S
C148 O141 1.247 . S
C148 O142 1.261 . S
C149 O144 1.259 . S
C149 O146 1.235 . S
O150 Co140 2.021 . S
O150 C147 1.238 . S
O151 Co145 2.052 . S
O151 C147 1.241 . S
O152 Co140 2.137 . S
O152 C143 1.247 . S
O153 Co140 2.244 . S
O153 C143 1.272 . S
O153 Co145 2.135 . S
Co154 O155 2.216 . S
Co154 O156 2.091 . S
Co154 O158 2.004 . S
Co154 O164 2.021 . S
Co154 O166 2.137 . S
Co154 O167 2.244 . S
O155 Co154 2.216 . S
O155 C162 1.247 . S
O156 Co154 2.091 . S
O156 C162 1.261 . S
C157 O166 1.247 . S
C157 O167 1.272 . S
O158 Co154 2.004 . S
O158 C163 1.259 . S
Co159 O160 2.061 . S
Co159 O165 2.052 . S
Co159 O167 2.135 . S
O160 Co159 2.061 . S
O160 C163 1.235 . S
C161 O164 1.238 . S
C161 O165 1.241 . S
C162 O155 1.247 . S
C162 O156 1.261 . S
C163 O158 1.259 . S
C163 O160 1.235 . S
O164 Co154 2.021 . S
O164 C161 1.238 . S
O165 Co159 2.052 . S
O165 C161 1.241 . S
O166 Co154 2.137 . S
O166 C157 1.247 . S
O167 Co154 2.244 . S
O167 C157 1.272 . S
O167 Co159 2.135 . S
Co168 O169 2.216 . S
Co168 O170 2.091 . S
Co168 O172 2.004 . S
Co168 O178 2.021 . S
Co168 O180 2.137 . S
Co168 O181 2.244 . S
O169 Co168 2.216 . S
O169 C176 1.247 . S
O170 Co168 2.091 . S
O170 C176 1.261 . S
C171 O180 1.247 . S
C171 O181 1.272 . S
O172 Co168 2.004 . S
O172 C177 1.259 . S
Co173 O174 2.061 . S
Co173 O179 2.052 . S
Co173 O181 2.135 . S
O174 Co173 2.061 . S
O174 C177 1.235 . S
C175 O178 1.238 . S
C175 O179 1.241 . S
C176 O169 1.247 . S
C176 O170 1.261 . S
C177 O172 1.259 . S
C177 O174 1.235 . S
O178 Co168 2.021 . S
O178 C175 1.238 . S
O179 Co173 2.052 . S
O179 C175 1.241 . S
O180 Co168 2.137 . S
O180 C171 1.247 . S
O181 Co168 2.244 . S
O181 C171 1.272 . S
O181 Co173 2.135 . S
Co182 O183 2.216 . S
Co182 O184 2.091 . S
Co182 O186 2.004 . S
Co182 O192 2.021 . S
Co182 O194 2.137 . S
Co182 O195 2.244 . S
O183 Co182 2.216 . S
O183 C190 1.247 . S
O184 Co182 2.091 . S
O184 C190 1.261 . S
C185 O194 1.247 . S
C185 O195 1.272 . S
O186 Co182 2.004 . S
O186 C191 1.259 . S
Co187 O188 2.061 . S
Co187 O193 2.052 . S
Co187 O195 2.135 . S
O188 Co187 2.061 . S
O188 C191 1.235 . S
C189 O192 1.238 . S
C189 O193 1.241 . S
C190 O183 1.247 . S
C190 O184 1.261 . S
C191 O186 1.259 . S
C191 O188 1.235 . S
O192 Co182 2.021 . S
O192 C189 1.238 . S
O193 Co187 2.052 . S
O193 C189 1.241 . S
O194 Co182 2.137 . S
O194 C185 1.247 . S
O195 Co182 2.244 . S
O195 C185 1.272 . S
O195 Co187 2.135 . S
Co196 O197 2.216 . S
Co196 O198 2.091 . S
Co196 O200 2.004 . S
Co196 O206 2.021 . S
Co196 O208 2.137 . S
Co196 O209 2.244 . S
O197 Co196 2.216 . S
O197 C204 1.247 . S
O198 Co196 2.091 . S
O198 C204 1.261 . S
C199 O208 1.247 . S
C199 O209 1.272 . S
O200 Co196 2.004 . S
O200 C205 1.259 . S
Co201 O202 2.061 . S
Co201 O207 2.052 . S
Co201 O209 2.135 . S
O202 Co201 2.061 . S
O202 C205 1.235 . S
C203 O206 1.238 . S
C203 O207 1.241 . S
C204 O197 1.247 . S
C204 O198 1.261 . S
C205 O200 1.259 . S
C205 O202 1.235 . S
O206 Co196 2.021 . S
O206 C203 1.238 . S
O207 Co201 2.052 . S
O207 C203 1.241 . S
O208 Co196 2.137 . S
O208 C199 1.247 . S
O209 Co196 2.244 . S
O209 C199 1.272 . S
O209 Co201 2.135 . S
Co210 O211 2.216 . S
Co210 O212 2.091 . S
Co210 O214 2.004 . S
Co210 O220 2.021 . S
Co210 O222 2.137 . S
Co210 O223 2.244 . S
O211 Co210 2.216 . S
O211 C218 1.247 . S
O212 Co210 2.091 . S
O212 C218 1.261 . S
C213 O222 1.247 . S
C213 O223 1.272 . S
O214 Co210 2.004 . S
O214 C219 1.259 . S
Co215 O216 2.061 . S
Co215 O221 2.052 . S
Co215 O223 2.135 . S
O216 Co215 2.061 . S
O216 C219 1.235 . S
C217 O220 1.238 . S
C217 O221 1.241 . S
C218 O211 1.247 . S
C218 O212 1.261 . S
C219 O214 1.259 . S
C219 O216 1.235 . S
O220 Co210 2.021 . S
O220 C217 1.238 . S
O221 Co215 2.052 . S
O221 C217 1.241 . S
O222 Co210 2.137 . S
O222 C213 1.247 . S
O223 Co210 2.244 . S
O223 C213 1.272 . S
O223 Co215 2.135 . S
Co224 O225 2.216 . S
Co224 O226 2.091 . S
Co224 O228 2.004 . S
Co224 O234 2.021 . S
Co224 O236 2.137 . S
Co224 O237 2.244 . S
O225 Co224 2.216 . S
O225 C232 1.247 . S
O226 Co224 2.091 . S
O226 C232 1.261 . S
C227 O236 1.247 . S
C227 O237 1.272 . S
O228 Co224 2.004 . S
O228 C233 1.259 . S
Co229 O230 2.061 . S
Co229 O235 2.052 . S
Co229 O237 2.135 . S
O230 Co229 2.061 . S
O230 C233 1.235 . S
C231 O234 1.238 . S
C231 O235 1.241 . S
C232 O225 1.247 . S
C232 O226 1.261 . S
C233 O228 1.259 . S
C233 O230 1.235 . S
O234 Co224 2.021 . S
O234 C231 1.238 . S
O235 Co229 2.052 . S
O235 C231 1.241 . S
O236 Co224 2.137 . S
O236 C227 1.247 . S
O237 Co224 2.244 . S
O237 C227 1.272 . S
O237 Co229 2.135 . S
Co238 O239 2.216 . S
Co238 O240 2.091 . S
Co238 O242 2.004 . S
Co238 O248 2.021 . S
Co238 O250 2.137 . S
Co238 O251 2.244 . S
O239 Co238 2.216 . S
O239 C246 1.247 . S
O240 Co238 2.091 . S
O240 C246 1.261 . S
C241 O250 1.247 . S
C241 O251 1.272 . S
O242 Co238 2.004 . S
O242 C247 1.259 . S
Co243 O244 2.061 . S
Co243 O249 2.052 . S
Co243 O251 2.135 . S
O244 Co243 2.061 . S
O244 C247 1.235 . S
C245 O248 1.238 . S
C245 O249 1.241 . S
C246 O239 1.247 . S
C246 O240 1.261 . S
C247 O242 1.259 . S
C247 O244 1.235 . S
O248 Co238 2.021 . S
O248 C245 1.238 . S
O249 Co243 2.052 . S
O249 C245 1.241 . S
O250 Co238 2.137 . S
O250 C241 1.247 . S
O251 Co238 2.244 . S
O251 C241 1.272 . S
O251 Co243 2.135 . S
Co252 O253 2.216 . S
Co252 O254 2.091 . S
Co252 O256 2.004 . S
Co252 O262 2.021 . S
Co252 O264 2.137 . S
Co252 O265 2.244 . S
O253 Co252 2.216 . S
O253 C260 1.247 . S
O254 Co252 2.091 . S
O254 C260 1.261 . S
C255 O264 1.247 . S
C255 O265 1.272 . S
O256 Co252 2.004 . S
O256 C261 1.259 . S
Co257 O258 2.061 . S
Co257 O263 2.052 . S
Co257 O265 2.135 . S
O258 Co257 2.061 . S
O258 C261 1.235 . S
C259 O262 1.238 . S
C259 O263 1.241 . S
C260 O253 1.247 . S
C260 O254 1.261 . S
C261 O256 1.259 . S
C261 O258 1.235 . S
O262 Co252 2.021 . S
O262 C259 1.238 . S
O263 Co257 2.052 . S
O263 C259 1.241 . S
O264 Co252 2.137 . S
O264 C255 1.247 . S
O265 Co252 2.244 . S
O265 C255 1.272 . S
O265 Co257 2.135 . S
Co266 O267 2.216 . S
Co266 O268 2.091 . S
Co266 O270 2.004 . S
Co266 O276 2.021 . S
Co266 O278 2.137 . S
Co266 O279 2.244 . S
O267 Co266 2.216 . S
O267 C274 1.247 . S
O268 Co266 2.091 . S
O268 C274 1.261 . S
C269 O278 1.247 . S
C269 O279 1.272 . S
O270 Co266 2.004 . S
O270 C275 1.259 . S
Co271 O272 2.061 . S
Co271 O277 2.052 . S
Co271 O279 2.135 . S
O272 Co271 2.061 . S
O272 C275 1.235 . S
C273 O276 1.238 . S
C273 O277 1.241 . S
C274 O267 1.247 . S
C274 O268 1.261 . S
C275 O270 1.259 . S
C275 O272 1.235 . S
O276 Co266 2.021 . S
O276 C273 1.238 . S
O277 Co271 2.052 . S
O277 C273 1.241 . S
O278 Co266 2.137 . S
O278 C269 1.247 . S
O279 Co266 2.244 . S
O279 C269 1.272 . S
O279 Co271 2.135 . S
Co280 O281 2.216 . S
Co280 O282 2.091 . S
Co280 O284 2.004 . S
Co280 O290 2.021 . S
Co280 O292 2.137 . S
Co280 O293 2.244 . S
O281 Co280 2.216 . S
O281 C288 1.247 . S
O282 Co280 2.091 . S
O282 C288 1.261 . S
C283 O292 1.247 . S
C283 O293 1.272 . S
O284 Co280 2.004 . S
O284 C289 1.259 . S
Co285 O286 2.061 . S
Co285 O291 2.052 . S
Co285 O293 2.135 . S
O286 Co285 2.061 . S
O286 C289 1.235 . S
C287 O290 1.238 . S
C287 O291 1.241 . S
C288 O281 1.247 . S
C288 O282 1.261 . S
C289 O284 1.259 . S
C289 O286 1.235 . S
O290 Co280 2.021 . S
O290 C287 1.238 . S
O291 Co285 2.052 . S
O291 C287 1.241 . S
O292 Co280 2.137 . S
O292 C283 1.247 . S
O293 Co280 2.244 . S
O293 C283 1.272 . S
O293 Co285 2.135 . S
Co294 O295 2.216 . S
Co294 O296 2.091 . S
Co294 O298 2.004 . S
Co294 O304 2.021 . S
Co294 O306 2.137 . S
Co294 O307 2.244 . S
O295 Co294 2.216 . S
O295 C302 1.247 . S
O296 Co294 2.091 . S
O296 C302 1.261 . S
C297 O306 1.247 . S
C297 O307 1.272 . S
O298 Co294 2.004 . S
O298 C303 1.259 . S
Co299 O300 2.061 . S
Co299 O305 2.052 . S
Co299 O307 2.135 . S
O300 Co299 2.061 . S
O300 C303 1.235 . S
C301 O304 1.238 . S
C301 O305 1.241 . S
C302 O295 1.247 . S
C302 O296 1.261 . S
C303 O298 1.259 . S
C303 O300 1.235 . S
O304 Co294 2.021 . S
O304 C301 1.238 . S
O305 Co299 2.052 . S
O305 C301 1.241 . S
O306 Co294 2.137 . S
O306 C297 1.247 . S
O307 Co294 2.244 . S
O307 C297 1.272 . S
O307 Co299 2.135 . S
Co308 O309 2.216 . S
Co308 O310 2.091 . S
Co308 O312 2.004 . S
Co308 O318 2.021 . S
Co308 O320 2.137 . S
Co308 O321 2.244 . S
O309 Co308 2.216 . S
O309 C316 1.247 . S
O310 Co308 2.091 . S
O310 C316 1.261 . S
C311 O320 1.247 . S
C311 O321 1.272 . S
O312 Co308 2.004 . S
O312 C317 1.259 . S
Co313 O314 2.061 . S
Co313 O319 2.052 . S
Co313 O321 2.135 . S
O314 Co313 2.061 . S
O314 C317 1.235 . S
C315 O318 1.238 . S
C315 O319 1.241 . S
C316 O309 1.247 . S
C316 O310 1.261 . S
C317 O312 1.259 . S
C317 O314 1.235 . S
O318 Co308 2.021 . S
O318 C315 1.238 . S
O319 Co313 2.052 . S
O319 C315 1.241 . S
O320 Co308 2.137 . S
O320 C311 1.247 . S
O321 Co308 2.244 . S
O321 C311 1.272 . S
O321 Co313 2.135 . S
Co322 O323 2.216 . S
Co322 O324 2.091 . S
Co322 O326 2.004 . S
Co322 O332 2.021 . S
Co322 O334 2.137 . S
Co322 O335 2.244 . S
O323 Co322 2.216 . S
O323 C330 1.247 . S
O324 Co322 2.091 . S
O324 C330 1.261 . S
C325 O334 1.247 . S
C325 O335 1.272 . S
O326 Co322 2.004 . S
O326 C331 1.259 . S
Co327 O328 2.061 . S
Co327 O333 2.052 . S
Co327 O335 2.135 . S
O328 Co327 2.061 . S
O328 C331 1.235 . S
C329 O332 1.238 . S
C329 O333 1.241 . S
C330 O323 1.247 . S
C330 O324 1.261 . S
C331 O326 1.259 . S
C331 O328 1.235 . S
O332 Co322 2.021 . S
O332 C329 1.238 . S
O333 Co327 2.052 . S
O333 C329 1.241 . S
O334 Co322 2.137 . S
O334 C325 1.247 . S
O335 Co322 2.244 . S
O335 C325 1.272 . S
O335 Co327 2.135 . S
Co336 O337 2.216 . S
Co336 O338 2.091 . S
Co336 O340 2.004 . S
Co336 O346 2.021 . S
Co336 O348 2.137 . S
Co336 O349 2.244 . S
O337 Co336 2.216 . S
O337 C344 1.247 . S
O338 Co336 2.091 . S
O338 C344 1.261 . S
C339 O348 1.247 . S
C339 O349 1.272 . S
O340 Co336 2.004 . S
O340 C345 1.259 . S
Co341 O342 2.061 . S
Co341 O347 2.052 . S
Co341 O349 2.135 . S
O342 Co341 2.061 . S
O342 C345 1.235 . S
C343 O346 1.238 . S
C343 O347 1.241 . S
C344 O337 1.247 . S
C344 O338 1.261 . S
C345 O340 1.259 . S
C345 O342 1.235 . S
O346 Co336 2.021 . S
O346 C343 1.238 . S
O347 Co341 2.052 . S
O347 C343 1.241 . S
O348 Co336 2.137 . S
O348 C339 1.247 . S
O349 Co336 2.244 . S
O349 C339 1.272 . S
O349 Co341 2.135 . S
Co350 O351 2.216 . S
Co350 O352 2.091 . S
Co350 O354 2.004 . S
Co350 O360 2.021 . S
Co350 O362 2.137 . S
Co350 O363 2.244 . S
O351 Co350 2.216 . S
O351 C358 1.247 . S
O352 Co350 2.091 . S
O352 C358 1.261 . S
C353 O362 1.247 . S
C353 O363 1.272 . S
O354 Co350 2.004 . S
O354 C359 1.259 . S
Co355 O356 2.061 . S
Co355 O361 2.052 . S
Co355 O363 2.135 . S
O356 Co355 2.061 . S
O356 C359 1.235 . S
C357 O360 1.238 . S
C357 O361 1.241 . S
C358 O351 1.247 . S
C358 O352 1.261 . S
C359 O354 1.259 . S
C359 O356 1.235 . S
O360 Co350 2.021 . S
O360 C357 1.238 . S
O361 Co355 2.052 . S
O361 C357 1.241 . S
O362 Co350 2.137 . S
O362 C353 1.247 . S
O363 Co350 2.244 . S
O363 C353 1.272 . S
O363 Co355 2.135 . S
Co364 O365 2.216 . S
Co364 O366 2.091 . S
Co364 O368 2.004 . S
Co364 O374 2.021 . S
Co364 O376 2.137 . S
Co364 O377 2.244 . S
O365 Co364 2.216 . S
O365 C372 1.247 . S
O366 Co364 2.091 . S
O366 C372 1.261 . S
C367 O376 1.247 . S
C367 O377 1.272 . S
O368 Co364 2.004 . S
O368 C373 1.259 . S
Co369 O370 2.061 . S
Co369 O375 2.052 . S
Co369 O377 2.135 . S
O370 Co369 2.061 . S
O370 C373 1.235 . S
C371 O374 1.238 . S
C371 O375 1.241 . S
C372 O365 1.247 . S
C372 O366 1.261 . S
C373 O368 1.259 . S
C373 O370 1.235 . S
O374 Co364 2.021 . S
O374 C371 1.238 . S
O375 Co369 2.052 . S
O375 C371 1.241 . S
O376 Co364 2.137 . S
O376 C367 1.247 . S
O377 Co364 2.244 . S
O377 C367 1.272 . S
O377 Co369 2.135 . S
Co378 O379 2.216 . S
Co378 O380 2.091 . S
Co378 O382 2.004 . S
Co378 O388 2.021 . S
Co378 O390 2.137 . S
Co378 O391 2.244 . S
O379 Co378 2.216 . S
O379 C386 1.247 . S
O380 Co378 2.091 . S
O380 C386 1.261 . S
C381 O390 1.247 . S
C381 O391 1.272 . S
O382 Co378 2.004 . S
O382 C387 1.259 . S
Co383 O384 2.061 . S
Co383 O389 2.052 . S
Co383 O391 2.135 . S
O384 Co383 2.061 . S
O384 C387 1.235 . S
C385 O388 1.238 . S
C385 O389 1.241 . S
C386 O379 1.247 . S
C386 O380 1.261 . S
C387 O382 1.259 . S
C387 O384 1.235 . S
O388 Co378 2.021 . S
O388 C385 1.238 . S
O389 Co383 2.052 . S
O389 C385 1.241 . S
O390 Co378 2.137 . S
O390 C381 1.247 . S
O391 Co378 2.244 . S
O391 C381 1.272 . S
O391 Co383 2.135 . S
Co392 O393 2.216 . S
Co392 O394 2.091 . S
Co392 O396 2.004 . S
Co392 O402 2.021 . S
Co392 O404 2.137 . S
Co392 O405 2.244 . S
O393 Co392 2.216 . S
O393 C400 1.247 . S
O394 Co392 2.091 . S
O394 C400 1.261 . S
C395 O404 1.247 . S
C395 O405 1.272 . S
O396 Co392 2.004 . S
O396 C401 1.259 . S
Co397 O398 2.061 . S
Co397 O403 2.052 . S
Co397 O405 2.135 . S
O398 Co397 2.061 . S
O398 C401 1.235 . S
C399 O402 1.238 . S
C399 O403 1.241 . S
C400 O393 1.247 . S
C400 O394 1.261 . S
C401 O396 1.259 . S
C401 O398 1.235 . S
O402 Co392 2.021 . S
O402 C399 1.238 . S
O403 Co397 2.052 . S
O403 C399 1.241 . S
O404 Co392 2.137 . S
O404 C395 1.247 . S
O405 Co392 2.244 . S
O405 C395 1.272 . S
O405 Co397 2.135 . S
Co406 O407 2.216 . S
Co406 O408 2.091 . S
Co406 O410 2.004 . S
Co406 O416 2.021 . S
Co406 O418 2.137 . S
Co406 O419 2.244 . S
O407 Co406 2.216 . S
O407 C414 1.247 . S
O408 Co406 2.091 . S
O408 C414 1.261 . S
C409 O418 1.247 . S
C409 O419 1.272 . S
O410 Co406 2.004 . S
O410 C415 1.259 . S
Co411 O412 2.061 . S
Co411 O417 2.052 . S
Co411 O419 2.135 . S
O412 Co411 2.061 . S
O412 C415 1.235 . S
C413 O416 1.238 . S
C413 O417 1.241 . S
C414 O407 1.247 . S
C414 O408 1.261 . S
C415 O410 1.259 . S
C415 O412 1.235 . S
O416 Co406 2.021 . S
O416 C413 1.238 . S
O417 Co411 2.052 . S
O417 C413 1.241 . S
O418 Co406 2.137 . S
O418 C409 1.247 . S
O419 Co406 2.244 . S
O419 C409 1.272 . S
O419 Co411 2.135 . S
Co420 O421 2.216 . S
Co420 O422 2.091 . S
Co420 O424 2.004 . S
Co420 O430 2.021 . S
Co420 O432 2.137 . S
Co420 O433 2.244 . S
O421 Co420 2.216 . S
O421 C428 1.247 . S
O422 Co420 2.091 . S
O422 C428 1.261 . S
C423 O432 1.247 . S
C423 O433 1.272 . S
O424 Co420 2.004 . S
O424 C429 1.259 . S
Co425 O426 2.061 . S
Co425 O431 2.052 . S
Co425 O433 2.135 . S
O426 Co425 2.061 . S
O426 C429 1.235 . S
C427 O430 1.238 . S
C427 O431 1.241 . S
C428 O421 1.247 . S
C428 O422 1.261 . S
C429 O424 1.259 . S
C429 O426 1.235 . S
O430 Co420 2.021 . S
O430 C427 1.238 . S
O431 Co425 2.052 . S
O431 C427 1.241 . S
O432 Co420 2.137 . S
O432 C423 1.247 . S
O433 Co420 2.244 . S
O433 C423 1.272 . S
O433 Co425 2.135 . S
Co434 O435 2.216 . S
Co434 O436 2.091 . S
Co434 O438 2.004 . S
Co434 O444 2.021 . S
Co434 O446 2.137 . S
Co434 O447 2.244 . S
O435 Co434 2.216 . S
O435 C442 1.247 . S
O436 Co434 2.091 . S
O436 C442 1.261 . S
C437 O446 1.247 . S
C437 O447 1.272 . S
O438 Co434 2.004 . S
O438 C443 1.259 . S
Co439 O440 2.061 . S
Co439 O445 2.052 . S
Co439 O447 2.135 . S
O440 Co439 2.061 . S
O440 C443 1.235 . S
C441 O444 1.238 . S
C441 O445 1.241 . S
C442 O435 1.247 . S
C442 O436 1.261 . S
C443 O438 1.259 . S
C443 O440 1.235 . S
O444 Co434 2.021 . S
O444 C441 1.238 . S
O445 Co439 2.052 . S
O445 C441 1.241 . S
O446 Co434 2.137 . S
O446 C437 1.247 . S
O447 Co434 2.244 . S
O447 C437 1.272 . S
O447 Co439 2.135 . S
Co448 O449 2.216 . S
Co448 O450 2.091 . S
Co448 O452 2.004 . S
Co448 O458 2.021 . S
Co448 O460 2.137 . S
Co448 O461 2.244 . S
O449 Co448 2.216 . S
O449 C456 1.247 . S
O450 Co448 2.091 . S
O450 C456 1.261 . S
C451 O460 1.247 . S
C451 O461 1.272 . S
O452 Co448 2.004 . S
O452 C457 1.259 . S
Co453 O454 2.061 . S
Co453 O459 2.052 . S
Co453 O461 2.135 . S
O454 Co453 2.061 . S
O454 C457 1.235 . S
C455 O458 1.238 . S
C455 O459 1.241 . S
C456 O449 1.247 . S
C456 O450 1.261 . S
C457 O452 1.259 . S
C457 O454 1.235 . S
O458 Co448 2.021 . S
O458 C455 1.238 . S
O459 Co453 2.052 . S
O459 C455 1.241 . S
O460 Co448 2.137 . S
O460 C451 1.247 . S
O461 Co448 2.244 . S
O461 C451 1.272 . S
O461 Co453 2.135 . S
Co462 O463 2.216 . S
Co462 O464 2.091 . S
Co462 O466 2.004 . S
Co462 O472 2.021 . S
Co462 O474 2.137 . S
Co462 O475 2.244 . S
O463 Co462 2.216 . S
O463 C470 1.247 . S
O464 Co462 2.091 . S
O464 C470 1.261 . S
C465 O474 1.247 . S
C465 O475 1.272 . S
O466 Co462 2.004 . S
O466 C471 1.259 . S
Co467 O468 2.061 . S
Co467 O473 2.052 . S
Co467 O475 2.135 . S
O468 Co467 2.061 . S
O468 C471 1.235 . S
C469 O472 1.238 . S
C469 O473 1.241 . S
C470 O463 1.247 . S
C470 O464 1.261 . S
C471 O466 1.259 . S
C471 O468 1.235 . S
O472 Co462 2.021 . S
O472 C469 1.238 . S
O473 Co467 2.052 . S
O473 C469 1.241 . S
O474 Co462 2.137 . S
O474 C465 1.247 . S
O475 Co462 2.244 . S
O475 C465 1.272 . S
O475 Co467 2.135 . S
Co476 O477 2.216 . S
Co476 O478 2.091 . S
Co476 O480 2.004 . S
Co476 O486 2.021 . S
Co476 O488 2.137 . S
Co476 O489 2.244 . S
O477 Co476 2.216 . S
O477 C484 1.247 . S
O478 Co476 2.091 . S
O478 C484 1.261 . S
C479 O488 1.247 . S
C479 O489 1.272 . S
O480 Co476 2.004 . S
O480 C485 1.259 . S
Co481 O482 2.061 . S
Co481 O487 2.052 . S
Co481 O489 2.135 . S
O482 Co481 2.061 . S
O482 C485 1.235 . S
C483 O486 1.238 . S
C483 O487 1.241 . S
C484 O477 1.247 . S
C484 O478 1.261 . S
C485 O480 1.259 . S
C485 O482 1.235 . S
O486 Co476 2.021 . S
O486 C483 1.238 . S
O487 Co481 2.052 . S
O487 C483 1.241 . S
O488 Co476 2.137 . S
O488 C479 1.247 . S
O489 Co476 2.244 . S
O489 C479 1.272 . S
O489 Co481 2.135 . S
Co490 O491 2.216 . S
Co490 O492 2.091 . S
Co490 O494 2.004 . S
Co490 O500 2.021 . S
Co490 O502 2.137 . S
Co490 O503 2.244 . S
O491 Co490 2.216 . S
O491 C498 1.247 . S
O492 Co490 2.091 . S
O492 C498 1.261 . S
C493 O502 1.247 . S
C493 O503 1.272 . S
O494 Co490 2.004 . S
O494 C499 1.259 . S
Co495 O496 2.061 . S
Co495 O501 2.052 . S
Co495 O503 2.135 . S
O496 Co495 2.061 . S
O496 C499 1.235 . S
C497 O500 1.238 . S
C497 O501 1.241 . S
C498 O491 1.247 . S
C498 O492 1.261 . S
C499 O494 1.259 . S
C499 O496 1.235 . S
O500 Co490 2.021 . S
O500 C497 1.238 . S
O501 Co495 2.052 . S
O501 C497 1.241 . S
O502 Co490 2.137 . S
O502 C493 1.247 . S
O503 Co490 2.244 . S
O503 C493 1.272 . S
O503 Co495 2.135 . S
Co504 O505 2.216 . S
Co504 O506 2.091 . S
Co504 O508 2.004 . S
Co504 O514 2.021 . S
Co504 O516 2.137 . S
Co504 O517 2.244 . S
O505 Co504 2.216 . S
O505 C512 1.247 . S
O506 Co504 2.091 . S
O506 C512 1.261 . S
C507 O516 1.247 . S
C507 O517 1.272 . S
O508 Co504 2.004 . S
O508 C513 1.259 . S
Co509 O510 2.061 . S
Co509 O515 2.052 . S
Co509 O517 2.135 . S
O510 Co509 2.061 . S
O510 C513 1.235 . S
C511 O514 1.238 . S
C511 O515 1.241 . S
C512 O505 1.247 . S
C512 O506 1.261 . S
C513 O508 1.259 . S
C513 O510 1.235 . S
O514 Co504 2.021 . S
O514 C511 1.238 . S
O515 Co509 2.052 . S
O515 C511 1.241 . S
O516 Co504 2.137 . S
O516 C507 1.247 . S
O517 Co504 2.244 . S
O517 C507 1.272 . S
O517 Co509 2.135 . S
Co518 O519 2.216 . S
Co518 O520 2.091 . S
Co518 O522 2.004 . S
Co518 O528 2.021 . S
Co518 O530 2.137 . S
Co518 O531 2.244 . S
O519 Co518 2.216 . S
O519 C526 1.247 . S
O520 Co518 2.091 . S
O520 C526 1.261 . S
C521 O530 1.247 . S
C521 O531 1.272 . S
O522 Co518 2.004 . S
O522 C527 1.259 . S
Co523 O524 2.061 . S
Co523 O529 2.052 . S
Co523 O531 2.135 . S
O524 Co523 2.061 . S
O524 C527 1.235 . S
C525 O528 1.238 . S
C525 O529 1.241 . S
C526 O519 1.247 . S
C526 O520 1.261 . S
C527 O522 1.259 . S
C527 O524 1.235 . S
O528 Co518 2.021 . S
O528 C525 1.238 . S
O529 Co523 2.052 . S
O529 C525 1.241 . S
O530 Co518 2.137 . S
O530 C521 1.247 . S
O531 Co518 2.244 . S
O531 C521 1.272 . S
O531 Co523 2.135 . S
Co532 O533 2.216 . S
Co532 O534 2.091 . S
Co532 O536 2.004 . S
Co532 O542 2.021 . S
Co532 O544 2.137 . S
Co532 O545 2.244 . S
O533 Co532 2.216 . S
O533 C540 1.247 . S
O534 Co532 2.091 . S
O534 C540 1.261 . S
C535 O544 1.247 . S
C535 O545 1.272 . S
O536 Co532 2.004 . S
O536 C541 1.259 . S
Co537 O538 2.061 . S
Co537 O543 2.052 . S
Co537 O545 2.135 . S
O538 Co537 2.061 . S
O538 C541 1.235 . S
C539 O542 1.238 . S
C539 O543 1.241 . S
C540 O533 1.247 . S
C540 O534 1.261 . S
C541 O536 1.259 . S
C541 O538 1.235 . S
O542 Co532 2.021 . S
O542 C539 1.238 . S
O543 Co537 2.052 . S
O543 C539 1.241 . S
O544 Co532 2.137 . S
O544 C535 1.247 . S
O545 Co532 2.244 . S
O545 C535 1.272 . S
O545 Co537 2.135 . S
Co546 O547 2.216 . S
Co546 O548 2.091 . S
Co546 O550 2.004 . S
Co546 O556 2.021 . S
Co546 O558 2.137 . S
Co546 O559 2.244 . S
O547 Co546 2.216 . S
O547 C554 1.247 . S
O548 Co546 2.091 . S
O548 C554 1.261 . S
C549 O558 1.247 . S
C549 O559 1.272 . S
O550 Co546 2.004 . S
O550 C555 1.259 . S
Co551 O552 2.061 . S
Co551 O557 2.052 . S
Co551 O559 2.135 . S
O552 Co551 2.061 . S
O552 C555 1.235 . S
C553 O556 1.238 . S
C553 O557 1.241 . S
C554 O547 1.247 . S
C554 O548 1.261 . S
C555 O550 1.259 . S
C555 O552 1.235 . S
O556 Co546 2.021 . S
O556 C553 1.238 . S
O557 Co551 2.052 . S
O557 C553 1.241 . S
O558 Co546 2.137 . S
O558 C549 1.247 . S
O559 Co546 2.244 . S
O559 C549 1.272 . S
O559 Co551 2.135 . S
Co560 O561 2.216 . S
Co560 O562 2.091 . S
Co560 O564 2.004 . S
Co560 O570 2.021 . S
Co560 O572 2.137 . S
Co560 O573 2.244 . S
O561 Co560 2.216 . S
O561 C568 1.247 . S
O562 Co560 2.091 . S
O562 C568 1.261 . S
C563 O572 1.247 . S
C563 O573 1.272 . S
O564 Co560 2.004 . S
O564 C569 1.259 . S
Co565 O566 2.061 . S
Co565 O571 2.052 . S
Co565 O573 2.135 . S
O566 Co565 2.061 . S
O566 C569 1.235 . S
C567 O570 1.238 . S
C567 O571 1.241 . S
C568 O561 1.247 . S
C568 O562 1.261 . S
C569 O564 1.259 . S
C569 O566 1.235 . S
O570 Co560 2.021 . S
O570 C567 1.238 . S
O571 Co565 2.052 . S
O571 C567 1.241 . S
O572 Co560 2.137 . S
O572 C563 1.247 . S
O573 Co560 2.244 . S
O573 C563 1.272 . S
O573 Co565 2.135 . S
Co574 O575 2.216 . S
Co574 O576 2.091 . S
Co574 O578 2.004 . S
Co574 O584 2.021 . S
Co574 O586 2.137 . S
Co574 O587 2.244 . S
O575 Co574 2.216 . S
O575 C582 1.247 . S
O576 Co574 2.091 . S
O576 C582 1.261 . S
C577 O586 1.247 . S
C577 O587 1.272 . S
O578 Co574 2.004 . S
O578 C583 1.259 . S
Co579 O580 2.061 . S
Co579 O585 2.052 . S
Co579 O587 2.135 . S
O580 Co579 2.061 . S
O580 C583 1.235 . S
C581 O584 1.238 . S
C581 O585 1.241 . S
C582 O575 1.247 . S
C582 O576 1.261 . S
C583 O578 1.259 . S
C583 O580 1.235 . S
O584 Co574 2.021 . S
O584 C581 1.238 . S
O585 Co579 2.052 . S
O585 C581 1.241 . S
O586 Co574 2.137 . S
O586 C577 1.247 . S
O587 Co574 2.244 . S
O587 C577 1.272 . S
O587 Co579 2.135 . S
Co588 O589 2.216 . S
Co588 O590 2.091 . S
Co588 O592 2.004 . S
Co588 O598 2.021 . S
Co588 O600 2.137 . S
Co588 O601 2.244 . S
O589 Co588 2.216 . S
O589 C596 1.247 . S
O590 Co588 2.091 . S
O590 C596 1.261 . S
C591 O600 1.247 . S
C591 O601 1.272 . S
O592 Co588 2.004 . S
O592 C597 1.259 . S
Co593 O594 2.061 . S
Co593 O599 2.052 . S
Co593 O601 2.135 . S
O594 Co593 2.061 . S
O594 C597 1.235 . S
C595 O598 1.238 . S
C595 O599 1.241 . S
C596 O589 1.247 . S
C596 O590 1.261 . S
C597 O592 1.259 . S
C597 O594 1.235 . S
O598 Co588 2.021 . S
O598 C595 1.238 . S
O599 Co593 2.052 . S
O599 C595 1.241 . S
O600 Co588 2.137 . S
O600 C591 1.247 . S
O601 Co588 2.244 . S
O601 C591 1.272 . S
O601 Co593 2.135 . S
Co602 O603 2.216 . S
Co602 O604 2.091 . S
Co602 O606 2.004 . S
Co602 O612 2.021 . S
Co602 O614 2.137 . S
Co602 O615 2.244 . S
O603 Co602 2.216 . S
O603 C610 1.247 . S
O604 Co602 2.091 . S
O604 C610 1.261 . S
C605 O614 1.247 . S
C605 O615 1.272 . S
O606 Co602 2.004 . S
O606 C611 1.259 . S
Co607 O608 2.061 . S
Co607 O613 2.052 . S
Co607 O615 2.135 . S
O608 Co607 2.061 . S
O608 C611 1.235 . S
C609 O612 1.238 . S
C609 O613 1.241 . S
C610 O603 1.247 . S
C610 O604 1.261 . S
C611 O606 1.259 . S
C611 O608 1.235 . S
O612 Co602 2.021 . S
O612 C609 1.238 . S
O613 Co607 2.052 . S
O613 C609 1.241 . S
O614 Co602 2.137 . S
O614 C605 1.247 . S
O615 Co602 2.244 . S
O615 C605 1.272 . S
O615 Co607 2.135 . S
Co616 O617 2.216 . S
Co616 O618 2.091 . S
Co616 O620 2.004 . S
Co616 O626 2.021 . S
Co616 O628 2.137 . S
Co616 O629 2.244 . S
O617 Co616 2.216 . S
O617 C624 1.247 . S
O618 Co616 2.091 . S
O618 C624 1.261 . S
C619 O628 1.247 . S
C619 O629 1.272 . S
O620 Co616 2.004 . S
O620 C625 1.259 . S
Co621 O622 2.061 . S
Co621 O627 2.052 . S
Co621 O629 2.135 . S
O622 Co621 2.061 . S
O622 C625 1.235 . S
C623 O626 1.238 . S
C623 O627 1.241 . S
C624 O617 1.247 . S
C624 O618 1.261 . S
C625 O620 1.259 . S
C625 O622 1.235 . S
O626 Co616 2.021 . S
O626 C623 1.238 . S
O627 Co621 2.052 . S
O627 C623 1.241 . S
O628 Co616 2.137 . S
O628 C619 1.247 . S
O629 Co616 2.244 . S
O629 C619 1.272 . S
O629 Co621 2.135 . S
Co630 O631 2.216 . S
Co630 O632 2.091 . S
Co630 O634 2.004 . S
Co630 O640 2.021 . S
Co630 O642 2.137 . S
Co630 O643 2.244 . S
O631 Co630 2.216 . S
O631 C638 1.247 . S
O632 Co630 2.091 . S
O632 C638 1.261 . S
C633 O642 1.247 . S
C633 O643 1.272 . S
O634 Co630 2.004 . S
O634 C639 1.259 . S
Co635 O636 2.061 . S
Co635 O641 2.052 . S
Co635 O643 2.135 . S
O636 Co635 2.061 . S
O636 C639 1.235 . S
C637 O640 1.238 . S
C637 O641 1.241 . S
C638 O631 1.247 . S
C638 O632 1.261 . S
C639 O634 1.259 . S
C639 O636 1.235 . S
O640 Co630 2.021 . S
O640 C637 1.238 . S
O641 Co635 2.052 . S
O641 C637 1.241 . S
O642 Co630 2.137 . S
O642 C633 1.247 . S
O643 Co630 2.244 . S
O643 C633 1.272 . S
O643 Co635 2.135 . S
Co644 O645 2.216 . S
Co644 O646 2.091 . S
Co644 O648 2.004 . S
Co644 O654 2.021 . S
Co644 O656 2.137 . S
Co644 O657 2.244 . S
O645 Co644 2.216 . S
O645 C652 1.247 . S
O646 Co644 2.091 . S
O646 C652 1.261 . S
C647 O656 1.247 . S
C647 O657 1.272 . S
O648 Co644 2.004 . S
O648 C653 1.259 . S
Co649 O650 2.061 . S
Co649 O655 2.052 . S
Co649 O657 2.135 . S
O650 Co649 2.061 . S
O650 C653 1.235 . S
C651 O654 1.238 . S
C651 O655 1.241 . S
C652 O645 1.247 . S
C652 O646 1.261 . S
C653 O648 1.259 . S
C653 O650 1.235 . S
O654 Co644 2.021 . S
O654 C651 1.238 . S
O655 Co649 2.052 . S
O655 C651 1.241 . S
O656 Co644 2.137 . S
O656 C647 1.247 . S
O657 Co644 2.244 . S
O657 C647 1.272 . S
O657 Co649 2.135 . S
Co658 O659 2.216 . S
Co658 O660 2.091 . S
Co658 O662 2.004 . S
Co658 O668 2.021 . S
Co658 O670 2.137 . S
Co658 O671 2.244 . S
O659 Co658 2.216 . S
O659 C666 1.247 . S
O660 Co658 2.091 . S
O660 C666 1.261 . S
C661 O670 1.247 . S
C661 O671 1.272 . S
O662 Co658 2.004 . S
O662 C667 1.259 . S
Co663 O664 2.061 . S
Co663 O669 2.052 . S
Co663 O671 2.135 . S
O664 Co663 2.061 . S
O664 C667 1.235 . S
C665 O668 1.238 . S
C665 O669 1.241 . S
C666 O659 1.247 . S
C666 O660 1.261 . S
C667 O662 1.259 . S
C667 O664 1.235 . S
O668 Co658 2.021 . S
O668 C665 1.238 . S
O669 Co663 2.052 . S
O669 C665 1.241 . S
O670 Co658 2.137 . S
O670 C661 1.247 . S
O671 Co658 2.244 . S
O671 C661 1.272 . S
O671 Co663 2.135 . S
Co672 O673 2.216 . S
Co672 O674 2.091 . S
Co672 O676 2.004 . S
Co672 O682 2.021 . S
Co672 O684 2.137 . S
Co672 O685 2.244 . S
O673 Co672 2.216 . S
O673 C680 1.247 . S
O674 Co672 2.091 . S
O674 C680 1.261 . S
C675 O684 1.247 . S
C675 O685 1.272 . S
O676 Co672 2.004 . S
O676 C681 1.259 . S
Co677 O678 2.061 . S
Co677 O683 2.052 . S
Co677 O685 2.135 . S
O678 Co677 2.061 . S
O678 C681 1.235 . S
C679 O682 1.238 . S
C679 O683 1.241 . S
C680 O673 1.247 . S
C680 O674 1.261 . S
C681 O676 1.259 . S
C681 O678 1.235 . S
O682 Co672 2.021 . S
O682 C679 1.238 . S
O683 Co677 2.052 . S
O683 C679 1.241 . S
O684 Co672 2.137 . S
O684 C675 1.247 . S
O685 Co672 2.244 . S
O685 C675 1.272 . S
O685 Co677 2.135 . S
Co686 O687 2.216 . S
Co686 O688 2.091 . S
Co686 O690 2.004 . S
Co686 O696 2.021 . S
Co686 O698 2.137 . S
Co686 O699 2.244 . S
O687 Co686 2.216 . S
O687 C694 1.247 . S
O688 Co686 2.091 . S
O688 C694 1.261 . S
C689 O698 1.247 . S
C689 O699 1.272 . S
O690 Co686 2.004 . S
O690 C695 1.259 . S
Co691 O692 2.061 . S
Co691 O697 2.052 . S
Co691 O699 2.135 . S
O692 Co691 2.061 . S
O692 C695 1.235 . S
C693 O696 1.238 . S
C693 O697 1.241 . S
C694 O687 1.247 . S
C694 O688 1.261 . S
C695 O690 1.259 . S
C695 O692 1.235 . S
O696 Co686 2.021 . S
O696 C693 1.238 . S
O697 Co691 2.052 . S
O697 C693 1.241 . S
O698 Co686 2.137 . S
O698 C689 1.247 . S
O699 Co686 2.244 . S
O699 C689 1.272 . S
O699 Co691 2.135 . S
Co700 O701 2.216 . S
Co700 O702 2.091 . S
Co700 O704 2.004 . S
Co700 O710 2.021 . S
Co700 O712 2.137 . S
Co700 O713 2.244 . S
O701 Co700 2.216 . S
O701 C708 1.247 . S
O702 Co700 2.091 . S
O702 C708 1.261 . S
C703 O712 1.247 . S
C703 O713 1.272 . S
O704 Co700 2.004 . S
O704 C709 1.259 . S
Co705 O706 2.061 . S
Co705 O711 2.052 . S
Co705 O713 2.135 . S
O706 Co705 2.061 . S
O706 C709 1.235 . S
C707 O710 1.238 . S
C707 O711 1.241 . S
C708 O701 1.247 . S
C708 O702 1.261 . S
C709 O704 1.259 . S
C709 O706 1.235 . S
O710 Co700 2.021 . S
O710 C707 1.238 . S
O711 Co705 2.052 . S
O711 C707 1.241 . S
O712 Co700 2.137 . S
O712 C703 1.247 . S
O713 Co700 2.244 . S
O713 C703 1.272 . S
O713 Co705 2.135 . S
Co714 O715 2.216 . S
Co714 O716 2.091 . S
Co714 O718 2.004 . S
Co714 O724 2.021 . S
Co714 O726 2.137 . S
Co714 O727 2.244 . S
O715 Co714 2.216 . S
O715 C722 1.247 . S
O716 Co714 2.091 . S
O716 C722 1.261 . S
C717 O726 1.247 . S
C717 O727 1.272 . S
O718 Co714 2.004 . S
O718 C723 1.259 . S
Co719 O720 2.061 . S
Co719 O725 2.052 . S
Co719 O727 2.135 . S
O720 Co719 2.061 . S
O720 C723 1.235 . S
C721 O724 1.238 . S
C721 O725 1.241 . S
C722 O715 1.247 . S
C722 O716 1.261 . S
C723 O718 1.259 . S
C723 O720 1.235 . S
O724 Co714 2.021 . S
O724 C721 1.238 . S
O725 Co719 2.052 . S
O725 C721 1.241 . S
O726 Co714 2.137 . S
O726 C717 1.247 . S
O727 Co714 2.244 . S
O727 C717 1.272 . S
O727 Co719 2.135 . S
Co728 O729 2.216 . S
Co728 O730 2.091 . S
Co728 O732 2.004 . S
Co728 O738 2.021 . S
Co728 O740 2.137 . S
Co728 O741 2.244 . S
O729 Co728 2.216 . S
O729 C736 1.247 . S
O730 Co728 2.091 . S
O730 C736 1.261 . S
C731 O740 1.247 . S
C731 O741 1.272 . S
O732 Co728 2.004 . S
O732 C737 1.259 . S
Co733 O734 2.061 . S
Co733 O739 2.052 . S
Co733 O741 2.135 . S
O734 Co733 2.061 . S
O734 C737 1.235 . S
C735 O738 1.238 . S
C735 O739 1.241 . S
C736 O729 1.247 . S
C736 O730 1.261 . S
C737 O732 1.259 . S
C737 O734 1.235 . S
O738 Co728 2.021 . S
O738 C735 1.238 . S
O739 Co733 2.052 . S
O739 C735 1.241 . S
O740 Co728 2.137 . S
O740 C731 1.247 . S
O741 Co728 2.244 . S
O741 C731 1.272 . S
O741 Co733 2.135 . S
Co742 O743 2.216 . S
Co742 O744 2.091 . S
Co742 O746 2.004 . S
Co742 O752 2.021 . S
Co742 O754 2.137 . S
Co742 O755 2.244 . S
O743 Co742 2.216 . S
O743 C750 1.247 . S
O744 Co742 2.091 . S
O744 C750 1.261 . S
C745 O754 1.247 . S
C745 O755 1.272 . S
O746 Co742 2.004 . S
O746 C751 1.259 . S
Co747 O748 2.061 . S
Co747 O753 2.052 . S
Co747 O755 2.135 . S
O748 Co747 2.061 . S
O748 C751 1.235 . S
C749 O752 1.238 . S
C749 O753 1.241 . S
C750 O743 1.247 . S
C750 O744 1.261 . S
C751 O746 1.259 . S
C751 O748 1.235 . S
O752 Co742 2.021 . S
O752 C749 1.238 . S
O753 Co747 2.052 . S
O753 C749 1.241 . S
O754 Co742 2.137 . S
O754 C745 1.247 . S
O755 Co742 2.244 . S
O755 C745 1.272 . S
O755 Co747 2.135 . S
Co756 O757 2.216 . S
Co756 O758 2.091 . S
Co756 O760 2.004 . S
Co756 O766 2.021 . S
Co756 O768 2.137 . S
Co756 O769 2.244 . S
O757 Co756 2.216 . S
O757 C764 1.247 . S
O758 Co756 2.091 . S
O758 C764 1.261 . S
C759 O768 1.247 . S
C759 O769 1.272 . S
O760 Co756 2.004 . S
O760 C765 1.259 . S
Co761 O762 2.061 . S
Co761 O767 2.052 . S
Co761 O769 2.135 . S
O762 Co761 2.061 . S
O762 C765 1.235 . S
C763 O766 1.238 . S
C763 O767 1.241 . S
C764 O757 1.247 . S
C764 O758 1.261 . S
C765 O760 1.259 . S
C765 O762 1.235 . S
O766 Co756 2.021 . S
O766 C763 1.238 . S
O767 Co761 2.052 . S
O767 C763 1.241 . S
O768 Co756 2.137 . S
O768 C759 1.247 . S
O769 Co756 2.244 . S
O769 C759 1.272 . S
O769 Co761 2.135 . S
Co770 O771 2.216 . S
Co770 O772 2.091 . S
Co770 O774 2.004 . S
Co770 O780 2.021 . S
Co770 O782 2.137 . S
Co770 O783 2.244 . S
O771 Co770 2.216 . S
O771 C778 1.247 . S
O772 Co770 2.091 . S
O772 C778 1.261 . S
C773 O782 1.247 . S
C773 O783 1.272 . S
O774 Co770 2.004 . S
O774 C779 1.259 . S
Co775 O776 2.061 . S
Co775 O781 2.052 . S
Co775 O783 2.135 . S
O776 Co775 2.061 . S
O776 C779 1.235 . S
C777 O780 1.238 . S
C777 O781 1.241 . S
C778 O771 1.247 . S
C778 O772 1.261 . S
C779 O774 1.259 . S
C779 O776 1.235 . S
O780 Co770 2.021 . S
O780 C777 1.238 . S
O781 Co775 2.052 . S
O781 C777 1.241 . S
O782 Co770 2.137 . S
O782 C773 1.247 . S
O783 Co770 2.244 . S
O783 C773 1.272 . S
O783 Co775 2.135 . S
Co784 O785 2.216 . S
Co784 O786 2.091 . S
Co784 O788 2.004 . S
Co784 O794 2.021 . S
Co784 O796 2.137 . S
Co784 O797 2.244 . S
O785 Co784 2.216 . S
O785 C792 1.247 . S
O786 Co784 2.091 . S
O786 C792 1.261 . S
C787 O796 1.247 . S
C787 O797 1.272 . S
O788 Co784 2.004 . S
O788 C793 1.259 . S
Co789 O790 2.061 . S
Co789 O795 2.052 . S
Co789 O797 2.135 . S
O790 Co789 2.061 . S
O790 C793 1.235 . S
C791 O794 1.238 . S
C791 O795 1.241 . S
C792 O785 1.247 . S
C792 O786 1.261 . S
C793 O788 1.259 . S
C793 O790 1.235 . S
O794 Co784 2.021 . S
O794 C791 1.238 . S
O795 Co789 2.052 . S
O795 C791 1.241 . S
O796 Co784 2.137 . S
O796 C787 1.247 . S
O797 Co784 2.244 . S
O797 C787 1.272 . S
O797 Co789 2.135 . S
Co798 O799 2.216 . S
Co798 O800 2.091 . S
Co798 O802 2.004 . S
Co798 O808 2.021 . S
Co798 O810 2.137 . S
Co798 O811 2.244 . S
O799 Co798 2.216 . S
O799 C806 1.247 . S
O800 Co798 2.091 . S
O800 C806 1.261 . S
C801 O810 1.247 . S
C801 O811 1.272 . S
O802 Co798 2.004 . S
O802 C807 1.259 . S
Co803 O804 2.061 . S
Co803 O809 2.052 . S
Co803 O811 2.135 . S
O804 Co803 2.061 . S
O804 C807 1.235 . S
C805 O808 1.238 . S
C805 O809 1.241 . S
C806 O799 1.247 . S
C806 O800 1.261 . S
C807 O802 1.259 . S
C807 O804 1.235 . S
O808 Co798 2.021 . S
O808 C805 1.238 . S
O809 Co803 2.052 . S
O809 C805 1.241 . S
O810 Co798 2.137 . S
O810 C801 1.247 . S
O811 Co798 2.244 . S
O811 C801 1.272 . S
O811 Co803 2.135 . S
Co812 O813 2.216 . S
Co812 O814 2.091 . S
Co812 O816 2.004 . S
Co812 O822 2.021 . S
Co812 O824 2.137 . S
Co812 O825 2.244 . S
O813 Co812 2.216 . S
O813 C820 1.247 . S
O814 Co812 2.091 . S
O814 C820 1.261 . S
C815 O824 1.247 . S
C815 O825 1.272 . S
O816 Co812 2.004 . S
O816 C821 1.259 . S
Co817 O818 2.061 . S
Co817 O823 2.052 . S
Co817 O825 2.135 . S
O818 Co817 2.061 . S
O818 C821 1.235 . S
C819 O822 1.238 . S
C819 O823 1.241 . S
C820 O813 1.247 . S
C820 O814 1.261 . S
C821 O816 1.259 . S
C821 O818 1.235 . S
O822 Co812 2.021 . S
O822 C819 1.238 . S
O823 Co817 2.052 . S
O823 C819 1.241 . S
O824 Co812 2.137 . S
O824 C815 1.247 . S
O825 Co812 2.244 . S
O825 C815 1.272 . S
O825 Co817 2.135 . S
Co826 O827 2.216 . S
Co826 O828 2.091 . S
Co826 O830 2.004 . S
Co826 O836 2.021 . S
Co826 O838 2.137 . S
Co826 O839 2.244 . S
O827 Co826 2.216 . S
O827 C834 1.247 . S
O828 Co826 2.091 . S
O828 C834 1.261 . S
C829 O838 1.247 . S
C829 O839 1.272 . S
O830 Co826 2.004 . S
O830 C835 1.259 . S
Co831 O832 2.061 . S
Co831 O837 2.052 . S
Co831 O839 2.135 . S
O832 Co831 2.061 . S
O832 C835 1.235 . S
C833 O836 1.238 . S
C833 O837 1.241 . S
C834 O827 1.247 . S
C834 O828 1.261 . S
C835 O830 1.259 . S
C835 O832 1.235 . S
O836 Co826 2.021 . S
O836 C833 1.238 . S
O837 Co831 2.052 . S
O837 C833 1.241 . S
O838 Co826 2.137 . S
O838 C829 1.247 . S
O839 Co826 2.244 . S
O839 C829 1.272 . S
O839 Co831 2.135 . S
Co840 O841 2.216 . S
Co840 O842 2.091 . S
Co840 O844 2.004 . S
Co840 O850 2.021 . S
Co840 O852 2.137 . S
Co840 O853 2.244 . S
O841 Co840 2.216 . S
O841 C848 1.247 . S
O842 Co840 2.091 . S
O842 C848 1.261 . S
C843 O852 1.247 . S
C843 O853 1.272 . S
O844 Co840 2.004 . S
O844 C849 1.259 . S
Co845 O846 2.061 . S
Co845 O851 2.052 . S
Co845 O853 2.135 . S
O846 Co845 2.061 . S
O846 C849 1.235 . S
C847 O850 1.238 . S
C847 O851 1.241 . S
C848 O841 1.247 . S
C848 O842 1.261 . S
C849 O844 1.259 . S
C849 O846 1.235 . S
O850 Co840 2.021 . S
O850 C847 1.238 . S
O851 Co845 2.052 . S
O851 C847 1.241 . S
O852 Co840 2.137 . S
O852 C843 1.247 . S
O853 Co840 2.244 . S
O853 C843 1.272 . S
O853 Co845 2.135 . S
Co854 O855 2.216 . S
Co854 O856 2.091 . S
Co854 O858 2.004 . S
Co854 O864 2.021 . S
Co854 O866 2.137 . S
Co854 O867 2.244 . S
O855 Co854 2.216 . S
O855 C862 1.247 . S
O856 Co854 2.091 . S
O856 C862 1.261 . S
C857 O866 1.247 . S
C857 O867 1.272 . S
O858 Co854 2.004 . S
O858 C863 1.259 . S
Co859 O860 2.061 . S
Co859 O865 2.052 . S
Co859 O867 2.135 . S
O860 Co859 2.061 . S
O860 C863 1.235 . S
C861 O864 1.238 . S
C861 O865 1.241 . S
C862 O855 1.247 . S
C862 O856 1.261 . S
C863 O858 1.259 . S
C863 O860 1.235 . S
O864 Co854 2.021 . S
O864 C861 1.238 . S
O865 Co859 2.052 . S
O865 C861 1.241 . S
O866 Co854 2.137 . S
O866 C857 1.247 . S
O867 Co854 2.244 . S
O867 C857 1.272 . S
O867 Co859 2.135 . S
Co868 O869 2.216 . S
Co868 O870 2.091 . S
Co868 O872 2.004 . S
Co868 O878 2.021 . S
Co868 O880 2.137 . S
Co868 O881 2.244 . S
O869 Co868 2.216 . S
O869 C876 1.247 . S
O870 Co868 2.091 . S
O870 C876 1.261 . S
C871 O880 1.247 . S
C871 O881 1.272 . S
O872 Co868 2.004 . S
O872 C877 1.259 . S
Co873 O874 2.061 . S
Co873 O879 2.052 . S
Co873 O881 2.135 . S
O874 Co873 2.061 . S
O874 C877 1.235 . S
C875 O878 1.238 . S
C875 O879 1.241 . S
C876 O869 1.247 . S
C876 O870 1.261 . S
C877 O872 1.259 . S
C877 O874 1.235 . S
O878 Co868 2.021 . S
O878 C875 1.238 . S
O879 Co873 2.052 . S
O879 C875 1.241 . S
O880 Co868 2.137 . S
O880 C871 1.247 . S
O881 Co868 2.244 . S
O881 C871 1.272 . S
O881 Co873 2.135 . S
Co882 O883 2.216 . S
Co882 O884 2.091 . S
Co882 O886 2.004 . S
Co882 O892 2.021 . S
Co882 O894 2.137 . S
Co882 O895 2.244 . S
O883 Co882 2.216 . S
O883 C890 1.247 . S
O884 Co882 2.091 . S
O884 C890 1.261 . S
C885 O894 1.247 . S
C885 O895 1.272 . S
O886 Co882 2.004 . S
O886 C891 1.259 . S
Co887 O888 2.061 . S
Co887 O893 2.052 . S
Co887 O895 2.135 . S
O888 Co887 2.061 . S
O888 C891 1.235 . S
C889 O892 1.238 . S
C889 O893 1.241 . S
C890 O883 1.247 . S
C890 O884 1.261 . S
C891 O886 1.259 . S
C891 O888 1.235 . S
O892 Co882 2.021 . S
O892 C889 1.238 . S
O893 Co887 2.052 . S
O893 C889 1.241 . S
O894 Co882 2.137 . S
O894 C885 1.247 . S
O895 Co882 2.244 . S
O895 C885 1.272 . S
O895 Co887 2.135 . S
Co896 O897 2.216 . S
Co896 O898 2.091 . S
Co896 O900 2.004 . S
Co896 O906 2.021 . S
Co896 O908 2.137 . S
Co896 O909 2.244 . S
O897 Co896 2.216 . S
O897 C904 1.247 . S
O898 Co896 2.091 . S
O898 C904 1.261 . S
C899 O908 1.247 . S
C899 O909 1.272 . S
O900 Co896 2.004 . S
O900 C905 1.259 . S
Co901 O902 2.061 . S
Co901 O907 2.052 . S
Co901 O909 2.135 . S
O902 Co901 2.061 . S
O902 C905 1.235 . S
C903 O906 1.238 . S
C903 O907 1.241 . S
C904 O897 1.247 . S
C904 O898 1.261 . S
C905 O900 1.259 . S
C905 O902 1.235 . S
O906 Co896 2.021 . S
O906 C903 1.238 . S
O907 Co901 2.052 . S
O907 C903 1.241 . S
O908 Co896 2.137 . S
O908 C899 1.247 . S
O909 Co896 2.244 . S
O909 C899 1.272 . S
O909 Co901 2.135 . S
Co910 O911 2.216 . S
Co910 O912 2.091 . S
Co910 O914 2.004 . S
Co910 O920 2.021 . S
Co910 O922 2.137 . S
Co910 O923 2.244 . S
O911 Co910 2.216 . S
O911 C918 1.247 . S
O912 Co910 2.091 . S
O912 C918 1.261 . S
C913 O922 1.247 . S
C913 O923 1.272 . S
O914 Co910 2.004 . S
O914 C919 1.259 . S
Co915 O916 2.061 . S
Co915 O921 2.052 . S
Co915 O923 2.135 . S
O916 Co915 2.061 . S
O916 C919 1.235 . S
C917 O920 1.238 . S
C917 O921 1.241 . S
C918 O911 1.247 . S
C918 O912 1.261 . S
C919 O914 1.259 . S
C919 O916 1.235 . S
O920 Co910 2.021 . S
O920 C917 1.238 . S
O921 Co915 2.052 . S
O921 C917 1.241 . S
O922 Co910 2.137 . S
O922 C913 1.247 . S
O923 Co910 2.244 . S
O923 C913 1.272 . S
O923 Co915 2.135 . S
Co924 O925 2.216 . S
Co924 O926 2.091 . S
Co924 O928 2.004 . S
Co924 O934 2.021 . S
Co924 O936 2.137 . S
Co924 O937 2.244 . S
O925 Co924 2.216 . S
O925 C932 1.247 . S
O926 Co924 2.091 . S
O926 C932 1.261 . S
C927 O936 1.247 . S
C927 O937 1.272 . S
O928 Co924 2.004 . S
O928 C933 1.259 . S
Co929 O930 2.061 . S
Co929 O935 2.052 . S
Co929 O937 2.135 . S
O930 Co929 2.061 . S
O930 C933 1.235 . S
C931 O934 1.238 . S
C931 O935 1.241 . S
C932 O925 1.247 . S
C932 O926 1.261 . S
C933 O928 1.259 . S
C933 O930 1.235 . S
O934 Co924 2.021 . S
O934 C931 1.238 . S
O935 Co929 2.052 . S
O935 C931 1.241 . S
O936 Co924 2.137 . S
O936 C927 1.247 . S
O937 Co924 2.244 . S
O937 C927 1.272 . S
O937 Co929 2.135 . S
Co938 O939 2.216 . S
Co938 O940 2.091 . S
Co938 O942 2.004 . S
Co938 O948 2.021 . S
Co938 O950 2.137 . S
Co938 O951 2.244 . S
O939 Co938 2.216 . S
O939 C946 1.247 . S
O940 Co938 2.091 . S
O940 C946 1.261 . S
C941 O950 1.247 . S
C941 O951 1.272 . S
O942 Co938 2.004 . S
O942 C947 1.259 . S
Co943 O944 2.061 . S
Co943 O949 2.052 . S
Co943 O951 2.135 . S
O944 Co943 2.061 . S
O944 C947 1.235 . S
C945 O948 1.238 . S
C945 O949 1.241 . S
C946 O939 1.247 . S
C946 O940 1.261 . S
C947 O942 1.259 . S
C947 O944 1.235 . S
O948 Co938 2.021 . S
O948 C945 1.238 . S
O949 Co943 2.052 . S
O949 C945 1.241 . S
O950 Co938 2.137 . S
O950 C941 1.247 . S
O951 Co938 2.244 . S
O951 C941 1.272 . S
O951 Co943 2.135 . S
Co952 O953 2.216 . S
Co952 O954 2.091 . S
Co952 O956 2.004 . S
Co952 O962 2.021 . S
Co952 O964 2.137 . S
Co952 O965 2.244 . S
O953 Co952 2.216 . S
O953 C960 1.247 . S
O954 Co952 2.091 . S
O954 C960 1.261 . S
C955 O964 1.247 . S
C955 O965 1.272 . S
O956 Co952 2.004 . S
O956 C961 1.259 . S
Co957 O958 2.061 . S
Co957 O963 2.052 . S
Co957 O965 2.135 . S
O958 Co957 2.061 . S
O958 C961 1.235 . S
C959 O962 1.238 . S
C959 O963 1.241 . S
C960 O953 1.247 . S
C960 O954 1.261 . S
C961 O956 1.259 . S
C961 O958 1.235 . S
O962 Co952 2.021 . S
O962 C959 1.238 . S
O963 Co957 2.052 . S
O963 C959 1.241 . S
O964 Co952 2.137 . S
O964 C955 1.247 . S
O965 Co952 2.244 . S
O965 C955 1.272 . S
O965 Co957 2.135 . S
Co966 O967 2.216 . S
Co966 O968 2.091 . S
Co966 O970 2.004 . S
Co966 O976 2.021 . S
Co966 O978 2.137 . S
Co966 O979 2.244 . S
O967 Co966 2.216 . S
O967 C974 1.247 . S
O968 Co966 2.091 . S
O968 C974 1.261 . S
C969 O978 1.247 . S
C969 O979 1.272 . S
O970 Co966 2.004 . S
O970 C975 1.259 . S
Co971 O972 2.061 . S
Co971 O977 2.052 . S
Co971 O979 2.135 . S
O972 Co971 2.061 . S
O972 C975 1.235 . S
C973 O976 1.238 . S
C973 O977 1.241 . S
C974 O967 1.247 . S
C974 O968 1.261 . S
C975 O970 1.259 . S
C975 O972 1.235 . S
O976 Co966 2.021 . S
O976 C973 1.238 . S
O977 Co971 2.052 . S
O977 C973 1.241 . S
O978 Co966 2.137 . S
O978 C969 1.247 . S
O979 Co966 2.244 . S
O979 C969 1.272 . S
O979 Co971 2.135 . S
Co980 O981 2.216 . S
Co980 O982 2.091 . S
Co980 O984 2.004 . S
Co980 O990 2.021 . S
Co980 O992 2.137 . S
Co980 O993 2.244 . S
O981 Co980 2.216 . S
O981 C988 1.247 . S
O982 Co980 2.091 . S
O982 C988 1.261 . S
C983 O992 1.247 . S
C983 O993 1.272 . S
O984 Co980 2.004 . S
O984 C989 1.259 . S
Co985 O986 2.061 . S
Co985 O991 2.052 . S
Co985 O993 2.135 . S
O986 Co985 2.061 . S
O986 C989 1.235 . S
C987 O990 1.238 . S
C987 O991 1.241 . S
C988 O981 1.247 . S
C988 O982 1.261 . S
C989 O984 1.259 . S
C989 O986 1.235 . S
O990 Co980 2.021 . S
O990 C987 1.238 . S
O991 Co985 2.052 . S
O991 C987 1.241 . S
O992 Co980 2.137 . S
O992 C983 1.247 . S
O993 Co980 2.244 . S
O993 C983 1.272 . S
O993 Co985 2.135 . S
Co994 O995 2.216 . S
Co994 O996 2.091 . S
Co994 O998 2.004 . S
Co994 O1004 2.021 . S
Co994 O1006 2.137 . S
Co994 O1007 2.244 . S
O995 Co994 2.216 . S
O995 C1002 1.247 . S
O996 Co994 2.091 . S
O996 C1002 1.261 . S
C997 O1006 1.247 . S
C997 O1007 1.272 . S
O998 Co994 2.004 . S
O998 C1003 1.259 . S
Co999 O1000 2.061 . S
Co999 O1005 2.052 . S
Co999 O1007 2.135 . S
O1000 Co999 2.061 . S
O1000 C1003 1.235 . S
C1001 O1004 1.238 . S
C1001 O1005 1.241 . S
C1002 O995 1.247 . S
C1002 O996 1.261 . S
C1003 O998 1.259 . S
C1003 O1000 1.235 . S
O1004 Co994 2.021 . S
O1004 C1001 1.238 . S
O1005 Co999 2.052 . S
O1005 C1001 1.241 . S
O1006 Co994 2.137 . S
O1006 C997 1.247 . S
O1007 Co994 2.244 . S
O1007 C997 1.272 . S
O1007 Co999 2.135 . S
Co1008 O1009 2.216 . S
Co1008 O1010 2.091 . S
Co1008 O1012 2.004 . S
Co1008 O1018 2.021 . S
Co1008 O1020 2.137 . S
Co1008 O1021 2.244 . S
O1009 Co1008 2.216 . S
O1009 C1016 1.247 . S
O1010 Co1008 2.091 . S
O1010 C1016 1.261 . S
C1011 O1020 1.247 . S
C1011 O1021 1.272 . S
O1012 Co1008 2.004 . S
O1012 C1017 1.259 . S
Co1013 O1014 2.061 . S
Co1013 O1019 2.052 . S
Co1013 O1021 2.135 . S
O1014 Co1013 2.061 . S
O1014 C1017 1.235 . S
C1015 O1018 1.238 . S
C1015 O1019 1.241 . S
C1016 O1009 1.247 . S
C1016 O1010 1.261 . S
C1017 O1012 1.259 . S
C1017 O1014 1.235 . S
O1018 Co1008 2.021 . S
O1018 C1015 1.238 . S
O1019 Co1013 2.052 . S
O1019 C1015 1.241 . S
O1020 Co1008 2.137 . S
O1020 C1011 1.247 . S
O1021 Co1008 2.244 . S
O1021 C1011 1.272 . S
O1021 Co1013 2.135 . S
Co1022 O1023 2.216 . S
Co1022 O1024 2.091 . S
Co1022 O1026 2.004 . S
Co1022 O1032 2.021 . S
Co1022 O1034 2.137 . S
Co1022 O1035 2.244 . S
O1023 Co1022 2.216 . S
O1023 C1030 1.247 . S
O1024 Co1022 2.091 . S
O1024 C1030 1.261 . S
C1025 O1034 1.247 . S
C1025 O1035 1.272 . S
O1026 Co1022 2.004 . S
O1026 C1031 1.259 . S
Co1027 O1028 2.061 . S
Co1027 O1033 2.052 . S
Co1027 O1035 2.135 . S
O1028 Co1027 2.061 . S
O1028 C1031 1.235 . S
C1029 O1032 1.238 . S
C1029 O1033 1.241 . S
C1030 O1023 1.247 . S
C1030 O1024 1.261 . S
C1031 O1026 1.259 . S
C1031 O1028 1.235 . S
O1032 Co1022 2.021 . S
O1032 C1029 1.238 . S
O1033 Co1027 2.052 . S
O1033 C1029 1.241 . S
O1034 Co1022 2.137 . S
O1034 C1025 1.247 . S
O1035 Co1022 2.244 . S
O1035 C1025 1.272 . S
O1035 Co1027 2.135 . S
Co1036 O1037 2.216 . S
Co1036 O1038 2.091 . S
Co1036 O1040 2.004 . S
Co1036 O1046 2.021 . S
Co1036 O1048 2.137 . S
Co1036 O1049 2.244 . S
O1037 Co1036 2.216 . S
O1037 C1044 1.247 . S
O1038 Co1036 2.091 . S
O1038 C1044 1.261 . S
C1039 O1048 1.247 . S
C1039 O1049 1.272 . S
O1040 Co1036 2.004 . S
O1040 C1045 1.259 . S
Co1041 O1042 2.061 . S
Co1041 O1047 2.052 . S
Co1041 O1049 2.135 . S
O1042 Co1041 2.061 . S
O1042 C1045 1.235 . S
C1043 O1046 1.238 . S
C1043 O1047 1.241 . S
C1044 O1037 1.247 . S
C1044 O1038 1.261 . S
C1045 O1040 1.259 . S
C1045 O1042 1.235 . S
O1046 Co1036 2.021 . S
O1046 C1043 1.238 . S
O1047 Co1041 2.052 . S
O1047 C1043 1.241 . S
O1048 Co1036 2.137 . S
O1048 C1039 1.247 . S
O1049 Co1036 2.244 . S
O1049 C1039 1.272 . S
O1049 Co1041 2.135 . S
Co1050 O1051 2.216 . S
Co1050 O1052 2.091 . S
Co1050 O1054 2.004 . S
Co1050 O1060 2.021 . S
Co1050 O1062 2.137 . S
Co1050 O1063 2.244 . S
O1051 Co1050 2.216 . S
O1051 C1058 1.247 . S
O1052 Co1050 2.091 . S
O1052 C1058 1.261 . S
C1053 O1062 1.247 . S
C1053 O1063 1.272 . S
O1054 Co1050 2.004 . S
O1054 C1059 1.259 . S
Co1055 O1056 2.061 . S
Co1055 O1061 2.052 . S
Co1055 O1063 2.135 . S
O1056 Co1055 2.061 . S
O1056 C1059 1.235 . S
C1057 O1060 1.238 . S
C1057 O1061 1.241 . S
C1058 O1051 1.247 . S
C1058 O1052 1.261 . S
C1059 O1054 1.259 . S
C1059 O1056 1.235 . S
O1060 Co1050 2.021 . S
O1060 C1057 1.238 . S
O1061 Co1055 2.052 . S
O1061 C1057 1.241 . S
O1062 Co1050 2.137 . S
O1062 C1053 1.247 . S
O1063 Co1050 2.244 . S
O1063 C1053 1.272 . S
O1063 Co1055 2.135 . S
Co1064 O1065 2.216 . S
Co1064 O1066 2.091 . S
Co1064 O1068 2.004 . S
Co1064 O1074 2.021 . S
Co1064 O1076 2.137 . S
Co1064 O1077 2.244 . S
O1065 Co1064 2.216 . S
O1065 C1072 1.247 . S
O1066 Co1064 2.091 . S
O1066 C1072 1.261 . S
C1067 O1076 1.247 . S
C1067 O1077 1.272 . S
O1068 Co1064 2.004 . S
O1068 C1073 1.259 . S
Co1069 O1070 2.061 . S
Co1069 O1075 2.052 . S
Co1069 O1077 2.135 . S
O1070 Co1069 2.061 . S
O1070 C1073 1.235 . S
C1071 O1074 1.238 . S
C1071 O1075 1.241 . S
C1072 O1065 1.247 . S
C1072 O1066 1.261 . S
C1073 O1068 1.259 . S
C1073 O1070 1.235 . S
O1074 Co1064 2.021 . S
O1074 C1071 1.238 . S
O1075 Co1069 2.052 . S
O1075 C1071 1.241 . S
O1076 Co1064 2.137 . S
O1076 C1067 1.247 . S
O1077 Co1064 2.244 . S
O1077 C1067 1.272 . S
O1077 Co1069 2.135 . S
Co1078 O1079 2.216 . S
Co1078 O1080 2.091 . S
Co1078 O1082 2.004 . S
Co1078 O1088 2.021 . S
Co1078 O1090 2.137 . S
Co1078 O1091 2.244 . S
O1079 Co1078 2.216 . S
O1079 C1086 1.247 . S
O1080 Co1078 2.091 . S
O1080 C1086 1.261 . S
C1081 O1090 1.247 . S
C1081 O1091 1.272 . S
O1082 Co1078 2.004 . S
O1082 C1087 1.259 . S
Co1083 O1084 2.061 . S
Co1083 O1089 2.052 . S
Co1083 O1091 2.135 . S
O1084 Co1083 2.061 . S
O1084 C1087 1.235 . S
C1085 O1088 1.238 . S
C1085 O1089 1.241 . S
C1086 O1079 1.247 . S
C1086 O1080 1.261 . S
C1087 O1082 1.259 . S
C1087 O1084 1.235 . S
O1088 Co1078 2.021 . S
O1088 C1085 1.238 . S
O1089 Co1083 2.052 . S
O1089 C1085 1.241 . S
O1090 Co1078 2.137 . S
O1090 C1081 1.247 . S
O1091 Co1078 2.244 . S
O1091 C1081 1.272 . S
O1091 Co1083 2.135 . S
Co1092 O1093 2.216 . S
Co1092 O1094 2.091 . S
Co1092 O1096 2.004 . S
Co1092 O1102 2.021 . S
Co1092 O1104 2.137 . S
Co1092 O1105 2.244 . S
O1093 Co1092 2.216 . S
O1093 C1100 1.247 . S
O1094 Co1092 2.091 . S
O1094 C1100 1.261 . S
C1095 O1104 1.247 . S
C1095 O1105 1.272 . S
O1096 Co1092 2.004 . S
O1096 C1101 1.259 . S
Co1097 O1098 2.061 . S
Co1097 O1103 2.052 . S
Co1097 O1105 2.135 . S
O1098 Co1097 2.061 . S
O1098 C1101 1.235 . S
C1099 O1102 1.238 . S
C1099 O1103 1.241 . S
C1100 O1093 1.247 . S
C1100 O1094 1.261 . S
C1101 O1096 1.259 . S
C1101 O1098 1.235 . S
O1102 Co1092 2.021 . S
O1102 C1099 1.238 . S
O1103 Co1097 2.052 . S
O1103 C1099 1.241 . S
O1104 Co1092 2.137 . S
O1104 C1095 1.247 . S
O1105 Co1092 2.244 . S
O1105 C1095 1.272 . S
O1105 Co1097 2.135 . S
Co1106 O1107 2.216 . S
Co1106 O1108 2.091 . S
Co1106 O1110 2.004 . S
Co1106 O1116 2.021 . S
Co1106 O1118 2.137 . S
Co1106 O1119 2.244 . S
O1107 Co1106 2.216 . S
O1107 C1114 1.247 . S
O1108 Co1106 2.091 . S
O1108 C1114 1.261 . S
C1109 O1118 1.247 . S
C1109 O1119 1.272 . S
O1110 Co1106 2.004 . S
O1110 C1115 1.259 . S
Co1111 O1112 2.061 . S
Co1111 O1117 2.052 . S
Co1111 O1119 2.135 . S
O1112 Co1111 2.061 . S
O1112 C1115 1.235 . S
C1113 O1116 1.238 . S
C1113 O1117 1.241 . S
C1114 O1107 1.247 . S
C1114 O1108 1.261 . S
C1115 O1110 1.259 . S
C1115 O1112 1.235 . S
O1116 Co1106 2.021 . S
O1116 C1113 1.238 . S
O1117 Co1111 2.052 . S
O1117 C1113 1.241 . S
O1118 Co1106 2.137 . S
O1118 C1109 1.247 . S
O1119 Co1106 2.244 . S
O1119 C1109 1.272 . S
O1119 Co1111 2.135 . S
Co1120 O1121 2.216 . S
Co1120 O1122 2.091 . S
Co1120 O1124 2.004 . S
Co1120 O1130 2.021 . S
Co1120 O1132 2.137 . S
Co1120 O1133 2.244 . S
O1121 Co1120 2.216 . S
O1121 C1128 1.247 . S
O1122 Co1120 2.091 . S
O1122 C1128 1.261 . S
C1123 O1132 1.247 . S
C1123 O1133 1.272 . S
O1124 Co1120 2.004 . S
O1124 C1129 1.259 . S
Co1125 O1126 2.061 . S
Co1125 O1131 2.052 . S
Co1125 O1133 2.135 . S
O1126 Co1125 2.061 . S
O1126 C1129 1.235 . S
C1127 O1130 1.238 . S
C1127 O1131 1.241 . S
C1128 O1121 1.247 . S
C1128 O1122 1.261 . S
C1129 O1124 1.259 . S
C1129 O1126 1.235 . S
O1130 Co1120 2.021 . S
O1130 C1127 1.238 . S
O1131 Co1125 2.052 . S
O1131 C1127 1.241 . S
O1132 Co1120 2.137 . S
O1132 C1123 1.247 . S
O1133 Co1120 2.244 . S
O1133 C1123 1.272 . S
O1133 Co1125 2.135 . S
Co1134 O1135 2.216 . S
Co1134 O1136 2.091 . S
Co1134 O1138 2.004 . S
Co1134 O1144 2.021 . S
Co1134 O1146 2.137 . S
Co1134 O1147 2.244 . S
O1135 Co1134 2.216 . S
O1135 C1142 1.247 . S
O1136 Co1134 2.091 . S
O1136 C1142 1.261 . S
C1137 O1146 1.247 . S
C1137 O1147 1.272 . S
O1138 Co1134 2.004 . S
O1138 C1143 1.259 . S
Co1139 O1140 2.061 . S
Co1139 O1145 2.052 . S
Co1139 O1147 2.135 . S
O1140 Co1139 2.061 . S
O1140 C1143 1.235 . S
C1141 O1144 1.238 . S
C1141 O1145 1.241 . S
C1142 O1135 1.247 . S
C1142 O1136 1.261 . S
C1143 O1138 1.259 . S
C1143 O1140 1.235 . S
O1144 Co1134 2.021 . S
O1144 C1141 1.238 . S
O1145 Co1139 2.052 . S
O1145 C1141 1.241 . S
O1146 Co1134 2.137 . S
O1146 C1137 1.247 . S
O1147 Co1134 2.244 . S
O1147 C1137 1.272 . S
O1147 Co1139 2.135 . S
Co1148 O1149 2.216 . S
Co1148 O1150 2.091 . S
Co1148 O1152 2.004 . S
Co1148 O1158 2.021 . S
Co1148 O1160 2.137 . S
Co1148 O1161 2.244 . S
O1149 Co1148 2.216 . S
O1149 C1156 1.247 . S
O1150 Co1148 2.091 . S
O1150 C1156 1.261 . S
C1151 O1160 1.247 . S
C1151 O1161 1.272 . S
O1152 Co1148 2.004 . S
O1152 C1157 1.259 . S
Co1153 O1154 2.061 . S
Co1153 O1159 2.052 . S
Co1153 O1161 2.135 . S
O1154 Co1153 2.061 . S
O1154 C1157 1.235 . S
C1155 O1158 1.238 . S
C1155 O1159 1.241 . S
C1156 O1149 1.247 . S
C1156 O1150 1.261 . S
C1157 O1152 1.259 . S
C1157 O1154 1.235 . S
O1158 Co1148 2.021 . S
O1158 C1155 1.238 . S
O1159 Co1153 2.052 . S
O1159 C1155 1.241 . S
O1160 Co1148 2.137 . S
O1160 C1151 1.247 . S
O1161 Co1148 2.244 . S
O1161 C1151 1.272 . S
O1161 Co1153 2.135 . S
Co1162 O1163 2.216 . S
Co1162 O1164 2.091 . S
Co1162 O1166 2.004 . S
Co1162 O1172 2.021 . S
Co1162 O1174 2.137 . S
Co1162 O1175 2.244 . S
O1163 Co1162 2.216 . S
O1163 C1170 1.247 . S
O1164 Co1162 2.091 . S
O1164 C1170 1.261 . S
C1165 O1174 1.247 . S
C1165 O1175 1.272 . S
O1166 Co1162 2.004 . S
O1166 C1171 1.259 . S
Co1167 O1168 2.061 . S
Co1167 O1173 2.052 . S
Co1167 O1175 2.135 . S
O1168 Co1167 2.061 . S
O1168 C1171 1.235 . S
C1169 O1172 1.238 . S
C1169 O1173 1.241 . S
C1170 O1163 1.247 . S
C1170 O1164 1.261 . S
C1171 O1166 1.259 . S
C1171 O1168 1.235 . S
O1172 Co1162 2.021 . S
O1172 C1169 1.238 . S
O1173 Co1167 2.052 . S
O1173 C1169 1.241 . S
O1174 Co1162 2.137 . S
O1174 C1165 1.247 . S
O1175 Co1162 2.244 . S
O1175 C1165 1.272 . S
O1175 Co1167 2.135 . S
Co1176 O1177 2.216 . S
Co1176 O1178 2.091 . S
Co1176 O1180 2.004 . S
Co1176 O1186 2.021 . S
Co1176 O1188 2.137 . S
Co1176 O1189 2.244 . S
O1177 Co1176 2.216 . S
O1177 C1184 1.247 . S
O1178 Co1176 2.091 . S
O1178 C1184 1.261 . S
C1179 O1188 1.247 . S
C1179 O1189 1.272 . S
O1180 Co1176 2.004 . S
O1180 C1185 1.259 . S
Co1181 O1182 2.061 . S
Co1181 O1187 2.052 . S
Co1181 O1189 2.135 . S
O1182 Co1181 2.061 . S
O1182 C1185 1.235 . S
C1183 O1186 1.238 . S
C1183 O1187 1.241 . S
C1184 O1177 1.247 . S
C1184 O1178 1.261 . S
C1185 O1180 1.259 . S
C1185 O1182 1.235 . S
O1186 Co1176 2.021 . S
O1186 C1183 1.238 . S
O1187 Co1181 2.052 . S
O1187 C1183 1.241 . S
O1188 Co1176 2.137 . S
O1188 C1179 1.247 . S
O1189 Co1176 2.244 . S
O1189 C1179 1.272 . S
O1189 Co1181 2.135 . S
Co1190 O1191 2.216 . S
Co1190 O1192 2.091 . S
Co1190 O1194 2.004 . S
Co1190 O1200 2.021 . S
Co1190 O1202 2.137 . S
Co1190 O1203 2.244 . S
O1191 Co1190 2.216 . S
O1191 C1198 1.247 . S
O1192 Co1190 2.091 . S
O1192 C1198 1.261 . S
C1193 O1202 1.247 . S
C1193 O1203 1.272 . S
O1194 Co1190 2.004 . S
O1194 C1199 1.259 . S
Co1195 O1196 2.061 . S
Co1195 O1201 2.052 . S
Co1195 O1203 2.135 . S
O1196 Co1195 2.061 . S
O1196 C1199 1.235 . S
C1197 O1200 1.238 . S
C1197 O1201 1.241 . S
C1198 O1191 1.247 . S
C1198 O1192 1.261 . S
C1199 O1194 1.259 . S
C1199 O1196 1.235 . S
O1200 Co1190 2.021 . S
O1200 C1197 1.238 . S
O1201 Co1195 2.052 . S
O1201 C1197 1.241 . S
O1202 Co1190 2.137 . S
O1202 C1193 1.247 . S
O1203 Co1190 2.244 . S
O1203 C1193 1.272 . S
O1203 Co1195 2.135 . S
Co1204 O1205 2.216 . S
Co1204 O1206 2.091 . S
Co1204 O1208 2.004 . S
Co1204 O1214 2.021 . S
Co1204 O1216 2.137 . S
Co1204 O1217 2.244 . S
O1205 Co1204 2.216 . S
O1205 C1212 1.247 . S
O1206 Co1204 2.091 . S
O1206 C1212 1.261 . S
C1207 O1216 1.247 . S
C1207 O1217 1.272 . S
O1208 Co1204 2.004 . S
O1208 C1213 1.259 . S
Co1209 O1210 2.061 . S
Co1209 O1215 2.052 . S
Co1209 O1217 2.135 . S
O1210 Co1209 2.061 . S
O1210 C1213 1.235 . S
C1211 O1214 1.238 . S
C1211 O1215 1.241 . S
C1212 O1205 1.247 . S
C1212 O1206 1.261 . S
C1213 O1208 1.259 . S
C1213 O1210 1.235 . S
O1214 Co1204 2.021 . S
O1214 C1211 1.238 . S
O1215 Co1209 2.052 . S
O1215 C1211 1.241 . S
O1216 Co1204 2.137 . S
O1216 C1207 1.247 . S
O1217 Co1204 2.244 . S
O1217 C1207 1.272 . S
O1217 Co1209 2.135 . S
Co1218 O1219 2.216 . S
Co1218 O1220 2.091 . S
Co1218 O1222 2.004 . S
Co1218 O1228 2.021 . S
Co1218 O1230 2.137 . S
Co1218 O1231 2.244 . S
O1219 Co1218 2.216 . S
O1219 C1226 1.247 . S
O1220 Co1218 2.091 . S
O1220 C1226 1.261 . S
C1221 O1230 1.247 . S
C1221 O1231 1.272 . S
O1222 Co1218 2.004 . S
O1222 C1227 1.259 . S
Co1223 O1224 2.061 . S
Co1223 O1229 2.052 . S
Co1223 O1231 2.135 . S
O1224 Co1223 2.061 . S
O1224 C1227 1.235 . S
C1225 O1228 1.238 . S
C1225 O1229 1.241 . S
C1226 O1219 1.247 . S
C1226 O1220 1.261 . S
C1227 O1222 1.259 . S
C1227 O1224 1.235 . S
O1228 Co1218 2.021 . S
O1228 C1225 1.238 . S
O1229 Co1223 2.052 . S
O1229 C1225 1.241 . S
O1230 Co1218 2.137 . S
O1230 C1221 1.247 . S
O1231 Co1218 2.244 . S
O1231 C1221 1.272 . S
O1231 Co1223 2.135 . S
Co1232 O1233 2.216 . S
Co1232 O1234 2.091 . S
Co1232 O1236 2.004 . S
Co1232 O1242 2.021 . S
Co1232 O1244 2.137 . S
Co1232 O1245 2.244 . S
O1233 Co1232 2.216 . S
O1233 C1240 1.247 . S
O1234 Co1232 2.091 . S
O1234 C1240 1.261 . S
C1235 O1244 1.247 . S
C1235 O1245 1.272 . S
O1236 Co1232 2.004 . S
O1236 C1241 1.259 . S
Co1237 O1238 2.061 . S
Co1237 O1243 2.052 . S
Co1237 O1245 2.135 . S
O1238 Co1237 2.061 . S
O1238 C1241 1.235 . S
C1239 O1242 1.238 . S
C1239 O1243 1.241 . S
C1240 O1233 1.247 . S
C1240 O1234 1.261 . S
C1241 O1236 1.259 . S
C1241 O1238 1.235 . S
O1242 Co1232 2.021 . S
O1242 C1239 1.238 . S
O1243 Co1237 2.052 . S
O1243 C1239 1.241 . S
O1244 Co1232 2.137 . S
O1244 C1235 1.247 . S
O1245 Co1232 2.244 . S
O1245 C1235 1.272 . S
O1245 Co1237 2.135 . S
Co1246 O1247 2.216 . S
Co1246 O1248 2.091 . S
Co1246 O1250 2.004 . S
Co1246 O1256 2.021 . S
Co1246 O1258 2.137 . S
Co1246 O1259 2.244 . S
O1247 Co1246 2.216 . S
O1247 C1254 1.247 . S
O1248 Co1246 2.091 . S
O1248 C1254 1.261 . S
C1249 O1258 1.247 . S
C1249 O1259 1.272 . S
O1250 Co1246 2.004 . S
O1250 C1255 1.259 . S
Co1251 O1252 2.061 . S
Co1251 O1257 2.052 . S
Co1251 O1259 2.135 . S
O1252 Co1251 2.061 . S
O1252 C1255 1.235 . S
C1253 O1256 1.238 . S
C1253 O1257 1.241 . S
C1254 O1247 1.247 . S
C1254 O1248 1.261 . S
C1255 O1250 1.259 . S
C1255 O1252 1.235 . S
O1256 Co1246 2.021 . S
O1256 C1253 1.238 . S
O1257 Co1251 2.052 . S
O1257 C1253 1.241 . S
O1258 Co1246 2.137 . S
O1258 C1249 1.247 . S
O1259 Co1246 2.244 . S
O1259 C1249 1.272 . S
O1259 Co1251 2.135 . S
Co1260 O1261 2.216 . S
Co1260 O1262 2.091 . S
Co1260 O1264 2.004 . S
Co1260 O1270 2.021 . S
Co1260 O1272 2.137 . S
Co1260 O1273 2.244 . S
O1261 Co1260 2.216 . S
O1261 C1268 1.247 . S
O1262 Co1260 2.091 . S
O1262 C1268 1.261 . S
C1263 O1272 1.247 . S
C1263 O1273 1.272 . S
O1264 Co1260 2.004 . S
O1264 C1269 1.259 . S
Co1265 O1266 2.061 . S
Co1265 O1271 2.052 . S
Co1265 O1273 2.135 . S
O1266 Co1265 2.061 . S
O1266 C1269 1.235 . S
C1267 O1270 1.238 . S
C1267 O1271 1.241 . S
C1268 O1261 1.247 . S
C1268 O1262 1.261 . S
C1269 O1264 1.259 . S
C1269 O1266 1.235 . S
O1270 Co1260 2.021 . S
O1270 C1267 1.238 . S
O1271 Co1265 2.052 . S
O1271 C1267 1.241 . S
O1272 Co1260 2.137 . S
O1272 C1263 1.247 . S
O1273 Co1260 2.244 . S
O1273 C1263 1.272 . S
O1273 Co1265 2.135 . S
Co1274 O1275 2.216 . S
Co1274 O1276 2.091 . S
Co1274 O1278 2.004 . S
Co1274 O1284 2.021 . S
Co1274 O1286 2.137 . S
Co1274 O1287 2.244 . S
O1275 Co1274 2.216 . S
O1275 C1282 1.247 . S
O1276 Co1274 2.091 . S
O1276 C1282 1.261 . S
C1277 O1286 1.247 . S
C1277 O1287 1.272 . S
O1278 Co1274 2.004 . S
O1278 C1283 1.259 . S
Co1279 O1280 2.061 . S
Co1279 O1285 2.052 . S
Co1279 O1287 2.135 . S
O1280 Co1279 2.061 . S
O1280 C1283 1.235 . S
C1281 O1284 1.238 . S
C1281 O1285 1.241 . S
C1282 O1275 1.247 . S
C1282 O1276 1.261 . S
C1283 O1278 1.259 . S
C1283 O1280 1.235 . S
O1284 Co1274 2.021 . S
O1284 C1281 1.238 . S
O1285 Co1279 2.052 . S
O1285 C1281 1.241 . S
O1286 Co1274 2.137 . S
O1286 C1277 1.247 . S
O1287 Co1274 2.244 . S
O1287 C1277 1.272 . S
O1287 Co1279 2.135 . S
Co1288 O1289 2.216 . S
Co1288 O1290 2.091 . S
Co1288 O1292 2.004 . S
Co1288 O1298 2.021 . S
Co1288 O1300 2.137 . S
Co1288 O1301 2.244 . S
O1289 Co1288 2.216 . S
O1289 C1296 1.247 . S
O1290 Co1288 2.091 . S
O1290 C1296 1.261 . S
C1291 O1300 1.247 . S
C1291 O1301 1.272 . S
O1292 Co1288 2.004 . S
O1292 C1297 1.259 . S
Co1293 O1294 2.061 . S
Co1293 O1299 2.052 . S
Co1293 O1301 2.135 . S
O1294 Co1293 2.061 . S
O1294 C1297 1.235 . S
C1295 O1298 1.238 . S
C1295 O1299 1.241 . S
C1296 O1289 1.247 . S
C1296 O1290 1.261 . S
C1297 O1292 1.259 . S
C1297 O1294 1.235 . S
O1298 Co1288 2.021 . S
O1298 C1295 1.238 . S
O1299 Co1293 2.052 . S
O1299 C1295 1.241 . S
O1300 Co1288 2.137 . S
O1300 C1291 1.247 . S
O1301 Co1288 2.244 . S
O1301 C1291 1.272 . S
O1301 Co1293 2.135 . S
Co1302 O1303 2.216 . S
Co1302 O1304 2.091 . S
Co1302 O1306 2.004 . S
Co1302 O1312 2.021 . S
Co1302 O1314 2.137 . S
Co1302 O1315 2.244 . S
O1303 Co1302 2.216 . S
O1303 C1310 1.247 . S
O1304 Co1302 2.091 . S
O1304 C1310 1.261 . S
C1305 O1314 1.247 . S
C1305 O1315 1.272 . S
O1306 Co1302 2.004 . S
O1306 C1311 1.259 . S
Co1307 O1308 2.061 . S
Co1307 O1313 2.052 . S
Co1307 O1315 2.135 . S
O1308 Co1307 2.061 . S
O1308 C1311 1.235 . S
C1309 O1312 1.238 . S
C1309 O1313 1.241 . S
C1310 O1303 1.247 . S
C1310 O1304 1.261 . S
C1311 O1306 1.259 . S
C1311 O1308 1.235 . S
O1312 Co1302 2.021 . S
O1312 C1309 1.238 . S
O1313 Co1307 2.052 . S
O1313 C1309 1.241 . S
O1314 Co1302 2.137 . S
O1314 C1305 1.247 . S
O1315 Co1302 2.244 . S
O1315 C1305 1.272 . S
O1315 Co1307 2.135 . S
Co1316 O1317 2.216 . S
Co1316 O1318 2.091 . S
Co1316 O1320 2.004 . S
Co1316 O1326 2.021 . S
Co1316 O1328 2.137 . S
Co1316 O1329 2.244 . S
O1317 Co1316 2.216 . S
O1317 C1324 1.247 . S
O1318 Co1316 2.091 . S
O1318 C1324 1.261 . S
C1319 O1328 1.247 . S
C1319 O1329 1.272 . S
O1320 Co1316 2.004 . S
O1320 C1325 1.259 . S
Co1321 O1322 2.061 . S
Co1321 O1327 2.052 . S
Co1321 O1329 2.135 . S
O1322 Co1321 2.061 . S
O1322 C1325 1.235 . S
C1323 O1326 1.238 . S
C1323 O1327 1.241 . S
C1324 O1317 1.247 . S
C1324 O1318 1.261 . S
C1325 O1320 1.259 . S
C1325 O1322 1.235 . S
O1326 Co1316 2.021 . S
O1326 C1323 1.238 . S
O1327 Co1321 2.052 . S
O1327 C1323 1.241 . S
O1328 Co1316 2.137 . S
O1328 C1319 1.247 . S
O1329 Co1316 2.244 . S
O1329 C1319 1.272 . S
O1329 Co1321 2.135 . S
Co1330 O1331 2.216 . S
Co1330 O1332 2.091 . S
Co1330 O1334 2.004 . S
Co1330 O1340 2.021 . S
Co1330 O1342 2.137 . S
Co1330 O1343 2.244 . S
O1331 Co1330 2.216 . S
O1331 C1338 1.247 . S
O1332 Co1330 2.091 . S
O1332 C1338 1.261 . S
C1333 O1342 1.247 . S
C1333 O1343 1.272 . S
O1334 Co1330 2.004 . S
O1334 C1339 1.259 . S
Co1335 O1336 2.061 . S
Co1335 O1341 2.052 . S
Co1335 O1343 2.135 . S
O1336 Co1335 2.061 . S
O1336 C1339 1.235 . S
C1337 O1340 1.238 . S
C1337 O1341 1.241 . S
C1338 O1331 1.247 . S
C1338 O1332 1.261 . S
C1339 O1334 1.259 . S
C1339 O1336 1.235 . S
O1340 Co1330 2.021 . S
O1340 C1337 1.238 . S
O1341 Co1335 2.052 . S
O1341 C1337 1.241 . S
O1342 Co1330 2.137 . S
O1342 C1333 1.247 . S
O1343 Co1330 2.244 . S
O1343 C1333 1.272 . S
O1343 Co1335 2.135 . S
H1344 C1350 0.930 . S
H1345 C1353 0.930 . S
H1346 C1354 0.930 . S
H1347 C1355 0.930 . S
H1348 C1358 0.930 . S
H1349 C1359 0.930 . S
C1350 H1344 0.930 . S
C1350 C1351 1.355 . S
C1350 C1352 1.415 . S
C1351 C1350 1.355 . S
C1351 C1353 1.419 . S
C1352 C1350 1.415 . S
C1352 C1357 1.425 . S
C1352 C1359 1.409 . S
C1353 H1345 0.930 . S
C1353 C1351 1.419 . S
C1353 C1354 1.362 . S
C1354 H1346 0.930 . S
C1354 C1353 1.362 . S
C1354 C1357 1.409 . S
C1355 H1347 0.930 . S
C1355 C1356 1.355 . S
C1355 C1357 1.415 . S
C1356 C1355 1.355 . S
C1356 C1358 1.419 . S
C1357 C1352 1.425 . S
C1357 C1354 1.409 . S
C1357 C1355 1.415 . S
C1358 H1348 0.930 . S
C1358 C1356 1.419 . S
C1358 C1359 1.362 . S
C1359 H1349 0.930 . S
C1359 C1352 1.409 . S
C1359 C1358 1.362 . S
H1360 C1366 0.930 . S
H1361 C1369 0.930 . S
H1362 C1370 0.930 . S
H1363 C1371 0.930 . S
H1364 C1374 0.930 . S
H1365 C1375 0.930 . S
C1366 H1360 0.930 . S
C1366 C1367 1.355 . S
C1366 C1368 1.415 . S
C1367 C1366 1.355 . S
C1367 C1369 1.419 . S
C1368 C1366 1.415 . S
C1368 C1373 1.425 . S
C1368 C1375 1.409 . S
C1369 H1361 0.930 . S
C1369 C1367 1.419 . S
C1369 C1370 1.362 . S
C1370 H1362 0.930 . S
C1370 C1369 1.362 . S
C1370 C1373 1.409 . S
C1371 H1363 0.930 . S
C1371 C1372 1.355 . S
C1371 C1373 1.415 . S
C1372 C1371 1.355 . S
C1372 C1374 1.419 . S
C1373 C1368 1.425 . S
C1373 C1370 1.409 . S
C1373 C1371 1.415 . S
C1374 H1364 0.930 . S
C1374 C1372 1.419 . S
C1374 C1375 1.362 . S
C1375 H1365 0.930 . S
C1375 C1368 1.409 . S
C1375 C1374 1.362 . S
H1376 C1382 0.930 . S
H1377 C1385 0.930 . S
H1378 C1386 0.930 . S
H1379 C1387 0.930 . S
H1380 C1390 0.930 . S
H1381 C1391 0.930 . S
C1382 H1376 0.930 . S
C1382 C1383 1.355 . S
C1382 C1384 1.415 . S
C1383 C1382 1.355 . S
C1383 C1385 1.419 . S
C1384 C1382 1.415 . S
C1384 C1389 1.425 . S
C1384 C1391 1.409 . S
C1385 H1377 0.930 . S
C1385 C1383 1.419 . S
C1385 C1386 1.362 . S
C1386 H1378 0.930 . S
C1386 C1385 1.362 . S
C1386 C1389 1.409 . S
C1387 H1379 0.930 . S
C1387 C1388 1.355 . S
C1387 C1389 1.415 . S
C1388 C1387 1.355 . S
C1388 C1390 1.419 . S
C1389 C1384 1.425 . S
C1389 C1386 1.409 . S
C1389 C1387 1.415 . S
C1390 H1380 0.930 . S
C1390 C1388 1.419 . S
C1390 C1391 1.362 . S
C1391 H1381 0.930 . S
C1391 C1384 1.409 . S
C1391 C1390 1.362 . S
H1392 C1398 0.930 . S
H1393 C1401 0.930 . S
H1394 C1402 0.930 . S
H1395 C1403 0.930 . S
H1396 C1406 0.930 . S
H1397 C1407 0.930 . S
C1398 H1392 0.930 . S
C1398 C1399 1.355 . S
C1398 C1400 1.415 . S
C1399 C1398 1.355 . S
C1399 C1401 1.419 . S
C1400 C1398 1.415 . S
C1400 C1405 1.425 . S
C1400 C1407 1.409 . S
C1401 H1393 0.930 . S
C1401 C1399 1.419 . S
C1401 C1402 1.362 . S
C1402 H1394 0.930 . S
C1402 C1401 1.362 . S
C1402 C1405 1.409 . S
C1403 H1395 0.930 . S
C1403 C1404 1.355 . S
C1403 C1405 1.415 . S
C1404 C1403 1.355 . S
C1404 C1406 1.419 . S
C1405 C1400 1.425 . S
C1405 C1402 1.409 . S
C1405 C1403 1.415 . S
C1406 H1396 0.930 . S
C1406 C1404 1.419 . S
C1406 C1407 1.362 . S
C1407 H1397 0.930 . S
C1407 C1400 1.409 . S
C1407 C1406 1.362 . S
H1408 C1414 0.930 . S
H1409 C1417 0.930 . S
H1410 C1418 0.930 . S
H1411 C1419 0.930 . S
H1412 C1422 0.930 . S
H1413 C1423 0.930 . S
C1414 H1408 0.930 . S
C1414 C1415 1.355 . S
C1414 C1416 1.415 . S
C1415 C1414 1.355 . S
C1415 C1417 1.419 . S
C1416 C1414 1.415 . S
C1416 C1421 1.425 . S
C1416 C1423 1.409 . S
C1417 H1409 0.930 . S
C1417 C1415 1.419 . S
C1417 C1418 1.362 . S
C1418 H1410 0.930 . S
C1418 C1417 1.362 . S
C1418 C1421 1.409 . S
C1419 H1411 0.930 . S
C1419 C1420 1.355 . S
C1419 C1421 1.415 . S
C1420 C1419 1.355 . S
C1420 C1422 1.419 . S
C1421 C1416 1.425 . S
C1421 C1418 1.409 . S
C1421 C1419 1.415 . S
C1422 H1412 0.930 . S
C1422 C1420 1.419 . S
C1422 C1423 1.362 . S
C1423 H1413 0.930 . S
C1423 C1416 1.409 . S
C1423 C1422 1.362 . S
H1424 C1430 0.930 . S
H1425 C1433 0.930 . S
H1426 C1434 0.930 . S
H1427 C1435 0.930 . S
H1428 C1438 0.930 . S
H1429 C1439 0.930 . S
C1430 H1424 0.930 . S
C1430 C1431 1.355 . S
C1430 C1432 1.415 . S
C1431 C1430 1.355 . S
C1431 C1433 1.419 . S
C1432 C1430 1.415 . S
C1432 C1437 1.425 . S
C1432 C1439 1.409 . S
C1433 H1425 0.930 . S
C1433 C1431 1.419 . S
C1433 C1434 1.362 . S
C1434 H1426 0.930 . S
C1434 C1433 1.362 . S
C1434 C1437 1.409 . S
C1435 H1427 0.930 . S
C1435 C1436 1.355 . S
C1435 C1437 1.415 . S
C1436 C1435 1.355 . S
C1436 C1438 1.419 . S
C1437 C1432 1.425 . S
C1437 C1434 1.409 . S
C1437 C1435 1.415 . S
C1438 H1428 0.930 . S
C1438 C1436 1.419 . S
C1438 C1439 1.362 . S
C1439 H1429 0.930 . S
C1439 C1432 1.409 . S
C1439 C1438 1.362 . S
H1440 C1446 0.930 . S
H1441 C1449 0.930 . S
H1442 C1450 0.930 . S
H1443 C1451 0.930 . S
H1444 C1454 0.930 . S
H1445 C1455 0.930 . S
C1446 H1440 0.930 . S
C1446 C1447 1.355 . S
C1446 C1448 1.415 . S
C1447 C1446 1.355 . S
C1447 C1449 1.419 . S
C1448 C1446 1.415 . S
C1448 C1453 1.425 . S
C1448 C1455 1.409 . S
C1449 H1441 0.930 . S
C1449 C1447 1.419 . S
C1449 C1450 1.362 . S
C1450 H1442 0.930 . S
C1450 C1449 1.362 . S
C1450 C1453 1.409 . S
C1451 H1443 0.930 . S
C1451 C1452 1.355 . S
C1451 C1453 1.415 . S
C1452 C1451 1.355 . S
C1452 C1454 1.419 . S
C1453 C1448 1.425 . S
C1453 C1450 1.409 . S
C1453 C1451 1.415 . S
C1454 H1444 0.930 . S
C1454 C1452 1.419 . S
C1454 C1455 1.362 . S
C1455 H1445 0.930 . S
C1455 C1448 1.409 . S
C1455 C1454 1.362 . S
H1456 C1462 0.930 . S
H1457 C1465 0.930 . S
H1458 C1466 0.930 . S
H1459 C1467 0.930 . S
H1460 C1470 0.930 . S
H1461 C1471 0.930 . S
C1462 H1456 0.930 . S
C1462 C1463 1.355 . S
C1462 C1464 1.415 . S
C1463 C1462 1.355 . S
C1463 C1465 1.419 . S
C1464 C1462 1.415 . S
C1464 C1469 1.425 . S
C1464 C1471 1.409 . S
C1465 H1457 0.930 . S
C1465 C1463 1.419 . S
C1465 C1466 1.362 . S
C1466 H1458 0.930 . S
C1466 C1465 1.362 . S
C1466 C1469 1.409 . S
C1467 H1459 0.930 . S
C1467 C1468 1.355 . S
C1467 C1469 1.415 . S
C1468 C1467 1.355 . S
C1468 C1470 1.419 . S
C1469 C1464 1.425 . S
C1469 C1466 1.409 . S
C1469 C1467 1.415 . S
C1470 H1460 0.930 . S
C1470 C1468 1.419 . S
C1470 C1471 1.362 . S
C1471 H1461 0.930 . S
C1471 C1464 1.409 . S
C1471 C1470 1.362 . S
H1472 C1478 0.930 . S
H1473 C1481 0.930 . S
H1474 C1482 0.930 . S
H1475 C1483 0.930 . S
H1476 C1486 0.930 . S
H1477 C1487 0.930 . S
C1478 H1472 0.930 . S
C1478 C1479 1.355 . S
C1478 C1480 1.415 . S
C1479 C1478 1.355 . S
C1479 C1481 1.419 . S
C1480 C1478 1.415 . S
C1480 C1485 1.425 . S
C1480 C1487 1.409 . S
C1481 H1473 0.930 . S
C1481 C1479 1.419 . S
C1481 C1482 1.362 . S
C1482 H1474 0.930 . S
C1482 C1481 1.362 . S
C1482 C1485 1.409 . S
C1483 H1475 0.930 . S
C1483 C1484 1.355 . S
C1483 C1485 1.415 . S
C1484 C1483 1.355 . S
C1484 C1486 1.419 . S
C1485 C1480 1.425 . S
C1485 C1482 1.409 . S
C1485 C1483 1.415 . S
C1486 H1476 0.930 . S
C1486 C1484 1.419 . S
C1486 C1487 1.362 . S
C1487 H1477 0.930 . S
C1487 C1480 1.409 . S
C1487 C1486 1.362 . S
H1488 C1494 0.930 . S
H1489 C1497 0.930 . S
H1490 C1498 0.930 . S
H1491 C1499 0.930 . S
H1492 C1502 0.930 . S
H1493 C1503 0.930 . S
C1494 H1488 0.930 . S
C1494 C1495 1.355 . S
C1494 C1496 1.415 . S
C1495 C1494 1.355 . S
C1495 C1497 1.419 . S
C1496 C1494 1.415 . S
C1496 C1501 1.425 . S
C1496 C1503 1.409 . S
C1497 H1489 0.930 . S
C1497 C1495 1.419 . S
C1497 C1498 1.362 . S
C1498 H1490 0.930 . S
C1498 C1497 1.362 . S
C1498 C1501 1.409 . S
C1499 H1491 0.930 . S
C1499 C1500 1.355 . S
C1499 C1501 1.415 . S
C1500 C1499 1.355 . S
C1500 C1502 1.419 . S
C1501 C1496 1.425 . S
C1501 C1498 1.409 . S
C1501 C1499 1.415 . S
C1502 H1492 0.930 . S
C1502 C1500 1.419 . S
C1502 C1503 1.362 . S
C1503 H1493 0.930 . S
C1503 C1496 1.409 . S
C1503 C1502 1.362 . S
H1504 C1510 0.930 . S
H1505 C1513 0.930 . S
H1506 C1514 0.930 . S
H1507 C1515 0.930 . S
H1508 C1518 0.930 . S
H1509 C1519 0.930 . S
C1510 H1504 0.930 . S
C1510 C1511 1.355 . S
C1510 C1512 1.415 . S
C1511 C1510 1.355 . S
C1511 C1513 1.419 . S
C1512 C1510 1.415 . S
C1512 C1517 1.425 . S
C1512 C1519 1.409 . S
C1513 H1505 0.930 . S
C1513 C1511 1.419 . S
C1513 C1514 1.362 . S
C1514 H1506 0.930 . S
C1514 C1513 1.362 . S
C1514 C1517 1.409 . S
C1515 H1507 0.930 . S
C1515 C1516 1.355 . S
C1515 C1517 1.415 . S
C1516 C1515 1.355 . S
C1516 C1518 1.419 . S
C1517 C1512 1.425 . S
C1517 C1514 1.409 . S
C1517 C1515 1.415 . S
C1518 H1508 0.930 . S
C1518 C1516 1.419 . S
C1518 C1519 1.362 . S
C1519 H1509 0.930 . S
C1519 C1512 1.409 . S
C1519 C1518 1.362 . S
H1520 C1526 0.930 . S
H1521 C1529 0.930 . S
H1522 C1530 0.930 . S
H1523 C1531 0.930 . S
H1524 C1534 0.930 . S
H1525 C1535 0.930 . S
C1526 H1520 0.930 . S
C1526 C1527 1.355 . S
C1526 C1528 1.415 . S
C1527 C1526 1.355 . S
C1527 C1529 1.419 . S
C1528 C1526 1.415 . S
C1528 C1533 1.425 . S
C1528 C1535 1.409 . S
C1529 H1521 0.930 . S
C1529 C1527 1.419 . S
C1529 C1530 1.362 . S
C1530 H1522 0.930 . S
C1530 C1529 1.362 . S
C1530 C1533 1.409 . S
C1531 H1523 0.930 . S
C1531 C1532 1.355 . S
C1531 C1533 1.415 . S
C1532 C1531 1.355 . S
C1532 C1534 1.419 . S
C1533 C1528 1.425 . S
C1533 C1530 1.409 . S
C1533 C1531 1.415 . S
C1534 H1524 0.930 . S
C1534 C1532 1.419 . S
C1534 C1535 1.362 . S
C1535 H1525 0.930 . S
C1535 C1528 1.409 . S
C1535 C1534 1.362 . S
H1536 C1542 0.930 . S
H1537 C1545 0.930 . S
H1538 C1546 0.930 . S
H1539 C1547 0.930 . S
H1540 C1550 0.930 . S
H1541 C1551 0.930 . S
C1542 H1536 0.930 . S
C1542 C1543 1.355 . S
C1542 C1544 1.415 . S
C1543 C1542 1.355 . S
C1543 C1545 1.419 . S
C1544 C1542 1.415 . S
C1544 C1549 1.425 . S
C1544 C1551 1.409 . S
C1545 H1537 0.930 . S
C1545 C1543 1.419 . S
C1545 C1546 1.362 . S
C1546 H1538 0.930 . S
C1546 C1545 1.362 . S
C1546 C1549 1.409 . S
C1547 H1539 0.930 . S
C1547 C1548 1.355 . S
C1547 C1549 1.415 . S
C1548 C1547 1.355 . S
C1548 C1550 1.419 . S
C1549 C1544 1.425 . S
C1549 C1546 1.409 . S
C1549 C1547 1.415 . S
C1550 H1540 0.930 . S
C1550 C1548 1.419 . S
C1550 C1551 1.362 . S
C1551 H1541 0.930 . S
C1551 C1544 1.409 . S
C1551 C1550 1.362 . S
H1552 C1558 0.930 . S
H1553 C1561 0.930 . S
H1554 C1562 0.930 . S
H1555 C1563 0.930 . S
H1556 C1566 0.930 . S
H1557 C1567 0.930 . S
C1558 H1552 0.930 . S
C1558 C1559 1.355 . S
C1558 C1560 1.415 . S
C1559 C1558 1.355 . S
C1559 C1561 1.419 . S
C1560 C1558 1.415 . S
C1560 C1565 1.425 . S
C1560 C1567 1.409 . S
C1561 H1553 0.930 . S
C1561 C1559 1.419 . S
C1561 C1562 1.362 . S
C1562 H1554 0.930 . S
C1562 C1561 1.362 . S
C1562 C1565 1.409 . S
C1563 H1555 0.930 . S
C1563 C1564 1.355 . S
C1563 C1565 1.415 . S
C1564 C1563 1.355 . S
C1564 C1566 1.419 . S
C1565 C1560 1.425 . S
C1565 C1562 1.409 . S
C1565 C1563 1.415 . S
C1566 H1556 0.930 . S
C1566 C1564 1.419 . S
C1566 C1567 1.362 . S
C1567 H1557 0.930 . S
C1567 C1560 1.409 . S
C1567 C1566 1.362 . S
H1568 C1574 0.930 . S
H1569 C1577 0.930 . S
H1570 C1578 0.930 . S
H1571 C1579 0.930 . S
H1572 C1582 0.930 . S
H1573 C1583 0.930 . S
C1574 H1568 0.930 . S
C1574 C1575 1.355 . S
C1574 C1576 1.415 . S
C1575 C1574 1.355 . S
C1575 C1577 1.419 . S
C1576 C1574 1.415 . S
C1576 C1581 1.425 . S
C1576 C1583 1.409 . S
C1577 H1569 0.930 . S
C1577 C1575 1.419 . S
C1577 C1578 1.362 . S
C1578 H1570 0.930 . S
C1578 C1577 1.362 . S
C1578 C1581 1.409 . S
C1579 H1571 0.930 . S
C1579 C1580 1.355 . S
C1579 C1581 1.415 . S
C1580 C1579 1.355 . S
C1580 C1582 1.419 . S
C1581 C1576 1.425 . S
C1581 C1578 1.409 . S
C1581 C1579 1.415 . S
C1582 H1572 0.930 . S
C1582 C1580 1.419 . S
C1582 C1583 1.362 . S
C1583 H1573 0.930 . S
C1583 C1576 1.409 . S
C1583 C1582 1.362 . S
H1584 C1590 0.930 . S
H1585 C1593 0.930 . S
H1586 C1594 0.930 . S
H1587 C1595 0.930 . S
H1588 C1598 0.930 . S
H1589 C1599 0.930 . S
C1590 H1584 0.930 . S
C1590 C1591 1.355 . S
C1590 C1592 1.415 . S
C1591 C1590 1.355 . S
C1591 C1593 1.419 . S
C1592 C1590 1.415 . S
C1592 C1597 1.425 . S
C1592 C1599 1.409 . S
C1593 H1585 0.930 . S
C1593 C1591 1.419 . S
C1593 C1594 1.362 . S
C1594 H1586 0.930 . S
C1594 C1593 1.362 . S
C1594 C1597 1.409 . S
C1595 H1587 0.930 . S
C1595 C1596 1.355 . S
C1595 C1597 1.415 . S
C1596 C1595 1.355 . S
C1596 C1598 1.419 . S
C1597 C1592 1.425 . S
C1597 C1594 1.409 . S
C1597 C1595 1.415 . S
C1598 H1588 0.930 . S
C1598 C1596 1.419 . S
C1598 C1599 1.362 . S
C1599 H1589 0.930 . S
C1599 C1592 1.409 . S
C1599 C1598 1.362 . S
H1600 C1606 0.930 . S
H1601 C1609 0.930 . S
H1602 C1610 0.930 . S
H1603 C1611 0.930 . S
H1604 C1614 0.930 . S
H1605 C1615 0.930 . S
C1606 H1600 0.930 . S
C1606 C1607 1.355 . S
C1606 C1608 1.415 . S
C1607 C1606 1.355 . S
C1607 C1609 1.419 . S
C1608 C1606 1.415 . S
C1608 C1613 1.425 . S
C1608 C1615 1.409 . S
C1609 H1601 0.930 . S
C1609 C1607 1.419 . S
C1609 C1610 1.362 . S
C1610 H1602 0.930 . S
C1610 C1609 1.362 . S
C1610 C1613 1.409 . S
C1611 H1603 0.930 . S
C1611 C1612 1.355 . S
C1611 C1613 1.415 . S
C1612 C1611 1.355 . S
C1612 C1614 1.419 . S
C1613 C1608 1.425 . S
C1613 C1610 1.409 . S
C1613 C1611 1.415 . S
C1614 H1604 0.930 . S
C1614 C1612 1.419 . S
C1614 C1615 1.362 . S
C1615 H1605 0.930 . S
C1615 C1608 1.409 . S
C1615 C1614 1.362 . S
H1616 C1622 0.930 . S
H1617 C1625 0.930 . S
H1618 C1626 0.930 . S
H1619 C1627 0.930 . S
H1620 C1630 0.930 . S
H1621 C1631 0.930 . S
C1622 H1616 0.930 . S
C1622 C1623 1.355 . S
C1622 C1624 1.415 . S
C1623 C1622 1.355 . S
C1623 C1625 1.419 . S
C1624 C1622 1.415 . S
C1624 C1629 1.425 . S
C1624 C1631 1.409 . S
C1625 H1617 0.930 . S
C1625 C1623 1.419 . S
C1625 C1626 1.362 . S
C1626 H1618 0.930 . S
C1626 C1625 1.362 . S
C1626 C1629 1.409 . S
C1627 H1619 0.930 . S
C1627 C1628 1.355 . S
C1627 C1629 1.415 . S
C1628 C1627 1.355 . S
C1628 C1630 1.419 . S
C1629 C1624 1.425 . S
C1629 C1626 1.409 . S
C1629 C1627 1.415 . S
C1630 H1620 0.930 . S
C1630 C1628 1.419 . S
C1630 C1631 1.362 . S
C1631 H1621 0.930 . S
C1631 C1624 1.409 . S
C1631 C1630 1.362 . S
H1632 C1638 0.930 . S
H1633 C1641 0.930 . S
H1634 C1642 0.930 . S
H1635 C1643 0.930 . S
H1636 C1646 0.930 . S
H1637 C1647 0.930 . S
C1638 H1632 0.930 . S
C1638 C1639 1.355 . S
C1638 C1640 1.415 . S
C1639 C1638 1.355 . S
C1639 C1641 1.419 . S
C1640 C1638 1.415 . S
C1640 C1645 1.425 . S
C1640 C1647 1.409 . S
C1641 H1633 0.930 . S
C1641 C1639 1.419 . S
C1641 C1642 1.362 . S
C1642 H1634 0.930 . S
C1642 C1641 1.362 . S
C1642 C1645 1.409 . S
C1643 H1635 0.930 . S
C1643 C1644 1.355 . S
C1643 C1645 1.415 . S
C1644 C1643 1.355 . S
C1644 C1646 1.419 . S
C1645 C1640 1.425 . S
C1645 C1642 1.409 . S
C1645 C1643 1.415 . S
C1646 H1636 0.930 . S
C1646 C1644 1.419 . S
C1646 C1647 1.362 . S
C1647 H1637 0.930 . S
C1647 C1640 1.409 . S
C1647 C1646 1.362 . S
H1648 C1654 0.930 . S
H1649 C1657 0.930 . S
H1650 C1658 0.930 . S
H1651 C1659 0.930 . S
H1652 C1662 0.930 . S
H1653 C1663 0.930 . S
C1654 H1648 0.930 . S
C1654 C1655 1.355 . S
C1654 C1656 1.415 . S
C1655 C1654 1.355 . S
C1655 C1657 1.419 . S
C1656 C1654 1.415 . S
C1656 C1661 1.425 . S
C1656 C1663 1.409 . S
C1657 H1649 0.930 . S
C1657 C1655 1.419 . S
C1657 C1658 1.362 . S
C1658 H1650 0.930 . S
C1658 C1657 1.362 . S
C1658 C1661 1.409 . S
C1659 H1651 0.930 . S
C1659 C1660 1.355 . S
C1659 C1661 1.415 . S
C1660 C1659 1.355 . S
C1660 C1662 1.419 . S
C1661 C1656 1.425 . S
C1661 C1658 1.409 . S
C1661 C1659 1.415 . S
C1662 H1652 0.930 . S
C1662 C1660 1.419 . S
C1662 C1663 1.362 . S
C1663 H1653 0.930 . S
C1663 C1656 1.409 . S
C1663 C1662 1.362 . S
H1664 C1670 0.930 . S
H1665 C1673 0.930 . S
H1666 C1674 0.930 . S
H1667 C1675 0.930 . S
H1668 C1678 0.930 . S
H1669 C1679 0.930 . S
C1670 H1664 0.930 . S
C1670 C1671 1.355 . S
C1670 C1672 1.415 . S
C1671 C1670 1.355 . S
C1671 C1673 1.419 . S
C1672 C1670 1.415 . S
C1672 C1677 1.425 . S
C1672 C1679 1.409 . S
C1673 H1665 0.930 . S
C1673 C1671 1.419 . S
C1673 C1674 1.362 . S
C1674 H1666 0.930 . S
C1674 C1673 1.362 . S
C1674 C1677 1.409 . S
C1675 H1667 0.930 . S
C1675 C1676 1.355 . S
C1675 C1677 1.415 . S
C1676 C1675 1.355 . S
C1676 C1678 1.419 . S
C1677 C1672 1.425 . S
C1677 C1674 1.409 . S
C1677 C1675 1.415 . S
C1678 H1668 0.930 . S
C1678 C1676 1.419 . S
C1678 C1679 1.362 . S
C1679 H1669 0.930 . S
C1679 C1672 1.409 . S
C1679 C1678 1.362 . S
H1680 C1686 0.930 . S
H1681 C1689 0.930 . S
H1682 C1690 0.930 . S
H1683 C1691 0.930 . S
H1684 C1694 0.930 . S
H1685 C1695 0.930 . S
C1686 H1680 0.930 . S
C1686 C1687 1.355 . S
C1686 C1688 1.415 . S
C1687 C1686 1.355 . S
C1687 C1689 1.419 . S
C1688 C1686 1.415 . S
C1688 C1693 1.425 . S
C1688 C1695 1.409 . S
C1689 H1681 0.930 . S
C1689 C1687 1.419 . S
C1689 C1690 1.362 . S
C1690 H1682 0.930 . S
C1690 C1689 1.362 . S
C1690 C1693 1.409 . S
C1691 H1683 0.930 . S
C1691 C1692 1.355 . S
C1691 C1693 1.415 . S
C1692 C1691 1.355 . S
C1692 C1694 1.419 . S
C1693 C1688 1.425 . S
C1693 C1690 1.409 . S
C1693 C1691 1.415 . S
C1694 H1684 0.930 . S
C1694 C1692 1.419 . S
C1694 C1695 1.362 . S
C1695 H1685 0.930 . S
C1695 C1688 1.409 . S
C1695 C1694 1.362 . S
H1696 C1702 0.930 . S
H1697 C1705 0.930 . S
H1698 C1706 0.930 . S
H1699 C1707 0.930 . S
H1700 C1710 0.930 . S
H1701 C1711 0.930 . S
C1702 H1696 0.930 . S
C1702 C1703 1.355 . S
C1702 C1704 1.415 . S
C1703 C1702 1.355 . S
C1703 C1705 1.419 . S
C1704 C1702 1.415 . S
C1704 C1709 1.425 . S
C1704 C1711 1.409 . S
C1705 H1697 0.930 . S
C1705 C1703 1.419 . S
C1705 C1706 1.362 . S
C1706 H1698 0.930 . S
C1706 C1705 1.362 . S
C1706 C1709 1.409 . S
C1707 H1699 0.930 . S
C1707 C1708 1.355 . S
C1707 C1709 1.415 . S
C1708 C1707 1.355 . S
C1708 C1710 1.419 . S
C1709 C1704 1.425 . S
C1709 C1706 1.409 . S
C1709 C1707 1.415 . S
C1710 H1700 0.930 . S
C1710 C1708 1.419 . S
C1710 C1711 1.362 . S
C1711 H1701 0.930 . S
C1711 C1704 1.409 . S
C1711 C1710 1.362 . S
H1712 C1718 0.930 . S
H1713 C1721 0.930 . S
H1714 C1722 0.930 . S
H1715 C1723 0.930 . S
H1716 C1726 0.930 . S
H1717 C1727 0.930 . S
C1718 H1712 0.930 . S
C1718 C1719 1.355 . S
C1718 C1720 1.415 . S
C1719 C1718 1.355 . S
C1719 C1721 1.419 . S
C1720 C1718 1.415 . S
C1720 C1725 1.425 . S
C1720 C1727 1.409 . S
C1721 H1713 0.930 . S
C1721 C1719 1.419 . S
C1721 C1722 1.362 . S
C1722 H1714 0.930 . S
C1722 C1721 1.362 . S
C1722 C1725 1.409 . S
C1723 H1715 0.930 . S
C1723 C1724 1.355 . S
C1723 C1725 1.415 . S
C1724 C1723 1.355 . S
C1724 C1726 1.419 . S
C1725 C1720 1.425 . S
C1725 C1722 1.409 . S
C1725 C1723 1.415 . S
C1726 H1716 0.930 . S
C1726 C1724 1.419 . S
C1726 C1727 1.362 . S
C1727 H1717 0.930 . S
C1727 C1720 1.409 . S
C1727 C1726 1.362 . S
H1728 C1734 0.930 . S
H1729 C1737 0.930 . S
H1730 C1738 0.930 . S
H1731 C1739 0.930 . S
H1732 C1742 0.930 . S
H1733 C1743 0.930 . S
C1734 H1728 0.930 . S
C1734 C1735 1.355 . S
C1734 C1736 1.415 . S
C1735 C1734 1.355 . S
C1735 C1737 1.419 . S
C1736 C1734 1.415 . S
C1736 C1741 1.425 . S
C1736 C1743 1.409 . S
C1737 H1729 0.930 . S
C1737 C1735 1.419 . S
C1737 C1738 1.362 . S
C1738 H1730 0.930 . S
C1738 C1737 1.362 . S
C1738 C1741 1.409 . S
C1739 H1731 0.930 . S
C1739 C1740 1.355 . S
C1739 C1741 1.415 . S
C1740 C1739 1.355 . S
C1740 C1742 1.419 . S
C1741 C1736 1.425 . S
C1741 C1738 1.409 . S
C1741 C1739 1.415 . S
C1742 H1732 0.930 . S
C1742 C1740 1.419 . S
C1742 C1743 1.362 . S
C1743 H1733 0.930 . S
C1743 C1736 1.409 . S
C1743 C1742 1.362 . S
H1744 C1750 0.930 . S
H1745 C1753 0.930 . S
H1746 C1754 0.930 . S
H1747 C1755 0.930 . S
H1748 C1758 0.930 . S
H1749 C1759 0.930 . S
C1750 H1744 0.930 . S
C1750 C1751 1.355 . S
C1750 C1752 1.415 . S
C1751 C1750 1.355 . S
C1751 C1753 1.419 . S
C1752 C1750 1.415 . S
C1752 C1757 1.425 . S
C1752 C1759 1.409 . S
C1753 H1745 0.930 . S
C1753 C1751 1.419 . S
C1753 C1754 1.362 . S
C1754 H1746 0.930 . S
C1754 C1753 1.362 . S
C1754 C1757 1.409 . S
C1755 H1747 0.930 . S
C1755 C1756 1.355 . S
C1755 C1757 1.415 . S
C1756 C1755 1.355 . S
C1756 C1758 1.419 . S
C1757 C1752 1.425 . S
C1757 C1754 1.409 . S
C1757 C1755 1.415 . S
C1758 H1748 0.930 . S
C1758 C1756 1.419 . S
C1758 C1759 1.362 . S
C1759 H1749 0.930 . S
C1759 C1752 1.409 . S
C1759 C1758 1.362 . S
H1760 C1766 0.930 . S
H1761 C1769 0.930 . S
H1762 C1770 0.930 . S
H1763 C1771 0.930 . S
H1764 C1774 0.930 . S
H1765 C1775 0.930 . S
C1766 H1760 0.930 . S
C1766 C1767 1.355 . S
C1766 C1768 1.415 . S
C1767 C1766 1.355 . S
C1767 C1769 1.419 . S
C1768 C1766 1.415 . S
C1768 C1773 1.425 . S
C1768 C1775 1.409 . S
C1769 H1761 0.930 . S
C1769 C1767 1.419 . S
C1769 C1770 1.362 . S
C1770 H1762 0.930 . S
C1770 C1769 1.362 . S
C1770 C1773 1.409 . S
C1771 H1763 0.930 . S
C1771 C1772 1.355 . S
C1771 C1773 1.415 . S
C1772 C1771 1.355 . S
C1772 C1774 1.419 . S
C1773 C1768 1.425 . S
C1773 C1770 1.409 . S
C1773 C1771 1.415 . S
C1774 H1764 0.930 . S
C1774 C1772 1.419 . S
C1774 C1775 1.362 . S
C1775 H1765 0.930 . S
C1775 C1768 1.409 . S
C1775 C1774 1.362 . S
H1776 C1782 0.930 . S
H1777 C1785 0.930 . S
H1778 C1786 0.930 . S
H1779 C1787 0.930 . S
H1780 C1790 0.930 . S
H1781 C1791 0.930 . S
C1782 H1776 0.930 . S
C1782 C1783 1.355 . S
C1782 C1784 1.415 . S
C1783 C1782 1.355 . S
C1783 C1785 1.419 . S
C1784 C1782 1.415 . S
C1784 C1789 1.425 . S
C1784 C1791 1.409 . S
C1785 H1777 0.930 . S
C1785 C1783 1.419 . S
C1785 C1786 1.362 . S
C1786 H1778 0.930 . S
C1786 C1785 1.362 . S
C1786 C1789 1.409 . S
C1787 H1779 0.930 . S
C1787 C1788 1.355 . S
C1787 C1789 1.415 . S
C1788 C1787 1.355 . S
C1788 C1790 1.419 . S
C1789 C1784 1.425 . S
C1789 C1786 1.409 . S
C1789 C1787 1.415 . S
C1790 H1780 0.930 . S
C1790 C1788 1.419 . S
C1790 C1791 1.362 . S
C1791 H1781 0.930 . S
C1791 C1784 1.409 . S
C1791 C1790 1.362 . S
H1792 C1798 0.930 . S
H1793 C1801 0.930 . S
H1794 C1802 0.930 . S
H1795 C1803 0.930 . S
H1796 C1806 0.930 . S
H1797 C1807 0.930 . S
C1798 H1792 0.930 . S
C1798 C1799 1.355 . S
C1798 C1800 1.415 . S
C1799 C1798 1.355 . S
C1799 C1801 1.419 . S
C1800 C1798 1.415 . S
C1800 C1805 1.425 . S
C1800 C1807 1.409 . S
C1801 H1793 0.930 . S
C1801 C1799 1.419 . S
C1801 C1802 1.362 . S
C1802 H1794 0.930 . S
C1802 C1801 1.362 . S
C1802 C1805 1.409 . S
C1803 H1795 0.930 . S
C1803 C1804 1.355 . S
C1803 C1805 1.415 . S
C1804 C1803 1.355 . S
C1804 C1806 1.419 . S
C1805 C1800 1.425 . S
C1805 C1802 1.409 . S
C1805 C1803 1.415 . S
C1806 H1796 0.930 . S
C1806 C1804 1.419 . S
C1806 C1807 1.362 . S
C1807 H1797 0.930 . S
C1807 C1800 1.409 . S
C1807 C1806 1.362 . S
H1808 C1814 0.930 . S
H1809 C1817 0.930 . S
H1810 C1818 0.930 . S
H1811 C1819 0.930 . S
H1812 C1822 0.930 . S
H1813 C1823 0.930 . S
C1814 H1808 0.930 . S
C1814 C1815 1.355 . S
C1814 C1816 1.415 . S
C1815 C1814 1.355 . S
C1815 C1817 1.419 . S
C1816 C1814 1.415 . S
C1816 C1821 1.425 . S
C1816 C1823 1.409 . S
C1817 H1809 0.930 . S
C1817 C1815 1.419 . S
C1817 C1818 1.362 . S
C1818 H1810 0.930 . S
C1818 C1817 1.362 . S
C1818 C1821 1.409 . S
C1819 H1811 0.930 . S
C1819 C1820 1.355 . S
C1819 C1821 1.415 . S
C1820 C1819 1.355 . S
C1820 C1822 1.419 . S
C1821 C1816 1.425 . S
C1821 C1818 1.409 . S
C1821 C1819 1.415 . S
C1822 H1812 0.930 . S
C1822 C1820 1.419 . S
C1822 C1823 1.362 . S
C1823 H1813 0.930 . S
C1823 C1816 1.409 . S
C1823 C1822 1.362 . S
H1824 C1830 0.930 . S
H1825 C1833 0.930 . S
H1826 C1834 0.930 . S
H1827 C1835 0.930 . S
H1828 C1838 0.930 . S
H1829 C1839 0.930 . S
C1830 H1824 0.930 . S
C1830 C1831 1.355 . S
C1830 C1832 1.415 . S
C1831 C1830 1.355 . S
C1831 C1833 1.419 . S
C1832 C1830 1.415 . S
C1832 C1837 1.425 . S
C1832 C1839 1.409 . S
C1833 H1825 0.930 . S
C1833 C1831 1.419 . S
C1833 C1834 1.362 . S
C1834 H1826 0.930 . S
C1834 C1833 1.362 . S
C1834 C1837 1.409 . S
C1835 H1827 0.930 . S
C1835 C1836 1.355 . S
C1835 C1837 1.415 . S
C1836 C1835 1.355 . S
C1836 C1838 1.419 . S
C1837 C1832 1.425 . S
C1837 C1834 1.409 . S
C1837 C1835 1.415 . S
C1838 H1828 0.930 . S
C1838 C1836 1.419 . S
C1838 C1839 1.362 . S
C1839 H1829 0.930 . S
C1839 C1832 1.409 . S
C1839 C1838 1.362 . S
H1840 C1846 0.930 . S
H1841 C1849 0.930 . S
H1842 C1850 0.930 . S
H1843 C1851 0.930 . S
H1844 C1854 0.930 . S
H1845 C1855 0.930 . S
C1846 H1840 0.930 . S
C1846 C1847 1.355 . S
C1846 C1848 1.415 . S
C1847 C1846 1.355 . S
C1847 C1849 1.419 . S
C1848 C1846 1.415 . S
C1848 C1853 1.425 . S
C1848 C1855 1.409 . S
C1849 H1841 0.930 . S
C1849 C1847 1.419 . S
C1849 C1850 1.362 . S
C1850 H1842 0.930 . S
C1850 C1849 1.362 . S
C1850 C1853 1.409 . S
C1851 H1843 0.930 . S
C1851 C1852 1.355 . S
C1851 C1853 1.415 . S
C1852 C1851 1.355 . S
C1852 C1854 1.419 . S
C1853 C1848 1.425 . S
C1853 C1850 1.409 . S
C1853 C1851 1.415 . S
C1854 H1844 0.930 . S
C1854 C1852 1.419 . S
C1854 C1855 1.362 . S
C1855 H1845 0.930 . S
C1855 C1848 1.409 . S
C1855 C1854 1.362 . S
H1856 C1862 0.930 . S
H1857 C1865 0.930 . S
H1858 C1866 0.930 . S
H1859 C1867 0.930 . S
H1860 C1870 0.930 . S
H1861 C1871 0.930 . S
C1862 H1856 0.930 . S
C1862 C1863 1.355 . S
C1862 C1864 1.415 . S
C1863 C1862 1.355 . S
C1863 C1865 1.419 . S
C1864 C1862 1.415 . S
C1864 C1869 1.425 . S
C1864 C1871 1.409 . S
C1865 H1857 0.930 . S
C1865 C1863 1.419 . S
C1865 C1866 1.362 . S
C1866 H1858 0.930 . S
C1866 C1865 1.362 . S
C1866 C1869 1.409 . S
C1867 H1859 0.930 . S
C1867 C1868 1.355 . S
C1867 C1869 1.415 . S
C1868 C1867 1.355 . S
C1868 C1870 1.419 . S
C1869 C1864 1.425 . S
C1869 C1866 1.409 . S
C1869 C1867 1.415 . S
C1870 H1860 0.930 . S
C1870 C1868 1.419 . S
C1870 C1871 1.362 . S
C1871 H1861 0.930 . S
C1871 C1864 1.409 . S
C1871 C1870 1.362 . S
H1872 C1878 0.930 . S
H1873 C1881 0.930 . S
H1874 C1882 0.930 . S
H1875 C1883 0.930 . S
H1876 C1886 0.930 . S
H1877 C1887 0.930 . S
C1878 H1872 0.930 . S
C1878 C1879 1.355 . S
C1878 C1880 1.415 . S
C1879 C1878 1.355 . S
C1879 C1881 1.419 . S
C1880 C1878 1.415 . S
C1880 C1885 1.425 . S
C1880 C1887 1.409 . S
C1881 H1873 0.930 . S
C1881 C1879 1.419 . S
C1881 C1882 1.362 . S
C1882 H1874 0.930 . S
C1882 C1881 1.362 . S
C1882 C1885 1.409 . S
C1883 H1875 0.930 . S
C1883 C1884 1.355 . S
C1883 C1885 1.415 . S
C1884 C1883 1.355 . S
C1884 C1886 1.419 . S
C1885 C1880 1.425 . S
C1885 C1882 1.409 . S
C1885 C1883 1.415 . S
C1886 H1876 0.930 . S
C1886 C1884 1.419 . S
C1886 C1887 1.362 . S
C1887 H1877 0.930 . S
C1887 C1880 1.409 . S
C1887 C1886 1.362 . S
H1888 C1894 0.930 . S
H1889 C1897 0.930 . S
H1890 C1898 0.930 . S
H1891 C1899 0.930 . S
H1892 C1902 0.930 . S
H1893 C1903 0.930 . S
C1894 H1888 0.930 . S
C1894 C1895 1.355 . S
C1894 C1896 1.415 . S
C1895 C1894 1.355 . S
C1895 C1897 1.419 . S
C1896 C1894 1.415 . S
C1896 C1901 1.425 . S
C1896 C1903 1.409 . S
C1897 H1889 0.930 . S
C1897 C1895 1.419 . S
C1897 C1898 1.362 . S
C1898 H1890 0.930 . S
C1898 C1897 1.362 . S
C1898 C1901 1.409 . S
C1899 H1891 0.930 . S
C1899 C1900 1.355 . S
C1899 C1901 1.415 . S
C1900 C1899 1.355 . S
C1900 C1902 1.419 . S
C1901 C1896 1.425 . S
C1901 C1898 1.409 . S
C1901 C1899 1.415 . S
C1902 H1892 0.930 . S
C1902 C1900 1.419 . S
C1902 C1903 1.362 . S
C1903 H1893 0.930 . S
C1903 C1896 1.409 . S
C1903 C1902 1.362 . S
H1904 C1910 0.930 . S
H1905 C1913 0.930 . S
H1906 C1914 0.930 . S
H1907 C1915 0.930 . S
H1908 C1918 0.930 . S
H1909 C1919 0.930 . S
C1910 H1904 0.930 . S
C1910 C1911 1.355 . S
C1910 C1912 1.415 . S
C1911 C1910 1.355 . S
C1911 C1913 1.419 . S
C1912 C1910 1.415 . S
C1912 C1917 1.425 . S
C1912 C1919 1.409 . S
C1913 H1905 0.930 . S
C1913 C1911 1.419 . S
C1913 C1914 1.362 . S
C1914 H1906 0.930 . S
C1914 C1913 1.362 . S
C1914 C1917 1.409 . S
C1915 H1907 0.930 . S
C1915 C1916 1.355 . S
C1915 C1917 1.415 . S
C1916 C1915 1.355 . S
C1916 C1918 1.419 . S
C1917 C1912 1.425 . S
C1917 C1914 1.409 . S
C1917 C1915 1.415 . S
C1918 H1908 0.930 . S
C1918 C1916 1.419 . S
C1918 C1919 1.362 . S
C1919 H1909 0.930 . S
C1919 C1912 1.409 . S
C1919 C1918 1.362 . S
H1920 C1926 0.930 . S
H1921 C1929 0.930 . S
H1922 C1930 0.930 . S
H1923 C1931 0.930 . S
H1924 C1934 0.930 . S
H1925 C1935 0.930 . S
C1926 H1920 0.930 . S
C1926 C1927 1.355 . S
C1926 C1928 1.415 . S
C1927 C1926 1.355 . S
C1927 C1929 1.419 . S
C1928 C1926 1.415 . S
C1928 C1933 1.425 . S
C1928 C1935 1.409 . S
C1929 H1921 0.930 . S
C1929 C1927 1.419 . S
C1929 C1930 1.362 . S
C1930 H1922 0.930 . S
C1930 C1929 1.362 . S
C1930 C1933 1.409 . S
C1931 H1923 0.930 . S
C1931 C1932 1.355 . S
C1931 C1933 1.415 . S
C1932 C1931 1.355 . S
C1932 C1934 1.419 . S
C1933 C1928 1.425 . S
C1933 C1930 1.409 . S
C1933 C1931 1.415 . S
C1934 H1924 0.930 . S
C1934 C1932 1.419 . S
C1934 C1935 1.362 . S
C1935 H1925 0.930 . S
C1935 C1928 1.409 . S
C1935 C1934 1.362 . S
H1936 C1942 0.930 . S
H1937 C1945 0.930 . S
H1938 C1946 0.930 . S
H1939 C1947 0.930 . S
H1940 C1950 0.930 . S
H1941 C1951 0.930 . S
C1942 H1936 0.930 . S
C1942 C1943 1.355 . S
C1942 C1944 1.415 . S
C1943 C1942 1.355 . S
C1943 C1945 1.419 . S
C1944 C1942 1.415 . S
C1944 C1949 1.425 . S
C1944 C1951 1.409 . S
C1945 H1937 0.930 . S
C1945 C1943 1.419 . S
C1945 C1946 1.362 . S
C1946 H1938 0.930 . S
C1946 C1945 1.362 . S
C1946 C1949 1.409 . S
C1947 H1939 0.930 . S
C1947 C1948 1.355 . S
C1947 C1949 1.415 . S
C1948 C1947 1.355 . S
C1948 C1950 1.419 . S
C1949 C1944 1.425 . S
C1949 C1946 1.409 . S
C1949 C1947 1.415 . S
C1950 H1940 0.930 . S
C1950 C1948 1.419 . S
C1950 C1951 1.362 . S
C1951 H1941 0.930 . S
C1951 C1944 1.409 . S
C1951 C1950 1.362 . S
H1952 C1958 0.930 . S
H1953 C1961 0.930 . S
H1954 C1962 0.930 . S
H1955 C1963 0.930 . S
H1956 C1966 0.930 . S
H1957 C1967 0.930 . S
C1958 H1952 0.930 . S
C1958 C1959 1.355 . S
C1958 C1960 1.415 . S
C1959 C1958 1.355 . S
C1959 C1961 1.419 . S
C1960 C1958 1.415 . S
C1960 C1965 1.425 . S
C1960 C1967 1.409 . S
C1961 H1953 0.930 . S
C1961 C1959 1.419 . S
C1961 C1962 1.362 . S
C1962 H1954 0.930 . S
C1962 C1961 1.362 . S
C1962 C1965 1.409 . S
C1963 H1955 0.930 . S
C1963 C1964 1.355 . S
C1963 C1965 1.415 . S
C1964 C1963 1.355 . S
C1964 C1966 1.419 . S
C1965 C1960 1.425 . S
C1965 C1962 1.409 . S
C1965 C1963 1.415 . S
C1966 H1956 0.930 . S
C1966 C1964 1.419 . S
C1966 C1967 1.362 . S
C1967 H1957 0.930 . S
C1967 C1960 1.409 . S
C1967 C1966 1.362 . S
H1968 C1974 0.930 . S
H1969 C1977 0.930 . S
H1970 C1978 0.930 . S
H1971 C1979 0.930 . S
H1972 C1982 0.930 . S
H1973 C1983 0.930 . S
C1974 H1968 0.930 . S
C1974 C1975 1.355 . S
C1974 C1976 1.415 . S
C1975 C1974 1.355 . S
C1975 C1977 1.419 . S
C1976 C1974 1.415 . S
C1976 C1981 1.425 . S
C1976 C1983 1.409 . S
C1977 H1969 0.930 . S
C1977 C1975 1.419 . S
C1977 C1978 1.362 . S
C1978 H1970 0.930 . S
C1978 C1977 1.362 . S
C1978 C1981 1.409 . S
C1979 H1971 0.930 . S
C1979 C1980 1.355 . S
C1979 C1981 1.415 . S
C1980 C1979 1.355 . S
C1980 C1982 1.419 . S
C1981 C1976 1.425 . S
C1981 C1978 1.409 . S
C1981 C1979 1.415 . S
C1982 H1972 0.930 . S
C1982 C1980 1.419 . S
C1982 C1983 1.362 . S
C1983 H1973 0.930 . S
C1983 C1976 1.409 . S
C1983 C1982 1.362 . S
H1984 C1990 0.930 . S
H1985 C1993 0.930 . S
H1986 C1994 0.930 . S
H1987 C1995 0.930 . S
H1988 C1998 0.930 . S
H1989 C1999 0.930 . S
C1990 H1984 0.930 . S
C1990 C1991 1.355 . S
C1990 C1992 1.415 . S
C1991 C1990 1.355 . S
C1991 C1993 1.419 . S
C1992 C1990 1.415 . S
C1992 C1997 1.425 . S
C1992 C1999 1.409 . S
C1993 H1985 0.930 . S
C1993 C1991 1.419 . S
C1993 C1994 1.362 . S
C1994 H1986 0.930 . S
C1994 C1993 1.362 . S
C1994 C1997 1.409 . S
C1995 H1987 0.930 . S
C1995 C1996 1.355 . S
C1995 C1997 1.415 . S
C1996 C1995 1.355 . S
C1996 C1998 1.419 . S
C1997 C1992 1.425 . S
C1997 C1994 1.409 . S
C1997 C1995 1.415 . S
C1998 H1988 0.930 . S
C1998 C1996 1.419 . S
C1998 C1999 1.362 . S
C1999 H1989 0.930 . S
C1999 C1992 1.409 . S
C1999 C1998 1.362 . S
H2000 C2006 0.930 . S
H2001 C2009 0.930 . S
H2002 C2010 0.930 . S
H2003 C2011 0.930 . S
H2004 C2014 0.930 . S
H2005 C2015 0.930 . S
C2006 H2000 0.930 . S
C2006 C2007 1.355 . S
C2006 C2008 1.415 . S
C2007 C2006 1.355 . S
C2007 C2009 1.419 . S
C2008 C2006 1.415 . S
C2008 C2013 1.425 . S
C2008 C2015 1.409 . S
C2009 H2001 0.930 . S
C2009 C2007 1.419 . S
C2009 C2010 1.362 . S
C2010 H2002 0.930 . S
C2010 C2009 1.362 . S
C2010 C2013 1.409 . S
C2011 H2003 0.930 . S
C2011 C2012 1.355 . S
C2011 C2013 1.415 . S
C2012 C2011 1.355 . S
C2012 C2014 1.419 . S
C2013 C2008 1.425 . S
C2013 C2010 1.409 . S
C2013 C2011 1.415 . S
C2014 H2004 0.930 . S
C2014 C2012 1.419 . S
C2014 C2015 1.362 . S
C2015 H2005 0.930 . S
C2015 C2008 1.409 . S
C2015 C2014 1.362 . S
H2016 C2022 0.930 . S
H2017 C2025 0.930 . S
H2018 C2026 0.930 . S
H2019 C2027 0.930 . S
H2020 C2030 0.930 . S
H2021 C2031 0.930 . S
C2022 H2016 0.930 . S
C2022 C2023 1.355 . S
C2022 C2024 1.415 . S
C2023 C2022 1.355 . S
C2023 C2025 1.419 . S
C2024 C2022 1.415 . S
C2024 C2029 1.425 . S
C2024 C2031 1.409 . S
C2025 H2017 0.930 . S
C2025 C2023 1.419 . S
C2025 C2026 1.362 . S
C2026 H2018 0.930 . S
C2026 C2025 1.362 . S
C2026 C2029 1.409 . S
C2027 H2019 0.930 . S
C2027 C2028 1.355 . S
C2027 C2029 1.415 . S
C2028 C2027 1.355 . S
C2028 C2030 1.419 . S
C2029 C2024 1.425 . S
C2029 C2026 1.409 . S
C2029 C2027 1.415 . S
C2030 H2020 0.930 . S
C2030 C2028 1.419 . S
C2030 C2031 1.362 . S
C2031 H2021 0.930 . S
C2031 C2024 1.409 . S
C2031 C2030 1.362 . S
H2032 C2038 0.930 . S
H2033 C2041 0.930 . S
H2034 C2042 0.930 . S
H2035 C2043 0.930 . S
H2036 C2046 0.930 . S
H2037 C2047 0.930 . S
C2038 H2032 0.930 . S
C2038 C2039 1.355 . S
C2038 C2040 1.415 . S
C2039 C2038 1.355 . S
C2039 C2041 1.419 . S
C2040 C2038 1.415 . S
C2040 C2045 1.425 . S
C2040 C2047 1.409 . S
C2041 H2033 0.930 . S
C2041 C2039 1.419 . S
C2041 C2042 1.362 . S
C2042 H2034 0.930 . S
C2042 C2041 1.362 . S
C2042 C2045 1.409 . S
C2043 H2035 0.930 . S
C2043 C2044 1.355 . S
C2043 C2045 1.415 . S
C2044 C2043 1.355 . S
C2044 C2046 1.419 . S
C2045 C2040 1.425 . S
C2045 C2042 1.409 . S
C2045 C2043 1.415 . S
C2046 H2036 0.930 . S
C2046 C2044 1.419 . S
C2046 C2047 1.362 . S
C2047 H2037 0.930 . S
C2047 C2040 1.409 . S
C2047 C2046 1.362 . S
H2048 C2054 0.930 . S
H2049 C2057 0.930 . S
H2050 C2058 0.930 . S
H2051 C2059 0.930 . S
H2052 C2062 0.930 . S
H2053 C2063 0.930 . S
C2054 H2048 0.930 . S
C2054 C2055 1.355 . S
C2054 C2056 1.415 . S
C2055 C2054 1.355 . S
C2055 C2057 1.419 . S
C2056 C2054 1.415 . S
C2056 C2061 1.425 . S
C2056 C2063 1.409 . S
C2057 H2049 0.930 . S
C2057 C2055 1.419 . S
C2057 C2058 1.362 . S
C2058 H2050 0.930 . S
C2058 C2057 1.362 . S
C2058 C2061 1.409 . S
C2059 H2051 0.930 . S
C2059 C2060 1.355 . S
C2059 C2061 1.415 . S
C2060 C2059 1.355 . S
C2060 C2062 1.419 . S
C2061 C2056 1.425 . S
C2061 C2058 1.409 . S
C2061 C2059 1.415 . S
C2062 H2052 0.930 . S
C2062 C2060 1.419 . S
C2062 C2063 1.362 . S
C2063 H2053 0.930 . S
C2063 C2056 1.409 . S
C2063 C2062 1.362 . S
H2064 C2070 0.930 . S
H2065 C2073 0.930 . S
H2066 C2074 0.930 . S
H2067 C2075 0.930 . S
H2068 C2078 0.930 . S
H2069 C2079 0.930 . S
C2070 H2064 0.930 . S
C2070 C2071 1.355 . S
C2070 C2072 1.415 . S
C2071 C2070 1.355 . S
C2071 C2073 1.419 . S
C2072 C2070 1.415 . S
C2072 C2077 1.425 . S
C2072 C2079 1.409 . S
C2073 H2065 0.930 . S
C2073 C2071 1.419 . S
C2073 C2074 1.362 . S
C2074 H2066 0.930 . S
C2074 C2073 1.362 . S
C2074 C2077 1.409 . S
C2075 H2067 0.930 . S
C2075 C2076 1.355 . S
C2075 C2077 1.415 . S
C2076 C2075 1.355 . S
C2076 C2078 1.419 . S
C2077 C2072 1.425 . S
C2077 C2074 1.409 . S
C2077 C2075 1.415 . S
C2078 H2068 0.930 . S
C2078 C2076 1.419 . S
C2078 C2079 1.362 . S
C2079 H2069 0.930 . S
C2079 C2072 1.409 . S
C2079 C2078 1.362 . S
H2080 C2086 0.930 . S
H2081 C2089 0.930 . S
H2082 C2090 0.930 . S
H2083 C2091 0.930 . S
H2084 C2094 0.930 . S
H2085 C2095 0.930 . S
C2086 H2080 0.930 . S
C2086 C2087 1.355 . S
C2086 C2088 1.415 . S
C2087 C2086 1.355 . S
C2087 C2089 1.419 . S
C2088 C2086 1.415 . S
C2088 C2093 1.425 . S
C2088 C2095 1.409 . S
C2089 H2081 0.930 . S
C2089 C2087 1.419 . S
C2089 C2090 1.362 . S
C2090 H2082 0.930 . S
C2090 C2089 1.362 . S
C2090 C2093 1.409 . S
C2091 H2083 0.930 . S
C2091 C2092 1.355 . S
C2091 C2093 1.415 . S
C2092 C2091 1.355 . S
C2092 C2094 1.419 . S
C2093 C2088 1.425 . S
C2093 C2090 1.409 . S
C2093 C2091 1.415 . S
C2094 H2084 0.930 . S
C2094 C2092 1.419 . S
C2094 C2095 1.362 . S
C2095 H2085 0.930 . S
C2095 C2088 1.409 . S
C2095 C2094 1.362 . S
H2096 C2102 0.930 . S
H2097 C2105 0.930 . S
H2098 C2106 0.930 . S
H2099 C2107 0.930 . S
H2100 C2110 0.930 . S
H2101 C2111 0.930 . S
C2102 H2096 0.930 . S
C2102 C2103 1.355 . S
C2102 C2104 1.415 . S
C2103 C2102 1.355 . S
C2103 C2105 1.419 . S
C2104 C2102 1.415 . S
C2104 C2109 1.425 . S
C2104 C2111 1.409 . S
C2105 H2097 0.930 . S
C2105 C2103 1.419 . S
C2105 C2106 1.362 . S
C2106 H2098 0.930 . S
C2106 C2105 1.362 . S
C2106 C2109 1.409 . S
C2107 H2099 0.930 . S
C2107 C2108 1.355 . S
C2107 C2109 1.415 . S
C2108 C2107 1.355 . S
C2108 C2110 1.419 . S
C2109 C2104 1.425 . S
C2109 C2106 1.409 . S
C2109 C2107 1.415 . S
C2110 H2100 0.930 . S
C2110 C2108 1.419 . S
C2110 C2111 1.362 . S
C2111 H2101 0.930 . S
C2111 C2104 1.409 . S
C2111 C2110 1.362 . S
H2112 C2118 0.930 . S
H2113 C2121 0.930 . S
H2114 C2122 0.930 . S
H2115 C2123 0.930 . S
H2116 C2126 0.930 . S
H2117 C2127 0.930 . S
C2118 H2112 0.930 . S
C2118 C2119 1.355 . S
C2118 C2120 1.415 . S
C2119 C2118 1.355 . S
C2119 C2121 1.419 . S
C2120 C2118 1.415 . S
C2120 C2125 1.425 . S
C2120 C2127 1.409 . S
C2121 H2113 0.930 . S
C2121 C2119 1.419 . S
C2121 C2122 1.362 . S
C2122 H2114 0.930 . S
C2122 C2121 1.362 . S
C2122 C2125 1.409 . S
C2123 H2115 0.930 . S
C2123 C2124 1.355 . S
C2123 C2125 1.415 . S
C2124 C2123 1.355 . S
C2124 C2126 1.419 . S
C2125 C2120 1.425 . S
C2125 C2122 1.409 . S
C2125 C2123 1.415 . S
C2126 H2116 0.930 . S
C2126 C2124 1.419 . S
C2126 C2127 1.362 . S
C2127 H2117 0.930 . S
C2127 C2120 1.409 . S
C2127 C2126 1.362 . S
H2128 C2134 0.930 . S
H2129 C2137 0.930 . S
H2130 C2138 0.930 . S
H2131 C2139 0.930 . S
H2132 C2142 0.930 . S
H2133 C2143 0.930 . S
C2134 H2128 0.930 . S
C2134 C2135 1.355 . S
C2134 C2136 1.415 . S
C2135 C2134 1.355 . S
C2135 C2137 1.419 . S
C2136 C2134 1.415 . S
C2136 C2141 1.425 . S
C2136 C2143 1.409 . S
C2137 H2129 0.930 . S
C2137 C2135 1.419 . S
C2137 C2138 1.362 . S
C2138 H2130 0.930 . S
C2138 C2137 1.362 . S
C2138 C2141 1.409 . S
C2139 H2131 0.930 . S
C2139 C2140 1.355 . S
C2139 C2141 1.415 . S
C2140 C2139 1.355 . S
C2140 C2142 1.419 . S
C2141 C2136 1.425 . S
C2141 C2138 1.409 . S
C2141 C2139 1.415 . S
C2142 H2132 0.930 . S
C2142 C2140 1.419 . S
C2142 C2143 1.362 . S
C2143 H2133 0.930 . S
C2143 C2136 1.409 . S
C2143 C2142 1.362 . S
H2144 C2150 0.930 . S
H2145 C2153 0.930 . S
H2146 C2154 0.930 . S
H2147 C2155 0.930 . S
H2148 C2158 0.930 . S
H2149 C2159 0.930 . S
C2150 H2144 0.930 . S
C2150 C2151 1.355 . S
C2150 C2152 1.415 . S
C2151 C2150 1.355 . S
C2151 C2153 1.419 . S
C2152 C2150 1.415 . S
C2152 C2157 1.425 . S
C2152 C2159 1.409 . S
C2153 H2145 0.930 . S
C2153 C2151 1.419 . S
C2153 C2154 1.362 . S
C2154 H2146 0.930 . S
C2154 C2153 1.362 . S
C2154 C2157 1.409 . S
C2155 H2147 0.930 . S
C2155 C2156 1.355 . S
C2155 C2157 1.415 . S
C2156 C2155 1.355 . S
C2156 C2158 1.419 . S
C2157 C2152 1.425 . S
C2157 C2154 1.409 . S
C2157 C2155 1.415 . S
C2158 H2148 0.930 . S
C2158 C2156 1.419 . S
C2158 C2159 1.362 . S
C2159 H2149 0.930 . S
C2159 C2152 1.409 . S
C2159 C2158 1.362 . S
H2160 C2166 0.930 . S
H2161 C2169 0.930 . S
H2162 C2170 0.930 . S
H2163 C2171 0.930 . S
H2164 C2174 0.930 . S
H2165 C2175 0.930 . S
C2166 H2160 0.930 . S
C2166 C2167 1.355 . S
C2166 C2168 1.415 . S
C2167 C2166 1.355 . S
C2167 C2169 1.419 . S
C2168 C2166 1.415 . S
C2168 C2173 1.425 . S
C2168 C2175 1.409 . S
C2169 H2161 0.930 . S
C2169 C2167 1.419 . S
C2169 C2170 1.362 . S
C2170 H2162 0.930 . S
C2170 C2169 1.362 . S
C2170 C2173 1.409 . S
C2171 H2163 0.930 . S
C2171 C2172 1.355 . S
C2171 C2173 1.415 . S
C2172 C2171 1.355 . S
C2172 C2174 1.419 . S
C2173 C2168 1.425 . S
C2173 C2170 1.409 . S
C2173 C2171 1.415 . S
C2174 H2164 0.930 . S
C2174 C2172 1.419 . S
C2174 C2175 1.362 . S
C2175 H2165 0.930 . S
C2175 C2168 1.409 . S
C2175 C2174 1.362 . S
H2176 C2182 0.930 . S
H2177 C2185 0.930 . S
H2178 C2186 0.930 . S
H2179 C2187 0.930 . S
H2180 C2190 0.930 . S
H2181 C2191 0.930 . S
C2182 H2176 0.930 . S
C2182 C2183 1.355 . S
C2182 C2184 1.415 . S
C2183 C2182 1.355 . S
C2183 C2185 1.419 . S
C2184 C2182 1.415 . S
C2184 C2189 1.425 . S
C2184 C2191 1.409 . S
C2185 H2177 0.930 . S
C2185 C2183 1.419 . S
C2185 C2186 1.362 . S
C2186 H2178 0.930 . S
C2186 C2185 1.362 . S
C2186 C2189 1.409 . S
C2187 H2179 0.930 . S
C2187 C2188 1.355 . S
C2187 C2189 1.415 . S
C2188 C2187 1.355 . S
C2188 C2190 1.419 . S
C2189 C2184 1.425 . S
C2189 C2186 1.409 . S
C2189 C2187 1.415 . S
C2190 H2180 0.930 . S
C2190 C2188 1.419 . S
C2190 C2191 1.362 . S
C2191 H2181 0.930 . S
C2191 C2184 1.409 . S
C2191 C2190 1.362 . S
H2192 C2198 0.930 . S
H2193 C2201 0.930 . S
H2194 C2202 0.930 . S
H2195 C2203 0.930 . S
H2196 C2206 0.930 . S
H2197 C2207 0.930 . S
C2198 H2192 0.930 . S
C2198 C2199 1.355 . S
C2198 C2200 1.415 . S
C2199 C2198 1.355 . S
C2199 C2201 1.419 . S
C2200 C2198 1.415 . S
C2200 C2205 1.425 . S
C2200 C2207 1.409 . S
C2201 H2193 0.930 . S
C2201 C2199 1.419 . S
C2201 C2202 1.362 . S
C2202 H2194 0.930 . S
C2202 C2201 1.362 . S
C2202 C2205 1.409 . S
C2203 H2195 0.930 . S
C2203 C2204 1.355 . S
C2203 C2205 1.415 . S
C2204 C2203 1.355 . S
C2204 C2206 1.419 . S
C2205 C2200 1.425 . S
C2205 C2202 1.409 . S
C2205 C2203 1.415 . S
C2206 H2196 0.930 . S
C2206 C2204 1.419 . S
C2206 C2207 1.362 . S
C2207 H2197 0.930 . S
C2207 C2200 1.409 . S
C2207 C2206 1.362 . S
H2208 C2214 0.930 . S
H2209 C2217 0.930 . S
H2210 C2218 0.930 . S
H2211 C2219 0.930 . S
H2212 C2222 0.930 . S
H2213 C2223 0.930 . S
C2214 H2208 0.930 . S
C2214 C2215 1.355 . S
C2214 C2216 1.415 . S
C2215 C2214 1.355 . S
C2215 C2217 1.419 . S
C2216 C2214 1.415 . S
C2216 C2221 1.425 . S
C2216 C2223 1.409 . S
C2217 H2209 0.930 . S
C2217 C2215 1.419 . S
C2217 C2218 1.362 . S
C2218 H2210 0.930 . S
C2218 C2217 1.362 . S
C2218 C2221 1.409 . S
C2219 H2211 0.930 . S
C2219 C2220 1.355 . S
C2219 C2221 1.415 . S
C2220 C2219 1.355 . S
C2220 C2222 1.419 . S
C2221 C2216 1.425 . S
C2221 C2218 1.409 . S
C2221 C2219 1.415 . S
C2222 H2212 0.930 . S
C2222 C2220 1.419 . S
C2222 C2223 1.362 . S
C2223 H2213 0.930 . S
C2223 C2216 1.409 . S
C2223 C2222 1.362 . S
H2224 C2230 0.930 . S
H2225 C2233 0.930 . S
H2226 C2234 0.930 . S
H2227 C2235 0.930 . S
H2228 C2238 0.930 . S
H2229 C2239 0.930 . S
C2230 H2224 0.930 . S
C2230 C2231 1.355 . S
C2230 C2232 1.415 . S
C2231 C2230 1.355 . S
C2231 C2233 1.419 . S
C2232 C2230 1.415 . S
C2232 C2237 1.425 . S
C2232 C2239 1.409 . S
C2233 H2225 0.930 . S
C2233 C2231 1.419 . S
C2233 C2234 1.362 . S
C2234 H2226 0.930 . S
C2234 C2233 1.362 . S
C2234 C2237 1.409 . S
C2235 H2227 0.930 . S
C2235 C2236 1.355 . S
C2235 C2237 1.415 . S
C2236 C2235 1.355 . S
C2236 C2238 1.419 . S
C2237 C2232 1.425 . S
C2237 C2234 1.409 . S
C2237 C2235 1.415 . S
C2238 H2228 0.930 . S
C2238 C2236 1.419 . S
C2238 C2239 1.362 . S
C2239 H2229 0.930 . S
C2239 C2232 1.409 . S
C2239 C2238 1.362 . S
H2240 C2246 0.930 . S
H2241 C2249 0.930 . S
H2242 C2250 0.930 . S
H2243 C2251 0.930 . S
H2244 C2254 0.930 . S
H2245 C2255 0.930 . S
C2246 H2240 0.930 . S
C2246 C2247 1.355 . S
C2246 C2248 1.415 . S
C2247 C2246 1.355 . S
C2247 C2249 1.419 . S
C2248 C2246 1.415 . S
C2248 C2253 1.425 . S
C2248 C2255 1.409 . S
C2249 H2241 0.930 . S
C2249 C2247 1.419 . S
C2249 C2250 1.362 . S
C2250 H2242 0.930 . S
C2250 C2249 1.362 . S
C2250 C2253 1.409 . S
C2251 H2243 0.930 . S
C2251 C2252 1.355 . S
C2251 C2253 1.415 . S
C2252 C2251 1.355 . S
C2252 C2254 1.419 . S
C2253 C2248 1.425 . S
C2253 C2250 1.409 . S
C2253 C2251 1.415 . S
C2254 H2244 0.930 . S
C2254 C2252 1.419 . S
C2254 C2255 1.362 . S
C2255 H2245 0.930 . S
C2255 C2248 1.409 . S
C2255 C2254 1.362 . S
H2256 C2262 0.930 . S
H2257 C2265 0.930 . S
H2258 C2266 0.930 . S
H2259 C2267 0.930 . S
H2260 C2270 0.930 . S
H2261 C2271 0.930 . S
C2262 H2256 0.930 . S
C2262 C2263 1.355 . S
C2262 C2264 1.415 . S
C2263 C2262 1.355 . S
C2263 C2265 1.419 . S
C2264 C2262 1.415 . S
C2264 C2269 1.425 . S
C2264 C2271 1.409 . S
C2265 H2257 0.930 . S
C2265 C2263 1.419 . S
C2265 C2266 1.362 . S
C2266 H2258 0.930 . S
C2266 C2265 1.362 . S
C2266 C2269 1.409 . S
C2267 H2259 0.930 . S
C2267 C2268 1.355 . S
C2267 C2269 1.415 . S
C2268 C2267 1.355 . S
C2268 C2270 1.419 . S
C2269 C2264 1.425 . S
C2269 C2266 1.409 . S
C2269 C2267 1.415 . S
C2270 H2260 0.930 . S
C2270 C2268 1.419 . S
C2270 C2271 1.362 . S
C2271 H2261 0.930 . S
C2271 C2264 1.409 . S
C2271 C2270 1.362 . S
H2272 C2278 0.930 . S
H2273 C2281 0.930 . S
H2274 C2282 0.930 . S
H2275 C2283 0.930 . S
H2276 C2286 0.930 . S
H2277 C2287 0.930 . S
C2278 H2272 0.930 . S
C2278 C2279 1.355 . S
C2278 C2280 1.415 . S
C2279 C2278 1.355 . S
C2279 C2281 1.419 . S
C2280 C2278 1.415 . S
C2280 C2285 1.425 . S
C2280 C2287 1.409 . S
C2281 H2273 0.930 . S
C2281 C2279 1.419 . S
C2281 C2282 1.362 . S
C2282 H2274 0.930 . S
C2282 C2281 1.362 . S
C2282 C2285 1.409 . S
C2283 H2275 0.930 . S
C2283 C2284 1.355 . S
C2283 C2285 1.415 . S
C2284 C2283 1.355 . S
C2284 C2286 1.419 . S
C2285 C2280 1.425 . S
C2285 C2282 1.409 . S
C2285 C2283 1.415 . S
C2286 H2276 0.930 . S
C2286 C2284 1.419 . S
C2286 C2287 1.362 . S
C2287 H2277 0.930 . S
C2287 C2280 1.409 . S
C2287 C2286 1.362 . S
H2288 C2294 0.930 . S
H2289 C2297 0.930 . S
H2290 C2298 0.930 . S
H2291 C2299 0.930 . S
H2292 C2302 0.930 . S
H2293 C2303 0.930 . S
C2294 H2288 0.930 . S
C2294 C2295 1.355 . S
C2294 C2296 1.415 . S
C2295 C2294 1.355 . S
C2295 C2297 1.419 . S
C2296 C2294 1.415 . S
C2296 C2301 1.425 . S
C2296 C2303 1.409 . S
C2297 H2289 0.930 . S
C2297 C2295 1.419 . S
C2297 C2298 1.362 . S
C2298 H2290 0.930 . S
C2298 C2297 1.362 . S
C2298 C2301 1.409 . S
C2299 H2291 0.930 . S
C2299 C2300 1.355 . S
C2299 C2301 1.415 . S
C2300 C2299 1.355 . S
C2300 C2302 1.419 . S
C2301 C2296 1.425 . S
C2301 C2298 1.409 . S
C2301 C2299 1.415 . S
C2302 H2292 0.930 . S
C2302 C2300 1.419 . S
C2302 C2303 1.362 . S
C2303 H2293 0.930 . S
C2303 C2296 1.409 . S
C2303 C2302 1.362 . S
H2304 C2310 0.930 . S
H2305 C2313 0.930 . S
H2306 C2314 0.930 . S
H2307 C2315 0.930 . S
H2308 C2318 0.930 . S
H2309 C2319 0.930 . S
C2310 H2304 0.930 . S
C2310 C2311 1.355 . S
C2310 C2312 1.415 . S
C2311 C2310 1.355 . S
C2311 C2313 1.419 . S
C2312 C2310 1.415 . S
C2312 C2317 1.425 . S
C2312 C2319 1.409 . S
C2313 H2305 0.930 . S
C2313 C2311 1.419 . S
C2313 C2314 1.362 . S
C2314 H2306 0.930 . S
C2314 C2313 1.362 . S
C2314 C2317 1.409 . S
C2315 H2307 0.930 . S
C2315 C2316 1.355 . S
C2315 C2317 1.415 . S
C2316 C2315 1.355 . S
C2316 C2318 1.419 . S
C2317 C2312 1.425 . S
C2317 C2314 1.409 . S
C2317 C2315 1.415 . S
C2318 H2308 0.930 . S
C2318 C2316 1.419 . S
C2318 C2319 1.362 . S
C2319 H2309 0.930 . S
C2319 C2312 1.409 . S
C2319 C2318 1.362 . S
H2320 C2326 0.930 . S
H2321 C2329 0.930 . S
H2322 C2330 0.930 . S
H2323 C2331 0.930 . S
H2324 C2334 0.930 . S
H2325 C2335 0.930 . S
C2326 H2320 0.930 . S
C2326 C2327 1.355 . S
C2326 C2328 1.415 . S
C2327 C2326 1.355 . S
C2327 C2329 1.419 . S
C2328 C2326 1.415 . S
C2328 C2333 1.425 . S
C2328 C2335 1.409 . S
C2329 H2321 0.930 . S
C2329 C2327 1.419 . S
C2329 C2330 1.362 . S
C2330 H2322 0.930 . S
C2330 C2329 1.362 . S
C2330 C2333 1.409 . S
C2331 H2323 0.930 . S
C2331 C2332 1.355 . S
C2331 C2333 1.415 . S
C2332 C2331 1.355 . S
C2332 C2334 1.419 . S
C2333 C2328 1.425 . S
C2333 C2330 1.409 . S
C2333 C2331 1.415 . S
C2334 H2324 0.930 . S
C2334 C2332 1.419 . S
C2334 C2335 1.362 . S
C2335 H2325 0.930 . S
C2335 C2328 1.409 . S
C2335 C2334 1.362 . S
H2336 C2342 0.930 . S
H2337 C2345 0.930 . S
H2338 C2346 0.930 . S
H2339 C2347 0.930 . S
H2340 C2350 0.930 . S
H2341 C2351 0.930 . S
C2342 H2336 0.930 . S
C2342 C2343 1.355 . S
C2342 C2344 1.415 . S
C2343 C2342 1.355 . S
C2343 C2345 1.419 . S
C2344 C2342 1.415 . S
C2344 C2349 1.425 . S
C2344 C2351 1.409 . S
C2345 H2337 0.930 . S
C2345 C2343 1.419 . S
C2345 C2346 1.362 . S
C2346 H2338 0.930 . S
C2346 C2345 1.362 . S
C2346 C2349 1.409 . S
C2347 H2339 0.930 . S
C2347 C2348 1.355 . S
C2347 C2349 1.415 . S
C2348 C2347 1.355 . S
C2348 C2350 1.419 . S
C2349 C2344 1.425 . S
C2349 C2346 1.409 . S
C2349 C2347 1.415 . S
C2350 H2340 0.930 . S
C2350 C2348 1.419 . S
C2350 C2351 1.362 . S
C2351 H2341 0.930 . S
C2351 C2344 1.409 . S
C2351 C2350 1.362 . S
H2352 C2358 0.930 . S
H2353 C2361 0.930 . S
H2354 C2362 0.930 . S
H2355 C2363 0.930 . S
H2356 C2366 0.930 . S
H2357 C2367 0.930 . S
C2358 H2352 0.930 . S
C2358 C2359 1.355 . S
C2358 C2360 1.415 . S
C2359 C2358 1.355 . S
C2359 C2361 1.419 . S
C2360 C2358 1.415 . S
C2360 C2365 1.425 . S
C2360 C2367 1.409 . S
C2361 H2353 0.930 . S
C2361 C2359 1.419 . S
C2361 C2362 1.362 . S
C2362 H2354 0.930 . S
C2362 C2361 1.362 . S
C2362 C2365 1.409 . S
C2363 H2355 0.930 . S
C2363 C2364 1.355 . S
C2363 C2365 1.415 . S
C2364 C2363 1.355 . S
C2364 C2366 1.419 . S
C2365 C2360 1.425 . S
C2365 C2362 1.409 . S
C2365 C2363 1.415 . S
C2366 H2356 0.930 . S
C2366 C2364 1.419 . S
C2366 C2367 1.362 . S
C2367 H2357 0.930 . S
C2367 C2360 1.409 . S
C2367 C2366 1.362 . S
H2368 C2374 0.930 . S
H2369 C2377 0.930 . S
H2370 C2378 0.930 . S
H2371 C2379 0.930 . S
H2372 C2382 0.930 . S
H2373 C2383 0.930 . S
C2374 H2368 0.930 . S
C2374 C2375 1.355 . S
C2374 C2376 1.415 . S
C2375 C2374 1.355 . S
C2375 C2377 1.419 . S
C2376 C2374 1.415 . S
C2376 C2381 1.425 . S
C2376 C2383 1.409 . S
C2377 H2369 0.930 . S
C2377 C2375 1.419 . S
C2377 C2378 1.362 . S
C2378 H2370 0.930 . S
C2378 C2377 1.362 . S
C2378 C2381 1.409 . S
C2379 H2371 0.930 . S
C2379 C2380 1.355 . S
C2379 C2381 1.415 . S
C2380 C2379 1.355 . S
C2380 C2382 1.419 . S
C2381 C2376 1.425 . S
C2381 C2378 1.409 . S
C2381 C2379 1.415 . S
C2382 H2372 0.930 . S
C2382 C2380 1.419 . S
C2382 C2383 1.362 . S
C2383 H2373 0.930 . S
C2383 C2376 1.409 . S
C2383 C2382 1.362 . S
H2384 C2390 0.930 . S
H2385 C2393 0.930 . S
H2386 C2394 0.930 . S
H2387 C2395 0.930 . S
H2388 C2398 0.930 . S
H2389 C2399 0.930 . S
C2390 H2384 0.930 . S
C2390 C2391 1.355 . S
C2390 C2392 1.415 . S
C2391 C2390 1.355 . S
C2391 C2393 1.419 . S
C2392 C2390 1.415 . S
C2392 C2397 1.425 . S
C2392 C2399 1.409 . S
C2393 H2385 0.930 . S
C2393 C2391 1.419 . S
C2393 C2394 1.362 . S
C2394 H2386 0.930 . S
C2394 C2393 1.362 . S
C2394 C2397 1.409 . S
C2395 H2387 0.930 . S
C2395 C2396 1.355 . S
C2395 C2397 1.415 . S
C2396 C2395 1.355 . S
C2396 C2398 1.419 . S
C2397 C2392 1.425 . S
C2397 C2394 1.409 . S
C2397 C2395 1.415 . S
C2398 H2388 0.930 . S
C2398 C2396 1.419 . S
C2398 C2399 1.362 . S
C2399 H2389 0.930 . S
C2399 C2392 1.409 . S
C2399 C2398 1.362 . S
H2400 C2406 0.930 . S
H2401 C2409 0.930 . S
H2402 C2410 0.930 . S
H2403 C2411 0.930 . S
H2404 C2414 0.930 . S
H2405 C2415 0.930 . S
C2406 H2400 0.930 . S
C2406 C2407 1.355 . S
C2406 C2408 1.415 . S
C2407 C2406 1.355 . S
C2407 C2409 1.419 . S
C2408 C2406 1.415 . S
C2408 C2413 1.425 . S
C2408 C2415 1.409 . S
C2409 H2401 0.930 . S
C2409 C2407 1.419 . S
C2409 C2410 1.362 . S
C2410 H2402 0.930 . S
C2410 C2409 1.362 . S
C2410 C2413 1.409 . S
C2411 H2403 0.930 . S
C2411 C2412 1.355 . S
C2411 C2413 1.415 . S
C2412 C2411 1.355 . S
C2412 C2414 1.419 . S
C2413 C2408 1.425 . S
C2413 C2410 1.409 . S
C2413 C2411 1.415 . S
C2414 H2404 0.930 . S
C2414 C2412 1.419 . S
C2414 C2415 1.362 . S
C2415 H2405 0.930 . S
C2415 C2408 1.409 . S
C2415 C2414 1.362 . S
H2416 C2422 0.930 . S
H2417 C2425 0.930 . S
H2418 C2426 0.930 . S
H2419 C2427 0.930 . S
H2420 C2430 0.930 . S
H2421 C2431 0.930 . S
C2422 H2416 0.930 . S
C2422 C2423 1.355 . S
C2422 C2424 1.415 . S
C2423 C2422 1.355 . S
C2423 C2425 1.419 . S
C2424 C2422 1.415 . S
C2424 C2429 1.425 . S
C2424 C2431 1.409 . S
C2425 H2417 0.930 . S
C2425 C2423 1.419 . S
C2425 C2426 1.362 . S
C2426 H2418 0.930 . S
C2426 C2425 1.362 . S
C2426 C2429 1.409 . S
C2427 H2419 0.930 . S
C2427 C2428 1.355 . S
C2427 C2429 1.415 . S
C2428 C2427 1.355 . S
C2428 C2430 1.419 . S
C2429 C2424 1.425 . S
C2429 C2426 1.409 . S
C2429 C2427 1.415 . S
C2430 H2420 0.930 . S
C2430 C2428 1.419 . S
C2430 C2431 1.362 . S
C2431 H2421 0.930 . S
C2431 C2424 1.409 . S
C2431 C2430 1.362 . S
H2432 C2438 0.930 . S
H2433 C2441 0.930 . S
H2434 C2442 0.930 . S
H2435 C2443 0.930 . S
H2436 C2446 0.930 . S
H2437 C2447 0.930 . S
C2438 H2432 0.930 . S
C2438 C2439 1.355 . S
C2438 C2440 1.415 . S
C2439 C2438 1.355 . S
C2439 C2441 1.419 . S
C2440 C2438 1.415 . S
C2440 C2445 1.425 . S
C2440 C2447 1.409 . S
C2441 H2433 0.930 . S
C2441 C2439 1.419 . S
C2441 C2442 1.362 . S
C2442 H2434 0.930 . S
C2442 C2441 1.362 . S
C2442 C2445 1.409 . S
C2443 H2435 0.930 . S
C2443 C2444 1.355 . S
C2443 C2445 1.415 . S
C2444 C2443 1.355 . S
C2444 C2446 1.419 . S
C2445 C2440 1.425 . S
C2445 C2442 1.409 . S
C2445 C2443 1.415 . S
C2446 H2436 0.930 . S
C2446 C2444 1.419 . S
C2446 C2447 1.362 . S
C2447 H2437 0.930 . S
C2447 C2440 1.409 . S
C2447 C2446 1.362 . S
H2448 C2454 0.930 . S
H2449 C2457 0.930 . S
H2450 C2458 0.930 . S
H2451 C2459 0.930 . S
H2452 C2462 0.930 . S
H2453 C2463 0.930 . S
C2454 H2448 0.930 . S
C2454 C2455 1.355 . S
C2454 C2456 1.415 . S
C2455 C2454 1.355 . S
C2455 C2457 1.419 . S
C2456 C2454 1.415 . S
C2456 C2461 1.425 . S
C2456 C2463 1.409 . S
C2457 H2449 0.930 . S
C2457 C2455 1.419 . S
C2457 C2458 1.362 . S
C2458 H2450 0.930 . S
C2458 C2457 1.362 . S
C2458 C2461 1.409 . S
C2459 H2451 0.930 . S
C2459 C2460 1.355 . S
C2459 C2461 1.415 . S
C2460 C2459 1.355 . S
C2460 C2462 1.419 . S
C2461 C2456 1.425 . S
C2461 C2458 1.409 . S
C2461 C2459 1.415 . S
C2462 H2452 0.930 . S
C2462 C2460 1.419 . S
C2462 C2463 1.362 . S
C2463 H2453 0.930 . S
C2463 C2456 1.409 . S
C2463 C2462 1.362 . S
H2464 C2470 0.930 . S
H2465 C2473 0.930 . S
H2466 C2474 0.930 . S
H2467 C2475 0.930 . S
H2468 C2478 0.930 . S
H2469 C2479 0.930 . S
C2470 H2464 0.930 . S
C2470 C2471 1.355 . S
C2470 C2472 1.415 . S
C2471 C2470 1.355 . S
C2471 C2473 1.419 . S
C2472 C2470 1.415 . S
C2472 C2477 1.425 . S
C2472 C2479 1.409 . S
C2473 H2465 0.930 . S
C2473 C2471 1.419 . S
C2473 C2474 1.362 . S
C2474 H2466 0.930 . S
C2474 C2473 1.362 . S
C2474 C2477 1.409 . S
C2475 H2467 0.930 . S
C2475 C2476 1.355 . S
C2475 C2477 1.415 . S
C2476 C2475 1.355 . S
C2476 C2478 1.419 . S
C2477 C2472 1.425 . S
C2477 C2474 1.409 . S
C2477 C2475 1.415 . S
C2478 H2468 0.930 . S
C2478 C2476 1.419 . S
C2478 C2479 1.362 . S
C2479 H2469 0.930 . S
C2479 C2472 1.409 . S
C2479 C2478 1.362 . S
H2480 C2486 0.930 . S
H2481 C2489 0.930 . S
H2482 C2490 0.930 . S
H2483 C2491 0.930 . S
H2484 C2494 0.930 . S
H2485 C2495 0.930 . S
C2486 H2480 0.930 . S
C2486 C2487 1.355 . S
C2486 C2488 1.415 . S
C2487 C2486 1.355 . S
C2487 C2489 1.419 . S
C2488 C2486 1.415 . S
C2488 C2493 1.425 . S
C2488 C2495 1.409 . S
C2489 H2481 0.930 . S
C2489 C2487 1.419 . S
C2489 C2490 1.362 . S
C2490 H2482 0.930 . S
C2490 C2489 1.362 . S
C2490 C2493 1.409 . S
C2491 H2483 0.930 . S
C2491 C2492 1.355 . S
C2491 C2493 1.415 . S
C2492 C2491 1.355 . S
C2492 C2494 1.419 . S
C2493 C2488 1.425 . S
C2493 C2490 1.409 . S
C2493 C2491 1.415 . S
C2494 H2484 0.930 . S
C2494 C2492 1.419 . S
C2494 C2495 1.362 . S
C2495 H2485 0.930 . S
C2495 C2488 1.409 . S
C2495 C2494 1.362 . S
H2496 C2502 0.930 . S
H2497 C2505 0.930 . S
H2498 C2506 0.930 . S
H2499 C2507 0.930 . S
H2500 C2510 0.930 . S
H2501 C2511 0.930 . S
C2502 H2496 0.930 . S
C2502 C2503 1.355 . S
C2502 C2504 1.415 . S
C2503 C2502 1.355 . S
C2503 C2505 1.419 . S
C2504 C2502 1.415 . S
C2504 C2509 1.425 . S
C2504 C2511 1.409 . S
C2505 H2497 0.930 . S
C2505 C2503 1.419 . S
C2505 C2506 1.362 . S
C2506 H2498 0.930 . S
C2506 C2505 1.362 . S
C2506 C2509 1.409 . S
C2507 H2499 0.930 . S
C2507 C2508 1.355 . S
C2507 C2509 1.415 . S
C2508 C2507 1.355 . S
C2508 C2510 1.419 . S
C2509 C2504 1.425 . S
C2509 C2506 1.409 . S
C2509 C2507 1.415 . S
C2510 H2500 0.930 . S
C2510 C2508 1.419 . S
C2510 C2511 1.362 . S
C2511 H2501 0.930 . S
C2511 C2504 1.409 . S
C2511 C2510 1.362 . S
H2512 C2518 0.930 . S
H2513 C2521 0.930 . S
H2514 C2522 0.930 . S
H2515 C2523 0.930 . S
H2516 C2526 0.930 . S
H2517 C2527 0.930 . S
C2518 H2512 0.930 . S
C2518 C2519 1.355 . S
C2518 C2520 1.415 . S
C2519 C2518 1.355 . S
C2519 C2521 1.419 . S
C2520 C2518 1.415 . S
C2520 C2525 1.425 . S
C2520 C2527 1.409 . S
C2521 H2513 0.930 . S
C2521 C2519 1.419 . S
C2521 C2522 1.362 . S
C2522 H2514 0.930 . S
C2522 C2521 1.362 . S
C2522 C2525 1.409 . S
C2523 H2515 0.930 . S
C2523 C2524 1.355 . S
C2523 C2525 1.415 . S
C2524 C2523 1.355 . S
C2524 C2526 1.419 . S
C2525 C2520 1.425 . S
C2525 C2522 1.409 . S
C2525 C2523 1.415 . S
C2526 H2516 0.930 . S
C2526 C2524 1.419 . S
C2526 C2527 1.362 . S
C2527 H2517 0.930 . S
C2527 C2520 1.409 . S
C2527 C2526 1.362 . S
H2528 C2534 0.930 . S
H2529 C2537 0.930 . S
H2530 C2538 0.930 . S
H2531 C2539 0.930 . S
H2532 C2542 0.930 . S
H2533 C2543 0.930 . S
C2534 H2528 0.930 . S
C2534 C2535 1.355 . S
C2534 C2536 1.415 . S
C2535 C2534 1.355 . S
C2535 C2537 1.419 . S
C2536 C2534 1.415 . S
C2536 C2541 1.425 . S
C2536 C2543 1.409 . S
C2537 H2529 0.930 . S
C2537 C2535 1.419 . S
C2537 C2538 1.362 . S
C2538 H2530 0.930 . S
C2538 C2537 1.362 . S
C2538 C2541 1.409 . S
C2539 H2531 0.930 . S
C2539 C2540 1.355 . S
C2539 C2541 1.415 . S
C2540 C2539 1.355 . S
C2540 C2542 1.419 . S
C2541 C2536 1.425 . S
C2541 C2538 1.409 . S
C2541 C2539 1.415 . S
C2542 H2532 0.930 . S
C2542 C2540 1.419 . S
C2542 C2543 1.362 . S
C2543 H2533 0.930 . S
C2543 C2536 1.409 . S
C2543 C2542 1.362 . S
H2544 C2550 0.930 . S
H2545 C2553 0.930 . S
H2546 C2554 0.930 . S
H2547 C2555 0.930 . S
H2548 C2558 0.930 . S
H2549 C2559 0.930 . S
C2550 H2544 0.930 . S
C2550 C2551 1.355 . S
C2550 C2552 1.415 . S
C2551 C2550 1.355 . S
C2551 C2553 1.419 . S
C2552 C2550 1.415 . S
C2552 C2557 1.425 . S
C2552 C2559 1.409 . S
C2553 H2545 0.930 . S
C2553 C2551 1.419 . S
C2553 C2554 1.362 . S
C2554 H2546 0.930 . S
C2554 C2553 1.362 . S
C2554 C2557 1.409 . S
C2555 H2547 0.930 . S
C2555 C2556 1.355 . S
C2555 C2557 1.415 . S
C2556 C2555 1.355 . S
C2556 C2558 1.419 . S
C2557 C2552 1.425 . S
C2557 C2554 1.409 . S
C2557 C2555 1.415 . S
C2558 H2548 0.930 . S
C2558 C2556 1.419 . S
C2558 C2559 1.362 . S
C2559 H2549 0.930 . S
C2559 C2552 1.409 . S
C2559 C2558 1.362 . S
H2560 C2566 0.930 . S
H2561 C2569 0.930 . S
H2562 C2570 0.930 . S
H2563 C2571 0.930 . S
H2564 C2574 0.930 . S
H2565 C2575 0.930 . S
C2566 H2560 0.930 . S
C2566 C2567 1.355 . S
C2566 C2568 1.415 . S
C2567 C2566 1.355 . S
C2567 C2569 1.419 . S
C2568 C2566 1.415 . S
C2568 C2573 1.425 . S
C2568 C2575 1.409 . S
C2569 H2561 0.930 . S
C2569 C2567 1.419 . S
C2569 C2570 1.362 . S
C2570 H2562 0.930 . S
C2570 C2569 1.362 . S
C2570 C2573 1.409 . S
C2571 H2563 0.930 . S
C2571 C2572 1.355 . S
C2571 C2573 1.415 . S
C2572 C2571 1.355 . S
C2572 C2574 1.419 . S
C2573 C2568 1.425 . S
C2573 C2570 1.409 . S
C2573 C2571 1.415 . S
C2574 H2564 0.930 . S
C2574 C2572 1.419 . S
C2574 C2575 1.362 . S
C2575 H2565 0.930 . S
C2575 C2568 1.409 . S
C2575 C2574 1.362 . S
H2576 C2582 0.930 . S
H2577 C2585 0.930 . S
H2578 C2586 0.930 . S
H2579 C2587 0.930 . S
H2580 C2590 0.930 . S
H2581 C2591 0.930 . S
C2582 H2576 0.930 . S
C2582 C2583 1.355 . S
C2582 C2584 1.415 . S
C2583 C2582 1.355 . S
C2583 C2585 1.419 . S
C2584 C2582 1.415 . S
C2584 C2589 1.425 . S
C2584 C2591 1.409 . S
C2585 H2577 0.930 . S
C2585 C2583 1.419 . S
C2585 C2586 1.362 . S
C2586 H2578 0.930 . S
C2586 C2585 1.362 . S
C2586 C2589 1.409 . S
C2587 H2579 0.930 . S
C2587 C2588 1.355 . S
C2587 C2589 1.415 . S
C2588 C2587 1.355 . S
C2588 C2590 1.419 . S
C2589 C2584 1.425 . S
C2589 C2586 1.409 . S
C2589 C2587 1.415 . S
C2590 H2580 0.930 . S
C2590 C2588 1.419 . S
C2590 C2591 1.362 . S
C2591 H2581 0.930 . S
C2591 C2584 1.409 . S
C2591 C2590 1.362 . S
H2592 C2598 0.930 . S
H2593 C2601 0.930 . S
H2594 C2602 0.930 . S
H2595 C2603 0.930 . S
H2596 C2606 0.930 . S
H2597 C2607 0.930 . S
C2598 H2592 0.930 . S
C2598 C2599 1.355 . S
C2598 C2600 1.415 . S
C2599 C2598 1.355 . S
C2599 C2601 1.419 . S
C2600 C2598 1.415 . S
C2600 C2605 1.425 . S
C2600 C2607 1.409 . S
C2601 H2593 0.930 . S
C2601 C2599 1.419 . S
C2601 C2602 1.362 . S
C2602 H2594 0.930 . S
C2602 C2601 1.362 . S
C2602 C2605 1.409 . S
C2603 H2595 0.930 . S
C2603 C2604 1.355 . S
C2603 C2605 1.415 . S
C2604 C2603 1.355 . S
C2604 C2606 1.419 . S
C2605 C2600 1.425 . S
C2605 C2602 1.409 . S
C2605 C2603 1.415 . S
C2606 H2596 0.930 . S
C2606 C2604 1.419 . S
C2606 C2607 1.362 . S
C2607 H2597 0.930 . S
C2607 C2600 1.409 . S
C2607 C2606 1.362 . S
H2608 C2614 0.930 . S
H2609 C2617 0.930 . S
H2610 C2618 0.930 . S
H2611 C2619 0.930 . S
H2612 C2622 0.930 . S
H2613 C2623 0.930 . S
C2614 H2608 0.930 . S
C2614 C2615 1.355 . S
C2614 C2616 1.415 . S
C2615 C2614 1.355 . S
C2615 C2617 1.419 . S
C2616 C2614 1.415 . S
C2616 C2621 1.425 . S
C2616 C2623 1.409 . S
C2617 H2609 0.930 . S
C2617 C2615 1.419 . S
C2617 C2618 1.362 . S
C2618 H2610 0.930 . S
C2618 C2617 1.362 . S
C2618 C2621 1.409 . S
C2619 H2611 0.930 . S
C2619 C2620 1.355 . S
C2619 C2621 1.415 . S
C2620 C2619 1.355 . S
C2620 C2622 1.419 . S
C2621 C2616 1.425 . S
C2621 C2618 1.409 . S
C2621 C2619 1.415 . S
C2622 H2612 0.930 . S
C2622 C2620 1.419 . S
C2622 C2623 1.362 . S
C2623 H2613 0.930 . S
C2623 C2616 1.409 . S
C2623 C2622 1.362 . S
H2624 C2630 0.930 . S
H2625 C2633 0.930 . S
H2626 C2634 0.930 . S
H2627 C2635 0.930 . S
H2628 C2638 0.930 . S
H2629 C2639 0.930 . S
C2630 H2624 0.930 . S
C2630 C2631 1.355 . S
C2630 C2632 1.415 . S
C2631 C2630 1.355 . S
C2631 C2633 1.419 . S
C2632 C2630 1.415 . S
C2632 C2637 1.425 . S
C2632 C2639 1.409 . S
C2633 H2625 0.930 . S
C2633 C2631 1.419 . S
C2633 C2634 1.362 . S
C2634 H2626 0.930 . S
C2634 C2633 1.362 . S
C2634 C2637 1.409 . S
C2635 H2627 0.930 . S
C2635 C2636 1.355 . S
C2635 C2637 1.415 . S
C2636 C2635 1.355 . S
C2636 C2638 1.419 . S
C2637 C2632 1.425 . S
C2637 C2634 1.409 . S
C2637 C2635 1.415 . S
C2638 H2628 0.930 . S
C2638 C2636 1.419 . S
C2638 C2639 1.362 . S
C2639 H2629 0.930 . S
C2639 C2632 1.409 . S
C2639 C2638 1.362 . S
H2640 C2646 0.930 . S
H2641 C2649 0.930 . S
H2642 C2650 0.930 . S
H2643 C2651 0.930 . S
H2644 C2654 0.930 . S
H2645 C2655 0.930 . S
C2646 H2640 0.930 . S
C2646 C2647 1.355 . S
C2646 C2648 1.415 . S
C2647 C2646 1.355 . S
C2647 C2649 1.419 . S
C2648 C2646 1.415 . S
C2648 C2653 1.425 . S
C2648 C2655 1.409 . S
C2649 H2641 0.930 . S
C2649 C2647 1.419 . S
C2649 C2650 1.362 . S
C2650 H2642 0.930 . S
C2650 C2649 1.362 . S
C2650 C2653 1.409 . S
C2651 H2643 0.930 . S
C2651 C2652 1.355 . S
C2651 C2653 1.415 . S
C2652 C2651 1.355 . S
C2652 C2654 1.419 . S
C2653 C2648 1.425 . S
C2653 C2650 1.409 . S
C2653 C2651 1.415 . S
C2654 H2644 0.930 . S
C2654 C2652 1.419 . S
C2654 C2655 1.362 . S
C2655 H2645 0.930 . S
C2655 C2648 1.409 . S
C2655 C2654 1.362 . S
H2656 C2662 0.930 . S
H2657 C2665 0.930 . S
H2658 C2666 0.930 . S
H2659 C2667 0.930 . S
H2660 C2670 0.930 . S
H2661 C2671 0.930 . S
C2662 H2656 0.930 . S
C2662 C2663 1.355 . S
C2662 C2664 1.415 . S
C2663 C2662 1.355 . S
C2663 C2665 1.419 . S
C2664 C2662 1.415 . S
C2664 C2669 1.425 . S
C2664 C2671 1.409 . S
C2665 H2657 0.930 . S
C2665 C2663 1.419 . S
C2665 C2666 1.362 . S
C2666 H2658 0.930 . S
C2666 C2665 1.362 . S
C2666 C2669 1.409 . S
C2667 H2659 0.930 . S
C2667 C2668 1.355 . S
C2667 C2669 1.415 . S
C2668 C2667 1.355 . S
C2668 C2670 1.419 . S
C2669 C2664 1.425 . S
C2669 C2666 1.409 . S
C2669 C2667 1.415 . S
C2670 H2660 0.930 . S
C2670 C2668 1.419 . S
C2670 C2671 1.362 . S
C2671 H2661 0.930 . S
C2671 C2664 1.409 . S
C2671 C2670 1.362 . S
H2672 C2678 0.930 . S
H2673 C2681 0.930 . S
H2674 C2682 0.930 . S
H2675 C2683 0.930 . S
H2676 C2686 0.930 . S
H2677 C2687 0.930 . S
C2678 H2672 0.930 . S
C2678 C2679 1.355 . S
C2678 C2680 1.415 . S
C2679 C2678 1.355 . S
C2679 C2681 1.419 . S
C2680 C2678 1.415 . S
C2680 C2685 1.425 . S
C2680 C2687 1.409 . S
C2681 H2673 0.930 . S
C2681 C2679 1.419 . S
C2681 C2682 1.362 . S
C2682 H2674 0.930 . S
C2682 C2681 1.362 . S
C2682 C2685 1.409 . S
C2683 H2675 0.930 . S
C2683 C2684 1.355 . S
C2683 C2685 1.415 . S
C2684 C2683 1.355 . S
C2684 C2686 1.419 . S
C2685 C2680 1.425 . S
C2685 C2682 1.409 . S
C2685 C2683 1.415 . S
C2686 H2676 0.930 . S
C2686 C2684 1.419 . S
C2686 C2687 1.362 . S
C2687 H2677 0.930 . S
C2687 C2680 1.409 . S
C2687 C2686 1.362 . S
H2688 C2694 0.930 . S
H2689 C2697 0.930 . S
H2690 C2698 0.930 . S
H2691 C2699 0.930 . S
H2692 C2702 0.930 . S
H2693 C2703 0.930 . S
C2694 H2688 0.930 . S
C2694 C2695 1.355 . S
C2694 C2696 1.415 . S
C2695 C2694 1.355 . S
C2695 C2697 1.419 . S
C2696 C2694 1.415 . S
C2696 C2701 1.425 . S
C2696 C2703 1.409 . S
C2697 H2689 0.930 . S
C2697 C2695 1.419 . S
C2697 C2698 1.362 . S
C2698 H2690 0.930 . S
C2698 C2697 1.362 . S
C2698 C2701 1.409 . S
C2699 H2691 0.930 . S
C2699 C2700 1.355 . S
C2699 C2701 1.415 . S
C2700 C2699 1.355 . S
C2700 C2702 1.419 . S
C2701 C2696 1.425 . S
C2701 C2698 1.409 . S
C2701 C2699 1.415 . S
C2702 H2692 0.930 . S
C2702 C2700 1.419 . S
C2702 C2703 1.362 . S
C2703 H2693 0.930 . S
C2703 C2696 1.409 . S
C2703 C2702 1.362 . S
H2704 C2710 0.930 . S
H2705 C2713 0.930 . S
H2706 C2714 0.930 . S
H2707 C2715 0.930 . S
H2708 C2718 0.930 . S
H2709 C2719 0.930 . S
C2710 H2704 0.930 . S
C2710 C2711 1.355 . S
C2710 C2712 1.415 . S
C2711 C2710 1.355 . S
C2711 C2713 1.419 . S
C2712 C2710 1.415 . S
C2712 C2717 1.425 . S
C2712 C2719 1.409 . S
C2713 H2705 0.930 . S
C2713 C2711 1.419 . S
C2713 C2714 1.362 . S
C2714 H2706 0.930 . S
C2714 C2713 1.362 . S
C2714 C2717 1.409 . S
C2715 H2707 0.930 . S
C2715 C2716 1.355 . S
C2715 C2717 1.415 . S
C2716 C2715 1.355 . S
C2716 C2718 1.419 . S
C2717 C2712 1.425 . S
C2717 C2714 1.409 . S
C2717 C2715 1.415 . S
C2718 H2708 0.930 . S
C2718 C2716 1.419 . S
C2718 C2719 1.362 . S
C2719 H2709 0.930 . S
C2719 C2712 1.409 . S
C2719 C2718 1.362 . S
H2720 C2726 0.930 . S
H2721 C2729 0.930 . S
H2722 C2730 0.930 . S
H2723 C2731 0.930 . S
H2724 C2734 0.930 . S
H2725 C2735 0.930 . S
C2726 H2720 0.930 . S
C2726 C2727 1.355 . S
C2726 C2728 1.415 . S
C2727 C2726 1.355 . S
C2727 C2729 1.419 . S
C2728 C2726 1.415 . S
C2728 C2733 1.425 . S
C2728 C2735 1.409 . S
C2729 H2721 0.930 . S
C2729 C2727 1.419 . S
C2729 C2730 1.362 . S
C2730 H2722 0.930 . S
C2730 C2729 1.362 . S
C2730 C2733 1.409 . S
C2731 H2723 0.930 . S
C2731 C2732 1.355 . S
C2731 C2733 1.415 . S
C2732 C2731 1.355 . S
C2732 C2734 1.419 . S
C2733 C2728 1.425 . S
C2733 C2730 1.409 . S
C2733 C2731 1.415 . S
C2734 H2724 0.930 . S
C2734 C2732 1.419 . S
C2734 C2735 1.362 . S
C2735 H2725 0.930 . S
C2735 C2728 1.409 . S
C2735 C2734 1.362 . S
H2736 C2742 0.930 . S
H2737 C2745 0.930 . S
H2738 C2746 0.930 . S
H2739 C2747 0.930 . S
H2740 C2750 0.930 . S
H2741 C2751 0.930 . S
C2742 H2736 0.930 . S
C2742 C2743 1.355 . S
C2742 C2744 1.415 . S
C2743 C2742 1.355 . S
C2743 C2745 1.419 . S
C2744 C2742 1.415 . S
C2744 C2749 1.425 . S
C2744 C2751 1.409 . S
C2745 H2737 0.930 . S
C2745 C2743 1.419 . S
C2745 C2746 1.362 . S
C2746 H2738 0.930 . S
C2746 C2745 1.362 . S
C2746 C2749 1.409 . S
C2747 H2739 0.930 . S
C2747 C2748 1.355 . S
C2747 C2749 1.415 . S
C2748 C2747 1.355 . S
C2748 C2750 1.419 . S
C2749 C2744 1.425 . S
C2749 C2746 1.409 . S
C2749 C2747 1.415 . S
C2750 H2740 0.930 . S
C2750 C2748 1.419 . S
C2750 C2751 1.362 . S
C2751 H2741 0.930 . S
C2751 C2744 1.409 . S
C2751 C2750 1.362 . S
H2752 C2758 0.930 . S
H2753 C2761 0.930 . S
H2754 C2762 0.930 . S
H2755 C2763 0.930 . S
H2756 C2766 0.930 . S
H2757 C2767 0.930 . S
C2758 H2752 0.930 . S
C2758 C2759 1.355 . S
C2758 C2760 1.415 . S
C2759 C2758 1.355 . S
C2759 C2761 1.419 . S
C2760 C2758 1.415 . S
C2760 C2765 1.425 . S
C2760 C2767 1.409 . S
C2761 H2753 0.930 . S
C2761 C2759 1.419 . S
C2761 C2762 1.362 . S
C2762 H2754 0.930 . S
C2762 C2761 1.362 . S
C2762 C2765 1.409 . S
C2763 H2755 0.930 . S
C2763 C2764 1.355 . S
C2763 C2765 1.415 . S
C2764 C2763 1.355 . S
C2764 C2766 1.419 . S
C2765 C2760 1.425 . S
C2765 C2762 1.409 . S
C2765 C2763 1.415 . S
C2766 H2756 0.930 . S
C2766 C2764 1.419 . S
C2766 C2767 1.362 . S
C2767 H2757 0.930 . S
C2767 C2760 1.409 . S
C2767 C2766 1.362 . S
H2768 C2774 0.930 . S
H2769 C2777 0.930 . S
H2770 C2778 0.930 . S
H2771 C2779 0.930 . S
H2772 C2782 0.930 . S
H2773 C2783 0.930 . S
C2774 H2768 0.930 . S
C2774 C2775 1.355 . S
C2774 C2776 1.415 . S
C2775 C2774 1.355 . S
C2775 C2777 1.419 . S
C2776 C2774 1.415 . S
C2776 C2781 1.425 . S
C2776 C2783 1.409 . S
C2777 H2769 0.930 . S
C2777 C2775 1.419 . S
C2777 C2778 1.362 . S
C2778 H2770 0.930 . S
C2778 C2777 1.362 . S
C2778 C2781 1.409 . S
C2779 H2771 0.930 . S
C2779 C2780 1.355 . S
C2779 C2781 1.415 . S
C2780 C2779 1.355 . S
C2780 C2782 1.419 . S
C2781 C2776 1.425 . S
C2781 C2778 1.409 . S
C2781 C2779 1.415 . S
C2782 H2772 0.930 . S
C2782 C2780 1.419 . S
C2782 C2783 1.362 . S
C2783 H2773 0.930 . S
C2783 C2776 1.409 . S
C2783 C2782 1.362 . S
H2784 C2790 0.930 . S
H2785 C2793 0.930 . S
H2786 C2794 0.930 . S
H2787 C2795 0.930 . S
H2788 C2798 0.930 . S
H2789 C2799 0.930 . S
C2790 H2784 0.930 . S
C2790 C2791 1.355 . S
C2790 C2792 1.415 . S
C2791 C2790 1.355 . S
C2791 C2793 1.419 . S
C2792 C2790 1.415 . S
C2792 C2797 1.425 . S
C2792 C2799 1.409 . S
C2793 H2785 0.930 . S
C2793 C2791 1.419 . S
C2793 C2794 1.362 . S
C2794 H2786 0.930 . S
C2794 C2793 1.362 . S
C2794 C2797 1.409 . S
C2795 H2787 0.930 . S
C2795 C2796 1.355 . S
C2795 C2797 1.415 . S
C2796 C2795 1.355 . S
C2796 C2798 1.419 . S
C2797 C2792 1.425 . S
C2797 C2794 1.409 . S
C2797 C2795 1.415 . S
C2798 H2788 0.930 . S
C2798 C2796 1.419 . S
C2798 C2799 1.362 . S
C2799 H2789 0.930 . S
C2799 C2792 1.409 . S
C2799 C2798 1.362 . S
H2800 C2806 0.930 . S
H2801 C2809 0.930 . S
H2802 C2810 0.930 . S
H2803 C2811 0.930 . S
H2804 C2814 0.930 . S
H2805 C2815 0.930 . S
C2806 H2800 0.930 . S
C2806 C2807 1.355 . S
C2806 C2808 1.415 . S
C2807 C2806 1.355 . S
C2807 C2809 1.419 . S
C2808 C2806 1.415 . S
C2808 C2813 1.425 . S
C2808 C2815 1.409 . S
C2809 H2801 0.930 . S
C2809 C2807 1.419 . S
C2809 C2810 1.362 . S
C2810 H2802 0.930 . S
C2810 C2809 1.362 . S
C2810 C2813 1.409 . S
C2811 H2803 0.930 . S
C2811 C2812 1.355 . S
C2811 C2813 1.415 . S
C2812 C2811 1.355 . S
C2812 C2814 1.419 . S
C2813 C2808 1.425 . S
C2813 C2810 1.409 . S
C2813 C2811 1.415 . S
C2814 H2804 0.930 . S
C2814 C2812 1.419 . S
C2814 C2815 1.362 . S
C2815 H2805 0.930 . S
C2815 C2808 1.409 . S
C2815 C2814 1.362 . S
H2816 C2822 0.930 . S
H2817 C2825 0.930 . S
H2818 C2826 0.930 . S
H2819 C2827 0.930 . S
H2820 C2830 0.930 . S
H2821 C2831 0.930 . S
C2822 H2816 0.930 . S
C2822 C2823 1.355 . S
C2822 C2824 1.415 . S
C2823 C2822 1.355 . S
C2823 C2825 1.419 . S
C2824 C2822 1.415 . S
C2824 C2829 1.425 . S
C2824 C2831 1.409 . S
C2825 H2817 0.930 . S
C2825 C2823 1.419 . S
C2825 C2826 1.362 . S
C2826 H2818 0.930 . S
C2826 C2825 1.362 . S
C2826 C2829 1.409 . S
C2827 H2819 0.930 . S
C2827 C2828 1.355 . S
C2827 C2829 1.415 . S
C2828 C2827 1.355 . S
C2828 C2830 1.419 . S
C2829 C2824 1.425 . S
C2829 C2826 1.409 . S
C2829 C2827 1.415 . S
C2830 H2820 0.930 . S
C2830 C2828 1.419 . S
C2830 C2831 1.362 . S
C2831 H2821 0.930 . S
C2831 C2824 1.409 . S
C2831 C2830 1.362 . S
H2832 C2838 0.930 . S
H2833 C2841 0.930 . S
H2834 C2842 0.930 . S
H2835 C2843 0.930 . S
H2836 C2846 0.930 . S
H2837 C2847 0.930 . S
C2838 H2832 0.930 . S
C2838 C2839 1.355 . S
C2838 C2840 1.415 . S
C2839 C2838 1.355 . S
C2839 C2841 1.419 . S
C2840 C2838 1.415 . S
C2840 C2845 1.425 . S
C2840 C2847 1.409 . S
C2841 H2833 0.930 . S
C2841 C2839 1.419 . S
C2841 C2842 1.362 . S
C2842 H2834 0.930 . S
C2842 C2841 1.362 . S
C2842 C2845 1.409 . S
C2843 H2835 0.930 . S
C2843 C2844 1.355 . S
C2843 C2845 1.415 . S
C2844 C2843 1.355 . S
C2844 C2846 1.419 . S
C2845 C2840 1.425 . S
C2845 C2842 1.409 . S
C2845 C2843 1.415 . S
C2846 H2836 0.930 . S
C2846 C2844 1.419 . S
C2846 C2847 1.362 . S
C2847 H2837 0.930 . S
C2847 C2840 1.409 . S
C2847 C2846 1.362 . S
H2848 C2854 0.930 . S
H2849 C2857 0.930 . S
H2850 C2858 0.930 . S
H2851 C2859 0.930 . S
H2852 C2862 0.930 . S
H2853 C2863 0.930 . S
C2854 H2848 0.930 . S
C2854 C2855 1.355 . S
C2854 C2856 1.415 . S
C2855 C2854 1.355 . S
C2855 C2857 1.419 . S
C2856 C2854 1.415 . S
C2856 C2861 1.425 . S
C2856 C2863 1.409 . S
C2857 H2849 0.930 . S
C2857 C2855 1.419 . S
C2857 C2858 1.362 . S
C2858 H2850 0.930 . S
C2858 C2857 1.362 . S
C2858 C2861 1.409 . S
C2859 H2851 0.930 . S
C2859 C2860 1.355 . S
C2859 C2861 1.415 . S
C2860 C2859 1.355 . S
C2860 C2862 1.419 . S
C2861 C2856 1.425 . S
C2861 C2858 1.409 . S
C2861 C2859 1.415 . S
C2862 H2852 0.930 . S
C2862 C2860 1.419 . S
C2862 C2863 1.362 . S
C2863 H2853 0.930 . S
C2863 C2856 1.409 . S
C2863 C2862 1.362 . S
H2864 C2870 0.930 . S
H2865 C2873 0.930 . S
H2866 C2874 0.930 . S
H2867 C2875 0.930 . S
H2868 C2878 0.930 . S
H2869 C2879 0.930 . S
C2870 H2864 0.930 . S
C2870 C2871 1.355 . S
C2870 C2872 1.415 . S
C2871 C2870 1.355 . S
C2871 C2873 1.419 . S
C2872 C2870 1.415 . S
C2872 C2877 1.425 . S
C2872 C2879 1.409 . S
C2873 H2865 0.930 . S
C2873 C2871 1.419 . S
C2873 C2874 1.362 . S
C2874 H2866 0.930 . S
C2874 C2873 1.362 . S
C2874 C2877 1.409 . S
C2875 H2867 0.930 . S
C2875 C2876 1.355 . S
C2875 C2877 1.415 . S
C2876 C2875 1.355 . S
C2876 C2878 1.419 . S
C2877 C2872 1.425 . S
C2877 C2874 1.409 . S
C2877 C2875 1.415 . S
C2878 H2868 0.930 . S
C2878 C2876 1.419 . S
C2878 C2879 1.362 . S
C2879 H2869 0.930 . S
C2879 C2872 1.409 . S
C2879 C2878 1.362 . S
H2880 C2886 0.930 . S
H2881 C2889 0.930 . S
H2882 C2890 0.930 . S
H2883 C2891 0.930 . S
H2884 C2894 0.930 . S
H2885 C2895 0.930 . S
C2886 H2880 0.930 . S
C2886 C2887 1.355 . S
C2886 C2888 1.415 . S
C2887 C2886 1.355 . S
C2887 C2889 1.419 . S
C2888 C2886 1.415 . S
C2888 C2893 1.425 1_455 S
C2888 C2895 1.409 1_455 S
C2889 H2881 0.930 . S
C2889 C2887 1.419 . S
C2889 C2890 1.362 . S
C2890 H2882 0.930 . S
C2890 C2889 1.362 . S
C2890 C2893 1.409 1_455 S
C2891 H2883 0.930 . S
C2891 C2892 1.355 . S
C2891 C2893 1.415 . S
C2892 C2891 1.355 . S
C2892 C2894 1.419 . S
C2893 C2888 1.425 1_655 S
C2893 C2890 1.409 1_655 S
C2893 C2891 1.415 . S
C2894 H2884 0.930 . S
C2894 C2892 1.419 . S
C2894 C2895 1.362 . S
C2895 H2885 0.930 . S
C2895 C2888 1.409 1_655 S
C2895 C2894 1.362 . S
H2896 C2902 0.930 . S
H2897 C2905 0.930 . S
H2898 C2906 0.930 . S
H2899 C2907 0.930 . S
H2900 C2910 0.930 . S
H2901 C2911 0.930 . S
C2902 H2896 0.930 . S
C2902 C2903 1.355 . S
C2902 C2904 1.415 . S
C2903 C2902 1.355 . S
C2903 C2905 1.419 . S
C2904 C2902 1.415 . S
C2904 C2909 1.425 1_565 S
C2904 C2911 1.409 1_565 S
C2905 H2897 0.930 . S
C2905 C2903 1.419 . S
C2905 C2906 1.362 . S
C2906 H2898 0.930 . S
C2906 C2905 1.362 . S
C2906 C2909 1.409 1_565 S
C2907 H2899 0.930 . S
C2907 C2908 1.355 . S
C2907 C2909 1.415 . S
C2908 C2907 1.355 . S
C2908 C2910 1.419 . S
C2909 C2904 1.425 1_545 S
C2909 C2906 1.409 1_545 S
C2909 C2907 1.415 . S
C2910 H2900 0.930 . S
C2910 C2908 1.419 . S
C2910 C2911 1.362 . S
C2911 H2901 0.930 . S
C2911 C2904 1.409 1_545 S
C2911 C2910 1.362 . S
H2912 C2918 0.930 . S
H2913 C2921 0.930 . S
H2914 C2922 0.930 . S
H2915 C2923 0.930 . S
H2916 C2926 0.930 . S
H2917 C2927 0.930 . S
C2918 H2912 0.930 . S
C2918 C2919 1.355 . S
C2918 C2920 1.415 . S
C2919 C2918 1.355 . S
C2919 C2921 1.419 . S
C2920 C2918 1.415 . S
C2920 C2925 1.425 1_655 S
C2920 C2927 1.409 1_655 S
C2921 H2913 0.930 . S
C2921 C2919 1.419 . S
C2921 C2922 1.362 . S
C2922 H2914 0.930 . S
C2922 C2921 1.362 . S
C2922 C2925 1.409 1_655 S
C2923 H2915 0.930 . S
C2923 C2924 1.355 . S
C2923 C2925 1.415 . S
C2924 C2923 1.355 . S
C2924 C2926 1.419 . S
C2925 C2920 1.425 1_455 S
C2925 C2922 1.409 1_455 S
C2925 C2923 1.415 . S
C2926 H2916 0.930 . S
C2926 C2924 1.419 . S
C2926 C2927 1.362 . S
C2927 H2917 0.930 . S
C2927 C2920 1.409 1_455 S
C2927 C2926 1.362 . S
H2928 C2934 0.930 . S
H2929 C2937 0.930 . S
H2930 C2938 0.930 . S
H2931 C2939 0.930 . S
H2932 C2942 0.930 . S
H2933 C2943 0.930 . S
C2934 H2928 0.930 . S
C2934 C2935 1.355 . S
C2934 C2936 1.415 . S
C2935 C2934 1.355 . S
C2935 C2937 1.419 . S
C2936 C2934 1.415 . S
C2936 C2941 1.425 1_545 S
C2936 C2943 1.409 1_545 S
C2937 H2929 0.930 . S
C2937 C2935 1.419 . S
C2937 C2938 1.362 . S
C2938 H2930 0.930 . S
C2938 C2937 1.362 . S
C2938 C2941 1.409 1_545 S
C2939 H2931 0.930 . S
C2939 C2940 1.355 . S
C2939 C2941 1.415 . S
C2940 C2939 1.355 . S
C2940 C2942 1.419 . S
C2941 C2936 1.425 1_565 S
C2941 C2938 1.409 1_565 S
C2941 C2939 1.415 . S
C2942 H2932 0.930 . S
C2942 C2940 1.419 . S
C2942 C2943 1.362 . S
C2943 H2933 0.930 . S
C2943 C2936 1.409 1_565 S
C2943 C2942 1.362 . S
H2944 C2950 0.930 . S
H2945 C2953 0.930 . S
H2946 C2954 0.930 . S
H2947 C2955 0.930 . S
H2948 C2958 0.930 . S
H2949 C2959 0.930 . S
C2950 H2944 0.930 . S
C2950 C2951 1.355 . S
C2950 C2952 1.415 . S
C2951 C2950 1.355 . S
C2951 C2953 1.419 . S
C2952 C2950 1.415 . S
C2952 C2957 1.425 1_455 S
C2952 C2959 1.409 1_455 S
C2953 H2945 0.930 . S
C2953 C2951 1.419 . S
C2953 C2954 1.362 . S
C2954 H2946 0.930 . S
C2954 C2953 1.362 . S
C2954 C2957 1.409 1_455 S
C2955 H2947 0.930 . S
C2955 C2956 1.355 . S
C2955 C2957 1.415 . S
C2956 C2955 1.355 . S
C2956 C2958 1.419 . S
C2957 C2952 1.425 1_655 S
C2957 C2954 1.409 1_655 S
C2957 C2955 1.415 . S
C2958 H2948 0.930 . S
C2958 C2956 1.419 . S
C2958 C2959 1.362 . S
C2959 H2949 0.930 . S
C2959 C2952 1.409 1_655 S
C2959 C2958 1.362 . S
H2960 C2966 0.930 . S
H2961 C2969 0.930 . S
H2962 C2970 0.930 . S
H2963 C2971 0.930 . S
H2964 C2974 0.930 . S
H2965 C2975 0.930 . S
C2966 H2960 0.930 . S
C2966 C2967 1.355 . S
C2966 C2968 1.415 . S
C2967 C2966 1.355 . S
C2967 C2969 1.419 . S
C2968 C2966 1.415 . S
C2968 C2973 1.425 1_545 S
C2968 C2975 1.409 1_545 S
C2969 H2961 0.930 . S
C2969 C2967 1.419 . S
C2969 C2970 1.362 . S
C2970 H2962 0.930 . S
C2970 C2969 1.362 . S
C2970 C2973 1.409 1_545 S
C2971 H2963 0.930 . S
C2971 C2972 1.355 . S
C2971 C2973 1.415 . S
C2972 C2971 1.355 . S
C2972 C2974 1.419 . S
C2973 C2968 1.425 1_565 S
C2973 C2970 1.409 1_565 S
C2973 C2971 1.415 . S
C2974 H2964 0.930 . S
C2974 C2972 1.419 . S
C2974 C2975 1.362 . S
C2975 H2965 0.930 . S
C2975 C2968 1.409 1_565 S
C2975 C2974 1.362 . S
H2976 C2982 0.930 . S
H2977 C2985 0.930 . S
H2978 C2986 0.930 . S
H2979 C2987 0.930 . S
H2980 C2990 0.930 . S
H2981 C2991 0.930 . S
C2982 H2976 0.930 . S
C2982 C2983 1.355 . S
C2982 C2984 1.415 . S
C2983 C2982 1.355 . S
C2983 C2985 1.419 . S
C2984 C2982 1.415 . S
C2984 C2989 1.425 1_655 S
C2984 C2991 1.409 1_655 S
C2985 H2977 0.930 . S
C2985 C2983 1.419 . S
C2985 C2986 1.362 . S
C2986 H2978 0.930 . S
C2986 C2985 1.362 . S
C2986 C2989 1.409 1_655 S
C2987 H2979 0.930 . S
C2987 C2988 1.355 . S
C2987 C2989 1.415 . S
C2988 C2987 1.355 . S
C2988 C2990 1.419 . S
C2989 C2984 1.425 1_455 S
C2989 C2986 1.409 1_455 S
C2989 C2987 1.415 . S
C2990 H2980 0.930 . S
C2990 C2988 1.419 . S
C2990 C2991 1.362 . S
C2991 H2981 0.930 . S
C2991 C2984 1.409 1_455 S
C2991 C2990 1.362 . S
H2992 C2998 0.930 . S
H2993 C3001 0.930 . S
H2994 C3002 0.930 . S
H2995 C3003 0.930 . S
H2996 C3006 0.930 . S
H2997 C3007 0.930 . S
C2998 H2992 0.930 . S
C2998 C2999 1.355 . S
C2998 C3000 1.415 . S
C2999 C2998 1.355 . S
C2999 C3001 1.419 . S
C3000 C2998 1.415 . S
C3000 C3005 1.425 1_545 S
C3000 C3007 1.409 1_545 S
C3001 H2993 0.930 . S
C3001 C2999 1.419 . S
C3001 C3002 1.362 . S
C3002 H2994 0.930 . S
C3002 C3001 1.362 . S
C3002 C3005 1.409 1_545 S
C3003 H2995 0.930 . S
C3003 C3004 1.355 . S
C3003 C3005 1.415 . S
C3004 C3003 1.355 . S
C3004 C3006 1.419 . S
C3005 C3000 1.425 1_565 S
C3005 C3002 1.409 1_565 S
C3005 C3003 1.415 . S
C3006 H2996 0.930 . S
C3006 C3004 1.419 . S
C3006 C3007 1.362 . S
C3007 H2997 0.930 . S
C3007 C3000 1.409 1_565 S
C3007 C3006 1.362 . S
H3008 C3014 0.930 . S
H3009 C3017 0.930 . S
H3010 C3018 0.930 . S
H3011 C3019 0.930 . S
H3012 C3022 0.930 . S
H3013 C3023 0.930 . S
C3014 H3008 0.930 . S
C3014 C3015 1.355 . S
C3014 C3016 1.415 . S
C3015 C3014 1.355 . S
C3015 C3017 1.419 . S
C3016 C3014 1.415 . S
C3016 C3021 1.425 1_565 S
C3016 C3023 1.409 1_565 S
C3017 H3009 0.930 . S
C3017 C3015 1.419 . S
C3017 C3018 1.362 . S
C3018 H3010 0.930 . S
C3018 C3017 1.362 . S
C3018 C3021 1.409 1_565 S
C3019 H3011 0.930 . S
C3019 C3020 1.355 . S
C3019 C3021 1.415 . S
C3020 C3019 1.355 . S
C3020 C3022 1.419 . S
C3021 C3016 1.425 1_545 S
C3021 C3018 1.409 1_545 S
C3021 C3019 1.415 . S
C3022 H3012 0.930 . S
C3022 C3020 1.419 . S
C3022 C3023 1.362 . S
C3023 H3013 0.930 . S
C3023 C3016 1.409 1_545 S
C3023 C3022 1.362 . S
H3024 C3030 0.930 . S
H3025 C3033 0.930 . S
H3026 C3034 0.930 . S
H3027 C3035 0.930 . S
H3028 C3038 0.930 . S
H3029 C3039 0.930 . S
C3030 H3024 0.930 . S
C3030 C3031 1.355 . S
C3030 C3032 1.415 . S
C3031 C3030 1.355 . S
C3031 C3033 1.419 . S
C3032 C3030 1.415 . S
C3032 C3037 1.425 1_655 S
C3032 C3039 1.409 1_655 S
C3033 H3025 0.930 . S
C3033 C3031 1.419 . S
C3033 C3034 1.362 . S
C3034 H3026 0.930 . S
C3034 C3033 1.362 . S
C3034 C3037 1.409 1_655 S
C3035 H3027 0.930 . S
C3035 C3036 1.355 . S
C3035 C3037 1.415 . S
C3036 C3035 1.355 . S
C3036 C3038 1.419 . S
C3037 C3032 1.425 1_455 S
C3037 C3034 1.409 1_455 S
C3037 C3035 1.415 . S
C3038 H3028 0.930 . S
C3038 C3036 1.419 . S
C3038 C3039 1.362 . S
C3039 H3029 0.930 . S
C3039 C3032 1.409 1_455 S
C3039 C3038 1.362 . S
H3040 C3046 0.930 . S
H3041 C3049 0.930 . S
H3042 C3050 0.930 . S
H3043 C3051 0.930 . S
H3044 C3054 0.930 . S
H3045 C3055 0.930 . S
C3046 H3040 0.930 . S
C3046 C3047 1.355 . S
C3046 C3048 1.415 . S
C3047 C3046 1.355 . S
C3047 C3049 1.419 . S
C3048 C3046 1.415 . S
C3048 C3053 1.425 1_565 S
C3048 C3055 1.409 1_565 S
C3049 H3041 0.930 . S
C3049 C3047 1.419 . S
C3049 C3050 1.362 . S
C3050 H3042 0.930 . S
C3050 C3049 1.362 . S
C3050 C3053 1.409 1_565 S
C3051 H3043 0.930 . S
C3051 C3052 1.355 . S
C3051 C3053 1.415 . S
C3052 C3051 1.355 . S
C3052 C3054 1.419 . S
C3053 C3048 1.425 1_545 S
C3053 C3050 1.409 1_545 S
C3053 C3051 1.415 . S
C3054 H3044 0.930 . S
C3054 C3052 1.419 . S
C3054 C3055 1.362 . S
C3055 H3045 0.930 . S
C3055 C3048 1.409 1_545 S
C3055 C3054 1.362 . S
H3056 C3062 0.930 . S
H3057 C3065 0.930 . S
H3058 C3066 0.930 . S
H3059 C3067 0.930 . S
H3060 C3070 0.930 . S
H3061 C3071 0.930 . S
C3062 H3056 0.930 . S
C3062 C3063 1.355 . S
C3062 C3064 1.415 . S
C3063 C3062 1.355 . S
C3063 C3065 1.419 . S
C3064 C3062 1.415 . S
C3064 C3069 1.425 1_455 S
C3064 C3071 1.409 1_455 S
C3065 H3057 0.930 . S
C3065 C3063 1.419 . S
C3065 C3066 1.362 . S
C3066 H3058 0.930 . S
C3066 C3065 1.362 . S
C3066 C3069 1.409 1_455 S
C3067 H3059 0.930 . S
C3067 C3068 1.355 . S
C3067 C3069 1.415 . S
C3068 C3067 1.355 . S
C3068 C3070 1.419 . S
C3069 C3064 1.425 1_655 S
C3069 C3066 1.409 1_655 S
C3069 C3067 1.415 . S
C3070 H3060 0.930 . S
C3070 C3068 1.419 . S
C3070 C3071 1.362 . S
C3071 H3061 0.930 . S
C3071 C3064 1.409 1_655 S
C3071 C3070 1.362 . S
H3072 C3078 0.930 . S
H3073 C3081 0.930 . S
H3074 C3082 0.930 . S
H3075 C3083 0.930 . S
H3076 C3086 0.930 . S
H3077 C3087 0.930 . S
C3078 H3072 0.930 . S
C3078 C3079 1.355 . S
C3078 C3080 1.415 . S
C3079 C3078 1.355 . S
C3079 C3081 1.419 . S
C3080 C3078 1.415 . S
C3080 C3085 1.425 1_565 S
C3080 C3087 1.409 1_565 S
C3081 H3073 0.930 . S
C3081 C3079 1.419 . S
C3081 C3082 1.362 . S
C3082 H3074 0.930 . S
C3082 C3081 1.362 . S
C3082 C3085 1.409 1_565 S
C3083 H3075 0.930 . S
C3083 C3084 1.355 . S
C3083 C3085 1.415 . S
C3084 C3083 1.355 . S
C3084 C3086 1.419 . S
C3085 C3080 1.425 1_545 S
C3085 C3082 1.409 1_545 S
C3085 C3083 1.415 . S
C3086 H3076 0.930 . S
C3086 C3084 1.419 . S
C3086 C3087 1.362 . S
C3087 H3077 0.930 . S
C3087 C3080 1.409 1_545 S
C3087 C3086 1.362 . S
H3088 C3094 0.930 . S
H3089 C3097 0.930 . S
H3090 C3098 0.930 . S
H3091 C3099 0.930 . S
H3092 C3102 0.930 . S
H3093 C3103 0.930 . S
C3094 H3088 0.930 . S
C3094 C3095 1.355 . S
C3094 C3096 1.415 . S
C3095 C3094 1.355 . S
C3095 C3097 1.419 . S
C3096 C3094 1.415 . S
C3096 C3101 1.425 1_455 S
C3096 C3103 1.409 1_455 S
C3097 H3089 0.930 . S
C3097 C3095 1.419 . S
C3097 C3098 1.362 . S
C3098 H3090 0.930 . S
C3098 C3097 1.362 . S
C3098 C3101 1.409 1_455 S
C3099 H3091 0.930 . S
C3099 C3100 1.355 . S
C3099 C3101 1.415 . S
C3100 C3099 1.355 . S
C3100 C3102 1.419 . S
C3101 C3096 1.425 1_655 S
C3101 C3098 1.409 1_655 S
C3101 C3099 1.415 . S
C3102 H3092 0.930 . S
C3102 C3100 1.419 . S
C3102 C3103 1.362 . S
C3103 H3093 0.930 . S
C3103 C3096 1.409 1_655 S
C3103 C3102 1.362 . S
H3104 C3110 0.930 . S
H3105 C3113 0.930 . S
H3106 C3114 0.930 . S
H3107 C3115 0.930 . S
H3108 C3118 0.930 . S
H3109 C3119 0.930 . S
C3110 H3104 0.930 . S
C3110 C3111 1.355 . S
C3110 C3112 1.415 . S
C3111 C3110 1.355 . S
C3111 C3113 1.419 . S
C3112 C3110 1.415 . S
C3112 C3117 1.425 1_545 S
C3112 C3119 1.409 1_545 S
C3113 H3105 0.930 . S
C3113 C3111 1.419 . S
C3113 C3114 1.362 . S
C3114 H3106 0.930 . S
C3114 C3113 1.362 . S
C3114 C3117 1.409 1_545 S
C3115 H3107 0.930 . S
C3115 C3116 1.355 . S
C3115 C3117 1.415 . S
C3116 C3115 1.355 . S
C3116 C3118 1.419 . S
C3117 C3112 1.425 1_565 S
C3117 C3114 1.409 1_565 S
C3117 C3115 1.415 . S
C3118 H3108 0.930 . S
C3118 C3116 1.419 . S
C3118 C3119 1.362 . S
C3119 H3109 0.930 . S
C3119 C3112 1.409 1_565 S
C3119 C3118 1.362 . S
H3120 C3126 0.930 . S
H3121 C3129 0.930 . S
H3122 C3130 0.930 . S
H3123 C3131 0.930 . S
H3124 C3134 0.930 . S
H3125 C3135 0.930 . S
C3126 H3120 0.930 . S
C3126 C3127 1.355 . S
C3126 C3128 1.415 . S
C3127 C3126 1.355 . S
C3127 C3129 1.419 . S
C3128 C3126 1.415 . S
C3128 C3133 1.425 1_655 S
C3128 C3135 1.409 1_655 S
C3129 H3121 0.930 . S
C3129 C3127 1.419 . S
C3129 C3130 1.362 . S
C3130 H3122 0.930 . S
C3130 C3129 1.362 . S
C3130 C3133 1.409 1_655 S
C3131 H3123 0.930 . S
C3131 C3132 1.355 . S
C3131 C3133 1.415 . S
C3132 C3131 1.355 . S
C3132 C3134 1.419 . S
C3133 C3128 1.425 1_455 S
C3133 C3130 1.409 1_455 S
C3133 C3131 1.415 . S
C3134 H3124 0.930 . S
C3134 C3132 1.419 . S
C3134 C3135 1.362 . S
C3135 H3125 0.930 . S
C3135 C3128 1.409 1_455 S
C3135 C3134 1.362 . S
H3136 C3142 0.930 . S
H3137 C3145 0.930 . S
H3138 C3146 0.930 . S
H3139 C3147 0.930 . S
H3140 C3150 0.930 . S
H3141 C3151 0.930 . S
C3142 H3136 0.930 . S
C3142 C3143 1.355 . S
C3142 C3144 1.415 . S
C3143 C3142 1.355 . S
C3143 C3145 1.419 . S
C3144 C3142 1.415 . S
C3144 C3149 1.425 1_554 S
C3144 C3151 1.409 1_554 S
C3145 H3137 0.930 . S
C3145 C3143 1.419 . S
C3145 C3146 1.362 . S
C3146 H3138 0.930 . S
C3146 C3145 1.362 . S
C3146 C3149 1.409 1_554 S
C3147 H3139 0.930 . S
C3147 C3148 1.355 . S
C3147 C3149 1.415 . S
C3148 C3147 1.355 . S
C3148 C3150 1.419 . S
C3149 C3144 1.425 1_556 S
C3149 C3146 1.409 1_556 S
C3149 C3147 1.415 . S
C3150 H3140 0.930 . S
C3150 C3148 1.419 . S
C3150 C3151 1.362 . S
C3151 H3141 0.930 . S
C3151 C3144 1.409 1_556 S
C3151 C3150 1.362 . S
H3152 C3158 0.930 . S
H3153 C3161 0.930 . S
H3154 C3162 0.930 . S
H3155 C3163 0.930 . S
H3156 C3166 0.930 . S
H3157 C3167 0.930 . S
C3158 H3152 0.930 . S
C3158 C3159 1.355 . S
C3158 C3160 1.415 . S
C3159 C3158 1.355 . S
C3159 C3161 1.419 . S
C3160 C3158 1.415 . S
C3160 C3165 1.425 1_556 S
C3160 C3167 1.409 1_556 S
C3161 H3153 0.930 . S
C3161 C3159 1.419 . S
C3161 C3162 1.362 . S
C3162 H3154 0.930 . S
C3162 C3161 1.362 . S
C3162 C3165 1.409 1_556 S
C3163 H3155 0.930 . S
C3163 C3164 1.355 . S
C3163 C3165 1.415 . S
C3164 C3163 1.355 . S
C3164 C3166 1.419 . S
C3165 C3160 1.425 1_554 S
C3165 C3162 1.409 1_554 S
C3165 C3163 1.415 . S
C3166 H3156 0.930 . S
C3166 C3164 1.419 . S
C3166 C3167 1.362 . S
C3167 H3157 0.930 . S
C3167 C3160 1.409 1_554 S
C3167 C3166 1.362 . S
H3168 C3174 0.930 . S
H3169 C3177 0.930 . S
H3170 C3178 0.930 . S
H3171 C3179 0.930 . S
H3172 C3182 0.930 . S
H3173 C3183 0.930 . S
C3174 H3168 0.930 . S
C3174 C3175 1.355 . S
C3174 C3176 1.415 . S
C3175 C3174 1.355 . S
C3175 C3177 1.419 . S
C3176 C3174 1.415 . S
C3176 C3181 1.425 1_554 S
C3176 C3183 1.409 1_554 S
C3177 H3169 0.930 . S
C3177 C3175 1.419 . S
C3177 C3178 1.362 . S
C3178 H3170 0.930 . S
C3178 C3177 1.362 . S
C3178 C3181 1.409 1_554 S
C3179 H3171 0.930 . S
C3179 C3180 1.355 . S
C3179 C3181 1.415 . S
C3180 C3179 1.355 . S
C3180 C3182 1.419 . S
C3181 C3176 1.425 1_556 S
C3181 C3178 1.409 1_556 S
C3181 C3179 1.415 . S
C3182 H3172 0.930 . S
C3182 C3180 1.419 . S
C3182 C3183 1.362 . S
C3183 H3173 0.930 . S
C3183 C3176 1.409 1_556 S
C3183 C3182 1.362 . S
H3184 C3190 0.930 . S
H3185 C3193 0.930 . S
H3186 C3194 0.930 . S
H3187 C3195 0.930 . S
H3188 C3198 0.930 . S
H3189 C3199 0.930 . S
C3190 H3184 0.930 . S
C3190 C3191 1.355 . S
C3190 C3192 1.415 . S
C3191 C3190 1.355 . S
C3191 C3193 1.419 . S
C3192 C3190 1.415 . S
C3192 C3197 1.425 1_556 S
C3192 C3199 1.409 1_556 S
C3193 H3185 0.930 . S
C3193 C3191 1.419 . S
C3193 C3194 1.362 . S
C3194 H3186 0.930 . S
C3194 C3193 1.362 . S
C3194 C3197 1.409 1_556 S
C3195 H3187 0.930 . S
C3195 C3196 1.355 . S
C3195 C3197 1.415 . S
C3196 C3195 1.355 . S
C3196 C3198 1.419 . S
C3197 C3192 1.425 1_554 S
C3197 C3194 1.409 1_554 S
C3197 C3195 1.415 . S
C3198 H3188 0.930 . S
C3198 C3196 1.419 . S
C3198 C3199 1.362 . S
C3199 H3189 0.930 . S
C3199 C3192 1.409 1_554 S
C3199 C3198 1.362 . S
H3200 C3206 0.930 . S
H3201 C3209 0.930 . S
H3202 C3210 0.930 . S
H3203 C3211 0.930 . S
H3204 C3214 0.930 . S
H3205 C3215 0.930 . S
C3206 H3200 0.930 . S
C3206 C3207 1.355 . S
C3206 C3208 1.415 . S
C3207 C3206 1.355 . S
C3207 C3209 1.419 . S
C3208 C3206 1.415 . S
C3208 C3213 1.425 1_554 S
C3208 C3215 1.409 1_554 S
C3209 H3201 0.930 . S
C3209 C3207 1.419 . S
C3209 C3210 1.362 . S
C3210 H3202 0.930 . S
C3210 C3209 1.362 . S
C3210 C3213 1.409 1_554 S
C3211 H3203 0.930 . S
C3211 C3212 1.355 . S
C3211 C3213 1.415 . S
C3212 C3211 1.355 . S
C3212 C3214 1.419 . S
C3213 C3208 1.425 1_556 S
C3213 C3210 1.409 1_556 S
C3213 C3211 1.415 . S
C3214 H3204 0.930 . S
C3214 C3212 1.419 . S
C3214 C3215 1.362 . S
C3215 H3205 0.930 . S
C3215 C3208 1.409 1_556 S
C3215 C3214 1.362 . S
H3216 C3222 0.930 . S
H3217 C3225 0.930 . S
H3218 C3226 0.930 . S
H3219 C3227 0.930 . S
H3220 C3230 0.930 . S
H3221 C3231 0.930 . S
C3222 H3216 0.930 . S
C3222 C3223 1.355 . S
C3222 C3224 1.415 . S
C3223 C3222 1.355 . S
C3223 C3225 1.419 . S
C3224 C3222 1.415 . S
C3224 C3229 1.425 1_554 S
C3224 C3231 1.409 1_554 S
C3225 H3217 0.930 . S
C3225 C3223 1.419 . S
C3225 C3226 1.362 . S
C3226 H3218 0.930 . S
C3226 C3225 1.362 . S
C3226 C3229 1.409 1_554 S
C3227 H3219 0.930 . S
C3227 C3228 1.355 . S
C3227 C3229 1.415 . S
C3228 C3227 1.355 . S
C3228 C3230 1.419 . S
C3229 C3224 1.425 1_556 S
C3229 C3226 1.409 1_556 S
C3229 C3227 1.415 . S
C3230 H3220 0.930 . S
C3230 C3228 1.419 . S
C3230 C3231 1.362 . S
C3231 H3221 0.930 . S
C3231 C3224 1.409 1_556 S
C3231 C3230 1.362 . S
H3232 C3238 0.930 . S
H3233 C3241 0.930 . S
H3234 C3242 0.930 . S
H3235 C3243 0.930 . S
H3236 C3246 0.930 . S
H3237 C3247 0.930 . S
C3238 H3232 0.930 . S
C3238 C3239 1.355 . S
C3238 C3240 1.415 . S
C3239 C3238 1.355 . S
C3239 C3241 1.419 . S
C3240 C3238 1.415 . S
C3240 C3245 1.425 1_554 S
C3240 C3247 1.409 1_554 S
C3241 H3233 0.930 . S
C3241 C3239 1.419 . S
C3241 C3242 1.362 . S
C3242 H3234 0.930 . S
C3242 C3241 1.362 . S
C3242 C3245 1.409 1_554 S
C3243 H3235 0.930 . S
C3243 C3244 1.355 . S
C3243 C3245 1.415 . S
C3244 C3243 1.355 . S
C3244 C3246 1.419 . S
C3245 C3240 1.425 1_556 S
C3245 C3242 1.409 1_556 S
C3245 C3243 1.415 . S
C3246 H3236 0.930 . S
C3246 C3244 1.419 . S
C3246 C3247 1.362 . S
C3247 H3237 0.930 . S
C3247 C3240 1.409 1_556 S
C3247 C3246 1.362 . S
H3248 C3254 0.930 . S
H3249 C3257 0.930 . S
H3250 C3258 0.930 . S
H3251 C3259 0.930 . S
H3252 C3262 0.930 . S
H3253 C3263 0.930 . S
C3254 H3248 0.930 . S
C3254 C3255 1.355 . S
C3254 C3256 1.415 . S
C3255 C3254 1.355 . S
C3255 C3257 1.419 . S
C3256 C3254 1.415 . S
C3256 C3261 1.425 1_556 S
C3256 C3263 1.409 1_556 S
C3257 H3249 0.930 . S
C3257 C3255 1.419 . S
C3257 C3258 1.362 . S
C3258 H3250 0.930 . S
C3258 C3257 1.362 . S
C3258 C3261 1.409 1_556 S
C3259 H3251 0.930 . S
C3259 C3260 1.355 . S
C3259 C3261 1.415 . S
C3260 C3259 1.355 . S
C3260 C3262 1.419 . S
C3261 C3256 1.425 1_554 S
C3261 C3258 1.409 1_554 S
C3261 C3259 1.415 . S
C3262 H3252 0.930 . S
C3262 C3260 1.419 . S
C3262 C3263 1.362 . S
C3263 H3253 0.930 . S
C3263 C3256 1.409 1_554 S
C3263 C3262 1.362 . S
H3264 C3270 0.930 . S
H3265 C3273 0.930 . S
H3266 C3274 0.930 . S
H3267 C3275 0.930 . S
H3268 C3278 0.930 . S
H3269 C3279 0.930 . S
C3270 H3264 0.930 . S
C3270 C3271 1.355 . S
C3270 C3272 1.415 . S
C3271 C3270 1.355 . S
C3271 C3273 1.419 . S
C3272 C3270 1.415 . S
C3272 C3277 1.425 . S
C3272 C3279 1.409 . S
C3273 H3265 0.930 . S
C3273 C3271 1.419 . S
C3273 C3274 1.362 . S
C3274 H3266 0.930 . S
C3274 C3273 1.362 . S
C3274 C3277 1.409 . S
C3275 H3267 0.930 . S
C3275 C3276 1.355 . S
C3275 C3277 1.415 . S
C3276 C3275 1.355 . S
C3276 C3278 1.419 . S
C3277 C3272 1.425 . S
C3277 C3274 1.409 . S
C3277 C3275 1.415 . S
C3278 H3268 0.930 . S
C3278 C3276 1.419 . S
C3278 C3279 1.362 . S
C3279 H3269 0.930 . S
C3279 C3272 1.409 . S
C3279 C3278 1.362 . S
H3280 C3286 0.930 . S
H3281 C3289 0.930 . S
H3282 C3290 0.930 . S
H3283 C3291 0.930 . S
H3284 C3294 0.930 . S
H3285 C3295 0.930 . S
C3286 H3280 0.930 . S
C3286 C3287 1.355 . S
C3286 C3288 1.415 . S
C3287 C3286 1.355 . S
C3287 C3289 1.419 . S
C3288 C3286 1.415 . S
C3288 C3293 1.425 . S
C3288 C3295 1.409 . S
C3289 H3281 0.930 . S
C3289 C3287 1.419 . S
C3289 C3290 1.362 . S
C3290 H3282 0.930 . S
C3290 C3289 1.362 . S
C3290 C3293 1.409 . S
C3291 H3283 0.930 . S
C3291 C3292 1.355 . S
C3291 C3293 1.415 . S
C3292 C3291 1.355 . S
C3292 C3294 1.419 . S
C3293 C3288 1.425 . S
C3293 C3290 1.409 . S
C3293 C3291 1.415 . S
C3294 H3284 0.930 . S
C3294 C3292 1.419 . S
C3294 C3295 1.362 . S
C3295 H3285 0.930 . S
C3295 C3288 1.409 . S
C3295 C3294 1.362 . S
H3296 C3302 0.930 . S
H3297 C3305 0.930 . S
H3298 C3306 0.930 . S
H3299 C3307 0.930 . S
H3300 C3310 0.930 . S
H3301 C3311 0.930 . S
C3302 H3296 0.930 . S
C3302 C3303 1.355 . S
C3302 C3304 1.415 . S
C3303 C3302 1.355 . S
C3303 C3305 1.419 . S
C3304 C3302 1.415 . S
C3304 C3309 1.425 . S
C3304 C3311 1.409 . S
C3305 H3297 0.930 . S
C3305 C3303 1.419 . S
C3305 C3306 1.362 . S
C3306 H3298 0.930 . S
C3306 C3305 1.362 . S
C3306 C3309 1.409 . S
C3307 H3299 0.930 . S
C3307 C3308 1.355 . S
C3307 C3309 1.415 . S
C3308 C3307 1.355 . S
C3308 C3310 1.419 . S
C3309 C3304 1.425 . S
C3309 C3306 1.409 . S
C3309 C3307 1.415 . S
C3310 H3300 0.930 . S
C3310 C3308 1.419 . S
C3310 C3311 1.362 . S
C3311 H3301 0.930 . S
C3311 C3304 1.409 . S
C3311 C3310 1.362 . S
H3312 C3318 0.930 . S
H3313 C3321 0.930 . S
H3314 C3322 0.930 . S
H3315 C3323 0.930 . S
H3316 C3326 0.930 . S
H3317 C3327 0.930 . S
C3318 H3312 0.930 . S
C3318 C3319 1.355 . S
C3318 C3320 1.415 . S
C3319 C3318 1.355 . S
C3319 C3321 1.419 . S
C3320 C3318 1.415 . S
C3320 C3325 1.425 . S
C3320 C3327 1.409 . S
C3321 H3313 0.930 . S
C3321 C3319 1.419 . S
C3321 C3322 1.362 . S
C3322 H3314 0.930 . S
C3322 C3321 1.362 . S
C3322 C3325 1.409 . S
C3323 H3315 0.930 . S
C3323 C3324 1.355 . S
C3323 C3325 1.415 . S
C3324 C3323 1.355 . S
C3324 C3326 1.419 . S
C3325 C3320 1.425 . S
C3325 C3322 1.409 . S
C3325 C3323 1.415 . S
C3326 H3316 0.930 . S
C3326 C3324 1.419 . S
C3326 C3327 1.362 . S
C3327 H3317 0.930 . S
C3327 C3320 1.409 . S
C3327 C3326 1.362 . S
H3328 C3334 0.930 . S
H3329 C3337 0.930 . S
H3330 C3338 0.930 . S
H3331 C3339 0.930 . S
H3332 C3342 0.930 . S
H3333 C3343 0.930 . S
C3334 H3328 0.930 . S
C3334 C3335 1.355 . S
C3334 C3336 1.415 . S
C3335 C3334 1.355 . S
C3335 C3337 1.419 . S
C3336 C3334 1.415 . S
C3336 C3341 1.425 . S
C3336 C3343 1.409 . S
C3337 H3329 0.930 . S
C3337 C3335 1.419 . S
C3337 C3338 1.362 . S
C3338 H3330 0.930 . S
C3338 C3337 1.362 . S
C3338 C3341 1.409 . S
C3339 H3331 0.930 . S
C3339 C3340 1.355 . S
C3339 C3341 1.415 . S
C3340 C3339 1.355 . S
C3340 C3342 1.419 . S
C3341 C3336 1.425 . S
C3341 C3338 1.409 . S
C3341 C3339 1.415 . S
C3342 H3332 0.930 . S
C3342 C3340 1.419 . S
C3342 C3343 1.362 . S
C3343 H3333 0.930 . S
C3343 C3336 1.409 . S
C3343 C3342 1.362 . S
H3344 C3350 0.930 . S
H3345 C3353 0.930 . S
H3346 C3354 0.930 . S
H3347 C3355 0.930 . S
H3348 C3358 0.930 . S
H3349 C3359 0.930 . S
C3350 H3344 0.930 . S
C3350 C3351 1.355 . S
C3350 C3352 1.415 . S
C3351 C3350 1.355 . S
C3351 C3353 1.419 . S
C3352 C3350 1.415 . S
C3352 C3357 1.425 . S
C3352 C3359 1.409 . S
C3353 H3345 0.930 . S
C3353 C3351 1.419 . S
C3353 C3354 1.362 . S
C3354 H3346 0.930 . S
C3354 C3353 1.362 . S
C3354 C3357 1.409 . S
C3355 H3347 0.930 . S
C3355 C3356 1.355 . S
C3355 C3357 1.415 . S
C3356 C3355 1.355 . S
C3356 C3358 1.419 . S
C3357 C3352 1.425 . S
C3357 C3354 1.409 . S
C3357 C3355 1.415 . S
C3358 H3348 0.930 . S
C3358 C3356 1.419 . S
C3358 C3359 1.362 . S
C3359 H3349 0.930 . S
C3359 C3352 1.409 . S
C3359 C3358 1.362 . S
H3360 C3366 0.930 . S
H3361 C3369 0.930 . S
H3362 C3370 0.930 . S
H3363 C3371 0.930 . S
H3364 C3374 0.930 . S
H3365 C3375 0.930 . S
C3366 H3360 0.930 . S
C3366 C3367 1.355 . S
C3366 C3368 1.415 . S
C3367 C3366 1.355 . S
C3367 C3369 1.419 . S
C3368 C3366 1.415 . S
C3368 C3373 1.425 . S
C3368 C3375 1.409 . S
C3369 H3361 0.930 . S
C3369 C3367 1.419 . S
C3369 C3370 1.362 . S
C3370 H3362 0.930 . S
C3370 C3369 1.362 . S
C3370 C3373 1.409 . S
C3371 H3363 0.930 . S
C3371 C3372 1.355 . S
C3371 C3373 1.415 . S
C3372 C3371 1.355 . S
C3372 C3374 1.419 . S
C3373 C3368 1.425 . S
C3373 C3370 1.409 . S
C3373 C3371 1.415 . S
C3374 H3364 0.930 . S
C3374 C3372 1.419 . S
C3374 C3375 1.362 . S
C3375 H3365 0.930 . S
C3375 C3368 1.409 . S
C3375 C3374 1.362 . S
H3376 C3382 0.930 . S
H3377 C3385 0.930 . S
H3378 C3386 0.930 . S
H3379 C3387 0.930 . S
H3380 C3390 0.930 . S
H3381 C3391 0.930 . S
C3382 H3376 0.930 . S
C3382 C3383 1.355 . S
C3382 C3384 1.415 . S
C3383 C3382 1.355 . S
C3383 C3385 1.419 . S
C3384 C3382 1.415 . S
C3384 C3389 1.425 . S
C3384 C3391 1.409 . S
C3385 H3377 0.930 . S
C3385 C3383 1.419 . S
C3385 C3386 1.362 . S
C3386 H3378 0.930 . S
C3386 C3385 1.362 . S
C3386 C3389 1.409 . S
C3387 H3379 0.930 . S
C3387 C3388 1.355 . S
C3387 C3389 1.415 . S
C3388 C3387 1.355 . S
C3388 C3390 1.419 . S
C3389 C3384 1.425 . S
C3389 C3386 1.409 . S
C3389 C3387 1.415 . S
C3390 H3380 0.930 . S
C3390 C3388 1.419 . S
C3390 C3391 1.362 . S
C3391 H3381 0.930 . S
C3391 C3384 1.409 . S
C3391 C3390 1.362 . S
H3392 C3398 0.930 . S
H3393 C3401 0.930 . S
H3394 C3402 0.930 . S
H3395 C3403 0.930 . S
H3396 C3406 0.930 . S
H3397 C3407 0.930 . S
C3398 H3392 0.930 . S
C3398 C3399 1.355 . S
C3398 C3400 1.415 . S
C3399 C3398 1.355 . S
C3399 C3401 1.419 . S
C3400 C3398 1.415 . S
C3400 C3405 1.425 . S
C3400 C3407 1.409 . S
C3401 H3393 0.930 . S
C3401 C3399 1.419 . S
C3401 C3402 1.362 . S
C3402 H3394 0.930 . S
C3402 C3401 1.362 . S
C3402 C3405 1.409 . S
C3403 H3395 0.930 . S
C3403 C3404 1.355 . S
C3403 C3405 1.415 . S
C3404 C3403 1.355 . S
C3404 C3406 1.419 . S
C3405 C3400 1.425 . S
C3405 C3402 1.409 . S
C3405 C3403 1.415 . S
C3406 H3396 0.930 . S
C3406 C3404 1.419 . S
C3406 C3407 1.362 . S
C3407 H3397 0.930 . S
C3407 C3400 1.409 . S
C3407 C3406 1.362 . S
H3408 C3414 0.930 . S
H3409 C3417 0.930 . S
H3410 C3418 0.930 . S
H3411 C3419 0.930 . S
H3412 C3422 0.930 . S
H3413 C3423 0.930 . S
C3414 H3408 0.930 . S
C3414 C3415 1.355 . S
C3414 C3416 1.415 . S
C3415 C3414 1.355 . S
C3415 C3417 1.419 . S
C3416 C3414 1.415 . S
C3416 C3421 1.425 . S
C3416 C3423 1.409 . S
C3417 H3409 0.930 . S
C3417 C3415 1.419 . S
C3417 C3418 1.362 . S
C3418 H3410 0.930 . S
C3418 C3417 1.362 . S
C3418 C3421 1.409 . S
C3419 H3411 0.930 . S
C3419 C3420 1.355 . S
C3419 C3421 1.415 . S
C3420 C3419 1.355 . S
C3420 C3422 1.419 . S
C3421 C3416 1.425 . S
C3421 C3418 1.409 . S
C3421 C3419 1.415 . S
C3422 H3412 0.930 . S
C3422 C3420 1.419 . S
C3422 C3423 1.362 . S
C3423 H3413 0.930 . S
C3423 C3416 1.409 . S
C3423 C3422 1.362 . S
H3424 C3430 0.930 . S
H3425 C3433 0.930 . S
H3426 C3434 0.930 . S
H3427 C3435 0.930 . S
H3428 C3438 0.930 . S
H3429 C3439 0.930 . S
C3430 H3424 0.930 . S
C3430 C3431 1.355 . S
C3430 C3432 1.415 . S
C3431 C3430 1.355 . S
C3431 C3433 1.419 . S
C3432 C3430 1.415 . S
C3432 C3437 1.425 . S
C3432 C3439 1.409 . S
C3433 H3425 0.930 . S
C3433 C3431 1.419 . S
C3433 C3434 1.362 . S
C3434 H3426 0.930 . S
C3434 C3433 1.362 . S
C3434 C3437 1.409 . S
C3435 H3427 0.930 . S
C3435 C3436 1.355 . S
C3435 C3437 1.415 . S
C3436 C3435 1.355 . S
C3436 C3438 1.419 . S
C3437 C3432 1.425 . S
C3437 C3434 1.409 . S
C3437 C3435 1.415 . S
C3438 H3428 0.930 . S
C3438 C3436 1.419 . S
C3438 C3439 1.362 . S
C3439 H3429 0.930 . S
C3439 C3432 1.409 . S
C3439 C3438 1.362 . S
H3440 C3446 0.930 . S
H3441 C3449 0.930 . S
H3442 C3450 0.930 . S
H3443 C3451 0.930 . S
H3444 C3454 0.930 . S
H3445 C3455 0.930 . S
C3446 H3440 0.930 . S
C3446 C3447 1.355 . S
C3446 C3448 1.415 . S
C3447 C3446 1.355 . S
C3447 C3449 1.419 . S
C3448 C3446 1.415 . S
C3448 C3453 1.425 . S
C3448 C3455 1.409 . S
C3449 H3441 0.930 . S
C3449 C3447 1.419 . S
C3449 C3450 1.362 . S
C3450 H3442 0.930 . S
C3450 C3449 1.362 . S
C3450 C3453 1.409 . S
C3451 H3443 0.930 . S
C3451 C3452 1.355 . S
C3451 C3453 1.415 . S
C3452 C3451 1.355 . S
C3452 C3454 1.419 . S
C3453 C3448 1.425 . S
C3453 C3450 1.409 . S
C3453 C3451 1.415 . S
C3454 H3444 0.930 . S
C3454 C3452 1.419 . S
C3454 C3455 1.362 . S
C3455 H3445 0.930 . S
C3455 C3448 1.409 . S
C3455 C3454 1.362 . S
H3456 C3462 0.930 . S
H3457 C3465 0.930 . S
H3458 C3466 0.930 . S
H3459 C3467 0.930 . S
H3460 C3470 0.930 . S
H3461 C3471 0.930 . S
C3462 H3456 0.930 . S
C3462 C3463 1.355 . S
C3462 C3464 1.415 . S
C3463 C3462 1.355 . S
C3463 C3465 1.419 . S
C3464 C3462 1.415 . S
C3464 C3469 1.425 . S
C3464 C3471 1.409 . S
C3465 H3457 0.930 . S
C3465 C3463 1.419 . S
C3465 C3466 1.362 . S
C3466 H3458 0.930 . S
C3466 C3465 1.362 . S
C3466 C3469 1.409 . S
C3467 H3459 0.930 . S
C3467 C3468 1.355 . S
C3467 C3469 1.415 . S
C3468 C3467 1.355 . S
C3468 C3470 1.419 . S
C3469 C3464 1.425 . S
C3469 C3466 1.409 . S
C3469 C3467 1.415 . S
C3470 H3460 0.930 . S
C3470 C3468 1.419 . S
C3470 C3471 1.362 . S
C3471 H3461 0.930 . S
C3471 C3464 1.409 . S
C3471 C3470 1.362 . S
H3472 C3478 0.930 . S
H3473 C3481 0.930 . S
H3474 C3482 0.930 . S
H3475 C3483 0.930 . S
H3476 C3486 0.930 . S
H3477 C3487 0.930 . S
C3478 H3472 0.930 . S
C3478 C3479 1.355 . S
C3478 C3480 1.415 . S
C3479 C3478 1.355 . S
C3479 C3481 1.419 . S
C3480 C3478 1.415 . S
C3480 C3485 1.425 . S
C3480 C3487 1.409 . S
C3481 H3473 0.930 . S
C3481 C3479 1.419 . S
C3481 C3482 1.362 . S
C3482 H3474 0.930 . S
C3482 C3481 1.362 . S
C3482 C3485 1.409 . S
C3483 H3475 0.930 . S
C3483 C3484 1.355 . S
C3483 C3485 1.415 . S
C3484 C3483 1.355 . S
C3484 C3486 1.419 . S
C3485 C3480 1.425 . S
C3485 C3482 1.409 . S
C3485 C3483 1.415 . S
C3486 H3476 0.930 . S
C3486 C3484 1.419 . S
C3486 C3487 1.362 . S
C3487 H3477 0.930 . S
C3487 C3480 1.409 . S
C3487 C3486 1.362 . S
H3488 C3494 0.930 . S
H3489 C3497 0.930 . S
H3490 C3498 0.930 . S
H3491 C3499 0.930 . S
H3492 C3502 0.930 . S
H3493 C3503 0.930 . S
C3494 H3488 0.930 . S
C3494 C3495 1.355 . S
C3494 C3496 1.415 . S
C3495 C3494 1.355 . S
C3495 C3497 1.419 . S
C3496 C3494 1.415 . S
C3496 C3501 1.425 . S
C3496 C3503 1.409 . S
C3497 H3489 0.930 . S
C3497 C3495 1.419 . S
C3497 C3498 1.362 . S
C3498 H3490 0.930 . S
C3498 C3497 1.362 . S
C3498 C3501 1.409 . S
C3499 H3491 0.930 . S
C3499 C3500 1.355 . S
C3499 C3501 1.415 . S
C3500 C3499 1.355 . S
C3500 C3502 1.419 . S
C3501 C3496 1.425 . S
C3501 C3498 1.409 . S
C3501 C3499 1.415 . S
C3502 H3492 0.930 . S
C3502 C3500 1.419 . S
C3502 C3503 1.362 . S
C3503 H3493 0.930 . S
C3503 C3496 1.409 . S
C3503 C3502 1.362 . S
H3504 C3510 0.930 . S
H3505 C3513 0.930 . S
H3506 C3514 0.930 . S
H3507 C3515 0.930 . S
H3508 C3518 0.930 . S
H3509 C3519 0.930 . S
C3510 H3504 0.930 . S
C3510 C3511 1.355 . S
C3510 C3512 1.415 . S
C3511 C3510 1.355 . S
C3511 C3513 1.419 . S
C3512 C3510 1.415 . S
C3512 C3517 1.425 . S
C3512 C3519 1.409 . S
C3513 H3505 0.930 . S
C3513 C3511 1.419 . S
C3513 C3514 1.362 . S
C3514 H3506 0.930 . S
C3514 C3513 1.362 . S
C3514 C3517 1.409 . S
C3515 H3507 0.930 . S
C3515 C3516 1.355 . S
C3515 C3517 1.415 . S
C3516 C3515 1.355 . S
C3516 C3518 1.419 . S
C3517 C3512 1.425 . S
C3517 C3514 1.409 . S
C3517 C3515 1.415 . S
C3518 H3508 0.930 . S
C3518 C3516 1.419 . S
C3518 C3519 1.362 . S
C3519 H3509 0.930 . S
C3519 C3512 1.409 . S
C3519 C3518 1.362 . S
H3520 C3526 0.930 . S
H3521 C3529 0.930 . S
H3522 C3530 0.930 . S
H3523 C3531 0.930 . S
H3524 C3534 0.930 . S
H3525 C3535 0.930 . S
C3526 H3520 0.930 . S
C3526 C3527 1.355 . S
C3526 C3528 1.415 . S
C3527 C3526 1.355 . S
C3527 C3529 1.419 . S
C3528 C3526 1.415 . S
C3528 C3533 1.425 . S
C3528 C3535 1.409 . S
C3529 H3521 0.930 . S
C3529 C3527 1.419 . S
C3529 C3530 1.362 . S
C3530 H3522 0.930 . S
C3530 C3529 1.362 . S
C3530 C3533 1.409 . S
C3531 H3523 0.930 . S
C3531 C3532 1.355 . S
C3531 C3533 1.415 . S
C3532 C3531 1.355 . S
C3532 C3534 1.419 . S
C3533 C3528 1.425 . S
C3533 C3530 1.409 . S
C3533 C3531 1.415 . S
C3534 H3524 0.930 . S
C3534 C3532 1.419 . S
C3534 C3535 1.362 . S
C3535 H3525 0.930 . S
C3535 C3528 1.409 . S
C3535 C3534 1.362 . S
H3536 C3542 0.930 . S
H3537 C3545 0.930 . S
H3538 C3546 0.930 . S
H3539 C3547 0.930 . S
H3540 C3550 0.930 . S
H3541 C3551 0.930 . S
C3542 H3536 0.930 . S
C3542 C3543 1.355 . S
C3542 C3544 1.415 . S
C3543 C3542 1.355 . S
C3543 C3545 1.419 . S
C3544 C3542 1.415 . S
C3544 C3549 1.425 . S
C3544 C3551 1.409 . S
C3545 H3537 0.930 . S
C3545 C3543 1.419 . S
C3545 C3546 1.362 . S
C3546 H3538 0.930 . S
C3546 C3545 1.362 . S
C3546 C3549 1.409 . S
C3547 H3539 0.930 . S
C3547 C3548 1.355 . S
C3547 C3549 1.415 . S
C3548 C3547 1.355 . S
C3548 C3550 1.419 . S
C3549 C3544 1.425 . S
C3549 C3546 1.409 . S
C3549 C3547 1.415 . S
C3550 H3540 0.930 . S
C3550 C3548 1.419 . S
C3550 C3551 1.362 . S
C3551 H3541 0.930 . S
C3551 C3544 1.409 . S
C3551 C3550 1.362 . S
H3552 C3558 0.930 . S
H3553 C3561 0.930 . S
H3554 C3562 0.930 . S
H3555 C3563 0.930 . S
H3556 C3566 0.930 . S
H3557 C3567 0.930 . S
C3558 H3552 0.930 . S
C3558 C3559 1.355 . S
C3558 C3560 1.415 . S
C3559 C3558 1.355 . S
C3559 C3561 1.419 . S
C3560 C3558 1.415 . S
C3560 C3565 1.425 . S
C3560 C3567 1.409 . S
C3561 H3553 0.930 . S
C3561 C3559 1.419 . S
C3561 C3562 1.362 . S
C3562 H3554 0.930 . S
C3562 C3561 1.362 . S
C3562 C3565 1.409 . S
C3563 H3555 0.930 . S
C3563 C3564 1.355 . S
C3563 C3565 1.415 . S
C3564 C3563 1.355 . S
C3564 C3566 1.419 . S
C3565 C3560 1.425 . S
C3565 C3562 1.409 . S
C3565 C3563 1.415 . S
C3566 H3556 0.930 . S
C3566 C3564 1.419 . S
C3566 C3567 1.362 . S
C3567 H3557 0.930 . S
C3567 C3560 1.409 . S
C3567 C3566 1.362 . S
H3568 C3574 0.930 . S
H3569 C3577 0.930 . S
H3570 C3578 0.930 . S
H3571 C3579 0.930 . S
H3572 C3582 0.930 . S
H3573 C3583 0.930 . S
C3574 H3568 0.930 . S
C3574 C3575 1.355 . S
C3574 C3576 1.415 . S
C3575 C3574 1.355 . S
C3575 C3577 1.419 . S
C3576 C3574 1.415 . S
C3576 C3581 1.425 . S
C3576 C3583 1.409 . S
C3577 H3569 0.930 . S
C3577 C3575 1.419 . S
C3577 C3578 1.362 . S
C3578 H3570 0.930 . S
C3578 C3577 1.362 . S
C3578 C3581 1.409 . S
C3579 H3571 0.930 . S
C3579 C3580 1.355 . S
C3579 C3581 1.415 . S
C3580 C3579 1.355 . S
C3580 C3582 1.419 . S
C3581 C3576 1.425 . S
C3581 C3578 1.409 . S
C3581 C3579 1.415 . S
C3582 H3572 0.930 . S
C3582 C3580 1.419 . S
C3582 C3583 1.362 . S
C3583 H3573 0.930 . S
C3583 C3576 1.409 . S
C3583 C3582 1.362 . S
H3584 C3590 0.930 . S
H3585 C3593 0.930 . S
H3586 C3594 0.930 . S
H3587 C3595 0.930 . S
H3588 C3598 0.930 . S
H3589 C3599 0.930 . S
C3590 H3584 0.930 . S
C3590 C3591 1.355 . S
C3590 C3592 1.415 . S
C3591 C3590 1.355 . S
C3591 C3593 1.419 . S
C3592 C3590 1.415 . S
C3592 C3597 1.425 . S
C3592 C3599 1.409 . S
C3593 H3585 0.930 . S
C3593 C3591 1.419 . S
C3593 C3594 1.362 . S
C3594 H3586 0.930 . S
C3594 C3593 1.362 . S
C3594 C3597 1.409 . S
C3595 H3587 0.930 . S
C3595 C3596 1.355 . S
C3595 C3597 1.415 . S
C3596 C3595 1.355 . S
C3596 C3598 1.419 . S
C3597 C3592 1.425 . S
C3597 C3594 1.409 . S
C3597 C3595 1.415 . S
C3598 H3588 0.930 . S
C3598 C3596 1.419 . S
C3598 C3599 1.362 . S
C3599 H3589 0.930 . S
C3599 C3592 1.409 . S
C3599 C3598 1.362 . S
H3600 C3606 0.930 . S
H3601 C3609 0.930 . S
H3602 C3610 0.930 . S
H3603 C3611 0.930 . S
H3604 C3614 0.930 . S
H3605 C3615 0.930 . S
C3606 H3600 0.930 . S
C3606 C3607 1.355 . S
C3606 C3608 1.415 . S
C3607 C3606 1.355 . S
C3607 C3609 1.419 . S
C3608 C3606 1.415 . S
C3608 C3613 1.425 . S
C3608 C3615 1.409 . S
C3609 H3601 0.930 . S
C3609 C3607 1.419 . S
C3609 C3610 1.362 . S
C3610 H3602 0.930 . S
C3610 C3609 1.362 . S
C3610 C3613 1.409 . S
C3611 H3603 0.930 . S
C3611 C3612 1.355 . S
C3611 C3613 1.415 . S
C3612 C3611 1.355 . S
C3612 C3614 1.419 . S
C3613 C3608 1.425 . S
C3613 C3610 1.409 . S
C3613 C3611 1.415 . S
C3614 H3604 0.930 . S
C3614 C3612 1.419 . S
C3614 C3615 1.362 . S
C3615 H3605 0.930 . S
C3615 C3608 1.409 . S
C3615 C3614 1.362 . S
H3616 C3622 0.930 . S
H3617 C3625 0.930 . S
H3618 C3626 0.930 . S
H3619 C3627 0.930 . S
H3620 C3630 0.930 . S
H3621 C3631 0.930 . S
C3622 H3616 0.930 . S
C3622 C3623 1.355 . S
C3622 C3624 1.415 . S
C3623 C3622 1.355 . S
C3623 C3625 1.419 . S
C3624 C3622 1.415 . S
C3624 C3629 1.425 . S
C3624 C3631 1.409 . S
C3625 H3617 0.930 . S
C3625 C3623 1.419 . S
C3625 C3626 1.362 . S
C3626 H3618 0.930 . S
C3626 C3625 1.362 . S
C3626 C3629 1.409 . S
C3627 H3619 0.930 . S
C3627 C3628 1.355 . S
C3627 C3629 1.415 . S
C3628 C3627 1.355 . S
C3628 C3630 1.419 . S
C3629 C3624 1.425 . S
C3629 C3626 1.409 . S
C3629 C3627 1.415 . S
C3630 H3620 0.930 . S
C3630 C3628 1.419 . S
C3630 C3631 1.362 . S
C3631 H3621 0.930 . S
C3631 C3624 1.409 . S
C3631 C3630 1.362 . S
H3632 C3638 0.930 . S
H3633 C3641 0.930 . S
H3634 C3642 0.930 . S
H3635 C3643 0.930 . S
H3636 C3646 0.930 . S
H3637 C3647 0.930 . S
C3638 H3632 0.930 . S
C3638 C3639 1.355 . S
C3638 C3640 1.415 . S
C3639 C3638 1.355 . S
C3639 C3641 1.419 . S
C3640 C3638 1.415 . S
C3640 C3645 1.425 . S
C3640 C3647 1.409 . S
C3641 H3633 0.930 . S
C3641 C3639 1.419 . S
C3641 C3642 1.362 . S
C3642 H3634 0.930 . S
C3642 C3641 1.362 . S
C3642 C3645 1.409 . S
C3643 H3635 0.930 . S
C3643 C3644 1.355 . S
C3643 C3645 1.415 . S
C3644 C3643 1.355 . S
C3644 C3646 1.419 . S
C3645 C3640 1.425 . S
C3645 C3642 1.409 . S
C3645 C3643 1.415 . S
C3646 H3636 0.930 . S
C3646 C3644 1.419 . S
C3646 C3647 1.362 . S
C3647 H3637 0.930 . S
C3647 C3640 1.409 . S
C3647 C3646 1.362 . S
H3648 C3654 0.930 . S
H3649 C3657 0.930 . S
H3650 C3658 0.930 . S
H3651 C3659 0.930 . S
H3652 C3662 0.930 . S
H3653 C3663 0.930 . S
C3654 H3648 0.930 . S
C3654 C3655 1.355 . S
C3654 C3656 1.415 . S
C3655 C3654 1.355 . S
C3655 C3657 1.419 . S
C3656 C3654 1.415 . S
C3656 C3661 1.425 . S
C3656 C3663 1.409 . S
C3657 H3649 0.930 . S
C3657 C3655 1.419 . S
C3657 C3658 1.362 . S
C3658 H3650 0.930 . S
C3658 C3657 1.362 . S
C3658 C3661 1.409 . S
C3659 H3651 0.930 . S
C3659 C3660 1.355 . S
C3659 C3661 1.415 . S
C3660 C3659 1.355 . S
C3660 C3662 1.419 . S
C3661 C3656 1.425 . S
C3661 C3658 1.409 . S
C3661 C3659 1.415 . S
C3662 H3652 0.930 . S
C3662 C3660 1.419 . S
C3662 C3663 1.362 . S
C3663 H3653 0.930 . S
C3663 C3656 1.409 . S
C3663 C3662 1.362 . S
H3664 C3670 0.930 . S
H3665 C3673 0.930 . S
H3666 C3674 0.930 . S
H3667 C3675 0.930 . S
H3668 C3678 0.930 . S
H3669 C3679 0.930 . S
C3670 H3664 0.930 . S
C3670 C3671 1.355 . S
C3670 C3672 1.415 . S
C3671 C3670 1.355 . S
C3671 C3673 1.419 . S
C3672 C3670 1.415 . S
C3672 C3677 1.425 . S
C3672 C3679 1.409 . S
C3673 H3665 0.930 . S
C3673 C3671 1.419 . S
C3673 C3674 1.362 . S
C3674 H3666 0.930 . S
C3674 C3673 1.362 . S
C3674 C3677 1.409 . S
C3675 H3667 0.930 . S
C3675 C3676 1.355 . S
C3675 C3677 1.415 . S
C3676 C3675 1.355 . S
C3676 C3678 1.419 . S
C3677 C3672 1.425 . S
C3677 C3674 1.409 . S
C3677 C3675 1.415 . S
C3678 H3668 0.930 . S
C3678 C3676 1.419 . S
C3678 C3679 1.362 . S
C3679 H3669 0.930 . S
C3679 C3672 1.409 . S
C3679 C3678 1.362 . S
H3680 C3686 0.930 . S
H3681 C3689 0.930 . S
H3682 C3690 0.930 . S
H3683 C3691 0.930 . S
H3684 C3694 0.930 . S
H3685 C3695 0.930 . S
C3686 H3680 0.930 . S
C3686 C3687 1.355 . S
C3686 C3688 1.415 . S
C3687 C3686 1.355 . S
C3687 C3689 1.419 . S
C3688 C3686 1.415 . S
C3688 C3693 1.425 . S
C3688 C3695 1.409 . S
C3689 H3681 0.930 . S
C3689 C3687 1.419 . S
C3689 C3690 1.362 . S
C3690 H3682 0.930 . S
C3690 C3689 1.362 . S
C3690 C3693 1.409 . S
C3691 H3683 0.930 . S
C3691 C3692 1.355 . S
C3691 C3693 1.415 . S
C3692 C3691 1.355 . S
C3692 C3694 1.419 . S
C3693 C3688 1.425 . S
C3693 C3690 1.409 . S
C3693 C3691 1.415 . S
C3694 H3684 0.930 . S
C3694 C3692 1.419 . S
C3694 C3695 1.362 . S
C3695 H3685 0.930 . S
C3695 C3688 1.409 . S
C3695 C3694 1.362 . S
H3696 C3702 0.930 . S
H3697 C3705 0.930 . S
H3698 C3706 0.930 . S
H3699 C3707 0.930 . S
H3700 C3710 0.930 . S
H3701 C3711 0.930 . S
C3702 H3696 0.930 . S
C3702 C3703 1.355 . S
C3702 C3704 1.415 . S
C3703 C3702 1.355 . S
C3703 C3705 1.419 . S
C3704 C3702 1.415 . S
C3704 C3709 1.425 . S
C3704 C3711 1.409 . S
C3705 H3697 0.930 . S
C3705 C3703 1.419 . S
C3705 C3706 1.362 . S
C3706 H3698 0.930 . S
C3706 C3705 1.362 . S
C3706 C3709 1.409 . S
C3707 H3699 0.930 . S
C3707 C3708 1.355 . S
C3707 C3709 1.415 . S
C3708 C3707 1.355 . S
C3708 C3710 1.419 . S
C3709 C3704 1.425 . S
C3709 C3706 1.409 . S
C3709 C3707 1.415 . S
C3710 H3700 0.930 . S
C3710 C3708 1.419 . S
C3710 C3711 1.362 . S
C3711 H3701 0.930 . S
C3711 C3704 1.409 . S
C3711 C3710 1.362 . S
H3712 C3718 0.930 . S
H3713 C3721 0.930 . S
H3714 C3722 0.930 . S
H3715 C3723 0.930 . S
H3716 C3726 0.930 . S
H3717 C3727 0.930 . S
C3718 H3712 0.930 . S
C3718 C3719 1.355 . S
C3718 C3720 1.415 . S
C3719 C3718 1.355 . S
C3719 C3721 1.419 . S
C3720 C3718 1.415 . S
C3720 C3725 1.425 . S
C3720 C3727 1.409 . S
C3721 H3713 0.930 . S
C3721 C3719 1.419 . S
C3721 C3722 1.362 . S
C3722 H3714 0.930 . S
C3722 C3721 1.362 . S
C3722 C3725 1.409 . S
C3723 H3715 0.930 . S
C3723 C3724 1.355 . S
C3723 C3725 1.415 . S
C3724 C3723 1.355 . S
C3724 C3726 1.419 . S
C3725 C3720 1.425 . S
C3725 C3722 1.409 . S
C3725 C3723 1.415 . S
C3726 H3716 0.930 . S
C3726 C3724 1.419 . S
C3726 C3727 1.362 . S
C3727 H3717 0.930 . S
C3727 C3720 1.409 . S
C3727 C3726 1.362 . S
H3728 C3734 0.930 . S
H3729 C3737 0.930 . S
H3730 C3738 0.930 . S
H3731 C3739 0.930 . S
H3732 C3742 0.930 . S
H3733 C3743 0.930 . S
C3734 H3728 0.930 . S
C3734 C3735 1.355 . S
C3734 C3736 1.415 . S
C3735 C3734 1.355 . S
C3735 C3737 1.419 . S
C3736 C3734 1.415 . S
C3736 C3741 1.425 . S
C3736 C3743 1.409 . S
C3737 H3729 0.930 . S
C3737 C3735 1.419 . S
C3737 C3738 1.362 . S
C3738 H3730 0.930 . S
C3738 C3737 1.362 . S
C3738 C3741 1.409 . S
C3739 H3731 0.930 . S
C3739 C3740 1.355 . S
C3739 C3741 1.415 . S
C3740 C3739 1.355 . S
C3740 C3742 1.419 . S
C3741 C3736 1.425 . S
C3741 C3738 1.409 . S
C3741 C3739 1.415 . S
C3742 H3732 0.930 . S
C3742 C3740 1.419 . S
C3742 C3743 1.362 . S
C3743 H3733 0.930 . S
C3743 C3736 1.409 . S
C3743 C3742 1.362 . S
H3744 C3750 0.930 . S
H3745 C3753 0.930 . S
H3746 C3754 0.930 . S
H3747 C3755 0.930 . S
H3748 C3758 0.930 . S
H3749 C3759 0.930 . S
C3750 H3744 0.930 . S
C3750 C3751 1.355 . S
C3750 C3752 1.415 . S
C3751 C3750 1.355 . S
C3751 C3753 1.419 . S
C3752 C3750 1.415 . S
C3752 C3757 1.425 . S
C3752 C3759 1.409 . S
C3753 H3745 0.930 . S
C3753 C3751 1.419 . S
C3753 C3754 1.362 . S
C3754 H3746 0.930 . S
C3754 C3753 1.362 . S
C3754 C3757 1.409 . S
C3755 H3747 0.930 . S
C3755 C3756 1.355 . S
C3755 C3757 1.415 . S
C3756 C3755 1.355 . S
C3756 C3758 1.419 . S
C3757 C3752 1.425 . S
C3757 C3754 1.409 . S
C3757 C3755 1.415 . S
C3758 H3748 0.930 . S
C3758 C3756 1.419 . S
C3758 C3759 1.362 . S
C3759 H3749 0.930 . S
C3759 C3752 1.409 . S
C3759 C3758 1.362 . S
H3760 C3766 0.930 . S
H3761 C3769 0.930 . S
H3762 C3770 0.930 . S
H3763 C3771 0.930 . S
H3764 C3774 0.930 . S
H3765 C3775 0.930 . S
C3766 H3760 0.930 . S
C3766 C3767 1.355 . S
C3766 C3768 1.415 . S
C3767 C3766 1.355 . S
C3767 C3769 1.419 . S
C3768 C3766 1.415 . S
C3768 C3773 1.425 . S
C3768 C3775 1.409 . S
C3769 H3761 0.930 . S
C3769 C3767 1.419 . S
C3769 C3770 1.362 . S
C3770 H3762 0.930 . S
C3770 C3769 1.362 . S
C3770 C3773 1.409 . S
C3771 H3763 0.930 . S
C3771 C3772 1.355 . S
C3771 C3773 1.415 . S
C3772 C3771 1.355 . S
C3772 C3774 1.419 . S
C3773 C3768 1.425 . S
C3773 C3770 1.409 . S
C3773 C3771 1.415 . S
C3774 H3764 0.930 . S
C3774 C3772 1.419 . S
C3774 C3775 1.362 . S
C3775 H3765 0.930 . S
C3775 C3768 1.409 . S
C3775 C3774 1.362 . S
H3776 C3782 0.930 . S
H3777 C3785 0.930 . S
H3778 C3786 0.930 . S
H3779 C3787 0.930 . S
H3780 C3790 0.930 . S
H3781 C3791 0.930 . S
C3782 H3776 0.930 . S
C3782 C3783 1.355 . S
C3782 C3784 1.415 . S
C3783 C3782 1.355 . S
C3783 C3785 1.419 . S
C3784 C3782 1.415 . S
C3784 C3789 1.425 . S
C3784 C3791 1.409 . S
C3785 H3777 0.930 . S
C3785 C3783 1.419 . S
C3785 C3786 1.362 . S
C3786 H3778 0.930 . S
C3786 C3785 1.362 . S
C3786 C3789 1.409 . S
C3787 H3779 0.930 . S
C3787 C3788 1.355 . S
C3787 C3789 1.415 . S
C3788 C3787 1.355 . S
C3788 C3790 1.419 . S
C3789 C3784 1.425 . S
C3789 C3786 1.409 . S
C3789 C3787 1.415 . S
C3790 H3780 0.930 . S
C3790 C3788 1.419 . S
C3790 C3791 1.362 . S
C3791 H3781 0.930 . S
C3791 C3784 1.409 . S
C3791 C3790 1.362 . S
H3792 C3798 0.930 . S
H3793 C3801 0.930 . S
H3794 C3802 0.930 . S
H3795 C3803 0.930 . S
H3796 C3806 0.930 . S
H3797 C3807 0.930 . S
C3798 H3792 0.930 . S
C3798 C3799 1.355 . S
C3798 C3800 1.415 . S
C3799 C3798 1.355 . S
C3799 C3801 1.419 . S
C3800 C3798 1.415 . S
C3800 C3805 1.425 . S
C3800 C3807 1.409 . S
C3801 H3793 0.930 . S
C3801 C3799 1.419 . S
C3801 C3802 1.362 . S
C3802 H3794 0.930 . S
C3802 C3801 1.362 . S
C3802 C3805 1.409 . S
C3803 H3795 0.930 . S
C3803 C3804 1.355 . S
C3803 C3805 1.415 . S
C3804 C3803 1.355 . S
C3804 C3806 1.419 . S
C3805 C3800 1.425 . S
C3805 C3802 1.409 . S
C3805 C3803 1.415 . S
C3806 H3796 0.930 . S
C3806 C3804 1.419 . S
C3806 C3807 1.362 . S
C3807 H3797 0.930 . S
C3807 C3800 1.409 . S
C3807 C3806 1.362 . S
H3808 C3814 0.930 . S
H3809 C3817 0.930 . S
H3810 C3818 0.930 . S
H3811 C3819 0.930 . S
H3812 C3822 0.930 . S
H3813 C3823 0.930 . S
C3814 H3808 0.930 . S
C3814 C3815 1.355 . S
C3814 C3816 1.415 . S
C3815 C3814 1.355 . S
C3815 C3817 1.419 . S
C3816 C3814 1.415 . S
C3816 C3821 1.425 . S
C3816 C3823 1.409 . S
C3817 H3809 0.930 . S
C3817 C3815 1.419 . S
C3817 C3818 1.362 . S
C3818 H3810 0.930 . S
C3818 C3817 1.362 . S
C3818 C3821 1.409 . S
C3819 H3811 0.930 . S
C3819 C3820 1.355 . S
C3819 C3821 1.415 . S
C3820 C3819 1.355 . S
C3820 C3822 1.419 . S
C3821 C3816 1.425 . S
C3821 C3818 1.409 . S
C3821 C3819 1.415 . S
C3822 H3812 0.930 . S
C3822 C3820 1.419 . S
C3822 C3823 1.362 . S
C3823 H3813 0.930 . S
C3823 C3816 1.409 . S
C3823 C3822 1.362 . S
H3824 C3830 0.930 . S
H3825 C3833 0.930 . S
H3826 C3834 0.930 . S
H3827 C3835 0.930 . S
H3828 C3838 0.930 . S
H3829 C3839 0.930 . S
C3830 H3824 0.930 . S
C3830 C3831 1.355 . S
C3830 C3832 1.415 . S
C3831 C3830 1.355 . S
C3831 C3833 1.419 . S
C3832 C3830 1.415 . S
C3832 C3837 1.425 . S
C3832 C3839 1.409 . S
C3833 H3825 0.930 . S
C3833 C3831 1.419 . S
C3833 C3834 1.362 . S
C3834 H3826 0.930 . S
C3834 C3833 1.362 . S
C3834 C3837 1.409 . S
C3835 H3827 0.930 . S
C3835 C3836 1.355 . S
C3835 C3837 1.415 . S
C3836 C3835 1.355 . S
C3836 C3838 1.419 . S
C3837 C3832 1.425 . S
C3837 C3834 1.409 . S
C3837 C3835 1.415 . S
C3838 H3828 0.930 . S
C3838 C3836 1.419 . S
C3838 C3839 1.362 . S
C3839 H3829 0.930 . S
C3839 C3832 1.409 . S
C3839 C3838 1.362 . S
H3840 C3846 0.930 . S
H3841 C3849 0.930 . S
H3842 C3850 0.930 . S
H3843 C3851 0.930 . S
H3844 C3854 0.930 . S
H3845 C3855 0.930 . S
C3846 H3840 0.930 . S
C3846 C3847 1.355 . S
C3846 C3848 1.415 . S
C3847 C3846 1.355 . S
C3847 C3849 1.419 . S
C3848 C3846 1.415 . S
C3848 C3853 1.425 . S
C3848 C3855 1.409 . S
C3849 H3841 0.930 . S
C3849 C3847 1.419 . S
C3849 C3850 1.362 . S
C3850 H3842 0.930 . S
C3850 C3849 1.362 . S
C3850 C3853 1.409 . S
C3851 H3843 0.930 . S
C3851 C3852 1.355 . S
C3851 C3853 1.415 . S
C3852 C3851 1.355 . S
C3852 C3854 1.419 . S
C3853 C3848 1.425 . S
C3853 C3850 1.409 . S
C3853 C3851 1.415 . S
C3854 H3844 0.930 . S
C3854 C3852 1.419 . S
C3854 C3855 1.362 . S
C3855 H3845 0.930 . S
C3855 C3848 1.409 . S
C3855 C3854 1.362 . S
H3856 C3862 0.930 . S
H3857 C3865 0.930 . S
H3858 C3866 0.930 . S
H3859 C3867 0.930 . S
H3860 C3870 0.930 . S
H3861 C3871 0.930 . S
C3862 H3856 0.930 . S
C3862 C3863 1.355 . S
C3862 C3864 1.415 . S
C3863 C3862 1.355 . S
C3863 C3865 1.419 . S
C3864 C3862 1.415 . S
C3864 C3869 1.425 . S
C3864 C3871 1.409 . S
C3865 H3857 0.930 . S
C3865 C3863 1.419 . S
C3865 C3866 1.362 . S
C3866 H3858 0.930 . S
C3866 C3865 1.362 . S
C3866 C3869 1.409 . S
C3867 H3859 0.930 . S
C3867 C3868 1.355 . S
C3867 C3869 1.415 . S
C3868 C3867 1.355 . S
C3868 C3870 1.419 . S
C3869 C3864 1.425 . S
C3869 C3866 1.409 . S
C3869 C3867 1.415 . S
C3870 H3860 0.930 . S
C3870 C3868 1.419 . S
C3870 C3871 1.362 . S
C3871 H3861 0.930 . S
C3871 C3864 1.409 . S
C3871 C3870 1.362 . S
H3872 C3878 0.930 . S
H3873 C3881 0.930 . S
H3874 C3882 0.930 . S
H3875 C3883 0.930 . S
H3876 C3886 0.930 . S
H3877 C3887 0.930 . S
C3878 H3872 0.930 . S
C3878 C3879 1.355 . S
C3878 C3880 1.415 . S
C3879 C3878 1.355 . S
C3879 C3881 1.419 . S
C3880 C3878 1.415 . S
C3880 C3885 1.425 . S
C3880 C3887 1.409 . S
C3881 H3873 0.930 . S
C3881 C3879 1.419 . S
C3881 C3882 1.362 . S
C3882 H3874 0.930 . S
C3882 C3881 1.362 . S
C3882 C3885 1.409 . S
C3883 H3875 0.930 . S
C3883 C3884 1.355 . S
C3883 C3885 1.415 . S
C3884 C3883 1.355 . S
C3884 C3886 1.419 . S
C3885 C3880 1.425 . S
C3885 C3882 1.409 . S
C3885 C3883 1.415 . S
C3886 H3876 0.930 . S
C3886 C3884 1.419 . S
C3886 C3887 1.362 . S
C3887 H3877 0.930 . S
C3887 C3880 1.409 . S
C3887 C3886 1.362 . S
H3888 C3894 0.930 . S
H3889 C3897 0.930 . S
H3890 C3898 0.930 . S
H3891 C3899 0.930 . S
H3892 C3902 0.930 . S
H3893 C3903 0.930 . S
C3894 H3888 0.930 . S
C3894 C3895 1.355 . S
C3894 C3896 1.415 . S
C3895 C3894 1.355 . S
C3895 C3897 1.419 . S
C3896 C3894 1.415 . S
C3896 C3901 1.425 . S
C3896 C3903 1.409 . S
C3897 H3889 0.930 . S
C3897 C3895 1.419 . S
C3897 C3898 1.362 . S
C3898 H3890 0.930 . S
C3898 C3897 1.362 . S
C3898 C3901 1.409 . S
C3899 H3891 0.930 . S
C3899 C3900 1.355 . S
C3899 C3901 1.415 . S
C3900 C3899 1.355 . S
C3900 C3902 1.419 . S
C3901 C3896 1.425 . S
C3901 C3898 1.409 . S
C3901 C3899 1.415 . S
C3902 H3892 0.930 . S
C3902 C3900 1.419 . S
C3902 C3903 1.362 . S
C3903 H3893 0.930 . S
C3903 C3896 1.409 . S
C3903 C3902 1.362 . S
H3904 C3910 0.930 . S
H3905 C3913 0.930 . S
H3906 C3914 0.930 . S
H3907 C3915 0.930 . S
H3908 C3918 0.930 . S
H3909 C3919 0.930 . S
C3910 H3904 0.930 . S
C3910 C3911 1.355 . S
C3910 C3912 1.415 . S
C3911 C3910 1.355 . S
C3911 C3913 1.419 . S
C3912 C3910 1.415 . S
C3912 C3917 1.425 . S
C3912 C3919 1.409 . S
C3913 H3905 0.930 . S
C3913 C3911 1.419 . S
C3913 C3914 1.362 . S
C3914 H3906 0.930 . S
C3914 C3913 1.362 . S
C3914 C3917 1.409 . S
C3915 H3907 0.930 . S
C3915 C3916 1.355 . S
C3915 C3917 1.415 . S
C3916 C3915 1.355 . S
C3916 C3918 1.419 . S
C3917 C3912 1.425 . S
C3917 C3914 1.409 . S
C3917 C3915 1.415 . S
C3918 H3908 0.930 . S
C3918 C3916 1.419 . S
C3918 C3919 1.362 . S
C3919 H3909 0.930 . S
C3919 C3912 1.409 . S
C3919 C3918 1.362 . S
H3920 C3926 0.930 . S
H3921 C3929 0.930 . S
H3922 C3930 0.930 . S
H3923 C3931 0.930 . S
H3924 C3934 0.930 . S
H3925 C3935 0.930 . S
C3926 H3920 0.930 . S
C3926 C3927 1.355 . S
C3926 C3928 1.415 . S
C3927 C3926 1.355 . S
C3927 C3929 1.419 . S
C3928 C3926 1.415 . S
C3928 C3933 1.425 . S
C3928 C3935 1.409 . S
C3929 H3921 0.930 . S
C3929 C3927 1.419 . S
C3929 C3930 1.362 . S
C3930 H3922 0.930 . S
C3930 C3929 1.362 . S
C3930 C3933 1.409 . S
C3931 H3923 0.930 . S
C3931 C3932 1.355 . S
C3931 C3933 1.415 . S
C3932 C3931 1.355 . S
C3932 C3934 1.419 . S
C3933 C3928 1.425 . S
C3933 C3930 1.409 . S
C3933 C3931 1.415 . S
C3934 H3924 0.930 . S
C3934 C3932 1.419 . S
C3934 C3935 1.362 . S
C3935 H3925 0.930 . S
C3935 C3928 1.409 . S
C3935 C3934 1.362 . S
H3936 C3942 0.930 . S
H3937 C3945 0.930 . S
H3938 C3946 0.930 . S
H3939 C3947 0.930 . S
H3940 C3950 0.930 . S
H3941 C3951 0.930 . S
C3942 H3936 0.930 . S
C3942 C3943 1.355 . S
C3942 C3944 1.415 . S
C3943 C3942 1.355 . S
C3943 C3945 1.419 . S
C3944 C3942 1.415 . S
C3944 C3949 1.425 . S
C3944 C3951 1.409 . S
C3945 H3937 0.930 . S
C3945 C3943 1.419 . S
C3945 C3946 1.362 . S
C3946 H3938 0.930 . S
C3946 C3945 1.362 . S
C3946 C3949 1.409 . S
C3947 H3939 0.930 . S
C3947 C3948 1.355 . S
C3947 C3949 1.415 . S
C3948 C3947 1.355 . S
C3948 C3950 1.419 . S
C3949 C3944 1.425 . S
C3949 C3946 1.409 . S
C3949 C3947 1.415 . S
C3950 H3940 0.930 . S
C3950 C3948 1.419 . S
C3950 C3951 1.362 . S
C3951 H3941 0.930 . S
C3951 C3944 1.409 . S
C3951 C3950 1.362 . S
H3952 C3958 0.930 . S
H3953 C3961 0.930 . S
H3954 C3962 0.930 . S
H3955 C3963 0.930 . S
H3956 C3966 0.930 . S
H3957 C3967 0.930 . S
C3958 H3952 0.930 . S
C3958 C3959 1.355 . S
C3958 C3960 1.415 . S
C3959 C3958 1.355 . S
C3959 C3961 1.419 . S
C3960 C3958 1.415 . S
C3960 C3965 1.425 . S
C3960 C3967 1.409 . S
C3961 H3953 0.930 . S
C3961 C3959 1.419 . S
C3961 C3962 1.362 . S
C3962 H3954 0.930 . S
C3962 C3961 1.362 . S
C3962 C3965 1.409 . S
C3963 H3955 0.930 . S
C3963 C3964 1.355 . S
C3963 C3965 1.415 . S
C3964 C3963 1.355 . S
C3964 C3966 1.419 . S
C3965 C3960 1.425 . S
C3965 C3962 1.409 . S
C3965 C3963 1.415 . S
C3966 H3956 0.930 . S
C3966 C3964 1.419 . S
C3966 C3967 1.362 . S
C3967 H3957 0.930 . S
C3967 C3960 1.409 . S
C3967 C3966 1.362 . S
H3968 C3974 0.930 . S
H3969 C3977 0.930 . S
H3970 C3978 0.930 . S
H3971 C3979 0.930 . S
H3972 C3982 0.930 . S
H3973 C3983 0.930 . S
C3974 H3968 0.930 . S
C3974 C3975 1.355 . S
C3974 C3976 1.415 . S
C3975 C3974 1.355 . S
C3975 C3977 1.419 . S
C3976 C3974 1.415 . S
C3976 C3981 1.425 . S
C3976 C3983 1.409 . S
C3977 H3969 0.930 . S
C3977 C3975 1.419 . S
C3977 C3978 1.362 . S
C3978 H3970 0.930 . S
C3978 C3977 1.362 . S
C3978 C3981 1.409 . S
C3979 H3971 0.930 . S
C3979 C3980 1.355 . S
C3979 C3981 1.415 . S
C3980 C3979 1.355 . S
C3980 C3982 1.419 . S
C3981 C3976 1.425 . S
C3981 C3978 1.409 . S
C3981 C3979 1.415 . S
C3982 H3972 0.930 . S
C3982 C3980 1.419 . S
C3982 C3983 1.362 . S
C3983 H3973 0.930 . S
C3983 C3976 1.409 . S
C3983 C3982 1.362 . S
H3984 C3990 0.930 . S
H3985 C3993 0.930 . S
H3986 C3994 0.930 . S
H3987 C3995 0.930 . S
H3988 C3998 0.930 . S
H3989 C3999 0.930 . S
C3990 H3984 0.930 . S
C3990 C3991 1.355 . S
C3990 C3992 1.415 . S
C3991 C3990 1.355 . S
C3991 C3993 1.419 . S
C3992 C3990 1.415 . S
C3992 C3997 1.425 . S
C3992 C3999 1.409 . S
C3993 H3985 0.930 . S
C3993 C3991 1.419 . S
C3993 C3994 1.362 . S
C3994 H3986 0.930 . S
C3994 C3993 1.362 . S
C3994 C3997 1.409 . S
C3995 H3987 0.930 . S
C3995 C3996 1.355 . S
C3995 C3997 1.415 . S
C3996 C3995 1.355 . S
C3996 C3998 1.419 . S
C3997 C3992 1.425 . S
C3997 C3994 1.409 . S
C3997 C3995 1.415 . S
C3998 H3988 0.930 . S
C3998 C3996 1.419 . S
C3998 C3999 1.362 . S
C3999 H3989 0.930 . S
C3999 C3992 1.409 . S
C3999 C3998 1.362 . S
H4000 C4006 0.930 . S
H4001 C4009 0.930 . S
H4002 C4010 0.930 . S
H4003 C4011 0.930 . S
H4004 C4014 0.930 . S
H4005 C4015 0.930 . S
C4006 H4000 0.930 . S
C4006 C4007 1.355 . S
C4006 C4008 1.415 . S
C4007 C4006 1.355 . S
C4007 C4009 1.419 . S
C4008 C4006 1.415 . S
C4008 C4013 1.425 . S
C4008 C4015 1.409 . S
C4009 H4001 0.930 . S
C4009 C4007 1.419 . S
C4009 C4010 1.362 . S
C4010 H4002 0.930 . S
C4010 C4009 1.362 . S
C4010 C4013 1.409 . S
C4011 H4003 0.930 . S
C4011 C4012 1.355 . S
C4011 C4013 1.415 . S
C4012 C4011 1.355 . S
C4012 C4014 1.419 . S
C4013 C4008 1.425 . S
C4013 C4010 1.409 . S
C4013 C4011 1.415 . S
C4014 H4004 0.930 . S
C4014 C4012 1.419 . S
C4014 C4015 1.362 . S
C4015 H4005 0.930 . S
C4015 C4008 1.409 . S
C4015 C4014 1.362 . S
H4016 C4022 0.930 . S
H4017 C4025 0.930 . S
H4018 C4026 0.930 . S
H4019 C4027 0.930 . S
H4020 C4030 0.930 . S
H4021 C4031 0.930 . S
C4022 H4016 0.930 . S
C4022 C4023 1.355 . S
C4022 C4024 1.415 . S
C4023 C4022 1.355 . S
C4023 C4025 1.419 . S
C4024 C4022 1.415 . S
C4024 C4029 1.425 . S
C4024 C4031 1.409 . S
C4025 H4017 0.930 . S
C4025 C4023 1.419 . S
C4025 C4026 1.362 . S
C4026 H4018 0.930 . S
C4026 C4025 1.362 . S
C4026 C4029 1.409 . S
C4027 H4019 0.930 . S
C4027 C4028 1.355 . S
C4027 C4029 1.415 . S
C4028 C4027 1.355 . S
C4028 C4030 1.419 . S
C4029 C4024 1.425 . S
C4029 C4026 1.409 . S
C4029 C4027 1.415 . S
C4030 H4020 0.930 . S
C4030 C4028 1.419 . S
C4030 C4031 1.362 . S
C4031 H4021 0.930 . S
C4031 C4024 1.409 . S
C4031 C4030 1.362 . S
H4032 C4038 0.930 . S
H4033 C4041 0.930 . S
H4034 C4042 0.930 . S
H4035 C4043 0.930 . S
H4036 C4046 0.930 . S
H4037 C4047 0.930 . S
C4038 H4032 0.930 . S
C4038 C4039 1.355 . S
C4038 C4040 1.415 . S
C4039 C4038 1.355 . S
C4039 C4041 1.419 . S
C4040 C4038 1.415 . S
C4040 C4045 1.425 . S
C4040 C4047 1.409 . S
C4041 H4033 0.930 . S
C4041 C4039 1.419 . S
C4041 C4042 1.362 . S
C4042 H4034 0.930 . S
C4042 C4041 1.362 . S
C4042 C4045 1.409 . S
C4043 H4035 0.930 . S
C4043 C4044 1.355 . S
C4043 C4045 1.415 . S
C4044 C4043 1.355 . S
C4044 C4046 1.419 . S
C4045 C4040 1.425 . S
C4045 C4042 1.409 . S
C4045 C4043 1.415 . S
C4046 H4036 0.930 . S
C4046 C4044 1.419 . S
C4046 C4047 1.362 . S
C4047 H4037 0.930 . S
C4047 C4040 1.409 . S
C4047 C4046 1.362 . S
H4048 C4054 0.930 . S
H4049 C4057 0.930 . S
H4050 C4058 0.930 . S
H4051 C4059 0.930 . S
H4052 C4062 0.930 . S
H4053 C4063 0.930 . S
C4054 H4048 0.930 . S
C4054 C4055 1.355 . S
C4054 C4056 1.415 . S
C4055 C4054 1.355 . S
C4055 C4057 1.419 . S
C4056 C4054 1.415 . S
C4056 C4061 1.425 . S
C4056 C4063 1.409 . S
C4057 H4049 0.930 . S
C4057 C4055 1.419 . S
C4057 C4058 1.362 . S
C4058 H4050 0.930 . S
C4058 C4057 1.362 . S
C4058 C4061 1.409 . S
C4059 H4051 0.930 . S
C4059 C4060 1.355 . S
C4059 C4061 1.415 . S
C4060 C4059 1.355 . S
C4060 C4062 1.419 . S
C4061 C4056 1.425 . S
C4061 C4058 1.409 . S
C4061 C4059 1.415 . S
C4062 H4052 0.930 . S
C4062 C4060 1.419 . S
C4062 C4063 1.362 . S
C4063 H4053 0.930 . S
C4063 C4056 1.409 . S
C4063 C4062 1.362 . S
H4064 C4070 0.930 . S
H4065 C4073 0.930 . S
H4066 C4074 0.930 . S
H4067 C4075 0.930 . S
H4068 C4078 0.930 . S
H4069 C4079 0.930 . S
C4070 H4064 0.930 . S
C4070 C4071 1.355 . S
C4070 C4072 1.415 . S
C4071 C4070 1.355 . S
C4071 C4073 1.419 . S
C4072 C4070 1.415 . S
C4072 C4077 1.425 . S
C4072 C4079 1.409 . S
C4073 H4065 0.930 . S
C4073 C4071 1.419 . S
C4073 C4074 1.362 . S
C4074 H4066 0.930 . S
C4074 C4073 1.362 . S
C4074 C4077 1.409 . S
C4075 H4067 0.930 . S
C4075 C4076 1.355 . S
C4075 C4077 1.415 . S
C4076 C4075 1.355 . S
C4076 C4078 1.419 . S
C4077 C4072 1.425 . S
C4077 C4074 1.409 . S
C4077 C4075 1.415 . S
C4078 H4068 0.930 . S
C4078 C4076 1.419 . S
C4078 C4079 1.362 . S
C4079 H4069 0.930 . S
C4079 C4072 1.409 . S
C4079 C4078 1.362 . S
H4080 C4086 0.930 . S
H4081 C4089 0.930 . S
H4082 C4090 0.930 . S
H4083 C4091 0.930 . S
H4084 C4094 0.930 . S
H4085 C4095 0.930 . S
C4086 H4080 0.930 . S
C4086 C4087 1.355 . S
C4086 C4088 1.415 . S
C4087 C4086 1.355 . S
C4087 C4089 1.419 . S
C4088 C4086 1.415 . S
C4088 C4093 1.425 . S
C4088 C4095 1.409 . S
C4089 H4081 0.930 . S
C4089 C4087 1.419 . S
C4089 C4090 1.362 . S
C4090 H4082 0.930 . S
C4090 C4089 1.362 . S
C4090 C4093 1.409 . S
C4091 H4083 0.930 . S
C4091 C4092 1.355 . S
C4091 C4093 1.415 . S
C4092 C4091 1.355 . S
C4092 C4094 1.419 . S
C4093 C4088 1.425 . S
C4093 C4090 1.409 . S
C4093 C4091 1.415 . S
C4094 H4084 0.930 . S
C4094 C4092 1.419 . S
C4094 C4095 1.362 . S
C4095 H4085 0.930 . S
C4095 C4088 1.409 . S
C4095 C4094 1.362 . S
H4096 C4102 0.930 . S
H4097 C4105 0.930 . S
H4098 C4106 0.930 . S
H4099 C4107 0.930 . S
H4100 C4110 0.930 . S
H4101 C4111 0.930 . S
C4102 H4096 0.930 . S
C4102 C4103 1.355 . S
C4102 C4104 1.415 . S
C4103 C4102 1.355 . S
C4103 C4105 1.419 . S
C4104 C4102 1.415 . S
C4104 C4109 1.425 . S
C4104 C4111 1.409 . S
C4105 H4097 0.930 . S
C4105 C4103 1.419 . S
C4105 C4106 1.362 . S
C4106 H4098 0.930 . S
C4106 C4105 1.362 . S
C4106 C4109 1.409 . S
C4107 H4099 0.930 . S
C4107 C4108 1.355 . S
C4107 C4109 1.415 . S
C4108 C4107 1.355 . S
C4108 C4110 1.419 . S
C4109 C4104 1.425 . S
C4109 C4106 1.409 . S
C4109 C4107 1.415 . S
C4110 H4100 0.930 . S
C4110 C4108 1.419 . S
C4110 C4111 1.362 . S
C4111 H4101 0.930 . S
C4111 C4104 1.409 . S
C4111 C4110 1.362 . S
H4112 C4118 0.930 . S
H4113 C4121 0.930 . S
H4114 C4122 0.930 . S
H4115 C4123 0.930 . S
H4116 C4126 0.930 . S
H4117 C4127 0.930 . S
C4118 H4112 0.930 . S
C4118 C4119 1.355 . S
C4118 C4120 1.415 . S
C4119 C4118 1.355 . S
C4119 C4121 1.419 . S
C4120 C4118 1.415 . S
C4120 C4125 1.425 . S
C4120 C4127 1.409 . S
C4121 H4113 0.930 . S
C4121 C4119 1.419 . S
C4121 C4122 1.362 . S
C4122 H4114 0.930 . S
C4122 C4121 1.362 . S
C4122 C4125 1.409 . S
C4123 H4115 0.930 . S
C4123 C4124 1.355 . S
C4123 C4125 1.415 . S
C4124 C4123 1.355 . S
C4124 C4126 1.419 . S
C4125 C4120 1.425 . S
C4125 C4122 1.409 . S
C4125 C4123 1.415 . S
C4126 H4116 0.930 . S
C4126 C4124 1.419 . S
C4126 C4127 1.362 . S
C4127 H4117 0.930 . S
C4127 C4120 1.409 . S
C4127 C4126 1.362 . S
H4128 C4134 0.930 . S
H4129 C4137 0.930 . S
H4130 C4138 0.930 . S
H4131 C4139 0.930 . S
H4132 C4142 0.930 . S
H4133 C4143 0.930 . S
C4134 H4128 0.930 . S
C4134 C4135 1.355 . S
C4134 C4136 1.415 . S
C4135 C4134 1.355 . S
C4135 C4137 1.419 . S
C4136 C4134 1.415 . S
C4136 C4141 1.425 . S
C4136 C4143 1.409 . S
C4137 H4129 0.930 . S
C4137 C4135 1.419 . S
C4137 C4138 1.362 . S
C4138 H4130 0.930 . S
C4138 C4137 1.362 . S
C4138 C4141 1.409 . S
C4139 H4131 0.930 . S
C4139 C4140 1.355 . S
C4139 C4141 1.415 . S
C4140 C4139 1.355 . S
C4140 C4142 1.419 . S
C4141 C4136 1.425 . S
C4141 C4138 1.409 . S
C4141 C4139 1.415 . S
C4142 H4132 0.930 . S
C4142 C4140 1.419 . S
C4142 C4143 1.362 . S
C4143 H4133 0.930 . S
C4143 C4136 1.409 . S
C4143 C4142 1.362 . S
H4144 C4150 0.930 . S
H4145 C4153 0.930 . S
H4146 C4154 0.930 . S
H4147 C4155 0.930 . S
H4148 C4158 0.930 . S
H4149 C4159 0.930 . S
C4150 H4144 0.930 . S
C4150 C4151 1.355 . S
C4150 C4152 1.415 . S
C4151 C4150 1.355 . S
C4151 C4153 1.419 . S
C4152 C4150 1.415 . S
C4152 C4157 1.425 . S
C4152 C4159 1.409 . S
C4153 H4145 0.930 . S
C4153 C4151 1.419 . S
C4153 C4154 1.362 . S
C4154 H4146 0.930 . S
C4154 C4153 1.362 . S
C4154 C4157 1.409 . S
C4155 H4147 0.930 . S
C4155 C4156 1.355 . S
C4155 C4157 1.415 . S
C4156 C4155 1.355 . S
C4156 C4158 1.419 . S
C4157 C4152 1.425 . S
C4157 C4154 1.409 . S
C4157 C4155 1.415 . S
C4158 H4148 0.930 . S
C4158 C4156 1.419 . S
C4158 C4159 1.362 . S
C4159 H4149 0.930 . S
C4159 C4152 1.409 . S
C4159 C4158 1.362 . S
H4160 C4166 0.930 . S
H4161 C4169 0.930 . S
H4162 C4170 0.930 . S
H4163 C4171 0.930 . S
H4164 C4174 0.930 . S
H4165 C4175 0.930 . S
C4166 H4160 0.930 . S
C4166 C4167 1.355 . S
C4166 C4168 1.415 . S
C4167 C4166 1.355 . S
C4167 C4169 1.419 . S
C4168 C4166 1.415 . S
C4168 C4173 1.425 . S
C4168 C4175 1.409 . S
C4169 H4161 0.930 . S
C4169 C4167 1.419 . S
C4169 C4170 1.362 . S
C4170 H4162 0.930 . S
C4170 C4169 1.362 . S
C4170 C4173 1.409 . S
C4171 H4163 0.930 . S
C4171 C4172 1.355 . S
C4171 C4173 1.415 . S
C4172 C4171 1.355 . S
C4172 C4174 1.419 . S
C4173 C4168 1.425 . S
C4173 C4170 1.409 . S
C4173 C4171 1.415 . S
C4174 H4164 0.930 . S
C4174 C4172 1.419 . S
C4174 C4175 1.362 . S
C4175 H4165 0.930 . S
C4175 C4168 1.409 . S
C4175 C4174 1.362 . S
H4176 C4182 0.930 . S
H4177 C4185 0.930 . S
H4178 C4186 0.930 . S
H4179 C4187 0.930 . S
H4180 C4190 0.930 . S
H4181 C4191 0.930 . S
C4182 H4176 0.930 . S
C4182 C4183 1.355 . S
C4182 C4184 1.415 . S
C4183 C4182 1.355 . S
C4183 C4185 1.419 . S
C4184 C4182 1.415 . S
C4184 C4189 1.425 . S
C4184 C4191 1.409 . S
C4185 H4177 0.930 . S
C4185 C4183 1.419 . S
C4185 C4186 1.362 . S
C4186 H4178 0.930 . S
C4186 C4185 1.362 . S
C4186 C4189 1.409 . S
C4187 H4179 0.930 . S
C4187 C4188 1.355 . S
C4187 C4189 1.415 . S
C4188 C4187 1.355 . S
C4188 C4190 1.419 . S
C4189 C4184 1.425 . S
C4189 C4186 1.409 . S
C4189 C4187 1.415 . S
C4190 H4180 0.930 . S
C4190 C4188 1.419 . S
C4190 C4191 1.362 . S
C4191 H4181 0.930 . S
C4191 C4184 1.409 . S
C4191 C4190 1.362 . S
H4192 C4198 0.930 . S
H4193 C4201 0.930 . S
H4194 C4202 0.930 . S
H4195 C4203 0.930 . S
H4196 C4206 0.930 . S
H4197 C4207 0.930 . S
C4198 H4192 0.930 . S
C4198 C4199 1.355 . S
C4198 C4200 1.415 . S
C4199 C4198 1.355 . S
C4199 C4201 1.419 . S
C4200 C4198 1.415 . S
C4200 C4205 1.425 . S
C4200 C4207 1.409 . S
C4201 H4193 0.930 . S
C4201 C4199 1.419 . S
C4201 C4202 1.362 . S
C4202 H4194 0.930 . S
C4202 C4201 1.362 . S
C4202 C4205 1.409 . S
C4203 H4195 0.930 . S
C4203 C4204 1.355 . S
C4203 C4205 1.415 . S
C4204 C4203 1.355 . S
C4204 C4206 1.419 . S
C4205 C4200 1.425 . S
C4205 C4202 1.409 . S
C4205 C4203 1.415 . S
C4206 H4196 0.930 . S
C4206 C4204 1.419 . S
C4206 C4207 1.362 . S
C4207 H4197 0.930 . S
C4207 C4200 1.409 . S
C4207 C4206 1.362 . S
H4208 C4214 0.930 . S
H4209 C4217 0.930 . S
H4210 C4218 0.930 . S
H4211 C4219 0.930 . S
H4212 C4222 0.930 . S
H4213 C4223 0.930 . S
C4214 H4208 0.930 . S
C4214 C4215 1.355 . S
C4214 C4216 1.415 . S
C4215 C4214 1.355 . S
C4215 C4217 1.419 . S
C4216 C4214 1.415 . S
C4216 C4221 1.425 . S
C4216 C4223 1.409 . S
C4217 H4209 0.930 . S
C4217 C4215 1.419 . S
C4217 C4218 1.362 . S
C4218 H4210 0.930 . S
C4218 C4217 1.362 . S
C4218 C4221 1.409 . S
C4219 H4211 0.930 . S
C4219 C4220 1.355 . S
C4219 C4221 1.415 . S
C4220 C4219 1.355 . S
C4220 C4222 1.419 . S
C4221 C4216 1.425 . S
C4221 C4218 1.409 . S
C4221 C4219 1.415 . S
C4222 H4212 0.930 . S
C4222 C4220 1.419 . S
C4222 C4223 1.362 . S
C4223 H4213 0.930 . S
C4223 C4216 1.409 . S
C4223 C4222 1.362 . S
H4224 C4230 0.930 . S
H4225 C4233 0.930 . S
H4226 C4234 0.930 . S
H4227 C4235 0.930 . S
H4228 C4238 0.930 . S
H4229 C4239 0.930 . S
C4230 H4224 0.930 . S
C4230 C4231 1.355 . S
C4230 C4232 1.415 . S
C4231 C4230 1.355 . S
C4231 C4233 1.419 . S
C4232 C4230 1.415 . S
C4232 C4237 1.425 . S
C4232 C4239 1.409 . S
C4233 H4225 0.930 . S
C4233 C4231 1.419 . S
C4233 C4234 1.362 . S
C4234 H4226 0.930 . S
C4234 C4233 1.362 . S
C4234 C4237 1.409 . S
C4235 H4227 0.930 . S
C4235 C4236 1.355 . S
C4235 C4237 1.415 . S
C4236 C4235 1.355 . S
C4236 C4238 1.419 . S
C4237 C4232 1.425 . S
C4237 C4234 1.409 . S
C4237 C4235 1.415 . S
C4238 H4228 0.930 . S
C4238 C4236 1.419 . S
C4238 C4239 1.362 . S
C4239 H4229 0.930 . S
C4239 C4232 1.409 . S
C4239 C4238 1.362 . S
H4240 C4246 0.930 . S
H4241 C4249 0.930 . S
H4242 C4250 0.930 . S
H4243 C4251 0.930 . S
H4244 C4254 0.930 . S
H4245 C4255 0.930 . S
C4246 H4240 0.930 . S
C4246 C4247 1.355 . S
C4246 C4248 1.415 . S
C4247 C4246 1.355 . S
C4247 C4249 1.419 . S
C4248 C4246 1.415 . S
C4248 C4253 1.425 . S
C4248 C4255 1.409 . S
C4249 H4241 0.930 . S
C4249 C4247 1.419 . S
C4249 C4250 1.362 . S
C4250 H4242 0.930 . S
C4250 C4249 1.362 . S
C4250 C4253 1.409 . S
C4251 H4243 0.930 . S
C4251 C4252 1.355 . S
C4251 C4253 1.415 . S
C4252 C4251 1.355 . S
C4252 C4254 1.419 . S
C4253 C4248 1.425 . S
C4253 C4250 1.409 . S
C4253 C4251 1.415 . S
C4254 H4244 0.930 . S
C4254 C4252 1.419 . S
C4254 C4255 1.362 . S
C4255 H4245 0.930 . S
C4255 C4248 1.409 . S
C4255 C4254 1.362 . S
H4256 C4262 0.930 . S
H4257 C4265 0.930 . S
H4258 C4266 0.930 . S
H4259 C4267 0.930 . S
H4260 C4270 0.930 . S
H4261 C4271 0.930 . S
C4262 H4256 0.930 . S
C4262 C4263 1.355 . S
C4262 C4264 1.415 . S
C4263 C4262 1.355 . S
C4263 C4265 1.419 . S
C4264 C4262 1.415 . S
C4264 C4269 1.425 . S
C4264 C4271 1.409 . S
C4265 H4257 0.930 . S
C4265 C4263 1.419 . S
C4265 C4266 1.362 . S
C4266 H4258 0.930 . S
C4266 C4265 1.362 . S
C4266 C4269 1.409 . S
C4267 H4259 0.930 . S
C4267 C4268 1.355 . S
C4267 C4269 1.415 . S
C4268 C4267 1.355 . S
C4268 C4270 1.419 . S
C4269 C4264 1.425 . S
C4269 C4266 1.409 . S
C4269 C4267 1.415 . S
C4270 H4260 0.930 . S
C4270 C4268 1.419 . S
C4270 C4271 1.362 . S
C4271 H4261 0.930 . S
C4271 C4264 1.409 . S
C4271 C4270 1.362 . S
H4272 C4278 0.930 . S
H4273 C4281 0.930 . S
H4274 C4282 0.930 . S
H4275 C4283 0.930 . S
H4276 C4286 0.930 . S
H4277 C4287 0.930 . S
C4278 H4272 0.930 . S
C4278 C4279 1.355 . S
C4278 C4280 1.415 . S
C4279 C4278 1.355 . S
C4279 C4281 1.419 . S
C4280 C4278 1.415 . S
C4280 C4285 1.425 . S
C4280 C4287 1.409 . S
C4281 H4273 0.930 . S
C4281 C4279 1.419 . S
C4281 C4282 1.362 . S
C4282 H4274 0.930 . S
C4282 C4281 1.362 . S
C4282 C4285 1.409 . S
C4283 H4275 0.930 . S
C4283 C4284 1.355 . S
C4283 C4285 1.415 . S
C4284 C4283 1.355 . S
C4284 C4286 1.419 . S
C4285 C4280 1.425 . S
C4285 C4282 1.409 . S
C4285 C4283 1.415 . S
C4286 H4276 0.930 . S
C4286 C4284 1.419 . S
C4286 C4287 1.362 . S
C4287 H4277 0.930 . S
C4287 C4280 1.409 . S
C4287 C4286 1.362 . S
H4288 C4294 0.930 . S
H4289 C4297 0.930 . S
H4290 C4298 0.930 . S
H4291 C4299 0.930 . S
H4292 C4302 0.930 . S
H4293 C4303 0.930 . S
C4294 H4288 0.930 . S
C4294 C4295 1.355 . S
C4294 C4296 1.415 . S
C4295 C4294 1.355 . S
C4295 C4297 1.419 . S
C4296 C4294 1.415 . S
C4296 C4301 1.425 . S
C4296 C4303 1.409 . S
C4297 H4289 0.930 . S
C4297 C4295 1.419 . S
C4297 C4298 1.362 . S
C4298 H4290 0.930 . S
C4298 C4297 1.362 . S
C4298 C4301 1.409 . S
C4299 H4291 0.930 . S
C4299 C4300 1.355 . S
C4299 C4301 1.415 . S
C4300 C4299 1.355 . S
C4300 C4302 1.419 . S
C4301 C4296 1.425 . S
C4301 C4298 1.409 . S
C4301 C4299 1.415 . S
C4302 H4292 0.930 . S
C4302 C4300 1.419 . S
C4302 C4303 1.362 . S
C4303 H4293 0.930 . S
C4303 C4296 1.409 . S
C4303 C4302 1.362 . S
H4304 C4310 0.930 . S
H4305 C4313 0.930 . S
H4306 C4314 0.930 . S
H4307 C4315 0.930 . S
H4308 C4318 0.930 . S
H4309 C4319 0.930 . S
C4310 H4304 0.930 . S
C4310 C4311 1.355 . S
C4310 C4312 1.415 . S
C4311 C4310 1.355 . S
C4311 C4313 1.419 . S
C4312 C4310 1.415 . S
C4312 C4317 1.425 . S
C4312 C4319 1.409 . S
C4313 H4305 0.930 . S
C4313 C4311 1.419 . S
C4313 C4314 1.362 . S
C4314 H4306 0.930 . S
C4314 C4313 1.362 . S
C4314 C4317 1.409 . S
C4315 H4307 0.930 . S
C4315 C4316 1.355 . S
C4315 C4317 1.415 . S
C4316 C4315 1.355 . S
C4316 C4318 1.419 . S
C4317 C4312 1.425 . S
C4317 C4314 1.409 . S
C4317 C4315 1.415 . S
C4318 H4308 0.930 . S
C4318 C4316 1.419 . S
C4318 C4319 1.362 . S
C4319 H4309 0.930 . S
C4319 C4312 1.409 . S
C4319 C4318 1.362 . S
H4320 C4326 0.930 . S
H4321 C4329 0.930 . S
H4322 C4330 0.930 . S
H4323 C4331 0.930 . S
H4324 C4334 0.930 . S
H4325 C4335 0.930 . S
C4326 H4320 0.930 . S
C4326 C4327 1.355 . S
C4326 C4328 1.415 . S
C4327 C4326 1.355 . S
C4327 C4329 1.419 . S
C4328 C4326 1.415 . S
C4328 C4333 1.425 . S
C4328 C4335 1.409 . S
C4329 H4321 0.930 . S
C4329 C4327 1.419 . S
C4329 C4330 1.362 . S
C4330 H4322 0.930 . S
C4330 C4329 1.362 . S
C4330 C4333 1.409 . S
C4331 H4323 0.930 . S
C4331 C4332 1.355 . S
C4331 C4333 1.415 . S
C4332 C4331 1.355 . S
C4332 C4334 1.419 . S
C4333 C4328 1.425 . S
C4333 C4330 1.409 . S
C4333 C4331 1.415 . S
C4334 H4324 0.930 . S
C4334 C4332 1.419 . S
C4334 C4335 1.362 . S
C4335 H4325 0.930 . S
C4335 C4328 1.409 . S
C4335 C4334 1.362 . S
H4336 C4342 0.930 . S
H4337 C4345 0.930 . S
H4338 C4346 0.930 . S
H4339 C4347 0.930 . S
H4340 C4350 0.930 . S
H4341 C4351 0.930 . S
C4342 H4336 0.930 . S
C4342 C4343 1.355 . S
C4342 C4344 1.415 . S
C4343 C4342 1.355 . S
C4343 C4345 1.419 . S
C4344 C4342 1.415 . S
C4344 C4349 1.425 . S
C4344 C4351 1.409 . S
C4345 H4337 0.930 . S
C4345 C4343 1.419 . S
C4345 C4346 1.362 . S
C4346 H4338 0.930 . S
C4346 C4345 1.362 . S
C4346 C4349 1.409 . S
C4347 H4339 0.930 . S
C4347 C4348 1.355 . S
C4347 C4349 1.415 . S
C4348 C4347 1.355 . S
C4348 C4350 1.419 . S
C4349 C4344 1.425 . S
C4349 C4346 1.409 . S
C4349 C4347 1.415 . S
C4350 H4340 0.930 . S
C4350 C4348 1.419 . S
C4350 C4351 1.362 . S
C4351 H4341 0.930 . S
C4351 C4344 1.409 . S
C4351 C4350 1.362 . S
H4352 C4358 0.930 . S
H4353 C4361 0.930 . S
H4354 C4362 0.930 . S
H4355 C4363 0.930 . S
H4356 C4366 0.930 . S
H4357 C4367 0.930 . S
C4358 H4352 0.930 . S
C4358 C4359 1.355 . S
C4358 C4360 1.415 . S
C4359 C4358 1.355 . S
C4359 C4361 1.419 . S
C4360 C4358 1.415 . S
C4360 C4365 1.425 . S
C4360 C4367 1.409 . S
C4361 H4353 0.930 . S
C4361 C4359 1.419 . S
C4361 C4362 1.362 . S
C4362 H4354 0.930 . S
C4362 C4361 1.362 . S
C4362 C4365 1.409 . S
C4363 H4355 0.930 . S
C4363 C4364 1.355 . S
C4363 C4365 1.415 . S
C4364 C4363 1.355 . S
C4364 C4366 1.419 . S
C4365 C4360 1.425 . S
C4365 C4362 1.409 . S
C4365 C4363 1.415 . S
C4366 H4356 0.930 . S
C4366 C4364 1.419 . S
C4366 C4367 1.362 . S
C4367 H4357 0.930 . S
C4367 C4360 1.409 . S
C4367 C4366 1.362 . S
H4368 C4374 0.930 . S
H4369 C4377 0.930 . S
H4370 C4378 0.930 . S
H4371 C4379 0.930 . S
H4372 C4382 0.930 . S
H4373 C4383 0.930 . S
C4374 H4368 0.930 . S
C4374 C4375 1.355 . S
C4374 C4376 1.415 . S
C4375 C4374 1.355 . S
C4375 C4377 1.419 . S
C4376 C4374 1.415 . S
C4376 C4381 1.425 . S
C4376 C4383 1.409 . S
C4377 H4369 0.930 . S
C4377 C4375 1.419 . S
C4377 C4378 1.362 . S
C4378 H4370 0.930 . S
C4378 C4377 1.362 . S
C4378 C4381 1.409 . S
C4379 H4371 0.930 . S
C4379 C4380 1.355 . S
C4379 C4381 1.415 . S
C4380 C4379 1.355 . S
C4380 C4382 1.419 . S
C4381 C4376 1.425 . S
C4381 C4378 1.409 . S
C4381 C4379 1.415 . S
C4382 H4372 0.930 . S
C4382 C4380 1.419 . S
C4382 C4383 1.362 . S
C4383 H4373 0.930 . S
C4383 C4376 1.409 . S
C4383 C4382 1.362 . S
H4384 C4390 0.930 . S
H4385 C4393 0.930 . S
H4386 C4394 0.930 . S
H4387 C4395 0.930 . S
H4388 C4398 0.930 . S
H4389 C4399 0.930 . S
C4390 H4384 0.930 . S
C4390 C4391 1.355 . S
C4390 C4392 1.415 . S
C4391 C4390 1.355 . S
C4391 C4393 1.419 . S
C4392 C4390 1.415 . S
C4392 C4397 1.425 . S
C4392 C4399 1.409 . S
C4393 H4385 0.930 . S
C4393 C4391 1.419 . S
C4393 C4394 1.362 . S
C4394 H4386 0.930 . S
C4394 C4393 1.362 . S
C4394 C4397 1.409 . S
C4395 H4387 0.930 . S
C4395 C4396 1.355 . S
C4395 C4397 1.415 . S
C4396 C4395 1.355 . S
C4396 C4398 1.419 . S
C4397 C4392 1.425 . S
C4397 C4394 1.409 . S
C4397 C4395 1.415 . S
C4398 H4388 0.930 . S
C4398 C4396 1.419 . S
C4398 C4399 1.362 . S
C4399 H4389 0.930 . S
C4399 C4392 1.409 . S
C4399 C4398 1.362 . S
H4400 C4406 0.930 . S
H4401 C4409 0.930 . S
H4402 C4410 0.930 . S
H4403 C4411 0.930 . S
H4404 C4414 0.930 . S
H4405 C4415 0.930 . S
C4406 H4400 0.930 . S
C4406 C4407 1.355 . S
C4406 C4408 1.415 . S
C4407 C4406 1.355 . S
C4407 C4409 1.419 . S
C4408 C4406 1.415 . S
C4408 C4413 1.425 . S
C4408 C4415 1.409 . S
C4409 H4401 0.930 . S
C4409 C4407 1.419 . S
C4409 C4410 1.362 . S
C4410 H4402 0.930 . S
C4410 C4409 1.362 . S
C4410 C4413 1.409 . S
C4411 H4403 0.930 . S
C4411 C4412 1.355 . S
C4411 C4413 1.415 . S
C4412 C4411 1.355 . S
C4412 C4414 1.419 . S
C4413 C4408 1.425 . S
C4413 C4410 1.409 . S
C4413 C4411 1.415 . S
C4414 H4404 0.930 . S
C4414 C4412 1.419 . S
C4414 C4415 1.362 . S
C4415 H4405 0.930 . S
C4415 C4408 1.409 . S
C4415 C4414 1.362 . S
C1351 C9 1.654 . S
C1356 C961 1.620 . S
C1367 C919 1.614 . S
C1372 C23 1.647 . S
C1383 C933 1.654 . S
C1388 C37 1.617 . S
C1399 C51 1.640 . S
C1404 C947 1.617 . S
C1415 C1003 1.627 . S
C1420 C65 1.652 . S
C1431 C975 1.652 . S
C1436 C79 1.627 . S
C1447 C989 1.624 . S
C1452 C93 1.654 . S
C1463 C107 1.633 . S
C1468 C905 1.622 . S
C1479 C121 1.617 . S
C1484 C891 1.640 . S
C1495 C135 1.614 . S
C1500 C849 1.650 . S
C1511 C149 1.649 . S
C1516 C863 1.633 . S
C1527 C163 1.633 . S
C1532 C877 1.622 . S
C1543 C177 1.616 . S
C1548 C807 1.642 . S
C1559 C821 1.651 . S
C1564 C191 1.629 . S
C1575 C835 1.633 . S
C1580 C205 1.622 . S
C1591 C219 1.623 . S
C1596 C793 1.654 . S
C1607 C233 1.654 . S
C1612 C779 1.624 . S
C1623 C247 1.626 . S
C1628 C695 1.653 . S
C1639 C709 1.653 . S
C1644 C261 1.625 . S
C1655 C723 1.644 . S
C1660 C275 1.639 . S
C1671 C681 1.617 . S
C1676 C289 1.654 . S
C1687 C303 1.614 . S
C1692 C751 1.649 . S
C1703 C317 1.628 . S
C1708 C765 1.652 . S
C1719 C331 1.631 . S
C1724 C737 1.650 . S
C1735 C345 1.636 . S
C1740 C1297 1.619 . S
C1751 C359 1.616 . S
C1756 C1255 1.642 . S
C1767 C373 1.649 . S
C1772 C1269 1.614 . S
C1783 C387 1.642 . S
C1788 C1283 1.641 . S
C1799 C401 1.625 . S
C1804 C1339 1.653 . S
C1815 C415 1.640 . S
C1820 C1311 1.643 . S
C1831 C1325 1.645 . S
C1836 C429 1.615 . S
C1847 C443 1.630 . S
C1852 C1241 1.625 . S
C1863 C457 1.623 . S
C1868 C1227 1.654 . S
C1879 C1185 1.631 . S
C1884 C471 1.624 . S
C1895 C485 1.654 . S
C1900 C1199 1.624 . S
C1911 C499 1.614 . S
C1916 C1213 1.650 . S
C1927 C513 1.625 . S
C1932 C1143 1.630 . S
C1943 C527 1.619 . S
C1948 C1157 1.638 . S
C1959 C541 1.642 . S
C1964 C1171 1.616 . S
C1975 C1129 1.654 . S
C1980 C555 1.623 . S
C1991 C569 1.629 . S
C1996 C1115 1.626 . S
C2007 C583 1.630 . S
C2012 C1031 1.624 . S
C2023 C597 1.615 . S
C2028 C1045 1.654 . S
C2039 C1059 1.624 . S
C2044 C611 1.631 . S
C2055 C625 1.645 . S
C2060 C1017 1.638 . S
C2071 C1087 1.631 . S
C2076 C639 1.624 . S
C2087 C653 1.615 . S
C2092 C1101 1.652 . S
C2103 C667 1.642 . S
C2108 C1073 1.641 . S
C2119 C7 1.451 . S
C2124 C553 1.461 . S
C2135 C21 1.484 . S
C2140 C511 1.427 . S
C2151 C525 1.472 . S
C2156 C35 1.439 . S
C2167 C49 1.482 . S
C2172 C539 1.429 . S
C2183 C469 1.479 . S
C2188 C63 1.432 . S
C2199 C483 1.465 . S
C2204 C77 1.447 . S
C2215 C497 1.437 . S
C2220 C91 1.474 . S
C2231 C455 1.483 . S
C2236 C105 1.428 . S
C2247 C441 1.426 . S
C2252 C119 1.485 . S
C2263 C133 1.484 . S
C2268 C399 1.427 . S
C2279 C413 1.444 . S
C2284 C147 1.468 . S
C2295 C161 1.447 . S
C2300 C427 1.465 . S
C2311 C357 1.449 . S
C2316 C175 1.463 . S
C2327 C371 1.439 . S
C2332 C189 1.472 . S
C2343 C203 1.476 . S
C2348 C385 1.436 . S
C2359 C217 1.432 . S
C2364 C343 1.479 . S
C2375 C231 1.478 . S
C2380 C623 1.433 . S
C2391 C245 1.455 . S
C2396 C665 1.457 . S
C2407 C637 1.456 . S
C2412 C259 1.456 . S
C2423 C651 1.433 . S
C2428 C273 1.478 . S
C2439 C287 1.483 . S
C2444 C567 1.428 . S
C2455 C301 1.449 . S
C2460 C595 1.463 . S
C2471 C609 1.476 . S
C2476 C315 1.435 . S
C2487 C329 1.471 . S
C2492 C581 1.440 . S
C2503 C1225 1.460 . S
C2508 C679 1.452 . S
C2519 C1183 1.464 . S
C2524 C693 1.447 . S
C2535 C1197 1.483 . S
C2540 C707 1.428 . S
C2551 C721 1.436 . S
C2556 C1211 1.476 . S
C2567 C1141 1.426 . S
C2572 C735 1.485 . S
C2583 C1155 1.446 . S
C2588 C749 1.465 . S
C2599 C763 1.431 . S
C2604 C1169 1.481 . S
C2615 C777 1.481 . S
C2620 C1127 1.430 . S
C2631 C1113 1.457 . S
C2636 C791 1.454 . S
C2647 C805 1.432 . S
C2652 C1071 1.479 . S
C2663 C1085 1.427 . S
C2668 C819 1.484 . S
C2679 C1099 1.474 . S
C2684 C833 1.437 . S
C2695 C847 1.476 . S
C2700 C1029 1.435 . S
C2711 C861 1.472 . S
C2716 C1043 1.439 . S
C2727 C1057 1.469 . S
C2732 C875 1.442 . S
C2743 C889 1.473 . S
C2748 C1015 1.438 . S
C2759 C1295 1.426 . S
C2764 C903 1.485 . S
C2775 C1337 1.454 . S
C2780 C917 1.457 . S
C2791 C931 1.478 . S
C2796 C1309 1.433 . S
C2807 C1323 1.438 . S
C2812 C945 1.473 . S
C2823 C1239 1.459 . S
C2828 C959 1.453 . S
C2839 C1267 1.484 . S
C2844 C973 1.427 . S
C2855 C987 1.439 . S
C2860 C1281 1.472 . S
C2871 C1253 1.480 . S
C2876 C1001 1.431 . S
C2887 C8 1.309 . S
C2892 C400 1.270 . S
C2903 C414 1.269 . S
C2908 C22 1.310 . S
C2919 C36 1.292 . S
C2924 C428 1.287 . S
C2935 C442 1.279 . S
C2940 C50 1.300 . S
C2951 C64 1.269 . S
C2956 C344 1.309 . S
C2967 C78 1.271 . S
C2972 C358 1.308 . S
C2983 C92 1.273 . S
C2988 C372 1.306 . S
C2999 C386 1.303 . S
C3004 C106 1.276 . S
C3015 C540 1.308 . S
C3020 C120 1.270 . S
C3031 C134 1.272 . S
C3036 C554 1.307 . S
C3047 C148 1.304 . S
C3052 C512 1.274 . S
C3063 C162 1.284 . S
C3068 C526 1.295 . S
C3079 C176 1.276 . S
C3084 C484 1.303 . S
C3095 C190 1.278 . S
C3100 C498 1.301 . S
C3111 C204 1.287 . S
C3116 C456 1.292 . S
C3127 C218 1.285 . S
C3132 C470 1.294 . S
C3143 C232 1.309 . S
C3148 C638 1.269 . S
C3159 C246 1.281 . S
C3164 C610 1.297 . S
C3175 C624 1.269 . S
C3180 C260 1.310 . S
C3191 C274 1.280 . S
C3196 C582 1.299 . S
C3207 C596 1.310 . S
C3212 C288 1.269 . S
C3223 C302 1.273 . S
C3228 C568 1.306 . S
C3239 C316 1.269 . S
C3244 C666 1.310 . S
C3255 C652 1.279 . S
C3260 C330 1.300 . S
C3271 C1072 1.273 . S
C3276 C680 1.305 . S
C3287 C694 1.310 . S
C3292 C1086 1.269 . S
C3303 C1100 1.310 . S
C3308 C708 1.269 . S
C3319 C722 1.306 . S
C3324 C1114 1.273 . S
C3335 C1016 1.298 . S
C3340 C736 1.281 . S
C3351 C1030 1.276 . S
C3356 C750 1.303 . S
C3367 C1044 1.269 . S
C3372 C764 1.310 . S
C3383 C778 1.276 . S
C3388 C1058 1.302 . S
C3399 C792 1.292 . S
C3404 C1212 1.287 . S
C3415 C1226 1.310 . S
C3420 C806 1.269 . S
C3431 C1184 1.290 . S
C3436 C820 1.289 . S
C3447 C1198 1.277 . S
C3452 C834 1.301 . S
C3463 C848 1.282 . S
C3468 C1156 1.297 . S
C3479 C862 1.284 . S
C3484 C1170 1.295 . S
C3495 C1128 1.275 . S
C3500 C876 1.304 . S
C3511 C1142 1.301 . S
C3516 C890 1.278 . S
C3527 C1310 1.286 . S
C3532 C904 1.293 . S
C3543 C918 1.305 . S
C3548 C1282 1.273 . S
C3559 C1296 1.270 . S
C3564 C932 1.308 . S
C3575 C946 1.288 . S
C3580 C1254 1.291 . S
C3591 C960 1.304 . S
C3596 C1268 1.275 . S
C3607 C974 1.269 . S
C3612 C1240 1.309 . S
C3623 C1338 1.273 . S
C3628 C988 1.306 . S
C3639 C1002 1.295 . S
C3644 C1324 1.283 . S
C3655 C437 1.342 . S
C3660 C3 1.317 . S
C3671 C395 1.341 . S
C3676 C17 1.318 . S
C3687 C31 1.346 . S
C3692 C409 1.314 . S
C3703 C423 1.346 . S
C3708 C45 1.313 . S
C3719 C353 1.339 . S
C3724 C59 1.320 . S
C3735 C73 1.316 . S
C3740 C367 1.343 . S
C3751 C87 1.325 . S
C3756 C381 1.334 . S
C3767 C339 1.313 . S
C3772 C101 1.346 . S
C3783 C619 1.322 . S
C3788 C115 1.337 . S
C3799 C129 1.338 . S
C3804 C577 1.321 . S
C3815 C143 1.313 . S
C3820 C591 1.346 . S
C3831 C605 1.341 . S
C3836 C157 1.319 . S
C3847 C171 1.314 . S
C3852 C661 1.345 . S
C3863 C633 1.316 . S
C3868 C185 1.344 . S
C3879 C647 1.340 . S
C3884 C199 1.320 . S
C3895 C213 1.346 . S
C3900 C563 1.313 . S
C3911 C227 1.314 . S
C3916 C549 1.346 . S
C3927 C241 1.318 . S
C3932 C465 1.341 . S
C3943 C255 1.341 . S
C3948 C479 1.318 . S
C3959 C493 1.346 . S
C3964 C269 1.313 . S
C3975 C451 1.346 . S
C3980 C283 1.313 . S
C3991 C297 1.315 . S
C3996 C521 1.344 . S
C4007 C311 1.317 . S
C4012 C535 1.342 . S
C4023 C325 1.324 . S
C4028 C507 1.336 . S
C4039 C675 1.327 . S
C4044 C1109 1.332 . S
C4055 C689 1.314 . S
C4060 C1067 1.345 . S
C4071 C703 1.313 . S
C4076 C1081 1.346 . S
C4087 C1095 1.345 . S
C4092 C717 1.314 . S
C4103 C1025 1.313 . S
C4108 C731 1.346 . S
C4119 C1039 1.346 . S
C4124 C745 1.313 . S
C4135 C759 1.344 . S
C4140 C1053 1.316 . S
C4151 C1011 1.313 . S
C4156 C773 1.346 . S
C4167 C1291 1.334 . S
C4172 C787 1.325 . S
C4183 C1249 1.339 . S
C4188 C801 1.320 . S
C4199 C1263 1.313 . S
C4204 C815 1.346 . S
C4215 C1277 1.336 . S
C4220 C829 1.323 . S
C4231 C1333 1.346 . S
C4236 C843 1.313 . S
C4247 C1305 1.342 . S
C4252 C857 1.318 . S
C4263 C1319 1.328 . S
C4268 C871 1.332 . S
C4279 C1235 1.316 . S
C4284 C885 1.343 . S
C4295 C899 1.346 . S
C4300 C1221 1.313 . S
C4311 C1137 1.341 . S
C4316 C913 1.318 . S
C4327 C1151 1.345 . S
C4332 C927 1.315 . S
C4343 C1165 1.321 . S
C4348 C941 1.338 . S
C4359 C1123 1.346 . S
C4364 C955 1.313 . S
C4375 C1193 1.314 . S
C4380 C969 1.346 . S
C4391 C1207 1.314 . S
C4396 C983 1.345 . S
C4407 C1179 1.319 . S
C4412 C997 1.341 . S
