# Generated by pormake.
# Topology smk, (6)-cn, num edge types: 1
# Building blocks:
#     Node 0, Type 0, BuildingBlock: VOLQOD_clean_sbu_1, # of connection points: 6
#     Node 1, Type 0, BuildingBlock: VOLQOD_clean_sbu_1, # of connection points: 6
#     Node 2, Type 0, BuildingBlock: VOLQOD_clean_sbu_1, # of connection points: 6
#     Node 3, Type 0, BuildingBlock: VOLQOD_clean_sbu_1, # of connection points: 6
#     Node 4, Type 0, BuildingBlock: VOLQOD_clean_sbu_1, # of connection points: 6
#     Node 5, Type 0, BuildingBlock: VOLQOD_clean_sbu_1, # of connection points: 6
#     Edge 6, Type (0, 0), BuildingBlock: ZUJKAS_clean_linker_0, # of connection points: 2
#     Edge 7, Type (0, 0), BuildingBlock: ZUJKAS_clean_linker_0, # of connection points: 2
#     Edge 8, Type (0, 0), BuildingBlock: ZUJKAS_clean_linker_0, # of connection points: 2
#     Edge 9, Type (0, 0), BuildingBlock: ZUJKAS_clean_linker_0, # of connection points: 2
#     Edge 10, Type (0, 0), BuildingBlock: ZUJKAS_clean_linker_0, # of connection points: 2
#     Edge 11, Type (0, 0), BuildingBlock: ZUJKAS_clean_linker_0, # of connection points: 2
#     Edge 12, Type (0, 0), BuildingBlock: ZUJKAS_clean_linker_0, # of connection points: 2
#     Edge 13, Type (0, 0), BuildingBlock: ZUJKAS_clean_linker_0, # of connection points: 2
#     Edge 14, Type (0, 0), BuildingBlock: ZUJKAS_clean_linker_0, # of connection points: 2
#     Edge 15, Type (0, 0), BuildingBlock: ZUJKAS_clean_linker_0, # of connection points: 2
#     Edge 16, Type (0, 0), BuildingBlock: ZUJKAS_clean_linker_0, # of connection points: 2
#     Edge 17, Type (0, 0), BuildingBlock: ZUJKAS_clean_linker_0, # of connection points: 2
#     Edge 18, Type (0, 0), BuildingBlock: ZUJKAS_clean_linker_0, # of connection points: 2
#     Edge 19, Type (0, 0), BuildingBlock: ZUJKAS_clean_linker_0, # of connection points: 2
#     Edge 20, Type (0, 0), BuildingBlock: ZUJKAS_clean_linker_0, # of connection points: 2
#     Edge 21, Type (0, 0), BuildingBlock: ZUJKAS_clean_linker_0, # of connection points: 2
#     Edge 22, Type (0, 0), BuildingBlock: ZUJKAS_clean_linker_0, # of connection points: 2
#     Edge 23, Type (0, 0), BuildingBlock: ZUJKAS_clean_linker_0, # of connection points: 2
# Relax obj value: 0.161
# Max RMSD: 0.170
# Mean RMSD: 0.170
data_MOF--net-smk--node1-VOLQOD_clean_sbu_1--edge1-ZUJKAS_clean_linker_0
_symmetry_space_group_name_H-M    P1
_symmetry_Int_Tables_number       1
_symmetry_cell_setting            triclinic
loop_
_symmetry_equiv_pos_as_xyz
'x, y, z'
_cell_length_a     55.993309
_cell_length_b     55.955717
_cell_length_c     21.330266
_cell_angle_alpha  90.006611
_cell_angle_beta   90.007566
_cell_angle_gamma 120.04711
loop_
_atom_site_label
_atom_site_type_symbol
_atom_site_fract_x
_atom_site_fract_y
_atom_site_fract_z
_atom_type_partial_charge
O0 O 0.44279 0.25207 0.719 0.0
Zn1 Zn 0.43869 0.25549 0.62677 0.0
O2 O 0.43284 0.22218 0.58539 0.0
Zn3 Zn 0.46629 0.23064 0.54053 0.0
Zn4 Zn 0.4248 0.19341 0.64577 0.0
Zn5 Zn 0.40157 0.20952 0.52944 0.0
O6 O 0.45793 0.22332 0.44921 0.0
O7 O 0.41542 0.2169 0.44143 0.0
O8 O 0.47191 0.28957 0.59266 0.0
O9 O 0.49388 0.27116 0.54387 0.0
O10 O 0.48468 0.21037 0.57516 0.0
O11 O 0.45588 0.18536 0.65095 0.0
O12 O 0.39058 0.15768 0.62358 0.0
O13 O 0.40591 0.26031 0.61595 0.0
O14 O 0.37607 0.16869 0.5374 0.0
O15 O 0.37927 0.22807 0.54742 0.0
C16 C 0.433 0.23074 0.75387 0.0
C17 C 0.43765 0.22049 0.41643 0.0
C18 C 0.47811 0.19333 0.62035 0.0
C19 C 0.49269 0.29212 0.56258 0.0
C20 C 0.37383 0.15094 0.57776 0.0
C21 C 0.38392 0.24807 0.58353 0.0
O22 O 0.4224 0.20648 0.73111 0.0
O23 O 0.19386 0.44314 0.86005 0.0
Zn24 Zn 0.18569 0.43854 0.76792 0.0
O25 O 0.21036 0.42886 0.72681 0.0
Zn26 Zn 0.23706 0.45964 0.67794 0.0
Zn27 Zn 0.22912 0.41966 0.78884 0.0
Zn28 Zn 0.18961 0.3972 0.67394 0.0
O29 O 0.23643 0.448 0.58921 0.0
O30 O 0.19507 0.40995 0.58509 0.0
O31 O 0.18796 0.47278 0.73012 0.0
O32 O 0.22531 0.48793 0.6707 0.0
O33 O 0.27517 0.47798 0.71689 0.0
O34 O 0.2676 0.45127 0.80012 0.0
O35 O 0.23136 0.38607 0.76432 0.0
O36 O 0.14688 0.40709 0.76101 0.0
O37 O 0.20427 0.37113 0.68055 0.0
O38 O 0.14927 0.37692 0.6975 0.0
C39 C 0.20099 0.4292 0.89466 0.0
C40 C 0.21617 0.42943 0.55815 0.0
C41 C 0.28339 0.47252 0.76778 0.0
C42 C 0.20539 0.49038 0.69189 0.0
C43 C 0.22059 0.36915 0.71897 0.0
C44 C 0.13546 0.38389 0.73295 0.0
O45 O 0.21103 0.4151 0.87162 0.0
O46 O 0.75311 0.19185 0.0454 0.0
Zn47 Zn 0.74865 0.18238 0.95422 0.0
O48 O 0.78223 0.20781 0.91002 0.0
Zn49 Zn 0.77458 0.22967 0.85242 0.0
Zn50 Zn 0.81043 0.23273 0.96675 0.0
Zn51 Zn 0.79599 0.18702 0.86569 0.0
O52 O 0.78756 0.22735 0.76685 0.0
O53 O 0.78994 0.18888 0.77454 0.0
O54 O 0.71475 0.18141 0.91743 0.0
O55 O 0.73389 0.21353 0.84375 0.0
O56 O 0.78988 0.26905 0.88162 0.0
O57 O 0.81466 0.27036 0.96389 0.0
O58 O 0.84736 0.23663 0.94759 0.0
O59 O 0.74286 0.144 0.95112 0.0
O60 O 0.83694 0.20393 0.87653 0.0
O61 O 0.77724 0.14727 0.89307 0.0
C62 C 0.77491 0.20513 0.07819 0.0
C63 C 0.78952 0.20771 0.74188 0.0
C64 C 0.80535 0.28194 0.92797 0.0
C65 C 0.71263 0.19499 0.87189 0.0
C66 C 0.85461 0.22369 0.91015 0.0
C67 C 0.75593 0.13315 0.92677 0.0
O68 O 0.79864 0.21952 0.05342 0.0
O69 O 0.55639 0.7459 0.21283 0.0
Zn70 Zn 0.56139 0.74318 0.12055 0.0
O71 O 0.56696 0.77644 0.07969 0.0
Zn72 Zn 0.53354 0.76807 0.0349 0.0
Zn73 Zn 0.57488 0.80471 0.14106 0.0
Zn74 Zn 0.59816 0.78954 0.02361 0.0
O75 O 0.5419 0.77585 0.9435 0.0
O76 O 0.58423 0.78179 0.93567 0.0
O77 O 0.52881 0.70903 0.08429 0.0
O78 O 0.50646 0.72741 0.03694 0.0
O79 O 0.51471 0.78774 0.0711 0.0
O80 O 0.54338 0.81194 0.14791 0.0
O81 O 0.60859 0.8408 0.11891 0.0
O82 O 0.59504 0.73966 0.11151 0.0
O83 O 0.623 0.83052 0.03154 0.0
O84 O 0.62114 0.7718 0.04226 0.0
C85 C 0.56671 0.76712 0.24813 0.0
C86 C 0.56207 0.7784 0.91067 0.0
C87 C 0.52113 0.80417 0.11753 0.0
C88 C 0.50797 0.70646 0.0543 0.0
C89 C 0.6251 0.84799 0.07255 0.0
C90 C 0.61706 0.75227 0.07932 0.0
O91 O 0.57791 0.79149 0.22578 0.0
O92 O 0.80384 0.55685 0.35983 0.0
Zn93 Zn 0.81161 0.56102 0.26729 0.0
O94 O 0.78751 0.57153 0.22627 0.0
Zn95 Zn 0.76031 0.54106 0.17729 0.0
Zn96 Zn 0.76916 0.5809 0.2888 0.0
Zn97 Zn 0.80857 0.60335 0.17394 0.0
O98 O 0.76033 0.55318 0.08916 0.0
O99 O 0.80187 0.59099 0.0847 0.0
O100 O 0.80834 0.52636 0.22936 0.0
O101 O 0.77175 0.5126 0.16801 0.0
O102 O 0.72258 0.52252 0.2182 0.0
O103 O 0.73087 0.5493 0.30162 0.0
O104 O 0.76708 0.61454 0.26491 0.0
O105 O 0.85073 0.59164 0.25891 0.0
O106 O 0.79536 0.63058 0.18331 0.0
O107 O 0.84914 0.62225 0.19536 0.0
C108 C 0.79742 0.57144 0.39418 0.0
C109 C 0.78044 0.57185 0.05792 0.0
C110 C 0.71484 0.52794 0.26985 0.0
C111 C 0.7911 0.50939 0.18986 0.0
C112 C 0.77872 0.63223 0.22134 0.0
C113 C 0.86265 0.61468 0.23019 0.0
O114 O 0.78783 0.58586 0.37087 0.0
O115 O 0.24714 0.81088 0.54391 0.0
Zn116 Zn 0.25173 0.81874 0.45203 0.0
O117 O 0.21809 0.79269 0.40904 0.0
Zn118 Zn 0.22544 0.76991 0.35319 0.0
Zn119 Zn 0.18996 0.76893 0.4673 0.0
Zn120 Zn 0.20447 0.81315 0.36311 0.0
O121 O 0.21614 0.7744 0.26489 0.0
O122 O 0.21291 0.81237 0.27318 0.0
O123 O 0.28542 0.81844 0.41827 0.0
O124 O 0.26588 0.78346 0.35131 0.0
O125 O 0.20736 0.73011 0.38155 0.0
O126 O 0.18551 0.73118 0.46727 0.0
O127 O 0.153 0.76438 0.44531 0.0
O128 O 0.25782 0.85714 0.44567 0.0
O129 O 0.16327 0.79516 0.36958 0.0
O130 O 0.22202 0.85273 0.39147 0.0
C131 C 0.22546 0.7985 0.57746 0.0
C132 C 0.2149 0.7945 0.24017 0.0
C133 C 0.19291 0.71834 0.43002 0.0
C134 C 0.28723 0.80261 0.37795 0.0
C135 C 0.14561 0.77598 0.40444 0.0
C136 C 0.24393 0.86743 0.42294 0.0
O137 O 0.20163 0.78366 0.55345 0.0
H138 H 0.48507 0.23977 0.34829 0.0
H139 H 0.49065 0.2487 0.23557 0.0
H140 H 0.40311 0.21708 0.21746 0.0
H141 H 0.39735 0.20859 0.33005 0.0
H142 H 0.46819 0.21313 0.13844 0.0
H143 H 0.43553 0.29139 0.13016 0.0
H144 H 0.44405 0.28065 0.20259 0.0
H145 H 0.41028 0.2604 0.16839 0.0
C146 C 0.46698 0.23462 0.32028 0.0
C147 C 0.44077 0.22364 0.348 0.0
C148 C 0.47026 0.23989 0.25608 0.0
C149 C 0.4474 0.23423 0.21886 0.0
C150 C 0.42111 0.22239 0.24597 0.0
H151 H 0.40916 0.1904 0.84209 0.0
H152 H 0.4167 0.19514 0.95489 0.0
C153 C 0.41783 0.21731 0.31013 0.0
C154 C 0.45062 0.23939 0.15098 0.0
H155 H 0.43322 0.26851 0.03226 0.0
C156 C 0.46102 0.22563 0.11521 0.0
C157 C 0.44187 0.25625 0.12114 0.0
C158 C 0.4326 0.27326 0.15769 0.0
C159 C 0.46108 0.22674 0.04976 0.0
C160 C 0.44987 0.24147 0.01989 0.0
C161 C 0.44132 0.25683 0.05561 0.0
C162 C 0.4448 0.23926 0.95203 0.0
C163 C 0.47253 0.21162 0.0132 0.0
C164 C 0.45713 0.26278 0.91386 0.0
C165 C 0.45262 0.26022 0.84927 0.0
C166 C 0.43569 0.23408 0.82234 0.0
C167 C 0.42258 0.21076 0.8613 0.0
C168 C 0.427 0.21338 0.92565 0.0
H169 H 0.48796 0.20924 0.04115 0.0
H170 H 0.45547 0.19064 0.00131 0.0
H171 H 0.48235 0.22255 0.9689 0.0
H172 H 0.47065 0.28295 0.93387 0.0
H173 H 0.46296 0.27856 0.8204 0.0
H174 H 0.25048 0.47405 0.48672 0.0
H175 H 0.24735 0.47962 0.374 0.0
H176 H 0.17879 0.39629 0.36206 0.0
H177 H 0.18131 0.39066 0.47486 0.0
H178 H 0.25253 0.45114 0.27807 0.0
H179 H 0.14864 0.44007 0.27436 0.0
H180 H 0.16804 0.44568 0.34585 0.0
H181 H 0.14857 0.41155 0.31295 0.0
C182 C 0.23481 0.45685 0.46007 0.0
C183 C 0.21603 0.43194 0.48959 0.0
C184 C 0.23296 0.46015 0.39587 0.0
C185 C 0.21238 0.43861 0.36038 0.0
C186 C 0.19424 0.41343 0.38925 0.0
H187 H 0.20669 0.39661 0.98082 0.0
H188 H 0.20941 0.40223 0.09425 0.0
C189 C 0.19591 0.41016 0.45348 0.0
C190 C 0.21065 0.44188 0.29245 0.0
H191 H 0.16552 0.43337 0.1756 0.0
C192 C 0.23366 0.44769 0.25567 0.0
C193 C 0.18619 0.43798 0.2637 0.0
C194 C 0.16157 0.43378 0.30137 0.0
C195 C 0.23231 0.44803 0.19032 0.0
C196 C 0.20711 0.44177 0.16152 0.0
C197 C 0.18463 0.43767 0.1982 0.0
C198 C 0.20327 0.43746 0.09358 0.0
C199 C 0.25768 0.45452 0.15266 0.0
C200 C 0.19756 0.45463 0.05645 0.0
C201 C 0.19573 0.45135 -0.00854 0.0
C202 C 0.19961 0.43083 0.96321 0.0
C203 C 0.20401 0.41286 0.00113 0.0
C204 C 0.20569 0.41609 0.06583 0.0
H205 H 0.27683 0.4668 0.18041 0.0
H206 H 0.25672 0.43493 0.1389 0.0
H207 H 0.25896 0.46611 0.10933 0.0
H208 H 0.19534 0.47103 0.07755 0.0
H209 H 0.19223 0.46543 0.96336 0.0
H210 H 0.7325 0.16645 0.14912 0.0
H211 H 0.73158 0.16184 0.26346 0.0
H212 H 0.81195 0.235 0.2752 0.0
H213 H 0.81333 0.23953 0.16159 0.0
H214 H 0.80705 0.18908 0.34009 0.0
H215 H 0.72227 0.21049 0.39556 0.0
H216 H 0.71471 0.18379 0.33897 0.0
H217 H 0.73959 0.21896 0.32065 0.0
C218 C 0.74981 0.18169 0.17625 0.0
C219 C 0.77303 0.20329 0.1467 0.0
C220 C 0.74922 0.17904 0.24129 0.0
C221 C 0.77166 0.19815 0.27714 0.0
C222 C 0.79453 0.22002 0.24786 0.0
H223 H 0.79596 0.24683 0.65691 0.0
H224 H 0.79111 0.24158 0.54329 0.0
C225 C 0.79525 0.22257 0.1831 0.0
C226 C 0.7721 0.19527 0.3453 0.0
H227 H 0.74376 0.20195 0.48052 0.0
C228 C 0.79311 0.19163 0.37104 0.0
C229 C 0.75383 0.19873 0.38473 0.0
C230 C 0.73141 0.2034 0.35887 0.0
C231 C 0.79706 0.19244 0.43581 0.0
C232 C 0.77909 0.19638 0.47524 0.0
C233 C 0.75744 0.19897 0.4496 0.0
C234 C 0.78339 0.19962 0.54315 0.0
C235 C 0.8211 0.19033 0.46129 0.0
C236 C 0.78098 0.1778 0.57988 0.0
C237 C 0.78404 0.18081 0.64463 0.0
C238 C 0.78913 0.20555 0.67333 0.0
C239 C 0.79197 0.22751 0.63608 0.0
C240 C 0.78913 0.22454 0.57137 0.0
H241 H 0.83621 0.19325 0.42408 0.0
H242 H 0.83195 0.20593 0.49861 0.0
H243 H 0.81336 0.16957 0.48212 0.0
H244 H 0.77615 0.1583 0.55864 0.0
H245 H 0.78153 0.16345 0.67223 0.0
H246 H 0.53585 0.71933 0.3143 0.0
H247 H 0.52814 0.71492 0.42782 0.0
H248 H 0.58383 0.80238 0.44955 0.0
H249 H 0.59143 0.80713 0.3368 0.0
H250 H 0.56565 0.72879 0.52723 0.0
H251 H 0.5126 0.78973 0.53441 0.0
H252 H 0.51786 0.77593 0.46249 0.0
H253 H 0.54515 0.80768 0.49457 0.0
C254 C 0.54658 0.73758 0.34335 0.0
C255 C 0.56401 0.76364 0.31662 0.0
C256 C 0.54207 0.73501 0.40797 0.0
C257 C 0.55488 0.75845 0.44635 0.0
C258 C 0.57318 0.78421 0.42017 0.0
H259 H 0.60217 0.78944 0.82434 0.0
H260 H 0.59627 0.78058 0.71191 0.0
C261 C 0.57762 0.78683 0.35582 0.0
C262 C 0.54965 0.75634 0.51418 0.0
H263 H 0.53187 0.78547 0.63204 0.0
C264 C 0.55781 0.74075 0.55029 0.0
C265 C 0.53878 0.77146 0.54368 0.0
C266 C 0.52781 0.7869 0.50669 0.0
C267 C 0.5572 0.74148 0.61582 0.0
C268 C 0.5488 0.7587 0.6453 0.0
C269 C 0.53877 0.77269 0.60913 0.0
C270 C 0.55207 0.76404 0.71317 0.0
C271 C 0.56608 0.72425 0.65278 0.0
C272 C 0.52934 0.75886 0.7503 0.0
C273 C 0.53269 0.76434 0.81444 0.0
C274 C 0.55887 0.77508 0.84221 0.0
C275 C 0.58171 0.78094 0.80442 0.0
C276 C 0.57834 0.77562 0.74033 0.0
H277 H 0.56288 0.70595 0.62553 0.0
H278 H 0.58842 0.73686 0.66355 0.0
H279 H 0.55458 0.7171 0.69766 0.0
H280 H 0.50897 0.75025 0.72977 0.0
H281 H 0.51469 0.75955 0.84239 0.0
H282 H 0.80301 0.53352 0.46423 0.0
H283 H 0.79914 0.52829 0.57853 0.0
H284 H 0.79136 0.601 0.59255 0.0
H285 H 0.79486 0.60626 0.47906 0.0
H286 H 0.83013 0.56521 0.67726 0.0
H287 H 0.72086 0.53952 0.67681 0.0
H288 H 0.73853 0.53865 0.60675 0.0
H289 H 0.74306 0.57091 0.63546 0.0
C290 C 0.80079 0.54855 0.4918 0.0
C291 C 0.79883 0.57007 0.46278 0.0
C292 C 0.79851 0.54547 0.55684 0.0
C293 C 0.79427 0.56387 0.59322 0.0
C294 C 0.79391 0.58622 0.56473 0.0
H295 H 0.81615 0.61025 0.97514 0.0
H296 H 0.81838 0.60481 0.86221 0.0
C297 C 0.79603 0.58924 0.49999 0.0
C298 C 0.78975 0.55979 0.6611 0.0
H299 H 0.74457 0.55362 0.77546 0.0
C300 C 0.81131 0.56227 0.69891 0.0
C301 C 0.7649 0.55532 0.68869 0.0
C302 C 0.7404 0.55065 0.64978 0.0
C303 C 0.80928 0.56207 0.76432 0.0
C304 C 0.7853 0.55992 0.79185 0.0
C305 C 0.76309 0.55574 0.75397 0.0
C306 C 0.78335 0.56328 0.85966 0.0
C307 C 0.8329 0.56452 0.80326 0.0
C308 C 0.76205 0.54222 0.89468 0.0
C309 C 0.76043 0.5454 0.95906 0.0
C310 C 0.78013 0.56973 -0.01084 0.0
C311 C 0.80084 0.59117 0.95338 0.0
C312 C 0.80232 0.58801 0.88904 0.0
H313 H 0.84524 0.55731 0.77692 0.0
H314 H 0.84681 0.58652 0.81572 0.0
H315 H 0.82538 0.55243 0.84732 0.0
H316 H 0.74703 0.52314 0.8724 0.0
H317 H 0.74424 0.5285 0.98538 0.0
H318 H 0.21295 0.75813 0.15216 0.0
H319 H 0.22009 0.76589 0.03939 0.0
H320 H 0.23148 0.8476 0.06174 0.0
H321 H 0.22367 0.83986 0.17418 0.0
H322 H 0.19728 0.82009 0.96692 0.0
H323 H 0.29222 0.81328 0.94785 0.0
H324 H 0.26496 0.78347 0.98575 0.0
H325 H 0.27886 0.81687 0.02215 0.0
C326 C 0.21695 0.77773 0.13306 0.0
C327 C 0.2178 0.79839 0.17194 0.0
C328 C 0.22131 0.78223 0.06885 0.0
C329 C 0.227 0.80757 0.04288 0.0
C330 C 0.22741 0.82804 0.08131 0.0
H331 H 0.27006 0.83622 0.64472 0.0
H332 H 0.2728 0.84314 0.75837 0.0
C333 C 0.22281 0.8235 0.14539 0.0
C334 C 0.23101 0.81204 0.97497 0.0
H335 H 0.26681 0.80682 0.85184 0.0
C336 C 0.21277 0.81765 0.94175 0.0
C337 C 0.25169 0.80954 0.9427 0.0
C338 C 0.27323 0.80577 0.97658 0.0
C339 C 0.21353 0.81905 0.87637 0.0
C340 C 0.23254 0.814 0.84389 0.0
C341 C 0.25197 0.81022 0.87718 0.0
C342 C 0.23104 0.81026 0.77565 0.0
C343 C 0.19363 0.82539 0.8427 0.0
C344 C 0.20687 0.7891 0.74862 0.0
C345 C 0.20517 0.78514 0.68413 0.0
C346 C 0.2278 0.80208 0.64578 0.0
C347 C 0.2523 0.82285 0.6732 0.0
C348 C 0.25389 0.82691 0.73787 0.0
H349 H 0.18744 0.83758 0.87282 0.0
H350 H 0.20272 0.83702 0.79867 0.0
H351 H 0.17468 0.80574 0.83071 0.0
H352 H 0.18932 0.77555 0.77751 0.0
H353 H 0.18614 0.76877 0.66443 0.0
H354 H 0.33191 0.1293 0.49177 0.0
H355 H 0.3011 0.08057 0.46727 0.0
H356 H 0.33828 0.05754 0.61499 0.0
H357 H 0.36864 0.10604 0.6408 0.0
H358 H 0.3181 0.04649 0.42578 0.0
H359 H 0.25797 0.00292 0.64291 0.0
H360 H 0.27745 0.03962 0.6283 0.0
H361 H 0.29427 0.0218 0.65886 0.0
C362 C 0.33315 0.11385 0.51992 0.0
C363 C 0.35282 0.12158 0.56815 0.0
C364 C 0.31551 0.08602 0.50583 0.0
C365 C 0.31715 0.06541 0.53975 0.0
C366 C 0.33613 0.07304 0.58921 0.0
H367 H 0.28578 0.90272 0.49977 0.0
H368 H 0.29987 0.95053 0.52456 0.0
C369 C 0.35365 0.10084 0.60363 0.0
C370 C 0.30136 0.03622 0.51926 0.0
H371 H 0.26146 0.97046 0.57369 0.0
C372 C 0.30521 0.02988 0.45768 0.0
C373 C 0.28449 0.0146 0.5609 0.0
C374 C 0.27806 0.02011 0.6262 0.0
C375 C 0.29396 0.00244 0.43782 0.0
C376 C 0.27846 0.98091 0.48061 0.0
C377 C 0.27354 0.98715 0.54122 0.0
C378 C 0.26933 0.95191 0.46504 0.0
C379 C 0.29985 0.99655 0.37235 0.0
C380 C 0.24749 0.93699 0.42324 0.0
C381 C 0.23928 0.90953 0.40888 0.0
C382 C 0.25292 0.89671 0.43604 0.0
C383 C 0.27489 0.91193 0.47774 0.0
C384 C 0.28292 0.93922 0.49225 0.0
H385 H 0.3142 0.01569 0.34655 0.0
H386 H 0.30893 0.98288 0.3742 0.0
H387 H 0.28025 0.98554 0.34562 0.0
H388 H 0.23674 0.94653 0.40204 0.0
H389 H 0.22225 0.89838 0.37673 0.0
H390 H 0.39041 0.29437 0.64132 0.0
H391 H 0.35575 0.30801 0.65728 0.0
H392 H 0.29571 0.2356 0.55775 0.0
H393 H 0.3304 0.22163 0.54114 0.0
H394 H 0.32183 0.31448 0.5542 0.0
H395 H 0.26258 0.2369 0.73982 0.0
H396 H 0.29828 0.24785 0.72363 0.0
H397 H 0.27201 0.22589 0.66922 0.0
C398 C 0.36988 0.28131 0.62258 0.0
C399 C 0.36314 0.25685 0.59008 0.0
C400 C 0.35014 0.28917 0.63175 0.0
C401 C 0.32325 0.27266 0.60912 0.0
C402 C 0.31639 0.24844 0.57591 0.0
H403 H 0.20699 0.33407 0.61888 0.0
H404 H 0.22767 0.30612 0.59011 0.0
C405 C 0.33624 0.2406 0.56626 0.0
C406 C 0.30267 0.28123 0.62067 0.0
H407 H 0.24985 0.27032 0.71836 0.0
C408 C 0.30576 0.3046 0.58925 0.0
C409 C 0.28201 0.26831 0.66689 0.0
C410 C 0.27837 0.24338 0.70226 0.0
C411 C 0.28913 0.31594 0.60414 0.0
C412 C 0.26888 0.30344 0.65146 0.0
C413 C 0.26531 0.27964 0.68184 0.0
C414 C 0.25303 0.3164 0.67323 0.0
C415 C 0.29411 0.34193 0.57126 0.0
C416 C 0.25976 0.33049 0.73061 0.0
C417 C 0.2481 0.34657 0.74723 0.0
C418 C 0.22943 0.3487 0.70669 0.0
C419 C 0.22141 0.33304 0.65106 0.0
C420 C 0.23319 0.31706 0.63442 0.0
H421 H 0.31292 0.35095 0.54153 0.0
H422 H 0.27616 0.33717 0.54089 0.0
H423 H 0.29622 0.35765 0.60604 0.0
H424 H 0.27506 0.33014 0.7611 0.0
H425 H 0.25459 0.35821 0.79056 0.0
H426 H 0.87799 0.20119 0.83522 0.0
H427 H 0.92673 0.22153 0.80785 0.0
H428 H 0.94695 0.28948 0.93345 0.0
H429 H 0.89851 0.26915 0.96203 0.0
H430 H 0.95628 0.2711 0.75066 0.0
H431 H 0.00718 0.27229 0.97364 0.0
H432 H 0.97036 0.2513 0.96243 0.0
H433 H 0.98561 0.2873 0.9824 0.0
C434 C 0.89287 0.22016 0.85811 0.0
C435 C 0.88431 0.23361 0.90065 0.0
C436 C 0.92072 0.23174 0.84234 0.0
C437 C 0.94049 0.25686 0.86904 0.0
C438 C 0.93214 0.26976 0.91333 0.0
H439 H 0.10027 0.39188 0.80679 0.0
H440 H 0.05304 0.35818 0.83565 0.0
C441 C 0.90436 0.25816 0.92933 0.0
C442 C 0.96926 0.27121 0.84582 0.0
H443 H 0.03628 0.30485 0.89472 0.0
C444 C 0.97381 0.27802 0.78187 0.0
C445 C 0.99207 0.28016 0.88665 0.0
C446 C 0.98857 0.27213 0.95497 0.0
C447 C 0.00053 0.29489 0.75834 0.0
C448 C 0.02318 0.30495 0.79984 0.0
C449 C 0.01876 0.29719 0.86319 0.0
C450 C 0.05143 0.32522 0.77956 0.0
C451 C 0.00431 0.30297 0.69003 0.0
C452 C 0.06601 0.31782 0.73789 0.0
C453 C 0.09313 0.3371 0.72104 0.0
C454 C 0.10604 0.36402 0.74585 0.0
C455 C 0.09104 0.37137 0.78672 0.0
C456 C 0.06405 0.35212 0.80352 0.0
H457 H 0.98435 0.29661 0.66622 0.0
H458 H 0.01779 0.32566 0.68506 0.0
H459 H 0.01452 0.29296 0.66568 0.0
H460 H 0.05662 0.29702 0.71938 0.0
H461 H 0.10413 0.33072 0.68972 0.0
H462 H 0.66631 0.87068 0.98496 0.0
H463 H 0.6966 0.91968 0.96215 0.0
H464 H 0.65994 0.94097 0.11426 0.0
H465 H 0.63009 0.8922 0.13836 0.0
H466 H 0.67893 0.95395 0.92496 0.0
H467 H 0.74047 0.99549 0.14134 0.0
H468 H 0.72102 0.95895 0.12476 0.0
H469 H 0.70423 0.97632 0.15798 0.0
C470 C 0.66506 0.8858 0.01437 0.0
C471 C 0.64571 0.87751 0.0634 0.0
C472 C 0.6824 0.91379 0.00125 0.0
C473 C 0.68077 0.93398 0.03695 0.0
C474 C 0.66207 0.92579 0.08708 0.0
H475 H 0.71542 0.09883 0.00763 0.0
H476 H 0.70046 0.05069 0.03127 0.0
C477 C 0.64485 0.89784 0.10051 0.0
C478 C 0.69636 0.96335 0.0179 0.0
H479 H 0.73709 0.02859 0.07459 0.0
C480 C 0.69211 0.97026 0.95723 0.0
C481 C 0.71357 0.98458 0.06007 0.0
C482 C 0.72033 0.97844 0.12443 0.0
C483 C 0.70342 0.99788 0.93874 0.0
C484 C 0.71944 0.01902 0.98198 0.0
C485 C 0.72462 0.0122 0.04176 0.0
C486 C 0.7292 0.04826 0.96758 0.0
C487 C 0.69711 0.00435 0.87422 0.0
C488 C 0.75037 0.06272 0.92398 0.0
C489 C 0.75906 0.09033 0.91028 0.0
C490 C 0.74659 0.1038 0.93992 0.0
C491 C 0.72538 0.0891 0.98366 0.0
C492 C 0.71686 0.06163 -0.0025 0.0
H493 H 0.68179 0.98551 0.84884 0.0
H494 H 0.68907 0.01886 0.87759 0.0
H495 H 0.71638 0.01457 0.84616 0.0
H496 H 0.76019 0.05267 0.90075 0.0
H497 H 0.77549 0.10108 0.87652 0.0
H498 H 0.79878 0.67326 0.1329 0.0
H499 H 0.78109 0.70414 0.10726 0.0
H500 H 0.72255 0.66951 0.2589 0.0
H501 H 0.74035 0.63906 0.28565 0.0
H502 H 0.72907 0.68626 0.06869 0.0
H503 H 0.7492 0.75057 0.27999 0.0
H504 H 0.76638 0.73105 0.2658 0.0
H505 H 0.73241 0.71467 0.30009 0.0
C506 C 0.78255 0.67264 0.1617 0.0
C507 C 0.77088 0.65357 0.21118 0.0
C508 C 0.77249 0.69032 0.14694 0.0
C509 C 0.75074 0.68937 0.1816 0.0
C510 C 0.7398 0.67111 0.23246 0.0
H511 H 0.61608 0.71367 0.15891 0.0
H512 H 0.65253 0.70285 0.17792 0.0
C513 C 0.74988 0.65352 0.2474 0.0
C514 C 0.73713 0.70481 0.16049 0.0
H515 H 0.7108 0.74422 0.21482 0.0
C516 C 0.72565 0.69953 0.10001 0.0
C517 C 0.73281 0.7222 0.20133 0.0
C518 C 0.74613 0.73018 0.26516 0.0
C519 C 0.70828 0.70953 0.08102 0.0
C520 C 0.70245 0.72525 0.12356 0.0
C521 C 0.71522 0.73194 0.18256 0.0
C522 C 0.6808 0.73224 0.11049 0.0
C523 C 0.6949 0.70183 0.0172 0.0
C524 C 0.6847 0.75229 0.06589 0.0
C525 C 0.66383 0.75859 0.05473 0.0
C526 C 0.63879 0.74487 0.08806 0.0
C527 C 0.63503 0.72461 0.13226 0.0
C528 C 0.65587 0.71845 0.14345 0.0
H529 H 0.69989 0.68757 -0.00832 0.0
H530 H 0.67214 0.69187 0.02187 0.0
H531 H 0.70205 0.72078 0.98862 0.0
H532 H 0.70394 0.7632 0.04026 0.0
H533 H 0.66743 0.77436 0.02055 0.0
H534 H 0.89762 0.60459 0.29943 0.0
H535 H 0.94577 0.63657 0.32461 0.0
H536 H 0.94383 0.69938 0.21123 0.0
H537 H 0.89523 0.66754 0.18624 0.0
H538 H 0.99096 0.66389 0.2445 0.0
H539 H 0.97245 0.73763 0.38213 0.0
H540 H 0.94503 0.70351 0.36151 0.0
H541 H 0.95881 0.73047 0.30374 0.0
C542 C 0.90734 0.62516 0.27955 0.0
C543 C 0.89247 0.63354 0.24106 0.0
C544 C 0.9349 0.64341 0.29406 0.0
C545 C 0.94817 0.67042 0.27061 0.0
C546 C 0.93374 0.67874 0.23076 0.0
H547 H 0.12181 0.79485 0.32039 0.0
H548 H 0.07336 0.77152 0.28796 0.0
C549 C 0.90606 0.66045 0.21616 0.0
C550 C 0.9772 0.68958 0.28816 0.0
H551 H 0.01868 0.74797 0.37221 0.0
C552 C 0.99705 0.68236 0.27205 0.0
C553 C 0.98499 0.71363 0.32423 0.0
C554 C 0.96424 0.72178 0.34447 0.0
C555 C 0.02447 0.69834 0.29185 0.0
C556 C 0.03212 0.72199 0.32898 0.0
C557 C 0.01255 0.72973 0.34377 0.0
C558 C 0.06027 0.73815 0.35449 0.0
C559 C 0.04512 0.68971 0.27373 0.0
C560 C 0.0685 0.72745 0.40401 0.0
C561 C 0.09606 0.74069 0.42285 0.0
C562 C 0.11586 0.76478 0.39213 0.0
C563 C 0.10713 0.77627 0.34484 0.0
C564 C 0.0795 0.76303 0.32623 0.0
H565 H 0.03699 0.67351 0.23685 0.0
H566 H 0.06448 0.70777 0.25657 0.0
H567 H 0.05032 0.68144 0.31561 0.0
H568 H 0.05378 0.70827 0.42641 0.0
H569 H 0.10201 0.73131 0.45952 0.0
H570 H 0.54731 0.30965 0.55075 0.0
H571 H 0.5829 0.35307 0.50523 0.0
H572 H 0.52264 0.3788 0.4785 0.0
H573 H 0.48746 0.33611 0.52784 0.0
H574 H 0.58554 0.36895 0.39242 0.0
H575 H 0.58404 0.44895 0.54223 0.0
H576 H 0.56622 0.41297 0.56374 0.0
H577 H 0.55077 0.42599 0.50954 0.0
C578 C 0.5419 0.32494 0.53664 0.0
C579 C 0.51476 0.3197 0.54318 0.0
C580 C 0.56218 0.34968 0.51034 0.0
C581 C 0.55561 0.36943 0.48874 0.0
C582 C 0.52853 0.36437 0.49634 0.0
H583 H 0.66843 0.48818 0.21005 0.0
H584 H 0.62676 0.45101 0.25926 0.0
C585 C 0.50838 0.3399 0.52431 0.0
C586 C 0.5766 0.39405 0.45388 0.0
H587 H 0.60849 0.46434 0.44572 0.0
C588 C 0.59066 0.38983 0.40444 0.0
C589 C 0.58337 0.42133 0.46946 0.0
C590 C 0.5705 0.42762 0.52454 0.0
C591 C 0.61168 0.412 0.37118 0.0
C592 C 0.61791 0.43925 0.38546 0.0
C593 C 0.60348 0.44346 0.43413 0.0
C594 C 0.64098 0.46373 0.35449 0.0
C595 C 0.62775 0.40587 0.32322 0.0
C596 C 0.66188 0.48438 0.39137 0.0
C597 C 0.68514 0.50609 0.36337 0.0
C598 C 0.68823 0.50738 0.29783 0.0
C599 C 0.66674 0.48748 0.26069 0.0
C600 C 0.64307 0.4661 0.28881 0.0
H601 H 0.62563 0.38525 0.33084 0.0
H602 H 0.6197 0.40588 0.2757 0.0
H603 H 0.65003 0.42161 0.32459 0.0
H604 H 0.66077 0.48316 0.44207 0.0
H605 H 0.70135 0.52105 0.39338 0.0
H606 H 0.16651 0.50414 0.72674 0.0
H607 H 0.15872 0.53974 0.68003 0.0
H608 H 0.2273 0.56291 0.55481 0.0
H609 H 0.23535 0.5277 0.6008 0.0
H610 H 0.19921 0.59923 0.66846 0.0
H611 H 0.16039 0.54697 0.43904 0.0
H612 H 0.16069 0.52879 0.50878 0.0
H613 H 0.19198 0.54931 0.46549 0.0
C614 C 0.18001 0.51689 0.68947 0.0
C615 C 0.20151 0.51299 0.66747 0.0
C616 C 0.17547 0.53713 0.66278 0.0
C617 C 0.19213 0.55351 0.6133 0.0
C618 C 0.21391 0.55008 0.5922 0.0
H619 H 0.21766 0.69018 0.38533 0.0
H620 H 0.21403 0.64805 0.42894 0.0
C621 C 0.21858 0.53006 0.61897 0.0
C622 C 0.18741 0.57478 0.58434 0.0
H623 H 0.17181 0.594 0.44532 0.0
C624 C 0.19286 0.598 0.61996 0.0
C625 C 0.17932 0.57304 0.52096 0.0
C626 C 0.17252 0.5481 0.4813 0.0
C627 C 0.19149 0.62017 0.59311 0.0
C628 C 0.18372 0.61863 0.52936 0.0
C629 C 0.17768 0.59508 0.49415 0.0
C630 C 0.18309 0.6419 0.49786 0.0
C631 C 0.19958 0.64552 0.63252 0.0
C632 C 0.16599 0.65164 0.52026 0.0
C633 C 0.16815 0.67579 0.49581 0.0
C634 C 0.18719 0.69041 0.44784 0.0
C635 C 0.20282 0.67944 0.4223 0.0
C636 C 0.20082 0.6554 0.44725 0.0
H637 H 0.21143 0.64608 0.67483 0.0
H638 H 0.21223 0.66466 0.60503 0.0
H639 H 0.18068 0.64544 0.64843 0.0
H640 H 0.15162 0.64109 0.55814 0.0
H641 H 0.15554 0.6835 0.51596 0.0
H642 H 0.66163 0.16017 0.92353 0.0
H643 H 0.61646 0.15012 0.88284 0.0
H644 H 0.65651 0.20562 0.72819 0.0
H645 H 0.70133 0.21575 0.76783 0.0
H646 H 0.59916 0.18995 0.85911 0.0
H647 H 0.59699 0.13381 0.64339 0.0
H648 H 0.61934 0.13839 0.70896 0.0
H649 H 0.62869 0.16586 0.65339 0.0
C650 C 0.66077 0.17014 0.88075 0.0
C651 C 0.68512 0.18875 0.84897 0.0
C652 C 0.63499 0.16433 0.85757 0.0
C653 C 0.63321 0.17674 0.80191 0.0
C654 C 0.65743 0.19537 0.77046 0.0
H655 H 0.53035 0.21092 0.57693 0.0
H656 H 0.56493 0.20175 0.62284 0.0
C657 C 0.68308 0.20131 0.79362 0.0
C658 C 0.60634 0.17173 0.77772 0.0
H659 H 0.56691 0.1529 0.64515 0.0
C660 C 0.59169 0.18131 0.81292 0.0
C661 C 0.59681 0.1605 0.7174 0.0
C662 C 0.61113 0.1488 0.67878 0.0
C663 C 0.56867 0.18158 0.78773 0.0
C664 C 0.55987 0.17149 0.72619 0.0
C665 C 0.57377 0.1607 0.6922 0.0
C666 C 0.53781 0.17418 0.69457 0.0
C667 C 0.55499 0.19416 0.82573 0.0
C668 C 0.51084 0.16091 0.71832 0.0
C669 C 0.49103 0.16618 0.69235 0.0
C670 C 0.49781 0.18469 0.64187 0.0
C671 C 0.52443 0.19666 0.6159 0.0
C672 C 0.54423 0.19144 0.64206 0.0
H673 H 0.56758 0.20578 0.86697 0.0
H674 H 0.55122 0.20836 0.79645 0.0
H675 H 0.53476 0.17751 0.84307 0.0
H676 H 0.50534 0.14707 0.75802 0.0
H677 H 0.47065 0.15638 0.71315 0.0
H678 H 0.51367 0.66236 0.0219 0.0
H679 H 0.47938 0.62007 0.96897 0.0
H680 H 0.41899 0.64603 0.9878 0.0
H681 H 0.45355 0.6889 0.03739 0.0
H682 H 0.43157 0.5773 -0.00586 0.0
H683 H 0.41623 0.63487 0.80354 0.0
H684 H 0.44317 0.6517 0.86114 0.0
H685 H 0.4086 0.64455 0.87765 0.0
C686 C 0.49296 0.65883 0.01533 0.0
C687 C 0.48629 0.67898 0.03301 0.0
C688 C 0.47342 0.63473 0.98488 0.0
C689 C 0.44686 0.6303 0.97243 0.0
C690 C 0.43966 0.6495 -0.00549 0.0
H691 H 0.2986 0.48042 0.89023 0.0
H692 H 0.34103 0.51719 0.93524 0.0
C693 C 0.45931 0.67383 0.02351 0.0
C694 C 0.42677 0.60597 0.93548 0.0
H695 H 0.38093 0.58733 0.81473 0.0
C696 C 0.42074 0.57949 0.95439 0.0
C697 C 0.41331 0.60876 0.88209 0.0
C698 C 0.42093 0.63654 0.85451 0.0
C699 C 0.40056 0.55572 0.92352 0.0
C700 C 0.38519 0.55847 0.87407 0.0
C701 C 0.39228 0.58502 0.85319 0.0
C702 C 0.36057 0.53442 0.84597 0.0
C703 C 0.39621 0.52803 0.94415 0.0
C704 C 0.35684 0.53207 0.78054 0.0
C705 C 0.33203 0.5115 0.7546 0.0
C706 C 0.3107 0.49261 0.79361 0.0
C707 C 0.31483 0.49438 0.85883 0.0
C708 C 0.33928 0.51531 0.88472 0.0
H709 H 0.41574 0.52991 0.96187 0.0
H710 H 0.38113 0.52009 0.98327 0.0
H711 H 0.38835 0.51275 0.90535 0.0
H712 H 0.37286 0.54661 0.74954 0.0
H713 H 0.32938 0.51062 0.70419 0.0
H714 H 0.82961 0.49499 0.22364 0.0
H715 H 0.83681 0.45916 0.17614 0.0
H716 H 0.76795 0.43673 0.0522 0.0
H717 H 0.76054 0.47224 0.09888 0.0
H718 H 0.79714 0.40044 0.1653 0.0
H719 H 0.83317 0.45161 0.93396 0.0
H720 H 0.83297 0.46998 0.00345 0.0
H721 H 0.8015 0.44879 0.96128 0.0
C722 C 0.81593 0.48236 0.18647 0.0
C723 C 0.79456 0.48659 0.16497 0.0
C724 C 0.82013 0.46198 0.15932 0.0
C725 C 0.80324 0.44575 0.10993 0.0
C726 C 0.78155 0.44946 0.08942 0.0
H727 H 0.77819 0.30797 0.88466 0.0
H728 H 0.78065 0.34971 0.92751 0.0
C729 C 0.77724 0.46966 0.11659 0.0
C730 C 0.80769 0.42438 0.0805 0.0
H731 H 0.82234 0.40477 0.94079 0.0
C732 C 0.80297 0.40147 0.11645 0.0
C733 C 0.81512 0.42585 0.01667 0.0
C734 C 0.82123 0.45047 0.97656 0.0
C735 C 0.80454 0.37941 0.08965 0.0
C736 C 0.81173 0.38071 0.02556 0.0
C737 C 0.8169 0.40388 -0.01012 0.0
C738 C 0.81286 0.35765 -0.00559 0.0
C739 C 0.79741 0.35444 0.12961 0.0
C740 C 0.83101 0.34905 0.01592 0.0
C741 C 0.82956 0.32515 -0.00815 0.0
C742 C 0.81013 0.30961 0.94524 0.0
C743 C 0.79334 0.31942 0.9206 0.0
C744 C 0.79468 0.34324 0.94511 0.0
H745 H 0.78587 0.35385 0.1725 0.0
H746 H 0.78481 0.33505 0.10286 0.0
H747 H 0.81671 0.3551 0.14456 0.0
H748 H 0.8457 0.36031 0.05281 0.0
H749 H 0.84304 0.31836 0.01132 0.0
H750 H 0.52678 0.83633 0.21934 0.0
H751 H 0.49129 0.84346 0.26763 0.0
H752 H 0.43481 0.79714 0.11888 0.0
H753 H 0.47014 0.78978 0.0699 0.0
H754 H 0.4358 0.84908 0.16423 0.0
H755 H 0.42307 0.77336 0.34963 0.0
H756 H 0.45749 0.80115 0.33419 0.0
H757 H 0.43951 0.77526 0.27552 0.0
C758 C 0.50699 0.82801 0.19615 0.0
C759 C 0.50121 0.81217 0.14105 0.0
C760 C 0.48675 0.83211 0.22396 0.0
C761 C 0.46045 0.82055 0.19711 0.0
C762 C 0.45506 0.80617 0.14024 0.0
H763 H 0.29768 0.76684 0.31371 0.0
H764 H 0.34197 0.77456 0.27521 0.0
C765 C 0.47526 0.80196 0.11241 0.0
C766 C 0.43783 0.82131 0.23094 0.0
H767 H 0.3937 0.792 0.35421 0.0
C768 C 0.42678 0.83693 0.20622 0.0
C769 C 0.42612 0.80524 0.28545 0.0
C770 C 0.43694 0.78762 0.31286 0.0
C771 C 0.40385 0.83647 0.2342 0.0
C772 C 0.39183 0.81997 0.28792 0.0
C773 C 0.40325 0.80483 0.31334 0.0
C774 C 0.36555 0.81564 0.31402 0.0
C775 C 0.39182 0.85266 0.20493 0.0
C776 C 0.36435 0.8361 0.34958 0.0
C777 C 0.33897 0.8317 0.37223 0.0
C778 C 0.31451 0.80685 0.35907 0.0
C779 C 0.31607 0.78628 0.32442 0.0
C780 C 0.34135 0.79061 0.30239 0.0
H781 H 0.4026 0.86314 0.16094 0.0
H782 H 0.36961 0.83873 0.1945 0.0
H783 H 0.39336 0.86852 0.23854 0.0
H784 H 0.38296 0.85549 0.35927 0.0
H785 H 0.33843 0.84796 0.39864 0.0
loop_
_geom_bond_atom_site_label_1
_geom_bond_atom_site_label_2
_geom_bond_distance
_geom_bond_site_symmetry_2
_ccdc_geom_bond_type
O0 Zn1 1.953 . S
O0 C16 1.225 . S
Zn1 O0 1.953 . S
Zn1 O2 1.949 . S
Zn1 O8 1.919 . S
Zn1 O13 1.924 . S
O2 Zn1 1.949 . S
O2 Zn3 1.923 . S
O2 Zn4 1.950 . S
O2 Zn5 1.945 . S
Zn3 O2 1.923 . S
Zn3 O6 1.933 . S
Zn3 O9 1.941 . S
Zn3 O10 1.965 . S
Zn4 O2 1.950 . S
Zn4 O11 1.938 . S
Zn4 O12 1.906 . S
Zn4 O22 1.953 . S
Zn5 O2 1.945 . S
Zn5 O7 1.932 . S
Zn5 O14 1.977 . S
Zn5 O15 1.910 . S
O6 Zn3 1.933 . S
O6 C17 1.226 . S
O7 Zn5 1.932 . S
O7 C17 1.307 . S
O8 Zn1 1.919 . S
O8 C19 1.253 . S
O9 Zn3 1.941 . S
O9 C19 1.283 . S
O10 Zn3 1.965 . S
O10 C18 1.303 . S
O11 Zn4 1.938 . S
O11 C18 1.247 . S
O12 Zn4 1.906 . S
O12 C20 1.304 . S
O13 Zn1 1.924 . S
O13 C21 1.311 . S
O14 Zn5 1.977 . S
O14 C20 1.272 . S
O15 Zn5 1.910 . S
O15 C21 1.231 . S
C16 O0 1.225 . S
C16 O22 1.298 . S
C17 O6 1.226 . S
C17 O7 1.307 . S
C18 O10 1.303 . S
C18 O11 1.247 . S
C19 O8 1.253 . S
C19 O9 1.283 . S
C20 O12 1.304 . S
C20 O14 1.272 . S
C21 O13 1.311 . S
C21 O15 1.231 . S
O22 Zn4 1.953 . S
O22 C16 1.298 . S
O23 Zn24 1.953 . S
O23 C39 1.225 . S
Zn24 O23 1.953 . S
Zn24 O25 1.949 . S
Zn24 O31 1.919 . S
Zn24 O36 1.924 . S
O25 Zn24 1.949 . S
O25 Zn26 1.923 . S
O25 Zn27 1.950 . S
O25 Zn28 1.945 . S
Zn26 O25 1.923 . S
Zn26 O29 1.933 . S
Zn26 O32 1.941 . S
Zn26 O33 1.965 . S
Zn27 O25 1.950 . S
Zn27 O34 1.938 . S
Zn27 O35 1.906 . S
Zn27 O45 1.953 . S
Zn28 O25 1.945 . S
Zn28 O30 1.932 . S
Zn28 O37 1.977 . S
Zn28 O38 1.910 . S
O29 Zn26 1.933 . S
O29 C40 1.226 . S
O30 Zn28 1.932 . S
O30 C40 1.307 . S
O31 Zn24 1.919 . S
O31 C42 1.253 . S
O32 Zn26 1.941 . S
O32 C42 1.283 . S
O33 Zn26 1.965 . S
O33 C41 1.303 . S
O34 Zn27 1.938 . S
O34 C41 1.247 . S
O35 Zn27 1.906 . S
O35 C43 1.304 . S
O36 Zn24 1.924 . S
O36 C44 1.311 . S
O37 Zn28 1.977 . S
O37 C43 1.272 . S
O38 Zn28 1.910 . S
O38 C44 1.231 . S
C39 O23 1.225 . S
C39 O45 1.298 . S
C40 O29 1.226 . S
C40 O30 1.307 . S
C41 O33 1.303 . S
C41 O34 1.247 . S
C42 O31 1.253 . S
C42 O32 1.283 . S
C43 O35 1.304 . S
C43 O37 1.272 . S
C44 O36 1.311 . S
C44 O38 1.231 . S
O45 Zn27 1.953 . S
O45 C39 1.298 . S
O46 Zn47 1.953 1_554 S
O46 C62 1.225 . S
Zn47 O46 1.953 1_556 S
Zn47 O48 1.949 . S
Zn47 O54 1.919 . S
Zn47 O59 1.924 . S
O48 Zn47 1.949 . S
O48 Zn49 1.923 . S
O48 Zn50 1.950 . S
O48 Zn51 1.945 . S
Zn49 O48 1.923 . S
Zn49 O52 1.933 . S
Zn49 O55 1.941 . S
Zn49 O56 1.965 . S
Zn50 O48 1.950 . S
Zn50 O57 1.938 . S
Zn50 O58 1.906 . S
Zn50 O68 1.953 1_556 S
Zn51 O48 1.945 . S
Zn51 O53 1.932 . S
Zn51 O60 1.977 . S
Zn51 O61 1.910 . S
O52 Zn49 1.933 . S
O52 C63 1.226 . S
O53 Zn51 1.932 . S
O53 C63 1.307 . S
O54 Zn47 1.919 . S
O54 C65 1.253 . S
O55 Zn49 1.941 . S
O55 C65 1.283 . S
O56 Zn49 1.965 . S
O56 C64 1.303 . S
O57 Zn50 1.938 . S
O57 C64 1.247 . S
O58 Zn50 1.906 . S
O58 C66 1.304 . S
O59 Zn47 1.924 . S
O59 C67 1.311 . S
O60 Zn51 1.977 . S
O60 C66 1.272 . S
O61 Zn51 1.910 . S
O61 C67 1.231 . S
C62 O46 1.225 . S
C62 O68 1.298 . S
C63 O52 1.226 . S
C63 O53 1.307 . S
C64 O56 1.303 . S
C64 O57 1.247 . S
C65 O54 1.253 . S
C65 O55 1.283 . S
C66 O58 1.304 . S
C66 O60 1.272 . S
C67 O59 1.311 . S
C67 O61 1.231 . S
O68 Zn50 1.953 1_554 S
O68 C62 1.298 . S
O69 Zn70 1.953 . S
O69 C85 1.225 . S
Zn70 O69 1.953 . S
Zn70 O71 1.949 . S
Zn70 O77 1.919 . S
Zn70 O82 1.924 . S
O71 Zn70 1.949 . S
O71 Zn72 1.923 . S
O71 Zn73 1.950 . S
O71 Zn74 1.945 . S
Zn72 O71 1.923 . S
Zn72 O75 1.933 1_554 S
Zn72 O78 1.941 . S
Zn72 O79 1.965 . S
Zn73 O71 1.950 . S
Zn73 O80 1.938 . S
Zn73 O81 1.906 . S
Zn73 O91 1.953 . S
Zn74 O71 1.945 . S
Zn74 O76 1.932 1_554 S
Zn74 O83 1.977 . S
Zn74 O84 1.910 . S
O75 Zn72 1.933 1_556 S
O75 C86 1.226 . S
O76 Zn74 1.932 1_556 S
O76 C86 1.307 . S
O77 Zn70 1.919 . S
O77 C88 1.253 . S
O78 Zn72 1.941 . S
O78 C88 1.283 . S
O79 Zn72 1.965 . S
O79 C87 1.303 . S
O80 Zn73 1.938 . S
O80 C87 1.247 . S
O81 Zn73 1.906 . S
O81 C89 1.304 . S
O82 Zn70 1.924 . S
O82 C90 1.311 . S
O83 Zn74 1.977 . S
O83 C89 1.272 . S
O84 Zn74 1.910 . S
O84 C90 1.231 . S
C85 O69 1.225 . S
C85 O91 1.298 . S
C86 O75 1.226 . S
C86 O76 1.307 . S
C87 O79 1.303 . S
C87 O80 1.247 . S
C88 O77 1.253 . S
C88 O78 1.283 . S
C89 O81 1.304 . S
C89 O83 1.272 . S
C90 O82 1.311 . S
C90 O84 1.231 . S
O91 Zn73 1.953 . S
O91 C85 1.298 . S
O92 Zn93 1.953 . S
O92 C108 1.225 . S
Zn93 O92 1.953 . S
Zn93 O94 1.949 . S
Zn93 O100 1.919 . S
Zn93 O105 1.924 . S
O94 Zn93 1.949 . S
O94 Zn95 1.923 . S
O94 Zn96 1.950 . S
O94 Zn97 1.945 . S
Zn95 O94 1.923 . S
Zn95 O98 1.933 . S
Zn95 O101 1.941 . S
Zn95 O102 1.965 . S
Zn96 O94 1.950 . S
Zn96 O103 1.938 . S
Zn96 O104 1.906 . S
Zn96 O114 1.953 . S
Zn97 O94 1.945 . S
Zn97 O99 1.932 . S
Zn97 O106 1.977 . S
Zn97 O107 1.910 . S
O98 Zn95 1.933 . S
O98 C109 1.226 . S
O99 Zn97 1.932 . S
O99 C109 1.307 . S
O100 Zn93 1.919 . S
O100 C111 1.253 . S
O101 Zn95 1.941 . S
O101 C111 1.283 . S
O102 Zn95 1.965 . S
O102 C110 1.303 . S
O103 Zn96 1.938 . S
O103 C110 1.247 . S
O104 Zn96 1.906 . S
O104 C112 1.304 . S
O105 Zn93 1.924 . S
O105 C113 1.311 . S
O106 Zn97 1.977 . S
O106 C112 1.272 . S
O107 Zn97 1.910 . S
O107 C113 1.231 . S
C108 O92 1.225 . S
C108 O114 1.298 . S
C109 O98 1.226 . S
C109 O99 1.307 . S
C110 O102 1.303 . S
C110 O103 1.247 . S
C111 O100 1.253 . S
C111 O101 1.283 . S
C112 O104 1.304 . S
C112 O106 1.272 . S
C113 O105 1.311 . S
C113 O107 1.231 . S
O114 Zn96 1.953 . S
O114 C108 1.298 . S
O115 Zn116 1.953 . S
O115 C131 1.225 . S
Zn116 O115 1.953 . S
Zn116 O117 1.949 . S
Zn116 O123 1.919 . S
Zn116 O128 1.924 . S
O117 Zn116 1.949 . S
O117 Zn118 1.923 . S
O117 Zn119 1.950 . S
O117 Zn120 1.945 . S
Zn118 O117 1.923 . S
Zn118 O121 1.933 . S
Zn118 O124 1.941 . S
Zn118 O125 1.965 . S
Zn119 O117 1.950 . S
Zn119 O126 1.938 . S
Zn119 O127 1.906 . S
Zn119 O137 1.953 . S
Zn120 O117 1.945 . S
Zn120 O122 1.932 . S
Zn120 O129 1.977 . S
Zn120 O130 1.910 . S
O121 Zn118 1.933 . S
O121 C132 1.226 . S
O122 Zn120 1.932 . S
O122 C132 1.307 . S
O123 Zn116 1.919 . S
O123 C134 1.253 . S
O124 Zn118 1.941 . S
O124 C134 1.283 . S
O125 Zn118 1.965 . S
O125 C133 1.303 . S
O126 Zn119 1.938 . S
O126 C133 1.247 . S
O127 Zn119 1.906 . S
O127 C135 1.304 . S
O128 Zn116 1.924 . S
O128 C136 1.311 . S
O129 Zn120 1.977 . S
O129 C135 1.272 . S
O130 Zn120 1.910 . S
O130 C136 1.231 . S
C131 O115 1.225 . S
C131 O137 1.298 . S
C132 O121 1.226 . S
C132 O122 1.307 . S
C133 O125 1.303 . S
C133 O126 1.247 . S
C134 O123 1.253 . S
C134 O124 1.283 . S
C135 O127 1.304 . S
C135 O129 1.272 . S
C136 O128 1.311 . S
C136 O130 1.231 . S
O137 Zn119 1.953 . S
O137 C131 1.298 . S
H138 C146 0.929 . S
H139 C148 0.930 . S
H140 C150 0.930 . S
H141 C153 0.929 . S
H142 C156 0.930 . S
H143 C158 0.960 . S
H144 C158 0.960 . S
H145 C158 0.960 . S
C146 H138 0.929 . S
C146 C147 1.377 . S
C146 C148 1.384 . S
C147 C146 1.377 . S
C147 C153 1.390 . S
C148 H139 0.930 . S
C148 C146 1.384 . S
C148 C149 1.372 . S
C149 C148 1.372 . S
C149 C150 1.400 . S
C149 C154 1.490 . S
C150 H140 0.930 . S
C150 C149 1.400 . S
C150 C153 1.386 . S
H151 C167 0.930 . S
H152 C168 0.931 . S
C153 H141 0.929 . S
C153 C147 1.390 . S
C153 C150 1.386 . S
C154 C149 1.490 . S
C154 C156 1.395 . S
C154 C157 1.403 . S
H155 C161 0.930 . S
C156 H142 0.930 . S
C156 C154 1.395 . S
C156 C159 1.403 . S
C157 C154 1.403 . S
C157 C158 1.524 . S
C157 C161 1.400 . S
C158 H143 0.960 . S
C158 H144 0.960 . S
C158 H145 0.960 . S
C158 C157 1.524 . S
C159 C156 1.403 . S
C159 C160 1.392 . S
C159 C163 1.495 . S
C160 C159 1.392 . S
C160 C161 1.385 . S
C160 C162 1.478 1_554 S
C161 H155 0.930 . S
C161 C157 1.400 . S
C161 C160 1.385 . S
C162 C160 1.478 1_556 S
C162 C164 1.381 . S
C162 C168 1.383 . S
C163 C159 1.495 . S
C163 H169 0.959 . S
C163 H170 0.961 1_554 S
C163 H171 0.960 1_554 S
C164 C162 1.381 . S
C164 C165 1.394 . S
C164 H172 0.930 . S
C165 C164 1.394 . S
C165 C166 1.383 . S
C165 H173 0.929 . S
C166 C165 1.383 . S
C166 C167 1.377 . S
C167 H151 0.930 . S
C167 C166 1.377 . S
C167 C168 1.379 . S
C168 H152 0.931 . S
C168 C162 1.383 . S
C168 C167 1.379 . S
H169 C163 0.959 . S
H170 C163 0.961 1_556 S
H171 C163 0.960 1_556 S
H172 C164 0.930 . S
H173 C165 0.929 . S
H174 C182 0.929 . S
H175 C184 0.930 . S
H176 C186 0.930 . S
H177 C189 0.929 . S
H178 C192 0.930 . S
H179 C194 0.960 . S
H180 C194 0.960 . S
H181 C194 0.960 . S
C182 H174 0.929 . S
C182 C183 1.377 . S
C182 C184 1.384 . S
C183 C182 1.377 . S
C183 C189 1.390 . S
C184 H175 0.930 . S
C184 C182 1.384 . S
C184 C185 1.372 . S
C185 C184 1.372 . S
C185 C186 1.400 . S
C185 C190 1.490 . S
C186 H176 0.930 . S
C186 C185 1.400 . S
C186 C189 1.386 . S
H187 C203 0.930 1_556 S
H188 C204 0.931 . S
C189 H177 0.929 . S
C189 C183 1.390 . S
C189 C186 1.386 . S
C190 C185 1.490 . S
C190 C192 1.395 . S
C190 C193 1.403 . S
H191 C197 0.930 . S
C192 H178 0.930 . S
C192 C190 1.395 . S
C192 C195 1.403 . S
C193 C190 1.403 . S
C193 C194 1.524 . S
C193 C197 1.400 . S
C194 H179 0.960 . S
C194 H180 0.960 . S
C194 H181 0.960 . S
C194 C193 1.524 . S
C195 C192 1.403 . S
C195 C196 1.392 . S
C195 C199 1.495 . S
C196 C195 1.392 . S
C196 C197 1.385 . S
C196 C198 1.478 . S
C197 H191 0.930 . S
C197 C193 1.400 . S
C197 C196 1.385 . S
C198 C196 1.478 . S
C198 C200 1.381 . S
C198 C204 1.383 . S
C199 C195 1.495 . S
C199 H205 0.959 . S
C199 H206 0.961 . S
C199 H207 0.960 . S
C200 C198 1.381 . S
C200 C201 1.394 . S
C200 H208 0.930 . S
C201 C200 1.394 . S
C201 C202 1.383 1_554 S
C201 H209 0.929 1_554 S
C202 C201 1.383 1_556 S
C202 C203 1.377 1_556 S
C203 H187 0.930 1_554 S
C203 C202 1.377 1_554 S
C203 C204 1.379 . S
C204 H188 0.931 . S
C204 C198 1.383 . S
C204 C203 1.379 . S
H205 C199 0.959 . S
H206 C199 0.961 . S
H207 C199 0.960 . S
H208 C200 0.930 . S
H209 C201 0.929 1_556 S
H210 C218 0.929 . S
H211 C220 0.930 . S
H212 C222 0.930 . S
H213 C225 0.929 . S
H214 C228 0.930 . S
H215 C230 0.960 . S
H216 C230 0.960 . S
H217 C230 0.960 . S
C218 H210 0.929 . S
C218 C219 1.377 . S
C218 C220 1.384 . S
C219 C218 1.377 . S
C219 C225 1.390 . S
C220 H211 0.930 . S
C220 C218 1.384 . S
C220 C221 1.372 . S
C221 C220 1.372 . S
C221 C222 1.400 . S
C221 C226 1.490 . S
C222 H212 0.930 . S
C222 C221 1.400 . S
C222 C225 1.386 . S
H223 C239 0.930 . S
H224 C240 0.931 . S
C225 H213 0.929 . S
C225 C219 1.390 . S
C225 C222 1.386 . S
C226 C221 1.490 . S
C226 C228 1.395 . S
C226 C229 1.403 . S
H227 C233 0.930 . S
C228 H214 0.930 . S
C228 C226 1.395 . S
C228 C231 1.403 . S
C229 C226 1.403 . S
C229 C230 1.524 . S
C229 C233 1.400 . S
C230 H215 0.960 . S
C230 H216 0.960 . S
C230 H217 0.960 . S
C230 C229 1.524 . S
C231 C228 1.403 . S
C231 C232 1.392 . S
C231 C235 1.495 . S
C232 C231 1.392 . S
C232 C233 1.385 . S
C232 C234 1.478 . S
C233 H227 0.930 . S
C233 C229 1.400 . S
C233 C232 1.385 . S
C234 C232 1.478 . S
C234 C236 1.381 . S
C234 C240 1.383 . S
C235 C231 1.495 . S
C235 H241 0.959 . S
C235 H242 0.961 . S
C235 H243 0.960 . S
C236 C234 1.381 . S
C236 C237 1.394 . S
C236 H244 0.930 . S
C237 C236 1.394 . S
C237 C238 1.383 . S
C237 H245 0.929 . S
C238 C237 1.383 . S
C238 C239 1.377 . S
C239 H223 0.930 . S
C239 C238 1.377 . S
C239 C240 1.379 . S
C240 H224 0.931 . S
C240 C234 1.383 . S
C240 C239 1.379 . S
H241 C235 0.959 . S
H242 C235 0.961 . S
H243 C235 0.960 . S
H244 C236 0.930 . S
H245 C237 0.929 . S
H246 C254 0.929 . S
H247 C256 0.930 . S
H248 C258 0.930 . S
H249 C261 0.929 . S
H250 C264 0.930 . S
H251 C266 0.960 . S
H252 C266 0.960 . S
H253 C266 0.960 . S
C254 H246 0.929 . S
C254 C255 1.377 . S
C254 C256 1.384 . S
C255 C254 1.377 . S
C255 C261 1.390 . S
C256 H247 0.930 . S
C256 C254 1.384 . S
C256 C257 1.372 . S
C257 C256 1.372 . S
C257 C258 1.400 . S
C257 C262 1.490 . S
C258 H248 0.930 . S
C258 C257 1.400 . S
C258 C261 1.386 . S
H259 C275 0.930 . S
H260 C276 0.931 . S
C261 H249 0.929 . S
C261 C255 1.390 . S
C261 C258 1.386 . S
C262 C257 1.490 . S
C262 C264 1.395 . S
C262 C265 1.403 . S
H263 C269 0.930 . S
C264 H250 0.930 . S
C264 C262 1.395 . S
C264 C267 1.403 . S
C265 C262 1.403 . S
C265 C266 1.524 . S
C265 C269 1.400 . S
C266 H251 0.960 . S
C266 H252 0.960 . S
C266 H253 0.960 . S
C266 C265 1.524 . S
C267 C264 1.403 . S
C267 C268 1.392 . S
C267 C271 1.495 . S
C268 C267 1.392 . S
C268 C269 1.385 . S
C268 C270 1.478 . S
C269 H263 0.930 . S
C269 C265 1.400 . S
C269 C268 1.385 . S
C270 C268 1.478 . S
C270 C272 1.381 . S
C270 C276 1.383 . S
C271 C267 1.495 . S
C271 H277 0.959 . S
C271 H278 0.961 . S
C271 H279 0.960 . S
C272 C270 1.381 . S
C272 C273 1.394 . S
C272 H280 0.930 . S
C273 C272 1.394 . S
C273 C274 1.383 . S
C273 H281 0.929 . S
C274 C273 1.383 . S
C274 C275 1.377 . S
C275 H259 0.930 . S
C275 C274 1.377 . S
C275 C276 1.379 . S
C276 H260 0.931 . S
C276 C270 1.383 . S
C276 C275 1.379 . S
H277 C271 0.959 . S
H278 C271 0.961 . S
H279 C271 0.960 . S
H280 C272 0.930 . S
H281 C273 0.929 . S
H282 C290 0.929 . S
H283 C292 0.930 . S
H284 C294 0.930 . S
H285 C297 0.929 . S
H286 C300 0.930 . S
H287 C302 0.960 . S
H288 C302 0.960 . S
H289 C302 0.960 . S
C290 H282 0.929 . S
C290 C291 1.377 . S
C290 C292 1.384 . S
C291 C290 1.377 . S
C291 C297 1.390 . S
C292 H283 0.930 . S
C292 C290 1.384 . S
C292 C293 1.372 . S
C293 C292 1.372 . S
C293 C294 1.400 . S
C293 C298 1.490 . S
C294 H284 0.930 . S
C294 C293 1.400 . S
C294 C297 1.386 . S
H295 C311 0.930 1_554 S
H296 C312 0.931 . S
C297 H285 0.929 . S
C297 C291 1.390 . S
C297 C294 1.386 . S
C298 C293 1.490 . S
C298 C300 1.395 . S
C298 C301 1.403 . S
H299 C305 0.930 . S
C300 H286 0.930 . S
C300 C298 1.395 . S
C300 C303 1.403 . S
C301 C298 1.403 . S
C301 C302 1.524 . S
C301 C305 1.400 . S
C302 H287 0.960 . S
C302 H288 0.960 . S
C302 H289 0.960 . S
C302 C301 1.524 . S
C303 C300 1.403 . S
C303 C304 1.392 . S
C303 C307 1.495 . S
C304 C303 1.392 . S
C304 C305 1.385 . S
C304 C306 1.478 . S
C305 H299 0.930 . S
C305 C301 1.400 . S
C305 C304 1.385 . S
C306 C304 1.478 . S
C306 C308 1.381 . S
C306 C312 1.383 . S
C307 C303 1.495 . S
C307 H313 0.959 . S
C307 H314 0.961 . S
C307 H315 0.960 . S
C308 C306 1.381 . S
C308 C309 1.394 . S
C308 H316 0.930 . S
C309 C308 1.394 . S
C309 C310 1.383 1_556 S
C309 H317 0.929 1_556 S
C310 C309 1.383 1_554 S
C310 C311 1.377 1_554 S
C311 H295 0.930 1_556 S
C311 C310 1.377 1_556 S
C311 C312 1.379 . S
C312 H296 0.931 . S
C312 C306 1.383 . S
C312 C311 1.379 . S
H313 C307 0.959 . S
H314 C307 0.961 . S
H315 C307 0.960 . S
H316 C308 0.930 . S
H317 C309 0.929 1_554 S
H318 C326 0.929 . S
H319 C328 0.930 . S
H320 C330 0.930 . S
H321 C333 0.929 . S
H322 C336 0.930 . S
H323 C338 0.960 . S
H324 C338 0.960 1_554 S
H325 C338 0.960 1_554 S
C326 H318 0.929 . S
C326 C327 1.377 . S
C326 C328 1.384 . S
C327 C326 1.377 . S
C327 C333 1.390 . S
C328 H319 0.930 . S
C328 C326 1.384 . S
C328 C329 1.372 . S
C329 C328 1.372 . S
C329 C330 1.400 . S
C329 C334 1.490 1_554 S
C330 H320 0.930 . S
C330 C329 1.400 . S
C330 C333 1.386 . S
H331 C347 0.930 . S
H332 C348 0.931 . S
C333 H321 0.929 . S
C333 C327 1.390 . S
C333 C330 1.386 . S
C334 C329 1.490 1_556 S
C334 C336 1.395 . S
C334 C337 1.403 . S
H335 C341 0.930 . S
C336 H322 0.930 . S
C336 C334 1.395 . S
C336 C339 1.403 . S
C337 C334 1.403 . S
C337 C338 1.524 . S
C337 C341 1.400 . S
C338 H323 0.960 . S
C338 H324 0.960 1_556 S
C338 H325 0.960 1_556 S
C338 C337 1.524 . S
C339 C336 1.403 . S
C339 C340 1.392 . S
C339 C343 1.495 . S
C340 C339 1.392 . S
C340 C341 1.385 . S
C340 C342 1.478 . S
C341 H335 0.930 . S
C341 C337 1.400 . S
C341 C340 1.385 . S
C342 C340 1.478 . S
C342 C344 1.381 . S
C342 C348 1.383 . S
C343 C339 1.495 . S
C343 H349 0.959 . S
C343 H350 0.961 . S
C343 H351 0.960 . S
C344 C342 1.381 . S
C344 C345 1.394 . S
C344 H352 0.930 . S
C345 C344 1.394 . S
C345 C346 1.383 . S
C345 H353 0.929 . S
C346 C345 1.383 . S
C346 C347 1.377 . S
C347 H331 0.930 . S
C347 C346 1.377 . S
C347 C348 1.379 . S
C348 H332 0.931 . S
C348 C342 1.383 . S
C348 C347 1.379 . S
H349 C343 0.959 . S
H350 C343 0.961 . S
H351 C343 0.960 . S
H352 C344 0.930 . S
H353 C345 0.929 . S
H354 C362 0.929 . S
H355 C364 0.930 . S
H356 C366 0.930 . S
H357 C369 0.929 . S
H358 C372 0.930 . S
H359 C374 0.960 . S
H360 C374 0.960 . S
H361 C374 0.960 . S
C362 H354 0.929 . S
C362 C363 1.377 . S
C362 C364 1.384 . S
C363 C362 1.377 . S
C363 C369 1.390 . S
C364 H355 0.930 . S
C364 C362 1.384 . S
C364 C365 1.372 . S
C365 C364 1.372 . S
C365 C366 1.400 . S
C365 C370 1.490 . S
C366 H356 0.930 . S
C366 C365 1.400 . S
C366 C369 1.386 . S
H367 C383 0.930 . S
H368 C384 0.931 . S
C369 H357 0.929 . S
C369 C363 1.390 . S
C369 C366 1.386 . S
C370 C365 1.490 . S
C370 C372 1.395 . S
C370 C373 1.403 . S
H371 C377 0.930 . S
C372 H358 0.930 . S
C372 C370 1.395 . S
C372 C375 1.403 1_545 S
C373 C370 1.403 . S
C373 C374 1.524 . S
C373 C377 1.400 1_545 S
C374 H359 0.960 . S
C374 H360 0.960 . S
C374 H361 0.960 . S
C374 C373 1.524 . S
C375 C372 1.403 1_565 S
C375 C376 1.392 . S
C375 C379 1.495 . S
C376 C375 1.392 . S
C376 C377 1.385 . S
C376 C378 1.478 . S
C377 H371 0.930 . S
C377 C373 1.400 1_565 S
C377 C376 1.385 . S
C378 C376 1.478 . S
C378 C380 1.381 . S
C378 C384 1.383 . S
C379 C375 1.495 . S
C379 H385 0.959 . S
C379 H386 0.961 . S
C379 H387 0.960 . S
C380 C378 1.381 . S
C380 C381 1.394 . S
C380 H388 0.930 . S
C381 C380 1.394 . S
C381 C382 1.383 . S
C381 H389 0.929 . S
C382 C381 1.383 . S
C382 C383 1.377 . S
C383 H367 0.930 . S
C383 C382 1.377 . S
C383 C384 1.379 . S
C384 H368 0.931 . S
C384 C378 1.383 . S
C384 C383 1.379 . S
H385 C379 0.959 . S
H386 C379 0.961 . S
H387 C379 0.960 . S
H388 C380 0.930 . S
H389 C381 0.929 . S
H390 C398 0.929 . S
H391 C400 0.930 . S
H392 C402 0.930 . S
H393 C405 0.929 . S
H394 C408 0.930 . S
H395 C410 0.960 . S
H396 C410 0.960 . S
H397 C410 0.960 . S
C398 H390 0.929 . S
C398 C399 1.377 . S
C398 C400 1.384 . S
C399 C398 1.377 . S
C399 C405 1.390 . S
C400 H391 0.930 . S
C400 C398 1.384 . S
C400 C401 1.372 . S
C401 C400 1.372 . S
C401 C402 1.400 . S
C401 C406 1.490 . S
C402 H392 0.930 . S
C402 C401 1.400 . S
C402 C405 1.386 . S
H403 C419 0.930 . S
H404 C420 0.931 . S
C405 H393 0.929 . S
C405 C399 1.390 . S
C405 C402 1.386 . S
C406 C401 1.490 . S
C406 C408 1.395 . S
C406 C409 1.403 . S
H407 C413 0.930 . S
C408 H394 0.930 . S
C408 C406 1.395 . S
C408 C411 1.403 . S
C409 C406 1.403 . S
C409 C410 1.524 . S
C409 C413 1.400 . S
C410 H395 0.960 . S
C410 H396 0.960 . S
C410 H397 0.960 . S
C410 C409 1.524 . S
C411 C408 1.403 . S
C411 C412 1.392 . S
C411 C415 1.495 . S
C412 C411 1.392 . S
C412 C413 1.385 . S
C412 C414 1.478 . S
C413 H407 0.930 . S
C413 C409 1.400 . S
C413 C412 1.385 . S
C414 C412 1.478 . S
C414 C416 1.381 . S
C414 C420 1.383 . S
C415 C411 1.495 . S
C415 H421 0.959 . S
C415 H422 0.961 . S
C415 H423 0.960 . S
C416 C414 1.381 . S
C416 C417 1.394 . S
C416 H424 0.930 . S
C417 C416 1.394 . S
C417 C418 1.383 . S
C417 H425 0.929 . S
C418 C417 1.383 . S
C418 C419 1.377 . S
C419 H403 0.930 . S
C419 C418 1.377 . S
C419 C420 1.379 . S
C420 H404 0.931 . S
C420 C414 1.383 . S
C420 C419 1.379 . S
H421 C415 0.959 . S
H422 C415 0.961 . S
H423 C415 0.960 . S
H424 C416 0.930 . S
H425 C417 0.929 . S
H426 C434 0.929 . S
H427 C436 0.930 . S
H428 C438 0.930 . S
H429 C441 0.929 . S
H430 C444 0.930 . S
H431 C446 0.960 . S
H432 C446 0.960 . S
H433 C446 0.960 . S
C434 H426 0.929 . S
C434 C435 1.377 . S
C434 C436 1.384 . S
C435 C434 1.377 . S
C435 C441 1.390 . S
C436 H427 0.930 . S
C436 C434 1.384 . S
C436 C437 1.372 . S
C437 C436 1.372 . S
C437 C438 1.400 . S
C437 C442 1.490 . S
C438 H428 0.930 . S
C438 C437 1.400 . S
C438 C441 1.386 . S
H439 C455 0.930 . S
H440 C456 0.931 . S
C441 H429 0.929 . S
C441 C435 1.390 . S
C441 C438 1.386 . S
C442 C437 1.490 . S
C442 C444 1.395 . S
C442 C445 1.403 . S
H443 C449 0.930 . S
C444 H430 0.930 . S
C444 C442 1.395 . S
C444 C447 1.403 1_655 S
C445 C442 1.403 . S
C445 C446 1.524 . S
C445 C449 1.400 1_655 S
C446 H431 0.960 . S
C446 H432 0.960 . S
C446 H433 0.960 . S
C446 C445 1.524 . S
C447 C444 1.403 1_455 S
C447 C448 1.392 . S
C447 C451 1.495 . S
C448 C447 1.392 . S
C448 C449 1.385 . S
C448 C450 1.478 . S
C449 H443 0.930 . S
C449 C445 1.400 1_455 S
C449 C448 1.385 . S
C450 C448 1.478 . S
C450 C452 1.381 . S
C450 C456 1.383 . S
C451 C447 1.495 . S
C451 H457 0.959 . S
C451 H458 0.961 . S
C451 H459 0.960 . S
C452 C450 1.381 . S
C452 C453 1.394 . S
C452 H460 0.930 . S
C453 C452 1.394 . S
C453 C454 1.383 . S
C453 H461 0.929 . S
C454 C453 1.383 . S
C454 C455 1.377 . S
C455 H439 0.930 . S
C455 C454 1.377 . S
C455 C456 1.379 . S
C456 H440 0.931 . S
C456 C450 1.383 . S
C456 C455 1.379 . S
H457 C451 0.959 . S
H458 C451 0.961 . S
H459 C451 0.960 . S
H460 C452 0.930 . S
H461 C453 0.929 . S
H462 C470 0.929 1_556 S
H463 C472 0.930 . S
H464 C474 0.930 . S
H465 C477 0.929 . S
H466 C480 0.930 . S
H467 C482 0.960 1_545 S
H468 C482 0.960 . S
H469 C482 0.960 . S
C470 H462 0.929 1_554 S
C470 C471 1.377 . S
C470 C472 1.384 1_554 S
C471 C470 1.377 . S
C471 C477 1.390 . S
C472 H463 0.930 . S
C472 C470 1.384 1_556 S
C472 C473 1.372 1_556 S
C473 C472 1.372 1_554 S
C473 C474 1.400 . S
C473 C478 1.490 . S
C474 H464 0.930 . S
C474 C473 1.400 . S
C474 C477 1.386 . S
H475 C491 0.930 1_554 S
H476 C492 0.931 1_554 S
C477 H465 0.929 . S
C477 C471 1.390 . S
C477 C474 1.386 . S
C478 C473 1.490 . S
C478 C480 1.395 1_554 S
C478 C481 1.403 . S
H479 C485 0.930 . S
C480 H466 0.930 . S
C480 C478 1.395 1_556 S
C480 C483 1.403 1_565 S
C481 C478 1.403 . S
C481 C482 1.524 . S
C481 C485 1.400 1_565 S
C482 H467 0.960 1_565 S
C482 H468 0.960 . S
C482 H469 0.960 . S
C482 C481 1.524 . S
C483 C480 1.403 1_545 S
C483 C484 1.392 . S
C483 C487 1.495 . S
C484 C483 1.392 . S
C484 C485 1.385 1_556 S
C484 C486 1.478 . S
C485 H479 0.930 . S
C485 C481 1.400 1_545 S
C485 C484 1.385 1_554 S
C486 C484 1.478 . S
C486 C488 1.381 . S
C486 C492 1.383 . S
C487 C483 1.495 . S
C487 H493 0.959 1_545 S
C487 H494 0.961 . S
C487 H495 0.960 . S
C488 C486 1.381 . S
C488 C489 1.394 . S
C488 H496 0.930 . S
C489 C488 1.394 . S
C489 C490 1.383 . S
C489 H497 0.929 . S
C490 C489 1.383 . S
C490 C491 1.377 . S
C491 H475 0.930 1_556 S
C491 C490 1.377 . S
C491 C492 1.379 . S
C492 H476 0.931 1_556 S
C492 C486 1.383 . S
C492 C491 1.379 . S
H493 C487 0.959 1_565 S
H494 C487 0.961 . S
H495 C487 0.960 . S
H496 C488 0.930 . S
H497 C489 0.929 . S
H498 C506 0.929 . S
H499 C508 0.930 . S
H500 C510 0.930 . S
H501 C513 0.929 . S
H502 C516 0.930 . S
H503 C518 0.960 . S
H504 C518 0.960 . S
H505 C518 0.960 . S
C506 H498 0.929 . S
C506 C507 1.377 . S
C506 C508 1.384 . S
C507 C506 1.377 . S
C507 C513 1.390 . S
C508 H499 0.930 . S
C508 C506 1.384 . S
C508 C509 1.372 . S
C509 C508 1.372 . S
C509 C510 1.400 . S
C509 C514 1.490 . S
C510 H500 0.930 . S
C510 C509 1.400 . S
C510 C513 1.386 . S
H511 C527 0.930 . S
H512 C528 0.931 . S
C513 H501 0.929 . S
C513 C507 1.390 . S
C513 C510 1.386 . S
C514 C509 1.490 . S
C514 C516 1.395 . S
C514 C517 1.403 . S
H515 C521 0.930 . S
C516 H502 0.930 . S
C516 C514 1.395 . S
C516 C519 1.403 . S
C517 C514 1.403 . S
C517 C518 1.524 . S
C517 C521 1.400 . S
C518 H503 0.960 . S
C518 H504 0.960 . S
C518 H505 0.960 . S
C518 C517 1.524 . S
C519 C516 1.403 . S
C519 C520 1.392 . S
C519 C523 1.495 . S
C520 C519 1.392 . S
C520 C521 1.385 . S
C520 C522 1.478 . S
C521 H515 0.930 . S
C521 C517 1.400 . S
C521 C520 1.385 . S
C522 C520 1.478 . S
C522 C524 1.381 . S
C522 C528 1.383 . S
C523 C519 1.495 . S
C523 H529 0.959 . S
C523 H530 0.961 . S
C523 H531 0.960 . S
C524 C522 1.381 . S
C524 C525 1.394 . S
C524 H532 0.930 . S
C525 C524 1.394 . S
C525 C526 1.383 . S
C525 H533 0.929 . S
C526 C525 1.383 . S
C526 C527 1.377 . S
C527 H511 0.930 . S
C527 C526 1.377 . S
C527 C528 1.379 . S
C528 H512 0.931 . S
C528 C522 1.383 . S
C528 C527 1.379 . S
H529 C523 0.959 . S
H530 C523 0.961 . S
H531 C523 0.960 . S
H532 C524 0.930 . S
H533 C525 0.929 . S
H534 C542 0.929 . S
H535 C544 0.930 . S
H536 C546 0.930 . S
H537 C549 0.929 . S
H538 C552 0.930 . S
H539 C554 0.960 . S
H540 C554 0.960 . S
H541 C554 0.960 . S
C542 H534 0.929 . S
C542 C543 1.377 . S
C542 C544 1.384 . S
C543 C542 1.377 . S
C543 C549 1.390 . S
C544 H535 0.930 . S
C544 C542 1.384 . S
C544 C545 1.372 . S
C545 C544 1.372 . S
C545 C546 1.400 . S
C545 C550 1.490 . S
C546 H536 0.930 . S
C546 C545 1.400 . S
C546 C549 1.386 . S
H547 C563 0.930 . S
H548 C564 0.931 . S
C549 H537 0.929 . S
C549 C543 1.390 . S
C549 C546 1.386 . S
C550 C545 1.490 . S
C550 C552 1.395 . S
C550 C553 1.403 . S
H551 C557 0.930 . S
C552 H538 0.930 . S
C552 C550 1.395 . S
C552 C555 1.403 1_655 S
C553 C550 1.403 . S
C553 C554 1.524 . S
C553 C557 1.400 1_655 S
C554 H539 0.960 . S
C554 H540 0.960 . S
C554 H541 0.960 . S
C554 C553 1.524 . S
C555 C552 1.403 1_455 S
C555 C556 1.392 . S
C555 C559 1.495 . S
C556 C555 1.392 . S
C556 C557 1.385 . S
C556 C558 1.478 . S
C557 H551 0.930 . S
C557 C553 1.400 1_455 S
C557 C556 1.385 . S
C558 C556 1.478 . S
C558 C560 1.381 . S
C558 C564 1.383 . S
C559 C555 1.495 . S
C559 H565 0.959 . S
C559 H566 0.961 . S
C559 H567 0.960 . S
C560 C558 1.381 . S
C560 C561 1.394 . S
C560 H568 0.930 . S
C561 C560 1.394 . S
C561 C562 1.383 . S
C561 H569 0.929 . S
C562 C561 1.383 . S
C562 C563 1.377 . S
C563 H547 0.930 . S
C563 C562 1.377 . S
C563 C564 1.379 . S
C564 H548 0.931 . S
C564 C558 1.383 . S
C564 C563 1.379 . S
H565 C559 0.959 . S
H566 C559 0.961 . S
H567 C559 0.960 . S
H568 C560 0.930 . S
H569 C561 0.929 . S
H570 C578 0.929 . S
H571 C580 0.930 . S
H572 C582 0.930 . S
H573 C585 0.929 . S
H574 C588 0.930 . S
H575 C590 0.960 . S
H576 C590 0.960 . S
H577 C590 0.960 . S
C578 H570 0.929 . S
C578 C579 1.377 . S
C578 C580 1.384 . S
C579 C578 1.377 . S
C579 C585 1.390 . S
C580 H571 0.930 . S
C580 C578 1.384 . S
C580 C581 1.372 . S
C581 C580 1.372 . S
C581 C582 1.400 . S
C581 C586 1.490 . S
C582 H572 0.930 . S
C582 C581 1.400 . S
C582 C585 1.386 . S
H583 C599 0.930 . S
H584 C600 0.931 . S
C585 H573 0.929 . S
C585 C579 1.390 . S
C585 C582 1.386 . S
C586 C581 1.490 . S
C586 C588 1.395 . S
C586 C589 1.403 . S
H587 C593 0.930 . S
C588 H574 0.930 . S
C588 C586 1.395 . S
C588 C591 1.403 . S
C589 C586 1.403 . S
C589 C590 1.524 . S
C589 C593 1.400 . S
C590 H575 0.960 . S
C590 H576 0.960 . S
C590 H577 0.960 . S
C590 C589 1.524 . S
C591 C588 1.403 . S
C591 C592 1.392 . S
C591 C595 1.495 . S
C592 C591 1.392 . S
C592 C593 1.385 . S
C592 C594 1.478 . S
C593 H587 0.930 . S
C593 C589 1.400 . S
C593 C592 1.385 . S
C594 C592 1.478 . S
C594 C596 1.381 . S
C594 C600 1.383 . S
C595 C591 1.495 . S
C595 H601 0.959 . S
C595 H602 0.961 . S
C595 H603 0.960 . S
C596 C594 1.381 . S
C596 C597 1.394 . S
C596 H604 0.930 . S
C597 C596 1.394 . S
C597 C598 1.383 . S
C597 H605 0.929 . S
C598 C597 1.383 . S
C598 C599 1.377 . S
C599 H583 0.930 . S
C599 C598 1.377 . S
C599 C600 1.379 . S
C600 H584 0.931 . S
C600 C594 1.383 . S
C600 C599 1.379 . S
H601 C595 0.959 . S
H602 C595 0.961 . S
H603 C595 0.960 . S
H604 C596 0.930 . S
H605 C597 0.929 . S
H606 C614 0.929 . S
H607 C616 0.930 . S
H608 C618 0.930 . S
H609 C621 0.929 . S
H610 C624 0.930 . S
H611 C626 0.960 . S
H612 C626 0.960 . S
H613 C626 0.960 . S
C614 H606 0.929 . S
C614 C615 1.377 . S
C614 C616 1.384 . S
C615 C614 1.377 . S
C615 C621 1.390 . S
C616 H607 0.930 . S
C616 C614 1.384 . S
C616 C617 1.372 . S
C617 C616 1.372 . S
C617 C618 1.400 . S
C617 C622 1.490 . S
C618 H608 0.930 . S
C618 C617 1.400 . S
C618 C621 1.386 . S
H619 C635 0.930 . S
H620 C636 0.931 . S
C621 H609 0.929 . S
C621 C615 1.390 . S
C621 C618 1.386 . S
C622 C617 1.490 . S
C622 C624 1.395 . S
C622 C625 1.403 . S
H623 C629 0.930 . S
C624 H610 0.930 . S
C624 C622 1.395 . S
C624 C627 1.403 . S
C625 C622 1.403 . S
C625 C626 1.524 . S
C625 C629 1.400 . S
C626 H611 0.960 . S
C626 H612 0.960 . S
C626 H613 0.960 . S
C626 C625 1.524 . S
C627 C624 1.403 . S
C627 C628 1.392 . S
C627 C631 1.495 . S
C628 C627 1.392 . S
C628 C629 1.385 . S
C628 C630 1.478 . S
C629 H623 0.930 . S
C629 C625 1.400 . S
C629 C628 1.385 . S
C630 C628 1.478 . S
C630 C632 1.381 . S
C630 C636 1.383 . S
C631 C627 1.495 . S
C631 H637 0.959 . S
C631 H638 0.961 . S
C631 H639 0.960 . S
C632 C630 1.381 . S
C632 C633 1.394 . S
C632 H640 0.930 . S
C633 C632 1.394 . S
C633 C634 1.383 . S
C633 H641 0.929 . S
C634 C633 1.383 . S
C634 C635 1.377 . S
C635 H619 0.930 . S
C635 C634 1.377 . S
C635 C636 1.379 . S
C636 H620 0.931 . S
C636 C630 1.383 . S
C636 C635 1.379 . S
H637 C631 0.959 . S
H638 C631 0.961 . S
H639 C631 0.960 . S
H640 C632 0.930 . S
H641 C633 0.929 . S
H642 C650 0.929 . S
H643 C652 0.930 . S
H644 C654 0.930 . S
H645 C657 0.929 . S
H646 C660 0.930 . S
H647 C662 0.960 . S
H648 C662 0.960 . S
H649 C662 0.960 . S
C650 H642 0.929 . S
C650 C651 1.377 . S
C650 C652 1.384 . S
C651 C650 1.377 . S
C651 C657 1.390 . S
C652 H643 0.930 . S
C652 C650 1.384 . S
C652 C653 1.372 . S
C653 C652 1.372 . S
C653 C654 1.400 . S
C653 C658 1.490 . S
C654 H644 0.930 . S
C654 C653 1.400 . S
C654 C657 1.386 . S
H655 C671 0.930 . S
H656 C672 0.931 . S
C657 H645 0.929 . S
C657 C651 1.390 . S
C657 C654 1.386 . S
C658 C653 1.490 . S
C658 C660 1.395 . S
C658 C661 1.403 . S
H659 C665 0.930 . S
C660 H646 0.930 . S
C660 C658 1.395 . S
C660 C663 1.403 . S
C661 C658 1.403 . S
C661 C662 1.524 . S
C661 C665 1.400 . S
C662 H647 0.960 . S
C662 H648 0.960 . S
C662 H649 0.960 . S
C662 C661 1.524 . S
C663 C660 1.403 . S
C663 C664 1.392 . S
C663 C667 1.495 . S
C664 C663 1.392 . S
C664 C665 1.385 . S
C664 C666 1.478 . S
C665 H659 0.930 . S
C665 C661 1.400 . S
C665 C664 1.385 . S
C666 C664 1.478 . S
C666 C668 1.381 . S
C666 C672 1.383 . S
C667 C663 1.495 . S
C667 H673 0.959 . S
C667 H674 0.961 . S
C667 H675 0.960 . S
C668 C666 1.381 . S
C668 C669 1.394 . S
C668 H676 0.930 . S
C669 C668 1.394 . S
C669 C670 1.383 . S
C669 H677 0.929 . S
C670 C669 1.383 . S
C670 C671 1.377 . S
C671 H655 0.930 . S
C671 C670 1.377 . S
C671 C672 1.379 . S
C672 H656 0.931 . S
C672 C666 1.383 . S
C672 C671 1.379 . S
H673 C667 0.959 . S
H674 C667 0.961 . S
H675 C667 0.960 . S
H676 C668 0.930 . S
H677 C669 0.929 . S
H678 C686 0.929 . S
H679 C688 0.930 . S
H680 C690 0.930 1_554 S
H681 C693 0.929 . S
H682 C696 0.942 . S
H683 C698 0.960 . S
H684 C698 0.960 . S
H685 C698 0.960 . S
C686 H678 0.929 . S
C686 C687 1.377 1_556 S
C686 C688 1.384 . S
C687 C686 1.377 1_554 S
C687 C693 1.390 . S
C688 H679 0.930 . S
C688 C686 1.384 . S
C688 C689 1.372 . S
C689 C688 1.372 . S
C689 C690 1.400 . S
C689 C694 1.490 . S
C690 H680 0.930 1_556 S
C690 C689 1.400 . S
C690 C693 1.386 1_556 S
H691 C707 0.930 . S
H692 C708 0.931 . S
C693 H681 0.929 . S
C693 C687 1.390 . S
C693 C690 1.386 1_554 S
C694 C689 1.490 . S
C694 C696 1.395 . S
C694 C697 1.403 . S
H695 C701 0.930 . S
C696 H682 0.942 . S
C696 C694 1.395 . S
C696 C699 1.403 . S
C697 C694 1.403 . S
C697 C698 1.524 . S
C697 C701 1.400 . S
C698 H683 0.960 . S
C698 H684 0.960 . S
C698 H685 0.960 . S
C698 C697 1.524 . S
C699 C696 1.403 . S
C699 C700 1.392 . S
C699 C703 1.495 . S
C700 C699 1.392 . S
C700 C701 1.385 . S
C700 C702 1.478 . S
C701 H695 0.930 . S
C701 C697 1.400 . S
C701 C700 1.385 . S
C702 C700 1.478 . S
C702 C704 1.381 . S
C702 C708 1.383 . S
C703 C699 1.495 . S
C703 H709 0.959 1_556 S
C703 H710 0.961 . S
C703 H711 0.960 . S
C704 C702 1.381 . S
C704 C705 1.394 . S
C704 H712 0.930 . S
C705 C704 1.394 . S
C705 C706 1.383 . S
C705 H713 0.929 . S
C706 C705 1.383 . S
C706 C707 1.377 . S
C707 H691 0.930 . S
C707 C706 1.377 . S
C707 C708 1.379 . S
C708 H692 0.931 . S
C708 C702 1.383 . S
C708 C707 1.379 . S
H709 C703 0.959 1_554 S
H710 C703 0.961 . S
H711 C703 0.960 . S
H712 C704 0.930 . S
H713 C705 0.929 . S
H714 C722 0.929 . S
H715 C724 0.930 . S
H716 C726 0.930 . S
H717 C729 0.929 . S
H718 C732 0.930 . S
H719 C734 0.955 1_556 S
H720 C734 0.961 . S
H721 C734 0.960 1_556 S
C722 H714 0.929 . S
C722 C723 1.377 . S
C722 C724 1.384 . S
C723 C722 1.377 . S
C723 C729 1.390 . S
C724 H715 0.930 . S
C724 C722 1.384 . S
C724 C725 1.372 . S
C725 C724 1.372 . S
C725 C726 1.400 . S
C725 C730 1.490 . S
C726 H716 0.930 . S
C726 C725 1.400 . S
C726 C729 1.386 . S
H727 C743 0.930 . S
H728 C744 0.934 . S
C729 H717 0.929 . S
C729 C723 1.390 . S
C729 C726 1.386 . S
C730 C725 1.490 . S
C730 C732 1.395 . S
C730 C733 1.403 . S
H731 C737 0.930 1_556 S
C732 H718 0.930 . S
C732 C730 1.395 . S
C732 C735 1.403 . S
C733 C730 1.403 . S
C733 C734 1.527 . S
C733 C737 1.400 . S
C734 H719 0.955 1_554 S
C734 H720 0.961 . S
C734 H721 0.960 1_554 S
C734 C733 1.527 . S
C735 C732 1.403 . S
C735 C736 1.392 . S
C735 C739 1.495 . S
C736 C735 1.392 . S
C736 C737 1.385 . S
C736 C738 1.478 . S
C737 H731 0.930 1_554 S
C737 C733 1.400 . S
C737 C736 1.385 . S
C738 C736 1.478 . S
C738 C740 1.381 . S
C738 C744 1.374 1_554 S
C739 C735 1.495 . S
C739 H745 0.959 . S
C739 H746 0.961 . S
C739 H747 0.960 . S
C740 C738 1.381 . S
C740 C741 1.394 . S
C740 H748 0.930 . S
C741 C740 1.394 . S
C741 C742 1.383 1_554 S
C741 H749 0.929 . S
C742 C741 1.383 1_556 S
C742 C743 1.377 . S
C743 H727 0.930 . S
C743 C742 1.377 . S
C743 C744 1.385 . S
C744 H728 0.934 . S
C744 C738 1.374 1_556 S
C744 C743 1.385 . S
H745 C739 0.959 . S
H746 C739 0.961 . S
H747 C739 0.960 . S
H748 C740 0.930 . S
H749 C741 0.929 . S
H750 C758 0.929 . S
H751 C760 0.930 . S
H752 C762 0.930 . S
H753 C765 0.929 . S
H754 C768 0.930 . S
H755 C770 0.960 . S
H756 C770 0.960 . S
H757 C770 0.960 . S
C758 H750 0.929 . S
C758 C759 1.377 . S
C758 C760 1.384 . S
C759 C758 1.377 . S
C759 C765 1.390 . S
C760 H751 0.930 . S
C760 C758 1.384 . S
C760 C761 1.372 . S
C761 C760 1.372 . S
C761 C762 1.400 . S
C761 C766 1.490 . S
C762 H752 0.930 . S
C762 C761 1.400 . S
C762 C765 1.386 . S
H763 C779 0.930 . S
H764 C780 0.931 . S
C765 H753 0.929 . S
C765 C759 1.390 . S
C765 C762 1.386 . S
C766 C761 1.490 . S
C766 C768 1.395 . S
C766 C769 1.403 . S
H767 C773 0.930 . S
C768 H754 0.930 . S
C768 C766 1.395 . S
C768 C771 1.403 . S
C769 C766 1.403 . S
C769 C770 1.524 . S
C769 C773 1.400 . S
C770 H755 0.960 . S
C770 H756 0.960 . S
C770 H757 0.960 . S
C770 C769 1.524 . S
C771 C768 1.403 . S
C771 C772 1.392 . S
C771 C775 1.495 . S
C772 C771 1.392 . S
C772 C773 1.385 . S
C772 C774 1.478 . S
C773 H767 0.930 . S
C773 C769 1.400 . S
C773 C772 1.385 . S
C774 C772 1.478 . S
C774 C776 1.381 . S
C774 C780 1.383 . S
C775 C771 1.495 . S
C775 H781 0.959 . S
C775 H782 0.961 . S
C775 H783 0.960 . S
C776 C774 1.381 . S
C776 C777 1.394 . S
C776 H784 0.930 . S
C777 C776 1.394 . S
C777 C778 1.383 . S
C777 H785 0.929 . S
C778 C777 1.383 . S
C778 C779 1.377 . S
C779 H763 0.930 . S
C779 C778 1.377 . S
C779 C780 1.379 . S
C780 H764 0.931 . S
C780 C774 1.383 . S
C780 C779 1.379 . S
H781 C775 0.959 . S
H782 C775 0.961 . S
H783 C775 0.960 . S
H784 C776 0.930 . S
H785 C777 0.929 . S
C147 C17 1.209 . S
C166 C16 1.201 . S
C183 C40 1.209 . S
C202 C39 1.202 . S
C219 C62 1.210 . S
C238 C63 1.209 . S
C255 C85 1.208 . S
C274 C86 1.202 . S
C291 C108 1.208 . S
C310 C109 1.203 . S
C327 C132 1.210 . S
C346 C131 1.201 . S
C363 C20 1.451 . S
C382 C136 1.431 . S
C399 C21 1.428 . S
C418 C43 1.444 . S
C435 C66 1.453 . S
C454 C44 1.400 . S
C471 C89 1.452 . S
C490 C67 1.404 . S
C507 C112 1.451 . S
C526 C90 1.422 . S
C543 C113 1.427 . S
C562 C135 1.446 . S
C579 C19 1.633 . S
C598 C110 1.660 . S
C615 C42 1.638 . S
C634 C133 1.660 . S
C651 C65 1.638 . S
C670 C18 1.659 . S
C687 C88 1.638 . S
C706 C41 1.655 . S
C723 C111 1.638 . S
C742 C64 1.660 . S
C759 C87 1.661 . S
C778 C134 1.647 . S
