# Generated by pormake.
# Topology wmz, (6)-cn, num edge types: 1
# Building blocks:
#     Node 0, Type 0, BuildingBlock: IZENUY_clean_sbu_0, # of connection points: 6
#     Node 1, Type 0, BuildingBlock: IZENUY_clean_sbu_0, # of connection points: 6
#     Node 2, Type 0, BuildingBlock: IZENUY_clean_sbu_0, # of connection points: 6
#     Node 3, Type 0, BuildingBlock: IZENUY_clean_sbu_0, # of connection points: 6
#     Node 4, Type 0, BuildingBlock: IZENUY_clean_sbu_0, # of connection points: 6
#     Node 5, Type 0, BuildingBlock: IZENUY_clean_sbu_0, # of connection points: 6
#     Node 6, Type 0, BuildingBlock: IZENUY_clean_sbu_0, # of connection points: 6
#     Node 7, Type 0, BuildingBlock: IZENUY_clean_sbu_0, # of connection points: 6
#     Node 8, Type 0, BuildingBlock: IZENUY_clean_sbu_0, # of connection points: 6
#     Node 9, Type 0, BuildingBlock: IZENUY_clean_sbu_0, # of connection points: 6
#     Node 10, Type 0, BuildingBlock: IZENUY_clean_sbu_0, # of connection points: 6
#     Node 11, Type 0, BuildingBlock: IZENUY_clean_sbu_0, # of connection points: 6
#     Node 12, Type 0, BuildingBlock: IZENUY_clean_sbu_0, # of connection points: 6
#     Node 13, Type 0, BuildingBlock: IZENUY_clean_sbu_0, # of connection points: 6
#     Node 14, Type 0, BuildingBlock: IZENUY_clean_sbu_0, # of connection points: 6
#     Node 15, Type 0, BuildingBlock: IZENUY_clean_sbu_0, # of connection points: 6
#     Node 16, Type 0, BuildingBlock: IZENUY_clean_sbu_0, # of connection points: 6
#     Node 17, Type 0, BuildingBlock: IZENUY_clean_sbu_0, # of connection points: 6
#     Node 18, Type 0, BuildingBlock: IZENUY_clean_sbu_0, # of connection points: 6
#     Node 19, Type 0, BuildingBlock: IZENUY_clean_sbu_0, # of connection points: 6
#     Node 20, Type 0, BuildingBlock: IZENUY_clean_sbu_0, # of connection points: 6
#     Node 21, Type 0, BuildingBlock: IZENUY_clean_sbu_0, # of connection points: 6
#     Node 22, Type 0, BuildingBlock: IZENUY_clean_sbu_0, # of connection points: 6
#     Node 23, Type 0, BuildingBlock: IZENUY_clean_sbu_0, # of connection points: 6
#     Node 24, Type 0, BuildingBlock: IZENUY_clean_sbu_0, # of connection points: 6
#     Node 25, Type 0, BuildingBlock: IZENUY_clean_sbu_0, # of connection points: 6
#     Node 26, Type 0, BuildingBlock: IZENUY_clean_sbu_0, # of connection points: 6
#     Node 27, Type 0, BuildingBlock: IZENUY_clean_sbu_0, # of connection points: 6
#     Node 28, Type 0, BuildingBlock: IZENUY_clean_sbu_0, # of connection points: 6
#     Node 29, Type 0, BuildingBlock: IZENUY_clean_sbu_0, # of connection points: 6
#     Node 30, Type 0, BuildingBlock: IZENUY_clean_sbu_0, # of connection points: 6
#     Node 31, Type 0, BuildingBlock: IZENUY_clean_sbu_0, # of connection points: 6
#     Node 32, Type 0, BuildingBlock: IZENUY_clean_sbu_0, # of connection points: 6
#     Node 33, Type 0, BuildingBlock: IZENUY_clean_sbu_0, # of connection points: 6
#     Node 34, Type 0, BuildingBlock: IZENUY_clean_sbu_0, # of connection points: 6
#     Node 35, Type 0, BuildingBlock: IZENUY_clean_sbu_0, # of connection points: 6
#     Edge 36, Type (0, 0), None
#     Edge 37, Type (0, 0), None
#     Edge 38, Type (0, 0), None
#     Edge 39, Type (0, 0), None
#     Edge 40, Type (0, 0), None
#     Edge 41, Type (0, 0), None
#     Edge 42, Type (0, 0), None
#     Edge 43, Type (0, 0), None
#     Edge 44, Type (0, 0), None
#     Edge 45, Type (0, 0), None
#     Edge 46, Type (0, 0), None
#     Edge 47, Type (0, 0), None
#     Edge 48, Type (0, 0), None
#     Edge 49, Type (0, 0), None
#     Edge 50, Type (0, 0), None
#     Edge 51, Type (0, 0), None
#     Edge 52, Type (0, 0), None
#     Edge 53, Type (0, 0), None
#     Edge 54, Type (0, 0), None
#     Edge 55, Type (0, 0), None
#     Edge 56, Type (0, 0), None
#     Edge 57, Type (0, 0), None
#     Edge 58, Type (0, 0), None
#     Edge 59, Type (0, 0), None
#     Edge 60, Type (0, 0), None
#     Edge 61, Type (0, 0), None
#     Edge 62, Type (0, 0), None
#     Edge 63, Type (0, 0), None
#     Edge 64, Type (0, 0), None
#     Edge 65, Type (0, 0), None
#     Edge 66, Type (0, 0), None
#     Edge 67, Type (0, 0), None
#     Edge 68, Type (0, 0), None
#     Edge 69, Type (0, 0), None
#     Edge 70, Type (0, 0), None
#     Edge 71, Type (0, 0), None
#     Edge 72, Type (0, 0), None
#     Edge 73, Type (0, 0), None
#     Edge 74, Type (0, 0), None
#     Edge 75, Type (0, 0), None
#     Edge 76, Type (0, 0), None
#     Edge 77, Type (0, 0), None
#     Edge 78, Type (0, 0), None
#     Edge 79, Type (0, 0), None
#     Edge 80, Type (0, 0), None
#     Edge 81, Type (0, 0), None
#     Edge 82, Type (0, 0), None
#     Edge 83, Type (0, 0), None
#     Edge 84, Type (0, 0), None
#     Edge 85, Type (0, 0), None
#     Edge 86, Type (0, 0), None
#     Edge 87, Type (0, 0), None
#     Edge 88, Type (0, 0), None
#     Edge 89, Type (0, 0), None
#     Edge 90, Type (0, 0), None
#     Edge 91, Type (0, 0), None
#     Edge 92, Type (0, 0), None
#     Edge 93, Type (0, 0), None
#     Edge 94, Type (0, 0), None
#     Edge 95, Type (0, 0), None
#     Edge 96, Type (0, 0), None
#     Edge 97, Type (0, 0), None
#     Edge 98, Type (0, 0), None
#     Edge 99, Type (0, 0), None
#     Edge 100, Type (0, 0), None
#     Edge 101, Type (0, 0), None
#     Edge 102, Type (0, 0), None
#     Edge 103, Type (0, 0), None
#     Edge 104, Type (0, 0), None
#     Edge 105, Type (0, 0), None
#     Edge 106, Type (0, 0), None
#     Edge 107, Type (0, 0), None
#     Edge 108, Type (0, 0), None
#     Edge 109, Type (0, 0), None
#     Edge 110, Type (0, 0), None
#     Edge 111, Type (0, 0), None
#     Edge 112, Type (0, 0), None
#     Edge 113, Type (0, 0), None
#     Edge 114, Type (0, 0), None
#     Edge 115, Type (0, 0), None
#     Edge 116, Type (0, 0), None
#     Edge 117, Type (0, 0), None
#     Edge 118, Type (0, 0), None
#     Edge 119, Type (0, 0), None
#     Edge 120, Type (0, 0), None
#     Edge 121, Type (0, 0), None
#     Edge 122, Type (0, 0), None
#     Edge 123, Type (0, 0), None
#     Edge 124, Type (0, 0), None
#     Edge 125, Type (0, 0), None
#     Edge 126, Type (0, 0), None
#     Edge 127, Type (0, 0), None
#     Edge 128, Type (0, 0), None
#     Edge 129, Type (0, 0), None
#     Edge 130, Type (0, 0), None
#     Edge 131, Type (0, 0), None
#     Edge 132, Type (0, 0), None
#     Edge 133, Type (0, 0), None
#     Edge 134, Type (0, 0), None
#     Edge 135, Type (0, 0), None
#     Edge 136, Type (0, 0), None
#     Edge 137, Type (0, 0), None
#     Edge 138, Type (0, 0), None
#     Edge 139, Type (0, 0), None
#     Edge 140, Type (0, 0), None
#     Edge 141, Type (0, 0), None
#     Edge 142, Type (0, 0), None
#     Edge 143, Type (0, 0), None
# Relax obj value: 0.490
# Max RMSD: 0.222
# Mean RMSD: 0.222
data_MOF--net-wmz--node1-IZENUY_clean_sbu_0--edge1-none
_symmetry_space_group_name_H-M    P1
_symmetry_Int_Tables_number       1
_symmetry_cell_setting            triclinic
loop_
_symmetry_equiv_pos_as_xyz
'x, y, z'
_cell_length_a     21.176862
_cell_length_b     21.177052
_cell_length_c     31.50036
_cell_angle_alpha  89.999683
_cell_angle_beta   90.000659
_cell_angle_gamma 120.0004
loop_
_atom_site_label
_atom_site_type_symbol
_atom_site_fract_x
_atom_site_fract_y
_atom_site_fract_z
_atom_type_partial_charge
Fe0 Fe 0.2971 0.24684 0.08905 0.0
Fe1 Fe 0.20513 0.17266 0.01562 0.0
O2 O 0.29041 0.21646 0.03657 0.0
Fe3 Fe 0.36766 0.2338 0.00726 0.0
O4 O 0.40155 0.33059 0.01724 0.0
O5 O 0.32278 0.33804 0.06345 0.0
O6 O 0.20033 0.21769 0.10353 0.0
C7 C 0.1544 0.21917 0.07971 0.0
C8 C 0.42055 0.24529 0.08973 0.0
O9 O 0.17876 0.23289 0.04281 0.0
C10 C 0.27654 0.09953 -0.02219 0.0
O11 O 0.27329 0.1504 0.10349 0.0
O12 O 0.18012 0.10779 0.05815 0.0
O13 O 0.41182 0.21778 0.0535 0.0
O14 O 0.39293 0.28335 0.09647 0.0
C15 C 0.2749 0.24728 -0.05368 0.0
O16 O 0.22309 0.11097 -0.01731 0.0
O17 O 0.33592 0.13926 -0.00384 0.0
C18 C 0.21934 0.09618 0.08362 0.0
O19 O 0.22891 0.23633 -0.02584 0.0
O20 O 0.33213 0.24459 -0.04505 0.0
C21 C 0.36804 0.36349 0.03071 0.0
Fe22 Fe 0.92672 0.08496 0.08904 0.0
Fe23 Fe 1.00092 1.06718 0.01562 0.0
O24 O 0.95711 0.10865 0.03656 0.0
Fe25 Fe 0.93978 0.16856 0.00725 0.0
O26 O 0.84298 0.10566 0.01722 0.0
O27 O 0.83552 1.01944 0.06344 0.0
O28 O 0.95586 1.01734 0.10353 0.0
C29 C 0.9544 0.96994 0.07971 0.0
C30 C 0.92827 0.20996 0.08971 0.0
O31 O 0.94068 0.98058 0.04281 0.0
C32 C 1.07406 0.21171 -0.02219 0.0
O33 O 1.02314 0.15759 0.10349 0.0
O34 O 1.06578 0.10705 0.05816 0.0
O35 O 0.95578 0.22874 0.05349 0.0
O36 O 0.8902 0.14427 0.09645 0.0
C37 C 0.92632 1.06231 -0.05368 0.0
O38 O 1.06263 0.14683 -0.0173 0.0
O39 O 1.03431 0.23136 -0.00385 0.0
C40 C 1.07737 0.15787 0.08362 0.0
O41 O 0.93728 1.02729 -0.02584 0.0
O42 O 0.929 0.12223 -0.04507 0.0
C43 C 0.81008 1.03925 0.03069 0.0
Fe44 Fe 1.00502 0.80592 0.00725 0.0
Fe45 Fe 1.08862 0.87648 0.08904 0.0
O46 O 1.06494 0.88318 0.03656 0.0
Fe47 Fe 0.10639 0.96846 0.0156 0.0
O48 O 0.14628 0.94469 -0.02585 0.0
O49 O 1.05134 0.84145 -0.04506 0.0
O50 O 1.06792 0.77204 0.01723 0.0
C51 C 0.13433 0.80554 0.0307 0.0
C52 C 0.96185 0.89702 -0.0222 0.0
O53 O 0.15414 0.8508 0.06345 0.0
C54 C 1.0157 0.95422 0.08361 0.0
O55 O 0.94484 0.76175 0.05349 0.0
O56 O 1.0293 0.78064 0.09646 0.0
O57 O 1.02672 0.95048 -0.01732 0.0
O58 O 0.94221 0.83764 -0.00385 0.0
C59 C 0.20359 1.01913 0.07969 0.0
O60 O 1.016 0.90028 0.10349 0.0
O61 O 1.06651 0.99344 0.05814 0.0
C62 C 0.96361 0.75302 0.08972 0.0
O63 O 0.15625 0.97324 0.10354 0.0
O64 O 0.19302 0.99488 0.04277 0.0
C65 C 0.11125 0.8987 -0.05369 0.0
Fe66 Fe 0.20739 0.17041 0.3658 0.0
Fe67 Fe 0.26853 0.33293 0.37416 0.0
O68 O 0.2512 0.25568 0.34485 0.0
Fe69 Fe 0.28158 0.26237 0.29237 0.0
O70 O 0.25243 0.16561 0.27789 0.0
O71 O 0.26764 0.14405 0.3386 0.0
O72 O 0.27105 0.19418 0.40726 0.0
C73 C 0.28201 0.24016 0.4351 0.0
C74 C 0.13092 0.18462 0.29779 0.0
O75 O 0.27932 0.2974 0.42648 0.0
C76 C 0.28003 0.38583 0.29169 0.0
O77 O 0.1457 0.18836 0.39872 0.0
O78 O 0.174 0.3012 0.38526 0.0
O79 O 0.18514 0.23857 0.27793 0.0
O80 O 0.14253 0.14541 0.32326 0.0
C81 C 0.39823 0.33332 0.35071 0.0
O82 O 0.25252 0.3771 0.32792 0.0
O83 O 0.3181 0.35821 0.28496 0.0
C84 C 0.13426 0.24181 0.40361 0.0
O85 O 0.36532 0.36682 0.36419 0.0
O86 O 0.37278 0.28806 0.31797 0.0
C87 C 0.25391 0.11968 0.30171 0.0
Fe88 Fe 0.91123 1.05389 0.29237 0.0
Fe89 Fe 1.00319 0.07167 0.36582 0.0
O90 O 0.91791 1.03021 0.34485 0.0
Fe91 Fe 0.84065 0.97029 0.37416 0.0
O92 O 0.80677 1.03319 0.36418 0.0
O93 O 0.88554 0.11941 0.31796 0.0
O94 O 1.00799 0.12152 0.27787 0.0
C95 C 1.05387 0.16887 0.30172 0.0
C96 C 0.78777 0.92889 0.29169 0.0
O97 O 1.02962 0.1583 0.33864 0.0
C98 C 0.93175 0.92713 0.40362 0.0
O99 O 0.93504 0.98127 0.27793 0.0
O100 O 1.02819 1.0318 0.32328 0.0
O101 O 0.79649 0.91012 0.32792 0.0
O102 O 0.81539 0.99457 0.28495 0.0
C103 C 0.93341 0.07653 0.4351 0.0
O104 O 0.98521 0.992 0.39874 0.0
O105 O 0.87237 0.90749 0.38526 0.0
C106 C 0.98898 0.98099 0.2978 0.0
O107 O 0.97941 0.11155 0.40727 0.0
O108 O 0.87617 1.01661 0.42647 0.0
C109 C 0.84028 0.0996 0.35071 0.0
Fe110 Fe 0.11969 0.892 0.29237 0.0
Fe111 Fe 1.10192 0.96622 0.36581 0.0
O112 O 0.14337 0.92238 0.34486 0.0
Fe113 Fe 0.20328 0.90505 0.37417 0.0
O114 O 0.14038 0.80826 0.3642 0.0
O115 O 1.05417 0.8008 0.31797 0.0
O116 O 1.05206 0.92114 0.27787 0.0
C117 C 1.00472 0.91969 0.30173 0.0
C118 C 0.24469 0.89354 0.2917 0.0
O119 O 1.01529 0.906 0.33864 0.0
C120 C 0.24646 1.03933 0.40361 0.0
O121 O 0.19232 0.98843 0.27793 0.0
O122 O 0.14179 1.03107 0.32327 0.0
O123 O 0.26346 0.92105 0.32793 0.0
O124 O 0.179 0.85548 0.28496 0.0
C125 C 1.09705 0.8916 0.43511 0.0
O126 O 0.18159 1.02791 0.39873 0.0
O127 O 0.26609 0.99958 0.38527 0.0
C128 C 0.19261 1.04265 0.2978 0.0
O129 O 1.06203 0.90258 0.40727 0.0
O130 O 0.15696 0.89426 0.42649 0.0
C131 C 1.07397 0.77535 0.35072 0.0
Fe132 Fe 1.00316 0.96619 0.86582 0.0
Fe133 Fe 0.84062 0.90505 0.87419 0.0
O134 O 0.91788 0.92241 0.84487 0.0
Fe135 Fe 0.91119 0.89204 0.79239 0.0
O136 O 1.00796 0.92117 0.7779 0.0
O137 O 1.0295 0.90594 0.83861 0.0
O138 O 0.97937 0.9025 0.90726 0.0
C139 C 0.93337 0.89152 0.9351 0.0
C140 C 0.98898 1.04269 0.79782 0.0
O141 O 0.87615 0.89425 0.9265 0.0
C142 C 0.78774 0.8936 0.79172 0.0
O143 O 0.98523 1.02788 0.89875 0.0
O144 O 0.87233 0.99957 0.88532 0.0
O145 O 0.93501 0.98848 0.77795 0.0
O146 O 1.02818 1.03107 0.82329 0.0
C147 C 0.84023 0.77536 0.85072 0.0
O148 O 0.79646 0.92109 0.82795 0.0
O149 O 0.81536 0.85553 0.78498 0.0
C150 C 0.93179 1.03934 0.9036 0.0
O151 O 0.80673 0.80826 0.86419 0.0
O152 O 0.8855 0.80083 0.81798 0.0
C153 C 1.05387 0.91967 0.80172 0.0
Fe154 Fe 0.28156 1.05384 0.7924 0.0
Fe155 Fe 0.20738 0.07165 0.86582 0.0
O156 O 0.25118 1.03016 0.84488 0.0
Fe157 Fe 0.26853 0.97026 0.8742 0.0
O158 O 0.36532 1.03316 0.86421 0.0
O159 O 0.37277 0.11936 0.81799 0.0
O160 O 0.25242 0.12147 0.77791 0.0
C161 C 0.25391 0.16888 0.80172 0.0
C162 C 0.28 0.92883 0.79173 0.0
O163 O 0.26764 0.15824 0.83862 0.0
C164 C 0.13422 0.92713 0.90359 0.0
O165 O 0.18513 0.98122 0.77795 0.0
O166 O 0.14251 1.03178 0.82328 0.0
O167 O 0.2525 0.91006 0.82796 0.0
O168 O 0.31807 0.99451 0.785 0.0
C169 C 0.28203 0.07654 0.9351 0.0
O170 O 0.14567 0.99202 0.89874 0.0
O171 O 0.17401 0.90745 0.88532 0.0
C172 C 0.13091 0.98095 0.79782 0.0
O173 O 0.27105 0.11155 0.90726 0.0
O174 O 0.27932 1.0166 0.92651 0.0
C175 C 0.39823 0.09956 0.85073 0.0
Fe176 Fe 1.10193 0.1704 0.86583 0.0
Fe177 Fe 0.20332 0.33295 0.8742 0.0
O178 O 0.14341 0.25569 0.84488 0.0
Fe179 Fe 0.11973 0.26239 0.79239 0.0
O180 O 1.0521 0.16563 0.77789 0.0
O181 O 1.01531 0.144 0.83865 0.0
O182 O 1.06204 0.19418 0.90728 0.0
C183 C 1.09705 0.24018 0.93511 0.0
C184 C 0.19262 0.18462 0.79782 0.0
O185 O 0.15698 0.29742 0.92651 0.0
C186 C 0.24475 0.38584 0.79173 0.0
O187 O 0.18158 0.18836 0.89876 0.0
O188 O 0.26613 0.30125 0.88532 0.0
O189 O 0.19235 0.23857 0.77795 0.0
O190 O 0.14181 0.1454 0.8233 0.0
C191 C 1.07401 0.33334 0.85072 0.0
O192 O 0.26352 0.37712 0.82796 0.0
O193 O 0.17906 0.35822 0.78498 0.0
C194 C 0.24647 0.2418 0.9036 0.0
O195 O 0.14042 0.36684 0.8642 0.0
O196 O 1.05421 0.28807 0.81798 0.0
C197 C 1.00475 0.11974 0.80174 0.0
Fe198 Fe 0.93977 0.80588 0.50722 0.0
Fe199 Fe 0.92676 0.87645 0.58903 0.0
O200 O 0.95713 0.88314 0.53654 0.0
Fe201 Fe 1.00091 0.96842 0.5156 0.0
O202 O 0.93723 0.94464 0.47416 0.0
O203 O 0.92897 0.84142 0.45492 0.0
O204 O 0.84299 0.77199 0.51722 0.0
C205 C 0.81008 0.80549 0.5307 0.0
C206 C 1.07407 0.89706 0.47783 0.0
O207 O 0.83555 0.85075 0.56344 0.0
C208 C 1.07741 0.95423 0.5836 0.0
O209 O 0.95581 0.76172 0.55346 0.0
O210 O 0.89025 0.78061 0.59644 0.0
O211 O 1.06262 0.9505 0.48267 0.0
O212 O 1.03429 0.8376 0.4961 0.0
C213 C 0.95439 1.01913 0.5797 0.0
O214 O 1.0232 0.90027 0.60347 0.0
O215 O 1.06579 0.99343 0.55814 0.0
C216 C 0.92832 0.753 0.58969 0.0
O217 O 0.95589 0.97321 0.60352 0.0
O218 O 0.94066 0.99476 0.54281 0.0
C219 C 0.92625 0.89865 0.44632 0.0
Fe220 Fe 0.2971 0.085 0.58903 0.0
Fe221 Fe 0.20513 1.06719 0.51559 0.0
O222 O 0.29042 0.10868 0.53654 0.0
Fe223 Fe 0.36768 0.16858 0.50723 0.0
O224 O 0.40157 0.10569 0.51723 0.0
O225 O 0.3228 1.01948 0.56345 0.0
O226 O 0.20034 1.01736 0.60353 0.0
C227 C 0.15447 0.97 0.57968 0.0
C228 C 0.42056 0.21001 0.5897 0.0
O229 O 0.17873 0.98057 0.54277 0.0
C230 C 0.27653 0.21172 0.47781 0.0
O231 O 0.27328 0.15762 0.60347 0.0
O232 O 0.18012 0.10706 0.55812 0.0
O233 O 0.41184 0.22878 0.55347 0.0
O234 O 0.39294 0.14433 0.59645 0.0
C235 C 0.27493 1.06231 0.44632 0.0
O236 O 0.22309 0.14683 0.48266 0.0
O237 O 0.33598 0.2314 0.4961 0.0
C238 C 0.21932 0.15788 0.5836 0.0
O239 O 0.22892 1.0273 0.47415 0.0
O240 O 0.33216 0.12225 0.45492 0.0
C241 C 0.36807 1.03928 0.53071 0.0
Fe242 Fe 1.08857 0.24682 0.58903 0.0
Fe243 Fe 0.10637 0.17263 0.51559 0.0
O244 O 1.06489 0.21644 0.53654 0.0
Fe245 Fe 1.00499 0.23379 0.50721 0.0
O246 O 1.06789 0.33058 0.51721 0.0
O247 O 0.15409 0.33802 0.56344 0.0
O248 O 0.1562 0.21769 0.60353 0.0
C249 C 0.20356 0.21916 0.57968 0.0
C250 C 0.96356 0.24526 0.58968 0.0
O251 O 0.19299 0.23285 0.54277 0.0
C252 C 0.96184 0.09949 0.47782 0.0
O253 O 1.01595 0.15039 0.60347 0.0
O254 O 1.06649 0.10776 0.55813 0.0
O255 O 0.94479 0.21777 0.55345 0.0
O256 O 1.02924 0.28332 0.59643 0.0
C257 C 0.11126 0.24729 0.44631 0.0
O258 O 1.02672 0.11093 0.48267 0.0
O259 O 0.94217 0.13928 0.49609 0.0
C260 C 1.01568 0.09617 0.5836 0.0
O261 O 0.14627 0.23629 0.47414 0.0
O262 O 1.05133 0.24459 0.45491 0.0
C263 C 0.13429 0.36349 0.5307 0.0
Fe264 Fe 0.96378 0.58017 0.42238 0.0
Fe265 Fe 0.87181 0.50599 0.34895 0.0
O266 O 0.95709 0.54979 0.3699 0.0
Fe267 Fe 1.03434 0.56712 0.34058 0.0
O268 O 1.06823 0.66391 0.35056 0.0
O269 O 0.98946 0.67137 0.39678 0.0
O270 O 0.86702 0.55102 0.43687 0.0
C271 C 0.82109 0.5525 0.41305 0.0
C272 C 1.08724 0.57863 0.42305 0.0
O273 O 0.84545 0.56622 0.37615 0.0
C274 C 0.94321 0.43285 0.31114 0.0
O275 O 0.93998 0.48373 0.43682 0.0
O276 O 0.84681 0.44112 0.39149 0.0
O277 O 1.0785 0.55111 0.38683 0.0
O278 O 1.05962 0.6167 0.42979 0.0
C279 C 0.94157 0.5806 0.27965 0.0
O280 O 0.88976 0.44429 0.31602 0.0
O281 O 1.0026 0.47259 0.32949 0.0
C282 C 0.88603 0.42951 0.41695 0.0
O283 O 0.89558 0.56965 0.3075 0.0
O284 O 0.9988 0.57791 0.28827 0.0
C285 C 1.0347 0.69679 0.36403 0.0
Fe286 Fe 0.60647 0.5019 0.34059 0.0
Fe287 Fe 0.5934 0.41829 0.42238 0.0
O288 O 0.6238 0.44198 0.3699 0.0
Fe289 Fe 0.66761 0.40052 0.34896 0.0
O290 O 0.60396 0.36063 0.3075 0.0
O291 O 0.59569 0.45558 0.28827 0.0
O292 O 0.50968 0.439 0.35055 0.0
C293 C 0.47679 0.3726 0.36402 0.0
C294 C 0.74075 0.54505 0.31115 0.0
O295 O 0.50221 0.35277 0.39678 0.0
C296 C 0.74405 0.4912 0.41696 0.0
O297 O 0.62247 0.56208 0.38683 0.0
O298 O 0.55688 0.47761 0.42979 0.0
O299 O 0.72931 0.48017 0.31603 0.0
O300 O 0.70101 0.5647 0.3295 0.0
C301 C 0.62109 0.30328 0.41305 0.0
O302 O 0.68983 0.49092 0.43683 0.0
O303 O 0.73247 0.44038 0.3915 0.0
C304 C 0.59495 0.54329 0.42305 0.0
O305 O 0.62255 0.35067 0.43687 0.0
O306 O 0.60737 0.31392 0.37615 0.0
C307 C 0.59301 0.39566 0.27966 0.0
Fe308 Fe 0.67169 0.13925 0.34058 0.0
Fe309 Fe 0.75531 0.20981 0.42238 0.0
O310 O 0.73162 0.21651 0.36989 0.0
Fe311 Fe 0.77307 0.30179 0.34893 0.0
O312 O 0.81295 0.27801 0.30748 0.0
O313 O 0.718 0.17478 0.28827 0.0
O314 O 0.73459 0.10536 0.35055 0.0
C315 C 0.801 0.13889 0.36402 0.0
C316 C 0.62853 0.23036 0.31114 0.0
O317 O 0.82082 0.18412 0.39678 0.0
C318 C 0.6824 0.28755 0.41695 0.0
O319 O 0.61151 0.09508 0.38683 0.0
O320 O 0.69598 0.11397 0.4298 0.0
O321 O 0.6934 0.28381 0.31602 0.0
O322 O 0.60889 0.17098 0.32949 0.0
C323 C 0.87028 0.35246 0.41302 0.0
O324 O 0.68269 0.23362 0.43683 0.0
O325 O 0.7332 0.32678 0.39147 0.0
C326 C 0.63029 0.08636 0.42306 0.0
O327 O 0.82294 0.30657 0.43688 0.0
O328 O 0.8597 0.32821 0.3761 0.0
C329 C 0.77792 0.23202 0.27964 0.0
Fe330 Fe 0.87405 0.50374 0.69913 0.0
Fe331 Fe 0.93519 0.66627 0.7075 0.0
O332 O 0.91785 0.58903 0.67819 0.0
Fe333 Fe 0.94823 0.59572 0.6257 0.0
O334 O 0.91909 0.49895 0.61122 0.0
O335 O 0.93429 0.47739 0.67193 0.0
O336 O 0.93771 0.52751 0.74058 0.0
C337 C 0.94867 0.57349 0.76843 0.0
C338 C 0.79757 0.51796 0.63113 0.0
O339 O 0.94598 0.63073 0.75981 0.0
C340 C 0.94667 0.71916 0.62503 0.0
O341 O 0.81236 0.52169 0.73206 0.0
O342 O 0.84066 0.63453 0.7186 0.0
O343 O 0.85179 0.57191 0.61126 0.0
O344 O 0.80918 0.47874 0.65659 0.0
C345 C 1.06489 0.66666 0.68404 0.0
O346 O 0.91918 0.71044 0.66126 0.0
O347 O 0.98475 0.69155 0.61829 0.0
C348 C 0.80092 0.57514 0.73694 0.0
O349 O 1.03198 0.70016 0.69752 0.0
O350 O 1.03943 0.6214 0.6513 0.0
C351 C 0.92056 0.45303 0.63503 0.0
Fe352 Fe 0.57788 0.38722 0.62571 0.0
Fe353 Fe 0.66985 0.405 0.69915 0.0
O354 O 0.58457 0.36355 0.67819 0.0
Fe355 Fe 0.50731 0.30363 0.7075 0.0
O356 O 0.47343 0.36653 0.69752 0.0
O357 O 0.55219 0.45274 0.6513 0.0
O358 O 0.67464 0.45486 0.61121 0.0
C359 C 0.72052 0.50221 0.63506 0.0
C360 C 0.45443 0.26222 0.62503 0.0
O361 O 0.69627 0.49164 0.67198 0.0
C362 C 0.59842 0.26047 0.73695 0.0
O363 O 0.60169 0.3146 0.61127 0.0
O364 O 0.69485 0.36514 0.65661 0.0
O365 O 0.46315 0.24344 0.66126 0.0
O366 O 0.48204 0.3279 0.61829 0.0
C367 C 0.60008 0.40986 0.76844 0.0
O368 O 0.65187 0.32534 0.73207 0.0
O369 O 0.53904 0.24082 0.71861 0.0
C370 C 0.65563 0.31432 0.63114 0.0
O371 O 0.64607 0.44489 0.74061 0.0
O372 O 0.54284 0.34995 0.75982 0.0
C373 C 0.50693 0.43294 0.68404 0.0
Fe374 Fe 0.78634 0.22534 0.6257 0.0
Fe375 Fe 0.76859 0.29955 0.69915 0.0
O376 O 0.81003 0.25572 0.67819 0.0
Fe377 Fe 0.86996 0.23839 0.70749 0.0
O378 O 0.80705 0.1416 0.69752 0.0
O379 O 0.72083 0.13414 0.6513 0.0
O380 O 0.71871 0.25447 0.61121 0.0
C381 C 0.67138 0.25302 0.63506 0.0
C382 C 0.91135 0.22691 0.62502 0.0
O383 O 0.68195 0.23934 0.67198 0.0
C384 C 0.91313 0.37267 0.73694 0.0
O385 O 0.85897 0.32177 0.61125 0.0
O386 O 0.80845 0.36441 0.65661 0.0
O387 O 0.93013 0.2544 0.66125 0.0
O388 O 0.84567 0.18883 0.61828 0.0
C389 C 0.76373 0.22494 0.76844 0.0
O390 O 0.84826 0.36124 0.73206 0.0
O391 O 0.93277 0.33292 0.71859 0.0
C392 C 0.85926 0.37599 0.63113 0.0
O393 O 0.7287 0.23591 0.7406 0.0
O394 O 0.82364 0.2276 0.75981 0.0
C395 C 0.74065 0.10869 0.68404 0.0
Fe396 Fe 0.66982 0.29952 0.19915 0.0
Fe397 Fe 0.50728 0.23838 0.20754 0.0
O398 O 0.58453 0.25574 0.17821 0.0
Fe399 Fe 0.57784 0.22537 0.12573 0.0
O400 O 0.6746 0.2545 0.11124 0.0
O401 O 0.69616 0.23927 0.17195 0.0
O402 O 0.64604 0.23584 0.2406 0.0
C403 C 0.60004 0.22486 0.26844 0.0
C404 C 0.65562 0.37602 0.13116 0.0
O405 O 0.54282 0.22758 0.25984 0.0
C406 C 0.4544 0.22694 0.12507 0.0
O407 O 0.6519 0.36122 0.23209 0.0
O408 O 0.539 0.3329 0.21867 0.0
O409 O 0.60166 0.32181 0.11129 0.0
O410 O 0.69483 0.3644 0.15662 0.0
C411 C 0.50689 0.10869 0.18406 0.0
O412 O 0.46311 0.25442 0.1613 0.0
O413 O 0.482 0.18886 0.11833 0.0
C414 C 0.59846 0.37267 0.23694 0.0
O415 O 0.47339 0.14159 0.19754 0.0
O416 O 0.55215 0.13416 0.15131 0.0
C417 C 0.72052 0.253 0.13505 0.0
Fe418 Fe 0.94822 0.38717 0.12573 0.0
Fe419 Fe 0.87404 0.40498 0.19915 0.0
O420 O 0.91783 0.36348 0.17821 0.0
Fe421 Fe 0.93518 0.30358 0.20753 0.0
O422 O 1.03197 0.36647 0.19754 0.0
O423 O 1.03942 0.45268 0.15131 0.0
O424 O 0.91908 0.4548 0.11124 0.0
C425 C 0.92056 0.5022 0.13505 0.0
C426 C 0.94663 0.26215 0.12506 0.0
O427 O 0.93429 0.49156 0.17195 0.0
C428 C 0.80088 0.26045 0.23692 0.0
O429 O 0.85178 0.31455 0.11128 0.0
O430 O 0.80916 0.3651 0.15662 0.0
O431 O 0.91915 0.24338 0.16129 0.0
O432 O 0.98472 0.32784 0.11832 0.0
C433 C 0.94869 0.40986 0.26843 0.0
O434 O 0.81233 0.32534 0.23208 0.0
O435 O 0.84066 0.24077 0.21865 0.0
C436 C 0.79756 0.31428 0.13115 0.0
O437 O 0.93771 0.44487 0.24059 0.0
O438 O 0.94598 0.34992 0.25983 0.0
C439 C 1.06488 0.43288 0.18406 0.0
Fe440 Fe 0.78639 0.59571 0.12573 0.0
Fe441 Fe 0.76859 0.50374 0.19917 0.0
O442 O 0.81007 0.58902 0.17822 0.0
Fe443 Fe 0.86998 0.66629 0.20753 0.0
O444 O 0.80708 0.70017 0.19754 0.0
O445 O 0.72087 0.62141 0.15131 0.0
O446 O 0.71875 0.49895 0.11123 0.0
C447 C 0.6714 0.45307 0.13508 0.0
C448 C 0.9114 0.71915 0.12505 0.0
O449 O 0.68197 0.47733 0.17199 0.0
C450 C 0.91313 0.57513 0.23693 0.0
O451 O 0.859 0.57189 0.11128 0.0
O452 O 0.80846 0.47873 0.15664 0.0
O453 O 0.93018 0.71045 0.16129 0.0
O454 O 0.84572 0.69155 0.11831 0.0
C455 C 0.76372 0.57352 0.26845 0.0
O456 O 0.84824 0.52169 0.23209 0.0
O457 O 0.9328 0.63458 0.21866 0.0
C458 C 0.85927 0.51795 0.13116 0.0
O459 O 0.72871 0.52751 0.24062 0.0
O460 O 0.82365 0.63075 0.25984 0.0
C461 C 0.74068 0.66667 0.18406 0.0
Fe462 Fe 0.59344 0.20978 0.92236 0.0
Fe463 Fe 0.6676 0.30176 0.84894 0.0
O464 O 0.62382 0.21647 0.86988 0.0
Fe465 Fe 0.60647 0.13922 0.84055 0.0
O466 O 0.50968 0.10533 0.85055 0.0
O467 O 0.50223 0.18409 0.89678 0.0
O468 O 0.62259 0.30655 0.93685 0.0
C469 C 0.62108 0.35246 0.91304 0.0
C470 C 0.59499 0.08633 0.92302 0.0
O471 O 0.60735 0.32809 0.87614 0.0
C472 C 0.74076 0.2304 0.81116 0.0
O473 O 0.68989 0.23359 0.9368 0.0
O474 O 0.73248 0.32677 0.89147 0.0
O475 O 0.62249 0.09505 0.88679 0.0
O476 O 0.55693 0.11395 0.92976 0.0
C477 C 0.59294 0.23199 0.77966 0.0
O478 O 0.72931 0.28383 0.81601 0.0
O479 O 0.70099 0.17094 0.82943 0.0
C480 C 0.7441 0.28756 0.91694 0.0
O481 O 0.60393 0.27798 0.8075 0.0
O482 O 0.59567 0.17477 0.78825 0.0
C483 C 0.4768 0.13885 0.86403 0.0
Fe484 Fe 1.03437 0.50192 0.84055 0.0
Fe485 Fe 0.96379 0.41834 0.92236 0.0
O486 O 0.9571 0.44201 0.86987 0.0
Fe487 Fe 0.87182 0.40052 0.84891 0.0
O488 O 0.89561 0.36063 0.80748 0.0
O489 O 0.99883 0.45559 0.78824 0.0
O490 O 1.06825 0.43902 0.85055 0.0
C491 C 1.03473 0.37262 0.86403 0.0
C492 C 0.94321 0.54506 0.81114 0.0
O493 O 0.98949 0.35281 0.89678 0.0
C494 C 0.88601 0.49121 0.91693 0.0
O495 O 1.07853 0.56212 0.88679 0.0
O496 O 1.05963 0.47767 0.92977 0.0
O497 O 0.88977 0.48016 0.81599 0.0
O498 O 1.00266 0.56473 0.82942 0.0
C499 C 0.82116 0.30334 0.91302 0.0
O500 O 0.93997 0.49095 0.9368 0.0
O501 O 0.84681 0.44039 0.89145 0.0
C502 C 1.08724 0.54335 0.92303 0.0
O503 O 0.86703 0.3507 0.93686 0.0
O504 O 0.84542 0.3139 0.8761 0.0
C505 C 0.94161 0.39564 0.77964 0.0
Fe506 Fe 0.75526 0.58015 0.92236 0.0
Fe507 Fe 0.77305 0.50596 0.84892 0.0
O508 O 0.73157 0.54977 0.86987 0.0
Fe509 Fe 0.67166 0.56712 0.84056 0.0
O510 O 0.73455 0.6639 0.85054 0.0
O511 O 0.82077 0.67136 0.89678 0.0
O512 O 0.8229 0.55103 0.93686 0.0
C513 C 0.87024 0.5525 0.91301 0.0
C514 C 0.63023 0.57858 0.92303 0.0
O515 O 0.85967 0.56619 0.8761 0.0
C516 C 0.62851 0.43282 0.81116 0.0
O517 O 0.68264 0.48372 0.93681 0.0
O518 O 0.73318 0.44109 0.89146 0.0
O519 O 0.61146 0.55109 0.8868 0.0
O520 O 0.69592 0.61665 0.92977 0.0
C521 C 0.77793 0.58062 0.77965 0.0
O522 O 0.6934 0.44426 0.816 0.0
O523 O 0.60884 0.4726 0.82944 0.0
C524 C 0.68237 0.4295 0.91693 0.0
O525 O 0.81294 0.56963 0.80748 0.0
O526 O 0.71799 0.57791 0.78825 0.0
C527 C 0.80095 0.69679 0.86402 0.0
Fe528 Fe 0.63045 0.91351 0.75571 0.0
Fe529 Fe 0.53847 0.83933 0.68228 0.0
O530 O 0.62375 0.88312 0.70323 0.0
Fe531 Fe 0.701 0.90045 0.67391 0.0
O532 O 0.73489 0.99724 0.68389 0.0
O533 O 0.65613 1.00471 0.73011 0.0
O534 O 0.53368 0.88437 0.7702 0.0
C535 C 0.48776 0.88584 0.74638 0.0
C536 C 0.75389 0.91194 0.75638 0.0
O537 O 0.51211 0.89956 0.70948 0.0
C538 C 0.60986 0.76619 0.64447 0.0
O539 O 0.60664 0.81707 0.77015 0.0
O540 O 0.51347 0.77446 0.72482 0.0
O541 O 0.74517 0.88444 0.72015 0.0
O542 O 0.72628 0.95002 0.76312 0.0
C543 C 0.60823 0.91394 0.61298 0.0
O544 O 0.55642 0.77763 0.64935 0.0
O545 O 0.66925 0.80592 0.66282 0.0
C546 C 0.55269 0.76285 0.75028 0.0
O547 O 0.56225 0.90299 0.64083 0.0
O548 O 0.66546 0.91124 0.6216 0.0
C549 C 0.70137 1.03013 0.69736 0.0
Fe550 Fe 0.27313 0.83524 0.67392 0.0
Fe551 Fe 0.26006 0.75163 0.75571 0.0
O552 O 0.29046 0.77533 0.70323 0.0
Fe553 Fe 0.33427 0.73386 0.68229 0.0
O554 O 0.27061 0.69397 0.64083 0.0
O555 O 0.26235 0.78892 0.62161 0.0
O556 O 0.17634 0.77235 0.68389 0.0
C557 C 0.14345 0.70594 0.69736 0.0
C558 C 0.40741 0.87839 0.64448 0.0
O559 O 0.16886 0.68611 0.73011 0.0
C560 C 0.41072 0.82454 0.75029 0.0
O561 O 0.28913 0.89542 0.72016 0.0
O562 O 0.22355 0.81095 0.76312 0.0
O563 O 0.39597 0.81351 0.64936 0.0
O564 O 0.36767 0.89804 0.66283 0.0
C565 C 0.28775 0.63662 0.74638 0.0
O566 O 0.35649 0.82425 0.77016 0.0
O567 O 0.39913 0.77372 0.72482 0.0
C568 C 0.26164 0.87664 0.75639 0.0
O569 O 0.28921 0.684 0.7702 0.0
O570 O 0.27403 0.64726 0.70948 0.0
C571 C 0.25966 0.729 0.61299 0.0
Fe572 Fe 0.42197 0.54315 0.75571 0.0
Fe573 Fe 0.43972 0.63512 0.68226 0.0
O574 O 0.39827 0.54984 0.70322 0.0
Fe575 Fe 0.33835 0.47259 0.67392 0.0
O576 O 0.40125 0.4387 0.68389 0.0
O577 O 0.48748 0.51746 0.73011 0.0
O578 O 0.4896 0.63991 0.77021 0.0
C579 C 0.53694 0.6858 0.74635 0.0
C580 C 0.29695 0.41971 0.75639 0.0
O581 O 0.52636 0.66155 0.70943 0.0
C582 C 0.29518 0.5637 0.64447 0.0
O583 O 0.34935 0.56696 0.77016 0.0
O584 O 0.39986 0.66012 0.72481 0.0
O585 O 0.27817 0.42842 0.72016 0.0
O586 O 0.36264 0.44732 0.76313 0.0
C587 C 0.44457 0.56536 0.61297 0.0
O588 O 0.36006 0.61715 0.64935 0.0
O589 O 0.27554 0.50431 0.66283 0.0
C590 C 0.34906 0.62089 0.75028 0.0
O591 O 0.4796 0.61135 0.64081 0.0
O592 O 0.38466 0.50811 0.6216 0.0
C593 C 0.46766 0.47222 0.69736 0.0
Fe594 Fe 0.61489 0.92904 -0.04096 0.0
Fe595 Fe 0.5407 0.83707 0.03246 0.0
O596 O 0.58451 0.92235 0.01152 0.0
Fe597 Fe 0.60184 0.9996 0.04083 0.0
O598 O 0.69863 1.03349 0.03086 0.0
O599 O 0.70609 0.95472 -0.01537 0.0
O600 O 0.58574 0.83228 -0.05545 0.0
C601 C 0.58722 0.78635 -0.03163 0.0
C602 C 0.61333 1.05248 -0.04164 0.0
O603 O 0.60095 0.81072 0.00527 0.0
C604 C 0.46757 0.90847 0.07027 0.0
O605 O 0.51845 0.90524 -0.05541 0.0
O606 O 0.47584 0.81207 -0.01007 0.0
O607 O 0.58583 1.04377 -0.00541 0.0
O608 O 0.65141 1.02488 -0.04837 0.0
C609 C 0.61532 0.90682 0.10176 0.0
O610 O 0.479 0.85502 0.06539 0.0
O611 O 0.5073 0.96786 0.05193 0.0
C612 C 0.46423 0.85129 -0.03554 0.0
O613 O 0.60436 0.86084 0.07392 0.0
O614 O 0.61263 0.96406 0.09314 0.0
C615 C 0.73151 0.99997 0.01738 0.0
Fe616 Fe 0.3365 0.73833 0.03249 0.0
Fe617 Fe 0.17397 0.63695 0.04084 0.0
O618 O 0.25123 0.69687 0.01153 0.0
Fe619 Fe 0.24454 0.72056 -0.04096 0.0
O620 O 0.3413 0.78819 -0.05546 0.0
O621 O 0.36293 0.82496 0.00531 0.0
O622 O 0.31272 0.77822 0.07394 0.0
C623 C 0.26673 0.74319 0.10178 0.0
C624 C 0.32229 0.64765 -0.03553 0.0
O625 O 0.20949 0.68327 0.09315 0.0
C626 C 0.1211 0.59555 -0.04164 0.0
O627 O 0.31853 0.65867 0.06541 0.0
O628 O 0.2057 0.57415 0.05194 0.0
O629 O 0.26835 0.64793 -0.0554 0.0
O630 O 0.3615 0.69847 -0.01005 0.0
C631 C 0.17361 0.76626 0.01739 0.0
O632 O 0.1298 0.57677 -0.00541 0.0
O633 O 0.1487 0.66123 -0.04838 0.0
C634 C 0.26508 0.59379 0.07029 0.0
O635 O 0.14008 0.69985 0.03086 0.0
O636 O 0.21885 0.78607 -0.01537 0.0
C637 C 0.38718 0.83553 -0.03161 0.0
Fe638 Fe 0.53662 0.57173 0.04083 0.0
Fe639 Fe 0.45301 0.55867 -0.04096 0.0
O640 O 0.4767 0.58905 0.01152 0.0
Fe641 Fe 0.43525 0.63288 0.03248 0.0
O642 O 0.39536 0.56924 0.07394 0.0
O643 O 0.49031 0.56095 0.09315 0.0
O644 O 0.47373 0.47494 0.03086 0.0
C645 C 0.40732 0.44205 0.01739 0.0
C646 C 0.57979 0.70601 0.07027 0.0
O647 O 0.38749 0.46746 -0.01537 0.0
C648 C 0.52592 0.70932 -0.03553 0.0
O649 O 0.5968 0.58773 -0.00541 0.0
O650 O 0.51234 0.52216 -0.04838 0.0
O651 O 0.51491 0.69458 0.06539 0.0
O652 O 0.59943 0.66626 0.05192 0.0
C653 C 0.33804 0.58635 -0.0316 0.0
O654 O 0.52562 0.6551 -0.05541 0.0
O655 O 0.47511 0.69774 -0.01006 0.0
C656 C 0.57802 0.56024 -0.04164 0.0
O657 O 0.38537 0.5878 -0.05546 0.0
O658 O 0.34861 0.57267 0.00531 0.0
C659 C 0.43039 0.55827 0.10177 0.0
Fe660 Fe 0.33648 0.63286 0.53249 0.0
Fe661 Fe 0.17394 0.57173 0.54087 0.0
O662 O 0.25119 0.58908 0.51155 0.0
Fe663 Fe 0.2445 0.5587 0.45906 0.0
O664 O 0.34126 0.58784 0.44457 0.0
O665 O 0.36282 0.57261 0.50528 0.0
O666 O 0.31269 0.56917 0.57393 0.0
C667 C 0.2667 0.5582 0.60177 0.0
C668 C 0.32229 0.70936 0.46449 0.0
O669 O 0.20948 0.56093 0.59317 0.0
C670 C 0.12107 0.56028 0.45839 0.0
O671 O 0.31855 0.69456 0.56542 0.0
O672 O 0.20566 0.66625 0.55199 0.0
O673 O 0.26832 0.65514 0.44462 0.0
O674 O 0.36149 0.69774 0.48996 0.0
C675 C 0.17357 0.44206 0.5174 0.0
O676 O 0.12977 0.58776 0.49463 0.0
O677 O 0.14867 0.52219 0.45166 0.0
C678 C 0.26512 0.70602 0.57027 0.0
O679 O 0.14005 0.47494 0.53088 0.0
O680 O 0.21881 0.46749 0.48464 0.0
C681 C 0.38718 0.58634 0.46838 0.0
Fe682 Fe 0.5407 0.73831 0.53248 0.0
Fe683 Fe 0.60183 0.63691 0.54086 0.0
O684 O 0.58449 0.69681 0.51154 0.0
Fe685 Fe 0.61488 0.7205 0.45906 0.0
O686 O 0.58574 0.78813 0.44457 0.0
O687 O 0.60095 0.8249 0.50528 0.0
O688 O 0.60436 0.7782 0.57393 0.0
C689 C 0.61534 0.74319 0.60176 0.0
C690 C 0.46422 0.64762 0.46448 0.0
O691 O 0.61262 0.68325 0.59317 0.0
C692 C 0.61329 0.59549 0.45839 0.0
O693 O 0.47898 0.65868 0.56541 0.0
O694 O 0.50731 0.57411 0.55198 0.0
O695 O 0.51844 0.64789 0.44461 0.0
O696 O 0.47582 0.69844 0.48995 0.0
C697 C 0.73151 0.76621 0.5174 0.0
O698 O 0.58581 0.57671 0.49463 0.0
O699 O 0.65138 0.66117 0.45166 0.0
C700 C 0.46753 0.59378 0.57025 0.0
O701 O 0.69862 0.6998 0.53088 0.0
O702 O 0.70608 0.78602 0.48465 0.0
C703 C 0.58722 0.83554 0.46838 0.0
Fe704 Fe 0.45305 0.92906 0.45906 0.0
Fe705 Fe 0.43525 0.83708 0.5325 0.0
O706 O 0.47673 0.92236 0.51155 0.0
Fe707 Fe 0.53665 0.99962 0.54087 0.0
O708 O 0.47375 1.03352 0.53088 0.0
O709 O 0.38753 0.95476 0.48465 0.0
O710 O 0.38541 0.8323 0.44456 0.0
C711 C 0.33806 0.78642 0.46841 0.0
C712 C 0.57808 1.05249 0.45839 0.0
O713 O 0.34863 0.81067 0.50532 0.0
C714 C 0.57979 0.90846 0.57027 0.0
O715 O 0.52566 0.90523 0.44462 0.0
O716 O 0.47512 0.81207 0.48997 0.0
O717 O 0.59685 1.04379 0.49463 0.0
O718 O 0.51239 1.02489 0.45165 0.0
C719 C 0.43038 0.90686 0.60178 0.0
O720 O 0.5149 0.85503 0.56542 0.0
O721 O 0.59946 0.96791 0.55199 0.0
C722 C 0.52593 0.85129 0.46449 0.0
O723 O 0.39537 0.86086 0.57395 0.0
O724 O 0.49032 0.96409 0.59317 0.0
C725 C 0.40735 0.99999 0.5174 0.0
Fe726 Fe 0.2601 0.5431 0.2557 0.0
Fe727 Fe 0.33425 0.63508 0.18227 0.0
O728 O 0.29047 0.5498 0.20321 0.0
Fe729 Fe 0.27313 0.47255 0.17389 0.0
O730 O 0.17634 0.43865 0.18388 0.0
O731 O 0.16889 0.51741 0.23011 0.0
O732 O 0.28924 0.63987 0.27019 0.0
C733 C 0.28774 0.68578 0.24637 0.0
C734 C 0.26168 0.41967 0.25636 0.0
O735 O 0.274 0.66141 0.20948 0.0
C736 C 0.40742 0.56373 0.14449 0.0
O737 O 0.35654 0.56693 0.27014 0.0
O738 O 0.39914 0.6601 0.2248 0.0
O739 O 0.28916 0.42837 0.22012 0.0
O740 O 0.2236 0.44727 0.2631 0.0
C741 C 0.25959 0.56531 0.11299 0.0
O742 O 0.39596 0.61716 0.14934 0.0
O743 O 0.36765 0.50427 0.16276 0.0
C744 C 0.41076 0.62089 0.25027 0.0
O745 O 0.27057 0.6113 0.14083 0.0
O746 O 0.26233 0.50809 0.12158 0.0
C747 C 0.14345 0.47216 0.19736 0.0
Fe748 Fe 0.63045 0.75167 0.25569 0.0
Fe749 Fe 0.53847 0.73385 0.18225 0.0
O750 O 0.62376 0.77535 0.2032 0.0
Fe751 Fe 0.70102 0.83526 0.17388 0.0
O752 O 0.73491 0.77236 0.18388 0.0
O753 O 0.65615 0.68615 0.23011 0.0
O754 O 0.53369 0.68403 0.2702 0.0
C755 C 0.48782 0.63667 0.24635 0.0
C756 C 0.75389 0.87668 0.25636 0.0
O757 O 0.51207 0.64724 0.20943 0.0
C758 C 0.60986 0.87839 0.14448 0.0
O759 O 0.60662 0.82428 0.27013 0.0
O760 O 0.51346 0.77372 0.22478 0.0
O761 O 0.74519 0.89546 0.22012 0.0
O762 O 0.72628 0.811 0.2631 0.0
C763 C 0.60826 0.72898 0.11298 0.0
O764 O 0.55642 0.8135 0.14932 0.0
O765 O 0.66931 0.89806 0.16276 0.0
C766 C 0.55267 0.82454 0.25026 0.0
O767 O 0.56226 0.69397 0.14081 0.0
O768 O 0.66549 0.78892 0.12158 0.0
C769 C 0.70139 0.70596 0.19736 0.0
Fe770 Fe 0.42191 0.91348 0.2557 0.0
Fe771 Fe 0.4397 0.83929 0.18225 0.0
O772 O 0.39823 0.8831 0.20321 0.0
Fe773 Fe 0.33831 0.90045 0.17389 0.0
O774 O 0.40121 0.99723 0.18388 0.0
O775 O 0.48743 1.00469 0.23011 0.0
O776 O 0.48955 0.88436 0.2702 0.0
C777 C 0.5369 0.88583 0.24634 0.0
C778 C 0.29689 0.91189 0.25637 0.0
O779 O 0.52633 0.89952 0.20943 0.0
C780 C 0.29516 0.76614 0.1445 0.0
O781 O 0.3493 0.81704 0.27014 0.0
O782 O 0.39983 0.77442 0.22479 0.0
O783 O 0.27812 0.88442 0.22013 0.0
O784 O 0.36258 0.94997 0.26311 0.0
C785 C 0.44458 0.91395 0.11298 0.0
O786 O 0.36005 0.77759 0.14934 0.0
O787 O 0.2755 0.80593 0.16277 0.0
C788 C 0.34903 0.76283 0.25027 0.0
O789 O 0.47959 0.90296 0.14081 0.0
O790 O 0.38464 0.91124 0.12158 0.0
C791 C 0.46761 1.03012 0.19736 0.0
loop_
_geom_bond_atom_site_label_1
_geom_bond_atom_site_label_2
_geom_bond_distance
_geom_bond_site_symmetry_2
_ccdc_geom_bond_type
Fe0 O2 1.918 . S
Fe0 O5 1.997 . S
Fe0 O6 2.002 . S
Fe0 O11 1.976 . S
Fe0 O14 1.996 . S
Fe1 O2 1.918 . S
Fe1 O9 1.997 . S
Fe1 O12 1.996 . S
Fe1 O16 1.976 . S
Fe1 O19 2.002 . S
O2 Fe0 1.918 . S
O2 Fe1 1.918 . S
O2 Fe3 1.918 . S
Fe3 O2 1.918 . S
Fe3 O4 2.002 . S
Fe3 O13 1.976 . S
Fe3 O17 1.996 . S
Fe3 O20 1.997 . S
O4 Fe3 2.002 . S
O4 C21 1.295 . S
O5 Fe0 1.997 . S
O5 C21 1.235 . S
O6 Fe0 2.002 . S
O6 C7 1.295 . S
C7 O6 1.295 . S
C7 O9 1.235 . S
C8 O13 1.287 . S
C8 O14 1.255 . S
O9 Fe1 1.997 . S
O9 C7 1.235 . S
C10 O16 1.287 . S
C10 O17 1.255 . S
O11 Fe0 1.976 . S
O11 C18 1.287 . S
O12 Fe1 1.996 . S
O12 C18 1.255 . S
O13 Fe3 1.976 . S
O13 C8 1.287 . S
O14 Fe0 1.996 . S
O14 C8 1.255 . S
C15 O19 1.295 . S
C15 O20 1.235 . S
O16 Fe1 1.976 . S
O16 C10 1.287 . S
O17 Fe3 1.996 . S
O17 C10 1.255 . S
C18 O11 1.287 . S
C18 O12 1.255 . S
O19 Fe1 2.002 . S
O19 C15 1.295 . S
O20 Fe3 1.997 . S
O20 C15 1.235 . S
C21 O4 1.295 . S
C21 O5 1.235 . S
Fe22 O24 1.918 . S
Fe22 O27 1.997 1_545 S
Fe22 O28 2.002 1_545 S
Fe22 O33 1.976 . S
Fe22 O36 1.996 . S
Fe23 O24 1.918 . S
Fe23 O31 1.997 1_545 S
Fe23 O34 1.996 . S
Fe23 O38 1.976 . S
Fe23 O41 2.002 1_545 S
O24 Fe22 1.918 . S
O24 Fe23 1.918 . S
O24 Fe25 1.918 . S
Fe25 O24 1.918 . S
Fe25 O26 2.002 1_545 S
Fe25 O35 1.976 . S
Fe25 O39 1.996 . S
Fe25 O42 1.997 1_545 S
O26 Fe25 2.002 1_565 S
O26 C43 1.295 . S
O27 Fe22 1.997 1_565 S
O27 C43 1.235 . S
O28 Fe22 2.002 1_565 S
O28 C29 1.295 . S
C29 O28 1.295 . S
C29 O31 1.235 . S
C30 O35 1.287 . S
C30 O36 1.255 . S
O31 Fe23 1.997 1_565 S
O31 C29 1.235 . S
C32 O38 1.287 . S
C32 O39 1.255 . S
O33 Fe22 1.976 . S
O33 C40 1.287 . S
O34 Fe23 1.996 . S
O34 C40 1.255 . S
O35 Fe25 1.976 . S
O35 C30 1.287 . S
O36 Fe22 1.996 . S
O36 C30 1.255 . S
C37 O41 1.295 . S
C37 O42 1.235 . S
O38 Fe23 1.976 . S
O38 C32 1.287 . S
O39 Fe25 1.996 . S
O39 C32 1.255 . S
C40 O33 1.287 . S
C40 O34 1.255 . S
O41 Fe23 2.002 1_565 S
O41 C37 1.295 . S
O42 Fe25 1.997 1_565 S
O42 C37 1.235 . S
C43 O26 1.295 . S
C43 O27 1.235 . S
Fe44 O46 1.918 . S
Fe44 O49 1.997 1_655 S
Fe44 O50 2.002 1_655 S
Fe44 O55 1.976 . S
Fe44 O58 1.996 . S
Fe45 O46 1.918 . S
Fe45 O53 1.997 1_655 S
Fe45 O56 1.996 . S
Fe45 O60 1.976 . S
Fe45 O63 2.002 1_655 S
O46 Fe44 1.918 . S
O46 Fe45 1.918 . S
O46 Fe47 1.918 . S
Fe47 O46 1.918 . S
Fe47 O48 2.002 1_655 S
Fe47 O57 1.976 . S
Fe47 O61 1.996 . S
Fe47 O64 1.997 1_655 S
O48 Fe47 2.002 1_455 S
O48 C65 1.295 . S
O49 Fe44 1.997 1_455 S
O49 C65 1.235 . S
O50 Fe44 2.002 1_455 S
O50 C51 1.295 . S
C51 O50 1.295 . S
C51 O53 1.235 . S
C52 O57 1.287 . S
C52 O58 1.255 . S
O53 Fe45 1.997 1_455 S
O53 C51 1.235 . S
C54 O60 1.287 . S
C54 O61 1.255 . S
O55 Fe44 1.976 . S
O55 C62 1.287 . S
O56 Fe45 1.996 . S
O56 C62 1.255 . S
O57 Fe47 1.976 . S
O57 C52 1.287 . S
O58 Fe44 1.996 . S
O58 C52 1.255 . S
C59 O63 1.295 . S
C59 O64 1.235 . S
O60 Fe45 1.976 . S
O60 C54 1.287 . S
O61 Fe47 1.996 . S
O61 C54 1.255 . S
C62 O55 1.287 . S
C62 O56 1.255 . S
O63 Fe45 2.002 1_455 S
O63 C59 1.295 . S
O64 Fe47 1.997 1_455 S
O64 C59 1.235 . S
C65 O48 1.295 . S
C65 O49 1.235 . S
Fe66 O68 1.918 . S
Fe66 O71 1.997 . S
Fe66 O72 2.002 . S
Fe66 O77 1.976 . S
Fe66 O80 1.996 . S
Fe67 O68 1.918 . S
Fe67 O75 1.997 . S
Fe67 O78 1.996 . S
Fe67 O82 1.976 . S
Fe67 O85 2.002 . S
O68 Fe66 1.918 . S
O68 Fe67 1.918 . S
O68 Fe69 1.918 . S
Fe69 O68 1.918 . S
Fe69 O70 2.002 . S
Fe69 O79 1.976 . S
Fe69 O83 1.996 . S
Fe69 O86 1.997 . S
O70 Fe69 2.002 . S
O70 C87 1.295 . S
O71 Fe66 1.997 . S
O71 C87 1.235 . S
O72 Fe66 2.002 . S
O72 C73 1.295 . S
C73 O72 1.295 . S
C73 O75 1.235 . S
C74 O79 1.287 . S
C74 O80 1.255 . S
O75 Fe67 1.997 . S
O75 C73 1.235 . S
C76 O82 1.287 . S
C76 O83 1.255 . S
O77 Fe66 1.976 . S
O77 C84 1.287 . S
O78 Fe67 1.996 . S
O78 C84 1.255 . S
O79 Fe69 1.976 . S
O79 C74 1.287 . S
O80 Fe66 1.996 . S
O80 C74 1.255 . S
C81 O85 1.295 . S
C81 O86 1.235 . S
O82 Fe67 1.976 . S
O82 C76 1.287 . S
O83 Fe69 1.996 . S
O83 C76 1.255 . S
C84 O77 1.287 . S
C84 O78 1.255 . S
O85 Fe67 2.002 . S
O85 C81 1.295 . S
O86 Fe69 1.997 . S
O86 C81 1.235 . S
C87 O70 1.295 . S
C87 O71 1.235 . S
Fe88 O90 1.918 . S
Fe88 O93 1.997 1_565 S
Fe88 O94 2.002 1_565 S
Fe88 O99 1.976 . S
Fe88 O102 1.996 . S
Fe89 O90 1.918 . S
Fe89 O97 1.997 1_565 S
Fe89 O100 1.996 . S
Fe89 O104 1.976 . S
Fe89 O107 2.002 1_565 S
O90 Fe88 1.918 . S
O90 Fe89 1.918 . S
O90 Fe91 1.918 . S
Fe91 O90 1.918 . S
Fe91 O92 2.002 1_565 S
Fe91 O101 1.976 . S
Fe91 O105 1.996 . S
Fe91 O108 1.997 1_565 S
O92 Fe91 2.002 1_545 S
O92 C109 1.295 . S
O93 Fe88 1.997 1_545 S
O93 C109 1.235 . S
O94 Fe88 2.002 1_545 S
O94 C95 1.295 . S
C95 O94 1.295 . S
C95 O97 1.235 . S
C96 O101 1.287 . S
C96 O102 1.255 . S
O97 Fe89 1.997 1_545 S
O97 C95 1.235 . S
C98 O104 1.287 . S
C98 O105 1.255 . S
O99 Fe88 1.976 . S
O99 C106 1.287 . S
O100 Fe89 1.996 . S
O100 C106 1.255 . S
O101 Fe91 1.976 . S
O101 C96 1.287 . S
O102 Fe88 1.996 . S
O102 C96 1.255 . S
C103 O107 1.295 . S
C103 O108 1.235 . S
O104 Fe89 1.976 . S
O104 C98 1.287 . S
O105 Fe91 1.996 . S
O105 C98 1.255 . S
C106 O99 1.287 . S
C106 O100 1.255 . S
O107 Fe89 2.002 1_545 S
O107 C103 1.295 . S
O108 Fe91 1.997 1_545 S
O108 C103 1.235 . S
C109 O92 1.295 . S
C109 O93 1.235 . S
Fe110 O112 1.918 . S
Fe110 O115 1.997 1_455 S
Fe110 O116 2.002 1_455 S
Fe110 O121 1.976 . S
Fe110 O124 1.996 . S
Fe111 O112 1.918 . S
Fe111 O119 1.997 1_455 S
Fe111 O122 1.996 . S
Fe111 O126 1.976 . S
Fe111 O129 2.002 1_455 S
O112 Fe110 1.918 . S
O112 Fe111 1.918 . S
O112 Fe113 1.918 . S
Fe113 O112 1.918 . S
Fe113 O114 2.002 1_455 S
Fe113 O123 1.976 . S
Fe113 O127 1.996 . S
Fe113 O130 1.997 1_455 S
O114 Fe113 2.002 1_655 S
O114 C131 1.295 . S
O115 Fe110 1.997 1_655 S
O115 C131 1.235 . S
O116 Fe110 2.002 1_655 S
O116 C117 1.295 . S
C117 O116 1.295 . S
C117 O119 1.235 . S
C118 O123 1.287 . S
C118 O124 1.255 . S
O119 Fe111 1.997 1_655 S
O119 C117 1.235 . S
C120 O126 1.287 . S
C120 O127 1.255 . S
O121 Fe110 1.976 . S
O121 C128 1.287 . S
O122 Fe111 1.996 . S
O122 C128 1.255 . S
O123 Fe113 1.976 . S
O123 C118 1.287 . S
O124 Fe110 1.996 . S
O124 C118 1.255 . S
C125 O129 1.295 . S
C125 O130 1.235 . S
O126 Fe111 1.976 . S
O126 C120 1.287 . S
O127 Fe113 1.996 . S
O127 C120 1.255 . S
C128 O121 1.287 . S
C128 O122 1.255 . S
O129 Fe111 2.002 1_655 S
O129 C125 1.295 . S
O130 Fe113 1.997 1_655 S
O130 C125 1.235 . S
C131 O114 1.295 . S
C131 O115 1.235 . S
Fe132 O134 1.918 . S
Fe132 O137 1.997 . S
Fe132 O138 2.002 . S
Fe132 O143 1.976 . S
Fe132 O146 1.996 . S
Fe133 O134 1.918 . S
Fe133 O141 1.997 . S
Fe133 O144 1.996 . S
Fe133 O148 1.976 . S
Fe133 O151 2.002 . S
O134 Fe132 1.918 . S
O134 Fe133 1.918 . S
O134 Fe135 1.918 . S
Fe135 O134 1.918 . S
Fe135 O136 2.002 . S
Fe135 O145 1.976 . S
Fe135 O149 1.996 . S
Fe135 O152 1.997 . S
O136 Fe135 2.002 . S
O136 C153 1.295 . S
O137 Fe132 1.997 . S
O137 C153 1.235 . S
O138 Fe132 2.002 . S
O138 C139 1.295 . S
C139 O138 1.295 . S
C139 O141 1.235 . S
C140 O145 1.287 . S
C140 O146 1.255 . S
O141 Fe133 1.997 . S
O141 C139 1.235 . S
C142 O148 1.287 . S
C142 O149 1.255 . S
O143 Fe132 1.976 . S
O143 C150 1.287 . S
O144 Fe133 1.996 . S
O144 C150 1.255 . S
O145 Fe135 1.976 . S
O145 C140 1.287 . S
O146 Fe132 1.996 . S
O146 C140 1.255 . S
C147 O151 1.295 . S
C147 O152 1.235 . S
O148 Fe133 1.976 . S
O148 C142 1.287 . S
O149 Fe135 1.996 . S
O149 C142 1.255 . S
C150 O143 1.287 . S
C150 O144 1.255 . S
O151 Fe133 2.002 . S
O151 C147 1.295 . S
O152 Fe135 1.997 . S
O152 C147 1.235 . S
C153 O136 1.295 . S
C153 O137 1.235 . S
Fe154 O156 1.918 . S
Fe154 O159 1.997 1_565 S
Fe154 O160 2.002 1_565 S
Fe154 O165 1.976 . S
Fe154 O168 1.996 . S
Fe155 O156 1.918 . S
Fe155 O163 1.997 1_565 S
Fe155 O166 1.996 . S
Fe155 O170 1.976 . S
Fe155 O173 2.002 1_565 S
O156 Fe154 1.918 . S
O156 Fe155 1.918 . S
O156 Fe157 1.918 . S
Fe157 O156 1.918 . S
Fe157 O158 2.002 1_565 S
Fe157 O167 1.976 . S
Fe157 O171 1.996 . S
Fe157 O174 1.997 1_565 S
O158 Fe157 2.002 1_545 S
O158 C175 1.295 . S
O159 Fe154 1.997 1_545 S
O159 C175 1.235 . S
O160 Fe154 2.002 1_545 S
O160 C161 1.295 . S
C161 O160 1.295 . S
C161 O163 1.235 . S
C162 O167 1.287 . S
C162 O168 1.255 . S
O163 Fe155 1.997 1_545 S
O163 C161 1.235 . S
C164 O170 1.287 . S
C164 O171 1.255 . S
O165 Fe154 1.976 . S
O165 C172 1.287 . S
O166 Fe155 1.996 . S
O166 C172 1.255 . S
O167 Fe157 1.976 . S
O167 C162 1.287 . S
O168 Fe154 1.996 . S
O168 C162 1.255 . S
C169 O173 1.295 . S
C169 O174 1.235 . S
O170 Fe155 1.976 . S
O170 C164 1.287 . S
O171 Fe157 1.996 . S
O171 C164 1.255 . S
C172 O165 1.287 . S
C172 O166 1.255 . S
O173 Fe155 2.002 1_545 S
O173 C169 1.295 . S
O174 Fe157 1.997 1_545 S
O174 C169 1.235 . S
C175 O158 1.295 . S
C175 O159 1.235 . S
Fe176 O178 1.918 . S
Fe176 O181 1.997 1_455 S
Fe176 O182 2.002 1_455 S
Fe176 O187 1.976 . S
Fe176 O190 1.996 . S
Fe177 O178 1.918 . S
Fe177 O185 1.997 1_455 S
Fe177 O188 1.996 . S
Fe177 O192 1.976 . S
Fe177 O195 2.002 1_455 S
O178 Fe176 1.918 . S
O178 Fe177 1.918 . S
O178 Fe179 1.918 . S
Fe179 O178 1.918 . S
Fe179 O180 2.002 1_455 S
Fe179 O189 1.976 . S
Fe179 O193 1.996 . S
Fe179 O196 1.997 1_455 S
O180 Fe179 2.002 1_655 S
O180 C197 1.295 . S
O181 Fe176 1.997 1_655 S
O181 C197 1.235 . S
O182 Fe176 2.002 1_655 S
O182 C183 1.295 . S
C183 O182 1.295 . S
C183 O185 1.235 . S
C184 O189 1.287 . S
C184 O190 1.255 . S
O185 Fe177 1.997 1_655 S
O185 C183 1.235 . S
C186 O192 1.287 . S
C186 O193 1.255 . S
O187 Fe176 1.976 . S
O187 C194 1.287 . S
O188 Fe177 1.996 . S
O188 C194 1.255 . S
O189 Fe179 1.976 . S
O189 C184 1.287 . S
O190 Fe176 1.996 . S
O190 C184 1.255 . S
C191 O195 1.295 . S
C191 O196 1.235 . S
O192 Fe177 1.976 . S
O192 C186 1.287 . S
O193 Fe179 1.996 . S
O193 C186 1.255 . S
C194 O187 1.287 . S
C194 O188 1.255 . S
O195 Fe177 2.002 1_655 S
O195 C191 1.295 . S
O196 Fe179 1.997 1_655 S
O196 C191 1.235 . S
C197 O180 1.295 . S
C197 O181 1.235 . S
Fe198 O200 1.918 . S
Fe198 O203 1.997 . S
Fe198 O204 2.002 . S
Fe198 O209 1.976 . S
Fe198 O212 1.996 . S
Fe199 O200 1.918 . S
Fe199 O207 1.997 . S
Fe199 O210 1.996 . S
Fe199 O214 1.976 . S
Fe199 O217 2.002 . S
O200 Fe198 1.918 . S
O200 Fe199 1.918 . S
O200 Fe201 1.918 . S
Fe201 O200 1.918 . S
Fe201 O202 2.002 . S
Fe201 O211 1.976 . S
Fe201 O215 1.996 . S
Fe201 O218 1.997 . S
O202 Fe201 2.002 . S
O202 C219 1.295 . S
O203 Fe198 1.997 . S
O203 C219 1.235 . S
O204 Fe198 2.002 . S
O204 C205 1.295 . S
C205 O204 1.295 . S
C205 O207 1.235 . S
C206 O211 1.287 . S
C206 O212 1.255 . S
O207 Fe199 1.997 . S
O207 C205 1.235 . S
C208 O214 1.287 . S
C208 O215 1.255 . S
O209 Fe198 1.976 . S
O209 C216 1.287 . S
O210 Fe199 1.996 . S
O210 C216 1.255 . S
O211 Fe201 1.976 . S
O211 C206 1.287 . S
O212 Fe198 1.996 . S
O212 C206 1.255 . S
C213 O217 1.295 . S
C213 O218 1.235 . S
O214 Fe199 1.976 . S
O214 C208 1.287 . S
O215 Fe201 1.996 . S
O215 C208 1.255 . S
C216 O209 1.287 . S
C216 O210 1.255 . S
O217 Fe199 2.002 . S
O217 C213 1.295 . S
O218 Fe201 1.997 . S
O218 C213 1.235 . S
C219 O202 1.295 . S
C219 O203 1.235 . S
Fe220 O222 1.918 . S
Fe220 O225 1.997 1_545 S
Fe220 O226 2.002 1_545 S
Fe220 O231 1.976 . S
Fe220 O234 1.996 . S
Fe221 O222 1.918 . S
Fe221 O229 1.997 1_545 S
Fe221 O232 1.996 . S
Fe221 O236 1.976 . S
Fe221 O239 2.002 1_545 S
O222 Fe220 1.918 . S
O222 Fe221 1.918 . S
O222 Fe223 1.918 . S
Fe223 O222 1.918 . S
Fe223 O224 2.002 1_545 S
Fe223 O233 1.976 . S
Fe223 O237 1.996 . S
Fe223 O240 1.997 1_545 S
O224 Fe223 2.002 1_565 S
O224 C241 1.295 . S
O225 Fe220 1.997 1_565 S
O225 C241 1.235 . S
O226 Fe220 2.002 1_565 S
O226 C227 1.295 . S
C227 O226 1.295 . S
C227 O229 1.235 . S
C228 O233 1.287 . S
C228 O234 1.255 . S
O229 Fe221 1.997 1_565 S
O229 C227 1.235 . S
C230 O236 1.287 . S
C230 O237 1.255 . S
O231 Fe220 1.976 . S
O231 C238 1.287 . S
O232 Fe221 1.996 . S
O232 C238 1.255 . S
O233 Fe223 1.976 . S
O233 C228 1.287 . S
O234 Fe220 1.996 . S
O234 C228 1.255 . S
C235 O239 1.295 . S
C235 O240 1.235 . S
O236 Fe221 1.976 . S
O236 C230 1.287 . S
O237 Fe223 1.996 . S
O237 C230 1.255 . S
C238 O231 1.287 . S
C238 O232 1.255 . S
O239 Fe221 2.002 1_565 S
O239 C235 1.295 . S
O240 Fe223 1.997 1_565 S
O240 C235 1.235 . S
C241 O224 1.295 . S
C241 O225 1.235 . S
Fe242 O244 1.918 . S
Fe242 O247 1.997 1_655 S
Fe242 O248 2.002 1_655 S
Fe242 O253 1.976 . S
Fe242 O256 1.996 . S
Fe243 O244 1.918 . S
Fe243 O251 1.997 1_655 S
Fe243 O254 1.996 . S
Fe243 O258 1.976 . S
Fe243 O261 2.002 1_655 S
O244 Fe242 1.918 . S
O244 Fe243 1.918 . S
O244 Fe245 1.918 . S
Fe245 O244 1.918 . S
Fe245 O246 2.002 1_655 S
Fe245 O255 1.976 . S
Fe245 O259 1.996 . S
Fe245 O262 1.997 1_655 S
O246 Fe245 2.002 1_455 S
O246 C263 1.295 . S
O247 Fe242 1.997 1_455 S
O247 C263 1.235 . S
O248 Fe242 2.002 1_455 S
O248 C249 1.295 . S
C249 O248 1.295 . S
C249 O251 1.235 . S
C250 O255 1.287 . S
C250 O256 1.255 . S
O251 Fe243 1.997 1_455 S
O251 C249 1.235 . S
C252 O258 1.287 . S
C252 O259 1.255 . S
O253 Fe242 1.976 . S
O253 C260 1.287 . S
O254 Fe243 1.996 . S
O254 C260 1.255 . S
O255 Fe245 1.976 . S
O255 C250 1.287 . S
O256 Fe242 1.996 . S
O256 C250 1.255 . S
C257 O261 1.295 . S
C257 O262 1.235 . S
O258 Fe243 1.976 . S
O258 C252 1.287 . S
O259 Fe245 1.996 . S
O259 C252 1.255 . S
C260 O253 1.287 . S
C260 O254 1.255 . S
O261 Fe243 2.002 1_455 S
O261 C257 1.295 . S
O262 Fe245 1.997 1_455 S
O262 C257 1.235 . S
C263 O246 1.295 . S
C263 O247 1.235 . S
Fe264 O266 1.918 . S
Fe264 O269 1.997 . S
Fe264 O270 2.002 . S
Fe264 O275 1.976 . S
Fe264 O278 1.996 . S
Fe265 O266 1.918 . S
Fe265 O273 1.997 . S
Fe265 O276 1.996 . S
Fe265 O280 1.976 . S
Fe265 O283 2.002 . S
O266 Fe264 1.918 . S
O266 Fe265 1.918 . S
O266 Fe267 1.918 . S
Fe267 O266 1.918 . S
Fe267 O268 2.002 . S
Fe267 O277 1.976 . S
Fe267 O281 1.996 . S
Fe267 O284 1.997 . S
O268 Fe267 2.002 . S
O268 C285 1.295 . S
O269 Fe264 1.997 . S
O269 C285 1.235 . S
O270 Fe264 2.002 . S
O270 C271 1.295 . S
C271 O270 1.295 . S
C271 O273 1.235 . S
C272 O277 1.287 . S
C272 O278 1.255 . S
O273 Fe265 1.997 . S
O273 C271 1.235 . S
C274 O280 1.287 . S
C274 O281 1.255 . S
O275 Fe264 1.976 . S
O275 C282 1.287 . S
O276 Fe265 1.996 . S
O276 C282 1.255 . S
O277 Fe267 1.976 . S
O277 C272 1.287 . S
O278 Fe264 1.996 . S
O278 C272 1.255 . S
C279 O283 1.295 . S
C279 O284 1.235 . S
O280 Fe265 1.976 . S
O280 C274 1.287 . S
O281 Fe267 1.996 . S
O281 C274 1.255 . S
C282 O275 1.287 . S
C282 O276 1.255 . S
O283 Fe265 2.002 . S
O283 C279 1.295 . S
O284 Fe267 1.997 . S
O284 C279 1.235 . S
C285 O268 1.295 . S
C285 O269 1.235 . S
Fe286 O288 1.918 . S
Fe286 O291 1.997 . S
Fe286 O292 2.002 . S
Fe286 O297 1.976 . S
Fe286 O300 1.996 . S
Fe287 O288 1.918 . S
Fe287 O295 1.997 . S
Fe287 O298 1.996 . S
Fe287 O302 1.976 . S
Fe287 O305 2.002 . S
O288 Fe286 1.918 . S
O288 Fe287 1.918 . S
O288 Fe289 1.918 . S
Fe289 O288 1.918 . S
Fe289 O290 2.002 . S
Fe289 O299 1.976 . S
Fe289 O303 1.996 . S
Fe289 O306 1.997 . S
O290 Fe289 2.002 . S
O290 C307 1.295 . S
O291 Fe286 1.997 . S
O291 C307 1.235 . S
O292 Fe286 2.002 . S
O292 C293 1.295 . S
C293 O292 1.295 . S
C293 O295 1.235 . S
C294 O299 1.287 . S
C294 O300 1.255 . S
O295 Fe287 1.997 . S
O295 C293 1.235 . S
C296 O302 1.287 . S
C296 O303 1.255 . S
O297 Fe286 1.976 . S
O297 C304 1.287 . S
O298 Fe287 1.996 . S
O298 C304 1.255 . S
O299 Fe289 1.976 . S
O299 C294 1.287 . S
O300 Fe286 1.996 . S
O300 C294 1.255 . S
C301 O305 1.295 . S
C301 O306 1.235 . S
O302 Fe287 1.976 . S
O302 C296 1.287 . S
O303 Fe289 1.996 . S
O303 C296 1.255 . S
C304 O297 1.287 . S
C304 O298 1.255 . S
O305 Fe287 2.002 . S
O305 C301 1.295 . S
O306 Fe289 1.997 . S
O306 C301 1.235 . S
C307 O290 1.295 . S
C307 O291 1.235 . S
Fe308 O310 1.918 . S
Fe308 O313 1.997 . S
Fe308 O314 2.002 . S
Fe308 O319 1.976 . S
Fe308 O322 1.996 . S
Fe309 O310 1.918 . S
Fe309 O317 1.997 . S
Fe309 O320 1.996 . S
Fe309 O324 1.976 . S
Fe309 O327 2.002 . S
O310 Fe308 1.918 . S
O310 Fe309 1.918 . S
O310 Fe311 1.918 . S
Fe311 O310 1.918 . S
Fe311 O312 2.002 . S
Fe311 O321 1.976 . S
Fe311 O325 1.996 . S
Fe311 O328 1.997 . S
O312 Fe311 2.002 . S
O312 C329 1.295 . S
O313 Fe308 1.997 . S
O313 C329 1.235 . S
O314 Fe308 2.002 . S
O314 C315 1.295 . S
C315 O314 1.295 . S
C315 O317 1.235 . S
C316 O321 1.287 . S
C316 O322 1.255 . S
O317 Fe309 1.997 . S
O317 C315 1.235 . S
C318 O324 1.287 . S
C318 O325 1.255 . S
O319 Fe308 1.976 . S
O319 C326 1.287 . S
O320 Fe309 1.996 . S
O320 C326 1.255 . S
O321 Fe311 1.976 . S
O321 C316 1.287 . S
O322 Fe308 1.996 . S
O322 C316 1.255 . S
C323 O327 1.295 . S
C323 O328 1.235 . S
O324 Fe309 1.976 . S
O324 C318 1.287 . S
O325 Fe311 1.996 . S
O325 C318 1.255 . S
C326 O319 1.287 . S
C326 O320 1.255 . S
O327 Fe309 2.002 . S
O327 C323 1.295 . S
O328 Fe311 1.997 . S
O328 C323 1.235 . S
C329 O312 1.295 . S
C329 O313 1.235 . S
Fe330 O332 1.918 . S
Fe330 O335 1.997 . S
Fe330 O336 2.002 . S
Fe330 O341 1.976 . S
Fe330 O344 1.996 . S
Fe331 O332 1.918 . S
Fe331 O339 1.997 . S
Fe331 O342 1.996 . S
Fe331 O346 1.976 . S
Fe331 O349 2.002 . S
O332 Fe330 1.918 . S
O332 Fe331 1.918 . S
O332 Fe333 1.918 . S
Fe333 O332 1.918 . S
Fe333 O334 2.002 . S
Fe333 O343 1.976 . S
Fe333 O347 1.996 . S
Fe333 O350 1.997 . S
O334 Fe333 2.002 . S
O334 C351 1.295 . S
O335 Fe330 1.997 . S
O335 C351 1.235 . S
O336 Fe330 2.002 . S
O336 C337 1.295 . S
C337 O336 1.295 . S
C337 O339 1.235 . S
C338 O343 1.287 . S
C338 O344 1.255 . S
O339 Fe331 1.997 . S
O339 C337 1.235 . S
C340 O346 1.287 . S
C340 O347 1.255 . S
O341 Fe330 1.976 . S
O341 C348 1.287 . S
O342 Fe331 1.996 . S
O342 C348 1.255 . S
O343 Fe333 1.976 . S
O343 C338 1.287 . S
O344 Fe330 1.996 . S
O344 C338 1.255 . S
C345 O349 1.295 . S
C345 O350 1.235 . S
O346 Fe331 1.976 . S
O346 C340 1.287 . S
O347 Fe333 1.996 . S
O347 C340 1.255 . S
C348 O341 1.287 . S
C348 O342 1.255 . S
O349 Fe331 2.002 . S
O349 C345 1.295 . S
O350 Fe333 1.997 . S
O350 C345 1.235 . S
C351 O334 1.295 . S
C351 O335 1.235 . S
Fe352 O354 1.918 . S
Fe352 O357 1.997 . S
Fe352 O358 2.002 . S
Fe352 O363 1.976 . S
Fe352 O366 1.996 . S
Fe353 O354 1.918 . S
Fe353 O361 1.997 . S
Fe353 O364 1.996 . S
Fe353 O368 1.976 . S
Fe353 O371 2.002 . S
O354 Fe352 1.918 . S
O354 Fe353 1.918 . S
O354 Fe355 1.918 . S
Fe355 O354 1.918 . S
Fe355 O356 2.002 . S
Fe355 O365 1.976 . S
Fe355 O369 1.996 . S
Fe355 O372 1.997 . S
O356 Fe355 2.002 . S
O356 C373 1.295 . S
O357 Fe352 1.997 . S
O357 C373 1.235 . S
O358 Fe352 2.002 . S
O358 C359 1.295 . S
C359 O358 1.295 . S
C359 O361 1.235 . S
C360 O365 1.287 . S
C360 O366 1.255 . S
O361 Fe353 1.997 . S
O361 C359 1.235 . S
C362 O368 1.287 . S
C362 O369 1.255 . S
O363 Fe352 1.976 . S
O363 C370 1.287 . S
O364 Fe353 1.996 . S
O364 C370 1.255 . S
O365 Fe355 1.976 . S
O365 C360 1.287 . S
O366 Fe352 1.996 . S
O366 C360 1.255 . S
C367 O371 1.295 . S
C367 O372 1.235 . S
O368 Fe353 1.976 . S
O368 C362 1.287 . S
O369 Fe355 1.996 . S
O369 C362 1.255 . S
C370 O363 1.287 . S
C370 O364 1.255 . S
O371 Fe353 2.002 . S
O371 C367 1.295 . S
O372 Fe355 1.997 . S
O372 C367 1.235 . S
C373 O356 1.295 . S
C373 O357 1.235 . S
Fe374 O376 1.918 . S
Fe374 O379 1.997 . S
Fe374 O380 2.002 . S
Fe374 O385 1.976 . S
Fe374 O388 1.996 . S
Fe375 O376 1.918 . S
Fe375 O383 1.997 . S
Fe375 O386 1.996 . S
Fe375 O390 1.976 . S
Fe375 O393 2.002 . S
O376 Fe374 1.918 . S
O376 Fe375 1.918 . S
O376 Fe377 1.918 . S
Fe377 O376 1.918 . S
Fe377 O378 2.002 . S
Fe377 O387 1.976 . S
Fe377 O391 1.996 . S
Fe377 O394 1.997 . S
O378 Fe377 2.002 . S
O378 C395 1.295 . S
O379 Fe374 1.997 . S
O379 C395 1.235 . S
O380 Fe374 2.002 . S
O380 C381 1.295 . S
C381 O380 1.295 . S
C381 O383 1.235 . S
C382 O387 1.287 . S
C382 O388 1.255 . S
O383 Fe375 1.997 . S
O383 C381 1.235 . S
C384 O390 1.287 . S
C384 O391 1.255 . S
O385 Fe374 1.976 . S
O385 C392 1.287 . S
O386 Fe375 1.996 . S
O386 C392 1.255 . S
O387 Fe377 1.976 . S
O387 C382 1.287 . S
O388 Fe374 1.996 . S
O388 C382 1.255 . S
C389 O393 1.295 . S
C389 O394 1.235 . S
O390 Fe375 1.976 . S
O390 C384 1.287 . S
O391 Fe377 1.996 . S
O391 C384 1.255 . S
C392 O385 1.287 . S
C392 O386 1.255 . S
O393 Fe375 2.002 . S
O393 C389 1.295 . S
O394 Fe377 1.997 . S
O394 C389 1.235 . S
C395 O378 1.295 . S
C395 O379 1.235 . S
Fe396 O398 1.918 . S
Fe396 O401 1.997 . S
Fe396 O402 2.002 . S
Fe396 O407 1.976 . S
Fe396 O410 1.996 . S
Fe397 O398 1.918 . S
Fe397 O405 1.997 . S
Fe397 O408 1.996 . S
Fe397 O412 1.976 . S
Fe397 O415 2.002 . S
O398 Fe396 1.918 . S
O398 Fe397 1.918 . S
O398 Fe399 1.918 . S
Fe399 O398 1.918 . S
Fe399 O400 2.002 . S
Fe399 O409 1.976 . S
Fe399 O413 1.996 . S
Fe399 O416 1.997 . S
O400 Fe399 2.002 . S
O400 C417 1.295 . S
O401 Fe396 1.997 . S
O401 C417 1.235 . S
O402 Fe396 2.002 . S
O402 C403 1.295 . S
C403 O402 1.295 . S
C403 O405 1.235 . S
C404 O409 1.287 . S
C404 O410 1.255 . S
O405 Fe397 1.997 . S
O405 C403 1.235 . S
C406 O412 1.287 . S
C406 O413 1.255 . S
O407 Fe396 1.976 . S
O407 C414 1.287 . S
O408 Fe397 1.996 . S
O408 C414 1.255 . S
O409 Fe399 1.976 . S
O409 C404 1.287 . S
O410 Fe396 1.996 . S
O410 C404 1.255 . S
C411 O415 1.295 . S
C411 O416 1.235 . S
O412 Fe397 1.976 . S
O412 C406 1.287 . S
O413 Fe399 1.996 . S
O413 C406 1.255 . S
C414 O407 1.287 . S
C414 O408 1.255 . S
O415 Fe397 2.002 . S
O415 C411 1.295 . S
O416 Fe399 1.997 . S
O416 C411 1.235 . S
C417 O400 1.295 . S
C417 O401 1.235 . S
Fe418 O420 1.918 . S
Fe418 O423 1.997 . S
Fe418 O424 2.002 . S
Fe418 O429 1.976 . S
Fe418 O432 1.996 . S
Fe419 O420 1.918 . S
Fe419 O427 1.997 . S
Fe419 O430 1.996 . S
Fe419 O434 1.976 . S
Fe419 O437 2.002 . S
O420 Fe418 1.918 . S
O420 Fe419 1.918 . S
O420 Fe421 1.918 . S
Fe421 O420 1.918 . S
Fe421 O422 2.002 . S
Fe421 O431 1.976 . S
Fe421 O435 1.996 . S
Fe421 O438 1.997 . S
O422 Fe421 2.002 . S
O422 C439 1.295 . S
O423 Fe418 1.997 . S
O423 C439 1.235 . S
O424 Fe418 2.002 . S
O424 C425 1.295 . S
C425 O424 1.295 . S
C425 O427 1.235 . S
C426 O431 1.287 . S
C426 O432 1.255 . S
O427 Fe419 1.997 . S
O427 C425 1.235 . S
C428 O434 1.287 . S
C428 O435 1.255 . S
O429 Fe418 1.976 . S
O429 C436 1.287 . S
O430 Fe419 1.996 . S
O430 C436 1.255 . S
O431 Fe421 1.976 . S
O431 C426 1.287 . S
O432 Fe418 1.996 . S
O432 C426 1.255 . S
C433 O437 1.295 . S
C433 O438 1.235 . S
O434 Fe419 1.976 . S
O434 C428 1.287 . S
O435 Fe421 1.996 . S
O435 C428 1.255 . S
C436 O429 1.287 . S
C436 O430 1.255 . S
O437 Fe419 2.002 . S
O437 C433 1.295 . S
O438 Fe421 1.997 . S
O438 C433 1.235 . S
C439 O422 1.295 . S
C439 O423 1.235 . S
Fe440 O442 1.918 . S
Fe440 O445 1.997 . S
Fe440 O446 2.002 . S
Fe440 O451 1.976 . S
Fe440 O454 1.996 . S
Fe441 O442 1.918 . S
Fe441 O449 1.997 . S
Fe441 O452 1.996 . S
Fe441 O456 1.976 . S
Fe441 O459 2.002 . S
O442 Fe440 1.918 . S
O442 Fe441 1.918 . S
O442 Fe443 1.918 . S
Fe443 O442 1.918 . S
Fe443 O444 2.002 . S
Fe443 O453 1.976 . S
Fe443 O457 1.996 . S
Fe443 O460 1.997 . S
O444 Fe443 2.002 . S
O444 C461 1.295 . S
O445 Fe440 1.997 . S
O445 C461 1.235 . S
O446 Fe440 2.002 . S
O446 C447 1.295 . S
C447 O446 1.295 . S
C447 O449 1.235 . S
C448 O453 1.287 . S
C448 O454 1.255 . S
O449 Fe441 1.997 . S
O449 C447 1.235 . S
C450 O456 1.287 . S
C450 O457 1.255 . S
O451 Fe440 1.976 . S
O451 C458 1.287 . S
O452 Fe441 1.996 . S
O452 C458 1.255 . S
O453 Fe443 1.976 . S
O453 C448 1.287 . S
O454 Fe440 1.996 . S
O454 C448 1.255 . S
C455 O459 1.295 . S
C455 O460 1.235 . S
O456 Fe441 1.976 . S
O456 C450 1.287 . S
O457 Fe443 1.996 . S
O457 C450 1.255 . S
C458 O451 1.287 . S
C458 O452 1.255 . S
O459 Fe441 2.002 . S
O459 C455 1.295 . S
O460 Fe443 1.997 . S
O460 C455 1.235 . S
C461 O444 1.295 . S
C461 O445 1.235 . S
Fe462 O464 1.918 1_554 S
Fe462 O467 1.997 . S
Fe462 O468 2.002 . S
Fe462 O473 1.976 . S
Fe462 O476 1.996 . S
Fe463 O464 1.918 . S
Fe463 O471 1.997 . S
Fe463 O474 1.996 . S
Fe463 O478 1.976 . S
Fe463 O481 2.002 . S
O464 Fe462 1.918 1_556 S
O464 Fe463 1.918 . S
O464 Fe465 1.918 . S
Fe465 O464 1.918 . S
Fe465 O466 2.002 . S
Fe465 O475 1.976 . S
Fe465 O479 1.996 . S
Fe465 O482 1.997 . S
O466 Fe465 2.002 . S
O466 C483 1.295 . S
O467 Fe462 1.997 . S
O467 C483 1.235 1_554 S
O468 Fe462 2.002 . S
O468 C469 1.295 1_554 S
C469 O468 1.295 1_556 S
C469 O471 1.235 . S
C470 O475 1.287 . S
C470 O476 1.255 1_556 S
O471 Fe463 1.997 . S
O471 C469 1.235 . S
C472 O478 1.287 . S
C472 O479 1.255 . S
O473 Fe462 1.976 . S
O473 C480 1.287 1_554 S
O474 Fe463 1.996 . S
O474 C480 1.255 . S
O475 Fe465 1.976 . S
O475 C470 1.287 . S
O476 Fe462 1.996 . S
O476 C470 1.255 1_554 S
C477 O481 1.295 . S
C477 O482 1.235 . S
O478 Fe463 1.976 . S
O478 C472 1.287 . S
O479 Fe465 1.996 . S
O479 C472 1.255 . S
C480 O473 1.287 1_556 S
C480 O474 1.255 . S
O481 Fe463 2.002 . S
O481 C477 1.295 . S
O482 Fe465 1.997 . S
O482 C477 1.235 . S
C483 O466 1.295 . S
C483 O467 1.235 1_556 S
Fe484 O486 1.918 . S
Fe484 O489 1.997 . S
Fe484 O490 2.002 . S
Fe484 O495 1.976 . S
Fe484 O498 1.996 . S
Fe485 O486 1.918 1_554 S
Fe485 O493 1.997 . S
Fe485 O496 1.996 . S
Fe485 O500 1.976 . S
Fe485 O503 2.002 . S
O486 Fe484 1.918 . S
O486 Fe485 1.918 1_556 S
O486 Fe487 1.918 . S
Fe487 O486 1.918 . S
Fe487 O488 2.002 . S
Fe487 O497 1.976 . S
Fe487 O501 1.996 . S
Fe487 O504 1.997 . S
O488 Fe487 2.002 . S
O488 C505 1.295 . S
O489 Fe484 1.997 . S
O489 C505 1.235 . S
O490 Fe484 2.002 . S
O490 C491 1.295 . S
C491 O490 1.295 . S
C491 O493 1.235 1_556 S
C492 O497 1.287 . S
C492 O498 1.255 . S
O493 Fe485 1.997 . S
O493 C491 1.235 1_554 S
C494 O500 1.287 1_556 S
C494 O501 1.255 . S
O495 Fe484 1.976 . S
O495 C502 1.287 . S
O496 Fe485 1.996 . S
O496 C502 1.255 1_554 S
O497 Fe487 1.976 . S
O497 C492 1.287 . S
O498 Fe484 1.996 . S
O498 C492 1.255 . S
C499 O503 1.295 1_556 S
C499 O504 1.235 . S
O500 Fe485 1.976 . S
O500 C494 1.287 1_554 S
O501 Fe487 1.996 . S
O501 C494 1.255 . S
C502 O495 1.287 . S
C502 O496 1.255 1_556 S
O503 Fe485 2.002 . S
O503 C499 1.295 1_554 S
O504 Fe487 1.997 . S
O504 C499 1.235 . S
C505 O488 1.295 . S
C505 O489 1.235 . S
Fe506 O508 1.918 1_554 S
Fe506 O511 1.997 . S
Fe506 O512 2.002 . S
Fe506 O517 1.976 . S
Fe506 O520 1.996 . S
Fe507 O508 1.918 . S
Fe507 O515 1.997 . S
Fe507 O518 1.996 . S
Fe507 O522 1.976 . S
Fe507 O525 2.002 . S
O508 Fe506 1.918 1_556 S
O508 Fe507 1.918 . S
O508 Fe509 1.918 . S
Fe509 O508 1.918 . S
Fe509 O510 2.002 . S
Fe509 O519 1.976 . S
Fe509 O523 1.996 . S
Fe509 O526 1.997 . S
O510 Fe509 2.002 . S
O510 C527 1.295 . S
O511 Fe506 1.997 . S
O511 C527 1.235 1_554 S
O512 Fe506 2.002 . S
O512 C513 1.295 1_554 S
C513 O512 1.295 1_556 S
C513 O515 1.235 . S
C514 O519 1.287 . S
C514 O520 1.255 1_556 S
O515 Fe507 1.997 . S
O515 C513 1.235 . S
C516 O522 1.287 . S
C516 O523 1.255 . S
O517 Fe506 1.976 . S
O517 C524 1.287 1_554 S
O518 Fe507 1.996 . S
O518 C524 1.255 . S
O519 Fe509 1.976 . S
O519 C514 1.287 . S
O520 Fe506 1.996 . S
O520 C514 1.255 1_554 S
C521 O525 1.295 . S
C521 O526 1.235 . S
O522 Fe507 1.976 . S
O522 C516 1.287 . S
O523 Fe509 1.996 . S
O523 C516 1.255 . S
C524 O517 1.287 1_556 S
C524 O518 1.255 . S
O525 Fe507 2.002 . S
O525 C521 1.295 . S
O526 Fe509 1.997 . S
O526 C521 1.235 . S
C527 O510 1.295 . S
C527 O511 1.235 1_556 S
Fe528 O530 1.918 . S
Fe528 O533 1.997 . S
Fe528 O534 2.002 . S
Fe528 O539 1.976 . S
Fe528 O542 1.996 . S
Fe529 O530 1.918 . S
Fe529 O537 1.997 . S
Fe529 O540 1.996 . S
Fe529 O544 1.976 . S
Fe529 O547 2.002 . S
O530 Fe528 1.918 . S
O530 Fe529 1.918 . S
O530 Fe531 1.918 . S
Fe531 O530 1.918 . S
Fe531 O532 2.002 . S
Fe531 O541 1.976 . S
Fe531 O545 1.996 . S
Fe531 O548 1.997 . S
O532 Fe531 2.002 . S
O532 C549 1.295 . S
O533 Fe528 1.997 . S
O533 C549 1.235 . S
O534 Fe528 2.002 . S
O534 C535 1.295 . S
C535 O534 1.295 . S
C535 O537 1.235 . S
C536 O541 1.287 . S
C536 O542 1.255 . S
O537 Fe529 1.997 . S
O537 C535 1.235 . S
C538 O544 1.287 . S
C538 O545 1.255 . S
O539 Fe528 1.976 . S
O539 C546 1.287 . S
O540 Fe529 1.996 . S
O540 C546 1.255 . S
O541 Fe531 1.976 . S
O541 C536 1.287 . S
O542 Fe528 1.996 . S
O542 C536 1.255 . S
C543 O547 1.295 . S
C543 O548 1.235 . S
O544 Fe529 1.976 . S
O544 C538 1.287 . S
O545 Fe531 1.996 . S
O545 C538 1.255 . S
C546 O539 1.287 . S
C546 O540 1.255 . S
O547 Fe529 2.002 . S
O547 C543 1.295 . S
O548 Fe531 1.997 . S
O548 C543 1.235 . S
C549 O532 1.295 . S
C549 O533 1.235 . S
Fe550 O552 1.918 . S
Fe550 O555 1.997 . S
Fe550 O556 2.002 . S
Fe550 O561 1.976 . S
Fe550 O564 1.996 . S
Fe551 O552 1.918 . S
Fe551 O559 1.997 . S
Fe551 O562 1.996 . S
Fe551 O566 1.976 . S
Fe551 O569 2.002 . S
O552 Fe550 1.918 . S
O552 Fe551 1.918 . S
O552 Fe553 1.918 . S
Fe553 O552 1.918 . S
Fe553 O554 2.002 . S
Fe553 O563 1.976 . S
Fe553 O567 1.996 . S
Fe553 O570 1.997 . S
O554 Fe553 2.002 . S
O554 C571 1.295 . S
O555 Fe550 1.997 . S
O555 C571 1.235 . S
O556 Fe550 2.002 . S
O556 C557 1.295 . S
C557 O556 1.295 . S
C557 O559 1.235 . S
C558 O563 1.287 . S
C558 O564 1.255 . S
O559 Fe551 1.997 . S
O559 C557 1.235 . S
C560 O566 1.287 . S
C560 O567 1.255 . S
O561 Fe550 1.976 . S
O561 C568 1.287 . S
O562 Fe551 1.996 . S
O562 C568 1.255 . S
O563 Fe553 1.976 . S
O563 C558 1.287 . S
O564 Fe550 1.996 . S
O564 C558 1.255 . S
C565 O569 1.295 . S
C565 O570 1.235 . S
O566 Fe551 1.976 . S
O566 C560 1.287 . S
O567 Fe553 1.996 . S
O567 C560 1.255 . S
C568 O561 1.287 . S
C568 O562 1.255 . S
O569 Fe551 2.002 . S
O569 C565 1.295 . S
O570 Fe553 1.997 . S
O570 C565 1.235 . S
C571 O554 1.295 . S
C571 O555 1.235 . S
Fe572 O574 1.918 . S
Fe572 O577 1.997 . S
Fe572 O578 2.002 . S
Fe572 O583 1.976 . S
Fe572 O586 1.996 . S
Fe573 O574 1.918 . S
Fe573 O581 1.997 . S
Fe573 O584 1.996 . S
Fe573 O588 1.976 . S
Fe573 O591 2.002 . S
O574 Fe572 1.918 . S
O574 Fe573 1.918 . S
O574 Fe575 1.918 . S
Fe575 O574 1.918 . S
Fe575 O576 2.002 . S
Fe575 O585 1.976 . S
Fe575 O589 1.996 . S
Fe575 O592 1.997 . S
O576 Fe575 2.002 . S
O576 C593 1.295 . S
O577 Fe572 1.997 . S
O577 C593 1.235 . S
O578 Fe572 2.002 . S
O578 C579 1.295 . S
C579 O578 1.295 . S
C579 O581 1.235 . S
C580 O585 1.287 . S
C580 O586 1.255 . S
O581 Fe573 1.997 . S
O581 C579 1.235 . S
C582 O588 1.287 . S
C582 O589 1.255 . S
O583 Fe572 1.976 . S
O583 C590 1.287 . S
O584 Fe573 1.996 . S
O584 C590 1.255 . S
O585 Fe575 1.976 . S
O585 C580 1.287 . S
O586 Fe572 1.996 . S
O586 C580 1.255 . S
C587 O591 1.295 . S
C587 O592 1.235 . S
O588 Fe573 1.976 . S
O588 C582 1.287 . S
O589 Fe575 1.996 . S
O589 C582 1.255 . S
C590 O583 1.287 . S
C590 O584 1.255 . S
O591 Fe573 2.002 . S
O591 C587 1.295 . S
O592 Fe575 1.997 . S
O592 C587 1.235 . S
C593 O576 1.295 . S
C593 O577 1.235 . S
Fe594 O596 1.918 1_556 S
Fe594 O599 1.997 . S
Fe594 O600 2.002 . S
Fe594 O605 1.976 . S
Fe594 O608 1.996 . S
Fe595 O596 1.918 . S
Fe595 O603 1.997 . S
Fe595 O606 1.996 . S
Fe595 O610 1.976 . S
Fe595 O613 2.002 . S
O596 Fe594 1.918 1_554 S
O596 Fe595 1.918 . S
O596 Fe597 1.918 . S
Fe597 O596 1.918 . S
Fe597 O598 2.002 . S
Fe597 O607 1.976 . S
Fe597 O611 1.996 . S
Fe597 O614 1.997 . S
O598 Fe597 2.002 . S
O598 C615 1.295 . S
O599 Fe594 1.997 . S
O599 C615 1.235 1_556 S
O600 Fe594 2.002 . S
O600 C601 1.295 1_556 S
C601 O600 1.295 1_554 S
C601 O603 1.235 . S
C602 O607 1.287 . S
C602 O608 1.255 1_554 S
O603 Fe595 1.997 . S
O603 C601 1.235 . S
C604 O610 1.287 . S
C604 O611 1.255 . S
O605 Fe594 1.976 . S
O605 C612 1.287 1_556 S
O606 Fe595 1.996 . S
O606 C612 1.255 . S
O607 Fe597 1.976 . S
O607 C602 1.287 . S
O608 Fe594 1.996 . S
O608 C602 1.255 1_556 S
C609 O613 1.295 . S
C609 O614 1.235 . S
O610 Fe595 1.976 . S
O610 C604 1.287 . S
O611 Fe597 1.996 . S
O611 C604 1.255 . S
C612 O605 1.287 1_554 S
C612 O606 1.255 . S
O613 Fe595 2.002 . S
O613 C609 1.295 . S
O614 Fe597 1.997 . S
O614 C609 1.235 . S
C615 O598 1.295 . S
C615 O599 1.235 1_554 S
Fe616 O618 1.918 . S
Fe616 O621 1.997 . S
Fe616 O622 2.002 . S
Fe616 O627 1.976 . S
Fe616 O630 1.996 . S
Fe617 O618 1.918 . S
Fe617 O625 1.997 . S
Fe617 O628 1.996 . S
Fe617 O632 1.976 . S
Fe617 O635 2.002 . S
O618 Fe616 1.918 . S
O618 Fe617 1.918 . S
O618 Fe619 1.918 1_554 S
Fe619 O618 1.918 1_556 S
Fe619 O620 2.002 . S
Fe619 O629 1.976 . S
Fe619 O633 1.996 . S
Fe619 O636 1.997 . S
O620 Fe619 2.002 . S
O620 C637 1.295 1_556 S
O621 Fe616 1.997 . S
O621 C637 1.235 . S
O622 Fe616 2.002 . S
O622 C623 1.295 . S
C623 O622 1.295 . S
C623 O625 1.235 . S
C624 O629 1.287 1_554 S
C624 O630 1.255 . S
O625 Fe617 1.997 . S
O625 C623 1.235 . S
C626 O632 1.287 . S
C626 O633 1.255 1_554 S
O627 Fe616 1.976 . S
O627 C634 1.287 . S
O628 Fe617 1.996 . S
O628 C634 1.255 . S
O629 Fe619 1.976 . S
O629 C624 1.287 1_556 S
O630 Fe616 1.996 . S
O630 C624 1.255 . S
C631 O635 1.295 . S
C631 O636 1.235 1_554 S
O632 Fe617 1.976 . S
O632 C626 1.287 . S
O633 Fe619 1.996 . S
O633 C626 1.255 1_556 S
C634 O627 1.287 . S
C634 O628 1.255 . S
O635 Fe617 2.002 . S
O635 C631 1.295 . S
O636 Fe619 1.997 . S
O636 C631 1.235 1_556 S
C637 O620 1.295 1_554 S
C637 O621 1.235 . S
Fe638 O640 1.918 . S
Fe638 O643 1.997 . S
Fe638 O644 2.002 . S
Fe638 O649 1.976 . S
Fe638 O652 1.996 . S
Fe639 O640 1.918 1_556 S
Fe639 O647 1.997 . S
Fe639 O650 1.996 . S
Fe639 O654 1.976 . S
Fe639 O657 2.002 . S
O640 Fe638 1.918 . S
O640 Fe639 1.918 1_554 S
O640 Fe641 1.918 . S
Fe641 O640 1.918 . S
Fe641 O642 2.002 . S
Fe641 O651 1.976 . S
Fe641 O655 1.996 . S
Fe641 O658 1.997 . S
O642 Fe641 2.002 . S
O642 C659 1.295 . S
O643 Fe638 1.997 . S
O643 C659 1.235 . S
O644 Fe638 2.002 . S
O644 C645 1.295 . S
C645 O644 1.295 . S
C645 O647 1.235 1_554 S
C646 O651 1.287 . S
C646 O652 1.255 . S
O647 Fe639 1.997 . S
O647 C645 1.235 1_556 S
C648 O654 1.287 1_554 S
C648 O655 1.255 . S
O649 Fe638 1.976 . S
O649 C656 1.287 . S
O650 Fe639 1.996 . S
O650 C656 1.255 1_556 S
O651 Fe641 1.976 . S
O651 C646 1.287 . S
O652 Fe638 1.996 . S
O652 C646 1.255 . S
C653 O657 1.295 1_554 S
C653 O658 1.235 . S
O654 Fe639 1.976 . S
O654 C648 1.287 1_556 S
O655 Fe641 1.996 . S
O655 C648 1.255 . S
C656 O649 1.287 . S
C656 O650 1.255 1_554 S
O657 Fe639 2.002 . S
O657 C653 1.295 1_556 S
O658 Fe641 1.997 . S
O658 C653 1.235 . S
C659 O642 1.295 . S
C659 O643 1.235 . S
Fe660 O662 1.918 . S
Fe660 O665 1.997 . S
Fe660 O666 2.002 . S
Fe660 O671 1.976 . S
Fe660 O674 1.996 . S
Fe661 O662 1.918 . S
Fe661 O669 1.997 . S
Fe661 O672 1.996 . S
Fe661 O676 1.976 . S
Fe661 O679 2.002 . S
O662 Fe660 1.918 . S
O662 Fe661 1.918 . S
O662 Fe663 1.918 . S
Fe663 O662 1.918 . S
Fe663 O664 2.002 . S
Fe663 O673 1.976 . S
Fe663 O677 1.996 . S
Fe663 O680 1.997 . S
O664 Fe663 2.002 . S
O664 C681 1.295 . S
O665 Fe660 1.997 . S
O665 C681 1.235 . S
O666 Fe660 2.002 . S
O666 C667 1.295 . S
C667 O666 1.295 . S
C667 O669 1.235 . S
C668 O673 1.287 . S
C668 O674 1.255 . S
O669 Fe661 1.997 . S
O669 C667 1.235 . S
C670 O676 1.287 . S
C670 O677 1.255 . S
O671 Fe660 1.976 . S
O671 C678 1.287 . S
O672 Fe661 1.996 . S
O672 C678 1.255 . S
O673 Fe663 1.976 . S
O673 C668 1.287 . S
O674 Fe660 1.996 . S
O674 C668 1.255 . S
C675 O679 1.295 . S
C675 O680 1.235 . S
O676 Fe661 1.976 . S
O676 C670 1.287 . S
O677 Fe663 1.996 . S
O677 C670 1.255 . S
C678 O671 1.287 . S
C678 O672 1.255 . S
O679 Fe661 2.002 . S
O679 C675 1.295 . S
O680 Fe663 1.997 . S
O680 C675 1.235 . S
C681 O664 1.295 . S
C681 O665 1.235 . S
Fe682 O684 1.918 . S
Fe682 O687 1.997 . S
Fe682 O688 2.002 . S
Fe682 O693 1.976 . S
Fe682 O696 1.996 . S
Fe683 O684 1.918 . S
Fe683 O691 1.997 . S
Fe683 O694 1.996 . S
Fe683 O698 1.976 . S
Fe683 O701 2.002 . S
O684 Fe682 1.918 . S
O684 Fe683 1.918 . S
O684 Fe685 1.918 . S
Fe685 O684 1.918 . S
Fe685 O686 2.002 . S
Fe685 O695 1.976 . S
Fe685 O699 1.996 . S
Fe685 O702 1.997 . S
O686 Fe685 2.002 . S
O686 C703 1.295 . S
O687 Fe682 1.997 . S
O687 C703 1.235 . S
O688 Fe682 2.002 . S
O688 C689 1.295 . S
C689 O688 1.295 . S
C689 O691 1.235 . S
C690 O695 1.287 . S
C690 O696 1.255 . S
O691 Fe683 1.997 . S
O691 C689 1.235 . S
C692 O698 1.287 . S
C692 O699 1.255 . S
O693 Fe682 1.976 . S
O693 C700 1.287 . S
O694 Fe683 1.996 . S
O694 C700 1.255 . S
O695 Fe685 1.976 . S
O695 C690 1.287 . S
O696 Fe682 1.996 . S
O696 C690 1.255 . S
C697 O701 1.295 . S
C697 O702 1.235 . S
O698 Fe683 1.976 . S
O698 C692 1.287 . S
O699 Fe685 1.996 . S
O699 C692 1.255 . S
C700 O693 1.287 . S
C700 O694 1.255 . S
O701 Fe683 2.002 . S
O701 C697 1.295 . S
O702 Fe685 1.997 . S
O702 C697 1.235 . S
C703 O686 1.295 . S
C703 O687 1.235 . S
Fe704 O706 1.918 . S
Fe704 O709 1.997 . S
Fe704 O710 2.002 . S
Fe704 O715 1.976 . S
Fe704 O718 1.996 . S
Fe705 O706 1.918 . S
Fe705 O713 1.997 . S
Fe705 O716 1.996 . S
Fe705 O720 1.976 . S
Fe705 O723 2.002 . S
O706 Fe704 1.918 . S
O706 Fe705 1.918 . S
O706 Fe707 1.918 . S
Fe707 O706 1.918 . S
Fe707 O708 2.002 . S
Fe707 O717 1.976 . S
Fe707 O721 1.996 . S
Fe707 O724 1.997 . S
O708 Fe707 2.002 . S
O708 C725 1.295 . S
O709 Fe704 1.997 . S
O709 C725 1.235 . S
O710 Fe704 2.002 . S
O710 C711 1.295 . S
C711 O710 1.295 . S
C711 O713 1.235 . S
C712 O717 1.287 . S
C712 O718 1.255 . S
O713 Fe705 1.997 . S
O713 C711 1.235 . S
C714 O720 1.287 . S
C714 O721 1.255 . S
O715 Fe704 1.976 . S
O715 C722 1.287 . S
O716 Fe705 1.996 . S
O716 C722 1.255 . S
O717 Fe707 1.976 . S
O717 C712 1.287 . S
O718 Fe704 1.996 . S
O718 C712 1.255 . S
C719 O723 1.295 . S
C719 O724 1.235 . S
O720 Fe705 1.976 . S
O720 C714 1.287 . S
O721 Fe707 1.996 . S
O721 C714 1.255 . S
C722 O715 1.287 . S
C722 O716 1.255 . S
O723 Fe705 2.002 . S
O723 C719 1.295 . S
O724 Fe707 1.997 . S
O724 C719 1.235 . S
C725 O708 1.295 . S
C725 O709 1.235 . S
Fe726 O728 1.918 . S
Fe726 O731 1.997 . S
Fe726 O732 2.002 . S
Fe726 O737 1.976 . S
Fe726 O740 1.996 . S
Fe727 O728 1.918 . S
Fe727 O735 1.997 . S
Fe727 O738 1.996 . S
Fe727 O742 1.976 . S
Fe727 O745 2.002 . S
O728 Fe726 1.918 . S
O728 Fe727 1.918 . S
O728 Fe729 1.918 . S
Fe729 O728 1.918 . S
Fe729 O730 2.002 . S
Fe729 O739 1.976 . S
Fe729 O743 1.996 . S
Fe729 O746 1.997 . S
O730 Fe729 2.002 . S
O730 C747 1.295 . S
O731 Fe726 1.997 . S
O731 C747 1.235 . S
O732 Fe726 2.002 . S
O732 C733 1.295 . S
C733 O732 1.295 . S
C733 O735 1.235 . S
C734 O739 1.287 . S
C734 O740 1.255 . S
O735 Fe727 1.997 . S
O735 C733 1.235 . S
C736 O742 1.287 . S
C736 O743 1.255 . S
O737 Fe726 1.976 . S
O737 C744 1.287 . S
O738 Fe727 1.996 . S
O738 C744 1.255 . S
O739 Fe729 1.976 . S
O739 C734 1.287 . S
O740 Fe726 1.996 . S
O740 C734 1.255 . S
C741 O745 1.295 . S
C741 O746 1.235 . S
O742 Fe727 1.976 . S
O742 C736 1.287 . S
O743 Fe729 1.996 . S
O743 C736 1.255 . S
C744 O737 1.287 . S
C744 O738 1.255 . S
O745 Fe727 2.002 . S
O745 C741 1.295 . S
O746 Fe729 1.997 . S
O746 C741 1.235 . S
C747 O730 1.295 . S
C747 O731 1.235 . S
Fe748 O750 1.918 . S
Fe748 O753 1.997 . S
Fe748 O754 2.002 . S
Fe748 O759 1.976 . S
Fe748 O762 1.996 . S
Fe749 O750 1.918 . S
Fe749 O757 1.997 . S
Fe749 O760 1.996 . S
Fe749 O764 1.976 . S
Fe749 O767 2.002 . S
O750 Fe748 1.918 . S
O750 Fe749 1.918 . S
O750 Fe751 1.918 . S
Fe751 O750 1.918 . S
Fe751 O752 2.002 . S
Fe751 O761 1.976 . S
Fe751 O765 1.996 . S
Fe751 O768 1.997 . S
O752 Fe751 2.002 . S
O752 C769 1.295 . S
O753 Fe748 1.997 . S
O753 C769 1.235 . S
O754 Fe748 2.002 . S
O754 C755 1.295 . S
C755 O754 1.295 . S
C755 O757 1.235 . S
C756 O761 1.287 . S
C756 O762 1.255 . S
O757 Fe749 1.997 . S
O757 C755 1.235 . S
C758 O764 1.287 . S
C758 O765 1.255 . S
O759 Fe748 1.976 . S
O759 C766 1.287 . S
O760 Fe749 1.996 . S
O760 C766 1.255 . S
O761 Fe751 1.976 . S
O761 C756 1.287 . S
O762 Fe748 1.996 . S
O762 C756 1.255 . S
C763 O767 1.295 . S
C763 O768 1.235 . S
O764 Fe749 1.976 . S
O764 C758 1.287 . S
O765 Fe751 1.996 . S
O765 C758 1.255 . S
C766 O759 1.287 . S
C766 O760 1.255 . S
O767 Fe749 2.002 . S
O767 C763 1.295 . S
O768 Fe751 1.997 . S
O768 C763 1.235 . S
C769 O752 1.295 . S
C769 O753 1.235 . S
Fe770 O772 1.918 . S
Fe770 O775 1.997 . S
Fe770 O776 2.002 . S
Fe770 O781 1.976 . S
Fe770 O784 1.996 . S
Fe771 O772 1.918 . S
Fe771 O779 1.997 . S
Fe771 O782 1.996 . S
Fe771 O786 1.976 . S
Fe771 O789 2.002 . S
O772 Fe770 1.918 . S
O772 Fe771 1.918 . S
O772 Fe773 1.918 . S
Fe773 O772 1.918 . S
Fe773 O774 2.002 . S
Fe773 O783 1.976 . S
Fe773 O787 1.996 . S
Fe773 O790 1.997 . S
O774 Fe773 2.002 . S
O774 C791 1.295 . S
O775 Fe770 1.997 . S
O775 C791 1.235 . S
O776 Fe770 2.002 . S
O776 C777 1.295 . S
C777 O776 1.295 . S
C777 O779 1.235 . S
C778 O783 1.287 . S
C778 O784 1.255 . S
O779 Fe771 1.997 . S
O779 C777 1.235 . S
C780 O786 1.287 . S
C780 O787 1.255 . S
O781 Fe770 1.976 . S
O781 C788 1.287 . S
O782 Fe771 1.996 . S
O782 C788 1.255 . S
O783 Fe773 1.976 . S
O783 C778 1.287 . S
O784 Fe770 1.996 . S
O784 C778 1.255 . S
C785 O789 1.295 . S
C785 O790 1.235 . S
O786 Fe771 1.976 . S
O786 C780 1.287 . S
O787 Fe773 1.996 . S
O787 C780 1.255 . S
C788 O781 1.287 . S
C788 O782 1.255 . S
O789 Fe771 2.002 . S
O789 C785 1.295 . S
O790 Fe773 1.997 . S
O790 C785 1.235 . S
C791 O774 1.295 . S
C791 O775 1.235 . S
C169 C10 0.965 1_556 S
C183 C32 0.964 1_556 S
C139 C52 0.964 1_556 S
C84 C257 0.965 . S
C219 C98 0.964 . S
C120 C235 0.964 . S
C37 C150 0.965 1_554 S
C65 C164 0.964 1_554 S
C15 C194 0.964 1_554 S
C206 C125 0.965 . S
C230 C73 0.964 . S
C103 C252 0.964 . S
C274 C433 0.965 . S
C455 C294 0.964 . S
C316 C403 0.964 . S
C348 C521 0.965 . S
C362 C477 0.964 . S
C505 C384 0.964 . S
C307 C414 0.965 . S
C329 C428 0.964 . S
C279 C450 0.964 . S
C472 C389 0.965 . S
C492 C337 0.964 . S
C367 C516 0.964 . S
C538 C689 0.965 . S
C558 C719 0.964 . S
C582 C667 0.964 . S
C785 C604 0.965 . S
C634 C741 0.964 . S
C646 C763 0.964 . S
C571 C678 0.965 . S
C587 C700 0.964 . S
C543 C714 0.964 . S
C736 C659 0.965 . S
C758 C609 0.964 . S
C780 C623 0.964 . S
C8 C406 1.552 . S
C426 C30 1.552 . S
C62 C448 1.552 . S
C734 C76 1.552 . S
C96 C756 1.552 . S
C778 C118 1.552 . S
C536 C142 1.552 . S
C162 C568 1.552 . S
C186 C580 1.552 . S
C340 C216 1.552 . S
C228 C360 1.552 . S
C382 C250 1.552 . S
C272 C670 1.552 1_655 S
C692 C304 1.552 . S
C326 C712 1.552 1_545 S
C470 C602 1.552 1_546 S
C626 C502 1.552 1_454 S
C514 C656 1.552 1_556 S
C21 C645 3.485 . S
C615 C43 3.485 . S
C631 C51 3.486 . S
C293 C81 3.485 . S
C109 C315 3.486 . S
C285 C131 3.485 . S
C147 C527 3.485 . S
C483 C175 3.485 . S
C191 C491 3.486 . S
C697 C205 3.485 . S
C241 C725 3.486 . S
C675 C263 3.485 . S
C557 C345 3.485 1_455 S
C593 C373 3.486 . S
C549 C395 3.485 1_565 S
C791 C411 3.485 1_565 S
C439 C747 3.485 1_655 S
C769 C461 3.486 . S
C40 C7 1.505 1_655 S
C29 C54 1.505 . S
C18 C59 1.505 1_545 S
C87 C128 1.505 1_545 S
C74 C95 1.505 1_455 S
C106 C117 1.505 . S
C172 C153 1.505 1_455 S
C161 C184 1.505 . S
C140 C197 1.505 1_565 S
C260 C213 1.505 1_545 S
C208 C227 1.505 1_655 S
C238 C249 1.505 . S
C296 C271 1.505 . S
C301 C318 1.505 . S
C323 C282 1.505 . S
C351 C392 1.505 . S
C359 C338 1.505 . S
C381 C370 1.505 . S
C436 C417 1.505 . S
C458 C425 1.505 . S
C404 C447 1.505 . S
C469 C524 1.505 . S
C499 C480 1.505 . S
C513 C494 1.505 . S
C560 C535 1.505 . S
C565 C590 1.505 . S
C546 C579 1.505 . S
C601 C648 1.505 . S
C637 C612 1.505 . S
C624 C653 1.505 . S
C690 C681 1.505 . S
C722 C703 1.505 . S
C668 C711 1.505 . S
C733 C788 1.505 . S
C755 C744 1.505 . S
C766 C777 1.505 . S
