# Generated by pormake.
# Topology fni, (5)-cn, num edge types: 1
# Building blocks:
#     Node 0, Type 0, BuildingBlock: XOMCOT_clean_sbu_1, # of connection points: 5
#     Node 1, Type 0, BuildingBlock: XOMCOT_clean_sbu_1, # of connection points: 5
#     Node 2, Type 0, BuildingBlock: XOMCOT_clean_sbu_1, # of connection points: 5
#     Node 3, Type 0, BuildingBlock: XOMCOT_clean_sbu_1, # of connection points: 5
#     Node 4, Type 0, BuildingBlock: XOMCOT_clean_sbu_1, # of connection points: 5
#     Node 5, Type 0, BuildingBlock: XOMCOT_clean_sbu_1, # of connection points: 5
#     Node 6, Type 0, BuildingBlock: XOMCOT_clean_sbu_1, # of connection points: 5
#     Node 7, Type 0, BuildingBlock: XOMCOT_clean_sbu_1, # of connection points: 5
#     Edge 8, Type (0, 0), BuildingBlock: EZIPEK_clean_linker_0, # of connection points: 2
#     Edge 9, Type (0, 0), BuildingBlock: EZIPEK_clean_linker_0, # of connection points: 2
#     Edge 10, Type (0, 0), BuildingBlock: EZIPEK_clean_linker_0, # of connection points: 2
#     Edge 11, Type (0, 0), BuildingBlock: EZIPEK_clean_linker_0, # of connection points: 2
#     Edge 12, Type (0, 0), BuildingBlock: EZIPEK_clean_linker_0, # of connection points: 2
#     Edge 13, Type (0, 0), BuildingBlock: EZIPEK_clean_linker_0, # of connection points: 2
#     Edge 14, Type (0, 0), BuildingBlock: EZIPEK_clean_linker_0, # of connection points: 2
#     Edge 15, Type (0, 0), BuildingBlock: EZIPEK_clean_linker_0, # of connection points: 2
#     Edge 16, Type (0, 0), BuildingBlock: EZIPEK_clean_linker_0, # of connection points: 2
#     Edge 17, Type (0, 0), BuildingBlock: EZIPEK_clean_linker_0, # of connection points: 2
#     Edge 18, Type (0, 0), BuildingBlock: EZIPEK_clean_linker_0, # of connection points: 2
#     Edge 19, Type (0, 0), BuildingBlock: EZIPEK_clean_linker_0, # of connection points: 2
#     Edge 20, Type (0, 0), BuildingBlock: EZIPEK_clean_linker_0, # of connection points: 2
#     Edge 21, Type (0, 0), BuildingBlock: EZIPEK_clean_linker_0, # of connection points: 2
#     Edge 22, Type (0, 0), BuildingBlock: EZIPEK_clean_linker_0, # of connection points: 2
#     Edge 23, Type (0, 0), BuildingBlock: EZIPEK_clean_linker_0, # of connection points: 2
#     Edge 24, Type (0, 0), BuildingBlock: EZIPEK_clean_linker_0, # of connection points: 2
#     Edge 25, Type (0, 0), BuildingBlock: EZIPEK_clean_linker_0, # of connection points: 2
#     Edge 26, Type (0, 0), BuildingBlock: EZIPEK_clean_linker_0, # of connection points: 2
#     Edge 27, Type (0, 0), BuildingBlock: EZIPEK_clean_linker_0, # of connection points: 2
# Relax obj value: 0.170
# Max RMSD: 0.170
# Mean RMSD: 0.164
data_MOF--net-fni--node1-XOMCOT_clean_sbu_1--edge1-EZIPEK_clean_linker_0
_symmetry_space_group_name_H-M    P1
_symmetry_Int_Tables_number       1
_symmetry_cell_setting            triclinic
loop_
_symmetry_equiv_pos_as_xyz
'x, y, z'
_cell_length_a     41.531434
_cell_length_b     39.004684
_cell_length_c     13.421114
_cell_angle_alpha  92.921794
_cell_angle_beta   92.92133
_cell_angle_gamma 90.563136
loop_
_atom_site_label
_atom_site_type_symbol
_atom_site_fract_x
_atom_site_fract_y
_atom_site_fract_z
_atom_type_partial_charge
C0 C 0.41916 0.417 0.21091 0.0
C1 C 0.41885 0.41761 0.31371 0.0
N2 N 0.43995 0.3942 0.34618 0.0
N3 N 0.43998 0.39287 0.17946 0.0
C4 C 0.45267 0.37992 0.26395 0.0
H5 H 0.40451 0.43248 0.1622 0.0
Co6 Co 0.44811 0.37805 0.04918 0.0
C7 C 0.43896 0.30211 0.0505 0.0
O8 O 0.42308 0.30403 0.96377 0.0
N9 N 0.45752 0.36313 0.91655 0.0
C10 C 0.48315 0.33729 0.7913 0.0
C11 C 0.48034 0.33991 0.89332 0.0
C12 C 0.44758 0.37494 0.8269 0.0
N13 N 0.46242 0.35938 0.75044 0.0
O14 O 0.4933 0.38705 0.07841 0.0
H15 H 0.4947 0.32628 0.94757 0.0
H16 H 0.43091 0.3955 0.81592 0.0
O17 O 0.45055 0.33012 0.09278 0.0
C18 C 0.49788 0.41734 0.04939 0.0
O19 O 0.47366 0.43275 1.00434 0.0
N20 N 0.40349 0.3742 0.02053 0.0
C21 C 0.33756 0.38325 0.98566 0.0
C22 C 0.34889 0.35831 0.05003 0.0
C23 C 0.38213 0.35432 0.06718 0.0
C24 C 0.39252 0.40022 0.96467 0.0
C25 C 0.35985 0.40409 0.9419 0.0
H26 H 0.39045 0.33678 0.12231 0.0
H27 H 0.40916 0.41947 0.94248 0.0
H28 H 0.47057 0.36003 0.26543 0.0
H29 H 0.40409 0.43357 0.36089 0.0
H30 H 0.49965 0.32124 0.75057 0.0
H31 H 0.3322 0.34289 0.08883 0.0
H32 H 0.35194 0.42471 0.89567 0.0
C33 C 0.62553 0.97642 0.15524 0.0
C34 C 0.62539 0.98121 0.05416 0.0
N35 N 0.59906 0.96528 1.01044 0.0
N36 N 0.59976 0.95694 0.17471 0.0
C37 C 0.58347 0.95176 0.08523 0.0
H38 H 0.64378 0.98572 0.21072 0.0
Co39 Co 0.58913 0.94277 0.30092 0.0
C40 C 0.58131 0.87397 0.17324 0.0
O41 O 0.59513 0.88337 0.09314 0.0
N42 N 0.57759 0.92988 0.42903 0.0
C43 C 0.5645 0.90015 0.55905 0.0
C44 C 0.56739 0.89894 0.45725 0.0
C45 C 0.57943 0.94972 0.5151 0.0
N46 N 0.57236 0.93205 0.59516 0.0
O47 O 0.54579 0.95823 0.27612 0.0
H48 H 0.56331 0.87628 0.40851 0.0
H49 H 0.5877 0.97616 0.52024 0.0
O50 O 0.57796 0.89526 0.24799 0.0
C51 C 0.54377 0.9907 0.29157 0.0
O52 O 0.57025 1.00851 0.3164 0.0
N53 N 0.63277 0.93006 0.33001 0.0
C54 C 0.69621 0.91366 0.38792 0.0
C55 C 0.68238 0.90139 0.29541 0.0
C56 C 0.65057 0.90972 0.26819 0.0
C57 C 0.64721 0.94462 0.41576 0.0
C58 C 0.67811 0.93543 0.44862 0.0
H59 H 0.64092 0.90063 0.19612 0.0
H60 H 0.63528 0.96415 0.45874 0.0
H61 H 0.56134 0.93685 0.07409 0.0
H62 H 0.6439 0.99391 0.01508 0.0
H63 H 0.55891 0.87879 0.60392 0.0
H64 H 0.69608 0.88555 0.24464 0.0
H65 H 0.68831 0.94644 0.51915 0.0
C66 C 0.04298 0.12154 0.45502 0.0
C67 C 0.04058 0.12242 0.35231 0.0
N68 N 0.06799 0.10974 0.31711 0.0
N69 N 0.07186 0.10861 0.48347 0.0
C70 C 0.08638 0.10133 0.3974 0.0
H71 H 0.02495 0.13001 0.50585 0.0
Co72 Co 0.08718 0.10317 0.61392 0.0
C73 C 0.15807 0.12026 0.61101 0.0
O74 O 0.15571 0.1407 0.69119 0.0
N75 N 0.10197 0.09664 0.7472 0.0
C76 C 0.13031 0.07805 0.87932 0.0
C77 C 0.12852 0.07921 0.77688 0.0
C78 C 0.0871 0.10398 0.83309 0.0
N79 N 0.10405 0.09342 0.91397 0.0
O80 O 0.08704 0.05408 0.58895 0.0
H81 H 0.14522 0.0672 0.72714 0.0
H82 H 0.06387 0.11589 0.83745 0.0
O83 O 0.13227 0.10583 0.57184 0.0
C84 C 0.06047 0.03988 0.60843 0.0
O85 O 0.03736 0.05931 0.64231 0.0
N86 N 0.08437 0.1513 0.63866 0.0
C87 C 0.07413 0.22065 0.68667 0.0
C88 C 0.09863 0.21063 0.62368 0.0
C89 C 0.10271 0.17576 0.59791 0.0
C90 C 0.05828 0.16104 0.69052 0.0
C91 C 0.05292 0.19555 0.71669 0.0
H92 H 0.12051 0.16867 0.54506 0.0
H93 H 0.04118 0.14187 0.71068 0.0
H94 H 0.10987 0.09008 0.39294 0.0
H95 H 0.02048 0.13162 0.30703 0.0
H96 H 0.14877 0.06587 0.92464 0.0
H97 H 0.11452 0.22958 0.59516 0.0
H98 H 0.0328 0.20255 0.7615 0.0
C99 C 0.87207 0.55855 0.68544 0.0
C100 C 0.87151 0.55525 0.58261 0.0
N101 N 0.87462 0.58679 0.54834 0.0
N102 N 0.8761 0.59198 0.71559 0.0
C103 C 0.87676 0.60855 0.6296 0.0
H104 H 0.87012 0.5377 0.73475 0.0
Co105 Co 0.8818 0.60953 0.84829 0.0
C106 C 0.89052 0.68518 0.78834 0.0
O107 O 0.86176 0.6952 0.81254 0.0
N108 N 0.88741 0.62662 0.9831 0.0
C109 C 0.88279 0.65881 0.12392 0.0
C110 C 0.88227 0.65871 0.02155 0.0
C111 C 0.89061 0.60759 0.06459 0.0
N112 N 0.88786 0.62658 0.15044 0.0
O113 O 0.92526 0.59267 0.85387 0.0
H114 H 0.87519 0.68017 0.9794 0.0
H115 H 0.89143 0.57994 0.06107 0.0
O116 O 0.89906 0.65409 0.80096 0.0
C117 C 0.92752 0.56145 0.8779 0.0
O118 O 0.90122 0.54496 0.8993 0.0
N119 N 0.83784 0.62136 0.84736 0.0
C120 C 0.77206 0.62719 0.87776 0.0
C121 C 0.78567 0.64301 0.79757 0.0
C122 C 0.81883 0.63929 0.78258 0.0
C123 C 0.82388 0.60313 0.9181 0.0
C124 C 0.79153 0.60652 0.93671 0.0
H125 H 0.82891 0.65034 0.71876 0.0
H126 H 0.83797 0.58537 0.96067 0.0
H127 H 0.8785 0.63602 0.62557 0.0
H128 H 0.86957 0.53162 0.53664 0.0
H129 H 0.87736 0.68024 0.17452 0.0
H130 H 0.77088 0.65794 0.74753 0.0
H131 H 0.78168 0.59271 0.99652 0.0
C132 C 0.3487 0.07886 0.13409 0.0
C133 C 0.34818 0.07734 0.03113 0.0
N134 N 0.36875 0.10142 1.00326 0.0
N135 N 0.36931 0.10402 0.17035 0.0
C136 C 0.38148 0.11694 0.08831 0.0
H137 H 0.33524 0.06223 0.17922 0.0
Co138 Co 0.38081 0.1166 0.30383 0.0
C139 C 0.39399 0.19425 0.29285 0.0
O140 O 0.38243 0.20364 0.37929 0.0
N141 N 0.39301 0.1288 0.43774 0.0
C142 C 0.42105 0.14914 0.57464 0.0
C143 C 0.41914 0.1477 0.47173 0.0
C144 C 0.3799 0.11835 0.52149 0.0
N145 N 0.39627 0.13067 0.60503 0.0
O146 O 0.42356 0.10043 0.28403 0.0
H147 H 0.43653 0.15851 0.4246 0.0
H148 H 0.35944 0.10112 0.52237 0.0
O149 O 0.39328 0.16259 0.26232 0.0
C150 C 0.42557 0.06838 0.29819 0.0
O151 O 0.39981 0.05158 0.32251 0.0
N152 N 0.33776 0.12797 0.32655 0.0
C153 C 0.27604 0.13032 0.39919 0.0
C154 C 0.28963 0.15954 0.35966 0.0
C155 C 0.32076 0.15776 0.32259 0.0
C156 C 0.32354 0.099 0.35735 0.0
C157 C 0.29296 0.09962 0.39459 0.0
H158 H 0.33101 0.1803 0.293 0.0
H159 H 0.33707 0.07546 0.35867 0.0
H160 H 0.39983 0.13686 0.09029 0.0
H161 H 0.33408 0.05985 0.98066 0.0
H162 H 0.43962 0.16176 0.62327 0.0
H163 H 0.27677 0.18355 0.36031 0.0
H164 H 0.28308 0.0765 0.4233 0.0
C165 C 0.91442 0.92361 0.7378 0.0
C166 C 0.9148 0.92644 0.8408 0.0
N167 N 0.93461 0.90233 0.87649 0.0
N168 N 0.93368 0.89763 0.70912 0.0
C169 C 0.94635 0.88588 0.79555 0.0
H170 H 0.90022 0.93882 0.68711 0.0
Co171 Co 0.94035 0.88066 0.57874 0.0
C172 C 0.9292 0.80431 0.59828 0.0
O173 O 0.912 0.80276 0.51317 0.0
N174 N 0.9483 0.86434 0.44592 0.0
C175 C 0.96726 0.83467 0.3148 0.0
C176 C 0.96513 0.83631 0.41723 0.0
C177 C 0.94238 0.88037 0.35956 0.0
N178 N 0.95295 0.86258 0.27928 0.0
O179 O 0.98583 0.88915 0.60237 0.0
H180 H 0.97616 0.81864 0.46765 0.0
H181 H 0.93162 0.90526 0.35417 0.0
O182 O 0.94283 0.83292 0.62941 0.0
C183 C 0.98979 0.91985 0.57555 0.0
O184 O 0.96454 0.9361 0.53967 0.0
N185 N 0.89514 0.87746 0.5525 0.0
C186 C 0.82936 0.88535 0.50598 0.0
C187 C 0.8399 0.86178 0.57571 0.0
C188 C 0.87299 0.85822 0.59803 0.0
C189 C 0.88475 0.90252 0.49201 0.0
C190 C 0.85234 0.9057 0.4635 0.0
H191 H 0.88032 0.84099 0.65434 0.0
H192 H 0.90153 0.92151 0.46978 0.0
H193 H 0.96284 0.86461 0.79933 0.0
H194 H 0.90068 0.9438 0.88595 0.0
H195 H 0.97904 0.81509 0.2702 0.0
H196 H 0.82271 0.84668 0.61351 0.0
H197 H 0.84513 0.92533 0.4129 0.0
C198 C 0.11773 0.47624 0.71878 0.0
C199 C 0.11442 0.47868 0.61667 0.0
N200 N 0.08985 0.45797 0.58187 0.0
N201 N 0.09602 0.45317 0.74746 0.0
C202 C 0.07866 0.44347 0.66282 0.0
H203 H 0.13586 0.48912 0.7684 0.0
Co204 Co 0.09264 0.43748 0.87632 0.0
C205 C 0.09338 0.36011 0.81542 0.0
O206 O 0.12355 0.35694 0.84651 0.0
N207 N 0.08858 0.42255 1.00808 0.0
C208 C 0.09652 0.39389 0.14509 0.0
C209 C 0.10276 0.39505 0.04694 0.0
C210 C 0.07436 0.43821 0.08689 0.0
N211 N 0.07748 0.42034 0.17165 0.0
O212 O 0.04831 0.45053 0.87068 0.0
H213 H 0.1193 0.37836 1.01024 0.0
H214 H 0.06412 0.4633 0.08209 0.0
O215 O 0.0796 0.38957 0.82138 0.0
C216 C 0.04503 0.48283 0.88563 0.0
O217 O 0.07086 0.50212 0.90637 0.0
N218 N 0.13747 0.42821 0.88304 0.0
C219 C 0.20317 0.41588 0.90877 0.0
C220 C 0.18685 0.40798 0.8164 0.0
C221 C 0.15389 0.41451 0.80489 0.0
C222 C 0.15414 0.44008 0.96838 0.0
C223 C 0.18661 0.43272 0.98471 0.0
H224 H 0.14127 0.40721 0.73451 0.0
H225 H 0.142 0.45442 0.0261 0.0
H226 H 0.05874 0.42543 0.65989 0.0
H227 H 0.12963 0.49339 0.57099 0.0
H228 H 0.10761 0.37593 0.19474 0.0
H229 H 0.19926 0.39599 0.75495 0.0
H230 H 0.19876 0.44034 0.05586 0.0
C231 C 0.53433 0.61798 0.92625 0.0
C232 C 0.53135 0.61736 0.82326 0.0
N233 N 0.55961 0.60712 0.78789 0.0
N234 N 0.5644 0.60845 0.95484 0.0
C235 C 0.57911 0.60161 0.86858 0.0
H236 H 0.51608 0.62571 0.97721 0.0
Co237 Co 0.5814 0.60713 0.08574 0.0
C238 C 0.6495 0.63146 0.0613 0.0
O239 O 0.6488 0.6526 0.14066 0.0
N240 N 0.59788 0.60419 0.2196 0.0
C241 C 0.6285 0.59422 0.35675 0.0
C242 C 0.62782 0.5958 0.25441 0.0
C243 C 0.58037 0.6049 0.30219 0.0
N244 N 0.59856 0.59995 0.38617 0.0
O245 O 0.58411 0.55796 0.06996 0.0
H246 H 0.64786 0.58972 0.20888 0.0
H247 H 0.5545 0.6076 0.30121 0.0
O248 O 0.62499 0.61221 0.03608 0.0
C249 C 0.55856 0.542 0.09042 0.0
O250 O 0.53384 0.55992 0.11985 0.0
N251 N 0.5768 0.6558 0.10145 0.0
C252 C 0.5699 0.72675 0.13041 0.0
C253 C 0.58671 0.71309 0.05022 0.0
C254 C 0.58936 0.67747 0.0359 0.0
C255 C 0.55759 0.66887 0.17344 0.0
C256 C 0.55447 0.7043 0.19096 0.0
H257 H 0.60176 0.66739 0.97215 0.0
H258 H 0.54399 0.65207 0.21677 0.0
H259 H 0.60386 0.59348 0.86438 0.0
H260 H 0.51045 0.6246 0.77792 0.0
H261 H 0.64907 0.58841 0.40553 0.0
H262 H 0.59804 0.72981 0.99996 0.0
H263 H 0.54019 0.7141 0.25121 0.0
C264 C 0.54753 0.48769 0.17515 0.0
C265 C 0.55615 0.50379 0.08732 0.0
C266 C 0.54319 0.45043 0.98826 0.0
C267 C 0.52803 0.43772 0.07089 0.0
N268 N 0.52436 0.43752 0.24809 0.0
N269 N 0.56629 0.4995 0.91173 0.0
C270 C 0.53347 0.45406 0.16665 0.0
C271 C 0.55622 0.48447 0.99465 0.0
N272 N 0.55166 0.50543 0.26544 0.0
N273 N 0.54434 0.42968 0.90359 0.0
H274 H 0.57656 0.52402 0.91424 0.0
H275 H 0.56375 0.48823 0.8398 0.0
H276 H 0.53516 0.40458 0.90063 0.0
H277 H 0.55649 0.43585 0.8409 0.0
H278 H 0.54442 0.49672 0.33278 0.0
H279 H 0.56301 0.52946 0.27285 0.0
H280 H 0.52778 0.44715 0.32151 0.0
H281 H 0.51506 0.41254 0.24179 0.0
C282 C 0.47864 0.05151 0.37678 0.0
C283 C 0.45644 0.04973 0.29293 0.0
C284 C 0.49114 1.00845 0.2064 0.0
C285 C 0.51226 1.00854 0.29305 0.0
N286 N 0.52183 0.02391 0.46859 0.0
N287 N 0.43814 0.0219 0.1354 0.0
C288 C 0.50485 0.02845 0.38037 0.0
C289 C 0.46165 0.02676 0.20995 0.0
N290 N 0.47463 0.07517 0.45358 0.0
N291 N 0.49979 0.99215 0.1195 0.0
H292 H 0.41658 0.03541 0.13436 0.0
H293 H 0.43895 1.00279 0.07853 0.0
H294 H 0.52094 0.97826 0.11425 0.0
H295 H 0.4873 0.99459 0.05099 0.0
H296 H 0.492 0.08058 0.51112 0.0
H297 H 0.45486 0.09126 0.45596 0.0
H298 H 0.51543 0.03479 0.53713 0.0
H299 H 0.54032 1.00626 0.47531 0.0
C300 C 0.03287 0.95193 0.6791 0.0
C301 C 0.02104 0.93899 0.58391 0.0
C302 C 0.05039 0.98475 0.50545 0.0
C303 C 0.05521 1.00197 0.60065 0.0
N304 N 0.05511 1.00093 0.77957 0.0
N305 N 0.02246 0.9386 0.40556 0.0
C306 C 0.04832 0.9848 0.68813 0.0
C307 C 0.03182 0.95366 0.49667 0.0
N308 N 0.02864 0.93307 0.76039 0.0
N309 N 0.0626 0.99872 0.42385 0.0
H310 H 0.01022 0.91503 0.39909 0.0
H311 H 0.02611 0.94932 0.33758 0.0
H312 H 0.07597 0.02156 0.4288 0.0
H313 H 0.06168 0.98668 0.35279 0.0
H314 H 0.03879 0.93963 0.83138 0.0
H315 H 0.01751 0.90892 0.75434 0.0
H316 H 0.04737 0.99208 0.8463 0.0
H317 H 0.06784 0.02417 0.78768 0.0
C318 C 0.99096 0.49656 0.95024 0.0
C319 C 0.01328 0.49965 0.8751 0.0
C320 C 0.97831 0.54192 0.79534 0.0
C321 C 0.95856 0.54252 0.87892 0.0
N322 N 0.95129 0.52575 0.04732 0.0
N323 N 0.02983 0.52716 0.72866 0.0
C324 C 0.96628 0.52122 0.95946 0.0
C325 C 0.00752 0.52307 0.79866 0.0
N326 N 0.99305 0.47001 1.01259 0.0
N327 N 0.9684 0.55753 0.71047 0.0
H328 H 0.05023 0.51192 0.72361 0.0
H329 H 0.02894 0.54683 0.67894 0.0
H330 H 0.94678 0.57061 0.70344 0.0
H331 H 0.98008 0.55473 0.64373 0.0
H332 H 0.9755 0.46487 0.06278 0.0
H333 H 0.01035 0.45098 1.00658 0.0
H334 H 0.9582 0.51313 0.11145 0.0
H335 H 0.93473 0.54512 0.05986 0.0
C336 C 0.46723 0.40564 0.51219 0.0
C337 C 0.44631 0.38483 0.44754 0.0
C338 C 0.43654 0.34672 0.58301 0.0
C339 C 0.45817 0.36697 0.64679 0.0
N340 N 0.49677 0.41305 0.67323 0.0
N341 N 0.41334 0.33412 0.41493 0.0
C342 C 0.47432 0.39574 0.61147 0.0
C343 C 0.43171 0.3548 0.48111 0.0
N344 N 0.47989 0.43504 0.47813 0.0
N345 N 0.41982 0.32059 0.62166 0.0
H346 H 0.40801 0.34045 0.34139 0.0
H347 H 0.40466 0.30999 0.43076 0.0
H348 H 0.42335 0.31406 0.69583 0.0
H349 H 0.40133 0.3066 0.58274 0.0
H350 H 0.49329 0.45317 0.52259 0.0
H351 H 0.47566 0.44218 0.40484 0.0
H352 H 0.51158 0.43266 0.65136 0.0
H353 H 0.50189 0.40627 0.74639 0.0
C354 C 0.61266 0.93473 0.85259 0.0
C355 C 0.5926 0.95785 0.90486 0.0
C356 C 0.55847 0.96362 0.75176 0.0
C357 C 0.57976 0.9422 0.69868 0.0
N358 N 0.63046 0.91317 0.69226 0.0
N359 N 0.54899 0.99773 0.90432 0.0
C360 C 0.60789 0.92948 0.74741 0.0
C361 C 0.56615 0.9733 0.85431 0.0
N362 N 0.63535 0.91663 0.90436 0.0
N363 N 0.53064 0.97388 0.70421 0.0
H364 H 0.55448 1.0052 0.97908 0.0
H365 H 0.53095 0.01219 0.87068 0.0
H366 H 0.52492 0.96729 0.629 0.0
H367 H 0.51248 0.98705 0.74 0.0
H368 H 0.64845 0.89675 0.87195 0.0
H369 H 0.63904 0.91928 0.98179 0.0
H370 H 0.65303 0.90633 0.72177 0.0
H371 H 0.6278 0.90933 0.61479 0.0
C372 C 0.08329 0.06883 0.06487 0.0
C373 C 0.09537 0.09742 0.01645 0.0
C374 C 0.09034 0.13398 0.16895 0.0
C375 C 0.07638 0.10593 0.21466 0.0
N376 N 0.05575 0.04821 0.20622 0.0
N377 N 0.10907 0.15745 0.0175 0.0
C378 C 0.07181 0.07373 0.1625 0.0
C379 C 0.09841 0.13016 0.0672 0.0
N380 N 0.08334 0.03698 0.0178 0.0
N381 N 0.09671 0.16383 0.22452 0.0
H382 H 0.11709 0.15488 0.94514 0.0
H383 H 0.10879 0.18277 0.04575 0.0
H384 H 0.09061 0.16719 0.29883 0.0
H385 H 0.10955 0.18449 0.19969 0.0
H386 H 0.07771 0.01445 0.05175 0.0
H387 H 0.09131 0.03273 0.94607 0.0
H388 H 0.04878 0.02493 0.16977 0.0
H389 H 0.04724 0.05139 0.27787 0.0
C390 C 0.85349 0.6073 0.282 0.0
C391 C 0.88461 0.61436 0.2487 0.0
C392 C 0.90916 0.60036 0.41097 0.0
C393 C 0.87795 0.59543 0.44638 0.0
N394 N 0.82041 0.59665 0.42205 0.0
N395 N 0.94174 0.62057 0.27975 0.0
C396 C 0.85006 0.59941 0.38333 0.0
C397 C 0.91241 0.61155 0.31278 0.0
N398 N 0.82742 0.60791 0.21582 0.0
N399 N 0.93554 0.59364 0.4713 0.0
H400 H 0.94461 0.62799 0.20707 0.0
H401 H 0.96286 0.62251 0.32491 0.0
H402 H 0.93354 0.58586 0.54375 0.0
H403 H 0.95909 0.59367 0.44842 0.0
H404 H 0.80428 0.60016 0.23165 0.0
H405 H 0.82937 0.61441 0.14198 0.0
H406 H 0.79885 0.60219 0.38366 0.0
H407 H 0.81752 0.59058 0.49594 0.0
C408 C 0.40145 0.09191 0.85629 0.0
C409 C 0.3759 0.10904 0.90296 0.0
C410 C 0.36536 0.14222 0.75478 0.0
C411 C 0.38961 0.12358 0.70606 0.0
N412 N 0.42829 0.07827 0.70276 0.0
N413 N 0.3316 0.14804 0.89741 0.0
C414 C 0.40709 0.09777 0.75492 0.0
C415 C 0.35728 0.13358 0.85227 0.0
N416 N 0.42052 0.0705 0.91015 0.0
N417 N 0.35076 0.16868 0.70803 0.0
H418 H 0.3259 0.14274 0.96992 0.0
H419 H 0.31499 0.16375 0.86196 0.0
H420 H 0.35619 0.17512 0.63619 0.0
H421 H 0.33485 0.18551 0.74183 0.0
H422 H 0.44149 0.0595 0.88465 0.0
H423 H 0.41631 0.06547 0.98388 0.0
H424 H 0.43981 0.05688 0.73025 0.0
H425 H 0.43277 0.08221 0.62842 0.0
C426 C 0.9181 0.86666 0.12569 0.0
C427 C 0.94869 0.87159 0.17647 0.0
C428 C 0.96894 0.89949 0.03169 0.0
C429 C 0.93902 0.89272 0.97875 0.0
N430 N 0.8861 0.86686 0.96897 0.0
N431 N 0.00435 0.88891 0.17643 0.0
C432 C 0.91375 0.87561 0.02429 0.0
C433 C 0.97451 0.88684 0.12876 0.0
N434 N 0.89326 0.85343 0.17524 0.0
N435 N 0.99144 0.91926 0.98998 0.0
H436 H 0.00883 0.88029 0.24797 0.0
H437 H 0.02503 0.8969 0.14315 0.0
H438 H 0.98732 0.9294 0.9201 0.0
H439 H 0.01283 0.92793 0.02699 0.0
H440 H 0.86939 0.85257 0.14762 0.0
H441 H 0.89633 0.84463 0.24716 0.0
H442 H 0.86774 0.85166 0.99387 0.0
H443 H 0.88246 0.87259 0.89425 0.0
C444 C 0.06838 0.47259 0.41281 0.0
C445 C 0.08141 0.44824 0.47859 0.0
C446 C 0.07378 0.40357 0.34609 0.0
C447 C 0.06893 0.42866 0.27466 0.0
N448 N 0.04161 0.48183 0.2513 0.0
N449 N 0.10224 0.39143 0.50003 0.0
C450 C 0.06079 0.46224 0.31022 0.0
C451 C 0.08524 0.41381 0.44364 0.0
N452 N 0.06324 0.50532 0.44881 0.0
N453 N 0.06599 0.37008 0.32141 0.0
H454 H 0.11332 0.39857 0.56947 0.0
H455 H 0.10809 0.3669 0.4725 0.0
H456 H 0.05467 0.36266 0.25225 0.0
H457 H 0.06742 0.35097 0.37296 0.0
H458 H 0.0571 0.52543 0.40373 0.0
H459 H 0.06638 0.51262 0.52457 0.0
H460 H 0.03385 0.50629 0.27229 0.0
H461 H 0.02888 0.47089 0.1886 0.0
C462 C 0.56989 0.57309 0.63306 0.0
C463 C 0.56846 0.6054 0.68544 0.0
C464 C 0.58495 0.63418 0.53765 0.0
C465 C 0.58832 0.60169 0.48727 0.0
N466 N 0.58841 0.54015 0.48894 0.0
N467 N 0.57837 0.66625 0.6953 0.0
C468 C 0.58205 0.57106 0.53568 0.0
C469 C 0.57689 0.63591 0.6396 0.0
N470 N 0.55884 0.5446 0.67624 0.0
N471 N 0.58951 0.66329 0.48741 0.0
H472 H 0.57264 0.66809 0.77014 0.0
H473 H 0.58734 0.68907 0.67009 0.0
H474 H 0.59704 0.66274 0.41439 0.0
H475 H 0.58423 0.68782 0.51563 0.0
H476 H 0.55641 0.52048 0.63956 0.0
H477 H 0.54974 0.54575 0.74737 0.0
H478 H 0.58713 0.5168 0.52284 0.0
H479 H 0.59729 0.53811 0.41767 0.0
C480 C 0.24757 0.37224 0.91769 0.0
C481 C 0.23761 0.40698 0.92674 0.0
C482 C 0.29134 0.42382 0.99497 0.0
C483 C 0.30262 0.39034 0.97087 0.0
N484 N 0.29223 0.33412 0.8907 0.0
N485 N 0.25269 0.46696 0.95106 0.0
C486 C 0.28097 0.36484 0.92696 0.0
C487 C 0.26029 0.43316 0.95867 0.0
N488 N 0.22527 0.3462 0.90449 0.0
N489 N 0.30983 0.44639 0.05512 0.0
H490 H 0.23068 0.47494 0.91984 0.0
H491 H 0.26957 0.4868 0.96543 0.0
H492 H 0.33212 0.43987 0.08786 0.0
H493 H 0.30137 0.47006 0.08142 0.0
H494 H 0.23137 0.32039 0.90696 0.0
H495 H 0.20049 0.35032 0.90166 0.0
H496 H 0.27764 0.31613 0.84924 0.0
H497 H 0.31662 0.32797 0.89354 0.0
C498 C 0.55006 0.82141 0.10895 0.0
C499 C 0.57331 0.83689 0.17899 0.0
C500 C 0.59247 0.7799 0.22294 0.0
C501 C 0.56938 0.76451 0.15244 0.0
N502 N 0.52217 0.76936 0.04275 0.0
N503 N 0.61195 0.83109 0.31785 0.0
C504 C 0.54683 0.78494 0.10003 0.0
C505 C 0.59284 0.81618 0.24138 0.0
N506 N 0.53159 0.84173 0.04932 0.0
N507 N 0.6151 0.75991 0.2687 0.0
H508 H 0.61367 0.85746 0.3327 0.0
H509 H 0.62402 0.81736 0.37244 0.0
H510 H 0.61517 0.7332 0.25928 0.0
H511 H 0.63517 0.76971 0.31076 0.0
H512 H 0.5171 0.83238 0.98821 0.0
H513 H 0.5317 0.86845 0.05886 0.0
H514 H 0.50305 0.78252 1.01001 0.0
H515 H 0.51948 0.74274 0.03383 0.0
C516 C 0.24529 0.1407 0.55409 0.0
C517 C 0.24506 0.13083 0.45081 0.0
C518 C 0.19162 0.10418 0.46091 0.0
C519 C 0.18983 0.11797 0.56062 0.0
N520 N 0.22156 0.13274 0.71249 0.0
N521 N 0.21642 0.10743 0.30204 0.0
C522 C 0.21848 0.13197 0.61048 0.0
C523 C 0.21764 0.11398 0.40313 0.0
N524 N 0.27121 0.15844 0.59844 0.0
N525 N 0.17122 0.07819 0.42571 0.0
H526 H 0.23514 0.11426 0.25764 0.0
H527 H 0.19567 0.09845 0.26162 0.0
H528 H 0.15655 0.06517 0.47227 0.0
H529 H 0.17281 0.0656 0.35583 0.0
H530 H 0.27138 0.16989 0.67026 0.0
H531 H 0.29174 0.16421 0.56063 0.0
H532 H 0.24261 0.14008 0.75382 0.0
H533 H 0.20484 0.12094 0.7554 0.0
C534 C 0.92659 0.70959 0.65931 0.0
C535 C 0.91317 0.71207 0.75447 0.0
C536 C 0.91961 0.77464 0.76035 0.0
C537 C 0.92959 0.77306 0.66008 0.0
N538 N 0.95173 0.73878 0.52634 0.0
N539 N 0.91277 0.74423 0.91101 0.0
C540 C 0.93598 0.74031 0.61338 0.0
C541 C 0.91499 0.7438 0.80986 0.0
N542 N 0.93035 0.67803 0.61326 0.0
N543 N 0.91192 0.80509 0.80681 0.0
H544 H 0.91121 0.7216 0.9486 0.0
H545 H 0.91683 0.76616 0.95783 0.0
H546 H 0.91468 0.82851 0.7756 0.0
H547 H 0.90026 0.80674 0.8737 0.0
H548 H 0.93529 0.67394 0.5384 0.0
H549 H 0.92939 0.6557 0.65229 0.0
H550 H 0.9591 0.71613 0.49061 0.0
H551 H 0.95985 0.76071 0.49356 0.0
C552 C 0.77369 0.86432 0.44233 0.0
C553 C 0.79444 0.89128 0.48275 0.0
C554 C 0.75229 0.93278 0.44719 0.0
C555 C 0.73015 0.90563 0.41916 0.0
N556 N 0.71835 0.84468 0.41516 0.0
N557 N 0.79915 0.94966 0.55219 0.0
C558 C 0.74037 0.87105 0.42415 0.0
C559 C 0.78237 0.92507 0.49428 0.0
N560 N 0.78577 0.83281 0.41702 0.0
N561 N 0.74543 0.96579 0.42486 0.0
H562 H 0.82049 0.9445 0.59285 0.0
H563 H 0.78987 0.97392 0.56875 0.0
H564 H 0.72464 0.97239 0.38369 0.0
H565 H 0.7622 0.98584 0.43697 0.0
H566 H 0.77195 0.81346 0.37856 0.0
H567 H 0.81019 0.82711 0.42521 0.0
H568 H 0.72448 0.81932 0.42726 0.0
H569 H 0.69358 0.84854 0.40635 0.0
C570 C 0.06204 0.28266 0.65551 0.0
C571 C 0.0713 0.2572 0.72308 0.0
C572 C 0.07704 0.30169 0.85816 0.0
C573 C 0.07552 0.32732 0.78734 0.0
N574 N 0.06223 0.34317 0.62021 0.0
N575 N 0.08954 0.24276 0.88969 0.0
C576 C 0.06618 0.31811 0.68646 0.0
C577 C 0.0788 0.26669 0.82521 0.0
N578 N 0.04922 0.27282 0.56251 0.0
N579 N 0.0766 0.31113 0.95728 0.0
H580 H 0.09207 0.21688 0.86866 0.0
H581 H 0.09863 0.24912 0.96213 0.0
H582 H 0.07323 0.3366 0.98134 0.0
H583 H 0.07528 0.29365 1.01314 0.0
H584 H 0.03966 0.28979 0.51182 0.0
H585 H 0.04577 0.24709 0.53876 0.0
H586 H 0.05825 0.33855 0.54361 0.0
H587 H 0.06342 0.36899 0.64327 0.0
C588 C 0.69102 0.59957 0.96034 0.0
C589 C 0.67848 0.63103 0.99944 0.0
C590 C 0.72592 0.66172 0.94447 0.0
C591 C 0.73751 0.63054 0.9017 0.0
N592 N 0.72602 0.57234 0.84153 0.0
N593 N 0.67927 0.69308 0.99617 0.0
C594 C 0.71813 0.60039 0.89994 0.0
C595 C 0.69444 0.66247 0.98139 0.0
N596 N 0.67898 0.56874 0.98655 0.0
N597 N 0.74538 0.69026 0.95483 0.0
H598 H 0.65561 0.69489 0.01775 0.0
H599 H 0.68882 0.71633 0.97546 0.0
H600 H 0.76857 0.69102 0.92878 0.0
H601 H 0.73934 0.71237 0.99634 0.0
H602 H 0.68956 0.54537 0.96746 0.0
H603 H 0.66082 0.56635 0.03647 0.0
H604 H 0.7112 0.55061 0.83039 0.0
H605 H 0.74566 0.57244 0.79598 0.0
C606 C 0.44667 0.26849 0.21005 0.0
C607 C 0.43559 0.26988 0.10809 0.0
C608 C 0.39907 0.22114 0.12733 0.0
C609 C 0.40858 0.22046 0.23025 0.0
N610 N 0.44677 0.23854 0.36494 0.0
N611 N 0.41618 0.23432 0.96456 0.0
C612 C 0.43385 0.2429 0.27068 0.0
C613 C 0.41636 0.24215 0.06489 0.0
N614 N 0.47062 0.2904 0.24744 0.0
N615 N 0.37254 0.20304 0.08915 0.0
H616 H 0.43202 0.24609 0.91858 0.0
H617 H 0.40423 0.21279 0.93071 0.0
H618 H 0.358 0.18859 0.13269 0.0
H619 H 0.36312 0.20544 0.01635 0.0
H620 H 0.47611 0.29546 0.3233 0.0
H621 H 0.4859 0.30276 0.2011 0.0
H622 H 0.46676 0.25198 0.3969 0.0
H623 H 0.43886 0.21965 0.41031 0.0
loop_
_geom_bond_atom_site_label_1
_geom_bond_atom_site_label_2
_geom_bond_distance
_geom_bond_site_symmetry_2
_ccdc_geom_bond_type
C0 C1 1.351 . S
C0 N3 1.368 . S
C0 H5 0.931 . S
C1 C0 1.351 . S
C1 N2 1.373 . S
C1 H29 0.930 . S
N2 C1 1.373 . S
N2 C4 1.340 . S
N3 C0 1.368 . S
N3 C4 1.321 . S
N3 Co6 2.135 . S
C4 N2 1.340 . S
C4 N3 1.321 . S
C4 H28 0.930 . S
H5 C0 0.931 . S
Co6 N3 2.135 . S
Co6 N9 2.121 1_554 S
Co6 O14 2.055 . S
Co6 O17 2.039 . S
Co6 N20 2.140 . S
C7 O8 1.227 . S
C7 O17 1.265 . S
O8 C7 1.227 . S
N9 Co6 2.121 1_556 S
N9 C11 1.375 . S
N9 C12 1.313 . S
C10 C11 1.338 . S
C10 N13 1.377 . S
C10 H30 0.930 . S
C11 N9 1.375 . S
C11 C10 1.338 . S
C11 H15 0.931 . S
C12 N9 1.313 . S
C12 N13 1.344 . S
C12 H16 0.930 . S
N13 C10 1.377 . S
N13 C12 1.344 . S
O14 Co6 2.055 . S
O14 C18 1.253 . S
H15 C11 0.931 . S
H16 C12 0.930 . S
O17 Co6 2.039 . S
O17 C7 1.265 . S
C18 O14 1.253 . S
C18 O19 1.227 . S
O19 C18 1.227 . S
N20 Co6 2.140 . S
N20 C23 1.346 . S
N20 C24 1.345 1_554 S
C21 C22 1.387 . S
C21 C25 1.391 1_554 S
C22 C21 1.387 . S
C22 C23 1.369 . S
C22 H31 0.929 . S
C23 N20 1.346 . S
C23 C22 1.369 . S
C23 H26 0.928 . S
C24 N20 1.345 1_556 S
C24 C25 1.371 . S
C24 H27 0.931 . S
C25 C21 1.391 1_556 S
C25 C24 1.371 . S
C25 H32 0.930 . S
H26 C23 0.928 . S
H27 C24 0.931 . S
H28 C4 0.930 . S
H29 C1 0.930 . S
H30 C10 0.930 . S
H31 C22 0.929 . S
H32 C25 0.930 . S
C33 C34 1.351 . S
C33 N36 1.368 . S
C33 H38 0.931 . S
C34 C33 1.351 . S
C34 N35 1.373 . S
C34 H62 0.930 . S
N35 C34 1.373 . S
N35 C37 1.340 . S
N36 C33 1.368 . S
N36 C37 1.321 . S
N36 Co39 2.135 . S
C37 N35 1.340 . S
C37 N36 1.321 . S
C37 H61 0.930 . S
H38 C33 0.931 . S
Co39 N36 2.135 . S
Co39 N42 2.121 . S
Co39 O47 2.055 . S
Co39 O50 2.039 . S
Co39 N53 2.140 . S
C40 O41 1.227 . S
C40 O50 1.265 . S
O41 C40 1.227 . S
N42 Co39 2.121 . S
N42 C44 1.375 . S
N42 C45 1.313 . S
C43 C44 1.338 . S
C43 N46 1.377 . S
C43 H63 0.930 . S
C44 N42 1.375 . S
C44 C43 1.338 . S
C44 H48 0.931 . S
C45 N42 1.313 . S
C45 N46 1.344 . S
C45 H49 0.930 . S
N46 C43 1.377 . S
N46 C45 1.344 . S
O47 Co39 2.055 . S
O47 C51 1.253 . S
H48 C44 0.931 . S
H49 C45 0.930 . S
O50 Co39 2.039 . S
O50 C40 1.265 . S
C51 O47 1.253 . S
C51 O52 1.227 . S
O52 C51 1.227 . S
N53 Co39 2.140 . S
N53 C56 1.346 . S
N53 C57 1.345 . S
C54 C55 1.387 . S
C54 C58 1.391 . S
C55 C54 1.387 . S
C55 C56 1.369 . S
C55 H64 0.929 . S
C56 N53 1.346 . S
C56 C55 1.369 . S
C56 H59 0.928 . S
C57 N53 1.345 . S
C57 C58 1.371 . S
C57 H60 0.931 . S
C58 C54 1.391 . S
C58 C57 1.371 . S
C58 H65 0.930 . S
H59 C56 0.928 . S
H60 C57 0.931 . S
H61 C37 0.930 . S
H62 C34 0.930 . S
H63 C43 0.930 . S
H64 C55 0.929 . S
H65 C58 0.930 . S
C66 C67 1.351 . S
C66 N69 1.368 . S
C66 H71 0.931 . S
C67 C66 1.351 . S
C67 N68 1.373 . S
C67 H95 0.930 . S
N68 C67 1.373 . S
N68 C70 1.340 . S
N69 C66 1.368 . S
N69 C70 1.321 . S
N69 Co72 2.135 . S
C70 N68 1.340 . S
C70 N69 1.321 . S
C70 H94 0.930 . S
H71 C66 0.931 . S
Co72 N69 2.135 . S
Co72 N75 2.121 . S
Co72 O80 2.055 . S
Co72 O83 2.039 . S
Co72 N86 2.140 . S
C73 O74 1.227 . S
C73 O83 1.265 . S
O74 C73 1.227 . S
N75 Co72 2.121 . S
N75 C77 1.375 . S
N75 C78 1.313 . S
C76 C77 1.338 . S
C76 N79 1.377 . S
C76 H96 0.930 . S
C77 N75 1.375 . S
C77 C76 1.338 . S
C77 H81 0.931 . S
C78 N75 1.313 . S
C78 N79 1.344 . S
C78 H82 0.930 . S
N79 C76 1.377 . S
N79 C78 1.344 . S
O80 Co72 2.055 . S
O80 C84 1.253 . S
H81 C77 0.931 . S
H82 C78 0.930 . S
O83 Co72 2.039 . S
O83 C73 1.265 . S
C84 O80 1.253 . S
C84 O85 1.227 . S
O85 C84 1.227 . S
N86 Co72 2.140 . S
N86 C89 1.346 . S
N86 C90 1.345 . S
C87 C88 1.387 . S
C87 C91 1.391 . S
C88 C87 1.387 . S
C88 C89 1.369 . S
C88 H97 0.929 . S
C89 N86 1.346 . S
C89 C88 1.369 . S
C89 H92 0.928 . S
C90 N86 1.345 . S
C90 C91 1.371 . S
C90 H93 0.931 . S
C91 C87 1.391 . S
C91 C90 1.371 . S
C91 H98 0.930 . S
H92 C89 0.928 . S
H93 C90 0.931 . S
H94 C70 0.930 . S
H95 C67 0.930 . S
H96 C76 0.930 . S
H97 C88 0.929 . S
H98 C91 0.930 . S
C99 C100 1.351 . S
C99 N102 1.368 . S
C99 H104 0.931 . S
C100 C99 1.351 . S
C100 N101 1.373 . S
C100 H128 0.930 . S
N101 C100 1.373 . S
N101 C103 1.340 . S
N102 C99 1.368 . S
N102 C103 1.321 . S
N102 Co105 2.135 . S
C103 N101 1.340 . S
C103 N102 1.321 . S
C103 H127 0.930 . S
H104 C99 0.931 . S
Co105 N102 2.135 . S
Co105 N108 2.121 . S
Co105 O113 2.055 . S
Co105 O116 2.039 . S
Co105 N119 2.140 . S
C106 O107 1.227 . S
C106 O116 1.265 . S
O107 C106 1.227 . S
N108 Co105 2.121 . S
N108 C110 1.375 1_556 S
N108 C111 1.313 1_556 S
C109 C110 1.338 . S
C109 N112 1.377 . S
C109 H129 0.930 . S
C110 N108 1.375 1_554 S
C110 C109 1.338 . S
C110 H114 0.931 1_554 S
C111 N108 1.313 1_554 S
C111 N112 1.344 . S
C111 H115 0.930 . S
N112 C109 1.377 . S
N112 C111 1.344 . S
O113 Co105 2.055 . S
O113 C117 1.253 . S
H114 C110 0.931 1_556 S
H115 C111 0.930 . S
O116 Co105 2.039 . S
O116 C106 1.265 . S
C117 O113 1.253 . S
C117 O118 1.227 . S
O118 C117 1.227 . S
N119 Co105 2.140 . S
N119 C122 1.346 . S
N119 C123 1.345 . S
C120 C121 1.387 . S
C120 C124 1.391 . S
C121 C120 1.387 . S
C121 C122 1.369 . S
C121 H130 0.929 . S
C122 N119 1.346 . S
C122 C121 1.369 . S
C122 H125 0.928 . S
C123 N119 1.345 . S
C123 C124 1.371 . S
C123 H126 0.931 . S
C124 C120 1.391 . S
C124 C123 1.371 . S
C124 H131 0.930 . S
H125 C122 0.928 . S
H126 C123 0.931 . S
H127 C103 0.930 . S
H128 C100 0.930 . S
H129 C109 0.930 . S
H130 C121 0.929 . S
H131 C124 0.930 . S
C132 C133 1.351 . S
C132 N135 1.368 . S
C132 H137 0.931 . S
C133 C132 1.351 . S
C133 N134 1.373 . S
C133 H161 0.930 . S
N134 C133 1.373 . S
N134 C136 1.340 . S
N135 C132 1.368 . S
N135 C136 1.321 . S
N135 Co138 2.135 . S
C136 N134 1.340 . S
C136 N135 1.321 . S
C136 H160 0.930 . S
H137 C132 0.931 . S
Co138 N135 2.135 . S
Co138 N141 2.121 . S
Co138 O146 2.055 . S
Co138 O149 2.039 . S
Co138 N152 2.140 . S
C139 O140 1.227 . S
C139 O149 1.265 . S
O140 C139 1.227 . S
N141 Co138 2.121 . S
N141 C143 1.375 . S
N141 C144 1.313 . S
C142 C143 1.338 . S
C142 N145 1.377 . S
C142 H162 0.930 . S
C143 N141 1.375 . S
C143 C142 1.338 . S
C143 H147 0.931 . S
C144 N141 1.313 . S
C144 N145 1.344 . S
C144 H148 0.930 . S
N145 C142 1.377 . S
N145 C144 1.344 . S
O146 Co138 2.055 . S
O146 C150 1.253 . S
H147 C143 0.931 . S
H148 C144 0.930 . S
O149 Co138 2.039 . S
O149 C139 1.265 . S
C150 O146 1.253 . S
C150 O151 1.227 . S
O151 C150 1.227 . S
N152 Co138 2.140 . S
N152 C155 1.346 . S
N152 C156 1.345 . S
C153 C154 1.387 . S
C153 C157 1.391 . S
C154 C153 1.387 . S
C154 C155 1.369 . S
C154 H163 0.929 . S
C155 N152 1.346 . S
C155 C154 1.369 . S
C155 H158 0.928 . S
C156 N152 1.345 . S
C156 C157 1.371 . S
C156 H159 0.931 . S
C157 C153 1.391 . S
C157 C156 1.371 . S
C157 H164 0.930 . S
H158 C155 0.928 . S
H159 C156 0.931 . S
H160 C136 0.930 . S
H161 C133 0.930 . S
H162 C142 0.930 . S
H163 C154 0.929 . S
H164 C157 0.930 . S
C165 C166 1.351 . S
C165 N168 1.368 . S
C165 H170 0.931 . S
C166 C165 1.351 . S
C166 N167 1.373 . S
C166 H194 0.930 . S
N167 C166 1.373 . S
N167 C169 1.340 . S
N168 C165 1.368 . S
N168 C169 1.321 . S
N168 Co171 2.135 . S
C169 N167 1.340 . S
C169 N168 1.321 . S
C169 H193 0.930 . S
H170 C165 0.931 . S
Co171 N168 2.135 . S
Co171 N174 2.121 . S
Co171 O179 2.055 . S
Co171 O182 2.039 . S
Co171 N185 2.140 . S
C172 O173 1.227 . S
C172 O182 1.265 . S
O173 C172 1.227 . S
N174 Co171 2.121 . S
N174 C176 1.375 . S
N174 C177 1.313 . S
C175 C176 1.338 . S
C175 N178 1.377 . S
C175 H195 0.930 . S
C176 N174 1.375 . S
C176 C175 1.338 . S
C176 H180 0.931 . S
C177 N174 1.313 . S
C177 N178 1.344 . S
C177 H181 0.930 . S
N178 C175 1.377 . S
N178 C177 1.344 . S
O179 Co171 2.055 . S
O179 C183 1.253 . S
H180 C176 0.931 . S
H181 C177 0.930 . S
O182 Co171 2.039 . S
O182 C172 1.265 . S
C183 O179 1.253 . S
C183 O184 1.227 . S
O184 C183 1.227 . S
N185 Co171 2.140 . S
N185 C188 1.346 . S
N185 C189 1.345 . S
C186 C187 1.387 . S
C186 C190 1.391 . S
C187 C186 1.387 . S
C187 C188 1.369 . S
C187 H196 0.929 . S
C188 N185 1.346 . S
C188 C187 1.369 . S
C188 H191 0.928 . S
C189 N185 1.345 . S
C189 C190 1.371 . S
C189 H192 0.931 . S
C190 C186 1.391 . S
C190 C189 1.371 . S
C190 H197 0.930 . S
H191 C188 0.928 . S
H192 C189 0.931 . S
H193 C169 0.930 . S
H194 C166 0.930 . S
H195 C175 0.930 . S
H196 C187 0.929 . S
H197 C190 0.930 . S
C198 C199 1.351 . S
C198 N201 1.368 . S
C198 H203 0.931 . S
C199 C198 1.351 . S
C199 N200 1.373 . S
C199 H227 0.930 . S
N200 C199 1.373 . S
N200 C202 1.340 . S
N201 C198 1.368 . S
N201 C202 1.321 . S
N201 Co204 2.135 . S
C202 N200 1.340 . S
C202 N201 1.321 . S
C202 H226 0.930 . S
H203 C198 0.931 . S
Co204 N201 2.135 . S
Co204 N207 2.121 . S
Co204 O212 2.055 . S
Co204 O215 2.039 . S
Co204 N218 2.140 . S
C205 O206 1.227 . S
C205 O215 1.265 . S
O206 C205 1.227 . S
N207 Co204 2.121 . S
N207 C209 1.375 1_556 S
N207 C210 1.313 1_556 S
C208 C209 1.338 . S
C208 N211 1.377 . S
C208 H228 0.930 . S
C209 N207 1.375 1_554 S
C209 C208 1.338 . S
C209 H213 0.931 1_554 S
C210 N207 1.313 1_554 S
C210 N211 1.344 . S
C210 H214 0.930 . S
N211 C208 1.377 . S
N211 C210 1.344 . S
O212 Co204 2.055 . S
O212 C216 1.253 . S
H213 C209 0.931 1_556 S
H214 C210 0.930 . S
O215 Co204 2.039 . S
O215 C205 1.265 . S
C216 O212 1.253 . S
C216 O217 1.227 . S
O217 C216 1.227 . S
N218 Co204 2.140 . S
N218 C221 1.346 . S
N218 C222 1.345 . S
C219 C220 1.387 . S
C219 C223 1.391 . S
C220 C219 1.387 . S
C220 C221 1.369 . S
C220 H229 0.929 . S
C221 N218 1.346 . S
C221 C220 1.369 . S
C221 H224 0.928 . S
C222 N218 1.345 . S
C222 C223 1.371 . S
C222 H225 0.931 . S
C223 C219 1.391 . S
C223 C222 1.371 . S
C223 H230 0.930 1_556 S
H224 C221 0.928 . S
H225 C222 0.931 . S
H226 C202 0.930 . S
H227 C199 0.930 . S
H228 C208 0.930 . S
H229 C220 0.929 . S
H230 C223 0.930 1_554 S
C231 C232 1.351 . S
C231 N234 1.368 . S
C231 H236 0.931 . S
C232 C231 1.351 . S
C232 N233 1.373 . S
C232 H260 0.930 . S
N233 C232 1.373 . S
N233 C235 1.340 . S
N234 C231 1.368 . S
N234 C235 1.321 . S
N234 Co237 2.135 1_556 S
C235 N233 1.340 . S
C235 N234 1.321 . S
C235 H259 0.930 . S
H236 C231 0.931 . S
Co237 N234 2.135 1_554 S
Co237 N240 2.121 . S
Co237 O245 2.055 . S
Co237 O248 2.039 1_554 S
Co237 N251 2.140 . S
C238 O239 1.227 . S
C238 O248 1.265 . S
O239 C238 1.227 . S
N240 Co237 2.121 . S
N240 C242 1.375 . S
N240 C243 1.313 . S
C241 C242 1.338 . S
C241 N244 1.377 . S
C241 H261 0.930 . S
C242 N240 1.375 . S
C242 C241 1.338 . S
C242 H246 0.931 . S
C243 N240 1.313 . S
C243 N244 1.344 . S
C243 H247 0.930 . S
N244 C241 1.377 . S
N244 C243 1.344 . S
O245 Co237 2.055 . S
O245 C249 1.253 . S
H246 C242 0.931 . S
H247 C243 0.930 . S
O248 Co237 2.039 1_556 S
O248 C238 1.265 . S
C249 O245 1.253 . S
C249 O250 1.227 . S
O250 C249 1.227 . S
N251 Co237 2.140 . S
N251 C254 1.346 1_554 S
N251 C255 1.345 . S
C252 C253 1.387 1_554 S
C252 C256 1.391 . S
C253 C252 1.387 1_556 S
C253 C254 1.369 . S
C253 H262 0.929 . S
C254 N251 1.346 1_556 S
C254 C253 1.369 . S
C254 H257 0.928 . S
C255 N251 1.345 . S
C255 C256 1.371 . S
C255 H258 0.931 . S
C256 C252 1.391 . S
C256 C255 1.371 . S
C256 H263 0.930 . S
H257 C254 0.928 . S
H258 C255 0.931 . S
H259 C235 0.930 . S
H260 C232 0.930 . S
H261 C241 0.930 . S
H262 C253 0.929 . S
H263 C256 0.930 . S
C264 C265 1.363 . S
C264 C270 1.379 . S
C264 N272 1.356 . S
C265 C264 1.363 . S
C265 C271 1.363 1_554 S
C266 C267 1.363 1_556 S
C266 C271 1.379 . S
C266 N273 1.356 . S
C267 C266 1.363 1_554 S
C267 C270 1.363 . S
N268 C270 1.356 . S
N268 H280 0.984 . S
N268 H281 0.985 . S
N269 C271 1.356 . S
N269 H274 0.984 . S
N269 H275 0.985 . S
C270 C264 1.379 . S
C270 C267 1.363 . S
C270 N268 1.356 . S
C271 C265 1.363 1_556 S
C271 C266 1.379 . S
C271 N269 1.356 . S
N272 C264 1.356 . S
N272 H278 0.984 . S
N272 H279 0.984 . S
N273 C266 1.356 . S
N273 H276 0.984 . S
N273 H277 0.985 . S
H274 N269 0.984 . S
H275 N269 0.985 . S
H276 N273 0.984 . S
H277 N273 0.985 . S
H278 N272 0.984 . S
H279 N272 0.984 . S
H280 N268 0.984 . S
H281 N268 0.985 . S
C282 C283 1.363 . S
C282 C288 1.379 . S
C282 N290 1.356 . S
C283 C282 1.363 . S
C283 C289 1.363 . S
C284 C285 1.363 . S
C284 C289 1.379 1_565 S
C284 N291 1.356 . S
C285 C284 1.363 . S
C285 C288 1.363 1_565 S
N286 C288 1.356 1_565 S
N286 H298 0.984 1_565 S
N286 H299 0.985 . S
N287 C289 1.356 . S
N287 H292 0.984 . S
N287 H293 0.985 . S
C288 C282 1.379 . S
C288 C285 1.363 1_545 S
C288 N286 1.356 1_545 S
C289 C283 1.363 . S
C289 C284 1.379 1_545 S
C289 N287 1.356 . S
N290 C282 1.356 . S
N290 H296 0.984 . S
N290 H297 0.984 . S
N291 C284 1.356 . S
N291 H294 0.984 . S
N291 H295 0.985 . S
H292 N287 0.984 . S
H293 N287 0.985 . S
H294 N291 0.984 . S
H295 N291 0.985 . S
H296 N290 0.984 . S
H297 N290 0.984 . S
H298 N286 0.984 1_545 S
H299 N286 0.985 . S
C300 C301 1.363 . S
C300 C306 1.379 1_665 S
C300 N308 1.356 . S
C301 C300 1.363 . S
C301 C307 1.363 1_655 S
C302 C303 1.363 1_565 S
C302 C307 1.379 . S
C302 N309 1.356 . S
C303 C302 1.363 1_545 S
C303 C306 1.363 . S
N304 C306 1.356 . S
N304 H316 0.984 . S
N304 H317 0.985 . S
N305 C307 1.356 1_655 S
N305 H310 0.984 . S
N305 H311 0.985 1_655 S
C306 C300 1.379 1_445 S
C306 C303 1.363 . S
C306 N304 1.356 . S
C307 C301 1.363 1_455 S
C307 C302 1.379 . S
C307 N305 1.356 1_455 S
N308 C300 1.356 . S
N308 H314 0.984 1_565 S
N308 H315 0.984 . S
N309 C302 1.356 . S
N309 H312 0.984 1_565 S
N309 H313 0.985 . S
H310 N305 0.984 . S
H311 N305 0.985 1_455 S
H312 N309 0.984 1_545 S
H313 N309 0.985 . S
H314 N308 0.984 1_545 S
H315 N308 0.984 . S
H316 N304 0.984 . S
H317 N304 0.985 . S
C318 C319 1.363 1_655 S
C318 C324 1.379 . S
C318 N326 1.356 1_655 S
C319 C318 1.363 1_455 S
C319 C325 1.363 . S
C320 C321 1.363 . S
C320 C325 1.379 1_655 S
C320 N327 1.356 . S
C321 C320 1.363 . S
C321 C324 1.363 . S
N322 C324 1.356 . S
N322 H334 0.984 1_556 S
N322 H335 0.985 . S
N323 C325 1.356 . S
N323 H328 0.984 . S
N323 H329 0.985 . S
C324 C318 1.379 . S
C324 C321 1.363 . S
C324 N322 1.356 . S
C325 C319 1.363 . S
C325 C320 1.379 1_455 S
C325 N323 1.356 . S
N326 C318 1.356 1_455 S
N326 H332 0.984 1_456 S
N326 H333 0.984 . S
N327 C320 1.356 . S
N327 H330 0.984 . S
N327 H331 0.984 . S
H328 N323 0.984 . S
H329 N323 0.985 . S
H330 N327 0.984 . S
H331 N327 0.984 . S
H332 N326 0.984 1_654 S
H333 N326 0.984 . S
H334 N322 0.984 1_554 S
H335 N322 0.985 . S
C336 C337 1.363 . S
C336 C342 1.379 . S
C336 N344 1.356 . S
C337 C336 1.363 . S
C337 C343 1.363 . S
C338 C339 1.363 . S
C338 C343 1.379 . S
C338 N345 1.356 . S
C339 C338 1.363 . S
C339 C342 1.363 . S
N340 C342 1.356 . S
N340 H352 0.984 . S
N340 H353 0.985 . S
N341 C343 1.356 . S
N341 H346 0.984 . S
N341 H347 0.985 . S
C342 C336 1.379 . S
C342 C339 1.363 . S
C342 N340 1.356 . S
C343 C337 1.363 . S
C343 C338 1.379 . S
C343 N341 1.356 . S
N344 C336 1.356 . S
N344 H350 0.984 . S
N344 H351 0.984 . S
N345 C338 1.356 . S
N345 H348 0.984 . S
N345 H349 0.985 . S
H346 N341 0.984 . S
H347 N341 0.985 . S
H348 N345 0.984 . S
H349 N345 0.985 . S
H350 N344 0.984 . S
H351 N344 0.984 . S
H352 N340 0.984 . S
H353 N340 0.985 . S
C354 C355 1.363 . S
C354 C360 1.379 . S
C354 N362 1.356 . S
C355 C354 1.363 . S
C355 C361 1.363 . S
C356 C357 1.363 . S
C356 C361 1.379 . S
C356 N363 1.356 . S
C357 C356 1.363 . S
C357 C360 1.363 . S
N358 C360 1.356 . S
N358 H370 0.984 . S
N358 H371 0.985 . S
N359 C361 1.356 . S
N359 H364 0.984 1_556 S
N359 H365 0.985 . S
C360 C354 1.379 . S
C360 C357 1.363 . S
C360 N358 1.356 . S
C361 C355 1.363 . S
C361 C356 1.379 . S
C361 N359 1.356 . S
N362 C354 1.356 . S
N362 H368 0.984 . S
N362 H369 0.984 . S
N363 C356 1.356 . S
N363 H366 0.984 . S
N363 H367 0.985 . S
H364 N359 0.984 1_554 S
H365 N359 0.985 . S
H366 N363 0.984 . S
H367 N363 0.985 . S
H368 N362 0.984 . S
H369 N362 0.984 . S
H370 N358 0.984 . S
H371 N358 0.985 . S
C372 C373 1.363 . S
C372 C378 1.379 1_556 S
C372 N380 1.356 . S
C373 C372 1.363 . S
C373 C379 1.363 . S
C374 C375 1.363 . S
C374 C379 1.379 1_554 S
C374 N381 1.356 . S
C375 C374 1.363 . S
C375 C378 1.363 . S
N376 C378 1.356 . S
N376 H388 0.984 . S
N376 H389 0.985 . S
N377 C379 1.356 . S
N377 H382 0.984 . S
N377 H383 0.985 . S
C378 C372 1.379 1_554 S
C378 C375 1.363 . S
C378 N376 1.356 . S
C379 C373 1.363 . S
C379 C374 1.379 1_556 S
C379 N377 1.356 . S
N380 C372 1.356 . S
N380 H386 0.984 . S
N380 H387 0.984 . S
N381 C374 1.356 . S
N381 H384 0.984 . S
N381 H385 0.985 . S
H382 N377 0.984 . S
H383 N377 0.985 . S
H384 N381 0.984 . S
H385 N381 0.985 . S
H386 N380 0.984 . S
H387 N380 0.984 . S
H388 N376 0.984 . S
H389 N376 0.985 . S
C390 C391 1.363 . S
C390 C396 1.379 . S
C390 N398 1.356 . S
C391 C390 1.363 . S
C391 C397 1.363 . S
C392 C393 1.363 . S
C392 C397 1.379 . S
C392 N399 1.356 . S
C393 C392 1.363 . S
C393 C396 1.363 . S
N394 C396 1.356 . S
N394 H406 0.984 . S
N394 H407 0.985 . S
N395 C397 1.356 . S
N395 H400 0.984 . S
N395 H401 0.985 . S
C396 C390 1.379 . S
C396 C393 1.363 . S
C396 N394 1.356 . S
C397 C391 1.363 . S
C397 C392 1.379 . S
C397 N395 1.356 . S
N398 C390 1.356 . S
N398 H404 0.984 . S
N398 H405 0.984 . S
N399 C392 1.356 . S
N399 H402 0.984 . S
N399 H403 0.985 . S
H400 N395 0.984 . S
H401 N395 0.985 . S
H402 N399 0.984 . S
H403 N399 0.985 . S
H404 N398 0.984 . S
H405 N398 0.984 . S
H406 N394 0.984 . S
H407 N394 0.985 . S
C408 C409 1.363 . S
C408 C414 1.379 . S
C408 N416 1.356 . S
C409 C408 1.363 . S
C409 C415 1.363 . S
C410 C411 1.363 . S
C410 C415 1.379 . S
C410 N417 1.356 . S
C411 C410 1.363 . S
C411 C414 1.363 . S
N412 C414 1.356 . S
N412 H424 0.984 . S
N412 H425 0.985 . S
N413 C415 1.356 . S
N413 H418 0.984 . S
N413 H419 0.985 . S
C414 C408 1.379 . S
C414 C411 1.363 . S
C414 N412 1.356 . S
C415 C409 1.363 . S
C415 C410 1.379 . S
C415 N413 1.356 . S
N416 C408 1.356 . S
N416 H422 0.984 . S
N416 H423 0.984 1_556 S
N417 C410 1.356 . S
N417 H420 0.984 . S
N417 H421 0.985 . S
H418 N413 0.984 . S
H419 N413 0.985 . S
H420 N417 0.984 . S
H421 N417 0.985 . S
H422 N416 0.984 . S
H423 N416 0.984 1_554 S
H424 N412 0.984 . S
H425 N412 0.985 . S
C426 C427 1.363 . S
C426 C432 1.379 . S
C426 N434 1.356 . S
C427 C426 1.363 . S
C427 C433 1.363 . S
C428 C429 1.363 1_554 S
C428 C433 1.379 . S
C428 N435 1.356 1_554 S
C429 C428 1.363 1_556 S
C429 C432 1.363 1_556 S
N430 C432 1.356 . S
N430 H442 0.984 . S
N430 H443 0.985 1_554 S
N431 C433 1.356 . S
N431 H436 0.984 . S
N431 H437 0.985 . S
C432 C426 1.379 . S
C432 C429 1.363 1_554 S
C432 N430 1.356 . S
C433 C427 1.363 . S
C433 C428 1.379 . S
C433 N431 1.356 . S
N434 C426 1.356 . S
N434 H440 0.984 . S
N434 H441 0.984 . S
N435 C428 1.356 1_556 S
N435 H438 0.984 . S
N435 H439 0.985 . S
H436 N431 0.984 . S
H437 N431 0.985 . S
H438 N435 0.984 . S
H439 N435 0.985 . S
H440 N434 0.984 . S
H441 N434 0.984 . S
H442 N430 0.984 . S
H443 N430 0.985 1_556 S
C444 C445 1.363 . S
C444 C450 1.379 . S
C444 N452 1.356 . S
C445 C444 1.363 . S
C445 C451 1.363 . S
C446 C447 1.363 . S
C446 C451 1.379 . S
C446 N453 1.356 . S
C447 C446 1.363 . S
C447 C450 1.363 . S
N448 C450 1.356 . S
N448 H460 0.984 . S
N448 H461 0.985 . S
N449 C451 1.356 . S
N449 H454 0.984 . S
N449 H455 0.985 . S
C450 C444 1.379 . S
C450 C447 1.363 . S
C450 N448 1.356 . S
C451 C445 1.363 . S
C451 C446 1.379 . S
C451 N449 1.356 . S
N452 C444 1.356 . S
N452 H458 0.984 . S
N452 H459 0.984 . S
N453 C446 1.356 . S
N453 H456 0.984 . S
N453 H457 0.985 . S
H454 N449 0.984 . S
H455 N449 0.985 . S
H456 N453 0.984 . S
H457 N453 0.985 . S
H458 N452 0.984 . S
H459 N452 0.984 . S
H460 N448 0.984 . S
H461 N448 0.985 . S
C462 C463 1.363 . S
C462 C468 1.379 . S
C462 N470 1.356 . S
C463 C462 1.363 . S
C463 C469 1.363 . S
C464 C465 1.363 . S
C464 C469 1.379 . S
C464 N471 1.356 . S
C465 C464 1.363 . S
C465 C468 1.363 . S
N466 C468 1.356 . S
N466 H478 0.984 . S
N466 H479 0.985 . S
N467 C469 1.356 . S
N467 H472 0.984 . S
N467 H473 0.985 . S
C468 C462 1.379 . S
C468 C465 1.363 . S
C468 N466 1.356 . S
C469 C463 1.363 . S
C469 C464 1.379 . S
C469 N467 1.356 . S
N470 C462 1.356 . S
N470 H476 0.984 . S
N470 H477 0.984 . S
N471 C464 1.356 . S
N471 H474 0.984 . S
N471 H475 0.985 . S
H472 N467 0.984 . S
H473 N467 0.985 . S
H474 N471 0.984 . S
H475 N471 0.985 . S
H476 N470 0.984 . S
H477 N470 0.984 . S
H478 N466 0.984 . S
H479 N466 0.985 . S
C480 C481 1.363 . S
C480 C486 1.379 1_556 S
C480 N488 1.356 . S
C481 C480 1.363 . S
C481 C487 1.363 . S
C482 C483 1.363 1_556 S
C482 C487 1.379 . S
C482 N489 1.356 . S
C483 C482 1.363 1_554 S
C483 C486 1.363 . S
N484 C486 1.356 . S
N484 H496 0.984 . S
N484 H497 0.985 . S
N485 C487 1.356 . S
N485 H490 0.984 . S
N485 H491 0.985 . S
C486 C480 1.379 1_554 S
C486 C483 1.363 . S
C486 N484 1.356 . S
C487 C481 1.363 . S
C487 C482 1.379 . S
C487 N485 1.356 . S
N488 C480 1.356 . S
N488 H494 0.984 1_556 S
N488 H495 0.984 . S
N489 C482 1.356 . S
N489 H492 0.984 1_556 S
N489 H493 0.985 . S
H490 N485 0.984 . S
H491 N485 0.985 . S
H492 N489 0.984 1_554 S
H493 N489 0.985 . S
H494 N488 0.984 1_554 S
H495 N488 0.984 . S
H496 N484 0.984 . S
H497 N484 0.985 . S
C498 C499 1.363 . S
C498 C504 1.379 . S
C498 N506 1.356 . S
C499 C498 1.363 . S
C499 C505 1.363 . S
C500 C501 1.363 . S
C500 C505 1.379 . S
C500 N507 1.356 . S
C501 C500 1.363 . S
C501 C504 1.363 . S
N502 C504 1.356 . S
N502 H514 0.984 1_554 S
N502 H515 0.985 1_554 S
N503 C505 1.356 . S
N503 H508 0.984 . S
N503 H509 0.985 . S
C504 C498 1.379 . S
C504 C501 1.363 . S
C504 N502 1.356 . S
C505 C499 1.363 . S
C505 C500 1.379 . S
C505 N503 1.356 . S
N506 C498 1.356 . S
N506 H512 0.984 . S
N506 H513 0.984 . S
N507 C500 1.356 . S
N507 H510 0.984 . S
N507 H511 0.985 . S
H508 N503 0.984 . S
H509 N503 0.985 . S
H510 N507 0.984 . S
H511 N507 0.985 . S
H512 N506 0.984 . S
H513 N506 0.984 . S
H514 N502 0.984 1_556 S
H515 N502 0.985 1_556 S
C516 C517 1.363 . S
C516 C522 1.379 . S
C516 N524 1.356 . S
C517 C516 1.363 . S
C517 C523 1.363 . S
C518 C519 1.363 . S
C518 C523 1.379 . S
C518 N525 1.356 . S
C519 C518 1.363 . S
C519 C522 1.363 . S
N520 C522 1.356 . S
N520 H532 0.984 . S
N520 H533 0.985 . S
N521 C523 1.356 . S
N521 H526 0.984 . S
N521 H527 0.985 . S
C522 C516 1.379 . S
C522 C519 1.363 . S
C522 N520 1.356 . S
C523 C517 1.363 . S
C523 C518 1.379 . S
C523 N521 1.356 . S
N524 C516 1.356 . S
N524 H530 0.984 . S
N524 H531 0.984 . S
N525 C518 1.356 . S
N525 H528 0.984 . S
N525 H529 0.985 . S
H526 N521 0.984 . S
H527 N521 0.985 . S
H528 N525 0.984 . S
H529 N525 0.985 . S
H530 N524 0.984 . S
H531 N524 0.984 . S
H532 N520 0.984 . S
H533 N520 0.985 . S
C534 C535 1.363 . S
C534 C540 1.379 . S
C534 N542 1.356 . S
C535 C534 1.363 . S
C535 C541 1.363 . S
C536 C537 1.363 . S
C536 C541 1.379 . S
C536 N543 1.356 . S
C537 C536 1.363 . S
C537 C540 1.363 . S
N538 C540 1.356 . S
N538 H550 0.984 . S
N538 H551 0.985 . S
N539 C541 1.356 . S
N539 H544 0.984 . S
N539 H545 0.985 . S
C540 C534 1.379 . S
C540 C537 1.363 . S
C540 N538 1.356 . S
C541 C535 1.363 . S
C541 C536 1.379 . S
C541 N539 1.356 . S
N542 C534 1.356 . S
N542 H548 0.984 . S
N542 H549 0.984 . S
N543 C536 1.356 . S
N543 H546 0.984 . S
N543 H547 0.985 . S
H544 N539 0.984 . S
H545 N539 0.985 . S
H546 N543 0.984 . S
H547 N543 0.985 . S
H548 N542 0.984 . S
H549 N542 0.984 . S
H550 N538 0.984 . S
H551 N538 0.985 . S
C552 C553 1.363 . S
C552 C558 1.379 . S
C552 N560 1.356 . S
C553 C552 1.363 . S
C553 C559 1.363 . S
C554 C555 1.363 . S
C554 C559 1.379 . S
C554 N561 1.356 . S
C555 C554 1.363 . S
C555 C558 1.363 . S
N556 C558 1.356 . S
N556 H568 0.984 . S
N556 H569 0.985 . S
N557 C559 1.356 . S
N557 H562 0.984 . S
N557 H563 0.985 . S
C558 C552 1.379 . S
C558 C555 1.363 . S
C558 N556 1.356 . S
C559 C553 1.363 . S
C559 C554 1.379 . S
C559 N557 1.356 . S
N560 C552 1.356 . S
N560 H566 0.984 . S
N560 H567 0.984 . S
N561 C554 1.356 . S
N561 H564 0.984 . S
N561 H565 0.985 . S
H562 N557 0.984 . S
H563 N557 0.985 . S
H564 N561 0.984 . S
H565 N561 0.985 . S
H566 N560 0.984 . S
H567 N560 0.984 . S
H568 N556 0.984 . S
H569 N556 0.985 . S
C570 C571 1.363 . S
C570 C576 1.379 . S
C570 N578 1.356 . S
C571 C570 1.363 . S
C571 C577 1.363 . S
C572 C573 1.363 . S
C572 C577 1.379 . S
C572 N579 1.356 . S
C573 C572 1.363 . S
C573 C576 1.363 . S
N574 C576 1.356 . S
N574 H586 0.984 . S
N574 H587 0.985 . S
N575 C577 1.356 . S
N575 H580 0.984 . S
N575 H581 0.985 . S
C576 C570 1.379 . S
C576 C573 1.363 . S
C576 N574 1.356 . S
C577 C571 1.363 . S
C577 C572 1.379 . S
C577 N575 1.356 . S
N578 C570 1.356 . S
N578 H584 0.984 . S
N578 H585 0.984 . S
N579 C572 1.356 . S
N579 H582 0.984 . S
N579 H583 0.985 . S
H580 N575 0.984 . S
H581 N575 0.985 . S
H582 N579 0.984 . S
H583 N579 0.985 . S
H584 N578 0.984 . S
H585 N578 0.984 . S
H586 N574 0.984 . S
H587 N574 0.985 . S
C588 C589 1.363 . S
C588 C594 1.379 . S
C588 N596 1.356 1_556 S
C589 C588 1.363 . S
C589 C595 1.363 . S
C590 C591 1.363 . S
C590 C595 1.379 . S
C590 N597 1.356 . S
C591 C590 1.363 . S
C591 C594 1.363 . S
N592 C594 1.356 . S
N592 H604 0.984 1_556 S
N592 H605 0.985 . S
N593 C595 1.356 . S
N593 H598 0.984 . S
N593 H599 0.985 . S
C594 C588 1.379 . S
C594 C591 1.363 . S
C594 N592 1.356 . S
C595 C589 1.363 . S
C595 C590 1.379 . S
C595 N593 1.356 . S
N596 C588 1.356 1_554 S
N596 H602 0.984 . S
N596 H603 0.984 . S
N597 C590 1.356 . S
N597 H600 0.984 . S
N597 H601 0.985 . S
H598 N593 0.984 . S
H599 N593 0.985 . S
H600 N597 0.984 . S
H601 N597 0.985 . S
H602 N596 0.984 . S
H603 N596 0.984 . S
H604 N592 0.984 1_554 S
H605 N592 0.985 . S
C606 C607 1.363 . S
C606 C612 1.379 . S
C606 N614 1.356 . S
C607 C606 1.363 . S
C607 C613 1.363 . S
C608 C609 1.363 . S
C608 C613 1.379 . S
C608 N615 1.356 . S
C609 C608 1.363 . S
C609 C612 1.363 . S
N610 C612 1.356 . S
N610 H622 0.984 . S
N610 H623 0.985 . S
N611 C613 1.356 . S
N611 H616 0.984 . S
N611 H617 0.985 . S
C612 C606 1.379 . S
C612 C609 1.363 . S
C612 N610 1.356 . S
C613 C607 1.363 . S
C613 C608 1.379 . S
C613 N611 1.356 . S
N614 C606 1.356 . S
N614 H620 0.984 . S
N614 H621 0.984 . S
N615 C608 1.356 . S
N615 H618 0.984 . S
N615 H619 0.985 . S
H616 N611 0.984 . S
H617 N611 0.985 . S
H618 N615 0.984 . S
H619 N615 0.985 . S
H620 N614 0.984 . S
H621 N614 0.984 . S
H622 N610 0.984 . S
H623 N610 0.985 . S
C265 C249 1.254 . S
C267 C18 1.255 . S
C283 C150 1.265 . S
C285 C51 1.265 . S
C301 C183 1.255 . S
C303 C84 1.254 . S
C319 C216 1.265 . S
C321 C117 1.265 . S
C337 N2 1.391 . S
C339 N13 1.393 . S
C355 N35 1.367 1_556 S
C357 N46 1.370 . S
C373 N79 1.391 . S
C375 N68 1.388 . S
C391 N112 1.413 . S
C393 N101 1.410 . S
C409 N134 1.410 1_556 S
C411 N145 1.413 . S
C427 N178 1.393 . S
C429 N167 1.391 . S
C445 N200 1.367 . S
C447 N211 1.370 . S
C463 N233 1.388 . S
C465 N244 1.391 . S
C481 C219 1.442 . S
C483 C21 1.450 . S
C499 C40 1.438 . S
C501 C252 1.464 . S
C517 C153 1.676 . S
C519 C73 1.652 . S
C535 C106 1.638 . S
C537 C172 1.621 . S
C553 C186 1.450 . S
C555 C54 1.442 . S
C571 C87 1.464 . S
C573 C205 1.438 . S
C589 C238 1.652 . S
C591 C120 1.676 . S
C607 C7 1.621 . S
C609 C139 1.638 . S
