# Generated by pormake.
# Topology whh, (6)-cn, num edge types: 1
# Building blocks:
#     Node 0, Type 0, BuildingBlock: MIFKUJ_clean_sbu_0, # of connection points: 6
#     Node 1, Type 0, BuildingBlock: MIFKUJ_clean_sbu_0, # of connection points: 6
#     Node 2, Type 0, BuildingBlock: MIFKUJ_clean_sbu_0, # of connection points: 6
#     Node 3, Type 0, BuildingBlock: MIFKUJ_clean_sbu_0, # of connection points: 6
#     Node 4, Type 0, BuildingBlock: MIFKUJ_clean_sbu_0, # of connection points: 6
#     Node 5, Type 0, BuildingBlock: MIFKUJ_clean_sbu_0, # of connection points: 6
#     Node 6, Type 0, BuildingBlock: MIFKUJ_clean_sbu_0, # of connection points: 6
#     Node 7, Type 0, BuildingBlock: MIFKUJ_clean_sbu_0, # of connection points: 6
#     Node 8, Type 0, BuildingBlock: MIFKUJ_clean_sbu_0, # of connection points: 6
#     Node 9, Type 0, BuildingBlock: MIFKUJ_clean_sbu_0, # of connection points: 6
#     Node 10, Type 0, BuildingBlock: MIFKUJ_clean_sbu_0, # of connection points: 6
#     Node 11, Type 0, BuildingBlock: MIFKUJ_clean_sbu_0, # of connection points: 6
#     Node 12, Type 0, BuildingBlock: MIFKUJ_clean_sbu_0, # of connection points: 6
#     Node 13, Type 0, BuildingBlock: MIFKUJ_clean_sbu_0, # of connection points: 6
#     Node 14, Type 0, BuildingBlock: MIFKUJ_clean_sbu_0, # of connection points: 6
#     Node 15, Type 0, BuildingBlock: MIFKUJ_clean_sbu_0, # of connection points: 6
#     Edge 16, Type (0, 0), BuildingBlock: OJICUG_clean_linker_0, # of connection points: 2
#     Edge 17, Type (0, 0), BuildingBlock: OJICUG_clean_linker_0, # of connection points: 2
#     Edge 18, Type (0, 0), BuildingBlock: OJICUG_clean_linker_0, # of connection points: 2
#     Edge 19, Type (0, 0), BuildingBlock: OJICUG_clean_linker_0, # of connection points: 2
#     Edge 20, Type (0, 0), BuildingBlock: OJICUG_clean_linker_0, # of connection points: 2
#     Edge 21, Type (0, 0), BuildingBlock: OJICUG_clean_linker_0, # of connection points: 2
#     Edge 22, Type (0, 0), BuildingBlock: OJICUG_clean_linker_0, # of connection points: 2
#     Edge 23, Type (0, 0), BuildingBlock: OJICUG_clean_linker_0, # of connection points: 2
#     Edge 24, Type (0, 0), BuildingBlock: OJICUG_clean_linker_0, # of connection points: 2
#     Edge 25, Type (0, 0), BuildingBlock: OJICUG_clean_linker_0, # of connection points: 2
#     Edge 26, Type (0, 0), BuildingBlock: OJICUG_clean_linker_0, # of connection points: 2
#     Edge 27, Type (0, 0), BuildingBlock: OJICUG_clean_linker_0, # of connection points: 2
#     Edge 28, Type (0, 0), BuildingBlock: OJICUG_clean_linker_0, # of connection points: 2
#     Edge 29, Type (0, 0), BuildingBlock: OJICUG_clean_linker_0, # of connection points: 2
#     Edge 30, Type (0, 0), BuildingBlock: OJICUG_clean_linker_0, # of connection points: 2
#     Edge 31, Type (0, 0), BuildingBlock: OJICUG_clean_linker_0, # of connection points: 2
#     Edge 32, Type (0, 0), BuildingBlock: OJICUG_clean_linker_0, # of connection points: 2
#     Edge 33, Type (0, 0), BuildingBlock: OJICUG_clean_linker_0, # of connection points: 2
#     Edge 34, Type (0, 0), BuildingBlock: OJICUG_clean_linker_0, # of connection points: 2
#     Edge 35, Type (0, 0), BuildingBlock: OJICUG_clean_linker_0, # of connection points: 2
#     Edge 36, Type (0, 0), BuildingBlock: OJICUG_clean_linker_0, # of connection points: 2
#     Edge 37, Type (0, 0), BuildingBlock: OJICUG_clean_linker_0, # of connection points: 2
#     Edge 38, Type (0, 0), BuildingBlock: OJICUG_clean_linker_0, # of connection points: 2
#     Edge 39, Type (0, 0), BuildingBlock: OJICUG_clean_linker_0, # of connection points: 2
#     Edge 40, Type (0, 0), BuildingBlock: OJICUG_clean_linker_0, # of connection points: 2
#     Edge 41, Type (0, 0), BuildingBlock: OJICUG_clean_linker_0, # of connection points: 2
#     Edge 42, Type (0, 0), BuildingBlock: OJICUG_clean_linker_0, # of connection points: 2
#     Edge 43, Type (0, 0), BuildingBlock: OJICUG_clean_linker_0, # of connection points: 2
#     Edge 44, Type (0, 0), BuildingBlock: OJICUG_clean_linker_0, # of connection points: 2
#     Edge 45, Type (0, 0), BuildingBlock: OJICUG_clean_linker_0, # of connection points: 2
#     Edge 46, Type (0, 0), BuildingBlock: OJICUG_clean_linker_0, # of connection points: 2
#     Edge 47, Type (0, 0), BuildingBlock: OJICUG_clean_linker_0, # of connection points: 2
#     Edge 48, Type (0, 0), BuildingBlock: OJICUG_clean_linker_0, # of connection points: 2
#     Edge 49, Type (0, 0), BuildingBlock: OJICUG_clean_linker_0, # of connection points: 2
#     Edge 50, Type (0, 0), BuildingBlock: OJICUG_clean_linker_0, # of connection points: 2
#     Edge 51, Type (0, 0), BuildingBlock: OJICUG_clean_linker_0, # of connection points: 2
#     Edge 52, Type (0, 0), BuildingBlock: OJICUG_clean_linker_0, # of connection points: 2
#     Edge 53, Type (0, 0), BuildingBlock: OJICUG_clean_linker_0, # of connection points: 2
#     Edge 54, Type (0, 0), BuildingBlock: OJICUG_clean_linker_0, # of connection points: 2
#     Edge 55, Type (0, 0), BuildingBlock: OJICUG_clean_linker_0, # of connection points: 2
#     Edge 56, Type (0, 0), BuildingBlock: OJICUG_clean_linker_0, # of connection points: 2
#     Edge 57, Type (0, 0), BuildingBlock: OJICUG_clean_linker_0, # of connection points: 2
#     Edge 58, Type (0, 0), BuildingBlock: OJICUG_clean_linker_0, # of connection points: 2
#     Edge 59, Type (0, 0), BuildingBlock: OJICUG_clean_linker_0, # of connection points: 2
#     Edge 60, Type (0, 0), BuildingBlock: OJICUG_clean_linker_0, # of connection points: 2
#     Edge 61, Type (0, 0), BuildingBlock: OJICUG_clean_linker_0, # of connection points: 2
#     Edge 62, Type (0, 0), BuildingBlock: OJICUG_clean_linker_0, # of connection points: 2
#     Edge 63, Type (0, 0), BuildingBlock: OJICUG_clean_linker_0, # of connection points: 2
# Relax obj value: 0.513
# Max RMSD: 0.324
# Mean RMSD: 0.297
data_MOF--net-whh--node1-MIFKUJ_clean_sbu_0--edge1-OJICUG_clean_linker_0
_symmetry_space_group_name_H-M    P1
_symmetry_Int_Tables_number       1
_symmetry_cell_setting            triclinic
loop_
_symmetry_equiv_pos_as_xyz
'x, y, z'
_cell_length_a     28.573209
_cell_length_b     28.294399
_cell_length_c     29.870357
_cell_angle_alpha  92.72978
_cell_angle_beta   85.439192
_cell_angle_gamma 90.453866
loop_
_atom_site_label
_atom_site_type_symbol
_atom_site_fract_x
_atom_site_fract_y
_atom_site_fract_z
_atom_type_partial_charge
Zn0 Zn 0.0849 0.65198 0.10476 0.0
Zn1 Zn 0.98627 0.61517 0.12607 0.0
C2 C 0.03934 0.72139 0.0509 0.0
O3 O 0.07266 0.71427 0.01841 0.0
C4 C 0.99943 0.54118 0.18327 0.0
O5 O 0.95616 0.55314 0.1968 0.0
O6 O 0.15008 0.68162 0.09406 0.0
O7 O 0.07027 0.65381 0.17257 0.0
O8 O 0.99566 0.67148 0.16781 0.0
C9 C 0.15336 0.72174 0.115 0.0
O10 O 0.11607 0.73881 0.13871 0.0
O11 O 0.04011 0.69962 0.08686 0.0
C12 C 0.90908 0.55659 0.10963 0.0
O13 O 0.94386 0.52703 0.0991 0.0
O14 O 0.91805 0.59786 0.12555 0.0
O15 O 0.00624 0.6191 0.06093 0.0
O16 O 0.07441 0.58884 0.06934 0.0
O17 O 0.02116 0.56282 0.15173 0.0
C18 C 0.03264 0.67425 0.18903 0.0
C19 C 0.03666 0.58782 0.04923 0.0
Zn20 Zn 0.86326 0.06814 0.12059 0.0
Zn21 Zn 0.89571 0.96591 0.12799 0.0
C22 C 0.79456 0.01832 0.06228 0.0
O23 O 0.80767 0.04548 0.02903 0.0
C24 C 0.97314 0.01063 0.18188 0.0
O25 O 0.95675 0.05348 0.1789 0.0
O26 O 0.84434 0.13436 0.10981 0.0
O27 O 0.85847 0.05759 0.18608 0.0
O28 O 0.84161 0.98167 0.17368 0.0
C29 C 0.80227 0.14716 0.10666 0.0
O30 O 0.76797 0.11641 0.11294 0.0
O31 O 0.8138 0.02325 0.099 0.0
C32 C 0.93797 0.89088 0.08527 0.0
O33 O 0.96564 0.92743 0.07827 0.0
O34 O 0.90028 0.89658 0.1107 0.0
O35 O 0.89747 0.99288 0.06685 0.0
O36 O 0.92734 0.05975 0.08855 0.0
O37 O 0.95412 0.97581 0.16169 0.0
C38 C 0.83833 0.01957 0.19865 0.0
C39 C 0.92756 0.02509 0.06034 0.0
Zn40 Zn 0.42764 0.84571 0.09513 0.0
Zn41 Zn 0.53326 0.88021 0.1079 0.0
C42 C 0.45316 0.75396 0.07685 0.0
O43 O 0.41578 0.75255 0.10536 0.0
C44 C 0.5267 0.96941 0.16317 0.0
O45 O 0.55533 0.98703 0.13156 0.0
O46 O 0.35964 0.82517 0.08898 0.0
O47 O 0.44453 0.83625 0.1594 0.0
O48 O 0.51893 0.81884 0.13874 0.0
C49 C 0.32881 0.8253 0.12211 0.0
O50 O 0.33943 0.84386 0.16119 0.0
O51 O 0.46589 0.79359 0.0612 0.0
C52 C 0.61863 0.91882 0.06843 0.0
O53 O 0.58799 0.93592 0.04332 0.0
O54 O 0.60422 0.89196 0.09978 0.0
O55 O 0.50933 0.88841 0.04631 0.0
O56 O 0.43884 0.91171 0.06983 0.0
O57 O 0.50911 0.92852 0.15635 0.0
C58 C 0.48234 0.81448 0.16581 0.0
C59 C 0.47598 0.91721 0.04423 0.0
Zn60 Zn 0.63383 0.5171 0.04514 0.0
Zn61 Zn 0.71429 0.42811 0.10748 0.0
C62 C 0.59365 0.46225 0.97099 0.0
O63 O 0.59741 0.43404 0.9347 0.0
C64 C 0.76207 0.42617 0.18553 0.0
O65 O 0.72888 0.39425 0.19213 0.0
O66 O 0.59334 0.57329 0.03682 0.0
O67 O 0.61419 0.49 0.10764 0.0
O68 O 0.65308 0.43693 0.14365 0.0
C69 C 0.58252 0.59889 0.07205 0.0
O70 O 0.59928 0.58831 0.10999 0.0
O71 O 0.62912 0.4685 0.9938 0.0
C72 C 0.76505 0.34383 0.08377 0.0
O73 O 0.80016 0.37395 0.08516 0.0
O74 O 0.72332 0.35937 0.0896 0.0
O75 O 0.70761 0.46888 0.05723 0.0
O76 O 0.69967 0.5423 0.04344 0.0
O77 O 0.76413 0.4483 0.14932 0.0
C78 C 0.61777 0.46373 0.14103 0.0
C79 C 0.72575 0.50964 0.05424 0.0
Zn80 Zn 0.08592 0.83915 0.41837 0.0
Zn81 Zn 0.9821 0.87284 0.40036 0.0
C82 C 0.06885 0.75224 0.46568 0.0
O83 O 0.10894 0.76073 0.48328 0.0
C84 C 0.03529 0.9522 0.34465 0.0
O85 O 0.04826 0.97914 0.37845 0.0
O86 O 0.15611 0.82294 0.41939 0.0
O87 O 0.06816 0.82555 0.35421 0.0
O88 O 0.99312 0.80815 0.37153 0.0
C89 C 0.17058 0.78299 0.40219 0.0
O90 O 0.14065 0.75478 0.38285 0.0
O91 O 0.04864 0.78605 0.44836 0.0
C92 C 0.91425 0.93865 0.41842 0.0
O93 O 0.95473 0.9608 0.41568 0.0
O94 O 0.91381 0.89422 0.40912 0.0
O95 O 0.00157 0.88127 0.46331 0.0
O96 O 0.07183 0.90707 0.44639 0.0
O97 O 0.01212 0.91436 0.35185 0.0
C98 C 0.03111 0.80175 0.34647 0.0
C99 C 0.03215 0.91303 0.46833 0.0
Zn100 Zn 0.6685 0.0858 0.43028 0.0
Zn101 Zn 0.63018 0.97327 0.40618 0.0
C102 C 0.75375 0.05791 0.4602 0.0
O103 O 0.76298 0.10189 0.45026 0.0
C104 C 0.57235 0.02126 0.34115 0.0
O105 O 0.59356 0.06124 0.35108 0.0
O106 O 0.68885 0.1543 0.43879 0.0
O107 O 0.68618 0.06548 0.36607 0.0
O108 O 0.69168 0.98726 0.37158 0.0
C109 C 0.67807 0.18503 0.41176 0.0
O110 O 0.64998 0.17278 0.38039 0.0
O111 O 0.71156 0.04338 0.46074 0.0
C112 C 0.57892 0.89662 0.43459 0.0
O113 O 0.54876 0.93125 0.43478 0.0
O114 O 0.62145 0.90415 0.42056 0.0
O115 O 0.62292 0.00918 0.46545 0.0
O116 O 0.59959 0.0785 0.44951 0.0
O117 O 0.58041 0.98469 0.3625 0.0
C118 C 0.704 0.02551 0.35274 0.0
C119 C 0.59107 0.03998 0.4684 0.0
Zn120 Zn 0.44049 0.65084 0.39073 0.0
Zn121 Zn 0.54211 0.62133 0.35677 0.0
C122 C 0.48164 0.72188 0.45354 0.0
O123 O 0.44373 0.71777 0.48102 0.0
C124 C 0.53721 0.53092 0.31041 0.0
O125 O 0.55887 0.51771 0.34493 0.0
O126 O 0.37298 0.67452 0.40583 0.0
O127 O 0.45258 0.6603 0.32359 0.0
O128 O 0.52507 0.68395 0.33236 0.0
C129 C 0.36281 0.71827 0.40447 0.0
O130 O 0.3968 0.74886 0.39591 0.0
O131 O 0.48597 0.69641 0.41743 0.0
C132 C 0.63629 0.62564 0.38484 0.0
O133 O 0.61558 0.64894 0.41996 0.0
O134 O 0.61248 0.6141 0.35179 0.0
O135 O 0.52468 0.60161 0.4203 0.0
O136 O 0.44977 0.58556 0.4165 0.0
O137 O 0.52153 0.57281 0.31118 0.0
C138 C 0.48792 0.6859 0.31158 0.0
C139 C 0.48866 0.57776 0.43301 0.0
Zn140 Zn 0.85424 0.43048 0.40338 0.0
Zn141 Zn 0.98486 0.48302 0.35567 0.0
C142 C 0.803 0.52112 0.41194 0.0
O143 O 0.82857 0.53182 0.44568 0.0
C144 C 0.06793 0.43077 0.31565 0.0
O145 O 0.10507 0.40386 0.31611 0.0
O146 O 0.81753 0.3693 0.41378 0.0
O147 O 0.90185 0.42255 0.34751 0.0
O148 O 0.94014 0.47414 0.30544 0.0
C149 C 0.77627 0.36441 0.40081 0.0
O150 O 0.75781 0.39925 0.38074 0.0
O151 O 0.80881 0.4815 0.39044 0.0
C152 C 0.03863 0.56316 0.38948 0.0
O153 O 0.07029 0.53045 0.39311 0.0
O154 O 0.00131 0.55193 0.37082 0.0
O155 O 0.94093 0.46534 0.40556 0.0
O156 O 0.89009 0.45053 0.45988 0.0
O157 O 0.04124 0.43838 0.35131 0.0
C158 C 0.90417 0.44755 0.31295 0.0
C159 C 0.93088 0.46528 0.44715 0.0
Zn160 Zn 0.01823 0.39213 0.88466 0.0
Zn161 Zn 0.91662 0.35465 0.90555 0.0
C162 C 0.00584 0.46987 0.82996 0.0
O163 O 0.05025 0.46119 0.81817 0.0
C164 C 0.95972 0.28024 0.95574 0.0
O165 O 0.92402 0.28286 0.98632 0.0
O166 O 0.0872 0.40834 0.88596 0.0
O167 O 0.99634 0.38674 0.94927 0.0
O168 O 0.92789 0.41704 0.94168 0.0
C169 C 0.09707 0.44912 0.9026 0.0
O170 O 0.06281 0.47896 0.91428 0.0
O171 O 0.98396 0.44523 0.85926 0.0
C172 C 0.84663 0.28599 0.89307 0.0
O173 O 0.88367 0.26891 0.86897 0.0
O174 O 0.85066 0.32543 0.91506 0.0
O175 O 0.93265 0.35412 0.83799 0.0
O176 O 0.00741 0.33631 0.84243 0.0
O177 O 0.96106 0.30648 0.92258 0.0
C178 C 0.96597 0.41801 0.9613 0.0
C179 C 0.97015 0.33333 0.82158 0.0
Zn180 Zn 0.10966 0.04084 0.86553 0.0
Zn181 Zn 0.15087 0.94066 0.87527 0.0
C182 C 0.03564 0.98898 0.81289 0.0
O183 O 0.06058 0.95006 0.80953 0.0
C184 C 0.21461 0.99886 0.93437 0.0
O185 O 0.19865 0.97757 0.97068 0.0
O186 O 0.10002 0.10975 0.88297 0.0
O187 O 0.11341 0.01561 0.92667 0.0
O188 O 0.08628 0.94698 0.90695 0.0
C189 C 0.06232 0.11269 0.90879 0.0
O190 O 0.03711 0.07436 0.91535 0.0
O191 O 0.04967 0.02488 0.8354 0.0
C192 C 0.21137 0.86318 0.89646 0.0
O193 O 0.2452 0.89487 0.89685 0.0
O194 O 0.17078 0.87512 0.88676 0.0
O195 O 0.15605 0.95054 0.80957 0.0
O196 O 0.16376 0.0285 0.81855 0.0
O197 O 0.19881 0.98741 0.89682 0.0
C198 C 0.08531 0.98205 0.93471 0.0
C199 C 0.17138 0.98993 0.79524 0.0
Zn200 Zn 0.46808 0.13884 0.89067 0.0
Zn201 Zn 0.57042 0.16363 0.90571 0.0
C202 C 0.47237 0.05702 0.82723 0.0
O203 O 0.43847 0.03994 0.85421 0.0
C204 C 0.54396 0.25243 0.94103 0.0
O205 O 0.58157 0.2608 0.91429 0.0
O206 O 0.39836 0.1269 0.89522 0.0
O207 O 0.48821 0.12121 0.95071 0.0
O208 O 0.55647 0.09467 0.92355 0.0
C209 C 0.37483 0.12348 0.93294 0.0
O210 O 0.39464 0.13507 0.97012 0.0
O211 O 0.49366 0.09434 0.83994 0.0
C212 C 0.66941 0.18568 0.88145 0.0
O213 O 0.65853 0.17058 0.84129 0.0
O214 O 0.63866 0.18302 0.9145 0.0
O215 O 0.55538 0.18266 0.84299 0.0
O216 O 0.48246 0.2029 0.86567 0.0
O217 O 0.5315 0.20972 0.94645 0.0
C218 C 0.5191 0.08929 0.94905 0.0
C219 C 0.51855 0.20661 0.838 0.0
Zn220 Zn 0.2922 0.58093 0.89298 0.0
Zn221 Zn 0.37743 0.49597 0.95154 0.0
C222 C 0.24037 0.5847 0.81827 0.0
O223 O 0.2731 0.61701 0.81128 0.0
C224 C 0.4192 0.55914 0.01955 0.0
O225 O 0.41652 0.59106 0.05304 0.0
O226 O 0.28509 0.64954 0.91173 0.0
O227 O 0.30137 0.54015 0.9425 0.0
O228 O 0.3123 0.46739 0.95642 0.0
C229 C 0.24379 0.66581 0.91928 0.0
O230 O 0.20805 0.63636 0.91897 0.0
O231 O 0.24 0.56153 0.85377 0.0
C232 C 0.41321 0.40538 0.97858 0.0
O233 O 0.37089 0.39863 0.99783 0.0
O234 O 0.42267 0.44365 0.95906 0.0
O235 O 0.3937 0.5202 0.88779 0.0
O236 O 0.35135 0.5719 0.8536 0.0
O237 O 0.38254 0.54858 0.99958 0.0
C238 C 0.28449 0.49899 0.94655 0.0
C239 C 0.38733 0.54563 0.85442 0.0
Zn240 Zn 0.01534 0.13013 0.60833 0.0
Zn241 Zn 0.91122 0.17102 0.5911 0.0
C242 C 0.94989 0.06853 0.67332 0.0
O243 O 0.91098 0.09279 0.67298 0.0
C244 C 0.93136 0.2567 0.54285 0.0
O245 O 0.89164 0.24868 0.52441 0.0
O246 O 0.0831 0.10806 0.59523 0.0
O247 O 0.99337 0.12901 0.54664 0.0
O248 O 0.92378 0.10252 0.56406 0.0
C249 C 0.08383 0.06336 0.58709 0.0
O250 O 0.04452 0.03949 0.593 0.0
O251 O 0.98688 0.08114 0.65041 0.0
C252 C 0.82729 0.22889 0.60463 0.0
O253 O 0.85694 0.25726 0.62419 0.0
O254 O 0.8417 0.18851 0.58853 0.0
O255 O 0.92831 0.1854 0.65533 0.0
O256 O 0.00595 0.19237 0.64325 0.0
O257 O 0.95033 0.22285 0.56123 0.0
C258 C 0.96336 0.09668 0.54203 0.0
C259 C 0.9674 0.20346 0.66583 0.0
Zn260 Zn 0.36807 0.03831 0.57813 0.0
Zn261 Zn 0.33162 0.92786 0.56187 0.0
C262 C 0.43332 0.05137 0.646 0.0
O263 O 0.42307 0.09567 0.64032 0.0
C264 C 0.24666 0.95329 0.52536 0.0
O265 O 0.24081 0.9072 0.52237 0.0
O266 O 0.37896 0.10771 0.5643 0.0
O267 O 0.37469 1.00249 0.51814 0.0
O268 O 0.39805 0.9335 0.53572 0.0
C269 C 0.4201 0.11466 0.5461 0.0
O270 O 0.44919 0.07897 0.5413 0.0
O271 O 0.41586 0.01897 0.62127 0.0
C272 C 0.31775 0.83088 0.58822 0.0
O273 O 0.34637 0.84436 0.61876 0.0
O274 O 0.30819 0.85982 0.55902 0.0
O275 O 0.32334 0.95163 0.62616 0.0
O276 O 0.30668 0.02638 0.61401 0.0
O277 O 0.28655 0.96969 0.53386 0.0
C278 C 0.4057 0.97063 0.51421 0.0
C279 C 0.30056 0.98961 0.63706 0.0
Zn280 Zn 0.45726 0.38901 0.63776 0.0
Zn281 Zn 0.55848 0.36055 0.60628 0.0
C282 C 0.46283 0.48017 0.68241 0.0
O283 O 0.43917 0.49259 0.64889 0.0
C284 C 0.51971 0.28975 0.54219 0.0
O285 O 0.55759 0.29604 0.51516 0.0
O286 O 0.38697 0.39795 0.64361 0.0
O287 O 0.47475 0.4063 0.57343 0.0
O288 O 0.54869 0.42509 0.57939 0.0
C289 C 0.36235 0.38774 0.61082 0.0
O290 O 0.38188 0.36442 0.57515 0.0
O291 O 0.47955 0.43868 0.68117 0.0
C292 C 0.63625 0.29402 0.59541 0.0
O293 O 0.60196 0.26371 0.60379 0.0
O294 O 0.62632 0.33767 0.59284 0.0
O295 O 0.54583 0.35277 0.67349 0.0
O296 O 0.4739 0.32737 0.66483 0.0
O297 O 0.51442 0.31365 0.5792 0.0
C298 C 0.51019 0.43143 0.56166 0.0
C299 C 0.51085 0.32703 0.68612 0.0
Zn300 Zn 0.01403 0.52651 0.65307 0.0
Zn301 Zn 0.14206 0.5844 0.60346 0.0
C302 C 0.93071 0.57602 0.69728 0.0
O303 O 0.89222 0.60115 0.69807 0.0
C304 C 0.19553 0.49532 0.58982 0.0
O305 O 0.16949 0.486 0.55615 0.0
O306 O 0.99923 0.45741 0.63691 0.0
O307 O 0.05558 0.54719 0.6026 0.0
O308 O 0.10457 0.56553 0.54786 0.0
C309 C 0.96241 0.44615 0.61743 0.0
O310 O 0.93075 0.47874 0.61344 0.0
O311 O 0.95602 0.56897 0.66066 0.0
C312 C 0.21839 0.65251 0.60646 0.0
O313 O 0.23749 0.61822 0.62679 0.0
O314 O 0.17726 0.64663 0.59342 0.0
O315 O 0.09579 0.58936 0.66054 0.0
O316 O 0.06033 0.53524 0.70177 0.0
O317 O 0.18925 0.53372 0.61331 0.0
C318 C 0.06444 0.54935 0.56099 0.0
C319 C 0.09526 0.56315 0.6942 0.0
C320 C 0.8083 0.48805 0.06345 0.0
C321 C 0.77166 0.52074 0.07095 0.0
H322 H 0.88055 0.4735 0.07032 0.0
C323 C 0.77979 0.56469 0.09282 0.0
H324 H 0.8029 0.45445 0.0457 0.0
C325 C 0.82415 0.57585 0.10685 0.0
C326 C 0.86115 0.54339 0.09878 0.0
H327 H 0.75191 0.59049 0.09889 0.0
H328 H 0.82965 0.61024 0.12315 0.0
C329 C 0.85268 0.49916 0.07737 0.0
C330 C 0.01609 0.79916 0.02436 0.0
C331 C 0.00548 0.76007 0.05039 0.0
H332 H 0.002 0.87186 0.01508 0.0
C333 C 0.96595 0.76159 0.08176 0.0
H334 H 0.04608 0.79878 0.99975 0.0
C335 C 0.94067 0.80338 0.0906 0.0
C336 C 0.95488 0.84408 0.0683 0.0
H337 H 0.95654 0.73145 0.10172 0.0
H338 H 0.91267 0.80477 0.11731 0.0
C339 C 0.99101 0.841 0.0334 0.0
C340 C 0.68204 0.96323 0.02613 0.0
C341 C 0.66729 0.93697 0.06363 0.0
H342 H 0.73402 0.00924 0.996 0.0
C343 C 0.69749 0.93302 0.09799 0.0
H344 H 0.65969 0.96657 0.9988 0.0
C345 C 0.74017 0.95761 0.09632 0.0
C346 C 0.75344 0.98647 0.0602 0.0
H347 H 0.68716 0.91299 0.12721 0.0
H348 H 0.76182 0.95551 0.12432 0.0
C349 C 0.7247 0.98767 0.02439 0.0
C350 C 0.51542 0.70315 0.03477 0.0
C351 C 0.48531 0.71336 0.07339 0.0
H352 H 0.56947 0.65733 0.00351 0.0
C353 C 0.48697 0.68522 0.11074 0.0
H354 H 0.51472 0.72444 0.00564 0.0
C355 C 0.51883 0.64828 0.11006 0.0
C356 C 0.54888 0.63783 0.07159 0.0
H357 H 0.46442 0.69248 0.14116 0.0
H358 H 0.5197 0.62765 0.13964 0.0
C359 C 0.54652 0.66493 0.03358 0.0
C360 C 0.82623 0.94716 0.43321 0.0
C361 C 0.87175 0.96616 0.43394 0.0
H362 H 0.75223 0.96146 0.44187 0.0
C363 C 0.87728 0.0135 0.44927 0.0
H364 H 0.82092 0.91072 0.42189 0.0
C365 C 0.83854 0.04194 0.46143 0.0
C366 C 0.79304 0.02414 0.45805 0.0
H367 H 0.91175 0.02941 0.45069 0.0
H368 H 0.84438 0.07871 0.47142 0.0
C369 C 0.78702 0.97605 0.44513 0.0
C370 C 0.52117 0.84675 0.47748 0.0
C371 C 0.56131 0.84967 0.44728 0.0
H372 H 0.46507 0.80349 0.50432 0.0
C373 C 0.5797 0.80823 0.42532 0.0
H374 H 0.50656 0.87818 0.49519 0.0
C375 C 0.55553 0.76534 0.43018 0.0
C376 C 0.51312 0.76326 0.45758 0.0
H377 H 0.61057 0.80958 0.40189 0.0
H378 H 0.56852 0.73446 0.41034 0.0
C379 C 0.49751 0.80387 0.48294 0.0
C380 C 0.69974 0.56872 0.35632 0.0
C381 C 0.68317 0.60451 0.38776 0.0
H382 H 0.75055 0.51432 0.33932 0.0
C383 C 0.70926 0.61587 0.42481 0.0
H384 H 0.68056 0.55904 0.32737 0.0
C385 C 0.74958 0.59024 0.43161 0.0
C386 C 0.76437 0.55248 0.40169 0.0
H387 H 0.69757 0.64337 0.44955 0.0
H388 H 0.76791 0.59873 0.46135 0.0
C389 C 0.73978 0.54287 0.36331 0.0
C390 C 0.08669 0.6653 0.45955 0.0
C391 C 0.05693 0.70276 0.45131 0.0
H392 H 0.10466 0.59243 0.44618 0.0
C393 C 0.01973 0.69331 0.42388 0.0
H394 H 0.11579 0.67111 0.48031 0.0
C395 C 0.01356 0.64806 0.40394 0.0
C396 C 0.04452 0.61118 0.41079 0.0
H397 H 0.99617 0.72123 0.41661 0.0
H398 H 0.98507 0.64226 0.38244 0.0
C399 C 0.08064 0.62018 0.43947 0.0
C400 C 0.15561 0.5077 0.92953 0.0
C401 C 0.14579 0.46235 0.91113 0.0
H402 H 0.20732 0.55426 0.95573 0.0
C403 C 0.18243 0.42942 0.90329 0.0
H404 H 0.12814 0.53383 0.93629 0.0
C405 C 0.2278 0.44137 0.91441 0.0
C406 C 0.23734 0.48661 0.93301 0.0
H407 H 0.17594 0.39416 0.88935 0.0
H408 H 0.25537 0.41522 0.90853 0.0
C409 C 0.20093 0.51961 0.94044 0.0
C410 C 0.03353 0.2421 0.92293 0.0
C411 C 0.99318 0.24087 0.95324 0.0
H412 H 0.0876 0.20203 0.88491 0.0
C413 C 0.98139 0.19901 0.97467 0.0
H414 H 0.04386 0.2743 0.90648 0.0
C415 C 0.0064 0.15778 0.9622 0.0
C416 C 0.04363 0.15795 0.92836 0.0
H417 H 0.95075 0.19714 0.99835 0.0
H418 H 0.99472 0.12519 0.97722 0.0
C419 C 0.05866 0.20086 0.91057 0.0
C420 C 0.26962 0.05555 0.89566 0.0
C421 C 0.25227 0.03495 0.93568 0.0
H422 H 0.32147 0.10011 0.86356 0.0
C423 C 0.27253 0.04787 0.97581 0.0
H424 H 0.25458 0.04681 0.86412 0.0
C425 C 0.31085 0.07902 0.97547 0.0
C426 C 0.32969 0.09752 0.93494 0.0
H427 H 0.25973 0.03291 0.0072 0.0
H428 H 0.32695 0.08687 0.00661 0.0
C429 C 0.30793 0.08634 0.89528 0.0
C430 C 0.46904 0.28433 0.9808 0.0
C431 C 0.51267 0.29206 0.95698 0.0
H432 H 0.40318 0.31445 0.00692 0.0
C433 C 0.52455 0.33798 0.94417 0.0
H434 H 0.45885 0.24925 0.99103 0.0
C435 C 0.49269 0.37483 0.95264 0.0
C436 C 0.44834 0.36702 0.97476 0.0
H437 H 0.55776 0.34519 0.92564 0.0
H438 H 0.50224 0.40908 0.94011 0.0
C439 C 0.43716 0.32162 0.98979 0.0
C440 C 0.17045 0.05927 0.56283 0.0
C441 C 0.12614 0.03759 0.56798 0.0
H442 H 0.24396 0.04958 0.54436 0.0
C443 C 0.1216 0.98964 0.5542 0.0
H444 H 0.17495 0.09621 0.57284 0.0
C445 C 0.16034 0.96352 0.53678 0.0
C446 C 0.20513 0.98416 0.53386 0.0
H447 H 0.08802 0.97162 0.55752 0.0
H448 H 0.15533 0.92638 0.52777 0.0
C449 C 0.20978 0.03265 0.5461 0.0
C450 C 0.50394 0.21004 0.50699 0.0
C451 C 0.48842 0.2487 0.53525 0.0
H452 H 0.49392 0.13704 0.48832 0.0
C453 C 0.44562 0.245 0.56177 0.0
H454 H 0.53666 0.21177 0.48614 0.0
C455 C 0.42083 0.20219 0.56274 0.0
C456 C 0.43882 0.16237 0.53761 0.0
H457 H 0.43261 0.27443 0.58367 0.0
H458 H 0.38957 0.19945 0.58549 0.0
C459 C 0.47952 0.16717 0.50841 0.0
C460 C 0.24869 0.42671 0.56692 0.0
C461 C 0.23467 0.46364 0.59813 0.0
H462 H 0.29986 0.37341 0.54664 0.0
C463 C 0.26021 0.47181 0.63613 0.0
H464 H 0.22966 0.41932 0.53741 0.0
C465 C 0.30021 0.44522 0.64162 0.0
C466 C 0.3158 0.41007 0.60908 0.0
H467 H 0.2501 0.4997 0.66106 0.0
H468 H 0.32003 0.4537 0.67042 0.0
C469 C 0.28893 0.40033 0.57225 0.0
C470 C 0.92183 0.3893 0.56622 0.0
C471 C 0.95674 0.39805 0.59627 0.0
H472 H 0.88737 0.33844 0.52475 0.0
C473 C 0.98643 0.36074 0.60494 0.0
H474 H 0.89883 0.41738 0.55812 0.0
C475 C 0.98002 0.31529 0.58552 0.0
C476 C 0.94392 0.30613 0.55673 0.0
H477 H 0.01394 0.36635 0.62759 0.0
H478 H 0.00238 0.287 0.59435 0.0
C479 C 0.9156 0.34402 0.5466 0.0
C480 C 0.07493 0.72084 0.24716 0.0
C481 C 0.03262 0.70429 0.23101 0.0
H482 H 0.10768 0.76524 0.2958 0.0
C483 C 0.98996 0.71879 0.25405 0.0
H484 H 0.1084 0.71039 0.23014 0.0
C485 C 0.98955 0.74972 0.29197 0.0
C486 C 0.03178 0.76749 0.30732 0.0
H487 H 0.95675 0.70652 0.24259 0.0
H488 H 0.95602 0.76045 0.30869 0.0
C489 C 0.07451 0.75245 0.28468 0.0
C490 C 0.76057 0.06561 0.29892 0.0
C491 C 0.73991 0.02366 0.31455 0.0
H492 H 0.80842 0.09718 0.25039 0.0
C493 C 0.75386 0.98011 0.29333 0.0
H494 H 0.75095 0.0997 0.31492 0.0
C495 C 0.78678 0.97868 0.25626 0.0
C496 C 0.80664 0.02073 0.24002 0.0
H497 H 0.73873 0.94716 0.30478 0.0
H498 H 0.79615 0.94465 0.23998 0.0
C499 C 0.79376 0.06414 0.26212 0.0
C500 C 0.52638 0.76691 0.21745 0.0
C501 C 0.4833 0.7819 0.20343 0.0
H502 H 0.56158 0.72545 0.26256 0.0
C503 C 0.4415 0.76461 0.22508 0.0
H504 H 0.55926 0.77943 0.20154 0.0
C505 C 0.44284 0.7329 0.25972 0.0
C506 C 0.48601 0.71841 0.27403 0.0
H507 H 0.4077 0.77512 0.2149 0.0
H508 H 0.41006 0.72023 0.27569 0.0
C509 C 0.52771 0.73596 0.25252 0.0
C510 C 0.79631 0.40565 0.25649 0.0
C511 C 0.79733 0.43396 0.21899 0.0
H512 H 0.82943 0.38731 0.31485 0.0
C513 C 0.8328 0.46841 0.21357 0.0
H514 H 0.76954 0.37873 0.26179 0.0
C515 C 0.86694 0.47375 0.24467 0.0
C516 C 0.86644 0.44461 0.28158 0.0
H517 H 0.83447 0.49092 0.18517 0.0
H518 H 0.89401 0.50028 0.23955 0.0
C519 C 0.83053 0.41076 0.28721 0.0
C520 C 0.92607 0.25717 0.72546 0.0
C521 C 0.96806 0.23775 0.70492 0.0
H522 H 0.89376 0.30316 0.77782 0.0
C523 C 0.01078 0.25163 0.72198 0.0
H524 H 0.89255 0.24753 0.713 0.0
C525 C 0.01145 0.28329 0.75931 0.0
C526 C 0.96945 0.30227 0.78021 0.0
H527 H 0.0438 0.23752 0.70693 0.0
H528 H 0.04495 0.29258 0.77201 0.0
C529 C 0.92678 0.28929 0.76251 0.0
C530 C 0.25115 0.94739 0.695 0.0
C531 C 0.26601 0.99018 0.6764 0.0
H532 H 0.20919 0.91374 0.74661 0.0
C533 C 0.24767 0.03298 0.69582 0.0
H534 H 0.26422 0.91375 0.68047 0.0
C535 C 0.21611 0.03299 0.73403 0.0
C536 C 0.20198 0.99016 0.7531 0.0
H537 H 0.25835 0.06648 0.68205 0.0
H538 H 0.20321 0.06654 0.74888 0.0
C539 C 0.21933 0.94736 0.73278 0.0
C540 C 0.55845 0.25401 0.77635 0.0
C541 C 0.51696 0.23788 0.79943 0.0
H542 H 0.58912 0.29528 0.72297 0.0
C543 C 0.47359 0.25158 0.78499 0.0
H544 H 0.59243 0.24422 0.78662 0.0
C545 C 0.47169 0.28016 0.74813 0.0
C546 C 0.51311 0.29663 0.72525 0.0
H547 H 0.44094 0.23964 0.80181 0.0
H548 H 0.43767 0.2897 0.73779 0.0
C549 C 0.55654 0.28343 0.73997 0.0
C550 C 0.13543 0.53571 0.76024 0.0
C551 C 0.13365 0.56643 0.72475 0.0
H552 H 0.17036 0.51737 0.81801 0.0
C553 C 0.16784 0.60209 0.71984 0.0
H554 H 0.10971 0.50776 0.76473 0.0
C555 C 0.20275 0.60728 0.74981 0.0
C556 C 0.20408 0.57727 0.78587 0.0
H557 H 0.16709 0.62679 0.69334 0.0
H558 H 0.22822 0.63552 0.74506 0.0
C559 C 0.17019 0.54119 0.79068 0.0
C560 C 0.20398 0.78356 0.14938 0.0
C561 C 0.19821 0.74856 0.11517 0.0
H562 H 0.24944 0.83492 0.17839 0.0
C563 C 0.23527 0.74016 0.08197 0.0
H564 H 0.1762 0.79093 0.17557 0.0
C565 C 0.27726 0.76618 0.08322 0.0
C566 C 0.28324 0.80046 0.11814 0.0
H567 H 0.23177 0.71366 0.05503 0.0
H568 H 0.30543 0.75863 0.05748 0.0
C569 C 0.24603 0.80886 0.15106 0.0
C570 C 0.82949 0.22841 0.08749 0.0
C571 C 0.79235 0.19654 0.09662 0.0
H572 H 0.84994 0.29974 0.0754 0.0
C573 C 0.74593 0.21263 0.09695 0.0
H574 H 0.86569 0.217 0.08631 0.0
C575 C 0.73688 0.2602 0.09049 0.0
C576 C 0.7741 0.2925 0.0836 0.0
H577 H 0.71656 0.18882 0.10341 0.0
H578 H 0.70074 0.27191 0.09252 0.0
C579 C 0.82046 0.27585 0.081 0.0
C580 C 0.2765 0.70226 0.40056 0.0
C581 C 0.31312 0.7344 0.40796 0.0
H582 H 0.20322 0.69247 0.39246 0.0
C583 C 0.30209 0.78271 0.41578 0.0
H584 H 0.28367 0.66488 0.39439 0.0
C585 C 0.25571 0.79858 0.41515 0.0
C586 C 0.21947 0.76662 0.40581 0.0
H587 H 0.32943 0.80841 0.42186 0.0
H588 H 0.24849 0.83601 0.42077 0.0
C589 C 0.23037 0.71821 0.39913 0.0
C590 C 0.71003 0.31054 0.38214 0.0
C591 C 0.74984 0.31943 0.4061 0.0
H592 H 0.65623 0.26137 0.3652 0.0
C593 C 0.76424 0.28474 0.43421 0.0
H594 H 0.6979 0.3365 0.36024 0.0
C595 C 0.73987 0.2417 0.43747 0.0
C596 C 0.701 0.23225 0.41222 0.0
H597 H 0.79453 0.29068 0.45341 0.0
H598 H 0.75229 0.21537 0.45883 0.0
C599 C 0.68608 0.2674 0.38497 0.0
C600 C 0.72178 0.24208 0.92309 0.0
C601 C 0.71536 0.20955 0.88682 0.0
H602 H 0.76801 0.2926 0.95337 0.0
C603 C 0.75255 0.20217 0.85366 0.0
H604 H 0.69365 0.24885 0.94905 0.0
C605 C 0.79494 0.2267 0.85638 0.0
C606 C 0.80121 0.26003 0.89192 0.0
H607 H 0.74886 0.17749 0.82529 0.0
H608 H 0.82263 0.22009 0.82993 0.0
C609 C 0.76417 0.26743 0.9254 0.0
C610 C 0.18977 0.7346 0.92001 0.0
C611 C 0.2357 0.71729 0.91981 0.0
H612 H 0.14616 0.79416 0.91255 0.0
C613 C 0.27365 0.74915 0.91549 0.0
H614 H 0.15974 0.71109 0.92356 0.0
C615 C 0.26583 0.797 0.90918 0.0
C616 C 0.21997 0.81368 0.90682 0.0
H617 H 0.30947 0.73689 0.91544 0.0
H618 H 0.29575 0.82051 0.90467 0.0
C619 C 0.182 0.78223 0.91341 0.0
C620 C 0.7681 0.29396 0.60468 0.0
C621 C 0.77881 0.24542 0.5994 0.0
H622 H 0.71516 0.34748 0.60661 0.0
C623 C 0.74276 0.21338 0.58971 0.0
H624 H 0.79516 0.31973 0.61157 0.0
C625 C 0.69669 0.22934 0.58731 0.0
C626 C 0.6858 0.27779 0.59368 0.0
H627 H 0.74986 0.17584 0.58517 0.0
H628 H 0.66945 0.2036 0.58099 0.0
C629 C 0.72227 0.30999 0.60149 0.0
C630 C 0.3081 0.75058 0.61962 0.0
C631 C 0.29379 0.7842 0.59045 0.0
H632 H 0.29573 0.6829 0.64734 0.0
C633 C 0.25498 0.77364 0.56541 0.0
H634 H 0.33784 0.75748 0.63934 0.0
C635 C 0.23033 0.73091 0.57044 0.0
C636 C 0.24439 0.69761 0.60013 0.0
H637 H 0.243 0.79878 0.54262 0.0
H638 H 0.20028 0.72401 0.55113 0.0
C639 C 0.2839 0.70774 0.6242 0.0
C640 C 0.96058 0.50502 0.98222 0.0
C641 C 0.98197 0.46112 0.98607 0.0
H642 H 0.96227 0.57958 0.99767 0.0
C643 C 0.02287 0.4595 0.0095 0.0
H644 H 0.92953 0.50766 0.96394 0.0
C645 C 0.04221 0.50082 0.0282 0.0
C646 C 0.02084 0.54472 0.02431 0.0
H647 H 0.04046 0.42621 0.01279 0.0
H648 H 0.07323 0.49818 0.04653 0.0
C649 C 0.97991 0.54632 1.00093 0.0
C650 C 0.04951 0.02587 0.00273 0.0
C651 C 0.04579 0.99045 0.96851 0.0
H652 H 0.0145 0.06561 0.05807 0.0
C653 C 0.00269 0.96752 0.96399 0.0
H654 H 0.08243 0.04429 0.00665 0.0
C655 C 0.96372 0.98034 0.99286 0.0
C656 C 0.96741 0.01584 0.02704 0.0
H657 H 0.99876 0.94062 0.93749 0.0
H658 H 0.93076 0.96203 0.9888 0.0
C659 C 0.01058 0.0386 0.03167 0.0
C660 C 0.53209 1.00257 0.96038 0.0
C661 C 0.50817 0.04489 0.97296 0.0
H662 H 0.53898 0.92865 0.97128 0.0
C663 C 0.47117 0.04392 0.00715 0.0
H664 H 0.55998 1.00167 0.93359 0.0
C665 C 0.4594 1.00219 0.02913 0.0
C666 C 0.48413 0.96014 0.01735 0.0
H667 H 0.45158 0.07573 0.01749 0.0
H668 H 0.4318 1.00324 0.05619 0.0
C669 C 0.5198 0.96065 0.98189 0.0
C670 C 0.53095 0.49127 0.02848 0.0
C671 C 0.54942 0.48775 0.9835 0.0
H672 H 0.47534 0.51774 0.07527 0.0
C673 C 0.52447 0.50738 0.95029 0.0
H674 H 0.5489 0.47525 0.0544 0.0
C675 C 0.48202 0.53078 0.96204 0.0
C676 C 0.4638 0.53454 0.00707 0.0
H677 H 0.53789 0.50479 0.91531 0.0
H678 H 0.46364 0.54625 0.93606 0.0
C679 C 0.48882 0.51516 0.0403 0.0
C680 C 0.9554 0.00762 0.53252 0.0
C681 C 0.97968 0.04956 0.52218 0.0
H682 H 0.95339 0.93195 0.52453 0.0
C683 C 0.02278 0.04591 0.49564 0.0
H684 H 0.92253 0.00888 0.55325 0.0
C685 C 0.04122 1.00171 0.48017 0.0
C686 C 0.0166 0.9598 0.48982 0.0
H687 H 0.04286 0.07739 0.48741 0.0
H688 H 0.07446 1.00051 0.46006 0.0
C689 C 0.97357 0.96342 0.51652 0.0
C690 C 0.49069 0.97419 0.52585 0.0
C691 C 0.45382 0.98453 0.49965 0.0
H692 H 0.56311 0.98532 0.53693 0.0
C693 C 0.46194 0.01467 0.46372 0.0
H694 H 0.48499 0.95188 0.55429 0.0
C695 C 0.50622 0.03493 0.45466 0.0
C696 C 0.54297 0.02468 0.48106 0.0
H697 H 0.43366 0.02364 0.4436 0.0
H698 H 0.51195 0.05773 0.42661 0.0
C699 C 0.53494 0.99412 0.5166 0.0
C700 C 0.54317 0.49716 0.5137 0.0
C701 C 0.50509 0.46858 0.52833 0.0
H702 H 0.5679 0.55359 0.47265 0.0
C703 C 0.46113 0.47656 0.5115 0.0
H704 H 0.57743 0.49229 0.52588 0.0
C705 C 0.45547 0.51199 0.48097 0.0
C706 C 0.49358 0.54054 0.46632 0.0
H707 H 0.43078 0.45549 0.52205 0.0
H708 H 0.42121 0.51689 0.4688 0.0
C709 C 0.53752 0.53252 0.48315 0.0
C710 C 0.04575 0.50108 0.4928 0.0
C711 C 0.03068 0.52987 0.53042 0.0
H712 H 0.02515 0.4562 0.43809 0.0
C713 C 0.98232 0.53617 0.54156 0.0
H714 H 0.08283 0.49506 0.4841 0.0
C715 C 0.94935 0.51381 0.51552 0.0
C716 C 0.96445 0.48503 0.47786 0.0
H717 H 0.97004 0.5584 0.57055 0.0
H718 H 0.91227 0.51976 0.52425 0.0
C719 C 0.01281 0.47863 0.46687 0.0
C720 C 0.02021 0.43665 0.2509 0.0
C721 C 0.05772 0.45335 0.27471 0.0
H722 H 0.97171 0.45251 0.20256 0.0
C723 C 0.08093 0.49527 0.26285 0.0
H724 H 0.00213 0.40419 0.25978 0.0
C725 C 0.06423 0.52231 0.22965 0.0
C726 C 0.02385 0.50779 0.20887 0.0
H727 H 0.10994 0.50851 0.28116 0.0
H728 H 0.08054 0.55619 0.22278 0.0
C729 C 0.00292 0.4641 0.2184 0.0
C730 C 0.02558 0.01876 0.29402 0.0
C731 C 0.03498 0.97076 0.29934 0.0
H732 H 0.99865 0.0696 0.25179 0.0
C733 C 0.03412 0.93878 0.26204 0.0
H734 H 0.02593 0.04415 0.32231 0.0
C735 C 0.01893 0.95331 0.22167 0.0
C736 C 0.00357 0.99999 0.21804 0.0
H737 H 0.04171 0.90165 0.26515 0.0
H738 H 0.01544 0.92691 0.19464 0.0
C739 C 0.00982 0.0333 0.2536 0.0
C740 C 0.52252 0.97422 0.28992 0.0
C741 C 0.54946 0.01496 0.29842 0.0
H742 H 0.49281 0.92851 0.24056 0.0
C743 C 0.56067 0.04532 0.26315 0.0
H744 H 0.5129 0.95038 0.31649 0.0
C745 C 0.54963 0.03253 0.21933 0.0
C746 C 0.52667 0.98943 0.21007 0.0
H747 H 0.58126 0.07708 0.26859 0.0
H748 H 0.56188 0.05487 0.19233 0.0
C749 C 0.51092 0.96177 0.24628 0.0
C750 C 0.53186 0.52415 0.22701 0.0
C751 C 0.54471 0.50426 0.26657 0.0
H752 H 0.544 0.52593 0.1555 0.0
C753 C 0.57269 0.46348 0.26282 0.0
H754 H 0.50956 0.55507 0.22864 0.0
C755 C 0.59266 0.44697 0.22087 0.0
C756 C 0.58505 0.47095 0.18186 0.0
H757 H 0.58253 0.4467 0.29251 0.0
H758 H 0.61719 0.41785 0.21968 0.0
C759 C 0.55179 0.50754 0.18497 0.0
C760 C 0.92038 0.51351 0.75262 0.0
C761 C 0.9436 0.5544 0.73791 0.0
H762 H 0.92205 0.4545 0.79493 0.0
C763 C 0.98268 0.57152 0.75914 0.0
H764 H 0.88997 0.50008 0.73653 0.0
C765 C 0.00148 0.54526 0.7917 0.0
C766 C 0.98049 0.50236 0.804 0.0
H767 H 0.00056 0.60343 0.74832 0.0
H768 H 0.03368 0.55718 0.80556 0.0
C769 C 0.9386 0.48768 0.78591 0.0
C770 C 0.94473 0.05232 0.7545 0.0
C771 C 0.95674 0.0367 0.70981 0.0
H772 H 0.96087 0.0489 0.82314 0.0
C773 C 0.98644 0.99745 0.70115 0.0
H774 H 0.92236 0.08289 0.76198 0.0
C775 C 0.00781 0.97739 0.7362 0.0
C776 C 0.00073 0.99723 0.7802 0.0
H777 H 0.99639 0.98502 0.66686 0.0
H778 H 0.03373 0.94994 0.72799 0.0
C779 C 0.967 0.03304 0.78946 0.0
C780 C 0.48971 0.07161 0.70276 0.0
C781 C 0.45539 0.0406 0.68722 0.0
H782 H 0.52368 0.09982 0.75928 0.0
C783 C 0.43488 0.00724 0.71618 0.0
H784 H 0.50608 0.09756 0.68093 0.0
C785 C 0.4442 0.00905 0.76161 0.0
C786 C 0.47449 0.04395 0.77839 0.0
H787 H 0.40805 0.98315 0.70499 0.0
H788 H 0.42459 0.98591 0.78417 0.0
C789 C 0.49964 0.0729 0.74779 0.0
C790 C 0.45188 0.50256 0.80789 0.0
C791 C 0.41803 0.5386 0.81229 0.0
H792 H 0.49385 0.45628 0.7628 0.0
C793 C 0.40835 0.56253 0.77382 0.0
H794 H 0.46087 0.48396 0.83688 0.0
C795 C 0.42726 0.54663 0.73128 0.0
C796 C 0.45622 0.50657 0.72642 0.0
H797 H 0.3832 0.59116 0.77602 0.0
H798 H 0.41593 0.56329 0.70209 0.0
C799 C 0.47087 0.48673 0.7653 0.0
loop_
_geom_bond_atom_site_label_1
_geom_bond_atom_site_label_2
_geom_bond_distance
_geom_bond_site_symmetry_2
_ccdc_geom_bond_type
Zn0 O6 1.969 . S
Zn0 O7 1.965 . S
Zn0 O11 2.024 . S
Zn0 O16 1.969 . S
Zn1 O8 1.971 . S
Zn1 O14 1.964 1_455 S
Zn1 O15 1.965 . S
Zn1 O17 2.027 . S
C2 O3 1.229 . S
C2 O11 1.058 . S
O3 C2 1.229 . S
C4 O5 1.229 1_455 S
C4 O17 1.058 . S
O5 C4 1.229 1_655 S
O6 Zn0 1.969 . S
O6 C9 1.267 . S
O7 Zn0 1.965 . S
O7 C18 1.260 . S
O8 Zn1 1.971 . S
O8 C18 1.258 . S
C9 O6 1.267 . S
C9 O10 1.228 . S
O10 C9 1.228 . S
O11 Zn0 2.024 . S
O11 C2 1.058 . S
C12 O13 1.228 . S
C12 O14 1.267 . S
O13 C12 1.228 . S
O14 Zn1 1.964 1_655 S
O14 C12 1.267 . S
O15 Zn1 1.965 . S
O15 C19 1.260 . S
O16 Zn0 1.969 . S
O16 C19 1.258 . S
O17 Zn1 2.027 . S
O17 C4 1.058 . S
C18 O7 1.260 . S
C18 O8 1.258 . S
C19 O15 1.260 . S
C19 O16 1.258 . S
Zn20 O26 1.969 . S
Zn20 O27 1.965 . S
Zn20 O31 2.024 . S
Zn20 O36 1.969 . S
Zn21 O28 1.969 1_565 S
Zn21 O34 1.969 . S
Zn21 O35 1.965 1_565 S
Zn21 O37 2.024 1_565 S
C22 O23 1.229 . S
C22 O31 1.058 . S
O23 C22 1.229 . S
C24 O25 1.229 1_545 S
C24 O37 1.058 . S
O25 C24 1.229 1_565 S
O26 Zn20 1.969 . S
O26 C29 1.267 . S
O27 Zn20 1.965 . S
O27 C38 1.260 . S
O28 Zn21 1.969 1_545 S
O28 C38 1.258 . S
C29 O26 1.267 . S
C29 O30 1.228 . S
O30 C29 1.228 . S
O31 Zn20 2.024 . S
O31 C22 1.058 . S
C32 O33 1.228 . S
C32 O34 1.267 . S
O33 C32 1.228 . S
O34 Zn21 1.969 . S
O34 C32 1.267 . S
O35 Zn21 1.965 1_545 S
O35 C39 1.260 . S
O36 Zn20 1.969 . S
O36 C39 1.258 . S
O37 Zn21 2.024 1_545 S
O37 C24 1.058 . S
C38 O27 1.260 . S
C38 O28 1.258 . S
C39 O35 1.260 . S
C39 O36 1.258 . S
Zn40 O46 1.969 . S
Zn40 O47 1.965 . S
Zn40 O51 2.024 . S
Zn40 O56 1.969 . S
Zn41 O48 1.969 . S
Zn41 O54 1.969 . S
Zn41 O55 1.965 . S
Zn41 O57 2.024 . S
C42 O43 1.229 . S
C42 O51 1.058 . S
O43 C42 1.229 . S
C44 O45 1.229 . S
C44 O57 1.058 . S
O45 C44 1.229 . S
O46 Zn40 1.969 . S
O46 C49 1.267 . S
O47 Zn40 1.965 . S
O47 C58 1.260 . S
O48 Zn41 1.969 . S
O48 C58 1.258 . S
C49 O46 1.267 . S
C49 O50 1.228 . S
O50 C49 1.228 . S
O51 Zn40 2.024 . S
O51 C42 1.058 . S
C52 O53 1.228 . S
C52 O54 1.267 . S
O53 C52 1.228 . S
O54 Zn41 1.969 . S
O54 C52 1.267 . S
O55 Zn41 1.965 . S
O55 C59 1.260 . S
O56 Zn40 1.969 . S
O56 C59 1.258 . S
O57 Zn41 2.024 . S
O57 C44 1.058 . S
C58 O47 1.260 . S
C58 O48 1.258 . S
C59 O55 1.260 . S
C59 O56 1.258 . S
Zn60 O66 1.969 . S
Zn60 O67 1.965 . S
Zn60 O71 2.024 . S
Zn60 O76 1.969 . S
Zn61 O68 1.969 . S
Zn61 O74 1.969 . S
Zn61 O75 1.965 . S
Zn61 O77 2.024 . S
C62 O63 1.229 . S
C62 O71 1.058 . S
O63 C62 1.229 . S
C64 O65 1.229 . S
C64 O77 1.058 . S
O65 C64 1.229 . S
O66 Zn60 1.969 . S
O66 C69 1.267 . S
O67 Zn60 1.965 . S
O67 C78 1.260 . S
O68 Zn61 1.969 . S
O68 C78 1.258 . S
C69 O66 1.267 . S
C69 O70 1.228 . S
O70 C69 1.228 . S
O71 Zn60 2.024 . S
O71 C62 1.058 . S
C72 O73 1.228 . S
C72 O74 1.267 . S
O73 C72 1.228 . S
O74 Zn61 1.969 . S
O74 C72 1.267 . S
O75 Zn61 1.965 . S
O75 C79 1.260 . S
O76 Zn60 1.969 . S
O76 C79 1.258 . S
O77 Zn61 2.024 . S
O77 C64 1.058 . S
C78 O67 1.260 . S
C78 O68 1.258 . S
C79 O75 1.260 . S
C79 O76 1.258 . S
Zn80 O86 1.969 . S
Zn80 O87 1.965 . S
Zn80 O91 2.024 . S
Zn80 O96 1.969 . S
Zn81 O88 1.969 . S
Zn81 O94 1.969 1_455 S
Zn81 O95 1.965 . S
Zn81 O97 2.024 . S
C82 O83 1.229 . S
C82 O91 1.058 . S
O83 C82 1.229 . S
C84 O85 1.229 . S
C84 O97 1.058 . S
O85 C84 1.229 . S
O86 Zn80 1.969 . S
O86 C89 1.267 . S
O87 Zn80 1.965 . S
O87 C98 1.260 . S
O88 Zn81 1.969 . S
O88 C98 1.258 . S
C89 O86 1.267 . S
C89 O90 1.228 . S
O90 C89 1.228 . S
O91 Zn80 2.024 . S
O91 C82 1.058 . S
C92 O93 1.228 . S
C92 O94 1.267 . S
O93 C92 1.228 . S
O94 Zn81 1.969 1_655 S
O94 C92 1.267 . S
O95 Zn81 1.965 . S
O95 C99 1.260 . S
O96 Zn80 1.969 . S
O96 C99 1.258 . S
O97 Zn81 2.024 . S
O97 C84 1.058 . S
C98 O87 1.260 . S
C98 O88 1.258 . S
C99 O95 1.260 . S
C99 O96 1.258 . S
Zn100 O106 1.969 . S
Zn100 O107 1.965 . S
Zn100 O111 2.024 . S
Zn100 O116 1.969 . S
Zn101 O108 1.969 1_565 S
Zn101 O114 1.969 . S
Zn101 O115 1.965 1_565 S
Zn101 O117 2.024 1_565 S
C102 O103 1.229 . S
C102 O111 1.058 . S
O103 C102 1.229 . S
C104 O105 1.229 1_545 S
C104 O117 1.058 . S
O105 C104 1.229 1_565 S
O106 Zn100 1.969 . S
O106 C109 1.267 . S
O107 Zn100 1.965 . S
O107 C118 1.260 . S
O108 Zn101 1.969 1_545 S
O108 C118 1.258 . S
C109 O106 1.267 . S
C109 O110 1.228 . S
O110 C109 1.228 . S
O111 Zn100 2.024 . S
O111 C102 1.058 . S
C112 O113 1.228 . S
C112 O114 1.267 . S
O113 C112 1.228 . S
O114 Zn101 1.969 . S
O114 C112 1.267 . S
O115 Zn101 1.965 1_545 S
O115 C119 1.260 . S
O116 Zn100 1.969 . S
O116 C119 1.258 . S
O117 Zn101 2.024 1_545 S
O117 C104 1.058 . S
C118 O107 1.260 . S
C118 O108 1.258 . S
C119 O115 1.260 . S
C119 O116 1.258 . S
Zn120 O126 1.969 . S
Zn120 O127 1.965 . S
Zn120 O131 2.024 . S
Zn120 O136 1.969 . S
Zn121 O128 1.969 . S
Zn121 O134 1.969 . S
Zn121 O135 1.965 . S
Zn121 O137 2.024 . S
C122 O123 1.229 . S
C122 O131 1.058 . S
O123 C122 1.229 . S
C124 O125 1.229 . S
C124 O137 1.058 . S
O125 C124 1.229 . S
O126 Zn120 1.969 . S
O126 C129 1.267 . S
O127 Zn120 1.965 . S
O127 C138 1.260 . S
O128 Zn121 1.969 . S
O128 C138 1.258 . S
C129 O126 1.267 . S
C129 O130 1.228 . S
O130 C129 1.228 . S
O131 Zn120 2.024 . S
O131 C122 1.058 . S
C132 O133 1.228 . S
C132 O134 1.267 . S
O133 C132 1.228 . S
O134 Zn121 1.969 . S
O134 C132 1.267 . S
O135 Zn121 1.965 . S
O135 C139 1.260 . S
O136 Zn120 1.969 . S
O136 C139 1.258 . S
O137 Zn121 2.024 . S
O137 C124 1.058 . S
C138 O127 1.260 . S
C138 O128 1.258 . S
C139 O135 1.260 . S
C139 O136 1.258 . S
Zn140 O146 1.969 . S
Zn140 O147 1.965 . S
Zn140 O151 2.024 . S
Zn140 O156 1.969 . S
Zn141 O148 1.969 . S
Zn141 O154 1.969 . S
Zn141 O155 1.965 . S
Zn141 O157 2.024 1_655 S
C142 O143 1.229 . S
C142 O151 1.058 . S
O143 C142 1.229 . S
C144 O145 1.229 . S
C144 O157 1.058 . S
O145 C144 1.229 . S
O146 Zn140 1.969 . S
O146 C149 1.267 . S
O147 Zn140 1.965 . S
O147 C158 1.260 . S
O148 Zn141 1.969 . S
O148 C158 1.258 . S
C149 O146 1.267 . S
C149 O150 1.228 . S
O150 C149 1.228 . S
O151 Zn140 2.024 . S
O151 C142 1.058 . S
C152 O153 1.228 1_655 S
C152 O154 1.267 . S
O153 C152 1.228 1_455 S
O154 Zn141 1.969 . S
O154 C152 1.267 . S
O155 Zn141 1.965 . S
O155 C159 1.260 . S
O156 Zn140 1.969 . S
O156 C159 1.258 . S
O157 Zn141 2.024 1_455 S
O157 C144 1.058 . S
C158 O147 1.260 . S
C158 O148 1.258 . S
C159 O155 1.260 . S
C159 O156 1.258 . S
Zn160 O166 1.964 1_655 S
Zn160 O167 1.965 . S
Zn160 O171 2.027 . S
Zn160 O176 1.971 . S
Zn161 O168 1.969 . S
Zn161 O174 1.969 . S
Zn161 O175 1.965 . S
Zn161 O177 2.024 . S
C162 O163 1.229 1_655 S
C162 O171 1.058 . S
O163 C162 1.229 1_455 S
C164 O165 1.229 . S
C164 O177 1.058 . S
O165 C164 1.229 . S
O166 Zn160 1.964 1_455 S
O166 C169 1.267 . S
O167 Zn160 1.965 . S
O167 C178 1.260 . S
O168 Zn161 1.969 . S
O168 C178 1.258 . S
C169 O166 1.267 . S
C169 O170 1.228 . S
O170 C169 1.228 . S
O171 Zn160 2.027 . S
O171 C162 1.058 . S
C172 O173 1.228 . S
C172 O174 1.267 . S
O173 C172 1.228 . S
O174 Zn161 1.969 . S
O174 C172 1.267 . S
O175 Zn161 1.965 . S
O175 C179 1.260 . S
O176 Zn160 1.971 . S
O176 C179 1.258 . S
O177 Zn161 2.024 . S
O177 C164 1.058 . S
C178 O167 1.260 . S
C178 O168 1.258 . S
C179 O175 1.260 . S
C179 O176 1.258 . S
Zn180 O186 1.969 . S
Zn180 O187 1.965 1_545 S
Zn180 O191 2.024 1_545 S
Zn180 O196 1.969 1_545 S
Zn181 O188 1.969 . S
Zn181 O194 1.969 . S
Zn181 O195 1.965 . S
Zn181 O197 2.024 . S
C182 O183 1.229 1_565 S
C182 O191 1.058 . S
O183 C182 1.229 1_545 S
C184 O185 1.229 . S
C184 O197 1.058 . S
O185 C184 1.229 . S
O186 Zn180 1.969 . S
O186 C189 1.267 . S
O187 Zn180 1.965 1_565 S
O187 C198 1.260 . S
O188 Zn181 1.969 . S
O188 C198 1.258 . S
C189 O186 1.267 . S
C189 O190 1.228 . S
O190 C189 1.228 . S
O191 Zn180 2.024 1_565 S
O191 C182 1.058 . S
C192 O193 1.228 . S
C192 O194 1.267 . S
O193 C192 1.228 . S
O194 Zn181 1.969 . S
O194 C192 1.267 . S
O195 Zn181 1.965 . S
O195 C199 1.260 . S
O196 Zn180 1.969 1_565 S
O196 C199 1.258 . S
O197 Zn181 2.024 . S
O197 C184 1.058 . S
C198 O187 1.260 . S
C198 O188 1.258 . S
C199 O195 1.260 . S
C199 O196 1.258 . S
Zn200 O206 1.969 . S
Zn200 O207 1.965 . S
Zn200 O211 2.024 . S
Zn200 O216 1.969 . S
Zn201 O208 1.969 . S
Zn201 O214 1.969 . S
Zn201 O215 1.965 . S
Zn201 O217 2.024 . S
C202 O203 1.229 . S
C202 O211 1.058 . S
O203 C202 1.229 . S
C204 O205 1.229 . S
C204 O217 1.058 . S
O205 C204 1.229 . S
O206 Zn200 1.969 . S
O206 C209 1.267 . S
O207 Zn200 1.965 . S
O207 C218 1.260 . S
O208 Zn201 1.969 . S
O208 C218 1.258 . S
C209 O206 1.267 . S
C209 O210 1.228 . S
O210 C209 1.228 . S
O211 Zn200 2.024 . S
O211 C202 1.058 . S
C212 O213 1.228 . S
C212 O214 1.267 . S
O213 C212 1.228 . S
O214 Zn201 1.969 . S
O214 C212 1.267 . S
O215 Zn201 1.965 . S
O215 C219 1.260 . S
O216 Zn200 1.969 . S
O216 C219 1.258 . S
O217 Zn201 2.024 . S
O217 C204 1.058 . S
C218 O207 1.260 . S
C218 O208 1.258 . S
C219 O215 1.260 . S
C219 O216 1.258 . S
Zn220 O226 1.969 . S
Zn220 O227 1.965 . S
Zn220 O231 2.024 . S
Zn220 O236 1.969 . S
Zn221 O228 1.969 . S
Zn221 O234 1.969 . S
Zn221 O235 1.965 . S
Zn221 O237 2.024 . S
C222 O223 1.229 . S
C222 O231 1.058 . S
O223 C222 1.229 . S
C224 O225 1.229 . S
C224 O237 1.058 . S
O225 C224 1.229 . S
O226 Zn220 1.969 . S
O226 C229 1.267 . S
O227 Zn220 1.965 . S
O227 C238 1.260 . S
O228 Zn221 1.969 . S
O228 C238 1.258 . S
C229 O226 1.267 . S
C229 O230 1.228 . S
O230 C229 1.228 . S
O231 Zn220 2.024 . S
O231 C222 1.058 . S
C232 O233 1.228 . S
C232 O234 1.267 . S
O233 C232 1.228 . S
O234 Zn221 1.969 . S
O234 C232 1.267 . S
O235 Zn221 1.965 . S
O235 C239 1.260 . S
O236 Zn220 1.969 . S
O236 C239 1.258 . S
O237 Zn221 2.024 . S
O237 C224 1.058 . S
C238 O227 1.260 . S
C238 O228 1.258 . S
C239 O235 1.260 . S
C239 O236 1.258 . S
Zn240 O246 1.969 1_655 S
Zn240 O247 1.965 . S
Zn240 O251 2.024 . S
Zn240 O256 1.969 . S
Zn241 O248 1.969 . S
Zn241 O254 1.969 . S
Zn241 O255 1.965 . S
Zn241 O257 2.024 . S
C242 O243 1.229 . S
C242 O251 1.058 . S
O243 C242 1.229 . S
C244 O245 1.229 . S
C244 O257 1.058 . S
O245 C244 1.229 . S
O246 Zn240 1.969 1_455 S
O246 C249 1.267 . S
O247 Zn240 1.965 . S
O247 C258 1.260 . S
O248 Zn241 1.969 . S
O248 C258 1.258 . S
C249 O246 1.267 . S
C249 O250 1.228 . S
O250 C249 1.228 . S
O251 Zn240 2.024 . S
O251 C242 1.058 . S
C252 O253 1.228 . S
C252 O254 1.267 . S
O253 C252 1.228 . S
O254 Zn241 1.969 . S
O254 C252 1.267 . S
O255 Zn241 1.965 . S
O255 C259 1.260 . S
O256 Zn240 1.969 . S
O256 C259 1.258 . S
O257 Zn241 2.024 . S
O257 C244 1.058 . S
C258 O247 1.260 . S
C258 O248 1.258 . S
C259 O255 1.260 . S
C259 O256 1.258 . S
Zn260 O266 1.969 . S
Zn260 O267 1.965 1_545 S
Zn260 O271 2.024 1_545 S
Zn260 O276 1.969 1_545 S
Zn261 O268 1.969 . S
Zn261 O274 1.969 . S
Zn261 O275 1.965 . S
Zn261 O277 2.024 . S
C262 O263 1.229 1_565 S
C262 O271 1.058 . S
O263 C262 1.229 1_545 S
C264 O265 1.229 . S
C264 O277 1.058 . S
O265 C264 1.229 . S
O266 Zn260 1.969 . S
O266 C269 1.267 . S
O267 Zn260 1.965 1_565 S
O267 C278 1.260 . S
O268 Zn261 1.969 . S
O268 C278 1.258 . S
C269 O266 1.267 . S
C269 O270 1.228 . S
O270 C269 1.228 . S
O271 Zn260 2.024 1_565 S
O271 C262 1.058 . S
C272 O273 1.228 . S
C272 O274 1.267 . S
O273 C272 1.228 . S
O274 Zn261 1.969 . S
O274 C272 1.267 . S
O275 Zn261 1.965 . S
O275 C279 1.260 . S
O276 Zn260 1.969 1_565 S
O276 C279 1.258 . S
O277 Zn261 2.024 . S
O277 C264 1.058 . S
C278 O267 1.260 . S
C278 O268 1.258 . S
C279 O275 1.260 . S
C279 O276 1.258 . S
Zn280 O286 1.969 . S
Zn280 O287 1.965 . S
Zn280 O291 2.024 . S
Zn280 O296 1.969 . S
Zn281 O288 1.969 . S
Zn281 O294 1.969 . S
Zn281 O295 1.965 . S
Zn281 O297 2.024 . S
C282 O283 1.229 . S
C282 O291 1.058 . S
O283 C282 1.229 . S
C284 O285 1.229 . S
C284 O297 1.058 . S
O285 C284 1.229 . S
O286 Zn280 1.969 . S
O286 C289 1.267 . S
O287 Zn280 1.965 . S
O287 C298 1.260 . S
O288 Zn281 1.969 . S
O288 C298 1.258 . S
C289 O286 1.267 . S
C289 O290 1.228 . S
O290 C289 1.228 . S
O291 Zn280 2.024 . S
O291 C282 1.058 . S
C292 O293 1.228 . S
C292 O294 1.267 . S
O293 C292 1.228 . S
O294 Zn281 1.969 . S
O294 C292 1.267 . S
O295 Zn281 1.965 . S
O295 C299 1.260 . S
O296 Zn280 1.969 . S
O296 C299 1.258 . S
O297 Zn281 2.024 . S
O297 C284 1.058 . S
C298 O287 1.260 . S
C298 O288 1.258 . S
C299 O295 1.260 . S
C299 O296 1.258 . S
Zn300 O306 1.969 . S
Zn300 O307 1.965 . S
Zn300 O311 2.024 1_455 S
Zn300 O316 1.969 . S
Zn301 O308 1.969 . S
Zn301 O314 1.969 . S
Zn301 O315 1.965 . S
Zn301 O317 2.024 . S
C302 O303 1.229 . S
C302 O311 1.058 . S
O303 C302 1.229 . S
C304 O305 1.229 . S
C304 O317 1.058 . S
O305 C304 1.229 . S
O306 Zn300 1.969 . S
O306 C309 1.267 . S
O307 Zn300 1.965 . S
O307 C318 1.260 . S
O308 Zn301 1.969 . S
O308 C318 1.258 . S
C309 O306 1.267 . S
C309 O310 1.228 1_455 S
O310 C309 1.228 1_655 S
O311 Zn300 2.024 1_655 S
O311 C302 1.058 . S
C312 O313 1.228 . S
C312 O314 1.267 . S
O313 C312 1.228 . S
O314 Zn301 1.969 . S
O314 C312 1.267 . S
O315 Zn301 1.965 . S
O315 C319 1.260 . S
O316 Zn300 1.969 . S
O316 C319 1.258 . S
O317 Zn301 2.024 . S
O317 C304 1.058 . S
C318 O307 1.260 . S
C318 O308 1.258 . S
C319 O315 1.260 . S
C319 O316 1.258 . S
C320 C321 1.387 . S
C320 H324 0.950 . S
C320 C329 1.390 . S
C321 C320 1.387 . S
C321 C323 1.387 . S
H322 C329 0.950 . S
C323 C321 1.387 . S
C323 C325 1.390 . S
C323 H327 0.950 . S
H324 C320 0.950 . S
C325 C323 1.390 . S
C325 C326 1.387 . S
C325 H328 0.950 . S
C326 C325 1.387 . S
C326 C329 1.387 . S
H327 C323 0.950 . S
H328 C325 0.950 . S
C329 C320 1.390 . S
C329 H322 0.950 . S
C329 C326 1.387 . S
C330 C331 1.387 . S
C330 H334 0.950 . S
C330 C339 1.390 . S
C331 C330 1.387 . S
C331 C333 1.387 . S
H332 C339 0.950 . S
C333 C331 1.387 . S
C333 C335 1.390 1_455 S
C333 H337 0.950 . S
H334 C330 0.950 . S
C335 C333 1.390 1_655 S
C335 C336 1.387 . S
C335 H338 0.950 . S
C336 C335 1.387 . S
C336 C339 1.387 1_655 S
H337 C333 0.950 . S
H338 C335 0.950 . S
C339 C330 1.390 . S
C339 H332 0.950 . S
C339 C336 1.387 1_455 S
C340 C341 1.387 . S
C340 H344 0.950 . S
C340 C349 1.390 . S
C341 C340 1.387 . S
C341 C343 1.387 . S
H342 C349 0.976 1_545 S
C343 C341 1.387 . S
C343 C345 1.390 1_565 S
C343 H347 0.950 . S
H344 C340 0.950 . S
C345 C343 1.390 1_545 S
C345 C346 1.387 . S
C345 H348 0.950 . S
C346 C345 1.387 . S
C346 C349 1.387 1_545 S
H347 C343 0.950 . S
H348 C345 0.950 . S
C349 C340 1.390 . S
C349 H342 0.976 1_565 S
C349 C346 1.387 1_565 S
C350 C351 1.387 . S
C350 H354 0.938 1_554 S
C350 C359 1.390 . S
C351 C350 1.387 . S
C351 C353 1.387 . S
H352 C359 0.950 . S
C353 C351 1.387 . S
C353 C355 1.390 . S
C353 H357 0.950 . S
H354 C350 0.938 1_556 S
C355 C353 1.390 . S
C355 C356 1.387 . S
C355 H358 0.950 . S
C356 C355 1.387 . S
C356 C359 1.387 . S
H357 C353 0.950 . S
H358 C355 0.950 . S
C359 C350 1.390 . S
C359 H352 0.950 . S
C359 C356 1.387 . S
C360 C361 1.387 . S
C360 H364 0.950 . S
C360 C369 1.390 . S
C361 C360 1.387 . S
C361 C363 1.387 1_565 S
H362 C369 0.950 . S
C363 C361 1.387 1_545 S
C363 C365 1.390 . S
C363 H367 0.950 . S
H364 C360 0.950 . S
C365 C363 1.390 . S
C365 C366 1.387 . S
C365 H368 0.950 . S
C366 C365 1.387 . S
C366 C369 1.387 1_545 S
H367 C363 0.950 . S
H368 C365 0.950 . S
C369 C360 1.390 . S
C369 H362 0.950 . S
C369 C366 1.387 1_565 S
C370 C371 1.387 . S
C370 H374 0.950 . S
C370 C379 1.390 . S
C371 C370 1.387 . S
C371 C373 1.387 . S
H372 C379 0.950 . S
C373 C371 1.387 . S
C373 C375 1.390 . S
C373 H377 0.950 . S
H374 C370 0.950 . S
C375 C373 1.390 . S
C375 C376 1.387 . S
C375 H378 0.950 . S
C376 C375 1.387 . S
C376 C379 1.387 . S
H377 C373 0.950 . S
H378 C375 0.950 . S
C379 C370 1.390 . S
C379 H372 0.950 . S
C379 C376 1.387 . S
C380 C381 1.387 . S
C380 H384 0.950 . S
C380 C389 1.390 . S
C381 C380 1.387 . S
C381 C383 1.387 . S
H382 C389 0.950 . S
C383 C381 1.387 . S
C383 C385 1.390 . S
C383 H387 0.950 . S
H384 C380 0.950 . S
C385 C383 1.390 . S
C385 C386 1.387 . S
C385 H388 0.950 . S
C386 C385 1.387 . S
C386 C389 1.387 . S
H387 C383 0.950 . S
H388 C385 0.950 . S
C389 C380 1.390 . S
C389 H382 0.950 . S
C389 C386 1.387 . S
C390 C391 1.387 . S
C390 H394 0.950 . S
C390 C399 1.390 . S
C391 C390 1.387 . S
C391 C393 1.387 . S
H392 C399 0.950 . S
C393 C391 1.387 . S
C393 C395 1.390 1_455 S
C393 H397 0.950 . S
H394 C390 0.950 . S
C395 C393 1.390 1_655 S
C395 C396 1.387 . S
C395 H398 0.950 . S
C396 C395 1.387 . S
C396 C399 1.387 1_655 S
H397 C393 0.950 . S
H398 C395 0.950 . S
C399 C390 1.390 . S
C399 H392 0.950 . S
C399 C396 1.387 1_455 S
C400 C401 1.387 . S
C400 H404 0.950 . S
C400 C409 1.390 . S
C401 C400 1.387 . S
C401 C403 1.387 . S
H402 C409 0.950 . S
C403 C401 1.387 . S
C403 C405 1.390 . S
C403 H407 0.950 . S
H404 C400 0.950 . S
C405 C403 1.390 . S
C405 C406 1.387 . S
C405 H408 0.950 . S
C406 C405 1.387 . S
C406 C409 1.387 . S
H407 C403 0.950 . S
H408 C405 0.950 . S
C409 C400 1.390 . S
C409 H402 0.950 . S
C409 C406 1.387 . S
C410 C411 1.387 . S
C410 H414 0.950 . S
C410 C419 1.390 . S
C411 C410 1.387 . S
C411 C413 1.387 . S
H412 C419 0.950 . S
C413 C411 1.387 . S
C413 C415 1.390 1_655 S
C413 H417 0.950 . S
H414 C410 0.950 . S
C415 C413 1.390 1_455 S
C415 C416 1.387 . S
C415 H418 0.950 . S
C416 C415 1.387 . S
C416 C419 1.387 1_455 S
H417 C413 0.950 . S
H418 C415 0.950 . S
C419 C410 1.390 . S
C419 H412 0.950 . S
C419 C416 1.387 1_655 S
C420 C421 1.387 . S
C420 H424 0.950 . S
C420 C429 1.390 . S
C421 C420 1.387 . S
C421 C423 1.387 1_565 S
H422 C429 0.950 . S
C423 C421 1.387 1_545 S
C423 C425 1.390 . S
C423 H427 0.950 . S
H424 C420 0.950 . S
C425 C423 1.390 . S
C425 C426 1.387 . S
C425 H428 0.950 . S
C426 C425 1.387 . S
C426 C429 1.387 1_545 S
H427 C423 0.950 . S
H428 C425 0.950 . S
C429 C420 1.390 . S
C429 H422 0.950 . S
C429 C426 1.387 1_565 S
C430 C431 1.387 . S
C430 H434 0.950 . S
C430 C439 1.390 . S
C431 C430 1.387 . S
C431 C433 1.387 . S
H432 C439 0.950 . S
C433 C431 1.387 . S
C433 C435 1.390 . S
C433 H437 0.950 1_556 S
H434 C430 0.950 . S
C435 C433 1.390 . S
C435 C436 1.387 . S
C435 H438 0.950 . S
C436 C435 1.387 . S
C436 C439 1.387 . S
H437 C433 0.950 1_554 S
H438 C435 0.950 . S
C439 C430 1.390 . S
C439 H432 0.950 . S
C439 C436 1.387 . S
C440 C441 1.387 1_565 S
C440 H444 0.950 . S
C440 C449 1.390 . S
C441 C440 1.387 1_545 S
C441 C443 1.387 . S
H442 C449 0.950 . S
C443 C441 1.387 . S
C443 C445 1.390 . S
C443 H447 0.950 . S
H444 C440 0.950 . S
C445 C443 1.390 . S
C445 C446 1.387 1_545 S
C445 H448 0.950 . S
C446 C445 1.387 1_565 S
C446 C449 1.387 . S
H447 C443 0.950 . S
H448 C445 0.950 . S
C449 C440 1.390 . S
C449 H442 0.950 . S
C449 C446 1.387 . S
C450 C451 1.387 . S
C450 H454 0.950 . S
C450 C459 1.390 . S
C451 C450 1.387 . S
C451 C453 1.387 . S
H452 C459 0.950 . S
C453 C451 1.387 . S
C453 C455 1.390 . S
C453 H457 0.950 . S
H454 C450 0.950 . S
C455 C453 1.390 . S
C455 C456 1.387 . S
C455 H458 0.950 . S
C456 C455 1.387 . S
C456 C459 1.387 . S
H457 C453 0.950 . S
H458 C455 0.950 . S
C459 C450 1.390 . S
C459 H452 0.950 . S
C459 C456 1.387 . S
C460 C461 1.387 . S
C460 H464 0.950 . S
C460 C469 1.390 . S
C461 C460 1.387 . S
C461 C463 1.387 . S
H462 C469 0.950 . S
C463 C461 1.387 . S
C463 C465 1.390 . S
C463 H467 0.950 . S
H464 C460 0.950 . S
C465 C463 1.390 . S
C465 C466 1.387 . S
C465 H468 0.950 . S
C466 C465 1.387 . S
C466 C469 1.387 . S
H467 C463 0.950 . S
H468 C465 0.950 . S
C469 C460 1.390 . S
C469 H462 0.950 . S
C469 C466 1.387 . S
C470 C471 1.392 . S
C470 H474 0.954 . S
C470 C479 1.382 1_455 S
C471 C470 1.392 . S
C471 C473 1.387 1_455 S
H472 C479 0.950 . S
C473 C471 1.387 1_655 S
C473 C475 1.390 . S
C473 H477 0.949 1_655 S
H474 C470 0.954 . S
C475 C473 1.390 . S
C475 C476 1.387 . S
C475 H478 0.950 . S
C476 C475 1.387 . S
C476 C479 1.387 . S
H477 C473 0.949 1_455 S
H478 C475 0.950 . S
C479 C470 1.382 1_655 S
C479 H472 0.950 . S
C479 C476 1.387 . S
C480 C481 1.387 . S
C480 H484 0.950 . S
C480 C489 1.390 . S
C481 C480 1.387 . S
C481 C483 1.387 . S
H482 C489 0.950 . S
C483 C481 1.387 . S
C483 C485 1.390 . S
C483 H487 0.950 1_455 S
H484 C480 0.950 . S
C485 C483 1.390 . S
C485 C486 1.387 . S
C485 H488 0.950 1_455 S
C486 C485 1.387 . S
C486 C489 1.387 . S
H487 C483 0.950 1_655 S
H488 C485 0.950 1_655 S
C489 C480 1.390 . S
C489 H482 0.950 . S
C489 C486 1.387 . S
C490 C491 1.387 . S
C490 H494 0.950 . S
C490 C499 1.390 . S
C491 C490 1.387 . S
C491 C493 1.387 . S
H492 C499 0.950 . S
C493 C491 1.387 . S
C493 C495 1.390 . S
C493 H497 0.950 1_545 S
H494 C490 0.950 . S
C495 C493 1.390 . S
C495 C496 1.387 . S
C495 H498 0.950 1_545 S
C496 C495 1.387 . S
C496 C499 1.387 . S
H497 C493 0.950 1_565 S
H498 C495 0.950 1_565 S
C499 C490 1.390 . S
C499 H492 0.950 . S
C499 C496 1.387 . S
C500 C501 1.387 . S
C500 H504 0.950 . S
C500 C509 1.390 . S
C501 C500 1.387 . S
C501 C503 1.387 . S
H502 C509 0.950 . S
C503 C501 1.387 . S
C503 C505 1.390 . S
C503 H507 0.950 . S
H504 C500 0.950 . S
C505 C503 1.390 . S
C505 C506 1.387 . S
C505 H508 0.950 . S
C506 C505 1.387 . S
C506 C509 1.387 . S
H507 C503 0.950 . S
H508 C505 0.950 . S
C509 C500 1.390 . S
C509 H502 0.950 . S
C509 C506 1.387 . S
C510 C511 1.387 . S
C510 H514 0.950 . S
C510 C519 1.390 . S
C511 C510 1.387 . S
C511 C513 1.387 . S
H512 C519 0.950 . S
C513 C511 1.387 . S
C513 C515 1.390 . S
C513 H517 0.950 . S
H514 C510 0.950 . S
C515 C513 1.390 . S
C515 C516 1.387 . S
C515 H518 0.950 . S
C516 C515 1.387 . S
C516 C519 1.387 . S
H517 C513 0.950 . S
H518 C515 0.950 . S
C519 C510 1.390 . S
C519 H512 0.950 . S
C519 C516 1.387 . S
C520 C521 1.387 . S
C520 H524 0.950 . S
C520 C529 1.390 . S
C521 C520 1.387 . S
C521 C523 1.387 . S
H522 C529 0.950 . S
C523 C521 1.387 . S
C523 C525 1.390 . S
C523 H527 0.950 1_655 S
H524 C520 0.950 . S
C525 C523 1.390 . S
C525 C526 1.387 . S
C525 H528 0.950 1_655 S
C526 C525 1.387 . S
C526 C529 1.387 . S
H527 C523 0.950 1_455 S
H528 C525 0.950 1_455 S
C529 C520 1.390 . S
C529 H522 0.950 . S
C529 C526 1.387 . S
C530 C531 1.387 . S
C530 H534 0.950 . S
C530 C539 1.390 . S
C531 C530 1.387 . S
C531 C533 1.387 . S
H532 C539 0.950 . S
C533 C531 1.387 . S
C533 C535 1.390 . S
C533 H537 0.950 1_565 S
H534 C530 0.950 . S
C535 C533 1.390 . S
C535 C536 1.387 . S
C535 H538 0.950 1_565 S
C536 C535 1.387 . S
C536 C539 1.387 . S
H537 C533 0.950 1_545 S
H538 C535 0.950 1_545 S
C539 C530 1.390 . S
C539 H532 0.950 . S
C539 C536 1.387 . S
C540 C541 1.387 . S
C540 H544 0.950 . S
C540 C549 1.390 . S
C541 C540 1.387 . S
C541 C543 1.387 . S
H542 C549 0.950 . S
C543 C541 1.387 . S
C543 C545 1.390 . S
C543 H547 0.950 . S
H544 C540 0.950 . S
C545 C543 1.390 . S
C545 C546 1.387 . S
C545 H548 0.950 . S
C546 C545 1.387 . S
C546 C549 1.387 . S
H547 C543 0.950 . S
H548 C545 0.950 . S
C549 C540 1.390 . S
C549 H542 0.950 . S
C549 C546 1.387 . S
C550 C551 1.387 . S
C550 H554 0.950 . S
C550 C559 1.390 . S
C551 C550 1.387 . S
C551 C553 1.387 . S
H552 C559 0.950 . S
C553 C551 1.387 . S
C553 C555 1.390 . S
C553 H557 0.950 . S
H554 C550 0.950 . S
C555 C553 1.390 . S
C555 C556 1.387 . S
C555 H558 0.950 . S
C556 C555 1.387 . S
C556 C559 1.387 . S
H557 C553 0.950 . S
H558 C555 0.950 . S
C559 C550 1.390 . S
C559 H552 0.950 . S
C559 C556 1.387 . S
C560 C561 1.387 . S
C560 H564 0.950 . S
C560 C569 1.390 . S
C561 C560 1.387 . S
C561 C563 1.387 . S
H562 C569 0.950 . S
C563 C561 1.387 . S
C563 C565 1.390 . S
C563 H567 0.950 . S
H564 C560 0.950 . S
C565 C563 1.390 . S
C565 C566 1.387 . S
C565 H568 0.950 . S
C566 C565 1.387 . S
C566 C569 1.387 . S
H567 C563 0.950 . S
H568 C565 0.950 . S
C569 C560 1.390 . S
C569 H562 0.950 . S
C569 C566 1.387 . S
C570 C571 1.387 . S
C570 H574 0.950 . S
C570 C579 1.390 . S
C571 C570 1.387 . S
C571 C573 1.387 . S
H572 C579 0.950 . S
C573 C571 1.387 . S
C573 C575 1.390 . S
C573 H577 0.950 . S
H574 C570 0.950 . S
C575 C573 1.390 . S
C575 C576 1.387 . S
C575 H578 0.950 . S
C576 C575 1.387 . S
C576 C579 1.387 . S
H577 C573 0.950 . S
H578 C575 0.950 . S
C579 C570 1.390 . S
C579 H572 0.950 . S
C579 C576 1.387 . S
C580 C581 1.387 . S
C580 H584 0.950 . S
C580 C589 1.390 . S
C581 C580 1.387 . S
C581 C583 1.387 . S
H582 C589 0.950 . S
C583 C581 1.387 . S
C583 C585 1.390 . S
C583 H587 0.950 . S
H584 C580 0.950 . S
C585 C583 1.390 . S
C585 C586 1.387 . S
C585 H588 0.950 . S
C586 C585 1.387 . S
C586 C589 1.387 . S
H587 C583 0.950 . S
H588 C585 0.950 . S
C589 C580 1.390 . S
C589 H582 0.950 . S
C589 C586 1.387 . S
C590 C591 1.387 . S
C590 H594 0.950 . S
C590 C599 1.390 . S
C591 C590 1.387 . S
C591 C593 1.387 . S
H592 C599 0.950 . S
C593 C591 1.387 . S
C593 C595 1.390 . S
C593 H597 0.950 . S
H594 C590 0.950 . S
C595 C593 1.390 . S
C595 C596 1.387 . S
C595 H598 0.950 . S
C596 C595 1.387 . S
C596 C599 1.387 . S
H597 C593 0.950 . S
H598 C595 0.950 . S
C599 C590 1.390 . S
C599 H592 0.950 . S
C599 C596 1.387 . S
C600 C601 1.387 . S
C600 H604 0.950 . S
C600 C609 1.390 . S
C601 C600 1.387 . S
C601 C603 1.387 . S
H602 C609 0.950 . S
C603 C601 1.387 . S
C603 C605 1.390 . S
C603 H607 0.950 . S
H604 C600 0.950 . S
C605 C603 1.390 . S
C605 C606 1.387 . S
C605 H608 0.950 . S
C606 C605 1.387 . S
C606 C609 1.387 . S
H607 C603 0.950 . S
H608 C605 0.950 . S
C609 C600 1.390 . S
C609 H602 0.950 . S
C609 C606 1.387 . S
C610 C611 1.387 . S
C610 H614 0.950 . S
C610 C619 1.390 . S
C611 C610 1.387 . S
C611 C613 1.387 . S
H612 C619 0.950 . S
C613 C611 1.387 . S
C613 C615 1.390 . S
C613 H617 0.950 . S
H614 C610 0.950 . S
C615 C613 1.390 . S
C615 C616 1.387 . S
C615 H618 0.950 . S
C616 C615 1.387 . S
C616 C619 1.387 . S
H617 C613 0.950 . S
H618 C615 0.950 . S
C619 C610 1.390 . S
C619 H612 0.950 . S
C619 C616 1.387 . S
C620 C621 1.387 . S
C620 H624 0.950 . S
C620 C629 1.390 . S
C621 C620 1.387 . S
C621 C623 1.387 . S
H622 C629 0.950 . S
C623 C621 1.387 . S
C623 C625 1.390 . S
C623 H627 0.950 . S
H624 C620 0.950 . S
C625 C623 1.390 . S
C625 C626 1.387 . S
C625 H628 0.950 . S
C626 C625 1.387 . S
C626 C629 1.387 . S
H627 C623 0.950 . S
H628 C625 0.950 . S
C629 C620 1.390 . S
C629 H622 0.950 . S
C629 C626 1.387 . S
C630 C631 1.387 . S
C630 H634 0.950 . S
C630 C639 1.390 . S
C631 C630 1.387 . S
C631 C633 1.387 . S
H632 C639 0.950 . S
C633 C631 1.387 . S
C633 C635 1.390 . S
C633 H637 0.950 . S
H634 C630 0.950 . S
C635 C633 1.390 . S
C635 C636 1.387 . S
C635 H638 0.950 . S
C636 C635 1.387 . S
C636 C639 1.387 . S
H637 C633 0.950 . S
H638 C635 0.950 . S
C639 C630 1.390 . S
C639 H632 0.950 . S
C639 C636 1.387 . S
C640 C641 1.387 . S
C640 H644 0.950 . S
C640 C649 1.390 . S
C641 C640 1.387 . S
C641 C643 1.387 1_656 S
H642 C649 0.950 . S
C643 C641 1.387 1_454 S
C643 C645 1.390 . S
C643 H647 0.950 . S
H644 C640 0.950 . S
C645 C643 1.390 . S
C645 C646 1.387 . S
C645 H648 0.950 . S
C646 C645 1.387 . S
C646 C649 1.387 1_454 S
H647 C643 0.950 . S
H648 C645 0.950 . S
C649 C640 1.390 . S
C649 H642 0.950 . S
C649 C646 1.387 1_656 S
C650 C651 1.387 1_545 S
C650 H654 0.950 . S
C650 C659 1.390 1_455 S
C651 C650 1.387 1_565 S
C651 C653 1.387 1_556 S
H652 C659 0.950 . S
C653 C651 1.387 1_554 S
C653 C655 1.390 1_455 S
C653 H657 0.950 . S
H654 C650 0.950 . S
C655 C653 1.390 1_655 S
C655 C656 1.387 1_565 S
C655 H658 0.950 . S
C656 C655 1.387 1_545 S
C656 C659 1.387 1_554 S
H657 C653 0.950 . S
H658 C655 0.950 . S
C659 C650 1.390 1_655 S
C659 H652 0.950 . S
C659 C656 1.387 1_556 S
C660 C661 1.387 . S
C660 H664 0.950 . S
C660 C669 1.390 1_545 S
C661 C660 1.387 . S
C661 C663 1.387 1_556 S
H662 C669 0.950 . S
C663 C661 1.387 1_554 S
C663 C665 1.390 1_545 S
C663 H667 0.950 . S
H664 C660 0.950 . S
C665 C663 1.390 1_565 S
C665 C666 1.387 . S
C665 H668 0.950 . S
C666 C665 1.387 . S
C666 C669 1.387 1_554 S
H667 C663 0.950 . S
H668 C665 0.950 . S
C669 C660 1.390 1_565 S
C669 H662 0.950 . S
C669 C666 1.387 1_556 S
C670 C671 1.387 . S
C670 H674 0.950 . S
C670 C679 1.390 . S
C671 C670 1.387 . S
C671 C673 1.387 1_554 S
H672 C679 0.950 . S
C673 C671 1.387 1_556 S
C673 C675 1.390 . S
C673 H677 0.950 . S
H674 C670 0.950 . S
C675 C673 1.390 . S
C675 C676 1.387 . S
C675 H678 0.950 . S
C676 C675 1.387 . S
C676 C679 1.387 1_556 S
H677 C673 0.950 . S
H678 C675 0.950 . S
C679 C670 1.390 . S
C679 H672 0.950 . S
C679 C676 1.387 1_554 S
C680 C681 1.387 1_565 S
C680 H684 0.950 . S
C680 C689 1.390 . S
C681 C680 1.387 1_545 S
C681 C683 1.387 1_655 S
H682 C689 0.950 . S
C683 C681 1.387 1_455 S
C683 C685 1.390 . S
C683 H687 0.950 . S
H684 C680 0.950 . S
C685 C683 1.390 . S
C685 C686 1.387 1_545 S
C685 H688 0.950 . S
C686 C685 1.387 1_565 S
C686 C689 1.387 1_455 S
H687 C683 0.950 . S
H688 C685 0.950 . S
C689 C680 1.390 . S
C689 H682 0.950 . S
C689 C686 1.387 1_655 S
C690 C691 1.387 . S
C690 H694 0.950 . S
C690 C699 1.390 . S
C691 C690 1.387 . S
C691 C693 1.387 1_565 S
H692 C699 0.950 . S
C693 C691 1.387 1_545 S
C693 C695 1.390 . S
C693 H697 0.950 . S
H694 C690 0.950 . S
C695 C693 1.390 . S
C695 C696 1.387 . S
C695 H698 0.950 . S
C696 C695 1.387 . S
C696 C699 1.387 1_545 S
H697 C693 0.950 . S
H698 C695 0.950 . S
C699 C690 1.390 . S
C699 H692 0.950 . S
C699 C696 1.387 1_565 S
C700 C701 1.387 . S
C700 H704 0.950 . S
C700 C709 1.390 . S
C701 C700 1.387 . S
C701 C703 1.387 . S
H702 C709 0.950 . S
C703 C701 1.387 . S
C703 C705 1.390 . S
C703 H707 0.950 . S
H704 C700 0.950 . S
C705 C703 1.390 . S
C705 C706 1.387 . S
C705 H708 0.950 . S
C706 C705 1.387 . S
C706 C709 1.387 . S
H707 C703 0.950 . S
H708 C705 0.950 . S
C709 C700 1.390 . S
C709 H702 0.950 . S
C709 C706 1.387 . S
C710 C711 1.387 . S
C710 H714 0.950 . S
C710 C719 1.390 1_455 S
C711 C710 1.387 . S
C711 C713 1.387 . S
H712 C719 0.950 . S
C713 C711 1.387 . S
C713 C715 1.390 1_455 S
C713 H717 0.950 . S
H714 C710 0.950 . S
C715 C713 1.390 1_655 S
C715 C716 1.387 . S
C715 H718 0.950 . S
C716 C715 1.387 . S
C716 C719 1.387 . S
H717 C713 0.950 . S
H718 C715 0.950 . S
C719 C710 1.390 1_655 S
C719 H712 0.950 . S
C719 C716 1.387 . S
C720 C721 1.387 . S
C720 H724 0.950 1_455 S
C720 C729 1.390 . S
C721 C720 1.387 . S
C721 C723 1.387 . S
H722 C729 0.950 1_655 S
C723 C721 1.387 . S
C723 C725 1.390 . S
C723 H727 0.950 . S
H724 C720 0.950 1_655 S
C725 C723 1.390 . S
C725 C726 1.387 . S
C725 H728 0.950 . S
C726 C725 1.387 . S
C726 C729 1.387 . S
H727 C723 0.950 . S
H728 C725 0.950 . S
C729 C720 1.390 . S
C729 H722 0.950 1_455 S
C729 C726 1.387 . S
C730 C731 1.387 . S
C730 H734 0.950 . S
C730 C739 1.390 . S
C731 C730 1.387 . S
C731 C733 1.387 1_545 S
H732 C739 0.950 . S
C733 C731 1.387 1_565 S
C733 C735 1.390 . S
C733 H737 0.950 . S
H734 C730 0.950 . S
C735 C733 1.390 . S
C735 C736 1.387 1_565 S
C735 H738 0.950 . S
C736 C735 1.387 1_545 S
C736 C739 1.387 . S
H737 C733 0.950 . S
H738 C735 0.950 . S
C739 C730 1.390 . S
C739 H732 0.950 . S
C739 C736 1.387 . S
C740 C741 1.387 1_565 S
C740 H744 0.950 . S
C740 C749 1.390 . S
C741 C740 1.387 1_545 S
C741 C743 1.387 . S
H742 C749 0.950 . S
C743 C741 1.387 . S
C743 C745 1.390 . S
C743 H747 0.950 . S
H744 C740 0.950 . S
C745 C743 1.390 . S
C745 C746 1.387 . S
C745 H748 0.950 . S
C746 C745 1.387 . S
C746 C749 1.387 1_545 S
H747 C743 0.950 . S
H748 C745 0.950 . S
C749 C740 1.390 . S
C749 H742 0.950 . S
C749 C746 1.387 1_565 S
C750 C751 1.387 . S
C750 H754 0.950 . S
C750 C759 1.390 . S
C751 C750 1.387 . S
C751 C753 1.387 . S
H752 C759 0.950 . S
C753 C751 1.387 . S
C753 C755 1.390 . S
C753 H757 0.950 . S
H754 C750 0.950 . S
C755 C753 1.390 . S
C755 C756 1.387 . S
C755 H758 0.950 . S
C756 C755 1.387 . S
C756 C759 1.387 . S
H757 C753 0.950 . S
H758 C755 0.950 . S
C759 C750 1.390 . S
C759 H752 0.950 . S
C759 C756 1.387 . S
C760 C761 1.387 . S
C760 H764 0.950 . S
C760 C769 1.390 . S
C761 C760 1.387 . S
C761 C763 1.387 1_655 S
H762 C769 0.950 . S
C763 C761 1.387 1_455 S
C763 C765 1.390 . S
C763 H767 0.950 . S
H764 C760 0.950 . S
C765 C763 1.390 . S
C765 C766 1.388 1_455 S
C765 H768 0.949 . S
C766 C765 1.388 1_655 S
C766 C769 1.387 . S
H767 C763 0.950 . S
H768 C765 0.949 . S
C769 C760 1.390 . S
C769 H762 0.950 . S
C769 C766 1.387 . S
C770 C771 1.387 1_545 S
C770 H774 0.950 . S
C770 C779 1.389 1_545 S
C771 C770 1.387 1_565 S
C771 C773 1.387 . S
H772 C779 0.948 1_545 S
C773 C771 1.387 . S
C773 C775 1.390 . S
C773 H777 0.950 . S
H774 C770 0.950 . S
C775 C773 1.390 . S
C775 C776 1.387 . S
C775 H778 0.950 1_655 S
C776 C775 1.387 . S
C776 C779 1.391 . S
H777 C773 0.950 . S
H778 C775 0.950 1_455 S
C779 C770 1.389 1_565 S
C779 H772 0.948 1_565 S
C779 C776 1.391 . S
C780 C781 1.387 1_545 S
C780 H784 0.950 . S
C780 C789 1.390 . S
C781 C780 1.387 1_565 S
C781 C783 1.387 . S
H782 C789 0.950 . S
C783 C781 1.387 . S
C783 C785 1.390 . S
C783 H787 0.950 . S
H784 C780 0.950 . S
C785 C783 1.390 . S
C785 C786 1.387 . S
C785 H788 0.950 . S
C786 C785 1.387 . S
C786 C789 1.387 1_565 S
H787 C783 0.950 . S
H788 C785 0.950 . S
C789 C780 1.390 . S
C789 H782 0.950 . S
C789 C786 1.387 1_545 S
C790 C791 1.387 . S
C790 H794 0.950 . S
C790 C799 1.390 . S
C791 C790 1.387 . S
C791 C793 1.387 . S
H792 C799 0.950 . S
C793 C791 1.387 . S
C793 C795 1.390 . S
C793 H797 0.950 . S
H794 C790 0.950 . S
C795 C793 1.390 . S
C795 C796 1.387 . S
C795 H798 0.950 . S
C796 C795 1.387 . S
C796 C799 1.387 . S
H797 C793 0.950 . S
H798 C795 0.950 . S
C799 C790 1.390 . S
C799 H792 0.950 . S
C799 C796 1.387 . S
C321 C79 2.052 . S
C326 C12 2.098 . S
C331 C2 1.790 . S
C336 C32 1.836 . S
C341 C52 1.823 . S
C346 C22 1.808 . S
C351 C42 2.097 . S
C356 C69 2.089 . S
C361 C92 1.962 . S
C366 C102 1.930 . S
C371 C112 2.020 . S
C376 C122 1.968 . S
C381 C132 2.291 . S
C386 C142 2.208 . S
C391 C82 1.929 . S
C396 C152 2.003 . S
C401 C169 2.101 . S
C406 C238 2.055 . S
C411 C164 1.791 . S
C416 C189 1.836 . S
C421 C184 1.809 . S
C426 C209 1.824 . S
C431 C204 2.096 . S
C436 C232 2.089 . S
C441 C249 1.962 . S
C446 C264 1.929 . S
C451 C284 1.970 . S
C456 C269 2.018 . S
C461 C304 2.209 . S
C466 C289 2.294 . S
C471 C309 2.002 . S
C476 C244 1.931 . S
C481 C18 2.115 . S
C486 C98 2.111 . S
C491 C118 1.997 . S
C496 C38 1.997 . S
C501 C58 2.424 . S
C506 C138 2.425 . S
C511 C64 1.443 . S
C516 C158 1.503 . S
C521 C259 2.112 . S
C526 C179 2.115 . S
C531 C279 1.997 . S
C536 C199 1.997 . S
C541 C219 2.424 . S
C546 C299 2.425 . S
C551 C319 1.503 . S
C556 C222 1.443 . S
C561 C9 1.219 . S
C566 C49 1.224 . S
C571 C29 0.994 . S
C576 C72 1.005 . S
C581 C129 1.327 . S
C586 C89 1.330 . S
C591 C149 1.258 . S
C596 C109 1.261 . S
C601 C212 1.224 . S
C606 C172 1.219 . S
C611 C229 0.999 . S
C616 C192 0.987 . S
C621 C252 1.336 . S
C626 C292 1.333 . S
C631 C272 1.268 . S
C636 C312 1.264 . S
C641 C178 1.716 . S
C646 C19 1.716 . S
C651 C198 1.500 . S
C656 C39 1.500 . S
C661 C218 1.982 . S
C666 C59 1.982 . S
C671 C62 1.117 . S
C676 C224 1.117 . S
C681 C258 1.640 . S
C686 C99 1.640 . S
C691 C278 1.528 . S
C696 C119 1.528 . S
C701 C298 1.726 . S
C706 C139 1.726 . S
C711 C318 1.577 . S
C716 C159 1.577 . S
C721 C144 0.966 . S
C726 C4 1.117 . S
C731 C84 1.006 1_545 S
C736 C24 1.002 1_455 S
C741 C104 1.012 . S
C746 C44 1.041 1_545 S
C751 C124 1.037 . S
C756 C78 1.315 . S
C761 C302 0.964 . S
C766 C162 1.118 . S
C771 C242 1.004 1_565 S
C776 C182 1.004 1_655 S
C781 C262 1.018 . S
C786 C202 1.034 1_565 S
C791 C239 1.319 . S
C796 C282 1.030 . S
