# Generated by pormake.
# Topology noo, (5)-cn, num edge types: 1
# Building blocks:
#     Node 0, Type 0, BuildingBlock: XOMCOT_clean_sbu_1, # of connection points: 5
#     Node 1, Type 0, BuildingBlock: XOMCOT_clean_sbu_1, # of connection points: 5
#     Node 2, Type 0, BuildingBlock: XOMCOT_clean_sbu_1, # of connection points: 5
#     Node 3, Type 0, BuildingBlock: XOMCOT_clean_sbu_1, # of connection points: 5
#     Node 4, Type 0, BuildingBlock: XOMCOT_clean_sbu_1, # of connection points: 5
#     Node 5, Type 0, BuildingBlock: XOMCOT_clean_sbu_1, # of connection points: 5
#     Node 6, Type 0, BuildingBlock: XOMCOT_clean_sbu_1, # of connection points: 5
#     Node 7, Type 0, BuildingBlock: XOMCOT_clean_sbu_1, # of connection points: 5
#     Edge 8, Type (0, 0), BuildingBlock: EZIPEK_clean_linker_0, # of connection points: 2
#     Edge 9, Type (0, 0), BuildingBlock: EZIPEK_clean_linker_0, # of connection points: 2
#     Edge 10, Type (0, 0), BuildingBlock: EZIPEK_clean_linker_0, # of connection points: 2
#     Edge 11, Type (0, 0), BuildingBlock: EZIPEK_clean_linker_0, # of connection points: 2
#     Edge 12, Type (0, 0), BuildingBlock: EZIPEK_clean_linker_0, # of connection points: 2
#     Edge 13, Type (0, 0), BuildingBlock: EZIPEK_clean_linker_0, # of connection points: 2
#     Edge 14, Type (0, 0), BuildingBlock: EZIPEK_clean_linker_0, # of connection points: 2
#     Edge 15, Type (0, 0), BuildingBlock: EZIPEK_clean_linker_0, # of connection points: 2
#     Edge 16, Type (0, 0), BuildingBlock: EZIPEK_clean_linker_0, # of connection points: 2
#     Edge 17, Type (0, 0), BuildingBlock: EZIPEK_clean_linker_0, # of connection points: 2
#     Edge 18, Type (0, 0), BuildingBlock: EZIPEK_clean_linker_0, # of connection points: 2
#     Edge 19, Type (0, 0), BuildingBlock: EZIPEK_clean_linker_0, # of connection points: 2
#     Edge 20, Type (0, 0), BuildingBlock: EZIPEK_clean_linker_0, # of connection points: 2
#     Edge 21, Type (0, 0), BuildingBlock: EZIPEK_clean_linker_0, # of connection points: 2
#     Edge 22, Type (0, 0), BuildingBlock: EZIPEK_clean_linker_0, # of connection points: 2
#     Edge 23, Type (0, 0), BuildingBlock: EZIPEK_clean_linker_0, # of connection points: 2
#     Edge 24, Type (0, 0), BuildingBlock: EZIPEK_clean_linker_0, # of connection points: 2
#     Edge 25, Type (0, 0), BuildingBlock: EZIPEK_clean_linker_0, # of connection points: 2
#     Edge 26, Type (0, 0), BuildingBlock: EZIPEK_clean_linker_0, # of connection points: 2
#     Edge 27, Type (0, 0), BuildingBlock: EZIPEK_clean_linker_0, # of connection points: 2
# Relax obj value: 0.064
# Max RMSD: 0.098
# Mean RMSD: 0.098
data_MOF--net-noo--node1-XOMCOT_clean_sbu_1--edge1-EZIPEK_clean_linker_0
_symmetry_space_group_name_H-M    P1
_symmetry_Int_Tables_number       1
_symmetry_cell_setting            triclinic
loop_
_symmetry_equiv_pos_as_xyz
'x, y, z'
_cell_length_a     31.911268
_cell_length_b     32.000418
_cell_length_c     19.538357
_cell_angle_alpha  89.82528
_cell_angle_beta   89.79072
_cell_angle_gamma 90.019727
loop_
_atom_site_label
_atom_site_type_symbol
_atom_site_fract_x
_atom_site_fract_y
_atom_site_fract_z
_atom_type_partial_charge
C0 C 0.43927 0.28426 0.97346 0.0
C1 C 0.42168 0.32336 0.97777 0.0
N2 N 0.38702 0.32071 1.01706 0.0
N3 N 0.41632 0.25715 1.011 0.0
C4 C 0.38412 0.28011 0.03603 0.0
H5 H 0.46784 0.27623 0.94665 0.0
Co6 Co 0.43227 0.20165 1.02592 0.0
C7 C 0.40007 0.19793 0.17467 0.0
O8 O 0.43681 0.20731 0.20026 0.0
N9 N 0.44816 0.14508 0.03955 0.0
C10 C 0.47226 0.08715 0.08915 0.0
C11 C 0.4584 0.12702 0.09992 0.0
C12 C 0.45674 0.11514 0.99242 0.0
N13 N 0.47126 0.07975 1.02172 0.0
O14 O 0.38696 0.18426 0.96668 0.0
H15 H 0.45862 0.14219 0.1488 0.0
H16 H 0.45442 0.11957 0.93773 0.0
O17 O 0.39494 0.1972 0.10933 0.0
C18 C 0.39992 0.18483 0.90451 0.0
O19 O 0.43948 0.1944 0.8937 0.0
N20 N 0.48075 0.22065 0.07416 0.0
C21 C 0.55574 0.26545 0.08408 0.0
C22 C 0.51892 0.28073 0.11429 0.0
C23 C 0.48176 0.25755 0.10956 0.0
C24 C 0.51739 0.20417 0.04954 0.0
C25 C 0.55531 0.2254 0.0559 0.0
H26 H 0.45302 0.27172 0.12739 0.0
H27 H 0.51721 0.17677 1.01761 0.0
H28 H 0.35964 0.26772 0.06877 0.0
H29 H 0.43338 0.35168 0.95401 0.0
H30 H 0.48418 0.06578 0.1275 0.0
H31 H 0.51812 0.3117 0.13647 0.0
H32 H 0.58316 0.21274 1.03179 0.0
C33 C 0.72477 0.43589 1.00224 0.0
C34 C 0.68703 0.41536 1.00504 0.0
N35 N 0.69362 0.37747 0.03267 0.0
N36 N 0.75506 0.41139 1.02908 0.0
C37 C 0.73517 0.37531 0.04547 0.0
H38 H 0.72968 0.46714 0.98264 0.0
Co39 Co 0.81079 0.42944 0.03823 0.0
C40 C 0.80121 0.38215 0.17947 0.0
O41 O 0.76034 0.38268 0.18568 0.0
N42 N 0.86623 0.44825 0.04701 0.0
C43 C 0.9234 0.47369 0.09652 0.0
C44 C 0.88406 0.45803 0.10753 0.0
C45 C 0.89544 0.45879 0.99947 0.0
N46 N 0.93049 0.47415 1.02882 0.0
O47 O 0.82981 0.38252 0.98393 0.0
H48 H 0.86894 0.45544 0.15679 0.0
H49 H 0.89084 0.45633 0.9448 0.0
O50 O 0.81916 0.39831 0.12672 0.0
C51 C 0.82583 0.39174 0.92031 0.0
O52 O 0.80835 0.42761 0.90432 0.0
N53 N 0.7919 0.47858 0.08073 0.0
C54 C 0.75014 0.55419 0.09932 0.0
C55 C 0.74573 0.52175 0.14746 0.0
C56 C 0.76635 0.48357 0.13635 0.0
C57 C 0.79887 0.51111 0.03692 0.0
C58 C 0.77836 0.54905 0.04519 0.0
H59 H 0.75904 0.45765 0.16922 0.0
H60 H 0.81772 0.50641 0.9915 0.0
H61 H 0.75058 0.34816 0.06684 0.0
H62 H 0.65694 0.42733 0.98867 0.0
H63 H 0.94498 0.4848 0.13505 0.0
H64 H 0.72402 0.52477 0.18989 0.0
H65 H 0.7825 0.57333 1.00696 0.0
C66 C 0.6147 0.73043 0.95419 0.0
C67 C 0.63692 0.69438 0.96582 0.0
N68 N 0.65517 0.69734 1.02756 0.0
N69 N 0.61933 0.75635 1.0079 0.0
C70 C 0.64397 0.73509 0.05228 0.0
H71 H 0.59485 0.73648 0.9106 0.0
Co72 Co 0.59043 0.8066 1.01737 0.0
C73 C 0.61287 0.82083 0.17041 0.0
O74 O 0.57602 0.81024 0.19459 0.0
N75 N 0.56053 0.85761 1.02744 0.0
C76 C 0.51831 0.90579 0.07253 0.0
C77 C 0.53555 0.86708 0.08134 0.0
C78 C 0.55683 0.89121 0.98534 0.0
N79 N 0.53182 0.921 1.01245 0.0
O80 O 0.63426 0.83501 0.965 0.0
H81 H 0.52833 0.84656 0.1234 0.0
H82 H 0.5714 0.89382 0.93561 0.0
O83 O 0.62051 0.81911 0.10569 0.0
C84 C 0.62713 0.83238 0.90051 0.0
O85 O 0.59253 0.81389 0.88064 0.0
N86 N 0.54534 0.77682 0.05626 0.0
C87 C 0.47337 0.72821 0.0748 0.0
C88 C 0.50763 0.72409 0.11948 0.0
C89 C 0.54418 0.74772 0.10764 0.0
C90 C 0.51233 0.78058 1.01256 0.0
C91 C 0.47619 0.75698 1.02109 0.0
H92 H 0.57174 0.74142 0.13789 0.0
H93 H 0.51469 0.80116 0.96871 0.0
H94 H 0.65213 0.746 0.10284 0.0
H95 H 0.63808 0.6672 0.93299 0.0
H96 H 0.49693 0.92151 0.10707 0.0
H97 H 0.50685 0.70144 0.16076 0.0
H98 H 0.45088 0.76045 0.98468 0.0
C99 C 0.28661 0.59398 0.95849 0.0
C100 C 0.32484 0.61331 0.96477 0.0
N101 N 0.32425 0.63654 1.02208 0.0
N102 N 0.26162 0.60539 1.01099 0.0
C103 C 0.28553 0.6314 0.0491 0.0
H104 H 0.2781 0.57176 0.91937 0.0
Co105 Co 0.20789 0.58348 1.02532 0.0
C106 C 0.20238 0.61049 0.17699 0.0
O107 O 0.21566 0.57437 0.20022 0.0
N108 N 0.15329 0.56172 0.03935 0.0
C109 C 0.09909 0.53011 0.08958 0.0
C110 C 0.13896 0.54469 0.09844 0.0
C111 C 0.12131 0.55626 0.99465 0.0
N112 N 0.08804 0.53745 1.02455 0.0
O113 O 0.1849 0.62903 0.97069 0.0
H114 H 0.1568 0.54101 0.1446 0.0
H115 H 0.12265 0.5645 0.94102 0.0
O116 O 0.20041 0.61705 0.112 0.0
C117 C 0.18609 0.62006 0.90669 0.0
O118 O 0.20041 0.58322 0.88861 0.0
N119 N 0.23222 0.53523 0.06758 0.0
C120 C 0.28047 0.46214 0.07423 0.0
C121 C 0.29367 0.49865 0.10743 0.0
C122 C 0.26883 0.53487 0.10407 0.0
C123 C 0.21854 0.49904 0.03788 0.0
C124 C 0.24127 0.46207 0.04275 0.0
H125 H 0.28103 0.56329 0.12587 0.0
H126 H 0.19185 0.49916 1.00414 0.0
H127 H 0.2756 0.64493 0.09716 0.0
H128 H 0.3517 0.60932 0.93139 0.0
H129 H 0.08001 0.51403 0.1273 0.0
H130 H 0.32409 0.49996 0.13172 0.0
H131 H 0.23035 0.43465 1.01568 0.0
C132 C 0.92656 0.22564 0.6007 0.0
C133 C 0.90419 0.1894 0.59113 0.0
N134 N 0.87264 0.19765 0.54772 0.0
N135 N 0.90919 0.25669 0.56342 0.0
C136 C 0.87592 0.23869 0.53221 0.0
H137 H 0.95498 0.2287 0.63023 0.0
Co138 Co 0.93309 0.30994 0.55078 0.0
C139 C 0.90531 0.31868 0.40131 0.0
O140 O 0.94181 0.30695 0.37713 0.0
N141 N 0.95636 0.3639 0.53641 0.0
C142 C 0.99106 0.41623 0.48639 0.0
C143 C 0.97744 0.37602 0.47941 0.0
C144 C 0.95749 0.39802 0.57739 0.0
N145 N 0.97856 0.42997 0.54781 0.0
O146 O 0.89018 0.33392 0.61011 0.0
H147 H 0.98461 0.35645 0.4363 0.0
H148 H 0.94349 0.39962 0.62766 0.0
O149 O 0.89858 0.31923 0.46628 0.0
C150 C 0.9015 0.32607 0.67196 0.0
O151 O 0.93553 0.30365 0.68098 0.0
N152 N 0.97959 0.28457 0.506 0.0
C153 C 0.05015 0.23303 0.49815 0.0
C154 C 0.01316 0.22231 0.46365 0.0
C155 C 0.97821 0.24891 0.46755 0.0
C156 C 0.01622 0.29575 0.53717 0.0
C157 C 0.05211 0.27148 0.53145 0.0
H158 H 0.94901 0.23871 0.4457 0.0
H159 H 0.01702 0.32158 0.57257 0.0
H160 H 0.85547 0.25468 0.49672 0.0
H161 H 0.91114 0.15901 0.61279 0.0
H162 H 1.00968 0.43386 0.44994 0.0
H163 H 0.0104 0.19245 0.43812 0.0
H164 H 0.07993 0.28046 0.55948 0.0
C165 C 0.79202 0.93898 0.57832 0.0
C166 C 0.83008 0.91911 0.57397 0.0
N167 N 0.82543 0.88493 0.53476 0.0
N168 N 0.76355 0.91803 0.54062 0.0
C169 C 0.78463 0.88439 0.51636 0.0
H170 H 0.78591 0.96812 0.60441 0.0
Co171 Co 0.70841 0.93701 0.52618 0.0
C172 C 0.71509 0.89425 0.38614 0.0
O173 O 0.74862 0.91519 0.36813 0.0
N174 N 0.65236 0.95411 0.51509 0.0
C175 C 0.58785 0.96299 0.47467 0.0
C176 C 0.62615 0.9452 0.46273 0.0
C177 C 0.62879 0.9773 0.55855 0.0
N178 N 0.58964 0.98324 0.53455 0.0
O179 O 0.68869 0.89596 0.59349 0.0
H180 H 0.63378 0.92727 0.41783 0.0
H181 H 0.64062 0.99118 0.60484 0.0
O182 O 0.69988 0.89812 0.44681 0.0
C183 C 0.69379 0.91014 0.65444 0.0
O184 O 0.71265 0.94639 0.66118 0.0
N185 N 0.72903 0.98332 0.46762 0.0
C186 C 0.76989 0.0607 0.46019 0.0
C187 C 0.79181 0.02387 0.44706 0.0
C188 C 0.77058 0.98562 0.44901 0.0
C189 C 0.70646 0.01992 0.46671 0.0
C190 C 0.72629 0.05886 0.46381 0.0
H191 H 0.7896 0.9581 0.44364 0.0
H192 H 0.67329 0.02067 0.47446 0.0
H193 H 0.77087 0.8605 0.48457 0.0
H194 H 0.85915 0.92912 0.59716 0.0
H195 H 0.5607 0.96158 0.44166 0.0
H196 H 0.82559 0.02423 0.44127 0.0
H197 H 0.70805 0.08706 0.47104 0.0
C198 C 0.0828 0.79353 0.57713 0.0
C199 C 0.10461 0.8305 0.57382 0.0
N200 N 0.14177 0.82293 0.54378 0.0
N201 N 0.10573 0.76272 0.5483 0.0
C202 C 0.14221 0.78151 0.53012 0.0
H203 H 0.05153 0.78948 0.59749 0.0
Co204 Co 0.08535 0.70769 0.53651 0.0
C205 C 0.13671 0.71443 0.39883 0.0
O206 O 0.13317 0.75467 0.38809 0.0
N207 N 0.06595 0.6528 0.52403 0.0
C208 C 0.04084 0.59677 0.47105 0.0
C209 C 0.05686 0.63614 0.46228 0.0
C210 C 0.05526 0.62271 0.56968 0.0
N211 N 0.03988 0.58846 0.53842 0.0
O212 O 0.1278 0.68662 0.5997 0.0
H213 H 0.0601 0.65225 0.41381 0.0
H214 H 0.0577 0.62598 0.62435 0.0
O215 O 0.12068 0.69756 0.45262 0.0
C216 C 0.11602 0.69544 0.66113 0.0
O217 O 0.08335 0.71995 0.66877 0.0
N218 N 0.03822 0.72896 0.48639 0.0
C219 C 0.96434 0.77557 0.47384 0.0
C220 C 1.00145 0.78893 0.44172 0.0
C221 C 0.03802 0.76461 0.44738 0.0
C222 C 1.00113 0.71435 0.51271 0.0
C223 C 0.96381 0.73621 0.50466 0.0
H224 H 0.06686 0.77789 0.42899 0.0
H225 H 1.00045 0.68817 0.54749 0.0
H226 H 0.16837 0.76549 0.50661 0.0
H227 H 0.09388 0.86078 0.59111 0.0
H228 H 0.0296 0.57614 0.43131 0.0
H229 H 1.00309 0.81943 0.41769 0.0
H230 H 0.93581 0.72493 0.53028 0.0
C231 C 0.22946 0.07254 0.58689 0.0
C232 C 0.18943 0.08834 0.58581 0.0
N233 N 0.19052 0.12531 0.55299 0.0
N234 N 0.25548 0.09883 0.55322 0.0
C235 C 0.23099 0.1315 0.5351 0.0
H236 H 0.23894 0.04303 0.60894 0.0
Co237 Co 0.31207 0.08654 0.53715 0.0
C238 C 0.29601 0.13511 0.39796 0.0
O239 O 0.25561 0.12974 0.39023 0.0
N240 N 0.36892 0.0744 0.52176 0.0
C241 C 0.4269 0.05553 0.46652 0.0
C242 C 0.38569 0.06662 0.45943 0.0
C243 C 0.40082 0.06791 0.56612 0.0
N244 N 0.43619 0.05611 0.53346 0.0
O245 O 0.32735 0.13371 0.59359 0.0
H246 H 0.36857 0.06717 0.41179 0.0
H247 H 0.39797 0.06985 0.62115 0.0
O248 O 0.31494 0.12005 0.45038 0.0
C249 C 0.32886 0.11985 0.6552 0.0
O250 O 0.32132 0.07983 0.6647 0.0
N251 N 0.29626 0.03628 0.49168 0.0
C252 C 0.25464 0.95948 0.48583 0.0
C253 C 0.23915 0.99437 0.4503 0.0
C254 C 0.26099 0.03241 0.45265 0.0
C255 C 0.31364 1.00142 0.52067 0.0
C256 C 0.29407 0.96252 0.5164 0.0
H257 H 0.24608 0.05961 0.43156 0.0
H258 H 0.34026 1.00412 0.55424 0.0
H259 H 0.2423 0.15914 0.50897 0.0
H260 H 0.16157 0.07377 0.60683 0.0
H261 H 0.44814 0.04622 0.426 0.0
H262 H 0.20877 0.9932 0.42584 0.0
H263 H 0.30716 0.93619 0.54399 0.0
C264 C 0.47834 0.96853 0.96793 0.0
C265 C 0.52062 0.96147 0.98609 0.0
C266 C 0.53219 0.03685 0.99287 0.0
C267 C 0.48837 0.04295 0.99021 0.0
N268 N 0.41936 0.01673 0.96887 0.0
N269 N 0.58907 0.98798 1.01256 0.0
C270 C 0.46139 0.00948 0.97377 0.0
C271 C 0.54833 0.9955 0.99541 0.0
N272 N 0.45449 0.93539 0.9479 0.0
N273 N 0.55776 0.07096 0.99581 0.0
H274 H 0.60148 0.95788 1.01485 0.0
H275 H 0.61004 0.01112 1.02738 0.0
H276 H 0.54577 0.10132 0.99472 0.0
H277 H 0.59031 0.0694 0.99342 0.0
H278 H 0.42388 0.93802 0.93025 0.0
H279 H 0.46702 0.90532 0.94418 0.0
H280 H 0.39699 0.9933 0.96378 0.0
H281 H 0.40683 0.0468 0.97188 0.0
C282 C 0.97333 0.53376 0.99276 0.0
C283 C 0.96817 0.48999 0.99777 0.0
C284 C 0.04375 0.4804 0.98447 0.0
C285 C 0.04927 0.52367 0.99503 0.0
N286 N 0.02092 0.59274 1.00382 0.0
N287 N 0.99701 0.42089 0.99568 0.0
C288 C 0.01442 0.55094 0.99538 0.0
C289 C 1.00296 0.46299 0.99054 0.0
N290 N 0.93858 0.55847 0.98896 0.0
N291 N 0.07811 0.45617 0.97217 0.0
H292 H 0.96722 0.4079 1.00131 0.0
H293 H 0.02123 0.39917 0.99764 0.0
H294 H 0.10815 0.46903 0.96888 0.0
H295 H 0.0766 0.4246 0.95984 0.0
H296 H 0.93955 0.59065 0.98143 0.0
H297 H 0.90842 0.54579 0.98824 0.0
H298 H 0.99707 0.61442 1.01129 0.0
H299 H 0.05098 0.60552 1.00551 0.0
C300 C 0.96184 0.50417 0.5631 0.0
C301 C 0.98927 0.47027 0.57469 0.0
C302 C 0.04853 0.51805 0.58749 0.0
C303 C 0.02199 0.55141 0.56827 0.0
N304 N 0.9529 0.57963 0.55713 0.0
N305 N 0.05461 0.44419 0.61632 0.0
C306 C 0.97819 0.54548 0.56354 0.0
C307 C 0.03126 0.47728 0.59428 0.0
N308 N 0.9211 0.49626 0.54656 0.0
N309 N 0.09051 0.5251 0.59401 0.0
H310 H 0.04188 0.41421 0.62047 0.0
H311 H 0.08495 0.44678 0.63513 0.0
H312 H 0.10343 0.55495 0.58996 0.0
H313 H 0.1126 0.50163 0.60132 0.0
H314 H 0.90003 0.51902 0.53038 0.0
H315 H 0.90873 0.46607 0.54731 0.0
H316 H 0.92032 0.57827 0.55723 0.0
H317 H 0.965 0.60996 0.55708 0.0
C318 C 0.52099 0.98371 0.58966 0.0
C319 C 0.55537 1.00644 0.56334 0.0
C320 C 0.51106 0.0682 0.55036 0.0
C321 C 0.47552 0.04273 0.56156 0.0
N322 N 0.44532 0.97725 0.59678 0.0
N323 N 0.58572 0.07109 0.52568 0.0
C324 C 0.48012 1.00102 0.58484 0.0
C325 C 0.55139 0.04942 0.54771 0.0
N326 N 0.52788 0.94488 0.61637 0.0
N327 N 0.50544 0.11 0.5399 0.0
H328 H 0.61558 0.05794 0.52562 0.0
H329 H 0.58467 0.1014 0.50633 0.0
H330 H 0.4757 0.12359 0.54148 0.0
H331 H 0.52986 0.13138 0.53502 0.0
H332 H 0.5049 0.92705 0.64062 0.0
H333 H 0.55798 0.93218 0.61902 0.0
H334 H 0.44616 0.9453 0.60675 0.0
H335 H 0.4151 0.98941 0.59421 0.0
C336 C 0.32373 0.40056 0.11634 0.0
C337 C 0.30955 0.42632 0.06182 0.0
C338 C 0.34083 0.37793 0.97916 0.0
C339 C 0.35901 0.35481 0.03322 0.0
N340 N 0.37462 0.34897 0.15341 0.0
N341 N 0.31469 0.44501 0.94204 0.0
C342 C 0.3523 0.36737 0.10206 0.0
C343 C 0.32111 0.41662 0.99336 0.0
N344 N 0.30914 0.40698 0.18125 0.0
N345 N 0.3412 0.36215 0.91432 0.0
H346 H 0.30225 0.47469 0.95064 0.0
H347 H 0.32602 0.44087 0.89244 0.0
H348 H 0.35365 0.33284 0.90287 0.0
H349 H 0.32505 0.37593 0.87386 0.0
H350 H 0.31508 0.38654 0.22166 0.0
H351 H 0.28822 0.43088 0.19344 0.0
H352 H 0.37398 0.35943 0.20383 0.0
H353 H 0.39685 0.32579 0.14437 0.0
C354 C 0.60414 0.30402 1.00354 0.0
C355 C 0.59254 0.29339 0.07191 0.0
C356 C 0.64718 0.34037 0.11462 0.0
C357 C 0.66165 0.3468 0.04677 0.0
N358 N 0.65892 0.32929 0.92765 0.0
N359 N 0.60792 0.29603 0.19264 0.0
C360 C 0.6417 0.3267 0.99158 0.0
C361 C 0.6156 0.30991 0.12763 0.0
N362 N 0.57811 0.29472 0.95028 0.0
N363 N 0.6619 0.36509 0.16593 0.0
H364 H 0.58528 0.27348 0.20388 0.0
H365 H 0.62649 0.30414 0.23429 0.0
H366 H 0.68318 0.38921 0.15684 0.0
H367 H 0.64982 0.36456 0.21553 0.0
H368 H 0.58323 0.30531 0.90048 0.0
H369 H 0.54905 0.28033 0.95678 0.0
H370 H 0.6481 0.312 0.88621 0.0
H371 H 0.68654 0.34578 0.91786 0.0
C372 C 0.65587 0.62582 0.07383 0.0
C373 C 0.67699 0.66404 0.06227 0.0
C374 C 0.74218 0.63213 0.10249 0.0
C375 C 0.72297 0.59213 0.09957 0.0
N376 N 0.66132 0.5506 0.07482 0.0
N377 N 0.7409 0.7039 0.06229 0.0
C378 C 0.6795 0.58881 0.08446 0.0
C379 C 0.72025 0.66758 0.07693 0.0
N380 N 0.61311 0.62514 0.07417 0.0
N381 N 0.78149 0.63594 0.12912 0.0
H382 H 0.72581 0.73019 0.0427 0.0
H383 H 0.77335 0.70695 0.06481 0.0
H384 H 0.79793 0.61039 0.14872 0.0
H385 H 0.79591 0.66463 0.13782 0.0
H386 H 0.59567 0.59889 0.08803 0.0
H387 H 0.59532 0.65225 0.06775 0.0
H388 H 0.63099 0.54696 0.05616 0.0
H389 H 0.67735 0.52243 0.07964 0.0
C390 C 0.39764 0.63596 0.06152 0.0
C391 C 0.3598 0.65814 0.05098 0.0
C392 C 0.39529 0.72258 0.08522 0.0
C393 C 0.43464 0.70206 0.08 0.0
N394 N 0.47323 0.63858 0.0559 0.0
N395 N 0.32318 0.72396 0.04723 0.0
C396 C 0.43593 0.65836 0.06732 0.0
C397 C 0.35849 0.70181 0.06251 0.0
N398 N 0.39677 0.59342 0.0663 0.0
N399 N 0.39332 0.76211 0.11118 0.0
H400 H 0.29617 0.71012 1.0279 0.0
H401 H 0.322 0.75649 0.04793 0.0
H402 H 0.41983 0.77773 0.12904 0.0
H403 H 0.36517 0.77739 0.12142 0.0
H404 H 0.42289 0.57564 0.07949 0.0
H405 H 0.36879 0.57654 0.06468 0.0
H406 H 0.4752 0.60777 0.03905 0.0
H407 H 0.50212 0.65366 0.05749 0.0
C408 C 0.81713 0.12154 0.43125 0.0
C409 C 0.79283 0.09935 0.48021 0.0
C410 C 0.81423 0.14916 0.56882 0.0
C411 C 0.84285 0.16754 0.52239 0.0
N412 N 0.87568 0.16837 0.41138 0.0
N413 N 0.77354 0.08804 0.59883 0.0
C414 C 0.84516 0.15326 0.45379 0.0
C415 C 0.79248 0.11227 0.54989 0.0
N416 N 0.81306 0.11256 0.36328 0.0
N417 N 0.80777 0.1674 0.63104 0.0
H418 H 0.75832 0.06001 0.58808 0.0
H419 H 0.77626 0.0937 0.65108 0.0
H420 H 0.82322 0.1947 0.64561 0.0
H421 H 0.78435 0.15796 0.66501 0.0
H422 H 0.82686 0.13032 0.32454 0.0
H423 H 0.7928 0.08948 0.34538 0.0
H424 H 0.88194 0.15622 0.36304 0.0
H425 H 0.89701 0.19098 0.42688 0.0
C426 C 0.91848 0.815 0.55623 0.0
C427 C 0.92867 0.80479 0.48729 0.0
C428 C 0.87108 0.84984 0.44843 0.0
C429 C 0.85818 0.85558 0.51744 0.0
N430 N 0.86377 0.83519 0.63545 0.0
N431 N 0.91027 0.80735 0.36775 0.0
C432 C 0.88018 0.83552 0.57082 0.0
C433 C 0.90367 0.82072 0.4332 0.0
N434 N 0.9462 0.80678 0.60771 0.0
N435 N 0.85369 0.87361 0.39788 0.0
H436 H 0.93375 0.78606 0.35492 0.0
H437 H 0.8903 0.81467 0.32739 0.0
H438 H 0.83088 0.8961 0.40759 0.0
H439 H 0.86465 0.87376 0.3476 0.0
H440 H 0.94181 0.81716 0.65773 0.0
H441 H 0.97568 0.79379 0.59912 0.0
H442 H 0.87656 0.81773 0.67535 0.0
H443 H 0.83482 0.84862 0.64706 0.0
C444 C 0.21094 0.89814 0.44534 0.0
C445 C 0.22734 0.92229 0.49993 0.0
C446 C 0.19376 0.87449 0.58222 0.0
C447 C 0.17318 0.854 0.52806 0.0
N448 N 0.15497 0.85219 0.40886 0.0
N449 N 0.22538 0.93861 0.62105 0.0
C450 C 0.17994 0.86725 0.45963 0.0
C451 C 0.21651 0.91178 0.56876 0.0
N452 N 0.2254 0.90411 0.38019 0.0
N453 N 0.19152 0.8581 0.64671 0.0
H454 H 0.23952 0.9676 0.61361 0.0
H455 H 0.21451 0.93417 0.67089 0.0
H456 H 0.17517 0.8306 0.65757 0.0
H457 H 0.20914 0.86941 0.68746 0.0
H458 H 0.21724 0.88476 0.33957 0.0
H459 H 0.24862 0.9259 0.36811 0.0
H460 H 0.15582 0.86347 0.3588 0.0
H461 H 0.13035 0.83163 0.41876 0.0
C462 C 0.09353 0.18985 0.57848 0.0
C463 C 0.08442 0.20217 0.5101 0.0
C464 C 0.14196 0.1579 0.46965 0.0
C465 C 0.15499 0.1516 0.53819 0.0
N466 N 0.14705 0.16713 0.65777 0.0
N467 N 0.10357 0.20183 0.39045 0.0
C468 C 0.1318 0.16915 0.59266 0.0
C469 C 0.1096 0.18722 0.4554 0.0
N470 N 0.06498 0.19665 0.62956 0.0
N471 N 0.15907 0.13429 0.41874 0.0
H472 H 0.08035 0.22348 0.37818 0.0
H473 H 0.12382 0.19502 0.35004 0.0
H474 H 0.18069 0.11065 0.42875 0.0
H475 H 0.14841 0.13494 0.36841 0.0
H476 H 0.06858 0.185 0.67905 0.0
H477 H 0.0356 0.20983 0.6207 0.0
H478 H 0.1334 0.18292 0.69875 0.0
H479 H 0.17567 0.1531 0.66939 0.0
C480 C 0.35052 0.14254 0.22282 0.0
C481 C 0.36666 0.18406 0.2244 0.0
C482 C 0.33475 0.1942 0.33886 0.0
C483 C 0.32067 0.15212 0.3387 0.0
N484 N 0.31817 0.08468 0.28468 0.0
N485 N 0.36638 0.25215 0.27601 0.0
C486 C 0.32894 0.12606 0.28137 0.0
C487 C 0.35656 0.21061 0.28046 0.0
N488 N 0.35517 0.1189 0.1651 0.0
N489 N 0.32829 0.21804 0.39591 0.0
H490 H 0.38077 0.26519 0.23291 0.0
H491 H 0.35732 0.27449 0.31164 0.0
H492 H 0.31162 0.20727 0.4385 0.0
H493 H 0.34121 0.24751 0.40325 0.0
H494 H 0.34039 0.09035 0.15738 0.0
H495 H 0.37099 0.12902 0.12158 0.0
H496 H 0.32762 0.06236 0.24928 0.0
H497 H 0.30212 0.07154 0.32606 0.0
C498 C 0.84058 0.39307 0.29015 0.0
C499 C 0.8266 0.36552 0.23793 0.0
C500 C 0.85914 0.30624 0.29874 0.0
C501 C 0.87335 0.33379 0.35085 0.0
N502 N 0.87263 0.40236 0.40186 0.0
N503 N 0.81644 0.29539 0.19721 0.0
C504 C 0.86234 0.37687 0.34839 0.0
C505 C 0.83408 0.32191 0.24374 0.0
N506 N 0.8338 0.43506 0.28319 0.0
N507 N 0.87016 0.26497 0.30163 0.0
H508 H 0.79929 0.30587 0.15517 0.0
H509 H 0.81653 0.26301 0.20189 0.0
H510 H 0.8853 0.2518 0.34371 0.0
H511 H 0.86571 0.24391 0.26187 0.0
H512 H 0.84733 0.45775 0.31403 0.0
H513 H 0.81627 0.4478 0.24348 0.0
H514 H 0.8619 0.43284 0.40744 0.0
H515 H 0.88983 0.39238 0.44398 0.0
C516 C 0.67233 0.90032 0.27826 0.0
C517 C 0.68967 0.87446 0.33045 0.0
C518 C 0.6596 0.81253 0.27396 0.0
C519 C 0.64401 0.83825 0.2201 0.0
N520 N 0.64096 0.90589 0.16553 0.0
N521 N 0.70483 0.8057 0.3736 0.0
C522 C 0.65238 0.88186 0.2204 0.0
C523 C 0.68461 0.83044 0.32712 0.0
N524 N 0.6728 0.94282 0.28596 0.0
N525 N 0.64999 0.77089 0.2746 0.0
H526 H 0.72251 0.81786 0.41365 0.0
H527 H 0.70646 0.7733 0.37019 0.0
H528 H 0.63452 0.7562 0.23433 0.0
H529 H 0.65565 0.75118 0.316 0.0
H530 H 0.65651 0.96336 0.25438 0.0
H531 H 0.68623 0.95774 0.3279 0.0
H532 H 0.65047 0.93675 0.15873 0.0
H533 H 0.62466 0.89424 0.12364 0.0
C534 C 0.12869 0.68135 0.28231 0.0
C535 C 0.15344 0.68789 0.34175 0.0
C536 C 0.21261 0.65226 0.28517 0.0
C537 C 0.18664 0.64181 0.22859 0.0
N538 N 0.11792 0.64316 0.17688 0.0
N539 N 0.21759 0.67616 0.40303 0.0
C540 C 0.14425 0.65589 0.22775 0.0
C541 C 0.19501 0.67227 0.34409 0.0
N542 N 0.0901 0.69975 0.27771 0.0
N543 N 0.25468 0.64451 0.28125 0.0
H544 H 0.20609 0.69155 0.44621 0.0
H545 H 0.2463 0.66155 0.41109 0.0
H546 H 0.26877 0.63137 0.23809 0.0
H547 H 0.27621 0.65479 0.31739 0.0
H548 H 0.07286 0.70117 0.23263 0.0
H549 H 0.07616 0.71596 0.31804 0.0
H550 H 0.08555 0.64705 0.17858 0.0
H551 H 0.1278 0.62642 0.13434 0.0
C552 C 0.66987 0.8263 0.79192 0.0
C553 C 0.65418 0.85163 0.8461 0.0
C554 C 0.66018 0.91302 0.77196 0.0
C555 C 0.67834 0.88853 0.71845 0.0
N556 N 0.71009 0.82292 0.68626 0.0
N557 N 0.64859 0.92056 0.89381 0.0
C558 C 0.68591 0.84536 0.73078 0.0
C559 C 0.65428 0.89546 0.83822 0.0
N560 N 0.66937 0.78384 0.79892 0.0
N561 N 0.64584 0.95241 0.75882 0.0
H562 H 0.64593 0.90868 0.94333 0.0
H563 H 0.6517 0.95297 0.89168 0.0
H564 H 0.64619 0.96562 0.71021 0.0
H565 H 0.62878 0.96984 0.79426 0.0
H566 H 0.67518 0.76343 0.75855 0.0
H567 H 0.66147 0.76915 0.84491 0.0
H568 H 0.72008 0.79252 0.69613 0.0
H569 H 0.72364 0.83588 0.64248 0.0
C570 C 0.17959 0.67792 0.73513 0.0
C571 C 0.13551 0.67734 0.72481 0.0
C572 C 0.12619 0.65402 0.8448 0.0
C573 C 0.16984 0.64795 0.8511 0.0
N574 N 0.23887 0.65299 0.80139 0.0
N575 N 0.06713 0.65674 0.7685 0.0
C576 C 0.19673 0.65958 0.79584 0.0
C577 C 0.10889 0.66346 0.77948 0.0
N578 N 0.20502 0.6978 0.68898 0.0
N579 N 0.10092 0.6507 0.90113 0.0
H580 H 0.05248 0.66156 0.72174 0.0
H581 H 0.04765 0.64196 0.80399 0.0
H582 H 0.11242 0.64439 0.94986 0.0
H583 H 0.06933 0.65894 0.90092 0.0
H584 H 0.23682 0.70302 0.6972 0.0
H585 H 0.19376 0.71267 0.64524 0.0
H586 H 0.25958 0.65546 0.76025 0.0
H587 H 0.25283 0.64334 0.84695 0.0
C588 C 0.32115 0.13378 0.78101 0.0
C589 C 0.33938 0.14566 0.71714 0.0
C590 C 0.38228 0.19597 0.78032 0.0
C591 C 0.37304 0.17526 0.84332 0.0
N592 N 0.33487 0.11934 0.9001 0.0
N593 N 0.39212 0.18734 0.65865 0.0
C594 C 0.34235 0.14308 0.84318 0.0
C595 C 0.37093 0.17701 0.71712 0.0
N596 N 0.28322 0.11404 0.78248 0.0
N597 N 0.40117 0.23427 0.78071 0.0
H598 H 0.38637 0.17392 0.61125 0.0
H599 H 0.41828 0.20688 0.65879 0.0
H600 H 0.40714 0.25045 0.82594 0.0
H601 H 0.40573 0.25194 0.73637 0.0
H602 H 0.26727 0.10748 0.82794 0.0
H603 H 0.26556 0.10923 0.73831 0.0
H604 H 0.3157 0.09296 0.8992 0.0
H605 H 0.35058 0.12308 0.94619 0.0
C606 C 0.83621 0.33869 0.74552 0.0
C607 C 0.88011 0.34299 0.73473 0.0
C608 C 0.88787 0.36402 0.85541 0.0
C609 C 0.84386 0.36639 0.863 0.0
N610 N 0.77529 0.35757 0.81387 0.0
N611 N 0.94625 0.36941 0.77733 0.0
C612 C 0.8178 0.35424 0.80742 0.0
C613 C 0.9055 0.35821 0.78922 0.0
N614 N 0.81234 0.31799 0.69865 0.0
N615 N 0.91322 0.36711 0.91124 0.0
H616 H 0.96046 0.36784 0.72937 0.0
H617 H 0.96455 0.38482 0.81344 0.0
H618 H 0.90176 0.37062 0.96081 0.0
H619 H 0.94528 0.361 0.90908 0.0
H620 H 0.78108 0.31007 0.70708 0.0
H621 H 0.8246 0.3054 0.65374 0.0
H622 H 0.75475 0.35434 0.77292 0.0
H623 H 0.76073 0.36538 0.86002 0.0
loop_
_geom_bond_atom_site_label_1
_geom_bond_atom_site_label_2
_geom_bond_distance
_geom_bond_site_symmetry_2
_ccdc_geom_bond_type
C0 C1 1.351 . S
C0 N3 1.368 . S
C0 H5 0.931 . S
C1 C0 1.351 . S
C1 N2 1.373 1_556 S
C1 H29 0.930 . S
N2 C1 1.373 1_554 S
N2 C4 1.340 . S
N3 C0 1.368 . S
N3 C4 1.321 1_556 S
N3 Co6 2.137 . S
C4 N2 1.340 . S
C4 N3 1.321 1_554 S
C4 H28 0.930 . S
H5 C0 0.931 . S
Co6 N3 2.137 . S
Co6 N9 2.119 1_556 S
Co6 O14 2.065 . S
Co6 O17 2.027 1_556 S
Co6 N20 2.139 1_556 S
C7 O8 1.227 . S
C7 O17 1.265 . S
O8 C7 1.227 . S
N9 Co6 2.119 1_554 S
N9 C11 1.375 . S
N9 C12 1.313 1_554 S
C10 C11 1.338 . S
C10 N13 1.377 1_554 S
C10 H30 0.930 . S
C11 N9 1.375 . S
C11 C10 1.338 . S
C11 H15 0.931 . S
C12 N9 1.313 1_556 S
C12 N13 1.344 . S
C12 H16 0.930 . S
N13 C10 1.377 1_556 S
N13 C12 1.344 . S
O14 Co6 2.065 . S
O14 C18 1.253 . S
H15 C11 0.931 . S
H16 C12 0.930 . S
O17 Co6 2.027 1_554 S
O17 C7 1.265 . S
C18 O14 1.253 . S
C18 O19 1.227 . S
O19 C18 1.227 . S
N20 Co6 2.139 1_554 S
N20 C23 1.346 . S
N20 C24 1.345 1_554 S
C21 C22 1.387 . S
C21 C25 1.391 1_554 S
C22 C21 1.387 . S
C22 C23 1.369 . S
C22 H31 0.929 . S
C23 N20 1.346 . S
C23 C22 1.369 . S
C23 H26 0.928 . S
C24 N20 1.345 1_556 S
C24 C25 1.371 . S
C24 H27 0.931 . S
C25 C21 1.391 1_556 S
C25 C24 1.371 . S
C25 H32 0.930 . S
H26 C23 0.928 . S
H27 C24 0.931 . S
H28 C4 0.930 . S
H29 C1 0.930 . S
H30 C10 0.930 . S
H31 C22 0.929 . S
H32 C25 0.930 . S
C33 C34 1.351 . S
C33 N36 1.368 . S
C33 H38 0.931 . S
C34 C33 1.351 . S
C34 N35 1.373 1_556 S
C34 H62 0.930 . S
N35 C34 1.373 1_554 S
N35 C37 1.340 . S
N36 C33 1.368 . S
N36 C37 1.321 1_556 S
N36 Co39 2.137 . S
C37 N35 1.340 . S
C37 N36 1.321 1_554 S
C37 H61 0.930 . S
H38 C33 0.931 . S
Co39 N36 2.137 . S
Co39 N42 2.119 1_556 S
Co39 O47 2.065 . S
Co39 O50 2.027 1_556 S
Co39 N53 2.139 1_556 S
C40 O41 1.227 . S
C40 O50 1.265 . S
O41 C40 1.227 . S
N42 Co39 2.119 1_554 S
N42 C44 1.375 . S
N42 C45 1.313 1_554 S
C43 C44 1.338 . S
C43 N46 1.377 1_554 S
C43 H63 0.930 . S
C44 N42 1.375 . S
C44 C43 1.338 . S
C44 H48 0.931 . S
C45 N42 1.313 1_556 S
C45 N46 1.344 . S
C45 H49 0.930 . S
N46 C43 1.377 1_556 S
N46 C45 1.344 . S
O47 Co39 2.065 . S
O47 C51 1.253 . S
H48 C44 0.931 . S
H49 C45 0.930 . S
O50 Co39 2.027 1_554 S
O50 C40 1.265 . S
C51 O47 1.253 . S
C51 O52 1.227 . S
O52 C51 1.227 . S
N53 Co39 2.139 1_554 S
N53 C56 1.346 . S
N53 C57 1.345 1_554 S
C54 C55 1.387 . S
C54 C58 1.391 1_554 S
C55 C54 1.387 . S
C55 C56 1.369 . S
C55 H64 0.929 . S
C56 N53 1.346 . S
C56 C55 1.369 . S
C56 H59 0.928 . S
C57 N53 1.345 1_556 S
C57 C58 1.371 . S
C57 H60 0.931 . S
C58 C54 1.391 1_556 S
C58 C57 1.371 . S
C58 H65 0.930 . S
H59 C56 0.928 . S
H60 C57 0.931 . S
H61 C37 0.930 . S
H62 C34 0.930 . S
H63 C43 0.930 . S
H64 C55 0.929 . S
H65 C58 0.930 . S
C66 C67 1.351 . S
C66 N69 1.368 . S
C66 H71 0.931 . S
C67 C66 1.351 . S
C67 N68 1.373 1_556 S
C67 H95 0.930 . S
N68 C67 1.373 1_554 S
N68 C70 1.340 . S
N69 C66 1.368 . S
N69 C70 1.321 1_556 S
N69 Co72 2.137 . S
C70 N68 1.340 . S
C70 N69 1.321 1_554 S
C70 H94 0.930 . S
H71 C66 0.931 . S
Co72 N69 2.137 . S
Co72 N75 2.119 1_556 S
Co72 O80 2.065 . S
Co72 O83 2.027 1_556 S
Co72 N86 2.139 1_556 S
C73 O74 1.227 . S
C73 O83 1.265 . S
O74 C73 1.227 . S
N75 Co72 2.119 1_554 S
N75 C77 1.375 . S
N75 C78 1.313 1_554 S
C76 C77 1.338 . S
C76 N79 1.377 1_554 S
C76 H96 0.930 . S
C77 N75 1.375 . S
C77 C76 1.338 . S
C77 H81 0.931 . S
C78 N75 1.313 1_556 S
C78 N79 1.344 . S
C78 H82 0.930 . S
N79 C76 1.377 1_556 S
N79 C78 1.344 . S
O80 Co72 2.065 . S
O80 C84 1.253 . S
H81 C77 0.931 . S
H82 C78 0.930 . S
O83 Co72 2.027 1_554 S
O83 C73 1.265 . S
C84 O80 1.253 . S
C84 O85 1.227 . S
O85 C84 1.227 . S
N86 Co72 2.139 1_554 S
N86 C89 1.346 . S
N86 C90 1.345 1_554 S
C87 C88 1.387 . S
C87 C91 1.391 1_554 S
C88 C87 1.387 . S
C88 C89 1.369 . S
C88 H97 0.929 . S
C89 N86 1.346 . S
C89 C88 1.369 . S
C89 H92 0.928 . S
C90 N86 1.345 1_556 S
C90 C91 1.371 . S
C90 H93 0.931 . S
C91 C87 1.391 1_556 S
C91 C90 1.371 . S
C91 H98 0.930 . S
H92 C89 0.928 . S
H93 C90 0.931 . S
H94 C70 0.930 . S
H95 C67 0.930 . S
H96 C76 0.930 . S
H97 C88 0.929 . S
H98 C91 0.930 . S
C99 C100 1.351 . S
C99 N102 1.368 . S
C99 H104 0.931 . S
C100 C99 1.351 . S
C100 N101 1.373 1_556 S
C100 H128 0.930 . S
N101 C100 1.373 1_554 S
N101 C103 1.340 . S
N102 C99 1.368 . S
N102 C103 1.321 1_556 S
N102 Co105 2.137 . S
C103 N101 1.340 . S
C103 N102 1.321 1_554 S
C103 H127 0.930 . S
H104 C99 0.931 . S
Co105 N102 2.137 . S
Co105 N108 2.119 1_556 S
Co105 O113 2.065 . S
Co105 O116 2.027 1_556 S
Co105 N119 2.139 1_556 S
C106 O107 1.227 . S
C106 O116 1.265 . S
O107 C106 1.227 . S
N108 Co105 2.119 1_554 S
N108 C110 1.375 . S
N108 C111 1.313 1_554 S
C109 C110 1.338 . S
C109 N112 1.377 1_554 S
C109 H129 0.930 . S
C110 N108 1.375 . S
C110 C109 1.338 . S
C110 H114 0.931 . S
C111 N108 1.313 1_556 S
C111 N112 1.344 . S
C111 H115 0.930 . S
N112 C109 1.377 1_556 S
N112 C111 1.344 . S
O113 Co105 2.065 . S
O113 C117 1.253 . S
H114 C110 0.931 . S
H115 C111 0.930 . S
O116 Co105 2.027 1_554 S
O116 C106 1.265 . S
C117 O113 1.253 . S
C117 O118 1.227 . S
O118 C117 1.227 . S
N119 Co105 2.139 1_554 S
N119 C122 1.346 . S
N119 C123 1.345 1_554 S
C120 C121 1.387 . S
C120 C124 1.391 1_554 S
C121 C120 1.387 . S
C121 C122 1.369 . S
C121 H130 0.929 . S
C122 N119 1.346 . S
C122 C121 1.369 . S
C122 H125 0.928 . S
C123 N119 1.345 1_556 S
C123 C124 1.371 . S
C123 H126 0.931 . S
C124 C120 1.391 1_556 S
C124 C123 1.371 . S
C124 H131 0.930 . S
H125 C122 0.928 . S
H126 C123 0.931 . S
H127 C103 0.930 . S
H128 C100 0.930 . S
H129 C109 0.930 . S
H130 C121 0.929 . S
H131 C124 0.930 . S
C132 C133 1.351 . S
C132 N135 1.368 . S
C132 H137 0.931 . S
C133 C132 1.351 . S
C133 N134 1.373 . S
C133 H161 0.930 . S
N134 C133 1.373 . S
N134 C136 1.340 . S
N135 C132 1.368 . S
N135 C136 1.321 . S
N135 Co138 2.135 . S
C136 N134 1.340 . S
C136 N135 1.321 . S
C136 H160 0.930 . S
H137 C132 0.931 . S
Co138 N135 2.135 . S
Co138 N141 2.121 . S
Co138 O146 2.055 . S
Co138 O149 2.039 . S
Co138 N152 2.140 . S
C139 O140 1.227 . S
C139 O149 1.265 . S
O140 C139 1.227 . S
N141 Co138 2.121 . S
N141 C143 1.375 . S
N141 C144 1.313 . S
C142 C143 1.338 . S
C142 N145 1.377 . S
C142 H162 0.930 . S
C143 N141 1.375 . S
C143 C142 1.338 . S
C143 H147 0.931 . S
C144 N141 1.313 . S
C144 N145 1.344 . S
C144 H148 0.930 . S
N145 C142 1.377 . S
N145 C144 1.344 . S
O146 Co138 2.055 . S
O146 C150 1.253 . S
H147 C143 0.931 . S
H148 C144 0.930 . S
O149 Co138 2.039 . S
O149 C139 1.265 . S
C150 O146 1.253 . S
C150 O151 1.227 . S
O151 C150 1.227 . S
N152 Co138 2.140 . S
N152 C155 1.346 . S
N152 C156 1.345 . S
C153 C154 1.387 1_455 S
C153 C157 1.391 . S
C154 C153 1.387 1_655 S
C154 C155 1.369 . S
C154 H163 0.929 . S
C155 N152 1.346 . S
C155 C154 1.369 . S
C155 H158 0.928 . S
C156 N152 1.345 . S
C156 C157 1.371 1_655 S
C156 H159 0.931 . S
C157 C153 1.391 . S
C157 C156 1.371 1_455 S
C157 H164 0.930 . S
H158 C155 0.928 . S
H159 C156 0.931 . S
H160 C136 0.930 . S
H161 C133 0.930 . S
H162 C142 0.930 . S
H163 C154 0.929 . S
H164 C157 0.930 . S
C165 C166 1.351 . S
C165 N168 1.368 . S
C165 H170 0.931 . S
C166 C165 1.351 . S
C166 N167 1.373 . S
C166 H194 0.930 . S
N167 C166 1.373 . S
N167 C169 1.340 . S
N168 C165 1.368 . S
N168 C169 1.321 . S
N168 Co171 2.135 . S
C169 N167 1.340 . S
C169 N168 1.321 . S
C169 H193 0.930 . S
H170 C165 0.931 . S
Co171 N168 2.135 . S
Co171 N174 2.121 . S
Co171 O179 2.055 . S
Co171 O182 2.039 . S
Co171 N185 2.140 . S
C172 O173 1.227 . S
C172 O182 1.265 . S
O173 C172 1.227 . S
N174 Co171 2.121 . S
N174 C176 1.375 . S
N174 C177 1.313 . S
C175 C176 1.338 . S
C175 N178 1.377 . S
C175 H195 0.930 . S
C176 N174 1.375 . S
C176 C175 1.338 . S
C176 H180 0.931 . S
C177 N174 1.313 . S
C177 N178 1.344 . S
C177 H181 0.930 . S
N178 C175 1.377 . S
N178 C177 1.344 . S
O179 Co171 2.055 . S
O179 C183 1.253 . S
H180 C176 0.931 . S
H181 C177 0.930 . S
O182 Co171 2.039 . S
O182 C172 1.265 . S
C183 O179 1.253 . S
C183 O184 1.227 . S
O184 C183 1.227 . S
N185 Co171 2.140 . S
N185 C188 1.346 . S
N185 C189 1.345 . S
C186 C187 1.387 1_545 S
C186 C190 1.391 . S
C187 C186 1.387 1_565 S
C187 C188 1.369 . S
C187 H196 0.929 . S
C188 N185 1.346 . S
C188 C187 1.369 . S
C188 H191 0.928 . S
C189 N185 1.345 . S
C189 C190 1.371 1_565 S
C189 H192 0.931 . S
C190 C186 1.391 . S
C190 C189 1.371 1_545 S
C190 H197 0.930 . S
H191 C188 0.928 . S
H192 C189 0.931 . S
H193 C169 0.930 . S
H194 C166 0.930 . S
H195 C175 0.930 . S
H196 C187 0.929 . S
H197 C190 0.930 . S
C198 C199 1.351 . S
C198 N201 1.368 . S
C198 H203 0.931 . S
C199 C198 1.351 . S
C199 N200 1.373 . S
C199 H227 0.930 . S
N200 C199 1.373 . S
N200 C202 1.340 . S
N201 C198 1.368 . S
N201 C202 1.321 . S
N201 Co204 2.135 . S
C202 N200 1.340 . S
C202 N201 1.321 . S
C202 H226 0.930 . S
H203 C198 0.931 . S
Co204 N201 2.135 . S
Co204 N207 2.121 . S
Co204 O212 2.055 . S
Co204 O215 2.039 . S
Co204 N218 2.140 . S
C205 O206 1.227 . S
C205 O215 1.265 . S
O206 C205 1.227 . S
N207 Co204 2.121 . S
N207 C209 1.375 . S
N207 C210 1.313 . S
C208 C209 1.338 . S
C208 N211 1.377 . S
C208 H228 0.930 . S
C209 N207 1.375 . S
C209 C208 1.338 . S
C209 H213 0.931 . S
C210 N207 1.313 . S
C210 N211 1.344 . S
C210 H214 0.930 . S
N211 C208 1.377 . S
N211 C210 1.344 . S
O212 Co204 2.055 . S
O212 C216 1.253 . S
H213 C209 0.931 . S
H214 C210 0.930 . S
O215 Co204 2.039 . S
O215 C205 1.265 . S
C216 O212 1.253 . S
C216 O217 1.227 . S
O217 C216 1.227 . S
N218 Co204 2.140 . S
N218 C221 1.346 . S
N218 C222 1.345 . S
C219 C220 1.387 1_655 S
C219 C223 1.391 . S
C220 C219 1.387 1_455 S
C220 C221 1.369 . S
C220 H229 0.929 . S
C221 N218 1.346 . S
C221 C220 1.369 . S
C221 H224 0.928 . S
C222 N218 1.345 . S
C222 C223 1.371 1_455 S
C222 H225 0.931 . S
C223 C219 1.391 . S
C223 C222 1.371 1_655 S
C223 H230 0.930 . S
H224 C221 0.928 . S
H225 C222 0.931 . S
H226 C202 0.930 . S
H227 C199 0.930 . S
H228 C208 0.930 . S
H229 C220 0.929 . S
H230 C223 0.930 . S
C231 C232 1.351 . S
C231 N234 1.368 . S
C231 H236 0.931 . S
C232 C231 1.351 . S
C232 N233 1.373 . S
C232 H260 0.930 . S
N233 C232 1.373 . S
N233 C235 1.340 . S
N234 C231 1.368 . S
N234 C235 1.321 . S
N234 Co237 2.135 . S
C235 N233 1.340 . S
C235 N234 1.321 . S
C235 H259 0.930 . S
H236 C231 0.931 . S
Co237 N234 2.135 . S
Co237 N240 2.121 . S
Co237 O245 2.055 . S
Co237 O248 2.039 . S
Co237 N251 2.140 . S
C238 O239 1.227 . S
C238 O248 1.265 . S
O239 C238 1.227 . S
N240 Co237 2.121 . S
N240 C242 1.375 . S
N240 C243 1.313 . S
C241 C242 1.338 . S
C241 N244 1.377 . S
C241 H261 0.930 . S
C242 N240 1.375 . S
C242 C241 1.338 . S
C242 H246 0.931 . S
C243 N240 1.313 . S
C243 N244 1.344 . S
C243 H247 0.930 . S
N244 C241 1.377 . S
N244 C243 1.344 . S
O245 Co237 2.055 . S
O245 C249 1.253 . S
H246 C242 0.931 . S
H247 C243 0.930 . S
O248 Co237 2.039 . S
O248 C238 1.265 . S
C249 O245 1.253 . S
C249 O250 1.227 . S
O250 C249 1.227 . S
N251 Co237 2.140 . S
N251 C254 1.346 . S
N251 C255 1.345 . S
C252 C253 1.387 1_565 S
C252 C256 1.391 . S
C253 C252 1.387 1_545 S
C253 C254 1.369 . S
C253 H262 0.929 . S
C254 N251 1.346 . S
C254 C253 1.369 . S
C254 H257 0.928 . S
C255 N251 1.345 . S
C255 C256 1.371 1_545 S
C255 H258 0.931 . S
C256 C252 1.391 . S
C256 C255 1.371 1_565 S
C256 H263 0.930 . S
H257 C254 0.928 . S
H258 C255 0.931 . S
H259 C235 0.930 . S
H260 C232 0.930 . S
H261 C241 0.930 . S
H262 C253 0.929 . S
H263 C256 0.930 . S
C264 C265 1.363 1_554 S
C264 C270 1.379 1_565 S
C264 N272 1.356 . S
C265 C264 1.363 1_556 S
C265 C271 1.363 . S
C266 C267 1.363 . S
C266 C271 1.379 1_545 S
C266 N273 1.356 . S
C267 C266 1.363 . S
C267 C270 1.363 1_556 S
N268 C270 1.356 . S
N268 H280 0.984 . S
N268 H281 0.985 . S
N269 C271 1.356 . S
N269 H274 0.984 . S
N269 H275 0.985 . S
C270 C264 1.379 1_545 S
C270 C267 1.363 1_554 S
C270 N268 1.356 . S
C271 C265 1.363 . S
C271 C266 1.379 1_565 S
C271 N269 1.356 . S
N272 C264 1.356 . S
N272 H278 0.984 . S
N272 H279 0.984 . S
N273 C266 1.356 . S
N273 H276 0.984 . S
N273 H277 0.985 . S
H274 N269 0.984 . S
H275 N269 0.985 . S
H276 N273 0.984 . S
H277 N273 0.985 . S
H278 N272 0.984 . S
H279 N272 0.984 . S
H280 N268 0.984 . S
H281 N268 0.985 . S
C282 C283 1.363 1_554 S
C282 C288 1.379 1_655 S
C282 N290 1.356 . S
C283 C282 1.363 1_556 S
C283 C289 1.363 . S
C284 C285 1.363 . S
C284 C289 1.379 1_455 S
C284 N291 1.356 . S
C285 C284 1.363 . S
C285 C288 1.363 1_556 S
N286 C288 1.356 . S
N286 H298 0.984 . S
N286 H299 0.985 . S
N287 C289 1.356 . S
N287 H292 0.984 . S
N287 H293 0.985 . S
C288 C282 1.379 1_455 S
C288 C285 1.363 1_554 S
C288 N286 1.356 . S
C289 C283 1.363 . S
C289 C284 1.379 1_655 S
C289 N287 1.356 . S
N290 C282 1.356 . S
N290 H296 0.984 . S
N290 H297 0.984 . S
N291 C284 1.356 . S
N291 H294 0.984 . S
N291 H295 0.985 . S
H292 N287 0.984 . S
H293 N287 0.985 . S
H294 N291 0.984 . S
H295 N291 0.985 . S
H296 N290 0.984 . S
H297 N290 0.984 . S
H298 N286 0.984 . S
H299 N286 0.985 . S
C300 C301 1.363 . S
C300 C306 1.379 . S
C300 N308 1.356 . S
C301 C300 1.363 . S
C301 C307 1.363 1_655 S
C302 C303 1.363 . S
C302 C307 1.379 . S
C302 N309 1.356 . S
C303 C302 1.363 . S
C303 C306 1.363 1_455 S
N304 C306 1.356 . S
N304 H316 0.984 . S
N304 H317 0.985 1_655 S
N305 C307 1.356 . S
N305 H310 0.984 1_455 S
N305 H311 0.985 . S
C306 C300 1.379 . S
C306 C303 1.363 1_655 S
C306 N304 1.356 . S
C307 C301 1.363 1_455 S
C307 C302 1.379 . S
C307 N305 1.356 . S
N308 C300 1.356 . S
N308 H314 0.984 . S
N308 H315 0.984 . S
N309 C302 1.356 . S
N309 H312 0.984 . S
N309 H313 0.985 . S
H310 N305 0.984 1_655 S
H311 N305 0.985 . S
H312 N309 0.984 . S
H313 N309 0.985 . S
H314 N308 0.984 . S
H315 N308 0.984 . S
H316 N304 0.984 . S
H317 N304 0.985 1_455 S
C318 C319 1.363 . S
C318 C324 1.379 . S
C318 N326 1.356 . S
C319 C318 1.363 . S
C319 C325 1.363 1_565 S
C320 C321 1.363 . S
C320 C325 1.379 . S
C320 N327 1.356 . S
C321 C320 1.363 . S
C321 C324 1.363 1_545 S
N322 C324 1.356 . S
N322 H334 0.984 . S
N322 H335 0.985 1_565 S
N323 C325 1.356 . S
N323 H328 0.984 1_545 S
N323 H329 0.985 . S
C324 C318 1.379 . S
C324 C321 1.363 1_565 S
C324 N322 1.356 . S
C325 C319 1.363 1_545 S
C325 C320 1.379 . S
C325 N323 1.356 . S
N326 C318 1.356 . S
N326 H332 0.984 . S
N326 H333 0.984 . S
N327 C320 1.356 . S
N327 H330 0.984 . S
N327 H331 0.985 . S
H328 N323 0.984 1_565 S
H329 N323 0.985 . S
H330 N327 0.984 . S
H331 N327 0.985 . S
H332 N326 0.984 . S
H333 N326 0.984 . S
H334 N322 0.984 . S
H335 N322 0.985 1_545 S
C336 C337 1.363 . S
C336 C342 1.379 . S
C336 N344 1.356 . S
C337 C336 1.363 . S
C337 C343 1.363 1_554 S
C338 C339 1.363 1_556 S
C338 C343 1.379 . S
C338 N345 1.356 . S
C339 C338 1.363 1_554 S
C339 C342 1.363 . S
N340 C342 1.356 . S
N340 H352 0.984 . S
N340 H353 0.985 . S
N341 C343 1.356 . S
N341 H346 0.984 . S
N341 H347 0.985 . S
C342 C336 1.379 . S
C342 C339 1.363 . S
C342 N340 1.356 . S
C343 C337 1.363 1_556 S
C343 C338 1.379 . S
C343 N341 1.356 . S
N344 C336 1.356 . S
N344 H350 0.984 . S
N344 H351 0.984 . S
N345 C338 1.356 . S
N345 H348 0.984 . S
N345 H349 0.985 . S
H346 N341 0.984 . S
H347 N341 0.985 . S
H348 N345 0.984 . S
H349 N345 0.985 . S
H350 N344 0.984 . S
H351 N344 0.984 . S
H352 N340 0.984 . S
H353 N340 0.985 . S
C354 C355 1.363 1_556 S
C354 C360 1.379 . S
C354 N362 1.356 . S
C355 C354 1.363 1_554 S
C355 C361 1.363 . S
C356 C357 1.363 . S
C356 C361 1.379 . S
C356 N363 1.356 . S
C357 C356 1.363 . S
C357 C360 1.363 1_554 S
N358 C360 1.356 . S
N358 H370 0.984 . S
N358 H371 0.985 . S
N359 C361 1.356 . S
N359 H364 0.984 . S
N359 H365 0.985 . S
C360 C354 1.379 . S
C360 C357 1.363 1_556 S
C360 N358 1.356 . S
C361 C355 1.363 . S
C361 C356 1.379 . S
C361 N359 1.356 . S
N362 C354 1.356 . S
N362 H368 0.984 . S
N362 H369 0.984 . S
N363 C356 1.356 . S
N363 H366 0.984 . S
N363 H367 0.985 . S
H364 N359 0.984 . S
H365 N359 0.985 . S
H366 N363 0.984 . S
H367 N363 0.985 . S
H368 N362 0.984 . S
H369 N362 0.984 . S
H370 N358 0.984 . S
H371 N358 0.985 . S
C372 C373 1.363 1_556 S
C372 C378 1.379 . S
C372 N380 1.356 . S
C373 C372 1.363 1_554 S
C373 C379 1.363 . S
C374 C375 1.363 . S
C374 C379 1.379 . S
C374 N381 1.356 . S
C375 C374 1.363 . S
C375 C378 1.363 1_554 S
N376 C378 1.356 . S
N376 H388 0.984 . S
N376 H389 0.985 . S
N377 C379 1.356 . S
N377 H382 0.984 . S
N377 H383 0.985 . S
C378 C372 1.379 . S
C378 C375 1.363 1_556 S
C378 N376 1.356 . S
C379 C373 1.363 . S
C379 C374 1.379 . S
C379 N377 1.356 . S
N380 C372 1.356 . S
N380 H386 0.984 . S
N380 H387 0.984 . S
N381 C374 1.356 . S
N381 H384 0.984 . S
N381 H385 0.985 . S
H382 N377 0.984 . S
H383 N377 0.985 . S
H384 N381 0.984 . S
H385 N381 0.985 . S
H386 N380 0.984 . S
H387 N380 0.984 . S
H388 N376 0.984 . S
H389 N376 0.985 . S
C390 C391 1.363 1_556 S
C390 C396 1.379 . S
C390 N398 1.356 . S
C391 C390 1.363 1_554 S
C391 C397 1.363 . S
C392 C393 1.363 . S
C392 C397 1.379 . S
C392 N399 1.356 . S
C393 C392 1.363 . S
C393 C396 1.363 1_554 S
N394 C396 1.356 . S
N394 H406 0.984 . S
N394 H407 0.985 . S
N395 C397 1.356 . S
N395 H400 0.984 . S
N395 H401 0.985 . S
C396 C390 1.379 . S
C396 C393 1.363 1_556 S
C396 N394 1.356 . S
C397 C391 1.363 . S
C397 C392 1.379 . S
C397 N395 1.356 . S
N398 C390 1.356 . S
N398 H404 0.984 . S
N398 H405 0.984 . S
N399 C392 1.356 . S
N399 H402 0.984 . S
N399 H403 0.985 . S
H400 N395 0.984 . S
H401 N395 0.985 . S
H402 N399 0.984 . S
H403 N399 0.985 . S
H404 N398 0.984 . S
H405 N398 0.984 . S
H406 N394 0.984 . S
H407 N394 0.985 . S
C408 C409 1.363 . S
C408 C414 1.379 . S
C408 N416 1.356 . S
C409 C408 1.363 . S
C409 C415 1.363 . S
C410 C411 1.363 . S
C410 C415 1.379 . S
C410 N417 1.356 . S
C411 C410 1.363 . S
C411 C414 1.363 . S
N412 C414 1.356 . S
N412 H424 0.984 . S
N412 H425 0.985 . S
N413 C415 1.356 . S
N413 H418 0.984 . S
N413 H419 0.985 . S
C414 C408 1.379 . S
C414 C411 1.363 . S
C414 N412 1.356 . S
C415 C409 1.363 . S
C415 C410 1.379 . S
C415 N413 1.356 . S
N416 C408 1.356 . S
N416 H422 0.984 . S
N416 H423 0.984 . S
N417 C410 1.356 . S
N417 H420 0.984 . S
N417 H421 0.985 . S
H418 N413 0.984 . S
H419 N413 0.985 . S
H420 N417 0.984 . S
H421 N417 0.985 . S
H422 N416 0.984 . S
H423 N416 0.984 . S
H424 N412 0.984 . S
H425 N412 0.985 . S
C426 C427 1.363 . S
C426 C432 1.379 . S
C426 N434 1.356 . S
C427 C426 1.363 . S
C427 C433 1.363 . S
C428 C429 1.363 . S
C428 C433 1.379 . S
C428 N435 1.356 . S
C429 C428 1.363 . S
C429 C432 1.363 . S
N430 C432 1.356 . S
N430 H442 0.984 . S
N430 H443 0.985 . S
N431 C433 1.356 . S
N431 H436 0.984 . S
N431 H437 0.985 . S
C432 C426 1.379 . S
C432 C429 1.363 . S
C432 N430 1.356 . S
C433 C427 1.363 . S
C433 C428 1.379 . S
C433 N431 1.356 . S
N434 C426 1.356 . S
N434 H440 0.984 . S
N434 H441 0.984 . S
N435 C428 1.356 . S
N435 H438 0.984 . S
N435 H439 0.985 . S
H436 N431 0.984 . S
H437 N431 0.985 . S
H438 N435 0.984 . S
H439 N435 0.985 . S
H440 N434 0.984 . S
H441 N434 0.984 . S
H442 N430 0.984 . S
H443 N430 0.985 . S
C444 C445 1.363 . S
C444 C450 1.379 . S
C444 N452 1.356 . S
C445 C444 1.363 . S
C445 C451 1.363 . S
C446 C447 1.363 . S
C446 C451 1.379 . S
C446 N453 1.356 . S
C447 C446 1.363 . S
C447 C450 1.363 . S
N448 C450 1.356 . S
N448 H460 0.984 . S
N448 H461 0.985 . S
N449 C451 1.356 . S
N449 H454 0.984 . S
N449 H455 0.985 . S
C450 C444 1.379 . S
C450 C447 1.363 . S
C450 N448 1.356 . S
C451 C445 1.363 . S
C451 C446 1.379 . S
C451 N449 1.356 . S
N452 C444 1.356 . S
N452 H458 0.984 . S
N452 H459 0.984 . S
N453 C446 1.356 . S
N453 H456 0.984 . S
N453 H457 0.985 . S
H454 N449 0.984 . S
H455 N449 0.985 . S
H456 N453 0.984 . S
H457 N453 0.985 . S
H458 N452 0.984 . S
H459 N452 0.984 . S
H460 N448 0.984 . S
H461 N448 0.985 . S
C462 C463 1.363 . S
C462 C468 1.379 . S
C462 N470 1.356 . S
C463 C462 1.363 . S
C463 C469 1.363 . S
C464 C465 1.363 . S
C464 C469 1.379 . S
C464 N471 1.356 . S
C465 C464 1.363 . S
C465 C468 1.363 . S
N466 C468 1.356 . S
N466 H478 0.984 . S
N466 H479 0.985 . S
N467 C469 1.356 . S
N467 H472 0.984 . S
N467 H473 0.985 . S
C468 C462 1.379 . S
C468 C465 1.363 . S
C468 N466 1.356 . S
C469 C463 1.363 . S
C469 C464 1.379 . S
C469 N467 1.356 . S
N470 C462 1.356 . S
N470 H476 0.984 . S
N470 H477 0.984 . S
N471 C464 1.356 . S
N471 H474 0.984 . S
N471 H475 0.985 . S
H472 N467 0.984 . S
H473 N467 0.985 . S
H474 N471 0.984 . S
H475 N471 0.985 . S
H476 N470 0.984 . S
H477 N470 0.984 . S
H478 N466 0.984 . S
H479 N466 0.985 . S
C480 C481 1.363 . S
C480 C486 1.379 . S
C480 N488 1.356 . S
C481 C480 1.363 . S
C481 C487 1.363 . S
C482 C483 1.363 . S
C482 C487 1.379 . S
C482 N489 1.356 . S
C483 C482 1.363 . S
C483 C486 1.363 . S
N484 C486 1.356 . S
N484 H496 0.984 . S
N484 H497 0.985 . S
N485 C487 1.356 . S
N485 H490 0.984 . S
N485 H491 0.985 . S
C486 C480 1.379 . S
C486 C483 1.363 . S
C486 N484 1.356 . S
C487 C481 1.363 . S
C487 C482 1.379 . S
C487 N485 1.356 . S
N488 C480 1.356 . S
N488 H494 0.984 . S
N488 H495 0.984 . S
N489 C482 1.356 . S
N489 H492 0.984 . S
N489 H493 0.985 . S
H490 N485 0.984 . S
H491 N485 0.985 . S
H492 N489 0.984 . S
H493 N489 0.985 . S
H494 N488 0.984 . S
H495 N488 0.984 . S
H496 N484 0.984 . S
H497 N484 0.985 . S
C498 C499 1.363 . S
C498 C504 1.379 . S
C498 N506 1.356 . S
C499 C498 1.363 . S
C499 C505 1.363 . S
C500 C501 1.363 . S
C500 C505 1.379 . S
C500 N507 1.356 . S
C501 C500 1.363 . S
C501 C504 1.363 . S
N502 C504 1.356 . S
N502 H514 0.984 . S
N502 H515 0.985 . S
N503 C505 1.356 . S
N503 H508 0.984 . S
N503 H509 0.985 . S
C504 C498 1.379 . S
C504 C501 1.363 . S
C504 N502 1.356 . S
C505 C499 1.363 . S
C505 C500 1.379 . S
C505 N503 1.356 . S
N506 C498 1.356 . S
N506 H512 0.984 . S
N506 H513 0.984 . S
N507 C500 1.356 . S
N507 H510 0.984 . S
N507 H511 0.985 . S
H508 N503 0.984 . S
H509 N503 0.985 . S
H510 N507 0.984 . S
H511 N507 0.985 . S
H512 N506 0.984 . S
H513 N506 0.984 . S
H514 N502 0.984 . S
H515 N502 0.985 . S
C516 C517 1.363 . S
C516 C522 1.379 . S
C516 N524 1.356 . S
C517 C516 1.363 . S
C517 C523 1.363 . S
C518 C519 1.363 . S
C518 C523 1.379 . S
C518 N525 1.356 . S
C519 C518 1.363 . S
C519 C522 1.363 . S
N520 C522 1.356 . S
N520 H532 0.984 . S
N520 H533 0.985 . S
N521 C523 1.356 . S
N521 H526 0.984 . S
N521 H527 0.985 . S
C522 C516 1.379 . S
C522 C519 1.363 . S
C522 N520 1.356 . S
C523 C517 1.363 . S
C523 C518 1.379 . S
C523 N521 1.356 . S
N524 C516 1.356 . S
N524 H530 0.984 . S
N524 H531 0.984 . S
N525 C518 1.356 . S
N525 H528 0.984 . S
N525 H529 0.985 . S
H526 N521 0.984 . S
H527 N521 0.985 . S
H528 N525 0.984 . S
H529 N525 0.985 . S
H530 N524 0.984 . S
H531 N524 0.984 . S
H532 N520 0.984 . S
H533 N520 0.985 . S
C534 C535 1.363 . S
C534 C540 1.379 . S
C534 N542 1.356 . S
C535 C534 1.363 . S
C535 C541 1.363 . S
C536 C537 1.363 . S
C536 C541 1.379 . S
C536 N543 1.356 . S
C537 C536 1.363 . S
C537 C540 1.363 . S
N538 C540 1.356 . S
N538 H550 0.984 . S
N538 H551 0.985 . S
N539 C541 1.356 . S
N539 H544 0.984 . S
N539 H545 0.985 . S
C540 C534 1.379 . S
C540 C537 1.363 . S
C540 N538 1.356 . S
C541 C535 1.363 . S
C541 C536 1.379 . S
C541 N539 1.356 . S
N542 C534 1.356 . S
N542 H548 0.984 . S
N542 H549 0.984 . S
N543 C536 1.356 . S
N543 H546 0.984 . S
N543 H547 0.985 . S
H544 N539 0.984 . S
H545 N539 0.985 . S
H546 N543 0.984 . S
H547 N543 0.985 . S
H548 N542 0.984 . S
H549 N542 0.984 . S
H550 N538 0.984 . S
H551 N538 0.985 . S
C552 C553 1.363 . S
C552 C558 1.379 . S
C552 N560 1.356 . S
C553 C552 1.363 . S
C553 C559 1.363 . S
C554 C555 1.363 . S
C554 C559 1.379 . S
C554 N561 1.356 . S
C555 C554 1.363 . S
C555 C558 1.363 . S
N556 C558 1.356 . S
N556 H568 0.984 . S
N556 H569 0.985 . S
N557 C559 1.356 . S
N557 H562 0.984 . S
N557 H563 0.985 . S
C558 C552 1.379 . S
C558 C555 1.363 . S
C558 N556 1.356 . S
C559 C553 1.363 . S
C559 C554 1.379 . S
C559 N557 1.356 . S
N560 C552 1.356 . S
N560 H566 0.984 . S
N560 H567 0.984 . S
N561 C554 1.356 . S
N561 H564 0.984 . S
N561 H565 0.985 . S
H562 N557 0.984 . S
H563 N557 0.985 . S
H564 N561 0.984 . S
H565 N561 0.985 . S
H566 N560 0.984 . S
H567 N560 0.984 . S
H568 N556 0.984 . S
H569 N556 0.985 . S
C570 C571 1.363 . S
C570 C576 1.379 . S
C570 N578 1.356 . S
C571 C570 1.363 . S
C571 C577 1.363 . S
C572 C573 1.363 . S
C572 C577 1.379 . S
C572 N579 1.356 . S
C573 C572 1.363 . S
C573 C576 1.363 . S
N574 C576 1.356 . S
N574 H586 0.984 . S
N574 H587 0.985 . S
N575 C577 1.356 . S
N575 H580 0.984 . S
N575 H581 0.985 . S
C576 C570 1.379 . S
C576 C573 1.363 . S
C576 N574 1.356 . S
C577 C571 1.363 . S
C577 C572 1.379 . S
C577 N575 1.356 . S
N578 C570 1.356 . S
N578 H584 0.984 . S
N578 H585 0.984 . S
N579 C572 1.356 . S
N579 H582 0.984 . S
N579 H583 0.985 . S
H580 N575 0.984 . S
H581 N575 0.985 . S
H582 N579 0.984 . S
H583 N579 0.985 . S
H584 N578 0.984 . S
H585 N578 0.984 . S
H586 N574 0.984 . S
H587 N574 0.985 . S
C588 C589 1.363 . S
C588 C594 1.379 . S
C588 N596 1.356 . S
C589 C588 1.363 . S
C589 C595 1.363 . S
C590 C591 1.363 . S
C590 C595 1.379 . S
C590 N597 1.356 . S
C591 C590 1.363 . S
C591 C594 1.363 . S
N592 C594 1.356 . S
N592 H604 0.984 . S
N592 H605 0.985 . S
N593 C595 1.356 . S
N593 H598 0.984 . S
N593 H599 0.985 . S
C594 C588 1.379 . S
C594 C591 1.363 . S
C594 N592 1.356 . S
C595 C589 1.363 . S
C595 C590 1.379 . S
C595 N593 1.356 . S
N596 C588 1.356 . S
N596 H602 0.984 . S
N596 H603 0.984 . S
N597 C590 1.356 . S
N597 H600 0.984 . S
N597 H601 0.985 . S
H598 N593 0.984 . S
H599 N593 0.985 . S
H600 N597 0.984 . S
H601 N597 0.985 . S
H602 N596 0.984 . S
H603 N596 0.984 . S
H604 N592 0.984 . S
H605 N592 0.985 . S
C606 C607 1.363 . S
C606 C612 1.379 . S
C606 N614 1.356 . S
C607 C606 1.363 . S
C607 C613 1.363 . S
C608 C609 1.363 . S
C608 C613 1.379 . S
C608 N615 1.356 . S
C609 C608 1.363 . S
C609 C612 1.363 . S
N610 C612 1.356 . S
N610 H622 0.984 . S
N610 H623 0.985 . S
N611 C613 1.356 . S
N611 H616 0.984 . S
N611 H617 0.985 . S
C612 C606 1.379 . S
C612 C609 1.363 . S
C612 N610 1.356 . S
C613 C607 1.363 . S
C613 C608 1.379 . S
C613 N611 1.356 . S
N614 C606 1.356 . S
N614 H620 0.984 . S
N614 H621 0.984 . S
N615 C608 1.356 . S
N615 H618 0.984 . S
N615 H619 0.985 . S
H616 N611 0.984 . S
H617 N611 0.985 . S
H618 N615 0.984 . S
H619 N615 0.985 . S
H620 N614 0.984 . S
H621 N614 0.984 . S
H622 N610 0.984 . S
H623 N610 0.985 . S
C265 N79 1.320 . S
C267 N13 1.320 . S
C283 N46 1.320 . S
C285 N112 1.320 . S
C301 N145 1.320 . S
C303 N211 1.320 . S
C319 N178 1.320 . S
C321 N244 1.320 . S
C337 C120 1.558 . S
C339 N2 1.506 . S
C355 C21 1.558 . S
C357 N35 1.506 . S
C373 N68 1.506 . S
C375 C54 1.558 . S
C391 N101 1.506 . S
C393 C87 1.558 . S
C409 C186 1.558 . S
C411 N134 1.506 . S
C427 C219 1.558 . S
C429 N167 1.506 . S
C445 C252 1.558 . S
C447 N200 1.506 . S
C463 C153 1.558 . S
C465 N233 1.506 . S
C481 C7 1.551 . S
C483 C238 1.551 . S
C499 C40 1.551 . S
C501 C139 1.551 . S
C517 C172 1.551 . S
C519 C73 1.551 . S
C535 C205 1.551 . S
C537 C106 1.551 . S
C553 C84 1.483 . S
C555 C183 1.483 . S
C571 C216 1.484 . S
C573 C117 1.484 . S
C589 C249 1.483 . S
C591 C18 1.483 . S
C607 C150 1.484 . S
C609 C51 1.484 . S
