# Generated by pormake.
# Topology vbd, (5)-cn, num edge types: 1
# Building blocks:
#     Node 0, Type 0, BuildingBlock: XOMCOT_clean_sbu_1, # of connection points: 5
#     Node 1, Type 0, BuildingBlock: XOMCOT_clean_sbu_1, # of connection points: 5
#     Node 2, Type 0, BuildingBlock: XOMCOT_clean_sbu_1, # of connection points: 5
#     Node 3, Type 0, BuildingBlock: XOMCOT_clean_sbu_1, # of connection points: 5
#     Node 4, Type 0, BuildingBlock: XOMCOT_clean_sbu_1, # of connection points: 5
#     Node 5, Type 0, BuildingBlock: XOMCOT_clean_sbu_1, # of connection points: 5
#     Node 6, Type 0, BuildingBlock: XOMCOT_clean_sbu_1, # of connection points: 5
#     Node 7, Type 0, BuildingBlock: XOMCOT_clean_sbu_1, # of connection points: 5
#     Node 8, Type 0, BuildingBlock: XOMCOT_clean_sbu_1, # of connection points: 5
#     Node 9, Type 0, BuildingBlock: XOMCOT_clean_sbu_1, # of connection points: 5
#     Node 10, Type 0, BuildingBlock: XOMCOT_clean_sbu_1, # of connection points: 5
#     Node 11, Type 0, BuildingBlock: XOMCOT_clean_sbu_1, # of connection points: 5
#     Node 12, Type 0, BuildingBlock: XOMCOT_clean_sbu_1, # of connection points: 5
#     Node 13, Type 0, BuildingBlock: XOMCOT_clean_sbu_1, # of connection points: 5
#     Node 14, Type 0, BuildingBlock: XOMCOT_clean_sbu_1, # of connection points: 5
#     Node 15, Type 0, BuildingBlock: XOMCOT_clean_sbu_1, # of connection points: 5
#     Node 16, Type 0, BuildingBlock: XOMCOT_clean_sbu_1, # of connection points: 5
#     Node 17, Type 0, BuildingBlock: XOMCOT_clean_sbu_1, # of connection points: 5
#     Node 18, Type 0, BuildingBlock: XOMCOT_clean_sbu_1, # of connection points: 5
#     Node 19, Type 0, BuildingBlock: XOMCOT_clean_sbu_1, # of connection points: 5
#     Node 20, Type 0, BuildingBlock: XOMCOT_clean_sbu_1, # of connection points: 5
#     Node 21, Type 0, BuildingBlock: XOMCOT_clean_sbu_1, # of connection points: 5
#     Node 22, Type 0, BuildingBlock: XOMCOT_clean_sbu_1, # of connection points: 5
#     Node 23, Type 0, BuildingBlock: XOMCOT_clean_sbu_1, # of connection points: 5
#     Node 24, Type 0, BuildingBlock: XOMCOT_clean_sbu_1, # of connection points: 5
#     Node 25, Type 0, BuildingBlock: XOMCOT_clean_sbu_1, # of connection points: 5
#     Node 26, Type 0, BuildingBlock: XOMCOT_clean_sbu_1, # of connection points: 5
#     Node 27, Type 0, BuildingBlock: XOMCOT_clean_sbu_1, # of connection points: 5
#     Node 28, Type 0, BuildingBlock: XOMCOT_clean_sbu_1, # of connection points: 5
#     Node 29, Type 0, BuildingBlock: XOMCOT_clean_sbu_1, # of connection points: 5
#     Node 30, Type 0, BuildingBlock: XOMCOT_clean_sbu_1, # of connection points: 5
#     Node 31, Type 0, BuildingBlock: XOMCOT_clean_sbu_1, # of connection points: 5
#     Edge 32, Type (0, 0), None
#     Edge 33, Type (0, 0), None
#     Edge 34, Type (0, 0), None
#     Edge 35, Type (0, 0), None
#     Edge 36, Type (0, 0), None
#     Edge 37, Type (0, 0), None
#     Edge 38, Type (0, 0), None
#     Edge 39, Type (0, 0), None
#     Edge 40, Type (0, 0), None
#     Edge 41, Type (0, 0), None
#     Edge 42, Type (0, 0), None
#     Edge 43, Type (0, 0), None
#     Edge 44, Type (0, 0), None
#     Edge 45, Type (0, 0), None
#     Edge 46, Type (0, 0), None
#     Edge 47, Type (0, 0), None
#     Edge 48, Type (0, 0), None
#     Edge 49, Type (0, 0), None
#     Edge 50, Type (0, 0), None
#     Edge 51, Type (0, 0), None
#     Edge 52, Type (0, 0), None
#     Edge 53, Type (0, 0), None
#     Edge 54, Type (0, 0), None
#     Edge 55, Type (0, 0), None
#     Edge 56, Type (0, 0), None
#     Edge 57, Type (0, 0), None
#     Edge 58, Type (0, 0), None
#     Edge 59, Type (0, 0), None
#     Edge 60, Type (0, 0), None
#     Edge 61, Type (0, 0), None
#     Edge 62, Type (0, 0), None
#     Edge 63, Type (0, 0), None
#     Edge 64, Type (0, 0), None
#     Edge 65, Type (0, 0), None
#     Edge 66, Type (0, 0), None
#     Edge 67, Type (0, 0), None
#     Edge 68, Type (0, 0), None
#     Edge 69, Type (0, 0), None
#     Edge 70, Type (0, 0), None
#     Edge 71, Type (0, 0), None
#     Edge 72, Type (0, 0), None
#     Edge 73, Type (0, 0), None
#     Edge 74, Type (0, 0), None
#     Edge 75, Type (0, 0), None
#     Edge 76, Type (0, 0), None
#     Edge 77, Type (0, 0), None
#     Edge 78, Type (0, 0), None
#     Edge 79, Type (0, 0), None
#     Edge 80, Type (0, 0), None
#     Edge 81, Type (0, 0), None
#     Edge 82, Type (0, 0), None
#     Edge 83, Type (0, 0), None
#     Edge 84, Type (0, 0), None
#     Edge 85, Type (0, 0), None
#     Edge 86, Type (0, 0), None
#     Edge 87, Type (0, 0), None
#     Edge 88, Type (0, 0), None
#     Edge 89, Type (0, 0), None
#     Edge 90, Type (0, 0), None
#     Edge 91, Type (0, 0), None
#     Edge 92, Type (0, 0), None
#     Edge 93, Type (0, 0), None
#     Edge 94, Type (0, 0), None
#     Edge 95, Type (0, 0), None
#     Edge 96, Type (0, 0), None
#     Edge 97, Type (0, 0), None
#     Edge 98, Type (0, 0), None
#     Edge 99, Type (0, 0), None
#     Edge 100, Type (0, 0), None
#     Edge 101, Type (0, 0), None
#     Edge 102, Type (0, 0), None
#     Edge 103, Type (0, 0), None
#     Edge 104, Type (0, 0), None
#     Edge 105, Type (0, 0), None
#     Edge 106, Type (0, 0), None
#     Edge 107, Type (0, 0), None
#     Edge 108, Type (0, 0), None
#     Edge 109, Type (0, 0), None
#     Edge 110, Type (0, 0), None
#     Edge 111, Type (0, 0), None
# Relax obj value: 0.201
# Max RMSD: 0.138
# Mean RMSD: 0.138
data_MOF--net-vbd--node1-XOMCOT_clean_sbu_1--edge1-none
_symmetry_space_group_name_H-M    P1
_symmetry_Int_Tables_number       1
_symmetry_cell_setting            triclinic
loop_
_symmetry_equiv_pos_as_xyz
'x, y, z'
_cell_length_a     46.495741
_cell_length_b     12.820088
_cell_length_c     34.659649
_cell_angle_alpha  89.988713
_cell_angle_beta   89.880653
_cell_angle_gamma 89.9911
loop_
_atom_site_label
_atom_site_type_symbol
_atom_site_fract_x
_atom_site_fract_y
_atom_site_fract_z
_atom_type_partial_charge
C0 C 0.00676 0.21552 0.12096 0.0
C1 C 0.0074 0.14583 0.1513 0.0
N2 N 0.03434 0.14174 0.16533 0.0
N3 N 0.03345 0.25363 0.1145 0.0
C4 C 0.04932 0.21217 0.14388 0.0
H5 H 0.98891 0.22488 0.10129 0.0
Co6 Co 0.04655 0.29288 0.06346 0.0
C7 C 0.09913 0.12904 0.084 0.0
O8 O 0.09127 0.07937 0.11537 0.0
N9 N 0.0599 0.31998 1.0125 0.0
C10 C 0.0738 0.26379 0.95403 0.0
C11 C 0.07229 0.24058 0.99218 0.0
C12 C 0.05486 0.39319 0.98522 0.0
N13 N 0.06263 0.35851 0.94974 0.0
O14 O 0.00942 0.38638 0.05478 0.0
H15 H 0.07736 0.16433 1.00319 0.0
H16 H 0.04447 0.46729 0.99072 0.0
O17 O 0.083 0.20092 0.06912 0.0
C18 C -0.0047 0.47384 0.05879 0.0
O19 O 0.00728 0.5505 0.07795 0.0
N20 N 0.02697 0.18218 1.04216 0.0
C21 C 0.00757 0.01354 1.00238 0.0
C22 C 0.02972 1.00149 1.02897 0.0
C23 C 0.03567 0.08486 0.05226 0.0
C24 C 0.00921 0.19723 1.01115 0.0
C25 C -0.00097 0.1126 0.99062 0.0
H26 H 0.04675 0.07051 0.07873 0.0
H27 H 0.00309 0.27419 1.00169 0.0
H28 H 0.07209 0.22586 0.14718 0.0
H29 H 0.99008 0.09424 0.15977 0.0
H30 H 0.0825 0.21565 0.93116 0.0
H31 H 0.03626 0.92467 1.03884 0.0
H32 H 0.98201 0.12311 0.96965 0.0
C33 C 0.20621 0.94577 0.14685 0.0
C34 C 0.21179 0.00385 0.17969 0.0
N35 N 0.20064 0.09987 0.17494 0.0
N36 N 0.19281 0.00569 0.12037 0.0
C37 C 0.18899 0.09882 0.13926 0.0
H38 H 0.21187 0.86483 0.14251 0.0
Co39 Co 0.18108 0.96449 0.06885 0.0
C40 C 0.12329 0.08309 0.06179 0.0
O41 O 0.12661 0.10597 1.02509 0.0
N42 N 0.16869 0.92641 1.01875 0.0
C43 C 0.14329 0.86932 0.96799 0.0
C44 C 0.14317 0.88544 1.00759 0.0
C45 C 0.18405 0.93198 0.9857 0.0
N46 N 0.16917 0.89902 0.95469 0.0
O47 O 0.2189 0.88303 0.05799 0.0
H48 H 0.12558 0.86801 1.02702 0.0
H49 H 0.20596 0.95794 0.98411 0.0
O50 O 0.14289 0.03143 0.07971 0.0
C51 C 0.24489 0.85494 0.06684 0.0
O52 O 0.25635 0.88633 0.09939 0.0
N53 N 0.19756 0.09115 0.04941 0.0
C54 C 0.22924 0.27107 0.05168 0.0
C55 C 0.19993 0.27592 0.05759 0.0
C56 C 0.18444 0.18524 0.05599 0.0
C57 C 0.22539 0.09123 1.03616 0.0
C58 C 0.24191 0.18052 1.03789 0.0
H59 H 0.16337 0.19422 0.06689 0.0
H60 H 0.23621 0.02288 1.02605 0.0
H61 H 0.17796 0.16555 0.12777 0.0
H62 H 0.22356 0.97808 0.20487 0.0
H63 H 0.12624 0.8359 0.95076 0.0
H64 H 0.18951 0.34709 0.06721 0.0
H65 H 0.26451 0.1778 1.03018 0.0
C66 C 0.04344 0.90548 0.21874 0.0
C67 C 0.03655 0.95696 0.18479 0.0
N68 N 0.04575 0.05664 0.18701 0.0
N69 N 0.05645 0.97264 0.24307 0.0
C70 C 0.05861 0.06296 0.22189 0.0
H71 H 0.03572 0.82905 0.22692 0.0
Co72 Co 0.0559 0.97266 0.29902 0.0
C73 C 0.1078 0.13385 0.30928 0.0
O74 O 0.10664 0.16052 0.3458 0.0
N75 N 0.05482 0.98116 0.35512 0.0
C76 C 0.04484 0.03169 0.41591 0.0
C77 C 0.04172 0.05449 0.37748 0.0
C78 C 0.06485 0.91175 0.38163 0.0
N79 N 0.05932 0.942 0.4186 0.0
O80 O 0.02482 0.85862 0.30174 0.0
H81 H 0.02859 0.11799 0.36761 0.0
H82 H 0.07505 0.83874 0.37397 0.0
O83 O 0.08935 0.06933 0.29565 0.0
C84 C -0.0003 0.83896 0.3162 0.0
O85 O 0.98586 0.91212 0.33515 0.0
N86 N 0.02919 0.08121 0.29385 0.0
C87 C -0.00197 0.24692 0.26515 0.0
C88 C 0.02284 0.26489 0.28657 0.0
C89 C 0.03785 0.18111 0.30109 0.0
C90 C 0.00503 0.06319 0.27235 0.0
C91 C 0.98933 0.14516 0.2573 0.0
H92 H 0.05605 0.19761 0.31901 0.0
H93 H -0.00114 0.98575 0.26381 0.0
H94 H 0.06528 0.13675 0.23399 0.0
H95 H 0.02311 0.9264 0.16198 0.0
H96 H 0.03512 0.07309 0.43983 0.0
H97 H 0.02919 0.34303 0.29497 0.0
H98 H 0.96965 0.1296 0.24161 0.0
C99 C 0.22868 0.27695 0.24408 0.0
C100 C 0.23238 0.21041 0.2133 0.0
N101 N 0.20651 0.18864 0.19829 0.0
N102 N 0.20036 0.29617 0.24995 0.0
C103 C 0.18752 0.244 0.22012 0.0
H104 H 0.24546 0.29667 0.26417 0.0
Co105 Co 0.18606 0.33134 0.30135 0.0
C106 C 0.1302 0.17738 0.28283 0.0
O107 O 0.13086 0.14086 0.24752 0.0
N108 N 0.17251 0.35373 0.35231 0.0
C109 C 0.16077 0.29135 0.4108 0.0
C110 C 0.16118 0.27167 0.37227 0.0
C111 C 0.1783 0.42441 0.38015 0.0
N112 N 0.17177 0.38618 0.41554 0.0
O113 O 0.22106 0.43778 0.30952 0.0
H114 H 0.1572 0.1952 0.36067 0.0
H115 H 0.18904 0.49807 0.3751 0.0
O116 O 0.15048 0.23832 0.29464 0.0
C117 C 0.24791 0.4585 0.31836 0.0
O118 O 0.26577 0.38204 0.32609 0.0
N119 N 0.20627 0.22032 0.32097 0.0
C120 C 0.23034 0.04824 0.35351 0.0
C121 C 0.20938 0.03623 0.32532 0.0
C122 C 0.19926 0.12389 0.30741 0.0
C123 C 0.22361 0.23169 0.35247 0.0
C124 C 0.23664 0.14572 0.3688 0.0
H125 H 0.18618 0.1134 0.28215 0.0
H126 H 0.22715 0.30693 0.36541 0.0
H127 H 0.16471 0.2405 0.21598 0.0
H128 H 0.25227 0.17255 0.20504 0.0
H129 H 0.15376 0.23962 0.43364 0.0
H130 H 0.20494 0.9607 0.31249 0.0
H131 H 0.25315 0.15568 0.39053 0.0
C132 C 0.91765 0.68388 0.96211 0.0
C133 C 0.91587 0.75292 0.93082 0.0
N134 N 0.91414 0.85157 0.94433 0.0
N135 N 0.91703 0.7378 0.99566 0.0
C136 C 0.91475 0.83979 0.98319 0.0
H137 H 0.92055 0.60032 0.96024 0.0
Co138 Co 0.92326 0.70633 0.05133 0.0
C139 C 0.87152 0.84902 0.06592 0.0
O140 O 0.85345 0.77074 0.06889 0.0
N141 N 0.92933 0.69031 0.1052 0.0
C142 C 0.95286 0.68844 0.16128 0.0
C143 C 0.95559 0.68787 0.12186 0.0
C144 C 0.91072 0.69152 0.13553 0.0
N145 N 0.92467 0.69129 0.16992 0.0
O146 O 0.94957 0.57312 0.04425 0.0
H147 H 0.97573 0.68994 0.10638 0.0
H148 H 0.88759 0.69485 0.13246 0.0
O149 O 0.89834 0.83081 0.06111 0.0
C150 C 0.96582 0.49044 1.03979 0.0
O151 O 0.9559 0.41457 1.01817 0.0
N152 N 0.95527 0.78703 0.04662 0.0
C153 C 0.98519 0.9407 1.0104 0.0
C154 C 0.96799 0.96426 1.04263 0.0
C155 C 0.95444 0.88448 0.06181 0.0
C156 C 0.97382 0.76182 1.0173 0.0
C157 C 0.98881 0.83866 0.9983 0.0
H158 H 0.94127 0.90228 0.0867 0.0
H159 H 0.9745 0.68525 1.00466 0.0
H160 H 0.91495 0.90621 1.00225 0.0
H161 H 0.91691 0.73178 0.90063 0.0
H162 H 0.97031 0.68681 0.18185 0.0
H163 H 0.96687 0.04249 0.05448 0.0
H164 H 0.00352 0.81881 0.97512 0.0
C165 C 0.82049 0.11908 0.95946 0.0
C166 C 0.82388 0.04903 0.92873 0.0
N167 N 0.82534 0.95095 0.94287 0.0
N168 N 0.81975 0.06638 0.99326 0.0
C169 C 0.82305 0.96409 0.98155 0.0
H170 H 0.81707 0.20224 0.95689 0.0
Co171 Co 0.80937 0.09936 0.04771 0.0
C172 C 0.86039 0.9578 0.06179 0.0
O173 O 0.87808 0.0332 0.05201 0.0
N174 N 0.79991 0.11641 0.10055 0.0
C175 C 0.77773 0.10244 0.15759 0.0
C176 C 0.77452 0.0962 0.11837 0.0
C177 C 0.81849 0.13265 0.13006 0.0
N178 N 0.80537 0.12454 0.16486 0.0
O179 O 0.78454 0.23848 1.03672 0.0
H180 H 0.75517 0.06954 0.10443 0.0
H181 H 0.8413 0.1454 0.12606 0.0
O182 O 0.83329 0.97526 0.06212 0.0
C183 C 0.7584 0.2691 0.04636 0.0
O184 O 0.74007 0.20065 0.05991 0.0
N185 N 0.77775 0.01719 1.03883 0.0
C186 C 0.75092 0.86003 0.99939 0.0
C187 C 0.76638 0.83834 1.03326 0.0
C188 C 0.77793 0.91946 0.054 0.0
C189 C 0.76194 0.04007 1.0066 0.0
C190 C 0.7483 0.96191 0.98632 0.0
H191 H 0.789 0.90238 0.08065 0.0
H192 H 0.76252 0.11628 0.99353 0.0
H193 H 0.82203 0.89831 1.00088 0.0
H194 H 0.82385 0.069 0.8984 0.0
H195 H 0.76144 0.08539 0.17904 0.0
H196 H 0.76692 0.76059 0.04561 0.0
H197 H 0.73517 0.98081 0.96147 0.0
C198 C 0.92165 0.11379 0.905 0.0
C199 C 0.91982 0.04484 0.93623 0.0
N200 N 0.91428 0.94786 0.92291 0.0
N201 N 0.91722 0.06163 0.87163 0.0
C202 C 0.9123 0.96082 0.88413 0.0
H203 H 0.92812 0.19471 0.90656 0.0
Co204 Co 0.92554 0.09027 0.81643 0.0
C205 C 0.88459 0.93222 0.77544 0.0
O206 O 0.89776 0.94286 0.74223 0.0
N207 N 0.93403 0.1044 0.76236 0.0
C208 C 0.95469 0.07439 0.70498 0.0
C209 C 0.95746 0.0646 0.7441 0.0
C210 C 0.91757 0.1414 0.73299 0.0
N211 N 0.92942 0.12083 0.6979 0.0
O212 O 0.95492 0.21778 0.82514 0.0
H213 H 0.97536 0.02601 0.75776 0.0
H214 H 0.89649 0.1753 0.7372 0.0
O215 O 0.89422 0.98029 0.80538 0.0
C216 C 0.98067 0.24386 0.81252 0.0
O217 O -0.00361 0.17419 0.79457 0.0
N218 N 0.95433 0.99362 0.82333 0.0
C219 C 0.98601 0.8347 0.85429 0.0
C220 C 0.96626 0.81413 0.82491 0.0
C221 C 0.95129 0.89565 0.80888 0.0
C222 C 0.97384 0.01418 0.85193 0.0
C223 C 0.99008 0.93528 0.86778 0.0
H224 H 0.93718 0.87938 0.78525 0.0
H225 H 0.9754 0.08983 0.8652 0.0
H226 H 0.90946 0.89546 0.86488 0.0
H227 H 0.924 0.06415 0.96608 0.0
H228 H 0.96975 0.0464 0.68352 0.0
H229 H 0.96434 0.7371 0.8122 0.0
H230 H 0.00625 0.95282 0.8893 0.0
C231 C 0.81838 0.68797 0.90425 0.0
C232 C 0.8196 0.75757 0.93531 0.0
N233 N 0.82583 0.85397 0.92191 0.0
N234 N 0.82384 0.7392 0.87091 0.0
C235 C 0.82881 0.84001 0.88329 0.0
H236 H 0.81144 0.60755 0.90578 0.0
Co237 Co 0.81611 0.71041 0.81564 0.0
C238 C 0.85777 0.86827 0.7752 0.0
O239 O 0.84476 0.8594 0.74187 0.0
N240 N 0.80824 0.69577 0.76152 0.0
C241 C 0.78687 0.72248 0.70457 0.0
C242 C 0.78423 0.7316 0.74367 0.0
C243 C 0.82512 0.66257 0.7318 0.0
N244 N 0.81273 0.68113 0.697 0.0
O245 O 0.78615 0.5842 0.82403 0.0
H246 H 0.76617 0.76877 0.75755 0.0
H247 H 0.84676 0.63318 0.73552 0.0
O248 O 0.84786 0.81936 0.80487 0.0
C249 C 0.76009 0.55971 0.81224 0.0
O250 O 0.74404 0.63108 0.79587 0.0
N251 N 0.78753 0.80832 0.82191 0.0
C252 C 0.75627 0.96945 0.85214 0.0
C253 C 0.77623 0.98835 0.82276 0.0
C254 C 0.79089 0.90563 0.807 0.0
C255 C 0.76783 0.78946 0.85056 0.0
C256 C 0.75184 0.86952 0.86609 0.0
H257 H 0.805 0.92044 0.78318 0.0
H258 H 0.76594 0.71421 0.86408 0.0
H259 H 0.8322 0.90487 0.86395 0.0
H260 H 0.81442 0.73923 0.96499 0.0
H261 H 0.7716 0.75015 0.68339 0.0
H262 H 0.77841 0.06488 0.80969 0.0
H263 H 0.73549 0.85328 0.88761 0.0
C264 C 0.04203 0.89481 0.65257 0.0
C265 C 0.03635 0.83655 0.68548 0.0
N266 N 0.04964 0.74324 0.68262 0.0
N267 N 0.05831 0.8381 0.62801 0.0
C268 C 0.06347 0.7476 0.64824 0.0
H269 H 0.03137 0.96688 0.64495 0.0
Co270 Co 0.05863 0.84221 0.57175 0.0
C271 C 0.11192 0.69505 0.55913 0.0
O272 O 0.10985 0.66901 0.52263 0.0
N273 N 0.05884 0.83641 0.51572 0.0
C274 C 0.05759 0.77826 0.45447 0.0
C275 C 0.05568 0.75126 0.49271 0.0
C276 C 0.06182 0.91553 0.4898 0.0
N277 N 0.06147 0.88139 0.4526 0.0
O278 O 0.02617 0.94982 0.56901 0.0
H279 H 0.05151 0.673 0.50201 0.0
H280 H 0.06362 0.99672 0.49799 0.0
O281 O 0.09326 0.75498 0.57472 0.0
C282 C 0.0021 0.96901 0.55172 0.0
O283 O 0.9909 0.89919 0.52847 0.0
N284 N 0.03328 0.72805 0.57601 0.0
C285 C 0.00408 0.56186 0.60842 0.0
C286 C 0.03037 0.54582 0.59021 0.0
C287 C 0.04393 0.62897 0.57285 0.0
C288 C 0.00809 0.7444 0.59576 0.0
C289 C 0.99342 0.66253 0.6127 0.0
H290 H 0.06344 0.61162 0.55793 0.0
H291 H 4e-05 0.82104 0.60181 0.0
H292 H 0.07352 0.67952 0.63576 0.0
H293 H 0.0211 0.85708 0.70787 0.0
H294 H 0.05466 0.72703 0.42996 0.0
H295 H 0.03854 0.46772 0.58511 0.0
H296 H 0.97263 0.67635 0.62596 0.0
C297 C 0.22519 0.5478 0.62956 0.0
C298 C 0.22399 0.616 0.66048 0.0
N299 N 0.19638 0.62816 0.6712 0.0
N300 N 0.19828 0.51887 0.61929 0.0
C301 C 0.18142 0.56497 0.64686 0.0
H302 H 0.24407 0.53464 0.61201 0.0
Co303 Co 0.18711 0.48827 0.56617 0.0
C304 C 0.13614 0.65787 0.58288 0.0
O305 O 0.14239 0.71116 0.61408 0.0
N306 N 0.17542 0.47079 0.51397 0.0
C307 C 0.16446 0.53673 0.45579 0.0
C308 C 0.16578 0.55609 0.49423 0.0
C309 C 0.17908 0.39846 0.48601 0.0
N310 N 0.17296 0.43868 0.45078 0.0
O311 O 0.22105 0.37705 0.55962 0.0
H312 H 0.16274 0.63304 0.50607 0.0
H313 H 0.18751 0.3209 0.4909 0.0
O314 O 0.15313 0.58607 0.57053 0.0
C315 C 0.24831 0.35826 0.55261 0.0
O316 O 0.26644 0.4362 0.54915 0.0
N317 N 0.20996 0.5958 0.54858 0.0
C318 C 0.23529 0.76497 0.51517 0.0
C319 C 0.2153 0.77921 0.54462 0.0
C320 C 0.20441 0.69285 0.56262 0.0
C321 C 0.22725 0.58229 0.51699 0.0
C322 C 0.24081 0.66658 0.50019 0.0
H323 H 0.19181 0.70453 0.58817 0.0
H324 H 0.22998 0.50674 0.50386 0.0
H325 H 0.15828 0.55985 0.64696 0.0
H326 H 0.24169 0.66232 0.67128 0.0
H327 H 0.158 0.59008 0.4332 0.0
H328 H 0.21174 0.85521 0.55759 0.0
H329 H 0.2568 0.65469 0.47781 0.0
C330 C 0.01534 0.55374 0.74275 0.0
C331 C 0.01424 0.62888 0.71421 0.0
N332 N 0.04121 0.65061 0.70261 0.0
N333 N 0.04301 0.52874 0.75048 0.0
C334 C 0.05815 0.58569 0.7238 0.0
H335 H -0.0027 0.5313 0.7606 0.0
Co336 Co 0.05519 0.48505 0.80192 0.0
C337 C 0.10937 0.64869 0.78894 0.0
O338 O 0.10338 0.71626 0.76164 0.0
N339 N 0.06733 0.45458 0.85295 0.0
C340 C 0.07788 0.50799 0.91294 0.0
C341 C 0.0795 0.53146 0.87472 0.0
C342 C 0.05921 0.38273 0.87939 0.0
N343 N 0.06476 0.4161 0.91568 0.0
O344 O 0.01977 0.37683 0.8068 0.0
H345 H 0.08611 0.60719 0.86457 0.0
H346 H 0.04763 0.31185 0.87264 0.0
O347 O 0.09089 0.57785 0.79841 0.0
C348 C 0.99287 0.35448 0.81527 0.0
O349 O 0.97505 0.42973 0.8247 0.0
N350 N 0.03439 0.59354 0.82334 0.0
C351 C 0.00896 0.76146 0.85768 0.0
C352 C 0.03049 0.77706 0.83041 0.0
C353 C 0.04127 0.69173 0.81161 0.0
C354 C 0.01648 0.57825 0.85418 0.0
C355 C 0.00278 0.66199 0.87136 0.0
H356 H 0.05428 0.7056 0.78666 0.0
H357 H 0.01268 0.50152 0.86567 0.0
H358 H 0.08128 0.58683 0.7223 0.0
H359 H 0.99526 0.67147 0.70538 0.0
H360 H 0.0854 0.55465 0.93691 0.0
H361 H 0.03492 0.85388 0.81862 0.0
H362 H 0.98584 0.64893 0.89234 0.0
C363 C 0.18543 0.88227 0.71203 0.0
C364 C 0.1893 0.81755 0.68019 0.0
N365 N 0.18552 0.71738 0.69111 0.0
N366 N 0.17989 0.82354 0.74349 0.0
C367 C 0.17974 0.7234 0.72931 0.0
H368 H 0.18925 0.96544 0.71278 0.0
Co369 Co 0.18206 0.85344 0.79856 0.0
C370 C 0.13533 0.66759 0.81283 0.0
O371 O 0.14124 0.60516 0.84179 0.0
N372 N 0.18508 0.87262 0.85273 0.0
C373 C 0.2086 0.8878 0.90847 0.0
C374 C 0.21131 0.87777 0.86952 0.0
C375 C 0.16638 0.87859 0.8829 0.0
N376 N 0.18046 0.88842 0.91701 0.0
O377 O 0.21187 0.96871 0.79326 0.0
H378 H 0.2316 0.87225 0.8544 0.0
H379 H 0.14323 0.87566 0.87996 0.0
O380 O 0.15236 0.74342 0.80478 0.0
C381 C 0.23049 0.04213 0.78791 0.0
O382 O 0.23475 0.07561 0.75258 0.0
N383 N 0.21148 0.75948 0.79991 0.0
C384 C 0.24611 0.597 0.78199 0.0
C385 C 0.22611 0.58654 0.81199 0.0
C386 C 0.20897 0.67054 0.82091 0.0
C387 C 0.23368 0.77382 0.7744 0.0
C388 C 0.25118 0.69225 0.76464 0.0
H389 H 0.19287 0.66316 0.84316 0.0
H390 H 0.23589 0.84374 0.75746 0.0
H391 H 0.17877 0.65492 0.7475 0.0
H392 H 0.19673 0.84174 0.65195 0.0
H393 H 0.2261 0.89227 0.92892 0.0
H394 H 0.22353 0.51403 0.82773 0.0
H395 H 0.26755 0.70194 0.7426 0.0
C396 C 0.97203 0.24333 0.48229 0.0
C397 C 0.97607 0.30676 0.45085 0.0
N398 N 0.95082 0.35089 0.44145 0.0
N399 N 0.94429 0.24736 0.49394 0.0
C400 C 0.93149 0.3082 0.46638 0.0
H401 H 0.98932 0.20837 0.49821 0.0
Co402 Co 0.93163 0.21133 0.54615 0.0
C403 C 0.89214 0.41872 0.5353 0.0
O404 O 0.90505 0.47396 0.50854 0.0
N405 N 0.91774 0.17369 0.59704 0.0
C406 C 0.89363 0.19231 0.65287 0.0
C407 C 0.89341 0.21102 0.61374 0.0
C408 C 0.93086 0.12281 0.6265 0.0
N409 N 0.91763 0.13891 0.66088 0.0
O410 O 0.96127 0.09026 0.54755 0.0
H411 H 0.87661 0.25252 0.59897 0.0
H412 H 0.95093 0.08122 0.62336 0.0
O413 O 0.90184 0.32883 0.54617 0.0
C414 C 0.98816 0.07405 0.5557 0.0
O415 O 0.00484 0.15248 0.56504 0.0
N416 N 0.95771 0.30906 0.56844 0.0
C417 C 0.98355 0.48052 0.60183 0.0
C418 C 0.96899 0.49015 0.56722 0.0
C419 C 0.95815 0.40308 0.55019 0.0
C420 C 0.97189 0.29913 0.60297 0.0
C421 C 0.98572 0.38392 0.61977 0.0
H422 H 0.95023 0.41402 0.52194 0.0
H423 H 0.9746 0.22568 0.61698 0.0
H424 H 0.90903 0.32905 0.46676 0.0
H425 H -0.00331 0.32795 0.43861 0.0
H426 H 0.87806 0.2197 0.67379 0.0
H427 H 0.96883 0.5627 0.55101 0.0
H428 H -0.00109 0.37345 0.64523 0.0
C429 C 0.77943 0.58343 0.47128 0.0
C430 C 0.7773 0.51654 0.43988 0.0
N431 N 0.80107 0.45722 0.43863 0.0
N432 N 0.80422 0.56603 0.49073 0.0
C433 C 0.81745 0.49165 0.46833 0.0
H434 H 0.76303 0.63779 0.47991 0.0
Co435 Co 0.81526 0.61015 0.54358 0.0
C436 C 0.86717 0.46659 0.55436 0.0
O437 O 0.85852 0.43226 0.58817 0.0
N438 N 0.82704 0.65023 0.59511 0.0
C439 C 0.85255 0.6596 0.65013 0.0
C440 C 0.85391 0.64999 0.61039 0.0
C441 C 0.81016 0.67113 0.62614 0.0
N442 N 0.82481 0.67115 0.65969 0.0
O443 O 0.77815 0.69639 0.55179 0.0
H444 H 0.87355 0.64084 0.59405 0.0
H445 H 0.78747 0.68677 0.62458 0.0
O446 O 0.85262 0.53638 0.53623 0.0
C447 C 0.75079 0.71662 0.5514 0.0
O448 O 0.73269 0.64666 0.53821 0.0
N449 N 0.79812 0.48647 0.56294 0.0
C450 C 0.77097 0.30215 0.58296 0.0
C451 C 0.79425 0.30103 0.55787 0.0
C452 C 0.80698 0.39309 0.54802 0.0
C453 C 0.77679 0.48703 0.59003 0.0
C454 C 0.76432 0.39483 0.60243 0.0
H455 H 0.82344 0.38581 0.52695 0.0
H456 H 0.76749 0.55765 0.60054 0.0
H457 H 0.83823 0.458 0.47458 0.0
H458 H 0.75888 0.50744 0.42114 0.0
H459 H 0.87039 0.65873 0.67013 0.0
H460 H 0.801 0.23287 0.54195 0.0
H461 H 0.74717 0.39868 0.62358 0.0
C462 C 0.9638 0.58809 0.39056 0.0
C463 C 0.96956 0.5207 0.42049 0.0
N464 N 0.94858 0.44865 0.42218 0.0
N465 N 0.93953 0.55861 0.37212 0.0
C466 C 0.93006 0.47562 0.39382 0.0
H467 H 0.97762 0.65139 0.38217 0.0
Co468 Co 0.92631 0.60702 0.32155 0.0
C469 C 0.87888 0.4397 0.30863 0.0
O470 O 0.88558 0.42008 0.27248 0.0
N471 N 0.91245 0.65342 0.27166 0.0
C472 C 0.88593 0.66098 0.21756 0.0
C473 C 0.88558 0.64317 0.25695 0.0
C474 C 0.9279 0.6883 0.24096 0.0
N475 N 0.91284 0.68765 0.20764 0.0
O476 O 0.95959 0.7149 0.31783 0.0
H477 H 0.8669 0.61923 0.27324 0.0
H478 H 0.94993 0.71355 0.24256 0.0
O479 O 0.89234 0.51102 0.32746 0.0
C480 C 0.98704 0.73098 0.31431 0.0
O481 O 0.0048 0.65138 0.31293 0.0
N482 N 0.94788 0.49756 0.29737 0.0
C483 C 0.97671 0.32849 0.26596 0.0
C484 C 0.95467 0.31301 0.29221 0.0
C485 C 0.94186 0.39784 0.30885 0.0
C486 C 0.96827 0.51257 0.26933 0.0
C487 C 0.98332 0.42897 0.25356 0.0
H488 H 0.92731 0.37964 0.33154 0.0
H489 H 0.97479 0.58841 0.26033 0.0
H490 H 0.91117 0.43006 0.38742 0.0
H491 H 0.98866 0.52123 0.43829 0.0
H492 H 0.86824 0.65 0.19775 0.0
H493 H 0.94983 0.23629 0.30379 0.0
H494 H 0.00133 0.44307 0.23436 0.0
C495 C 0.81498 0.19922 0.40121 0.0
C496 C 0.81389 0.27009 0.43156 0.0
N497 N 0.80434 0.36195 0.41781 0.0
N498 N 0.80628 0.2456 0.3682 0.0
C499 C 0.79979 0.34548 0.37971 0.0
H500 H 0.82357 0.12092 0.40267 0.0
Co501 Co 0.81384 0.19369 0.31607 0.0
C502 C 0.85984 0.3665 0.32966 0.0
O503 O 0.85861 0.37066 0.3674 0.0
N504 N 0.8223 0.14878 0.26577 0.0
C505 C 0.8462 0.12653 0.21044 0.0
C506 C 0.84874 0.13873 0.24992 0.0
C507 C 0.80399 0.1399 0.23567 0.0
N508 N 0.81803 0.12805 0.20185 0.0
O509 O 0.78151 0.08222 0.31663 0.0
H510 H 0.86867 0.14577 0.26577 0.0
H511 H 0.78093 0.14941 0.23824 0.0
O512 O 0.84505 0.29916 0.31103 0.0
C513 C 0.75847 0.0359 0.32902 0.0
O514 O 0.74623 0.06755 0.36114 0.0
N515 N 0.78849 0.28952 0.29656 0.0
C516 C 0.75704 0.46584 0.28975 0.0
C517 C 0.78221 0.45709 0.26842 0.0
C518 C 0.79765 0.36548 0.27168 0.0
C519 C 0.76196 0.2938 0.31314 0.0
C520 C 0.74589 0.38249 0.31043 0.0
H521 H 0.81793 0.35899 0.25658 0.0
H522 H 0.75502 0.23729 0.33378 0.0
H523 H 0.79492 0.40853 0.36008 0.0
H524 H 0.8204 0.25594 0.46106 0.0
H525 H 0.86359 0.11987 0.1898 0.0
H526 H 0.79014 0.52081 0.25082 0.0
H527 H 0.72593 0.38882 0.32655 0.0
C528 C 0.51237 0.25409 0.61939 0.0
C529 C 0.51181 0.17949 0.64815 0.0
N530 N 0.53872 0.16467 0.66132 0.0
N531 N 0.53973 0.28522 0.61282 0.0
C532 C 0.55497 0.23389 0.64086 0.0
H533 H 0.49457 0.27104 0.6004 0.0
Co534 Co 0.55284 0.3258 0.56126 0.0
C535 C 0.60507 0.16076 0.57934 0.0
O536 O 0.5973 0.10133 0.60838 0.0
N537 N 0.56613 0.35363 0.51008 0.0
C538 C 0.57923 0.29676 0.4513 0.0
C539 C 0.57862 0.27456 0.48965 0.0
C540 C 0.56 0.42547 0.48259 0.0
N541 N 0.56734 0.39034 0.44699 0.0
O542 O 0.51772 0.43315 0.5547 0.0
H543 H 0.58394 0.19842 0.50066 0.0
H544 H 0.54854 0.49753 0.48796 0.0
O545 O 0.58825 0.23285 0.56652 0.0
C546 C 0.49095 0.45474 0.5456 0.0
O547 O 0.47329 0.37887 0.53647 0.0
N548 N 0.53239 0.21622 0.53992 0.0
C549 C 0.50896 0.04559 0.50488 0.0
C550 C 0.52994 0.03228 0.53291 0.0
C551 C 0.53917 0.11869 0.55243 0.0
C552 C 0.51543 0.22967 0.50813 0.0
C553 C 0.50266 0.1445 0.49062 0.0
H554 H 0.55087 0.10621 0.57848 0.0
H555 H 0.51177 0.30597 0.49609 0.0
H556 H 0.57796 0.24039 0.64395 0.0
H557 H 0.49347 0.13183 0.65584 0.0
H558 H 0.58717 0.24762 0.42822 0.0
H559 H 0.53444 0.95602 0.54515 0.0
H560 H 0.4863 0.1561 0.46883 0.0
C561 C 0.7033 0.92057 0.64558 0.0
C562 C 0.70964 0.97755 0.67843 0.0
N563 N 0.69545 0.06917 0.67714 0.0
N564 N 0.68588 0.9765 0.62233 0.0
C565 C 0.68043 0.06481 0.64374 0.0
H566 H 0.71278 0.8465 0.63813 0.0
Co567 Co 0.68132 0.96498 0.56634 0.0
C568 C 0.63079 0.12883 0.55732 0.0
O569 O 0.63692 0.17434 0.52443 0.0
N570 N 0.67745 0.96578 0.51143 0.0
C571 C 0.67821 0.02875 0.45107 0.0
C572 C 0.68104 0.05234 0.48929 0.0
C573 C 0.67269 0.88924 0.48521 0.0
N574 N 0.67298 0.92644 0.44846 0.0
O575 O 0.71347 0.85039 0.56094 0.0
H576 H 0.68601 0.12946 0.4997 0.0
H577 H 0.66968 0.80821 0.4929 0.0
O578 O 0.64707 0.05698 0.57107 0.0
C579 C 0.73909 0.81576 0.56895 0.0
O580 O 0.75597 0.87022 0.59166 0.0
N581 N 0.70723 0.07605 0.56242 0.0
C582 C 0.74936 0.22004 0.57904 0.0
C583 C 0.72035 0.24759 0.58147 0.0
C584 C 0.69977 0.17467 0.57326 0.0
C585 C 0.7349 0.05583 0.55234 0.0
C586 C 0.7566 0.12193 0.56393 0.0
H587 H 0.67809 0.19909 0.5774 0.0
H588 H 0.74051 0.98884 0.53537 0.0
H589 H 0.66768 0.12967 0.6338 0.0
H590 H 0.72516 0.95613 0.70029 0.0
H591 H 0.68052 0.08235 0.42716 0.0
H592 H 0.71308 0.32513 0.58897 0.0
H593 H 0.77854 0.09681 0.55952 0.0
C594 C 0.54178 0.91684 0.70866 0.0
C595 C 0.53679 0.97647 0.67589 0.0
N596 N 0.54829 0.07237 0.6807 0.0
N597 N 0.55593 0.97482 0.73496 0.0
C598 C 0.56069 0.06781 0.71603 0.0
H599 H 0.53188 0.84235 0.71485 0.0
Co600 Co 0.55404 0.96627 0.79122 0.0
C601 C 0.6087 0.11275 0.80657 0.0
O602 O 0.60667 0.13719 0.84327 0.0
N603 N 0.55123 0.96784 0.84647 0.0
C604 C 0.5291 0.98791 0.9035 0.0
C605 C 0.52705 0.00181 0.86462 0.0
C606 C 0.56814 0.93434 0.87598 0.0
N607 N 0.55483 0.94591 0.91069 0.0
O608 O 0.5198 0.86263 0.79232 0.0
H609 H 0.50868 0.03664 0.85086 0.0
H610 H 0.58926 0.90041 0.87211 0.0
O611 O 0.58987 0.05307 0.7909 0.0
C612 C 0.49313 0.84901 0.80258 0.0
O613 O 0.47713 0.92882 0.81263 0.0
N614 N 0.53083 0.08244 0.78814 0.0
C615 C 0.50976 0.26825 0.76171 0.0
C616 C 0.53313 0.26716 0.78687 0.0
C617 C 0.54166 0.17329 0.80219 0.0
C618 C 0.50814 0.08232 0.76322 0.0
C619 C 0.49767 0.17517 0.74884 0.0
H620 H 0.5571 0.17346 0.82513 0.0
H621 H 0.49964 0.01058 0.75174 0.0
H622 H 0.5686 0.137 0.73034 0.0
H623 H 0.5229 0.95465 0.65221 0.0
H624 H 0.51312 0.00874 0.92491 0.0
H625 H 0.54131 0.33873 0.79947 0.0
H626 H 0.47865 0.17487 0.73081 0.0
C627 C 0.72733 0.25331 0.74133 0.0
C628 C 0.72945 0.18129 0.7119 0.0
N629 N 0.70293 0.16053 0.69853 0.0
N630 N 0.69941 0.27724 0.74798 0.0
C631 C 0.68525 0.22358 0.71956 0.0
H632 H 0.74478 0.27392 0.76034 0.0
Co633 Co 0.6862 0.31713 0.79958 0.0
C634 C 0.63355 0.14934 0.78308 0.0
O635 O 0.63971 0.09591 0.75188 0.0
N636 N 0.67327 0.34458 0.85063 0.0
C637 C 0.66151 0.29006 0.91014 0.0
C638 C 0.66231 0.26461 0.87207 0.0
C639 C 0.67823 0.42007 0.87705 0.0
N640 N 0.67174 0.38659 0.91314 0.0
O641 O 0.72094 0.42758 0.80549 0.0
H642 H 0.65811 0.18681 0.86179 0.0
H643 H 0.68797 0.49471 0.87053 0.0
O644 O 0.65099 0.2203 0.79548 0.0
C645 C 0.74787 0.44907 0.81396 0.0
O646 O 0.76574 0.37297 0.82209 0.0
N647 N 0.70749 0.20988 0.82053 0.0
C648 C 0.73327 0.04262 0.85449 0.0
C649 C 0.71235 0.02659 0.82652 0.0
C650 C 0.70138 0.11181 0.80796 0.0
C651 C 0.72485 0.22531 0.85181 0.0
C652 C 0.73885 0.14194 0.86872 0.0
H653 H 0.68869 0.09815 0.7827 0.0
H654 H 0.72781 0.3019 0.86395 0.0
H655 H 0.66226 0.22513 0.71607 0.0
H656 H 0.74877 0.13978 0.70358 0.0
H657 H 0.65422 0.2418 0.93386 0.0
H658 H 0.70846 0.94989 0.81431 0.0
H659 H 0.75534 0.15521 0.89022 0.0
C660 C 0.41258 0.70056 0.45748 0.0
C661 C 0.40867 0.77282 0.42755 0.0
N662 N 0.40843 0.86993 0.44262 0.0
N663 N 0.41485 0.75135 0.49155 0.0
C664 C 0.41169 0.85424 0.48087 0.0
H665 H 0.41492 0.61711 0.45416 0.0
Co666 Co 0.42432 0.71941 0.54584 0.0
C667 C 0.38535 0.88039 0.58879 0.0
O668 O 0.39852 0.8668 0.62179 0.0
N669 N 0.43331 0.70166 0.59895 0.0
C670 C 0.45322 0.72704 0.65685 0.0
C671 C 0.45673 0.73858 0.61792 0.0
C672 C 0.41618 0.66438 0.62747 0.0
N673 N 0.42754 0.68239 0.66282 0.0
O674 O 0.45291 0.5909 0.53552 0.0
H675 H 0.47496 0.77709 0.60496 0.0
H676 H 0.39491 0.63307 0.62249 0.0
O677 O 0.3942 0.83169 0.55856 0.0
C678 C 0.47877 0.56531 0.54769 0.0
O679 O 0.4947 0.63572 0.56478 0.0
N680 N 0.45377 0.81366 0.53891 0.0
C681 C 0.48603 0.97248 0.50897 0.0
C682 C 0.46722 0.99162 0.53968 0.0
C683 C 0.45209 0.9099 0.55526 0.0
C684 C 0.47231 0.79437 0.50895 0.0
C685 C 0.48905 0.87316 0.49378 0.0
H686 H 0.43868 0.92491 0.57979 0.0
H687 H 0.47264 0.72023 0.49432 0.0
H688 H 0.41303 0.91889 0.50068 0.0
H689 H 0.40754 0.75508 0.39709 0.0
H690 H 0.46803 0.75271 0.67892 0.0
H691 H 0.46611 0.06747 0.55352 0.0
H692 H 0.5045 0.85663 0.47114 0.0
C693 C 0.32062 0.12794 0.46023 0.0
C694 C 0.32256 0.05921 0.42898 0.0
N695 N 0.32877 0.96275 0.44228 0.0
N696 N 0.32557 0.07586 0.49349 0.0
C697 C 0.33093 0.9756 0.48098 0.0
H698 H 0.3136 0.20828 0.45882 0.0
Co699 Co 0.31729 0.10316 0.54847 0.0
C700 C 0.35941 0.94847 0.58946 0.0
O701 O 0.34693 0.96029 0.62309 0.0
N702 N 0.30877 0.11765 0.60206 0.0
C703 C 0.28586 0.09623 0.65823 0.0
C704 C 0.28419 0.08405 0.61927 0.0
C705 C 0.32505 0.15227 0.63196 0.0
N706 N 0.31165 0.13686 0.66621 0.0
O707 O 0.28692 0.22673 0.54015 0.0
H708 H 0.26639 0.04623 0.60518 0.0
H709 H 0.34684 0.18083 0.62893 0.0
O710 O 0.34922 0.99537 0.55955 0.0
C711 C 0.26042 0.24791 0.551 0.0
O712 O 0.2439 0.17314 0.5642 0.0
N713 N 0.28942 0.00339 0.54221 0.0
C714 C 0.25796 0.83919 0.51566 0.0
C715 C 0.27838 0.82352 0.54452 0.0
C716 C 0.293 0.90798 0.55861 0.0
C717 C 0.26971 0.01873 0.51343 0.0
C718 C 0.25331 0.93709 0.49999 0.0
H719 H 0.30697 0.89624 0.5827 0.0
H720 H 0.26773 0.09273 0.49893 0.0
H721 H 0.334 0.9103 0.50021 0.0
H722 H 0.31784 0.07797 0.39922 0.0
H723 H 0.27013 0.07081 0.6793 0.0
H724 H 0.28078 0.74859 0.55875 0.0
H725 H 0.23664 0.95057 0.47875 0.0
C726 C 0.43185 0.11194 0.40031 0.0
C727 C 0.42958 0.04476 0.43165 0.0
N728 N 0.41101 0.96788 0.42286 0.0
N729 N 0.41487 0.07883 0.37112 0.0
C730 C 0.40136 0.99314 0.38713 0.0
H731 H 0.44763 0.17312 0.3977 0.0
Co732 Co 0.4232 0.09291 0.31538 0.0
C733 C 0.38839 0.91046 0.28092 0.0
O734 O 0.4076 0.89696 0.25359 0.0
N735 N 0.43187 0.09708 0.26169 0.0
C736 C 0.45414 0.07677 0.20484 0.0
C737 C 0.45525 0.05626 0.24355 0.0
C738 C 0.41658 0.14112 0.23268 0.0
N739 N 0.42987 0.12965 0.19809 0.0
O740 O 0.45309 0.21885 0.32051 0.0
H741 H 0.4719 0.00997 0.25652 0.0
H742 H 0.39611 0.17976 0.23681 0.0
O743 O 0.3922 0.9838 0.3057 0.0
C744 C 0.47598 0.26873 0.33246 0.0
O745 O 0.49207 0.22738 0.35955 0.0
N746 N 0.4517 0.9914 0.32473 0.0
C747 C 0.4909 0.86229 0.3607 0.0
C748 C 0.46223 0.83235 0.35738 0.0
C749 C 0.44356 0.89506 0.33753 0.0
C750 C 0.47957 0.02213 0.32911 0.0
C751 C 0.49887 0.96323 0.35018 0.0
H752 H 0.4223 0.86498 0.33459 0.0
H753 H 0.48801 0.08686 0.31324 0.0
H754 H 0.38731 0.94149 0.37144 0.0
H755 H 0.44278 0.04673 0.45725 0.0
H756 H 0.46932 0.05083 0.18316 0.0
H757 H 0.45499 0.75453 0.36479 0.0
H758 H 0.52125 0.98693 0.35084 0.0
C759 C 0.32254 0.69915 0.4042 0.0
C760 C 0.32535 0.76851 0.43514 0.0
N761 N 0.3286 0.86621 0.42118 0.0
N762 N 0.32404 0.75206 0.37051 0.0
C763 C 0.32814 0.85358 0.38237 0.0
H764 H 0.31777 0.61679 0.4064 0.0
Co765 Co 0.31469 0.72095 0.31618 0.0
C766 C 0.3685 0.82164 0.28941 0.0
O767 O 0.37783 0.72637 0.2835 0.0
N768 N 0.30544 0.70383 0.26296 0.0
C769 C 0.28269 0.71618 0.20627 0.0
C770 C 0.28081 0.73387 0.24507 0.0
C771 C 0.32214 0.66831 0.23368 0.0
N772 N 0.3087 0.67567 0.1992 0.0
O773 O 0.28639 0.59274 0.32701 0.0
H774 H 0.26266 0.77148 0.25858 0.0
H775 H 0.34375 0.63918 0.23732 0.0
O776 O 0.343 0.83454 0.30252 0.0
C777 C 0.26004 0.56861 0.31657 0.0
O778 O 0.24345 0.64023 0.30139 0.0
N779 N 0.28561 0.81456 0.3229 0.0
C780 C 0.25306 0.97476 0.35015 0.0
C781 C 0.27223 0.99202 0.31969 0.0
C782 C 0.28768 0.90942 0.3055 0.0
C783 C 0.26693 0.79757 0.35286 0.0
C784 C 0.24996 0.87716 0.36664 0.0
H785 H 0.30173 0.92213 0.2811 0.0
H786 H 0.26646 0.72446 0.36819 0.0
H787 H 0.32889 0.91917 0.36286 0.0
H788 H 0.3235 0.74873 0.46539 0.0
H789 H 0.26681 0.73659 0.18477 0.0
H790 H 0.27347 0.06684 0.30513 0.0
H791 H 0.2343 0.86256 0.38922 0.0
C792 C 0.56445 0.8424 0.14313 0.0
C793 C 0.5627 0.7738 0.17354 0.0
N794 N 0.54069 0.70807 0.16729 0.0
N795 N 0.54445 0.81864 0.11639 0.0
C796 C 0.52912 0.73913 0.13312 0.0
H797 H 0.58176 0.89736 0.13849 0.0
Co798 Co 0.55365 0.85416 0.0636 0.0
C799 C 0.61153 0.73681 0.057 0.0
O800 O 0.60425 0.69303 1.02415 0.0
N801 N 0.56438 0.89003 1.01182 0.0
C802 C 0.592 0.93055 0.96063 0.0
C803 C 0.59144 0.91396 0.99996 0.0
C804 C 0.54862 0.89937 0.97915 0.0
N805 N 0.56501 0.92055 0.94783 0.0
O806 O 0.51239 0.90875 0.05376 0.0
H807 H 0.60983 0.92163 1.01874 0.0
H808 H 0.52548 0.89481 0.97817 0.0
O809 O 0.59446 0.80309 0.0733 0.0
C810 C 0.49694 0.99203 0.05878 0.0
O811 O 0.50778 0.07107 0.0779 0.0
N812 N 0.54293 0.71803 0.04873 0.0
C813 C 0.5188 0.52341 0.04506 0.0
C814 C 0.54385 0.53681 0.0656 0.0
C815 C 0.55517 0.63544 0.0679 0.0
C816 C 0.52008 0.70142 1.02481 0.0
C817 C 0.50744 0.60382 1.02274 0.0
H818 H 0.5711 0.64613 0.09 0.0
H819 H 0.50935 0.76426 1.01039 0.0
H820 H 0.51249 0.69572 0.11835 0.0
H821 H 0.57792 0.76841 0.1967 0.0
H822 H 0.61032 0.95365 0.94331 0.0
H823 H 0.5523 0.47537 0.08386 0.0
H824 H 0.48752 0.59373 1.00696 0.0
C825 C 0.73029 0.59093 0.11337 0.0
C826 C 0.73328 0.66093 0.14323 0.0
N827 N 0.70716 0.68057 0.15837 0.0
N828 N 0.70227 0.5665 0.10858 0.0
C829 C 0.68884 0.6186 0.13807 0.0
H830 H 0.74717 0.57042 0.09335 0.0
Co831 Co 0.68735 0.52203 0.05902 0.0
C832 C 0.63763 0.70019 0.07754 0.0
O833 O 0.64711 0.75754 0.10617 0.0
N834 N 0.67252 0.48932 1.00938 0.0
C835 C 0.65894 0.5391 0.95003 0.0
C836 C 0.65976 0.56578 0.98799 0.0
C837 C 0.67856 0.41457 0.98301 0.0
N838 N 0.67099 0.44538 0.94705 0.0
O839 O 0.72126 0.40846 0.05272 0.0
H840 H 0.65443 0.64302 0.99781 0.0
H841 H 0.69013 0.34336 0.98933 0.0
O842 O 0.65267 0.62278 0.06442 0.0
C843 C 0.74796 0.3822 0.04457 0.0
O844 O 0.76683 0.45503 1.03633 0.0
N845 N 0.7085 0.62465 1.0342 0.0
C846 C 0.72811 0.78813 0.99109 0.0
C847 C 0.7059 0.8036 1.01746 0.0
C848 C 0.7009 0.7241 1.04305 0.0
C849 C 0.72485 0.60473 1.00215 0.0
C850 C 0.73597 0.68689 0.98065 0.0
H851 H 0.69125 0.7431 0.07015 0.0
H852 H 0.7292 0.52611 0.99291 0.0
H853 H 0.66591 0.61701 0.1428 0.0
H854 H 0.75296 0.7004 0.15117 0.0
H855 H 0.65067 0.58515 0.92633 0.0
H856 H 0.69954 0.88173 1.0261 0.0
H857 H 0.75263 0.67278 0.95938 0.0
C858 C 0.50839 0.52314 0.23079 0.0
C859 C 0.50705 0.58554 0.19817 0.0
N860 N 0.53372 0.61843 0.18984 0.0
N861 N 0.5358 0.51632 0.2438 0.0
C862 C 0.5508 0.57146 0.21653 0.0
H863 H 0.48985 0.49558 0.24604 0.0
Co864 Co 0.54897 0.48994 0.29701 0.0
C865 C 0.59903 0.66525 0.27951 0.0
O866 O 0.58687 0.74685 0.26379 0.0
N867 N 0.56311 0.47428 0.34846 0.0
C868 C 0.57705 0.53804 0.40581 0.0
C869 C 0.57547 0.55655 0.36714 0.0
C870 C 0.55831 0.4045 0.37706 0.0
N871 N 0.56593 0.44376 0.41188 0.0
O872 O 0.51478 0.38526 0.30943 0.0
H873 H 0.58048 0.63132 0.35457 0.0
H874 H 0.548 0.32967 0.37296 0.0
O875 O 0.58393 0.58443 0.28892 0.0
C876 C 0.4872 0.36671 0.31276 0.0
O877 O 0.46858 0.44006 0.30433 0.0
N878 N 0.52727 0.59988 0.31502 0.0
C879 C 0.51105 0.77882 0.35275 0.0
C880 C 0.52436 0.78382 0.31655 0.0
C881 C 0.53082 0.69347 0.29759 0.0
C882 C 0.51366 0.59271 0.34993 0.0
C883 C 0.50684 0.68196 0.37039 0.0
H884 H 0.53871 0.69982 0.26881 0.0
H885 H 0.50989 0.51813 0.36345 0.0
H886 H 0.57356 0.5863 0.21827 0.0
H887 H 0.48765 0.61375 0.18446 0.0
H888 H 0.58562 0.58922 0.42779 0.0
H889 H 0.52675 0.85598 0.30057 0.0
H890 H 0.49565 0.67542 0.39776 0.0
C891 C 0.70976 0.89668 0.22343 0.0
C892 C 0.71769 0.8493 0.18926 0.0
N893 N 0.70061 0.7661 0.18333 0.0
N894 N 0.68854 0.84181 0.24068 0.0
C895 C 0.68186 0.7679 0.21332 0.0
H896 H 0.72027 0.9637 0.23571 0.0
Co897 Co 0.68066 0.839 0.29666 0.0
C898 C 0.62862 0.67794 0.29443 0.0
O899 O 0.63897 0.60571 0.31732 0.0
N900 N 0.67319 0.83027 0.3506 0.0
C901 C 0.66947 0.76577 0.41051 0.0
C902 C 0.67132 0.74188 0.37203 0.0
C903 C 0.67277 0.90743 0.37721 0.0
N904 N 0.67055 0.86972 0.41371 0.0
O905 O 0.71644 0.93221 0.30973 0.0
H906 H 0.674 0.66382 0.36122 0.0
H907 H 0.67556 0.98888 0.36998 0.0
O908 O 0.6434 0.76055 0.28626 0.0
C909 C 0.74362 0.95313 0.30522 0.0
O910 O 0.75906 0.89795 0.28087 0.0
N911 N 0.70263 0.71829 0.29983 0.0
C912 C 0.74081 0.55939 0.28997 0.0
C913 C 0.71462 0.55559 0.2715 0.0
C914 C 0.69538 0.63351 0.27823 0.0
C915 C 0.72731 0.71746 0.32115 0.0
C916 C 0.74719 0.63816 0.31627 0.0
H917 H 0.67513 0.62468 0.26461 0.0
H918 H 0.73162 0.77703 0.34234 0.0
H919 H 0.66481 0.71144 0.21617 0.0
H920 H 0.73581 0.87112 0.17135 0.0
H921 H 0.66927 0.71092 0.43423 0.0
H922 H 0.70854 0.49004 0.25346 0.0
H923 H 0.7666 0.63625 0.33352 0.0
C924 C 0.4184 0.21507 0.9634 0.0
C925 C 0.41754 0.28643 0.93341 0.0
N926 N 0.43142 0.37368 0.94444 0.0
N927 N 0.43266 0.2566 0.99351 0.0
C928 C 0.44028 0.35397 0.98083 0.0
H929 H 0.40684 0.14191 0.96452 0.0
Co930 Co 0.42657 0.21753 0.04603 0.0
C931 C 0.37758 0.36636 1.04056 0.0
O932 O 0.36092 0.29008 1.02881 0.0
N933 N 0.41815 0.18599 0.09762 0.0
C934 C 0.39192 0.17216 0.15146 0.0
C935 C 0.39117 0.18913 0.11226 0.0
C936 C 0.43502 0.16481 0.12834 0.0
N937 N 0.4195 0.15715 0.16129 0.0
O938 O 0.45121 0.0841 1.0428 0.0
H939 H 0.37201 0.20334 0.09555 0.0
H940 H 0.45817 0.15732 0.12671 0.0
O941 O 0.40363 0.34725 0.04986 0.0
C942 C 0.46713 1.00078 1.04114 0.0
O943 O 0.45728 0.92028 1.02186 0.0
N944 N 0.45942 0.28833 0.05966 0.0
C945 C 0.50105 0.43598 0.05464 0.0
C946 C 0.47851 0.4496 0.08085 0.0
C947 C 0.45772 0.37284 0.08334 0.0
C948 C 0.48373 0.26836 1.03852 0.0
C949 C 0.50502 0.34245 1.0355 0.0
H950 H 0.4389 0.38632 0.10102 0.0
H951 H 0.48498 0.20318 1.01896 0.0
H952 H 0.4495 0.41356 0.99908 0.0
H953 H 0.4062 0.27593 0.90676 0.0
H954 H 0.37372 0.16882 0.17094 0.0
H955 H 0.47591 0.5218 0.09678 0.0
H956 H 0.52274 0.33122 1.01555 0.0
C957 C 0.30493 0.63517 0.96136 0.0
C958 C 0.30205 0.57013 0.92944 0.0
N959 N 0.29891 0.47111 0.94195 0.0
N960 N 0.30352 0.57776 0.99395 0.0
C961 C 0.30006 0.47778 0.98084 0.0
H962 H 0.30911 0.71813 0.96068 0.0
Co963 Co 0.31267 0.61149 0.04681 0.0
C964 C 0.36648 0.47488 1.04117 0.0
O965 O 0.38424 0.55345 1.03653 0.0
N966 N 0.32297 0.63744 0.09822 0.0
C967 C 0.34826 0.65517 0.15255 0.0
C968 C 0.3498 0.64381 0.11304 0.0
C969 C 0.30543 0.64783 0.1291 0.0
N970 N 0.32032 0.65729 0.16227 0.0
O971 O 0.28374 0.73314 0.05231 0.0
H972 H 0.36938 0.64145 0.09642 0.0
H973 H 0.28219 0.64683 0.12734 0.0
O974 O 0.33953 0.49147 0.04484 0.0
C975 C 0.26298 0.79067 1.03942 0.0
O976 O 0.25459 0.78059 1.00345 0.0
N977 N 0.28373 0.52334 0.0625 0.0
C978 C 0.24634 0.36108 0.06004 0.0
C979 C 0.27096 0.35293 0.08286 0.0
C980 C 0.28953 0.43713 0.08417 0.0
C981 C 0.25774 0.53549 0.0448 0.0
C982 C 0.23865 0.4548 1.04317 0.0
H983 H 0.30972 0.42939 0.09933 0.0
H984 H 0.25337 0.59959 1.02603 0.0
H985 H 0.29974 0.41012 0.9995 0.0
H986 H 0.30283 0.59383 0.89949 0.0
H987 H 0.3661 0.66399 0.17228 0.0
H988 H 0.27651 0.28082 0.09738 0.0
H989 H 0.21957 0.46227 1.02541 0.0
C990 C 0.46046 0.58027 0.8872 0.0
C991 C 0.46122 0.51769 0.91983 0.0
N992 N 0.43606 0.46646 0.92261 0.0
N993 N 0.43503 0.56789 0.86875 0.0
C994 C 0.42007 0.50226 0.89268 0.0
H995 H 0.47866 0.62211 0.87567 0.0
Co996 Co 0.42583 0.59786 0.81458 0.0
C997 C 0.39182 0.37866 0.81984 0.0
O998 O 0.40834 0.31841 0.84055 0.0
N999 N 0.41393 0.62835 0.76264 0.0
C1000 C 0.39162 0.60475 0.70597 0.0
C1001 C 0.3907 0.58567 0.74494 0.0
C1002 C 0.42678 0.68289 0.73393 0.0
N1003 N 0.4148 0.66375 0.69914 0.0
O1004 O 0.45374 0.72417 0.81305 0.0
H1005 H 0.37411 0.54054 0.75882 0.0
H1006 H 0.44578 0.7301 0.73793 0.0
O1007 O 0.39846 0.47449 0.81268 0.0
C1008 C 0.48106 0.74102 0.80768 0.0
O1009 O 0.49925 0.66279 0.80784 0.0
N1010 N 0.45529 0.50746 0.79641 0.0
C1011 C 0.48976 0.34947 0.76963 0.0
C1012 C 0.47483 0.33778 0.80388 0.0
C1013 C 0.45925 0.41912 0.81751 0.0
C1014 C 0.47074 0.5202 0.76286 0.0
C1015 C 0.4887 0.44191 0.74911 0.0
H1016 H 0.4505 0.40732 0.84531 0.0
H1017 H 0.47145 0.59231 0.74764 0.0
H1018 H 0.39877 0.47353 0.88658 0.0
H1019 H 0.47989 0.50271 0.93761 0.0
H1020 H 0.37723 0.57359 0.68436 0.0
H1021 H 0.47665 0.26767 0.82134 0.0
H1022 H 0.50183 0.45399 0.72364 0.0
C1023 C 0.28956 0.21681 0.89875 0.0
C1024 C 0.28762 0.28372 0.93027 0.0
N1025 N 0.2966 0.37888 0.9191 0.0
N1026 N 0.29954 0.26909 0.86757 0.0
C1027 C 0.30405 0.3676 0.88162 0.0
H1028 H 0.28504 0.13414 0.89914 0.0
Co1029 Co 0.31042 0.21399 0.81726 0.0
C1030 C 0.36664 0.33016 0.80215 0.0
O1031 O 0.36144 0.34548 0.76533 0.0
N1032 N 0.32199 0.16406 0.76815 0.0
C1033 C 0.34876 0.11976 0.71679 0.0
C1034 C 0.34814 0.12887 0.75667 0.0
C1035 C 0.3068 0.16952 0.73503 0.0
N1036 N 0.32269 0.14738 0.70377 0.0
O1037 O 0.27329 0.13172 0.81124 0.0
H1038 H 0.36602 0.11474 0.77588 0.0
H1039 H 0.28436 0.18815 0.73311 0.0
O1040 O 0.34829 0.28306 0.82368 0.0
C1041 C 0.24999 0.08156 0.81954 0.0
O1042 O 0.24238 0.07112 0.85576 0.0
N1043 N 0.29334 0.33395 0.79328 0.0
C1044 C 0.26405 0.51062 0.77262 0.0
C1045 C 0.29268 0.51834 0.7825 0.0
C1046 C 0.30674 0.42923 0.79342 0.0
C1047 C 0.26613 0.32728 0.7781 0.0
C1048 C 0.25133 0.41466 0.76675 0.0
H1049 H 0.32676 0.44402 0.80692 0.0
H1050 H 0.2543 0.25646 0.77553 0.0
H1051 H 0.3143 0.42946 0.86606 0.0
H1052 H 0.28061 0.26335 0.9591 0.0
H1053 H 0.36646 0.09283 0.69908 0.0
H1054 H 0.30273 0.5934 0.78778 0.0
H1055 H 0.22893 0.40825 0.75839 0.0
loop_
_geom_bond_atom_site_label_1
_geom_bond_atom_site_label_2
_geom_bond_distance
_geom_bond_site_symmetry_2
_ccdc_geom_bond_type
C0 C1 1.351 . S
C0 N3 1.368 . S
C0 H5 0.931 . S
C1 C0 1.351 . S
C1 N2 1.373 . S
C1 H29 0.930 . S
N2 C1 1.373 . S
N2 C4 1.340 . S
N3 C0 1.368 . S
N3 C4 1.321 . S
N3 Co6 2.135 . S
C4 N2 1.340 . S
C4 N3 1.321 . S
C4 H28 0.930 . S
H5 C0 0.931 . S
Co6 N3 2.135 . S
Co6 N9 2.121 1_554 S
Co6 O14 2.055 . S
Co6 O17 2.039 . S
Co6 N20 2.140 . S
C7 O8 1.227 . S
C7 O17 1.265 . S
O8 C7 1.227 . S
N9 Co6 2.121 1_556 S
N9 C11 1.375 . S
N9 C12 1.313 . S
C10 C11 1.338 . S
C10 N13 1.377 . S
C10 H30 0.930 . S
C11 N9 1.375 . S
C11 C10 1.338 . S
C11 H15 0.931 . S
C12 N9 1.313 . S
C12 N13 1.344 . S
C12 H16 0.930 . S
N13 C10 1.377 . S
N13 C12 1.344 . S
O14 Co6 2.055 . S
O14 C18 1.253 . S
H15 C11 0.931 . S
H16 C12 0.930 . S
O17 Co6 2.039 . S
O17 C7 1.265 . S
C18 O14 1.253 . S
C18 O19 1.227 . S
O19 C18 1.227 . S
N20 Co6 2.140 . S
N20 C23 1.346 . S
N20 C24 1.345 1_554 S
C21 C22 1.355 1_656 S
C21 C25 1.406 . S
C22 C21 1.355 1_454 S
C22 C23 1.369 . S
C22 H31 0.929 1_545 S
C23 N20 1.346 . S
C23 C22 1.369 . S
C23 H26 0.928 . S
C24 N20 1.345 1_556 S
C24 C25 1.371 1_455 S
C24 H27 0.931 . S
C25 C21 1.406 . S
C25 C24 1.371 1_655 S
C25 H32 0.930 . S
H26 C23 0.928 . S
H27 C24 0.931 . S
H28 C4 0.930 . S
H29 C1 0.930 . S
H30 C10 0.930 . S
H31 C22 0.929 1_565 S
H32 C25 0.930 . S
C33 C34 1.351 1_565 S
C33 N36 1.368 . S
C33 H38 0.931 . S
C34 C33 1.351 1_545 S
C34 N35 1.373 . S
C34 H62 0.930 1_545 S
N35 C34 1.373 . S
N35 C37 1.340 . S
N36 C33 1.368 . S
N36 C37 1.321 1_565 S
N36 Co39 2.135 . S
C37 N35 1.340 . S
C37 N36 1.321 1_545 S
C37 H61 0.930 . S
H38 C33 0.931 . S
Co39 N36 2.135 . S
Co39 N42 2.121 1_554 S
Co39 O47 2.055 . S
Co39 O50 2.039 . S
Co39 N53 2.140 1_565 S
C40 O41 1.227 . S
C40 O50 1.265 1_545 S
O41 C40 1.227 . S
N42 Co39 2.121 1_556 S
N42 C44 1.375 1_565 S
N42 C45 1.313 . S
C43 C44 1.338 . S
C43 N46 1.377 1_545 S
C43 H63 0.930 . S
C44 N42 1.375 1_545 S
C44 C43 1.338 . S
C44 H48 0.931 . S
C45 N42 1.313 . S
C45 N46 1.344 . S
C45 H49 0.930 . S
N46 C43 1.377 1_565 S
N46 C45 1.344 . S
O47 Co39 2.055 . S
O47 C51 1.253 . S
H48 C44 0.931 . S
H49 C45 0.930 . S
O50 Co39 2.039 . S
O50 C40 1.265 1_565 S
C51 O47 1.253 . S
C51 O52 1.227 . S
O52 C51 1.227 . S
N53 Co39 2.140 1_545 S
N53 C56 1.346 . S
N53 C57 1.345 1_554 S
C54 C55 1.371 1_556 S
C54 C58 1.404 . S
C55 C54 1.371 1_554 S
C55 C56 1.369 . S
C55 H64 0.929 . S
C56 N53 1.346 . S
C56 C55 1.369 . S
C56 H59 0.928 . S
C57 N53 1.345 1_556 S
C57 C58 1.371 . S
C57 H60 0.931 . S
C58 C54 1.404 . S
C58 C57 1.371 . S
C58 H65 0.930 . S
H59 C56 0.928 . S
H60 C57 0.931 . S
H61 C37 0.930 . S
H62 C34 0.930 1_565 S
H63 C43 0.930 . S
H64 C55 0.929 . S
H65 C58 0.930 . S
C66 C67 1.351 1_565 S
C66 N69 1.368 . S
C66 H71 0.931 . S
C67 C66 1.351 1_545 S
C67 N68 1.373 . S
C67 H95 0.930 1_545 S
N68 C67 1.373 . S
N68 C70 1.340 . S
N69 C66 1.368 . S
N69 C70 1.321 1_565 S
N69 Co72 2.135 . S
C70 N68 1.340 . S
C70 N69 1.321 1_545 S
C70 H94 0.930 . S
H71 C66 0.931 . S
Co72 N69 2.135 . S
Co72 N75 2.121 . S
Co72 O80 2.055 . S
Co72 O83 2.039 . S
Co72 N86 2.140 1_565 S
C73 O74 1.227 . S
C73 O83 1.265 1_545 S
O74 C73 1.227 . S
N75 Co72 2.121 . S
N75 C77 1.375 1_565 S
N75 C78 1.313 . S
C76 C77 1.338 . S
C76 N79 1.377 1_545 S
C76 H96 0.930 . S
C77 N75 1.375 1_545 S
C77 C76 1.338 . S
C77 H81 0.931 . S
C78 N75 1.313 . S
C78 N79 1.344 . S
C78 H82 0.930 . S
N79 C76 1.377 1_565 S
N79 C78 1.344 . S
O80 Co72 2.055 . S
O80 C84 1.253 . S
H81 C77 0.931 . S
H82 C78 0.930 . S
O83 Co72 2.039 . S
O83 C73 1.265 1_565 S
C84 O80 1.253 . S
C84 O85 1.227 . S
O85 C84 1.227 . S
N86 Co72 2.140 1_545 S
N86 C89 1.346 . S
N86 C90 1.345 . S
C87 C88 1.372 1_655 S
C87 C91 1.393 . S
C88 C87 1.372 1_455 S
C88 C89 1.369 . S
C88 H97 0.929 . S
C89 N86 1.346 . S
C89 C88 1.369 . S
C89 H92 0.928 . S
C90 N86 1.345 . S
C90 C91 1.371 1_455 S
C90 H93 0.931 . S
C91 C87 1.393 . S
C91 C90 1.371 1_655 S
C91 H98 0.930 . S
H92 C89 0.928 . S
H93 C90 0.931 . S
H94 C70 0.930 . S
H95 C67 0.930 1_565 S
H96 C76 0.930 . S
H97 C88 0.929 . S
H98 C91 0.930 . S
C99 C100 1.351 . S
C99 N102 1.368 . S
C99 H104 0.931 . S
C100 C99 1.351 . S
C100 N101 1.373 . S
C100 H128 0.930 . S
N101 C100 1.373 . S
N101 C103 1.340 . S
N102 C99 1.368 . S
N102 C103 1.321 . S
N102 Co105 2.135 . S
C103 N101 1.340 . S
C103 N102 1.321 . S
C103 H127 0.930 . S
H104 C99 0.931 . S
Co105 N102 2.135 . S
Co105 N108 2.121 . S
Co105 O113 2.055 . S
Co105 O116 2.039 . S
Co105 N119 2.140 . S
C106 O107 1.227 . S
C106 O116 1.265 . S
O107 C106 1.227 . S
N108 Co105 2.121 . S
N108 C110 1.375 . S
N108 C111 1.313 . S
C109 C110 1.338 . S
C109 N112 1.377 . S
C109 H129 0.930 . S
C110 N108 1.375 . S
C110 C109 1.338 . S
C110 H114 0.931 . S
C111 N108 1.313 . S
C111 N112 1.344 . S
C111 H115 0.930 . S
N112 C109 1.377 . S
N112 C111 1.344 . S
O113 Co105 2.055 . S
O113 C117 1.253 . S
H114 C110 0.931 . S
H115 C111 0.930 . S
O116 Co105 2.039 . S
O116 C106 1.265 . S
C117 O113 1.253 . S
C117 O118 1.227 . S
O118 C117 1.227 . S
N119 Co105 2.140 . S
N119 C122 1.346 . S
N119 C123 1.345 . S
C120 C121 1.387 . S
C120 C124 1.391 . S
C121 C120 1.387 . S
C121 C122 1.369 . S
C121 H130 0.929 1_545 S
C122 N119 1.346 . S
C122 C121 1.369 . S
C122 H125 0.928 . S
C123 N119 1.345 . S
C123 C124 1.371 . S
C123 H126 0.931 . S
C124 C120 1.391 . S
C124 C123 1.371 . S
C124 H131 0.930 . S
H125 C122 0.928 . S
H126 C123 0.931 . S
H127 C103 0.930 . S
H128 C100 0.930 . S
H129 C109 0.930 . S
H130 C121 0.929 1_565 S
H131 C124 0.930 . S
C132 C133 1.351 . S
C132 N135 1.368 . S
C132 H137 0.931 . S
C133 C132 1.351 . S
C133 N134 1.373 . S
C133 H161 0.930 . S
N134 C133 1.373 . S
N134 C136 1.340 . S
N135 C132 1.368 . S
N135 C136 1.321 . S
N135 Co138 2.135 1_556 S
C136 N134 1.340 . S
C136 N135 1.321 . S
C136 H160 0.930 . S
H137 C132 0.931 . S
Co138 N135 2.135 1_554 S
Co138 N141 2.121 . S
Co138 O146 2.056 . S
Co138 O149 2.039 . S
Co138 N152 2.140 . S
C139 O140 1.228 . S
C139 O149 1.265 . S
O140 C139 1.228 . S
N141 Co138 2.121 . S
N141 C143 1.375 . S
N141 C144 1.313 . S
C142 C143 1.338 . S
C142 N145 1.377 . S
C142 H162 0.930 . S
C143 N141 1.375 . S
C143 C142 1.338 . S
C143 H147 0.931 . S
C144 N141 1.313 . S
C144 N145 1.344 . S
C144 H148 0.930 . S
N145 C142 1.377 . S
N145 C144 1.344 . S
O146 Co138 2.056 . S
O146 C150 1.254 . S
H147 C143 0.931 . S
H148 C144 0.930 . S
O149 Co138 2.039 . S
O149 C139 1.265 . S
C150 O146 1.254 . S
C150 O151 1.227 . S
O151 C150 1.227 . S
N152 Co138 2.140 . S
N152 C155 1.346 1_554 S
N152 C156 1.345 . S
C153 C154 1.357 1_454 S
C153 C157 1.393 1_545 S
C154 C153 1.357 1_656 S
C154 C155 1.372 1_545 S
C154 H163 0.942 . S
C155 N152 1.346 1_556 S
C155 C154 1.372 1_565 S
C155 H158 0.928 . S
C156 N152 1.345 . S
C156 C157 1.371 1_655 S
C156 H159 0.931 . S
C157 C153 1.393 1_565 S
C157 C156 1.371 1_455 S
C157 H164 0.930 . S
H158 C155 0.928 . S
H159 C156 0.931 . S
H160 C136 0.930 . S
H161 C133 0.930 . S
H162 C142 0.930 . S
H163 C154 0.942 . S
H164 C157 0.930 . S
C165 C166 1.351 . S
C165 N168 1.368 . S
C165 H170 0.931 . S
C166 C165 1.351 . S
C166 N167 1.373 . S
C166 H194 0.930 . S
N167 C166 1.373 . S
N167 C169 1.340 . S
N168 C165 1.368 . S
N168 C169 1.321 . S
N168 Co171 2.135 1_556 S
C169 N167 1.340 . S
C169 N168 1.321 . S
C169 H193 0.930 1_545 S
H170 C165 0.931 . S
Co171 N168 2.135 1_554 S
Co171 N174 2.121 . S
Co171 O179 2.056 . S
Co171 O182 2.039 . S
Co171 N185 2.140 1_545 S
C172 O173 1.228 . S
C172 O182 1.265 1_565 S
O173 C172 1.228 . S
N174 Co171 2.121 . S
N174 C176 1.375 . S
N174 C177 1.313 . S
C175 C176 1.338 . S
C175 N178 1.377 . S
C175 H195 0.930 . S
C176 N174 1.375 . S
C176 C175 1.338 . S
C176 H180 0.931 1_545 S
C177 N174 1.313 . S
C177 N178 1.344 . S
C177 H181 0.930 . S
N178 C175 1.377 . S
N178 C177 1.344 . S
O179 Co171 2.056 . S
O179 C183 1.254 . S
H180 C176 0.931 1_565 S
H181 C177 0.930 . S
O182 Co171 2.039 . S
O182 C172 1.265 1_545 S
C183 O179 1.254 . S
C183 O184 1.227 . S
O184 C183 1.227 . S
N185 Co171 2.140 1_565 S
N185 C188 1.346 1_554 S
N185 C189 1.345 . S
C186 C187 1.372 1_554 S
C186 C190 1.391 . S
C187 C186 1.372 1_556 S
C187 C188 1.372 . S
C187 H196 0.942 . S
C188 N185 1.346 1_556 S
C188 C187 1.372 . S
C188 H191 0.928 . S
C189 N185 1.345 . S
C189 C190 1.371 . S
C189 H192 0.931 1_565 S
C190 C186 1.391 . S
C190 C189 1.371 . S
C190 H197 0.930 . S
H191 C188 0.928 . S
H192 C189 0.931 1_545 S
H193 C169 0.930 1_565 S
H194 C166 0.930 . S
H195 C175 0.930 . S
H196 C187 0.942 . S
H197 C190 0.930 . S
C198 C199 1.351 . S
C198 N201 1.368 . S
C198 H203 0.931 . S
C199 C198 1.351 . S
C199 N200 1.373 . S
C199 H227 0.930 . S
N200 C199 1.373 . S
N200 C202 1.340 . S
N201 C198 1.368 . S
N201 C202 1.321 . S
N201 Co204 2.135 . S
C202 N200 1.340 . S
C202 N201 1.321 . S
C202 H226 0.930 1_545 S
H203 C198 0.931 . S
Co204 N201 2.135 . S
Co204 N207 2.121 . S
Co204 O212 2.055 . S
Co204 O215 2.039 . S
Co204 N218 2.140 1_545 S
C205 O206 1.227 . S
C205 O215 1.265 1_565 S
O206 C205 1.227 . S
N207 Co204 2.121 . S
N207 C209 1.375 . S
N207 C210 1.313 . S
C208 C209 1.338 . S
C208 N211 1.377 . S
C208 H228 0.930 . S
C209 N207 1.375 . S
C209 C208 1.338 . S
C209 H213 0.931 1_545 S
C210 N207 1.313 . S
C210 N211 1.344 . S
C210 H214 0.930 . S
N211 C208 1.377 . S
N211 C210 1.344 . S
O212 Co204 2.055 . S
O212 C216 1.253 . S
H213 C209 0.931 1_565 S
H214 C210 0.930 . S
O215 Co204 2.039 . S
O215 C205 1.265 1_545 S
C216 O212 1.253 . S
C216 O217 1.227 . S
O217 C216 1.227 . S
N218 Co204 2.140 1_565 S
N218 C221 1.346 . S
N218 C222 1.345 . S
C219 C220 1.372 1_455 S
C219 C223 1.393 . S
C220 C219 1.372 1_655 S
C220 C221 1.369 . S
C220 H229 0.929 . S
C221 N218 1.346 . S
C221 C220 1.369 . S
C221 H224 0.928 . S
C222 N218 1.345 . S
C222 C223 1.371 1_655 S
C222 H225 0.931 1_565 S
C223 C219 1.393 . S
C223 C222 1.371 1_455 S
C223 H230 0.930 . S
H224 C221 0.928 . S
H225 C222 0.931 1_545 S
H226 C202 0.930 1_565 S
H227 C199 0.930 . S
H228 C208 0.930 . S
H229 C220 0.929 . S
H230 C223 0.930 . S
C231 C232 1.351 . S
C231 N234 1.368 . S
C231 H236 0.931 . S
C232 C231 1.351 . S
C232 N233 1.373 . S
C232 H260 0.930 . S
N233 C232 1.373 . S
N233 C235 1.340 . S
N234 C231 1.368 . S
N234 C235 1.321 . S
N234 Co237 2.135 . S
C235 N233 1.340 . S
C235 N234 1.321 . S
C235 H259 0.930 . S
H236 C231 0.931 . S
Co237 N234 2.135 . S
Co237 N240 2.121 . S
Co237 O245 2.055 . S
Co237 O248 2.039 . S
Co237 N251 2.140 . S
C238 O239 1.227 . S
C238 O248 1.265 . S
O239 C238 1.227 . S
N240 Co237 2.121 . S
N240 C242 1.375 . S
N240 C243 1.313 . S
C241 C242 1.338 . S
C241 N244 1.377 . S
C241 H261 0.930 . S
C242 N240 1.375 . S
C242 C241 1.338 . S
C242 H246 0.931 . S
C243 N240 1.313 . S
C243 N244 1.344 . S
C243 H247 0.930 . S
N244 C241 1.377 . S
N244 C243 1.344 . S
O245 Co237 2.055 . S
O245 C249 1.253 . S
H246 C242 0.931 . S
H247 C243 0.930 . S
O248 Co237 2.039 . S
O248 C238 1.265 . S
C249 O245 1.253 . S
C249 O250 1.227 . S
O250 C249 1.227 . S
N251 Co237 2.140 . S
N251 C254 1.346 . S
N251 C255 1.345 . S
C252 C253 1.387 . S
C252 C256 1.391 1_545 S
C253 C252 1.387 . S
C253 C254 1.369 1_545 S
C253 H262 0.929 . S
C254 N251 1.346 . S
C254 C253 1.369 1_565 S
C254 H257 0.928 . S
C255 N251 1.345 . S
C255 C256 1.371 . S
C255 H258 0.931 . S
C256 C252 1.391 1_565 S
C256 C255 1.371 . S
C256 H263 0.930 . S
H257 C254 0.928 . S
H258 C255 0.931 . S
H259 C235 0.930 . S
H260 C232 0.930 . S
H261 C241 0.930 . S
H262 C253 0.929 . S
H263 C256 0.930 . S
C264 C265 1.351 . S
C264 N267 1.368 . S
C264 H269 0.931 . S
C265 C264 1.351 . S
C265 N266 1.373 . S
C265 H293 0.930 . S
N266 C265 1.373 . S
N266 C268 1.340 . S
N267 C264 1.368 . S
N267 C268 1.321 . S
N267 Co270 2.135 . S
C268 N266 1.340 . S
C268 N267 1.321 . S
C268 H292 0.930 . S
H269 C264 0.931 . S
Co270 N267 2.135 . S
Co270 N273 2.121 . S
Co270 O278 2.055 . S
Co270 O281 2.039 . S
Co270 N284 2.140 . S
C271 O272 1.227 . S
C271 O281 1.265 . S
O272 C271 1.227 . S
N273 Co270 2.121 . S
N273 C275 1.375 . S
N273 C276 1.313 . S
C274 C275 1.338 . S
C274 N277 1.377 . S
C274 H294 0.930 . S
C275 N273 1.375 . S
C275 C274 1.338 . S
C275 H279 0.931 . S
C276 N273 1.313 . S
C276 N277 1.344 . S
C276 H280 0.930 . S
N277 C274 1.377 . S
N277 C276 1.344 . S
O278 Co270 2.055 . S
O278 C282 1.252 1_565 S
H279 C275 0.931 . S
H280 C276 0.930 . S
O281 Co270 2.039 . S
O281 C271 1.265 . S
C282 O278 1.252 1_545 S
C282 O283 1.222 1_545 S
O283 C282 1.222 1_565 S
N284 Co270 2.140 . S
N284 C287 1.346 . S
N284 C288 1.345 . S
C285 C286 1.372 1_655 S
C285 C289 1.393 . S
C286 C285 1.372 1_455 S
C286 C287 1.369 . S
C286 H295 0.929 . S
C287 N284 1.346 . S
C287 C286 1.369 . S
C287 H290 0.928 . S
C288 N284 1.345 . S
C288 C289 1.371 1_455 S
C288 H291 0.931 . S
C289 C285 1.393 . S
C289 C288 1.371 1_655 S
C289 H296 0.930 . S
H290 C287 0.928 . S
H291 C288 0.931 . S
H292 C268 0.930 . S
H293 C265 0.930 . S
H294 C274 0.930 . S
H295 C286 0.929 . S
H296 C289 0.930 . S
C297 C298 1.351 . S
C297 N300 1.368 . S
C297 H302 0.931 . S
C298 C297 1.351 . S
C298 N299 1.373 . S
C298 H326 0.930 . S
N299 C298 1.373 . S
N299 C301 1.340 . S
N300 C297 1.368 . S
N300 C301 1.321 . S
N300 Co303 2.135 . S
C301 N299 1.340 . S
C301 N300 1.321 . S
C301 H325 0.930 . S
H302 C297 0.931 . S
Co303 N300 2.135 . S
Co303 N306 2.121 . S
Co303 O311 2.055 . S
Co303 O314 2.039 . S
Co303 N317 2.140 . S
C304 O305 1.227 . S
C304 O314 1.265 . S
O305 C304 1.227 . S
N306 Co303 2.121 . S
N306 C308 1.375 . S
N306 C309 1.313 . S
C307 C308 1.338 . S
C307 N310 1.377 . S
C307 H327 0.930 . S
C308 N306 1.375 . S
C308 C307 1.338 . S
C308 H312 0.931 . S
C309 N306 1.313 . S
C309 N310 1.344 . S
C309 H313 0.930 . S
N310 C307 1.377 . S
N310 C309 1.344 . S
O311 Co303 2.055 . S
O311 C315 1.253 . S
H312 C308 0.931 . S
H313 C309 0.930 . S
O314 Co303 2.039 . S
O314 C304 1.265 . S
C315 O311 1.253 . S
C315 O316 1.227 . S
O316 C315 1.227 . S
N317 Co303 2.140 . S
N317 C320 1.346 . S
N317 C321 1.345 . S
C318 C319 1.387 . S
C318 C322 1.391 . S
C319 C318 1.387 . S
C319 C320 1.369 . S
C319 H328 0.929 . S
C320 N317 1.346 . S
C320 C319 1.369 . S
C320 H323 0.928 . S
C321 N317 1.345 . S
C321 C322 1.371 . S
C321 H324 0.931 . S
C322 C318 1.391 . S
C322 C321 1.371 . S
C322 H329 0.930 . S
H323 C320 0.928 . S
H324 C321 0.931 . S
H325 C301 0.930 . S
H326 C298 0.930 . S
H327 C307 0.930 . S
H328 C319 0.929 . S
H329 C322 0.930 . S
C330 C331 1.351 . S
C330 N333 1.368 . S
C330 H335 0.931 . S
C331 C330 1.351 . S
C331 N332 1.373 . S
C331 H359 0.930 . S
N332 C331 1.373 . S
N332 C334 1.340 . S
N333 C330 1.368 . S
N333 C334 1.321 . S
N333 Co336 2.135 . S
C334 N332 1.340 . S
C334 N333 1.321 . S
C334 H358 0.930 . S
H335 C330 0.931 . S
Co336 N333 2.135 . S
Co336 N339 2.121 . S
Co336 O344 2.055 . S
Co336 O347 2.039 . S
Co336 N350 2.140 . S
C337 O338 1.227 . S
C337 O347 1.265 . S
O338 C337 1.227 . S
N339 Co336 2.121 . S
N339 C341 1.375 . S
N339 C342 1.313 . S
C340 C341 1.338 . S
C340 N343 1.377 . S
C340 H360 0.930 . S
C341 N339 1.375 . S
C341 C340 1.338 . S
C341 H345 0.931 . S
C342 N339 1.313 . S
C342 N343 1.344 . S
C342 H346 0.930 . S
N343 C340 1.377 . S
N343 C342 1.344 . S
O344 Co336 2.055 . S
O344 C348 1.253 . S
H345 C341 0.931 . S
H346 C342 0.930 . S
O347 Co336 2.039 . S
O347 C337 1.265 . S
C348 O344 1.253 . S
C348 O349 1.227 . S
O349 C348 1.227 . S
N350 Co336 2.140 . S
N350 C353 1.346 . S
N350 C354 1.345 . S
C351 C352 1.372 1_655 S
C351 C355 1.393 . S
C352 C351 1.372 1_455 S
C352 C353 1.369 . S
C352 H361 0.929 . S
C353 N350 1.346 . S
C353 C352 1.369 . S
C353 H356 0.928 . S
C354 N350 1.345 . S
C354 C355 1.371 1_455 S
C354 H357 0.931 . S
C355 C351 1.393 . S
C355 C354 1.371 1_655 S
C355 H362 0.930 . S
H356 C353 0.928 . S
H357 C354 0.931 . S
H358 C334 0.930 . S
H359 C331 0.930 . S
H360 C340 0.930 . S
H361 C352 0.929 . S
H362 C355 0.930 . S
C363 C364 1.351 . S
C363 N366 1.368 . S
C363 H368 0.931 . S
C364 C363 1.351 . S
C364 N365 1.373 . S
C364 H392 0.930 . S
N365 C364 1.373 . S
N365 C367 1.340 . S
N366 C363 1.368 . S
N366 C367 1.321 . S
N366 Co369 2.135 . S
C367 N365 1.340 . S
C367 N366 1.321 . S
C367 H391 0.930 . S
H368 C363 0.931 . S
Co369 N366 2.135 . S
Co369 N372 2.121 . S
Co369 O377 2.055 . S
Co369 O380 2.039 . S
Co369 N383 2.140 . S
C370 O371 1.227 . S
C370 O380 1.265 . S
O371 C370 1.227 . S
N372 Co369 2.121 . S
N372 C374 1.375 . S
N372 C375 1.313 . S
C373 C374 1.338 . S
C373 N376 1.377 . S
C373 H393 0.930 . S
C374 N372 1.375 . S
C374 C373 1.338 . S
C374 H378 0.931 . S
C375 N372 1.313 . S
C375 N376 1.344 . S
C375 H379 0.930 . S
N376 C373 1.377 . S
N376 C375 1.344 . S
O377 Co369 2.055 . S
O377 C381 1.251 1_565 S
H378 C374 0.931 . S
H379 C375 0.930 . S
O380 Co369 2.039 . S
O380 C370 1.265 . S
C381 O377 1.251 1_545 S
C381 O382 1.220 1_545 S
O382 C381 1.220 1_565 S
N383 Co369 2.140 . S
N383 C386 1.346 . S
N383 C387 1.345 . S
C384 C385 1.387 . S
C384 C388 1.391 . S
C385 C384 1.387 . S
C385 C386 1.369 . S
C385 H394 0.929 . S
C386 N383 1.346 . S
C386 C385 1.369 . S
C386 H389 0.928 . S
C387 N383 1.345 . S
C387 C388 1.371 . S
C387 H390 0.931 . S
C388 C384 1.391 . S
C388 C387 1.371 . S
C388 H395 0.930 . S
H389 C386 0.928 . S
H390 C387 0.931 . S
H391 C367 0.930 . S
H392 C364 0.930 . S
H393 C373 0.930 . S
H394 C385 0.929 . S
H395 C388 0.930 . S
C396 C397 1.351 . S
C396 N399 1.368 . S
C396 H401 0.931 . S
C397 C396 1.351 . S
C397 N398 1.373 . S
C397 H425 0.930 . S
N398 C397 1.373 . S
N398 C400 1.340 . S
N399 C396 1.368 . S
N399 C400 1.321 . S
N399 Co402 2.135 . S
C400 N398 1.340 . S
C400 N399 1.321 . S
C400 H424 0.930 . S
H401 C396 0.931 . S
Co402 N399 2.135 . S
Co402 N405 2.121 . S
Co402 O410 2.055 . S
Co402 O413 2.039 . S
Co402 N416 2.140 . S
C403 O404 1.227 . S
C403 O413 1.265 . S
O404 C403 1.227 . S
N405 Co402 2.121 . S
N405 C407 1.375 . S
N405 C408 1.313 . S
C406 C407 1.338 . S
C406 N409 1.377 . S
C406 H426 0.930 . S
C407 N405 1.375 . S
C407 C406 1.338 . S
C407 H411 0.931 . S
C408 N405 1.313 . S
C408 N409 1.344 . S
C408 H412 0.930 . S
N409 C406 1.377 . S
N409 C408 1.344 . S
O410 Co402 2.055 . S
O410 C414 1.253 . S
H411 C407 0.931 . S
H412 C408 0.930 . S
O413 Co402 2.039 . S
O413 C403 1.265 . S
C414 O410 1.253 . S
C414 O415 1.227 . S
O415 C414 1.227 . S
N416 Co402 2.140 . S
N416 C419 1.346 . S
N416 C420 1.345 . S
C417 C418 1.372 1_455 S
C417 C421 1.393 . S
C418 C417 1.372 1_655 S
C418 C419 1.369 . S
C418 H427 0.929 . S
C419 N416 1.346 . S
C419 C418 1.369 . S
C419 H422 0.928 . S
C420 N416 1.345 . S
C420 C421 1.371 1_655 S
C420 H423 0.931 . S
C421 C417 1.393 . S
C421 C420 1.371 1_455 S
C421 H428 0.930 . S
H422 C419 0.928 . S
H423 C420 0.931 . S
H424 C400 0.930 . S
H425 C397 0.930 . S
H426 C406 0.930 . S
H427 C418 0.929 . S
H428 C421 0.930 . S
C429 C430 1.351 . S
C429 N432 1.368 . S
C429 H434 0.931 . S
C430 C429 1.351 . S
C430 N431 1.373 . S
C430 H458 0.930 . S
N431 C430 1.373 . S
N431 C433 1.340 . S
N432 C429 1.368 . S
N432 C433 1.321 . S
N432 Co435 2.135 . S
C433 N431 1.340 . S
C433 N432 1.321 . S
C433 H457 0.930 . S
H434 C429 0.931 . S
Co435 N432 2.135 . S
Co435 N438 2.121 . S
Co435 O443 2.055 . S
Co435 O446 2.039 . S
Co435 N449 2.140 . S
C436 O437 1.227 . S
C436 O446 1.265 . S
O437 C436 1.227 . S
N438 Co435 2.121 . S
N438 C440 1.375 . S
N438 C441 1.313 . S
C439 C440 1.338 . S
C439 N442 1.377 . S
C439 H459 0.930 . S
C440 N438 1.375 . S
C440 C439 1.338 . S
C440 H444 0.931 . S
C441 N438 1.313 . S
C441 N442 1.344 . S
C441 H445 0.930 . S
N442 C439 1.377 . S
N442 C441 1.344 . S
O443 Co435 2.055 . S
O443 C447 1.253 . S
H444 C440 0.931 . S
H445 C441 0.930 . S
O446 Co435 2.039 . S
O446 C436 1.265 . S
C447 O443 1.253 . S
C447 O448 1.227 . S
O448 C447 1.227 . S
N449 Co435 2.140 . S
N449 C452 1.346 . S
N449 C453 1.345 . S
C450 C451 1.387 . S
C450 C454 1.391 . S
C451 C450 1.387 . S
C451 C452 1.369 . S
C451 H460 0.929 . S
C452 N449 1.346 . S
C452 C451 1.369 . S
C452 H455 0.928 . S
C453 N449 1.345 . S
C453 C454 1.371 . S
C453 H456 0.931 . S
C454 C450 1.391 . S
C454 C453 1.371 . S
C454 H461 0.930 . S
H455 C452 0.928 . S
H456 C453 0.931 . S
H457 C433 0.930 . S
H458 C430 0.930 . S
H459 C439 0.930 . S
H460 C451 0.929 . S
H461 C454 0.930 . S
C462 C463 1.351 . S
C462 N465 1.368 . S
C462 H467 0.931 . S
C463 C462 1.351 . S
C463 N464 1.373 . S
C463 H491 0.930 . S
N464 C463 1.373 . S
N464 C466 1.340 . S
N465 C462 1.368 . S
N465 C466 1.321 . S
N465 Co468 2.135 . S
C466 N464 1.340 . S
C466 N465 1.321 . S
C466 H490 0.930 . S
H467 C462 0.931 . S
Co468 N465 2.135 . S
Co468 N471 2.121 . S
Co468 O476 2.055 . S
Co468 O479 2.039 . S
Co468 N482 2.140 . S
C469 O470 1.227 . S
C469 O479 1.265 . S
O470 C469 1.227 . S
N471 Co468 2.121 . S
N471 C473 1.375 . S
N471 C474 1.313 . S
C472 C473 1.338 . S
C472 N475 1.377 . S
C472 H492 0.930 . S
C473 N471 1.375 . S
C473 C472 1.338 . S
C473 H477 0.931 . S
C474 N471 1.313 . S
C474 N475 1.344 . S
C474 H478 0.930 . S
N475 C472 1.377 . S
N475 C474 1.344 . S
O476 Co468 2.055 . S
O476 C480 1.253 . S
H477 C473 0.931 . S
H478 C474 0.930 . S
O479 Co468 2.039 . S
O479 C469 1.265 . S
C480 O476 1.253 . S
C480 O481 1.227 . S
O481 C480 1.227 . S
N482 Co468 2.140 . S
N482 C485 1.346 . S
N482 C486 1.345 . S
C483 C484 1.372 1_455 S
C483 C487 1.393 . S
C484 C483 1.372 1_655 S
C484 C485 1.369 . S
C484 H493 0.929 . S
C485 N482 1.346 . S
C485 C484 1.369 . S
C485 H488 0.928 . S
C486 N482 1.345 . S
C486 C487 1.371 1_655 S
C486 H489 0.931 . S
C487 C483 1.393 . S
C487 C486 1.371 1_455 S
C487 H494 0.930 . S
H488 C485 0.928 . S
H489 C486 0.931 . S
H490 C466 0.930 . S
H491 C463 0.930 . S
H492 C472 0.930 . S
H493 C484 0.929 . S
H494 C487 0.930 . S
C495 C496 1.351 . S
C495 N498 1.368 . S
C495 H500 0.931 . S
C496 C495 1.351 . S
C496 N497 1.373 . S
C496 H524 0.930 . S
N497 C496 1.373 . S
N497 C499 1.340 . S
N498 C495 1.368 . S
N498 C499 1.321 . S
N498 Co501 2.135 . S
C499 N497 1.340 . S
C499 N498 1.321 . S
C499 H523 0.930 . S
H500 C495 0.931 . S
Co501 N498 2.135 . S
Co501 N504 2.121 . S
Co501 O509 2.055 . S
Co501 O512 2.039 . S
Co501 N515 2.140 . S
C502 O503 1.227 . S
C502 O512 1.265 . S
O503 C502 1.227 . S
N504 Co501 2.121 . S
N504 C506 1.375 . S
N504 C507 1.313 . S
C505 C506 1.338 . S
C505 N508 1.377 . S
C505 H525 0.930 . S
C506 N504 1.375 . S
C506 C505 1.338 . S
C506 H510 0.931 . S
C507 N504 1.313 . S
C507 N508 1.344 . S
C507 H511 0.930 . S
N508 C505 1.377 . S
N508 C507 1.344 . S
O509 Co501 2.055 . S
O509 C513 1.253 . S
H510 C506 0.931 . S
H511 C507 0.930 . S
O512 Co501 2.039 . S
O512 C502 1.265 . S
C513 O509 1.253 . S
C513 O514 1.227 . S
O514 C513 1.227 . S
N515 Co501 2.140 . S
N515 C518 1.346 . S
N515 C519 1.345 . S
C516 C517 1.387 . S
C516 C520 1.391 . S
C517 C516 1.387 . S
C517 C518 1.369 . S
C517 H526 0.929 . S
C518 N515 1.346 . S
C518 C517 1.369 . S
C518 H521 0.928 . S
C519 N515 1.345 . S
C519 C520 1.371 . S
C519 H522 0.931 . S
C520 C516 1.391 . S
C520 C519 1.371 . S
C520 H527 0.930 . S
H521 C518 0.928 . S
H522 C519 0.931 . S
H523 C499 0.930 . S
H524 C496 0.930 . S
H525 C505 0.930 . S
H526 C517 0.929 . S
H527 C520 0.930 . S
C528 C529 1.351 . S
C528 N531 1.368 . S
C528 H533 0.931 . S
C529 C528 1.351 . S
C529 N530 1.373 . S
C529 H557 0.930 . S
N530 C529 1.373 . S
N530 C532 1.340 . S
N531 C528 1.368 . S
N531 C532 1.321 . S
N531 Co534 2.135 . S
C532 N530 1.340 . S
C532 N531 1.321 . S
C532 H556 0.930 . S
H533 C528 0.931 . S
Co534 N531 2.135 . S
Co534 N537 2.121 . S
Co534 O542 2.055 . S
Co534 O545 2.039 . S
Co534 N548 2.140 . S
C535 O536 1.227 . S
C535 O545 1.265 . S
O536 C535 1.227 . S
N537 Co534 2.121 . S
N537 C539 1.375 . S
N537 C540 1.313 . S
C538 C539 1.338 . S
C538 N541 1.377 . S
C538 H558 0.930 . S
C539 N537 1.375 . S
C539 C538 1.338 . S
C539 H543 0.931 . S
C540 N537 1.313 . S
C540 N541 1.344 . S
C540 H544 0.930 . S
N541 C538 1.377 . S
N541 C540 1.344 . S
O542 Co534 2.055 . S
O542 C546 1.253 . S
H543 C539 0.931 . S
H544 C540 0.930 . S
O545 Co534 2.039 . S
O545 C535 1.265 . S
C546 O542 1.253 . S
C546 O547 1.227 . S
O547 C546 1.227 . S
N548 Co534 2.140 . S
N548 C551 1.346 . S
N548 C552 1.345 . S
C549 C550 1.387 . S
C549 C553 1.391 . S
C550 C549 1.387 . S
C550 C551 1.369 . S
C550 H559 0.929 1_545 S
C551 N548 1.346 . S
C551 C550 1.369 . S
C551 H554 0.928 . S
C552 N548 1.345 . S
C552 C553 1.371 . S
C552 H555 0.931 . S
C553 C549 1.391 . S
C553 C552 1.371 . S
C553 H560 0.930 . S
H554 C551 0.928 . S
H555 C552 0.931 . S
H556 C532 0.930 . S
H557 C529 0.930 . S
H558 C538 0.930 . S
H559 C550 0.929 1_565 S
H560 C553 0.930 . S
C561 C562 1.351 1_565 S
C561 N564 1.368 . S
C561 H566 0.931 . S
C562 C561 1.351 1_545 S
C562 N563 1.373 . S
C562 H590 0.930 1_545 S
N563 C562 1.373 . S
N563 C565 1.340 . S
N564 C561 1.368 . S
N564 C565 1.321 1_565 S
N564 Co567 2.135 . S
C565 N563 1.340 . S
C565 N564 1.321 1_545 S
C565 H589 0.930 . S
H566 C561 0.931 . S
Co567 N564 2.135 . S
Co567 N570 2.121 . S
Co567 O575 2.055 . S
Co567 O578 2.039 . S
Co567 N581 2.140 1_565 S
C568 O569 1.227 . S
C568 O578 1.265 1_545 S
O569 C568 1.227 . S
N570 Co567 2.121 . S
N570 C572 1.375 1_565 S
N570 C573 1.313 . S
C571 C572 1.338 . S
C571 N574 1.377 1_545 S
C571 H591 0.930 . S
C572 N570 1.375 1_545 S
C572 C571 1.338 . S
C572 H576 0.931 . S
C573 N570 1.313 . S
C573 N574 1.344 . S
C573 H577 0.930 . S
N574 C571 1.377 1_565 S
N574 C573 1.344 . S
O575 Co567 2.055 . S
O575 C579 1.253 . S
H576 C572 0.931 . S
H577 C573 0.930 . S
O578 Co567 2.039 . S
O578 C568 1.265 1_565 S
C579 O575 1.253 . S
C579 O580 1.227 . S
O580 C579 1.227 . S
N581 Co567 2.140 1_545 S
N581 C584 1.346 . S
N581 C585 1.345 . S
C582 C583 1.387 . S
C582 C586 1.391 . S
C583 C582 1.387 . S
C583 C584 1.369 . S
C583 H592 0.929 . S
C584 N581 1.346 . S
C584 C583 1.369 . S
C584 H587 0.928 . S
C585 N581 1.345 . S
C585 C586 1.371 . S
C585 H588 0.931 . S
C586 C582 1.391 . S
C586 C585 1.371 . S
C586 H593 0.930 . S
H587 C584 0.928 . S
H588 C585 0.931 . S
H589 C565 0.930 . S
H590 C562 0.930 1_565 S
H591 C571 0.930 . S
H592 C583 0.929 . S
H593 C586 0.930 . S
C594 C595 1.351 1_565 S
C594 N597 1.368 . S
C594 H599 0.931 . S
C595 C594 1.351 1_545 S
C595 N596 1.373 . S
C595 H623 0.930 1_545 S
N596 C595 1.373 . S
N596 C598 1.340 . S
N597 C594 1.368 . S
N597 C598 1.321 1_565 S
N597 Co600 2.135 . S
C598 N596 1.340 . S
C598 N597 1.321 1_545 S
C598 H622 0.930 . S
H599 C594 0.931 . S
Co600 N597 2.135 . S
Co600 N603 2.121 . S
Co600 O608 2.055 . S
Co600 O611 2.039 . S
Co600 N614 2.140 1_565 S
C601 O602 1.227 . S
C601 O611 1.265 1_545 S
O602 C601 1.227 . S
N603 Co600 2.121 . S
N603 C605 1.375 1_565 S
N603 C606 1.313 . S
C604 C605 1.338 . S
C604 N607 1.377 1_545 S
C604 H624 0.930 . S
C605 N603 1.375 1_545 S
C605 C604 1.338 . S
C605 H609 0.931 . S
C606 N603 1.313 . S
C606 N607 1.344 . S
C606 H610 0.930 . S
N607 C604 1.377 1_565 S
N607 C606 1.344 . S
O608 Co600 2.055 . S
O608 C612 1.253 . S
H609 C605 0.931 . S
H610 C606 0.930 . S
O611 Co600 2.039 . S
O611 C601 1.265 1_565 S
C612 O608 1.253 . S
C612 O613 1.227 . S
O613 C612 1.227 . S
N614 Co600 2.140 1_545 S
N614 C617 1.346 . S
N614 C618 1.345 . S
C615 C616 1.387 . S
C615 C619 1.391 . S
C616 C615 1.387 . S
C616 C617 1.369 . S
C616 H625 0.929 . S
C617 N614 1.346 . S
C617 C616 1.369 . S
C617 H620 0.928 . S
C618 N614 1.345 . S
C618 C619 1.371 . S
C618 H621 0.931 . S
C619 C615 1.391 . S
C619 C618 1.371 . S
C619 H626 0.930 . S
H620 C617 0.928 . S
H621 C618 0.931 . S
H622 C598 0.930 . S
H623 C595 0.930 1_565 S
H624 C604 0.930 . S
H625 C616 0.929 . S
H626 C619 0.930 . S
C627 C628 1.351 . S
C627 N630 1.368 . S
C627 H632 0.931 . S
C628 C627 1.351 . S
C628 N629 1.373 . S
C628 H656 0.930 . S
N629 C628 1.373 . S
N629 C631 1.340 . S
N630 C627 1.368 . S
N630 C631 1.321 . S
N630 Co633 2.135 . S
C631 N629 1.340 . S
C631 N630 1.321 . S
C631 H655 0.930 . S
H632 C627 0.931 . S
Co633 N630 2.135 . S
Co633 N636 2.121 . S
Co633 O641 2.055 . S
Co633 O644 2.039 . S
Co633 N647 2.140 . S
C634 O635 1.227 . S
C634 O644 1.265 . S
O635 C634 1.227 . S
N636 Co633 2.121 . S
N636 C638 1.375 . S
N636 C639 1.313 . S
C637 C638 1.338 . S
C637 N640 1.377 . S
C637 H657 0.930 . S
C638 N636 1.375 . S
C638 C637 1.338 . S
C638 H642 0.931 . S
C639 N636 1.313 . S
C639 N640 1.344 . S
C639 H643 0.930 . S
N640 C637 1.377 . S
N640 C639 1.344 . S
O641 Co633 2.055 . S
O641 C645 1.253 . S
H642 C638 0.931 . S
H643 C639 0.930 . S
O644 Co633 2.039 . S
O644 C634 1.265 . S
C645 O641 1.253 . S
C645 O646 1.227 . S
O646 C645 1.227 . S
N647 Co633 2.140 . S
N647 C650 1.346 . S
N647 C651 1.345 . S
C648 C649 1.387 . S
C648 C652 1.391 . S
C649 C648 1.387 . S
C649 C650 1.369 . S
C649 H658 0.929 1_545 S
C650 N647 1.346 . S
C650 C649 1.369 . S
C650 H653 0.928 . S
C651 N647 1.345 . S
C651 C652 1.371 . S
C651 H654 0.931 . S
C652 C648 1.391 . S
C652 C651 1.371 . S
C652 H659 0.930 . S
H653 C650 0.928 . S
H654 C651 0.931 . S
H655 C631 0.930 . S
H656 C628 0.930 . S
H657 C637 0.930 . S
H658 C649 0.929 1_565 S
H659 C652 0.930 . S
C660 C661 1.351 . S
C660 N663 1.368 . S
C660 H665 0.931 . S
C661 C660 1.351 . S
C661 N662 1.373 . S
C661 H689 0.930 . S
N662 C661 1.373 . S
N662 C664 1.340 . S
N663 C660 1.368 . S
N663 C664 1.321 . S
N663 Co666 2.135 . S
C664 N662 1.340 . S
C664 N663 1.321 . S
C664 H688 0.930 . S
H665 C660 0.931 . S
Co666 N663 2.135 . S
Co666 N669 2.121 . S
Co666 O674 2.055 . S
Co666 O677 2.039 . S
Co666 N680 2.140 . S
C667 O668 1.227 . S
C667 O677 1.265 . S
O668 C667 1.227 . S
N669 Co666 2.121 . S
N669 C671 1.375 . S
N669 C672 1.313 . S
C670 C671 1.338 . S
C670 N673 1.377 . S
C670 H690 0.930 . S
C671 N669 1.375 . S
C671 C670 1.338 . S
C671 H675 0.931 . S
C672 N669 1.313 . S
C672 N673 1.344 . S
C672 H676 0.930 . S
N673 C670 1.377 . S
N673 C672 1.344 . S
O674 Co666 2.055 . S
O674 C678 1.253 . S
H675 C671 0.931 . S
H676 C672 0.930 . S
O677 Co666 2.039 . S
O677 C667 1.265 . S
C678 O674 1.253 . S
C678 O679 1.227 . S
O679 C678 1.227 . S
N680 Co666 2.140 . S
N680 C683 1.346 . S
N680 C684 1.345 . S
C681 C682 1.387 . S
C681 C685 1.391 1_545 S
C682 C681 1.387 . S
C682 C683 1.369 1_545 S
C682 H691 0.929 . S
C683 N680 1.346 . S
C683 C682 1.369 1_565 S
C683 H686 0.928 . S
C684 N680 1.345 . S
C684 C685 1.371 . S
C684 H687 0.931 . S
C685 C681 1.391 1_565 S
C685 C684 1.371 . S
C685 H692 0.930 . S
H686 C683 0.928 . S
H687 C684 0.931 . S
H688 C664 0.930 . S
H689 C661 0.930 . S
H690 C670 0.930 . S
H691 C682 0.929 . S
H692 C685 0.930 . S
C693 C694 1.351 . S
C693 N696 1.368 . S
C693 H698 0.931 . S
C694 C693 1.351 . S
C694 N695 1.373 . S
C694 H722 0.930 . S
N695 C694 1.373 . S
N695 C697 1.340 . S
N696 C693 1.368 . S
N696 C697 1.321 . S
N696 Co699 2.135 . S
C697 N695 1.340 . S
C697 N696 1.321 . S
C697 H721 0.930 1_545 S
H698 C693 0.931 . S
Co699 N696 2.135 . S
Co699 N702 2.121 . S
Co699 O707 2.055 . S
Co699 O710 2.039 . S
Co699 N713 2.140 1_545 S
C700 O701 1.227 . S
C700 O710 1.265 1_565 S
O701 C700 1.227 . S
N702 Co699 2.121 . S
N702 C704 1.375 . S
N702 C705 1.313 . S
C703 C704 1.338 . S
C703 N706 1.377 . S
C703 H723 0.930 . S
C704 N702 1.375 . S
C704 C703 1.338 . S
C704 H708 0.931 1_545 S
C705 N702 1.313 . S
C705 N706 1.344 . S
C705 H709 0.930 . S
N706 C703 1.377 . S
N706 C705 1.344 . S
O707 Co699 2.055 . S
O707 C711 1.253 . S
H708 C704 0.931 1_565 S
H709 C705 0.930 . S
O710 Co699 2.039 . S
O710 C700 1.265 1_545 S
C711 O707 1.253 . S
C711 O712 1.227 . S
O712 C711 1.227 . S
N713 Co699 2.140 1_565 S
N713 C716 1.346 . S
N713 C717 1.345 . S
C714 C715 1.387 . S
C714 C718 1.391 . S
C715 C714 1.387 . S
C715 C716 1.369 . S
C715 H724 0.929 . S
C716 N713 1.346 . S
C716 C715 1.369 . S
C716 H719 0.928 . S
C717 N713 1.345 . S
C717 C718 1.371 . S
C717 H720 0.931 1_565 S
C718 C714 1.391 . S
C718 C717 1.371 . S
C718 H725 0.930 . S
H719 C716 0.928 . S
H720 C717 0.931 1_545 S
H721 C697 0.930 1_565 S
H722 C694 0.930 . S
H723 C703 0.930 . S
H724 C715 0.929 . S
H725 C718 0.930 . S
C726 C727 1.351 . S
C726 N729 1.368 . S
C726 H731 0.931 . S
C727 C726 1.351 . S
C727 N728 1.373 . S
C727 H755 0.930 . S
N728 C727 1.373 . S
N728 C730 1.340 . S
N729 C726 1.368 . S
N729 C730 1.321 . S
N729 Co732 2.135 . S
C730 N728 1.340 . S
C730 N729 1.321 . S
C730 H754 0.930 1_545 S
H731 C726 0.931 . S
Co732 N729 2.135 . S
Co732 N735 2.121 . S
Co732 O740 2.055 . S
Co732 O743 2.039 . S
Co732 N746 2.140 1_545 S
C733 O734 1.227 . S
C733 O743 1.265 1_565 S
O734 C733 1.227 . S
N735 Co732 2.121 . S
N735 C737 1.375 . S
N735 C738 1.313 . S
C736 C737 1.338 . S
C736 N739 1.377 . S
C736 H756 0.930 . S
C737 N735 1.375 . S
C737 C736 1.338 . S
C737 H741 0.931 1_545 S
C738 N735 1.313 . S
C738 N739 1.344 . S
C738 H742 0.930 . S
N739 C736 1.377 . S
N739 C738 1.344 . S
O740 Co732 2.055 . S
O740 C744 1.253 . S
H741 C737 0.931 1_565 S
H742 C738 0.930 . S
O743 Co732 2.039 . S
O743 C733 1.265 1_545 S
C744 O740 1.253 . S
C744 O745 1.227 . S
O745 C744 1.227 . S
N746 Co732 2.140 1_565 S
N746 C749 1.346 . S
N746 C750 1.345 . S
C747 C748 1.387 . S
C747 C751 1.391 . S
C748 C747 1.387 . S
C748 C749 1.369 . S
C748 H757 0.929 . S
C749 N746 1.346 . S
C749 C748 1.369 . S
C749 H752 0.928 . S
C750 N746 1.345 . S
C750 C751 1.371 . S
C750 H753 0.931 1_565 S
C751 C747 1.391 . S
C751 C750 1.371 . S
C751 H758 0.930 . S
H752 C749 0.928 . S
H753 C750 0.931 1_545 S
H754 C730 0.930 1_565 S
H755 C727 0.930 . S
H756 C736 0.930 . S
H757 C748 0.929 . S
H758 C751 0.930 . S
C759 C760 1.351 . S
C759 N762 1.368 . S
C759 H764 0.931 . S
C760 C759 1.351 . S
C760 N761 1.373 . S
C760 H788 0.930 . S
N761 C760 1.373 . S
N761 C763 1.340 . S
N762 C759 1.368 . S
N762 C763 1.321 . S
N762 Co765 2.135 . S
C763 N761 1.340 . S
C763 N762 1.321 . S
C763 H787 0.930 . S
H764 C759 0.931 . S
Co765 N762 2.135 . S
Co765 N768 2.121 . S
Co765 O773 2.055 . S
Co765 O776 2.039 . S
Co765 N779 2.140 . S
C766 O767 1.227 . S
C766 O776 1.265 . S
O767 C766 1.227 . S
N768 Co765 2.121 . S
N768 C770 1.375 . S
N768 C771 1.313 . S
C769 C770 1.338 . S
C769 N772 1.377 . S
C769 H789 0.930 . S
C770 N768 1.375 . S
C770 C769 1.338 . S
C770 H774 0.931 . S
C771 N768 1.313 . S
C771 N772 1.344 . S
C771 H775 0.930 . S
N772 C769 1.377 . S
N772 C771 1.344 . S
O773 Co765 2.055 . S
O773 C777 1.253 . S
H774 C770 0.931 . S
H775 C771 0.930 . S
O776 Co765 2.039 . S
O776 C766 1.265 . S
C777 O773 1.253 . S
C777 O778 1.227 . S
O778 C777 1.227 . S
N779 Co765 2.140 . S
N779 C782 1.346 . S
N779 C783 1.345 . S
C780 C781 1.387 . S
C780 C784 1.391 1_545 S
C781 C780 1.387 . S
C781 C782 1.369 1_545 S
C781 H790 0.929 . S
C782 N779 1.346 . S
C782 C781 1.369 1_565 S
C782 H785 0.928 . S
C783 N779 1.345 . S
C783 C784 1.371 . S
C783 H786 0.931 . S
C784 C780 1.391 1_565 S
C784 C783 1.371 . S
C784 H791 0.930 . S
H785 C782 0.928 . S
H786 C783 0.931 . S
H787 C763 0.930 . S
H788 C760 0.930 . S
H789 C769 0.930 . S
H790 C781 0.929 . S
H791 C784 0.930 . S
C792 C793 1.351 . S
C792 N795 1.368 . S
C792 H797 0.931 . S
C793 C792 1.351 . S
C793 N794 1.373 . S
C793 H821 0.930 . S
N794 C793 1.373 . S
N794 C796 1.340 . S
N795 C792 1.368 . S
N795 C796 1.321 . S
N795 Co798 2.135 . S
C796 N794 1.340 . S
C796 N795 1.321 . S
C796 H820 0.930 . S
H797 C792 0.931 . S
Co798 N795 2.135 . S
Co798 N801 2.121 1_554 S
Co798 O806 2.055 . S
Co798 O809 2.039 . S
Co798 N812 2.140 . S
C799 O800 1.227 . S
C799 O809 1.265 . S
O800 C799 1.227 . S
N801 Co798 2.121 1_556 S
N801 C803 1.375 . S
N801 C804 1.313 . S
C802 C803 1.338 . S
C802 N805 1.377 . S
C802 H822 0.930 . S
C803 N801 1.375 . S
C803 C802 1.338 . S
C803 H807 0.931 . S
C804 N801 1.313 . S
C804 N805 1.344 . S
C804 H808 0.930 . S
N805 C802 1.377 . S
N805 C804 1.344 . S
O806 Co798 2.055 . S
O806 C810 1.251 1_565 S
H807 C803 0.931 . S
H808 C804 0.930 . S
O809 Co798 2.039 . S
O809 C799 1.265 . S
C810 O806 1.251 1_545 S
C810 O811 1.221 1_545 S
O811 C810 1.221 1_565 S
N812 Co798 2.140 . S
N812 C815 1.346 . S
N812 C816 1.345 1_554 S
C813 C814 1.371 1_556 S
C813 C817 1.404 . S
C814 C813 1.371 1_554 S
C814 C815 1.369 . S
C814 H823 0.929 . S
C815 N812 1.346 . S
C815 C814 1.369 . S
C815 H818 0.928 . S
C816 N812 1.345 1_556 S
C816 C817 1.371 . S
C816 H819 0.931 . S
C817 C813 1.404 . S
C817 C816 1.371 . S
C817 H824 0.930 . S
H818 C815 0.928 . S
H819 C816 0.931 . S
H820 C796 0.930 . S
H821 C793 0.930 . S
H822 C802 0.930 . S
H823 C814 0.929 . S
H824 C817 0.930 . S
C825 C826 1.351 . S
C825 N828 1.368 . S
C825 H830 0.931 . S
C826 C825 1.351 . S
C826 N827 1.373 . S
C826 H854 0.930 . S
N827 C826 1.373 . S
N827 C829 1.340 . S
N828 C825 1.368 . S
N828 C829 1.321 . S
N828 Co831 2.135 . S
C829 N827 1.340 . S
C829 N828 1.321 . S
C829 H853 0.930 . S
H830 C825 0.931 . S
Co831 N828 2.135 . S
Co831 N834 2.121 1_554 S
Co831 O839 2.055 . S
Co831 O842 2.039 . S
Co831 N845 2.140 . S
C832 O833 1.227 . S
C832 O842 1.265 . S
O833 C832 1.227 . S
N834 Co831 2.121 1_556 S
N834 C836 1.375 . S
N834 C837 1.313 . S
C835 C836 1.338 . S
C835 N838 1.377 . S
C835 H855 0.930 . S
C836 N834 1.375 . S
C836 C835 1.338 . S
C836 H840 0.931 . S
C837 N834 1.313 . S
C837 N838 1.344 . S
C837 H841 0.930 . S
N838 C835 1.377 . S
N838 C837 1.344 . S
O839 Co831 2.055 . S
O839 C843 1.253 . S
H840 C836 0.931 . S
H841 C837 0.930 . S
O842 Co831 2.039 . S
O842 C832 1.265 . S
C843 O839 1.253 . S
C843 O844 1.227 . S
O844 C843 1.227 . S
N845 Co831 2.140 . S
N845 C848 1.346 . S
N845 C849 1.345 1_554 S
C846 C847 1.371 1_556 S
C846 C850 1.404 . S
C847 C846 1.371 1_554 S
C847 C848 1.369 . S
C847 H856 0.929 . S
C848 N845 1.346 . S
C848 C847 1.369 . S
C848 H851 0.928 . S
C849 N845 1.345 1_556 S
C849 C850 1.371 . S
C849 H852 0.931 . S
C850 C846 1.404 . S
C850 C849 1.371 . S
C850 H857 0.930 . S
H851 C848 0.928 . S
H852 C849 0.931 . S
H853 C829 0.930 . S
H854 C826 0.930 . S
H855 C835 0.930 . S
H856 C847 0.929 . S
H857 C850 0.930 . S
C858 C859 1.351 . S
C858 N861 1.368 . S
C858 H863 0.931 . S
C859 C858 1.351 . S
C859 N860 1.373 . S
C859 H887 0.930 . S
N860 C859 1.373 . S
N860 C862 1.340 . S
N861 C858 1.368 . S
N861 C862 1.321 . S
N861 Co864 2.135 . S
C862 N860 1.340 . S
C862 N861 1.321 . S
C862 H886 0.930 . S
H863 C858 0.931 . S
Co864 N861 2.135 . S
Co864 N867 2.121 . S
Co864 O872 2.055 . S
Co864 O875 2.039 . S
Co864 N878 2.140 . S
C865 O866 1.227 . S
C865 O875 1.265 . S
O866 C865 1.227 . S
N867 Co864 2.121 . S
N867 C869 1.375 . S
N867 C870 1.313 . S
C868 C869 1.338 . S
C868 N871 1.377 . S
C868 H888 0.930 . S
C869 N867 1.375 . S
C869 C868 1.338 . S
C869 H873 0.931 . S
C870 N867 1.313 . S
C870 N871 1.344 . S
C870 H874 0.930 . S
N871 C868 1.377 . S
N871 C870 1.344 . S
O872 Co864 2.055 . S
O872 C876 1.253 . S
H873 C869 0.931 . S
H874 C870 0.930 . S
O875 Co864 2.039 . S
O875 C865 1.265 . S
C876 O872 1.253 . S
C876 O877 1.227 . S
O877 C876 1.227 . S
N878 Co864 2.140 . S
N878 C881 1.346 . S
N878 C882 1.345 . S
C879 C880 1.387 . S
C879 C883 1.391 . S
C880 C879 1.387 . S
C880 C881 1.369 . S
C880 H889 0.929 . S
C881 N878 1.346 . S
C881 C880 1.369 . S
C881 H884 0.928 . S
C882 N878 1.345 . S
C882 C883 1.371 . S
C882 H885 0.931 . S
C883 C879 1.391 . S
C883 C882 1.371 . S
C883 H890 0.930 . S
H884 C881 0.928 . S
H885 C882 0.931 . S
H886 C862 0.930 . S
H887 C859 0.930 . S
H888 C868 0.930 . S
H889 C880 0.929 . S
H890 C883 0.930 . S
C891 C892 1.351 . S
C891 N894 1.368 . S
C891 H896 0.931 . S
C892 C891 1.351 . S
C892 N893 1.373 . S
C892 H920 0.930 . S
N893 C892 1.373 . S
N893 C895 1.340 . S
N894 C891 1.368 . S
N894 C895 1.321 . S
N894 Co897 2.135 . S
C895 N893 1.340 . S
C895 N894 1.321 . S
C895 H919 0.930 . S
H896 C891 0.931 . S
Co897 N894 2.135 . S
Co897 N900 2.121 . S
Co897 O905 2.055 . S
Co897 O908 2.039 . S
Co897 N911 2.140 . S
C898 O899 1.227 . S
C898 O908 1.265 . S
O899 C898 1.227 . S
N900 Co897 2.121 . S
N900 C902 1.375 . S
N900 C903 1.313 . S
C901 C902 1.338 . S
C901 N904 1.377 . S
C901 H921 0.930 . S
C902 N900 1.375 . S
C902 C901 1.338 . S
C902 H906 0.931 . S
C903 N900 1.313 . S
C903 N904 1.344 . S
C903 H907 0.930 . S
N904 C901 1.377 . S
N904 C903 1.344 . S
O905 Co897 2.055 . S
O905 C909 1.252 1_565 S
H906 C902 0.931 . S
H907 C903 0.930 . S
O908 Co897 2.039 . S
O908 C898 1.265 . S
C909 O905 1.252 1_545 S
C909 O910 1.222 1_545 S
O910 C909 1.222 1_565 S
N911 Co897 2.140 . S
N911 C914 1.346 . S
N911 C915 1.345 . S
C912 C913 1.387 . S
C912 C916 1.391 . S
C913 C912 1.387 . S
C913 C914 1.369 . S
C913 H922 0.929 . S
C914 N911 1.346 . S
C914 C913 1.369 . S
C914 H917 0.928 . S
C915 N911 1.345 . S
C915 C916 1.371 . S
C915 H918 0.931 . S
C916 C912 1.391 . S
C916 C915 1.371 . S
C916 H923 0.930 . S
H917 C914 0.928 . S
H918 C915 0.931 . S
H919 C895 0.930 . S
H920 C892 0.930 . S
H921 C901 0.930 . S
H922 C913 0.929 . S
H923 C916 0.930 . S
C924 C925 1.351 . S
C924 N927 1.368 . S
C924 H929 0.931 . S
C925 C924 1.351 . S
C925 N926 1.373 . S
C925 H953 0.930 . S
N926 C925 1.373 . S
N926 C928 1.340 . S
N927 C924 1.368 . S
N927 C928 1.321 . S
N927 Co930 2.135 1_556 S
C928 N926 1.340 . S
C928 N927 1.321 . S
C928 H952 0.930 . S
H929 C924 0.931 . S
Co930 N927 2.135 1_554 S
Co930 N933 2.121 . S
Co930 O938 2.056 . S
Co930 O941 2.039 . S
Co930 N944 2.140 . S
C931 O932 1.228 . S
C931 O941 1.265 . S
O932 C931 1.228 . S
N933 Co930 2.121 . S
N933 C935 1.375 . S
N933 C936 1.313 . S
C934 C935 1.338 . S
C934 N937 1.377 . S
C934 H954 0.930 . S
C935 N933 1.375 . S
C935 C934 1.338 . S
C935 H939 0.931 . S
C936 N933 1.313 . S
C936 N937 1.344 . S
C936 H940 0.930 . S
N937 C934 1.377 . S
N937 C936 1.344 . S
O938 Co930 2.056 . S
O938 C942 1.254 . S
H939 C935 0.931 . S
H940 C936 0.930 . S
O941 Co930 2.039 . S
O941 C931 1.265 . S
C942 O938 1.254 . S
C942 O943 1.227 . S
O943 C942 1.227 . S
N944 Co930 2.140 . S
N944 C947 1.346 1_554 S
N944 C948 1.345 . S
C945 C946 1.372 1_554 S
C945 C949 1.391 . S
C946 C945 1.372 1_556 S
C946 C947 1.372 . S
C946 H955 0.942 . S
C947 N944 1.346 1_556 S
C947 C946 1.372 . S
C947 H950 0.928 . S
C948 N944 1.345 . S
C948 C949 1.371 . S
C948 H951 0.931 . S
C949 C945 1.391 . S
C949 C948 1.371 . S
C949 H956 0.930 . S
H950 C947 0.928 . S
H951 C948 0.931 . S
H952 C928 0.930 . S
H953 C925 0.930 . S
H954 C934 0.930 . S
H955 C946 0.942 . S
H956 C949 0.930 . S
C957 C958 1.351 . S
C957 N960 1.368 . S
C957 H962 0.931 . S
C958 C957 1.351 . S
C958 N959 1.373 . S
C958 H986 0.930 . S
N959 C958 1.373 . S
N959 C961 1.340 . S
N960 C957 1.368 . S
N960 C961 1.321 . S
N960 Co963 2.135 1_556 S
C961 N959 1.340 . S
C961 N960 1.321 . S
C961 H985 0.930 . S
H962 C957 0.931 . S
Co963 N960 2.135 1_554 S
Co963 N966 2.121 . S
Co963 O971 2.056 . S
Co963 O974 2.039 . S
Co963 N977 2.140 . S
C964 O965 1.228 . S
C964 O974 1.265 . S
O965 C964 1.228 . S
N966 Co963 2.121 . S
N966 C968 1.375 . S
N966 C969 1.313 . S
C967 C968 1.338 . S
C967 N970 1.377 . S
C967 H987 0.930 . S
C968 N966 1.375 . S
C968 C967 1.338 . S
C968 H972 0.931 . S
C969 N966 1.313 . S
C969 N970 1.344 . S
C969 H973 0.930 . S
N970 C967 1.377 . S
N970 C969 1.344 . S
O971 Co963 2.056 . S
O971 C975 1.254 . S
H972 C968 0.931 . S
H973 C969 0.930 . S
O974 Co963 2.039 . S
O974 C964 1.265 . S
C975 O971 1.254 . S
C975 O976 1.227 . S
O976 C975 1.227 . S
N977 Co963 2.140 . S
N977 C980 1.346 1_554 S
N977 C981 1.345 . S
C978 C979 1.373 1_554 S
C978 C982 1.391 . S
C979 C978 1.373 1_556 S
C979 C980 1.372 . S
C979 H988 0.942 . S
C980 N977 1.346 1_556 S
C980 C979 1.372 . S
C980 H983 0.928 . S
C981 N977 1.345 . S
C981 C982 1.371 . S
C981 H984 0.931 . S
C982 C978 1.391 . S
C982 C981 1.371 . S
C982 H989 0.930 . S
H983 C980 0.928 . S
H984 C981 0.931 . S
H985 C961 0.930 . S
H986 C958 0.930 . S
H987 C967 0.930 . S
H988 C979 0.942 . S
H989 C982 0.930 . S
C990 C991 1.351 . S
C990 N993 1.368 . S
C990 H995 0.931 . S
C991 C990 1.351 . S
C991 N992 1.373 . S
C991 H1019 0.930 . S
N992 C991 1.373 . S
N992 C994 1.340 . S
N993 C990 1.368 . S
N993 C994 1.321 . S
N993 Co996 2.135 . S
C994 N992 1.340 . S
C994 N993 1.321 . S
C994 H1018 0.930 . S
H995 C990 0.931 . S
Co996 N993 2.135 . S
Co996 N999 2.121 . S
Co996 O1004 2.055 . S
Co996 O1007 2.039 . S
Co996 N1010 2.140 . S
C997 O998 1.227 . S
C997 O1007 1.265 . S
O998 C997 1.227 . S
N999 Co996 2.121 . S
N999 C1001 1.375 . S
N999 C1002 1.313 . S
C1000 C1001 1.338 . S
C1000 N1003 1.377 . S
C1000 H1020 0.930 . S
C1001 N999 1.375 . S
C1001 C1000 1.338 . S
C1001 H1005 0.931 . S
C1002 N999 1.313 . S
C1002 N1003 1.344 . S
C1002 H1006 0.930 . S
N1003 C1000 1.377 . S
N1003 C1002 1.344 . S
O1004 Co996 2.055 . S
O1004 C1008 1.253 . S
H1005 C1001 0.931 . S
H1006 C1002 0.930 . S
O1007 Co996 2.039 . S
O1007 C997 1.265 . S
C1008 O1004 1.253 . S
C1008 O1009 1.227 . S
O1009 C1008 1.227 . S
N1010 Co996 2.140 . S
N1010 C1013 1.346 . S
N1010 C1014 1.345 . S
C1011 C1012 1.387 . S
C1011 C1015 1.391 . S
C1012 C1011 1.387 . S
C1012 C1013 1.369 . S
C1012 H1021 0.929 . S
C1013 N1010 1.346 . S
C1013 C1012 1.369 . S
C1013 H1016 0.928 . S
C1014 N1010 1.345 . S
C1014 C1015 1.371 . S
C1014 H1017 0.931 . S
C1015 C1011 1.391 . S
C1015 C1014 1.371 . S
C1015 H1022 0.930 . S
H1016 C1013 0.928 . S
H1017 C1014 0.931 . S
H1018 C994 0.930 . S
H1019 C991 0.930 . S
H1020 C1000 0.930 . S
H1021 C1012 0.929 . S
H1022 C1015 0.930 . S
C1023 C1024 1.351 . S
C1023 N1026 1.368 . S
C1023 H1028 0.931 . S
C1024 C1023 1.351 . S
C1024 N1025 1.373 . S
C1024 H1052 0.930 . S
N1025 C1024 1.373 . S
N1025 C1027 1.340 . S
N1026 C1023 1.368 . S
N1026 C1027 1.321 . S
N1026 Co1029 2.135 . S
C1027 N1025 1.340 . S
C1027 N1026 1.321 . S
C1027 H1051 0.930 . S
H1028 C1023 0.931 . S
Co1029 N1026 2.135 . S
Co1029 N1032 2.121 . S
Co1029 O1037 2.055 . S
Co1029 O1040 2.039 . S
Co1029 N1043 2.140 . S
C1030 O1031 1.227 . S
C1030 O1040 1.265 . S
O1031 C1030 1.227 . S
N1032 Co1029 2.121 . S
N1032 C1034 1.375 . S
N1032 C1035 1.313 . S
C1033 C1034 1.338 . S
C1033 N1036 1.377 . S
C1033 H1053 0.930 . S
C1034 N1032 1.375 . S
C1034 C1033 1.338 . S
C1034 H1038 0.931 . S
C1035 N1032 1.313 . S
C1035 N1036 1.344 . S
C1035 H1039 0.930 . S
N1036 C1033 1.377 . S
N1036 C1035 1.344 . S
O1037 Co1029 2.055 . S
O1037 C1041 1.253 . S
H1038 C1034 0.931 . S
H1039 C1035 0.930 . S
O1040 Co1029 2.039 . S
O1040 C1030 1.265 . S
C1041 O1037 1.253 . S
C1041 O1042 1.227 . S
O1042 C1041 1.227 . S
N1043 Co1029 2.140 . S
N1043 C1046 1.346 . S
N1043 C1047 1.345 . S
C1044 C1045 1.387 . S
C1044 C1048 1.391 . S
C1045 C1044 1.387 . S
C1045 C1046 1.369 . S
C1045 H1054 0.929 . S
C1046 N1043 1.346 . S
C1046 C1045 1.369 . S
C1046 H1049 0.928 . S
C1047 N1043 1.345 . S
C1047 C1048 1.371 . S
C1047 H1050 0.931 . S
C1048 C1044 1.391 . S
C1048 C1047 1.371 . S
C1048 H1055 0.930 . S
H1049 C1046 0.928 . S
H1050 C1047 0.931 . S
H1051 C1027 0.930 . S
H1052 C1024 0.930 . S
H1053 C1033 0.930 . S
H1054 C1045 0.929 . S
H1055 C1048 0.930 . S
N68 N2 2.781 . S
N35 N101 2.782 . S
N200 N134 2.782 1_545 S
N233 N167 2.782 1_565 S
N266 N332 2.781 . S
N299 N365 2.782 . S
N464 N398 2.782 . S
N497 N431 2.782 . S
N596 N530 2.781 . S
N629 N563 2.781 . S
N662 N728 2.782 1_565 S
N761 N695 2.782 1_565 S
N794 N860 2.782 . S
N827 N893 2.781 . S
N992 N926 2.781 . S
N959 N1025 2.781 . S
N13 N343 1.487 . S
N376 N46 1.486 . S
N79 N277 1.487 . S
N112 N310 1.486 . S
N145 N475 1.487 . S
N508 N178 1.487 . S
N409 N211 1.487 . S
N244 N442 1.487 . S
N871 N541 1.487 . S
N574 N904 1.487 . S
N607 N805 1.487 . S
N838 N640 1.487 . S
N673 N1003 1.487 . S
N706 N1036 1.486 . S
N739 N937 1.487 . S
N772 N970 1.486 . S
C7 C40 2.098 . S
C73 C106 2.099 . S
C172 C139 2.099 . S
C205 C238 2.099 . S
C271 C304 2.098 . S
C370 C337 2.100 . S
C436 C403 2.099 . S
C469 C502 2.099 . S
C535 C568 2.098 . S
C634 C601 2.099 . S
C667 C700 2.100 . S
C766 C733 2.099 . S
C799 C832 2.099 . S
C898 C865 2.098 . S
C964 C931 2.098 . S
C997 C1030 2.098 . S
C18 C150 2.830 1_455 S
C975 C51 2.830 . S
C84 C480 2.831 1_455 S
C117 C777 2.830 . S
C183 C843 2.830 . S
C216 C348 2.831 1_655 S
C645 C249 2.830 . S
C414 C282 2.832 1_655 S
C711 C315 2.830 . S
C1041 C381 2.833 . S
C579 C447 2.830 . S
C513 C909 2.832 . S
C546 C678 2.830 . S
C612 C1008 2.830 . S
C876 C744 2.830 . S
C942 C810 2.833 . S
C153 C21 0.964 1_454 S
C54 C978 0.966 1_556 S
C483 C87 0.988 1_455 S
C120 C780 0.990 . S
C846 C186 0.966 1_556 S
C219 C351 0.987 1_455 S
C252 C648 0.989 . S
C285 C417 0.988 1_655 S
C318 C714 0.989 . S
C1044 C384 0.990 . S
C582 C450 0.989 . S
C516 C912 0.990 . S
C549 C681 0.989 . S
C615 C1011 0.989 . S
C747 C879 0.989 . S
C813 C945 0.966 1_556 S
