# Generated by pormake.
# Topology sof, (5)-cn, num edge types: 1
# Building blocks:
#     Node 0, Type 0, BuildingBlock: XOMCOT_clean_sbu_0, # of connection points: 5
#     Node 1, Type 0, BuildingBlock: XOMCOT_clean_sbu_0, # of connection points: 5
#     Node 2, Type 0, BuildingBlock: XOMCOT_clean_sbu_0, # of connection points: 5
#     Node 3, Type 0, BuildingBlock: XOMCOT_clean_sbu_0, # of connection points: 5
#     Node 4, Type 0, BuildingBlock: XOMCOT_clean_sbu_0, # of connection points: 5
#     Node 5, Type 0, BuildingBlock: XOMCOT_clean_sbu_0, # of connection points: 5
#     Node 6, Type 0, BuildingBlock: XOMCOT_clean_sbu_0, # of connection points: 5
#     Node 7, Type 0, BuildingBlock: XOMCOT_clean_sbu_0, # of connection points: 5
#     Edge 8, Type (0, 0), BuildingBlock: MIFKUJ_clean_linker_0, # of connection points: 2
#     Edge 9, Type (0, 0), BuildingBlock: MIFKUJ_clean_linker_0, # of connection points: 2
#     Edge 10, Type (0, 0), BuildingBlock: MIFKUJ_clean_linker_0, # of connection points: 2
#     Edge 11, Type (0, 0), BuildingBlock: MIFKUJ_clean_linker_0, # of connection points: 2
#     Edge 12, Type (0, 0), BuildingBlock: MIFKUJ_clean_linker_0, # of connection points: 2
#     Edge 13, Type (0, 0), BuildingBlock: MIFKUJ_clean_linker_0, # of connection points: 2
#     Edge 14, Type (0, 0), BuildingBlock: MIFKUJ_clean_linker_0, # of connection points: 2
#     Edge 15, Type (0, 0), BuildingBlock: MIFKUJ_clean_linker_0, # of connection points: 2
#     Edge 16, Type (0, 0), BuildingBlock: MIFKUJ_clean_linker_0, # of connection points: 2
#     Edge 17, Type (0, 0), BuildingBlock: MIFKUJ_clean_linker_0, # of connection points: 2
#     Edge 18, Type (0, 0), BuildingBlock: MIFKUJ_clean_linker_0, # of connection points: 2
#     Edge 19, Type (0, 0), BuildingBlock: MIFKUJ_clean_linker_0, # of connection points: 2
#     Edge 20, Type (0, 0), BuildingBlock: MIFKUJ_clean_linker_0, # of connection points: 2
#     Edge 21, Type (0, 0), BuildingBlock: MIFKUJ_clean_linker_0, # of connection points: 2
#     Edge 22, Type (0, 0), BuildingBlock: MIFKUJ_clean_linker_0, # of connection points: 2
#     Edge 23, Type (0, 0), BuildingBlock: MIFKUJ_clean_linker_0, # of connection points: 2
#     Edge 24, Type (0, 0), BuildingBlock: MIFKUJ_clean_linker_0, # of connection points: 2
#     Edge 25, Type (0, 0), BuildingBlock: MIFKUJ_clean_linker_0, # of connection points: 2
#     Edge 26, Type (0, 0), BuildingBlock: MIFKUJ_clean_linker_0, # of connection points: 2
#     Edge 27, Type (0, 0), BuildingBlock: MIFKUJ_clean_linker_0, # of connection points: 2
# Relax obj value: 0.129
# Max RMSD: 0.157
# Mean RMSD: 0.157
data_MOF--net-sof--node1-XOMCOT_clean_sbu_0--edge1-MIFKUJ_clean_linker_0
_symmetry_space_group_name_H-M    P1
_symmetry_Int_Tables_number       1
_symmetry_cell_setting            triclinic
loop_
_symmetry_equiv_pos_as_xyz
'x, y, z'
_cell_length_a     74.687184
_cell_length_b     22.070567
_cell_length_c     60.225548
_cell_angle_alpha  89.998736
_cell_angle_beta   89.959048
_cell_angle_gamma 89.928084
loop_
_atom_site_label
_atom_site_type_symbol
_atom_site_fract_x
_atom_site_fract_y
_atom_site_fract_z
_atom_type_partial_charge
Co0 Co 0.09249 0.10333 0.0931 0.0
C1 C 0.09132 0.97019 0.09788 0.0
C2 C 0.07868 0.01494 0.12542 0.0
C3 C 0.0774 0.95325 0.12851 0.0
N4 N 0.0875 0.02536 0.1063 0.0
N5 N 0.08532 0.9252 0.11115 0.0
H6 H 0.0984 0.96328 0.08239 0.0
H7 H 0.07329 0.04968 0.13619 0.0
C8 C 0.10635 0.17297 0.13193 0.0
O9 O 0.12037 0.18839 0.12002 0.0
N10 N 0.09681 0.18273 0.0797 0.0
C11 C 0.10131 0.19505 0.05845 0.0
C12 C 0.10112 0.25673 0.05524 0.0
C13 C 0.09299 0.23756 0.08865 0.0
N14 N 0.09594 0.28359 0.07428 0.0
C15 C 0.12717 0.08209 0.07363 0.0
C16 C 0.14409 0.04821 0.11249 0.0
C17 C 0.15418 0.05236 0.09292 0.0
C18 C 0.14538 0.06811 0.07321 0.0
C19 C 0.12587 0.06227 0.11211 0.0
N20 N 0.11786 0.08268 0.09311 0.0
H21 H 0.12054 0.09073 0.05815 0.0
H22 H 0.11824 0.05752 0.12725 0.0
H23 H 0.1036 0.16199 0.04557 0.0
H24 H 0.08731 0.24372 0.105 0.0
O25 O 0.08614 0.07089 0.06454 0.0
O26 O 0.06725 0.11466 0.08816 0.0
O27 O 0.094 0.14001 0.12366 0.0
C28 C 0.06983 0.08729 0.06925 0.0
H29 H 0.07074 0.93081 0.14218 0.0
H30 H 0.10431 0.27976 0.03988 0.0
H31 H 0.15021 0.03515 0.12807 0.0
H32 H 0.15242 0.06869 0.05748 0.0
Co33 Co 0.40444 0.87485 0.08648 0.0
C34 C 0.40639 0.00838 0.09111 0.0
C35 C 0.42094 0.96252 0.11687 0.0
C36 C 0.42306 0.02404 0.11961 0.0
N37 N 0.41042 0.95282 0.0991 0.0
N38 N 0.41392 0.05294 0.1034 0.0
H39 H 0.39821 0.01581 0.07654 0.0
H40 H 0.42705 0.9273 0.12679 0.0
C41 C 0.39286 0.8002 0.12517 0.0
O42 O 0.37966 0.77953 0.1129 0.0
N43 N 0.39915 0.79555 0.07371 0.0
C44 C 0.38963 0.78172 0.05536 0.0
C45 C 0.39022 0.72007 0.05202 0.0
C46 C 0.40601 0.74196 0.08062 0.0
N47 N 0.40044 0.69493 0.068 0.0
C48 C 0.37008 0.90848 0.06881 0.0
C49 C 0.35337 0.92681 0.10919 0.0
C50 C 0.34336 0.93268 0.08967 0.0
C51 C 0.35204 0.92491 0.06925 0.0
C52 C 0.37142 0.91091 0.10794 0.0
N53 N 0.37925 0.89756 0.08799 0.0
H54 H 0.37673 0.90605 0.05297 0.0
H55 H 0.37911 0.91038 0.1231 0.0
H56 H 0.38301 0.81342 0.04457 0.0
H57 H 0.41501 0.73764 0.0946 0.0
O58 O 0.40993 0.90561 0.0574 0.0
O59 O 0.42941 0.86159 0.08012 0.0
O60 O 0.40386 0.83892 0.11725 0.0
C61 C 0.42629 0.88844 0.06125 0.0
H62 H 0.43119 0.04565 0.13218 0.0
H63 H 0.38344 0.69571 0.0389 0.0
H64 H 0.34739 0.93556 0.12527 0.0
H65 H 0.34494 0.93105 0.05373 0.0
Co66 Co 0.08844 0.40541 0.4021 0.0
C67 C 0.08572 0.54142 0.39793 0.0
C68 C 0.06624 0.49375 0.37859 0.0
C69 C 0.06365 0.55491 0.37556 0.0
N70 N 0.08028 0.48502 0.39232 0.0
N71 N 0.0759 0.58477 0.38777 0.0
H72 H 0.09656 0.55152 0.40903 0.0
H73 H 0.05841 0.4578 0.37122 0.0
C74 C 0.09451 0.40885 0.35354 0.0
O75 O 0.10067 0.46407 0.35629 0.0
N76 N 0.09581 0.32599 0.41183 0.0
C77 C 0.10674 0.31337 0.42897 0.0
C78 C 0.10839 0.25147 0.43073 0.0
C79 C 0.09086 0.27192 0.40343 0.0
N80 N 0.09838 0.22534 0.4147 0.0
C81 C 0.11973 0.46765 0.41778 0.0
C82 C 0.14369 0.41336 0.38903 0.0
C83 C 0.15001 0.45604 0.40432 0.0
C84 C 0.13781 0.48299 0.41896 0.0
C85 C 0.12549 0.39964 0.38836 0.0
N86 N 0.11356 0.42907 0.40181 0.0
H87 H 0.11075 0.48584 0.43015 0.0
H88 H 0.1212 0.3637 0.37747 0.0
H89 H 0.11305 0.34686 0.43946 0.0
H90 H 0.08168 0.26696 0.38966 0.0
O91 O 0.0827 0.42672 0.43225 0.0
O92 O 0.06384 0.38493 0.40827 0.0
O93 O 0.08943 0.37755 0.37024 0.0
C94 C 0.06668 0.40692 0.42801 0.0
H95 H 0.05336 0.57577 0.36548 0.0
H96 H 0.1165 0.22772 0.44281 0.0
H97 H 0.15274 0.39028 0.37779 0.0
H98 H 0.14228 0.51414 0.4317 0.0
Co99 Co 0.40136 0.60263 0.39962 0.0
C100 C 0.40043 0.46702 0.3935 0.0
C101 C 0.41848 0.51232 0.37141 0.0
C102 C 0.42011 0.45098 0.36807 0.0
N103 N 0.40601 0.5227 0.38719 0.0
N104 N 0.40874 0.42268 0.38197 0.0
H105 H 0.39127 0.45801 0.40688 0.0
H106 H 0.42621 0.54721 0.36322 0.0
C107 C 0.39116 0.60972 0.35239 0.0
O108 O 0.38233 0.55913 0.35592 0.0
N109 N 0.39755 0.68228 0.41193 0.0
C110 C 0.39173 0.69491 0.4326 0.0
C111 C 0.39123 0.75683 0.43523 0.0
C112 C 0.40037 0.7364 0.40215 0.0
N113 N 0.3966 0.78264 0.41607 0.0
C114 C 0.36916 0.5489 0.41679 0.0
C115 C 0.34562 0.62002 0.39284 0.0
C116 C 0.33878 0.57466 0.4067 0.0
C117 C 0.35078 0.53959 0.41911 0.0
C118 C 0.36408 0.6275 0.39097 0.0
N119 N 0.37566 0.58947 0.40172 0.0
H120 H 0.3781 0.5245 0.42761 0.0
H121 H 0.36901 0.66458 0.38102 0.0
H122 H 0.38809 0.66142 0.4449 0.0
H123 H 0.4053 0.74197 0.38538 0.0
O124 O 0.40821 0.57312 0.42842 0.0
O125 O 0.42688 0.61205 0.40355 0.0
O126 O 0.3993 0.63572 0.36845 0.0
C127 C 0.42451 0.58738 0.42298 0.0
H128 H 0.4291 0.42886 0.35652 0.0
H129 H 0.38698 0.78109 0.44995 0.0
H130 H 0.33681 0.64926 0.38339 0.0
H131 H 0.34601 0.50618 0.43088 0.0
Co132 Co 0.90066 0.90619 0.90603 0.0
C133 C 0.90243 0.04206 0.90121 0.0
C134 C 0.92026 0.99467 0.87941 0.0
C135 C 0.92258 0.05583 0.87623 0.0
N136 N 0.9074 0.98576 0.89481 0.0
N137 N 0.91134 0.08562 0.88994 0.0
H138 H 0.89312 0.05178 0.91434 0.0
H139 H 0.92754 0.95885 0.8711 0.0
C140 C 0.89204 0.90426 0.85811 0.0
O141 O 0.88457 0.95758 0.86116 0.0
N142 N 0.89469 0.82682 0.91707 0.0
C143 C 0.88468 0.81431 0.9351 0.0
C144 C 0.88315 0.75241 0.93703 0.0
C145 C 0.8993 0.77273 0.90838 0.0
N146 N 0.89234 0.72638 0.92023 0.0
C147 C 0.86915 0.96655 0.92249 0.0
C148 C 0.84495 0.9051 0.89616 0.0
C149 C 0.83862 0.9499 0.91065 0.0
C150 C 0.85095 0.98021 0.92418 0.0
C151 C 0.86324 0.89306 0.895 0.0
N152 N 0.87525 0.92628 0.90703 0.0
H153 H 0.87825 0.9871 0.93415 0.0
H154 H 0.86763 0.85586 0.88472 0.0
H155 H 0.87884 0.84791 0.94599 0.0
H156 H 0.9073 0.76751 0.89352 0.0
O157 O 0.90732 0.93081 0.93555 0.0
O158 O 0.92569 0.88947 0.9108 0.0
O159 O 0.89885 0.87576 0.87454 0.0
C160 C 0.92338 0.91254 0.93049 0.0
H161 H 0.93181 0.07661 0.86467 0.0
H162 H 0.876 0.72842 0.94995 0.0
H163 H 0.83587 0.8794 0.8858 0.0
H164 H 0.84653 0.01295 0.93642 0.0
Co165 Co 0.58926 0.14124 0.9067 0.0
C166 C 0.58608 1.00538 0.90346 0.0
C167 C 0.56831 0.05288 0.88167 0.0
C168 C 0.56538 0.99179 0.87923 0.0
N169 N 0.58155 0.06162 0.89655 0.0
N170 N 0.5766 0.96185 0.89292 0.0
H171 H 0.59553 0.99585 0.91642 0.0
H172 H 0.56121 0.08879 0.87318 0.0
C173 C 0.59678 0.13844 0.85849 0.0
O174 O 0.60386 0.08468 0.86191 0.0
N175 N 0.5961 0.22066 0.91676 0.0
C176 C 0.60653 0.23355 0.93435 0.0
C177 C 0.60802 0.29549 0.9361 0.0
C178 C 0.59122 0.27451 0.90815 0.0
N179 N 0.59838 0.32118 0.91963 0.0
C180 C 0.62055 0.07866 0.92262 0.0
C181 C 0.64476 0.13593 0.89502 0.0
C182 C 0.65094 0.09124 0.90963 0.0
C183 C 0.63863 0.063 0.92377 0.0
C184 C 0.62655 0.14976 0.89431 0.0
N185 N 0.61449 0.11864 0.90704 0.0
H186 H 0.61154 0.05995 0.9348 0.0
H187 H 0.62228 0.1867 0.88383 0.0
H188 H 0.61255 0.2002 0.9452 0.0
H189 H 0.5827 0.27927 0.89372 0.0
O190 O 0.58304 0.11938 0.93667 0.0
O191 O 0.56447 0.16054 0.91215 0.0
O192 O 0.59066 0.16914 0.87483 0.0
C193 C 0.567 0.13831 0.93193 0.0
H194 H 0.5558 0.97125 0.86808 0.0
H195 H 0.61532 0.31969 0.94882 0.0
H196 H 0.6539 0.16016 0.88425 0.0
H197 H 0.64302 0.03048 0.9361 0.0
Co198 Co 0.90228 0.60683 0.59666 0.0
C199 C 0.903 0.47356 0.60185 0.0
C200 C 0.91565 0.51845 0.62929 0.0
C201 C 0.91705 0.45679 0.63235 0.0
N202 N 0.9068 0.52883 0.61022 0.0
N203 N 0.90918 0.42841 0.61503 0.0
H204 H 0.89635 0.46684 0.5861 0.0
H205 H 0.92103 0.5532 0.64002 0.0
C206 C 0.88923 0.68198 0.63449 0.0
O207 O 0.87622 0.70116 0.62158 0.0
N208 N 0.89844 0.68601 0.58274 0.0
C209 C 0.89279 0.6976 0.56187 0.0
C210 C 0.89309 0.75909 0.55822 0.0
C211 C 0.9032 0.74098 0.59085 0.0
N212 N 0.89949 0.78655 0.57654 0.0
C213 C 0.86746 0.58467 0.57767 0.0
C214 C 0.8504 0.56019 0.6174 0.0
C215 C 0.84033 0.56159 0.59782 0.0
C216 C 0.84914 0.57241 0.57768 0.0
C217 C 0.8687 0.57212 0.61657 0.0
N218 N 0.8768 0.5883 0.59708 0.0
H219 H 0.87413 0.58971 0.56198 0.0
H220 H 0.87636 0.56847 0.63171 0.0
H221 H 0.88956 0.66415 0.54949 0.0
H222 H 0.90932 0.74762 0.60692 0.0
O223 O 0.90826 0.57293 0.56822 0.0
O224 O 0.92759 0.61584 0.59142 0.0
O225 O 0.90093 0.64475 0.6271 0.0
C226 C 0.92469 0.58818 0.57265 0.0
H227 H 0.92348 0.43481 0.64628 0.0
H228 H 0.88942 0.78159 0.54291 0.0
H229 H 0.84423 0.54923 0.63318 0.0
H230 H 0.84193 0.57194 0.56208 0.0
Co231 Co 0.58983 0.40046 0.59199 0.0
C232 C 0.58741 0.53364 0.59626 0.0
C233 C 0.57184 0.48819 0.62119 0.0
C234 C 0.5698 0.54981 0.62387 0.0
N235 N 0.5829 0.47826 0.60393 0.0
N236 N 0.57958 0.57842 0.60818 0.0
H237 H 0.59596 0.54078 0.58199 0.0
H238 H 0.56558 0.45309 0.63102 0.0
C239 C 0.60205 0.33191 0.63192 0.0
O240 O 0.61626 0.31493 0.62062 0.0
N241 N 0.59624 0.3212 0.57986 0.0
C242 C 0.60501 0.30829 0.56083 0.0
C243 C 0.60581 0.24646 0.55817 0.0
C244 C 0.59101 0.26658 0.5878 0.0
N245 N 0.59709 0.22017 0.57521 0.0
C246 C 0.6242 0.4345 0.57463 0.0
C247 C 0.64006 0.46006 0.61496 0.0
C248 C 0.6505 0.4622 0.59563 0.0
C249 C 0.64216 0.45124 0.57519 0.0
C250 C 0.62207 0.44349 0.61356 0.0
N251 N 0.61474 0.42615 0.59376 0.0
H252 H 0.61783 0.42986 0.55872 0.0
H253 H 0.61408 0.44444 0.6285 0.0
H254 H 0.60986 0.3407 0.54893 0.0
H255 H 0.58297 0.26088 0.6026 0.0
O256 O 0.58444 0.42937 0.56262 0.0
O257 O 0.56513 0.38378 0.58513 0.0
O258 O 0.59028 0.36617 0.62299 0.0
C259 C 0.56825 0.41004 0.56615 0.0
H260 H 0.56181 0.57174 0.63654 0.0
H261 H 0.61187 0.22276 0.54433 0.0
H262 H 0.64575 0.47 0.63108 0.0
H263 H 0.64941 0.45613 0.55971 0.0
H264 H 0.18023 0.11301 0.07013 0.0
H265 H 0.21238 0.09271 0.06988 0.0
H266 H 0.20468 0.94527 0.11589 0.0
H267 H 0.1724 0.96439 0.11591 0.0
H268 H 0.23297 0.02066 0.12742 0.0
H269 H 0.21172 0.91398 0.06295 0.0
H270 H 0.19562 0.90361 0.02743 0.0
H271 H 0.22945 0.03885 -0.00195 0.0
H272 H 0.2456 0.05066 0.03351 0.0
H273 H 0.31812 0.88216 0.11653 0.0
H274 H 0.28605 0.90417 0.11754 0.0
H275 H 0.29295 0.03849 0.06616 0.0
H276 H 0.32503 0.01586 0.06484 0.0
H277 H 0.2649 0.97058 0.05749 0.0
H278 H 0.28627 0.07833 0.12113 0.0
H279 H 0.30241 0.09143 0.15651 0.0
H280 H 0.26855 0.95869 0.18735 0.0
H281 H 0.25237 0.94416 0.15206 0.0
C282 C 0.18533 0.07578 0.08 0.0
C283 C 0.17373 0.0401 0.09295 0.0
C284 C 0.20371 0.06445 0.07991 0.0
C285 C 0.21084 0.01722 0.09273 0.0
C286 C 0.19939 0.98202 0.10592 0.0
C287 C 0.18097 0.99316 0.10596 0.0
C288 C 0.23028 1.00458 0.09232 0.0
C289 C 0.23995 0.00891 0.11221 0.0
C290 C 0.23938 0.99092 0.07233 0.0
C291 C 0.22976 0.98361 0.05095 0.0
C292 C 0.21564 0.94186 0.04897 0.0
C293 C 0.20651 0.93566 0.02884 0.0
C294 C 0.21148 0.97066 0.01051 0.0
C295 C 0.2256 0.01182 0.01227 0.0
C296 C 0.23476 0.01825 0.03237 0.0
C297 C 0.31281 0.91678 0.1056 0.0
C298 C 0.32404 0.94741 0.09064 0.0
C299 C 0.2945 0.92936 0.10621 0.0
C300 C 0.28714 0.97353 0.09212 0.0
C301 C 0.29835 1.0042 0.07716 0.0
C302 C 0.31664 0.99122 0.0764 0.0
C303 C 0.26768 0.98668 0.09262 0.0
C304 C 0.25798 0.98242 0.07273 0.0
C305 C 0.25858 1.00085 0.11259 0.0
C306 C 0.26822 0.00975 0.13389 0.0
C307 C 0.28235 0.0516 0.13541 0.0
C308 C 0.29149 0.05934 0.15546 0.0
C309 C 0.28654 0.0258 0.17415 0.0
C310 C 0.27239 0.98458 0.17285 0.0
C311 C 0.26322 0.97662 0.15284 0.0
H312 H 0.29364 0.03185 0.18965 0.0
H313 H 0.2044 0.9658 0.99494 0.0
H314 H 0.31212 0.65942 0.40989 0.0
H315 H 0.27979 0.64152 0.41057 0.0
H316 H 0.28907 0.44867 0.40797 0.0
H317 H 0.32139 0.46625 0.40681 0.0
H318 H 0.26406 0.4862 0.37784 0.0
H319 H 0.27634 0.51389 0.45565 0.0
H320 H 0.28806 0.56777 0.48841 0.0
H321 H 0.25328 0.71829 0.47482 0.0
H322 H 0.24152 0.66563 0.44177 0.0
H323 H 0.17806 0.37689 0.40316 0.0
H324 H 0.20996 0.40063 0.40436 0.0
H325 H 0.19754 0.59108 0.40972 0.0
H326 H 0.1655 0.56753 0.40861 0.0
H327 H 0.22394 0.55911 0.43791 0.0
H328 H 0.21125 0.53255 0.36075 0.0
H329 H 0.19943 0.48044 0.32765 0.0
H330 H 0.23499 0.33075 0.33929 0.0
H331 H 0.24683 0.38158 0.37266 0.0
C332 C 0.30725 0.61323 0.40942 0.0
C333 C 0.31925 0.56419 0.40826 0.0
C334 C 0.28881 0.60309 0.40999 0.0
C335 C 0.28209 0.54378 0.40946 0.0
C336 C 0.29403 0.49476 0.40844 0.0
C337 C 0.31246 0.50485 0.40795 0.0
C338 C 0.26258 0.53274 0.40922 0.0
C339 C 0.2553 0.50142 0.39111 0.0
C340 C 0.25116 0.55441 0.42621 0.0
C341 C 0.25819 0.58607 0.4461 0.0
C342 C 0.2713 0.55869 0.45953 0.0
C343 C 0.27793 0.58897 0.47818 0.0
C344 C 0.27146 0.64649 0.48366 0.0
C345 C 0.2583 0.67378 0.47053 0.0
C346 C 0.25164 0.64371 0.45185 0.0
C347 C 0.18213 0.42386 0.40443 0.0
C348 C 0.16932 0.47044 0.40557 0.0
C349 C 0.20034 0.43734 0.40515 0.0
C350 C 0.20609 0.49767 0.40678 0.0
C351 C 0.19335 0.54424 0.40841 0.0
C352 C 0.17509 0.53074 0.4078 0.0
C353 C 0.22544 0.5119 0.40665 0.0
C354 C 0.23269 0.54398 0.42463 0.0
C355 C 0.23684 0.49125 0.38947 0.0
C356 C 0.22981 0.46066 0.36933 0.0
C357 C 0.21645 0.48831 0.35635 0.0
C358 C 0.20976 0.45904 0.33753 0.0
C359 C 0.21643 0.40226 0.3314 0.0
C360 C 0.22982 0.3747 0.34407 0.0
C361 C 0.23654 0.40375 0.36293 0.0
H362 H 0.21123 0.37967 0.31682 0.0
H363 H 0.2766 0.66985 0.4981 0.0
H364 H 0.81067 0.87 0.91095 0.0
H365 H 0.7787 0.89348 0.91155 0.0
H366 H 0.79078 0.08447 0.91406 0.0
H367 H 0.82283 0.06131 0.9134 0.0
H368 H 0.76433 0.05504 0.94266 0.0
H369 H 0.77797 0.01974 0.86598 0.0
H370 H 0.79008 0.96275 0.83411 0.0
H371 H 0.75365 0.81684 0.84742 0.0
H372 H 0.74149 0.87259 0.87961 0.0
H373 H 0.67937 0.16889 0.91019 0.0
H374 H 0.71121 0.14295 0.91132 0.0
H375 H 0.69785 0.95288 0.91266 0.0
H376 H 0.66592 0.97853 0.91125 0.0
H377 H 0.72476 0.98051 0.88241 0.0
H378 H 0.71088 0.01818 0.95901 0.0
H379 H 0.69895 0.0767 0.99061 0.0
H380 H 0.73596 0.22056 0.97676 0.0
H381 H 0.74795 0.16324 0.94486 0.0
C382 C 0.80652 0.91701 0.91149 0.0
C383 C 0.81925 0.96388 0.91194 0.0
C384 C 0.78826 0.93033 0.91188 0.0
C385 C 0.7824 0.99072 0.91254 0.0
C386 C 0.79505 0.03756 0.91353 0.0
C387 C 0.81333 0.02427 0.9132 0.0
C388 C 0.76304 1.00503 0.91199 0.0
C389 C 0.75571 0.0394 0.92935 0.0
C390 C 0.75178 0.98352 0.89483 0.0
C391 C 0.75895 0.9501 0.87535 0.0
C392 C 0.77263 0.9753 0.86222 0.0
C393 C 0.77949 0.94325 0.84408 0.0
C394 C 0.77267 0.88614 0.83878 0.0
C395 C 0.75894 0.86105 0.85157 0.0
C396 C 0.75205 0.89287 0.86976 0.0
C397 C 0.68323 0.12158 0.9106 0.0
C398 C 0.6702 0.07568 0.91062 0.0
C399 C 0.70139 0.10686 0.91141 0.0
C400 C 0.70683 0.04604 0.91224 0.0
C401 C 0.69387 1.00008 0.91208 0.0
C402 C 0.67569 0.01478 0.91143 0.0
C403 C 0.72607 0.03052 0.91307 0.0
C404 C 0.73338 0.99599 0.89574 0.0
C405 C 0.73733 0.05216 0.93019 0.0
C406 C 0.73019 0.08665 0.94941 0.0
C407 C 0.71637 0.06251 0.96259 0.0
C408 C 0.70962 0.09543 0.98057 0.0
C409 C 0.71666 0.15238 0.98566 0.0
C410 C 0.7305 0.17647 0.97279 0.0
C411 C 0.73729 0.14376 0.95476 0.0
H412 H 0.71141 0.17779 -0.00041 0.0
H413 H 0.77801 0.86139 0.82474 0.0
H414 H 0.67703 0.40877 0.57144 0.0
H415 H 0.7091 0.42812 0.5732 0.0
H416 H 0.70036 0.56148 0.62447 0.0
H417 H 0.66804 0.54429 0.62212 0.0
H418 H 0.72419 0.601 0.59456 0.0
H419 H 0.7161 0.42127 0.63744 0.0
H420 H 0.70541 0.31792 0.64547 0.0
H421 H 0.73658 0.24842 0.5912 0.0
H422 H 0.74727 0.35153 0.58263 0.0
H423 H 0.81617 0.61159 0.62636 0.0
H424 H 0.78372 0.59604 0.62716 0.0
H425 H 0.78795 0.47386 0.57148 0.0
H426 H 0.82044 0.48879 0.57072 0.0
H427 H 0.76644 0.43001 0.60589 0.0
H428 H 0.77355 0.61222 0.56265 0.0
H429 H 0.78425 0.71601 0.55543 0.0
H430 H 0.75494 0.78106 0.61199 0.0
H431 H 0.74427 0.67741 0.61975 0.0
C432 C 0.68187 0.44283 0.58289 0.0
C433 C 0.66997 0.47496 0.59666 0.0
C434 C 0.70024 0.4533 0.58406 0.0
C435 C 0.70712 0.49549 0.59922 0.0
C436 C 0.6953 0.52842 0.61276 0.0
C437 C 0.67687 0.51817 0.61153 0.0
C438 C 0.72668 0.5052 0.60076 0.0
C439 C 0.73342 0.5638 0.59741 0.0
C440 C 0.7387 0.45641 0.60412 0.0
C441 C 0.73237 0.39424 0.60928 0.0
C442 C 0.72058 0.38402 0.62711 0.0
C443 C 0.71453 0.32547 0.63177 0.0
C444 C 0.72028 0.27665 0.61882 0.0
C445 C 0.73213 0.28628 0.6012 0.0
C446 C 0.7382 0.34477 0.59645 0.0
C447 C 0.81018 0.5811 0.6144 0.0
C448 C 0.82077 0.55144 0.59845 0.0
C449 C 0.79167 0.57261 0.61478 0.0
C450 C 0.78349 0.53419 0.59927 0.0
C451 C 0.79406 0.50381 0.58354 0.0
C452 C 0.81255 0.51266 0.58303 0.0
C453 C 0.76389 0.52557 0.59946 0.0
C454 C 0.75717 0.46718 0.60317 0.0
C455 C 0.7519 0.57459 0.5966 0.0
C456 C 0.75827 0.63695 0.59192 0.0
C457 C 0.76951 0.64856 0.57367 0.0
C458 C 0.77555 0.70738 0.56945 0.0
C459 C 0.77032 0.75507 0.58328 0.0
C460 C 0.759 0.74405 0.60132 0.0
C461 C 0.75295 0.68529 0.60562 0.0
H462 H 0.775 0.80059 0.57999 0.0
H463 H 0.71559 0.23135 0.62246 0.0
H464 H 0.07167 0.03217 0.02887 0.0
H465 H 0.04675 0.99995 0.00546 0.0
H466 H 0.00927 0.07429 0.05274 0.0
H467 H 0.03416 0.10632 0.0764 0.0
H468 H 0.00034 0.95919 0.03975 0.0
H469 H 0.01684 0.14691 0.00497 0.0
H470 H 0.0375 0.22019 0.98772 0.0
H471 H 0.04976 0.09211 0.93622 0.0
H472 H 0.02936 0.0177 0.95335 0.0
H473 H 0.92224 0.95901 0.97238 0.0
H474 H 0.94759 0.98309 0.99638 0.0
H475 H 0.98397 0.91118 0.9473 0.0
H476 H 0.95866 0.88744 0.92306 0.0
H477 H 0.99388 0.0225 0.96111 0.0
H478 H 0.977 0.83547 0.99515 0.0
H479 H 0.9566 0.76137 0.01239 0.0
H480 H 0.94523 0.8867 0.0651 0.0
H481 H 0.96539 0.96192 0.04801 0.0
C482 C 0.05813 0.04214 0.0342 0.0
C483 C 0.05484 0.07188 0.05443 0.0
C484 C 0.04392 0.02377 0.0208 0.0
C485 C 0.0262 0.03507 0.02735 0.0
C486 C 0.02287 0.06518 0.04744 0.0
C487 C 0.03709 0.0837 0.06086 0.0
C488 C 0.01114 0.0142 0.01342 0.0
C489 C -0.00125 0.97362 0.02264 0.0
C490 C 0.00946 0.03177 0.99094 0.0
C491 C 0.0217 0.07651 0.98057 0.0
C492 C 0.02405 0.13417 0.99007 0.0
C493 C 0.0357 0.17595 0.9803 0.0
C494 C 0.04497 0.16076 0.96092 0.0
C495 C 0.04259 0.10379 0.95125 0.0
C496 C 0.03097 0.06181 0.96097 0.0
C497 C 0.93562 0.94763 0.96681 0.0
C498 C 0.93849 0.92149 0.94583 0.0
C499 C 0.95008 0.9612 0.98058 0.0
C500 C 0.96763 0.94861 0.97365 0.0
C501 C 0.97051 0.92122 0.95293 0.0
C502 C 0.95605 0.90753 0.93915 0.0
C503 C 0.983 0.96758 0.98744 0.0
C504 C 0.99547 0.00787 0.97819 0.0
C505 C 0.98476 0.94964 0.00988 0.0
C506 C 0.97258 0.90457 0.02017 0.0
C507 C 0.97003 0.84746 0.01031 0.0
C508 C 0.95853 0.8052 0.02008 0.0
C509 C 0.94959 0.81937 0.03979 0.0
C510 C 0.95215 0.87581 0.04981 0.0
C511 C 0.96363 0.91825 0.0401 0.0
H512 H 0.9407 0.78658 0.04734 0.0
H513 H 0.05398 0.19317 0.95338 0.0
H514 H 0.46217 0.88342 0.0692 0.0
H515 H 0.48594 0.92747 0.04639 0.0
H516 H 0.44716 0.97596 0.9964 0.0
H517 H 0.42327 0.93235 0.01916 0.0
H518 H 0.48096 0.932 0.9794 0.0
H519 H 0.45659 0.07781 0.03054 0.0
H520 H 0.44688 0.10894 0.06793 0.0
H521 H 0.50077 0.09117 0.09181 0.0
H522 H 0.51074 0.05818 0.05464 0.0
H523 H 0.53137 0.1509 0.92331 0.0
H524 H 0.5066 0.11423 0.94619 0.0
H525 H 0.54381 0.06416 -0.00223 0.0
H526 H 0.5687 0.10056 0.97497 0.0
H527 H 0.51012 0.11127 0.01373 0.0
H528 H 0.53421 0.96147 0.96338 0.0
H529 H 0.54391 0.92562 0.92652 0.0
H530 H 0.49057 0.94981 0.90146 0.0
H531 H 0.48063 0.98704 0.93811 0.0
C532 C 0.45876 0.90226 0.05314 0.0
C533 C 0.44088 0.90506 0.04601 0.0
C534 C 0.47232 0.92748 0.04018 0.0
C535 C 0.46818 0.95546 0.01991 0.0
C536 C 0.45054 0.95458 0.01205 0.0
C537 C 0.43694 0.92988 0.02509 0.0
C538 C 0.48195 0.99052 0.00797 0.0
C539 C 0.4872 0.97158 0.98675 0.0
C540 C 0.49013 0.04175 0.0178 0.0
C541 C 0.48438 0.06478 0.03985 0.0
C542 C 0.46635 0.08004 0.04379 0.0
C543 C 0.46078 0.09779 0.06497 0.0
C544 C 0.47316 0.10155 0.08229 0.0
C545 C 0.49117 0.08796 0.0784 0.0
C546 C 0.4968 0.06967 0.05728 0.0
C547 C 0.53425 0.13352 0.93974 0.0
C548 C 0.55196 0.1278 0.94727 0.0
C549 C 0.52009 0.11258 0.95276 0.0
C550 C 0.52348 0.08589 0.97348 0.0
C551 C 0.54099 0.08461 0.98179 0.0
C552 C 0.55517 0.10515 0.96871 0.0
C553 C 0.50916 0.05264 0.98515 0.0
C554 C 0.50382 0.07188 0.00633 0.0
C555 C 0.50089 1.00161 0.9753 0.0
C556 C 0.50672 0.97767 0.95342 0.0
C557 C 0.52457 0.95955 0.94997 0.0
C558 C 0.53012 0.93896 0.92912 0.0
C559 C 0.51787 0.93559 0.91164 0.0
C560 C 0.50004 0.95256 0.91501 0.0
C561 C 0.49444 0.97341 0.93582 0.0
H562 H 0.52218 0.91974 0.89549 0.0
H563 H 0.46881 0.11548 0.09866 0.0
H564 H 0.06925 0.44863 0.47042 0.0
H565 H 0.04472 0.47284 0.49572 0.0
H566 H 0.00663 0.40703 0.44761 0.0
H567 H 0.03114 0.38314 0.42206 0.0
H568 H -0.00174 0.51942 0.46239 0.0
H569 H 0.01401 0.32882 0.49476 0.0
H570 H 0.03415 0.25185 0.51081 0.0
H571 H 0.04773 0.3735 0.56381 0.0
H572 H 0.02785 0.45157 0.5479 0.0
H573 H 0.92194 0.5349 0.53208 0.0
H574 H 0.94625 0.50096 0.50801 0.0
H575 H 0.98496 0.56876 0.55496 0.0
H576 H 0.96063 0.60255 0.57933 0.0
H577 H 0.99276 0.4534 0.54085 0.0
H578 H 0.97768 0.6446 0.50801 0.0
H579 H 0.95764 0.7219 0.49198 0.0
H580 H 0.94299 0.59912 0.43978 0.0
H581 H 0.96276 0.52071 0.45569 0.0
C582 C 0.05567 0.43845 0.46535 0.0
C583 C 0.05208 0.41422 0.44425 0.0
C584 C 0.04168 0.4521 0.47986 0.0
C585 C 0.02388 0.4415 0.47354 0.0
C586 C 0.02029 0.41552 0.45275 0.0
C587 C 0.0343 0.40171 0.43824 0.0
C588 C 0.00902 0.46172 0.48798 0.0
C589 C -0.00314 0.50418 0.47943 0.0
C590 C 0.00759 0.44314 0.51038 0.0
C591 C 0.01956 0.39627 0.52001 0.0
C592 C 0.02141 0.33937 0.50973 0.0
C593 C 0.03275 0.2955 0.51882 0.0
C594 C 0.04225 0.30783 0.53828 0.0
C595 C 0.04038 0.36403 0.54872 0.0
C596 C 0.02906 0.40809 0.53968 0.0
C597 C 0.93562 0.54302 0.53723 0.0
C598 C 0.93941 0.57149 0.55755 0.0
C599 C 0.94948 0.52369 0.52344 0.0
C600 C 0.96737 0.53271 0.52968 0.0
C601 C 0.97121 0.56144 0.5499 0.0
C602 C 0.95733 0.58097 0.56371 0.0
C603 C 0.98202 0.51098 0.51522 0.0
C604 C 0.99415 0.4684 0.52377 0.0
C605 C 0.98344 0.52946 0.49281 0.0
C606 C 0.97156 0.57657 0.48318 0.0
C607 C 0.97007 0.63389 0.49322 0.0
C608 C 0.95878 0.67794 0.48414 0.0
C609 C 0.94901 0.66538 0.46491 0.0
C610 C 0.95055 0.60876 0.45469 0.0
C611 C 0.9618 0.56451 0.46373 0.0
H612 H 0.94028 0.69955 0.45789 0.0
H613 H 0.05102 0.2738 0.5453 0.0
H614 H 0.42309 0.52776 0.46241 0.0
H615 H 0.44807 0.49786 0.486 0.0
H616 H 0.48502 0.58385 0.44082 0.0
H617 H 0.45999 0.6129 0.41674 0.0
H618 H 0.49657 0.47351 0.45259 0.0
H619 H 0.47463 0.64883 0.49077 0.0
H620 H 0.45193 0.71419 0.50843 0.0
H621 H 0.44054 0.57474 0.55609 0.0
H622 H 0.46301 0.50819 0.53852 0.0
H623 H 0.57108 0.46724 0.52625 0.0
H624 H 0.54684 0.49515 0.50108 0.0
H625 H 0.50872 0.40735 0.54423 0.0
H626 H 0.53292 0.37994 0.56973 0.0
H627 H 0.49819 0.52024 0.53315 0.0
H628 H 0.5202 0.34479 0.49461 0.0
H629 H 0.54309 0.28022 0.47691 0.0
H630 H 0.55467 0.42127 0.42996 0.0
H631 H 0.53201 0.48704 0.44757 0.0
C632 C 0.43651 0.54077 0.45755 0.0
C633 C 0.43961 0.57287 0.43777 0.0
C634 C 0.45077 0.52379 0.4711 0.0
C635 C 0.46837 0.53927 0.46529 0.0
C636 C 0.47152 0.5716 0.4456 0.0
C637 C 0.45723 0.58835 0.43193 0.0
C638 C 0.48347 0.52007 0.47954 0.0
C639 C 0.49709 0.48451 0.47014 0.0
C640 C 0.48388 0.53326 0.50253 0.0
C641 C 0.47041 0.57332 0.5132 0.0
C642 C 0.4672 0.63192 0.50492 0.0
C643 C 0.45438 0.66922 0.51493 0.0
C644 C 0.44477 0.64858 0.53334 0.0
C645 C 0.44799 0.59065 0.54182 0.0
C646 C 0.46077 0.55315 0.53185 0.0
C647 C 0.55757 0.45322 0.53027 0.0
C648 C 0.55386 0.42149 0.54997 0.0
C649 C 0.54375 0.46905 0.51582 0.0
C650 C 0.52602 0.45299 0.52075 0.0
C651 C 0.52233 0.42014 0.54017 0.0
C652 C 0.53616 0.40435 0.55465 0.0
C653 C 0.51123 0.47336 0.50624 0.0
C654 C 0.49768 0.50927 0.5156 0.0
C655 C 0.51093 0.46063 0.48322 0.0
C656 C 0.52452 0.42105 0.47255 0.0
C657 C 0.52772 0.36223 0.48062 0.0
C658 C 0.54064 0.32537 0.47059 0.0
C659 C 0.55036 0.34668 0.45236 0.0
C660 C 0.54714 0.40485 0.4441 0.0
C661 C 0.53425 0.44191 0.45409 0.0
H662 H 0.56035 0.31808 0.44461 0.0
H663 H 0.43485 0.67752 0.54107 0.0
H664 H 0.09209 0.46876 0.31436 0.0
H665 H 0.0926 0.4258 0.27704 0.0
H666 H 0.09841 0.24645 0.30485 0.0
H667 H 0.09691 0.28923 0.3423 0.0
H668 H 0.11677 0.3719 0.25558 0.0
H669 H 0.08247 0.14009 0.27031 0.0
H670 H 0.05948 0.0952 0.29471 0.0
H671 H 0.0348 0.26967 0.30274 0.0
H672 H 0.05752 0.31544 0.2782 0.0
H673 H 0.1333 0.19276 0.16134 0.0
H674 H 0.1306 0.2272 0.1998 0.0
H675 H 0.07315 0.23743 0.19246 0.0
H676 H 0.07579 0.19918 0.15447 0.0
H677 H 0.07982 0.1976 0.23121 0.0
H678 H 0.10232 0.36535 0.18857 0.0
H679 H 0.1233 0.41461 0.16262 0.0
H680 H 0.16666 0.38333 0.20802 0.0
H681 H 0.14598 0.33289 0.23406 0.0
C682 C 0.09333 0.42011 0.31248 0.0
C683 C 0.09441 0.38223 0.33114 0.0
C684 C 0.09367 0.3956 0.29116 0.0
C685 C 0.0954 0.3328 0.28806 0.0
C686 C 0.09663 0.29487 0.30676 0.0
C687 C 0.09587 0.31932 0.32815 0.0
C688 C 0.09647 0.30768 0.26523 0.0
C689 C 0.10863 0.33391 0.25027 0.0
C690 C 0.08574 0.25849 0.25814 0.0
C691 C 0.07181 0.23123 0.27259 0.0
C692 C 0.07209 0.1688 0.27721 0.0
C693 C 0.05912 0.14322 0.29108 0.0
C694 C 0.04572 0.17959 0.30032 0.0
C695 C 0.04522 0.24158 0.29564 0.0
C696 C 0.05816 0.26737 0.28177 0.0
C697 C 0.12012 0.20233 0.16802 0.0
C698 C 0.10476 0.19396 0.155 0.0
C699 C 0.11857 0.22215 0.18994 0.0
C700 C 0.10169 0.23625 0.19891 0.0
C701 C 0.08632 0.22693 0.18594 0.0
C702 C 0.08783 0.2054 0.16423 0.0
C703 C 0.10005 0.26209 0.22159 0.0
C704 C 0.08788 0.23579 0.23653 0.0
C705 C 0.11032 0.31259 0.22847 0.0
C706 C 0.12263 0.34489 0.21317 0.0
C707 C 0.11634 0.36886 0.19298 0.0
C708 C 0.12818 0.39694 0.17825 0.0
C709 C 0.14632 0.40191 0.18365 0.0
C710 C 0.15261 0.37931 0.20385 0.0
C711 C 0.14084 0.351 0.21861 0.0
H712 H 0.15552 0.42321 0.17219 0.0
H713 H 0.03571 0.15972 0.31109 0.0
H714 H 0.37611 0.56267 0.31509 0.0
H715 H 0.37838 0.6005 0.27725 0.0
H716 H 0.41006 0.7514 0.30006 0.0
H717 H 0.40775 0.71393 0.33833 0.0
H718 H 0.3843 0.78484 0.26911 0.0
H719 H 0.43077 0.63787 0.27569 0.0
H720 H 0.44415 0.53924 0.28542 0.0
H721 H 0.40956 0.45014 0.23883 0.0
H722 H 0.39575 0.54817 0.22908 0.0
H723 H 0.41148 0.85666 0.15821 0.0
H724 H 0.41276 0.82837 0.19747 0.0
H725 H 0.37876 0.67461 0.18444 0.0
H726 H 0.37732 0.70269 0.14517 0.0
H727 H 0.40863 0.64768 0.21109 0.0
H728 H 0.36086 0.79431 0.20673 0.0
H729 H 0.34747 0.89307 0.19713 0.0
H730 H 0.38513 0.98328 0.2396 0.0
H731 H 0.39893 0.88504 0.24918 0.0
C732 C 0.38351 0.60407 0.31217 0.0
C733 C 0.39187 0.63507 0.32971 0.0
C734 C 0.38484 0.62548 0.29049 0.0
C735 C 0.39463 0.67814 0.28584 0.0
C736 C 0.40254 0.71043 0.30334 0.0
C737 C 0.40124 0.68891 0.32515 0.0
C738 C 0.39666 0.69842 0.26257 0.0
C739 C 0.38994 0.7554 0.25647 0.0
C740 C 0.40377 0.65947 0.24609 0.0
C741 C 0.41212 0.60038 0.25179 0.0
C742 C 0.42591 0.5972 0.26764 0.0
C743 C 0.43359 0.5414 0.27315 0.0
C744 C 0.42768 0.48844 0.26279 0.0
C745 C 0.41411 0.4912 0.24686 0.0
C746 C 0.40636 0.54689 0.24132 0.0
C747 C 0.40435 0.81663 0.16368 0.0
C748 C 0.39423 0.78196 0.14866 0.0
C749 C 0.40504 0.80074 0.1861 0.0
C750 C 0.39575 0.74973 0.1938 0.0
C751 C 0.38599 0.71423 0.17877 0.0
C752 C 0.38512 0.73046 0.15639 0.0
C753 C 0.39601 0.73358 0.21761 0.0
C754 C 0.40319 0.67737 0.22378 0.0
C755 C 0.38938 0.77333 0.23413 0.0
C756 C 0.38107 0.8324 0.22845 0.0
C757 C 0.3664 0.83525 0.21385 0.0
C758 C 0.35871 0.89112 0.20845 0.0
C759 C 0.36548 0.94444 0.2177 0.0
C760 C 0.37992 0.94196 0.23242 0.0
C761 C 0.38768 0.88619 0.23784 0.0
H762 H 0.35951 0.98765 0.2135 0.0
H763 H 0.43365 0.44528 0.26707 0.0
H764 H 0.87748 0.9511 0.82036 0.0
H765 H 0.87723 0.90628 0.78339 0.0
H766 H 0.9059 0.75045 0.80807 0.0
H767 H 0.90633 0.79523 0.84531 0.0
H768 H 0.91977 0.79573 0.76848 0.0
H769 H 0.86264 0.73704 0.79776 0.0
H770 H 0.83359 0.75454 0.81617 0.0
H771 H 0.81797 0.87536 0.76375 0.0
H772 H 0.84704 0.8593 0.74518 0.0
H773 H 0.90745 0.62919 0.66868 0.0
H774 H 0.90798 0.66095 0.70752 0.0
H775 H 0.8736 0.8123 0.69173 0.0
H776 H 0.87254 0.77954 0.653 0.0
H777 H 0.86268 0.7612 0.72834 0.0
H778 H 0.91977 0.82772 0.70044 0.0
H779 H 0.94909 0.81588 0.68208 0.0
H780 H 0.965 0.68635 0.73151 0.0
H781 H 0.93567 0.69686 0.75 0.0
C782 C 0.88372 0.90724 0.81801 0.0
C783 C 0.89189 0.87663 0.83579 0.0
C784 C 0.8835 0.88163 0.79687 0.0
C785 C 0.89137 0.82484 0.7931 0.0
C786 C 0.89972 0.7943 0.81072 0.0
C787 C 0.89991 0.81988 0.83195 0.0
C788 C 0.89101 0.7981 0.77061 0.0
C789 C 0.90731 0.78708 0.75979 0.0
C790 C 0.87472 0.78834 0.75922 0.0
C791 C 0.85708 0.79727 0.77016 0.0
C792 C 0.85306 0.76763 0.79022 0.0
C793 C 0.83658 0.77726 0.80068 0.0
C794 C 0.82395 0.81613 0.79116 0.0
C795 C 0.82776 0.84529 0.77112 0.0
C796 C 0.84423 0.83587 0.7606 0.0
C797 C 0.90007 0.66939 0.67347 0.0
C798 C 0.89 0.70205 0.65781 0.0
C799 C 0.90042 0.68758 0.69567 0.0
C800 C 0.89101 0.73947 0.7025 0.0
C801 C 0.88094 0.77207 0.68685 0.0
C802 C 0.88038 0.75342 0.66472 0.0
C803 C 0.89149 0.75963 0.72597 0.0
C804 C 0.87518 0.76934 0.73702 0.0
C805 C 0.90778 0.76874 0.7375 0.0
C806 C 0.92546 0.76261 0.72647 0.0
C807 C 0.92947 0.79639 0.7073 0.0
C808 C 0.9461 0.78997 0.69689 0.0
C809 C 0.95888 0.75026 0.70559 0.0
C810 C 0.95508 0.71702 0.72476 0.0
C811 C 0.93846 0.72323 0.73523 0.0
H812 H 0.97175 0.74535 0.6975 0.0
H813 H 0.81121 0.8236 0.7993 0.0
H814 H 0.58669 0.25242 0.84533 0.0
H815 H 0.58531 0.29164 0.80727 0.0
H816 H 0.60413 0.11976 0.78235 0.0
H817 H 0.60549 0.0802 0.8201 0.0
H818 H 0.61203 0.30351 0.77553 0.0
H819 H 0.58211 0.08935 0.73424 0.0
H820 H 0.56215 1.00444 0.744 0.0
H821 H 0.5365 0.1144 0.79352 0.0
H822 H 0.55611 0.20023 0.78384 0.0
H823 H 0.62783 0.28692 0.65949 0.0
H824 H 0.62477 0.26112 0.69882 0.0
H825 H 0.56896 0.31109 0.6968 0.0
H826 H 0.57192 0.33772 0.6575 0.0
H827 H 0.57595 0.19862 0.71802 0.0
H828 H 0.595 0.40533 0.72003 0.0
H829 H 0.61425 0.49206 0.71034 0.0
H830 H 0.65946 0.40292 0.73991 0.0
H831 H 0.64053 0.31516 0.74947 0.0
C832 C 0.59052 0.22301 0.83173 0.0
C833 C 0.59615 0.16315 0.83571 0.0
C834 C 0.58977 0.24553 0.81004 0.0
C835 C 0.59444 0.20834 0.79205 0.0
C836 C 0.60025 0.14889 0.79602 0.0
C837 C 0.60108 0.12648 0.81763 0.0
C838 C 0.59338 0.23131 0.76902 0.0
C839 C 0.60408 0.28082 0.76297 0.0
C840 C 0.5828 0.20207 0.75275 0.0
C841 C 0.57069 0.15107 0.75842 0.0
C842 C 0.57214 0.09552 0.74713 0.0
C843 C 0.5609 0.0472 0.75266 0.0
C844 C 0.5481 0.05397 0.76941 0.0
C845 C 0.54646 0.10915 0.78061 0.0
C846 C 0.55766 0.15763 0.77512 0.0
C847 C 0.61489 0.29223 0.66738 0.0
C848 C 0.60012 0.3144 0.65544 0.0
C849 C 0.6132 0.27774 0.68985 0.0
C850 C 0.59668 0.28465 0.70066 0.0
C851 C 0.58182 0.30563 0.6887 0.0
C852 C 0.58355 0.32092 0.6663 0.0
C853 C 0.59496 0.26968 0.72447 0.0
C854 C 0.58377 0.22161 0.73063 0.0
C855 C 0.60496 0.30056 0.74086 0.0
C856 C 0.61637 0.35343 0.7353 0.0
C857 C 0.60908 0.40399 0.72431 0.0
C858 C 0.61993 0.45338 0.71886 0.0
C859 C 0.63808 0.45295 0.72446 0.0
C860 C 0.6454 0.40317 0.73556 0.0
C861 C 0.63462 0.35361 0.74102 0.0
H862 H 0.64645 0.49123 0.72023 0.0
H863 H 0.53942 0.01649 0.77369 0.0
H864 H 0.08625 0.867 0.07147 0.0
H865 H 0.08765 0.7574 0.0653 0.0
H866 H 0.08824 0.72758 0.13606 0.0
H867 H 0.0871 0.83703 0.14232 0.0
H868 H 0.11331 0.65858 0.11416 0.0
H869 H 0.05051 0.70469 0.10734 0.0
H870 H 0.02439 0.75902 0.09214 0.0
H871 H 0.03711 0.69456 0.02673 0.0
H872 H 0.06348 0.6405 0.0415 0.0
H873 H 0.09711 0.34184 0.11407 0.0
H874 H 0.09468 0.4508 0.12059 0.0
H875 H 0.08846 0.4809 0.05025 0.0
H876 H 0.09012 0.37208 0.04369 0.0
H877 H 0.06613 0.55067 0.07189 0.0
H878 H 0.1283 0.50285 0.07798 0.0
H879 H 0.15555 0.45273 0.09198 0.0
H880 H 0.14565 0.52477 0.15707 0.0
H881 H 0.11799 0.57335 0.14369 0.0
C882 C 0.08683 0.83713 0.0857 0.0
C883 C 0.08652 0.86075 0.1074 0.0
C884 C 0.08748 0.77449 0.08216 0.0
C885 C 0.08787 0.73427 0.10023 0.0
C886 C 0.08787 0.75775 0.12188 0.0
C887 C 0.0871 0.8203 0.12543 0.0
C888 C 0.08838 0.66768 0.09663 0.0
C889 C 0.10287 0.63471 0.10521 0.0
C890 C 0.07502 0.63701 0.08438 0.0
C891 C 0.05907 0.66902 0.0755 0.0
C892 C 0.04782 0.70247 0.08969 0.0
C893 C 0.03295 0.73316 0.08115 0.0
C894 C 0.02912 0.73038 0.05847 0.0
C895 C 0.04011 0.69674 0.04429 0.0
C896 C 0.05501 0.66602 0.05274 0.0
C897 C 0.09498 0.37146 0.1 0.0
C898 C 0.09391 0.34785 0.07832 0.0
C899 C 0.09379 0.43396 0.10374 0.0
C900 C 0.09166 0.47433 0.08588 0.0
C901 C 0.09019 0.45081 0.0643 0.0
C902 C 0.09131 0.38841 0.06056 0.0
C903 C 0.09107 0.54107 0.08956 0.0
C904 C 0.07657 0.57423 0.08094 0.0
C905 C 0.10454 0.57203 0.10164 0.0
C906 C 0.12091 0.5411 0.10987 0.0
C907 C 0.13176 0.50717 0.09536 0.0
C908 C 0.1473 0.47901 0.1032 0.0
C909 C 0.15228 0.48521 0.12544 0.0
C910 C 0.14173 0.51958 0.13989 0.0
C911 C 0.12608 0.54725 0.13221 0.0
H912 H 0.16436 0.46362 0.13144 0.0
H913 H 0.01761 0.7542 0.05189 0.0
H914 H 0.40812 0.11186 0.06436 0.0
H915 H 0.40711 0.22145 0.05842 0.0
H916 H 0.41711 0.25096 0.12809 0.0
H917 H 0.41774 0.14164 0.13423 0.0
H918 H 0.39081 0.32363 0.11364 0.0
H919 H 0.45148 0.28159 0.09053 0.0
H920 H 0.4754 0.22909 0.06979 0.0
H921 H 0.44946 0.27262 0.00823 0.0
H922 H 0.42562 0.32687 0.02862 0.0
H923 H 0.40862 0.63844 0.10684 0.0
H924 H 0.41244 0.52967 0.11285 0.0
H925 H 0.40292 0.49684 0.04326 0.0
H926 H 0.39978 0.6056 0.03698 0.0
H927 H 0.42941 0.42583 0.05803 0.0
H928 H 0.36974 0.47616 0.08244 0.0
H929 H 0.34739 0.53322 0.10421 0.0
H930 H 0.37185 0.47263 0.16479 0.0
H931 H 0.39449 0.41578 0.14335 0.0
C932 C 0.40995 0.14158 0.07846 0.0
C933 C 0.41305 0.11768 0.09978 0.0
C934 C 0.40958 0.20434 0.07499 0.0
C935 C 0.41225 0.24461 0.09276 0.0
C936 C 0.41511 0.2209 0.11409 0.0
C937 C 0.41558 0.15824 0.11754 0.0
C938 C 0.41162 0.3114 0.08926 0.0
C939 C 0.39942 0.34606 0.10169 0.0
C940 C 0.42259 0.34075 0.07341 0.0
C941 C 0.43672 0.30772 0.06108 0.0
C942 C 0.45085 0.2797 0.07257 0.0
C943 C 0.46443 0.24989 0.06088 0.0
C944 C 0.46386 0.24699 0.03772 0.0
C945 C 0.44985 0.27471 0.02617 0.0
C946 C 0.43637 0.3054 0.03777 0.0
C947 C 0.40764 0.60828 0.09273 0.0
C948 C 0.40377 0.63102 0.07142 0.0
C949 C 0.40963 0.54591 0.09624 0.0
C950 C 0.40767 0.50481 0.07858 0.0
C951 C 0.4044 0.5275 0.05719 0.0
C952 C 0.40244 0.58981 0.05366 0.0
C953 C 0.40859 0.43815 0.08241 0.0
C954 C 0.4208 0.40347 0.07 0.0
C955 C 0.39767 0.40884 0.09838 0.0
C956 C 0.3839 0.44218 0.11129 0.0
C957 C 0.37041 0.47528 0.1004 0.0
C958 C 0.35769 0.50755 0.11268 0.0
C959 C 0.35823 0.50668 0.13587 0.0
C960 C 0.37146 0.47332 0.14683 0.0
C961 C 0.38423 0.44101 0.13462 0.0
H962 H 0.34838 0.53175 0.14535 0.0
H963 H 0.47432 0.22344 0.02873 0.0
H964 H 0.08877 0.17008 0.37611 0.0
H965 H 0.08503 0.06131 0.36982 0.0
H966 H 0.09924 0.02597 0.43799 0.0
H967 H 0.10276 0.13424 0.4445 0.0
H968 H 0.1165 0.94958 0.40959 0.0
H969 H 0.05585 0.02023 0.42147 0.0
H970 H 0.02968 0.08526 0.41387 0.0
H971 H 0.02785 0.01986 0.34676 0.0
H972 H 0.05415 0.95487 0.35391 0.0
H973 H 0.08785 0.64762 0.42343 0.0
H974 H 0.09181 0.7572 0.42628 0.0
H975 H 0.07296 0.77849 0.35902 0.0
H976 H 0.06875 0.66881 0.35622 0.0
H977 H 0.05873 0.8628 0.38437 0.0
H978 H 0.11793 0.78828 0.3722 0.0
H979 H 0.14427 0.72328 0.37881 0.0
H980 H 0.14963 0.79644 0.44453 0.0
H981 H 0.12314 0.86126 0.43843 0.0
C982 C 0.09093 0.1393 0.38983 0.0
C983 C 0.09608 0.1612 0.41083 0.0
C984 C 0.08885 0.07706 0.38618 0.0
C985 C 0.09177 0.03551 0.40348 0.0
C986 C 0.097 0.05716 0.42437 0.0
C987 C 0.09907 0.11923 0.42804 0.0
C988 C 0.08935 0.9694 0.39997 0.0
C989 C 0.10382 0.9305 0.40429 0.0
C990 C 0.07298 0.94469 0.3924 0.0
C991 C 0.05705 0.98316 0.38817 0.0
C992 C 0.04993 0.02001 0.40506 0.0
C993 C 0.03506 0.05679 0.40084 0.0
C994 C 0.02713 0.05679 0.37983 0.0
C995 C 0.03402 0.01984 0.36302 0.0
C996 C 0.04888 0.98297 0.36715 0.0
C997 C 0.08468 0.67558 0.40919 0.0
C998 C 0.07808 0.64949 0.38955 0.0
C999 C 0.08695 0.73826 0.41083 0.0
C1000 C 0.08296 0.77614 0.39274 0.0
C1001 C 0.07614 0.75027 0.3732 0.0
C1002 C 0.07371 0.68759 0.37163 0.0
C1003 C 0.08582 0.8427 0.39428 0.0
C1004 C 0.07146 0.88175 0.38955 0.0
C1005 C 0.10236 0.8676 0.40128 0.0
C1006 C 0.11845 0.82928 0.40492 0.0
C1007 C 0.12465 0.79025 0.38811 0.0
C1008 C 0.13962 0.75345 0.39176 0.0
C1009 C 0.14859 0.75562 0.41209 0.0
C1010 C 0.14265 0.79476 0.42879 0.0
C1011 C 0.12767 0.83159 0.42524 0.0
H1012 H 0.16016 0.72705 0.41489 0.0
H1013 H 0.01564 0.08534 0.37659 0.0
H1014 H 0.4081 0.86977 0.44392 0.0
H1015 H 0.40921 0.97873 0.43671 0.0
H1016 H 0.38795 0.94874 0.37096 0.0
H1017 H 0.38769 0.83928 0.37791 0.0
H1018 H 0.41158 0.03008 0.36797 0.0
H1019 H 0.36168 1.0038 0.41616 0.0
H1020 H 0.3453 0.96881 0.44933 0.0
H1021 H 0.37962 0.0755 0.49101 0.0
H1022 H 0.39636 0.11051 0.45811 0.0
H1023 H 0.37826 0.36255 0.39183 0.0
H1024 H 0.37464 0.25274 0.39581 0.0
H1025 H 0.4311 0.22813 0.38327 0.0
H1026 H 0.43457 0.33743 0.37862 0.0
H1027 H 0.38656 0.1741 0.42315 0.0
H1028 H 0.43965 0.09656 0.35808 0.0
H1029 H 0.45203 0.13147 0.32232 0.0
H1030 H 0.40392 0.23222 0.3095 0.0
H1031 H 0.39115 0.19726 0.34502 0.0
C1032 C 0.40369 0.88665 0.42795 0.0
C1033 C 0.39772 0.84643 0.4115 0.0
C1034 C 0.40422 0.94888 0.42386 0.0
C1035 C 0.39826 0.97234 0.40345 0.0
C1036 C 0.39258 0.93193 0.38685 0.0
C1037 C 0.39243 0.86948 0.39079 0.0
C1038 C 0.39807 0.03889 0.39944 0.0
C1039 C 0.40606 0.06149 0.38002 0.0
C1040 C 0.39045 0.08012 0.41483 0.0
C1041 C 0.38036 0.05939 0.43467 0.0
C1042 C 0.36581 0.0195 0.43241 0.0
C1043 C 0.35645 0.9997 0.45116 0.0
C1044 C 0.36144 0.01982 0.47227 0.0
C1045 C 0.37578 0.05991 0.47465 0.0
C1046 C 0.38519 0.07981 0.45596 0.0
C1047 C 0.38985 0.33353 0.38994 0.0
C1048 C 0.40665 0.35833 0.38474 0.0
C1049 C 0.3878 0.27085 0.39219 0.0
C1050 C 0.40254 0.2319 0.38948 0.0
C1051 C 0.41942 0.25692 0.38483 0.0
C1052 C 0.42141 0.31941 0.38223 0.0
C1053 C 0.40038 0.16524 0.3919 0.0
C1054 C 0.39198 0.14264 0.41104 0.0
C1055 C 0.40702 0.12399 0.37585 0.0
C1056 C 0.41452 0.1447 0.35432 0.0
C1057 C 0.43169 0.12594 0.34758 0.0
C1058 C 0.43878 0.14579 0.32736 0.0
C1059 C 0.42879 0.18418 0.31368 0.0
C1060 C 0.41167 0.20266 0.32015 0.0
C1061 C 0.40451 0.18289 0.34034 0.0
H1062 H 0.43431 0.19953 0.29804 0.0
H1063 H 0.35418 1.00443 0.48676 0.0
H1064 H 0.92054 0.66908 0.90114 0.0
H1065 H 0.92389 0.56003 0.89501 0.0
H1066 H 0.87155 0.52992 0.92328 0.0
H1067 H 0.86828 0.63863 0.92971 0.0
H1068 H 0.89423 0.45106 0.93947 0.0
H1069 H 0.8797 0.52231 0.86636 0.0
H1070 H 0.88313 0.58625 0.83305 0.0
H1071 H 0.93611 0.51576 0.82282 0.0
H1072 H 0.9331 0.45203 0.85628 0.0
H1073 H 0.88208 0.1473 0.90432 0.0
H1074 H 0.87908 0.25685 0.90871 0.0
H1075 H 0.93312 0.28114 0.88509 0.0
H1076 H 0.93631 0.17157 0.88088 0.0
H1077 H 0.91005 0.36254 0.86631 0.0
H1078 H 0.92417 0.29119 0.9397 0.0
H1079 H 0.9203 0.22717 0.97292 0.0
H1080 H 0.86725 0.298 0.98221 0.0
H1081 H 0.87071 0.36185 0.94886 0.0
C1082 C 0.90969 0.63922 0.90583 0.0
C1083 C 0.89416 0.66244 0.91593 0.0
C1084 C 0.91161 0.5769 0.90232 0.0
C1085 C 0.89789 0.5367 0.90849 0.0
C1086 C 0.88234 0.55993 0.91845 0.0
C1087 C 0.8805 0.62208 0.92216 0.0
C1088 C 0.89986 0.47031 0.90508 0.0
C1089 C 0.89744 0.43174 0.92339 0.0
C1090 C 0.90447 0.44502 0.88422 0.0
C1091 C 0.90624 0.48283 0.86396 0.0
C1092 C 0.89213 0.52075 0.8571 0.0
C1093 C 0.89399 0.55692 0.83818 0.0
C1094 C 0.90985 0.5552 0.82586 0.0
C1095 C 0.92385 0.51712 0.8324 0.0
C1096 C 0.92206 0.48093 0.85133 0.0
C1097 C 0.8934 0.17578 0.90027 0.0
C1098 C 0.90948 0.15041 0.89237 0.0
C1099 C 0.89164 0.23847 0.9027 0.0
C1100 C 0.90593 0.27713 0.89741 0.0
C1101 C 0.9219 0.25215 0.88922 0.0
C1102 C 0.92369 0.18944 0.88678 0.0
C1103 C 0.90429 0.34358 0.90065 0.0
C1104 C 0.90681 0.38204 0.88236 0.0
C1105 C 0.89968 0.36884 0.92149 0.0
C1106 C 0.89764 0.33089 0.94167 0.0
C1107 C 0.91163 0.2928 0.94874 0.0
C1108 C 0.90952 0.25659 0.96761 0.0
C1109 C 0.89353 0.25841 0.97964 0.0
C1110 C 0.87962 0.29659 0.97286 0.0
C1111 C 0.88166 0.33284 0.95399 0.0
H1112 H 0.89192 0.23033 0.99424 0.0
H1113 H 0.91127 0.58327 0.81123 0.0
H1114 H 0.60514 0.89957 0.90929 0.0
H1115 H 0.60805 0.79023 0.9132 0.0
H1116 H 0.55527 0.76631 0.88559 0.0
H1117 H 0.55189 0.87586 0.88252 0.0
H1118 H 0.55993 0.69284 0.9199 0.0
H1119 H 0.59326 0.74139 0.85432 0.0
H1120 H 0.61578 0.79579 0.832 0.0
H1121 H 0.65755 0.73016 0.87468 0.0
H1122 H 0.63524 0.67601 0.89745 0.0
H1123 H 0.56999 0.37639 0.9 0.0
H1124 H 0.56583 0.48521 0.89417 0.0
H1125 H 0.61704 0.51988 0.92466 0.0
H1126 H 0.62149 0.41124 0.93 0.0
H1127 H 0.61242 0.58701 0.88741 0.0
H1128 H 0.57867 0.54088 0.9535 0.0
H1129 H 0.55598 0.48647 0.97557 0.0
H1130 H 0.51475 0.54728 0.93116 0.0
H1131 H 0.53725 0.6014 0.90864 0.0
C1132 C 0.59401 0.87139 0.90431 0.0
C1133 C 0.57826 0.89701 0.89555 0.0
C1134 C 0.5958 0.80863 0.90632 0.0
C1135 C 0.582 0.76996 0.89934 0.0
C1136 C 0.56614 0.79524 0.89096 0.0
C1137 C 0.5643 0.85804 0.88905 0.0
C1138 C 0.58413 0.70317 0.90079 0.0
C1139 C 0.57127 0.6696 0.9125 0.0
C1140 C 0.59908 0.6729 0.89146 0.0
C1141 C 0.61255 0.70508 0.8777 0.0
C1142 C 0.60723 0.7389 0.85904 0.0
C1143 C 0.61996 0.76964 0.84629 0.0
C1144 C 0.63808 0.76655 0.85195 0.0
C1145 C 0.64351 0.73256 0.87034 0.0
C1146 C 0.63083 0.70178 0.88315 0.0
C1147 C 0.58045 0.40709 0.90524 0.0
C1148 C 0.59604 0.3851 0.91559 0.0
C1149 C 0.57798 0.46932 0.90207 0.0
C1150 C 0.59103 0.51068 0.90923 0.0
C1151 C 0.60676 0.48878 0.9191 0.0
C1152 C 0.60922 0.42668 0.92231 0.0
C1153 C 0.5883 0.57688 0.90664 0.0
C1154 C 0.60105 0.61029 0.8947 0.0
C1155 C 0.57321 0.60694 0.91569 0.0
C1156 C 0.55967 0.57464 0.92926 0.0
C1157 C 0.56479 0.54224 0.94834 0.0
C1158 C 0.55196 0.51153 0.96095 0.0
C1159 C 0.53394 0.51327 0.95473 0.0
C1160 C 0.52871 0.54589 0.93593 0.0
C1161 C 0.54149 0.57662 0.92325 0.0
H1162 H 0.52403 0.48947 0.96451 0.0
H1163 H 0.64792 0.79039 0.84207 0.0
H1164 H 0.88071 0.87641 0.55649 0.0
H1165 H 0.88322 0.98502 0.56287 0.0
H1166 H 0.92451 0.95316 0.61151 0.0
H1167 H 0.92209 0.84393 0.60518 0.0
H1168 H 0.9011 0.03475 0.62647 0.0
H1169 H 0.9345 0.00853 0.55944 0.0
H1170 H 0.94014 0.97423 0.5211 0.0
H1171 H 0.89639 0.08332 0.49776 0.0
H1172 H 0.89032 0.11764 0.53602 0.0
H1173 H 0.93031 0.34069 0.63312 0.0
H1174 H 0.92874 0.23194 0.62667 0.0
H1175 H 0.885 0.25884 0.58106 0.0
H1176 H 0.8862 0.36801 0.58772 0.0
H1177 H 0.91029 0.18 0.56463 0.0
H1178 H 0.87694 0.20513 0.63218 0.0
H1179 H 0.87181 0.23966 0.6706 0.0
H1180 H 0.91632 0.1326 0.69299 0.0
H1181 H 0.92188 0.09809 0.65463 0.0
C1182 C 0.89053 0.89229 0.56832 0.0
C1183 C 0.9013 0.85107 0.58016 0.0
C1184 C 0.89192 0.95464 0.57199 0.0
C1185 C 0.90424 0.97756 0.58745 0.0
C1186 C 0.91492 0.93664 0.59946 0.0
C1187 C 0.9135 0.87409 0.59585 0.0
C1188 C 0.90564 0.04409 0.59132 0.0
C1189 C 0.9034 0.06639 0.61298 0.0
C1190 C 0.90823 0.0857 0.57368 0.0
C1191 C 0.91185 0.0652 0.55064 0.0
C1192 C 0.92599 0.02483 0.54616 0.0
C1193 C 0.92928 1.00545 0.52443 0.0
C1194 C 0.9186 0.02646 0.50701 0.0
C1195 C 0.90463 0.06702 0.51127 0.0
C1196 C 0.90127 0.0865 0.53297 0.0
C1197 C 0.92017 0.32383 0.62192 0.0
C1198 C 0.9083 0.36372 0.61107 0.0
C1199 C 0.91935 0.26136 0.61819 0.0
C1200 C 0.90665 0.23707 0.60354 0.0
C1201 C 0.89493 0.27656 0.59244 0.0
C1202 C 0.89568 0.33914 0.59623 0.0
C1203 C 0.9057 0.1705 0.59974 0.0
C1204 C 0.90803 0.14826 0.5781 0.0
C1205 C 0.90327 0.12894 0.61741 0.0
C1206 C 0.89994 0.14952 0.64049 0.0
C1207 C 0.88573 0.18935 0.64527 0.0
C1208 C 0.88272 0.20885 0.66704 0.0
C1209 C 0.89376 0.18847 0.68422 0.0
C1210 C 0.9078 0.14842 0.67967 0.0
C1211 C 0.91087 0.12885 0.65791 0.0
H1212 H 0.89141 0.2036 0.70107 0.0
H1213 H 0.92117 0.01141 0.4902 0.0
H1214 H 0.60704 0.6391 0.58859 0.0
H1215 H 0.60962 0.74853 0.58325 0.0
H1216 H 0.55851 0.77457 0.61523 0.0
H1217 H 0.55556 0.66518 0.61997 0.0
H1218 H 0.56103 0.84444 0.57916 0.0
H1219 H 0.59769 0.80336 0.64267 0.0
H1220 H 0.62156 0.75201 0.66381 0.0
H1221 H 0.66079 0.81576 0.61723 0.0
H1222 H 0.63711 0.86683 0.59562 0.0
H1223 H 0.56986 0.16329 0.59678 0.0
H1224 H 0.56662 0.05409 0.603 0.0
H1225 H 0.61642 0.02216 0.56865 0.0
H1226 H 0.61987 0.131 0.56272 0.0
H1227 H 0.61423 0.95585 0.60671 0.0
H1228 H 0.57736 0.99564 0.54298 0.0
H1229 H 0.55341 0.04678 0.52193 0.0
H1230 H 0.51446 0.98552 0.56933 0.0
H1231 H 0.53823 0.93471 0.59086 0.0
C1232 C 0.59626 0.66796 0.59431 0.0
C1233 C 0.58112 0.64309 0.60482 0.0
C1234 C 0.59784 0.73068 0.59143 0.0
C1235 C 0.58436 0.76999 0.59911 0.0
C1236 C 0.56912 0.74526 0.60926 0.0
C1237 C 0.56753 0.68261 0.61214 0.0
C1238 C 0.58614 0.83685 0.59654 0.0
C1239 C 0.57255 0.86889 0.58547 0.0
C1240 C 0.60131 0.86877 0.60439 0.0
C1241 C 0.6156 0.83842 0.61741 0.0
C1242 C 0.61139 0.80605 0.63684 0.0
C1243 C 0.62489 0.77706 0.64892 0.0
C1244 C 0.64267 0.78048 0.64183 0.0
C1245 C 0.64701 0.81307 0.62268 0.0
C1246 C 0.63355 0.8421 0.61052 0.0
C1247 C 0.58017 0.13306 0.59068 0.0
C1248 C 0.59507 0.15594 0.57911 0.0
C1249 C 0.57824 0.0706 0.59412 0.0
C1250 C 0.59121 0.02982 0.58612 0.0
C1251 C 0.60623 0.05266 0.57492 0.0
C1252 C 0.6081 0.11492 0.57136 0.0
C1253 C 0.58915 0.96331 0.58929 0.0
C1254 C 0.60269 0.93137 0.60047 0.0
C1255 C 0.57392 0.93152 0.58159 0.0
C1256 C 0.5596 0.96195 0.56866 0.0
C1257 C 0.56371 0.99352 0.54903 0.0
C1258 C 0.55016 0.02236 0.53698 0.0
C1259 C 0.53243 0.01956 0.54432 0.0
C1260 C 0.5282 0.98775 0.56369 0.0
C1261 C 0.54171 0.95889 0.57581 0.0
H1262 H 0.52196 0.0419 0.53497 0.0
H1263 H 0.6531 0.758 0.65121 0.0
loop_
_geom_bond_atom_site_label_1
_geom_bond_atom_site_label_2
_geom_bond_distance
_geom_bond_site_symmetry_2
_ccdc_geom_bond_type
Co0 N4 2.152 . S
Co0 N10 2.128 . S
Co0 N20 2.194 . S
Co0 O25 2.351 . S
Co0 O26 2.155 . S
Co0 O27 2.096 . S
C1 N4 1.298 1_565 S
C1 N5 1.328 . S
C1 H6 0.930 . S
C2 C3 1.333 . S
C2 N4 1.316 1_565 S
C2 H7 0.930 1_565 S
C3 C2 1.333 . S
C3 N5 1.350 . S
C3 H29 0.931 . S
N4 Co0 2.152 . S
N4 C1 1.298 1_545 S
N4 C2 1.316 1_545 S
N5 C1 1.328 . S
N5 C3 1.350 . S
H6 C1 0.930 . S
H7 C2 0.930 1_545 S
C8 O9 1.224 . S
C8 O27 1.247 . S
O9 C8 1.224 . S
N10 Co0 2.128 . S
N10 C11 1.355 . S
N10 C13 1.311 . S
C11 N10 1.355 . S
C11 C12 1.363 . S
C11 H23 0.929 . S
C12 C11 1.363 . S
C12 N14 1.375 . S
C12 H30 0.931 . S
C13 N10 1.311 . S
C13 N14 1.347 . S
C13 H24 0.929 . S
N14 C12 1.375 . S
N14 C13 1.347 . S
C15 C18 1.365 . S
C15 N20 1.328 . S
C15 H21 0.929 . S
C16 C17 1.362 . S
C16 C19 1.378 . S
C16 H31 0.929 . S
C17 C16 1.362 . S
C17 C18 1.366 . S
C18 C15 1.365 . S
C18 C17 1.366 . S
C18 H32 0.930 . S
C19 C16 1.378 . S
C19 N20 1.315 . S
C19 H22 0.930 . S
N20 Co0 2.194 . S
N20 C15 1.328 . S
N20 C19 1.315 . S
H21 C15 0.929 . S
H22 C19 0.930 . S
H23 C11 0.929 . S
H24 C13 0.929 . S
O25 Co0 2.351 . S
O25 C28 1.244 . S
O26 Co0 2.155 . S
O26 C28 1.240 . S
O27 Co0 2.096 . S
O27 C8 1.247 . S
C28 O25 1.244 . S
C28 O26 1.240 . S
H29 C3 0.931 . S
H30 C12 0.931 . S
H31 C16 0.929 . S
H32 C18 0.930 . S
Co33 N37 2.152 . S
Co33 N43 2.128 . S
Co33 N53 2.194 . S
Co33 O58 2.351 . S
Co33 O59 2.155 . S
Co33 O60 2.096 . S
C34 N37 1.297 1_545 S
C34 N38 1.328 . S
C34 H39 0.930 . S
C35 C36 1.333 . S
C35 N37 1.316 1_545 S
C35 H40 0.930 1_545 S
C36 C35 1.333 . S
C36 N38 1.350 . S
C36 H62 0.931 . S
N37 Co33 2.152 . S
N37 C34 1.297 1_565 S
N37 C35 1.316 1_565 S
N38 C34 1.328 . S
N38 C36 1.350 . S
H39 C34 0.930 . S
H40 C35 0.930 1_565 S
C41 O42 1.224 . S
C41 O60 1.247 . S
O42 C41 1.224 . S
N43 Co33 2.128 . S
N43 C44 1.355 . S
N43 C46 1.311 . S
C44 N43 1.355 . S
C44 C45 1.363 . S
C44 H56 0.929 . S
C45 C44 1.363 . S
C45 N47 1.375 . S
C45 H63 0.931 . S
C46 N43 1.311 . S
C46 N47 1.347 . S
C46 H57 0.929 . S
N47 C45 1.375 . S
N47 C46 1.347 . S
C48 C51 1.365 . S
C48 N53 1.328 . S
C48 H54 0.929 . S
C49 C50 1.362 . S
C49 C52 1.378 . S
C49 H64 0.929 . S
C50 C49 1.362 . S
C50 C51 1.366 . S
C51 C48 1.365 . S
C51 C50 1.366 . S
C51 H65 0.930 . S
C52 C49 1.378 . S
C52 N53 1.315 . S
C52 H55 0.930 . S
N53 Co33 2.194 . S
N53 C48 1.328 . S
N53 C52 1.315 . S
H54 C48 0.929 . S
H55 C52 0.930 . S
H56 C44 0.929 . S
H57 C46 0.929 . S
O58 Co33 2.351 . S
O58 C61 1.244 . S
O59 Co33 2.155 . S
O59 C61 1.240 . S
O60 Co33 2.096 . S
O60 C41 1.247 . S
C61 O58 1.244 . S
C61 O59 1.240 . S
H62 C36 0.931 . S
H63 C45 0.931 . S
H64 C49 0.929 . S
H65 C51 0.930 . S
Co66 N70 2.148 . S
Co66 N76 2.128 . S
Co66 N86 2.194 . S
Co66 O91 2.351 . S
Co66 O92 2.155 . S
Co66 O93 2.096 . S
C67 N70 1.301 . S
C67 N71 1.328 . S
C67 H72 0.930 . S
C68 C69 1.333 . S
C68 N70 1.317 . S
C68 H73 0.930 . S
C69 C68 1.333 . S
C69 N71 1.350 . S
C69 H95 0.931 . S
N70 Co66 2.148 . S
N70 C67 1.301 . S
N70 C68 1.317 . S
N71 C67 1.328 . S
N71 C69 1.350 . S
H72 C67 0.930 . S
H73 C68 0.930 . S
C74 O75 1.224 . S
C74 O93 1.247 . S
O75 C74 1.224 . S
N76 Co66 2.128 . S
N76 C77 1.355 . S
N76 C79 1.311 . S
C77 N76 1.355 . S
C77 C78 1.363 . S
C77 H89 0.929 . S
C78 C77 1.363 . S
C78 N80 1.375 . S
C78 H96 0.931 . S
C79 N76 1.311 . S
C79 N80 1.347 . S
C79 H90 0.929 . S
N80 C78 1.375 . S
N80 C79 1.347 . S
C81 C84 1.365 . S
C81 N86 1.328 . S
C81 H87 0.929 . S
C82 C83 1.362 . S
C82 C85 1.378 . S
C82 H97 0.929 . S
C83 C82 1.362 . S
C83 C84 1.366 . S
C84 C81 1.365 . S
C84 C83 1.366 . S
C84 H98 0.930 . S
C85 C82 1.378 . S
C85 N86 1.315 . S
C85 H88 0.930 . S
N86 Co66 2.194 . S
N86 C81 1.328 . S
N86 C85 1.315 . S
H87 C81 0.929 . S
H88 C85 0.930 . S
H89 C77 0.929 . S
H90 C79 0.929 . S
O91 Co66 2.351 . S
O91 C94 1.244 . S
O92 Co66 2.155 . S
O92 C94 1.240 . S
O93 Co66 2.096 . S
O93 C74 1.247 . S
C94 O91 1.244 . S
C94 O92 1.240 . S
H95 C69 0.931 . S
H96 C78 0.931 . S
H97 C82 0.929 . S
H98 C84 0.930 . S
Co99 N103 2.148 . S
Co99 N109 2.128 . S
Co99 N119 2.194 . S
Co99 O124 2.351 . S
Co99 O125 2.155 . S
Co99 O126 2.096 . S
C100 N103 1.301 . S
C100 N104 1.328 . S
C100 H105 0.930 . S
C101 C102 1.333 . S
C101 N103 1.317 . S
C101 H106 0.930 . S
C102 C101 1.333 . S
C102 N104 1.350 . S
C102 H128 0.931 . S
N103 Co99 2.148 . S
N103 C100 1.301 . S
N103 C101 1.317 . S
N104 C100 1.328 . S
N104 C102 1.350 . S
H105 C100 0.930 . S
H106 C101 0.930 . S
C107 O108 1.224 . S
C107 O126 1.247 . S
O108 C107 1.224 . S
N109 Co99 2.128 . S
N109 C110 1.355 . S
N109 C112 1.311 . S
C110 N109 1.355 . S
C110 C111 1.363 . S
C110 H122 0.929 . S
C111 C110 1.363 . S
C111 N113 1.375 . S
C111 H129 0.931 . S
C112 N109 1.311 . S
C112 N113 1.347 . S
C112 H123 0.929 . S
N113 C111 1.375 . S
N113 C112 1.347 . S
C114 C117 1.365 . S
C114 N119 1.328 . S
C114 H120 0.929 . S
C115 C116 1.362 . S
C115 C118 1.378 . S
C115 H130 0.929 . S
C116 C115 1.362 . S
C116 C117 1.366 . S
C117 C114 1.365 . S
C117 C116 1.366 . S
C117 H131 0.930 . S
C118 C115 1.378 . S
C118 N119 1.315 . S
C118 H121 0.930 . S
N119 Co99 2.194 . S
N119 C114 1.328 . S
N119 C118 1.315 . S
H120 C114 0.929 . S
H121 C118 0.930 . S
H122 C110 0.929 . S
H123 C112 0.929 . S
O124 Co99 2.351 . S
O124 C127 1.244 . S
O125 Co99 2.155 . S
O125 C127 1.240 . S
O126 Co99 2.096 . S
O126 C107 1.247 . S
C127 O124 1.244 . S
C127 O125 1.240 . S
H128 C102 0.931 . S
H129 C111 0.931 . S
H130 C115 0.929 . S
H131 C117 0.930 . S
Co132 N136 2.152 . S
Co132 N142 2.128 . S
Co132 N152 2.194 . S
Co132 O157 2.351 . S
Co132 O158 2.155 . S
Co132 O159 2.096 . S
C133 N136 1.298 1_545 S
C133 N137 1.328 . S
C133 H138 0.930 . S
C134 C135 1.333 . S
C134 N136 1.316 1_545 S
C134 H139 0.930 1_545 S
C135 C134 1.333 . S
C135 N137 1.350 . S
C135 H161 0.931 . S
N136 Co132 2.152 . S
N136 C133 1.298 1_565 S
N136 C134 1.316 1_565 S
N137 C133 1.328 . S
N137 C135 1.350 . S
H138 C133 0.930 . S
H139 C134 0.930 1_565 S
C140 O141 1.224 . S
C140 O159 1.247 . S
O141 C140 1.224 . S
N142 Co132 2.128 . S
N142 C143 1.355 . S
N142 C145 1.311 . S
C143 N142 1.355 . S
C143 C144 1.363 . S
C143 H155 0.929 . S
C144 C143 1.363 . S
C144 N146 1.375 . S
C144 H162 0.931 . S
C145 N142 1.311 . S
C145 N146 1.347 . S
C145 H156 0.929 . S
N146 C144 1.375 . S
N146 C145 1.347 . S
C147 C150 1.365 . S
C147 N152 1.328 . S
C147 H153 0.929 . S
C148 C149 1.362 . S
C148 C151 1.378 . S
C148 H163 0.929 . S
C149 C148 1.362 . S
C149 C150 1.366 . S
C150 C147 1.365 . S
C150 C149 1.366 . S
C150 H164 0.930 . S
C151 C148 1.378 . S
C151 N152 1.315 . S
C151 H154 0.930 . S
N152 Co132 2.194 . S
N152 C147 1.328 . S
N152 C151 1.315 . S
H153 C147 0.929 . S
H154 C151 0.930 . S
H155 C143 0.929 . S
H156 C145 0.929 . S
O157 Co132 2.351 . S
O157 C160 1.244 . S
O158 Co132 2.155 . S
O158 C160 1.240 . S
O159 Co132 2.096 . S
O159 C140 1.247 . S
C160 O157 1.244 . S
C160 O158 1.240 . S
H161 C135 0.931 . S
H162 C144 0.931 . S
H163 C148 0.929 . S
H164 C150 0.930 . S
Co165 N169 2.152 . S
Co165 N175 2.128 . S
Co165 N185 2.194 . S
Co165 O190 2.351 . S
Co165 O191 2.155 . S
Co165 O192 2.096 . S
C166 N169 1.297 1_565 S
C166 N170 1.328 . S
C166 H171 0.930 . S
C167 C168 1.333 . S
C167 N169 1.316 1_565 S
C167 H172 0.930 1_565 S
C168 C167 1.333 . S
C168 N170 1.350 . S
C168 H194 0.931 . S
N169 Co165 2.152 . S
N169 C166 1.297 1_545 S
N169 C167 1.316 1_545 S
N170 C166 1.328 . S
N170 C168 1.350 . S
H171 C166 0.930 . S
H172 C167 0.930 1_545 S
C173 O174 1.224 . S
C173 O192 1.247 . S
O174 C173 1.224 . S
N175 Co165 2.128 . S
N175 C176 1.355 . S
N175 C178 1.311 . S
C176 N175 1.355 . S
C176 C177 1.363 . S
C176 H188 0.929 . S
C177 C176 1.363 . S
C177 N179 1.375 . S
C177 H195 0.931 . S
C178 N175 1.311 . S
C178 N179 1.347 . S
C178 H189 0.929 . S
N179 C177 1.375 . S
N179 C178 1.347 . S
C180 C183 1.365 . S
C180 N185 1.328 . S
C180 H186 0.929 . S
C181 C182 1.362 . S
C181 C184 1.378 . S
C181 H196 0.929 . S
C182 C181 1.362 . S
C182 C183 1.366 . S
C183 C180 1.365 . S
C183 C182 1.366 . S
C183 H197 0.930 . S
C184 C181 1.378 . S
C184 N185 1.315 . S
C184 H187 0.930 . S
N185 Co165 2.194 . S
N185 C180 1.328 . S
N185 C184 1.315 . S
H186 C180 0.929 . S
H187 C184 0.930 . S
H188 C176 0.929 . S
H189 C178 0.929 . S
O190 Co165 2.351 . S
O190 C193 1.244 . S
O191 Co165 2.155 . S
O191 C193 1.240 . S
O192 Co165 2.096 . S
O192 C173 1.247 . S
C193 O190 1.244 . S
C193 O191 1.240 . S
H194 C168 0.931 . S
H195 C177 0.931 . S
H196 C181 0.929 . S
H197 C183 0.930 . S
Co198 N202 2.148 . S
Co198 N208 2.128 . S
Co198 N218 2.194 . S
Co198 O223 2.351 . S
Co198 O224 2.155 . S
Co198 O225 2.096 . S
C199 N202 1.301 . S
C199 N203 1.328 . S
C199 H204 0.930 . S
C200 C201 1.333 . S
C200 N202 1.317 . S
C200 H205 0.930 . S
C201 C200 1.333 . S
C201 N203 1.350 . S
C201 H227 0.931 . S
N202 Co198 2.148 . S
N202 C199 1.301 . S
N202 C200 1.317 . S
N203 C199 1.328 . S
N203 C201 1.350 . S
H204 C199 0.930 . S
H205 C200 0.930 . S
C206 O207 1.224 . S
C206 O225 1.247 . S
O207 C206 1.224 . S
N208 Co198 2.128 . S
N208 C209 1.355 . S
N208 C211 1.311 . S
C209 N208 1.355 . S
C209 C210 1.363 . S
C209 H221 0.929 . S
C210 C209 1.363 . S
C210 N212 1.375 . S
C210 H228 0.931 . S
C211 N208 1.311 . S
C211 N212 1.347 . S
C211 H222 0.929 . S
N212 C210 1.375 . S
N212 C211 1.347 . S
C213 C216 1.365 . S
C213 N218 1.328 . S
C213 H219 0.929 . S
C214 C215 1.362 . S
C214 C217 1.378 . S
C214 H229 0.929 . S
C215 C214 1.362 . S
C215 C216 1.366 . S
C216 C213 1.365 . S
C216 C215 1.366 . S
C216 H230 0.930 . S
C217 C214 1.378 . S
C217 N218 1.315 . S
C217 H220 0.930 . S
N218 Co198 2.194 . S
N218 C213 1.328 . S
N218 C217 1.315 . S
H219 C213 0.929 . S
H220 C217 0.930 . S
H221 C209 0.929 . S
H222 C211 0.929 . S
O223 Co198 2.351 . S
O223 C226 1.244 . S
O224 Co198 2.155 . S
O224 C226 1.240 . S
O225 Co198 2.096 . S
O225 C206 1.247 . S
C226 O223 1.244 . S
C226 O224 1.240 . S
H227 C201 0.931 . S
H228 C210 0.931 . S
H229 C214 0.929 . S
H230 C216 0.930 . S
Co231 N235 2.148 . S
Co231 N241 2.128 . S
Co231 N251 2.194 . S
Co231 O256 2.351 . S
Co231 O257 2.155 . S
Co231 O258 2.096 . S
C232 N235 1.301 . S
C232 N236 1.328 . S
C232 H237 0.930 . S
C233 C234 1.333 . S
C233 N235 1.317 . S
C233 H238 0.930 . S
C234 C233 1.333 . S
C234 N236 1.350 . S
C234 H260 0.931 . S
N235 Co231 2.148 . S
N235 C232 1.301 . S
N235 C233 1.317 . S
N236 C232 1.328 . S
N236 C234 1.350 . S
H237 C232 0.930 . S
H238 C233 0.930 . S
C239 O240 1.224 . S
C239 O258 1.247 . S
O240 C239 1.224 . S
N241 Co231 2.128 . S
N241 C242 1.355 . S
N241 C244 1.311 . S
C242 N241 1.355 . S
C242 C243 1.363 . S
C242 H254 0.929 . S
C243 C242 1.363 . S
C243 N245 1.375 . S
C243 H261 0.931 . S
C244 N241 1.311 . S
C244 N245 1.347 . S
C244 H255 0.929 . S
N245 C243 1.375 . S
N245 C244 1.347 . S
C246 C249 1.365 . S
C246 N251 1.328 . S
C246 H252 0.929 . S
C247 C248 1.362 . S
C247 C250 1.378 . S
C247 H262 0.929 . S
C248 C247 1.362 . S
C248 C249 1.366 . S
C249 C246 1.365 . S
C249 C248 1.366 . S
C249 H263 0.930 . S
C250 C247 1.378 . S
C250 N251 1.315 . S
C250 H253 0.930 . S
N251 Co231 2.194 . S
N251 C246 1.328 . S
N251 C250 1.315 . S
H252 C246 0.929 . S
H253 C250 0.930 . S
H254 C242 0.929 . S
H255 C244 0.929 . S
O256 Co231 2.351 . S
O256 C259 1.244 . S
O257 Co231 2.155 . S
O257 C259 1.240 . S
O258 Co231 2.096 . S
O258 C239 1.247 . S
C259 O256 1.244 . S
C259 O257 1.240 . S
H260 C234 0.931 . S
H261 C243 0.931 . S
H262 C247 0.929 . S
H263 C249 0.930 . S
H264 C282 0.951 . S
H265 C284 0.951 . S
H266 C286 0.950 . S
H267 C287 0.950 1_565 S
H268 C289 0.950 . S
H269 C292 0.950 . S
H270 C293 0.950 . S
H271 C295 0.950 . S
H272 C296 0.950 . S
H273 C297 0.951 . S
H274 C299 0.951 . S
H275 C301 0.950 . S
H276 C302 0.950 1_545 S
H277 C304 0.950 . S
H278 C307 0.950 . S
H279 C308 0.950 . S
H280 C310 0.950 . S
H281 C311 0.950 . S
C282 H264 0.951 . S
C282 C283 1.366 . S
C282 C284 1.388 . S
C283 C282 1.366 . S
C283 C287 1.385 . S
C284 H265 0.951 . S
C284 C282 1.388 . S
C284 C285 1.366 . S
C285 C284 1.366 . S
C285 C286 1.414 1_545 S
C285 C288 1.499 . S
C286 H266 0.950 . S
C286 C285 1.414 1_565 S
C286 C287 1.374 1_565 S
C287 H267 0.950 1_545 S
C287 C283 1.385 . S
C287 C286 1.374 1_545 S
C288 C285 1.499 . S
C288 C289 1.373 . S
C288 C290 1.389 . S
C289 H268 0.950 . S
C289 C288 1.373 . S
C289 C305 1.377 1_545 S
C290 C288 1.389 . S
C290 C291 1.524 . S
C290 C304 1.377 1_545 S
C291 C290 1.524 . S
C291 C292 1.397 1_545 S
C291 C296 1.363 . S
C292 H269 0.950 . S
C292 C291 1.397 1_565 S
C292 C293 1.334 . S
C293 H270 0.950 . S
C293 C292 1.334 . S
C293 C294 1.287 1_564 S
C294 C293 1.287 1_546 S
C294 C295 1.524 . S
C294 H313 0.913 . S
C295 H271 0.950 . S
C295 C294 1.524 . S
C295 C296 1.415 1_556 S
C296 H272 0.950 . S
C296 C291 1.363 . S
C296 C295 1.415 1_554 S
C297 H273 0.951 . S
C297 C298 1.366 . S
C297 C299 1.388 . S
C298 C297 1.366 . S
C298 C302 1.385 . S
C299 H274 0.951 . S
C299 C297 1.388 . S
C299 C300 1.366 . S
C300 C299 1.366 . S
C300 C301 1.414 1_565 S
C300 C303 1.499 . S
C301 H275 0.950 . S
C301 C300 1.414 1_545 S
C301 C302 1.374 1_545 S
C302 H276 0.950 1_565 S
C302 C298 1.385 . S
C302 C301 1.374 1_565 S
C303 C300 1.499 . S
C303 C304 1.373 . S
C303 C305 1.389 . S
C304 H277 0.950 . S
C304 C290 1.377 1_565 S
C304 C303 1.373 . S
C305 C289 1.377 1_565 S
C305 C303 1.389 . S
C305 C306 1.524 . S
C306 C305 1.524 . S
C306 C307 1.397 1_565 S
C306 C311 1.363 . S
C307 H278 0.950 . S
C307 C306 1.397 1_545 S
C307 C308 1.334 . S
C308 H279 0.950 . S
C308 C307 1.334 . S
C308 C309 1.287 1_545 S
C309 C308 1.287 1_565 S
C309 C310 1.524 . S
C309 H312 0.999 . S
C310 H280 0.950 . S
C310 C309 1.524 . S
C310 C311 1.415 . S
C311 H281 0.950 . S
C311 C306 1.363 . S
C311 C310 1.415 . S
H312 C309 0.999 . S
H313 C294 0.913 . S
H314 C332 0.951 . S
H315 C334 0.951 . S
H316 C336 0.950 . S
H317 C337 0.950 . S
H318 C339 0.950 . S
H319 C342 0.950 . S
H320 C343 0.950 . S
H321 C345 0.950 . S
H322 C346 0.950 . S
H323 C347 0.951 . S
H324 C349 0.951 . S
H325 C351 0.950 . S
H326 C352 0.950 . S
H327 C354 0.950 . S
H328 C357 0.950 . S
H329 C358 0.950 . S
H330 C360 0.950 . S
H331 C361 0.950 . S
C332 H314 0.951 . S
C332 C333 1.366 . S
C332 C334 1.388 . S
C333 C332 1.366 . S
C333 C337 1.385 . S
C334 H315 0.951 . S
C334 C332 1.388 . S
C334 C335 1.366 . S
C335 C334 1.366 . S
C335 C336 1.414 . S
C335 C338 1.499 . S
C336 H316 0.950 . S
C336 C335 1.414 . S
C336 C337 1.374 . S
C337 H317 0.950 . S
C337 C333 1.385 . S
C337 C336 1.374 . S
C338 C335 1.499 . S
C338 C339 1.373 . S
C338 C340 1.389 . S
C339 H318 0.950 . S
C339 C338 1.373 . S
C339 C355 1.377 . S
C340 C338 1.389 . S
C340 C341 1.524 . S
C340 C354 1.377 . S
C341 C340 1.524 . S
C341 C342 1.397 . S
C341 C346 1.363 . S
C342 H319 0.950 . S
C342 C341 1.397 . S
C342 C343 1.334 . S
C343 H320 0.950 . S
C343 C342 1.334 . S
C343 C344 1.287 . S
C344 C343 1.287 . S
C344 C345 1.524 . S
C344 H363 0.913 . S
C345 H321 0.950 . S
C345 C344 1.524 . S
C345 C346 1.415 . S
C346 H322 0.950 . S
C346 C341 1.363 . S
C346 C345 1.415 . S
C347 H323 0.951 . S
C347 C348 1.366 . S
C347 C349 1.388 . S
C348 C347 1.366 . S
C348 C352 1.385 . S
C349 H324 0.951 . S
C349 C347 1.388 . S
C349 C350 1.366 . S
C350 C349 1.366 . S
C350 C351 1.414 . S
C350 C353 1.499 . S
C351 H325 0.950 . S
C351 C350 1.414 . S
C351 C352 1.374 . S
C352 H326 0.950 . S
C352 C348 1.385 . S
C352 C351 1.374 . S
C353 C350 1.499 . S
C353 C354 1.373 . S
C353 C355 1.389 . S
C354 H327 0.950 . S
C354 C340 1.377 . S
C354 C353 1.373 . S
C355 C339 1.377 . S
C355 C353 1.389 . S
C355 C356 1.524 . S
C356 C355 1.524 . S
C356 C357 1.397 . S
C356 C361 1.363 . S
C357 H328 0.950 . S
C357 C356 1.397 . S
C357 C358 1.334 . S
C358 H329 0.950 . S
C358 C357 1.334 . S
C358 C359 1.287 . S
C359 C358 1.287 . S
C359 C360 1.524 . S
C359 H362 0.999 . S
C360 H330 0.950 . S
C360 C359 1.524 . S
C360 C361 1.415 . S
C361 H331 0.950 . S
C361 C356 1.363 . S
C361 C360 1.415 . S
H362 C359 0.999 . S
H363 C344 0.913 . S
H364 C382 0.951 . S
H365 C384 0.951 . S
H366 C386 0.950 . S
H367 C387 0.950 1_545 S
H368 C389 0.951 . S
H369 C392 0.950 . S
H370 C393 0.950 . S
H371 C395 0.950 . S
H372 C396 0.950 . S
H373 C397 0.951 . S
H374 C399 0.951 . S
H375 C401 0.950 . S
H376 C402 0.950 1_565 S
H377 C404 0.951 . S
H378 C407 0.950 . S
H379 C408 0.950 . S
H380 C410 0.950 . S
H381 C411 0.950 . S
C382 H364 0.951 . S
C382 C383 1.366 . S
C382 C384 1.388 . S
C383 C382 1.366 . S
C383 C387 1.385 . S
C384 H365 0.951 . S
C384 C382 1.388 . S
C384 C385 1.366 . S
C385 C384 1.366 . S
C385 C386 1.414 1_565 S
C385 C388 1.499 . S
C386 H366 0.950 . S
C386 C385 1.414 1_545 S
C386 C387 1.374 1_545 S
C387 H367 0.950 1_565 S
C387 C383 1.385 . S
C387 C386 1.374 1_565 S
C388 C385 1.499 . S
C388 C389 1.370 1_565 S
C388 C390 1.389 . S
C389 H368 0.951 . S
C389 C388 1.370 1_545 S
C389 C405 1.380 . S
C390 C388 1.389 . S
C390 C391 1.524 . S
C390 C404 1.379 . S
C391 C390 1.524 . S
C391 C392 1.397 1_565 S
C391 C396 1.363 . S
C392 H369 0.950 . S
C392 C391 1.397 1_545 S
C392 C393 1.334 . S
C393 H370 0.950 . S
C393 C392 1.334 . S
C393 C394 1.287 1_545 S
C394 C393 1.287 1_565 S
C394 C395 1.524 . S
C394 H413 0.913 . S
C395 H371 0.950 . S
C395 C394 1.524 . S
C395 C396 1.415 . S
C396 H372 0.950 . S
C396 C391 1.363 . S
C396 C395 1.415 . S
C397 H373 0.951 . S
C397 C398 1.366 . S
C397 C399 1.388 . S
C398 C397 1.366 . S
C398 C402 1.385 . S
C399 H374 0.951 . S
C399 C397 1.388 . S
C399 C400 1.366 . S
C400 C399 1.366 . S
C400 C401 1.414 1_545 S
C400 C403 1.499 . S
C401 H375 0.950 . S
C401 C400 1.414 1_565 S
C401 C402 1.374 1_565 S
C402 H376 0.950 1_545 S
C402 C398 1.385 . S
C402 C401 1.374 1_545 S
C403 C400 1.499 . S
C403 C404 1.370 1_545 S
C403 C405 1.389 . S
C404 H377 0.951 . S
C404 C390 1.379 . S
C404 C403 1.370 1_565 S
C405 C389 1.380 . S
C405 C403 1.389 . S
C405 C406 1.524 . S
C406 C405 1.524 . S
C406 C407 1.397 1_545 S
C406 C411 1.363 . S
C407 H378 0.950 . S
C407 C406 1.397 1_565 S
C407 C408 1.334 . S
C408 H379 0.950 . S
C408 C407 1.334 . S
C408 C409 1.287 1_566 S
C409 C408 1.287 1_544 S
C409 C410 1.524 . S
C409 H412 0.999 . S
C410 H380 0.950 . S
C410 C409 1.524 . S
C410 C411 1.415 1_554 S
C411 H381 0.950 . S
C411 C406 1.363 . S
C411 C410 1.415 1_556 S
H412 C409 0.999 . S
H413 C394 0.913 . S
H414 C432 0.951 . S
H415 C434 0.951 . S
H416 C436 0.950 . S
H417 C437 0.950 . S
H418 C439 0.950 . S
H419 C442 0.950 . S
H420 C443 0.950 . S
H421 C445 0.950 . S
H422 C446 0.950 . S
H423 C447 0.951 . S
H424 C449 0.951 . S
H425 C451 0.950 . S
H426 C452 0.950 . S
H427 C454 0.950 . S
H428 C457 0.950 . S
H429 C458 0.950 . S
H430 C460 0.950 . S
H431 C461 0.950 . S
C432 H414 0.951 . S
C432 C433 1.366 . S
C432 C434 1.388 . S
C433 C432 1.366 . S
C433 C437 1.385 . S
C434 H415 0.951 . S
C434 C432 1.388 . S
C434 C435 1.366 . S
C435 C434 1.366 . S
C435 C436 1.414 . S
C435 C438 1.499 . S
C436 H416 0.950 . S
C436 C435 1.414 . S
C436 C437 1.374 . S
C437 H417 0.950 . S
C437 C433 1.385 . S
C437 C436 1.374 . S
C438 C435 1.499 . S
C438 C439 1.373 . S
C438 C440 1.389 . S
C439 H418 0.950 . S
C439 C438 1.373 . S
C439 C455 1.377 . S
C440 C438 1.389 . S
C440 C441 1.524 . S
C440 C454 1.377 . S
C441 C440 1.524 . S
C441 C442 1.397 . S
C441 C446 1.363 . S
C442 H419 0.950 . S
C442 C441 1.397 . S
C442 C443 1.334 . S
C443 H420 0.950 . S
C443 C442 1.334 . S
C443 C444 1.287 . S
C444 C443 1.287 . S
C444 C445 1.524 . S
C444 H463 0.913 . S
C445 H421 0.950 . S
C445 C444 1.524 . S
C445 C446 1.415 . S
C446 H422 0.950 . S
C446 C441 1.363 . S
C446 C445 1.415 . S
C447 H423 0.951 . S
C447 C448 1.366 . S
C447 C449 1.388 . S
C448 C447 1.366 . S
C448 C452 1.385 . S
C449 H424 0.951 . S
C449 C447 1.388 . S
C449 C450 1.366 . S
C450 C449 1.366 . S
C450 C451 1.414 . S
C450 C453 1.499 . S
C451 H425 0.950 . S
C451 C450 1.414 . S
C451 C452 1.374 . S
C452 H426 0.950 . S
C452 C448 1.385 . S
C452 C451 1.374 . S
C453 C450 1.499 . S
C453 C454 1.373 . S
C453 C455 1.389 . S
C454 H427 0.950 . S
C454 C440 1.377 . S
C454 C453 1.373 . S
C455 C439 1.377 . S
C455 C453 1.389 . S
C455 C456 1.524 . S
C456 C455 1.524 . S
C456 C457 1.397 . S
C456 C461 1.363 . S
C457 H428 0.950 . S
C457 C456 1.397 . S
C457 C458 1.334 . S
C458 H429 0.950 . S
C458 C457 1.334 . S
C458 C459 1.287 . S
C459 C458 1.287 . S
C459 C460 1.524 . S
C459 H462 0.999 . S
C460 H430 0.950 . S
C460 C459 1.524 . S
C460 C461 1.415 . S
C461 H431 0.950 . S
C461 C456 1.363 . S
C461 C460 1.415 . S
H462 C459 0.999 . S
H463 C444 0.913 . S
H464 C482 0.951 . S
H465 C484 0.951 1_565 S
H466 C486 0.950 . S
H467 C487 0.950 . S
H468 C489 0.952 . S
H469 C492 0.950 . S
H470 C493 0.950 . S
H471 C495 0.950 . S
H472 C496 0.950 1_565 S
H473 C497 0.951 . S
H474 C499 0.951 1_545 S
H475 C501 0.950 . S
H476 C502 0.950 . S
H477 C504 0.952 . S
H478 C507 0.950 . S
H479 C508 0.950 . S
H480 C510 0.950 . S
H481 C511 0.950 1_545 S
C482 H464 0.951 . S
C482 C483 1.366 . S
C482 C484 1.388 . S
C483 C482 1.366 . S
C483 C487 1.385 . S
C484 H465 0.951 1_545 S
C484 C482 1.388 . S
C484 C485 1.366 . S
C485 C484 1.366 . S
C485 C486 1.414 . S
C485 C488 1.499 . S
C486 H466 0.950 . S
C486 C485 1.414 . S
C486 C487 1.374 . S
C487 H467 0.950 . S
C487 C483 1.385 . S
C487 C486 1.374 . S
C488 C485 1.499 . S
C488 C489 1.349 1_445 S
C488 C490 1.389 1_554 S
C489 H468 0.952 . S
C489 C488 1.349 1_665 S
C489 C505 1.400 . S
C490 C488 1.389 1_556 S
C490 C491 1.524 . S
C490 C504 1.400 . S
C491 C490 1.524 . S
C491 C492 1.397 . S
C491 C496 1.363 . S
C492 H469 0.950 . S
C492 C491 1.397 . S
C492 C493 1.334 . S
C493 H470 0.950 . S
C493 C492 1.334 . S
C493 C494 1.287 . S
C494 C493 1.287 . S
C494 C495 1.524 . S
C494 H513 0.913 . S
C495 H471 0.950 . S
C495 C494 1.524 . S
C495 C496 1.415 . S
C496 H472 0.950 1_545 S
C496 C491 1.363 . S
C496 C495 1.415 . S
C497 H473 0.951 . S
C497 C498 1.366 . S
C497 C499 1.388 . S
C498 C497 1.366 . S
C498 C502 1.385 . S
C499 H474 0.951 1_565 S
C499 C497 1.388 . S
C499 C500 1.366 . S
C500 C499 1.366 . S
C500 C501 1.414 . S
C500 C503 1.499 . S
C501 H475 0.950 . S
C501 C500 1.414 . S
C501 C502 1.374 . S
C502 H476 0.950 . S
C502 C498 1.385 . S
C502 C501 1.374 . S
C503 C500 1.499 . S
C503 C504 1.349 1_665 S
C503 C505 1.389 1_556 S
C504 H477 0.952 . S
C504 C490 1.400 . S
C504 C503 1.349 1_445 S
C505 C489 1.400 . S
C505 C503 1.389 1_554 S
C505 C506 1.524 . S
C506 C505 1.524 . S
C506 C507 1.397 . S
C506 C511 1.363 . S
C507 H478 0.950 . S
C507 C506 1.397 . S
C507 C508 1.334 . S
C508 H479 0.950 . S
C508 C507 1.334 . S
C508 C509 1.287 . S
C509 C508 1.287 . S
C509 C510 1.524 . S
C509 H512 0.999 . S
C510 H480 0.950 . S
C510 C509 1.524 . S
C510 C511 1.415 . S
C511 H481 0.950 1_565 S
C511 C506 1.363 . S
C511 C510 1.415 . S
H512 C509 0.999 . S
H513 C494 0.913 . S
H514 C532 0.951 . S
H515 C534 0.951 . S
H516 C536 0.950 . S
H517 C537 0.950 . S
H518 C539 0.950 . S
H519 C542 0.950 . S
H520 C543 0.950 . S
H521 C545 0.950 . S
H522 C546 0.950 . S
H523 C547 0.951 . S
H524 C549 0.951 . S
H525 C551 0.950 . S
H526 C552 0.950 . S
H527 C554 0.950 . S
H528 C557 0.950 . S
H529 C558 0.950 . S
H530 C560 0.950 . S
H531 C561 0.950 . S
C532 H514 0.951 . S
C532 C533 1.366 . S
C532 C534 1.388 . S
C533 C532 1.366 . S
C533 C537 1.385 . S
C534 H515 0.951 . S
C534 C532 1.388 . S
C534 C535 1.366 . S
C535 C534 1.366 . S
C535 C536 1.414 . S
C535 C538 1.499 . S
C536 H516 0.950 . S
C536 C535 1.414 . S
C536 C537 1.374 . S
C537 H517 0.950 . S
C537 C533 1.385 . S
C537 C536 1.374 . S
C538 C535 1.499 . S
C538 C539 1.373 1_554 S
C538 C540 1.389 1_565 S
C539 H518 0.950 . S
C539 C538 1.373 1_556 S
C539 C555 1.377 . S
C540 C538 1.389 1_545 S
C540 C541 1.524 . S
C540 C554 1.377 . S
C541 C540 1.524 . S
C541 C542 1.397 . S
C541 C546 1.363 . S
C542 H519 0.950 . S
C542 C541 1.397 . S
C542 C543 1.334 . S
C543 H520 0.950 . S
C543 C542 1.334 . S
C543 C544 1.287 . S
C544 C543 1.287 . S
C544 C545 1.524 . S
C544 H563 0.913 . S
C545 H521 0.950 . S
C545 C544 1.524 . S
C545 C546 1.415 . S
C546 H522 0.950 . S
C546 C541 1.363 . S
C546 C545 1.415 . S
C547 H523 0.951 . S
C547 C548 1.366 . S
C547 C549 1.388 . S
C548 C547 1.366 . S
C548 C552 1.385 . S
C549 H524 0.951 . S
C549 C547 1.388 . S
C549 C550 1.366 . S
C550 C549 1.366 . S
C550 C551 1.414 . S
C550 C553 1.499 . S
C551 H525 0.950 . S
C551 C550 1.414 . S
C551 C552 1.374 . S
C552 H526 0.950 . S
C552 C548 1.385 . S
C552 C551 1.374 . S
C553 C550 1.499 . S
C553 C554 1.373 1_556 S
C553 C555 1.389 1_545 S
C554 H527 0.950 . S
C554 C540 1.377 . S
C554 C553 1.373 1_554 S
C555 C539 1.377 . S
C555 C553 1.389 1_565 S
C555 C556 1.524 . S
C556 C555 1.524 . S
C556 C557 1.397 . S
C556 C561 1.363 . S
C557 H528 0.950 . S
C557 C556 1.397 . S
C557 C558 1.334 . S
C558 H529 0.950 . S
C558 C557 1.334 . S
C558 C559 1.287 . S
C559 C558 1.287 . S
C559 C560 1.524 . S
C559 H562 0.999 . S
C560 H530 0.950 . S
C560 C559 1.524 . S
C560 C561 1.415 . S
C561 H531 0.950 . S
C561 C556 1.363 . S
C561 C560 1.415 . S
H562 C559 0.999 . S
H563 C544 0.913 . S
H564 C582 0.951 . S
H565 C584 0.951 . S
H566 C586 0.950 . S
H567 C587 0.950 . S
H568 C589 0.950 . S
H569 C592 0.950 . S
H570 C593 0.950 . S
H571 C595 0.950 . S
H572 C596 0.950 . S
H573 C597 0.951 . S
H574 C599 0.951 . S
H575 C601 0.950 . S
H576 C602 0.950 . S
H577 C604 0.950 . S
H578 C607 0.950 . S
H579 C608 0.950 . S
H580 C610 0.950 . S
H581 C611 0.950 . S
C582 H564 0.951 . S
C582 C583 1.366 . S
C582 C584 1.388 . S
C583 C582 1.366 . S
C583 C587 1.385 . S
C584 H565 0.951 . S
C584 C582 1.388 . S
C584 C585 1.366 . S
C585 C584 1.366 . S
C585 C586 1.414 . S
C585 C588 1.499 . S
C586 H566 0.950 . S
C586 C585 1.414 . S
C586 C587 1.374 . S
C587 H567 0.950 . S
C587 C583 1.385 . S
C587 C586 1.374 . S
C588 C585 1.499 . S
C588 C589 1.373 . S
C588 C590 1.389 . S
C589 H568 0.950 . S
C589 C588 1.373 . S
C589 C605 1.377 1_455 S
C590 C588 1.389 . S
C590 C591 1.524 . S
C590 C604 1.377 1_455 S
C591 C590 1.524 . S
C591 C592 1.397 . S
C591 C596 1.363 . S
C592 H569 0.950 . S
C592 C591 1.397 . S
C592 C593 1.334 . S
C593 H570 0.950 . S
C593 C592 1.334 . S
C593 C594 1.287 . S
C594 C593 1.287 . S
C594 C595 1.524 . S
C594 H613 0.913 . S
C595 H571 0.950 . S
C595 C594 1.524 . S
C595 C596 1.415 . S
C596 H572 0.950 . S
C596 C591 1.363 . S
C596 C595 1.415 . S
C597 H573 0.951 . S
C597 C598 1.366 . S
C597 C599 1.388 . S
C598 C597 1.366 . S
C598 C602 1.385 . S
C599 H574 0.951 . S
C599 C597 1.388 . S
C599 C600 1.366 . S
C600 C599 1.366 . S
C600 C601 1.414 . S
C600 C603 1.499 . S
C601 H575 0.950 . S
C601 C600 1.414 . S
C601 C602 1.374 . S
C602 H576 0.950 . S
C602 C598 1.385 . S
C602 C601 1.374 . S
C603 C600 1.499 . S
C603 C604 1.373 . S
C603 C605 1.389 . S
C604 H577 0.950 . S
C604 C590 1.377 1_655 S
C604 C603 1.373 . S
C605 C589 1.377 1_655 S
C605 C603 1.389 . S
C605 C606 1.524 . S
C606 C605 1.524 . S
C606 C607 1.397 . S
C606 C611 1.363 . S
C607 H578 0.950 . S
C607 C606 1.397 . S
C607 C608 1.334 . S
C608 H579 0.950 . S
C608 C607 1.334 . S
C608 C609 1.287 . S
C609 C608 1.287 . S
C609 C610 1.524 . S
C609 H612 0.999 . S
C610 H580 0.950 . S
C610 C609 1.524 . S
C610 C611 1.415 . S
C611 H581 0.950 . S
C611 C606 1.363 . S
C611 C610 1.415 . S
H612 C609 0.999 . S
H613 C594 0.913 . S
H614 C632 0.951 . S
H615 C634 0.951 . S
H616 C636 0.950 . S
H617 C637 0.950 . S
H618 C639 0.950 . S
H619 C642 0.950 . S
H620 C643 0.950 . S
H621 C645 0.950 . S
H622 C646 0.950 . S
H623 C647 0.951 . S
H624 C649 0.951 . S
H625 C651 0.950 . S
H626 C652 0.950 . S
H627 C654 0.950 . S
H628 C657 0.950 . S
H629 C658 0.950 . S
H630 C660 0.950 . S
H631 C661 0.950 . S
C632 H614 0.951 . S
C632 C633 1.366 . S
C632 C634 1.388 . S
C633 C632 1.366 . S
C633 C637 1.385 . S
C634 H615 0.951 . S
C634 C632 1.388 . S
C634 C635 1.366 . S
C635 C634 1.366 . S
C635 C636 1.414 . S
C635 C638 1.499 . S
C636 H616 0.950 . S
C636 C635 1.414 . S
C636 C637 1.374 . S
C637 H617 0.950 . S
C637 C633 1.385 . S
C637 C636 1.374 . S
C638 C635 1.499 . S
C638 C639 1.373 . S
C638 C640 1.389 . S
C639 H618 0.950 . S
C639 C638 1.373 . S
C639 C655 1.377 . S
C640 C638 1.389 . S
C640 C641 1.524 . S
C640 C654 1.377 . S
C641 C640 1.524 . S
C641 C642 1.397 . S
C641 C646 1.363 . S
C642 H619 0.950 . S
C642 C641 1.397 . S
C642 C643 1.334 . S
C643 H620 0.950 . S
C643 C642 1.334 . S
C643 C644 1.287 . S
C644 C643 1.287 . S
C644 C645 1.524 . S
C644 H663 0.913 . S
C645 H621 0.950 . S
C645 C644 1.524 . S
C645 C646 1.415 . S
C646 H622 0.950 . S
C646 C641 1.363 . S
C646 C645 1.415 . S
C647 H623 0.951 . S
C647 C648 1.366 . S
C647 C649 1.388 . S
C648 C647 1.366 . S
C648 C652 1.385 . S
C649 H624 0.951 . S
C649 C647 1.388 . S
C649 C650 1.366 . S
C650 C649 1.366 . S
C650 C651 1.414 . S
C650 C653 1.499 . S
C651 H625 0.950 . S
C651 C650 1.414 . S
C651 C652 1.374 . S
C652 H626 0.950 . S
C652 C648 1.385 . S
C652 C651 1.374 . S
C653 C650 1.499 . S
C653 C654 1.373 . S
C653 C655 1.389 . S
C654 H627 0.950 . S
C654 C640 1.377 . S
C654 C653 1.373 . S
C655 C639 1.377 . S
C655 C653 1.389 . S
C655 C656 1.524 . S
C656 C655 1.524 . S
C656 C657 1.397 . S
C656 C661 1.363 . S
C657 H628 0.950 . S
C657 C656 1.397 . S
C657 C658 1.334 . S
C658 H629 0.950 . S
C658 C657 1.334 . S
C658 C659 1.287 . S
C659 C658 1.287 . S
C659 C660 1.524 . S
C659 H662 0.999 . S
C660 H630 0.950 . S
C660 C659 1.524 . S
C660 C661 1.415 . S
C661 H631 0.950 . S
C661 C656 1.363 . S
C661 C660 1.415 . S
H662 C659 0.999 . S
H663 C644 0.913 . S
H664 C682 0.951 . S
H665 C684 0.951 . S
H666 C686 0.950 . S
H667 C687 0.950 . S
H668 C689 0.950 . S
H669 C692 0.950 . S
H670 C693 0.950 . S
H671 C695 0.950 . S
H672 C696 0.950 . S
H673 C697 0.951 . S
H674 C699 0.951 . S
H675 C701 0.950 . S
H676 C702 0.950 . S
H677 C704 0.950 . S
H678 C707 0.950 . S
H679 C708 0.950 . S
H680 C710 0.950 . S
H681 C711 0.950 . S
C682 H664 0.951 . S
C682 C683 1.366 . S
C682 C684 1.388 . S
C683 C682 1.366 . S
C683 C687 1.385 . S
C684 H665 0.951 . S
C684 C682 1.388 . S
C684 C685 1.366 . S
C685 C684 1.366 . S
C685 C686 1.414 . S
C685 C688 1.499 . S
C686 H666 0.950 . S
C686 C685 1.414 . S
C686 C687 1.374 . S
C687 H667 0.950 . S
C687 C683 1.385 . S
C687 C686 1.374 . S
C688 C685 1.499 . S
C688 C689 1.373 . S
C688 C690 1.389 . S
C689 H668 0.950 . S
C689 C688 1.373 . S
C689 C705 1.377 . S
C690 C688 1.389 . S
C690 C691 1.524 . S
C690 C704 1.377 . S
C691 C690 1.524 . S
C691 C692 1.397 . S
C691 C696 1.363 . S
C692 H669 0.950 . S
C692 C691 1.397 . S
C692 C693 1.334 . S
C693 H670 0.950 . S
C693 C692 1.334 . S
C693 C694 1.287 . S
C694 C693 1.287 . S
C694 C695 1.524 . S
C694 H713 0.913 . S
C695 H671 0.950 . S
C695 C694 1.524 . S
C695 C696 1.415 . S
C696 H672 0.950 . S
C696 C691 1.363 . S
C696 C695 1.415 . S
C697 H673 0.951 . S
C697 C698 1.366 . S
C697 C699 1.388 . S
C698 C697 1.366 . S
C698 C702 1.385 . S
C699 H674 0.951 . S
C699 C697 1.388 . S
C699 C700 1.366 . S
C700 C699 1.366 . S
C700 C701 1.414 . S
C700 C703 1.499 . S
C701 H675 0.950 . S
C701 C700 1.414 . S
C701 C702 1.374 . S
C702 H676 0.950 . S
C702 C698 1.385 . S
C702 C701 1.374 . S
C703 C700 1.499 . S
C703 C704 1.373 . S
C703 C705 1.389 . S
C704 H677 0.950 . S
C704 C690 1.377 . S
C704 C703 1.373 . S
C705 C689 1.377 . S
C705 C703 1.389 . S
C705 C706 1.524 . S
C706 C705 1.524 . S
C706 C707 1.397 . S
C706 C711 1.363 . S
C707 H678 0.950 . S
C707 C706 1.397 . S
C707 C708 1.334 . S
C708 H679 0.950 . S
C708 C707 1.334 . S
C708 C709 1.287 . S
C709 C708 1.287 . S
C709 C710 1.524 . S
C709 H712 0.999 . S
C710 H680 0.950 . S
C710 C709 1.524 . S
C710 C711 1.415 . S
C711 H681 0.950 . S
C711 C706 1.363 . S
C711 C710 1.415 . S
H712 C709 0.999 . S
H713 C694 0.913 . S
H714 C732 0.951 . S
H715 C734 0.951 . S
H716 C736 0.950 . S
H717 C737 0.950 . S
H718 C739 0.950 . S
H719 C742 0.950 . S
H720 C743 0.950 . S
H721 C745 0.950 . S
H722 C746 0.950 . S
H723 C747 0.951 . S
H724 C749 0.951 . S
H725 C751 0.950 . S
H726 C752 0.950 . S
H727 C754 0.950 . S
H728 C757 0.950 . S
H729 C758 0.950 . S
H730 C760 0.950 . S
H731 C761 0.950 . S
C732 H714 0.951 . S
C732 C733 1.366 . S
C732 C734 1.388 . S
C733 C732 1.366 . S
C733 C737 1.385 . S
C734 H715 0.951 . S
C734 C732 1.388 . S
C734 C735 1.366 . S
C735 C734 1.366 . S
C735 C736 1.414 . S
C735 C738 1.499 . S
C736 H716 0.950 . S
C736 C735 1.414 . S
C736 C737 1.374 . S
C737 H717 0.950 . S
C737 C733 1.385 . S
C737 C736 1.374 . S
C738 C735 1.499 . S
C738 C739 1.373 . S
C738 C740 1.389 . S
C739 H718 0.950 . S
C739 C738 1.373 . S
C739 C755 1.377 . S
C740 C738 1.389 . S
C740 C741 1.524 . S
C740 C754 1.377 . S
C741 C740 1.524 . S
C741 C742 1.397 . S
C741 C746 1.363 . S
C742 H719 0.950 . S
C742 C741 1.397 . S
C742 C743 1.334 . S
C743 H720 0.950 . S
C743 C742 1.334 . S
C743 C744 1.287 . S
C744 C743 1.287 . S
C744 C745 1.524 . S
C744 H763 0.913 . S
C745 H721 0.950 . S
C745 C744 1.524 . S
C745 C746 1.415 . S
C746 H722 0.950 . S
C746 C741 1.363 . S
C746 C745 1.415 . S
C747 H723 0.951 . S
C747 C748 1.366 . S
C747 C749 1.388 . S
C748 C747 1.366 . S
C748 C752 1.385 . S
C749 H724 0.951 . S
C749 C747 1.388 . S
C749 C750 1.366 . S
C750 C749 1.366 . S
C750 C751 1.414 . S
C750 C753 1.499 . S
C751 H725 0.950 . S
C751 C750 1.414 . S
C751 C752 1.374 . S
C752 H726 0.950 . S
C752 C748 1.385 . S
C752 C751 1.374 . S
C753 C750 1.499 . S
C753 C754 1.373 . S
C753 C755 1.389 . S
C754 H727 0.950 . S
C754 C740 1.377 . S
C754 C753 1.373 . S
C755 C739 1.377 . S
C755 C753 1.389 . S
C755 C756 1.524 . S
C756 C755 1.524 . S
C756 C757 1.397 . S
C756 C761 1.363 . S
C757 H728 0.950 . S
C757 C756 1.397 . S
C757 C758 1.334 . S
C758 H729 0.950 . S
C758 C757 1.334 . S
C758 C759 1.287 . S
C759 C758 1.287 . S
C759 C760 1.524 . S
C759 H762 0.999 . S
C760 H730 0.950 . S
C760 C759 1.524 . S
C760 C761 1.415 . S
C761 H731 0.950 . S
C761 C756 1.363 . S
C761 C760 1.415 . S
H762 C759 0.999 . S
H763 C744 0.913 . S
H764 C782 0.951 . S
H765 C784 0.951 . S
H766 C786 0.950 . S
H767 C787 0.950 . S
H768 C789 0.950 . S
H769 C792 0.950 . S
H770 C793 0.950 . S
H771 C795 0.950 . S
H772 C796 0.950 . S
H773 C797 0.951 . S
H774 C799 0.951 . S
H775 C801 0.950 . S
H776 C802 0.950 . S
H777 C804 0.950 . S
H778 C807 0.950 . S
H779 C808 0.950 . S
H780 C810 0.950 . S
H781 C811 0.950 . S
C782 H764 0.951 . S
C782 C783 1.366 . S
C782 C784 1.388 . S
C783 C782 1.366 . S
C783 C787 1.385 . S
C784 H765 0.951 . S
C784 C782 1.388 . S
C784 C785 1.366 . S
C785 C784 1.366 . S
C785 C786 1.414 . S
C785 C788 1.499 . S
C786 H766 0.950 . S
C786 C785 1.414 . S
C786 C787 1.374 . S
C787 H767 0.950 . S
C787 C783 1.385 . S
C787 C786 1.374 . S
C788 C785 1.499 . S
C788 C789 1.373 . S
C788 C790 1.389 . S
C789 H768 0.950 . S
C789 C788 1.373 . S
C789 C805 1.377 . S
C790 C788 1.389 . S
C790 C791 1.524 . S
C790 C804 1.377 . S
C791 C790 1.524 . S
C791 C792 1.397 . S
C791 C796 1.363 . S
C792 H769 0.950 . S
C792 C791 1.397 . S
C792 C793 1.334 . S
C793 H770 0.950 . S
C793 C792 1.334 . S
C793 C794 1.287 . S
C794 C793 1.287 . S
C794 C795 1.524 . S
C794 H813 0.913 . S
C795 H771 0.950 . S
C795 C794 1.524 . S
C795 C796 1.415 . S
C796 H772 0.950 . S
C796 C791 1.363 . S
C796 C795 1.415 . S
C797 H773 0.951 . S
C797 C798 1.366 . S
C797 C799 1.388 . S
C798 C797 1.366 . S
C798 C802 1.385 . S
C799 H774 0.951 . S
C799 C797 1.388 . S
C799 C800 1.366 . S
C800 C799 1.366 . S
C800 C801 1.414 . S
C800 C803 1.499 . S
C801 H775 0.950 . S
C801 C800 1.414 . S
C801 C802 1.374 . S
C802 H776 0.950 . S
C802 C798 1.385 . S
C802 C801 1.374 . S
C803 C800 1.499 . S
C803 C804 1.373 . S
C803 C805 1.389 . S
C804 H777 0.950 . S
C804 C790 1.377 . S
C804 C803 1.373 . S
C805 C789 1.377 . S
C805 C803 1.389 . S
C805 C806 1.524 . S
C806 C805 1.524 . S
C806 C807 1.397 . S
C806 C811 1.363 . S
C807 H778 0.950 . S
C807 C806 1.397 . S
C807 C808 1.334 . S
C808 H779 0.950 . S
C808 C807 1.334 . S
C808 C809 1.287 . S
C809 C808 1.287 . S
C809 C810 1.524 . S
C809 H812 0.999 . S
C810 H780 0.950 . S
C810 C809 1.524 . S
C810 C811 1.415 . S
C811 H781 0.950 . S
C811 C806 1.363 . S
C811 C810 1.415 . S
H812 C809 0.999 . S
H813 C794 0.913 . S
H814 C832 0.951 . S
H815 C834 0.951 . S
H816 C836 0.950 . S
H817 C837 0.950 . S
H818 C839 0.950 . S
H819 C842 0.950 . S
H820 C843 0.950 . S
H821 C845 0.950 . S
H822 C846 0.950 . S
H823 C847 0.951 . S
H824 C849 0.951 . S
H825 C851 0.950 . S
H826 C852 0.950 . S
H827 C854 0.950 . S
H828 C857 0.950 . S
H829 C858 0.950 . S
H830 C860 0.950 . S
H831 C861 0.950 . S
C832 H814 0.951 . S
C832 C833 1.366 . S
C832 C834 1.388 . S
C833 C832 1.366 . S
C833 C837 1.385 . S
C834 H815 0.951 . S
C834 C832 1.388 . S
C834 C835 1.366 . S
C835 C834 1.366 . S
C835 C836 1.414 . S
C835 C838 1.499 . S
C836 H816 0.950 . S
C836 C835 1.414 . S
C836 C837 1.374 . S
C837 H817 0.950 . S
C837 C833 1.385 . S
C837 C836 1.374 . S
C838 C835 1.499 . S
C838 C839 1.373 . S
C838 C840 1.389 . S
C839 H818 0.950 . S
C839 C838 1.373 . S
C839 C855 1.377 . S
C840 C838 1.389 . S
C840 C841 1.524 . S
C840 C854 1.377 . S
C841 C840 1.524 . S
C841 C842 1.397 . S
C841 C846 1.363 . S
C842 H819 0.950 . S
C842 C841 1.397 . S
C842 C843 1.334 . S
C843 H820 0.950 . S
C843 C842 1.334 . S
C843 C844 1.287 . S
C844 C843 1.287 . S
C844 C845 1.524 . S
C844 H863 0.913 1_545 S
C845 H821 0.950 . S
C845 C844 1.524 . S
C845 C846 1.415 . S
C846 H822 0.950 . S
C846 C841 1.363 . S
C846 C845 1.415 . S
C847 H823 0.951 . S
C847 C848 1.366 . S
C847 C849 1.388 . S
C848 C847 1.366 . S
C848 C852 1.385 . S
C849 H824 0.951 . S
C849 C847 1.388 . S
C849 C850 1.366 . S
C850 C849 1.366 . S
C850 C851 1.414 . S
C850 C853 1.499 . S
C851 H825 0.950 . S
C851 C850 1.414 . S
C851 C852 1.374 . S
C852 H826 0.950 . S
C852 C848 1.385 . S
C852 C851 1.374 . S
C853 C850 1.499 . S
C853 C854 1.373 . S
C853 C855 1.389 . S
C854 H827 0.950 . S
C854 C840 1.377 . S
C854 C853 1.373 . S
C855 C839 1.377 . S
C855 C853 1.389 . S
C855 C856 1.524 . S
C856 C855 1.524 . S
C856 C857 1.397 . S
C856 C861 1.363 . S
C857 H828 0.950 . S
C857 C856 1.397 . S
C857 C858 1.334 . S
C858 H829 0.950 . S
C858 C857 1.334 . S
C858 C859 1.287 . S
C859 C858 1.287 . S
C859 C860 1.524 . S
C859 H862 0.999 . S
C860 H830 0.950 . S
C860 C859 1.524 . S
C860 C861 1.415 . S
C861 H831 0.950 . S
C861 C856 1.363 . S
C861 C860 1.415 . S
H862 C859 0.999 . S
H863 C844 0.913 1_565 S
H864 C882 0.951 . S
H865 C884 0.951 . S
H866 C886 0.950 . S
H867 C887 0.950 . S
H868 C889 0.950 . S
H869 C892 0.950 . S
H870 C893 0.950 . S
H871 C895 0.950 . S
H872 C896 0.950 . S
H873 C897 0.951 . S
H874 C899 0.951 . S
H875 C901 0.950 . S
H876 C902 0.950 . S
H877 C904 0.950 . S
H878 C907 0.950 . S
H879 C908 0.950 . S
H880 C910 0.950 . S
H881 C911 0.950 . S
C882 H864 0.951 . S
C882 C883 1.366 . S
C882 C884 1.388 . S
C883 C882 1.366 . S
C883 C887 1.385 . S
C884 H865 0.951 . S
C884 C882 1.388 . S
C884 C885 1.366 . S
C885 C884 1.366 . S
C885 C886 1.414 . S
C885 C888 1.499 . S
C886 H866 0.950 . S
C886 C885 1.414 . S
C886 C887 1.374 . S
C887 H867 0.950 . S
C887 C883 1.385 . S
C887 C886 1.374 . S
C888 C885 1.499 . S
C888 C889 1.373 . S
C888 C890 1.389 . S
C889 H868 0.950 . S
C889 C888 1.373 . S
C889 C905 1.377 . S
C890 C888 1.389 . S
C890 C891 1.524 . S
C890 C904 1.377 . S
C891 C890 1.524 . S
C891 C892 1.397 . S
C891 C896 1.363 . S
C892 H869 0.950 . S
C892 C891 1.397 . S
C892 C893 1.334 . S
C893 H870 0.950 . S
C893 C892 1.334 . S
C893 C894 1.287 . S
C894 C893 1.287 . S
C894 C895 1.524 . S
C894 H913 0.913 . S
C895 H871 0.950 . S
C895 C894 1.524 . S
C895 C896 1.415 . S
C896 H872 0.950 . S
C896 C891 1.363 . S
C896 C895 1.415 . S
C897 H873 0.951 . S
C897 C898 1.366 . S
C897 C899 1.388 . S
C898 C897 1.366 . S
C898 C902 1.385 . S
C899 H874 0.951 . S
C899 C897 1.388 . S
C899 C900 1.366 . S
C900 C899 1.366 . S
C900 C901 1.414 . S
C900 C903 1.499 . S
C901 H875 0.950 . S
C901 C900 1.414 . S
C901 C902 1.374 . S
C902 H876 0.950 . S
C902 C898 1.385 . S
C902 C901 1.374 . S
C903 C900 1.499 . S
C903 C904 1.373 . S
C903 C905 1.389 . S
C904 H877 0.950 . S
C904 C890 1.377 . S
C904 C903 1.373 . S
C905 C889 1.377 . S
C905 C903 1.389 . S
C905 C906 1.524 . S
C906 C905 1.524 . S
C906 C907 1.397 . S
C906 C911 1.363 . S
C907 H878 0.950 . S
C907 C906 1.397 . S
C907 C908 1.334 . S
C908 H879 0.950 . S
C908 C907 1.334 . S
C908 C909 1.287 . S
C909 C908 1.287 . S
C909 C910 1.524 . S
C909 H912 0.999 . S
C910 H880 0.950 . S
C910 C909 1.524 . S
C910 C911 1.415 . S
C911 H881 0.950 . S
C911 C906 1.363 . S
C911 C910 1.415 . S
H912 C909 0.999 . S
H913 C894 0.913 . S
H914 C932 0.951 . S
H915 C934 0.951 . S
H916 C936 0.950 . S
H917 C937 0.950 . S
H918 C939 0.950 . S
H919 C942 0.950 . S
H920 C943 0.950 . S
H921 C945 0.950 . S
H922 C946 0.950 . S
H923 C947 0.951 . S
H924 C949 0.951 . S
H925 C951 0.950 . S
H926 C952 0.950 . S
H927 C954 0.950 . S
H928 C957 0.950 . S
H929 C958 0.950 . S
H930 C960 0.950 . S
H931 C961 0.950 . S
C932 H914 0.951 . S
C932 C933 1.366 . S
C932 C934 1.388 . S
C933 C932 1.366 . S
C933 C937 1.385 . S
C934 H915 0.951 . S
C934 C932 1.388 . S
C934 C935 1.366 . S
C935 C934 1.366 . S
C935 C936 1.414 . S
C935 C938 1.499 . S
C936 H916 0.950 . S
C936 C935 1.414 . S
C936 C937 1.374 . S
C937 H917 0.950 . S
C937 C933 1.385 . S
C937 C936 1.374 . S
C938 C935 1.499 . S
C938 C939 1.373 . S
C938 C940 1.389 . S
C939 H918 0.950 . S
C939 C938 1.373 . S
C939 C955 1.377 . S
C940 C938 1.389 . S
C940 C941 1.524 . S
C940 C954 1.377 . S
C941 C940 1.524 . S
C941 C942 1.397 . S
C941 C946 1.363 . S
C942 H919 0.950 . S
C942 C941 1.397 . S
C942 C943 1.334 . S
C943 H920 0.950 . S
C943 C942 1.334 . S
C943 C944 1.287 . S
C944 C943 1.287 . S
C944 C945 1.524 . S
C944 H963 0.913 . S
C945 H921 0.950 . S
C945 C944 1.524 . S
C945 C946 1.415 . S
C946 H922 0.950 . S
C946 C941 1.363 . S
C946 C945 1.415 . S
C947 H923 0.951 . S
C947 C948 1.366 . S
C947 C949 1.388 . S
C948 C947 1.366 . S
C948 C952 1.385 . S
C949 H924 0.951 . S
C949 C947 1.388 . S
C949 C950 1.366 . S
C950 C949 1.366 . S
C950 C951 1.414 . S
C950 C953 1.499 . S
C951 H925 0.950 . S
C951 C950 1.414 . S
C951 C952 1.374 . S
C952 H926 0.950 . S
C952 C948 1.385 . S
C952 C951 1.374 . S
C953 C950 1.499 . S
C953 C954 1.373 . S
C953 C955 1.389 . S
C954 H927 0.950 . S
C954 C940 1.377 . S
C954 C953 1.373 . S
C955 C939 1.377 . S
C955 C953 1.389 . S
C955 C956 1.524 . S
C956 C955 1.524 . S
C956 C957 1.397 . S
C956 C961 1.363 . S
C957 H928 0.950 . S
C957 C956 1.397 . S
C957 C958 1.334 . S
C958 H929 0.950 . S
C958 C957 1.334 . S
C958 C959 1.287 . S
C959 C958 1.287 . S
C959 C960 1.524 . S
C959 H962 0.999 . S
C960 H930 0.950 . S
C960 C959 1.524 . S
C960 C961 1.415 . S
C961 H931 0.950 . S
C961 C956 1.363 . S
C961 C960 1.415 . S
H962 C959 0.999 . S
H963 C944 0.913 . S
H964 C982 0.951 . S
H965 C984 0.951 . S
H966 C986 0.950 . S
H967 C987 0.950 . S
H968 C989 0.950 . S
H969 C992 0.950 . S
H970 C993 0.950 . S
H971 C995 0.950 . S
H972 C996 0.950 . S
H973 C997 0.951 . S
H974 C999 0.951 . S
H975 C1001 0.950 . S
H976 C1002 0.950 . S
H977 C1004 0.950 . S
H978 C1007 0.950 . S
H979 C1008 0.950 . S
H980 C1010 0.950 . S
H981 C1011 0.950 . S
C982 H964 0.951 . S
C982 C983 1.366 . S
C982 C984 1.388 . S
C983 C982 1.366 . S
C983 C987 1.385 . S
C984 H965 0.951 . S
C984 C982 1.388 . S
C984 C985 1.366 . S
C985 C984 1.366 . S
C985 C986 1.414 . S
C985 C988 1.499 1_545 S
C986 H966 0.950 . S
C986 C985 1.414 . S
C986 C987 1.374 . S
C987 H967 0.950 . S
C987 C983 1.385 . S
C987 C986 1.374 . S
C988 C985 1.499 1_565 S
C988 C989 1.373 . S
C988 C990 1.389 . S
C989 H968 0.950 . S
C989 C988 1.373 . S
C989 C1005 1.377 . S
C990 C988 1.389 . S
C990 C991 1.524 . S
C990 C1004 1.377 . S
C991 C990 1.524 . S
C991 C992 1.397 1_565 S
C991 C996 1.363 . S
C992 H969 0.950 . S
C992 C991 1.397 1_545 S
C992 C993 1.334 . S
C993 H970 0.950 . S
C993 C992 1.334 . S
C993 C994 1.287 . S
C994 C993 1.287 . S
C994 C995 1.524 1_545 S
C994 H1013 0.913 . S
C995 H971 0.950 . S
C995 C994 1.524 1_565 S
C995 C996 1.415 . S
C996 H972 0.950 . S
C996 C991 1.363 . S
C996 C995 1.415 . S
C997 H973 0.951 . S
C997 C998 1.366 . S
C997 C999 1.388 . S
C998 C997 1.366 . S
C998 C1002 1.385 . S
C999 H974 0.951 . S
C999 C997 1.388 . S
C999 C1000 1.366 . S
C1000 C999 1.366 . S
C1000 C1001 1.414 . S
C1000 C1003 1.499 . S
C1001 H975 0.950 . S
C1001 C1000 1.414 . S
C1001 C1002 1.374 . S
C1002 H976 0.950 . S
C1002 C998 1.385 . S
C1002 C1001 1.374 . S
C1003 C1000 1.499 . S
C1003 C1004 1.373 . S
C1003 C1005 1.389 . S
C1004 H977 0.950 . S
C1004 C990 1.377 . S
C1004 C1003 1.373 . S
C1005 C989 1.377 . S
C1005 C1003 1.389 . S
C1005 C1006 1.524 . S
C1006 C1005 1.524 . S
C1006 C1007 1.397 . S
C1006 C1011 1.363 . S
C1007 H978 0.950 . S
C1007 C1006 1.397 . S
C1007 C1008 1.334 . S
C1008 H979 0.950 . S
C1008 C1007 1.334 . S
C1008 C1009 1.287 . S
C1009 C1008 1.287 . S
C1009 C1010 1.524 . S
C1009 H1012 0.999 . S
C1010 H980 0.950 . S
C1010 C1009 1.524 . S
C1010 C1011 1.415 . S
C1011 H981 0.950 . S
C1011 C1006 1.363 . S
C1011 C1010 1.415 . S
H1012 C1009 0.999 . S
H1013 C994 0.913 . S
H1014 C1032 0.951 . S
H1015 C1034 0.951 . S
H1016 C1036 0.950 . S
H1017 C1037 0.950 . S
H1018 C1039 0.950 . S
H1019 C1042 0.952 . S
H1020 C1043 0.950 . S
H1021 C1045 0.950 . S
H1022 C1046 0.950 . S
H1023 C1047 0.951 . S
H1024 C1049 0.951 . S
H1025 C1051 0.950 . S
H1026 C1052 0.950 . S
H1027 C1054 0.950 . S
H1028 C1057 0.950 . S
H1029 C1058 0.950 . S
H1030 C1060 0.950 . S
H1031 C1061 0.950 . S
C1032 H1014 0.951 . S
C1032 C1033 1.366 . S
C1032 C1034 1.388 . S
C1033 C1032 1.366 . S
C1033 C1037 1.385 . S
C1034 H1015 0.951 . S
C1034 C1032 1.388 . S
C1034 C1035 1.366 . S
C1035 C1034 1.366 . S
C1035 C1036 1.414 . S
C1035 C1038 1.499 1_565 S
C1036 H1016 0.950 . S
C1036 C1035 1.414 . S
C1036 C1037 1.374 . S
C1037 H1017 0.950 . S
C1037 C1033 1.385 . S
C1037 C1036 1.374 . S
C1038 C1035 1.499 1_545 S
C1038 C1039 1.373 . S
C1038 C1040 1.389 . S
C1039 H1018 0.950 . S
C1039 C1038 1.373 . S
C1039 C1055 1.377 . S
C1040 C1038 1.389 . S
C1040 C1041 1.524 . S
C1040 C1054 1.377 . S
C1041 C1040 1.524 . S
C1041 C1042 1.397 . S
C1041 C1046 1.363 . S
C1042 H1019 0.952 . S
C1042 C1041 1.397 . S
C1042 C1043 1.334 1_545 S
C1043 H1020 0.950 . S
C1043 C1042 1.334 1_565 S
C1043 C1044 1.286 1_565 S
C1044 C1043 1.286 1_545 S
C1044 C1045 1.525 . S
C1044 H1063 0.913 1_545 S
C1045 H1021 0.950 . S
C1045 C1044 1.525 . S
C1045 C1046 1.415 . S
C1046 H1022 0.950 . S
C1046 C1041 1.363 . S
C1046 C1045 1.415 . S
C1047 H1023 0.951 . S
C1047 C1048 1.366 . S
C1047 C1049 1.388 . S
C1048 C1047 1.366 . S
C1048 C1052 1.385 . S
C1049 H1024 0.951 . S
C1049 C1047 1.388 . S
C1049 C1050 1.366 . S
C1050 C1049 1.366 . S
C1050 C1051 1.414 . S
C1050 C1053 1.499 . S
C1051 H1025 0.950 . S
C1051 C1050 1.414 . S
C1051 C1052 1.374 . S
C1052 H1026 0.950 . S
C1052 C1048 1.385 . S
C1052 C1051 1.374 . S
C1053 C1050 1.499 . S
C1053 C1054 1.373 . S
C1053 C1055 1.389 . S
C1054 H1027 0.950 . S
C1054 C1040 1.377 . S
C1054 C1053 1.373 . S
C1055 C1039 1.377 . S
C1055 C1053 1.389 . S
C1055 C1056 1.524 . S
C1056 C1055 1.524 . S
C1056 C1057 1.397 . S
C1056 C1061 1.363 . S
C1057 H1028 0.950 . S
C1057 C1056 1.397 . S
C1057 C1058 1.334 . S
C1058 H1029 0.950 . S
C1058 C1057 1.334 . S
C1058 C1059 1.287 . S
C1059 C1058 1.287 . S
C1059 C1060 1.524 . S
C1059 H1062 0.999 . S
C1060 H1030 0.950 . S
C1060 C1059 1.524 . S
C1060 C1061 1.415 . S
C1061 H1031 0.950 . S
C1061 C1056 1.363 . S
C1061 C1060 1.415 . S
H1062 C1059 0.999 . S
H1063 C1044 0.913 1_565 S
H1064 C1082 0.951 . S
H1065 C1084 0.951 . S
H1066 C1086 0.950 . S
H1067 C1087 0.950 . S
H1068 C1089 0.950 . S
H1069 C1092 0.950 . S
H1070 C1093 0.950 . S
H1071 C1095 0.950 . S
H1072 C1096 0.950 . S
H1073 C1097 0.951 . S
H1074 C1099 0.951 . S
H1075 C1101 0.950 . S
H1076 C1102 0.950 . S
H1077 C1104 0.950 . S
H1078 C1107 0.950 . S
H1079 C1108 0.950 . S
H1080 C1110 0.950 . S
H1081 C1111 0.950 . S
C1082 H1064 0.951 . S
C1082 C1083 1.366 . S
C1082 C1084 1.388 . S
C1083 C1082 1.366 . S
C1083 C1087 1.385 . S
C1084 H1065 0.951 . S
C1084 C1082 1.388 . S
C1084 C1085 1.366 . S
C1085 C1084 1.366 . S
C1085 C1086 1.414 . S
C1085 C1088 1.499 . S
C1086 H1066 0.950 . S
C1086 C1085 1.414 . S
C1086 C1087 1.374 . S
C1087 H1067 0.950 . S
C1087 C1083 1.385 . S
C1087 C1086 1.374 . S
C1088 C1085 1.499 . S
C1088 C1089 1.373 . S
C1088 C1090 1.389 . S
C1089 H1068 0.950 . S
C1089 C1088 1.373 . S
C1089 C1105 1.377 . S
C1090 C1088 1.389 . S
C1090 C1091 1.524 . S
C1090 C1104 1.377 . S
C1091 C1090 1.524 . S
C1091 C1092 1.397 . S
C1091 C1096 1.363 . S
C1092 H1069 0.950 . S
C1092 C1091 1.397 . S
C1092 C1093 1.334 . S
C1093 H1070 0.950 . S
C1093 C1092 1.334 . S
C1093 C1094 1.287 . S
C1094 C1093 1.287 . S
C1094 C1095 1.524 . S
C1094 H1113 0.913 . S
C1095 H1071 0.950 . S
C1095 C1094 1.524 . S
C1095 C1096 1.415 . S
C1096 H1072 0.950 . S
C1096 C1091 1.363 . S
C1096 C1095 1.415 . S
C1097 H1073 0.951 . S
C1097 C1098 1.366 . S
C1097 C1099 1.388 . S
C1098 C1097 1.366 . S
C1098 C1102 1.385 . S
C1099 H1074 0.951 . S
C1099 C1097 1.388 . S
C1099 C1100 1.366 . S
C1100 C1099 1.366 . S
C1100 C1101 1.414 . S
C1100 C1103 1.499 . S
C1101 H1075 0.950 . S
C1101 C1100 1.414 . S
C1101 C1102 1.374 . S
C1102 H1076 0.950 . S
C1102 C1098 1.385 . S
C1102 C1101 1.374 . S
C1103 C1100 1.499 . S
C1103 C1104 1.373 . S
C1103 C1105 1.389 . S
C1104 H1077 0.950 . S
C1104 C1090 1.377 . S
C1104 C1103 1.373 . S
C1105 C1089 1.377 . S
C1105 C1103 1.389 . S
C1105 C1106 1.524 . S
C1106 C1105 1.524 . S
C1106 C1107 1.397 . S
C1106 C1111 1.363 . S
C1107 H1078 0.950 . S
C1107 C1106 1.397 . S
C1107 C1108 1.334 . S
C1108 H1079 0.950 . S
C1108 C1107 1.334 . S
C1108 C1109 1.287 . S
C1109 C1108 1.287 . S
C1109 C1110 1.524 . S
C1109 H1112 0.999 . S
C1110 H1080 0.950 . S
C1110 C1109 1.524 . S
C1110 C1111 1.415 . S
C1111 H1081 0.950 . S
C1111 C1106 1.363 . S
C1111 C1110 1.415 . S
H1112 C1109 0.999 . S
H1113 C1094 0.913 . S
H1114 C1132 0.951 . S
H1115 C1134 0.951 . S
H1116 C1136 0.950 . S
H1117 C1137 0.950 . S
H1118 C1139 0.950 . S
H1119 C1142 0.950 . S
H1120 C1143 0.950 . S
H1121 C1145 0.950 . S
H1122 C1146 0.950 . S
H1123 C1147 0.951 . S
H1124 C1149 0.951 . S
H1125 C1151 0.950 . S
H1126 C1152 0.950 . S
H1127 C1154 0.950 . S
H1128 C1157 0.950 . S
H1129 C1158 0.950 . S
H1130 C1160 0.950 . S
H1131 C1161 0.950 . S
C1132 H1114 0.951 . S
C1132 C1133 1.366 . S
C1132 C1134 1.388 . S
C1133 C1132 1.366 . S
C1133 C1137 1.385 . S
C1134 H1115 0.951 . S
C1134 C1132 1.388 . S
C1134 C1135 1.366 . S
C1135 C1134 1.366 . S
C1135 C1136 1.414 . S
C1135 C1138 1.499 . S
C1136 H1116 0.950 . S
C1136 C1135 1.414 . S
C1136 C1137 1.374 . S
C1137 H1117 0.950 . S
C1137 C1133 1.385 . S
C1137 C1136 1.374 . S
C1138 C1135 1.499 . S
C1138 C1139 1.373 . S
C1138 C1140 1.389 . S
C1139 H1118 0.950 . S
C1139 C1138 1.373 . S
C1139 C1155 1.377 . S
C1140 C1138 1.389 . S
C1140 C1141 1.524 . S
C1140 C1154 1.377 . S
C1141 C1140 1.524 . S
C1141 C1142 1.397 . S
C1141 C1146 1.363 . S
C1142 H1119 0.950 . S
C1142 C1141 1.397 . S
C1142 C1143 1.334 . S
C1143 H1120 0.950 . S
C1143 C1142 1.334 . S
C1143 C1144 1.287 . S
C1144 C1143 1.287 . S
C1144 C1145 1.524 . S
C1144 H1163 0.913 . S
C1145 H1121 0.950 . S
C1145 C1144 1.524 . S
C1145 C1146 1.415 . S
C1146 H1122 0.950 . S
C1146 C1141 1.363 . S
C1146 C1145 1.415 . S
C1147 H1123 0.951 . S
C1147 C1148 1.366 . S
C1147 C1149 1.388 . S
C1148 C1147 1.366 . S
C1148 C1152 1.385 . S
C1149 H1124 0.951 . S
C1149 C1147 1.388 . S
C1149 C1150 1.366 . S
C1150 C1149 1.366 . S
C1150 C1151 1.414 . S
C1150 C1153 1.499 . S
C1151 H1125 0.950 . S
C1151 C1150 1.414 . S
C1151 C1152 1.374 . S
C1152 H1126 0.950 . S
C1152 C1148 1.385 . S
C1152 C1151 1.374 . S
C1153 C1150 1.499 . S
C1153 C1154 1.373 . S
C1153 C1155 1.389 . S
C1154 H1127 0.950 . S
C1154 C1140 1.377 . S
C1154 C1153 1.373 . S
C1155 C1139 1.377 . S
C1155 C1153 1.389 . S
C1155 C1156 1.524 . S
C1156 C1155 1.524 . S
C1156 C1157 1.397 . S
C1156 C1161 1.363 . S
C1157 H1128 0.950 . S
C1157 C1156 1.397 . S
C1157 C1158 1.334 . S
C1158 H1129 0.950 . S
C1158 C1157 1.334 . S
C1158 C1159 1.287 . S
C1159 C1158 1.287 . S
C1159 C1160 1.524 . S
C1159 H1162 0.999 . S
C1160 H1130 0.950 . S
C1160 C1159 1.524 . S
C1160 C1161 1.415 . S
C1161 H1131 0.950 . S
C1161 C1156 1.363 . S
C1161 C1160 1.415 . S
H1162 C1159 0.999 . S
H1163 C1144 0.913 . S
H1164 C1182 0.951 . S
H1165 C1184 0.951 . S
H1166 C1186 0.950 . S
H1167 C1187 0.950 . S
H1168 C1189 0.950 . S
H1169 C1192 0.951 . S
H1170 C1193 0.950 . S
H1171 C1195 0.950 . S
H1172 C1196 0.950 . S
H1173 C1197 0.951 . S
H1174 C1199 0.951 . S
H1175 C1201 0.950 . S
H1176 C1202 0.950 . S
H1177 C1204 0.950 . S
H1178 C1207 0.950 . S
H1179 C1208 0.950 . S
H1180 C1210 0.950 . S
H1181 C1211 0.950 . S
C1182 H1164 0.951 . S
C1182 C1183 1.366 . S
C1182 C1184 1.388 . S
C1183 C1182 1.366 . S
C1183 C1187 1.385 . S
C1184 H1165 0.951 . S
C1184 C1182 1.388 . S
C1184 C1185 1.366 . S
C1185 C1184 1.366 . S
C1185 C1186 1.414 . S
C1185 C1188 1.499 1_565 S
C1186 H1166 0.950 . S
C1186 C1185 1.414 . S
C1186 C1187 1.374 . S
C1187 H1167 0.950 . S
C1187 C1183 1.385 . S
C1187 C1186 1.374 . S
C1188 C1185 1.499 1_545 S
C1188 C1189 1.373 . S
C1188 C1190 1.389 . S
C1189 H1168 0.950 . S
C1189 C1188 1.373 . S
C1189 C1205 1.377 . S
C1190 C1188 1.389 . S
C1190 C1191 1.524 . S
C1190 C1204 1.377 . S
C1191 C1190 1.524 . S
C1191 C1192 1.394 1_545 S
C1191 C1196 1.363 . S
C1192 H1169 0.951 . S
C1192 C1191 1.394 1_565 S
C1192 C1193 1.336 . S
C1193 H1170 0.950 . S
C1193 C1192 1.336 . S
C1193 C1194 1.287 . S
C1194 C1193 1.287 . S
C1194 C1195 1.524 1_565 S
C1194 H1213 0.913 . S
C1195 H1171 0.950 . S
C1195 C1194 1.524 1_545 S
C1195 C1196 1.415 . S
C1196 H1172 0.950 . S
C1196 C1191 1.363 . S
C1196 C1195 1.415 . S
C1197 H1173 0.951 . S
C1197 C1198 1.366 . S
C1197 C1199 1.388 . S
C1198 C1197 1.366 . S
C1198 C1202 1.385 . S
C1199 H1174 0.951 . S
C1199 C1197 1.388 . S
C1199 C1200 1.366 . S
C1200 C1199 1.366 . S
C1200 C1201 1.414 . S
C1200 C1203 1.499 . S
C1201 H1175 0.950 . S
C1201 C1200 1.414 . S
C1201 C1202 1.374 . S
C1202 H1176 0.950 . S
C1202 C1198 1.385 . S
C1202 C1201 1.374 . S
C1203 C1200 1.499 . S
C1203 C1204 1.373 . S
C1203 C1205 1.389 . S
C1204 H1177 0.950 . S
C1204 C1190 1.377 . S
C1204 C1203 1.373 . S
C1205 C1189 1.377 . S
C1205 C1203 1.389 . S
C1205 C1206 1.524 . S
C1206 C1205 1.524 . S
C1206 C1207 1.397 . S
C1206 C1211 1.363 . S
C1207 H1178 0.950 . S
C1207 C1206 1.397 . S
C1207 C1208 1.334 . S
C1208 H1179 0.950 . S
C1208 C1207 1.334 . S
C1208 C1209 1.287 . S
C1209 C1208 1.287 . S
C1209 C1210 1.524 . S
C1209 H1212 0.999 . S
C1210 H1180 0.950 . S
C1210 C1209 1.524 . S
C1210 C1211 1.415 . S
C1211 H1181 0.950 . S
C1211 C1206 1.363 . S
C1211 C1210 1.415 . S
H1212 C1209 0.999 . S
H1213 C1194 0.913 . S
H1214 C1232 0.951 . S
H1215 C1234 0.951 . S
H1216 C1236 0.950 . S
H1217 C1237 0.950 . S
H1218 C1239 0.950 . S
H1219 C1242 0.950 . S
H1220 C1243 0.950 . S
H1221 C1245 0.950 . S
H1222 C1246 0.950 . S
H1223 C1247 0.951 . S
H1224 C1249 0.951 . S
H1225 C1251 0.950 . S
H1226 C1252 0.950 . S
H1227 C1254 0.950 . S
H1228 C1257 0.950 . S
H1229 C1258 0.950 . S
H1230 C1260 0.950 . S
H1231 C1261 0.950 . S
C1232 H1214 0.951 . S
C1232 C1233 1.366 . S
C1232 C1234 1.388 . S
C1233 C1232 1.366 . S
C1233 C1237 1.385 . S
C1234 H1215 0.951 . S
C1234 C1232 1.388 . S
C1234 C1235 1.366 . S
C1235 C1234 1.366 . S
C1235 C1236 1.414 . S
C1235 C1238 1.499 . S
C1236 H1216 0.950 . S
C1236 C1235 1.414 . S
C1236 C1237 1.374 . S
C1237 H1217 0.950 . S
C1237 C1233 1.385 . S
C1237 C1236 1.374 . S
C1238 C1235 1.499 . S
C1238 C1239 1.373 . S
C1238 C1240 1.389 . S
C1239 H1218 0.950 . S
C1239 C1238 1.373 . S
C1239 C1255 1.377 . S
C1240 C1238 1.389 . S
C1240 C1241 1.524 . S
C1240 C1254 1.377 . S
C1241 C1240 1.524 . S
C1241 C1242 1.397 . S
C1241 C1246 1.363 . S
C1242 H1219 0.950 . S
C1242 C1241 1.397 . S
C1242 C1243 1.334 . S
C1243 H1220 0.950 . S
C1243 C1242 1.334 . S
C1243 C1244 1.287 . S
C1244 C1243 1.287 . S
C1244 C1245 1.524 . S
C1244 H1263 0.913 . S
C1245 H1221 0.950 . S
C1245 C1244 1.524 . S
C1245 C1246 1.415 . S
C1246 H1222 0.950 . S
C1246 C1241 1.363 . S
C1246 C1245 1.415 . S
C1247 H1223 0.951 . S
C1247 C1248 1.366 . S
C1247 C1249 1.388 . S
C1248 C1247 1.366 . S
C1248 C1252 1.385 . S
C1249 H1224 0.951 . S
C1249 C1247 1.388 . S
C1249 C1250 1.366 . S
C1250 C1249 1.366 . S
C1250 C1251 1.414 . S
C1250 C1253 1.499 1_545 S
C1251 H1225 0.950 . S
C1251 C1250 1.414 . S
C1251 C1252 1.374 . S
C1252 H1226 0.950 . S
C1252 C1248 1.385 . S
C1252 C1251 1.374 . S
C1253 C1250 1.499 1_565 S
C1253 C1254 1.373 . S
C1253 C1255 1.389 . S
C1254 H1227 0.950 . S
C1254 C1240 1.377 . S
C1254 C1253 1.373 . S
C1255 C1239 1.377 . S
C1255 C1253 1.389 . S
C1255 C1256 1.524 . S
C1256 C1255 1.524 . S
C1256 C1257 1.397 . S
C1256 C1261 1.363 . S
C1257 H1228 0.950 . S
C1257 C1256 1.397 . S
C1257 C1258 1.334 1_565 S
C1258 H1229 0.950 . S
C1258 C1257 1.334 1_545 S
C1258 C1259 1.287 . S
C1259 C1258 1.287 . S
C1259 C1260 1.524 1_545 S
C1259 H1262 0.999 . S
C1260 H1230 0.950 . S
C1260 C1259 1.524 1_565 S
C1260 C1261 1.415 . S
C1261 H1231 0.950 . S
C1261 C1256 1.363 . S
C1261 C1260 1.415 . S
H1262 C1259 0.999 . S
H1263 C1244 0.913 . S
C283 C17 1.435 . S
C298 C50 1.435 . S
C333 C116 1.435 . S
C348 C83 1.435 . S
C383 C149 1.435 . S
C398 C182 1.435 . S
C433 C248 1.435 . S
C448 C215 1.435 . S
C483 C28 0.934 . S
C498 C160 0.934 . S
C533 C61 0.935 . S
C548 C193 0.935 . S
C583 C94 0.934 . S
C598 C226 0.934 . S
C633 C127 0.934 . S
C648 C259 0.934 . S
C683 C74 1.395 . S
C698 C8 1.395 . S
C733 C107 1.395 . S
C748 C41 1.395 . S
C783 C140 1.395 . S
C798 C206 1.395 . S
C833 C173 1.395 . S
C848 C239 1.395 . S
C883 N5 1.313 . S
C898 N14 1.311 . S
C933 N38 1.313 . S
C948 N47 1.311 . S
C983 N80 1.311 . S
C998 N71 1.313 . S
C1033 N113 1.311 . S
C1048 N104 1.313 . S
C1083 N146 1.310 . S
C1098 N137 1.312 . S
C1133 N170 1.313 . S
C1148 N179 1.311 . S
C1183 N212 1.311 . S
C1198 N203 1.313 . S
C1233 N236 1.313 . S
C1248 N245 1.311 . S
