# Generated by pormake.
# Topology snk, (6)-cn, num edge types: 1
# Building blocks:
#     Node 0, Type 0, BuildingBlock: BETGAK_clean_sbu_0, # of connection points: 6
#     Node 1, Type 0, BuildingBlock: BETGAK_clean_sbu_0, # of connection points: 6
#     Node 2, Type 0, BuildingBlock: BETGAK_clean_sbu_0, # of connection points: 6
#     Node 3, Type 0, BuildingBlock: BETGAK_clean_sbu_0, # of connection points: 6
#     Node 4, Type 0, BuildingBlock: BETGAK_clean_sbu_0, # of connection points: 6
#     Node 5, Type 0, BuildingBlock: BETGAK_clean_sbu_0, # of connection points: 6
#     Node 6, Type 0, BuildingBlock: BETGAK_clean_sbu_0, # of connection points: 6
#     Node 7, Type 0, BuildingBlock: BETGAK_clean_sbu_0, # of connection points: 6
#     Edge 8, Type (0, 0), BuildingBlock: OJICUG_clean_linker_0, # of connection points: 2
#     Edge 9, Type (0, 0), BuildingBlock: OJICUG_clean_linker_0, # of connection points: 2
#     Edge 10, Type (0, 0), BuildingBlock: OJICUG_clean_linker_0, # of connection points: 2
#     Edge 11, Type (0, 0), BuildingBlock: OJICUG_clean_linker_0, # of connection points: 2
#     Edge 12, Type (0, 0), BuildingBlock: OJICUG_clean_linker_0, # of connection points: 2
#     Edge 13, Type (0, 0), BuildingBlock: OJICUG_clean_linker_0, # of connection points: 2
#     Edge 14, Type (0, 0), BuildingBlock: OJICUG_clean_linker_0, # of connection points: 2
#     Edge 15, Type (0, 0), BuildingBlock: OJICUG_clean_linker_0, # of connection points: 2
#     Edge 16, Type (0, 0), BuildingBlock: OJICUG_clean_linker_0, # of connection points: 2
#     Edge 17, Type (0, 0), BuildingBlock: OJICUG_clean_linker_0, # of connection points: 2
#     Edge 18, Type (0, 0), BuildingBlock: OJICUG_clean_linker_0, # of connection points: 2
#     Edge 19, Type (0, 0), BuildingBlock: OJICUG_clean_linker_0, # of connection points: 2
#     Edge 20, Type (0, 0), BuildingBlock: OJICUG_clean_linker_0, # of connection points: 2
#     Edge 21, Type (0, 0), BuildingBlock: OJICUG_clean_linker_0, # of connection points: 2
#     Edge 22, Type (0, 0), BuildingBlock: OJICUG_clean_linker_0, # of connection points: 2
#     Edge 23, Type (0, 0), BuildingBlock: OJICUG_clean_linker_0, # of connection points: 2
#     Edge 24, Type (0, 0), BuildingBlock: OJICUG_clean_linker_0, # of connection points: 2
#     Edge 25, Type (0, 0), BuildingBlock: OJICUG_clean_linker_0, # of connection points: 2
#     Edge 26, Type (0, 0), BuildingBlock: OJICUG_clean_linker_0, # of connection points: 2
#     Edge 27, Type (0, 0), BuildingBlock: OJICUG_clean_linker_0, # of connection points: 2
#     Edge 28, Type (0, 0), BuildingBlock: OJICUG_clean_linker_0, # of connection points: 2
#     Edge 29, Type (0, 0), BuildingBlock: OJICUG_clean_linker_0, # of connection points: 2
#     Edge 30, Type (0, 0), BuildingBlock: OJICUG_clean_linker_0, # of connection points: 2
#     Edge 31, Type (0, 0), BuildingBlock: OJICUG_clean_linker_0, # of connection points: 2
# Relax obj value: 0.124
# Max RMSD: 0.193
# Mean RMSD: 0.152
data_MOF--net-snk--node1-BETGAK_clean_sbu_0--edge1-OJICUG_clean_linker_0
_symmetry_space_group_name_H-M    P1
_symmetry_Int_Tables_number       1
_symmetry_cell_setting            triclinic
loop_
_symmetry_equiv_pos_as_xyz
'x, y, z'
_cell_length_a     26.186547
_cell_length_b     26.275377
_cell_length_c     20.77911
_cell_angle_alpha  83.871866
_cell_angle_beta   96.303284
_cell_angle_gamma 89.351978
loop_
_atom_site_label
_atom_site_type_symbol
_atom_site_fract_x
_atom_site_fract_y
_atom_site_fract_z
_atom_type_partial_charge
La0 La 0.99776 0.98486 0.47915 0.0
La1 La 0.03963 0.0387 0.59462 0.0
C2 C 0.96239 0.96072 0.36882 0.0
C3 C 0.97144 0.97336 0.3003 0.0
C4 C 0.96623 0.935 0.25825 0.0
C5 C 0.97696 0.94489 0.19375 0.0
C6 C 0.99325 0.99347 0.16997 0.0
C7 C 0.99795 0.0321 0.21223 0.0
C8 C 0.98706 0.02215 0.27683 0.0
C9 C 0.06299 0.93037 0.56572 0.0
C10 C 0.08934 0.06428 0.46708 0.0
C11 C 0.07501 0.06286 0.70494 0.0
C12 C 0.06594 0.05026 0.77346 0.0
C13 C 0.07128 0.08861 0.81553 0.0
C14 C 0.06052 0.07875 0.88002 0.0
C15 C 0.0441 0.03022 0.9038 0.0
C16 C 0.03929 0.99161 0.86152 0.0
C17 C 0.05018 1.00152 0.79692 0.0
C18 C 0.97444 0.09312 0.50789 0.0
C19 C 0.94783 0.95943 0.60648 0.0
O20 O 0.9999 0.93572 0.40619 0.0
O21 O 0.94216 0.99675 0.39771 0.0
O22 O 0.02409 0.91178 0.53272 0.0
O23 O 0.06618 0.97741 0.54711 0.0
O24 O 0.05062 0.0403 0.43776 0.0
O25 O 0.09744 0.06267 0.53124 0.0
O26 O 0.0375 0.08786 0.66755 0.0
O27 O 0.09522 0.0268 0.67607 0.0
O28 O 1.01329 0.11178 0.5409 0.0
O29 O 0.97132 0.04613 0.52675 0.0
O30 O 0.98662 0.98331 0.63588 0.0
O31 O 0.93981 0.96105 0.54232 0.0
H32 H 0.95448 0.89702 0.2756 0.0
H33 H 0.9736 0.91408 0.16295 0.0
H34 H 1.00979 0.07011 0.19532 0.0
H35 H 0.99113 0.05239 0.30846 0.0
H36 H 0.08313 0.12654 0.79818 0.0
H37 H 0.06398 0.10956 0.91082 0.0
H38 H 0.02735 0.95363 0.87842 0.0
H39 H 0.046 0.97129 0.76528 0.0
La40 La 0.24481 0.73651 0.84828 0.0
La41 La 0.29106 0.78658 0.73063 0.0
C42 C 0.22765 0.69636 0.95973 0.0
C43 C 0.2385 0.70777 1.02776 0.0
C44 C 0.20369 0.69234 0.07227 0.0
C45 C 0.21147 0.70481 0.13632 0.0
C46 C 0.25429 0.73313 0.15723 0.0
C47 C 0.28946 0.74813 0.11249 0.0
C48 C 0.28164 0.73557 0.04835 0.0
C49 C 0.18654 0.80712 0.77401 0.0
C50 C 0.32312 0.8287 0.86121 0.0
C51 C 0.30789 0.82697 0.61918 0.0
C52 C 0.29713 0.81545 0.55117 0.0
C53 C 0.33194 0.83089 0.50668 0.0
C54 C 0.32422 0.81836 0.44264 0.0
C55 C 0.28145 0.78997 0.42175 0.0
C56 C 0.24629 0.77494 0.46648 0.0
C57 C 0.25405 0.78755 0.5306 0.0
C58 C 0.34944 0.71612 0.80509 0.0
C59 C 0.21304 0.69406 0.71781 0.0
O60 O 0.19595 0.72835 0.92223 0.0
O61 O 0.26679 0.68361 0.93021 0.0
O62 O 0.16946 0.76622 0.80411 0.0
O63 O 0.23446 0.80875 0.78861 0.0
O64 O 0.30313 0.78701 0.88905 0.0
O65 O 0.31593 0.84183 0.79758 0.0
O66 O 0.33988 0.79525 0.65667 0.0
O67 O 0.26864 0.83937 0.64874 0.0
O68 O 0.3665 0.75689 0.77465 0.0
O69 O 0.30153 0.71449 0.79036 0.0
O70 O 0.23303 0.73575 0.68993 0.0
O71 O 0.22004 0.6811 0.78148 0.0
H72 H 0.16998 0.67116 0.05718 0.0
H73 H 0.18324 0.69322 0.16905 0.0
H74 H 0.32319 0.76939 0.1271 0.0
H75 H 0.3091 0.74787 1.01488 0.0
H76 H 0.36561 0.85213 0.52175 0.0
H77 H 0.35245 0.82997 0.40992 0.0
H78 H 0.2126 0.75362 0.45187 0.0
H79 H 0.22659 0.77523 0.56405 0.0
La80 La 0.53717 0.97877 0.10113 0.0
La81 La 0.50182 0.04259 0.97355 0.0
C82 C 0.56592 0.94661 0.21891 0.0
C83 C 0.55785 0.9611 0.28385 0.0
C84 C 0.56082 0.92313 0.33699 0.0
C85 C 0.55191 0.93542 0.39877 0.0
C86 C 0.5397 0.98611 0.4088 0.0
C87 C 0.53699 0.0242 0.35525 0.0
C88 C 0.54604 0.01183 0.29342 0.0
C89 C 0.47059 0.93462 1.02201 0.0
C90 C 0.45009 0.06606 0.09414 0.0
C91 C 0.47308 0.07482 0.8558 0.0
C92 C 0.48107 0.0603 0.79084 0.0
C93 C 0.47806 0.09825 0.73768 0.0
C94 C 0.48691 0.08592 0.67589 0.0
C95 C 0.49908 0.03523 0.66588 0.0
C96 C 0.50182 0.99716 0.71945 0.0
C97 C 0.49283 1.00956 0.78129 0.0
C98 C 0.56817 0.08686 0.05291 0.0
C99 C 0.58878 0.95508 0.98062 0.0
O100 O 0.52564 0.93004 0.18515 0.0
O101 O 0.59235 0.9778 0.18275 0.0
O102 O 0.50717 0.91056 0.06089 0.0
O103 O 0.47014 0.98135 1.031 0.0
O104 O 0.48738 0.03788 0.12936 0.0
O105 O 0.44378 0.06922 1.02974 0.0
O106 O 0.51343 0.09129 0.88953 0.0
O107 O 0.44659 0.0437 0.89196 0.0
O108 O 0.53158 0.11082 1.01395 0.0
O109 O 0.56877 0.04016 0.04369 0.0
O110 O 0.55153 0.98334 0.9454 0.0
O111 O 0.59513 0.95197 0.045 0.0
H112 H 0.56964 0.88371 0.33059 0.0
H113 H 0.55365 0.90495 0.43844 0.0
H114 H 0.52834 0.06371 0.36118 0.0
H115 H 0.54369 0.04184 0.25313 0.0
H116 H 0.46927 0.13768 0.74407 0.0
H117 H 0.48515 0.11639 0.6362 0.0
H118 H 0.51044 0.95764 0.71354 0.0
H119 H 0.49521 0.97956 0.8216 0.0
La120 La 0.23693 0.27693 0.2249 0.0
La121 La 0.30387 0.24431 0.35193 0.0
C122 C 0.20372 0.30348 0.10695 0.0
C123 C 0.21814 0.2936 0.0424 0.0
C124 C 0.23339 0.24445 1.02997 0.0
C125 C 0.24622 0.23581 0.96827 0.0
C126 C 0.24398 0.27609 0.91749 0.0
C127 C 0.22876 0.32527 0.93028 0.0
C128 C 0.21601 0.33387 0.99203 0.0
C129 C 0.1959 0.21091 0.30728 0.0
C130 C 0.32629 0.19183 0.23137 0.0
C131 C 0.33684 0.21672 0.46954 0.0
C132 C 0.32109 0.22522 0.53396 0.0
C133 C 0.30509 0.27393 0.54709 0.0
C134 C 0.29191 0.28173 0.60885 0.0
C135 C 0.29456 0.24105 0.65912 0.0
C136 C 0.31013 0.19218 0.64556 0.0
C137 C 0.32327 0.18441 0.58367 0.0
C138 C 0.3455 0.31067 0.27041 0.0
C139 C 0.21432 0.32957 0.34504 0.0
O140 O 0.18647 0.26473 0.14256 0.0
O141 O 0.23548 0.33054 0.14167 0.0
O142 O 0.16969 0.24471 0.26647 0.0
O143 O 0.24233 0.2115 0.29663 0.0
O144 O 0.29665 0.22801 0.19623 0.0
O145 O 0.33063 0.18633 0.29581 0.0
O146 O 0.35311 0.25667 0.43508 0.0
O147 O 0.30676 0.18886 0.43363 0.0
O148 O 0.37087 0.27527 0.30975 0.0
O149 O 0.29881 0.31026 0.28055 0.0
O150 O 0.24393 0.29336 0.38037 0.0
O151 O 0.21019 0.3351 0.2806 0.0
H152 H 0.23535 0.21263 0.06791 0.0
H153 H 0.25841 0.19761 0.9606 0.0
H154 H 0.22589 0.35707 0.89226 0.0
H155 H 0.2041 0.37204 1.00034 0.0
H156 H 0.30307 0.30617 0.50973 0.0
H157 H 0.27935 0.31968 0.61707 0.0
H158 H 0.3132 0.16008 0.68318 0.0
H159 H 0.33574 0.14656 0.57483 0.0
La160 La 0.7471 0.23667 0.34285 0.0
La161 La 0.79306 0.28699 0.22519 0.0
C162 C 0.7303 0.19632 0.45432 0.0
C163 C 0.7409 0.20798 0.52231 0.0
C164 C 0.70542 0.1936 0.56634 0.0
C165 C 0.71306 0.20619 0.63035 0.0
C166 C 0.75645 0.23355 0.65172 0.0
C167 C 0.79225 0.24756 0.60744 0.0
C168 C 0.78455 0.23492 0.54333 0.0
C169 C 0.68862 0.30724 0.26886 0.0
C170 C 0.8253 0.32897 0.35587 0.0
C171 C 0.8096 0.32756 0.11372 0.0
C172 C 0.79901 0.31592 0.04573 0.0
C173 C 0.83448 0.33037 1.0017 0.0
C174 C 0.82686 0.31779 0.93768 0.0
C175 C 0.78352 0.29036 0.91631 0.0
C176 C 0.74773 0.27629 0.96058 0.0
C177 C 0.75541 0.28893 1.0247 0.0
C178 C 0.85139 0.21615 0.29909 0.0
C179 C 0.71521 0.19433 0.21237 0.0
O180 O 0.69818 0.22782 0.4167 0.0
O181 O 0.76963 0.18403 0.42485 0.0
O182 O 0.67166 0.26627 0.29895 0.0
O183 O 0.73654 0.309 0.28339 0.0
O184 O 0.80532 0.28725 0.38365 0.0
O185 O 0.81806 0.34216 0.29225 0.0
O186 O 0.84188 0.29616 0.15126 0.0
O187 O 0.77023 0.33964 0.14329 0.0
O188 O 0.86852 0.25703 0.26896 0.0
O189 O 0.80348 0.21472 0.28447 0.0
O190 O 0.73501 0.23613 0.18446 0.0
O191 O 0.72248 0.18127 0.276 0.0
H192 H 0.6713 0.17314 0.55092 0.0
H193 H 0.68433 0.19542 0.66269 0.0
H194 H 0.82641 0.26807 0.6224 0.0
H195 H 0.81252 0.24644 0.51023 0.0
H196 H 0.86856 0.35088 1.01712 0.0
H197 H 0.85558 0.32861 0.90535 0.0
H198 H 0.71361 0.25574 0.94561 0.0
H199 H 0.72746 0.27734 0.0578 0.0
La200 La 0.73446 0.77624 0.72293 0.0
La201 La 0.8036 0.74542 0.84997 0.0
C202 C 0.70085 0.80275 0.60528 0.0
C203 C 0.71663 0.79414 0.54084 0.0
C204 C 0.73285 0.74544 0.52786 0.0
C205 C 0.74609 0.73755 0.46612 0.0
C206 C 0.74328 0.77812 0.41568 0.0
C207 C 0.72742 0.82696 0.42907 0.0
C208 C 0.71423 0.83481 0.49093 0.0
C209 C 0.69535 0.7104 0.80717 0.0
C210 C 0.82552 0.69256 0.72941 0.0
C211 C 0.83714 0.71903 0.96767 0.0
C212 C 0.82125 0.72771 1.03203 0.0
C213 C 0.80504 0.77644 0.0449 0.0
C214 C 0.79166 0.78438 0.10657 0.0
C215 C 0.7943 0.74384 0.15702 0.0
C216 C 0.81014 0.69497 0.14372 0.0
C217 C 0.82347 0.68706 0.08194 0.0
C218 C 0.8425 0.81142 0.76554 0.0
C219 C 0.71254 0.82906 0.84351 0.0
O220 O 0.68525 0.7627 0.64024 0.0
O221 O 0.73047 0.83134 0.64074 0.0
O222 O 0.66825 0.74306 0.76566 0.0
O223 O 0.74169 0.71167 0.79598 0.0
O224 O 0.79468 0.72779 0.69416 0.0
O225 O 0.83083 0.68771 0.7939 0.0
O226 O 0.85277 0.75904 0.93266 0.0
O227 O 0.80758 0.69037 0.93222 0.0
O228 O 0.86971 0.77877 0.80699 0.0
O229 O 0.79627 0.80996 0.77709 0.0
O230 O 0.74334 0.7938 0.87873 0.0
O231 O 0.70726 0.83397 0.77902 0.0
H232 H 0.73506 0.71328 0.56535 0.0
H233 H 0.75886 0.69963 0.45807 0.0
H234 H 0.72418 0.85899 0.39136 0.0
H235 H 0.70157 0.87264 0.4996 0.0
H236 H 0.80294 0.80859 1.0074 0.0
H237 H 0.7789 0.82233 0.11453 0.0
H238 H 0.81325 0.66295 0.18145 0.0
H239 H 0.83609 0.6492 0.07335 0.0
La240 La 0.49561 0.48723 0.98115 0.0
La241 La 0.54089 0.53878 0.09721 0.0
C242 C 0.45753 0.46626 0.87025 0.0
C243 C 0.46841 0.4772 0.80205 0.0
C244 C 0.46128 0.43871 0.76031 0.0
C245 C 0.47323 0.44713 0.69613 0.0
C246 C 0.4928 0.49427 0.67239 0.0
C247 C 0.4995 0.53301 0.7143 0.0
C248 C 0.48724 0.5246 0.77847 0.0
C249 C 0.56308 0.43134 0.06321 0.0
C250 C 0.58897 0.56515 0.96878 0.0
C251 C 0.57704 0.56156 0.20799 0.0
C252 C 0.56825 0.54828 0.27652 0.0
C253 C 0.57812 0.58483 0.32044 0.0
C254 C 0.56726 0.57483 0.38489 0.0
C255 C 0.54627 0.52791 0.40689 0.0
C256 C 0.53702 0.491 0.36272 0.0
C257 C 0.54785 0.50112 0.29808 0.0
C258 C 0.47362 0.59419 1.01406 0.0
C259 C 0.44979 0.45955 0.11032 0.0
O260 O 0.49161 0.43722 0.90842 0.0
O261 O 0.44165 0.50462 0.89886 0.0
O262 O 0.52336 0.41332 1.03111 0.0
O263 O 0.56568 0.47871 0.04614 0.0
O264 O 0.54956 0.54176 0.93983 0.0
O265 O 0.59789 0.56312 1.03293 0.0
O266 O 0.53944 0.58695 0.17129 0.0
O267 O 0.59689 0.52585 0.17822 0.0
O268 O 0.51353 0.61237 0.0455 0.0
O269 O 0.47096 0.54708 1.03228 0.0
O270 O 0.49066 0.48086 0.13866 0.0
O271 O 0.4385 0.4641 0.04634 0.0
H272 H 0.44694 0.4018 0.77764 0.0
H273 H 0.46813 0.4163 0.66551 0.0
H274 H 0.51385 0.56998 0.69736 0.0
H275 H 0.49265 0.55503 0.80966 0.0
H276 H 0.59347 0.62161 0.30455 0.0
H277 H 0.57415 0.60448 0.41701 0.0
H278 H 0.52151 0.45421 0.3781 0.0
H279 H 0.53986 0.47234 0.26493 0.0
La280 La 0.03638 0.47885 0.60018 0.0
La281 La 1.00286 0.54366 0.47301 0.0
C282 C 0.06333 0.44552 0.71796 0.0
C283 C 0.05571 0.46034 0.78289 0.0
C284 C 0.05599 0.42219 0.83551 0.0
C285 C 0.04757 0.43483 0.8973 0.0
C286 C 0.03859 0.48606 0.90787 0.0
C287 C 0.03846 0.52432 0.85481 0.0
C288 C 0.04695 0.51159 0.79294 0.0
C289 C 0.97111 0.43516 0.51885 0.0
C290 C 0.9498 0.56662 0.59275 0.0
C291 C 0.97588 0.57707 0.35526 0.0
C292 C 0.98349 0.56229 0.29031 0.0
C293 C 0.98304 0.60046 0.23767 0.0
C294 C 0.99145 0.58785 0.17586 0.0
C295 C 1.00056 0.53664 0.16528 0.0
C296 C 1.00084 0.49838 0.21836 0.0
C297 C 0.99238 0.51108 0.28025 0.0
C298 C 0.06795 0.58736 0.5546 0.0
C299 C 0.08956 0.4559 0.48062 0.0
O300 O 0.02238 0.43078 0.6837 0.0
O301 O 0.09133 0.47541 0.68231 0.0
O302 O 1.00721 0.41098 0.55838 0.0
O303 O 0.97027 0.48178 0.52841 0.0
O304 O 0.98676 0.53817 0.62822 0.0
O305 O 0.9441 0.5701 0.52833 0.0
O306 O 1.01684 0.59179 0.38953 0.0
O307 O 0.94789 0.54715 0.39089 0.0
O308 O 0.03188 0.61153 0.515 0.0
O309 O 0.06886 0.5408 0.54475 0.0
O310 O 0.05261 0.48433 0.44505 0.0
O311 O 0.09518 0.45244 0.54502 0.0
H312 H 0.06235 0.38238 0.8287 0.0
H313 H 0.04717 0.40425 0.93653 0.0
H314 H 0.0323 0.56421 0.86117 0.0
H315 H 0.04656 0.54173 0.753 0.0
H316 H 0.97657 0.64024 0.24449 0.0
H317 H 0.99173 0.61844 0.13662 0.0
H318 H 1.00709 0.4585 0.212 0.0
H319 H 0.99291 0.48093 0.3202 0.0
C320 C 0.11012 0.10326 0.35788 0.0
C321 C 0.12095 0.09799 0.42619 0.0
H322 H 0.12541 0.1436 0.26693 0.0
C323 C 0.15893 0.12868 0.4547 0.0
H324 H 0.08112 0.08046 0.3341 0.0
C325 C 0.1844 0.16468 0.41585 0.0
C326 C 0.17254 0.17041 0.34799 0.0
H327 H 0.1678 0.12619 0.50711 0.0
H328 H 0.21144 0.18964 0.43912 0.0
C329 C 0.13536 0.13943 0.31927 0.0
C330 C 0.07759 0.85349 0.64644 0.0
C331 C 0.09501 0.90077 0.62032 0.0
H332 H 0.09268 0.78744 0.71564 0.0
C333 C 0.14275 0.91813 0.64613 0.0
H334 H 0.04083 0.83923 0.6278 0.0
C335 C 0.17285 0.88805 0.69664 0.0
C336 C 0.15538 0.84046 0.7221 0.0
H337 H 0.15709 0.95441 0.62663 0.0
H338 H 0.20969 0.90187 0.71563 0.0
C339 C 0.10723 0.82389 0.69698 0.0
C340 C 0.39666 0.82953 0.94657 0.0
C341 C 0.35949 0.85708 0.90218 0.0
H342 H 0.46168 0.83268 1.01756 0.0
C343 C 0.35803 0.91073 0.89785 0.0
H344 H 0.39841 0.78807 0.95084 0.0
C345 C 0.39312 0.93637 0.93823 0.0
C346 C 0.43159 0.90877 0.98091 0.0
H347 H 0.32914 0.93261 0.86448 0.0
H348 H 0.38993 0.97751 0.93623 0.0
C349 C 0.43285 0.8551 0.98472 0.0
C350 C 0.41869 0.0887 0.19719 0.0
C351 C 0.41624 0.09633 0.12878 0.0
H352 H 0.3922 0.11258 0.28332 0.0
C353 C 0.38283 0.13442 0.09451 0.0
H354 H 0.44383 0.05941 0.22515 0.0
C355 C 0.35338 0.16501 0.12798 0.0
C356 C 0.35635 0.15793 0.19645 0.0
H357 H 0.38017 0.14144 0.04191 0.0
H358 H 0.32892 0.19476 0.09998 0.0
C359 C 0.38902 0.11914 0.23066 0.0
C360 C 0.92698 0.92027 0.71551 0.0
C361 C 0.91612 0.92574 0.64722 0.0
H362 H 0.91207 0.87937 0.80624 0.0
C363 C 0.87811 0.89513 0.61857 0.0
H364 H 0.95596 0.94302 0.7394 0.0
C365 C 0.85281 0.85885 0.65725 0.0
C366 C 0.8649 0.85274 0.72507 0.0
H367 H 0.86917 0.89782 0.56616 0.0
H368 H 0.82583 0.83389 0.63385 0.0
C369 C 0.90193 0.88382 0.75393 0.0
C370 C 0.96016 0.16972 0.42676 0.0
C371 C 0.94257 0.12257 0.45305 0.0
H372 H 0.9453 0.23564 0.35733 0.0
C373 C 0.89481 0.10526 0.42726 0.0
H374 H 0.99695 0.18392 0.4454 0.0
C375 C 0.86483 0.1353 0.37659 0.0
C376 C 0.88245 0.18279 0.35102 0.0
H377 H 0.88034 0.06908 0.44691 0.0
H378 H 0.82796 0.12155 0.35761 0.0
C379 C 0.93065 0.19928 0.37609 0.0
C380 C 0.68059 0.11184 0.17679 0.0
C381 C 0.67919 0.16553 0.17146 0.0
H382 H 0.64869 0.04458 0.13962 0.0
C383 C 0.64225 0.19269 0.12637 0.0
H384 H 0.7093 0.09023 0.21074 0.0
C385 C 0.60615 0.16673 0.08861 0.0
C386 C 0.60728 0.11301 0.09348 0.0
H387 H 0.64053 0.23417 0.12132 0.0
H388 H 0.57745 0.1889 0.05527 0.0
C389 C 0.6456 0.08577 0.13677 0.0
C390 C 0.6852 0.85574 0.9469 0.0
C391 C 0.6823 0.86282 0.87844 0.0
H392 H 0.65843 0.87944 1.03293 0.0
C393 C 0.64963 0.90161 0.84419 0.0
H394 H 0.70958 0.82592 0.97491 0.0
C395 C 0.62002 0.93214 0.87761 0.0
C396 C 0.62249 0.9246 0.94601 0.0
H397 H 0.64651 0.90818 0.79153 0.0
H398 H 0.59495 0.96147 0.84962 0.0
C399 C 0.6558 0.88642 0.98033 0.0
C400 C 0.65909 0.62891 0.95557 0.0
C401 C 0.62092 0.59815 0.92752 0.0
H402 H 0.71185 0.68956 0.93913 0.0
C403 C 0.61031 0.60266 0.85923 0.0
H404 H 0.66789 0.62692 1.00795 0.0
C405 C 0.63564 0.6384 0.82018 0.0
C406 C 0.67279 0.66967 0.8484 0.0
H407 H 0.58137 0.57964 0.8358 0.0
H408 H 0.62564 0.64215 0.76785 0.0
C409 C 0.68473 0.66445 0.91625 0.0
C410 C 0.60981 0.32307 0.1908 0.0
C411 C 0.65737 0.34038 0.21685 0.0
H412 H 0.54352 0.33795 0.12138 0.0
C413 C 0.67405 0.3886 0.19245 0.0
H414 H 0.59593 0.28607 0.20854 0.0
C415 C 0.64347 0.41886 0.14256 0.0
C416 C 0.59612 0.401 0.1162 0.0
H417 H 0.71051 0.40289 0.21202 0.0
H418 H 0.65703 0.45581 0.1242 0.0
C419 C 0.57984 0.35275 0.14066 0.0
C420 C 0.89499 0.4369 0.43292 0.0
C421 C 0.93266 0.40934 0.47689 0.0
H422 H 0.83199 0.43303 0.35783 0.0
C423 C 0.93368 0.35564 0.48119 0.0
H424 H 0.89209 0.4781 0.43027 0.0
C425 C 0.89795 0.33001 0.44246 0.0
C426 C 0.86144 0.35749 0.39704 0.0
H427 H 0.96193 0.33323 0.51492 0.0
H428 H 0.89952 0.28853 0.44718 0.0
C429 C 0.86032 0.41117 0.39206 0.0
C430 C 0.85273 0.66556 0.62605 0.0
C431 C 0.85581 0.65879 0.69454 0.0
H432 H 0.87948 0.64166 0.5401 0.0
C433 C 0.88879 0.62031 0.72892 0.0
H434 H 0.8281 0.69513 0.59794 0.0
C435 C 0.91854 0.58982 0.69561 0.0
C436 C 0.91589 0.59706 0.62718 0.0
H437 H 0.8921 0.61399 0.7816 0.0
H438 H 0.94392 0.56081 0.72376 0.0
C439 C 0.88227 0.63491 0.59273 0.0
C440 C 0.34232 0.38748 0.18566 0.0
C441 C 0.37059 0.35039 0.22963 0.0
H442 H 0.34528 0.45057 0.11092 0.0
C443 C 0.42449 0.35106 0.23507 0.0
H444 H 0.30091 0.38927 0.18234 0.0
C445 C 0.44962 0.38761 0.19725 0.0
C446 C 0.42154 0.42322 0.15137 0.0
H447 H 0.44749 0.32341 0.26896 0.0
H448 H 0.49125 0.38726 0.20289 0.0
C449 C 0.36764 0.4229 0.14546 0.0
C450 C 0.4588 0.67051 0.93244 0.0
C451 C 0.44123 0.62367 0.9597 0.0
H452 H 0.44375 0.7358 0.86203 0.0
C453 C 0.39313 0.60642 0.93494 0.0
H454 H 0.49581 0.68468 0.95028 0.0
C455 C 0.36296 0.63604 0.88406 0.0
C456 C 0.38062 0.68317 0.85739 0.0
H457 H 0.37866 0.57049 0.95537 0.0
H458 H 0.32596 0.62221 0.86571 0.0
C459 C 0.42904 0.6997 0.88164 0.0
C460 C 0.14051 0.69271 0.63121 0.0
C461 C 0.17709 0.66537 0.67665 0.0
H462 H 0.07667 0.68925 0.55866 0.0
C463 C 0.17849 0.61168 0.68159 0.0
H464 H 0.13874 0.73418 0.62652 0.0
C465 C 0.14401 0.58581 0.64065 0.0
C466 C 0.10627 0.61324 0.59665 0.0
H467 H 0.20689 0.58994 0.71584 0.0
H468 H 0.1471 0.54463 0.64327 0.0
C469 C 0.10498 0.66693 0.59241 0.0
C470 C 0.18667 0.35673 0.44806 0.0
C471 C 0.18401 0.36355 0.37962 0.0
H472 H 0.15945 0.38067 0.53371 0.0
C473 C 0.15132 0.40218 0.345 0.0
H474 H 0.21108 0.32708 0.47636 0.0
C475 C 0.12138 0.43272 0.37802 0.0
C476 C 0.1236 0.42543 0.44641 0.0
H477 H 0.14832 0.40852 0.29233 0.0
H478 H 0.09619 0.46181 0.34971 0.0
C479 C 0.15698 0.38746 0.4811 0.0
C480 C 0.98833 0.99158 0.98657 0.0
C481 C 0.03134 0.0204 0.9721 0.0
H482 H 0.942 0.96141 0.05974 0.0
C483 C 0.06152 0.04056 1.02325 0.0
H484 H 0.96373 0.97623 0.94827 0.0
C485 C 0.04899 0.03216 0.0872 0.0
C486 C 1.00599 1.00334 0.10167 0.0
H487 H 0.09534 0.06231 1.01403 0.0
H488 H 0.07359 0.04752 0.12551 0.0
C489 C 0.97581 0.98318 0.05052 0.0
C490 C 0.25696 0.72662 0.34149 0.0
C491 C 0.27412 0.77553 0.3539 0.0
H492 H 0.23825 0.67457 0.27034 0.0
C493 C 0.28495 0.81027 0.30104 0.0
H494 H 0.24909 0.69858 0.38107 0.0
C495 C 0.27882 0.79646 0.23749 0.0
C496 C 0.26166 0.74755 0.22508 0.0
H497 H 0.29752 0.84851 0.30862 0.0
H498 H 0.28669 0.8245 0.19791 0.0
C499 C 0.25082 0.71281 0.27793 0.0
C500 C 0.54865 0.98714 0.5931 0.0
C501 C 0.50929 0.02239 0.60001 0.0
H502 H 0.58975 0.94886 0.52799 0.0
C503 C 0.48013 0.04572 0.54335 0.0
H504 H 0.57249 0.96905 0.63544 0.0
C505 C 0.49009 0.03417 0.48158 0.0
C506 C 0.52946 0.99892 0.47467 0.0
H507 H 0.44899 0.07244 0.54669 0.0
H508 H 0.46626 0.05226 0.43924 0.0
C509 C 0.55861 0.97559 0.53133 0.0
C510 C 0.28502 0.30298 0.81524 0.0
C511 C 0.25721 0.26686 0.85145 0.0
H512 H 0.31923 0.32291 0.72727 0.0
C513 C 0.24199 0.22199 0.82387 0.0
H514 H 0.29817 0.33755 0.83525 0.0
C515 C 0.2541 0.21356 0.76176 0.0
C516 C 0.28173 0.2498 0.72548 0.0
H517 H 0.21986 0.19366 0.8498 0.0
H518 H 0.24099 0.179 0.74171 0.0
C519 C 0.2971 0.29457 0.75318 0.0
C520 C 0.75785 0.22749 0.83581 0.0
C521 C 0.77622 0.27594 0.84844 0.0
H522 H 0.7382 0.17578 0.76452 0.0
C523 C 0.78828 0.31022 0.79577 0.0
H524 H 0.74902 0.19978 0.87523 0.0
C525 C 0.78217 0.29642 0.73221 0.0
C526 C 0.76378 0.24797 0.71959 0.0
H527 H 0.8018 0.34813 0.8035 0.0
H528 H 0.791 0.32412 0.69279 0.0
C529 C 0.75173 0.21368 0.77225 0.0
C530 C 0.78362 0.8059 0.31301 0.0
C531 C 0.75636 0.76937 0.34937 0.0
H532 H 0.81762 0.82627 0.22493 0.0
C533 C 0.74163 0.72437 0.32175 0.0
H534 H 0.79632 0.84063 0.33298 0.0
C535 C 0.75384 0.71612 0.25963 0.0
C536 C 0.78112 0.75264 0.22328 0.0
H537 H 0.71985 0.69574 0.34772 0.0
H538 H 0.74114 0.68139 0.23967 0.0
C539 C 0.79583 0.79765 0.25089 0.0
C540 C 0.47493 0.48497 0.55269 0.0
C541 C 0.5066 0.50268 0.60442 0.0
H542 H 0.46207 0.47958 0.45013 0.0
C543 C 0.55181 0.52802 0.5908 0.0
H544 H 0.4395 0.46588 0.56131 0.0
C545 C 0.56496 0.53559 0.52706 0.0
C546 C 0.53313 0.51824 0.47516 0.0
H547 H 0.57752 0.54137 0.62961 0.0
H548 H 0.60045 0.55465 0.51858 0.0
C549 C 0.48799 0.49271 0.48889 0.0
C550 C 0.05651 0.47392 1.03048 0.0
C551 C 0.02905 0.49927 0.97382 0.0
H552 H 0.06969 0.46608 0.13467 0.0
C553 C 0.99201 0.53692 0.9808 0.0
H554 H 0.08589 0.44529 1.02711 0.0
C555 C 0.98265 0.54882 0.04265 0.0
C556 C 1.01011 0.52346 0.09931 0.0
H557 H 0.9695 0.55666 0.93845 0.0
H558 H 0.95327 0.57744 0.04602 0.0
C559 C 0.04716 0.48582 0.09232 0.0
loop_
_geom_bond_atom_site_label_1
_geom_bond_atom_site_label_2
_geom_bond_distance
_geom_bond_site_symmetry_2
_ccdc_geom_bond_type
La0 C2 2.928 1_655 S
La0 O20 2.521 1_655 S
La0 O21 2.628 1_565 S
La0 O22 2.554 1_655 S
La0 O23 2.757 1_655 S
La0 O24 2.470 1_665 S
La0 O29 2.482 1_565 S
La0 O31 2.503 . S
La1 C11 2.928 1_455 S
La1 O23 2.482 1_545 S
La1 O25 2.503 . S
La1 O26 2.521 1_455 S
La1 O27 2.628 1_545 S
La1 O28 2.554 1_455 S
La1 O29 2.757 1_455 S
La1 O30 2.470 1_445 S
C2 La0 2.928 1_455 S
C2 C3 1.503 . S
C2 O20 1.261 . S
C2 O21 1.243 1_465 S
C3 C2 1.503 . S
C3 C4 1.394 . S
C3 C8 1.373 1_565 S
C4 C3 1.394 . S
C4 C5 1.380 . S
C4 H32 0.930 . S
C5 C4 1.380 . S
C5 C6 1.376 . S
C5 H33 0.930 . S
C6 C5 1.376 . S
C6 C7 1.370 1_565 S
C7 C6 1.370 1_545 S
C7 C8 1.396 . S
C7 H34 0.929 . S
C8 C3 1.373 1_545 S
C8 C7 1.396 . S
C8 H35 0.929 1_455 S
C9 O22 1.240 . S
C9 O23 1.289 . S
C10 O24 1.258 . S
C10 O25 1.256 . S
C11 La1 2.928 1_655 S
C11 C12 1.503 . S
C11 O26 1.261 . S
C11 O27 1.243 1_645 S
C12 C11 1.503 . S
C12 C13 1.394 . S
C12 C17 1.373 1_545 S
C13 C12 1.394 . S
C13 C14 1.380 . S
C13 H36 0.930 . S
C14 C13 1.380 . S
C14 C15 1.376 . S
C14 H37 0.930 . S
C15 C14 1.376 . S
C15 C16 1.370 1_545 S
C16 C15 1.370 1_565 S
C16 C17 1.396 . S
C16 H38 0.929 . S
C17 C12 1.373 1_565 S
C17 C16 1.396 . S
C17 H39 0.929 1_655 S
C18 O28 1.240 . S
C18 O29 1.289 . S
C19 O30 1.258 . S
C19 O31 1.256 . S
O20 La0 2.521 1_455 S
O20 C2 1.261 . S
O21 La0 2.628 1_545 S
O21 C2 1.243 1_645 S
O22 La0 2.554 1_455 S
O22 C9 1.240 . S
O23 La0 2.757 1_455 S
O23 La1 2.482 1_565 S
O23 C9 1.289 . S
O24 La0 2.470 1_445 S
O24 C10 1.258 . S
O25 La1 2.503 . S
O25 C10 1.256 . S
O26 La1 2.521 1_655 S
O26 C11 1.261 . S
O27 La1 2.628 1_565 S
O27 C11 1.243 1_465 S
O28 La1 2.554 1_655 S
O28 C18 1.240 . S
O29 La0 2.482 1_545 S
O29 La1 2.757 1_655 S
O29 C18 1.289 . S
O30 La1 2.470 1_665 S
O30 C19 1.258 . S
O31 La0 2.503 . S
O31 C19 1.256 . S
H32 C4 0.930 . S
H33 C5 0.930 . S
H34 C7 0.929 . S
H35 C8 0.929 1_655 S
H36 C13 0.930 . S
H37 C14 0.930 . S
H38 C16 0.929 . S
H39 C17 0.929 1_455 S
La40 C42 2.928 . S
La40 O60 2.521 . S
La40 O61 2.628 . S
La40 O62 2.554 . S
La40 O63 2.757 . S
La40 O64 2.470 . S
La40 O69 2.482 . S
La40 O71 2.503 . S
La41 C51 2.928 . S
La41 O63 2.482 . S
La41 O65 2.503 . S
La41 O66 2.521 . S
La41 O67 2.628 . S
La41 O68 2.554 . S
La41 O69 2.757 . S
La41 O70 2.470 . S
C42 La40 2.928 . S
C42 C43 1.503 1_556 S
C42 O60 1.261 . S
C42 O61 1.243 . S
C43 C42 1.503 1_554 S
C43 C44 1.394 . S
C43 C48 1.373 . S
C44 C43 1.394 . S
C44 C45 1.380 . S
C44 H72 0.930 1_554 S
C45 C44 1.380 . S
C45 C46 1.376 . S
C45 H73 0.930 . S
C46 C45 1.376 . S
C46 C47 1.370 . S
C47 C46 1.370 . S
C47 C48 1.396 . S
C47 H74 0.929 . S
C48 C43 1.373 . S
C48 C47 1.396 . S
C48 H75 0.929 . S
C49 O62 1.240 . S
C49 O63 1.289 . S
C50 O64 1.258 . S
C50 O65 1.256 . S
C51 La41 2.928 . S
C51 C52 1.503 . S
C51 O66 1.261 . S
C51 O67 1.243 . S
C52 C51 1.503 . S
C52 C53 1.394 . S
C52 C57 1.373 . S
C53 C52 1.394 . S
C53 C54 1.380 . S
C53 H76 0.930 . S
C54 C53 1.380 . S
C54 C55 1.376 . S
C54 H77 0.930 . S
C55 C54 1.376 . S
C55 C56 1.370 . S
C56 C55 1.370 . S
C56 C57 1.396 . S
C56 H78 0.929 . S
C57 C52 1.373 . S
C57 C56 1.396 . S
C57 H79 0.929 . S
C58 O68 1.240 . S
C58 O69 1.289 . S
C59 O70 1.258 . S
C59 O71 1.256 . S
O60 La40 2.521 . S
O60 C42 1.261 . S
O61 La40 2.628 . S
O61 C42 1.243 . S
O62 La40 2.554 . S
O62 C49 1.240 . S
O63 La40 2.757 . S
O63 La41 2.482 . S
O63 C49 1.289 . S
O64 La40 2.470 . S
O64 C50 1.258 . S
O65 La41 2.503 . S
O65 C50 1.256 . S
O66 La41 2.521 . S
O66 C51 1.261 . S
O67 La41 2.628 . S
O67 C51 1.243 . S
O68 La41 2.554 . S
O68 C58 1.240 . S
O69 La40 2.482 . S
O69 La41 2.757 . S
O69 C58 1.289 . S
O70 La41 2.470 . S
O70 C59 1.258 . S
O71 La40 2.503 . S
O71 C59 1.256 . S
H72 C44 0.930 1_556 S
H73 C45 0.930 . S
H74 C47 0.929 . S
H75 C48 0.929 . S
H76 C53 0.930 . S
H77 C54 0.930 . S
H78 C56 0.929 . S
H79 C57 0.929 . S
La80 C82 2.928 . S
La80 O100 2.521 . S
La80 O101 2.628 . S
La80 O102 2.554 . S
La80 O103 2.757 1_554 S
La80 O104 2.470 1_565 S
La80 O109 2.482 1_565 S
La80 O111 2.503 . S
La81 C91 2.928 . S
La81 O103 2.482 1_545 S
La81 O105 2.503 . S
La81 O106 2.521 . S
La81 O107 2.628 . S
La81 O108 2.554 . S
La81 O109 2.757 1_556 S
La81 O110 2.470 1_545 S
C82 La80 2.928 . S
C82 C83 1.503 . S
C82 O100 1.261 . S
C82 O101 1.243 . S
C83 C82 1.503 . S
C83 C84 1.394 . S
C83 C88 1.373 . S
C84 C83 1.394 . S
C84 C85 1.380 . S
C84 H112 0.930 . S
C85 C84 1.380 . S
C85 C86 1.376 . S
C85 H113 0.930 . S
C86 C85 1.376 . S
C86 C87 1.370 . S
C87 C86 1.370 . S
C87 C88 1.396 . S
C87 H114 0.929 1_565 S
C88 C83 1.373 . S
C88 C87 1.396 . S
C88 H115 0.929 1_565 S
C89 O102 1.240 1_556 S
C89 O103 1.289 . S
C90 O104 1.258 . S
C90 O105 1.256 1_554 S
C91 La81 2.928 . S
C91 C92 1.503 . S
C91 O106 1.261 . S
C91 O107 1.243 . S
C92 C91 1.503 . S
C92 C93 1.394 . S
C92 C97 1.373 . S
C93 C92 1.394 . S
C93 C94 1.380 . S
C93 H116 0.930 . S
C94 C93 1.380 . S
C94 C95 1.376 . S
C94 H117 0.930 . S
C95 C94 1.376 . S
C95 C96 1.370 . S
C96 C95 1.370 . S
C96 C97 1.396 . S
C96 H118 0.929 1_545 S
C97 C92 1.373 . S
C97 C96 1.396 . S
C97 H119 0.929 1_545 S
C98 O108 1.240 1_554 S
C98 O109 1.289 . S
C99 O110 1.258 . S
C99 O111 1.256 1_556 S
O100 La80 2.521 . S
O100 C82 1.261 . S
O101 La80 2.628 . S
O101 C82 1.243 . S
O102 La80 2.554 . S
O102 C89 1.240 1_554 S
O103 La80 2.757 1_556 S
O103 La81 2.482 1_565 S
O103 C89 1.289 . S
O104 La80 2.470 1_545 S
O104 C90 1.258 . S
O105 La81 2.503 . S
O105 C90 1.256 1_556 S
O106 La81 2.521 . S
O106 C91 1.261 . S
O107 La81 2.628 . S
O107 C91 1.243 . S
O108 La81 2.554 . S
O108 C98 1.240 1_556 S
O109 La80 2.482 1_545 S
O109 La81 2.757 1_554 S
O109 C98 1.289 . S
O110 La81 2.470 1_565 S
O110 C99 1.258 . S
O111 La80 2.503 . S
O111 C99 1.256 1_554 S
H112 C84 0.930 . S
H113 C85 0.930 . S
H114 C87 0.929 1_545 S
H115 C88 0.929 1_545 S
H116 C93 0.930 . S
H117 C94 0.930 . S
H118 C96 0.929 1_565 S
H119 C97 0.929 1_565 S
La120 C122 2.928 . S
La120 O140 2.521 . S
La120 O141 2.628 . S
La120 O142 2.554 . S
La120 O143 2.757 . S
La120 O144 2.470 . S
La120 O149 2.482 . S
La120 O151 2.503 . S
La121 C131 2.928 . S
La121 O143 2.482 . S
La121 O145 2.503 . S
La121 O146 2.521 . S
La121 O147 2.628 . S
La121 O148 2.554 . S
La121 O149 2.757 . S
La121 O150 2.470 . S
C122 La120 2.928 . S
C122 C123 1.503 1_554 S
C122 O140 1.261 . S
C122 O141 1.243 . S
C123 C122 1.503 1_556 S
C123 C124 1.394 . S
C123 C128 1.373 . S
C124 C123 1.394 . S
C124 C125 1.380 . S
C124 H152 0.930 . S
C125 C124 1.380 . S
C125 C126 1.376 . S
C125 H153 0.930 . S
C126 C125 1.376 . S
C126 C127 1.370 . S
C127 C126 1.370 . S
C127 C128 1.396 . S
C127 H154 0.929 . S
C128 C123 1.373 . S
C128 C127 1.396 . S
C128 H155 0.929 . S
C129 O142 1.240 . S
C129 O143 1.289 . S
C130 O144 1.258 . S
C130 O145 1.256 . S
C131 La121 2.928 . S
C131 C132 1.503 . S
C131 O146 1.261 . S
C131 O147 1.243 . S
C132 C131 1.503 . S
C132 C133 1.394 . S
C132 C137 1.373 . S
C133 C132 1.394 . S
C133 C134 1.380 . S
C133 H156 0.930 . S
C134 C133 1.380 . S
C134 C135 1.376 . S
C134 H157 0.930 . S
C135 C134 1.376 . S
C135 C136 1.370 . S
C136 C135 1.370 . S
C136 C137 1.396 . S
C136 H158 0.929 . S
C137 C132 1.373 . S
C137 C136 1.396 . S
C137 H159 0.929 . S
C138 O148 1.240 . S
C138 O149 1.289 . S
C139 O150 1.258 . S
C139 O151 1.256 . S
O140 La120 2.521 . S
O140 C122 1.261 . S
O141 La120 2.628 . S
O141 C122 1.243 . S
O142 La120 2.554 . S
O142 C129 1.240 . S
O143 La120 2.757 . S
O143 La121 2.482 . S
O143 C129 1.289 . S
O144 La120 2.470 . S
O144 C130 1.258 . S
O145 La121 2.503 . S
O145 C130 1.256 . S
O146 La121 2.521 . S
O146 C131 1.261 . S
O147 La121 2.628 . S
O147 C131 1.243 . S
O148 La121 2.554 . S
O148 C138 1.240 . S
O149 La120 2.482 . S
O149 La121 2.757 . S
O149 C138 1.289 . S
O150 La121 2.470 . S
O150 C139 1.258 . S
O151 La120 2.503 . S
O151 C139 1.256 . S
H152 C124 0.930 . S
H153 C125 0.930 . S
H154 C127 0.929 . S
H155 C128 0.929 . S
H156 C133 0.930 . S
H157 C134 0.930 . S
H158 C136 0.929 . S
H159 C137 0.929 . S
La160 C162 2.928 . S
La160 O180 2.521 . S
La160 O181 2.628 . S
La160 O182 2.554 . S
La160 O183 2.757 . S
La160 O184 2.470 . S
La160 O189 2.482 . S
La160 O191 2.503 . S
La161 C171 2.928 . S
La161 O183 2.482 . S
La161 O185 2.503 . S
La161 O186 2.521 . S
La161 O187 2.628 . S
La161 O188 2.554 . S
La161 O189 2.757 . S
La161 O190 2.470 . S
C162 La160 2.928 . S
C162 C163 1.503 . S
C162 O180 1.261 . S
C162 O181 1.243 . S
C163 C162 1.503 . S
C163 C164 1.394 . S
C163 C168 1.373 . S
C164 C163 1.394 . S
C164 C165 1.380 . S
C164 H192 0.930 . S
C165 C164 1.380 . S
C165 C166 1.376 . S
C165 H193 0.930 . S
C166 C165 1.376 . S
C166 C167 1.370 . S
C167 C166 1.370 . S
C167 C168 1.396 . S
C167 H194 0.929 . S
C168 C163 1.373 . S
C168 C167 1.396 . S
C168 H195 0.929 . S
C169 O182 1.240 . S
C169 O183 1.289 . S
C170 O184 1.258 . S
C170 O185 1.256 . S
C171 La161 2.928 . S
C171 C172 1.503 1_554 S
C171 O186 1.261 . S
C171 O187 1.243 . S
C172 C171 1.503 1_556 S
C172 C173 1.394 . S
C172 C177 1.373 . S
C173 C172 1.394 . S
C173 C174 1.380 . S
C173 H196 0.930 1_556 S
C174 C173 1.380 . S
C174 C175 1.376 . S
C174 H197 0.930 . S
C175 C174 1.376 . S
C175 C176 1.370 . S
C176 C175 1.370 . S
C176 C177 1.396 . S
C176 H198 0.929 . S
C177 C172 1.373 . S
C177 C176 1.396 . S
C177 H199 0.929 . S
C178 O188 1.240 . S
C178 O189 1.289 . S
C179 O190 1.258 . S
C179 O191 1.256 . S
O180 La160 2.521 . S
O180 C162 1.261 . S
O181 La160 2.628 . S
O181 C162 1.243 . S
O182 La160 2.554 . S
O182 C169 1.240 . S
O183 La160 2.757 . S
O183 La161 2.482 . S
O183 C169 1.289 . S
O184 La160 2.470 . S
O184 C170 1.258 . S
O185 La161 2.503 . S
O185 C170 1.256 . S
O186 La161 2.521 . S
O186 C171 1.261 . S
O187 La161 2.628 . S
O187 C171 1.243 . S
O188 La161 2.554 . S
O188 C178 1.240 . S
O189 La160 2.482 . S
O189 La161 2.757 . S
O189 C178 1.289 . S
O190 La161 2.470 . S
O190 C179 1.258 . S
O191 La160 2.503 . S
O191 C179 1.256 . S
H192 C164 0.930 . S
H193 C165 0.930 . S
H194 C167 0.929 . S
H195 C168 0.929 . S
H196 C173 0.930 1_554 S
H197 C174 0.930 . S
H198 C176 0.929 . S
H199 C177 0.929 . S
La200 C202 2.928 . S
La200 O220 2.521 . S
La200 O221 2.628 . S
La200 O222 2.554 . S
La200 O223 2.757 . S
La200 O224 2.470 . S
La200 O229 2.482 . S
La200 O231 2.503 . S
La201 C211 2.928 . S
La201 O223 2.482 . S
La201 O225 2.503 . S
La201 O226 2.521 . S
La201 O227 2.628 . S
La201 O228 2.554 . S
La201 O229 2.757 . S
La201 O230 2.470 . S
C202 La200 2.928 . S
C202 C203 1.503 . S
C202 O220 1.261 . S
C202 O221 1.243 . S
C203 C202 1.503 . S
C203 C204 1.394 . S
C203 C208 1.373 . S
C204 C203 1.394 . S
C204 C205 1.380 . S
C204 H232 0.930 . S
C205 C204 1.380 . S
C205 C206 1.376 . S
C205 H233 0.930 . S
C206 C205 1.376 . S
C206 C207 1.370 . S
C207 C206 1.370 . S
C207 C208 1.396 . S
C207 H234 0.929 . S
C208 C203 1.373 . S
C208 C207 1.396 . S
C208 H235 0.929 . S
C209 O222 1.240 . S
C209 O223 1.289 . S
C210 O224 1.258 . S
C210 O225 1.256 . S
C211 La201 2.928 . S
C211 C212 1.503 1_556 S
C211 O226 1.261 . S
C211 O227 1.243 . S
C212 C211 1.503 1_554 S
C212 C213 1.394 . S
C212 C217 1.373 . S
C213 C212 1.394 . S
C213 C214 1.380 . S
C213 H236 0.930 . S
C214 C213 1.380 . S
C214 C215 1.376 . S
C214 H237 0.930 . S
C215 C214 1.376 . S
C215 C216 1.370 . S
C216 C215 1.370 . S
C216 C217 1.396 . S
C216 H238 0.929 . S
C217 C212 1.373 . S
C217 C216 1.396 . S
C217 H239 0.929 . S
C218 O228 1.240 . S
C218 O229 1.289 . S
C219 O230 1.258 . S
C219 O231 1.256 . S
O220 La200 2.521 . S
O220 C202 1.261 . S
O221 La200 2.628 . S
O221 C202 1.243 . S
O222 La200 2.554 . S
O222 C209 1.240 . S
O223 La200 2.757 . S
O223 La201 2.482 . S
O223 C209 1.289 . S
O224 La200 2.470 . S
O224 C210 1.258 . S
O225 La201 2.503 . S
O225 C210 1.256 . S
O226 La201 2.521 . S
O226 C211 1.261 . S
O227 La201 2.628 . S
O227 C211 1.243 . S
O228 La201 2.554 . S
O228 C218 1.240 . S
O229 La200 2.482 . S
O229 La201 2.757 . S
O229 C218 1.289 . S
O230 La201 2.470 . S
O230 C219 1.258 . S
O231 La200 2.503 . S
O231 C219 1.256 . S
H232 C204 0.930 . S
H233 C205 0.930 . S
H234 C207 0.929 . S
H235 C208 0.929 . S
H236 C213 0.930 . S
H237 C214 0.930 . S
H238 C216 0.929 . S
H239 C217 0.929 . S
La240 C242 2.928 . S
La240 O260 2.521 . S
La240 O261 2.628 . S
La240 O262 2.554 . S
La240 O263 2.757 1_556 S
La240 O264 2.470 . S
La240 O269 2.482 . S
La240 O271 2.503 1_556 S
La241 C251 2.928 . S
La241 O263 2.482 . S
La241 O265 2.503 1_554 S
La241 O266 2.521 . S
La241 O267 2.628 . S
La241 O268 2.554 . S
La241 O269 2.757 1_554 S
La241 O270 2.470 . S
C242 La240 2.928 . S
C242 C243 1.503 . S
C242 O260 1.261 . S
C242 O261 1.243 . S
C243 C242 1.503 . S
C243 C244 1.394 . S
C243 C248 1.373 . S
C244 C243 1.394 . S
C244 C245 1.380 . S
C244 H272 0.930 . S
C245 C244 1.380 . S
C245 C246 1.376 . S
C245 H273 0.930 . S
C246 C245 1.376 . S
C246 C247 1.370 . S
C247 C246 1.370 . S
C247 C248 1.396 . S
C247 H274 0.929 . S
C248 C243 1.373 . S
C248 C247 1.396 . S
C248 H275 0.929 . S
C249 O262 1.240 1_554 S
C249 O263 1.289 . S
C250 O264 1.258 . S
C250 O265 1.256 . S
C251 La241 2.928 . S
C251 C252 1.503 . S
C251 O266 1.261 . S
C251 O267 1.243 . S
C252 C251 1.503 . S
C252 C253 1.394 . S
C252 C257 1.373 . S
C253 C252 1.394 . S
C253 C254 1.380 . S
C253 H276 0.930 . S
C254 C253 1.380 . S
C254 C255 1.376 . S
C254 H277 0.930 . S
C255 C254 1.376 . S
C255 C256 1.370 . S
C256 C255 1.370 . S
C256 C257 1.396 . S
C256 H278 0.929 . S
C257 C252 1.373 . S
C257 C256 1.396 . S
C257 H279 0.929 . S
C258 O268 1.240 1_556 S
C258 O269 1.289 . S
C259 O270 1.258 . S
C259 O271 1.256 . S
O260 La240 2.521 . S
O260 C242 1.261 . S
O261 La240 2.628 . S
O261 C242 1.243 . S
O262 La240 2.554 . S
O262 C249 1.240 1_556 S
O263 La240 2.757 1_554 S
O263 La241 2.482 . S
O263 C249 1.289 . S
O264 La240 2.470 . S
O264 C250 1.258 . S
O265 La241 2.503 1_556 S
O265 C250 1.256 . S
O266 La241 2.521 . S
O266 C251 1.261 . S
O267 La241 2.628 . S
O267 C251 1.243 . S
O268 La241 2.554 . S
O268 C258 1.240 1_554 S
O269 La240 2.482 . S
O269 La241 2.757 1_556 S
O269 C258 1.289 . S
O270 La241 2.470 . S
O270 C259 1.258 . S
O271 La240 2.503 1_554 S
O271 C259 1.256 . S
H272 C244 0.930 . S
H273 C245 0.930 . S
H274 C247 0.929 . S
H275 C248 0.929 . S
H276 C253 0.930 . S
H277 C254 0.930 . S
H278 C256 0.929 . S
H279 C257 0.929 . S
La280 C282 2.928 1_455 S
La280 O300 2.521 1_455 S
La280 O301 2.628 . S
La280 O302 2.554 1_455 S
La280 O303 2.757 1_455 S
La280 O304 2.470 1_455 S
La280 O309 2.482 . S
La280 O311 2.503 . S
La281 C291 2.928 1_655 S
La281 O303 2.482 . S
La281 O305 2.503 . S
La281 O306 2.521 1_655 S
La281 O307 2.628 . S
La281 O308 2.554 1_655 S
La281 O309 2.757 1_655 S
La281 O310 2.470 1_655 S
C282 La280 2.928 1_655 S
C282 C283 1.503 . S
C282 O300 1.261 . S
C282 O301 1.243 1_655 S
C283 C282 1.503 . S
C283 C284 1.394 . S
C283 C288 1.373 . S
C284 C283 1.394 . S
C284 C285 1.380 . S
C284 H312 0.930 . S
C285 C284 1.380 . S
C285 C286 1.376 . S
C285 H313 0.930 . S
C286 C285 1.376 . S
C286 C287 1.370 . S
C287 C286 1.370 . S
C287 C288 1.396 . S
C287 H314 0.929 . S
C288 C283 1.373 . S
C288 C287 1.396 . S
C288 H315 0.929 1_655 S
C289 O302 1.240 . S
C289 O303 1.289 . S
C290 O304 1.258 . S
C290 O305 1.256 . S
C291 La281 2.928 1_455 S
C291 C292 1.503 . S
C291 O306 1.261 . S
C291 O307 1.243 1_455 S
C292 C291 1.503 . S
C292 C293 1.394 . S
C292 C297 1.373 . S
C293 C292 1.394 . S
C293 C294 1.380 . S
C293 H316 0.930 . S
C294 C293 1.380 . S
C294 C295 1.376 . S
C294 H317 0.930 . S
C295 C294 1.376 . S
C295 C296 1.370 . S
C296 C295 1.370 . S
C296 C297 1.396 . S
C296 H318 0.929 . S
C297 C292 1.373 . S
C297 C296 1.396 . S
C297 H319 0.929 1_455 S
C298 O308 1.240 . S
C298 O309 1.289 . S
C299 O310 1.258 . S
C299 O311 1.256 . S
O300 La280 2.521 1_655 S
O300 C282 1.261 . S
O301 La280 2.628 . S
O301 C282 1.243 1_455 S
O302 La280 2.554 1_655 S
O302 C289 1.240 . S
O303 La280 2.757 1_655 S
O303 La281 2.482 . S
O303 C289 1.289 . S
O304 La280 2.470 1_655 S
O304 C290 1.258 . S
O305 La281 2.503 . S
O305 C290 1.256 . S
O306 La281 2.521 1_455 S
O306 C291 1.261 . S
O307 La281 2.628 . S
O307 C291 1.243 1_655 S
O308 La281 2.554 1_455 S
O308 C298 1.240 . S
O309 La280 2.482 . S
O309 La281 2.757 1_455 S
O309 C298 1.289 . S
O310 La281 2.470 1_455 S
O310 C299 1.258 . S
O311 La280 2.503 . S
O311 C299 1.256 . S
H312 C284 0.930 . S
H313 C285 0.930 . S
H314 C287 0.929 . S
H315 C288 0.929 1_455 S
H316 C293 0.930 . S
H317 C294 0.930 . S
H318 C296 0.929 . S
H319 C297 0.929 1_655 S
C320 C321 1.387 . S
C320 H324 0.950 . S
C320 C329 1.390 . S
C321 C320 1.387 . S
C321 C323 1.387 . S
H322 C329 0.950 . S
C323 C321 1.387 . S
C323 C325 1.390 . S
C323 H327 0.950 . S
H324 C320 0.950 . S
C325 C323 1.390 . S
C325 C326 1.387 . S
C325 H328 0.950 . S
C326 C325 1.387 . S
C326 C329 1.387 . S
H327 C323 0.950 . S
H328 C325 0.950 . S
C329 C320 1.390 . S
C329 H322 0.950 . S
C329 C326 1.387 . S
C330 C331 1.387 . S
C330 H334 0.950 . S
C330 C339 1.390 . S
C331 C330 1.387 . S
C331 C333 1.387 . S
H332 C339 0.950 . S
C333 C331 1.387 . S
C333 C335 1.390 . S
C333 H337 0.950 . S
H334 C330 0.950 . S
C335 C333 1.390 . S
C335 C336 1.387 . S
C335 H338 0.950 . S
C336 C335 1.387 . S
C336 C339 1.387 . S
H337 C333 0.950 . S
H338 C335 0.950 . S
C339 C330 1.390 . S
C339 H332 0.950 . S
C339 C336 1.387 . S
C340 C341 1.387 . S
C340 H344 0.950 . S
C340 C349 1.390 . S
C341 C340 1.387 . S
C341 C343 1.387 . S
H342 C349 0.950 . S
C343 C341 1.387 . S
C343 C345 1.390 . S
C343 H347 0.950 . S
H344 C340 0.950 . S
C345 C343 1.390 . S
C345 C346 1.387 . S
C345 H348 0.950 . S
C346 C345 1.387 . S
C346 C349 1.387 . S
H347 C343 0.950 . S
H348 C345 0.950 . S
C349 C340 1.390 . S
C349 H342 0.950 . S
C349 C346 1.387 . S
C350 C351 1.387 . S
C350 H354 0.950 . S
C350 C359 1.390 . S
C351 C350 1.387 . S
C351 C353 1.387 . S
H352 C359 0.950 . S
C353 C351 1.387 . S
C353 C355 1.390 . S
C353 H357 0.950 . S
H354 C350 0.950 . S
C355 C353 1.390 . S
C355 C356 1.387 . S
C355 H358 0.950 . S
C356 C355 1.387 . S
C356 C359 1.387 . S
H357 C353 0.950 . S
H358 C355 0.950 . S
C359 C350 1.390 . S
C359 H352 0.950 . S
C359 C356 1.387 . S
C360 C361 1.387 . S
C360 H364 0.950 . S
C360 C369 1.390 . S
C361 C360 1.387 . S
C361 C363 1.387 . S
H362 C369 0.950 . S
C363 C361 1.387 . S
C363 C365 1.390 . S
C363 H367 0.950 . S
H364 C360 0.950 . S
C365 C363 1.390 . S
C365 C366 1.387 . S
C365 H368 0.950 . S
C366 C365 1.387 . S
C366 C369 1.387 . S
H367 C363 0.950 . S
H368 C365 0.950 . S
C369 C360 1.390 . S
C369 H362 0.950 . S
C369 C366 1.387 . S
C370 C371 1.387 . S
C370 H374 0.950 . S
C370 C379 1.390 . S
C371 C370 1.387 . S
C371 C373 1.387 . S
H372 C379 0.950 . S
C373 C371 1.387 . S
C373 C375 1.390 . S
C373 H377 0.950 . S
H374 C370 0.950 . S
C375 C373 1.390 . S
C375 C376 1.387 . S
C375 H378 0.950 . S
C376 C375 1.387 . S
C376 C379 1.387 . S
H377 C373 0.950 . S
H378 C375 0.950 . S
C379 C370 1.390 . S
C379 H372 0.950 . S
C379 C376 1.387 . S
C380 C381 1.387 . S
C380 H384 0.950 . S
C380 C389 1.390 . S
C381 C380 1.387 . S
C381 C383 1.387 . S
H382 C389 0.950 . S
C383 C381 1.387 . S
C383 C385 1.390 . S
C383 H387 0.950 . S
H384 C380 0.950 . S
C385 C383 1.390 . S
C385 C386 1.387 . S
C385 H388 0.950 . S
C386 C385 1.387 . S
C386 C389 1.387 . S
H387 C383 0.950 . S
H388 C385 0.950 . S
C389 C380 1.390 . S
C389 H382 0.950 . S
C389 C386 1.387 . S
C390 C391 1.387 . S
C390 H394 0.950 . S
C390 C399 1.390 . S
C391 C390 1.387 . S
C391 C393 1.387 . S
H392 C399 0.950 . S
C393 C391 1.387 . S
C393 C395 1.390 . S
C393 H397 0.950 . S
H394 C390 0.950 . S
C395 C393 1.390 . S
C395 C396 1.387 . S
C395 H398 0.950 . S
C396 C395 1.387 . S
C396 C399 1.387 . S
H397 C393 0.950 . S
H398 C395 0.950 . S
C399 C390 1.390 . S
C399 H392 0.950 . S
C399 C396 1.387 . S
C400 C401 1.387 . S
C400 H404 0.950 . S
C400 C409 1.390 . S
C401 C400 1.387 . S
C401 C403 1.387 . S
H402 C409 0.950 . S
C403 C401 1.387 . S
C403 C405 1.390 . S
C403 H407 0.950 . S
H404 C400 0.950 . S
C405 C403 1.390 . S
C405 C406 1.387 . S
C405 H408 0.950 . S
C406 C405 1.387 . S
C406 C409 1.387 . S
H407 C403 0.950 . S
H408 C405 0.950 . S
C409 C400 1.390 . S
C409 H402 0.950 . S
C409 C406 1.387 . S
C410 C411 1.387 . S
C410 H414 0.950 . S
C410 C419 1.390 . S
C411 C410 1.387 . S
C411 C413 1.387 . S
H412 C419 0.950 . S
C413 C411 1.387 . S
C413 C415 1.390 . S
C413 H417 0.950 . S
H414 C410 0.950 . S
C415 C413 1.390 . S
C415 C416 1.387 . S
C415 H418 0.950 . S
C416 C415 1.387 . S
C416 C419 1.387 . S
H417 C413 0.950 . S
H418 C415 0.950 . S
C419 C410 1.390 . S
C419 H412 0.950 . S
C419 C416 1.387 . S
C420 C421 1.387 . S
C420 H424 0.950 . S
C420 C429 1.390 . S
C421 C420 1.387 . S
C421 C423 1.387 . S
H422 C429 0.950 . S
C423 C421 1.387 . S
C423 C425 1.390 . S
C423 H427 0.950 . S
H424 C420 0.950 . S
C425 C423 1.390 . S
C425 C426 1.387 . S
C425 H428 0.950 . S
C426 C425 1.387 . S
C426 C429 1.387 . S
H427 C423 0.950 . S
H428 C425 0.950 . S
C429 C420 1.390 . S
C429 H422 0.950 . S
C429 C426 1.387 . S
C430 C431 1.387 . S
C430 H434 0.950 . S
C430 C439 1.390 . S
C431 C430 1.387 . S
C431 C433 1.387 . S
H432 C439 0.950 . S
C433 C431 1.387 . S
C433 C435 1.390 . S
C433 H437 0.950 . S
H434 C430 0.950 . S
C435 C433 1.390 . S
C435 C436 1.387 . S
C435 H438 0.950 . S
C436 C435 1.387 . S
C436 C439 1.387 . S
H437 C433 0.950 . S
H438 C435 0.950 . S
C439 C430 1.390 . S
C439 H432 0.950 . S
C439 C436 1.387 . S
C440 C441 1.387 . S
C440 H444 0.950 . S
C440 C449 1.390 . S
C441 C440 1.387 . S
C441 C443 1.387 . S
H442 C449 0.950 . S
C443 C441 1.387 . S
C443 C445 1.390 . S
C443 H447 0.950 . S
H444 C440 0.950 . S
C445 C443 1.390 . S
C445 C446 1.387 . S
C445 H448 0.950 . S
C446 C445 1.387 . S
C446 C449 1.387 . S
H447 C443 0.950 . S
H448 C445 0.950 . S
C449 C440 1.390 . S
C449 H442 0.950 . S
C449 C446 1.387 . S
C450 C451 1.387 . S
C450 H454 0.950 . S
C450 C459 1.390 . S
C451 C450 1.387 . S
C451 C453 1.387 . S
H452 C459 0.950 . S
C453 C451 1.387 . S
C453 C455 1.390 . S
C453 H457 0.950 . S
H454 C450 0.950 . S
C455 C453 1.390 . S
C455 C456 1.387 . S
C455 H458 0.950 . S
C456 C455 1.387 . S
C456 C459 1.387 . S
H457 C453 0.950 . S
H458 C455 0.950 . S
C459 C450 1.390 . S
C459 H452 0.950 . S
C459 C456 1.387 . S
C460 C461 1.387 . S
C460 H464 0.950 . S
C460 C469 1.390 . S
C461 C460 1.387 . S
C461 C463 1.387 . S
H462 C469 0.950 . S
C463 C461 1.387 . S
C463 C465 1.390 . S
C463 H467 0.950 . S
H464 C460 0.950 . S
C465 C463 1.390 . S
C465 C466 1.387 . S
C465 H468 0.950 . S
C466 C465 1.387 . S
C466 C469 1.387 . S
H467 C463 0.950 . S
H468 C465 0.950 . S
C469 C460 1.390 . S
C469 H462 0.950 . S
C469 C466 1.387 . S
C470 C471 1.387 . S
C470 H474 0.950 . S
C470 C479 1.390 . S
C471 C470 1.387 . S
C471 C473 1.387 . S
H472 C479 0.950 . S
C473 C471 1.387 . S
C473 C475 1.390 . S
C473 H477 0.950 . S
H474 C470 0.950 . S
C475 C473 1.390 . S
C475 C476 1.387 . S
C475 H478 0.950 . S
C476 C475 1.387 . S
C476 C479 1.387 . S
H477 C473 0.950 . S
H478 C475 0.950 . S
C479 C470 1.390 . S
C479 H472 0.950 . S
C479 C476 1.387 . S
C480 C481 1.387 1_565 S
C480 H484 0.950 . S
C480 C489 1.390 1_656 S
C481 C480 1.387 1_545 S
C481 C483 1.387 . S
H482 C489 0.950 . S
C483 C481 1.387 . S
C483 C485 1.390 1_656 S
C483 H487 0.950 . S
H484 C480 0.950 . S
C485 C483 1.390 1_454 S
C485 C486 1.387 1_545 S
C485 H488 0.950 . S
C486 C485 1.387 1_565 S
C486 C489 1.387 . S
H487 C483 0.950 . S
H488 C485 0.950 . S
C489 C480 1.390 1_454 S
C489 H482 0.950 . S
C489 C486 1.387 . S
C490 C491 1.387 . S
C490 H494 0.950 . S
C490 C499 1.390 . S
C491 C490 1.387 . S
C491 C493 1.387 . S
H492 C499 0.950 . S
C493 C491 1.387 . S
C493 C495 1.390 . S
C493 H497 0.950 . S
H494 C490 0.950 . S
C495 C493 1.390 . S
C495 C496 1.387 . S
C495 H498 0.950 . S
C496 C495 1.387 . S
C496 C499 1.387 . S
H497 C493 0.950 . S
H498 C495 0.950 . S
C499 C490 1.390 . S
C499 H492 0.950 . S
C499 C496 1.387 . S
C500 C501 1.387 1_565 S
C500 H504 0.950 . S
C500 C509 1.390 . S
C501 C500 1.387 1_545 S
C501 C503 1.387 . S
H502 C509 0.950 . S
C503 C501 1.387 . S
C503 C505 1.390 . S
C503 H507 0.950 . S
H504 C500 0.950 . S
C505 C503 1.390 . S
C505 C506 1.387 1_545 S
C505 H508 0.950 . S
C506 C505 1.387 1_565 S
C506 C509 1.387 . S
H507 C503 0.950 . S
H508 C505 0.950 . S
C509 C500 1.390 . S
C509 H502 0.950 . S
C509 C506 1.387 . S
C510 C511 1.387 . S
C510 H514 0.950 . S
C510 C519 1.390 . S
C511 C510 1.387 . S
C511 C513 1.387 . S
H512 C519 0.950 . S
C513 C511 1.387 . S
C513 C515 1.390 . S
C513 H517 0.950 . S
H514 C510 0.950 . S
C515 C513 1.390 . S
C515 C516 1.387 . S
C515 H518 0.950 . S
C516 C515 1.387 . S
C516 C519 1.387 . S
H517 C513 0.950 . S
H518 C515 0.950 . S
C519 C510 1.390 . S
C519 H512 0.950 . S
C519 C516 1.387 . S
C520 C521 1.387 . S
C520 H524 0.950 . S
C520 C529 1.390 . S
C521 C520 1.387 . S
C521 C523 1.387 . S
H522 C529 0.950 . S
C523 C521 1.387 . S
C523 C525 1.390 . S
C523 H527 0.950 . S
H524 C520 0.950 . S
C525 C523 1.390 . S
C525 C526 1.387 . S
C525 H528 0.950 . S
C526 C525 1.387 . S
C526 C529 1.387 . S
H527 C523 0.950 . S
H528 C525 0.950 . S
C529 C520 1.390 . S
C529 H522 0.950 . S
C529 C526 1.387 . S
C530 C531 1.387 . S
C530 H534 0.950 . S
C530 C539 1.390 . S
C531 C530 1.387 . S
C531 C533 1.387 . S
H532 C539 0.950 . S
C533 C531 1.387 . S
C533 C535 1.390 . S
C533 H537 0.950 . S
H534 C530 0.950 . S
C535 C533 1.390 . S
C535 C536 1.387 . S
C535 H538 0.950 . S
C536 C535 1.387 . S
C536 C539 1.387 . S
H537 C533 0.950 . S
H538 C535 0.950 . S
C539 C530 1.390 . S
C539 H532 0.950 . S
C539 C536 1.387 . S
C540 C541 1.387 . S
C540 H544 0.950 . S
C540 C549 1.390 . S
C541 C540 1.387 . S
C541 C543 1.387 . S
H542 C549 0.950 . S
C543 C541 1.387 . S
C543 C545 1.390 . S
C543 H547 0.950 . S
H544 C540 0.950 . S
C545 C543 1.390 . S
C545 C546 1.387 . S
C545 H548 0.950 . S
C546 C545 1.387 . S
C546 C549 1.387 . S
H547 C543 0.950 . S
H548 C545 0.950 . S
C549 C540 1.390 . S
C549 H542 0.950 . S
C549 C546 1.387 . S
C550 C551 1.387 1_554 S
C550 H554 0.950 . S
C550 C559 1.390 . S
C551 C550 1.387 1_556 S
C551 C553 1.387 1_655 S
H552 C559 0.950 . S
C553 C551 1.387 1_455 S
C553 C555 1.390 . S
C553 H557 0.950 . S
H554 C550 0.950 . S
C555 C553 1.390 . S
C555 C556 1.387 1_556 S
C555 H558 0.950 . S
C556 C555 1.387 1_554 S
C556 C559 1.387 1_455 S
H557 C553 0.950 . S
H558 C555 0.950 . S
C559 C550 1.390 . S
C559 H552 0.950 . S
C559 C556 1.387 1_655 S
C321 C10 1.569 . S
C326 C129 1.549 . S
C331 C9 1.054 . S
C336 C49 1.055 . S
C341 C50 1.570 . S
C346 C89 1.555 . S
C351 C90 1.979 . S
C356 C130 1.977 . S
C361 C19 1.570 . S
C366 C218 1.556 . S
C371 C18 1.053 . S
C376 C178 1.054 . S
C381 C179 1.569 . S
C386 C98 1.550 . S
C391 C219 1.980 . S
C396 C99 1.982 . S
C401 C250 1.570 . S
C406 C209 1.554 . S
C411 C169 1.054 . S
C416 C249 1.053 . S
C421 C289 1.553 . S
C426 C170 1.571 . S
C431 C210 1.980 . S
C436 C290 1.981 . S
C441 C138 1.553 . S
C446 C259 1.568 . S
C451 C258 1.054 . S
C456 C58 1.054 . S
C461 C59 1.569 . S
C466 C298 1.552 . S
C471 C139 1.980 . S
C476 C299 1.978 . S
C481 C15 1.511 . S
C486 C6 1.511 . S
C491 C55 1.511 . S
C496 C46 1.511 . S
C501 C95 1.935 . S
C506 C86 1.935 . S
C511 C126 1.936 . S
C516 C135 1.936 . S
C521 C175 1.511 . S
C526 C166 1.511 . S
C531 C206 1.936 . S
C536 C215 1.936 . S
C541 C246 1.511 . S
C546 C255 1.511 . S
C551 C286 1.935 . S
C556 C295 1.935 . S
