# Generated by pormake.
# Topology wlt, (5)-cn, num edge types: 1
# Building blocks:
#     Node 0, Type 0, BuildingBlock: XOMCOT_clean_sbu_1, # of connection points: 5
#     Node 1, Type 0, BuildingBlock: XOMCOT_clean_sbu_1, # of connection points: 5
#     Node 2, Type 0, BuildingBlock: XOMCOT_clean_sbu_1, # of connection points: 5
#     Node 3, Type 0, BuildingBlock: XOMCOT_clean_sbu_1, # of connection points: 5
#     Node 4, Type 0, BuildingBlock: XOMCOT_clean_sbu_1, # of connection points: 5
#     Node 5, Type 0, BuildingBlock: XOMCOT_clean_sbu_1, # of connection points: 5
#     Node 6, Type 0, BuildingBlock: XOMCOT_clean_sbu_1, # of connection points: 5
#     Node 7, Type 0, BuildingBlock: XOMCOT_clean_sbu_1, # of connection points: 5
#     Node 8, Type 0, BuildingBlock: XOMCOT_clean_sbu_1, # of connection points: 5
#     Node 9, Type 0, BuildingBlock: XOMCOT_clean_sbu_1, # of connection points: 5
#     Node 10, Type 0, BuildingBlock: XOMCOT_clean_sbu_1, # of connection points: 5
#     Node 11, Type 0, BuildingBlock: XOMCOT_clean_sbu_1, # of connection points: 5
#     Node 12, Type 0, BuildingBlock: XOMCOT_clean_sbu_1, # of connection points: 5
#     Node 13, Type 0, BuildingBlock: XOMCOT_clean_sbu_1, # of connection points: 5
#     Node 14, Type 0, BuildingBlock: XOMCOT_clean_sbu_1, # of connection points: 5
#     Node 15, Type 0, BuildingBlock: XOMCOT_clean_sbu_1, # of connection points: 5
#     Node 16, Type 0, BuildingBlock: XOMCOT_clean_sbu_1, # of connection points: 5
#     Node 17, Type 0, BuildingBlock: XOMCOT_clean_sbu_1, # of connection points: 5
#     Node 18, Type 0, BuildingBlock: XOMCOT_clean_sbu_1, # of connection points: 5
#     Node 19, Type 0, BuildingBlock: XOMCOT_clean_sbu_1, # of connection points: 5
#     Node 20, Type 0, BuildingBlock: XOMCOT_clean_sbu_1, # of connection points: 5
#     Node 21, Type 0, BuildingBlock: XOMCOT_clean_sbu_1, # of connection points: 5
#     Node 22, Type 0, BuildingBlock: XOMCOT_clean_sbu_1, # of connection points: 5
#     Node 23, Type 0, BuildingBlock: XOMCOT_clean_sbu_1, # of connection points: 5
#     Node 24, Type 0, BuildingBlock: XOMCOT_clean_sbu_1, # of connection points: 5
#     Node 25, Type 0, BuildingBlock: XOMCOT_clean_sbu_1, # of connection points: 5
#     Node 26, Type 0, BuildingBlock: XOMCOT_clean_sbu_1, # of connection points: 5
#     Node 27, Type 0, BuildingBlock: XOMCOT_clean_sbu_1, # of connection points: 5
#     Node 28, Type 0, BuildingBlock: XOMCOT_clean_sbu_1, # of connection points: 5
#     Node 29, Type 0, BuildingBlock: XOMCOT_clean_sbu_1, # of connection points: 5
#     Node 30, Type 0, BuildingBlock: XOMCOT_clean_sbu_1, # of connection points: 5
#     Node 31, Type 0, BuildingBlock: XOMCOT_clean_sbu_1, # of connection points: 5
#     Node 32, Type 0, BuildingBlock: XOMCOT_clean_sbu_1, # of connection points: 5
#     Node 33, Type 0, BuildingBlock: XOMCOT_clean_sbu_1, # of connection points: 5
#     Node 34, Type 0, BuildingBlock: XOMCOT_clean_sbu_1, # of connection points: 5
#     Node 35, Type 0, BuildingBlock: XOMCOT_clean_sbu_1, # of connection points: 5
#     Edge 36, Type (0, 0), BuildingBlock: TEMPAE_clean_linker_10, # of connection points: 2
#     Edge 37, Type (0, 0), BuildingBlock: TEMPAE_clean_linker_10, # of connection points: 2
#     Edge 38, Type (0, 0), BuildingBlock: TEMPAE_clean_linker_10, # of connection points: 2
#     Edge 39, Type (0, 0), BuildingBlock: TEMPAE_clean_linker_10, # of connection points: 2
#     Edge 40, Type (0, 0), BuildingBlock: TEMPAE_clean_linker_10, # of connection points: 2
#     Edge 41, Type (0, 0), BuildingBlock: TEMPAE_clean_linker_10, # of connection points: 2
#     Edge 42, Type (0, 0), BuildingBlock: TEMPAE_clean_linker_10, # of connection points: 2
#     Edge 43, Type (0, 0), BuildingBlock: TEMPAE_clean_linker_10, # of connection points: 2
#     Edge 44, Type (0, 0), BuildingBlock: TEMPAE_clean_linker_10, # of connection points: 2
#     Edge 45, Type (0, 0), BuildingBlock: TEMPAE_clean_linker_10, # of connection points: 2
#     Edge 46, Type (0, 0), BuildingBlock: TEMPAE_clean_linker_10, # of connection points: 2
#     Edge 47, Type (0, 0), BuildingBlock: TEMPAE_clean_linker_10, # of connection points: 2
#     Edge 48, Type (0, 0), BuildingBlock: TEMPAE_clean_linker_10, # of connection points: 2
#     Edge 49, Type (0, 0), BuildingBlock: TEMPAE_clean_linker_10, # of connection points: 2
#     Edge 50, Type (0, 0), BuildingBlock: TEMPAE_clean_linker_10, # of connection points: 2
#     Edge 51, Type (0, 0), BuildingBlock: TEMPAE_clean_linker_10, # of connection points: 2
#     Edge 52, Type (0, 0), BuildingBlock: TEMPAE_clean_linker_10, # of connection points: 2
#     Edge 53, Type (0, 0), BuildingBlock: TEMPAE_clean_linker_10, # of connection points: 2
#     Edge 54, Type (0, 0), BuildingBlock: TEMPAE_clean_linker_10, # of connection points: 2
#     Edge 55, Type (0, 0), BuildingBlock: TEMPAE_clean_linker_10, # of connection points: 2
#     Edge 56, Type (0, 0), BuildingBlock: TEMPAE_clean_linker_10, # of connection points: 2
#     Edge 57, Type (0, 0), BuildingBlock: TEMPAE_clean_linker_10, # of connection points: 2
#     Edge 58, Type (0, 0), BuildingBlock: TEMPAE_clean_linker_10, # of connection points: 2
#     Edge 59, Type (0, 0), BuildingBlock: TEMPAE_clean_linker_10, # of connection points: 2
#     Edge 60, Type (0, 0), BuildingBlock: TEMPAE_clean_linker_10, # of connection points: 2
#     Edge 61, Type (0, 0), BuildingBlock: TEMPAE_clean_linker_10, # of connection points: 2
#     Edge 62, Type (0, 0), BuildingBlock: TEMPAE_clean_linker_10, # of connection points: 2
#     Edge 63, Type (0, 0), BuildingBlock: TEMPAE_clean_linker_10, # of connection points: 2
#     Edge 64, Type (0, 0), BuildingBlock: TEMPAE_clean_linker_10, # of connection points: 2
#     Edge 65, Type (0, 0), BuildingBlock: TEMPAE_clean_linker_10, # of connection points: 2
#     Edge 66, Type (0, 0), BuildingBlock: TEMPAE_clean_linker_10, # of connection points: 2
#     Edge 67, Type (0, 0), BuildingBlock: TEMPAE_clean_linker_10, # of connection points: 2
#     Edge 68, Type (0, 0), BuildingBlock: TEMPAE_clean_linker_10, # of connection points: 2
#     Edge 69, Type (0, 0), BuildingBlock: TEMPAE_clean_linker_10, # of connection points: 2
#     Edge 70, Type (0, 0), BuildingBlock: TEMPAE_clean_linker_10, # of connection points: 2
#     Edge 71, Type (0, 0), BuildingBlock: TEMPAE_clean_linker_10, # of connection points: 2
#     Edge 72, Type (0, 0), BuildingBlock: TEMPAE_clean_linker_10, # of connection points: 2
#     Edge 73, Type (0, 0), BuildingBlock: TEMPAE_clean_linker_10, # of connection points: 2
#     Edge 74, Type (0, 0), BuildingBlock: TEMPAE_clean_linker_10, # of connection points: 2
#     Edge 75, Type (0, 0), BuildingBlock: TEMPAE_clean_linker_10, # of connection points: 2
#     Edge 76, Type (0, 0), BuildingBlock: TEMPAE_clean_linker_10, # of connection points: 2
#     Edge 77, Type (0, 0), BuildingBlock: TEMPAE_clean_linker_10, # of connection points: 2
#     Edge 78, Type (0, 0), BuildingBlock: TEMPAE_clean_linker_10, # of connection points: 2
#     Edge 79, Type (0, 0), BuildingBlock: TEMPAE_clean_linker_10, # of connection points: 2
#     Edge 80, Type (0, 0), BuildingBlock: TEMPAE_clean_linker_10, # of connection points: 2
#     Edge 81, Type (0, 0), BuildingBlock: TEMPAE_clean_linker_10, # of connection points: 2
#     Edge 82, Type (0, 0), BuildingBlock: TEMPAE_clean_linker_10, # of connection points: 2
#     Edge 83, Type (0, 0), BuildingBlock: TEMPAE_clean_linker_10, # of connection points: 2
#     Edge 84, Type (0, 0), BuildingBlock: TEMPAE_clean_linker_10, # of connection points: 2
#     Edge 85, Type (0, 0), BuildingBlock: TEMPAE_clean_linker_10, # of connection points: 2
#     Edge 86, Type (0, 0), BuildingBlock: TEMPAE_clean_linker_10, # of connection points: 2
#     Edge 87, Type (0, 0), BuildingBlock: TEMPAE_clean_linker_10, # of connection points: 2
#     Edge 88, Type (0, 0), BuildingBlock: TEMPAE_clean_linker_10, # of connection points: 2
#     Edge 89, Type (0, 0), BuildingBlock: TEMPAE_clean_linker_10, # of connection points: 2
#     Edge 90, Type (0, 0), BuildingBlock: TEMPAE_clean_linker_10, # of connection points: 2
#     Edge 91, Type (0, 0), BuildingBlock: TEMPAE_clean_linker_10, # of connection points: 2
#     Edge 92, Type (0, 0), BuildingBlock: TEMPAE_clean_linker_10, # of connection points: 2
#     Edge 93, Type (0, 0), BuildingBlock: TEMPAE_clean_linker_10, # of connection points: 2
#     Edge 94, Type (0, 0), BuildingBlock: TEMPAE_clean_linker_10, # of connection points: 2
#     Edge 95, Type (0, 0), BuildingBlock: TEMPAE_clean_linker_10, # of connection points: 2
#     Edge 96, Type (0, 0), BuildingBlock: TEMPAE_clean_linker_10, # of connection points: 2
#     Edge 97, Type (0, 0), BuildingBlock: TEMPAE_clean_linker_10, # of connection points: 2
#     Edge 98, Type (0, 0), BuildingBlock: TEMPAE_clean_linker_10, # of connection points: 2
#     Edge 99, Type (0, 0), BuildingBlock: TEMPAE_clean_linker_10, # of connection points: 2
#     Edge 100, Type (0, 0), BuildingBlock: TEMPAE_clean_linker_10, # of connection points: 2
#     Edge 101, Type (0, 0), BuildingBlock: TEMPAE_clean_linker_10, # of connection points: 2
#     Edge 102, Type (0, 0), BuildingBlock: TEMPAE_clean_linker_10, # of connection points: 2
#     Edge 103, Type (0, 0), BuildingBlock: TEMPAE_clean_linker_10, # of connection points: 2
#     Edge 104, Type (0, 0), BuildingBlock: TEMPAE_clean_linker_10, # of connection points: 2
#     Edge 105, Type (0, 0), BuildingBlock: TEMPAE_clean_linker_10, # of connection points: 2
#     Edge 106, Type (0, 0), BuildingBlock: TEMPAE_clean_linker_10, # of connection points: 2
#     Edge 107, Type (0, 0), BuildingBlock: TEMPAE_clean_linker_10, # of connection points: 2
#     Edge 108, Type (0, 0), BuildingBlock: TEMPAE_clean_linker_10, # of connection points: 2
#     Edge 109, Type (0, 0), BuildingBlock: TEMPAE_clean_linker_10, # of connection points: 2
#     Edge 110, Type (0, 0), BuildingBlock: TEMPAE_clean_linker_10, # of connection points: 2
#     Edge 111, Type (0, 0), BuildingBlock: TEMPAE_clean_linker_10, # of connection points: 2
#     Edge 112, Type (0, 0), BuildingBlock: TEMPAE_clean_linker_10, # of connection points: 2
#     Edge 113, Type (0, 0), BuildingBlock: TEMPAE_clean_linker_10, # of connection points: 2
#     Edge 114, Type (0, 0), BuildingBlock: TEMPAE_clean_linker_10, # of connection points: 2
#     Edge 115, Type (0, 0), BuildingBlock: TEMPAE_clean_linker_10, # of connection points: 2
#     Edge 116, Type (0, 0), BuildingBlock: TEMPAE_clean_linker_10, # of connection points: 2
#     Edge 117, Type (0, 0), BuildingBlock: TEMPAE_clean_linker_10, # of connection points: 2
#     Edge 118, Type (0, 0), BuildingBlock: TEMPAE_clean_linker_10, # of connection points: 2
#     Edge 119, Type (0, 0), BuildingBlock: TEMPAE_clean_linker_10, # of connection points: 2
#     Edge 120, Type (0, 0), BuildingBlock: TEMPAE_clean_linker_10, # of connection points: 2
#     Edge 121, Type (0, 0), BuildingBlock: TEMPAE_clean_linker_10, # of connection points: 2
#     Edge 122, Type (0, 0), BuildingBlock: TEMPAE_clean_linker_10, # of connection points: 2
#     Edge 123, Type (0, 0), BuildingBlock: TEMPAE_clean_linker_10, # of connection points: 2
#     Edge 124, Type (0, 0), BuildingBlock: TEMPAE_clean_linker_10, # of connection points: 2
#     Edge 125, Type (0, 0), BuildingBlock: TEMPAE_clean_linker_10, # of connection points: 2
# Relax obj value: 0.186
# Max RMSD: 0.191
# Mean RMSD: 0.191
data_MOF--net-wlt--node1-XOMCOT_clean_sbu_1--edge1-TEMPAE_clean_linker_10
_symmetry_space_group_name_H-M    P1
_symmetry_Int_Tables_number       1
_symmetry_cell_setting            triclinic
loop_
_symmetry_equiv_pos_as_xyz
'x, y, z'
_cell_length_a     65.583792
_cell_length_b     65.505707
_cell_length_c     50.715574
_cell_angle_alpha  90.085369
_cell_angle_beta   90.05287
_cell_angle_gamma 119.95839
loop_
_atom_site_label
_atom_site_type_symbol
_atom_site_fract_x
_atom_site_fract_y
_atom_site_fract_z
_atom_type_partial_charge
C0 C 0.22523 0.19261 0.0201 0.0
C1 C 0.20726 0.19588 0.01143 0.0
N2 N 0.21109 0.21692 0.02016 0.0
N3 N 0.24079 0.21161 0.03411 0.0
C4 C 0.2314 0.22602 0.03415 0.0
H5 H 0.2264 0.17699 0.01664 0.0
Co6 Co 0.26806 0.21469 0.05094 0.0
C7 C 0.28861 0.2626 0.02263 0.0
O8 O 0.27446 0.25618 0.00214 0.0
N9 N 0.29503 0.21765 0.06755 0.0
C10 C 0.33238 0.2286 0.07587 0.0
C11 C 0.31736 0.23106 0.05901 0.0
C12 C 0.29688 0.20687 0.08943 0.0
N13 N 0.31952 0.21335 0.09499 0.0
O14 O 0.27503 0.20152 0.0203 0.0
H15 H 0.32243 0.24171 0.04136 0.0
H16 H 0.28193 0.19457 0.10106 0.0
O17 O 0.28657 0.24728 0.03946 0.0
C18 C 0.26713 0.17989 0.02641 0.0
O19 O 0.25755 0.17285 0.04982 0.0
N20 N 0.2604 0.22497 0.08144 0.0
C21 C 0.24736 0.23577 0.12913 0.0
C22 C 0.2686 0.25189 0.11711 0.0
C23 C 0.27497 0.24601 0.09339 0.0
C24 C 0.23963 0.20912 0.09273 0.0
C25 C 0.23263 0.21424 0.11656 0.0
H26 H 0.29199 0.25801 0.08528 0.0
H27 H 0.22868 0.1922 0.08341 0.0
H28 H 0.23939 0.24291 0.0441 0.0
H29 H 0.19218 0.18342 -2e-05 0.0
H30 H 0.3513 0.2369 0.07381 0.0
H31 H 0.28052 0.26863 0.12634 0.0
H32 H 0.21637 0.20108 0.12557 0.0
C33 C 0.84294 0.02102 0.04865 0.0
C34 C 0.8407 1.00069 0.03805 0.0
N35 N 0.81982 0.98915 0.02571 0.0
N36 N 0.8233 0.02228 0.04386 0.0
C37 C 0.81004 1.00295 0.0286 0.0
H38 H 0.85821 0.03421 0.05917 0.0
Co39 Co 0.82074 0.04917 0.0541 0.0
C40 C 0.77037 1.01386 0.04749 0.0
O41 O 0.77473 0.99945 0.06119 0.0
N42 N 0.81974 0.07643 0.06323 0.0
C43 C 0.81421 0.10722 0.06172 0.0
C44 C 0.80994 0.08679 0.04917 0.0
C45 C 0.82994 0.09087 0.08415 0.0
N46 N 0.82673 0.1097 0.08377 0.0
O47 O 0.83497 0.06383 0.02095 0.0
H48 H 0.80056 0.08008 0.03077 0.0
H49 H 0.83985 0.08777 0.09913 0.0
O50 O 0.78747 0.03432 0.041 0.0
C51 C 0.85683 0.07626 0.0268 0.0
O52 O 0.86316 0.07571 0.05127 0.0
N53 N 0.80922 0.03674 0.08806 0.0
C54 C 0.7946 0.02219 0.13942 0.0
C55 C 0.78336 0.03136 0.12422 0.0
C56 C 0.79104 0.03869 0.09865 0.0
C57 C 0.82089 0.02867 0.10323 0.0
C58 C 0.8135 0.02077 0.1288 0.0
H59 H 0.78257 0.0464 0.08752 0.0
H60 H 0.83653 0.02912 0.09623 0.0
H61 H 0.79392 0.99927 0.01882 0.0
H62 H 0.85339 0.99475 0.03951 0.0
H63 H 0.80844 0.11925 0.05522 0.0
H64 H 0.769 0.03316 0.13217 0.0
H65 H 0.82312 1.01459 0.14059 0.0
C66 C 1.01809 0.83436 0.06914 0.0
C67 C 0.04112 0.85084 0.06436 0.0
N68 N 0.05095 0.84053 0.05036 0.0
N69 N 1.01325 0.81356 0.05839 0.0
C70 C 0.03363 0.81792 0.04673 0.0
H71 H 1.00568 0.83724 0.08023 0.0
Co72 Co 0.98425 0.78609 0.06373 0.0
C73 C 0.99488 0.74768 0.07202 0.0
O74 O 0.97845 0.73992 0.09021 0.0
N75 N 0.95445 0.75849 0.06868 0.0
C76 C 0.92415 0.72245 0.06089 0.0
C77 C 0.94544 0.74004 0.05172 0.0
C78 C 0.93773 0.75179 0.08761 0.0
N79 N 0.91937 0.72993 0.0835 0.0
O80 O 0.97606 0.78491 0.02702 0.0
H81 H 0.95417 0.73914 0.03404 0.0
H82 H 0.9389 0.7621 0.10467 0.0
O83 O 0.99928 0.76615 0.05868 0.0
C84 C 0.96809 0.79895 0.02341 0.0
O85 O 0.97041 0.81349 0.04254 0.0
N86 N 0.99112 0.7892 0.09983 0.0
C87 C 0.9981 0.79615 0.15378 0.0
C88 C 1.01275 0.79089 0.13862 0.0
C89 C 1.00935 0.78809 0.11144 0.0
C90 C 0.97885 0.79725 0.11384 0.0
C91 C 0.98148 0.80011 0.14103 0.0
H92 H 1.02152 0.78526 0.09987 0.0
H93 H 0.96657 0.80105 0.10377 0.0
H94 H 0.03591 0.80472 0.03642 0.0
H95 H 0.04993 0.86912 0.07048 0.0
H96 H 0.91314 0.70542 0.05179 0.0
H97 H 0.02644 0.78861 0.14769 0.0
H98 H 0.97069 0.80541 0.15195 0.0
C99 C 0.19071 0.20303 0.42088 0.0
C100 C 0.19163 0.18352 0.42907 0.0
N101 N 0.21417 0.19019 0.43444 0.0
N102 N 0.21262 0.22202 0.42037 0.0
C103 C 0.22638 0.21362 0.42987 0.0
H104 H 0.17487 0.20333 0.41569 0.0
Co105 Co 0.2183 0.25261 0.41124 0.0
C106 C 0.2676 0.26242 0.40703 0.0
O107 O 0.25985 0.24385 0.39161 0.0
N108 N 0.22303 0.28258 0.40303 0.0
C109 C 0.23598 0.32104 0.40234 0.0
C110 C 0.23752 0.30327 0.41502 0.0
C111 C 0.21266 0.2881 0.38346 0.0
N112 N 0.2205 0.31142 0.38233 0.0
O113 O 0.21065 0.25652 0.4469 0.0
H114 H 0.24866 0.30531 0.43172 0.0
H115 H 0.19977 0.27522 0.37007 0.0
O116 O 0.25287 0.26719 0.41823 0.0
C117 C 0.18942 0.25219 0.44449 0.0
O118 O 0.17944 0.24625 0.42111 0.0
N119 N 0.22258 0.24825 0.37528 0.0
C120 C 0.222 0.24515 0.32056 0.0
C121 C 0.24041 0.26441 0.33346 0.0
C122 C 0.24023 0.26579 0.36078 0.0
C123 C 0.20442 0.22951 0.36281 0.0
C124 C 0.20399 0.22739 0.33548 0.0
H125 H 0.25368 0.28164 0.37018 0.0
H126 H 0.18934 0.21681 0.37366 0.0
H127 H 0.24478 0.22436 0.4347 0.0
H128 H 0.17688 0.16577 0.43079 0.0
H129 H 0.24584 0.33964 0.40706 0.0
H130 H 0.25457 0.27857 0.3225 0.0
H131 H 0.18915 0.21255 0.32603 0.0
C132 C 0.82402 1.00409 0.40834 0.0
C133 C 0.84101 0.02707 0.41261 0.0
N134 N 0.83272 0.03656 0.43013 0.0
N135 N 0.8048 0.99891 0.42283 0.0
C136 C 0.81074 0.01906 0.4363 0.0
H137 H 0.82548 0.99193 0.39512 0.0
Co138 Co 0.77715 0.96947 0.41969 0.0
C139 C 0.73732 0.97853 0.42367 0.0
O140 O 0.72635 0.96147 0.40641 0.0
N141 N 0.7497 0.93908 0.41662 0.0
C142 C 0.71571 0.90698 0.42716 0.0
C143 C 0.73331 0.92865 0.43577 0.0
C144 C 0.74206 0.92272 0.39708 0.0
N145 N 0.7214 0.90333 0.40287 0.0
O146 O 0.78159 0.96076 0.45451 0.0
H147 H 0.73385 0.93661 0.45465 0.0
H148 H 0.75098 0.9247 0.37865 0.0
O149 O 0.75782 0.98345 0.43207 0.0
C150 C 0.79443 0.95144 0.45064 0.0
O151 O 0.80226 0.95204 0.42664 0.0
N152 N 0.77485 0.97716 0.38476 0.0
C153 C 0.77668 0.98752 0.33163 0.0
C154 C 0.77085 0.99966 0.35001 0.0
C155 C 0.77094 0.99484 0.37671 0.0
C156 C 0.78237 0.96665 0.36714 0.0
C157 C 0.78303 0.97125 0.34033 0.0
H158 H 0.7688 1.00601 0.39068 0.0
H159 H 0.78823 0.95483 0.37407 0.0
H160 H 0.7991 0.02106 0.44982 0.0
H161 H 0.85833 0.0361 0.40374 0.0
H162 H 0.70004 0.89482 0.43789 0.0
H163 H 0.76721 1.01336 0.34385 0.0
H164 H 0.78856 0.9623 0.32656 0.0
C165 C 0.04316 0.82501 0.45979 0.0
C166 C 1.02236 0.82259 0.46898 0.0
N167 N 1.00451 0.80195 0.46015 0.0
N168 N 0.03866 0.80589 0.4454 0.0
C169 C 1.01487 0.79217 0.44585 0.0
H170 H 0.06043 0.84013 0.46288 0.0
Co171 Co 0.06137 0.80211 0.427 0.0
C172 C 0.03585 0.75321 0.45294 0.0
O173 O 0.03481 0.75937 0.47734 0.0
N174 N 0.08408 0.79825 0.40839 0.0
C175 C 0.10802 0.78509 0.39611 0.0
C176 C 0.09034 0.78182 0.41308 0.0
C177 C 0.09852 0.81153 0.38868 0.0
N178 N 0.11322 0.80383 0.38081 0.0
O179 O 0.08117 0.81115 0.45807 0.0
H180 H 0.08303 0.7686 0.42835 0.0
H181 H 0.09845 0.82673 0.38046 0.0
O182 O 0.04549 0.76892 0.43523 0.0
C183 C 0.0977 0.83227 0.45389 0.0
O184 O 0.09752 0.84252 0.43172 0.0
N185 N 0.0438 0.79609 0.39638 0.0
C186 C 0.0235 0.79399 0.34766 0.0
C187 C 1.01631 0.77345 0.36246 0.0
C188 C 0.0267 0.77485 0.38686 0.0
C189 C 0.0501 0.81632 0.38292 0.0
C190 C 0.04031 0.8157 0.3584 0.0
H191 H 1.02086 0.75883 0.39779 0.0
H192 H 0.06342 0.833 0.39102 0.0
H193 H 1.0053 0.77542 0.43574 0.0
H194 H 1.02048 0.83547 0.48052 0.0
H195 H 0.11698 0.77499 0.39572 0.0
H196 H 1.00301 0.7564 0.35507 0.0
H197 H 0.04655 0.83197 0.34755 0.0
C198 C 0.83238 0.84539 0.93404 0.0
C199 C 0.84808 0.84238 0.94916 0.0
N200 N 0.84172 0.81943 0.94873 0.0
N201 N 0.81593 0.82441 0.92413 0.0
C202 C 0.82193 0.80881 0.93385 0.0
H203 H 0.83378 0.86213 0.92942 0.0
Co204 Co 0.793 0.82109 0.89913 0.0
C205 C 0.77537 0.76926 0.8866 0.0
O206 O 0.78989 0.77482 0.86672 0.0
N207 N 0.76912 0.81734 0.87392 0.0
C208 C 0.74538 0.80472 0.83871 0.0
C209 C 0.76264 0.80326 0.85234 0.0
C210 C 0.75542 0.82751 0.87243 0.0
N211 N 0.74083 0.82002 0.85131 0.0
O212 O 0.77482 0.82379 0.92751 0.0
H213 H 0.77071 0.79337 0.84575 0.0
H214 H 0.75601 0.8403 0.88627 0.0
O215 O 0.77594 0.78549 0.9015 0.0
C216 C 0.78238 0.84603 0.92724 0.0
O217 O 0.79722 0.85876 0.9086 0.0
N218 N 0.81375 0.82385 0.87153 0.0
C219 C 0.84642 0.83701 0.83053 0.0
C220 C 0.84564 0.82188 0.85054 0.0
C221 C 0.82945 0.81583 0.87108 0.0
C222 C 0.81631 0.84065 0.85385 0.0
C223 C 0.83178 0.84682 0.83282 0.0
H224 H 0.82914 0.80393 0.88586 0.0
H225 H 0.8062 0.84946 0.85584 0.0
H226 H 0.81294 0.79029 0.92873 0.0
H227 H 0.86394 0.85626 0.95821 0.0
H228 H 0.73757 0.79605 0.82021 0.0
H229 H 0.85715 0.81447 0.85022 0.0
H230 H 0.83158 0.8587 0.81817 0.0
C231 C 0.20354 0.99937 0.91469 0.0
C232 C 0.2091 0.02205 0.92026 0.0
N233 N 0.23098 0.03358 0.93049 0.0
N234 N 0.22172 0.99629 0.92132 0.0
C235 C 0.23824 0.01747 0.93117 0.0
H236 H 0.18735 0.98602 0.90574 0.0
Co237 Co 0.22095 0.96788 0.91359 0.0
C238 C 0.26975 0.98002 0.90274 0.0
O239 O 0.26063 0.96468 0.88339 0.0
N240 N 0.21937 0.93845 0.90616 0.0
C241 C 0.22629 0.90855 0.91105 0.0
C242 C 0.22951 0.92926 0.92178 0.0
C243 C 0.20936 0.92234 0.88647 0.0
N244 N 0.21359 0.90425 0.88884 0.0
O245 O 0.21434 0.95842 0.94987 0.0
H246 H 0.23927 0.93749 0.93959 0.0
H247 H 0.19966 0.92377 0.87014 0.0
O248 O 0.25593 0.98324 0.91805 0.0
C249 C 0.19186 0.94771 0.95038 0.0
O250 O 0.18057 0.94672 0.92857 0.0
N251 N 0.22406 0.97626 0.87811 0.0
C252 C 0.22228 0.98696 0.82561 0.0
C253 C 0.24242 1.00097 0.84076 0.0
C254 C 0.24269 0.99573 0.8673 0.0
C255 C 0.20355 0.96419 0.86439 0.0
C256 C 0.20242 0.96876 0.83786 0.0
H257 H 0.25765 1.00763 0.87912 0.0
H258 H 0.18794 0.95081 0.87418 0.0
H259 H 0.25542 0.02121 0.93794 0.0
H260 H 0.19777 0.02944 0.91716 0.0
H261 H 0.23284 0.89755 0.91889 0.0
H262 H 0.25762 0.01607 0.83229 0.0
H263 H 0.18625 0.95801 0.82703 0.0
C264 C 0.04137 0.2025 0.92733 0.0
C265 C 1.01974 0.18371 0.93342 0.0
N266 N 1.00499 0.19185 0.93891 0.0
N267 N 0.04049 0.22257 0.9289 0.0
C268 C 1.01807 0.21558 0.93633 0.0
H269 H 0.05661 0.20153 0.92107 0.0
Co270 Co 0.06593 0.25096 0.91724 0.0
C271 C 0.04814 0.28279 0.90422 0.0
O272 O 0.06072 0.2869 0.88269 0.0
N273 N 0.09266 0.2799 0.90589 0.0
C274 C 0.12067 0.31774 0.9082 0.0
C275 C 0.10125 0.29989 0.92034 0.0
C276 C 0.1076 0.28625 0.88504 0.0
N277 N 0.12468 0.30917 0.88589 0.0
O278 O 0.07853 0.25797 0.95263 0.0
H279 H 0.09381 0.30144 0.93874 0.0
H280 H 0.10617 0.27464 0.86925 0.0
O281 O 0.04776 0.26805 0.92132 0.0
C282 C 0.09376 0.2512 0.95275 0.0
O283 O 0.09671 0.2419 0.93115 0.0
N284 N 0.05476 0.24166 0.88292 0.0
C285 C 0.03988 0.22258 0.83261 0.0
C286 C 0.02508 0.22659 0.84929 0.0
C287 C 0.03284 0.23612 0.87435 0.0
C288 C 0.06793 0.23504 0.86849 0.0
C289 C 0.06154 0.2267 0.84288 0.0
H290 H 1.02092 0.2384 0.88706 0.0
H291 H 0.08368 0.23635 0.87695 0.0
H292 H 1.01114 0.22742 0.93845 0.0
H293 H 1.01513 0.16537 0.93352 0.0
H294 H 0.1313 0.3355 0.91564 0.0
H295 H 1.0075 0.22219 0.84341 0.0
H296 H 0.07378 0.22381 0.83148 0.0
C297 C 0.85669 0.82887 0.55007 0.0
C298 C 0.85319 0.84735 0.54432 0.0
N299 N 0.83025 0.83865 0.53879 0.0
N300 N 0.83606 0.80847 0.5483 0.0
C301 C 0.82019 0.81496 0.54106 0.0
H302 H 0.87311 0.83031 0.55634 0.0
Co303 Co 0.83333 0.78002 0.55971 0.0
C304 C 0.78507 0.75126 0.57962 0.0
O305 O 0.79516 0.74721 0.59976 0.0
N306 N 0.83102 0.75103 0.57077 0.0
C307 C 0.8181 0.71235 0.57096 0.0
C308 C 0.81649 0.73024 0.5588 0.0
C309 C 0.84177 0.74518 0.5898 0.0
N310 N 0.83405 0.72184 0.59044 0.0
O311 O 0.83436 0.77093 0.52382 0.0
H312 H 0.80503 0.72813 0.54241 0.0
H313 H 0.85462 0.75736 0.60353 0.0
O314 O 0.79803 0.76442 0.56068 0.0
C315 C 0.85645 0.77899 0.52074 0.0
O316 O 0.87072 0.79071 0.54025 0.0
N317 N 0.83626 0.79117 0.59416 0.0
C318 C 0.84899 0.81379 0.64296 0.0
C319 C 0.82797 0.80932 0.63046 0.0
C320 C 0.82203 0.79818 0.60591 0.0
C321 C 0.85782 0.79785 0.60455 0.0
C322 C 0.86412 0.80814 0.62935 0.0
H323 H 0.80642 0.79591 0.59605 0.0
H324 H 0.87036 0.79526 0.59337 0.0
H325 H 0.80153 0.80279 0.53882 0.0
H326 H 0.86646 0.86584 0.54451 0.0
H327 H 0.80834 0.69383 0.56586 0.0
H328 H 0.81634 0.81467 0.63927 0.0
H329 H 0.88068 0.81138 0.63764 0.0
C330 C 0.2118 0.02562 0.52771 0.0
C331 C 0.19487 1.00365 0.51946 0.0
N332 N 0.20349 0.98888 0.52162 0.0
N333 N 0.23125 0.025 0.53496 0.0
C334 C 0.22562 1.00227 0.53119 0.0
H335 H 0.20979 0.04098 0.52898 0.0
Co336 Co 0.2574 0.05136 0.54942 0.0
C337 C 0.29521 0.03946 0.55652 0.0
O338 O 0.30148 0.05275 0.57775 0.0
N339 N 0.2837 0.07896 0.56383 0.0
C340 C 0.31846 0.11217 0.56474 0.0
C341 C 0.30383 0.09242 0.55031 0.0
C342 C 0.28663 0.09118 0.58651 0.0
N343 N 0.30762 0.11136 0.58753 0.0
O344 O 0.26387 0.06706 0.51568 0.0
H345 H 0.30759 0.0882 0.53095 0.0
H346 H 0.27352 0.08605 0.60174 0.0
O347 O 0.27781 0.03719 0.54248 0.0
C348 C 0.25635 0.08159 0.51849 0.0
O349 O 0.2465 0.08178 0.54097 0.0
N350 N 0.24866 0.03711 0.58225 0.0
C351 C 0.23247 0.02047 0.63248 0.0
C352 C 0.24271 1.01017 0.61714 0.0
C353 C 0.25024 0.01842 0.59167 0.0
C354 C 0.23641 0.0454 0.59582 0.0
C355 C 0.22853 0.03767 0.62123 0.0
H356 H 0.25711 1.0096 0.57979 0.0
H357 H 0.23344 0.05874 0.5871 0.0
H358 H 0.23735 0.9956 0.53557 0.0
H359 H 0.17726 0.99879 0.51309 0.0
H360 H 0.33576 0.12604 0.55893 0.0
H361 H 0.24543 0.99632 0.62492 0.0
H362 H 0.21981 0.04537 0.63212 0.0
C363 C 1.00113 0.18123 0.53667 0.0
C364 C 1.02192 0.18351 0.52768 0.0
N365 N 0.03804 0.2066 0.52666 0.0
N366 N 1.00392 0.20277 0.54109 0.0
C367 C 0.02668 0.21796 0.53479 0.0
H368 H 0.98509 0.16481 0.5403 0.0
Co369 Co 0.97996 0.20718 0.55508 0.0
C370 C 1.00159 0.25746 0.56812 0.0
O371 O 0.98944 0.25002 0.59008 0.0
N372 N 0.95492 0.21116 0.56853 0.0
C373 C 0.92919 0.22407 0.56947 0.0
C374 C 0.94744 0.2244 0.55584 0.0
C375 C 0.94023 0.20239 0.58954 0.0
N376 N 0.92468 0.21018 0.59065 0.0
O377 O 0.96549 0.20154 0.52068 0.0
H378 H 0.95498 0.23392 0.53775 0.0
H379 H 0.94071 0.19068 0.60407 0.0
O380 O 0.99952 0.24232 0.5505 0.0
C381 C 0.9496 0.17976 0.52178 0.0
O382 O 0.94701 0.16826 0.54386 0.0
N383 N 0.99268 0.20883 0.58858 0.0
C384 C 1.00833 0.20465 0.63842 0.0
C385 C 0.02323 0.22286 0.6212 0.0
C386 C 1.01509 0.22462 0.59638 0.0
C387 C 0.97938 0.18935 0.60338 0.0
C388 C 0.98621 0.18746 0.62878 0.0
H389 H 0.02702 0.2385 0.58342 0.0
H390 H 0.96314 0.17519 0.59547 0.0
H391 H 0.03487 0.23692 0.53629 0.0
H392 H 0.02514 0.16924 0.52293 0.0
H393 H 0.91974 0.23305 0.56401 0.0
H394 H 0.04111 0.23568 0.62654 0.0
H395 H 0.97387 0.17272 0.64057 0.0
C396 C 0.87109 0.50957 0.40442 0.0
C397 C 0.85201 0.50899 0.3925 0.0
N398 N 0.85977 0.52471 0.37265 0.0
N399 N 0.89105 0.52592 0.39265 0.0
C400 C 0.88346 0.53401 0.3725 0.0
H401 H 0.87055 0.49956 0.42161 0.0
Co402 Co 0.9211 0.53439 0.40627 0.0
C403 C 0.93046 0.5852 0.39283 0.0
O404 O 0.90874 0.58029 0.38873 0.0
N405 N 0.95097 0.54243 0.42041 0.0
C406 C 0.98338 0.56146 0.44493 0.0
C407 C 0.96474 0.56242 0.4341 0.0
C408 C 0.96148 0.52929 0.42384 0.0
N409 N 0.98126 0.54054 0.43867 0.0
O410 O 0.92979 0.52706 0.37269 0.0
H411 H 0.96039 0.57599 0.43812 0.0
H412 H 0.95412 0.51136 0.41695 0.0
O413 O 0.93482 0.56861 0.39821 0.0
C414 C 0.92266 0.50501 0.37452 0.0
O415 O 0.91192 0.49401 0.39625 0.0
N416 N 0.91159 0.5383 0.43971 0.0
C417 C 0.89533 0.53684 0.49085 0.0
C418 C 0.89275 0.55061 0.47132 0.0
C419 C 0.9012 0.55125 0.44589 0.0
C420 C 0.91315 0.52398 0.45803 0.0
C421 C 0.90598 0.52362 0.4838 0.0
H422 H 0.89829 0.56119 0.43108 0.0
H423 H 0.92003 0.51261 0.45263 0.0
H424 H 0.8951 0.54697 0.35841 0.0
H425 H 0.83394 0.49884 0.39907 0.0
H426 H 0.99643 0.57435 0.45817 0.0
H427 H 0.88391 0.56048 0.47532 0.0
H428 H 0.90898 0.51304 0.49793 0.0
C429 C 0.51639 0.37456 0.37748 0.0
C430 C 0.51356 0.3532 0.36965 0.0
N431 N 0.49038 0.33737 0.36912 0.0
N432 N 0.49512 0.37241 0.38167 0.0
C433 C 0.47954 0.34946 0.37641 0.0
H434 H 0.533 0.3906 0.38041 0.0
Co435 Co 0.49153 0.39734 0.39417 0.0
C436 C 0.44061 0.38032 0.39732 0.0
O437 O 0.44518 0.39294 0.41893 0.0
N438 N 0.48874 0.42352 0.40639 0.0
C439 C 0.4833 0.45452 0.40378 0.0
C440 C 0.48053 0.43476 0.39104 0.0
C441 C 0.49637 0.43701 0.4285 0.0
N442 N 0.49323 0.45583 0.42736 0.0
O443 O 0.50154 0.41279 0.36036 0.0
H444 H 0.4734 0.42918 0.37142 0.0
H445 H 0.50512 0.43407 0.4448 0.0
O446 O 0.45746 0.38014 0.38453 0.0
C447 C 0.52281 0.42903 0.3645 0.0
O448 O 0.53184 0.43053 0.38806 0.0
N449 N 0.48522 0.38348 0.42746 0.0
C450 C 0.48385 0.36524 0.47761 0.0
C451 C 0.46563 0.3527 0.45926 0.0
C452 C 0.46659 0.36218 0.43439 0.0
C453 C 0.50409 0.39453 0.4438 0.0
C454 C 0.50335 0.3865 0.46929 0.0
H455 H 0.45277 0.35185 0.42055 0.0
H456 H 0.51985 0.41 0.43703 0.0
H457 H 0.46067 0.34169 0.3779 0.0
H458 H 0.52753 0.34945 0.36536 0.0
H459 H 0.47866 0.46711 0.3962 0.0
H460 H 0.45085 0.3355 0.46362 0.0
H461 H 0.51805 0.39723 0.48211 0.0
C462 C 0.66722 0.15483 0.37095 0.0
C463 C 0.68855 0.17179 0.36121 0.0
N464 N 0.70391 0.16387 0.36314 0.0
N465 N 0.66884 0.13608 0.37888 0.0
C466 C 0.69151 0.14211 0.37392 0.0
H467 H 0.65159 0.15632 0.37265 0.0
Co468 Co 0.64362 0.10986 0.39495 0.0
C469 C 0.66164 0.07953 0.41398 0.0
O470 O 0.64974 0.07808 0.4354 0.0
N471 N 0.61738 0.08291 0.41053 0.0
C472 C 0.59063 0.04479 0.41398 0.0
C473 C 0.60871 0.06145 0.39918 0.0
C474 C 0.60354 0.07871 0.43212 0.0
N475 N 0.58741 0.05557 0.43479 0.0
O476 O 0.62888 0.09874 0.36081 0.0
H477 H 0.61551 0.05799 0.38134 0.0
H478 H 0.60533 0.092 0.44601 0.0
O479 O 0.66111 0.09173 0.39429 0.0
C480 C 0.61343 0.10527 0.36053 0.0
O481 O 0.61192 0.11667 0.38107 0.0
N482 N 0.65651 0.1233 0.42762 0.0
C483 C 0.6727 0.147 0.47528 0.0
C484 C 0.68627 0.13969 0.46106 0.0
C485 C 0.67816 0.12846 0.43684 0.0
C486 C 0.64435 0.1324 0.43987 0.0
C487 C 0.65186 0.14393 0.464 0.0
H488 H 0.68932 0.12388 0.42571 0.0
H489 H 0.62858 0.13057 0.43086 0.0
H490 H 0.69884 0.13091 0.37823 0.0
H491 H 0.69263 0.18895 0.35394 0.0
H492 H 0.58042 0.02613 0.4096 0.0
H493 H 0.70273 0.14209 0.46877 0.0
H494 H 0.64138 0.15025 0.47378 0.0
C495 C 0.8633 0.54407 0.79002 0.0
C496 C 0.86772 0.52682 0.7988 0.0
N497 N 0.89091 0.53468 0.79632 0.0
N498 N 0.88359 0.56293 0.78218 0.0
C499 C 0.90019 0.55668 0.78629 0.0
H500 H 0.84619 0.54265 0.78878 0.0
Co501 Co 0.88466 0.58946 0.76678 0.0
C502 C 0.93401 0.62214 0.75263 0.0
O503 O 0.92524 0.62542 0.73079 0.0
N504 N 0.88517 0.61658 0.75177 0.0
C505 C 0.89199 0.65356 0.75031 0.0
C506 C 0.89529 0.63759 0.76446 0.0
C507 C 0.87579 0.62046 0.72974 0.0
N508 N 0.87978 0.64275 0.72843 0.0
O509 O 0.87862 0.59889 0.80082 0.0
H510 H 0.90459 0.64113 0.78303 0.0
H511 H 0.86577 0.60738 0.715 0.0
O512 O 0.91992 0.60802 0.7703 0.0
C513 C 0.85662 0.59214 0.7996 0.0
O514 O 0.84492 0.58115 0.77823 0.0
N515 N 0.88664 0.57783 0.73387 0.0
C516 C 0.88257 0.55775 0.68426 0.0
C517 C 0.9024 0.56399 0.70024 0.0
C518 C 0.90411 0.57403 0.72499 0.0
C519 C 0.86604 0.56884 0.72035 0.0
C520 C 0.86397 0.55983 0.69508 0.0
H521 H 0.9194 0.57849 0.73692 0.0
H522 H 0.85128 0.56947 0.72894 0.0
H523 H 0.91866 0.56786 0.78182 0.0
H524 H 0.85471 0.50949 0.80566 0.0
H525 H 0.89829 0.67177 0.75555 0.0
H526 H 0.91659 0.56125 0.69386 0.0
H527 H 0.84808 0.55523 0.68417 0.0
C528 C 0.48773 0.32092 0.76556 0.0
C529 C 0.5067 0.34267 0.77114 0.0
N530 N 0.49874 0.35755 0.77686 0.0
N531 N 0.46776 0.3219 0.76765 0.0
C532 C 0.47499 0.34445 0.77494 0.0
H533 H 0.48848 0.30556 0.75913 0.0
Co534 Co 0.43897 0.29686 0.75605 0.0
C535 C 0.40854 0.31679 0.74492 0.0
O536 O 0.40234 0.30328 0.72383 0.0
N537 N 0.40962 0.27053 0.74471 0.0
C538 C 0.37146 0.24315 0.74569 0.0
C539 C 0.38908 0.26299 0.75774 0.0
C540 C 0.40397 0.25423 0.72534 0.0
N541 N 0.38094 0.23765 0.72535 0.0
O542 O 0.43235 0.28368 0.79108 0.0
H543 H 0.38706 0.27142 0.7751 0.0
H544 H 0.41619 0.25402 0.71139 0.0
O545 O 0.42295 0.31588 0.76152 0.0
C546 C 0.43771 0.26743 0.78933 0.0
O547 O 0.44607 0.26476 0.76686 0.0
N548 N 0.4477 0.30854 0.72172 0.0
C549 C 0.4638 0.32335 0.67044 0.0
C550 C 0.46132 0.33839 0.6884 0.0
C551 C 0.45325 0.33065 0.71387 0.0
C552 C 0.45344 0.29533 0.70606 0.0
C553 C 0.46014 0.30163 0.68 0.0
H554 H 0.45205 0.34276 0.72736 0.0
H555 H 0.453 0.27981 0.71393 0.0
H556 H 0.46329 0.35152 0.77723 0.0
H557 H 0.52502 0.34732 0.77058 0.0
H558 H 0.35322 0.23326 0.75175 0.0
H559 H 0.46577 0.35614 0.68325 0.0
H560 H 0.46222 0.28926 0.66783 0.0
C561 C 0.70277 0.17864 0.75374 0.0
C562 C 0.67995 0.17228 0.75937 0.0
N563 N 0.6693 0.15051 0.76979 0.0
N564 N 0.70673 0.161 0.76043 0.0
C565 C 0.68598 0.14405 0.77051 0.0
H566 H 0.71561 0.19498 0.74466 0.0
Co567 Co 0.73535 0.16277 0.75201 0.0
C568 C 0.72474 0.11474 0.73851 0.0
O569 O 0.74021 0.12481 0.71954 0.0
N570 N 0.76499 0.16541 0.74384 0.0
C571 C 0.7967 0.16142 0.74864 0.0
C572 C 0.77588 0.15726 0.75982 0.0
C573 C 0.7798 0.1745 0.72298 0.0
N574 N 0.79901 0.17212 0.72537 0.0
O575 O 0.74471 0.16763 0.78847 0.0
H576 H 0.76886 0.14825 0.77829 0.0
H577 H 0.77681 0.18252 0.70603 0.0
O578 O 0.72076 0.12771 0.75439 0.0
C579 C 0.75388 0.18967 0.79296 0.0
O580 O 0.75283 0.20304 0.77437 0.0
N581 N 0.72698 0.16104 0.71651 0.0
C582 C 0.71535 0.16457 0.66478 0.0
C583 C 0.70229 0.14355 0.6788 0.0
C584 C 0.70794 0.14237 0.705 0.0
C585 C 0.73828 0.18221 0.70393 0.0
C586 C 0.73314 0.18428 0.67778 0.0
H587 H 0.69658 0.12668 0.71605 0.0
H588 H 0.75158 0.19756 0.7143 0.0
H589 H 0.68293 0.12713 0.77743 0.0
H590 H 0.6718 0.18295 0.7562 0.0
H591 H 0.80877 0.15624 0.75657 0.0
H592 H 0.68754 0.12834 0.66975 0.0
H593 H 0.74315 0.20102 0.66779 0.0
C594 C 0.49091 0.1725 0.28688 0.0
C595 C 0.50847 0.16828 0.29481 0.0
N596 N 0.5007 0.14508 0.29231 0.0
N597 N 0.47186 0.15208 0.27959 0.0
C598 C 0.47843 0.13558 0.2829 0.0
H599 H 0.49211 0.18955 0.28619 0.0
Co600 Co 0.44452 0.15108 0.26679 0.0
C601 C 0.40816 0.1009 0.26046 0.0
O602 O 0.40134 0.10746 0.23932 0.0
N603 N 0.41689 0.15103 0.25425 0.0
C604 C 0.3811 0.14714 0.25582 0.0
C605 C 0.39713 0.14312 0.26887 0.0
C606 C 0.41232 0.15997 0.23232 0.0
N607 N 0.39066 0.15773 0.23279 0.0
O608 O 0.43899 0.16032 0.30117 0.0
H609 H 0.39456 0.13502 0.28806 0.0
H610 H 0.4247 0.16875 0.21661 0.0
O611 O 0.42546 0.11646 0.27429 0.0
C612 C 0.4456 0.18219 0.29844 0.0
O613 O 0.45431 0.19224 0.27563 0.0
N614 N 0.45216 0.14567 0.23317 0.0
C615 C 0.46473 0.14501 0.1812 0.0
C616 C 0.45695 0.12494 0.19701 0.0
C617 C 0.45124 0.12581 0.22332 0.0
C618 C 0.4624 0.16597 0.21898 0.0
C619 C 0.46835 0.16597 0.19272 0.0
H620 H 0.44608 0.11051 0.23545 0.0
H621 H 0.46509 0.18214 0.22789 0.0
H622 H 0.46717 0.11705 0.27865 0.0
H623 H 0.52586 0.1814 0.30145 0.0
H624 H 0.36372 0.14256 0.26274 0.0
H625 H 0.45471 0.10861 0.18899 0.0
H626 H 0.47537 0.18212 0.18145 0.0
C627 C 0.8583 0.31999 0.27317 0.0
C628 C 0.86057 0.3403 0.28387 0.0
N629 N 0.88366 0.35621 0.28619 0.0
N630 N 0.8798 0.32281 0.26877 0.0
C631 C 0.89501 0.34514 0.2769 0.0
H632 H 0.84194 0.30422 0.26841 0.0
Co633 Co 0.88345 0.29898 0.25288 0.0
C634 C 0.93328 0.32035 0.23817 0.0
O635 O 0.92496 0.30889 0.21587 0.0
N636 N 0.88649 0.27379 0.23738 0.0
C637 C 0.89831 0.24726 0.23404 0.0
C638 C 0.90047 0.26622 0.24804 0.0
C639 C 0.87535 0.25834 0.21733 0.0
N640 N 0.88243 0.24227 0.21476 0.0
O641 O 0.87829 0.28348 0.28664 0.0
H642 H 0.91147 0.27393 0.26523 0.0
H643 H 0.86207 0.25833 0.20486 0.0
O644 O 0.91879 0.31802 0.25669 0.0
C645 C 0.85678 0.26694 0.28517 0.0
O646 O 0.8451 0.26461 0.26326 0.0
N647 N 0.88463 0.31277 0.22018 0.0
C648 C 0.88027 0.33025 0.17158 0.0
C649 C 0.89857 0.34451 0.18914 0.0
C650 C 0.9004 0.33547 0.21335 0.0
C651 C 0.86508 0.30005 0.2052 0.0
C652 C 0.86308 0.30781 0.18036 0.0
H653 H 0.91433 0.3469 0.22665 0.0
H654 H 0.85079 0.28374 0.21267 0.0
H655 H 0.91396 0.35318 0.27592 0.0
H656 H 0.84625 0.34331 0.28893 0.0
H657 H 0.90722 0.23746 0.2382 0.0
H658 H 0.9114 0.36257 0.18452 0.0
H659 H 0.84822 0.29597 0.16831 0.0
C660 C 0.70217 0.53597 0.24877 0.0
C661 C 0.68041 0.51855 0.25676 0.0
N662 N 0.66891 0.52877 0.26732 0.0
N663 N 0.70466 0.55719 0.25452 0.0
C664 C 0.68393 0.55227 0.2657 0.0
H665 H 0.71535 0.5333 0.23913 0.0
Co666 Co 0.73225 0.5848 0.24588 0.0
C667 C 0.72353 0.62478 0.25146 0.0
O668 O 0.73761 0.63383 0.23114 0.0
N669 N 0.7612 0.61241 0.2372 0.0
C670 C 0.79528 0.64575 0.24333 0.0
C671 C 0.77509 0.62873 0.25523 0.0
C672 C 0.77362 0.61997 0.21446 0.0
N673 N 0.79424 0.64021 0.21765 0.0
O674 O 0.74676 0.58259 0.27836 0.0
H675 H 0.77075 0.62833 0.27586 0.0
H676 H 0.76823 0.61084 0.19586 0.0
O677 O 0.71982 0.60499 0.26115 0.0
C678 C 0.7588 0.5732 0.2705 0.0
O679 O 0.75783 0.56808 0.24529 0.0
N680 N 0.71876 0.58415 0.21334 0.0
C681 C 0.70035 0.57866 0.16295 0.0
C682 C 0.69057 0.58484 0.18383 0.0
C683 C 0.69958 0.58675 0.20915 0.0
C684 C 0.72674 0.57578 0.19373 0.0
C685 C 0.71826 0.57352 0.16817 0.0
H686 H 0.69064 0.58966 0.22524 0.0
H687 H 0.74011 0.57118 0.19794 0.0
H688 H 0.67999 0.56551 0.27276 0.0
H689 H 0.67344 0.49975 0.25474 0.0
H690 H 0.80949 0.66111 0.25277 0.0
H691 H 0.67582 0.58766 0.18071 0.0
H692 H 0.72588 0.5681 0.15263 0.0
C693 C 0.51456 0.16037 0.88943 0.0
C694 C 0.50924 0.17686 0.88039 0.0
N695 N 0.48594 0.16614 0.8759 0.0
N696 N 0.49482 0.13911 0.89037 0.0
C697 C 0.47746 0.1432 0.88221 0.0
H698 H 0.53182 0.16381 0.89535 0.0
Co699 Co 0.49599 0.11277 0.90259 0.0
C700 C 0.44747 0.07352 0.90808 0.0
O701 O 0.45503 0.06853 0.92977 0.0
N702 N 0.49841 0.08639 0.91465 0.0
C703 C 0.49765 0.05196 0.91257 0.0
C704 C 0.49368 0.06776 0.89899 0.0
C705 C 0.50523 0.08125 0.93782 0.0
N706 N 0.50481 0.06044 0.93702 0.0
O707 O 0.50672 0.10911 0.86844 0.0
H708 H 0.48739 0.06559 0.87889 0.0
H709 H 0.51056 0.09231 0.9551 0.0
O710 O 0.46193 0.09121 0.89396 0.0
C711 C 0.52911 0.1194 0.8707 0.0
O712 O 0.5386 0.12895 0.89353 0.0
N713 N 0.48861 0.11891 0.93603 0.0
C714 C 0.48368 0.13126 0.98695 0.0
C715 C 0.46487 0.12299 0.96911 0.0
C716 C 0.46791 0.11751 0.94339 0.0
C717 C 0.50773 0.12951 0.95216 0.0
C718 C 0.50556 0.13527 0.978 0.0
H719 H 0.45366 0.11237 0.92955 0.0
H720 H 0.52465 0.13276 0.94512 0.0
H721 H 0.45911 0.12975 0.8808 0.0
H722 H 0.52152 0.19546 0.87771 0.0
H723 H 0.49502 0.03528 0.90523 0.0
H724 H 0.44803 0.12087 0.97495 0.0
H725 H 0.52069 0.14214 -0.00901 0.0
C726 C 0.88768 0.37509 0.87259 0.0
C727 C 0.8697 0.35454 0.86229 0.0
N728 N 0.8757 0.33773 0.86429 0.0
N729 N 0.90513 0.37143 0.88087 0.0
C730 C 0.8973 0.34839 0.87552 0.0
H731 H 0.88786 0.39162 0.87428 0.0
Co732 Co 0.93248 0.39518 0.8968 0.0
C733 C 0.9613 0.37422 0.91168 0.0
O734 O 0.96389 0.38526 0.93418 0.0
N735 N 0.96067 0.42021 0.91211 0.0
C736 C 0.99904 0.4465 0.91508 0.0
C737 C 0.98209 0.42756 0.90128 0.0
C738 C 0.96518 0.43579 0.93203 0.0
N739 N 0.98834 0.45169 0.93435 0.0
O740 O 0.94297 0.41051 0.863 0.0
H741 H 0.9852 0.41971 0.88409 0.0
H742 H 0.95203 0.43602 0.94452 0.0
O743 O 0.94869 0.37605 0.89329 0.0
C744 C 0.93827 0.42726 0.86449 0.0
O745 O 0.92878 0.42959 0.88626 0.0
N746 N 0.91985 0.38172 0.92963 0.0
C747 C 0.89851 0.36551 0.97868 0.0
C748 C 0.90265 0.35089 0.96179 0.0
C749 C 0.91336 0.35933 0.9374 0.0
C750 C 0.91297 0.39474 0.944 0.0
C751 C 0.90342 0.38761 0.96903 0.0
H752 H 0.91624 0.34772 0.92484 0.0
H753 H 0.915 0.41092 0.936 0.0
H754 H 0.90713 0.33954 0.87971 0.0
H755 H 0.85317 0.35195 0.85457 0.0
H756 H 1.01769 0.45619 0.91077 0.0
H757 H 0.89773 0.33304 0.96711 0.0
H758 H 0.90038 0.39973 0.98054 0.0
C759 C 0.66669 0.52556 0.87387 0.0
C760 C 0.68873 0.52978 0.86727 0.0
N761 N 0.70319 0.55321 0.86576 0.0
N762 N 0.66686 0.54616 0.8762 0.0
C763 C 0.68958 0.56284 0.87145 0.0
H764 H 0.65153 0.50837 0.87705 0.0
Co765 Co 0.63956 0.54715 0.88561 0.0
C766 C 0.65045 0.59702 0.8807 0.0
O767 O 0.63508 0.59251 0.89954 0.0
N768 N 0.61111 0.5468 0.89507 0.0
C769 C 0.57736 0.54702 0.89032 0.0
C770 C 0.59743 0.55037 0.87785 0.0
C771 C 0.59859 0.54094 0.91784 0.0
N772 N 0.57813 0.54111 0.91555 0.0
O773 O 0.62493 0.53233 0.85231 0.0
H774 H 0.60176 0.5551 0.85736 0.0
H775 H 0.60364 0.53572 0.93567 0.0
O776 O 0.65365 0.58032 0.87195 0.0
C777 C 0.61193 0.5106 0.85853 0.0
O778 O 0.61144 0.50471 0.88339 0.0
N779 N 0.65268 0.55812 0.91874 0.0
C780 C 0.66505 0.56776 0.97126 0.0
C781 C 0.67629 0.58545 0.95234 0.0
C782 C 0.67018 0.58008 0.92587 0.0
C783 C 0.64417 0.54018 0.93645 0.0
C784 C 0.6496 0.54468 0.96302 0.0
H785 H 0.67962 0.59361 0.91147 0.0
H786 H 0.63195 0.52242 0.93004 0.0
H787 H 0.69604 0.58156 0.87201 0.0
H788 H 0.69386 0.51661 0.8642 0.0
H789 H 0.56332 0.54882 0.88147 0.0
H790 H 0.68924 0.60327 0.95797 0.0
H791 H 0.64153 0.53033 0.97703 0.0
C792 C 0.5468 0.87374 0.72121 0.0
C793 C 0.5305 0.8794 0.71225 0.0
N794 N 0.54194 0.89994 0.69926 0.0
N795 N 0.56855 0.89053 0.71379 0.0
C796 C 0.56505 0.90642 0.70032 0.0
H797 H 0.54303 0.85827 0.73252 0.0
Co798 Co 0.59522 0.88837 0.723 0.0
C799 C 0.63384 0.93654 0.73232 0.0
O800 O 0.63888 0.92736 0.75259 0.0
N801 N 0.622 0.88529 0.73172 0.0
C802 C 0.65751 0.88923 0.72609 0.0
C803 C 0.64098 0.89393 0.71573 0.0
C804 C 0.62744 0.87486 0.75154 0.0
N805 N 0.64905 0.87717 0.7487 0.0
O806 O 0.59792 0.87985 0.68742 0.0
H807 H 0.64289 0.9035 0.69769 0.0
H808 H 0.61585 0.86537 0.76761 0.0
O809 O 0.61645 0.92302 0.71719 0.0
C810 C 0.58506 0.85741 0.68765 0.0
O811 O 0.57305 0.84736 0.70913 0.0
N812 N 0.59019 0.8935 0.75795 0.0
C813 C 0.57762 0.89509 0.80979 0.0
C814 C 0.58454 0.91453 0.79319 0.0
C815 C 0.59011 0.91312 0.76702 0.0
C816 C 0.58129 0.87378 0.7731 0.0
C817 C 0.57543 0.87431 0.79931 0.0
H818 H 0.59393 0.92765 0.75405 0.0
H819 H 0.57836 0.85739 0.76459 0.0
H820 H 0.57899 0.9222 0.6913 0.0
H821 H 0.51161 0.86917 0.7149 0.0
H822 H 0.67463 0.89472 0.71769 0.0
H823 H 0.58572 0.93068 0.80032 0.0
H824 H 0.56891 0.85851 0.81114 0.0
C825 C 0.17223 0.67428 0.72741 0.0
C826 C 0.16528 0.65176 0.71933 0.0
N827 N 0.14518 0.64361 0.70558 0.0
N828 N 0.15647 0.68045 0.71915 0.0
C829 C 0.1402 0.66138 0.70546 0.0
H830 H 0.18767 0.68539 0.7391 0.0
Co831 Co 0.15909 0.70944 0.72935 0.0
C832 C 0.11188 0.69897 0.74547 0.0
O833 O 0.12291 0.71296 0.76547 0.0
N834 N 0.16222 0.73931 0.73916 0.0
C835 C 0.15825 0.77118 0.73507 0.0
C836 C 0.15375 0.75026 0.72372 0.0
C837 C 0.17161 0.75417 0.76012 0.0
N838 N 0.16936 0.7735 0.75805 0.0
O839 O 0.1641 0.72011 0.69328 0.0
H840 H 0.14439 0.74328 0.70537 0.0
H841 H 0.17982 0.75125 0.77694 0.0
O842 O 0.12395 0.6954 0.72789 0.0
C843 C 0.1859 0.72784 0.68846 0.0
O844 O 0.19827 0.72368 0.70577 0.0
N845 N 0.15782 0.70017 0.76432 0.0
C846 C 0.16292 0.68848 0.81586 0.0
C847 C 0.14252 0.67382 0.80102 0.0
C848 C 0.14031 0.68 0.77528 0.0
C849 C 0.17883 0.71254 0.77688 0.0
C850 C 0.18139 0.70791 0.80297 0.0
H851 H 0.12485 0.66828 0.76396 0.0
H852 H 0.19363 0.72661 0.76663 0.0
H853 H 0.1248 0.66029 0.69623 0.0
H854 H 0.17436 0.64206 0.72312 0.0
H855 H 0.15312 0.78338 0.72743 0.0
H856 H 0.12835 0.65757 0.80883 0.0
H857 H 0.19771 0.71998 0.81265 0.0
C858 C 0.34701 0.50543 0.7374 0.0
C859 C 0.36565 0.52445 0.72552 0.0
N860 N 0.3762 0.51631 0.70933 0.0
N861 N 0.34594 0.48534 0.72905 0.0
C862 C 0.36348 0.49257 0.71113 0.0
H863 H 0.33574 0.50625 0.75243 0.0
Co864 Co 0.32513 0.45593 0.74427 0.0
C865 C 0.36733 0.44659 0.73432 0.0
O866 O 0.38494 0.46827 0.73282 0.0
N867 N 0.30398 0.42655 0.76002 0.0
C868 C 0.2919 0.39593 0.78705 0.0
C869 C 0.31088 0.41367 0.77434 0.0
C870 C 0.2805 0.41618 0.76458 0.0
N871 N 0.2728 0.39767 0.78126 0.0
O872 O 0.30917 0.44512 0.71094 0.0
H873 H 0.32892 0.41805 0.77738 0.0
H874 H 0.26968 0.42331 0.75788 0.0
O875 O 0.34625 0.44262 0.73766 0.0
C876 C 0.29369 0.45155 0.71203 0.0
O877 O 0.29305 0.46288 0.73314 0.0
N878 N 0.33835 0.46778 0.77738 0.0
C879 C 0.35202 0.48947 0.82667 0.0
C880 C 0.36888 0.49099 0.80848 0.0
C881 C 0.36164 0.47997 0.7839 0.0
C882 C 0.32195 0.467 0.79443 0.0
C883 C 0.32824 0.47697 0.81932 0.0
H884 H 0.37486 0.48256 0.76984 0.0
H885 H 0.30373 0.45898 0.78853 0.0
H886 H 0.36725 0.48082 0.69991 0.0
H887 H 0.37197 0.54285 0.72981 0.0
H888 H 0.29242 0.38356 0.80077 0.0
H889 H 0.38751 0.50105 0.81283 0.0
H890 H 0.31436 0.47477 0.83257 0.0
C891 C 0.54143 0.87186 0.08569 0.0
C892 C 0.54892 0.85602 0.09004 0.0
N893 N 0.56829 0.86643 0.10524 0.0
N894 N 0.55611 0.89247 0.09776 0.0
C895 C 0.57227 0.88852 0.10995 0.0
H896 H 0.52631 0.86866 0.07401 0.0
Co897 Co 0.55231 0.91898 0.09333 0.0
C898 C 0.59966 0.95964 0.08413 0.0
O899 O 0.58902 0.96705 0.06809 0.0
N900 N 0.54753 0.94534 0.08939 0.0
C901 C 0.55069 0.9802 0.09856 0.0
C902 C 0.55527 0.96303 0.10731 0.0
C903 C 0.53751 0.952 0.07032 0.0
N904 N 0.53952 0.97317 0.07527 0.0
O905 O 0.54487 0.91863 0.13008 0.0
H906 H 0.56467 0.96391 0.12521 0.0
H907 H 0.52979 0.94241 0.05241 0.0
O908 O 0.58718 0.94095 0.09799 0.0
C909 C 0.52265 0.90441 0.13082 0.0
O910 O 0.51236 0.89222 0.10944 0.0
N911 N 0.55645 0.91703 0.05707 0.0
C912 C 0.5577 0.91017 0.00326 0.0
C913 C 0.57757 0.91642 0.01889 0.0
C914 C 0.57633 0.919 0.04596 0.0
C915 C 0.53633 0.90842 0.04256 0.0
C916 C 0.53665 0.90546 0.01542 0.0
H917 H 0.59117 0.92193 0.05791 0.0
H918 H 0.5199 0.9039 0.05219 0.0
H919 H 0.58688 0.90163 0.12146 0.0
H920 H 0.54064 0.83807 0.08281 0.0
H921 H 0.55562 0.99676 0.10826 0.0
H922 H 0.59372 0.91871 0.01036 0.0
H923 H 0.52068 0.89973 0.0041 0.0
C924 C 0.16653 0.67039 0.11825 0.0
C925 C 0.18389 0.69172 0.12761 0.0
N926 N 0.17652 0.70746 0.12514 0.0
N927 N 0.14805 0.67243 0.1101 0.0
C928 C 0.1547 0.69537 0.11449 0.0
H929 H 0.16754 0.65446 0.11707 0.0
Co930 Co 0.12119 0.647 0.09523 0.0
C931 C 0.09016 0.66465 0.07803 0.0
O932 O 0.08799 0.65241 0.0566 0.0
N933 N 0.09357 0.62033 0.08102 0.0
C934 C 0.05618 0.5911 0.08109 0.0
C935 C 0.07264 0.61122 0.09361 0.0
C936 C 0.08915 0.60514 0.06068 0.0
N937 N 0.0666 0.58733 0.06036 0.0
O938 O 0.11166 0.6328 0.12974 0.0
H939 H 0.06957 0.61866 0.11119 0.0
H940 H 0.10204 0.60628 0.04672 0.0
O941 O 0.10322 0.66457 0.09704 0.0
C942 C 0.11831 0.61742 0.12895 0.0
O943 O 0.12877 0.61593 0.10756 0.0
N944 N 0.13312 0.65929 0.06194 0.0
C945 C 0.15397 0.67345 0.01235 0.0
C946 C 0.14908 0.6884 0.02782 0.0
C947 C 0.13861 0.68096 0.05253 0.0
C948 C 0.14081 0.64625 0.04902 0.0
C949 C 0.15006 0.65225 0.0238 0.0
H950 H 0.13512 0.69274 0.06405 0.0
H951 H 0.1393 0.6307 0.0582 0.0
H952 H 0.14389 0.7031 0.10998 0.0
H953 H 0.20093 0.69557 0.13502 0.0
H954 H 0.03796 0.58006 0.08678 0.0
H955 H 0.15319 0.7057 0.02117 0.0
H956 H 0.15348 0.63982 0.01355 0.0
C957 C 0.37211 0.49981 0.1265 0.0
C958 C 0.35072 0.49494 0.13645 0.0
N959 N 0.335 0.47213 0.13171 0.0
N960 N 0.3703 0.48021 0.11556 0.0
C961 C 0.34732 0.46352 0.11894 0.0
H962 H 0.3879 0.51688 0.12662 0.0
Co963 Co 0.39632 0.48132 0.09828 0.0
C964 C 0.38067 0.43516 0.07391 0.0
O965 O 0.39224 0.44769 0.05328 0.0
N966 N 0.42352 0.483 0.08154 0.0
C967 C 0.45204 0.4742 0.0758 0.0
C968 C 0.43315 0.47038 0.09095 0.0
C969 C 0.4375 0.49481 0.06069 0.0
N970 N 0.45476 0.48953 0.05666 0.0
O971 O 0.41063 0.48237 0.13204 0.0
H972 H 0.42655 0.45866 0.10771 0.0
H973 H 0.43504 0.50663 0.04809 0.0
O974 O 0.37977 0.44584 0.09493 0.0
C975 C 0.42552 0.50439 0.13457 0.0
O976 O 0.42691 0.51882 0.1158 0.0
N977 N 0.38383 0.48421 0.06645 0.0
C978 C 0.36964 0.49482 0.01916 0.0
C979 C 0.35502 0.47347 0.0323 0.0
C980 C 0.36246 0.46849 0.05597 0.0
C981 C 0.39629 0.50625 0.05624 0.0
C982 C 0.3902 0.51163 0.03207 0.0
H983 H 0.3511 0.45198 0.06569 0.0
H984 H 0.4117 0.51953 0.06648 0.0
H985 H 0.3397 0.44554 0.112 0.0
H986 H 0.34684 0.50752 0.14569 0.0
H987 H 0.46298 0.46634 0.07872 0.0
H988 H 0.33814 0.46049 0.02434 0.0
H989 H 0.40216 0.52854 0.02346 0.0
C990 C 0.17654 0.51216 0.5951 0.0
C991 C 0.19397 0.51083 0.60872 0.0
N992 N 0.18653 0.488 0.61388 0.0
N993 N 0.15799 0.49032 0.59174 0.0
C994 C 0.16455 0.47594 0.60362 0.0
H995 H 0.17782 0.52802 0.58702 0.0
Co996 Co 0.13158 0.48355 0.5708 0.0
C997 C 0.11922 0.43198 0.56307 0.0
O998 O 0.13208 0.43656 0.54183 0.0
N999 N 0.10458 0.4763 0.54969 0.0
C1000 C 0.07809 0.46026 0.51742 0.0
C1001 C 0.09493 0.45867 0.53172 0.0
C1002 C 0.09293 0.48835 0.54582 0.0
N1003 N 0.07696 0.47906 0.52603 0.0
O1004 O 0.11568 0.48561 0.60186 0.0
H1005 H 0.10074 0.4463 0.52759 0.0
H1006 H 0.0972 0.50458 0.55585 0.0
O1007 O 0.11814 0.4486 0.5754 0.0
C1008 C 0.12234 0.50763 0.60263 0.0
O1009 O 0.13537 0.52107 0.58323 0.0
N1010 N 0.14946 0.4867 0.54025 0.0
C1011 C 0.17835 0.50189 0.49584 0.0
C1012 C 0.18083 0.48764 0.51467 0.0
C1013 C 0.16678 0.48098 0.53732 0.0
C1014 C 0.14848 0.50218 0.52302 0.0
C1015 C 0.16223 0.50949 0.50052 0.0
H1016 H 0.16989 0.47118 0.55232 0.0
H1017 H 0.13744 0.5097 0.52695 0.0
H1018 H 0.15387 0.45695 0.60388 0.0
H1019 H 0.21127 0.52545 0.61325 0.0
H1020 H 0.06815 0.44902 0.50107 0.0
H1021 H 0.19363 0.48196 0.51205 0.0
H1022 H 0.15996 0.52082 0.48672 0.0
C1023 C 0.53738 0.67854 0.5926 0.0
C1024 C 0.54211 0.70108 0.59734 0.0
N1025 N 0.56461 0.71392 0.60531 0.0
N1026 N 0.55681 0.67703 0.59738 0.0
C1027 C 0.57322 0.69895 0.60542 0.0
H1028 H 0.52106 0.66434 0.58486 0.0
Co1029 Co 0.5575 0.64993 0.58749 0.0
C1030 C 0.60715 0.66294 0.5807 0.0
O1031 O 0.59975 0.6496 0.5595 0.0
N1032 N 0.55706 0.62158 0.57764 0.0
C1033 C 0.56257 0.59066 0.58047 0.0
C1034 C 0.56672 0.6113 0.59229 0.0
C1035 C 0.54634 0.60621 0.55751 0.0
N1036 N 0.54967 0.5875 0.55867 0.0
O1037 O 0.54795 0.63703 0.62247 0.0
H1038 H 0.57626 0.61845 0.61051 0.0
H1039 H 0.53618 0.60832 0.54217 0.0
O1040 O 0.59223 0.66528 0.59509 0.0
C1041 C 0.52581 0.62332 0.61912 0.0
O1042 O 0.51672 0.62306 0.59594 0.0
N1043 N 0.5631 0.66136 0.55311 0.0
C1044 C 0.563 0.67699 0.50236 0.0
C1045 C 0.58295 0.68906 0.5184 0.0
C1046 C 0.58238 0.68136 0.54415 0.0
C1047 C 0.54305 0.65079 0.53842 0.0
C1048 C 0.54273 0.6579 0.51278 0.0
H1049 H 0.59715 0.69192 0.55692 0.0
H1050 H 0.52699 0.63688 0.54686 0.0
H1051 H 0.59131 0.70417 0.60988 0.0
H1052 H 0.53007 0.70772 0.59475 0.0
H1053 H 0.56817 0.57866 0.5876 0.0
H1054 H 0.59858 0.70457 0.51131 0.0
H1055 H 0.52679 0.64841 0.50119 0.0
C1056 C 0.37181 0.86677 0.61396 0.0
C1057 C 0.35254 0.85067 0.62804 0.0
N1058 N 0.33587 0.85689 0.62674 0.0
N1059 N 0.36754 0.8833 0.60386 0.0
C1060 C 0.34559 0.87703 0.61249 0.0
H1061 H 0.3873 0.86548 0.60991 0.0
Co1062 Co 0.38713 0.90612 0.57895 0.0
C1063 C 0.35133 0.92168 0.5655 0.0
O1064 O 0.34267 0.90711 0.54554 0.0
N1065 N 0.407 0.92972 0.55381 0.0
C1066 C 0.41747 0.95228 0.51787 0.0
C1067 C 0.39903 0.93574 0.53227 0.0
C1068 C 0.43082 0.94308 0.55168 0.0
N1069 N 0.43759 0.95686 0.52989 0.0
O1070 O 0.40703 0.92556 0.60739 0.0
H1071 H 0.38098 0.92775 0.52617 0.0
H1072 H 0.44308 0.9421 0.56507 0.0
O1073 O 0.3676 0.92202 0.58003 0.0
C1074 C 0.42249 0.91915 0.60961 0.0
O1075 O 0.42188 0.90352 0.59289 0.0
N1076 N 0.37013 0.88468 0.5513 0.0
C1077 C 0.35219 0.85351 0.50862 0.0
C1078 C 0.33718 0.85327 0.52848 0.0
C1079 C 0.34654 0.86874 0.54986 0.0
C1080 C 0.38501 0.88259 0.53416 0.0
C1081 C 0.37652 0.86792 0.5123 0.0
H1082 H 0.33445 0.86845 0.56435 0.0
H1083 H 0.40383 0.89279 0.53703 0.0
H1084 H 0.33613 0.88593 0.60676 0.0
H1085 H 0.35025 0.83457 0.63673 0.0
H1086 H 0.41608 0.95998 0.49958 0.0
H1087 H 0.31832 0.8417 0.5273 0.0
H1088 H 0.38916 0.86882 0.49799 0.0
C1089 C 0.18621 0.49374 0.20415 0.0
C1090 C 0.18307 0.51125 0.19336 0.0
N1091 N 0.15989 0.50388 0.19315 0.0
N1092 N 0.1651 0.47519 0.21057 0.0
C1093 C 0.14936 0.48186 0.20325 0.0
H1094 H 0.20299 0.49514 0.2085 0.0
Co1095 Co 0.16065 0.44884 0.23039 0.0
C1096 C 0.10889 0.43383 0.24196 0.0
O1097 O 0.11391 0.44548 0.26422 0.0
N1098 N 0.1556 0.4219 0.25031 0.0
C1099 C 0.14102 0.39356 0.2806 0.0
C1100 C 0.13862 0.41092 0.26865 0.0
C1101 C 0.16836 0.41078 0.25189 0.0
N1102 N 0.15977 0.39341 0.27018 0.0
O1103 O 0.16223 0.43358 0.19831 0.0
H1104 H 0.12606 0.41598 0.27458 0.0
H1105 H 0.18419 0.41588 0.24074 0.0
O1106 O 0.12529 0.43401 0.22783 0.0
C1107 C 0.18432 0.44081 0.19661 0.0
O1108 O 0.19833 0.45469 0.21524 0.0
N1109 N 0.16449 0.46605 0.26179 0.0
C1110 C 0.18088 0.49377 0.30721 0.0
C1111 C 0.16492 0.49563 0.29037 0.0
C1112 C 0.15758 0.48219 0.2672 0.0
C1113 C 0.18157 0.4658 0.27699 0.0
C1114 C 0.18952 0.47895 0.29996 0.0
H1115 H 0.14621 0.48475 0.25395 0.0
H1116 H 0.18974 0.45576 0.27106 0.0
H1117 H 0.13064 0.47146 0.20668 0.0
H1118 H 0.19688 0.52866 0.18775 0.0
H1119 H 0.13063 0.38293 0.29703 0.0
H1120 H 0.15837 0.50748 0.29494 0.0
H1121 H 0.20213 0.47717 0.31212 0.0
C1122 C 0.5501 0.69264 0.19651 0.0
C1123 C 0.53406 0.67052 0.1878 0.0
N1124 N 0.54181 0.65565 0.1943 0.0
N1125 N 0.56824 0.69212 0.20834 0.0
C1126 C 0.5626 0.66916 0.20689 0.0
H1127 H 0.54816 0.70802 0.19491 0.0
Co1128 Co 0.59278 0.7191 0.22452 0.0
C1129 C 0.62828 0.70686 0.24267 0.0
O1130 O 0.63063 0.72012 0.26319 0.0
N1131 N 0.61755 0.7472 0.24041 0.0
C1132 C 0.65247 0.78012 0.24354 0.0
C1133 C 0.63861 0.76054 0.22851 0.0
C1134 C 0.61932 0.7592 0.263 0.0
N1135 N 0.64035 0.77918 0.26525 0.0
O1136 O 0.60284 0.73423 0.19038 0.0
H1137 H 0.64373 0.75623 0.20999 0.0
H1138 H 0.60565 0.75381 0.2776 0.0
O1139 O 0.614 0.70488 0.22401 0.0
C1140 C 0.59386 0.7477 0.1897 0.0
O1141 O 0.58144 0.74771 0.21 0.0
N1142 N 0.5803 0.70576 0.25709 0.0
C1143 C 0.56252 0.69396 0.30757 0.0
C1144 C 0.57195 0.68139 0.29512 0.0
C1145 C 0.58021 0.68717 0.26936 0.0
C1146 C 0.56783 0.71536 0.26737 0.0
C1147 C 0.55915 0.71009 0.29289 0.0
H1148 H 0.58709 0.67716 0.25984 0.0
H1149 H 0.56608 0.72851 0.25633 0.0
H1150 H 0.57334 0.66243 0.21503 0.0
H1151 H 0.51748 0.66559 0.17818 0.0
H1152 H 0.67028 0.7938 0.23912 0.0
H1153 H 0.57409 0.66816 0.30555 0.0
H1154 H 0.55099 0.71938 0.3015 0.0
C1155 C 0.34479 0.85592 0.2304 0.0
C1156 C 0.36721 0.86056 0.22526 0.0
N1157 N 0.38006 0.88312 0.21755 0.0
N1158 N 0.34334 0.8755 0.22624 0.0
C1159 C 0.36519 0.89187 0.21804 0.0
H1160 H 0.33056 0.83944 0.23768 0.0
Co1161 Co 0.31597 0.87628 0.23555 0.0
C1162 C 0.33159 0.92358 0.25657 0.0
O1163 O 0.31652 0.91246 0.27563 0.0
N1164 N 0.28769 0.87653 0.24446 0.0
C1165 C 0.2592 0.88569 0.24089 0.0
C1166 C 0.28022 0.88933 0.23082 0.0
C1167 C 0.27061 0.86522 0.26282 0.0
N1168 N 0.25325 0.87057 0.26113 0.0
O1169 O 0.30796 0.87601 0.19904 0.0
H1170 H 0.2896 0.90084 0.21452 0.0
H1171 H 0.27033 0.853 0.27715 0.0
O1172 O 0.33385 0.91151 0.23791 0.0
C1173 C 0.29627 0.85404 0.19352 0.0
O1174 O 0.29476 0.83892 0.21145 0.0
N1175 N 0.3224 0.87291 0.27061 0.0
C1176 C 0.33044 0.85951 0.31995 0.0
C1177 C 0.34687 0.88129 0.30881 0.0
C1178 C 0.3426 0.88759 0.28398 0.0
C1179 C 0.30776 0.85083 0.27983 0.0
C1180 C 0.31074 0.84415 0.30483 0.0
H1181 H 0.35592 0.9038 0.27516 0.0
H1182 H 0.2936 0.83818 0.26749 0.0
H1183 H 0.37035 0.90996 0.21356 0.0
H1184 H 0.3737 0.84833 0.22717 0.0
H1185 H 0.24928 0.89382 0.23412 0.0
H1186 H 0.36313 0.89322 0.3188 0.0
H1187 H 0.29754 0.82706 0.31202 0.0
C1188 C 0.2173 0.22333 0.27882 0.0
C1189 C 0.22135 0.24396 0.29159 0.0
C1190 C 0.2189 0.22267 0.25138 0.0
C1191 C 0.22459 0.24314 0.23658 0.0
C1192 C 0.22727 0.26357 0.24927 0.0
C1193 C 0.2257 0.26377 0.27676 0.0
C1194 C 0.21596 0.20057 0.23843 0.0
C1195 C 0.23306 0.28559 0.23403 0.0
C1196 C 0.25937 0.24877 0.17535 0.0
C1197 C 0.24181 0.24025 0.15594 0.0
C1198 C 0.2541 0.25077 0.20155 0.0
C1199 C 0.23067 0.24398 0.20845 0.0
C1200 C 0.21303 0.23631 0.18882 0.0
C1201 C 0.21881 0.23447 0.16267 0.0
C1202 C 0.27339 0.25901 0.22204 0.0
C1203 C 0.18792 0.22916 0.19558 0.0
H1204 H 0.21393 0.20805 0.29038 0.0
H1205 H 0.22834 0.27956 0.28674 0.0
H1206 H 0.20361 0.19544 0.22152 0.0
H1207 H 0.23317 0.20395 0.23061 0.0
H1208 H 0.20931 0.18555 0.25239 0.0
H1209 H 0.23114 0.2986 0.24628 0.0
H1210 H 0.2515 0.29397 0.22693 0.0
H1211 H 0.22155 0.28123 0.21643 0.0
H1212 H 0.27708 0.25291 0.17028 0.0
H1213 H 0.20529 0.2281 0.14757 0.0
H1214 H 0.26953 0.2444 0.23585 0.0
H1215 H 0.2742 0.27368 0.23381 0.0
H1216 H 0.29095 0.26506 0.2131 0.0
H1217 H 0.17996 0.21263 0.20723 0.0
H1218 H 0.17699 0.2262 0.1777 0.0
H1219 H 0.18736 0.24284 0.20797 0.0
C1220 C 0.78202 0.99362 0.17626 0.0
C1221 C 0.78803 0.01603 0.16706 0.0
C1222 C 0.77767 0.98824 0.20306 0.0
C1223 C 0.78 1.00595 0.22085 0.0
C1224 C 0.78538 0.02841 0.21146 0.0
C1225 C 0.78915 0.03313 0.18449 0.0
C1226 C 0.77152 0.96396 0.21246 0.0
C1227 C 0.78843 0.04782 0.22999 0.0
C1228 C 0.75714 0.98902 0.2904 0.0
C1229 C 0.7775 0.99279 0.30352 0.0
C1230 C 0.75759 0.99314 0.26328 0.0
C1231 C 0.77904 1.00168 0.24945 0.0
C1232 C 0.79976 1.00599 0.26286 0.0
C1233 C 0.79866 1.00123 0.28981 0.0
C1234 C 0.73515 0.98799 0.24937 0.0
C1235 C 0.82304 0.01555 0.24876 0.0
H1236 H 0.78107 0.98047 0.16251 0.0
H1237 H 0.794 0.05051 0.17714 0.0
H1238 H 0.78631 0.96508 0.22424 0.0
H1239 H 0.75585 0.95662 0.22546 0.0
H1240 H 0.7679 0.95154 0.19582 0.0
H1241 H 0.79093 0.06369 0.21928 0.0
H1242 H 0.77292 0.04154 0.24309 0.0
H1243 H 0.80401 0.05298 0.24278 0.0
H1244 H 0.74082 0.98235 0.30128 0.0
H1245 H 0.81436 1.00425 0.30028 0.0
H1246 H 0.73088 0.97449 0.23385 0.0
H1247 H 0.73748 1.00409 0.23944 0.0
H1248 H 0.71999 0.98155 0.26311 0.0
H1249 H 0.82174 1.00294 0.23332 0.0
H1250 H 0.83763 0.01877 0.26238 0.0
H1251 H 0.82754 0.03234 0.23875 0.0
C1252 C 1.01377 0.77533 0.30317 0.0
C1253 C 1.01507 0.79273 0.32034 0.0
C1254 C 1.00878 0.77557 0.27639 0.0
C1255 C 1.00522 0.79376 0.26661 0.0
C1256 C 1.00542 0.81075 0.28402 0.0
C1257 C 1.0103 0.80998 0.31078 0.0
C1258 C 1.00854 0.75707 0.25836 0.0
C1259 C 1.00159 0.83032 0.27419 0.0
C1260 C 1.02185 0.80908 0.19513 0.0
C1261 C 0.99984 0.79707 0.18278 0.0
C1262 C 0.02375 0.80876 0.22258 0.0
C1263 C 1.00313 0.79597 0.23788 0.0
C1264 C 0.9808 0.7843 0.22555 0.0
C1265 C 0.97942 0.78504 0.19806 0.0
C1266 C 0.04786 0.82157 0.23516 0.0
C1267 C 0.9585 0.77036 0.24129 0.0
H1268 H 1.01773 0.76212 0.31038 0.0
H1269 H 1.01094 0.82324 0.32411 0.0
H1270 H 0.99233 0.74887 0.24614 0.0
H1271 H 0.02375 0.76544 0.24471 0.0
H1272 H 1.00953 0.74298 0.26945 0.0
H1273 H 1.00027 0.84087 0.29059 0.0
H1274 H 1.01646 0.84227 0.2613 0.0
H1275 H 0.98531 0.82303 0.26215 0.0
H1276 H 0.03759 0.81861 0.18327 0.0
H1277 H 0.9624 0.77556 0.18842 0.0
H1278 H 0.05168 0.80872 0.24497 0.0
H1279 H 0.0484 0.83388 0.25057 0.0
H1280 H 0.06197 0.83172 0.22057 0.0
H1281 H 0.95855 0.75511 0.25071 0.0
H1282 H 0.94245 0.76368 0.22886 0.0
H1283 H 0.95755 0.78138 0.25733 0.0
C1284 C 0.83668 0.81783 0.68845 0.0
C1285 C 0.85479 0.82348 0.67023 0.0
C1286 C 0.84167 0.82474 0.71482 0.0
C1287 C 0.86536 0.83675 0.72355 0.0
C1288 C 0.88382 0.84325 0.7053 0.0
C1289 C 0.87831 0.83695 0.67872 0.0
C1290 C 0.82141 0.81817 0.73359 0.0
C1291 C 0.90928 0.85549 0.71385 0.0
C1292 C 0.86768 0.86109 0.79093 0.0
C1293 C 0.85997 0.84047 0.80586 0.0
C1294 C 0.87219 0.86127 0.76394 0.0
C1295 C 0.87008 0.84075 0.75216 0.0
C1296 C 0.86679 0.82166 0.76811 0.0
C1297 C 0.86129 0.82151 0.79478 0.0
C1298 C 0.876 0.88214 0.74765 0.0
C1299 C 0.866 0.80009 0.75639 0.0
H1300 H 0.81846 0.80717 0.68249 0.0
H1301 H 0.89257 0.84215 0.66481 0.0
H1302 H 0.8198 0.80419 0.74719 0.0
H1303 H 0.82461 0.8336 0.74573 0.0
H1304 H 0.80438 0.81154 0.72307 0.0
H1305 H 0.92126 0.86519 0.69725 0.0
H1306 H 0.91279 0.86795 0.73035 0.0
H1307 H 0.9136 0.84203 0.72081 0.0
H1308 H 0.86806 0.87637 0.7997 0.0
H1309 H 0.85586 0.80559 0.80605 0.0
H1310 H 0.85911 0.87806 0.73817 0.0
H1311 H 0.88899 0.88591 0.73175 0.0
H1312 H 0.88209 0.89821 0.75994 0.0
H1313 H 0.84857 0.78884 0.74702 0.0
H1314 H 0.86862 0.78948 0.77168 0.0
H1315 H 0.87967 0.80511 0.74096 0.0
C1316 C 0.20246 0.99111 0.78563 0.0
C1317 C 0.22199 0.99134 0.79719 0.0
C1318 C 0.20196 0.9949 0.75855 0.0
C1319 C 0.22148 0.99903 0.74291 0.0
C1320 C 0.24118 0.99916 0.75446 0.0
C1321 C 0.24118 0.99529 0.78153 0.0
C1322 C 0.18075 0.99477 0.74674 0.0
C1323 C 0.26231 1.00354 0.73826 0.0
C1324 C 0.21678 0.99105 0.66898 0.0
C1325 C 0.22735 1.0145 0.66058 0.0
C1326 C 0.21387 0.98561 0.69589 0.0
C1327 C 0.22184 1.00411 0.71455 0.0
C1328 C 0.23178 0.02773 0.70613 0.0
C1329 C 0.23445 0.03265 0.67917 0.0
C1330 C 0.20307 0.9602 0.70434 0.0
C1331 C 0.24058 0.0479 0.72557 0.0
H1332 H 0.18771 0.98828 0.79782 0.0
H1333 H 0.25612 0.99509 0.79045 0.0
H1334 H 0.18602 1.01232 0.73826 0.0
H1335 H 0.17344 0.98178 0.7304 0.0
H1336 H 0.16666 0.9904 0.76151 0.0
H1337 H 0.27601 1.00263 0.75028 0.0
H1338 H 0.25682 0.99036 0.72213 0.0
H1339 H 0.27027 0.02119 0.72896 0.0
H1340 H 0.21107 0.97703 0.65453 0.0
H1341 H 0.24295 0.05083 0.67267 0.0
H1342 H 0.18852 0.95568 0.71846 0.0
H1343 H 0.21649 0.95755 0.71467 0.0
H1344 H 0.19614 0.94783 0.68736 0.0
H1345 H 0.22663 0.04469 0.74006 0.0
H1346 H 0.24628 0.06506 0.71573 0.0
H1347 H 0.25573 0.0492 0.73677 0.0
C1348 C 1.00463 0.18297 0.68088 0.0
C1349 C 1.01525 0.20409 0.66638 0.0
C1350 C 1.00773 0.18297 0.70821 0.0
C1351 C 0.02336 0.20433 0.72105 0.0
C1352 C 0.03619 0.22518 0.7062 0.0
C1353 C 0.03134 0.22502 0.67933 0.0
C1354 C 0.99372 0.16003 0.7229 0.0
C1355 C 0.0545 0.24796 0.71884 0.0
C1356 C 1.01779 0.22023 0.79103 0.0
C1357 C 0.03322 0.21488 0.80464 0.0
C1358 C 1.01293 0.21494 0.76425 0.0
C1359 C 0.0251 0.2057 0.75014 0.0
C1360 C 0.04008 0.19953 0.76363 0.0
C1361 C 0.04325 0.20338 0.79087 0.0
C1362 C 0.99526 0.21991 0.7509 0.0
C1363 C 0.05327 0.1895 0.74925 0.0
H1364 H 0.99324 0.16632 0.67125 0.0
H1365 H 0.03974 0.24163 0.66893 0.0
H1366 H 0.99159 0.16256 0.74414 0.0
H1367 H 0.97594 0.14936 0.71401 0.0
H1368 H 1.00275 0.1496 0.72108 0.0
H1369 H 0.06604 0.26105 0.70393 0.0
H1370 H 0.04572 0.25582 0.73028 0.0
H1371 H 0.06566 0.24468 0.7327 0.0
H1372 H 1.00989 0.22924 0.80086 0.0
H1373 H 0.05412 0.19779 0.80107 0.0
H1374 H 0.98362 0.20513 0.7376 0.0
H1375 H 1.00457 0.23604 0.73872 0.0
H1376 H 0.98413 0.22261 0.76539 0.0
H1377 H 0.04072 0.17125 0.74281 0.0
H1378 H 0.06689 0.18903 0.76187 0.0
H1379 H 0.06193 0.20003 0.73136 0.0
C1380 C 0.90262 0.5583 0.64187 0.0
C1381 C 0.8817 0.55032 0.65627 0.0
C1382 C 0.90216 0.55325 0.61503 0.0
C1383 C 0.8803 0.54117 0.60178 0.0
C1384 C 0.85911 0.53275 0.61596 0.0
C1385 C 0.86005 0.53672 0.64319 0.0
C1386 C 0.92518 0.56155 0.60069 0.0
C1387 C 0.83549 0.52066 0.60222 0.0
C1388 C 0.88829 0.55653 0.52956 0.0
C1389 C 0.88767 0.53655 0.51854 0.0
C1390 C 0.88383 0.55739 0.5564 0.0
C1391 C 0.87995 0.53838 0.57285 0.0
C1392 C 0.87823 0.51777 0.56183 0.0
C1393 C 0.8813 0.51682 0.53467 0.0
C1394 C 0.88457 0.57921 0.56737 0.0
C1395 C 0.87497 0.49746 0.57889 0.0
H1396 H 0.91954 0.56918 0.65118 0.0
H1397 H 0.84368 0.52955 0.65395 0.0
H1398 H 0.92433 0.54715 0.58833 0.0
H1399 H 0.92857 0.57634 0.58738 0.0
H1400 H 0.94029 0.56769 0.61449 0.0
H1401 H 0.82058 0.51401 0.61632 0.0
H1402 H 0.83429 0.5333 0.58864 0.0
H1403 H 0.83351 0.5057 0.59006 0.0
H1404 H 0.89321 0.57199 0.51762 0.0
H1405 H 0.87958 0.5008 0.52636 0.0
H1406 H 0.90129 0.58993 0.57828 0.0
H1407 H 0.86991 0.57437 0.58144 0.0
H1408 H 0.88344 0.59032 0.55155 0.0
H1409 H 0.89105 0.50313 0.59096 0.0
H1410 H 0.87179 0.48186 0.56702 0.0
H1411 H 0.8601 0.49209 0.59273 0.0
C1412 C 0.50296 0.36426 0.52047 0.0
C1413 C 0.48246 0.35657 0.50518 0.0
C1414 C 0.50171 0.35919 0.5474 0.0
C1415 C 0.47953 0.34429 0.55893 0.0
C1416 C 0.459 0.33439 0.54317 0.0
C1417 C 0.46057 0.3414 0.51686 0.0
C1418 C 0.5243 0.37023 0.5632 0.0
C1419 C 0.43522 0.31669 0.55416 0.0
C1420 C 0.47925 0.31919 0.62622 0.0
C1421 C 0.46979 0.33009 0.64212 0.0
C1422 C 0.48213 0.32324 0.59902 0.0
C1423 C 0.47738 0.34011 0.58769 0.0
C1424 C 0.46984 0.3527 0.60377 0.0
C1425 C 0.46516 0.34683 0.63043 0.0
C1426 C 0.49013 0.30928 0.58261 0.0
C1427 C 0.46652 0.37231 0.59285 0.0
H1428 H 0.52019 0.37473 0.51178 0.0
H1429 H 0.4444 0.33524 0.50587 0.0
H1430 H 0.53728 0.38766 0.55496 0.0
H1431 H 0.52149 0.37265 0.58428 0.0
H1432 H 0.53223 0.35876 0.56198 0.0
H1433 H 0.42228 0.30693 0.53826 0.0
H1434 H 0.43671 0.30378 0.567 0.0
H1435 H 0.42819 0.32586 0.56631 0.0
H1436 H 0.48422 0.30717 0.63466 0.0
H1437 H 0.45749 0.35529 0.64175 0.0
H1438 H 0.5094 0.31993 0.57953 0.0
H1439 H 0.48144 0.30478 0.56298 0.0
H1440 H 0.48641 0.29269 0.59259 0.0
H1441 H 0.48134 0.38384 0.57965 0.0
H1442 H 0.46533 0.38335 0.60875 0.0
H1443 H 0.45008 0.36478 0.58109 0.0
C1444 C 0.70786 0.18447 0.62709 0.0
C1445 C 0.71033 0.16578 0.63671 0.0
C1446 C 0.70249 0.18526 0.60048 0.0
C1447 C 0.69972 0.167 0.58335 0.0
C1448 C 0.70272 0.14837 0.59291 0.0
C1449 C 0.70793 0.14797 0.61954 0.0
C1450 C 0.69923 0.20525 0.59087 0.0
C1451 C 0.70007 0.12866 0.57512 0.0
C1452 C 0.66223 0.14817 0.52221 0.0
C1453 C 0.67944 0.15616 0.50245 0.0
C1454 C 0.66855 0.15327 0.54874 0.0
C1455 C 0.69265 0.16646 0.55559 0.0
C1456 C 0.70999 0.17608 0.53566 0.0
C1457 C 0.70314 0.17086 0.50923 0.0
C1458 C 0.64955 0.14287 0.5695 0.0
C1459 C 0.73586 0.19033 0.54231 0.0
H1460 H 0.70961 0.19817 0.64049 0.0
H1461 H 0.71022 0.13373 0.62699 0.0
H1462 H 0.71053 0.21377 0.57345 0.0
H1463 H 0.68072 0.19827 0.58452 0.0
H1464 H 0.70348 0.21883 0.60634 0.0
H1465 H 0.70384 0.11599 0.58554 0.0
H1466 H 0.68187 0.11887 0.56721 0.0
H1467 H 0.71216 0.13599 0.55805 0.0
H1468 H 0.64388 0.13666 0.51714 0.0
H1469 H 0.71645 0.17751 0.49393 0.0
H1470 H 0.65251 0.15615 0.58485 0.0
H1471 H 0.65007 0.12802 0.57937 0.0
H1472 H 0.63171 0.13613 0.56094 0.0
H1473 H 0.73905 0.20365 0.5577 0.0
H1474 H 0.7467 0.19945 0.52474 0.0
H1475 H 0.74187 0.17847 0.55032 0.0
C1476 C 0.47999 0.1328 0.14278 0.0
C1477 C 0.46816 0.14401 0.15261 0.0
C1478 C 0.48277 0.13142 0.11558 0.0
C1479 C 0.4734 0.14143 0.09802 0.0
C1480 C 0.46153 0.15285 0.10787 0.0
C1481 C 0.45904 0.154 0.1351 0.0
C1482 C 0.49558 0.11915 0.10562 0.0
C1483 C 0.45118 0.16356 0.08964 0.0
C1484 C 0.49746 0.15463 0.02862 0.0
C1485 C 0.48033 0.13484 0.01497 0.0
C1486 C 0.49531 0.15716 0.05571 0.0
C1487 C 0.47555 0.13948 0.06928 0.0
C1488 C 0.45793 0.11973 0.0555 0.0
C1489 C 0.46055 0.11764 0.02844 0.0
C1490 C 0.51432 0.17852 0.06988 0.0
C1491 C 0.4366 0.10057 0.06943 0.0
H1492 H 0.48719 0.12526 0.15636 0.0
H1493 H 0.44954 0.16233 0.14273 0.0
H1494 H 0.48368 0.10397 0.09299 0.0
H1495 H 0.51075 0.13138 0.09325 0.0
H1496 H 0.50215 0.11266 0.12193 0.0
H1497 H 0.44291 0.17226 0.10058 0.0
H1498 H 0.46508 0.17677 0.07662 0.0
H1499 H 0.43768 0.1497 0.07674 0.0
H1500 H 0.51262 0.16806 0.01812 0.0
H1501 H 0.44746 0.10217 0.01796 0.0
H1502 H 0.52253 0.17291 0.08525 0.0
H1503 H 0.50657 0.18807 0.08001 0.0
H1504 H 0.5283 0.1909 0.05628 0.0
H1505 H 0.44221 0.0921 0.08449 0.0
H1506 H 0.42415 0.08677 0.05562 0.0
H1507 H 0.42714 0.10824 0.07991 0.0
C1508 C 0.90053 0.35449 0.13144 0.0
C1509 C 0.87962 0.33815 0.14411 0.0
C1510 C 0.90063 0.36005 0.10481 0.0
C1511 C 0.8797 0.34779 0.08991 0.0
C1512 C 0.85835 0.33215 0.10255 0.0
C1513 C 0.85843 0.32817 0.12968 0.0
C1514 C 0.92342 0.3784 0.09241 0.0
C1515 C 0.8356 0.31893 0.0873 0.0
C1516 C 0.87916 0.36866 0.02039 0.0
C1517 C 0.8903 0.35837 0.0064 0.0
C1518 C 0.87527 0.36532 0.0476 0.0
C1519 C 0.88091 0.34981 0.06082 0.0
C1520 C 0.88969 0.33735 0.04641 0.0
C1521 C 0.89507 0.3424 0.01971 0.0
C1522 C 0.8656 0.37896 0.06178 0.0
C1523 C 0.89423 0.31923 0.0594 0.0
H1524 H 0.91717 0.36245 0.14181 0.0
H1525 H 0.84185 0.31663 0.13922 0.0
H1526 H 0.93094 0.36964 0.08035 0.0
H1527 H 0.92027 0.39003 0.07916 0.0
H1528 H 0.93668 0.38949 0.10748 0.0
H1529 H 0.82111 0.30539 0.0995 0.0
H1530 H 0.8302 0.3315 0.08007 0.0
H1531 H 0.83805 0.31015 0.06983 0.0
H1532 H 0.87399 0.37997 0.01044 0.0
H1533 H 0.90379 0.33428 0.00974 0.0
H1534 H 0.87294 0.39689 0.05326 0.0
H1535 H 0.86936 0.38075 0.08325 0.0
H1536 H 0.84625 0.36983 0.05891 0.0
H1537 H 0.91043 0.32821 0.07156 0.0
H1538 H 0.89656 0.30799 0.04467 0.0
H1539 H 0.87944 0.3077 0.07264 0.0
C1540 C 0.65003 0.56447 0.01678 0.0
C1541 C 0.66923 0.57302 -0.00046 0.0
C1542 C 0.65351 0.56707 0.04403 0.0
C1543 C 0.67673 0.57837 0.05404 0.0
C1544 C 0.69619 0.58817 0.03665 0.0
C1545 C 0.69218 0.58542 0.00945 0.0
C1546 C 0.63238 0.55664 0.06205 0.0
C1547 C 0.7212 0.60033 0.04678 0.0
C1548 C 0.68948 0.59607 0.1257 0.0
C1549 C 0.69203 0.57756 0.13577 0.0
C1550 C 0.68381 0.59632 0.09914 0.0
C1551 C 0.68071 0.57763 0.08253 0.0
C1552 C 0.68237 0.55847 0.09286 0.0
C1553 C 0.68799 0.55865 0.11945 0.0
C1554 C 0.68198 0.61692 0.08867 0.0
C1555 C 0.67895 0.53812 0.07567 0.0
H1556 H 0.63227 0.55526 0.00892 0.0
H1557 H 0.70696 0.59199 -0.004 0.0
H1558 H 0.631 0.54101 0.0722 0.0
H1559 H 0.63435 0.56952 0.07749 0.0
H1560 H 0.61572 0.55109 0.05112 0.0
H1561 H 0.73426 0.60891 0.03073 0.0
H1562 H 0.72389 0.61385 0.0617 0.0
H1563 H 0.72469 0.58725 0.05661 0.0
H1564 H 0.69277 0.61076 0.13837 0.0
H1565 H 0.68957 0.54416 0.12743 0.0
H1566 H 0.66527 0.61059 0.07765 0.0
H1567 H 0.69657 0.62711 0.07466 0.0
H1568 H 0.68284 0.62894 0.10465 0.0
H1569 H 0.66157 0.53008 0.0657 0.0
H1570 H 0.68003 0.52422 0.08707 0.0
H1571 H 0.6926 0.54461 0.06006 0.0
C1572 C 0.57799 0.92557 0.96048 0.0
C1573 C 0.55891 0.90802 0.97449 0.0
C1574 C 0.57993 0.92352 0.93329 0.0
C1575 C 0.56237 0.9034 0.91997 0.0
C1576 C 0.54281 0.88583 0.93391 0.0
C1577 C 0.54129 0.88837 0.96112 0.0
C1578 C 0.60098 0.94264 0.91892 0.0
C1579 C 0.52386 0.8641 0.92023 0.0
C1580 C 0.55992 0.90722 0.8458 0.0
C1581 C 0.57275 0.89642 0.83791 0.0
C1582 C 0.55602 0.90929 0.87255 0.0
C1583 C 0.56514 0.90027 0.89165 0.0
C1584 C 0.57774 0.88897 0.88378 0.0
C1585 C 0.58144 0.88723 0.85695 0.0
C1586 C 0.54248 0.92141 0.88039 0.0
C1587 C 0.58774 0.87919 0.90371 0.0
H1588 H 0.59142 0.94092 0.97084 0.0
H1589 H 0.52665 0.8747 0.97206 0.0
H1590 H 0.61151 0.93528 0.91037 0.0
H1591 H 0.59509 0.94948 0.90234 0.0
H1592 H 0.61254 0.95759 0.93207 0.0
H1593 H 0.50918 0.85273 0.9337 0.0
H1594 H 0.51661 0.86918 0.90331 0.0
H1595 H 0.5315 0.85362 0.91221 0.0
H1596 H 0.55291 0.91403 0.83105 0.0
H1597 H 0.59162 0.87914 0.85086 0.0
H1598 H 0.55391 0.93733 0.8923 0.0
H1599 H 0.52725 0.90957 0.8929 0.0
H1600 H 0.53593 0.92678 0.86304 0.0
H1601 H 0.60099 0.89368 0.91621 0.0
H1602 H 0.59625 0.87005 0.89423 0.0
H1603 H 0.57361 0.86658 0.91696 0.0
C1604 C 0.15667 0.6942 0.96949 0.0
C1605 C 0.16164 0.67901 0.98421 0.0
C1606 C 0.16086 0.69703 0.94234 0.0
C1607 C 0.16832 0.6829 0.9291 0.0
C1608 C 0.17454 0.6685 0.94371 0.0
C1609 C 0.17218 0.66762 0.97118 0.0
C1610 C 0.15645 0.71455 0.92773 0.0
C1611 C 0.18303 0.65343 0.93047 0.0
C1612 C 0.14429 0.67119 0.8598 0.0
C1613 C 0.16468 0.68427 0.84458 0.0
C1614 C 0.14562 0.66904 0.88709 0.0
C1615 C 0.16761 0.68189 0.89996 0.0
C1616 C 0.18835 0.69454 0.88494 0.0
C1617 C 0.18668 0.69462 0.85744 0.0
C1618 C 0.12327 0.65338 0.90216 0.0
C1619 C 0.21244 0.7085 0.89738 0.0
H1620 H 0.14867 0.70339 0.97864 0.0
H1621 H 0.17792 0.65723 0.98209 0.0
H1622 H 0.16989 0.72366 0.91217 0.0
H1623 H 0.13895 0.70527 0.91806 0.0
H1624 H 0.15669 0.72803 0.94127 0.0
H1625 H 0.18178 0.63938 0.94375 0.0
H1626 H 0.17275 0.64503 0.91231 0.0
H1627 H 0.20173 0.66466 0.9248 0.0
H1628 H 0.12703 0.66302 0.85084 0.0
H1629 H 0.20288 0.70348 0.84634 0.0
H1630 H 0.11683 0.66428 0.91179 0.0
H1631 H 0.12651 0.64348 0.91779 0.0
H1632 H 0.1091 0.64054 0.88897 0.0
H1633 H 0.2231 0.72538 0.88671 0.0
H1634 H 0.22178 0.69836 0.89549 0.0
H1635 H 0.21186 0.71254 0.91851 0.0
C1636 C 0.37423 0.52165 0.98114 0.0
C1637 C 0.36472 0.49874 -0.00853 0.0
C1638 C 0.37384 0.52539 0.95399 0.0
C1639 C 0.36249 0.50576 0.93698 0.0
C1640 C 0.35079 0.48269 0.94745 0.0
C1641 C 0.35257 0.47944 0.97438 0.0
C1642 C 0.38711 0.55028 0.94356 0.0
C1643 C 0.33747 0.46125 0.93001 0.0
C1644 C 0.34458 0.50706 0.86691 0.0
C1645 C 0.35865 0.49977 0.85357 0.0
C1646 C 0.34666 0.51088 0.89416 0.0
C1647 C 0.36413 0.50868 0.90804 0.0
C1648 C 0.38062 0.50486 0.89413 0.0
C1649 C 0.37738 0.4999 0.86711 0.0
C1650 C 0.32859 0.51472 0.90831 0.0
C1651 C 0.40038 0.50382 0.9082 0.0
H1652 H 0.38284 0.53683 -0.00599 0.0
H1653 H 0.34535 0.46161 0.98157 0.0
H1654 H 0.40481 0.55407 0.93701 0.0
H1655 H 0.37817 0.55274 0.92631 0.0
H1656 H 0.38949 0.56336 0.95897 0.0
H1657 H 0.32651 0.44501 0.94162 0.0
H1658 H 0.32585 0.46381 0.91612 0.0
H1659 H 0.3501 0.45852 0.91812 0.0
H1660 H 0.33087 0.50834 0.85641 0.0
H1661 H 0.38861 0.4946 0.85716 0.0
H1662 H 0.3369 0.5284 0.92382 0.0
H1663 H 0.31573 0.49808 0.91815 0.0
H1664 H 0.31882 0.51994 0.89454 0.0
H1665 H 0.40854 0.51798 0.92327 0.0
H1666 H 0.41423 0.50558 0.89426 0.0
H1667 H 0.3933 0.48667 0.91848 0.0
C1668 C 0.16946 0.50329 0.35018 0.0
C1669 C 0.18725 0.50539 0.33329 0.0
C1670 C 0.17387 0.50812 0.37712 0.0
C1671 C 0.19661 0.51519 0.38723 0.0
C1672 C 0.21522 0.51981 0.36983 0.0
C1673 C 0.21031 0.51488 0.34294 0.0
C1674 C 0.15361 0.50345 0.39506 0.0
C1675 C 0.23979 0.52788 0.37976 0.0
C1676 C 0.19955 0.52993 0.45926 0.0
C1677 C 0.19067 0.50742 0.47026 0.0
C1678 C 0.20405 0.53352 0.43219 0.0
C1679 C 0.19957 0.51413 0.41603 0.0
C1680 C 0.1936 0.49217 0.42762 0.0
C1681 C 0.1892 0.48907 0.45474 0.0
C1682 C 0.21106 0.55736 0.42066 0.0
C1683 C 0.18921 0.47118 0.41105 0.0
H1684 H 0.15164 0.49599 0.34279 0.0
H1685 H 0.22423 0.51702 0.32973 0.0
H1686 H 0.14874 0.48751 0.40707 0.0
H1687 H 0.15878 0.51841 0.40885 0.0
H1688 H 0.13782 0.50057 0.38385 0.0
H1689 H 0.25305 0.53623 0.36384 0.0
H1690 H 0.24452 0.54055 0.39631 0.0
H1691 H 0.24072 0.51243 0.38716 0.0
H1692 H 0.20121 0.54429 0.47146 0.0
H1693 H 0.18243 0.47169 0.46324 0.0
H1694 H 0.19516 0.55722 0.41294 0.0
H1695 H 0.22349 0.56159 0.40401 0.0
H1696 H 0.2193 0.57152 0.43574 0.0
H1697 H 0.17245 0.46466 0.40002 0.0
H1698 H 0.18793 0.45652 0.42325 0.0
H1699 H 0.20347 0.47622 0.39639 0.0
C1700 C 0.58179 0.68705 0.45823 0.0
C1701 C 0.56324 0.68368 0.47464 0.0
C1702 C 0.58076 0.69013 0.43109 0.0
C1703 C 0.5607 0.68986 0.42035 0.0
C1704 C 0.54245 0.68764 0.437 0.0
C1705 C 0.54394 0.68457 0.46406 0.0
C1706 C 0.60061 0.69258 0.4138 0.0
C1707 C 0.52097 0.68758 0.42611 0.0
C1708 C 0.56808 0.71329 0.35114 0.0
C1709 C 0.55898 0.69245 0.33631 0.0
C1710 C 0.56789 0.71268 0.37866 0.0
C1711 C 0.55842 0.6907 0.39151 0.0
C1712 C 0.54827 0.66953 0.3767 0.0
C1713 C 0.54871 0.67067 0.34914 0.0
C1714 C 0.57893 0.73559 0.3939 0.0
C1715 C 0.5379 0.64577 0.38992 0.0
H1716 H 0.59661 0.68617 0.46644 0.0
H1717 H 0.52976 0.6823 0.47691 0.0
H1718 H 0.59405 0.67712 0.40045 0.0
H1719 H 0.60722 0.70848 0.40124 0.0
H1720 H 0.61554 0.69384 0.42548 0.0
H1721 H 0.50921 0.68743 0.44196 0.0
H1722 H 0.52628 0.70327 0.41352 0.0
H1723 H 0.51084 0.67179 0.4135 0.0
H1724 H 0.57642 0.7302 0.34122 0.0
H1725 H 0.54153 0.65459 0.33762 0.0
H1726 H 0.59534 0.73844 0.40354 0.0
H1727 H 0.56692 0.7349 0.40971 0.0
H1728 H 0.58332 0.75095 0.38102 0.0
H1729 H 0.55201 0.6443 0.40032 0.0
H1730 H 0.52927 0.63099 0.37561 0.0
H1731 H 0.52478 0.64387 0.40493 0.0
C1732 C 0.32393 0.82918 0.35454 0.0
C1733 C 0.3335 0.85295 0.3472 0.0
C1734 C 0.32425 0.8228 0.38085 0.0
C1735 C 0.33534 0.84066 0.40006 0.0
C1736 C 0.34641 0.86466 0.39258 0.0
C1737 C 0.34487 0.87048 0.36644 0.0
C1738 C 0.31152 0.79701 0.3881 0.0
C1739 C 0.3592 0.88432 0.41239 0.0
C1740 C 0.3228 0.8406 0.47184 0.0
C1741 C 0.34296 0.8416 0.48279 0.0
C1742 C 0.31813 0.83674 0.44481 0.0
C1743 C 0.3345 0.83486 0.42836 0.0
C1744 C 0.35297 0.8326 0.43966 0.0
C1745 C 0.35656 0.83532 0.46696 0.0
C1746 C 0.29725 0.83757 0.43351 0.0
C1747 C 0.37075 0.83041 0.42281 0.0
H1748 H 0.31573 0.81536 0.3399 0.0
H1749 H 0.35199 0.88886 0.36142 0.0
H1750 H 0.3207 0.79318 0.40404 0.0
H1751 H 0.2937 0.79206 0.39542 0.0
H1752 H 0.30944 0.78568 0.37081 0.0
H1753 H 0.36931 0.90183 0.40279 0.0
H1754 H 0.34631 0.88491 0.42608 0.0
H1755 H 0.37154 0.88118 0.42435 0.0
H1756 H 0.31178 0.84496 0.48368 0.0
H1757 H 0.37136 0.83462 0.47544 0.0
H1758 H 0.28916 0.82472 0.41712 0.0
H1759 H 0.30315 0.85541 0.42549 0.0
H1760 H 0.28366 0.83374 0.44876 0.0
H1761 H 0.36209 0.81801 0.4062 0.0
H1762 H 0.38112 0.82439 0.43444 0.0
H1763 H 0.38312 0.84791 0.41426 0.0
C1764 C 0.32061 0.29484 0.04973 0.0
C1765 C 0.30341 0.28799 0.0299 0.0
C1766 C 0.33268 0.31806 0.05947 0.0
C1767 C 0.32792 0.33521 0.04879 0.0
C1768 C 0.31098 0.32859 0.02832 0.0
C1769 C 0.29892 0.3051 0.01918 0.0
C1770 C 0.35059 0.32423 0.0812 0.0
C1771 C 0.30563 0.34637 0.01603 0.0
C1772 C 0.34757 0.39392 0.08459 0.0
C1773 C 0.36819 0.40906 0.0708 0.0
C1774 C 0.33442 0.36967 0.07809 0.0
C1775 C 0.3421 0.36047 0.05737 0.0
C1776 C 0.36337 0.37561 0.0442 0.0
C1777 C 0.37609 0.39952 0.05112 0.0
C1778 C 0.31198 0.35404 0.09283 0.0
C1779 C 0.37239 0.36676 0.0221 0.0
H1780 H 0.32454 0.28191 0.0579 0.0
H1781 H 0.28559 0.30005 0.00402 0.0
H1782 H 0.36834 0.33729 0.07393 0.0
H1783 H 0.34649 0.33249 0.09796 0.0
H1784 H 0.35117 0.30857 0.08857 0.0
H1785 H 0.29153 0.33834 0.00087 0.0
H1786 H 0.3001 0.35461 0.03148 0.0
H1787 H 0.32173 0.36066 0.00669 0.0
H1788 H 0.34126 0.40114 0.09967 0.0
H1789 H 0.39215 0.41098 0.0405 0.0
H1790 H 0.31226 0.33836 0.10062 0.0
H1791 H 0.29677 0.34757 0.07916 0.0
H1792 H 0.30918 0.3634 0.10949 0.0
H1793 H 0.37446 0.35184 0.02904 0.0
H1794 H 0.38958 0.38069 0.0143 0.0
H1795 H 0.35947 0.3601 0.00567 0.0
C1796 C 0.64031 0.96804 0.09818 0.0
C1797 C 0.62515 0.96875 0.07919 0.0
C1798 C 0.66435 0.97674 0.09238 0.0
C1799 C 0.67316 0.98562 0.0668 0.0
C1800 C 0.65776 0.986 0.04757 0.0
C1801 C 0.63419 0.97787 0.05407 0.0
C1802 C 0.68033 0.9764 0.11357 0.0
C1803 C 0.66602 0.99446 0.01982 0.0
C1804 C 0.73917 0.02473 0.05439 0.0
C1805 C 0.74549 1.0081 0.04659 0.0
C1806 C 0.71574 0.01768 0.06129 0.0
C1807 C 0.69814 0.99356 0.05953 0.0
C1808 C 0.70426 0.97701 0.04996 0.0
C1809 C 0.72786 0.98442 0.04399 0.0
C1810 C 0.71004 0.03586 0.07165 0.0
C1811 C 0.68601 0.9513 0.04674 0.0
H1812 H 0.63348 0.96097 0.11754 0.0
H1813 H 0.6226 0.97808 0.03896 0.0
H1814 H 0.68696 0.96445 0.10766 0.0
H1815 H 0.69588 0.99426 0.11602 0.0
H1816 H 0.67125 0.97043 0.13285 0.0
H1817 H 0.6518 0.99363 0.00715 0.0
H1818 H 0.68081 1.01289 0.02017 0.0
H1819 H 0.67267 0.98352 0.01062 0.0
H1820 H 0.75275 0.04299 0.05682 0.0
H1821 H 0.73272 0.97149 0.03818 0.0
H1822 H 0.70327 0.03128 0.09211 0.0
H1823 H 0.69598 0.03593 0.05957 0.0
H1824 H 0.72563 0.05389 0.07167 0.0
H1825 H 0.67864 0.94352 0.06627 0.0
H1826 H 0.69338 0.94098 0.03755 0.0
H1827 H 0.6712 0.94944 0.03438 0.0
C1828 C 1.00211 0.71461 0.08216 0.0
C1829 C 1.01029 0.73701 0.07107 0.0
C1830 C 1.01667 0.70468 0.08448 0.0
C1831 C 0.04022 0.71738 0.07554 0.0
C1832 C 0.04866 0.74 0.06417 0.0
C1833 C 0.03358 0.74954 0.06198 0.0
C1834 C 1.00668 0.68038 0.0963 0.0
C1835 C 0.07363 0.75411 0.05435 0.0
C1836 C 0.08017 0.69382 0.09925 0.0
C1837 C 0.07847 0.67923 0.07808 0.0
C1838 C 0.06857 0.70713 0.09842 0.0
C1839 C 0.05499 0.7058 0.07593 0.0
C1840 C 0.05372 0.69152 0.05438 0.0
C1841 C 0.06536 0.67852 0.05574 0.0
C1842 C 0.07039 0.72221 0.1218 0.0
C1843 C 0.03941 0.68934 0.03007 0.0
H1844 H 0.98415 0.70474 0.08925 0.0
H1845 H 0.04018 0.76699 0.05378 0.0
H1846 H 1.00683 0.66805 0.08137 0.0
H1847 H 1.01774 0.68082 0.11309 0.0
H1848 H 0.98834 0.67325 0.10338 0.0
H1849 H 0.07789 0.77183 0.0472 0.0
H1850 H 0.08611 0.75625 0.07034 0.0
H1851 H 0.07647 0.74454 0.03799 0.0
H1852 H 0.09035 0.69468 0.11649 0.0
H1853 H 0.06388 0.66749 0.03907 0.0
H1854 H 0.05288 0.71505 0.13121 0.0
H1855 H 0.0759 0.7404 0.11527 0.0
H1856 H 0.08311 0.72294 0.13679 0.0
H1857 H 1.0205 0.68093 0.03532 0.0
H1858 H 0.04142 0.67866 0.01432 0.0
H1859 H 0.04471 0.70703 0.022 0.0
C1860 C 0.39917 0.37101 0.39339 0.0
C1861 C 0.41561 0.36333 0.39182 0.0
C1862 C 0.37491 0.35488 0.39456 0.0
C1863 C 0.36691 0.33042 0.39528 0.0
C1864 C 0.38343 0.32254 0.3929 0.0
C1865 C 0.40759 0.33912 0.39073 0.0
C1866 C 0.35792 0.36408 0.3959 0.0
C1867 C 0.37574 0.29666 0.39412 0.0
C1868 C 0.3068 0.29123 0.42702 0.0
C1869 C 0.29276 0.2805 0.40485 0.0
C1870 C 0.33111 0.3072 0.42427 0.0
C1871 C 0.34129 0.31316 0.3987 0.0
C1872 C 0.32687 0.30284 0.3763 0.0
C1873 C 0.30295 0.28635 0.37968 0.0
C1874 C 0.346 0.31738 0.44868 0.0
C1875 C 0.33665 0.30932 0.3487 0.0
H1876 H 0.4054 0.38976 0.39451 0.0
H1877 H 0.42026 0.33311 0.39001 0.0
H1878 H 0.34379 0.35512 0.38096 0.0
H1879 H 0.34938 0.3602 0.41554 0.0
H1880 H 0.36677 0.3834 0.39257 0.0
H1881 H 0.39068 0.29337 0.39149 0.0
H1882 H 0.36738 0.28943 0.41348 0.0
H1883 H 0.36237 0.28679 0.3787 0.0
H1884 H 0.29894 0.28656 0.44646 0.0
H1885 H 0.29205 0.27817 0.36246 0.0
H1886 H 0.35401 0.33682 0.44881 0.0
H1887 H 0.36064 0.31348 0.44863 0.0
H1888 H 0.33567 0.31025 0.46708 0.0
H1889 H 0.34517 0.32867 0.34593 0.0
H1890 H 0.32283 0.30049 0.33337 0.0
H1891 H 0.35035 0.30436 0.3456 0.0
C1892 C 0.74378 0.01961 0.42892 0.0
C1893 C 0.72838 0.99523 0.42682 0.0
C1894 C 0.73548 0.03564 0.42605 0.0
C1895 C 0.71119 0.02706 0.42136 0.0
C1896 C 0.69552 1.00243 0.42032 0.0
C1897 C 0.70431 0.98692 0.42294 0.0
C1898 C 0.75276 0.06174 0.42726 0.0
C1899 C 0.66943 0.99241 0.41604 0.0
C1900 C 0.68144 0.06198 0.43965 0.0
C1901 C 0.67683 0.06859 0.41494 0.0
C1902 C 0.6936 0.04956 0.442 0.0
C1903 C 0.70161 0.04349 0.41908 0.0
C1904 C 0.69817 0.05112 0.39407 0.0
C1905 C 0.68581 0.06364 0.39227 0.0
C1906 C 0.69676 0.04187 0.46906 0.0
C1907 C 0.70668 0.04519 0.36917 0.0
H1908 H 0.76246 0.0262 0.43147 0.0
H1909 H 0.69232 0.9681 0.42123 0.0
H1910 H 0.75272 0.07001 0.40819 0.0
H1911 H 0.74743 0.07015 0.4427 0.0
H1912 H 0.77097 0.0656 0.43149 0.0
H1913 H 0.65962 0.97283 0.41573 0.0
H1914 H 0.66209 0.99848 0.43194 0.0
H1915 H 0.66633 0.99886 0.39709 0.0
H1916 H 0.67505 0.06607 0.45745 0.0
H1917 H 0.68251 0.0688 0.37315 0.0
H1918 H 0.71541 0.04684 0.4723 0.0
H1919 H 0.68607 0.0224 0.47056 0.0
H1920 H 0.69133 0.04973 0.48507 0.0
H1921 H 0.72534 0.0498 0.37136 0.0
H1922 H 0.70508 0.05454 0.35173 0.0
H1923 H 0.69621 0.02594 0.36547 0.0
C1924 C 0.97172 0.61653 0.40549 0.0
C1925 C 0.94876 0.6103 0.39775 0.0
C1926 C 0.98757 0.63933 0.41492 0.0
C1927 C 0.98074 0.65671 0.41549 0.0
C1928 C 0.95822 0.65102 0.40586 0.0
C1929 C 0.9425 0.62793 0.39738 0.0
C1930 C 1.01132 0.64455 0.42516 0.0
C1931 C 0.95046 0.66919 0.40516 0.0
C1932 C 1.0084 0.70994 0.46171 0.0
C1933 C 0.02377 0.72796 0.44471 0.0
C1934 C 0.99511 0.68645 0.4528 0.0
C1935 C 0.99692 0.68087 0.42616 0.0
C1936 C 1.01308 0.69883 0.40926 0.0
C1937 C 0.02655 0.72196 0.41885 0.0
C1938 C 0.97853 0.66771 0.47168 0.0
C1939 C 1.01535 0.6939 0.38063 0.0
H1940 H 0.97717 0.60346 0.40482 0.0
H1941 H 0.92498 0.62359 0.39109 0.0
H1942 H 0.02555 0.65946 0.41415 0.0
H1943 H 1.01315 0.64993 0.44618 0.0
H1944 H 1.01394 0.62909 0.42352 0.0
H1945 H 0.93304 0.66241 0.39549 0.0
H1946 H 0.94933 0.67471 0.42554 0.0
H1947 H 0.96359 0.68513 0.39444 0.0
H1948 H 1.00625 0.71426 0.48177 0.0
H1949 H 0.03883 0.73554 0.40567 0.0
H1950 H 0.98128 0.65232 0.47112 0.0
H1951 H 0.96007 0.66143 0.46561 0.0
H1952 H 0.98089 0.67432 0.49228 0.0
H1953 H 1.0188 0.67903 0.37885 0.0
H1954 H 0.02967 0.70948 0.37047 0.0
H1955 H 0.99854 0.68865 0.37022 0.0
C1956 C 0.69159 0.63002 0.87104 0.0
C1957 C 0.66782 0.62236 0.87608 0.0
C1958 C 0.70887 0.65405 0.87322 0.0
C1959 C 0.70219 0.67093 0.88002 0.0
C1960 C 0.67806 0.66341 0.88361 0.0
C1961 C 0.66128 0.63932 0.88176 0.0
C1962 C 0.73439 0.66125 0.86919 0.0
C1963 C 0.66999 0.68075 0.89015 0.0
C1964 C 0.74796 0.73065 0.90911 0.0
C1965 C 0.75509 0.74485 0.88658 0.0
C1966 C 0.73077 0.70649 0.90734 0.0
C1967 C 0.72028 0.69653 0.88257 0.0
C1968 C 0.72692 0.71116 0.86006 0.0
C1969 C 0.74428 0.73496 0.86232 0.0
C1970 C 0.72427 0.69145 0.93179 0.0
C1971 C 0.71593 0.70162 0.83341 0.0
H1972 H 0.69689 0.61715 0.86684 0.0
H1973 H 0.64295 0.63362 0.88565 0.0
H1974 H 0.74207 0.67455 0.85326 0.0
H1975 H 0.74451 0.6696 0.88745 0.0
H1976 H 0.73674 0.64607 0.86403 0.0
H1977 H 0.65052 0.67222 0.89131 0.0
H1978 H 0.67757 0.68938 0.90934 0.0
H1979 H 0.67639 0.69483 0.87502 0.0
H1980 H 0.75646 0.73817 0.9278 0.0
H1981 H 0.74966 0.74593 0.84483 0.0
H1982 H 0.72829 0.67704 0.92888 0.0
H1983 H 0.70509 0.68311 0.93546 0.0
H1984 H 0.73386 0.70177 0.94953 0.0
H1985 H 0.71986 0.68774 0.82706 0.0
H1986 H 0.72242 0.71552 0.81804 0.0
H1987 H 0.6965 0.69334 0.83466 0.0
C1988 C 0.40793 0.03898 0.91629 0.0
C1989 C 0.42161 0.06074 0.90369 0.0
C1990 C 0.3833 0.02753 0.91621 0.0
C1991 C 0.37177 0.03793 0.90299 0.0
C1992 C 0.38538 0.05967 0.88965 0.0
C1993 C 0.41021 0.07086 0.89013 0.0
C1994 C 0.36963 1.00428 0.93044 0.0
C1995 C 0.37371 0.0712 0.87515 0.0
C1996 C 0.30928 0.99346 0.88303 0.0
C1997 C 0.2958 0.99566 0.90322 0.0
C1998 C 0.33379 1.0079 0.88208 0.0
C1999 C 0.34547 0.02499 0.90197 0.0
C2000 C 0.33204 0.02773 0.9222 0.0
C2001 C 0.30732 1.01308 0.92254 0.0
C2002 C 0.34727 1.0043 0.86013 0.0
C2003 C 0.34387 0.04568 0.94386 0.0
H2004 H 0.41656 0.03094 0.92674 0.0
H2005 H 0.42063 0.0878 0.88064 0.0
H2006 H 0.35791 1.00543 0.9454 0.0
H2007 H 0.35828 0.99024 0.91626 0.0
H2008 H 0.38129 0.99893 0.94046 0.0
H2009 H 0.3867 0.08815 0.86593 0.0
H2010 H 0.36194 0.05922 0.85953 0.0
H2011 H 0.36258 0.07455 0.88895 0.0
H2012 H 0.30071 0.98028 0.86775 0.0
H2013 H 0.29709 1.0151 0.93804 0.0
H2014 H 0.35831 0.9974 0.8684 0.0
H2015 H 0.35927 0.02133 0.85044 0.0
H2016 H 0.33545 0.99173 0.84491 0.0
H2017 H 0.35473 0.04072 0.95613 0.0
H2018 H 0.33096 0.04706 0.95682 0.0
H2019 H 0.35588 0.06326 0.93531 0.0
C2020 C 0.99031 0.363 0.92737 0.0
C2021 C 0.9725 0.35936 0.90933 0.0
C2022 C 1.00078 0.34887 0.9273 0.0
C2023 C 0.99335 0.33038 0.90872 0.0
C2024 C 0.97526 0.32639 0.89047 0.0
C2025 C 0.96509 0.34102 0.89089 0.0
C2026 C 1.02025 0.35415 0.94681 0.0
C2027 C 0.96681 0.30681 0.8704 0.0
C2028 C 0.04008 0.31466 0.89113 0.0
C2029 C 0.03395 0.29469 0.90673 0.0
C2030 C 0.02663 0.32586 0.89108 0.0
C2031 C 1.0063 0.31698 0.90702 0.0
C2032 C 0.99986 0.29678 0.92286 0.0
C2033 C 1.01384 0.2859 0.92263 0.0
C2034 C 0.03452 0.34756 0.87426 0.0
C2035 C 0.97828 0.28675 0.94009 0.0
H2036 H 0.99632 0.37718 0.94166 0.0
H2037 H 0.95119 0.3379 0.8771 0.0
H2038 H 1.01608 0.33812 0.95826 0.0
H2039 H 0.03693 0.35957 0.93611 0.0
H2040 H 0.02317 0.36841 0.96084 0.0
H2041 H 0.95154 0.30489 0.85885 0.0
H2042 H 0.98128 0.31033 0.85655 0.0
H2043 H 0.96171 0.28986 0.88036 0.0
H2044 H 0.05565 0.32173 0.87884 0.0
H2045 H 1.00882 0.27035 0.9345 0.0
H2046 H 0.03897 0.363 0.88704 0.0
H2047 H 1.02007 0.3452 0.86095 0.0
H2048 H 0.05017 0.3516 0.86208 0.0
H2049 H 0.9805 0.29979 0.95544 0.0
H2050 H 0.9748 0.27019 0.94995 0.0
H2051 H 0.96266 0.28319 0.92814 0.0
C2052 C 0.74635 0.74372 0.5597 0.0
C2053 C 0.75902 0.74124 0.58054 0.0
C2054 C 0.72157 0.73314 0.56087 0.0
C2055 C 0.7092 0.71979 0.58336 0.0
C2056 C 0.72205 0.71797 0.60474 0.0
C2057 C 0.74662 0.72864 0.60306 0.0
C2058 C 0.70854 0.73558 0.53767 0.0
C2059 C 0.70977 0.70387 0.62904 0.0
C2060 C 0.64409 0.69999 0.59499 0.0
C2061 C 0.63304 0.67705 0.58468 0.0
C2062 C 0.66887 0.71433 0.59446 0.0
C2063 C 0.68285 0.70543 0.58354 0.0
C2064 C 0.67167 0.68205 0.57381 0.0
C2065 C 0.64706 0.66827 0.57447 0.0
C2066 C 0.68009 0.73914 0.60507 0.0
C2067 C 0.68571 0.67157 0.56242 0.0
H2068 H 0.7557 0.75354 0.54233 0.0
H2069 H 0.75607 0.72669 0.6195 0.0
H2070 H 0.69803 0.71821 0.52786 0.0
H2071 H 0.69607 0.74128 0.54444 0.0
H2072 H 0.72067 0.74842 0.52293 0.0
H2073 H 0.72236 0.70585 0.64487 0.0
H2074 H 0.69749 0.70938 0.63695 0.0
H2075 H 0.69916 0.68492 0.62381 0.0
H2076 H 0.63337 0.70702 0.6025 0.0
H2077 H 0.63867 0.65054 0.56648 0.0
H2078 H 0.69011 0.75185 0.58918 0.0
H2079 H 0.69283 0.74166 0.62091 0.0
H2080 H 0.6669 0.74341 0.61308 0.0
H2081 H 0.69646 0.68237 0.5456 0.0
H2082 H 0.67432 0.65317 0.55546 0.0
H2083 H 0.69803 0.67167 0.5775 0.0
C2084 C 0.33504 0.94518 0.58687 0.0
C2085 C 0.34647 0.94141 0.56574 0.0
C2086 C 0.32697 0.96147 0.58466 0.0
C2087 C 0.33072 0.97437 0.5609 0.0
C2088 C 0.34304 0.9711 0.53996 0.0
C2089 C 0.35054 0.95454 0.54257 0.0
C2090 C 0.3138 0.96436 0.60739 0.0
C2091 C 0.3479 0.98472 0.51453 0.0
C2092 C 0.29142 1.00041 0.54447 0.0
C2093 C 0.30523 0.02367 0.55336 0.0
C2094 C 0.29946 0.98413 0.5468 0.0
C2095 C 0.32197 0.99142 0.55787 0.0
C2096 C 0.33636 1.01519 0.56569 0.0
C2097 C 0.32777 0.03091 0.56349 0.0
C2098 C 0.28353 0.95894 0.53826 0.0
C2099 C 0.36064 0.0239 0.57701 0.0
H2100 H 0.33153 0.93472 0.60459 0.0
H2101 H 0.35926 0.95149 0.52613 0.0
H2102 H 0.32264 0.98307 0.61375 0.0
H2103 H 0.29574 0.95948 0.60099 0.0
H2104 H 0.31257 0.95331 0.62458 0.0
H2105 H 0.35859 0.98084 0.50059 0.0
H2106 H 0.33105 0.98034 0.50476 0.0
H2107 H 0.35735 1.00393 0.51866 0.0
H2108 H 0.2739 0.99459 0.53696 0.0
H2109 H 0.33854 0.04888 0.57042 0.0
H2110 H 0.27966 0.94701 0.55536 0.0
H2111 H 0.29246 0.95386 0.52322 0.0
H2112 H 0.26663 0.95608 0.52992 0.0
H2113 H 0.35934 1.01444 0.59561 0.0
H2114 H 0.36998 0.04312 0.58118 0.0
H2115 H 0.37142 0.02015 0.56311 0.0
C2116 C 0.02665 0.29537 0.54315 0.0
C2117 C 1.01994 0.28277 0.56685 0.0
C2118 C 0.04271 0.31989 0.54311 0.0
C2119 C 0.05262 0.33186 0.56724 0.0
C2120 C 0.04637 0.31894 0.59104 0.0
C2121 C 0.03005 0.29473 0.59055 0.0
C2122 C 0.04878 0.33308 0.51733 0.0
C2123 C 0.0569 0.33069 0.61712 0.0
C2124 C 0.11022 0.39039 0.56489 0.0
C2125 C 0.10266 0.40679 0.56864 0.0
C2126 C 0.09421 0.36604 0.56476 0.0
C2127 C 0.06986 0.35778 0.56781 0.0
C2128 C 0.06215 0.37427 0.57218 0.0
C2129 C 0.07869 0.3986 0.57279 0.0
C2130 C 0.10335 0.34917 0.56085 0.0
C2131 C 0.03635 0.36625 0.57529 0.0
H2132 H 1.01884 0.28625 0.52483 0.0
H2133 H 0.02523 0.28506 0.60897 0.0
H2134 H 0.04421 0.34726 0.51829 0.0
H2135 H 0.06799 0.34165 0.51375 0.0
H2136 H 0.03937 0.32137 0.50036 0.0
H2137 H 0.05063 0.31801 0.63378 0.0
H2138 H 0.07638 0.33943 0.61625 0.0
H2139 H 0.05235 0.34456 0.62128 0.0
H2140 H 0.12874 0.3967 0.56142 0.0
H2141 H 0.07271 0.41124 0.57504 0.0
H2142 H 0.09612 0.33906 0.54232 0.0
H2143 H 0.09741 0.33625 0.57723 0.0
H2144 H 0.12287 0.35837 0.55989 0.0
H2145 H 0.0266 0.35643 0.55741 0.0
H2146 H 0.03318 0.38122 0.57845 0.0
H2147 H 0.02896 0.35401 0.59222 0.0
C2148 C 0.07181 0.6672 0.72904 0.0
C2149 C 0.08561 0.6863 0.74576 0.0
C2150 C 0.04697 0.65495 0.73087 0.0
C2151 C 0.0357 0.66199 0.7498 0.0
C2152 C 0.04962 0.68115 0.76674 0.0
C2153 C 0.07421 0.69299 0.76448 0.0
C2154 C 0.03274 0.63464 0.71238 0.0
C2155 C 0.03854 0.68953 0.78702 0.0
C2156 C 0.9741 0.65165 0.73714 0.0
C2157 C 0.96006 0.63274 0.75397 0.0
C2158 C 0.99847 0.66082 0.73523 0.0
C2159 C 1.00943 0.65098 0.75056 0.0
C2160 C 0.99547 0.63199 0.76785 0.0
C2161 C 0.97092 0.62312 0.76942 0.0
C2162 C 1.01253 0.68124 0.71682 0.0
C2163 C 1.00648 0.62104 0.78459 0.0
H2164 H 0.08039 0.66173 0.7147 0.0
H2165 H 0.08454 0.70773 0.77756 0.0
H2166 H 1.0205 0.61874 0.72377 0.0
H2167 H 1.02186 0.639 0.69933 0.0
H2168 H 0.04404 0.63039 0.6999 0.0
H2169 H 0.05185 0.70384 0.7997 0.0
H2170 H 0.02795 0.69615 0.77698 0.0
H2171 H 0.02642 0.67468 0.79983 0.0
H2172 H 0.96595 0.6593 0.72515 0.0
H2173 H 0.96022 0.60833 0.78219 0.0
H2174 H 1.02251 0.67667 0.70266 0.0
H2175 H 0.02554 0.69679 0.72826 0.0
H2176 H 1.00123 0.68632 0.70551 0.0
H2177 H 1.0162 0.61498 0.77191 0.0
H2178 H 0.99319 0.60585 0.79622 0.0
H2179 H 1.01943 0.6344 0.79838 0.0
C2180 C 0.39619 0.43202 0.73519 0.0
C2181 C 0.37272 0.42703 0.7363 0.0
C2182 C 0.40204 0.41426 0.73859 0.0
C2183 C 0.38406 0.39084 0.74364 0.0
C2184 C 0.36035 0.38565 0.74493 0.0
C2185 C 0.35494 0.40369 0.74081 0.0
C2186 C 0.42747 0.42051 0.73624 0.0
C2187 C 0.34063 0.36096 0.7504 0.0
C2188 C 0.39518 0.34171 0.7222 0.0
C2189 C 0.4021 0.33559 0.74577 0.0
C2190 C 0.38931 0.35952 0.72138 0.0
C2191 C 0.38988 0.37148 0.74483 0.0
C2192 C 0.39663 0.36534 0.76885 0.0
C2193 C 0.40296 0.34763 0.76899 0.0
C2194 C 0.38286 0.36581 0.6952 0.0
C2195 C 0.39711 0.37746 0.79434 0.0
H2196 H 0.41016 0.44991 0.73161 0.0
H2197 H 0.33674 0.39944 0.74122 0.0
H2198 H 0.43309 0.41509 0.75428 0.0
H2199 H 0.42948 0.4108 0.71943 0.0
H2200 H 0.43946 0.43968 0.73315 0.0
H2201 H 0.32353 0.36027 0.75356 0.0
H2202 H 0.33869 0.34929 0.73357 0.0
H2203 H 0.34478 0.35377 0.76812 0.0
H2204 H 0.39476 0.33284 0.70398 0.0
H2205 H 0.40829 0.34304 0.78724 0.0
H2206 H 0.39512 0.38464 0.69067 0.0
H2207 H 0.36488 0.36336 0.69613 0.0
H2208 H 0.38348 0.35495 0.6787 0.0
H2209 H 0.41008 0.39655 0.79296 0.0
H2210 H 0.40179 0.37006 0.81148 0.0
H2211 H 0.37964 0.37576 0.79794 0.0
C2212 C 0.66665 0.97583 0.74583 0.0
C2213 C 0.64622 0.96269 0.73064 0.0
C2214 C 0.67773 1.00042 0.74751 0.0
C2215 C 0.66839 1.01252 0.73342 0.0
C2216 C 0.64795 0.99949 0.71766 0.0
C2217 C 0.63705 0.97468 0.71646 0.0
C2218 C 0.69956 1.01348 0.76437 0.0
C2219 C 0.63761 1.01179 0.70214 0.0
C2220 C 0.69106 0.0762 0.75542 0.0
C2221 C 0.7098 0.08858 0.73787 0.0
C2222 C 0.67679 0.05145 0.75369 0.0
C2223 C 0.6813 0.03886 0.73388 0.0
C2224 C 0.69988 0.05137 0.71589 0.0
C2225 C 0.71389 0.07589 0.71819 0.0
C2226 C 0.65723 0.03871 0.77338 0.0
C2227 C 0.70543 0.03879 0.69451 0.0
H2228 H 0.674 0.96682 0.75682 0.0
H2229 H 0.62115 0.96468 0.70491 0.0
H2230 H 0.71478 0.02535 0.75187 0.0
H2231 H 0.69712 0.02464 0.77907 0.0
H2232 H 0.70397 1.00137 0.77503 0.0
H2233 H 0.62136 0.99918 0.69138 0.0
H2234 H 0.63342 0.02258 0.71555 0.0
H2235 H 0.65069 0.02399 0.68766 0.0
H2236 H 0.68759 0.0858 0.77051 0.0
H2237 H 0.72819 0.08512 0.70435 0.0
H2238 H 0.66116 0.02724 0.78594 0.0
H2239 H 0.64042 0.02714 0.76299 0.0
H2240 H 0.65485 0.05106 0.78631 0.0
H2241 H 0.71153 0.02736 0.70355 0.0
H2242 H 0.71928 0.05122 0.68082 0.0
H2243 H 0.68937 0.02723 0.68289 0.0
C2244 C 0.37567 0.05972 0.25425 0.0
C2245 C 0.39819 0.07517 0.26432 0.0
C2246 C 0.36672 0.03531 0.25338 0.0
C2247 C 0.38064 0.02585 0.26268 0.0
C2248 C 0.40323 0.04126 0.27348 0.0
C2249 C 0.41172 0.06577 0.27429 0.0
C2250 C 0.3424 0.01964 0.24214 0.0
C2251 C 0.41861 0.0319 0.2836 0.0
C2252 C 0.34483 0.96121 0.28118 0.0
C2253 C 0.34612 0.94977 0.25827 0.0
C2254 C 0.35691 0.98586 0.28331 0.0
C2255 C 0.37078 0.99972 0.26202 0.0
C2256 C 0.37299 0.98837 0.23919 0.0
C2257 C 0.36064 0.96351 0.23757 0.0
C2258 C 0.35393 0.99704 0.308 0.0
C2259 C 0.38768 1.00252 0.21608 0.0
H2260 H 0.36509 0.06684 0.24651 0.0
H2261 H 0.42926 0.07761 0.28171 0.0
H2262 H 0.3434 1.00964 0.225 0.0
H2263 H 0.33102 1.00659 0.25713 0.0
H2264 H 0.33385 0.02978 0.23568 0.0
H2265 H 0.43561 0.04609 0.2916 0.0
H2266 H 0.40932 0.01871 0.29932 0.0
H2267 H 0.4223 0.02279 0.26742 0.0
H2268 H 0.33394 0.9509 0.29752 0.0
H2269 H 0.36191 0.95489 0.21989 0.0
H2270 H 0.34404 1.00623 0.30323 0.0
H2271 H 0.37133 1.01044 0.31588 0.0
H2272 H 0.34427 0.98389 0.32368 0.0
H2273 H 0.37933 1.01179 0.20663 0.0
H2274 H 0.38964 0.99128 0.20102 0.0
H2275 H 0.40543 0.01617 0.22286 0.0
C2276 C 0.97115 0.34663 0.21544 0.0
C2277 C 0.95894 0.3378 0.23929 0.0
C2278 C 0.9955 0.36227 0.21487 0.0
C2279 C 1.00836 0.36921 0.23874 0.0
C2280 C 0.9962 0.36057 0.26301 0.0
C2281 C 0.97156 0.34513 0.26303 0.0
C2282 C 1.00745 0.37141 0.1886 0.0
C2283 C 1.00931 0.3674 0.28889 0.0
C2284 C 0.07479 0.39338 0.23377 0.0
C2285 C 0.08362 0.41765 0.23647 0.0
C2286 C 0.05036 0.37736 0.2348 0.0
C2287 C 0.03441 0.38589 0.23806 0.0
C2288 C 0.04334 0.41051 0.2397 0.0
C2289 C 0.06779 0.42601 0.2393 0.0
C2290 C 0.04165 0.35128 0.23331 0.0
C2291 C 0.02709 0.42051 0.24234 0.0
H2292 H 0.96158 0.3414 0.19694 0.0
H2293 H 0.96231 0.33836 0.28148 0.0
H2294 H 1.01661 0.39095 0.18842 0.0
H2295 H 1.02098 0.36621 0.18545 0.0
H2296 H 0.99485 0.36465 0.17183 0.0
H2297 H 0.99748 0.35888 0.30598 0.0
H2298 H 0.02314 0.36235 0.28884 0.0
H2299 H 1.01828 0.38679 0.29155 0.0
H2300 H 0.08703 0.38684 0.23238 0.0
H2301 H 0.07464 0.44477 0.2418 0.0
H2302 H 0.02939 0.34335 0.21643 0.0
H2303 H 0.0317 0.34253 0.25146 0.0
H2304 H 0.05626 0.34745 0.23105 0.0
H2305 H 1.01417 0.41416 0.2259 0.0
H2306 H 0.03677 0.44009 0.24231 0.0
H2307 H 1.01696 0.41431 0.26095 0.0
C2308 C 0.64709 0.68875 0.26944 0.0
C2309 C 0.63919 0.69159 0.24461 0.0
C2310 C 0.65856 0.67569 0.27262 0.0
C2311 C 0.66258 0.66513 0.25042 0.0
C2312 C 0.65389 0.66708 0.22539 0.0
C2313 C 0.64216 0.68018 0.22278 0.0
C2314 C 0.66727 0.67406 0.2997 0.0
C2315 C 0.65778 0.65605 0.2012 0.0
C2316 C 0.71742 0.65919 0.25241 0.0
C2317 C 0.70827 0.63507 0.25722 0.0
C2318 C 0.70277 0.66904 0.25032 0.0
C2319 C 0.67812 0.65448 0.25314 0.0
C2320 C 0.66878 0.63028 0.25938 0.0
C2321 C 0.68398 0.62085 0.26144 0.0
C2322 C 0.71369 0.69498 0.24418 0.0
C2323 C 0.64266 0.61417 0.26282 0.0
H2324 H 0.64454 0.697 0.28668 0.0
H2325 H 0.63598 0.68206 0.20361 0.0
H2326 H 0.66167 0.65548 0.30451 0.0
H2327 H 0.6868 0.68408 0.30002 0.0
H2328 H 0.66075 0.68124 0.31534 0.0
H2329 H 0.64818 0.65722 0.18374 0.0
H2330 H 0.67685 0.66509 0.19654 0.0
H2331 H 0.65203 0.63726 0.20493 0.0
H2332 H 0.73616 0.67029 0.24904 0.0
H2333 H 0.67668 0.60215 0.26476 0.0
H2334 H 0.709 0.70388 0.25968 0.0
H2335 H 0.70667 0.69731 0.22521 0.0
H2336 H 0.73318 0.70392 0.24279 0.0
H2337 H 0.63567 0.62157 0.27764 0.0
H2338 H 0.63827 0.59619 0.26911 0.0
H2339 H 0.63351 0.61279 0.24392 0.0
C2340 C 0.3505 0.22068 0.12742 0.0
C2341 C 0.32852 0.2053 0.1161 0.0
C2342 C 0.36036 0.21293 0.14683 0.0
C2343 C 0.34811 0.18908 0.15494 0.0
C2344 C 0.32577 0.17349 0.1438 0.0
C2345 C 0.31615 0.18184 0.12466 0.0
C2346 C 0.38398 0.23027 0.15851 0.0
C2347 C 0.31225 0.14788 0.1517 0.0
C2348 C 0.38478 0.16512 0.18635 0.0
C2349 C 0.38009 0.1656 0.21324 0.0
C2350 C 0.3742 0.17233 0.16714 0.0
C2351 C 0.3588 0.18053 0.17502 0.0
C2352 C 0.35414 0.18119 0.20217 0.0
C2353 C 0.36472 0.1736 0.2209 0.0
C2354 C 0.37947 0.17112 0.13839 0.0
C2355 C 0.33821 0.19021 0.21149 0.0
H2356 H 0.35997 0.23889 0.12109 0.0
H2357 H 0.2993 0.16985 0.11575 0.0
H2358 H 0.38258 0.23083 0.18027 0.0
H2359 H 0.39693 0.22451 0.15422 0.0
H2360 H 0.39089 0.24836 0.15066 0.0
H2361 H 0.29504 0.13809 0.14137 0.0
H2362 H 0.32279 0.13933 0.14719 0.0
H2363 H 0.30906 0.14638 0.17327 0.0
H2364 H 0.39642 0.15871 0.18031 0.0
H2365 H 0.36128 0.17432 0.24167 0.0
H2366 H 0.38784 0.18899 0.1296 0.0
H2367 H 0.36285 0.16001 0.12744 0.0
H2368 H 0.39135 0.16377 0.13547 0.0
H2369 H 0.34535 0.20873 0.20509 0.0
H2370 H 0.33624 0.18942 0.23328 0.0
H2371 H 0.32052 0.17971 0.20245 0.0
C2372 C 0.88999 0.21654 0.18563 0.0
C2373 C 0.87434 0.22324 0.19589 0.0
C2374 C 0.88244 0.19798 0.16736 0.0
C2375 C 0.85851 0.18547 0.15946 0.0
C2376 C 0.84257 0.19204 0.16994 0.0
C2377 C 0.85072 0.21097 0.18783 0.0
C2378 C 0.90012 0.1919 0.15632 0.0
C2379 C 0.81686 0.17895 0.16239 0.0
C2380 C 0.84239 0.15172 0.09444 0.0
C2381 C 0.83498 0.12865 0.10274 0.0
C2382 C 0.85024 0.17036 0.11263 0.0
C2383 C 0.85029 0.16579 0.13992 0.0
C2384 C 0.84268 0.14247 0.14845 0.0
C2385 C 0.83535 0.12423 0.12973 0.0
C2386 C 0.85862 0.19499 0.10262 0.0
C2387 C 0.84207 0.13674 0.17736 0.0
H2388 H 0.90829 0.22614 0.1916 0.0
H2389 H 0.83851 0.21589 0.19598 0.0
H2390 H 0.89471 0.17334 0.16098 0.0
H2391 H 0.90073 0.19353 0.13452 0.0
H2392 H 0.91811 0.20346 0.16428 0.0
H2393 H 0.80663 0.18583 0.17279 0.0
H2394 H 0.81496 0.18033 0.14084 0.0
H2395 H 0.80909 0.15995 0.16706 0.0
H2396 H 0.84237 0.15524 0.07357 0.0
H2397 H 0.82937 0.10637 0.13623 0.0
H2398 H 0.87704 0.2069 0.10907 0.0
H2399 H 0.84771 0.20194 0.11112 0.0
H2400 H 0.85784 0.19566 0.08078 0.0
H2401 H 0.86002 0.14673 0.18587 0.0
H2402 H 0.83514 0.11764 0.1808 0.0
H2403 H 0.83087 0.14221 0.18818 0.0
C2404 C 0.89097 0.69245 0.10454 0.0
C2405 C 0.89992 0.71668 0.10109 0.0
C2406 C 0.87315 0.67962 0.123 0.0
C2407 C 0.86384 0.69127 0.1381 0.0
C2408 C 0.87236 0.71561 0.13416 0.0
C2409 C 0.89042 0.72805 0.11583 0.0
C2410 C 0.86477 0.65377 0.12686 0.0
C2411 C 0.86264 0.72857 0.14957 0.0
C2412 C 0.80478 0.65367 0.17167 0.0
C2413 C 0.81164 0.65306 0.19772 0.0
C2414 C 0.82154 0.6662 0.15209 0.0
C2415 C 0.84577 0.67816 0.15866 0.0
C2416 C 0.85281 0.67752 0.18492 0.0
C2417 C 0.83564 0.6651 0.20416 0.0
C2418 C 0.81333 0.66675 0.12441 0.0
C2419 C 0.87848 0.68978 0.19265 0.0
H2420 H 0.89849 0.68368 0.09342 0.0
H2421 H 0.89714 0.74672 0.11296 0.0
H2422 H 0.86851 0.6507 0.14736 0.0
H2423 H 0.84544 0.64322 0.12397 0.0
H2424 H 0.87336 0.64721 0.11306 0.0
H2425 H 0.87028 0.74719 0.14317 0.0
H2426 H 0.84323 0.7196 0.14727 0.0
H2427 H 0.86638 0.72837 0.17088 0.0
H2428 H 0.78622 0.64465 0.16672 0.0
H2429 H 0.84101 0.66444 0.22419 0.0
H2430 H 0.82076 0.65915 0.11042 0.0
H2431 H 0.81981 0.68525 0.11832 0.0
H2432 H 0.79384 0.65678 0.12261 0.0
H2433 H 0.88787 0.68288 0.18066 0.0
H2434 H 0.88102 0.68738 0.21384 0.0
H2435 H 0.88682 0.70892 0.18856 0.0
C2436 C 0.19433 0.38884 0.28001 0.0
C2437 C 0.1699 0.37976 0.28005 0.0
C2438 C 0.20438 0.37732 0.29367 0.0
C2439 C 0.18966 0.35642 0.30788 0.0
C2440 C 0.16494 0.34643 0.30652 0.0
C2441 C 0.15541 0.35808 0.29243 0.0
C2442 C 0.2308 0.38822 0.29412 0.0
C2443 C 0.14855 0.32419 0.32133 0.0
C2444 C 0.21011 0.31611 0.33685 0.0
C2445 C 0.21412 0.32351 0.36325 0.0
C2446 C 0.20326 0.32739 0.31819 0.0
C2447 C 0.19986 0.34617 0.32632 0.0
C2448 C 0.20436 0.35398 0.35288 0.0
C2449 C 0.21164 0.34269 0.37095 0.0
C2450 C 0.19921 0.3189 0.28996 0.0
C2451 C 0.20061 0.3737 0.36248 0.0
H2452 H 0.20568 0.40554 0.27051 0.0
H2453 H 0.13649 0.35063 0.29195 0.0
H2454 H 0.23764 0.39631 0.31372 0.0
H2455 H 0.23588 0.37459 0.29097 0.0
H2456 H 0.23943 0.40209 0.27885 0.0
H2457 H 0.12975 0.31786 0.3168 0.0
H2458 H 0.15242 0.30996 0.3165 0.0
H2459 H 0.15131 0.32751 0.34286 0.0
H2460 H 0.21245 0.30154 0.33079 0.0
H2461 H 0.21465 0.34833 0.39137 0.0
H2462 H 0.20894 0.33397 0.27636 0.0
H2463 H 0.18024 0.31076 0.28504 0.0
H2464 H 0.20483 0.3057 0.28631 0.0
H2465 H 0.21094 0.38969 0.35032 0.0
H2466 H 0.20578 0.37828 0.38346 0.0
H2467 H 0.18178 0.36847 0.36034 0.0
C2468 C 0.71885 0.87317 0.3719 0.0
C2469 C 0.70784 0.88348 0.38579 0.0
C2470 C 0.70618 0.85468 0.35398 0.0
C2471 C 0.68208 0.84683 0.34918 0.0
C2472 C 0.67081 0.85703 0.36346 0.0
C2473 C 0.68377 0.87502 0.38189 0.0
C2474 C 0.71875 0.8439 0.33975 0.0
C2475 C 0.64537 0.84969 0.35843 0.0
C2476 C 0.66117 0.82015 0.28109 0.0
C2477 C 0.64874 0.79598 0.28656 0.0
C2478 C 0.67116 0.83687 0.30141 0.0
C2479 C 0.66929 0.82921 0.32787 0.0
C2480 C 0.6563 0.80476 0.33357 0.0
C2481 C 0.64591 0.78844 0.31282 0.0
C2482 C 0.68419 0.86274 0.29448 0.0
C2483 C 0.65427 0.7958 0.36138 0.0
H2484 H 0.73743 0.87965 0.37514 0.0
H2485 H 0.67538 0.88321 0.39249 0.0
H2486 H 0.70863 0.82442 0.34154 0.0
H2487 H 0.72004 0.84819 0.31845 0.0
H2488 H 0.7368 0.85039 0.34755 0.0
H2489 H 0.63886 0.8584 0.37215 0.0
H2490 H 0.64334 0.85429 0.33791 0.0
H2491 H 0.63409 0.83032 0.36042 0.0
H2492 H 0.66312 0.82592 0.26077 0.0
H2493 H 0.63645 0.76971 0.31696 0.0
H2494 H 0.70321 0.87036 0.29882 0.0
H2495 H 0.67771 0.87239 0.30667 0.0
H2496 H 0.68219 0.86581 0.27333 0.0
H2497 H 0.67189 0.79977 0.36847 0.0
H2498 H 0.64207 0.77649 0.36277 0.0
H2499 H 0.64802 0.80487 0.37484 0.0
C2500 C 0.21129 0.85833 0.26733 0.0
C2501 C 0.2327 0.86197 0.27769 0.0
C2502 C 0.19104 0.84952 0.28314 0.0
C2503 C 0.19229 0.84447 0.31005 0.0
C2504 C 0.21398 0.84851 0.32071 0.0
C2505 C 0.23386 0.85709 0.30438 0.0
C2506 C 0.16821 0.84517 0.27093 0.0
C2507 C 0.21615 0.84361 0.34935 0.0
C2508 C 0.14523 0.83862 0.35848 0.0
C2509 C 0.13181 0.81411 0.36153 0.0
C2510 C 0.16474 0.8488 0.34144 0.0
C2511 C 0.17077 0.83408 0.32688 0.0
C2512 C 0.15675 0.8093 0.32923 0.0
C2513 C 0.13755 0.79965 0.34661 0.0
C2514 C 0.17936 0.87529 0.33968 0.0
C2515 C 0.16232 0.79295 0.31381 0.0
H2516 H 0.21025 0.86186 0.24666 0.0
H2517 H 0.25044 0.86023 0.31258 0.0
H2518 H 0.15491 0.82616 0.27215 0.0
H2519 H 0.16115 0.8549 0.28202 0.0
H2520 H 0.17032 0.85065 0.24993 0.0
H2521 H 0.23447 0.84858 0.35484 0.0
H2522 H 0.21032 0.85346 0.36217 0.0
H2523 H 0.20452 0.82459 0.35351 0.0
H2524 H 0.141 0.84985 0.37017 0.0
H2525 H 0.12703 0.7807 0.34867 0.0
H2526 H 0.181 0.881 0.31883 0.0
H2527 H 0.1974 0.88122 0.34708 0.0
H2528 H 0.17173 0.88423 0.3513 0.0
H2529 H 0.16343 0.79702 0.29246 0.0
H2530 H 0.14891 0.77412 0.31673 0.0
H2531 H 0.17972 0.7956 0.31998 0.0
C2532 C 0.70405 0.81217 0.82946 0.0
C2533 C 0.72518 0.82801 0.84207 0.0
C2534 C 0.69006 0.81998 0.817 0.0
C2535 C 0.69755 0.84434 0.81673 0.0
C2536 C 0.71831 0.86031 0.83057 0.0
C2537 C 0.73179 0.85191 0.84325 0.0
C2538 C 0.66787 0.80225 0.80297 0.0
C2539 C 0.72706 0.88643 0.8306 0.0
C2540 C 0.67932 0.86572 0.75631 0.0
C2541 C 0.66091 0.86874 0.76596 0.0
C2542 C 0.69155 0.85825 0.77275 0.0
C2543 C 0.6851 0.85323 0.79959 0.0
C2544 C 0.66643 0.85598 0.80953 0.0
C2545 C 0.65464 0.8638 0.79266 0.0
C2546 C 0.71135 0.8556 0.76126 0.0
C2547 C 0.65884 0.85056 0.83795 0.0
H2548 H 0.69876 0.79364 0.82884 0.0
H2549 H 0.74819 0.86422 0.85282 0.0
H2550 H 0.65296 0.80489 0.80841 0.0
H2551 H 0.67038 0.8048 0.78135 0.0
H2552 H 0.66306 0.78381 0.80762 0.0
H2553 H 0.74187 0.89612 0.84463 0.0
H2554 H 0.73318 0.89357 0.81052 0.0
H2555 H 0.71264 0.88989 0.83579 0.0
H2556 H 0.68412 0.86896 0.73571 0.0
H2557 H 0.6407 0.86629 0.80053 0.0
H2558 H 0.70698 0.83694 0.76252 0.0
H2559 H 0.72774 0.86625 0.77277 0.0
H2560 H 0.71487 0.86118 0.7403 0.0
H2561 H 0.65327 0.8319 0.84229 0.0
H2562 H 0.64408 0.85366 0.8427 0.0
H2563 H 0.67387 0.86162 0.85118 0.0
C2564 C 0.18502 0.87422 0.85822 0.0
C2565 C 0.20712 0.88511 0.87053 0.0
C2566 C 0.17856 0.85559 0.84025 0.0
C2567 C 0.19484 0.84808 0.83392 0.0
C2568 C 0.21728 0.8592 0.84615 0.0
C2569 C 0.22303 0.87738 0.86452 0.0
C2570 C 0.15428 0.84389 0.82812 0.0
C2571 C 0.23536 0.85215 0.83952 0.0
C2572 C 0.17282 0.78712 0.8041 0.0
C2573 C 0.17623 0.79219 0.77709 0.0
C2574 C 0.17857 0.80508 0.8228 0.0
C2575 C 0.1885 0.82876 0.81431 0.0
C2576 C 0.19235 0.83399 0.78704 0.0
C2577 C 0.1859 0.8156 0.76876 0.0
C2578 C 0.17369 0.79867 0.85159 0.0
C2579 C 0.2034 0.85901 0.77719 0.0
H2580 H 0.17265 0.88006 0.86303 0.0
H2581 H 0.24023 0.886 0.87377 0.0
H2582 H 0.15564 0.84611 0.8064 0.0
H2583 H 0.14505 0.82468 0.83215 0.0
H2584 H 0.14342 0.85123 0.83582 0.0
H2585 H 0.25211 0.86275 0.85048 0.0
H2586 H 0.22837 0.83327 0.84417 0.0
H2587 H 0.23916 0.85434 0.81806 0.0
H2588 H 0.16506 0.76898 0.81052 0.0
H2589 H 0.18871 0.81952 0.74789 0.0
H2590 H 0.16169 0.80458 0.85943 0.0
H2591 H 0.19027 0.80786 0.8631 0.0
H2592 H 0.16558 0.7794 0.85492 0.0
H2593 H 0.19218 0.86663 0.78249 0.0
H2594 H 0.20592 0.86019 0.75547 0.0
H2595 H 0.22076 0.87003 0.7868 0.0
C2596 C 0.15502 0.34644 0.86564 0.0
C2597 C 0.14379 0.32177 0.86747 0.0
C2598 C 0.17477 0.35912 0.84943 0.0
C2599 C 0.18349 0.34689 0.83443 0.0
C2600 C 0.17162 0.32196 0.8352 0.0
C2601 C 0.15201 0.30972 0.85177 0.0
C2602 C 0.18692 0.3857 0.84925 0.0
C2603 C 0.18028 0.30823 0.81944 0.0
C2604 C 0.22942 0.37994 0.78108 0.0
C2605 C 0.25028 0.3852 0.7943 0.0
C2606 C 0.20744 0.36738 0.79376 0.0
C2607 C 0.20642 0.36022 0.82034 0.0
C2608 C 0.22749 0.36587 0.83383 0.0
C2609 C 0.24907 0.37821 0.82066 0.0
C2610 C 0.18534 0.36155 0.77869 0.0
C2611 C 0.2273 0.35894 0.86228 0.0
H2612 H 0.14856 0.35594 0.87717 0.0
H2613 H 0.14369 0.29074 0.85307 0.0
H2614 H 0.20456 0.39309 0.85848 0.0
H2615 H 0.1896 0.39234 0.82872 0.0
H2616 H 0.17681 0.39245 0.86016 0.0
H2617 H 0.16767 0.28896 0.81984 0.0
H2618 H 0.18334 0.31421 0.79863 0.0
H2619 H 0.19735 0.31145 0.82758 0.0
H2620 H 0.2303 0.38528 0.76072 0.0
H2621 H 0.26513 0.38271 0.83123 0.0
H2622 H 0.17547 0.36879 0.78912 0.0
H2623 H 0.17368 0.34216 0.77766 0.0
H2624 H 0.18914 0.36867 0.7583 0.0
H2625 H 0.21901 0.36668 0.87479 0.0
H2626 H 0.24527 0.36485 0.86997 0.0
H2627 H 0.21665 0.33951 0.86431 0.0
C2628 C 0.87281 0.64718 0.68148 0.0
C2629 C 0.87246 0.65301 0.70802 0.0
C2630 C 0.86665 0.65785 0.66135 0.0
C2631 C 0.85956 0.6744 0.668 0.0
C2632 C 0.85873 0.67996 0.69483 0.0
C2633 C 0.8654 0.66936 0.71448 0.0
C2634 C 0.86814 0.65174 0.63297 0.0
C2635 C 0.85083 0.69715 0.70281 0.0
C2636 C 0.8639 0.71975 0.61813 0.0
C2637 C 0.84066 0.70953 0.60903 0.0
C2638 C 0.87044 0.70822 0.63679 0.0
C2639 C 0.85319 0.68613 0.64696 0.0
C2640 C 0.82971 0.67568 0.63771 0.0
C2641 C 0.82378 0.68742 0.61869 0.0
C2642 C 0.89575 0.71976 0.64578 0.0
C2643 C 0.81071 0.65237 0.6484 0.0
H2644 H 0.87851 0.63473 0.67646 0.0
H2645 H 0.86484 0.67364 0.73501 0.0
H2646 H 0.85075 0.64473 0.62324 0.0
H2647 H 0.88073 0.66786 0.62212 0.0
H2648 H 0.8739 0.63848 0.63111 0.0
H2649 H 0.85042 0.69895 0.72456 0.0
H2650 H 0.86286 0.71476 0.69435 0.0
H2651 H 0.83299 0.69131 0.69483 0.0
H2652 H 0.87702 0.73671 0.61044 0.0
H2653 H 0.80574 0.67962 0.6119 0.0
H2654 H 0.90265 0.70751 0.64297 0.0
H2655 H 0.8969 0.72387 0.66714 0.0
H2656 H 0.90723 0.73633 0.63492 0.0
H2657 H 0.8157 0.63864 0.64554 0.0
H2658 H 0.79341 0.64639 0.63876 0.0
H2659 H 0.80876 0.65393 0.66992 0.0
C2660 C 0.38062 0.20665 0.69732 0.0
C2661 C 0.36908 0.21818 0.70723 0.0
C2662 C 0.36964 0.18825 0.67888 0.0
C2663 C 0.34667 0.18143 0.66978 0.0
C2664 C 0.3348 0.1928 0.68001 0.0
C2665 C 0.34608 0.2109 0.69877 0.0
C2666 C 0.38278 0.17636 0.66882 0.0
C2667 C 0.31047 0.18632 0.67056 0.0
C2668 C 0.33058 0.1528 0.60196 0.0
C2669 C 0.3165 0.12887 0.60819 0.0
C2670 C 0.34005 0.17007 0.62179 0.0
C2671 C 0.33562 0.16326 0.6486 0.0
C2672 C 0.3212 0.13912 0.65504 0.0
C2673 C 0.31166 0.12223 0.63473 0.0
C2674 C 0.35498 0.19563 0.61402 0.0
C2675 C 0.31629 0.1311 0.68337 0.0
H2676 H 0.39824 0.21197 0.70412 0.0
H2677 H 0.33721 0.21992 0.70622 0.0
H2678 H 0.37196 0.15701 0.67149 0.0
H2679 H 0.38614 0.17969 0.64739 0.0
H2680 H 0.3999 0.18273 0.67904 0.0
H2681 H 0.30327 0.19618 0.6812 0.0
H2682 H 0.31098 0.19011 0.64917 0.0
H2683 H 0.29823 0.16717 0.67317 0.0
H2684 H 0.33405 0.15804 0.58147 0.0
H2685 H 0.30094 0.10374 0.63961 0.0
H2686 H 0.37313 0.20275 0.62173 0.0
H2687 H 0.34778 0.2062 0.62288 0.0
H2688 H 0.3559 0.19809 0.5923 0.0
H2689 H 0.33304 0.13566 0.69352 0.0
H2690 H 0.30416 0.1118 0.68507 0.0
H2691 H 0.30847 0.14037 0.69392 0.0
C2692 C 0.89496 0.18249 0.62196 0.0
C2693 C 0.90696 0.20488 0.61042 0.0
C2694 C 0.87732 0.177 0.64087 0.0
C2695 C 0.87184 0.19447 0.64872 0.0
C2696 C 0.88415 0.21722 0.63738 0.0
C2697 C 0.90142 0.22208 0.61822 0.0
C2698 C 0.86435 0.15244 0.65219 0.0
C2699 C 0.8791 0.23644 0.64552 0.0
C2700 C 0.81204 0.17553 0.67918 0.0
C2701 C 0.81734 0.17818 0.70619 0.0
C2702 C 0.82957 0.18062 0.66028 0.0
C2703 C 0.85305 0.18889 0.66858 0.0
C2704 C 0.85854 0.19186 0.69583 0.0
C2705 C 0.84058 0.18627 0.71432 0.0
C2706 C 0.82291 0.17688 0.63144 0.0
C2707 C 0.88342 0.201 0.70546 0.0
H2708 H 0.89903 0.16909 0.61574 0.0
H2709 H 0.9109 0.2395 0.60958 0.0
H2710 H 0.86651 0.15316 0.67392 0.0
H2711 H 0.84524 0.14432 0.64804 0.0
H2712 H 0.87068 0.14087 0.64395 0.0
H2713 H 0.89065 0.25336 0.6353 0.0
H2714 H 0.8605 0.231 0.64108 0.0
H2715 H 0.88158 0.23941 0.66711 0.0
H2716 H 0.79403 0.16893 0.67287 0.0
H2717 H 0.84472 0.18851 0.73518 0.0
H2718 H 0.82753 0.16416 0.62276 0.0
H2719 H 0.83299 0.19369 0.62056 0.0
H2720 H 0.80382 0.17011 0.62827 0.0
H2721 H 0.88981 0.18898 0.69907 0.0
H2722 H 0.88484 0.20271 0.72727 0.0
H2723 H 0.89528 0.2185 0.69662 0.0
C2724 C 0.98484 0.50769 0.45753 0.0
C2725 C 0.99529 0.53128 0.44958 0.0
C2726 C 0.99804 0.49921 0.47061 0.0
C2727 C 1.02232 0.51463 0.47553 0.0
C2728 C 0.03304 0.53832 0.46701 0.0
C2729 C 1.01937 0.54637 0.45428 0.0
C2730 C 0.98595 0.47386 0.47951 0.0
C2731 C 0.05894 0.55521 0.47138 0.0
C2732 C 0.0536 0.49918 0.52867 0.0
C2733 C 0.06391 0.48878 0.51364 0.0
C2734 C 0.03985 0.50756 0.51659 0.0
C2735 C 0.03672 0.50581 0.48882 0.0
C2736 C 0.04757 0.4958 0.47357 0.0
C2737 C 0.06092 0.48735 0.48616 0.0
C2738 C 0.02842 0.51798 0.53353 0.0
C2739 C 0.04511 0.49402 0.44391 0.0
H2740 H 0.96617 0.49608 0.45432 0.0
H2741 H 0.0275 0.56456 0.44799 0.0
H2742 H 0.99437 0.4646 0.47017 0.0
H2743 H 0.9879 0.47308 0.50116 0.0
H2744 H 0.96691 0.46424 0.47451 0.0
H2745 H 0.0646 0.57304 0.4634 0.0
H2746 H 0.06303 0.55684 0.49277 0.0
H2747 H 0.0695 0.54832 0.46181 0.0
H2748 H 0.05583 0.50021 0.54989 0.0
H2749 H 0.06926 0.47977 0.47441 0.0
H2750 H 1.00904 0.50783 0.53082 0.0
H2751 H 0.03444 0.53637 0.52736 0.0
H2752 H 0.03249 0.51799 0.5548 0.0
H2753 H 0.02629 0.48318 0.43837 0.0
H2754 H 0.05496 0.48605 0.4349 0.0
H2755 H 0.05167 0.51178 0.43532 0.0
C2756 C 0.55551 0.55899 0.5328 0.0
C2757 C 0.5411 0.5681 0.54039 0.0
C2758 C 0.54766 0.5405 0.51443 0.0
C2759 C 0.52461 0.53052 0.50392 0.0
C2760 C 0.50981 0.53938 0.51196 0.0
C2761 C 0.51836 0.55827 0.52987 0.0
C2762 C 0.56416 0.53192 0.50594 0.0
C2763 C 0.48496 0.52889 0.50168 0.0
C2764 C 0.51093 0.49797 0.43838 0.0
C2765 C 0.50072 0.47446 0.44654 0.0
C2766 C 0.51893 0.51639 0.45685 0.0
C2767 C 0.51615 0.51111 0.48413 0.0
C2768 C 0.50551 0.48733 0.49246 0.0
C2769 C 0.49817 0.46931 0.47354 0.0
C2770 C 0.53065 0.54151 0.44716 0.0
C2771 C 0.50178 0.48094 0.52133 0.0
H2772 H 0.57317 0.56677 0.54078 0.0
H2773 H 0.50714 0.56517 0.53602 0.0
H2774 H 0.55633 0.5129 0.51041 0.0
H2775 H 0.56687 0.53396 0.48429 0.0
H2776 H 0.58157 0.54167 0.51585 0.0
H2777 H 0.47541 0.53715 0.51073 0.0
H2778 H 0.48519 0.53113 0.47999 0.0
H2779 H 0.47503 0.50968 0.50572 0.0
H2780 H 0.51318 0.50195 0.4175 0.0
H2781 H 0.49009 0.4511 0.4798 0.0
H2782 H 0.54871 0.55164 0.45542 0.0
H2783 H 0.52076 0.55014 0.4541 0.0
H2784 H 0.53177 0.54264 0.4253 0.0
H2785 H 0.51896 0.48902 0.53171 0.0
H2786 H 0.49257 0.46158 0.5245 0.0
H2787 H 0.49128 0.48807 0.53054 0.0
C2788 C 0.5576 0.05477 0.46531 0.0
C2789 C 0.56983 0.04412 0.45498 0.0
C2790 C 0.53783 0.04204 0.48161 0.0
C2791 C 0.53027 0.01818 0.48778 0.0
C2792 C 0.54375 1.00805 0.47907 0.0
C2793 C 0.56328 0.02111 0.46277 0.0
C2794 C 0.52403 0.05355 0.49056 0.0
C2795 C 0.53654 0.98279 0.4853 0.0
C2796 C 0.48047 0.98358 0.53685 0.0
C2797 C 0.46107 0.97198 0.51985 0.0
C2798 C 0.50316 0.99895 0.52689 0.0
C2799 C 0.50647 1.00273 0.49931 0.0
C2800 C 0.48695 0.99087 0.48215 0.0
C2801 C 0.46465 0.97566 0.49258 0.0
C2802 C 0.52355 1.0112 0.54581 0.0
C2803 C 0.48962 0.99407 0.45259 0.0
H2804 H 0.56261 0.07255 0.45936 0.0
H2805 H 0.57304 1.013 0.45529 0.0
H2806 H 0.50743 0.04625 0.47905 0.0
H2807 H 0.51919 0.04972 0.51166 0.0
H2808 H 0.53403 0.07296 0.48774 0.0
H2809 H 0.5506 0.97866 0.48038 0.0
H2810 H 0.53207 0.97899 0.50647 0.0
H2811 H 0.52057 0.97082 0.47376 0.0
H2812 H 0.47784 0.98094 0.55793 0.0
H2813 H 0.44996 0.96637 0.47919 0.0
H2814 H 0.53138 0.03057 0.54408 0.0
H2815 H 0.53752 1.00703 0.54073 0.0
H2816 H 0.51818 1.00602 0.56661 0.0
H2817 H 0.49744 1.01299 0.44754 0.0
H2818 H 0.47256 0.98403 0.44203 0.0
H2819 H 0.50174 0.98815 0.4452 0.0
C2820 C 0.54905 1.0108 0.05423 0.0
C2821 C 0.5336 0.98661 0.05757 0.0
C2822 C 0.54448 0.02375 0.03542 0.0
C2823 C 0.52371 1.0123 0.01999 0.0
C2824 C 0.50765 0.98802 0.02397 0.0
C2825 C 0.51294 0.97541 0.0425 0.0
C2826 C 0.56229 0.04947 0.03142 0.0
C2827 C 0.48509 0.97526 0.00831 0.0
C2828 C 0.50322 0.04987 0.98395 0.0
C2829 C 0.51026 0.04918 0.95804 0.0
C2830 C 0.5074 0.0379 0.00436 0.0
C2831 C 0.51936 0.02539 -0.00124 0.0
C2832 C 0.52696 0.02512 0.97269 0.0
C2833 C 0.52209 0.0368 0.95261 0.0
C2834 C 0.4986 0.03823 0.03176 0.0
C2835 C 0.54021 1.01245 0.96597 0.0
H2836 H 0.56518 0.0194 0.06563 0.0
H2837 H 0.50093 0.95675 0.04526 0.0
H2838 H 0.56948 0.05218 0.01112 0.0
H2839 H 0.55376 0.06035 0.03352 0.0
H2840 H 0.57714 0.05594 0.04565 0.0
H2841 H 0.47369 0.95685 0.01514 0.0
H2842 H 0.47508 0.98476 0.00983 0.0
H2843 H 0.48918 0.97487 0.98717 0.0
H2844 H 0.49383 0.05921 0.98807 0.0
H2845 H 0.52773 0.03648 0.93262 0.0
H2846 H 0.51345 0.0455 0.04599 0.0
H2847 H 0.48599 0.01997 0.03808 0.0
H2848 H 0.48974 0.0489 0.03289 0.0
H2849 H 0.5561 0.01905 0.97862 0.0
H2850 H 0.54575 1.01476 0.94499 0.0
H2851 H 0.52901 0.99334 0.96996 0.0
C2852 C 1.02145 0.47705 0.96362 0.0
C2853 C 0.99944 0.47093 0.9528 0.0
C2854 C 0.03275 0.49598 0.98133 0.0
C2855 C 1.02199 0.50941 0.98796 0.0
C2856 C 0.99981 0.50339 0.97693 0.0
C2857 C 0.98869 0.48404 0.95968 0.0
C2858 C 0.05612 0.50149 -0.00692 0.0
C2859 C 0.98795 0.51751 0.98314 0.0
C2860 C 0.03971 0.54522 0.05138 0.0
C2861 C 0.05591 0.5678 0.04225 0.0
C2862 C 0.02877 0.52602 0.03398 0.0
C2863 C 0.03381 0.52958 0.00668 0.0
C2864 C 0.05015 0.55239 -0.00266 0.0
C2865 C 0.0612 0.57119 0.0153 0.0
C2866 C 1.01188 0.5019 0.04482 0.0
C2867 C 0.0557 0.557 0.96834 0.0
H2868 H 0.02964 0.46676 0.95846 0.0
H2869 H 0.97182 0.47949 0.95104 0.0
H2870 H 0.06982 0.51967 0.9878 0.0
H2871 H 0.05488 0.50066 0.01491 0.0
H2872 H 0.06193 0.48909 0.98622 0.0
H2873 H 0.971 0.51087 0.97245 0.0
H2874 H 0.98454 0.51695 0.00462 0.0
H2875 H 0.99972 0.53625 0.97779 0.0
H2876 H 0.03585 0.54255 0.07227 0.0
H2877 H 0.07357 0.5887 0.00825 0.0
H2878 H 1.01779 0.48928 0.03931 0.0
H2879 H 0.99416 0.49529 0.0361 0.0
H2880 H 1.01036 0.502 0.06663 0.0
H2881 H 0.06295 0.546 0.96085 0.0
H2882 H 0.06858 0.57579 0.96425 0.0
H2883 H 0.03932 0.55195 0.9571 0.0
C2884 C 0.48124 0.5204 0.02527 0.0
C2885 C 0.47209 0.4977 0.03583 0.0
C2886 C 0.49866 0.52865 0.00554 0.0
C2887 C 0.50695 0.51377 -0.00404 0.0
C2888 C 0.49751 0.49074 0.00631 0.0
C2889 C 0.4803 0.48305 0.02611 0.0
C2890 C 0.50838 0.55336 -0.00484 0.0
C2891 C 0.5056 0.47417 -0.00352 0.0
C2892 C 0.53654 0.52502 0.92874 0.0
C2893 C 0.5604 0.53515 0.93563 0.0
C2894 C 0.51904 0.51841 0.94811 0.0
C2895 C 0.52548 0.52212 0.97511 0.0
C2896 C 0.54957 0.53276 0.98218 0.0
C2897 C 0.56669 0.53908 0.9624 0.0
C2898 C 0.49357 0.50692 0.93971 0.0
C2899 C 0.55725 0.53718 0.01069 0.0
H2900 H 0.47515 0.53188 0.03284 0.0
H2901 H 0.47304 0.46536 0.03382 0.0
H2902 H 0.52764 0.56367 -0.00128 0.0
H2903 H 0.50562 0.5529 0.97353 0.0
H2904 H 0.50002 0.56269 0.00455 0.0
H2905 H 0.49631 0.45673 0.00635 0.0
H2906 H 0.50258 0.47146 0.97491 0.0
H2907 H 0.52478 0.48201 -0.0001 0.0
H2908 H 0.53147 0.52167 0.90818 0.0
H2909 H 0.58508 0.54723 0.96789 0.0
H2910 H 0.48528 0.5167 0.948 0.0
H2911 H 0.48377 0.4887 0.94756 0.0
H2912 H 0.49153 0.50616 0.91792 0.0
H2913 H 0.55052 0.54787 0.02033 0.0
H2914 H 0.5767 0.54648 0.01287 0.0
H2915 H 0.54967 0.52019 0.02141 0.0
C2916 C 0.25767 0.06502 0.96146 0.0
C2917 C 0.24304 0.05789 0.93917 0.0
C2918 C 0.26581 0.08749 0.97275 0.0
C2919 C 0.25914 0.10313 0.96148 0.0
C2920 C 0.24613 0.09672 0.93766 0.0
C2921 C 0.23831 0.07427 0.92682 0.0
C2922 C 0.27993 0.0937 -0.00206 0.0
C2923 C 0.23864 0.11271 0.9248 0.0
C2924 C 0.24554 0.13888 0.00989 0.0
C2925 C 0.26507 0.16162 0.00753 0.0
C2926 C 0.24349 0.12001 -0.00513 0.0
C2927 C 0.26158 0.1237 0.97701 0.0
C2928 C 0.28122 0.14675 0.97402 0.0
C2929 C 0.28268 0.16556 0.98925 0.0
C2930 C 0.22196 0.09597 -0.00157 0.0
C2931 C 0.30093 0.15136 0.95534 0.0
H2932 H 0.26151 0.05255 0.97103 0.0
H2933 H 0.22756 0.06913 0.90916 0.0
H2934 H 0.29468 0.11215 -0.00266 0.0
H2935 H 0.26848 0.09222 0.01478 0.0
H2936 H 0.28714 0.0818 0.00162 0.0
H2937 H 0.23199 0.10694 0.90442 0.0
H2938 H 0.22439 0.11268 0.93661 0.0
H2939 H 0.25347 0.13111 0.92414 0.0
H2940 H 0.23174 0.13574 0.02381 0.0
H2941 H 0.29791 0.18305 0.98758 0.0
H2942 H 0.22726 0.08325 0.00538 0.0
H2943 H 0.21275 0.08938 0.97928 0.0
H2944 H 0.20931 0.09619 0.01284 0.0
H2945 H 0.30998 0.14186 0.96226 0.0
H2946 H 0.31409 0.17042 0.95383 0.0
H2947 H 0.29384 0.14451 0.93539 0.0
C2948 C 0.87142 0.10343 0.98724 0.0
C2949 C 0.87548 0.09173 0.00795 0.0
C2950 C 0.89041 0.12083 0.9724 0.0
C2951 C 0.91382 0.1265 0.97848 0.0
C2952 C 0.91771 0.114 -0.00125 0.0
C2953 C 0.8986 0.09689 0.0131 0.0
C2954 C 0.88552 0.13366 0.95086 0.0
C2955 C 0.94222 0.11908 0.00581 0.0
C2956 C 0.96696 0.15515 0.93365 0.0
C2957 C 0.98035 0.17744 0.94535 0.0
C2958 C 0.94423 0.13909 0.94262 0.0
C2959 C 0.93462 0.14533 0.96406 0.0
C2960 C 0.94732 0.1685 0.97458 0.0
C2961 C 0.97002 0.18434 0.965 0.0
C2962 C 0.93133 0.11479 0.9305 0.0
C2963 C 0.93775 0.17595 -0.00261 0.0
H2964 H 0.85363 0.09969 0.98335 0.0
H2965 H 0.90187 0.08778 0.02894 0.0
H2966 H 0.89259 0.15232 0.95672 0.0
H2967 H 0.89457 0.13363 0.9324 0.0
H2968 H 0.86639 0.12569 0.9468 0.0
H2969 H 0.94218 0.10762 0.02196 0.0
H2970 H 0.9508 0.11647 0.98832 0.0
H2971 H 0.95313 0.13773 0.0121 0.0
H2972 H 0.97467 0.14993 0.91801 0.0
H2973 H 0.98026 0.20156 0.97404 0.0
H2974 H 0.91252 0.10917 0.92725 0.0
H2975 H 0.93204 0.10196 0.94419 0.0
H2976 H 0.9392 0.11399 0.91141 0.0
H2977 H 0.91898 0.17044 -0.00594 0.0
H2978 H 0.94782 0.19532 0.00061 0.0
H2979 H 0.93875 0.16717 0.01565 0.0
C2980 C 0.95408 0.81417 0.98717 0.0
C2981 C 0.95061 0.79508 0.00278 0.0
C2982 C 0.93505 0.8145 0.97478 0.0
C2983 C 0.91183 0.79563 0.97888 0.0
C2984 C 0.90847 0.77551 -0.00701 0.0
C2985 C 0.92795 0.77541 0.00461 0.0
C2986 C 0.93964 0.83606 0.95935 0.0
C2987 C 0.88412 0.75511 -0.00178 0.0
C2988 C 0.86711 0.81645 0.98238 0.0
C2989 C 0.85631 0.81005 0.95758 0.0
C2990 C 0.88424 0.81071 0.98999 0.0
C2991 C 0.89129 0.79876 0.97206 0.0
C2992 C 0.87984 0.79152 0.94726 0.0
C2993 C 0.86232 0.79709 0.9404 0.0
C2994 C 0.89549 0.81833 0.01687 0.0
C2995 C 0.887 0.77912 0.92739 0.0
H2996 H 0.9715 0.8296 0.98619 0.0
H2997 H 0.92508 0.76093 0.01731 0.0
H2998 H 0.92916 0.83095 0.94087 0.0
H2999 H 0.9342 0.84677 0.97123 0.0
H3000 H 0.95855 0.84724 0.9543 0.0
H3001 H 0.88462 0.73935 0.00539 0.0
H3002 H 0.87548 0.76035 0.01348 0.0
H3003 H 0.87308 0.75029 0.98019 0.0
H3004 H 0.86247 0.8265 -0.0044 0.0
H3005 H 0.85428 0.79249 0.92103 0.0
H3006 H 0.91422 0.83218 0.01467 0.0
H3007 H 0.89512 0.80326 0.02729 0.0
H3008 H 0.88655 0.82545 0.02933 0.0
H3009 H 0.90487 0.79162 0.9199 0.0
H3010 H 0.87469 0.77228 0.91037 0.0
H3011 H 0.88786 0.76427 0.93674 0.0
C3012 C 0.16319 0.26618 0.46049 0.0
C3013 C 0.17538 0.25418 0.466 0.0
C3014 C 0.14301 0.2616 0.47468 0.0
C3015 C 0.13482 0.24459 0.49505 0.0
C3016 C 0.14864 0.2344 0.50266 0.0
C3017 C 0.16877 0.23921 0.48787 0.0
C3018 C 0.12899 0.27289 0.46566 0.0
C3019 C 0.14089 0.21665 0.52468 0.0
C3020 C 0.08038 0.23583 0.53243 0.0
C3021 C 0.06234 0.21651 0.51894 0.0
C3022 C 0.1042 0.24474 0.52563 0.0
C3023 C 0.11001 0.23442 0.50446 0.0
C3024 C 0.09175 0.21499 0.49075 0.0
C3025 C 0.06826 0.20619 0.49832 0.0
C3026 C 0.12312 0.26512 0.54107 0.0
C3027 C 0.09695 0.2037 0.46767 0.0
H3028 H 0.16824 0.27766 0.44343 0.0
H3029 H 0.17796 0.22964 0.49192 0.0
H3030 H 0.11327 0.25973 0.45458 0.0
H3031 H 0.1227 0.2788 0.48273 0.0
H3032 H 0.13943 0.28824 0.45258 0.0
H3033 H 0.15559 0.21427 0.53184 0.0
H3034 H 0.13382 0.22208 0.54146 0.0
H3035 H 0.12662 0.19937 0.51745 0.0
H3036 H 0.07585 0.2436 0.54864 0.0
H3037 H 0.05434 0.19138 0.48777 0.0
H3038 H 0.13301 0.2805 0.52794 0.0
H3039 H 0.13591 0.26028 0.54901 0.0
H3040 H 0.1158 0.27048 0.55772 0.0
H3041 H 0.10599 0.21694 0.45191 0.0
H3042 H 0.08076 0.18867 0.45922 0.0
H3043 H 0.10895 0.19725 0.47389 0.0
C3044 C 0.81827 0.93461 0.46753 0.0
C3045 C 0.7986 0.93747 0.47067 0.0
C3046 C 0.82081 0.91786 0.48205 0.0
C3047 C 0.80329 0.90352 0.50048 0.0
C3048 C 0.78398 0.9072 0.50492 0.0
C3049 C 0.78181 0.92416 0.48987 0.0
C3050 C 0.84182 0.91482 0.47672 0.0
C3051 C 0.76512 0.89253 0.52466 0.0
C3052 C 0.80361 0.84629 0.5114 0.0
C3053 C 0.81942 0.85254 0.53248 0.0
C3054 C 0.79658 0.86206 0.50195 0.0
C3055 C 0.80534 0.88442 0.51419 0.0
C3056 C 0.81959 0.88982 0.53699 0.0
C3057 C 0.82663 0.87392 0.54568 0.0
C3058 C 0.78141 0.85558 0.47756 0.0
C3059 C 0.82892 0.91314 0.55104 0.0
H3060 H 0.83137 0.94494 0.4528 0.0
H3061 H 0.76643 0.9261 0.49216 0.0
H3062 H 0.85167 0.91692 0.49526 0.0
H3063 H 0.8358 0.8968 0.46912 0.0
H3064 H 0.8541 0.92773 0.46212 0.0
H3065 H 0.75324 0.89973 0.52856 0.0
H3066 H 0.75438 0.8743 0.51701 0.0
H3067 H 0.77309 0.89148 0.54355 0.0
H3068 H 0.79804 0.82978 0.5012 0.0
H3069 H 0.83853 0.87858 0.56232 0.0
H3070 H 0.79227 0.86612 0.46064 0.0
H3071 H 0.7671 0.85977 0.48021 0.0
H3072 H 0.77347 0.8366 0.47254 0.0
H3073 H 0.84319 0.92722 0.53915 0.0
H3074 H 0.83613 0.91295 0.57082 0.0
H3075 H 0.81489 0.91776 0.55335 0.0
C3076 C 0.10978 0.85451 0.49621 0.0
C3077 C 0.11595 0.84686 0.47336 0.0
C3078 C 0.12617 0.87566 0.50876 0.0
C3079 C 0.14912 0.88933 0.49807 0.0
C3080 C 0.15609 0.88004 0.47695 0.0
C3081 C 0.13937 0.859 0.46476 0.0
C3082 C 0.11803 0.88469 0.53145 0.0
C3083 C 0.18033 0.89371 0.46498 0.0
C3084 C 0.17365 0.95551 0.49557 0.0
C3085 C 0.19089 0.96399 0.51539 0.0
C3086 C 0.16002 0.93137 0.49002 0.0
C3087 C 0.16361 0.915 0.50462 0.0
C3088 C 0.18125 0.92338 0.52444 0.0
C3089 C 0.19474 0.94781 0.52957 0.0
C3090 C 0.14173 0.92343 0.46839 0.0
C3091 C 0.18562 0.90655 0.54046 0.0
H3092 H 0.09158 0.84539 0.5026 0.0
H3093 H 0.14407 0.85322 0.44687 0.0
H3094 H 0.13203 0.89312 0.54661 0.0
H3095 H 0.11399 0.89823 0.5241 0.0
H3096 H 0.10192 0.87035 0.54079 0.0
H3097 H 0.18448 0.88231 0.45248 0.0
H3098 H 0.18124 0.90802 0.45245 0.0
H3099 H 0.194 0.902 0.4805 0.0
H3100 H 0.17086 0.96788 0.48418 0.0
H3101 H 0.20788 0.95419 0.54507 0.0
H3102 H 0.12407 0.91102 0.47646 0.0
H3103 H 0.14562 0.91392 0.45287 0.0
H3104 H 0.14101 0.9384 0.45907 0.0
H3105 H 0.16982 0.89513 0.55244 0.0
H3106 H 0.20097 0.91589 0.55389 0.0
H3107 H 0.18869 0.89482 0.52727 0.0
C3108 C 0.82443 0.96039 -0.00128 0.0
C3109 C 0.80993 0.96637 0.0131 0.0
C3110 C 0.81547 0.93796 0.98728 0.0
C3111 C 0.79144 0.92075 -0.00923 0.0
C3112 C 0.77674 0.92659 0.00559 0.0
C3113 C 0.7861 0.94943 0.0163 0.0
C3114 C 0.83174 0.93284 0.9711 0.0
C3115 C 0.75122 0.90867 0.01032 0.0
C3116 C 0.77042 0.87549 0.93596 0.0
C3117 C 0.77561 0.85872 0.94623 0.0
C3118 C 0.77346 0.89477 0.95108 0.0
C3119 C 0.78178 0.89733 0.97732 0.0
C3120 C 0.78446 0.879 0.98873 0.0
C3121 C 0.7815 0.85992 0.97295 0.0
C3122 C 0.77046 0.91374 0.93784 0.0
C3123 C 0.79267 0.88066 0.01684 0.0
H3124 H 0.84282 0.97346 -0.00387 0.0
H3125 H 0.77495 0.9539 0.02781 0.0
H3126 H 0.83251 0.91764 0.97957 0.0
H3127 H 0.82487 0.92798 0.95068 0.0
H3128 H 0.84991 0.94814 0.97021 0.0
H3129 H 0.74227 0.91575 0.02283 0.0
H3130 H 0.7417 0.90277 -0.00874 0.0
H3131 H 0.74988 0.89288 0.02005 0.0
H3132 H 0.76612 0.87477 0.9152 0.0
H3133 H 0.78597 0.84727 0.98084 0.0
H3134 H 0.78806 0.92914 0.9337 0.0
H3135 H 0.76102 0.91986 0.95087 0.0
H3136 H 0.76068 0.90758 0.91891 0.0
H3137 H 0.81189 0.89311 0.01792 0.0
H3138 H 0.78918 0.86329 0.02437 0.0
H3139 H 0.78388 0.88752 0.02991 0.0
C3140 C 0.07982 0.84857 0.01495 0.0
C3141 C 0.07483 0.85228 0.04077 0.0
C3142 C 0.10207 0.86338 0.00375 0.0
C3143 C 0.11978 0.88212 0.01888 0.0
C3144 C 0.11543 0.88447 0.04571 0.0
C3145 C 0.09297 0.86966 0.05625 0.0
C3146 C 0.10593 0.86019 0.97506 0.0
C3147 C 0.13388 0.90377 0.06277 0.0
C3148 C 0.17999 0.91732 0.98592 0.0
C3149 C 0.17749 0.93504 0.97349 0.0
C3150 C 0.16183 0.90047 0.00202 0.0
C3151 C 0.14086 0.90146 0.00547 0.0
C3152 C 0.1392 0.92041 -0.00559 0.0
C3153 C 0.1575 0.93688 0.97858 0.0
C3154 C 0.16446 0.88078 0.01378 0.0
C3155 C 0.11737 0.92244 -0.0023 0.0
H3156 H 0.06584 0.83517 0.00297 0.0
H3157 H 0.08926 0.87226 0.0764 0.0
H3158 H 0.10647 0.87478 0.9634 0.0
H3159 H 0.12306 0.86091 0.97237 0.0
H3160 H 0.09172 0.84322 0.96701 0.0
H3161 H 0.12938 0.90064 0.08405 0.0
H3162 H 0.15134 0.90534 0.05964 0.0
H3163 H 0.13541 0.92088 0.05727 0.0
H3164 H 0.19523 0.91559 0.98155 0.0
H3165 H 0.15553 0.95051 0.96877 0.0
H3166 H 0.15379 0.86442 0.00222 0.0
H3167 H 0.15789 0.87721 0.03437 0.0
H3168 H 0.18306 0.88486 0.01358 0.0
H3169 H 0.10222 0.90725 0.98796 0.0
H3170 H 0.11945 0.93894 0.98905 0.0
H3171 H 0.113 0.92194 0.01889 0.0
C3172 C 0.18399 0.22206 -0.00905 0.0
C3173 C 0.19619 0.22692 0.01496 0.0
C3174 C 0.16781 0.22967 0.98596 0.0
C3175 C 0.16352 0.24256 0.00548 0.0
C3176 C 0.1763 0.24822 0.02954 0.0
C3177 C 0.19257 0.24039 0.03397 0.0
C3178 C 0.15496 0.22344 0.95983 0.0
C3179 C 0.17229 0.26191 0.05084 0.0
C3180 C 0.13312 0.27222 0.97311 0.0
C3181 C 0.1095 0.25447 0.97507 0.0
C3182 C 0.15105 0.26997 0.98568 0.0
C3183 C 0.14516 0.24934 0.00031 0.0
C3184 C 0.1211 0.23274 0.00483 0.0
C3185 C 0.10354 0.23544 -0.00803 0.0
C3186 C 0.17635 0.28828 0.98046 0.0
C3187 C 0.11389 0.21063 0.02051 0.0
H3188 H 0.18704 0.21208 0.97598 0.0
H3189 H 0.20184 0.2441 0.05261 0.0
H3190 H 0.13575 0.21226 0.96315 0.0
H3191 H 0.15789 0.23967 0.94967 0.0
H3192 H 0.16075 0.21382 0.94654 0.0
H3193 H 0.18534 0.26712 0.06708 0.0
H3194 H 0.17318 0.278 0.04254 0.0
H3195 H 0.15441 0.25098 0.0592 0.0
H3196 H 0.13781 0.28667 0.95953 0.0
H3197 H 0.08534 0.2214 -0.007 0.0
H3198 H 0.18347 0.28178 0.96476 0.0
H3199 H 0.18732 0.29157 -0.00166 0.0
H3200 H 0.17802 0.3052 0.9738 0.0
H3201 H 0.11644 0.198 0.00831 0.0
H3202 H 0.09511 0.20199 0.02648 0.0
H3203 H 0.12495 0.21455 0.03843 0.0
C3204 C 0.88147 0.79183 0.48133 0.0
C3205 C 0.86697 0.77338 0.49827 0.0
C3206 C 0.90133 0.79277 0.46955 0.0
C3207 C 0.90696 0.77496 0.47522 0.0
C3208 C 0.89064 0.7548 0.48955 0.0
C3209 C 0.8708 0.75427 0.50093 0.0
C3210 C 0.91789 0.8144 0.45401 0.0
C3211 C 0.89564 0.73524 0.49588 0.0
C3212 C 0.96292 0.7803 0.44485 0.0
C3213 C 0.97969 0.79324 0.46438 0.0
C3214 C 0.93901 0.77366 0.44815 0.0
C3215 C 0.93173 0.78002 0.47157 0.0
C3216 C 0.94852 0.79234 0.49167 0.0
C3217 C 0.97217 0.79879 0.4878 0.0
C3218 C 0.92177 0.76058 0.42624 0.0
C3219 C 0.94165 0.79926 0.51718 0.0
H3220 H 0.87885 0.80688 0.4797 0.0
H3221 H 0.85995 0.74023 0.51454 0.0
H3222 H 0.93296 0.82639 0.46672 0.0
H3223 H 0.92503 0.80962 0.43675 0.0
H3224 H 0.90907 0.82413 0.44701 0.0
H3225 H 0.87942 0.71889 0.50187 0.0
H3226 H 0.90356 0.73124 0.47874 0.0
H3227 H 0.90843 0.74085 0.51242 0.0
H3228 H 0.96861 0.77609 0.42662 0.0
H3229 H 0.98492 0.80839 0.50314 0.0
H3230 H 0.91654 0.77248 0.41663 0.0
H3231 H 0.90555 0.74536 0.43419 0.0
H3232 H 0.92938 0.75413 0.41102 0.0
H3233 H 0.93494 0.81149 0.51303 0.0
H3234 H 0.95664 0.80803 0.53118 0.0
H3235 H 0.92728 0.78346 0.52691 0.0
C3236 C 0.24852 0.09292 0.47416 0.0
C3237 C 0.25947 0.09946 0.49886 0.0
C3238 C 0.24414 0.10866 0.45958 0.0
C3239 C 0.25066 0.13117 0.47024 0.0
C3240 C 0.26374 0.13848 0.49399 0.0
C3241 C 0.26801 0.12254 0.50793 0.0
C3242 C 0.23068 0.10041 0.434 0.0
C3243 C 0.27103 0.16219 0.50626 0.0
C3244 C 0.24509 0.17907 0.43379 0.0
C3245 C 0.22327 0.17526 0.44294 0.0
C3246 C 0.25386 0.16426 0.44151 0.0
C3247 C 0.24073 0.14554 0.45927 0.0
C3248 C 0.21863 0.1416 0.46843 0.0
C3249 C 0.2101 0.15635 0.45996 0.0
C3250 C 0.27721 0.16874 0.43086 0.0
C3251 C 0.20422 0.12218 0.48781 0.0
H3252 H 0.24161 0.07496 0.46732 0.0
H3253 H 0.27639 0.12752 0.52715 0.0
H3254 H 0.21204 0.09534 0.43745 0.0
H3255 H 0.23791 0.11473 0.41915 0.0
H3256 H 0.23113 0.08489 0.42582 0.0
H3257 H 0.28364 0.16634 0.5228 0.0
H3258 H 0.27922 0.17641 0.49139 0.0
H3259 H 0.25521 0.16222 0.51398 0.0
H3260 H 0.25512 0.19345 0.42027 0.0
H3261 H 0.19332 0.15346 0.46717 0.0
H3262 H 0.27536 0.15233 0.4222 0.0
H3263 H 0.29021 0.17413 0.44714 0.0
H3264 H 0.28431 0.18275 0.41559 0.0
H3265 H 0.20056 0.10494 0.47973 0.0
H3266 H 0.18719 0.12114 0.49256 0.0
H3267 H 0.2143 0.12518 0.50639 0.0
C3268 C 0.9382 0.14735 0.49025 0.0
C3269 C 0.93519 0.16591 0.49917 0.0
C3270 C 0.92029 0.12818 0.47645 0.0
C3271 C 0.89869 0.12749 0.4714 0.0
C3272 C 0.89623 0.14709 0.47863 0.0
C3273 C 0.91448 0.16602 0.4927 0.0
C3274 C 0.92383 0.10779 0.46918 0.0
C3275 C 0.87375 0.14734 0.47319 0.0
C3276 C 0.85998 0.07891 0.42317 0.0
C3277 C 0.84578 0.06032 0.44022 0.0
C3278 C 0.87606 0.10144 0.4329 0.0
C3279 C 0.87839 0.10541 0.46046 0.0
C3280 C 0.86308 0.08704 0.4777 0.0
C3281 C 0.8468 0.06475 0.46733 0.0
C3282 C 0.89149 0.12057 0.41375 0.0
C3283 C 0.86502 0.0904 0.50722 0.0
H3284 H 0.95398 0.14698 0.49588 0.0
H3285 H 0.91182 0.18 0.50032 0.0
H3286 H 0.91164 0.09204 0.48083 0.0
H3287 H 0.9197 0.10322 0.44805 0.0
H3288 H 0.94213 0.11172 0.47297 0.0
H3289 H 0.87606 0.16523 0.47572 0.0
H3290 H 0.86738 0.14107 0.45288 0.0
H3291 H 0.8599 0.13521 0.48702 0.0
H3292 H 0.85901 0.07556 0.40214 0.0
H3293 H 0.83595 0.05038 0.48052 0.0
H3294 H 0.90968 0.12357 0.41477 0.0
H3295 H 0.8923 0.13742 0.41899 0.0
H3296 H 0.88511 0.11589 0.39311 0.0
H3297 H 0.88208 0.09257 0.51405 0.0
H3298 H 0.85058 0.07522 0.51778 0.0
H3299 H 0.86471 0.10664 0.51274 0.0
C3300 C 0.91444 0.48558 0.33024 0.0
C3301 C 0.92661 0.49111 0.35426 0.0
C3302 C 0.91096 0.46584 0.31538 0.0
C3303 C 0.91976 0.45132 0.32493 0.0
C3304 C 0.93401 0.45834 0.34786 0.0
C3305 C 0.93712 0.47802 0.36226 0.0
C3306 C 0.89593 0.45924 0.29087 0.0
C3307 C 0.94386 0.44364 0.35889 0.0
C3308 C 0.88144 0.38502 0.31567 0.0
C3309 C 0.89344 0.38004 0.29609 0.0
C3310 C 0.88974 0.40808 0.32485 0.0
C3311 C 0.91063 0.42693 0.31416 0.0
C3312 C 0.92295 0.42209 0.29441 0.0
C3313 C 0.91428 0.39867 0.28571 0.0
C3314 C 0.87617 0.41219 0.34625 0.0
C3315 C 0.94515 0.44164 0.28238 0.0
H3316 H 0.90588 0.49536 0.32426 0.0
H3317 H 0.9463 0.48209 0.38102 0.0
H3318 H 0.90335 0.45314 0.2751 0.0
H3319 H 0.87805 0.4445 0.29546 0.0
H3320 H 0.89425 0.47425 0.28332 0.0
H3321 H 0.95759 0.45337 0.37408 0.0
H3322 H 0.92944 0.42754 0.3681 0.0
H3323 H 0.95154 0.43794 0.34301 0.0
H3324 H 0.86554 0.37072 0.32406 0.0
H3325 H 0.9235 0.39501 0.27037 0.0
H3326 H 0.87085 0.42493 0.33939 0.0
H3327 H 0.88751 0.41995 0.36389 0.0
H3328 H 0.86011 0.39569 0.35224 0.0
H3329 H 0.94146 0.45483 0.27321 0.0
H3330 H 0.95263 0.43505 0.26716 0.0
H3331 H 0.95859 0.45091 0.29793 0.0
C3332 C 0.62894 0.5231 0.27322 0.0
C3333 C 0.64575 0.51645 0.27875 0.0
C3334 C 0.60582 0.50996 0.28312 0.0
C3335 C 0.59971 0.49015 0.29943 0.0
C3336 C 0.61683 0.48361 0.30516 0.0
C3337 C 0.63948 0.49667 0.29454 0.0
C3338 C 0.58795 0.51714 0.27606 0.0
C3339 C 0.61143 0.46308 0.32304 0.0
C3340 C 0.55449 0.46914 0.35362 0.0
C3341 C 0.5379 0.44658 0.34463 0.0
C3342 C 0.57366 0.48451 0.33803 0.0
C3343 C 0.57627 0.47721 0.31261 0.0
C3344 C 0.55818 0.45545 0.30232 0.0
C3345 C 0.53913 0.44024 0.31856 0.0
C3346 C 0.59239 0.5074 0.35001 0.0
C3347 C 0.55999 0.44732 0.27504 0.0
H3348 H 0.63375 0.5382 0.26067 0.0
H3349 H 0.65256 0.49166 0.2989 0.0
H3350 H 0.57254 0.50222 0.26633 0.0
H3351 H 0.58141 0.5215 0.29416 0.0
H3352 H 0.59531 0.53261 0.26268 0.0
H3353 H 0.62667 0.46023 0.32532 0.0
H3354 H 0.60633 0.4662 0.34286 0.0
H3355 H 0.59635 0.4467 0.31511 0.0
H3356 H 0.55338 0.4742 0.37372 0.0
H3357 H 0.52634 0.42281 0.31156 0.0
H3358 H 0.59818 0.5221 0.3358 0.0
H3359 H 0.60799 0.50579 0.35509 0.0
H3360 H 0.58616 0.512 0.36824 0.0
H3361 H 0.5667 0.46214 0.26083 0.0
H3362 H 0.54273 0.43288 0.26794 0.0
H3363 H 0.57261 0.44071 0.27533 0.0
C3364 C 0.51321 0.11573 0.28261 0.0
C3365 C 0.51409 0.13365 0.29863 0.0
C3366 C 0.52817 0.10637 0.28746 0.0
C3367 C 0.54413 0.11495 0.30901 0.0
C3368 C 0.54441 0.1325 0.32567 0.0
C3369 C 0.52955 0.14163 0.3202 0.0
C3370 C 0.5274 0.08787 0.2691 0.0
C3371 C 0.5607 0.14195 0.34922 0.0
C3372 C 0.57235 0.08503 0.34538 0.0
C3373 C 0.59614 0.09995 0.33926 0.0
C3374 C 0.5546 0.08784 0.3333 0.0
C3375 C 0.56083 0.1061 0.31465 0.0
C3376 C 0.58454 0.11918 0.30601 0.0
C3377 C 0.60198 0.11607 0.3186 0.0
C3378 C 0.52966 0.07334 0.34313 0.0
C3379 C 0.592 0.13849 0.28582 0.0
H3380 H 0.50144 0.10966 0.26577 0.0
H3381 H 0.53006 0.15523 0.33283 0.0
H3382 H 0.54403 0.09544 0.25771 0.0
H3383 H 0.52598 0.07275 0.28045 0.0
H3384 H 0.51245 0.08129 0.255 0.0
H3385 H 0.55825 0.15506 0.36063 0.0
H3386 H 0.55763 0.12729 0.36259 0.0
H3387 H 0.57928 0.15046 0.34261 0.0
H3388 H 0.56784 0.0729 0.36177 0.0
H3389 H 0.62038 0.12803 0.31424 0.0
H3390 H 0.51685 0.06834 0.32671 0.0
H3391 H 0.52598 0.08394 0.35741 0.0
H3392 H 0.52679 0.05707 0.35324 0.0
H3393 H 0.57895 0.13293 0.26958 0.0
H3394 H 0.60953 0.14359 0.27738 0.0
H3395 H 0.59304 0.15426 0.29531 0.0
C3396 C 0.83393 0.58296 0.84131 0.0
C3397 C 0.84368 0.59771 0.81945 0.0
C3398 C 0.81329 0.58017 0.85332 0.0
C3399 C 0.80199 0.59206 0.84282 0.0
C3400 C 0.81337 0.60897 0.82267 0.0
C3401 C 0.83407 0.61157 0.81127 0.0
C3402 C 0.80217 0.56243 0.87521 0.0
C3403 C 0.80218 0.62209 0.81071 0.0
C3404 C 0.73525 0.55505 0.83897 0.0
C3405 C 0.72785 0.56465 0.85896 0.0
C3406 C 0.75919 0.56411 0.83341 0.0
C3407 C 0.77647 0.58317 0.84851 0.0
C3408 C 0.76913 0.59331 0.86847 0.0
C3409 C 0.74485 0.58403 0.87333 0.0
C3410 C 0.76596 0.55301 0.81147 0.0
C3411 C 0.78687 0.61338 0.88525 0.0
H3412 H 0.84098 0.57183 0.84731 0.0
H3413 H 0.84133 0.62265 0.79401 0.0
H3414 H 0.79466 0.56893 0.89045 0.0
H3415 H 0.78757 0.5458 0.86703 0.0
H3416 H 0.81505 0.55842 0.88469 0.0
H3417 H 0.81504 0.63758 0.79911 0.0
H3418 H 0.78771 0.61008 0.79733 0.0
H3419 H 0.79445 0.62816 0.82616 0.0
H3420 H 0.72213 0.5402 0.8277 0.0
H3421 H 0.73916 0.59131 0.88899 0.0
H3422 H 0.77631 0.54527 0.81961 0.0
H3423 H 0.77724 0.5666 0.7969 0.0
H3424 H 0.75038 0.53891 0.801 0.0
H3425 H 0.79629 0.60699 0.89798 0.0
H3426 H 0.77848 0.62087 0.89804 0.0
H3427 H 0.80026 0.62762 0.87271 0.0
C3428 C 0.48367 0.19406 0.84559 0.0
C3429 C 0.47363 0.17763 0.866 0.0
C3430 C 0.47357 0.20736 0.83704 0.0
C3431 C 0.45297 0.20452 0.8495 0.0
C3432 C 0.44252 0.18772 0.87001 0.0
C3433 C 0.45289 0.17428 0.87789 0.0
C3434 C 0.48508 0.22455 0.81464 0.0
C3435 C 0.42082 0.18441 0.88406 0.0
C3436 C 0.44747 0.25816 0.83374 0.0
C3437 C 0.43417 0.25057 0.81052 0.0
C3438 C 0.45159 0.24244 0.84872 0.0
C3439 C 0.4424 0.21883 0.83999 0.0
C3440 C 0.42677 0.21062 0.81823 0.0
C3441 C 0.42288 0.22661 0.80379 0.0
C3442 C 0.46788 0.25179 0.87218 0.0
C3443 C 0.41651 0.18572 0.80807 0.0
H3444 H 0.49964 0.19653 0.83634 0.0
H3445 H 0.44533 0.16181 0.89394 0.0
H3446 H 0.47231 0.22034 0.7983 0.0
H3447 H 0.49065 0.24271 0.82143 0.0
H3448 H 0.50075 0.22428 0.80677 0.0
H3449 H 0.41393 0.1696 0.89832 0.0
H3450 H 0.42504 0.2008 0.89487 0.0
H3451 H 0.40675 0.18109 0.86965 0.0
H3452 H 0.45648 0.27674 0.83876 0.0
H3453 H 0.41269 0.22078 0.78569 0.0
H3454 H 0.48564 0.25528 0.86635 0.0
H3455 H 0.46159 0.23867 0.88836 0.0
H3456 H 0.4695 0.26849 0.87969 0.0
H3457 H 0.43034 0.18403 0.79734 0.0
H3458 H 0.40158 0.18095 0.79432 0.0
H3459 H 0.41033 0.1729 0.82453 0.0
C3460 C 0.84818 0.30762 0.83344 0.0
C3461 C 0.86107 0.31335 0.85696 0.0
C3462 C 0.83182 0.28419 0.82704 0.0
C3463 C 0.82779 0.26591 0.8449 0.0
C3464 C 0.84127 0.27151 0.86841 0.0
C3465 C 0.85795 0.29521 0.87406 0.0
C3466 C 0.81832 0.27911 0.80143 0.0
C3467 C 0.83732 0.25268 0.88814 0.0
C3468 C 0.76637 0.21541 0.83224 0.0
C3469 C 0.77085 0.20182 0.8144 0.0
C3470 C 0.78491 0.2349 0.84505 0.0
C3471 C 0.8085 0.24137 0.83912 0.0
C3472 C 0.81296 0.22624 0.82317 0.0
C3473 C 0.79401 0.20653 0.8111 0.0
C3474 C 0.77925 0.25008 0.8625 0.0
C3475 C 0.83773 0.2324 0.81611 0.0
H3476 H 0.85076 0.32167 0.82017 0.0
H3477 H 0.86775 0.2997 0.8924 0.0
H3478 H 0.81972 0.26536 0.79009 0.0
H3479 H 0.7994 0.27226 0.80561 0.0
H3480 H 0.82478 0.29504 0.78889 0.0
H3481 H 0.85113 0.25936 0.90368 0.0
H3482 H 0.81997 0.24619 0.89775 0.0
H3483 H 0.83693 0.2374 0.87819 0.0
H3484 H 0.7485 0.21206 0.8344 0.0
H3485 H 0.79758 0.19641 0.79678 0.0
H3486 H 0.78219 0.2659 0.85137 0.0
H3487 H 0.79094 0.25621 0.88004 0.0
H3488 H 0.76065 0.2405 0.8692 0.0
H3489 H 0.84461 0.24637 0.80083 0.0
H3490 H 0.83839 0.21693 0.80815 0.0
H3491 H 0.84956 0.23937 0.83348 0.0
C3492 C 0.4572 0.20483 0.3406 0.0
C3493 C 0.44244 0.19666 0.31851 0.0
C3494 C 0.46159 0.22573 0.35354 0.0
C3495 C 0.45125 0.23879 0.34378 0.0
C3496 C 0.43441 0.22912 0.32322 0.0
C3497 C 0.43022 0.20817 0.3109 0.0
C3498 C 0.47921 0.23507 0.3758 0.0
C3499 C 0.42295 0.24227 0.31198 0.0
C3500 C 0.46037 0.29548 0.37653 0.0
C3501 C 0.47993 0.31267 0.36265 0.0
C3502 C 0.45105 0.27127 0.37116 0.0
C3503 C 0.46127 0.26418 0.3511 0.0
C3504 C 0.48082 0.28158 0.33684 0.0
C3505 C 0.48997 0.30549 0.34295 0.0
C3506 C 0.43051 0.25332 0.38711 0.0
C3507 C 0.49201 0.275 0.31485 0.0
H3508 H 0.46701 0.19621 0.3462 0.0
H3509 H 0.41902 0.202 0.29355 0.0
H3510 H 0.4964 0.24911 0.36822 0.0
H3511 H 0.47348 0.24294 0.39147 0.0
H3512 H 0.48183 0.22102 0.38459 0.0
H3513 H 0.40756 0.23077 0.29934 0.0
H3514 H 0.4171 0.24978 0.3279 0.0
H3515 H 0.43596 0.25715 0.29979 0.0
H3516 H 0.45276 0.30096 0.39201 0.0
H3517 H 0.50493 0.31874 0.33203 0.0
H3518 H 0.43562 0.24172 0.39765 0.0
H3519 H 0.4156 0.24191 0.37392 0.0
H3520 H 0.42438 0.26168 0.4018 0.0
H3521 H 0.49855 0.26348 0.32255 0.0
H3522 H 0.50695 0.29067 0.30555 0.0
H3523 H 0.47872 0.26492 0.2994 0.0
C3524 C 0.83602 0.25874 0.32818 0.0
C3525 C 0.84358 0.25066 0.30682 0.0
C3526 C 0.81543 0.24324 0.34215 0.0
C3527 C 0.80209 0.21924 0.33433 0.0
C3528 C 0.81128 0.21064 0.31475 0.0
C3529 C 0.83186 0.22647 0.30122 0.0
C3530 C 0.80658 0.25316 0.3632 0.0
C3531 C 0.79791 0.1853 0.30568 0.0
C3532 C 0.74575 0.17517 0.37045 0.0
C3533 C 0.72847 0.17676 0.35569 0.0
C3534 C 0.76986 0.18905 0.3641 0.0
C3535 C 0.77679 0.20463 0.34229 0.0
C3536 C 0.75929 0.20592 0.32714 0.0
C3537 C 0.7355 0.19211 0.33408 0.0
C3538 C 0.78792 0.18732 0.38092 0.0
C3539 C 0.76566 0.22189 0.30342 0.0
H3540 H 0.84471 0.27751 0.33218 0.0
H3541 H 0.83746 0.22027 0.28439 0.0
H3542 H 0.79247 0.25587 0.35484 0.0
H3543 H 0.79895 0.24072 0.37994 0.0
H3544 H 0.82082 0.27035 0.37073 0.0
H3545 H 0.80922 0.18043 0.29409 0.0
H3546 H 0.79051 0.17316 0.3227 0.0
H3547 H 0.78297 0.18266 0.29302 0.0
H3548 H 0.74045 0.16356 0.38736 0.0
H3549 H 0.72223 0.19319 0.32241 0.0
H3550 H 0.79984 0.20468 0.39009 0.0
H3551 H 0.79895 0.18267 0.36854 0.0
H3552 H 0.7797 0.17397 0.39678 0.0
H3553 H 0.77758 0.24044 0.30942 0.0
H3554 H 0.74995 0.22076 0.29367 0.0
H3555 H 0.7752 0.21719 0.28876 0.0
C3556 C 0.82174 0.51714 0.35396 0.0
C3557 C 0.84583 0.53259 0.35837 0.0
C3558 C 0.80746 0.52485 0.34191 0.0
C3559 C 0.81739 0.54869 0.33409 0.0
C3560 C 0.84165 0.56445 0.33866 0.0
C3561 C 0.85558 0.5562 0.35054 0.0
C3562 C 0.78182 0.50729 0.33697 0.0
C3563 C 0.85298 0.59001 0.33067 0.0
C3564 C 0.7882 0.56007 0.27583 0.0
C3565 C 0.77423 0.56824 0.28775 0.0
C3566 C 0.80245 0.5541 0.29067 0.0
C3567 C 0.80303 0.55633 0.31841 0.0
C3568 C 0.78941 0.56502 0.33074 0.0
C3569 C 0.77511 0.57089 0.31525 0.0
C3570 C 0.81657 0.54492 0.27656 0.0
C3571 C 0.78971 0.56778 0.36028 0.0
H3572 H 0.81407 0.49886 0.35975 0.0
H3573 H 0.87403 0.56838 0.35414 0.0
H3574 H 0.77057 0.51393 0.34524 0.0
H3575 H 0.77842 0.50499 0.31543 0.0
H3576 H 0.77642 0.48979 0.34576 0.0
H3577 H 0.8715 0.60044 0.33758 0.0
H3578 H 0.85275 0.59132 0.30888 0.0
H3579 H 0.84286 0.59802 0.33876 0.0
H3580 H 0.78794 0.55808 0.2546 0.0
H3581 H 0.76448 0.57722 0.32463 0.0
H3582 H 0.81096 0.52675 0.28324 0.0
H3583 H 0.83552 0.55601 0.28142 0.0
H3584 H 0.81452 0.54466 0.2548 0.0
H3585 H 0.78262 0.55031 0.36981 0.0
H3586 H 0.77913 0.57583 0.36679 0.0
H3587 H 0.80807 0.57892 0.36734 0.0
C3588 C 0.62793 0.1403 0.76511 0.0
C3589 C 0.64525 0.13796 0.77881 0.0
C3590 C 0.60574 0.13291 0.77624 0.0
C3591 C 0.60078 0.12309 0.80185 0.0
C3592 C 0.61739 0.11861 0.81469 0.0
C3593 C 0.63946 0.12605 0.80296 0.0
C3594 C 0.58853 0.13771 0.76158 0.0
C3595 C 0.61273 0.10795 0.8419 0.0
C3596 C 0.56708 0.14132 0.84764 0.0
C3597 C 0.54506 0.12081 0.84935 0.0
C3598 C 0.58495 0.14234 0.8317 0.0
C3599 C 0.58087 0.1222 0.81709 0.0
C3600 C 0.55826 0.10167 0.81774 0.0
C3601 C 0.54051 0.10121 0.83391 0.0
C3602 C 0.60857 0.16478 0.83136 0.0
C3603 C 0.55319 0.07988 0.80242 0.0
H3604 H 0.63222 0.14907 0.74615 0.0
H3605 H 0.65278 0.12417 0.81355 0.0
H3606 H 0.57035 0.12261 0.76336 0.0
H3607 H 0.58874 0.15335 0.77034 0.0
H3608 H 0.59304 0.14126 0.74034 0.0
H3609 H 0.62539 0.10205 0.84731 0.0
H3610 H 0.61431 0.12126 0.85656 0.0
H3611 H 0.59459 0.09272 0.84323 0.0
H3612 H 0.57059 0.1565 0.85958 0.0
H3613 H 0.52361 0.0852 0.83557 0.0
H3614 H 0.61358 0.17111 0.81083 0.0
H3615 H 0.62231 0.16133 0.83937 0.0
H3616 H 0.60858 0.17907 0.8432 0.0
H3617 H 0.55984 0.08446 0.78194 0.0
H3618 H 0.53406 0.0668 0.80181 0.0
H3619 H 0.56245 0.0715 0.81183 0.0
C3620 C 0.89483 0.50569 0.82346 0.0
C3621 C 0.90254 0.5214 0.80219 0.0
C3622 C 0.90466 0.49139 0.82875 0.0
C3623 C 0.92258 0.49251 0.81216 0.0
C3624 C 0.93065 0.50851 0.79071 0.0
C3625 C 0.92064 0.5229 0.78608 0.0
C3626 C 0.89574 0.47501 0.85218 0.0
C3627 C 0.94947 0.51005 0.77238 0.0
C3628 C 0.95567 0.46803 0.84901 0.0
C3629 C 0.94202 0.44396 0.84311 0.0
C3630 C 0.95135 0.48471 0.83674 0.0
C3631 C 0.93284 0.47709 0.81811 0.0
C3632 C 0.92107 0.45321 0.80968 0.0
C3633 C 0.92571 0.43685 0.82244 0.0
C3634 C 0.96448 0.50988 0.84639 0.0
C3635 C 0.90157 0.44436 0.7895 0.0
H3636 H 0.88105 0.50467 0.83612 0.0
H3637 H 0.92645 0.53481 0.76941 0.0
H3638 H 0.88823 0.45649 0.84551 0.0
H3639 H 0.91052 0.47891 0.86579 0.0
H3640 H 0.882 0.47654 0.86335 0.0
H3641 H 0.95476 0.52427 0.75754 0.0
H3642 H 0.96526 0.51325 0.78375 0.0
H3643 H 0.94291 0.49303 0.76188 0.0
H3644 H 0.96801 0.47349 0.86535 0.0
H3645 H 0.91476 0.4182 0.81824 0.0
H3646 H 0.95318 0.5128 0.86038 0.0
H3647 H 0.9688 0.52241 0.82983 0.0
H3648 H 0.98103 0.51394 0.85675 0.0
H3649 H 0.88533 0.44209 0.79898 0.0
H3650 H 0.89771 0.42711 0.7811 0.0
H3651 H 0.90617 0.45722 0.77322 0.0
C3652 C 0.50669 0.39323 0.80198 0.0
C3653 C 0.51317 0.38242 0.78245 0.0
C3654 C 0.5224 0.41647 0.8103 0.0
C3655 C 0.54499 0.4293 0.79853 0.0
C3656 C 0.55074 0.41907 0.77727 0.0
C3657 C 0.53488 0.39575 0.76966 0.0
C3658 C 0.51551 0.42659 0.83307 0.0
C3659 C 0.57434 0.43214 0.76375 0.0
C3660 C 0.58484 0.49391 0.819 0.0
C3661 C 0.59768 0.49138 0.8396 0.0
C3662 C 0.56793 0.47397 0.8048 0.0
C3663 C 0.56388 0.45117 0.81149 0.0
C3664 C 0.57772 0.44891 0.83144 0.0
C3665 C 0.59436 0.46894 0.84508 0.0
C3666 C 0.55377 0.47717 0.78345 0.0
C3667 C 0.57434 0.42514 0.8392 0.0
H3668 H 0.48992 0.38302 0.81184 0.0
H3669 H 0.53974 0.38765 0.75411 0.0
H3670 H 0.52567 0.42719 0.85087 0.0
H3671 H 0.51983 0.44491 0.82872 0.0
H3672 H 0.49645 0.41591 0.83767 0.0
H3673 H 0.57456 0.42356 0.74493 0.0
H3674 H 0.57906 0.45062 0.75967 0.0
H3675 H 0.58812 0.43265 0.77691 0.0
H3676 H 0.58715 0.51118 0.81489 0.0
H3677 H 0.60438 0.46691 0.86087 0.0
H3678 H 0.5354 0.4701 0.79029 0.0
H3679 H 0.55313 0.46717 0.76549 0.0
H3680 H 0.5611 0.49601 0.77816 0.0
H3681 H 0.55615 0.41369 0.84651 0.0
H3682 H 0.58685 0.42649 0.85482 0.0
H3683 H 0.57675 0.41628 0.8218 0.0
C3684 C 0.60639 0.84589 0.65497 0.0
C3685 C 0.58536 0.84175 0.66683 0.0
C3686 C 0.60746 0.82774 0.64108 0.0
C3687 C 0.58709 0.80507 0.63931 0.0
C3688 C 0.56553 0.80149 0.64977 0.0
C3689 C 0.56497 0.81986 0.66325 0.0
C3690 C 0.63065 0.83245 0.62973 0.0
C3691 C 0.54328 0.77776 0.64829 0.0
C3692 C 0.57451 0.75425 0.59401 0.0
C3693 C 0.57627 0.73865 0.6115 0.0
C3694 C 0.58061 0.77717 0.60189 0.0
C3695 C 0.588 0.7844 0.62817 0.0
C3696 C 0.59168 0.76934 0.6452 0.0
C3697 C 0.58593 0.74665 0.63655 0.0
C3698 C 0.5771 0.7928 0.5828 0.0
C3699 C 0.59946 0.77627 0.6734 0.0
H3700 H 0.62229 0.86269 0.65805 0.0
H3701 H 0.54868 0.81664 0.67241 0.0
H3702 H 0.63855 0.82471 0.64284 0.0
H3703 H 0.62813 0.8241 0.61005 0.0
H3704 H 0.64328 0.85164 0.62793 0.0
H3705 H 0.52783 0.77816 0.65667 0.0
H3706 H 0.53927 0.77172 0.62752 0.0
H3707 H 0.54574 0.76451 0.65929 0.0
H3708 H 0.56717 0.74801 0.57454 0.0
H3709 H 0.58712 0.73448 0.65005 0.0
H3710 H 0.59164 0.8113 0.58446 0.0
H3711 H 0.56046 0.79254 0.58754 0.0
H3712 H 0.57604 0.78678 0.56209 0.0
H3713 H 0.61456 0.79452 0.67442 0.0
H3714 H 0.60458 0.76421 0.6829 0.0
H3715 H 0.58482 0.77579 0.68486 0.0
C3716 C 0.29335 0.83822 0.61628 0.0
C3717 C 0.31146 0.84193 0.63384 0.0
C3718 C 0.2698 0.82083 0.62122 0.0
C3719 C 0.26419 0.80704 0.64445 0.0
C3720 C 0.28231 0.81166 0.66285 0.0
C3721 C 0.30567 0.82883 0.65719 0.0
C3722 C 0.25118 0.81638 0.60094 0.0
C3723 C 0.2772 0.79778 0.68812 0.0
C3724 C 0.20314 0.7693 0.67379 0.0
C3725 C 0.19945 0.7466 0.66909 0.0
C3726 C 0.2233 0.78937 0.66405 0.0
C3727 C 0.23995 0.78659 0.64895 0.0
C3728 C 0.23484 0.76358 0.64176 0.0
C3729 C 0.21485 0.7439 0.65223 0.0
C3730 C 0.22795 0.81344 0.67238 0.0
C3731 C 0.2517 0.75966 0.62521 0.0
H3732 H 0.29778 0.84805 0.59801 0.0
H3733 H 0.31962 0.83173 0.67079 0.0
H3734 H 0.24552 0.79924 0.59106 0.0
H3735 H 0.23542 0.81522 0.61048 0.0
H3736 H 0.2577 0.83038 0.58567 0.0
H3737 H 0.29282 0.80482 0.7013 0.0
H3738 H 0.26261 0.79801 0.69893 0.0
H3739 H 0.27151 0.77913 0.6835 0.0
H3740 H 0.19168 0.77155 0.68738 0.0
H3741 H 0.21231 0.72641 0.649 0.0
H3742 H 0.23515 0.82609 0.65578 0.0
H3743 H 0.24128 0.8202 0.68841 0.0
H3744 H 0.21177 0.81294 0.67979 0.0
H3745 H 0.258 0.77186 0.60816 0.0
H3746 H 0.24348 0.74126 0.61777 0.0
H3747 H 0.26729 0.7633 0.63727 0.0
C3748 C 0.21741 0.49192 0.64471 0.0
C3749 C 0.20042 0.47878 0.62554 0.0
C3750 C 0.23188 0.48393 0.65557 0.0
C3751 C 0.22952 0.46225 0.64696 0.0
C3752 C 0.21243 0.44887 0.62754 0.0
C3753 C 0.19799 0.45723 0.61716 0.0
C3754 C 0.24956 0.49867 0.67652 0.0
C3755 C 0.20948 0.42581 0.61766 0.0
C3756 C 0.28326 0.4578 0.66651 0.0
C3757 C 0.27619 0.44698 0.69119 0.0
C3758 C 0.26749 0.46105 0.6505 0.0
C3759 C 0.24428 0.45339 0.65957 0.0
C3760 C 0.23657 0.44041 0.68332 0.0
C3761 C 0.25264 0.43747 0.69883 0.0
C3762 C 0.27637 0.47466 0.62514 0.0
C3763 C 0.21208 0.43179 0.69385 0.0
H3764 H 0.21922 0.50844 0.65146 0.0
H3765 H 0.18517 0.44715 0.60205 0.0
H3766 H 0.24572 0.48844 0.69507 0.0
H3767 H 0.26754 0.50324 0.67021 0.0
H3768 H 0.24943 0.51525 0.68075 0.0
H3769 H 0.19567 0.41767 0.60221 0.0
H3770 H 0.22637 0.42863 0.60944 0.0
H3771 H 0.20477 0.41323 0.63425 0.0
H3772 H 0.30157 0.46557 0.66079 0.0
H3773 H 0.24723 0.42931 0.71808 0.0
H3774 H 0.27996 0.49294 0.62822 0.0
H3775 H 0.26293 0.46663 0.60933 0.0
H3776 H 0.29288 0.47547 0.61842 0.0
H3777 H 0.21079 0.44702 0.7014 0.0
H3778 H 0.20769 0.41898 0.71018 0.0
H3779 H 0.19875 0.42336 0.67801 0.0
C3780 C 0.48537 0.88364 0.15564 0.0
C3781 C 0.50713 0.90423 0.15214 0.0
C3782 C 0.46703 0.88386 0.16953 0.0
C3783 C 0.47045 0.90523 0.18055 0.0
C3784 C 0.49298 0.92578 0.17884 0.0
C3785 C 0.5111 0.92508 0.16452 0.0
C3786 C 0.44346 0.86142 0.17091 0.0
C3787 C 0.49755 0.9488 0.19074 0.0
C3788 C 0.41203 0.90408 0.18544 0.0
C3789 C 0.4046 0.8945 0.21059 0.0
C3790 C 0.43443 0.9096 0.17603 0.0
C3791 C 0.44981 0.90578 0.19238 0.0
C3792 C 0.44313 0.8983 0.21871 0.0
C3793 C 0.4205 0.89245 0.22735 0.0
C3794 C 0.44073 0.91745 0.1478 0.0
C3795 C 0.45907 0.89458 0.2371 0.0
H3796 H 0.48222 0.86749 0.14609 0.0
H3797 H 0.52775 0.94114 0.16156 0.0
H3798 H 0.43765 0.85718 0.1917 0.0
H3799 H 0.43002 0.86384 0.16027 0.0
H3800 H 0.44395 0.84614 0.1621 0.0
H3801 H 0.51668 0.96174 0.19207 0.0
H3802 H 0.48915 0.95648 0.17832 0.0
H3803 H 0.48975 0.94601 0.21073 0.0
H3804 H 0.39964 0.90545 0.17245 0.0
H3805 H 0.41471 0.88511 0.24687 0.0
H3806 H 0.44012 0.90286 0.13601 0.0
H3807 H 0.45889 0.93263 0.14654 0.0
H3808 H 0.42843 0.92251 0.13881 0.0
H3809 H 0.45883 0.87804 0.23169 0.0
H3810 H 0.4534 0.8932 0.25798 0.0
H3811 H 0.47751 0.90922 0.23537 0.0
C3812 C 0.09973 0.57622 0.14295 0.0
C3813 C 0.11393 0.60003 0.14972 0.0
C3814 C 0.10366 0.5588 0.15393 0.0
C3815 C 0.12218 0.56535 0.17233 0.0
C3816 C 0.13459 0.58895 0.18165 0.0
C3817 C 0.13046 0.60609 0.17002 0.0
C3818 C 0.08996 0.534 0.14324 0.0
C3819 C 0.15405 0.59666 0.20173 0.0
C3820 C 0.13137 0.51721 0.20318 0.0
C3821 C 0.14938 0.5182 0.1873 0.0
C3822 C 0.12239 0.53251 0.19881 0.0
C3823 C 0.13136 0.54891 0.1778 0.0
C3824 C 0.14921 0.54957 0.16142 0.0
C3825 C 0.15811 0.53441 0.16654 0.0
C3826 C 0.10373 0.5315 0.21702 0.0
C3827 C 0.15901 0.56637 0.13844 0.0
H3828 H 0.08731 0.57158 0.12678 0.0
H3829 H 0.14188 0.62455 0.17484 0.0
H3830 H 0.10114 0.53105 0.12907 0.0
H3831 H 0.08505 0.52087 0.15926 0.0
H3832 H 0.07371 0.5308 0.13282 0.0
H3833 H 0.15861 0.6139 0.21074 0.0
H3834 H 0.149 0.58335 0.21759 0.0
H3835 H 0.17002 0.59847 0.19199 0.0
H3836 H 0.12485 0.50499 0.21955 0.0
H3837 H 0.17194 0.53513 0.15421 0.0
H3838 H 0.0882 0.52887 0.20552 0.0
H3839 H 0.11069 0.54851 0.22765 0.0
H3840 H 0.0979 0.51712 0.23175 0.0
H3841 H 0.14457 0.56354 0.12481 0.0
H3842 H 0.17233 0.56421 0.12717 0.0
H3843 H 0.16733 0.58482 0.14562 0.0
C3844 C 0.46567 0.52063 0.15202 0.0
C3845 C 0.44234 0.51494 0.15652 0.0
C3846 C 0.48459 0.54091 0.16335 0.0
C3847 C 0.47997 0.55594 0.17929 0.0
C3848 C 0.45642 0.54839 0.18675 0.0
C3849 C 0.43788 0.52799 0.17518 0.0
C3850 C 0.50934 0.54782 0.15533 0.0
C3851 C 0.45053 0.56351 0.20399 0.0
C3852 C 0.52821 0.61444 0.20838 0.0
C3853 C 0.52911 0.63052 0.18949 0.0
C3854 C 0.51297 0.58993 0.2051 0.0
C3855 C 0.49834 0.5814 0.18243 0.0
C3856 C 0.50018 0.5976 0.16277 0.0
C3857 C 0.51549 0.62179 0.16654 0.0
C3858 C 0.5118 0.57337 0.22642 0.0
C3859 C 0.48527 0.58951 0.13806 0.0
H3860 H 0.46923 0.51088 0.13717 0.0
H3861 H 0.41987 0.52396 0.17828 0.0
H3862 H 0.51496 0.56075 0.13897 0.0
H3863 H 0.52181 0.55629 0.17195 0.0
H3864 H 0.51052 0.53235 0.1484 0.0
H3865 H 0.43237 0.55342 0.21194 0.0
H3866 H 0.46309 0.57102 0.22068 0.0
H3867 H 0.45194 0.57842 0.19219 0.0
H3868 H 0.53859 0.62108 0.22623 0.0
H3869 H 0.51643 0.6341 0.15168 0.0
H3870 H 0.51068 0.55727 0.21779 0.0
H3871 H 0.49573 0.56779 0.2384 0.0
H3872 H 0.52732 0.58188 0.23976 0.0
H3873 H 0.48796 0.57621 0.1275 0.0
H3874 H 0.4894 0.60428 0.12433 0.0
H3875 H 0.46636 0.58103 0.14337 0.0
C3876 C 0.12655 0.60054 0.70864 0.0
C3877 C 0.13283 0.62067 0.69341 0.0
C3878 C 0.1197 0.57861 0.69678 0.0
C3879 C 0.11986 0.57691 0.66895 0.0
C3880 C 0.12472 0.59692 0.65349 0.0
C3881 C 0.13095 0.61853 0.66595 0.0
C3882 C 0.114 0.55772 0.71409 0.0
C3883 C 0.12535 0.59608 0.62379 0.0
C3884 C 0.14007 0.53728 0.63772 0.0
C3885 C 0.11949 0.51978 0.62566 0.0
C3886 C 0.14012 0.55528 0.6528 0.0
C3887 C 0.11893 0.55578 0.6562 0.0
C3888 C 0.09766 0.53707 0.64575 0.0
C3889 C 0.09823 0.51939 0.63027 0.0
C3890 C 0.1633 0.57477 0.66333 0.0
C3891 C 0.07459 0.53652 0.64943 0.0
H3892 H 0.12811 0.60229 0.72991 0.0
H3893 H 0.13614 0.63418 0.65423 0.0
H3894 H 0.0985 0.54158 0.70631 0.0
H3895 H 0.1291 0.55454 0.71423 0.0
H3896 H 0.11037 0.56063 0.73474 0.0
H3897 H 0.12694 0.6122 0.61461 0.0
H3898 H 0.14062 0.59432 0.61755 0.0
H3899 H 0.10924 0.58051 0.61612 0.0
H3900 H 0.15661 0.53789 0.63365 0.0
H3901 H 0.08241 0.50629 0.62034 0.0
H3902 H 0.16199 0.57716 0.68479 0.0
H3903 H 0.1677 0.59163 0.65356 0.0
H3904 H 0.17798 0.57123 0.65996 0.0
H3905 H 0.07285 0.54134 0.66996 0.0
H3906 H 0.05934 0.51889 0.6448 0.0
H3907 H 0.07392 0.54961 0.63614 0.0
C3908 C 0.41757 0.52628 0.70506 0.0
C3909 C 0.39922 0.53032 0.69801 0.0
C3910 C 0.44067 0.5411 0.69605 0.0
C3911 C 0.44539 0.56011 0.67908 0.0
C3912 C 0.4268 0.56419 0.67189 0.0
C3913 C 0.40403 0.54946 0.6818 0.0
C3914 C 0.46001 0.5365 0.70478 0.0
C3915 C 0.43086 0.58387 0.65333 0.0
C3916 C 0.50615 0.6122 0.6634 0.0
C3917 C 0.51002 0.60567 0.63844 0.0
C3918 C 0.48589 0.59679 0.67797 0.0
C3919 C 0.46919 0.57465 0.66703 0.0
C3920 C 0.47419 0.56741 0.64277 0.0
C3921 C 0.49457 0.58294 0.62892 0.0
C3922 C 0.48152 0.60489 0.70413 0.0
C3923 C 0.45701 0.54413 0.63017 0.0
H3924 H 0.41395 0.51192 0.7183 0.0
H3925 H 0.38983 0.55267 0.67671 0.0
H3926 H 0.46747 0.53216 0.68747 0.0
H3927 H 0.47454 0.55261 0.71397 0.0
H3928 H 0.45369 0.52178 0.71913 0.0
H3929 H 0.41461 0.58478 0.64985 0.0
H3930 H 0.44459 0.60102 0.66144 0.0
H3931 H 0.43734 0.58132 0.6341 0.0
H3932 H 0.5179 0.62988 0.67062 0.0
H3933 H 0.49758 0.57792 0.60953 0.0
H3934 H 0.47487 0.59042 0.71879 0.0
H3935 H 0.46787 0.61002 0.70168 0.0
H3936 H 0.49772 0.62029 0.71203 0.0
H3937 H 0.45155 0.52951 0.64444 0.0
H3938 H 0.46451 0.54023 0.61251 0.0
H3939 H 0.44094 0.5445 0.6241 0.0
C3940 C 0.46409 0.94421 0.62298 0.0
C3941 C 0.44093 0.92774 0.63008 0.0
C3942 C 0.48344 0.94503 0.63611 0.0
C3943 C 0.47948 0.92874 0.65657 0.0
C3944 C 0.45613 0.9137 0.66544 0.0
C3945 C 0.43716 0.91335 0.65203 0.0
C3946 C 0.50793 0.96165 0.62619 0.0
C3947 C 0.45094 0.89607 0.6872 0.0
C3948 C 0.51803 0.90073 0.66267 0.0
C3949 C 0.5306 0.91092 0.68586 0.0
C3950 C 0.50232 0.90735 0.65223 0.0
C3951 C 0.49883 0.92445 0.66552 0.0
C3952 C 0.51242 0.93565 0.68833 0.0
C3953 C 0.5281 0.92865 0.6983 0.0
C3954 C 0.48843 0.89499 0.62778 0.0
C3955 C 0.50942 0.95399 0.70306 0.0
H3956 H 0.4671 0.95498 0.60562 0.0
H3957 H 0.41929 0.90012 0.65706 0.0
H3958 H 0.52048 0.96952 0.64286 0.0
H3959 H 0.51399 0.95172 0.61382 0.0
H3960 H 0.5085 0.97604 0.61407 0.0
H3961 H 0.43251 0.88812 0.69429 0.0
H3962 H 0.45376 0.88173 0.67978 0.0
H3963 H 0.46303 0.90449 0.70412 0.0
H3964 H 0.51972 0.88671 0.65345 0.0
H3965 H 0.53748 0.93611 0.71658 0.0
H3966 H 0.49006 0.90807 0.61285 0.0
H3967 H 0.4695 0.88411 0.63282 0.0
H3968 H 0.49437 0.88335 0.61881 0.0
H3969 H 0.50923 0.96697 0.68918 0.0
H3970 H 0.52361 0.9635 0.71783 0.0
H3971 H 0.49227 0.94534 0.71349 0.0
C3972 C 0.20192 0.41727 0.18121 0.0
C3973 C 0.19554 0.43428 0.17553 0.0
C3974 C 0.22215 0.41848 0.16995 0.0
C3975 C 0.23644 0.43728 0.15271 0.0
C3976 C 0.22838 0.45274 0.14449 0.0
C3977 C 0.20811 0.45112 0.15611 0.0
C3978 C 0.22967 0.40133 0.17908 0.0
C3979 C 0.24274 0.4729 0.12598 0.0
C3980 C 0.30296 0.4675 0.16091 0.0
C3981 C 0.31017 0.46074 0.1381 0.0
C3982 C 0.2791 0.45938 0.16611 0.0
C3983 C 0.26165 0.44392 0.14807 0.0
C3984 C 0.26867 0.4361 0.12552 0.0
C3985 C 0.29287 0.44458 0.1208 0.0
C3986 C 0.27267 0.46806 0.19062 0.0
C3987 C 0.25075 0.41955 0.10586 0.0
H3988 H 0.19261 0.40452 0.19663 0.0
H3989 H 0.20366 0.4647 0.15214 0.0
H3990 H 0.23747 0.39634 0.16265 0.0
H3991 H 0.24331 0.40978 0.19464 0.0
H3992 H 0.21468 0.38512 0.18745 0.0
H3993 H 0.2323 0.48057 0.11785 0.0
H3994 H 0.25806 0.48697 0.1368 0.0
H3995 H 0.24963 0.46707 0.10939 0.0
H3996 H 0.31618 0.47965 0.17458 0.0
H3997 H 0.29828 0.43938 0.10304 0.0
H3998 H 0.25985 0.45291 0.20261 0.0
H3999 H 0.26414 0.4784 0.185 0.0
H4000 H 0.28824 0.47935 0.20311 0.0
H4001 H 0.2358 0.40464 0.1161 0.0
H4002 H 0.25851 0.41242 0.09164 0.0
H4003 H 0.24355 0.42907 0.09465 0.0
C4004 C 0.61732 0.78478 0.16419 0.0
C4005 C 0.5963 0.76342 0.16766 0.0
C4006 C 0.6174 0.80392 0.15126 0.0
C4007 C 0.59589 0.80167 0.14215 0.0
C4008 C 0.575 0.7795 0.14397 0.0
C4009 C 0.57551 0.76072 0.15662 0.0
C4010 C 0.64018 0.82699 0.14917 0.0
C4011 C 0.55161 0.7761 0.13464 0.0
C4012 C 0.58264 0.85207 0.14169 0.0
C4013 C 0.58076 0.85494 0.11464 0.0
C4014 C 0.58918 0.83588 0.15104 0.0
C4015 C 0.59438 0.8226 0.13283 0.0
C4016 C 0.59453 0.8271 0.10552 0.0
C4017 C 0.58737 0.84293 0.09677 0.0
C4018 C 0.5886 0.83159 0.18032 0.0
C4019 C 0.6006 0.81399 0.08542 0.0
H4020 H 0.63329 0.78717 0.17341 0.0
H4021 H 0.55916 0.74439 0.15986 0.0
H4022 H 0.64165 0.83529 0.12968 0.0
H4023 H 0.64063 0.83932 0.16449 0.0
H4024 H 0.65569 0.82467 0.1521 0.0
H4025 H 0.5373 0.75744 0.13605 0.0
H4026 H 0.54668 0.78709 0.14677 0.0
H4027 H 0.55288 0.78189 0.11388 0.0
H4028 H 0.57723 0.86113 0.15545 0.0
H4029 H 0.58589 0.84518 0.07582 0.0
H4030 H 0.60493 0.83194 0.18673 0.0
H4031 H 0.57362 0.81384 0.18494 0.0
H4032 H 0.58657 0.84486 0.19193 0.0
H4033 H 0.61628 0.81301 0.09178 0.0
H4034 H 0.60409 0.82244 0.0657 0.0
H4035 H 0.58573 0.79567 0.08352 0.0
C4036 C 0.25674 0.83968 0.17512 0.0
C4037 C 0.2798 0.84424 0.17121 0.0
C4038 C 0.23755 0.82021 0.16303 0.0
C4039 C 0.24165 0.80515 0.14653 0.0
C4040 C 0.26511 0.81181 0.13961 0.0
C4041 C 0.28392 0.83114 0.15232 0.0
C4042 C 0.21294 0.81403 0.17085 0.0
C4043 C 0.2704 0.79672 0.12156 0.0
C4044 C 0.20372 0.73896 0.15483 0.0
C4045 C 0.19019 0.73213 0.13175 0.0
C4046 C 0.21966 0.76272 0.16027 0.0
C4047 C 0.22251 0.78028 0.14192 0.0
C4048 C 0.20818 0.77359 0.11899 0.0
C4049 C 0.19205 0.74954 0.11424 0.0
C4050 C 0.23412 0.76889 0.18528 0.0
C4051 C 0.21071 0.79162 0.09885 0.0
H4052 H 0.25346 0.84948 0.19017 0.0
H4053 H 0.30169 0.83436 0.14963 0.0
H4054 H 0.20065 0.80666 0.1539 0.0
H4055 H 0.20657 0.8004 0.1865 0.0
H4056 H 0.21242 0.82962 0.17867 0.0
H4057 H 0.28875 0.80648 0.11406 0.0
H4058 H 0.26809 0.78106 0.13254 0.0
H4059 H 0.25811 0.79035 0.10454 0.0
H4060 H 0.20211 0.72549 0.16845 0.0
H4061 H 0.18174 0.74424 0.09624 0.0
H4062 H 0.23253 0.78258 0.19651 0.0
H4063 H 0.25297 0.77624 0.18028 0.0
H4064 H 0.22864 0.75336 0.19826 0.0
H4065 H 0.2122 0.8075 0.10856 0.0
H4066 H 0.19564 0.78439 0.08487 0.0
H4067 H 0.22708 0.79731 0.0874 0.0
loop_
_geom_bond_atom_site_label_1
_geom_bond_atom_site_label_2
_geom_bond_distance
_geom_bond_site_symmetry_2
_ccdc_geom_bond_type
C0 C1 1.351 . S
C0 N3 1.368 . S
C0 H5 0.931 . S
C1 C0 1.351 . S
C1 N2 1.373 . S
C1 H29 0.930 . S
N2 C1 1.373 . S
N2 C4 1.340 . S
N3 C0 1.368 . S
N3 C4 1.321 . S
N3 Co6 2.135 . S
C4 N2 1.340 . S
C4 N3 1.321 . S
C4 H28 0.930 . S
H5 C0 0.931 . S
Co6 N3 2.135 . S
Co6 N9 2.121 . S
Co6 O14 2.055 . S
Co6 O17 2.039 . S
Co6 N20 2.140 . S
C7 O8 1.227 . S
C7 O17 1.265 . S
O8 C7 1.227 . S
N9 Co6 2.121 . S
N9 C11 1.375 . S
N9 C12 1.313 . S
C10 C11 1.338 . S
C10 N13 1.377 . S
C10 H30 0.930 . S
C11 N9 1.375 . S
C11 C10 1.338 . S
C11 H15 0.931 . S
C12 N9 1.313 . S
C12 N13 1.344 . S
C12 H16 0.930 . S
N13 C10 1.377 . S
N13 C12 1.344 . S
O14 Co6 2.055 . S
O14 C18 1.253 . S
H15 C11 0.931 . S
H16 C12 0.930 . S
O17 Co6 2.039 . S
O17 C7 1.265 . S
C18 O14 1.253 . S
C18 O19 1.227 . S
O19 C18 1.227 . S
N20 Co6 2.140 . S
N20 C23 1.346 . S
N20 C24 1.345 . S
C21 C22 1.387 . S
C21 C25 1.391 . S
C22 C21 1.387 . S
C22 C23 1.369 . S
C22 H31 0.929 . S
C23 N20 1.346 . S
C23 C22 1.369 . S
C23 H26 0.928 . S
C24 N20 1.345 . S
C24 C25 1.371 . S
C24 H27 0.931 . S
C25 C21 1.391 . S
C25 C24 1.371 . S
C25 H32 0.930 . S
H26 C23 0.928 . S
H27 C24 0.931 . S
H28 C4 0.930 . S
H29 C1 0.930 . S
H30 C10 0.930 . S
H31 C22 0.929 . S
H32 C25 0.930 . S
C33 C34 1.351 1_545 S
C33 N36 1.368 . S
C33 H38 0.931 . S
C34 C33 1.351 1_565 S
C34 N35 1.373 . S
C34 H62 0.930 . S
N35 C34 1.373 . S
N35 C37 1.340 . S
N36 C33 1.368 . S
N36 C37 1.321 1_545 S
N36 Co39 2.135 . S
C37 N35 1.340 . S
C37 N36 1.321 1_565 S
C37 H61 0.930 . S
H38 C33 0.931 . S
Co39 N36 2.135 . S
Co39 N42 2.121 . S
Co39 O47 2.055 . S
Co39 O50 2.039 . S
Co39 N53 2.140 . S
C40 O41 1.227 . S
C40 O50 1.265 . S
O41 C40 1.227 . S
N42 Co39 2.121 . S
N42 C44 1.375 . S
N42 C45 1.313 . S
C43 C44 1.338 . S
C43 N46 1.377 . S
C43 H63 0.930 . S
C44 N42 1.375 . S
C44 C43 1.338 . S
C44 H48 0.931 . S
C45 N42 1.313 . S
C45 N46 1.344 . S
C45 H49 0.930 . S
N46 C43 1.377 . S
N46 C45 1.344 . S
O47 Co39 2.055 . S
O47 C51 1.253 . S
H48 C44 0.931 . S
H49 C45 0.930 . S
O50 Co39 2.039 . S
O50 C40 1.265 . S
C51 O47 1.253 . S
C51 O52 1.227 . S
O52 C51 1.227 . S
N53 Co39 2.140 . S
N53 C56 1.346 . S
N53 C57 1.345 . S
C54 C55 1.387 1_545 S
C54 C58 1.391 . S
C55 C54 1.387 1_565 S
C55 C56 1.369 1_565 S
C55 H64 0.929 . S
C56 N53 1.346 . S
C56 C55 1.369 1_545 S
C56 H59 0.928 1_545 S
C57 N53 1.345 . S
C57 C58 1.371 . S
C57 H60 0.931 . S
C58 C54 1.391 . S
C58 C57 1.371 . S
C58 H65 0.930 . S
H59 C56 0.928 1_565 S
H60 C57 0.931 . S
H61 C37 0.930 . S
H62 C34 0.930 . S
H63 C43 0.930 . S
H64 C55 0.929 . S
H65 C58 0.930 . S
C66 C67 1.351 1_655 S
C66 N69 1.368 . S
C66 H71 0.931 . S
C67 C66 1.351 1_455 S
C67 N68 1.373 . S
C67 H95 0.930 . S
N68 C67 1.373 . S
N68 C70 1.340 . S
N69 C66 1.368 . S
N69 C70 1.321 1_655 S
N69 Co72 2.135 . S
C70 N68 1.340 . S
C70 N69 1.321 1_455 S
C70 H94 0.930 . S
H71 C66 0.931 . S
Co72 N69 2.135 . S
Co72 N75 2.121 . S
Co72 O80 2.055 . S
Co72 O83 2.039 . S
Co72 N86 2.140 . S
C73 O74 1.227 . S
C73 O83 1.265 . S
O74 C73 1.227 . S
N75 Co72 2.121 . S
N75 C77 1.375 . S
N75 C78 1.313 . S
C76 C77 1.338 . S
C76 N79 1.377 . S
C76 H96 0.930 . S
C77 N75 1.375 . S
C77 C76 1.338 . S
C77 H81 0.931 . S
C78 N75 1.313 . S
C78 N79 1.344 . S
C78 H82 0.930 . S
N79 C76 1.377 . S
N79 C78 1.344 . S
O80 Co72 2.055 . S
O80 C84 1.253 . S
H81 C77 0.931 . S
H82 C78 0.930 . S
O83 Co72 2.039 . S
O83 C73 1.265 . S
C84 O80 1.253 . S
C84 O85 1.227 . S
O85 C84 1.227 . S
N86 Co72 2.140 . S
N86 C89 1.346 . S
N86 C90 1.345 . S
C87 C88 1.387 1_655 S
C87 C91 1.391 . S
C88 C87 1.387 1_455 S
C88 C89 1.369 1_455 S
C88 H97 0.929 . S
C89 N86 1.346 . S
C89 C88 1.369 1_655 S
C89 H92 0.928 1_655 S
C90 N86 1.345 . S
C90 C91 1.371 . S
C90 H93 0.931 . S
C91 C87 1.391 . S
C91 C90 1.371 . S
C91 H98 0.930 . S
H92 C89 0.928 1_455 S
H93 C90 0.931 . S
H94 C70 0.930 . S
H95 C67 0.930 . S
H96 C76 0.930 . S
H97 C88 0.929 . S
H98 C91 0.930 . S
C99 C100 1.351 . S
C99 N102 1.368 . S
C99 H104 0.931 . S
C100 C99 1.351 . S
C100 N101 1.373 . S
C100 H128 0.930 . S
N101 C100 1.373 . S
N101 C103 1.340 . S
N102 C99 1.368 . S
N102 C103 1.321 . S
N102 Co105 2.135 . S
C103 N101 1.340 . S
C103 N102 1.321 . S
C103 H127 0.930 . S
H104 C99 0.931 . S
Co105 N102 2.135 . S
Co105 N108 2.121 . S
Co105 O113 2.055 . S
Co105 O116 2.039 . S
Co105 N119 2.140 . S
C106 O107 1.227 . S
C106 O116 1.265 . S
O107 C106 1.227 . S
N108 Co105 2.121 . S
N108 C110 1.375 . S
N108 C111 1.313 . S
C109 C110 1.338 . S
C109 N112 1.377 . S
C109 H129 0.930 . S
C110 N108 1.375 . S
C110 C109 1.338 . S
C110 H114 0.931 . S
C111 N108 1.313 . S
C111 N112 1.344 . S
C111 H115 0.930 . S
N112 C109 1.377 . S
N112 C111 1.344 . S
O113 Co105 2.055 . S
O113 C117 1.253 . S
H114 C110 0.931 . S
H115 C111 0.930 . S
O116 Co105 2.039 . S
O116 C106 1.265 . S
C117 O113 1.253 . S
C117 O118 1.227 . S
O118 C117 1.227 . S
N119 Co105 2.140 . S
N119 C122 1.346 . S
N119 C123 1.345 . S
C120 C121 1.387 . S
C120 C124 1.391 . S
C121 C120 1.387 . S
C121 C122 1.369 . S
C121 H130 0.929 . S
C122 N119 1.346 . S
C122 C121 1.369 . S
C122 H125 0.928 . S
C123 N119 1.345 . S
C123 C124 1.371 . S
C123 H126 0.931 . S
C124 C120 1.391 . S
C124 C123 1.371 . S
C124 H131 0.930 . S
H125 C122 0.928 . S
H126 C123 0.931 . S
H127 C103 0.930 . S
H128 C100 0.930 . S
H129 C109 0.930 . S
H130 C121 0.929 . S
H131 C124 0.930 . S
C132 C133 1.351 1_565 S
C132 N135 1.368 . S
C132 H137 0.931 . S
C133 C132 1.351 1_545 S
C133 N134 1.373 . S
C133 H161 0.930 . S
N134 C133 1.373 . S
N134 C136 1.340 . S
N135 C132 1.368 . S
N135 C136 1.321 1_565 S
N135 Co138 2.135 . S
C136 N134 1.340 . S
C136 N135 1.321 1_545 S
C136 H160 0.930 . S
H137 C132 0.931 . S
Co138 N135 2.135 . S
Co138 N141 2.121 . S
Co138 O146 2.055 . S
Co138 O149 2.039 . S
Co138 N152 2.140 . S
C139 O140 1.227 . S
C139 O149 1.265 . S
O140 C139 1.227 . S
N141 Co138 2.121 . S
N141 C143 1.375 . S
N141 C144 1.313 . S
C142 C143 1.338 . S
C142 N145 1.377 . S
C142 H162 0.930 . S
C143 N141 1.375 . S
C143 C142 1.338 . S
C143 H147 0.931 . S
C144 N141 1.313 . S
C144 N145 1.344 . S
C144 H148 0.930 . S
N145 C142 1.377 . S
N145 C144 1.344 . S
O146 Co138 2.055 . S
O146 C150 1.253 . S
H147 C143 0.931 . S
H148 C144 0.930 . S
O149 Co138 2.039 . S
O149 C139 1.265 . S
C150 O146 1.253 . S
C150 O151 1.227 . S
O151 C150 1.227 . S
N152 Co138 2.140 . S
N152 C155 1.346 . S
N152 C156 1.345 . S
C153 C154 1.387 1_565 S
C153 C157 1.391 . S
C154 C153 1.387 1_545 S
C154 C155 1.369 1_545 S
C154 H163 0.929 . S
C155 N152 1.346 . S
C155 C154 1.369 1_565 S
C155 H158 0.928 1_565 S
C156 N152 1.345 . S
C156 C157 1.371 . S
C156 H159 0.931 . S
C157 C153 1.391 . S
C157 C156 1.371 . S
C157 H164 0.930 . S
H158 C155 0.928 1_545 S
H159 C156 0.931 . S
H160 C136 0.930 . S
H161 C133 0.930 . S
H162 C142 0.930 . S
H163 C154 0.929 . S
H164 C157 0.930 . S
C165 C166 1.351 1_455 S
C165 N168 1.368 . S
C165 H170 0.931 . S
C166 C165 1.351 1_655 S
C166 N167 1.373 . S
C166 H194 0.930 . S
N167 C166 1.373 . S
N167 C169 1.340 . S
N168 C165 1.368 . S
N168 C169 1.321 1_455 S
N168 Co171 2.135 . S
C169 N167 1.340 . S
C169 N168 1.321 1_655 S
C169 H193 0.930 . S
H170 C165 0.931 . S
Co171 N168 2.135 . S
Co171 N174 2.121 . S
Co171 O179 2.055 . S
Co171 O182 2.039 . S
Co171 N185 2.140 . S
C172 O173 1.227 . S
C172 O182 1.265 . S
O173 C172 1.227 . S
N174 Co171 2.121 . S
N174 C176 1.375 . S
N174 C177 1.313 . S
C175 C176 1.338 . S
C175 N178 1.377 . S
C175 H195 0.930 . S
C176 N174 1.375 . S
C176 C175 1.338 . S
C176 H180 0.931 . S
C177 N174 1.313 . S
C177 N178 1.344 . S
C177 H181 0.930 . S
N178 C175 1.377 . S
N178 C177 1.344 . S
O179 Co171 2.055 . S
O179 C183 1.253 . S
H180 C176 0.931 . S
H181 C177 0.930 . S
O182 Co171 2.039 . S
O182 C172 1.265 . S
C183 O179 1.253 . S
C183 O184 1.227 . S
O184 C183 1.227 . S
N185 Co171 2.140 . S
N185 C188 1.346 . S
N185 C189 1.345 . S
C186 C187 1.387 1_455 S
C186 C190 1.391 . S
C187 C186 1.387 1_655 S
C187 C188 1.369 1_655 S
C187 H196 0.929 . S
C188 N185 1.346 . S
C188 C187 1.369 1_455 S
C188 H191 0.928 1_455 S
C189 N185 1.345 . S
C189 C190 1.371 . S
C189 H192 0.931 . S
C190 C186 1.391 . S
C190 C189 1.371 . S
C190 H197 0.930 . S
H191 C188 0.928 1_655 S
H192 C189 0.931 . S
H193 C169 0.930 . S
H194 C166 0.930 . S
H195 C175 0.930 . S
H196 C187 0.929 . S
H197 C190 0.930 . S
C198 C199 1.351 . S
C198 N201 1.368 . S
C198 H203 0.931 . S
C199 C198 1.351 . S
C199 N200 1.373 . S
C199 H227 0.930 . S
N200 C199 1.373 . S
N200 C202 1.340 . S
N201 C198 1.368 . S
N201 C202 1.321 . S
N201 Co204 2.135 . S
C202 N200 1.340 . S
C202 N201 1.321 . S
C202 H226 0.930 . S
H203 C198 0.931 . S
Co204 N201 2.135 . S
Co204 N207 2.121 . S
Co204 O212 2.055 . S
Co204 O215 2.039 . S
Co204 N218 2.140 . S
C205 O206 1.227 . S
C205 O215 1.265 . S
O206 C205 1.227 . S
N207 Co204 2.121 . S
N207 C209 1.375 . S
N207 C210 1.313 . S
C208 C209 1.338 . S
C208 N211 1.377 . S
C208 H228 0.930 . S
C209 N207 1.375 . S
C209 C208 1.338 . S
C209 H213 0.931 . S
C210 N207 1.313 . S
C210 N211 1.344 . S
C210 H214 0.930 . S
N211 C208 1.377 . S
N211 C210 1.344 . S
O212 Co204 2.055 . S
O212 C216 1.253 . S
H213 C209 0.931 . S
H214 C210 0.930 . S
O215 Co204 2.039 . S
O215 C205 1.265 . S
C216 O212 1.253 . S
C216 O217 1.227 . S
O217 C216 1.227 . S
N218 Co204 2.140 . S
N218 C221 1.346 . S
N218 C222 1.345 . S
C219 C220 1.387 . S
C219 C223 1.391 . S
C220 C219 1.387 . S
C220 C221 1.369 . S
C220 H229 0.929 . S
C221 N218 1.346 . S
C221 C220 1.369 . S
C221 H224 0.928 . S
C222 N218 1.345 . S
C222 C223 1.371 . S
C222 H225 0.931 . S
C223 C219 1.391 . S
C223 C222 1.371 . S
C223 H230 0.930 . S
H224 C221 0.928 . S
H225 C222 0.931 . S
H226 C202 0.930 . S
H227 C199 0.930 . S
H228 C208 0.930 . S
H229 C220 0.929 . S
H230 C223 0.930 . S
C231 C232 1.351 1_565 S
C231 N234 1.368 . S
C231 H236 0.931 . S
C232 C231 1.351 1_545 S
C232 N233 1.373 . S
C232 H260 0.930 . S
N233 C232 1.373 . S
N233 C235 1.340 . S
N234 C231 1.368 . S
N234 C235 1.321 1_565 S
N234 Co237 2.135 . S
C235 N233 1.340 . S
C235 N234 1.321 1_545 S
C235 H259 0.930 . S
H236 C231 0.931 . S
Co237 N234 2.135 . S
Co237 N240 2.121 . S
Co237 O245 2.055 . S
Co237 O248 2.039 . S
Co237 N251 2.140 . S
C238 O239 1.227 . S
C238 O248 1.265 . S
O239 C238 1.227 . S
N240 Co237 2.121 . S
N240 C242 1.375 . S
N240 C243 1.313 . S
C241 C242 1.338 . S
C241 N244 1.377 . S
C241 H261 0.930 . S
C242 N240 1.375 . S
C242 C241 1.338 . S
C242 H246 0.931 . S
C243 N240 1.313 . S
C243 N244 1.344 . S
C243 H247 0.930 . S
N244 C241 1.377 . S
N244 C243 1.344 . S
O245 Co237 2.055 . S
O245 C249 1.253 . S
H246 C242 0.931 . S
H247 C243 0.930 . S
O248 Co237 2.039 . S
O248 C238 1.265 . S
C249 O245 1.253 . S
C249 O250 1.227 . S
O250 C249 1.227 . S
N251 Co237 2.140 . S
N251 C254 1.346 . S
N251 C255 1.345 . S
C252 C253 1.387 1_565 S
C252 C256 1.391 . S
C253 C252 1.387 1_545 S
C253 C254 1.369 1_545 S
C253 H262 0.929 . S
C254 N251 1.346 . S
C254 C253 1.369 1_565 S
C254 H257 0.928 1_565 S
C255 N251 1.345 . S
C255 C256 1.371 . S
C255 H258 0.931 . S
C256 C252 1.391 . S
C256 C255 1.371 . S
C256 H263 0.930 . S
H257 C254 0.928 1_545 S
H258 C255 0.931 . S
H259 C235 0.930 . S
H260 C232 0.930 . S
H261 C241 0.930 . S
H262 C253 0.929 . S
H263 C256 0.930 . S
C264 C265 1.351 1_455 S
C264 N267 1.368 . S
C264 H269 0.931 . S
C265 C264 1.351 1_655 S
C265 N266 1.373 . S
C265 H293 0.930 . S
N266 C265 1.373 . S
N266 C268 1.340 . S
N267 C264 1.368 . S
N267 C268 1.321 1_455 S
N267 Co270 2.135 . S
C268 N266 1.340 . S
C268 N267 1.321 1_655 S
C268 H292 0.930 . S
H269 C264 0.931 . S
Co270 N267 2.135 . S
Co270 N273 2.121 . S
Co270 O278 2.055 . S
Co270 O281 2.039 . S
Co270 N284 2.140 . S
C271 O272 1.227 . S
C271 O281 1.265 . S
O272 C271 1.227 . S
N273 Co270 2.121 . S
N273 C275 1.375 . S
N273 C276 1.313 . S
C274 C275 1.338 . S
C274 N277 1.377 . S
C274 H294 0.930 . S
C275 N273 1.375 . S
C275 C274 1.338 . S
C275 H279 0.931 . S
C276 N273 1.313 . S
C276 N277 1.344 . S
C276 H280 0.930 . S
N277 C274 1.377 . S
N277 C276 1.344 . S
O278 Co270 2.055 . S
O278 C282 1.253 . S
H279 C275 0.931 . S
H280 C276 0.930 . S
O281 Co270 2.039 . S
O281 C271 1.265 . S
C282 O278 1.253 . S
C282 O283 1.227 . S
O283 C282 1.227 . S
N284 Co270 2.140 . S
N284 C287 1.346 . S
N284 C288 1.345 . S
C285 C286 1.387 1_455 S
C285 C289 1.391 . S
C286 C285 1.387 1_655 S
C286 C287 1.369 1_655 S
C286 H295 0.929 . S
C287 N284 1.346 . S
C287 C286 1.369 1_455 S
C287 H290 0.928 1_455 S
C288 N284 1.345 . S
C288 C289 1.371 . S
C288 H291 0.931 . S
C289 C285 1.391 . S
C289 C288 1.371 . S
C289 H296 0.930 . S
H290 C287 0.928 1_655 S
H291 C288 0.931 . S
H292 C268 0.930 . S
H293 C265 0.930 . S
H294 C274 0.930 . S
H295 C286 0.929 . S
H296 C289 0.930 . S
C297 C298 1.351 . S
C297 N300 1.368 . S
C297 H302 0.931 . S
C298 C297 1.351 . S
C298 N299 1.373 . S
C298 H326 0.930 . S
N299 C298 1.373 . S
N299 C301 1.340 . S
N300 C297 1.368 . S
N300 C301 1.321 . S
N300 Co303 2.135 . S
C301 N299 1.340 . S
C301 N300 1.321 . S
C301 H325 0.930 . S
H302 C297 0.931 . S
Co303 N300 2.135 . S
Co303 N306 2.121 . S
Co303 O311 2.055 . S
Co303 O314 2.039 . S
Co303 N317 2.140 . S
C304 O305 1.227 . S
C304 O314 1.265 . S
O305 C304 1.227 . S
N306 Co303 2.121 . S
N306 C308 1.375 . S
N306 C309 1.313 . S
C307 C308 1.338 . S
C307 N310 1.377 . S
C307 H327 0.930 . S
C308 N306 1.375 . S
C308 C307 1.338 . S
C308 H312 0.931 . S
C309 N306 1.313 . S
C309 N310 1.344 . S
C309 H313 0.930 . S
N310 C307 1.377 . S
N310 C309 1.344 . S
O311 Co303 2.055 . S
O311 C315 1.253 . S
H312 C308 0.931 . S
H313 C309 0.930 . S
O314 Co303 2.039 . S
O314 C304 1.265 . S
C315 O311 1.253 . S
C315 O316 1.227 . S
O316 C315 1.227 . S
N317 Co303 2.140 . S
N317 C320 1.346 . S
N317 C321 1.345 . S
C318 C319 1.387 . S
C318 C322 1.391 . S
C319 C318 1.387 . S
C319 C320 1.369 . S
C319 H328 0.929 . S
C320 N317 1.346 . S
C320 C319 1.369 . S
C320 H323 0.928 . S
C321 N317 1.345 . S
C321 C322 1.371 . S
C321 H324 0.931 . S
C322 C318 1.391 . S
C322 C321 1.371 . S
C322 H329 0.930 . S
H323 C320 0.928 . S
H324 C321 0.931 . S
H325 C301 0.930 . S
H326 C298 0.930 . S
H327 C307 0.930 . S
H328 C319 0.929 . S
H329 C322 0.930 . S
C330 C331 1.351 1_545 S
C330 N333 1.368 . S
C330 H335 0.931 . S
C331 C330 1.351 1_565 S
C331 N332 1.373 . S
C331 H359 0.930 . S
N332 C331 1.373 . S
N332 C334 1.340 . S
N333 C330 1.368 . S
N333 C334 1.321 1_545 S
N333 Co336 2.135 . S
C334 N332 1.340 . S
C334 N333 1.321 1_565 S
C334 H358 0.930 . S
H335 C330 0.931 . S
Co336 N333 2.135 . S
Co336 N339 2.121 . S
Co336 O344 2.055 . S
Co336 O347 2.039 . S
Co336 N350 2.140 . S
C337 O338 1.227 . S
C337 O347 1.265 . S
O338 C337 1.227 . S
N339 Co336 2.121 . S
N339 C341 1.375 . S
N339 C342 1.313 . S
C340 C341 1.338 . S
C340 N343 1.377 . S
C340 H360 0.930 . S
C341 N339 1.375 . S
C341 C340 1.338 . S
C341 H345 0.931 . S
C342 N339 1.313 . S
C342 N343 1.344 . S
C342 H346 0.930 . S
N343 C340 1.377 . S
N343 C342 1.344 . S
O344 Co336 2.055 . S
O344 C348 1.253 . S
H345 C341 0.931 . S
H346 C342 0.930 . S
O347 Co336 2.039 . S
O347 C337 1.265 . S
C348 O344 1.253 . S
C348 O349 1.227 . S
O349 C348 1.227 . S
N350 Co336 2.140 . S
N350 C353 1.346 . S
N350 C354 1.345 . S
C351 C352 1.387 1_545 S
C351 C355 1.391 . S
C352 C351 1.387 1_565 S
C352 C353 1.369 1_565 S
C352 H361 0.929 . S
C353 N350 1.346 . S
C353 C352 1.369 1_545 S
C353 H356 0.928 1_545 S
C354 N350 1.345 . S
C354 C355 1.371 . S
C354 H357 0.931 . S
C355 C351 1.391 . S
C355 C354 1.371 . S
C355 H362 0.930 . S
H356 C353 0.928 1_565 S
H357 C354 0.931 . S
H358 C334 0.930 . S
H359 C331 0.930 . S
H360 C340 0.930 . S
H361 C352 0.929 . S
H362 C355 0.930 . S
C363 C364 1.351 1_655 S
C363 N366 1.368 . S
C363 H368 0.931 . S
C364 C363 1.351 1_455 S
C364 N365 1.373 . S
C364 H392 0.930 . S
N365 C364 1.373 . S
N365 C367 1.340 . S
N366 C363 1.368 . S
N366 C367 1.321 1_655 S
N366 Co369 2.135 . S
C367 N365 1.340 . S
C367 N366 1.321 1_455 S
C367 H391 0.930 . S
H368 C363 0.931 . S
Co369 N366 2.135 . S
Co369 N372 2.121 . S
Co369 O377 2.055 . S
Co369 O380 2.039 . S
Co369 N383 2.140 . S
C370 O371 1.227 . S
C370 O380 1.265 . S
O371 C370 1.227 . S
N372 Co369 2.121 . S
N372 C374 1.375 . S
N372 C375 1.313 . S
C373 C374 1.338 . S
C373 N376 1.377 . S
C373 H393 0.930 . S
C374 N372 1.375 . S
C374 C373 1.338 . S
C374 H378 0.931 . S
C375 N372 1.313 . S
C375 N376 1.344 . S
C375 H379 0.930 . S
N376 C373 1.377 . S
N376 C375 1.344 . S
O377 Co369 2.055 . S
O377 C381 1.253 . S
H378 C374 0.931 . S
H379 C375 0.930 . S
O380 Co369 2.039 . S
O380 C370 1.265 . S
C381 O377 1.253 . S
C381 O382 1.227 . S
O382 C381 1.227 . S
N383 Co369 2.140 . S
N383 C386 1.346 . S
N383 C387 1.345 . S
C384 C385 1.387 1_655 S
C384 C388 1.391 . S
C385 C384 1.387 1_455 S
C385 C386 1.369 1_455 S
C385 H394 0.929 . S
C386 N383 1.346 . S
C386 C385 1.369 1_655 S
C386 H389 0.928 1_655 S
C387 N383 1.345 . S
C387 C388 1.371 . S
C387 H390 0.931 . S
C388 C384 1.391 . S
C388 C387 1.371 . S
C388 H395 0.930 . S
H389 C386 0.928 1_455 S
H390 C387 0.931 . S
H391 C367 0.930 . S
H392 C364 0.930 . S
H393 C373 0.930 . S
H394 C385 0.929 . S
H395 C388 0.930 . S
C396 C397 1.351 . S
C396 N399 1.368 . S
C396 H401 0.931 . S
C397 C396 1.351 . S
C397 N398 1.373 . S
C397 H425 0.930 . S
N398 C397 1.373 . S
N398 C400 1.340 . S
N399 C396 1.368 . S
N399 C400 1.321 . S
N399 Co402 2.135 . S
C400 N398 1.340 . S
C400 N399 1.321 . S
C400 H424 0.930 . S
H401 C396 0.931 . S
Co402 N399 2.135 . S
Co402 N405 2.121 . S
Co402 O410 2.055 . S
Co402 O413 2.039 . S
Co402 N416 2.140 . S
C403 O404 1.227 . S
C403 O413 1.265 . S
O404 C403 1.227 . S
N405 Co402 2.121 . S
N405 C407 1.375 . S
N405 C408 1.313 . S
C406 C407 1.338 . S
C406 N409 1.377 . S
C406 H426 0.930 . S
C407 N405 1.375 . S
C407 C406 1.338 . S
C407 H411 0.931 . S
C408 N405 1.313 . S
C408 N409 1.344 . S
C408 H412 0.930 . S
N409 C406 1.377 . S
N409 C408 1.344 . S
O410 Co402 2.055 . S
O410 C414 1.253 . S
H411 C407 0.931 . S
H412 C408 0.930 . S
O413 Co402 2.039 . S
O413 C403 1.265 . S
C414 O410 1.253 . S
C414 O415 1.227 . S
O415 C414 1.227 . S
N416 Co402 2.140 . S
N416 C419 1.346 . S
N416 C420 1.345 . S
C417 C418 1.387 . S
C417 C421 1.391 . S
C418 C417 1.387 . S
C418 C419 1.369 . S
C418 H427 0.929 . S
C419 N416 1.346 . S
C419 C418 1.369 . S
C419 H422 0.928 . S
C420 N416 1.345 . S
C420 C421 1.371 . S
C420 H423 0.931 . S
C421 C417 1.391 . S
C421 C420 1.371 . S
C421 H428 0.930 . S
H422 C419 0.928 . S
H423 C420 0.931 . S
H424 C400 0.930 . S
H425 C397 0.930 . S
H426 C406 0.930 . S
H427 C418 0.929 . S
H428 C421 0.930 . S
C429 C430 1.351 . S
C429 N432 1.368 . S
C429 H434 0.931 . S
C430 C429 1.351 . S
C430 N431 1.373 . S
C430 H458 0.930 . S
N431 C430 1.373 . S
N431 C433 1.340 . S
N432 C429 1.368 . S
N432 C433 1.321 . S
N432 Co435 2.135 . S
C433 N431 1.340 . S
C433 N432 1.321 . S
C433 H457 0.930 . S
H434 C429 0.931 . S
Co435 N432 2.135 . S
Co435 N438 2.121 . S
Co435 O443 2.055 . S
Co435 O446 2.039 . S
Co435 N449 2.140 . S
C436 O437 1.227 . S
C436 O446 1.265 . S
O437 C436 1.227 . S
N438 Co435 2.121 . S
N438 C440 1.375 . S
N438 C441 1.313 . S
C439 C440 1.338 . S
C439 N442 1.377 . S
C439 H459 0.930 . S
C440 N438 1.375 . S
C440 C439 1.338 . S
C440 H444 0.931 . S
C441 N438 1.313 . S
C441 N442 1.344 . S
C441 H445 0.930 . S
N442 C439 1.377 . S
N442 C441 1.344 . S
O443 Co435 2.055 . S
O443 C447 1.253 . S
H444 C440 0.931 . S
H445 C441 0.930 . S
O446 Co435 2.039 . S
O446 C436 1.265 . S
C447 O443 1.253 . S
C447 O448 1.227 . S
O448 C447 1.227 . S
N449 Co435 2.140 . S
N449 C452 1.346 . S
N449 C453 1.345 . S
C450 C451 1.387 . S
C450 C454 1.391 . S
C451 C450 1.387 . S
C451 C452 1.369 . S
C451 H460 0.929 . S
C452 N449 1.346 . S
C452 C451 1.369 . S
C452 H455 0.928 . S
C453 N449 1.345 . S
C453 C454 1.371 . S
C453 H456 0.931 . S
C454 C450 1.391 . S
C454 C453 1.371 . S
C454 H461 0.930 . S
H455 C452 0.928 . S
H456 C453 0.931 . S
H457 C433 0.930 . S
H458 C430 0.930 . S
H459 C439 0.930 . S
H460 C451 0.929 . S
H461 C454 0.930 . S
C462 C463 1.351 . S
C462 N465 1.368 . S
C462 H467 0.931 . S
C463 C462 1.351 . S
C463 N464 1.373 . S
C463 H491 0.930 . S
N464 C463 1.373 . S
N464 C466 1.340 . S
N465 C462 1.368 . S
N465 C466 1.321 . S
N465 Co468 2.135 . S
C466 N464 1.340 . S
C466 N465 1.321 . S
C466 H490 0.930 . S
H467 C462 0.931 . S
Co468 N465 2.135 . S
Co468 N471 2.121 . S
Co468 O476 2.055 . S
Co468 O479 2.039 . S
Co468 N482 2.140 . S
C469 O470 1.227 . S
C469 O479 1.265 . S
O470 C469 1.227 . S
N471 Co468 2.121 . S
N471 C473 1.375 . S
N471 C474 1.313 . S
C472 C473 1.338 . S
C472 N475 1.377 . S
C472 H492 0.930 . S
C473 N471 1.375 . S
C473 C472 1.338 . S
C473 H477 0.931 . S
C474 N471 1.313 . S
C474 N475 1.344 . S
C474 H478 0.930 . S
N475 C472 1.377 . S
N475 C474 1.344 . S
O476 Co468 2.055 . S
O476 C480 1.253 . S
H477 C473 0.931 . S
H478 C474 0.930 . S
O479 Co468 2.039 . S
O479 C469 1.265 . S
C480 O476 1.253 . S
C480 O481 1.227 . S
O481 C480 1.227 . S
N482 Co468 2.140 . S
N482 C485 1.346 . S
N482 C486 1.345 . S
C483 C484 1.387 . S
C483 C487 1.391 . S
C484 C483 1.387 . S
C484 C485 1.369 . S
C484 H493 0.929 . S
C485 N482 1.346 . S
C485 C484 1.369 . S
C485 H488 0.928 . S
C486 N482 1.345 . S
C486 C487 1.371 . S
C486 H489 0.931 . S
C487 C483 1.391 . S
C487 C486 1.371 . S
C487 H494 0.930 . S
H488 C485 0.928 . S
H489 C486 0.931 . S
H490 C466 0.930 . S
H491 C463 0.930 . S
H492 C472 0.930 . S
H493 C484 0.929 . S
H494 C487 0.930 . S
C495 C496 1.351 . S
C495 N498 1.368 . S
C495 H500 0.931 . S
C496 C495 1.351 . S
C496 N497 1.373 . S
C496 H524 0.930 . S
N497 C496 1.373 . S
N497 C499 1.340 . S
N498 C495 1.368 . S
N498 C499 1.321 . S
N498 Co501 2.135 . S
C499 N497 1.340 . S
C499 N498 1.321 . S
C499 H523 0.930 . S
H500 C495 0.931 . S
Co501 N498 2.135 . S
Co501 N504 2.121 . S
Co501 O509 2.055 . S
Co501 O512 2.039 . S
Co501 N515 2.140 . S
C502 O503 1.227 . S
C502 O512 1.265 . S
O503 C502 1.227 . S
N504 Co501 2.121 . S
N504 C506 1.375 . S
N504 C507 1.313 . S
C505 C506 1.338 . S
C505 N508 1.377 . S
C505 H525 0.930 . S
C506 N504 1.375 . S
C506 C505 1.338 . S
C506 H510 0.931 . S
C507 N504 1.313 . S
C507 N508 1.344 . S
C507 H511 0.930 . S
N508 C505 1.377 . S
N508 C507 1.344 . S
O509 Co501 2.055 . S
O509 C513 1.253 . S
H510 C506 0.931 . S
H511 C507 0.930 . S
O512 Co501 2.039 . S
O512 C502 1.265 . S
C513 O509 1.253 . S
C513 O514 1.227 . S
O514 C513 1.227 . S
N515 Co501 2.140 . S
N515 C518 1.346 . S
N515 C519 1.345 . S
C516 C517 1.387 . S
C516 C520 1.391 . S
C517 C516 1.387 . S
C517 C518 1.369 . S
C517 H526 0.929 . S
C518 N515 1.346 . S
C518 C517 1.369 . S
C518 H521 0.928 . S
C519 N515 1.345 . S
C519 C520 1.371 . S
C519 H522 0.931 . S
C520 C516 1.391 . S
C520 C519 1.371 . S
C520 H527 0.930 . S
H521 C518 0.928 . S
H522 C519 0.931 . S
H523 C499 0.930 . S
H524 C496 0.930 . S
H525 C505 0.930 . S
H526 C517 0.929 . S
H527 C520 0.930 . S
C528 C529 1.351 . S
C528 N531 1.368 . S
C528 H533 0.931 . S
C529 C528 1.351 . S
C529 N530 1.373 . S
C529 H557 0.930 . S
N530 C529 1.373 . S
N530 C532 1.340 . S
N531 C528 1.368 . S
N531 C532 1.321 . S
N531 Co534 2.135 . S
C532 N530 1.340 . S
C532 N531 1.321 . S
C532 H556 0.930 . S
H533 C528 0.931 . S
Co534 N531 2.135 . S
Co534 N537 2.121 . S
Co534 O542 2.055 . S
Co534 O545 2.039 . S
Co534 N548 2.140 . S
C535 O536 1.227 . S
C535 O545 1.265 . S
O536 C535 1.227 . S
N537 Co534 2.121 . S
N537 C539 1.375 . S
N537 C540 1.313 . S
C538 C539 1.338 . S
C538 N541 1.377 . S
C538 H558 0.930 . S
C539 N537 1.375 . S
C539 C538 1.338 . S
C539 H543 0.931 . S
C540 N537 1.313 . S
C540 N541 1.344 . S
C540 H544 0.930 . S
N541 C538 1.377 . S
N541 C540 1.344 . S
O542 Co534 2.055 . S
O542 C546 1.253 . S
H543 C539 0.931 . S
H544 C540 0.930 . S
O545 Co534 2.039 . S
O545 C535 1.265 . S
C546 O542 1.253 . S
C546 O547 1.227 . S
O547 C546 1.227 . S
N548 Co534 2.140 . S
N548 C551 1.346 . S
N548 C552 1.345 . S
C549 C550 1.387 . S
C549 C553 1.391 . S
C550 C549 1.387 . S
C550 C551 1.369 . S
C550 H559 0.929 . S
C551 N548 1.346 . S
C551 C550 1.369 . S
C551 H554 0.928 . S
C552 N548 1.345 . S
C552 C553 1.371 . S
C552 H555 0.931 . S
C553 C549 1.391 . S
C553 C552 1.371 . S
C553 H560 0.930 . S
H554 C551 0.928 . S
H555 C552 0.931 . S
H556 C532 0.930 . S
H557 C529 0.930 . S
H558 C538 0.930 . S
H559 C550 0.929 . S
H560 C553 0.930 . S
C561 C562 1.351 . S
C561 N564 1.368 . S
C561 H566 0.931 . S
C562 C561 1.351 . S
C562 N563 1.373 . S
C562 H590 0.930 . S
N563 C562 1.373 . S
N563 C565 1.340 . S
N564 C561 1.368 . S
N564 C565 1.321 . S
N564 Co567 2.135 . S
C565 N563 1.340 . S
C565 N564 1.321 . S
C565 H589 0.930 . S
H566 C561 0.931 . S
Co567 N564 2.135 . S
Co567 N570 2.121 . S
Co567 O575 2.055 . S
Co567 O578 2.039 . S
Co567 N581 2.140 . S
C568 O569 1.227 . S
C568 O578 1.265 . S
O569 C568 1.227 . S
N570 Co567 2.121 . S
N570 C572 1.375 . S
N570 C573 1.313 . S
C571 C572 1.338 . S
C571 N574 1.377 . S
C571 H591 0.930 . S
C572 N570 1.375 . S
C572 C571 1.338 . S
C572 H576 0.931 . S
C573 N570 1.313 . S
C573 N574 1.344 . S
C573 H577 0.930 . S
N574 C571 1.377 . S
N574 C573 1.344 . S
O575 Co567 2.055 . S
O575 C579 1.253 . S
H576 C572 0.931 . S
H577 C573 0.930 . S
O578 Co567 2.039 . S
O578 C568 1.265 . S
C579 O575 1.253 . S
C579 O580 1.227 . S
O580 C579 1.227 . S
N581 Co567 2.140 . S
N581 C584 1.346 . S
N581 C585 1.345 . S
C582 C583 1.387 . S
C582 C586 1.391 . S
C583 C582 1.387 . S
C583 C584 1.369 . S
C583 H592 0.929 . S
C584 N581 1.346 . S
C584 C583 1.369 . S
C584 H587 0.928 . S
C585 N581 1.345 . S
C585 C586 1.371 . S
C585 H588 0.931 . S
C586 C582 1.391 . S
C586 C585 1.371 . S
C586 H593 0.930 . S
H587 C584 0.928 . S
H588 C585 0.931 . S
H589 C565 0.930 . S
H590 C562 0.930 . S
H591 C571 0.930 . S
H592 C583 0.929 . S
H593 C586 0.930 . S
C594 C595 1.351 . S
C594 N597 1.368 . S
C594 H599 0.931 . S
C595 C594 1.351 . S
C595 N596 1.373 . S
C595 H623 0.930 . S
N596 C595 1.373 . S
N596 C598 1.340 . S
N597 C594 1.368 . S
N597 C598 1.321 . S
N597 Co600 2.135 . S
C598 N596 1.340 . S
C598 N597 1.321 . S
C598 H622 0.930 . S
H599 C594 0.931 . S
Co600 N597 2.135 . S
Co600 N603 2.121 . S
Co600 O608 2.055 . S
Co600 O611 2.039 . S
Co600 N614 2.140 . S
C601 O602 1.227 . S
C601 O611 1.265 . S
O602 C601 1.227 . S
N603 Co600 2.121 . S
N603 C605 1.375 . S
N603 C606 1.313 . S
C604 C605 1.338 . S
C604 N607 1.377 . S
C604 H624 0.930 . S
C605 N603 1.375 . S
C605 C604 1.338 . S
C605 H609 0.931 . S
C606 N603 1.313 . S
C606 N607 1.344 . S
C606 H610 0.930 . S
N607 C604 1.377 . S
N607 C606 1.344 . S
O608 Co600 2.055 . S
O608 C612 1.253 . S
H609 C605 0.931 . S
H610 C606 0.930 . S
O611 Co600 2.039 . S
O611 C601 1.265 . S
C612 O608 1.253 . S
C612 O613 1.227 . S
O613 C612 1.227 . S
N614 Co600 2.140 . S
N614 C617 1.346 . S
N614 C618 1.345 . S
C615 C616 1.387 . S
C615 C619 1.391 . S
C616 C615 1.387 . S
C616 C617 1.369 . S
C616 H625 0.929 . S
C617 N614 1.346 . S
C617 C616 1.369 . S
C617 H620 0.928 . S
C618 N614 1.345 . S
C618 C619 1.371 . S
C618 H621 0.931 . S
C619 C615 1.391 . S
C619 C618 1.371 . S
C619 H626 0.930 . S
H620 C617 0.928 . S
H621 C618 0.931 . S
H622 C598 0.930 . S
H623 C595 0.930 . S
H624 C604 0.930 . S
H625 C616 0.929 . S
H626 C619 0.930 . S
C627 C628 1.351 . S
C627 N630 1.368 . S
C627 H632 0.931 . S
C628 C627 1.351 . S
C628 N629 1.373 . S
C628 H656 0.930 . S
N629 C628 1.373 . S
N629 C631 1.340 . S
N630 C627 1.368 . S
N630 C631 1.321 . S
N630 Co633 2.135 . S
C631 N629 1.340 . S
C631 N630 1.321 . S
C631 H655 0.930 . S
H632 C627 0.931 . S
Co633 N630 2.135 . S
Co633 N636 2.121 . S
Co633 O641 2.055 . S
Co633 O644 2.039 . S
Co633 N647 2.140 . S
C634 O635 1.227 . S
C634 O644 1.265 . S
O635 C634 1.227 . S
N636 Co633 2.121 . S
N636 C638 1.375 . S
N636 C639 1.313 . S
C637 C638 1.338 . S
C637 N640 1.377 . S
C637 H657 0.930 . S
C638 N636 1.375 . S
C638 C637 1.338 . S
C638 H642 0.931 . S
C639 N636 1.313 . S
C639 N640 1.344 . S
C639 H643 0.930 . S
N640 C637 1.377 . S
N640 C639 1.344 . S
O641 Co633 2.055 . S
O641 C645 1.253 . S
H642 C638 0.931 . S
H643 C639 0.930 . S
O644 Co633 2.039 . S
O644 C634 1.265 . S
C645 O641 1.253 . S
C645 O646 1.227 . S
O646 C645 1.227 . S
N647 Co633 2.140 . S
N647 C650 1.346 . S
N647 C651 1.345 . S
C648 C649 1.387 . S
C648 C652 1.391 . S
C649 C648 1.387 . S
C649 C650 1.369 . S
C649 H658 0.929 . S
C650 N647 1.346 . S
C650 C649 1.369 . S
C650 H653 0.928 . S
C651 N647 1.345 . S
C651 C652 1.371 . S
C651 H654 0.931 . S
C652 C648 1.391 . S
C652 C651 1.371 . S
C652 H659 0.930 . S
H653 C650 0.928 . S
H654 C651 0.931 . S
H655 C631 0.930 . S
H656 C628 0.930 . S
H657 C637 0.930 . S
H658 C649 0.929 . S
H659 C652 0.930 . S
C660 C661 1.351 . S
C660 N663 1.368 . S
C660 H665 0.931 . S
C661 C660 1.351 . S
C661 N662 1.373 . S
C661 H689 0.930 . S
N662 C661 1.373 . S
N662 C664 1.340 . S
N663 C660 1.368 . S
N663 C664 1.321 . S
N663 Co666 2.135 . S
C664 N662 1.340 . S
C664 N663 1.321 . S
C664 H688 0.930 . S
H665 C660 0.931 . S
Co666 N663 2.135 . S
Co666 N669 2.121 . S
Co666 O674 2.055 . S
Co666 O677 2.039 . S
Co666 N680 2.140 . S
C667 O668 1.227 . S
C667 O677 1.265 . S
O668 C667 1.227 . S
N669 Co666 2.121 . S
N669 C671 1.375 . S
N669 C672 1.313 . S
C670 C671 1.338 . S
C670 N673 1.377 . S
C670 H690 0.930 . S
C671 N669 1.375 . S
C671 C670 1.338 . S
C671 H675 0.931 . S
C672 N669 1.313 . S
C672 N673 1.344 . S
C672 H676 0.930 . S
N673 C670 1.377 . S
N673 C672 1.344 . S
O674 Co666 2.055 . S
O674 C678 1.253 . S
H675 C671 0.931 . S
H676 C672 0.930 . S
O677 Co666 2.039 . S
O677 C667 1.265 . S
C678 O674 1.253 . S
C678 O679 1.227 . S
O679 C678 1.227 . S
N680 Co666 2.140 . S
N680 C683 1.346 . S
N680 C684 1.345 . S
C681 C682 1.387 . S
C681 C685 1.391 . S
C682 C681 1.387 . S
C682 C683 1.369 . S
C682 H691 0.929 . S
C683 N680 1.346 . S
C683 C682 1.369 . S
C683 H686 0.928 . S
C684 N680 1.345 . S
C684 C685 1.371 . S
C684 H687 0.931 . S
C685 C681 1.391 . S
C685 C684 1.371 . S
C685 H692 0.930 . S
H686 C683 0.928 . S
H687 C684 0.931 . S
H688 C664 0.930 . S
H689 C661 0.930 . S
H690 C670 0.930 . S
H691 C682 0.929 . S
H692 C685 0.930 . S
C693 C694 1.351 . S
C693 N696 1.368 . S
C693 H698 0.931 . S
C694 C693 1.351 . S
C694 N695 1.373 . S
C694 H722 0.930 . S
N695 C694 1.373 . S
N695 C697 1.340 . S
N696 C693 1.368 . S
N696 C697 1.321 . S
N696 Co699 2.135 . S
C697 N695 1.340 . S
C697 N696 1.321 . S
C697 H721 0.930 . S
H698 C693 0.931 . S
Co699 N696 2.135 . S
Co699 N702 2.121 . S
Co699 O707 2.055 . S
Co699 O710 2.039 . S
Co699 N713 2.140 . S
C700 O701 1.227 . S
C700 O710 1.265 . S
O701 C700 1.227 . S
N702 Co699 2.121 . S
N702 C704 1.375 . S
N702 C705 1.313 . S
C703 C704 1.338 . S
C703 N706 1.377 . S
C703 H723 0.930 . S
C704 N702 1.375 . S
C704 C703 1.338 . S
C704 H708 0.931 . S
C705 N702 1.313 . S
C705 N706 1.344 . S
C705 H709 0.930 . S
N706 C703 1.377 . S
N706 C705 1.344 . S
O707 Co699 2.055 . S
O707 C711 1.253 . S
H708 C704 0.931 . S
H709 C705 0.930 . S
O710 Co699 2.039 . S
O710 C700 1.265 . S
C711 O707 1.253 . S
C711 O712 1.227 . S
O712 C711 1.227 . S
N713 Co699 2.140 . S
N713 C716 1.346 . S
N713 C717 1.345 . S
C714 C715 1.387 1_554 S
C714 C718 1.397 . S
C715 C714 1.387 1_556 S
C715 C716 1.369 . S
C715 H724 0.929 . S
C716 N713 1.346 . S
C716 C715 1.369 . S
C716 H719 0.928 . S
C717 N713 1.345 . S
C717 C718 1.351 1_556 S
C717 H720 0.931 . S
C718 C714 1.397 . S
C718 C717 1.351 1_554 S
C718 H725 0.945 . S
H719 C716 0.928 . S
H720 C717 0.931 . S
H721 C697 0.930 . S
H722 C694 0.930 . S
H723 C703 0.930 . S
H724 C715 0.929 . S
H725 C718 0.945 . S
C726 C727 1.351 . S
C726 N729 1.368 . S
C726 H731 0.931 . S
C727 C726 1.351 . S
C727 N728 1.373 . S
C727 H755 0.930 . S
N728 C727 1.373 . S
N728 C730 1.340 . S
N729 C726 1.368 . S
N729 C730 1.321 . S
N729 Co732 2.135 . S
C730 N728 1.340 . S
C730 N729 1.321 . S
C730 H754 0.930 . S
H731 C726 0.931 . S
Co732 N729 2.135 . S
Co732 N735 2.121 . S
Co732 O740 2.055 . S
Co732 O743 2.039 . S
Co732 N746 2.140 . S
C733 O734 1.227 . S
C733 O743 1.265 . S
O734 C733 1.227 . S
N735 Co732 2.121 . S
N735 C737 1.375 . S
N735 C738 1.313 . S
C736 C737 1.338 . S
C736 N739 1.377 . S
C736 H756 0.930 . S
C737 N735 1.375 . S
C737 C736 1.338 . S
C737 H741 0.931 . S
C738 N735 1.313 . S
C738 N739 1.344 . S
C738 H742 0.930 . S
N739 C736 1.377 . S
N739 C738 1.344 . S
O740 Co732 2.055 . S
O740 C744 1.253 . S
H741 C737 0.931 . S
H742 C738 0.930 . S
O743 Co732 2.039 . S
O743 C733 1.265 . S
C744 O740 1.253 . S
C744 O745 1.227 . S
O745 C744 1.227 . S
N746 Co732 2.140 . S
N746 C749 1.346 . S
N746 C750 1.345 . S
C747 C748 1.387 1_554 S
C747 C751 1.397 . S
C748 C747 1.387 1_556 S
C748 C749 1.369 . S
C748 H757 0.929 . S
C749 N746 1.346 . S
C749 C748 1.369 . S
C749 H752 0.928 . S
C750 N746 1.345 . S
C750 C751 1.351 1_556 S
C750 H753 0.931 . S
C751 C747 1.397 . S
C751 C750 1.351 1_554 S
C751 H758 0.945 . S
H752 C749 0.928 . S
H753 C750 0.931 . S
H754 C730 0.930 . S
H755 C727 0.930 . S
H756 C736 0.930 . S
H757 C748 0.929 . S
H758 C751 0.945 . S
C759 C760 1.351 . S
C759 N762 1.368 . S
C759 H764 0.931 . S
C760 C759 1.351 . S
C760 N761 1.373 . S
C760 H788 0.930 . S
N761 C760 1.373 . S
N761 C763 1.340 . S
N762 C759 1.368 . S
N762 C763 1.321 . S
N762 Co765 2.135 . S
C763 N761 1.340 . S
C763 N762 1.321 . S
C763 H787 0.930 . S
H764 C759 0.931 . S
Co765 N762 2.135 . S
Co765 N768 2.121 . S
Co765 O773 2.055 . S
Co765 O776 2.039 . S
Co765 N779 2.140 . S
C766 O767 1.227 . S
C766 O776 1.265 . S
O767 C766 1.227 . S
N768 Co765 2.121 . S
N768 C770 1.375 . S
N768 C771 1.313 . S
C769 C770 1.338 . S
C769 N772 1.377 . S
C769 H789 0.930 . S
C770 N768 1.375 . S
C770 C769 1.338 . S
C770 H774 0.931 . S
C771 N768 1.313 . S
C771 N772 1.344 . S
C771 H775 0.930 . S
N772 C769 1.377 . S
N772 C771 1.344 . S
O773 Co765 2.055 . S
O773 C777 1.253 . S
H774 C770 0.931 . S
H775 C771 0.930 . S
O776 Co765 2.039 . S
O776 C766 1.265 . S
C777 O773 1.253 . S
C777 O778 1.227 . S
O778 C777 1.227 . S
N779 Co765 2.140 . S
N779 C782 1.346 . S
N779 C783 1.345 . S
C780 C781 1.387 1_554 S
C780 C784 1.397 . S
C781 C780 1.387 1_556 S
C781 C782 1.369 . S
C781 H790 0.929 . S
C782 N779 1.346 . S
C782 C781 1.369 . S
C782 H785 0.928 . S
C783 N779 1.345 . S
C783 C784 1.351 1_556 S
C783 H786 0.931 . S
C784 C780 1.397 . S
C784 C783 1.351 1_554 S
C784 H791 0.945 . S
H785 C782 0.928 . S
H786 C783 0.931 . S
H787 C763 0.930 . S
H788 C760 0.930 . S
H789 C769 0.930 . S
H790 C781 0.929 . S
H791 C784 0.945 . S
C792 C793 1.351 . S
C792 N795 1.368 . S
C792 H797 0.931 . S
C793 C792 1.351 . S
C793 N794 1.373 . S
C793 H821 0.930 . S
N794 C793 1.373 . S
N794 C796 1.340 . S
N795 C792 1.368 . S
N795 C796 1.321 . S
N795 Co798 2.135 . S
C796 N794 1.340 . S
C796 N795 1.321 . S
C796 H820 0.930 . S
H797 C792 0.931 . S
Co798 N795 2.135 . S
Co798 N801 2.121 . S
Co798 O806 2.055 . S
Co798 O809 2.039 . S
Co798 N812 2.140 . S
C799 O800 1.227 . S
C799 O809 1.265 . S
O800 C799 1.227 . S
N801 Co798 2.121 . S
N801 C803 1.375 . S
N801 C804 1.313 . S
C802 C803 1.338 . S
C802 N805 1.377 . S
C802 H822 0.930 . S
C803 N801 1.375 . S
C803 C802 1.338 . S
C803 H807 0.931 . S
C804 N801 1.313 . S
C804 N805 1.344 . S
C804 H808 0.930 . S
N805 C802 1.377 . S
N805 C804 1.344 . S
O806 Co798 2.055 . S
O806 C810 1.253 . S
H807 C803 0.931 . S
H808 C804 0.930 . S
O809 Co798 2.039 . S
O809 C799 1.265 . S
C810 O806 1.253 . S
C810 O811 1.227 . S
O811 C810 1.227 . S
N812 Co798 2.140 . S
N812 C815 1.346 . S
N812 C816 1.345 . S
C813 C814 1.387 . S
C813 C817 1.391 . S
C814 C813 1.387 . S
C814 C815 1.369 . S
C814 H823 0.929 . S
C815 N812 1.346 . S
C815 C814 1.369 . S
C815 H818 0.928 . S
C816 N812 1.345 . S
C816 C817 1.371 . S
C816 H819 0.931 . S
C817 C813 1.391 . S
C817 C816 1.371 . S
C817 H824 0.930 . S
H818 C815 0.928 . S
H819 C816 0.931 . S
H820 C796 0.930 . S
H821 C793 0.930 . S
H822 C802 0.930 . S
H823 C814 0.929 . S
H824 C817 0.930 . S
C825 C826 1.351 . S
C825 N828 1.368 . S
C825 H830 0.931 . S
C826 C825 1.351 . S
C826 N827 1.373 . S
C826 H854 0.930 . S
N827 C826 1.373 . S
N827 C829 1.340 . S
N828 C825 1.368 . S
N828 C829 1.321 . S
N828 Co831 2.135 . S
C829 N827 1.340 . S
C829 N828 1.321 . S
C829 H853 0.930 . S
H830 C825 0.931 . S
Co831 N828 2.135 . S
Co831 N834 2.121 . S
Co831 O839 2.055 . S
Co831 O842 2.039 . S
Co831 N845 2.140 . S
C832 O833 1.227 . S
C832 O842 1.265 . S
O833 C832 1.227 . S
N834 Co831 2.121 . S
N834 C836 1.375 . S
N834 C837 1.313 . S
C835 C836 1.338 . S
C835 N838 1.377 . S
C835 H855 0.930 . S
C836 N834 1.375 . S
C836 C835 1.338 . S
C836 H840 0.931 . S
C837 N834 1.313 . S
C837 N838 1.344 . S
C837 H841 0.930 . S
N838 C835 1.377 . S
N838 C837 1.344 . S
O839 Co831 2.055 . S
O839 C843 1.253 . S
H840 C836 0.931 . S
H841 C837 0.930 . S
O842 Co831 2.039 . S
O842 C832 1.265 . S
C843 O839 1.253 . S
C843 O844 1.227 . S
O844 C843 1.227 . S
N845 Co831 2.140 . S
N845 C848 1.346 . S
N845 C849 1.345 . S
C846 C847 1.387 . S
C846 C850 1.391 . S
C847 C846 1.387 . S
C847 C848 1.369 . S
C847 H856 0.929 . S
C848 N845 1.346 . S
C848 C847 1.369 . S
C848 H851 0.928 . S
C849 N845 1.345 . S
C849 C850 1.371 . S
C849 H852 0.931 . S
C850 C846 1.391 . S
C850 C849 1.371 . S
C850 H857 0.930 . S
H851 C848 0.928 . S
H852 C849 0.931 . S
H853 C829 0.930 . S
H854 C826 0.930 . S
H855 C835 0.930 . S
H856 C847 0.929 . S
H857 C850 0.930 . S
C858 C859 1.351 . S
C858 N861 1.368 . S
C858 H863 0.931 . S
C859 C858 1.351 . S
C859 N860 1.373 . S
C859 H887 0.930 . S
N860 C859 1.373 . S
N860 C862 1.340 . S
N861 C858 1.368 . S
N861 C862 1.321 . S
N861 Co864 2.135 . S
C862 N860 1.340 . S
C862 N861 1.321 . S
C862 H886 0.930 . S
H863 C858 0.931 . S
Co864 N861 2.135 . S
Co864 N867 2.121 . S
Co864 O872 2.055 . S
Co864 O875 2.039 . S
Co864 N878 2.140 . S
C865 O866 1.227 . S
C865 O875 1.265 . S
O866 C865 1.227 . S
N867 Co864 2.121 . S
N867 C869 1.375 . S
N867 C870 1.313 . S
C868 C869 1.338 . S
C868 N871 1.377 . S
C868 H888 0.930 . S
C869 N867 1.375 . S
C869 C868 1.338 . S
C869 H873 0.931 . S
C870 N867 1.313 . S
C870 N871 1.344 . S
C870 H874 0.930 . S
N871 C868 1.377 . S
N871 C870 1.344 . S
O872 Co864 2.055 . S
O872 C876 1.253 . S
H873 C869 0.931 . S
H874 C870 0.930 . S
O875 Co864 2.039 . S
O875 C865 1.265 . S
C876 O872 1.253 . S
C876 O877 1.227 . S
O877 C876 1.227 . S
N878 Co864 2.140 . S
N878 C881 1.346 . S
N878 C882 1.345 . S
C879 C880 1.387 . S
C879 C883 1.391 . S
C880 C879 1.387 . S
C880 C881 1.369 . S
C880 H889 0.929 . S
C881 N878 1.346 . S
C881 C880 1.369 . S
C881 H884 0.928 . S
C882 N878 1.345 . S
C882 C883 1.371 . S
C882 H885 0.931 . S
C883 C879 1.391 . S
C883 C882 1.371 . S
C883 H890 0.930 . S
H884 C881 0.928 . S
H885 C882 0.931 . S
H886 C862 0.930 . S
H887 C859 0.930 . S
H888 C868 0.930 . S
H889 C880 0.929 . S
H890 C883 0.930 . S
C891 C892 1.351 . S
C891 N894 1.368 . S
C891 H896 0.931 . S
C892 C891 1.351 . S
C892 N893 1.373 . S
C892 H920 0.930 . S
N893 C892 1.373 . S
N893 C895 1.340 . S
N894 C891 1.368 . S
N894 C895 1.321 . S
N894 Co897 2.135 . S
C895 N893 1.340 . S
C895 N894 1.321 . S
C895 H919 0.930 . S
H896 C891 0.931 . S
Co897 N894 2.135 . S
Co897 N900 2.121 . S
Co897 O905 2.055 . S
Co897 O908 2.039 . S
Co897 N911 2.140 . S
C898 O899 1.227 . S
C898 O908 1.265 . S
O899 C898 1.227 . S
N900 Co897 2.121 . S
N900 C902 1.375 . S
N900 C903 1.313 . S
C901 C902 1.338 . S
C901 N904 1.377 . S
C901 H921 0.930 . S
C902 N900 1.375 . S
C902 C901 1.338 . S
C902 H906 0.931 . S
C903 N900 1.313 . S
C903 N904 1.344 . S
C903 H907 0.930 . S
N904 C901 1.377 . S
N904 C903 1.344 . S
O905 Co897 2.055 . S
O905 C909 1.253 . S
H906 C902 0.931 . S
H907 C903 0.930 . S
O908 Co897 2.039 . S
O908 C898 1.265 . S
C909 O905 1.253 . S
C909 O910 1.227 . S
O910 C909 1.227 . S
N911 Co897 2.140 . S
N911 C914 1.346 . S
N911 C915 1.345 . S
C912 C913 1.387 1_556 S
C912 C916 1.397 . S
C913 C912 1.387 1_554 S
C913 C914 1.369 . S
C913 H922 0.929 . S
C914 N911 1.346 . S
C914 C913 1.369 . S
C914 H917 0.928 . S
C915 N911 1.345 . S
C915 C916 1.351 1_554 S
C915 H918 0.931 . S
C916 C912 1.397 . S
C916 C915 1.351 1_556 S
C916 H923 0.945 . S
H917 C914 0.928 . S
H918 C915 0.931 . S
H919 C895 0.930 . S
H920 C892 0.930 . S
H921 C901 0.930 . S
H922 C913 0.929 . S
H923 C916 0.945 . S
C924 C925 1.351 . S
C924 N927 1.368 . S
C924 H929 0.931 . S
C925 C924 1.351 . S
C925 N926 1.373 . S
C925 H953 0.930 . S
N926 C925 1.373 . S
N926 C928 1.340 . S
N927 C924 1.368 . S
N927 C928 1.321 . S
N927 Co930 2.135 . S
C928 N926 1.340 . S
C928 N927 1.321 . S
C928 H952 0.930 . S
H929 C924 0.931 . S
Co930 N927 2.135 . S
Co930 N933 2.121 . S
Co930 O938 2.055 . S
Co930 O941 2.039 . S
Co930 N944 2.140 . S
C931 O932 1.227 . S
C931 O941 1.265 . S
O932 C931 1.227 . S
N933 Co930 2.121 . S
N933 C935 1.375 . S
N933 C936 1.313 . S
C934 C935 1.338 . S
C934 N937 1.377 . S
C934 H954 0.930 . S
C935 N933 1.375 . S
C935 C934 1.338 . S
C935 H939 0.931 . S
C936 N933 1.313 . S
C936 N937 1.344 . S
C936 H940 0.930 . S
N937 C934 1.377 . S
N937 C936 1.344 . S
O938 Co930 2.055 . S
O938 C942 1.253 . S
H939 C935 0.931 . S
H940 C936 0.930 . S
O941 Co930 2.039 . S
O941 C931 1.265 . S
C942 O938 1.253 . S
C942 O943 1.227 . S
O943 C942 1.227 . S
N944 Co930 2.140 . S
N944 C947 1.346 . S
N944 C948 1.345 . S
C945 C946 1.387 1_556 S
C945 C949 1.397 . S
C946 C945 1.387 1_554 S
C946 C947 1.369 . S
C946 H955 0.929 . S
C947 N944 1.346 . S
C947 C946 1.369 . S
C947 H950 0.928 . S
C948 N944 1.345 . S
C948 C949 1.351 1_554 S
C948 H951 0.931 . S
C949 C945 1.397 . S
C949 C948 1.351 1_556 S
C949 H956 0.945 . S
H950 C947 0.928 . S
H951 C948 0.931 . S
H952 C928 0.930 . S
H953 C925 0.930 . S
H954 C934 0.930 . S
H955 C946 0.929 . S
H956 C949 0.945 . S
C957 C958 1.351 . S
C957 N960 1.368 . S
C957 H962 0.931 . S
C958 C957 1.351 . S
C958 N959 1.373 . S
C958 H986 0.930 . S
N959 C958 1.373 . S
N959 C961 1.340 . S
N960 C957 1.368 . S
N960 C961 1.321 . S
N960 Co963 2.135 . S
C961 N959 1.340 . S
C961 N960 1.321 . S
C961 H985 0.930 . S
H962 C957 0.931 . S
Co963 N960 2.135 . S
Co963 N966 2.121 . S
Co963 O971 2.055 . S
Co963 O974 2.039 . S
Co963 N977 2.140 . S
C964 O965 1.227 . S
C964 O974 1.265 . S
O965 C964 1.227 . S
N966 Co963 2.121 . S
N966 C968 1.375 . S
N966 C969 1.313 . S
C967 C968 1.338 . S
C967 N970 1.377 . S
C967 H987 0.930 . S
C968 N966 1.375 . S
C968 C967 1.338 . S
C968 H972 0.931 . S
C969 N966 1.313 . S
C969 N970 1.344 . S
C969 H973 0.930 . S
N970 C967 1.377 . S
N970 C969 1.344 . S
O971 Co963 2.055 . S
O971 C975 1.253 . S
H972 C968 0.931 . S
H973 C969 0.930 . S
O974 Co963 2.039 . S
O974 C964 1.265 . S
C975 O971 1.253 . S
C975 O976 1.227 . S
O976 C975 1.227 . S
N977 Co963 2.140 . S
N977 C980 1.346 . S
N977 C981 1.345 . S
C978 C979 1.387 1_556 S
C978 C982 1.397 . S
C979 C978 1.387 1_554 S
C979 C980 1.369 . S
C979 H988 0.929 . S
C980 N977 1.346 . S
C980 C979 1.369 . S
C980 H983 0.928 . S
C981 N977 1.345 . S
C981 C982 1.351 1_554 S
C981 H984 0.931 . S
C982 C978 1.397 . S
C982 C981 1.351 1_556 S
C982 H989 0.945 . S
H983 C980 0.928 . S
H984 C981 0.931 . S
H985 C961 0.930 . S
H986 C958 0.930 . S
H987 C967 0.930 . S
H988 C979 0.929 . S
H989 C982 0.945 . S
C990 C991 1.351 . S
C990 N993 1.368 . S
C990 H995 0.931 . S
C991 C990 1.351 . S
C991 N992 1.373 . S
C991 H1019 0.930 . S
N992 C991 1.373 . S
N992 C994 1.340 . S
N993 C990 1.368 . S
N993 C994 1.321 . S
N993 Co996 2.135 . S
C994 N992 1.340 . S
C994 N993 1.321 . S
C994 H1018 0.930 . S
H995 C990 0.931 . S
Co996 N993 2.135 . S
Co996 N999 2.121 . S
Co996 O1004 2.055 . S
Co996 O1007 2.039 . S
Co996 N1010 2.140 . S
C997 O998 1.227 . S
C997 O1007 1.265 . S
O998 C997 1.227 . S
N999 Co996 2.121 . S
N999 C1001 1.375 . S
N999 C1002 1.313 . S
C1000 C1001 1.338 . S
C1000 N1003 1.377 . S
C1000 H1020 0.930 . S
C1001 N999 1.375 . S
C1001 C1000 1.338 . S
C1001 H1005 0.931 . S
C1002 N999 1.313 . S
C1002 N1003 1.344 . S
C1002 H1006 0.930 . S
N1003 C1000 1.377 . S
N1003 C1002 1.344 . S
O1004 Co996 2.055 . S
O1004 C1008 1.253 . S
H1005 C1001 0.931 . S
H1006 C1002 0.930 . S
O1007 Co996 2.039 . S
O1007 C997 1.265 . S
C1008 O1004 1.253 . S
C1008 O1009 1.227 . S
O1009 C1008 1.227 . S
N1010 Co996 2.140 . S
N1010 C1013 1.346 . S
N1010 C1014 1.345 . S
C1011 C1012 1.387 . S
C1011 C1015 1.391 . S
C1012 C1011 1.387 . S
C1012 C1013 1.369 . S
C1012 H1021 0.929 . S
C1013 N1010 1.346 . S
C1013 C1012 1.369 . S
C1013 H1016 0.928 . S
C1014 N1010 1.345 . S
C1014 C1015 1.371 . S
C1014 H1017 0.931 . S
C1015 C1011 1.391 . S
C1015 C1014 1.371 . S
C1015 H1022 0.930 . S
H1016 C1013 0.928 . S
H1017 C1014 0.931 . S
H1018 C994 0.930 . S
H1019 C991 0.930 . S
H1020 C1000 0.930 . S
H1021 C1012 0.929 . S
H1022 C1015 0.930 . S
C1023 C1024 1.351 . S
C1023 N1026 1.368 . S
C1023 H1028 0.931 . S
C1024 C1023 1.351 . S
C1024 N1025 1.373 . S
C1024 H1052 0.930 . S
N1025 C1024 1.373 . S
N1025 C1027 1.340 . S
N1026 C1023 1.368 . S
N1026 C1027 1.321 . S
N1026 Co1029 2.135 . S
C1027 N1025 1.340 . S
C1027 N1026 1.321 . S
C1027 H1051 0.930 . S
H1028 C1023 0.931 . S
Co1029 N1026 2.135 . S
Co1029 N1032 2.121 . S
Co1029 O1037 2.055 . S
Co1029 O1040 2.039 . S
Co1029 N1043 2.140 . S
C1030 O1031 1.227 . S
C1030 O1040 1.265 . S
O1031 C1030 1.227 . S
N1032 Co1029 2.121 . S
N1032 C1034 1.375 . S
N1032 C1035 1.313 . S
C1033 C1034 1.338 . S
C1033 N1036 1.377 . S
C1033 H1053 0.930 . S
C1034 N1032 1.375 . S
C1034 C1033 1.338 . S
C1034 H1038 0.931 . S
C1035 N1032 1.313 . S
C1035 N1036 1.344 . S
C1035 H1039 0.930 . S
N1036 C1033 1.377 . S
N1036 C1035 1.344 . S
O1037 Co1029 2.055 . S
O1037 C1041 1.253 . S
H1038 C1034 0.931 . S
H1039 C1035 0.930 . S
O1040 Co1029 2.039 . S
O1040 C1030 1.265 . S
C1041 O1037 1.253 . S
C1041 O1042 1.227 . S
O1042 C1041 1.227 . S
N1043 Co1029 2.140 . S
N1043 C1046 1.346 . S
N1043 C1047 1.345 . S
C1044 C1045 1.387 . S
C1044 C1048 1.391 . S
C1045 C1044 1.387 . S
C1045 C1046 1.369 . S
C1045 H1054 0.929 . S
C1046 N1043 1.346 . S
C1046 C1045 1.369 . S
C1046 H1049 0.928 . S
C1047 N1043 1.345 . S
C1047 C1048 1.371 . S
C1047 H1050 0.931 . S
C1048 C1044 1.391 . S
C1048 C1047 1.371 . S
C1048 H1055 0.930 . S
H1049 C1046 0.928 . S
H1050 C1047 0.931 . S
H1051 C1027 0.930 . S
H1052 C1024 0.930 . S
H1053 C1033 0.930 . S
H1054 C1045 0.929 . S
H1055 C1048 0.930 . S
C1056 C1057 1.351 . S
C1056 N1059 1.368 . S
C1056 H1061 0.931 . S
C1057 C1056 1.351 . S
C1057 N1058 1.373 . S
C1057 H1085 0.930 . S
N1058 C1057 1.373 . S
N1058 C1060 1.340 . S
N1059 C1056 1.368 . S
N1059 C1060 1.321 . S
N1059 Co1062 2.135 . S
C1060 N1058 1.340 . S
C1060 N1059 1.321 . S
C1060 H1084 0.930 . S
H1061 C1056 0.931 . S
Co1062 N1059 2.135 . S
Co1062 N1065 2.121 . S
Co1062 O1070 2.055 . S
Co1062 O1073 2.039 . S
Co1062 N1076 2.140 . S
C1063 O1064 1.227 . S
C1063 O1073 1.265 . S
O1064 C1063 1.227 . S
N1065 Co1062 2.121 . S
N1065 C1067 1.375 . S
N1065 C1068 1.313 . S
C1066 C1067 1.338 . S
C1066 N1069 1.377 . S
C1066 H1086 0.930 . S
C1067 N1065 1.375 . S
C1067 C1066 1.338 . S
C1067 H1071 0.931 . S
C1068 N1065 1.313 . S
C1068 N1069 1.344 . S
C1068 H1072 0.930 . S
N1069 C1066 1.377 . S
N1069 C1068 1.344 . S
O1070 Co1062 2.055 . S
O1070 C1074 1.253 . S
H1071 C1067 0.931 . S
H1072 C1068 0.930 . S
O1073 Co1062 2.039 . S
O1073 C1063 1.265 . S
C1074 O1070 1.253 . S
C1074 O1075 1.227 . S
O1075 C1074 1.227 . S
N1076 Co1062 2.140 . S
N1076 C1079 1.346 . S
N1076 C1080 1.345 . S
C1077 C1078 1.387 . S
C1077 C1081 1.391 . S
C1078 C1077 1.387 . S
C1078 C1079 1.369 . S
C1078 H1087 0.929 . S
C1079 N1076 1.346 . S
C1079 C1078 1.369 . S
C1079 H1082 0.928 . S
C1080 N1076 1.345 . S
C1080 C1081 1.371 . S
C1080 H1083 0.931 . S
C1081 C1077 1.391 . S
C1081 C1080 1.371 . S
C1081 H1088 0.930 . S
H1082 C1079 0.928 . S
H1083 C1080 0.931 . S
H1084 C1060 0.930 . S
H1085 C1057 0.930 . S
H1086 C1066 0.930 . S
H1087 C1078 0.929 . S
H1088 C1081 0.930 . S
C1089 C1090 1.351 . S
C1089 N1092 1.368 . S
C1089 H1094 0.931 . S
C1090 C1089 1.351 . S
C1090 N1091 1.373 . S
C1090 H1118 0.930 . S
N1091 C1090 1.373 . S
N1091 C1093 1.340 . S
N1092 C1089 1.368 . S
N1092 C1093 1.321 . S
N1092 Co1095 2.135 . S
C1093 N1091 1.340 . S
C1093 N1092 1.321 . S
C1093 H1117 0.930 . S
H1094 C1089 0.931 . S
Co1095 N1092 2.135 . S
Co1095 N1098 2.121 . S
Co1095 O1103 2.055 . S
Co1095 O1106 2.039 . S
Co1095 N1109 2.140 . S
C1096 O1097 1.227 . S
C1096 O1106 1.265 . S
O1097 C1096 1.227 . S
N1098 Co1095 2.121 . S
N1098 C1100 1.375 . S
N1098 C1101 1.313 . S
C1099 C1100 1.338 . S
C1099 N1102 1.377 . S
C1099 H1119 0.930 . S
C1100 N1098 1.375 . S
C1100 C1099 1.338 . S
C1100 H1104 0.931 . S
C1101 N1098 1.313 . S
C1101 N1102 1.344 . S
C1101 H1105 0.930 . S
N1102 C1099 1.377 . S
N1102 C1101 1.344 . S
O1103 Co1095 2.055 . S
O1103 C1107 1.253 . S
H1104 C1100 0.931 . S
H1105 C1101 0.930 . S
O1106 Co1095 2.039 . S
O1106 C1096 1.265 . S
C1107 O1103 1.253 . S
C1107 O1108 1.227 . S
O1108 C1107 1.227 . S
N1109 Co1095 2.140 . S
N1109 C1112 1.346 . S
N1109 C1113 1.345 . S
C1110 C1111 1.387 . S
C1110 C1114 1.391 . S
C1111 C1110 1.387 . S
C1111 C1112 1.369 . S
C1111 H1120 0.929 . S
C1112 N1109 1.346 . S
C1112 C1111 1.369 . S
C1112 H1115 0.928 . S
C1113 N1109 1.345 . S
C1113 C1114 1.371 . S
C1113 H1116 0.931 . S
C1114 C1110 1.391 . S
C1114 C1113 1.371 . S
C1114 H1121 0.930 . S
H1115 C1112 0.928 . S
H1116 C1113 0.931 . S
H1117 C1093 0.930 . S
H1118 C1090 0.930 . S
H1119 C1099 0.930 . S
H1120 C1111 0.929 . S
H1121 C1114 0.930 . S
C1122 C1123 1.351 . S
C1122 N1125 1.368 . S
C1122 H1127 0.931 . S
C1123 C1122 1.351 . S
C1123 N1124 1.373 . S
C1123 H1151 0.930 . S
N1124 C1123 1.373 . S
N1124 C1126 1.340 . S
N1125 C1122 1.368 . S
N1125 C1126 1.321 . S
N1125 Co1128 2.135 . S
C1126 N1124 1.340 . S
C1126 N1125 1.321 . S
C1126 H1150 0.930 . S
H1127 C1122 0.931 . S
Co1128 N1125 2.135 . S
Co1128 N1131 2.121 . S
Co1128 O1136 2.055 . S
Co1128 O1139 2.039 . S
Co1128 N1142 2.140 . S
C1129 O1130 1.227 . S
C1129 O1139 1.265 . S
O1130 C1129 1.227 . S
N1131 Co1128 2.121 . S
N1131 C1133 1.375 . S
N1131 C1134 1.313 . S
C1132 C1133 1.338 . S
C1132 N1135 1.377 . S
C1132 H1152 0.930 . S
C1133 N1131 1.375 . S
C1133 C1132 1.338 . S
C1133 H1137 0.931 . S
C1134 N1131 1.313 . S
C1134 N1135 1.344 . S
C1134 H1138 0.930 . S
N1135 C1132 1.377 . S
N1135 C1134 1.344 . S
O1136 Co1128 2.055 . S
O1136 C1140 1.253 . S
H1137 C1133 0.931 . S
H1138 C1134 0.930 . S
O1139 Co1128 2.039 . S
O1139 C1129 1.265 . S
C1140 O1136 1.253 . S
C1140 O1141 1.227 . S
O1141 C1140 1.227 . S
N1142 Co1128 2.140 . S
N1142 C1145 1.346 . S
N1142 C1146 1.345 . S
C1143 C1144 1.387 . S
C1143 C1147 1.391 . S
C1144 C1143 1.387 . S
C1144 C1145 1.369 . S
C1144 H1153 0.929 . S
C1145 N1142 1.346 . S
C1145 C1144 1.369 . S
C1145 H1148 0.928 . S
C1146 N1142 1.345 . S
C1146 C1147 1.371 . S
C1146 H1149 0.931 . S
C1147 C1143 1.391 . S
C1147 C1146 1.371 . S
C1147 H1154 0.930 . S
H1148 C1145 0.928 . S
H1149 C1146 0.931 . S
H1150 C1126 0.930 . S
H1151 C1123 0.930 . S
H1152 C1132 0.930 . S
H1153 C1144 0.929 . S
H1154 C1147 0.930 . S
C1155 C1156 1.351 . S
C1155 N1158 1.368 . S
C1155 H1160 0.931 . S
C1156 C1155 1.351 . S
C1156 N1157 1.373 . S
C1156 H1184 0.930 . S
N1157 C1156 1.373 . S
N1157 C1159 1.340 . S
N1158 C1155 1.368 . S
N1158 C1159 1.321 . S
N1158 Co1161 2.135 . S
C1159 N1157 1.340 . S
C1159 N1158 1.321 . S
C1159 H1183 0.930 . S
H1160 C1155 0.931 . S
Co1161 N1158 2.135 . S
Co1161 N1164 2.121 . S
Co1161 O1169 2.055 . S
Co1161 O1172 2.039 . S
Co1161 N1175 2.140 . S
C1162 O1163 1.227 . S
C1162 O1172 1.265 . S
O1163 C1162 1.227 . S
N1164 Co1161 2.121 . S
N1164 C1166 1.375 . S
N1164 C1167 1.313 . S
C1165 C1166 1.338 . S
C1165 N1168 1.377 . S
C1165 H1185 0.930 . S
C1166 N1164 1.375 . S
C1166 C1165 1.338 . S
C1166 H1170 0.931 . S
C1167 N1164 1.313 . S
C1167 N1168 1.344 . S
C1167 H1171 0.930 . S
N1168 C1165 1.377 . S
N1168 C1167 1.344 . S
O1169 Co1161 2.055 . S
O1169 C1173 1.253 . S
H1170 C1166 0.931 . S
H1171 C1167 0.930 . S
O1172 Co1161 2.039 . S
O1172 C1162 1.265 . S
C1173 O1169 1.253 . S
C1173 O1174 1.227 . S
O1174 C1173 1.227 . S
N1175 Co1161 2.140 . S
N1175 C1178 1.346 . S
N1175 C1179 1.345 . S
C1176 C1177 1.387 . S
C1176 C1180 1.391 . S
C1177 C1176 1.387 . S
C1177 C1178 1.369 . S
C1177 H1186 0.929 . S
C1178 N1175 1.346 . S
C1178 C1177 1.369 . S
C1178 H1181 0.928 . S
C1179 N1175 1.345 . S
C1179 C1180 1.371 . S
C1179 H1182 0.931 . S
C1180 C1176 1.391 . S
C1180 C1179 1.371 . S
C1180 H1187 0.930 . S
H1181 C1178 0.928 . S
H1182 C1179 0.931 . S
H1183 C1159 0.930 . S
H1184 C1156 0.930 . S
H1185 C1165 0.930 . S
H1186 C1177 0.929 . S
H1187 C1180 0.930 . S
C1188 C1189 1.391 . S
C1188 C1190 1.394 . S
C1188 H1204 0.931 . S
C1189 C1188 1.391 . S
C1189 C1193 1.376 . S
C1190 C1188 1.394 . S
C1190 C1191 1.369 . S
C1190 C1194 1.531 . S
C1191 C1190 1.369 . S
C1191 C1192 1.410 . S
C1191 C1199 1.503 . S
C1192 C1191 1.410 . S
C1192 C1193 1.392 . S
C1192 C1195 1.511 . S
C1193 C1189 1.376 . S
C1193 C1192 1.392 . S
C1193 H1205 0.929 . S
C1194 C1190 1.531 . S
C1194 H1206 0.960 . S
C1194 H1207 0.962 . S
C1194 H1208 0.960 . S
C1195 C1192 1.511 . S
C1195 H1209 0.961 . S
C1195 H1210 0.961 . S
C1195 H1211 0.961 . S
C1196 C1197 1.370 . S
C1196 C1198 1.363 . S
C1196 H1212 0.931 . S
C1197 C1196 1.370 . S
C1197 C1201 1.408 . S
C1198 C1196 1.363 . S
C1198 C1199 1.370 . S
C1198 C1202 1.524 . S
C1199 C1191 1.503 . S
C1199 C1198 1.370 . S
C1199 C1200 1.403 . S
C1200 C1199 1.403 . S
C1200 C1201 1.404 . S
C1200 C1203 1.539 . S
C1201 C1197 1.408 . S
C1201 C1200 1.404 . S
C1201 H1213 0.930 . S
C1202 C1198 1.524 . S
C1202 H1214 0.956 . S
C1202 H1215 0.961 . S
C1202 H1216 0.961 . S
C1203 C1200 1.539 . S
C1203 H1217 0.958 . S
C1203 H1218 0.961 . S
C1203 H1219 0.960 . S
H1204 C1188 0.931 . S
H1205 C1193 0.929 . S
H1206 C1194 0.960 . S
H1207 C1194 0.962 . S
H1208 C1194 0.960 . S
H1209 C1195 0.961 . S
H1210 C1195 0.961 . S
H1211 C1195 0.961 . S
H1212 C1196 0.931 . S
H1213 C1201 0.930 . S
H1214 C1202 0.956 . S
H1215 C1202 0.961 . S
H1216 C1202 0.961 . S
H1217 C1203 0.958 . S
H1218 C1203 0.961 . S
H1219 C1203 0.960 . S
C1220 C1221 1.405 . S
C1220 C1222 1.392 1_545 S
C1220 H1236 0.918 1_545 S
C1221 C1220 1.405 . S
C1221 C1225 1.376 . S
C1222 C1220 1.392 1_565 S
C1222 C1223 1.369 1_565 S
C1222 C1226 1.531 . S
C1223 C1222 1.369 1_545 S
C1223 C1224 1.410 . S
C1223 C1231 1.503 . S
C1224 C1223 1.410 . S
C1224 C1225 1.392 . S
C1224 C1227 1.511 . S
C1225 C1221 1.376 . S
C1225 C1224 1.392 . S
C1225 H1237 0.929 . S
C1226 C1222 1.531 . S
C1226 H1238 0.960 . S
C1226 H1239 0.962 . S
C1226 H1240 0.960 . S
C1227 C1224 1.511 . S
C1227 H1241 0.961 . S
C1227 H1242 0.961 . S
C1227 H1243 0.961 . S
C1228 C1229 1.370 . S
C1228 C1230 1.363 . S
C1228 H1244 0.931 . S
C1229 C1228 1.370 . S
C1229 C1233 1.408 1_565 S
C1230 C1228 1.363 . S
C1230 C1231 1.370 1_565 S
C1230 C1234 1.524 . S
C1231 C1223 1.503 . S
C1231 C1230 1.370 1_545 S
C1231 C1232 1.403 . S
C1232 C1231 1.403 . S
C1232 C1233 1.404 . S
C1232 C1235 1.539 . S
C1233 C1229 1.408 1_545 S
C1233 C1232 1.404 . S
C1233 H1245 0.930 . S
C1234 C1230 1.524 . S
C1234 H1246 0.956 . S
C1234 H1247 0.961 . S
C1234 H1248 0.961 . S
C1235 C1232 1.539 . S
C1235 H1249 0.958 . S
C1235 H1250 0.961 . S
C1235 H1251 0.960 . S
H1236 C1220 0.918 1_565 S
H1237 C1225 0.929 . S
H1238 C1226 0.960 . S
H1239 C1226 0.962 . S
H1240 C1226 0.960 . S
H1241 C1227 0.961 . S
H1242 C1227 0.961 . S
H1243 C1227 0.961 . S
H1244 C1228 0.931 . S
H1245 C1233 0.930 . S
H1246 C1234 0.956 . S
H1247 C1234 0.961 . S
H1248 C1234 0.961 . S
H1249 C1235 0.958 . S
H1250 C1235 0.961 . S
H1251 C1235 0.960 . S
C1252 C1253 1.391 . S
C1252 C1254 1.394 . S
C1252 H1268 0.931 . S
C1253 C1252 1.391 . S
C1253 C1257 1.376 1_455 S
C1254 C1252 1.394 . S
C1254 C1255 1.369 1_455 S
C1254 C1258 1.531 . S
C1255 C1254 1.369 1_655 S
C1255 C1256 1.410 . S
C1255 C1263 1.503 . S
C1256 C1255 1.410 . S
C1256 C1257 1.392 . S
C1256 C1259 1.511 . S
C1257 C1253 1.376 1_655 S
C1257 C1256 1.392 . S
C1257 H1269 0.929 . S
C1258 C1254 1.531 . S
C1258 H1270 0.960 . S
C1258 H1271 0.962 . S
C1258 H1272 0.960 . S
C1259 C1256 1.511 . S
C1259 H1273 0.961 . S
C1259 H1274 0.961 . S
C1259 H1275 0.961 . S
C1260 C1261 1.370 1_455 S
C1260 C1262 1.363 . S
C1260 H1276 0.931 . S
C1261 C1260 1.370 1_655 S
C1261 C1265 1.408 . S
C1262 C1260 1.363 . S
C1262 C1263 1.370 1_455 S
C1262 C1266 1.524 . S
C1263 C1255 1.503 . S
C1263 C1262 1.370 1_655 S
C1263 C1264 1.403 . S
C1264 C1263 1.403 . S
C1264 C1265 1.404 . S
C1264 C1267 1.539 . S
C1265 C1261 1.408 . S
C1265 C1264 1.404 . S
C1265 H1277 0.930 . S
C1266 C1262 1.524 . S
C1266 H1278 0.956 . S
C1266 H1279 0.961 . S
C1266 H1280 0.961 . S
C1267 C1264 1.539 . S
C1267 H1281 0.958 . S
C1267 H1282 0.961 . S
C1267 H1283 0.960 . S
H1268 C1252 0.931 . S
H1269 C1257 0.929 . S
H1270 C1258 0.960 . S
H1271 C1258 0.962 . S
H1272 C1258 0.960 . S
H1273 C1259 0.961 . S
H1274 C1259 0.961 . S
H1275 C1259 0.961 . S
H1276 C1260 0.931 . S
H1277 C1265 0.930 . S
H1278 C1266 0.956 . S
H1279 C1266 0.961 . S
H1280 C1266 0.961 . S
H1281 C1267 0.958 . S
H1282 C1267 0.961 . S
H1283 C1267 0.960 . S
C1284 C1285 1.391 . S
C1284 C1286 1.394 . S
C1284 H1300 0.931 . S
C1285 C1284 1.391 . S
C1285 C1289 1.376 . S
C1286 C1284 1.394 . S
C1286 C1287 1.369 . S
C1286 C1290 1.531 . S
C1287 C1286 1.369 . S
C1287 C1288 1.410 . S
C1287 C1295 1.503 . S
C1288 C1287 1.410 . S
C1288 C1289 1.392 . S
C1288 C1291 1.511 . S
C1289 C1285 1.376 . S
C1289 C1288 1.392 . S
C1289 H1301 0.929 . S
C1290 C1286 1.531 . S
C1290 H1302 0.960 . S
C1290 H1303 0.962 . S
C1290 H1304 0.960 . S
C1291 C1288 1.511 . S
C1291 H1305 0.961 . S
C1291 H1306 0.961 . S
C1291 H1307 0.961 . S
C1292 C1293 1.370 . S
C1292 C1294 1.363 . S
C1292 H1308 0.931 . S
C1293 C1292 1.370 . S
C1293 C1297 1.408 . S
C1294 C1292 1.363 . S
C1294 C1295 1.370 . S
C1294 C1298 1.524 . S
C1295 C1287 1.503 . S
C1295 C1294 1.370 . S
C1295 C1296 1.403 . S
C1296 C1295 1.403 . S
C1296 C1297 1.404 . S
C1296 C1299 1.539 . S
C1297 C1293 1.408 . S
C1297 C1296 1.404 . S
C1297 H1309 0.930 . S
C1298 C1294 1.524 . S
C1298 H1310 0.956 . S
C1298 H1311 0.961 . S
C1298 H1312 0.961 . S
C1299 C1296 1.539 . S
C1299 H1313 0.958 . S
C1299 H1314 0.961 . S
C1299 H1315 0.960 . S
H1300 C1284 0.931 . S
H1301 C1289 0.929 . S
H1302 C1290 0.960 . S
H1303 C1290 0.962 . S
H1304 C1290 0.960 . S
H1305 C1291 0.961 . S
H1306 C1291 0.961 . S
H1307 C1291 0.961 . S
H1308 C1292 0.931 . S
H1309 C1297 0.930 . S
H1310 C1298 0.956 . S
H1311 C1298 0.961 . S
H1312 C1298 0.961 . S
H1313 C1299 0.958 . S
H1314 C1299 0.961 . S
H1315 C1299 0.960 . S
C1316 C1317 1.391 1_545 S
C1316 C1318 1.394 . S
C1316 H1332 0.931 . S
C1317 C1316 1.391 1_565 S
C1317 C1321 1.376 . S
C1318 C1316 1.394 . S
C1318 C1319 1.369 . S
C1318 C1322 1.531 . S
C1319 C1318 1.369 . S
C1319 C1320 1.410 1_545 S
C1319 C1327 1.503 . S
C1320 C1319 1.410 1_565 S
C1320 C1321 1.392 . S
C1320 C1323 1.511 . S
C1321 C1317 1.376 . S
C1321 C1320 1.392 . S
C1321 H1333 0.929 . S
C1322 C1318 1.531 . S
C1322 H1334 0.960 . S
C1322 H1335 0.962 . S
C1322 H1336 0.960 . S
C1323 C1320 1.511 . S
C1323 H1337 0.961 . S
C1323 H1338 0.961 . S
C1323 H1339 0.961 . S
C1324 C1325 1.370 1_565 S
C1324 C1326 1.363 . S
C1324 H1340 0.931 . S
C1325 C1324 1.370 1_545 S
C1325 C1329 1.408 . S
C1326 C1324 1.363 . S
C1326 C1327 1.370 1_565 S
C1326 C1330 1.524 . S
C1327 C1319 1.503 . S
C1327 C1326 1.370 1_545 S
C1327 C1328 1.403 . S
C1328 C1327 1.403 . S
C1328 C1329 1.404 . S
C1328 C1331 1.539 . S
C1329 C1325 1.408 . S
C1329 C1328 1.404 . S
C1329 H1341 0.930 . S
C1330 C1326 1.524 . S
C1330 H1342 0.956 . S
C1330 H1343 0.961 . S
C1330 H1344 0.961 . S
C1331 C1328 1.539 . S
C1331 H1345 0.958 . S
C1331 H1346 0.961 . S
C1331 H1347 0.960 . S
H1332 C1316 0.931 . S
H1333 C1321 0.929 . S
H1334 C1322 0.960 . S
H1335 C1322 0.962 . S
H1336 C1322 0.960 . S
H1337 C1323 0.961 . S
H1338 C1323 0.961 . S
H1339 C1323 0.961 . S
H1340 C1324 0.931 . S
H1341 C1329 0.930 . S
H1342 C1330 0.956 . S
H1343 C1330 0.961 . S
H1344 C1330 0.961 . S
H1345 C1331 0.958 . S
H1346 C1331 0.961 . S
H1347 C1331 0.960 . S
C1348 C1349 1.391 . S
C1348 C1350 1.394 . S
C1348 H1364 0.931 . S
C1349 C1348 1.391 . S
C1349 C1353 1.376 1_655 S
C1350 C1348 1.394 . S
C1350 C1351 1.342 1_655 S
C1350 C1354 1.531 . S
C1351 C1350 1.342 1_455 S
C1351 C1352 1.430 . S
C1351 C1359 1.508 . S
C1352 C1351 1.430 . S
C1352 C1353 1.392 . S
C1352 C1355 1.511 . S
C1353 C1349 1.376 1_455 S
C1353 C1352 1.392 . S
C1353 H1365 0.929 . S
C1354 C1350 1.531 . S
C1354 H1366 0.960 . S
C1354 H1367 0.962 . S
C1354 H1368 0.960 . S
C1355 C1352 1.511 . S
C1355 H1369 0.961 . S
C1355 H1370 0.961 . S
C1355 H1371 0.961 . S
C1356 C1357 1.370 1_655 S
C1356 C1358 1.363 . S
C1356 H1372 0.931 . S
C1357 C1356 1.370 1_455 S
C1357 C1361 1.408 . S
C1358 C1356 1.363 . S
C1358 C1359 1.370 1_655 S
C1358 C1362 1.524 . S
C1359 C1351 1.508 . S
C1359 C1358 1.370 1_455 S
C1359 C1360 1.403 . S
C1360 C1359 1.403 . S
C1360 C1361 1.404 . S
C1360 C1363 1.539 . S
C1361 C1357 1.408 . S
C1361 C1360 1.404 . S
C1361 H1373 0.930 . S
C1362 C1358 1.524 . S
C1362 H1374 0.956 . S
C1362 H1375 0.961 . S
C1362 H1376 0.961 . S
C1363 C1360 1.539 . S
C1363 H1377 0.958 . S
C1363 H1378 0.961 . S
C1363 H1379 0.960 . S
H1364 C1348 0.931 . S
H1365 C1353 0.929 . S
H1366 C1354 0.960 . S
H1367 C1354 0.962 . S
H1368 C1354 0.960 . S
H1369 C1355 0.961 . S
H1370 C1355 0.961 . S
H1371 C1355 0.961 . S
H1372 C1356 0.931 . S
H1373 C1361 0.930 . S
H1374 C1362 0.956 . S
H1375 C1362 0.961 . S
H1376 C1362 0.961 . S
H1377 C1363 0.958 . S
H1378 C1363 0.961 . S
H1379 C1363 0.960 . S
C1380 C1381 1.391 . S
C1380 C1382 1.394 . S
C1380 H1396 0.931 . S
C1381 C1380 1.391 . S
C1381 C1385 1.376 . S
C1382 C1380 1.394 . S
C1382 C1383 1.369 . S
C1382 C1386 1.531 . S
C1383 C1382 1.369 . S
C1383 C1384 1.410 . S
C1383 C1391 1.503 . S
C1384 C1383 1.410 . S
C1384 C1385 1.392 . S
C1384 C1387 1.511 . S
C1385 C1381 1.376 . S
C1385 C1384 1.392 . S
C1385 H1397 0.929 . S
C1386 C1382 1.531 . S
C1386 H1398 0.960 . S
C1386 H1399 0.962 . S
C1386 H1400 0.960 . S
C1387 C1384 1.511 . S
C1387 H1401 0.961 . S
C1387 H1402 0.961 . S
C1387 H1403 0.961 . S
C1388 C1389 1.370 . S
C1388 C1390 1.363 . S
C1388 H1404 0.931 . S
C1389 C1388 1.370 . S
C1389 C1393 1.408 . S
C1390 C1388 1.363 . S
C1390 C1391 1.370 . S
C1390 C1394 1.524 . S
C1391 C1383 1.503 . S
C1391 C1390 1.370 . S
C1391 C1392 1.403 . S
C1392 C1391 1.403 . S
C1392 C1393 1.404 . S
C1392 C1395 1.539 . S
C1393 C1389 1.408 . S
C1393 C1392 1.404 . S
C1393 H1405 0.930 . S
C1394 C1390 1.524 . S
C1394 H1406 0.956 . S
C1394 H1407 0.961 . S
C1394 H1408 0.961 . S
C1395 C1392 1.539 . S
C1395 H1409 0.958 . S
C1395 H1410 0.961 . S
C1395 H1411 0.960 . S
H1396 C1380 0.931 . S
H1397 C1385 0.929 . S
H1398 C1386 0.960 . S
H1399 C1386 0.962 . S
H1400 C1386 0.960 . S
H1401 C1387 0.961 . S
H1402 C1387 0.961 . S
H1403 C1387 0.961 . S
H1404 C1388 0.931 . S
H1405 C1393 0.930 . S
H1406 C1394 0.956 . S
H1407 C1394 0.961 . S
H1408 C1394 0.961 . S
H1409 C1395 0.958 . S
H1410 C1395 0.961 . S
H1411 C1395 0.960 . S
C1412 C1413 1.391 . S
C1412 C1414 1.394 . S
C1412 H1428 0.931 . S
C1413 C1412 1.391 . S
C1413 C1417 1.376 . S
C1414 C1412 1.394 . S
C1414 C1415 1.369 . S
C1414 C1418 1.531 . S
C1415 C1414 1.369 . S
C1415 C1416 1.410 . S
C1415 C1423 1.503 . S
C1416 C1415 1.410 . S
C1416 C1417 1.392 . S
C1416 C1419 1.511 . S
C1417 C1413 1.376 . S
C1417 C1416 1.392 . S
C1417 H1429 0.929 . S
C1418 C1414 1.531 . S
C1418 H1430 0.960 . S
C1418 H1431 0.962 . S
C1418 H1432 0.960 . S
C1419 C1416 1.511 . S
C1419 H1433 0.961 . S
C1419 H1434 0.961 . S
C1419 H1435 0.961 . S
C1420 C1421 1.370 . S
C1420 C1422 1.363 . S
C1420 H1436 0.931 . S
C1421 C1420 1.370 . S
C1421 C1425 1.408 . S
C1422 C1420 1.363 . S
C1422 C1423 1.370 . S
C1422 C1426 1.524 . S
C1423 C1415 1.503 . S
C1423 C1422 1.370 . S
C1423 C1424 1.403 . S
C1424 C1423 1.403 . S
C1424 C1425 1.404 . S
C1424 C1427 1.539 . S
C1425 C1421 1.408 . S
C1425 C1424 1.404 . S
C1425 H1437 0.930 . S
C1426 C1422 1.524 . S
C1426 H1438 0.956 . S
C1426 H1439 0.961 . S
C1426 H1440 0.961 . S
C1427 C1424 1.539 . S
C1427 H1441 0.958 . S
C1427 H1442 0.961 . S
C1427 H1443 0.960 . S
H1428 C1412 0.931 . S
H1429 C1417 0.929 . S
H1430 C1418 0.960 . S
H1431 C1418 0.962 . S
H1432 C1418 0.960 . S
H1433 C1419 0.961 . S
H1434 C1419 0.961 . S
H1435 C1419 0.961 . S
H1436 C1420 0.931 . S
H1437 C1425 0.930 . S
H1438 C1426 0.956 . S
H1439 C1426 0.961 . S
H1440 C1426 0.961 . S
H1441 C1427 0.958 . S
H1442 C1427 0.961 . S
H1443 C1427 0.960 . S
C1444 C1445 1.391 . S
C1444 C1446 1.394 . S
C1444 H1460 0.931 . S
C1445 C1444 1.391 . S
C1445 C1449 1.376 . S
C1446 C1444 1.394 . S
C1446 C1447 1.369 . S
C1446 C1450 1.531 . S
C1447 C1446 1.369 . S
C1447 C1448 1.410 . S
C1447 C1455 1.503 . S
C1448 C1447 1.410 . S
C1448 C1449 1.392 . S
C1448 C1451 1.511 . S
C1449 C1445 1.376 . S
C1449 C1448 1.392 . S
C1449 H1461 0.929 . S
C1450 C1446 1.531 . S
C1450 H1462 0.960 . S
C1450 H1463 0.962 . S
C1450 H1464 0.960 . S
C1451 C1448 1.511 . S
C1451 H1465 0.961 . S
C1451 H1466 0.961 . S
C1451 H1467 0.961 . S
C1452 C1453 1.370 . S
C1452 C1454 1.363 . S
C1452 H1468 0.931 . S
C1453 C1452 1.370 . S
C1453 C1457 1.408 . S
C1454 C1452 1.363 . S
C1454 C1455 1.370 . S
C1454 C1458 1.524 . S
C1455 C1447 1.503 . S
C1455 C1454 1.370 . S
C1455 C1456 1.403 . S
C1456 C1455 1.403 . S
C1456 C1457 1.404 . S
C1456 C1459 1.539 . S
C1457 C1453 1.408 . S
C1457 C1456 1.404 . S
C1457 H1469 0.930 . S
C1458 C1454 1.524 . S
C1458 H1470 0.956 . S
C1458 H1471 0.961 . S
C1458 H1472 0.961 . S
C1459 C1456 1.539 . S
C1459 H1473 0.958 . S
C1459 H1474 0.961 . S
C1459 H1475 0.960 . S
H1460 C1444 0.931 . S
H1461 C1449 0.929 . S
H1462 C1450 0.960 . S
H1463 C1450 0.962 . S
H1464 C1450 0.960 . S
H1465 C1451 0.961 . S
H1466 C1451 0.961 . S
H1467 C1451 0.961 . S
H1468 C1452 0.931 . S
H1469 C1457 0.930 . S
H1470 C1458 0.956 . S
H1471 C1458 0.961 . S
H1472 C1458 0.961 . S
H1473 C1459 0.958 . S
H1474 C1459 0.961 . S
H1475 C1459 0.960 . S
C1476 C1477 1.391 . S
C1476 C1478 1.394 . S
C1476 H1492 0.931 . S
C1477 C1476 1.391 . S
C1477 C1481 1.376 . S
C1478 C1476 1.394 . S
C1478 C1479 1.369 . S
C1478 C1482 1.531 . S
C1479 C1478 1.369 . S
C1479 C1480 1.410 . S
C1479 C1487 1.503 . S
C1480 C1479 1.410 . S
C1480 C1481 1.392 . S
C1480 C1483 1.511 . S
C1481 C1477 1.376 . S
C1481 C1480 1.392 . S
C1481 H1493 0.929 . S
C1482 C1478 1.531 . S
C1482 H1494 0.960 . S
C1482 H1495 0.962 . S
C1482 H1496 0.960 . S
C1483 C1480 1.511 . S
C1483 H1497 0.961 . S
C1483 H1498 0.961 . S
C1483 H1499 0.961 . S
C1484 C1485 1.370 . S
C1484 C1486 1.363 . S
C1484 H1500 0.931 . S
C1485 C1484 1.370 . S
C1485 C1489 1.408 . S
C1486 C1484 1.363 . S
C1486 C1487 1.370 . S
C1486 C1490 1.524 . S
C1487 C1479 1.503 . S
C1487 C1486 1.370 . S
C1487 C1488 1.403 . S
C1488 C1487 1.403 . S
C1488 C1489 1.404 . S
C1488 C1491 1.539 . S
C1489 C1485 1.408 . S
C1489 C1488 1.404 . S
C1489 H1501 0.930 . S
C1490 C1486 1.524 . S
C1490 H1502 0.956 . S
C1490 H1503 0.961 . S
C1490 H1504 0.961 . S
C1491 C1488 1.539 . S
C1491 H1505 0.958 . S
C1491 H1506 0.961 . S
C1491 H1507 0.960 . S
H1492 C1476 0.931 . S
H1493 C1481 0.929 . S
H1494 C1482 0.960 . S
H1495 C1482 0.962 . S
H1496 C1482 0.960 . S
H1497 C1483 0.961 . S
H1498 C1483 0.961 . S
H1499 C1483 0.961 . S
H1500 C1484 0.931 . S
H1501 C1489 0.930 . S
H1502 C1490 0.956 . S
H1503 C1490 0.961 . S
H1504 C1490 0.961 . S
H1505 C1491 0.958 . S
H1506 C1491 0.961 . S
H1507 C1491 0.960 . S
C1508 C1509 1.391 . S
C1508 C1510 1.394 . S
C1508 H1524 0.931 . S
C1509 C1508 1.391 . S
C1509 C1513 1.376 . S
C1510 C1508 1.394 . S
C1510 C1511 1.369 . S
C1510 C1514 1.531 . S
C1511 C1510 1.369 . S
C1511 C1512 1.410 . S
C1511 C1519 1.503 . S
C1512 C1511 1.410 . S
C1512 C1513 1.392 . S
C1512 C1515 1.511 . S
C1513 C1509 1.376 . S
C1513 C1512 1.392 . S
C1513 H1525 0.929 . S
C1514 C1510 1.531 . S
C1514 H1526 0.960 . S
C1514 H1527 0.962 . S
C1514 H1528 0.960 . S
C1515 C1512 1.511 . S
C1515 H1529 0.961 . S
C1515 H1530 0.961 . S
C1515 H1531 0.961 . S
C1516 C1517 1.370 . S
C1516 C1518 1.363 . S
C1516 H1532 0.931 . S
C1517 C1516 1.370 . S
C1517 C1521 1.408 . S
C1518 C1516 1.363 . S
C1518 C1519 1.370 . S
C1518 C1522 1.524 . S
C1519 C1511 1.503 . S
C1519 C1518 1.370 . S
C1519 C1520 1.403 . S
C1520 C1519 1.403 . S
C1520 C1521 1.404 . S
C1520 C1523 1.539 . S
C1521 C1517 1.408 . S
C1521 C1520 1.404 . S
C1521 H1533 0.930 . S
C1522 C1518 1.524 . S
C1522 H1534 0.956 . S
C1522 H1535 0.961 . S
C1522 H1536 0.961 . S
C1523 C1520 1.539 . S
C1523 H1537 0.958 . S
C1523 H1538 0.961 . S
C1523 H1539 0.960 . S
H1524 C1508 0.931 . S
H1525 C1513 0.929 . S
H1526 C1514 0.960 . S
H1527 C1514 0.962 . S
H1528 C1514 0.960 . S
H1529 C1515 0.961 . S
H1530 C1515 0.961 . S
H1531 C1515 0.961 . S
H1532 C1516 0.931 . S
H1533 C1521 0.930 . S
H1534 C1522 0.956 . S
H1535 C1522 0.961 . S
H1536 C1522 0.961 . S
H1537 C1523 0.958 . S
H1538 C1523 0.961 . S
H1539 C1523 0.960 . S
C1540 C1541 1.391 . S
C1540 C1542 1.394 . S
C1540 H1556 0.931 . S
C1541 C1540 1.391 . S
C1541 C1545 1.376 . S
C1542 C1540 1.394 . S
C1542 C1543 1.369 . S
C1542 C1546 1.531 . S
C1543 C1542 1.369 . S
C1543 C1544 1.410 . S
C1543 C1551 1.503 . S
C1544 C1543 1.410 . S
C1544 C1545 1.392 . S
C1544 C1547 1.511 . S
C1545 C1541 1.376 . S
C1545 C1544 1.392 . S
C1545 H1557 0.929 . S
C1546 C1542 1.531 . S
C1546 H1558 0.960 . S
C1546 H1559 0.962 . S
C1546 H1560 0.960 . S
C1547 C1544 1.511 . S
C1547 H1561 0.961 . S
C1547 H1562 0.961 . S
C1547 H1563 0.961 . S
C1548 C1549 1.370 . S
C1548 C1550 1.363 . S
C1548 H1564 0.931 . S
C1549 C1548 1.370 . S
C1549 C1553 1.408 . S
C1550 C1548 1.363 . S
C1550 C1551 1.370 . S
C1550 C1554 1.524 . S
C1551 C1543 1.503 . S
C1551 C1550 1.370 . S
C1551 C1552 1.403 . S
C1552 C1551 1.403 . S
C1552 C1553 1.404 . S
C1552 C1555 1.539 . S
C1553 C1549 1.408 . S
C1553 C1552 1.404 . S
C1553 H1565 0.930 . S
C1554 C1550 1.524 . S
C1554 H1566 0.956 . S
C1554 H1567 0.961 . S
C1554 H1568 0.961 . S
C1555 C1552 1.539 . S
C1555 H1569 0.958 . S
C1555 H1570 0.961 . S
C1555 H1571 0.960 . S
H1556 C1540 0.931 . S
H1557 C1545 0.929 . S
H1558 C1546 0.960 . S
H1559 C1546 0.962 . S
H1560 C1546 0.960 . S
H1561 C1547 0.961 . S
H1562 C1547 0.961 . S
H1563 C1547 0.961 . S
H1564 C1548 0.931 . S
H1565 C1553 0.930 . S
H1566 C1554 0.956 . S
H1567 C1554 0.961 . S
H1568 C1554 0.961 . S
H1569 C1555 0.958 . S
H1570 C1555 0.961 . S
H1571 C1555 0.960 . S
C1572 C1573 1.391 . S
C1572 C1574 1.394 . S
C1572 H1588 0.931 . S
C1573 C1572 1.391 . S
C1573 C1577 1.376 . S
C1574 C1572 1.394 . S
C1574 C1575 1.369 . S
C1574 C1578 1.531 . S
C1575 C1574 1.369 . S
C1575 C1576 1.410 . S
C1575 C1583 1.503 . S
C1576 C1575 1.410 . S
C1576 C1577 1.392 . S
C1576 C1579 1.511 . S
C1577 C1573 1.376 . S
C1577 C1576 1.392 . S
C1577 H1589 0.929 . S
C1578 C1574 1.531 . S
C1578 H1590 0.960 . S
C1578 H1591 0.962 . S
C1578 H1592 0.960 . S
C1579 C1576 1.511 . S
C1579 H1593 0.961 . S
C1579 H1594 0.961 . S
C1579 H1595 0.961 . S
C1580 C1581 1.370 . S
C1580 C1582 1.363 . S
C1580 H1596 0.931 . S
C1581 C1580 1.370 . S
C1581 C1585 1.408 . S
C1582 C1580 1.363 . S
C1582 C1583 1.370 . S
C1582 C1586 1.524 . S
C1583 C1575 1.503 . S
C1583 C1582 1.370 . S
C1583 C1584 1.403 . S
C1584 C1583 1.403 . S
C1584 C1585 1.404 . S
C1584 C1587 1.539 . S
C1585 C1581 1.408 . S
C1585 C1584 1.404 . S
C1585 H1597 0.930 . S
C1586 C1582 1.524 . S
C1586 H1598 0.956 . S
C1586 H1599 0.961 . S
C1586 H1600 0.961 . S
C1587 C1584 1.539 . S
C1587 H1601 0.958 . S
C1587 H1602 0.961 . S
C1587 H1603 0.960 . S
H1588 C1572 0.931 . S
H1589 C1577 0.929 . S
H1590 C1578 0.960 . S
H1591 C1578 0.962 . S
H1592 C1578 0.960 . S
H1593 C1579 0.961 . S
H1594 C1579 0.961 . S
H1595 C1579 0.961 . S
H1596 C1580 0.931 . S
H1597 C1585 0.930 . S
H1598 C1586 0.956 . S
H1599 C1586 0.961 . S
H1600 C1586 0.961 . S
H1601 C1587 0.958 . S
H1602 C1587 0.961 . S
H1603 C1587 0.960 . S
C1604 C1605 1.391 . S
C1604 C1606 1.394 . S
C1604 H1620 0.931 . S
C1605 C1604 1.391 . S
C1605 C1609 1.376 . S
C1606 C1604 1.394 . S
C1606 C1607 1.369 . S
C1606 C1610 1.531 . S
C1607 C1606 1.369 . S
C1607 C1608 1.410 . S
C1607 C1615 1.503 . S
C1608 C1607 1.410 . S
C1608 C1609 1.392 . S
C1608 C1611 1.511 . S
C1609 C1605 1.376 . S
C1609 C1608 1.392 . S
C1609 H1621 0.929 . S
C1610 C1606 1.531 . S
C1610 H1622 0.960 . S
C1610 H1623 0.962 . S
C1610 H1624 0.960 . S
C1611 C1608 1.511 . S
C1611 H1625 0.961 . S
C1611 H1626 0.961 . S
C1611 H1627 0.961 . S
C1612 C1613 1.370 . S
C1612 C1614 1.363 . S
C1612 H1628 0.931 . S
C1613 C1612 1.370 . S
C1613 C1617 1.408 . S
C1614 C1612 1.363 . S
C1614 C1615 1.370 . S
C1614 C1618 1.524 . S
C1615 C1607 1.503 . S
C1615 C1614 1.370 . S
C1615 C1616 1.403 . S
C1616 C1615 1.403 . S
C1616 C1617 1.404 . S
C1616 C1619 1.539 . S
C1617 C1613 1.408 . S
C1617 C1616 1.404 . S
C1617 H1629 0.930 . S
C1618 C1614 1.524 . S
C1618 H1630 0.956 . S
C1618 H1631 0.961 . S
C1618 H1632 0.961 . S
C1619 C1616 1.539 . S
C1619 H1633 0.958 . S
C1619 H1634 0.961 . S
C1619 H1635 0.960 . S
H1620 C1604 0.931 . S
H1621 C1609 0.929 . S
H1622 C1610 0.960 . S
H1623 C1610 0.962 . S
H1624 C1610 0.960 . S
H1625 C1611 0.961 . S
H1626 C1611 0.961 . S
H1627 C1611 0.961 . S
H1628 C1612 0.931 . S
H1629 C1617 0.930 . S
H1630 C1618 0.956 . S
H1631 C1618 0.961 . S
H1632 C1618 0.961 . S
H1633 C1619 0.958 . S
H1634 C1619 0.961 . S
H1635 C1619 0.960 . S
C1636 C1637 1.391 . S
C1636 C1638 1.394 . S
C1636 H1652 0.931 . S
C1637 C1636 1.391 . S
C1637 C1641 1.376 . S
C1638 C1636 1.394 . S
C1638 C1639 1.369 . S
C1638 C1642 1.531 . S
C1639 C1638 1.369 . S
C1639 C1640 1.410 . S
C1639 C1647 1.503 . S
C1640 C1639 1.410 . S
C1640 C1641 1.392 . S
C1640 C1643 1.511 . S
C1641 C1637 1.376 . S
C1641 C1640 1.392 . S
C1641 H1653 0.929 . S
C1642 C1638 1.531 . S
C1642 H1654 0.960 . S
C1642 H1655 0.962 . S
C1642 H1656 0.960 . S
C1643 C1640 1.511 . S
C1643 H1657 0.961 . S
C1643 H1658 0.961 . S
C1643 H1659 0.961 . S
C1644 C1645 1.370 . S
C1644 C1646 1.363 . S
C1644 H1660 0.931 . S
C1645 C1644 1.370 . S
C1645 C1649 1.408 . S
C1646 C1644 1.363 . S
C1646 C1647 1.370 . S
C1646 C1650 1.524 . S
C1647 C1639 1.503 . S
C1647 C1646 1.370 . S
C1647 C1648 1.403 . S
C1648 C1647 1.403 . S
C1648 C1649 1.404 . S
C1648 C1651 1.539 . S
C1649 C1645 1.408 . S
C1649 C1648 1.404 . S
C1649 H1661 0.930 . S
C1650 C1646 1.524 . S
C1650 H1662 0.956 . S
C1650 H1663 0.961 . S
C1650 H1664 0.961 . S
C1651 C1648 1.539 . S
C1651 H1665 0.958 . S
C1651 H1666 0.961 . S
C1651 H1667 0.960 . S
H1652 C1636 0.931 . S
H1653 C1641 0.929 . S
H1654 C1642 0.960 . S
H1655 C1642 0.962 . S
H1656 C1642 0.960 . S
H1657 C1643 0.961 . S
H1658 C1643 0.961 . S
H1659 C1643 0.961 . S
H1660 C1644 0.931 . S
H1661 C1649 0.930 . S
H1662 C1650 0.956 . S
H1663 C1650 0.961 . S
H1664 C1650 0.961 . S
H1665 C1651 0.958 . S
H1666 C1651 0.961 . S
H1667 C1651 0.960 . S
C1668 C1669 1.391 . S
C1668 C1670 1.394 . S
C1668 H1684 0.931 . S
C1669 C1668 1.391 . S
C1669 C1673 1.376 . S
C1670 C1668 1.394 . S
C1670 C1671 1.369 . S
C1670 C1674 1.531 . S
C1671 C1670 1.369 . S
C1671 C1672 1.410 . S
C1671 C1679 1.503 . S
C1672 C1671 1.410 . S
C1672 C1673 1.392 . S
C1672 C1675 1.511 . S
C1673 C1669 1.376 . S
C1673 C1672 1.392 . S
C1673 H1685 0.929 . S
C1674 C1670 1.531 . S
C1674 H1686 0.960 . S
C1674 H1687 0.962 . S
C1674 H1688 0.960 . S
C1675 C1672 1.511 . S
C1675 H1689 0.961 . S
C1675 H1690 0.961 . S
C1675 H1691 0.961 . S
C1676 C1677 1.370 . S
C1676 C1678 1.363 . S
C1676 H1692 0.931 . S
C1677 C1676 1.370 . S
C1677 C1681 1.408 . S
C1678 C1676 1.363 . S
C1678 C1679 1.370 . S
C1678 C1682 1.524 . S
C1679 C1671 1.503 . S
C1679 C1678 1.370 . S
C1679 C1680 1.403 . S
C1680 C1679 1.403 . S
C1680 C1681 1.404 . S
C1680 C1683 1.539 . S
C1681 C1677 1.408 . S
C1681 C1680 1.404 . S
C1681 H1693 0.930 . S
C1682 C1678 1.524 . S
C1682 H1694 0.956 . S
C1682 H1695 0.961 . S
C1682 H1696 0.961 . S
C1683 C1680 1.539 . S
C1683 H1697 0.958 . S
C1683 H1698 0.961 . S
C1683 H1699 0.960 . S
H1684 C1668 0.931 . S
H1685 C1673 0.929 . S
H1686 C1674 0.960 . S
H1687 C1674 0.962 . S
H1688 C1674 0.960 . S
H1689 C1675 0.961 . S
H1690 C1675 0.961 . S
H1691 C1675 0.961 . S
H1692 C1676 0.931 . S
H1693 C1681 0.930 . S
H1694 C1682 0.956 . S
H1695 C1682 0.961 . S
H1696 C1682 0.961 . S
H1697 C1683 0.958 . S
H1698 C1683 0.961 . S
H1699 C1683 0.960 . S
C1700 C1701 1.391 . S
C1700 C1702 1.394 . S
C1700 H1716 0.931 . S
C1701 C1700 1.391 . S
C1701 C1705 1.376 . S
C1702 C1700 1.394 . S
C1702 C1703 1.369 . S
C1702 C1706 1.531 . S
C1703 C1702 1.369 . S
C1703 C1704 1.410 . S
C1703 C1711 1.503 . S
C1704 C1703 1.410 . S
C1704 C1705 1.392 . S
C1704 C1707 1.511 . S
C1705 C1701 1.376 . S
C1705 C1704 1.392 . S
C1705 H1717 0.929 . S
C1706 C1702 1.531 . S
C1706 H1718 0.960 . S
C1706 H1719 0.962 . S
C1706 H1720 0.960 . S
C1707 C1704 1.511 . S
C1707 H1721 0.961 . S
C1707 H1722 0.961 . S
C1707 H1723 0.961 . S
C1708 C1709 1.370 . S
C1708 C1710 1.363 . S
C1708 H1724 0.931 . S
C1709 C1708 1.370 . S
C1709 C1713 1.408 . S
C1710 C1708 1.363 . S
C1710 C1711 1.370 . S
C1710 C1714 1.524 . S
C1711 C1703 1.503 . S
C1711 C1710 1.370 . S
C1711 C1712 1.403 . S
C1712 C1711 1.403 . S
C1712 C1713 1.404 . S
C1712 C1715 1.539 . S
C1713 C1709 1.408 . S
C1713 C1712 1.404 . S
C1713 H1725 0.930 . S
C1714 C1710 1.524 . S
C1714 H1726 0.956 . S
C1714 H1727 0.961 . S
C1714 H1728 0.961 . S
C1715 C1712 1.539 . S
C1715 H1729 0.958 . S
C1715 H1730 0.961 . S
C1715 H1731 0.960 . S
H1716 C1700 0.931 . S
H1717 C1705 0.929 . S
H1718 C1706 0.960 . S
H1719 C1706 0.962 . S
H1720 C1706 0.960 . S
H1721 C1707 0.961 . S
H1722 C1707 0.961 . S
H1723 C1707 0.961 . S
H1724 C1708 0.931 . S
H1725 C1713 0.930 . S
H1726 C1714 0.956 . S
H1727 C1714 0.961 . S
H1728 C1714 0.961 . S
H1729 C1715 0.958 . S
H1730 C1715 0.961 . S
H1731 C1715 0.960 . S
C1732 C1733 1.391 . S
C1732 C1734 1.394 . S
C1732 H1748 0.931 . S
C1733 C1732 1.391 . S
C1733 C1737 1.376 . S
C1734 C1732 1.394 . S
C1734 C1735 1.369 . S
C1734 C1738 1.531 . S
C1735 C1734 1.369 . S
C1735 C1736 1.410 . S
C1735 C1743 1.503 . S
C1736 C1735 1.410 . S
C1736 C1737 1.392 . S
C1736 C1739 1.511 . S
C1737 C1733 1.376 . S
C1737 C1736 1.392 . S
C1737 H1749 0.929 . S
C1738 C1734 1.531 . S
C1738 H1750 0.960 . S
C1738 H1751 0.962 . S
C1738 H1752 0.960 . S
C1739 C1736 1.511 . S
C1739 H1753 0.961 . S
C1739 H1754 0.961 . S
C1739 H1755 0.961 . S
C1740 C1741 1.370 . S
C1740 C1742 1.363 . S
C1740 H1756 0.931 . S
C1741 C1740 1.370 . S
C1741 C1745 1.408 . S
C1742 C1740 1.363 . S
C1742 C1743 1.370 . S
C1742 C1746 1.524 . S
C1743 C1735 1.503 . S
C1743 C1742 1.370 . S
C1743 C1744 1.403 . S
C1744 C1743 1.403 . S
C1744 C1745 1.404 . S
C1744 C1747 1.539 . S
C1745 C1741 1.408 . S
C1745 C1744 1.404 . S
C1745 H1757 0.930 . S
C1746 C1742 1.524 . S
C1746 H1758 0.956 . S
C1746 H1759 0.961 . S
C1746 H1760 0.961 . S
C1747 C1744 1.539 . S
C1747 H1761 0.958 . S
C1747 H1762 0.961 . S
C1747 H1763 0.960 . S
H1748 C1732 0.931 . S
H1749 C1737 0.929 . S
H1750 C1738 0.960 . S
H1751 C1738 0.962 . S
H1752 C1738 0.960 . S
H1753 C1739 0.961 . S
H1754 C1739 0.961 . S
H1755 C1739 0.961 . S
H1756 C1740 0.931 . S
H1757 C1745 0.930 . S
H1758 C1746 0.956 . S
H1759 C1746 0.961 . S
H1760 C1746 0.961 . S
H1761 C1747 0.958 . S
H1762 C1747 0.961 . S
H1763 C1747 0.960 . S
C1764 C1765 1.391 . S
C1764 C1766 1.394 . S
C1764 H1780 0.931 . S
C1765 C1764 1.391 . S
C1765 C1769 1.376 . S
C1766 C1764 1.394 . S
C1766 C1767 1.369 . S
C1766 C1770 1.531 . S
C1767 C1766 1.369 . S
C1767 C1768 1.410 . S
C1767 C1775 1.503 . S
C1768 C1767 1.410 . S
C1768 C1769 1.392 . S
C1768 C1771 1.511 . S
C1769 C1765 1.376 . S
C1769 C1768 1.392 . S
C1769 H1781 0.929 . S
C1770 C1766 1.531 . S
C1770 H1782 0.960 . S
C1770 H1783 0.962 . S
C1770 H1784 0.960 . S
C1771 C1768 1.511 . S
C1771 H1785 0.961 . S
C1771 H1786 0.961 . S
C1771 H1787 0.961 . S
C1772 C1773 1.370 . S
C1772 C1774 1.363 . S
C1772 H1788 0.931 . S
C1773 C1772 1.370 . S
C1773 C1777 1.408 . S
C1774 C1772 1.363 . S
C1774 C1775 1.370 . S
C1774 C1778 1.524 . S
C1775 C1767 1.503 . S
C1775 C1774 1.370 . S
C1775 C1776 1.403 . S
C1776 C1775 1.403 . S
C1776 C1777 1.404 . S
C1776 C1779 1.539 . S
C1777 C1773 1.408 . S
C1777 C1776 1.404 . S
C1777 H1789 0.930 . S
C1778 C1774 1.524 . S
C1778 H1790 0.956 . S
C1778 H1791 0.961 . S
C1778 H1792 0.961 . S
C1779 C1776 1.539 . S
C1779 H1793 0.958 . S
C1779 H1794 0.961 . S
C1779 H1795 0.960 . S
H1780 C1764 0.931 . S
H1781 C1769 0.929 . S
H1782 C1770 0.960 . S
H1783 C1770 0.962 . S
H1784 C1770 0.960 . S
H1785 C1771 0.961 . S
H1786 C1771 0.961 . S
H1787 C1771 0.961 . S
H1788 C1772 0.931 . S
H1789 C1777 0.930 . S
H1790 C1778 0.956 . S
H1791 C1778 0.961 . S
H1792 C1778 0.961 . S
H1793 C1779 0.958 . S
H1794 C1779 0.961 . S
H1795 C1779 0.960 . S
C1796 C1797 1.391 . S
C1796 C1798 1.394 . S
C1796 H1812 0.931 . S
C1797 C1796 1.391 . S
C1797 C1801 1.376 . S
C1798 C1796 1.394 . S
C1798 C1799 1.369 . S
C1798 C1802 1.531 . S
C1799 C1798 1.369 . S
C1799 C1800 1.410 . S
C1799 C1807 1.503 . S
C1800 C1799 1.410 . S
C1800 C1801 1.392 . S
C1800 C1803 1.511 1_565 S
C1801 C1797 1.376 . S
C1801 C1800 1.392 . S
C1801 H1813 0.929 . S
C1802 C1798 1.531 . S
C1802 H1814 0.960 . S
C1802 H1815 0.962 . S
C1802 H1816 0.960 . S
C1803 C1800 1.511 1_545 S
C1803 H1817 0.961 . S
C1803 H1818 0.961 . S
C1803 H1819 0.961 . S
C1804 C1805 1.368 1_565 S
C1804 C1806 1.363 . S
C1804 H1820 0.931 . S
C1805 C1804 1.368 1_545 S
C1805 C1809 1.410 1_545 S
C1806 C1804 1.363 . S
C1806 C1807 1.370 . S
C1806 C1810 1.524 . S
C1807 C1799 1.503 . S
C1807 C1806 1.370 . S
C1807 C1808 1.403 . S
C1808 C1807 1.403 . S
C1808 C1809 1.404 . S
C1808 C1811 1.539 . S
C1809 C1805 1.410 1_565 S
C1809 C1808 1.404 . S
C1809 H1821 0.930 1_565 S
C1810 C1806 1.524 . S
C1810 H1822 0.956 . S
C1810 H1823 0.961 . S
C1810 H1824 0.961 . S
C1811 C1808 1.539 . S
C1811 H1825 0.958 . S
C1811 H1826 0.961 . S
C1811 H1827 0.960 . S
H1812 C1796 0.931 . S
H1813 C1801 0.929 . S
H1814 C1802 0.960 . S
H1815 C1802 0.962 . S
H1816 C1802 0.960 . S
H1817 C1803 0.961 . S
H1818 C1803 0.961 . S
H1819 C1803 0.961 . S
H1820 C1804 0.931 . S
H1821 C1809 0.930 1_545 S
H1822 C1810 0.956 . S
H1823 C1810 0.961 . S
H1824 C1810 0.961 . S
H1825 C1811 0.958 . S
H1826 C1811 0.961 . S
H1827 C1811 0.960 . S
C1828 C1829 1.393 1_655 S
C1828 C1830 1.394 1_655 S
C1828 H1844 0.931 . S
C1829 C1828 1.393 1_455 S
C1829 C1833 1.401 . S
C1830 C1828 1.394 1_455 S
C1830 C1831 1.369 . S
C1830 C1834 1.531 1_455 S
C1831 C1830 1.369 . S
C1831 C1832 1.410 . S
C1831 C1839 1.503 . S
C1832 C1831 1.410 . S
C1832 C1833 1.392 . S
C1832 C1835 1.511 . S
C1833 C1829 1.401 . S
C1833 C1832 1.392 . S
C1833 H1845 0.929 . S
C1834 C1830 1.531 1_655 S
C1834 H1846 0.960 1_655 S
C1834 H1847 0.962 . S
C1834 H1848 0.960 . S
C1835 C1832 1.511 . S
C1835 H1849 0.961 . S
C1835 H1850 0.961 . S
C1835 H1851 0.961 . S
C1836 C1837 1.370 . S
C1836 C1838 1.363 . S
C1836 H1852 0.931 . S
C1837 C1836 1.370 . S
C1837 C1841 1.408 . S
C1838 C1836 1.363 . S
C1838 C1839 1.370 . S
C1838 C1842 1.524 . S
C1839 C1831 1.503 . S
C1839 C1838 1.370 . S
C1839 C1840 1.403 . S
C1840 C1839 1.403 . S
C1840 C1841 1.404 . S
C1840 C1843 1.539 . S
C1841 C1837 1.408 . S
C1841 C1840 1.404 . S
C1841 H1853 0.930 . S
C1842 C1838 1.524 . S
C1842 H1854 0.956 . S
C1842 H1855 0.961 . S
C1842 H1856 0.961 . S
C1843 C1840 1.539 . S
C1843 H1857 0.958 . S
C1843 H1858 0.961 . S
C1843 H1859 0.960 . S
H1844 C1828 0.931 . S
H1845 C1833 0.929 . S
H1846 C1834 0.960 1_455 S
H1847 C1834 0.962 . S
H1848 C1834 0.960 . S
H1849 C1835 0.961 . S
H1850 C1835 0.961 . S
H1851 C1835 0.961 . S
H1852 C1836 0.931 . S
H1853 C1841 0.930 . S
H1854 C1842 0.956 . S
H1855 C1842 0.961 . S
H1856 C1842 0.961 . S
H1857 C1843 0.958 . S
H1858 C1843 0.961 . S
H1859 C1843 0.960 . S
C1860 C1861 1.391 . S
C1860 C1862 1.394 . S
C1860 H1876 0.931 . S
C1861 C1860 1.391 . S
C1861 C1865 1.376 . S
C1862 C1860 1.394 . S
C1862 C1863 1.369 . S
C1862 C1866 1.531 . S
C1863 C1862 1.369 . S
C1863 C1864 1.410 . S
C1863 C1871 1.503 . S
C1864 C1863 1.410 . S
C1864 C1865 1.392 . S
C1864 C1867 1.511 . S
C1865 C1861 1.376 . S
C1865 C1864 1.392 . S
C1865 H1877 0.929 . S
C1866 C1862 1.531 . S
C1866 H1878 0.960 . S
C1866 H1879 0.962 . S
C1866 H1880 0.960 . S
C1867 C1864 1.511 . S
C1867 H1881 0.961 . S
C1867 H1882 0.961 . S
C1867 H1883 0.961 . S
C1868 C1869 1.370 . S
C1868 C1870 1.363 . S
C1868 H1884 0.931 . S
C1869 C1868 1.370 . S
C1869 C1873 1.408 . S
C1870 C1868 1.363 . S
C1870 C1871 1.370 . S
C1870 C1874 1.524 . S
C1871 C1863 1.503 . S
C1871 C1870 1.370 . S
C1871 C1872 1.403 . S
C1872 C1871 1.403 . S
C1872 C1873 1.404 . S
C1872 C1875 1.539 . S
C1873 C1869 1.408 . S
C1873 C1872 1.404 . S
C1873 H1885 0.930 . S
C1874 C1870 1.524 . S
C1874 H1886 0.956 . S
C1874 H1887 0.961 . S
C1874 H1888 0.961 . S
C1875 C1872 1.539 . S
C1875 H1889 0.958 . S
C1875 H1890 0.961 . S
C1875 H1891 0.960 . S
H1876 C1860 0.931 . S
H1877 C1865 0.929 . S
H1878 C1866 0.960 . S
H1879 C1866 0.962 . S
H1880 C1866 0.960 . S
H1881 C1867 0.961 . S
H1882 C1867 0.961 . S
H1883 C1867 0.961 . S
H1884 C1868 0.931 . S
H1885 C1873 0.930 . S
H1886 C1874 0.956 . S
H1887 C1874 0.961 . S
H1888 C1874 0.961 . S
H1889 C1875 0.958 . S
H1890 C1875 0.961 . S
H1891 C1875 0.960 . S
C1892 C1893 1.391 1_545 S
C1892 C1894 1.394 . S
C1892 H1908 0.931 . S
C1893 C1892 1.391 1_565 S
C1893 C1897 1.376 . S
C1894 C1892 1.394 . S
C1894 C1895 1.369 . S
C1894 C1898 1.531 . S
C1895 C1894 1.369 . S
C1895 C1896 1.395 1_545 S
C1895 C1903 1.503 . S
C1896 C1895 1.395 1_565 S
C1896 C1897 1.408 . S
C1896 C1899 1.511 . S
C1897 C1893 1.376 . S
C1897 C1896 1.408 . S
C1897 H1909 0.929 . S
C1898 C1894 1.531 . S
C1898 H1910 0.960 . S
C1898 H1911 0.962 . S
C1898 H1912 0.960 . S
C1899 C1896 1.511 . S
C1899 H1913 0.961 . S
C1899 H1914 0.984 . S
C1899 H1915 0.961 . S
C1900 C1901 1.370 . S
C1900 C1902 1.363 . S
C1900 H1916 0.931 . S
C1901 C1900 1.370 . S
C1901 C1905 1.408 . S
C1902 C1900 1.363 . S
C1902 C1903 1.370 . S
C1902 C1906 1.524 . S
C1903 C1895 1.503 . S
C1903 C1902 1.370 . S
C1903 C1904 1.403 . S
C1904 C1903 1.403 . S
C1904 C1905 1.404 . S
C1904 C1907 1.539 . S
C1905 C1901 1.408 . S
C1905 C1904 1.404 . S
C1905 H1917 0.930 . S
C1906 C1902 1.524 . S
C1906 H1918 0.956 . S
C1906 H1919 0.961 . S
C1906 H1920 0.961 . S
C1907 C1904 1.539 . S
C1907 H1921 0.958 . S
C1907 H1922 0.961 . S
C1907 H1923 0.960 . S
H1908 C1892 0.931 . S
H1909 C1897 0.929 . S
H1910 C1898 0.960 . S
H1911 C1898 0.962 . S
H1912 C1898 0.960 . S
H1913 C1899 0.961 . S
H1914 C1899 0.984 . S
H1915 C1899 0.961 . S
H1916 C1900 0.931 . S
H1917 C1905 0.930 . S
H1918 C1906 0.956 . S
H1919 C1906 0.961 . S
H1920 C1906 0.961 . S
H1921 C1907 0.958 . S
H1922 C1907 0.961 . S
H1923 C1907 0.960 . S
C1924 C1925 1.391 . S
C1924 C1926 1.394 . S
C1924 H1940 0.931 . S
C1925 C1924 1.391 . S
C1925 C1929 1.376 . S
C1926 C1924 1.394 . S
C1926 C1927 1.369 . S
C1926 C1930 1.531 1_655 S
C1927 C1926 1.369 . S
C1927 C1928 1.410 . S
C1927 C1935 1.503 . S
C1928 C1927 1.410 . S
C1928 C1929 1.392 . S
C1928 C1931 1.511 . S
C1929 C1925 1.376 . S
C1929 C1928 1.392 . S
C1929 H1941 0.929 . S
C1930 C1926 1.531 1_455 S
C1930 H1942 0.960 . S
C1930 H1943 0.962 . S
C1930 H1944 0.960 . S
C1931 C1928 1.511 . S
C1931 H1945 0.961 . S
C1931 H1946 0.961 . S
C1931 H1947 0.961 . S
C1932 C1933 1.370 1_655 S
C1932 C1934 1.363 . S
C1932 H1948 0.930 . S
C1933 C1932 1.370 1_455 S
C1933 C1937 1.409 1_455 S
C1934 C1932 1.363 . S
C1934 C1935 1.370 . S
C1934 C1938 1.524 . S
C1935 C1927 1.503 . S
C1935 C1934 1.370 . S
C1935 C1936 1.403 . S
C1936 C1935 1.403 . S
C1936 C1937 1.404 . S
C1936 C1939 1.539 . S
C1937 C1933 1.409 1_655 S
C1937 C1936 1.404 . S
C1937 H1949 0.930 . S
C1938 C1934 1.524 . S
C1938 H1950 0.956 . S
C1938 H1951 0.961 . S
C1938 H1952 0.961 . S
C1939 C1936 1.539 . S
C1939 H1953 0.958 . S
C1939 H1954 0.961 . S
C1939 H1955 0.960 . S
H1940 C1924 0.931 . S
H1941 C1929 0.929 . S
H1942 C1930 0.960 . S
H1943 C1930 0.962 . S
H1944 C1930 0.960 . S
H1945 C1931 0.961 . S
H1946 C1931 0.961 . S
H1947 C1931 0.961 . S
H1948 C1932 0.930 . S
H1949 C1937 0.930 . S
H1950 C1938 0.956 . S
H1951 C1938 0.961 . S
H1952 C1938 0.961 . S
H1953 C1939 0.958 . S
H1954 C1939 0.961 . S
H1955 C1939 0.960 . S
C1956 C1957 1.391 . S
C1956 C1958 1.394 . S
C1956 H1972 0.931 . S
C1957 C1956 1.391 . S
C1957 C1961 1.376 . S
C1958 C1956 1.394 . S
C1958 C1959 1.369 . S
C1958 C1962 1.531 . S
C1959 C1958 1.369 . S
C1959 C1960 1.410 . S
C1959 C1967 1.503 . S
C1960 C1959 1.410 . S
C1960 C1961 1.392 . S
C1960 C1963 1.511 . S
C1961 C1957 1.376 . S
C1961 C1960 1.392 . S
C1961 H1973 0.929 . S
C1962 C1958 1.531 . S
C1962 H1974 0.960 . S
C1962 H1975 0.962 . S
C1962 H1976 0.960 . S
C1963 C1960 1.511 . S
C1963 H1977 0.961 . S
C1963 H1978 0.961 . S
C1963 H1979 0.961 . S
C1964 C1965 1.370 . S
C1964 C1966 1.363 . S
C1964 H1980 0.931 . S
C1965 C1964 1.370 . S
C1965 C1969 1.408 . S
C1966 C1964 1.363 . S
C1966 C1967 1.370 . S
C1966 C1970 1.524 . S
C1967 C1959 1.503 . S
C1967 C1966 1.370 . S
C1967 C1968 1.403 . S
C1968 C1967 1.403 . S
C1968 C1969 1.404 . S
C1968 C1971 1.539 . S
C1969 C1965 1.408 . S
C1969 C1968 1.404 . S
C1969 H1981 0.930 . S
C1970 C1966 1.524 . S
C1970 H1982 0.956 . S
C1970 H1983 0.961 . S
C1970 H1984 0.961 . S
C1971 C1968 1.539 . S
C1971 H1985 0.958 . S
C1971 H1986 0.961 . S
C1971 H1987 0.960 . S
H1972 C1956 0.931 . S
H1973 C1961 0.929 . S
H1974 C1962 0.960 . S
H1975 C1962 0.962 . S
H1976 C1962 0.960 . S
H1977 C1963 0.961 . S
H1978 C1963 0.961 . S
H1979 C1963 0.961 . S
H1980 C1964 0.931 . S
H1981 C1969 0.930 . S
H1982 C1970 0.956 . S
H1983 C1970 0.961 . S
H1984 C1970 0.961 . S
H1985 C1971 0.958 . S
H1986 C1971 0.961 . S
H1987 C1971 0.960 . S
C1988 C1989 1.391 . S
C1988 C1990 1.394 . S
C1988 H2004 0.931 . S
C1989 C1988 1.391 . S
C1989 C1993 1.376 . S
C1990 C1988 1.394 . S
C1990 C1991 1.369 . S
C1990 C1994 1.531 1_545 S
C1991 C1990 1.369 . S
C1991 C1992 1.410 . S
C1991 C1999 1.503 . S
C1992 C1991 1.410 . S
C1992 C1993 1.392 . S
C1992 C1995 1.511 . S
C1993 C1989 1.376 . S
C1993 C1992 1.392 . S
C1993 H2005 0.929 . S
C1994 C1990 1.531 1_565 S
C1994 H2006 0.960 . S
C1994 H2007 0.962 . S
C1994 H2008 0.960 . S
C1995 C1992 1.511 . S
C1995 H2009 0.961 . S
C1995 H2010 0.961 . S
C1995 H2011 0.961 . S
C1996 C1997 1.367 1_545 S
C1996 C1998 1.363 . S
C1996 H2012 0.931 . S
C1997 C1996 1.367 1_565 S
C1997 C2001 1.404 . S
C1998 C1996 1.363 . S
C1998 C1999 1.370 . S
C1998 C2002 1.524 . S
C1999 C1991 1.503 . S
C1999 C1998 1.370 . S
C1999 C2000 1.403 . S
C2000 C1999 1.403 . S
C2000 C2001 1.405 1_545 S
C2000 C2003 1.539 . S
C2001 C1997 1.404 . S
C2001 C2000 1.405 1_565 S
C2001 H2013 0.938 . S
C2002 C1998 1.524 . S
C2002 H2014 0.956 . S
C2002 H2015 0.961 . S
C2002 H2016 0.961 . S
C2003 C2000 1.539 . S
C2003 H2017 0.958 1_545 S
C2003 H2018 0.961 . S
C2003 H2019 0.960 . S
H2004 C1988 0.931 . S
H2005 C1993 0.929 . S
H2006 C1994 0.960 . S
H2007 C1994 0.962 . S
H2008 C1994 0.960 . S
H2009 C1995 0.961 . S
H2010 C1995 0.961 . S
H2011 C1995 0.961 . S
H2012 C1996 0.931 . S
H2013 C2001 0.938 . S
H2014 C2002 0.956 . S
H2015 C2002 0.961 . S
H2016 C2002 0.961 . S
H2017 C2003 0.958 1_565 S
H2018 C2003 0.961 . S
H2019 C2003 0.960 . S
C2020 C2021 1.391 . S
C2020 C2022 1.394 . S
C2020 H2036 0.931 . S
C2021 C2020 1.391 . S
C2021 C2025 1.376 . S
C2022 C2020 1.394 . S
C2022 C2023 1.369 . S
C2022 C2026 1.488 1_655 S
C2023 C2022 1.369 . S
C2023 C2024 1.410 . S
C2023 C2031 1.503 . S
C2024 C2023 1.410 . S
C2024 C2025 1.392 . S
C2024 C2027 1.511 . S
C2025 C2021 1.376 . S
C2025 C2024 1.392 . S
C2025 H2037 0.929 . S
C2026 C2022 1.488 1_455 S
C2026 H2038 0.999 . S
C2026 H2039 0.973 . S
C2026 H2040 0.957 . S
C2027 C2024 1.511 . S
C2027 H2041 0.961 . S
C2027 H2042 0.961 . S
C2027 H2043 0.961 . S
C2028 C2029 1.359 1_655 S
C2028 C2030 1.363 . S
C2028 H2044 0.931 . S
C2029 C2028 1.359 1_455 S
C2029 C2033 1.404 . S
C2030 C2028 1.363 . S
C2030 C2031 1.370 . S
C2030 C2034 1.524 . S
C2031 C2023 1.503 . S
C2031 C2030 1.370 . S
C2031 C2032 1.403 . S
C2032 C2031 1.403 . S
C2032 C2033 1.404 1_655 S
C2032 C2035 1.539 . S
C2033 C2029 1.404 . S
C2033 C2032 1.404 1_455 S
C2033 H2045 0.930 . S
C2034 C2030 1.524 . S
C2034 H2046 0.956 . S
C2034 H2047 0.961 . S
C2034 H2048 0.961 . S
C2035 C2032 1.539 . S
C2035 H2049 0.958 1_655 S
C2035 H2050 0.961 . S
C2035 H2051 0.960 . S
H2036 C2020 0.931 . S
H2037 C2025 0.929 . S
H2038 C2026 0.999 . S
H2039 C2026 0.973 . S
H2040 C2026 0.957 . S
H2041 C2027 0.961 . S
H2042 C2027 0.961 . S
H2043 C2027 0.961 . S
H2044 C2028 0.931 . S
H2045 C2033 0.930 . S
H2046 C2034 0.956 . S
H2047 C2034 0.961 . S
H2048 C2034 0.961 . S
H2049 C2035 0.958 1_455 S
H2050 C2035 0.961 . S
H2051 C2035 0.960 . S
C2052 C2053 1.391 . S
C2052 C2054 1.394 . S
C2052 H2068 0.931 . S
C2053 C2052 1.391 . S
C2053 C2057 1.376 . S
C2054 C2052 1.394 . S
C2054 C2055 1.369 . S
C2054 C2058 1.531 . S
C2055 C2054 1.369 . S
C2055 C2056 1.410 . S
C2055 C2063 1.503 . S
C2056 C2055 1.410 . S
C2056 C2057 1.392 . S
C2056 C2059 1.511 . S
C2057 C2053 1.376 . S
C2057 C2056 1.392 . S
C2057 H2069 0.929 . S
C2058 C2054 1.531 . S
C2058 H2070 0.960 . S
C2058 H2071 0.962 . S
C2058 H2072 0.960 . S
C2059 C2056 1.511 . S
C2059 H2073 0.961 . S
C2059 H2074 0.961 . S
C2059 H2075 0.961 . S
C2060 C2061 1.370 . S
C2060 C2062 1.363 . S
C2060 H2076 0.931 . S
C2061 C2060 1.370 . S
C2061 C2065 1.408 . S
C2062 C2060 1.363 . S
C2062 C2063 1.370 . S
C2062 C2066 1.524 . S
C2063 C2055 1.503 . S
C2063 C2062 1.370 . S
C2063 C2064 1.403 . S
C2064 C2063 1.403 . S
C2064 C2065 1.404 . S
C2064 C2067 1.539 . S
C2065 C2061 1.408 . S
C2065 C2064 1.404 . S
C2065 H2077 0.930 . S
C2066 C2062 1.524 . S
C2066 H2078 0.956 . S
C2066 H2079 0.961 . S
C2066 H2080 0.961 . S
C2067 C2064 1.539 . S
C2067 H2081 0.958 . S
C2067 H2082 0.961 . S
C2067 H2083 0.960 . S
H2068 C2052 0.931 . S
H2069 C2057 0.929 . S
H2070 C2058 0.960 . S
H2071 C2058 0.962 . S
H2072 C2058 0.960 . S
H2073 C2059 0.961 . S
H2074 C2059 0.961 . S
H2075 C2059 0.961 . S
H2076 C2060 0.931 . S
H2077 C2065 0.930 . S
H2078 C2066 0.956 . S
H2079 C2066 0.961 . S
H2080 C2066 0.961 . S
H2081 C2067 0.958 . S
H2082 C2067 0.961 . S
H2083 C2067 0.960 . S
C2084 C2085 1.391 . S
C2084 C2086 1.394 . S
C2084 H2100 0.931 . S
C2085 C2084 1.391 . S
C2085 C2089 1.376 . S
C2086 C2084 1.394 . S
C2086 C2087 1.369 . S
C2086 C2090 1.531 . S
C2087 C2086 1.369 . S
C2087 C2088 1.410 . S
C2087 C2095 1.503 . S
C2088 C2087 1.410 . S
C2088 C2089 1.392 . S
C2088 C2091 1.511 . S
C2089 C2085 1.376 . S
C2089 C2088 1.392 . S
C2089 H2101 0.929 . S
C2090 C2086 1.531 . S
C2090 H2102 0.960 . S
C2090 H2103 0.962 . S
C2090 H2104 0.960 . S
C2091 C2088 1.511 . S
C2091 H2105 0.961 . S
C2091 H2106 0.961 . S
C2091 H2107 0.961 . S
C2092 C2093 1.319 1_565 S
C2092 C2094 1.363 . S
C2092 H2108 0.931 . S
C2093 C2092 1.319 1_545 S
C2093 C2097 1.415 . S
C2094 C2092 1.363 . S
C2094 C2095 1.370 . S
C2094 C2098 1.524 . S
C2095 C2087 1.503 . S
C2095 C2094 1.370 . S
C2095 C2096 1.403 1_565 S
C2096 C2095 1.403 1_545 S
C2096 C2097 1.404 . S
C2096 C2099 1.539 . S
C2097 C2093 1.415 . S
C2097 C2096 1.404 . S
C2097 H2109 0.930 . S
C2098 C2094 1.524 . S
C2098 H2110 0.956 . S
C2098 H2111 0.961 . S
C2098 H2112 0.961 . S
C2099 C2096 1.539 . S
C2099 H2113 0.958 . S
C2099 H2114 0.961 . S
C2099 H2115 0.960 . S
H2100 C2084 0.931 . S
H2101 C2089 0.929 . S
H2102 C2090 0.960 . S
H2103 C2090 0.962 . S
H2104 C2090 0.960 . S
H2105 C2091 0.961 . S
H2106 C2091 0.961 . S
H2107 C2091 0.961 . S
H2108 C2092 0.931 . S
H2109 C2097 0.930 . S
H2110 C2098 0.956 . S
H2111 C2098 0.961 . S
H2112 C2098 0.961 . S
H2113 C2099 0.958 . S
H2114 C2099 0.961 . S
H2115 C2099 0.960 . S
C2116 C2117 1.391 1_455 S
C2116 C2118 1.394 . S
C2116 H2132 0.931 . S
C2117 C2116 1.391 1_655 S
C2117 C2121 1.376 . S
C2118 C2116 1.394 . S
C2118 C2119 1.369 . S
C2118 C2122 1.531 . S
C2119 C2118 1.369 . S
C2119 C2120 1.410 . S
C2119 C2127 1.503 . S
C2120 C2119 1.410 . S
C2120 C2121 1.392 1_455 S
C2120 C2123 1.511 1_455 S
C2121 C2117 1.376 . S
C2121 C2120 1.392 1_655 S
C2121 H2133 0.929 . S
C2122 C2118 1.531 . S
C2122 H2134 0.960 . S
C2122 H2135 0.962 . S
C2122 H2136 0.960 . S
C2123 C2120 1.511 1_655 S
C2123 H2137 0.961 . S
C2123 H2138 0.961 1_655 S
C2123 H2139 0.961 . S
C2124 C2125 1.370 . S
C2124 C2126 1.363 . S
C2124 H2140 0.931 . S
C2125 C2124 1.370 . S
C2125 C2129 1.408 . S
C2126 C2124 1.363 . S
C2126 C2127 1.370 . S
C2126 C2130 1.524 . S
C2127 C2119 1.503 . S
C2127 C2126 1.370 . S
C2127 C2128 1.403 . S
C2128 C2127 1.403 . S
C2128 C2129 1.404 . S
C2128 C2131 1.539 . S
C2129 C2125 1.408 . S
C2129 C2128 1.404 . S
C2129 H2141 0.930 . S
C2130 C2126 1.524 . S
C2130 H2142 0.956 . S
C2130 H2143 0.961 . S
C2130 H2144 0.961 . S
C2131 C2128 1.539 . S
C2131 H2145 0.958 . S
C2131 H2146 0.961 1_455 S
C2131 H2147 0.960 1_455 S
H2132 C2116 0.931 . S
H2133 C2121 0.929 . S
H2134 C2122 0.960 . S
H2135 C2122 0.962 . S
H2136 C2122 0.960 . S
H2137 C2123 0.961 . S
H2138 C2123 0.961 1_455 S
H2139 C2123 0.961 . S
H2140 C2124 0.931 . S
H2141 C2129 0.930 . S
H2142 C2130 0.956 . S
H2143 C2130 0.961 . S
H2144 C2130 0.961 . S
H2145 C2131 0.958 . S
H2146 C2131 0.961 1_655 S
H2147 C2131 0.960 1_655 S
C2148 C2149 1.391 . S
C2148 C2150 1.394 . S
C2148 H2164 0.931 . S
C2149 C2148 1.391 . S
C2149 C2153 1.376 . S
C2150 C2148 1.394 . S
C2150 C2151 1.369 . S
C2150 C2154 1.531 . S
C2151 C2150 1.369 . S
C2151 C2152 1.410 . S
C2151 C2159 1.503 1_455 S
C2152 C2151 1.410 . S
C2152 C2153 1.392 . S
C2152 C2155 1.511 . S
C2153 C2149 1.376 . S
C2153 C2152 1.392 . S
C2153 H2165 0.929 . S
C2154 C2150 1.531 . S
C2154 H2166 0.960 1_455 S
C2154 H2167 0.962 . S
C2154 H2168 0.960 . S
C2155 C2152 1.511 . S
C2155 H2169 0.961 . S
C2155 H2170 0.995 . S
C2155 H2171 0.961 . S
C2156 C2157 1.370 . S
C2156 C2158 1.363 . S
C2156 H2172 0.931 . S
C2157 C2156 1.370 . S
C2157 C2161 1.408 . S
C2158 C2156 1.363 . S
C2158 C2159 1.370 . S
C2158 C2162 1.524 . S
C2159 C2151 1.503 1_655 S
C2159 C2158 1.370 . S
C2159 C2160 1.403 . S
C2160 C2159 1.403 . S
C2160 C2161 1.404 . S
C2160 C2163 1.539 . S
C2161 C2157 1.408 . S
C2161 C2160 1.404 . S
C2161 H2173 0.930 . S
C2162 C2158 1.524 . S
C2162 H2174 0.956 . S
C2162 H2175 0.961 1_655 S
C2162 H2176 0.961 . S
C2163 C2160 1.539 . S
C2163 H2177 0.958 . S
C2163 H2178 0.961 . S
C2163 H2179 0.960 . S
H2164 C2148 0.931 . S
H2165 C2153 0.929 . S
H2166 C2154 0.960 1_655 S
H2167 C2154 0.962 . S
H2168 C2154 0.960 . S
H2169 C2155 0.961 . S
H2170 C2155 0.995 . S
H2171 C2155 0.961 . S
H2172 C2156 0.931 . S
H2173 C2161 0.930 . S
H2174 C2162 0.956 . S
H2175 C2162 0.961 1_455 S
H2176 C2162 0.961 . S
H2177 C2163 0.958 . S
H2178 C2163 0.961 . S
H2179 C2163 0.960 . S
C2180 C2181 1.391 . S
C2180 C2182 1.394 . S
C2180 H2196 0.931 . S
C2181 C2180 1.391 . S
C2181 C2185 1.376 . S
C2182 C2180 1.394 . S
C2182 C2183 1.369 . S
C2182 C2186 1.531 . S
C2183 C2182 1.369 . S
C2183 C2184 1.410 . S
C2183 C2191 1.503 . S
C2184 C2183 1.410 . S
C2184 C2185 1.392 . S
C2184 C2187 1.511 . S
C2185 C2181 1.376 . S
C2185 C2184 1.392 . S
C2185 H2197 0.929 . S
C2186 C2182 1.531 . S
C2186 H2198 0.960 . S
C2186 H2199 0.962 . S
C2186 H2200 0.960 . S
C2187 C2184 1.511 . S
C2187 H2201 0.961 . S
C2187 H2202 0.961 . S
C2187 H2203 0.961 . S
C2188 C2189 1.370 . S
C2188 C2190 1.363 . S
C2188 H2204 0.931 . S
C2189 C2188 1.370 . S
C2189 C2193 1.408 . S
C2190 C2188 1.363 . S
C2190 C2191 1.370 . S
C2190 C2194 1.524 . S
C2191 C2183 1.503 . S
C2191 C2190 1.370 . S
C2191 C2192 1.403 . S
C2192 C2191 1.403 . S
C2192 C2193 1.404 . S
C2192 C2195 1.539 . S
C2193 C2189 1.408 . S
C2193 C2192 1.404 . S
C2193 H2205 0.930 . S
C2194 C2190 1.524 . S
C2194 H2206 0.956 . S
C2194 H2207 0.961 . S
C2194 H2208 0.961 . S
C2195 C2192 1.539 . S
C2195 H2209 0.958 . S
C2195 H2210 0.961 . S
C2195 H2211 0.960 . S
H2196 C2180 0.931 . S
H2197 C2185 0.929 . S
H2198 C2186 0.960 . S
H2199 C2186 0.962 . S
H2200 C2186 0.960 . S
H2201 C2187 0.961 . S
H2202 C2187 0.961 . S
H2203 C2187 0.961 . S
H2204 C2188 0.931 . S
H2205 C2193 0.930 . S
H2206 C2194 0.956 . S
H2207 C2194 0.961 . S
H2208 C2194 0.961 . S
H2209 C2195 0.958 . S
H2210 C2195 0.961 . S
H2211 C2195 0.960 . S
C2212 C2213 1.391 . S
C2212 C2214 1.394 . S
C2212 H2228 0.931 . S
C2213 C2212 1.391 . S
C2213 C2217 1.376 . S
C2214 C2212 1.394 . S
C2214 C2215 1.369 . S
C2214 C2218 1.531 . S
C2215 C2214 1.369 . S
C2215 C2216 1.410 . S
C2215 C2223 1.503 1_565 S
C2216 C2215 1.410 . S
C2216 C2217 1.392 . S
C2216 C2219 1.511 . S
C2217 C2213 1.376 . S
C2217 C2216 1.392 . S
C2217 H2229 0.929 . S
C2218 C2214 1.531 . S
C2218 H2230 0.960 . S
C2218 H2231 0.962 . S
C2218 H2232 0.960 . S
C2219 C2216 1.511 . S
C2219 H2233 0.961 . S
C2219 H2234 0.961 1_565 S
C2219 H2235 0.961 . S
C2220 C2221 1.370 . S
C2220 C2222 1.363 . S
C2220 H2236 0.931 . S
C2221 C2220 1.370 . S
C2221 C2225 1.408 . S
C2222 C2220 1.363 . S
C2222 C2223 1.370 . S
C2222 C2226 1.524 . S
C2223 C2215 1.503 1_545 S
C2223 C2222 1.370 . S
C2223 C2224 1.403 . S
C2224 C2223 1.403 . S
C2224 C2225 1.404 . S
C2224 C2227 1.539 . S
C2225 C2221 1.408 . S
C2225 C2224 1.404 . S
C2225 H2237 0.930 . S
C2226 C2222 1.524 . S
C2226 H2238 0.956 . S
C2226 H2239 0.961 . S
C2226 H2240 0.961 . S
C2227 C2224 1.539 . S
C2227 H2241 0.958 . S
C2227 H2242 0.961 . S
C2227 H2243 0.960 1_545 S
H2228 C2212 0.931 . S
H2229 C2217 0.929 . S
H2230 C2218 0.960 . S
H2231 C2218 0.962 . S
H2232 C2218 0.960 . S
H2233 C2219 0.961 . S
H2234 C2219 0.961 1_545 S
H2235 C2219 0.961 . S
H2236 C2220 0.931 . S
H2237 C2225 0.930 . S
H2238 C2226 0.956 . S
H2239 C2226 0.961 . S
H2240 C2226 0.961 . S
H2241 C2227 0.958 . S
H2242 C2227 0.961 . S
H2243 C2227 0.960 1_565 S
C2244 C2245 1.391 . S
C2244 C2246 1.394 . S
C2244 H2260 0.931 . S
C2245 C2244 1.391 . S
C2245 C2249 1.376 . S
C2246 C2244 1.394 . S
C2246 C2247 1.369 . S
C2246 C2250 1.531 . S
C2247 C2246 1.369 . S
C2247 C2248 1.410 . S
C2247 C2255 1.503 1_545 S
C2248 C2247 1.410 . S
C2248 C2249 1.392 . S
C2248 C2251 1.511 . S
C2249 C2245 1.376 . S
C2249 C2248 1.392 . S
C2249 H2261 0.929 . S
C2250 C2246 1.531 . S
C2250 H2262 0.960 . S
C2250 H2263 0.962 . S
C2250 H2264 0.960 . S
C2251 C2248 1.511 . S
C2251 H2265 0.961 . S
C2251 H2266 0.961 1_545 S
C2251 H2267 0.961 . S
C2252 C2253 1.370 . S
C2252 C2254 1.363 . S
C2252 H2268 0.931 . S
C2253 C2252 1.370 . S
C2253 C2257 1.408 . S
C2254 C2252 1.363 . S
C2254 C2255 1.370 . S
C2254 C2258 1.524 . S
C2255 C2247 1.503 1_565 S
C2255 C2254 1.370 . S
C2255 C2256 1.403 . S
C2256 C2255 1.403 . S
C2256 C2257 1.404 . S
C2256 C2259 1.539 . S
C2257 C2253 1.408 . S
C2257 C2256 1.404 . S
C2257 H2269 0.930 . S
C2258 C2254 1.524 . S
C2258 H2270 0.956 . S
C2258 H2271 0.961 . S
C2258 H2272 0.961 . S
C2259 C2256 1.539 . S
C2259 H2273 0.958 . S
C2259 H2274 0.961 . S
C2259 H2275 0.960 1_565 S
H2260 C2244 0.931 . S
H2261 C2249 0.929 . S
H2262 C2250 0.960 . S
H2263 C2250 0.962 . S
H2264 C2250 0.960 . S
H2265 C2251 0.961 . S
H2266 C2251 0.961 1_565 S
H2267 C2251 0.961 . S
H2268 C2252 0.931 . S
H2269 C2257 0.930 . S
H2270 C2258 0.956 . S
H2271 C2258 0.961 . S
H2272 C2258 0.961 . S
H2273 C2259 0.958 . S
H2274 C2259 0.961 . S
H2275 C2259 0.960 1_545 S
C2276 C2277 1.391 . S
C2276 C2278 1.394 . S
C2276 H2292 0.931 . S
C2277 C2276 1.391 . S
C2277 C2281 1.376 . S
C2278 C2276 1.394 . S
C2278 C2279 1.369 . S
C2278 C2282 1.531 . S
C2279 C2278 1.369 . S
C2279 C2280 1.410 . S
C2279 C2287 1.503 1_655 S
C2280 C2279 1.410 . S
C2280 C2281 1.392 . S
C2280 C2283 1.511 . S
C2281 C2277 1.376 . S
C2281 C2280 1.392 . S
C2281 H2293 0.929 . S
C2282 C2278 1.531 . S
C2282 H2294 0.978 . S
C2282 H2295 0.962 . S
C2282 H2296 0.960 . S
C2283 C2280 1.511 . S
C2283 H2297 0.961 . S
C2283 H2298 0.961 1_655 S
C2283 H2299 0.961 . S
C2284 C2285 1.370 . S
C2284 C2286 1.363 . S
C2284 H2300 0.931 . S
C2285 C2284 1.370 . S
C2285 C2289 1.408 . S
C2286 C2284 1.363 . S
C2286 C2287 1.370 . S
C2286 C2290 1.524 . S
C2287 C2279 1.503 1_455 S
C2287 C2286 1.370 . S
C2287 C2288 1.403 . S
C2288 C2287 1.403 . S
C2288 C2289 1.404 . S
C2288 C2291 1.539 . S
C2289 C2285 1.408 . S
C2289 C2288 1.404 . S
C2289 H2301 0.930 . S
C2290 C2286 1.524 . S
C2290 H2302 0.956 . S
C2290 H2303 0.961 . S
C2290 H2304 0.961 . S
C2291 C2288 1.539 . S
C2291 H2305 0.958 . S
C2291 H2306 0.961 . S
C2291 H2307 0.960 1_455 S
H2292 C2276 0.931 . S
H2293 C2281 0.929 . S
H2294 C2282 0.978 . S
H2295 C2282 0.962 . S
H2296 C2282 0.960 . S
H2297 C2283 0.961 . S
H2298 C2283 0.961 1_455 S
H2299 C2283 0.961 . S
H2300 C2284 0.931 . S
H2301 C2289 0.930 . S
H2302 C2290 0.956 . S
H2303 C2290 0.961 . S
H2304 C2290 0.961 . S
H2305 C2291 0.958 . S
H2306 C2291 0.961 . S
H2307 C2291 0.960 1_655 S
C2308 C2309 1.391 . S
C2308 C2310 1.394 . S
C2308 H2324 0.931 . S
C2309 C2308 1.391 . S
C2309 C2313 1.376 . S
C2310 C2308 1.394 . S
C2310 C2311 1.369 . S
C2310 C2314 1.531 . S
C2311 C2310 1.369 . S
C2311 C2312 1.410 . S
C2311 C2319 1.503 . S
C2312 C2311 1.410 . S
C2312 C2313 1.392 . S
C2312 C2315 1.511 . S
C2313 C2309 1.376 . S
C2313 C2312 1.392 . S
C2313 H2325 0.929 . S
C2314 C2310 1.531 . S
C2314 H2326 0.960 . S
C2314 H2327 0.962 . S
C2314 H2328 0.960 . S
C2315 C2312 1.511 . S
C2315 H2329 0.961 . S
C2315 H2330 0.961 . S
C2315 H2331 0.961 . S
C2316 C2317 1.370 . S
C2316 C2318 1.363 . S
C2316 H2332 0.931 . S
C2317 C2316 1.370 . S
C2317 C2321 1.408 . S
C2318 C2316 1.363 . S
C2318 C2319 1.370 . S
C2318 C2322 1.524 . S
C2319 C2311 1.503 . S
C2319 C2318 1.370 . S
C2319 C2320 1.403 . S
C2320 C2319 1.403 . S
C2320 C2321 1.404 . S
C2320 C2323 1.539 . S
C2321 C2317 1.408 . S
C2321 C2320 1.404 . S
C2321 H2333 0.930 . S
C2322 C2318 1.524 . S
C2322 H2334 0.956 . S
C2322 H2335 0.961 . S
C2322 H2336 0.961 . S
C2323 C2320 1.539 . S
C2323 H2337 0.958 . S
C2323 H2338 0.961 . S
C2323 H2339 0.960 . S
H2324 C2308 0.931 . S
H2325 C2313 0.929 . S
H2326 C2314 0.960 . S
H2327 C2314 0.962 . S
H2328 C2314 0.960 . S
H2329 C2315 0.961 . S
H2330 C2315 0.961 . S
H2331 C2315 0.961 . S
H2332 C2316 0.931 . S
H2333 C2321 0.930 . S
H2334 C2322 0.956 . S
H2335 C2322 0.961 . S
H2336 C2322 0.961 . S
H2337 C2323 0.958 . S
H2338 C2323 0.961 . S
H2339 C2323 0.960 . S
C2340 C2341 1.391 . S
C2340 C2342 1.394 . S
C2340 H2356 0.931 . S
C2341 C2340 1.391 . S
C2341 C2345 1.376 . S
C2342 C2340 1.394 . S
C2342 C2343 1.369 . S
C2342 C2346 1.531 . S
C2343 C2342 1.369 . S
C2343 C2344 1.410 . S
C2343 C2351 1.503 . S
C2344 C2343 1.410 . S
C2344 C2345 1.392 . S
C2344 C2347 1.511 . S
C2345 C2341 1.376 . S
C2345 C2344 1.392 . S
C2345 H2357 0.929 . S
C2346 C2342 1.531 . S
C2346 H2358 0.960 . S
C2346 H2359 0.962 . S
C2346 H2360 0.960 . S
C2347 C2344 1.511 . S
C2347 H2361 0.961 . S
C2347 H2362 0.961 . S
C2347 H2363 0.961 . S
C2348 C2349 1.370 . S
C2348 C2350 1.363 . S
C2348 H2364 0.931 . S
C2349 C2348 1.370 . S
C2349 C2353 1.408 . S
C2350 C2348 1.363 . S
C2350 C2351 1.370 . S
C2350 C2354 1.524 . S
C2351 C2343 1.503 . S
C2351 C2350 1.370 . S
C2351 C2352 1.403 . S
C2352 C2351 1.403 . S
C2352 C2353 1.404 . S
C2352 C2355 1.539 . S
C2353 C2349 1.408 . S
C2353 C2352 1.404 . S
C2353 H2365 0.930 . S
C2354 C2350 1.524 . S
C2354 H2366 0.956 . S
C2354 H2367 0.961 . S
C2354 H2368 0.961 . S
C2355 C2352 1.539 . S
C2355 H2369 0.958 . S
C2355 H2370 0.961 . S
C2355 H2371 0.960 . S
H2356 C2340 0.931 . S
H2357 C2345 0.929 . S
H2358 C2346 0.960 . S
H2359 C2346 0.962 . S
H2360 C2346 0.960 . S
H2361 C2347 0.961 . S
H2362 C2347 0.961 . S
H2363 C2347 0.961 . S
H2364 C2348 0.931 . S
H2365 C2353 0.930 . S
H2366 C2354 0.956 . S
H2367 C2354 0.961 . S
H2368 C2354 0.961 . S
H2369 C2355 0.958 . S
H2370 C2355 0.961 . S
H2371 C2355 0.960 . S
C2372 C2373 1.391 . S
C2372 C2374 1.394 . S
C2372 H2388 0.931 . S
C2373 C2372 1.391 . S
C2373 C2377 1.376 . S
C2374 C2372 1.394 . S
C2374 C2375 1.369 . S
C2374 C2378 1.531 . S
C2375 C2374 1.369 . S
C2375 C2376 1.410 . S
C2375 C2383 1.503 . S
C2376 C2375 1.410 . S
C2376 C2377 1.392 . S
C2376 C2379 1.511 . S
C2377 C2373 1.376 . S
C2377 C2376 1.392 . S
C2377 H2389 0.929 . S
C2378 C2374 1.531 . S
C2378 H2390 0.960 . S
C2378 H2391 0.962 . S
C2378 H2392 0.960 . S
C2379 C2376 1.511 . S
C2379 H2393 0.961 . S
C2379 H2394 0.961 . S
C2379 H2395 0.961 . S
C2380 C2381 1.370 . S
C2380 C2382 1.363 . S
C2380 H2396 0.931 . S
C2381 C2380 1.370 . S
C2381 C2385 1.408 . S
C2382 C2380 1.363 . S
C2382 C2383 1.370 . S
C2382 C2386 1.524 . S
C2383 C2375 1.503 . S
C2383 C2382 1.370 . S
C2383 C2384 1.403 . S
C2384 C2383 1.403 . S
C2384 C2385 1.404 . S
C2384 C2387 1.539 . S
C2385 C2381 1.408 . S
C2385 C2384 1.404 . S
C2385 H2397 0.930 . S
C2386 C2382 1.524 . S
C2386 H2398 0.956 . S
C2386 H2399 0.961 . S
C2386 H2400 0.961 . S
C2387 C2384 1.539 . S
C2387 H2401 0.958 . S
C2387 H2402 0.961 . S
C2387 H2403 0.960 . S
H2388 C2372 0.931 . S
H2389 C2377 0.929 . S
H2390 C2378 0.960 . S
H2391 C2378 0.962 . S
H2392 C2378 0.960 . S
H2393 C2379 0.961 . S
H2394 C2379 0.961 . S
H2395 C2379 0.961 . S
H2396 C2380 0.931 . S
H2397 C2385 0.930 . S
H2398 C2386 0.956 . S
H2399 C2386 0.961 . S
H2400 C2386 0.961 . S
H2401 C2387 0.958 . S
H2402 C2387 0.961 . S
H2403 C2387 0.960 . S
C2404 C2405 1.391 . S
C2404 C2406 1.394 . S
C2404 H2420 0.931 . S
C2405 C2404 1.391 . S
C2405 C2409 1.376 . S
C2406 C2404 1.394 . S
C2406 C2407 1.369 . S
C2406 C2410 1.531 . S
C2407 C2406 1.369 . S
C2407 C2408 1.410 . S
C2407 C2415 1.503 . S
C2408 C2407 1.410 . S
C2408 C2409 1.392 . S
C2408 C2411 1.511 . S
C2409 C2405 1.376 . S
C2409 C2408 1.392 . S
C2409 H2421 0.929 . S
C2410 C2406 1.531 . S
C2410 H2422 0.960 . S
C2410 H2423 0.962 . S
C2410 H2424 0.960 . S
C2411 C2408 1.511 . S
C2411 H2425 0.961 . S
C2411 H2426 0.961 . S
C2411 H2427 0.961 . S
C2412 C2413 1.370 . S
C2412 C2414 1.363 . S
C2412 H2428 0.931 . S
C2413 C2412 1.370 . S
C2413 C2417 1.408 . S
C2414 C2412 1.363 . S
C2414 C2415 1.370 . S
C2414 C2418 1.524 . S
C2415 C2407 1.503 . S
C2415 C2414 1.370 . S
C2415 C2416 1.403 . S
C2416 C2415 1.403 . S
C2416 C2417 1.404 . S
C2416 C2419 1.539 . S
C2417 C2413 1.408 . S
C2417 C2416 1.404 . S
C2417 H2429 0.930 . S
C2418 C2414 1.524 . S
C2418 H2430 0.956 . S
C2418 H2431 0.961 . S
C2418 H2432 0.961 . S
C2419 C2416 1.539 . S
C2419 H2433 0.958 . S
C2419 H2434 0.961 . S
C2419 H2435 0.960 . S
H2420 C2404 0.931 . S
H2421 C2409 0.929 . S
H2422 C2410 0.960 . S
H2423 C2410 0.962 . S
H2424 C2410 0.960 . S
H2425 C2411 0.961 . S
H2426 C2411 0.961 . S
H2427 C2411 0.961 . S
H2428 C2412 0.931 . S
H2429 C2417 0.930 . S
H2430 C2418 0.956 . S
H2431 C2418 0.961 . S
H2432 C2418 0.961 . S
H2433 C2419 0.958 . S
H2434 C2419 0.961 . S
H2435 C2419 0.960 . S
C2436 C2437 1.391 . S
C2436 C2438 1.394 . S
C2436 H2452 0.931 . S
C2437 C2436 1.391 . S
C2437 C2441 1.376 . S
C2438 C2436 1.394 . S
C2438 C2439 1.369 . S
C2438 C2442 1.531 . S
C2439 C2438 1.369 . S
C2439 C2440 1.410 . S
C2439 C2447 1.503 . S
C2440 C2439 1.410 . S
C2440 C2441 1.392 . S
C2440 C2443 1.511 . S
C2441 C2437 1.376 . S
C2441 C2440 1.392 . S
C2441 H2453 0.929 . S
C2442 C2438 1.531 . S
C2442 H2454 0.960 . S
C2442 H2455 0.962 . S
C2442 H2456 0.960 . S
C2443 C2440 1.511 . S
C2443 H2457 0.961 . S
C2443 H2458 0.961 . S
C2443 H2459 0.961 . S
C2444 C2445 1.370 . S
C2444 C2446 1.363 . S
C2444 H2460 0.931 . S
C2445 C2444 1.370 . S
C2445 C2449 1.408 . S
C2446 C2444 1.363 . S
C2446 C2447 1.370 . S
C2446 C2450 1.524 . S
C2447 C2439 1.503 . S
C2447 C2446 1.370 . S
C2447 C2448 1.403 . S
C2448 C2447 1.403 . S
C2448 C2449 1.404 . S
C2448 C2451 1.539 . S
C2449 C2445 1.408 . S
C2449 C2448 1.404 . S
C2449 H2461 0.930 . S
C2450 C2446 1.524 . S
C2450 H2462 0.956 . S
C2450 H2463 0.961 . S
C2450 H2464 0.961 . S
C2451 C2448 1.539 . S
C2451 H2465 0.958 . S
C2451 H2466 0.961 . S
C2451 H2467 0.960 . S
H2452 C2436 0.931 . S
H2453 C2441 0.929 . S
H2454 C2442 0.960 . S
H2455 C2442 0.962 . S
H2456 C2442 0.960 . S
H2457 C2443 0.961 . S
H2458 C2443 0.961 . S
H2459 C2443 0.961 . S
H2460 C2444 0.931 . S
H2461 C2449 0.930 . S
H2462 C2450 0.956 . S
H2463 C2450 0.961 . S
H2464 C2450 0.961 . S
H2465 C2451 0.958 . S
H2466 C2451 0.961 . S
H2467 C2451 0.960 . S
C2468 C2469 1.391 . S
C2468 C2470 1.394 . S
C2468 H2484 0.931 . S
C2469 C2468 1.391 . S
C2469 C2473 1.376 . S
C2470 C2468 1.394 . S
C2470 C2471 1.369 . S
C2470 C2474 1.531 . S
C2471 C2470 1.369 . S
C2471 C2472 1.410 . S
C2471 C2479 1.503 . S
C2472 C2471 1.410 . S
C2472 C2473 1.392 . S
C2472 C2475 1.511 . S
C2473 C2469 1.376 . S
C2473 C2472 1.392 . S
C2473 H2485 0.929 . S
C2474 C2470 1.531 . S
C2474 H2486 0.960 . S
C2474 H2487 0.962 . S
C2474 H2488 0.960 . S
C2475 C2472 1.511 . S
C2475 H2489 0.961 . S
C2475 H2490 0.961 . S
C2475 H2491 0.961 . S
C2476 C2477 1.370 . S
C2476 C2478 1.363 . S
C2476 H2492 0.931 . S
C2477 C2476 1.370 . S
C2477 C2481 1.408 . S
C2478 C2476 1.363 . S
C2478 C2479 1.370 . S
C2478 C2482 1.524 . S
C2479 C2471 1.503 . S
C2479 C2478 1.370 . S
C2479 C2480 1.403 . S
C2480 C2479 1.403 . S
C2480 C2481 1.404 . S
C2480 C2483 1.539 . S
C2481 C2477 1.408 . S
C2481 C2480 1.404 . S
C2481 H2493 0.930 . S
C2482 C2478 1.524 . S
C2482 H2494 0.956 . S
C2482 H2495 0.961 . S
C2482 H2496 0.961 . S
C2483 C2480 1.539 . S
C2483 H2497 0.958 . S
C2483 H2498 0.961 . S
C2483 H2499 0.960 . S
H2484 C2468 0.931 . S
H2485 C2473 0.929 . S
H2486 C2474 0.960 . S
H2487 C2474 0.962 . S
H2488 C2474 0.960 . S
H2489 C2475 0.961 . S
H2490 C2475 0.961 . S
H2491 C2475 0.961 . S
H2492 C2476 0.931 . S
H2493 C2481 0.930 . S
H2494 C2482 0.956 . S
H2495 C2482 0.961 . S
H2496 C2482 0.961 . S
H2497 C2483 0.958 . S
H2498 C2483 0.961 . S
H2499 C2483 0.960 . S
C2500 C2501 1.391 . S
C2500 C2502 1.394 . S
C2500 H2516 0.931 . S
C2501 C2500 1.391 . S
C2501 C2505 1.376 . S
C2502 C2500 1.394 . S
C2502 C2503 1.369 . S
C2502 C2506 1.531 . S
C2503 C2502 1.369 . S
C2503 C2504 1.410 . S
C2503 C2511 1.503 . S
C2504 C2503 1.410 . S
C2504 C2505 1.392 . S
C2504 C2507 1.511 . S
C2505 C2501 1.376 . S
C2505 C2504 1.392 . S
C2505 H2517 0.929 . S
C2506 C2502 1.531 . S
C2506 H2518 0.960 . S
C2506 H2519 0.962 . S
C2506 H2520 0.960 . S
C2507 C2504 1.511 . S
C2507 H2521 0.961 . S
C2507 H2522 0.961 . S
C2507 H2523 0.961 . S
C2508 C2509 1.370 . S
C2508 C2510 1.363 . S
C2508 H2524 0.931 . S
C2509 C2508 1.370 . S
C2509 C2513 1.408 . S
C2510 C2508 1.363 . S
C2510 C2511 1.370 . S
C2510 C2514 1.524 . S
C2511 C2503 1.503 . S
C2511 C2510 1.370 . S
C2511 C2512 1.403 . S
C2512 C2511 1.403 . S
C2512 C2513 1.404 . S
C2512 C2515 1.539 . S
C2513 C2509 1.408 . S
C2513 C2512 1.404 . S
C2513 H2525 0.930 . S
C2514 C2510 1.524 . S
C2514 H2526 0.956 . S
C2514 H2527 0.961 . S
C2514 H2528 0.961 . S
C2515 C2512 1.539 . S
C2515 H2529 0.958 . S
C2515 H2530 0.961 . S
C2515 H2531 0.960 . S
H2516 C2500 0.931 . S
H2517 C2505 0.929 . S
H2518 C2506 0.960 . S
H2519 C2506 0.962 . S
H2520 C2506 0.960 . S
H2521 C2507 0.961 . S
H2522 C2507 0.961 . S
H2523 C2507 0.961 . S
H2524 C2508 0.931 . S
H2525 C2513 0.930 . S
H2526 C2514 0.956 . S
H2527 C2514 0.961 . S
H2528 C2514 0.961 . S
H2529 C2515 0.958 . S
H2530 C2515 0.961 . S
H2531 C2515 0.960 . S
C2532 C2533 1.391 . S
C2532 C2534 1.394 . S
C2532 H2548 0.931 . S
C2533 C2532 1.391 . S
C2533 C2537 1.376 . S
C2534 C2532 1.394 . S
C2534 C2535 1.369 . S
C2534 C2538 1.531 . S
C2535 C2534 1.369 . S
C2535 C2536 1.410 . S
C2535 C2543 1.503 . S
C2536 C2535 1.410 . S
C2536 C2537 1.392 . S
C2536 C2539 1.511 . S
C2537 C2533 1.376 . S
C2537 C2536 1.392 . S
C2537 H2549 0.929 . S
C2538 C2534 1.531 . S
C2538 H2550 0.960 . S
C2538 H2551 0.962 . S
C2538 H2552 0.960 . S
C2539 C2536 1.511 . S
C2539 H2553 0.961 . S
C2539 H2554 0.961 . S
C2539 H2555 0.961 . S
C2540 C2541 1.370 . S
C2540 C2542 1.363 . S
C2540 H2556 0.931 . S
C2541 C2540 1.370 . S
C2541 C2545 1.408 . S
C2542 C2540 1.363 . S
C2542 C2543 1.370 . S
C2542 C2546 1.524 . S
C2543 C2535 1.503 . S
C2543 C2542 1.370 . S
C2543 C2544 1.403 . S
C2544 C2543 1.403 . S
C2544 C2545 1.404 . S
C2544 C2547 1.539 . S
C2545 C2541 1.408 . S
C2545 C2544 1.404 . S
C2545 H2557 0.930 . S
C2546 C2542 1.524 . S
C2546 H2558 0.956 . S
C2546 H2559 0.961 . S
C2546 H2560 0.961 . S
C2547 C2544 1.539 . S
C2547 H2561 0.958 . S
C2547 H2562 0.961 . S
C2547 H2563 0.960 . S
H2548 C2532 0.931 . S
H2549 C2537 0.929 . S
H2550 C2538 0.960 . S
H2551 C2538 0.962 . S
H2552 C2538 0.960 . S
H2553 C2539 0.961 . S
H2554 C2539 0.961 . S
H2555 C2539 0.961 . S
H2556 C2540 0.931 . S
H2557 C2545 0.930 . S
H2558 C2546 0.956 . S
H2559 C2546 0.961 . S
H2560 C2546 0.961 . S
H2561 C2547 0.958 . S
H2562 C2547 0.961 . S
H2563 C2547 0.960 . S
C2564 C2565 1.391 . S
C2564 C2566 1.394 . S
C2564 H2580 0.931 . S
C2565 C2564 1.391 . S
C2565 C2569 1.376 . S
C2566 C2564 1.394 . S
C2566 C2567 1.369 . S
C2566 C2570 1.531 . S
C2567 C2566 1.369 . S
C2567 C2568 1.410 . S
C2567 C2575 1.503 . S
C2568 C2567 1.410 . S
C2568 C2569 1.392 . S
C2568 C2571 1.511 . S
C2569 C2565 1.376 . S
C2569 C2568 1.392 . S
C2569 H2581 0.929 . S
C2570 C2566 1.531 . S
C2570 H2582 0.960 . S
C2570 H2583 0.962 . S
C2570 H2584 0.960 . S
C2571 C2568 1.511 . S
C2571 H2585 0.961 . S
C2571 H2586 0.961 . S
C2571 H2587 0.961 . S
C2572 C2573 1.370 . S
C2572 C2574 1.363 . S
C2572 H2588 0.931 . S
C2573 C2572 1.370 . S
C2573 C2577 1.408 . S
C2574 C2572 1.363 . S
C2574 C2575 1.370 . S
C2574 C2578 1.524 . S
C2575 C2567 1.503 . S
C2575 C2574 1.370 . S
C2575 C2576 1.403 . S
C2576 C2575 1.403 . S
C2576 C2577 1.404 . S
C2576 C2579 1.539 . S
C2577 C2573 1.408 . S
C2577 C2576 1.404 . S
C2577 H2589 0.930 . S
C2578 C2574 1.524 . S
C2578 H2590 0.956 . S
C2578 H2591 0.961 . S
C2578 H2592 0.961 . S
C2579 C2576 1.539 . S
C2579 H2593 0.958 . S
C2579 H2594 0.961 . S
C2579 H2595 0.960 . S
H2580 C2564 0.931 . S
H2581 C2569 0.929 . S
H2582 C2570 0.960 . S
H2583 C2570 0.962 . S
H2584 C2570 0.960 . S
H2585 C2571 0.961 . S
H2586 C2571 0.961 . S
H2587 C2571 0.961 . S
H2588 C2572 0.931 . S
H2589 C2577 0.930 . S
H2590 C2578 0.956 . S
H2591 C2578 0.961 . S
H2592 C2578 0.961 . S
H2593 C2579 0.958 . S
H2594 C2579 0.961 . S
H2595 C2579 0.960 . S
C2596 C2597 1.391 . S
C2596 C2598 1.394 . S
C2596 H2612 0.931 . S
C2597 C2596 1.391 . S
C2597 C2601 1.376 . S
C2598 C2596 1.394 . S
C2598 C2599 1.369 . S
C2598 C2602 1.531 . S
C2599 C2598 1.369 . S
C2599 C2600 1.410 . S
C2599 C2607 1.503 . S
C2600 C2599 1.410 . S
C2600 C2601 1.392 . S
C2600 C2603 1.511 . S
C2601 C2597 1.376 . S
C2601 C2600 1.392 . S
C2601 H2613 0.929 . S
C2602 C2598 1.531 . S
C2602 H2614 0.960 . S
C2602 H2615 0.962 . S
C2602 H2616 0.960 . S
C2603 C2600 1.511 . S
C2603 H2617 0.961 . S
C2603 H2618 0.961 . S
C2603 H2619 0.961 . S
C2604 C2605 1.370 . S
C2604 C2606 1.363 . S
C2604 H2620 0.931 . S
C2605 C2604 1.370 . S
C2605 C2609 1.408 . S
C2606 C2604 1.363 . S
C2606 C2607 1.370 . S
C2606 C2610 1.524 . S
C2607 C2599 1.503 . S
C2607 C2606 1.370 . S
C2607 C2608 1.403 . S
C2608 C2607 1.403 . S
C2608 C2609 1.404 . S
C2608 C2611 1.539 . S
C2609 C2605 1.408 . S
C2609 C2608 1.404 . S
C2609 H2621 0.930 . S
C2610 C2606 1.524 . S
C2610 H2622 0.956 . S
C2610 H2623 0.961 . S
C2610 H2624 0.961 . S
C2611 C2608 1.539 . S
C2611 H2625 0.958 . S
C2611 H2626 0.961 . S
C2611 H2627 0.960 . S
H2612 C2596 0.931 . S
H2613 C2601 0.929 . S
H2614 C2602 0.960 . S
H2615 C2602 0.962 . S
H2616 C2602 0.960 . S
H2617 C2603 0.961 . S
H2618 C2603 0.961 . S
H2619 C2603 0.961 . S
H2620 C2604 0.931 . S
H2621 C2609 0.930 . S
H2622 C2610 0.956 . S
H2623 C2610 0.961 . S
H2624 C2610 0.961 . S
H2625 C2611 0.958 . S
H2626 C2611 0.961 . S
H2627 C2611 0.960 . S
C2628 C2629 1.391 . S
C2628 C2630 1.394 . S
C2628 H2644 0.931 . S
C2629 C2628 1.391 . S
C2629 C2633 1.376 . S
C2630 C2628 1.394 . S
C2630 C2631 1.369 . S
C2630 C2634 1.531 . S
C2631 C2630 1.369 . S
C2631 C2632 1.410 . S
C2631 C2639 1.503 . S
C2632 C2631 1.410 . S
C2632 C2633 1.392 . S
C2632 C2635 1.511 . S
C2633 C2629 1.376 . S
C2633 C2632 1.392 . S
C2633 H2645 0.929 . S
C2634 C2630 1.531 . S
C2634 H2646 0.960 . S
C2634 H2647 0.962 . S
C2634 H2648 0.960 . S
C2635 C2632 1.511 . S
C2635 H2649 0.961 . S
C2635 H2650 0.961 . S
C2635 H2651 0.961 . S
C2636 C2637 1.370 . S
C2636 C2638 1.363 . S
C2636 H2652 0.931 . S
C2637 C2636 1.370 . S
C2637 C2641 1.408 . S
C2638 C2636 1.363 . S
C2638 C2639 1.370 . S
C2638 C2642 1.524 . S
C2639 C2631 1.503 . S
C2639 C2638 1.370 . S
C2639 C2640 1.403 . S
C2640 C2639 1.403 . S
C2640 C2641 1.404 . S
C2640 C2643 1.539 . S
C2641 C2637 1.408 . S
C2641 C2640 1.404 . S
C2641 H2653 0.930 . S
C2642 C2638 1.524 . S
C2642 H2654 0.956 . S
C2642 H2655 0.961 . S
C2642 H2656 0.961 . S
C2643 C2640 1.539 . S
C2643 H2657 0.958 . S
C2643 H2658 0.961 . S
C2643 H2659 0.960 . S
H2644 C2628 0.931 . S
H2645 C2633 0.929 . S
H2646 C2634 0.960 . S
H2647 C2634 0.962 . S
H2648 C2634 0.960 . S
H2649 C2635 0.961 . S
H2650 C2635 0.961 . S
H2651 C2635 0.961 . S
H2652 C2636 0.931 . S
H2653 C2641 0.930 . S
H2654 C2642 0.956 . S
H2655 C2642 0.961 . S
H2656 C2642 0.961 . S
H2657 C2643 0.958 . S
H2658 C2643 0.961 . S
H2659 C2643 0.960 . S
C2660 C2661 1.391 . S
C2660 C2662 1.394 . S
C2660 H2676 0.931 . S
C2661 C2660 1.391 . S
C2661 C2665 1.376 . S
C2662 C2660 1.394 . S
C2662 C2663 1.369 . S
C2662 C2666 1.531 . S
C2663 C2662 1.369 . S
C2663 C2664 1.410 . S
C2663 C2671 1.503 . S
C2664 C2663 1.410 . S
C2664 C2665 1.392 . S
C2664 C2667 1.511 . S
C2665 C2661 1.376 . S
C2665 C2664 1.392 . S
C2665 H2677 0.929 . S
C2666 C2662 1.531 . S
C2666 H2678 0.960 . S
C2666 H2679 0.962 . S
C2666 H2680 0.960 . S
C2667 C2664 1.511 . S
C2667 H2681 0.961 . S
C2667 H2682 0.961 . S
C2667 H2683 0.961 . S
C2668 C2669 1.370 . S
C2668 C2670 1.363 . S
C2668 H2684 0.931 . S
C2669 C2668 1.370 . S
C2669 C2673 1.408 . S
C2670 C2668 1.363 . S
C2670 C2671 1.370 . S
C2670 C2674 1.524 . S
C2671 C2663 1.503 . S
C2671 C2670 1.370 . S
C2671 C2672 1.403 . S
C2672 C2671 1.403 . S
C2672 C2673 1.404 . S
C2672 C2675 1.539 . S
C2673 C2669 1.408 . S
C2673 C2672 1.404 . S
C2673 H2685 0.930 . S
C2674 C2670 1.524 . S
C2674 H2686 0.956 . S
C2674 H2687 0.961 . S
C2674 H2688 0.961 . S
C2675 C2672 1.539 . S
C2675 H2689 0.958 . S
C2675 H2690 0.961 . S
C2675 H2691 0.960 . S
H2676 C2660 0.931 . S
H2677 C2665 0.929 . S
H2678 C2666 0.960 . S
H2679 C2666 0.962 . S
H2680 C2666 0.960 . S
H2681 C2667 0.961 . S
H2682 C2667 0.961 . S
H2683 C2667 0.961 . S
H2684 C2668 0.931 . S
H2685 C2673 0.930 . S
H2686 C2674 0.956 . S
H2687 C2674 0.961 . S
H2688 C2674 0.961 . S
H2689 C2675 0.958 . S
H2690 C2675 0.961 . S
H2691 C2675 0.960 . S
C2692 C2693 1.391 . S
C2692 C2694 1.394 . S
C2692 H2708 0.931 . S
C2693 C2692 1.391 . S
C2693 C2697 1.376 . S
C2694 C2692 1.394 . S
C2694 C2695 1.369 . S
C2694 C2698 1.531 . S
C2695 C2694 1.369 . S
C2695 C2696 1.410 . S
C2695 C2703 1.503 . S
C2696 C2695 1.410 . S
C2696 C2697 1.392 . S
C2696 C2699 1.511 . S
C2697 C2693 1.376 . S
C2697 C2696 1.392 . S
C2697 H2709 0.929 . S
C2698 C2694 1.531 . S
C2698 H2710 0.960 . S
C2698 H2711 0.962 . S
C2698 H2712 0.960 . S
C2699 C2696 1.511 . S
C2699 H2713 0.961 . S
C2699 H2714 0.961 . S
C2699 H2715 0.961 . S
C2700 C2701 1.370 . S
C2700 C2702 1.363 . S
C2700 H2716 0.931 . S
C2701 C2700 1.370 . S
C2701 C2705 1.408 . S
C2702 C2700 1.363 . S
C2702 C2703 1.370 . S
C2702 C2706 1.524 . S
C2703 C2695 1.503 . S
C2703 C2702 1.370 . S
C2703 C2704 1.403 . S
C2704 C2703 1.403 . S
C2704 C2705 1.404 . S
C2704 C2707 1.539 . S
C2705 C2701 1.408 . S
C2705 C2704 1.404 . S
C2705 H2717 0.930 . S
C2706 C2702 1.524 . S
C2706 H2718 0.956 . S
C2706 H2719 0.961 . S
C2706 H2720 0.961 . S
C2707 C2704 1.539 . S
C2707 H2721 0.958 . S
C2707 H2722 0.961 . S
C2707 H2723 0.960 . S
H2708 C2692 0.931 . S
H2709 C2697 0.929 . S
H2710 C2698 0.960 . S
H2711 C2698 0.962 . S
H2712 C2698 0.960 . S
H2713 C2699 0.961 . S
H2714 C2699 0.961 . S
H2715 C2699 0.961 . S
H2716 C2700 0.931 . S
H2717 C2705 0.930 . S
H2718 C2706 0.956 . S
H2719 C2706 0.961 . S
H2720 C2706 0.961 . S
H2721 C2707 0.958 . S
H2722 C2707 0.961 . S
H2723 C2707 0.960 . S
C2724 C2725 1.391 . S
C2724 C2726 1.394 . S
C2724 H2740 0.931 . S
C2725 C2724 1.391 . S
C2725 C2729 1.376 . S
C2726 C2724 1.394 . S
C2726 C2727 1.369 . S
C2726 C2730 1.531 . S
C2727 C2726 1.369 . S
C2727 C2728 1.408 1_655 S
C2727 C2735 1.503 1_655 S
C2728 C2727 1.408 1_455 S
C2728 C2729 1.397 1_455 S
C2728 C2731 1.509 . S
C2729 C2725 1.376 . S
C2729 C2728 1.397 1_655 S
C2729 H2741 0.929 . S
C2730 C2726 1.531 . S
C2730 H2742 0.960 . S
C2730 H2743 0.962 . S
C2730 H2744 0.960 . S
C2731 C2728 1.509 . S
C2731 H2745 0.961 . S
C2731 H2746 0.961 . S
C2731 H2747 0.961 . S
C2732 C2733 1.370 . S
C2732 C2734 1.363 . S
C2732 H2748 0.931 . S
C2733 C2732 1.370 . S
C2733 C2737 1.408 . S
C2734 C2732 1.363 . S
C2734 C2735 1.370 . S
C2734 C2738 1.524 1_455 S
C2735 C2727 1.503 1_455 S
C2735 C2734 1.370 . S
C2735 C2736 1.403 . S
C2736 C2735 1.403 . S
C2736 C2737 1.404 . S
C2736 C2739 1.539 . S
C2737 C2733 1.408 . S
C2737 C2736 1.404 . S
C2737 H2749 0.930 . S
C2738 C2734 1.524 1_655 S
C2738 H2750 0.956 . S
C2738 H2751 0.961 . S
C2738 H2752 0.961 . S
C2739 C2736 1.539 . S
C2739 H2753 0.958 . S
C2739 H2754 0.961 . S
C2739 H2755 0.960 . S
H2740 C2724 0.931 . S
H2741 C2729 0.929 . S
H2742 C2730 0.960 . S
H2743 C2730 0.962 . S
H2744 C2730 0.960 . S
H2745 C2731 0.961 . S
H2746 C2731 0.961 . S
H2747 C2731 0.961 . S
H2748 C2732 0.931 . S
H2749 C2737 0.930 . S
H2750 C2738 0.956 . S
H2751 C2738 0.961 . S
H2752 C2738 0.961 . S
H2753 C2739 0.958 . S
H2754 C2739 0.961 . S
H2755 C2739 0.960 . S
C2756 C2757 1.391 . S
C2756 C2758 1.394 . S
C2756 H2772 0.931 . S
C2757 C2756 1.391 . S
C2757 C2761 1.376 . S
C2758 C2756 1.394 . S
C2758 C2759 1.369 . S
C2758 C2762 1.531 . S
C2759 C2758 1.369 . S
C2759 C2760 1.410 . S
C2759 C2767 1.503 . S
C2760 C2759 1.410 . S
C2760 C2761 1.392 . S
C2760 C2763 1.511 . S
C2761 C2757 1.376 . S
C2761 C2760 1.392 . S
C2761 H2773 0.929 . S
C2762 C2758 1.531 . S
C2762 H2774 0.960 . S
C2762 H2775 0.962 . S
C2762 H2776 0.960 . S
C2763 C2760 1.511 . S
C2763 H2777 0.961 . S
C2763 H2778 0.961 . S
C2763 H2779 0.961 . S
C2764 C2765 1.370 . S
C2764 C2766 1.363 . S
C2764 H2780 0.931 . S
C2765 C2764 1.370 . S
C2765 C2769 1.408 . S
C2766 C2764 1.363 . S
C2766 C2767 1.370 . S
C2766 C2770 1.524 . S
C2767 C2759 1.503 . S
C2767 C2766 1.370 . S
C2767 C2768 1.403 . S
C2768 C2767 1.403 . S
C2768 C2769 1.404 . S
C2768 C2771 1.539 . S
C2769 C2765 1.408 . S
C2769 C2768 1.404 . S
C2769 H2781 0.930 . S
C2770 C2766 1.524 . S
C2770 H2782 0.956 . S
C2770 H2783 0.961 . S
C2770 H2784 0.961 . S
C2771 C2768 1.539 . S
C2771 H2785 0.958 . S
C2771 H2786 0.961 . S
C2771 H2787 0.960 . S
H2772 C2756 0.931 . S
H2773 C2761 0.929 . S
H2774 C2762 0.960 . S
H2775 C2762 0.962 . S
H2776 C2762 0.960 . S
H2777 C2763 0.961 . S
H2778 C2763 0.961 . S
H2779 C2763 0.961 . S
H2780 C2764 0.931 . S
H2781 C2769 0.930 . S
H2782 C2770 0.956 . S
H2783 C2770 0.961 . S
H2784 C2770 0.961 . S
H2785 C2771 0.958 . S
H2786 C2771 0.961 . S
H2787 C2771 0.960 . S
C2788 C2789 1.391 . S
C2788 C2790 1.394 . S
C2788 H2804 0.931 . S
C2789 C2788 1.391 . S
C2789 C2793 1.376 . S
C2790 C2788 1.394 . S
C2790 C2791 1.369 . S
C2790 C2794 1.531 . S
C2791 C2790 1.369 . S
C2791 C2792 1.410 1_545 S
C2791 C2799 1.503 1_545 S
C2792 C2791 1.410 1_565 S
C2792 C2793 1.392 1_565 S
C2792 C2795 1.511 . S
C2793 C2789 1.376 . S
C2793 C2792 1.392 1_545 S
C2793 H2805 0.929 . S
C2794 C2790 1.531 . S
C2794 H2806 0.960 . S
C2794 H2807 0.962 . S
C2794 H2808 0.960 . S
C2795 C2792 1.511 . S
C2795 H2809 0.961 . S
C2795 H2810 0.961 . S
C2795 H2811 0.961 . S
C2796 C2797 1.370 . S
C2796 C2798 1.363 . S
C2796 H2812 0.931 . S
C2797 C2796 1.370 . S
C2797 C2801 1.408 . S
C2798 C2796 1.363 . S
C2798 C2799 1.370 . S
C2798 C2802 1.524 1_565 S
C2799 C2791 1.503 1_565 S
C2799 C2798 1.370 . S
C2799 C2800 1.403 . S
C2800 C2799 1.403 . S
C2800 C2801 1.404 . S
C2800 C2803 1.539 . S
C2801 C2797 1.408 . S
C2801 C2800 1.404 . S
C2801 H2813 0.930 . S
C2802 C2798 1.524 1_545 S
C2802 H2814 0.956 . S
C2802 H2815 0.961 . S
C2802 H2816 0.961 . S
C2803 C2800 1.539 . S
C2803 H2817 0.958 . S
C2803 H2818 0.961 . S
C2803 H2819 0.960 . S
H2804 C2788 0.931 . S
H2805 C2793 0.929 . S
H2806 C2794 0.960 . S
H2807 C2794 0.962 . S
H2808 C2794 0.960 . S
H2809 C2795 0.961 . S
H2810 C2795 0.961 . S
H2811 C2795 0.961 . S
H2812 C2796 0.931 . S
H2813 C2801 0.930 . S
H2814 C2802 0.956 . S
H2815 C2802 0.961 . S
H2816 C2802 0.961 . S
H2817 C2803 0.958 . S
H2818 C2803 0.961 . S
H2819 C2803 0.960 . S
C2820 C2821 1.391 . S
C2820 C2822 1.394 . S
C2820 H2836 0.931 . S
C2821 C2820 1.391 . S
C2821 C2825 1.376 . S
C2822 C2820 1.394 . S
C2822 C2823 1.369 . S
C2822 C2826 1.531 1_564 S
C2823 C2822 1.369 . S
C2823 C2824 1.410 . S
C2823 C2831 1.503 1_564 S
C2824 C2823 1.410 . S
C2824 C2825 1.392 . S
C2824 C2827 1.511 . S
C2825 C2821 1.376 . S
C2825 C2824 1.392 . S
C2825 H2837 0.929 . S
C2826 C2822 1.531 1_546 S
C2826 H2838 0.960 . S
C2826 H2839 0.962 . S
C2826 H2840 0.960 . S
C2827 C2824 1.511 . S
C2827 H2841 0.961 . S
C2827 H2842 0.961 . S
C2827 H2843 0.961 . S
C2828 C2829 1.370 . S
C2828 C2830 1.352 1_556 S
C2828 H2844 0.931 . S
C2829 C2828 1.370 . S
C2829 C2833 1.408 . S
C2830 C2828 1.352 1_554 S
C2830 C2831 1.360 1_554 S
C2830 C2834 1.546 . S
C2831 C2823 1.503 1_546 S
C2831 C2830 1.360 1_556 S
C2831 C2832 1.400 1_545 S
C2832 C2831 1.400 1_565 S
C2832 C2833 1.354 1_565 S
C2832 C2835 1.593 . S
C2833 C2829 1.408 . S
C2833 C2832 1.354 1_545 S
C2833 H2845 0.930 . S
C2834 C2830 1.546 . S
C2834 H2846 0.956 . S
C2834 H2847 0.961 . S
C2834 H2848 0.961 . S
C2835 C2832 1.593 . S
C2835 H2849 0.958 . S
C2835 H2850 0.961 . S
C2835 H2851 0.960 . S
H2836 C2820 0.931 . S
H2837 C2825 0.929 . S
H2838 C2826 0.960 . S
H2839 C2826 0.962 . S
H2840 C2826 0.960 . S
H2841 C2827 0.961 . S
H2842 C2827 0.961 . S
H2843 C2827 0.961 . S
H2844 C2828 0.931 . S
H2845 C2833 0.930 . S
H2846 C2834 0.956 . S
H2847 C2834 0.961 . S
H2848 C2834 0.961 . S
H2849 C2835 0.958 . S
H2850 C2835 0.961 . S
H2851 C2835 0.960 . S
C2852 C2853 1.391 . S
C2852 C2854 1.394 1_655 S
C2852 H2868 0.931 . S
C2853 C2852 1.391 . S
C2853 C2857 1.376 . S
C2854 C2852 1.394 1_455 S
C2854 C2855 1.369 1_455 S
C2854 C2858 1.531 . S
C2855 C2854 1.369 1_655 S
C2855 C2856 1.410 . S
C2855 C2863 1.503 1_656 S
C2856 C2855 1.410 . S
C2856 C2857 1.392 . S
C2856 C2859 1.511 1_556 S
C2857 C2853 1.376 . S
C2857 C2856 1.392 . S
C2857 H2869 0.929 . S
C2858 C2854 1.531 . S
C2858 H2870 0.960 . S
C2858 H2871 0.962 . S
C2858 H2872 0.960 . S
C2859 C2856 1.511 1_554 S
C2859 H2873 0.961 . S
C2859 H2874 0.961 . S
C2859 H2875 0.961 1_554 S
C2860 C2861 1.370 . S
C2860 C2862 1.363 . S
C2860 H2876 0.931 . S
C2861 C2860 1.370 . S
C2861 C2865 1.408 . S
C2862 C2860 1.363 . S
C2862 C2863 1.370 . S
C2862 C2866 1.524 . S
C2863 C2855 1.503 1_454 S
C2863 C2862 1.370 . S
C2863 C2864 1.403 1_554 S
C2864 C2863 1.403 1_556 S
C2864 C2865 1.404 1_556 S
C2864 C2867 1.539 . S
C2865 C2861 1.408 . S
C2865 C2864 1.404 1_554 S
C2865 H2877 0.930 . S
C2866 C2862 1.524 . S
C2866 H2878 0.956 . S
C2866 H2879 0.961 1_455 S
C2866 H2880 0.961 . S
C2867 C2864 1.539 . S
C2867 H2881 0.958 . S
C2867 H2882 0.961 . S
C2867 H2883 0.960 1_455 S
H2868 C2852 0.931 . S
H2869 C2857 0.929 . S
H2870 C2858 0.960 . S
H2871 C2858 0.962 . S
H2872 C2858 0.960 . S
H2873 C2859 0.961 . S
H2874 C2859 0.961 . S
H2875 C2859 0.961 1_556 S
H2876 C2860 0.931 . S
H2877 C2865 0.930 . S
H2878 C2866 0.956 . S
H2879 C2866 0.961 1_655 S
H2880 C2866 0.961 . S
H2881 C2867 0.958 . S
H2882 C2867 0.961 . S
H2883 C2867 0.960 1_655 S
C2884 C2885 1.391 . S
C2884 C2886 1.394 . S
C2884 H2900 0.931 . S
C2885 C2884 1.391 . S
C2885 C2889 1.376 . S
C2886 C2884 1.394 . S
C2886 C2887 1.369 . S
C2886 C2890 1.531 . S
C2887 C2886 1.369 . S
C2887 C2888 1.410 . S
C2887 C2895 1.503 1_554 S
C2888 C2887 1.410 . S
C2888 C2889 1.392 . S
C2888 C2891 1.511 1_554 S
C2889 C2885 1.376 . S
C2889 C2888 1.392 . S
C2889 H2901 0.929 . S
C2890 C2886 1.531 . S
C2890 H2902 0.960 . S
C2890 H2903 0.962 . S
C2890 H2904 0.960 . S
C2891 C2888 1.511 1_556 S
C2891 H2905 0.961 . S
C2891 H2906 0.961 . S
C2891 H2907 0.961 1_556 S
C2892 C2893 1.370 . S
C2892 C2894 1.363 . S
C2892 H2908 0.931 . S
C2893 C2892 1.370 . S
C2893 C2897 1.408 . S
C2894 C2892 1.363 . S
C2894 C2895 1.370 . S
C2894 C2898 1.524 . S
C2895 C2887 1.503 1_556 S
C2895 C2894 1.370 . S
C2895 C2896 1.403 1_556 S
C2896 C2895 1.403 1_554 S
C2896 C2897 1.404 1_554 S
C2896 C2899 1.539 . S
C2897 C2893 1.408 . S
C2897 C2896 1.404 1_556 S
C2897 H2909 0.930 . S
C2898 C2894 1.524 . S
C2898 H2910 0.956 . S
C2898 H2911 0.961 . S
C2898 H2912 0.961 . S
C2899 C2896 1.539 . S
C2899 H2913 0.958 . S
C2899 H2914 0.961 . S
C2899 H2915 0.960 . S
H2900 C2884 0.931 . S
H2901 C2889 0.929 . S
H2902 C2890 0.960 . S
H2903 C2890 0.962 . S
H2904 C2890 0.960 . S
H2905 C2891 0.961 . S
H2906 C2891 0.961 . S
H2907 C2891 0.961 1_554 S
H2908 C2892 0.931 . S
H2909 C2897 0.930 . S
H2910 C2898 0.956 . S
H2911 C2898 0.961 . S
H2912 C2898 0.961 . S
H2913 C2899 0.958 . S
H2914 C2899 0.961 . S
H2915 C2899 0.960 . S
C2916 C2917 1.391 . S
C2916 C2918 1.394 1_556 S
C2916 H2932 0.931 . S
C2917 C2916 1.391 . S
C2917 C2921 1.376 . S
C2918 C2916 1.394 1_554 S
C2918 C2919 1.369 1_554 S
C2918 C2922 1.531 . S
C2919 C2918 1.369 1_556 S
C2919 C2920 1.410 . S
C2919 C2927 1.503 1_556 S
C2920 C2919 1.410 . S
C2920 C2921 1.392 . S
C2920 C2923 1.511 . S
C2921 C2917 1.376 . S
C2921 C2920 1.392 . S
C2921 H2933 0.929 . S
C2922 C2918 1.531 . S
C2922 H2934 0.960 . S
C2922 H2935 0.962 . S
C2922 H2936 0.960 . S
C2923 C2920 1.511 . S
C2923 H2937 0.961 . S
C2923 H2938 0.961 . S
C2923 H2939 0.961 . S
C2924 C2925 1.370 . S
C2924 C2926 1.363 . S
C2924 H2940 0.931 . S
C2925 C2924 1.370 . S
C2925 C2929 1.408 . S
C2926 C2924 1.363 . S
C2926 C2927 1.370 . S
C2926 C2930 1.524 . S
C2927 C2919 1.503 1_554 S
C2927 C2926 1.370 . S
C2927 C2928 1.403 . S
C2928 C2927 1.403 . S
C2928 C2929 1.404 . S
C2928 C2931 1.539 1_554 S
C2929 C2925 1.408 . S
C2929 C2928 1.404 . S
C2929 H2941 0.930 . S
C2930 C2926 1.524 . S
C2930 H2942 0.956 . S
C2930 H2943 0.961 . S
C2930 H2944 0.961 . S
C2931 C2928 1.539 1_556 S
C2931 H2945 0.949 1_556 S
C2931 H2946 0.961 . S
C2931 H2947 0.960 . S
H2932 C2916 0.931 . S
H2933 C2921 0.929 . S
H2934 C2922 0.960 . S
H2935 C2922 0.962 . S
H2936 C2922 0.960 . S
H2937 C2923 0.961 . S
H2938 C2923 0.961 . S
H2939 C2923 0.961 . S
H2940 C2924 0.931 . S
H2941 C2929 0.930 . S
H2942 C2930 0.956 . S
H2943 C2930 0.961 . S
H2944 C2930 0.961 . S
H2945 C2931 0.949 1_554 S
H2946 C2931 0.961 . S
H2947 C2931 0.960 . S
C2948 C2949 1.391 . S
C2948 C2950 1.394 . S
C2948 H2964 0.931 . S
C2949 C2948 1.391 . S
C2949 C2953 1.376 . S
C2950 C2948 1.394 . S
C2950 C2951 1.369 . S
C2950 C2954 1.531 1_554 S
C2951 C2950 1.369 . S
C2951 C2952 1.410 . S
C2951 C2959 1.503 1_554 S
C2952 C2951 1.410 . S
C2952 C2953 1.392 . S
C2952 C2955 1.511 . S
C2953 C2949 1.376 . S
C2953 C2952 1.392 . S
C2953 H2965 0.929 . S
C2954 C2950 1.531 1_556 S
C2954 H2966 0.960 . S
C2954 H2967 0.962 . S
C2954 H2968 0.960 . S
C2955 C2952 1.511 . S
C2955 H2969 0.961 . S
C2955 H2970 0.961 . S
C2955 H2971 0.961 . S
C2956 C2957 1.370 . S
C2956 C2958 1.363 . S
C2956 H2972 0.931 . S
C2957 C2956 1.370 . S
C2957 C2961 1.408 . S
C2958 C2956 1.363 . S
C2958 C2959 1.370 . S
C2958 C2962 1.524 . S
C2959 C2951 1.503 1_556 S
C2959 C2958 1.370 . S
C2959 C2960 1.403 1_556 S
C2960 C2959 1.403 1_554 S
C2960 C2961 1.404 1_554 S
C2960 C2963 1.539 . S
C2961 C2957 1.408 . S
C2961 C2960 1.404 1_556 S
C2961 H2973 0.930 . S
C2962 C2958 1.524 . S
C2962 H2974 0.956 . S
C2962 H2975 0.961 . S
C2962 H2976 0.961 . S
C2963 C2960 1.539 . S
C2963 H2977 0.958 . S
C2963 H2978 0.961 . S
C2963 H2979 0.960 . S
H2964 C2948 0.931 . S
H2965 C2953 0.929 . S
H2966 C2954 0.960 . S
H2967 C2954 0.962 . S
H2968 C2954 0.960 . S
H2969 C2955 0.961 . S
H2970 C2955 0.961 . S
H2971 C2955 0.961 . S
H2972 C2956 0.931 . S
H2973 C2961 0.930 . S
H2974 C2962 0.956 . S
H2975 C2962 0.961 . S
H2976 C2962 0.961 . S
H2977 C2963 0.958 . S
H2978 C2963 0.961 . S
H2979 C2963 0.960 . S
C2980 C2981 1.391 . S
C2980 C2982 1.394 . S
C2980 H2996 0.931 . S
C2981 C2980 1.391 . S
C2981 C2985 1.376 . S
C2982 C2980 1.394 . S
C2982 C2983 1.369 . S
C2982 C2986 1.531 1_554 S
C2983 C2982 1.369 . S
C2983 C2984 1.410 . S
C2983 C2991 1.503 1_554 S
C2984 C2983 1.410 . S
C2984 C2985 1.392 . S
C2984 C2987 1.511 . S
C2985 C2981 1.376 . S
C2985 C2984 1.392 . S
C2985 H2997 0.929 . S
C2986 C2982 1.531 1_556 S
C2986 H2998 0.960 . S
C2986 H2999 0.962 . S
C2986 H3000 0.960 . S
C2987 C2984 1.511 . S
C2987 H3001 0.961 . S
C2987 H3002 0.961 . S
C2987 H3003 0.961 . S
C2988 C2989 1.370 . S
C2988 C2990 1.363 . S
C2988 H3004 0.931 . S
C2989 C2988 1.370 . S
C2989 C2993 1.408 . S
C2990 C2988 1.363 . S
C2990 C2991 1.370 . S
C2990 C2994 1.524 1_556 S
C2991 C2983 1.503 1_556 S
C2991 C2990 1.370 . S
C2991 C2992 1.403 . S
C2992 C2991 1.403 . S
C2992 C2993 1.404 . S
C2992 C2995 1.539 . S
C2993 C2989 1.408 . S
C2993 C2992 1.404 . S
C2993 H3005 0.930 . S
C2994 C2990 1.524 1_554 S
C2994 H3006 0.956 . S
C2994 H3007 0.961 . S
C2994 H3008 0.961 . S
C2995 C2992 1.539 . S
C2995 H3009 0.958 . S
C2995 H3010 0.961 . S
C2995 H3011 0.960 . S
H2996 C2980 0.931 . S
H2997 C2985 0.929 . S
H2998 C2986 0.960 . S
H2999 C2986 0.962 . S
H3000 C2986 0.960 . S
H3001 C2987 0.961 . S
H3002 C2987 0.961 . S
H3003 C2987 0.961 . S
H3004 C2988 0.931 . S
H3005 C2993 0.930 . S
H3006 C2994 0.956 . S
H3007 C2994 0.961 . S
H3008 C2994 0.961 . S
H3009 C2995 0.958 . S
H3010 C2995 0.961 . S
H3011 C2995 0.960 . S
C3012 C3013 1.391 . S
C3012 C3014 1.394 . S
C3012 H3028 0.931 . S
C3013 C3012 1.391 . S
C3013 C3017 1.376 . S
C3014 C3012 1.394 . S
C3014 C3015 1.369 . S
C3014 C3018 1.531 . S
C3015 C3014 1.369 . S
C3015 C3016 1.410 . S
C3015 C3023 1.503 . S
C3016 C3015 1.410 . S
C3016 C3017 1.392 . S
C3016 C3019 1.511 . S
C3017 C3013 1.376 . S
C3017 C3016 1.392 . S
C3017 H3029 0.929 . S
C3018 C3014 1.531 . S
C3018 H3030 0.960 . S
C3018 H3031 0.962 . S
C3018 H3032 0.960 . S
C3019 C3016 1.511 . S
C3019 H3033 0.961 . S
C3019 H3034 0.961 . S
C3019 H3035 0.961 . S
C3020 C3021 1.370 . S
C3020 C3022 1.363 . S
C3020 H3036 0.931 . S
C3021 C3020 1.370 . S
C3021 C3025 1.408 . S
C3022 C3020 1.363 . S
C3022 C3023 1.370 . S
C3022 C3026 1.524 . S
C3023 C3015 1.503 . S
C3023 C3022 1.370 . S
C3023 C3024 1.403 . S
C3024 C3023 1.403 . S
C3024 C3025 1.404 . S
C3024 C3027 1.539 . S
C3025 C3021 1.408 . S
C3025 C3024 1.404 . S
C3025 H3037 0.930 . S
C3026 C3022 1.524 . S
C3026 H3038 0.956 . S
C3026 H3039 0.961 . S
C3026 H3040 0.961 . S
C3027 C3024 1.539 . S
C3027 H3041 0.958 . S
C3027 H3042 0.961 . S
C3027 H3043 0.960 . S
H3028 C3012 0.931 . S
H3029 C3017 0.929 . S
H3030 C3018 0.960 . S
H3031 C3018 0.962 . S
H3032 C3018 0.960 . S
H3033 C3019 0.961 . S
H3034 C3019 0.961 . S
H3035 C3019 0.961 . S
H3036 C3020 0.931 . S
H3037 C3025 0.930 . S
H3038 C3026 0.956 . S
H3039 C3026 0.961 . S
H3040 C3026 0.961 . S
H3041 C3027 0.958 . S
H3042 C3027 0.961 . S
H3043 C3027 0.960 . S
C3044 C3045 1.391 . S
C3044 C3046 1.394 . S
C3044 H3060 0.931 . S
C3045 C3044 1.391 . S
C3045 C3049 1.376 . S
C3046 C3044 1.394 . S
C3046 C3047 1.369 . S
C3046 C3050 1.531 . S
C3047 C3046 1.369 . S
C3047 C3048 1.410 . S
C3047 C3055 1.503 . S
C3048 C3047 1.410 . S
C3048 C3049 1.392 . S
C3048 C3051 1.511 . S
C3049 C3045 1.376 . S
C3049 C3048 1.392 . S
C3049 H3061 0.929 . S
C3050 C3046 1.531 . S
C3050 H3062 0.960 . S
C3050 H3063 0.962 . S
C3050 H3064 0.960 . S
C3051 C3048 1.511 . S
C3051 H3065 0.961 . S
C3051 H3066 0.961 . S
C3051 H3067 0.961 . S
C3052 C3053 1.370 . S
C3052 C3054 1.363 . S
C3052 H3068 0.931 . S
C3053 C3052 1.370 . S
C3053 C3057 1.408 . S
C3054 C3052 1.363 . S
C3054 C3055 1.370 . S
C3054 C3058 1.524 . S
C3055 C3047 1.503 . S
C3055 C3054 1.370 . S
C3055 C3056 1.403 . S
C3056 C3055 1.403 . S
C3056 C3057 1.404 . S
C3056 C3059 1.539 . S
C3057 C3053 1.408 . S
C3057 C3056 1.404 . S
C3057 H3069 0.930 . S
C3058 C3054 1.524 . S
C3058 H3070 0.956 . S
C3058 H3071 0.961 . S
C3058 H3072 0.961 . S
C3059 C3056 1.539 . S
C3059 H3073 0.958 . S
C3059 H3074 0.961 . S
C3059 H3075 0.960 . S
H3060 C3044 0.931 . S
H3061 C3049 0.929 . S
H3062 C3050 0.960 . S
H3063 C3050 0.962 . S
H3064 C3050 0.960 . S
H3065 C3051 0.961 . S
H3066 C3051 0.961 . S
H3067 C3051 0.961 . S
H3068 C3052 0.931 . S
H3069 C3057 0.930 . S
H3070 C3058 0.956 . S
H3071 C3058 0.961 . S
H3072 C3058 0.961 . S
H3073 C3059 0.958 . S
H3074 C3059 0.961 . S
H3075 C3059 0.960 . S
C3076 C3077 1.391 . S
C3076 C3078 1.394 . S
C3076 H3092 0.931 . S
C3077 C3076 1.391 . S
C3077 C3081 1.376 . S
C3078 C3076 1.394 . S
C3078 C3079 1.369 . S
C3078 C3082 1.531 . S
C3079 C3078 1.369 . S
C3079 C3080 1.410 . S
C3079 C3087 1.503 . S
C3080 C3079 1.410 . S
C3080 C3081 1.392 . S
C3080 C3083 1.511 . S
C3081 C3077 1.376 . S
C3081 C3080 1.392 . S
C3081 H3093 0.929 . S
C3082 C3078 1.531 . S
C3082 H3094 0.960 . S
C3082 H3095 0.962 . S
C3082 H3096 0.960 . S
C3083 C3080 1.511 . S
C3083 H3097 0.961 . S
C3083 H3098 0.961 . S
C3083 H3099 0.961 . S
C3084 C3085 1.370 . S
C3084 C3086 1.363 . S
C3084 H3100 0.931 . S
C3085 C3084 1.370 . S
C3085 C3089 1.408 . S
C3086 C3084 1.363 . S
C3086 C3087 1.370 . S
C3086 C3090 1.524 . S
C3087 C3079 1.503 . S
C3087 C3086 1.370 . S
C3087 C3088 1.403 . S
C3088 C3087 1.403 . S
C3088 C3089 1.404 . S
C3088 C3091 1.539 . S
C3089 C3085 1.408 . S
C3089 C3088 1.404 . S
C3089 H3101 0.930 . S
C3090 C3086 1.524 . S
C3090 H3102 0.956 . S
C3090 H3103 0.961 . S
C3090 H3104 0.961 . S
C3091 C3088 1.539 . S
C3091 H3105 0.958 . S
C3091 H3106 0.961 . S
C3091 H3107 0.960 . S
H3092 C3076 0.931 . S
H3093 C3081 0.929 . S
H3094 C3082 0.960 . S
H3095 C3082 0.962 . S
H3096 C3082 0.960 . S
H3097 C3083 0.961 . S
H3098 C3083 0.961 . S
H3099 C3083 0.961 . S
H3100 C3084 0.931 . S
H3101 C3089 0.930 . S
H3102 C3090 0.956 . S
H3103 C3090 0.961 . S
H3104 C3090 0.961 . S
H3105 C3091 0.958 . S
H3106 C3091 0.961 . S
H3107 C3091 0.960 . S
C3108 C3109 1.391 . S
C3108 C3110 1.394 . S
C3108 H3124 0.931 . S
C3109 C3108 1.391 . S
C3109 C3113 1.376 . S
C3110 C3108 1.394 . S
C3110 C3111 1.369 . S
C3110 C3114 1.531 . S
C3111 C3110 1.369 . S
C3111 C3112 1.410 . S
C3111 C3119 1.503 1_554 S
C3112 C3111 1.410 . S
C3112 C3113 1.392 . S
C3112 C3115 1.511 1_554 S
C3113 C3109 1.376 . S
C3113 C3112 1.392 . S
C3113 H3125 0.929 . S
C3114 C3110 1.531 . S
C3114 H3126 0.960 . S
C3114 H3127 0.962 . S
C3114 H3128 0.960 . S
C3115 C3112 1.511 1_556 S
C3115 H3129 0.961 . S
C3115 H3130 0.961 . S
C3115 H3131 0.961 1_556 S
C3116 C3117 1.370 . S
C3116 C3118 1.363 . S
C3116 H3132 0.931 . S
C3117 C3116 1.370 . S
C3117 C3121 1.408 . S
C3118 C3116 1.363 . S
C3118 C3119 1.370 . S
C3118 C3122 1.524 . S
C3119 C3111 1.503 1_556 S
C3119 C3118 1.370 . S
C3119 C3120 1.403 . S
C3120 C3119 1.403 . S
C3120 C3121 1.404 . S
C3120 C3123 1.539 1_556 S
C3121 C3117 1.408 . S
C3121 C3120 1.404 . S
C3121 H3133 0.930 . S
C3122 C3118 1.524 . S
C3122 H3134 0.956 . S
C3122 H3135 0.961 . S
C3122 H3136 0.961 . S
C3123 C3120 1.539 1_554 S
C3123 H3137 0.958 . S
C3123 H3138 0.961 . S
C3123 H3139 0.960 . S
H3124 C3108 0.931 . S
H3125 C3113 0.929 . S
H3126 C3114 0.960 . S
H3127 C3114 0.962 . S
H3128 C3114 0.960 . S
H3129 C3115 0.961 . S
H3130 C3115 0.961 . S
H3131 C3115 0.961 1_554 S
H3132 C3116 0.931 . S
H3133 C3121 0.930 . S
H3134 C3122 0.956 . S
H3135 C3122 0.961 . S
H3136 C3122 0.961 . S
H3137 C3123 0.958 . S
H3138 C3123 0.961 . S
H3139 C3123 0.960 . S
C3140 C3141 1.391 . S
C3140 C3142 1.417 . S
C3140 H3156 0.931 . S
C3141 C3140 1.391 . S
C3141 C3145 1.376 . S
C3142 C3140 1.417 . S
C3142 C3143 1.369 . S
C3142 C3146 1.507 1_554 S
C3143 C3142 1.369 . S
C3143 C3144 1.428 . S
C3143 C3151 1.487 1_554 S
C3144 C3143 1.428 . S
C3144 C3145 1.392 . S
C3144 C3147 1.511 . S
C3145 C3141 1.376 . S
C3145 C3144 1.392 . S
C3145 H3157 0.929 . S
C3146 C3142 1.507 1_556 S
C3146 H3158 0.960 . S
C3146 H3159 0.962 . S
C3146 H3160 0.960 . S
C3147 C3144 1.511 . S
C3147 H3161 0.961 . S
C3147 H3162 0.961 . S
C3147 H3163 0.961 . S
C3148 C3149 1.370 . S
C3148 C3150 1.363 . S
C3148 H3164 0.931 . S
C3149 C3148 1.370 . S
C3149 C3153 1.408 . S
C3150 C3148 1.363 . S
C3150 C3151 1.370 . S
C3150 C3154 1.524 1_556 S
C3151 C3143 1.487 1_556 S
C3151 C3150 1.370 . S
C3151 C3152 1.403 . S
C3152 C3151 1.403 . S
C3152 C3153 1.404 . S
C3152 C3155 1.539 . S
C3153 C3149 1.408 . S
C3153 C3152 1.404 . S
C3153 H3165 0.930 . S
C3154 C3150 1.524 1_554 S
C3154 H3166 0.956 . S
C3154 H3167 0.961 . S
C3154 H3168 0.961 . S
C3155 C3152 1.539 . S
C3155 H3169 0.958 . S
C3155 H3170 0.961 . S
C3155 H3171 0.960 . S
H3156 C3140 0.931 . S
H3157 C3145 0.929 . S
H3158 C3146 0.960 . S
H3159 C3146 0.962 . S
H3160 C3146 0.960 . S
H3161 C3147 0.961 . S
H3162 C3147 0.961 . S
H3163 C3147 0.961 . S
H3164 C3148 0.931 . S
H3165 C3153 0.930 . S
H3166 C3154 0.956 . S
H3167 C3154 0.961 . S
H3168 C3154 0.961 . S
H3169 C3155 0.958 . S
H3170 C3155 0.961 . S
H3171 C3155 0.960 . S
C3172 C3173 1.391 . S
C3172 C3174 1.394 . S
C3172 H3188 0.931 . S
C3173 C3172 1.391 . S
C3173 C3177 1.376 . S
C3174 C3172 1.394 . S
C3174 C3175 1.369 . S
C3174 C3178 1.531 1_554 S
C3175 C3174 1.369 . S
C3175 C3176 1.410 . S
C3175 C3183 1.503 1_554 S
C3176 C3175 1.410 . S
C3176 C3177 1.392 . S
C3176 C3179 1.511 . S
C3177 C3173 1.376 . S
C3177 C3176 1.392 . S
C3177 H3189 0.929 . S
C3178 C3174 1.531 1_556 S
C3178 H3190 0.960 . S
C3178 H3191 0.962 . S
C3178 H3192 0.960 1_556 S
C3179 C3176 1.511 . S
C3179 H3193 0.961 . S
C3179 H3194 0.961 . S
C3179 H3195 0.961 . S
C3180 C3181 1.370 . S
C3180 C3182 1.363 . S
C3180 H3196 0.931 . S
C3181 C3180 1.370 . S
C3181 C3185 1.408 . S
C3182 C3180 1.363 . S
C3182 C3183 1.370 . S
C3182 C3186 1.524 . S
C3183 C3175 1.503 1_556 S
C3183 C3182 1.370 . S
C3183 C3184 1.403 . S
C3184 C3183 1.403 . S
C3184 C3185 1.404 . S
C3184 C3187 1.539 1_556 S
C3185 C3181 1.408 . S
C3185 C3184 1.404 . S
C3185 H3197 0.930 . S
C3186 C3182 1.524 . S
C3186 H3198 0.956 . S
C3186 H3199 0.961 . S
C3186 H3200 0.961 . S
C3187 C3184 1.539 1_554 S
C3187 H3201 0.958 . S
C3187 H3202 0.961 . S
C3187 H3203 0.960 . S
H3188 C3172 0.931 . S
H3189 C3177 0.929 . S
H3190 C3178 0.960 . S
H3191 C3178 0.962 . S
H3192 C3178 0.960 1_554 S
H3193 C3179 0.961 . S
H3194 C3179 0.961 . S
H3195 C3179 0.961 . S
H3196 C3180 0.931 . S
H3197 C3185 0.930 . S
H3198 C3186 0.956 . S
H3199 C3186 0.961 . S
H3200 C3186 0.961 . S
H3201 C3187 0.958 . S
H3202 C3187 0.961 . S
H3203 C3187 0.960 . S
C3204 C3205 1.391 . S
C3204 C3206 1.394 . S
C3204 H3220 0.931 . S
C3205 C3204 1.391 . S
C3205 C3209 1.376 . S
C3206 C3204 1.394 . S
C3206 C3207 1.369 . S
C3206 C3210 1.531 . S
C3207 C3206 1.369 . S
C3207 C3208 1.410 . S
C3207 C3215 1.503 . S
C3208 C3207 1.410 . S
C3208 C3209 1.392 . S
C3208 C3211 1.511 . S
C3209 C3205 1.376 . S
C3209 C3208 1.392 . S
C3209 H3221 0.929 . S
C3210 C3206 1.531 . S
C3210 H3222 0.960 . S
C3210 H3223 0.962 . S
C3210 H3224 0.960 . S
C3211 C3208 1.511 . S
C3211 H3225 0.961 . S
C3211 H3226 0.961 . S
C3211 H3227 0.961 . S
C3212 C3213 1.370 . S
C3212 C3214 1.363 . S
C3212 H3228 0.931 . S
C3213 C3212 1.370 . S
C3213 C3217 1.408 . S
C3214 C3212 1.363 . S
C3214 C3215 1.370 . S
C3214 C3218 1.524 . S
C3215 C3207 1.503 . S
C3215 C3214 1.370 . S
C3215 C3216 1.403 . S
C3216 C3215 1.403 . S
C3216 C3217 1.404 . S
C3216 C3219 1.539 . S
C3217 C3213 1.408 . S
C3217 C3216 1.404 . S
C3217 H3229 0.930 . S
C3218 C3214 1.524 . S
C3218 H3230 0.956 . S
C3218 H3231 0.961 . S
C3218 H3232 0.961 . S
C3219 C3216 1.539 . S
C3219 H3233 0.958 . S
C3219 H3234 0.961 . S
C3219 H3235 0.960 . S
H3220 C3204 0.931 . S
H3221 C3209 0.929 . S
H3222 C3210 0.960 . S
H3223 C3210 0.962 . S
H3224 C3210 0.960 . S
H3225 C3211 0.961 . S
H3226 C3211 0.961 . S
H3227 C3211 0.961 . S
H3228 C3212 0.931 . S
H3229 C3217 0.930 . S
H3230 C3218 0.956 . S
H3231 C3218 0.961 . S
H3232 C3218 0.961 . S
H3233 C3219 0.958 . S
H3234 C3219 0.961 . S
H3235 C3219 0.960 . S
C3236 C3237 1.391 . S
C3236 C3238 1.394 . S
C3236 H3252 0.931 . S
C3237 C3236 1.391 . S
C3237 C3241 1.376 . S
C3238 C3236 1.394 . S
C3238 C3239 1.369 . S
C3238 C3242 1.531 . S
C3239 C3238 1.369 . S
C3239 C3240 1.410 . S
C3239 C3247 1.503 . S
C3240 C3239 1.410 . S
C3240 C3241 1.392 . S
C3240 C3243 1.511 . S
C3241 C3237 1.376 . S
C3241 C3240 1.392 . S
C3241 H3253 0.929 . S
C3242 C3238 1.531 . S
C3242 H3254 0.960 . S
C3242 H3255 0.962 . S
C3242 H3256 0.960 . S
C3243 C3240 1.511 . S
C3243 H3257 0.961 . S
C3243 H3258 0.961 . S
C3243 H3259 0.961 . S
C3244 C3245 1.370 . S
C3244 C3246 1.363 . S
C3244 H3260 0.931 . S
C3245 C3244 1.370 . S
C3245 C3249 1.408 . S
C3246 C3244 1.363 . S
C3246 C3247 1.370 . S
C3246 C3250 1.524 . S
C3247 C3239 1.503 . S
C3247 C3246 1.370 . S
C3247 C3248 1.403 . S
C3248 C3247 1.403 . S
C3248 C3249 1.404 . S
C3248 C3251 1.539 . S
C3249 C3245 1.408 . S
C3249 C3248 1.404 . S
C3249 H3261 0.930 . S
C3250 C3246 1.524 . S
C3250 H3262 0.956 . S
C3250 H3263 0.961 . S
C3250 H3264 0.961 . S
C3251 C3248 1.539 . S
C3251 H3265 0.958 . S
C3251 H3266 0.961 . S
C3251 H3267 0.960 . S
H3252 C3236 0.931 . S
H3253 C3241 0.929 . S
H3254 C3242 0.960 . S
H3255 C3242 0.962 . S
H3256 C3242 0.960 . S
H3257 C3243 0.961 . S
H3258 C3243 0.961 . S
H3259 C3243 0.961 . S
H3260 C3244 0.931 . S
H3261 C3249 0.930 . S
H3262 C3250 0.956 . S
H3263 C3250 0.961 . S
H3264 C3250 0.961 . S
H3265 C3251 0.958 . S
H3266 C3251 0.961 . S
H3267 C3251 0.960 . S
C3268 C3269 1.391 . S
C3268 C3270 1.394 . S
C3268 H3284 0.931 . S
C3269 C3268 1.391 . S
C3269 C3273 1.376 . S
C3270 C3268 1.394 . S
C3270 C3271 1.369 . S
C3270 C3274 1.531 . S
C3271 C3270 1.369 . S
C3271 C3272 1.410 . S
C3271 C3279 1.503 . S
C3272 C3271 1.410 . S
C3272 C3273 1.392 . S
C3272 C3275 1.511 . S
C3273 C3269 1.376 . S
C3273 C3272 1.392 . S
C3273 H3285 0.929 . S
C3274 C3270 1.531 . S
C3274 H3286 0.960 . S
C3274 H3287 0.962 . S
C3274 H3288 0.960 . S
C3275 C3272 1.511 . S
C3275 H3289 0.961 . S
C3275 H3290 0.961 . S
C3275 H3291 0.961 . S
C3276 C3277 1.370 . S
C3276 C3278 1.363 . S
C3276 H3292 0.931 . S
C3277 C3276 1.370 . S
C3277 C3281 1.408 . S
C3278 C3276 1.363 . S
C3278 C3279 1.370 . S
C3278 C3282 1.524 . S
C3279 C3271 1.503 . S
C3279 C3278 1.370 . S
C3279 C3280 1.403 . S
C3280 C3279 1.403 . S
C3280 C3281 1.404 . S
C3280 C3283 1.539 . S
C3281 C3277 1.408 . S
C3281 C3280 1.404 . S
C3281 H3293 0.930 . S
C3282 C3278 1.524 . S
C3282 H3294 0.956 . S
C3282 H3295 0.961 . S
C3282 H3296 0.961 . S
C3283 C3280 1.539 . S
C3283 H3297 0.958 . S
C3283 H3298 0.961 . S
C3283 H3299 0.960 . S
H3284 C3268 0.931 . S
H3285 C3273 0.929 . S
H3286 C3274 0.960 . S
H3287 C3274 0.962 . S
H3288 C3274 0.960 . S
H3289 C3275 0.961 . S
H3290 C3275 0.961 . S
H3291 C3275 0.961 . S
H3292 C3276 0.931 . S
H3293 C3281 0.930 . S
H3294 C3282 0.956 . S
H3295 C3282 0.961 . S
H3296 C3282 0.961 . S
H3297 C3283 0.958 . S
H3298 C3283 0.961 . S
H3299 C3283 0.960 . S
C3300 C3301 1.391 . S
C3300 C3302 1.394 . S
C3300 H3316 0.931 . S
C3301 C3300 1.391 . S
C3301 C3305 1.376 . S
C3302 C3300 1.394 . S
C3302 C3303 1.369 . S
C3302 C3306 1.531 . S
C3303 C3302 1.369 . S
C3303 C3304 1.410 . S
C3303 C3311 1.503 . S
C3304 C3303 1.410 . S
C3304 C3305 1.392 . S
C3304 C3307 1.511 . S
C3305 C3301 1.376 . S
C3305 C3304 1.392 . S
C3305 H3317 0.929 . S
C3306 C3302 1.531 . S
C3306 H3318 0.960 . S
C3306 H3319 0.962 . S
C3306 H3320 0.960 . S
C3307 C3304 1.511 . S
C3307 H3321 0.961 . S
C3307 H3322 0.961 . S
C3307 H3323 0.961 . S
C3308 C3309 1.370 . S
C3308 C3310 1.363 . S
C3308 H3324 0.931 . S
C3309 C3308 1.370 . S
C3309 C3313 1.408 . S
C3310 C3308 1.363 . S
C3310 C3311 1.370 . S
C3310 C3314 1.524 . S
C3311 C3303 1.503 . S
C3311 C3310 1.370 . S
C3311 C3312 1.403 . S
C3312 C3311 1.403 . S
C3312 C3313 1.404 . S
C3312 C3315 1.539 . S
C3313 C3309 1.408 . S
C3313 C3312 1.404 . S
C3313 H3325 0.930 . S
C3314 C3310 1.524 . S
C3314 H3326 0.956 . S
C3314 H3327 0.961 . S
C3314 H3328 0.961 . S
C3315 C3312 1.539 . S
C3315 H3329 0.958 . S
C3315 H3330 0.961 . S
C3315 H3331 0.960 . S
H3316 C3300 0.931 . S
H3317 C3305 0.929 . S
H3318 C3306 0.960 . S
H3319 C3306 0.962 . S
H3320 C3306 0.960 . S
H3321 C3307 0.961 . S
H3322 C3307 0.961 . S
H3323 C3307 0.961 . S
H3324 C3308 0.931 . S
H3325 C3313 0.930 . S
H3326 C3314 0.956 . S
H3327 C3314 0.961 . S
H3328 C3314 0.961 . S
H3329 C3315 0.958 . S
H3330 C3315 0.961 . S
H3331 C3315 0.960 . S
C3332 C3333 1.391 . S
C3332 C3334 1.394 . S
C3332 H3348 0.931 . S
C3333 C3332 1.391 . S
C3333 C3337 1.376 . S
C3334 C3332 1.394 . S
C3334 C3335 1.369 . S
C3334 C3338 1.531 . S
C3335 C3334 1.369 . S
C3335 C3336 1.410 . S
C3335 C3343 1.503 . S
C3336 C3335 1.410 . S
C3336 C3337 1.392 . S
C3336 C3339 1.511 . S
C3337 C3333 1.376 . S
C3337 C3336 1.392 . S
C3337 H3349 0.929 . S
C3338 C3334 1.531 . S
C3338 H3350 0.960 . S
C3338 H3351 0.962 . S
C3338 H3352 0.960 . S
C3339 C3336 1.511 . S
C3339 H3353 0.961 . S
C3339 H3354 0.961 . S
C3339 H3355 0.961 . S
C3340 C3341 1.370 . S
C3340 C3342 1.363 . S
C3340 H3356 0.931 . S
C3341 C3340 1.370 . S
C3341 C3345 1.408 . S
C3342 C3340 1.363 . S
C3342 C3343 1.370 . S
C3342 C3346 1.524 . S
C3343 C3335 1.503 . S
C3343 C3342 1.370 . S
C3343 C3344 1.403 . S
C3344 C3343 1.403 . S
C3344 C3345 1.404 . S
C3344 C3347 1.539 . S
C3345 C3341 1.408 . S
C3345 C3344 1.404 . S
C3345 H3357 0.930 . S
C3346 C3342 1.524 . S
C3346 H3358 0.956 . S
C3346 H3359 0.961 . S
C3346 H3360 0.961 . S
C3347 C3344 1.539 . S
C3347 H3361 0.958 . S
C3347 H3362 0.961 . S
C3347 H3363 0.960 . S
H3348 C3332 0.931 . S
H3349 C3337 0.929 . S
H3350 C3338 0.960 . S
H3351 C3338 0.962 . S
H3352 C3338 0.960 . S
H3353 C3339 0.961 . S
H3354 C3339 0.961 . S
H3355 C3339 0.961 . S
H3356 C3340 0.931 . S
H3357 C3345 0.930 . S
H3358 C3346 0.956 . S
H3359 C3346 0.961 . S
H3360 C3346 0.961 . S
H3361 C3347 0.958 . S
H3362 C3347 0.961 . S
H3363 C3347 0.960 . S
C3364 C3365 1.391 . S
C3364 C3366 1.394 . S
C3364 H3380 0.931 . S
C3365 C3364 1.391 . S
C3365 C3369 1.376 . S
C3366 C3364 1.394 . S
C3366 C3367 1.369 . S
C3366 C3370 1.531 . S
C3367 C3366 1.369 . S
C3367 C3368 1.410 . S
C3367 C3375 1.503 . S
C3368 C3367 1.410 . S
C3368 C3369 1.392 . S
C3368 C3371 1.511 . S
C3369 C3365 1.376 . S
C3369 C3368 1.392 . S
C3369 H3381 0.929 . S
C3370 C3366 1.531 . S
C3370 H3382 0.960 . S
C3370 H3383 0.962 . S
C3370 H3384 0.960 . S
C3371 C3368 1.511 . S
C3371 H3385 0.961 . S
C3371 H3386 0.961 . S
C3371 H3387 0.961 . S
C3372 C3373 1.370 . S
C3372 C3374 1.363 . S
C3372 H3388 0.931 . S
C3373 C3372 1.370 . S
C3373 C3377 1.408 . S
C3374 C3372 1.363 . S
C3374 C3375 1.370 . S
C3374 C3378 1.524 . S
C3375 C3367 1.503 . S
C3375 C3374 1.370 . S
C3375 C3376 1.403 . S
C3376 C3375 1.403 . S
C3376 C3377 1.404 . S
C3376 C3379 1.539 . S
C3377 C3373 1.408 . S
C3377 C3376 1.404 . S
C3377 H3389 0.930 . S
C3378 C3374 1.524 . S
C3378 H3390 0.956 . S
C3378 H3391 0.961 . S
C3378 H3392 0.961 . S
C3379 C3376 1.539 . S
C3379 H3393 0.958 . S
C3379 H3394 0.961 . S
C3379 H3395 0.960 . S
H3380 C3364 0.931 . S
H3381 C3369 0.929 . S
H3382 C3370 0.960 . S
H3383 C3370 0.962 . S
H3384 C3370 0.960 . S
H3385 C3371 0.961 . S
H3386 C3371 0.961 . S
H3387 C3371 0.961 . S
H3388 C3372 0.931 . S
H3389 C3377 0.930 . S
H3390 C3378 0.956 . S
H3391 C3378 0.961 . S
H3392 C3378 0.961 . S
H3393 C3379 0.958 . S
H3394 C3379 0.961 . S
H3395 C3379 0.960 . S
C3396 C3397 1.391 . S
C3396 C3398 1.394 . S
C3396 H3412 0.931 . S
C3397 C3396 1.391 . S
C3397 C3401 1.376 . S
C3398 C3396 1.394 . S
C3398 C3399 1.369 . S
C3398 C3402 1.531 . S
C3399 C3398 1.369 . S
C3399 C3400 1.410 . S
C3399 C3407 1.503 . S
C3400 C3399 1.410 . S
C3400 C3401 1.392 . S
C3400 C3403 1.511 . S
C3401 C3397 1.376 . S
C3401 C3400 1.392 . S
C3401 H3413 0.929 . S
C3402 C3398 1.531 . S
C3402 H3414 0.960 . S
C3402 H3415 0.962 . S
C3402 H3416 0.960 . S
C3403 C3400 1.511 . S
C3403 H3417 0.961 . S
C3403 H3418 0.961 . S
C3403 H3419 0.961 . S
C3404 C3405 1.370 . S
C3404 C3406 1.363 . S
C3404 H3420 0.931 . S
C3405 C3404 1.370 . S
C3405 C3409 1.408 . S
C3406 C3404 1.363 . S
C3406 C3407 1.370 . S
C3406 C3410 1.524 . S
C3407 C3399 1.503 . S
C3407 C3406 1.370 . S
C3407 C3408 1.403 . S
C3408 C3407 1.403 . S
C3408 C3409 1.404 . S
C3408 C3411 1.539 . S
C3409 C3405 1.408 . S
C3409 C3408 1.404 . S
C3409 H3421 0.930 . S
C3410 C3406 1.524 . S
C3410 H3422 0.956 . S
C3410 H3423 0.961 . S
C3410 H3424 0.961 . S
C3411 C3408 1.539 . S
C3411 H3425 0.958 . S
C3411 H3426 0.961 . S
C3411 H3427 0.960 . S
H3412 C3396 0.931 . S
H3413 C3401 0.929 . S
H3414 C3402 0.960 . S
H3415 C3402 0.962 . S
H3416 C3402 0.960 . S
H3417 C3403 0.961 . S
H3418 C3403 0.961 . S
H3419 C3403 0.961 . S
H3420 C3404 0.931 . S
H3421 C3409 0.930 . S
H3422 C3410 0.956 . S
H3423 C3410 0.961 . S
H3424 C3410 0.961 . S
H3425 C3411 0.958 . S
H3426 C3411 0.961 . S
H3427 C3411 0.960 . S
C3428 C3429 1.391 . S
C3428 C3430 1.394 . S
C3428 H3444 0.931 . S
C3429 C3428 1.391 . S
C3429 C3433 1.376 . S
C3430 C3428 1.394 . S
C3430 C3431 1.369 . S
C3430 C3434 1.531 . S
C3431 C3430 1.369 . S
C3431 C3432 1.410 . S
C3431 C3439 1.503 . S
C3432 C3431 1.410 . S
C3432 C3433 1.392 . S
C3432 C3435 1.511 . S
C3433 C3429 1.376 . S
C3433 C3432 1.392 . S
C3433 H3445 0.929 . S
C3434 C3430 1.531 . S
C3434 H3446 0.960 . S
C3434 H3447 0.962 . S
C3434 H3448 0.960 . S
C3435 C3432 1.511 . S
C3435 H3449 0.961 . S
C3435 H3450 0.961 . S
C3435 H3451 0.961 . S
C3436 C3437 1.370 . S
C3436 C3438 1.363 . S
C3436 H3452 0.931 . S
C3437 C3436 1.370 . S
C3437 C3441 1.408 . S
C3438 C3436 1.363 . S
C3438 C3439 1.370 . S
C3438 C3442 1.524 . S
C3439 C3431 1.503 . S
C3439 C3438 1.370 . S
C3439 C3440 1.403 . S
C3440 C3439 1.403 . S
C3440 C3441 1.404 . S
C3440 C3443 1.539 . S
C3441 C3437 1.408 . S
C3441 C3440 1.404 . S
C3441 H3453 0.930 . S
C3442 C3438 1.524 . S
C3442 H3454 0.956 . S
C3442 H3455 0.961 . S
C3442 H3456 0.961 . S
C3443 C3440 1.539 . S
C3443 H3457 0.958 . S
C3443 H3458 0.961 . S
C3443 H3459 0.960 . S
H3444 C3428 0.931 . S
H3445 C3433 0.929 . S
H3446 C3434 0.960 . S
H3447 C3434 0.962 . S
H3448 C3434 0.960 . S
H3449 C3435 0.961 . S
H3450 C3435 0.961 . S
H3451 C3435 0.961 . S
H3452 C3436 0.931 . S
H3453 C3441 0.930 . S
H3454 C3442 0.956 . S
H3455 C3442 0.961 . S
H3456 C3442 0.961 . S
H3457 C3443 0.958 . S
H3458 C3443 0.961 . S
H3459 C3443 0.960 . S
C3460 C3461 1.391 . S
C3460 C3462 1.394 . S
C3460 H3476 0.931 . S
C3461 C3460 1.391 . S
C3461 C3465 1.376 . S
C3462 C3460 1.394 . S
C3462 C3463 1.369 . S
C3462 C3466 1.531 . S
C3463 C3462 1.369 . S
C3463 C3464 1.410 . S
C3463 C3471 1.503 . S
C3464 C3463 1.410 . S
C3464 C3465 1.392 . S
C3464 C3467 1.511 . S
C3465 C3461 1.376 . S
C3465 C3464 1.392 . S
C3465 H3477 0.929 . S
C3466 C3462 1.531 . S
C3466 H3478 0.960 . S
C3466 H3479 0.962 . S
C3466 H3480 0.960 . S
C3467 C3464 1.511 . S
C3467 H3481 0.961 . S
C3467 H3482 0.961 . S
C3467 H3483 0.961 . S
C3468 C3469 1.370 . S
C3468 C3470 1.363 . S
C3468 H3484 0.931 . S
C3469 C3468 1.370 . S
C3469 C3473 1.408 . S
C3470 C3468 1.363 . S
C3470 C3471 1.370 . S
C3470 C3474 1.524 . S
C3471 C3463 1.503 . S
C3471 C3470 1.370 . S
C3471 C3472 1.403 . S
C3472 C3471 1.403 . S
C3472 C3473 1.404 . S
C3472 C3475 1.539 . S
C3473 C3469 1.408 . S
C3473 C3472 1.404 . S
C3473 H3485 0.930 . S
C3474 C3470 1.524 . S
C3474 H3486 0.956 . S
C3474 H3487 0.961 . S
C3474 H3488 0.961 . S
C3475 C3472 1.539 . S
C3475 H3489 0.958 . S
C3475 H3490 0.961 . S
C3475 H3491 0.960 . S
H3476 C3460 0.931 . S
H3477 C3465 0.929 . S
H3478 C3466 0.960 . S
H3479 C3466 0.962 . S
H3480 C3466 0.960 . S
H3481 C3467 0.961 . S
H3482 C3467 0.961 . S
H3483 C3467 0.961 . S
H3484 C3468 0.931 . S
H3485 C3473 0.930 . S
H3486 C3474 0.956 . S
H3487 C3474 0.961 . S
H3488 C3474 0.961 . S
H3489 C3475 0.958 . S
H3490 C3475 0.961 . S
H3491 C3475 0.960 . S
C3492 C3493 1.391 . S
C3492 C3494 1.394 . S
C3492 H3508 0.931 . S
C3493 C3492 1.391 . S
C3493 C3497 1.376 . S
C3494 C3492 1.394 . S
C3494 C3495 1.369 . S
C3494 C3498 1.531 . S
C3495 C3494 1.369 . S
C3495 C3496 1.410 . S
C3495 C3503 1.503 . S
C3496 C3495 1.410 . S
C3496 C3497 1.392 . S
C3496 C3499 1.511 . S
C3497 C3493 1.376 . S
C3497 C3496 1.392 . S
C3497 H3509 0.929 . S
C3498 C3494 1.531 . S
C3498 H3510 0.960 . S
C3498 H3511 0.962 . S
C3498 H3512 0.960 . S
C3499 C3496 1.511 . S
C3499 H3513 0.961 . S
C3499 H3514 0.961 . S
C3499 H3515 0.961 . S
C3500 C3501 1.370 . S
C3500 C3502 1.363 . S
C3500 H3516 0.931 . S
C3501 C3500 1.370 . S
C3501 C3505 1.408 . S
C3502 C3500 1.363 . S
C3502 C3503 1.370 . S
C3502 C3506 1.524 . S
C3503 C3495 1.503 . S
C3503 C3502 1.370 . S
C3503 C3504 1.403 . S
C3504 C3503 1.403 . S
C3504 C3505 1.404 . S
C3504 C3507 1.539 . S
C3505 C3501 1.408 . S
C3505 C3504 1.404 . S
C3505 H3517 0.930 . S
C3506 C3502 1.524 . S
C3506 H3518 0.956 . S
C3506 H3519 0.961 . S
C3506 H3520 0.961 . S
C3507 C3504 1.539 . S
C3507 H3521 0.958 . S
C3507 H3522 0.961 . S
C3507 H3523 0.960 . S
H3508 C3492 0.931 . S
H3509 C3497 0.929 . S
H3510 C3498 0.960 . S
H3511 C3498 0.962 . S
H3512 C3498 0.960 . S
H3513 C3499 0.961 . S
H3514 C3499 0.961 . S
H3515 C3499 0.961 . S
H3516 C3500 0.931 . S
H3517 C3505 0.930 . S
H3518 C3506 0.956 . S
H3519 C3506 0.961 . S
H3520 C3506 0.961 . S
H3521 C3507 0.958 . S
H3522 C3507 0.961 . S
H3523 C3507 0.960 . S
C3524 C3525 1.391 . S
C3524 C3526 1.394 . S
C3524 H3540 0.931 . S
C3525 C3524 1.391 . S
C3525 C3529 1.376 . S
C3526 C3524 1.394 . S
C3526 C3527 1.369 . S
C3526 C3530 1.531 . S
C3527 C3526 1.369 . S
C3527 C3528 1.410 . S
C3527 C3535 1.503 . S
C3528 C3527 1.410 . S
C3528 C3529 1.392 . S
C3528 C3531 1.511 . S
C3529 C3525 1.376 . S
C3529 C3528 1.392 . S
C3529 H3541 0.929 . S
C3530 C3526 1.531 . S
C3530 H3542 0.960 . S
C3530 H3543 0.962 . S
C3530 H3544 0.960 . S
C3531 C3528 1.511 . S
C3531 H3545 0.961 . S
C3531 H3546 0.961 . S
C3531 H3547 0.961 . S
C3532 C3533 1.370 . S
C3532 C3534 1.363 . S
C3532 H3548 0.931 . S
C3533 C3532 1.370 . S
C3533 C3537 1.408 . S
C3534 C3532 1.363 . S
C3534 C3535 1.370 . S
C3534 C3538 1.524 . S
C3535 C3527 1.503 . S
C3535 C3534 1.370 . S
C3535 C3536 1.403 . S
C3536 C3535 1.403 . S
C3536 C3537 1.404 . S
C3536 C3539 1.539 . S
C3537 C3533 1.408 . S
C3537 C3536 1.404 . S
C3537 H3549 0.930 . S
C3538 C3534 1.524 . S
C3538 H3550 0.956 . S
C3538 H3551 0.961 . S
C3538 H3552 0.961 . S
C3539 C3536 1.539 . S
C3539 H3553 0.958 . S
C3539 H3554 0.961 . S
C3539 H3555 0.960 . S
H3540 C3524 0.931 . S
H3541 C3529 0.929 . S
H3542 C3530 0.960 . S
H3543 C3530 0.962 . S
H3544 C3530 0.960 . S
H3545 C3531 0.961 . S
H3546 C3531 0.961 . S
H3547 C3531 0.961 . S
H3548 C3532 0.931 . S
H3549 C3537 0.930 . S
H3550 C3538 0.956 . S
H3551 C3538 0.961 . S
H3552 C3538 0.961 . S
H3553 C3539 0.958 . S
H3554 C3539 0.961 . S
H3555 C3539 0.960 . S
C3556 C3557 1.391 . S
C3556 C3558 1.394 . S
C3556 H3572 0.931 . S
C3557 C3556 1.391 . S
C3557 C3561 1.376 . S
C3558 C3556 1.394 . S
C3558 C3559 1.369 . S
C3558 C3562 1.531 . S
C3559 C3558 1.369 . S
C3559 C3560 1.410 . S
C3559 C3567 1.503 . S
C3560 C3559 1.410 . S
C3560 C3561 1.392 . S
C3560 C3563 1.511 . S
C3561 C3557 1.376 . S
C3561 C3560 1.392 . S
C3561 H3573 0.929 . S
C3562 C3558 1.531 . S
C3562 H3574 0.960 . S
C3562 H3575 0.962 . S
C3562 H3576 0.960 . S
C3563 C3560 1.511 . S
C3563 H3577 0.961 . S
C3563 H3578 0.961 . S
C3563 H3579 0.961 . S
C3564 C3565 1.370 . S
C3564 C3566 1.363 . S
C3564 H3580 0.931 . S
C3565 C3564 1.370 . S
C3565 C3569 1.408 . S
C3566 C3564 1.363 . S
C3566 C3567 1.370 . S
C3566 C3570 1.524 . S
C3567 C3559 1.503 . S
C3567 C3566 1.370 . S
C3567 C3568 1.403 . S
C3568 C3567 1.403 . S
C3568 C3569 1.404 . S
C3568 C3571 1.539 . S
C3569 C3565 1.408 . S
C3569 C3568 1.404 . S
C3569 H3581 0.930 . S
C3570 C3566 1.524 . S
C3570 H3582 0.956 . S
C3570 H3583 0.961 . S
C3570 H3584 0.961 . S
C3571 C3568 1.539 . S
C3571 H3585 0.958 . S
C3571 H3586 0.961 . S
C3571 H3587 0.960 . S
H3572 C3556 0.931 . S
H3573 C3561 0.929 . S
H3574 C3562 0.960 . S
H3575 C3562 0.962 . S
H3576 C3562 0.960 . S
H3577 C3563 0.961 . S
H3578 C3563 0.961 . S
H3579 C3563 0.961 . S
H3580 C3564 0.931 . S
H3581 C3569 0.930 . S
H3582 C3570 0.956 . S
H3583 C3570 0.961 . S
H3584 C3570 0.961 . S
H3585 C3571 0.958 . S
H3586 C3571 0.961 . S
H3587 C3571 0.960 . S
C3588 C3589 1.391 . S
C3588 C3590 1.394 . S
C3588 H3604 0.931 . S
C3589 C3588 1.391 . S
C3589 C3593 1.376 . S
C3590 C3588 1.394 . S
C3590 C3591 1.369 . S
C3590 C3594 1.531 . S
C3591 C3590 1.369 . S
C3591 C3592 1.410 . S
C3591 C3599 1.503 . S
C3592 C3591 1.410 . S
C3592 C3593 1.392 . S
C3592 C3595 1.511 . S
C3593 C3589 1.376 . S
C3593 C3592 1.392 . S
C3593 H3605 0.929 . S
C3594 C3590 1.531 . S
C3594 H3606 0.960 . S
C3594 H3607 0.962 . S
C3594 H3608 0.960 . S
C3595 C3592 1.511 . S
C3595 H3609 0.961 . S
C3595 H3610 0.961 . S
C3595 H3611 0.961 . S
C3596 C3597 1.370 . S
C3596 C3598 1.363 . S
C3596 H3612 0.931 . S
C3597 C3596 1.370 . S
C3597 C3601 1.408 . S
C3598 C3596 1.363 . S
C3598 C3599 1.370 . S
C3598 C3602 1.524 . S
C3599 C3591 1.503 . S
C3599 C3598 1.370 . S
C3599 C3600 1.403 . S
C3600 C3599 1.403 . S
C3600 C3601 1.404 . S
C3600 C3603 1.539 . S
C3601 C3597 1.408 . S
C3601 C3600 1.404 . S
C3601 H3613 0.930 . S
C3602 C3598 1.524 . S
C3602 H3614 0.956 . S
C3602 H3615 0.961 . S
C3602 H3616 0.961 . S
C3603 C3600 1.539 . S
C3603 H3617 0.958 . S
C3603 H3618 0.961 . S
C3603 H3619 0.960 . S
H3604 C3588 0.931 . S
H3605 C3593 0.929 . S
H3606 C3594 0.960 . S
H3607 C3594 0.962 . S
H3608 C3594 0.960 . S
H3609 C3595 0.961 . S
H3610 C3595 0.961 . S
H3611 C3595 0.961 . S
H3612 C3596 0.931 . S
H3613 C3601 0.930 . S
H3614 C3602 0.956 . S
H3615 C3602 0.961 . S
H3616 C3602 0.961 . S
H3617 C3603 0.958 . S
H3618 C3603 0.961 . S
H3619 C3603 0.960 . S
C3620 C3621 1.391 . S
C3620 C3622 1.394 . S
C3620 H3636 0.931 . S
C3621 C3620 1.391 . S
C3621 C3625 1.376 . S
C3622 C3620 1.394 . S
C3622 C3623 1.369 . S
C3622 C3626 1.531 . S
C3623 C3622 1.369 . S
C3623 C3624 1.410 . S
C3623 C3631 1.503 . S
C3624 C3623 1.410 . S
C3624 C3625 1.392 . S
C3624 C3627 1.511 . S
C3625 C3621 1.376 . S
C3625 C3624 1.392 . S
C3625 H3637 0.929 . S
C3626 C3622 1.531 . S
C3626 H3638 0.960 . S
C3626 H3639 0.962 . S
C3626 H3640 0.960 . S
C3627 C3624 1.511 . S
C3627 H3641 0.961 . S
C3627 H3642 0.961 . S
C3627 H3643 0.961 . S
C3628 C3629 1.370 . S
C3628 C3630 1.363 . S
C3628 H3644 0.931 . S
C3629 C3628 1.370 . S
C3629 C3633 1.408 . S
C3630 C3628 1.363 . S
C3630 C3631 1.370 . S
C3630 C3634 1.524 . S
C3631 C3623 1.503 . S
C3631 C3630 1.370 . S
C3631 C3632 1.403 . S
C3632 C3631 1.403 . S
C3632 C3633 1.404 . S
C3632 C3635 1.539 . S
C3633 C3629 1.408 . S
C3633 C3632 1.404 . S
C3633 H3645 0.930 . S
C3634 C3630 1.524 . S
C3634 H3646 0.956 . S
C3634 H3647 0.961 . S
C3634 H3648 0.961 . S
C3635 C3632 1.539 . S
C3635 H3649 0.958 . S
C3635 H3650 0.961 . S
C3635 H3651 0.960 . S
H3636 C3620 0.931 . S
H3637 C3625 0.929 . S
H3638 C3626 0.960 . S
H3639 C3626 0.962 . S
H3640 C3626 0.960 . S
H3641 C3627 0.961 . S
H3642 C3627 0.961 . S
H3643 C3627 0.961 . S
H3644 C3628 0.931 . S
H3645 C3633 0.930 . S
H3646 C3634 0.956 . S
H3647 C3634 0.961 . S
H3648 C3634 0.961 . S
H3649 C3635 0.958 . S
H3650 C3635 0.961 . S
H3651 C3635 0.960 . S
C3652 C3653 1.391 . S
C3652 C3654 1.394 . S
C3652 H3668 0.931 . S
C3653 C3652 1.391 . S
C3653 C3657 1.376 . S
C3654 C3652 1.394 . S
C3654 C3655 1.369 . S
C3654 C3658 1.531 . S
C3655 C3654 1.369 . S
C3655 C3656 1.410 . S
C3655 C3663 1.503 . S
C3656 C3655 1.410 . S
C3656 C3657 1.392 . S
C3656 C3659 1.511 . S
C3657 C3653 1.376 . S
C3657 C3656 1.392 . S
C3657 H3669 0.929 . S
C3658 C3654 1.531 . S
C3658 H3670 0.960 . S
C3658 H3671 0.962 . S
C3658 H3672 0.960 . S
C3659 C3656 1.511 . S
C3659 H3673 0.961 . S
C3659 H3674 0.961 . S
C3659 H3675 0.961 . S
C3660 C3661 1.370 . S
C3660 C3662 1.363 . S
C3660 H3676 0.931 . S
C3661 C3660 1.370 . S
C3661 C3665 1.408 . S
C3662 C3660 1.363 . S
C3662 C3663 1.370 . S
C3662 C3666 1.524 . S
C3663 C3655 1.503 . S
C3663 C3662 1.370 . S
C3663 C3664 1.403 . S
C3664 C3663 1.403 . S
C3664 C3665 1.404 . S
C3664 C3667 1.539 . S
C3665 C3661 1.408 . S
C3665 C3664 1.404 . S
C3665 H3677 0.930 . S
C3666 C3662 1.524 . S
C3666 H3678 0.956 . S
C3666 H3679 0.961 . S
C3666 H3680 0.961 . S
C3667 C3664 1.539 . S
C3667 H3681 0.958 . S
C3667 H3682 0.961 . S
C3667 H3683 0.960 . S
H3668 C3652 0.931 . S
H3669 C3657 0.929 . S
H3670 C3658 0.960 . S
H3671 C3658 0.962 . S
H3672 C3658 0.960 . S
H3673 C3659 0.961 . S
H3674 C3659 0.961 . S
H3675 C3659 0.961 . S
H3676 C3660 0.931 . S
H3677 C3665 0.930 . S
H3678 C3666 0.956 . S
H3679 C3666 0.961 . S
H3680 C3666 0.961 . S
H3681 C3667 0.958 . S
H3682 C3667 0.961 . S
H3683 C3667 0.960 . S
C3684 C3685 1.391 . S
C3684 C3686 1.394 . S
C3684 H3700 0.931 . S
C3685 C3684 1.391 . S
C3685 C3689 1.376 . S
C3686 C3684 1.394 . S
C3686 C3687 1.369 . S
C3686 C3690 1.531 . S
C3687 C3686 1.369 . S
C3687 C3688 1.410 . S
C3687 C3695 1.503 . S
C3688 C3687 1.410 . S
C3688 C3689 1.392 . S
C3688 C3691 1.511 . S
C3689 C3685 1.376 . S
C3689 C3688 1.392 . S
C3689 H3701 0.929 . S
C3690 C3686 1.531 . S
C3690 H3702 0.960 . S
C3690 H3703 0.962 . S
C3690 H3704 0.960 . S
C3691 C3688 1.511 . S
C3691 H3705 0.961 . S
C3691 H3706 0.961 . S
C3691 H3707 0.961 . S
C3692 C3693 1.370 . S
C3692 C3694 1.363 . S
C3692 H3708 0.931 . S
C3693 C3692 1.370 . S
C3693 C3697 1.408 . S
C3694 C3692 1.363 . S
C3694 C3695 1.370 . S
C3694 C3698 1.524 . S
C3695 C3687 1.503 . S
C3695 C3694 1.370 . S
C3695 C3696 1.403 . S
C3696 C3695 1.403 . S
C3696 C3697 1.404 . S
C3696 C3699 1.539 . S
C3697 C3693 1.408 . S
C3697 C3696 1.404 . S
C3697 H3709 0.930 . S
C3698 C3694 1.524 . S
C3698 H3710 0.956 . S
C3698 H3711 0.961 . S
C3698 H3712 0.961 . S
C3699 C3696 1.539 . S
C3699 H3713 0.958 . S
C3699 H3714 0.961 . S
C3699 H3715 0.960 . S
H3700 C3684 0.931 . S
H3701 C3689 0.929 . S
H3702 C3690 0.960 . S
H3703 C3690 0.962 . S
H3704 C3690 0.960 . S
H3705 C3691 0.961 . S
H3706 C3691 0.961 . S
H3707 C3691 0.961 . S
H3708 C3692 0.931 . S
H3709 C3697 0.930 . S
H3710 C3698 0.956 . S
H3711 C3698 0.961 . S
H3712 C3698 0.961 . S
H3713 C3699 0.958 . S
H3714 C3699 0.961 . S
H3715 C3699 0.960 . S
C3716 C3717 1.391 . S
C3716 C3718 1.394 . S
C3716 H3732 0.931 . S
C3717 C3716 1.391 . S
C3717 C3721 1.376 . S
C3718 C3716 1.394 . S
C3718 C3719 1.369 . S
C3718 C3722 1.531 . S
C3719 C3718 1.369 . S
C3719 C3720 1.410 . S
C3719 C3727 1.503 . S
C3720 C3719 1.410 . S
C3720 C3721 1.392 . S
C3720 C3723 1.511 . S
C3721 C3717 1.376 . S
C3721 C3720 1.392 . S
C3721 H3733 0.929 . S
C3722 C3718 1.531 . S
C3722 H3734 0.960 . S
C3722 H3735 0.962 . S
C3722 H3736 0.960 . S
C3723 C3720 1.511 . S
C3723 H3737 0.961 . S
C3723 H3738 0.961 . S
C3723 H3739 0.961 . S
C3724 C3725 1.370 . S
C3724 C3726 1.363 . S
C3724 H3740 0.931 . S
C3725 C3724 1.370 . S
C3725 C3729 1.408 . S
C3726 C3724 1.363 . S
C3726 C3727 1.370 . S
C3726 C3730 1.524 . S
C3727 C3719 1.503 . S
C3727 C3726 1.370 . S
C3727 C3728 1.403 . S
C3728 C3727 1.403 . S
C3728 C3729 1.404 . S
C3728 C3731 1.539 . S
C3729 C3725 1.408 . S
C3729 C3728 1.404 . S
C3729 H3741 0.930 . S
C3730 C3726 1.524 . S
C3730 H3742 0.956 . S
C3730 H3743 0.961 . S
C3730 H3744 0.961 . S
C3731 C3728 1.539 . S
C3731 H3745 0.958 . S
C3731 H3746 0.961 . S
C3731 H3747 0.960 . S
H3732 C3716 0.931 . S
H3733 C3721 0.929 . S
H3734 C3722 0.960 . S
H3735 C3722 0.962 . S
H3736 C3722 0.960 . S
H3737 C3723 0.961 . S
H3738 C3723 0.961 . S
H3739 C3723 0.961 . S
H3740 C3724 0.931 . S
H3741 C3729 0.930 . S
H3742 C3730 0.956 . S
H3743 C3730 0.961 . S
H3744 C3730 0.961 . S
H3745 C3731 0.958 . S
H3746 C3731 0.961 . S
H3747 C3731 0.960 . S
C3748 C3749 1.391 . S
C3748 C3750 1.394 . S
C3748 H3764 0.931 . S
C3749 C3748 1.391 . S
C3749 C3753 1.376 . S
C3750 C3748 1.394 . S
C3750 C3751 1.369 . S
C3750 C3754 1.531 . S
C3751 C3750 1.369 . S
C3751 C3752 1.410 . S
C3751 C3759 1.503 . S
C3752 C3751 1.410 . S
C3752 C3753 1.392 . S
C3752 C3755 1.511 . S
C3753 C3749 1.376 . S
C3753 C3752 1.392 . S
C3753 H3765 0.929 . S
C3754 C3750 1.531 . S
C3754 H3766 0.960 . S
C3754 H3767 0.962 . S
C3754 H3768 0.960 . S
C3755 C3752 1.511 . S
C3755 H3769 0.961 . S
C3755 H3770 0.961 . S
C3755 H3771 0.961 . S
C3756 C3757 1.370 . S
C3756 C3758 1.363 . S
C3756 H3772 0.931 . S
C3757 C3756 1.370 . S
C3757 C3761 1.408 . S
C3758 C3756 1.363 . S
C3758 C3759 1.370 . S
C3758 C3762 1.524 . S
C3759 C3751 1.503 . S
C3759 C3758 1.370 . S
C3759 C3760 1.403 . S
C3760 C3759 1.403 . S
C3760 C3761 1.404 . S
C3760 C3763 1.539 . S
C3761 C3757 1.408 . S
C3761 C3760 1.404 . S
C3761 H3773 0.930 . S
C3762 C3758 1.524 . S
C3762 H3774 0.956 . S
C3762 H3775 0.961 . S
C3762 H3776 0.961 . S
C3763 C3760 1.539 . S
C3763 H3777 0.958 . S
C3763 H3778 0.961 . S
C3763 H3779 0.960 . S
H3764 C3748 0.931 . S
H3765 C3753 0.929 . S
H3766 C3754 0.960 . S
H3767 C3754 0.962 . S
H3768 C3754 0.960 . S
H3769 C3755 0.961 . S
H3770 C3755 0.961 . S
H3771 C3755 0.961 . S
H3772 C3756 0.931 . S
H3773 C3761 0.930 . S
H3774 C3762 0.956 . S
H3775 C3762 0.961 . S
H3776 C3762 0.961 . S
H3777 C3763 0.958 . S
H3778 C3763 0.961 . S
H3779 C3763 0.960 . S
C3780 C3781 1.391 . S
C3780 C3782 1.394 . S
C3780 H3796 0.931 . S
C3781 C3780 1.391 . S
C3781 C3785 1.376 . S
C3782 C3780 1.394 . S
C3782 C3783 1.369 . S
C3782 C3786 1.531 . S
C3783 C3782 1.369 . S
C3783 C3784 1.410 . S
C3783 C3791 1.503 . S
C3784 C3783 1.410 . S
C3784 C3785 1.392 . S
C3784 C3787 1.511 . S
C3785 C3781 1.376 . S
C3785 C3784 1.392 . S
C3785 H3797 0.929 . S
C3786 C3782 1.531 . S
C3786 H3798 0.960 . S
C3786 H3799 0.962 . S
C3786 H3800 0.960 . S
C3787 C3784 1.511 . S
C3787 H3801 0.961 . S
C3787 H3802 0.961 . S
C3787 H3803 0.961 . S
C3788 C3789 1.370 . S
C3788 C3790 1.363 . S
C3788 H3804 0.931 . S
C3789 C3788 1.370 . S
C3789 C3793 1.408 . S
C3790 C3788 1.363 . S
C3790 C3791 1.370 . S
C3790 C3794 1.524 . S
C3791 C3783 1.503 . S
C3791 C3790 1.370 . S
C3791 C3792 1.403 . S
C3792 C3791 1.403 . S
C3792 C3793 1.404 . S
C3792 C3795 1.539 . S
C3793 C3789 1.408 . S
C3793 C3792 1.404 . S
C3793 H3805 0.930 . S
C3794 C3790 1.524 . S
C3794 H3806 0.956 . S
C3794 H3807 0.961 . S
C3794 H3808 0.961 . S
C3795 C3792 1.539 . S
C3795 H3809 0.958 . S
C3795 H3810 0.961 . S
C3795 H3811 0.960 . S
H3796 C3780 0.931 . S
H3797 C3785 0.929 . S
H3798 C3786 0.960 . S
H3799 C3786 0.962 . S
H3800 C3786 0.960 . S
H3801 C3787 0.961 . S
H3802 C3787 0.961 . S
H3803 C3787 0.961 . S
H3804 C3788 0.931 . S
H3805 C3793 0.930 . S
H3806 C3794 0.956 . S
H3807 C3794 0.961 . S
H3808 C3794 0.961 . S
H3809 C3795 0.958 . S
H3810 C3795 0.961 . S
H3811 C3795 0.960 . S
C3812 C3813 1.391 . S
C3812 C3814 1.394 . S
C3812 H3828 0.931 . S
C3813 C3812 1.391 . S
C3813 C3817 1.376 . S
C3814 C3812 1.394 . S
C3814 C3815 1.369 . S
C3814 C3818 1.531 . S
C3815 C3814 1.369 . S
C3815 C3816 1.410 . S
C3815 C3823 1.503 . S
C3816 C3815 1.410 . S
C3816 C3817 1.392 . S
C3816 C3819 1.511 . S
C3817 C3813 1.376 . S
C3817 C3816 1.392 . S
C3817 H3829 0.929 . S
C3818 C3814 1.531 . S
C3818 H3830 0.960 . S
C3818 H3831 0.962 . S
C3818 H3832 0.960 . S
C3819 C3816 1.511 . S
C3819 H3833 0.961 . S
C3819 H3834 0.961 . S
C3819 H3835 0.961 . S
C3820 C3821 1.370 . S
C3820 C3822 1.363 . S
C3820 H3836 0.931 . S
C3821 C3820 1.370 . S
C3821 C3825 1.408 . S
C3822 C3820 1.363 . S
C3822 C3823 1.370 . S
C3822 C3826 1.524 . S
C3823 C3815 1.503 . S
C3823 C3822 1.370 . S
C3823 C3824 1.403 . S
C3824 C3823 1.403 . S
C3824 C3825 1.404 . S
C3824 C3827 1.539 . S
C3825 C3821 1.408 . S
C3825 C3824 1.404 . S
C3825 H3837 0.930 . S
C3826 C3822 1.524 . S
C3826 H3838 0.956 . S
C3826 H3839 0.961 . S
C3826 H3840 0.961 . S
C3827 C3824 1.539 . S
C3827 H3841 0.958 . S
C3827 H3842 0.961 . S
C3827 H3843 0.960 . S
H3828 C3812 0.931 . S
H3829 C3817 0.929 . S
H3830 C3818 0.960 . S
H3831 C3818 0.962 . S
H3832 C3818 0.960 . S
H3833 C3819 0.961 . S
H3834 C3819 0.961 . S
H3835 C3819 0.961 . S
H3836 C3820 0.931 . S
H3837 C3825 0.930 . S
H3838 C3826 0.956 . S
H3839 C3826 0.961 . S
H3840 C3826 0.961 . S
H3841 C3827 0.958 . S
H3842 C3827 0.961 . S
H3843 C3827 0.960 . S
C3844 C3845 1.391 . S
C3844 C3846 1.394 . S
C3844 H3860 0.931 . S
C3845 C3844 1.391 . S
C3845 C3849 1.376 . S
C3846 C3844 1.394 . S
C3846 C3847 1.369 . S
C3846 C3850 1.531 . S
C3847 C3846 1.369 . S
C3847 C3848 1.410 . S
C3847 C3855 1.503 . S
C3848 C3847 1.410 . S
C3848 C3849 1.392 . S
C3848 C3851 1.511 . S
C3849 C3845 1.376 . S
C3849 C3848 1.392 . S
C3849 H3861 0.929 . S
C3850 C3846 1.531 . S
C3850 H3862 0.960 . S
C3850 H3863 0.962 . S
C3850 H3864 0.960 . S
C3851 C3848 1.511 . S
C3851 H3865 0.961 . S
C3851 H3866 0.961 . S
C3851 H3867 0.961 . S
C3852 C3853 1.370 . S
C3852 C3854 1.363 . S
C3852 H3868 0.931 . S
C3853 C3852 1.370 . S
C3853 C3857 1.408 . S
C3854 C3852 1.363 . S
C3854 C3855 1.370 . S
C3854 C3858 1.524 . S
C3855 C3847 1.503 . S
C3855 C3854 1.370 . S
C3855 C3856 1.403 . S
C3856 C3855 1.403 . S
C3856 C3857 1.404 . S
C3856 C3859 1.539 . S
C3857 C3853 1.408 . S
C3857 C3856 1.404 . S
C3857 H3869 0.930 . S
C3858 C3854 1.524 . S
C3858 H3870 0.956 . S
C3858 H3871 0.961 . S
C3858 H3872 0.961 . S
C3859 C3856 1.539 . S
C3859 H3873 0.958 . S
C3859 H3874 0.961 . S
C3859 H3875 0.960 . S
H3860 C3844 0.931 . S
H3861 C3849 0.929 . S
H3862 C3850 0.960 . S
H3863 C3850 0.962 . S
H3864 C3850 0.960 . S
H3865 C3851 0.961 . S
H3866 C3851 0.961 . S
H3867 C3851 0.961 . S
H3868 C3852 0.931 . S
H3869 C3857 0.930 . S
H3870 C3858 0.956 . S
H3871 C3858 0.961 . S
H3872 C3858 0.961 . S
H3873 C3859 0.958 . S
H3874 C3859 0.961 . S
H3875 C3859 0.960 . S
C3876 C3877 1.391 . S
C3876 C3878 1.394 . S
C3876 H3892 0.931 . S
C3877 C3876 1.391 . S
C3877 C3881 1.376 . S
C3878 C3876 1.394 . S
C3878 C3879 1.369 . S
C3878 C3882 1.531 . S
C3879 C3878 1.369 . S
C3879 C3880 1.410 . S
C3879 C3887 1.503 . S
C3880 C3879 1.410 . S
C3880 C3881 1.392 . S
C3880 C3883 1.511 . S
C3881 C3877 1.376 . S
C3881 C3880 1.392 . S
C3881 H3893 0.929 . S
C3882 C3878 1.531 . S
C3882 H3894 0.960 . S
C3882 H3895 0.962 . S
C3882 H3896 0.960 . S
C3883 C3880 1.511 . S
C3883 H3897 0.961 . S
C3883 H3898 0.961 . S
C3883 H3899 0.961 . S
C3884 C3885 1.370 . S
C3884 C3886 1.363 . S
C3884 H3900 0.931 . S
C3885 C3884 1.370 . S
C3885 C3889 1.408 . S
C3886 C3884 1.363 . S
C3886 C3887 1.370 . S
C3886 C3890 1.524 . S
C3887 C3879 1.503 . S
C3887 C3886 1.370 . S
C3887 C3888 1.403 . S
C3888 C3887 1.403 . S
C3888 C3889 1.404 . S
C3888 C3891 1.539 . S
C3889 C3885 1.408 . S
C3889 C3888 1.404 . S
C3889 H3901 0.930 . S
C3890 C3886 1.524 . S
C3890 H3902 0.956 . S
C3890 H3903 0.961 . S
C3890 H3904 0.961 . S
C3891 C3888 1.539 . S
C3891 H3905 0.958 . S
C3891 H3906 0.961 . S
C3891 H3907 0.960 . S
H3892 C3876 0.931 . S
H3893 C3881 0.929 . S
H3894 C3882 0.960 . S
H3895 C3882 0.962 . S
H3896 C3882 0.960 . S
H3897 C3883 0.961 . S
H3898 C3883 0.961 . S
H3899 C3883 0.961 . S
H3900 C3884 0.931 . S
H3901 C3889 0.930 . S
H3902 C3890 0.956 . S
H3903 C3890 0.961 . S
H3904 C3890 0.961 . S
H3905 C3891 0.958 . S
H3906 C3891 0.961 . S
H3907 C3891 0.960 . S
C3908 C3909 1.391 . S
C3908 C3910 1.394 . S
C3908 H3924 0.931 . S
C3909 C3908 1.391 . S
C3909 C3913 1.376 . S
C3910 C3908 1.394 . S
C3910 C3911 1.369 . S
C3910 C3914 1.531 . S
C3911 C3910 1.369 . S
C3911 C3912 1.410 . S
C3911 C3919 1.503 . S
C3912 C3911 1.410 . S
C3912 C3913 1.392 . S
C3912 C3915 1.511 . S
C3913 C3909 1.376 . S
C3913 C3912 1.392 . S
C3913 H3925 0.929 . S
C3914 C3910 1.531 . S
C3914 H3926 0.960 . S
C3914 H3927 0.962 . S
C3914 H3928 0.960 . S
C3915 C3912 1.511 . S
C3915 H3929 0.961 . S
C3915 H3930 0.961 . S
C3915 H3931 0.961 . S
C3916 C3917 1.370 . S
C3916 C3918 1.363 . S
C3916 H3932 0.931 . S
C3917 C3916 1.370 . S
C3917 C3921 1.408 . S
C3918 C3916 1.363 . S
C3918 C3919 1.370 . S
C3918 C3922 1.524 . S
C3919 C3911 1.503 . S
C3919 C3918 1.370 . S
C3919 C3920 1.403 . S
C3920 C3919 1.403 . S
C3920 C3921 1.404 . S
C3920 C3923 1.539 . S
C3921 C3917 1.408 . S
C3921 C3920 1.404 . S
C3921 H3933 0.930 . S
C3922 C3918 1.524 . S
C3922 H3934 0.956 . S
C3922 H3935 0.961 . S
C3922 H3936 0.961 . S
C3923 C3920 1.539 . S
C3923 H3937 0.958 . S
C3923 H3938 0.961 . S
C3923 H3939 0.960 . S
H3924 C3908 0.931 . S
H3925 C3913 0.929 . S
H3926 C3914 0.960 . S
H3927 C3914 0.962 . S
H3928 C3914 0.960 . S
H3929 C3915 0.961 . S
H3930 C3915 0.961 . S
H3931 C3915 0.961 . S
H3932 C3916 0.931 . S
H3933 C3921 0.930 . S
H3934 C3922 0.956 . S
H3935 C3922 0.961 . S
H3936 C3922 0.961 . S
H3937 C3923 0.958 . S
H3938 C3923 0.961 . S
H3939 C3923 0.960 . S
C3940 C3941 1.391 . S
C3940 C3942 1.394 . S
C3940 H3956 0.931 . S
C3941 C3940 1.391 . S
C3941 C3945 1.376 . S
C3942 C3940 1.394 . S
C3942 C3943 1.369 . S
C3942 C3946 1.531 . S
C3943 C3942 1.369 . S
C3943 C3944 1.410 . S
C3943 C3951 1.503 . S
C3944 C3943 1.410 . S
C3944 C3945 1.392 . S
C3944 C3947 1.511 . S
C3945 C3941 1.376 . S
C3945 C3944 1.392 . S
C3945 H3957 0.929 . S
C3946 C3942 1.531 . S
C3946 H3958 0.960 . S
C3946 H3959 0.962 . S
C3946 H3960 0.960 . S
C3947 C3944 1.511 . S
C3947 H3961 0.961 . S
C3947 H3962 0.961 . S
C3947 H3963 0.961 . S
C3948 C3949 1.370 . S
C3948 C3950 1.363 . S
C3948 H3964 0.931 . S
C3949 C3948 1.370 . S
C3949 C3953 1.408 . S
C3950 C3948 1.363 . S
C3950 C3951 1.370 . S
C3950 C3954 1.524 . S
C3951 C3943 1.503 . S
C3951 C3950 1.370 . S
C3951 C3952 1.403 . S
C3952 C3951 1.403 . S
C3952 C3953 1.404 . S
C3952 C3955 1.539 . S
C3953 C3949 1.408 . S
C3953 C3952 1.404 . S
C3953 H3965 0.930 . S
C3954 C3950 1.524 . S
C3954 H3966 0.956 . S
C3954 H3967 0.961 . S
C3954 H3968 0.961 . S
C3955 C3952 1.539 . S
C3955 H3969 0.958 . S
C3955 H3970 0.961 . S
C3955 H3971 0.960 . S
H3956 C3940 0.931 . S
H3957 C3945 0.929 . S
H3958 C3946 0.960 . S
H3959 C3946 0.962 . S
H3960 C3946 0.960 . S
H3961 C3947 0.961 . S
H3962 C3947 0.961 . S
H3963 C3947 0.961 . S
H3964 C3948 0.931 . S
H3965 C3953 0.930 . S
H3966 C3954 0.956 . S
H3967 C3954 0.961 . S
H3968 C3954 0.961 . S
H3969 C3955 0.958 . S
H3970 C3955 0.961 . S
H3971 C3955 0.960 . S
C3972 C3973 1.391 . S
C3972 C3974 1.394 . S
C3972 H3988 0.931 . S
C3973 C3972 1.391 . S
C3973 C3977 1.376 . S
C3974 C3972 1.394 . S
C3974 C3975 1.369 . S
C3974 C3978 1.531 . S
C3975 C3974 1.369 . S
C3975 C3976 1.410 . S
C3975 C3983 1.503 . S
C3976 C3975 1.410 . S
C3976 C3977 1.392 . S
C3976 C3979 1.511 . S
C3977 C3973 1.376 . S
C3977 C3976 1.392 . S
C3977 H3989 0.929 . S
C3978 C3974 1.531 . S
C3978 H3990 0.960 . S
C3978 H3991 0.962 . S
C3978 H3992 0.960 . S
C3979 C3976 1.511 . S
C3979 H3993 0.961 . S
C3979 H3994 0.961 . S
C3979 H3995 0.961 . S
C3980 C3981 1.370 . S
C3980 C3982 1.363 . S
C3980 H3996 0.931 . S
C3981 C3980 1.370 . S
C3981 C3985 1.408 . S
C3982 C3980 1.363 . S
C3982 C3983 1.370 . S
C3982 C3986 1.524 . S
C3983 C3975 1.503 . S
C3983 C3982 1.370 . S
C3983 C3984 1.403 . S
C3984 C3983 1.403 . S
C3984 C3985 1.404 . S
C3984 C3987 1.539 . S
C3985 C3981 1.408 . S
C3985 C3984 1.404 . S
C3985 H3997 0.930 . S
C3986 C3982 1.524 . S
C3986 H3998 0.956 . S
C3986 H3999 0.961 . S
C3986 H4000 0.961 . S
C3987 C3984 1.539 . S
C3987 H4001 0.958 . S
C3987 H4002 0.961 . S
C3987 H4003 0.960 . S
H3988 C3972 0.931 . S
H3989 C3977 0.929 . S
H3990 C3978 0.960 . S
H3991 C3978 0.962 . S
H3992 C3978 0.960 . S
H3993 C3979 0.961 . S
H3994 C3979 0.961 . S
H3995 C3979 0.961 . S
H3996 C3980 0.931 . S
H3997 C3985 0.930 . S
H3998 C3986 0.956 . S
H3999 C3986 0.961 . S
H4000 C3986 0.961 . S
H4001 C3987 0.958 . S
H4002 C3987 0.961 . S
H4003 C3987 0.960 . S
C4004 C4005 1.391 . S
C4004 C4006 1.394 . S
C4004 H4020 0.931 . S
C4005 C4004 1.391 . S
C4005 C4009 1.376 . S
C4006 C4004 1.394 . S
C4006 C4007 1.369 . S
C4006 C4010 1.531 . S
C4007 C4006 1.369 . S
C4007 C4008 1.410 . S
C4007 C4015 1.503 . S
C4008 C4007 1.410 . S
C4008 C4009 1.392 . S
C4008 C4011 1.511 . S
C4009 C4005 1.376 . S
C4009 C4008 1.392 . S
C4009 H4021 0.929 . S
C4010 C4006 1.531 . S
C4010 H4022 0.960 . S
C4010 H4023 0.962 . S
C4010 H4024 0.960 . S
C4011 C4008 1.511 . S
C4011 H4025 0.961 . S
C4011 H4026 0.961 . S
C4011 H4027 0.961 . S
C4012 C4013 1.370 . S
C4012 C4014 1.363 . S
C4012 H4028 0.931 . S
C4013 C4012 1.370 . S
C4013 C4017 1.408 . S
C4014 C4012 1.363 . S
C4014 C4015 1.370 . S
C4014 C4018 1.524 . S
C4015 C4007 1.503 . S
C4015 C4014 1.370 . S
C4015 C4016 1.403 . S
C4016 C4015 1.403 . S
C4016 C4017 1.404 . S
C4016 C4019 1.539 . S
C4017 C4013 1.408 . S
C4017 C4016 1.404 . S
C4017 H4029 0.930 . S
C4018 C4014 1.524 . S
C4018 H4030 0.956 . S
C4018 H4031 0.961 . S
C4018 H4032 0.961 . S
C4019 C4016 1.539 . S
C4019 H4033 0.958 . S
C4019 H4034 0.961 . S
C4019 H4035 0.960 . S
H4020 C4004 0.931 . S
H4021 C4009 0.929 . S
H4022 C4010 0.960 . S
H4023 C4010 0.962 . S
H4024 C4010 0.960 . S
H4025 C4011 0.961 . S
H4026 C4011 0.961 . S
H4027 C4011 0.961 . S
H4028 C4012 0.931 . S
H4029 C4017 0.930 . S
H4030 C4018 0.956 . S
H4031 C4018 0.961 . S
H4032 C4018 0.961 . S
H4033 C4019 0.958 . S
H4034 C4019 0.961 . S
H4035 C4019 0.960 . S
C4036 C4037 1.391 . S
C4036 C4038 1.394 . S
C4036 H4052 0.931 . S
C4037 C4036 1.391 . S
C4037 C4041 1.376 . S
C4038 C4036 1.394 . S
C4038 C4039 1.369 . S
C4038 C4042 1.531 . S
C4039 C4038 1.369 . S
C4039 C4040 1.410 . S
C4039 C4047 1.503 . S
C4040 C4039 1.410 . S
C4040 C4041 1.392 . S
C4040 C4043 1.511 . S
C4041 C4037 1.376 . S
C4041 C4040 1.392 . S
C4041 H4053 0.929 . S
C4042 C4038 1.531 . S
C4042 H4054 0.960 . S
C4042 H4055 0.962 . S
C4042 H4056 0.960 . S
C4043 C4040 1.511 . S
C4043 H4057 0.961 . S
C4043 H4058 0.961 . S
C4043 H4059 0.961 . S
C4044 C4045 1.370 . S
C4044 C4046 1.363 . S
C4044 H4060 0.931 . S
C4045 C4044 1.370 . S
C4045 C4049 1.408 . S
C4046 C4044 1.363 . S
C4046 C4047 1.370 . S
C4046 C4050 1.524 . S
C4047 C4039 1.503 . S
C4047 C4046 1.370 . S
C4047 C4048 1.403 . S
C4048 C4047 1.403 . S
C4048 C4049 1.404 . S
C4048 C4051 1.539 . S
C4049 C4045 1.408 . S
C4049 C4048 1.404 . S
C4049 H4061 0.930 . S
C4050 C4046 1.524 . S
C4050 H4062 0.956 . S
C4050 H4063 0.961 . S
C4050 H4064 0.961 . S
C4051 C4048 1.539 . S
C4051 H4065 0.958 . S
C4051 H4066 0.961 . S
C4051 H4067 0.960 . S
H4052 C4036 0.931 . S
H4053 C4041 0.929 . S
H4054 C4042 0.960 . S
H4055 C4042 0.962 . S
H4056 C4042 0.960 . S
H4057 C4043 0.961 . S
H4058 C4043 0.961 . S
H4059 C4043 0.961 . S
H4060 C4044 0.931 . S
H4061 C4049 0.930 . S
H4062 C4050 0.956 . S
H4063 C4050 0.961 . S
H4064 C4050 0.961 . S
H4065 C4051 0.958 . S
H4066 C4051 0.961 . S
H4067 C4051 0.960 . S
C1189 C120 0.472 . S
C1197 C21 0.433 . S
C1221 C54 0.403 . S
C1229 C153 0.425 . S
C1253 C186 0.424 . S
C1261 C87 0.380 . S
C1285 C318 0.334 . S
C1293 C219 0.406 . S
C1317 C252 0.400 . S
C1325 C351 0.368 . S
C1349 C384 0.483 . S
C1357 C285 0.412 . S
C1381 C516 0.480 . S
C1389 C417 0.429 . S
C1413 C450 0.356 . S
C1421 C549 0.408 . S
C1445 C582 0.423 . S
C1453 C483 0.430 . S
C1477 C615 0.342 . S
C1485 C714 0.374 . S
C1509 C648 0.324 . S
C1517 C747 0.389 . S
C1541 C780 0.432 . S
C1549 C681 0.434 . S
C1573 C912 0.397 . S
C1581 C813 0.372 . S
C1605 C945 0.463 . S
C1613 C846 0.399 . S
C1637 C978 0.358 . S
C1645 C879 0.409 . S
C1669 C1110 0.338 . S
C1677 C1011 0.409 . S
C1701 C1044 0.412 . S
C1709 C1143 0.433 . S
C1733 C1176 0.480 . S
C1741 C1077 0.421 . S
C1765 C7 1.699 . S
C1773 C964 1.703 . S
C1797 C898 1.672 . S
C1805 C40 1.703 . S
C1829 C73 1.679 1_455 S
C1837 C931 1.685 . S
C1861 C436 1.708 . S
C1869 C106 1.685 . S
C1893 C139 1.679 . S
C1901 C469 1.706 . S
C1925 C403 1.709 . S
C1933 C172 1.686 . S
C1957 C766 1.716 . S
C1965 C205 1.692 . S
C1989 C700 1.676 . S
C1997 C238 1.703 . S
C2021 C733 1.679 . S
C2029 C271 1.720 . S
C2053 C304 1.715 . S
C2061 C1030 1.690 . S
C2085 C1063 1.711 . S
C2093 C337 1.745 . S
C2117 C370 1.715 . S
C2125 C997 1.697 . S
C2149 C832 1.690 . S
C2157 C502 1.686 . S
C2181 C865 1.666 . S
C2189 C535 1.698 . S
C2213 C799 1.690 . S
C2221 C568 1.705 . S
C2245 C601 1.666 . S
C2253 C1162 1.696 . S
C2277 C634 1.666 . S
C2285 C1096 1.699 . S
C2309 C1129 1.684 . S
C2317 C667 1.686 . S
C2341 N13 1.264 . S
C2349 N607 1.248 . S
C2373 N640 1.276 . S
C2381 N46 1.244 . S
C2405 N79 1.225 . S
C2413 N673 1.265 . S
C2437 N1102 1.236 . S
C2445 N112 1.263 . S
C2469 N145 1.262 . S
C2477 N1135 1.252 . S
C2501 N1168 1.268 . S
C2509 N178 1.250 . S
C2533 N211 1.275 . S
C2541 N805 1.244 . S
C2565 N244 1.224 . S
C2573 N838 1.266 . S
C2597 N277 1.272 . S
C2605 N871 1.245 . S
C2629 N508 1.269 . S
C2637 N310 1.246 . S
C2661 N541 1.279 . S
C2669 N343 1.243 . S
C2693 N376 1.246 . S
C2701 N574 1.259 . S
C2725 N409 1.265 . S
C2733 N1003 1.251 . S
C2757 N1036 1.278 . S
C2765 N442 1.244 . S
C2789 N475 1.274 . S
C2797 N1069 1.247 . S
C2821 N904 1.237 . S
C2829 N706 1.259 . S
C2853 N739 1.279 . S
C2861 N937 1.244 . S
C2885 N970 1.266 . S
C2893 N772 1.251 . S
C2917 N233 1.576 . S
C2925 C18 1.617 . S
C2949 C51 1.613 . S
C2957 N266 1.546 . S
C2981 C84 1.610 . S
C2989 N200 1.562 . S
C3013 C117 1.619 . S
C3021 N365 1.535 . S
C3045 C150 1.616 . S
C3053 N299 1.551 . S
C3077 C183 1.612 . S
C3085 N332 1.561 . S
C3109 N35 1.574 . S
C3117 C216 1.617 . S
C3141 N68 1.514 . S
C3149 C249 1.621 . S
C3173 N2 1.555 . S
C3181 C282 1.619 . S
C3205 C315 1.615 . S
C3213 N167 1.548 . S
C3237 C348 1.618 . S
C3245 N101 1.541 . S
C3269 C381 1.615 . S
C3277 N134 1.547 . S
C3301 C414 1.612 . S
C3309 N629 1.560 . S
C3333 N662 1.532 . S
C3341 C447 1.621 . S
C3365 N596 1.536 . S
C3373 C480 1.621 . S
C3397 C513 1.611 . S
C3405 N761 1.553 . S
C3429 N695 1.528 . S
C3437 C546 1.619 . S
C3461 N728 1.543 . S
C3469 C579 1.618 . S
C3493 C612 1.617 . S
C3501 N431 1.542 . S
C3525 C645 1.617 . S
C3533 N464 1.541 . S
C3557 N398 1.550 . S
C3565 C678 1.619 . S
C3589 N563 1.576 . S
C3597 C711 1.617 . S
C3621 N497 1.528 . S
C3629 C744 1.621 . S
C3653 N530 1.513 . S
C3661 C777 1.621 . S
C3685 C810 1.612 . S
C3693 N1025 1.551 . S
C3717 N1058 1.530 . S
C3725 C843 1.621 . S
C3749 N992 1.543 . S
C3757 C876 1.618 . S
C3781 C909 1.616 . S
C3789 N1157 1.552 . S
C3813 C942 1.618 . S
C3821 N1091 1.537 . S
C3845 C975 1.620 . S
C3853 N1124 1.536 . S
C3877 N827 1.576 . S
C3885 C1008 1.617 . S
C3909 N860 1.521 . S
C3917 C1041 1.621 . S
C3941 C1074 1.613 . S
C3949 N794 1.554 . S
C3973 C1107 1.611 . S
C3981 N959 1.557 . S
C4005 C1140 1.615 . S
C4013 N893 1.551 . S
C4037 C1173 1.613 . S
C4045 N926 1.556 . S
