# Generated by pormake.
# Topology qtz-x, (6)-cn, num edge types: 1
# Building blocks:
#     Node 0, Type 0, BuildingBlock: PAMTUU_clean_sbu_0, # of connection points: 6
#     Node 1, Type 0, BuildingBlock: PAMTUU_clean_sbu_0, # of connection points: 6
#     Node 2, Type 0, BuildingBlock: PAMTUU_clean_sbu_0, # of connection points: 6
#     Edge 3, Type (0, 0), BuildingBlock: FUNLAD_clean_linker_0, # of connection points: 2
#     Edge 4, Type (0, 0), BuildingBlock: FUNLAD_clean_linker_0, # of connection points: 2
#     Edge 5, Type (0, 0), BuildingBlock: FUNLAD_clean_linker_0, # of connection points: 2
#     Edge 6, Type (0, 0), BuildingBlock: FUNLAD_clean_linker_0, # of connection points: 2
#     Edge 7, Type (0, 0), BuildingBlock: FUNLAD_clean_linker_0, # of connection points: 2
#     Edge 8, Type (0, 0), BuildingBlock: FUNLAD_clean_linker_0, # of connection points: 2
#     Edge 9, Type (0, 0), BuildingBlock: FUNLAD_clean_linker_0, # of connection points: 2
#     Edge 10, Type (0, 0), BuildingBlock: FUNLAD_clean_linker_0, # of connection points: 2
#     Edge 11, Type (0, 0), BuildingBlock: FUNLAD_clean_linker_0, # of connection points: 2
# Relax obj value: 0.123
# Max RMSD: 0.227
# Mean RMSD: 0.227
data_MOF--net-qtz-x--node1-PAMTUU_clean_sbu_0--edge1-FUNLAD_clean_linker_0
_symmetry_space_group_name_H-M    P1
_symmetry_Int_Tables_number       1
_symmetry_cell_setting            triclinic
loop_
_symmetry_equiv_pos_as_xyz
'x, y, z'
_cell_length_a     17.555457
_cell_length_b     17.566319
_cell_length_c     60.900161
_cell_angle_alpha  89.74147
_cell_angle_beta   90.069456
_cell_angle_gamma 119.91245
loop_
_atom_site_label
_atom_site_type_symbol
_atom_site_fract_x
_atom_site_fract_y
_atom_site_fract_z
_atom_type_partial_charge
Tb0 Tb 0.08899 0.66833 0.16483 0.0
Tb1 Tb 0.8943 0.58085 0.18871 0.0
C2 C 0.98156 0.47194 0.1767 0.0
C3 C 0.25441 0.72296 0.12108 0.0
C4 C 0.29693 0.70488 0.07734 0.0
C5 C 0.34822 0.70378 0.09503 0.0
C6 C 0.32726 0.71301 0.11665 0.0
C7 C 0.2026 0.72349 0.10354 0.0
C8 C 0.22394 0.71509 0.08192 0.0
C9 C 0.23212 0.73081 0.144 0.0
O10 O -0.0033 0.65224 0.13905 0.0
O11 O 0.86465 0.54733 0.15405 0.0
O12 O 0.92376 0.7061 0.17458 0.0
O13 O 0.07282 0.77338 0.17847 0.0
O14 O 0.77507 0.46939 0.19783 0.0
O15 O 0.80495 0.59908 0.20767 0.0
O16 O -0.00899 0.64894 0.21421 0.0
O17 O 0.11494 0.65647 0.1993 0.0
O18 O 0.02159 0.52703 0.16053 0.0
O19 O 0.94675 0.49326 0.19285 0.0
C20 C 0.91312 0.59283 0.13715 0.0
O21 O 0.18901 0.77258 0.147 0.0
O22 O 0.20025 0.65954 0.1559 0.0
C23 C 0.00069 0.77767 0.17619 0.0
C24 C 0.73606 0.48654 0.23372 0.0
C25 C 0.70677 0.4403 0.27871 0.0
C26 C 0.63795 0.43257 0.26522 0.0
C27 C 0.65261 0.45576 0.24293 0.0
C28 C 0.8046 0.49356 0.247 0.0
C29 C 0.79033 0.47118 0.26925 0.0
C30 C 0.75333 0.51499 0.21059 0.0
C31 C 0.07014 0.65935 0.21626 0.0
H32 H 0.40388 0.6944 0.09224 0.0
H33 H 0.3676 0.71163 0.12996 0.0
H34 H 0.14553 0.73044 0.1065 0.0
H35 H 0.18354 0.71745 0.06878 0.0
H36 H 0.57251 0.40794 0.27182 0.0
H37 H 0.59894 0.45 0.23292 0.0
H38 H 0.86959 0.51732 0.24019 0.0
H39 H 0.84535 0.47953 0.27911 0.0
Tb40 Tb 0.4811 0.97917 0.49885 0.0
Tb41 Tb 0.57876 0.17417 0.5219 0.0
C42 C 0.38435 0.08133 0.50832 0.0
C43 C 0.37666 0.82186 0.45459 0.0
C44 C 0.31984 0.79419 0.4105 0.0
C45 C 0.30423 0.72281 0.42413 0.0
C46 C 0.33248 0.73663 0.44603 0.0
C47 C 0.39274 0.89315 0.44103 0.0
C48 C 0.36498 0.87955 0.41921 0.0
C49 C 0.40655 0.83758 0.47753 0.0
O50 O 0.56056 0.0719 0.47351 0.0
O51 O 0.57713 0.20151 0.48688 0.0
O52 O 0.67872 0.14609 0.50994 0.0
O53 O 0.59982 -0.0026 0.51477 0.0
O54 O 0.58559 0.29485 0.52833 0.0
O55 O 0.68093 0.26458 0.54201 0.0
O56 O 0.54579 0.08063 0.54869 0.0
O57 O 0.4405 0.9511 0.53306 0.0
O58 O 0.40448 0.04324 0.49274 0.0
O59 O 0.43763 0.11808 0.52491 0.0
C60 C 0.57879 0.15337 0.47056 0.0
O61 O 0.4914 0.8847 0.4801 0.0
O62 O 0.36486 0.8638 0.49039 0.0
C63 C 0.67546 0.07055 0.51309 0.0
C64 C 0.63237 0.33899 0.56474 0.0
C65 C 0.60435 0.37463 0.60821 0.0
C66 C 0.68435 0.42969 0.59743 0.0
C67 C 0.69812 0.41205 0.57584 0.0
C68 C 0.55267 0.28359 0.57548 0.0
C69 C 0.53861 0.30152 0.59696 0.0
C70 C 0.64888 0.31735 0.54257 0.0
C71 C 0.4822 -0.0015 0.55032 0.0
H72 H 0.26881 0.6562 0.41801 0.0
H73 H 0.31941 0.68087 0.4563 0.0
H74 H 0.42679 0.9595 0.44735 0.0
H75 H 0.37938 0.93612 0.40912 0.0
H76 H 0.73596 0.48681 0.60562 0.0
H77 H 0.76036 0.45497 0.56788 0.0
H78 H 0.50162 0.22587 0.56733 0.0
H79 H 0.47682 0.25718 0.60492 0.0
Tb80 Tb 0.39895 0.57613 0.83172 0.0
Tb81 Tb 0.50656 0.48797 0.85551 0.0
C82 C 0.59665 0.6845 0.843 0.0
C83 C 0.33312 0.67692 0.78801 0.0
C84 C 0.35193 0.74051 0.74455 0.0
C85 C 0.29338 0.74679 0.75923 0.0
C86 C 0.28404 0.71514 0.78077 0.0
C87 C 0.3917 0.67056 0.77349 0.0
C88 C 0.40095 0.70194 0.75196 0.0
C89 C 0.32264 0.64291 0.81057 0.0
O90 O 0.42496 0.506 0.80627 0.0
O91 O 0.54138 0.497 0.82084 0.0
O92 O 0.38317 0.38391 0.84262 0.0
O93 O 0.30339 0.45309 0.84681 0.0
O94 O 0.62413 0.49037 0.86375 0.0
O95 O 0.49849 0.38368 0.8743 0.0
O96 O 0.43997 0.51371 0.88198 0.0
O97 O 0.40421 0.61151 0.86613 0.0
O98 O 0.53891 0.66348 0.8272 0.0
O99 O 0.58369 0.62933 0.85904 0.0
C100 C 0.4924 0.49354 0.80405 0.0
O101 O 0.29278 0.5587 0.81225 0.0
O102 O 0.38907 0.6874 0.82367 0.0
C103 C 0.30754 0.3808 0.84529 0.0
C104 C 0.61437 0.43142 0.89945 0.0
C105 C 0.65813 0.44386 0.94454 0.0
C106 C 0.62582 0.36374 0.93328 0.0
C107 C 0.6044 0.35774 0.91097 0.0
C108 C 0.64701 0.51168 0.91052 0.0
C109 C 0.66925 0.51798 0.93277 0.0
C110 C 0.58346 0.42175 0.87655 0.0
C111 C 0.41411 0.57205 0.88343 0.0
H112 H 0.25397 0.77523 0.75399 0.0
H113 H 0.2383 0.72027 0.79175 0.0
H114 H 0.43041 0.64144 0.77884 0.0
H115 H 0.44752 0.69716 0.74122 0.0
H116 H 0.6148 0.30485 0.94179 0.0
H117 H 0.57802 0.29489 0.90282 0.0
H118 H 0.65421 0.56931 0.90206 0.0
H119 H 0.69513 0.58111 0.94072 0.0
C120 C 0.92912 0.86985 0.17363 0.0
C121 C 0.00607 0.86427 0.17511 0.0
C122 C 0.93385 0.95145 0.17242 0.0
C123 C 0.01577 0.02937 0.17277 0.0
C124 C 0.09267 0.02377 0.17389 0.0
C125 C 0.08796 0.9421 0.17518 0.0
C126 C 0.02321 0.11715 0.1714 0.0
C127 C 0.96022 0.13287 0.17886 0.0
C128 C 0.96755 0.22062 0.17793 0.0
C129 C 0.92125 0.24089 0.19338 0.0
C130 C 0.92601 0.32259 0.19302 0.0
C131 C 0.97635 0.3854 0.17696 0.0
H132 H 0.05159 0.26874 0.14907 0.0
C133 C 0.02155 0.36465 0.16122 0.0
C134 C 0.01721 0.28305 0.16168 0.0
H135 H 0.06043 0.41142 0.14854 0.0
H136 H 0.86499 0.81117 0.17331 0.0
H137 H 0.87322 0.95295 0.17082 0.0
H138 H 0.1566 0.0828 0.17396 0.0
H139 H 0.14855 0.94009 0.17613 0.0
H140 H 0.08448 0.17111 0.16519 0.0
H141 H 0.90296 0.08079 0.18711 0.0
H142 H 0.88184 0.19363 0.20593 0.0
H143 H 0.88992 0.33627 0.2053 0.0
C144 C 0.26559 0.09893 0.52604 0.0
C145 C 0.30134 0.08332 0.50711 0.0
C146 C 0.18664 0.1001 0.52493 0.0
C147 C 0.1426 0.0868 0.50478 0.0
C148 C 0.17917 0.07285 0.48582 0.0
C149 C 0.25721 0.06995 0.487 0.0
C150 C 0.06028 0.09041 0.50299 0.0
C151 C -0.00136 0.05985 0.51885 0.0
C152 C 0.91613 0.06306 0.51694 0.0
C153 C 0.83837 -0.00512 0.52601 0.0
C154 C 0.75976 -0.00337 0.52452 0.0
C155 C 0.7581 0.06787 0.51443 0.0
H156 H 0.97388 0.18898 0.50015 0.0
C157 C 0.83634 0.13696 0.50572 0.0
C158 C 0.91451 0.13437 0.50683 0.0
H159 H 0.83711 0.19282 0.49788 0.0
H160 H 0.29827 0.10966 0.54176 0.0
H161 H 0.16112 0.11308 0.53975 0.0
H162 H 0.14679 0.06324 0.47008 0.0
H163 H 0.28354 0.05842 0.4721 0.0
H164 H 0.04807 0.11454 0.48768 0.0
H165 H 0.00656 0.0272 0.53315 0.0
H166 H 0.83824 0.93967 0.53405 0.0
H167 H 0.70061 0.94279 0.53154 0.0
C168 C 0.74281 0.79312 0.8587 0.0
C169 C 0.67742 0.77147 0.84272 0.0
C170 C 0.8191 0.87533 0.85846 0.0
C171 C 0.83172 0.93758 0.84215 0.0
C172 C 0.76578 0.91641 0.82641 0.0
C173 C 0.68964 0.83406 0.82659 0.0
C174 C 0.9115 0.02585 0.84144 0.0
C175 C -0.01008 0.04206 0.84927 0.0
C176 C 0.07019 0.12987 0.84814 0.0
C177 C 0.15257 0.13512 0.84774 0.0
C178 C 0.22964 0.21655 0.84671 0.0
C179 C 0.22591 0.29464 0.84635 0.0
H180 H 0.00422 0.20676 0.84906 0.0
C181 C 0.14348 0.28951 0.84714 0.0
C182 C 0.06638 0.20802 0.84805 0.0
H183 H 0.13833 0.34845 0.84707 0.0
H184 H 0.7351 0.74668 0.87148 0.0
H185 H 0.86712 0.89021 0.8713 0.0
H186 H 0.77349 0.96348 0.8138 0.0
H187 H 0.64029 0.81972 0.81411 0.0
H188 H 0.90622 0.07772 0.83305 0.0
H189 H -0.00275 0.98823 0.85565 0.0
H190 H 0.15735 0.07596 0.84802 0.0
H191 H 0.2921 0.21815 0.84629 0.0
C192 C 0.42436 0.56799 0.92438 0.0
C193 C 0.39538 0.59319 0.90561 0.0
C194 C 0.40623 0.58641 0.94539 0.0
C195 C 0.35847 0.63044 0.94817 0.0
C196 C 0.32891 0.65505 0.92945 0.0
C197 C 0.34787 0.63743 0.90837 0.0
C198 C 0.335 0.64753 0.97034 0.0
C199 C 0.38524 0.66009 0.98822 0.0
C200 C 0.36081 0.67364 0.01064 0.0
C201 C 0.42757 0.72072 0.02599 0.0
C202 C 0.40703 0.73184 0.04749 0.0
C203 C 0.31896 0.69471 0.05428 0.0
H204 H 0.21938 0.5975 1.00617 0.0
C205 C 0.25207 0.64695 0.03889 0.0
C206 C 0.27268 0.63664 0.01733 0.0
H207 H 0.18353 0.61564 0.04361 0.0
H208 H 0.46115 0.53378 0.92289 0.0
H209 H 0.42801 0.56413 0.95939 0.0
H210 H 0.29125 0.68828 0.93113 0.0
H211 H 0.32419 0.65731 0.89427 0.0
H212 H 0.27612 0.65279 0.97176 0.0
H213 H 0.44848 0.66365 0.98636 0.0
H214 H 0.49601 0.74947 0.02131 0.0
H215 H 0.4604 0.77009 0.05872 0.0
C216 C 0.61364 0.27341 0.44261 0.0
C217 C 0.60111 0.18989 0.44791 0.0
C218 C 0.63172 0.30479 0.42088 0.0
C219 C 0.63746 0.25297 0.40404 0.0
C220 C 0.62607 0.1703 0.40953 0.0
C221 C 0.60789 0.13905 0.43106 0.0
C222 C 0.65726 0.28206 0.38067 0.0
C223 C 0.64762 0.34684 0.37152 0.0
C224 C 0.66446 0.37076 0.34774 0.0
C225 C 0.62358 0.4131 0.33763 0.0
C226 C 0.63684 0.43538 0.3153 0.0
C227 C 0.6919 0.41631 0.3025 0.0
H228 H 0.75624 0.32344 0.34217 0.0
C229 C 0.73379 0.37505 0.3127 0.0
C230 C 0.72087 0.35318 0.33502 0.0
H231 H 0.77628 0.35881 0.30341 0.0
H232 H 0.60907 0.31435 0.45518 0.0
H233 H 0.64208 0.36977 0.4175 0.0
H234 H 0.63059 0.129 0.39703 0.0
H235 H 0.59891 0.07446 0.4344 0.0
H236 H 0.67604 0.24411 0.37027 0.0
H237 H 0.62172 0.38029 0.3813 0.0
H238 H 0.58064 0.4285 0.34702 0.0
H239 H 0.60477 0.46861 0.30815 0.0
C240 C 0.37167 0.72891 0.70398 0.0
C241 C 0.36276 0.77502 0.72169 0.0
C242 C 0.38435 0.76263 0.68259 0.0
C243 C 0.38801 0.84332 0.67839 0.0
C244 C 0.37898 0.88917 0.6961 0.0
C245 C 0.36617 0.8554 0.71746 0.0
C246 C 0.40594 0.88434 0.65612 0.0
C247 C 0.39344 0.8398 0.63721 0.0
C248 C 0.41528 0.88265 0.61515 0.0
C249 C 0.37431 0.83181 0.59647 0.0
C250 C 0.39516 0.8692 0.57542 0.0
C251 C 0.45827 0.95833 0.57256 0.0
H252 H 0.51407 0.01288 0.62605 0.0
C253 C 0.49954 0.00912 0.59126 0.0
C254 C 0.47867 0.97181 0.61225 0.0
H255 H 0.54878 0.07791 0.58974 0.0
H256 H 0.36885 0.66654 0.70663 0.0
H257 H 0.39326 0.72606 0.66959 0.0
H258 H 0.38247 0.95188 0.69345 0.0
H259 H 0.36092 0.89335 0.73074 0.0
H260 H 0.42814 0.95409 0.65542 0.0
H261 H 0.36362 0.76884 0.63767 0.0
H262 H 0.32586 0.76281 0.59815 0.0
H263 H 0.36223 0.828 0.56141 0.0
C264 C 0.66226 0.50394 0.98236 0.0
C265 C 0.67877 0.44979 0.9685 0.0
C266 C 0.68241 0.51028 1.00475 0.0
C267 C 0.71916 0.46218 0.01389 0.0
C268 C 0.73363 0.40648 1.00025 0.0
C269 C 0.71451 0.40091 0.9778 0.0
C270 C 0.74283 0.46861 0.03755 0.0
C271 C 0.77289 0.54367 0.04897 0.0
C272 C 0.80557 0.55394 0.07189 0.0
C273 C 0.87626 0.63524 0.07822 0.0
C274 C 0.91051 0.64744 0.09943 0.0
C275 C 0.87334 0.57921 0.11503 0.0
H276 H 0.71163 0.42263 0.08322 0.0
C277 C 0.80064 0.49843 0.10897 0.0
C278 C 0.76745 0.48558 0.0875 0.0
H279 H 0.77069 0.44472 0.12066 0.0
H280 H 0.63256 0.54072 0.976 0.0
H281 H 0.66791 0.55189 0.01491 0.0
H282 H 0.76163 0.36849 1.00688 0.0
H283 H 0.72913 0.35924 0.9677 0.0
H284 H 0.74267 0.41249 0.04519 0.0
H285 H 0.78169 0.60235 0.04063 0.0
H286 H 0.90636 0.68914 0.06657 0.0
H287 H 0.96617 0.71072 0.10362 0.0
C288 C 0.06014 0.67572 0.25679 0.0
C289 C 0.10847 0.67366 0.23862 0.0
C290 C 0.09403 0.68675 0.27801 0.0
C291 C 0.17785 0.69712 0.28164 0.0
C292 C 0.22579 0.69395 0.26355 0.0
C293 C 0.19171 0.68271 0.24224 0.0
C294 C 0.21551 0.70866 0.30413 0.0
C295 C 0.19272 0.74402 0.32071 0.0
C296 C 0.22803 0.75604 0.34344 0.0
C297 C 0.22124 0.81661 0.35707 0.0
C298 C 0.25097 0.8288 0.37873 0.0
C299 C 0.28791 0.78022 0.38741 0.0
H300 H 0.26857 0.65755 0.3424 0.0
C301 C 0.29395 0.71873 0.37389 0.0
C302 C 0.26428 0.70663 0.35213 0.0
H303 H 0.32228 0.68041 0.38006 0.0
H304 H -0.00463 0.66799 0.25474 0.0
H305 H 0.05332 0.68536 0.2915 0.0
H306 H 0.29007 0.70069 0.26589 0.0
H307 H 0.23042 0.68068 0.22866 0.0
H308 H 0.26596 0.69102 0.30669 0.0
H309 H 0.14844 0.76908 0.31739 0.0
H310 H 0.19269 0.85484 0.35094 0.0
H311 H 0.24379 0.87556 0.38877 0.0
C312 C 0.4545 0.46152 0.76429 0.0
C313 C 0.51276 0.47544 0.78168 0.0
C314 C 0.4735 0.4471 0.74298 0.0
C315 C 0.55224 0.44744 0.73833 0.0
C316 C 0.60973 0.45964 0.7558 0.0
C317 C 0.59037 0.47359 0.77723 0.0
C318 C 0.57538 0.43302 0.71572 0.0
C319 C 0.53814 0.44296 0.69731 0.0
C320 C 0.55771 0.42532 0.67473 0.0
C321 C 0.4937 0.4037 0.65839 0.0
C322 C 0.50884 0.38714 0.63689 0.0
C323 C 0.58907 0.39309 0.63109 0.0
H324 H 0.6904 0.45077 0.68089 0.0
C325 C 0.65396 0.41623 0.64732 0.0
C326 C 0.63847 0.432 0.66894 0.0
H327 H 0.71641 0.42118 0.64335 0.0
H328 H 0.3935 0.46139 0.76708 0.0
H329 H 0.42518 0.43452 0.73041 0.0
H330 H 0.67037 0.45925 0.75282 0.0
H331 H 0.63668 0.48393 0.79023 0.0
H332 H 0.62482 0.41339 0.71434 0.0
H333 H 0.48897 0.46288 0.69855 0.0
H334 H 0.43126 0.39894 0.6623 0.0
H335 H 0.45799 0.37064 0.6247 0.0
loop_
_geom_bond_atom_site_label_1
_geom_bond_atom_site_label_2
_geom_bond_distance
_geom_bond_site_symmetry_2
_ccdc_geom_bond_type
Tb0 C9 2.764 . S
Tb0 O10 2.325 . S
Tb0 O13 2.303 . S
Tb0 O17 2.322 . S
Tb0 O18 2.349 . S
Tb0 O21 2.415 . S
Tb0 O22 2.399 . S
Tb1 O11 2.322 . S
Tb1 O12 2.349 1_655 S
Tb1 O14 2.415 . S
Tb1 O15 2.399 . S
Tb1 O16 2.325 1_655 S
Tb1 O19 2.303 1_655 S
Tb1 C30 2.764 . S
C2 O18 1.261 . S
C2 O19 1.257 . S
C3 C6 1.358 . S
C3 C7 1.332 . S
C3 C9 1.504 . S
C4 C5 1.373 . S
C4 C8 1.308 . S
C5 C4 1.373 . S
C5 C6 1.429 . S
C5 H32 0.932 . S
C6 C3 1.358 . S
C6 C5 1.429 . S
C6 H33 0.930 . S
C7 C3 1.332 . S
C7 C8 1.394 . S
C7 H34 0.932 . S
C8 C4 1.308 . S
C8 C7 1.394 . S
C8 H35 0.929 . S
C9 Tb0 2.764 . S
C9 C3 1.504 . S
C9 O21 1.239 . S
C9 O22 1.263 . S
O10 Tb0 2.325 . S
O10 C20 1.236 1_455 S
O11 Tb1 2.322 . S
O11 C20 1.257 . S
O12 Tb1 2.349 1_455 S
O12 C23 1.261 . S
O13 Tb0 2.303 . S
O13 C23 1.257 . S
O14 Tb1 2.415 . S
O14 C30 1.239 . S
O15 Tb1 2.399 . S
O15 C30 1.263 . S
O16 Tb1 2.325 1_455 S
O16 C31 1.236 . S
O17 Tb0 2.322 . S
O17 C31 1.257 . S
O18 Tb0 2.349 . S
O18 C2 1.261 . S
O19 Tb1 2.303 1_455 S
O19 C2 1.257 . S
C20 O10 1.236 1_655 S
C20 O11 1.257 . S
O21 Tb0 2.415 . S
O21 C9 1.239 . S
O22 Tb0 2.399 . S
O22 C9 1.263 . S
C23 O12 1.261 . S
C23 O13 1.257 . S
C24 C27 1.358 . S
C24 C28 1.332 . S
C24 C30 1.504 . S
C25 C26 1.373 . S
C25 C29 1.308 . S
C26 C25 1.373 . S
C26 C27 1.429 . S
C26 H36 0.932 . S
C27 C24 1.358 . S
C27 C26 1.429 . S
C27 H37 0.930 . S
C28 C24 1.332 . S
C28 C29 1.394 . S
C28 H38 0.932 . S
C29 C25 1.308 . S
C29 C28 1.394 . S
C29 H39 0.929 . S
C30 Tb1 2.764 . S
C30 O14 1.239 . S
C30 O15 1.263 . S
C30 C24 1.504 . S
C31 O16 1.236 . S
C31 O17 1.257 . S
H32 C5 0.932 . S
H33 C6 0.930 . S
H34 C7 0.932 . S
H35 C8 0.929 . S
H36 C26 0.932 . S
H37 C27 0.930 . S
H38 C28 0.932 . S
H39 C29 0.929 . S
Tb40 C49 2.764 . S
Tb40 O50 2.325 1_565 S
Tb40 O53 2.303 . S
Tb40 O57 2.322 . S
Tb40 O58 2.349 . S
Tb40 O61 2.415 . S
Tb40 O62 2.399 . S
Tb41 O51 2.322 . S
Tb41 O52 2.349 . S
Tb41 O54 2.415 . S
Tb41 O55 2.399 . S
Tb41 O56 2.325 1_545 S
Tb41 O59 2.303 . S
Tb41 C70 2.764 . S
C42 O58 1.261 . S
C42 O59 1.257 1_565 S
C43 C46 1.358 . S
C43 C47 1.332 . S
C43 C49 1.504 . S
C44 C45 1.373 . S
C44 C48 1.308 . S
C45 C44 1.373 . S
C45 C46 1.429 . S
C45 H72 0.932 . S
C46 C43 1.358 . S
C46 C45 1.429 . S
C46 H73 0.930 . S
C47 C43 1.332 . S
C47 C48 1.394 . S
C47 H74 0.932 . S
C48 C44 1.308 . S
C48 C47 1.394 . S
C48 H75 0.929 . S
C49 Tb40 2.764 . S
C49 C43 1.504 . S
C49 O61 1.239 . S
C49 O62 1.263 . S
O50 Tb40 2.325 1_545 S
O50 C60 1.236 . S
O51 Tb41 2.322 . S
O51 C60 1.257 . S
O52 Tb41 2.349 . S
O52 C63 1.261 . S
O53 Tb40 2.303 . S
O53 C63 1.257 1_565 S
O54 Tb41 2.415 . S
O54 C70 1.239 . S
O55 Tb41 2.399 . S
O55 C70 1.263 . S
O56 Tb41 2.325 1_565 S
O56 C71 1.236 . S
O57 Tb40 2.322 . S
O57 C71 1.257 . S
O58 Tb40 2.349 . S
O58 C42 1.261 . S
O59 Tb41 2.303 . S
O59 C42 1.257 1_545 S
C60 O50 1.236 . S
C60 O51 1.257 . S
O61 Tb40 2.415 . S
O61 C49 1.239 . S
O62 Tb40 2.399 . S
O62 C49 1.263 . S
C63 O52 1.261 . S
C63 O53 1.257 1_545 S
C64 C67 1.358 . S
C64 C68 1.332 . S
C64 C70 1.504 . S
C65 C66 1.373 . S
C65 C69 1.308 . S
C66 C65 1.373 . S
C66 C67 1.429 . S
C66 H76 0.932 . S
C67 C64 1.358 . S
C67 C66 1.429 . S
C67 H77 0.930 . S
C68 C64 1.332 . S
C68 C69 1.394 . S
C68 H78 0.932 . S
C69 C65 1.308 . S
C69 C68 1.394 . S
C69 H79 0.929 . S
C70 Tb41 2.764 . S
C70 O54 1.239 . S
C70 O55 1.263 . S
C70 C64 1.504 . S
C71 O56 1.236 . S
C71 O57 1.257 . S
H72 C45 0.932 . S
H73 C46 0.930 . S
H74 C47 0.932 . S
H75 C48 0.929 . S
H76 C66 0.932 . S
H77 C67 0.930 . S
H78 C68 0.932 . S
H79 C69 0.929 . S
Tb80 C89 2.764 . S
Tb80 O90 2.325 . S
Tb80 O93 2.303 . S
Tb80 O97 2.322 . S
Tb80 O98 2.349 . S
Tb80 O101 2.415 . S
Tb80 O102 2.399 . S
Tb81 O91 2.322 . S
Tb81 O92 2.349 . S
Tb81 O94 2.415 . S
Tb81 O95 2.399 . S
Tb81 O96 2.325 . S
Tb81 O99 2.303 . S
Tb81 C110 2.764 . S
C82 O98 1.261 . S
C82 O99 1.257 . S
C83 C86 1.358 . S
C83 C87 1.332 . S
C83 C89 1.504 . S
C84 C85 1.373 . S
C84 C88 1.308 . S
C85 C84 1.373 . S
C85 C86 1.429 . S
C85 H112 0.932 . S
C86 C83 1.358 . S
C86 C85 1.429 . S
C86 H113 0.930 . S
C87 C83 1.332 . S
C87 C88 1.394 . S
C87 H114 0.932 . S
C88 C84 1.308 . S
C88 C87 1.394 . S
C88 H115 0.929 . S
C89 Tb80 2.764 . S
C89 C83 1.504 . S
C89 O101 1.239 . S
C89 O102 1.263 . S
O90 Tb80 2.325 . S
O90 C100 1.236 . S
O91 Tb81 2.322 . S
O91 C100 1.257 . S
O92 Tb81 2.349 . S
O92 C103 1.261 . S
O93 Tb80 2.303 . S
O93 C103 1.257 . S
O94 Tb81 2.415 . S
O94 C110 1.239 . S
O95 Tb81 2.399 . S
O95 C110 1.263 . S
O96 Tb81 2.325 . S
O96 C111 1.236 . S
O97 Tb80 2.322 . S
O97 C111 1.257 . S
O98 Tb80 2.349 . S
O98 C82 1.261 . S
O99 Tb81 2.303 . S
O99 C82 1.257 . S
C100 O90 1.236 . S
C100 O91 1.257 . S
O101 Tb80 2.415 . S
O101 C89 1.239 . S
O102 Tb80 2.399 . S
O102 C89 1.263 . S
C103 O92 1.261 . S
C103 O93 1.257 . S
C104 C107 1.358 . S
C104 C108 1.332 . S
C104 C110 1.504 . S
C105 C106 1.373 . S
C105 C109 1.308 . S
C106 C105 1.373 . S
C106 C107 1.429 . S
C106 H116 0.932 . S
C107 C104 1.358 . S
C107 C106 1.429 . S
C107 H117 0.930 . S
C108 C104 1.332 . S
C108 C109 1.394 . S
C108 H118 0.932 . S
C109 C105 1.308 . S
C109 C108 1.394 . S
C109 H119 0.929 . S
C110 Tb81 2.764 . S
C110 O94 1.239 . S
C110 O95 1.263 . S
C110 C104 1.504 . S
C111 O96 1.236 . S
C111 O97 1.257 . S
H112 C85 0.932 . S
H113 C86 0.930 . S
H114 C87 0.932 . S
H115 C88 0.929 . S
H116 C106 0.932 . S
H117 C107 0.930 . S
H118 C108 0.932 . S
H119 C109 0.929 . S
C120 C121 1.386 . S
C120 C122 1.383 . S
C120 H136 0.951 . S
C121 C120 1.386 . S
C121 C125 1.383 . S
C122 C120 1.383 . S
C122 C123 1.402 1_565 S
C122 H137 0.951 1_565 S
C123 C122 1.402 1_545 S
C123 C124 1.375 1_545 S
C123 C126 1.481 . S
C124 C123 1.375 1_565 S
C124 C125 1.367 . S
C124 H138 0.951 1_565 S
C125 C121 1.383 . S
C125 C124 1.367 . S
C125 H139 0.950 . S
C126 C123 1.481 . S
C126 C127 1.297 . S
C126 H140 0.950 . S
C127 C126 1.297 . S
C127 C128 1.479 . S
C127 H141 0.950 . S
C128 C127 1.479 . S
C128 C129 1.375 . S
C128 C134 1.404 . S
C129 C128 1.375 . S
C129 C130 1.369 . S
C129 H142 0.950 . S
C130 C129 1.369 . S
C130 C131 1.392 . S
C130 H143 0.951 . S
C131 C130 1.392 . S
C131 C133 1.384 . S
H132 C134 0.949 . S
C133 C131 1.384 . S
C133 C134 1.385 . S
C133 H135 0.950 . S
C134 C128 1.404 . S
C134 H132 0.949 . S
C134 C133 1.385 . S
H135 C133 0.950 . S
H136 C120 0.951 . S
H137 C122 0.951 1_545 S
H138 C124 0.951 1_545 S
H139 C125 0.950 . S
H140 C126 0.950 . S
H141 C127 0.950 . S
H142 C129 0.950 . S
H143 C130 0.951 . S
C144 C145 1.386 1_565 S
C144 C146 1.383 . S
C144 H160 0.951 . S
C145 C144 1.386 1_545 S
C145 C149 1.383 . S
C146 C144 1.383 . S
C146 C147 1.402 1_565 S
C146 H161 0.951 . S
C147 C146 1.402 1_545 S
C147 C148 1.375 . S
C147 C150 1.481 . S
C148 C147 1.375 . S
C148 C149 1.367 . S
C148 H162 0.951 . S
C149 C145 1.383 . S
C149 C148 1.367 . S
C149 H163 0.950 . S
C150 C147 1.481 . S
C150 C151 1.297 1_455 S
C150 H164 0.950 . S
C151 C150 1.297 1_655 S
C151 C152 1.479 . S
C151 H165 0.950 1_545 S
C152 C151 1.479 . S
C152 C153 1.375 1_545 S
C152 C158 1.404 . S
C153 C152 1.375 1_565 S
C153 C154 1.369 . S
C153 H166 0.950 . S
C154 C153 1.369 . S
C154 C155 1.392 1_565 S
C154 H167 0.951 . S
C155 C154 1.392 1_545 S
C155 C157 1.384 . S
H156 C158 0.949 . S
C157 C155 1.384 . S
C157 C158 1.385 . S
C157 H159 0.950 . S
C158 C152 1.404 . S
C158 H156 0.949 . S
C158 C157 1.385 . S
H159 C157 0.950 . S
H160 C144 0.951 . S
H161 C146 0.951 . S
H162 C148 0.951 . S
H163 C149 0.950 . S
H164 C150 0.950 . S
H165 C151 0.950 1_565 S
H166 C153 0.950 . S
H167 C154 0.951 . S
C168 C169 1.386 . S
C168 C170 1.383 . S
C168 H184 0.951 . S
C169 C168 1.386 . S
C169 C173 1.383 . S
C170 C168 1.383 . S
C170 C171 1.402 1_565 S
C170 H185 0.951 1_565 S
C171 C170 1.402 1_545 S
C171 C172 1.375 1_545 S
C171 C174 1.481 . S
C172 C171 1.375 1_565 S
C172 C173 1.367 . S
C172 H186 0.951 . S
C173 C169 1.383 . S
C173 C172 1.367 . S
C173 H187 0.950 . S
C174 C171 1.481 . S
C174 C175 1.297 1_655 S
C174 H188 0.950 . S
C175 C174 1.297 1_455 S
C175 C176 1.479 . S
C175 H189 0.951 1_455 S
C176 C175 1.479 . S
C176 C177 1.375 . S
C176 C182 1.404 . S
C177 C176 1.375 . S
C177 C178 1.369 . S
C177 H190 0.950 . S
C178 C177 1.369 . S
C178 C179 1.392 . S
C178 H191 0.951 . S
C179 C178 1.392 . S
C179 C181 1.384 . S
H180 C182 0.949 . S
C181 C179 1.384 . S
C181 C182 1.385 . S
C181 H183 0.950 . S
C182 C176 1.404 . S
C182 H180 0.949 . S
C182 C181 1.385 . S
H183 C181 0.950 . S
H184 C168 0.951 . S
H185 C170 0.951 1_545 S
H186 C172 0.951 . S
H187 C173 0.950 . S
H188 C174 0.950 . S
H189 C175 0.951 1_655 S
H190 C177 0.950 . S
H191 C178 0.951 . S
C192 C193 1.386 . S
C192 C194 1.383 . S
C192 H208 0.951 . S
C193 C192 1.386 . S
C193 C197 1.383 . S
C194 C192 1.383 . S
C194 C195 1.402 . S
C194 H209 0.951 . S
C195 C194 1.402 . S
C195 C196 1.375 . S
C195 C198 1.481 . S
C196 C195 1.375 . S
C196 C197 1.367 . S
C196 H210 0.951 . S
C197 C193 1.383 . S
C197 C196 1.367 . S
C197 H211 0.950 . S
C198 C195 1.481 . S
C198 C199 1.297 . S
C198 H212 0.950 . S
C199 C198 1.297 . S
C199 C200 1.479 . S
C199 H213 0.950 . S
C200 C199 1.479 . S
C200 C201 1.375 1_556 S
C200 C206 1.404 . S
C201 C200 1.375 1_554 S
C201 C202 1.369 . S
C201 H214 0.959 . S
C202 C201 1.369 . S
C202 C203 1.392 . S
C202 H215 0.951 . S
C203 C202 1.392 . S
C203 C205 1.384 . S
H204 C206 0.949 . S
C205 C203 1.384 . S
C205 C206 1.385 1_554 S
C205 H207 0.950 . S
C206 C200 1.404 . S
C206 H204 0.949 . S
C206 C205 1.385 1_556 S
H207 C205 0.950 . S
H208 C192 0.951 . S
H209 C194 0.951 . S
H210 C196 0.951 . S
H211 C197 0.950 . S
H212 C198 0.950 . S
H213 C199 0.950 . S
H214 C201 0.959 . S
H215 C202 0.951 . S
C216 C217 1.386 . S
C216 C218 1.383 . S
C216 H232 0.951 . S
C217 C216 1.386 . S
C217 C221 1.383 . S
C218 C216 1.383 . S
C218 C219 1.402 . S
C218 H233 0.951 . S
C219 C218 1.402 . S
C219 C220 1.375 . S
C219 C222 1.481 . S
C220 C219 1.375 . S
C220 C221 1.367 . S
C220 H234 0.951 . S
C221 C217 1.383 . S
C221 C220 1.367 . S
C221 H235 0.950 . S
C222 C219 1.481 . S
C222 C223 1.297 . S
C222 H236 0.950 . S
C223 C222 1.297 . S
C223 C224 1.479 . S
C223 H237 0.950 . S
C224 C223 1.479 . S
C224 C225 1.375 . S
C224 C230 1.404 . S
C225 C224 1.375 . S
C225 C226 1.369 . S
C225 H238 0.950 . S
C226 C225 1.369 . S
C226 C227 1.392 . S
C226 H239 0.951 . S
C227 C226 1.392 . S
C227 C229 1.384 . S
H228 C230 0.949 . S
C229 C227 1.384 . S
C229 C230 1.385 . S
C229 H231 0.950 . S
C230 C224 1.404 . S
C230 H228 0.949 . S
C230 C229 1.385 . S
H231 C229 0.950 . S
H232 C216 0.951 . S
H233 C218 0.951 . S
H234 C220 0.951 . S
H235 C221 0.950 . S
H236 C222 0.950 . S
H237 C223 0.950 . S
H238 C225 0.950 . S
H239 C226 0.951 . S
C240 C241 1.386 . S
C240 C242 1.383 . S
C240 H256 0.951 . S
C241 C240 1.386 . S
C241 C245 1.383 . S
C242 C240 1.383 . S
C242 C243 1.402 . S
C242 H257 0.951 . S
C243 C242 1.402 . S
C243 C244 1.375 . S
C243 C246 1.481 . S
C244 C243 1.375 . S
C244 C245 1.367 . S
C244 H258 0.951 . S
C245 C241 1.383 . S
C245 C244 1.367 . S
C245 H259 0.950 . S
C246 C243 1.481 . S
C246 C247 1.297 . S
C246 H260 0.950 . S
C247 C246 1.297 . S
C247 C248 1.479 . S
C247 H261 0.950 . S
C248 C247 1.479 . S
C248 C249 1.375 . S
C248 C254 1.404 . S
C249 C248 1.375 . S
C249 C250 1.369 . S
C249 H262 0.950 . S
C250 C249 1.369 . S
C250 C251 1.392 . S
C250 H263 0.951 . S
C251 C250 1.392 . S
C251 C253 1.384 . S
H252 C254 0.949 . S
C253 C251 1.384 . S
C253 C254 1.385 . S
C253 H255 0.950 . S
C254 C248 1.404 . S
C254 H252 0.949 . S
C254 C253 1.385 . S
H255 C253 0.950 . S
H256 C240 0.951 . S
H257 C242 0.951 . S
H258 C244 0.951 . S
H259 C245 0.950 . S
H260 C246 0.950 . S
H261 C247 0.950 . S
H262 C249 0.950 . S
H263 C250 0.951 . S
C264 C265 1.386 . S
C264 C266 1.383 1_556 S
C264 H280 0.951 . S
C265 C264 1.386 . S
C265 C269 1.383 . S
C266 C264 1.383 1_554 S
C266 C267 1.402 . S
C266 H281 0.951 . S
C267 C266 1.402 . S
C267 C268 1.375 . S
C267 C270 1.481 . S
C268 C267 1.375 . S
C268 C269 1.367 1_554 S
C268 H282 0.951 . S
C269 C265 1.383 . S
C269 C268 1.367 1_556 S
C269 H283 0.950 . S
C270 C267 1.481 . S
C270 C271 1.297 . S
C270 H284 0.950 . S
C271 C270 1.297 . S
C271 C272 1.479 . S
C271 H285 0.950 . S
C272 C271 1.479 . S
C272 C273 1.375 . S
C272 C278 1.404 . S
C273 C272 1.375 . S
C273 C274 1.369 . S
C273 H286 0.950 . S
C274 C273 1.369 . S
C274 C275 1.392 . S
C274 H287 0.951 . S
C275 C274 1.392 . S
C275 C277 1.384 . S
H276 C278 0.949 . S
C277 C275 1.384 . S
C277 C278 1.385 . S
C277 H279 0.950 . S
C278 C272 1.404 . S
C278 H276 0.949 . S
C278 C277 1.385 . S
H279 C277 0.950 . S
H280 C264 0.951 . S
H281 C266 0.951 . S
H282 C268 0.951 . S
H283 C269 0.950 . S
H284 C270 0.950 . S
H285 C271 0.950 . S
H286 C273 0.950 . S
H287 C274 0.951 . S
C288 C289 1.386 . S
C288 C290 1.383 . S
C288 H304 0.951 . S
C289 C288 1.386 . S
C289 C293 1.383 . S
C290 C288 1.383 . S
C290 C291 1.402 . S
C290 H305 0.951 . S
C291 C290 1.402 . S
C291 C292 1.375 . S
C291 C294 1.481 . S
C292 C291 1.375 . S
C292 C293 1.367 . S
C292 H306 0.951 . S
C293 C289 1.383 . S
C293 C292 1.367 . S
C293 H307 0.950 . S
C294 C291 1.481 . S
C294 C295 1.297 . S
C294 H308 0.950 . S
C295 C294 1.297 . S
C295 C296 1.479 . S
C295 H309 0.950 . S
C296 C295 1.479 . S
C296 C297 1.375 . S
C296 C302 1.404 . S
C297 C296 1.375 . S
C297 C298 1.369 . S
C297 H310 0.950 . S
C298 C297 1.369 . S
C298 C299 1.392 . S
C298 H311 0.951 . S
C299 C298 1.392 . S
C299 C301 1.384 . S
H300 C302 0.949 . S
C301 C299 1.384 . S
C301 C302 1.385 . S
C301 H303 0.950 . S
C302 C296 1.404 . S
C302 H300 0.949 . S
C302 C301 1.385 . S
H303 C301 0.950 . S
H304 C288 0.951 . S
H305 C290 0.951 . S
H306 C292 0.951 . S
H307 C293 0.950 . S
H308 C294 0.950 . S
H309 C295 0.950 . S
H310 C297 0.950 . S
H311 C298 0.951 . S
C312 C313 1.386 . S
C312 C314 1.383 . S
C312 H328 0.951 . S
C313 C312 1.386 . S
C313 C317 1.383 . S
C314 C312 1.383 . S
C314 C315 1.402 . S
C314 H329 0.951 . S
C315 C314 1.402 . S
C315 C316 1.375 . S
C315 C318 1.481 . S
C316 C315 1.375 . S
C316 C317 1.367 . S
C316 H330 0.951 . S
C317 C313 1.383 . S
C317 C316 1.367 . S
C317 H331 0.950 . S
C318 C315 1.481 . S
C318 C319 1.297 . S
C318 H332 0.950 . S
C319 C318 1.297 . S
C319 C320 1.479 . S
C319 H333 0.950 . S
C320 C319 1.479 . S
C320 C321 1.375 . S
C320 C326 1.404 . S
C321 C320 1.375 . S
C321 C322 1.369 . S
C321 H334 0.950 . S
C322 C321 1.369 . S
C322 C323 1.392 . S
C322 H335 0.951 . S
C323 C322 1.392 . S
C323 C325 1.384 . S
H324 C326 0.949 . S
C325 C323 1.384 . S
C325 C326 1.385 . S
C325 H327 0.950 . S
C326 C320 1.404 . S
C326 H324 0.949 . S
C326 C325 1.385 . S
H327 C325 0.950 . S
H328 C312 0.951 . S
H329 C314 0.951 . S
H330 C316 0.951 . S
H331 C317 0.950 . S
H332 C318 0.950 . S
H333 C319 0.950 . S
H334 C321 0.950 . S
H335 C322 0.951 . S
C121 C23 1.466 . S
C131 C2 1.416 . S
C145 C42 1.453 1_545 S
C155 C63 1.383 . S
C169 C82 1.427 . S
C179 C103 1.406 . S
C193 C111 1.096 . S
C203 C4 1.114 . S
C217 C60 1.484 . S
C227 C25 1.431 . S
C241 C84 1.045 . S
C251 C71 1.063 . S
C265 C105 1.483 . S
C275 C20 1.486 . S
C289 C31 1.069 . S
C299 C44 1.036 . S
C313 C100 1.484 . S
C323 C65 1.473 . S
