# Generated by pormake.
# Topology lig, (3)-cn, num edge types: 1
# Building blocks:
#     Node 0, Type 0, BuildingBlock: WUSLED_clean_sbu_0, # of connection points: 3
#     Node 1, Type 0, BuildingBlock: WUSLED_clean_sbu_0, # of connection points: 3
#     Node 2, Type 0, BuildingBlock: WUSLED_clean_sbu_0, # of connection points: 3
#     Node 3, Type 0, BuildingBlock: WUSLED_clean_sbu_0, # of connection points: 3
#     Node 4, Type 0, BuildingBlock: WUSLED_clean_sbu_0, # of connection points: 3
#     Node 5, Type 0, BuildingBlock: WUSLED_clean_sbu_0, # of connection points: 3
#     Node 6, Type 0, BuildingBlock: WUSLED_clean_sbu_0, # of connection points: 3
#     Node 7, Type 0, BuildingBlock: WUSLED_clean_sbu_0, # of connection points: 3
#     Node 8, Type 0, BuildingBlock: WUSLED_clean_sbu_0, # of connection points: 3
#     Node 9, Type 0, BuildingBlock: WUSLED_clean_sbu_0, # of connection points: 3
#     Node 10, Type 0, BuildingBlock: WUSLED_clean_sbu_0, # of connection points: 3
#     Node 11, Type 0, BuildingBlock: WUSLED_clean_sbu_0, # of connection points: 3
#     Node 12, Type 0, BuildingBlock: WUSLED_clean_sbu_0, # of connection points: 3
#     Node 13, Type 0, BuildingBlock: WUSLED_clean_sbu_0, # of connection points: 3
#     Node 14, Type 0, BuildingBlock: WUSLED_clean_sbu_0, # of connection points: 3
#     Node 15, Type 0, BuildingBlock: WUSLED_clean_sbu_0, # of connection points: 3
#     Edge 16, Type (0, 0), BuildingBlock: TEMPAE_clean_linker_10, # of connection points: 2
#     Edge 17, Type (0, 0), BuildingBlock: TEMPAE_clean_linker_10, # of connection points: 2
#     Edge 18, Type (0, 0), BuildingBlock: TEMPAE_clean_linker_10, # of connection points: 2
#     Edge 19, Type (0, 0), BuildingBlock: TEMPAE_clean_linker_10, # of connection points: 2
#     Edge 20, Type (0, 0), BuildingBlock: TEMPAE_clean_linker_10, # of connection points: 2
#     Edge 21, Type (0, 0), BuildingBlock: TEMPAE_clean_linker_10, # of connection points: 2
#     Edge 22, Type (0, 0), BuildingBlock: TEMPAE_clean_linker_10, # of connection points: 2
#     Edge 23, Type (0, 0), BuildingBlock: TEMPAE_clean_linker_10, # of connection points: 2
#     Edge 24, Type (0, 0), BuildingBlock: TEMPAE_clean_linker_10, # of connection points: 2
#     Edge 25, Type (0, 0), BuildingBlock: TEMPAE_clean_linker_10, # of connection points: 2
#     Edge 26, Type (0, 0), BuildingBlock: TEMPAE_clean_linker_10, # of connection points: 2
#     Edge 27, Type (0, 0), BuildingBlock: TEMPAE_clean_linker_10, # of connection points: 2
#     Edge 28, Type (0, 0), BuildingBlock: TEMPAE_clean_linker_10, # of connection points: 2
#     Edge 29, Type (0, 0), BuildingBlock: TEMPAE_clean_linker_10, # of connection points: 2
#     Edge 30, Type (0, 0), BuildingBlock: TEMPAE_clean_linker_10, # of connection points: 2
#     Edge 31, Type (0, 0), BuildingBlock: TEMPAE_clean_linker_10, # of connection points: 2
#     Edge 32, Type (0, 0), BuildingBlock: TEMPAE_clean_linker_10, # of connection points: 2
#     Edge 33, Type (0, 0), BuildingBlock: TEMPAE_clean_linker_10, # of connection points: 2
#     Edge 34, Type (0, 0), BuildingBlock: TEMPAE_clean_linker_10, # of connection points: 2
#     Edge 35, Type (0, 0), BuildingBlock: TEMPAE_clean_linker_10, # of connection points: 2
#     Edge 36, Type (0, 0), BuildingBlock: TEMPAE_clean_linker_10, # of connection points: 2
#     Edge 37, Type (0, 0), BuildingBlock: TEMPAE_clean_linker_10, # of connection points: 2
#     Edge 38, Type (0, 0), BuildingBlock: TEMPAE_clean_linker_10, # of connection points: 2
#     Edge 39, Type (0, 0), BuildingBlock: TEMPAE_clean_linker_10, # of connection points: 2
# Relax obj value: 0.000
# Max RMSD: 0.008
# Mean RMSD: 0.006
data_MOF--net-lig--node1-WUSLED_clean_sbu_0--edge1-TEMPAE_clean_linker_10
_symmetry_space_group_name_H-M    P1
_symmetry_Int_Tables_number       1
_symmetry_cell_setting            triclinic
loop_
_symmetry_equiv_pos_as_xyz
'x, y, z'
_cell_length_a     92.472623
_cell_length_b     93.432933
_cell_length_c     66.340047
_cell_angle_alpha  88.422277
_cell_angle_beta   89.982042
_cell_angle_gamma 90.647779
loop_
_atom_site_label
_atom_site_type_symbol
_atom_site_fract_x
_atom_site_fract_y
_atom_site_fract_z
_atom_type_partial_charge
C0 C 0.09856 1.0154 0.03882 0.0
C1 C 0.09189 0.02887 0.03846 0.0
C2 C 0.06813 0.01762 0.03414 0.0
C3 C 0.07685 0.02996 0.03617 0.0
C4 C 0.0749 1.0042 0.03407 0.0
C5 C 0.0899 1.00312 0.03644 0.0
U6 U 0.13962 0.02214 0.02905 0.0
O7 O 0.1571 0.02543 0.05102 0.0
O8 O 0.15751 1.00678 0.03166 0.0
C9 C 0.16343 1.0133 0.04698 0.0
C10 C 0.11422 1.01369 0.04317 0.0
C11 C 0.16807 1.00406 0.06437 0.0
C12 C 0.17101 0.99952 0.10056 0.0
C13 C 0.16535 1.00774 0.08445 0.0
C14 C 0.18197 0.98364 0.07692 0.0
C15 C 0.1795 0.98742 0.09701 0.0
C16 C 0.17638 0.99189 0.06084 0.0
C17 C 0.15175 0.04684 0.98378 0.0
C18 C 0.174 0.04743 0.964 0.0
C19 C 0.15798 0.06773 0.96264 0.0
C20 C 0.14861 0.06063 0.97623 0.0
C21 C 0.17076 0.06121 0.95619 0.0
C22 C 0.16461 0.04033 0.97769 0.0
C23 C 0.141 0.03935 0.99698 0.0
O24 O 0.1217 1.00634 0.03024 0.0
O25 O 0.12132 0.02491 0.04975 0.0
O26 O 0.13981 0.04397 1.01544 0.0
O27 O 0.14027 0.02532 0.99607 0.0
H28 H 0.09823 0.03857 0.04027 0.0
H29 H 0.07203 0.04047 0.03607 0.0
H30 H 0.06855 0.99445 0.03282 0.0
H31 H 0.09472 0.9926 0.03687 0.0
H32 H 0.16874 1.00266 0.11582 0.0
H33 H 0.15905 0.01708 0.08777 0.0
H34 H 0.18861 0.97453 0.07357 0.0
H35 H 0.17883 0.98889 0.04556 0.0
H36 H 0.18382 0.04214 0.95954 0.0
H37 H 0.15499 0.07821 0.95676 0.0
H38 H 0.13871 0.06583 0.98058 0.0
H39 H 0.16732 0.0297 0.98332 0.0
C40 C 0.27141 0.85609 0.29191 0.0
C41 C 0.25826 0.85024 0.28518 0.0
C42 C 0.26844 0.82617 0.28652 0.0
C43 C 0.25679 0.83543 0.28252 0.0
C44 C 0.28166 0.83218 0.29284 0.0
C45 C 0.2831 0.84693 0.29552 0.0
U46 U 0.26502 0.89667 0.2817 0.0
O47 O 0.26138 0.91363 0.30346 0.0
O48 O 0.28063 0.91461 0.28412 0.0
C49 C 0.27371 0.9202 0.29927 0.0
C50 C 0.27317 0.8715 0.29614 0.0
C51 C 0.28266 0.9249 0.31655 0.0
C52 C 0.28714 0.9265 0.35269 0.0
C53 C 0.2794 0.9207 0.33659 0.0
C54 C 0.30178 0.94051 0.32906 0.0
C55 C 0.29834 0.93662 0.34915 0.0
C56 C 0.29402 0.93476 0.313 0.0
C57 C 0.24117 0.90911 0.23633 0.0
C58 C 0.24175 0.93079 0.215 0.0
C59 C 0.22015 0.91593 0.21627 0.0
C60 C 0.22691 0.90656 0.23003 0.0
C61 C 0.22752 0.9281 0.20837 0.0
C62 C 0.2485 0.92141 0.22886 0.0
C63 C 0.2483 0.89829 0.24961 0.0
O64 O 0.28087 0.87919 0.2831 0.0
O65 O 0.26166 0.87819 0.30252 0.0
O66 O 0.24324 0.89676 0.26808 0.0
O67 O 0.26249 0.89767 0.24872 0.0
H68 H 0.24906 0.85707 0.28227 0.0
H69 H 0.24642 0.83121 0.27778 0.0
H70 H 0.29095 0.82547 0.2957 0.0
H71 H 0.29336 0.85119 0.30066 0.0
H72 H 0.2843 0.92312 0.36794 0.0
H73 H 0.2707 0.91313 0.3399 0.0
H74 H 0.31019 0.94839 0.32572 0.0
H75 H 0.29666 0.93831 0.29774 0.0
H76 H 0.24769 0.94014 0.20944 0.0
H77 H 0.20927 0.9134 0.21136 0.0
H78 H 0.22106 0.8971 0.23546 0.0
H79 H 0.2595 0.92369 0.23349 0.0
C80 C 0.35796 1.00722 0.4939 0.0
C81 C 0.365 0.9948 0.48781 0.0
C82 C 0.34678 0.99111 0.46166 0.0
C83 C 0.35943 0.9868 0.47188 0.0
C84 C 0.3399 1.00364 0.46774 0.0
C85 C 0.34542 1.01157 0.48366 0.0
U86 U 0.38754 0.02394 0.52773 0.0
O87 O 0.38807 0.04539 0.54087 0.0
O88 O 0.3878 0.02619 0.56068 0.0
C89 C 0.38721 0.04025 0.55948 0.0
C90 C 0.36308 0.01563 0.51117 0.0
C91 C 0.37679 0.04728 0.57291 0.0
C92 C 0.35507 0.04703 0.59379 0.0
C93 C 0.36417 0.04032 0.58007 0.0
C94 C 0.37089 0.06784 0.59305 0.0
C95 C 0.35836 0.06086 0.60057 0.0
C96 C 0.37998 0.06112 0.57943 0.0
C97 C 0.42808 0.01804 0.51458 0.0
C98 C 0.4496 0.02001 0.53563 0.0
C99 C 0.45205 0.01873 0.4994 0.0
C100 C 0.437 0.01795 0.4975 0.0
C101 C 0.4586 0.01959 0.51849 0.0
C102 C 0.43447 0.01922 0.53369 0.0
C103 C 0.41228 0.01627 0.51184 0.0
O104 O 0.36941 1.00854 0.52605 0.0
O105 O 0.36949 0.02793 0.50664 0.0
O106 O 0.40519 0.0277 0.50576 0.0
O107 O 0.40527 1.00853 0.52561 0.0
H108 H 0.37473 0.99123 0.4954 0.0
H109 H 0.3651 0.9773 0.46748 0.0
H110 H 0.33004 1.00719 0.46046 0.0
H111 H 0.33976 0.02106 0.48815 0.0
H112 H 0.34543 0.04139 0.59907 0.0
H113 H 0.36141 0.02965 0.57524 0.0
H114 H 0.3739 0.07839 0.5981 0.0
H115 H 0.38969 0.06668 0.57422 0.0
H116 H 0.45424 0.02059 0.55057 0.0
H117 H 0.45858 0.01867 0.48584 0.0
H118 H 0.43232 0.0171 0.48261 0.0
H119 H 0.42781 0.01933 0.54712 0.0
C120 C 0.2734 0.1892 0.76624 0.0
C121 C 0.25996 0.19492 0.77153 0.0
C122 C 0.27054 0.21904 0.77193 0.0
C123 C 0.25855 0.20969 0.77433 0.0
C124 C 0.28401 0.21316 0.76704 0.0
C125 C 0.28539 0.19845 0.76419 0.0
U126 U 0.26654 0.14855 0.77606 0.0
O127 O 0.26295 0.13156 0.7542 0.0
O128 O 0.2819 0.13074 0.77405 0.0
C129 C 0.27514 0.1251 0.75869 0.0
C130 C 0.27515 0.17383 0.76189 0.0
C131 C 0.2843 0.12048 0.74165 0.0
C132 C 0.28874 0.11795 0.70563 0.0
C133 C 0.28069 0.12364 0.7214 0.0
C134 C 0.30432 0.10607 0.72995 0.0
C135 C 0.30059 0.10898 0.70969 0.0
C136 C 0.29625 0.11171 0.74568 0.0
C137 C 0.24177 0.13622 0.82094 0.0
C138 C 0.24113 0.11407 0.84128 0.0
C139 C 0.22073 0.13006 0.84162 0.0
C140 C 0.2279 0.13937 0.82799 0.0
C141 C 0.22727 0.11733 0.84861 0.0
C142 C 0.2483 0.1234 0.82755 0.0
C143 C 0.24936 0.14692 0.80772 0.0
O144 O 0.28261 0.1662 0.77509 0.0
O145 O 0.26372 0.16698 0.75512 0.0
O146 O 0.24458 0.14835 0.78913 0.0
O147 O 0.26354 0.1475 0.80898 0.0
H148 H 0.25052 0.18804 0.77323 0.0
H149 H 0.24799 0.2138 0.77791 0.0
H150 H 0.29355 0.21993 0.76544 0.0
H151 H 0.29587 0.19429 0.76017 0.0
H152 H 0.28565 0.12055 0.69023 0.0
H153 H 0.27151 0.13031 0.7177 0.0
H154 H 0.31323 0.09907 0.73369 0.0
H155 H 0.29918 0.10892 0.7611 0.0
H156 H 0.24642 0.10429 0.84615 0.0
H157 H 0.21019 0.13306 0.84712 0.0
H158 H 0.2227 0.14923 0.82324 0.0
H159 H 0.259 0.12069 0.82232 0.0
C160 C 0.85725 1.00749 0.06324 0.0
C161 C 0.86457 0.99539 0.07081 0.0
C162 C 0.84538 0.99071 0.0956 0.0
C163 C 0.85869 0.98709 0.08684 0.0
C164 C 0.8383 1.00304 0.08819 0.0
C165 C 0.84416 1.01129 0.0722 0.0
U166 U 0.88719 0.02345 0.02798 0.0
O167 O 0.88704 0.026 0.99491 0.0
O168 O 0.88845 0.045 1.01356 0.0
C169 C 0.88714 0.04007 0.99528 0.0
C170 C 0.86261 0.01604 0.04562 0.0
C171 C 0.87689 0.04764 0.98168 0.0
C172 C 0.85427 0.04893 0.96285 0.0
C173 C 0.86328 0.04183 0.97683 0.0
C174 C 0.87221 0.06784 0.95874 0.0
C175 C 0.85869 0.06197 0.95344 0.0
C176 C 0.88118 0.06075 0.97265 0.0
C177 C 0.92767 1.01549 0.03901 0.0
C178 C 0.94993 0.02945 0.0342 0.0
C179 C 0.95096 1.00363 0.03745 0.0
C180 C 0.93589 1.00296 0.03943 0.0
C181 C 0.95824 0.01689 0.03513 0.0
C182 C 0.93482 0.02876 0.03613 0.0
C183 C 0.91189 1.01438 0.04303 0.0
O184 O 0.86975 0.02788 0.04956 0.0
O185 O 0.86837 1.00891 0.03086 0.0
O186 O 0.90415 1.00704 0.0302 0.0
O187 O 0.9054 0.02598 0.04897 0.0
H188 H 0.87471 0.99224 0.06414 0.0
H189 H 0.8644 0.97763 0.09202 0.0
H190 H 0.82819 1.00634 0.09476 0.0
H191 H 0.83835 0.02061 0.06666 0.0
H192 H 0.84399 0.04404 0.95907 0.0
H193 H 0.8597 0.03171 0.9836 0.0
H194 H 0.87588 0.07798 0.95216 0.0
H195 H 0.8916 0.06545 0.97619 0.0
H196 H 0.95514 0.03986 0.03259 0.0
H197 H 0.95692 0.99371 0.03786 0.0
H198 H 0.93066 0.9926 0.04164 0.0
H199 H 0.92879 0.03863 0.03577 0.0
C200 C 0.75818 0.18878 0.7621 0.0
C201 C 0.75913 0.1941 0.78168 0.0
C202 C 0.76128 0.21862 0.76802 0.0
C203 C 0.76063 0.20887 0.7846 0.0
C204 C 0.76054 0.21318 0.74847 0.0
C205 C 0.75899 0.19845 0.74557 0.0
U206 U 0.76268 0.14833 0.77469 0.0
O207 O 0.74656 0.13082 0.77287 0.0
O208 O 0.7661 0.1306 0.7541 0.0
C209 C 0.75357 0.12445 0.75846 0.0
C210 C 0.7558 0.17337 0.75843 0.0
C211 C 0.74478 0.11927 0.74141 0.0
C212 C 0.7382 0.11929 0.70578 0.0
C213 C 0.74598 0.12523 0.72177 0.0
C214 C 0.7277 0.10157 0.72888 0.0
C215 C 0.72907 0.10726 0.70909 0.0
C216 C 0.73547 0.10749 0.74478 0.0
C217 C 0.78496 0.13654 0.822 0.0
C218 C 0.80083 0.11644 0.82981 0.0
C219 C 0.78982 0.12929 0.8569 0.0
C220 C 0.7829 0.13825 0.84276 0.0
C221 C 0.79907 0.1184 0.85066 0.0
C222 C 0.79386 0.12542 0.81564 0.0
C223 C 0.77857 0.14715 0.80762 0.0
O224 O 0.76718 0.16613 0.75294 0.0
O225 O 0.74753 0.16624 0.77145 0.0
O226 O 0.76441 0.14828 0.80788 0.0
O227 O 0.78404 0.14799 0.78931 0.0
H228 H 0.7586 0.18686 0.7947 0.0
H229 H 0.76135 0.21265 0.79986 0.0
H230 H 0.76083 0.22034 0.73535 0.0
H231 H 0.75821 0.19461 0.73034 0.0
H232 H 0.73961 0.12391 0.69075 0.0
H233 H 0.7531 0.13432 0.71872 0.0
H234 H 0.72059 0.09251 0.73213 0.0
H235 H 0.73434 0.1027 0.75977 0.0
H236 H 0.80795 0.10827 0.8244 0.0
H237 H 0.78799 0.13097 0.87278 0.0
H238 H 0.77612 0.14675 0.84809 0.0
H239 H 0.7957 0.12383 0.79973 0.0
C240 C 0.59877 0.01809 0.51476 0.0
C241 C 0.59242 0.01785 0.53403 0.0
C242 C 0.56839 0.02075 0.51916 0.0
C243 C 0.57739 0.01914 0.5362 0.0
C244 C 0.57487 0.02124 0.49994 0.0
C245 C 0.58985 0.01991 0.4978 0.0
U246 U 0.63957 0.02308 0.52715 0.0
O247 O 0.65695 1.00709 0.52636 0.0
O248 O 0.65787 0.02608 0.50619 0.0
C249 C 0.6636 1.01365 0.51115 0.0
C250 C 0.61443 0.01573 0.51168 0.0
C251 C 0.66834 1.00454 0.49441 0.0
C252 C 0.66992 0.99934 0.45862 0.0
C253 C 0.66423 1.00737 0.47428 0.0
C254 C 0.68361 0.98527 0.4829 0.0
C255 C 0.6798 0.98827 0.46269 0.0
C256 C 0.67799 0.99334 0.49852 0.0
C257 C 0.65062 0.04708 0.57192 0.0
C258 C 0.67386 0.04869 0.58913 0.0
C259 C 0.65507 0.06565 0.59626 0.0
C260 C 0.64597 0.05901 0.58241 0.0
C261 C 0.66908 0.06051 0.60001 0.0
C262 C 0.6647 0.04202 0.57522 0.0
C263 C 0.64031 0.03997 0.5583 0.0
O264 O 0.62209 0.02682 0.50504 0.0
O265 O 0.62117 1.00801 0.52556 0.0
O266 O 0.63927 0.02594 0.55998 0.0
O267 O 0.64005 0.04477 0.5395 0.0
H268 H 0.59905 0.01651 0.5474 0.0
H269 H 0.5728 0.01887 0.55123 0.0
H270 H 0.56832 0.02226 0.48646 0.0
H271 H 0.59447 0.02003 0.48277 0.0
H272 H 0.6666 1.00184 0.44328 0.0
H273 H 0.6568 0.01592 0.47056 0.0
H274 H 0.69131 0.97696 0.48662 0.0
H275 H 0.68144 0.991 0.51385 0.0
H276 H 0.68454 0.04438 0.59171 0.0
H277 H 0.65109 0.07486 0.60404 0.0
H278 H 0.63518 0.06313 0.58004 0.0
H279 H 0.66852 0.03282 0.56729 0.0
C280 C 0.75862 0.8567 0.29496 0.0
C281 C 0.75797 0.85135 0.27537 0.0
C282 C 0.76158 0.82696 0.28862 0.0
C283 C 0.75939 0.83663 0.27225 0.0
C284 C 0.76241 0.83243 0.30815 0.0
C285 C 0.76092 0.84711 0.31126 0.0
U286 U 0.763 0.89729 0.2826 0.0
O287 O 0.74734 0.9146 0.28625 0.0
O288 O 0.76771 0.91491 0.30319 0.0
C289 C 0.75511 0.92094 0.30009 0.0
C290 C 0.75648 0.87205 0.29899 0.0
C291 C 0.74735 0.92585 0.31816 0.0
C292 C 0.72698 0.92487 0.34155 0.0
C293 C 0.73453 0.91922 0.32526 0.0
C294 C 0.74507 0.94364 0.3441 0.0
C295 C 0.7321 0.93723 0.35112 0.0
C296 C 0.75257 0.93802 0.32784 0.0
C297 C 0.78385 0.90961 0.23399 0.0
C298 C 0.79947 0.93015 0.22564 0.0
C299 C 0.78808 0.91699 0.19894 0.0
C300 C 0.78146 0.90783 0.21332 0.0
C301 C 0.79735 0.92816 0.20486 0.0
C302 C 0.79281 0.92098 0.24005 0.0
C303 C 0.7777 0.89886 0.24859 0.0
O304 O 0.76812 0.87942 0.30376 0.0
O305 O 0.7478 0.87915 0.28672 0.0
O306 O 0.76353 0.89773 0.24931 0.0
O307 O 0.7838 0.89786 0.26647 0.0
H308 H 0.75627 0.85852 0.26251 0.0
H309 H 0.75886 0.83282 0.25699 0.0
H310 H 0.76391 0.82532 0.32114 0.0
H311 H 0.7614 0.85096 0.3265 0.0
H312 H 0.71713 0.91955 0.34667 0.0
H313 H 0.73027 0.90979 0.3181 0.0
H314 H 0.74926 0.95327 0.35083 0.0
H315 H 0.76236 0.94339 0.32256 0.0
H316 H 0.80661 0.93856 0.23079 0.0
H317 H 0.78594 0.91527 0.18314 0.0
H318 H 0.77463 0.89915 0.20824 0.0
H319 H 0.7949 0.92262 0.25589 0.0
C320 C 0.59901 0.51475 0.53866 0.0
C321 C 0.59277 0.528 0.53342 0.0
C322 C 0.56863 0.51701 0.53381 0.0
C323 C 0.57772 0.52911 0.53106 0.0
C324 C 0.575 0.50375 0.5387 0.0
C325 C 0.58998 0.50266 0.54112 0.0
U326 U 0.63986 0.52208 0.52824 0.0
O327 O 0.65746 0.52536 0.55003 0.0
O328 O 0.65792 0.50688 0.53037 0.0
C329 C 0.6639 0.51334 0.54568 0.0
C330 C 0.61469 0.51326 0.54272 0.0
C331 C 0.66879 0.50401 0.56282 0.0
C332 C 0.67137 0.49872 0.59889 0.0
C333 C 0.66551 0.507 0.58298 0.0
C334 C 0.68367 0.48415 0.57482 0.0
C335 C 0.68068 0.48727 0.59503 0.0
C336 C 0.67784 0.49244 0.55897 0.0
C337 C 0.65163 0.54693 0.48304 0.0
C338 C 0.67356 0.5474 0.46256 0.0
C339 C 0.65805 0.56808 0.46253 0.0
C340 C 0.64872 0.56093 0.47614 0.0
C341 C 0.67054 0.56139 0.4554 0.0
C342 C 0.66422 0.54025 0.47627 0.0
C343 C 0.64092 0.5394 0.49628 0.0
O344 O 0.62213 0.50606 0.52958 0.0
O345 O 0.62164 0.52461 0.54916 0.0
O346 O 0.63982 0.54395 0.51479 0.0
O347 O 0.64018 0.52538 0.49528 0.0
H348 H 0.59948 0.5375 0.53137 0.0
H349 H 0.57322 0.53946 0.52708 0.0
H350 H 0.56837 0.49425 0.54123 0.0
H351 H 0.59452 0.49236 0.54529 0.0
H352 H 0.66892 0.50155 0.61422 0.0
H353 H 0.65864 0.5159 0.58654 0.0
H354 H 0.69056 0.47529 0.57121 0.0
H355 H 0.68063 0.48992 0.54361 0.0
H356 H 0.68316 0.54197 0.45759 0.0
H357 H 0.65525 0.57875 0.45718 0.0
H358 H 0.63904 0.56627 0.48102 0.0
H359 H 0.66676 0.52946 0.48138 0.0
C360 C 0.76982 0.35606 0.79354 0.0
C361 C 0.76726 0.35094 0.77413 0.0
C362 C 0.76765 0.3262 0.78723 0.0
C363 C 0.76619 0.33616 0.77101 0.0
C364 C 0.76997 0.33146 0.80666 0.0
C365 C 0.77106 0.3462 0.80975 0.0
U366 U 0.76375 0.39643 0.78168 0.0
O367 O 0.75922 0.41362 0.80287 0.0
O368 O 0.779 0.41453 0.78459 0.0
C369 C 0.77156 0.42029 0.79914 0.0
C370 C 0.77159 0.37151 0.79737 0.0
C371 C 0.77973 0.42532 0.81691 0.0
C372 C 0.8015 0.42632 0.83765 0.0
C373 C 0.79373 0.42049 0.82158 0.0
C374 C 0.78135 0.44166 0.84485 0.0
C375 C 0.79544 0.43707 0.84943 0.0
C376 C 0.77363 0.43588 0.82879 0.0
C377 C 0.74062 0.40799 0.73514 0.0
C378 C 0.74093 0.4298 0.71407 0.0
C379 C 0.72004 0.41399 0.71373 0.0
C380 C 0.72673 0.40486 0.72787 0.0
C381 C 0.72711 0.4265 0.70639 0.0
C382 C 0.74762 0.42064 0.72829 0.0
C383 C 0.7477 0.39745 0.74891 0.0
O384 O 0.77954 0.37903 0.7844 0.0
O385 O 0.75991 0.37823 0.80297 0.0
O386 O 0.74228 0.39604 0.76717 0.0
O387 O 0.76192 0.39708 0.74859 0.0
H388 H 0.76625 0.35836 0.76138 0.0
H389 H 0.76451 0.33253 0.75582 0.0
H390 H 0.77088 0.32419 0.81958 0.0
H391 H 0.77296 0.3499 0.82486 0.0
H392 H 0.81225 0.4224 0.84087 0.0
H393 H 0.79873 0.41234 0.81271 0.0
H394 H 0.77639 0.45004 0.85334 0.0
H395 H 0.76292 0.43988 0.82541 0.0
H396 H 0.74676 0.43927 0.70868 0.0
H397 H 0.70931 0.4112 0.7085 0.0
H398 H 0.7211 0.39518 0.73294 0.0
H399 H 0.75835 0.42334 0.73363 0.0
C400 C 0.85961 0.50544 0.99269 0.0
C401 C 0.86154 0.51008 0.97248 0.0
C402 C 0.84802 0.48931 0.96063 0.0
C403 C 0.85583 0.50211 0.95667 0.0
C404 C 0.84636 0.48455 0.98082 0.0
C405 C 0.85202 0.49254 0.99662 0.0
U406 U 0.88815 0.52292 0.02771 0.0
O407 O 0.88843 0.54454 0.04036 0.0
O408 O 0.88741 0.52556 0.06056 0.0
C409 C 0.88698 0.53961 0.05901 0.0
C410 C 0.86426 0.51442 1.0098 0.0
C411 C 0.87632 0.54691 0.07178 0.0
C412 C 0.85465 0.54679 0.09278 0.0
C413 C 0.86384 0.5399 0.07937 0.0
C414 C 0.87005 0.56789 0.09084 0.0
C415 C 0.85771 0.56085 0.09886 0.0
C416 C 0.87923 0.561 0.07752 0.0
C417 C 0.92898 0.51576 0.01817 0.0
C418 C 0.95026 0.52923 0.02877 0.0
C419 C 0.95296 0.50547 1.01572 0.0
C420 C 0.93798 0.50443 1.01311 0.0
C421 C 0.95935 0.51791 0.02348 0.0
C422 C 0.93521 0.52816 0.02617 0.0
C423 C 0.9133 0.51444 1.01405 0.0
O424 O 0.86986 0.50767 0.02555 0.0
O425 O 0.87092 0.52661 1.00534 0.0
O426 O 0.90672 0.52599 1.00721 0.0
O427 O 0.90559 0.507 0.02737 0.0
H428 H 0.86725 0.52 0.96883 0.0
H429 H 0.85746 0.50603 0.94132 0.0
H430 H 0.84027 0.47486 0.98449 0.0
H431 H 0.85016 0.48877 1.012 0.0
H432 H 0.84516 0.5411 0.09844 0.0
H433 H 0.86129 0.52904 0.07518 0.0
H434 H 0.87288 0.57862 0.09533 0.0
H435 H 0.88883 0.56659 0.07201 0.0
H436 H 0.95478 0.53891 0.03496 0.0
H437 H 0.95957 0.49663 1.01116 0.0
H438 H 0.93343 0.4948 1.0068 0.0
H439 H 0.92847 0.53704 0.03023 0.0
C440 C 0.77272 0.68967 0.26516 0.0
C441 C 0.75919 0.69543 0.26986 0.0
C442 C 0.76979 0.71952 0.27086 0.0
C443 C 0.75774 0.71019 0.27267 0.0
C444 C 0.78336 0.71361 0.26657 0.0
C445 C 0.78478 0.6989 0.26371 0.0
U446 U 0.76688 0.64886 0.27528 0.0
O447 O 0.76324 0.63176 0.25357 0.0
O448 O 0.78262 0.63144 0.27262 0.0
C449 C 0.77566 0.62559 0.2576 0.0
C450 C 0.77456 0.67432 0.26071 0.0
C451 C 0.78458 0.62107 0.24027 0.0
C452 C 0.78837 0.61826 0.20416 0.0
C453 C 0.78048 0.6239 0.22013 0.0
C454 C 0.80476 0.60709 0.22806 0.0
C455 C 0.80055 0.60967 0.20791 0.0
C456 C 0.79686 0.61267 0.24399 0.0
C457 C 0.74406 0.63568 0.32177 0.0
C458 C 0.72636 0.61664 0.32895 0.0
C459 C 0.74038 0.62647 0.35617 0.0
C460 C 0.74747 0.63575 0.3424 0.0
C461 C 0.72958 0.61691 0.3497 0.0
C462 C 0.73351 0.62591 0.31514 0.0
C463 C 0.75076 0.64668 0.30798 0.0
O464 O 0.78256 0.66683 0.27342 0.0
O465 O 0.76306 0.66726 0.25459 0.0
O466 O 0.74541 0.64807 0.28966 0.0
O467 O 0.76494 0.64782 0.30843 0.0
H468 H 0.74968 0.68858 0.27107 0.0
H469 H 0.7471 0.71433 0.27578 0.0
H470 H 0.79294 0.72036 0.26544 0.0
H471 H 0.79533 0.69474 0.26012 0.0
H472 H 0.7849 0.62061 0.18884 0.0
H473 H 0.77104 0.63027 0.21667 0.0
H474 H 0.81393 0.60037 0.23158 0.0
H475 H 0.80017 0.61012 0.25932 0.0
H476 H 0.71823 0.60931 0.32339 0.0
H477 H 0.74303 0.62713 0.37202 0.0
H478 H 0.75542 0.64327 0.34798 0.0
H479 H 0.73058 0.62558 0.29936 0.0
C480 C 0.35824 0.50665 0.56456 0.0
C481 C 0.36616 0.49525 0.57307 0.0
C482 C 0.34702 0.49043 0.59789 0.0
C483 C 0.36059 0.4872 0.58955 0.0
C484 C 0.33929 0.50202 0.58946 0.0
C485 C 0.34484 0.51001 0.573 0.0
U486 U 0.38776 0.52218 0.52837 0.0
O487 O 0.38757 0.52345 0.4951 0.0
O488 O 0.38859 0.54312 0.51238 0.0
C489 C 0.38727 0.53751 0.49449 0.0
C490 C 0.36333 0.51483 0.54646 0.0
C491 C 0.37668 0.54419 0.48044 0.0
C492 C 0.35549 0.55883 0.47351 0.0
C493 C 0.3647 0.55182 0.48729 0.0
C494 C 0.36986 0.5504 0.44585 0.0
C495 C 0.35801 0.5583 0.45259 0.0
C496 C 0.37907 0.54346 0.45961 0.0
C497 C 0.42832 0.51504 0.54022 0.0
C498 C 0.45011 0.52856 0.53072 0.0
C499 C 0.45202 0.50408 0.54322 0.0
C500 C 0.43697 0.50323 0.54522 0.0
C501 C 0.45884 0.51682 0.53623 0.0
C502 C 0.43499 0.52769 0.53271 0.0
C503 C 0.41256 0.51398 0.5441 0.0
O504 O 0.37022 0.52694 0.54966 0.0
O505 O 0.36923 0.50738 0.53214 0.0
O506 O 0.40496 0.5061 0.53177 0.0
O507 O 0.40598 0.52579 0.54901 0.0
H508 H 0.37657 0.49248 0.56686 0.0
H509 H 0.36692 0.47846 0.59579 0.0
H510 H 0.32875 0.50472 0.59525 0.0
H511 H 0.33852 0.51872 0.56662 0.0
H512 H 0.34639 0.56467 0.47923 0.0
H513 H 0.36255 0.55252 0.50328 0.0
H514 H 0.37227 0.54989 0.42991 0.0
H515 H 0.38827 0.53772 0.45395 0.0
H516 H 0.45497 0.53856 0.52539 0.0
H517 H 0.45832 0.49473 0.54723 0.0
H518 H 0.43207 0.49335 0.55099 0.0
H519 H 0.42857 0.53697 0.52873 0.0
C520 C 0.25664 0.68841 0.26621 0.0
C521 C 0.27013 0.69463 0.27079 0.0
C522 C 0.25922 0.71831 0.27213 0.0
C523 C 0.2714 0.70942 0.27366 0.0
C524 C 0.24571 0.71197 0.26792 0.0
C525 C 0.24446 0.69722 0.26495 0.0
U526 U 0.26381 0.64803 0.27606 0.0
O527 O 0.24896 0.6296 0.27334 0.0
O528 O 0.26828 0.63127 0.25416 0.0
C529 C 0.25622 0.62421 0.25833 0.0
C530 C 0.25505 0.67301 0.26169 0.0
C531 C 0.24775 0.61915 0.24089 0.0
C532 C 0.22588 0.61869 0.22032 0.0
C533 C 0.23404 0.6246 0.23597 0.0
C534 C 0.24513 0.60207 0.21399 0.0
C535 C 0.23124 0.6072 0.20929 0.0
C536 C 0.25324 0.60795 0.2296 0.0
C537 C 0.28807 0.63663 0.32151 0.0
C538 C 0.28986 0.61336 0.33884 0.0
C539 C 0.30795 0.63171 0.34464 0.0
C540 C 0.30078 0.641 0.33121 0.0
C541 C 0.30257 0.61778 0.34874 0.0
C542 C 0.28269 0.62269 0.32531 0.0
C543 C 0.28049 0.64708 0.30823 0.0
O544 O 0.26664 0.66654 0.25516 0.0
O545 O 0.24747 0.66509 0.27462 0.0
O546 O 0.26628 0.64697 0.30906 0.0
O547 O 0.28553 0.64878 0.28978 0.0
H548 H 0.27971 0.68811 0.27194 0.0
H549 H 0.28194 0.71389 0.27714 0.0
H550 H 0.23613 0.71848 0.26641 0.0
H551 H 0.23396 0.69271 0.26133 0.0
H552 H 0.21521 0.62286 0.21726 0.0
H553 H 0.22952 0.63323 0.24443 0.0
H554 H 0.24975 0.59344 0.20563 0.0
H555 H 0.26378 0.60357 0.23308 0.0
H556 H 0.28549 0.60267 0.34146 0.0
H557 H 0.31755 0.63559 0.35217 0.0
H558 H 0.30508 0.65173 0.32859 0.0
H559 H 0.27291 0.61906 0.31797 0.0
C560 C 0.09943 0.51511 0.01731 0.0
C561 C 0.09353 0.52676 0.02729 0.0
C562 C 0.06903 0.51777 0.02094 0.0
C563 C 0.07846 0.52807 0.02912 0.0
C564 C 0.0751 0.50601 1.01133 0.0
C565 C 0.09009 0.50472 1.00953 0.0
U566 U 0.14021 0.52126 0.02959 0.0
O567 O 0.15782 0.50558 0.02803 0.0
O568 O 0.15829 0.52484 1.00836 0.0
C569 C 0.16425 0.51244 1.01289 0.0
C570 C 0.11516 0.51359 1.01412 0.0
C571 C 0.16901 0.50359 0.99588 0.0
C572 C 0.17092 0.49904 0.95992 0.0
C573 C 0.16525 0.50692 0.97575 0.0
C574 C 0.18393 0.48417 0.98401 0.0
C575 C 0.18044 0.48763 0.96382 0.0
C576 C 0.17833 0.49208 0.99979 0.0
C577 C 0.152 0.54372 0.0756 0.0
C578 C 0.17034 0.56183 0.08314 0.0
C579 C 0.16095 0.54629 0.10993 0.0
C580 C 0.15199 0.53944 0.09607 0.0
C581 C 0.17012 0.55772 0.10374 0.0
C582 C 0.16138 0.55494 0.06925 0.0
C583 C 0.14131 0.53717 0.06173 0.0
O584 O 0.12239 0.52516 1.0082 0.0
O585 O 0.12213 0.50576 0.02761 0.0
O586 O 0.14003 0.52314 0.06266 0.0
O587 O 0.14057 0.5425 0.0432 0.0
H588 H 0.10055 0.53491 0.03344 0.0
H589 H 0.07419 0.5373 0.03653 0.0
H590 H 0.06824 0.49772 1.00521 0.0
H591 H 0.09441 0.49561 1.00185 0.0
H592 H 0.16785 0.5019 0.94459 0.0
H593 H 0.15809 0.51572 0.97217 0.0
H594 H 0.19136 0.47559 0.98761 0.0
H595 H 0.18153 0.48936 1.01513 0.0
H596 H 0.17713 0.57066 0.07781 0.0
H597 H 0.16063 0.54264 0.12556 0.0
H598 H 0.14482 0.53092 0.10147 0.0
H599 H 0.1616 0.55862 0.05363 0.0
C600 C 0.25946 0.35624 0.79588 0.0
C601 C 0.25842 0.35083 0.77636 0.0
C602 C 0.26242 0.3265 0.78957 0.0
C603 C 0.25984 0.33611 0.77325 0.0
C604 C 0.26364 0.33203 0.80903 0.0
C605 C 0.26215 0.3467 0.81212 0.0
U606 U 0.26381 0.39686 0.78365 0.0
O607 O 0.24813 0.41415 0.78727 0.0
O608 O 0.26845 0.41445 0.80433 0.0
C609 C 0.25585 0.42047 0.80118 0.0
C610 C 0.25729 0.37159 0.79993 0.0
C611 C 0.24805 0.42535 0.81923 0.0
C612 C 0.2274 0.42465 0.84216 0.0
C613 C 0.23499 0.41898 0.82592 0.0
C614 C 0.24591 0.44293 0.84549 0.0
C615 C 0.23272 0.43677 0.85208 0.0
C616 C 0.25345 0.43729 0.82928 0.0
C617 C 0.28471 0.40941 0.73532 0.0
C618 C 0.29932 0.43077 0.7276 0.0
C619 C 0.28964 0.41679 0.70046 0.0
C620 C 0.28315 0.40733 0.71457 0.0
C621 C 0.29793 0.42857 0.70676 0.0
C622 C 0.29275 0.42131 0.74174 0.0
C623 C 0.27859 0.39853 0.74972 0.0
O624 O 0.2689 0.37897 0.80479 0.0
O625 O 0.24862 0.3787 0.78766 0.0
O626 O 0.26442 0.39737 0.75037 0.0
O627 O 0.28465 0.39748 0.76763 0.0
H628 H 0.25641 0.35795 0.76353 0.0
H629 H 0.25901 0.33225 0.75804 0.0
H630 H 0.26545 0.32496 0.82198 0.0
H631 H 0.26293 0.3506 0.82732 0.0
H632 H 0.21737 0.41952 0.84695 0.0
H633 H 0.23057 0.40973 0.81846 0.0
H634 H 0.25026 0.45238 0.85252 0.0
H635 H 0.26343 0.44247 0.82432 0.0
H636 H 0.30547 0.43982 0.733 0.0
H637 H 0.28847 0.41464 0.68458 0.0
H638 H 0.2771 0.39819 0.70924 0.0
H639 H 0.29413 0.42322 0.75766 0.0
C640 C 0.18639 0.06119 0.925 0.0
C641 C 0.18036 0.06868 0.94099 0.0
C642 C 0.19468 0.06831 0.9099 0.0
C643 C 0.19703 0.0833 0.91074 0.0
C644 C 0.19128 0.09085 0.92708 0.0
C645 C 0.18305 0.08347 0.94196 0.0
C646 C 0.2006 0.05985 0.89275 0.0
C647 C 0.19358 0.1068 0.92867 0.0
C648 C 0.22734 0.10167 0.88022 0.0
C649 C 0.21974 0.10778 0.86386 0.0
C650 C 0.22017 0.09344 0.89536 0.0
C651 C 0.20501 0.09123 0.89417 0.0
C652 C 0.19734 0.09707 0.87745 0.0
C653 C 0.20477 0.10524 0.86255 0.0
C654 C 0.22877 0.08741 0.9129 0.0
C655 C 0.18119 0.09493 0.87548 0.0
H656 H 0.18428 0.04981 0.92395 0.0
H657 H 0.17866 0.08933 0.95439 0.0
H658 H 0.19561 0.06354 0.87835 0.0
H659 H 0.21244 0.06167 0.89133 0.0
H660 H 0.19849 0.04817 0.89482 0.0
H661 H 0.18885 0.11102 0.94268 0.0
H662 H 0.2053 0.10943 0.92836 0.0
H663 H 0.18858 0.11243 0.91553 0.0
H664 H 0.23886 0.10367 0.88153 0.0
H665 H 0.19881 0.1097 0.84983 0.0
H666 H 0.22684 0.0757 0.9146 0.0
H667 H 0.22516 0.09231 0.92706 0.0
H668 H 0.24057 0.08942 0.91109 0.0
H669 H 0.17845 0.08333 0.87604 0.0
H670 H 0.17689 0.09972 0.86123 0.0
H671 H 0.17562 0.09985 0.88834 0.0
C672 C 0.20583 0.94118 0.19446 0.0
C673 C 0.2205 0.93763 0.19283 0.0
C674 C 0.19892 0.94956 0.17945 0.0
C675 C 0.20682 0.95455 0.16231 0.0
C676 C 0.22168 0.95119 0.1607 0.0
C677 C 0.22832 0.94281 0.17595 0.0
C678 C 0.1831 0.95295 0.18185 0.0
C679 C 0.2305 0.95624 0.14268 0.0
C680 C 0.1864 0.96396 0.11383 0.0
C681 C 0.18608 0.97898 0.11409 0.0
C682 C 0.19299 0.95591 0.12946 0.0
C683 C 0.19948 0.96299 0.14583 0.0
C684 C 0.19908 0.97814 0.1463 0.0
C685 C 0.19239 0.98593 0.13048 0.0
C686 C 0.19307 0.93979 0.1284 0.0
C687 C 0.2059 0.98613 0.16339 0.0
H688 H 0.19973 0.93742 0.20755 0.0
H689 H 0.2396 0.94 0.17438 0.0
H690 H 0.18156 0.96472 0.18128 0.0
H691 H 0.17683 0.94846 0.1692 0.0
H692 H 0.17855 0.94856 0.19627 0.0
H693 H 0.24203 0.95311 0.14397 0.0
H694 H 0.22595 0.95166 0.12876 0.0
H695 H 0.22998 0.96806 0.1409 0.0
H696 H 0.18141 0.95847 0.1014 0.0
H697 H 0.19238 0.99752 0.13073 0.0
H698 H 0.18776 0.93493 0.14198 0.0
H699 H 0.20437 0.93594 0.12823 0.0
H700 H 0.18742 0.93589 0.11479 0.0
H701 H 0.20118 0.98236 0.17799 0.0
H702 H 0.2044 0.99789 0.16179 0.0
H703 H 0.21766 0.98394 0.16402 0.0
C704 C 0.29826 0.94806 0.38311 0.0
C705 C 0.30601 0.94354 0.36626 0.0
C706 C 0.30519 0.95529 0.39882 0.0
C707 C 0.32027 0.9581 0.39777 0.0
C708 C 0.3282 0.95332 0.38101 0.0
C709 C 0.321 0.94614 0.36549 0.0
C710 C 0.29628 0.96023 0.41634 0.0
C711 C 0.3443 0.95598 0.37933 0.0
C712 C 0.33493 0.98943 0.4276 0.0
C713 C 0.34059 0.98255 0.44491 0.0
C714 C 0.32848 0.9816 0.4121 0.0
C715 C 0.32761 0.96647 0.41385 0.0
C716 C 0.33349 0.95943 0.43112 0.0
C717 C 0.33991 0.96753 0.4464 0.0
C718 C 0.32245 0.98957 0.39392 0.0
C719 C 0.33277 0.94333 0.43363 0.0
H720 H 0.28667 0.9463 0.38377 0.0
H721 H 0.32713 0.94254 0.3527 0.0
H722 H 0.30084 0.95602 0.43075 0.0
H723 H 0.29668 0.97209 0.41683 0.0
H724 H 0.28479 0.95673 0.41533 0.0
H725 H 0.349 0.95115 0.36572 0.0
H726 H 0.34657 0.96767 0.37867 0.0
H727 H 0.34986 0.95151 0.39287 0.0
H728 H 0.33559 1.001 0.42611 0.0
H729 H 0.34409 0.9621 0.45978 0.0
H730 H 0.31067 0.9874 0.39269 0.0
H731 H 0.32757 0.98575 0.37996 0.0
H732 H 0.32421 1.00133 0.39465 0.0
H733 H 0.32131 0.93969 0.43419 0.0
H734 H 0.33828 0.93943 0.44758 0.0
H735 H 0.33784 0.93828 0.42048 0.0
C736 C 0.32395 0.10131 0.69381 0.0
C737 C 0.30881 0.10235 0.69296 0.0
C738 C 0.33178 0.09468 0.67853 0.0
C739 C 0.32435 0.08887 0.6619 0.0
C740 C 0.3091 0.08997 0.66084 0.0
C741 C 0.30153 0.09669 0.67633 0.0
C742 C 0.34803 0.09384 0.68023 0.0
C743 C 0.30073 0.08389 0.64345 0.0
C744 C 0.34608 0.08259 0.61406 0.0
C745 C 0.34904 0.06789 0.6158 0.0
C746 C 0.33792 0.08949 0.62877 0.0
C747 C 0.33256 0.08155 0.64572 0.0
C748 C 0.33531 0.06668 0.64742 0.0
C749 C 0.34348 0.06004 0.63248 0.0
C750 C 0.33518 0.10534 0.62626 0.0
C751 C 0.32983 0.0578 0.66525 0.0
H752 H 0.32971 0.1058 0.70643 0.0
H753 H 0.28984 0.09724 0.67562 0.0
H754 H 0.35141 0.08248 0.68052 0.0
H755 H 0.35318 0.09915 0.66685 0.0
H756 H 0.35221 0.09896 0.694 0.0
H757 H 0.28894 0.08585 0.64463 0.0
H758 H 0.30473 0.08868 0.62899 0.0
H759 H 0.30245 0.07217 0.6429 0.0
H760 H 0.35013 0.08873 0.60112 0.0
H761 H 0.34584 0.04873 0.63414 0.0
H762 H 0.33998 0.11109 0.6391 0.0
H763 H 0.32339 0.10737 0.62638 0.0
H764 H 0.33982 0.10993 0.61201 0.0
H765 H 0.33465 0.06182 0.67935 0.0
H766 H 0.33248 0.04629 0.66405 0.0
H767 H 0.31793 0.05881 0.66659 0.0
C768 C 0.81054 0.93152 0.17179 0.0
C769 C 0.80495 0.93746 0.18936 0.0
C770 C 0.81746 0.9401 0.15684 0.0
C771 C 0.81894 0.95504 0.15946 0.0
C772 C 0.81353 0.9611 0.17726 0.0
C773 C 0.80661 0.95226 0.19196 0.0
C774 C 0.82309 0.93316 0.13815 0.0
C775 C 0.81487 0.97697 0.18066 0.0
C776 C 0.84716 0.97558 0.12765 0.0
C777 C 0.83868 0.98159 0.11209 0.0
C778 C 0.8409 0.96702 0.14321 0.0
C779 C 0.82578 0.96434 0.14328 0.0
C780 C 0.81717 0.97037 0.12763 0.0
C781 C 0.82371 0.97887 0.11227 0.0
C782 C 0.85047 0.96083 0.15961 0.0
C783 C 0.80104 0.96774 0.12701 0.0
H784 H 0.8096 0.92008 0.16974 0.0
H785 H 0.80223 0.95702 0.20534 0.0
H786 H 0.81765 0.93778 0.1246 0.0
H787 H 0.83484 0.9354 0.13643 0.0
H788 H 0.82131 0.92138 0.13853 0.0
H789 H 0.81058 0.97995 0.19559 0.0
H790 H 0.82636 0.98042 0.17959 0.0
H791 H 0.80887 0.98298 0.16874 0.0
H792 H 0.8587 0.97773 0.12782 0.0
H793 H 0.81706 0.98322 0.10018 0.0
H794 H 0.84962 0.94897 0.15992 0.0
H795 H 0.84682 0.96448 0.17454 0.0
H796 H 0.862 0.96397 0.1575 0.0
H797 H 0.79874 0.95611 0.12596 0.0
H798 H 0.79582 0.97341 0.11403 0.0
H799 H 0.79599 0.97134 0.14114 0.0
C800 C 0.85572 0.07595 0.92071 0.0
C801 C 0.84943 0.0694 0.93797 0.0
C802 C 0.84731 0.08341 0.90633 0.0
C803 C 0.83217 0.08437 0.90912 0.0
C804 C 0.82569 0.07757 0.92628 0.0
C805 C 0.83438 0.07018 0.94047 0.0
C806 C 0.85468 0.09044 0.88825 0.0
C807 C 0.8096 0.07833 0.92985 0.0
C808 C 0.81326 0.11581 0.88294 0.0
C809 C 0.80723 0.1095 0.86584 0.0
C810 C 0.82118 0.10773 0.89722 0.0
C811 C 0.82324 0.09292 0.89441 0.0
C812 C 0.81712 0.08643 0.87729 0.0
C813 C 0.80921 0.09478 0.86324 0.0
C814 C 0.82756 0.11512 0.91518 0.0
C815 C 0.81901 0.07067 0.87373 0.0
H816 H 0.86728 0.07519 0.91837 0.0
H817 H 0.8294 0.0653 0.95379 0.0
H818 H 0.84984 0.08644 0.87414 0.0
H819 H 0.85299 0.10218 0.88828 0.0
H820 H 0.86649 0.08841 0.88801 0.0
H821 H 0.80613 0.07195 0.94342 0.0
H822 H 0.80644 0.08963 0.93178 0.0
H823 H 0.80364 0.07436 0.91657 0.0
H824 H 0.81204 0.1272 0.88499 0.0
H825 H 0.80447 0.08973 0.85025 0.0
H826 H 0.83952 0.11436 0.91486 0.0
H827 H 0.82378 0.10972 0.92936 0.0
H828 H 0.8246 0.1266 0.91554 0.0
H829 H 0.83068 0.06826 0.87226 0.0
H830 H 0.81334 0.06717 0.85993 0.0
H831 H 0.81483 0.06426 0.88684 0.0
C832 C 0.69328 0.06975 0.61209 0.0
C833 C 0.67846 0.06733 0.61554 0.0
C834 C 0.70207 0.07637 0.62656 0.0
C835 C 0.69594 0.08065 0.64501 0.0
C836 C 0.68101 0.07817 0.6486 0.0
C837 C 0.67249 0.07156 0.63389 0.0
C838 C 0.71792 0.07884 0.62208 0.0
C839 C 0.67403 0.08243 0.66809 0.0
C840 C 0.7198 0.08552 0.69127 0.0
C841 C 0.72111 0.10049 0.69207 0.0
C842 C 0.71189 0.07894 0.67588 0.0
C843 C 0.70512 0.0875 0.66075 0.0
C844 C 0.70664 0.1026 0.66119 0.0
C845 C 0.7146 0.10891 0.67681 0.0
C846 C 0.71061 0.06282 0.676 0.0
C847 C 0.6996 0.11213 0.64538 0.0
H848 H 0.69799 0.06667 0.59791 0.0
H849 H 0.66112 0.06954 0.6369 0.0
H850 H 0.72057 0.09043 0.62267 0.0
H851 H 0.72459 0.07329 0.63373 0.0
H852 H 0.72104 0.07495 0.60703 0.0
H853 H 0.66225 0.07993 0.66848 0.0
H854 H 0.67927 0.07677 0.68102 0.0
H855 H 0.67558 0.09408 0.67023 0.0
H856 H 0.72501 0.07887 0.70271 0.0
H857 H 0.71541 0.12047 0.67733 0.0
H858 H 0.71449 0.0587 0.66146 0.0
H859 H 0.69909 0.05953 0.67763 0.0
H860 H 0.71688 0.05766 0.68844 0.0
H861 H 0.70297 0.10897 0.6301 0.0
H862 H 0.7024 0.12362 0.64723 0.0
H863 H 0.68768 0.11083 0.64625 0.0
C864 C 0.7312 0.94933 0.3846 0.0
C865 C 0.72387 0.94369 0.368 0.0
C866 C 0.72372 0.95615 0.40005 0.0
C867 C 0.70848 0.95738 0.39902 0.0
C868 C 0.70097 0.95147 0.38253 0.0
C869 C 0.70873 0.94472 0.36725 0.0
C870 C 0.73218 0.96221 0.41738 0.0
C871 C 0.68474 0.95254 0.38081 0.0
C872 C 0.68852 0.96534 0.44781 0.0
C873 C 0.68652 0.98021 0.44597 0.0
C874 C 0.6954 0.95775 0.43254 0.0
C875 C 0.7005 0.96516 0.41496 0.0
C876 C 0.69833 0.98012 0.41289 0.0
C877 C 0.69137 0.98743 0.42835 0.0
C878 C 0.69737 0.9418 0.43532 0.0
C879 C 0.70365 0.98848 0.39449 0.0
H880 H 0.74286 0.94841 0.38554 0.0
H881 H 0.70295 0.94057 0.35442 0.0
H882 H 0.73058 0.97395 0.41785 0.0
H883 H 0.72816 0.9575 0.43188 0.0
H884 H 0.74395 0.96013 0.41619 0.0
H885 H 0.68043 0.94689 0.36753 0.0
H886 H 0.67951 0.94794 0.39462 0.0
H887 H 0.68161 0.96395 0.37952 0.0
H888 H 0.68466 0.95961 0.46122 0.0
H889 H 0.69006 0.99893 0.42686 0.0
H890 H 0.70906 0.93927 0.43551 0.0
H891 H 0.69248 0.93614 0.42246 0.0
H892 H 0.69239 0.93753 0.44953 0.0
H893 H 0.71559 0.98771 0.3934 0.0
H894 H 0.70072 0.99997 0.39484 0.0
H895 H 0.69904 0.98385 0.38064 0.0
C896 C 0.70632 0.60602 0.36304 0.0
C897 C 0.72138 0.6077 0.36466 0.0
C898 C 0.69833 0.59804 0.3776 0.0
C899 C 0.70554 0.59152 0.39425 0.0
C900 C 0.72077 0.59294 0.39579 0.0
C901 C 0.72848 0.60101 0.38103 0.0
C902 C 0.68212 0.59685 0.37538 0.0
C903 C 0.7289 0.5861 0.4132 0.0
C904 C 0.6833 0.58358 0.44177 0.0
C905 C 0.68011 0.56892 0.44022 0.0
C906 C 0.69168 0.59099 0.42709 0.0
C907 C 0.69707 0.5836 0.41035 0.0
C908 C 0.69411 0.56876 0.40884 0.0
C909 C 0.6857 0.5616 0.42376 0.0
C910 C 0.69464 0.60678 0.4294 0.0
C911 C 0.69962 0.56047 0.39125 0.0
H912 H 0.70068 0.61128 0.35064 0.0
H913 H 0.74012 0.60207 0.38231 0.0
H914 H 0.6787 0.58543 0.37557 0.0
H915 H 0.67677 0.6019 0.38832 0.0
H916 H 0.67819 0.60209 0.3612 0.0
H917 H 0.74078 0.58782 0.41189 0.0
H918 H 0.72519 0.59059 0.42759 0.0
H919 H 0.72662 0.57441 0.41402 0.0
H920 H 0.67923 0.5893 0.45455 0.0
H921 H 0.68317 0.55033 0.42226 0.0
H922 H 0.69008 0.6129 0.41636 0.0
H923 H 0.70647 0.60889 0.42949 0.0
H924 H 0.68992 0.61091 0.44347 0.0
H925 H 0.69493 0.56486 0.37701 0.0
H926 H 0.69683 0.54889 0.39263 0.0
H927 H 0.71154 0.56166 0.39003 0.0
C928 C 0.67962 0.47502 0.62945 0.0
C929 C 0.68748 0.47879 0.61193 0.0
C930 C 0.68591 0.4669 0.64529 0.0
C931 C 0.70043 0.46236 0.64364 0.0
C932 C 0.70846 0.46623 0.6261 0.0
C933 C 0.70193 0.47439 0.61054 0.0
C934 C 0.67694 0.463 0.66369 0.0
C935 C 0.72396 0.46166 0.6237 0.0
C936 C 0.72119 0.45079 0.69104 0.0
C937 C 0.7202 0.43579 0.69044 0.0
C938 C 0.71474 0.45956 0.67603 0.0
C939 C 0.70711 0.45323 0.65996 0.0
C940 C 0.70606 0.43811 0.65929 0.0
C941 C 0.71261 0.42961 0.67446 0.0
C942 C 0.71609 0.47562 0.67736 0.0
C943 C 0.69811 0.43089 0.64241 0.0
H944 H 0.66843 0.47821 0.63065 0.0
H945 H 0.70822 0.47744 0.5973 0.0
H946 H 0.67576 0.45119 0.66522 0.0
H947 H 0.68248 0.4667 0.67748 0.0
H948 H 0.66599 0.46775 0.663 0.0
H949 H 0.7288 0.4657 0.60928 0.0
H950 H 0.73059 0.46562 0.63635 0.0
H951 H 0.72456 0.4498 0.62422 0.0
H952 H 0.72686 0.45569 0.7034 0.0
H953 H 0.71198 0.41806 0.6736 0.0
H954 H 0.70519 0.48043 0.67793 0.0
H955 H 0.72158 0.48013 0.6637 0.0
H956 H 0.72229 0.47889 0.69085 0.0
H957 H 0.68676 0.43461 0.64172 0.0
H958 H 0.69803 0.41904 0.64426 0.0
H959 H 0.70324 0.43386 0.62775 0.0
C960 C 0.84139 0.46619 0.94392 0.0
C961 C 0.84119 0.48122 0.94388 0.0
C962 C 0.83451 0.45847 0.92863 0.0
C963 C 0.82717 0.46591 0.91288 0.0
C964 C 0.82706 0.48108 0.91262 0.0
C965 C 0.83406 0.48853 0.92806 0.0
C966 C 0.83499 0.44232 0.92943 0.0
C967 C 0.81931 0.48947 0.89621 0.0
C968 C 0.81852 0.44736 0.86363 0.0
C969 C 0.80382 0.44376 0.8661 0.0
C970 C 0.8263 0.45437 0.8788 0.0
C971 C 0.81926 0.45788 0.89696 0.0
C972 C 0.80451 0.45403 0.8997 0.0
C973 C 0.797 0.44704 0.8843 0.0
C974 C 0.84199 0.45827 0.87521 0.0
C975 C 0.79659 0.45748 0.91884 0.0
H976 H 0.84701 0.46043 0.95591 0.0
H977 H 0.83364 0.50012 0.92799 0.0
H978 H 0.82386 0.43784 0.93069 0.0
H979 H 0.8397 0.43836 0.91528 0.0
H980 H 0.84146 0.43813 0.94237 0.0
H981 H 0.82057 0.50122 0.89781 0.0
H982 H 0.82349 0.48657 0.88121 0.0
H983 H 0.8076 0.48672 0.89654 0.0
H984 H 0.82387 0.44505 0.84957 0.0
H985 H 0.78572 0.44413 0.88653 0.0
H986 H 0.84876 0.45381 0.88762 0.0
H987 H 0.84339 0.47008 0.87515 0.0
H988 H 0.84607 0.45427 0.86068 0.0
H989 H 0.80225 0.45268 0.93208 0.0
H990 H 0.78523 0.45347 0.91886 0.0
H991 H 0.79652 0.46924 0.92075 0.0
C992 C 0.84515 0.58263 0.11172 0.0
C993 C 0.8484 0.56802 0.11396 0.0
C994 C 0.83704 0.58969 0.12634 0.0
C995 C 0.83202 0.58199 0.14371 0.0
C996 C 0.83506 0.56719 0.14591 0.0
C997 C 0.84317 0.5604 0.13105 0.0
C998 C 0.83399 0.60544 0.1233 0.0
C999 C 0.82996 0.55857 0.1642 0.0
C1000 C 0.8238 0.60239 0.19137 0.0
C1001 C 0.80863 0.60307 0.19101 0.0
C1002 C 0.83151 0.59569 0.17603 0.0
C1003 C 0.82393 0.58947 0.15984 0.0
C1004 C 0.80864 0.59027 0.15924 0.0
C1005 C 0.8012 0.59705 0.17478 0.0
C1006 C 0.84781 0.59519 0.17724 0.0
C1007 C 0.80013 0.58376 0.14231 0.0
H1008 H 0.84894 0.58859 0.09847 0.0
H1009 H 0.84576 0.54917 0.1331 0.0
H1010 H 0.82216 0.60727 0.12373 0.0
H1011 H 0.8389 0.61153 0.13574 0.0
H1012 H 0.83832 0.60982 0.10874 0.0
H1013 H 0.83277 0.54707 0.16335 0.0
H1014 H 0.83492 0.56293 0.178 0.0
H1015 H 0.81807 0.55942 0.16583 0.0
H1016 H 0.82968 0.60717 0.20366 0.0
H1017 H 0.78949 0.59733 0.17445 0.0
H1018 H 0.85264 0.60031 0.1635 0.0
H1019 H 0.85139 0.58389 0.17788 0.0
H1020 H 0.85211 0.60067 0.19066 0.0
H1021 H 0.80388 0.58832 0.12758 0.0
H1022 H 0.78833 0.58561 0.14372 0.0
H1023 H 0.80198 0.57205 0.14216 0.0
C1024 C 0.33323 0.48805 0.63063 0.0
C1025 C 0.34071 0.48157 0.61492 0.0
C1026 C 0.32656 0.47981 0.64617 0.0
C1027 C 0.32736 0.46468 0.6461 0.0
C1028 C 0.33512 0.45808 0.63052 0.0
C1029 C 0.34169 0.46658 0.61516 0.0
C1030 C 0.31849 0.48731 0.66253 0.0
C1031 C 0.33623 0.44199 0.62983 0.0
C1032 C 0.3196 0.44302 0.69466 0.0
C1033 C 0.30532 0.43828 0.69159 0.0
C1034 C 0.32687 0.45167 0.68009 0.0
C1035 C 0.31971 0.45574 0.66197 0.0
C1036 C 0.30524 0.45115 0.6589 0.0
C1037 C 0.29825 0.4425 0.67369 0.0
C1038 C 0.3423 0.45628 0.68396 0.0
C1039 C 0.29715 0.45532 0.6399 0.0
H1040 H 0.33258 0.49962 0.63078 0.0
H1041 H 0.34727 0.46143 0.60301 0.0
H1042 H 0.30691 0.48405 0.66232 0.0
H1043 H 0.32285 0.4841 0.67754 0.0
H1044 H 0.31922 0.49915 0.66077 0.0
H1045 H 0.34311 0.43852 0.61718 0.0
H1046 H 0.34078 0.43766 0.64419 0.0
H1047 H 0.32528 0.43718 0.62814 0.0
H1048 H 0.32524 0.43969 0.70829 0.0
H1049 H 0.28716 0.43907 0.67128 0.0
H1050 H 0.34325 0.46812 0.683 0.0
H1051 H 0.34948 0.45201 0.67221 0.0
H1052 H 0.34623 0.45251 0.69898 0.0
H1053 H 0.29678 0.46715 0.63816 0.0
H1054 H 0.28591 0.45102 0.63989 0.0
H1055 H 0.30291 0.45129 0.62656 0.0
C1056 C 0.32533 0.60766 0.36404 0.0
C1057 C 0.31015 0.60809 0.36354 0.0
C1058 C 0.33267 0.59918 0.37849 0.0
C1059 C 0.3247 0.59084 0.39287 0.0
C1060 C 0.30938 0.59101 0.39226 0.0
C1061 C 0.3023 0.59961 0.37763 0.0
C1062 C 0.349 0.59927 0.37848 0.0
C1063 C 0.30046 0.58229 0.4073 0.0
C1064 C 0.34462 0.56018 0.41953 0.0
C1065 C 0.34869 0.56631 0.43781 0.0
C1066 C 0.33656 0.56791 0.40499 0.0
C1067 C 0.33245 0.58215 0.40872 0.0
C1068 C 0.33625 0.5883 0.4273 0.0
C1069 C 0.34429 0.58032 0.4416 0.0
C1070 C 0.33265 0.56089 0.38547 0.0
C1071 C 0.33215 0.60346 0.43189 0.0
H1072 H 0.33151 0.61396 0.35305 0.0
H1073 H 0.29059 0.59997 0.37756 0.0
H1074 H 0.35309 0.60317 0.39308 0.0
H1075 H 0.35304 0.58823 0.37685 0.0
H1076 H 0.35361 0.60617 0.36612 0.0
H1077 H 0.28867 0.58318 0.40439 0.0
H1078 H 0.30347 0.57085 0.40685 0.0
H1079 H 0.30272 0.58593 0.42277 0.0
H1080 H 0.34777 0.54931 0.41655 0.0
H1081 H 0.3475 0.58523 0.45554 0.0
H1082 H 0.33782 0.56684 0.37263 0.0
H1083 H 0.32079 0.56127 0.38305 0.0
H1084 H 0.33612 0.54955 0.38521 0.0
H1085 H 0.33745 0.61101 0.42092 0.0
H1086 H 0.33536 0.60647 0.44736 0.0
H1087 H 0.3203 0.60482 0.43026 0.0
C1088 C 0.21385 0.60854 0.17993 0.0
C1089 C 0.22231 0.6003 0.19334 0.0
C1090 C 0.2054 0.60207 0.16495 0.0
C1091 C 0.20535 0.58698 0.16328 0.0
C1092 C 0.21387 0.57861 0.17675 0.0
C1093 C 0.22219 0.58534 0.19157 0.0
C1094 C 0.1965 0.61141 0.15089 0.0
C1095 C 0.2141 0.56249 0.17562 0.0
C1096 C 0.17351 0.56839 0.13793 0.0
C1097 C 0.17912 0.56547 0.11881 0.0
C1098 C 0.18185 0.57549 0.15241 0.0
C1099 C 0.1962 0.57987 0.14774 0.0
C1100 C 0.2019 0.57713 0.1284 0.0
C1101 C 0.19333 0.56997 0.11421 0.0
C1102 C 0.1753 0.57821 0.17278 0.0
C1103 C 0.21715 0.58159 0.12279 0.0
H1104 H 0.21396 0.62009 0.18098 0.0
H1105 H 0.22847 0.57882 0.20203 0.0
H1106 H 0.1997 0.60967 0.13503 0.0
H1107 H 0.18489 0.60842 0.15231 0.0
H1108 H 0.19778 0.62297 0.15402 0.0
H1109 H 0.2215 0.55753 0.18692 0.0
H1110 H 0.20305 0.55804 0.17817 0.0
H1111 H 0.21754 0.55934 0.16037 0.0
H1112 H 0.16248 0.56524 0.14157 0.0
H1113 H 0.19786 0.56767 0.09961 0.0
H1114 H 0.17558 0.58984 0.17571 0.0
H1115 H 0.18176 0.5728 0.18479 0.0
H1116 H 0.16393 0.57431 0.17399 0.0
H1117 H 0.21866 0.59326 0.12482 0.0
H1118 H 0.21983 0.57911 0.10695 0.0
H1119 H 0.22494 0.57603 0.13293 0.0
C1120 C 0.19234 0.48702 0.92968 0.0
C1121 C 0.18711 0.47965 0.94697 0.0
C1122 C 0.19929 0.47976 0.91415 0.0
C1123 C 0.20105 0.46472 0.91584 0.0
C1124 C 0.19556 0.45718 0.93307 0.0
C1125 C 0.1887 0.46472 0.9484 0.0
C1126 C 0.20503 0.48824 0.89612 0.0
C1127 C 0.1971 0.44116 0.93543 0.0
C1128 C 0.20937 0.4447 0.8678 0.0
C1129 C 0.22446 0.44326 0.8689 0.0
C1130 C 0.20159 0.45148 0.88304 0.0
C1131 C 0.20904 0.45698 0.89986 0.0
C1132 C 0.22423 0.45534 0.90124 0.0
C1133 C 0.23172 0.44852 0.88581 0.0
C1134 C 0.18542 0.45299 0.88095 0.0
C1135 C 0.23261 0.46096 0.91894 0.0
H1136 H 0.19135 0.49856 0.92851 0.0
H1137 H 0.18453 0.45889 0.96155 0.0
H1138 H 0.21696 0.48721 0.8953 0.0
H1139 H 0.2005 0.48392 0.88202 0.0
H1140 H 0.20237 0.49979 0.89672 0.0
H1141 H 0.19184 0.43681 0.9494 0.0
H1142 H 0.19224 0.43582 0.92228 0.0
H1143 H 0.20872 0.43834 0.93584 0.0
H1144 H 0.20364 0.44085 0.85473 0.0
H1145 H 0.24333 0.44728 0.88701 0.0
H1146 H 0.1826 0.46449 0.87992 0.0
H1147 H 0.1799 0.44831 0.89448 0.0
H1148 H 0.18115 0.44766 0.86738 0.0
H1149 H 0.23129 0.47272 0.91969 0.0
H1150 H 0.24434 0.45862 0.91797 0.0
H1151 H 0.22831 0.45615 0.93322 0.0
C1152 C 0.98164 0.02727 0.0211 0.0
C1153 C 0.97442 0.01757 0.03428 0.0
C1154 C 0.99686 0.02794 0.02028 0.0
C1155 C 1.00513 0.01869 0.03291 0.0
C1156 C 0.99791 1.00891 0.04627 0.0
C1157 C 0.98271 1.0085 0.04682 0.0
C1158 C 1.00411 0.03851 1.00581 0.0
C1159 C 1.00626 0.99888 0.06006 0.0
C1160 C 0.04414 1.00993 0.01969 0.0
C1161 C 0.05202 0.0186 0.03285 0.0
C1162 C 0.02893 1.01012 0.01921 0.0
C1163 C 0.02131 0.01915 0.03222 0.0
C1164 C 0.02919 0.02816 0.04522 0.0
C1165 C 0.04441 0.02778 0.04537 0.0
C1166 C 0.02099 1.00041 1.00503 0.0
C1167 C 0.02153 0.03793 0.05939 0.0
H1168 H 0.97539 0.03423 1.01119 0.0
H1169 H 0.9773 1.00114 0.05733 0.0
H1170 H 1.01133 0.04581 1.01419 0.0
H1171 H 1.01096 0.03274 0.99504 0.0
H1172 H 0.99618 0.04505 0.99712 0.0
H1173 H 0.99905 0.99189 0.06953 0.0
H1174 H 1.01333 0.99201 0.05103 0.0
H1175 H 1.01337 1.00513 0.07012 0.0
H1176 H 0.04989 1.00295 1.00975 0.0
H1177 H 0.05034 0.03439 0.05576 0.0
H1178 H 1.01351 1.00673 0.99532 0.0
H1179 H 1.01432 0.99251 1.01382 0.0
H1180 H 0.02847 0.99451 0.99522 0.0
H1181 H 1.01394 0.04492 0.05086 0.0
H1182 H 0.0292 0.04479 0.06781 0.0
H1183 H 1.01503 0.03144 0.07042 0.0
C1184 C 0.25021 0.74162 0.28538 0.0
C1185 C 0.2606 0.73414 0.27452 0.0
C1186 C 0.25123 0.75655 0.28743 0.0
C1187 C 0.2629 0.76429 0.27834 0.0
C1188 C 0.27343 0.75681 0.26737 0.0
C1189 C 0.27217 0.74187 0.26563 0.0
C1190 C 0.23983 0.76406 0.29939 0.0
C1191 C 0.286 0.76462 0.25736 0.0
C1192 C 0.25903 0.80454 0.26836 0.0
C1193 C 0.26684 0.8103 0.28445 0.0
C1194 C 0.25763 0.78963 0.26621 0.0
C1195 C 0.26418 0.78018 0.28049 0.0
C1196 C 0.272 0.78591 0.29681 0.0
C1197 C 0.27321 0.80084 0.2986 0.0
C1198 C 0.24921 0.78399 0.24858 0.0
C1199 C 0.2791 0.77625 0.31241 0.0
H1200 H 0.24132 0.73575 0.29251 0.0
H1201 H 0.28014 0.73625 0.25697 0.0
H1202 H 0.24493 0.76962 0.31217 0.0
H1203 H 0.2345 0.77233 0.28975 0.0
H1204 H 0.23141 0.75653 0.30546 0.0
H1205 H 0.29324 0.75728 0.24932 0.0
H1206 H 0.28195 0.77282 0.2464 0.0
H1207 H 0.29244 0.77033 0.26881 0.0
H1208 H 0.2542 0.8117 0.25721 0.0
H1209 H 0.27905 0.80512 0.3113 0.0
H1210 H 0.24021 0.77696 0.25408 0.0
H1211 H 0.25632 0.77738 0.2392 0.0
H1212 H 0.24465 0.79272 0.2389 0.0
H1213 H 0.27086 0.76916 0.31981 0.0
H1214 H 0.28479 0.78237 0.32421 0.0
H1215 H 0.28703 0.76926 0.30505 0.0
C1216 C 0.48316 1.01099 0.50827 0.0
C1217 C 0.47474 0.01979 0.52034 0.0
C1218 C 0.49835 1.01134 0.50917 0.0
C1219 C 0.50542 0.0207 0.52253 0.0
C1220 C 0.49701 0.02943 0.53503 0.0
C1221 C 0.4818 0.02887 0.5338 0.0
C1222 C 0.50684 1.00178 0.49564 0.0
C1223 C 0.5041 0.03955 0.54947 0.0
C1224 C 0.54482 1.01236 0.53487 0.0
C1225 C 0.5523 0.0215 0.5212 0.0
C1226 C 0.52961 1.01226 0.53587 0.0
C1227 C 0.5216 0.02152 0.52293 0.0
C1228 C 0.5291 0.03107 0.50952 0.0
C1229 C 0.5443 0.03094 0.50882 0.0
C1230 C 0.52208 1.0019 0.55037 0.0
C1231 C 0.52104 0.04118 0.49553 0.0
H1232 H 0.47785 1.00373 0.4981 0.0
H1233 H 0.47543 0.0358 0.54308 0.0
H1234 H 0.51381 1.0084 0.48535 0.0
H1235 H 0.51406 0.9948 0.50482 0.0
H1236 H 0.49973 0.9949 0.48639 0.0
H1237 H 0.49608 0.04524 0.5587 0.0
H1238 H 0.51151 0.03359 0.55974 0.0
H1239 H 0.51074 0.04762 0.54094 0.0
H1240 H 0.55085 1.00493 0.54435 0.0
H1241 H 0.54995 0.03821 0.49845 0.0
H1242 H 0.51576 0.99394 0.5418 0.0
H1243 H 0.51433 1.00767 0.5599 0.0
H1244 H 0.52982 0.99609 0.56034 0.0
H1245 H 0.51444 0.03497 0.4848 0.0
H1246 H 0.52843 0.04845 0.48676 0.0
H1247 H 0.51349 0.04777 0.50426 0.0
C1248 C 0.27422 0.30272 0.79675 0.0
C1249 C 0.26366 0.31076 0.78646 0.0
C1250 C 0.27531 0.28785 0.79436 0.0
C1251 C 0.26557 0.28074 0.78141 0.0
C1252 C 0.25491 0.28879 0.77092 0.0
C1253 C 0.25411 0.30367 0.77353 0.0
C1254 C 0.28692 0.27973 0.80569 0.0
C1255 C 0.24426 0.28166 0.75706 0.0
C1256 C 0.27653 0.24456 0.7613 0.0
C1257 C 0.26904 0.23487 0.77423 0.0
C1258 C 0.27546 0.25945 0.76342 0.0
C1259 C 0.2666 0.26491 0.77878 0.0
C1260 C 0.25889 0.25523 0.79175 0.0
C1261 C 0.26022 0.24037 0.78935 0.0
C1262 C 0.28386 0.26935 0.74924 0.0
C1263 C 0.24932 0.26058 0.8083 0.0
H1264 H 0.28177 0.30809 0.80657 0.0
H1265 H 0.24579 0.30973 0.76571 0.0
H1266 H 0.28192 0.27126 0.81554 0.0
H1267 H 0.29407 0.27435 0.79489 0.0
H1268 H 0.29365 0.28681 0.81516 0.0
H1269 H 0.23666 0.2894 0.74995 0.0
H1270 H 0.25013 0.27614 0.74498 0.0
H1271 H 0.2379 0.27338 0.76562 0.0
H1272 H 0.28317 0.24049 0.74932 0.0
H1273 H 0.25451 0.23305 0.79959 0.0
H1274 H 0.29134 0.27619 0.75795 0.0
H1275 H 0.27635 0.27659 0.74098 0.0
H1276 H 0.29026 0.26343 0.73808 0.0
H1277 H 0.25587 0.26685 0.81903 0.0
H1278 H 0.24376 0.25171 0.81681 0.0
H1279 H 0.24102 0.26786 0.80183 0.0
C1280 C 0.75675 0.30456 0.77069 0.0
C1281 C 0.76688 0.3104 0.78402 0.0
C1282 C 0.7558 0.28969 0.76789 0.0
C1283 C 0.7652 0.28035 0.77864 0.0
C1284 C 0.77551 0.28617 0.792 0.0
C1285 C 0.77624 0.30107 0.7945 0.0
C1286 C 0.74464 0.28395 0.7535 0.0
C1287 C 0.78579 0.27665 0.80371 0.0
C1288 C 0.75436 0.24098 0.78599 0.0
C1289 C 0.76249 0.23441 0.77101 0.0
C1290 C 0.75511 0.25588 0.78859 0.0
C1291 C 0.76424 0.26449 0.77598 0.0
C1292 C 0.77255 0.25793 0.76092 0.0
C1293 C 0.77156 0.24301 0.75861 0.0
C1294 C 0.74603 0.26242 0.80479 0.0
C1295 C 0.7825 0.26666 0.74724 0.0
H1296 H 0.74935 0.31161 0.76269 0.0
H1297 H 0.78429 0.30543 0.80456 0.0
H1298 H 0.75 0.27775 0.74165 0.0
H1299 H 0.73712 0.27651 0.76171 0.0
H1300 H 0.73824 0.2926 0.74611 0.0
H1301 H 0.7932 0.28283 0.81348 0.0
H1302 H 0.7796 0.26884 0.81332 0.0
H1303 H 0.79238 0.27041 0.79316 0.0
H1304 H 0.74717 0.23449 0.79547 0.0
H1305 H 0.77804 0.23806 0.74717 0.0
H1306 H 0.73862 0.27043 0.79793 0.0
H1307 H 0.75309 0.26813 0.81552 0.0
H1308 H 0.73949 0.25427 0.81337 0.0
H1309 H 0.77624 0.27492 0.73879 0.0
H1310 H 0.78821 0.25997 0.73625 0.0
H1311 H 0.79069 0.27237 0.75635 0.0
C1312 C 0.77313 0.80311 0.29619 0.0
C1313 C 0.76283 0.81122 0.28548 0.0
C1314 C 0.77422 0.78824 0.29378 0.0
C1315 C 0.76475 0.78121 0.28037 0.0
C1316 C 0.75437 0.78934 0.26946 0.0
C1317 C 0.75356 0.80421 0.2721 0.0
C1318 C 0.78554 0.78005 0.30557 0.0
C1319 C 0.74402 0.78229 0.2551 0.0
C1320 C 0.77607 0.74504 0.2606 0.0
C1321 C 0.76827 0.73535 0.27315 0.0
C1322 C 0.77499 0.75993 0.26273 0.0
C1323 C 0.7658 0.76539 0.2777 0.0
C1324 C 0.75777 0.7557 0.29029 0.0
C1325 C 0.75911 0.74084 0.28789 0.0
C1326 C 0.78373 0.76983 0.24897 0.0
C1327 C 0.74784 0.76105 0.30643 0.0
H1328 H 0.78048 0.80843 0.30636 0.0
H1329 H 0.74544 0.81032 0.26395 0.0
H1330 H 0.78029 0.77156 0.31515 0.0
H1331 H 0.79292 0.77467 0.29507 0.0
H1332 H 0.79208 0.78707 0.31538 0.0
H1333 H 0.73661 0.79008 0.24768 0.0
H1334 H 0.75014 0.77678 0.24325 0.0
H1335 H 0.73744 0.77401 0.26332 0.0
H1336 H 0.78298 0.74098 0.24891 0.0
H1337 H 0.75316 0.73351 0.29784 0.0
H1338 H 0.79104 0.77661 0.25803 0.0
H1339 H 0.77643 0.77713 0.24042 0.0
H1340 H 0.79036 0.76392 0.23806 0.0
H1341 H 0.75415 0.76726 0.31747 0.0
H1342 H 0.74205 0.75218 0.31463 0.0
H1343 H 0.73972 0.76838 0.29962 0.0
C1344 C 0.482 0.52484 0.51884 0.0
C1345 C 0.475 0.51783 0.53518 0.0
C1346 C 0.49721 0.52552 0.51761 0.0
C1347 C 0.50568 0.51904 0.53308 0.0
C1348 C 0.49867 0.51211 0.54972 0.0
C1349 C 0.48348 0.51162 0.55057 0.0
C1350 C 0.50423 0.533 0.49962 0.0
C1351 C 0.50724 0.50511 0.5666 0.0
C1352 C 0.54434 0.5074 0.52302 0.0
C1353 C 0.55253 0.51816 0.53223 0.0
C1354 C 0.52914 0.50777 0.5227 0.0
C1355 C 0.52185 0.51918 0.5318 0.0
C1356 C 0.53004 0.53029 0.54061 0.0
C1357 C 0.54525 0.52965 0.54071 0.0
C1358 C 0.52087 0.49574 0.51304 0.0
C1359 C 0.52273 0.54265 0.55049 0.0
H1360 H 0.47558 0.52958 0.50678 0.0
H1361 H 0.47823 0.50642 0.56346 0.0
H1362 H 0.51173 0.54152 0.5047 0.0
H1363 H 0.51074 0.52526 0.49119 0.0
H1364 H 0.49617 0.53789 0.48918 0.0
H1365 H 0.50018 0.50034 0.57862 0.0
H1366 H 0.51408 0.49655 0.56054 0.0
H1367 H 0.51459 0.51309 0.57344 0.0
H1368 H 0.54984 0.49859 0.51613 0.0
H1369 H 0.55143 0.53795 0.54804 0.0
H1370 H 0.51326 0.50012 0.50158 0.0
H1371 H 0.51432 0.48983 0.52463 0.0
H1372 H 0.52812 0.48805 0.5057 0.0
H1373 H 0.51495 0.54778 0.5399 0.0
H1374 H 0.53059 0.55089 0.55549 0.0
H1375 H 0.51648 0.53864 0.5638 0.0
C1376 C 0.98285 0.53177 0.01986 0.0
C1377 C 0.97545 0.51906 0.02545 0.0
C1378 C 0.99807 0.53258 0.02011 0.0
C1379 C 1.00616 0.52038 0.02608 0.0
C1380 C 0.99875 0.50767 0.03236 0.0
C1381 C 0.98354 0.50718 0.032 0.0
C1382 C 1.00551 0.54635 1.01335 0.0
C1383 C 1.00689 0.49443 0.03892 0.0
C1384 C 0.04426 0.51578 1.00553 0.0
C1385 C 0.05295 0.51922 0.02211 0.0
C1386 C 0.02909 0.51636 1.00655 0.0
C1387 C 0.02232 0.52055 0.02457 0.0
C1388 C 0.03101 0.52438 0.04123 0.0
C1389 C 0.0462 0.52368 0.0398 0.0
C1390 C 0.0203 0.51224 0.98838 0.0
C1391 C 0.02425 0.52893 0.06071 0.0
H1392 H 0.97676 0.54098 1.01459 0.0
H1393 H 0.97797 0.49738 0.03672 0.0
H1394 H 1.01351 0.5497 0.0248 0.0
H1395 H 1.01154 0.54464 0.99916 0.0
H1396 H 0.99775 0.55518 1.01068 0.0
H1397 H 0.99957 0.48565 0.0444 0.0
H1398 H 1.01329 0.49051 0.02609 0.0
H1399 H 1.01463 0.49699 0.05112 0.0
H1400 H 0.04933 0.5126 0.99165 0.0
H1401 H 0.05277 0.52627 0.05275 0.0
H1402 H 1.01303 0.52112 0.98379 0.0
H1403 H 1.01336 0.5028 0.99226 0.0
H1404 H 0.0272 0.50962 0.9753 0.0
H1405 H 0.01675 0.53794 0.05778 0.0
H1406 H 0.03247 0.5323 0.07189 0.0
H1407 H 0.01777 0.51994 0.06742 0.0
loop_
_geom_bond_atom_site_label_1
_geom_bond_atom_site_label_2
_geom_bond_distance
_geom_bond_site_symmetry_2
_ccdc_geom_bond_type
C0 C1 1.264 . S
C0 C5 1.479 . S
C0 C10 1.465 . S
C1 C0 1.264 . S
C1 C3 1.339 . S
C1 H28 0.931 1_554 S
C2 C3 1.395 . S
C2 C4 1.320 . S
C3 C1 1.339 . S
C3 C2 1.395 . S
C3 H29 0.929 1_554 S
C4 C2 1.320 . S
C4 C5 1.405 . S
C4 H30 0.930 1_545 S
C5 C0 1.479 . S
C5 C4 1.405 . S
C5 H31 0.931 1_545 S
U6 O7 2.454 1_545 S
U6 O8 2.458 . S
U6 C9 2.984 1_545 S
U6 C10 2.847 . S
U6 C23 2.882 1_554 S
U6 O24 2.441 . S
U6 O25 2.420 . S
U6 O26 2.455 . S
U6 O27 2.449 1_554 S
O7 U6 2.454 1_565 S
O7 C9 1.353 . S
O8 U6 2.458 . S
O8 C9 1.286 1_545 S
C9 U6 2.984 1_565 S
C9 O7 1.353 . S
C9 O8 1.286 1_565 S
C9 C11 1.363 . S
C10 C0 1.465 . S
C10 U6 2.847 . S
C10 O24 1.249 . S
C10 O25 1.202 . S
C11 C9 1.363 . S
C11 C13 1.408 . S
C11 C16 1.342 . S
C12 C13 1.310 . S
C12 C15 1.461 . S
C12 H32 0.932 . S
C13 C11 1.408 . S
C13 C12 1.310 . S
C13 H33 0.930 . S
C14 C15 1.474 . S
C14 C16 1.285 . S
C14 H34 0.929 . S
C15 C12 1.461 . S
C15 C14 1.474 . S
C16 C11 1.342 . S
C16 C14 1.285 . S
C16 H35 0.930 . S
C17 C20 1.424 . S
C17 C22 1.245 . S
C17 C23 1.428 . S
C18 C21 1.260 . S
C18 C22 1.477 . S
C18 H36 0.932 . S
C19 C20 1.384 . S
C19 C21 1.479 . S
C19 H37 0.929 . S
C20 C17 1.424 . S
C20 C19 1.384 . S
C20 H38 0.928 . S
C21 C18 1.260 . S
C21 C19 1.479 . S
C22 C17 1.245 . S
C22 C18 1.477 . S
C22 H39 0.932 . S
C23 U6 2.882 1_556 S
C23 C17 1.428 . S
C23 O26 1.301 1_556 S
C23 O27 1.282 . S
O24 U6 2.441 . S
O24 C10 1.249 . S
O25 U6 2.420 . S
O25 C10 1.202 . S
O26 U6 2.455 . S
O26 C23 1.301 1_554 S
O27 U6 2.449 1_556 S
O27 C23 1.282 . S
H28 C1 0.931 1_556 S
H29 C3 0.929 1_556 S
H30 C4 0.930 1_565 S
H31 C5 0.931 1_565 S
H32 C12 0.932 . S
H33 C13 0.930 . S
H34 C14 0.929 . S
H35 C16 0.930 . S
H36 C18 0.932 . S
H37 C19 0.929 . S
H38 C20 0.928 . S
H39 C22 0.932 . S
C40 C41 1.264 . S
C40 C45 1.479 . S
C40 C50 1.465 . S
C41 C40 1.264 . S
C41 C43 1.339 . S
C41 H68 0.931 . S
C42 C43 1.395 . S
C42 C44 1.320 . S
C43 C41 1.339 . S
C43 C42 1.395 . S
C43 H69 0.929 . S
C44 C42 1.320 . S
C44 C45 1.405 . S
C44 H70 0.930 . S
C45 C40 1.479 . S
C45 C44 1.405 . S
C45 H71 0.931 . S
U46 O47 2.454 . S
U46 O48 2.458 . S
U46 C49 2.984 . S
U46 C50 2.847 . S
U46 C63 2.882 . S
U46 O64 2.441 . S
U46 O65 2.420 . S
U46 O66 2.455 . S
U46 O67 2.449 . S
O47 U46 2.454 . S
O47 C49 1.353 . S
O48 U46 2.458 . S
O48 C49 1.286 . S
C49 U46 2.984 . S
C49 O47 1.353 . S
C49 O48 1.286 . S
C49 C51 1.363 . S
C50 C40 1.465 . S
C50 U46 2.847 . S
C50 O64 1.249 . S
C50 O65 1.202 . S
C51 C49 1.363 . S
C51 C53 1.408 . S
C51 C56 1.342 . S
C52 C53 1.310 . S
C52 C55 1.461 . S
C52 H72 0.932 . S
C53 C51 1.408 . S
C53 C52 1.310 . S
C53 H73 0.930 . S
C54 C55 1.474 . S
C54 C56 1.285 . S
C54 H74 0.929 . S
C55 C52 1.461 . S
C55 C54 1.474 . S
C56 C51 1.342 . S
C56 C54 1.285 . S
C56 H75 0.930 . S
C57 C60 1.424 . S
C57 C62 1.245 . S
C57 C63 1.428 . S
C58 C61 1.260 . S
C58 C62 1.477 . S
C58 H76 0.932 . S
C59 C60 1.384 . S
C59 C61 1.479 . S
C59 H77 0.929 . S
C60 C57 1.424 . S
C60 C59 1.384 . S
C60 H78 0.928 . S
C61 C58 1.260 . S
C61 C59 1.479 . S
C62 C57 1.245 . S
C62 C58 1.477 . S
C62 H79 0.932 . S
C63 U46 2.882 . S
C63 C57 1.428 . S
C63 O66 1.301 . S
C63 O67 1.282 . S
O64 U46 2.441 . S
O64 C50 1.249 . S
O65 U46 2.420 . S
O65 C50 1.202 . S
O66 U46 2.455 . S
O66 C63 1.301 . S
O67 U46 2.449 . S
O67 C63 1.282 . S
H68 C41 0.931 . S
H69 C43 0.929 . S
H70 C44 0.930 . S
H71 C45 0.931 . S
H72 C52 0.932 . S
H73 C53 0.930 . S
H74 C54 0.929 . S
H75 C56 0.930 . S
H76 C58 0.932 . S
H77 C59 0.929 . S
H78 C60 0.928 . S
H79 C62 0.932 . S
C80 C81 1.264 . S
C80 C85 1.479 . S
C80 C90 1.490 . S
C81 C80 1.264 . S
C81 C83 1.339 . S
C81 H108 0.931 . S
C82 C83 1.395 . S
C82 C84 1.320 . S
C83 C81 1.339 . S
C83 C82 1.395 . S
C83 H109 0.929 . S
C84 C82 1.320 . S
C84 C85 1.405 . S
C84 H110 0.930 . S
C85 C80 1.479 . S
C85 C84 1.405 . S
C85 H111 0.931 . S
U86 O87 2.454 . S
U86 O88 2.458 . S
U86 C89 2.984 . S
U86 C90 2.828 1_545 S
U86 C103 2.882 . S
U86 O104 2.441 . S
U86 O105 2.420 . S
U86 O106 2.455 . S
U86 O107 2.449 . S
O87 U86 2.454 . S
O87 C89 1.353 . S
O88 U86 2.458 . S
O88 C89 1.286 . S
C89 U86 2.984 . S
C89 O87 1.353 . S
C89 O88 1.286 . S
C89 C91 1.363 . S
C90 C80 1.490 . S
C90 U86 2.828 1_565 S
C90 O104 1.232 1_565 S
C90 O105 1.195 1_565 S
C91 C89 1.363 . S
C91 C93 1.408 . S
C91 C96 1.342 . S
C92 C93 1.310 . S
C92 C95 1.461 . S
C92 H112 0.932 . S
C93 C91 1.408 . S
C93 C92 1.310 . S
C93 H113 0.930 . S
C94 C95 1.474 . S
C94 C96 1.285 . S
C94 H114 0.929 . S
C95 C92 1.461 . S
C95 C94 1.474 . S
C96 C91 1.342 . S
C96 C94 1.285 . S
C96 H115 0.930 . S
C97 C100 1.424 . S
C97 C102 1.245 . S
C97 C103 1.428 . S
C98 C101 1.260 . S
C98 C102 1.477 . S
C98 H116 0.932 . S
C99 C100 1.384 . S
C99 C101 1.479 . S
C99 H117 0.929 1_545 S
C100 C97 1.424 . S
C100 C99 1.384 . S
C100 H118 0.928 1_545 S
C101 C98 1.260 . S
C101 C99 1.479 . S
C102 C97 1.245 . S
C102 C98 1.477 . S
C102 H119 0.932 . S
C103 U86 2.882 . S
C103 C97 1.428 . S
C103 O106 1.301 . S
C103 O107 1.282 . S
O104 U86 2.441 . S
O104 C90 1.232 1_545 S
O105 U86 2.420 . S
O105 C90 1.195 1_545 S
O106 U86 2.455 . S
O106 C103 1.301 . S
O107 U86 2.449 . S
O107 C103 1.282 . S
H108 C81 0.931 . S
H109 C83 0.929 . S
H110 C84 0.930 . S
H111 C85 0.931 . S
H112 C92 0.932 . S
H113 C93 0.930 . S
H114 C94 0.929 . S
H115 C96 0.930 . S
H116 C98 0.932 . S
H117 C99 0.929 1_565 S
H118 C100 0.928 1_565 S
H119 C102 0.932 . S
C120 C121 1.264 . S
C120 C125 1.479 . S
C120 C130 1.465 . S
C121 C120 1.264 . S
C121 C123 1.339 . S
C121 H148 0.931 . S
C122 C123 1.395 . S
C122 C124 1.320 . S
C123 C121 1.339 . S
C123 C122 1.395 . S
C123 H149 0.929 . S
C124 C122 1.320 . S
C124 C125 1.405 . S
C124 H150 0.930 . S
C125 C120 1.479 . S
C125 C124 1.405 . S
C125 H151 0.931 . S
U126 O127 2.454 . S
U126 O128 2.458 . S
U126 C129 2.984 . S
U126 C130 2.847 . S
U126 C143 2.882 . S
U126 O144 2.441 . S
U126 O145 2.420 . S
U126 O146 2.455 . S
U126 O147 2.449 . S
O127 U126 2.454 . S
O127 C129 1.353 . S
O128 U126 2.458 . S
O128 C129 1.286 . S
C129 U126 2.984 . S
C129 O127 1.353 . S
C129 O128 1.286 . S
C129 C131 1.363 . S
C130 C120 1.465 . S
C130 U126 2.847 . S
C130 O144 1.249 . S
C130 O145 1.202 . S
C131 C129 1.363 . S
C131 C133 1.408 . S
C131 C136 1.342 . S
C132 C133 1.310 . S
C132 C135 1.461 . S
C132 H152 0.932 . S
C133 C131 1.408 . S
C133 C132 1.310 . S
C133 H153 0.930 . S
C134 C135 1.474 . S
C134 C136 1.285 . S
C134 H154 0.929 . S
C135 C132 1.461 . S
C135 C134 1.474 . S
C136 C131 1.342 . S
C136 C134 1.285 . S
C136 H155 0.930 . S
C137 C140 1.424 . S
C137 C142 1.245 . S
C137 C143 1.428 . S
C138 C141 1.260 . S
C138 C142 1.477 . S
C138 H156 0.932 . S
C139 C140 1.384 . S
C139 C141 1.479 . S
C139 H157 0.929 . S
C140 C137 1.424 . S
C140 C139 1.384 . S
C140 H158 0.928 . S
C141 C138 1.260 . S
C141 C139 1.479 . S
C142 C137 1.245 . S
C142 C138 1.477 . S
C142 H159 0.932 . S
C143 U126 2.882 . S
C143 C137 1.428 . S
C143 O146 1.301 . S
C143 O147 1.282 . S
O144 U126 2.441 . S
O144 C130 1.249 . S
O145 U126 2.420 . S
O145 C130 1.202 . S
O146 U126 2.455 . S
O146 C143 1.301 . S
O147 U126 2.449 . S
O147 C143 1.282 . S
H148 C121 0.931 . S
H149 C123 0.929 . S
H150 C124 0.930 . S
H151 C125 0.931 . S
H152 C132 0.932 . S
H153 C133 0.930 . S
H154 C134 0.929 . S
H155 C136 0.930 . S
H156 C138 0.932 . S
H157 C139 0.929 . S
H158 C140 0.928 . S
H159 C142 0.932 . S
C160 C161 1.264 . S
C160 C165 1.479 . S
C160 C170 1.465 . S
C161 C160 1.264 . S
C161 C163 1.339 . S
C161 H188 0.931 . S
C162 C163 1.395 . S
C162 C164 1.320 . S
C163 C161 1.339 . S
C163 C162 1.395 . S
C163 H189 0.929 . S
C164 C162 1.320 . S
C164 C165 1.405 . S
C164 H190 0.930 . S
C165 C160 1.479 . S
C165 C164 1.405 . S
C165 H191 0.931 . S
U166 O167 2.465 1_554 S
U166 O168 2.475 1_554 S
U166 C169 3.000 1_554 S
U166 C170 2.835 1_545 S
U166 C183 2.880 1_545 S
U166 O184 2.434 1_545 S
U166 O185 2.404 1_545 S
U166 O186 2.460 1_554 S
U166 O187 2.440 1_545 S
O167 U166 2.465 1_556 S
O167 C169 1.353 . S
O168 U166 2.475 1_556 S
O168 C169 1.286 . S
C169 U166 3.000 1_556 S
C169 O167 1.353 . S
C169 O168 1.286 . S
C169 C171 1.363 . S
C170 C160 1.465 . S
C170 U166 2.835 1_565 S
C170 O184 1.249 . S
C170 O185 1.202 . S
C171 C169 1.363 . S
C171 C173 1.408 . S
C171 C176 1.342 . S
C172 C173 1.310 . S
C172 C175 1.461 . S
C172 H192 0.932 . S
C173 C171 1.408 . S
C173 C172 1.310 . S
C173 H193 0.930 . S
C174 C175 1.474 . S
C174 C176 1.285 . S
C174 H194 0.929 . S
C175 C172 1.461 . S
C175 C174 1.474 . S
C176 C171 1.342 . S
C176 C174 1.285 . S
C176 H195 0.930 . S
C177 C180 1.424 1_545 S
C177 C182 1.245 1_554 S
C177 C183 1.424 1_545 S
C178 C181 1.260 1_556 S
C178 C182 1.477 . S
C178 H196 0.932 . S
C179 C180 1.384 . S
C179 C181 1.479 1_565 S
C179 H197 0.929 . S
C180 C177 1.424 1_565 S
C180 C179 1.384 . S
C180 H198 0.928 . S
C181 C178 1.260 1_554 S
C181 C179 1.479 1_545 S
C182 C177 1.245 1_556 S
C182 C178 1.477 . S
C182 H199 0.932 . S
C183 U166 2.880 1_565 S
C183 C177 1.424 1_565 S
C183 O186 1.285 1_564 S
C183 O187 1.304 . S
O184 U166 2.434 1_565 S
O184 C170 1.249 . S
O185 U166 2.404 1_565 S
O185 C170 1.202 . S
O186 U166 2.460 1_556 S
O186 C183 1.285 1_546 S
O187 U166 2.440 1_565 S
O187 C183 1.304 . S
H188 C161 0.931 . S
H189 C163 0.929 . S
H190 C164 0.930 . S
H191 C165 0.931 . S
H192 C172 0.932 . S
H193 C173 0.930 . S
H194 C174 0.929 . S
H195 C176 0.930 . S
H196 C178 0.932 . S
H197 C179 0.929 . S
H198 C180 0.928 . S
H199 C182 0.932 . S
C200 C201 1.264 . S
C200 C205 1.479 . S
C200 C210 1.465 . S
C201 C200 1.264 . S
C201 C203 1.339 . S
C201 H228 0.931 . S
C202 C203 1.395 . S
C202 C204 1.320 . S
C203 C201 1.339 . S
C203 C202 1.395 . S
C203 H229 0.929 . S
C204 C202 1.320 . S
C204 C205 1.405 . S
C204 H230 0.930 . S
C205 C200 1.479 . S
C205 C204 1.405 . S
C205 H231 0.931 . S
U206 O207 2.454 . S
U206 O208 2.458 . S
U206 C209 2.984 . S
U206 C210 2.847 . S
U206 C223 2.882 . S
U206 O224 2.441 . S
U206 O225 2.420 . S
U206 O226 2.455 . S
U206 O227 2.449 . S
O207 U206 2.454 . S
O207 C209 1.353 . S
O208 U206 2.458 . S
O208 C209 1.286 . S
C209 U206 2.984 . S
C209 O207 1.353 . S
C209 O208 1.286 . S
C209 C211 1.363 . S
C210 C200 1.465 . S
C210 U206 2.847 . S
C210 O224 1.249 . S
C210 O225 1.202 . S
C211 C209 1.363 . S
C211 C213 1.408 . S
C211 C216 1.342 . S
C212 C213 1.310 . S
C212 C215 1.461 . S
C212 H232 0.932 . S
C213 C211 1.408 . S
C213 C212 1.310 . S
C213 H233 0.930 . S
C214 C215 1.474 . S
C214 C216 1.285 . S
C214 H234 0.929 . S
C215 C212 1.461 . S
C215 C214 1.474 . S
C216 C211 1.342 . S
C216 C214 1.285 . S
C216 H235 0.930 . S
C217 C220 1.424 . S
C217 C222 1.245 . S
C217 C223 1.428 . S
C218 C221 1.260 . S
C218 C222 1.477 . S
C218 H236 0.932 . S
C219 C220 1.384 . S
C219 C221 1.479 . S
C219 H237 0.929 . S
C220 C217 1.424 . S
C220 C219 1.384 . S
C220 H238 0.928 . S
C221 C218 1.260 . S
C221 C219 1.479 . S
C222 C217 1.245 . S
C222 C218 1.477 . S
C222 H239 0.932 . S
C223 U206 2.882 . S
C223 C217 1.428 . S
C223 O226 1.301 . S
C223 O227 1.282 . S
O224 U206 2.441 . S
O224 C210 1.249 . S
O225 U206 2.420 . S
O225 C210 1.202 . S
O226 U206 2.455 . S
O226 C223 1.301 . S
O227 U206 2.449 . S
O227 C223 1.282 . S
H228 C201 0.931 . S
H229 C203 0.929 . S
H230 C204 0.930 . S
H231 C205 0.931 . S
H232 C212 0.932 . S
H233 C213 0.930 . S
H234 C214 0.929 . S
H235 C216 0.930 . S
H236 C218 0.932 . S
H237 C219 0.929 . S
H238 C220 0.928 . S
H239 C222 0.932 . S
C240 C241 1.264 . S
C240 C245 1.479 1_545 S
C240 C250 1.452 1_545 S
C241 C240 1.264 . S
C241 C243 1.339 . S
C241 H268 0.931 . S
C242 C243 1.395 . S
C242 C244 1.320 1_545 S
C243 C241 1.339 . S
C243 C242 1.395 . S
C243 H269 0.929 . S
C244 C242 1.320 1_565 S
C244 C245 1.405 . S
C244 H270 0.930 . S
C245 C240 1.479 1_565 S
C245 C244 1.405 . S
C245 H271 0.931 . S
U246 O247 2.461 . S
U246 O248 2.461 . S
U246 C249 2.991 . S
U246 C250 2.847 . S
U246 C263 2.875 1_565 S
U246 O264 2.444 . S
U246 O265 2.418 1_565 S
U246 O266 2.451 1_565 S
U246 O267 2.441 1_565 S
O247 U246 2.461 . S
O247 C249 1.353 . S
O248 U246 2.461 . S
O248 C249 1.286 . S
C249 U246 2.991 . S
C249 O247 1.353 . S
C249 O248 1.286 . S
C249 C251 1.363 . S
C250 C240 1.452 1_565 S
C250 U246 2.847 . S
C250 O264 1.286 . S
C250 O265 1.178 1_565 S
C251 C249 1.363 . S
C251 C253 1.408 . S
C251 C256 1.342 . S
C252 C253 1.310 . S
C252 C255 1.461 . S
C252 H272 0.932 . S
C253 C251 1.408 . S
C253 C252 1.310 . S
C253 H273 0.930 . S
C254 C255 1.474 . S
C254 C256 1.285 . S
C254 H274 0.929 . S
C255 C252 1.461 . S
C255 C254 1.474 . S
C256 C251 1.342 . S
C256 C254 1.285 . S
C256 H275 0.930 . S
C257 C260 1.424 . S
C257 C262 1.245 . S
C257 C263 1.428 . S
C258 C261 1.260 . S
C258 C262 1.477 . S
C258 H276 0.932 . S
C259 C260 1.384 . S
C259 C261 1.479 . S
C259 H277 0.929 . S
C260 C257 1.424 . S
C260 C259 1.384 . S
C260 H278 0.928 . S
C261 C258 1.260 . S
C261 C259 1.479 . S
C262 C257 1.245 . S
C262 C258 1.477 . S
C262 H279 0.932 . S
C263 U246 2.875 1_545 S
C263 C257 1.428 . S
C263 O266 1.301 . S
C263 O267 1.282 . S
O264 U246 2.444 . S
O264 C250 1.286 . S
O265 U246 2.418 1_545 S
O265 C250 1.178 1_545 S
O266 U246 2.451 1_545 S
O266 C263 1.301 . S
O267 U246 2.441 1_545 S
O267 C263 1.282 . S
H268 C241 0.931 . S
H269 C243 0.929 . S
H270 C244 0.930 . S
H271 C245 0.931 . S
H272 C252 0.932 . S
H273 C253 0.930 . S
H274 C254 0.929 . S
H275 C256 0.930 . S
H276 C258 0.932 . S
H277 C259 0.929 . S
H278 C260 0.928 . S
H279 C262 0.932 . S
C280 C281 1.264 . S
C280 C285 1.479 . S
C280 C290 1.465 . S
C281 C280 1.264 . S
C281 C283 1.339 . S
C281 H308 0.931 . S
C282 C283 1.395 . S
C282 C284 1.320 . S
C283 C281 1.339 . S
C283 C282 1.395 . S
C283 H309 0.929 . S
C284 C282 1.320 . S
C284 C285 1.405 . S
C284 H310 0.930 . S
C285 C280 1.479 . S
C285 C284 1.405 . S
C285 H311 0.931 . S
U286 O287 2.454 . S
U286 O288 2.458 . S
U286 C289 2.984 . S
U286 C290 2.847 . S
U286 C303 2.882 . S
U286 O304 2.441 . S
U286 O305 2.420 . S
U286 O306 2.455 . S
U286 O307 2.449 . S
O287 U286 2.454 . S
O287 C289 1.353 . S
O288 U286 2.458 . S
O288 C289 1.286 . S
C289 U286 2.984 . S
C289 O287 1.353 . S
C289 O288 1.286 . S
C289 C291 1.363 . S
C290 C280 1.465 . S
C290 U286 2.847 . S
C290 O304 1.249 . S
C290 O305 1.202 . S
C291 C289 1.363 . S
C291 C293 1.408 . S
C291 C296 1.342 . S
C292 C293 1.310 . S
C292 C295 1.461 . S
C292 H312 0.932 . S
C293 C291 1.408 . S
C293 C292 1.310 . S
C293 H313 0.930 . S
C294 C295 1.474 . S
C294 C296 1.285 . S
C294 H314 0.929 . S
C295 C292 1.461 . S
C295 C294 1.474 . S
C296 C291 1.342 . S
C296 C294 1.285 . S
C296 H315 0.930 . S
C297 C300 1.424 . S
C297 C302 1.245 . S
C297 C303 1.428 . S
C298 C301 1.260 . S
C298 C302 1.477 . S
C298 H316 0.932 . S
C299 C300 1.384 . S
C299 C301 1.479 . S
C299 H317 0.929 . S
C300 C297 1.424 . S
C300 C299 1.384 . S
C300 H318 0.928 . S
C301 C298 1.260 . S
C301 C299 1.479 . S
C302 C297 1.245 . S
C302 C298 1.477 . S
C302 H319 0.932 . S
C303 U286 2.882 . S
C303 C297 1.428 . S
C303 O306 1.301 . S
C303 O307 1.282 . S
O304 U286 2.441 . S
O304 C290 1.249 . S
O305 U286 2.420 . S
O305 C290 1.202 . S
O306 U286 2.455 . S
O306 C303 1.301 . S
O307 U286 2.449 . S
O307 C303 1.282 . S
H308 C281 0.931 . S
H309 C283 0.929 . S
H310 C284 0.930 . S
H311 C285 0.931 . S
H312 C292 0.932 . S
H313 C293 0.930 . S
H314 C294 0.929 . S
H315 C296 0.930 . S
H316 C298 0.932 . S
H317 C299 0.929 . S
H318 C300 0.928 . S
H319 C302 0.932 . S
C320 C321 1.264 . S
C320 C325 1.479 . S
C320 C330 1.465 . S
C321 C320 1.264 . S
C321 C323 1.339 . S
C321 H348 0.931 . S
C322 C323 1.395 . S
C322 C324 1.320 . S
C323 C321 1.339 . S
C323 C322 1.395 . S
C323 H349 0.929 . S
C324 C322 1.320 . S
C324 C325 1.405 . S
C324 H350 0.930 . S
C325 C320 1.479 . S
C325 C324 1.405 . S
C325 H351 0.931 . S
U326 O327 2.454 . S
U326 O328 2.458 . S
U326 C329 2.984 . S
U326 C330 2.847 . S
U326 C343 2.882 . S
U326 O344 2.441 . S
U326 O345 2.420 . S
U326 O346 2.455 . S
U326 O347 2.449 . S
O327 U326 2.454 . S
O327 C329 1.353 . S
O328 U326 2.458 . S
O328 C329 1.286 . S
C329 U326 2.984 . S
C329 O327 1.353 . S
C329 O328 1.286 . S
C329 C331 1.363 . S
C330 C320 1.465 . S
C330 U326 2.847 . S
C330 O344 1.249 . S
C330 O345 1.202 . S
C331 C329 1.363 . S
C331 C333 1.408 . S
C331 C336 1.342 . S
C332 C333 1.310 . S
C332 C335 1.461 . S
C332 H352 0.932 . S
C333 C331 1.408 . S
C333 C332 1.310 . S
C333 H353 0.930 . S
C334 C335 1.474 . S
C334 C336 1.285 . S
C334 H354 0.929 . S
C335 C332 1.461 . S
C335 C334 1.474 . S
C336 C331 1.342 . S
C336 C334 1.285 . S
C336 H355 0.930 . S
C337 C340 1.424 . S
C337 C342 1.245 . S
C337 C343 1.428 . S
C338 C341 1.260 . S
C338 C342 1.477 . S
C338 H356 0.932 . S
C339 C340 1.384 . S
C339 C341 1.479 . S
C339 H357 0.929 . S
C340 C337 1.424 . S
C340 C339 1.384 . S
C340 H358 0.928 . S
C341 C338 1.260 . S
C341 C339 1.479 . S
C342 C337 1.245 . S
C342 C338 1.477 . S
C342 H359 0.932 . S
C343 U326 2.882 . S
C343 C337 1.428 . S
C343 O346 1.301 . S
C343 O347 1.282 . S
O344 U326 2.441 . S
O344 C330 1.249 . S
O345 U326 2.420 . S
O345 C330 1.202 . S
O346 U326 2.455 . S
O346 C343 1.301 . S
O347 U326 2.449 . S
O347 C343 1.282 . S
H348 C321 0.931 . S
H349 C323 0.929 . S
H350 C324 0.930 . S
H351 C325 0.931 . S
H352 C332 0.932 . S
H353 C333 0.930 . S
H354 C334 0.929 . S
H355 C336 0.930 . S
H356 C338 0.932 . S
H357 C339 0.929 . S
H358 C340 0.928 . S
H359 C342 0.932 . S
C360 C361 1.264 . S
C360 C365 1.479 . S
C360 C370 1.465 . S
C361 C360 1.264 . S
C361 C363 1.339 . S
C361 H388 0.931 . S
C362 C363 1.395 . S
C362 C364 1.320 . S
C363 C361 1.339 . S
C363 C362 1.395 . S
C363 H389 0.929 . S
C364 C362 1.320 . S
C364 C365 1.405 . S
C364 H390 0.930 . S
C365 C360 1.479 . S
C365 C364 1.405 . S
C365 H391 0.931 . S
U366 O367 2.454 . S
U366 O368 2.458 . S
U366 C369 2.984 . S
U366 C370 2.847 . S
U366 C383 2.882 . S
U366 O384 2.441 . S
U366 O385 2.420 . S
U366 O386 2.455 . S
U366 O387 2.449 . S
O367 U366 2.454 . S
O367 C369 1.353 . S
O368 U366 2.458 . S
O368 C369 1.286 . S
C369 U366 2.984 . S
C369 O367 1.353 . S
C369 O368 1.286 . S
C369 C371 1.363 . S
C370 C360 1.465 . S
C370 U366 2.847 . S
C370 O384 1.249 . S
C370 O385 1.202 . S
C371 C369 1.363 . S
C371 C373 1.408 . S
C371 C376 1.342 . S
C372 C373 1.310 . S
C372 C375 1.461 . S
C372 H392 0.932 . S
C373 C371 1.408 . S
C373 C372 1.310 . S
C373 H393 0.930 . S
C374 C375 1.474 . S
C374 C376 1.285 . S
C374 H394 0.929 . S
C375 C372 1.461 . S
C375 C374 1.474 . S
C376 C371 1.342 . S
C376 C374 1.285 . S
C376 H395 0.930 . S
C377 C380 1.424 . S
C377 C382 1.245 . S
C377 C383 1.428 . S
C378 C381 1.260 . S
C378 C382 1.477 . S
C378 H396 0.932 . S
C379 C380 1.384 . S
C379 C381 1.479 . S
C379 H397 0.929 . S
C380 C377 1.424 . S
C380 C379 1.384 . S
C380 H398 0.928 . S
C381 C378 1.260 . S
C381 C379 1.479 . S
C382 C377 1.245 . S
C382 C378 1.477 . S
C382 H399 0.932 . S
C383 U366 2.882 . S
C383 C377 1.428 . S
C383 O386 1.301 . S
C383 O387 1.282 . S
O384 U366 2.441 . S
O384 C370 1.249 . S
O385 U366 2.420 . S
O385 C370 1.202 . S
O386 U366 2.455 . S
O386 C383 1.301 . S
O387 U366 2.449 . S
O387 C383 1.282 . S
H388 C361 0.931 . S
H389 C363 0.929 . S
H390 C364 0.930 . S
H391 C365 0.931 . S
H392 C372 0.932 . S
H393 C373 0.930 . S
H394 C374 0.929 . S
H395 C376 0.930 . S
H396 C378 0.932 . S
H397 C379 0.929 . S
H398 C380 0.928 . S
H399 C382 0.932 . S
C400 C401 1.264 . S
C400 C405 1.479 . S
C400 C410 1.465 . S
C401 C400 1.264 . S
C401 C403 1.339 . S
C401 H428 0.931 . S
C402 C403 1.395 . S
C402 C404 1.320 . S
C403 C401 1.339 . S
C403 C402 1.395 . S
C403 H429 0.929 . S
C404 C402 1.320 . S
C404 C405 1.405 . S
C404 H430 0.930 . S
C405 C400 1.479 . S
C405 C404 1.405 . S
C405 H431 0.931 . S
U406 O407 2.454 . S
U406 O408 2.458 . S
U406 C409 2.984 . S
U406 C410 2.847 1_554 S
U406 C423 2.882 . S
U406 O424 2.441 1_554 S
U406 O425 2.420 1_554 S
U406 O426 2.455 . S
U406 O427 2.449 1_554 S
O407 U406 2.454 . S
O407 C409 1.353 . S
O408 U406 2.458 . S
O408 C409 1.286 . S
C409 U406 2.984 . S
C409 O407 1.353 . S
C409 O408 1.286 . S
C409 C411 1.363 . S
C410 C400 1.465 . S
C410 U406 2.847 1_556 S
C410 O424 1.249 . S
C410 O425 1.202 . S
C411 C409 1.363 . S
C411 C413 1.408 . S
C411 C416 1.342 . S
C412 C413 1.310 . S
C412 C415 1.461 . S
C412 H432 0.932 . S
C413 C411 1.408 . S
C413 C412 1.310 . S
C413 H433 0.930 . S
C414 C415 1.474 . S
C414 C416 1.285 . S
C414 H434 0.929 . S
C415 C412 1.461 . S
C415 C414 1.474 . S
C416 C411 1.342 . S
C416 C414 1.285 . S
C416 H435 0.930 . S
C417 C420 1.424 1_554 S
C417 C422 1.245 . S
C417 C423 1.428 . S
C418 C421 1.260 . S
C418 C422 1.477 . S
C418 H436 0.932 . S
C419 C420 1.384 . S
C419 C421 1.479 1_556 S
C419 H437 0.929 . S
C420 C417 1.424 1_556 S
C420 C419 1.384 . S
C420 H438 0.928 . S
C421 C418 1.260 . S
C421 C419 1.479 1_554 S
C422 C417 1.245 . S
C422 C418 1.477 . S
C422 H439 0.932 . S
C423 U406 2.882 . S
C423 C417 1.428 . S
C423 O426 1.301 . S
C423 O427 1.282 1_554 S
O424 U406 2.441 1_556 S
O424 C410 1.249 . S
O425 U406 2.420 1_556 S
O425 C410 1.202 . S
O426 U406 2.455 . S
O426 C423 1.301 . S
O427 U406 2.449 1_556 S
O427 C423 1.282 1_556 S
H428 C401 0.931 . S
H429 C403 0.929 . S
H430 C404 0.930 . S
H431 C405 0.931 . S
H432 C412 0.932 . S
H433 C413 0.930 . S
H434 C414 0.929 . S
H435 C416 0.930 . S
H436 C418 0.932 . S
H437 C419 0.929 . S
H438 C420 0.928 . S
H439 C422 0.932 . S
C440 C441 1.264 . S
C440 C445 1.479 . S
C440 C450 1.465 . S
C441 C440 1.264 . S
C441 C443 1.339 . S
C441 H468 0.931 . S
C442 C443 1.395 . S
C442 C444 1.320 . S
C443 C441 1.339 . S
C443 C442 1.395 . S
C443 H469 0.929 . S
C444 C442 1.320 . S
C444 C445 1.405 . S
C444 H470 0.930 . S
C445 C440 1.479 . S
C445 C444 1.405 . S
C445 H471 0.931 . S
U446 O447 2.454 . S
U446 O448 2.458 . S
U446 C449 2.984 . S
U446 C450 2.847 . S
U446 C463 2.882 . S
U446 O464 2.441 . S
U446 O465 2.420 . S
U446 O466 2.455 . S
U446 O467 2.449 . S
O447 U446 2.454 . S
O447 C449 1.353 . S
O448 U446 2.458 . S
O448 C449 1.286 . S
C449 U446 2.984 . S
C449 O447 1.353 . S
C449 O448 1.286 . S
C449 C451 1.363 . S
C450 C440 1.465 . S
C450 U446 2.847 . S
C450 O464 1.249 . S
C450 O465 1.202 . S
C451 C449 1.363 . S
C451 C453 1.408 . S
C451 C456 1.342 . S
C452 C453 1.310 . S
C452 C455 1.461 . S
C452 H472 0.932 . S
C453 C451 1.408 . S
C453 C452 1.310 . S
C453 H473 0.930 . S
C454 C455 1.474 . S
C454 C456 1.285 . S
C454 H474 0.929 . S
C455 C452 1.461 . S
C455 C454 1.474 . S
C456 C451 1.342 . S
C456 C454 1.285 . S
C456 H475 0.930 . S
C457 C460 1.424 . S
C457 C462 1.245 . S
C457 C463 1.428 . S
C458 C461 1.260 . S
C458 C462 1.477 . S
C458 H476 0.932 . S
C459 C460 1.384 . S
C459 C461 1.479 . S
C459 H477 0.929 . S
C460 C457 1.424 . S
C460 C459 1.384 . S
C460 H478 0.928 . S
C461 C458 1.260 . S
C461 C459 1.479 . S
C462 C457 1.245 . S
C462 C458 1.477 . S
C462 H479 0.932 . S
C463 U446 2.882 . S
C463 C457 1.428 . S
C463 O466 1.301 . S
C463 O467 1.282 . S
O464 U446 2.441 . S
O464 C450 1.249 . S
O465 U446 2.420 . S
O465 C450 1.202 . S
O466 U446 2.455 . S
O466 C463 1.301 . S
O467 U446 2.449 . S
O467 C463 1.282 . S
H468 C441 0.931 . S
H469 C443 0.929 . S
H470 C444 0.930 . S
H471 C445 0.931 . S
H472 C452 0.932 . S
H473 C453 0.930 . S
H474 C454 0.929 . S
H475 C456 0.930 . S
H476 C458 0.932 . S
H477 C459 0.929 . S
H478 C460 0.928 . S
H479 C462 0.932 . S
C480 C481 1.264 . S
C480 C485 1.479 . S
C480 C490 1.465 . S
C481 C480 1.264 . S
C481 C483 1.339 . S
C481 H508 0.931 . S
C482 C483 1.395 . S
C482 C484 1.320 . S
C483 C481 1.339 . S
C483 C482 1.395 . S
C483 H509 0.929 . S
C484 C482 1.320 . S
C484 C485 1.405 . S
C484 H510 0.930 . S
C485 C480 1.479 . S
C485 C484 1.405 . S
C485 H511 0.931 . S
U486 O487 2.454 . S
U486 O488 2.458 . S
U486 C489 2.984 . S
U486 C490 2.847 . S
U486 C503 2.882 . S
U486 O504 2.441 . S
U486 O505 2.420 . S
U486 O506 2.455 . S
U486 O507 2.449 . S
O487 U486 2.454 . S
O487 C489 1.353 . S
O488 U486 2.458 . S
O488 C489 1.286 . S
C489 U486 2.984 . S
C489 O487 1.353 . S
C489 O488 1.286 . S
C489 C491 1.363 . S
C490 C480 1.465 . S
C490 U486 2.847 . S
C490 O504 1.249 . S
C490 O505 1.202 . S
C491 C489 1.363 . S
C491 C493 1.408 . S
C491 C496 1.342 . S
C492 C493 1.310 . S
C492 C495 1.461 . S
C492 H512 0.932 . S
C493 C491 1.408 . S
C493 C492 1.310 . S
C493 H513 0.930 . S
C494 C495 1.474 . S
C494 C496 1.285 . S
C494 H514 0.929 . S
C495 C492 1.461 . S
C495 C494 1.474 . S
C496 C491 1.342 . S
C496 C494 1.285 . S
C496 H515 0.930 . S
C497 C500 1.424 . S
C497 C502 1.245 . S
C497 C503 1.428 . S
C498 C501 1.260 . S
C498 C502 1.477 . S
C498 H516 0.932 . S
C499 C500 1.384 . S
C499 C501 1.479 . S
C499 H517 0.929 . S
C500 C497 1.424 . S
C500 C499 1.384 . S
C500 H518 0.928 . S
C501 C498 1.260 . S
C501 C499 1.479 . S
C502 C497 1.245 . S
C502 C498 1.477 . S
C502 H519 0.932 . S
C503 U486 2.882 . S
C503 C497 1.428 . S
C503 O506 1.301 . S
C503 O507 1.282 . S
O504 U486 2.441 . S
O504 C490 1.249 . S
O505 U486 2.420 . S
O505 C490 1.202 . S
O506 U486 2.455 . S
O506 C503 1.301 . S
O507 U486 2.449 . S
O507 C503 1.282 . S
H508 C481 0.931 . S
H509 C483 0.929 . S
H510 C484 0.930 . S
H511 C485 0.931 . S
H512 C492 0.932 . S
H513 C493 0.930 . S
H514 C494 0.929 . S
H515 C496 0.930 . S
H516 C498 0.932 . S
H517 C499 0.929 . S
H518 C500 0.928 . S
H519 C502 0.932 . S
C520 C521 1.264 . S
C520 C525 1.479 . S
C520 C530 1.465 . S
C521 C520 1.264 . S
C521 C523 1.339 . S
C521 H548 0.931 . S
C522 C523 1.395 . S
C522 C524 1.320 . S
C523 C521 1.339 . S
C523 C522 1.395 . S
C523 H549 0.929 . S
C524 C522 1.320 . S
C524 C525 1.405 . S
C524 H550 0.930 . S
C525 C520 1.479 . S
C525 C524 1.405 . S
C525 H551 0.931 . S
U526 O527 2.454 . S
U526 O528 2.458 . S
U526 C529 2.984 . S
U526 C530 2.847 . S
U526 C543 2.882 . S
U526 O544 2.441 . S
U526 O545 2.420 . S
U526 O546 2.455 . S
U526 O547 2.449 . S
O527 U526 2.454 . S
O527 C529 1.353 . S
O528 U526 2.458 . S
O528 C529 1.286 . S
C529 U526 2.984 . S
C529 O527 1.353 . S
C529 O528 1.286 . S
C529 C531 1.363 . S
C530 C520 1.465 . S
C530 U526 2.847 . S
C530 O544 1.249 . S
C530 O545 1.202 . S
C531 C529 1.363 . S
C531 C533 1.408 . S
C531 C536 1.342 . S
C532 C533 1.310 . S
C532 C535 1.461 . S
C532 H552 0.932 . S
C533 C531 1.408 . S
C533 C532 1.310 . S
C533 H553 0.930 . S
C534 C535 1.474 . S
C534 C536 1.285 . S
C534 H554 0.929 . S
C535 C532 1.461 . S
C535 C534 1.474 . S
C536 C531 1.342 . S
C536 C534 1.285 . S
C536 H555 0.930 . S
C537 C540 1.424 . S
C537 C542 1.245 . S
C537 C543 1.428 . S
C538 C541 1.260 . S
C538 C542 1.477 . S
C538 H556 0.932 . S
C539 C540 1.384 . S
C539 C541 1.479 . S
C539 H557 0.929 . S
C540 C537 1.424 . S
C540 C539 1.384 . S
C540 H558 0.928 . S
C541 C538 1.260 . S
C541 C539 1.479 . S
C542 C537 1.245 . S
C542 C538 1.477 . S
C542 H559 0.932 . S
C543 U526 2.882 . S
C543 C537 1.428 . S
C543 O546 1.301 . S
C543 O547 1.282 . S
O544 U526 2.441 . S
O544 C530 1.249 . S
O545 U526 2.420 . S
O545 C530 1.202 . S
O546 U526 2.455 . S
O546 C543 1.301 . S
O547 U526 2.449 . S
O547 C543 1.282 . S
H548 C521 0.931 . S
H549 C523 0.929 . S
H550 C524 0.930 . S
H551 C525 0.931 . S
H552 C532 0.932 . S
H553 C533 0.930 . S
H554 C534 0.929 . S
H555 C536 0.930 . S
H556 C538 0.932 . S
H557 C539 0.929 . S
H558 C540 0.928 . S
H559 C542 0.932 . S
C560 C561 1.264 . S
C560 C565 1.524 . S
C560 C570 1.465 . S
C561 C560 1.264 . S
C561 C563 1.339 . S
C561 H588 0.931 . S
C562 C563 1.395 . S
C562 C564 1.320 1_554 S
C563 C561 1.339 . S
C563 C562 1.395 . S
C563 H589 0.929 . S
C564 C562 1.320 1_556 S
C564 C565 1.404 1_556 S
C564 H590 0.930 . S
C565 C560 1.524 . S
C565 C564 1.404 1_554 S
C565 H591 0.892 1_554 S
U566 O567 2.454 1_554 S
U566 O568 2.448 1_554 S
U566 C569 2.984 1_554 S
U566 C570 2.847 . S
U566 C583 2.882 . S
U566 O584 2.441 . S
U566 O585 2.420 . S
U566 O586 2.455 . S
U566 O587 2.449 . S
O567 U566 2.454 1_556 S
O567 C569 1.353 . S
O568 U566 2.448 1_556 S
O568 C569 1.301 . S
C569 U566 2.984 1_556 S
C569 O567 1.353 . S
C569 O568 1.301 . S
C569 C571 1.363 . S
C570 C560 1.465 . S
C570 U566 2.847 . S
C570 O584 1.249 . S
C570 O585 1.202 . S
C571 C569 1.363 . S
C571 C573 1.408 . S
C571 C576 1.342 . S
C572 C573 1.310 . S
C572 C575 1.461 . S
C572 H592 0.932 . S
C573 C571 1.408 . S
C573 C572 1.310 . S
C573 H593 0.930 . S
C574 C575 1.474 . S
C574 C576 1.285 . S
C574 H594 0.929 . S
C575 C572 1.461 . S
C575 C574 1.474 . S
C576 C571 1.342 . S
C576 C574 1.285 . S
C576 H595 0.930 . S
C577 C580 1.424 . S
C577 C582 1.245 . S
C577 C583 1.428 . S
C578 C581 1.260 . S
C578 C582 1.477 . S
C578 H596 0.932 . S
C579 C580 1.384 . S
C579 C581 1.479 . S
C579 H597 0.929 . S
C580 C577 1.424 . S
C580 C579 1.384 . S
C580 H598 0.928 . S
C581 C578 1.260 . S
C581 C579 1.479 . S
C582 C577 1.245 . S
C582 C578 1.477 . S
C582 H599 0.932 . S
C583 U566 2.882 . S
C583 C577 1.428 . S
C583 O586 1.301 . S
C583 O587 1.282 . S
O584 U566 2.441 . S
O584 C570 1.249 . S
O585 U566 2.420 . S
O585 C570 1.202 . S
O586 U566 2.455 . S
O586 C583 1.301 . S
O587 U566 2.449 . S
O587 C583 1.282 . S
H588 C561 0.931 . S
H589 C563 0.929 . S
H590 C564 0.930 . S
H591 C565 0.892 1_556 S
H592 C572 0.932 . S
H593 C573 0.930 . S
H594 C574 0.929 . S
H595 C576 0.930 . S
H596 C578 0.932 . S
H597 C579 0.929 . S
H598 C580 0.928 . S
H599 C582 0.932 . S
C600 C601 1.264 . S
C600 C605 1.479 . S
C600 C610 1.465 . S
C601 C600 1.264 . S
C601 C603 1.339 . S
C601 H628 0.931 . S
C602 C603 1.395 . S
C602 C604 1.320 . S
C603 C601 1.339 . S
C603 C602 1.395 . S
C603 H629 0.929 . S
C604 C602 1.320 . S
C604 C605 1.405 . S
C604 H630 0.930 . S
C605 C600 1.479 . S
C605 C604 1.405 . S
C605 H631 0.931 . S
U606 O607 2.454 . S
U606 O608 2.458 . S
U606 C609 2.984 . S
U606 C610 2.847 . S
U606 C623 2.882 . S
U606 O624 2.441 . S
U606 O625 2.420 . S
U606 O626 2.455 . S
U606 O627 2.449 . S
O607 U606 2.454 . S
O607 C609 1.353 . S
O608 U606 2.458 . S
O608 C609 1.286 . S
C609 U606 2.984 . S
C609 O607 1.353 . S
C609 O608 1.286 . S
C609 C611 1.363 . S
C610 C600 1.465 . S
C610 U606 2.847 . S
C610 O624 1.249 . S
C610 O625 1.202 . S
C611 C609 1.363 . S
C611 C613 1.408 . S
C611 C616 1.342 . S
C612 C613 1.310 . S
C612 C615 1.461 . S
C612 H632 0.932 . S
C613 C611 1.408 . S
C613 C612 1.310 . S
C613 H633 0.930 . S
C614 C615 1.474 . S
C614 C616 1.285 . S
C614 H634 0.929 . S
C615 C612 1.461 . S
C615 C614 1.474 . S
C616 C611 1.342 . S
C616 C614 1.285 . S
C616 H635 0.930 . S
C617 C620 1.424 . S
C617 C622 1.245 . S
C617 C623 1.428 . S
C618 C621 1.260 . S
C618 C622 1.477 . S
C618 H636 0.932 . S
C619 C620 1.384 . S
C619 C621 1.479 . S
C619 H637 0.929 . S
C620 C617 1.424 . S
C620 C619 1.384 . S
C620 H638 0.928 . S
C621 C618 1.260 . S
C621 C619 1.479 . S
C622 C617 1.245 . S
C622 C618 1.477 . S
C622 H639 0.932 . S
C623 U606 2.882 . S
C623 C617 1.428 . S
C623 O626 1.301 . S
C623 O627 1.282 . S
O624 U606 2.441 . S
O624 C610 1.249 . S
O625 U606 2.420 . S
O625 C610 1.202 . S
O626 U606 2.455 . S
O626 C623 1.301 . S
O627 U606 2.449 . S
O627 C623 1.282 . S
H628 C601 0.931 . S
H629 C603 0.929 . S
H630 C604 0.930 . S
H631 C605 0.931 . S
H632 C612 0.932 . S
H633 C613 0.930 . S
H634 C614 0.929 . S
H635 C616 0.930 . S
H636 C618 0.932 . S
H637 C619 0.929 . S
H638 C620 0.928 . S
H639 C622 0.932 . S
C640 C641 1.391 . S
C640 C642 1.394 . S
C640 H656 0.931 . S
C641 C640 1.391 . S
C641 C645 1.376 . S
C642 C640 1.394 . S
C642 C643 1.369 . S
C642 C646 1.531 . S
C643 C642 1.369 . S
C643 C644 1.410 . S
C643 C651 1.503 . S
C644 C643 1.410 . S
C644 C645 1.392 . S
C644 C647 1.511 . S
C645 C641 1.376 . S
C645 C644 1.392 . S
C645 H657 0.929 . S
C646 C642 1.531 . S
C646 H658 0.960 . S
C646 H659 0.962 . S
C646 H660 0.960 . S
C647 C644 1.511 . S
C647 H661 0.961 . S
C647 H662 0.961 . S
C647 H663 0.961 . S
C648 C649 1.370 . S
C648 C650 1.363 . S
C648 H664 0.931 . S
C649 C648 1.370 . S
C649 C653 1.408 . S
C650 C648 1.363 . S
C650 C651 1.370 . S
C650 C654 1.524 . S
C651 C643 1.503 . S
C651 C650 1.370 . S
C651 C652 1.403 . S
C652 C651 1.403 . S
C652 C653 1.404 . S
C652 C655 1.539 . S
C653 C649 1.408 . S
C653 C652 1.404 . S
C653 H665 0.930 . S
C654 C650 1.524 . S
C654 H666 0.956 . S
C654 H667 0.961 . S
C654 H668 0.961 . S
C655 C652 1.539 . S
C655 H669 0.958 . S
C655 H670 0.961 . S
C655 H671 0.960 . S
H656 C640 0.931 . S
H657 C645 0.929 . S
H658 C646 0.960 . S
H659 C646 0.962 . S
H660 C646 0.960 . S
H661 C647 0.961 . S
H662 C647 0.961 . S
H663 C647 0.961 . S
H664 C648 0.931 . S
H665 C653 0.930 . S
H666 C654 0.956 . S
H667 C654 0.961 . S
H668 C654 0.961 . S
H669 C655 0.958 . S
H670 C655 0.961 . S
H671 C655 0.960 . S
C672 C673 1.391 . S
C672 C674 1.394 . S
C672 H688 0.931 . S
C673 C672 1.391 . S
C673 C677 1.376 . S
C674 C672 1.394 . S
C674 C675 1.369 . S
C674 C678 1.531 . S
C675 C674 1.369 . S
C675 C676 1.410 . S
C675 C683 1.503 . S
C676 C675 1.410 . S
C676 C677 1.392 . S
C676 C679 1.511 . S
C677 C673 1.376 . S
C677 C676 1.392 . S
C677 H689 0.929 . S
C678 C674 1.531 . S
C678 H690 0.960 . S
C678 H691 0.962 . S
C678 H692 0.960 . S
C679 C676 1.511 . S
C679 H693 0.961 . S
C679 H694 0.961 . S
C679 H695 0.961 . S
C680 C681 1.370 . S
C680 C682 1.363 . S
C680 H696 0.931 . S
C681 C680 1.370 . S
C681 C685 1.408 . S
C682 C680 1.363 . S
C682 C683 1.370 . S
C682 C686 1.524 . S
C683 C675 1.503 . S
C683 C682 1.370 . S
C683 C684 1.403 . S
C684 C683 1.403 . S
C684 C685 1.404 . S
C684 C687 1.539 . S
C685 C681 1.408 . S
C685 C684 1.404 . S
C685 H697 0.930 . S
C686 C682 1.524 . S
C686 H698 0.956 . S
C686 H699 0.961 . S
C686 H700 0.961 . S
C687 C684 1.539 . S
C687 H701 0.958 . S
C687 H702 0.961 . S
C687 H703 0.960 . S
H688 C672 0.931 . S
H689 C677 0.929 . S
H690 C678 0.960 . S
H691 C678 0.962 . S
H692 C678 0.960 . S
H693 C679 0.961 . S
H694 C679 0.961 . S
H695 C679 0.961 . S
H696 C680 0.931 . S
H697 C685 0.930 . S
H698 C686 0.956 . S
H699 C686 0.961 . S
H700 C686 0.961 . S
H701 C687 0.958 . S
H702 C687 0.961 . S
H703 C687 0.960 . S
C704 C705 1.391 . S
C704 C706 1.394 . S
C704 H720 0.931 . S
C705 C704 1.391 . S
C705 C709 1.376 . S
C706 C704 1.394 . S
C706 C707 1.369 . S
C706 C710 1.531 . S
C707 C706 1.369 . S
C707 C708 1.410 . S
C707 C715 1.503 . S
C708 C707 1.410 . S
C708 C709 1.392 . S
C708 C711 1.511 . S
C709 C705 1.376 . S
C709 C708 1.392 . S
C709 H721 0.929 . S
C710 C706 1.531 . S
C710 H722 0.960 . S
C710 H723 0.962 . S
C710 H724 0.960 . S
C711 C708 1.511 . S
C711 H725 0.961 . S
C711 H726 0.961 . S
C711 H727 0.961 . S
C712 C713 1.370 . S
C712 C714 1.363 . S
C712 H728 0.931 . S
C713 C712 1.370 . S
C713 C717 1.408 . S
C714 C712 1.363 . S
C714 C715 1.370 . S
C714 C718 1.524 . S
C715 C707 1.503 . S
C715 C714 1.370 . S
C715 C716 1.403 . S
C716 C715 1.403 . S
C716 C717 1.404 . S
C716 C719 1.539 . S
C717 C713 1.408 . S
C717 C716 1.404 . S
C717 H729 0.930 . S
C718 C714 1.524 . S
C718 H730 0.956 . S
C718 H731 0.961 . S
C718 H732 0.961 . S
C719 C716 1.539 . S
C719 H733 0.958 . S
C719 H734 0.961 . S
C719 H735 0.960 . S
H720 C704 0.931 . S
H721 C709 0.929 . S
H722 C710 0.960 . S
H723 C710 0.962 . S
H724 C710 0.960 . S
H725 C711 0.961 . S
H726 C711 0.961 . S
H727 C711 0.961 . S
H728 C712 0.931 . S
H729 C717 0.930 . S
H730 C718 0.956 . S
H731 C718 0.961 . S
H732 C718 0.961 . S
H733 C719 0.958 . S
H734 C719 0.961 . S
H735 C719 0.960 . S
C736 C737 1.391 . S
C736 C738 1.394 . S
C736 H752 0.931 . S
C737 C736 1.391 . S
C737 C741 1.376 . S
C738 C736 1.394 . S
C738 C739 1.369 . S
C738 C742 1.531 . S
C739 C738 1.369 . S
C739 C740 1.410 . S
C739 C747 1.503 . S
C740 C739 1.410 . S
C740 C741 1.392 . S
C740 C743 1.511 . S
C741 C737 1.376 . S
C741 C740 1.392 . S
C741 H753 0.929 . S
C742 C738 1.531 . S
C742 H754 0.960 . S
C742 H755 0.962 . S
C742 H756 0.960 . S
C743 C740 1.511 . S
C743 H757 0.961 . S
C743 H758 0.961 . S
C743 H759 0.961 . S
C744 C745 1.370 . S
C744 C746 1.363 . S
C744 H760 0.931 . S
C745 C744 1.370 . S
C745 C749 1.408 . S
C746 C744 1.363 . S
C746 C747 1.370 . S
C746 C750 1.524 . S
C747 C739 1.503 . S
C747 C746 1.370 . S
C747 C748 1.403 . S
C748 C747 1.403 . S
C748 C749 1.404 . S
C748 C751 1.539 . S
C749 C745 1.408 . S
C749 C748 1.404 . S
C749 H761 0.930 . S
C750 C746 1.524 . S
C750 H762 0.956 . S
C750 H763 0.961 . S
C750 H764 0.961 . S
C751 C748 1.539 . S
C751 H765 0.958 . S
C751 H766 0.961 . S
C751 H767 0.960 . S
H752 C736 0.931 . S
H753 C741 0.929 . S
H754 C742 0.960 . S
H755 C742 0.962 . S
H756 C742 0.960 . S
H757 C743 0.961 . S
H758 C743 0.961 . S
H759 C743 0.961 . S
H760 C744 0.931 . S
H761 C749 0.930 . S
H762 C750 0.956 . S
H763 C750 0.961 . S
H764 C750 0.961 . S
H765 C751 0.958 . S
H766 C751 0.961 . S
H767 C751 0.960 . S
C768 C769 1.391 . S
C768 C770 1.394 . S
C768 H784 0.931 . S
C769 C768 1.391 . S
C769 C773 1.376 . S
C770 C768 1.394 . S
C770 C771 1.369 . S
C770 C774 1.531 . S
C771 C770 1.369 . S
C771 C772 1.410 . S
C771 C779 1.503 . S
C772 C771 1.410 . S
C772 C773 1.392 . S
C772 C775 1.511 . S
C773 C769 1.376 . S
C773 C772 1.392 . S
C773 H785 0.929 . S
C774 C770 1.531 . S
C774 H786 0.960 . S
C774 H787 0.962 . S
C774 H788 0.960 . S
C775 C772 1.511 . S
C775 H789 0.961 . S
C775 H790 0.961 . S
C775 H791 0.961 . S
C776 C777 1.370 . S
C776 C778 1.363 . S
C776 H792 0.931 . S
C777 C776 1.370 . S
C777 C781 1.408 . S
C778 C776 1.363 . S
C778 C779 1.370 . S
C778 C782 1.524 . S
C779 C771 1.503 . S
C779 C778 1.370 . S
C779 C780 1.403 . S
C780 C779 1.403 . S
C780 C781 1.404 . S
C780 C783 1.539 . S
C781 C777 1.408 . S
C781 C780 1.404 . S
C781 H793 0.930 . S
C782 C778 1.524 . S
C782 H794 0.956 . S
C782 H795 0.961 . S
C782 H796 0.961 . S
C783 C780 1.539 . S
C783 H797 0.958 . S
C783 H798 0.961 . S
C783 H799 0.960 . S
H784 C768 0.931 . S
H785 C773 0.929 . S
H786 C774 0.960 . S
H787 C774 0.962 . S
H788 C774 0.960 . S
H789 C775 0.961 . S
H790 C775 0.961 . S
H791 C775 0.961 . S
H792 C776 0.931 . S
H793 C781 0.930 . S
H794 C782 0.956 . S
H795 C782 0.961 . S
H796 C782 0.961 . S
H797 C783 0.958 . S
H798 C783 0.961 . S
H799 C783 0.960 . S
C800 C801 1.391 . S
C800 C802 1.394 . S
C800 H816 0.931 . S
C801 C800 1.391 . S
C801 C805 1.376 . S
C802 C800 1.394 . S
C802 C803 1.369 . S
C802 C806 1.531 . S
C803 C802 1.369 . S
C803 C804 1.410 . S
C803 C811 1.503 . S
C804 C803 1.410 . S
C804 C805 1.392 . S
C804 C807 1.511 . S
C805 C801 1.376 . S
C805 C804 1.392 . S
C805 H817 0.929 . S
C806 C802 1.531 . S
C806 H818 0.960 . S
C806 H819 0.962 . S
C806 H820 0.960 . S
C807 C804 1.511 . S
C807 H821 0.961 . S
C807 H822 0.961 . S
C807 H823 0.961 . S
C808 C809 1.370 . S
C808 C810 1.363 . S
C808 H824 0.931 . S
C809 C808 1.370 . S
C809 C813 1.408 . S
C810 C808 1.363 . S
C810 C811 1.370 . S
C810 C814 1.524 . S
C811 C803 1.503 . S
C811 C810 1.370 . S
C811 C812 1.403 . S
C812 C811 1.403 . S
C812 C813 1.404 . S
C812 C815 1.539 . S
C813 C809 1.408 . S
C813 C812 1.404 . S
C813 H825 0.930 . S
C814 C810 1.524 . S
C814 H826 0.956 . S
C814 H827 0.961 . S
C814 H828 0.961 . S
C815 C812 1.539 . S
C815 H829 0.958 . S
C815 H830 0.961 . S
C815 H831 0.960 . S
H816 C800 0.931 . S
H817 C805 0.929 . S
H818 C806 0.960 . S
H819 C806 0.962 . S
H820 C806 0.960 . S
H821 C807 0.961 . S
H822 C807 0.961 . S
H823 C807 0.961 . S
H824 C808 0.931 . S
H825 C813 0.930 . S
H826 C814 0.956 . S
H827 C814 0.961 . S
H828 C814 0.961 . S
H829 C815 0.958 . S
H830 C815 0.961 . S
H831 C815 0.960 . S
C832 C833 1.391 . S
C832 C834 1.394 . S
C832 H848 0.931 . S
C833 C832 1.391 . S
C833 C837 1.376 . S
C834 C832 1.394 . S
C834 C835 1.369 . S
C834 C838 1.531 . S
C835 C834 1.369 . S
C835 C836 1.410 . S
C835 C843 1.503 . S
C836 C835 1.410 . S
C836 C837 1.392 . S
C836 C839 1.511 . S
C837 C833 1.376 . S
C837 C836 1.392 . S
C837 H849 0.929 . S
C838 C834 1.531 . S
C838 H850 0.960 . S
C838 H851 0.962 . S
C838 H852 0.960 . S
C839 C836 1.511 . S
C839 H853 0.961 . S
C839 H854 0.961 . S
C839 H855 0.961 . S
C840 C841 1.370 . S
C840 C842 1.363 . S
C840 H856 0.931 . S
C841 C840 1.370 . S
C841 C845 1.408 . S
C842 C840 1.363 . S
C842 C843 1.370 . S
C842 C846 1.524 . S
C843 C835 1.503 . S
C843 C842 1.370 . S
C843 C844 1.403 . S
C844 C843 1.403 . S
C844 C845 1.404 . S
C844 C847 1.539 . S
C845 C841 1.408 . S
C845 C844 1.404 . S
C845 H857 0.930 . S
C846 C842 1.524 . S
C846 H858 0.956 . S
C846 H859 0.961 . S
C846 H860 0.961 . S
C847 C844 1.539 . S
C847 H861 0.958 . S
C847 H862 0.961 . S
C847 H863 0.960 . S
H848 C832 0.931 . S
H849 C837 0.929 . S
H850 C838 0.960 . S
H851 C838 0.962 . S
H852 C838 0.960 . S
H853 C839 0.961 . S
H854 C839 0.961 . S
H855 C839 0.961 . S
H856 C840 0.931 . S
H857 C845 0.930 . S
H858 C846 0.956 . S
H859 C846 0.961 . S
H860 C846 0.961 . S
H861 C847 0.958 . S
H862 C847 0.961 . S
H863 C847 0.960 . S
C864 C865 1.391 . S
C864 C866 1.394 . S
C864 H880 0.931 . S
C865 C864 1.391 . S
C865 C869 1.376 . S
C866 C864 1.394 . S
C866 C867 1.369 . S
C866 C870 1.531 . S
C867 C866 1.369 . S
C867 C868 1.410 . S
C867 C875 1.503 . S
C868 C867 1.410 . S
C868 C869 1.392 . S
C868 C871 1.511 . S
C869 C865 1.376 . S
C869 C868 1.392 . S
C869 H881 0.929 . S
C870 C866 1.531 . S
C870 H882 0.960 . S
C870 H883 0.962 . S
C870 H884 0.960 . S
C871 C868 1.511 . S
C871 H885 0.961 . S
C871 H886 0.961 . S
C871 H887 0.961 . S
C872 C873 1.370 . S
C872 C874 1.363 . S
C872 H888 0.931 . S
C873 C872 1.370 . S
C873 C877 1.408 . S
C874 C872 1.363 . S
C874 C875 1.370 . S
C874 C878 1.524 . S
C875 C867 1.503 . S
C875 C874 1.370 . S
C875 C876 1.403 . S
C876 C875 1.403 . S
C876 C877 1.404 . S
C876 C879 1.539 . S
C877 C873 1.408 . S
C877 C876 1.404 . S
C877 H889 0.930 . S
C878 C874 1.524 . S
C878 H890 0.956 . S
C878 H891 0.961 . S
C878 H892 0.961 . S
C879 C876 1.539 . S
C879 H893 0.958 . S
C879 H894 0.961 . S
C879 H895 0.960 . S
H880 C864 0.931 . S
H881 C869 0.929 . S
H882 C870 0.960 . S
H883 C870 0.962 . S
H884 C870 0.960 . S
H885 C871 0.961 . S
H886 C871 0.961 . S
H887 C871 0.961 . S
H888 C872 0.931 . S
H889 C877 0.930 . S
H890 C878 0.956 . S
H891 C878 0.961 . S
H892 C878 0.961 . S
H893 C879 0.958 . S
H894 C879 0.961 . S
H895 C879 0.960 . S
C896 C897 1.391 . S
C896 C898 1.394 . S
C896 H912 0.931 . S
C897 C896 1.391 . S
C897 C901 1.376 . S
C898 C896 1.394 . S
C898 C899 1.369 . S
C898 C902 1.531 . S
C899 C898 1.369 . S
C899 C900 1.410 . S
C899 C907 1.503 . S
C900 C899 1.410 . S
C900 C901 1.392 . S
C900 C903 1.511 . S
C901 C897 1.376 . S
C901 C900 1.392 . S
C901 H913 0.929 . S
C902 C898 1.531 . S
C902 H914 0.960 . S
C902 H915 0.962 . S
C902 H916 0.960 . S
C903 C900 1.511 . S
C903 H917 0.961 . S
C903 H918 0.961 . S
C903 H919 0.961 . S
C904 C905 1.370 . S
C904 C906 1.363 . S
C904 H920 0.931 . S
C905 C904 1.370 . S
C905 C909 1.408 . S
C906 C904 1.363 . S
C906 C907 1.370 . S
C906 C910 1.524 . S
C907 C899 1.503 . S
C907 C906 1.370 . S
C907 C908 1.403 . S
C908 C907 1.403 . S
C908 C909 1.404 . S
C908 C911 1.539 . S
C909 C905 1.408 . S
C909 C908 1.404 . S
C909 H921 0.930 . S
C910 C906 1.524 . S
C910 H922 0.956 . S
C910 H923 0.961 . S
C910 H924 0.961 . S
C911 C908 1.539 . S
C911 H925 0.958 . S
C911 H926 0.961 . S
C911 H927 0.960 . S
H912 C896 0.931 . S
H913 C901 0.929 . S
H914 C902 0.960 . S
H915 C902 0.962 . S
H916 C902 0.960 . S
H917 C903 0.961 . S
H918 C903 0.961 . S
H919 C903 0.961 . S
H920 C904 0.931 . S
H921 C909 0.930 . S
H922 C910 0.956 . S
H923 C910 0.961 . S
H924 C910 0.961 . S
H925 C911 0.958 . S
H926 C911 0.961 . S
H927 C911 0.960 . S
C928 C929 1.391 . S
C928 C930 1.394 . S
C928 H944 0.931 . S
C929 C928 1.391 . S
C929 C933 1.376 . S
C930 C928 1.394 . S
C930 C931 1.369 . S
C930 C934 1.531 . S
C931 C930 1.369 . S
C931 C932 1.410 . S
C931 C939 1.503 . S
C932 C931 1.410 . S
C932 C933 1.392 . S
C932 C935 1.511 . S
C933 C929 1.376 . S
C933 C932 1.392 . S
C933 H945 0.929 . S
C934 C930 1.531 . S
C934 H946 0.960 . S
C934 H947 0.962 . S
C934 H948 0.960 . S
C935 C932 1.511 . S
C935 H949 0.961 . S
C935 H950 0.961 . S
C935 H951 0.961 . S
C936 C937 1.370 . S
C936 C938 1.363 . S
C936 H952 0.931 . S
C937 C936 1.370 . S
C937 C941 1.408 . S
C938 C936 1.363 . S
C938 C939 1.370 . S
C938 C942 1.524 . S
C939 C931 1.503 . S
C939 C938 1.370 . S
C939 C940 1.403 . S
C940 C939 1.403 . S
C940 C941 1.404 . S
C940 C943 1.539 . S
C941 C937 1.408 . S
C941 C940 1.404 . S
C941 H953 0.930 . S
C942 C938 1.524 . S
C942 H954 0.956 . S
C942 H955 0.961 . S
C942 H956 0.961 . S
C943 C940 1.539 . S
C943 H957 0.958 . S
C943 H958 0.961 . S
C943 H959 0.960 . S
H944 C928 0.931 . S
H945 C933 0.929 . S
H946 C934 0.960 . S
H947 C934 0.962 . S
H948 C934 0.960 . S
H949 C935 0.961 . S
H950 C935 0.961 . S
H951 C935 0.961 . S
H952 C936 0.931 . S
H953 C941 0.930 . S
H954 C942 0.956 . S
H955 C942 0.961 . S
H956 C942 0.961 . S
H957 C943 0.958 . S
H958 C943 0.961 . S
H959 C943 0.960 . S
C960 C961 1.391 . S
C960 C962 1.394 . S
C960 H976 0.931 . S
C961 C960 1.391 . S
C961 C965 1.376 . S
C962 C960 1.394 . S
C962 C963 1.369 . S
C962 C966 1.531 . S
C963 C962 1.369 . S
C963 C964 1.410 . S
C963 C971 1.503 . S
C964 C963 1.410 . S
C964 C965 1.392 . S
C964 C967 1.511 . S
C965 C961 1.376 . S
C965 C964 1.392 . S
C965 H977 0.929 . S
C966 C962 1.531 . S
C966 H978 0.960 . S
C966 H979 0.962 . S
C966 H980 0.960 . S
C967 C964 1.511 . S
C967 H981 0.961 . S
C967 H982 0.961 . S
C967 H983 0.961 . S
C968 C969 1.370 . S
C968 C970 1.363 . S
C968 H984 0.931 . S
C969 C968 1.370 . S
C969 C973 1.408 . S
C970 C968 1.363 . S
C970 C971 1.370 . S
C970 C974 1.524 . S
C971 C963 1.503 . S
C971 C970 1.370 . S
C971 C972 1.403 . S
C972 C971 1.403 . S
C972 C973 1.404 . S
C972 C975 1.539 . S
C973 C969 1.408 . S
C973 C972 1.404 . S
C973 H985 0.930 . S
C974 C970 1.524 . S
C974 H986 0.956 . S
C974 H987 0.961 . S
C974 H988 0.961 . S
C975 C972 1.539 . S
C975 H989 0.958 . S
C975 H990 0.961 . S
C975 H991 0.960 . S
H976 C960 0.931 . S
H977 C965 0.929 . S
H978 C966 0.960 . S
H979 C966 0.962 . S
H980 C966 0.960 . S
H981 C967 0.961 . S
H982 C967 0.961 . S
H983 C967 0.961 . S
H984 C968 0.931 . S
H985 C973 0.930 . S
H986 C974 0.956 . S
H987 C974 0.961 . S
H988 C974 0.961 . S
H989 C975 0.958 . S
H990 C975 0.961 . S
H991 C975 0.960 . S
C992 C993 1.391 . S
C992 C994 1.394 . S
C992 H1008 0.931 . S
C993 C992 1.391 . S
C993 C997 1.376 . S
C994 C992 1.394 . S
C994 C995 1.369 . S
C994 C998 1.531 . S
C995 C994 1.369 . S
C995 C996 1.410 . S
C995 C1003 1.503 . S
C996 C995 1.410 . S
C996 C997 1.392 . S
C996 C999 1.511 . S
C997 C993 1.376 . S
C997 C996 1.392 . S
C997 H1009 0.929 . S
C998 C994 1.531 . S
C998 H1010 0.960 . S
C998 H1011 0.962 . S
C998 H1012 0.960 . S
C999 C996 1.511 . S
C999 H1013 0.961 . S
C999 H1014 0.961 . S
C999 H1015 0.961 . S
C1000 C1001 1.370 . S
C1000 C1002 1.363 . S
C1000 H1016 0.931 . S
C1001 C1000 1.370 . S
C1001 C1005 1.408 . S
C1002 C1000 1.363 . S
C1002 C1003 1.370 . S
C1002 C1006 1.524 . S
C1003 C995 1.503 . S
C1003 C1002 1.370 . S
C1003 C1004 1.403 . S
C1004 C1003 1.403 . S
C1004 C1005 1.404 . S
C1004 C1007 1.539 . S
C1005 C1001 1.408 . S
C1005 C1004 1.404 . S
C1005 H1017 0.930 . S
C1006 C1002 1.524 . S
C1006 H1018 0.956 . S
C1006 H1019 0.961 . S
C1006 H1020 0.961 . S
C1007 C1004 1.539 . S
C1007 H1021 0.958 . S
C1007 H1022 0.961 . S
C1007 H1023 0.960 . S
H1008 C992 0.931 . S
H1009 C997 0.929 . S
H1010 C998 0.960 . S
H1011 C998 0.962 . S
H1012 C998 0.960 . S
H1013 C999 0.961 . S
H1014 C999 0.961 . S
H1015 C999 0.961 . S
H1016 C1000 0.931 . S
H1017 C1005 0.930 . S
H1018 C1006 0.956 . S
H1019 C1006 0.961 . S
H1020 C1006 0.961 . S
H1021 C1007 0.958 . S
H1022 C1007 0.961 . S
H1023 C1007 0.960 . S
C1024 C1025 1.391 . S
C1024 C1026 1.394 . S
C1024 H1040 0.931 . S
C1025 C1024 1.391 . S
C1025 C1029 1.376 . S
C1026 C1024 1.394 . S
C1026 C1027 1.369 . S
C1026 C1030 1.531 . S
C1027 C1026 1.369 . S
C1027 C1028 1.410 . S
C1027 C1035 1.503 . S
C1028 C1027 1.410 . S
C1028 C1029 1.392 . S
C1028 C1031 1.511 . S
C1029 C1025 1.376 . S
C1029 C1028 1.392 . S
C1029 H1041 0.929 . S
C1030 C1026 1.531 . S
C1030 H1042 0.960 . S
C1030 H1043 0.962 . S
C1030 H1044 0.960 . S
C1031 C1028 1.511 . S
C1031 H1045 0.961 . S
C1031 H1046 0.961 . S
C1031 H1047 0.961 . S
C1032 C1033 1.370 . S
C1032 C1034 1.363 . S
C1032 H1048 0.931 . S
C1033 C1032 1.370 . S
C1033 C1037 1.408 . S
C1034 C1032 1.363 . S
C1034 C1035 1.370 . S
C1034 C1038 1.524 . S
C1035 C1027 1.503 . S
C1035 C1034 1.370 . S
C1035 C1036 1.403 . S
C1036 C1035 1.403 . S
C1036 C1037 1.404 . S
C1036 C1039 1.539 . S
C1037 C1033 1.408 . S
C1037 C1036 1.404 . S
C1037 H1049 0.930 . S
C1038 C1034 1.524 . S
C1038 H1050 0.956 . S
C1038 H1051 0.961 . S
C1038 H1052 0.961 . S
C1039 C1036 1.539 . S
C1039 H1053 0.958 . S
C1039 H1054 0.961 . S
C1039 H1055 0.960 . S
H1040 C1024 0.931 . S
H1041 C1029 0.929 . S
H1042 C1030 0.960 . S
H1043 C1030 0.962 . S
H1044 C1030 0.960 . S
H1045 C1031 0.961 . S
H1046 C1031 0.961 . S
H1047 C1031 0.961 . S
H1048 C1032 0.931 . S
H1049 C1037 0.930 . S
H1050 C1038 0.956 . S
H1051 C1038 0.961 . S
H1052 C1038 0.961 . S
H1053 C1039 0.958 . S
H1054 C1039 0.961 . S
H1055 C1039 0.960 . S
C1056 C1057 1.391 . S
C1056 C1058 1.394 . S
C1056 H1072 0.931 . S
C1057 C1056 1.391 . S
C1057 C1061 1.376 . S
C1058 C1056 1.394 . S
C1058 C1059 1.369 . S
C1058 C1062 1.531 . S
C1059 C1058 1.369 . S
C1059 C1060 1.410 . S
C1059 C1067 1.503 . S
C1060 C1059 1.410 . S
C1060 C1061 1.392 . S
C1060 C1063 1.511 . S
C1061 C1057 1.376 . S
C1061 C1060 1.392 . S
C1061 H1073 0.929 . S
C1062 C1058 1.531 . S
C1062 H1074 0.960 . S
C1062 H1075 0.962 . S
C1062 H1076 0.960 . S
C1063 C1060 1.511 . S
C1063 H1077 0.961 . S
C1063 H1078 0.961 . S
C1063 H1079 0.961 . S
C1064 C1065 1.370 . S
C1064 C1066 1.363 . S
C1064 H1080 0.931 . S
C1065 C1064 1.370 . S
C1065 C1069 1.408 . S
C1066 C1064 1.363 . S
C1066 C1067 1.370 . S
C1066 C1070 1.524 . S
C1067 C1059 1.503 . S
C1067 C1066 1.370 . S
C1067 C1068 1.403 . S
C1068 C1067 1.403 . S
C1068 C1069 1.404 . S
C1068 C1071 1.539 . S
C1069 C1065 1.408 . S
C1069 C1068 1.404 . S
C1069 H1081 0.930 . S
C1070 C1066 1.524 . S
C1070 H1082 0.956 . S
C1070 H1083 0.961 . S
C1070 H1084 0.961 . S
C1071 C1068 1.539 . S
C1071 H1085 0.958 . S
C1071 H1086 0.961 . S
C1071 H1087 0.960 . S
H1072 C1056 0.931 . S
H1073 C1061 0.929 . S
H1074 C1062 0.960 . S
H1075 C1062 0.962 . S
H1076 C1062 0.960 . S
H1077 C1063 0.961 . S
H1078 C1063 0.961 . S
H1079 C1063 0.961 . S
H1080 C1064 0.931 . S
H1081 C1069 0.930 . S
H1082 C1070 0.956 . S
H1083 C1070 0.961 . S
H1084 C1070 0.961 . S
H1085 C1071 0.958 . S
H1086 C1071 0.961 . S
H1087 C1071 0.960 . S
C1088 C1089 1.391 . S
C1088 C1090 1.394 . S
C1088 H1104 0.931 . S
C1089 C1088 1.391 . S
C1089 C1093 1.376 . S
C1090 C1088 1.394 . S
C1090 C1091 1.369 . S
C1090 C1094 1.531 . S
C1091 C1090 1.369 . S
C1091 C1092 1.410 . S
C1091 C1099 1.503 . S
C1092 C1091 1.410 . S
C1092 C1093 1.392 . S
C1092 C1095 1.511 . S
C1093 C1089 1.376 . S
C1093 C1092 1.392 . S
C1093 H1105 0.929 . S
C1094 C1090 1.531 . S
C1094 H1106 0.960 . S
C1094 H1107 0.962 . S
C1094 H1108 0.960 . S
C1095 C1092 1.511 . S
C1095 H1109 0.961 . S
C1095 H1110 0.961 . S
C1095 H1111 0.961 . S
C1096 C1097 1.370 . S
C1096 C1098 1.363 . S
C1096 H1112 0.931 . S
C1097 C1096 1.370 . S
C1097 C1101 1.408 . S
C1098 C1096 1.363 . S
C1098 C1099 1.370 . S
C1098 C1102 1.524 . S
C1099 C1091 1.503 . S
C1099 C1098 1.370 . S
C1099 C1100 1.403 . S
C1100 C1099 1.403 . S
C1100 C1101 1.404 . S
C1100 C1103 1.539 . S
C1101 C1097 1.408 . S
C1101 C1100 1.404 . S
C1101 H1113 0.930 . S
C1102 C1098 1.524 . S
C1102 H1114 0.956 . S
C1102 H1115 0.961 . S
C1102 H1116 0.961 . S
C1103 C1100 1.539 . S
C1103 H1117 0.958 . S
C1103 H1118 0.961 . S
C1103 H1119 0.960 . S
H1104 C1088 0.931 . S
H1105 C1093 0.929 . S
H1106 C1094 0.960 . S
H1107 C1094 0.962 . S
H1108 C1094 0.960 . S
H1109 C1095 0.961 . S
H1110 C1095 0.961 . S
H1111 C1095 0.961 . S
H1112 C1096 0.931 . S
H1113 C1101 0.930 . S
H1114 C1102 0.956 . S
H1115 C1102 0.961 . S
H1116 C1102 0.961 . S
H1117 C1103 0.958 . S
H1118 C1103 0.961 . S
H1119 C1103 0.960 . S
C1120 C1121 1.391 . S
C1120 C1122 1.394 . S
C1120 H1136 0.931 . S
C1121 C1120 1.391 . S
C1121 C1125 1.376 . S
C1122 C1120 1.394 . S
C1122 C1123 1.369 . S
C1122 C1126 1.531 . S
C1123 C1122 1.369 . S
C1123 C1124 1.410 . S
C1123 C1131 1.503 . S
C1124 C1123 1.410 . S
C1124 C1125 1.392 . S
C1124 C1127 1.511 . S
C1125 C1121 1.376 . S
C1125 C1124 1.392 . S
C1125 H1137 0.929 . S
C1126 C1122 1.531 . S
C1126 H1138 0.960 . S
C1126 H1139 0.962 . S
C1126 H1140 0.960 . S
C1127 C1124 1.511 . S
C1127 H1141 0.961 . S
C1127 H1142 0.961 . S
C1127 H1143 0.961 . S
C1128 C1129 1.370 . S
C1128 C1130 1.363 . S
C1128 H1144 0.931 . S
C1129 C1128 1.370 . S
C1129 C1133 1.408 . S
C1130 C1128 1.363 . S
C1130 C1131 1.370 . S
C1130 C1134 1.524 . S
C1131 C1123 1.503 . S
C1131 C1130 1.370 . S
C1131 C1132 1.403 . S
C1132 C1131 1.403 . S
C1132 C1133 1.404 . S
C1132 C1135 1.539 . S
C1133 C1129 1.408 . S
C1133 C1132 1.404 . S
C1133 H1145 0.930 . S
C1134 C1130 1.524 . S
C1134 H1146 0.956 . S
C1134 H1147 0.961 . S
C1134 H1148 0.961 . S
C1135 C1132 1.539 . S
C1135 H1149 0.958 . S
C1135 H1150 0.961 . S
C1135 H1151 0.960 . S
H1136 C1120 0.931 . S
H1137 C1125 0.929 . S
H1138 C1126 0.960 . S
H1139 C1126 0.962 . S
H1140 C1126 0.960 . S
H1141 C1127 0.961 . S
H1142 C1127 0.961 . S
H1143 C1127 0.961 . S
H1144 C1128 0.931 . S
H1145 C1133 0.930 . S
H1146 C1134 0.956 . S
H1147 C1134 0.961 . S
H1148 C1134 0.961 . S
H1149 C1135 0.958 . S
H1150 C1135 0.961 . S
H1151 C1135 0.960 . S
C1152 C1153 1.391 1_556 S
C1152 C1154 1.394 . S
C1152 H1168 0.931 . S
C1153 C1152 1.391 1_554 S
C1153 C1157 1.376 . S
C1154 C1152 1.394 . S
C1154 C1155 1.369 1_556 S
C1154 C1158 1.531 . S
C1155 C1154 1.369 1_554 S
C1155 C1156 1.410 . S
C1155 C1163 1.503 1_655 S
C1156 C1155 1.410 . S
C1156 C1157 1.392 . S
C1156 C1159 1.511 1_545 S
C1157 C1153 1.376 . S
C1157 C1156 1.392 . S
C1157 H1169 0.929 1_545 S
C1158 C1154 1.531 . S
C1158 H1170 0.980 . S
C1158 H1171 0.962 . S
C1158 H1172 0.960 . S
C1159 C1156 1.511 1_565 S
C1159 H1173 0.961 . S
C1159 H1174 1.000 . S
C1159 H1175 0.961 1_565 S
C1160 C1161 1.370 1_565 S
C1160 C1162 1.363 . S
C1160 H1176 0.931 1_554 S
C1161 C1160 1.370 1_545 S
C1161 C1165 1.408 . S
C1162 C1160 1.363 . S
C1162 C1163 1.370 1_565 S
C1162 C1166 1.524 1_554 S
C1163 C1155 1.503 1_455 S
C1163 C1162 1.370 1_545 S
C1163 C1164 1.403 . S
C1164 C1163 1.403 . S
C1164 C1165 1.404 . S
C1164 C1167 1.539 . S
C1165 C1161 1.408 . S
C1165 C1164 1.404 . S
C1165 H1177 0.930 . S
C1166 C1162 1.524 1_556 S
C1166 H1178 0.918 1_455 S
C1166 H1179 0.961 1_456 S
C1166 H1180 0.961 . S
C1167 C1164 1.539 . S
C1167 H1181 0.958 . S
C1167 H1182 0.961 . S
C1167 H1183 0.960 1_455 S
H1168 C1152 0.931 . S
H1169 C1157 0.929 1_565 S
H1170 C1158 0.980 . S
H1171 C1158 0.962 . S
H1172 C1158 0.960 . S
H1173 C1159 0.961 . S
H1174 C1159 1.000 . S
H1175 C1159 0.961 1_545 S
H1176 C1160 0.931 1_556 S
H1177 C1165 0.930 . S
H1178 C1166 0.918 1_655 S
H1179 C1166 0.961 1_654 S
H1180 C1166 0.961 . S
H1181 C1167 0.958 . S
H1182 C1167 0.961 . S
H1183 C1167 0.960 1_655 S
C1184 C1185 1.391 . S
C1184 C1186 1.394 . S
C1184 H1200 0.931 . S
C1185 C1184 1.391 . S
C1185 C1189 1.376 . S
C1186 C1184 1.394 . S
C1186 C1187 1.369 . S
C1186 C1190 1.531 . S
C1187 C1186 1.369 . S
C1187 C1188 1.410 . S
C1187 C1195 1.503 . S
C1188 C1187 1.410 . S
C1188 C1189 1.392 . S
C1188 C1191 1.511 . S
C1189 C1185 1.376 . S
C1189 C1188 1.392 . S
C1189 H1201 0.929 . S
C1190 C1186 1.531 . S
C1190 H1202 0.960 . S
C1190 H1203 0.962 . S
C1190 H1204 0.960 . S
C1191 C1188 1.511 . S
C1191 H1205 0.961 . S
C1191 H1206 0.961 . S
C1191 H1207 0.961 . S
C1192 C1193 1.370 . S
C1192 C1194 1.363 . S
C1192 H1208 0.931 . S
C1193 C1192 1.370 . S
C1193 C1197 1.408 . S
C1194 C1192 1.363 . S
C1194 C1195 1.370 . S
C1194 C1198 1.524 . S
C1195 C1187 1.503 . S
C1195 C1194 1.370 . S
C1195 C1196 1.403 . S
C1196 C1195 1.403 . S
C1196 C1197 1.404 . S
C1196 C1199 1.539 . S
C1197 C1193 1.408 . S
C1197 C1196 1.404 . S
C1197 H1209 0.930 . S
C1198 C1194 1.524 . S
C1198 H1210 0.956 . S
C1198 H1211 0.961 . S
C1198 H1212 0.961 . S
C1199 C1196 1.539 . S
C1199 H1213 0.958 . S
C1199 H1214 0.961 . S
C1199 H1215 0.960 . S
H1200 C1184 0.931 . S
H1201 C1189 0.929 . S
H1202 C1190 0.960 . S
H1203 C1190 0.962 . S
H1204 C1190 0.960 . S
H1205 C1191 0.961 . S
H1206 C1191 0.961 . S
H1207 C1191 0.961 . S
H1208 C1192 0.931 . S
H1209 C1197 0.930 . S
H1210 C1198 0.956 . S
H1211 C1198 0.961 . S
H1212 C1198 0.961 . S
H1213 C1199 0.958 . S
H1214 C1199 0.961 . S
H1215 C1199 0.960 . S
C1216 C1217 1.391 1_565 S
C1216 C1218 1.394 . S
C1216 H1232 0.931 . S
C1217 C1216 1.391 1_545 S
C1217 C1221 1.376 . S
C1218 C1216 1.394 . S
C1218 C1219 1.369 1_565 S
C1218 C1222 1.531 . S
C1219 C1218 1.369 1_545 S
C1219 C1220 1.410 . S
C1219 C1227 1.503 . S
C1220 C1219 1.410 . S
C1220 C1221 1.392 . S
C1220 C1223 1.511 . S
C1221 C1217 1.376 . S
C1221 C1220 1.392 . S
C1221 H1233 0.929 . S
C1222 C1218 1.531 . S
C1222 H1234 0.960 . S
C1222 H1235 0.962 . S
C1222 H1236 0.960 . S
C1223 C1220 1.511 . S
C1223 H1237 0.961 . S
C1223 H1238 0.961 . S
C1223 H1239 0.961 . S
C1224 C1225 1.370 . S
C1224 C1226 1.363 . S
C1224 H1240 0.931 . S
C1225 C1224 1.370 . S
C1225 C1229 1.408 . S
C1226 C1224 1.363 . S
C1226 C1227 1.370 . S
C1226 C1230 1.524 . S
C1227 C1219 1.503 . S
C1227 C1226 1.370 . S
C1227 C1228 1.403 . S
C1228 C1227 1.403 . S
C1228 C1229 1.404 . S
C1228 C1231 1.539 . S
C1229 C1225 1.408 . S
C1229 C1228 1.404 . S
C1229 H1241 0.930 . S
C1230 C1226 1.524 . S
C1230 H1242 0.958 1_545 S
C1230 H1243 0.959 . S
C1230 H1244 0.961 1_545 S
C1231 C1228 1.539 . S
C1231 H1245 0.958 . S
C1231 H1246 0.961 . S
C1231 H1247 0.960 . S
H1232 C1216 0.931 . S
H1233 C1221 0.929 . S
H1234 C1222 0.960 . S
H1235 C1222 0.962 . S
H1236 C1222 0.960 . S
H1237 C1223 0.961 . S
H1238 C1223 0.961 . S
H1239 C1223 0.961 . S
H1240 C1224 0.931 . S
H1241 C1229 0.930 . S
H1242 C1230 0.958 1_565 S
H1243 C1230 0.959 . S
H1244 C1230 0.961 1_565 S
H1245 C1231 0.958 . S
H1246 C1231 0.961 . S
H1247 C1231 0.960 . S
C1248 C1249 1.391 . S
C1248 C1250 1.394 . S
C1248 H1264 0.931 . S
C1249 C1248 1.391 . S
C1249 C1253 1.376 . S
C1250 C1248 1.394 . S
C1250 C1251 1.369 . S
C1250 C1254 1.531 . S
C1251 C1250 1.369 . S
C1251 C1252 1.410 . S
C1251 C1259 1.503 . S
C1252 C1251 1.410 . S
C1252 C1253 1.392 . S
C1252 C1255 1.511 . S
C1253 C1249 1.376 . S
C1253 C1252 1.392 . S
C1253 H1265 0.929 . S
C1254 C1250 1.531 . S
C1254 H1266 0.960 . S
C1254 H1267 0.962 . S
C1254 H1268 0.960 . S
C1255 C1252 1.511 . S
C1255 H1269 0.961 . S
C1255 H1270 0.961 . S
C1255 H1271 0.961 . S
C1256 C1257 1.370 . S
C1256 C1258 1.363 . S
C1256 H1272 0.931 . S
C1257 C1256 1.370 . S
C1257 C1261 1.408 . S
C1258 C1256 1.363 . S
C1258 C1259 1.370 . S
C1258 C1262 1.524 . S
C1259 C1251 1.503 . S
C1259 C1258 1.370 . S
C1259 C1260 1.403 . S
C1260 C1259 1.403 . S
C1260 C1261 1.404 . S
C1260 C1263 1.539 . S
C1261 C1257 1.408 . S
C1261 C1260 1.404 . S
C1261 H1273 0.930 . S
C1262 C1258 1.524 . S
C1262 H1274 0.956 . S
C1262 H1275 0.961 . S
C1262 H1276 0.961 . S
C1263 C1260 1.539 . S
C1263 H1277 0.958 . S
C1263 H1278 0.961 . S
C1263 H1279 0.960 . S
H1264 C1248 0.931 . S
H1265 C1253 0.929 . S
H1266 C1254 0.960 . S
H1267 C1254 0.962 . S
H1268 C1254 0.960 . S
H1269 C1255 0.961 . S
H1270 C1255 0.961 . S
H1271 C1255 0.961 . S
H1272 C1256 0.931 . S
H1273 C1261 0.930 . S
H1274 C1262 0.956 . S
H1275 C1262 0.961 . S
H1276 C1262 0.961 . S
H1277 C1263 0.958 . S
H1278 C1263 0.961 . S
H1279 C1263 0.960 . S
C1280 C1281 1.391 . S
C1280 C1282 1.394 . S
C1280 H1296 0.931 . S
C1281 C1280 1.391 . S
C1281 C1285 1.376 . S
C1282 C1280 1.394 . S
C1282 C1283 1.369 . S
C1282 C1286 1.531 . S
C1283 C1282 1.369 . S
C1283 C1284 1.410 . S
C1283 C1291 1.503 . S
C1284 C1283 1.410 . S
C1284 C1285 1.392 . S
C1284 C1287 1.511 . S
C1285 C1281 1.376 . S
C1285 C1284 1.392 . S
C1285 H1297 0.929 . S
C1286 C1282 1.531 . S
C1286 H1298 0.960 . S
C1286 H1299 0.962 . S
C1286 H1300 0.960 . S
C1287 C1284 1.511 . S
C1287 H1301 0.961 . S
C1287 H1302 0.961 . S
C1287 H1303 0.961 . S
C1288 C1289 1.370 . S
C1288 C1290 1.363 . S
C1288 H1304 0.931 . S
C1289 C1288 1.370 . S
C1289 C1293 1.408 . S
C1290 C1288 1.363 . S
C1290 C1291 1.370 . S
C1290 C1294 1.524 . S
C1291 C1283 1.503 . S
C1291 C1290 1.370 . S
C1291 C1292 1.403 . S
C1292 C1291 1.403 . S
C1292 C1293 1.404 . S
C1292 C1295 1.539 . S
C1293 C1289 1.408 . S
C1293 C1292 1.404 . S
C1293 H1305 0.930 . S
C1294 C1290 1.524 . S
C1294 H1306 0.956 . S
C1294 H1307 0.961 . S
C1294 H1308 0.961 . S
C1295 C1292 1.539 . S
C1295 H1309 0.958 . S
C1295 H1310 0.961 . S
C1295 H1311 0.960 . S
H1296 C1280 0.931 . S
H1297 C1285 0.929 . S
H1298 C1286 0.960 . S
H1299 C1286 0.962 . S
H1300 C1286 0.960 . S
H1301 C1287 0.961 . S
H1302 C1287 0.961 . S
H1303 C1287 0.961 . S
H1304 C1288 0.931 . S
H1305 C1293 0.930 . S
H1306 C1294 0.956 . S
H1307 C1294 0.961 . S
H1308 C1294 0.961 . S
H1309 C1295 0.958 . S
H1310 C1295 0.961 . S
H1311 C1295 0.960 . S
C1312 C1313 1.391 . S
C1312 C1314 1.394 . S
C1312 H1328 0.931 . S
C1313 C1312 1.391 . S
C1313 C1317 1.376 . S
C1314 C1312 1.394 . S
C1314 C1315 1.369 . S
C1314 C1318 1.531 . S
C1315 C1314 1.369 . S
C1315 C1316 1.410 . S
C1315 C1323 1.503 . S
C1316 C1315 1.410 . S
C1316 C1317 1.392 . S
C1316 C1319 1.511 . S
C1317 C1313 1.376 . S
C1317 C1316 1.392 . S
C1317 H1329 0.929 . S
C1318 C1314 1.531 . S
C1318 H1330 0.960 . S
C1318 H1331 0.962 . S
C1318 H1332 0.960 . S
C1319 C1316 1.511 . S
C1319 H1333 0.961 . S
C1319 H1334 0.961 . S
C1319 H1335 0.961 . S
C1320 C1321 1.370 . S
C1320 C1322 1.363 . S
C1320 H1336 0.931 . S
C1321 C1320 1.370 . S
C1321 C1325 1.408 . S
C1322 C1320 1.363 . S
C1322 C1323 1.370 . S
C1322 C1326 1.524 . S
C1323 C1315 1.503 . S
C1323 C1322 1.370 . S
C1323 C1324 1.403 . S
C1324 C1323 1.403 . S
C1324 C1325 1.404 . S
C1324 C1327 1.539 . S
C1325 C1321 1.408 . S
C1325 C1324 1.404 . S
C1325 H1337 0.930 . S
C1326 C1322 1.524 . S
C1326 H1338 0.956 . S
C1326 H1339 0.961 . S
C1326 H1340 0.961 . S
C1327 C1324 1.539 . S
C1327 H1341 0.958 . S
C1327 H1342 0.961 . S
C1327 H1343 0.960 . S
H1328 C1312 0.931 . S
H1329 C1317 0.929 . S
H1330 C1318 0.960 . S
H1331 C1318 0.962 . S
H1332 C1318 0.960 . S
H1333 C1319 0.961 . S
H1334 C1319 0.961 . S
H1335 C1319 0.961 . S
H1336 C1320 0.931 . S
H1337 C1325 0.930 . S
H1338 C1326 0.956 . S
H1339 C1326 0.961 . S
H1340 C1326 0.961 . S
H1341 C1327 0.958 . S
H1342 C1327 0.961 . S
H1343 C1327 0.960 . S
C1344 C1345 1.391 . S
C1344 C1346 1.394 . S
C1344 H1360 0.931 . S
C1345 C1344 1.391 . S
C1345 C1349 1.376 . S
C1346 C1344 1.394 . S
C1346 C1347 1.369 . S
C1346 C1350 1.531 . S
C1347 C1346 1.369 . S
C1347 C1348 1.410 . S
C1347 C1355 1.503 . S
C1348 C1347 1.410 . S
C1348 C1349 1.392 . S
C1348 C1351 1.511 . S
C1349 C1345 1.376 . S
C1349 C1348 1.392 . S
C1349 H1361 0.929 . S
C1350 C1346 1.531 . S
C1350 H1362 0.960 . S
C1350 H1363 0.962 . S
C1350 H1364 0.960 . S
C1351 C1348 1.511 . S
C1351 H1365 0.961 . S
C1351 H1366 0.961 . S
C1351 H1367 0.961 . S
C1352 C1353 1.370 . S
C1352 C1354 1.363 . S
C1352 H1368 0.931 . S
C1353 C1352 1.370 . S
C1353 C1357 1.408 . S
C1354 C1352 1.363 . S
C1354 C1355 1.370 . S
C1354 C1358 1.524 . S
C1355 C1347 1.503 . S
C1355 C1354 1.370 . S
C1355 C1356 1.403 . S
C1356 C1355 1.403 . S
C1356 C1357 1.404 . S
C1356 C1359 1.539 . S
C1357 C1353 1.408 . S
C1357 C1356 1.404 . S
C1357 H1369 0.930 . S
C1358 C1354 1.524 . S
C1358 H1370 0.956 . S
C1358 H1371 0.961 . S
C1358 H1372 0.961 . S
C1359 C1356 1.539 . S
C1359 H1373 0.958 . S
C1359 H1374 0.961 . S
C1359 H1375 0.960 . S
H1360 C1344 0.931 . S
H1361 C1349 0.929 . S
H1362 C1350 0.960 . S
H1363 C1350 0.962 . S
H1364 C1350 0.960 . S
H1365 C1351 0.961 . S
H1366 C1351 0.961 . S
H1367 C1351 0.961 . S
H1368 C1352 0.931 . S
H1369 C1357 0.930 . S
H1370 C1358 0.956 . S
H1371 C1358 0.961 . S
H1372 C1358 0.961 . S
H1373 C1359 0.958 . S
H1374 C1359 0.961 . S
H1375 C1359 0.960 . S
C1376 C1377 1.391 . S
C1376 C1378 1.394 . S
C1376 H1392 0.931 . S
C1377 C1376 1.391 . S
C1377 C1381 1.376 . S
C1378 C1376 1.394 . S
C1378 C1379 1.369 . S
C1378 C1382 1.531 . S
C1379 C1378 1.369 . S
C1379 C1380 1.410 . S
C1379 C1387 1.503 1_655 S
C1380 C1379 1.410 . S
C1380 C1381 1.392 . S
C1380 C1383 1.511 . S
C1381 C1377 1.376 . S
C1381 C1380 1.392 . S
C1381 H1393 0.929 . S
C1382 C1378 1.531 . S
C1382 H1394 0.993 . S
C1382 H1395 0.962 . S
C1382 H1396 0.960 . S
C1383 C1380 1.511 . S
C1383 H1397 0.961 . S
C1383 H1398 0.979 . S
C1383 H1399 0.961 . S
C1384 C1385 1.370 1_556 S
C1384 C1386 1.367 . S
C1384 H1400 0.931 . S
C1385 C1384 1.370 1_554 S
C1385 C1389 1.408 . S
C1386 C1384 1.367 . S
C1386 C1387 1.330 1_556 S
C1386 C1390 1.562 . S
C1387 C1379 1.503 1_455 S
C1387 C1386 1.330 1_554 S
C1387 C1388 1.403 . S
C1388 C1387 1.403 . S
C1388 C1389 1.404 . S
C1388 C1391 1.539 . S
C1389 C1385 1.408 . S
C1389 C1388 1.404 . S
C1389 H1401 0.930 . S
C1390 C1386 1.562 . S
C1390 H1402 0.956 1_455 S
C1390 H1403 0.961 1_455 S
C1390 H1404 0.961 . S
C1391 C1388 1.539 . S
C1391 H1405 0.958 . S
C1391 H1406 0.961 . S
C1391 H1407 0.960 1_455 S
H1392 C1376 0.931 . S
H1393 C1381 0.929 . S
H1394 C1382 0.993 . S
H1395 C1382 0.962 . S
H1396 C1382 0.960 . S
H1397 C1383 0.961 . S
H1398 C1383 0.979 . S
H1399 C1383 0.961 . S
H1400 C1384 0.931 . S
H1401 C1389 0.930 . S
H1402 C1390 0.956 1_655 S
H1403 C1390 0.961 1_655 S
H1404 C1390 0.961 . S
H1405 C1391 0.958 . S
H1406 C1391 0.961 . S
H1407 C1391 0.960 1_655 S
C641 C21 1.488 . S
C649 C141 1.490 . S
C673 C61 1.478 . S
C681 C15 1.500 . S
C705 C55 1.498 . S
C713 C82 1.494 . S
C737 C135 1.500 . S
C745 C95 1.503 . S
C769 C301 1.466 . S
C777 C162 1.495 . S
C801 C175 1.494 . S
C809 C221 1.488 . S
C833 C261 1.494 . S
C841 C215 1.499 . S
C865 C295 1.499 . S
C873 C255 1.509 . S
C897 C461 1.498 . S
C905 C341 1.499 . S
C929 C335 1.497 . S
C937 C381 1.489 . S
C961 C402 1.481 . S
C969 C375 1.500 . S
C993 C415 1.497 . S
C1001 C455 1.505 . S
C1025 C482 1.484 . S
C1033 C621 1.483 . S
C1057 C541 1.475 . S
C1065 C495 1.500 . S
C1089 C535 1.497 . S
C1097 C581 1.486 . S
C1121 C575 1.505 . S
C1129 C615 1.510 . S
C1153 C181 1.499 . S
C1161 C2 1.482 . S
C1185 C522 1.492 . S
C1193 C42 1.481 . S
C1217 C101 1.468 . S
C1225 C242 1.488 . S
C1249 C602 1.482 . S
C1257 C122 1.513 . S
C1281 C362 1.499 . S
C1289 C202 1.495 . S
C1313 C282 1.480 . S
C1321 C442 1.512 . S
C1345 C501 1.498 . S
C1353 C322 1.484 . S
C1377 C421 1.494 . S
C1385 C562 1.483 . S
