# Generated by pormake.
# Topology yff, (5)-cn, num edge types: 1
# Building blocks:
#     Node 0, Type 0, BuildingBlock: XOMCOT_clean_sbu_1, # of connection points: 5
#     Node 1, Type 0, BuildingBlock: XOMCOT_clean_sbu_1, # of connection points: 5
#     Node 2, Type 0, BuildingBlock: XOMCOT_clean_sbu_1, # of connection points: 5
#     Node 3, Type 0, BuildingBlock: XOMCOT_clean_sbu_1, # of connection points: 5
#     Node 4, Type 0, BuildingBlock: XOMCOT_clean_sbu_1, # of connection points: 5
#     Node 5, Type 0, BuildingBlock: XOMCOT_clean_sbu_1, # of connection points: 5
#     Node 6, Type 0, BuildingBlock: XOMCOT_clean_sbu_1, # of connection points: 5
#     Node 7, Type 0, BuildingBlock: XOMCOT_clean_sbu_1, # of connection points: 5
#     Node 8, Type 0, BuildingBlock: XOMCOT_clean_sbu_1, # of connection points: 5
#     Node 9, Type 0, BuildingBlock: XOMCOT_clean_sbu_1, # of connection points: 5
#     Node 10, Type 0, BuildingBlock: XOMCOT_clean_sbu_1, # of connection points: 5
#     Node 11, Type 0, BuildingBlock: XOMCOT_clean_sbu_1, # of connection points: 5
#     Node 12, Type 0, BuildingBlock: XOMCOT_clean_sbu_1, # of connection points: 5
#     Node 13, Type 0, BuildingBlock: XOMCOT_clean_sbu_1, # of connection points: 5
#     Node 14, Type 0, BuildingBlock: XOMCOT_clean_sbu_1, # of connection points: 5
#     Node 15, Type 0, BuildingBlock: XOMCOT_clean_sbu_1, # of connection points: 5
#     Edge 16, Type (0, 0), BuildingBlock: MIFKUJ_clean_linker_0, # of connection points: 2
#     Edge 17, Type (0, 0), BuildingBlock: MIFKUJ_clean_linker_0, # of connection points: 2
#     Edge 18, Type (0, 0), BuildingBlock: MIFKUJ_clean_linker_0, # of connection points: 2
#     Edge 19, Type (0, 0), BuildingBlock: MIFKUJ_clean_linker_0, # of connection points: 2
#     Edge 20, Type (0, 0), BuildingBlock: MIFKUJ_clean_linker_0, # of connection points: 2
#     Edge 21, Type (0, 0), BuildingBlock: MIFKUJ_clean_linker_0, # of connection points: 2
#     Edge 22, Type (0, 0), BuildingBlock: MIFKUJ_clean_linker_0, # of connection points: 2
#     Edge 23, Type (0, 0), BuildingBlock: MIFKUJ_clean_linker_0, # of connection points: 2
#     Edge 24, Type (0, 0), BuildingBlock: MIFKUJ_clean_linker_0, # of connection points: 2
#     Edge 25, Type (0, 0), BuildingBlock: MIFKUJ_clean_linker_0, # of connection points: 2
#     Edge 26, Type (0, 0), BuildingBlock: MIFKUJ_clean_linker_0, # of connection points: 2
#     Edge 27, Type (0, 0), BuildingBlock: MIFKUJ_clean_linker_0, # of connection points: 2
#     Edge 28, Type (0, 0), BuildingBlock: MIFKUJ_clean_linker_0, # of connection points: 2
#     Edge 29, Type (0, 0), BuildingBlock: MIFKUJ_clean_linker_0, # of connection points: 2
#     Edge 30, Type (0, 0), BuildingBlock: MIFKUJ_clean_linker_0, # of connection points: 2
#     Edge 31, Type (0, 0), BuildingBlock: MIFKUJ_clean_linker_0, # of connection points: 2
#     Edge 32, Type (0, 0), BuildingBlock: MIFKUJ_clean_linker_0, # of connection points: 2
#     Edge 33, Type (0, 0), BuildingBlock: MIFKUJ_clean_linker_0, # of connection points: 2
#     Edge 34, Type (0, 0), BuildingBlock: MIFKUJ_clean_linker_0, # of connection points: 2
#     Edge 35, Type (0, 0), BuildingBlock: MIFKUJ_clean_linker_0, # of connection points: 2
#     Edge 36, Type (0, 0), BuildingBlock: MIFKUJ_clean_linker_0, # of connection points: 2
#     Edge 37, Type (0, 0), BuildingBlock: MIFKUJ_clean_linker_0, # of connection points: 2
#     Edge 38, Type (0, 0), BuildingBlock: MIFKUJ_clean_linker_0, # of connection points: 2
#     Edge 39, Type (0, 0), BuildingBlock: MIFKUJ_clean_linker_0, # of connection points: 2
#     Edge 40, Type (0, 0), BuildingBlock: MIFKUJ_clean_linker_0, # of connection points: 2
#     Edge 41, Type (0, 0), BuildingBlock: MIFKUJ_clean_linker_0, # of connection points: 2
#     Edge 42, Type (0, 0), BuildingBlock: MIFKUJ_clean_linker_0, # of connection points: 2
#     Edge 43, Type (0, 0), BuildingBlock: MIFKUJ_clean_linker_0, # of connection points: 2
#     Edge 44, Type (0, 0), BuildingBlock: MIFKUJ_clean_linker_0, # of connection points: 2
#     Edge 45, Type (0, 0), BuildingBlock: MIFKUJ_clean_linker_0, # of connection points: 2
#     Edge 46, Type (0, 0), BuildingBlock: MIFKUJ_clean_linker_0, # of connection points: 2
#     Edge 47, Type (0, 0), BuildingBlock: MIFKUJ_clean_linker_0, # of connection points: 2
#     Edge 48, Type (0, 0), BuildingBlock: MIFKUJ_clean_linker_0, # of connection points: 2
#     Edge 49, Type (0, 0), BuildingBlock: MIFKUJ_clean_linker_0, # of connection points: 2
#     Edge 50, Type (0, 0), BuildingBlock: MIFKUJ_clean_linker_0, # of connection points: 2
#     Edge 51, Type (0, 0), BuildingBlock: MIFKUJ_clean_linker_0, # of connection points: 2
#     Edge 52, Type (0, 0), BuildingBlock: MIFKUJ_clean_linker_0, # of connection points: 2
#     Edge 53, Type (0, 0), BuildingBlock: MIFKUJ_clean_linker_0, # of connection points: 2
#     Edge 54, Type (0, 0), BuildingBlock: MIFKUJ_clean_linker_0, # of connection points: 2
#     Edge 55, Type (0, 0), BuildingBlock: MIFKUJ_clean_linker_0, # of connection points: 2
# Relax obj value: 0.474
# Max RMSD: 0.307
# Mean RMSD: 0.307
data_MOF--net-yff--node1-XOMCOT_clean_sbu_1--edge1-MIFKUJ_clean_linker_0
_symmetry_space_group_name_H-M    P1
_symmetry_Int_Tables_number       1
_symmetry_cell_setting            triclinic
loop_
_symmetry_equiv_pos_as_xyz
'x, y, z'
_cell_length_a     75.08585
_cell_length_b     75.160725
_cell_length_c     37.785834
_cell_angle_alpha  90.025484
_cell_angle_beta   89.967591
_cell_angle_gamma 89.985887
loop_
_atom_site_label
_atom_site_type_symbol
_atom_site_fract_x
_atom_site_fract_y
_atom_site_fract_z
_atom_type_partial_charge
C0 C 0.10522 0.98403 0.41844 0.0
C1 C 0.09502 0.97319 0.39734 0.0
N2 N 0.08795 0.98319 0.3713 0.0
N3 N 0.10468 0.00073 0.40559 0.0
C4 C 0.09399 -0.00012 0.377 0.0
H5 H 0.11239 0.98011 0.442 0.0
Co6 Co 0.11496 0.02005 0.42775 0.0
C7 C 0.13029 0.04011 0.36742 0.0
O8 O 0.14582 0.04064 0.38347 0.0
N9 N 0.12438 0.03939 0.45277 0.0
C10 C 0.12789 0.06644 0.47583 0.0
C11 C 0.12597 0.05686 0.44494 0.0
C12 C 0.1249 0.03886 0.48845 0.0
N13 N 0.12697 0.05505 0.50326 0.0
O14 O 0.09213 0.02999 0.43391 0.0
H15 H 0.12386 0.0627 0.4192 0.0
H16 H 0.12237 0.02685 0.50334 0.0
O17 O 0.11695 0.0327 0.38245 0.0
C18 C 0.08336 0.02524 0.46101 0.0
O19 O 0.09074 0.01417 0.48357 0.0
N20 N 0.1376 0.0094 0.42169 0.0
C21 C 0.171 0.99404 0.41196 0.0
C22 C 0.15904 0.99527 0.38374 0.0
C23 C 0.14231 0.00272 0.38928 0.0
C24 C 0.14851 0.00682 0.45008 0.0
C25 C 0.16539 -0.00063 0.44573 0.0
H26 H 0.13329 0.00358 0.36707 0.0
H27 H 0.14435 0.01059 0.47626 0.0
H28 H 0.0902 0.01138 0.3615 0.0
H29 H 0.09294 0.95906 0.40096 0.0
H30 H 0.12815 0.0808 0.47798 0.0
H31 H 0.16273 0.99088 0.35742 0.0
H32 H 0.1742 -0.00153 0.46835 0.0
C33 C 0.4954 0.12417 0.89451 0.0
C34 C 0.50684 0.11632 0.87053 0.0
N35 N 0.50145 0.09941 0.86504 0.0
N36 N 0.48283 0.11227 0.90383 0.0
C37 C 0.48698 0.09735 0.8858 0.0
H38 H 0.49611 0.13767 0.90434 0.0
Co39 Co 0.46377 0.11439 0.93491 0.0
C40 C 0.43681 0.09103 0.89527 0.0
O41 O 0.42806 0.08369 0.92158 0.0
N42 N 0.4449 0.11613 0.96666 0.0
C43 C 0.41888 0.11882 0.99415 0.0
C44 C 0.42738 0.11923 0.96175 0.0
C45 C 0.44677 0.11421 0.00192 0.0
N46 N 0.43115 0.11552 0.01937 0.0
O47 O 0.47043 0.09265 0.9563 0.0
H48 H 0.42119 0.12153 0.93632 0.0
H49 H 0.45948 0.11208 0.01463 0.0
O50 O 0.44935 0.10198 0.90118 0.0
C51 C 0.48401 0.09239 0.97636 0.0
O52 O 0.49326 0.10705 0.98088 0.0
N53 N 0.45735 0.13606 0.91427 0.0
C54 C 0.44519 0.16821 0.88724 0.0
C55 C 0.44779 0.15361 0.86484 0.0
C56 C 0.45393 0.13761 0.87889 0.0
C57 C 0.45591 0.15042 0.93607 0.0
C58 C 0.44961 0.16662 0.92316 0.0
H59 H 0.45584 0.12646 0.86126 0.0
H60 H 0.45921 0.14916 0.96382 0.0
H61 H 0.47961 0.08507 0.88847 0.0
H62 H 0.51812 0.12266 0.85793 0.0
H63 H 0.40474 0.12049 0.99863 0.0
H64 H 0.44471 0.1544 0.83688 0.0
H65 H 0.4482 0.17778 0.94109 0.0
C66 C 0.3786 0.50404 0.37928 0.0
C67 C 0.38712 0.51419 0.35394 0.0
N68 N 0.4013 0.50497 0.34178 0.0
N69 N 0.38732 0.48848 0.38272 0.0
C70 C 0.40085 0.48936 0.35934 0.0
H71 H 0.36763 0.50822 0.39587 0.0
Co72 Co 0.3859 0.47167 0.41847 0.0
C73 C 0.38625 0.43868 0.37493 0.0
O74 O 0.37243 0.43225 0.39207 0.0
N75 N 0.38565 0.45516 0.45571 0.0
C76 C 0.39442 0.43385 0.49277 0.0
C77 C 0.39306 0.43878 0.45792 0.0
C78 C 0.38329 0.46007 0.48983 0.0
N79 N 0.38838 0.44734 0.51282 0.0
O80 O 0.40991 0.47615 0.42982 0.0
H81 H 0.39904 0.43149 0.43643 0.0
H82 H 0.37955 0.47341 0.49768 0.0
O83 O 0.39308 0.45352 0.38427 0.0
C84 C 0.41266 0.48992 0.44858 0.0
O85 O 0.39912 0.50016 0.45696 0.0
N86 N 0.36154 0.46792 0.40832 0.0
C87 C 0.32602 0.45881 0.39782 0.0
C88 C 0.33761 0.46032 0.3689 0.0
C89 C 0.35534 0.4652 0.37469 0.0
C90 C 0.34986 0.46861 0.43592 0.0
C91 C 0.33214 0.46374 0.43141 0.0
H92 H 0.3643 0.46592 0.35232 0.0
H93 H 0.35423 0.47265 0.46181 0.0
H94 H 0.41089 0.47912 0.35707 0.0
H95 H 0.38387 0.52778 0.34709 0.0
H96 H 0.4005 0.42177 0.5026 0.0
H97 H 0.33325 0.45705 0.34237 0.0
H98 H 0.32333 0.46362 0.45413 0.0
C99 C 0.95956 0.38604 0.91533 0.0
C100 C 0.94815 0.39638 0.89568 0.0
N101 N 0.95786 0.40855 0.8779 0.0
N102 N 0.9764 0.3915 0.90959 0.0
C103 C 0.97496 0.40521 0.88674 0.0
H104 H 0.95581 0.37562 0.93361 0.0
Co105 Co 0.99641 0.38429 0.93419 0.0
C106 C 0.02109 0.37517 0.87542 0.0
O107 O 0.02445 0.35965 0.89002 0.0
N108 N 0.01635 0.37793 0.96128 0.0
C109 C 0.04299 0.37725 0.98725 0.0
C110 C 0.03411 0.37888 0.95552 0.0
C111 C 0.01489 0.37646 0.99676 0.0
N112 N 0.0308 0.37593 0.01317 0.0
O113 O 0.00164 0.40827 0.94422 0.0
H114 H 0.0404 0.38241 0.93085 0.0
H115 H 0.00227 0.37694 0.01053 0.0
O116 O 0.0106 0.38613 0.89082 0.0
C117 C 0.99441 0.41542 0.97105 0.0
O118 O 0.98367 0.40589 0.9909 0.0
N119 N 0.99067 0.36027 0.92459 0.0
C120 C 0.98479 0.32437 0.91073 0.0
C121 C 0.98381 0.33691 0.88341 0.0
C122 C 0.98653 0.35485 0.891 0.0
C123 C 0.98964 0.34849 0.95192 0.0
C124 C 0.98705 0.33043 0.94555 0.0
H125 H 0.98602 0.36433 0.86952 0.0
H126 H 0.9912 0.35288 0.97884 0.0
H127 H 0.98619 0.41326 0.87862 0.0
H128 H 0.93379 0.39526 0.89529 0.0
H129 H 0.0572 0.37864 0.99123 0.0
H130 H 0.98157 0.33284 0.85628 0.0
H131 H 0.98771 0.32124 0.9676 0.0
C132 C 0.60717 0.96196 0.60347 0.0
C133 C 0.60266 0.97586 0.62527 0.0
N134 N 0.58814 0.97119 0.64414 0.0
N135 N 0.59566 0.9485 0.60858 0.0
C136 C 0.5841 0.9545 0.6333 0.0
H137 H 0.61796 0.96175 0.58448 0.0
Co138 Co 0.59621 0.92787 0.58164 0.0
C139 C 0.58725 0.8999 0.63275 0.0
O140 O 0.60093 0.89067 0.62105 0.0
N141 N 0.59648 0.90794 0.5518 0.0
C142 C 0.58707 0.88561 0.51779 0.0
C143 C 0.58595 0.89333 0.55071 0.0
C144 C 0.60322 0.90908 0.51874 0.0
N145 N 0.59776 0.89572 0.49757 0.0
O146 O 0.57442 0.93466 0.56097 0.0
H147 H 0.57631 0.88961 0.57057 0.0
H148 H 0.61059 0.92051 0.50937 0.0
O149 O 0.58345 0.91488 0.61855 0.0
C150 C 0.57566 0.94515 0.53472 0.0
O151 O 0.59157 0.94957 0.52316 0.0
N152 N 0.61844 0.92202 0.60231 0.0
C153 C 0.65227 0.92099 0.63248 0.0
C154 C 0.63721 0.92291 0.65382 0.0
C155 C 0.62045 0.92351 0.63825 0.0
C156 C 0.63302 0.9197 0.58128 0.0
C157 C 0.65007 0.91888 0.5959 0.0
H158 H 0.60916 0.92627 0.6551 0.0
H159 H 0.63179 0.91966 0.55294 0.0
H160 H 0.5729 0.94682 0.64284 0.0
H161 H 0.60929 0.98863 0.62617 0.0
H162 H 0.57897 0.87469 0.50827 0.0
H163 H 0.63845 0.92485 0.68213 0.0
H164 H 0.6615 0.91793 0.57849 0.0
C165 C 0.54584 0.59634 0.07569 0.0
C166 C 0.53137 0.59303 0.0968 0.0
N167 N 0.5358 0.58037 0.12057 0.0
N168 N 0.55946 0.58592 0.08596 0.0
C169 C 0.55299 0.57628 0.11325 0.0
H170 H 0.54629 0.6054 0.05349 0.0
Co171 Co 0.58105 0.58483 0.06201 0.0
C172 C 0.607 0.58008 0.12204 0.0
O173 O 0.61813 0.59208 0.11005 0.0
N174 N 0.60257 0.5839 0.03565 0.0
C175 C 0.62674 0.59207 0.00529 0.0
C176 C 0.6165 0.59532 0.0348 0.0
C177 C 0.60477 0.57393 0.00615 0.0
N178 N 0.61918 0.57871 0.98696 0.0
O179 O 0.57606 0.56069 0.05088 0.0
H180 H 0.61828 0.60657 0.05222 0.0
H181 H 0.59534 0.56404 0.99754 0.0
O182 O 0.5927 0.57667 0.10512 0.0
C183 C 0.5639 0.55855 0.02784 0.0
O184 O 0.55763 0.57261 0.01133 0.0
N185 N 0.58453 0.6088 0.07241 0.0
C186 C 0.57738 0.64467 0.08246 0.0
C187 C 0.58044 0.63355 0.11156 0.0
C188 C 0.58375 0.61551 0.10599 0.0
C189 C 0.58267 0.61966 0.04382 0.0
C190 C 0.57923 0.63772 0.04824 0.0
H191 H 0.58382 0.60679 0.12866 0.0
H192 H 0.58245 0.614 0.01749 0.0
H193 H 0.56065 0.56621 0.1268 0.0
H194 H 0.51839 0.59905 0.09368 0.0
H195 H 0.6379 0.60003 0.99649 0.0
H196 H 0.57869 0.63838 0.13835 0.0
H197 H 0.57691 0.64594 0.02515 0.0
C198 C 0.86095 0.55811 0.63287 0.0
C199 C 0.86363 0.54617 0.66003 0.0
N200 N 0.88107 0.54616 0.66824 0.0
N201 N 0.87671 0.56544 0.62353 0.0
C202 C 0.88848 0.5583 0.64656 0.0
H203 H 0.84824 0.5608 0.62078 0.0
Co204 Co 0.88382 0.58174 0.58802 0.0
C205 C 0.88878 0.60389 0.64214 0.0
O206 O 0.87176 0.60592 0.63503 0.0
N207 N 0.89089 0.59814 0.55453 0.0
C208 C 0.89154 0.62275 0.52231 0.0
C209 C 0.88457 0.61485 0.55205 0.0
C210 C 0.9018 0.5962 0.52644 0.0
N211 N 0.90229 0.61091 0.50602 0.0
O212 O 0.90403 0.56611 0.57603 0.0
H213 H 0.87501 0.62069 0.57003 0.0
H214 H 0.90851 0.58391 0.51997 0.0
O215 O 0.89792 0.5936 0.62251 0.0
C216 C 0.90434 0.54909 0.57376 0.0
O217 O 0.88971 0.53991 0.57951 0.0
N218 N 0.869 0.57105 0.55374 0.0
C219 C 0.84411 0.55367 0.51172 0.0
C220 C 0.83861 0.56565 0.53808 0.0
C221 C 0.85137 0.57455 0.55821 0.0
C222 C 0.87452 0.56172 0.52461 0.0
C223 C 0.86228 0.55253 0.50376 0.0
H224 H 0.84717 0.58348 0.57906 0.0
H225 H 0.88841 0.56066 0.51782 0.0
H226 H 0.9025 0.5616 0.64652 0.0
H227 H 0.8536 0.53768 0.67176 0.0
H228 H 0.88846 0.636 0.51293 0.0
H229 H 0.82468 0.56731 0.54469 0.0
H230 H 0.86703 0.54412 0.48246 0.0
C231 C 0.96116 0.92106 0.04183 0.0
C232 C 0.97577 0.92601 0.06115 0.0
N233 N 0.97084 0.9273 0.09528 0.0
N234 N 0.94703 0.9193 0.06359 0.0
C235 C 0.95337 0.92306 0.0962 0.0
H236 H 0.96072 0.91918 0.01348 0.0
Co237 Co 0.92453 0.9149 0.04555 0.0
C238 C 0.9084 0.93667 0.10474 0.0
O239 O 0.90769 0.95155 0.08658 0.0
N240 N 0.90273 0.91062 0.02466 0.0
C241 C 0.87988 0.91848 0.991 0.0
C242 C 0.88791 0.9207 0.02364 0.0
C243 C 0.90306 0.90199 0.99344 0.0
N244 N 0.88979 0.90709 0.97157 0.0
O245 O 0.92436 0.93845 0.02793 0.0
H246 H 0.88474 0.93103 0.04254 0.0
H247 H 0.9145 0.89432 0.98508 0.0
O248 O 0.91405 0.92245 0.09017 0.0
C249 C 0.9291 0.94132 0.99616 0.0
O250 O 0.93087 0.92773 0.97462 0.0
N251 N 0.92528 0.89164 0.0625 0.0
C252 C 0.93074 0.8593 0.09604 0.0
C253 C 0.91517 0.86904 0.10239 0.0
C254 C 0.91263 0.88523 0.08513 0.0
C255 C 0.93967 0.88155 0.05357 0.0
C256 C 0.94283 0.86541 0.07053 0.0
H257 H 0.90079 0.89288 0.09088 0.0
H258 H 0.94915 0.88638 0.03433 0.0
H259 H 0.94528 0.92338 0.11988 0.0
H260 H 0.98899 0.9286 0.05093 0.0
H261 H 0.86916 0.92661 0.98074 0.0
H262 H 0.90539 0.86454 0.12149 0.0
H263 H 0.95472 0.85789 0.06413 0.0
C264 C 0.88264 0.00772 0.60339 0.0
C265 C 0.89178 0.01835 0.62684 0.0
N266 N 0.9068 0.00981 0.63664 0.0
N267 N 0.89177 0.99249 0.59858 0.0
C268 C 0.90644 0.99416 0.61898 0.0
H269 H 0.87035 0.01105 0.59002 0.0
Co270 Co 0.88601 0.97449 0.56688 0.0
C271 C 0.90084 0.94096 0.60049 0.0
O272 O 0.89861 0.93053 0.573 0.0
N273 N 0.88007 0.95652 0.53337 0.0
C274 C 0.86669 0.93481 0.50288 0.0
C275 C 0.86779 0.94336 0.53518 0.0
C276 C 0.88623 0.95551 0.49973 0.0
N277 N 0.87842 0.94249 0.48075 0.0
O278 O 0.90794 0.97846 0.54387 0.0
H279 H 0.85988 0.94026 0.5583 0.0
H280 H 0.89574 0.96459 0.48837 0.0
O281 O 0.8969 0.95741 0.59872 0.0
C282 C 0.9076 0.99173 0.52295 0.0
O283 O 0.89253 0.00033 0.51845 0.0
N284 N 0.86411 0.97172 0.58947 0.0
C285 C 0.83039 0.96862 0.6188 0.0
C286 C 0.84542 0.96364 0.63825 0.0
C287 C 0.86225 0.96562 0.62335 0.0
C288 C 0.84968 0.97735 0.57074 0.0
C289 C 0.8326 0.97589 0.58494 0.0
H290 H 0.87367 0.96235 0.63937 0.0
H291 H 0.85149 0.98272 0.54442 0.0
H292 H 0.91676 0.98414 0.62047 0.0
H293 H 0.88788 0.03157 0.63511 0.0
H294 H 0.85788 0.92393 0.49614 0.0
H295 H 0.84415 0.95834 0.6648 0.0
H296 H 0.82122 0.97991 0.56926 0.0
C297 C 0.49394 0.88418 0.11959 0.0
C298 C 0.48471 0.89469 0.14306 0.0
N299 N 0.49621 0.90623 0.15818 0.0
N300 N 0.5112 0.88895 0.1201 0.0
C301 C 0.51224 0.90225 0.14397 0.0
H302 H 0.48827 0.87455 0.10153 0.0
Co303 Co 0.52831 0.88265 0.08717 0.0
C304 C 0.55836 0.87383 0.13549 0.0
O305 O 0.56065 0.85813 0.12079 0.0
N306 N 0.54511 0.87725 0.05225 0.0
C307 C 0.56872 0.8757 0.01668 0.0
C308 C 0.56312 0.87709 0.05125 0.0
C309 C 0.54021 0.87672 0.01791 0.0
N310 N 0.55424 0.8756 0.99579 0.0
O311 O 0.53155 0.90696 0.07672 0.0
H312 H 0.57187 0.87942 0.07335 0.0
H313 H 0.52652 0.87788 0.0093 0.0
O314 O 0.54651 0.88446 0.12362 0.0
C315 C 0.51943 0.91409 0.05812 0.0
O316 O 0.5066 0.90402 0.04556 0.0
N317 N 0.52426 0.85841 0.09734 0.0
C318 C 0.51898 0.82238 0.11085 0.0
C319 C 0.52112 0.83441 0.13881 0.0
C320 C 0.52343 0.85243 0.13151 0.0
C321 C 0.52055 0.8471 0.07011 0.0
C322 C 0.51815 0.82899 0.07621 0.0
H323 H 0.52506 0.86155 0.15341 0.0
H324 H 0.51955 0.85197 0.0434 0.0
H325 H 0.52437 0.90957 0.14894 0.0
H326 H 0.47041 0.89466 0.14657 0.0
H327 H 0.58237 0.87613 0.00749 0.0
H328 H 0.52131 0.82991 0.16604 0.0
H329 H 0.51631 0.82019 0.0538 0.0
C330 C 0.62715 0.4665 0.59502 0.0
C331 C 0.61976 0.45599 0.62105 0.0
N332 N 0.6104 0.46651 0.64322 0.0
N333 N 0.6226 0.48358 0.60101 0.0
C334 C 0.6125 0.48317 0.63054 0.0
H335 H 0.63452 0.4619 0.57217 0.0
Co336 Co 0.62556 0.50306 0.57126 0.0
C337 C 0.64205 0.52791 0.6248 0.0
O338 O 0.65628 0.53115 0.60557 0.0
N339 N 0.62754 0.52263 0.54047 0.0
C340 C 0.62806 0.54919 0.51434 0.0
C341 C 0.62987 0.54026 0.54591 0.0
C342 C 0.62351 0.5214 0.50567 0.0
N343 N 0.62402 0.53727 0.48905 0.0
O344 O 0.60095 0.50784 0.57456 0.0
H345 H 0.63167 0.54665 0.57115 0.0
H346 H 0.62004 0.50901 0.49284 0.0
O347 O 0.62976 0.51778 0.61293 0.0
C348 C 0.59196 0.49744 0.55503 0.0
O349 O 0.60044 0.48539 0.53623 0.0
N350 N 0.64982 0.49737 0.56606 0.0
C351 C 0.68492 0.48719 0.5528 0.0
C352 C 0.67872 0.48904 0.58767 0.0
C353 C 0.66099 0.49386 0.59374 0.0
C354 C 0.65532 0.49423 0.53226 0.0
C355 C 0.67284 0.48951 0.52497 0.0
H356 H 0.65623 0.4947 0.62069 0.0
H357 H 0.64609 0.49514 0.51057 0.0
H358 H 0.60606 0.49482 0.64143 0.0
H359 H 0.62027 0.44161 0.62211 0.0
H360 H 0.62889 0.56345 0.51062 0.0
H361 H 0.68744 0.48677 0.61003 0.0
H362 H 0.6769 0.48808 0.49762 0.0
C363 C -0.00112 0.63129 0.11379 0.0
C364 C 0.01037 0.62247 0.13623 0.0
N365 N 0.00239 0.60735 0.14723 0.0
N366 N 0.9837 0.62182 0.11107 0.0
C367 C 0.98635 0.60731 0.13125 0.0
H368 H 0.00137 0.64375 0.10039 0.0
Co369 Co 0.96341 0.62603 0.08442 0.0
C370 C 0.93569 0.62317 0.13992 0.0
O371 O 0.92784 0.63762 0.12799 0.0
N372 N 0.94339 0.62933 0.05568 0.0
C373 C 0.91848 0.62407 0.02554 0.0
C374 C 0.92693 0.6221 0.05753 0.0
C375 C 0.94483 0.63482 0.02177 0.0
N376 N 0.92984 0.63196 0.00291 0.0
O377 O 0.96535 0.60291 0.06587 0.0
H378 H 0.92192 0.61407 0.07898 0.0
H379 H 0.95717 0.63962 0.01054 0.0
O380 O 0.94912 0.61681 0.12345 0.0
C381 C 0.97518 0.59974 0.03927 0.0
O382 O 0.98347 0.61296 0.02358 0.0
N383 N 0.96189 0.64938 0.1033 0.0
C384 C 0.95848 0.68336 0.1318 0.0
C385 C 0.96227 0.66893 0.15369 0.0
C386 C 0.964 0.65205 0.13895 0.0
C387 C 0.95951 0.6636 0.08141 0.0
C388 C 0.95739 0.68069 0.09519 0.0
H389 H 0.96672 0.64102 0.15649 0.0
H390 H 0.95926 0.66193 0.05316 0.0
H391 H 0.9768 0.59658 0.13312 0.0
H392 H 0.02354 0.62691 0.14381 0.0
H393 H 0.90569 0.61845 0.01856 0.0
H394 H 0.96352 0.67063 0.18199 0.0
H395 H 0.95512 0.69175 0.07737 0.0
C396 C 0.39614 0.03116 0.42888 0.0
C397 C 0.40331 0.01898 0.40584 0.0
N398 N 0.41497 0.02749 0.38459 0.0
N399 N 0.4031 0.04731 0.42203 0.0
C400 C 0.41463 0.04465 0.39513 0.0
H401 H 0.38675 0.02837 0.44986 0.0
Co402 Co 0.39856 0.06767 0.4483 0.0
C403 C 0.39762 0.09564 0.39102 0.0
O404 O 0.3837 0.10386 0.40412 0.0
N405 N 0.3939 0.08797 0.47701 0.0
C406 C 0.37869 0.1072 0.51054 0.0
C407 C 0.37917 0.09836 0.47864 0.0
C408 C 0.40219 0.09113 0.50819 0.0
N409 N 0.39316 0.10248 0.52918 0.0
O410 O 0.42298 0.06802 0.46079 0.0
H411 H 0.36823 0.09798 0.4601 0.0
H412 H 0.41355 0.08373 0.51752 0.0
O413 O 0.40402 0.08207 0.40679 0.0
C414 C 0.42602 0.05632 0.48436 0.0
O415 O 0.41234 0.04875 0.50005 0.0
N416 N 0.37462 0.06551 0.43671 0.0
C417 C 0.34241 0.04854 0.42444 0.0
C418 C 0.35232 0.05539 0.39611 0.0
C419 C 0.36857 0.06372 0.40279 0.0
C420 C 0.36455 0.05999 0.46461 0.0
C421 C 0.34827 0.05166 0.45909 0.0
H422 H 0.37705 0.06687 0.38058 0.0
H423 H 0.36991 0.06071 0.49114 0.0
H424 H 0.42279 0.05505 0.38392 0.0
H425 H 0.40059 0.00485 0.40569 0.0
H426 H 0.36776 0.11517 0.52048 0.0
H427 H 0.34834 0.05296 0.36898 0.0
H428 H 0.34088 0.04671 0.48165 0.0
C429 C 0.45617 0.37456 0.88884 0.0
C430 C 0.47117 0.37651 0.86835 0.0
N431 N 0.47314 0.39391 0.86047 0.0
N432 N 0.44852 0.3906 0.89345 0.0
C433 C 0.45915 0.40212 0.876 0.0
H434 H 0.45137 0.3623 0.90038 0.0
Co435 Co 0.42942 0.39564 0.92301 0.0
C436 C 0.40562 0.41571 0.87444 0.0
O437 O 0.39167 0.40638 0.88433 0.0
N438 N 0.41114 0.40068 0.95502 0.0
C439 C 0.39287 0.41472 0.99218 0.0
C440 C 0.39926 0.41414 0.95807 0.0
C441 C 0.41219 0.39386 0.98798 0.0
N442 N 0.40123 0.40207 0.01097 0.0
O443 O 0.44296 0.41364 0.94493 0.0
H444 H 0.39703 0.42448 0.93883 0.0
H445 H 0.42217 0.38424 0.99577 0.0
O446 O 0.42081 0.41287 0.88856 0.0
C447 C 0.45471 0.40917 0.96741 0.0
O448 O 0.4572 0.39222 0.97438 0.0
N449 N 0.41633 0.37711 0.9016 0.0
C450 C 0.40488 0.34539 0.87062 0.0
C451 C 0.40903 0.36017 0.84964 0.0
C452 C 0.41507 0.37575 0.86556 0.0
C453 C 0.41143 0.36317 0.92248 0.0
C454 C 0.40556 0.34724 0.90757 0.0
H455 H 0.42007 0.38618 0.84862 0.0
H456 H 0.41341 0.36374 0.9507 0.0
H457 H 0.4571 0.41637 0.8763 0.0
H458 H 0.48004 0.36589 0.86038 0.0
H459 H 0.38449 0.42503 0.00331 0.0
H460 H 0.40876 0.35936 0.82103 0.0
H461 H 0.403 0.33605 0.92489 0.0
C462 C 0.0985 0.46155 0.40103 0.0
C463 C 0.09564 0.47475 0.37653 0.0
N464 N 0.08043 0.47108 0.35901 0.0
N465 N 0.08528 0.44949 0.39869 0.0
C466 C 0.07444 0.45567 0.37299 0.0
H467 H 0.10921 0.46102 0.42014 0.0
Co468 Co 0.08179 0.43035 0.42901 0.0
C469 C 0.07587 0.40154 0.37629 0.0
O470 O 0.0883 0.39171 0.39105 0.0
N471 N 0.07775 0.41182 0.46131 0.0
C472 C 0.0667 0.38904 0.49196 0.0
C473 C 0.06888 0.3962 0.4588 0.0
C474 C 0.08001 0.41415 0.4965 0.0
N475 N 0.07361 0.40043 0.51566 0.0
O476 O 0.05884 0.4394 0.44016 0.0
H477 H 0.06273 0.39092 0.4353 0.0
H478 H 0.08545 0.42618 0.50794 0.0
O479 O 0.07176 0.41663 0.3897 0.0
C480 C 0.05919 0.45279 0.46077 0.0
O481 O 0.07465 0.45842 0.4726 0.0
N482 N 0.10515 0.42233 0.41885 0.0
C483 C 0.1414 0.41734 0.4054 0.0
C484 C 0.12926 0.41899 0.37748 0.0
C485 C 0.1113 0.42179 0.38474 0.0
C486 C 0.11676 0.42045 0.44633 0.0
C487 C 0.1349 0.41777 0.4402 0.0
H488 H 0.10245 0.42438 0.3628 0.0
H489 H 0.11228 0.42213 0.47321 0.0
H490 H 0.06213 0.44921 0.36546 0.0
H491 H 0.10368 0.48658 0.37315 0.0
H492 H 0.05922 0.37715 0.49837 0.0
H493 H 0.13368 0.41882 0.35019 0.0
H494 H 0.14387 0.41714 0.46261 0.0
C495 C 0.0403 0.10484 0.91979 0.0
C496 C 0.02573 0.09922 0.90087 0.0
N497 N 0.03073 0.08559 0.87984 0.0
N498 N 0.05458 0.09512 0.91021 0.0
C499 C 0.04836 0.08346 0.88596 0.0
H500 H 0.04042 0.11514 0.93978 0.0
Co501 Co 0.07683 0.096 0.93183 0.0
C502 C 0.10067 0.09914 0.86936 0.0
O503 O 0.10878 0.11292 0.88351 0.0
N504 N 0.09871 0.09619 0.95595 0.0
C505 C 0.12536 0.08951 0.9782 0.0
C506 C 0.11529 0.09051 0.94774 0.0
C507 C 0.09904 0.09798 0.99147 0.0
N508 N 0.11501 0.09415 0.00587 0.0
O509 O 0.07512 0.07128 0.93987 0.0
H510 H 0.11951 0.08578 0.92213 0.0
H511 H 0.08716 0.10052 0.00688 0.0
O512 O 0.08825 0.09127 0.88637 0.0
C513 C 0.06633 0.06729 0.96747 0.0
O514 O 0.06185 0.0801 0.98941 0.0
N515 N 0.07738 0.1209 0.92457 0.0
C516 C 0.06672 0.15633 0.91916 0.0
C517 C 0.06779 0.1456 0.88896 0.0
C518 C 0.07298 0.12788 0.89227 0.0
C519 C 0.07741 0.13154 0.95382 0.0
C520 C 0.07238 0.14935 0.95161 0.0
H521 H 0.07163 0.1194 0.86936 0.0
H522 H 0.0797 0.12607 0.97966 0.0
H523 H 0.0565 0.07313 0.87433 0.0
H524 H 0.01246 0.1047 0.9029 0.0
H525 H 0.13891 0.08467 0.97986 0.0
H526 H 0.06312 0.15032 0.86352 0.0
H527 H 0.07175 0.15723 0.9756 0.0
H528 H 0.94131 0.97924 0.53185 0.0
H529 H 0.96865 0.99199 0.50785 0.0
H530 H 0.93804 0.03033 0.44874 0.0
H531 H 0.91047 0.01766 0.47262 0.0
H532 H 0.9751 0.00988 0.41811 0.0
H533 H 0.94978 0.0522 0.50454 0.0
H534 H 0.93189 0.05588 0.55891 0.0
H535 H 0.96929 0.02373 0.61635 0.0
H536 H 0.98729 0.01987 0.56243 0.0
H537 H 0.06284 0.04452 0.41494 0.0
H538 H 0.0304 0.04778 0.41647 0.0
H539 H 0.02881 0.01951 0.51585 0.0
H540 H 0.06105 0.01663 0.51498 0.0
H541 H 0.00383 0.04409 0.51505 0.0
H542 H 0.02621 -0.00163 0.43408 0.0
H543 H 0.04278 0.98794 0.38191 0.0
H544 H 0.01081 0.02108 0.31464 0.0
H545 H 0.99424 0.03204 0.36678 0.0
C546 C 0.94034 0.99012 0.51317 0.0
C547 C 0.92381 -0.00233 0.5046 0.0
C548 C 0.95593 -0.0027 0.49933 0.0
C549 C 0.95521 0.01206 0.47671 0.0
C550 C 0.93873 0.01887 0.46607 0.0
C551 C 0.92307 0.01172 0.48001 0.0
C552 C 0.97176 0.02178 0.46941 0.0
C553 C 0.98126 0.01796 0.43853 0.0
C554 C 0.97966 0.03203 0.49643 0.0
C555 C 0.96988 0.03582 0.5296 0.0
C556 C 0.95421 0.04604 0.5289 0.0
C557 C 0.944 0.04807 0.55957 0.0
C558 C 0.94934 0.03991 0.59102 0.0
C559 C 0.96503 0.0299 0.59197 0.0
C560 C 0.97534 0.02792 0.56145 0.0
C561 C 0.05558 0.03937 0.4375 0.0
C562 C 0.06441 0.02999 0.46452 0.0
C563 C 0.03707 0.04124 0.43829 0.0
C564 C 0.0272 0.03359 0.46591 0.0
C565 C 0.03617 0.02548 0.49421 0.0
C566 C 0.05461 0.02371 0.49356 0.0
C567 C 0.00762 0.03188 0.46387 0.0
C568 C -0.0025 0.03704 0.49338 0.0
C569 C -0.00077 0.02273 0.43554 0.0
C570 C 0.00921 0.01623 0.40431 0.0
C571 C 0.02283 0.00356 0.40819 0.0
C572 C 0.03221 -0.00247 0.3786 0.0
C573 C 0.0279 0.00386 0.34491 0.0
C574 C 0.01418 0.01624 0.34076 0.0
C575 C 0.00481 0.02239 0.37033 0.0
H576 H 0.03514 -0.00084 0.322 0.0
H577 H 0.94144 0.04157 0.61473 0.0
H578 H 0.46465 0.0619 0.9818 0.0
H579 H 0.4736 0.03406 0.00967 0.0
H580 H 0.52363 0.05765 0.04052 0.0
H581 H 0.51476 0.08568 0.01256 0.0
H582 H 0.52797 0.02644 0.0058 0.0
H583 H 0.49448 0.04711 0.10313 0.0
H584 H 0.46932 0.05989 0.13652 0.0
H585 H 0.43621 0.01599 0.10571 0.0
H586 H 0.46096 0.00322 0.07121 0.0
H587 H 0.54437 0.93875 0.07775 0.0
H588 H 0.54142 0.97123 0.07558 0.0
H589 H 0.48886 0.96572 0.03084 0.0
H590 H 0.4917 0.93344 0.03261 0.0
H591 H 0.49083 0.99029 0.08709 0.0
H592 H 0.52242 0.97469 0.97824 0.0
H593 H 0.54749 0.96184 0.94463 0.0
H594 H 0.58395 0.9965 0.99858 0.0
H595 H 0.55909 0.00939 0.03285 0.0
C596 C 0.4775 0.06123 0.99477 0.0
C597 C 0.48908 0.0759 0.99478 0.0
C598 C 0.48251 0.04538 0.011 0.0
C599 C 0.49918 0.04391 0.0275 0.0
C600 C 0.51066 0.05862 0.02813 0.0
C601 C 0.50558 0.07457 0.0121 0.0
C602 C 0.50517 0.0264 0.04053 0.0
C603 C 0.52011 0.01868 0.02432 0.0
C604 C 0.49479 0.0163 0.06446 0.0
C605 C 0.47963 0.02421 0.08442 0.0
C606 C 0.48178 0.04028 0.10308 0.0
C607 C 0.46758 0.04753 0.12225 0.0
C608 C 0.45118 0.03877 0.12323 0.0
C609 C 0.44892 0.02277 0.10493 0.0
C610 C 0.46303 0.01553 0.08554 0.0
C611 C 0.53224 0.94449 0.06725 0.0
C612 C 0.5183 0.93358 0.05511 0.0
C613 C 0.53057 0.96299 0.06617 0.0
C614 C 0.51491 0.97076 0.05316 0.0
C615 C 0.501 0.9599 0.04115 0.0
C616 C 0.50272 0.94147 0.0419 0.0
C617 C 0.51294 0.99023 0.0509 0.0
C618 C 0.49885 -0.00173 0.06927 0.0
C619 C 0.52403 0.00063 0.02892 0.0
C620 C 0.53895 0.99281 0.00845 0.0
C621 C 0.53581 0.97944 0.98318 0.0
C622 C 0.54997 0.97218 0.96396 0.0
C623 C 0.56731 0.9783 0.96956 0.0
C624 C 0.57052 0.99173 0.99434 0.0
C625 C 0.5564 -0.00098 0.01367 0.0
H626 H 0.57826 0.97268 0.95462 0.0
H627 H 0.44023 0.04437 0.13821 0.0
H628 H 0.56952 0.47316 0.52661 0.0
H629 H 0.53743 0.47561 0.51928 0.0
H630 H 0.53799 0.52669 0.57144 0.0
H631 H 0.57042 0.52435 0.57892 0.0
H632 H 0.50992 0.47976 0.56758 0.0
H633 H 0.5061 0.55198 0.52434 0.0
H634 H 0.526 0.57578 0.50284 0.0
H635 H 0.55885 0.53694 0.45093 0.0
H636 H 0.53897 0.51296 0.47161 0.0
H637 H 0.42348 0.5194 0.48492 0.0
H638 H 0.45246 0.52432 0.51302 0.0
H639 H 0.47076 0.47364 0.47363 0.0
H640 H 0.44195 0.46859 0.44554 0.0
H641 H 0.48693 0.52538 0.48431 0.0
H642 H 0.4936 0.45322 0.53872 0.0
H643 H 0.47442 0.42948 0.56268 0.0
H644 H 0.43547 0.46833 0.59362 0.0
H645 H 0.4545 0.49233 0.57022 0.0
C646 C 0.56285 0.48489 0.53675 0.0
C647 C 0.57245 0.49865 0.55304 0.0
C648 C 0.5445 0.4862 0.53275 0.0
C649 C 0.53543 0.50135 0.54469 0.0
C650 C 0.54485 0.51494 0.56194 0.0
C651 C 0.5633 0.51357 0.5662 0.0
C652 C 0.51629 0.503 0.53684 0.0
C653 C 0.50482 0.48975 0.5495 0.0
C654 C 0.50964 0.5164 0.51414 0.0
C655 C 0.52121 0.5307 0.49998 0.0
C656 C 0.51751 0.54855 0.50816 0.0
C657 C 0.52879 0.56206 0.49614 0.0
C658 C 0.54375 0.55785 0.47579 0.0
C659 C 0.54732 0.54016 0.46691 0.0
C660 C 0.53605 0.52661 0.47875 0.0
C661 C 0.43373 0.50935 0.48211 0.0
C662 C 0.43045 0.49355 0.46324 0.0
C663 C 0.45023 0.51221 0.49814 0.0
C664 C 0.46354 0.49921 0.49582 0.0
C665 C 0.46048 0.48368 0.47615 0.0
C666 C 0.44407 0.48086 0.45996 0.0
C667 C 0.48076 0.50164 0.51387 0.0
C668 C 0.49184 0.51566 0.50316 0.0
C669 C 0.48706 0.48894 0.53846 0.0
C670 C 0.47546 0.47457 0.5525 0.0
C671 C 0.48098 0.45671 0.55074 0.0
C672 C 0.47012 0.44321 0.56419 0.0
C673 C 0.45373 0.44739 0.5796 0.0
C674 C 0.44814 0.4651 0.58156 0.0
C675 C 0.45895 0.47866 0.56813 0.0
H676 H 0.44542 0.43689 0.59007 0.0
H677 H 0.55256 0.56832 0.46691 0.0
H678 H 0.99372 0.58783 0.9815 0.0
H679 H 0.00079 0.55686 0.96664 0.0
H680 H 0.97148 0.53906 0.05824 0.0
H681 H 0.96437 0.56976 0.07328 0.0
H682 H 0.00512 0.52426 0.05333 0.0
H683 H 0.95366 0.53478 0.97895 0.0
H684 H 0.93633 0.54995 0.93244 0.0
H685 H 0.97706 0.53798 0.85626 0.0
H686 H 0.99474 0.52292 0.90244 0.0
H687 H 0.98311 0.43408 0.02867 0.0
H688 H 0.98508 0.46614 0.0381 0.0
H689 H 0.01364 0.47188 0.93963 0.0
H690 H 0.01161 0.43979 0.9298 0.0
H691 H 0.98553 0.49393 0.94346 0.0
H692 H 0.03467 0.4791 0.01667 0.0
H693 H 0.05163 0.46365 0.06327 0.0
H694 H 0.01555 0.48351 0.14212 0.0
H695 H -0.00187 0.4988 0.09594 0.0
C696 C 0.98869 0.57729 0.9983 0.0
C697 C 0.97852 0.5812 0.02856 0.0
C698 C 0.99272 0.55966 0.98976 0.0
C699 C 0.98667 0.54577 0.01144 0.0
C700 C 0.97633 0.54965 0.04133 0.0
C701 C 0.97221 0.56719 0.04974 0.0
C702 C 0.99132 0.52712 0.00372 0.0
C703 C 0.00077 0.51753 0.02944 0.0
C704 C 0.98617 0.51868 0.97192 0.0
C705 C 0.97565 0.52796 0.94428 0.0
C706 C 0.95902 0.53556 0.95238 0.0
C707 C 0.94911 0.54409 0.92606 0.0
C708 C 0.95563 0.545 0.89147 0.0
C709 C 0.97205 0.53732 0.8831 0.0
C710 C 0.98202 0.52878 0.90933 0.0
C711 C 0.99 0.44213 0.00922 0.0
C712 C -0.00292 0.43447 0.97838 0.0
C713 C 0.99123 0.46042 0.01478 0.0
C714 C -0.00038 0.47132 0.98967 0.0
C715 C 0.00717 0.46365 0.95935 0.0
C716 C 0.006 0.44533 0.95381 0.0
C717 C -0.00111 0.49084 0.99359 0.0
C718 C 0.99019 0.50065 0.96712 0.0
C719 C 0.00471 0.49946 0.02479 0.0
C720 C 0.01498 0.49 0.05269 0.0
C721 C 0.03021 0.48002 0.04387 0.0
C722 C 0.03993 0.47131 0.07025 0.0
C723 C 0.03465 0.47256 0.10562 0.0
C724 C 0.01962 0.48253 0.1147 0.0
C725 C 0.00981 0.49123 0.08842 0.0
H726 H 0.0422 0.46583 0.12599 0.0
H727 H 0.94797 0.55164 0.87115 0.0
H728 H 0.57396 0.96796 0.47877 0.0
H729 H 0.54895 0.98708 0.46249 0.0
H730 H 0.51678 0.96282 0.54387 0.0
H731 H 0.54164 0.94352 0.56014 0.0
H732 H 0.49751 0.9702 0.48401 0.0
H733 H 0.53836 -5e-05 0.56222 0.0
H734 H 0.56788 0.0107 0.58115 0.0
H735 H 0.57165 0.04288 0.48754 0.0
H736 H 0.54223 0.03208 0.46779 0.0
H737 H 0.43668 0.03428 0.53684 0.0
H738 H 0.46359 0.01616 0.53794 0.0
H739 H 0.4825 0.04217 0.44341 0.0
H740 H 0.45533 0.06037 0.44178 0.0
H741 H 0.50916 0.03468 0.50129 0.0
H742 H 0.46541 0.00661 0.42762 0.0
H743 H 0.43581 0.99509 0.4116 0.0
H744 H 0.43683 0.95982 0.50079 0.0
H745 H 0.46653 0.97108 0.51744 0.0
C746 C 0.56146 0.96648 0.49281 0.0
C747 C 0.55982 0.95445 0.52111 0.0
C748 C 0.54723 0.97741 0.48349 0.0
C749 C 0.5312 0.97654 0.50245 0.0
C750 C 0.52911 0.9637 0.52904 0.0
C751 C 0.54333 0.95272 0.53834 0.0
C752 C 0.51718 0.99001 0.49683 0.0
C753 C 0.50002 0.98428 0.48792 0.0
C754 C 0.52062 0.00839 0.50135 0.0
C755 C 0.5382 0.01506 0.51333 0.0
C756 C 0.54555 0.00922 0.54555 0.0
C757 C 0.56225 0.01533 0.55644 0.0
C758 C 0.57166 0.02743 0.53551 0.0
C759 C 0.56436 0.03348 0.50369 0.0
C760 C 0.54767 0.02737 0.49263 0.0
C761 C 0.4467 0.03643 0.51665 0.0
C762 C 0.44386 0.04861 0.48906 0.0
C763 C 0.46202 0.02605 0.5173 0.0
C764 C 0.47476 0.02771 0.49045 0.0
C765 C 0.47269 0.04075 0.46426 0.0
C766 C 0.45724 0.05115 0.46348 0.0
C767 C 0.4895 0.01482 0.48882 0.0
C768 C 0.50675 0.02064 0.49668 0.0
C769 C 0.4861 0.99649 0.48371 0.0
C770 C 0.46816 0.9898 0.47396 0.0
C771 C 0.45927 0.99653 0.44406 0.0
C772 C 0.44249 0.99001 0.43477 0.0
C773 C 0.43438 0.97683 0.45524 0.0
C774 C 0.44311 0.97005 0.48497 0.0
C775 C 0.45996 0.97644 0.49426 0.0
H776 H 0.42137 0.97184 0.448 0.0
H777 H 0.58459 0.03215 0.54398 0.0
H778 H 0.57563 0.52584 0.05007 0.0
H779 H 0.55928 0.49754 0.04684 0.0
H780 H 0.51603 0.52403 0.99339 0.0
H781 H 0.53226 0.55207 0.99577 0.0
H782 H 0.50671 0.5036 0.05636 0.0
H783 H 0.54076 0.50035 0.94734 0.0
H784 H 0.56703 0.49784 0.90858 0.0
H785 H 0.58282 0.44996 0.96196 0.0
H786 H 0.55678 0.45233 1.00148 0.0
H787 H 0.44966 0.44502 0.96735 0.0
H788 H 0.4701 0.46779 0.98887 0.0
H789 H 0.50628 0.42704 0.02493 0.0
H790 H 0.48581 0.40408 0.00348 0.0
H791 H 0.52218 0.45152 0.98184 0.0
H792 H 0.48747 0.45243 0.08645 0.0
H793 H 0.46045 0.45307 0.12358 0.0
H794 H 0.44594 0.50368 0.07952 0.0
H795 H 0.47273 0.50321 0.04168 0.0
C796 C 0.56274 0.52553 0.03722 0.0
C797 C 0.55521 0.54113 0.02317 0.0
C798 C 0.55346 0.50941 0.03543 0.0
C799 C 0.53648 0.50883 0.02003 0.0
C800 C 0.52912 0.5243 0.00545 0.0
C801 C 0.53847 0.54027 0.00668 0.0
C802 C 0.52583 0.49238 0.02017 0.0
C803 C 0.51004 0.49219 0.04006 0.0
C804 C 0.53064 0.47731 0.99994 0.0
C805 C 0.54697 0.4767 0.97785 0.0
C806 C 0.55004 0.48952 0.95143 0.0
C807 C 0.56483 0.48805 0.92912 0.0
C808 C 0.5766 0.47377 0.93288 0.0
C809 C 0.5737 0.46103 0.95914 0.0
C810 C 0.55894 0.46244 0.9815 0.0
C811 C 0.46185 0.44089 0.98029 0.0
C812 C 0.46622 0.4228 0.9835 0.0
C813 C 0.47344 0.4539 0.99284 0.0
C814 C 0.4896 0.44905 0.00872 0.0
C815 C 0.4938 0.431 0.01291 0.0
C816 C 0.4821 0.41793 1.00065 0.0
C817 C 0.50281 0.46294 0.01721 0.0
C818 C 0.51905 0.46271 0.99891 0.0
C819 C 0.49849 0.47756 0.03907 0.0
C820 C 0.48213 0.47777 0.06119 0.0
C821 C 0.47845 0.46363 0.08446 0.0
C822 C 0.46319 0.46398 0.10568 0.0
C823 C 0.4515 0.47842 0.10395 0.0
C824 C 0.45502 0.49251 0.08089 0.0
C825 C 0.47026 0.49223 0.05958 0.0
H826 H 0.43972 0.47868 0.12048 0.0
H827 H 0.58788 0.47245 0.9153 0.0
H828 H 0.90643 0.51482 0.55136 0.0
H829 H 0.93251 0.49892 0.5301 0.0
H830 H 0.96476 0.5457 0.54676 0.0
H831 H 0.93836 0.56204 0.56711 0.0
H832 H 0.97294 0.53015 0.48553 0.0
H833 H 0.96511 0.51012 0.6053 0.0
H834 H 0.94796 0.49793 0.65544 0.0
H835 H 0.93879 0.44969 0.59742 0.0
H836 H 0.95566 0.46167 0.5467 0.0
H837 H 0.05683 0.48621 0.48772 0.0
H838 H 0.02994 0.50262 0.50359 0.0
H839 H -0.00236 0.45812 0.47093 0.0
H840 H 0.02462 0.44157 0.45444 0.0
H841 H 0.9894 0.47219 0.53923 0.0
H842 H -0.00183 0.49214 0.4201 0.0
H843 H 0.0146 0.50485 0.36955 0.0
H844 H 0.02223 0.55352 0.42704 0.0
H845 H 0.00615 0.54101 0.47822 0.0
C846 C 0.91906 0.52177 0.55066 0.0
C847 C 0.92039 0.53966 0.56127 0.0
C848 C 0.93399 0.51261 0.53857 0.0
C849 C 0.95066 0.52099 0.53753 0.0
C850 C 0.95202 0.53895 0.54756 0.0
C851 C 0.93697 0.54824 0.55928 0.0
C852 C 0.96658 0.51092 0.52585 0.0
C853 C 0.97671 0.51762 0.49763 0.0
C854 C 0.97119 0.49432 0.54109 0.0
C855 C 0.9615 0.48688 0.57203 0.0
C856 C 0.95936 0.49695 0.60315 0.0
C857 C 0.94968 0.49008 0.63167 0.0
C858 C 0.94219 0.47311 0.62949 0.0
C859 C 0.94454 0.46287 0.59898 0.0
C860 C 0.95418 0.46968 0.57036 0.0
C861 C 0.04402 0.47989 0.48383 0.0
C862 C 0.0428 0.46258 0.46993 0.0
C863 C 0.02868 0.48934 0.49273 0.0
C864 C 0.01186 0.4816 0.48819 0.0
C865 C 0.01055 0.46429 0.47448 0.0
C866 C 0.02593 0.4549 0.46505 0.0
C867 C 0.99575 0.49147 0.49906 0.0
C868 C 0.98561 0.48473 0.52719 0.0
C869 C 0.99122 0.50807 0.48388 0.0
C870 C 0.0011 0.51554 0.45321 0.0
C871 C 0.00353 0.50548 0.42216 0.0
C872 C 0.01275 0.51266 0.39333 0.0
C873 C 0.01949 0.52996 0.39513 0.0
C874 C 0.01702 0.54011 0.42572 0.0
C875 C 0.00786 0.53298 0.45464 0.0
H876 H 0.0266 0.53554 0.37284 0.0
H877 H 0.93454 0.46787 0.65141 0.0
H878 H 0.94132 0.95224 0.93172 0.0
H879 H 0.96423 0.97479 0.92163 0.0
H880 H 0.96183 0.98971 0.03183 0.0
H881 H 0.93856 0.96777 0.04185 0.0
H882 H 0.96888 0.01781 0.99115 0.0
H883 H 0.991 0.95714 0.00211 0.0
H884 H 0.99272 0.92553 0.98457 0.0
H885 H 0.00942 0.9407 0.88022 0.0
H886 H 0.00762 0.9724 0.89696 0.0
H887 H 0.05153 0.05243 0.02576 0.0
H888 H 0.02818 0.02985 0.02622 0.0
H889 H 0.03488 0.02208 0.91388 0.0
H890 H 0.05857 0.04443 0.9133 0.0
H891 H 0.02563 0.99071 0.95027 0.0
H892 H 0.00442 0.0503 0.9365 0.0
H893 H 0.00225 0.08226 0.95058 0.0
H894 H 0.98303 0.0698 0.05463 0.0
H895 H 0.98523 0.03772 0.04134 0.0
C896 C 0.94525 0.96075 0.9535 0.0
C897 C 0.93842 0.95801 0.98771 0.0
C898 C 0.95845 0.97348 0.94778 0.0
C899 C 0.96515 0.98337 0.97632 0.0
C900 C 0.95699 0.982 0.00958 0.0
C901 C 0.94364 0.96947 0.01522 0.0
C902 C 0.98165 0.99389 0.97267 0.0
C903 C 0.98131 0.01185 0.98247 0.0
C904 C -0.00225 0.98617 0.9605 0.0
C905 C -0.00094 0.96712 0.9507 0.0
C906 C 0.99497 0.95373 0.97539 0.0
C907 C 0.99595 0.93581 0.9656 0.0
C908 C 0.00113 0.93113 0.93132 0.0
C909 C 0.0054 0.94435 0.90675 0.0
C910 C 0.00442 0.96229 0.91637 0.0
C911 C 0.04845 0.04548 1.00138 0.0
C912 C 0.05663 0.05035 0.96943 0.0
C913 C 0.03507 0.03267 1.00165 0.0
C914 C 0.02957 0.02473 0.96991 0.0
C915 C 0.03893 0.0282 0.93857 0.0
C916 C 0.05247 0.04093 0.93833 0.0
C917 C 0.01281 0.01453 0.96905 0.0
C918 C 0.01316 -0.00334 0.95866 0.0
C919 C 0.99659 0.02237 0.98002 0.0
C920 C 0.99516 0.04163 0.98806 0.0
C921 C -0.00014 0.05437 0.96248 0.0
C922 C -0.00139 0.07251 0.97029 0.0
C923 C 0.99259 0.07806 0.00349 0.0
C924 C 0.98772 0.06548 0.02894 0.0
C925 C 0.98894 0.04732 0.02128 0.0
H926 H 0.99164 0.09211 0.00946 0.0
H927 H 0.00187 0.91725 0.9238 0.0
H928 H 0.10109 0.05501 0.3361 0.0
H929 H 0.09892 0.06698 0.276 0.0
H930 H 0.1535 0.0517 0.25628 0.0
H931 H 0.156 0.04097 0.31701 0.0
H932 H 0.1493 0.08122 0.22782 0.0
H933 H 0.11369 0.02756 0.22328 0.0
H934 H 0.08964 0.00701 0.2407 0.0
H935 H 0.05074 0.04771 0.2209 0.0
H936 H 0.07458 0.06848 0.20329 0.0
H937 H 0.14165 0.07489 0.03695 0.0
H938 H 0.14518 0.06887 0.1001 0.0
H939 H 0.10002 0.10228 0.12323 0.0
H940 H 0.09685 0.10917 0.06056 0.0
H941 H 0.09878 0.06524 0.14955 0.0
H942 H 0.13553 0.11763 0.14866 0.0
H943 H 0.16014 0.13661 0.12765 0.0
H944 H 0.19788 0.09598 0.15515 0.0
H945 H 0.17346 0.07664 0.17585 0.0
C946 C 0.11259 0.05428 0.31884 0.0
C947 C 0.1287 0.04711 0.33111 0.0
C948 C 0.11132 0.06097 0.28438 0.0
C949 C 0.12594 0.05996 0.26109 0.0
C950 C 0.14203 0.05274 0.27354 0.0
C951 C 0.14344 0.04656 0.30827 0.0
C952 C 0.12467 0.06651 0.22392 0.0
C953 C 0.13833 0.07748 0.21068 0.0
C954 C 0.11022 0.06205 0.20145 0.0
C955 C 0.09592 0.04961 0.21234 0.0
C956 C 0.10001 0.03215 0.22289 0.0
C957 C 0.08641 0.02045 0.23273 0.0
C958 C 0.06866 0.02609 0.23211 0.0
C959 C 0.06449 0.04339 0.22145 0.0
C960 C 0.07803 0.0551 0.21144 0.0
C961 C 0.13269 0.08134 0.05535 0.0
C962 C 0.1187 0.09226 0.04326 0.0
C963 C 0.13471 0.0778 0.09149 0.0
C964 C 0.12274 0.085 0.11615 0.0
C965 C 0.10927 0.09647 0.10448 0.0
C966 C 0.10743 0.10026 0.06853 0.0
C967 C 0.12346 0.07959 0.15375 0.0
C968 C 0.10969 0.06889 0.16692 0.0
C969 C 0.13793 0.08402 0.17587 0.0
C970 C 0.15264 0.09561 0.16344 0.0
C971 C 0.14906 0.11267 0.14989 0.0
C972 C 0.16298 0.12351 0.13812 0.0
C973 C 0.18056 0.11748 0.13997 0.0
C974 C 0.18426 0.10062 0.15368 0.0
C975 C 0.17038 0.08972 0.16547 0.0
H976 H 0.19132 0.1259 0.13086 0.0
H977 H 0.05811 0.01709 0.23974 0.0
H978 H 0.40356 0.08284 0.86937 0.0
H979 H 0.39407 0.08424 0.80717 0.0
H980 H 0.44818 0.09521 0.7755 0.0
H981 H 0.4576 0.09404 0.837 0.0
H982 H 0.42603 0.11941 0.74905 0.0
H983 H 0.42865 0.05568 0.75604 0.0
H984 H 0.42163 0.02607 0.78037 0.0
H985 H 0.36606 0.03456 0.75955 0.0
H986 H 0.37273 0.06435 0.73549 0.0
H987 H 0.42458 0.10623 0.56265 0.0
H988 H 0.42977 0.10471 0.62664 0.0
H989 H 0.3732 0.10038 0.6445 0.0
H990 H 0.36799 0.10193 0.58052 0.0
H991 H 0.39356 0.07393 0.67921 0.0
H992 H 0.39232 0.13736 0.66732 0.0
H993 H 0.40058 0.16639 0.64179 0.0
H994 H 0.45517 0.15772 0.67091 0.0
H995 H 0.44728 0.1285 0.69616 0.0
C996 C 0.41345 0.08515 0.849 0.0
C997 C 0.43128 0.08851 0.85807 0.0
C998 C 0.40802 0.08599 0.81351 0.0
C999 C 0.4204 0.09001 0.78672 0.0
C1000 C 0.43836 0.09233 0.79572 0.0
C1001 C 0.44373 0.09159 0.83094 0.0
C1002 C 0.41471 0.09305 0.74958 0.0
C1003 C 0.41907 0.10938 0.7337 0.0
C1004 C 0.40522 0.08018 0.72984 0.0
C1005 C 0.40116 0.06233 0.74439 0.0
C1006 C 0.41491 0.05131 0.75697 0.0
C1007 C 0.411 0.03447 0.77063 0.0
C1008 C 0.3934 0.02846 0.77162 0.0
C1009 C 0.37968 0.03925 0.75884 0.0
C1010 C 0.38352 0.0561 0.74517 0.0
C1011 C 0.41327 0.10528 0.58035 0.0
C1012 C 0.39591 0.10434 0.5667 0.0
C1013 C 0.41622 0.10441 0.6168 0.0
C1014 C 0.40185 0.10243 0.64026 0.0
C1015 C 0.38445 0.10191 0.62681 0.0
C1016 C 0.38148 0.10301 0.59032 0.0
C1017 C 0.40518 0.10013 0.67865 0.0
C1018 C 0.40036 0.08399 0.69473 0.0
C1019 C 0.41443 0.11309 0.69854 0.0
C1020 C 0.41923 0.13067 0.68337 0.0
C1021 C 0.40611 0.14157 0.66801 0.0
C1022 C 0.41072 0.15808 0.65364 0.0
C1023 C 0.42839 0.16388 0.65465 0.0
C1024 C 0.44149 0.1532 0.67011 0.0
C1025 C 0.43695 0.13667 0.68449 0.0
H1026 H 0.43193 0.17666 0.64353 0.0
H1027 H 0.3904 0.01542 0.7822 0.0
H1028 H 0.41819 0.44226 0.34082 0.0
H1029 H 0.42563 0.43188 0.28116 0.0
H1030 H 0.37362 0.40773 0.27249 0.0
H1031 H 0.36662 0.41712 0.33253 0.0
H1032 H 0.39523 0.38784 0.24049 0.0
H1033 H 0.38587 0.45148 0.24183 0.0
H1034 H 0.39146 0.48288 0.25732 0.0
H1035 H 0.44406 0.47933 0.21329 0.0
H1036 H 0.43896 0.44777 0.19832 0.0
H1037 H 0.37389 0.40149 0.05689 0.0
H1038 H 0.37588 0.40331 0.1218 0.0
H1039 H 0.4332 0.40443 0.11472 0.0
H1040 H 0.43123 0.40212 0.05003 0.0
H1041 H 0.41416 0.43392 0.15441 0.0
H1042 H 0.42074 0.3705 0.14715 0.0
H1043 H 0.41256 0.34032 0.12745 0.0
H1044 H 0.36184 0.34523 0.17912 0.0
H1045 H 0.36961 0.37557 0.19867 0.0
C1046 C 0.40852 0.43442 0.32634 0.0
C1047 C 0.39181 0.43054 0.3412 0.0
C1048 C 0.41272 0.42862 0.29217 0.0
C1049 C 0.40002 0.41939 0.2719 0.0
C1050 C 0.38366 0.41483 0.28747 0.0
C1051 C 0.37964 0.42022 0.32186 0.0
C1052 C 0.40316 0.41524 0.23394 0.0
C1053 C 0.39931 0.39798 0.22175 0.0
C1054 C 0.40887 0.42834 0.20936 0.0
C1055 C 0.41212 0.44716 0.21943 0.0
C1056 C 0.39871 0.45731 0.23589 0.0
C1057 C 0.40179 0.47515 0.24452 0.0
C1058 C 0.4181 0.48306 0.23629 0.0
C1059 C 0.43145 0.47314 0.21971 0.0
C1060 C 0.42849 0.45528 0.21123 0.0
C1061 C 0.38686 0.40179 0.06942 0.0
C1062 C 0.40238 0.40147 0.04882 0.0
C1063 C 0.388 0.40281 0.10626 0.0
C1064 C 0.40469 0.4039 0.12282 0.0
C1065 C 0.42023 0.40345 0.1023 0.0
C1066 C 0.41909 0.40203 0.06554 0.0
C1067 C 0.40575 0.40681 0.16136 0.0
C1068 C 0.41038 0.4238 0.17347 0.0
C1069 C 0.40041 0.39364 0.18572 0.0
C1070 C 0.39571 0.37538 0.1741 0.0
C1071 C 0.40777 0.36522 0.15402 0.0
C1072 C 0.40323 0.34806 0.14295 0.0
C1073 C 0.38667 0.34087 0.15196 0.0
C1074 C 0.37465 0.35082 0.17213 0.0
C1075 C 0.37913 0.36799 0.18325 0.0
H1076 H 0.38318 0.32759 0.14337 0.0
H1077 H 0.42037 0.49691 0.24249 0.0
H1078 H 0.07594 0.37097 0.55578 0.0
H1079 H 0.06913 0.36842 0.6189 0.0
H1080 H 0.05901 0.4249 0.62376 0.0
H1081 H 0.06633 0.42751 0.56074 0.0
H1082 H 0.07481 0.41441 0.6828 0.0
H1083 H 0.02468 0.39492 0.6157 0.0
H1084 H 0.00866 0.37769 0.57021 0.0
H1085 H 0.02337 0.32898 0.62184 0.0
H1086 H 0.0397 0.34591 0.66739 0.0
H1087 H 0.01974 0.40688 0.83956 0.0
H1088 H 0.03078 0.41297 0.77967 0.0
H1089 H 0.04998 0.35904 0.7717 0.0
H1090 H 0.03918 0.35286 0.83135 0.0
H1091 H 0.02868 0.36992 0.71458 0.0
H1092 H 0.079 0.39103 0.78243 0.0
H1093 H 0.09364 0.40948 0.82787 0.0
H1094 H 0.07622 0.45688 0.77477 0.0
H1095 H 0.06126 0.4387 0.72925 0.0
C1096 C 0.07245 0.38283 0.57049 0.0
C1097 C 0.07154 0.39939 0.55343 0.0
C1098 C 0.06851 0.38139 0.60647 0.0
C1099 C 0.06315 0.39641 0.62589 0.0
C1100 C 0.06305 0.41312 0.60929 0.0
C1101 C 0.06726 0.41461 0.57334 0.0
C1102 C 0.0568 0.39444 0.66293 0.0
C1103 C 0.06457 0.40484 0.68968 0.0
C1104 C 0.04346 0.38192 0.672 0.0
C1105 C 0.03355 0.37168 0.64478 0.0
C1106 C 0.0246 0.38053 0.61722 0.0
C1107 C 0.01545 0.37082 0.59144 0.0
C1108 C 0.01503 0.35225 0.59308 0.0
C1109 C 0.02372 0.34336 0.62058 0.0
C1110 C 0.03291 0.35301 0.6464 0.0
C1111 C 0.02646 0.39637 0.82516 0.0
C1112 C 0.02858 0.37938 0.8402 0.0
C1113 C 0.03279 0.3999 0.79103 0.0
C1114 C 0.04123 0.38646 0.77139 0.0
C1115 C 0.04351 0.36958 0.78649 0.0
C1116 C 0.03736 0.3661 0.82063 0.0
C1117 C 0.04693 0.38961 0.73441 0.0
C1118 C 0.03893 0.37949 0.70764 0.0
C1119 C 0.05981 0.40257 0.72537 0.0
C1120 C 0.06885 0.4135 0.75265 0.0
C1121 C 0.07815 0.40538 0.78062 0.0
C1122 C 0.08654 0.41579 0.80635 0.0
C1123 C 0.08582 0.43434 0.80427 0.0
C1124 C 0.07675 0.44251 0.77638 0.0
C1125 C 0.06832 0.43216 0.75059 0.0
H1126 H 0.09232 0.44238 0.82422 0.0
H1127 H 0.00794 0.34476 0.5731 0.0
H1128 H 0.55708 0.91391 0.66256 0.0
H1129 H 0.54507 0.90729 0.72132 0.0
H1130 H 0.58557 0.86723 0.73615 0.0
H1131 H 0.59711 0.87319 0.67719 0.0
H1132 H 0.55605 0.85717 0.76793 0.0
H1133 H 0.59217 0.91081 0.76533 0.0
H1134 H 0.59966 0.94029 0.74071 0.0
H1135 H 0.54775 0.95966 0.7689 0.0
H1136 H 0.53999 0.93029 0.79374 0.0
H1137 H 0.57724 0.85996 0.9506 0.0
H1138 H 0.57735 0.86239 0.88592 0.0
H1139 H 0.53074 0.89587 0.89048 0.0
H1140 H 0.53065 0.89358 0.95511 0.0
H1141 H 0.55818 0.90951 0.84799 0.0
H1142 H 0.52562 0.85506 0.86226 0.0
H1143 H 0.52023 0.82487 0.8854 0.0
H1144 H 0.56791 0.80621 0.83473 0.0
H1145 H 0.57374 0.83636 0.8117 0.0
C1146 C 0.56317 0.90344 0.67808 0.0
C1147 C 0.5782 0.89426 0.66551 0.0
C1148 C 0.55633 0.8997 0.71166 0.0
C1149 C 0.5647 0.88706 0.73341 0.0
C1150 C 0.57893 0.87707 0.71988 0.0
C1151 C 0.58557 0.88058 0.68618 0.0
C1152 C 0.56008 0.88549 0.77139 0.0
C1153 C 0.55651 0.86859 0.78547 0.0
C1154 C 0.5605 0.90044 0.79418 0.0
C1155 C 0.56548 0.91838 0.78122 0.0
C1156 C 0.5824 0.9214 0.76639 0.0
C1157 C 0.58669 0.93807 0.75238 0.0
C1158 C 0.5742 0.95183 0.75326 0.0
C1159 C 0.55743 0.949 0.76836 0.0
C1160 C 0.5531 0.93237 0.78251 0.0
C1161 C 0.56702 0.86779 0.93774 0.0
C1162 C 0.5539 0.8765 0.9578 0.0
C1163 C 0.56701 0.86908 0.90089 0.0
C1164 C 0.55394 0.87918 0.88352 0.0
C1165 C 0.54085 0.88793 0.90345 0.0
C1166 C 0.54075 0.8865 0.94029 0.0
C1167 C 0.55444 0.88113 0.84462 0.0
C1168 C 0.55733 0.89813 0.83041 0.0
C1169 C 0.55371 0.8662 0.82186 0.0
C1170 C 0.55017 0.84801 0.83545 0.0
C1171 C 0.53503 0.84455 0.85626 0.0
C1172 C 0.53188 0.82744 0.86933 0.0
C1173 C 0.54374 0.81364 0.86159 0.0
C1174 C 0.55874 0.81692 0.84071 0.0
C1175 C 0.56196 0.83401 0.8276 0.0
H1176 H 0.54128 0.8004 0.87174 0.0
H1177 H 0.57756 0.96471 0.7424 0.0
H1178 H 0.63044 0.59127 0.17244 0.0
H1179 H 0.63273 0.58119 0.23346 0.0
H1180 H 0.59176 0.54208 0.21442 0.0
H1181 H 0.58898 0.55254 0.15333 0.0
H1182 H 0.58526 0.55819 0.27369 0.0
H1183 H 0.63673 0.53041 0.22551 0.0
H1184 H 0.66478 0.52818 0.19181 0.0
H1185 H 0.68935 0.566 0.26158 0.0
H1186 H 0.66137 0.56865 0.29543 0.0
H1187 H 0.60238 0.51894 0.44449 0.0
H1188 H 0.59852 0.52399 0.38091 0.0
H1189 H 0.63454 0.56861 0.38632 0.0
H1190 H 0.63868 0.56343 0.44962 0.0
H1191 H 0.64295 0.54592 0.33271 0.0
H1192 H 0.58976 0.57562 0.37602 0.0
H1193 H 0.56107 0.57829 0.40731 0.0
H1194 H 0.53977 0.53513 0.34604 0.0
H1195 H 0.56835 0.53231 0.31417 0.0
C1196 C 0.62206 0.58037 0.18102 0.0
C1197 C 0.60953 0.5727 0.15799 0.0
C1198 C 0.62344 0.57455 0.21597 0.0
C1199 C 0.61261 0.56068 0.22851 0.0
C1200 C 0.60029 0.55278 0.20537 0.0
C1201 C 0.59874 0.55874 0.17044 0.0
C1202 C 0.61357 0.55516 0.26624 0.0
C1203 C 0.59785 0.55513 0.2864 0.0
C1204 C 0.63 0.55142 0.28306 0.0
C1205 C 0.6469 0.54981 0.26287 0.0
C1206 C 0.64808 0.53834 0.23353 0.0
C1207 C 0.66397 0.53699 0.21442 0.0
C1208 C 0.67882 0.54697 0.22451 0.0
C1209 C 0.67783 0.55829 0.25379 0.0
C1210 C 0.66196 0.5597 0.27298 0.0
C1211 C 0.6095 0.5298 0.4321 0.0
C1212 C 0.62092 0.54074 0.45205 0.0
C1213 C 0.60714 0.53277 0.39585 0.0
C1214 C 0.6162 0.54672 0.37892 0.0
C1215 C 0.62742 0.55778 0.39887 0.0
C1216 C 0.62968 0.55488 0.43508 0.0
C1217 C 0.61472 0.54938 0.34013 0.0
C1218 C 0.63036 0.54877 0.3198 0.0
C1219 C 0.59821 0.55233 0.32313 0.0
C1220 C 0.58125 0.55361 0.34306 0.0
C1221 C 0.57902 0.56658 0.3695 0.0
C1222 C 0.56276 0.56816 0.38724 0.0
C1223 C 0.54863 0.55681 0.37884 0.0
C1224 C 0.55073 0.54388 0.35259 0.0
C1225 C 0.56694 0.54233 0.3346 0.0
H1226 H 0.53604 0.55806 0.39259 0.0
H1227 H 0.69111 0.54591 0.20968 0.0
H1228 H 0.95568 0.63084 0.95236 0.0
H1229 H 0.95126 0.6299 0.88842 0.0
H1230 H 0.89453 0.63478 0.9035 0.0
H1231 H 0.89885 0.63606 0.96755 0.0
H1232 H 0.90377 0.60609 0.86281 0.0
H1233 H 0.91762 0.66854 0.86876 0.0
H1234 H 0.93577 0.69472 0.88439 0.0
H1235 H 0.97885 0.67485 0.82087 0.0
H1236 H 0.96103 0.64841 0.80525 0.0
H1237 H 0.87073 0.62157 0.69361 0.0
H1238 H 0.88129 0.6293 0.75255 0.0
H1239 H 0.93379 0.61035 0.72589 0.0
H1240 H 0.92322 0.6021 0.66655 0.0
H1241 H 0.92951 0.64552 0.77066 0.0
H1242 H 0.91615 0.58325 0.7651 0.0
H1243 H 0.89857 0.55681 0.7499 0.0
H1244 H 0.85523 0.57582 0.81376 0.0
H1245 H 0.87255 0.60267 0.82892 0.0
C1246 C 0.9423 0.6322 0.94216 0.0
C1247 C 0.92758 0.63344 0.96515 0.0
C1248 C 0.9398 0.63159 0.90554 0.0
C1249 C 0.92258 0.63227 0.89129 0.0
C1250 C 0.90793 0.63417 0.91404 0.0
C1251 C 0.91041 0.63483 0.9506 0.0
C1252 C 0.91963 0.62946 0.85299 0.0
C1253 C 0.90924 0.61485 0.84274 0.0
C1254 C 0.92734 0.64051 0.82679 0.0
C1255 C 0.93806 0.65639 0.83616 0.0
C1256 C 0.93102 0.66966 0.85839 0.0
C1257 C 0.94124 0.68457 0.86719 0.0
C1258 C 0.95847 0.68642 0.85371 0.0
C1259 C 0.96551 0.67338 0.83133 0.0
C1260 C 0.95535 0.65844 0.82247 0.0
C1261 C 0.88461 0.61928 0.6999 0.0
C1262 C 0.89611 0.61103 0.67552 0.0
C1263 C 0.89061 0.62377 0.73361 0.0
C1264 C 0.90825 0.6203 0.74344 0.0
C1265 C 0.92013 0.61315 0.71856 0.0
C1266 C 0.91406 0.6084 0.68482 0.0
C1267 C 0.91342 0.62239 0.78086 0.0
C1268 C 0.92418 0.63677 0.79088 0.0
C1269 C 0.90616 0.61109 0.80702 0.0
C1270 C 0.89555 0.59512 0.79766 0.0
C1271 C 0.90274 0.58198 0.77536 0.0
C1272 C 0.89281 0.56689 0.76676 0.0
C1273 C 0.87569 0.56466 0.78057 0.0
C1274 C 0.86848 0.57758 0.80299 0.0
C1275 C 0.87835 0.59275 0.81159 0.0
H1276 H 0.86807 0.55289 0.77413 0.0
H1277 H 0.96636 0.69797 0.86055 0.0
H1278 H 0.91678 0.91094 0.15305 0.0
H1279 H 0.91156 0.91117 0.21668 0.0
H1280 H 0.88542 0.9621 0.20782 0.0
H1281 H 0.89135 0.96231 0.14404 0.0
H1282 H 0.90528 0.96253 0.26365 0.0
H1283 H 0.86209 0.92091 0.21871 0.0
H1284 H 0.85212 0.89466 0.18489 0.0
H1285 H 0.88494 0.86087 0.24921 0.0
H1286 H 0.89526 0.88696 0.28317 0.0
H1287 H 0.85376 0.9328 0.43197 0.0
H1288 H 0.85825 0.93047 0.36775 0.0
H1289 H 0.91421 0.94141 0.38173 0.0
H1290 H 0.90963 0.94424 0.44554 0.0
H1291 H 0.87752 0.91063 0.32325 0.0
H1292 H 0.92976 0.96569 0.32093 0.0
H1293 H 0.93832 0.99202 0.356 0.0
H1294 H 0.88379 -0.00035 0.38682 0.0
H1295 H 0.87491 0.97352 0.35137 0.0
C1296 C 0.90983 0.92218 0.16451 0.0
C1297 C 0.90436 0.93657 0.14328 0.0
C1298 C 0.90679 0.92226 0.20103 0.0
C1299 C 0.89777 0.93649 0.21721 0.0
C1300 C 0.89236 0.95092 0.19608 0.0
C1301 C 0.89568 0.951 0.15955 0.0
C1302 C 0.89411 0.93636 0.2561 0.0
C1303 C 0.89921 0.95115 0.27653 0.0
C1304 C 0.88599 0.92165 0.27326 0.0
C1305 C 0.87953 0.90591 0.25331 0.0
C1306 C 0.86723 0.90789 0.22554 0.0
C1307 C 0.86151 0.89305 0.20636 0.0
C1308 C 0.86791 0.87612 0.21486 0.0
C1309 C 0.87999 0.87399 0.24266 0.0
C1310 C 0.88576 0.8888 0.26191 0.0
C1311 C 0.86703 0.93447 0.42129 0.0
C1312 C 0.8813 0.93893 0.44367 0.0
C1313 C 0.8696 0.93316 0.38461 0.0
C1314 C 0.8865 0.93617 0.36973 0.0
C1315 C 0.90095 0.93954 0.39237 0.0
C1316 C 0.89834 0.9411 0.42886 0.0
C1317 C 0.88893 0.93664 0.33057 0.0
C1318 C 0.88361 0.92196 0.3102 0.0
C1319 C 0.89662 0.95152 0.31336 0.0
C1320 C 0.90169 0.96775 0.33326 0.0
C1321 C 0.91958 0.97318 0.33463 0.0
C1322 C 0.92449 0.98801 0.35476 0.0
C1323 C 0.91161 -0.00248 0.3736 0.0
C1324 C 0.89376 0.99228 0.3722 0.0
C1325 C 0.88878 0.97748 0.35206 0.0
H1326 H 0.91545 0.00893 0.38934 0.0
H1327 H 0.8635 0.86464 0.19994 0.0
H1328 H 0.91905 0.90325 0.92933 0.0
H1329 H 0.92041 0.90628 0.86555 0.0
H1330 H 0.86342 0.91238 0.86128 0.0
H1331 H 0.86183 0.90965 0.92614 0.0
H1332 H 0.88598 0.88679 0.80601 0.0
H1333 H 0.87862 0.94712 0.8558 0.0
H1334 H 0.88747 0.97056 0.89798 0.0
H1335 H 0.94091 0.96919 0.85761 0.0
H1336 H 0.93244 0.94549 0.81559 0.0
H1337 H 0.87716 0.91884 0.63102 0.0
H1338 H 0.87531 0.91069 0.69337 0.0
H1339 H 0.92529 0.93747 0.71289 0.0
H1340 H 0.92611 0.94702 0.65084 0.0
H1341 H 0.9065 0.94555 0.76232 0.0
H1342 H 0.91783 0.88847 0.71406 0.0
H1343 H 0.91451 0.86247 0.67481 0.0
H1344 H 0.86139 0.85411 0.71353 0.0
H1345 H 0.8643 0.88022 0.7527 0.0
C1346 C 0.90665 0.90488 0.91521 0.0
C1347 C 0.89025 0.90627 0.93327 0.0
C1348 C 0.90754 0.90668 0.87852 0.0
C1349 C 0.89206 0.90964 0.85881 0.0
C1350 C 0.87553 0.91011 0.87618 0.0
C1351 C 0.87464 0.9086 0.91317 0.0
C1352 C 0.89352 0.91339 0.82042 0.0
C1353 C 0.89014 0.8997 0.79617 0.0
C1354 C 0.89998 0.9299 0.80804 0.0
C1355 C 0.90493 0.94442 0.83279 0.0
C1356 C 0.89229 0.95171 0.85612 0.0
C1357 C 0.89723 0.96506 0.87996 0.0
C1358 C 0.91474 0.97135 0.88049 0.0
C1359 C 0.92735 0.96432 0.85714 0.0
C1360 C 0.92248 0.95093 0.83331 0.0
C1361 C 0.88796 0.92257 0.64855 0.0
C1362 C 0.90202 0.93315 0.63613 0.0
C1363 C 0.88694 0.91786 0.68429 0.0
C1364 C 0.90035 0.92306 0.70821 0.0
C1365 C 0.91473 0.93323 0.6953 0.0
C1366 C 0.91537 0.9385 0.65975 0.0
C1367 C 0.89872 0.91896 0.74689 0.0
C1368 C 0.90222 0.93258 0.77154 0.0
C1369 C 0.89308 0.90209 0.75968 0.0
C1370 C 0.89123 0.88641 0.73607 0.0
C1371 C 0.90539 0.88117 0.71401 0.0
C1372 C 0.90359 0.8664 0.69181 0.0
C1373 C 0.88773 0.85667 0.69161 0.0
C1374 C 0.87366 0.86168 0.71368 0.0
C1375 C 0.87538 0.87645 0.73592 0.0
H1376 H 0.88637 0.84524 0.67441 0.0
H1377 H 0.91855 0.98168 0.89898 0.0
H1378 H 0.59962 0.86644 0.4565 0.0
H1379 H 0.59786 0.86539 0.39168 0.0
H1380 H 0.59577 0.92272 0.38823 0.0
H1381 H 0.59745 0.92381 0.45277 0.0
H1382 H 0.56834 0.90623 0.35122 0.0
H1383 H 0.63187 0.90319 0.35901 0.0
H1384 H 0.6607 0.89167 0.38018 0.0
H1385 H 0.64861 0.8403 0.33666 0.0
H1386 H 0.61957 0.85143 0.31567 0.0
H1387 H 0.56251 0.90659 0.16557 0.0
H1388 H 0.5744 0.9132 0.22437 0.0
H1389 H 0.58606 0.8575 0.2398 0.0
H1390 H 0.57494 0.85095 0.18058 0.0
H1391 H 0.61082 0.87645 0.26983 0.0
H1392 H 0.54652 0.87766 0.26847 0.0
H1393 H 0.51695 0.8879 0.24858 0.0
H1394 H 0.52938 0.94109 0.28184 0.0
H1395 H 0.55918 0.93123 0.30135 0.0
C1396 C 0.59905 0.87878 0.44177 0.0
C1397 C 0.59879 0.89517 0.45959 0.0
C1398 C 0.59813 0.87819 0.40486 0.0
C1399 C 0.59678 0.894 0.38526 0.0
C1400 C 0.5969 0.9104 0.40293 0.0
C1401 C 0.59802 0.91099 0.43977 0.0
C1402 C 0.59385 0.89333 0.34659 0.0
C1403 C 0.57777 0.90004 0.33325 0.0
C1404 C 0.606 0.88486 0.32348 0.0
C1405 C 0.62347 0.87812 0.33602 0.0
C1406 C 0.63529 0.88939 0.35421 0.0
C1407 C 0.65168 0.88294 0.36613 0.0
C1408 C 0.65647 0.86525 0.35984 0.0
C1409 C 0.64488 0.85399 0.34154 0.0
C1410 C 0.62846 0.86038 0.32959 0.0
C1411 C 0.56791 0.89582 0.1813 0.0
C1412 C 0.56765 0.87823 0.16869 0.0
C1413 C 0.57463 0.8996 0.21492 0.0
C1414 C 0.58072 0.88578 0.23682 0.0
C1415 C 0.58137 0.86837 0.22344 0.0
C1416 C 0.57498 0.86463 0.18959 0.0
C1417 C 0.58517 0.88912 0.27445 0.0
C1418 C 0.60149 0.88287 0.28767 0.0
C1419 C 0.57311 0.89781 0.29761 0.0
C1420 C 0.55516 0.90374 0.28604 0.0
C1421 C 0.543 0.89157 0.27131 0.0
C1422 C 0.5262 0.8973 0.26011 0.0
C1423 C 0.52131 0.91513 0.26395 0.0
C1424 C 0.53321 0.92728 0.27889 0.0
C1425 C 0.55006 0.92163 0.29 0.0
H1426 H 0.50826 0.91952 0.25551 0.0
H1427 H 0.66917 0.86028 0.36908 0.0
H1428 H 0.59693 0.56351 0.93871 0.0
H1429 H 0.60387 0.55522 0.87824 0.0
H1430 H 0.6578 0.57362 0.89188 0.0
H1431 H 0.65112 0.58166 0.95335 0.0
H1432 H 0.64187 0.58552 0.82875 0.0
H1433 H 0.65108 0.53073 0.88988 0.0
H1434 H 0.64366 0.50638 0.931 0.0
H1435 H 0.59757 0.4935 0.86879 0.0
H1436 H 0.60451 0.51798 0.82775 0.0
H1437 H 0.66732 0.54619 0.66245 0.0
H1438 H 0.66571 0.55564 0.72436 0.0
H1439 H 0.61219 0.53505 0.73145 0.0
H1440 H 0.61377 0.52537 0.66994 0.0
H1441 H 0.63173 0.52399 0.78565 0.0
H1442 H 0.6209 0.58003 0.72755 0.0
H1443 H 0.62754 0.60479 0.68685 0.0
H1444 H 0.67609 0.61551 0.74294 0.0
H1445 H 0.66985 0.59064 0.78371 0.0
C1446 C 0.6104 0.56552 0.92944 0.0
C1447 C 0.62351 0.57314 0.95135 0.0
C1448 C 0.61429 0.56086 0.89458 0.0
C1449 C 0.63137 0.56368 0.88067 0.0
C1450 C 0.64452 0.57135 0.90216 0.0
C1451 C 0.64066 0.57594 0.93727 0.0
C1452 C 0.63522 0.55866 0.84352 0.0
C1453 C 0.64 0.57201 0.81936 0.0
C1454 C 0.63244 0.5411 0.83128 0.0
C1455 C 0.62826 0.52629 0.85587 0.0
C1456 C 0.63928 0.5228 0.88515 0.0
C1457 C 0.63516 0.50896 0.90845 0.0
C1458 C 0.62012 0.49843 0.90261 0.0
C1459 C 0.60919 0.50169 0.87341 0.0
C1460 C 0.61322 0.51554 0.85008 0.0
C1461 C 0.65514 0.54383 0.67709 0.0
C1462 C 0.64069 0.53497 0.66128 0.0
C1463 C 0.65424 0.54929 0.71246 0.0
C1464 C 0.63881 0.5461 0.73251 0.0
C1465 C 0.62426 0.53758 0.71653 0.0
C1466 C 0.62517 0.53209 0.6813 0.0
C1467 C 0.63796 0.55092 0.77057 0.0
C1468 C 0.63378 0.53748 0.79499 0.0
C1469 C 0.64124 0.5684 0.78293 0.0
C1470 C 0.64502 0.58334 0.75842 0.0
C1471 C 0.63308 0.58756 0.73101 0.0
C1472 C 0.63675 0.60164 0.70797 0.0
C1473 C 0.65226 0.61168 0.71223 0.0
C1474 C 0.6641 0.6077 0.73962 0.0
C1475 C 0.6605 0.59362 0.76271 0.0
H1476 H 0.65507 0.62258 0.69438 0.0
H1477 H 0.61701 0.48771 0.92069 0.0
H1478 H 0.91102 0.63644 0.18576 0.0
H1479 H 0.90939 0.63112 0.24927 0.0
H1480 H 0.9506 0.59137 0.24091 0.0
H1481 H 0.95226 0.59648 0.17699 0.0
H1482 H 0.92267 0.58299 0.29087 0.0
H1483 H 0.96468 0.62857 0.26649 0.0
H1484 H 0.9764 0.65563 0.23794 0.0
H1485 H 0.93414 0.6865 0.28382 0.0
H1486 H 0.9221 0.65957 0.31252 0.0
H1487 H 0.92999 0.59178 0.47938 0.0
H1488 H 0.94012 0.59132 0.41787 0.0
H1489 H 0.90256 0.63275 0.39223 0.0
H1490 H 0.8921 0.63308 0.45307 0.0
H1491 H 0.93547 0.6376 0.36043 0.0
H1492 H 0.89207 0.58983 0.37894 0.0
H1493 H 0.88178 0.56245 0.40858 0.0
H1494 H 0.92891 0.53505 0.37417 0.0
H1495 H 0.9396 0.56238 0.3448 0.0
C1496 C 0.91948 0.62628 0.19716 0.0
C1497 C 0.932 0.61711 0.17639 0.0
C1498 C 0.91857 0.62331 0.2335 0.0
C1499 C 0.93014 0.61114 0.24971 0.0
C1500 C 0.94166 0.6009 0.2288 0.0
C1501 C 0.9426 0.60388 0.19232 0.0
C1502 C 0.93101 0.61038 0.28871 0.0
C1503 C 0.92581 0.59479 0.3062 0.0
C1504 C 0.93526 0.62576 0.30855 0.0
C1505 C 0.94243 0.64204 0.29148 0.0
C1506 C 0.95782 0.64111 0.27031 0.0
C1507 C 0.96454 0.65643 0.25418 0.0
C1508 C 0.956 0.67277 0.25901 0.0
C1509 C 0.94074 0.67383 0.28011 0.0
C1510 C 0.93399 0.65855 0.29641 0.0
C1511 C 0.92391 0.60083 0.46071 0.0
C1512 C 0.91003 0.61231 0.47122 0.0
C1513 C 0.92978 0.60059 0.42562 0.0
C1514 C 0.92192 0.61184 0.40053 0.0
C1515 C 0.9088 0.62397 0.41128 0.0
C1516 C 0.90287 0.62418 0.44622 0.0
C1517 C 0.92639 0.61045 0.36257 0.0
C1518 C 0.93268 0.62567 0.34522 0.0
C1519 C 0.92335 0.59466 0.34302 0.0
C1520 C 0.91672 0.57817 0.36002 0.0
C1521 C 0.90028 0.57799 0.37788 0.0
C1522 C 0.89437 0.56249 0.39462 0.0
C1523 C 0.9047 0.54703 0.39333 0.0
C1524 C 0.92093 0.54703 0.3752 0.0
C1525 C 0.92692 0.56252 0.3585 0.0
H1526 H 0.90012 0.53505 0.40633 0.0
H1527 H 0.96121 0.68462 0.24643 0.0
H1528 H 0.40421 0.12915 0.05906 0.0
H1529 H 0.40005 0.12596 0.1229 0.0
H1530 H 0.44789 0.09431 0.12913 0.0
H1531 H 0.45171 0.09681 0.06527 0.0
H1532 H 0.42311 0.08024 0.16924 0.0
H1533 H 0.4473 0.13861 0.15442 0.0
H1534 H 0.44926 0.16895 0.12993 0.0
H1535 H 0.39764 0.18126 0.17233 0.0
H1536 H 0.39526 0.1509 0.19668 0.0
H1537 H 0.42782 0.08411 0.35717 0.0
H1538 H 0.43551 0.08798 0.29472 0.0
H1539 H 0.38828 0.11981 0.27964 0.0
H1540 H 0.38072 0.11628 0.34199 0.0
H1541 H 0.41494 0.13374 0.24446 0.0
H1542 H 0.391 0.07445 0.25856 0.0
H1543 H 0.38969 0.04393 0.28238 0.0
H1544 H 0.44187 0.03317 0.24108 0.0
H1545 H 0.44365 0.06374 0.21755 0.0
C1546 C 0.41376 0.12139 0.07393 0.0
C1547 C 0.42841 0.11344 0.05698 0.0
C1548 C 0.41147 0.11971 0.11052 0.0
C1549 C 0.42386 0.11019 0.13097 0.0
C1550 C 0.43824 0.10187 0.11401 0.0
C1551 C 0.44051 0.10348 0.07745 0.0
C1552 C 0.42182 0.10887 0.17003 0.0
C1553 C 0.42157 0.09195 0.18577 0.0
C1554 C 0.41963 0.12413 0.19159 0.0
C1555 C 0.42104 0.14242 0.1771 0.0
C1556 C 0.43631 0.14774 0.1583 0.0
C1557 C 0.4375 0.16495 0.14448 0.0
C1558 C 0.42356 0.17701 0.1495 0.0
C1559 C 0.40842 0.1719 0.16843 0.0
C1560 C 0.40715 0.1547 0.18228 0.0
C1561 C 0.41914 0.09203 0.3406 0.0
C1562 C 0.40355 0.09972 0.3545 0.0
C1563 C 0.42352 0.09418 0.30486 0.0
C1564 C 0.41227 0.10387 0.28226 0.0
C1565 C 0.39713 0.1122 0.29648 0.0
C1566 C 0.39283 0.11018 0.33221 0.0
C1567 C 0.41592 0.1051 0.24365 0.0
C1568 C 0.41654 0.12202 0.22798 0.0
C1569 C 0.41856 0.08983 0.22223 0.0
C1570 C 0.41754 0.07148 0.23665 0.0
C1571 C 0.40227 0.06564 0.25487 0.0
C1572 C 0.40144 0.04833 0.26827 0.0
C1573 C 0.41568 0.03664 0.26324 0.0
C1574 C 0.43085 0.04225 0.24496 0.0
C1575 C 0.43178 0.05958 0.23161 0.0
H1576 H 0.41492 0.0232 0.27333 0.0
H1577 H 0.42451 0.19033 0.13878 0.0
H1578 H 0.43116 0.42015 0.82444 0.0
H1579 H 0.42742 0.43294 0.76587 0.0
H1580 H 0.37393 0.44915 0.79317 0.0
H1581 H 0.37727 0.43503 0.85118 0.0
H1582 H 0.37218 0.43375 0.73558 0.0
H1583 H 0.4109 0.47974 0.77435 0.0
H1584 H 0.43733 0.49303 0.80265 0.0
H1585 H 0.47127 0.46726 0.72685 0.0
H1586 H 0.44509 0.45364 0.69832 0.0
H1587 H 0.36634 0.46549 0.55646 0.0
H1588 H 0.36851 0.4676 0.62124 0.0
H1589 H 0.41582 0.43511 0.61906 0.0
H1590 H 0.41389 0.43315 0.55467 0.0
H1591 H 0.41794 0.46553 0.66513 0.0
H1592 H 0.37898 0.41551 0.6362 0.0
H1593 H 0.35245 0.40212 0.60843 0.0
H1594 H 0.31862 0.43742 0.6674 0.0
H1595 H 0.34501 0.45118 0.69517 0.0
C1596 C 0.41876 0.42683 0.81825 0.0
C1597 C 0.40447 0.42661 0.84221 0.0
C1598 C 0.41666 0.43431 0.78474 0.0
C1599 C 0.40045 0.44231 0.77499 0.0
C1600 C 0.38654 0.44304 0.79991 0.0
C1601 C 0.38846 0.43505 0.83307 0.0
C1602 C 0.39732 0.4477 0.73762 0.0
C1603 C 0.38199 0.44121 0.72061 0.0
C1604 C 0.41018 0.45718 0.71758 0.0
C1605 C 0.42599 0.4656 0.73428 0.0
C1606 C 0.424 0.47684 0.76379 0.0
C1607 C 0.43894 0.48444 0.77987 0.0
C1608 C 0.45597 0.48097 0.76658 0.0
C1609 C 0.45807 0.46995 0.7371 0.0
C1610 C 0.44318 0.46232 0.72091 0.0
C1611 C 0.37729 0.45898 0.56987 0.0
C1612 C 0.38982 0.44899 0.55063 0.0
C1613 C 0.37851 0.46019 0.60672 0.0
C1614 C 0.39238 0.45155 0.62472 0.0
C1615 C 0.40512 0.44197 0.6055 0.0
C1616 C 0.40385 0.44065 0.5688 0.0
C1617 C 0.3931 0.45131 0.66377 0.0
C1618 C 0.40797 0.45866 0.68079 0.0
C1619 C 0.37977 0.44283 0.68398 0.0
C1620 C 0.36395 0.43452 0.66737 0.0
C1621 C 0.36589 0.42052 0.64298 0.0
C1622 C 0.35089 0.41284 0.6273 0.0
C1623 C 0.33387 0.41896 0.63604 0.0
C1624 C 0.33182 0.43273 0.66058 0.0
C1625 C 0.34679 0.44047 0.6763 0.0
H1626 H 0.32226 0.413 0.62389 0.0
H1627 H 0.46752 0.48684 0.77911 0.0
H1628 H 0.05841 0.36182 0.04939 0.0
H1629 H 0.06415 0.36454 0.11314 0.0
H1630 H 0.01621 0.3956 0.12508 0.0
H1631 H 0.01053 0.39307 0.06161 0.0
H1632 H 0.04554 0.41062 0.15848 0.0
H1633 H 0.01609 0.3538 0.15141 0.0
H1634 H 0.01174 0.32331 0.12891 0.0
H1635 H 0.06352 0.30848 0.16702 0.0
H1636 H 0.06829 0.33898 0.18928 0.0
H1637 H 0.04604 0.41449 0.34378 0.0
H1638 H 0.03565 0.40777 0.28391 0.0
H1639 H 0.07892 0.37055 0.27053 0.0
H1640 H 0.08885 0.37658 0.3308 0.0
H1641 H 0.05068 0.35832 0.23802 0.0
H1642 H 0.08194 0.41438 0.2394 0.0
H1643 H 0.08769 0.4445 0.2628 0.0
H1644 H 0.03451 0.46032 0.23538 0.0
H1645 H 0.02846 0.4303 0.21176 0.0
C1646 C 0.04913 0.36919 0.06571 0.0
C1647 C 0.03396 0.37707 0.05065 0.0
C1648 C 0.05235 0.37066 0.10204 0.0
C1649 C 0.04051 0.38015 0.12379 0.0
C1650 C 0.02545 0.38815 0.10875 0.0
C1651 C 0.02214 0.38655 0.07256 0.0
C1652 C 0.04398 0.38205 0.16216 0.0
C1653 C 0.04642 0.3992 0.17597 0.0
C1654 C 0.04554 0.36712 0.18473 0.0
C1655 C 0.04261 0.34872 0.17172 0.0
C1656 C 0.0266 0.34408 0.15475 0.0
C1657 C 0.02405 0.32679 0.14208 0.0
C1658 C 0.03736 0.31398 0.14645 0.0
C1659 C 0.05323 0.31842 0.16361 0.0
C1660 C 0.05586 0.33571 0.17629 0.0
C1661 C 0.05315 0.40467 0.32824 0.0
C1662 C 0.06834 0.39618 0.34184 0.0
C1663 C 0.04726 0.4009 0.29399 0.0
C1664 C 0.05676 0.38897 0.27241 0.0
C1665 C 0.0714 0.37984 0.28661 0.0
C1666 C 0.07709 0.38335 0.32107 0.0
C1667 C 0.05226 0.3869 0.23438 0.0
C1668 C 0.0497 0.36974 0.22057 0.0
C1669 C 0.05084 0.40179 0.21162 0.0
C1670 C 0.05473 0.4201 0.22403 0.0
C1671 C 0.0715 0.42431 0.23831 0.0
C1672 C 0.07481 0.44134 0.25163 0.0
C1673 C 0.06147 0.45428 0.25064 0.0
C1674 C 0.04483 0.45027 0.2361 0.0
C1675 C 0.04148 0.43328 0.2226 0.0
H1676 H 0.06409 0.46745 0.26083 0.0
H1677 H 0.03536 0.3006 0.1366 0.0
H1678 H 0.10897 0.03641 0.55351 0.0
H1679 H 0.10538 0.04411 0.61557 0.0
H1680 H 0.1361 0.09192 0.59952 0.0
H1681 H 0.14037 0.0839 0.53717 0.0
H1682 H 0.1457 0.07511 0.65968 0.0
H1683 H 0.09069 0.09302 0.6055 0.0
H1684 H 0.0634 0.08922 0.57004 0.0
H1685 H 0.04527 0.04854 0.64119 0.0
H1686 H 0.07262 0.05186 0.67673 0.0
H1687 H 0.12186 0.11648 0.82177 0.0
H1688 H 0.12686 0.10897 0.75975 0.0
H1689 H 0.09371 0.06242 0.77126 0.0
H1690 H 0.0882 0.07017 0.83315 0.0
H1691 H 0.08542 0.07917 0.71291 0.0
H1692 H 0.14019 0.05996 0.76571 0.0
H1693 H 0.16742 0.06298 0.80167 0.0
H1694 H 0.18581 0.10498 0.73389 0.0
H1695 H 0.15857 0.10237 0.69777 0.0
C1696 C 0.11525 0.04842 0.56309 0.0
C1697 C 0.12509 0.0595 0.54024 0.0
C1698 C 0.11295 0.05294 0.59861 0.0
C1699 C 0.12024 0.06872 0.61209 0.0
C1700 C 0.13028 0.07971 0.5896 0.0
C1701 C 0.13262 0.07518 0.55396 0.0
C1702 C 0.1175 0.07359 0.64977 0.0
C1703 C 0.13251 0.07627 0.67122 0.0
C1704 C 0.10029 0.0746 0.66502 0.0
C1705 C 0.08382 0.07257 0.6436 0.0
C1706 C 0.08097 0.08315 0.61341 0.0
C1707 C 0.06547 0.08109 0.59332 0.0
C1708 C 0.05263 0.06861 0.6033 0.0
C1709 C 0.05524 0.05818 0.63344 0.0
C1710 C 0.07074 0.06014 0.65358 0.0
C1711 C 0.11575 0.10455 0.81123 0.0
C1712 C 0.10469 0.09388 0.83246 0.0
C1713 C 0.11867 0.10024 0.77574 0.0
C1714 C 0.11085 0.085 0.76088 0.0
C1715 C 0.09991 0.07424 0.78212 0.0
C1716 C 0.09684 0.07864 0.81755 0.0
C1717 C 0.11362 0.08058 0.72293 0.0
C1718 C 0.09861 0.07802 0.70139 0.0
C1719 C 0.13082 0.07954 0.70765 0.0
C1720 C 0.14726 0.08108 0.72923 0.0
C1721 C 0.14998 0.06993 0.75862 0.0
C1722 C 0.16542 0.07155 0.77901 0.0
C1723 C 0.17831 0.0842 0.77013 0.0
C1724 C 0.1758 0.09521 0.74076 0.0
C1725 C 0.16037 0.09365 0.7203 0.0
H1726 H 0.19026 0.08543 0.78595 0.0
H1727 H 0.04063 0.06705 0.58772 0.0
H1728 H 0.97002 0.91566 0.16289 0.0
H1729 H 0.98981 0.92492 0.21111 0.0
H1730 H 0.01595 0.96182 0.1406 0.0
H1731 H 0.99657 0.95221 0.09238 0.0
H1732 H 0.03982 0.9452 0.17725 0.0
H1733 H 0.98597 0.97595 0.20424 0.0
H1734 H 0.95345 0.97764 0.21261 0.0
H1735 H 0.95713 0.94254 0.30191 0.0
H1736 H 0.98971 0.94043 0.29375 0.0
H1737 H 0.08393 -0.0025 0.30612 0.0
H1738 H 0.06334 0.98763 0.25994 0.0
H1739 H 0.04401 0.94608 0.32838 0.0
H1740 H 0.06459 0.95576 0.37468 0.0
H1741 H 0.01663 0.965 0.29386 0.0
H1742 H 0.07231 0.93545 0.26355 0.0
H1743 H 0.1046 0.93532 0.25145 0.0
H1744 H 0.09692 0.97194 0.16561 0.0
H1745 H 0.06459 0.9724 0.17741 0.0
C1746 C 0.97993 0.92581 0.15792 0.0
C1747 C 0.98186 0.93318 0.12402 0.0
C1748 C 0.99121 0.93111 0.18538 0.0
C1749 C 0.00429 0.94418 0.17953 0.0
C1750 C 0.00606 0.95164 0.14569 0.0
C1751 C 0.99499 0.94616 0.11819 0.0
C1752 C 0.01625 0.95003 0.20847 0.0
C1753 C 0.03471 0.94969 0.2026 0.0
C1754 C 0.00962 0.9558 0.24164 0.0
C1755 C 0.99024 0.95788 0.24815 0.0
C1756 C 0.97985 0.96858 0.22566 0.0
C1757 C 0.96141 0.96959 0.23032 0.0
C1758 C 0.95324 0.96011 0.25761 0.0
C1759 C 0.9635 0.94982 0.28069 0.0
C1760 C 0.98196 0.94873 0.2761 0.0
C1761 C 0.07524 0.98633 0.31141 0.0
C1762 C 0.07592 0.97739 0.34401 0.0
C1763 C 0.06355 0.9807 0.28501 0.0
C1764 C 0.05221 0.96618 0.29083 0.0
C1765 C 0.05268 0.95733 0.32343 0.0
C1766 C 0.06458 0.96276 0.34968 0.0
C1767 C 0.0401 0.96004 0.26252 0.0
C1768 C 0.02166 0.96041 0.26853 0.0
C1769 C 0.04671 0.95466 0.22915 0.0
C1770 C 0.06606 0.95401 0.22144 0.0
C1771 C 0.07752 0.9435 0.24215 0.0
C1772 C 0.09583 0.94337 0.23534 0.0
C1773 C 0.10281 0.95363 0.2078 0.0
C1774 C 0.09149 0.96399 0.18691 0.0
C1775 C 0.07317 0.96416 0.19359 0.0
H1776 H 0.11699 0.95353 0.20261 0.0
H1777 H 0.93894 0.96072 0.26078 0.0
H1778 H 0.60135 -0.00069 0.68057 0.0
H1779 H 0.58525 0.0193 0.71951 0.0
H1780 H 0.5376 0.98794 0.70618 0.0
H1781 H 0.55347 0.96833 0.66515 0.0
H1782 H 0.52948 0.02155 0.70145 0.0
H1783 H 0.56148 0.98805 0.78807 0.0
H1784 H 0.58755 0.9735 0.81543 0.0
H1785 H 0.61414 0.02394 0.82251 0.0
H1786 H 0.58826 0.03872 0.795 0.0
H1787 H 0.48543 0.06997 0.83781 0.0
H1788 H 0.49919 0.04665 0.80253 0.0
H1789 H 0.54893 0.07535 0.80351 0.0
H1790 H 0.53551 0.09836 0.84058 0.0
H1791 H 0.55423 0.04104 0.81684 0.0
H1792 H 0.52049 0.07425 0.72962 0.0
H1793 H 0.49295 0.0877 0.70614 0.0
H1794 H 0.46803 0.03631 0.70342 0.0
H1795 H 0.49536 0.02257 0.72726 0.0
C1796 C 0.58742 -0.00335 0.68557 0.0
C1797 C 0.57873 0.98222 0.66932 0.0
C1798 C 0.57827 0.00799 0.70843 0.0
C1799 C 0.56025 0.00502 0.71634 0.0
C1800 C 0.55152 0.99049 0.7006 0.0
C1801 C 0.56066 0.9792 0.67732 0.0
C1802 C 0.55048 0.0177 0.73959 0.0
C1803 C 0.53473 0.02556 0.72697 0.0
C1804 C 0.5574 0.0232 0.77271 0.0
C1805 C 0.57303 0.01441 0.78912 0.0
C1806 C 0.57297 0.99597 0.79517 0.0
C1807 C 0.58768 0.9877 0.81078 0.0
C1808 C 0.60252 -0.00222 0.82053 0.0
C1809 C 0.60264 0.01615 0.81486 0.0
C1810 C 0.58794 0.02448 0.79935 0.0
C1811 C 0.49935 0.07132 0.83094 0.0
C1812 C 0.50937 0.08609 0.8424 0.0
C1813 C 0.50714 0.05803 0.81028 0.0
C1814 C 0.52504 0.05932 0.79998 0.0
C1815 C 0.53507 0.07409 0.81107 0.0
C1816 C 0.52732 0.08734 0.83203 0.0
C1817 C 0.53348 0.04511 0.77838 0.0
C1818 C 0.54895 0.03695 0.79138 0.0
C1819 C 0.52616 0.03922 0.74586 0.0
C1820 C 0.50993 0.04741 0.73049 0.0
C1821 C 0.50911 0.06583 0.72412 0.0
C1822 C 0.49354 0.0735 0.71075 0.0
C1823 C 0.47873 0.06287 0.70338 0.0
C1824 C 0.47951 0.04453 0.70917 0.0
C1825 C 0.49504 0.03679 0.72255 0.0
H1826 H 0.46667 0.06885 0.69314 0.0
H1827 H 0.61391 0.99135 0.83258 0.0
H1828 H 0.43551 0.49277 0.33905 0.0
H1829 H 0.45961 0.50392 0.30251 0.0
H1830 H 0.42454 0.54364 0.25864 0.0
H1831 H 0.39991 0.53197 0.29407 0.0
H1832 H 0.44428 0.5284 0.20815 0.0
H1833 H 0.45518 0.55279 0.3243 0.0
H1834 H 0.46066 0.55187 0.3886 0.0
H1835 H 0.50817 0.52125 0.37148 0.0
H1836 H 0.50278 0.52166 0.30709 0.0
H1837 H 0.50357 0.5926 0.14302 0.0
H1838 H 0.48259 0.57755 0.1816 0.0
H1839 H 0.52011 0.53494 0.19753 0.0
H1840 H 0.54112 0.54946 0.1575 0.0
H1841 H 0.50111 0.54881 0.26158 0.0
H1842 H 0.49126 0.52574 0.14582 0.0
H1843 H 0.48685 0.52798 0.08143 0.0
H1844 H 0.43768 0.55592 0.09799 0.0
H1845 H 0.44219 0.55457 0.16259 0.0
C1846 C 0.43268 0.50368 0.32133 0.0
C1847 C 0.41559 0.51141 0.31957 0.0
C1848 C 0.44666 0.51022 0.30074 0.0
C1849 C 0.44398 0.52479 0.27826 0.0
C1850 C 0.42694 0.53243 0.27601 0.0
C1851 C 0.41289 0.52582 0.29647 0.0
C1852 C 0.45887 0.53196 0.25674 0.0
C1853 C 0.45662 0.53303 0.21993 0.0
C1854 C 0.47526 0.53739 0.272 0.0
C1855 C 0.47843 0.53704 0.31082 0.0
C1856 C 0.46668 0.54568 0.33424 0.0
C1857 C 0.46979 0.54527 0.37072 0.0
C1858 C 0.48471 0.53644 0.38413 0.0
C1859 C 0.49658 0.52803 0.36107 0.0
C1860 C 0.4935 0.52833 0.32457 0.0
C1861 C 0.50747 0.57997 0.15424 0.0
C1862 C 0.52406 0.57218 0.14623 0.0
C1863 C 0.49544 0.57146 0.17665 0.0
C1864 C 0.49976 0.55509 0.19205 0.0
C1865 C 0.51656 0.54759 0.18576 0.0
C1866 C 0.52857 0.55598 0.16283 0.0
C1867 C 0.48625 0.54561 0.21337 0.0
C1868 C 0.48879 0.54404 0.24997 0.0
C1869 C 0.47014 0.53968 0.198 0.0
C1870 C 0.46719 0.54025 0.15913 0.0
C1871 C 0.47962 0.53257 0.13579 0.0
C1872 C 0.4771 0.53368 0.09922 0.0
C1873 C 0.46199 0.54207 0.08561 0.0
C1874 C 0.44939 0.54944 0.10857 0.0
C1875 C 0.45196 0.54856 0.14519 0.0
H1876 H 0.46002 0.54282 0.05728 0.0
H1877 H 0.48711 0.53617 0.41238 0.0
H1878 H 0.86742 0.52868 0.72501 0.0
H1879 H 0.883 0.50757 0.76328 0.0
H1880 H 0.93127 0.5155 0.70345 0.0
H1881 H 0.9158 0.53615 0.66466 0.0
H1882 H 0.92426 0.48105 0.71126 0.0
H1883 H 0.93066 0.53069 0.78861 0.0
H1884 H 0.92175 0.55709 0.82311 0.0
H1885 H 0.88368 0.52573 0.88049 0.0
H1886 H 0.89261 0.49903 0.84672 0.0
H1887 H 0.97578 0.42701 0.82738 0.0
H1888 H 0.96493 0.45251 0.79368 0.0
H1889 H 0.91415 0.44875 0.84658 0.0
H1890 H 0.92511 0.4238 0.88144 0.0
H1891 H 0.92517 0.48282 0.84249 0.0
H1892 H 0.92043 0.43263 0.76123 0.0
H1893 H 0.93216 0.40718 0.72716 0.0
H1894 H 0.96982 0.44152 0.67567 0.0
H1895 H 0.95849 0.46711 0.70987 0.0
C1896 C 0.88134 0.52596 0.72002 0.0
C1897 C 0.89033 0.53426 0.69185 0.0
C1898 C 0.89029 0.51405 0.74217 0.0
C1899 C 0.90835 0.51012 0.7364 0.0
C1900 C 0.91737 0.51844 0.70849 0.0
C1901 C 0.90849 0.53038 0.68647 0.0
C1902 C 0.91741 0.49627 0.75765 0.0
C1903 C 0.92472 0.48158 0.73994 0.0
C1904 C 0.91789 0.49691 0.79501 0.0
C1905 C 0.91217 0.51292 0.81491 0.0
C1906 C 0.9203 0.52945 0.80842 0.0
C1907 C 0.91531 0.54444 0.82796 0.0
C1908 C 0.90206 0.54312 0.85378 0.0
C1909 C 0.89391 0.52675 0.8604 0.0
C1910 C 0.899 0.51165 0.84123 0.0
C1911 C 0.96236 0.43167 0.83209 0.0
C1912 C 0.95131 0.42324 0.85707 0.0
C1913 C 0.95612 0.44618 0.81257 0.0
C1914 C 0.93866 0.45241 0.81736 0.0
C1915 C 0.92766 0.44413 0.84241 0.0
C1916 C 0.9339 0.4297 0.86204 0.0
C1917 C 0.93169 0.46743 0.79609 0.0
C1918 C 0.92479 0.48236 0.8138 0.0
C1919 C 0.93185 0.46715 0.75865 0.0
C1920 C 0.93871 0.45173 0.73829 0.0
C1921 C 0.9313 0.43471 0.74284 0.0
C1922 C 0.93788 0.42027 0.7235 0.0
C1923 C 0.95176 0.42272 0.69934 0.0
C1924 C 0.9591 0.43962 0.69447 0.0
C1925 C 0.95262 0.45409 0.71384 0.0
H1926 H 0.95681 0.41152 0.68435 0.0
H1927 H 0.89815 0.55478 0.86871 0.0
H1928 H 0.9946 0.0827 0.8825 0.0
H1929 H 0.97545 0.06691 0.84148 0.0
H1930 H 0.02157 0.04776 0.78495 0.0
H1931 H 0.04091 0.06444 0.82483 0.0
H1932 H -0.00107 0.05968 0.74015 0.0
H1933 H 0.99356 0.02011 0.83868 0.0
H1934 H 0.98746 0.00973 0.89931 0.0
H1935 H 0.93385 0.02928 0.89209 0.0
H1936 H 0.93969 0.04004 0.83162 0.0
H1937 H 0.94165 -0.00031 0.63914 0.0
H1938 H 0.96463 0.01093 0.67932 0.0
H1939 H 0.92628 0.04597 0.72762 0.0
H1940 H 0.90318 0.03475 0.68809 0.0
H1941 H 0.94701 0.02287 0.7748 0.0
H1942 H 0.95414 0.06703 0.68237 0.0
H1943 H 0.96046 0.07958 0.62336 0.0
H1944 H 0.01024 0.05149 0.62003 0.0
H1945 H 0.00427 0.03892 0.67923 0.0
C1946 C 0.00078 0.07525 0.86133 0.0
C1947 C 0.01941 0.07511 0.85693 0.0
C1948 C 0.98974 0.0659 0.83813 0.0
C1949 C 0.99701 0.05588 0.81029 0.0
C1950 C 0.01561 0.05533 0.8063 0.0
C1951 C 0.02669 0.06482 0.82932 0.0
C1952 C 0.98515 0.04729 0.78374 0.0
C1953 C 0.98783 0.05126 0.74778 0.0
C1954 C 0.97034 0.03669 0.79357 0.0
C1955 C 0.96712 0.03098 0.83062 0.0
C1956 C 0.98054 0.0224 0.85017 0.0
C1957 C 0.9771 0.01641 0.88452 0.0
C1958 C 0.96026 0.01885 0.89952 0.0
C1959 C 0.94687 0.0274 0.88039 0.0
C1960 C 0.95025 0.03344 0.8461 0.0
C1961 C 0.93803 0.00971 0.6584 0.0
C1962 C 0.92048 0.01632 0.66022 0.0
C1963 C 0.95126 0.01627 0.68102 0.0
C1964 C 0.94719 0.02946 0.70597 0.0
C1965 C 0.92972 0.03596 0.70814 0.0
C1966 C 0.91654 0.02955 0.68541 0.0
C1967 C 0.96071 0.03556 0.73175 0.0
C1968 C 0.95833 0.03104 0.7674 0.0
C1969 C 0.97576 0.04564 0.72171 0.0
C1970 C 0.97862 0.05182 0.68493 0.0
C1971 C 0.96631 0.06334 0.66883 0.0
C1972 C 0.96994 0.07064 0.63557 0.0
C1973 C 0.98576 0.06638 0.618 0.0
C1974 C -0.002 0.05481 0.63369 0.0
C1975 C 0.99452 0.04762 0.66711 0.0
H1976 H 0.98849 0.07194 0.59214 0.0
H1977 H 0.95745 0.01406 0.92588 0.0
H1978 H 0.46602 0.9111 0.19647 0.0
H1979 H 0.45716 0.93779 0.22845 0.0
H1980 H 0.50739 0.96245 0.20339 0.0
H1981 H 0.51618 0.93616 0.16977 0.0
H1982 H 0.49507 0.96542 0.27776 0.0
H1983 H 0.47752 0.97793 0.16054 0.0
H1984 H 0.46444 0.97211 0.10188 0.0
H1985 H 0.4128 0.96597 0.14903 0.0
H1986 H 0.42563 0.97106 0.2082 0.0
H1987 H 0.44662 0.03979 0.35902 0.0
H1988 H 0.46545 0.02552 0.31433 0.0
H1989 H 0.42755 0.98267 0.30538 0.0
H1990 H 0.4083 -0.00281 0.34838 0.0
H1991 H 0.4403 -0.00306 0.23928 0.0
H1992 H 0.47228 0.96533 0.35118 0.0
H1993 H 0.4873 0.97043 0.40853 0.0
H1994 H 0.51212 0.01745 0.36687 0.0
H1995 H 0.49751 0.01238 0.30917 0.0
C1996 C 0.47519 0.92218 0.19733 0.0
C1997 C 0.49174 0.9214 0.17995 0.0
C1998 C 0.47011 0.93741 0.21581 0.0
C1999 C 0.48155 0.95211 0.21779 0.0
C2000 C 0.49837 0.95123 0.20193 0.0
C2001 C 0.50338 0.93607 0.18286 0.0
C2002 C 0.47554 0.96831 0.23638 0.0
C2003 C 0.48337 0.97264 0.26893 0.0
C2004 C 0.46045 0.97787 0.22454 0.0
C2005 C 0.4526 0.97475 0.18896 0.0
C2006 C 0.46341 0.97513 0.15852 0.0
C2007 C 0.45603 0.97199 0.12514 0.0
C2008 C 0.43781 0.96873 0.12173 0.0
C2009 C 0.42692 0.96852 0.15172 0.0
C2010 C 0.43425 0.97149 0.18521 0.0
C2011 C 0.44217 0.02746 0.34722 0.0
C2012 C 0.42595 0.01958 0.35751 0.0
C2013 C 0.4531 0.0192 0.32205 0.0
C2014 C 0.44802 0.00291 0.30706 0.0
C2015 C 0.43175 0.99521 0.31684 0.0
C2016 C 0.4208 0.00347 0.34165 0.0
C2017 C 0.45937 0.99346 0.28121 0.0
C2018 C 0.45242 0.99022 0.24737 0.0
C2019 C 0.47548 0.98524 0.29138 0.0
C2020 C 0.48371 0.98859 0.32621 0.0
C2021 C 0.48091 0.97676 0.3544 0.0
C2022 C 0.48941 0.9796 0.38685 0.0
C2023 C 0.50064 0.99427 0.39133 0.0
C2024 C 0.5034 0.00612 0.36338 0.0
C2025 C 0.49507 0.00324 0.33081 0.0
H2026 H 0.50726 0.99646 0.41635 0.0
H2027 H 0.43212 0.96638 0.09583 0.0
H2028 H 0.61262 0.4365 0.6827 0.0
H2029 H 0.59048 0.42538 0.72475 0.0
H2030 H 0.55865 0.47241 0.70831 0.0
H2031 H 0.58055 0.48353 0.66612 0.0
H2032 H 0.55857 0.46199 0.77837 0.0
H2033 H 0.54863 0.4358 0.664 0.0
H2034 H 0.55712 0.41961 0.60979 0.0
H2035 H 0.57088 0.37375 0.67178 0.0
H2036 H 0.56269 0.38978 0.72644 0.0
H2037 H 0.47355 0.42642 0.82865 0.0
H2038 H 0.4984 0.4401 0.79696 0.0
H2039 H 0.53066 0.39373 0.81698 0.0
H2040 H 0.5062 0.38015 0.84947 0.0
H2041 H 0.5309 0.40416 0.74678 0.0
H2042 H 0.53984 0.43043 0.86152 0.0
H2043 H 0.53035 0.44665 0.91507 0.0
H2044 H 0.51738 0.49234 0.85199 0.0
H2045 H 0.52669 0.47634 0.79798 0.0
C2046 C 0.60096 0.44451 0.68815 0.0
C2047 C 0.59834 0.46083 0.67074 0.0
C2048 C 0.58836 0.43819 0.71229 0.0
C2049 C 0.57283 0.44799 0.71933 0.0
C2050 C 0.57057 0.46466 0.70334 0.0
C2051 C 0.58316 0.47101 0.67922 0.0
C2052 C 0.55834 0.44025 0.74115 0.0
C2053 C 0.55241 0.44943 0.77134 0.0
C2054 C 0.55043 0.42377 0.73216 0.0
C2055 C 0.55522 0.41405 0.69933 0.0
C2056 C 0.55359 0.42231 0.66609 0.0
C2057 C 0.55833 0.41316 0.63528 0.0
C2058 C 0.56459 0.39568 0.63735 0.0
C2059 C 0.56606 0.3873 0.67023 0.0
C2060 C 0.56136 0.39641 0.70113 0.0
C2061 C 0.48598 0.41919 0.82681 0.0
C2062 C 0.48776 0.4021 0.84167 0.0
C2063 C 0.50018 0.42705 0.80862 0.0
C2064 C 0.51639 0.41795 0.80483 0.0
C2065 C 0.51824 0.40095 0.81957 0.0
C2066 C 0.50413 0.39315 0.83796 0.0
C2067 C 0.53122 0.42579 0.78417 0.0
C2068 C 0.53714 0.41666 0.75401 0.0
C2069 C 0.53902 0.44232 0.79317 0.0
C2070 C 0.53377 0.45212 0.82566 0.0
C2071 C 0.53486 0.4439 0.85904 0.0
C2072 C 0.52954 0.45306 0.88948 0.0
C2073 C 0.52313 0.47046 0.88689 0.0
C2074 C 0.52227 0.47883 0.85392 0.0
C2075 C 0.52761 0.46974 0.82339 0.0
H2076 H 0.51884 0.47746 0.91043 0.0
H2077 H 0.56825 0.38861 0.61346 0.0
H2078 H 0.98372 0.58227 0.18358 0.0
H2079 H 0.99572 0.55765 0.21763 0.0
H2080 H 0.04904 0.57684 0.19886 0.0
H2081 H 0.0372 0.60097 0.16269 0.0
H2082 H 0.04729 0.54238 0.18741 0.0
H2083 H 0.02547 0.58168 0.27958 0.0
H2084 H 0.00248 0.59931 0.31038 0.0
H2085 H 0.97167 0.55202 0.328 0.0
H2086 H 0.99427 0.53416 0.29668 0.0
H2087 H 0.09596 0.49471 0.31474 0.0
H2088 H 0.08107 0.51594 0.27615 0.0
H2089 H 0.03007 0.49401 0.30564 0.0
H2090 H 0.0449 0.47327 0.34575 0.0
H2091 H 0.02846 0.52803 0.30989 0.0
H2092 H 0.04577 0.48976 0.21386 0.0
H2093 H 0.06577 0.47071 0.17825 0.0
H2094 H 0.10233 0.51422 0.16647 0.0
H2095 H 0.08248 0.53349 0.20182 0.0
C2096 C -0.00198 0.58125 0.18627 0.0
C2097 C 0.00948 0.59361 0.16988 0.0
C2098 C 0.00485 0.56724 0.2063 0.0
C2099 C 0.02327 0.56549 0.21117 0.0
C2100 C 0.03475 0.57796 0.19551 0.0
C2101 C 0.02794 0.59187 0.17505 0.0
C2102 C 0.03068 0.55023 0.23126 0.0
C2103 C 0.04336 0.53943 0.21443 0.0
C2104 C 0.02492 0.54584 0.2659 0.0
C2105 C 0.01149 0.5566 0.28533 0.0
C2106 C 0.01372 0.57506 0.28975 0.0
C2107 C 0.00076 0.58509 0.30733 0.0
C2108 C 0.98558 0.57681 0.32099 0.0
C2109 C 0.98339 0.55844 0.31729 0.0
C2110 C 0.99628 0.54836 0.29962 0.0
C2111 C 0.08158 0.49436 0.31299 0.0
C2112 C 0.07165 0.48234 0.33353 0.0
C2113 C 0.07307 0.50635 0.29043 0.0
C2114 C 0.05443 0.50645 0.28751 0.0
C2115 C 0.04447 0.49414 0.3073 0.0
C2116 C 0.05299 0.48219 0.33007 0.0
C2117 C 0.04541 0.52047 0.26638 0.0
C2118 C 0.03238 0.531 0.28292 0.0
C2119 C 0.0506 0.5245 0.23131 0.0
C2120 C 0.06281 0.51291 0.2109 0.0
C2121 C 0.05818 0.49515 0.20398 0.0
C2122 C 0.06943 0.48436 0.18371 0.0
C2123 C 0.08536 0.49121 0.17033 0.0
C2124 C 0.09002 0.50891 0.17696 0.0
C2125 C 0.07874 0.51978 0.19699 0.0
H2126 H 0.09406 0.48283 0.1547 0.0
H2127 H 0.97553 0.5846 0.33451 0.0
H2128 H 0.19221 0.00612 0.35923 0.0
H2129 H 0.22436 0.004 0.35576 0.0
H2130 H 0.22475 0.9693 0.44683 0.0
H2131 H 0.19228 0.9718 0.45092 0.0
H2132 H 0.24418 0.99622 0.45921 0.0
H2133 H 0.24282 0.95603 0.36417 0.0
H2134 H 0.23317 0.94262 0.30783 0.0
H2135 H 0.25084 0.98896 0.25149 0.0
H2136 H 0.26034 0.0028 0.3075 0.0
H2137 H 0.33581 0.01679 0.45625 0.0
H2138 H 0.30988 -0.00243 0.44849 0.0
H2139 H 0.28907 0.03351 0.3697 0.0
H2140 H 0.31503 0.05291 0.37743 0.0
H2141 H 0.28353 -0.00324 0.35371 0.0
H2142 H 0.27632 0.03862 0.45213 0.0
H2143 H 0.28556 0.05202 0.50882 0.0
H2144 H 0.2836 0.00071 0.55866 0.0
H2145 H 0.27458 0.98698 0.50205 0.0
C2146 C 0.19905 -0.00251 0.37774 0.0
C2147 C 0.1898 0.98926 0.40557 0.0
C2148 C 0.21749 0.99617 0.37559 0.0
C2149 C 0.22703 0.98638 0.4009 0.0
C2150 C 0.21766 0.97693 0.42702 0.0
C2151 C 0.19916 0.97842 0.42945 0.0
C2152 C 0.2465 0.98912 0.40401 0.0
C2153 C 0.25291 0.9957 0.43635 0.0
C2154 C 0.25789 0.98874 0.37414 0.0
C2155 C 0.25228 0.98048 0.34017 0.0
C2156 C 0.24456 0.96342 0.33981 0.0
C2157 C 0.23912 0.95573 0.3079 0.0
C2158 C 0.24139 0.96493 0.2761 0.0
C2159 C 0.24912 0.98184 0.27614 0.0
C2160 C 0.25457 0.9896 0.30797 0.0
C2161 C 0.32569 0.02061 0.43729 0.0
C2162 C 0.32716 0.03656 0.41804 0.0
C2163 C 0.31104 0.00952 0.43261 0.0
C2164 C 0.29758 0.01423 0.40875 0.0
C2165 C 0.29942 0.02965 0.38813 0.0
C2166 C 0.31414 0.04076 0.39273 0.0
C2167 C 0.28063 0.00434 0.4083 0.0
C2168 C 0.27483 0.99655 0.37663 0.0
C2169 C 0.26976 0.00347 0.43878 0.0
C2170 C 0.27501 0.01175 0.47282 0.0
C2171 C 0.27799 0.03019 0.47512 0.0
C2172 C 0.28317 0.03784 0.50723 0.0
C2173 C 0.28522 0.02721 0.5373 0.0
C2174 C 0.28205 0.00892 0.53533 0.0
C2175 C 0.2769 0.00119 0.50325 0.0
H2176 H 0.28923 0.03316 0.56214 0.0
H2177 H 0.23716 0.95896 0.25143 0.0
H2178 H 0.45516 0.18601 0.82744 0.0
H2179 H 0.44423 0.21495 0.8069 0.0
H2180 H 0.40772 0.2171 0.89499 0.0
H2181 H 0.41853 0.18817 0.91557 0.0
H2182 H 0.39337 0.23052 0.82912 0.0
H2183 H 0.44527 0.23616 0.90621 0.0
H2184 H 0.47629 0.22957 0.92324 0.0
H2185 H 0.49477 0.24976 0.82346 0.0
H2186 H 0.4638 0.25626 0.8057 0.0
H2187 H 0.38267 0.31823 0.89099 0.0
H2188 H 0.38556 0.28696 0.87467 0.0
H2189 H 0.42548 0.30068 0.79718 0.0
H2190 H 0.42334 0.33174 0.81449 0.0
H2191 H 0.43836 0.27835 0.84281 0.0
H2192 H 0.38663 0.27977 0.77226 0.0
H2193 H 0.35566 0.28657 0.75553 0.0
H2194 H 0.33647 0.25375 0.84033 0.0
H2195 H 0.36734 0.24695 0.85796 0.0
C2196 C 0.44459 0.19254 0.84203 0.0
C2197 C 0.43782 0.18503 0.87332 0.0
C2198 C 0.43835 0.209 0.83025 0.0
C2199 C 0.4252 0.21808 0.84949 0.0
C2200 C 0.41781 0.2102 0.87972 0.0
C2201 C 0.42414 0.19384 0.89168 0.0
C2202 C 0.42071 0.23669 0.84093 0.0
C2203 C 0.40312 0.24107 0.83199 0.0
C2204 C 0.43364 0.25025 0.84373 0.0
C2205 C 0.45225 0.24648 0.85447 0.0
C2206 C 0.45595 0.23906 0.88782 0.0
C2207 C 0.47352 0.23537 0.89762 0.0
C2208 C 0.48749 0.23919 0.8744 0.0
C2209 C 0.48393 0.24677 0.84138 0.0
C2210 C 0.46638 0.25047 0.83144 0.0
C2211 C 0.39179 0.31463 0.86995 0.0
C2212 C 0.40296 0.32747 0.85451 0.0
C2213 C 0.39327 0.29676 0.86029 0.0
C2214 C 0.40579 0.29148 0.83474 0.0
C2215 C 0.41574 0.30448 0.81697 0.0
C2216 C 0.41438 0.3223 0.82678 0.0
C2217 C 0.41078 0.27249 0.83157 0.0
C2218 C 0.42856 0.26794 0.83867 0.0
C2219 C 0.39799 0.25887 0.82692 0.0
C2220 C 0.37935 0.26292 0.81656 0.0
C2221 C 0.37582 0.27411 0.78755 0.0
C2222 C 0.35827 0.27794 0.77786 0.0
C2223 C 0.34411 0.27061 0.79688 0.0
C2224 C 0.34746 0.25941 0.82561 0.0
C2225 C 0.36499 0.25553 0.83543 0.0
H2226 H 0.33053 0.2736 0.78933 0.0
H2227 H 0.50108 0.23632 0.88203 0.0
H2228 H 0.31024 0.43353 0.43825 0.0
H2229 H 0.27978 0.42241 0.4342 0.0
H2230 H 0.27025 0.4566 0.34441 0.0
H2231 H 0.30096 0.46758 0.34807 0.0
H2232 H 0.25051 0.44061 0.44353 0.0
H2233 H 0.2376 0.43856 0.29227 0.0
H2234 H 0.25413 0.43275 0.237 0.0
H2235 H 0.29152 0.40035 0.29386 0.0
H2236 H 0.27509 0.40576 0.34935 0.0
H2237 H 0.15965 0.43689 0.35642 0.0
H2238 H 0.19183 0.43965 0.34997 0.0
H2239 H 0.1995 0.40091 0.43274 0.0
H2240 H 0.16719 0.39784 0.43909 0.0
H2241 H 0.22042 0.41709 0.33641 0.0
H2242 H 0.23221 0.41729 0.48684 0.0
H2243 H 0.2157 0.42323 0.5421 0.0
H2244 H 0.1812 0.4593 0.48676 0.0
H2245 H 0.19767 0.45377 0.43135 0.0
C2246 C 0.30166 0.43863 0.41757 0.0
C2247 C 0.30785 0.45154 0.39368 0.0
C2248 C 0.2843 0.43222 0.41521 0.0
C2249 C 0.27276 0.43861 0.38896 0.0
C2250 C 0.27902 0.45126 0.36453 0.0
C2251 C 0.2965 0.45757 0.3667 0.0
C2252 C 0.25387 0.43295 0.38893 0.0
C2253 C 0.24405 0.43515 0.42025 0.0
C2254 C 0.24532 0.42622 0.35834 0.0
C2255 C 0.2552 0.42272 0.32503 0.0
C2256 C 0.24931 0.43014 0.29295 0.0
C2257 C 0.25867 0.42693 0.26159 0.0
C2258 C 0.2739 0.41624 0.26194 0.0
C2259 C 0.27977 0.40869 0.29364 0.0
C2260 C 0.27045 0.41185 0.32507 0.0
C2261 C 0.16813 0.42856 0.37261 0.0
C2262 C 0.16085 0.41721 0.39846 0.0
C2263 C 0.18654 0.43019 0.36889 0.0
C2264 C 0.19799 0.42063 0.39112 0.0
C2265 C 0.19083 0.40855 0.41561 0.0
C2266 C 0.1724 0.40688 0.41933 0.0
C2267 C 0.21726 0.42467 0.39101 0.0
C2268 C 0.22704 0.42231 0.35971 0.0
C2269 C 0.22585 0.43125 0.42161 0.0
C2270 C 0.21604 0.43494 0.4549 0.0
C2271 C 0.22114 0.42653 0.48652 0.0
C2272 C 0.21178 0.42982 0.51786 0.0
C2273 C 0.19736 0.44158 0.51791 0.0
C2274 C 0.19232 0.45014 0.48666 0.0
C2275 C 0.20165 0.44692 0.45528 0.0
H2276 H 0.19013 0.4441 0.54218 0.0
H2277 H 0.28113 0.41378 0.23764 0.0
H2278 H 0.96944 0.29677 0.94709 0.0
H2279 H 0.97831 0.26549 0.94366 0.0
H2280 H 0.01162 0.27728 0.85366 0.0
H2281 H 0.00307 0.30847 0.85712 0.0
H2282 H 0.99704 0.24252 0.85199 0.0
H2283 H 0.02895 0.2823 0.93117 0.0
H2284 H 0.03045 0.30414 0.97982 0.0
H2285 H 0.00748 0.26601 0.05108 0.0
H2286 H 0.00552 0.24406 0.00261 0.0
H2287 H 0.06938 0.18241 0.86868 0.0
H2288 H 0.05119 0.20937 0.86376 0.0
H2289 H 0.02407 0.19571 0.96071 0.0
H2290 H 0.04203 0.16882 0.9657 0.0
H2291 H 0.03289 0.23006 0.95957 0.0
H2292 H 0.0042 0.18887 0.8818 0.0
H2293 H 0.00224 0.16725 0.83287 0.0
H2294 H 0.01884 0.20744 0.75917 0.0
H2295 H 0.02115 0.22925 0.80777 0.0
C2296 C 0.97829 0.29259 0.92602 0.0
C2297 C 0.98586 0.30512 0.90287 0.0
C2298 C 0.98324 0.27473 0.92396 0.0
C2299 C 0.99587 0.26925 0.89884 0.0
C2300 C 0.00187 0.28131 0.87323 0.0
C2301 C 0.99694 0.29915 0.87526 0.0
C2302 C 0.00524 0.25214 0.90309 0.0
C2303 C 0.00492 0.23974 0.8754 0.0
C2304 C 0.01535 0.24858 0.93387 0.0
C2305 C 0.01691 0.26162 0.96321 0.0
C2306 C 0.02411 0.27862 0.95716 0.0
C2307 C 0.02505 0.29102 0.98469 0.0
C2308 C 0.01903 0.28648 0.0185 0.0
C2309 C 0.01211 0.26952 0.02486 0.0
C2310 C 0.01107 0.2571 0.99737 0.0
C2311 C 0.05959 0.18522 0.88898 0.0
C2312 C 0.05722 0.17358 0.91768 0.0
C2313 C 0.04917 0.20055 0.88607 0.0
C2314 C 0.03613 0.20435 0.91164 0.0
C2315 C 0.03406 0.19298 0.94072 0.0
C2316 C 0.04446 0.17771 0.94368 0.0
C2317 C 0.02476 0.22031 0.90842 0.0
C2318 C 0.02482 0.23261 0.9363 0.0
C2319 C 0.01443 0.22372 0.87782 0.0
C2320 C 0.01301 0.21066 0.8485 0.0
C2321 C 0.00757 0.19307 0.85521 0.0
C2322 C 0.00637 0.18078 0.82752 0.0
C2323 C 0.01045 0.18596 0.79295 0.0
C2324 C 0.0157 0.20345 0.78598 0.0
C2325 C 0.01694 0.21578 0.81358 0.0
H2326 H 0.00951 0.17643 0.77155 0.0
H2327 H 0.01976 0.29609 0.03979 0.0
H2328 H 0.66277 0.94876 0.67304 0.0
H2329 H 0.69338 0.95737 0.68699 0.0
H2330 H 0.7127 0.90911 0.63866 0.0
H2331 H 0.68203 0.90055 0.62387 0.0
H2332 H 0.7309 0.92794 0.71171 0.0
H2333 H 0.71488 0.93294 0.58246 0.0
H2334 H 0.69306 0.94249 0.53747 0.0
H2335 H 0.69252 0.99508 0.58194 0.0
H2336 H 0.71413 0.9857 0.62757 0.0
H2337 H 0.81731 0.93755 0.6439 0.0
H2338 H 0.78673 0.93114 0.66149 0.0
H2339 H 0.77264 0.98622 0.64449 0.0
H2340 H 0.80319 0.99241 0.62514 0.0
H2341 H 0.75012 0.96733 0.61338 0.0
H2342 H 0.77275 0.96586 0.7296 0.0
H2343 H 0.79295 0.95835 0.77876 0.0
H2344 H 0.78007 0.90301 0.76709 0.0
H2345 H 0.75998 0.91013 0.71748 0.0
C2346 C 0.6735 0.93968 0.66651 0.0
C2347 C 0.67016 0.92403 0.64727 0.0
C2348 C 0.69092 0.9446 0.67459 0.0
C2349 C 0.70513 0.9338 0.66397 0.0
C2350 C 0.70177 0.91746 0.64736 0.0
C2351 C 0.68435 0.91267 0.63869 0.0
C2352 C 0.72325 0.94113 0.66362 0.0
C2353 C 0.7353 0.93647 0.69028 0.0
C2354 C 0.72849 0.95287 0.63645 0.0
C2355 C 0.71594 0.9586 0.6085 0.0
C2356 C 0.71001 0.94651 0.58272 0.0
C2357 C 0.6977 0.95188 0.55712 0.0
C2358 C 0.69138 0.96937 0.55688 0.0
C2359 C 0.69741 0.98153 0.58218 0.0
C2360 C 0.70968 0.9762 0.60791 0.0
C2361 C 0.80772 0.94832 0.64454 0.0
C2362 C 0.81245 0.96543 0.63311 0.0
C2363 C 0.79028 0.94471 0.65489 0.0
C2364 C 0.77739 0.95825 0.65483 0.0
C2365 C 0.78235 0.97556 0.64476 0.0
C2366 C 0.79973 0.97909 0.63369 0.0
C2367 C 0.75843 0.95382 0.6611 0.0
C2368 C 0.74599 0.95905 0.63541 0.0
C2369 C 0.75286 0.94294 0.68973 0.0
C2370 C 0.76492 0.93853 0.71961 0.0
C2371 C 0.77432 0.95207 0.73732 0.0
C2372 C 0.78574 0.94788 0.76531 0.0
C2373 C 0.78781 0.93021 0.77601 0.0
C2374 C 0.77844 0.91669 0.75877 0.0
C2375 C 0.76701 0.9208 0.73074 0.0
H2376 H 0.79666 0.927 0.79768 0.0
H2377 H 0.68184 0.97351 0.53706 0.0
H2378 H 0.54832 0.6585 0.05012 0.0
H2379 H 0.53447 0.68739 0.06038 0.0
H2380 H 0.57486 0.69993 0.1377 0.0
H2381 H 0.58865 0.6707 0.12793 0.0
H2382 H 0.54213 0.70987 0.16026 0.0
H2383 H 0.57694 0.71678 0.05388 0.0
H2384 H 0.58684 0.70911 0.99352 0.0
H2385 H 0.53365 0.71672 0.95466 0.0
H2386 H 0.52338 0.7242 0.01491 0.0
H2387 H 0.54084 0.80415 0.15534 0.0
H2388 H 0.54556 0.77211 0.15717 0.0
H2389 H 0.50305 0.76461 0.08181 0.0
H2390 H 0.49817 0.79679 0.08 0.0
H2391 H 0.53378 0.75096 0.05891 0.0
H2392 H 0.49973 0.74751 0.16489 0.0
H2393 H 0.49026 0.75575 0.22518 0.0
H2394 H 0.5421 0.74244 0.26512 0.0
H2395 H 0.55198 0.73436 0.20497 0.0
C2396 C 0.55439 0.66751 0.06896 0.0
C2397 C 0.56975 0.66257 0.08776 0.0
C2398 C 0.54641 0.68395 0.07495 0.0
C2399 C 0.55379 0.69587 0.09943 0.0
C2400 C 0.56899 0.69089 0.11866 0.0
C2401 C 0.5769 0.6743 0.11294 0.0
C2402 C 0.54584 0.71369 0.10424 0.0
C2403 C 0.54044 0.71896 0.13824 0.0
C2404 C 0.54318 0.72527 0.07523 0.0
C2405 C 0.54936 0.72087 0.03896 0.0
C2406 C 0.56733 0.71669 0.03251 0.0
C2407 C 0.57301 0.7124 0.99831 0.0
C2408 C 0.56087 0.71238 0.9703 0.0
C2409 C 0.54303 0.71671 0.9764 0.0
C2410 C 0.53728 0.72099 0.01056 0.0
C2411 C 0.53206 0.79566 0.14011 0.0
C2412 C 0.51926 0.80297 0.11722 0.0
C2413 C 0.53477 0.77733 0.1412 0.0
C2414 C 0.52465 0.76601 0.11962 0.0
C2415 C 0.51102 0.77317 0.09859 0.0
C2416 C 0.50831 0.79152 0.09745 0.0
C2417 C 0.53014 0.74728 0.11503 0.0
C2418 C 0.53519 0.74182 0.08098 0.0
C2419 C 0.53252 0.73563 0.14402 0.0
C2420 C 0.52663 0.74045 0.18031 0.0
C2421 C 0.50916 0.74648 0.18646 0.0
C2422 C 0.50371 0.75109 0.22064 0.0
C2423 C 0.51558 0.74965 0.24895 0.0
C2424 C 0.53292 0.74355 0.24316 0.0
C2425 C 0.53845 0.73893 0.20903 0.0
H2426 H 0.51134 0.75323 0.27539 0.0
H2427 H 0.5653 0.70906 0.94384 0.0
H2428 H 0.84888 0.51815 0.50063 0.0
H2429 H 0.82571 0.49608 0.48958 0.0
H2430 H 0.78692 0.53814 0.47923 0.0
H2431 H 0.8101 0.56026 0.4891 0.0
H2432 H 0.80061 0.4918 0.53572 0.0
H2433 H 0.75127 0.5262 0.43597 0.0
H2434 H 0.75288 0.54112 0.37801 0.0
H2435 H 0.80226 0.51458 0.35559 0.0
H2436 H 0.80083 0.49927 0.41317 0.0
H2437 H 0.71355 0.50145 0.58684 0.0
H2438 H 0.74445 0.5009 0.56772 0.0
H2439 H 0.73065 0.46617 0.48105 0.0
H2440 H 0.69957 0.46626 0.50062 0.0
H2441 H 0.74748 0.49545 0.45823 0.0
H2442 H 0.75975 0.45093 0.54111 0.0
H2443 H 0.75853 0.43472 0.59775 0.0
H2444 H 0.78437 0.47836 0.65009 0.0
H2445 H 0.7855 0.49497 0.59393 0.0
C2446 C 0.83556 0.52274 0.49445 0.0
C2447 C 0.83123 0.54095 0.4962 0.0
C2448 C 0.82232 0.51008 0.48833 0.0
C2449 C 0.80458 0.51542 0.48367 0.0
C2450 C 0.80055 0.53366 0.48228 0.0
C2451 C 0.81377 0.54632 0.48837 0.0
C2452 C 0.78988 0.5024 0.48718 0.0
C2453 C 0.78911 0.49229 0.5184 0.0
C2454 C 0.77514 0.50249 0.46394 0.0
C2455 C 0.77594 0.51157 0.42902 0.0
C2456 C 0.7624 0.5234 0.41859 0.0
C2457 C 0.76331 0.53198 0.38581 0.0
C2458 C 0.77767 0.52881 0.36314 0.0
C2459 C 0.79115 0.51705 0.3732 0.0
C2460 C 0.79032 0.50844 0.40594 0.0
C2461 C 0.71713 0.49315 0.56449 0.0
C2462 C 0.70404 0.48407 0.54505 0.0
C2463 C 0.73484 0.49286 0.55353 0.0
C2464 C 0.73984 0.48345 0.52299 0.0
C2465 C 0.72704 0.47352 0.50465 0.0
C2466 C 0.70929 0.4737 0.51576 0.0
C2467 C 0.75784 0.48623 0.50811 0.0
C2468 C 0.75922 0.49438 0.4748 0.0
C2469 C 0.77323 0.48412 0.52916 0.0
C2470 C 0.77272 0.4742 0.56318 0.0
C2471 C 0.7651 0.45712 0.56472 0.0
C2472 C 0.76442 0.44786 0.59676 0.0
C2473 C 0.77137 0.4555 0.6275 0.0
C2474 C 0.77902 0.47243 0.62624 0.0
C2475 C 0.77972 0.48177 0.59427 0.0
H2476 H 0.77083 0.44831 0.65228 0.0
H2477 H 0.77834 0.53547 0.33778 0.0
H2478 H 0.93057 0.70542 0.12043 0.0
H2479 H 0.92774 0.73645 0.13907 0.0
H2480 H 0.97758 0.73258 0.19533 0.0
H2481 H 0.98034 0.70132 0.17706 0.0
H2482 H 0.92969 0.75683 0.2057 0.0
H2483 H 0.00038 0.76951 0.16449 0.0
H2484 H 0.02497 0.75527 0.13148 0.0
H2485 H 0.98725 0.73068 0.06144 0.0
H2486 H 0.96251 0.74498 0.09376 0.0
H2487 H 0.96151 0.85062 0.12986 0.0
H2488 H 0.96851 0.82269 0.16017 0.0
H2489 H 0.91566 0.80327 0.13679 0.0
H2490 H 0.90854 0.83131 0.10755 0.0
H2491 H 0.97105 0.79227 0.13136 0.0
H2492 H 0.90135 0.7727 0.19149 0.0
H2493 H 0.87713 0.78745 0.22436 0.0
H2494 H 0.91343 0.82783 0.25975 0.0
H2495 H 0.93797 0.81317 0.22768 0.0
C2496 C 0.94072 0.71112 0.13734 0.0
C2497 C 0.9558 0.70122 0.14687 0.0
C2498 C 0.93899 0.72871 0.14835 0.0
C2499 C 0.95246 0.73671 0.16851 0.0
C2500 C 0.96703 0.72653 0.17994 0.0
C2501 C 0.96863 0.70879 0.16934 0.0
C2502 C 0.9526 0.75623 0.17153 0.0
C2503 C 0.93878 0.76474 0.18988 0.0
C2504 C 0.96492 0.76643 0.15191 0.0
C2505 C 0.97966 0.75811 0.13178 0.0
C2506 C -0.00262 0.76109 0.14199 0.0
C2507 C 0.01132 0.75302 0.1234 0.0
C2508 C 0.00767 0.74202 0.09447 0.0
C2509 C 0.99006 0.73915 0.08392 0.0
C2510 C 0.97608 0.74723 0.10236 0.0
C2511 C 0.95137 0.84041 0.13165 0.0
C2512 C 0.93455 0.84296 0.11621 0.0
C2513 C 0.95533 0.82455 0.14913 0.0
C2514 C 0.94255 0.81096 0.15121 0.0
C2515 C 0.92559 0.81373 0.13649 0.0
C2516 C 0.92156 0.82967 0.11946 0.0
C2517 C 0.94752 0.79306 0.16424 0.0
C2518 C 0.96233 0.78475 0.14871 0.0
C2519 C 0.93621 0.78318 0.18692 0.0
C2520 C 0.92153 0.79182 0.20701 0.0
C2521 C 0.90424 0.78462 0.20655 0.0
C2522 C 0.89043 0.793 0.22499 0.0
C2523 C 0.89373 0.80857 0.24409 0.0
C2524 C 0.91088 0.81578 0.24489 0.0
C2525 C 0.92474 0.80744 0.22655 0.0
H2526 H 0.88302 0.81506 0.25827 0.0
H2527 H 0.01848 0.73576 0.08016 0.0
loop_
_geom_bond_atom_site_label_1
_geom_bond_atom_site_label_2
_geom_bond_distance
_geom_bond_site_symmetry_2
_ccdc_geom_bond_type
C0 C1 1.351 . S
C0 N3 1.368 . S
C0 H5 0.931 . S
C1 C0 1.351 . S
C1 N2 1.373 . S
C1 H29 0.930 . S
N2 C1 1.373 . S
N2 C4 1.340 . S
N3 C0 1.368 . S
N3 C4 1.321 . S
N3 Co6 2.135 1_565 S
C4 N2 1.340 . S
C4 N3 1.321 . S
C4 H28 0.930 1_565 S
H5 C0 0.931 . S
Co6 N3 2.135 1_545 S
Co6 N9 2.121 . S
Co6 O14 2.055 . S
Co6 O17 2.039 . S
Co6 N20 2.140 . S
C7 O8 1.227 . S
C7 O17 1.265 . S
O8 C7 1.227 . S
N9 Co6 2.121 . S
N9 C11 1.375 . S
N9 C12 1.313 . S
C10 C11 1.338 . S
C10 N13 1.377 . S
C10 H30 0.930 . S
C11 N9 1.375 . S
C11 C10 1.338 . S
C11 H15 0.931 . S
C12 N9 1.313 . S
C12 N13 1.344 . S
C12 H16 0.930 . S
N13 C10 1.377 . S
N13 C12 1.344 . S
O14 Co6 2.055 . S
O14 C18 1.253 . S
H15 C11 0.931 . S
H16 C12 0.930 . S
O17 Co6 2.039 . S
O17 C7 1.265 . S
C18 O14 1.253 . S
C18 O19 1.219 1_545 S
O19 C18 1.219 1_565 S
N20 Co6 2.140 . S
N20 C23 1.346 . S
N20 C24 1.345 . S
C21 C22 1.387 . S
C21 C25 1.391 . S
C22 C21 1.387 . S
C22 C23 1.369 . S
C22 H31 0.929 . S
C23 N20 1.346 . S
C23 C22 1.369 . S
C23 H26 0.928 . S
C24 N20 1.345 . S
C24 C25 1.371 . S
C24 H27 0.931 . S
C25 C21 1.391 . S
C25 C24 1.371 . S
C25 H32 0.930 . S
H26 C23 0.928 . S
H27 C24 0.931 . S
H28 C4 0.930 1_545 S
H29 C1 0.930 . S
H30 C10 0.930 . S
H31 C22 0.929 . S
H32 C25 0.930 . S
C33 C34 1.351 . S
C33 N36 1.368 . S
C33 H38 0.931 . S
C34 C33 1.351 . S
C34 N35 1.373 . S
C34 H62 0.930 . S
N35 C34 1.373 . S
N35 C37 1.340 . S
N36 C33 1.368 . S
N36 C37 1.321 . S
N36 Co39 2.135 . S
C37 N35 1.340 . S
C37 N36 1.321 . S
C37 H61 0.930 . S
H38 C33 0.931 . S
Co39 N36 2.135 . S
Co39 N42 2.121 . S
Co39 O47 2.055 . S
Co39 O50 2.039 . S
Co39 N53 2.140 . S
C40 O41 1.227 . S
C40 O50 1.265 . S
O41 C40 1.227 . S
N42 Co39 2.121 . S
N42 C44 1.375 . S
N42 C45 1.313 . S
C43 C44 1.338 . S
C43 N46 1.377 1_556 S
C43 H63 0.930 . S
C44 N42 1.375 . S
C44 C43 1.338 . S
C44 H48 0.931 . S
C45 N42 1.313 . S
C45 N46 1.344 1_556 S
C45 H49 0.930 1_556 S
N46 C43 1.377 1_554 S
N46 C45 1.344 1_554 S
O47 Co39 2.055 . S
O47 C51 1.253 . S
H48 C44 0.931 . S
H49 C45 0.930 1_554 S
O50 Co39 2.039 . S
O50 C40 1.265 . S
C51 O47 1.253 . S
C51 O52 1.227 . S
O52 C51 1.227 . S
N53 Co39 2.140 . S
N53 C56 1.346 . S
N53 C57 1.345 . S
C54 C55 1.387 . S
C54 C58 1.391 . S
C55 C54 1.387 . S
C55 C56 1.369 . S
C55 H64 0.929 . S
C56 N53 1.346 . S
C56 C55 1.369 . S
C56 H59 0.928 . S
C57 N53 1.345 . S
C57 C58 1.371 . S
C57 H60 0.931 . S
C58 C54 1.391 . S
C58 C57 1.371 . S
C58 H65 0.930 . S
H59 C56 0.928 . S
H60 C57 0.931 . S
H61 C37 0.930 . S
H62 C34 0.930 . S
H63 C43 0.930 . S
H64 C55 0.929 . S
H65 C58 0.930 . S
C66 C67 1.351 . S
C66 N69 1.368 . S
C66 H71 0.931 . S
C67 C66 1.351 . S
C67 N68 1.373 . S
C67 H95 0.930 . S
N68 C67 1.373 . S
N68 C70 1.340 . S
N69 C66 1.368 . S
N69 C70 1.321 . S
N69 Co72 2.135 . S
C70 N68 1.340 . S
C70 N69 1.321 . S
C70 H94 0.930 . S
H71 C66 0.931 . S
Co72 N69 2.135 . S
Co72 N75 2.121 . S
Co72 O80 2.055 . S
Co72 O83 2.039 . S
Co72 N86 2.140 . S
C73 O74 1.227 . S
C73 O83 1.265 . S
O74 C73 1.227 . S
N75 Co72 2.121 . S
N75 C77 1.375 . S
N75 C78 1.313 . S
C76 C77 1.338 . S
C76 N79 1.377 . S
C76 H96 0.930 . S
C77 N75 1.375 . S
C77 C76 1.338 . S
C77 H81 0.931 . S
C78 N75 1.313 . S
C78 N79 1.344 . S
C78 H82 0.930 . S
N79 C76 1.377 . S
N79 C78 1.344 . S
O80 Co72 2.055 . S
O80 C84 1.253 . S
H81 C77 0.931 . S
H82 C78 0.930 . S
O83 Co72 2.039 . S
O83 C73 1.265 . S
C84 O80 1.253 . S
C84 O85 1.227 . S
O85 C84 1.227 . S
N86 Co72 2.140 . S
N86 C89 1.346 . S
N86 C90 1.345 . S
C87 C88 1.387 . S
C87 C91 1.391 . S
C88 C87 1.387 . S
C88 C89 1.369 . S
C88 H97 0.929 . S
C89 N86 1.346 . S
C89 C88 1.369 . S
C89 H92 0.928 . S
C90 N86 1.345 . S
C90 C91 1.371 . S
C90 H93 0.931 . S
C91 C87 1.391 . S
C91 C90 1.371 . S
C91 H98 0.930 . S
H92 C89 0.928 . S
H93 C90 0.931 . S
H94 C70 0.930 . S
H95 C67 0.930 . S
H96 C76 0.930 . S
H97 C88 0.929 . S
H98 C91 0.930 . S
C99 C100 1.351 . S
C99 N102 1.368 . S
C99 H104 0.931 . S
C100 C99 1.351 . S
C100 N101 1.373 . S
C100 H128 0.930 . S
N101 C100 1.373 . S
N101 C103 1.340 . S
N102 C99 1.368 . S
N102 C103 1.321 . S
N102 Co105 2.135 1_655 S
C103 N101 1.340 . S
C103 N102 1.321 . S
C103 H127 0.930 1_655 S
H104 C99 0.931 . S
Co105 N102 2.135 1_455 S
Co105 N108 2.121 . S
Co105 O113 2.055 . S
Co105 O116 2.039 . S
Co105 N119 2.140 . S
C106 O107 1.227 . S
C106 O116 1.265 . S
O107 C106 1.227 . S
N108 Co105 2.121 . S
N108 C110 1.375 . S
N108 C111 1.313 . S
C109 C110 1.338 . S
C109 N112 1.377 1_556 S
C109 H129 0.930 . S
C110 N108 1.375 . S
C110 C109 1.338 . S
C110 H114 0.931 . S
C111 N108 1.313 . S
C111 N112 1.344 1_556 S
C111 H115 0.930 1_556 S
N112 C109 1.377 1_554 S
N112 C111 1.344 1_554 S
O113 Co105 2.055 . S
O113 C117 1.253 . S
H114 C110 0.931 . S
H115 C111 0.930 1_554 S
O116 Co105 2.039 . S
O116 C106 1.265 . S
C117 O113 1.253 . S
C117 O118 1.219 1_455 S
O118 C117 1.219 1_655 S
N119 Co105 2.140 . S
N119 C122 1.346 . S
N119 C123 1.345 . S
C120 C121 1.387 . S
C120 C124 1.391 . S
C121 C120 1.387 . S
C121 C122 1.369 . S
C121 H130 0.929 . S
C122 N119 1.346 . S
C122 C121 1.369 . S
C122 H125 0.928 . S
C123 N119 1.345 . S
C123 C124 1.371 . S
C123 H126 0.931 . S
C124 C120 1.391 . S
C124 C123 1.371 . S
C124 H131 0.930 . S
H125 C122 0.928 . S
H126 C123 0.931 . S
H127 C103 0.930 1_455 S
H128 C100 0.930 . S
H129 C109 0.930 . S
H130 C121 0.929 . S
H131 C124 0.930 . S
C132 C133 1.351 . S
C132 N135 1.368 . S
C132 H137 0.931 . S
C133 C132 1.351 . S
C133 N134 1.373 . S
C133 H161 0.930 . S
N134 C133 1.373 . S
N134 C136 1.340 . S
N135 C132 1.368 . S
N135 C136 1.321 . S
N135 Co138 2.135 1_545 S
C136 N134 1.340 . S
C136 N135 1.321 . S
C136 H160 0.930 1_545 S
H137 C132 0.931 . S
Co138 N135 2.135 1_565 S
Co138 N141 2.121 . S
Co138 O146 2.055 . S
Co138 O149 2.039 . S
Co138 N152 2.140 . S
C139 O140 1.227 . S
C139 O149 1.265 . S
O140 C139 1.227 . S
N141 Co138 2.121 . S
N141 C143 1.375 . S
N141 C144 1.313 . S
C142 C143 1.338 . S
C142 N145 1.377 . S
C142 H162 0.930 . S
C143 N141 1.375 . S
C143 C142 1.338 . S
C143 H147 0.931 . S
C144 N141 1.313 . S
C144 N145 1.344 . S
C144 H148 0.930 . S
N145 C142 1.377 . S
N145 C144 1.344 . S
O146 Co138 2.055 . S
O146 C150 1.253 . S
H147 C143 0.931 . S
H148 C144 0.930 . S
O149 Co138 2.039 . S
O149 C139 1.265 . S
C150 O146 1.253 . S
C150 O151 1.219 1_565 S
O151 C150 1.219 1_545 S
N152 Co138 2.140 . S
N152 C155 1.346 . S
N152 C156 1.345 . S
C153 C154 1.387 . S
C153 C157 1.391 . S
C154 C153 1.387 . S
C154 C155 1.369 . S
C154 H163 0.929 . S
C155 N152 1.346 . S
C155 C154 1.369 . S
C155 H158 0.928 . S
C156 N152 1.345 . S
C156 C157 1.371 . S
C156 H159 0.931 . S
C157 C153 1.391 . S
C157 C156 1.371 . S
C157 H164 0.930 . S
H158 C155 0.928 . S
H159 C156 0.931 . S
H160 C136 0.930 1_565 S
H161 C133 0.930 . S
H162 C142 0.930 . S
H163 C154 0.929 . S
H164 C157 0.930 . S
C165 C166 1.351 . S
C165 N168 1.368 . S
C165 H170 0.931 . S
C166 C165 1.351 . S
C166 N167 1.373 . S
C166 H194 0.930 . S
N167 C166 1.373 . S
N167 C169 1.340 . S
N168 C165 1.368 . S
N168 C169 1.321 . S
N168 Co171 2.135 . S
C169 N167 1.340 . S
C169 N168 1.321 . S
C169 H193 0.930 . S
H170 C165 0.931 . S
Co171 N168 2.135 . S
Co171 N174 2.121 . S
Co171 O179 2.055 . S
Co171 O182 2.039 . S
Co171 N185 2.140 . S
C172 O173 1.227 . S
C172 O182 1.265 . S
O173 C172 1.227 . S
N174 Co171 2.121 . S
N174 C176 1.375 . S
N174 C177 1.313 . S
C175 C176 1.338 . S
C175 N178 1.377 1_554 S
C175 H195 0.930 . S
C176 N174 1.375 . S
C176 C175 1.338 . S
C176 H180 0.931 . S
C177 N174 1.313 . S
C177 N178 1.344 1_554 S
C177 H181 0.930 1_554 S
N178 C175 1.377 1_556 S
N178 C177 1.344 1_556 S
O179 Co171 2.055 . S
O179 C183 1.253 . S
H180 C176 0.931 . S
H181 C177 0.930 1_556 S
O182 Co171 2.039 . S
O182 C172 1.265 . S
C183 O179 1.253 . S
C183 O184 1.227 . S
O184 C183 1.227 . S
N185 Co171 2.140 . S
N185 C188 1.346 . S
N185 C189 1.345 . S
C186 C187 1.387 . S
C186 C190 1.391 . S
C187 C186 1.387 . S
C187 C188 1.369 . S
C187 H196 0.929 . S
C188 N185 1.346 . S
C188 C187 1.369 . S
C188 H191 0.928 . S
C189 N185 1.345 . S
C189 C190 1.371 . S
C189 H192 0.931 . S
C190 C186 1.391 . S
C190 C189 1.371 . S
C190 H197 0.930 . S
H191 C188 0.928 . S
H192 C189 0.931 . S
H193 C169 0.930 . S
H194 C166 0.930 . S
H195 C175 0.930 . S
H196 C187 0.929 . S
H197 C190 0.930 . S
C198 C199 1.351 . S
C198 N201 1.368 . S
C198 H203 0.931 . S
C199 C198 1.351 . S
C199 N200 1.373 . S
C199 H227 0.930 . S
N200 C199 1.373 . S
N200 C202 1.340 . S
N201 C198 1.368 . S
N201 C202 1.321 . S
N201 Co204 2.135 . S
C202 N200 1.340 . S
C202 N201 1.321 . S
C202 H226 0.930 . S
H203 C198 0.931 . S
Co204 N201 2.135 . S
Co204 N207 2.121 . S
Co204 O212 2.055 . S
Co204 O215 2.039 . S
Co204 N218 2.140 . S
C205 O206 1.227 . S
C205 O215 1.265 . S
O206 C205 1.227 . S
N207 Co204 2.121 . S
N207 C209 1.375 . S
N207 C210 1.313 . S
C208 C209 1.338 . S
C208 N211 1.377 . S
C208 H228 0.930 . S
C209 N207 1.375 . S
C209 C208 1.338 . S
C209 H213 0.931 . S
C210 N207 1.313 . S
C210 N211 1.344 . S
C210 H214 0.930 . S
N211 C208 1.377 . S
N211 C210 1.344 . S
O212 Co204 2.055 . S
O212 C216 1.253 . S
H213 C209 0.931 . S
H214 C210 0.930 . S
O215 Co204 2.039 . S
O215 C205 1.265 . S
C216 O212 1.253 . S
C216 O217 1.227 . S
O217 C216 1.227 . S
N218 Co204 2.140 . S
N218 C221 1.346 . S
N218 C222 1.345 . S
C219 C220 1.387 . S
C219 C223 1.391 . S
C220 C219 1.387 . S
C220 C221 1.369 . S
C220 H229 0.929 . S
C221 N218 1.346 . S
C221 C220 1.369 . S
C221 H224 0.928 . S
C222 N218 1.345 . S
C222 C223 1.371 . S
C222 H225 0.931 . S
C223 C219 1.391 . S
C223 C222 1.371 . S
C223 H230 0.930 . S
H224 C221 0.928 . S
H225 C222 0.931 . S
H226 C202 0.930 . S
H227 C199 0.930 . S
H228 C208 0.930 . S
H229 C220 0.929 . S
H230 C223 0.930 . S
C231 C232 1.351 . S
C231 N234 1.368 . S
C231 H236 0.931 . S
C232 C231 1.351 . S
C232 N233 1.373 . S
C232 H260 0.930 . S
N233 C232 1.373 . S
N233 C235 1.340 . S
N234 C231 1.368 . S
N234 C235 1.321 . S
N234 Co237 2.135 1_455 S
C235 N233 1.340 . S
C235 N234 1.321 . S
C235 H259 0.930 1_455 S
H236 C231 0.931 . S
Co237 N234 2.135 1_655 S
Co237 N240 2.121 . S
Co237 O245 2.055 . S
Co237 O248 2.039 . S
Co237 N251 2.140 . S
C238 O239 1.227 . S
C238 O248 1.265 . S
O239 C238 1.227 . S
N240 Co237 2.121 . S
N240 C242 1.375 . S
N240 C243 1.313 . S
C241 C242 1.338 . S
C241 N244 1.377 1_554 S
C241 H261 0.930 . S
C242 N240 1.375 . S
C242 C241 1.338 . S
C242 H246 0.931 . S
C243 N240 1.313 . S
C243 N244 1.344 1_554 S
C243 H247 0.930 1_554 S
N244 C241 1.377 1_556 S
N244 C243 1.344 1_556 S
O245 Co237 2.055 . S
O245 C249 1.253 . S
H246 C242 0.931 . S
H247 C243 0.930 1_556 S
O248 Co237 2.039 . S
O248 C238 1.265 . S
C249 O245 1.253 . S
C249 O250 1.219 1_655 S
O250 C249 1.219 1_455 S
N251 Co237 2.140 . S
N251 C254 1.346 . S
N251 C255 1.345 . S
C252 C253 1.387 . S
C252 C256 1.391 . S
C253 C252 1.387 . S
C253 C254 1.369 . S
C253 H262 0.929 . S
C254 N251 1.346 . S
C254 C253 1.369 . S
C254 H257 0.928 . S
C255 N251 1.345 . S
C255 C256 1.371 . S
C255 H258 0.931 . S
C256 C252 1.391 . S
C256 C255 1.371 . S
C256 H263 0.930 . S
H257 C254 0.928 . S
H258 C255 0.931 . S
H259 C235 0.930 1_655 S
H260 C232 0.930 . S
H261 C241 0.930 . S
H262 C253 0.929 . S
H263 C256 0.930 . S
C264 C265 1.351 . S
C264 N267 1.368 . S
C264 H269 0.931 . S
C265 C264 1.351 . S
C265 N266 1.373 . S
C265 H293 0.930 . S
N266 C265 1.373 . S
N266 C268 1.340 . S
N267 C264 1.368 . S
N267 C268 1.321 . S
N267 Co270 2.135 1_545 S
C268 N266 1.340 . S
C268 N267 1.321 . S
C268 H292 0.930 1_545 S
H269 C264 0.931 . S
Co270 N267 2.135 1_565 S
Co270 N273 2.121 . S
Co270 O278 2.055 . S
Co270 O281 2.039 . S
Co270 N284 2.140 . S
C271 O272 1.227 . S
C271 O281 1.265 . S
O272 C271 1.227 . S
N273 Co270 2.121 . S
N273 C275 1.375 . S
N273 C276 1.313 . S
C274 C275 1.338 . S
C274 N277 1.377 . S
C274 H294 0.930 . S
C275 N273 1.375 . S
C275 C274 1.338 . S
C275 H279 0.931 . S
C276 N273 1.313 . S
C276 N277 1.344 . S
C276 H280 0.930 . S
N277 C274 1.377 . S
N277 C276 1.344 . S
O278 Co270 2.055 . S
O278 C282 1.253 . S
H279 C275 0.931 . S
H280 C276 0.930 . S
O281 Co270 2.039 . S
O281 C271 1.265 . S
C282 O278 1.253 . S
C282 O283 1.219 1_565 S
O283 C282 1.219 1_545 S
N284 Co270 2.140 . S
N284 C287 1.346 . S
N284 C288 1.345 . S
C285 C286 1.387 . S
C285 C289 1.391 . S
C286 C285 1.387 . S
C286 C287 1.369 . S
C286 H295 0.929 . S
C287 N284 1.346 . S
C287 C286 1.369 . S
C287 H290 0.928 . S
C288 N284 1.345 . S
C288 C289 1.371 . S
C288 H291 0.931 . S
C289 C285 1.391 . S
C289 C288 1.371 . S
C289 H296 0.930 . S
H290 C287 0.928 . S
H291 C288 0.931 . S
H292 C268 0.930 1_565 S
H293 C265 0.930 . S
H294 C274 0.930 . S
H295 C286 0.929 . S
H296 C289 0.930 . S
C297 C298 1.351 . S
C297 N300 1.368 . S
C297 H302 0.931 . S
C298 C297 1.351 . S
C298 N299 1.373 . S
C298 H326 0.930 . S
N299 C298 1.373 . S
N299 C301 1.340 . S
N300 C297 1.368 . S
N300 C301 1.321 . S
N300 Co303 2.135 . S
C301 N299 1.340 . S
C301 N300 1.321 . S
C301 H325 0.930 . S
H302 C297 0.931 . S
Co303 N300 2.135 . S
Co303 N306 2.121 . S
Co303 O311 2.055 . S
Co303 O314 2.039 . S
Co303 N317 2.140 . S
C304 O305 1.227 . S
C304 O314 1.265 . S
O305 C304 1.227 . S
N306 Co303 2.121 . S
N306 C308 1.375 . S
N306 C309 1.313 . S
C307 C308 1.338 . S
C307 N310 1.377 1_554 S
C307 H327 0.930 . S
C308 N306 1.375 . S
C308 C307 1.338 . S
C308 H312 0.931 . S
C309 N306 1.313 . S
C309 N310 1.344 1_554 S
C309 H313 0.930 1_554 S
N310 C307 1.377 1_556 S
N310 C309 1.344 1_556 S
O311 Co303 2.055 . S
O311 C315 1.253 . S
H312 C308 0.931 . S
H313 C309 0.930 1_556 S
O314 Co303 2.039 . S
O314 C304 1.265 . S
C315 O311 1.253 . S
C315 O316 1.227 . S
O316 C315 1.227 . S
N317 Co303 2.140 . S
N317 C320 1.346 . S
N317 C321 1.345 . S
C318 C319 1.387 . S
C318 C322 1.391 . S
C319 C318 1.387 . S
C319 C320 1.369 . S
C319 H328 0.929 . S
C320 N317 1.346 . S
C320 C319 1.369 . S
C320 H323 0.928 . S
C321 N317 1.345 . S
C321 C322 1.371 . S
C321 H324 0.931 . S
C322 C318 1.391 . S
C322 C321 1.371 . S
C322 H329 0.930 . S
H323 C320 0.928 . S
H324 C321 0.931 . S
H325 C301 0.930 . S
H326 C298 0.930 . S
H327 C307 0.930 . S
H328 C319 0.929 . S
H329 C322 0.930 . S
C330 C331 1.351 . S
C330 N333 1.368 . S
C330 H335 0.931 . S
C331 C330 1.351 . S
C331 N332 1.373 . S
C331 H359 0.930 . S
N332 C331 1.373 . S
N332 C334 1.340 . S
N333 C330 1.368 . S
N333 C334 1.321 . S
N333 Co336 2.135 . S
C334 N332 1.340 . S
C334 N333 1.321 . S
C334 H358 0.930 . S
H335 C330 0.931 . S
Co336 N333 2.135 . S
Co336 N339 2.121 . S
Co336 O344 2.055 . S
Co336 O347 2.039 . S
Co336 N350 2.140 . S
C337 O338 1.227 . S
C337 O347 1.265 . S
O338 C337 1.227 . S
N339 Co336 2.121 . S
N339 C341 1.375 . S
N339 C342 1.313 . S
C340 C341 1.338 . S
C340 N343 1.377 . S
C340 H360 0.930 . S
C341 N339 1.375 . S
C341 C340 1.338 . S
C341 H345 0.931 . S
C342 N339 1.313 . S
C342 N343 1.344 . S
C342 H346 0.930 . S
N343 C340 1.377 . S
N343 C342 1.344 . S
O344 Co336 2.055 . S
O344 C348 1.253 . S
H345 C341 0.931 . S
H346 C342 0.930 . S
O347 Co336 2.039 . S
O347 C337 1.265 . S
C348 O344 1.253 . S
C348 O349 1.227 . S
O349 C348 1.227 . S
N350 Co336 2.140 . S
N350 C353 1.346 . S
N350 C354 1.345 . S
C351 C352 1.387 . S
C351 C355 1.391 . S
C352 C351 1.387 . S
C352 C353 1.369 . S
C352 H361 0.929 . S
C353 N350 1.346 . S
C353 C352 1.369 . S
C353 H356 0.928 . S
C354 N350 1.345 . S
C354 C355 1.371 . S
C354 H357 0.931 . S
C355 C351 1.391 . S
C355 C354 1.371 . S
C355 H362 0.930 . S
H356 C353 0.928 . S
H357 C354 0.931 . S
H358 C334 0.930 . S
H359 C331 0.930 . S
H360 C340 0.930 . S
H361 C352 0.929 . S
H362 C355 0.930 . S
C363 C364 1.351 . S
C363 N366 1.368 . S
C363 H368 0.931 . S
C364 C363 1.351 . S
C364 N365 1.373 . S
C364 H392 0.930 . S
N365 C364 1.373 . S
N365 C367 1.340 . S
N366 C363 1.368 . S
N366 C367 1.321 . S
N366 Co369 2.135 1_455 S
C367 N365 1.340 . S
C367 N366 1.321 . S
C367 H391 0.930 1_455 S
H368 C363 0.931 . S
Co369 N366 2.135 1_655 S
Co369 N372 2.121 . S
Co369 O377 2.055 . S
Co369 O380 2.039 . S
Co369 N383 2.140 . S
C370 O371 1.227 . S
C370 O380 1.265 . S
O371 C370 1.227 . S
N372 Co369 2.121 . S
N372 C374 1.375 . S
N372 C375 1.313 . S
C373 C374 1.338 . S
C373 N376 1.377 1_554 S
C373 H393 0.930 . S
C374 N372 1.375 . S
C374 C373 1.338 . S
C374 H378 0.931 . S
C375 N372 1.313 . S
C375 N376 1.344 1_554 S
C375 H379 0.930 1_554 S
N376 C373 1.377 1_556 S
N376 C375 1.344 1_556 S
O377 Co369 2.055 . S
O377 C381 1.253 . S
H378 C374 0.931 . S
H379 C375 0.930 1_556 S
O380 Co369 2.039 . S
O380 C370 1.265 . S
C381 O377 1.253 . S
C381 O382 1.219 1_655 S
O382 C381 1.219 1_455 S
N383 Co369 2.140 . S
N383 C386 1.346 . S
N383 C387 1.345 . S
C384 C385 1.387 . S
C384 C388 1.391 . S
C385 C384 1.387 . S
C385 C386 1.369 . S
C385 H394 0.929 . S
C386 N383 1.346 . S
C386 C385 1.369 . S
C386 H389 0.928 . S
C387 N383 1.345 . S
C387 C388 1.371 . S
C387 H390 0.931 . S
C388 C384 1.391 . S
C388 C387 1.371 . S
C388 H395 0.930 . S
H389 C386 0.928 . S
H390 C387 0.931 . S
H391 C367 0.930 1_655 S
H392 C364 0.930 . S
H393 C373 0.930 . S
H394 C385 0.929 . S
H395 C388 0.930 . S
C396 C397 1.351 . S
C396 N399 1.368 . S
C396 H401 0.931 . S
C397 C396 1.351 . S
C397 N398 1.373 . S
C397 H425 0.930 . S
N398 C397 1.373 . S
N398 C400 1.340 . S
N399 C396 1.368 . S
N399 C400 1.321 . S
N399 Co402 2.135 1_565 S
C400 N398 1.340 . S
C400 N399 1.321 . S
C400 H424 0.930 1_565 S
H401 C396 0.931 . S
Co402 N399 2.135 1_545 S
Co402 N405 2.121 . S
Co402 O410 2.055 . S
Co402 O413 2.039 . S
Co402 N416 2.140 . S
C403 O404 1.227 . S
C403 O413 1.265 . S
O404 C403 1.227 . S
N405 Co402 2.121 . S
N405 C407 1.375 . S
N405 C408 1.313 . S
C406 C407 1.338 . S
C406 N409 1.377 . S
C406 H426 0.930 . S
C407 N405 1.375 . S
C407 C406 1.338 . S
C407 H411 0.931 . S
C408 N405 1.313 . S
C408 N409 1.344 . S
C408 H412 0.930 . S
N409 C406 1.377 . S
N409 C408 1.344 . S
O410 Co402 2.055 . S
O410 C414 1.253 . S
H411 C407 0.931 . S
H412 C408 0.930 . S
O413 Co402 2.039 . S
O413 C403 1.265 . S
C414 O410 1.253 . S
C414 O415 1.219 1_545 S
O415 C414 1.219 1_565 S
N416 Co402 2.140 . S
N416 C419 1.346 . S
N416 C420 1.345 . S
C417 C418 1.387 . S
C417 C421 1.391 . S
C418 C417 1.387 . S
C418 C419 1.369 . S
C418 H427 0.929 . S
C419 N416 1.346 . S
C419 C418 1.369 . S
C419 H422 0.928 . S
C420 N416 1.345 . S
C420 C421 1.371 . S
C420 H423 0.931 . S
C421 C417 1.391 . S
C421 C420 1.371 . S
C421 H428 0.930 . S
H422 C419 0.928 . S
H423 C420 0.931 . S
H424 C400 0.930 1_545 S
H425 C397 0.930 . S
H426 C406 0.930 . S
H427 C418 0.929 . S
H428 C421 0.930 . S
C429 C430 1.351 . S
C429 N432 1.368 . S
C429 H434 0.931 . S
C430 C429 1.351 . S
C430 N431 1.373 . S
C430 H458 0.930 . S
N431 C430 1.373 . S
N431 C433 1.340 . S
N432 C429 1.368 . S
N432 C433 1.321 . S
N432 Co435 2.135 . S
C433 N431 1.340 . S
C433 N432 1.321 . S
C433 H457 0.930 . S
H434 C429 0.931 . S
Co435 N432 2.135 . S
Co435 N438 2.121 . S
Co435 O443 2.055 . S
Co435 O446 2.039 . S
Co435 N449 2.140 . S
C436 O437 1.227 . S
C436 O446 1.265 . S
O437 C436 1.227 . S
N438 Co435 2.121 . S
N438 C440 1.375 . S
N438 C441 1.313 . S
C439 C440 1.338 . S
C439 N442 1.377 1_556 S
C439 H459 0.930 . S
C440 N438 1.375 . S
C440 C439 1.338 . S
C440 H444 0.931 . S
C441 N438 1.313 . S
C441 N442 1.344 1_556 S
C441 H445 0.930 1_556 S
N442 C439 1.377 1_554 S
N442 C441 1.344 1_554 S
O443 Co435 2.055 . S
O443 C447 1.253 . S
H444 C440 0.931 . S
H445 C441 0.930 1_554 S
O446 Co435 2.039 . S
O446 C436 1.265 . S
C447 O443 1.253 . S
C447 O448 1.227 . S
O448 C447 1.227 . S
N449 Co435 2.140 . S
N449 C452 1.346 . S
N449 C453 1.345 . S
C450 C451 1.387 . S
C450 C454 1.391 . S
C451 C450 1.387 . S
C451 C452 1.369 . S
C451 H460 0.929 . S
C452 N449 1.346 . S
C452 C451 1.369 . S
C452 H455 0.928 . S
C453 N449 1.345 . S
C453 C454 1.371 . S
C453 H456 0.931 . S
C454 C450 1.391 . S
C454 C453 1.371 . S
C454 H461 0.930 . S
H455 C452 0.928 . S
H456 C453 0.931 . S
H457 C433 0.930 . S
H458 C430 0.930 . S
H459 C439 0.930 . S
H460 C451 0.929 . S
H461 C454 0.930 . S
C462 C463 1.351 . S
C462 N465 1.368 . S
C462 H467 0.931 . S
C463 C462 1.351 . S
C463 N464 1.373 . S
C463 H491 0.930 . S
N464 C463 1.373 . S
N464 C466 1.340 . S
N465 C462 1.368 . S
N465 C466 1.321 . S
N465 Co468 2.135 . S
C466 N464 1.340 . S
C466 N465 1.321 . S
C466 H490 0.930 . S
H467 C462 0.931 . S
Co468 N465 2.135 . S
Co468 N471 2.121 . S
Co468 O476 2.055 . S
Co468 O479 2.039 . S
Co468 N482 2.140 . S
C469 O470 1.227 . S
C469 O479 1.265 . S
O470 C469 1.227 . S
N471 Co468 2.121 . S
N471 C473 1.375 . S
N471 C474 1.313 . S
C472 C473 1.338 . S
C472 N475 1.377 . S
C472 H492 0.930 . S
C473 N471 1.375 . S
C473 C472 1.338 . S
C473 H477 0.931 . S
C474 N471 1.313 . S
C474 N475 1.344 . S
C474 H478 0.930 . S
N475 C472 1.377 . S
N475 C474 1.344 . S
O476 Co468 2.055 . S
O476 C480 1.253 . S
H477 C473 0.931 . S
H478 C474 0.930 . S
O479 Co468 2.039 . S
O479 C469 1.265 . S
C480 O476 1.253 . S
C480 O481 1.227 . S
O481 C480 1.227 . S
N482 Co468 2.140 . S
N482 C485 1.346 . S
N482 C486 1.345 . S
C483 C484 1.387 . S
C483 C487 1.391 . S
C484 C483 1.387 . S
C484 C485 1.369 . S
C484 H493 0.929 . S
C485 N482 1.346 . S
C485 C484 1.369 . S
C485 H488 0.928 . S
C486 N482 1.345 . S
C486 C487 1.371 . S
C486 H489 0.931 . S
C487 C483 1.391 . S
C487 C486 1.371 . S
C487 H494 0.930 . S
H488 C485 0.928 . S
H489 C486 0.931 . S
H490 C466 0.930 . S
H491 C463 0.930 . S
H492 C472 0.930 . S
H493 C484 0.929 . S
H494 C487 0.930 . S
C495 C496 1.351 . S
C495 N498 1.368 . S
C495 H500 0.931 . S
C496 C495 1.351 . S
C496 N497 1.373 . S
C496 H524 0.930 . S
N497 C496 1.373 . S
N497 C499 1.340 . S
N498 C495 1.368 . S
N498 C499 1.321 . S
N498 Co501 2.135 1_655 S
C499 N497 1.340 . S
C499 N498 1.321 . S
C499 H523 0.930 1_655 S
H500 C495 0.931 . S
Co501 N498 2.135 1_455 S
Co501 N504 2.121 . S
Co501 O509 2.055 . S
Co501 O512 2.039 . S
Co501 N515 2.140 . S
C502 O503 1.227 . S
C502 O512 1.265 . S
O503 C502 1.227 . S
N504 Co501 2.121 . S
N504 C506 1.375 . S
N504 C507 1.313 . S
C505 C506 1.338 . S
C505 N508 1.377 1_556 S
C505 H525 0.930 . S
C506 N504 1.375 . S
C506 C505 1.338 . S
C506 H510 0.931 . S
C507 N504 1.313 . S
C507 N508 1.344 1_556 S
C507 H511 0.930 1_556 S
N508 C505 1.377 1_554 S
N508 C507 1.344 1_554 S
O509 Co501 2.055 . S
O509 C513 1.253 . S
H510 C506 0.931 . S
H511 C507 0.930 1_554 S
O512 Co501 2.039 . S
O512 C502 1.265 . S
C513 O509 1.253 . S
C513 O514 1.219 1_455 S
O514 C513 1.219 1_655 S
N515 Co501 2.140 . S
N515 C518 1.346 . S
N515 C519 1.345 . S
C516 C517 1.387 . S
C516 C520 1.391 . S
C517 C516 1.387 . S
C517 C518 1.369 . S
C517 H526 0.929 . S
C518 N515 1.346 . S
C518 C517 1.369 . S
C518 H521 0.928 . S
C519 N515 1.345 . S
C519 C520 1.371 . S
C519 H522 0.931 . S
C520 C516 1.391 . S
C520 C519 1.371 . S
C520 H527 0.930 . S
H521 C518 0.928 . S
H522 C519 0.931 . S
H523 C499 0.930 1_455 S
H524 C496 0.930 . S
H525 C505 0.930 . S
H526 C517 0.929 . S
H527 C520 0.930 . S
H528 C546 0.951 . S
H529 C548 0.951 . S
H530 C550 0.962 . S
H531 C551 0.954 . S
H532 C553 0.950 . S
H533 C556 0.950 . S
H534 C557 0.950 . S
H535 C559 0.950 . S
H536 C560 0.964 . S
H537 C561 0.951 . S
H538 C563 0.951 . S
H539 C565 0.962 . S
H540 C566 0.954 . S
H541 C568 0.950 . S
H542 C571 0.950 . S
H543 C572 0.950 . S
H544 C574 0.950 . S
H545 C575 0.964 . S
C546 H528 0.951 . S
C546 C547 1.366 . S
C546 C548 1.388 . S
C547 C546 1.366 . S
C547 C551 1.380 1_545 S
C548 H529 0.951 . S
C548 C546 1.388 . S
C548 C549 1.366 . S
C549 C548 1.366 . S
C549 C550 1.406 1_545 S
C549 C552 1.499 . S
C550 H530 0.962 . S
C550 C549 1.406 1_565 S
C550 C551 1.373 . S
C551 H531 0.954 . S
C551 C547 1.380 1_565 S
C551 C550 1.373 . S
C552 C549 1.499 . S
C552 C553 1.373 1_545 S
C552 C554 1.389 . S
C553 H532 0.950 . S
C553 C552 1.373 1_565 S
C553 C569 1.377 1_655 S
C554 C552 1.389 . S
C554 C555 1.524 . S
C554 C568 1.377 1_655 S
C555 C554 1.524 . S
C555 C556 1.397 . S
C555 C560 1.363 . S
C556 H533 0.950 . S
C556 C555 1.397 . S
C556 C557 1.334 . S
C557 H534 0.950 . S
C557 C556 1.334 . S
C557 C558 1.287 . S
C558 C557 1.287 . S
C558 C559 1.524 . S
C558 H577 0.913 . S
C559 H535 0.950 . S
C559 C558 1.524 . S
C559 C560 1.415 . S
C560 H536 0.964 . S
C560 C555 1.363 . S
C560 C559 1.415 . S
C561 H537 0.951 . S
C561 C562 1.366 . S
C561 C563 1.388 . S
C562 C561 1.366 . S
C562 C566 1.380 1_565 S
C563 H538 0.951 . S
C563 C561 1.388 . S
C563 C564 1.366 . S
C564 C563 1.366 . S
C564 C565 1.406 1_565 S
C564 C567 1.499 . S
C565 H539 0.962 . S
C565 C564 1.406 1_545 S
C565 C566 1.373 . S
C566 H540 0.954 . S
C566 C562 1.380 1_545 S
C566 C565 1.373 . S
C567 C564 1.499 . S
C567 C568 1.373 1_565 S
C567 C569 1.389 . S
C568 H541 0.950 . S
C568 C554 1.377 1_455 S
C568 C567 1.373 1_545 S
C569 C553 1.377 1_455 S
C569 C567 1.389 . S
C569 C570 1.524 . S
C570 C569 1.524 . S
C570 C571 1.397 . S
C570 C575 1.363 . S
C571 H542 0.950 . S
C571 C570 1.397 . S
C571 C572 1.334 . S
C572 H543 0.950 . S
C572 C571 1.334 . S
C572 C573 1.287 . S
C573 C572 1.287 . S
C573 C574 1.524 . S
C573 H576 0.999 . S
C574 H544 0.950 . S
C574 C573 1.524 . S
C574 C575 1.415 . S
C575 H545 0.964 . S
C575 C570 1.363 . S
C575 C574 1.415 . S
H576 C573 0.999 . S
H577 C558 0.913 . S
H578 C596 0.951 . S
H579 C598 0.951 . S
H580 C600 0.950 . S
H581 C601 0.950 . S
H582 C603 0.950 . S
H583 C606 0.950 1_554 S
H584 C607 0.950 . S
H585 C609 0.950 . S
H586 C610 0.950 . S
H587 C611 0.951 . S
H588 C613 0.951 . S
H589 C615 0.950 . S
H590 C616 0.950 . S
H591 C618 0.950 . S
H592 C621 0.950 1_556 S
H593 C622 0.950 . S
H594 C624 0.950 . S
H595 C625 0.950 . S
C596 H578 0.951 . S
C596 C597 1.366 . S
C596 C598 1.388 . S
C597 C596 1.366 . S
C597 C601 1.385 1_556 S
C598 H579 0.951 . S
C598 C596 1.388 . S
C598 C599 1.366 . S
C599 C598 1.366 . S
C599 C600 1.414 1_556 S
C599 C602 1.499 . S
C600 H580 0.950 . S
C600 C599 1.414 1_554 S
C600 C601 1.374 . S
C601 H581 0.950 . S
C601 C597 1.385 1_554 S
C601 C600 1.374 . S
C602 C599 1.499 . S
C602 C603 1.373 1_556 S
C602 C604 1.389 . S
C603 H582 0.950 . S
C603 C602 1.373 1_554 S
C603 C619 1.377 1_545 S
C604 C602 1.389 . S
C604 C605 1.524 . S
C604 C618 1.377 1_545 S
C605 C604 1.524 . S
C605 C606 1.397 . S
C605 C610 1.363 . S
C606 H583 0.950 1_556 S
C606 C605 1.397 . S
C606 C607 1.334 . S
C607 H584 0.950 . S
C607 C606 1.334 . S
C607 C608 1.287 . S
C608 C607 1.287 . S
C608 C609 1.524 . S
C608 H627 0.913 . S
C609 H585 0.950 . S
C609 C608 1.524 . S
C609 C610 1.415 . S
C610 H586 0.950 . S
C610 C605 1.363 . S
C610 C609 1.415 . S
C611 H587 0.951 . S
C611 C612 1.366 . S
C611 C613 1.388 . S
C612 C611 1.366 . S
C612 C616 1.385 1_554 S
C613 H588 0.951 . S
C613 C611 1.388 . S
C613 C614 1.366 . S
C614 C613 1.366 . S
C614 C615 1.414 1_554 S
C614 C617 1.499 . S
C615 H589 0.950 . S
C615 C614 1.414 1_556 S
C615 C616 1.374 . S
C616 H590 0.950 . S
C616 C612 1.385 1_556 S
C616 C615 1.374 . S
C617 C614 1.499 . S
C617 C618 1.373 1_554 S
C617 C619 1.389 . S
C618 H591 0.950 . S
C618 C604 1.377 1_565 S
C618 C617 1.373 1_556 S
C619 C603 1.377 1_565 S
C619 C617 1.389 . S
C619 C620 1.524 . S
C620 C619 1.524 . S
C620 C621 1.397 . S
C620 C625 1.363 . S
C621 H592 0.950 1_554 S
C621 C620 1.397 . S
C621 C622 1.334 . S
C622 H593 0.950 . S
C622 C621 1.334 . S
C622 C623 1.287 . S
C623 C622 1.287 . S
C623 C624 1.524 . S
C623 H626 0.999 . S
C624 H594 0.950 . S
C624 C623 1.524 . S
C624 C625 1.415 . S
C625 H595 0.950 . S
C625 C620 1.363 . S
C625 C624 1.415 . S
H626 C623 0.999 . S
H627 C608 0.913 . S
H628 C646 0.951 . S
H629 C648 0.951 . S
H630 C650 0.950 . S
H631 C651 0.950 . S
H632 C653 0.950 . S
H633 C656 0.950 . S
H634 C657 0.950 . S
H635 C659 0.950 . S
H636 C660 0.950 . S
H637 C661 0.951 . S
H638 C663 0.951 . S
H639 C665 0.950 . S
H640 C666 0.950 . S
H641 C668 0.950 . S
H642 C671 0.950 . S
H643 C672 0.950 . S
H644 C674 0.950 . S
H645 C675 0.950 . S
C646 H628 0.951 . S
C646 C647 1.366 . S
C646 C648 1.388 . S
C647 C646 1.366 . S
C647 C651 1.385 . S
C648 H629 0.951 . S
C648 C646 1.388 . S
C648 C649 1.366 . S
C649 C648 1.366 . S
C649 C650 1.414 . S
C649 C652 1.499 . S
C650 H630 0.950 . S
C650 C649 1.414 . S
C650 C651 1.374 . S
C651 H631 0.950 . S
C651 C647 1.385 . S
C651 C650 1.374 . S
C652 C649 1.499 . S
C652 C653 1.373 . S
C652 C654 1.389 . S
C653 H632 0.950 . S
C653 C652 1.373 . S
C653 C669 1.377 . S
C654 C652 1.389 . S
C654 C655 1.524 . S
C654 C668 1.377 . S
C655 C654 1.524 . S
C655 C656 1.397 . S
C655 C660 1.363 . S
C656 H633 0.950 . S
C656 C655 1.397 . S
C656 C657 1.334 . S
C657 H634 0.950 . S
C657 C656 1.334 . S
C657 C658 1.287 . S
C658 C657 1.287 . S
C658 C659 1.524 . S
C658 H677 0.913 . S
C659 H635 0.950 . S
C659 C658 1.524 . S
C659 C660 1.415 . S
C660 H636 0.950 . S
C660 C655 1.363 . S
C660 C659 1.415 . S
C661 H637 0.951 . S
C661 C662 1.366 . S
C661 C663 1.388 . S
C662 C661 1.366 . S
C662 C666 1.385 . S
C663 H638 0.951 . S
C663 C661 1.388 . S
C663 C664 1.366 . S
C664 C663 1.366 . S
C664 C665 1.414 . S
C664 C667 1.499 . S
C665 H639 0.950 . S
C665 C664 1.414 . S
C665 C666 1.374 . S
C666 H640 0.950 . S
C666 C662 1.385 . S
C666 C665 1.374 . S
C667 C664 1.499 . S
C667 C668 1.373 . S
C667 C669 1.389 . S
C668 H641 0.950 . S
C668 C654 1.377 . S
C668 C667 1.373 . S
C669 C653 1.377 . S
C669 C667 1.389 . S
C669 C670 1.524 . S
C670 C669 1.524 . S
C670 C671 1.397 . S
C670 C675 1.363 . S
C671 H642 0.950 . S
C671 C670 1.397 . S
C671 C672 1.334 . S
C672 H643 0.950 . S
C672 C671 1.334 . S
C672 C673 1.287 . S
C673 C672 1.287 . S
C673 C674 1.524 . S
C673 H676 0.999 . S
C674 H644 0.950 . S
C674 C673 1.524 . S
C674 C675 1.415 . S
C675 H645 0.950 . S
C675 C670 1.363 . S
C675 C674 1.415 . S
H676 C673 0.999 . S
H677 C658 0.913 . S
H678 C696 0.951 . S
H679 C698 0.951 . S
H680 C700 0.950 . S
H681 C701 0.950 . S
H682 C703 0.950 . S
H683 C706 0.950 . S
H684 C707 0.950 . S
H685 C709 0.950 . S
H686 C710 0.950 . S
H687 C711 0.951 . S
H688 C713 0.951 . S
H689 C715 0.950 . S
H690 C716 0.950 . S
H691 C718 0.950 . S
H692 C721 0.950 . S
H693 C722 0.950 . S
H694 C724 0.950 . S
H695 C725 0.950 . S
C696 H678 0.951 . S
C696 C697 1.366 1_556 S
C696 C698 1.388 . S
C697 C696 1.366 1_554 S
C697 C701 1.385 1_455 S
C698 H679 0.951 . S
C698 C696 1.388 . S
C698 C699 1.369 1_556 S
C699 C698 1.369 1_554 S
C699 C700 1.412 1_455 S
C699 C702 1.497 1_455 S
C700 H680 0.950 . S
C700 C699 1.412 1_655 S
C700 C701 1.374 . S
C701 H681 0.950 . S
C701 C697 1.385 1_655 S
C701 C700 1.374 . S
C702 C699 1.497 1_655 S
C702 C703 1.356 1_655 S
C702 C704 1.406 1_554 S
C703 H682 0.950 . S
C703 C702 1.356 1_455 S
C703 C719 1.377 . S
C704 C702 1.406 1_556 S
C704 C705 1.524 . S
C704 C718 1.377 . S
C705 C704 1.524 . S
C705 C706 1.397 . S
C705 C710 1.363 . S
C706 H683 0.950 . S
C706 C705 1.397 . S
C706 C707 1.334 . S
C707 H684 0.950 . S
C707 C706 1.334 . S
C707 C708 1.287 . S
C708 C707 1.287 . S
C708 C709 1.524 . S
C708 H727 0.913 . S
C709 H685 0.950 . S
C709 C708 1.524 . S
C709 C710 1.415 . S
C710 H686 0.950 . S
C710 C705 1.363 . S
C710 C709 1.415 . S
C711 H687 0.951 . S
C711 C712 1.366 1_554 S
C711 C713 1.388 . S
C712 C711 1.366 1_556 S
C712 C716 1.385 1_655 S
C713 H688 0.951 . S
C713 C711 1.388 . S
C713 C714 1.369 1_554 S
C714 C713 1.369 1_556 S
C714 C715 1.412 1_655 S
C714 C717 1.497 1_655 S
C715 H689 0.950 . S
C715 C714 1.412 1_455 S
C715 C716 1.374 . S
C716 H690 0.950 . S
C716 C712 1.385 1_455 S
C716 C715 1.374 . S
C717 C714 1.497 1_455 S
C717 C718 1.356 1_455 S
C717 C719 1.406 1_556 S
C718 H691 0.950 . S
C718 C704 1.377 . S
C718 C717 1.356 1_655 S
C719 C703 1.377 . S
C719 C717 1.406 1_554 S
C719 C720 1.524 . S
C720 C719 1.524 . S
C720 C721 1.397 . S
C720 C725 1.363 . S
C721 H692 0.950 . S
C721 C720 1.397 . S
C721 C722 1.334 . S
C722 H693 0.950 . S
C722 C721 1.334 . S
C722 C723 1.287 . S
C723 C722 1.287 . S
C723 C724 1.524 . S
C723 H726 0.999 . S
C724 H694 0.950 . S
C724 C723 1.524 . S
C724 C725 1.415 . S
C725 H695 0.950 . S
C725 C720 1.363 . S
C725 C724 1.415 . S
H726 C723 0.999 . S
H727 C708 0.913 . S
H728 C746 0.951 . S
H729 C748 0.951 . S
H730 C750 0.950 . S
H731 C751 0.950 . S
H732 C753 0.950 . S
H733 C756 0.950 . S
H734 C757 0.950 . S
H735 C759 0.950 . S
H736 C760 0.950 1_565 S
H737 C761 0.951 . S
H738 C763 0.951 . S
H739 C765 0.950 . S
H740 C766 0.950 . S
H741 C768 0.950 . S
H742 C771 0.950 . S
H743 C772 0.950 . S
H744 C774 0.950 . S
H745 C775 0.950 1_545 S
C746 H728 0.951 . S
C746 C747 1.366 1_565 S
C746 C748 1.388 . S
C747 C746 1.366 1_545 S
C747 C751 1.385 . S
C748 H729 0.951 . S
C748 C746 1.388 . S
C748 C749 1.366 1_565 S
C749 C748 1.366 1_545 S
C749 C750 1.414 . S
C749 C752 1.499 . S
C750 H730 0.950 . S
C750 C749 1.414 . S
C750 C751 1.374 . S
C751 H731 0.950 . S
C751 C747 1.385 . S
C751 C750 1.374 . S
C752 C749 1.499 . S
C752 C753 1.373 1_545 S
C752 C754 1.389 . S
C753 H732 0.950 . S
C753 C752 1.373 1_565 S
C753 C769 1.377 . S
C754 C752 1.389 . S
C754 C755 1.524 . S
C754 C768 1.377 . S
C755 C754 1.524 . S
C755 C756 1.397 . S
C755 C760 1.363 . S
C756 H733 0.950 . S
C756 C755 1.397 . S
C756 C757 1.334 . S
C757 H734 0.950 . S
C757 C756 1.334 . S
C757 C758 1.287 . S
C758 C757 1.287 . S
C758 C759 1.524 . S
C758 H777 0.913 . S
C759 H735 0.950 . S
C759 C758 1.524 . S
C759 C760 1.415 . S
C760 H736 0.950 1_545 S
C760 C755 1.363 . S
C760 C759 1.415 . S
C761 H737 0.951 . S
C761 C762 1.366 1_545 S
C761 C763 1.388 . S
C762 C761 1.366 1_565 S
C762 C766 1.385 . S
C763 H738 0.951 . S
C763 C761 1.388 . S
C763 C764 1.366 1_545 S
C764 C763 1.366 1_565 S
C764 C765 1.414 . S
C764 C767 1.499 . S
C765 H739 0.950 . S
C765 C764 1.414 . S
C765 C766 1.374 . S
C766 H740 0.950 . S
C766 C762 1.385 . S
C766 C765 1.374 . S
C767 C764 1.499 . S
C767 C768 1.373 1_565 S
C767 C769 1.389 . S
C768 H741 0.950 . S
C768 C754 1.377 . S
C768 C767 1.373 1_545 S
C769 C753 1.377 . S
C769 C767 1.389 . S
C769 C770 1.524 . S
C770 C769 1.524 . S
C770 C771 1.397 . S
C770 C775 1.363 . S
C771 H742 0.950 . S
C771 C770 1.397 . S
C771 C772 1.334 . S
C772 H743 0.950 . S
C772 C771 1.334 . S
C772 C773 1.287 . S
C773 C772 1.287 . S
C773 C774 1.524 . S
C773 H776 0.999 . S
C774 H744 0.950 . S
C774 C773 1.524 . S
C774 C775 1.415 . S
C775 H745 0.950 1_565 S
C775 C770 1.363 . S
C775 C774 1.415 . S
H776 C773 0.999 . S
H777 C758 0.913 . S
H778 C796 0.951 . S
H779 C798 0.951 . S
H780 C800 0.950 . S
H781 C801 0.950 . S
H782 C803 0.950 . S
H783 C806 0.950 . S
H784 C807 0.950 . S
H785 C809 0.950 . S
H786 C810 0.950 . S
H787 C811 0.951 . S
H788 C813 0.951 . S
H789 C815 0.950 . S
H790 C816 0.950 . S
H791 C818 0.950 . S
H792 C821 0.950 . S
H793 C822 0.950 . S
H794 C824 0.950 . S
H795 C825 0.950 . S
C796 H778 0.951 . S
C796 C797 1.366 1_556 S
C796 C798 1.388 . S
C797 C796 1.366 1_554 S
C797 C801 1.385 . S
C798 H779 0.951 . S
C798 C796 1.388 . S
C798 C799 1.366 1_556 S
C799 C798 1.366 1_554 S
C799 C800 1.414 . S
C799 C802 1.499 . S
C800 H780 0.950 . S
C800 C799 1.414 . S
C800 C801 1.374 . S
C801 H781 0.950 . S
C801 C797 1.385 . S
C801 C800 1.374 . S
C802 C799 1.499 . S
C802 C803 1.373 . S
C802 C804 1.389 1_554 S
C803 H782 0.950 . S
C803 C802 1.373 . S
C803 C819 1.377 . S
C804 C802 1.389 1_556 S
C804 C805 1.524 . S
C804 C818 1.377 . S
C805 C804 1.524 . S
C805 C806 1.397 . S
C805 C810 1.363 . S
C806 H783 0.950 . S
C806 C805 1.397 . S
C806 C807 1.334 . S
C807 H784 0.950 . S
C807 C806 1.334 . S
C807 C808 1.287 . S
C808 C807 1.287 . S
C808 C809 1.524 . S
C808 H827 0.913 . S
C809 H785 0.950 . S
C809 C808 1.524 . S
C809 C810 1.415 . S
C810 H786 0.950 . S
C810 C805 1.363 . S
C810 C809 1.415 . S
C811 H787 0.951 . S
C811 C812 1.366 1_554 S
C811 C813 1.388 . S
C812 C811 1.366 1_556 S
C812 C816 1.385 . S
C813 H788 0.951 . S
C813 C811 1.388 . S
C813 C814 1.366 1_554 S
C814 C813 1.366 1_556 S
C814 C815 1.414 . S
C814 C817 1.499 . S
C815 H789 0.950 . S
C815 C814 1.414 . S
C815 C816 1.374 . S
C816 H790 0.950 . S
C816 C812 1.385 . S
C816 C815 1.374 . S
C817 C814 1.499 . S
C817 C818 1.373 . S
C817 C819 1.389 1_556 S
C818 H791 0.950 . S
C818 C804 1.377 . S
C818 C817 1.373 . S
C819 C803 1.377 . S
C819 C817 1.389 1_554 S
C819 C820 1.524 . S
C820 C819 1.524 . S
C820 C821 1.397 . S
C820 C825 1.363 . S
C821 H792 0.950 . S
C821 C820 1.397 . S
C821 C822 1.334 . S
C822 H793 0.950 . S
C822 C821 1.334 . S
C822 C823 1.287 . S
C823 C822 1.287 . S
C823 C824 1.524 . S
C823 H826 0.999 . S
C824 H794 0.950 . S
C824 C823 1.524 . S
C824 C825 1.415 . S
C825 H795 0.950 . S
C825 C820 1.363 . S
C825 C824 1.415 . S
H826 C823 0.999 . S
H827 C808 0.913 . S
H828 C846 0.951 . S
H829 C848 0.951 . S
H830 C850 0.950 . S
H831 C851 0.950 . S
H832 C853 0.950 . S
H833 C856 0.950 . S
H834 C857 0.950 . S
H835 C859 0.950 . S
H836 C860 0.950 . S
H837 C861 0.951 . S
H838 C863 0.951 . S
H839 C865 0.950 . S
H840 C866 0.950 . S
H841 C868 0.950 . S
H842 C871 0.950 . S
H843 C872 0.950 . S
H844 C874 0.950 . S
H845 C875 0.950 . S
C846 H828 0.951 . S
C846 C847 1.366 . S
C846 C848 1.388 . S
C847 C846 1.366 . S
C847 C851 1.385 . S
C848 H829 0.951 . S
C848 C846 1.388 . S
C848 C849 1.366 . S
C849 C848 1.366 . S
C849 C850 1.414 . S
C849 C852 1.499 . S
C850 H830 0.950 . S
C850 C849 1.414 . S
C850 C851 1.374 . S
C851 H831 0.950 . S
C851 C847 1.385 . S
C851 C850 1.374 . S
C852 C849 1.499 . S
C852 C853 1.373 . S
C852 C854 1.389 . S
C853 H832 0.950 . S
C853 C852 1.373 . S
C853 C869 1.377 1_655 S
C854 C852 1.389 . S
C854 C855 1.524 . S
C854 C868 1.377 1_655 S
C855 C854 1.524 . S
C855 C856 1.397 . S
C855 C860 1.363 . S
C856 H833 0.950 . S
C856 C855 1.397 . S
C856 C857 1.334 . S
C857 H834 0.950 . S
C857 C856 1.334 . S
C857 C858 1.287 . S
C858 C857 1.287 . S
C858 C859 1.524 . S
C858 H877 0.913 . S
C859 H835 0.950 . S
C859 C858 1.524 . S
C859 C860 1.415 . S
C860 H836 0.950 . S
C860 C855 1.363 . S
C860 C859 1.415 . S
C861 H837 0.951 . S
C861 C862 1.366 . S
C861 C863 1.388 . S
C862 C861 1.366 . S
C862 C866 1.385 . S
C863 H838 0.951 . S
C863 C861 1.388 . S
C863 C864 1.366 . S
C864 C863 1.366 . S
C864 C865 1.414 . S
C864 C867 1.499 . S
C865 H839 0.950 . S
C865 C864 1.414 . S
C865 C866 1.374 . S
C866 H840 0.950 . S
C866 C862 1.385 . S
C866 C865 1.374 . S
C867 C864 1.499 . S
C867 C868 1.373 . S
C867 C869 1.389 . S
C868 H841 0.950 . S
C868 C854 1.377 1_455 S
C868 C867 1.373 . S
C869 C853 1.377 1_455 S
C869 C867 1.389 . S
C869 C870 1.524 . S
C870 C869 1.524 . S
C870 C871 1.397 . S
C870 C875 1.363 . S
C871 H842 0.950 . S
C871 C870 1.397 . S
C871 C872 1.334 . S
C872 H843 0.950 . S
C872 C871 1.334 . S
C872 C873 1.287 . S
C873 C872 1.287 . S
C873 C874 1.524 . S
C873 H876 0.999 . S
C874 H844 0.950 . S
C874 C873 1.524 . S
C874 C875 1.415 . S
C875 H845 0.950 . S
C875 C870 1.363 . S
C875 C874 1.415 . S
H876 C873 0.999 . S
H877 C858 0.913 . S
H878 C896 0.948 1_655 S
H879 C898 0.947 1_655 S
H880 C900 0.950 . S
H881 C901 0.950 . S
H882 C903 0.950 . S
H883 C906 0.917 1_554 S
H884 C907 0.950 . S
H885 C909 0.950 . S
H886 C910 0.950 . S
H887 C911 0.948 1_455 S
H888 C913 0.947 1_455 S
H889 C915 0.950 . S
H890 C916 0.950 . S
H891 C918 0.950 . S
H892 C921 0.917 1_556 S
H893 C922 0.950 . S
H894 C924 0.950 . S
H895 C925 0.950 . S
C896 H878 0.948 1_455 S
C896 C897 1.372 1_556 S
C896 C898 1.388 . S
C897 C896 1.372 1_554 S
C897 C901 1.385 . S
C898 H879 0.947 1_455 S
C898 C896 1.388 . S
C898 C899 1.370 1_556 S
C899 C898 1.370 1_554 S
C899 C900 1.414 . S
C899 C902 1.499 . S
C900 H880 0.950 . S
C900 C899 1.414 . S
C900 C901 1.374 . S
C901 H881 0.950 . S
C901 C897 1.385 . S
C901 C900 1.374 . S
C902 C899 1.499 . S
C902 C903 1.373 1_455 S
C902 C904 1.389 1_554 S
C903 H882 0.950 . S
C903 C902 1.373 1_655 S
C903 C919 1.377 1_565 S
C904 C902 1.389 1_556 S
C904 C905 1.524 . S
C904 C918 1.377 1_565 S
C905 C904 1.524 . S
C905 C906 1.397 . S
C905 C910 1.363 . S
C906 H883 0.917 1_556 S
C906 C905 1.397 . S
C906 C907 1.334 . S
C907 H884 0.950 . S
C907 C906 1.334 . S
C907 C908 1.287 . S
C908 C907 1.287 . S
C908 C909 1.524 . S
C908 H927 0.913 . S
C909 H885 0.950 . S
C909 C908 1.524 . S
C909 C910 1.415 . S
C910 H886 0.950 . S
C910 C905 1.363 . S
C910 C909 1.415 . S
C911 H887 0.948 1_655 S
C911 C912 1.372 1_554 S
C911 C913 1.388 . S
C912 C911 1.372 1_556 S
C912 C916 1.385 . S
C913 H888 0.947 1_655 S
C913 C911 1.388 . S
C913 C914 1.370 1_554 S
C914 C913 1.370 1_556 S
C914 C915 1.414 . S
C914 C917 1.499 . S
C915 H889 0.950 . S
C915 C914 1.414 . S
C915 C916 1.374 . S
C916 H890 0.950 . S
C916 C912 1.385 . S
C916 C915 1.374 . S
C917 C914 1.499 . S
C917 C918 1.373 1_655 S
C917 C919 1.389 1_556 S
C918 H891 0.950 . S
C918 C904 1.377 1_545 S
C918 C917 1.373 1_455 S
C919 C903 1.377 1_545 S
C919 C917 1.389 1_554 S
C919 C920 1.524 . S
C920 C919 1.524 . S
C920 C921 1.397 . S
C920 C925 1.363 . S
C921 H892 0.917 1_554 S
C921 C920 1.397 . S
C921 C922 1.334 . S
C922 H893 0.950 . S
C922 C921 1.334 . S
C922 C923 1.287 . S
C923 C922 1.287 . S
C923 C924 1.524 . S
C923 H926 0.999 . S
C924 H894 0.950 . S
C924 C923 1.524 . S
C924 C925 1.415 . S
C925 H895 0.950 . S
C925 C920 1.363 . S
C925 C924 1.415 . S
H926 C923 0.999 . S
H927 C908 0.913 . S
H928 C946 0.951 . S
H929 C948 0.951 . S
H930 C950 0.950 . S
H931 C951 0.950 . S
H932 C953 0.950 . S
H933 C956 0.950 . S
H934 C957 0.950 . S
H935 C959 0.950 . S
H936 C960 0.950 . S
H937 C961 0.951 . S
H938 C963 0.951 . S
H939 C965 0.950 . S
H940 C966 0.950 . S
H941 C968 0.950 . S
H942 C971 0.950 . S
H943 C972 0.950 . S
H944 C974 0.950 . S
H945 C975 0.950 . S
C946 H928 0.951 . S
C946 C947 1.366 . S
C946 C948 1.388 . S
C947 C946 1.366 . S
C947 C951 1.385 . S
C948 H929 0.951 . S
C948 C946 1.388 . S
C948 C949 1.366 . S
C949 C948 1.366 . S
C949 C950 1.414 . S
C949 C952 1.499 . S
C950 H930 0.950 . S
C950 C949 1.414 . S
C950 C951 1.374 . S
C951 H931 0.950 . S
C951 C947 1.385 . S
C951 C950 1.374 . S
C952 C949 1.499 . S
C952 C953 1.373 . S
C952 C954 1.389 . S
C953 H932 0.950 . S
C953 C952 1.373 . S
C953 C969 1.377 . S
C954 C952 1.389 . S
C954 C955 1.524 . S
C954 C968 1.377 . S
C955 C954 1.524 . S
C955 C956 1.397 . S
C955 C960 1.363 . S
C956 H933 0.950 . S
C956 C955 1.397 . S
C956 C957 1.334 . S
C957 H934 0.950 . S
C957 C956 1.334 . S
C957 C958 1.287 . S
C958 C957 1.287 . S
C958 C959 1.524 . S
C958 H977 0.913 . S
C959 H935 0.950 . S
C959 C958 1.524 . S
C959 C960 1.415 . S
C960 H936 0.950 . S
C960 C955 1.363 . S
C960 C959 1.415 . S
C961 H937 0.951 . S
C961 C962 1.366 . S
C961 C963 1.388 . S
C962 C961 1.366 . S
C962 C966 1.385 . S
C963 H938 0.951 . S
C963 C961 1.388 . S
C963 C964 1.366 . S
C964 C963 1.366 . S
C964 C965 1.414 . S
C964 C967 1.499 . S
C965 H939 0.950 . S
C965 C964 1.414 . S
C965 C966 1.374 . S
C966 H940 0.950 . S
C966 C962 1.385 . S
C966 C965 1.374 . S
C967 C964 1.499 . S
C967 C968 1.373 . S
C967 C969 1.389 . S
C968 H941 0.950 . S
C968 C954 1.377 . S
C968 C967 1.373 . S
C969 C953 1.377 . S
C969 C967 1.389 . S
C969 C970 1.524 . S
C970 C969 1.524 . S
C970 C971 1.397 . S
C970 C975 1.363 . S
C971 H942 0.950 . S
C971 C970 1.397 . S
C971 C972 1.334 . S
C972 H943 0.950 . S
C972 C971 1.334 . S
C972 C973 1.287 . S
C973 C972 1.287 . S
C973 C974 1.524 . S
C973 H976 0.999 . S
C974 H944 0.950 . S
C974 C973 1.524 . S
C974 C975 1.415 . S
C975 H945 0.950 . S
C975 C970 1.363 . S
C975 C974 1.415 . S
H976 C973 0.999 . S
H977 C958 0.913 . S
H978 C996 0.951 . S
H979 C998 0.951 . S
H980 C1000 0.950 . S
H981 C1001 0.950 . S
H982 C1003 0.950 . S
H983 C1006 0.950 . S
H984 C1007 0.950 . S
H985 C1009 0.950 . S
H986 C1010 0.950 . S
H987 C1011 0.951 . S
H988 C1013 0.951 . S
H989 C1015 0.950 . S
H990 C1016 0.950 . S
H991 C1018 0.950 . S
H992 C1021 0.950 . S
H993 C1022 0.950 . S
H994 C1024 0.950 . S
H995 C1025 0.950 . S
C996 H978 0.951 . S
C996 C997 1.366 . S
C996 C998 1.388 . S
C997 C996 1.366 . S
C997 C1001 1.385 . S
C998 H979 0.951 . S
C998 C996 1.388 . S
C998 C999 1.366 . S
C999 C998 1.366 . S
C999 C1000 1.414 . S
C999 C1002 1.499 . S
C1000 H980 0.950 . S
C1000 C999 1.414 . S
C1000 C1001 1.374 . S
C1001 H981 0.950 . S
C1001 C997 1.385 . S
C1001 C1000 1.374 . S
C1002 C999 1.499 . S
C1002 C1003 1.373 . S
C1002 C1004 1.389 . S
C1003 H982 0.950 . S
C1003 C1002 1.373 . S
C1003 C1019 1.377 . S
C1004 C1002 1.389 . S
C1004 C1005 1.524 . S
C1004 C1018 1.377 . S
C1005 C1004 1.524 . S
C1005 C1006 1.397 . S
C1005 C1010 1.363 . S
C1006 H983 0.950 . S
C1006 C1005 1.397 . S
C1006 C1007 1.334 . S
C1007 H984 0.950 . S
C1007 C1006 1.334 . S
C1007 C1008 1.287 . S
C1008 C1007 1.287 . S
C1008 C1009 1.524 . S
C1008 H1027 0.913 . S
C1009 H985 0.950 . S
C1009 C1008 1.524 . S
C1009 C1010 1.415 . S
C1010 H986 0.950 . S
C1010 C1005 1.363 . S
C1010 C1009 1.415 . S
C1011 H987 0.951 . S
C1011 C1012 1.366 . S
C1011 C1013 1.388 . S
C1012 C1011 1.366 . S
C1012 C1016 1.385 . S
C1013 H988 0.951 . S
C1013 C1011 1.388 . S
C1013 C1014 1.366 . S
C1014 C1013 1.366 . S
C1014 C1015 1.414 . S
C1014 C1017 1.499 . S
C1015 H989 0.950 . S
C1015 C1014 1.414 . S
C1015 C1016 1.374 . S
C1016 H990 0.950 . S
C1016 C1012 1.385 . S
C1016 C1015 1.374 . S
C1017 C1014 1.499 . S
C1017 C1018 1.373 . S
C1017 C1019 1.389 . S
C1018 H991 0.950 . S
C1018 C1004 1.377 . S
C1018 C1017 1.373 . S
C1019 C1003 1.377 . S
C1019 C1017 1.389 . S
C1019 C1020 1.524 . S
C1020 C1019 1.524 . S
C1020 C1021 1.397 . S
C1020 C1025 1.363 . S
C1021 H992 0.950 . S
C1021 C1020 1.397 . S
C1021 C1022 1.334 . S
C1022 H993 0.950 . S
C1022 C1021 1.334 . S
C1022 C1023 1.287 . S
C1023 C1022 1.287 . S
C1023 C1024 1.524 . S
C1023 H1026 0.999 . S
C1024 H994 0.950 . S
C1024 C1023 1.524 . S
C1024 C1025 1.415 . S
C1025 H995 0.950 . S
C1025 C1020 1.363 . S
C1025 C1024 1.415 . S
H1026 C1023 0.999 . S
H1027 C1008 0.913 . S
H1028 C1046 0.951 . S
H1029 C1048 0.951 . S
H1030 C1050 0.950 . S
H1031 C1051 0.950 . S
H1032 C1053 0.950 . S
H1033 C1056 0.950 . S
H1034 C1057 0.950 . S
H1035 C1059 0.950 . S
H1036 C1060 0.950 . S
H1037 C1061 0.951 . S
H1038 C1063 0.951 . S
H1039 C1065 0.950 . S
H1040 C1066 0.950 . S
H1041 C1068 0.950 . S
H1042 C1071 0.950 . S
H1043 C1072 0.950 . S
H1044 C1074 0.950 . S
H1045 C1075 0.950 . S
C1046 H1028 0.951 . S
C1046 C1047 1.366 . S
C1046 C1048 1.388 . S
C1047 C1046 1.366 . S
C1047 C1051 1.385 . S
C1048 H1029 0.951 . S
C1048 C1046 1.388 . S
C1048 C1049 1.366 . S
C1049 C1048 1.366 . S
C1049 C1050 1.414 . S
C1049 C1052 1.499 . S
C1050 H1030 0.950 . S
C1050 C1049 1.414 . S
C1050 C1051 1.374 . S
C1051 H1031 0.950 . S
C1051 C1047 1.385 . S
C1051 C1050 1.374 . S
C1052 C1049 1.499 . S
C1052 C1053 1.373 . S
C1052 C1054 1.389 . S
C1053 H1032 0.950 . S
C1053 C1052 1.373 . S
C1053 C1069 1.377 . S
C1054 C1052 1.389 . S
C1054 C1055 1.524 . S
C1054 C1068 1.377 . S
C1055 C1054 1.524 . S
C1055 C1056 1.397 . S
C1055 C1060 1.363 . S
C1056 H1033 0.950 . S
C1056 C1055 1.397 . S
C1056 C1057 1.334 . S
C1057 H1034 0.950 . S
C1057 C1056 1.334 . S
C1057 C1058 1.287 . S
C1058 C1057 1.287 . S
C1058 C1059 1.524 . S
C1058 H1077 0.913 . S
C1059 H1035 0.950 . S
C1059 C1058 1.524 . S
C1059 C1060 1.415 . S
C1060 H1036 0.950 . S
C1060 C1055 1.363 . S
C1060 C1059 1.415 . S
C1061 H1037 0.951 . S
C1061 C1062 1.366 . S
C1061 C1063 1.388 . S
C1062 C1061 1.366 . S
C1062 C1066 1.385 . S
C1063 H1038 0.951 . S
C1063 C1061 1.388 . S
C1063 C1064 1.366 . S
C1064 C1063 1.366 . S
C1064 C1065 1.414 . S
C1064 C1067 1.499 . S
C1065 H1039 0.950 . S
C1065 C1064 1.414 . S
C1065 C1066 1.374 . S
C1066 H1040 0.950 . S
C1066 C1062 1.385 . S
C1066 C1065 1.374 . S
C1067 C1064 1.499 . S
C1067 C1068 1.373 . S
C1067 C1069 1.389 . S
C1068 H1041 0.950 . S
C1068 C1054 1.377 . S
C1068 C1067 1.373 . S
C1069 C1053 1.377 . S
C1069 C1067 1.389 . S
C1069 C1070 1.524 . S
C1070 C1069 1.524 . S
C1070 C1071 1.397 . S
C1070 C1075 1.363 . S
C1071 H1042 0.950 . S
C1071 C1070 1.397 . S
C1071 C1072 1.334 . S
C1072 H1043 0.950 . S
C1072 C1071 1.334 . S
C1072 C1073 1.287 . S
C1073 C1072 1.287 . S
C1073 C1074 1.524 . S
C1073 H1076 0.999 . S
C1074 H1044 0.950 . S
C1074 C1073 1.524 . S
C1074 C1075 1.415 . S
C1075 H1045 0.950 . S
C1075 C1070 1.363 . S
C1075 C1074 1.415 . S
H1076 C1073 0.999 . S
H1077 C1058 0.913 . S
H1078 C1096 0.951 . S
H1079 C1098 0.951 . S
H1080 C1100 0.950 . S
H1081 C1101 0.950 . S
H1082 C1103 0.950 . S
H1083 C1106 0.950 . S
H1084 C1107 0.950 . S
H1085 C1109 0.950 . S
H1086 C1110 0.950 . S
H1087 C1111 0.951 . S
H1088 C1113 0.951 . S
H1089 C1115 0.950 . S
H1090 C1116 0.950 . S
H1091 C1118 0.950 . S
H1092 C1121 0.950 . S
H1093 C1122 0.950 . S
H1094 C1124 0.950 . S
H1095 C1125 0.950 . S
C1096 H1078 0.951 . S
C1096 C1097 1.366 . S
C1096 C1098 1.388 . S
C1097 C1096 1.366 . S
C1097 C1101 1.385 . S
C1098 H1079 0.951 . S
C1098 C1096 1.388 . S
C1098 C1099 1.366 . S
C1099 C1098 1.366 . S
C1099 C1100 1.414 . S
C1099 C1102 1.499 . S
C1100 H1080 0.950 . S
C1100 C1099 1.414 . S
C1100 C1101 1.374 . S
C1101 H1081 0.950 . S
C1101 C1097 1.385 . S
C1101 C1100 1.374 . S
C1102 C1099 1.499 . S
C1102 C1103 1.373 . S
C1102 C1104 1.389 . S
C1103 H1082 0.950 . S
C1103 C1102 1.373 . S
C1103 C1119 1.377 . S
C1104 C1102 1.389 . S
C1104 C1105 1.524 . S
C1104 C1118 1.377 . S
C1105 C1104 1.524 . S
C1105 C1106 1.397 . S
C1105 C1110 1.363 . S
C1106 H1083 0.950 . S
C1106 C1105 1.397 . S
C1106 C1107 1.334 . S
C1107 H1084 0.950 . S
C1107 C1106 1.334 . S
C1107 C1108 1.287 . S
C1108 C1107 1.287 . S
C1108 C1109 1.524 . S
C1108 H1127 0.913 . S
C1109 H1085 0.950 . S
C1109 C1108 1.524 . S
C1109 C1110 1.415 . S
C1110 H1086 0.950 . S
C1110 C1105 1.363 . S
C1110 C1109 1.415 . S
C1111 H1087 0.951 . S
C1111 C1112 1.366 . S
C1111 C1113 1.388 . S
C1112 C1111 1.366 . S
C1112 C1116 1.385 . S
C1113 H1088 0.951 . S
C1113 C1111 1.388 . S
C1113 C1114 1.366 . S
C1114 C1113 1.366 . S
C1114 C1115 1.414 . S
C1114 C1117 1.499 . S
C1115 H1089 0.950 . S
C1115 C1114 1.414 . S
C1115 C1116 1.374 . S
C1116 H1090 0.950 . S
C1116 C1112 1.385 . S
C1116 C1115 1.374 . S
C1117 C1114 1.499 . S
C1117 C1118 1.373 . S
C1117 C1119 1.389 . S
C1118 H1091 0.950 . S
C1118 C1104 1.377 . S
C1118 C1117 1.373 . S
C1119 C1103 1.377 . S
C1119 C1117 1.389 . S
C1119 C1120 1.524 . S
C1120 C1119 1.524 . S
C1120 C1121 1.397 . S
C1120 C1125 1.363 . S
C1121 H1092 0.950 . S
C1121 C1120 1.397 . S
C1121 C1122 1.334 . S
C1122 H1093 0.950 . S
C1122 C1121 1.334 . S
C1122 C1123 1.287 . S
C1123 C1122 1.287 . S
C1123 C1124 1.524 . S
C1123 H1126 0.999 . S
C1124 H1094 0.950 . S
C1124 C1123 1.524 . S
C1124 C1125 1.415 . S
C1125 H1095 0.950 . S
C1125 C1120 1.363 . S
C1125 C1124 1.415 . S
H1126 C1123 0.999 . S
H1127 C1108 0.913 . S
H1128 C1146 0.951 . S
H1129 C1148 0.951 . S
H1130 C1150 0.950 . S
H1131 C1151 0.950 . S
H1132 C1153 0.950 . S
H1133 C1156 0.950 . S
H1134 C1157 0.950 . S
H1135 C1159 0.950 . S
H1136 C1160 0.950 . S
H1137 C1161 0.951 . S
H1138 C1163 0.951 . S
H1139 C1165 0.950 . S
H1140 C1166 0.950 . S
H1141 C1168 0.950 . S
H1142 C1171 0.950 . S
H1143 C1172 0.950 . S
H1144 C1174 0.950 . S
H1145 C1175 0.950 . S
C1146 H1128 0.951 . S
C1146 C1147 1.366 . S
C1146 C1148 1.388 . S
C1147 C1146 1.366 . S
C1147 C1151 1.385 . S
C1148 H1129 0.951 . S
C1148 C1146 1.388 . S
C1148 C1149 1.366 . S
C1149 C1148 1.366 . S
C1149 C1150 1.414 . S
C1149 C1152 1.499 . S
C1150 H1130 0.950 . S
C1150 C1149 1.414 . S
C1150 C1151 1.374 . S
C1151 H1131 0.950 . S
C1151 C1147 1.385 . S
C1151 C1150 1.374 . S
C1152 C1149 1.499 . S
C1152 C1153 1.373 . S
C1152 C1154 1.389 . S
C1153 H1132 0.950 . S
C1153 C1152 1.373 . S
C1153 C1169 1.377 . S
C1154 C1152 1.389 . S
C1154 C1155 1.524 . S
C1154 C1168 1.377 . S
C1155 C1154 1.524 . S
C1155 C1156 1.397 . S
C1155 C1160 1.363 . S
C1156 H1133 0.950 . S
C1156 C1155 1.397 . S
C1156 C1157 1.334 . S
C1157 H1134 0.950 . S
C1157 C1156 1.334 . S
C1157 C1158 1.287 . S
C1158 C1157 1.287 . S
C1158 C1159 1.524 . S
C1158 H1177 0.913 . S
C1159 H1135 0.950 . S
C1159 C1158 1.524 . S
C1159 C1160 1.415 . S
C1160 H1136 0.950 . S
C1160 C1155 1.363 . S
C1160 C1159 1.415 . S
C1161 H1137 0.951 . S
C1161 C1162 1.366 . S
C1161 C1163 1.388 . S
C1162 C1161 1.366 . S
C1162 C1166 1.385 . S
C1163 H1138 0.951 . S
C1163 C1161 1.388 . S
C1163 C1164 1.366 . S
C1164 C1163 1.366 . S
C1164 C1165 1.414 . S
C1164 C1167 1.499 . S
C1165 H1139 0.950 . S
C1165 C1164 1.414 . S
C1165 C1166 1.374 . S
C1166 H1140 0.950 . S
C1166 C1162 1.385 . S
C1166 C1165 1.374 . S
C1167 C1164 1.499 . S
C1167 C1168 1.373 . S
C1167 C1169 1.389 . S
C1168 H1141 0.950 . S
C1168 C1154 1.377 . S
C1168 C1167 1.373 . S
C1169 C1153 1.377 . S
C1169 C1167 1.389 . S
C1169 C1170 1.524 . S
C1170 C1169 1.524 . S
C1170 C1171 1.397 . S
C1170 C1175 1.363 . S
C1171 H1142 0.950 . S
C1171 C1170 1.397 . S
C1171 C1172 1.334 . S
C1172 H1143 0.950 . S
C1172 C1171 1.334 . S
C1172 C1173 1.287 . S
C1173 C1172 1.287 . S
C1173 C1174 1.524 . S
C1173 H1176 0.999 . S
C1174 H1144 0.950 . S
C1174 C1173 1.524 . S
C1174 C1175 1.415 . S
C1175 H1145 0.950 . S
C1175 C1170 1.363 . S
C1175 C1174 1.415 . S
H1176 C1173 0.999 . S
H1177 C1158 0.913 . S
H1178 C1196 0.951 . S
H1179 C1198 0.951 . S
H1180 C1200 0.950 . S
H1181 C1201 0.950 . S
H1182 C1203 0.950 . S
H1183 C1206 0.950 . S
H1184 C1207 0.950 . S
H1185 C1209 0.950 . S
H1186 C1210 0.950 . S
H1187 C1211 0.951 . S
H1188 C1213 0.951 . S
H1189 C1215 0.950 . S
H1190 C1216 0.950 . S
H1191 C1218 0.950 . S
H1192 C1221 0.950 . S
H1193 C1222 0.950 . S
H1194 C1224 0.950 . S
H1195 C1225 0.950 . S
C1196 H1178 0.951 . S
C1196 C1197 1.366 . S
C1196 C1198 1.388 . S
C1197 C1196 1.366 . S
C1197 C1201 1.385 . S
C1198 H1179 0.951 . S
C1198 C1196 1.388 . S
C1198 C1199 1.366 . S
C1199 C1198 1.366 . S
C1199 C1200 1.414 . S
C1199 C1202 1.499 . S
C1200 H1180 0.950 . S
C1200 C1199 1.414 . S
C1200 C1201 1.374 . S
C1201 H1181 0.950 . S
C1201 C1197 1.385 . S
C1201 C1200 1.374 . S
C1202 C1199 1.499 . S
C1202 C1203 1.373 . S
C1202 C1204 1.389 . S
C1203 H1182 0.950 . S
C1203 C1202 1.373 . S
C1203 C1219 1.377 . S
C1204 C1202 1.389 . S
C1204 C1205 1.524 . S
C1204 C1218 1.377 . S
C1205 C1204 1.524 . S
C1205 C1206 1.397 . S
C1205 C1210 1.363 . S
C1206 H1183 0.950 . S
C1206 C1205 1.397 . S
C1206 C1207 1.334 . S
C1207 H1184 0.950 . S
C1207 C1206 1.334 . S
C1207 C1208 1.287 . S
C1208 C1207 1.287 . S
C1208 C1209 1.524 . S
C1208 H1227 0.913 . S
C1209 H1185 0.950 . S
C1209 C1208 1.524 . S
C1209 C1210 1.415 . S
C1210 H1186 0.950 . S
C1210 C1205 1.363 . S
C1210 C1209 1.415 . S
C1211 H1187 0.951 . S
C1211 C1212 1.366 . S
C1211 C1213 1.388 . S
C1212 C1211 1.366 . S
C1212 C1216 1.385 . S
C1213 H1188 0.951 . S
C1213 C1211 1.388 . S
C1213 C1214 1.366 . S
C1214 C1213 1.366 . S
C1214 C1215 1.414 . S
C1214 C1217 1.499 . S
C1215 H1189 0.950 . S
C1215 C1214 1.414 . S
C1215 C1216 1.374 . S
C1216 H1190 0.950 . S
C1216 C1212 1.385 . S
C1216 C1215 1.374 . S
C1217 C1214 1.499 . S
C1217 C1218 1.373 . S
C1217 C1219 1.389 . S
C1218 H1191 0.950 . S
C1218 C1204 1.377 . S
C1218 C1217 1.373 . S
C1219 C1203 1.377 . S
C1219 C1217 1.389 . S
C1219 C1220 1.524 . S
C1220 C1219 1.524 . S
C1220 C1221 1.397 . S
C1220 C1225 1.363 . S
C1221 H1192 0.950 . S
C1221 C1220 1.397 . S
C1221 C1222 1.334 . S
C1222 H1193 0.950 . S
C1222 C1221 1.334 . S
C1222 C1223 1.287 . S
C1223 C1222 1.287 . S
C1223 C1224 1.524 . S
C1223 H1226 0.999 . S
C1224 H1194 0.950 . S
C1224 C1223 1.524 . S
C1224 C1225 1.415 . S
C1225 H1195 0.950 . S
C1225 C1220 1.363 . S
C1225 C1224 1.415 . S
H1226 C1223 0.999 . S
H1227 C1208 0.913 . S
H1228 C1246 0.951 . S
H1229 C1248 0.951 . S
H1230 C1250 0.950 . S
H1231 C1251 0.950 . S
H1232 C1253 0.950 . S
H1233 C1256 0.950 . S
H1234 C1257 0.950 . S
H1235 C1259 0.950 . S
H1236 C1260 0.950 . S
H1237 C1261 0.951 . S
H1238 C1263 0.951 . S
H1239 C1265 0.950 . S
H1240 C1266 0.950 . S
H1241 C1268 0.950 . S
H1242 C1271 0.950 . S
H1243 C1272 0.950 . S
H1244 C1274 0.950 . S
H1245 C1275 0.950 . S
C1246 H1228 0.951 . S
C1246 C1247 1.366 . S
C1246 C1248 1.388 . S
C1247 C1246 1.366 . S
C1247 C1251 1.385 . S
C1248 H1229 0.951 . S
C1248 C1246 1.388 . S
C1248 C1249 1.366 . S
C1249 C1248 1.366 . S
C1249 C1250 1.414 . S
C1249 C1252 1.499 . S
C1250 H1230 0.950 . S
C1250 C1249 1.414 . S
C1250 C1251 1.374 . S
C1251 H1231 0.950 . S
C1251 C1247 1.385 . S
C1251 C1250 1.374 . S
C1252 C1249 1.499 . S
C1252 C1253 1.373 . S
C1252 C1254 1.389 . S
C1253 H1232 0.950 . S
C1253 C1252 1.373 . S
C1253 C1269 1.377 . S
C1254 C1252 1.389 . S
C1254 C1255 1.524 . S
C1254 C1268 1.377 . S
C1255 C1254 1.524 . S
C1255 C1256 1.397 . S
C1255 C1260 1.363 . S
C1256 H1233 0.950 . S
C1256 C1255 1.397 . S
C1256 C1257 1.334 . S
C1257 H1234 0.950 . S
C1257 C1256 1.334 . S
C1257 C1258 1.287 . S
C1258 C1257 1.287 . S
C1258 C1259 1.524 . S
C1258 H1277 0.913 . S
C1259 H1235 0.950 . S
C1259 C1258 1.524 . S
C1259 C1260 1.415 . S
C1260 H1236 0.950 . S
C1260 C1255 1.363 . S
C1260 C1259 1.415 . S
C1261 H1237 0.951 . S
C1261 C1262 1.366 . S
C1261 C1263 1.388 . S
C1262 C1261 1.366 . S
C1262 C1266 1.385 . S
C1263 H1238 0.951 . S
C1263 C1261 1.388 . S
C1263 C1264 1.366 . S
C1264 C1263 1.366 . S
C1264 C1265 1.414 . S
C1264 C1267 1.499 . S
C1265 H1239 0.950 . S
C1265 C1264 1.414 . S
C1265 C1266 1.374 . S
C1266 H1240 0.950 . S
C1266 C1262 1.385 . S
C1266 C1265 1.374 . S
C1267 C1264 1.499 . S
C1267 C1268 1.373 . S
C1267 C1269 1.389 . S
C1268 H1241 0.950 . S
C1268 C1254 1.377 . S
C1268 C1267 1.373 . S
C1269 C1253 1.377 . S
C1269 C1267 1.389 . S
C1269 C1270 1.524 . S
C1270 C1269 1.524 . S
C1270 C1271 1.397 . S
C1270 C1275 1.363 . S
C1271 H1242 0.950 . S
C1271 C1270 1.397 . S
C1271 C1272 1.334 . S
C1272 H1243 0.950 . S
C1272 C1271 1.334 . S
C1272 C1273 1.287 . S
C1273 C1272 1.287 . S
C1273 C1274 1.524 . S
C1273 H1276 0.999 . S
C1274 H1244 0.950 . S
C1274 C1273 1.524 . S
C1274 C1275 1.415 . S
C1275 H1245 0.950 . S
C1275 C1270 1.363 . S
C1275 C1274 1.415 . S
H1276 C1273 0.999 . S
H1277 C1258 0.913 . S
H1278 C1296 0.951 . S
H1279 C1298 0.951 . S
H1280 C1300 0.950 . S
H1281 C1301 0.950 . S
H1282 C1303 0.950 . S
H1283 C1306 0.950 . S
H1284 C1307 0.950 . S
H1285 C1309 0.950 . S
H1286 C1310 0.950 . S
H1287 C1311 0.951 . S
H1288 C1313 0.951 . S
H1289 C1315 0.950 . S
H1290 C1316 0.950 . S
H1291 C1318 0.950 . S
H1292 C1321 0.950 . S
H1293 C1322 0.950 . S
H1294 C1324 0.950 . S
H1295 C1325 0.950 . S
C1296 H1278 0.951 . S
C1296 C1297 1.366 . S
C1296 C1298 1.388 . S
C1297 C1296 1.366 . S
C1297 C1301 1.385 . S
C1298 H1279 0.951 . S
C1298 C1296 1.388 . S
C1298 C1299 1.366 . S
C1299 C1298 1.366 . S
C1299 C1300 1.414 . S
C1299 C1302 1.499 . S
C1300 H1280 0.950 . S
C1300 C1299 1.414 . S
C1300 C1301 1.374 . S
C1301 H1281 0.950 . S
C1301 C1297 1.385 . S
C1301 C1300 1.374 . S
C1302 C1299 1.499 . S
C1302 C1303 1.373 . S
C1302 C1304 1.389 . S
C1303 H1282 0.950 . S
C1303 C1302 1.373 . S
C1303 C1319 1.377 . S
C1304 C1302 1.389 . S
C1304 C1305 1.524 . S
C1304 C1318 1.377 . S
C1305 C1304 1.524 . S
C1305 C1306 1.397 . S
C1305 C1310 1.363 . S
C1306 H1283 0.950 . S
C1306 C1305 1.397 . S
C1306 C1307 1.334 . S
C1307 H1284 0.950 . S
C1307 C1306 1.334 . S
C1307 C1308 1.287 . S
C1308 C1307 1.287 . S
C1308 C1309 1.524 . S
C1308 H1327 0.913 . S
C1309 H1285 0.950 . S
C1309 C1308 1.524 . S
C1309 C1310 1.415 . S
C1310 H1286 0.950 . S
C1310 C1305 1.363 . S
C1310 C1309 1.415 . S
C1311 H1287 0.951 . S
C1311 C1312 1.366 . S
C1311 C1313 1.388 . S
C1312 C1311 1.366 . S
C1312 C1316 1.385 . S
C1313 H1288 0.951 . S
C1313 C1311 1.388 . S
C1313 C1314 1.366 . S
C1314 C1313 1.366 . S
C1314 C1315 1.414 . S
C1314 C1317 1.499 . S
C1315 H1289 0.950 . S
C1315 C1314 1.414 . S
C1315 C1316 1.374 . S
C1316 H1290 0.950 . S
C1316 C1312 1.385 . S
C1316 C1315 1.374 . S
C1317 C1314 1.499 . S
C1317 C1318 1.373 . S
C1317 C1319 1.389 . S
C1318 H1291 0.950 . S
C1318 C1304 1.377 . S
C1318 C1317 1.373 . S
C1319 C1303 1.377 . S
C1319 C1317 1.389 . S
C1319 C1320 1.524 . S
C1320 C1319 1.524 . S
C1320 C1321 1.397 . S
C1320 C1325 1.363 . S
C1321 H1292 0.950 . S
C1321 C1320 1.397 . S
C1321 C1322 1.334 . S
C1322 H1293 0.950 . S
C1322 C1321 1.334 . S
C1322 C1323 1.287 . S
C1323 C1322 1.287 . S
C1323 C1324 1.524 . S
C1323 H1326 1.019 . S
C1324 H1294 0.950 . S
C1324 C1323 1.524 . S
C1324 C1325 1.415 . S
C1325 H1295 0.950 . S
C1325 C1320 1.363 . S
C1325 C1324 1.415 . S
H1326 C1323 1.019 . S
H1327 C1308 0.913 . S
H1328 C1346 0.951 . S
H1329 C1348 0.951 . S
H1330 C1350 0.950 . S
H1331 C1351 0.950 . S
H1332 C1353 0.950 . S
H1333 C1356 0.950 . S
H1334 C1357 0.950 . S
H1335 C1359 0.950 . S
H1336 C1360 0.950 . S
H1337 C1361 0.951 . S
H1338 C1363 0.951 . S
H1339 C1365 0.950 . S
H1340 C1366 0.950 . S
H1341 C1368 0.950 . S
H1342 C1371 0.950 . S
H1343 C1372 0.950 . S
H1344 C1374 0.950 . S
H1345 C1375 0.950 . S
C1346 H1328 0.951 . S
C1346 C1347 1.366 . S
C1346 C1348 1.388 . S
C1347 C1346 1.366 . S
C1347 C1351 1.385 . S
C1348 H1329 0.951 . S
C1348 C1346 1.388 . S
C1348 C1349 1.366 . S
C1349 C1348 1.366 . S
C1349 C1350 1.414 . S
C1349 C1352 1.499 . S
C1350 H1330 0.950 . S
C1350 C1349 1.414 . S
C1350 C1351 1.374 . S
C1351 H1331 0.950 . S
C1351 C1347 1.385 . S
C1351 C1350 1.374 . S
C1352 C1349 1.499 . S
C1352 C1353 1.373 . S
C1352 C1354 1.389 . S
C1353 H1332 0.950 . S
C1353 C1352 1.373 . S
C1353 C1369 1.377 . S
C1354 C1352 1.389 . S
C1354 C1355 1.524 . S
C1354 C1368 1.377 . S
C1355 C1354 1.524 . S
C1355 C1356 1.397 . S
C1355 C1360 1.363 . S
C1356 H1333 0.950 . S
C1356 C1355 1.397 . S
C1356 C1357 1.334 . S
C1357 H1334 0.950 . S
C1357 C1356 1.334 . S
C1357 C1358 1.287 . S
C1358 C1357 1.287 . S
C1358 C1359 1.524 . S
C1358 H1377 0.913 . S
C1359 H1335 0.950 . S
C1359 C1358 1.524 . S
C1359 C1360 1.415 . S
C1360 H1336 0.950 . S
C1360 C1355 1.363 . S
C1360 C1359 1.415 . S
C1361 H1337 0.951 . S
C1361 C1362 1.366 . S
C1361 C1363 1.388 . S
C1362 C1361 1.366 . S
C1362 C1366 1.385 . S
C1363 H1338 0.951 . S
C1363 C1361 1.388 . S
C1363 C1364 1.366 . S
C1364 C1363 1.366 . S
C1364 C1365 1.414 . S
C1364 C1367 1.499 . S
C1365 H1339 0.950 . S
C1365 C1364 1.414 . S
C1365 C1366 1.374 . S
C1366 H1340 0.950 . S
C1366 C1362 1.385 . S
C1366 C1365 1.374 . S
C1367 C1364 1.499 . S
C1367 C1368 1.373 . S
C1367 C1369 1.389 . S
C1368 H1341 0.950 . S
C1368 C1354 1.377 . S
C1368 C1367 1.373 . S
C1369 C1353 1.377 . S
C1369 C1367 1.389 . S
C1369 C1370 1.524 . S
C1370 C1369 1.524 . S
C1370 C1371 1.397 . S
C1370 C1375 1.363 . S
C1371 H1342 0.950 . S
C1371 C1370 1.397 . S
C1371 C1372 1.334 . S
C1372 H1343 0.950 . S
C1372 C1371 1.334 . S
C1372 C1373 1.287 . S
C1373 C1372 1.287 . S
C1373 C1374 1.524 . S
C1373 H1376 0.999 . S
C1374 H1344 0.950 . S
C1374 C1373 1.524 . S
C1374 C1375 1.415 . S
C1375 H1345 0.950 . S
C1375 C1370 1.363 . S
C1375 C1374 1.415 . S
H1376 C1373 0.999 . S
H1377 C1358 0.913 . S
H1378 C1396 0.951 . S
H1379 C1398 0.951 . S
H1380 C1400 0.950 . S
H1381 C1401 0.950 . S
H1382 C1403 0.950 . S
H1383 C1406 0.950 . S
H1384 C1407 0.950 . S
H1385 C1409 0.950 . S
H1386 C1410 0.950 . S
H1387 C1411 0.951 . S
H1388 C1413 0.951 . S
H1389 C1415 0.950 . S
H1390 C1416 0.950 . S
H1391 C1418 0.950 . S
H1392 C1421 0.950 . S
H1393 C1422 0.950 . S
H1394 C1424 0.950 . S
H1395 C1425 0.950 . S
C1396 H1378 0.951 . S
C1396 C1397 1.366 . S
C1396 C1398 1.388 . S
C1397 C1396 1.366 . S
C1397 C1401 1.385 . S
C1398 H1379 0.951 . S
C1398 C1396 1.388 . S
C1398 C1399 1.366 . S
C1399 C1398 1.366 . S
C1399 C1400 1.414 . S
C1399 C1402 1.499 . S
C1400 H1380 0.950 . S
C1400 C1399 1.414 . S
C1400 C1401 1.374 . S
C1401 H1381 0.950 . S
C1401 C1397 1.385 . S
C1401 C1400 1.374 . S
C1402 C1399 1.499 . S
C1402 C1403 1.373 . S
C1402 C1404 1.389 . S
C1403 H1382 0.950 . S
C1403 C1402 1.373 . S
C1403 C1419 1.377 . S
C1404 C1402 1.389 . S
C1404 C1405 1.524 . S
C1404 C1418 1.377 . S
C1405 C1404 1.524 . S
C1405 C1406 1.397 . S
C1405 C1410 1.363 . S
C1406 H1383 0.950 . S
C1406 C1405 1.397 . S
C1406 C1407 1.334 . S
C1407 H1384 0.950 . S
C1407 C1406 1.334 . S
C1407 C1408 1.287 . S
C1408 C1407 1.287 . S
C1408 C1409 1.524 . S
C1408 H1427 0.913 . S
C1409 H1385 0.950 . S
C1409 C1408 1.524 . S
C1409 C1410 1.415 . S
C1410 H1386 0.950 . S
C1410 C1405 1.363 . S
C1410 C1409 1.415 . S
C1411 H1387 0.951 . S
C1411 C1412 1.366 . S
C1411 C1413 1.388 . S
C1412 C1411 1.366 . S
C1412 C1416 1.385 . S
C1413 H1388 0.951 . S
C1413 C1411 1.388 . S
C1413 C1414 1.366 . S
C1414 C1413 1.366 . S
C1414 C1415 1.414 . S
C1414 C1417 1.499 . S
C1415 H1389 0.950 . S
C1415 C1414 1.414 . S
C1415 C1416 1.374 . S
C1416 H1390 0.950 . S
C1416 C1412 1.385 . S
C1416 C1415 1.374 . S
C1417 C1414 1.499 . S
C1417 C1418 1.373 . S
C1417 C1419 1.389 . S
C1418 H1391 0.950 . S
C1418 C1404 1.377 . S
C1418 C1417 1.373 . S
C1419 C1403 1.377 . S
C1419 C1417 1.389 . S
C1419 C1420 1.524 . S
C1420 C1419 1.524 . S
C1420 C1421 1.397 . S
C1420 C1425 1.363 . S
C1421 H1392 0.950 . S
C1421 C1420 1.397 . S
C1421 C1422 1.334 . S
C1422 H1393 0.950 . S
C1422 C1421 1.334 . S
C1422 C1423 1.287 . S
C1423 C1422 1.287 . S
C1423 C1424 1.524 . S
C1423 H1426 0.999 . S
C1424 H1394 0.950 . S
C1424 C1423 1.524 . S
C1424 C1425 1.415 . S
C1425 H1395 0.950 . S
C1425 C1420 1.363 . S
C1425 C1424 1.415 . S
H1426 C1423 0.999 . S
H1427 C1408 0.913 . S
H1428 C1446 0.951 . S
H1429 C1448 0.951 . S
H1430 C1450 0.950 . S
H1431 C1451 0.950 . S
H1432 C1453 0.950 . S
H1433 C1456 0.950 . S
H1434 C1457 0.950 . S
H1435 C1459 0.950 . S
H1436 C1460 0.950 . S
H1437 C1461 0.951 . S
H1438 C1463 0.951 . S
H1439 C1465 0.950 . S
H1440 C1466 0.950 . S
H1441 C1468 0.950 . S
H1442 C1471 0.950 . S
H1443 C1472 0.950 . S
H1444 C1474 0.950 . S
H1445 C1475 0.950 . S
C1446 H1428 0.951 . S
C1446 C1447 1.366 . S
C1446 C1448 1.388 . S
C1447 C1446 1.366 . S
C1447 C1451 1.385 . S
C1448 H1429 0.951 . S
C1448 C1446 1.388 . S
C1448 C1449 1.366 . S
C1449 C1448 1.366 . S
C1449 C1450 1.414 . S
C1449 C1452 1.499 . S
C1450 H1430 0.950 . S
C1450 C1449 1.414 . S
C1450 C1451 1.374 . S
C1451 H1431 0.950 . S
C1451 C1447 1.385 . S
C1451 C1450 1.374 . S
C1452 C1449 1.499 . S
C1452 C1453 1.373 . S
C1452 C1454 1.389 . S
C1453 H1432 0.950 . S
C1453 C1452 1.373 . S
C1453 C1469 1.377 . S
C1454 C1452 1.389 . S
C1454 C1455 1.524 . S
C1454 C1468 1.377 . S
C1455 C1454 1.524 . S
C1455 C1456 1.397 . S
C1455 C1460 1.363 . S
C1456 H1433 0.950 . S
C1456 C1455 1.397 . S
C1456 C1457 1.334 . S
C1457 H1434 0.950 . S
C1457 C1456 1.334 . S
C1457 C1458 1.287 . S
C1458 C1457 1.287 . S
C1458 C1459 1.524 . S
C1458 H1477 0.913 . S
C1459 H1435 0.950 . S
C1459 C1458 1.524 . S
C1459 C1460 1.415 . S
C1460 H1436 0.950 . S
C1460 C1455 1.363 . S
C1460 C1459 1.415 . S
C1461 H1437 0.951 . S
C1461 C1462 1.366 . S
C1461 C1463 1.388 . S
C1462 C1461 1.366 . S
C1462 C1466 1.385 . S
C1463 H1438 0.951 . S
C1463 C1461 1.388 . S
C1463 C1464 1.366 . S
C1464 C1463 1.366 . S
C1464 C1465 1.414 . S
C1464 C1467 1.499 . S
C1465 H1439 0.950 . S
C1465 C1464 1.414 . S
C1465 C1466 1.374 . S
C1466 H1440 0.950 . S
C1466 C1462 1.385 . S
C1466 C1465 1.374 . S
C1467 C1464 1.499 . S
C1467 C1468 1.373 . S
C1467 C1469 1.389 . S
C1468 H1441 0.950 . S
C1468 C1454 1.377 . S
C1468 C1467 1.373 . S
C1469 C1453 1.377 . S
C1469 C1467 1.389 . S
C1469 C1470 1.524 . S
C1470 C1469 1.524 . S
C1470 C1471 1.397 . S
C1470 C1475 1.363 . S
C1471 H1442 0.950 . S
C1471 C1470 1.397 . S
C1471 C1472 1.334 . S
C1472 H1443 0.950 . S
C1472 C1471 1.334 . S
C1472 C1473 1.287 . S
C1473 C1472 1.287 . S
C1473 C1474 1.524 . S
C1473 H1476 0.999 . S
C1474 H1444 0.950 . S
C1474 C1473 1.524 . S
C1474 C1475 1.415 . S
C1475 H1445 0.950 . S
C1475 C1470 1.363 . S
C1475 C1474 1.415 . S
H1476 C1473 0.999 . S
H1477 C1458 0.913 . S
H1478 C1496 0.951 . S
H1479 C1498 0.951 . S
H1480 C1500 0.950 . S
H1481 C1501 0.950 . S
H1482 C1503 0.950 . S
H1483 C1506 0.950 . S
H1484 C1507 0.950 . S
H1485 C1509 0.950 . S
H1486 C1510 0.950 . S
H1487 C1511 0.951 . S
H1488 C1513 0.951 . S
H1489 C1515 0.950 . S
H1490 C1516 0.950 . S
H1491 C1518 0.950 . S
H1492 C1521 0.950 . S
H1493 C1522 0.950 . S
H1494 C1524 0.950 . S
H1495 C1525 0.950 . S
C1496 H1478 0.951 . S
C1496 C1497 1.366 . S
C1496 C1498 1.388 . S
C1497 C1496 1.366 . S
C1497 C1501 1.385 . S
C1498 H1479 0.951 . S
C1498 C1496 1.388 . S
C1498 C1499 1.366 . S
C1499 C1498 1.366 . S
C1499 C1500 1.414 . S
C1499 C1502 1.499 . S
C1500 H1480 0.950 . S
C1500 C1499 1.414 . S
C1500 C1501 1.374 . S
C1501 H1481 0.950 . S
C1501 C1497 1.385 . S
C1501 C1500 1.374 . S
C1502 C1499 1.499 . S
C1502 C1503 1.373 . S
C1502 C1504 1.389 . S
C1503 H1482 0.950 . S
C1503 C1502 1.373 . S
C1503 C1519 1.377 . S
C1504 C1502 1.389 . S
C1504 C1505 1.524 . S
C1504 C1518 1.377 . S
C1505 C1504 1.524 . S
C1505 C1506 1.397 . S
C1505 C1510 1.363 . S
C1506 H1483 0.950 . S
C1506 C1505 1.397 . S
C1506 C1507 1.334 . S
C1507 H1484 0.950 . S
C1507 C1506 1.334 . S
C1507 C1508 1.287 . S
C1508 C1507 1.287 . S
C1508 C1509 1.524 . S
C1508 H1527 0.913 . S
C1509 H1485 0.950 . S
C1509 C1508 1.524 . S
C1509 C1510 1.415 . S
C1510 H1486 0.950 . S
C1510 C1505 1.363 . S
C1510 C1509 1.415 . S
C1511 H1487 0.951 . S
C1511 C1512 1.366 . S
C1511 C1513 1.388 . S
C1512 C1511 1.366 . S
C1512 C1516 1.385 . S
C1513 H1488 0.951 . S
C1513 C1511 1.388 . S
C1513 C1514 1.366 . S
C1514 C1513 1.366 . S
C1514 C1515 1.414 . S
C1514 C1517 1.499 . S
C1515 H1489 0.950 . S
C1515 C1514 1.414 . S
C1515 C1516 1.374 . S
C1516 H1490 0.950 . S
C1516 C1512 1.385 . S
C1516 C1515 1.374 . S
C1517 C1514 1.499 . S
C1517 C1518 1.373 . S
C1517 C1519 1.389 . S
C1518 H1491 0.950 . S
C1518 C1504 1.377 . S
C1518 C1517 1.373 . S
C1519 C1503 1.377 . S
C1519 C1517 1.389 . S
C1519 C1520 1.524 . S
C1520 C1519 1.524 . S
C1520 C1521 1.397 . S
C1520 C1525 1.363 . S
C1521 H1492 0.950 . S
C1521 C1520 1.397 . S
C1521 C1522 1.334 . S
C1522 H1493 0.950 . S
C1522 C1521 1.334 . S
C1522 C1523 1.287 . S
C1523 C1522 1.287 . S
C1523 C1524 1.524 . S
C1523 H1526 0.999 . S
C1524 H1494 0.950 . S
C1524 C1523 1.524 . S
C1524 C1525 1.415 . S
C1525 H1495 0.950 . S
C1525 C1520 1.363 . S
C1525 C1524 1.415 . S
H1526 C1523 0.999 . S
H1527 C1508 0.913 . S
H1528 C1546 0.951 . S
H1529 C1548 0.951 . S
H1530 C1550 0.950 . S
H1531 C1551 0.950 . S
H1532 C1553 0.950 . S
H1533 C1556 0.950 . S
H1534 C1557 0.950 . S
H1535 C1559 0.950 . S
H1536 C1560 0.950 . S
H1537 C1561 0.951 . S
H1538 C1563 0.951 . S
H1539 C1565 0.950 . S
H1540 C1566 0.950 . S
H1541 C1568 0.950 . S
H1542 C1571 0.950 . S
H1543 C1572 0.950 . S
H1544 C1574 0.950 . S
H1545 C1575 0.950 . S
C1546 H1528 0.951 . S
C1546 C1547 1.366 . S
C1546 C1548 1.388 . S
C1547 C1546 1.366 . S
C1547 C1551 1.385 . S
C1548 H1529 0.951 . S
C1548 C1546 1.388 . S
C1548 C1549 1.366 . S
C1549 C1548 1.366 . S
C1549 C1550 1.414 . S
C1549 C1552 1.499 . S
C1550 H1530 0.950 . S
C1550 C1549 1.414 . S
C1550 C1551 1.374 . S
C1551 H1531 0.950 . S
C1551 C1547 1.385 . S
C1551 C1550 1.374 . S
C1552 C1549 1.499 . S
C1552 C1553 1.373 . S
C1552 C1554 1.389 . S
C1553 H1532 0.950 . S
C1553 C1552 1.373 . S
C1553 C1569 1.377 . S
C1554 C1552 1.389 . S
C1554 C1555 1.524 . S
C1554 C1568 1.377 . S
C1555 C1554 1.524 . S
C1555 C1556 1.397 . S
C1555 C1560 1.363 . S
C1556 H1533 0.950 . S
C1556 C1555 1.397 . S
C1556 C1557 1.334 . S
C1557 H1534 0.950 . S
C1557 C1556 1.334 . S
C1557 C1558 1.287 . S
C1558 C1557 1.287 . S
C1558 C1559 1.524 . S
C1558 H1577 0.913 . S
C1559 H1535 0.950 . S
C1559 C1558 1.524 . S
C1559 C1560 1.415 . S
C1560 H1536 0.950 . S
C1560 C1555 1.363 . S
C1560 C1559 1.415 . S
C1561 H1537 0.951 . S
C1561 C1562 1.366 . S
C1561 C1563 1.388 . S
C1562 C1561 1.366 . S
C1562 C1566 1.385 . S
C1563 H1538 0.951 . S
C1563 C1561 1.388 . S
C1563 C1564 1.366 . S
C1564 C1563 1.366 . S
C1564 C1565 1.414 . S
C1564 C1567 1.499 . S
C1565 H1539 0.950 . S
C1565 C1564 1.414 . S
C1565 C1566 1.374 . S
C1566 H1540 0.950 . S
C1566 C1562 1.385 . S
C1566 C1565 1.374 . S
C1567 C1564 1.499 . S
C1567 C1568 1.373 . S
C1567 C1569 1.389 . S
C1568 H1541 0.950 . S
C1568 C1554 1.377 . S
C1568 C1567 1.373 . S
C1569 C1553 1.377 . S
C1569 C1567 1.389 . S
C1569 C1570 1.524 . S
C1570 C1569 1.524 . S
C1570 C1571 1.397 . S
C1570 C1575 1.363 . S
C1571 H1542 0.950 . S
C1571 C1570 1.397 . S
C1571 C1572 1.334 . S
C1572 H1543 0.950 . S
C1572 C1571 1.334 . S
C1572 C1573 1.287 . S
C1573 C1572 1.287 . S
C1573 C1574 1.524 . S
C1573 H1576 0.999 . S
C1574 H1544 0.950 . S
C1574 C1573 1.524 . S
C1574 C1575 1.415 . S
C1575 H1545 0.950 . S
C1575 C1570 1.363 . S
C1575 C1574 1.415 . S
H1576 C1573 0.999 . S
H1577 C1558 0.913 . S
H1578 C1596 0.951 . S
H1579 C1598 0.951 . S
H1580 C1600 0.950 . S
H1581 C1601 0.950 . S
H1582 C1603 0.950 . S
H1583 C1606 0.950 . S
H1584 C1607 0.950 . S
H1585 C1609 0.950 . S
H1586 C1610 0.950 . S
H1587 C1611 0.951 . S
H1588 C1613 0.951 . S
H1589 C1615 0.950 . S
H1590 C1616 0.950 . S
H1591 C1618 0.950 . S
H1592 C1621 0.950 . S
H1593 C1622 0.950 . S
H1594 C1624 0.950 . S
H1595 C1625 0.950 . S
C1596 H1578 0.951 . S
C1596 C1597 1.366 . S
C1596 C1598 1.388 . S
C1597 C1596 1.366 . S
C1597 C1601 1.385 . S
C1598 H1579 0.951 . S
C1598 C1596 1.388 . S
C1598 C1599 1.366 . S
C1599 C1598 1.366 . S
C1599 C1600 1.414 . S
C1599 C1602 1.499 . S
C1600 H1580 0.950 . S
C1600 C1599 1.414 . S
C1600 C1601 1.374 . S
C1601 H1581 0.950 . S
C1601 C1597 1.385 . S
C1601 C1600 1.374 . S
C1602 C1599 1.499 . S
C1602 C1603 1.373 . S
C1602 C1604 1.389 . S
C1603 H1582 0.950 . S
C1603 C1602 1.373 . S
C1603 C1619 1.377 . S
C1604 C1602 1.389 . S
C1604 C1605 1.524 . S
C1604 C1618 1.377 . S
C1605 C1604 1.524 . S
C1605 C1606 1.397 . S
C1605 C1610 1.363 . S
C1606 H1583 0.950 . S
C1606 C1605 1.397 . S
C1606 C1607 1.334 . S
C1607 H1584 0.950 . S
C1607 C1606 1.334 . S
C1607 C1608 1.287 . S
C1608 C1607 1.287 . S
C1608 C1609 1.524 . S
C1608 H1627 0.913 . S
C1609 H1585 0.950 . S
C1609 C1608 1.524 . S
C1609 C1610 1.415 . S
C1610 H1586 0.950 . S
C1610 C1605 1.363 . S
C1610 C1609 1.415 . S
C1611 H1587 0.951 . S
C1611 C1612 1.366 . S
C1611 C1613 1.388 . S
C1612 C1611 1.366 . S
C1612 C1616 1.385 . S
C1613 H1588 0.951 . S
C1613 C1611 1.388 . S
C1613 C1614 1.366 . S
C1614 C1613 1.366 . S
C1614 C1615 1.414 . S
C1614 C1617 1.499 . S
C1615 H1589 0.950 . S
C1615 C1614 1.414 . S
C1615 C1616 1.374 . S
C1616 H1590 0.950 . S
C1616 C1612 1.385 . S
C1616 C1615 1.374 . S
C1617 C1614 1.499 . S
C1617 C1618 1.373 . S
C1617 C1619 1.389 . S
C1618 H1591 0.950 . S
C1618 C1604 1.377 . S
C1618 C1617 1.373 . S
C1619 C1603 1.377 . S
C1619 C1617 1.389 . S
C1619 C1620 1.524 . S
C1620 C1619 1.524 . S
C1620 C1621 1.397 . S
C1620 C1625 1.363 . S
C1621 H1592 0.950 . S
C1621 C1620 1.397 . S
C1621 C1622 1.334 . S
C1622 H1593 0.950 . S
C1622 C1621 1.334 . S
C1622 C1623 1.287 . S
C1623 C1622 1.287 . S
C1623 C1624 1.524 . S
C1623 H1626 0.999 . S
C1624 H1594 0.950 . S
C1624 C1623 1.524 . S
C1624 C1625 1.415 . S
C1625 H1595 0.950 . S
C1625 C1620 1.363 . S
C1625 C1624 1.415 . S
H1626 C1623 0.999 . S
H1627 C1608 0.913 . S
H1628 C1646 0.951 . S
H1629 C1648 0.951 . S
H1630 C1650 0.950 . S
H1631 C1651 0.950 . S
H1632 C1653 0.950 . S
H1633 C1656 0.950 . S
H1634 C1657 0.950 . S
H1635 C1659 0.950 . S
H1636 C1660 0.950 . S
H1637 C1661 0.951 . S
H1638 C1663 0.951 . S
H1639 C1665 0.950 . S
H1640 C1666 0.950 . S
H1641 C1668 0.950 . S
H1642 C1671 0.950 . S
H1643 C1672 0.950 . S
H1644 C1674 0.950 . S
H1645 C1675 0.950 . S
C1646 H1628 0.951 . S
C1646 C1647 1.366 . S
C1646 C1648 1.388 . S
C1647 C1646 1.366 . S
C1647 C1651 1.385 . S
C1648 H1629 0.951 . S
C1648 C1646 1.388 . S
C1648 C1649 1.366 . S
C1649 C1648 1.366 . S
C1649 C1650 1.414 . S
C1649 C1652 1.499 . S
C1650 H1630 0.950 . S
C1650 C1649 1.414 . S
C1650 C1651 1.374 . S
C1651 H1631 0.950 . S
C1651 C1647 1.385 . S
C1651 C1650 1.374 . S
C1652 C1649 1.499 . S
C1652 C1653 1.373 . S
C1652 C1654 1.389 . S
C1653 H1632 0.950 . S
C1653 C1652 1.373 . S
C1653 C1669 1.377 . S
C1654 C1652 1.389 . S
C1654 C1655 1.524 . S
C1654 C1668 1.377 . S
C1655 C1654 1.524 . S
C1655 C1656 1.397 . S
C1655 C1660 1.363 . S
C1656 H1633 0.950 . S
C1656 C1655 1.397 . S
C1656 C1657 1.334 . S
C1657 H1634 0.950 . S
C1657 C1656 1.334 . S
C1657 C1658 1.287 . S
C1658 C1657 1.287 . S
C1658 C1659 1.524 . S
C1658 H1677 0.913 . S
C1659 H1635 0.950 . S
C1659 C1658 1.524 . S
C1659 C1660 1.415 . S
C1660 H1636 0.950 . S
C1660 C1655 1.363 . S
C1660 C1659 1.415 . S
C1661 H1637 0.951 . S
C1661 C1662 1.366 . S
C1661 C1663 1.388 . S
C1662 C1661 1.366 . S
C1662 C1666 1.385 . S
C1663 H1638 0.951 . S
C1663 C1661 1.388 . S
C1663 C1664 1.366 . S
C1664 C1663 1.366 . S
C1664 C1665 1.414 . S
C1664 C1667 1.499 . S
C1665 H1639 0.950 . S
C1665 C1664 1.414 . S
C1665 C1666 1.374 . S
C1666 H1640 0.950 . S
C1666 C1662 1.385 . S
C1666 C1665 1.374 . S
C1667 C1664 1.499 . S
C1667 C1668 1.373 . S
C1667 C1669 1.389 . S
C1668 H1641 0.950 . S
C1668 C1654 1.377 . S
C1668 C1667 1.373 . S
C1669 C1653 1.377 . S
C1669 C1667 1.389 . S
C1669 C1670 1.524 . S
C1670 C1669 1.524 . S
C1670 C1671 1.397 . S
C1670 C1675 1.363 . S
C1671 H1642 0.950 . S
C1671 C1670 1.397 . S
C1671 C1672 1.334 . S
C1672 H1643 0.950 . S
C1672 C1671 1.334 . S
C1672 C1673 1.287 . S
C1673 C1672 1.287 . S
C1673 C1674 1.524 . S
C1673 H1676 0.999 . S
C1674 H1644 0.950 . S
C1674 C1673 1.524 . S
C1674 C1675 1.415 . S
C1675 H1645 0.950 . S
C1675 C1670 1.363 . S
C1675 C1674 1.415 . S
H1676 C1673 0.999 . S
H1677 C1658 0.913 . S
H1678 C1696 0.951 . S
H1679 C1698 0.951 . S
H1680 C1700 0.950 . S
H1681 C1701 0.950 . S
H1682 C1703 0.950 . S
H1683 C1706 0.950 . S
H1684 C1707 0.950 . S
H1685 C1709 0.950 . S
H1686 C1710 0.950 . S
H1687 C1711 0.951 . S
H1688 C1713 0.951 . S
H1689 C1715 0.950 . S
H1690 C1716 0.950 . S
H1691 C1718 0.950 . S
H1692 C1721 0.950 . S
H1693 C1722 0.950 . S
H1694 C1724 0.950 . S
H1695 C1725 0.950 . S
C1696 H1678 0.951 . S
C1696 C1697 1.366 . S
C1696 C1698 1.388 . S
C1697 C1696 1.366 . S
C1697 C1701 1.385 . S
C1698 H1679 0.951 . S
C1698 C1696 1.388 . S
C1698 C1699 1.366 . S
C1699 C1698 1.366 . S
C1699 C1700 1.414 . S
C1699 C1702 1.499 . S
C1700 H1680 0.950 . S
C1700 C1699 1.414 . S
C1700 C1701 1.374 . S
C1701 H1681 0.950 . S
C1701 C1697 1.385 . S
C1701 C1700 1.374 . S
C1702 C1699 1.499 . S
C1702 C1703 1.373 . S
C1702 C1704 1.389 . S
C1703 H1682 0.950 . S
C1703 C1702 1.373 . S
C1703 C1719 1.377 . S
C1704 C1702 1.389 . S
C1704 C1705 1.524 . S
C1704 C1718 1.377 . S
C1705 C1704 1.524 . S
C1705 C1706 1.397 . S
C1705 C1710 1.363 . S
C1706 H1683 0.950 . S
C1706 C1705 1.397 . S
C1706 C1707 1.334 . S
C1707 H1684 0.950 . S
C1707 C1706 1.334 . S
C1707 C1708 1.287 . S
C1708 C1707 1.287 . S
C1708 C1709 1.524 . S
C1708 H1727 0.913 . S
C1709 H1685 0.950 . S
C1709 C1708 1.524 . S
C1709 C1710 1.415 . S
C1710 H1686 0.950 . S
C1710 C1705 1.363 . S
C1710 C1709 1.415 . S
C1711 H1687 0.951 . S
C1711 C1712 1.366 . S
C1711 C1713 1.388 . S
C1712 C1711 1.366 . S
C1712 C1716 1.385 . S
C1713 H1688 0.951 . S
C1713 C1711 1.388 . S
C1713 C1714 1.366 . S
C1714 C1713 1.366 . S
C1714 C1715 1.414 . S
C1714 C1717 1.499 . S
C1715 H1689 0.950 . S
C1715 C1714 1.414 . S
C1715 C1716 1.374 . S
C1716 H1690 0.950 . S
C1716 C1712 1.385 . S
C1716 C1715 1.374 . S
C1717 C1714 1.499 . S
C1717 C1718 1.373 . S
C1717 C1719 1.389 . S
C1718 H1691 0.950 . S
C1718 C1704 1.377 . S
C1718 C1717 1.373 . S
C1719 C1703 1.377 . S
C1719 C1717 1.389 . S
C1719 C1720 1.524 . S
C1720 C1719 1.524 . S
C1720 C1721 1.397 . S
C1720 C1725 1.363 . S
C1721 H1692 0.950 . S
C1721 C1720 1.397 . S
C1721 C1722 1.334 . S
C1722 H1693 0.950 . S
C1722 C1721 1.334 . S
C1722 C1723 1.287 . S
C1723 C1722 1.287 . S
C1723 C1724 1.524 . S
C1723 H1726 0.999 . S
C1724 H1694 0.950 . S
C1724 C1723 1.524 . S
C1724 C1725 1.415 . S
C1725 H1695 0.950 . S
C1725 C1720 1.363 . S
C1725 C1724 1.415 . S
H1726 C1723 0.999 . S
H1727 C1708 0.913 . S
H1728 C1746 0.951 . S
H1729 C1748 0.951 . S
H1730 C1750 0.950 . S
H1731 C1751 0.950 . S
H1732 C1753 0.950 . S
H1733 C1756 0.950 . S
H1734 C1757 0.950 . S
H1735 C1759 0.950 . S
H1736 C1760 0.950 . S
H1737 C1761 0.951 . S
H1738 C1763 0.951 . S
H1739 C1765 0.950 . S
H1740 C1766 0.950 . S
H1741 C1768 0.950 . S
H1742 C1771 0.950 . S
H1743 C1772 0.950 . S
H1744 C1774 0.950 . S
H1745 C1775 0.950 . S
C1746 H1728 0.951 . S
C1746 C1747 1.366 . S
C1746 C1748 1.388 . S
C1747 C1746 1.366 . S
C1747 C1751 1.385 . S
C1748 H1729 0.951 . S
C1748 C1746 1.388 . S
C1748 C1749 1.366 . S
C1749 C1748 1.366 . S
C1749 C1750 1.414 . S
C1749 C1752 1.499 . S
C1750 H1730 0.950 . S
C1750 C1749 1.414 . S
C1750 C1751 1.374 . S
C1751 H1731 0.950 . S
C1751 C1747 1.385 . S
C1751 C1750 1.374 . S
C1752 C1749 1.499 . S
C1752 C1753 1.373 . S
C1752 C1754 1.389 . S
C1753 H1732 0.950 . S
C1753 C1752 1.373 . S
C1753 C1769 1.377 . S
C1754 C1752 1.389 . S
C1754 C1755 1.524 . S
C1754 C1768 1.377 . S
C1755 C1754 1.524 . S
C1755 C1756 1.397 . S
C1755 C1760 1.363 . S
C1756 H1733 0.950 . S
C1756 C1755 1.397 . S
C1756 C1757 1.334 1_455 S
C1757 H1734 0.950 . S
C1757 C1756 1.334 1_655 S
C1757 C1758 1.287 . S
C1758 C1757 1.287 . S
C1758 C1759 1.524 . S
C1758 H1777 0.913 . S
C1759 H1735 0.950 . S
C1759 C1758 1.524 . S
C1759 C1760 1.415 1_655 S
C1760 H1736 0.950 . S
C1760 C1755 1.363 . S
C1760 C1759 1.415 1_455 S
C1761 H1737 0.951 . S
C1761 C1762 1.366 . S
C1761 C1763 1.388 . S
C1762 C1761 1.366 . S
C1762 C1766 1.385 . S
C1763 H1738 0.951 . S
C1763 C1761 1.388 . S
C1763 C1764 1.366 . S
C1764 C1763 1.366 . S
C1764 C1765 1.414 . S
C1764 C1767 1.499 . S
C1765 H1739 0.950 . S
C1765 C1764 1.414 . S
C1765 C1766 1.374 . S
C1766 H1740 0.950 . S
C1766 C1762 1.385 . S
C1766 C1765 1.374 . S
C1767 C1764 1.499 . S
C1767 C1768 1.373 . S
C1767 C1769 1.389 . S
C1768 H1741 0.950 . S
C1768 C1754 1.377 . S
C1768 C1767 1.373 . S
C1769 C1753 1.377 . S
C1769 C1767 1.389 . S
C1769 C1770 1.524 . S
C1770 C1769 1.524 . S
C1770 C1771 1.397 . S
C1770 C1775 1.363 . S
C1771 H1742 0.950 . S
C1771 C1770 1.397 . S
C1771 C1772 1.334 . S
C1772 H1743 0.950 . S
C1772 C1771 1.334 . S
C1772 C1773 1.287 . S
C1773 C1772 1.287 . S
C1773 C1774 1.524 . S
C1773 H1776 0.999 . S
C1774 H1744 0.950 . S
C1774 C1773 1.524 . S
C1774 C1775 1.415 . S
C1775 H1745 0.950 . S
C1775 C1770 1.363 . S
C1775 C1774 1.415 . S
H1776 C1773 0.999 . S
H1777 C1758 0.913 . S
H1778 C1796 0.951 . S
H1779 C1798 0.951 . S
H1780 C1800 0.950 . S
H1781 C1801 0.950 . S
H1782 C1803 0.950 . S
H1783 C1806 0.950 . S
H1784 C1807 0.950 . S
H1785 C1809 0.950 . S
H1786 C1810 0.950 . S
H1787 C1811 0.951 . S
H1788 C1813 0.951 . S
H1789 C1815 0.950 . S
H1790 C1816 0.950 . S
H1791 C1818 0.950 . S
H1792 C1821 0.950 . S
H1793 C1822 0.950 . S
H1794 C1824 0.950 . S
H1795 C1825 0.950 . S
C1796 H1778 0.951 . S
C1796 C1797 1.366 . S
C1796 C1798 1.388 . S
C1797 C1796 1.366 . S
C1797 C1801 1.385 . S
C1798 H1779 0.951 . S
C1798 C1796 1.388 . S
C1798 C1799 1.366 . S
C1799 C1798 1.366 . S
C1799 C1800 1.414 . S
C1799 C1802 1.499 . S
C1800 H1780 0.950 . S
C1800 C1799 1.414 . S
C1800 C1801 1.374 . S
C1801 H1781 0.950 . S
C1801 C1797 1.385 . S
C1801 C1800 1.374 . S
C1802 C1799 1.499 . S
C1802 C1803 1.373 . S
C1802 C1804 1.389 . S
C1803 H1782 0.950 . S
C1803 C1802 1.373 . S
C1803 C1819 1.377 . S
C1804 C1802 1.389 . S
C1804 C1805 1.524 . S
C1804 C1818 1.377 . S
C1805 C1804 1.524 . S
C1805 C1806 1.397 . S
C1805 C1810 1.363 . S
C1806 H1783 0.950 . S
C1806 C1805 1.397 . S
C1806 C1807 1.334 1_545 S
C1807 H1784 0.950 . S
C1807 C1806 1.334 1_565 S
C1807 C1808 1.287 . S
C1808 C1807 1.287 . S
C1808 C1809 1.524 1_565 S
C1808 H1827 0.913 . S
C1809 H1785 0.950 . S
C1809 C1808 1.524 1_545 S
C1809 C1810 1.415 . S
C1810 H1786 0.950 . S
C1810 C1805 1.363 . S
C1810 C1809 1.415 . S
C1811 H1787 0.951 . S
C1811 C1812 1.366 . S
C1811 C1813 1.388 . S
C1812 C1811 1.366 . S
C1812 C1816 1.385 . S
C1813 H1788 0.951 . S
C1813 C1811 1.388 . S
C1813 C1814 1.366 . S
C1814 C1813 1.366 . S
C1814 C1815 1.414 . S
C1814 C1817 1.499 . S
C1815 H1789 0.950 . S
C1815 C1814 1.414 . S
C1815 C1816 1.374 . S
C1816 H1790 0.950 . S
C1816 C1812 1.385 . S
C1816 C1815 1.374 . S
C1817 C1814 1.499 . S
C1817 C1818 1.373 . S
C1817 C1819 1.389 . S
C1818 H1791 0.950 . S
C1818 C1804 1.377 . S
C1818 C1817 1.373 . S
C1819 C1803 1.377 . S
C1819 C1817 1.389 . S
C1819 C1820 1.524 . S
C1820 C1819 1.524 . S
C1820 C1821 1.397 . S
C1820 C1825 1.363 . S
C1821 H1792 0.950 . S
C1821 C1820 1.397 . S
C1821 C1822 1.334 . S
C1822 H1793 0.950 . S
C1822 C1821 1.334 . S
C1822 C1823 1.287 . S
C1823 C1822 1.287 . S
C1823 C1824 1.524 . S
C1823 H1826 0.999 . S
C1824 H1794 0.950 . S
C1824 C1823 1.524 . S
C1824 C1825 1.415 . S
C1825 H1795 0.950 . S
C1825 C1820 1.363 . S
C1825 C1824 1.415 . S
H1826 C1823 0.999 . S
H1827 C1808 0.913 . S
H1828 C1846 0.951 . S
H1829 C1848 0.951 . S
H1830 C1850 0.950 . S
H1831 C1851 0.950 . S
H1832 C1853 0.950 . S
H1833 C1856 0.950 . S
H1834 C1857 0.950 . S
H1835 C1859 0.950 . S
H1836 C1860 0.950 . S
H1837 C1861 0.951 . S
H1838 C1863 0.951 . S
H1839 C1865 0.950 . S
H1840 C1866 0.950 . S
H1841 C1868 0.950 . S
H1842 C1871 0.950 . S
H1843 C1872 0.950 . S
H1844 C1874 0.950 . S
H1845 C1875 0.950 . S
C1846 H1828 0.951 . S
C1846 C1847 1.366 . S
C1846 C1848 1.388 . S
C1847 C1846 1.366 . S
C1847 C1851 1.385 . S
C1848 H1829 0.951 . S
C1848 C1846 1.388 . S
C1848 C1849 1.366 . S
C1849 C1848 1.366 . S
C1849 C1850 1.414 . S
C1849 C1852 1.499 . S
C1850 H1830 0.950 . S
C1850 C1849 1.414 . S
C1850 C1851 1.374 . S
C1851 H1831 0.950 . S
C1851 C1847 1.385 . S
C1851 C1850 1.374 . S
C1852 C1849 1.499 . S
C1852 C1853 1.373 . S
C1852 C1854 1.389 . S
C1853 H1832 0.950 . S
C1853 C1852 1.373 . S
C1853 C1869 1.377 . S
C1854 C1852 1.389 . S
C1854 C1855 1.524 . S
C1854 C1868 1.377 . S
C1855 C1854 1.524 . S
C1855 C1856 1.397 . S
C1855 C1860 1.363 . S
C1856 H1833 0.950 . S
C1856 C1855 1.397 . S
C1856 C1857 1.334 . S
C1857 H1834 0.950 . S
C1857 C1856 1.334 . S
C1857 C1858 1.287 . S
C1858 C1857 1.287 . S
C1858 C1859 1.524 . S
C1858 H1877 0.913 . S
C1859 H1835 0.950 . S
C1859 C1858 1.524 . S
C1859 C1860 1.415 . S
C1860 H1836 0.950 . S
C1860 C1855 1.363 . S
C1860 C1859 1.415 . S
C1861 H1837 0.951 . S
C1861 C1862 1.366 . S
C1861 C1863 1.388 . S
C1862 C1861 1.366 . S
C1862 C1866 1.385 . S
C1863 H1838 0.951 . S
C1863 C1861 1.388 . S
C1863 C1864 1.366 . S
C1864 C1863 1.366 . S
C1864 C1865 1.414 . S
C1864 C1867 1.499 . S
C1865 H1839 0.950 . S
C1865 C1864 1.414 . S
C1865 C1866 1.374 . S
C1866 H1840 0.950 . S
C1866 C1862 1.385 . S
C1866 C1865 1.374 . S
C1867 C1864 1.499 . S
C1867 C1868 1.373 . S
C1867 C1869 1.389 . S
C1868 H1841 0.950 . S
C1868 C1854 1.377 . S
C1868 C1867 1.373 . S
C1869 C1853 1.377 . S
C1869 C1867 1.389 . S
C1869 C1870 1.524 . S
C1870 C1869 1.524 . S
C1870 C1871 1.397 . S
C1870 C1875 1.363 . S
C1871 H1842 0.950 . S
C1871 C1870 1.397 . S
C1871 C1872 1.334 . S
C1872 H1843 0.950 . S
C1872 C1871 1.334 . S
C1872 C1873 1.287 . S
C1873 C1872 1.287 . S
C1873 C1874 1.524 . S
C1873 H1876 0.999 . S
C1874 H1844 0.950 . S
C1874 C1873 1.524 . S
C1874 C1875 1.415 . S
C1875 H1845 0.950 . S
C1875 C1870 1.363 . S
C1875 C1874 1.415 . S
H1876 C1873 0.999 . S
H1877 C1858 0.913 . S
H1878 C1896 0.951 . S
H1879 C1898 0.951 . S
H1880 C1900 0.950 . S
H1881 C1901 0.950 . S
H1882 C1903 0.950 . S
H1883 C1906 0.950 . S
H1884 C1907 0.950 . S
H1885 C1909 0.950 . S
H1886 C1910 0.950 . S
H1887 C1911 0.951 . S
H1888 C1913 0.951 . S
H1889 C1915 0.950 . S
H1890 C1916 0.950 . S
H1891 C1918 0.950 . S
H1892 C1921 0.950 . S
H1893 C1922 0.950 . S
H1894 C1924 0.950 . S
H1895 C1925 0.950 . S
C1896 H1878 0.951 . S
C1896 C1897 1.366 . S
C1896 C1898 1.388 . S
C1897 C1896 1.366 . S
C1897 C1901 1.385 . S
C1898 H1879 0.951 . S
C1898 C1896 1.388 . S
C1898 C1899 1.366 . S
C1899 C1898 1.366 . S
C1899 C1900 1.414 . S
C1899 C1902 1.499 . S
C1900 H1880 0.950 . S
C1900 C1899 1.414 . S
C1900 C1901 1.374 . S
C1901 H1881 0.950 . S
C1901 C1897 1.385 . S
C1901 C1900 1.374 . S
C1902 C1899 1.499 . S
C1902 C1903 1.373 . S
C1902 C1904 1.389 . S
C1903 H1882 0.950 . S
C1903 C1902 1.373 . S
C1903 C1919 1.377 . S
C1904 C1902 1.389 . S
C1904 C1905 1.524 . S
C1904 C1918 1.377 . S
C1905 C1904 1.524 . S
C1905 C1906 1.397 . S
C1905 C1910 1.363 . S
C1906 H1883 0.950 . S
C1906 C1905 1.397 . S
C1906 C1907 1.334 . S
C1907 H1884 0.950 . S
C1907 C1906 1.334 . S
C1907 C1908 1.287 . S
C1908 C1907 1.287 . S
C1908 C1909 1.524 . S
C1908 H1927 0.913 . S
C1909 H1885 0.950 . S
C1909 C1908 1.524 . S
C1909 C1910 1.415 . S
C1910 H1886 0.950 . S
C1910 C1905 1.363 . S
C1910 C1909 1.415 . S
C1911 H1887 0.951 . S
C1911 C1912 1.366 . S
C1911 C1913 1.388 . S
C1912 C1911 1.366 . S
C1912 C1916 1.385 . S
C1913 H1888 0.951 . S
C1913 C1911 1.388 . S
C1913 C1914 1.366 . S
C1914 C1913 1.366 . S
C1914 C1915 1.414 . S
C1914 C1917 1.499 . S
C1915 H1889 0.950 . S
C1915 C1914 1.414 . S
C1915 C1916 1.374 . S
C1916 H1890 0.950 . S
C1916 C1912 1.385 . S
C1916 C1915 1.374 . S
C1917 C1914 1.499 . S
C1917 C1918 1.373 . S
C1917 C1919 1.389 . S
C1918 H1891 0.950 . S
C1918 C1904 1.377 . S
C1918 C1917 1.373 . S
C1919 C1903 1.377 . S
C1919 C1917 1.389 . S
C1919 C1920 1.524 . S
C1920 C1919 1.524 . S
C1920 C1921 1.397 . S
C1920 C1925 1.363 . S
C1921 H1892 0.950 . S
C1921 C1920 1.397 . S
C1921 C1922 1.334 . S
C1922 H1893 0.950 . S
C1922 C1921 1.334 . S
C1922 C1923 1.287 . S
C1923 C1922 1.287 . S
C1923 C1924 1.524 . S
C1923 H1926 0.999 . S
C1924 H1894 0.950 . S
C1924 C1923 1.524 . S
C1924 C1925 1.415 . S
C1925 H1895 0.950 . S
C1925 C1920 1.363 . S
C1925 C1924 1.415 . S
H1926 C1923 0.999 . S
H1927 C1908 0.913 . S
H1928 C1946 0.951 . S
H1929 C1948 0.951 . S
H1930 C1950 0.950 . S
H1931 C1951 0.950 1_455 S
H1932 C1953 0.950 . S
H1933 C1956 0.950 . S
H1934 C1957 0.950 . S
H1935 C1959 0.950 . S
H1936 C1960 0.950 . S
H1937 C1961 0.951 . S
H1938 C1963 0.951 . S
H1939 C1965 0.950 . S
H1940 C1966 0.950 . S
H1941 C1968 0.950 . S
H1942 C1971 0.950 . S
H1943 C1972 0.950 . S
H1944 C1974 0.950 . S
H1945 C1975 0.950 . S
C1946 H1928 0.951 . S
C1946 C1947 1.366 . S
C1946 C1948 1.388 . S
C1947 C1946 1.366 . S
C1947 C1951 1.385 . S
C1948 H1929 0.951 . S
C1948 C1946 1.388 . S
C1948 C1949 1.366 . S
C1949 C1948 1.366 . S
C1949 C1950 1.414 . S
C1949 C1952 1.499 . S
C1950 H1930 0.950 . S
C1950 C1949 1.414 . S
C1950 C1951 1.374 . S
C1951 H1931 0.950 1_655 S
C1951 C1947 1.385 . S
C1951 C1950 1.374 . S
C1952 C1949 1.499 . S
C1952 C1953 1.373 . S
C1952 C1954 1.389 . S
C1953 H1932 0.950 . S
C1953 C1952 1.373 . S
C1953 C1969 1.377 . S
C1954 C1952 1.389 . S
C1954 C1955 1.524 . S
C1954 C1968 1.377 . S
C1955 C1954 1.524 . S
C1955 C1956 1.397 . S
C1955 C1960 1.363 . S
C1956 H1933 0.950 . S
C1956 C1955 1.397 . S
C1956 C1957 1.334 . S
C1957 H1934 0.950 . S
C1957 C1956 1.334 . S
C1957 C1958 1.287 . S
C1958 C1957 1.287 . S
C1958 C1959 1.524 . S
C1958 H1977 0.913 . S
C1959 H1935 0.950 . S
C1959 C1958 1.524 . S
C1959 C1960 1.415 . S
C1960 H1936 0.950 . S
C1960 C1955 1.363 . S
C1960 C1959 1.415 . S
C1961 H1937 0.951 . S
C1961 C1962 1.366 . S
C1961 C1963 1.388 . S
C1962 C1961 1.366 . S
C1962 C1966 1.385 . S
C1963 H1938 0.951 . S
C1963 C1961 1.388 . S
C1963 C1964 1.366 . S
C1964 C1963 1.366 . S
C1964 C1965 1.414 . S
C1964 C1967 1.499 . S
C1965 H1939 0.950 . S
C1965 C1964 1.414 . S
C1965 C1966 1.374 . S
C1966 H1940 0.950 . S
C1966 C1962 1.385 . S
C1966 C1965 1.374 . S
C1967 C1964 1.499 . S
C1967 C1968 1.373 . S
C1967 C1969 1.389 . S
C1968 H1941 0.950 . S
C1968 C1954 1.377 . S
C1968 C1967 1.373 . S
C1969 C1953 1.377 . S
C1969 C1967 1.389 . S
C1969 C1970 1.524 . S
C1970 C1969 1.524 . S
C1970 C1971 1.397 . S
C1970 C1975 1.363 . S
C1971 H1942 0.950 . S
C1971 C1970 1.397 . S
C1971 C1972 1.334 . S
C1972 H1943 0.950 . S
C1972 C1971 1.334 . S
C1972 C1973 1.287 . S
C1973 C1972 1.287 . S
C1973 C1974 1.524 . S
C1973 H1976 0.999 . S
C1974 H1944 0.950 . S
C1974 C1973 1.524 . S
C1974 C1975 1.415 . S
C1975 H1945 0.950 . S
C1975 C1970 1.363 . S
C1975 C1974 1.415 . S
H1976 C1973 0.999 . S
H1977 C1958 0.913 . S
H1978 C1996 0.951 . S
H1979 C1998 0.951 . S
H1980 C2000 0.950 . S
H1981 C2001 0.950 . S
H1982 C2003 0.950 . S
H1983 C2006 0.950 . S
H1984 C2007 0.950 . S
H1985 C2009 0.950 . S
H1986 C2010 0.950 . S
H1987 C2011 0.951 . S
H1988 C2013 0.951 . S
H1989 C2015 0.950 . S
H1990 C2016 0.950 . S
H1991 C2018 0.950 . S
H1992 C2021 0.950 . S
H1993 C2022 0.950 . S
H1994 C2024 0.950 . S
H1995 C2025 0.950 . S
C1996 H1978 0.951 . S
C1996 C1997 1.366 . S
C1996 C1998 1.388 . S
C1997 C1996 1.366 . S
C1997 C2001 1.385 . S
C1998 H1979 0.951 . S
C1998 C1996 1.388 . S
C1998 C1999 1.366 . S
C1999 C1998 1.366 . S
C1999 C2000 1.414 . S
C1999 C2002 1.499 . S
C2000 H1980 0.950 . S
C2000 C1999 1.414 . S
C2000 C2001 1.374 . S
C2001 H1981 0.950 . S
C2001 C1997 1.385 . S
C2001 C2000 1.374 . S
C2002 C1999 1.499 . S
C2002 C2003 1.373 . S
C2002 C2004 1.389 . S
C2003 H1982 0.950 . S
C2003 C2002 1.373 . S
C2003 C2019 1.377 . S
C2004 C2002 1.389 . S
C2004 C2005 1.524 . S
C2004 C2018 1.377 . S
C2005 C2004 1.524 . S
C2005 C2006 1.397 . S
C2005 C2010 1.363 . S
C2006 H1983 0.950 . S
C2006 C2005 1.397 . S
C2006 C2007 1.334 . S
C2007 H1984 0.950 . S
C2007 C2006 1.334 . S
C2007 C2008 1.287 . S
C2008 C2007 1.287 . S
C2008 C2009 1.524 . S
C2008 H2027 0.913 . S
C2009 H1985 0.950 . S
C2009 C2008 1.524 . S
C2009 C2010 1.415 . S
C2010 H1986 0.950 . S
C2010 C2005 1.363 . S
C2010 C2009 1.415 . S
C2011 H1987 0.951 . S
C2011 C2012 1.366 . S
C2011 C2013 1.388 . S
C2012 C2011 1.366 . S
C2012 C2016 1.385 . S
C2013 H1988 0.951 . S
C2013 C2011 1.388 . S
C2013 C2014 1.366 . S
C2014 C2013 1.366 . S
C2014 C2015 1.414 . S
C2014 C2017 1.499 . S
C2015 H1989 0.950 . S
C2015 C2014 1.414 . S
C2015 C2016 1.374 . S
C2016 H1990 0.950 . S
C2016 C2012 1.385 . S
C2016 C2015 1.374 . S
C2017 C2014 1.499 . S
C2017 C2018 1.373 . S
C2017 C2019 1.389 . S
C2018 H1991 0.950 . S
C2018 C2004 1.377 . S
C2018 C2017 1.373 . S
C2019 C2003 1.377 . S
C2019 C2017 1.389 . S
C2019 C2020 1.524 . S
C2020 C2019 1.524 . S
C2020 C2021 1.397 . S
C2020 C2025 1.363 . S
C2021 H1992 0.950 . S
C2021 C2020 1.397 . S
C2021 C2022 1.334 1_565 S
C2022 H1993 0.950 . S
C2022 C2021 1.334 1_545 S
C2022 C2023 1.287 . S
C2023 C2022 1.287 . S
C2023 C2024 1.524 . S
C2023 H2026 0.999 . S
C2024 H1994 0.950 . S
C2024 C2023 1.524 . S
C2024 C2025 1.415 1_545 S
C2025 H1995 0.950 . S
C2025 C2020 1.363 . S
C2025 C2024 1.415 1_565 S
H2026 C2023 0.999 . S
H2027 C2008 0.913 . S
H2028 C2046 0.951 . S
H2029 C2048 0.951 . S
H2030 C2050 0.950 . S
H2031 C2051 0.950 . S
H2032 C2053 0.950 . S
H2033 C2056 0.950 . S
H2034 C2057 0.950 . S
H2035 C2059 0.950 . S
H2036 C2060 0.950 . S
H2037 C2061 0.951 . S
H2038 C2063 0.951 . S
H2039 C2065 0.950 . S
H2040 C2066 0.950 . S
H2041 C2068 0.950 . S
H2042 C2071 0.950 . S
H2043 C2072 0.950 . S
H2044 C2074 0.950 . S
H2045 C2075 0.950 . S
C2046 H2028 0.951 . S
C2046 C2047 1.366 . S
C2046 C2048 1.388 . S
C2047 C2046 1.366 . S
C2047 C2051 1.385 . S
C2048 H2029 0.951 . S
C2048 C2046 1.388 . S
C2048 C2049 1.366 . S
C2049 C2048 1.366 . S
C2049 C2050 1.414 . S
C2049 C2052 1.499 . S
C2050 H2030 0.950 . S
C2050 C2049 1.414 . S
C2050 C2051 1.374 . S
C2051 H2031 0.950 . S
C2051 C2047 1.385 . S
C2051 C2050 1.374 . S
C2052 C2049 1.499 . S
C2052 C2053 1.373 . S
C2052 C2054 1.389 . S
C2053 H2032 0.950 . S
C2053 C2052 1.373 . S
C2053 C2069 1.377 . S
C2054 C2052 1.389 . S
C2054 C2055 1.524 . S
C2054 C2068 1.377 . S
C2055 C2054 1.524 . S
C2055 C2056 1.397 . S
C2055 C2060 1.363 . S
C2056 H2033 0.950 . S
C2056 C2055 1.397 . S
C2056 C2057 1.334 . S
C2057 H2034 0.950 . S
C2057 C2056 1.334 . S
C2057 C2058 1.287 . S
C2058 C2057 1.287 . S
C2058 C2059 1.524 . S
C2058 H2077 0.913 . S
C2059 H2035 0.950 . S
C2059 C2058 1.524 . S
C2059 C2060 1.415 . S
C2060 H2036 0.950 . S
C2060 C2055 1.363 . S
C2060 C2059 1.415 . S
C2061 H2037 0.951 . S
C2061 C2062 1.366 . S
C2061 C2063 1.388 . S
C2062 C2061 1.366 . S
C2062 C2066 1.385 . S
C2063 H2038 0.951 . S
C2063 C2061 1.388 . S
C2063 C2064 1.366 . S
C2064 C2063 1.366 . S
C2064 C2065 1.414 . S
C2064 C2067 1.499 . S
C2065 H2039 0.950 . S
C2065 C2064 1.414 . S
C2065 C2066 1.374 . S
C2066 H2040 0.950 . S
C2066 C2062 1.385 . S
C2066 C2065 1.374 . S
C2067 C2064 1.499 . S
C2067 C2068 1.373 . S
C2067 C2069 1.389 . S
C2068 H2041 0.950 . S
C2068 C2054 1.377 . S
C2068 C2067 1.373 . S
C2069 C2053 1.377 . S
C2069 C2067 1.389 . S
C2069 C2070 1.524 . S
C2070 C2069 1.524 . S
C2070 C2071 1.397 . S
C2070 C2075 1.363 . S
C2071 H2042 0.950 . S
C2071 C2070 1.397 . S
C2071 C2072 1.334 . S
C2072 H2043 0.950 . S
C2072 C2071 1.334 . S
C2072 C2073 1.287 . S
C2073 C2072 1.287 . S
C2073 C2074 1.524 . S
C2073 H2076 0.999 . S
C2074 H2044 0.950 . S
C2074 C2073 1.524 . S
C2074 C2075 1.415 . S
C2075 H2045 0.950 . S
C2075 C2070 1.363 . S
C2075 C2074 1.415 . S
H2076 C2073 0.999 . S
H2077 C2058 0.913 . S
H2078 C2096 0.951 1_655 S
H2079 C2098 0.951 . S
H2080 C2100 0.950 . S
H2081 C2101 0.950 . S
H2082 C2103 0.950 . S
H2083 C2106 0.950 . S
H2084 C2107 0.950 . S
H2085 C2109 0.950 1_655 S
H2086 C2110 0.950 . S
H2087 C2111 0.951 . S
H2088 C2113 0.951 . S
H2089 C2115 0.950 . S
H2090 C2116 0.950 . S
H2091 C2118 0.950 . S
H2092 C2121 0.950 . S
H2093 C2122 0.950 . S
H2094 C2124 0.950 . S
H2095 C2125 0.950 . S
C2096 H2078 0.951 1_455 S
C2096 C2097 1.366 . S
C2096 C2098 1.388 . S
C2097 C2096 1.366 . S
C2097 C2101 1.385 . S
C2098 H2079 0.951 . S
C2098 C2096 1.388 . S
C2098 C2099 1.366 . S
C2099 C2098 1.366 . S
C2099 C2100 1.414 . S
C2099 C2102 1.499 . S
C2100 H2080 0.950 . S
C2100 C2099 1.414 . S
C2100 C2101 1.374 . S
C2101 H2081 0.950 . S
C2101 C2097 1.385 . S
C2101 C2100 1.374 . S
C2102 C2099 1.499 . S
C2102 C2103 1.373 . S
C2102 C2104 1.389 . S
C2103 H2082 0.950 . S
C2103 C2102 1.373 . S
C2103 C2119 1.377 . S
C2104 C2102 1.389 . S
C2104 C2105 1.524 . S
C2104 C2118 1.377 . S
C2105 C2104 1.524 . S
C2105 C2106 1.397 . S
C2105 C2110 1.363 . S
C2106 H2083 0.950 . S
C2106 C2105 1.397 . S
C2106 C2107 1.334 . S
C2107 H2084 0.950 . S
C2107 C2106 1.334 . S
C2107 C2108 1.287 . S
C2108 C2107 1.287 . S
C2108 C2109 1.524 . S
C2108 H2127 0.912 1_455 S
C2109 H2085 0.950 1_455 S
C2109 C2108 1.524 . S
C2109 C2110 1.415 . S
C2110 H2086 0.950 . S
C2110 C2105 1.363 . S
C2110 C2109 1.415 . S
C2111 H2087 0.951 . S
C2111 C2112 1.366 . S
C2111 C2113 1.388 . S
C2112 C2111 1.366 . S
C2112 C2116 1.385 . S
C2113 H2088 0.951 . S
C2113 C2111 1.388 . S
C2113 C2114 1.366 . S
C2114 C2113 1.366 . S
C2114 C2115 1.414 . S
C2114 C2117 1.499 . S
C2115 H2089 0.950 . S
C2115 C2114 1.414 . S
C2115 C2116 1.374 . S
C2116 H2090 0.950 . S
C2116 C2112 1.385 . S
C2116 C2115 1.374 . S
C2117 C2114 1.499 . S
C2117 C2118 1.373 . S
C2117 C2119 1.389 . S
C2118 H2091 0.950 . S
C2118 C2104 1.377 . S
C2118 C2117 1.373 . S
C2119 C2103 1.377 . S
C2119 C2117 1.389 . S
C2119 C2120 1.524 . S
C2120 C2119 1.524 . S
C2120 C2121 1.397 . S
C2120 C2125 1.363 . S
C2121 H2092 0.950 . S
C2121 C2120 1.397 . S
C2121 C2122 1.334 . S
C2122 H2093 0.950 . S
C2122 C2121 1.334 . S
C2122 C2123 1.287 . S
C2123 C2122 1.287 . S
C2123 C2124 1.524 . S
C2123 H2126 0.999 . S
C2124 H2094 0.950 . S
C2124 C2123 1.524 . S
C2124 C2125 1.415 . S
C2125 H2095 0.950 . S
C2125 C2120 1.363 . S
C2125 C2124 1.415 . S
H2126 C2123 0.999 . S
H2127 C2108 0.912 1_655 S
H2128 C2146 0.951 . S
H2129 C2148 0.951 . S
H2130 C2150 0.950 . S
H2131 C2151 0.950 . S
H2132 C2153 0.950 . S
H2133 C2156 0.950 . S
H2134 C2157 0.950 . S
H2135 C2159 0.950 . S
H2136 C2160 0.950 . S
H2137 C2161 0.951 . S
H2138 C2163 0.951 . S
H2139 C2165 0.950 . S
H2140 C2166 0.950 . S
H2141 C2168 0.950 . S
H2142 C2171 0.950 . S
H2143 C2172 0.950 . S
H2144 C2174 0.950 . S
H2145 C2175 0.950 . S
C2146 H2128 0.951 . S
C2146 C2147 1.366 . S
C2146 C2148 1.388 . S
C2147 C2146 1.366 . S
C2147 C2151 1.385 1_545 S
C2148 H2129 0.951 . S
C2148 C2146 1.388 . S
C2148 C2149 1.366 . S
C2149 C2148 1.366 . S
C2149 C2150 1.414 1_545 S
C2149 C2152 1.499 . S
C2150 H2130 0.950 . S
C2150 C2149 1.414 1_565 S
C2150 C2151 1.374 . S
C2151 H2131 0.950 . S
C2151 C2147 1.385 1_565 S
C2151 C2150 1.374 . S
C2152 C2149 1.499 . S
C2152 C2153 1.373 . S
C2152 C2154 1.389 1_545 S
C2153 H2132 0.950 . S
C2153 C2152 1.373 . S
C2153 C2169 1.377 . S
C2154 C2152 1.389 1_565 S
C2154 C2155 1.524 . S
C2154 C2168 1.377 . S
C2155 C2154 1.524 . S
C2155 C2156 1.397 . S
C2155 C2160 1.363 . S
C2156 H2133 0.950 . S
C2156 C2155 1.397 . S
C2156 C2157 1.334 . S
C2157 H2134 0.950 . S
C2157 C2156 1.334 . S
C2157 C2158 1.287 . S
C2158 C2157 1.287 . S
C2158 C2159 1.524 . S
C2158 H2177 0.913 . S
C2159 H2135 0.950 . S
C2159 C2158 1.524 . S
C2159 C2160 1.415 . S
C2160 H2136 0.950 . S
C2160 C2155 1.363 . S
C2160 C2159 1.415 . S
C2161 H2137 0.951 . S
C2161 C2162 1.366 1_565 S
C2161 C2163 1.388 . S
C2162 C2161 1.366 1_545 S
C2162 C2166 1.385 . S
C2163 H2138 0.951 . S
C2163 C2161 1.388 . S
C2163 C2164 1.366 1_565 S
C2164 C2163 1.366 1_545 S
C2164 C2165 1.414 . S
C2164 C2167 1.499 . S
C2165 H2139 0.950 . S
C2165 C2164 1.414 . S
C2165 C2166 1.374 . S
C2166 H2140 0.950 . S
C2166 C2162 1.385 . S
C2166 C2165 1.374 . S
C2167 C2164 1.499 . S
C2167 C2168 1.373 1_545 S
C2167 C2169 1.389 . S
C2168 H2141 0.950 . S
C2168 C2154 1.377 . S
C2168 C2167 1.373 1_565 S
C2169 C2153 1.377 . S
C2169 C2167 1.389 . S
C2169 C2170 1.524 . S
C2170 C2169 1.524 . S
C2170 C2171 1.397 . S
C2170 C2175 1.363 . S
C2171 H2142 0.950 . S
C2171 C2170 1.397 . S
C2171 C2172 1.334 . S
C2172 H2143 0.950 . S
C2172 C2171 1.334 . S
C2172 C2173 1.287 . S
C2173 C2172 1.287 . S
C2173 C2174 1.524 . S
C2173 H2176 0.999 . S
C2174 H2144 0.950 . S
C2174 C2173 1.524 . S
C2174 C2175 1.415 . S
C2175 H2145 0.950 . S
C2175 C2170 1.363 . S
C2175 C2174 1.415 . S
H2176 C2173 0.999 . S
H2177 C2158 0.913 . S
H2178 C2196 0.951 . S
H2179 C2198 0.951 . S
H2180 C2200 0.950 . S
H2181 C2201 0.950 . S
H2182 C2203 0.950 . S
H2183 C2206 0.950 1_554 S
H2184 C2207 0.950 . S
H2185 C2209 0.950 . S
H2186 C2210 0.950 . S
H2187 C2211 0.951 . S
H2188 C2213 0.951 . S
H2189 C2215 0.950 . S
H2190 C2216 0.950 . S
H2191 C2218 0.950 . S
H2192 C2221 0.950 . S
H2193 C2222 0.950 . S
H2194 C2224 0.950 . S
H2195 C2225 0.950 . S
C2196 H2178 0.951 . S
C2196 C2197 1.366 . S
C2196 C2198 1.388 . S
C2197 C2196 1.366 . S
C2197 C2201 1.385 . S
C2198 H2179 0.951 . S
C2198 C2196 1.388 . S
C2198 C2199 1.366 . S
C2199 C2198 1.366 . S
C2199 C2200 1.414 . S
C2199 C2202 1.499 . S
C2200 H2180 0.950 . S
C2200 C2199 1.414 . S
C2200 C2201 1.374 . S
C2201 H2181 0.950 . S
C2201 C2197 1.385 . S
C2201 C2200 1.374 . S
C2202 C2199 1.499 . S
C2202 C2203 1.373 . S
C2202 C2204 1.389 . S
C2203 H2182 0.950 . S
C2203 C2202 1.373 . S
C2203 C2219 1.377 . S
C2204 C2202 1.389 . S
C2204 C2205 1.524 . S
C2204 C2218 1.377 . S
C2205 C2204 1.524 . S
C2205 C2206 1.397 . S
C2205 C2210 1.363 . S
C2206 H2183 0.950 1_556 S
C2206 C2205 1.397 . S
C2206 C2207 1.334 1_556 S
C2207 H2184 0.950 . S
C2207 C2206 1.334 1_554 S
C2207 C2208 1.287 1_554 S
C2208 C2207 1.287 1_556 S
C2208 C2209 1.524 . S
C2208 H2227 0.913 1_556 S
C2209 H2185 0.950 . S
C2209 C2208 1.524 . S
C2209 C2210 1.415 . S
C2210 H2186 0.950 . S
C2210 C2205 1.363 . S
C2210 C2209 1.415 . S
C2211 H2187 0.951 . S
C2211 C2212 1.366 . S
C2211 C2213 1.388 . S
C2212 C2211 1.366 . S
C2212 C2216 1.385 . S
C2213 H2188 0.951 . S
C2213 C2211 1.388 . S
C2213 C2214 1.366 . S
C2214 C2213 1.366 . S
C2214 C2215 1.414 . S
C2214 C2217 1.499 . S
C2215 H2189 0.950 . S
C2215 C2214 1.414 . S
C2215 C2216 1.374 . S
C2216 H2190 0.950 . S
C2216 C2212 1.385 . S
C2216 C2215 1.374 . S
C2217 C2214 1.499 . S
C2217 C2218 1.373 . S
C2217 C2219 1.389 . S
C2218 H2191 0.950 . S
C2218 C2204 1.377 . S
C2218 C2217 1.373 . S
C2219 C2203 1.377 . S
C2219 C2217 1.389 . S
C2219 C2220 1.524 . S
C2220 C2219 1.524 . S
C2220 C2221 1.397 . S
C2220 C2225 1.363 . S
C2221 H2192 0.950 . S
C2221 C2220 1.397 . S
C2221 C2222 1.334 . S
C2222 H2193 0.950 . S
C2222 C2221 1.334 . S
C2222 C2223 1.287 . S
C2223 C2222 1.287 . S
C2223 C2224 1.524 . S
C2223 H2226 0.999 . S
C2224 H2194 0.950 . S
C2224 C2223 1.524 . S
C2224 C2225 1.415 . S
C2225 H2195 0.950 . S
C2225 C2220 1.363 . S
C2225 C2224 1.415 . S
H2226 C2223 0.999 . S
H2227 C2208 0.913 1_554 S
H2228 C2246 0.951 . S
H2229 C2248 0.951 . S
H2230 C2250 0.950 . S
H2231 C2251 0.950 . S
H2232 C2253 0.950 . S
H2233 C2256 0.950 . S
H2234 C2257 0.950 . S
H2235 C2259 0.950 . S
H2236 C2260 0.950 . S
H2237 C2261 0.951 . S
H2238 C2263 0.951 . S
H2239 C2265 0.950 . S
H2240 C2266 0.950 . S
H2241 C2268 0.950 . S
H2242 C2271 0.950 . S
H2243 C2272 0.950 . S
H2244 C2274 0.950 . S
H2245 C2275 0.950 . S
C2246 H2228 0.951 . S
C2246 C2247 1.366 . S
C2246 C2248 1.388 . S
C2247 C2246 1.366 . S
C2247 C2251 1.385 . S
C2248 H2229 0.951 . S
C2248 C2246 1.388 . S
C2248 C2249 1.366 . S
C2249 C2248 1.366 . S
C2249 C2250 1.414 . S
C2249 C2252 1.499 . S
C2250 H2230 0.950 . S
C2250 C2249 1.414 . S
C2250 C2251 1.374 . S
C2251 H2231 0.950 . S
C2251 C2247 1.385 . S
C2251 C2250 1.374 . S
C2252 C2249 1.499 . S
C2252 C2253 1.373 . S
C2252 C2254 1.389 . S
C2253 H2232 0.950 . S
C2253 C2252 1.373 . S
C2253 C2269 1.377 . S
C2254 C2252 1.389 . S
C2254 C2255 1.524 . S
C2254 C2268 1.377 . S
C2255 C2254 1.524 . S
C2255 C2256 1.397 . S
C2255 C2260 1.363 . S
C2256 H2233 0.950 . S
C2256 C2255 1.397 . S
C2256 C2257 1.334 . S
C2257 H2234 0.950 . S
C2257 C2256 1.334 . S
C2257 C2258 1.287 . S
C2258 C2257 1.287 . S
C2258 C2259 1.524 . S
C2258 H2277 0.913 . S
C2259 H2235 0.950 . S
C2259 C2258 1.524 . S
C2259 C2260 1.415 . S
C2260 H2236 0.950 . S
C2260 C2255 1.363 . S
C2260 C2259 1.415 . S
C2261 H2237 0.951 . S
C2261 C2262 1.366 . S
C2261 C2263 1.388 . S
C2262 C2261 1.366 . S
C2262 C2266 1.385 . S
C2263 H2238 0.951 . S
C2263 C2261 1.388 . S
C2263 C2264 1.366 . S
C2264 C2263 1.366 . S
C2264 C2265 1.414 . S
C2264 C2267 1.499 . S
C2265 H2239 0.950 . S
C2265 C2264 1.414 . S
C2265 C2266 1.374 . S
C2266 H2240 0.950 . S
C2266 C2262 1.385 . S
C2266 C2265 1.374 . S
C2267 C2264 1.499 . S
C2267 C2268 1.373 . S
C2267 C2269 1.389 . S
C2268 H2241 0.950 . S
C2268 C2254 1.377 . S
C2268 C2267 1.373 . S
C2269 C2253 1.377 . S
C2269 C2267 1.389 . S
C2269 C2270 1.524 . S
C2270 C2269 1.524 . S
C2270 C2271 1.397 . S
C2270 C2275 1.363 . S
C2271 H2242 0.950 . S
C2271 C2270 1.397 . S
C2271 C2272 1.334 . S
C2272 H2243 0.950 . S
C2272 C2271 1.334 . S
C2272 C2273 1.287 . S
C2273 C2272 1.287 . S
C2273 C2274 1.524 . S
C2273 H2276 0.999 . S
C2274 H2244 0.950 . S
C2274 C2273 1.524 . S
C2274 C2275 1.415 . S
C2275 H2245 0.950 . S
C2275 C2270 1.363 . S
C2275 C2274 1.415 . S
H2276 C2273 0.999 . S
H2277 C2258 0.913 . S
H2278 C2296 0.951 . S
H2279 C2298 0.951 . S
H2280 C2300 0.950 . S
H2281 C2301 0.950 . S
H2282 C2303 0.950 . S
H2283 C2306 0.950 . S
H2284 C2307 0.950 . S
H2285 C2309 0.950 . S
H2286 C2310 0.950 . S
H2287 C2311 0.951 . S
H2288 C2313 0.951 . S
H2289 C2315 0.950 . S
H2290 C2316 0.950 . S
H2291 C2318 0.950 . S
H2292 C2321 0.950 . S
H2293 C2322 0.950 . S
H2294 C2324 0.950 . S
H2295 C2325 0.950 . S
C2296 H2278 0.951 . S
C2296 C2297 1.366 1_655 S
C2296 C2298 1.388 . S
C2297 C2296 1.366 1_455 S
C2297 C2301 1.385 . S
C2298 H2279 0.951 . S
C2298 C2296 1.388 . S
C2298 C2299 1.366 1_655 S
C2299 C2298 1.366 1_455 S
C2299 C2300 1.414 . S
C2299 C2302 1.499 . S
C2300 H2280 0.950 . S
C2300 C2299 1.414 . S
C2300 C2301 1.374 . S
C2301 H2281 0.950 . S
C2301 C2297 1.385 . S
C2301 C2300 1.374 . S
C2302 C2299 1.499 . S
C2302 C2303 1.373 . S
C2302 C2304 1.389 1_455 S
C2303 H2282 0.950 . S
C2303 C2302 1.373 . S
C2303 C2319 1.377 . S
C2304 C2302 1.389 1_655 S
C2304 C2305 1.524 1_556 S
C2304 C2318 1.377 . S
C2305 C2304 1.524 1_554 S
C2305 C2306 1.397 1_655 S
C2305 C2310 1.363 . S
C2306 H2283 0.950 . S
C2306 C2305 1.397 1_455 S
C2306 C2307 1.334 . S
C2307 H2284 0.950 . S
C2307 C2306 1.334 . S
C2307 C2308 1.287 1_455 S
C2308 C2307 1.287 1_655 S
C2308 C2309 1.524 . S
C2308 H2327 0.913 . S
C2309 H2285 0.950 . S
C2309 C2308 1.524 . S
C2309 C2310 1.415 . S
C2310 H2286 0.950 . S
C2310 C2305 1.363 . S
C2310 C2309 1.415 . S
C2311 H2287 0.951 . S
C2311 C2312 1.366 . S
C2311 C2313 1.388 . S
C2312 C2311 1.366 . S
C2312 C2316 1.385 1_455 S
C2313 H2288 0.951 . S
C2313 C2311 1.388 . S
C2313 C2314 1.366 . S
C2314 C2313 1.366 . S
C2314 C2315 1.414 1_455 S
C2314 C2317 1.499 . S
C2315 H2289 0.950 . S
C2315 C2314 1.414 1_655 S
C2315 C2316 1.374 . S
C2316 H2290 0.950 . S
C2316 C2312 1.385 1_655 S
C2316 C2315 1.374 . S
C2317 C2314 1.499 . S
C2317 C2318 1.373 1_455 S
C2317 C2319 1.389 . S
C2318 H2291 0.950 . S
C2318 C2304 1.377 . S
C2318 C2317 1.373 1_655 S
C2319 C2303 1.377 . S
C2319 C2317 1.389 . S
C2319 C2320 1.524 . S
C2320 C2319 1.524 . S
C2320 C2321 1.397 1_455 S
C2320 C2325 1.363 . S
C2321 H2292 0.950 . S
C2321 C2320 1.397 1_655 S
C2321 C2322 1.334 . S
C2322 H2293 0.950 . S
C2322 C2321 1.334 . S
C2322 C2323 1.287 1_655 S
C2323 C2322 1.287 1_455 S
C2323 C2324 1.524 . S
C2323 H2326 0.999 . S
C2324 H2294 0.950 . S
C2324 C2323 1.524 . S
C2324 C2325 1.415 . S
C2325 H2295 0.950 . S
C2325 C2320 1.363 . S
C2325 C2324 1.415 . S
H2326 C2323 0.999 . S
H2327 C2308 0.913 . S
H2328 C2346 0.951 . S
H2329 C2348 0.951 . S
H2330 C2350 0.950 . S
H2331 C2351 0.950 . S
H2332 C2353 0.950 . S
H2333 C2356 0.950 . S
H2334 C2357 0.950 . S
H2335 C2359 0.950 . S
H2336 C2360 0.950 . S
H2337 C2361 0.951 . S
H2338 C2363 0.951 . S
H2339 C2365 0.950 . S
H2340 C2366 0.950 . S
H2341 C2368 0.950 . S
H2342 C2371 0.950 . S
H2343 C2372 0.950 . S
H2344 C2374 0.950 . S
H2345 C2375 0.950 . S
C2346 H2328 0.951 . S
C2346 C2347 1.366 1_545 S
C2346 C2348 1.388 . S
C2347 C2346 1.366 1_565 S
C2347 C2351 1.385 . S
C2348 H2329 0.951 . S
C2348 C2346 1.388 . S
C2348 C2349 1.366 1_545 S
C2349 C2348 1.366 1_565 S
C2349 C2350 1.414 . S
C2349 C2352 1.499 . S
C2350 H2330 0.950 . S
C2350 C2349 1.414 . S
C2350 C2351 1.374 . S
C2351 H2331 0.950 . S
C2351 C2347 1.385 . S
C2351 C2350 1.374 . S
C2352 C2349 1.499 . S
C2352 C2353 1.373 1_565 S
C2352 C2354 1.389 . S
C2353 H2332 0.950 . S
C2353 C2352 1.373 1_545 S
C2353 C2369 1.377 . S
C2354 C2352 1.389 . S
C2354 C2355 1.524 . S
C2354 C2368 1.377 . S
C2355 C2354 1.524 . S
C2355 C2356 1.397 . S
C2355 C2360 1.363 . S
C2356 H2333 0.950 . S
C2356 C2355 1.397 . S
C2356 C2357 1.334 . S
C2357 H2334 0.950 . S
C2357 C2356 1.334 . S
C2357 C2358 1.287 . S
C2358 C2357 1.287 . S
C2358 C2359 1.524 . S
C2358 H2377 0.913 . S
C2359 H2335 0.950 . S
C2359 C2358 1.524 . S
C2359 C2360 1.415 . S
C2360 H2336 0.950 . S
C2360 C2355 1.363 . S
C2360 C2359 1.415 . S
C2361 H2337 0.951 . S
C2361 C2362 1.366 . S
C2361 C2363 1.388 . S
C2362 C2361 1.366 . S
C2362 C2366 1.385 1_565 S
C2363 H2338 0.951 . S
C2363 C2361 1.388 . S
C2363 C2364 1.366 . S
C2364 C2363 1.366 . S
C2364 C2365 1.414 1_565 S
C2364 C2367 1.499 . S
C2365 H2339 0.950 . S
C2365 C2364 1.414 1_545 S
C2365 C2366 1.374 . S
C2366 H2340 0.950 . S
C2366 C2362 1.385 1_545 S
C2366 C2365 1.374 . S
C2367 C2364 1.499 . S
C2367 C2368 1.373 . S
C2367 C2369 1.389 1_565 S
C2368 H2341 0.950 . S
C2368 C2354 1.377 . S
C2368 C2367 1.373 . S
C2369 C2353 1.377 . S
C2369 C2367 1.389 1_545 S
C2369 C2370 1.524 . S
C2370 C2369 1.524 . S
C2370 C2371 1.397 . S
C2370 C2375 1.363 . S
C2371 H2342 0.950 . S
C2371 C2370 1.397 . S
C2371 C2372 1.334 . S
C2372 H2343 0.950 . S
C2372 C2371 1.334 . S
C2372 C2373 1.287 . S
C2373 C2372 1.287 . S
C2373 C2374 1.524 . S
C2373 H2376 0.999 . S
C2374 H2344 0.950 . S
C2374 C2373 1.524 . S
C2374 C2375 1.415 . S
C2375 H2345 0.950 . S
C2375 C2370 1.363 . S
C2375 C2374 1.415 . S
H2376 C2373 0.999 . S
H2377 C2358 0.913 . S
H2378 C2396 0.951 . S
H2379 C2398 0.951 . S
H2380 C2400 0.950 . S
H2381 C2401 0.950 . S
H2382 C2403 0.950 . S
H2383 C2406 0.950 . S
H2384 C2407 0.950 . S
H2385 C2409 0.950 . S
H2386 C2410 0.950 . S
H2387 C2411 0.951 . S
H2388 C2413 0.951 . S
H2389 C2415 0.950 . S
H2390 C2416 0.950 . S
H2391 C2418 0.950 . S
H2392 C2421 0.950 . S
H2393 C2422 0.950 . S
H2394 C2424 0.950 . S
H2395 C2425 0.950 . S
C2396 H2378 0.951 . S
C2396 C2397 1.366 . S
C2396 C2398 1.388 . S
C2397 C2396 1.366 . S
C2397 C2401 1.385 . S
C2398 H2379 0.951 . S
C2398 C2396 1.388 . S
C2398 C2399 1.366 . S
C2399 C2398 1.366 . S
C2399 C2400 1.414 . S
C2399 C2402 1.499 . S
C2400 H2380 0.950 . S
C2400 C2399 1.414 . S
C2400 C2401 1.374 . S
C2401 H2381 0.950 . S
C2401 C2397 1.385 . S
C2401 C2400 1.374 . S
C2402 C2399 1.499 . S
C2402 C2403 1.373 . S
C2402 C2404 1.389 . S
C2403 H2382 0.950 . S
C2403 C2402 1.373 . S
C2403 C2419 1.377 . S
C2404 C2402 1.389 . S
C2404 C2405 1.524 1_554 S
C2404 C2418 1.377 . S
C2405 C2404 1.524 1_556 S
C2405 C2406 1.397 . S
C2405 C2410 1.363 . S
C2406 H2383 0.950 . S
C2406 C2405 1.397 . S
C2406 C2407 1.334 . S
C2407 H2384 0.950 . S
C2407 C2406 1.334 . S
C2407 C2408 1.287 . S
C2408 C2407 1.287 . S
C2408 C2409 1.524 . S
C2408 H2427 0.913 . S
C2409 H2385 0.950 . S
C2409 C2408 1.524 . S
C2409 C2410 1.415 . S
C2410 H2386 0.950 . S
C2410 C2405 1.363 . S
C2410 C2409 1.415 . S
C2411 H2387 0.951 . S
C2411 C2412 1.366 . S
C2411 C2413 1.388 . S
C2412 C2411 1.366 . S
C2412 C2416 1.385 . S
C2413 H2388 0.951 . S
C2413 C2411 1.388 . S
C2413 C2414 1.366 . S
C2414 C2413 1.366 . S
C2414 C2415 1.414 . S
C2414 C2417 1.499 . S
C2415 H2389 0.950 . S
C2415 C2414 1.414 . S
C2415 C2416 1.374 . S
C2416 H2390 0.950 . S
C2416 C2412 1.385 . S
C2416 C2415 1.374 . S
C2417 C2414 1.499 . S
C2417 C2418 1.373 . S
C2417 C2419 1.389 . S
C2418 H2391 0.950 . S
C2418 C2404 1.377 . S
C2418 C2417 1.373 . S
C2419 C2403 1.377 . S
C2419 C2417 1.389 . S
C2419 C2420 1.524 . S
C2420 C2419 1.524 . S
C2420 C2421 1.397 . S
C2420 C2425 1.363 . S
C2421 H2392 0.950 . S
C2421 C2420 1.397 . S
C2421 C2422 1.334 . S
C2422 H2393 0.950 . S
C2422 C2421 1.334 . S
C2422 C2423 1.287 . S
C2423 C2422 1.287 . S
C2423 C2424 1.524 . S
C2423 H2426 0.999 . S
C2424 H2394 0.950 . S
C2424 C2423 1.524 . S
C2424 C2425 1.415 . S
C2425 H2395 0.950 . S
C2425 C2420 1.363 . S
C2425 C2424 1.415 . S
H2426 C2423 0.999 . S
H2427 C2408 0.913 . S
H2428 C2446 0.951 . S
H2429 C2448 0.951 . S
H2430 C2450 0.950 . S
H2431 C2451 0.950 . S
H2432 C2453 0.950 . S
H2433 C2456 0.950 . S
H2434 C2457 0.950 . S
H2435 C2459 0.950 . S
H2436 C2460 0.950 . S
H2437 C2461 0.951 . S
H2438 C2463 0.951 . S
H2439 C2465 0.950 . S
H2440 C2466 0.950 . S
H2441 C2468 0.950 . S
H2442 C2471 0.950 . S
H2443 C2472 0.950 . S
H2444 C2474 0.950 . S
H2445 C2475 0.950 . S
C2446 H2428 0.951 . S
C2446 C2447 1.366 . S
C2446 C2448 1.388 . S
C2447 C2446 1.366 . S
C2447 C2451 1.385 . S
C2448 H2429 0.951 . S
C2448 C2446 1.388 . S
C2448 C2449 1.366 . S
C2449 C2448 1.366 . S
C2449 C2450 1.414 . S
C2449 C2452 1.499 . S
C2450 H2430 0.950 . S
C2450 C2449 1.414 . S
C2450 C2451 1.374 . S
C2451 H2431 0.950 . S
C2451 C2447 1.385 . S
C2451 C2450 1.374 . S
C2452 C2449 1.499 . S
C2452 C2453 1.373 . S
C2452 C2454 1.389 . S
C2453 H2432 0.950 . S
C2453 C2452 1.373 . S
C2453 C2469 1.377 . S
C2454 C2452 1.389 . S
C2454 C2455 1.524 . S
C2454 C2468 1.377 . S
C2455 C2454 1.524 . S
C2455 C2456 1.397 . S
C2455 C2460 1.363 . S
C2456 H2433 0.950 . S
C2456 C2455 1.397 . S
C2456 C2457 1.334 . S
C2457 H2434 0.950 . S
C2457 C2456 1.334 . S
C2457 C2458 1.287 . S
C2458 C2457 1.287 . S
C2458 C2459 1.524 . S
C2458 H2477 0.913 . S
C2459 H2435 0.950 . S
C2459 C2458 1.524 . S
C2459 C2460 1.415 . S
C2460 H2436 0.950 . S
C2460 C2455 1.363 . S
C2460 C2459 1.415 . S
C2461 H2437 0.951 . S
C2461 C2462 1.366 . S
C2461 C2463 1.388 . S
C2462 C2461 1.366 . S
C2462 C2466 1.385 . S
C2463 H2438 0.951 . S
C2463 C2461 1.388 . S
C2463 C2464 1.366 . S
C2464 C2463 1.366 . S
C2464 C2465 1.414 . S
C2464 C2467 1.499 . S
C2465 H2439 0.950 . S
C2465 C2464 1.414 . S
C2465 C2466 1.374 . S
C2466 H2440 0.950 . S
C2466 C2462 1.385 . S
C2466 C2465 1.374 . S
C2467 C2464 1.499 . S
C2467 C2468 1.373 . S
C2467 C2469 1.389 . S
C2468 H2441 0.950 . S
C2468 C2454 1.377 . S
C2468 C2467 1.373 . S
C2469 C2453 1.377 . S
C2469 C2467 1.389 . S
C2469 C2470 1.524 . S
C2470 C2469 1.524 . S
C2470 C2471 1.397 . S
C2470 C2475 1.363 . S
C2471 H2442 0.950 . S
C2471 C2470 1.397 . S
C2471 C2472 1.334 . S
C2472 H2443 0.950 . S
C2472 C2471 1.334 . S
C2472 C2473 1.287 . S
C2473 C2472 1.287 . S
C2473 C2474 1.524 . S
C2473 H2476 0.999 . S
C2474 H2444 0.950 . S
C2474 C2473 1.524 . S
C2474 C2475 1.415 . S
C2475 H2445 0.950 . S
C2475 C2470 1.363 . S
C2475 C2474 1.415 . S
H2476 C2473 0.999 . S
H2477 C2458 0.913 . S
H2478 C2496 0.951 . S
H2479 C2498 0.951 . S
H2480 C2500 0.950 . S
H2481 C2501 0.950 . S
H2482 C2503 0.950 . S
H2483 C2506 0.950 . S
H2484 C2507 0.950 . S
H2485 C2509 0.950 . S
H2486 C2510 0.950 . S
H2487 C2511 0.951 . S
H2488 C2513 0.951 . S
H2489 C2515 0.950 . S
H2490 C2516 0.950 . S
H2491 C2518 0.950 . S
H2492 C2521 0.950 . S
H2493 C2522 0.950 . S
H2494 C2524 0.950 . S
H2495 C2525 0.950 . S
C2496 H2478 0.951 . S
C2496 C2497 1.366 . S
C2496 C2498 1.388 . S
C2497 C2496 1.366 . S
C2497 C2501 1.385 1_655 S
C2498 H2479 0.951 . S
C2498 C2496 1.388 . S
C2498 C2499 1.366 . S
C2499 C2498 1.366 . S
C2499 C2500 1.414 1_655 S
C2499 C2502 1.499 . S
C2500 H2480 0.950 . S
C2500 C2499 1.414 1_455 S
C2500 C2501 1.374 . S
C2501 H2481 0.950 . S
C2501 C2497 1.385 1_455 S
C2501 C2500 1.374 . S
C2502 C2499 1.499 . S
C2502 C2503 1.373 1_655 S
C2502 C2504 1.389 . S
C2503 H2482 0.950 . S
C2503 C2502 1.373 1_455 S
C2503 C2519 1.377 . S
C2504 C2502 1.389 . S
C2504 C2505 1.524 . S
C2504 C2518 1.377 . S
C2505 C2504 1.524 . S
C2505 C2506 1.397 1_554 S
C2505 C2510 1.363 . S
C2506 H2483 0.950 . S
C2506 C2505 1.397 1_556 S
C2506 C2507 1.334 . S
C2507 H2484 0.950 . S
C2507 C2506 1.334 . S
C2507 C2508 1.287 . S
C2508 C2507 1.287 . S
C2508 C2509 1.524 . S
C2508 H2527 0.913 . S
C2509 H2485 0.950 . S
C2509 C2508 1.524 . S
C2509 C2510 1.415 1_556 S
C2510 H2486 0.950 . S
C2510 C2505 1.363 . S
C2510 C2509 1.415 1_554 S
C2511 H2487 0.951 . S
C2511 C2512 1.366 1_455 S
C2511 C2513 1.388 . S
C2512 C2511 1.366 1_655 S
C2512 C2516 1.385 . S
C2513 H2488 0.951 . S
C2513 C2511 1.388 . S
C2513 C2514 1.366 1_455 S
C2514 C2513 1.366 1_655 S
C2514 C2515 1.414 . S
C2514 C2517 1.499 . S
C2515 H2489 0.950 . S
C2515 C2514 1.414 . S
C2515 C2516 1.374 . S
C2516 H2490 0.950 . S
C2516 C2512 1.385 . S
C2516 C2515 1.374 . S
C2517 C2514 1.499 . S
C2517 C2518 1.373 . S
C2517 C2519 1.389 1_655 S
C2518 H2491 0.950 . S
C2518 C2504 1.377 . S
C2518 C2517 1.373 . S
C2519 C2503 1.377 . S
C2519 C2517 1.389 1_455 S
C2519 C2520 1.524 . S
C2520 C2519 1.524 . S
C2520 C2521 1.397 . S
C2520 C2525 1.363 . S
C2521 H2492 0.950 . S
C2521 C2520 1.397 . S
C2521 C2522 1.334 . S
C2522 H2493 0.950 . S
C2522 C2521 1.334 . S
C2522 C2523 1.287 . S
C2523 C2522 1.287 . S
C2523 C2524 1.524 . S
C2523 H2526 0.999 . S
C2524 H2494 0.950 . S
C2524 C2523 1.524 . S
C2524 C2525 1.415 . S
C2525 H2495 0.950 . S
C2525 C2520 1.363 . S
C2525 C2524 1.415 . S
H2526 C2523 0.999 . S
H2527 C2508 0.913 . S
C547 C282 0.557 1_545 S
C562 C18 0.557 1_565 S
C597 C51 0.560 . S
C612 C315 0.560 . S
C647 C348 0.560 . S
C662 C84 0.560 . S
C697 C381 0.559 1_455 S
C712 C117 0.558 1_655 S
C747 C150 0.556 1_545 S
C762 C414 0.556 1_565 S
C797 C183 0.556 . S
C812 C447 0.556 . S
C847 C216 0.558 . S
C862 C480 0.558 . S
C897 C249 0.556 1_455 S
C912 C513 0.556 1_655 S
C947 C7 1.687 . S
C962 N508 1.751 . S
C997 C40 1.687 . S
C1012 N409 1.751 . S
C1047 C73 1.687 . S
C1062 N442 1.751 . S
C1097 N475 1.751 . S
C1112 C106 1.686 . S
C1147 C139 1.687 . S
C1162 N310 1.751 . S
C1197 C172 1.686 . S
C1212 N343 1.751 . S
C1247 N376 1.751 . S
C1262 C205 1.687 . S
C1297 C238 1.687 . S
C1312 N277 1.751 . S
C1347 N244 1.751 . S
C1362 C271 1.686 . S
C1397 N145 1.751 . S
C1412 C304 1.687 . S
C1447 N178 1.751 . S
C1462 C337 1.686 . S
C1497 C370 1.687 . S
C1512 N211 1.751 . S
C1547 N46 1.751 . S
C1562 C403 1.687 . S
C1597 C436 1.687 . S
C1612 N79 1.751 . S
C1647 N112 1.751 . S
C1662 C469 1.687 . S
C1697 N13 1.751 . S
C1712 C502 1.686 . S
C1747 N233 0.630 . S
C1762 N2 0.628 . S
C1797 N134 0.629 . S
C1812 N35 0.628 . S
C1847 N68 0.631 . S
C1862 N167 0.631 . S
C1897 N200 0.629 . S
C1912 N101 0.628 . S
C1947 N497 0.631 . S
C1962 N266 0.631 . S
C1997 N299 0.628 . S
C2012 N398 0.630 . S
C2047 N332 0.630 . S
C2062 N431 0.631 . S
C2097 N365 0.627 . S
C2112 N464 0.628 . S
C2147 C21 0.891 . S
C2162 C417 0.891 . S
C2197 C54 0.890 . S
C2212 C450 0.891 . S
C2247 C87 0.891 . S
C2262 C483 0.891 . S
C2297 C120 0.891 . S
C2312 C516 0.891 . S
C2347 C153 0.891 . S
C2362 C285 0.891 . S
C2397 C186 0.891 . S
C2412 C318 0.891 . S
C2447 C219 0.891 . S
C2462 C351 0.891 . S
C2497 C384 0.891 . S
C2512 C252 0.891 . S
