# Generated by pormake.
# Topology rob, (6)-cn, num edge types: 1
# Building blocks:
#     Node 0, Type 0, BuildingBlock: JUFBIX_clean_sbu_0, # of connection points: 6
#     Node 1, Type 0, BuildingBlock: JUFBIX_clean_sbu_0, # of connection points: 6
#     Node 2, Type 0, BuildingBlock: JUFBIX_clean_sbu_0, # of connection points: 6
#     Node 3, Type 0, BuildingBlock: JUFBIX_clean_sbu_0, # of connection points: 6
#     Edge 4, Type (0, 0), BuildingBlock: FUNLAD_clean_linker_0, # of connection points: 2
#     Edge 5, Type (0, 0), BuildingBlock: FUNLAD_clean_linker_0, # of connection points: 2
#     Edge 6, Type (0, 0), BuildingBlock: FUNLAD_clean_linker_0, # of connection points: 2
#     Edge 7, Type (0, 0), BuildingBlock: FUNLAD_clean_linker_0, # of connection points: 2
#     Edge 8, Type (0, 0), BuildingBlock: FUNLAD_clean_linker_0, # of connection points: 2
#     Edge 9, Type (0, 0), BuildingBlock: FUNLAD_clean_linker_0, # of connection points: 2
#     Edge 10, Type (0, 0), BuildingBlock: FUNLAD_clean_linker_0, # of connection points: 2
#     Edge 11, Type (0, 0), BuildingBlock: FUNLAD_clean_linker_0, # of connection points: 2
#     Edge 12, Type (0, 0), BuildingBlock: FUNLAD_clean_linker_0, # of connection points: 2
#     Edge 13, Type (0, 0), BuildingBlock: FUNLAD_clean_linker_0, # of connection points: 2
#     Edge 14, Type (0, 0), BuildingBlock: FUNLAD_clean_linker_0, # of connection points: 2
#     Edge 15, Type (0, 0), BuildingBlock: FUNLAD_clean_linker_0, # of connection points: 2
# Relax obj value: 0.342
# Max RMSD: 0.253
# Mean RMSD: 0.253
data_MOF--net-rob--node1-JUFBIX_clean_sbu_0--edge1-FUNLAD_clean_linker_0
_symmetry_space_group_name_H-M    P1
_symmetry_Int_Tables_number       1
_symmetry_cell_setting            triclinic
loop_
_symmetry_equiv_pos_as_xyz
'x, y, z'
_cell_length_a     19.548749
_cell_length_b     28.93109
_cell_length_c     32.430829
_cell_angle_alpha  95.271129
_cell_angle_beta   89.998088
_cell_angle_gamma 89.933206
loop_
_atom_site_label
_atom_site_type_symbol
_atom_site_fract_x
_atom_site_fract_y
_atom_site_fract_z
_atom_type_partial_charge
Co0 Co 0.22337 0.25502 0.98514 0.0
C1 C 0.19565 0.16406 0.00404 0.0
Co2 Co 0.30726 0.22024 0.01618 0.0
C3 C 0.13936 0.29572 0.92356 0.0
C4 C 0.08539 0.28644 0.97956 0.0
N5 N 0.14777 0.2817 0.96185 0.0
N6 N 0.07415 0.30881 0.91676 0.0
C7 C 0.04036 0.30319 0.95214 0.0
H8 H 0.17976 0.29493 0.90071 0.0
H9 H 0.07233 0.27615 0.0098 0.0
C10 C 0.33536 0.31114 -0.00223 0.0
N11 N 0.38288 0.19362 0.03965 0.0
C12 C 0.39223 0.18374 0.07916 0.0
C13 C 0.44469 0.18646 0.02162 0.0
N14 N 0.45753 0.17145 0.08659 0.0
C15 C 0.49037 0.17273 0.05021 0.0
C16 C 0.30964 0.20759 0.92956 0.0
O17 O 0.27523 0.31037 0.98264 0.0
O18 O 0.35802 0.27549 0.01347 0.0
O19 O 0.33884 0.19803 0.96267 0.0
O20 O 0.25607 0.23255 0.93192 0.0
O21 O 0.25595 0.16519 0.01881 0.0
H22 H 0.45729 0.19366 0.99039 0.0
H23 H 0.35261 0.18749 0.1025 0.0
O24 O 0.17243 0.19942 0.98803 0.0
O25 O 0.19177 0.2773 0.03838 0.0
O26 O 0.27409 0.24293 0.06954 0.0
C27 C 0.22056 0.26794 0.07163 0.0
H28 H 0.98595 0.30799 0.95705 0.0
H29 H 0.54471 0.16759 0.04527 0.0
Co30 Co 0.69823 0.76588 0.97371 0.0
C31 C 0.67275 0.67379 0.98937 0.0
Co32 Co 0.78266 0.73144 0.00458 0.0
C33 C 0.61367 0.80554 0.91154 0.0
C34 C 0.55989 0.79577 0.96748 0.0
N35 N 0.62247 0.79183 0.9499 0.0
N36 N 0.54805 0.8177 0.90464 0.0
C37 C 0.51443 0.81177 0.93999 0.0
H38 H 0.65403 0.805 0.88868 0.0
H39 H 0.54685 0.78521 -0.00238 0.0
C40 C 0.8078 0.82356 0.98843 0.0
N41 N 0.85701 0.70546 0.02983 0.0
C42 C 0.8604 0.69204 0.06858 0.0
C43 C 0.922 0.70292 0.01588 0.0
N44 N 0.92503 0.68227 0.07981 0.0
C45 C 0.9638 0.68864 0.04641 0.0
C46 C 0.7894 0.72138 0.91831 0.0
O47 O 0.74796 0.8219 0.97294 0.0
O48 O 0.83178 0.78804 0.00385 0.0
O49 O 0.81819 0.7112 0.95145 0.0
O50 O 0.7344 0.74502 0.92067 0.0
O51 O 0.73257 0.67503 0.00493 0.0
H52 H 0.93871 0.7136 0.98641 0.0
H53 H 0.81654 0.69142 0.08885 0.0
O54 O 0.64918 0.7097 0.97454 0.0
O55 O 0.66368 0.78658 0.02682 0.0
O56 O 0.74637 0.75224 0.0574 0.0
C57 C 0.69229 0.77653 0.05986 0.0
H58 H 0.45986 0.81561 0.9448 0.0
H59 H 0.01903 0.68642 0.04504 0.0
Co60 Co 0.20515 0.73846 0.50272 0.0
C61 C 0.18334 0.82959 0.4828 0.0
Co62 Co 0.29345 0.77104 0.47386 0.0
C63 C 0.11623 0.70278 0.56425 0.0
C64 C 0.0653 0.70885 0.50665 0.0
N65 N 0.12704 0.71366 0.52512 0.0
N66 N 0.05011 0.69201 0.57107 0.0
C67 C 0.01819 0.69548 0.53465 0.0
H68 H 0.15567 0.70436 0.58772 0.0
H69 H 0.05414 0.71709 0.4755 0.0
C70 C 0.31554 0.67995 0.49382 0.0
N71 N 0.37204 0.79623 0.45234 0.0
C72 C 0.38566 0.806 0.41322 0.0
C73 C 0.43154 0.80436 0.47289 0.0
N74 N 0.45124 0.81948 0.40863 0.0
C75 C 0.47987 0.81885 0.44634 0.0
C76 C 0.28995 0.78519 0.56007 0.0
O77 O 0.25402 0.68224 0.50674 0.0
O78 O 0.34178 0.71491 0.47874 0.0
O79 O 0.32138 0.79364 0.5275 0.0
O80 O 0.23584 0.76091 0.55686 0.0
O81 O 0.24442 0.82691 0.46922 0.0
H82 H 0.44064 0.79829 0.50481 0.0
H83 H 0.34926 0.80098 0.3881 0.0
O84 O 0.15725 0.79495 0.49847 0.0
O85 O 0.17589 0.71635 0.44819 0.0
O86 O 0.26408 0.74818 0.42021 0.0
C87 C 0.20931 0.72466 0.41606 0.0
H88 H 0.96379 0.69163 0.52921 0.0
H89 H 0.5326 0.82695 0.45409 0.0
Co90 Co 0.71808 0.24592 0.51898 0.0
C91 C 0.69867 0.33765 0.49958 0.0
Co92 Co 0.80484 0.27632 0.48712 0.0
C93 C 0.63161 0.20583 0.57941 0.0
C94 C 0.57708 0.22263 0.52556 0.0
N95 N 0.64025 0.22273 0.54232 0.0
N96 N 0.56547 0.1953 0.58639 0.0
C97 C 0.53124 0.20572 0.5524 0.0
H98 H 0.6728 0.20236 0.60121 0.0
H99 H 0.56455 0.23574 0.49631 0.0
C100 C 0.82414 0.18462 0.50645 0.0
N101 N 0.88301 0.29931 0.46347 0.0
C102 C 0.89361 0.30983 0.42424 0.0
C103 C 0.94524 0.30305 0.48149 0.0
N104 N 0.96001 0.31955 0.41707 0.0
C105 C 0.99234 0.31561 0.45325 0.0
C106 C 0.80843 0.28957 0.57392 0.0
O107 O 0.76414 0.18848 0.52156 0.0
O108 O 0.85052 0.21886 0.49035 0.0
O109 O 0.83794 0.29765 0.54049 0.0
O110 O 0.75269 0.26695 0.57215 0.0
O111 O 0.75842 0.33366 0.48406 0.0
H112 H 0.95681 0.2945 0.51248 0.0
H113 H 0.85388 0.30863 0.40096 0.0
O114 O 0.6727 0.30358 0.51615 0.0
O115 O 0.68456 0.2249 0.46588 0.0
O116 O 0.77031 0.25452 0.43394 0.0
C117 C 0.71444 0.23208 0.43238 0.0
H118 H 0.47638 0.20372 0.54812 0.0
H119 H 0.04697 0.31837 0.45828 0.0
C120 C 0.65449 0.59076 0.00371 0.0
C121 C 0.63045 0.63127 0.98774 0.0
C122 C 0.61401 0.5507 0.00146 0.0
C123 C 0.54842 0.55052 0.98333 0.0
C124 C 0.52497 0.59092 0.96709 0.0
C125 C 0.56522 0.63085 0.96941 0.0
C126 C 0.50345 0.5089 0.97963 0.0
C127 C 0.50818 0.4742 0.00445 0.0
C128 C 0.46272 0.43283 0.00104 0.0
C129 C 0.48573 0.39241 0.01743 0.0
C130 C 0.44461 0.35292 0.01586 0.0
C131 C 0.37893 0.35299 -0.00185 0.0
H132 H 0.37612 0.4639 0.97152 0.0
C133 C 0.35547 0.39346 0.98186 0.0
C134 C 0.39682 0.43307 0.98337 0.0
H135 H 0.30491 0.39474 0.96835 0.0
H136 H 0.70475 0.58985 0.01768 0.0
H137 H 0.63505 0.51992 0.01321 0.0
H138 H 0.47499 0.59175 0.95271 0.0
H139 H 0.54509 0.66138 0.95663 0.0
H140 H 0.46424 0.50761 0.95587 0.0
H141 H 0.54742 0.47546 0.02819 0.0
H142 H 0.53595 0.39127 0.03146 0.0
H143 H 0.46433 0.32239 0.02884 0.0
C144 C 0.42334 0.63462 0.47948 0.0
C145 C 0.35656 0.63714 0.49566 0.0
C146 C 0.46229 0.59425 0.4805 0.0
C147 C 0.43557 0.55541 0.49813 0.0
C148 C 0.36863 0.55788 0.51404 0.0
C149 C 0.32958 0.5983 0.51295 0.0
C150 C 0.47463 0.51132 0.49936 0.0
C151 C 0.54334 0.50807 0.49584 0.0
C152 C 0.5819 0.4638 0.497 0.0
C153 C 0.6475 0.46009 0.47924 0.0
C154 C 0.68563 0.4192 0.4799 0.0
C155 C 0.65907 0.3812 0.49866 0.0
H156 H 0.5067 0.42766 0.5317 0.0
C157 C 0.59383 0.3851 0.51693 0.0
C158 C 0.55581 0.42591 0.5163 0.0
H159 H 0.57205 0.35666 0.53205 0.0
H160 H 0.44552 0.66377 0.46555 0.0
H161 H 0.51257 0.59364 0.46661 0.0
H162 H 0.34645 0.52843 0.52751 0.0
H163 H 0.27824 0.59903 0.52557 0.0
H164 H 0.44489 0.48047 0.50357 0.0
H165 H 0.5733 0.53874 0.49142 0.0
H166 H 0.6692 0.48885 0.46451 0.0
H167 H 0.73583 0.4174 0.46569 0.0
C168 C 0.08517 0.12193 0.99009 0.0
C169 C 0.1524 0.12231 0.00549 0.0
C170 C 0.04391 0.08273 0.99143 0.0
C171 C 0.0692 0.04275 0.00796 0.0
C172 C 0.13607 0.04343 0.02387 0.0
C173 C 0.17737 0.08269 0.02254 0.0
C174 C 0.02715 0.00024 0.01022 0.0
C175 C 0.973 0.98934 0.98543 0.0
C176 C 0.93144 0.94655 0.98735 0.0
C177 C 0.86481 0.94547 0.97105 0.0
C178 C 0.82432 0.90573 0.97159 0.0
C179 C 0.84987 0.86601 0.98823 0.0
H180 H 0.00895 0.90512 0.01519 0.0
C181 C 0.91674 0.86688 0.0042 0.0
C182 C 0.9572 0.90656 0.00363 0.0
H183 H 0.9383 0.83669 0.01684 0.0
H184 H 0.06404 0.1521 0.97718 0.0
H185 H 0.992 0.08446 0.98017 0.0
H186 H 0.15669 0.01333 0.03714 0.0
H187 H 0.22881 0.08193 0.03487 0.0
H188 H 0.04256 0.97698 0.03292 0.0
H189 H 0.95758 0.01262 0.96274 0.0
H190 H 0.84384 0.97558 0.95796 0.0
H191 H 0.77312 0.90613 0.95886 0.0
C192 C 0.93018 0.13782 0.49114 0.0
C193 C 0.86318 0.14084 0.50691 0.0
C194 C 0.96724 0.09652 0.49077 0.0
C195 C 0.93789 0.05701 0.50589 0.0
C196 C 0.8714 0.06031 0.52237 0.0
C197 C 0.83427 0.10172 0.52276 0.0
C198 C 0.97555 0.01232 0.50613 0.0
C199 C 0.02815 1e-05 0.48047 0.0
C200 C 0.06641 0.95562 0.48105 0.0
C201 C 0.13328 0.95288 0.46512 0.0
C202 C 0.17132 0.91195 0.46539 0.0
C203 C 0.14297 0.8727 0.48133 0.0
H204 H 0.98542 0.9159 0.50732 0.0
C205 C 0.07551 0.87508 0.49643 0.0
C206 C 0.03755 0.91597 0.49618 0.0
H207 H 0.0518 0.8453 0.50851 0.0
H208 H 0.95435 0.16748 0.47913 0.0
H209 H 0.01915 0.09622 0.47925 0.0
H210 H 0.84778 0.03061 0.53464 0.0
H211 H 0.78288 0.10297 0.53532 0.0
H212 H 0.95843 0.98881 0.5282 0.0
H213 H 0.04524 0.0235 0.45837 0.0
H214 H 0.15655 0.98272 0.45286 0.0
H215 H 0.22303 0.9112 0.45334 0.0
C216 C 0.71297 0.22403 0.35463 0.0
C217 C 0.68219 0.21595 0.39244 0.0
C218 C 0.67947 0.21124 0.31718 0.0
C219 C 0.61459 0.19005 0.31697 0.0
C220 C 0.58463 0.18135 0.35473 0.0
C221 C 0.61812 0.19386 0.39201 0.0
C222 C 0.57402 0.18025 0.27854 0.0
C223 C 0.6019 0.17314 0.24058 0.0
C224 C 0.56014 0.1686 0.20221 0.0
C225 C 0.58739 0.14493 0.16624 0.0
C226 C 0.55211 0.14389 0.1287 0.0
C227 C 0.4892 0.16714 0.12621 0.0
H228 H 0.47427 0.2104 0.22679 0.0
C229 C 0.46103 0.1897 0.16254 0.0
C230 C 0.49612 0.19056 0.20007 0.0
H231 H 0.41349 0.20876 0.16179 0.0
H232 H 0.76215 0.24117 0.35397 0.0
H233 H 0.70344 0.21964 0.28875 0.0
H234 H 0.53456 0.1654 0.35546 0.0
H235 H 0.59288 0.18708 0.42057 0.0
H236 H 0.51882 0.17845 0.28193 0.0
H237 H 0.65707 0.17028 0.23727 0.0
H238 H 0.63666 0.12783 0.16702 0.0
H239 H 0.57487 0.12571 0.10143 0.0
C240 C 0.69326 0.78139 0.1373 0.0
C241 C 0.66111 0.79131 0.1004 0.0
C242 C 0.66152 0.79288 0.17545 0.0
C243 C 0.59696 0.81465 0.17743 0.0
C244 C 0.56529 0.82494 0.14058 0.0
C245 C 0.59719 0.81373 0.10247 0.0
C246 C 0.5589 0.82345 0.21692 0.0
C247 C 0.59008 0.83073 0.25393 0.0
C248 C 0.55323 0.8323 0.29406 0.0
C249 C 0.58997 0.82153 0.32904 0.0
C250 C 0.55688 0.81839 0.36673 0.0
C251 C 0.48607 0.82638 0.37051 0.0
H252 H 0.45307 0.85252 0.27238 0.0
C253 C 0.44969 0.83925 0.33598 0.0
C254 C 0.48289 0.84236 0.29814 0.0
H255 H 0.39549 0.84672 0.33812 0.0
H256 H 0.74232 0.76388 0.1367 0.0
H257 H 0.68663 0.78299 0.20305 0.0
H258 H 0.51533 0.84126 0.14124 0.0
H259 H 0.57095 0.82176 0.07459 0.0
H260 H 0.50352 0.82225 0.21503 0.0
H261 H 0.64556 0.83242 0.25517 0.0
H262 H 0.64421 0.81388 0.32689 0.0
H263 H 0.58666 0.80799 0.39241 0.0
C264 C 0.54506 0.80884 0.8281 0.0
C265 C 0.5167 0.82691 0.86601 0.0
C266 C 0.50938 0.81191 0.79114 0.0
C267 C 0.44464 0.83333 0.79133 0.0
C268 C 0.41757 0.85292 0.82896 0.0
C269 C 0.45344 0.85014 0.86585 0.0
C270 C 0.40177 0.83199 0.75354 0.0
C271 C 0.42857 0.82997 0.71528 0.0
C272 C 0.387 0.82293 0.67702 0.0
C273 C 0.41391 0.83758 0.64039 0.0
C274 C 0.38048 0.82704 0.60277 0.0
C275 C 0.31972 0.80093 0.60082 0.0
H276 H 0.30323 0.78554 0.70299 0.0
C277 C 0.29135 0.78749 0.63766 0.0
C278 C 0.32473 0.79834 0.67548 0.0
H279 H 0.24476 0.7672 0.63712 0.0
H280 H 0.59305 0.79012 0.82706 0.0
H281 H 0.53117 0.79531 0.76287 0.0
H282 H 0.36786 0.86961 0.82994 0.0
H283 H 0.43067 0.86513 0.89443 0.0
H284 H 0.34659 0.83281 0.75753 0.0
H285 H 0.48346 0.83383 0.71158 0.0
H286 H 0.46183 0.85641 0.64071 0.0
H287 H 0.4036 0.83825 0.57503 0.0
C288 C 0.5655 0.19571 0.66265 0.0
C289 C 0.53517 0.1823 0.62414 0.0
C290 C 0.53135 0.18874 0.69941 0.0
C291 C 0.46624 0.16786 0.69839 0.0
C292 C 0.43732 0.15276 0.65995 0.0
C293 C 0.47154 0.15962 0.62323 0.0
C294 C 0.42425 0.16589 0.73632 0.0
C295 C 0.45121 0.1668 0.77454 0.0
C296 C 0.40949 0.17252 0.81289 0.0
C297 C 0.43725 0.15845 0.84958 0.0
C298 C 0.40326 0.1681 0.88723 0.0
C299 C 0.34102 0.19263 0.88906 0.0
H300 H 0.32367 0.20824 0.78706 0.0
C301 C 0.31205 0.20553 0.85218 0.0
C302 C 0.34596 0.19568 0.81445 0.0
H303 H 0.26433 0.22466 0.85259 0.0
H304 H 0.61391 0.21387 0.66451 0.0
H305 H 0.5547 0.20207 0.72832 0.0
H306 H 0.38725 0.13665 0.65826 0.0
H307 H 0.44729 0.1482 0.59408 0.0
H308 H 0.36909 0.16431 0.73244 0.0
H309 H 0.50621 0.16372 0.77819 0.0
H310 H 0.48623 0.14084 0.84929 0.0
H311 H 0.42698 0.15757 0.91507 0.0
C312 C 0.01372 0.65483 0.12641 0.0
C313 C 0.9494 0.6752 0.12082 0.0
C314 C 0.04069 0.65261 0.16614 0.0
C315 C 0.00389 0.6709 0.20124 0.0
C316 C 0.93822 0.68896 0.19577 0.0
C317 C 0.91138 0.69135 0.15611 0.0
C318 C 0.03264 0.67298 0.24383 0.0
C319 C 0.10027 0.67592 0.25185 0.0
C320 C 0.12876 0.68508 0.29436 0.0
C321 C 0.1928 0.7068 0.29929 0.0
C322 C 0.21961 0.71883 0.33876 0.0
C323 C 0.18316 0.70898 0.37426 0.0
H324 H 0.04509 0.65538 0.32737 0.0
C325 C 0.12033 0.68552 0.36935 0.0
C326 C 0.09345 0.67356 0.32985 0.0
H327 H 0.09131 0.67693 0.39606 0.0
H328 H 0.04367 0.64103 0.10003 0.0
H329 H 0.09039 0.63677 0.16914 0.0
H330 H 0.90846 0.70292 0.22225 0.0
H331 H 0.86197 0.7076 0.15328 0.0
H332 H 0.99644 0.67706 0.26929 0.0
H333 H 0.13609 0.6762 0.22628 0.0
H334 H 0.22148 0.71567 0.27253 0.0
H335 H 0.2684 0.73658 0.34139 0.0
C336 C 0.96325 0.30492 0.34073 0.0
C337 C 0.99247 0.32469 0.37783 0.0
C338 C 0.99887 0.30477 0.30339 0.0
C339 C 0.06447 0.32466 0.30228 0.0
C340 C 0.09274 0.34564 0.33907 0.0
C341 C 0.05697 0.34599 0.37637 0.0
C342 C 0.10673 0.32065 0.26409 0.0
C343 C 0.07946 0.31642 0.22588 0.0
C344 C 0.12064 0.30763 0.18754 0.0
C345 C 0.09291 0.3199 0.15022 0.0
C346 C 0.12678 0.30844 0.11285 0.0
C347 C 0.18891 0.2838 0.11185 0.0
H348 H 0.20599 0.27295 0.21484 0.0
C349 C 0.21764 0.2723 0.14928 0.0
C350 C 0.18381 0.28406 0.18682 0.0
H351 H 0.26524 0.25312 0.1495 0.0
H352 H 0.91434 0.28747 0.34069 0.0
H353 H 0.97608 0.28707 0.27593 0.0
H354 H 0.14318 0.36114 0.33909 0.0
H355 H 0.08056 0.3621 0.40426 0.0
H356 H 0.16195 0.32165 0.26778 0.0
H357 H 0.02453 0.32007 0.22222 0.0
H358 H 0.04421 0.3378 0.14987 0.0
H359 H 0.10316 0.31789 0.0846 0.0
C360 C 0.81282 0.29203 0.65139 0.0
C361 C 0.84194 0.30336 0.61403 0.0
C362 C 0.8484 0.30085 0.68869 0.0
C363 C 0.91382 0.32131 0.6893 0.0
C364 C 0.94194 0.33367 0.65211 0.0
C365 C 0.90629 0.32513 0.61494 0.0
C366 C 0.95658 0.3263 0.72725 0.0
C367 C 0.93036 0.33016 0.76575 0.0
C368 C 0.97301 0.32937 0.80356 0.0
C369 C 0.94668 0.34891 0.84143 0.0
C370 C 0.9817 0.34422 0.87833 0.0
C371 C 0.04348 0.31924 0.87826 0.0
H372 H 0.05747 0.28932 0.7748 0.0
C373 C 0.07118 0.30112 0.84016 0.0
C374 C 0.03628 0.30599 0.8032 0.0
H375 H 0.11801 0.28108 0.83896 0.0
H376 H 0.76352 0.27499 0.65168 0.0
H377 H 0.82572 0.2897 0.71654 0.0
H378 H 0.99232 0.34921 0.65167 0.0
H379 H 0.93025 0.33438 0.58673 0.0
H380 H 0.01169 0.327 0.72308 0.0
H381 H 0.87548 0.33408 0.77 0.0
H382 H 0.89809 0.36705 0.8426 0.0
H383 H 0.95947 0.35923 0.90706 0.0
C384 C 0.04688 0.70429 0.64771 0.0
C385 C 0.01772 0.68558 0.61017 0.0
C386 C 0.01203 0.70222 0.68515 0.0
C387 C 0.94721 0.68117 0.68599 0.0
C388 C 0.91884 0.66155 0.64868 0.0
C389 C 0.95381 0.66342 0.61127 0.0
C390 C 0.9057 0.68232 0.72452 0.0
C391 C 0.93327 0.68588 0.76273 0.0
C392 C 0.89209 0.69131 0.80144 0.0
C393 C 0.9217 0.67899 0.83829 0.0
C394 C 0.88722 0.68721 0.87598 0.0
C395 C 0.82249 0.70856 0.87778 0.0
H396 H 0.80262 0.72282 0.77552 0.0
C397 C 0.79211 0.72015 0.84081 0.0
C398 C 0.82652 0.71167 0.80302 0.0
H399 H 0.7425 0.7369 0.84117 0.0
H400 H 0.09529 0.72238 0.64814 0.0
H401 H 0.03489 0.71899 0.71299 0.0
H402 H 0.86896 0.64522 0.64837 0.0
H403 H 0.93016 0.6481 0.58311 0.0
H404 H 0.85057 0.67953 0.72102 0.0
H405 H 0.98846 0.68412 0.76611 0.0
H406 H 0.97226 0.66357 0.83804 0.0
H407 H 0.91227 0.67795 0.90386 0.0
loop_
_geom_bond_atom_site_label_1
_geom_bond_atom_site_label_2
_geom_bond_distance
_geom_bond_site_symmetry_2
_ccdc_geom_bond_type
Co0 N5 2.057 . S
Co0 O17 2.021 . S
Co0 O20 2.062 . S
Co0 O24 2.117 . S
Co0 O25 2.020 1_556 S
C1 O21 1.273 . S
C1 O24 1.245 1_554 S
Co2 N11 2.057 . S
Co2 O18 2.117 . S
Co2 O19 2.020 1_554 S
Co2 O21 2.021 . S
Co2 O26 2.062 . S
C3 N5 1.316 . S
C3 N6 1.347 . S
C3 H8 0.931 . S
C4 N5 1.375 . S
C4 C7 1.350 . S
C4 H9 0.930 . S
N5 Co0 2.057 . S
N5 C3 1.316 . S
N5 C4 1.375 . S
N6 C3 1.347 . S
N6 C7 1.373 . S
C7 C4 1.350 . S
C7 N6 1.373 . S
C7 H28 0.931 . S
H8 C3 0.931 . S
H9 C4 0.930 . S
C10 O17 1.269 . S
C10 O18 1.248 1_556 S
N11 Co2 2.057 . S
N11 C12 1.316 . S
N11 C13 1.375 . S
C12 N11 1.316 . S
C12 N14 1.347 . S
C12 H23 0.931 . S
C13 N11 1.375 . S
C13 C15 1.350 . S
C13 H22 0.930 . S
N14 C12 1.347 . S
N14 C15 1.373 . S
C15 C13 1.350 . S
C15 N14 1.373 . S
C15 H29 0.931 . S
C16 O19 1.256 . S
C16 O20 1.255 . S
O17 Co0 2.021 . S
O17 C10 1.269 . S
O18 Co2 2.117 . S
O18 C10 1.248 1_554 S
O19 Co2 2.020 1_556 S
O19 C16 1.256 . S
O20 Co0 2.062 . S
O20 C16 1.255 . S
O21 C1 1.273 . S
O21 Co2 2.021 . S
H22 C13 0.930 . S
H23 C12 0.931 . S
O24 Co0 2.117 . S
O24 C1 1.245 1_556 S
O25 Co0 2.020 1_554 S
O25 C27 1.256 . S
O26 Co2 2.062 . S
O26 C27 1.255 . S
C27 O25 1.256 . S
C27 O26 1.255 . S
H28 C7 0.931 . S
H29 C15 0.931 . S
Co30 N35 2.057 . S
Co30 O47 2.021 . S
Co30 O50 2.062 . S
Co30 O54 2.117 . S
Co30 O55 2.020 1_556 S
C31 O51 1.273 . S
C31 O54 1.245 1_554 S
Co32 N41 2.057 . S
Co32 O48 2.117 . S
Co32 O49 2.020 1_554 S
Co32 O51 2.021 . S
Co32 O56 2.062 . S
C33 N35 1.316 . S
C33 N36 1.347 . S
C33 H38 0.931 . S
C34 N35 1.375 . S
C34 C37 1.350 . S
C34 H39 0.930 . S
N35 Co30 2.057 . S
N35 C33 1.316 . S
N35 C34 1.375 . S
N36 C33 1.347 . S
N36 C37 1.373 . S
C37 C34 1.350 . S
C37 N36 1.373 . S
C37 H58 0.931 . S
H38 C33 0.931 . S
H39 C34 0.930 . S
C40 O47 1.269 . S
C40 O48 1.248 1_556 S
N41 Co32 2.057 . S
N41 C42 1.316 . S
N41 C43 1.375 . S
C42 N41 1.316 . S
C42 N44 1.347 . S
C42 H53 0.931 . S
C43 N41 1.375 . S
C43 C45 1.350 . S
C43 H52 0.930 . S
N44 C42 1.347 . S
N44 C45 1.373 . S
C45 C43 1.350 . S
C45 N44 1.373 . S
C45 H59 0.931 . S
C46 O49 1.256 . S
C46 O50 1.255 . S
O47 Co30 2.021 . S
O47 C40 1.269 . S
O48 Co32 2.117 . S
O48 C40 1.248 1_554 S
O49 Co32 2.020 1_556 S
O49 C46 1.256 . S
O50 Co30 2.062 . S
O50 C46 1.255 . S
O51 C31 1.273 . S
O51 Co32 2.021 . S
H52 C43 0.930 . S
H53 C42 0.931 . S
O54 Co30 2.117 . S
O54 C31 1.245 1_556 S
O55 Co30 2.020 1_554 S
O55 C57 1.256 . S
O56 Co32 2.062 . S
O56 C57 1.255 . S
C57 O55 1.256 . S
C57 O56 1.255 . S
H58 C37 0.931 . S
H59 C45 0.931 . S
Co60 N65 2.057 . S
Co60 O77 2.021 . S
Co60 O80 2.062 . S
Co60 O84 2.117 . S
Co60 O85 2.020 . S
C61 O81 1.259 . S
C61 O84 1.258 . S
Co62 N71 2.057 . S
Co62 O78 2.117 . S
Co62 O79 2.020 . S
Co62 O81 2.021 . S
Co62 O86 2.062 . S
C63 N65 1.316 . S
C63 N66 1.347 . S
C63 H68 0.931 . S
C64 N65 1.375 . S
C64 C67 1.350 . S
C64 H69 0.930 . S
N65 Co60 2.057 . S
N65 C63 1.316 . S
N65 C64 1.375 . S
N66 C63 1.347 . S
N66 C67 1.373 . S
C67 C64 1.350 . S
C67 N66 1.373 . S
C67 H88 0.931 . S
H68 C63 0.931 . S
H69 C64 0.930 . S
C70 O77 1.259 . S
C70 O78 1.258 . S
N71 Co62 2.057 . S
N71 C72 1.316 . S
N71 C73 1.375 . S
C72 N71 1.316 . S
C72 N74 1.347 . S
C72 H83 0.931 . S
C73 N71 1.375 . S
C73 C75 1.350 . S
C73 H82 0.930 . S
N74 C72 1.347 . S
N74 C75 1.373 . S
C75 C73 1.350 . S
C75 N74 1.373 . S
C75 H89 0.931 . S
C76 O79 1.256 . S
C76 O80 1.255 . S
O77 Co60 2.021 . S
O77 C70 1.259 . S
O78 Co62 2.117 . S
O78 C70 1.258 . S
O79 Co62 2.020 . S
O79 C76 1.256 . S
O80 Co60 2.062 . S
O80 C76 1.255 . S
O81 C61 1.259 . S
O81 Co62 2.021 . S
H82 C73 0.930 . S
H83 C72 0.931 . S
O84 Co60 2.117 . S
O84 C61 1.258 . S
O85 Co60 2.020 . S
O85 C87 1.256 . S
O86 Co62 2.062 . S
O86 C87 1.255 . S
C87 O85 1.256 . S
C87 O86 1.255 . S
H88 C67 0.931 . S
H89 C75 0.931 . S
Co90 N95 2.057 . S
Co90 O107 2.021 . S
Co90 O110 2.062 . S
Co90 O114 2.117 . S
Co90 O115 2.020 . S
C91 O111 1.259 . S
C91 O114 1.258 . S
Co92 N101 2.057 . S
Co92 O108 2.117 . S
Co92 O109 2.020 . S
Co92 O111 2.021 . S
Co92 O116 2.062 . S
C93 N95 1.316 . S
C93 N96 1.347 . S
C93 H98 0.931 . S
C94 N95 1.375 . S
C94 C97 1.350 . S
C94 H99 0.930 . S
N95 Co90 2.057 . S
N95 C93 1.316 . S
N95 C94 1.375 . S
N96 C93 1.347 . S
N96 C97 1.373 . S
C97 C94 1.350 . S
C97 N96 1.373 . S
C97 H118 0.931 . S
H98 C93 0.931 . S
H99 C94 0.930 . S
C100 O107 1.259 . S
C100 O108 1.258 . S
N101 Co92 2.057 . S
N101 C102 1.316 . S
N101 C103 1.375 . S
C102 N101 1.316 . S
C102 N104 1.347 . S
C102 H113 0.931 . S
C103 N101 1.375 . S
C103 C105 1.350 . S
C103 H112 0.930 . S
N104 C102 1.347 . S
N104 C105 1.373 . S
C105 C103 1.350 . S
C105 N104 1.373 . S
C105 H119 0.931 . S
C106 O109 1.256 . S
C106 O110 1.255 . S
O107 Co90 2.021 . S
O107 C100 1.259 . S
O108 Co92 2.117 . S
O108 C100 1.258 . S
O109 Co92 2.020 . S
O109 C106 1.256 . S
O110 Co90 2.062 . S
O110 C106 1.255 . S
O111 C91 1.259 . S
O111 Co92 2.021 . S
H112 C103 0.930 . S
H113 C102 0.931 . S
O114 Co90 2.117 . S
O114 C91 1.258 . S
O115 Co90 2.020 . S
O115 C117 1.256 . S
O116 Co92 2.062 . S
O116 C117 1.255 . S
C117 O115 1.256 . S
C117 O116 1.255 . S
H118 C97 0.931 . S
H119 C105 0.931 . S
C120 C121 1.392 . S
C120 C122 1.383 . S
C120 H136 0.951 . S
C121 C120 1.392 . S
C121 C125 1.378 1_554 S
C122 C120 1.383 . S
C122 C123 1.402 . S
C122 H137 0.951 . S
C123 C122 1.402 . S
C123 C124 1.375 1_554 S
C123 C126 1.481 . S
C124 C123 1.375 1_556 S
C124 C125 1.367 . S
C124 H138 0.951 . S
C125 C121 1.378 1_556 S
C125 C124 1.367 . S
C125 H139 0.950 . S
C126 C123 1.481 . S
C126 C127 1.297 . S
C126 H140 0.950 1_554 S
C127 C126 1.297 . S
C127 C128 1.479 . S
C127 H141 0.950 . S
C128 C127 1.479 . S
C128 C129 1.375 . S
C128 C134 1.404 . S
C129 C128 1.375 . S
C129 C130 1.369 . S
C129 H142 0.950 . S
C130 C129 1.369 . S
C130 C131 1.392 . S
C130 H143 0.951 . S
C131 C130 1.392 . S
C131 C133 1.384 1_554 S
H132 C134 0.949 1_556 S
C133 C131 1.384 1_556 S
C133 C134 1.385 1_556 S
C133 H135 0.950 . S
C134 C128 1.404 . S
C134 H132 0.949 1_554 S
C134 C133 1.385 1_554 S
H135 C133 0.950 . S
H136 C120 0.951 . S
H137 C122 0.951 . S
H138 C124 0.951 . S
H139 C125 0.950 . S
H140 C126 0.950 1_556 S
H141 C127 0.950 . S
H142 C129 0.950 . S
H143 C130 0.951 . S
C144 C145 1.386 . S
C144 C146 1.383 . S
C144 H160 0.951 . S
C145 C144 1.386 . S
C145 C149 1.383 . S
C146 C144 1.383 . S
C146 C147 1.402 . S
C146 H161 0.951 . S
C147 C146 1.402 . S
C147 C148 1.375 . S
C147 C150 1.481 . S
C148 C147 1.375 . S
C148 C149 1.367 . S
C148 H162 0.951 . S
C149 C145 1.383 . S
C149 C148 1.367 . S
C149 H163 0.950 . S
C150 C147 1.481 . S
C150 C151 1.297 . S
C150 H164 0.950 . S
C151 C150 1.297 . S
C151 C152 1.479 . S
C151 H165 0.950 . S
C152 C151 1.479 . S
C152 C153 1.375 . S
C152 C158 1.404 . S
C153 C152 1.375 . S
C153 C154 1.369 . S
C153 H166 0.950 . S
C154 C153 1.369 . S
C154 C155 1.392 . S
C154 H167 0.951 . S
C155 C154 1.392 . S
C155 C157 1.384 . S
H156 C158 0.949 . S
C157 C155 1.384 . S
C157 C158 1.385 . S
C157 H159 0.950 . S
C158 C152 1.404 . S
C158 H156 0.949 . S
C158 C157 1.385 . S
H159 C157 0.950 . S
H160 C144 0.951 . S
H161 C146 0.951 . S
H162 C148 0.951 . S
H163 C149 0.950 . S
H164 C150 0.950 . S
H165 C151 0.950 . S
H166 C153 0.950 . S
H167 C154 0.951 . S
C168 C169 1.386 1_556 S
C168 C170 1.383 . S
C168 H184 0.951 . S
C169 C168 1.386 1_554 S
C169 C173 1.383 . S
C170 C168 1.383 . S
C170 C171 1.402 1_556 S
C170 H185 0.951 . S
C171 C170 1.402 1_554 S
C171 C172 1.375 . S
C171 C174 1.481 . S
C172 C171 1.375 . S
C172 C173 1.367 . S
C172 H186 0.951 . S
C173 C169 1.383 . S
C173 C172 1.367 . S
C173 H187 0.950 . S
C174 C171 1.481 . S
C174 C175 1.297 1_544 S
C174 H188 0.950 . S
C175 C174 1.297 1_566 S
C175 C176 1.479 1_455 S
C175 H189 0.950 . S
C176 C175 1.479 1_655 S
C176 C177 1.375 . S
C176 C182 1.404 1_556 S
C177 C176 1.375 . S
C177 C178 1.369 . S
C177 H190 0.950 . S
C178 C177 1.369 . S
C178 C179 1.376 1_556 S
C178 H191 0.951 . S
C179 C178 1.376 1_554 S
C179 C181 1.400 . S
H180 C182 0.949 . S
C181 C179 1.400 . S
C181 C182 1.385 . S
C181 H183 0.950 . S
C182 C176 1.404 1_554 S
C182 H180 0.949 . S
C182 C181 1.385 . S
H183 C181 0.950 . S
H184 C168 0.951 . S
H185 C170 0.951 . S
H186 C172 0.951 . S
H187 C173 0.950 . S
H188 C174 0.950 . S
H189 C175 0.950 . S
H190 C177 0.950 . S
H191 C178 0.951 . S
C192 C193 1.386 . S
C192 C194 1.383 . S
C192 H208 0.951 . S
C193 C192 1.386 . S
C193 C197 1.383 . S
C194 C192 1.383 . S
C194 C195 1.402 . S
C194 H209 0.951 . S
C195 C194 1.402 . S
C195 C196 1.375 . S
C195 C198 1.481 1_545 S
C196 C195 1.375 . S
C196 C197 1.367 . S
C196 H210 0.951 . S
C197 C193 1.383 . S
C197 C196 1.367 . S
C197 H211 0.950 . S
C198 C195 1.481 1_565 S
C198 C199 1.297 1_655 S
C198 H212 0.950 . S
C199 C198 1.297 1_455 S
C199 C200 1.479 . S
C199 H213 0.950 1_565 S
C200 C199 1.479 . S
C200 C201 1.375 . S
C200 C206 1.404 . S
C201 C200 1.375 . S
C201 C202 1.369 . S
C201 H214 0.950 . S
C202 C201 1.369 . S
C202 C203 1.392 . S
C202 H215 0.951 . S
C203 C202 1.392 . S
C203 C205 1.384 . S
H204 C206 0.949 1_655 S
C205 C203 1.384 . S
C205 C206 1.385 . S
C205 H207 0.950 . S
C206 C200 1.404 . S
C206 H204 0.949 1_455 S
C206 C205 1.385 . S
H207 C205 0.950 . S
H208 C192 0.951 . S
H209 C194 0.951 . S
H210 C196 0.951 . S
H211 C197 0.950 . S
H212 C198 0.950 . S
H213 C199 0.950 1_545 S
H214 C201 0.950 . S
H215 C202 0.951 . S
C216 C217 1.386 . S
C216 C218 1.383 . S
C216 H232 0.951 . S
C217 C216 1.386 . S
C217 C221 1.383 . S
C218 C216 1.383 . S
C218 C219 1.402 . S
C218 H233 0.951 . S
C219 C218 1.402 . S
C219 C220 1.375 . S
C219 C222 1.481 . S
C220 C219 1.375 . S
C220 C221 1.367 . S
C220 H234 0.951 . S
C221 C217 1.383 . S
C221 C220 1.367 . S
C221 H235 0.950 . S
C222 C219 1.481 . S
C222 C223 1.297 . S
C222 H236 0.950 . S
C223 C222 1.297 . S
C223 C224 1.479 . S
C223 H237 0.950 . S
C224 C223 1.479 . S
C224 C225 1.375 . S
C224 C230 1.404 . S
C225 C224 1.375 . S
C225 C226 1.369 . S
C225 H238 0.950 . S
C226 C225 1.369 . S
C226 C227 1.392 . S
C226 H239 0.951 . S
C227 C226 1.392 . S
C227 C229 1.384 . S
H228 C230 0.949 . S
C229 C227 1.384 . S
C229 C230 1.385 . S
C229 H231 0.950 . S
C230 C224 1.404 . S
C230 H228 0.949 . S
C230 C229 1.385 . S
H231 C229 0.950 . S
H232 C216 0.951 . S
H233 C218 0.951 . S
H234 C220 0.951 . S
H235 C221 0.950 . S
H236 C222 0.950 . S
H237 C223 0.950 . S
H238 C225 0.950 . S
H239 C226 0.951 . S
C240 C241 1.386 . S
C240 C242 1.383 . S
C240 H256 0.951 . S
C241 C240 1.386 . S
C241 C245 1.383 . S
C242 C240 1.383 . S
C242 C243 1.402 . S
C242 H257 0.951 . S
C243 C242 1.402 . S
C243 C244 1.375 . S
C243 C246 1.481 . S
C244 C243 1.375 . S
C244 C245 1.367 . S
C244 H258 0.951 . S
C245 C241 1.383 . S
C245 C244 1.367 . S
C245 H259 0.950 . S
C246 C243 1.481 . S
C246 C247 1.297 . S
C246 H260 0.950 . S
C247 C246 1.297 . S
C247 C248 1.479 . S
C247 H261 0.950 . S
C248 C247 1.479 . S
C248 C249 1.375 . S
C248 C254 1.404 . S
C249 C248 1.375 . S
C249 C250 1.369 . S
C249 H262 0.950 . S
C250 C249 1.369 . S
C250 C251 1.392 . S
C250 H263 0.951 . S
C251 C250 1.392 . S
C251 C253 1.384 . S
H252 C254 0.949 . S
C253 C251 1.384 . S
C253 C254 1.385 . S
C253 H255 0.950 . S
C254 C248 1.404 . S
C254 H252 0.949 . S
C254 C253 1.385 . S
H255 C253 0.950 . S
H256 C240 0.951 . S
H257 C242 0.951 . S
H258 C244 0.951 . S
H259 C245 0.950 . S
H260 C246 0.950 . S
H261 C247 0.950 . S
H262 C249 0.950 . S
H263 C250 0.951 . S
C264 C265 1.386 . S
C264 C266 1.383 . S
C264 H280 0.951 . S
C265 C264 1.386 . S
C265 C269 1.383 . S
C266 C264 1.383 . S
C266 C267 1.402 . S
C266 H281 0.951 . S
C267 C266 1.402 . S
C267 C268 1.375 . S
C267 C270 1.481 . S
C268 C267 1.375 . S
C268 C269 1.367 . S
C268 H282 0.951 . S
C269 C265 1.383 . S
C269 C268 1.367 . S
C269 H283 0.950 . S
C270 C267 1.481 . S
C270 C271 1.297 . S
C270 H284 0.950 . S
C271 C270 1.297 . S
C271 C272 1.479 . S
C271 H285 0.950 . S
C272 C271 1.479 . S
C272 C273 1.375 . S
C272 C278 1.404 . S
C273 C272 1.375 . S
C273 C274 1.369 . S
C273 H286 0.950 . S
C274 C273 1.369 . S
C274 C275 1.392 . S
C274 H287 0.951 . S
C275 C274 1.392 . S
C275 C277 1.384 . S
H276 C278 0.949 . S
C277 C275 1.384 . S
C277 C278 1.385 . S
C277 H279 0.950 . S
C278 C272 1.404 . S
C278 H276 0.949 . S
C278 C277 1.385 . S
H279 C277 0.950 . S
H280 C264 0.951 . S
H281 C266 0.951 . S
H282 C268 0.951 . S
H283 C269 0.950 . S
H284 C270 0.950 . S
H285 C271 0.950 . S
H286 C273 0.950 . S
H287 C274 0.951 . S
C288 C289 1.386 . S
C288 C290 1.383 . S
C288 H304 0.951 . S
C289 C288 1.386 . S
C289 C293 1.383 . S
C290 C288 1.383 . S
C290 C291 1.402 . S
C290 H305 0.951 . S
C291 C290 1.402 . S
C291 C292 1.375 . S
C291 C294 1.481 . S
C292 C291 1.375 . S
C292 C293 1.367 . S
C292 H306 0.951 . S
C293 C289 1.383 . S
C293 C292 1.367 . S
C293 H307 0.950 . S
C294 C291 1.481 . S
C294 C295 1.297 . S
C294 H308 0.950 . S
C295 C294 1.297 . S
C295 C296 1.479 . S
C295 H309 0.950 . S
C296 C295 1.479 . S
C296 C297 1.375 . S
C296 C302 1.404 . S
C297 C296 1.375 . S
C297 C298 1.369 . S
C297 H310 0.950 . S
C298 C297 1.369 . S
C298 C299 1.392 . S
C298 H311 0.951 . S
C299 C298 1.392 . S
C299 C301 1.384 . S
H300 C302 0.949 . S
C301 C299 1.384 . S
C301 C302 1.385 . S
C301 H303 0.950 . S
C302 C296 1.404 . S
C302 H300 0.949 . S
C302 C301 1.385 . S
H303 C301 0.950 . S
H304 C288 0.951 . S
H305 C290 0.951 . S
H306 C292 0.951 . S
H307 C293 0.950 . S
H308 C294 0.950 . S
H309 C295 0.950 . S
H310 C297 0.950 . S
H311 C298 0.951 . S
C312 C313 1.386 1_455 S
C312 C314 1.383 . S
C312 H328 0.951 . S
C313 C312 1.386 1_655 S
C313 C317 1.383 . S
C314 C312 1.383 . S
C314 C315 1.402 1_455 S
C314 H329 0.951 . S
C315 C314 1.402 1_655 S
C315 C316 1.375 . S
C315 C318 1.481 1_655 S
C316 C315 1.375 . S
C316 C317 1.367 . S
C316 H330 0.951 . S
C317 C313 1.383 . S
C317 C316 1.367 . S
C317 H331 0.950 . S
C318 C315 1.481 1_455 S
C318 C319 1.297 . S
C318 H332 0.950 1_455 S
C319 C318 1.297 . S
C319 C320 1.479 . S
C319 H333 0.950 . S
C320 C319 1.479 . S
C320 C321 1.375 . S
C320 C326 1.404 . S
C321 C320 1.375 . S
C321 C322 1.369 . S
C321 H334 0.950 . S
C322 C321 1.369 . S
C322 C323 1.392 . S
C322 H335 0.951 . S
C323 C322 1.392 . S
C323 C325 1.384 . S
H324 C326 0.949 . S
C325 C323 1.384 . S
C325 C326 1.385 . S
C325 H327 0.950 . S
C326 C320 1.404 . S
C326 H324 0.949 . S
C326 C325 1.385 . S
H327 C325 0.950 . S
H328 C312 0.951 . S
H329 C314 0.951 . S
H330 C316 0.951 . S
H331 C317 0.950 . S
H332 C318 0.950 1_655 S
H333 C319 0.950 . S
H334 C321 0.950 . S
H335 C322 0.951 . S
C336 C337 1.386 . S
C336 C338 1.383 . S
C336 H352 0.951 . S
C337 C336 1.386 . S
C337 C341 1.383 . S
C338 C336 1.383 . S
C338 C339 1.402 1_655 S
C338 H353 0.951 . S
C339 C338 1.402 1_455 S
C339 C340 1.375 . S
C339 C342 1.481 . S
C340 C339 1.375 . S
C340 C341 1.367 1_455 S
C340 H354 0.951 . S
C341 C337 1.383 . S
C341 C340 1.367 1_655 S
C341 H355 0.950 1_655 S
C342 C339 1.481 . S
C342 C343 1.297 . S
C342 H356 0.950 . S
C343 C342 1.297 . S
C343 C344 1.479 . S
C343 H357 0.950 1_455 S
C344 C343 1.479 . S
C344 C345 1.375 . S
C344 C350 1.404 . S
C345 C344 1.375 . S
C345 C346 1.369 . S
C345 H358 0.950 . S
C346 C345 1.369 . S
C346 C347 1.392 . S
C346 H359 0.951 . S
C347 C346 1.392 . S
C347 C349 1.384 . S
H348 C350 0.949 . S
C349 C347 1.384 . S
C349 C350 1.385 . S
C349 H351 0.950 . S
C350 C344 1.404 . S
C350 H348 0.949 . S
C350 C349 1.385 . S
H351 C349 0.950 . S
H352 C336 0.951 . S
H353 C338 0.951 . S
H354 C340 0.951 . S
H355 C341 0.950 1_455 S
H356 C342 0.950 . S
H357 C343 0.950 1_655 S
H358 C345 0.950 . S
H359 C346 0.951 . S
C360 C361 1.386 . S
C360 C362 1.383 . S
C360 H376 0.951 . S
C361 C360 1.386 . S
C361 C365 1.383 . S
C362 C360 1.383 . S
C362 C363 1.402 . S
C362 H377 0.951 . S
C363 C362 1.402 . S
C363 C364 1.375 . S
C363 C366 1.481 . S
C364 C363 1.375 . S
C364 C365 1.367 . S
C364 H378 0.951 . S
C365 C361 1.383 . S
C365 C364 1.367 . S
C365 H379 0.950 . S
C366 C363 1.481 . S
C366 C367 1.297 . S
C366 H380 0.950 . S
C367 C366 1.297 . S
C367 C368 1.479 . S
C367 H381 0.950 . S
C368 C367 1.479 . S
C368 C369 1.375 . S
C368 C374 1.404 1_655 S
C369 C368 1.375 . S
C369 C370 1.369 . S
C369 H382 0.950 . S
C370 C369 1.369 . S
C370 C371 1.392 1_655 S
C370 H383 0.951 . S
C371 C370 1.392 1_455 S
C371 C373 1.384 . S
H372 C374 0.949 . S
C373 C371 1.384 . S
C373 C374 1.385 . S
C373 H375 0.950 . S
C374 C368 1.404 1_455 S
C374 H372 0.949 . S
C374 C373 1.385 . S
H375 C373 0.950 . S
H376 C360 0.951 . S
H377 C362 0.951 . S
H378 C364 0.951 . S
H379 C365 0.950 . S
H380 C366 0.950 . S
H381 C367 0.950 . S
H382 C369 0.950 . S
H383 C370 0.951 . S
C384 C385 1.386 . S
C384 C386 1.383 . S
C384 H400 0.951 . S
C385 C384 1.386 . S
C385 C389 1.374 1_455 S
C386 C384 1.383 . S
C386 C387 1.402 1_455 S
C386 H401 0.951 . S
C387 C386 1.402 1_655 S
C387 C388 1.375 . S
C387 C390 1.481 . S
C388 C387 1.375 . S
C388 C389 1.372 . S
C388 H402 0.951 . S
C389 C385 1.374 1_655 S
C389 C388 1.372 . S
C389 H403 0.954 . S
C390 C387 1.481 . S
C390 C391 1.297 . S
C390 H404 0.950 . S
C391 C390 1.297 . S
C391 C392 1.479 . S
C391 H405 0.950 1_655 S
C392 C391 1.479 . S
C392 C393 1.375 . S
C392 C398 1.404 . S
C393 C392 1.375 . S
C393 C394 1.369 . S
C393 H406 0.950 . S
C394 C393 1.369 . S
C394 C395 1.392 . S
C394 H407 0.951 . S
C395 C394 1.392 . S
C395 C397 1.384 . S
H396 C398 0.949 . S
C397 C395 1.384 . S
C397 C398 1.385 . S
C397 H399 0.950 . S
C398 C392 1.404 . S
C398 H396 0.949 . S
C398 C397 1.385 . S
H399 C397 0.950 . S
H400 C384 0.951 . S
H401 C386 0.951 . S
H402 C388 0.951 . S
H403 C389 0.954 . S
H404 C390 0.950 . S
H405 C391 0.950 1_455 S
H406 C393 0.950 . S
H407 C394 0.951 . S
C121 C31 1.624 . S
C131 C10 1.638 1_554 S
C145 C70 1.624 . S
C155 C91 1.644 . S
C169 C1 1.643 . S
C179 C40 1.609 1_554 S
C193 C100 1.646 . S
C203 C61 1.631 . S
C217 C117 0.909 . S
C227 N14 0.944 . S
C241 C57 0.893 . S
C251 N74 0.875 . S
C265 N36 0.819 . S
C275 C76 0.873 . S
C289 N96 0.817 . S
C299 C16 0.880 . S
C313 N44 0.821 . S
C323 C87 0.830 . S
C337 N104 0.917 . S
C347 C27 0.924 . S
C361 C106 0.864 . S
C371 N6 0.808 . S
C385 N66 0.816 . S
C395 C46 0.887 . S
