# Generated by pormake.
# Topology fnt, (5)-cn, num edge types: 1
# Building blocks:
#     Node 0, Type 0, BuildingBlock: XOMCOT_clean_sbu_0, # of connection points: 5
#     Node 1, Type 0, BuildingBlock: XOMCOT_clean_sbu_0, # of connection points: 5
#     Node 2, Type 0, BuildingBlock: XOMCOT_clean_sbu_0, # of connection points: 5
#     Node 3, Type 0, BuildingBlock: XOMCOT_clean_sbu_0, # of connection points: 5
#     Node 4, Type 0, BuildingBlock: XOMCOT_clean_sbu_0, # of connection points: 5
#     Node 5, Type 0, BuildingBlock: XOMCOT_clean_sbu_0, # of connection points: 5
#     Edge 6, Type (0, 0), BuildingBlock: ZUJKAS_clean_linker_0, # of connection points: 2
#     Edge 7, Type (0, 0), BuildingBlock: ZUJKAS_clean_linker_0, # of connection points: 2
#     Edge 8, Type (0, 0), BuildingBlock: ZUJKAS_clean_linker_0, # of connection points: 2
#     Edge 9, Type (0, 0), BuildingBlock: ZUJKAS_clean_linker_0, # of connection points: 2
#     Edge 10, Type (0, 0), BuildingBlock: ZUJKAS_clean_linker_0, # of connection points: 2
#     Edge 11, Type (0, 0), BuildingBlock: ZUJKAS_clean_linker_0, # of connection points: 2
#     Edge 12, Type (0, 0), BuildingBlock: ZUJKAS_clean_linker_0, # of connection points: 2
#     Edge 13, Type (0, 0), BuildingBlock: ZUJKAS_clean_linker_0, # of connection points: 2
#     Edge 14, Type (0, 0), BuildingBlock: ZUJKAS_clean_linker_0, # of connection points: 2
#     Edge 15, Type (0, 0), BuildingBlock: ZUJKAS_clean_linker_0, # of connection points: 2
#     Edge 16, Type (0, 0), BuildingBlock: ZUJKAS_clean_linker_0, # of connection points: 2
#     Edge 17, Type (0, 0), BuildingBlock: ZUJKAS_clean_linker_0, # of connection points: 2
#     Edge 18, Type (0, 0), BuildingBlock: ZUJKAS_clean_linker_0, # of connection points: 2
#     Edge 19, Type (0, 0), BuildingBlock: ZUJKAS_clean_linker_0, # of connection points: 2
#     Edge 20, Type (0, 0), BuildingBlock: ZUJKAS_clean_linker_0, # of connection points: 2
# Relax obj value: 0.136
# Max RMSD: 0.164
# Mean RMSD: 0.164
data_MOF--net-fnt--node1-XOMCOT_clean_sbu_0--edge1-ZUJKAS_clean_linker_0
_symmetry_space_group_name_H-M    P1
_symmetry_Int_Tables_number       1
_symmetry_cell_setting            triclinic
loop_
_symmetry_equiv_pos_as_xyz
'x, y, z'
_cell_length_a     35.128296
_cell_length_b     35.108666
_cell_length_c     60.15815
_cell_angle_alpha  89.991876
_cell_angle_beta   90.005082
_cell_angle_gamma 120.09983
loop_
_atom_site_label
_atom_site_type_symbol
_atom_site_fract_x
_atom_site_fract_y
_atom_site_fract_z
_atom_type_partial_charge
Co0 Co 0.18426 0.31132 0.03315 0.0
C1 C 0.14997 0.29986 0.07922 0.0
C2 C 0.21894 0.32125 0.07849 0.0
C3 C 0.20537 0.31577 0.1003 0.0
N4 N 0.18427 0.31143 0.06532 0.0
N5 N 0.16195 0.30221 0.1008 0.0
H6 H 0.11685 0.28911 0.07357 0.0
H7 H 0.25175 0.33123 0.07265 0.0
C8 C 0.26414 0.39743 1.0217 0.0
O9 O 0.24034 0.40609 1.00805 0.0
N10 N 0.1851 0.31072 1.00044 0.0
C11 C 0.17299 0.33205 0.98585 0.0
C12 C 0.18085 0.32368 0.96456 0.0
C13 C 0.20048 0.28981 0.98742 0.0
N14 N 0.19815 0.29712 0.9655 0.0
C15 C 0.11613 0.33046 1.02561 0.0
C16 C 0.15221 0.40866 0.04904 0.0
C17 C 0.10999 0.39125 0.03988 0.0
C18 C 0.09212 0.35177 0.02801 0.0
C19 C 0.17568 0.38652 0.04585 0.0
N20 N 0.15784 0.34835 0.03382 0.0
H21 H 0.10117 0.29936 1.01692 0.0
H22 H 0.20736 0.39906 0.05377 0.0
H23 H 0.16107 0.3541 0.98995 0.0
H24 H 0.21424 0.27049 0.99377 0.0
O25 O 0.13067 0.25582 0.03336 0.0
O26 O 0.19746 0.2639 0.03388 0.0
O27 O 0.24636 0.36234 0.03336 0.0
C28 C 0.15495 0.23765 0.03408 0.0
H29 H 0.22612 0.3216 0.11467 0.0
H30 H 0.17436 0.33638 0.94952 0.0
H31 H 0.16664 0.43871 0.05872 0.0
H32 H 0.05914 0.33667 1.0212 0.0
Co33 Co 0.86626 0.18217 0.36349 0.0
C34 C 0.84524 0.148 0.40963 0.0
C35 C 0.89375 0.21679 0.40867 0.0
C36 C 0.88637 0.20326 0.43051 0.0
N37 N 0.86787 0.18221 0.39563 0.0
N38 N 0.85591 0.15996 0.43115 0.0
H39 H 0.82213 0.11497 0.4041 0.0
H40 H 0.91671 0.24952 0.40272 0.0
C41 C 0.86006 0.26208 0.35241 0.0
O42 O 0.828 0.2385 0.33849 0.0
N43 N 0.86586 0.18281 0.33082 0.0
C44 C 0.83132 0.16852 0.31674 0.0
C45 C 0.84637 0.17619 0.29521 0.0
C46 C 0.90154 0.19923 0.31729 0.0
N47 N 0.89054 0.19546 0.29552 0.0
C48 C 0.77894 0.11257 0.35811 0.0
C49 C 0.73796 0.14849 0.38252 0.0
C50 C 0.71373 0.10437 0.37577 0.0
C51 C 0.73453 0.08684 0.36304 0.0
C52 C 0.78286 0.17329 0.37731 0.0
N53 N 0.80272 0.15522 0.36514 0.0
H54 H 0.79455 0.09779 0.34886 0.0
H55 H 0.80206 0.20598 0.38419 0.0
H56 H 0.79731 0.15496 0.32138 0.0
H57 H 0.93509 0.21453 0.32319 0.0
O58 O 0.86849 0.12885 0.36314 0.0
O59 O 0.92712 0.19583 0.36324 0.0
O60 O 0.87711 0.24412 0.36409 0.0
C61 C 0.91097 0.15332 0.36326 0.0
H62 H 0.90213 0.22395 0.44481 0.0
H63 H 0.82615 0.16802 0.28045 0.0
H64 H 0.72294 0.16289 0.39265 0.0
H65 H 0.71678 0.05305 0.35729 0.0
Co66 Co 0.6811 0.86787 0.69527 0.0
C67 C 0.69284 0.84576 0.74147 0.0
C68 C 0.67432 0.89547 0.74045 0.0
C69 C 0.67914 0.88715 0.76232 0.0
N70 N 0.68262 0.86934 0.72742 0.0
N71 N 0.69074 0.85585 0.76299 0.0
H72 H 0.70117 0.82148 0.736 0.0
H73 H 0.66583 0.9193 0.73445 0.0
C74 C 0.59513 0.86213 0.68445 0.0
O75 O 0.58611 0.82988 0.67057 0.0
N76 N 0.68005 0.86768 0.6626 0.0
C77 C 0.65912 0.83327 0.64848 0.0
C78 C 0.66653 0.84847 0.62697 0.0
C79 C 0.69975 0.90344 0.64911 0.0
N80 N 0.69213 0.8926 0.62733 0.0
C81 C 0.66241 0.78041 0.68961 0.0
C82 C 0.5863 0.73987 0.71472 0.0
C83 C 0.60601 0.71559 0.70791 0.0
C84 C 0.64382 0.73611 0.69475 0.0
C85 C 0.60627 0.78467 0.70925 0.0
N86 N 0.64394 0.80435 0.69682 0.0
H87 H 0.6926 0.79591 0.68014 0.0
H88 H 0.59308 0.804 0.71622 0.0
H89 H 0.63814 0.79929 0.65308 0.0
H90 H 0.71853 0.93694 0.65505 0.0
O91 O 0.73635 0.86958 0.69489 0.0
O92 O 0.72883 0.92861 0.69509 0.0
O93 O 0.63039 0.87918 0.69594 0.0
C94 C 0.75482 0.91211 0.69505 0.0
H95 H 0.67533 0.90369 0.7766 0.0
H96 H 0.65397 0.82838 0.61218 0.0
H97 H 0.55726 0.72505 0.72515 0.0
H98 H 0.65967 0.71827 0.68893 0.0
Co99 Co 0.82588 0.70409 0.02851 0.0
C100 C 0.84984 0.70296 0.07561 0.0
C101 C 0.78707 0.69903 0.07258 0.0
C102 C 0.79689 0.70006 0.09483 0.0
N103 N 0.82017 0.70062 0.06058 0.0
N104 N 0.83645 0.70272 0.09673 0.0
H105 H 0.88081 0.70536 0.07113 0.0
H106 H 0.75842 0.69858 0.0657 0.0
C107 C 0.73614 0.63789 1.01302 0.0
O108 O 0.75485 0.623 0.99933 0.0
N109 N 0.832 0.70966 0.99609 0.0
C110 C 0.86864 0.721 0.98403 0.0
C111 C 0.86193 0.7287 0.96242 0.0
C112 C 0.80449 0.71343 0.98155 0.0
N113 N 0.82153 0.72387 0.96078 0.0
C114 C 0.86547 0.65107 1.02122 0.0
C115 C 0.80316 0.57727 0.04365 0.0
C116 C 0.84036 0.5778 0.03495 0.0
C117 C 0.87147 0.61507 1.02347 0.0
C118 C 0.7978 0.61382 0.04045 0.0
N119 N 0.82847 0.64997 0.02897 0.0
H120 H 0.89224 0.68074 1.01461 0.0
H121 H 0.76996 0.6138 0.0481 0.0
H122 H 0.89998 0.72772 0.99051 0.0
H123 H 0.77334 0.71029 0.98625 0.0
O124 O 0.8876 0.74516 0.03169 0.0
O125 O 0.83551 0.76326 0.02955 0.0
O126 O 0.75978 0.6705 1.02574 0.0
C127 C 0.87714 0.77577 0.03156 0.0
H128 H 0.77723 0.70075 0.1085 0.0
H129 H 0.88627 0.74014 0.94929 0.0
H130 H 0.77911 0.54942 0.05323 0.0
H131 H 0.9017 0.61748 1.01748 0.0
Co132 Co 0.11399 0.82379 0.36508 0.0
C133 C 0.13981 0.84728 0.41212 0.0
C134 C 0.0813 0.78404 0.40907 0.0
C135 C 0.09027 0.7937 0.43132 0.0
N136 N 0.11246 0.81756 0.39708 0.0
N137 N 0.12697 0.83356 0.43325 0.0
H138 H 0.16809 0.87854 0.40763 0.0
H139 H 0.05317 0.75525 0.40219 0.0
C140 C 0.09045 0.73474 0.34834 0.0
O141 O 0.12317 0.75422 0.33417 0.0
N142 N 0.11394 0.83026 0.33275 0.0
C143 C 0.1415 0.86545 0.3203 0.0
C144 C 0.12662 0.85891 0.29877 0.0
C145 C 0.08125 0.80386 0.31853 0.0
N146 N 0.08878 0.8201 0.29757 0.0
C147 C 0.20705 0.86733 0.3591 0.0
C148 C 0.22017 0.80227 0.37686 0.0
C149 C 0.25646 0.84149 0.3694 0.0
C150 C 0.24946 0.87418 0.36049 0.0
C151 C 0.17782 0.79635 0.37467 0.0
N152 N 0.1715 0.82815 0.3651 0.0
H153 H 0.20348 0.89491 0.35457 0.0
H154 H 0.1504 0.76695 0.38152 0.0
H155 H 0.16871 0.89572 0.32631 0.0
H156 H 0.05204 0.77384 0.32354 0.0
O157 O 0.13342 0.88516 0.36855 0.0
O158 O 0.06355 0.83201 0.3666 0.0
O159 O 0.08231 0.7577 0.36195 0.0
C160 C 0.09214 0.87384 0.3687 0.0
H161 H 0.07015 0.77368 0.44498 0.0
H162 H 0.14128 0.88231 0.28531 0.0
H163 H 0.22458 0.77692 0.38464 0.0
H164 H 0.27687 0.90596 0.35577 0.0
Co165 Co 0.28867 0.11608 0.69984 0.0
C166 C 0.28816 0.14019 0.747 0.0
C167 C 0.29587 0.08354 0.7438 0.0
C168 C 0.29406 0.09165 0.76604 0.0
N169 N 0.29226 0.11401 0.73189 0.0
N170 N 0.28893 0.12714 0.76812 0.0
H171 H 0.28316 0.16722 0.74255 0.0
H172 H 0.29857 0.0566 0.73685 0.0
C173 C 0.35436 0.09311 0.68304 0.0
O174 O 0.36718 0.12561 0.66876 0.0
N175 N 0.28345 0.11644 0.66748 0.0
C176 C 0.28108 0.14632 0.65431 0.0
C177 C 0.27265 0.13087 0.63285 0.0
C178 C 0.27455 0.08236 0.65373 0.0
N179 N 0.26868 0.09067 0.63241 0.0
C180 C 0.33708 0.20948 0.69535 0.0
C181 C 0.41634 0.223 0.71177 0.0
C182 C 0.41275 0.25922 0.705 0.0
C183 C 0.37246 0.25206 0.69686 0.0
C184 C 0.38003 0.18049 0.70948 0.0
N185 N 0.34146 0.174 0.70041 0.0
H186 H 0.30556 0.20557 0.69123 0.0
H187 H 0.38257 0.15309 0.71583 0.0
H188 H 0.28267 0.1763 0.6596 0.0
H189 H 0.27207 0.05192 0.65934 0.0
O190 O 0.24606 0.13461 0.70281 0.0
O191 O 0.23009 0.06504 0.70079 0.0
O192 O 0.3237 0.08513 0.69692 0.0
C193 C 0.21637 0.09321 0.70267 0.0
H194 H 0.29604 0.07247 0.7796 0.0
H195 H 0.26781 0.14731 0.61884 0.0
H196 H 0.44656 0.22754 0.71902 0.0
H197 H 0.36767 0.27941 0.69272 0.0
H198 H 0.32115 0.39855 0.05293 0.0
H199 H 0.4013 0.44415 0.05321 0.0
H200 H 0.3964 0.50776 0.99278 0.0
H201 H 0.31616 0.46321 0.99275 0.0
H202 H 0.45686 0.44479 1.02315 0.0
H203 H 0.48024 0.61258 0.02922 0.0
H204 H 0.42779 0.56373 0.03421 0.0
H205 H 0.44589 0.58212 1.00624 0.0
C206 C 0.33708 0.42269 0.03987 0.0
C207 C 0.3123 0.42732 1.02283 0.0
C208 C 0.3829 0.44872 0.04005 0.0
C209 C 0.40489 0.47978 1.02317 0.0
C210 C 0.38017 0.48485 1.00629 0.0
H211 H 0.67613 0.57648 0.98455 0.0
H212 H 0.59593 0.53913 0.98705 0.0
C213 C 0.33427 0.45914 1.00623 0.0
C214 C 0.4537 0.5045 1.02242 0.0
H215 H 0.54342 0.60776 1.01884 0.0
C216 C 0.47578 0.48045 1.02237 0.0
C217 C 0.47843 0.55105 1.02166 0.0
C218 C 0.4569 0.5789 1.02307 0.0
C219 C 0.52181 0.50156 1.02121 0.0
C220 C 0.54642 0.54798 1.01941 0.0
C221 C 0.52446 0.57213 1.0199 0.0
C222 C 0.59504 0.57205 1.01731 0.0
C223 C 0.54358 0.47388 1.02233 0.0
C224 C 0.62118 0.60422 0.03299 0.0
C225 C 0.66704 0.62609 0.03143 0.0
C226 C 0.68761 0.6161 1.01416 0.0
C227 C 0.66132 0.58455 0.9982 0.0
C228 C 0.61547 0.56299 0.99967 0.0
H229 H 0.52172 0.44136 0.03016 0.0
H230 H 0.55116 0.46785 1.00523 0.0
H231 H 0.5748 0.49079 0.03189 0.0
H232 H 0.60609 0.6119 0.04666 0.0
H233 H 0.68632 0.65028 0.04397 0.0
H234 H 0.91559 0.31835 0.38403 0.0
H235 H 0.94993 0.39845 0.38499 0.0
H236 H 0.88166 0.39507 0.32475 0.0
H237 H 0.84622 0.3148 0.32401 0.0
H238 H 0.00505 0.45523 0.3551 0.0
H239 H 0.86007 0.47725 0.36235 0.0
H240 H 0.85673 0.42483 0.36685 0.0
H241 H 0.85641 0.44367 0.33906 0.0
C242 C 0.90739 0.33457 0.37114 0.0
C243 C 0.87813 0.31019 0.35395 0.0
C244 C 0.92708 0.38039 0.37172 0.0
C245 C 0.91802 0.40279 0.3551 0.0
C246 C 0.88835 0.37849 0.33806 0.0
H247 H 0.09159 0.67606 0.31888 0.0
H248 H 0.04897 0.59572 0.32058 0.0
C249 C 0.86829 0.33258 0.33759 0.0
C250 C 0.94201 0.45166 0.35478 0.0
H251 H 0.92815 0.54118 0.35263 0.0
C252 C 0.9882 0.47401 0.35471 0.0
C253 C 0.92005 0.47619 0.35453 0.0
C254 C 0.8706 0.45429 0.35593 0.0
C255 C 0.01305 0.52012 0.35404 0.0
C256 C 0.9911 0.54458 0.35279 0.0
C257 C 0.94492 0.52234 0.35329 0.0
C258 C 0.01558 0.59332 0.35124 0.0
C259 C 0.06257 0.54214 0.35506 0.0
C260 C 0.00977 0.61868 0.36746 0.0
C261 C 0.0337 0.66464 0.36639 0.0
C262 C 0.06394 0.6861 0.34907 0.0
C263 C 0.06898 0.66059 0.33259 0.0
C264 C 0.04479 0.61464 0.33359 0.0
H265 H 0.07339 0.52005 0.36237 0.0
H266 H 0.07614 0.55074 0.33797 0.0
H267 H 0.07681 0.57286 0.36505 0.0
H268 H 0.98721 0.60289 0.38116 0.0
H269 H 0.02894 0.6833 0.37933 0.0
H270 H 0.3453 0.03212 0.7141 0.0
H271 H 0.38384 0.99037 0.71548 0.0
H272 H 0.45086 0.05143 0.65434 0.0
H273 H 0.41328 0.09406 0.65308 0.0
H274 H 0.38505 0.93091 0.68666 0.0
H275 H 0.55233 0.07603 0.69523 0.0
H276 H 0.50315 0.0796 0.69845 0.0
H277 H 0.52363 0.07871 0.67115 0.0
C278 C 0.36829 0.03675 0.70096 0.0
C279 C 0.37656 0.06677 0.68359 0.0
C280 C 0.39024 0.0128 0.70176 0.0
C281 C 0.4208 0.01839 0.68524 0.0
C282 C 0.42823 0.04742 0.66757 0.0
H283 H 0.52807 0.84844 0.65643 0.0
H284 H 0.48355 0.88407 0.65762 0.0
C285 C 0.40655 0.07162 0.66683 0.0
C286 C 0.44489 0.99381 0.68647 0.0
H287 H 0.54812 0.0075 0.6878 0.0
C288 C 0.4207 0.94761 0.68702 0.0
C289 C 0.49137 0.01568 0.68732 0.0
C290 C 0.51916 0.06523 0.68824 0.0
C291 C 0.44181 0.92264 0.68795 0.0
C292 C 0.48835 0.94452 0.68784 0.0
C293 C 0.51245 0.99073 0.68769 0.0
C294 C 0.51301 0.92042 0.68788 0.0
C295 C 0.41405 0.87317 0.68943 0.0
C296 C 0.5448 0.92942 0.70431 0.0
C297 C 0.57073 0.90963 0.70349 0.0
C298 C 0.56531 0.88033 0.68622 0.0
C299 C 0.53277 0.87055 0.67006 0.0
C300 C 0.5071 0.89071 0.67078 0.0
H301 H 0.38071 0.86272 0.69606 0.0
H302 H 0.41004 0.8589 0.67256 0.0
H303 H 0.4298 0.8593 0.70021 0.0
H304 H 0.54998 0.9523 0.71763 0.0
H305 H 0.59541 0.91777 0.71624 0.0
H306 H 0.52217 0.64596 0.70437 0.0
H307 H 0.49817 0.56809 0.71081 0.0
H308 H 0.62842 0.60427 0.73374 0.0
H309 H 0.65255 0.6818 0.72704 0.0
H310 H 0.6008 0.54364 0.70109 0.0
H311 H 0.47153 0.49088 0.76548 0.0
H312 H 0.4623 0.51796 0.74255 0.0
H313 H 0.51017 0.54815 0.75981 0.0
C314 C 0.54523 0.63722 0.7113 0.0
C315 C 0.58919 0.66961 0.71504 0.0
C316 C 0.53154 0.59285 0.71505 0.0
C317 C 0.56149 0.58047 0.72291 0.0
C318 C 0.60482 0.61311 0.72768 0.0
H319 H 0.45748 0.29779 0.74317 0.0
H320 H 0.50387 0.37723 0.74991 0.0
C321 C 0.61854 0.65728 0.72381 0.0
C322 C 0.54905 0.5335 0.72382 0.0
H323 H 0.47089 0.43327 0.74342 0.0
C324 C 0.57285 0.51959 0.71066 0.0
C325 C 0.51312 0.50228 0.73658 0.0
C326 C 0.4881 0.51562 0.75209 0.0
C327 C 0.56006 0.47494 0.70891 0.0
C328 C 0.52212 0.44343 0.72035 0.0
C329 C 0.49988 0.45752 0.73455 0.0
C330 C 0.50179 0.39577 0.71581 0.0
C331 C 0.58669 0.46186 0.69443 0.0
C332 C 0.48642 0.38005 0.69433 0.0
C333 C 0.46018 0.33503 0.69049 0.0
C334 C 0.44875 0.30496 0.70808 0.0
C335 C 0.46639 0.3204 0.72931 0.0
C336 C 0.49254 0.36564 0.73319 0.0
H337 H 0.62148 0.48883 0.69326 0.0
H338 H 0.58596 0.43185 0.70087 0.0
H339 H 0.57276 0.45491 0.67738 0.0
H340 H 0.49241 0.4027 0.68078 0.0
H341 H 0.44672 0.3238 0.67401 0.0
H342 H 0.85802 0.53102 1.00507 0.0
H343 H 0.89361 0.48786 1.01276 0.0
H344 H 0.88421 0.50484 0.08319 0.0
H345 H 0.84829 0.5481 0.07546 0.0
H346 H 0.97071 0.53695 0.06681 0.0
H347 H 0.8595 0.36614 0.03849 0.0
H348 H 0.86404 0.40665 1.0188 0.0
H349 H 0.83996 0.4034 0.04563 0.0
C350 C 0.86207 0.52406 1.02218 0.0
C351 C 0.85038 0.54256 0.03969 0.0
C352 C 0.88226 0.49935 1.02658 0.0
C353 C 0.89124 0.49294 0.04855 0.0
C354 C 0.87715 0.50913 0.06614 0.0
H355 H 0.09111 0.41775 0.07904 0.0
H356 H 0.03721 0.44194 0.08481 0.0
C357 C 0.85645 0.53352 0.06173 0.0
C358 C 0.9212 0.47556 0.05263 0.0
H359 H 0.93696 0.39017 0.03923 0.0
C360 C 0.96313 0.50446 0.0613 0.0
C361 C 0.91111 0.43332 0.04533 0.0
C362 C 0.86604 0.40041 0.03673 0.0
C363 C -0.00367 0.49335 0.06139 0.0
C364 C 0.9869 0.45194 0.05296 0.0
C365 C 0.94418 0.42207 0.04552 0.0
C366 C 0.02156 0.44023 0.04988 0.0
C367 C 0.04187 0.52699 0.06916 0.0
C368 C 0.03073 0.43161 0.02837 0.0
C369 C 0.06114 0.41773 1.0251 0.0
C370 C 0.08304 0.41226 0.04327 0.0
C371 C 0.07509 0.42239 0.06475 0.0
C372 C 0.04429 0.43603 0.06805 0.0
H373 H 0.04566 0.56018 0.07113 0.0
H374 H 0.04834 0.51671 0.08551 0.0
H375 H 0.06716 0.52934 0.05728 0.0
H376 H 0.01373 0.43491 1.01412 0.0
H377 H 0.06684 0.41024 1.00837 0.0
H378 H 0.32146 0.87132 0.33861 0.0
H379 H 0.40023 0.90501 0.34572 0.0
H380 H 0.37386 0.86986 0.41503 0.0
H381 H 0.29459 0.83644 0.40795 0.0
H382 H 0.42996 0.95872 0.40816 0.0
H383 H 0.48612 0.86264 0.3594 0.0
H384 H 0.45271 0.87736 0.34308 0.0
H385 H 0.42903 0.84131 0.36662 0.0
C386 C 0.33246 0.86959 0.35522 0.0
C387 C 0.30216 0.85136 0.37274 0.0
C388 C 0.37742 0.88865 0.35926 0.0
C389 C 0.39286 0.88964 0.38088 0.0
C390 C 0.3625 0.86913 0.39821 0.0
H391 H 0.6782 0.0237 0.3949 0.0
H392 H 0.60021 0.97068 0.40069 0.0
C393 C 0.31734 0.84979 0.39414 0.0
C394 C 0.44044 0.91718 0.38557 0.0
H395 H 0.54097 0.93811 0.36736 0.0
C396 C 0.45433 0.95376 0.39961 0.0
C397 C 0.47211 0.9105 0.37454 0.0
C398 C 0.45923 0.87054 0.36025 0.0
C399 C 0.49908 0.98519 0.40195 0.0
C400 C 0.53052 0.98013 0.38964 0.0
C401 C 0.51676 0.94226 0.37659 0.0
C402 C 0.57766 0.01439 0.38919 0.0
C403 C 0.51217 0.02375 0.41731 0.0
C404 C 0.59089 0.05693 0.38124 0.0
C405 C 0.63553 0.0874 0.37803 0.0
C406 C 0.66737 0.07542 0.38238 0.0
C407 C 0.65414 0.03352 0.39121 0.0
C408 C 0.6097 0.00328 0.39456 0.0
H409 H 0.48697 0.01585 0.43041 0.0
H410 H 0.54429 0.034 0.42542 0.0
H411 H 0.51524 0.05201 0.40758 0.0
H412 H 0.56665 0.06589 0.37656 0.0
H413 H 0.64495 0.11936 0.37103 0.0
H414 H 0.06821 0.17923 0.03887 0.0
H415 H 0.03252 0.09963 0.04175 0.0
H416 H 0.15822 0.10658 0.03585 0.0
H417 H 0.19477 0.18733 0.03284 0.0
H418 H 0.08882 0.04334 1.00736 0.0
H419 H 0.03539 0.0271 0.09508 0.0
H420 H 0.02243 0.06258 0.07937 0.0
H421 H 0.07907 0.07798 0.08367 0.0
C422 C 0.08848 0.16404 0.03824 0.0
C423 C 0.13433 0.18949 0.03568 0.0
C424 C 0.068 0.11854 0.04007 0.0
C425 C 0.09288 0.09749 0.03946 0.0
C426 C 0.13866 0.12252 0.03663 0.0
H427 H 0.96563 0.80926 0.03391 0.0
H428 H 0.02296 0.88659 0.03689 0.0
C429 C 0.15939 0.16844 0.03489 0.0
C430 C 0.0698 0.04906 0.04065 0.0
H431 H -0.00646 0.96344 0.07172 0.0
C432 C 0.06879 0.0256 1.02159 0.0
C433 C 0.04382 0.02629 0.0593 0.0
C434 C 0.04552 0.04977 0.0806 0.0
C435 C 0.03993 0.98005 1.02013 0.0
C436 C 0.01192 0.95782 0.03826 0.0
C437 C 0.0148 0.98088 0.05778 0.0
C438 C 0.97751 0.91114 0.03679 0.0
C439 C 0.0377 0.95638 0.99881 0.0
C440 C 0.93308 0.89962 0.03609 0.0
C441 C 0.90019 0.85552 0.03437 0.0
C442 C 0.9114 0.8224 0.03349 0.0
C443 C 0.95599 0.83411 0.03447 0.0
C444 C 0.9888 0.87819 0.03612 0.0
H445 H 0.0575 0.97949 0.98532 0.0
H446 H 0.0504 0.93356 1.0018 0.0
H447 H 0.00306 0.93642 0.99312 0.0
H448 H 0.92392 0.92485 0.03666 0.0
H449 H 0.86612 0.84741 0.03371 0.0
H450 H 0.14635 0.96214 0.37291 0.0
H451 H 0.12571 0.0188 0.37572 0.0
H452 H 0.98858 0.91894 0.37211 0.0
H453 H 0.00892 0.86177 0.36944 0.0
H454 H 0.07724 0.03601 0.34424 0.0
H455 H -0.00474 0.99354 0.42652 0.0
H456 H 0.03155 0.9741 0.41739 0.0
H457 H 0.97533 0.94722 0.40807 0.0
C458 C 0.11174 0.95214 0.37286 0.0
C459 C 0.07915 0.90751 0.37097 0.0
C460 C 0.1001 0.98458 0.37448 0.0
C461 C 0.05572 0.97292 0.37441 0.0
C462 C 0.02304 0.92841 0.37262 0.0
H463 H 0.88328 0.06662 0.35948 0.0
H464 H 0.92641 0.03042 0.36342 0.0
C465 C 0.03466 0.89586 0.37096 0.0
C466 C 0.04349 0.00742 0.37499 0.0
H467 H 0.97953 0.03905 0.40287 0.0
C468 C 0.05657 0.03736 0.35725 0.0
C469 C 0.01708 0.00927 0.39216 0.0
C470 C 0.00433 0.97961 0.41224 0.0
C471 C 0.04116 0.06715 0.35542 0.0
C472 C 0.01243 0.06697 0.37187 0.0
C473 C 0.00155 0.03888 0.39028 0.0
C474 C 0.98813 0.09065 0.36871 0.0
C475 C 0.05336 0.09665 0.3353 0.0
C476 C 0.00891 0.1367 0.37012 0.0
C477 C 0.9842 0.15776 0.36779 0.0
C478 C 0.93858 0.1328 0.36415 0.0
C479 C 0.91833 0.0868 0.36237 0.0
C480 C 0.94287 0.06599 0.36466 0.0
H481 H 0.07351 0.0904 0.32321 0.0
H482 H 0.02316 0.09177 0.32681 0.0
H483 H 0.07238 0.13159 0.34063 0.0
H484 H 0.04389 0.15613 0.37338 0.0
H485 H 0.00052 0.19325 0.36931 0.0
H486 H 0.18155 0.14664 0.70664 0.0
H487 H 0.10397 0.12523 0.7087 0.0
H488 H 0.06758 0.98845 0.70444 0.0
H489 H 0.14544 0.00956 0.70252 0.0
H490 H 0.03936 0.07719 0.67666 0.0
H491 H -0.00222 0.99322 0.75847 0.0
H492 H 0.05378 0.03002 0.74977 0.0
H493 H 0.0248 0.97405 0.74004 0.0
C494 C 0.15708 0.11193 0.70628 0.0
C495 C 0.16948 0.07967 0.70443 0.0
C496 C 0.11283 0.09986 0.70747 0.0
C497 C 0.08028 0.05536 0.70701 0.0
C498 C 0.09244 0.02299 0.70524 0.0
H499 H 0.81308 0.8837 0.69097 0.0
H500 H 0.89255 0.92619 0.69496 0.0
C501 C 0.1368 0.03505 0.70401 0.0
C502 C 0.03344 0.04277 0.70726 0.0
H503 H 0.93712 0.97842 0.73466 0.0
C504 C 0.017 0.05623 0.68951 0.0
C505 C 0.00474 0.016 0.72425 0.0
C506 C 0.02118 0.00281 0.74434 0.0
C507 C 0.97184 0.04098 0.68751 0.0
C508 C 0.94288 0.01202 0.7038 0.0
C509 C 0.95964 0.00063 0.72219 0.0
C510 C 0.89488 0.98816 0.70053 0.0
C511 C 0.95501 0.0537 0.66741 0.0
C512 C 0.87006 0.00932 0.70207 0.0
C513 C 0.82422 0.98499 0.69972 0.0
C514 C 0.80305 0.93937 0.69593 0.0
C515 C 0.82836 0.91876 0.69399 0.0
C516 C 0.87378 0.94292 0.69629 0.0
H517 H 0.98168 0.07388 0.65542 0.0
H518 H 0.92953 0.02372 0.65879 0.0
H519 H 0.93939 0.07291 0.67278 0.0
H520 H 0.88601 0.04429 0.70547 0.0
H521 H 0.80539 0.00158 0.70136 0.0
H522 H 0.22707 0.33634 0.92539 0.0
H523 H 0.24494 0.30658 0.89291 0.0
H524 H 0.21874 0.19137 0.93049 0.0
H525 H 0.19976 0.22059 0.96306 0.0
H526 H 0.30917 0.28082 0.88741 0.0
H527 H 0.13921 0.14087 0.87511 0.0
H528 H 0.15124 0.18717 0.89275 0.0
H529 H 0.16208 0.14508 0.90234 0.0
C530 C 0.22477 0.30452 0.92676 0.0
C531 C 0.21144 0.28062 0.9468 0.0
C532 C 0.23534 0.28771 0.90819 0.0
C533 C 0.23255 0.24648 0.90915 0.0
C534 C 0.22044 0.22297 0.92927 0.0
H535 H 0.26182 0.08602 0.80816 0.0
H536 H 0.25118 0.11622 0.84247 0.0
C537 C 0.21 0.23989 0.94794 0.0
C538 C 0.24187 0.22816 0.88893 0.0
H539 H 0.194 0.14474 0.85101 0.0
C540 C 0.28404 0.25104 0.87944 0.0
C541 C 0.20902 0.18935 0.87855 0.0
C542 C 0.16271 0.16426 0.88754 0.0
C543 C 0.2944 0.23588 0.85999 0.0
C544 C 0.26139 0.19731 0.84945 0.0
C545 C 0.2193 0.17431 0.85905 0.0
C546 C 0.2697 0.17997 0.82852 0.0
C547 C 0.34085 0.26085 0.85119 0.0
C548 C 0.28347 0.20561 0.80908 0.0
C549 C 0.29014 0.18855 0.78934 0.0
C550 C 0.28279 0.14527 0.78854 0.0
C551 C 0.26867 0.11967 0.80807 0.0
C552 C 0.26218 0.1368 0.82777 0.0
H553 H 0.36456 0.28152 0.86429 0.0
H554 H 0.35128 0.23807 0.84444 0.0
H555 H 0.34255 0.28299 0.83759 0.0
H556 H 0.28858 0.23869 0.80909 0.0
H557 H 0.30122 0.2094 0.77477 0.0
H558 H 0.08486 0.30252 0.10484 0.0
H559 H 0.0393 0.28572 0.13826 0.0
H560 H 0.13077 0.26146 0.1746 0.0
H561 H 0.17607 0.27754 0.14138 0.0
H562 H -0.00067 0.20742 0.16409 0.0
H563 H 0.1191 0.35069 0.21406 0.0
H564 H 0.12403 0.34771 0.18431 0.0
H565 H 0.14068 0.31816 0.20255 0.0
C566 C 0.0952 0.29336 0.11988 0.0
C567 C 0.13447 0.29179 0.12036 0.0
C568 C 0.06921 0.28398 0.13901 0.0
C569 C 0.08205 0.27313 0.15905 0.0
C570 C 0.12076 0.27083 0.1595 0.0
H571 H 0.97063 0.20148 0.2924 0.0
H572 H 0.0173 0.22046 0.25923 0.0
C573 C 0.14669 0.28011 0.14042 0.0
C574 C 0.05453 0.26315 0.17937 0.0
H575 H 0.05593 0.29607 0.23301 0.0
C576 C 0.01158 0.22694 0.17912 0.0
C577 C 0.07068 0.28849 0.19902 0.0
C578 C 0.11601 0.32868 0.20005 0.0
C579 C 0.9846 0.21489 0.19809 0.0
C580 C 0.00066 0.24033 0.21773 0.0
C581 C 0.04365 0.27655 0.21798 0.0
C582 C 0.97308 0.2302 0.23807 0.0
C583 C 0.93951 0.17434 0.19706 0.0
C584 C 0.93329 0.23046 0.23739 0.0
C585 C 0.90666 0.21971 0.25628 0.0
C586 C 0.91935 0.20879 0.2764 0.0
C587 C 0.95995 0.20992 0.27725 0.0
C588 C 0.98656 0.22057 0.25827 0.0
H589 H 0.93704 0.15201 0.18335 0.0
H590 H 0.93124 0.15577 0.21295 0.0
H591 H 0.91462 0.18438 0.19401 0.0
H592 H 0.92276 0.239 0.22219 0.0
H593 H 0.87617 0.22018 0.25512 0.0
H594 H 0.89607 0.17339 0.47132 0.0
H595 H 0.86721 0.12815 0.50464 0.0
H596 H 0.74887 0.03874 0.46925 0.0
H597 H 0.77731 0.08416 0.43579 0.0
H598 H 0.78974 0.1056 0.52828 0.0
H599 H 0.78896 0.95698 0.49609 0.0
H600 H 0.81871 0.00991 0.48256 0.0
H601 H 0.76019 0.97639 0.47905 0.0
C602 C 0.86378 0.1443 0.47056 0.0
C603 C 0.83908 0.13255 0.45075 0.0
C604 C 0.84741 0.11832 0.48966 0.0
C605 C 0.80612 0.07978 0.48941 0.0
C606 C 0.78122 0.06789 0.46973 0.0
H607 H 0.65237 0.87907 0.58716 0.0
H608 H 0.68017 0.92596 0.5543 0.0
C609 C 0.79757 0.09391 0.45058 0.0
C610 C 0.78896 0.05263 0.50989 0.0
H611 H 0.75618 0.95061 0.53129 0.0
C612 C 0.78251 0.07174 0.52898 0.0
C613 C 0.77957 0.00848 0.51079 0.0
C614 C 0.78753 0.98671 0.49111 0.0
C615 C 0.76613 0.04767 0.5488 0.0
C616 C 0.75676 0.0035 0.54971 0.0
C617 C 0.76331 0.98444 0.53061 0.0
C618 C 0.73955 0.97612 0.57015 0.0
C619 C 0.75797 0.06944 0.5684 0.0
C620 C 0.76366 0.98859 0.5901 0.0
C621 C 0.74776 0.96173 0.60901 0.0
C622 C 0.70769 0.92158 0.60827 0.0
C623 C 0.68361 0.9094 0.58828 0.0
C624 C 0.69939 0.9363 0.56946 0.0
H625 H 0.75545 0.09849 0.56325 0.0
H626 H 0.72731 0.04599 0.57727 0.0
H627 H 0.78584 0.08093 0.58023 0.0
H628 H 0.79521 0.01867 0.59094 0.0
H629 H 0.76744 0.97179 0.624 0.0
H630 H 0.74353 0.82001 0.76634 0.0
H631 H 0.7609 0.79277 0.80011 0.0
H632 H 0.67729 0.82538 0.83826 0.0
H633 H 0.6588 0.85142 0.80459 0.0
H634 H 0.80098 0.84117 0.83839 0.0
H635 H 0.63627 0.69958 0.85839 0.0
H636 H 0.64949 0.7259 0.83147 0.0
H637 H 0.63696 0.75061 0.8544 0.0
C638 C 0.72822 0.82069 0.78182 0.0
C639 C 0.69977 0.83801 0.78267 0.0
C640 C 0.73839 0.80533 0.80115 0.0
C641 C 0.71999 0.80651 0.8217 0.0
C642 C 0.69129 0.82338 0.82257 0.0
H643 H 0.76178 0.75183 0.95871 0.0
H644 H 0.73563 0.77112 0.92505 0.0
C645 C 0.68119 0.8388 0.80329 0.0
C646 C 0.73263 0.79237 0.8424 0.0
H647 H 0.69151 0.72062 0.88614 0.0
C648 C 0.77707 0.81463 0.84875 0.0
C649 C 0.70136 0.75798 0.85603 0.0
C650 C 0.6534 0.73182 0.84968 0.0
C651 C 0.79104 0.80384 0.86844 0.0
C652 C 0.75985 0.76927 0.882 0.0
C653 C 0.71535 0.74714 0.87575 0.0
C654 C 0.77327 0.755 0.90237 0.0
C655 C 0.83903 0.83012 0.87477 0.0
C656 C 0.80198 0.73827 0.90076 0.0
C657 C 0.81679 0.72712 0.91988 0.0
C658 C 0.80314 0.73225 0.94112 0.0
C659 C 0.7729 0.74734 0.94267 0.0
C660 C 0.75806 0.75855 0.92344 0.0
H661 H 0.85613 0.86232 0.86602 0.0
H662 H 0.84293 0.83618 0.89297 0.0
H663 H 0.85551 0.81135 0.87012 0.0
H664 H 0.8133 0.7342 0.88466 0.0
H665 H 0.83918 0.71461 0.91801 0.0
H666 H 0.92522 0.74514 0.10198 0.0
H667 H 0.9658 0.75873 0.13689 0.0
H668 H 0.84347 0.68804 0.17275 0.0
H669 H 0.80268 0.67353 0.13786 0.0
H670 H 0.95817 0.80478 0.17364 0.0
H671 H 0.91655 0.63529 0.19745 0.0
H672 H 0.90948 0.64956 0.16951 0.0
H673 H 0.87037 0.64197 0.19076 0.0
C674 C 0.90692 0.73169 0.1172 0.0
C675 C 0.86062 0.70821 0.11707 0.0
C676 C 0.93018 0.73973 0.13718 0.0
C677 C 0.90771 0.72404 0.15742 0.0
C678 C 0.86155 0.69989 0.15732 0.0
H679 H -0.00022 0.76559 0.29574 0.0
H680 H 0.95406 0.74037 0.26208 0.0
C681 C 0.83826 0.69202 0.13737 0.0
C682 C 0.93251 0.73545 0.17872 0.0
H683 H 0.9553 0.69155 0.2241 0.0
C684 C 0.95766 0.78002 0.18462 0.0
C685 C 0.9314 0.70307 0.19318 0.0
C686 C 0.90581 0.65478 0.18741 0.0
C687 C 0.98163 0.79315 0.20457 0.0
C688 C 0.98126 0.76089 0.21884 0.0
C689 C 0.95559 0.71622 0.21314 0.0
C690 C 0.00875 0.77335 0.23928 0.0
C691 C 0.00671 0.8415 0.21033 0.0
C692 C 0.05466 0.79903 0.23762 0.0
C693 C 0.08073 0.81333 0.25672 0.0
C694 C 0.06158 0.80214 0.278 0.0
C695 C 0.01563 0.77478 0.27965 0.0
C696 C 0.98945 0.76047 0.26043 0.0
H697 H -0.00605 0.86021 0.20113 0.0
H698 H 0.00496 0.84666 0.22843 0.0
H699 H 0.04181 0.85532 0.20576 0.0
H700 H 0.07038 0.80844 0.22148 0.0
H701 H 0.11602 0.83338 0.25479 0.0
H702 H 0.22922 0.0011 0.63157 0.0
H703 H 0.20991 0.95402 0.59857 0.0
H704 H 0.26425 0.06894 0.55655 0.0
H705 H 0.28496 0.11605 0.58925 0.0
H706 H 0.15403 0.94664 0.5645 0.0
H707 H 0.32037 0.0023 0.5307 0.0
H708 H 0.3115 0.01456 0.55872 0.0
H709 H 0.31057 0.047 0.53579 0.0
C710 C 0.23778 0.01642 0.61534 0.0
C711 C 0.25862 0.0625 0.61315 0.0
C712 C 0.22648 0.98942 0.59647 0.0
C713 C 0.23618 0.00793 0.57506 0.0
C714 C 0.25721 0.05385 0.57286 0.0
H715 H 0.1747 0.92242 0.43864 0.0
H716 H 0.20212 0.96267 0.47361 0.0
C717 C 0.2685 0.08078 0.59165 0.0
C718 C 0.22224 0.97947 0.55491 0.0
H719 H 0.26 0.96171 0.50584 0.0
C720 C 0.17725 0.94951 0.5518 0.0
C721 C 0.25253 0.98331 0.53829 0.0
C722 C 0.30147 0.01322 0.54111 0.0
C723 C 0.16157 0.92451 0.53221 0.0
C724 C 0.19178 0.92904 0.5154 0.0
C725 C 0.23685 0.95839 0.51868 0.0
C726 C 0.17708 0.90433 0.49409 0.0
C727 C 0.11261 0.89463 0.52936 0.0
C728 C 0.15487 0.85814 0.49388 0.0
C729 C 0.13925 0.83502 0.47389 0.0
C730 C 0.14574 0.85757 0.45363 0.0
C731 C 0.16935 0.90392 0.45384 0.0
C732 C 0.18489 0.92702 0.47386 0.0
H733 H 0.0935 0.90279 0.54122 0.0
H734 H 0.10225 0.89673 0.51218 0.0
H735 H 0.10411 0.86009 0.53244 0.0
H736 H 0.14939 0.83992 0.5092 0.0
H737 H 0.12203 0.79942 0.47433 0.0
loop_
_geom_bond_atom_site_label_1
_geom_bond_atom_site_label_2
_geom_bond_distance
_geom_bond_site_symmetry_2
_ccdc_geom_bond_type
Co0 N4 2.148 . S
Co0 N10 2.128 1_554 S
Co0 N20 2.194 . S
Co0 O25 2.351 . S
Co0 O26 2.155 . S
Co0 O27 2.096 . S
C1 N4 1.301 . S
C1 N5 1.328 . S
C1 H6 0.930 . S
C2 C3 1.333 . S
C2 N4 1.317 . S
C2 H7 0.930 . S
C3 C2 1.333 . S
C3 N5 1.350 . S
C3 H29 0.931 . S
N4 Co0 2.148 . S
N4 C1 1.301 . S
N4 C2 1.317 . S
N5 C1 1.328 . S
N5 C3 1.350 . S
H6 C1 0.930 . S
H7 C2 0.930 . S
C8 O9 1.224 . S
C8 O27 1.247 . S
O9 C8 1.224 . S
N10 Co0 2.128 1_556 S
N10 C11 1.355 . S
N10 C13 1.311 . S
C11 N10 1.355 . S
C11 C12 1.363 . S
C11 H23 0.929 . S
C12 C11 1.363 . S
C12 N14 1.375 . S
C12 H30 0.931 . S
C13 N10 1.311 . S
C13 N14 1.347 . S
C13 H24 0.929 . S
N14 C12 1.375 . S
N14 C13 1.347 . S
C15 C18 1.365 . S
C15 N20 1.328 . S
C15 H21 0.929 . S
C16 C17 1.362 . S
C16 C19 1.378 1_556 S
C16 H31 0.929 . S
C17 C16 1.362 . S
C17 C18 1.366 1_556 S
C18 C15 1.365 . S
C18 C17 1.366 1_554 S
C18 H32 0.930 . S
C19 C16 1.378 1_554 S
C19 N20 1.315 . S
C19 H22 0.930 . S
N20 Co0 2.194 . S
N20 C15 1.328 . S
N20 C19 1.315 . S
H21 C15 0.929 . S
H22 C19 0.930 . S
H23 C11 0.929 . S
H24 C13 0.929 . S
O25 Co0 2.351 . S
O25 C28 1.244 . S
O26 Co0 2.155 . S
O26 C28 1.240 . S
O27 Co0 2.096 . S
O27 C8 1.247 . S
C28 O25 1.244 . S
C28 O26 1.240 . S
H29 C3 0.931 . S
H30 C12 0.931 . S
H31 C16 0.929 . S
H32 C18 0.930 . S
Co33 N37 2.148 . S
Co33 N43 2.128 . S
Co33 N53 2.194 . S
Co33 O58 2.351 . S
Co33 O59 2.155 . S
Co33 O60 2.096 . S
C34 N37 1.301 . S
C34 N38 1.328 . S
C34 H39 0.930 . S
C35 C36 1.333 . S
C35 N37 1.317 . S
C35 H40 0.930 . S
C36 C35 1.333 . S
C36 N38 1.350 . S
C36 H62 0.931 . S
N37 Co33 2.148 . S
N37 C34 1.301 . S
N37 C35 1.317 . S
N38 C34 1.328 . S
N38 C36 1.350 . S
H39 C34 0.930 . S
H40 C35 0.930 . S
C41 O42 1.224 . S
C41 O60 1.247 . S
O42 C41 1.224 . S
N43 Co33 2.128 . S
N43 C44 1.355 . S
N43 C46 1.311 . S
C44 N43 1.355 . S
C44 C45 1.363 . S
C44 H56 0.929 . S
C45 C44 1.363 . S
C45 N47 1.375 . S
C45 H63 0.931 . S
C46 N43 1.311 . S
C46 N47 1.347 . S
C46 H57 0.929 . S
N47 C45 1.375 . S
N47 C46 1.347 . S
C48 C51 1.365 . S
C48 N53 1.328 . S
C48 H54 0.929 . S
C49 C50 1.362 . S
C49 C52 1.378 . S
C49 H64 0.929 . S
C50 C49 1.362 . S
C50 C51 1.366 . S
C51 C48 1.365 . S
C51 C50 1.366 . S
C51 H65 0.930 . S
C52 C49 1.378 . S
C52 N53 1.315 . S
C52 H55 0.930 . S
N53 Co33 2.194 . S
N53 C48 1.328 . S
N53 C52 1.315 . S
H54 C48 0.929 . S
H55 C52 0.930 . S
H56 C44 0.929 . S
H57 C46 0.929 . S
O58 Co33 2.351 . S
O58 C61 1.244 . S
O59 Co33 2.155 . S
O59 C61 1.240 . S
O60 Co33 2.096 . S
O60 C41 1.247 . S
C61 O58 1.244 . S
C61 O59 1.240 . S
H62 C36 0.931 . S
H63 C45 0.931 . S
H64 C49 0.929 . S
H65 C51 0.930 . S
Co66 N70 2.148 . S
Co66 N76 2.128 . S
Co66 N86 2.194 . S
Co66 O91 2.351 . S
Co66 O92 2.155 . S
Co66 O93 2.096 . S
C67 N70 1.301 . S
C67 N71 1.328 . S
C67 H72 0.930 . S
C68 C69 1.333 . S
C68 N70 1.317 . S
C68 H73 0.930 . S
C69 C68 1.333 . S
C69 N71 1.350 . S
C69 H95 0.931 . S
N70 Co66 2.148 . S
N70 C67 1.301 . S
N70 C68 1.317 . S
N71 C67 1.328 . S
N71 C69 1.350 . S
H72 C67 0.930 . S
H73 C68 0.930 . S
C74 O75 1.224 . S
C74 O93 1.247 . S
O75 C74 1.224 . S
N76 Co66 2.128 . S
N76 C77 1.355 . S
N76 C79 1.311 . S
C77 N76 1.355 . S
C77 C78 1.363 . S
C77 H89 0.929 . S
C78 C77 1.363 . S
C78 N80 1.375 . S
C78 H96 0.931 . S
C79 N76 1.311 . S
C79 N80 1.347 . S
C79 H90 0.929 . S
N80 C78 1.375 . S
N80 C79 1.347 . S
C81 C84 1.365 . S
C81 N86 1.328 . S
C81 H87 0.929 . S
C82 C83 1.362 . S
C82 C85 1.378 . S
C82 H97 0.929 . S
C83 C82 1.362 . S
C83 C84 1.366 . S
C84 C81 1.365 . S
C84 C83 1.366 . S
C84 H98 0.930 . S
C85 C82 1.378 . S
C85 N86 1.315 . S
C85 H88 0.930 . S
N86 Co66 2.194 . S
N86 C81 1.328 . S
N86 C85 1.315 . S
H87 C81 0.929 . S
H88 C85 0.930 . S
H89 C77 0.929 . S
H90 C79 0.929 . S
O91 Co66 2.351 . S
O91 C94 1.244 . S
O92 Co66 2.155 . S
O92 C94 1.240 . S
O93 Co66 2.096 . S
O93 C74 1.247 . S
C94 O91 1.244 . S
C94 O92 1.240 . S
H95 C69 0.931 . S
H96 C78 0.931 . S
H97 C82 0.929 . S
H98 C84 0.930 . S
Co99 N103 2.148 . S
Co99 N109 2.128 1_554 S
Co99 N119 2.194 . S
Co99 O124 2.351 . S
Co99 O125 2.155 . S
Co99 O126 2.096 . S
C100 N103 1.301 . S
C100 N104 1.328 . S
C100 H105 0.930 . S
C101 C102 1.333 . S
C101 N103 1.317 . S
C101 H106 0.930 . S
C102 C101 1.333 . S
C102 N104 1.350 . S
C102 H128 0.931 . S
N103 Co99 2.148 . S
N103 C100 1.301 . S
N103 C101 1.317 . S
N104 C100 1.328 . S
N104 C102 1.350 . S
H105 C100 0.930 . S
H106 C101 0.930 . S
C107 O108 1.224 . S
C107 O126 1.247 . S
O108 C107 1.224 . S
N109 Co99 2.128 1_556 S
N109 C110 1.355 . S
N109 C112 1.311 . S
C110 N109 1.355 . S
C110 C111 1.363 . S
C110 H122 0.929 . S
C111 C110 1.363 . S
C111 N113 1.375 . S
C111 H129 0.931 . S
C112 N109 1.311 . S
C112 N113 1.347 . S
C112 H123 0.929 . S
N113 C111 1.375 . S
N113 C112 1.347 . S
C114 C117 1.365 . S
C114 N119 1.328 . S
C114 H120 0.929 . S
C115 C116 1.362 . S
C115 C118 1.378 1_556 S
C115 H130 0.929 . S
C116 C115 1.362 . S
C116 C117 1.366 1_556 S
C117 C114 1.365 . S
C117 C116 1.366 1_554 S
C117 H131 0.930 . S
C118 C115 1.378 1_554 S
C118 N119 1.315 . S
C118 H121 0.930 . S
N119 Co99 2.194 . S
N119 C114 1.328 . S
N119 C118 1.315 . S
H120 C114 0.929 . S
H121 C118 0.930 . S
H122 C110 0.929 . S
H123 C112 0.929 . S
O124 Co99 2.351 . S
O124 C127 1.244 . S
O125 Co99 2.155 . S
O125 C127 1.240 . S
O126 Co99 2.096 . S
O126 C107 1.247 . S
C127 O124 1.244 . S
C127 O125 1.240 . S
H128 C102 0.931 . S
H129 C111 0.931 . S
H130 C115 0.929 . S
H131 C117 0.930 . S
Co132 N136 2.148 . S
Co132 N142 2.128 . S
Co132 N152 2.194 . S
Co132 O157 2.351 . S
Co132 O158 2.155 . S
Co132 O159 2.096 . S
C133 N136 1.301 . S
C133 N137 1.328 . S
C133 H138 0.930 . S
C134 C135 1.333 . S
C134 N136 1.317 . S
C134 H139 0.930 . S
C135 C134 1.333 . S
C135 N137 1.350 . S
C135 H161 0.931 . S
N136 Co132 2.148 . S
N136 C133 1.301 . S
N136 C134 1.317 . S
N137 C133 1.328 . S
N137 C135 1.350 . S
H138 C133 0.930 . S
H139 C134 0.930 . S
C140 O141 1.224 . S
C140 O159 1.247 . S
O141 C140 1.224 . S
N142 Co132 2.128 . S
N142 C143 1.355 . S
N142 C145 1.311 . S
C143 N142 1.355 . S
C143 C144 1.363 . S
C143 H155 0.929 . S
C144 C143 1.363 . S
C144 N146 1.375 . S
C144 H162 0.931 . S
C145 N142 1.311 . S
C145 N146 1.347 . S
C145 H156 0.929 . S
N146 C144 1.375 . S
N146 C145 1.347 . S
C147 C150 1.365 . S
C147 N152 1.328 . S
C147 H153 0.929 . S
C148 C149 1.362 . S
C148 C151 1.378 . S
C148 H163 0.929 . S
C149 C148 1.362 . S
C149 C150 1.366 . S
C150 C147 1.365 . S
C150 C149 1.366 . S
C150 H164 0.930 . S
C151 C148 1.378 . S
C151 N152 1.315 . S
C151 H154 0.930 . S
N152 Co132 2.194 . S
N152 C147 1.328 . S
N152 C151 1.315 . S
H153 C147 0.929 . S
H154 C151 0.930 . S
H155 C143 0.929 . S
H156 C145 0.929 . S
O157 Co132 2.351 . S
O157 C160 1.244 . S
O158 Co132 2.155 . S
O158 C160 1.240 . S
O159 Co132 2.096 . S
O159 C140 1.247 . S
C160 O157 1.244 . S
C160 O158 1.240 . S
H161 C135 0.931 . S
H162 C144 0.931 . S
H163 C148 0.929 . S
H164 C150 0.930 . S
Co165 N169 2.148 . S
Co165 N175 2.128 . S
Co165 N185 2.194 . S
Co165 O190 2.351 . S
Co165 O191 2.155 . S
Co165 O192 2.096 . S
C166 N169 1.301 . S
C166 N170 1.328 . S
C166 H171 0.930 . S
C167 C168 1.333 . S
C167 N169 1.317 . S
C167 H172 0.930 . S
C168 C167 1.333 . S
C168 N170 1.350 . S
C168 H194 0.931 . S
N169 Co165 2.148 . S
N169 C166 1.301 . S
N169 C167 1.317 . S
N170 C166 1.328 . S
N170 C168 1.350 . S
H171 C166 0.930 . S
H172 C167 0.930 . S
C173 O174 1.224 . S
C173 O192 1.247 . S
O174 C173 1.224 . S
N175 Co165 2.128 . S
N175 C176 1.355 . S
N175 C178 1.311 . S
C176 N175 1.355 . S
C176 C177 1.363 . S
C176 H188 0.929 . S
C177 C176 1.363 . S
C177 N179 1.375 . S
C177 H195 0.931 . S
C178 N175 1.311 . S
C178 N179 1.347 . S
C178 H189 0.929 . S
N179 C177 1.375 . S
N179 C178 1.347 . S
C180 C183 1.365 . S
C180 N185 1.328 . S
C180 H186 0.929 . S
C181 C182 1.362 . S
C181 C184 1.378 . S
C181 H196 0.929 . S
C182 C181 1.362 . S
C182 C183 1.366 . S
C183 C180 1.365 . S
C183 C182 1.366 . S
C183 H197 0.930 . S
C184 C181 1.378 . S
C184 N185 1.315 . S
C184 H187 0.930 . S
N185 Co165 2.194 . S
N185 C180 1.328 . S
N185 C184 1.315 . S
H186 C180 0.929 . S
H187 C184 0.930 . S
H188 C176 0.929 . S
H189 C178 0.929 . S
O190 Co165 2.351 . S
O190 C193 1.244 . S
O191 Co165 2.155 . S
O191 C193 1.240 . S
O192 Co165 2.096 . S
O192 C173 1.247 . S
C193 O190 1.244 . S
C193 O191 1.240 . S
H194 C168 0.931 . S
H195 C177 0.931 . S
H196 C181 0.929 . S
H197 C183 0.930 . S
H198 C206 0.929 . S
H199 C208 0.930 . S
H200 C210 0.930 . S
H201 C213 0.929 . S
H202 C216 0.930 . S
H203 C218 0.960 . S
H204 C218 0.960 . S
H205 C218 0.960 . S
C206 H198 0.929 . S
C206 C207 1.377 . S
C206 C208 1.384 . S
C207 C206 1.377 . S
C207 C213 1.390 1_554 S
C208 H199 0.930 . S
C208 C206 1.384 . S
C208 C209 1.372 . S
C209 C208 1.372 . S
C209 C210 1.400 1_554 S
C209 C214 1.490 . S
C210 H200 0.930 . S
C210 C209 1.400 1_556 S
C210 C213 1.386 . S
H211 C227 0.930 . S
H212 C228 0.931 . S
C213 H201 0.929 . S
C213 C207 1.390 1_556 S
C213 C210 1.386 . S
C214 C209 1.490 . S
C214 C216 1.395 . S
C214 C217 1.403 . S
H215 C221 0.930 . S
C216 H202 0.930 . S
C216 C214 1.395 . S
C216 C219 1.403 . S
C217 C214 1.403 . S
C217 C218 1.524 . S
C217 C221 1.400 . S
C218 H203 0.960 . S
C218 H204 0.960 . S
C218 H205 0.960 . S
C218 C217 1.524 . S
C219 C216 1.403 . S
C219 C220 1.392 . S
C219 C223 1.495 1_554 S
C220 C219 1.392 . S
C220 C221 1.385 . S
C220 C222 1.478 . S
C221 H215 0.930 . S
C221 C217 1.400 . S
C221 C220 1.385 . S
C222 C220 1.478 . S
C222 C224 1.381 . S
C222 C228 1.383 1_554 S
C223 C219 1.495 1_556 S
C223 H229 0.959 . S
C223 H230 0.961 . S
C223 H231 0.960 1_556 S
C224 C222 1.381 . S
C224 C225 1.394 . S
C224 H232 0.930 . S
C225 C224 1.394 . S
C225 C226 1.383 . S
C225 H233 0.929 . S
C226 C225 1.383 . S
C226 C227 1.377 1_554 S
C227 H211 0.930 . S
C227 C226 1.377 1_556 S
C227 C228 1.379 . S
C228 H212 0.931 . S
C228 C222 1.383 1_556 S
C228 C227 1.379 . S
H229 C223 0.959 . S
H230 C223 0.961 . S
H231 C223 0.960 1_554 S
H232 C224 0.930 . S
H233 C225 0.929 . S
H234 C242 0.929 . S
H235 C244 0.930 . S
H236 C246 0.930 . S
H237 C249 0.929 . S
H238 C252 0.930 . S
H239 C254 0.960 . S
H240 C254 0.960 . S
H241 C254 0.960 . S
C242 H234 0.929 . S
C242 C243 1.377 . S
C242 C244 1.384 . S
C243 C242 1.377 . S
C243 C249 1.390 . S
C244 H235 0.930 . S
C244 C242 1.384 . S
C244 C245 1.372 . S
C245 C244 1.372 . S
C245 C246 1.400 . S
C245 C250 1.490 . S
C246 H236 0.930 . S
C246 C245 1.400 . S
C246 C249 1.386 . S
H247 C263 0.930 . S
H248 C264 0.931 . S
C249 H237 0.929 . S
C249 C243 1.390 . S
C249 C246 1.386 . S
C250 C245 1.490 . S
C250 C252 1.395 1_655 S
C250 C253 1.403 . S
H251 C257 0.930 . S
C252 H238 0.930 . S
C252 C250 1.395 1_455 S
C252 C255 1.403 . S
C253 C250 1.403 . S
C253 C254 1.524 . S
C253 C257 1.400 . S
C254 H239 0.960 . S
C254 H240 0.960 . S
C254 H241 0.960 . S
C254 C253 1.524 . S
C255 C252 1.403 . S
C255 C256 1.392 . S
C255 C259 1.495 . S
C256 C255 1.392 . S
C256 C257 1.385 1_455 S
C256 C258 1.478 . S
C257 H251 0.930 . S
C257 C253 1.400 . S
C257 C256 1.385 1_655 S
C258 C256 1.478 . S
C258 C260 1.381 . S
C258 C264 1.383 . S
C259 C255 1.495 . S
C259 H265 0.959 . S
C259 H266 0.961 . S
C259 H267 0.960 . S
C260 C258 1.381 . S
C260 C261 1.394 . S
C260 H268 0.930 . S
C261 C260 1.394 . S
C261 C262 1.383 . S
C261 H269 0.929 . S
C262 C261 1.383 . S
C262 C263 1.377 . S
C263 H247 0.930 . S
C263 C262 1.377 . S
C263 C264 1.379 . S
C264 H248 0.931 . S
C264 C258 1.383 . S
C264 C263 1.379 . S
H265 C259 0.959 . S
H266 C259 0.961 . S
H267 C259 0.960 . S
H268 C260 0.930 . S
H269 C261 0.929 . S
H270 C278 0.929 . S
H271 C280 0.930 . S
H272 C282 0.930 . S
H273 C285 0.929 . S
H274 C288 0.930 . S
H275 C290 0.960 . S
H276 C290 0.960 . S
H277 C290 0.960 . S
C278 H270 0.929 . S
C278 C279 1.377 . S
C278 C280 1.384 . S
C279 C278 1.377 . S
C279 C285 1.390 . S
C280 H271 0.930 . S
C280 C278 1.384 . S
C280 C281 1.372 . S
C281 C280 1.372 . S
C281 C282 1.400 . S
C281 C286 1.490 . S
C282 H272 0.930 . S
C282 C281 1.400 . S
C282 C285 1.386 . S
H283 C299 0.930 . S
H284 C300 0.931 . S
C285 H273 0.929 . S
C285 C279 1.390 . S
C285 C282 1.386 . S
C286 C281 1.490 . S
C286 C288 1.395 1_545 S
C286 C289 1.403 . S
H287 C293 0.930 . S
C288 H274 0.930 . S
C288 C286 1.395 1_565 S
C288 C291 1.403 . S
C289 C286 1.403 . S
C289 C290 1.524 . S
C289 C293 1.400 . S
C290 H275 0.960 . S
C290 H276 0.960 . S
C290 H277 0.960 . S
C290 C289 1.524 . S
C291 C288 1.403 . S
C291 C292 1.392 . S
C291 C295 1.495 . S
C292 C291 1.392 . S
C292 C293 1.385 1_565 S
C292 C294 1.478 . S
C293 H287 0.930 . S
C293 C289 1.400 . S
C293 C292 1.385 1_545 S
C294 C292 1.478 . S
C294 C296 1.381 . S
C294 C300 1.383 . S
C295 C291 1.495 . S
C295 H301 0.959 . S
C295 H302 0.961 . S
C295 H303 0.960 . S
C296 C294 1.381 . S
C296 C297 1.394 . S
C296 H304 0.930 . S
C297 C296 1.394 . S
C297 C298 1.383 . S
C297 H305 0.929 . S
C298 C297 1.383 . S
C298 C299 1.377 . S
C299 H283 0.930 . S
C299 C298 1.377 . S
C299 C300 1.379 . S
C300 H284 0.931 . S
C300 C294 1.383 . S
C300 C299 1.379 . S
H301 C295 0.959 . S
H302 C295 0.961 . S
H303 C295 0.960 . S
H304 C296 0.930 . S
H305 C297 0.929 . S
H306 C314 0.929 . S
H307 C316 0.930 . S
H308 C318 0.930 . S
H309 C321 0.929 . S
H310 C324 0.930 . S
H311 C326 0.960 . S
H312 C326 0.960 . S
H313 C326 0.960 . S
C314 H306 0.929 . S
C314 C315 1.377 . S
C314 C316 1.384 . S
C315 C314 1.377 . S
C315 C321 1.390 . S
C316 H307 0.930 . S
C316 C314 1.384 . S
C316 C317 1.372 . S
C317 C316 1.372 . S
C317 C318 1.400 . S
C317 C322 1.490 . S
C318 H308 0.930 . S
C318 C317 1.400 . S
C318 C321 1.386 . S
H319 C335 0.930 . S
H320 C336 0.931 . S
C321 H309 0.929 . S
C321 C315 1.390 . S
C321 C318 1.386 . S
C322 C317 1.490 . S
C322 C324 1.395 . S
C322 C325 1.403 . S
H323 C329 0.930 . S
C324 H310 0.930 . S
C324 C322 1.395 . S
C324 C327 1.403 . S
C325 C322 1.403 . S
C325 C326 1.524 . S
C325 C329 1.400 . S
C326 H311 0.960 . S
C326 H312 0.960 . S
C326 H313 0.960 . S
C326 C325 1.524 . S
C327 C324 1.403 . S
C327 C328 1.392 . S
C327 C331 1.495 . S
C328 C327 1.392 . S
C328 C329 1.385 . S
C328 C330 1.478 . S
C329 H323 0.930 . S
C329 C325 1.400 . S
C329 C328 1.385 . S
C330 C328 1.478 . S
C330 C332 1.381 . S
C330 C336 1.383 . S
C331 C327 1.495 . S
C331 H337 0.959 . S
C331 H338 0.961 . S
C331 H339 0.960 . S
C332 C330 1.381 . S
C332 C333 1.394 . S
C332 H340 0.930 . S
C333 C332 1.394 . S
C333 C334 1.383 . S
C333 H341 0.929 . S
C334 C333 1.383 . S
C334 C335 1.377 . S
C335 H319 0.930 . S
C335 C334 1.377 . S
C335 C336 1.379 . S
C336 H320 0.931 . S
C336 C330 1.383 . S
C336 C335 1.379 . S
H337 C331 0.959 . S
H338 C331 0.961 . S
H339 C331 0.960 . S
H340 C332 0.930 . S
H341 C333 0.929 . S
H342 C350 0.929 . S
H343 C352 0.930 . S
H344 C354 0.930 . S
H345 C357 0.929 . S
H346 C360 0.930 . S
H347 C362 0.962 . S
H348 C362 0.953 1_556 S
H349 C362 0.967 . S
C350 H342 0.929 . S
C350 C351 1.377 . S
C350 C352 1.384 . S
C351 C350 1.377 . S
C351 C357 1.390 1_556 S
C352 H343 0.930 . S
C352 C350 1.384 . S
C352 C353 1.372 . S
C353 C352 1.372 . S
C353 C354 1.400 1_556 S
C353 C358 1.490 . S
C354 H344 0.930 . S
C354 C353 1.400 1_554 S
C354 C357 1.386 . S
H355 C371 0.930 . S
H356 C372 0.931 . S
C357 H345 0.929 . S
C357 C351 1.390 1_554 S
C357 C354 1.386 . S
C358 C353 1.490 . S
C358 C360 1.395 1_655 S
C358 C361 1.403 . S
H359 C365 0.936 . S
C360 H346 0.930 . S
C360 C358 1.395 1_455 S
C360 C363 1.403 . S
C361 C358 1.403 . S
C361 C362 1.522 1_556 S
C361 C365 1.400 . S
C362 H347 0.962 . S
C362 H348 0.953 1_554 S
C362 H349 0.967 . S
C362 C361 1.522 1_554 S
C363 C360 1.403 . S
C363 C364 1.392 . S
C363 C367 1.495 . S
C364 C363 1.392 . S
C364 C365 1.385 1_455 S
C364 C366 1.478 . S
C365 H359 0.936 . S
C365 C361 1.400 . S
C365 C364 1.385 1_655 S
C366 C364 1.478 . S
C366 C368 1.381 . S
C366 C372 1.383 1_556 S
C367 C363 1.495 . S
C367 H373 0.959 . S
C367 H374 0.961 . S
C367 H375 0.960 . S
C368 C366 1.381 . S
C368 C369 1.394 . S
C368 H376 0.930 . S
C369 C368 1.394 . S
C369 C370 1.383 . S
C369 H377 0.929 . S
C370 C369 1.383 . S
C370 C371 1.377 1_556 S
C371 H355 0.930 . S
C371 C370 1.377 1_554 S
C371 C372 1.379 . S
C372 H356 0.931 . S
C372 C366 1.383 1_554 S
C372 C371 1.379 . S
H373 C367 0.959 . S
H374 C367 0.961 . S
H375 C367 0.960 . S
H376 C368 0.930 . S
H377 C369 0.929 . S
H378 C386 0.929 . S
H379 C388 0.930 1_545 S
H380 C390 0.930 . S
H381 C393 0.929 . S
H382 C396 0.930 . S
H383 C398 0.960 . S
H384 C398 0.960 . S
H385 C398 0.960 . S
C386 H378 0.929 . S
C386 C387 1.377 . S
C386 C388 1.384 . S
C387 C386 1.377 . S
C387 C393 1.390 . S
C388 H379 0.930 1_565 S
C388 C386 1.384 . S
C388 C389 1.372 . S
C389 C388 1.372 . S
C389 C390 1.400 . S
C389 C394 1.490 . S
C390 H380 0.930 . S
C390 C389 1.400 . S
C390 C393 1.386 . S
H391 C407 0.930 . S
H392 C408 0.931 . S
C393 H381 0.929 . S
C393 C387 1.390 . S
C393 C390 1.386 . S
C394 C389 1.490 . S
C394 C396 1.395 1_565 S
C394 C397 1.403 . S
H395 C401 0.930 . S
C396 H382 0.930 . S
C396 C394 1.395 1_545 S
C396 C399 1.403 . S
C397 C394 1.403 . S
C397 C398 1.524 . S
C397 C401 1.400 . S
C398 H383 0.960 . S
C398 H384 0.960 . S
C398 H385 0.960 . S
C398 C397 1.524 . S
C399 C396 1.403 . S
C399 C400 1.392 . S
C399 C403 1.495 . S
C400 C399 1.392 . S
C400 C401 1.385 1_545 S
C400 C402 1.478 . S
C401 H395 0.930 . S
C401 C397 1.400 . S
C401 C400 1.385 1_565 S
C402 C400 1.478 . S
C402 C404 1.381 . S
C402 C408 1.383 . S
C403 C399 1.495 . S
C403 H409 0.959 . S
C403 H410 0.961 . S
C403 H411 0.960 . S
C404 C402 1.381 . S
C404 C405 1.394 . S
C404 H412 0.930 . S
C405 C404 1.394 . S
C405 C406 1.383 . S
C405 H413 0.929 . S
C406 C405 1.383 . S
C406 C407 1.377 . S
C407 H391 0.930 . S
C407 C406 1.377 . S
C407 C408 1.379 . S
C408 H392 0.931 . S
C408 C402 1.383 . S
C408 C407 1.379 . S
H409 C403 0.959 . S
H410 C403 0.961 . S
H411 C403 0.960 . S
H412 C404 0.930 . S
H413 C405 0.929 . S
H414 C422 0.929 . S
H415 C424 0.930 . S
H416 C426 0.930 . S
H417 C429 0.929 . S
H418 C432 0.930 . S
H419 C434 0.960 . S
H420 C434 0.960 . S
H421 C434 0.960 . S
C422 H414 0.929 . S
C422 C423 1.377 1_556 S
C422 C424 1.384 . S
C423 C422 1.377 1_554 S
C423 C429 1.390 . S
C424 H415 0.930 . S
C424 C422 1.384 . S
C424 C425 1.372 1_556 S
C425 C424 1.372 1_554 S
C425 C426 1.400 . S
C425 C430 1.490 . S
C426 H416 0.930 . S
C426 C425 1.400 . S
C426 C429 1.386 . S
H427 C443 0.930 . S
H428 C444 0.931 . S
C429 H417 0.929 . S
C429 C423 1.390 . S
C429 C426 1.386 . S
C430 C425 1.490 . S
C430 C432 1.395 1_554 S
C430 C433 1.403 1_455 S
H431 C437 0.930 . S
C432 H418 0.930 . S
C432 C430 1.395 1_556 S
C432 C435 1.403 1_545 S
C433 C430 1.403 1_655 S
C433 C434 1.524 . S
C433 C437 1.400 1_545 S
C434 H419 0.960 . S
C434 H420 0.960 . S
C434 H421 0.960 . S
C434 C433 1.524 . S
C435 C432 1.403 1_565 S
C435 C436 1.392 1_456 S
C435 C439 1.495 . S
C436 C435 1.392 1_654 S
C436 C437 1.385 . S
C436 C438 1.478 . S
C437 H431 0.930 . S
C437 C433 1.400 1_565 S
C437 C436 1.385 . S
C438 C436 1.478 . S
C438 C440 1.381 1_554 S
C438 C444 1.383 . S
C439 C435 1.495 . S
C439 H445 0.959 . S
C439 H446 0.961 . S
C439 H447 0.960 . S
C440 C438 1.381 1_556 S
C440 C441 1.394 . S
C440 H448 0.930 . S
C441 C440 1.394 . S
C441 C442 1.383 1_556 S
C441 H449 0.929 . S
C442 C441 1.383 1_554 S
C442 C443 1.377 . S
C443 H427 0.930 . S
C443 C442 1.377 . S
C443 C444 1.379 . S
C444 H428 0.931 . S
C444 C438 1.383 . S
C444 C443 1.379 . S
H445 C439 0.959 . S
H446 C439 0.961 . S
H447 C439 0.960 . S
H448 C440 0.930 . S
H449 C441 0.929 . S
H450 C458 0.929 . S
H451 C460 0.930 1_545 S
H452 C462 0.930 1_655 S
H453 C465 0.929 . S
H454 C468 0.930 . S
H455 C470 0.960 . S
H456 C470 0.960 1_455 S
H457 C470 0.960 . S
C458 H450 0.929 . S
C458 C459 1.377 . S
C458 C460 1.384 . S
C459 C458 1.377 . S
C459 C465 1.390 . S
C460 H451 0.930 1_565 S
C460 C458 1.384 . S
C460 C461 1.372 . S
C461 C460 1.372 . S
C461 C462 1.400 . S
C461 C466 1.490 . S
C462 H452 0.930 1_455 S
C462 C461 1.400 . S
C462 C465 1.386 . S
H463 C479 0.930 . S
H464 C480 0.936 . S
C465 H453 0.929 . S
C465 C459 1.390 . S
C465 C462 1.386 . S
C466 C461 1.490 . S
C466 C468 1.395 1_565 S
C466 C469 1.403 1_455 S
H467 C473 0.930 . S
C468 H454 0.930 . S
C468 C466 1.395 1_545 S
C468 C471 1.403 . S
C469 C466 1.403 1_655 S
C469 C470 1.524 . S
C469 C473 1.400 . S
C470 H455 0.960 . S
C470 H456 0.960 1_655 S
C470 H457 0.960 . S
C470 C469 1.524 . S
C471 C468 1.403 . S
C471 C472 1.392 1_455 S
C471 C475 1.495 . S
C472 C471 1.392 1_655 S
C472 C473 1.385 1_545 S
C472 C474 1.478 . S
C473 H467 0.930 . S
C473 C469 1.400 . S
C473 C472 1.385 1_565 S
C474 C472 1.478 . S
C474 C476 1.381 . S
C474 C480 1.383 . S
C475 C471 1.495 . S
C475 H481 0.959 . S
C475 H482 0.961 . S
C475 H483 0.960 . S
C476 C474 1.381 . S
C476 C477 1.394 . S
C476 H484 0.930 1_655 S
C477 C476 1.394 . S
C477 C478 1.383 . S
C477 H485 0.929 . S
C478 C477 1.383 . S
C478 C479 1.377 . S
C479 H463 0.930 . S
C479 C478 1.377 . S
C479 C480 1.379 . S
C480 H464 0.936 . S
C480 C474 1.383 . S
C480 C479 1.379 . S
H481 C475 0.959 . S
H482 C475 0.961 . S
H483 C475 0.960 . S
H484 C476 0.930 1_455 S
H485 C477 0.929 . S
H486 C494 0.929 . S
H487 C496 0.930 . S
H488 C498 0.930 . S
H489 C501 0.929 . S
H490 C504 0.930 . S
H491 C506 0.960 . S
H492 C506 0.960 . S
H493 C506 0.960 . S
C494 H486 0.929 . S
C494 C495 1.377 . S
C494 C496 1.384 . S
C495 C494 1.377 . S
C495 C501 1.390 . S
C496 H487 0.930 . S
C496 C494 1.384 . S
C496 C497 1.372 . S
C497 C496 1.372 . S
C497 C498 1.400 . S
C497 C502 1.490 . S
C498 H488 0.930 . S
C498 C497 1.400 . S
C498 C501 1.386 . S
H499 C515 0.930 . S
H500 C516 0.931 . S
C501 H489 0.929 . S
C501 C495 1.390 . S
C501 C498 1.386 . S
C502 C497 1.490 . S
C502 C504 1.395 . S
C502 C505 1.403 1_545 S
H503 C509 0.930 . S
C504 H490 0.930 . S
C504 C502 1.395 . S
C504 C507 1.403 1_455 S
C505 C502 1.403 1_565 S
C505 C506 1.524 . S
C505 C509 1.400 1_455 S
C506 H491 0.960 . S
C506 H492 0.960 . S
C506 H493 0.960 . S
C506 C505 1.524 . S
C507 C504 1.403 1_655 S
C507 C508 1.392 1_545 S
C507 C511 1.495 . S
C508 C507 1.392 1_565 S
C508 C509 1.385 . S
C508 C510 1.478 . S
C509 H503 0.930 . S
C509 C505 1.400 1_655 S
C509 C508 1.385 . S
C510 C508 1.478 . S
C510 C512 1.381 . S
C510 C516 1.383 . S
C511 C507 1.495 . S
C511 H517 0.959 . S
C511 H518 0.961 . S
C511 H519 0.960 . S
C512 C510 1.381 . S
C512 C513 1.394 . S
C512 H520 0.930 . S
C513 C512 1.394 . S
C513 C514 1.383 . S
C513 H521 0.929 . S
C514 C513 1.383 . S
C514 C515 1.377 . S
C515 H499 0.930 . S
C515 C514 1.377 . S
C515 C516 1.379 . S
C516 H500 0.931 . S
C516 C510 1.383 . S
C516 C515 1.379 . S
H517 C511 0.959 . S
H518 C511 0.961 . S
H519 C511 0.960 . S
H520 C512 0.930 . S
H521 C513 0.929 . S
H522 C530 0.929 . S
H523 C532 0.930 . S
H524 C534 0.930 . S
H525 C537 0.929 . S
H526 C540 0.930 . S
H527 C542 0.960 . S
H528 C542 0.960 . S
H529 C542 0.960 . S
C530 H522 0.929 . S
C530 C531 1.377 . S
C530 C532 1.384 . S
C531 C530 1.377 . S
C531 C537 1.390 . S
C532 H523 0.930 . S
C532 C530 1.384 . S
C532 C533 1.372 . S
C533 C532 1.372 . S
C533 C534 1.400 . S
C533 C538 1.490 . S
C534 H524 0.930 . S
C534 C533 1.400 . S
C534 C537 1.386 . S
H535 C551 0.930 . S
H536 C552 0.931 . S
C537 H525 0.929 . S
C537 C531 1.390 . S
C537 C534 1.386 . S
C538 C533 1.490 . S
C538 C540 1.395 . S
C538 C541 1.403 . S
H539 C545 0.930 . S
C540 H526 0.930 . S
C540 C538 1.395 . S
C540 C543 1.403 . S
C541 C538 1.403 . S
C541 C542 1.524 . S
C541 C545 1.400 . S
C542 H527 0.960 . S
C542 H528 0.960 . S
C542 H529 0.960 . S
C542 C541 1.524 . S
C543 C540 1.403 . S
C543 C544 1.392 . S
C543 C547 1.495 . S
C544 C543 1.392 . S
C544 C545 1.385 . S
C544 C546 1.478 . S
C545 H539 0.930 . S
C545 C541 1.400 . S
C545 C544 1.385 . S
C546 C544 1.478 . S
C546 C548 1.381 . S
C546 C552 1.383 . S
C547 C543 1.495 . S
C547 H553 0.959 . S
C547 H554 0.961 . S
C547 H555 0.960 . S
C548 C546 1.381 . S
C548 C549 1.394 . S
C548 H556 0.930 . S
C549 C548 1.394 . S
C549 C550 1.383 . S
C549 H557 0.929 . S
C550 C549 1.383 . S
C550 C551 1.377 . S
C551 H535 0.930 . S
C551 C550 1.377 . S
C551 C552 1.379 . S
C552 H536 0.931 . S
C552 C546 1.383 . S
C552 C551 1.379 . S
H553 C547 0.959 . S
H554 C547 0.961 . S
H555 C547 0.960 . S
H556 C548 0.930 . S
H557 C549 0.929 . S
H558 C566 0.929 . S
H559 C568 0.930 . S
H560 C570 0.930 . S
H561 C573 0.929 . S
H562 C576 0.930 . S
H563 C578 0.960 . S
H564 C578 0.960 . S
H565 C578 0.960 . S
C566 H558 0.929 . S
C566 C567 1.377 . S
C566 C568 1.384 . S
C567 C566 1.377 . S
C567 C573 1.390 . S
C568 H559 0.930 . S
C568 C566 1.384 . S
C568 C569 1.372 . S
C569 C568 1.372 . S
C569 C570 1.400 . S
C569 C574 1.490 . S
C570 H560 0.930 . S
C570 C569 1.400 . S
C570 C573 1.386 . S
H571 C587 0.930 . S
H572 C588 0.931 . S
C573 H561 0.929 . S
C573 C567 1.390 . S
C573 C570 1.386 . S
C574 C569 1.490 . S
C574 C576 1.395 1_455 S
C574 C577 1.403 . S
H575 C581 0.930 . S
C576 H562 0.930 . S
C576 C574 1.395 1_655 S
C576 C579 1.403 . S
C577 C574 1.403 . S
C577 C578 1.524 . S
C577 C581 1.400 . S
C578 H563 0.960 . S
C578 H564 0.960 . S
C578 H565 0.960 . S
C578 C577 1.524 . S
C579 C576 1.403 . S
C579 C580 1.392 . S
C579 C583 1.495 . S
C580 C579 1.392 . S
C580 C581 1.385 1_655 S
C580 C582 1.478 . S
C581 H575 0.930 . S
C581 C577 1.400 . S
C581 C580 1.385 1_455 S
C582 C580 1.478 . S
C582 C584 1.381 . S
C582 C588 1.383 . S
C583 C579 1.495 . S
C583 H589 0.959 . S
C583 H590 0.961 . S
C583 H591 0.960 . S
C584 C582 1.381 . S
C584 C585 1.394 . S
C584 H592 0.930 . S
C585 C584 1.394 . S
C585 C586 1.383 . S
C585 H593 0.929 . S
C586 C585 1.383 . S
C586 C587 1.377 . S
C587 H571 0.930 . S
C587 C586 1.377 . S
C587 C588 1.379 . S
C588 H572 0.931 . S
C588 C582 1.383 . S
C588 C587 1.379 . S
H589 C583 0.959 . S
H590 C583 0.961 . S
H591 C583 0.960 . S
H592 C584 0.930 . S
H593 C585 0.929 . S
H594 C602 0.929 . S
H595 C604 0.930 . S
H596 C606 0.930 . S
H597 C609 0.929 . S
H598 C612 0.930 . S
H599 C614 0.960 . S
H600 C614 0.960 . S
H601 C614 0.960 . S
C602 H594 0.929 . S
C602 C603 1.377 . S
C602 C604 1.384 . S
C603 C602 1.377 . S
C603 C609 1.390 . S
C604 H595 0.930 . S
C604 C602 1.384 . S
C604 C605 1.372 . S
C605 C604 1.372 . S
C605 C606 1.400 . S
C605 C610 1.490 . S
C606 H596 0.930 . S
C606 C605 1.400 . S
C606 C609 1.386 . S
H607 C623 0.930 . S
H608 C624 0.931 . S
C609 H597 0.929 . S
C609 C603 1.390 . S
C609 C606 1.386 . S
C610 C605 1.490 . S
C610 C612 1.395 . S
C610 C613 1.403 1_545 S
H611 C617 0.930 . S
C612 H598 0.930 . S
C612 C610 1.395 . S
C612 C615 1.403 . S
C613 C610 1.403 1_565 S
C613 C614 1.524 . S
C613 C617 1.400 . S
C614 H599 0.960 . S
C614 H600 0.960 . S
C614 H601 0.960 . S
C614 C613 1.524 . S
C615 C612 1.403 . S
C615 C616 1.392 1_545 S
C615 C619 1.495 . S
C616 C615 1.392 1_565 S
C616 C617 1.385 . S
C616 C618 1.478 . S
C617 H611 0.930 . S
C617 C613 1.400 . S
C617 C616 1.385 . S
C618 C616 1.478 . S
C618 C620 1.381 . S
C618 C624 1.383 . S
C619 C615 1.495 . S
C619 H625 0.959 . S
C619 H626 0.961 . S
C619 H627 0.960 . S
C620 C618 1.381 . S
C620 C621 1.394 . S
C620 H628 0.930 . S
C621 C620 1.394 . S
C621 C622 1.383 . S
C621 H629 0.929 . S
C622 C621 1.383 . S
C622 C623 1.377 . S
C623 H607 0.930 . S
C623 C622 1.377 . S
C623 C624 1.379 . S
C624 H608 0.931 . S
C624 C618 1.383 . S
C624 C623 1.379 . S
H625 C619 0.959 . S
H626 C619 0.961 . S
H627 C619 0.960 . S
H628 C620 0.930 . S
H629 C621 0.929 . S
H630 C638 0.929 . S
H631 C640 0.930 . S
H632 C642 0.930 . S
H633 C645 0.929 . S
H634 C648 0.930 . S
H635 C650 0.960 . S
H636 C650 0.960 . S
H637 C650 0.960 . S
C638 H630 0.929 . S
C638 C639 1.377 . S
C638 C640 1.384 . S
C639 C638 1.377 . S
C639 C645 1.390 . S
C640 H631 0.930 . S
C640 C638 1.384 . S
C640 C641 1.372 . S
C641 C640 1.372 . S
C641 C642 1.400 . S
C641 C646 1.490 . S
C642 H632 0.930 . S
C642 C641 1.400 . S
C642 C645 1.386 . S
H643 C659 0.930 . S
H644 C660 0.931 . S
C645 H633 0.929 . S
C645 C639 1.390 . S
C645 C642 1.386 . S
C646 C641 1.490 . S
C646 C648 1.395 . S
C646 C649 1.403 . S
H647 C653 0.930 . S
C648 H634 0.930 . S
C648 C646 1.395 . S
C648 C651 1.403 . S
C649 C646 1.403 . S
C649 C650 1.524 . S
C649 C653 1.400 . S
C650 H635 0.960 . S
C650 H636 0.960 . S
C650 H637 0.960 . S
C650 C649 1.524 . S
C651 C648 1.403 . S
C651 C652 1.392 . S
C651 C655 1.495 . S
C652 C651 1.392 . S
C652 C653 1.385 . S
C652 C654 1.478 . S
C653 H647 0.930 . S
C653 C649 1.400 . S
C653 C652 1.385 . S
C654 C652 1.478 . S
C654 C656 1.381 . S
C654 C660 1.383 . S
C655 C651 1.495 . S
C655 H661 0.959 . S
C655 H662 0.961 . S
C655 H663 0.960 . S
C656 C654 1.381 . S
C656 C657 1.394 . S
C656 H664 0.930 . S
C657 C656 1.394 . S
C657 C658 1.383 . S
C657 H665 0.929 . S
C658 C657 1.383 . S
C658 C659 1.377 . S
C659 H643 0.930 . S
C659 C658 1.377 . S
C659 C660 1.379 . S
C660 H644 0.931 . S
C660 C654 1.383 . S
C660 C659 1.379 . S
H661 C655 0.959 . S
H662 C655 0.961 . S
H663 C655 0.960 . S
H664 C656 0.930 . S
H665 C657 0.929 . S
H666 C674 0.929 . S
H667 C676 0.930 1_455 S
H668 C678 0.930 . S
H669 C681 0.929 . S
H670 C684 0.921 . S
H671 C686 0.960 . S
H672 C686 0.960 . S
H673 C686 0.960 . S
C674 H666 0.929 . S
C674 C675 1.377 . S
C674 C676 1.384 . S
C675 C674 1.377 . S
C675 C681 1.390 . S
C676 H667 0.930 1_655 S
C676 C674 1.384 . S
C676 C677 1.372 . S
C677 C676 1.372 . S
C677 C678 1.400 . S
C677 C682 1.490 . S
C678 H668 0.930 . S
C678 C677 1.400 . S
C678 C681 1.386 . S
H679 C695 0.930 . S
H680 C696 0.931 1_655 S
C681 H669 0.929 . S
C681 C675 1.390 . S
C681 C678 1.386 . S
C682 C677 1.490 . S
C682 C684 1.392 1_655 S
C682 C685 1.403 . S
H683 C689 0.930 . S
C684 H670 0.921 . S
C684 C682 1.392 1_455 S
C684 C687 1.416 . S
C685 C682 1.403 . S
C685 C686 1.524 . S
C685 C689 1.400 . S
C686 H671 0.960 . S
C686 H672 0.960 . S
C686 H673 0.960 . S
C686 C685 1.524 . S
C687 C684 1.416 . S
C687 C688 1.392 . S
C687 C691 1.495 . S
C688 C687 1.392 . S
C688 C689 1.385 1_455 S
C688 C690 1.478 . S
C689 H683 0.930 . S
C689 C685 1.400 . S
C689 C688 1.385 1_655 S
C690 C688 1.478 . S
C690 C692 1.381 . S
C690 C696 1.383 . S
C691 C687 1.495 . S
C691 H697 0.959 . S
C691 H698 0.961 . S
C691 H699 0.960 . S
C692 C690 1.381 . S
C692 C693 1.394 . S
C692 H700 0.930 . S
C693 C692 1.394 . S
C693 C694 1.383 . S
C693 H701 0.929 . S
C694 C693 1.383 . S
C694 C695 1.377 . S
C695 H679 0.930 . S
C695 C694 1.377 . S
C695 C696 1.379 . S
C696 H680 0.931 1_455 S
C696 C690 1.383 . S
C696 C695 1.379 . S
H697 C691 0.959 . S
H698 C691 0.961 . S
H699 C691 0.960 . S
H700 C692 0.930 . S
H701 C693 0.929 . S
H702 C710 0.929 . S
H703 C712 0.934 . S
H704 C714 0.930 . S
H705 C717 0.929 . S
H706 C720 0.930 . S
H707 C722 0.960 . S
H708 C722 0.960 . S
H709 C722 0.960 1_545 S
C710 H702 0.929 . S
C710 C711 1.377 . S
C710 C712 1.384 . S
C711 C710 1.377 . S
C711 C717 1.390 . S
C712 H703 0.934 . S
C712 C710 1.384 . S
C712 C713 1.372 . S
C713 C712 1.372 . S
C713 C714 1.400 . S
C713 C718 1.490 . S
C714 H704 0.930 . S
C714 C713 1.400 . S
C714 C717 1.386 . S
H715 C731 0.930 . S
H716 C732 0.931 . S
C717 H705 0.929 . S
C717 C711 1.390 . S
C717 C714 1.386 . S
C718 C713 1.490 . S
C718 C720 1.395 . S
C718 C721 1.403 1_545 S
H719 C725 0.930 . S
C720 H706 0.930 . S
C720 C718 1.395 . S
C720 C723 1.403 1_545 S
C721 C718 1.403 1_565 S
C721 C722 1.524 . S
C721 C725 1.400 . S
C722 H707 0.960 . S
C722 H708 0.960 . S
C722 H709 0.960 1_565 S
C722 C721 1.524 . S
C723 C720 1.403 1_565 S
C723 C724 1.392 . S
C723 C727 1.495 . S
C724 C723 1.392 . S
C724 C725 1.385 . S
C724 C726 1.478 . S
C725 H719 0.930 . S
C725 C721 1.400 . S
C725 C724 1.385 . S
C726 C724 1.478 . S
C726 C728 1.381 . S
C726 C732 1.383 . S
C727 C723 1.495 . S
C727 H733 0.959 1_565 S
C727 H734 0.961 1_565 S
C727 H735 0.960 . S
C728 C726 1.381 . S
C728 C729 1.394 . S
C728 H736 0.930 . S
C729 C728 1.394 . S
C729 C730 1.383 . S
C729 H737 0.929 . S
C730 C729 1.383 . S
C730 C731 1.377 . S
C731 H715 0.930 . S
C731 C730 1.377 . S
C731 C732 1.379 . S
C732 H716 0.931 . S
C732 C726 1.383 . S
C732 C731 1.379 . S
H733 C727 0.959 1_545 S
H734 C727 0.961 1_545 S
H735 C727 0.960 . S
H736 C728 0.930 . S
H737 C729 0.929 . S
C207 C8 1.927 . S
C226 C107 1.914 . S
C243 C41 1.925 . S
C262 C140 1.922 . S
C279 C173 1.925 . S
C298 C74 1.921 . S
C315 C83 0.592 . S
C334 C182 0.601 . S
C351 C116 0.594 . S
C370 C17 0.591 . S
C387 C149 0.596 . S
C406 C50 0.570 . S
C423 C28 0.510 . S
C442 C127 0.517 . S
C459 C160 0.514 . S
C478 C61 0.488 . S
C495 C193 0.510 . S
C514 C94 0.498 . S
C531 N14 1.695 . S
C550 N170 1.766 . S
C567 N5 1.775 . S
C586 N47 1.682 . S
C603 N38 1.776 . S
C622 N80 1.695 . S
C639 N71 1.776 . S
C658 N113 1.665 . S
C675 N104 1.776 . S
C694 N146 1.665 . S
C711 N179 1.694 . S
C730 N137 1.775 . S
