# Generated by pormake.
# Topology wjh, (4)-cn, num edge types: 1
# Building blocks:
#     Node 0, Type 0, BuildingBlock: KUFVIS_clean_sbu_0, # of connection points: 4
#     Node 1, Type 0, BuildingBlock: KUFVIS_clean_sbu_0, # of connection points: 4
#     Node 2, Type 0, BuildingBlock: KUFVIS_clean_sbu_0, # of connection points: 4
#     Node 3, Type 0, BuildingBlock: KUFVIS_clean_sbu_0, # of connection points: 4
#     Node 4, Type 0, BuildingBlock: KUFVIS_clean_sbu_0, # of connection points: 4
#     Node 5, Type 0, BuildingBlock: KUFVIS_clean_sbu_0, # of connection points: 4
#     Node 6, Type 0, BuildingBlock: KUFVIS_clean_sbu_0, # of connection points: 4
#     Node 7, Type 0, BuildingBlock: KUFVIS_clean_sbu_0, # of connection points: 4
#     Node 8, Type 0, BuildingBlock: KUFVIS_clean_sbu_0, # of connection points: 4
#     Node 9, Type 0, BuildingBlock: KUFVIS_clean_sbu_0, # of connection points: 4
#     Node 10, Type 0, BuildingBlock: KUFVIS_clean_sbu_0, # of connection points: 4
#     Node 11, Type 0, BuildingBlock: KUFVIS_clean_sbu_0, # of connection points: 4
#     Edge 12, Type (0, 0), BuildingBlock: EZIPEK_clean_linker_0, # of connection points: 2
#     Edge 13, Type (0, 0), BuildingBlock: EZIPEK_clean_linker_0, # of connection points: 2
#     Edge 14, Type (0, 0), BuildingBlock: EZIPEK_clean_linker_0, # of connection points: 2
#     Edge 15, Type (0, 0), BuildingBlock: EZIPEK_clean_linker_0, # of connection points: 2
#     Edge 16, Type (0, 0), BuildingBlock: EZIPEK_clean_linker_0, # of connection points: 2
#     Edge 17, Type (0, 0), BuildingBlock: EZIPEK_clean_linker_0, # of connection points: 2
#     Edge 18, Type (0, 0), BuildingBlock: EZIPEK_clean_linker_0, # of connection points: 2
#     Edge 19, Type (0, 0), BuildingBlock: EZIPEK_clean_linker_0, # of connection points: 2
#     Edge 20, Type (0, 0), BuildingBlock: EZIPEK_clean_linker_0, # of connection points: 2
#     Edge 21, Type (0, 0), BuildingBlock: EZIPEK_clean_linker_0, # of connection points: 2
#     Edge 22, Type (0, 0), BuildingBlock: EZIPEK_clean_linker_0, # of connection points: 2
#     Edge 23, Type (0, 0), BuildingBlock: EZIPEK_clean_linker_0, # of connection points: 2
#     Edge 24, Type (0, 0), BuildingBlock: EZIPEK_clean_linker_0, # of connection points: 2
#     Edge 25, Type (0, 0), BuildingBlock: EZIPEK_clean_linker_0, # of connection points: 2
#     Edge 26, Type (0, 0), BuildingBlock: EZIPEK_clean_linker_0, # of connection points: 2
#     Edge 27, Type (0, 0), BuildingBlock: EZIPEK_clean_linker_0, # of connection points: 2
#     Edge 28, Type (0, 0), BuildingBlock: EZIPEK_clean_linker_0, # of connection points: 2
#     Edge 29, Type (0, 0), BuildingBlock: EZIPEK_clean_linker_0, # of connection points: 2
#     Edge 30, Type (0, 0), BuildingBlock: EZIPEK_clean_linker_0, # of connection points: 2
#     Edge 31, Type (0, 0), BuildingBlock: EZIPEK_clean_linker_0, # of connection points: 2
#     Edge 32, Type (0, 0), BuildingBlock: EZIPEK_clean_linker_0, # of connection points: 2
#     Edge 33, Type (0, 0), BuildingBlock: EZIPEK_clean_linker_0, # of connection points: 2
#     Edge 34, Type (0, 0), BuildingBlock: EZIPEK_clean_linker_0, # of connection points: 2
#     Edge 35, Type (0, 0), BuildingBlock: EZIPEK_clean_linker_0, # of connection points: 2
# Relax obj value: 0.089
# Max RMSD: 0.110
# Mean RMSD: 0.110
data_MOF--net-wjh--node1-KUFVIS_clean_sbu_0--edge1-EZIPEK_clean_linker_0
_symmetry_space_group_name_H-M    P1
_symmetry_Int_Tables_number       1
_symmetry_cell_setting            triclinic
loop_
_symmetry_equiv_pos_as_xyz
'x, y, z'
_cell_length_a     45.093477
_cell_length_b     45.121546
_cell_length_c     19.289201
_cell_angle_alpha  89.858005
_cell_angle_beta   90.249049
_cell_angle_gamma 119.87418
loop_
_atom_site_label
_atom_site_type_symbol
_atom_site_fract_x
_atom_site_fract_y
_atom_site_fract_z
_atom_type_partial_charge
Mn0 Mn 0.5388 0.16121 0.05673 0.0
Mn1 Mn 0.59169 0.12872 0.03378 0.0
C2 C 0.56015 0.14618 0.15068 0.0
C3 C 0.53251 0.20922 0.07926 0.0
C4 C 0.51384 0.08529 0.0241 0.0
O5 O 0.55301 0.17328 0.9549 0.0
O6 O 0.58753 0.15063 0.94859 0.0
C7 C 0.65392 0.19675 0.01949 0.0
N8 N 0.6367 0.16602 0.05233 0.0
C9 C 0.6815 0.18348 0.13767 0.0
C10 C 0.69961 0.2153 0.10473 0.0
C11 C 0.68576 0.22194 0.04531 0.0
C12 C 0.64963 0.1596 0.11014 0.0
H13 H 0.64335 0.2021 0.97425 0.0
C14 C 0.57396 0.16705 0.92238 0.0
O15 O 0.50713 0.18088 0.05558 0.0
O16 O 0.56173 0.21052 0.08308 0.0
N17 N 0.59976 0.10674 0.11059 0.0
C18 C 0.58336 0.07257 0.12452 0.0
C19 C 0.59551 0.06021 0.17806 0.0
C20 C 0.6254 0.08286 0.21429 0.0
C21 C 0.64369 0.11728 0.19432 0.0
C22 C 0.63048 0.12787 0.13988 0.0
H23 H 0.56078 0.05498 0.09573 0.0
O24 O 0.53324 0.14917 0.15672 0.0
O25 O 0.57418 0.1524 0.09 0.0
O26 O 0.50744 0.10979 0.03301 0.0
O27 O 0.54424 0.08956 0.02069 0.0
C28 C 0.6753 0.14109 0.22401 0.0
C29 C 0.69401 0.17435 0.19622 0.0
H30 H 0.72427 0.23471 0.12428 0.0
H31 H 0.69957 0.24643 0.0195 0.0
H32 H 0.5819 0.03333 0.19127 0.0
H33 H 0.63469 0.07331 0.25566 0.0
H34 H 0.6858 0.13386 0.26719 0.0
H35 H 0.71846 0.19237 0.21897 0.0
Mn36 Mn 0.39181 0.53506 0.22896 0.0
Mn37 Mn 0.47825 0.57524 0.2359 0.0
C38 C 0.41949 0.54652 0.3359 0.0
C39 C 0.34193 0.53986 0.22569 0.0
C40 C 0.43278 0.49901 0.20584 0.0
O41 O 0.40588 0.55313 0.1294 0.0
O42 O 0.46247 0.58428 0.1475 0.0
C43 C 0.48674 0.64464 0.24017 0.0
N44 N 0.49355 0.62078 0.26743 0.0
C45 C 0.52492 0.6579 0.36233 0.0
C46 C 0.51855 0.683 0.3349 0.0
C47 C 0.4992 0.67626 0.27375 0.0
C48 C 0.51106 0.62656 0.32755 0.0
H49 H 0.47162 0.63948 0.1935 0.0
C50 C 0.43616 0.57439 0.10913 0.0
O51 O 0.34171 0.51222 0.20605 0.0
O52 O 0.37153 0.56464 0.24406 0.0
N53 N 0.49989 0.57051 0.31729 0.0
C54 C 0.50902 0.54625 0.32884 0.0
C55 C 0.53142 0.55041 0.38356 0.0
C56 C 0.54547 0.58018 0.42405 0.0
C57 C 0.53756 0.60583 0.40847 0.0
C58 C 0.51551 0.60041 0.35251 0.0
H59 H 0.49932 0.52383 0.29643 0.0
O60 O 0.38723 0.52447 0.33063 0.0
O61 O 0.43433 0.56194 0.27896 0.0
O62 O 0.40392 0.49766 0.21159 0.0
O63 O 0.46186 0.52681 0.20825 0.0
C64 C 0.55168 0.63707 0.44461 0.0
C65 C 0.54483 0.66287 0.4223 0.0
H66 H 0.52848 0.70756 0.36019 0.0
H67 H 0.49397 0.69541 0.25247 0.0
H68 H 0.53807 0.53086 0.39405 0.0
H69 H 0.56274 0.58332 0.46619 0.0
H70 H 0.56818 0.64168 0.48905 0.0
H71 H 0.55581 0.6868 0.45045 0.0
Mn72 Mn 0.87982 0.38506 0.38745 0.0
Mn73 Mn 0.92677 0.47081 0.36772 0.0
C74 C 0.88617 0.41922 0.48213 0.0
C75 C 0.82861 0.3327 0.39883 0.0
C76 C 0.95809 0.42529 0.37967 0.0
O77 O 0.87566 0.3898 0.283 0.0
O78 O 0.90946 0.44704 0.27886 0.0
C79 C 0.87578 0.48728 0.3091 0.0
N80 N 0.9007 0.49325 0.35633 0.0
C81 C 0.90437 0.54607 0.39172 0.0
C82 C 0.87849 0.54034 0.34398 0.0
C83 C 0.86397 0.51068 0.30286 0.0
C84 C 0.91459 0.52151 0.39658 0.0
H85 H 0.86514 0.46495 0.27628 0.0
C86 C 0.88994 0.41823 0.25038 0.0
O87 O 0.85725 0.33385 0.38456 0.0
O88 O 0.829 0.3616 0.3994 0.0
N89 N 0.94554 0.49863 0.44801 0.0
C90 C 0.96952 0.49975 0.49267 0.0
C91 C 0.98665 0.52776 0.53752 0.0
C92 C 0.97951 0.55472 0.53474 0.0
C93 C 0.95501 0.5532 0.48774 0.0
C94 C 0.93858 0.52448 0.44484 0.0
H95 H 0.97627 0.47992 0.49243 0.0
O96 O 0.88491 0.39004 0.4881 0.0
O97 O 0.88909 0.43105 0.4187 0.0
O98 O 0.9304 0.39671 0.38012 0.0
O99 O 0.95873 0.45362 0.377 0.0
C100 C 0.94603 0.57891 0.4821 0.0
C101 C 0.92043 0.57514 0.43471 0.0
H102 H 0.86958 0.55851 0.33847 0.0
H103 H 0.84408 0.50614 0.26573 0.0
H104 H 1.00591 0.52894 0.57286 0.0
H105 H 0.99313 0.57661 0.56851 0.0
H106 H 0.95824 0.60139 0.51478 0.0
H107 H 0.9133 0.59476 0.43173 0.0
Mn108 Mn 0.50612 0.86956 0.55969 0.0
Mn109 Mn 0.45617 0.90624 0.55647 0.0
C110 C 0.48792 0.88201 0.66283 0.0
C111 C 0.51102 0.82013 0.56529 0.0
C112 C 0.53369 0.94599 0.53569 0.0
O113 O 0.48982 0.86326 0.45723 0.0
O114 O 0.45331 0.88314 0.46936 0.0
C115 C 0.39098 0.84039 0.55318 0.0
N116 N 0.41115 0.87165 0.58238 0.0
C117 C 0.36899 0.86079 0.66968 0.0
C118 C 0.34765 0.82858 0.64031 0.0
C119 C 0.35881 0.81825 0.58204 0.0
C120 C 0.40124 0.88124 0.64006 0.0
H121 H 0.39949 0.83231 0.50848 0.0
C122 C 0.46682 0.86944 0.43345 0.0
O123 O 0.53632 0.84908 0.54435 0.0
O124 O 0.48229 0.81917 0.57632 0.0
N125 N 0.45463 0.93058 0.63582 0.0
C126 C 0.47467 0.96489 0.64687 0.0
C127 C 0.46539 0.98102 0.69739 0.0
C128 C 0.4347 0.96213 0.73372 0.0
C129 C 0.41336 0.92742 0.71872 0.0
C130 C 0.42376 0.91292 0.66687 0.0
H131 H 0.49753 0.98 0.61689 0.0
O132 O 0.51346 0.87653 0.66231 0.0
O133 O 0.47331 0.87945 0.60358 0.0
O134 O 0.53907 0.92089 0.54368 0.0
O135 O 0.50378 0.94295 0.53451 0.0
C136 C 0.38118 0.9073 0.74989 0.0
C137 C 0.35924 0.87374 0.72615 0.0
H138 H 0.32259 0.81168 0.66175 0.0
H139 H 0.34256 0.79338 0.55919 0.0
H140 H 0.48145 1.00811 0.70712 0.0
H141 H 0.42699 0.97496 0.7704 0.0
H142 H 0.37276 0.91764 0.79105 0.0
H143 H 0.3344 0.85863 0.74985 0.0
Mn144 Mn 0.64008 0.48563 0.74336 0.0
Mn145 Mn 0.55402 0.43934 0.75395 0.0
C146 C 0.61373 0.46846 0.85012 0.0
C147 C 0.69333 0.48773 0.74937 0.0
C148 C 0.59236 0.51641 0.73805 0.0
O149 O 0.62719 0.46898 0.64306 0.0
O150 O 0.57011 0.44237 0.65853 0.0
C151 C 0.54737 0.3729 0.71308 0.0
N152 N 0.54125 0.39207 0.75917 0.0
C153 C 0.50894 0.3432 0.83247 0.0
C154 C 0.51471 0.32293 0.78566 0.0
C155 C 0.53416 0.3379 0.72583 0.0
C156 C 0.52285 0.37797 0.81706 0.0
H157 H 0.56216 0.38412 0.66684 0.0
C158 C 0.59641 0.45205 0.6205 0.0
O159 O 0.69102 0.51382 0.72742 0.0
O160 O 0.66477 0.45956 0.75688 0.0
N161 N 0.53437 0.43303 0.84373 0.0
C162 C 0.53114 0.45602 0.88372 0.0
C163 C 0.51443 0.44557 0.94755 0.0
C164 C 0.50095 0.41156 0.96884 0.0
C165 C 0.50197 0.38771 0.92448 0.0
C166 C 0.5193 0.39967 0.86184 0.0
H167 H 0.54097 0.48192 0.86677 0.0
O168 O 0.64407 0.49433 0.84367 0.0
O169 O 0.59903 0.45296 0.79252 0.0
O170 O 0.62236 0.52016 0.73047 0.0
O171 O 0.56553 0.4876 0.74973 0.0
C172 C 0.48707 0.35271 0.94064 0.0
C173 C 0.49036 0.33039 0.89435 0.0
H174 H 0.5046 0.29593 0.79541 0.0
H175 H 0.53888 0.32248 0.68953 0.0
H176 H 0.51164 0.46352 0.97977 0.0
H177 H 0.49036 0.40394 0.0196 0.0
H178 H 0.47335 0.34279 -0.0112 0.0
H179 H 0.47914 0.30359 0.90745 0.0
Mn180 Mn 0.16228 0.641 0.9053 0.0
Mn181 Mn 0.12714 0.55498 0.90801 0.0
C182 C 0.14554 0.61105 0.00979 0.0
C183 C 0.21232 0.69498 0.91597 0.0
C184 C 0.08733 0.59136 0.8705 0.0
O185 O 0.17215 0.63041 0.80649 0.0
O186 O 0.15293 0.57441 0.82256 0.0
C187 C 0.19352 0.55675 0.91877 0.0
N188 N 0.16134 0.54561 0.94305 0.0
C189 C 0.16995 0.51552 0.03694 0.0
C190 C 0.20309 0.52643 0.01272 0.0
C191 C 0.215 0.54733 0.9536 0.0
C192 C 0.15013 0.52662 0.00133 0.0
H193 H 0.2028 0.57287 0.87341 0.0
C194 C 0.16676 0.60122 0.78521 0.0
O195 O 0.18453 0.69199 0.88866 0.0
O196 O 0.21186 0.66681 0.93026 0.0
N197 N 0.10082 0.53041 -0.01313 0.0
C198 C 0.06655 0.51747 -0.00423 0.0
C199 C 0.04928 0.49302 0.04757 0.0
C200 C 0.06712 0.48121 0.08832 0.0
C201 C 0.102 0.49371 0.07647 0.0
C202 C 0.11766 0.51757 0.02311 0.0
H203 H 0.05232 0.52541 0.96296 0.0
O204 O 0.1507 0.64184 0.00535 0.0
O205 O 0.15107 0.59903 0.95364 0.0
O206 O 0.11174 0.62213 0.8788 0.0
O207 O 0.09082 0.56484 0.87587 0.0
C208 C 0.12139 0.48216 0.11318 0.0
C209 C 0.15556 0.49356 0.09419 0.0
H210 H 0.21953 0.51878 0.03889 0.0
H211 H 0.24059 0.55599 0.93471 0.0
H212 H 0.02219 0.48297 0.05547 0.0
H213 H 0.05361 0.46213 0.12771 0.0
H214 H 0.11015 0.46405 0.15526 0.0
H215 H 0.17015 0.48435 0.12245 0.0
Mn216 Mn 0.86668 0.48784 0.84943 0.0
Mn217 Mn 0.90586 0.44087 0.83485 0.0
C218 C 0.87402 0.47029 0.74164 0.0
C219 C 0.81698 0.49174 0.85217 0.0
C220 C 0.94503 0.51779 0.84895 0.0
O221 O 0.86511 0.47188 0.94977 0.0
O222 O 0.89495 0.44491 0.9312 0.0
C223 C 0.84578 0.37568 0.87967 0.0
N224 N 0.8709 0.39381 0.83261 0.0
C225 C 0.85408 0.34349 0.76385 0.0
C226 C 0.82822 0.32425 0.81174 0.0
C227 C 0.82392 0.34048 0.8697 0.0
C228 C 0.87483 0.37858 0.77617 0.0
H229 H 0.84244 0.38788 0.92459 0.0
C230 C 0.87944 0.45516 0.97095 0.0
O231 O 0.84616 0.51729 0.87194 0.0
O232 O 0.81605 0.46311 0.84025 0.0
N233 N 0.91764 0.43318 0.74463 0.0
C234 C 0.94346 0.45538 0.70288 0.0
C235 C 0.95013 0.44337 0.64136 0.0
C236 C 0.93056 0.40862 0.62442 0.0
C237 C 0.90547 0.38593 0.66976 0.0
C238 C 0.89973 0.39937 0.72992 0.0
H239 H 0.95904 0.48183 0.71691 0.0
O240 O 0.86874 0.49571 0.74872 0.0
O241 O 0.87415 0.45487 0.79884 0.0
O242 O 0.91895 0.5216 0.85836 0.0
O243 O 0.94302 0.48899 0.83637 0.0
C244 C 0.88572 0.35055 0.65709 0.0
C245 C 0.85993 0.32932 0.70409 0.0
H246 H 0.8114 0.29706 0.80431 0.0
H247 H 0.80392 0.32586 0.9068 0.0
H248 H 0.97058 0.46068 0.60785 0.0
H249 H 0.93448 0.39933 0.57634 0.0
H250 H 0.88997 0.33952 0.61105 0.0
H251 H 0.84456 0.30222 0.69351 0.0
Mn252 Mn 0.39073 0.86474 0.01941 0.0
Mn253 Mn 0.47638 0.8965 0.0376 0.0
C254 C 0.42493 0.87747 0.92288 0.0
C255 C 0.33554 0.81741 0.00602 0.0
C256 C 0.44296 0.94093 0.04639 0.0
O257 O 0.39501 0.85493 0.122 0.0
O258 O 0.45195 0.87626 0.1249 0.0
C259 C 0.47012 0.82833 0.05519 0.0
N260 N 0.48338 0.85861 0.02064 0.0
C261 C 0.51041 0.84006 0.93746 0.0
C262 C 0.49698 0.80869 0.97223 0.0
C263 C 0.47673 0.80281 0.03136 0.0
C264 C 0.50235 0.86424 0.96289 0.0
H265 H 0.4545 0.82364 0.10035 0.0
C266 C 0.42257 0.86111 0.15326 0.0
O267 O 0.34003 0.84677 0.02667 0.0
O268 O 0.36269 0.81495 -0.00185 0.0
N269 N 0.50543 0.91721 0.95933 0.0
C270 C 0.52346 0.95127 0.94436 0.0
C271 C 0.54798 0.96302 0.89132 0.0
C272 C 0.55508 0.93991 0.85675 0.0
C273 C 0.53867 0.90562 0.8777 0.0
C274 C 0.51479 0.89562 0.93151 0.0
H275 H 0.51879 0.96928 0.97218 0.0
O276 O 0.39482 0.87421 0.91812 0.0
O277 O 0.43405 0.87234 -0.01642 0.0
O278 O 0.41193 0.91663 0.03898 0.0
O279 O 0.46889 0.93629 0.04945 0.0
C280 C 0.54647 0.88146 0.85 0.0
C281 C 0.53199 0.84851 0.87936 0.0
H282 H 0.50231 0.78908 0.95437 0.0
H283 H 0.46628 0.77869 0.0586 0.0
H284 H 0.56147 0.98981 0.87738 0.0
H285 H 0.57399 0.94901 0.81583 0.0
H286 H 0.56426 0.88822 0.80736 0.0
H287 H 0.53852 0.83027 0.85834 0.0
Mn288 Mn 0.52748 0.37817 0.20508 0.0
Mn289 Mn 0.56563 0.46408 0.22286 0.0
C290 C 0.55382 0.41217 0.1094 0.0
C291 C 0.52642 0.3258 0.19275 0.0
C292 C 0.48902 0.41813 0.21325 0.0
O293 O 0.53735 0.38341 0.30938 0.0
O294 O 0.55913 0.44043 0.31171 0.0
C295 C 0.63288 0.4793 0.28036 0.0
N296 N 0.61407 0.48601 0.2341 0.0
C297 C 0.66361 0.5383 0.19835 0.0
C298 C 0.68356 0.53194 0.24549 0.0
C299 C 0.66816 0.50218 0.2863 0.0
C300 C 0.62867 0.51439 0.19421 0.0
H301 H 0.62106 0.4568 0.31269 0.0
C302 C 0.55066 0.41203 0.34128 0.0
O303 O 0.49914 0.32698 0.209 0.0
O304 O 0.55482 0.35471 0.19107 0.0
N305 N 0.57492 0.49222 0.14281 0.0
C306 C 0.55223 0.49404 0.09876 0.0
C307 C 0.56349 0.52218 0.05395 0.0
C308 C 0.59784 0.54839 0.05569 0.0
C309 C 0.62065 0.54619 0.10212 0.0
C310 C 0.60788 0.51771 0.14587 0.0
H311 H 0.52553 0.47468 0.09943 0.0
O312 O 0.52625 0.38273 0.10429 0.0
O313 O 0.56334 0.42416 0.17242 0.0
O314 O 0.4886 0.38973 0.21492 0.0
O315 O 0.51644 0.44675 0.21327 0.0
C316 C 0.65556 0.57114 0.10669 0.0
C317 C 0.67709 0.56705 0.15438 0.0
H318 H 0.71076 0.54959 0.25041 0.0
H319 H 0.68338 0.49708 0.32277 0.0
H320 H 0.54557 0.52404 0.01925 0.0
H321 H 0.60644 0.57021 0.02156 0.0
H322 H 0.66619 0.59338 0.07323 0.0
H323 H 0.70399 0.5861 0.15658 0.0
Mn324 Mn 0.17239 0.53949 0.36552 0.0
Mn325 Mn 0.13175 0.58431 0.39554 0.0
C326 C 0.15127 0.55692 0.27444 0.0
C327 C 0.22246 0.53827 0.33992 0.0
C328 C 0.09626 0.50677 0.40268 0.0
O329 O 0.18563 0.55426 0.46641 0.0
O330 O 0.15614 0.582 0.47886 0.0
C331 C 0.19616 0.65044 0.41083 0.0
N332 N 0.16549 0.63102 0.37866 0.0
C333 C 0.17724 0.67623 0.29763 0.0
C334 C 0.20896 0.69663 0.3299 0.0
C335 C 0.21845 0.68365 0.38678 0.0
C336 C 0.15641 0.64308 0.3231 0.0
H337 H 0.20365 0.64061 0.45422 0.0
C338 C 0.17604 0.57176 0.50202 0.0
O339 O 0.19599 0.51166 0.36588 0.0
O340 O 0.2207 0.56594 0.33488 0.0
N341 N 0.10674 0.59006 0.32153 0.0
C342 C 0.07249 0.57075 0.30908 0.0
C343 C 0.05713 0.58146 0.25898 0.0
C344 C 0.07684 0.61269 0.22443 0.0
C345 C 0.11128 0.63361 0.24281 0.0
C346 C 0.12491 0.62171 0.29401 0.0
H347 H 0.05708 0.5471 0.33674 0.0
O348 O 0.15812 0.5325 0.26649 0.0
O349 O 0.15789 0.57127 0.33503 0.0
O350 O 0.12311 0.50434 0.39373 0.0
O351 O 0.09639 0.53528 0.40679 0.0
C352 C 0.13204 0.66654 0.21515 0.0
C353 C 0.16522 0.6877 0.24195 0.0
H354 H 0.22609 0.72237 0.31186 0.0
H355 H 0.24288 0.69923 0.41208 0.0
H356 H 0.03019 0.56572 0.24712 0.0
H357 H 0.06498 0.62087 0.18567 0.0
H358 H 0.12244 0.67617 0.1745 0.0
H359 H 0.18083 0.71314 0.2209 0.0
Mn360 Mn 0.65077 0.16496 0.51648 0.0
Mn361 Mn 0.56425 0.12735 0.51789 0.0
C362 C 0.61985 0.15009 0.41388 0.0
C363 C 0.70426 0.21517 0.50389 0.0
C364 C 0.6026 0.08799 0.53917 0.0
O365 O 0.64165 0.17307 0.61801 0.0
O366 O 0.58472 0.14811 0.60656 0.0
C367 C 0.56589 0.19362 0.53008 0.0
N368 N 0.55474 0.16328 0.4967 0.0
C369 C 0.52669 0.17866 0.40904 0.0
C370 C 0.5377 0.20995 0.44266 0.0
C371 C 0.55751 0.21751 0.50331 0.0
C372 C 0.53672 0.15631 0.43701 0.0
H373 H 0.58131 0.19972 0.57647 0.0
C374 C 0.61188 0.16376 0.6425 0.0
O375 O 0.70198 0.18726 0.52867 0.0
O376 O 0.67574 0.21491 0.49482 0.0
N377 N 0.53832 0.10554 0.43651 0.0
C378 C 0.52262 0.07143 0.42219 0.0
C379 C 0.49863 0.0579 0.36803 0.0
C380 C 0.48951 0.07921 0.33183 0.0
C381 C 0.5037 0.11349 0.35129 0.0
C382 C 0.52715 0.12531 0.40629 0.0
H383 H 0.52852 0.05467 0.45189 0.0
O384 O 0.65071 0.15536 0.41559 0.0
O385 O 0.60791 0.1542 0.47163 0.0
O386 O 0.63297 0.11383 0.53698 0.0
O387 O 0.57515 0.09002 0.53461 0.0
C388 C 0.49363 0.13565 0.32147 0.0
C389 C 0.50555 0.16846 0.34974 0.0
H390 H 0.5309 0.22825 0.42265 0.0
H391 H 0.56622 0.24166 0.52949 0.0
H392 H 0.48675 0.03104 0.35512 0.0
H393 H 0.47031 0.06865 0.29162 0.0
H394 H 0.47603 0.12739 0.27798 0.0
H395 H 0.49729 0.18514 0.32704 0.0
Mn396 Mn 0.49965 0.64259 0.69139 0.0
Mn397 Mn 0.44391 0.55847 0.71948 0.0
C398 C 0.47746 0.60507 0.5995 0.0
C399 C 0.50833 0.69763 0.6671 0.0
C400 C 0.52109 0.58937 0.72938 0.0
O401 O 0.48643 0.64265 0.79285 0.0
O402 O 0.45062 0.58607 0.80356 0.0
C403 C 0.38413 0.56855 0.734 0.0
N404 N 0.39969 0.55314 0.70183 0.0
C405 C 0.35298 0.52523 0.62089 0.0
C406 C 0.3365 0.54082 0.65327 0.0
C407 C 0.35217 0.56261 0.71005 0.0
C408 C 0.38512 0.53269 0.64624 0.0
H409 H 0.39609 0.58535 0.77733 0.0
C410 C 0.4659 0.61636 0.82798 0.0
O411 O 0.53299 0.69344 0.69124 0.0
O412 O 0.47864 0.67049 0.6622 0.0
N413 N 0.43353 0.52692 0.64495 0.0
C414 C 0.4483 0.50742 0.63266 0.0
C415 C 0.4342 0.48155 0.58228 0.0
C416 C 0.40407 0.47485 0.54746 0.0
C417 C 0.3875 0.49296 0.5659 0.0
C418 C 0.40266 0.51814 0.61718 0.0
H419 H 0.47098 0.51191 0.66063 0.0
O420 O 0.50486 0.63441 0.5922 0.0
O421 O 0.46305 0.59874 0.65993 0.0
O422 O 0.5289 0.62061 0.71925 0.0
O423 O 0.49024 0.5642 0.73211 0.0
C424 C 0.35559 0.48564 0.53834 0.0
C425 C 0.3385 0.50209 0.5653 0.0
H426 H 0.31168 0.53602 0.63536 0.0
H427 H 0.33963 0.57474 0.7354 0.0
H428 H 0.44645 0.46677 0.57047 0.0
H429 H 0.39325 0.45491 0.50854 0.0
H430 H 0.34354 0.46675 0.49773 0.0
H431 H 0.31374 0.49593 0.54443 0.0
C432 C 0.60146 0.17855 0.24382 0.0
C433 C 0.57835 0.14659 0.21368 0.0
C434 C 0.58509 0.11713 0.3125 0.0
C435 C 0.604 0.14864 0.34691 0.0
N436 N 0.62543 0.20948 0.3504 0.0
N437 N 0.54439 0.08508 0.22607 0.0
C438 C 0.61089 0.17951 0.3141 0.0
C439 C 0.56895 0.11595 0.24978 0.0
N440 N 0.61479 0.20781 0.20528 0.0
N441 N 0.58116 0.08781 0.34092 0.0
H442 H 0.53164 0.08184 0.17916 0.0
H443 H 0.53164 0.08184 0.17916 0.0
H444 H 0.58931 0.08739 0.39104 0.0
H445 H 0.5681 0.06416 0.31599 0.0
H446 H 0.63421 0.23132 0.2232 0.0
H447 H 0.60911 0.20794 0.15295 0.0
H448 H 0.62774 0.23205 0.33069 0.0
H449 H 0.63212 0.21103 0.40255 0.0
C450 C 0.42873 0.58657 0.43283 0.0
C451 C 0.43385 0.56049 0.4045 0.0
C452 C 0.46745 0.56316 0.5053 0.0
C453 C 0.45944 0.58648 0.53694 0.0
N454 N 0.42558 0.61437 0.53716 0.0
N455 N 0.45148 0.51858 0.4217 0.0
C456 C 0.43774 0.59619 0.50283 0.0
C457 C 0.45059 0.54673 0.44378 0.0
N458 N 0.41646 0.60302 0.39251 0.0
N459 N 0.49141 0.55638 0.53184 0.0
H460 H 0.44023 0.50649 0.37533 0.0
H461 H 0.46363 0.50784 0.44981 0.0
H462 H 0.50562 0.56787 0.57646 0.0
H463 H 0.50562 0.56787 0.57646 0.0
H464 H 0.41561 0.62456 0.40895 0.0
H465 H 0.41049 0.59742 0.34032 0.0
H466 H 0.40708 0.61928 0.51639 0.0
H467 H 0.43119 0.62139 0.58903 0.0
C468 C 0.88295 0.47757 0.61226 0.0
C469 C 0.87146 0.45586 0.67159 0.0
C470 C 0.85253 0.40636 0.59539 0.0
C471 C 0.87147 0.42939 0.54108 0.0
N472 N 0.86621 0.47563 0.49513 0.0
N473 N 0.82644 0.40016 0.70838 0.0
C474 C 0.87646 0.46237 0.54657 0.0
C475 C 0.85042 0.42008 0.66039 0.0
N476 N 0.89769 0.51218 0.61682 0.0
N477 N 0.83451 0.37205 0.58326 0.0
H478 H 0.82171 0.41008 0.753 0.0
H479 H 0.80877 0.37441 0.70119 0.0
H480 H 0.8295 0.36206 0.53331 0.0
H481 H 0.82331 0.35371 0.622 0.0
H482 H 0.90183 0.52713 0.57282 0.0
H483 H 0.90714 0.5259 0.6626 0.0
H484 H 0.85401 0.46169 0.45058 0.0
H485 H 0.85401 0.46169 0.45058 0.0
C486 C 0.48136 0.91162 0.76602 0.0
C487 C 0.47152 0.88117 0.72891 0.0
C488 C 0.4361 0.848 0.82657 0.0
C489 C 0.44309 0.8789 0.85921 0.0
N490 N 0.4686 0.94013 0.85514 0.0
N491 N 0.43476 0.82007 0.71882 0.0
C492 C 0.4641 0.91057 0.82684 0.0
C493 C 0.44748 0.84916 0.75772 0.0
N494 N 0.50727 0.94224 0.7447 0.0
N495 N 0.41911 0.81771 0.86159 0.0
H496 H 0.44213 0.82001 0.66776 0.0
H497 H 0.41459 0.79662 0.7348 0.0
H498 H 0.41036 0.81595 0.91222 0.0
H499 H 0.41651 0.79489 0.84292 0.0
H500 H 0.5211 0.94529 0.69983 0.0
H501 H 0.5211 0.94529 0.69983 0.0
H502 H 0.48371 0.96401 0.83218 0.0
H503 H 0.45862 0.94052 0.90323 0.0
C504 C 0.57385 0.4016 -0.00724 0.0
C505 C 0.57769 0.42356 0.04897 0.0
C506 C 0.61279 0.47305 0.98091 0.0
C507 C 0.60282 0.45263 0.91955 0.0
N508 N 0.59389 0.3981 0.87792 0.0
N509 N 0.62936 0.46818 0.09572 0.0
C510 C 0.58916 0.41671 0.92802 0.0
C511 C 0.60533 0.45653 0.04505 0.0
N512 N 0.5587 0.36718 0.00294 0.0
N513 N 0.63017 0.50777 0.98156 0.0
H514 H 0.62703 0.45303 0.13864 0.0
H515 H 0.65283 0.49059 0.08932 0.0
H516 H 0.6358 0.52325 0.93792 0.0
H517 H 0.6358 0.52325 0.93792 0.0
H518 H 0.5523 0.34948 0.96314 0.0
H519 H 0.55398 0.35645 0.05232 0.0
H520 H 0.58638 0.37235 0.88285 0.0
H521 H 0.60866 0.40914 0.83393 0.0
C522 C 0.11644 0.56187 0.17849 0.0
C523 C 0.14831 0.5739 0.21213 0.0
C524 C 0.17784 0.60597 0.10919 0.0
C525 C 0.14589 0.59709 0.07842 0.0
N526 N 0.08529 0.57437 0.09174 0.0
N527 N 0.20881 0.61468 0.21641 0.0
C528 C 0.11525 0.57772 0.11592 0.0
C529 C 0.17886 0.59847 0.17985 0.0
N530 N 0.08764 0.53508 0.20547 0.0
N531 N 0.20711 0.62049 0.07078 0.0
H532 H 0.21041 0.61044 0.26903 0.0
H533 H 0.23109 0.63509 0.19638 0.0
H534 H 0.20736 0.62509 0.01791 0.0
H535 H 0.23045 0.62438 0.08979 0.0
H536 H 0.06369 0.52449 0.18194 0.0
H537 H 0.08792 0.52325 0.25167 0.0
H538 H 0.06238 0.56202 0.119 0.0
H539 H 0.08387 0.5853 0.04519 0.0
C540 C 0.50897 0.27966 0.10195 0.0
C541 C 0.52482 0.29381 0.16699 0.0
C542 C 0.54018 0.24888 0.17865 0.0
C543 C 0.52809 0.23729 0.10998 0.0
N544 N 0.50531 0.24501 0.0026 0.0
N545 N 0.55857 0.29409 0.26429 0.0
C546 C 0.51328 0.25333 0.07089 0.0
C547 C 0.54145 0.27912 0.20425 0.0
N548 N 0.48998 0.2915 0.06919 0.0
N549 N 0.54886 0.23002 0.22098 0.0
H550 H 0.55817 0.31482 0.28713 0.0
H551 H 0.5749 0.28735 0.2892 0.0
H552 H 0.54655 0.20681 0.20615 0.0
H553 H 0.55489 0.23535 0.2733 0.0
H554 H 0.47425 0.27927 0.02679 0.0
H555 H 0.48783 0.31209 0.08708 0.0
H556 H 0.4984 0.25863 0.9689 0.0
H557 H 0.50851 0.22631 0.97772 0.0
C558 C 0.31261 0.56967 0.27768 0.0
C559 C 0.30982 0.54149 0.23958 0.0
C560 C 0.24738 0.51224 0.25829 0.0
C561 C 0.25222 0.53706 0.30945 0.0
N562 N 0.2915 0.58683 0.37534 0.0
N563 N 0.27247 0.4879 0.18247 0.0
C564 C 0.28547 0.56495 0.32142 0.0
C565 C 0.27656 0.51316 0.22692 0.0
N566 N 0.34001 0.60165 0.26855 0.0
N567 N 0.21513 0.48941 0.23563 0.0
H568 H 0.29088 0.49133 0.14599 0.0
H569 H 0.25049 0.46394 0.18066 0.0
H570 H 0.19314 0.48874 0.25403 0.0
H571 H 0.2101 0.47297 0.19393 0.0
H572 H 0.34196 0.62325 0.29245 0.0
H573 H 0.35764 0.60729 0.22878 0.0
H574 H 0.31606 0.60589 0.38922 0.0
H575 H 0.27258 0.5835 0.41059 0.0
C576 C 0.73807 0.25581 0.40673 0.0
C577 C 0.73702 0.24408 0.47604 0.0
C578 C 0.79822 0.28625 0.48845 0.0
C579 C 0.79783 0.3007 0.42287 0.0
N580 N 0.76614 0.30158 0.32283 0.0
N581 N 0.76525 0.25175 0.58627 0.0
C582 C 0.76731 0.28627 0.38325 0.0
C583 C 0.76699 0.26007 0.51764 0.0
N584 N 0.71204 0.23678 0.36149 0.0
N585 N 0.82838 0.2976 0.52339 0.0
H586 H 0.74281 0.23329 0.60983 0.0
H587 H 0.78514 0.26529 0.62129 0.0
H588 H 0.85151 0.31791 0.50645 0.0
H589 H 0.8309 0.28513 0.56657 0.0
H590 H 0.71301 0.24211 0.30871 0.0
H591 H 0.69103 0.21344 0.37459 0.0
H592 H 0.74347 0.29487 0.29636 0.0
H593 H 0.78755 0.32251 0.30138 0.0
C594 C 0.50169 0.76089 0.54507 0.0
C595 C 0.51553 0.79076 0.58645 0.0
C596 C 0.52658 0.7604 0.68073 0.0
C597 C 0.5138 0.73084 0.63837 0.0
N598 N 0.49731 0.70589 0.52417 0.0
N599 N 0.54717 0.82131 0.6883 0.0
C600 C 0.50371 0.73197 0.5687 0.0
C601 C 0.53009 0.79128 0.65242 0.0
N602 N 0.48606 0.75994 0.48358 0.0
N603 N 0.53341 0.75846 0.74919 0.0
H604 H 0.54972 0.84423 0.67019 0.0
H605 H 0.56136 0.82423 0.73306 0.0
H606 H 0.53106 0.73638 0.7718 0.0
H607 H 0.53879 0.77776 0.78494 0.0
H608 H 0.47168 0.73765 0.45505 0.0
H609 H 0.48577 0.7812 0.46299 0.0
H610 H 0.49295 0.70655 0.4713 0.0
H611 H 0.49979 0.68495 0.5385 0.0
C612 C 0.75691 0.50813 0.7396 0.0
C613 C 0.72599 0.49105 0.77779 0.0
C614 C 0.75586 0.47662 0.86811 0.0
C615 C 0.78705 0.49555 0.83223 0.0
N616 N 0.81875 0.53437 0.73927 0.0
N617 N 0.69903 0.46678 0.88845 0.0
C618 C 0.78807 0.51315 0.77003 0.0
C619 C 0.72626 0.47739 0.84478 0.0
N620 N 0.75624 0.51768 0.67255 0.0
N621 N 0.75428 0.45748 0.92454 0.0
H622 H 0.67706 0.46754 0.87609 0.0
H623 H 0.69959 0.46054 0.94028 0.0
H624 H 0.77583 0.45822 0.94652 0.0
H625 H 0.73135 0.43928 0.94689 0.0
H626 H 0.77709 0.52673 0.63927 0.0
H627 H 0.7339 0.51349 0.64772 0.0
H628 H 0.82154 0.55067 0.6984 0.0
H629 H 0.84199 0.53803 0.75817 0.0
C630 C 0.25992 0.7559 0.89354 0.0
C631 C 0.24159 0.72839 0.94025 0.0
C632 C 0.28389 0.76042 0.032 0.0
C633 C 0.30136 0.78838 -0.01377 0.0
N634 N 0.30275 0.81564 0.87775 0.0
N635 N 0.23129 0.7086 0.0591 0.0
C636 C 0.2882 0.78706 0.91844 0.0
C637 C 0.25222 0.73185 0.01101 0.0
N638 N 0.25165 0.75164 0.82464 0.0
N639 N 0.29785 0.76086 0.09532 0.0
H640 H 0.20731 0.68819 0.04684 0.0
H641 H 0.23596 0.71152 0.11227 0.0
H642 H 0.32007 0.78202 0.11389 0.0
H643 H 0.28869 0.73953 0.12747 0.0
H644 H 0.26646 0.76916 0.78661 0.0
H645 H 0.23138 0.72923 0.8045 0.0
H646 H 0.29207 0.81752 0.83116 0.0
H647 H 0.3239 0.83857 0.89348 0.0
C648 C 0.57606 0.13905 0.74722 0.0
C649 C 0.60535 0.16728 0.71707 0.0
C650 C 0.61033 0.20092 0.8212 0.0
C651 C 0.5795 0.17315 0.84695 0.0
N652 N 0.52726 0.12174 0.8215 0.0
N653 N 0.6466 0.22766 0.7209 0.0
C654 C 0.5604 0.14436 0.80514 0.0
C655 C 0.62161 0.19913 0.75275 0.0
N656 N 0.56379 0.10671 0.72207 0.0
N657 N 0.62867 0.2288 0.86233 0.0
H658 H 0.65532 0.22728 0.67117 0.0
H659 H 0.65698 0.25209 0.74192 0.0
H660 H 0.61933 0.23146 0.90998 0.0
H661 H 0.65324 0.24831 0.85034 0.0
H662 H 0.5442 0.08513 0.74614 0.0
H663 H 0.57569 0.10114 0.68208 0.0
H664 H 0.51117 0.10163 0.78892 0.0
H665 H 0.51518 0.1256 0.86377 0.0
C666 C 0.48542 0.61093 0.94309 0.0
C667 C 0.46352 0.61834 0.90412 0.0
C668 C 0.42486 0.60212 0.00422 0.0
C669 C 0.44329 0.58776 0.03663 0.0
N670 N 0.48719 0.57187 0.0256 0.0
N671 N 0.41274 0.6227 0.89689 0.0
C672 C 0.47269 0.59055 0.00314 0.0
C673 C 0.43329 0.61453 0.93467 0.0
N674 N 0.51816 0.6226 0.92151 0.0
N675 N 0.40054 0.60524 0.0402 0.0
H676 H 0.42024 0.63465 0.84861 0.0
H677 H 0.38829 0.61676 0.91239 0.0
H678 H 0.39449 0.59758 0.09165 0.0
H679 H 0.38849 0.61815 0.02102 0.0
H680 H 0.53615 0.6201 0.95132 0.0
H681 H 0.52794 0.6376 0.8771 0.0
H682 H 0.50704 0.5713 -0.00072 0.0
H683 H 0.47673 0.55375 0.06508 0.0
C684 C 0.84973 0.42541 0.08203 0.0
C685 C 0.88025 0.44705 0.04516 0.0
C686 C 0.91371 0.43787 0.13403 0.0
C687 C 0.88418 0.42029 0.17544 0.0
N688 N 0.82423 0.4007 0.19306 0.0
N689 N 0.94203 0.47914 0.04319 0.0
C690 C 0.85208 0.41473 0.15053 0.0
C691 C 0.91246 0.45483 0.07347 0.0
N692 N 0.81861 0.41395 0.05098 0.0
N693 N 0.94308 0.43819 0.15293 0.0
H694 H 0.94222 0.49249 -0.00107 0.0
H695 H 0.96611 0.48841 0.06564 0.0
H696 H 0.94427 0.42534 0.19685 0.0
H697 H 0.96473 0.4479 0.12171 0.0
H698 H 0.79579 0.3951 0.07252 0.0
H699 H 0.81578 0.42138 0.00132 0.0
H700 H 0.80134 0.39992 0.18065 0.0
H701 H 0.82465 0.39172 0.24269 0.0
C702 C 0.44143 0.83272 0.32499 0.0
C703 C 0.45628 0.86495 0.35903 0.0
C704 C 0.43249 0.88573 0.26932 0.0
C705 C 0.42329 0.8565 0.22917 0.0
N706 N 0.41771 0.801 0.21769 0.0
N707 N 0.47277 0.92486 0.35218 0.0
C708 C 0.42738 0.82954 0.25678 0.0
C709 C 0.45379 0.89224 0.32764 0.0
N710 N 0.43951 0.80512 0.35837 0.0
N711 N 0.42087 0.90741 0.25143 0.0
H712 H 0.49029 0.93125 0.39266 0.0
H713 H 0.47386 0.94592 0.32728 0.0
H714 H 0.40467 0.9027 0.20898 0.0
H715 H 0.42438 0.9277 0.28285 0.0
H716 H 0.42613 0.78034 0.33886 0.0
H717 H 0.44951 0.80667 0.4079 0.0
H718 H 0.4234 0.78197 0.23073 0.0
H719 H 0.40467 0.79718 0.17073 0.0
C720 C 0.59666 0.42044 0.51248 0.0
C721 C 0.58849 0.44341 0.54623 0.0
C722 C 0.54694 0.43419 0.45522 0.0
C723 C 0.55817 0.41504 0.41656 0.0
N724 N 0.59744 0.39362 0.40418 0.0
N725 N 0.56108 0.47766 0.54188 0.0
C726 C 0.58395 0.40892 0.4441 0.0
C727 C 0.56521 0.45194 0.51499 0.0
N728 N 0.61537 0.40862 0.54635 0.0
N729 N 0.51858 0.43537 0.43431 0.0
H730 H 0.57453 0.49165 0.58531 0.0
H731 H 0.54705 0.48731 0.51726 0.0
H732 H 0.50454 0.42214 0.39079 0.0
H733 H 0.50719 0.44635 0.46362 0.0
H734 H 0.61875 0.38893 0.52725 0.0
H735 H 0.62549 0.41679 0.59587 0.0
H736 H 0.61904 0.39228 0.41857 0.0
H737 H 0.58838 0.38414 0.35469 0.0
C738 C 0.20713 0.60748 0.60611 0.0
C739 C 0.18208 0.57578 0.57762 0.0
C740 C 0.14691 0.56413 0.67975 0.0
C741 C 0.17241 0.59498 0.71163 0.0
N742 N 0.23044 0.64229 0.70974 0.0
N743 N 0.13558 0.51923 0.59801 0.0
C744 C 0.20374 0.61574 0.67621 0.0
C745 C 0.15477 0.55245 0.6187 0.0
N746 N 0.2339 0.62957 0.56586 0.0
N747 N 0.11426 0.54697 0.70483 0.0
H748 H 0.14097 0.51018 0.55277 0.0
H749 H 0.11691 0.50033 0.62934 0.0
H750 H 0.10602 0.55579 0.7461 0.0
H751 H 0.09434 0.52624 0.67922 0.0
H752 H 0.251 0.6547 0.58008 0.0
H753 H 0.23806 0.62259 0.51681 0.0
H754 H 0.25476 0.65638 0.68842 0.0
H755 H 0.22907 0.64854 0.76116 0.0
C756 C 0.47364 0.02773 0.9685 0.0
C757 C 0.48503 0.04913 0.02751 0.0
C758 C 0.46087 0.99855 0.10186 0.0
C759 C 0.45037 0.97712 0.04289 0.0
N760 N 0.42928 0.97309 0.9263 0.0
N761 N 0.46924 0.05229 0.14521 0.0
C762 C 0.4512 0.99208 0.97772 0.0
C763 C 0.47237 0.0339 0.09299 0.0
N764 N 0.48433 0.04094 0.90402 0.0
N765 N 0.46053 0.98571 0.16593 0.0
H766 H 0.47628 0.07796 0.13945 0.0
H767 H 0.45634 0.04058 0.19075 0.0
H768 H 0.45255 0.95999 0.1735 0.0
H769 H 0.47043 1.00129 0.2096 0.0
H770 H 0.47849 0.02555 0.86005 0.0
H771 H 0.50053 0.06698 0.8962 0.0
H772 H 0.42627 0.98449 0.88192 0.0
H773 H 0.4115 0.9472 0.93234 0.0
C774 C 0.44941 0.42899 0.1441 0.0
C775 C 0.45694 0.41967 0.20857 0.0
C776 C 0.42858 0.44724 0.26452 0.0
C777 C 0.43316 0.46635 0.20275 0.0
N778 N 0.44359 0.47189 0.07963 0.0
N779 N 0.44606 0.41235 0.33022 0.0
C780 C 0.44197 0.45597 0.14082 0.0
C781 C 0.4436 0.42604 0.26899 0.0
N782 N 0.44739 0.41041 0.08735 0.0
N783 N 0.40948 0.44877 0.31748 0.0
H784 H 0.45406 0.39425 0.33167 0.0
H785 H 0.44064 0.41912 0.37815 0.0
H786 H 0.39665 0.46257 0.31361 0.0
H787 H 0.40367 0.43385 0.36207 0.0
H788 H 0.43978 0.41438 0.03872 0.0
H789 H 0.44898 0.3882 0.09301 0.0
H790 H 0.45312 0.46718 0.03436 0.0
H791 H 0.43651 0.49061 0.07544 0.0
C792 C 0.04118 0.46388 0.46015 0.0
C793 C 0.06233 0.47493 0.40071 0.0
C794 C 1.01323 0.43561 0.32887 0.0
C795 C 0.99202 0.42765 0.38732 0.0
N796 N 0.98931 0.41738 0.50848 0.0
N797 N 0.07087 0.46046 0.28434 0.0
C798 C 1.00722 0.43645 0.4533 0.0
C799 C 0.04925 0.45711 0.33682 0.0
N800 N 0.05299 0.47981 0.52236 0.0
N801 N 0.99858 0.42341 0.26579 0.0
H802 H 0.09728 0.47599 0.28772 0.0
H803 H 0.06275 0.44526 0.2401 0.0
H804 H 0.97268 0.40515 0.26155 0.0
H805 H 1.01173 0.43154 0.2191 0.0
H806 H 0.03726 0.47432 0.56554 0.0
H807 H 0.07792 0.49989 0.52904 0.0
H808 H 0.99953 0.42107 0.55839 0.0
H809 H 0.96616 0.39487 0.50011 0.0
C810 C 0.57792 0.99826 0.59808 0.0
C811 C 0.56349 0.98135 0.53458 0.0
C812 C 0.59585 0.03633 0.47654 0.0
C813 C 0.59829 0.05304 0.54011 0.0
N814 N 0.59752 0.05029 0.66462 0.0
N815 N 0.56382 0.98427 0.41002 0.0
C816 C 0.59133 0.03415 0.60224 0.0
C817 C 0.57417 1.00035 0.47243 0.0
N818 N 0.5809 0.98055 0.65227 0.0
N819 N 0.61609 0.05434 0.42236 0.0
H820 H 0.55015 0.95767 0.40599 0.0
H821 H 0.56822 0.99755 0.36339 0.0
H822 H 0.63409 0.0803 0.42691 0.0
H823 H 0.61719 0.04284 0.37636 0.0
H824 H 0.59351 0.99218 0.69828 0.0
H825 H 0.57356 0.95473 0.64791 0.0
H826 H 0.58946 0.0371 0.71147 0.0
H827 H 0.61015 0.07689 0.66844 0.0
C828 C 0.58659 0.56355 0.67861 0.0
C829 C 0.58731 0.54668 0.74003 0.0
C830 C 0.55179 0.56561 0.79918 0.0
C831 C 0.54894 0.58077 0.73686 0.0
N832 N 0.57267 0.60372 0.62408 0.0
N833 N 0.58435 0.54543 0.86382 0.0
C834 C 0.56956 0.58315 0.67885 0.0
C835 C 0.5745 0.55247 0.80204 0.0
N836 N 0.60089 0.55966 0.61964 0.0
N837 N 0.53166 0.56219 0.85473 0.0
H838 H 0.60122 0.53598 0.86627 0.0
H839 H 0.57839 0.55202 0.91127 0.0
H840 H 0.51473 0.57157 0.85489 0.0
H841 H 0.53 0.54787 0.89852 0.0
H842 H 0.59736 0.56729 0.57076 0.0
H843 H 0.61557 0.54767 0.61985 0.0
H844 H 0.58969 0.60885 0.58348 0.0
H845 H 0.56037 0.61804 0.62189 0.0
C846 C 0.03235 0.58542 0.91494 0.0
C847 C 0.05204 0.58502 0.85811 0.0
C848 C 0.9999 0.55561 0.78824 0.0
C849 C 0.98016 0.54806 0.84939 0.0
N850 N 0.97653 0.55983 0.96973 0.0
N851 N 0.05589 0.57596 0.73682 0.0
C852 C 0.996 0.56481 0.91223 0.0
C853 C 0.03617 0.57237 0.79316 0.0
N854 N 0.04845 0.60574 0.97076 0.0
N855 N 0.98367 0.54729 0.72563 0.0
H856 H 0.08247 0.59127 0.73826 0.0
H857 H 0.04617 0.56364 0.68969 0.0
H858 H 0.95714 0.53579 0.72142 0.0
H859 H 0.99646 0.55429 0.67861 0.0
H860 H 0.03566 0.60912 0.01208 0.0
H861 H 0.07486 0.62194 0.97242 0.0
H862 H 0.98662 0.56747 0.01935 0.0
H863 H 0.94988 0.54691 0.96794 0.0
loop_
_geom_bond_atom_site_label_1
_geom_bond_atom_site_label_2
_geom_bond_distance
_geom_bond_site_symmetry_2
_ccdc_geom_bond_type
Mn0 O5 2.095 1_554 S
Mn0 O15 2.162 . S
Mn0 O16 2.297 . S
Mn0 O24 2.385 . S
Mn0 O25 2.209 . S
Mn0 O26 2.094 . S
Mn1 O6 2.121 1_554 S
Mn1 N8 2.257 . S
Mn1 N17 2.282 . S
Mn1 O25 2.215 . S
Mn1 O27 2.117 . S
C2 O24 1.234 . S
C2 O25 1.283 . S
C3 O15 1.281 . S
C3 O16 1.236 . S
C4 O26 1.240 . S
C4 O27 1.264 . S
O5 Mn0 2.095 1_556 S
O5 C14 1.250 . S
O6 Mn1 2.121 1_556 S
O6 C14 1.258 . S
C7 N8 1.326 . S
C7 C11 1.460 . S
C7 H13 0.929 . S
N8 Mn1 2.257 . S
N8 C7 1.326 . S
N8 C12 1.362 . S
C9 C10 1.258 . S
C9 C12 1.431 . S
C9 C29 1.449 . S
C10 C9 1.258 . S
C10 C11 1.477 . S
C10 H30 0.931 . S
C11 C7 1.460 . S
C11 C10 1.477 . S
C11 H31 0.930 . S
C12 N8 1.362 . S
C12 C9 1.431 . S
C12 C22 1.476 . S
H13 C7 0.929 . S
C14 O5 1.250 . S
C14 O6 1.258 . S
O15 Mn0 2.162 . S
O15 C3 1.281 . S
O16 Mn0 2.297 . S
O16 C3 1.236 . S
N17 Mn1 2.282 . S
N17 C18 1.328 . S
N17 C22 1.318 . S
C18 N17 1.328 . S
C18 C19 1.457 . S
C18 H23 0.929 . S
C19 C18 1.457 . S
C19 C20 1.291 . S
C19 H32 0.931 . S
C20 C19 1.291 . S
C20 C21 1.373 . S
C20 H33 0.929 . S
C21 C20 1.373 . S
C21 C22 1.396 . S
C21 C28 1.403 . S
C22 C12 1.476 . S
C22 N17 1.318 . S
C22 C21 1.396 . S
H23 C18 0.929 . S
O24 Mn0 2.385 . S
O24 C2 1.234 . S
O25 Mn0 2.209 . S
O25 Mn1 2.215 . S
O25 C2 1.283 . S
O26 Mn0 2.094 . S
O26 C4 1.240 . S
O27 Mn1 2.117 . S
O27 C4 1.264 . S
C28 C21 1.403 . S
C28 C29 1.399 . S
C28 H34 0.929 . S
C29 C9 1.449 . S
C29 C28 1.399 . S
C29 H35 0.930 . S
H30 C10 0.931 . S
H31 C11 0.930 . S
H32 C19 0.931 . S
H33 C20 0.929 . S
H34 C28 0.929 . S
H35 C29 0.930 . S
Mn36 O41 2.095 . S
Mn36 O51 2.162 . S
Mn36 O52 2.297 . S
Mn36 O60 2.385 . S
Mn36 O61 2.209 . S
Mn36 O62 2.094 . S
Mn37 O42 2.121 . S
Mn37 N44 2.257 . S
Mn37 N53 2.282 . S
Mn37 O61 2.215 . S
Mn37 O63 2.117 . S
C38 O60 1.234 . S
C38 O61 1.283 . S
C39 O51 1.281 . S
C39 O52 1.236 . S
C40 O62 1.240 . S
C40 O63 1.264 . S
O41 Mn36 2.095 . S
O41 C50 1.250 . S
O42 Mn37 2.121 . S
O42 C50 1.258 . S
C43 N44 1.326 . S
C43 C47 1.460 . S
C43 H49 0.929 . S
N44 Mn37 2.257 . S
N44 C43 1.326 . S
N44 C48 1.362 . S
C45 C46 1.258 . S
C45 C48 1.431 . S
C45 C65 1.449 . S
C46 C45 1.258 . S
C46 C47 1.477 . S
C46 H66 0.931 . S
C47 C43 1.460 . S
C47 C46 1.477 . S
C47 H67 0.930 . S
C48 N44 1.362 . S
C48 C45 1.431 . S
C48 C58 1.476 . S
H49 C43 0.929 . S
C50 O41 1.250 . S
C50 O42 1.258 . S
O51 Mn36 2.162 . S
O51 C39 1.281 . S
O52 Mn36 2.297 . S
O52 C39 1.236 . S
N53 Mn37 2.282 . S
N53 C54 1.328 . S
N53 C58 1.318 . S
C54 N53 1.328 . S
C54 C55 1.457 . S
C54 H59 0.929 . S
C55 C54 1.457 . S
C55 C56 1.291 . S
C55 H68 0.931 . S
C56 C55 1.291 . S
C56 C57 1.373 . S
C56 H69 0.929 . S
C57 C56 1.373 . S
C57 C58 1.396 . S
C57 C64 1.403 . S
C58 C48 1.476 . S
C58 N53 1.318 . S
C58 C57 1.396 . S
H59 C54 0.929 . S
O60 Mn36 2.385 . S
O60 C38 1.234 . S
O61 Mn36 2.209 . S
O61 Mn37 2.215 . S
O61 C38 1.283 . S
O62 Mn36 2.094 . S
O62 C40 1.240 . S
O63 Mn37 2.117 . S
O63 C40 1.264 . S
C64 C57 1.403 . S
C64 C65 1.399 . S
C64 H70 0.929 . S
C65 C45 1.449 . S
C65 C64 1.399 . S
C65 H71 0.930 . S
H66 C46 0.931 . S
H67 C47 0.930 . S
H68 C55 0.931 . S
H69 C56 0.929 . S
H70 C64 0.929 . S
H71 C65 0.930 . S
Mn72 O77 2.095 . S
Mn72 O87 2.162 . S
Mn72 O88 2.297 . S
Mn72 O96 2.385 . S
Mn72 O97 2.209 . S
Mn72 O98 2.094 . S
Mn73 O78 2.121 . S
Mn73 N80 2.257 . S
Mn73 N89 2.282 . S
Mn73 O97 2.215 . S
Mn73 O99 2.117 . S
C74 O96 1.234 . S
C74 O97 1.283 . S
C75 O87 1.281 . S
C75 O88 1.236 . S
C76 O98 1.240 . S
C76 O99 1.264 . S
O77 Mn72 2.095 . S
O77 C86 1.250 . S
O78 Mn73 2.121 . S
O78 C86 1.258 . S
C79 N80 1.326 . S
C79 C83 1.460 . S
C79 H85 0.929 . S
N80 Mn73 2.257 . S
N80 C79 1.326 . S
N80 C84 1.362 . S
C81 C82 1.258 . S
C81 C84 1.431 . S
C81 C101 1.449 . S
C82 C81 1.258 . S
C82 C83 1.477 . S
C82 H102 0.931 . S
C83 C79 1.460 . S
C83 C82 1.477 . S
C83 H103 0.930 . S
C84 N80 1.362 . S
C84 C81 1.431 . S
C84 C94 1.476 . S
H85 C79 0.929 . S
C86 O77 1.250 . S
C86 O78 1.258 . S
O87 Mn72 2.162 . S
O87 C75 1.281 . S
O88 Mn72 2.297 . S
O88 C75 1.236 . S
N89 Mn73 2.282 . S
N89 C90 1.328 . S
N89 C94 1.318 . S
C90 N89 1.328 . S
C90 C91 1.457 . S
C90 H95 0.929 . S
C91 C90 1.457 . S
C91 C92 1.291 . S
C91 H104 0.931 . S
C92 C91 1.291 . S
C92 C93 1.373 . S
C92 H105 0.929 . S
C93 C92 1.373 . S
C93 C94 1.396 . S
C93 C100 1.403 . S
C94 C84 1.476 . S
C94 N89 1.318 . S
C94 C93 1.396 . S
H95 C90 0.929 . S
O96 Mn72 2.385 . S
O96 C74 1.234 . S
O97 Mn72 2.209 . S
O97 Mn73 2.215 . S
O97 C74 1.283 . S
O98 Mn72 2.094 . S
O98 C76 1.240 . S
O99 Mn73 2.117 . S
O99 C76 1.264 . S
C100 C93 1.403 . S
C100 C101 1.399 . S
C100 H106 0.929 . S
C101 C81 1.449 . S
C101 C100 1.399 . S
C101 H107 0.930 . S
H102 C82 0.931 . S
H103 C83 0.930 . S
H104 C91 0.931 . S
H105 C92 0.929 . S
H106 C100 0.929 . S
H107 C101 0.930 . S
Mn108 O113 2.095 . S
Mn108 O123 2.162 . S
Mn108 O124 2.297 . S
Mn108 O132 2.385 . S
Mn108 O133 2.209 . S
Mn108 O134 2.094 . S
Mn109 O114 2.121 . S
Mn109 N116 2.257 . S
Mn109 N125 2.282 . S
Mn109 O133 2.215 . S
Mn109 O135 2.117 . S
C110 O132 1.234 . S
C110 O133 1.283 . S
C111 O123 1.281 . S
C111 O124 1.236 . S
C112 O134 1.240 . S
C112 O135 1.264 . S
O113 Mn108 2.095 . S
O113 C122 1.250 . S
O114 Mn109 2.121 . S
O114 C122 1.258 . S
C115 N116 1.326 . S
C115 C119 1.460 . S
C115 H121 0.929 . S
N116 Mn109 2.257 . S
N116 C115 1.326 . S
N116 C120 1.362 . S
C117 C118 1.258 . S
C117 C120 1.431 . S
C117 C137 1.449 . S
C118 C117 1.258 . S
C118 C119 1.477 . S
C118 H138 0.931 . S
C119 C115 1.460 . S
C119 C118 1.477 . S
C119 H139 0.930 . S
C120 N116 1.362 . S
C120 C117 1.431 . S
C120 C130 1.476 . S
H121 C115 0.929 . S
C122 O113 1.250 . S
C122 O114 1.258 . S
O123 Mn108 2.162 . S
O123 C111 1.281 . S
O124 Mn108 2.297 . S
O124 C111 1.236 . S
N125 Mn109 2.282 . S
N125 C126 1.328 . S
N125 C130 1.318 . S
C126 N125 1.328 . S
C126 C127 1.457 . S
C126 H131 0.929 . S
C127 C126 1.457 . S
C127 C128 1.291 . S
C127 H140 0.931 . S
C128 C127 1.291 . S
C128 C129 1.373 . S
C128 H141 0.929 . S
C129 C128 1.373 . S
C129 C130 1.396 . S
C129 C136 1.403 . S
C130 C120 1.476 . S
C130 N125 1.318 . S
C130 C129 1.396 . S
H131 C126 0.929 . S
O132 Mn108 2.385 . S
O132 C110 1.234 . S
O133 Mn108 2.209 . S
O133 Mn109 2.215 . S
O133 C110 1.283 . S
O134 Mn108 2.094 . S
O134 C112 1.240 . S
O135 Mn109 2.117 . S
O135 C112 1.264 . S
C136 C129 1.403 . S
C136 C137 1.399 . S
C136 H142 0.929 . S
C137 C117 1.449 . S
C137 C136 1.399 . S
C137 H143 0.930 . S
H138 C118 0.931 . S
H139 C119 0.930 . S
H140 C127 0.931 . S
H141 C128 0.929 . S
H142 C136 0.929 . S
H143 C137 0.930 . S
Mn144 O149 2.095 . S
Mn144 O159 2.162 . S
Mn144 O160 2.297 . S
Mn144 O168 2.385 . S
Mn144 O169 2.209 . S
Mn144 O170 2.094 . S
Mn145 O150 2.121 . S
Mn145 N152 2.257 . S
Mn145 N161 2.282 . S
Mn145 O169 2.215 . S
Mn145 O171 2.117 . S
C146 O168 1.234 . S
C146 O169 1.283 . S
C147 O159 1.281 . S
C147 O160 1.236 . S
C148 O170 1.240 . S
C148 O171 1.264 . S
O149 Mn144 2.095 . S
O149 C158 1.250 . S
O150 Mn145 2.121 . S
O150 C158 1.258 . S
C151 N152 1.326 . S
C151 C155 1.460 . S
C151 H157 0.929 . S
N152 Mn145 2.257 . S
N152 C151 1.326 . S
N152 C156 1.362 . S
C153 C154 1.258 . S
C153 C156 1.431 . S
C153 C173 1.449 . S
C154 C153 1.258 . S
C154 C155 1.477 . S
C154 H174 0.931 . S
C155 C151 1.460 . S
C155 C154 1.477 . S
C155 H175 0.930 . S
C156 N152 1.362 . S
C156 C153 1.431 . S
C156 C166 1.476 . S
H157 C151 0.929 . S
C158 O149 1.250 . S
C158 O150 1.258 . S
O159 Mn144 2.162 . S
O159 C147 1.281 . S
O160 Mn144 2.297 . S
O160 C147 1.236 . S
N161 Mn145 2.282 . S
N161 C162 1.328 . S
N161 C166 1.318 . S
C162 N161 1.328 . S
C162 C163 1.457 . S
C162 H167 0.929 . S
C163 C162 1.457 . S
C163 C164 1.291 . S
C163 H176 0.931 . S
C164 C163 1.291 . S
C164 C165 1.373 . S
C164 H177 0.929 1_556 S
C165 C164 1.373 . S
C165 C166 1.396 . S
C165 C172 1.403 . S
C166 C156 1.476 . S
C166 N161 1.318 . S
C166 C165 1.396 . S
H167 C162 0.929 . S
O168 Mn144 2.385 . S
O168 C146 1.234 . S
O169 Mn144 2.209 . S
O169 Mn145 2.215 . S
O169 C146 1.283 . S
O170 Mn144 2.094 . S
O170 C148 1.240 . S
O171 Mn145 2.117 . S
O171 C148 1.264 . S
C172 C165 1.403 . S
C172 C173 1.399 . S
C172 H178 0.929 . S
C173 C153 1.449 . S
C173 C172 1.399 . S
C173 H179 0.930 . S
H174 C154 0.931 . S
H175 C155 0.930 . S
H176 C163 0.931 . S
H177 C164 0.929 1_554 S
H178 C172 0.929 . S
H179 C173 0.930 . S
Mn180 O185 2.095 . S
Mn180 O195 2.162 . S
Mn180 O196 2.297 . S
Mn180 O204 2.385 1_556 S
Mn180 O205 2.209 . S
Mn180 O206 2.094 . S
Mn181 O186 2.121 . S
Mn181 N188 2.257 . S
Mn181 N197 2.282 1_556 S
Mn181 O205 2.215 . S
Mn181 O207 2.117 . S
C182 O204 1.234 . S
C182 O205 1.283 1_554 S
C183 O195 1.281 . S
C183 O196 1.236 . S
C184 O206 1.240 . S
C184 O207 1.264 . S
O185 Mn180 2.095 . S
O185 C194 1.250 . S
O186 Mn181 2.121 . S
O186 C194 1.258 . S
C187 N188 1.326 . S
C187 C191 1.460 . S
C187 H193 0.929 . S
N188 Mn181 2.257 . S
N188 C187 1.326 . S
N188 C192 1.362 . S
C189 C190 1.258 1_554 S
C189 C192 1.431 1_554 S
C189 C209 1.449 . S
C190 C189 1.258 1_556 S
C190 C191 1.477 . S
C190 H210 0.931 . S
C191 C187 1.460 . S
C191 C190 1.477 . S
C191 H211 0.930 . S
C192 N188 1.362 . S
C192 C189 1.431 1_556 S
C192 C202 1.476 1_556 S
H193 C187 0.929 . S
C194 O185 1.250 . S
C194 O186 1.258 . S
O195 Mn180 2.162 . S
O195 C183 1.281 . S
O196 Mn180 2.297 . S
O196 C183 1.236 . S
N197 Mn181 2.282 1_554 S
N197 C198 1.328 . S
N197 C202 1.318 . S
C198 N197 1.328 . S
C198 C199 1.457 . S
C198 H203 0.929 . S
C199 C198 1.457 . S
C199 C200 1.291 . S
C199 H212 0.931 . S
C200 C199 1.291 . S
C200 C201 1.373 . S
C200 H213 0.929 . S
C201 C200 1.373 . S
C201 C202 1.396 . S
C201 C208 1.403 . S
C202 C192 1.476 1_554 S
C202 N197 1.318 . S
C202 C201 1.396 . S
H203 C198 0.929 . S
O204 Mn180 2.385 1_554 S
O204 C182 1.234 . S
O205 Mn180 2.209 . S
O205 Mn181 2.215 . S
O205 C182 1.283 1_556 S
O206 Mn180 2.094 . S
O206 C184 1.240 . S
O207 Mn181 2.117 . S
O207 C184 1.264 . S
C208 C201 1.403 . S
C208 C209 1.399 . S
C208 H214 0.929 . S
C209 C189 1.449 . S
C209 C208 1.399 . S
C209 H215 0.930 . S
H210 C190 0.931 . S
H211 C191 0.930 . S
H212 C199 0.931 . S
H213 C200 0.929 . S
H214 C208 0.929 . S
H215 C209 0.930 . S
Mn216 O221 2.095 . S
Mn216 O231 2.162 . S
Mn216 O232 2.297 . S
Mn216 O240 2.385 . S
Mn216 O241 2.209 . S
Mn216 O242 2.094 . S
Mn217 O222 2.121 . S
Mn217 N224 2.257 . S
Mn217 N233 2.282 . S
Mn217 O241 2.215 . S
Mn217 O243 2.117 . S
C218 O240 1.234 . S
C218 O241 1.283 . S
C219 O231 1.281 . S
C219 O232 1.236 . S
C220 O242 1.240 . S
C220 O243 1.264 . S
O221 Mn216 2.095 . S
O221 C230 1.250 1_556 S
O222 Mn217 2.121 . S
O222 C230 1.258 1_556 S
C223 N224 1.326 . S
C223 C227 1.460 . S
C223 H229 0.929 . S
N224 Mn217 2.257 . S
N224 C223 1.326 . S
N224 C228 1.362 . S
C225 C226 1.258 . S
C225 C228 1.431 . S
C225 C245 1.449 . S
C226 C225 1.258 . S
C226 C227 1.477 . S
C226 H246 0.931 . S
C227 C223 1.460 . S
C227 C226 1.477 . S
C227 H247 0.930 . S
C228 N224 1.362 . S
C228 C225 1.431 . S
C228 C238 1.476 . S
H229 C223 0.929 . S
C230 O221 1.250 1_554 S
C230 O222 1.258 1_554 S
O231 Mn216 2.162 . S
O231 C219 1.281 . S
O232 Mn216 2.297 . S
O232 C219 1.236 . S
N233 Mn217 2.282 . S
N233 C234 1.328 . S
N233 C238 1.318 . S
C234 N233 1.328 . S
C234 C235 1.457 . S
C234 H239 0.929 . S
C235 C234 1.457 . S
C235 C236 1.291 . S
C235 H248 0.931 . S
C236 C235 1.291 . S
C236 C237 1.373 . S
C236 H249 0.929 . S
C237 C236 1.373 . S
C237 C238 1.396 . S
C237 C244 1.403 . S
C238 C228 1.476 . S
C238 N233 1.318 . S
C238 C237 1.396 . S
H239 C234 0.929 . S
O240 Mn216 2.385 . S
O240 C218 1.234 . S
O241 Mn216 2.209 . S
O241 Mn217 2.215 . S
O241 C218 1.283 . S
O242 Mn216 2.094 . S
O242 C220 1.240 . S
O243 Mn217 2.117 . S
O243 C220 1.264 . S
C244 C237 1.403 . S
C244 C245 1.399 . S
C244 H250 0.929 . S
C245 C225 1.449 . S
C245 C244 1.399 . S
C245 H251 0.930 . S
H246 C226 0.931 . S
H247 C227 0.930 . S
H248 C235 0.931 . S
H249 C236 0.929 . S
H250 C244 0.929 . S
H251 C245 0.930 . S
Mn252 O257 2.095 . S
Mn252 O267 2.162 . S
Mn252 O268 2.297 . S
Mn252 O276 2.385 1_554 S
Mn252 O277 2.209 . S
Mn252 O278 2.094 . S
Mn253 O258 2.121 . S
Mn253 N260 2.257 . S
Mn253 N269 2.282 1_554 S
Mn253 O277 2.215 . S
Mn253 O279 2.117 . S
C254 O276 1.234 . S
C254 O277 1.283 1_556 S
C255 O267 1.281 . S
C255 O268 1.236 . S
C256 O278 1.240 . S
C256 O279 1.264 . S
O257 Mn252 2.095 . S
O257 C266 1.250 . S
O258 Mn253 2.121 . S
O258 C266 1.258 . S
C259 N260 1.326 . S
C259 C263 1.460 . S
C259 H265 0.929 . S
N260 Mn253 2.257 . S
N260 C259 1.326 . S
N260 C264 1.362 1_554 S
C261 C262 1.258 . S
C261 C264 1.431 . S
C261 C281 1.449 . S
C262 C261 1.258 . S
C262 C263 1.477 1_556 S
C262 H282 0.931 . S
C263 C259 1.460 . S
C263 C262 1.477 1_554 S
C263 H283 0.930 . S
C264 N260 1.362 1_556 S
C264 C261 1.431 . S
C264 C274 1.476 . S
H265 C259 0.929 . S
C266 O257 1.250 . S
C266 O258 1.258 . S
O267 Mn252 2.162 . S
O267 C255 1.281 . S
O268 Mn252 2.297 . S
O268 C255 1.236 . S
N269 Mn253 2.282 1_556 S
N269 C270 1.328 . S
N269 C274 1.318 . S
C270 N269 1.328 . S
C270 C271 1.457 . S
C270 H275 0.929 . S
C271 C270 1.457 . S
C271 C272 1.291 . S
C271 H284 0.931 . S
C272 C271 1.291 . S
C272 C273 1.373 . S
C272 H285 0.929 . S
C273 C272 1.373 . S
C273 C274 1.396 . S
C273 C280 1.403 . S
C274 C264 1.476 . S
C274 N269 1.318 . S
C274 C273 1.396 . S
H275 C270 0.929 . S
O276 Mn252 2.385 1_556 S
O276 C254 1.234 . S
O277 Mn252 2.209 . S
O277 Mn253 2.215 . S
O277 C254 1.283 1_554 S
O278 Mn252 2.094 . S
O278 C256 1.240 . S
O279 Mn253 2.117 . S
O279 C256 1.264 . S
C280 C273 1.403 . S
C280 C281 1.399 . S
C280 H286 0.929 . S
C281 C261 1.449 . S
C281 C280 1.399 . S
C281 H287 0.930 . S
H282 C262 0.931 . S
H283 C263 0.930 . S
H284 C271 0.931 . S
H285 C272 0.929 . S
H286 C280 0.929 . S
H287 C281 0.930 . S
Mn288 O293 2.095 . S
Mn288 O303 2.162 . S
Mn288 O304 2.297 . S
Mn288 O312 2.385 . S
Mn288 O313 2.209 . S
Mn288 O314 2.094 . S
Mn289 O294 2.121 . S
Mn289 N296 2.257 . S
Mn289 N305 2.282 . S
Mn289 O313 2.215 . S
Mn289 O315 2.117 . S
C290 O312 1.234 . S
C290 O313 1.283 . S
C291 O303 1.281 . S
C291 O304 1.236 . S
C292 O314 1.240 . S
C292 O315 1.264 . S
O293 Mn288 2.095 . S
O293 C302 1.250 . S
O294 Mn289 2.121 . S
O294 C302 1.258 . S
C295 N296 1.326 . S
C295 C299 1.460 . S
C295 H301 0.929 . S
N296 Mn289 2.257 . S
N296 C295 1.326 . S
N296 C300 1.362 . S
C297 C298 1.258 . S
C297 C300 1.431 . S
C297 C317 1.449 . S
C298 C297 1.258 . S
C298 C299 1.477 . S
C298 H318 0.931 . S
C299 C295 1.460 . S
C299 C298 1.477 . S
C299 H319 0.930 . S
C300 N296 1.362 . S
C300 C297 1.431 . S
C300 C310 1.476 . S
H301 C295 0.929 . S
C302 O293 1.250 . S
C302 O294 1.258 . S
O303 Mn288 2.162 . S
O303 C291 1.281 . S
O304 Mn288 2.297 . S
O304 C291 1.236 . S
N305 Mn289 2.282 . S
N305 C306 1.328 . S
N305 C310 1.318 . S
C306 N305 1.328 . S
C306 C307 1.457 . S
C306 H311 0.929 . S
C307 C306 1.457 . S
C307 C308 1.291 1_554 S
C307 H320 0.931 1_554 S
C308 C307 1.291 1_556 S
C308 C309 1.373 1_556 S
C308 H321 0.929 . S
C309 C308 1.373 1_554 S
C309 C310 1.396 . S
C309 C316 1.403 . S
C310 C300 1.476 . S
C310 N305 1.318 . S
C310 C309 1.396 . S
H311 C306 0.929 . S
O312 Mn288 2.385 . S
O312 C290 1.234 . S
O313 Mn288 2.209 . S
O313 Mn289 2.215 . S
O313 C290 1.283 . S
O314 Mn288 2.094 . S
O314 C292 1.240 . S
O315 Mn289 2.117 . S
O315 C292 1.264 . S
C316 C309 1.403 . S
C316 C317 1.399 . S
C316 H322 0.929 1_554 S
C317 C297 1.449 . S
C317 C316 1.399 . S
C317 H323 0.930 . S
H318 C298 0.931 . S
H319 C299 0.930 . S
H320 C307 0.931 1_556 S
H321 C308 0.929 . S
H322 C316 0.929 1_556 S
H323 C317 0.930 . S
Mn324 O329 2.095 . S
Mn324 O339 2.162 . S
Mn324 O340 2.297 . S
Mn324 O348 2.385 . S
Mn324 O349 2.209 . S
Mn324 O350 2.094 . S
Mn325 O330 2.121 . S
Mn325 N332 2.257 . S
Mn325 N341 2.282 . S
Mn325 O349 2.215 . S
Mn325 O351 2.117 . S
C326 O348 1.234 . S
C326 O349 1.283 . S
C327 O339 1.281 . S
C327 O340 1.236 . S
C328 O350 1.240 . S
C328 O351 1.264 . S
O329 Mn324 2.095 . S
O329 C338 1.250 . S
O330 Mn325 2.121 . S
O330 C338 1.258 . S
C331 N332 1.326 . S
C331 C335 1.460 . S
C331 H337 0.929 . S
N332 Mn325 2.257 . S
N332 C331 1.326 . S
N332 C336 1.362 . S
C333 C334 1.258 . S
C333 C336 1.431 . S
C333 C353 1.449 . S
C334 C333 1.258 . S
C334 C335 1.477 . S
C334 H354 0.931 . S
C335 C331 1.460 . S
C335 C334 1.477 . S
C335 H355 0.930 . S
C336 N332 1.362 . S
C336 C333 1.431 . S
C336 C346 1.476 . S
H337 C331 0.929 . S
C338 O329 1.250 . S
C338 O330 1.258 . S
O339 Mn324 2.162 . S
O339 C327 1.281 . S
O340 Mn324 2.297 . S
O340 C327 1.236 . S
N341 Mn325 2.282 . S
N341 C342 1.328 . S
N341 C346 1.318 . S
C342 N341 1.328 . S
C342 C343 1.457 . S
C342 H347 0.929 . S
C343 C342 1.457 . S
C343 C344 1.291 . S
C343 H356 0.931 . S
C344 C343 1.291 . S
C344 C345 1.373 . S
C344 H357 0.929 . S
C345 C344 1.373 . S
C345 C346 1.396 . S
C345 C352 1.403 . S
C346 C336 1.476 . S
C346 N341 1.318 . S
C346 C345 1.396 . S
H347 C342 0.929 . S
O348 Mn324 2.385 . S
O348 C326 1.234 . S
O349 Mn324 2.209 . S
O349 Mn325 2.215 . S
O349 C326 1.283 . S
O350 Mn324 2.094 . S
O350 C328 1.240 . S
O351 Mn325 2.117 . S
O351 C328 1.264 . S
C352 C345 1.403 . S
C352 C353 1.399 . S
C352 H358 0.929 . S
C353 C333 1.449 . S
C353 C352 1.399 . S
C353 H359 0.930 . S
H354 C334 0.931 . S
H355 C335 0.930 . S
H356 C343 0.931 . S
H357 C344 0.929 . S
H358 C352 0.929 . S
H359 C353 0.930 . S
Mn360 O365 2.095 . S
Mn360 O375 2.162 . S
Mn360 O376 2.297 . S
Mn360 O384 2.385 . S
Mn360 O385 2.209 . S
Mn360 O386 2.094 . S
Mn361 O366 2.121 . S
Mn361 N368 2.257 . S
Mn361 N377 2.282 . S
Mn361 O385 2.215 . S
Mn361 O387 2.117 . S
C362 O384 1.234 . S
C362 O385 1.283 . S
C363 O375 1.281 . S
C363 O376 1.236 . S
C364 O386 1.240 . S
C364 O387 1.264 . S
O365 Mn360 2.095 . S
O365 C374 1.250 . S
O366 Mn361 2.121 . S
O366 C374 1.258 . S
C367 N368 1.326 . S
C367 C371 1.460 . S
C367 H373 0.929 . S
N368 Mn361 2.257 . S
N368 C367 1.326 . S
N368 C372 1.362 . S
C369 C370 1.258 . S
C369 C372 1.431 . S
C369 C389 1.449 . S
C370 C369 1.258 . S
C370 C371 1.477 . S
C370 H390 0.931 . S
C371 C367 1.460 . S
C371 C370 1.477 . S
C371 H391 0.930 . S
C372 N368 1.362 . S
C372 C369 1.431 . S
C372 C382 1.476 . S
H373 C367 0.929 . S
C374 O365 1.250 . S
C374 O366 1.258 . S
O375 Mn360 2.162 . S
O375 C363 1.281 . S
O376 Mn360 2.297 . S
O376 C363 1.236 . S
N377 Mn361 2.282 . S
N377 C378 1.328 . S
N377 C382 1.318 . S
C378 N377 1.328 . S
C378 C379 1.457 . S
C378 H383 0.929 . S
C379 C378 1.457 . S
C379 C380 1.291 . S
C379 H392 0.931 . S
C380 C379 1.291 . S
C380 C381 1.373 . S
C380 H393 0.929 . S
C381 C380 1.373 . S
C381 C382 1.396 . S
C381 C388 1.403 . S
C382 C372 1.476 . S
C382 N377 1.318 . S
C382 C381 1.396 . S
H383 C378 0.929 . S
O384 Mn360 2.385 . S
O384 C362 1.234 . S
O385 Mn360 2.209 . S
O385 Mn361 2.215 . S
O385 C362 1.283 . S
O386 Mn360 2.094 . S
O386 C364 1.240 . S
O387 Mn361 2.117 . S
O387 C364 1.264 . S
C388 C381 1.403 . S
C388 C389 1.399 . S
C388 H394 0.929 . S
C389 C369 1.449 . S
C389 C388 1.399 . S
C389 H395 0.930 . S
H390 C370 0.931 . S
H391 C371 0.930 . S
H392 C379 0.931 . S
H393 C380 0.929 . S
H394 C388 0.929 . S
H395 C389 0.930 . S
Mn396 O401 2.095 . S
Mn396 O411 2.162 . S
Mn396 O412 2.297 . S
Mn396 O420 2.385 . S
Mn396 O421 2.209 . S
Mn396 O422 2.094 . S
Mn397 O402 2.121 . S
Mn397 N404 2.257 . S
Mn397 N413 2.282 . S
Mn397 O421 2.215 . S
Mn397 O423 2.117 . S
C398 O420 1.234 . S
C398 O421 1.283 . S
C399 O411 1.281 . S
C399 O412 1.236 . S
C400 O422 1.240 . S
C400 O423 1.264 . S
O401 Mn396 2.095 . S
O401 C410 1.250 . S
O402 Mn397 2.121 . S
O402 C410 1.258 . S
C403 N404 1.326 . S
C403 C407 1.460 . S
C403 H409 0.929 . S
N404 Mn397 2.257 . S
N404 C403 1.326 . S
N404 C408 1.362 . S
C405 C406 1.258 . S
C405 C408 1.431 . S
C405 C425 1.449 . S
C406 C405 1.258 . S
C406 C407 1.477 . S
C406 H426 0.931 . S
C407 C403 1.460 . S
C407 C406 1.477 . S
C407 H427 0.930 . S
C408 N404 1.362 . S
C408 C405 1.431 . S
C408 C418 1.476 . S
H409 C403 0.929 . S
C410 O401 1.250 . S
C410 O402 1.258 . S
O411 Mn396 2.162 . S
O411 C399 1.281 . S
O412 Mn396 2.297 . S
O412 C399 1.236 . S
N413 Mn397 2.282 . S
N413 C414 1.328 . S
N413 C418 1.318 . S
C414 N413 1.328 . S
C414 C415 1.457 . S
C414 H419 0.929 . S
C415 C414 1.457 . S
C415 C416 1.291 . S
C415 H428 0.931 . S
C416 C415 1.291 . S
C416 C417 1.373 . S
C416 H429 0.929 . S
C417 C416 1.373 . S
C417 C418 1.396 . S
C417 C424 1.403 . S
C418 C408 1.476 . S
C418 N413 1.318 . S
C418 C417 1.396 . S
H419 C414 0.929 . S
O420 Mn396 2.385 . S
O420 C398 1.234 . S
O421 Mn396 2.209 . S
O421 Mn397 2.215 . S
O421 C398 1.283 . S
O422 Mn396 2.094 . S
O422 C400 1.240 . S
O423 Mn397 2.117 . S
O423 C400 1.264 . S
C424 C417 1.403 . S
C424 C425 1.399 . S
C424 H430 0.929 . S
C425 C405 1.449 . S
C425 C424 1.399 . S
C425 H431 0.930 . S
H426 C406 0.931 . S
H427 C407 0.930 . S
H428 C415 0.931 . S
H429 C416 0.929 . S
H430 C424 0.929 . S
H431 C425 0.930 . S
C432 C433 1.363 . S
C432 C438 1.379 . S
C432 N440 1.356 . S
C433 C432 1.363 . S
C433 C439 1.363 . S
C434 C435 1.363 . S
C434 C439 1.379 . S
C434 N441 1.356 . S
C435 C434 1.363 . S
C435 C438 1.363 . S
N436 C438 1.356 . S
N436 H448 0.984 . S
N436 H449 0.985 . S
N437 C439 1.356 . S
N437 H442 0.984 . S
N437 H443 0.985 . S
C438 C432 1.379 . S
C438 C435 1.363 . S
C438 N436 1.356 . S
C439 C433 1.363 . S
C439 C434 1.379 . S
C439 N437 1.356 . S
N440 C432 1.356 . S
N440 H446 0.984 . S
N440 H447 0.984 . S
N441 C434 1.356 . S
N441 H444 0.984 . S
N441 H445 0.985 . S
H442 N437 0.984 . S
H443 N437 0.985 . S
H444 N441 0.984 . S
H445 N441 0.985 . S
H446 N440 0.984 . S
H447 N440 0.984 . S
H448 N436 0.984 . S
H449 N436 0.985 . S
C450 C451 1.363 . S
C450 C456 1.379 . S
C450 N458 1.356 . S
C451 C450 1.363 . S
C451 C457 1.363 . S
C452 C453 1.363 . S
C452 C457 1.379 . S
C452 N459 1.356 . S
C453 C452 1.363 . S
C453 C456 1.363 . S
N454 C456 1.356 . S
N454 H466 0.984 . S
N454 H467 0.985 . S
N455 C457 1.356 . S
N455 H460 0.984 . S
N455 H461 0.985 . S
C456 C450 1.379 . S
C456 C453 1.363 . S
C456 N454 1.356 . S
C457 C451 1.363 . S
C457 C452 1.379 . S
C457 N455 1.356 . S
N458 C450 1.356 . S
N458 H464 0.984 . S
N458 H465 0.984 . S
N459 C452 1.356 . S
N459 H462 0.984 . S
N459 H463 0.985 . S
H460 N455 0.984 . S
H461 N455 0.985 . S
H462 N459 0.984 . S
H463 N459 0.985 . S
H464 N458 0.984 . S
H465 N458 0.984 . S
H466 N454 0.984 . S
H467 N454 0.985 . S
C468 C469 1.363 . S
C468 C474 1.379 . S
C468 N476 1.356 . S
C469 C468 1.363 . S
C469 C475 1.363 . S
C470 C471 1.363 . S
C470 C475 1.379 . S
C470 N477 1.356 . S
C471 C470 1.363 . S
C471 C474 1.363 . S
N472 C474 1.356 . S
N472 H484 0.984 . S
N472 H485 0.985 . S
N473 C475 1.356 . S
N473 H478 0.984 . S
N473 H479 0.985 . S
C474 C468 1.379 . S
C474 C471 1.363 . S
C474 N472 1.356 . S
C475 C469 1.363 . S
C475 C470 1.379 . S
C475 N473 1.356 . S
N476 C468 1.356 . S
N476 H482 0.984 . S
N476 H483 0.984 . S
N477 C470 1.356 . S
N477 H480 0.984 . S
N477 H481 0.985 . S
H478 N473 0.984 . S
H479 N473 0.985 . S
H480 N477 0.984 . S
H481 N477 0.985 . S
H482 N476 0.984 . S
H483 N476 0.984 . S
H484 N472 0.984 . S
H485 N472 0.985 . S
C486 C487 1.363 . S
C486 C492 1.379 . S
C486 N494 1.356 . S
C487 C486 1.363 . S
C487 C493 1.363 . S
C488 C489 1.363 . S
C488 C493 1.379 . S
C488 N495 1.356 . S
C489 C488 1.363 . S
C489 C492 1.363 . S
N490 C492 1.356 . S
N490 H502 0.984 . S
N490 H503 0.985 . S
N491 C493 1.356 . S
N491 H496 0.984 . S
N491 H497 0.985 . S
C492 C486 1.379 . S
C492 C489 1.363 . S
C492 N490 1.356 . S
C493 C487 1.363 . S
C493 C488 1.379 . S
C493 N491 1.356 . S
N494 C486 1.356 . S
N494 H500 0.984 . S
N494 H501 0.984 . S
N495 C488 1.356 . S
N495 H498 0.984 . S
N495 H499 0.985 . S
H496 N491 0.984 . S
H497 N491 0.985 . S
H498 N495 0.984 . S
H499 N495 0.985 . S
H500 N494 0.984 . S
H501 N494 0.984 . S
H502 N490 0.984 . S
H503 N490 0.985 . S
C504 C505 1.363 1_556 S
C504 C510 1.379 . S
C504 N512 1.356 1_556 S
C505 C504 1.363 1_554 S
C505 C511 1.363 . S
C506 C507 1.363 . S
C506 C511 1.379 1_556 S
C506 N513 1.356 . S
C507 C506 1.363 . S
C507 C510 1.363 . S
N508 C510 1.356 . S
N508 H520 0.984 . S
N508 H521 0.985 . S
N509 C511 1.356 . S
N509 H514 0.984 . S
N509 H515 0.985 . S
C510 C504 1.379 . S
C510 C507 1.363 . S
C510 N508 1.356 . S
C511 C505 1.363 . S
C511 C506 1.379 1_554 S
C511 N509 1.356 . S
N512 C504 1.356 1_554 S
N512 H518 0.984 1_554 S
N512 H519 0.984 . S
N513 C506 1.356 . S
N513 H516 0.984 . S
N513 H517 0.985 . S
H514 N509 0.984 . S
H515 N509 0.985 . S
H516 N513 0.984 . S
H517 N513 0.985 . S
H518 N512 0.984 1_556 S
H519 N512 0.984 . S
H520 N508 0.984 . S
H521 N508 0.985 . S
C522 C523 1.363 . S
C522 C528 1.379 . S
C522 N530 1.356 . S
C523 C522 1.363 . S
C523 C529 1.363 . S
C524 C525 1.363 . S
C524 C529 1.379 . S
C524 N531 1.356 . S
C525 C524 1.363 . S
C525 C528 1.363 . S
N526 C528 1.356 . S
N526 H538 0.984 . S
N526 H539 0.985 . S
N527 C529 1.356 . S
N527 H532 0.984 . S
N527 H533 0.985 . S
C528 C522 1.379 . S
C528 C525 1.363 . S
C528 N526 1.356 . S
C529 C523 1.363 . S
C529 C524 1.379 . S
C529 N527 1.356 . S
N530 C522 1.356 . S
N530 H536 0.984 . S
N530 H537 0.984 . S
N531 C524 1.356 . S
N531 H534 0.984 . S
N531 H535 0.985 . S
H532 N527 0.984 . S
H533 N527 0.985 . S
H534 N531 0.984 . S
H535 N531 0.985 . S
H536 N530 0.984 . S
H537 N530 0.984 . S
H538 N526 0.984 . S
H539 N526 0.985 . S
C540 C541 1.363 . S
C540 C546 1.379 . S
C540 N548 1.356 . S
C541 C540 1.363 . S
C541 C547 1.363 . S
C542 C543 1.363 . S
C542 C547 1.379 . S
C542 N549 1.356 . S
C543 C542 1.363 . S
C543 C546 1.363 . S
N544 C546 1.356 . S
N544 H556 0.984 1_554 S
N544 H557 0.985 . S
N545 C547 1.356 . S
N545 H550 0.984 . S
N545 H551 0.985 . S
C546 C540 1.379 . S
C546 C543 1.363 . S
C546 N544 1.356 . S
C547 C541 1.363 . S
C547 C542 1.379 . S
C547 N545 1.356 . S
N548 C540 1.356 . S
N548 H554 0.984 . S
N548 H555 0.984 . S
N549 C542 1.356 . S
N549 H552 0.984 . S
N549 H553 0.985 . S
H550 N545 0.984 . S
H551 N545 0.985 . S
H552 N549 0.984 . S
H553 N549 0.985 . S
H554 N548 0.984 . S
H555 N548 0.984 . S
H556 N544 0.984 1_556 S
H557 N544 0.985 . S
C558 C559 1.363 . S
C558 C564 1.379 . S
C558 N566 1.356 . S
C559 C558 1.363 . S
C559 C565 1.363 . S
C560 C561 1.363 . S
C560 C565 1.379 . S
C560 N567 1.356 . S
C561 C560 1.363 . S
C561 C564 1.363 . S
N562 C564 1.356 . S
N562 H574 0.984 . S
N562 H575 0.985 . S
N563 C565 1.356 . S
N563 H568 0.984 . S
N563 H569 0.985 . S
C564 C558 1.379 . S
C564 C561 1.363 . S
C564 N562 1.356 . S
C565 C559 1.363 . S
C565 C560 1.379 . S
C565 N563 1.356 . S
N566 C558 1.356 . S
N566 H572 0.984 . S
N566 H573 0.984 . S
N567 C560 1.356 . S
N567 H570 0.984 . S
N567 H571 0.985 . S
H568 N563 0.984 . S
H569 N563 0.985 . S
H570 N567 0.984 . S
H571 N567 0.985 . S
H572 N566 0.984 . S
H573 N566 0.984 . S
H574 N562 0.984 . S
H575 N562 0.985 . S
C576 C577 1.363 . S
C576 C582 1.379 . S
C576 N584 1.356 . S
C577 C576 1.363 . S
C577 C583 1.363 . S
C578 C579 1.363 . S
C578 C583 1.379 . S
C578 N585 1.356 . S
C579 C578 1.363 . S
C579 C582 1.363 . S
N580 C582 1.356 . S
N580 H592 0.984 . S
N580 H593 0.985 . S
N581 C583 1.356 . S
N581 H586 0.984 . S
N581 H587 0.985 . S
C582 C576 1.379 . S
C582 C579 1.363 . S
C582 N580 1.356 . S
C583 C577 1.363 . S
C583 C578 1.379 . S
C583 N581 1.356 . S
N584 C576 1.356 . S
N584 H590 0.984 . S
N584 H591 0.984 . S
N585 C578 1.356 . S
N585 H588 0.984 . S
N585 H589 0.985 . S
H586 N581 0.984 . S
H587 N581 0.985 . S
H588 N585 0.984 . S
H589 N585 0.985 . S
H590 N584 0.984 . S
H591 N584 0.984 . S
H592 N580 0.984 . S
H593 N580 0.985 . S
C594 C595 1.363 . S
C594 C600 1.379 . S
C594 N602 1.356 . S
C595 C594 1.363 . S
C595 C601 1.363 . S
C596 C597 1.363 . S
C596 C601 1.379 . S
C596 N603 1.356 . S
C597 C596 1.363 . S
C597 C600 1.363 . S
N598 C600 1.356 . S
N598 H610 0.984 . S
N598 H611 0.985 . S
N599 C601 1.356 . S
N599 H604 0.984 . S
N599 H605 0.985 . S
C600 C594 1.379 . S
C600 C597 1.363 . S
C600 N598 1.356 . S
C601 C595 1.363 . S
C601 C596 1.379 . S
C601 N599 1.356 . S
N602 C594 1.356 . S
N602 H608 0.984 . S
N602 H609 0.984 . S
N603 C596 1.356 . S
N603 H606 0.984 . S
N603 H607 0.985 . S
H604 N599 0.984 . S
H605 N599 0.985 . S
H606 N603 0.984 . S
H607 N603 0.985 . S
H608 N602 0.984 . S
H609 N602 0.984 . S
H610 N598 0.984 . S
H611 N598 0.985 . S
C612 C613 1.363 . S
C612 C618 1.379 . S
C612 N620 1.356 . S
C613 C612 1.363 . S
C613 C619 1.363 . S
C614 C615 1.363 . S
C614 C619 1.379 . S
C614 N621 1.356 . S
C615 C614 1.363 . S
C615 C618 1.363 . S
N616 C618 1.356 . S
N616 H628 0.984 . S
N616 H629 0.985 . S
N617 C619 1.356 . S
N617 H622 0.984 . S
N617 H623 0.985 . S
C618 C612 1.379 . S
C618 C615 1.363 . S
C618 N616 1.356 . S
C619 C613 1.363 . S
C619 C614 1.379 . S
C619 N617 1.356 . S
N620 C612 1.356 . S
N620 H626 0.984 . S
N620 H627 0.984 . S
N621 C614 1.356 . S
N621 H624 0.984 . S
N621 H625 0.985 . S
H622 N617 0.984 . S
H623 N617 0.985 . S
H624 N621 0.984 . S
H625 N621 0.985 . S
H626 N620 0.984 . S
H627 N620 0.984 . S
H628 N616 0.984 . S
H629 N616 0.985 . S
C630 C631 1.363 . S
C630 C636 1.379 . S
C630 N638 1.356 . S
C631 C630 1.363 . S
C631 C637 1.363 1_556 S
C632 C633 1.363 . S
C632 C637 1.379 . S
C632 N639 1.356 . S
C633 C632 1.363 . S
C633 C636 1.363 1_554 S
N634 C636 1.356 . S
N634 H646 0.984 . S
N634 H647 0.985 . S
N635 C637 1.356 . S
N635 H640 0.984 . S
N635 H641 0.985 . S
C636 C630 1.379 . S
C636 C633 1.363 1_556 S
C636 N634 1.356 . S
C637 C631 1.363 1_554 S
C637 C632 1.379 . S
C637 N635 1.356 . S
N638 C630 1.356 . S
N638 H644 0.984 . S
N638 H645 0.984 . S
N639 C632 1.356 . S
N639 H642 0.984 . S
N639 H643 0.985 . S
H640 N635 0.984 . S
H641 N635 0.985 . S
H642 N639 0.984 . S
H643 N639 0.985 . S
H644 N638 0.984 . S
H645 N638 0.984 . S
H646 N634 0.984 . S
H647 N634 0.985 . S
C648 C649 1.363 . S
C648 C654 1.379 . S
C648 N656 1.356 . S
C649 C648 1.363 . S
C649 C655 1.363 . S
C650 C651 1.363 . S
C650 C655 1.379 . S
C650 N657 1.356 . S
C651 C650 1.363 . S
C651 C654 1.363 . S
N652 C654 1.356 . S
N652 H664 0.984 . S
N652 H665 0.985 . S
N653 C655 1.356 . S
N653 H658 0.984 . S
N653 H659 0.985 . S
C654 C648 1.379 . S
C654 C651 1.363 . S
C654 N652 1.356 . S
C655 C649 1.363 . S
C655 C650 1.379 . S
C655 N653 1.356 . S
N656 C648 1.356 . S
N656 H662 0.984 . S
N656 H663 0.984 . S
N657 C650 1.356 . S
N657 H660 0.984 . S
N657 H661 0.985 . S
H658 N653 0.984 . S
H659 N653 0.985 . S
H660 N657 0.984 . S
H661 N657 0.985 . S
H662 N656 0.984 . S
H663 N656 0.984 . S
H664 N652 0.984 . S
H665 N652 0.985 . S
C666 C667 1.363 . S
C666 C672 1.379 1_556 S
C666 N674 1.356 . S
C667 C666 1.363 . S
C667 C673 1.363 . S
C668 C669 1.363 . S
C668 C673 1.379 1_554 S
C668 N675 1.356 . S
C669 C668 1.363 . S
C669 C672 1.363 . S
N670 C672 1.356 . S
N670 H682 0.984 . S
N670 H683 0.985 . S
N671 C673 1.356 . S
N671 H676 0.984 . S
N671 H677 0.985 . S
C672 C666 1.379 1_554 S
C672 C669 1.363 . S
C672 N670 1.356 . S
C673 C667 1.363 . S
C673 C668 1.379 1_556 S
C673 N671 1.356 . S
N674 C666 1.356 . S
N674 H680 0.984 . S
N674 H681 0.984 . S
N675 C668 1.356 . S
N675 H678 0.984 . S
N675 H679 0.985 . S
H676 N671 0.984 . S
H677 N671 0.985 . S
H678 N675 0.984 . S
H679 N675 0.985 . S
H680 N674 0.984 . S
H681 N674 0.984 . S
H682 N670 0.984 . S
H683 N670 0.985 . S
C684 C685 1.363 . S
C684 C690 1.379 . S
C684 N692 1.356 . S
C685 C684 1.363 . S
C685 C691 1.363 . S
C686 C687 1.363 . S
C686 C691 1.379 . S
C686 N693 1.356 . S
C687 C686 1.363 . S
C687 C690 1.363 . S
N688 C690 1.356 . S
N688 H700 0.984 . S
N688 H701 0.985 . S
N689 C691 1.356 . S
N689 H694 0.984 1_554 S
N689 H695 0.985 . S
C690 C684 1.379 . S
C690 C687 1.363 . S
C690 N688 1.356 . S
C691 C685 1.363 . S
C691 C686 1.379 . S
C691 N689 1.356 . S
N692 C684 1.356 . S
N692 H698 0.984 . S
N692 H699 0.984 . S
N693 C686 1.356 . S
N693 H696 0.984 . S
N693 H697 0.985 . S
H694 N689 0.984 1_556 S
H695 N689 0.985 . S
H696 N693 0.984 . S
H697 N693 0.985 . S
H698 N692 0.984 . S
H699 N692 0.984 . S
H700 N688 0.984 . S
H701 N688 0.985 . S
C702 C703 1.363 . S
C702 C708 1.379 . S
C702 N710 1.356 . S
C703 C702 1.363 . S
C703 C709 1.363 . S
C704 C705 1.363 . S
C704 C709 1.379 . S
C704 N711 1.356 . S
C705 C704 1.363 . S
C705 C708 1.363 . S
N706 C708 1.356 . S
N706 H718 0.984 . S
N706 H719 0.985 . S
N707 C709 1.356 . S
N707 H712 0.984 . S
N707 H713 0.985 . S
C708 C702 1.379 . S
C708 C705 1.363 . S
C708 N706 1.356 . S
C709 C703 1.363 . S
C709 C704 1.379 . S
C709 N707 1.356 . S
N710 C702 1.356 . S
N710 H716 0.984 . S
N710 H717 0.984 . S
N711 C704 1.356 . S
N711 H714 0.984 . S
N711 H715 0.985 . S
H712 N707 0.984 . S
H713 N707 0.985 . S
H714 N711 0.984 . S
H715 N711 0.985 . S
H716 N710 0.984 . S
H717 N710 0.984 . S
H718 N706 0.984 . S
H719 N706 0.985 . S
C720 C721 1.363 . S
C720 C726 1.379 . S
C720 N728 1.356 . S
C721 C720 1.363 . S
C721 C727 1.363 . S
C722 C723 1.363 . S
C722 C727 1.379 . S
C722 N729 1.356 . S
C723 C722 1.363 . S
C723 C726 1.363 . S
N724 C726 1.356 . S
N724 H736 0.984 . S
N724 H737 0.985 . S
N725 C727 1.356 . S
N725 H730 0.984 . S
N725 H731 0.985 . S
C726 C720 1.379 . S
C726 C723 1.363 . S
C726 N724 1.356 . S
C727 C721 1.363 . S
C727 C722 1.379 . S
C727 N725 1.356 . S
N728 C720 1.356 . S
N728 H734 0.984 . S
N728 H735 0.984 . S
N729 C722 1.356 . S
N729 H732 0.984 . S
N729 H733 0.985 . S
H730 N725 0.984 . S
H731 N725 0.985 . S
H732 N729 0.984 . S
H733 N729 0.985 . S
H734 N728 0.984 . S
H735 N728 0.984 . S
H736 N724 0.984 . S
H737 N724 0.985 . S
C738 C739 1.363 . S
C738 C744 1.379 . S
C738 N746 1.356 . S
C739 C738 1.363 . S
C739 C745 1.363 . S
C740 C741 1.363 . S
C740 C745 1.379 . S
C740 N747 1.356 . S
C741 C740 1.363 . S
C741 C744 1.363 . S
N742 C744 1.356 . S
N742 H754 0.984 . S
N742 H755 0.985 . S
N743 C745 1.356 . S
N743 H748 0.984 . S
N743 H749 0.985 . S
C744 C738 1.379 . S
C744 C741 1.363 . S
C744 N742 1.356 . S
C745 C739 1.363 . S
C745 C740 1.379 . S
C745 N743 1.356 . S
N746 C738 1.356 . S
N746 H752 0.984 . S
N746 H753 0.984 . S
N747 C740 1.356 . S
N747 H750 0.984 . S
N747 H751 0.985 . S
H748 N743 0.984 . S
H749 N743 0.985 . S
H750 N747 0.984 . S
H751 N747 0.985 . S
H752 N746 0.984 . S
H753 N746 0.984 . S
H754 N742 0.984 . S
H755 N742 0.985 . S
C756 C757 1.363 . S
C756 C762 1.379 1_545 S
C756 N764 1.356 1_554 S
C757 C756 1.363 . S
C757 C763 1.363 . S
C758 C759 1.363 . S
C758 C763 1.379 1_565 S
C758 N765 1.356 . S
C759 C758 1.363 . S
C759 C762 1.363 . S
N760 C762 1.356 1_556 S
N760 H772 0.984 . S
N760 H773 0.985 . S
N761 C763 1.356 . S
N761 H766 0.984 . S
N761 H767 0.985 . S
C762 C756 1.379 1_565 S
C762 C759 1.363 . S
C762 N760 1.356 1_554 S
C763 C757 1.363 . S
C763 C758 1.379 1_545 S
C763 N761 1.356 . S
N764 C756 1.356 1_556 S
N764 H770 0.984 . S
N764 H771 0.984 . S
N765 C758 1.356 . S
N765 H768 0.984 . S
N765 H769 0.985 . S
H766 N761 0.984 . S
H767 N761 0.985 . S
H768 N765 0.984 . S
H769 N765 0.985 . S
H770 N764 0.984 . S
H771 N764 0.984 . S
H772 N760 0.984 . S
H773 N760 0.985 . S
C774 C775 1.363 . S
C774 C780 1.379 . S
C774 N782 1.356 . S
C775 C774 1.363 . S
C775 C781 1.363 . S
C776 C777 1.363 . S
C776 C781 1.379 . S
C776 N783 1.356 . S
C777 C776 1.363 . S
C777 C780 1.363 . S
N778 C780 1.356 . S
N778 H790 0.984 . S
N778 H791 0.985 . S
N779 C781 1.356 . S
N779 H784 0.984 . S
N779 H785 0.985 . S
C780 C774 1.379 . S
C780 C777 1.363 . S
C780 N778 1.356 . S
C781 C775 1.363 . S
C781 C776 1.379 . S
C781 N779 1.356 . S
N782 C774 1.356 . S
N782 H788 0.984 . S
N782 H789 0.984 . S
N783 C776 1.356 . S
N783 H786 0.984 . S
N783 H787 0.985 . S
H784 N779 0.984 . S
H785 N779 0.985 . S
H786 N783 0.984 . S
H787 N783 0.985 . S
H788 N782 0.984 . S
H789 N782 0.984 . S
H790 N778 0.984 . S
H791 N778 0.985 . S
C792 C793 1.363 . S
C792 C798 1.379 1_455 S
C792 N800 1.356 . S
C793 C792 1.363 . S
C793 C799 1.363 . S
C794 C795 1.363 . S
C794 C799 1.379 1_655 S
C794 N801 1.356 . S
C795 C794 1.363 . S
C795 C798 1.363 . S
N796 C798 1.356 . S
N796 H808 0.984 . S
N796 H809 0.985 . S
N797 C799 1.356 . S
N797 H802 0.984 . S
N797 H803 0.985 . S
C798 C792 1.379 1_655 S
C798 C795 1.363 . S
C798 N796 1.356 . S
C799 C793 1.363 . S
C799 C794 1.379 1_455 S
C799 N797 1.356 . S
N800 C792 1.356 . S
N800 H806 0.984 . S
N800 H807 0.984 . S
N801 C794 1.356 . S
N801 H804 0.984 . S
N801 H805 0.985 . S
H802 N797 0.984 . S
H803 N797 0.985 . S
H804 N801 0.984 . S
H805 N801 0.985 . S
H806 N800 0.984 . S
H807 N800 0.984 . S
H808 N796 0.984 . S
H809 N796 0.985 . S
C810 C811 1.363 . S
C810 C816 1.379 1_565 S
C810 N818 1.356 . S
C811 C810 1.363 . S
C811 C817 1.363 . S
C812 C813 1.363 . S
C812 C817 1.379 1_545 S
C812 N819 1.356 . S
C813 C812 1.363 . S
C813 C816 1.363 . S
N814 C816 1.356 . S
N814 H826 0.984 . S
N814 H827 0.985 . S
N815 C817 1.356 . S
N815 H820 0.984 . S
N815 H821 0.985 . S
C816 C810 1.379 1_545 S
C816 C813 1.363 . S
C816 N814 1.356 . S
C817 C811 1.363 . S
C817 C812 1.379 1_565 S
C817 N815 1.356 . S
N818 C810 1.356 . S
N818 H824 0.984 . S
N818 H825 0.984 . S
N819 C812 1.356 . S
N819 H822 0.984 . S
N819 H823 0.985 . S
H820 N815 0.984 . S
H821 N815 0.985 . S
H822 N819 0.984 . S
H823 N819 0.985 . S
H824 N818 0.984 . S
H825 N818 0.984 . S
H826 N814 0.984 . S
H827 N814 0.985 . S
C828 C829 1.363 . S
C828 C834 1.379 . S
C828 N836 1.356 . S
C829 C828 1.363 . S
C829 C835 1.363 . S
C830 C831 1.363 . S
C830 C835 1.379 . S
C830 N837 1.356 . S
C831 C830 1.363 . S
C831 C834 1.363 . S
N832 C834 1.356 . S
N832 H844 0.984 . S
N832 H845 0.985 . S
N833 C835 1.356 . S
N833 H838 0.984 . S
N833 H839 0.985 . S
C834 C828 1.379 . S
C834 C831 1.363 . S
C834 N832 1.356 . S
C835 C829 1.363 . S
C835 C830 1.379 . S
C835 N833 1.356 . S
N836 C828 1.356 . S
N836 H842 0.984 . S
N836 H843 0.984 . S
N837 C830 1.356 . S
N837 H840 0.984 . S
N837 H841 0.985 . S
H838 N833 0.984 . S
H839 N833 0.985 . S
H840 N837 0.984 . S
H841 N837 0.985 . S
H842 N836 0.984 . S
H843 N836 0.984 . S
H844 N832 0.984 . S
H845 N832 0.985 . S
C846 C847 1.363 . S
C846 C852 1.379 1_455 S
C846 N854 1.356 . S
C847 C846 1.363 . S
C847 C853 1.363 . S
C848 C849 1.363 . S
C848 C853 1.379 1_655 S
C848 N855 1.356 . S
C849 C848 1.363 . S
C849 C852 1.363 . S
N850 C852 1.356 . S
N850 H862 0.984 1_556 S
N850 H863 0.985 . S
N851 C853 1.356 . S
N851 H856 0.984 . S
N851 H857 0.985 . S
C852 C846 1.379 1_655 S
C852 C849 1.363 . S
C852 N850 1.356 . S
C853 C847 1.363 . S
C853 C848 1.379 1_455 S
C853 N851 1.356 . S
N854 C846 1.356 . S
N854 H860 0.984 1_556 S
N854 H861 0.984 . S
N855 C848 1.356 . S
N855 H858 0.984 . S
N855 H859 0.985 . S
H856 N851 0.984 . S
H857 N851 0.985 . S
H858 N855 0.984 . S
H859 N855 0.985 . S
H860 N854 0.984 1_554 S
H861 N854 0.984 . S
H862 N850 0.984 1_554 S
H863 N850 0.985 . S
C433 C2 1.296 . S
C435 C362 1.296 . S
C451 C38 1.296 . S
C453 C398 1.296 . S
C469 C218 1.295 . S
C471 C74 1.295 . S
C487 C110 1.296 . S
C489 C254 1.296 . S
C505 C290 1.296 . S
C507 C146 1.296 . S
C523 C326 1.295 . S
C525 C182 1.295 . S
C541 C291 1.380 . S
C543 C3 1.380 . S
C559 C39 1.380 . S
C561 C327 1.380 . S
C577 C363 1.380 . S
C579 C75 1.380 . S
C595 C111 1.380 . S
C597 C399 1.380 . S
C613 C147 1.380 . S
C615 C219 1.380 . S
C631 C183 1.380 . S
C633 C255 1.380 . S
C649 C374 1.459 . S
C651 C14 1.459 . S
C667 C410 1.459 . S
C669 C50 1.459 . S
C685 C230 1.459 . S
C687 C86 1.459 . S
C703 C122 1.459 . S
C705 C266 1.459 . S
C721 C158 1.459 . S
C723 C302 1.459 . S
C739 C338 1.459 . S
C741 C194 1.459 . S
C757 C4 1.370 . S
C759 C256 1.370 . S
C775 C292 1.370 . S
C777 C40 1.370 . S
C793 C328 1.370 . S
C795 C76 1.370 . S
C811 C112 1.370 . S
C813 C364 1.370 . S
C829 C148 1.370 . S
C831 C400 1.370 . S
C847 C184 1.370 . S
C849 C220 1.370 . S
