# Generated by pormake.
# Topology sxm, (6)-cn, num edge types: 1
# Building blocks:
#     Node 0, Type 0, BuildingBlock: CIFDUS_clean_sbu_1, # of connection points: 6
#     Node 1, Type 0, BuildingBlock: CIFDUS_clean_sbu_1, # of connection points: 6
#     Node 2, Type 0, BuildingBlock: CIFDUS_clean_sbu_1, # of connection points: 6
#     Node 3, Type 0, BuildingBlock: CIFDUS_clean_sbu_1, # of connection points: 6
#     Node 4, Type 0, BuildingBlock: CIFDUS_clean_sbu_1, # of connection points: 6
#     Node 5, Type 0, BuildingBlock: CIFDUS_clean_sbu_1, # of connection points: 6
#     Node 6, Type 0, BuildingBlock: CIFDUS_clean_sbu_1, # of connection points: 6
#     Node 7, Type 0, BuildingBlock: CIFDUS_clean_sbu_1, # of connection points: 6
#     Node 8, Type 0, BuildingBlock: CIFDUS_clean_sbu_1, # of connection points: 6
#     Node 9, Type 0, BuildingBlock: CIFDUS_clean_sbu_1, # of connection points: 6
#     Node 10, Type 0, BuildingBlock: CIFDUS_clean_sbu_1, # of connection points: 6
#     Node 11, Type 0, BuildingBlock: CIFDUS_clean_sbu_1, # of connection points: 6
#     Node 12, Type 0, BuildingBlock: CIFDUS_clean_sbu_1, # of connection points: 6
#     Node 13, Type 0, BuildingBlock: CIFDUS_clean_sbu_1, # of connection points: 6
#     Node 14, Type 0, BuildingBlock: CIFDUS_clean_sbu_1, # of connection points: 6
#     Node 15, Type 0, BuildingBlock: CIFDUS_clean_sbu_1, # of connection points: 6
#     Node 16, Type 0, BuildingBlock: CIFDUS_clean_sbu_1, # of connection points: 6
#     Node 17, Type 0, BuildingBlock: CIFDUS_clean_sbu_1, # of connection points: 6
#     Node 18, Type 0, BuildingBlock: CIFDUS_clean_sbu_1, # of connection points: 6
#     Node 19, Type 0, BuildingBlock: CIFDUS_clean_sbu_1, # of connection points: 6
#     Node 20, Type 0, BuildingBlock: CIFDUS_clean_sbu_1, # of connection points: 6
#     Node 21, Type 0, BuildingBlock: CIFDUS_clean_sbu_1, # of connection points: 6
#     Node 22, Type 0, BuildingBlock: CIFDUS_clean_sbu_1, # of connection points: 6
#     Node 23, Type 0, BuildingBlock: CIFDUS_clean_sbu_1, # of connection points: 6
#     Node 24, Type 0, BuildingBlock: CIFDUS_clean_sbu_1, # of connection points: 6
#     Node 25, Type 0, BuildingBlock: CIFDUS_clean_sbu_1, # of connection points: 6
#     Node 26, Type 0, BuildingBlock: CIFDUS_clean_sbu_1, # of connection points: 6
#     Node 27, Type 0, BuildingBlock: CIFDUS_clean_sbu_1, # of connection points: 6
#     Node 28, Type 0, BuildingBlock: CIFDUS_clean_sbu_1, # of connection points: 6
#     Node 29, Type 0, BuildingBlock: CIFDUS_clean_sbu_1, # of connection points: 6
#     Node 30, Type 0, BuildingBlock: CIFDUS_clean_sbu_1, # of connection points: 6
#     Node 31, Type 0, BuildingBlock: CIFDUS_clean_sbu_1, # of connection points: 6
#     Node 32, Type 0, BuildingBlock: CIFDUS_clean_sbu_1, # of connection points: 6
#     Node 33, Type 0, BuildingBlock: CIFDUS_clean_sbu_1, # of connection points: 6
#     Node 34, Type 0, BuildingBlock: CIFDUS_clean_sbu_1, # of connection points: 6
#     Node 35, Type 0, BuildingBlock: CIFDUS_clean_sbu_1, # of connection points: 6
#     Node 36, Type 0, BuildingBlock: CIFDUS_clean_sbu_1, # of connection points: 6
#     Node 37, Type 0, BuildingBlock: CIFDUS_clean_sbu_1, # of connection points: 6
#     Node 38, Type 0, BuildingBlock: CIFDUS_clean_sbu_1, # of connection points: 6
#     Node 39, Type 0, BuildingBlock: CIFDUS_clean_sbu_1, # of connection points: 6
#     Node 40, Type 0, BuildingBlock: CIFDUS_clean_sbu_1, # of connection points: 6
#     Node 41, Type 0, BuildingBlock: CIFDUS_clean_sbu_1, # of connection points: 6
#     Node 42, Type 0, BuildingBlock: CIFDUS_clean_sbu_1, # of connection points: 6
#     Node 43, Type 0, BuildingBlock: CIFDUS_clean_sbu_1, # of connection points: 6
#     Node 44, Type 0, BuildingBlock: CIFDUS_clean_sbu_1, # of connection points: 6
#     Node 45, Type 0, BuildingBlock: CIFDUS_clean_sbu_1, # of connection points: 6
#     Node 46, Type 0, BuildingBlock: CIFDUS_clean_sbu_1, # of connection points: 6
#     Node 47, Type 0, BuildingBlock: CIFDUS_clean_sbu_1, # of connection points: 6
#     Node 48, Type 0, BuildingBlock: CIFDUS_clean_sbu_1, # of connection points: 6
#     Node 49, Type 0, BuildingBlock: CIFDUS_clean_sbu_1, # of connection points: 6
#     Node 50, Type 0, BuildingBlock: CIFDUS_clean_sbu_1, # of connection points: 6
#     Node 51, Type 0, BuildingBlock: CIFDUS_clean_sbu_1, # of connection points: 6
#     Node 52, Type 0, BuildingBlock: CIFDUS_clean_sbu_1, # of connection points: 6
#     Node 53, Type 0, BuildingBlock: CIFDUS_clean_sbu_1, # of connection points: 6
#     Node 54, Type 0, BuildingBlock: CIFDUS_clean_sbu_1, # of connection points: 6
#     Node 55, Type 0, BuildingBlock: CIFDUS_clean_sbu_1, # of connection points: 6
#     Node 56, Type 0, BuildingBlock: CIFDUS_clean_sbu_1, # of connection points: 6
#     Node 57, Type 0, BuildingBlock: CIFDUS_clean_sbu_1, # of connection points: 6
#     Node 58, Type 0, BuildingBlock: CIFDUS_clean_sbu_1, # of connection points: 6
#     Node 59, Type 0, BuildingBlock: CIFDUS_clean_sbu_1, # of connection points: 6
#     Node 60, Type 0, BuildingBlock: CIFDUS_clean_sbu_1, # of connection points: 6
#     Node 61, Type 0, BuildingBlock: CIFDUS_clean_sbu_1, # of connection points: 6
#     Node 62, Type 0, BuildingBlock: CIFDUS_clean_sbu_1, # of connection points: 6
#     Node 63, Type 0, BuildingBlock: CIFDUS_clean_sbu_1, # of connection points: 6
#     Node 64, Type 0, BuildingBlock: CIFDUS_clean_sbu_1, # of connection points: 6
#     Node 65, Type 0, BuildingBlock: CIFDUS_clean_sbu_1, # of connection points: 6
#     Node 66, Type 0, BuildingBlock: CIFDUS_clean_sbu_1, # of connection points: 6
#     Node 67, Type 0, BuildingBlock: CIFDUS_clean_sbu_1, # of connection points: 6
#     Node 68, Type 0, BuildingBlock: CIFDUS_clean_sbu_1, # of connection points: 6
#     Node 69, Type 0, BuildingBlock: CIFDUS_clean_sbu_1, # of connection points: 6
#     Node 70, Type 0, BuildingBlock: CIFDUS_clean_sbu_1, # of connection points: 6
#     Node 71, Type 0, BuildingBlock: CIFDUS_clean_sbu_1, # of connection points: 6
#     Node 72, Type 0, BuildingBlock: CIFDUS_clean_sbu_1, # of connection points: 6
#     Node 73, Type 0, BuildingBlock: CIFDUS_clean_sbu_1, # of connection points: 6
#     Node 74, Type 0, BuildingBlock: CIFDUS_clean_sbu_1, # of connection points: 6
#     Node 75, Type 0, BuildingBlock: CIFDUS_clean_sbu_1, # of connection points: 6
#     Node 76, Type 0, BuildingBlock: CIFDUS_clean_sbu_1, # of connection points: 6
#     Node 77, Type 0, BuildingBlock: CIFDUS_clean_sbu_1, # of connection points: 6
#     Node 78, Type 0, BuildingBlock: CIFDUS_clean_sbu_1, # of connection points: 6
#     Node 79, Type 0, BuildingBlock: CIFDUS_clean_sbu_1, # of connection points: 6
#     Node 80, Type 0, BuildingBlock: CIFDUS_clean_sbu_1, # of connection points: 6
#     Node 81, Type 0, BuildingBlock: CIFDUS_clean_sbu_1, # of connection points: 6
#     Node 82, Type 0, BuildingBlock: CIFDUS_clean_sbu_1, # of connection points: 6
#     Node 83, Type 0, BuildingBlock: CIFDUS_clean_sbu_1, # of connection points: 6
#     Node 84, Type 0, BuildingBlock: CIFDUS_clean_sbu_1, # of connection points: 6
#     Node 85, Type 0, BuildingBlock: CIFDUS_clean_sbu_1, # of connection points: 6
#     Node 86, Type 0, BuildingBlock: CIFDUS_clean_sbu_1, # of connection points: 6
#     Node 87, Type 0, BuildingBlock: CIFDUS_clean_sbu_1, # of connection points: 6
#     Node 88, Type 0, BuildingBlock: CIFDUS_clean_sbu_1, # of connection points: 6
#     Node 89, Type 0, BuildingBlock: CIFDUS_clean_sbu_1, # of connection points: 6
#     Node 90, Type 0, BuildingBlock: CIFDUS_clean_sbu_1, # of connection points: 6
#     Node 91, Type 0, BuildingBlock: CIFDUS_clean_sbu_1, # of connection points: 6
#     Node 92, Type 0, BuildingBlock: CIFDUS_clean_sbu_1, # of connection points: 6
#     Node 93, Type 0, BuildingBlock: CIFDUS_clean_sbu_1, # of connection points: 6
#     Node 94, Type 0, BuildingBlock: CIFDUS_clean_sbu_1, # of connection points: 6
#     Node 95, Type 0, BuildingBlock: CIFDUS_clean_sbu_1, # of connection points: 6
#     Node 96, Type 0, BuildingBlock: CIFDUS_clean_sbu_1, # of connection points: 6
#     Node 97, Type 0, BuildingBlock: CIFDUS_clean_sbu_1, # of connection points: 6
#     Node 98, Type 0, BuildingBlock: CIFDUS_clean_sbu_1, # of connection points: 6
#     Node 99, Type 0, BuildingBlock: CIFDUS_clean_sbu_1, # of connection points: 6
#     Node 100, Type 0, BuildingBlock: CIFDUS_clean_sbu_1, # of connection points: 6
#     Node 101, Type 0, BuildingBlock: CIFDUS_clean_sbu_1, # of connection points: 6
#     Node 102, Type 0, BuildingBlock: CIFDUS_clean_sbu_1, # of connection points: 6
#     Node 103, Type 0, BuildingBlock: CIFDUS_clean_sbu_1, # of connection points: 6
#     Node 104, Type 0, BuildingBlock: CIFDUS_clean_sbu_1, # of connection points: 6
#     Node 105, Type 0, BuildingBlock: CIFDUS_clean_sbu_1, # of connection points: 6
#     Node 106, Type 0, BuildingBlock: CIFDUS_clean_sbu_1, # of connection points: 6
#     Node 107, Type 0, BuildingBlock: CIFDUS_clean_sbu_1, # of connection points: 6
#     Node 108, Type 0, BuildingBlock: CIFDUS_clean_sbu_1, # of connection points: 6
#     Node 109, Type 0, BuildingBlock: CIFDUS_clean_sbu_1, # of connection points: 6
#     Node 110, Type 0, BuildingBlock: CIFDUS_clean_sbu_1, # of connection points: 6
#     Node 111, Type 0, BuildingBlock: CIFDUS_clean_sbu_1, # of connection points: 6
#     Node 112, Type 0, BuildingBlock: CIFDUS_clean_sbu_1, # of connection points: 6
#     Node 113, Type 0, BuildingBlock: CIFDUS_clean_sbu_1, # of connection points: 6
#     Node 114, Type 0, BuildingBlock: CIFDUS_clean_sbu_1, # of connection points: 6
#     Node 115, Type 0, BuildingBlock: CIFDUS_clean_sbu_1, # of connection points: 6
#     Node 116, Type 0, BuildingBlock: CIFDUS_clean_sbu_1, # of connection points: 6
#     Node 117, Type 0, BuildingBlock: CIFDUS_clean_sbu_1, # of connection points: 6
#     Node 118, Type 0, BuildingBlock: CIFDUS_clean_sbu_1, # of connection points: 6
#     Node 119, Type 0, BuildingBlock: CIFDUS_clean_sbu_1, # of connection points: 6
#     Node 120, Type 0, BuildingBlock: CIFDUS_clean_sbu_1, # of connection points: 6
#     Node 121, Type 0, BuildingBlock: CIFDUS_clean_sbu_1, # of connection points: 6
#     Node 122, Type 0, BuildingBlock: CIFDUS_clean_sbu_1, # of connection points: 6
#     Node 123, Type 0, BuildingBlock: CIFDUS_clean_sbu_1, # of connection points: 6
#     Node 124, Type 0, BuildingBlock: CIFDUS_clean_sbu_1, # of connection points: 6
#     Node 125, Type 0, BuildingBlock: CIFDUS_clean_sbu_1, # of connection points: 6
#     Node 126, Type 0, BuildingBlock: CIFDUS_clean_sbu_1, # of connection points: 6
#     Node 127, Type 0, BuildingBlock: CIFDUS_clean_sbu_1, # of connection points: 6
#     Node 128, Type 0, BuildingBlock: CIFDUS_clean_sbu_1, # of connection points: 6
#     Node 129, Type 0, BuildingBlock: CIFDUS_clean_sbu_1, # of connection points: 6
#     Node 130, Type 0, BuildingBlock: CIFDUS_clean_sbu_1, # of connection points: 6
#     Node 131, Type 0, BuildingBlock: CIFDUS_clean_sbu_1, # of connection points: 6
#     Node 132, Type 0, BuildingBlock: CIFDUS_clean_sbu_1, # of connection points: 6
#     Node 133, Type 0, BuildingBlock: CIFDUS_clean_sbu_1, # of connection points: 6
#     Node 134, Type 0, BuildingBlock: CIFDUS_clean_sbu_1, # of connection points: 6
#     Node 135, Type 0, BuildingBlock: CIFDUS_clean_sbu_1, # of connection points: 6
#     Node 136, Type 0, BuildingBlock: CIFDUS_clean_sbu_1, # of connection points: 6
#     Node 137, Type 0, BuildingBlock: CIFDUS_clean_sbu_1, # of connection points: 6
#     Node 138, Type 0, BuildingBlock: CIFDUS_clean_sbu_1, # of connection points: 6
#     Node 139, Type 0, BuildingBlock: CIFDUS_clean_sbu_1, # of connection points: 6
#     Node 140, Type 0, BuildingBlock: CIFDUS_clean_sbu_1, # of connection points: 6
#     Node 141, Type 0, BuildingBlock: CIFDUS_clean_sbu_1, # of connection points: 6
#     Node 142, Type 0, BuildingBlock: CIFDUS_clean_sbu_1, # of connection points: 6
#     Node 143, Type 0, BuildingBlock: CIFDUS_clean_sbu_1, # of connection points: 6
#     Node 144, Type 0, BuildingBlock: CIFDUS_clean_sbu_1, # of connection points: 6
#     Node 145, Type 0, BuildingBlock: CIFDUS_clean_sbu_1, # of connection points: 6
#     Node 146, Type 0, BuildingBlock: CIFDUS_clean_sbu_1, # of connection points: 6
#     Node 147, Type 0, BuildingBlock: CIFDUS_clean_sbu_1, # of connection points: 6
#     Node 148, Type 0, BuildingBlock: CIFDUS_clean_sbu_1, # of connection points: 6
#     Node 149, Type 0, BuildingBlock: CIFDUS_clean_sbu_1, # of connection points: 6
#     Node 150, Type 0, BuildingBlock: CIFDUS_clean_sbu_1, # of connection points: 6
#     Node 151, Type 0, BuildingBlock: CIFDUS_clean_sbu_1, # of connection points: 6
#     Node 152, Type 0, BuildingBlock: CIFDUS_clean_sbu_1, # of connection points: 6
#     Node 153, Type 0, BuildingBlock: CIFDUS_clean_sbu_1, # of connection points: 6
#     Node 154, Type 0, BuildingBlock: CIFDUS_clean_sbu_1, # of connection points: 6
#     Node 155, Type 0, BuildingBlock: CIFDUS_clean_sbu_1, # of connection points: 6
#     Node 156, Type 0, BuildingBlock: CIFDUS_clean_sbu_1, # of connection points: 6
#     Node 157, Type 0, BuildingBlock: CIFDUS_clean_sbu_1, # of connection points: 6
#     Node 158, Type 0, BuildingBlock: CIFDUS_clean_sbu_1, # of connection points: 6
#     Node 159, Type 0, BuildingBlock: CIFDUS_clean_sbu_1, # of connection points: 6
#     Node 160, Type 0, BuildingBlock: CIFDUS_clean_sbu_1, # of connection points: 6
#     Node 161, Type 0, BuildingBlock: CIFDUS_clean_sbu_1, # of connection points: 6
#     Node 162, Type 0, BuildingBlock: CIFDUS_clean_sbu_1, # of connection points: 6
#     Node 163, Type 0, BuildingBlock: CIFDUS_clean_sbu_1, # of connection points: 6
#     Node 164, Type 0, BuildingBlock: CIFDUS_clean_sbu_1, # of connection points: 6
#     Node 165, Type 0, BuildingBlock: CIFDUS_clean_sbu_1, # of connection points: 6
#     Node 166, Type 0, BuildingBlock: CIFDUS_clean_sbu_1, # of connection points: 6
#     Node 167, Type 0, BuildingBlock: CIFDUS_clean_sbu_1, # of connection points: 6
#     Node 168, Type 0, BuildingBlock: CIFDUS_clean_sbu_1, # of connection points: 6
#     Node 169, Type 0, BuildingBlock: CIFDUS_clean_sbu_1, # of connection points: 6
#     Node 170, Type 0, BuildingBlock: CIFDUS_clean_sbu_1, # of connection points: 6
#     Node 171, Type 0, BuildingBlock: CIFDUS_clean_sbu_1, # of connection points: 6
#     Node 172, Type 0, BuildingBlock: CIFDUS_clean_sbu_1, # of connection points: 6
#     Node 173, Type 0, BuildingBlock: CIFDUS_clean_sbu_1, # of connection points: 6
#     Node 174, Type 0, BuildingBlock: CIFDUS_clean_sbu_1, # of connection points: 6
#     Node 175, Type 0, BuildingBlock: CIFDUS_clean_sbu_1, # of connection points: 6
#     Node 176, Type 0, BuildingBlock: CIFDUS_clean_sbu_1, # of connection points: 6
#     Node 177, Type 0, BuildingBlock: CIFDUS_clean_sbu_1, # of connection points: 6
#     Node 178, Type 0, BuildingBlock: CIFDUS_clean_sbu_1, # of connection points: 6
#     Node 179, Type 0, BuildingBlock: CIFDUS_clean_sbu_1, # of connection points: 6
#     Node 180, Type 0, BuildingBlock: CIFDUS_clean_sbu_1, # of connection points: 6
#     Node 181, Type 0, BuildingBlock: CIFDUS_clean_sbu_1, # of connection points: 6
#     Node 182, Type 0, BuildingBlock: CIFDUS_clean_sbu_1, # of connection points: 6
#     Node 183, Type 0, BuildingBlock: CIFDUS_clean_sbu_1, # of connection points: 6
#     Node 184, Type 0, BuildingBlock: CIFDUS_clean_sbu_1, # of connection points: 6
#     Node 185, Type 0, BuildingBlock: CIFDUS_clean_sbu_1, # of connection points: 6
#     Node 186, Type 0, BuildingBlock: CIFDUS_clean_sbu_1, # of connection points: 6
#     Node 187, Type 0, BuildingBlock: CIFDUS_clean_sbu_1, # of connection points: 6
#     Node 188, Type 0, BuildingBlock: CIFDUS_clean_sbu_1, # of connection points: 6
#     Node 189, Type 0, BuildingBlock: CIFDUS_clean_sbu_1, # of connection points: 6
#     Node 190, Type 0, BuildingBlock: CIFDUS_clean_sbu_1, # of connection points: 6
#     Node 191, Type 0, BuildingBlock: CIFDUS_clean_sbu_1, # of connection points: 6
#     Edge 192, Type (0, 0), None
#     Edge 193, Type (0, 0), None
#     Edge 194, Type (0, 0), None
#     Edge 195, Type (0, 0), None
#     Edge 196, Type (0, 0), None
#     Edge 197, Type (0, 0), None
#     Edge 198, Type (0, 0), None
#     Edge 199, Type (0, 0), None
#     Edge 200, Type (0, 0), None
#     Edge 201, Type (0, 0), None
#     Edge 202, Type (0, 0), None
#     Edge 203, Type (0, 0), None
#     Edge 204, Type (0, 0), None
#     Edge 205, Type (0, 0), None
#     Edge 206, Type (0, 0), None
#     Edge 207, Type (0, 0), None
#     Edge 208, Type (0, 0), None
#     Edge 209, Type (0, 0), None
#     Edge 210, Type (0, 0), None
#     Edge 211, Type (0, 0), None
#     Edge 212, Type (0, 0), None
#     Edge 213, Type (0, 0), None
#     Edge 214, Type (0, 0), None
#     Edge 215, Type (0, 0), None
#     Edge 216, Type (0, 0), None
#     Edge 217, Type (0, 0), None
#     Edge 218, Type (0, 0), None
#     Edge 219, Type (0, 0), None
#     Edge 220, Type (0, 0), None
#     Edge 221, Type (0, 0), None
#     Edge 222, Type (0, 0), None
#     Edge 223, Type (0, 0), None
#     Edge 224, Type (0, 0), None
#     Edge 225, Type (0, 0), None
#     Edge 226, Type (0, 0), None
#     Edge 227, Type (0, 0), None
#     Edge 228, Type (0, 0), None
#     Edge 229, Type (0, 0), None
#     Edge 230, Type (0, 0), None
#     Edge 231, Type (0, 0), None
#     Edge 232, Type (0, 0), None
#     Edge 233, Type (0, 0), None
#     Edge 234, Type (0, 0), None
#     Edge 235, Type (0, 0), None
#     Edge 236, Type (0, 0), None
#     Edge 237, Type (0, 0), None
#     Edge 238, Type (0, 0), None
#     Edge 239, Type (0, 0), None
#     Edge 240, Type (0, 0), None
#     Edge 241, Type (0, 0), None
#     Edge 242, Type (0, 0), None
#     Edge 243, Type (0, 0), None
#     Edge 244, Type (0, 0), None
#     Edge 245, Type (0, 0), None
#     Edge 246, Type (0, 0), None
#     Edge 247, Type (0, 0), None
#     Edge 248, Type (0, 0), None
#     Edge 249, Type (0, 0), None
#     Edge 250, Type (0, 0), None
#     Edge 251, Type (0, 0), None
#     Edge 252, Type (0, 0), None
#     Edge 253, Type (0, 0), None
#     Edge 254, Type (0, 0), None
#     Edge 255, Type (0, 0), None
#     Edge 256, Type (0, 0), None
#     Edge 257, Type (0, 0), None
#     Edge 258, Type (0, 0), None
#     Edge 259, Type (0, 0), None
#     Edge 260, Type (0, 0), None
#     Edge 261, Type (0, 0), None
#     Edge 262, Type (0, 0), None
#     Edge 263, Type (0, 0), None
#     Edge 264, Type (0, 0), None
#     Edge 265, Type (0, 0), None
#     Edge 266, Type (0, 0), None
#     Edge 267, Type (0, 0), None
#     Edge 268, Type (0, 0), None
#     Edge 269, Type (0, 0), None
#     Edge 270, Type (0, 0), None
#     Edge 271, Type (0, 0), None
#     Edge 272, Type (0, 0), None
#     Edge 273, Type (0, 0), None
#     Edge 274, Type (0, 0), None
#     Edge 275, Type (0, 0), None
#     Edge 276, Type (0, 0), None
#     Edge 277, Type (0, 0), None
#     Edge 278, Type (0, 0), None
#     Edge 279, Type (0, 0), None
#     Edge 280, Type (0, 0), None
#     Edge 281, Type (0, 0), None
#     Edge 282, Type (0, 0), None
#     Edge 283, Type (0, 0), None
#     Edge 284, Type (0, 0), None
#     Edge 285, Type (0, 0), None
#     Edge 286, Type (0, 0), None
#     Edge 287, Type (0, 0), None
#     Edge 288, Type (0, 0), None
#     Edge 289, Type (0, 0), None
#     Edge 290, Type (0, 0), None
#     Edge 291, Type (0, 0), None
#     Edge 292, Type (0, 0), None
#     Edge 293, Type (0, 0), None
#     Edge 294, Type (0, 0), None
#     Edge 295, Type (0, 0), None
#     Edge 296, Type (0, 0), None
#     Edge 297, Type (0, 0), None
#     Edge 298, Type (0, 0), None
#     Edge 299, Type (0, 0), None
#     Edge 300, Type (0, 0), None
#     Edge 301, Type (0, 0), None
#     Edge 302, Type (0, 0), None
#     Edge 303, Type (0, 0), None
#     Edge 304, Type (0, 0), None
#     Edge 305, Type (0, 0), None
#     Edge 306, Type (0, 0), None
#     Edge 307, Type (0, 0), None
#     Edge 308, Type (0, 0), None
#     Edge 309, Type (0, 0), None
#     Edge 310, Type (0, 0), None
#     Edge 311, Type (0, 0), None
#     Edge 312, Type (0, 0), None
#     Edge 313, Type (0, 0), None
#     Edge 314, Type (0, 0), None
#     Edge 315, Type (0, 0), None
#     Edge 316, Type (0, 0), None
#     Edge 317, Type (0, 0), None
#     Edge 318, Type (0, 0), None
#     Edge 319, Type (0, 0), None
#     Edge 320, Type (0, 0), None
#     Edge 321, Type (0, 0), None
#     Edge 322, Type (0, 0), None
#     Edge 323, Type (0, 0), None
#     Edge 324, Type (0, 0), None
#     Edge 325, Type (0, 0), None
#     Edge 326, Type (0, 0), None
#     Edge 327, Type (0, 0), None
#     Edge 328, Type (0, 0), None
#     Edge 329, Type (0, 0), None
#     Edge 330, Type (0, 0), None
#     Edge 331, Type (0, 0), None
#     Edge 332, Type (0, 0), None
#     Edge 333, Type (0, 0), None
#     Edge 334, Type (0, 0), None
#     Edge 335, Type (0, 0), None
#     Edge 336, Type (0, 0), None
#     Edge 337, Type (0, 0), None
#     Edge 338, Type (0, 0), None
#     Edge 339, Type (0, 0), None
#     Edge 340, Type (0, 0), None
#     Edge 341, Type (0, 0), None
#     Edge 342, Type (0, 0), None
#     Edge 343, Type (0, 0), None
#     Edge 344, Type (0, 0), None
#     Edge 345, Type (0, 0), None
#     Edge 346, Type (0, 0), None
#     Edge 347, Type (0, 0), None
#     Edge 348, Type (0, 0), None
#     Edge 349, Type (0, 0), None
#     Edge 350, Type (0, 0), None
#     Edge 351, Type (0, 0), None
#     Edge 352, Type (0, 0), None
#     Edge 353, Type (0, 0), None
#     Edge 354, Type (0, 0), None
#     Edge 355, Type (0, 0), None
#     Edge 356, Type (0, 0), None
#     Edge 357, Type (0, 0), None
#     Edge 358, Type (0, 0), None
#     Edge 359, Type (0, 0), None
#     Edge 360, Type (0, 0), None
#     Edge 361, Type (0, 0), None
#     Edge 362, Type (0, 0), None
#     Edge 363, Type (0, 0), None
#     Edge 364, Type (0, 0), None
#     Edge 365, Type (0, 0), None
#     Edge 366, Type (0, 0), None
#     Edge 367, Type (0, 0), None
#     Edge 368, Type (0, 0), None
#     Edge 369, Type (0, 0), None
#     Edge 370, Type (0, 0), None
#     Edge 371, Type (0, 0), None
#     Edge 372, Type (0, 0), None
#     Edge 373, Type (0, 0), None
#     Edge 374, Type (0, 0), None
#     Edge 375, Type (0, 0), None
#     Edge 376, Type (0, 0), None
#     Edge 377, Type (0, 0), None
#     Edge 378, Type (0, 0), None
#     Edge 379, Type (0, 0), None
#     Edge 380, Type (0, 0), None
#     Edge 381, Type (0, 0), None
#     Edge 382, Type (0, 0), None
#     Edge 383, Type (0, 0), None
#     Edge 384, Type (0, 0), None
#     Edge 385, Type (0, 0), None
#     Edge 386, Type (0, 0), None
#     Edge 387, Type (0, 0), None
#     Edge 388, Type (0, 0), None
#     Edge 389, Type (0, 0), None
#     Edge 390, Type (0, 0), None
#     Edge 391, Type (0, 0), None
#     Edge 392, Type (0, 0), None
#     Edge 393, Type (0, 0), None
#     Edge 394, Type (0, 0), None
#     Edge 395, Type (0, 0), None
#     Edge 396, Type (0, 0), None
#     Edge 397, Type (0, 0), None
#     Edge 398, Type (0, 0), None
#     Edge 399, Type (0, 0), None
#     Edge 400, Type (0, 0), None
#     Edge 401, Type (0, 0), None
#     Edge 402, Type (0, 0), None
#     Edge 403, Type (0, 0), None
#     Edge 404, Type (0, 0), None
#     Edge 405, Type (0, 0), None
#     Edge 406, Type (0, 0), None
#     Edge 407, Type (0, 0), None
#     Edge 408, Type (0, 0), None
#     Edge 409, Type (0, 0), None
#     Edge 410, Type (0, 0), None
#     Edge 411, Type (0, 0), None
#     Edge 412, Type (0, 0), None
#     Edge 413, Type (0, 0), None
#     Edge 414, Type (0, 0), None
#     Edge 415, Type (0, 0), None
#     Edge 416, Type (0, 0), None
#     Edge 417, Type (0, 0), None
#     Edge 418, Type (0, 0), None
#     Edge 419, Type (0, 0), None
#     Edge 420, Type (0, 0), None
#     Edge 421, Type (0, 0), None
#     Edge 422, Type (0, 0), None
#     Edge 423, Type (0, 0), None
#     Edge 424, Type (0, 0), None
#     Edge 425, Type (0, 0), None
#     Edge 426, Type (0, 0), None
#     Edge 427, Type (0, 0), None
#     Edge 428, Type (0, 0), None
#     Edge 429, Type (0, 0), None
#     Edge 430, Type (0, 0), None
#     Edge 431, Type (0, 0), None
#     Edge 432, Type (0, 0), None
#     Edge 433, Type (0, 0), None
#     Edge 434, Type (0, 0), None
#     Edge 435, Type (0, 0), None
#     Edge 436, Type (0, 0), None
#     Edge 437, Type (0, 0), None
#     Edge 438, Type (0, 0), None
#     Edge 439, Type (0, 0), None
#     Edge 440, Type (0, 0), None
#     Edge 441, Type (0, 0), None
#     Edge 442, Type (0, 0), None
#     Edge 443, Type (0, 0), None
#     Edge 444, Type (0, 0), None
#     Edge 445, Type (0, 0), None
#     Edge 446, Type (0, 0), None
#     Edge 447, Type (0, 0), None
#     Edge 448, Type (0, 0), None
#     Edge 449, Type (0, 0), None
#     Edge 450, Type (0, 0), None
#     Edge 451, Type (0, 0), None
#     Edge 452, Type (0, 0), None
#     Edge 453, Type (0, 0), None
#     Edge 454, Type (0, 0), None
#     Edge 455, Type (0, 0), None
#     Edge 456, Type (0, 0), None
#     Edge 457, Type (0, 0), None
#     Edge 458, Type (0, 0), None
#     Edge 459, Type (0, 0), None
#     Edge 460, Type (0, 0), None
#     Edge 461, Type (0, 0), None
#     Edge 462, Type (0, 0), None
#     Edge 463, Type (0, 0), None
#     Edge 464, Type (0, 0), None
#     Edge 465, Type (0, 0), None
#     Edge 466, Type (0, 0), None
#     Edge 467, Type (0, 0), None
#     Edge 468, Type (0, 0), None
#     Edge 469, Type (0, 0), None
#     Edge 470, Type (0, 0), None
#     Edge 471, Type (0, 0), None
#     Edge 472, Type (0, 0), None
#     Edge 473, Type (0, 0), None
#     Edge 474, Type (0, 0), None
#     Edge 475, Type (0, 0), None
#     Edge 476, Type (0, 0), None
#     Edge 477, Type (0, 0), None
#     Edge 478, Type (0, 0), None
#     Edge 479, Type (0, 0), None
#     Edge 480, Type (0, 0), None
#     Edge 481, Type (0, 0), None
#     Edge 482, Type (0, 0), None
#     Edge 483, Type (0, 0), None
#     Edge 484, Type (0, 0), None
#     Edge 485, Type (0, 0), None
#     Edge 486, Type (0, 0), None
#     Edge 487, Type (0, 0), None
#     Edge 488, Type (0, 0), None
#     Edge 489, Type (0, 0), None
#     Edge 490, Type (0, 0), None
#     Edge 491, Type (0, 0), None
#     Edge 492, Type (0, 0), None
#     Edge 493, Type (0, 0), None
#     Edge 494, Type (0, 0), None
#     Edge 495, Type (0, 0), None
#     Edge 496, Type (0, 0), None
#     Edge 497, Type (0, 0), None
#     Edge 498, Type (0, 0), None
#     Edge 499, Type (0, 0), None
#     Edge 500, Type (0, 0), None
#     Edge 501, Type (0, 0), None
#     Edge 502, Type (0, 0), None
#     Edge 503, Type (0, 0), None
#     Edge 504, Type (0, 0), None
#     Edge 505, Type (0, 0), None
#     Edge 506, Type (0, 0), None
#     Edge 507, Type (0, 0), None
#     Edge 508, Type (0, 0), None
#     Edge 509, Type (0, 0), None
#     Edge 510, Type (0, 0), None
#     Edge 511, Type (0, 0), None
#     Edge 512, Type (0, 0), None
#     Edge 513, Type (0, 0), None
#     Edge 514, Type (0, 0), None
#     Edge 515, Type (0, 0), None
#     Edge 516, Type (0, 0), None
#     Edge 517, Type (0, 0), None
#     Edge 518, Type (0, 0), None
#     Edge 519, Type (0, 0), None
#     Edge 520, Type (0, 0), None
#     Edge 521, Type (0, 0), None
#     Edge 522, Type (0, 0), None
#     Edge 523, Type (0, 0), None
#     Edge 524, Type (0, 0), None
#     Edge 525, Type (0, 0), None
#     Edge 526, Type (0, 0), None
#     Edge 527, Type (0, 0), None
#     Edge 528, Type (0, 0), None
#     Edge 529, Type (0, 0), None
#     Edge 530, Type (0, 0), None
#     Edge 531, Type (0, 0), None
#     Edge 532, Type (0, 0), None
#     Edge 533, Type (0, 0), None
#     Edge 534, Type (0, 0), None
#     Edge 535, Type (0, 0), None
#     Edge 536, Type (0, 0), None
#     Edge 537, Type (0, 0), None
#     Edge 538, Type (0, 0), None
#     Edge 539, Type (0, 0), None
#     Edge 540, Type (0, 0), None
#     Edge 541, Type (0, 0), None
#     Edge 542, Type (0, 0), None
#     Edge 543, Type (0, 0), None
#     Edge 544, Type (0, 0), None
#     Edge 545, Type (0, 0), None
#     Edge 546, Type (0, 0), None
#     Edge 547, Type (0, 0), None
#     Edge 548, Type (0, 0), None
#     Edge 549, Type (0, 0), None
#     Edge 550, Type (0, 0), None
#     Edge 551, Type (0, 0), None
#     Edge 552, Type (0, 0), None
#     Edge 553, Type (0, 0), None
#     Edge 554, Type (0, 0), None
#     Edge 555, Type (0, 0), None
#     Edge 556, Type (0, 0), None
#     Edge 557, Type (0, 0), None
#     Edge 558, Type (0, 0), None
#     Edge 559, Type (0, 0), None
#     Edge 560, Type (0, 0), None
#     Edge 561, Type (0, 0), None
#     Edge 562, Type (0, 0), None
#     Edge 563, Type (0, 0), None
#     Edge 564, Type (0, 0), None
#     Edge 565, Type (0, 0), None
#     Edge 566, Type (0, 0), None
#     Edge 567, Type (0, 0), None
#     Edge 568, Type (0, 0), None
#     Edge 569, Type (0, 0), None
#     Edge 570, Type (0, 0), None
#     Edge 571, Type (0, 0), None
#     Edge 572, Type (0, 0), None
#     Edge 573, Type (0, 0), None
#     Edge 574, Type (0, 0), None
#     Edge 575, Type (0, 0), None
#     Edge 576, Type (0, 0), None
#     Edge 577, Type (0, 0), None
#     Edge 578, Type (0, 0), None
#     Edge 579, Type (0, 0), None
#     Edge 580, Type (0, 0), None
#     Edge 581, Type (0, 0), None
#     Edge 582, Type (0, 0), None
#     Edge 583, Type (0, 0), None
#     Edge 584, Type (0, 0), None
#     Edge 585, Type (0, 0), None
#     Edge 586, Type (0, 0), None
#     Edge 587, Type (0, 0), None
#     Edge 588, Type (0, 0), None
#     Edge 589, Type (0, 0), None
#     Edge 590, Type (0, 0), None
#     Edge 591, Type (0, 0), None
#     Edge 592, Type (0, 0), None
#     Edge 593, Type (0, 0), None
#     Edge 594, Type (0, 0), None
#     Edge 595, Type (0, 0), None
#     Edge 596, Type (0, 0), None
#     Edge 597, Type (0, 0), None
#     Edge 598, Type (0, 0), None
#     Edge 599, Type (0, 0), None
#     Edge 600, Type (0, 0), None
#     Edge 601, Type (0, 0), None
#     Edge 602, Type (0, 0), None
#     Edge 603, Type (0, 0), None
#     Edge 604, Type (0, 0), None
#     Edge 605, Type (0, 0), None
#     Edge 606, Type (0, 0), None
#     Edge 607, Type (0, 0), None
#     Edge 608, Type (0, 0), None
#     Edge 609, Type (0, 0), None
#     Edge 610, Type (0, 0), None
#     Edge 611, Type (0, 0), None
#     Edge 612, Type (0, 0), None
#     Edge 613, Type (0, 0), None
#     Edge 614, Type (0, 0), None
#     Edge 615, Type (0, 0), None
#     Edge 616, Type (0, 0), None
#     Edge 617, Type (0, 0), None
#     Edge 618, Type (0, 0), None
#     Edge 619, Type (0, 0), None
#     Edge 620, Type (0, 0), None
#     Edge 621, Type (0, 0), None
#     Edge 622, Type (0, 0), None
#     Edge 623, Type (0, 0), None
#     Edge 624, Type (0, 0), None
#     Edge 625, Type (0, 0), None
#     Edge 626, Type (0, 0), None
#     Edge 627, Type (0, 0), None
#     Edge 628, Type (0, 0), None
#     Edge 629, Type (0, 0), None
#     Edge 630, Type (0, 0), None
#     Edge 631, Type (0, 0), None
#     Edge 632, Type (0, 0), None
#     Edge 633, Type (0, 0), None
#     Edge 634, Type (0, 0), None
#     Edge 635, Type (0, 0), None
#     Edge 636, Type (0, 0), None
#     Edge 637, Type (0, 0), None
#     Edge 638, Type (0, 0), None
#     Edge 639, Type (0, 0), None
#     Edge 640, Type (0, 0), None
#     Edge 641, Type (0, 0), None
#     Edge 642, Type (0, 0), None
#     Edge 643, Type (0, 0), None
#     Edge 644, Type (0, 0), None
#     Edge 645, Type (0, 0), None
#     Edge 646, Type (0, 0), None
#     Edge 647, Type (0, 0), None
#     Edge 648, Type (0, 0), None
#     Edge 649, Type (0, 0), None
#     Edge 650, Type (0, 0), None
#     Edge 651, Type (0, 0), None
#     Edge 652, Type (0, 0), None
#     Edge 653, Type (0, 0), None
#     Edge 654, Type (0, 0), None
#     Edge 655, Type (0, 0), None
#     Edge 656, Type (0, 0), None
#     Edge 657, Type (0, 0), None
#     Edge 658, Type (0, 0), None
#     Edge 659, Type (0, 0), None
#     Edge 660, Type (0, 0), None
#     Edge 661, Type (0, 0), None
#     Edge 662, Type (0, 0), None
#     Edge 663, Type (0, 0), None
#     Edge 664, Type (0, 0), None
#     Edge 665, Type (0, 0), None
#     Edge 666, Type (0, 0), None
#     Edge 667, Type (0, 0), None
#     Edge 668, Type (0, 0), None
#     Edge 669, Type (0, 0), None
#     Edge 670, Type (0, 0), None
#     Edge 671, Type (0, 0), None
#     Edge 672, Type (0, 0), None
#     Edge 673, Type (0, 0), None
#     Edge 674, Type (0, 0), None
#     Edge 675, Type (0, 0), None
#     Edge 676, Type (0, 0), None
#     Edge 677, Type (0, 0), None
#     Edge 678, Type (0, 0), None
#     Edge 679, Type (0, 0), None
#     Edge 680, Type (0, 0), None
#     Edge 681, Type (0, 0), None
#     Edge 682, Type (0, 0), None
#     Edge 683, Type (0, 0), None
#     Edge 684, Type (0, 0), None
#     Edge 685, Type (0, 0), None
#     Edge 686, Type (0, 0), None
#     Edge 687, Type (0, 0), None
#     Edge 688, Type (0, 0), None
#     Edge 689, Type (0, 0), None
#     Edge 690, Type (0, 0), None
#     Edge 691, Type (0, 0), None
#     Edge 692, Type (0, 0), None
#     Edge 693, Type (0, 0), None
#     Edge 694, Type (0, 0), None
#     Edge 695, Type (0, 0), None
#     Edge 696, Type (0, 0), None
#     Edge 697, Type (0, 0), None
#     Edge 698, Type (0, 0), None
#     Edge 699, Type (0, 0), None
#     Edge 700, Type (0, 0), None
#     Edge 701, Type (0, 0), None
#     Edge 702, Type (0, 0), None
#     Edge 703, Type (0, 0), None
#     Edge 704, Type (0, 0), None
#     Edge 705, Type (0, 0), None
#     Edge 706, Type (0, 0), None
#     Edge 707, Type (0, 0), None
#     Edge 708, Type (0, 0), None
#     Edge 709, Type (0, 0), None
#     Edge 710, Type (0, 0), None
#     Edge 711, Type (0, 0), None
#     Edge 712, Type (0, 0), None
#     Edge 713, Type (0, 0), None
#     Edge 714, Type (0, 0), None
#     Edge 715, Type (0, 0), None
#     Edge 716, Type (0, 0), None
#     Edge 717, Type (0, 0), None
#     Edge 718, Type (0, 0), None
#     Edge 719, Type (0, 0), None
#     Edge 720, Type (0, 0), None
#     Edge 721, Type (0, 0), None
#     Edge 722, Type (0, 0), None
#     Edge 723, Type (0, 0), None
#     Edge 724, Type (0, 0), None
#     Edge 725, Type (0, 0), None
#     Edge 726, Type (0, 0), None
#     Edge 727, Type (0, 0), None
#     Edge 728, Type (0, 0), None
#     Edge 729, Type (0, 0), None
#     Edge 730, Type (0, 0), None
#     Edge 731, Type (0, 0), None
#     Edge 732, Type (0, 0), None
#     Edge 733, Type (0, 0), None
#     Edge 734, Type (0, 0), None
#     Edge 735, Type (0, 0), None
#     Edge 736, Type (0, 0), None
#     Edge 737, Type (0, 0), None
#     Edge 738, Type (0, 0), None
#     Edge 739, Type (0, 0), None
#     Edge 740, Type (0, 0), None
#     Edge 741, Type (0, 0), None
#     Edge 742, Type (0, 0), None
#     Edge 743, Type (0, 0), None
#     Edge 744, Type (0, 0), None
#     Edge 745, Type (0, 0), None
#     Edge 746, Type (0, 0), None
#     Edge 747, Type (0, 0), None
#     Edge 748, Type (0, 0), None
#     Edge 749, Type (0, 0), None
#     Edge 750, Type (0, 0), None
#     Edge 751, Type (0, 0), None
#     Edge 752, Type (0, 0), None
#     Edge 753, Type (0, 0), None
#     Edge 754, Type (0, 0), None
#     Edge 755, Type (0, 0), None
#     Edge 756, Type (0, 0), None
#     Edge 757, Type (0, 0), None
#     Edge 758, Type (0, 0), None
#     Edge 759, Type (0, 0), None
#     Edge 760, Type (0, 0), None
#     Edge 761, Type (0, 0), None
#     Edge 762, Type (0, 0), None
#     Edge 763, Type (0, 0), None
#     Edge 764, Type (0, 0), None
#     Edge 765, Type (0, 0), None
#     Edge 766, Type (0, 0), None
#     Edge 767, Type (0, 0), None
# Relax obj value: 0.592
# Max RMSD: 0.293
# Mean RMSD: 0.293
data_MOF--net-sxm--node1-CIFDUS_clean_sbu_1--edge1-none
_symmetry_space_group_name_H-M    P1
_symmetry_Int_Tables_number       1
_symmetry_cell_setting            triclinic
loop_
_symmetry_equiv_pos_as_xyz
'x, y, z'
_cell_length_a     40.911
_cell_length_b     40.911131
_cell_length_c     40.910763
_cell_angle_alpha  90.000427
_cell_angle_beta   90.000258
_cell_angle_gamma 90.000065
loop_
_atom_site_label
_atom_site_type_symbol
_atom_site_fract_x
_atom_site_fract_y
_atom_site_fract_z
_atom_type_partial_charge
O0 O 0.06388 0.24697 0.18106 0.0
Mn1 Mn 0.03869 0.27942 0.14741 0.0
O2 O 0.07797 0.27969 0.2198 0.0
Mn3 Mn 0.08828 0.31364 0.19276 0.0
O4 O 0.01714 0.30914 0.10716 0.0
O5 O 0.02708 0.23762 0.1271 0.0
Mn6 Mn 0.99368 0.24089 0.09969 0.0
O7 O 0.99181 0.27949 0.16641 0.0
O8 O 0.00651 0.27174 0.06835 0.0
O9 O 0.0846 0.28051 0.12622 0.0
O10 O 0.11856 0.30438 0.16287 0.0
O11 O 0.99728 0.19783 0.1148 0.0
O12 O 0.9615 0.26295 0.12278 0.0
C13 C 0.05207 0.34648 0.19129 0.0
C14 C 0.08084 0.25196 0.20709 0.0
C15 C 0.00722 0.30185 0.07745 0.0
C16 C 0.01512 0.21023 0.1377 0.0
C17 C 0.96454 0.27718 0.1503 0.0
C18 C 0.11308 0.28869 0.13704 0.0
O19 O 0.05113 0.32052 0.17294 0.0
O20 O 0.08027 0.3554 0.20272 0.0
O21 O 0.2234 0.24182 0.4164 0.0
Mn22 Mn 0.22346 0.28869 0.39741 0.0
O23 O 0.23994 0.21151 0.37276 0.0
Mn24 Mn 0.262 0.2437 0.34968 0.0
O25 O 0.22237 0.33461 0.37621 0.0
O26 O 0.18237 0.30113 0.42295 0.0
Mn27 Mn 0.18926 0.33827 0.44276 0.0
O28 O 0.25592 0.31388 0.43106 0.0
O29 O 0.19852 0.36857 0.41288 0.0
O30 O 0.19375 0.26715 0.35716 0.0
O31 O 0.23115 0.25652 0.31834 0.0
O32 O 0.14749 0.3303 0.45272 0.0
O33 O 0.2232 0.32796 0.4698 0.0
C34 C 0.29266 0.26513 0.38769 0.0
C35 C 0.22571 0.21454 0.40028 0.0
C36 C 0.21419 0.36309 0.38704 0.0
C37 C 0.1564 0.30209 0.44129 0.0
C38 C 0.25093 0.33083 0.4571 0.0
C39 C 0.20104 0.25722 0.32744 0.0
O40 O 0.26526 0.27709 0.37709 0.0
O41 O 0.30507 0.24729 0.36479 0.0
O42 O 0.26106 0.47341 0.66639 0.0
Mn43 Mn 0.21419 0.47348 0.64739 0.0
O44 O 0.29137 0.48994 0.62275 0.0
Mn45 Mn 0.25919 0.512 0.59966 0.0
O46 O 0.16827 0.47237 0.62619 0.0
O47 O 0.20176 0.43238 0.67295 0.0
Mn48 Mn 0.16462 0.4393 0.69276 0.0
O49 O 0.189 0.50594 0.68103 0.0
O50 O 0.13432 0.44855 0.66289 0.0
O51 O 0.23573 0.44375 0.60716 0.0
O52 O 0.24636 0.48114 0.56833 0.0
O53 O 0.17257 0.39752 0.70272 0.0
O54 O 0.17495 0.47323 0.7198 0.0
C55 C 0.23776 0.54267 0.63767 0.0
C56 C 0.28833 0.47572 0.65027 0.0
C57 C 0.1398 0.46419 0.63703 0.0
C58 C 0.20078 0.40641 0.69128 0.0
C59 C 0.17207 0.50096 0.70708 0.0
C60 C 0.24566 0.45104 0.57743 0.0
O61 O 0.22579 0.51527 0.62707 0.0
O62 O 0.2556 0.55507 0.61477 0.0
O63 O 0.99693 0.43897 0.93102 0.0
Mn64 Mn 0.0294 0.46416 0.89739 0.0
O65 O 0.02964 0.42491 0.96978 0.0
Mn66 Mn 0.06359 0.41459 0.94276 0.0
O67 O 0.05913 0.48571 0.85715 0.0
O68 O 0.98761 0.47578 0.87706 0.0
Mn69 Mn 0.99089 0.50917 0.84965 0.0
O70 O 0.02947 0.51104 0.91639 0.0
O71 O 0.02175 0.49634 0.81832 0.0
O72 O 0.0305 0.41825 0.87619 0.0
O73 O 0.05434 0.38429 0.91287 0.0
O74 O 0.94782 0.50561 0.86476 0.0
O75 O 0.01296 0.54135 0.87274 0.0
C76 C 0.09645 0.45078 0.94129 0.0
C77 C 0.00191 0.42203 0.95706 0.0
C78 C 0.05185 0.49564 0.82743 0.0
C79 C 0.96021 0.48777 0.88766 0.0
C80 C 0.02717 0.53831 0.90027 0.0
C81 C 0.03868 0.38977 0.88702 0.0
O82 O 0.07049 0.45173 0.92294 0.0
O83 O 0.10535 0.42257 0.95273 0.0
O84 O 0.99183 0.97347 0.08653 0.0
Mn85 Mn 0.0387 0.97353 0.10552 0.0
O86 O 0.96152 0.98997 0.13017 0.0
Mn87 Mn 0.99369 0.01204 0.15326 0.0
O88 O 0.08462 0.97241 0.12673 0.0
O89 O 0.05112 0.93244 0.07995 0.0
Mn90 Mn 0.08826 0.93938 0.06014 0.0
O91 O 0.06389 0.00601 0.07191 0.0
O92 O 0.11856 0.94863 0.09001 0.0
O93 O 0.01715 0.94379 0.14575 0.0
O94 O 0.00653 0.98118 0.18458 0.0
O95 O 0.08036 0.8976 0.05018 0.0
O96 O 0.07789 0.97332 0.03313 0.0
C97 C 0.0151 0.04272 0.11525 0.0
C98 C 0.96456 0.97576 0.10265 0.0
C99 C 0.11309 0.96424 0.11588 0.0
C100 C 0.05213 0.90647 0.06161 0.0
C101 C 0.08081 1.00104 0.04584 0.0
C102 C 0.00723 0.95107 0.17547 0.0
O103 O 0.02709 0.01533 0.12585 0.0
O104 O 0.99725 0.05511 0.13815 0.0
O105 O 0.52943 0.24182 0.33654 0.0
Mn106 Mn 0.52936 0.28869 0.35554 0.0
O107 O 0.51295 0.21151 0.38019 0.0
Mn108 Mn 0.49086 0.24367 0.40327 0.0
O109 O 0.53047 0.33461 0.37674 0.0
O110 O 0.57045 0.30113 0.32997 0.0
Mn111 Mn 0.56352 0.33827 0.31015 0.0
O112 O 0.49688 0.31389 0.32192 0.0
O113 O 0.55427 0.36856 0.34003 0.0
O114 O 0.5591 0.26715 0.39577 0.0
O115 O 0.52171 0.25653 0.4346 0.0
O116 O 0.60529 0.33034 0.30019 0.0
O117 O 0.52957 0.3279 0.28315 0.0
C118 C 0.46018 0.26506 0.36526 0.0
C119 C 0.52715 0.21455 0.35266 0.0
C120 C 0.53865 0.36309 0.36591 0.0
C121 C 0.59641 0.30212 0.31162 0.0
C122 C 0.50185 0.33081 0.29586 0.0
C123 C 0.55182 0.25724 0.42549 0.0
O124 O 0.48756 0.27707 0.37586 0.0
O125 O 0.4478 0.24721 0.38816 0.0
O126 O 0.18903 0.74692 0.57184 0.0
Mn127 Mn 0.21421 0.77939 0.60548 0.0
O128 O 0.17498 0.77962 0.53307 0.0
Mn129 Mn 0.16464 0.81356 0.5601 0.0
O130 O 0.23575 0.80912 0.64572 0.0
O131 O 0.22582 0.73759 0.62581 0.0
Mn132 Mn 0.25921 0.74088 0.65322 0.0
O133 O 0.26109 0.77945 0.58649 0.0
O134 O 0.24638 0.77174 0.68455 0.0
O135 O 0.1683 0.78049 0.62667 0.0
O136 O 0.13434 0.80431 0.58998 0.0
O137 O 0.25564 0.69781 0.63812 0.0
O138 O 0.29139 0.76294 0.63013 0.0
C139 C 0.20081 0.84644 0.56158 0.0
C140 C 0.17209 0.7519 0.54579 0.0
C141 C 0.24568 0.80184 0.67544 0.0
C142 C 0.2378 0.7102 0.61522 0.0
C143 C 0.28836 0.77715 0.60261 0.0
C144 C 0.13982 0.78867 0.61584 0.0
O145 O 0.20178 0.82047 0.57993 0.0
O146 O 0.17261 0.85533 0.55014 0.0
O147 O 0.75593 0.43902 0.82184 0.0
Mn148 Mn 0.72348 0.46421 0.85549 0.0
O149 O 0.72321 0.42495 0.7831 0.0
Mn150 Mn 0.68928 0.41463 0.81014 0.0
O151 O 0.69377 0.48576 0.89574 0.0
O152 O 0.76529 0.47581 0.87581 0.0
Mn153 Mn 0.76203 0.50921 0.90322 0.0
O154 O 0.72342 0.51109 0.8365 0.0
O155 O 0.73117 0.49639 0.93455 0.0
O156 O 0.72238 0.41829 0.87669 0.0
O157 O 0.69853 0.38434 0.84002 0.0
O158 O 0.80509 0.5056 0.8881 0.0
O159 O 0.73998 0.54139 0.88013 0.0
C160 C 0.65641 0.45082 0.81162 0.0
C161 C 0.75095 0.42207 0.79581 0.0
C162 C 0.70106 0.49569 0.92546 0.0
C163 C 0.79269 0.48777 0.86521 0.0
C164 C 0.72574 0.53836 0.85261 0.0
C165 C 0.7142 0.38982 0.86587 0.0
O166 O 0.68239 0.45178 0.82996 0.0
O167 O 0.64751 0.42261 0.80019 0.0
O168 O 0.16639 0.99179 0.27946 0.0
Mn169 Mn 0.1474 0.03867 0.27939 0.0
O170 O 0.12274 0.96149 0.26294 0.0
Mn171 Mn 0.09966 0.99367 0.24087 0.0
O172 O 0.12621 0.08459 0.28048 0.0
O173 O 0.17294 0.05111 0.32048 0.0
Mn174 Mn 0.19277 0.08824 0.31357 0.0
O175 O 0.18105 0.06384 0.24693 0.0
O176 O 0.1629 0.11854 0.30431 0.0
O177 O 0.10715 0.01714 0.30911 0.0
O178 O 0.06833 0.00651 0.27172 0.0
O179 O 0.20272 0.08029 0.35535 0.0
O180 O 0.2198 0.07791 0.27963 0.0
C181 C 0.13768 0.01508 0.2102 0.0
C182 C 0.15026 0.96452 0.27715 0.0
C183 C 0.13705 0.11307 0.28865 0.0
C184 C 0.19128 0.05208 0.34646 0.0
C185 C 0.20709 0.08079 0.25191 0.0
C186 C 0.07743 0.00721 0.30183 0.0
O187 O 0.12708 0.02706 0.23759 0.0
O188 O 0.11479 0.99724 0.1978 0.0
O189 O 0.51106 0.41638 0.52949 0.0
Mn190 Mn 0.46419 0.39738 0.52942 0.0
O191 O 0.54138 0.37274 0.51299 0.0
Mn192 Mn 0.50921 0.34965 0.49091 0.0
O193 O 0.41827 0.37618 0.53051 0.0
O194 O 0.45174 0.42292 0.57051 0.0
Mn195 Mn 0.4146 0.44274 0.56362 0.0
O196 O 0.439 0.43101 0.49695 0.0
O197 O 0.38432 0.41285 0.55436 0.0
O198 O 0.48573 0.35713 0.55915 0.0
O199 O 0.49637 0.31831 0.52175 0.0
O200 O 0.42259 0.4527 0.60538 0.0
O201 O 0.42492 0.46976 0.52967 0.0
C202 C 0.4878 0.38766 0.46024 0.0
C203 C 0.53833 0.40027 0.5272 0.0
C204 C 0.38979 0.38701 0.53869 0.0
C205 C 0.4508 0.44127 0.59647 0.0
C206 C 0.42204 0.45705 0.50194 0.0
C207 C 0.49566 0.32741 0.55186 0.0
O208 O 0.47581 0.37706 0.48762 0.0
O209 O 0.50564 0.36477 0.44784 0.0
O210 O 0.07192 0.68899 0.74688 0.0
Mn211 Mn 0.10553 0.71418 0.77936 0.0
O212 O 0.03314 0.67498 0.77957 0.0
Mn213 Mn 0.06014 0.66461 0.81352 0.0
O214 O 0.14576 0.73573 0.80911 0.0
O215 O 0.12586 0.72581 0.73757 0.0
Mn216 Mn 0.15327 0.7592 0.74087 0.0
O217 O 0.08653 0.76105 0.77942 0.0
O218 O 0.18459 0.74636 0.77172 0.0
O219 O 0.12673 0.66827 0.78048 0.0
O220 O 0.09002 0.63432 0.80428 0.0
O221 O 0.13816 0.75565 0.6978 0.0
O222 O 0.13018 0.79137 0.76295 0.0
C223 C 0.06161 0.70076 0.84642 0.0
C224 C 0.04586 0.67207 0.75185 0.0
C225 C 0.17549 0.74565 0.80183 0.0
C226 C 0.11526 0.7378 0.71018 0.0
C227 C 0.10265 0.78832 0.77714 0.0
C228 C 0.11589 0.6398 0.78865 0.0
O229 O 0.07997 0.70175 0.82045 0.0
O230 O 0.05018 0.67255 0.85529 0.0
O231 O 0.81387 0.3219 0.99695 0.0
Mn232 Mn 0.78868 0.35553 0.02942 0.0
O233 O 0.8279 0.28314 0.02966 0.0
Mn234 Mn 0.83825 0.31016 0.0636 0.0
O235 O 0.76714 0.39577 0.05915 0.0
O236 O 0.77707 0.37585 0.98762 0.0
Mn237 Mn 0.74368 0.40327 0.9909 0.0
O238 O 0.74181 0.33654 0.02949 0.0
O239 O 0.75651 0.4346 0.02176 0.0
O240 O 0.8346 0.37672 0.03052 0.0
O241 O 0.86855 0.34003 0.05435 0.0
O242 O 0.74725 0.38815 0.94784 0.0
O243 O 0.7115 0.38018 0.01297 0.0
C244 C 0.80209 0.31163 0.09648 0.0
C245 C 0.8308 0.29585 0.00193 0.0
C246 C 0.75722 0.4255 0.05187 0.0
C247 C 0.76509 0.36525 0.96023 0.0
C248 C 0.71453 0.35266 0.02718 0.0
C249 C 0.86308 0.36588 0.03869 0.0
O250 O 0.80112 0.32998 0.07051 0.0
O251 O 0.8303 0.30021 0.10538 0.0
O252 O 0.16638 0.26104 0.97342 0.0
Mn253 Mn 0.14738 0.21417 0.97348 0.0
O254 O 0.12274 0.29135 0.98994 0.0
Mn255 Mn 0.09965 0.25917 0.012 0.0
O256 O 0.12618 0.16825 0.97237 0.0
O257 O 0.17293 0.20173 0.93239 0.0
Mn258 Mn 0.19275 0.16459 0.9393 0.0
O259 O 0.18102 0.18898 0.00594 0.0
O260 O 0.16287 0.1343 0.94855 0.0
O261 O 0.10715 0.23571 0.94375 0.0
O262 O 0.06832 0.24634 0.98114 0.0
O263 O 0.2027 0.17255 0.89752 0.0
O264 O 0.21978 0.17492 0.97324 0.0
C265 C 0.13765 0.23774 0.04267 0.0
C266 C 0.15026 0.28831 0.97573 0.0
C267 C 0.13701 0.13978 0.96419 0.0
C268 C 0.19127 0.20076 0.90642 0.0
C269 C 0.20707 0.17204 1.00096 0.0
C270 C 0.07742 0.24564 0.95103 0.0
O271 O 0.12706 0.22577 0.01528 0.0
O272 O 0.11475 0.25558 0.05507 0.0
O273 O 0.24183 0.41636 0.22341 0.0
Mn274 Mn 0.2887 0.39735 0.22349 0.0
O275 O 0.21151 0.37273 0.23993 0.0
Mn276 Mn 0.24368 0.34964 0.26201 0.0
O277 O 0.33461 0.37615 0.22239 0.0
O278 O 0.30115 0.4229 0.18239 0.0
Mn279 Mn 0.33829 0.44271 0.18929 0.0
O280 O 0.3139 0.43098 0.25595 0.0
O281 O 0.36857 0.41282 0.19854 0.0
O282 O 0.26715 0.35712 0.19376 0.0
O283 O 0.2565 0.3183 0.23115 0.0
O284 O 0.33031 0.45268 0.14752 0.0
O285 O 0.32794 0.46973 0.22324 0.0
C286 C 0.2651 0.38765 0.29267 0.0
C287 C 0.21455 0.40025 0.22572 0.0
C288 C 0.36309 0.38697 0.2142 0.0
C289 C 0.3021 0.44125 0.15643 0.0
C290 C 0.33084 0.45702 0.25097 0.0
C291 C 0.25721 0.3274 0.20104 0.0
O292 O 0.27708 0.37704 0.26528 0.0
O293 O 0.24726 0.36475 0.30507 0.0
O294 O 0.07188 0.56389 0.50595 0.0
Mn295 Mn 0.10552 0.53868 0.47349 0.0
O296 O 0.03313 0.57796 0.47324 0.0
Mn297 Mn 0.06016 0.58827 0.43929 0.0
O298 O 0.14575 0.51713 0.44376 0.0
O299 O 0.12583 0.52706 0.51529 0.0
Mn300 Mn 0.15324 0.49366 0.51199 0.0
O301 O 0.0865 0.49182 0.47342 0.0
O302 O 0.18458 0.5065 0.48115 0.0
O303 O 0.12672 0.58459 0.47239 0.0
O304 O 0.09005 0.61855 0.44854 0.0
O305 O 0.13813 0.49721 0.55506 0.0
O306 O 0.13015 0.4615 0.48991 0.0
C307 C 0.06163 0.55208 0.40643 0.0
C308 C 0.04585 0.58084 0.50096 0.0
C309 C 0.17547 0.50721 0.45105 0.0
C310 C 0.11523 0.51506 0.54268 0.0
C311 C 0.10262 0.46454 0.47571 0.0
C312 C 0.1159 0.61307 0.4642 0.0
O313 O 0.07998 0.55113 0.4324 0.0
O314 O 0.05021 0.5803 0.39752 0.0
O315 O 0.01105 0.33648 0.72342 0.0
Mn316 Mn 0.96419 0.35549 0.7235 0.0
O317 O 0.04138 0.38012 0.73992 0.0
Mn318 Mn 0.00921 0.40322 0.762 0.0
O319 O 0.91828 0.37669 0.7224 0.0
O320 O 0.95174 0.32995 0.6824 0.0
Mn321 Mn 0.9146 0.31013 0.6893 0.0
O322 O 0.93899 0.32185 0.75596 0.0
O323 O 0.88432 0.34002 0.69856 0.0
O324 O 0.98573 0.39572 0.69376 0.0
O325 O 0.99638 0.43455 0.73114 0.0
O326 O 0.92258 0.30018 0.64753 0.0
O327 O 0.92492 0.28311 0.72324 0.0
C328 C 0.98781 0.36521 0.79268 0.0
C329 C 0.03833 0.35259 0.72571 0.0
C330 C 0.8898 0.36587 0.71422 0.0
C331 C 0.95079 0.3116 0.65644 0.0
C332 C 0.92203 0.29582 0.75097 0.0
C333 C 0.99566 0.42545 0.70104 0.0
O334 O 0.97581 0.37581 0.76529 0.0
O335 O 0.00566 0.3881 0.80506 0.0
O336 O 0.27943 0.16637 0.99182 0.0
Mn337 Mn 0.27938 0.14737 0.03869 0.0
O338 O 0.26291 0.12273 0.96151 0.0
Mn339 Mn 0.24086 0.09964 0.9937 0.0
O340 O 0.2805 0.12617 0.0846 0.0
O341 O 0.32048 0.17292 0.05111 0.0
Mn342 Mn 0.31358 0.19273 0.08826 0.0
O343 O 0.24692 0.18101 0.06389 0.0
O344 O 0.30433 0.16285 0.11856 0.0
O345 O 0.30911 0.10713 0.01714 0.0
O346 O 0.27172 0.0683 0.0065 0.0
O347 O 0.35535 0.20269 0.08029 0.0
O348 O 0.27963 0.21977 0.07795 0.0
C349 C 0.2102 0.1376 0.01507 0.0
C350 C 0.27713 0.15026 0.96455 0.0
C351 C 0.28868 0.137 0.11308 0.0
C352 C 0.34645 0.19127 0.05208 0.0
C353 C 0.25191 0.20705 0.08083 0.0
C354 C 0.30182 0.07741 0.00721 0.0
O355 O 0.23759 0.12704 0.0271 0.0
O356 O 0.19777 0.11472 0.99723 0.0
O357 O 0.77946 0.08652 0.76107 0.0
Mn358 Mn 0.77939 0.10551 0.71419 0.0
O359 O 0.76291 0.13015 0.79137 0.0
Mn360 Mn 0.74085 0.15323 0.75919 0.0
O361 O 0.78049 0.1267 0.66827 0.0
O362 O 0.82049 0.07997 0.70175 0.0
Mn363 Mn 0.81359 0.06014 0.66462 0.0
O364 O 0.74693 0.07187 0.689 0.0
O365 O 0.80433 0.09001 0.63432 0.0
O366 O 0.80911 0.14575 0.73573 0.0
O367 O 0.77171 0.18457 0.74637 0.0
O368 O 0.85536 0.05019 0.67258 0.0
O369 O 0.77965 0.03312 0.67496 0.0
C370 C 0.71019 0.11522 0.73775 0.0
C371 C 0.77714 0.10263 0.78834 0.0
C372 C 0.78867 0.11586 0.63979 0.0
C373 C 0.84646 0.06162 0.70079 0.0
C374 C 0.75192 0.04583 0.67206 0.0
C375 C 0.80182 0.17547 0.74566 0.0
O376 O 0.73759 0.12582 0.72579 0.0
O377 O 0.69779 0.13811 0.75559 0.0
O378 O 0.41636 0.02943 0.01107 0.0
Mn379 Mn 0.39736 0.02938 0.9642 0.0
O380 O 0.37272 0.01293 0.04138 0.0
Mn381 Mn 0.34963 0.99086 0.0092 0.0
O382 O 0.37616 0.03048 0.91829 0.0
O383 O 0.42292 0.07047 0.95177 0.0
Mn384 Mn 0.44273 0.06356 0.91463 0.0
O385 O 0.43099 0.99691 0.939 0.0
O386 O 0.41285 0.05431 0.88434 0.0
O387 O 0.35713 0.05911 0.98575 0.0
O388 O 0.3183 0.02172 0.99637 0.0
O389 O 0.45268 0.10533 0.92257 0.0
O390 O 0.46975 0.02962 0.92498 0.0
C391 C 0.38764 0.96019 0.9878 0.0
C392 C 0.40024 0.02714 0.03834 0.0
C393 C 0.387 0.03866 0.88981 0.0
C394 C 0.44126 0.09644 0.95079 0.0
C395 C 0.45704 0.0019 0.92206 0.0
C396 C 0.32741 0.05182 0.99567 0.0
O397 O 0.37704 0.98758 0.97581 0.0
O398 O 0.36475 0.94779 0.00564 0.0
O399 O 0.47342 0.66638 0.26104 0.0
Mn400 Mn 0.47349 0.64737 0.21417 0.0
O401 O 0.48992 0.62273 0.29136 0.0
Mn402 Mn 0.512 0.59965 0.25919 0.0
O403 O 0.47241 0.62618 0.16826 0.0
O404 O 0.4324 0.67291 0.20173 0.0
Mn405 Mn 0.43928 0.69273 0.16459 0.0
O406 O 0.50595 0.68102 0.18898 0.0
O407 O 0.44854 0.66284 0.1343 0.0
O408 O 0.44377 0.60713 0.23572 0.0
O409 O 0.48116 0.56831 0.24635 0.0
O410 O 0.39751 0.70268 0.17258 0.0
O411 O 0.47323 0.71976 0.1749 0.0
C412 C 0.54268 0.63766 0.23779 0.0
C413 C 0.47572 0.65026 0.28832 0.0
C414 C 0.46422 0.637 0.13978 0.0
C415 C 0.40643 0.69126 0.20079 0.0
C416 C 0.50096 0.70705 0.17202 0.0
C417 C 0.45105 0.5774 0.24564 0.0
O418 O 0.51529 0.62706 0.22579 0.0
O419 O 0.55507 0.61476 0.25563 0.0
O420 O 0.32184 0.25596 0.43904 0.0
Mn421 Mn 0.35548 0.22349 0.46421 0.0
O422 O 0.28306 0.22325 0.42494 0.0
Mn423 Mn 0.3101 0.18932 0.41463 0.0
O424 O 0.39571 0.19375 0.48576 0.0
O425 O 0.37581 0.26528 0.47582 0.0
Mn426 Mn 0.40322 0.262 0.50921 0.0
O427 O 0.33648 0.22343 0.51109 0.0
O428 O 0.43454 0.23114 0.49639 0.0
O429 O 0.37667 0.22238 0.4183 0.0
O430 O 0.33997 0.19858 0.38434 0.0
O431 O 0.38811 0.30507 0.50563 0.0
O432 O 0.38013 0.23994 0.54139 0.0
C433 C 0.31157 0.15643 0.4508 0.0
C434 C 0.29579 0.25098 0.42211 0.0
C435 C 0.42543 0.20103 0.49569 0.0
C436 C 0.36521 0.29267 0.48779 0.0
C437 C 0.3526 0.22573 0.53836 0.0
C438 C 0.36584 0.21421 0.38982 0.0
O439 O 0.32992 0.18241 0.45178 0.0
O440 O 0.30014 0.14755 0.42258 0.0
O441 O 0.97339 0.08652 0.99183 0.0
Mn442 Mn 0.97347 0.10552 0.0387 0.0
O443 O 0.98989 0.13015 0.96151 0.0
Mn444 Mn 0.01197 0.15324 0.99368 0.0
O445 O 0.97238 0.12671 0.08463 0.0
O446 O 0.93238 0.07997 0.05115 0.0
Mn447 Mn 0.93927 0.06015 0.0883 0.0
O448 O 0.00593 0.07188 0.06388 0.0
O449 O 0.94853 0.09004 0.11859 0.0
O450 O 0.94373 0.14576 0.01717 0.0
O451 O 0.98112 0.18458 0.00652 0.0
O452 O 0.89751 0.05018 0.0803 0.0
O453 O 0.97321 0.03311 0.07801 0.0
C454 C 0.04265 0.11523 0.01509 0.0
C455 C 0.97569 0.10262 0.96455 0.0
C456 C 0.96419 0.11588 0.11311 0.0
C457 C 0.90642 0.06161 0.05209 0.0
C458 C 1.00094 0.04584 0.08083 0.0
C459 C 0.95102 0.17548 0.00724 0.0
O460 O 0.01526 0.12583 0.02708 0.0
O461 O 0.05504 0.13813 0.99724 0.0
O462 O 0.41641 0.72339 0.74182 0.0
Mn463 Mn 0.39742 0.72346 0.7887 0.0
O464 O 0.37278 0.73992 0.71151 0.0
Mn465 Mn 0.34968 0.76198 0.74369 0.0
O466 O 0.37623 0.72237 0.83461 0.0
O467 O 0.42295 0.68237 0.80114 0.0
Mn468 Mn 0.44279 0.68926 0.83828 0.0
O469 O 0.43106 0.75592 0.81388 0.0
O470 O 0.4129 0.69851 0.86857 0.0
O471 O 0.35717 0.69373 0.76716 0.0
O472 O 0.31835 0.73112 0.75652 0.0
O473 O 0.45275 0.64749 0.83027 0.0
O474 O 0.46981 0.72321 0.82796 0.0
C475 C 0.38769 0.79265 0.76512 0.0
C476 C 0.4003 0.7257 0.71454 0.0
C477 C 0.38706 0.71418 0.86309 0.0
C478 C 0.44131 0.65641 0.80207 0.0
C479 C 0.4571 0.75094 0.83084 0.0
C480 C 0.32745 0.70101 0.75723 0.0
O481 O 0.37709 0.76525 0.77709 0.0
O482 O 0.36479 0.80505 0.74728 0.0
O483 O 0.82184 0.99697 0.3139 0.0
Mn484 Mn 0.85548 0.02943 0.28871 0.0
O485 O 0.78308 0.02968 0.32797 0.0
Mn486 Mn 0.81011 0.06362 0.33829 0.0
O487 O 0.89573 0.05915 0.26717 0.0
O488 O 0.87581 0.98763 0.27711 0.0
Mn489 Mn 0.90322 0.99091 0.24371 0.0
O490 O 0.83649 0.02949 0.24184 0.0
O491 O 0.93455 0.02176 0.25655 0.0
O492 O 0.87668 0.03053 0.33462 0.0
O493 O 0.84 0.05436 0.36858 0.0
O494 O 0.88811 0.94784 0.2473 0.0
O495 O 0.88013 0.01298 0.21153 0.0
C496 C 0.8116 0.09649 0.30211 0.0
C497 C 0.7958 0.00195 0.33084 0.0
C498 C 0.92545 0.05187 0.25726 0.0
C499 C 0.86521 0.96024 0.26513 0.0
C500 C 0.85261 0.02719 0.21457 0.0
C501 C 0.86585 0.03871 0.3631 0.0
O502 O 0.82994 0.07052 0.30115 0.0
O503 O 0.80016 0.10539 0.33031 0.0
O504 O 0.01107 0.72341 0.83647 0.0
Mn505 Mn 0.9642 0.72347 0.85548 0.0
O506 O 0.04139 0.73995 0.8801 0.0
Mn507 Mn 0.00921 0.762 0.9032 0.0
O508 O 0.91829 0.72238 0.87668 0.0
O509 O 0.95176 0.68237 0.82995 0.0
Mn510 Mn 0.91461 0.68925 0.81014 0.0
O511 O 0.939 0.75592 0.82184 0.0
O512 O 0.88433 0.69851 0.84003 0.0
O513 O 0.98575 0.69375 0.89572 0.0
O514 O 0.99639 0.73115 0.93454 0.0
O515 O 0.92261 0.64749 0.80017 0.0
O516 O 0.92491 0.7232 0.7831 0.0
C517 C 0.98776 0.79267 0.86519 0.0
C518 C 0.03836 0.72577 0.85256 0.0
C519 C 0.88981 0.71419 0.86586 0.0
C520 C 0.95082 0.65641 0.8116 0.0
C521 C 0.92204 0.75093 0.79581 0.0
C522 C 0.99568 0.70104 0.92544 0.0
O523 O 0.97581 0.76526 0.87579 0.0
O524 O 0.0056 0.80507 0.88809 0.0
O525 O 0.77949 0.76106 0.58649 0.0
Mn526 Mn 0.77942 0.71418 0.60548 0.0
O527 O 0.76295 0.79136 0.63013 0.0
Mn528 Mn 0.74089 0.75918 0.65321 0.0
O529 O 0.78051 0.66826 0.62667 0.0
O530 O 0.82052 0.70175 0.57994 0.0
Mn531 Mn 0.81363 0.6646 0.56012 0.0
O532 O 0.74697 0.68901 0.57183 0.0
O533 O 0.80437 0.63431 0.59 0.0
O534 O 0.80914 0.73572 0.64574 0.0
O535 O 0.77174 0.74635 0.68455 0.0
O536 O 0.8554 0.67259 0.55017 0.0
O537 O 0.77969 0.67492 0.53309 0.0
C538 C 0.71023 0.73775 0.6152 0.0
C539 C 0.77718 0.78833 0.60261 0.0
C540 C 0.78869 0.63978 0.61584 0.0
C541 C 0.84649 0.7008 0.5616 0.0
C542 C 0.75196 0.67205 0.54579 0.0
C543 C 0.80184 0.74564 0.67546 0.0
O544 O 0.73762 0.72578 0.6258 0.0
O545 O 0.69782 0.75559 0.6381 0.0
O546 O 0.74183 0.52946 0.33651 0.0
Mn547 Mn 0.78871 0.5294 0.35551 0.0
O548 O 0.71152 0.51293 0.38015 0.0
Mn549 Mn 0.7437 0.49087 0.40324 0.0
O550 O 0.83462 0.53051 0.37672 0.0
O551 O 0.80114 0.57048 0.32995 0.0
Mn552 Mn 0.83828 0.56356 0.31013 0.0
O553 O 0.8139 0.49692 0.32189 0.0
O554 O 0.86857 0.55431 0.34001 0.0
O555 O 0.76716 0.55912 0.39574 0.0
O556 O 0.75652 0.52173 0.43457 0.0
O557 O 0.83034 0.60533 0.30017 0.0
O558 O 0.82791 0.52961 0.28312 0.0
C559 C 0.76513 0.4602 0.36523 0.0
C560 C 0.71456 0.52715 0.35263 0.0
C561 C 0.8631 0.53868 0.36588 0.0
C562 C 0.80212 0.59645 0.31161 0.0
C563 C 0.83082 0.50189 0.29583 0.0
C564 C 0.75723 0.55184 0.42546 0.0
O565 O 0.7771 0.4876 0.37583 0.0
O566 O 0.74729 0.4478 0.38812 0.0
O567 O 0.97341 0.49185 0.08651 0.0
Mn568 Mn 0.97347 0.53873 0.1055 0.0
O569 O 0.98992 0.46154 0.13015 0.0
Mn570 Mn 0.01199 0.49372 0.15324 0.0
O571 O 0.97237 0.58465 0.1267 0.0
O572 O 0.93239 0.55117 0.07995 0.0
Mn573 Mn 0.93928 0.58831 0.06013 0.0
O574 O 0.00594 0.56392 0.07187 0.0
O575 O 0.94853 0.6186 0.09001 0.0
O576 O 0.94374 0.51718 0.14574 0.0
O577 O 0.98113 0.50655 0.18457 0.0
O578 O 0.89752 0.58032 0.05016 0.0
O579 O 0.97323 0.57798 0.03311 0.0
C580 C 0.04266 0.51513 0.11523 0.0
C581 C 0.97571 0.46458 0.10263 0.0
C582 C 0.96419 0.61312 0.11587 0.0
C583 C 0.90642 0.55211 0.0616 0.0
C584 C 1.00096 0.58086 0.04582 0.0
C585 C 0.95102 0.50726 0.17546 0.0
O586 O 0.01527 0.52711 0.12582 0.0
O587 O 0.05506 0.49729 0.13813 0.0
O588 O 0.01107 0.02938 0.91636 0.0
Mn589 Mn 0.9642 0.02934 0.89736 0.0
O590 O 0.04137 0.0129 0.8727 0.0
Mn591 Mn 0.00919 0.99082 0.84962 0.0
O592 O 0.91828 0.03047 0.87616 0.0
O593 O 0.95183 0.07043 0.92296 0.0
Mn594 Mn 0.91467 0.06349 0.94274 0.0
O595 O 0.93899 0.99687 0.93099 0.0
O596 O 0.88435 0.05424 0.91289 0.0
O597 O 0.98575 0.05907 0.85714 0.0
O598 O 0.99636 0.02169 0.8183 0.0
O599 O 0.92249 0.10528 0.95269 0.0
O600 O 0.925 0.02956 0.96977 0.0
C601 C 0.98778 0.96015 0.88763 0.0
C602 C 0.03834 0.0271 0.90023 0.0
C603 C 0.88981 0.03863 0.88701 0.0
C604 C 0.95072 0.09643 0.94127 0.0
C605 C 0.92208 0.00184 0.95705 0.0
C606 C 0.99567 0.0518 0.82741 0.0
O607 O 0.97579 0.98754 0.87703 0.0
O608 O 0.00563 0.94776 0.86474 0.0
O609 O 0.47349 0.76107 0.66634 0.0
Mn610 Mn 0.47354 0.7142 0.64734 0.0
O611 O 0.48995 0.79138 0.62268 0.0
Mn612 Mn 0.51204 0.75921 0.5996 0.0
O613 O 0.47241 0.66829 0.62613 0.0
O614 O 0.43246 0.70181 0.67293 0.0
Mn615 Mn 0.4394 0.66466 0.69272 0.0
O616 O 0.50602 0.68898 0.68096 0.0
O617 O 0.44864 0.63435 0.66286 0.0
O618 O 0.4438 0.73575 0.60712 0.0
O619 O 0.48118 0.74636 0.56828 0.0
O620 O 0.39761 0.6725 0.70268 0.0
O621 O 0.47333 0.67498 0.71974 0.0
C622 C 0.54272 0.73782 0.63761 0.0
C623 C 0.47576 0.78834 0.65022 0.0
C624 C 0.46424 0.63982 0.63697 0.0
C625 C 0.40647 0.70073 0.69126 0.0
C626 C 0.50105 0.67207 0.70702 0.0
C627 C 0.45107 0.74566 0.57739 0.0
O628 O 0.51534 0.72581 0.62701 0.0
O629 O 0.5551 0.75567 0.61472 0.0
O630 O 0.74179 0.22343 0.4164 0.0
Mn631 Mn 0.78867 0.2235 0.39741 0.0
O632 O 0.71149 0.23994 0.37275 0.0
Mn633 Mn 0.74368 0.26201 0.34967 0.0
O634 O 0.8346 0.2224 0.37623 0.0
O635 O 0.80111 0.18241 0.42296 0.0
Mn636 Mn 0.83824 0.18932 0.4428 0.0
O637 O 0.81385 0.25597 0.43106 0.0
O638 O 0.86854 0.19857 0.41292 0.0
O639 O 0.76714 0.19377 0.35717 0.0
O640 O 0.75652 0.23115 0.31834 0.0
O641 O 0.83027 0.14755 0.45275 0.0
O642 O 0.82791 0.22326 0.46982 0.0
C643 C 0.76509 0.29269 0.38767 0.0
C644 C 0.71453 0.22573 0.40028 0.0
C645 C 0.86307 0.21422 0.38706 0.0
C646 C 0.80207 0.15644 0.44131 0.0
C647 C 0.83079 0.25099 0.4571 0.0
C648 C 0.75722 0.20105 0.32744 0.0
O649 O 0.77707 0.26529 0.37708 0.0
O650 O 0.74725 0.30508 0.36477 0.0
O651 O 0.27945 0.49179 0.16641 0.0
Mn652 Mn 0.27939 0.53867 0.1474 0.0
O653 O 0.2629 0.46148 0.12277 0.0
Mn654 Mn 0.24085 0.49366 0.09968 0.0
O655 O 0.2805 0.58458 0.12619 0.0
O656 O 0.32049 0.5511 0.17293 0.0
Mn657 Mn 0.31361 0.58825 0.19274 0.0
O658 O 0.24695 0.56387 0.18104 0.0
O659 O 0.30435 0.61854 0.16286 0.0
O660 O 0.30911 0.51711 0.10716 0.0
O661 O 0.27171 0.50647 0.06834 0.0
O662 O 0.35538 0.58027 0.20269 0.0
O663 O 0.27967 0.57794 0.21978 0.0
C664 C 0.21019 0.51512 0.13768 0.0
C665 C 0.27708 0.46451 0.15031 0.0
C666 C 0.28869 0.61306 0.13701 0.0
C667 C 0.34647 0.55206 0.19127 0.0
C668 C 0.25194 0.58082 0.20707 0.0
C669 C 0.30182 0.50718 0.07744 0.0
O670 O 0.23759 0.52707 0.12708 0.0
O671 O 0.19778 0.49728 0.11479 0.0
O672 O 0.83649 0.01108 0.72344 0.0
Mn673 Mn 0.85549 0.9642 0.72351 0.0
O674 O 0.88013 0.04139 0.73998 0.0
Mn675 Mn 0.90322 0.00921 0.76203 0.0
O676 O 0.87668 0.91828 0.72241 0.0
O677 O 0.82995 0.95177 0.68241 0.0
Mn678 Mn 0.81012 0.91463 0.68932 0.0
O679 O 0.82185 0.93902 0.75597 0.0
O680 O 0.84 0.88433 0.69858 0.0
O681 O 0.89573 0.98575 0.69378 0.0
O682 O 0.93455 0.99638 0.73117 0.0
O683 O 0.80018 0.92258 0.64755 0.0
O684 O 0.7831 0.92496 0.72326 0.0
C685 C 0.86521 0.98779 0.7927 0.0
C686 C 0.85259 0.03836 0.7258 0.0
C687 C 0.86585 0.88981 0.71423 0.0
C688 C 0.81161 0.9508 0.65644 0.0
C689 C 0.79581 0.92207 0.75099 0.0
C690 C 0.92545 0.99568 0.70107 0.0
O691 O 0.87581 0.97582 0.7653 0.0
O692 O 0.8881 0.00562 0.8051 0.0
O693 O 0.49182 0.58651 0.47339 0.0
Mn694 Mn 0.53869 0.60551 0.47347 0.0
O695 O 0.4615 0.63015 0.48989 0.0
Mn696 Mn 0.49367 0.65324 0.51198 0.0
O697 O 0.58461 0.6267 0.47239 0.0
O698 O 0.55114 0.57997 0.43238 0.0
Mn699 Mn 0.58828 0.56015 0.43927 0.0
O700 O 0.56388 0.57187 0.50594 0.0
O701 O 0.61857 0.59003 0.44853 0.0
O702 O 0.51716 0.64575 0.44374 0.0
O703 O 0.50652 0.68457 0.48113 0.0
O704 O 0.58029 0.55019 0.39751 0.0
O705 O 0.57796 0.53313 0.47322 0.0
C706 C 0.51508 0.61523 0.54265 0.0
C707 C 0.46455 0.60262 0.47569 0.0
C708 C 0.61309 0.61588 0.4642 0.0
C709 C 0.55208 0.56162 0.40642 0.0
C710 C 0.58084 0.54584 0.50095 0.0
C711 C 0.50723 0.67548 0.45103 0.0
O712 O 0.52707 0.62583 0.51527 0.0
O713 O 0.49723 0.63812 0.55504 0.0
O714 O 0.91635 0.24182 0.2235 0.0
Mn715 Mn 0.89735 0.28869 0.22354 0.0
O716 O 0.87269 0.21151 0.23996 0.0
Mn717 Mn 0.8496 0.24368 0.26204 0.0
O718 O 0.87615 0.3346 0.22241 0.0
O719 O 0.92294 0.30107 0.18246 0.0
Mn720 Mn 0.94273 0.33822 0.18939 0.0
O721 O 0.93096 0.31389 0.25602 0.0
O722 O 0.91288 0.36853 0.19863 0.0
O723 O 0.85712 0.26714 0.1938 0.0
O724 O 0.81828 0.25652 0.23117 0.0
O725 O 0.95269 0.33038 0.14761 0.0
O726 O 0.96975 0.32789 0.22333 0.0
C727 C 0.88761 0.26508 0.29272 0.0
C728 C 0.90022 0.21455 0.22577 0.0
C729 C 0.887 0.36307 0.21425 0.0
C730 C 0.94126 0.30215 0.15647 0.0
C731 C 0.95702 0.33081 0.25105 0.0
C732 C 0.82739 0.25722 0.20107 0.0
O733 O 0.87701 0.27708 0.26533 0.0
O734 O 0.86472 0.24723 0.30511 0.0
O735 O 0.26108 0.66634 0.9734 0.0
Mn736 Mn 0.2142 0.64735 0.97347 0.0
O737 O 0.29139 0.6227 0.98992 0.0
Mn738 Mn 0.25921 0.59962 0.01199 0.0
O739 O 0.16828 0.62616 0.97237 0.0
O740 O 0.20176 0.6729 0.93238 0.0
Mn741 Mn 0.16463 0.69272 0.93928 0.0
O742 O 0.18902 0.68098 0.00594 0.0
O743 O 0.13433 0.66285 0.94854 0.0
O744 O 0.23574 0.6071 0.94374 0.0
O745 O 0.24637 0.56828 0.98113 0.0
O746 O 0.17259 0.70268 0.89751 0.0
O747 O 0.17498 0.71974 0.97323 0.0
C748 C 0.23779 0.63763 0.04266 0.0
C749 C 0.28835 0.65022 0.97571 0.0
C750 C 0.13981 0.637 0.9642 0.0
C751 C 0.2008 0.69125 0.90641 0.0
C752 C 0.17208 0.70703 1.00095 0.0
C753 C 0.24566 0.57738 0.95103 0.0
O754 O 0.22581 0.62703 0.01527 0.0
O755 O 0.25563 0.61473 0.05506 0.0
O756 O 0.83651 0.74185 0.02947 0.0
Mn757 Mn 0.8555 0.78872 0.02941 0.0
O758 O 0.88015 0.71154 0.01295 0.0
Mn759 Mn 0.90324 0.74372 0.99089 0.0
O760 O 0.8767 0.83464 0.03051 0.0
O761 O 0.82995 0.80116 0.0705 0.0
Mn762 Mn 0.81013 0.8383 0.06359 0.0
O763 O 0.82186 0.8139 0.99695 0.0
O764 O 0.84001 0.86859 0.05434 0.0
O765 O 0.89574 0.76718 0.05914 0.0
O766 O 0.93457 0.75655 0.02175 0.0
O767 O 0.80017 0.83033 0.10536 0.0
O768 O 0.7831 0.82796 0.02965 0.0
C769 C 0.86523 0.76514 0.96022 0.0
C770 C 0.85263 0.71458 0.02716 0.0
C771 C 0.86586 0.86311 0.03869 0.0
C772 C 0.81161 0.80212 0.09647 0.0
C773 C 0.79581 0.83084 0.00192 0.0
C774 C 0.92546 0.75726 0.05186 0.0
O775 O 0.87583 0.77712 0.98761 0.0
O776 O 0.88813 0.7473 0.94782 0.0
O777 O 0.76107 0.58653 0.77945 0.0
Mn778 Mn 0.7142 0.60553 0.77939 0.0
O779 O 0.79139 0.63017 0.76294 0.0
Mn780 Mn 0.75921 0.65326 0.74087 0.0
O781 O 0.66829 0.62674 0.78051 0.0
O782 O 0.70181 0.57997 0.82048 0.0
Mn783 Mn 0.66465 0.56018 0.81358 0.0
O784 O 0.68899 0.5719 0.74693 0.0
O785 O 0.63435 0.59005 0.80433 0.0
O786 O 0.73576 0.64577 0.80912 0.0
O787 O 0.74639 0.68459 0.77173 0.0
O788 O 0.67254 0.55022 0.85536 0.0
O789 O 0.67495 0.53315 0.77964 0.0
C790 C 0.73778 0.61525 0.7102 0.0
C791 C 0.78835 0.60264 0.77715 0.0
C792 C 0.63982 0.6159 0.78868 0.0
C793 C 0.70076 0.56165 0.84647 0.0
C794 C 0.67205 0.54586 0.75192 0.0
C795 C 0.74568 0.67549 0.80184 0.0
O796 O 0.7258 0.62585 0.7376 0.0
O797 O 0.75563 0.63814 0.69781 0.0
O798 O 0.91637 0.51107 0.52947 0.0
Mn799 Mn 0.89736 0.4642 0.5294 0.0
O800 O 0.87273 0.54139 0.51299 0.0
Mn801 Mn 0.84964 0.50923 0.4909 0.0
O802 O 0.87615 0.41829 0.5305 0.0
O803 O 0.9229 0.45175 0.57049 0.0
Mn804 Mn 0.94272 0.41461 0.56358 0.0
O805 O 0.93098 0.43899 0.49692 0.0
O806 O 0.91283 0.38433 0.55433 0.0
O807 O 0.85713 0.48575 0.55913 0.0
O808 O 0.8183 0.49639 0.52174 0.0
O809 O 0.95268 0.42257 0.60535 0.0
O810 O 0.96973 0.42495 0.52963 0.0
C811 C 0.88765 0.48783 0.46022 0.0
C812 C 0.90026 0.53834 0.52719 0.0
C813 C 0.88697 0.38982 0.53868 0.0
C814 C 0.94126 0.45079 0.59645 0.0
C815 C 0.95702 0.42205 0.50191 0.0
C816 C 0.8274 0.49567 0.55185 0.0
O817 O 0.87704 0.47583 0.4876 0.0
O818 O 0.86476 0.50568 0.44783 0.0
O819 O 0.99184 0.66639 0.27946 0.0
Mn820 Mn 0.03871 0.64737 0.27939 0.0
O821 O 0.96152 0.62275 0.26297 0.0
Mn822 Mn 0.99368 0.59965 0.24089 0.0
O823 O 0.08462 0.62617 0.28048 0.0
O824 O 0.05116 0.67292 0.32048 0.0
Mn825 Mn 0.0883 0.69274 0.31357 0.0
O826 O 0.06391 0.68099 0.24691 0.0
O827 O 0.11858 0.66285 0.30432 0.0
O828 O 0.01716 0.60714 0.30912 0.0
O829 O 0.00651 0.56832 0.27174 0.0
O830 O 0.08032 0.7027 0.35534 0.0
O831 O 0.07795 0.71975 0.27962 0.0
C832 C 0.01509 0.63766 0.21021 0.0
C833 C 0.96456 0.65027 0.27717 0.0
C834 C 0.1131 0.637 0.28866 0.0
C835 C 0.05211 0.69127 0.34644 0.0
C836 C 0.08085 0.70703 0.2519 0.0
C837 C 0.00723 0.57742 0.30185 0.0
O838 O 0.02708 0.62706 0.23759 0.0
O839 O 0.99724 0.61477 0.19782 0.0
O840 O 0.72344 0.83651 0.01107 0.0
Mn841 Mn 0.72349 0.85551 0.96419 0.0
O842 O 0.73996 0.88015 0.04137 0.0
Mn843 Mn 0.76202 0.90324 0.00919 0.0
O844 O 0.72238 0.87671 0.91828 0.0
O845 O 0.6824 0.82996 0.95177 0.0
Mn846 Mn 0.6893 0.81014 0.91462 0.0
O847 O 0.75595 0.82188 0.939 0.0
O848 O 0.69855 0.84002 0.88433 0.0
O849 O 0.69377 0.89576 0.98574 0.0
O850 O 0.73116 0.93458 0.99639 0.0
O851 O 0.64753 0.80019 0.9226 0.0
O852 O 0.72324 0.78312 0.92494 0.0
C853 C 0.79267 0.86529 0.98782 0.0
C854 C 0.72575 0.85263 0.03834 0.0
C855 C 0.7142 0.86588 0.8898 0.0
C856 C 0.65643 0.81162 0.95081 0.0
C857 C 0.75097 0.79583 0.92206 0.0
C858 C 0.70105 0.92548 0.99568 0.0
O859 O 0.76529 0.87585 0.97578 0.0
O860 O 0.8051 0.88817 0.00565 0.0
O861 O 0.22346 0.91635 0.24181 0.0
Mn862 Mn 0.22351 0.89736 0.28869 0.0
O863 O 0.23999 0.8727 0.21152 0.0
Mn864 Mn 0.26205 0.84962 0.24371 0.0
O865 O 0.22239 0.87616 0.33461 0.0
O866 O 0.18242 0.92293 0.30107 0.0
Mn867 Mn 0.18932 0.94272 0.33823 0.0
O868 O 0.25597 0.931 0.3139 0.0
O869 O 0.19857 0.91286 0.36854 0.0
O870 O 0.19379 0.85711 0.26714 0.0
O871 O 0.23118 0.81829 0.25653 0.0
O872 O 0.14754 0.95266 0.33036 0.0
O873 O 0.22326 0.96976 0.32793 0.0
C874 C 0.29271 0.88764 0.26514 0.0
C875 C 0.22577 0.90022 0.21454 0.0
C876 C 0.21422 0.88701 0.36308 0.0
C877 C 0.15642 0.94124 0.30214 0.0
C878 C 0.25098 0.95704 0.33083 0.0
C879 C 0.20108 0.82739 0.25723 0.0
O880 O 0.26531 0.87703 0.27711 0.0
O881 O 0.30511 0.86474 0.2473 0.0
O882 O 0.58651 0.97345 0.99182 0.0
Mn883 Mn 0.60551 0.97351 0.03869 0.0
O884 O 0.63016 0.98996 0.96151 0.0
Mn885 Mn 0.65325 0.01203 0.99369 0.0
O886 O 0.62671 0.9724 0.08461 0.0
O887 O 0.57996 0.93242 0.05112 0.0
Mn888 Mn 0.56014 0.93933 0.08826 0.0
O889 O 0.57189 0.00598 0.06389 0.0
O890 O 0.59002 0.94858 0.11856 0.0
O891 O 0.64575 0.94378 0.01714 0.0
O892 O 0.68458 0.98117 0.00652 0.0
O893 O 0.55019 0.89755 0.08032 0.0
O894 O 0.53313 0.97327 0.07791 0.0
C895 C 0.61524 0.0427 0.01509 0.0
C896 C 0.60263 0.97575 0.96455 0.0
C897 C 0.61587 0.96423 0.11308 0.0
C898 C 0.56162 0.90644 0.0521 0.0
C899 C 0.54584 1.00099 0.08083 0.0
C900 C 0.67547 0.95106 0.00722 0.0
O901 O 0.62584 0.01531 0.02708 0.0
O902 O 0.63813 0.05509 0.99725 0.0
O903 O 0.52946 0.33652 0.74185 0.0
Mn904 Mn 0.52938 0.35552 0.78872 0.0
O905 O 0.51295 0.38015 0.71153 0.0
Mn906 Mn 0.49087 0.40324 0.7437 0.0
O907 O 0.53047 0.37672 0.83464 0.0
O908 O 0.57047 0.32997 0.80117 0.0
Mn909 Mn 0.56358 0.31016 0.83831 0.0
O910 O 0.49691 0.32189 0.81392 0.0
O911 O 0.55432 0.34004 0.86859 0.0
O912 O 0.55911 0.39576 0.76718 0.0
O913 O 0.52172 0.43458 0.75654 0.0
O914 O 0.60535 0.30019 0.83033 0.0
O915 O 0.52963 0.28314 0.82797 0.0
C916 C 0.4602 0.36523 0.76511 0.0
C917 C 0.52716 0.35263 0.71458 0.0
C918 C 0.53865 0.36588 0.86311 0.0
C919 C 0.59644 0.31162 0.80212 0.0
C920 C 0.5019 0.29585 0.83087 0.0
C921 C 0.55183 0.42548 0.75726 0.0
O922 O 0.48759 0.37583 0.7771 0.0
O923 O 0.44781 0.38812 0.74726 0.0
O924 O 0.6664 0.77946 0.49181 0.0
Mn925 Mn 0.64741 0.77939 0.53868 0.0
O926 O 0.62275 0.76295 0.4615 0.0
Mn927 Mn 0.59967 0.74089 0.49368 0.0
O928 O 0.62622 0.7805 0.5846 0.0
O929 O 0.67297 0.82048 0.55112 0.0
Mn930 Mn 0.69279 0.81356 0.58826 0.0
O931 O 0.68105 0.74692 0.56385 0.0
O932 O 0.66292 0.8043 0.61856 0.0
O933 O 0.60717 0.80913 0.51715 0.0
O934 O 0.56834 0.77175 0.50651 0.0
O935 O 0.70275 0.85533 0.58031 0.0
O936 O 0.71984 0.77962 0.57795 0.0
C937 C 0.63767 0.71021 0.5151 0.0
C938 C 0.65028 0.77716 0.46454 0.0
C939 C 0.63706 0.78867 0.61308 0.0
C940 C 0.69131 0.84645 0.5521 0.0
C941 C 0.7071 0.7519 0.58077 0.0
C942 C 0.57745 0.80186 0.50722 0.0
O943 O 0.62708 0.73761 0.52708 0.0
O944 O 0.61478 0.69782 0.49726 0.0
O945 O 0.02948 0.91638 0.01107 0.0
Mn946 Mn 0.02941 0.89737 0.9642 0.0
O947 O 0.01297 0.87275 0.0414 0.0
Mn948 Mn 0.9909 0.84965 0.00922 0.0
O949 O 0.0305 0.87617 0.91827 0.0
O950 O 0.0705 0.92291 0.95175 0.0
Mn951 Mn 0.06361 0.94273 0.9146 0.0
O952 O 0.99694 0.931 0.93901 0.0
O953 O 0.05436 0.91284 0.88431 0.0
O954 O 0.05914 0.85713 0.98574 0.0
O955 O 0.02176 0.81831 0.9964 0.0
O956 O 0.10537 0.9527 0.9226 0.0
O957 O 0.02966 0.96976 0.92489 0.0
C958 C 0.96022 0.88765 0.9878 0.0
C959 C 0.02713 0.9003 0.03835 0.0
C960 C 0.03869 0.887 0.88979 0.0
C961 C 0.09646 0.94127 0.95081 0.0
C962 C 0.00194 0.95704 0.92206 0.0
C963 C 0.05186 0.82741 0.99567 0.0
O964 O 0.98762 0.87705 0.97582 0.0
O965 O 0.94784 0.86476 0.00565 0.0
O966 O 0.58647 0.27947 0.26107 0.0
Mn967 Mn 0.60547 0.27941 0.2142 0.0
O968 O 0.63011 0.26295 0.29139 0.0
Mn969 Mn 0.6532 0.24089 0.25921 0.0
O970 O 0.62667 0.2805 0.16828 0.0
O971 O 0.57994 0.3205 0.20175 0.0
Mn972 Mn 0.56012 0.31362 0.16461 0.0
O973 O 0.57184 0.24695 0.189 0.0
O974 O 0.59 0.30437 0.13433 0.0
O975 O 0.64572 0.30914 0.23574 0.0
O976 O 0.68454 0.27174 0.24638 0.0
O977 O 0.55016 0.35538 0.17262 0.0
O978 O 0.53309 0.27966 0.17492 0.0
C979 C 0.6152 0.21021 0.23777 0.0
C980 C 0.60256 0.27711 0.28836 0.0
C981 C 0.61584 0.28869 0.1398 0.0
C982 C 0.56159 0.34646 0.20082 0.0
C983 C 0.54581 0.25194 0.17204 0.0
C984 C 0.67544 0.30185 0.24567 0.0
O985 O 0.6258 0.23761 0.22581 0.0
O986 O 0.6381 0.19782 0.25561 0.0
O987 O 0.16639 0.97339 0.76105 0.0
Mn988 Mn 0.14739 0.97346 0.71418 0.0
O989 O 0.12275 0.98991 0.79137 0.0
Mn990 Mn 0.09966 0.01198 0.75919 0.0
O991 O 0.12619 0.97236 0.66827 0.0
O992 O 0.17294 0.93237 0.70174 0.0
Mn993 Mn 0.19276 0.93928 0.6646 0.0
O994 O 0.18102 0.00593 0.68899 0.0
O995 O 0.16287 0.94854 0.63431 0.0
O996 O 0.10715 0.94373 0.73572 0.0
O997 O 0.06833 0.98113 0.74635 0.0
O998 O 0.20272 0.89751 0.67256 0.0
O999 O 0.21978 0.97323 0.67495 0.0
C1000 C 0.13767 0.04265 0.73776 0.0
C1001 C 0.15027 0.9757 0.78833 0.0
C1002 C 0.13702 0.96419 0.63979 0.0
C1003 C 0.19129 0.90641 0.70077 0.0
C1004 C 0.20706 1.00095 0.67205 0.0
C1005 C 0.07743 0.95102 0.74564 0.0
O1006 O 0.12707 0.01525 0.72579 0.0
O1007 O 0.11478 0.05505 0.7556 0.0
O1008 O 0.06388 0.74696 0.68102 0.0
Mn1009 Mn 0.0387 0.77941 0.64737 0.0
O1010 O 0.07801 0.77969 0.71978 0.0
Mn1011 Mn 0.08828 0.81363 0.69273 0.0
O1012 O 0.01716 0.80914 0.60712 0.0
O1013 O 0.02709 0.73762 0.62705 0.0
Mn1014 Mn 0.99369 0.7409 0.59964 0.0
O1015 O 0.99183 0.77949 0.66637 0.0
O1016 O 0.00652 0.77175 0.5683 0.0
O1017 O 0.08462 0.78051 0.62618 0.0
O1018 O 0.11858 0.80436 0.66286 0.0
O1019 O 0.99728 0.69783 0.61476 0.0
O1020 O 0.96151 0.76296 0.62273 0.0
C1021 C 0.05208 0.84647 0.69126 0.0
C1022 C 0.08083 0.75196 0.70706 0.0
C1023 C 0.00724 0.80185 0.5774 0.0
C1024 C 0.01512 0.71023 0.63765 0.0
C1025 C 0.96455 0.77718 0.65025 0.0
C1026 C 0.1131 0.78866 0.63703 0.0
O1027 O 0.05114 0.82051 0.67291 0.0
O1028 O 0.08029 0.85539 0.70269 0.0
O1029 O 0.22346 0.74178 0.91638 0.0
Mn1030 Mn 0.22351 0.78866 0.89737 0.0
O1031 O 0.23999 0.71147 0.87274 0.0
Mn1032 Mn 0.26204 0.74365 0.84964 0.0
O1033 O 0.22241 0.83457 0.87617 0.0
O1034 O 0.18242 0.80109 0.92292 0.0
Mn1035 Mn 0.18933 0.83823 0.94274 0.0
O1036 O 0.25599 0.81386 0.931 0.0
O1037 O 0.19858 0.86853 0.91286 0.0
O1038 O 0.19379 0.76711 0.85714 0.0
O1039 O 0.23118 0.75648 0.81831 0.0
O1040 O 0.14756 0.83028 0.9527 0.0
O1041 O 0.22328 0.82789 0.96975 0.0
C1042 C 0.29271 0.76509 0.88765 0.0
C1043 C 0.22582 0.7145 0.90028 0.0
C1044 C 0.21423 0.86305 0.88701 0.0
C1045 C 0.15646 0.80206 0.94127 0.0
C1046 C 0.251 0.83079 0.95704 0.0
C1047 C 0.20107 0.75718 0.82742 0.0
O1048 O 0.26531 0.77705 0.87705 0.0
O1049 O 0.30511 0.74725 0.86476 0.0
O1050 O 0.2611 0.9734 0.16636 0.0
Mn1051 Mn 0.21422 0.97346 0.14738 0.0
O1052 O 0.2914 0.9899 0.12271 0.0
Mn1053 Mn 0.25921 0.01197 0.09963 0.0
O1054 O 0.1683 0.97236 0.12619 0.0
O1055 O 0.20184 0.93237 0.17295 0.0
Mn1056 Mn 0.16468 0.93927 0.19274 0.0
O1057 O 0.18905 0.00591 0.18104 0.0
O1058 O 0.13436 0.94854 0.16289 0.0
O1059 O 0.23575 0.94373 0.10713 0.0
O1060 O 0.24638 0.98112 0.0683 0.0
O1061 O 0.17256 0.89749 0.20268 0.0
O1062 O 0.17493 0.97319 0.21981 0.0
C1063 C 0.2378 0.04264 0.13764 0.0
C1064 C 0.28836 0.97569 0.15024 0.0
C1065 C 0.13982 0.96424 0.13706 0.0
C1066 C 0.20078 0.90638 0.19126 0.0
C1067 C 0.17211 1.00092 0.20708 0.0
C1068 C 0.24567 0.95101 0.0774 0.0
O1069 O 0.22582 0.01525 0.12704 0.0
O1070 O 0.25565 0.05504 0.11475 0.0
O1071 O 0.99689 0.93899 0.43096 0.0
Mn1072 Mn 0.02937 0.9642 0.39735 0.0
O1073 O 0.02958 0.92498 0.46974 0.0
Mn1074 Mn 0.06353 0.91462 0.44273 0.0
O1075 O 0.05912 0.98575 0.35713 0.0
O1076 O 0.98758 0.97582 0.37703 0.0
Mn1077 Mn 0.99088 0.00922 0.34963 0.0
O1078 O 0.02943 0.01106 0.41637 0.0
O1079 O 0.02174 0.99639 0.3183 0.0
O1080 O 0.03049 0.91829 0.37614 0.0
O1081 O 0.05428 0.88433 0.41285 0.0
O1082 O 0.94781 0.00568 0.36474 0.0
O1083 O 0.01296 0.04138 0.37272 0.0
C1084 C 0.09643 0.95077 0.44127 0.0
C1085 C 0.00186 0.92206 0.45702 0.0
C1086 C 0.05184 0.99568 0.32741 0.0
C1087 C 0.96019 0.98782 0.38763 0.0
C1088 C 0.02715 0.03833 0.40025 0.0
C1089 C 0.03866 0.88981 0.38698 0.0
O1090 O 0.07046 0.95176 0.42292 0.0
O1091 O 0.1053 0.92255 0.4527 0.0
O1092 O 0.9918 0.47342 0.58648 0.0
Mn1093 Mn 0.03868 0.47346 0.60549 0.0
O1094 O 0.96149 0.48998 0.63012 0.0
Mn1095 Mn 0.99369 0.51201 0.65322 0.0
O1096 O 0.0846 0.47235 0.62668 0.0
O1097 O 0.0511 0.43237 0.57994 0.0
Mn1098 Mn 0.08825 0.43925 0.56013 0.0
O1099 O 0.06387 0.50591 0.57184 0.0
O1100 O 0.11855 0.44851 0.59 0.0
O1101 O 0.01713 0.44374 0.64573 0.0
O1102 O 0.00649 0.48114 0.68455 0.0
O1103 O 0.08026 0.39748 0.55017 0.0
O1104 O 0.07798 0.47318 0.53307 0.0
C1105 C 0.01516 0.54267 0.61522 0.0
C1106 C 0.96452 0.4758 0.60258 0.0
C1107 C 0.11308 0.4642 0.61583 0.0
C1108 C 0.05205 0.40639 0.5616 0.0
C1109 C 0.0808 0.50091 0.54579 0.0
C1110 C 0.0072 0.45103 0.67545 0.0
O1111 O 0.02709 0.51526 0.62581 0.0
O1112 O 0.99732 0.55508 0.63811 0.0
O1113 O 0.52945 0.74185 0.83652 0.0
Mn1114 Mn 0.52938 0.78872 0.85552 0.0
O1115 O 0.51296 0.71154 0.88017 0.0
Mn1116 Mn 0.49088 0.74371 0.90325 0.0
O1117 O 0.53049 0.83464 0.87672 0.0
O1118 O 0.57047 0.80116 0.82996 0.0
Mn1119 Mn 0.56354 0.83829 0.81014 0.0
O1120 O 0.4969 0.81391 0.8219 0.0
O1121 O 0.55429 0.86859 0.84001 0.0
O1122 O 0.55912 0.76718 0.89576 0.0
O1123 O 0.52174 0.75653 0.93459 0.0
O1124 O 0.60532 0.83036 0.80018 0.0
O1125 O 0.5296 0.82792 0.78313 0.0
C1126 C 0.46022 0.76505 0.86529 0.0
C1127 C 0.52716 0.71458 0.85264 0.0
C1128 C 0.53865 0.86312 0.86587 0.0
C1129 C 0.59644 0.80214 0.81161 0.0
C1130 C 0.50188 0.83083 0.79584 0.0
C1131 C 0.55184 0.75725 0.92548 0.0
O1132 O 0.48759 0.77711 0.87585 0.0
O1133 O 0.4478 0.7472 0.88816 0.0
O1134 O 0.189 0.2469 0.07187 0.0
Mn1135 Mn 0.21419 0.27937 0.1055 0.0
O1136 O 0.17492 0.27961 0.03307 0.0
Mn1137 Mn 0.16463 0.31354 0.06012 0.0
O1138 O 0.23574 0.3091 0.14574 0.0
O1139 O 0.22577 0.23757 0.12584 0.0
Mn1140 Mn 0.25918 0.24084 0.15323 0.0
O1141 O 0.26106 0.27941 0.0865 0.0
O1142 O 0.24639 0.27171 0.18457 0.0
O1143 O 0.16827 0.2805 0.1267 0.0
O1144 O 0.13433 0.30429 0.08998 0.0
O1145 O 0.25565 0.19776 0.13816 0.0
O1146 O 0.29137 0.2629 0.13014 0.0
C1147 C 0.20079 0.34643 0.0616 0.0
C1148 C 0.17208 0.25189 0.04581 0.0
C1149 C 0.24567 0.30181 0.17546 0.0
C1150 C 0.23781 0.21019 0.11528 0.0
C1151 C 0.28833 0.27711 0.10262 0.0
C1152 C 0.1398 0.28863 0.11584 0.0
O1153 O 0.20178 0.32045 0.07993 0.0
O1154 O 0.17257 0.35532 0.05017 0.0
O1155 O 0.75598 0.93901 0.32189 0.0
Mn1156 Mn 0.7235 0.96419 0.35551 0.0
O1157 O 0.72328 0.92498 0.28312 0.0
Mn1158 Mn 0.68933 0.91462 0.31012 0.0
O1159 O 0.69376 0.98573 0.39576 0.0
O1160 O 0.76529 0.97579 0.37585 0.0
Mn1161 Mn 0.762 0.00919 0.40325 0.0
O1162 O 0.72343 0.01106 0.33652 0.0
O1163 O 0.73114 0.99639 0.43458 0.0
O1164 O 0.7224 0.91826 0.3767 0.0
O1165 O 0.69858 0.88432 0.34 0.0
O1166 O 0.80509 0.00568 0.38817 0.0
O1167 O 0.73994 0.04137 0.38016 0.0
C1168 C 0.65645 0.95079 0.31159 0.0
C1169 C 0.751 0.92208 0.29584 0.0
C1170 C 0.70104 0.99567 0.42548 0.0
C1171 C 0.79266 0.98784 0.36529 0.0
C1172 C 0.72573 0.03833 0.35263 0.0
C1173 C 0.71423 0.88979 0.36585 0.0
O1174 O 0.68241 0.95175 0.32995 0.0
O1175 O 0.64756 0.92258 0.30016 0.0
O1176 O 0.1664 0.4918 0.77945 0.0
Mn1177 Mn 0.1474 0.53868 0.7794 0.0
O1178 O 0.12276 0.46149 0.76293 0.0
Mn1179 Mn 0.09967 0.49368 0.74088 0.0
O1180 O 0.12621 0.58459 0.78051 0.0
O1181 O 0.17295 0.5511 0.82049 0.0
Mn1182 Mn 0.19278 0.58824 0.8136 0.0
O1183 O 0.18103 0.56387 0.74694 0.0
O1184 O 0.1629 0.61854 0.80435 0.0
O1185 O 0.10716 0.51712 0.80913 0.0
O1186 O 0.06833 0.50647 0.77174 0.0
O1187 O 0.20274 0.58026 0.85537 0.0
O1188 O 0.21979 0.5779 0.77965 0.0
C1189 C 0.13762 0.51506 0.71022 0.0
C1190 C 0.15028 0.46453 0.77714 0.0
C1191 C 0.13708 0.61307 0.78865 0.0
C1192 C 0.19131 0.55205 0.84646 0.0
C1193 C 0.20708 0.5808 0.75192 0.0
C1194 C 0.07744 0.50718 0.80185 0.0
O1195 O 0.12706 0.52709 0.73761 0.0
O1196 O 0.11474 0.49722 0.69779 0.0
O1197 O 0.51108 0.9164 0.02946 0.0
Mn1198 Mn 0.4642 0.89739 0.0294 0.0
O1199 O 0.54139 0.87276 0.01292 0.0
Mn1200 Mn 0.50921 0.84967 0.99086 0.0
O1201 O 0.41829 0.87619 0.03049 0.0
O1202 O 0.45177 0.92292 0.0705 0.0
Mn1203 Mn 0.41462 0.94273 0.06361 0.0
O1204 O 0.43902 0.93104 0.99695 0.0
O1205 O 0.38432 0.91285 0.05435 0.0
O1206 O 0.48575 0.85714 0.05911 0.0
O1207 O 0.49639 0.81833 0.02171 0.0
O1208 O 0.4226 0.95268 0.10538 0.0
O1209 O 0.42489 0.96979 0.02968 0.0
C1210 C 0.48777 0.88768 0.9602 0.0
C1211 C 0.53836 0.9003 0.02709 0.0
C1212 C 0.38981 0.88701 0.03867 0.0
C1213 C 0.45081 0.94126 0.09647 0.0
C1214 C 0.42207 0.95707 0.00195 0.0
C1215 C 0.49568 0.82742 0.05182 0.0
O1216 O 0.47581 0.87708 0.9876 0.0
O1217 O 0.50561 0.86479 0.9478 0.0
O1218 O 0.07189 0.18899 0.24691 0.0
Mn1219 Mn 0.10551 0.21418 0.27939 0.0
O1220 O 0.03313 0.17497 0.27961 0.0
Mn1221 Mn 0.06014 0.16461 0.31356 0.0
O1222 O 0.14574 0.23574 0.30913 0.0
O1223 O 0.12584 0.22579 0.2376 0.0
Mn1224 Mn 0.15324 0.2592 0.24088 0.0
O1225 O 0.0865 0.26105 0.27945 0.0
O1226 O 0.18457 0.2464 0.27174 0.0
O1227 O 0.12672 0.16827 0.2805 0.0
O1228 O 0.09001 0.13432 0.30429 0.0
O1229 O 0.13816 0.25569 0.1978 0.0
O1230 O 0.13014 0.29137 0.26295 0.0
C1231 C 0.0616 0.20076 0.34645 0.0
C1232 C 0.04584 0.17206 0.25189 0.0
C1233 C 0.17546 0.24568 0.30185 0.0
C1234 C 0.11528 0.23785 0.21022 0.0
C1235 C 0.10262 0.28833 0.27716 0.0
C1236 C 0.11585 0.13979 0.28862 0.0
O1237 O 0.07995 0.20175 0.32048 0.0
O1238 O 0.05018 0.17254 0.35533 0.0
O1239 O 0.81392 0.82189 0.49691 0.0
Mn1240 Mn 0.7887 0.85551 0.52938 0.0
O1241 O 0.82795 0.78312 0.52962 0.0
Mn1242 Mn 0.83825 0.81016 0.56356 0.0
O1243 O 0.76714 0.89574 0.55911 0.0
O1244 O 0.7771 0.87584 0.48758 0.0
Mn1245 Mn 0.7437 0.90324 0.49086 0.0
O1246 O 0.74183 0.8365 0.52942 0.0
O1247 O 0.75652 0.93457 0.52173 0.0
O1248 O 0.83461 0.87672 0.5305 0.0
O1249 O 0.86856 0.84002 0.55431 0.0
O1250 O 0.74729 0.88812 0.44779 0.0
O1251 O 0.71152 0.88014 0.51291 0.0
C1252 C 0.80216 0.81162 0.59646 0.0
C1253 C 0.83085 0.79584 0.50189 0.0
C1254 C 0.75722 0.92546 0.55183 0.0
C1255 C 0.76514 0.86523 0.46019 0.0
C1256 C 0.71455 0.85259 0.52707 0.0
C1257 C 0.86308 0.86588 0.53867 0.0
O1258 O 0.80109 0.82994 0.57047 0.0
O1259 O 0.83038 0.8002 0.60534 0.0
O1260 O 0.16641 0.76105 0.47342 0.0
Mn1261 Mn 0.14742 0.71418 0.47347 0.0
O1262 O 0.12277 0.79135 0.48995 0.0
Mn1263 Mn 0.09968 0.75916 0.512 0.0
O1264 O 0.12623 0.66826 0.47236 0.0
O1265 O 0.17297 0.70176 0.43238 0.0
Mn1266 Mn 0.1928 0.66462 0.43928 0.0
O1267 O 0.18106 0.689 0.50593 0.0
O1268 O 0.16293 0.63432 0.44853 0.0
O1269 O 0.10717 0.73572 0.44374 0.0
O1270 O 0.06835 0.74637 0.48113 0.0
O1271 O 0.20275 0.67259 0.39751 0.0
O1272 O 0.21983 0.67494 0.47322 0.0
C1273 C 0.13764 0.73779 0.54265 0.0
C1274 C 0.15029 0.78832 0.47573 0.0
C1275 C 0.1371 0.63979 0.46422 0.0
C1276 C 0.19131 0.7008 0.4064 0.0
C1277 C 0.20711 0.67206 0.50095 0.0
C1278 C 0.07745 0.74566 0.45102 0.0
O1279 O 0.12708 0.72576 0.51526 0.0
O1280 O 0.11476 0.75563 0.55508 0.0
O1281 O 0.24182 0.91638 0.72344 0.0
Mn1282 Mn 0.2887 0.89737 0.72349 0.0
O1283 O 0.21151 0.87274 0.73997 0.0
Mn1284 Mn 0.24369 0.84964 0.76201 0.0
O1285 O 0.33461 0.87617 0.72237 0.0
O1286 O 0.30113 0.92294 0.68241 0.0
Mn1287 Mn 0.33827 0.94275 0.68933 0.0
O1288 O 0.31389 0.93099 0.75597 0.0
O1289 O 0.36857 0.91287 0.69858 0.0
O1290 O 0.26714 0.85715 0.69375 0.0
O1291 O 0.25651 0.81832 0.73113 0.0
O1292 O 0.33033 0.95272 0.64756 0.0
O1293 O 0.32791 0.96976 0.72328 0.0
C1294 C 0.26514 0.88764 0.79268 0.0
C1295 C 0.21454 0.90028 0.72579 0.0
C1296 C 0.36309 0.887 0.71421 0.0
C1297 C 0.30211 0.94129 0.65644 0.0
C1298 C 0.33081 0.95705 0.751 0.0
C1299 C 0.25721 0.82743 0.70103 0.0
O1300 O 0.27709 0.87704 0.76528 0.0
O1301 O 0.2473 0.86475 0.80508 0.0
O1302 O 0.07183 0.06387 0.00593 0.0
Mn1303 Mn 0.10548 0.03867 0.97349 0.0
O1304 O 0.03304 0.07797 0.97322 0.0
Mn1305 Mn 0.06012 0.08819 0.93929 0.0
O1306 O 0.14572 0.0171 0.94378 0.0
O1307 O 0.12582 0.02711 0.01529 0.0
Mn1308 Mn 0.15321 0.9937 0.01204 0.0
O1309 O 0.08647 0.99179 0.97347 0.0
O1310 O 0.18455 0.00648 0.98117 0.0
O1311 O 0.12668 0.08458 0.97235 0.0
O1312 O 0.08997 0.11852 0.94855 0.0
O1313 O 0.13813 0.99728 0.05513 0.0
O1314 O 0.13011 0.96149 0.99001 0.0
C1315 C 0.0616 0.0521 0.9064 0.0
C1316 C 0.04578 0.0808 1.00095 0.0
C1317 C 0.17544 0.00718 0.95106 0.0
C1318 C 0.11526 0.01512 0.04268 0.0
C1319 C 0.10257 0.96451 0.97584 0.0
C1320 C 0.11581 0.11305 0.96422 0.0
O1321 O 0.0799 0.05103 0.9324 0.0
O1322 O 0.05017 0.08031 0.89751 0.0
O1323 O 0.01108 0.83652 0.2234 0.0
Mn1324 Mn 0.96421 0.85553 0.22348 0.0
O1325 O 0.0414 0.88016 0.23991 0.0
Mn1326 Mn 0.00923 0.90324 0.26199 0.0
O1327 O 0.91829 0.87673 0.2224 0.0
O1328 O 0.95176 0.82999 0.18239 0.0
Mn1329 Mn 0.91461 0.81018 0.18928 0.0
O1330 O 0.93901 0.82188 0.25594 0.0
O1331 O 0.88433 0.84006 0.19854 0.0
O1332 O 0.98575 0.89577 0.19376 0.0
O1333 O 0.99639 0.93459 0.23115 0.0
O1334 O 0.9226 0.80022 0.14751 0.0
O1335 O 0.92493 0.78314 0.22322 0.0
C1336 C 0.98783 0.86524 0.29266 0.0
C1337 C 0.03835 0.85263 0.2257 0.0
C1338 C 0.88981 0.86591 0.21421 0.0
C1339 C 0.95081 0.81165 0.15642 0.0
C1340 C 0.92205 0.79585 0.25095 0.0
C1341 C 0.99568 0.92549 0.20105 0.0
O1342 O 0.97584 0.87584 0.26528 0.0
O1343 O 0.00568 0.88813 0.30506 0.0
O1344 O 0.27948 0.66637 0.49181 0.0
Mn1345 Mn 0.27941 0.64737 0.53869 0.0
O1346 O 0.26295 0.62273 0.46151 0.0
Mn1347 Mn 0.24089 0.59965 0.49369 0.0
O1348 O 0.28051 0.62619 0.58461 0.0
O1349 O 0.32051 0.67293 0.55112 0.0
Mn1350 Mn 0.31361 0.69274 0.58827 0.0
O1351 O 0.24696 0.68103 0.56386 0.0
O1352 O 0.30435 0.66287 0.61857 0.0
O1353 O 0.30913 0.60712 0.51715 0.0
O1354 O 0.27173 0.5683 0.50651 0.0
O1355 O 0.35538 0.70269 0.5803 0.0
O1356 O 0.27968 0.71979 0.57797 0.0
C1357 C 0.21024 0.63761 0.51506 0.0
C1358 C 0.27717 0.65025 0.46454 0.0
C1359 C 0.28869 0.63702 0.61309 0.0
C1360 C 0.34648 0.69127 0.55208 0.0
C1361 C 0.25195 0.70707 0.58079 0.0
C1362 C 0.30184 0.5774 0.50722 0.0
O1363 O 0.23762 0.62705 0.52709 0.0
O1364 O 0.19781 0.61473 0.49722 0.0
O1365 O 0.77945 0.58652 0.26108 0.0
Mn1366 Mn 0.77939 0.60553 0.21421 0.0
O1367 O 0.76295 0.63016 0.2914 0.0
Mn1368 Mn 0.74088 0.65326 0.25923 0.0
O1369 O 0.78049 0.62673 0.16829 0.0
O1370 O 0.82047 0.57997 0.20177 0.0
Mn1371 Mn 0.81355 0.56015 0.16463 0.0
O1372 O 0.74691 0.57192 0.18901 0.0
O1373 O 0.80431 0.59003 0.13434 0.0
O1374 O 0.80913 0.64577 0.23576 0.0
O1375 O 0.77174 0.68459 0.2464 0.0
O1376 O 0.85532 0.55018 0.17258 0.0
O1377 O 0.7796 0.53315 0.17499 0.0
C1378 C 0.7102 0.61526 0.23779 0.0
C1379 C 0.7771 0.60261 0.28836 0.0
C1380 C 0.78866 0.61589 0.13981 0.0
C1381 C 0.84643 0.56161 0.2008 0.0
C1382 C 0.75188 0.54586 0.17209 0.0
C1383 C 0.80184 0.67549 0.24568 0.0
O1384 O 0.7376 0.62586 0.22583 0.0
O1385 O 0.69781 0.63815 0.25565 0.0
O1386 O 0.41636 0.52939 0.51107 0.0
Mn1387 Mn 0.39736 0.52935 0.4642 0.0
O1388 O 0.37271 0.51289 0.54137 0.0
Mn1389 Mn 0.34963 0.49083 0.50919 0.0
O1390 O 0.37616 0.53048 0.41828 0.0
O1391 O 0.42295 0.57043 0.45182 0.0
Mn1392 Mn 0.44274 0.56349 0.41466 0.0
O1393 O 0.43098 0.49687 0.43899 0.0
O1394 O 0.41289 0.55424 0.38434 0.0
O1395 O 0.35714 0.55908 0.48575 0.0
O1396 O 0.3183 0.5217 0.49639 0.0
O1397 O 0.45269 0.60528 0.42249 0.0
O1398 O 0.46977 0.52956 0.42499 0.0
C1399 C 0.38759 0.46018 0.48783 0.0
C1400 C 0.40024 0.5271 0.53834 0.0
C1401 C 0.38701 0.53863 0.3898 0.0
C1402 C 0.44126 0.59643 0.45071 0.0
C1403 C 0.45705 0.50184 0.42208 0.0
C1404 C 0.32741 0.55181 0.49568 0.0
O1405 O 0.37702 0.48755 0.47578 0.0
O1406 O 0.36471 0.44775 0.50567 0.0
O1407 O 0.47341 0.16638 0.76108 0.0
Mn1408 Mn 0.47348 0.14737 0.71421 0.0
O1409 O 0.4899 0.12273 0.79139 0.0
Mn1410 Mn 0.51198 0.09964 0.75922 0.0
O1411 O 0.47238 0.12618 0.66829 0.0
O1412 O 0.43239 0.17292 0.70177 0.0
Mn1413 Mn 0.43929 0.19274 0.66463 0.0
O1414 O 0.50594 0.18101 0.68901 0.0
O1415 O 0.44855 0.16286 0.63434 0.0
O1416 O 0.44374 0.10714 0.73575 0.0
O1417 O 0.48112 0.06831 0.74638 0.0
O1418 O 0.39752 0.2027 0.67259 0.0
O1419 O 0.47324 0.21977 0.67495 0.0
C1420 C 0.54266 0.13765 0.73782 0.0
C1421 C 0.4757 0.15026 0.78835 0.0
C1422 C 0.4642 0.13701 0.63982 0.0
C1423 C 0.40641 0.19127 0.7008 0.0
C1424 C 0.50096 0.20705 0.67207 0.0
C1425 C 0.45102 0.07741 0.74567 0.0
O1426 O 0.51527 0.12705 0.72583 0.0
O1427 O 0.55505 0.11475 0.75567 0.0
O1428 O 0.32191 0.75594 0.93901 0.0
Mn1429 Mn 0.35554 0.72348 0.9642 0.0
O1430 O 0.28312 0.72324 0.92495 0.0
Mn1431 Mn 0.31017 0.68931 0.91467 0.0
O1432 O 0.39578 0.69375 0.98575 0.0
O1433 O 0.37587 0.76527 0.97579 0.0
Mn1434 Mn 0.40328 0.762 0.0092 0.0
O1435 O 0.33654 0.72343 0.01107 0.0
O1436 O 0.4346 0.73114 0.99637 0.0
O1437 O 0.37674 0.72235 0.91829 0.0
O1438 O 0.34002 0.69858 0.88435 0.0
O1439 O 0.38816 0.80506 0.00561 0.0
O1440 O 0.38019 0.73993 0.04138 0.0
C1441 C 0.31164 0.6564 0.95073 0.0
C1442 C 0.29585 0.75096 0.92209 0.0
C1443 C 0.4255 0.70103 0.99567 0.0
C1444 C 0.36527 0.79266 0.98776 0.0
C1445 C 0.35266 0.72572 0.03834 0.0
C1446 C 0.36587 0.71423 0.88982 0.0
O1447 O 0.32995 0.68239 0.95182 0.0
O1448 O 0.30022 0.64753 0.92251 0.0
O1449 O 0.97351 0.58653 0.49181 0.0
Mn1450 Mn 0.97355 0.60553 0.53868 0.0
O1451 O 0.99001 0.63018 0.46151 0.0
Mn1452 Mn 0.01207 0.65326 0.4937 0.0
O1453 O 0.97241 0.62673 0.5846 0.0
O1454 O 0.93246 0.57993 0.55105 0.0
Mn1455 Mn 0.9394 0.56015 0.58821 0.0
O1456 O 0.00601 0.5719 0.56388 0.0
O1457 O 0.94865 0.59 0.61854 0.0
O1458 O 0.94381 0.64576 0.51714 0.0
O1459 O 0.9812 0.6846 0.50651 0.0
O1460 O 0.89761 0.5502 0.58039 0.0
O1461 O 0.97332 0.53309 0.57792 0.0
C1462 C 0.04272 0.6153 0.51507 0.0
C1463 C 0.9758 0.60266 0.46454 0.0
C1464 C 0.96426 0.61588 0.61307 0.0
C1465 C 0.90647 0.56162 0.55216 0.0
C1466 C 1.00104 0.54582 0.58078 0.0
C1467 C 0.95109 0.67549 0.50722 0.0
O1468 O 0.01534 0.62587 0.52711 0.0
O1469 O 0.05515 0.63817 0.49722 0.0
O1470 O 0.41638 0.22337 0.24183 0.0
Mn1471 Mn 0.39739 0.22344 0.2887 0.0
O1472 O 0.37275 0.2399 0.21151 0.0
Mn1473 Mn 0.34966 0.26197 0.24369 0.0
O1474 O 0.37619 0.22235 0.33462 0.0
O1475 O 0.42292 0.18235 0.30114 0.0
Mn1476 Mn 0.44274 0.18923 0.33829 0.0
O1477 O 0.43103 0.2559 0.31388 0.0
O1478 O 0.41286 0.1985 0.36858 0.0
O1479 O 0.35714 0.19372 0.26716 0.0
O1480 O 0.31833 0.23111 0.25651 0.0
O1481 O 0.4527 0.14746 0.33029 0.0
O1482 O 0.46979 0.22317 0.32802 0.0
C1483 C 0.38767 0.29263 0.26513 0.0
C1484 C 0.40027 0.22568 0.21455 0.0
C1485 C 0.38704 0.21421 0.3631 0.0
C1486 C 0.44128 0.15638 0.30208 0.0
C1487 C 0.45707 0.2509 0.33083 0.0
C1488 C 0.32743 0.20101 0.25722 0.0
O1489 O 0.37707 0.26524 0.27709 0.0
O1490 O 0.36477 0.30503 0.24729 0.0
O1491 O 0.82188 0.49693 0.81386 0.0
Mn1492 Mn 0.85552 0.52939 0.78868 0.0
O1493 O 0.78309 0.52964 0.82795 0.0
Mn1494 Mn 0.81016 0.56356 0.83822 0.0
O1495 O 0.89576 0.55913 0.76714 0.0
O1496 O 0.87586 0.4876 0.77708 0.0
Mn1497 Mn 0.90327 0.49088 0.74369 0.0
O1498 O 0.83653 0.52944 0.7418 0.0
O1499 O 0.93459 0.52174 0.75652 0.0
O1500 O 0.87672 0.53051 0.83459 0.0
O1501 O 0.84001 0.5543 0.86854 0.0
O1502 O 0.88815 0.44782 0.74725 0.0
O1503 O 0.88019 0.51295 0.7115 0.0
C1504 C 0.81162 0.59647 0.80214 0.0
C1505 C 0.79582 0.50191 0.83078 0.0
C1506 C 0.92549 0.55185 0.75722 0.0
C1507 C 0.86525 0.46021 0.7651 0.0
C1508 C 0.85266 0.52715 0.71453 0.0
C1509 C 0.86588 0.53867 0.86307 0.0
O1510 O 0.82994 0.57048 0.80106 0.0
O1511 O 0.8002 0.60534 0.83036 0.0
O1512 O 0.01106 0.22341 0.33651 0.0
Mn1513 Mn 0.96419 0.22348 0.35552 0.0
O1514 O 0.04138 0.23994 0.38015 0.0
Mn1515 Mn 0.0092 0.262 0.40325 0.0
O1516 O 0.91827 0.22238 0.37672 0.0
O1517 O 0.95175 0.18238 0.32998 0.0
Mn1518 Mn 0.9146 0.18926 0.31016 0.0
O1519 O 0.93899 0.25593 0.32188 0.0
O1520 O 0.88431 0.19853 0.34004 0.0
O1521 O 0.98573 0.19375 0.39576 0.0
O1522 O 0.99637 0.23114 0.43458 0.0
O1523 O 0.9226 0.1475 0.30021 0.0
O1524 O 0.92487 0.2232 0.28312 0.0
C1525 C 0.98776 0.29267 0.36524 0.0
C1526 C 0.03834 0.22577 0.3526 0.0
C1527 C 0.88979 0.21423 0.36587 0.0
C1528 C 0.9508 0.15642 0.31163 0.0
C1529 C 0.92205 0.25093 0.29584 0.0
C1530 C 0.99566 0.20104 0.42548 0.0
O1531 O 0.9758 0.26527 0.37584 0.0
O1532 O 0.00561 0.30506 0.38813 0.0
O1533 O 0.77943 0.2611 0.08651 0.0
Mn1534 Mn 0.77937 0.21422 0.10552 0.0
O1535 O 0.7629 0.29141 0.13016 0.0
Mn1536 Mn 0.74085 0.25922 0.15325 0.0
O1537 O 0.78048 0.1683 0.12671 0.0
O1538 O 0.82047 0.20178 0.07997 0.0
Mn1539 Mn 0.81356 0.16464 0.06014 0.0
O1540 O 0.7469 0.18903 0.07189 0.0
O1541 O 0.80431 0.13435 0.09002 0.0
O1542 O 0.8091 0.23576 0.14576 0.0
O1543 O 0.77171 0.2464 0.18458 0.0
O1544 O 0.85533 0.17261 0.05019 0.0
O1545 O 0.77961 0.17499 0.03314 0.0
C1546 C 0.71018 0.23779 0.11523 0.0
C1547 C 0.77707 0.28838 0.10261 0.0
C1548 C 0.78865 0.13982 0.11587 0.0
C1549 C 0.84643 0.20082 0.06162 0.0
C1550 C 0.75189 0.17209 0.04585 0.0
C1551 C 0.80181 0.24569 0.17548 0.0
O1552 O 0.73758 0.22583 0.12584 0.0
O1553 O 0.69778 0.25563 0.13813 0.0
O1554 O 0.7418 0.02947 0.83654 0.0
Mn1555 Mn 0.78867 0.02941 0.85553 0.0
O1556 O 0.71149 0.01297 0.88018 0.0
Mn1557 Mn 0.74367 0.9909 0.90327 0.0
O1558 O 0.8346 0.03051 0.87672 0.0
O1559 O 0.80106 0.07049 0.82995 0.0
Mn1560 Mn 0.83821 0.06358 0.81016 0.0
O1561 O 0.81385 0.99694 0.82189 0.0
O1562 O 0.86853 0.05431 0.84 0.0
O1563 O 0.76713 0.05914 0.89577 0.0
O1564 O 0.7565 0.02176 0.9346 0.0
O1565 O 0.83034 0.10537 0.8002 0.0
O1566 O 0.82793 0.02965 0.78311 0.0
C1567 C 0.76509 0.96023 0.86526 0.0
C1568 C 0.71453 0.02718 0.85265 0.0
C1569 C 0.86307 0.03863 0.86584 0.0
C1570 C 0.80212 0.09648 0.81163 0.0
C1571 C 0.83077 0.00193 0.79583 0.0
C1572 C 0.75721 0.05186 0.92549 0.0
O1573 O 0.77707 0.98762 0.87586 0.0
O1574 O 0.74724 0.94783 0.88815 0.0
O1575 O 0.97344 0.99183 0.58653 0.0
Mn1576 Mn 0.9735 0.0387 0.60554 0.0
O1577 O 0.98992 0.96151 0.63017 0.0
Mn1578 Mn 0.012 0.99367 0.65326 0.0
O1579 O 0.97238 0.08461 0.62674 0.0
O1580 O 0.93241 0.05113 0.57997 0.0
Mn1581 Mn 0.93934 0.08827 0.56015 0.0
O1582 O 0.00598 0.0639 0.57193 0.0
O1583 O 0.94859 0.11856 0.59004 0.0
O1584 O 0.94376 0.01714 0.64576 0.0
O1585 O 0.98114 0.00651 0.68459 0.0
O1586 O 0.89757 0.08034 0.55019 0.0
O1587 O 0.97329 0.07791 0.53315 0.0
C1588 C 0.04268 0.01507 0.61525 0.0
C1589 C 0.97572 0.96456 0.60264 0.0
C1590 C 0.96421 0.11308 0.61591 0.0
C1591 C 0.90645 0.05212 0.56162 0.0
C1592 C 1.00101 0.08083 0.54587 0.0
C1593 C 0.95104 0.00722 0.67548 0.0
O1594 O 0.0153 0.02707 0.62586 0.0
O1595 O 0.05507 0.99721 0.63815 0.0
O1596 O 0.0111 0.52944 0.4164 0.0
Mn1597 Mn 0.96422 0.52941 0.3974 0.0
O1598 O 0.0414 0.51289 0.37276 0.0
Mn1599 Mn 0.00919 0.49086 0.34967 0.0
O1600 O 0.9183 0.53054 0.3762 0.0
O1601 O 0.95185 0.5705 0.42297 0.0
Mn1602 Mn 0.91468 0.56363 0.44275 0.0
O1603 O 0.93902 0.49697 0.43106 0.0
O1604 O 0.88437 0.55437 0.4129 0.0
O1605 O 0.98578 0.55913 0.35716 0.0
O1606 O 0.99639 0.52173 0.31833 0.0
O1607 O 0.92259 0.6054 0.4527 0.0
O1608 O 0.92491 0.5297 0.46983 0.0
C1609 C 0.98772 0.4602 0.38767 0.0
C1610 C 0.03837 0.52707 0.4003 0.0
C1611 C 0.88983 0.53867 0.38707 0.0
C1612 C 0.9508 0.5965 0.44127 0.0
C1613 C 0.92208 0.50197 0.4571 0.0
C1614 C 0.9957 0.55184 0.32744 0.0
O1615 O 0.97579 0.48761 0.37707 0.0
O1616 O 0.00556 0.44779 0.36478 0.0
O1617 O 0.47348 0.26104 0.16636 0.0
Mn1618 Mn 0.47352 0.21417 0.14736 0.0
O1619 O 0.48994 0.29135 0.12271 0.0
Mn1620 Mn 0.51202 0.25917 0.09962 0.0
O1621 O 0.47239 0.16826 0.12616 0.0
O1622 O 0.43244 0.20179 0.17295 0.0
Mn1623 Mn 0.43937 0.16464 0.19274 0.0
O1624 O 0.506 0.18897 0.18098 0.0
O1625 O 0.44862 0.13432 0.16288 0.0
O1626 O 0.44378 0.23572 0.10712 0.0
O1627 O 0.48116 0.24636 0.06829 0.0
O1628 O 0.39759 0.17248 0.2027 0.0
O1629 O 0.47331 0.17496 0.21976 0.0
C1630 C 0.54268 0.23783 0.13759 0.0
C1631 C 0.47575 0.28831 0.15024 0.0
C1632 C 0.46424 0.13979 0.13701 0.0
C1633 C 0.40645 0.2007 0.19127 0.0
C1634 C 0.50103 0.17205 0.20704 0.0
C1635 C 0.45105 0.24565 0.0774 0.0
O1636 O 0.51531 0.22577 0.12702 0.0
O1637 O 0.5551 0.25568 0.11471 0.0
O1638 O 0.74182 0.72347 0.91638 0.0
Mn1639 Mn 0.7887 0.72352 0.89739 0.0
O1640 O 0.71152 0.73998 0.87274 0.0
Mn1641 Mn 0.74371 0.76204 0.84965 0.0
O1642 O 0.83462 0.72239 0.87619 0.0
O1643 O 0.80111 0.68243 0.92295 0.0
Mn1644 Mn 0.83825 0.68934 0.94277 0.0
O1645 O 0.81388 0.75598 0.93103 0.0
O1646 O 0.86856 0.69859 0.91291 0.0
O1647 O 0.76715 0.69379 0.85714 0.0
O1648 O 0.75651 0.73118 0.81831 0.0
O1649 O 0.83031 0.64757 0.95272 0.0
O1650 O 0.82796 0.72328 0.96982 0.0
C1651 C 0.76508 0.79269 0.88761 0.0
C1652 C 0.71455 0.72577 0.90026 0.0
C1653 C 0.86309 0.71425 0.88706 0.0
C1654 C 0.80209 0.65645 0.94129 0.0
C1655 C 0.8308 0.751 0.95708 0.0
C1656 C 0.75722 0.70107 0.82742 0.0
O1657 O 0.77711 0.76531 0.87705 0.0
O1658 O 0.74723 0.80512 0.86473 0.0
O1659 O 0.27943 0.99182 0.66639 0.0
Mn1660 Mn 0.27938 0.03869 0.64738 0.0
O1661 O 0.26293 0.9615 0.62275 0.0
Mn1662 Mn 0.24087 0.99368 0.59965 0.0
O1663 O 0.28048 0.08461 0.62619 0.0
O1664 O 0.32046 0.05113 0.67294 0.0
Mn1665 Mn 0.31355 0.08826 0.69276 0.0
O1666 O 0.2469 0.06388 0.681 0.0
O1667 O 0.3043 0.11856 0.66288 0.0
O1668 O 0.30912 0.01714 0.60714 0.0
O1669 O 0.27173 0.00648 0.56831 0.0
O1670 O 0.35532 0.0803 0.70273 0.0
O1671 O 0.2796 0.07791 0.71976 0.0
C1672 C 0.21021 0.01505 0.6376 0.0
C1673 C 0.27709 0.96454 0.6503 0.0
C1674 C 0.28865 0.11308 0.63703 0.0
C1675 C 0.34643 0.05209 0.6913 0.0
C1676 C 0.25188 0.08082 0.70705 0.0
C1677 C 0.30184 0.00721 0.57742 0.0
O1678 O 0.23759 0.02708 0.62704 0.0
O1679 O 0.19779 0.9972 0.61472 0.0
O1680 O 0.83648 0.51107 0.22345 0.0
Mn1681 Mn 0.85549 0.4642 0.22349 0.0
O1682 O 0.88011 0.54139 0.23999 0.0
Mn1683 Mn 0.90321 0.5092 0.26202 0.0
O1684 O 0.87669 0.41828 0.22238 0.0
O1685 O 0.82994 0.45178 0.1824 0.0
Mn1686 Mn 0.81012 0.41464 0.18929 0.0
O1687 O 0.82187 0.43899 0.25596 0.0
O1688 O 0.83999 0.38434 0.19854 0.0
O1689 O 0.89573 0.48577 0.19377 0.0
O1690 O 0.93455 0.49642 0.23115 0.0
O1691 O 0.80016 0.42262 0.14753 0.0
O1692 O 0.78311 0.42497 0.22325 0.0
C1693 C 0.86527 0.4878 0.29268 0.0
C1694 C 0.85257 0.53836 0.22581 0.0
C1695 C 0.86582 0.38981 0.21424 0.0
C1696 C 0.81159 0.45083 0.15644 0.0
C1697 C 0.79582 0.42206 0.25097 0.0
C1698 C 0.92544 0.49571 0.20105 0.0
O1699 O 0.87583 0.47579 0.26529 0.0
O1700 O 0.88815 0.50564 0.30511 0.0
O1701 O 0.4918 0.08649 0.97343 0.0
Mn1702 Mn 0.53868 0.1055 0.97349 0.0
O1703 O 0.46149 0.13013 0.98996 0.0
Mn1704 Mn 0.49367 0.15322 0.01203 0.0
O1705 O 0.5846 0.1267 0.9724 0.0
O1706 O 0.55112 0.07997 0.9324 0.0
Mn1707 Mn 0.58826 0.06015 0.93928 0.0
O1708 O 0.56386 0.07185 0.00594 0.0
O1709 O 0.61856 0.09003 0.94854 0.0
O1710 O 0.51713 0.14575 0.94378 0.0
O1711 O 0.5065 0.18456 0.98118 0.0
O1712 O 0.58028 0.0502 0.89751 0.0
O1713 O 0.57799 0.0331 0.97321 0.0
C1714 C 0.51511 0.11521 0.04269 0.0
C1715 C 0.46452 0.10259 0.97579 0.0
C1716 C 0.61308 0.11587 0.96422 0.0
C1717 C 0.55207 0.06163 0.90642 0.0
C1718 C 0.58081 0.04581 1.00094 0.0
C1719 C 0.50721 0.17547 0.95107 0.0
O1720 O 0.52707 0.12581 0.01529 0.0
O1721 O 0.49727 0.1381 0.05509 0.0
O1722 O 0.91637 0.74182 0.72347 0.0
Mn1723 Mn 0.89736 0.78868 0.72351 0.0
O1724 O 0.87272 0.7115 0.73995 0.0
Mn1725 Mn 0.84963 0.74368 0.76202 0.0
O1726 O 0.87616 0.8346 0.72239 0.0
O1727 O 0.92295 0.80106 0.68243 0.0
Mn1728 Mn 0.94273 0.83822 0.68936 0.0
O1729 O 0.93098 0.8139 0.75599 0.0
O1730 O 0.91288 0.86853 0.69861 0.0
O1731 O 0.85714 0.76712 0.69378 0.0
O1732 O 0.8183 0.75648 0.73115 0.0
O1733 O 0.95269 0.83038 0.64757 0.0
O1734 O 0.96976 0.8279 0.72329 0.0
C1735 C 0.88759 0.76504 0.79268 0.0
C1736 C 0.90025 0.71454 0.72575 0.0
C1737 C 0.88703 0.86307 0.71427 0.0
C1738 C 0.94126 0.80215 0.65643 0.0
C1739 C 0.95704 0.83082 0.75101 0.0
C1740 C 0.82742 0.75719 0.70105 0.0
O1741 O 0.87702 0.77709 0.76531 0.0
O1742 O 0.86471 0.74719 0.8051 0.0
O1743 O 0.26105 0.16638 0.47347 0.0
Mn1744 Mn 0.21418 0.14737 0.47351 0.0
O1745 O 0.29137 0.12274 0.48998 0.0
Mn1746 Mn 0.25918 0.09964 0.51203 0.0
O1747 O 0.16828 0.12616 0.47239 0.0
O1748 O 0.20179 0.17294 0.43242 0.0
Mn1749 Mn 0.16463 0.19272 0.43933 0.0
O1750 O 0.18897 0.181 0.50597 0.0
O1751 O 0.13433 0.16286 0.44858 0.0
O1752 O 0.23574 0.10714 0.44378 0.0
O1753 O 0.24636 0.06831 0.48117 0.0
O1754 O 0.17251 0.20268 0.39755 0.0
O1755 O 0.17494 0.21976 0.47327 0.0
C1756 C 0.23774 0.13765 0.5427 0.0
C1757 C 0.28833 0.15029 0.47581 0.0
C1758 C 0.1398 0.137 0.46423 0.0
C1759 C 0.20073 0.19126 0.40643 0.0
C1760 C 0.17203 0.20705 0.50099 0.0
C1761 C 0.24566 0.07741 0.45106 0.0
O1762 O 0.22578 0.12705 0.51531 0.0
O1763 O 0.25559 0.11476 0.5551 0.0
O1764 O 0.83647 0.24183 0.52947 0.0
Mn1765 Mn 0.85547 0.28871 0.52942 0.0
O1766 O 0.88012 0.21153 0.51295 0.0
Mn1767 Mn 0.9032 0.24372 0.49089 0.0
O1768 O 0.87665 0.33463 0.53052 0.0
O1769 O 0.82992 0.30113 0.57051 0.0
Mn1770 Mn 0.81008 0.33827 0.56361 0.0
O1771 O 0.82182 0.31389 0.49696 0.0
O1772 O 0.83995 0.36857 0.55436 0.0
O1773 O 0.89572 0.26717 0.55915 0.0
O1774 O 0.93454 0.25652 0.52176 0.0
O1775 O 0.80013 0.33029 0.60539 0.0
O1776 O 0.78305 0.32794 0.52967 0.0
C1777 C 0.86524 0.26509 0.46024 0.0
C1778 C 0.85259 0.21456 0.52716 0.0
C1779 C 0.86578 0.3631 0.53866 0.0
C1780 C 0.81158 0.30209 0.59649 0.0
C1781 C 0.79577 0.33083 0.50194 0.0
C1782 C 0.92544 0.25724 0.55186 0.0
O1783 O 0.8758 0.27712 0.48763 0.0
O1784 O 0.88812 0.24726 0.44781 0.0
O1785 O 0.76108 0.08651 0.27942 0.0
Mn1786 Mn 0.71421 0.10552 0.27939 0.0
O1787 O 0.79139 0.13016 0.26291 0.0
Mn1788 Mn 0.7592 0.15326 0.24087 0.0
O1789 O 0.66829 0.12673 0.28052 0.0
O1790 O 0.70182 0.07993 0.32047 0.0
Mn1791 Mn 0.66467 0.06015 0.31354 0.0
O1792 O 0.689 0.0719 0.24692 0.0
O1793 O 0.63435 0.09 0.3043 0.0
O1794 O 0.73576 0.14574 0.30913 0.0
O1795 O 0.74638 0.18458 0.27175 0.0
O1796 O 0.67252 0.05018 0.35532 0.0
O1797 O 0.67499 0.03312 0.2796 0.0
C1798 C 0.73774 0.11525 0.2102 0.0
C1799 C 0.78836 0.10261 0.27708 0.0
C1800 C 0.63981 0.11588 0.28868 0.0
C1801 C 0.70074 0.06161 0.34646 0.0
C1802 C 0.67208 0.04584 0.25188 0.0
C1803 C 0.74569 0.17547 0.30185 0.0
O1804 O 0.72579 0.12586 0.2376 0.0
O1805 O 0.75559 0.13815 0.1978 0.0
O1806 O 0.9164 0.01109 0.02942 0.0
Mn1807 Mn 0.89739 0.96422 0.0294 0.0
O1808 O 0.87276 0.04139 0.01288 0.0
Mn1809 Mn 0.84967 0.00919 0.99085 0.0
O1810 O 0.87619 0.91831 0.03054 0.0
O1811 O 0.92298 0.95185 0.07048 0.0
Mn1812 Mn 0.94276 0.91469 0.06358 0.0
O1813 O 0.93103 0.93901 0.99694 0.0
O1814 O 0.91291 0.88437 0.05432 0.0
O1815 O 0.85716 0.98578 0.05912 0.0
O1816 O 0.81833 0.99641 0.02172 0.0
O1817 O 0.95271 0.92255 0.10536 0.0
O1818 O 0.96982 0.92494 0.02965 0.0
C1819 C 0.88762 0.98777 0.96021 0.0
C1820 C 0.90031 0.03837 0.02706 0.0
C1821 C 0.88706 0.88984 0.03866 0.0
C1822 C 0.94129 0.95077 0.09648 0.0
C1823 C 0.95709 0.92209 0.00193 0.0
C1824 C 0.82743 0.9957 0.05183 0.0
O1825 O 0.87705 0.97578 0.98761 0.0
O1826 O 0.86475 0.00561 0.94777 0.0
O1827 O 0.99182 0.16635 0.77948 0.0
Mn1828 Mn 0.03869 0.14734 0.7794 0.0
O1829 O 0.96149 0.12271 0.76298 0.0
Mn1830 Mn 0.99365 0.09963 0.74089 0.0
O1831 O 0.0846 0.12613 0.78049 0.0
O1832 O 0.05114 0.17288 0.82049 0.0
Mn1833 Mn 0.08828 0.1927 0.81359 0.0
O1834 O 0.06389 0.18096 0.74693 0.0
O1835 O 0.11856 0.16281 0.80434 0.0
O1836 O 0.01714 0.1071 0.80913 0.0
O1837 O 0.0065 0.06828 0.77173 0.0
O1838 O 0.08031 0.20266 0.85536 0.0
O1839 O 0.07793 0.21971 0.77964 0.0
C1840 C 0.01506 0.13764 0.71022 0.0
C1841 C 0.96454 0.15024 0.77719 0.0
C1842 C 0.11308 0.13696 0.78867 0.0
C1843 C 0.0521 0.19123 0.84646 0.0
C1844 C 0.08083 0.207 0.75192 0.0
C1845 C 0.00721 0.07738 0.80184 0.0
O1846 O 0.02705 0.12703 0.7376 0.0
O1847 O 0.99721 0.11475 0.69783 0.0
O1848 O 0.7234 0.33652 0.51107 0.0
Mn1849 Mn 0.72346 0.35551 0.4642 0.0
O1850 O 0.73992 0.38016 0.54138 0.0
Mn1851 Mn 0.76199 0.40324 0.50919 0.0
O1852 O 0.72237 0.37669 0.41827 0.0
O1853 O 0.68237 0.32996 0.45177 0.0
Mn1854 Mn 0.68927 0.31014 0.41462 0.0
O1855 O 0.75592 0.32186 0.43903 0.0
O1856 O 0.69853 0.34001 0.38432 0.0
O1857 O 0.69375 0.39577 0.48573 0.0
O1858 O 0.73115 0.43458 0.49638 0.0
O1859 O 0.6475 0.30019 0.42259 0.0
O1860 O 0.7232 0.28309 0.42491 0.0
C1861 C 0.79264 0.36527 0.48783 0.0
C1862 C 0.72571 0.35264 0.53834 0.0
C1863 C 0.71419 0.36586 0.38979 0.0
C1864 C 0.65641 0.31161 0.4508 0.0
C1865 C 0.75093 0.29581 0.4221 0.0
C1866 C 0.70104 0.42549 0.49566 0.0
O1867 O 0.76526 0.37584 0.47579 0.0
O1868 O 0.80507 0.38815 0.50567 0.0
O1869 O 0.22347 0.41635 0.7418 0.0
Mn1870 Mn 0.22351 0.39733 0.78867 0.0
O1871 O 0.23995 0.37269 0.71149 0.0
Mn1872 Mn 0.26202 0.3496 0.74366 0.0
O1873 O 0.22238 0.37613 0.83459 0.0
O1874 O 0.18243 0.42292 0.80106 0.0
Mn1875 Mn 0.18936 0.44271 0.83821 0.0
O1876 O 0.25599 0.43095 0.81388 0.0
O1877 O 0.1986 0.41285 0.86853 0.0
O1878 O 0.19377 0.3571 0.76712 0.0
O1879 O 0.23116 0.31827 0.7565 0.0
O1880 O 0.14758 0.45268 0.83035 0.0
O1881 O 0.2233 0.46973 0.82789 0.0
C1882 C 0.2927 0.3876 0.7651 0.0
C1883 C 0.2258 0.40025 0.71452 0.0
C1884 C 0.21422 0.38699 0.86306 0.0
C1885 C 0.15645 0.44125 0.80213 0.0
C1886 C 0.25102 0.45701 0.83081 0.0
C1887 C 0.20105 0.32738 0.75721 0.0
O1888 O 0.2653 0.377 0.77707 0.0
O1889 O 0.30509 0.36471 0.74724 0.0
O1890 O 0.58652 0.4735 0.49182 0.0
Mn1891 Mn 0.60552 0.47354 0.5387 0.0
O1892 O 0.63017 0.48999 0.46152 0.0
Mn1893 Mn 0.65325 0.51206 0.4937 0.0
O1894 O 0.62671 0.47241 0.58461 0.0
O1895 O 0.57992 0.43246 0.55107 0.0
Mn1896 Mn 0.56014 0.4394 0.58822 0.0
O1897 O 0.57189 0.50602 0.56389 0.0
O1898 O 0.58998 0.44865 0.61855 0.0
O1899 O 0.64574 0.4438 0.51714 0.0
O1900 O 0.68458 0.48118 0.5065 0.0
O1901 O 0.55018 0.39761 0.5804 0.0
O1902 O 0.53311 0.47333 0.57789 0.0
C1903 C 0.61529 0.54271 0.51506 0.0
C1904 C 0.60264 0.47579 0.46455 0.0
C1905 C 0.61586 0.46426 0.61309 0.0
C1906 C 0.56161 0.40646 0.55217 0.0
C1907 C 0.54583 0.50105 0.5808 0.0
C1908 C 0.67546 0.45108 0.50721 0.0
O1909 O 0.62586 0.51533 0.52711 0.0
O1910 O 0.63816 0.55514 0.49722 0.0
O1911 O 0.52947 0.83652 0.24182 0.0
Mn1912 Mn 0.5294 0.85552 0.28869 0.0
O1913 O 0.51298 0.88016 0.2115 0.0
Mn1914 Mn 0.4909 0.90325 0.24367 0.0
O1915 O 0.5305 0.87672 0.33461 0.0
O1916 O 0.57049 0.82997 0.30114 0.0
Mn1917 Mn 0.56357 0.81014 0.33827 0.0
O1918 O 0.49692 0.8219 0.31389 0.0
O1919 O 0.55432 0.84002 0.36856 0.0
O1920 O 0.55914 0.89575 0.26715 0.0
O1921 O 0.52175 0.93458 0.25651 0.0
O1922 O 0.60535 0.80018 0.33031 0.0
O1923 O 0.52962 0.78314 0.32791 0.0
C1924 C 0.46022 0.86524 0.26507 0.0
C1925 C 0.52718 0.85263 0.21455 0.0
C1926 C 0.53867 0.86588 0.36308 0.0
C1927 C 0.59645 0.81161 0.3021 0.0
C1928 C 0.5019 0.79585 0.33082 0.0
C1929 C 0.55186 0.92547 0.25722 0.0
O1930 O 0.48761 0.87584 0.27706 0.0
O1931 O 0.44783 0.88813 0.24722 0.0
O1932 O 0.66634 0.27945 0.99182 0.0
Mn1933 Mn 0.64735 0.27941 0.03869 0.0
O1934 O 0.62269 0.26296 0.96151 0.0
Mn1935 Mn 0.59961 0.24089 0.9937 0.0
O1936 O 0.62615 0.28053 0.0846 0.0
O1937 O 0.67294 0.32049 0.05107 0.0
Mn1938 Mn 0.69273 0.31356 0.08822 0.0
O1939 O 0.68098 0.24694 0.06388 0.0
O1940 O 0.66288 0.3043 0.11854 0.0
O1941 O 0.60711 0.30914 0.01715 0.0
O1942 O 0.56828 0.27175 0.00654 0.0
O1943 O 0.70267 0.35535 0.08038 0.0
O1944 O 0.71978 0.27964 0.07794 0.0
C1945 C 0.63762 0.21022 0.01513 0.0
C1946 C 0.65022 0.27716 0.96455 0.0
C1947 C 0.63703 0.28864 0.11308 0.0
C1948 C 0.69125 0.34648 0.05216 0.0
C1949 C 0.70704 0.25192 0.08079 0.0
C1950 C 0.57739 0.30185 0.00724 0.0
O1951 O 0.62701 0.23761 0.0271 0.0
O1952 O 0.61473 0.19782 0.99728 0.0
O1953 O 0.02936 0.41637 0.51109 0.0
Mn1954 Mn 0.02933 0.39736 0.46422 0.0
O1955 O 0.01286 0.37271 0.54139 0.0
Mn1956 Mn 0.99081 0.34962 0.5092 0.0
O1957 O 0.03047 0.37615 0.4183 0.0
O1958 O 0.07042 0.42296 0.45185 0.0
Mn1959 Mn 0.06348 0.44273 0.41469 0.0
O1960 O 0.99686 0.43098 0.43901 0.0
O1961 O 0.05423 0.41288 0.38436 0.0
O1962 O 0.05907 0.35713 0.48577 0.0
O1963 O 0.02168 0.31829 0.4964 0.0
O1964 O 0.10527 0.45268 0.42251 0.0
O1965 O 0.02956 0.46978 0.42497 0.0
C1966 C 0.96016 0.38759 0.48782 0.0
C1967 C 0.02702 0.40026 0.53836 0.0
C1968 C 0.03862 0.387 0.38983 0.0
C1969 C 0.09641 0.44126 0.45074 0.0
C1970 C 0.00184 0.45705 0.42211 0.0
C1971 C 0.05179 0.3274 0.49569 0.0
O1972 O 0.98754 0.37702 0.47579 0.0
O1973 O 0.94773 0.36472 0.50567 0.0
O1974 O 0.58649 0.77949 0.76106 0.0
Mn1975 Mn 0.60551 0.77942 0.71419 0.0
O1976 O 0.63013 0.76296 0.79139 0.0
Mn1977 Mn 0.65323 0.7409 0.75921 0.0
O1978 O 0.62671 0.78052 0.66828 0.0
O1979 O 0.57997 0.82052 0.70175 0.0
Mn1980 Mn 0.56016 0.81364 0.6646 0.0
O1981 O 0.57186 0.74697 0.689 0.0
O1982 O 0.59004 0.80438 0.63432 0.0
O1983 O 0.64575 0.80915 0.73574 0.0
O1984 O 0.68456 0.77175 0.74639 0.0
O1985 O 0.5502 0.85541 0.6726 0.0
O1986 O 0.53311 0.7797 0.67487 0.0
C1987 C 0.61523 0.71023 0.73775 0.0
C1988 C 0.60258 0.77713 0.78835 0.0
C1989 C 0.61586 0.78867 0.6398 0.0
C1990 C 0.56162 0.84649 0.70081 0.0
C1991 C 0.54583 0.75197 0.67204 0.0
C1992 C 0.67546 0.80186 0.74567 0.0
O1993 O 0.62582 0.73763 0.7258 0.0
O1994 O 0.63812 0.69783 0.7556 0.0
O1995 O 0.16635 0.47345 0.26109 0.0
Mn1996 Mn 0.14735 0.4735 0.21421 0.0
O1997 O 0.1227 0.48994 0.29139 0.0
Mn1998 Mn 0.09961 0.51201 0.25921 0.0
O1999 O 0.12615 0.47238 0.1683 0.0
O2000 O 0.17294 0.43242 0.20183 0.0
Mn2001 Mn 0.19272 0.43934 0.16467 0.0
O2002 O 0.18098 0.50597 0.18903 0.0
O2003 O 0.16287 0.4486 0.13435 0.0
O2004 O 0.10712 0.44376 0.23576 0.0
O2005 O 0.06829 0.48115 0.24638 0.0
O2006 O 0.20268 0.39756 0.17251 0.0
O2007 O 0.21978 0.47327 0.17496 0.0
C2008 C 0.13763 0.54268 0.23779 0.0
C2009 C 0.15023 0.47574 0.28836 0.0
C2010 C 0.13699 0.46422 0.13982 0.0
C2011 C 0.19126 0.40643 0.20074 0.0
C2012 C 0.20705 0.50099 0.17212 0.0
C2013 C 0.07739 0.45104 0.24567 0.0
O2014 O 0.12702 0.51529 0.22581 0.0
O2015 O 0.11474 0.55507 0.25564 0.0
O2016 O 0.56388 0.24689 0.68102 0.0
Mn2017 Mn 0.53868 0.27936 0.64739 0.0
O2018 O 0.57787 0.27958 0.71981 0.0
Mn2019 Mn 0.5882 0.31351 0.69278 0.0
O2020 O 0.51712 0.3091 0.60716 0.0
O2021 O 0.5271 0.23757 0.62705 0.0
Mn2022 Mn 0.4937 0.24084 0.59965 0.0
O2023 O 0.4918 0.27939 0.66639 0.0
O2024 O 0.50649 0.27172 0.56833 0.0
O2025 O 0.58459 0.2805 0.6262 0.0
O2026 O 0.61853 0.30427 0.66293 0.0
O2027 O 0.49723 0.19776 0.61474 0.0
O2028 O 0.46151 0.26289 0.62274 0.0
C2029 C 0.55214 0.34644 0.6913 0.0
C2030 C 0.58078 0.25186 0.70709 0.0
C2031 C 0.5072 0.30182 0.57744 0.0
C2032 C 0.51507 0.21019 0.63762 0.0
C2033 C 0.46454 0.2771 0.65026 0.0
C2034 C 0.61307 0.28866 0.63705 0.0
O2035 O 0.55105 0.32045 0.67299 0.0
O2036 O 0.58037 0.3553 0.70273 0.0
O2037 O 0.72343 0.24183 0.91639 0.0
Mn2038 Mn 0.72348 0.2887 0.8974 0.0
O2039 O 0.73994 0.21153 0.87274 0.0
Mn2040 Mn 0.762 0.24371 0.84966 0.0
O2041 O 0.72236 0.33462 0.87619 0.0
O2042 O 0.68239 0.30108 0.92297 0.0
Mn2043 Mn 0.6893 0.33824 0.94276 0.0
O2044 O 0.75593 0.3139 0.93105 0.0
O2045 O 0.69857 0.36856 0.91291 0.0
O2046 O 0.69375 0.26715 0.85716 0.0
O2047 O 0.73113 0.25653 0.81833 0.0
O2048 O 0.64751 0.33038 0.9527 0.0
O2049 O 0.72322 0.32799 0.96983 0.0
C2050 C 0.79267 0.26514 0.88766 0.0
C2051 C 0.72573 0.21456 0.90027 0.0
C2052 C 0.71423 0.36309 0.88706 0.0
C2053 C 0.65639 0.30216 0.94128 0.0
C2054 C 0.75095 0.33082 0.9571 0.0
C2055 C 0.70102 0.25723 0.82744 0.0
O2056 O 0.76527 0.27711 0.87706 0.0
O2057 O 0.80506 0.2473 0.86477 0.0
O2058 O 0.76106 0.47349 0.16642 0.0
Mn2059 Mn 0.71419 0.47353 0.1474 0.0
O2060 O 0.79137 0.49002 0.12277 0.0
Mn2061 Mn 0.75918 0.51206 0.09968 0.0
O2062 O 0.66828 0.4724 0.12619 0.0
O2063 O 0.70177 0.43244 0.17296 0.0
Mn2064 Mn 0.66462 0.43935 0.19277 0.0
O2065 O 0.68897 0.50599 0.18103 0.0
O2066 O 0.63433 0.44859 0.16289 0.0
O2067 O 0.73575 0.4438 0.10717 0.0
O2068 O 0.74639 0.48119 0.06834 0.0
O2069 O 0.67257 0.39758 0.20273 0.0
O2070 O 0.67494 0.47329 0.2198 0.0
C2071 C 0.73779 0.54271 0.13763 0.0
C2072 C 0.78834 0.47585 0.15032 0.0
C2073 C 0.6398 0.46422 0.13702 0.0
C2074 C 0.70079 0.40646 0.19129 0.0
C2075 C 0.67204 0.50101 0.20708 0.0
C2076 C 0.74568 0.45108 0.07745 0.0
O2077 O 0.72577 0.51532 0.12707 0.0
O2078 O 0.75563 0.55515 0.11476 0.0
O2079 O 0.49695 0.43902 0.43106 0.0
Mn2080 Mn 0.5294 0.46421 0.39741 0.0
O2081 O 0.52967 0.42492 0.46984 0.0
Mn2082 Mn 0.5636 0.41468 0.44277 0.0
O2083 O 0.55911 0.48576 0.35716 0.0
O2084 O 0.4876 0.47576 0.37707 0.0
Mn2085 Mn 0.49085 0.50918 0.34967 0.0
O2086 O 0.52942 0.51109 0.41641 0.0
O2087 O 0.52172 0.49639 0.31834 0.0
O2088 O 0.53052 0.41829 0.37622 0.0
O2089 O 0.55433 0.38435 0.41293 0.0
O2090 O 0.44776 0.50559 0.36475 0.0
O2091 O 0.51288 0.54138 0.37276 0.0
C2092 C 0.59648 0.45079 0.44129 0.0
C2093 C 0.50194 0.42209 0.45711 0.0
C2094 C 0.55183 0.49569 0.32744 0.0
C2095 C 0.46021 0.48776 0.38763 0.0
C2096 C 0.52705 0.53837 0.40031 0.0
C2097 C 0.53864 0.38981 0.38709 0.0
O2098 O 0.57048 0.45184 0.42298 0.0
O2099 O 0.60538 0.42257 0.45272 0.0
O2100 O 0.49183 0.97344 0.58653 0.0
Mn2101 Mn 0.5387 0.97351 0.60553 0.0
O2102 O 0.46152 0.98992 0.63018 0.0
Mn2103 Mn 0.49369 0.01201 0.65326 0.0
O2104 O 0.58462 0.97241 0.62672 0.0
O2105 O 0.55115 0.93243 0.57996 0.0
Mn2106 Mn 0.58828 0.93936 0.56014 0.0
O2107 O 0.56389 0.006 0.57191 0.0
O2108 O 0.61857 0.94862 0.59001 0.0
O2109 O 0.51717 0.94377 0.64576 0.0
O2110 O 0.50653 0.98115 0.68459 0.0
O2111 O 0.58035 0.89759 0.55018 0.0
O2112 O 0.57791 0.97331 0.53313 0.0
C2113 C 0.51508 0.04269 0.61525 0.0
C2114 C 0.46456 0.97572 0.60265 0.0
C2115 C 0.6131 0.96425 0.61588 0.0
C2116 C 0.55214 0.90646 0.56161 0.0
C2117 C 0.58081 1.00103 0.54585 0.0
C2118 C 0.50724 0.95104 0.67548 0.0
O2119 O 0.52708 0.0153 0.62585 0.0
O2120 O 0.49723 0.05507 0.63815 0.0
O2121 O 0.02946 0.24177 0.83648 0.0
Mn2122 Mn 0.02941 0.28865 0.85548 0.0
O2123 O 0.0129 0.21147 0.88012 0.0
Mn2124 Mn 0.99087 0.24366 0.90322 0.0
O2125 O 0.03052 0.33457 0.87668 0.0
O2126 O 0.0705 0.30108 0.82994 0.0
Mn2127 Mn 0.06362 0.33823 0.81012 0.0
O2128 O 0.99696 0.31384 0.82184 0.0
O2129 O 0.05436 0.36852 0.83999 0.0
O2130 O 0.05913 0.2671 0.89572 0.0
O2131 O 0.02174 0.25647 0.93455 0.0
O2132 O 0.10538 0.33024 0.80017 0.0
O2133 O 0.02968 0.32795 0.78307 0.0
C2134 C 0.9602 0.26513 0.86522 0.0
C2135 C 0.02708 0.21449 0.85258 0.0
C2136 C 0.03866 0.36305 0.86582 0.0
C2137 C 0.09647 0.30204 0.8116 0.0
C2138 C 0.00195 0.33078 0.7958 0.0
C2139 C 0.05184 0.25718 0.92544 0.0
O2140 O 0.98761 0.27707 0.87581 0.0
O2141 O 0.9478 0.24729 0.88811 0.0
O2142 O 0.68901 0.74693 0.07189 0.0
Mn2143 Mn 0.71422 0.7794 0.10551 0.0
O2144 O 0.67498 0.77963 0.03312 0.0
Mn2145 Mn 0.66467 0.81357 0.06015 0.0
O2146 O 0.73577 0.80914 0.14574 0.0
O2147 O 0.72581 0.73761 0.12585 0.0
Mn2148 Mn 0.75922 0.74088 0.15325 0.0
O2149 O 0.76109 0.77944 0.08651 0.0
O2150 O 0.7464 0.77175 0.18457 0.0
O2151 O 0.6683 0.78052 0.12672 0.0
O2152 O 0.63436 0.80432 0.09001 0.0
O2153 O 0.75562 0.69781 0.13813 0.0
O2154 O 0.7914 0.76293 0.13015 0.0
C2155 C 0.70076 0.84647 0.06162 0.0
C2156 C 0.67207 0.75191 0.04584 0.0
C2157 C 0.74569 0.80186 0.17546 0.0
C2158 C 0.73777 0.71021 0.11524 0.0
C2159 C 0.78837 0.7771 0.1026 0.0
C2160 C 0.63983 0.78867 0.11587 0.0
O2161 O 0.70182 0.82048 0.07994 0.0
O2162 O 0.67254 0.85535 0.05019 0.0
O2163 O 0.25594 0.43901 0.32185 0.0
Mn2164 Mn 0.22349 0.4642 0.3555 0.0
O2165 O 0.22323 0.42491 0.28307 0.0
Mn2166 Mn 0.18931 0.41466 0.31014 0.0
O2167 O 0.19377 0.48575 0.39574 0.0
O2168 O 0.26529 0.47578 0.37583 0.0
Mn2169 Mn 0.26203 0.50918 0.40324 0.0
O2170 O 0.22345 0.51108 0.33651 0.0
O2171 O 0.23116 0.49637 0.43457 0.0
O2172 O 0.22237 0.41829 0.37671 0.0
O2173 O 0.19858 0.38435 0.33999 0.0
O2174 O 0.30509 0.50559 0.38812 0.0
O2175 O 0.23998 0.54137 0.38015 0.0
C2176 C 0.1564 0.45075 0.31163 0.0
C2177 C 0.25096 0.42208 0.2958 0.0
C2178 C 0.20106 0.49567 0.42546 0.0
C2179 C 0.29269 0.48775 0.36522 0.0
C2180 C 0.22576 0.53834 0.35263 0.0
C2181 C 0.21424 0.38981 0.36584 0.0
O2182 O 0.18241 0.45183 0.32993 0.0
O2183 O 0.14753 0.42253 0.3002 0.0
O2184 O 0.66635 0.99181 0.77943 0.0
Mn2185 Mn 0.64736 0.03869 0.77938 0.0
O2186 O 0.6227 0.96152 0.76294 0.0
Mn2187 Mn 0.59962 0.9937 0.74087 0.0
O2188 O 0.62616 0.0846 0.7805 0.0
O2189 O 0.67295 0.05107 0.82047 0.0
Mn2190 Mn 0.69273 0.08823 0.81354 0.0
O2191 O 0.68101 0.06387 0.74692 0.0
O2192 O 0.66288 0.11855 0.80428 0.0
O2193 O 0.60712 0.01715 0.80911 0.0
O2194 O 0.56829 0.00654 0.77173 0.0
O2195 O 0.70268 0.08038 0.85533 0.0
O2196 O 0.7198 0.07796 0.77962 0.0
C2197 C 0.63764 0.01511 0.7102 0.0
C2198 C 0.65023 0.96455 0.77714 0.0
C2199 C 0.63701 0.11308 0.78866 0.0
C2200 C 0.69125 0.05216 0.84647 0.0
C2201 C 0.70707 0.08079 0.7519 0.0
C2202 C 0.5774 0.00724 0.80183 0.0
O2203 O 0.62704 0.02709 0.73759 0.0
O2204 O 0.61475 0.99726 0.6978 0.0
O2205 O 0.01106 0.41637 0.0294 0.0
Mn2206 Mn 0.96419 0.39737 0.02938 0.0
O2207 O 0.04137 0.37272 0.01292 0.0
Mn2208 Mn 0.00918 0.34963 0.99087 0.0
O2209 O 0.91828 0.37618 0.03052 0.0
O2210 O 0.95183 0.42298 0.07046 0.0
Mn2211 Mn 0.91468 0.44277 0.06352 0.0
O2212 O 0.93898 0.43099 0.9969 0.0
O2213 O 0.88435 0.41293 0.05427 0.0
O2214 O 0.98575 0.35715 0.05912 0.0
O2215 O 0.99638 0.31831 0.02175 0.0
O2216 O 0.9225 0.45273 0.1053 0.0
O2217 O 0.925 0.46979 0.02957 0.0
C2218 C 0.98781 0.38758 0.96021 0.0
C2219 C 0.03833 0.40025 0.02712 0.0
C2220 C 0.88981 0.38706 0.03864 0.0
C2221 C 0.95073 0.4413 0.09645 0.0
C2222 C 0.92208 0.45706 0.00186 0.0
C2223 C 0.99568 0.32742 0.05185 0.0
O2224 O 0.97577 0.37702 0.98759 0.0
O2225 O 0.00565 0.3647 0.94778 0.0
O2226 O 0.57184 0.68902 0.24695 0.0
Mn2227 Mn 0.60549 0.7142 0.2794 0.0
O2228 O 0.53307 0.67491 0.27967 0.0
Mn2229 Mn 0.56012 0.66463 0.3136 0.0
O2230 O 0.64573 0.73574 0.30912 0.0
O2231 O 0.62581 0.72579 0.23761 0.0
Mn2232 Mn 0.65322 0.75919 0.24087 0.0
O2233 O 0.58649 0.76108 0.27945 0.0
O2234 O 0.68455 0.74637 0.27173 0.0
O2235 O 0.62668 0.66828 0.28051 0.0
O2236 O 0.59 0.63433 0.30435 0.0
O2237 O 0.63811 0.75557 0.1978 0.0
O2238 O 0.63013 0.79139 0.26291 0.0
C2239 C 0.5616 0.70082 0.34646 0.0
C2240 C 0.5458 0.67208 0.25194 0.0
C2241 C 0.67546 0.74566 0.30184 0.0
C2242 C 0.61522 0.73774 0.2102 0.0
C2243 C 0.60258 0.78836 0.27709 0.0
C2244 C 0.61585 0.63981 0.2887 0.0
O2245 O 0.57994 0.70178 0.32049 0.0
O2246 O 0.55017 0.67261 0.35537 0.0
O2247 O 0.31385 0.32185 0.49694 0.0
Mn2248 Mn 0.28867 0.35549 0.5294 0.0
O2249 O 0.32794 0.28307 0.52966 0.0
Mn2250 Mn 0.33824 0.31012 0.56359 0.0
O2251 O 0.26713 0.39574 0.55913 0.0
O2252 O 0.27708 0.37583 0.48761 0.0
Mn2253 Mn 0.24368 0.40323 0.49088 0.0
O2254 O 0.2418 0.3365 0.52946 0.0
O2255 O 0.25649 0.43456 0.52174 0.0
O2256 O 0.3346 0.37668 0.53051 0.0
O2257 O 0.36854 0.33998 0.55433 0.0
O2258 O 0.2472 0.38815 0.4478 0.0
O2259 O 0.21149 0.38014 0.51294 0.0
C2260 C 0.30207 0.3116 0.59647 0.0
C2261 C 0.33078 0.2958 0.50193 0.0
C2262 C 0.2572 0.42546 0.55185 0.0
C2263 C 0.26504 0.36527 0.46023 0.0
C2264 C 0.21453 0.35262 0.52716 0.0
C2265 C 0.36307 0.36581 0.53865 0.0
O2266 O 0.3011 0.32994 0.5705 0.0
O2267 O 0.33029 0.30017 0.60537 0.0
O2268 O 0.66637 0.26109 0.47348 0.0
Mn2269 Mn 0.64735 0.21421 0.47352 0.0
O2270 O 0.62272 0.2914 0.49 0.0
Mn2271 Mn 0.59962 0.25922 0.51205 0.0
O2272 O 0.62613 0.1683 0.47239 0.0
O2273 O 0.67293 0.20183 0.43243 0.0
Mn2274 Mn 0.6927 0.16467 0.43935 0.0
O2275 O 0.68097 0.18899 0.50599 0.0
O2276 O 0.66284 0.13436 0.44859 0.0
O2277 O 0.60713 0.23578 0.4438 0.0
O2278 O 0.5683 0.2464 0.48118 0.0
O2279 O 0.70266 0.17253 0.39756 0.0
O2280 O 0.71974 0.17497 0.47328 0.0
C2281 C 0.63763 0.23777 0.54272 0.0
C2282 C 0.65027 0.28837 0.47583 0.0
C2283 C 0.63697 0.13983 0.46422 0.0
C2284 C 0.69124 0.20075 0.40644 0.0
C2285 C 0.70702 0.17206 0.50101 0.0
C2286 C 0.5774 0.2457 0.45108 0.0
O2287 O 0.62702 0.22581 0.51532 0.0
O2288 O 0.61474 0.25562 0.55512 0.0
O2289 O 0.74182 0.41639 0.72344 0.0
Mn2290 Mn 0.78869 0.39739 0.7235 0.0
O2291 O 0.71152 0.37275 0.73995 0.0
Mn2292 Mn 0.7437 0.34967 0.76202 0.0
O2293 O 0.83461 0.3762 0.7224 0.0
O2294 O 0.80112 0.42294 0.68241 0.0
Mn2295 Mn 0.83826 0.44276 0.68929 0.0
O2296 O 0.81388 0.43104 0.75596 0.0
O2297 O 0.86856 0.41289 0.69856 0.0
O2298 O 0.76715 0.35714 0.69378 0.0
O2299 O 0.75651 0.31832 0.73118 0.0
O2300 O 0.83029 0.4527 0.64752 0.0
O2301 O 0.82799 0.46981 0.72323 0.0
C2302 C 0.76506 0.38763 0.79268 0.0
C2303 C 0.71455 0.40028 0.72575 0.0
C2304 C 0.86309 0.38706 0.71425 0.0
C2305 C 0.80208 0.44128 0.65643 0.0
C2306 C 0.83082 0.45709 0.75096 0.0
C2307 C 0.75723 0.32742 0.70107 0.0
O2308 O 0.7771 0.37707 0.7653 0.0
O2309 O 0.74722 0.36475 0.80511 0.0
O2310 O 0.57189 0.56389 0.00597 0.0
Mn2311 Mn 0.60552 0.5387 0.9735 0.0
O2312 O 0.53313 0.57794 0.97326 0.0
Mn2313 Mn 0.56015 0.58828 0.93932 0.0
O2314 O 0.64576 0.51716 0.94377 0.0
O2315 O 0.62584 0.52708 0.0153 0.0
Mn2316 Mn 0.65326 0.49369 0.012 0.0
O2317 O 0.58652 0.49183 0.97343 0.0
O2318 O 0.68459 0.50653 0.98115 0.0
O2319 O 0.62672 0.58463 0.9724 0.0
O2320 O 0.59003 0.61858 0.94857 0.0
O2321 O 0.63814 0.49722 0.05507 0.0
O2322 O 0.63017 0.46152 0.98991 0.0
C2323 C 0.56163 0.55212 0.90644 0.0
C2324 C 0.54585 0.58083 1.00099 0.0
C2325 C 0.67548 0.50724 0.95104 0.0
C2326 C 0.61524 0.51506 0.04268 0.0
C2327 C 0.60264 0.46456 0.97572 0.0
C2328 C 0.61588 0.6131 0.96422 0.0
O2329 O 0.57997 0.55114 0.93241 0.0
O2330 O 0.5502 0.58033 0.89755 0.0
O2331 O 0.51108 0.33647 0.2235 0.0
Mn2332 Mn 0.46421 0.35547 0.22351 0.0
O2333 O 0.54138 0.38012 0.24002 0.0
Mn2334 Mn 0.50917 0.40322 0.26205 0.0
O2335 O 0.41829 0.37666 0.22236 0.0
O2336 O 0.45185 0.32987 0.18243 0.0
Mn2337 Mn 0.41469 0.31009 0.18935 0.0
O2338 O 0.43901 0.32183 0.25597 0.0
O2339 O 0.38436 0.33993 0.1986 0.0
O2340 O 0.48576 0.3957 0.19378 0.0
O2341 O 0.49639 0.43454 0.23116 0.0
O2342 O 0.42254 0.30014 0.14756 0.0
O2343 O 0.42494 0.28302 0.22327 0.0
C2344 C 0.48777 0.36527 0.2927 0.0
C2345 C 0.53836 0.35257 0.22586 0.0
C2346 C 0.38982 0.36578 0.21425 0.0
C2347 C 0.45076 0.31157 0.15643 0.0
C2348 C 0.4221 0.29576 0.25099 0.0
C2349 C 0.49569 0.42543 0.20105 0.0
O2350 O 0.47576 0.37582 0.2653 0.0
O2351 O 0.5056 0.38814 0.30513 0.0
O2352 O 0.77937 0.1664 0.49182 0.0
Mn2353 Mn 0.77935 0.14738 0.53869 0.0
O2354 O 0.76288 0.12275 0.46151 0.0
Mn2355 Mn 0.74084 0.09965 0.49369 0.0
O2356 O 0.7805 0.12617 0.58459 0.0
O2357 O 0.82043 0.17297 0.55106 0.0
Mn2358 Mn 0.81351 0.19276 0.58822 0.0
O2359 O 0.74688 0.18099 0.56392 0.0
O2360 O 0.80427 0.1629 0.61853 0.0
O2361 O 0.80909 0.10716 0.51712 0.0
O2362 O 0.77172 0.06832 0.50648 0.0
O2363 O 0.8553 0.20271 0.58036 0.0
O2364 O 0.77956 0.21978 0.57791 0.0
C2365 C 0.71017 0.1376 0.51509 0.0
C2366 C 0.77703 0.15031 0.46454 0.0
C2367 C 0.78862 0.13704 0.61307 0.0
C2368 C 0.84643 0.19128 0.55214 0.0
C2369 C 0.75185 0.20705 0.58084 0.0
C2370 C 0.80182 0.07744 0.50719 0.0
O2371 O 0.73756 0.12704 0.52711 0.0
O2372 O 0.69775 0.11473 0.49724 0.0
O2373 O 0.27946 0.08647 0.26107 0.0
Mn2374 Mn 0.27941 0.10547 0.21419 0.0
O2375 O 0.26292 0.13011 0.29137 0.0
Mn2376 Mn 0.24087 0.15319 0.25917 0.0
O2377 O 0.28052 0.12666 0.16827 0.0
O2378 O 0.3205 0.07992 0.20177 0.0
Mn2379 Mn 0.31361 0.0601 0.16462 0.0
O2380 O 0.24695 0.07182 0.18901 0.0
O2381 O 0.30434 0.08997 0.13432 0.0
O2382 O 0.30912 0.14571 0.23574 0.0
O2383 O 0.27173 0.18453 0.24638 0.0
O2384 O 0.35538 0.05016 0.17258 0.0
O2385 O 0.27968 0.03305 0.1749 0.0
C2386 C 0.21023 0.11523 0.2378 0.0
C2387 C 0.27714 0.10259 0.28834 0.0
C2388 C 0.28866 0.1158 0.13979 0.0
C2389 C 0.34648 0.06158 0.2008 0.0
C2390 C 0.25195 0.04577 0.17207 0.0
C2391 C 0.30184 0.17542 0.24568 0.0
O2392 O 0.23761 0.12579 0.22577 0.0
O2393 O 0.19779 0.13811 0.25563 0.0
O2394 O 0.9164 0.02948 0.51108 0.0
Mn2395 Mn 0.89739 0.02943 0.4642 0.0
O2396 O 0.87275 0.01295 0.54139 0.0
Mn2397 Mn 0.84966 0.9909 0.5092 0.0
O2398 O 0.87619 0.03053 0.41829 0.0
O2399 O 0.92294 0.07052 0.45178 0.0
Mn2400 Mn 0.94275 0.06364 0.41463 0.0
O2401 O 0.93104 0.99697 0.43901 0.0
O2402 O 0.91288 0.05438 0.38434 0.0
O2403 O 0.85715 0.05915 0.48575 0.0
O2404 O 0.81832 0.02175 0.49637 0.0
O2405 O 0.95271 0.10541 0.42263 0.0
O2406 O 0.9698 0.0297 0.4249 0.0
C2407 C 0.88767 0.96023 0.48775 0.0
C2408 C 0.9003 0.02711 0.53836 0.0
C2409 C 0.88705 0.03869 0.38981 0.0
C2410 C 0.94128 0.09649 0.45083 0.0
C2411 C 0.95708 0.00197 0.42207 0.0
C2412 C 0.82742 0.05186 0.49566 0.0
O2413 O 0.87707 0.98763 0.4758 0.0
O2414 O 0.86477 0.94783 0.50559 0.0
O2415 O 0.97349 0.6664 0.76108 0.0
Mn2416 Mn 0.97352 0.64739 0.7142 0.0
O2417 O 0.99002 0.62275 0.79138 0.0
Mn2418 Mn 0.01206 0.59966 0.75917 0.0
O2419 O 0.97238 0.62619 0.66829 0.0
O2420 O 0.93243 0.67297 0.70183 0.0
Mn2421 Mn 0.93933 0.69275 0.66467 0.0
O2422 O 0.00596 0.68104 0.68901 0.0
O2423 O 0.94859 0.66291 0.63435 0.0
O2424 O 0.94379 0.60715 0.73576 0.0
O2425 O 0.98118 0.56833 0.74639 0.0
O2426 O 0.89755 0.7027 0.67254 0.0
O2427 O 0.97325 0.71983 0.67491 0.0
C2428 C 0.0427 0.63761 0.73777 0.0
C2429 C 0.97585 0.6503 0.78836 0.0
C2430 C 0.96426 0.63706 0.63981 0.0
C2431 C 0.90643 0.69128 0.70076 0.0
C2432 C 1.00098 0.7071 0.67208 0.0
C2433 C 0.95108 0.57743 0.74569 0.0
O2434 O 0.01531 0.62705 0.72576 0.0
O2435 O 0.05514 0.61474 0.75561 0.0
O2436 O 0.82184 0.25599 0.93902 0.0
Mn2437 Mn 0.85548 0.22353 0.96421 0.0
O2438 O 0.78307 0.22327 0.92492 0.0
Mn2439 Mn 0.81011 0.18934 0.91464 0.0
O2440 O 0.89571 0.1938 0.98577 0.0
O2441 O 0.87581 0.26532 0.97581 0.0
Mn2442 Mn 0.90321 0.26205 0.00921 0.0
O2443 O 0.83647 0.22348 0.01109 0.0
O2444 O 0.93454 0.23118 0.99642 0.0
O2445 O 0.87668 0.22241 0.91829 0.0
O2446 O 0.83999 0.19859 0.88434 0.0
O2447 O 0.88813 0.30513 0.00568 0.0
O2448 O 0.88011 0.24 0.0414 0.0
C2449 C 0.81158 0.15647 0.95082 0.0
C2450 C 0.7958 0.251 0.92209 0.0
C2451 C 0.92543 0.20107 0.99571 0.0
C2452 C 0.86525 0.2927 0.98784 0.0
C2453 C 0.85256 0.22584 0.03837 0.0
C2454 C 0.86584 0.21424 0.88981 0.0
O2455 O 0.82992 0.18244 0.95179 0.0
O2456 O 0.80015 0.14757 0.9226 0.0
O2457 O 0.47339 0.08649 0.49182 0.0
Mn2458 Mn 0.47346 0.10549 0.5387 0.0
O2459 O 0.48991 0.13013 0.46151 0.0
Mn2460 Mn 0.51197 0.15322 0.4937 0.0
O2461 O 0.47236 0.12667 0.58462 0.0
O2462 O 0.43237 0.07994 0.55113 0.0
Mn2463 Mn 0.43925 0.06012 0.58828 0.0
O2464 O 0.50592 0.07184 0.56388 0.0
O2465 O 0.44852 0.08999 0.61857 0.0
O2466 O 0.44373 0.14573 0.51716 0.0
O2467 O 0.48112 0.18455 0.50652 0.0
O2468 O 0.39749 0.05016 0.58029 0.0
O2469 O 0.4732 0.03307 0.578 0.0
C2470 C 0.54264 0.11522 0.51512 0.0
C2471 C 0.4757 0.10261 0.46455 0.0
C2472 C 0.46422 0.11581 0.6131 0.0
C2473 C 0.4064 0.06159 0.55208 0.0
C2474 C 0.50092 0.0458 0.58082 0.0
C2475 C 0.45101 0.17545 0.50723 0.0
O2476 O 0.51525 0.12581 0.52709 0.0
O2477 O 0.55504 0.13811 0.49728 0.0
O2478 O 0.91638 0.72352 0.24181 0.0
Mn2479 Mn 0.89738 0.72355 0.28868 0.0
O2480 O 0.87272 0.74001 0.21152 0.0
Mn2481 Mn 0.84964 0.76206 0.24371 0.0
O2482 O 0.87619 0.72241 0.3346 0.0
O2483 O 0.92298 0.68246 0.30105 0.0
Mn2484 Mn 0.94278 0.6894 0.3382 0.0
O2485 O 0.93101 0.75602 0.31388 0.0
O2486 O 0.91293 0.69865 0.36853 0.0
O2487 O 0.85715 0.69381 0.26714 0.0
O2488 O 0.81831 0.73119 0.25651 0.0
O2489 O 0.95273 0.64762 0.33038 0.0
O2490 O 0.96981 0.72334 0.32787 0.0
C2491 C 0.88761 0.79272 0.26506 0.0
C2492 C 0.90025 0.7258 0.21454 0.0
C2493 C 0.88705 0.71426 0.36307 0.0
C2494 C 0.94129 0.65647 0.30215 0.0
C2495 C 0.95708 0.75105 0.33078 0.0
C2496 C 0.82743 0.70108 0.25721 0.0
O2497 O 0.87704 0.76534 0.27711 0.0
O2498 O 0.86473 0.80515 0.24722 0.0
O2499 O 0.32184 0.99693 0.81391 0.0
Mn2500 Mn 0.35547 0.02939 0.7887 0.0
O2501 O 0.28308 0.02965 0.82796 0.0
Mn2502 Mn 0.31011 0.0636 0.83827 0.0
O2503 O 0.39571 0.05911 0.76714 0.0
O2504 O 0.37581 0.98759 0.77711 0.0
Mn2505 Mn 0.4032 0.99086 0.74371 0.0
O2506 O 0.33646 0.02943 0.74183 0.0
O2507 O 0.43454 0.02172 0.75649 0.0
O2508 O 0.37667 0.0305 0.83462 0.0
O2509 O 0.33998 0.05434 0.86856 0.0
O2510 O 0.38813 0.94777 0.74726 0.0
O2511 O 0.3801 0.0129 0.71152 0.0
C2512 C 0.3116 0.09646 0.80208 0.0
C2513 C 0.2958 0.00192 0.83085 0.0
C2514 C 0.42543 0.05183 0.75721 0.0
C2515 C 0.36526 0.9602 0.7651 0.0
C2516 C 0.35256 0.02707 0.71455 0.0
C2517 C 0.36581 0.03865 0.86309 0.0
O2518 O 0.32993 0.07048 0.80112 0.0
O2519 O 0.30016 0.10537 0.83028 0.0
O2520 O 0.51108 0.7235 0.33649 0.0
Mn2521 Mn 0.46421 0.72353 0.3555 0.0
O2522 O 0.54139 0.74001 0.38014 0.0
Mn2523 Mn 0.50919 0.76205 0.40324 0.0
O2524 O 0.4183 0.72238 0.3767 0.0
O2525 O 0.45184 0.68244 0.3299 0.0
Mn2526 Mn 0.41468 0.68938 0.31012 0.0
O2527 O 0.439 0.756 0.32188 0.0
O2528 O 0.38436 0.69862 0.33997 0.0
O2529 O 0.48577 0.69379 0.39572 0.0
O2530 O 0.4964 0.73117 0.43456 0.0
O2531 O 0.42251 0.64759 0.30017 0.0
O2532 O 0.425 0.72331 0.28309 0.0
C2533 C 0.48781 0.7927 0.36528 0.0
C2534 C 0.53836 0.72585 0.35259 0.0
C2535 C 0.38982 0.71423 0.36585 0.0
C2536 C 0.45074 0.65645 0.31159 0.0
C2537 C 0.42209 0.75103 0.29582 0.0
C2538 C 0.4957 0.70107 0.42545 0.0
O2539 O 0.47579 0.76532 0.37584 0.0
O2540 O 0.50565 0.80513 0.38815 0.0
O2541 O 0.27946 0.76105 0.0865 0.0
Mn2542 Mn 0.27941 0.71417 0.10549 0.0
O2543 O 0.26295 0.79135 0.13015 0.0
Mn2544 Mn 0.24089 0.75916 0.15324 0.0
O2545 O 0.28053 0.66826 0.12669 0.0
O2546 O 0.32049 0.70179 0.07992 0.0
Mn2547 Mn 0.31359 0.66464 0.06013 0.0
O2548 O 0.24695 0.68899 0.07184 0.0
O2549 O 0.30432 0.63432 0.08997 0.0
O2550 O 0.30914 0.73572 0.14573 0.0
O2551 O 0.27175 0.74634 0.18456 0.0
O2552 O 0.35537 0.67251 0.05018 0.0
O2553 O 0.27966 0.67489 0.03305 0.0
C2554 C 0.21022 0.73774 0.11523 0.0
C2555 C 0.27716 0.78832 0.10263 0.0
C2556 C 0.28865 0.63978 0.11582 0.0
C2557 C 0.34649 0.70073 0.06161 0.0
C2558 C 0.25194 0.67206 0.04579 0.0
C2559 C 0.30186 0.74564 0.17546 0.0
O2560 O 0.23761 0.72576 0.12583 0.0
O2561 O 0.19782 0.75558 0.13812 0.0
O2562 O 0.24184 0.52938 0.83648 0.0
Mn2563 Mn 0.28871 0.52934 0.8555 0.0
O2564 O 0.21152 0.51285 0.88012 0.0
Mn2565 Mn 0.24371 0.49081 0.90322 0.0
O2566 O 0.33462 0.53048 0.87672 0.0
O2567 O 0.30113 0.57043 0.82994 0.0
Mn2568 Mn 0.33827 0.56351 0.81012 0.0
O2569 O 0.31393 0.49686 0.8219 0.0
O2570 O 0.36857 0.55427 0.84 0.0
O2571 O 0.26714 0.55907 0.89573 0.0
O2572 O 0.25649 0.52169 0.93455 0.0
O2573 O 0.33033 0.60528 0.80016 0.0
O2574 O 0.32792 0.52955 0.78312 0.0
C2575 C 0.2651 0.46016 0.86527 0.0
C2576 C 0.21455 0.52702 0.85258 0.0
C2577 C 0.36309 0.53865 0.86588 0.0
C2578 C 0.30212 0.5964 0.8116 0.0
C2579 C 0.33085 0.50184 0.79584 0.0
C2580 C 0.2572 0.55179 0.92545 0.0
O2581 O 0.27712 0.48755 0.87583 0.0
O2582 O 0.24726 0.44773 0.88814 0.0
O2583 O 0.47345 0.4918 0.58649 0.0
Mn2584 Mn 0.47348 0.53868 0.60548 0.0
O2585 O 0.49 0.46151 0.63013 0.0
Mn2586 Mn 0.51203 0.49372 0.65322 0.0
O2587 O 0.47236 0.58461 0.62666 0.0
O2588 O 0.43239 0.55105 0.57991 0.0
Mn2589 Mn 0.43927 0.58821 0.56012 0.0
O2590 O 0.50592 0.56387 0.57182 0.0
O2591 O 0.44854 0.61854 0.58996 0.0
O2592 O 0.44376 0.51713 0.64573 0.0
O2593 O 0.48116 0.5065 0.68455 0.0
O2594 O 0.39749 0.58031 0.55017 0.0
O2595 O 0.4732 0.57797 0.53305 0.0
C2596 C 0.54267 0.51513 0.61526 0.0
C2597 C 0.47582 0.46453 0.60259 0.0
C2598 C 0.46423 0.61308 0.61579 0.0
C2599 C 0.40639 0.5521 0.5616 0.0
C2600 C 0.50093 0.5808 0.54577 0.0
C2601 C 0.45105 0.50721 0.67545 0.0
O2602 O 0.51527 0.52713 0.62582 0.0
O2603 O 0.55511 0.4973 0.63814 0.0
O2604 O 0.51107 0.02942 0.41636 0.0
Mn2605 Mn 0.46419 0.02936 0.39736 0.0
O2606 O 0.54137 0.01294 0.3727 0.0
Mn2607 Mn 0.5092 0.99086 0.34962 0.0
O2608 O 0.41828 0.03048 0.37617 0.0
O2609 O 0.4518 0.07044 0.42295 0.0
Mn2610 Mn 0.41466 0.06351 0.44274 0.0
O2611 O 0.43899 0.99688 0.43099 0.0
O2612 O 0.38434 0.05425 0.41289 0.0
O2613 O 0.48574 0.0591 0.35713 0.0
O2614 O 0.49636 0.02172 0.3183 0.0
O2615 O 0.42249 0.10529 0.4527 0.0
O2616 O 0.42498 0.02957 0.46977 0.0
C2617 C 0.4878 0.96019 0.38763 0.0
C2618 C 0.53833 0.02714 0.40023 0.0
C2619 C 0.38981 0.03863 0.38702 0.0
C2620 C 0.45072 0.09643 0.44127 0.0
C2621 C 0.42207 0.00185 0.45705 0.0
C2622 C 0.49565 0.05182 0.32741 0.0
O2623 O 0.4758 0.98757 0.37703 0.0
O2624 O 0.50565 0.9478 0.36474 0.0
O2625 O 0.97346 0.76112 0.1664 0.0
Mn2626 Mn 0.97349 0.71424 0.1474 0.0
O2627 O 0.99 0.79142 0.12275 0.0
Mn2628 Mn 0.01203 0.75922 0.09966 0.0
O2629 O 0.97236 0.66833 0.12619 0.0
O2630 O 0.9324 0.70187 0.17297 0.0
Mn2631 Mn 0.9393 0.6647 0.19275 0.0
O2632 O 0.00594 0.68903 0.18104 0.0
O2633 O 0.94855 0.63439 0.1629 0.0
O2634 O 0.94377 0.7358 0.10716 0.0
O2635 O 0.98115 0.74642 0.06833 0.0
O2636 O 0.89752 0.67259 0.2027 0.0
O2637 O 0.97323 0.67494 0.21982 0.0
C2638 C 0.0427 0.73775 0.13766 0.0
C2639 C 0.97583 0.7884 0.1503 0.0
C2640 C 0.96422 0.63985 0.13706 0.0
C2641 C 0.90641 0.70081 0.19128 0.0
C2642 C 1.00095 0.6721 0.20709 0.0
C2643 C 0.95105 0.74572 0.07744 0.0
O2644 O 0.01529 0.72581 0.12706 0.0
O2645 O 0.0551 0.75559 0.11476 0.0
O2646 O 0.2418 0.22344 0.91638 0.0
Mn2647 Mn 0.28867 0.22349 0.89738 0.0
O2648 O 0.21149 0.23995 0.87273 0.0
Mn2649 Mn 0.24367 0.262 0.84964 0.0
O2650 O 0.33459 0.22237 0.87618 0.0
O2651 O 0.30106 0.1824 0.92295 0.0
Mn2652 Mn 0.33822 0.18931 0.94274 0.0
O2653 O 0.31387 0.25596 0.931 0.0
O2654 O 0.36853 0.19856 0.91288 0.0
O2655 O 0.26712 0.19375 0.85714 0.0
O2656 O 0.2565 0.23114 0.81831 0.0
O2657 O 0.33034 0.14753 0.95271 0.0
O2658 O 0.3279 0.22326 0.96977 0.0
C2659 C 0.26511 0.29267 0.88765 0.0
C2660 C 0.21452 0.22579 0.90028 0.0
C2661 C 0.36306 0.21421 0.88703 0.0
C2662 C 0.30212 0.15641 0.94127 0.0
C2663 C 0.33081 0.25098 0.95705 0.0
C2664 C 0.2572 0.20103 0.82742 0.0
O2665 O 0.27707 0.26528 0.87705 0.0
O2666 O 0.24727 0.30507 0.86476 0.0
O2667 O 0.77941 0.4918 0.6664 0.0
Mn2668 Mn 0.77938 0.53867 0.64739 0.0
O2669 O 0.76289 0.4615 0.62275 0.0
Mn2670 Mn 0.74084 0.49369 0.59966 0.0
O2671 O 0.78051 0.58458 0.62617 0.0
O2672 O 0.82047 0.55105 0.67296 0.0
Mn2673 Mn 0.81357 0.58821 0.69274 0.0
O2674 O 0.74693 0.56388 0.68103 0.0
O2675 O 0.8043 0.61853 0.66289 0.0
O2676 O 0.8091 0.51712 0.60716 0.0
O2677 O 0.77171 0.5065 0.56833 0.0
O2678 O 0.85535 0.58036 0.70268 0.0
O2679 O 0.77964 0.57797 0.71981 0.0
C2680 C 0.71018 0.51514 0.63767 0.0
C2681 C 0.77706 0.46452 0.6503 0.0
C2682 C 0.78864 0.61306 0.63704 0.0
C2683 C 0.84647 0.55213 0.69126 0.0
C2684 C 0.75192 0.58081 0.70708 0.0
C2685 C 0.80182 0.5072 0.57743 0.0
O2686 O 0.73758 0.52709 0.62706 0.0
O2687 O 0.69778 0.4973 0.61478 0.0
O2688 O 0.33652 0.01106 0.22347 0.0
Mn2689 Mn 0.35552 0.96419 0.22351 0.0
O2690 O 0.38018 0.04137 0.23997 0.0
Mn2691 Mn 0.40326 0.00918 0.26204 0.0
O2692 O 0.37673 0.91827 0.22239 0.0
O2693 O 0.32994 0.95181 0.18243 0.0
Mn2694 Mn 0.31016 0.91464 0.18935 0.0
O2695 O 0.32189 0.93899 0.25598 0.0
O2696 O 0.34002 0.88433 0.19861 0.0
O2697 O 0.39576 0.98574 0.19378 0.0
O2698 O 0.43459 0.99635 0.23117 0.0
O2699 O 0.30022 0.92249 0.14757 0.0
O2700 O 0.2831 0.9249 0.22328 0.0
C2701 C 0.36525 0.98776 0.29271 0.0
C2702 C 0.35262 0.03834 0.22582 0.0
C2703 C 0.36589 0.8898 0.21422 0.0
C2704 C 0.31164 0.95071 0.15643 0.0
C2705 C 0.29583 0.92207 0.251 0.0
C2706 C 0.42548 0.99565 0.20106 0.0
O2707 O 0.37585 0.97578 0.26531 0.0
O2708 O 0.38814 0.0056 0.3051 0.0
O2709 O 0.99182 0.58652 0.97348 0.0
Mn2710 Mn 0.03869 0.60551 0.97351 0.0
O2711 O 0.96152 0.63017 0.98996 0.0
Mn2712 Mn 0.9937 0.65326 0.01202 0.0
O2713 O 0.0846 0.62671 0.97237 0.0
O2714 O 0.05106 0.57991 0.93243 0.0
Mn2715 Mn 0.08821 0.56011 0.93937 0.0
O2716 O 0.06389 0.5719 0.00599 0.0
O2717 O 0.11853 0.58996 0.94862 0.0
O2718 O 0.01714 0.64574 0.94377 0.0
O2719 O 0.00651 0.68458 0.98114 0.0
O2720 O 0.08037 0.55015 0.89759 0.0
O2721 O 0.07788 0.53309 0.97332 0.0
C2722 C 0.01507 0.61531 0.04268 0.0
C2723 C 0.96455 0.60264 0.97576 0.0
C2724 C 0.11307 0.61582 0.96425 0.0
C2725 C 0.05215 0.56159 0.90644 0.0
C2726 C 0.0808 0.54583 1.00103 0.0
C2727 C 0.00721 0.67546 0.95104 0.0
O2728 O 0.02711 0.62587 0.0153 0.0
O2729 O 0.99722 0.63819 0.0551 0.0
O2730 O 0.41638 0.24179 0.72347 0.0
Mn2731 Mn 0.39739 0.28867 0.7235 0.0
O2732 O 0.37274 0.21149 0.73999 0.0
Mn2733 Mn 0.34965 0.24369 0.76204 0.0
O2734 O 0.3762 0.33458 0.72237 0.0
O2735 O 0.42296 0.30104 0.68241 0.0
Mn2736 Mn 0.44275 0.3382 0.68931 0.0
O2737 O 0.43103 0.31386 0.75595 0.0
O2738 O 0.4129 0.36852 0.69856 0.0
O2739 O 0.35715 0.26712 0.69378 0.0
O2740 O 0.31832 0.25651 0.73117 0.0
O2741 O 0.4527 0.33031 0.64753 0.0
O2742 O 0.46982 0.32796 0.72324 0.0
C2743 C 0.38765 0.26515 0.7927 0.0
C2744 C 0.40028 0.21451 0.72583 0.0
C2745 C 0.38704 0.36306 0.7142 0.0
C2746 C 0.44127 0.3021 0.65642 0.0
C2747 C 0.45708 0.33079 0.75097 0.0
C2748 C 0.32742 0.25721 0.70106 0.0
O2749 O 0.37705 0.27709 0.76529 0.0
O2750 O 0.36476 0.24731 0.8051 0.0
O2751 O 0.76109 0.66638 0.47342 0.0
Mn2752 Mn 0.71421 0.64739 0.47349 0.0
O2753 O 0.79139 0.62274 0.48995 0.0
Mn2754 Mn 0.7592 0.59965 0.51201 0.0
O2755 O 0.66828 0.6262 0.47238 0.0
O2756 O 0.70179 0.67294 0.4324 0.0
Mn2757 Mn 0.66465 0.69277 0.4393 0.0
O2758 O 0.68903 0.68103 0.50595 0.0
O2759 O 0.63434 0.66291 0.44856 0.0
O2760 O 0.73575 0.60714 0.44376 0.0
O2761 O 0.74639 0.56832 0.48115 0.0
O2762 O 0.6726 0.70271 0.39752 0.0
O2763 O 0.67494 0.71981 0.47323 0.0
C2764 C 0.73784 0.63761 0.54266 0.0
C2765 C 0.78836 0.65026 0.47573 0.0
C2766 C 0.63981 0.63707 0.46424 0.0
C2767 C 0.70081 0.69128 0.40642 0.0
C2768 C 0.67211 0.70708 0.50096 0.0
C2769 C 0.74568 0.57742 0.45104 0.0
O2770 O 0.7258 0.62705 0.51528 0.0
O2771 O 0.75568 0.61473 0.55509 0.0
O2772 O 0.33652 0.7418 0.52941 0.0
Mn2773 Mn 0.35553 0.78867 0.52936 0.0
O2774 O 0.38017 0.71149 0.5129 0.0
Mn2775 Mn 0.40326 0.74367 0.49084 0.0
O2776 O 0.37674 0.83458 0.53049 0.0
O2777 O 0.32996 0.80106 0.57045 0.0
Mn2778 Mn 0.31017 0.83822 0.56354 0.0
O2779 O 0.32191 0.81389 0.4969 0.0
O2780 O 0.34003 0.86853 0.55429 0.0
O2781 O 0.39576 0.76711 0.55909 0.0
O2782 O 0.43459 0.75649 0.5217 0.0
O2783 O 0.30022 0.83035 0.60532 0.0
O2784 O 0.28314 0.82791 0.5296 0.0
C2785 C 0.36526 0.76511 0.46017 0.0
C2786 C 0.35262 0.71452 0.52706 0.0
C2787 C 0.3659 0.86306 0.53866 0.0
C2788 C 0.31164 0.80213 0.59644 0.0
C2789 C 0.29586 0.83082 0.50188 0.0
C2790 C 0.42549 0.7572 0.55181 0.0
O2791 O 0.37586 0.77708 0.48757 0.0
O2792 O 0.38814 0.74726 0.44777 0.0
O2793 O 0.26108 0.5865 0.27942 0.0
Mn2794 Mn 0.21421 0.6055 0.27937 0.0
O2795 O 0.29138 0.63015 0.26292 0.0
Mn2796 Mn 0.25919 0.65323 0.24085 0.0
O2797 O 0.16829 0.62669 0.2805 0.0
O2798 O 0.20184 0.57993 0.32047 0.0
Mn2799 Mn 0.16468 0.56014 0.31358 0.0
O2800 O 0.18901 0.57184 0.24693 0.0
O2801 O 0.13436 0.58998 0.30431 0.0
O2802 O 0.23575 0.64574 0.3091 0.0
O2803 O 0.24638 0.68457 0.27171 0.0
O2804 O 0.17255 0.5502 0.35536 0.0
O2805 O 0.17491 0.53307 0.27965 0.0
C2806 C 0.23783 0.61527 0.2102 0.0
C2807 C 0.28835 0.60262 0.27712 0.0
C2808 C 0.13982 0.61582 0.28863 0.0
C2809 C 0.20077 0.56162 0.34647 0.0
C2810 C 0.17207 0.5458 0.25192 0.0
C2811 C 0.24567 0.67547 0.30181 0.0
O2812 O 0.22578 0.62583 0.23758 0.0
O2813 O 0.25567 0.63814 0.19777 0.0
O2814 O 0.41636 0.51105 0.02946 0.0
Mn2815 Mn 0.39735 0.46418 0.02938 0.0
O2816 O 0.37271 0.54137 0.01298 0.0
Mn2817 Mn 0.34962 0.5092 0.99089 0.0
O2818 O 0.37615 0.41826 0.03048 0.0
O2819 O 0.42291 0.45173 0.07047 0.0
Mn2820 Mn 0.44273 0.4146 0.06355 0.0
O2821 O 0.43097 0.43899 0.9969 0.0
O2822 O 0.41285 0.38431 0.0543 0.0
O2823 O 0.35712 0.48572 0.05913 0.0
O2824 O 0.31829 0.49636 0.02174 0.0
O2825 O 0.45269 0.42254 0.10533 0.0
O2826 O 0.46973 0.42497 0.0296 0.0
C2827 C 0.38764 0.48782 0.96021 0.0
C2828 C 0.40024 0.53832 0.02718 0.0
C2829 C 0.38699 0.38978 0.03866 0.0
C2830 C 0.44126 0.45075 0.09644 0.0
C2831 C 0.45702 0.42206 0.00188 0.0
C2832 C 0.3274 0.49564 0.05185 0.0
O2833 O 0.37704 0.47581 0.98759 0.0
O2834 O 0.36474 0.50567 0.94783 0.0
O2835 O 0.49181 0.6664 0.77938 0.0
Mn2836 Mn 0.53869 0.64739 0.77937 0.0
O2837 O 0.46152 0.62275 0.76286 0.0
Mn2838 Mn 0.49372 0.59965 0.74083 0.0
O2839 O 0.58461 0.6262 0.78052 0.0
O2840 O 0.55105 0.673 0.82045 0.0
Mn2841 Mn 0.5882 0.69278 0.81352 0.0
O2842 O 0.56389 0.68102 0.7469 0.0
O2843 O 0.61854 0.66295 0.80428 0.0
O2844 O 0.51713 0.60717 0.80911 0.0
O2845 O 0.5065 0.56833 0.77173 0.0
O2846 O 0.58037 0.70274 0.85531 0.0
O2847 O 0.57792 0.71983 0.77959 0.0
C2848 C 0.51513 0.63761 0.71018 0.0
C2849 C 0.46454 0.6503 0.77703 0.0
C2850 C 0.61308 0.63708 0.78864 0.0
C2851 C 0.55214 0.69131 0.84645 0.0
C2852 C 0.58078 0.70709 0.75188 0.0
C2853 C 0.5072 0.57744 0.80183 0.0
O2854 O 0.52713 0.62704 0.73758 0.0
O2855 O 0.49729 0.61473 0.69775 0.0
O2856 O 0.22351 0.83648 0.51106 0.0
Mn2857 Mn 0.22353 0.8555 0.4642 0.0
O2858 O 0.24 0.88013 0.54138 0.0
Mn2859 Mn 0.26204 0.90323 0.50919 0.0
O2860 O 0.22238 0.87671 0.41829 0.0
O2861 O 0.18244 0.82992 0.45182 0.0
Mn2862 Mn 0.18936 0.81012 0.41467 0.0
O2863 O 0.256 0.82189 0.43897 0.0
O2864 O 0.1986 0.83998 0.38435 0.0
O2865 O 0.19379 0.89572 0.48577 0.0
O2866 O 0.23116 0.93456 0.49641 0.0
O2867 O 0.14758 0.80017 0.42253 0.0
O2868 O 0.22331 0.7831 0.42497 0.0
C2869 C 0.2927 0.86528 0.4878 0.0
C2870 C 0.22584 0.85258 0.53834 0.0
C2871 C 0.21426 0.86583 0.38981 0.0
C2872 C 0.15645 0.8116 0.45075 0.0
C2873 C 0.25103 0.79583 0.42205 0.0
C2874 C 0.20106 0.92545 0.4957 0.0
O2875 O 0.26532 0.87585 0.47577 0.0
O2876 O 0.30513 0.88815 0.50565 0.0
O2877 O 0.72346 0.91639 0.74182 0.0
Mn2878 Mn 0.72349 0.8974 0.78869 0.0
O2879 O 0.73998 0.87274 0.71152 0.0
Mn2880 Mn 0.76203 0.84966 0.74372 0.0
O2881 O 0.72236 0.8762 0.8346 0.0
O2882 O 0.6824 0.92297 0.80106 0.0
Mn2883 Mn 0.6893 0.94276 0.83822 0.0
O2884 O 0.75594 0.93105 0.81389 0.0
O2885 O 0.69856 0.91291 0.86854 0.0
O2886 O 0.69377 0.85716 0.76714 0.0
O2887 O 0.73116 0.81833 0.75651 0.0
O2888 O 0.64752 0.9527 0.83035 0.0
O2889 O 0.72322 0.96983 0.82798 0.0
C2890 C 0.79267 0.88763 0.7651 0.0
C2891 C 0.72577 0.90027 0.71455 0.0
C2892 C 0.71423 0.88707 0.86308 0.0
C2893 C 0.6564 0.94127 0.80213 0.0
C2894 C 0.75095 0.9571 0.83082 0.0
C2895 C 0.70105 0.82744 0.75721 0.0
O2896 O 0.76529 0.87706 0.77713 0.0
O2897 O 0.80511 0.86475 0.74726 0.0
O2898 O 0.08648 0.97341 0.49181 0.0
Mn2899 Mn 0.10549 0.97346 0.53869 0.0
O2900 O 0.13012 0.98994 0.4615 0.0
Mn2901 Mn 0.15322 0.01199 0.49369 0.0
O2902 O 0.12668 0.97235 0.5846 0.0
O2903 O 0.07994 0.93237 0.55112 0.0
Mn2904 Mn 0.06012 0.93925 0.58826 0.0
O2905 O 0.07184 0.00591 0.56388 0.0
O2906 O 0.08999 0.94851 0.61855 0.0
O2907 O 0.14573 0.94374 0.51714 0.0
O2908 O 0.18455 0.98113 0.50651 0.0
O2909 O 0.05016 0.89748 0.58026 0.0
O2910 O 0.03307 0.97319 0.57799 0.0
C2911 C 0.11521 0.04266 0.51514 0.0
C2912 C 0.10257 0.97577 0.46453 0.0
C2913 C 0.11582 0.96421 0.61308 0.0
C2914 C 0.06159 0.9064 0.55206 0.0
C2915 C 0.0458 1.00092 0.58082 0.0
C2916 C 0.17546 0.95102 0.50722 0.0
O2917 O 0.12581 0.01525 0.52709 0.0
O2918 O 0.13811 0.05506 0.4973 0.0
O2919 O 0.02939 0.3365 0.24182 0.0
Mn2920 Mn 0.02936 0.3555 0.28869 0.0
O2921 O 0.01286 0.38014 0.21151 0.0
Mn2922 Mn 0.99082 0.40323 0.24371 0.0
O2923 O 0.03049 0.3767 0.33461 0.0
O2924 O 0.07045 0.32991 0.30107 0.0
Mn2925 Mn 0.06354 0.31013 0.33823 0.0
O2926 O 0.9969 0.32187 0.31389 0.0
O2927 O 0.05428 0.33998 0.36855 0.0
O2928 O 0.05909 0.39574 0.26714 0.0
O2929 O 0.0217 0.43456 0.2565 0.0
O2930 O 0.10532 0.30018 0.33037 0.0
O2931 O 0.02961 0.28308 0.32795 0.0
C2932 C 0.96018 0.36527 0.26513 0.0
C2933 C 0.02703 0.35259 0.21454 0.0
C2934 C 0.03861 0.36582 0.36309 0.0
C2935 C 0.09644 0.3116 0.30215 0.0
C2936 C 0.00189 0.29581 0.3308 0.0
C2937 C 0.0518 0.42546 0.25721 0.0
O2938 O 0.98757 0.37584 0.27713 0.0
O2939 O 0.94774 0.38814 0.24729 0.0
O2940 O 0.16642 0.77941 0.9918 0.0
Mn2941 Mn 0.14741 0.77936 0.03868 0.0
O2942 O 0.12277 0.76289 0.96149 0.0
Mn2943 Mn 0.09967 0.74084 0.99368 0.0
O2944 O 0.12622 0.78047 0.0846 0.0
O2945 O 0.17297 0.82044 0.05111 0.0
Mn2946 Mn 0.19278 0.81355 0.08826 0.0
O2947 O 0.18104 0.74689 0.06386 0.0
O2948 O 0.16291 0.80429 0.11856 0.0
O2949 O 0.10717 0.80909 0.01713 0.0
O2950 O 0.06834 0.77171 0.00648 0.0
O2951 O 0.20274 0.85531 0.08029 0.0
O2952 O 0.21982 0.77961 0.07796 0.0
C2953 C 0.13763 0.71018 0.01505 0.0
C2954 C 0.15032 0.77705 0.96452 0.0
C2955 C 0.13706 0.78864 0.11308 0.0
C2956 C 0.19131 0.84641 0.05208 0.0
C2957 C 0.20709 0.75188 0.0808 0.0
C2958 C 0.07745 0.80182 0.0072 0.0
O2959 O 0.12707 0.73757 0.02708 0.0
O2960 O 0.11475 0.69776 0.99721 0.0
O2961 O 0.52948 0.91641 0.51108 0.0
Mn2962 Mn 0.52942 0.8974 0.4642 0.0
O2963 O 0.51296 0.87277 0.54139 0.0
Mn2964 Mn 0.4909 0.84967 0.50921 0.0
O2965 O 0.53052 0.87621 0.41828 0.0
O2966 O 0.57051 0.92294 0.45177 0.0
Mn2967 Mn 0.56363 0.94276 0.41462 0.0
O2968 O 0.49696 0.93104 0.43902 0.0
O2969 O 0.55437 0.91289 0.38433 0.0
O2970 O 0.55915 0.85716 0.48575 0.0
O2971 O 0.52176 0.81834 0.49639 0.0
O2972 O 0.60539 0.95272 0.42261 0.0
O2973 O 0.52968 0.9698 0.4249 0.0
C2974 C 0.46023 0.88767 0.48777 0.0
C2975 C 0.52712 0.90031 0.53836 0.0
C2976 C 0.53866 0.88707 0.3898 0.0
C2977 C 0.59648 0.94129 0.45082 0.0
C2978 C 0.50195 0.95707 0.42207 0.0
C2979 C 0.55187 0.82744 0.49568 0.0
O2980 O 0.48763 0.87707 0.47581 0.0
O2981 O 0.44783 0.86477 0.50561 0.0
O2982 O 0.0865 0.27935 0.76108 0.0
Mn2983 Mn 0.10551 0.27932 0.71421 0.0
O2984 O 0.13016 0.26285 0.79138 0.0
Mn2985 Mn 0.15325 0.2408 0.75919 0.0
O2986 O 0.12671 0.28046 0.6683 0.0
O2987 O 0.07991 0.32041 0.70184 0.0
Mn2988 Mn 0.06012 0.31347 0.66469 0.0
O2989 O 0.07189 0.24685 0.689 0.0
O2990 O 0.08997 0.30422 0.63436 0.0
O2991 O 0.14574 0.30906 0.73576 0.0
O2992 O 0.18457 0.27168 0.74639 0.0
O2993 O 0.05017 0.35526 0.67251 0.0
O2994 O 0.03309 0.27953 0.67502 0.0
C2995 C 0.11529 0.21015 0.73782 0.0
C2996 C 0.10261 0.27701 0.78836 0.0
C2997 C 0.11585 0.28862 0.63982 0.0
C2998 C 0.06161 0.3464 0.70074 0.0
C2999 C 0.04582 0.25182 0.67209 0.0
C3000 C 0.17546 0.30178 0.74568 0.0
O3001 O 0.12585 0.23753 0.72579 0.0
O3002 O 0.13816 0.19772 0.75566 0.0
O3003 O 0.66641 0.97346 0.26106 0.0
Mn3004 Mn 0.6474 0.9735 0.21419 0.0
O3005 O 0.62278 0.98999 0.29138 0.0
Mn3006 Mn 0.59968 0.01203 0.2592 0.0
O3007 O 0.62619 0.97239 0.16828 0.0
O3008 O 0.67295 0.93241 0.20176 0.0
Mn3009 Mn 0.69277 0.93931 0.16462 0.0
O3010 O 0.68102 0.00597 0.18898 0.0
O3011 O 0.66289 0.94856 0.13433 0.0
O3012 O 0.60716 0.94378 0.23575 0.0
O3013 O 0.56834 0.98117 0.24641 0.0
O3014 O 0.70272 0.89754 0.17259 0.0
O3015 O 0.71977 0.97326 0.17495 0.0
C3016 C 0.63763 0.04269 0.2378 0.0
C3017 C 0.65032 0.97582 0.28835 0.0
C3018 C 0.63706 0.96425 0.1398 0.0
C3019 C 0.69129 0.90644 0.2008 0.0
C3020 C 0.70706 1.00098 0.17204 0.0
C3021 C 0.57744 0.95106 0.24569 0.0
O3022 O 0.62706 0.0153 0.22578 0.0
O3023 O 0.61475 0.05512 0.25564 0.0
O3024 O 0.56388 0.74688 0.18098 0.0
Mn3025 Mn 0.53869 0.77936 0.14735 0.0
O3026 O 0.57791 0.77957 0.21979 0.0
Mn3027 Mn 0.5882 0.8135 0.19275 0.0
O3028 O 0.51714 0.8091 0.10712 0.0
O3029 O 0.52711 0.73757 0.127 0.0
Mn3030 Mn 0.49371 0.74085 0.09961 0.0
O3031 O 0.49181 0.77939 0.16634 0.0
O3032 O 0.50651 0.77172 0.06828 0.0
O3033 O 0.58461 0.7805 0.12616 0.0
O3034 O 0.61854 0.80425 0.16291 0.0
O3035 O 0.49722 0.69776 0.11469 0.0
O3036 O 0.46152 0.7629 0.12269 0.0
C3037 C 0.55216 0.84644 0.19127 0.0
C3038 C 0.58077 0.75186 0.20705 0.0
C3039 C 0.50722 0.80183 0.0774 0.0
C3040 C 0.51507 0.71019 0.13757 0.0
C3041 C 0.46455 0.7771 0.15022 0.0
C3042 C 0.61309 0.78862 0.13705 0.0
O3043 O 0.55105 0.82044 0.17296 0.0
O3044 O 0.58039 0.85529 0.2027 0.0
O3045 O 0.7235 0.7418 0.41637 0.0
Mn3046 Mn 0.72353 0.78867 0.39736 0.0
O3047 O 0.73999 0.71148 0.37271 0.0
Mn3048 Mn 0.76204 0.74367 0.34962 0.0
O3049 O 0.7224 0.83458 0.37615 0.0
O3050 O 0.68245 0.80105 0.42295 0.0
Mn3051 Mn 0.68937 0.8382 0.44273 0.0
O3052 O 0.756 0.81388 0.43098 0.0
O3053 O 0.69863 0.86852 0.41289 0.0
O3054 O 0.69379 0.76711 0.35714 0.0
O3055 O 0.73116 0.75649 0.3183 0.0
O3056 O 0.64759 0.83036 0.45268 0.0
O3057 O 0.72331 0.82792 0.46978 0.0
C3058 C 0.79272 0.7651 0.38762 0.0
C3059 C 0.72583 0.71452 0.40027 0.0
C3060 C 0.71428 0.86306 0.38703 0.0
C3061 C 0.65645 0.80214 0.44126 0.0
C3062 C 0.75102 0.83079 0.45704 0.0
C3063 C 0.70106 0.75719 0.32741 0.0
O3064 O 0.76532 0.77707 0.37702 0.0
O3065 O 0.80511 0.74725 0.36473 0.0
O3066 O 0.76109 0.97347 0.66639 0.0
Mn3067 Mn 0.71422 0.9735 0.64739 0.0
O3068 O 0.79139 0.98997 0.62274 0.0
Mn3069 Mn 0.7592 0.01202 0.59965 0.0
O3070 O 0.6683 0.97238 0.62619 0.0
O3071 O 0.70184 0.93242 0.67296 0.0
Mn3072 Mn 0.66468 0.93931 0.69274 0.0
O3073 O 0.68902 0.00596 0.68103 0.0
O3074 O 0.63436 0.94857 0.6629 0.0
O3075 O 0.73577 0.94378 0.60715 0.0
O3076 O 0.7464 0.98116 0.56831 0.0
O3077 O 0.67256 0.89753 0.70269 0.0
O3078 O 0.67491 0.97324 0.71981 0.0
C3079 C 0.73782 0.04268 0.63761 0.0
C3080 C 0.78837 0.97582 0.65029 0.0
C3081 C 0.63983 0.96426 0.63706 0.0
C3082 C 0.70078 0.90642 0.69127 0.0
C3083 C 0.67208 1.00096 0.70708 0.0
C3084 C 0.74569 0.95105 0.57742 0.0
O3085 O 0.72579 0.0153 0.62705 0.0
O3086 O 0.75567 0.05511 0.61473 0.0
O3087 O 0.4969 0.93904 0.93101 0.0
Mn3088 Mn 0.52936 0.96424 0.89738 0.0
O3089 O 0.52961 0.92498 0.9698 0.0
Mn3090 Mn 0.56354 0.91471 0.94274 0.0
O3091 O 0.55909 0.98579 0.85714 0.0
O3092 O 0.48757 0.9758 0.87703 0.0
Mn3093 Mn 0.49083 0.00922 0.84965 0.0
O3094 O 0.52939 0.01111 0.91639 0.0
O3095 O 0.5217 0.99643 0.81831 0.0
O3096 O 0.5305 0.91832 0.87617 0.0
O3097 O 0.55428 0.88439 0.9129 0.0
O3098 O 0.44775 0.00566 0.86473 0.0
O3099 O 0.51288 0.04141 0.87274 0.0
C3100 C 0.59645 0.95077 0.94127 0.0
C3101 C 0.50189 0.92212 0.95707 0.0
C3102 C 0.55181 0.99572 0.82742 0.0
C3103 C 0.46018 0.98782 0.8876 0.0
C3104 C 0.52704 0.03839 0.90029 0.0
C3105 C 0.53862 0.88985 0.88705 0.0
O3106 O 0.57045 0.95187 0.92296 0.0
O3107 O 0.60532 0.92255 0.95269 0.0
O3108 O 0.49181 0.47338 0.08649 0.0
Mn3109 Mn 0.53869 0.47345 0.10549 0.0
O3110 O 0.4615 0.48993 0.13012 0.0
Mn3111 Mn 0.49369 0.51198 0.15322 0.0
O3112 O 0.58461 0.47236 0.12668 0.0
O3113 O 0.55113 0.43236 0.07996 0.0
Mn3114 Mn 0.58827 0.43923 0.06013 0.0
O3115 O 0.56387 0.5059 0.07184 0.0
O3116 O 0.61857 0.4485 0.09 0.0
O3117 O 0.51715 0.44372 0.14574 0.0
O3118 O 0.5065 0.48112 0.18455 0.0
O3119 O 0.58026 0.39747 0.05017 0.0
O3120 O 0.578 0.47317 0.03308 0.0
C3121 C 0.51514 0.54264 0.11521 0.0
C3122 C 0.46453 0.47576 0.10258 0.0
C3123 C 0.61309 0.46421 0.11583 0.0
C3124 C 0.55206 0.40639 0.06161 0.0
C3125 C 0.58082 0.5009 0.0458 0.0
C3126 C 0.50722 0.45101 0.17546 0.0
O3127 O 0.52709 0.51524 0.12581 0.0
O3128 O 0.4973 0.55504 0.1381 0.0
O3129 O 0.02948 0.74181 0.33647 0.0
Mn3130 Mn 0.02944 0.78869 0.35547 0.0
O3131 O 0.01291 0.71151 0.3801 0.0
Mn3132 Mn 0.99089 0.74371 0.40319 0.0
O3133 O 0.03054 0.83461 0.37665 0.0
O3134 O 0.07053 0.80111 0.32992 0.0
Mn3135 Mn 0.06365 0.83826 0.3101 0.0
O3136 O 0.99699 0.81387 0.32182 0.0
O3137 O 0.05439 0.86856 0.33997 0.0
O3138 O 0.05916 0.76714 0.39572 0.0
O3139 O 0.02176 0.75648 0.43453 0.0
O3140 O 0.10542 0.83027 0.30016 0.0
O3141 O 0.02971 0.82798 0.28305 0.0
C3142 C 0.96025 0.76513 0.36524 0.0
C3143 C 0.0271 0.71453 0.35256 0.0
C3144 C 0.03868 0.86309 0.36579 0.0
C3145 C 0.09651 0.80207 0.31159 0.0
C3146 C 0.00198 0.83081 0.29578 0.0
C3147 C 0.05187 0.7572 0.42543 0.0
O3148 O 0.98765 0.77712 0.3758 0.0
O3149 O 0.94781 0.7473 0.38812 0.0
O3150 O 0.68898 0.24691 0.57192 0.0
Mn3151 Mn 0.71419 0.27938 0.60554 0.0
O3152 O 0.67493 0.27962 0.53312 0.0
Mn3153 Mn 0.66466 0.31355 0.56018 0.0
O3154 O 0.73576 0.30911 0.64576 0.0
O3155 O 0.72577 0.23759 0.62588 0.0
Mn3156 Mn 0.75918 0.24085 0.65326 0.0
O3157 O 0.76106 0.2794 0.58652 0.0
O3158 O 0.7464 0.27172 0.6846 0.0
O3159 O 0.66828 0.28052 0.62675 0.0
O3160 O 0.63434 0.3043 0.59002 0.0
O3161 O 0.75563 0.19777 0.63817 0.0
O3162 O 0.79137 0.26289 0.63017 0.0
C3163 C 0.70074 0.34646 0.56163 0.0
C3164 C 0.67207 0.2519 0.54586 0.0
C3165 C 0.74569 0.30183 0.67549 0.0
C3166 C 0.73778 0.2102 0.6153 0.0
C3167 C 0.78834 0.27705 0.60262 0.0
C3168 C 0.6398 0.28864 0.61587 0.0
O3169 O 0.70183 0.32047 0.57995 0.0
O3170 O 0.67251 0.35533 0.55022 0.0
O3171 O 0.25599 0.93899 0.8219 0.0
Mn3172 Mn 0.22351 0.96418 0.85553 0.0
O3173 O 0.2233 0.92494 0.78309 0.0
Mn3174 Mn 0.18936 0.91465 0.81013 0.0
O3175 O 0.19376 0.98572 0.89576 0.0
O3176 O 0.26529 0.97577 0.87587 0.0
Mn3177 Mn 0.262 0.00917 0.90327 0.0
O3178 O 0.22347 0.01105 0.83653 0.0
O3179 O 0.23114 0.99636 0.9346 0.0
O3180 O 0.22238 0.91826 0.87671 0.0
O3181 O 0.19862 0.88432 0.83997 0.0
O3182 O 0.30509 0.00567 0.88818 0.0
O3183 O 0.23994 0.04135 0.88019 0.0
C3184 C 0.15644 0.95071 0.81161 0.0
C3185 C 0.25101 0.92208 0.79583 0.0
C3186 C 0.20104 0.99564 0.92548 0.0
C3187 C 0.29267 0.98782 0.86531 0.0
C3188 C 0.22574 0.03832 0.85265 0.0
C3189 C 0.21427 0.88978 0.86583 0.0
O3190 O 0.18243 0.9518 0.82993 0.0
O3191 O 0.14758 0.92249 0.80017 0.0
O3192 O 0.66637 0.49183 0.27943 0.0
Mn3193 Mn 0.64737 0.5387 0.2794 0.0
O3194 O 0.62273 0.46153 0.26293 0.0
Mn3195 Mn 0.59963 0.49371 0.24088 0.0
O3196 O 0.62617 0.58461 0.28053 0.0
O3197 O 0.67296 0.55107 0.32048 0.0
Mn3198 Mn 0.69274 0.58823 0.31357 0.0
O3199 O 0.681 0.5639 0.24693 0.0
O3200 O 0.66289 0.61855 0.30432 0.0
O3201 O 0.60713 0.51714 0.30913 0.0
O3202 O 0.5683 0.50651 0.27175 0.0
O3203 O 0.7027 0.58036 0.35535 0.0
O3204 O 0.71979 0.57796 0.27964 0.0
C3205 C 0.63759 0.5151 0.21022 0.0
C3206 C 0.65025 0.46456 0.27713 0.0
C3207 C 0.63704 0.61308 0.28866 0.0
C3208 C 0.69128 0.55214 0.34647 0.0
C3209 C 0.70706 0.58082 0.25192 0.0
C3210 C 0.57741 0.50722 0.30185 0.0
O3211 O 0.62702 0.52713 0.23761 0.0
O3212 O 0.61471 0.49725 0.19779 0.0
O3213 O 0.01108 0.91639 0.52937 0.0
Mn3214 Mn 0.96421 0.89738 0.52936 0.0
O3215 O 0.04138 0.87274 0.51285 0.0
Mn3216 Mn 0.00918 0.84965 0.49082 0.0
O3217 O 0.91829 0.87618 0.53051 0.0
O3218 O 0.95185 0.92298 0.57044 0.0
Mn3219 Mn 0.91469 0.94276 0.56351 0.0
O3220 O 0.939 0.93101 0.49689 0.0
O3221 O 0.88436 0.91293 0.55426 0.0
O3222 O 0.98577 0.85716 0.55909 0.0
O3223 O 0.9964 0.81832 0.5217 0.0
O3224 O 0.92252 0.95271 0.6053 0.0
O3225 O 0.92497 0.96982 0.52959 0.0
C3226 C 0.98778 0.8876 0.46017 0.0
C3227 C 0.03836 0.90029 0.52702 0.0
C3228 C 0.88982 0.88706 0.53862 0.0
C3229 C 0.95074 0.94128 0.59644 0.0
C3230 C 0.92211 0.95708 0.50187 0.0
C3231 C 0.9957 0.82743 0.55181 0.0
O3232 O 0.97577 0.87704 0.48756 0.0
O3233 O 0.00562 0.86473 0.44774 0.0
O3234 O 0.57182 0.18901 0.74698 0.0
Mn3235 Mn 0.60547 0.2142 0.77943 0.0
O3236 O 0.53306 0.1749 0.77971 0.0
Mn3237 Mn 0.56012 0.16462 0.81364 0.0
O3238 O 0.64572 0.23575 0.80915 0.0
O3239 O 0.6258 0.22578 0.73764 0.0
Mn3240 Mn 0.65319 0.25919 0.74089 0.0
O3241 O 0.58646 0.26108 0.77948 0.0
O3242 O 0.68453 0.2464 0.77175 0.0
O3243 O 0.62667 0.16828 0.78053 0.0
O3244 O 0.58999 0.13432 0.80437 0.0
O3245 O 0.63811 0.25561 0.6978 0.0
O3246 O 0.6301 0.29139 0.76292 0.0
C3247 C 0.56159 0.20081 0.8465 0.0
C3248 C 0.54578 0.17207 0.75198 0.0
C3249 C 0.67543 0.24569 0.80186 0.0
C3250 C 0.61524 0.23778 0.71024 0.0
C3251 C 0.60255 0.28836 0.7771 0.0
C3252 C 0.61581 0.1398 0.78867 0.0
O3253 O 0.57993 0.20177 0.82052 0.0
O3254 O 0.55016 0.1726 0.85541 0.0
O3255 O 0.3139 0.82184 0.99691 0.0
Mn3256 Mn 0.28869 0.85547 0.02937 0.0
O3257 O 0.32799 0.78305 0.02962 0.0
Mn3258 Mn 0.33823 0.81012 0.06355 0.0
O3259 O 0.26713 0.89571 0.05909 0.0
O3260 O 0.27712 0.87581 0.98757 0.0
Mn3261 Mn 0.2437 0.9032 0.99084 0.0
O3262 O 0.24183 0.83646 0.02939 0.0
O3263 O 0.25649 0.93454 0.02171 0.0
O3264 O 0.33461 0.87669 0.0305 0.0
O3265 O 0.36855 0.83997 0.05429 0.0
O3266 O 0.24724 0.88812 0.94776 0.0
O3267 O 0.21152 0.88011 0.01289 0.0
C3268 C 0.30215 0.81159 0.09645 0.0
C3269 C 0.33083 0.79579 0.0019 0.0
C3270 C 0.2572 0.92543 0.05181 0.0
C3271 C 0.26509 0.86525 0.96019 0.0
C3272 C 0.21455 0.85256 0.02705 0.0
C3273 C 0.36308 0.86582 0.03863 0.0
O3274 O 0.30107 0.8299 0.07045 0.0
O3275 O 0.33037 0.80017 0.10533 0.0
O3276 O 0.6664 0.76109 0.97348 0.0
Mn3277 Mn 0.64738 0.71422 0.97351 0.0
O3278 O 0.62275 0.7914 0.99 0.0
Mn3279 Mn 0.59966 0.75921 0.01204 0.0
O3280 O 0.62618 0.66831 0.97238 0.0
O3281 O 0.67296 0.70185 0.93242 0.0
Mn3282 Mn 0.69275 0.6647 0.93933 0.0
O3283 O 0.68101 0.689 0.00597 0.0
O3284 O 0.6629 0.63438 0.94858 0.0
O3285 O 0.60715 0.73579 0.94379 0.0
O3286 O 0.56832 0.74642 0.98117 0.0
O3287 O 0.70271 0.67257 0.89755 0.0
O3288 O 0.71978 0.67499 0.97327 0.0
C3289 C 0.63762 0.73782 0.04269 0.0
C3290 C 0.6503 0.78837 0.97583 0.0
C3291 C 0.63706 0.63983 0.96425 0.0
C3292 C 0.69128 0.70078 0.90643 0.0
C3293 C 0.70706 0.67208 1.00099 0.0
C3294 C 0.57743 0.74572 0.95107 0.0
O3295 O 0.62705 0.7258 0.01531 0.0
O3296 O 0.61475 0.75566 0.05513 0.0
O3297 O 0.74182 0.91641 0.22346 0.0
Mn3298 Mn 0.78869 0.89741 0.2235 0.0
O3299 O 0.71152 0.87276 0.23998 0.0
Mn3300 Mn 0.74371 0.84967 0.26203 0.0
O3301 O 0.83462 0.87623 0.22238 0.0
O3302 O 0.80111 0.92298 0.18242 0.0
Mn3303 Mn 0.83825 0.9428 0.18933 0.0
O3304 O 0.81387 0.93105 0.25597 0.0
O3305 O 0.86856 0.91294 0.19859 0.0
O3306 O 0.76715 0.85717 0.19377 0.0
O3307 O 0.75651 0.81834 0.23116 0.0
O3308 O 0.83031 0.95275 0.14756 0.0
O3309 O 0.82795 0.96984 0.22327 0.0
C3310 C 0.76509 0.88763 0.29268 0.0
C3311 C 0.71454 0.90031 0.22582 0.0
C3312 C 0.86309 0.8871 0.21426 0.0
C3313 C 0.8021 0.94132 0.15644 0.0
C3314 C 0.83078 0.95711 0.25099 0.0
C3315 C 0.75723 0.82745 0.20105 0.0
O3316 O 0.77711 0.87707 0.26529 0.0
O3317 O 0.74726 0.86475 0.30511 0.0
O3318 O 0.57184 0.06387 0.50596 0.0
Mn3319 Mn 0.60549 0.03869 0.47351 0.0
O3320 O 0.53304 0.07795 0.47326 0.0
Mn3321 Mn 0.56011 0.08821 0.43933 0.0
O3322 O 0.64573 0.01713 0.44378 0.0
O3323 O 0.62583 0.02713 0.5153 0.0
Mn3324 Mn 0.65323 0.99372 0.51205 0.0
O3325 O 0.58649 0.99181 0.47348 0.0
O3326 O 0.68456 0.0065 0.48117 0.0
O3327 O 0.62668 0.08461 0.47237 0.0
O3328 O 0.58994 0.11854 0.44859 0.0
O3329 O 0.63815 0.99729 0.55513 0.0
O3330 O 0.63014 0.96152 0.49002 0.0
C3331 C 0.5616 0.05213 0.40642 0.0
C3332 C 0.54578 0.08079 0.50098 0.0
C3333 C 0.67545 0.0072 0.45106 0.0
C3334 C 0.61527 0.01512 0.54269 0.0
C3335 C 0.60259 0.96454 0.47584 0.0
C3336 C 0.61579 0.11309 0.46425 0.0
O3337 O 0.5799 0.05105 0.43242 0.0
O3338 O 0.55017 0.08035 0.39755 0.0
O3339 O 0.5111 0.8365 0.72348 0.0
Mn3340 Mn 0.46422 0.8555 0.7235 0.0
O3341 O 0.54139 0.88015 0.74001 0.0
Mn3342 Mn 0.50919 0.90324 0.76204 0.0
O3343 O 0.4183 0.87669 0.72236 0.0
O3344 O 0.45186 0.8299 0.68241 0.0
Mn3345 Mn 0.4147 0.81012 0.68933 0.0
O3346 O 0.43903 0.82185 0.75595 0.0
O3347 O 0.38437 0.83996 0.69859 0.0
O3348 O 0.48578 0.89573 0.69378 0.0
O3349 O 0.4964 0.93457 0.73117 0.0
O3350 O 0.42255 0.80018 0.64754 0.0
O3351 O 0.42495 0.78305 0.72325 0.0
C3352 C 0.48778 0.86528 0.79269 0.0
C3353 C 0.53837 0.8526 0.72584 0.0
C3354 C 0.38983 0.86582 0.71424 0.0
C3355 C 0.45077 0.8116 0.65641 0.0
C3356 C 0.42212 0.79579 0.75097 0.0
C3357 C 0.4957 0.92546 0.70106 0.0
O3358 O 0.47578 0.87584 0.76529 0.0
O3359 O 0.50562 0.88816 0.80513 0.0
O3360 O 0.77941 0.6664 0.99181 0.0
Mn3361 Mn 0.77938 0.64739 0.03868 0.0
O3362 O 0.76292 0.62275 0.9615 0.0
Mn3363 Mn 0.74087 0.59965 0.99369 0.0
O3364 O 0.78051 0.62619 0.0846 0.0
O3365 O 0.82046 0.67298 0.05106 0.0
Mn3366 Mn 0.81355 0.69276 0.08822 0.0
O3367 O 0.74691 0.68101 0.06389 0.0
O3368 O 0.80429 0.66292 0.11854 0.0
O3369 O 0.80912 0.60716 0.01713 0.0
O3370 O 0.77174 0.56832 0.00649 0.0
O3371 O 0.85533 0.70272 0.08037 0.0
O3372 O 0.77961 0.71981 0.07794 0.0
C3373 C 0.71021 0.63762 0.01507 0.0
C3374 C 0.77707 0.6503 0.96454 0.0
C3375 C 0.78863 0.63707 0.11308 0.0
C3376 C 0.84646 0.69129 0.05215 0.0
C3377 C 0.75189 0.70707 0.0808 0.0
C3378 C 0.80184 0.57743 0.0072 0.0
O3379 O 0.73759 0.62705 0.0271 0.0
O3380 O 0.69779 0.61474 0.99723 0.0
O3381 O 0.27944 0.58646 0.76107 0.0
Mn3382 Mn 0.2794 0.60548 0.71421 0.0
O3383 O 0.26295 0.63011 0.7914 0.0
Mn3384 Mn 0.24089 0.65321 0.75922 0.0
O3385 O 0.28052 0.62669 0.66829 0.0
O3386 O 0.32048 0.57991 0.70178 0.0
Mn3387 Mn 0.31357 0.5601 0.66464 0.0
O3388 O 0.24693 0.57185 0.68902 0.0
O3389 O 0.30431 0.58997 0.63434 0.0
O3390 O 0.30914 0.64571 0.73576 0.0
O3391 O 0.27176 0.68454 0.74642 0.0
O3392 O 0.35534 0.55014 0.67259 0.0
O3393 O 0.27963 0.53306 0.67493 0.0
C3394 C 0.21023 0.61526 0.73784 0.0
C3395 C 0.2771 0.60255 0.78836 0.0
C3396 C 0.28865 0.61582 0.63981 0.0
C3397 C 0.34645 0.56156 0.7008 0.0
C3398 C 0.2519 0.5458 0.6721 0.0
C3399 C 0.30186 0.67543 0.7457 0.0
O3400 O 0.23761 0.62582 0.72581 0.0
O3401 O 0.19781 0.63813 0.75569 0.0
O3402 O 0.9164 0.52943 0.01108 0.0
Mn3403 Mn 0.89739 0.5294 0.9642 0.0
O3404 O 0.87275 0.51291 0.04138 0.0
Mn3405 Mn 0.84966 0.49087 0.00919 0.0
O3406 O 0.87619 0.53053 0.91828 0.0
O3407 O 0.92297 0.57048 0.95182 0.0
Mn3408 Mn 0.94276 0.56357 0.91466 0.0
O3409 O 0.93103 0.49694 0.93901 0.0
O3410 O 0.91291 0.55432 0.88434 0.0
O3411 O 0.85715 0.55913 0.98575 0.0
O3412 O 0.81833 0.52174 0.99639 0.0
O3413 O 0.95272 0.60535 0.92254 0.0
O3414 O 0.96982 0.52964 0.92492 0.0
C3415 C 0.88762 0.46022 0.98778 0.0
C3416 C 0.9003 0.52708 0.03836 0.0
C3417 C 0.88706 0.53865 0.8898 0.0
C3418 C 0.94129 0.59647 0.95076 0.0
C3419 C 0.95709 0.50192 0.92209 0.0
C3420 C 0.82743 0.55185 0.99568 0.0
O3421 O 0.87705 0.48761 0.97577 0.0
O3422 O 0.86474 0.44779 0.00562 0.0
O3423 O 0.97347 0.1664 0.26111 0.0
Mn3424 Mn 0.9735 0.1474 0.21423 0.0
O3425 O 0.99 0.12275 0.29141 0.0
Mn3426 Mn 0.01203 0.09966 0.25921 0.0
O3427 O 0.97236 0.1262 0.16832 0.0
O3428 O 0.93241 0.17299 0.20187 0.0
Mn3429 Mn 0.93933 0.19277 0.16471 0.0
O3430 O 0.00596 0.18104 0.18904 0.0
O3431 O 0.94859 0.16293 0.13438 0.0
O3432 O 0.94377 0.10717 0.23579 0.0
O3433 O 0.98115 0.06833 0.24642 0.0
O3434 O 0.89755 0.20272 0.17256 0.0
O3435 O 0.97326 0.21984 0.17497 0.0
C3436 C 0.04268 0.13761 0.23781 0.0
C3437 C 0.97583 0.1503 0.28839 0.0
C3438 C 0.96424 0.13707 0.13984 0.0
C3439 C 0.90641 0.19129 0.20078 0.0
C3440 C 1.00098 0.2071 0.17213 0.0
C3441 C 0.95104 0.07745 0.24572 0.0
O3442 O 0.01529 0.12705 0.2258 0.0
O3443 O 0.05511 0.11473 0.25564 0.0
O3444 O 0.82191 0.75597 0.43899 0.0
Mn3445 Mn 0.85554 0.72351 0.46421 0.0
O3446 O 0.78313 0.72325 0.42492 0.0
Mn3447 Mn 0.81019 0.68932 0.41467 0.0
O3448 O 0.89578 0.69379 0.48576 0.0
O3449 O 0.87588 0.76531 0.47578 0.0
Mn3450 Mn 0.90326 0.76204 0.5092 0.0
O3451 O 0.83653 0.72348 0.51108 0.0
O3452 O 0.9346 0.73118 0.4964 0.0
O3453 O 0.87675 0.72238 0.41829 0.0
O3454 O 0.84004 0.69858 0.38435 0.0
O3455 O 0.88818 0.80512 0.50566 0.0
O3456 O 0.88017 0.73999 0.54139 0.0
C3457 C 0.81165 0.65643 0.45075 0.0
C3458 C 0.79586 0.75098 0.42207 0.0
C3459 C 0.9255 0.70107 0.49569 0.0
C3460 C 0.86531 0.79269 0.48781 0.0
C3461 C 0.85262 0.72582 0.53836 0.0
C3462 C 0.86588 0.71426 0.38981 0.0
O3463 O 0.82996 0.68242 0.45183 0.0
O3464 O 0.80023 0.64754 0.42253 0.0
O3465 O 0.47351 0.58651 0.9918 0.0
Mn3466 Mn 0.47353 0.6055 0.03867 0.0
O3467 O 0.49002 0.63016 0.96151 0.0
Mn3468 Mn 0.51207 0.65324 0.99371 0.0
O3469 O 0.47239 0.62669 0.08458 0.0
O3470 O 0.43245 0.5799 0.05103 0.0
Mn3471 Mn 0.43938 0.56012 0.08819 0.0
O3472 O 0.506 0.57186 0.06387 0.0
O3473 O 0.44864 0.58995 0.11852 0.0
O3474 O 0.44381 0.64573 0.01712 0.0
O3475 O 0.48119 0.68457 0.00651 0.0
O3476 O 0.39759 0.55018 0.08038 0.0
O3477 O 0.4733 0.53306 0.07791 0.0
C3478 C 0.54271 0.61528 0.01509 0.0
C3479 C 0.4758 0.60264 0.96453 0.0
C3480 C 0.46428 0.61581 0.11306 0.0
C3481 C 0.40644 0.5616 0.05215 0.0
C3482 C 0.50102 0.54579 0.08077 0.0
C3483 C 0.45109 0.67546 0.00721 0.0
O3484 O 0.51532 0.62585 0.02711 0.0
O3485 O 0.55515 0.63816 0.99726 0.0
O3486 O 0.91634 0.22348 0.74182 0.0
Mn3487 Mn 0.89735 0.22352 0.78869 0.0
O3488 O 0.87269 0.23998 0.71152 0.0
Mn3489 Mn 0.84961 0.26204 0.74371 0.0
O3490 O 0.87615 0.22239 0.8346 0.0
O3491 O 0.92295 0.18243 0.80105 0.0
Mn3492 Mn 0.94272 0.18936 0.83821 0.0
O3493 O 0.93098 0.25598 0.81388 0.0
O3494 O 0.91288 0.19863 0.86854 0.0
O3495 O 0.85711 0.19379 0.76713 0.0
O3496 O 0.81828 0.23117 0.7565 0.0
O3497 O 0.95267 0.14758 0.83039 0.0
O3498 O 0.96978 0.22328 0.82792 0.0
C3499 C 0.88758 0.29269 0.76507 0.0
C3500 C 0.90022 0.22578 0.71455 0.0
C3501 C 0.88703 0.21428 0.86308 0.0
C3502 C 0.94125 0.15643 0.80216 0.0
C3503 C 0.95705 0.251 0.83078 0.0
C3504 C 0.82739 0.20106 0.75721 0.0
O3505 O 0.87701 0.26531 0.77711 0.0
O3506 O 0.8647 0.30512 0.74723 0.0
O3507 O 0.32188 0.4969 0.31386 0.0
Mn3508 Mn 0.35551 0.52936 0.28866 0.0
O3509 O 0.28308 0.52961 0.32795 0.0
Mn3510 Mn 0.31015 0.56354 0.33819 0.0
O3511 O 0.39575 0.55909 0.2671 0.0
O3512 O 0.37586 0.48756 0.27709 0.0
Mn3513 Mn 0.40325 0.49083 0.24368 0.0
O3514 O 0.33651 0.52938 0.24179 0.0
O3515 O 0.43458 0.52171 0.25646 0.0
O3516 O 0.37671 0.53049 0.33458 0.0
O3517 O 0.33999 0.55428 0.36852 0.0
O3518 O 0.38817 0.44775 0.24721 0.0
O3519 O 0.38016 0.51287 0.21148 0.0
C3520 C 0.31162 0.59644 0.30211 0.0
C3521 C 0.29582 0.50189 0.33079 0.0
C3522 C 0.42547 0.55181 0.25717 0.0
C3523 C 0.3653 0.46017 0.26506 0.0
C3524 C 0.3526 0.52703 0.21451 0.0
C3525 C 0.36584 0.53862 0.36306 0.0
O3526 O 0.32993 0.57044 0.30103 0.0
O3527 O 0.3002 0.60532 0.33033 0.0
O3528 O 0.51107 0.2235 0.83653 0.0
Mn3529 Mn 0.4642 0.22353 0.85554 0.0
O3530 O 0.54137 0.24 0.88019 0.0
Mn3531 Mn 0.50918 0.26204 0.90328 0.0
O3532 O 0.41828 0.22238 0.87674 0.0
O3533 O 0.45183 0.18245 0.82994 0.0
Mn3534 Mn 0.41468 0.18938 0.81015 0.0
O3535 O 0.43899 0.256 0.82192 0.0
O3536 O 0.38435 0.19863 0.83999 0.0
O3537 O 0.48575 0.19379 0.89576 0.0
O3538 O 0.49639 0.23117 0.93461 0.0
O3539 O 0.4225 0.1476 0.8002 0.0
O3540 O 0.42496 0.22332 0.78311 0.0
C3541 C 0.48781 0.2927 0.86532 0.0
C3542 C 0.53835 0.22584 0.85264 0.0
C3543 C 0.3898 0.21427 0.86585 0.0
C3544 C 0.45072 0.15645 0.81163 0.0
C3545 C 0.4221 0.25103 0.79585 0.0
C3546 C 0.49568 0.20106 0.92549 0.0
O3547 O 0.47577 0.26532 0.87589 0.0
O3548 O 0.50566 0.30513 0.8882 0.0
O3549 O 0.27939 0.26108 0.58652 0.0
Mn3550 Mn 0.27936 0.21421 0.60553 0.0
O3551 O 0.2629 0.29139 0.63018 0.0
Mn3552 Mn 0.24085 0.25921 0.65327 0.0
O3553 O 0.28049 0.16829 0.62673 0.0
O3554 O 0.32044 0.20183 0.57994 0.0
Mn3555 Mn 0.31352 0.16467 0.56015 0.0
O3556 O 0.24688 0.18901 0.57191 0.0
O3557 O 0.30426 0.13436 0.59 0.0
O3558 O 0.3091 0.23576 0.64575 0.0
O3559 O 0.27172 0.24638 0.68459 0.0
O3560 O 0.3553 0.17252 0.5502 0.0
O3561 O 0.27958 0.17496 0.53311 0.0
C3562 C 0.21017 0.23778 0.61526 0.0
C3563 C 0.27706 0.28836 0.60262 0.0
C3564 C 0.28861 0.13982 0.61585 0.0
C3565 C 0.34643 0.20074 0.56163 0.0
C3566 C 0.25186 0.1721 0.54584 0.0
C3567 C 0.30182 0.24568 0.67548 0.0
O3568 O 0.23756 0.22581 0.62587 0.0
O3569 O 0.19778 0.25563 0.63815 0.0
O3570 O 0.24181 0.0294 0.33651 0.0
Mn3571 Mn 0.28868 0.02936 0.35552 0.0
O3572 O 0.21149 0.0129 0.38016 0.0
Mn3573 Mn 0.24368 0.99085 0.40325 0.0
O3574 O 0.33459 0.03049 0.37672 0.0
O3575 O 0.30106 0.07045 0.32994 0.0
Mn3576 Mn 0.33821 0.06354 0.31015 0.0
O3577 O 0.31388 0.9969 0.32189 0.0
O3578 O 0.36853 0.05429 0.34 0.0
O3579 O 0.26712 0.0591 0.39575 0.0
O3580 O 0.25648 0.02172 0.43459 0.0
O3581 O 0.33034 0.10532 0.3002 0.0
O3582 O 0.32795 0.0296 0.28311 0.0
C3583 C 0.26507 0.96019 0.36529 0.0
C3584 C 0.21453 0.02705 0.3526 0.0
C3585 C 0.36307 0.03862 0.36584 0.0
C3586 C 0.30212 0.09644 0.31162 0.0
C3587 C 0.3308 0.00188 0.29584 0.0
C3588 C 0.25719 0.05182 0.42548 0.0
O3589 O 0.27709 0.98757 0.37586 0.0
O3590 O 0.24722 0.94777 0.38816 0.0
O3591 O 0.47348 0.99178 0.08651 0.0
Mn3592 Mn 0.47351 0.03866 0.10552 0.0
O3593 O 0.49 0.96148 0.13015 0.0
Mn3594 Mn 0.51204 0.99368 0.15324 0.0
O3595 O 0.47238 0.08457 0.12671 0.0
O3596 O 0.43242 0.05103 0.07993 0.0
Mn3597 Mn 0.43933 0.08818 0.06015 0.0
O3598 O 0.50597 0.06385 0.07188 0.0
O3599 O 0.44859 0.11851 0.08999 0.0
O3600 O 0.44378 0.0171 0.14575 0.0
O3601 O 0.48117 0.00647 0.18458 0.0
O3602 O 0.39755 0.08034 0.05021 0.0
O3603 O 0.47326 0.07791 0.03309 0.0
C3604 C 0.54269 0.01508 0.11529 0.0
C3605 C 0.47583 0.96451 0.1026 0.0
C3606 C 0.46425 0.11305 0.11583 0.0
C3607 C 0.40642 0.05211 0.06162 0.0
C3608 C 0.50098 0.08077 0.04582 0.0
C3609 C 0.45107 0.00718 0.17548 0.0
O3610 O 0.5153 0.02709 0.12585 0.0
O3611 O 0.55512 0.99723 0.13816 0.0
O3612 O 0.51109 0.52947 0.9164 0.0
Mn3613 Mn 0.46421 0.52942 0.8974 0.0
O3614 O 0.5414 0.51293 0.87275 0.0
Mn3615 Mn 0.5092 0.49089 0.84966 0.0
O3616 O 0.4183 0.53053 0.87621 0.0
O3617 O 0.45182 0.57051 0.92295 0.0
Mn3618 Mn 0.41466 0.56364 0.94275 0.0
O3619 O 0.43902 0.49698 0.93106 0.0
O3620 O 0.38435 0.55437 0.91289 0.0
O3621 O 0.48576 0.55914 0.85715 0.0
O3622 O 0.49639 0.52175 0.81833 0.0
O3623 O 0.42259 0.60541 0.9527 0.0
O3624 O 0.42489 0.52971 0.96982 0.0
C3625 C 0.48774 0.46023 0.88767 0.0
C3626 C 0.53837 0.5271 0.9003 0.0
C3627 C 0.38982 0.53866 0.88707 0.0
C3628 C 0.4508 0.5965 0.94127 0.0
C3629 C 0.42207 0.50198 0.9571 0.0
C3630 C 0.49568 0.55186 0.82743 0.0
O3631 O 0.4758 0.48763 0.87707 0.0
O3632 O 0.50559 0.44782 0.86478 0.0
O3633 O 0.97344 0.26108 0.66641 0.0
Mn3634 Mn 0.97346 0.2142 0.64741 0.0
O3635 O 0.98999 0.29138 0.62278 0.0
Mn3636 Mn 0.01201 0.25917 0.59968 0.0
O3637 O 0.97233 0.16829 0.62622 0.0
O3638 O 0.93237 0.20183 0.67298 0.0
Mn3639 Mn 0.93926 0.16467 0.69277 0.0
O3640 O 0.00591 0.18901 0.68106 0.0
O3641 O 0.94852 0.13435 0.66292 0.0
O3642 O 0.94374 0.23576 0.60717 0.0
O3643 O 0.98113 0.2464 0.56834 0.0
O3644 O 0.89748 0.17256 0.70272 0.0
O3645 O 0.9732 0.1749 0.71984 0.0
C3646 C 0.04265 0.23775 0.63763 0.0
C3647 C 0.97581 0.28836 0.65032 0.0
C3648 C 0.96421 0.13981 0.63709 0.0
C3649 C 0.90638 0.20078 0.69129 0.0
C3650 C 1.00092 0.17207 0.70711 0.0
C3651 C 0.95102 0.2457 0.57745 0.0
O3652 O 0.01526 0.22576 0.62707 0.0
O3653 O 0.05509 0.25558 0.61476 0.0
O3654 O 0.24182 0.72348 0.41636 0.0
Mn3655 Mn 0.28869 0.7235 0.39735 0.0
O3656 O 0.21151 0.73999 0.37272 0.0
Mn3657 Mn 0.24371 0.76203 0.34962 0.0
O3658 O 0.33461 0.72237 0.37615 0.0
O3659 O 0.30106 0.68242 0.42294 0.0
Mn3660 Mn 0.33822 0.68933 0.44272 0.0
O3661 O 0.3139 0.75597 0.43098 0.0
O3662 O 0.36855 0.69858 0.41287 0.0
O3663 O 0.26713 0.69378 0.35712 0.0
O3664 O 0.25649 0.73116 0.31829 0.0
O3665 O 0.33037 0.64755 0.45267 0.0
O3666 O 0.32796 0.72326 0.46977 0.0
C3667 C 0.2651 0.79268 0.38759 0.0
C3668 C 0.21454 0.72582 0.40027 0.0
C3669 C 0.36309 0.71424 0.38702 0.0
C3670 C 0.30215 0.65642 0.44125 0.0
C3671 C 0.33081 0.75098 0.45703 0.0
C3672 C 0.2572 0.70106 0.3274 0.0
O3673 O 0.27712 0.7653 0.37701 0.0
O3674 O 0.24726 0.80511 0.36472 0.0
O3675 O 0.7794 0.99183 0.16638 0.0
Mn3676 Mn 0.77937 0.0387 0.14737 0.0
O3677 O 0.76293 0.96152 0.12272 0.0
Mn3678 Mn 0.74087 0.9937 0.09963 0.0
O3679 O 0.7805 0.08462 0.12617 0.0
O3680 O 0.82045 0.05108 0.17297 0.0
Mn3681 Mn 0.81352 0.08823 0.19275 0.0
O3682 O 0.74689 0.0639 0.18098 0.0
O3683 O 0.80426 0.11855 0.16291 0.0
O3684 O 0.80911 0.01715 0.10714 0.0
O3685 O 0.77174 0.00651 0.0683 0.0
O3686 O 0.8553 0.08039 0.20271 0.0
O3687 O 0.77958 0.07794 0.21979 0.0
C3688 C 0.7102 0.01507 0.13758 0.0
C3689 C 0.77707 0.96455 0.15028 0.0
C3690 C 0.78861 0.11309 0.13705 0.0
C3691 C 0.84644 0.05217 0.19128 0.0
C3692 C 0.75187 0.08081 0.20705 0.0
C3693 C 0.80184 0.00723 0.07741 0.0
O3694 O 0.73758 0.02711 0.12702 0.0
O3695 O 0.69779 0.99722 0.11471 0.0
O3696 O 0.3365 0.51104 0.72348 0.0
Mn3697 Mn 0.35552 0.46417 0.7235 0.0
O3698 O 0.38015 0.54136 0.73998 0.0
Mn3699 Mn 0.40325 0.50917 0.76202 0.0
O3700 O 0.37673 0.41826 0.72235 0.0
O3701 O 0.32993 0.4518 0.68242 0.0
Mn3702 Mn 0.31015 0.41464 0.68932 0.0
O3703 O 0.3219 0.43896 0.75596 0.0
O3704 O 0.34 0.38433 0.69857 0.0
O3705 O 0.39575 0.48574 0.69377 0.0
O3706 O 0.43458 0.49638 0.73115 0.0
O3707 O 0.30019 0.42252 0.64754 0.0
O3708 O 0.28311 0.4249 0.72326 0.0
C3709 C 0.36531 0.48776 0.79268 0.0
C3710 C 0.3526 0.53832 0.72582 0.0
C3711 C 0.36586 0.38979 0.71423 0.0
C3712 C 0.31161 0.45073 0.65643 0.0
C3713 C 0.29584 0.42204 0.75098 0.0
C3714 C 0.42547 0.49567 0.70104 0.0
O3715 O 0.37587 0.47575 0.76529 0.0
O3716 O 0.38818 0.50561 0.80511 0.0
O3717 O 0.9918 0.0865 0.47351 0.0
Mn3718 Mn 0.03867 0.1055 0.47353 0.0
O3719 O 0.9615 0.13015 0.49003 0.0
Mn3720 Mn 0.9937 0.15324 0.51207 0.0
O3721 O 0.08459 0.1267 0.47239 0.0
O3722 O 0.05104 0.07991 0.43245 0.0
Mn3723 Mn 0.08819 0.06012 0.43937 0.0
O3724 O 0.06387 0.07188 0.506 0.0
O3725 O 0.11852 0.08996 0.44863 0.0
O3726 O 0.01712 0.14573 0.4438 0.0
O3727 O 0.00649 0.18457 0.48118 0.0
O3728 O 0.08036 0.05017 0.39759 0.0
O3729 O 0.07791 0.03307 0.4733 0.0
C3730 C 0.01509 0.11529 0.54272 0.0
C3731 C 0.96452 0.1026 0.47586 0.0
C3732 C 0.11306 0.11582 0.46427 0.0
C3733 C 0.05214 0.0616 0.40645 0.0
C3734 C 0.08077 0.04581 0.50102 0.0
C3735 C 0.00719 0.17546 0.45108 0.0
O3736 O 0.02711 0.12585 0.51533 0.0
O3737 O 0.99725 0.13816 0.55515 0.0
O3738 O 0.41641 0.74179 0.22344 0.0
Mn3739 Mn 0.39741 0.78867 0.22347 0.0
O3740 O 0.37277 0.71149 0.23999 0.0
Mn3741 Mn 0.34968 0.74369 0.26202 0.0
O3742 O 0.37621 0.83459 0.22235 0.0
O3743 O 0.42298 0.80104 0.18238 0.0
Mn3744 Mn 0.44276 0.83821 0.18927 0.0
O3745 O 0.43106 0.81387 0.25592 0.0
O3746 O 0.41291 0.86853 0.19853 0.0
O3747 O 0.35716 0.76711 0.19376 0.0
O3748 O 0.31834 0.75647 0.23115 0.0
O3749 O 0.45271 0.83032 0.14749 0.0
O3750 O 0.46983 0.82798 0.2232 0.0
C3751 C 0.38763 0.76511 0.29266 0.0
C3752 C 0.40031 0.71451 0.22581 0.0
C3753 C 0.38708 0.86307 0.21422 0.0
C3754 C 0.44128 0.8021 0.15638 0.0
C3755 C 0.4571 0.8308 0.25093 0.0
C3756 C 0.32744 0.75718 0.20104 0.0
O3757 O 0.37707 0.77711 0.26527 0.0
O3758 O 0.36476 0.74727 0.3051 0.0
O3759 O 0.76106 0.16642 0.97349 0.0
Mn3760 Mn 0.71419 0.1474 0.97353 0.0
O3761 O 0.79137 0.12277 0.99 0.0
Mn3762 Mn 0.75918 0.09968 0.01205 0.0
O3763 O 0.66828 0.1262 0.97239 0.0
O3764 O 0.70181 0.17298 0.93244 0.0
Mn3765 Mn 0.66465 0.19276 0.93934 0.0
O3766 O 0.68898 0.18104 0.00598 0.0
O3767 O 0.63433 0.16291 0.9486 0.0
O3768 O 0.73575 0.10717 0.9438 0.0
O3769 O 0.74639 0.06834 0.98119 0.0
O3770 O 0.67252 0.20271 0.89756 0.0
O3771 O 0.67489 0.21983 0.97327 0.0
C3772 C 0.7378 0.13763 0.0427 0.0
C3773 C 0.78834 0.15032 0.97584 0.0
C3774 C 0.6398 0.13706 0.96427 0.0
C3775 C 0.70074 0.19129 0.90644 0.0
C3776 C 0.67206 0.20709 1.00099 0.0
C3777 C 0.74568 0.07745 0.95108 0.0
O3778 O 0.72577 0.12707 0.01532 0.0
O3779 O 0.75564 0.11476 0.05513 0.0
O3780 O 0.33649 0.24179 0.02941 0.0
Mn3781 Mn 0.3555 0.28866 0.02938 0.0
O3782 O 0.38014 0.21148 0.0129 0.0
Mn3783 Mn 0.40322 0.24368 0.99085 0.0
O3784 O 0.37669 0.33458 0.03051 0.0
O3785 O 0.32992 0.30104 0.07047 0.0
Mn3786 Mn 0.31013 0.33819 0.06356 0.0
O3787 O 0.32187 0.31388 0.99691 0.0
O3788 O 0.33998 0.36851 0.05431 0.0
O3789 O 0.39574 0.2671 0.0591 0.0
O3790 O 0.43456 0.25647 0.02171 0.0
O3791 O 0.30017 0.33032 0.10534 0.0
O3792 O 0.2831 0.32789 0.02962 0.0
C3793 C 0.36526 0.26506 0.9602 0.0
C3794 C 0.35259 0.21451 0.02706 0.0
C3795 C 0.36581 0.36305 0.03863 0.0
C3796 C 0.31161 0.3021 0.09646 0.0
C3797 C 0.29581 0.33081 0.0019 0.0
C3798 C 0.42546 0.25718 0.05182 0.0
O3799 O 0.37583 0.27709 0.98758 0.0
O3800 O 0.38814 0.24722 0.94776 0.0
O3801 O 0.26108 0.08648 0.7794 0.0
Mn3802 Mn 0.21421 0.10548 0.77938 0.0
O3803 O 0.29137 0.13014 0.76289 0.0
Mn3804 Mn 0.25917 0.15323 0.74085 0.0
O3805 O 0.16829 0.12667 0.78051 0.0
O3806 O 0.20185 0.07988 0.82046 0.0
Mn3807 Mn 0.16469 0.0601 0.81354 0.0
O3808 O 0.18902 0.07184 0.74692 0.0
O3809 O 0.13436 0.08993 0.80429 0.0
O3810 O 0.23575 0.14572 0.80911 0.0
O3811 O 0.24638 0.18456 0.77173 0.0
O3812 O 0.17254 0.05015 0.85533 0.0
O3813 O 0.17495 0.03303 0.77961 0.0
C3814 C 0.23779 0.11527 0.7102 0.0
C3815 C 0.28835 0.10259 0.77705 0.0
C3816 C 0.13981 0.11578 0.78863 0.0
C3817 C 0.20076 0.06158 0.84646 0.0
C3818 C 0.1721 0.04578 0.75189 0.0
C3819 C 0.24567 0.17544 0.80183 0.0
O3820 O 0.22577 0.12583 0.73759 0.0
O3821 O 0.25563 0.13815 0.69777 0.0
O3822 O 0.41638 0.01107 0.52941 0.0
Mn3823 Mn 0.39739 0.9642 0.52938 0.0
O3824 O 0.37274 0.04137 0.51288 0.0
Mn3825 Mn 0.34965 0.00917 0.49084 0.0
O3826 O 0.37619 0.91827 0.53052 0.0
O3827 O 0.42298 0.95183 0.57047 0.0
Mn3828 Mn 0.44277 0.91467 0.56355 0.0
O3829 O 0.43102 0.939 0.49692 0.0
O3830 O 0.41293 0.88434 0.55428 0.0
O3831 O 0.35715 0.98575 0.55911 0.0
O3832 O 0.31832 0.99638 0.52173 0.0
O3833 O 0.45272 0.92251 0.60533 0.0
O3834 O 0.46982 0.92496 0.52962 0.0
C3835 C 0.38761 0.98777 0.4602 0.0
C3836 C 0.40028 0.03835 0.52705 0.0
C3837 C 0.38708 0.8898 0.53863 0.0
C3838 C 0.44129 0.95074 0.59646 0.0
C3839 C 0.45708 0.9221 0.5019 0.0
C3840 C 0.32743 0.99568 0.55183 0.0
O3841 O 0.37704 0.97576 0.48759 0.0
O3842 O 0.36474 0.0056 0.44776 0.0
O3843 O 0.4918 0.16637 0.27941 0.0
Mn3844 Mn 0.53867 0.14737 0.27939 0.0
O3845 O 0.4615 0.12273 0.26287 0.0
Mn3846 Mn 0.4937 0.09964 0.24084 0.0
O3847 O 0.5846 0.12617 0.28053 0.0
O3848 O 0.55104 0.17297 0.32047 0.0
Mn3849 Mn 0.58819 0.19275 0.31355 0.0
O3850 O 0.56387 0.181 0.24692 0.0
O3851 O 0.61853 0.16291 0.30429 0.0
O3852 O 0.51712 0.10713 0.30911 0.0
O3853 O 0.50649 0.0683 0.27172 0.0
O3854 O 0.58036 0.2027 0.35533 0.0
O3855 O 0.57792 0.2198 0.27962 0.0
C3856 C 0.51511 0.13759 0.2102 0.0
C3857 C 0.46452 0.15027 0.27705 0.0
C3858 C 0.61307 0.13705 0.28865 0.0
C3859 C 0.55213 0.19128 0.34647 0.0
C3860 C 0.58077 0.20707 0.2519 0.0
C3861 C 0.50719 0.07741 0.30182 0.0
O3862 O 0.52711 0.12702 0.23759 0.0
O3863 O 0.49728 0.11472 0.19776 0.0
O3864 O 0.22346 0.33649 0.01107 0.0
Mn3865 Mn 0.2235 0.3555 0.9642 0.0
O3866 O 0.23996 0.38014 0.04138 0.0
Mn3867 Mn 0.26201 0.40323 0.00919 0.0
O3868 O 0.22236 0.37669 0.91828 0.0
O3869 O 0.18241 0.32991 0.95182 0.0
Mn3870 Mn 0.18933 0.31012 0.91467 0.0
O3871 O 0.25597 0.32188 0.939 0.0
O3872 O 0.19859 0.33996 0.88434 0.0
O3873 O 0.19376 0.39573 0.98575 0.0
O3874 O 0.23114 0.43456 0.99639 0.0
O3875 O 0.14755 0.30016 0.92252 0.0
O3876 O 0.22327 0.28308 0.92495 0.0
C3877 C 0.29267 0.36527 0.98781 0.0
C3878 C 0.2258 0.35259 0.03835 0.0
C3879 C 0.21425 0.36581 0.8898 0.0
C3880 C 0.15643 0.31159 0.95074 0.0
C3881 C 0.25099 0.29581 0.92209 0.0
C3882 C 0.20104 0.42545 0.99568 0.0
O3883 O 0.26528 0.37584 0.97578 0.0
O3884 O 0.30509 0.38814 0.00566 0.0
O3885 O 0.72348 0.4164 0.24181 0.0
Mn3886 Mn 0.7235 0.39739 0.28867 0.0
O3887 O 0.73995 0.37274 0.21149 0.0
Mn3888 Mn 0.76201 0.34965 0.24368 0.0
O3889 O 0.72236 0.37618 0.33459 0.0
O3890 O 0.68243 0.42298 0.30105 0.0
Mn3891 Mn 0.68934 0.44276 0.33821 0.0
O3892 O 0.75597 0.43101 0.31388 0.0
O3893 O 0.6986 0.41291 0.36853 0.0
O3894 O 0.69376 0.35716 0.26711 0.0
O3895 O 0.73114 0.31832 0.25648 0.0
O3896 O 0.64756 0.45272 0.33035 0.0
O3897 O 0.72328 0.46982 0.32795 0.0
C3898 C 0.79267 0.3876 0.26506 0.0
C3899 C 0.72581 0.4003 0.21453 0.0
C3900 C 0.71424 0.38705 0.36306 0.0
C3901 C 0.65643 0.44129 0.30213 0.0
C3902 C 0.751 0.45707 0.33079 0.0
C3903 C 0.70103 0.32743 0.25719 0.0
O3904 O 0.76529 0.37704 0.27709 0.0
O3905 O 0.80509 0.36472 0.2472 0.0
O3906 O 0.08648 0.47345 0.99181 0.0
Mn3907 Mn 0.10549 0.47349 0.03869 0.0
O3908 O 0.13012 0.48998 0.96151 0.0
Mn3909 Mn 0.15322 0.51202 0.9937 0.0
O3910 O 0.12668 0.47236 0.08461 0.0
O3911 O 0.0799 0.43241 0.05107 0.0
Mn3912 Mn 0.06011 0.43932 0.08822 0.0
O3913 O 0.07185 0.50595 0.06388 0.0
O3914 O 0.08996 0.44857 0.11855 0.0
O3915 O 0.14572 0.44376 0.01714 0.0
O3916 O 0.18455 0.48115 0.0065 0.0
O3917 O 0.05015 0.39754 0.08034 0.0
O3918 O 0.03305 0.47325 0.07797 0.0
C3919 C 0.11526 0.54267 0.01511 0.0
C3920 C 0.10258 0.47581 0.96453 0.0
C3921 C 0.11581 0.46424 0.11309 0.0
C3922 C 0.06159 0.40642 0.05213 0.0
C3923 C 0.04579 0.50097 0.0808 0.0
C3924 C 0.17545 0.45104 0.00721 0.0
O3925 O 0.12583 0.51528 0.02712 0.0
O3926 O 0.13814 0.5551 0.99727 0.0
O3927 O 0.02941 0.83649 0.74178 0.0
Mn3928 Mn 0.02938 0.8555 0.78866 0.0
O3929 O 0.01288 0.88014 0.71148 0.0
Mn3930 Mn 0.99085 0.90323 0.74368 0.0
O3931 O 0.03052 0.87669 0.83458 0.0
O3932 O 0.07046 0.8299 0.80103 0.0
Mn3933 Mn 0.06353 0.81011 0.83819 0.0
O3934 O 0.99691 0.82187 0.81385 0.0
O3935 O 0.05427 0.83995 0.86852 0.0
O3936 O 0.05911 0.89572 0.76711 0.0
O3937 O 0.02173 0.93456 0.75647 0.0
O3938 O 0.10531 0.80016 0.83035 0.0
O3939 O 0.0296 0.78307 0.8279 0.0
C3940 C 0.9602 0.86528 0.76509 0.0
C3941 C 0.02705 0.85259 0.71451 0.0
C3942 C 0.03863 0.86581 0.86306 0.0
C3943 C 0.09646 0.81159 0.80213 0.0
C3944 C 0.00188 0.79581 0.83075 0.0
C3945 C 0.05184 0.92544 0.75718 0.0
O3946 O 0.98759 0.87584 0.7771 0.0
O3947 O 0.94777 0.88815 0.74725 0.0
O3948 O 0.16635 0.27941 0.49181 0.0
Mn3949 Mn 0.14735 0.27937 0.53869 0.0
O3950 O 0.12271 0.2629 0.46151 0.0
Mn3951 Mn 0.09962 0.24085 0.4937 0.0
O3952 O 0.12615 0.28049 0.58461 0.0
O3953 O 0.17293 0.32046 0.55106 0.0
Mn3954 Mn 0.19271 0.31356 0.58823 0.0
O3955 O 0.18098 0.24691 0.56389 0.0
O3956 O 0.16286 0.3043 0.61854 0.0
O3957 O 0.10711 0.3091 0.51714 0.0
O3958 O 0.06828 0.27171 0.5065 0.0
O3959 O 0.20266 0.35534 0.58036 0.0
O3960 O 0.21976 0.27962 0.57796 0.0
C3961 C 0.13758 0.21019 0.51508 0.0
C3962 C 0.15026 0.27706 0.46454 0.0
C3963 C 0.13702 0.28862 0.61308 0.0
C3964 C 0.19124 0.34645 0.55214 0.0
C3965 C 0.20703 0.2519 0.58082 0.0
C3966 C 0.07738 0.30182 0.50721 0.0
O3967 O 0.12701 0.23758 0.52711 0.0
O3968 O 0.1147 0.19776 0.49723 0.0
O3969 O 0.52937 0.41639 0.0111 0.0
Mn3970 Mn 0.52935 0.39739 0.96423 0.0
O3971 O 0.51285 0.37274 0.04139 0.0
Mn3972 Mn 0.49081 0.34964 0.00919 0.0
O3973 O 0.53049 0.37619 0.91832 0.0
O3974 O 0.57043 0.42298 0.95187 0.0
Mn3975 Mn 0.5635 0.44276 0.91471 0.0
O3976 O 0.49688 0.43101 0.93902 0.0
O3977 O 0.55424 0.41293 0.88438 0.0
O3978 O 0.55908 0.35716 0.98578 0.0
O3979 O 0.52169 0.31832 0.9964 0.0
O3980 O 0.60529 0.4527 0.92252 0.0
O3981 O 0.52958 0.46982 0.92498 0.0
C3982 C 0.46017 0.3876 0.98779 0.0
C3983 C 0.52702 0.40028 0.03837 0.0
C3984 C 0.5386 0.38707 0.88984 0.0
C3985 C 0.59644 0.44128 0.95075 0.0
C3986 C 0.50186 0.45708 0.92212 0.0
C3987 C 0.5518 0.32743 0.9957 0.0
O3988 O 0.48756 0.37704 0.97578 0.0
O3989 O 0.44773 0.36473 0.00563 0.0
O3990 O 0.08654 0.77938 0.26107 0.0
Mn3991 Mn 0.10554 0.77935 0.2142 0.0
O3992 O 0.13019 0.76288 0.29138 0.0
Mn3993 Mn 0.15328 0.74082 0.25919 0.0
O3994 O 0.12675 0.78049 0.16829 0.0
O3995 O 0.07995 0.82044 0.20184 0.0
Mn3996 Mn 0.06018 0.81351 0.16468 0.0
O3997 O 0.07192 0.74688 0.189 0.0
O3998 O 0.09002 0.80424 0.13435 0.0
O3999 O 0.14577 0.80908 0.23576 0.0
O4000 O 0.18461 0.7717 0.2464 0.0
O4001 O 0.05023 0.8553 0.1725 0.0
O4002 O 0.03312 0.77959 0.17496 0.0
C4003 C 0.11531 0.71017 0.23781 0.0
C4004 C 0.10264 0.77704 0.28835 0.0
C4005 C 0.11587 0.7886 0.13981 0.0
C4006 C 0.06164 0.84644 0.20073 0.0
C4007 C 0.04585 0.75187 0.1721 0.0
C4008 C 0.1755 0.8018 0.24569 0.0
O4009 O 0.12588 0.73756 0.22578 0.0
O4010 O 0.13818 0.69774 0.25565 0.0
O4011 O 0.66637 0.47351 0.7611 0.0
Mn4012 Mn 0.64736 0.47353 0.71423 0.0
O4013 O 0.62273 0.49001 0.79141 0.0
Mn4014 Mn 0.59963 0.51206 0.75922 0.0
O4015 O 0.62615 0.4724 0.66831 0.0
O4016 O 0.67295 0.43245 0.70186 0.0
Mn4017 Mn 0.69273 0.43936 0.6647 0.0
O4018 O 0.68098 0.506 0.68902 0.0
O4019 O 0.66288 0.44862 0.63437 0.0
O4020 O 0.60713 0.4438 0.73579 0.0
O4021 O 0.5683 0.48118 0.74644 0.0
O4022 O 0.70268 0.39758 0.67254 0.0
O4023 O 0.71977 0.4733 0.67497 0.0
C4024 C 0.63759 0.54271 0.73783 0.0
C4025 C 0.65028 0.47585 0.78838 0.0
C4026 C 0.63703 0.46428 0.63983 0.0
C4027 C 0.69126 0.40645 0.70077 0.0
C4028 C 0.70704 0.50101 0.67211 0.0
C4029 C 0.57741 0.45108 0.74572 0.0
O4030 O 0.62702 0.51533 0.72581 0.0
O4031 O 0.61472 0.55514 0.75568 0.0
loop_
_geom_bond_atom_site_label_1
_geom_bond_atom_site_label_2
_geom_bond_distance
_geom_bond_site_symmetry_2
_ccdc_geom_bond_type
O0 Mn1 2.163 . S
O0 C14 1.244 . S
Mn1 O0 2.163 . S
Mn1 O4 2.160 . S
Mn1 O5 2.221 . S
Mn1 O7 2.163 1_455 S
Mn1 O9 2.160 . S
Mn1 O19 2.221 . S
O2 Mn3 2.087 . S
O2 C14 1.256 . S
Mn3 O2 2.087 . S
Mn3 O10 2.089 . S
Mn3 O19 2.290 . S
Mn3 O20 2.251 . S
O4 Mn1 2.160 . S
O4 C15 1.239 1_455 S
O5 Mn1 2.221 . S
O5 Mn6 2.290 1_455 S
O5 C16 1.278 . S
Mn6 O5 2.290 1_655 S
Mn6 O8 2.089 . S
Mn6 O11 2.251 . S
Mn6 O12 2.087 . S
O7 Mn1 2.163 1_655 S
O7 C17 1.244 . S
O8 Mn6 2.089 . S
O8 C15 1.256 . S
O9 Mn1 2.160 . S
O9 C18 1.239 . S
O10 Mn3 2.089 . S
O10 C18 1.256 . S
O11 Mn6 2.251 . S
O11 C16 1.241 1_655 S
O12 Mn6 2.087 . S
O12 C17 1.256 . S
C13 O19 1.278 . S
C13 O20 1.241 . S
C14 O0 1.244 . S
C14 O2 1.256 . S
C15 O4 1.239 1_655 S
C15 O8 1.256 . S
C16 O5 1.278 . S
C16 O11 1.241 1_455 S
C17 O7 1.244 . S
C17 O12 1.256 . S
C18 O9 1.239 . S
C18 O10 1.256 . S
O19 Mn1 2.221 . S
O19 Mn3 2.290 . S
O19 C13 1.278 . S
O20 Mn3 2.251 . S
O20 C13 1.241 . S
O21 Mn22 2.163 . S
O21 C35 1.244 . S
Mn22 O21 2.163 . S
Mn22 O25 2.160 . S
Mn22 O26 2.221 . S
Mn22 O28 2.163 . S
Mn22 O30 2.160 . S
Mn22 O40 2.221 . S
O23 Mn24 2.087 . S
O23 C35 1.256 . S
Mn24 O23 2.087 . S
Mn24 O31 2.089 . S
Mn24 O40 2.290 . S
Mn24 O41 2.251 . S
O25 Mn22 2.160 . S
O25 C36 1.239 . S
O26 Mn22 2.221 . S
O26 Mn27 2.290 . S
O26 C37 1.278 . S
Mn27 O26 2.290 . S
Mn27 O29 2.089 . S
Mn27 O32 2.251 . S
Mn27 O33 2.087 . S
O28 Mn22 2.163 . S
O28 C38 1.244 . S
O29 Mn27 2.089 . S
O29 C36 1.256 . S
O30 Mn22 2.160 . S
O30 C39 1.239 . S
O31 Mn24 2.089 . S
O31 C39 1.256 . S
O32 Mn27 2.251 . S
O32 C37 1.241 . S
O33 Mn27 2.087 . S
O33 C38 1.256 . S
C34 O40 1.278 . S
C34 O41 1.241 . S
C35 O21 1.244 . S
C35 O23 1.256 . S
C36 O25 1.239 . S
C36 O29 1.256 . S
C37 O26 1.278 . S
C37 O32 1.241 . S
C38 O28 1.244 . S
C38 O33 1.256 . S
C39 O30 1.239 . S
C39 O31 1.256 . S
O40 Mn22 2.221 . S
O40 Mn24 2.290 . S
O40 C34 1.278 . S
O41 Mn24 2.251 . S
O41 C34 1.241 . S
O42 Mn43 2.163 . S
O42 C56 1.244 . S
Mn43 O42 2.163 . S
Mn43 O46 2.160 . S
Mn43 O47 2.221 . S
Mn43 O49 2.163 . S
Mn43 O51 2.160 . S
Mn43 O61 2.221 . S
O44 Mn45 2.087 . S
O44 C56 1.256 . S
Mn45 O44 2.087 . S
Mn45 O52 2.089 . S
Mn45 O61 2.290 . S
Mn45 O62 2.251 . S
O46 Mn43 2.160 . S
O46 C57 1.239 . S
O47 Mn43 2.221 . S
O47 Mn48 2.290 . S
O47 C58 1.278 . S
Mn48 O47 2.290 . S
Mn48 O50 2.089 . S
Mn48 O53 2.251 . S
Mn48 O54 2.087 . S
O49 Mn43 2.163 . S
O49 C59 1.244 . S
O50 Mn48 2.089 . S
O50 C57 1.256 . S
O51 Mn43 2.160 . S
O51 C60 1.239 . S
O52 Mn45 2.089 . S
O52 C60 1.256 . S
O53 Mn48 2.251 . S
O53 C58 1.241 . S
O54 Mn48 2.087 . S
O54 C59 1.256 . S
C55 O61 1.278 . S
C55 O62 1.241 . S
C56 O42 1.244 . S
C56 O44 1.256 . S
C57 O46 1.239 . S
C57 O50 1.256 . S
C58 O47 1.278 . S
C58 O53 1.241 . S
C59 O49 1.244 . S
C59 O54 1.256 . S
C60 O51 1.239 . S
C60 O52 1.256 . S
O61 Mn43 2.221 . S
O61 Mn45 2.290 . S
O61 C55 1.278 . S
O62 Mn45 2.251 . S
O62 C55 1.241 . S
O63 Mn64 2.163 1_655 S
O63 C77 1.244 . S
Mn64 O63 2.163 1_455 S
Mn64 O67 2.160 . S
Mn64 O68 2.221 1_455 S
Mn64 O70 2.163 . S
Mn64 O72 2.160 . S
Mn64 O82 2.221 . S
O65 Mn66 2.087 . S
O65 C77 1.256 1_455 S
Mn66 O65 2.087 . S
Mn66 O73 2.089 . S
Mn66 O82 2.290 . S
Mn66 O83 2.251 . S
O67 Mn64 2.160 . S
O67 C78 1.239 . S
O68 Mn64 2.221 1_655 S
O68 Mn69 2.290 . S
O68 C79 1.278 . S
Mn69 O68 2.290 . S
Mn69 O71 2.089 1_655 S
Mn69 O74 2.251 . S
Mn69 O75 2.087 1_655 S
O70 Mn64 2.163 . S
O70 C80 1.244 . S
O71 Mn69 2.089 1_455 S
O71 C78 1.256 . S
O72 Mn64 2.160 . S
O72 C81 1.239 . S
O73 Mn66 2.089 . S
O73 C81 1.256 . S
O74 Mn69 2.251 . S
O74 C79 1.241 . S
O75 Mn69 2.087 1_455 S
O75 C80 1.256 . S
C76 O82 1.278 . S
C76 O83 1.241 . S
C77 O63 1.244 . S
C77 O65 1.256 1_655 S
C78 O67 1.239 . S
C78 O71 1.256 . S
C79 O68 1.278 . S
C79 O74 1.241 . S
C80 O70 1.244 . S
C80 O75 1.256 . S
C81 O72 1.239 . S
C81 O73 1.256 . S
O82 Mn64 2.221 . S
O82 Mn66 2.290 . S
O82 C76 1.278 . S
O83 Mn66 2.251 . S
O83 C76 1.241 . S
O84 Mn85 2.163 1_655 S
O84 C98 1.244 . S
Mn85 O84 2.163 1_455 S
Mn85 O88 2.160 . S
Mn85 O89 2.221 . S
Mn85 O91 2.163 1_565 S
Mn85 O93 2.160 . S
Mn85 O103 2.221 1_565 S
O86 Mn87 2.087 1_565 S
O86 C98 1.256 . S
Mn87 O86 2.087 1_545 S
Mn87 O94 2.089 1_545 S
Mn87 O103 2.290 1_655 S
Mn87 O104 2.251 . S
O88 Mn85 2.160 . S
O88 C99 1.239 . S
O89 Mn85 2.221 . S
O89 Mn90 2.290 . S
O89 C100 1.278 . S
Mn90 O89 2.290 . S
Mn90 O92 2.089 . S
Mn90 O95 2.251 . S
Mn90 O96 2.087 . S
O91 Mn85 2.163 1_545 S
O91 C101 1.244 . S
O92 Mn90 2.089 . S
O92 C99 1.256 . S
O93 Mn85 2.160 . S
O93 C102 1.239 1_455 S
O94 Mn87 2.089 1_565 S
O94 C102 1.256 . S
O95 Mn90 2.251 . S
O95 C100 1.241 . S
O96 Mn90 2.087 . S
O96 C101 1.256 1_565 S
C97 O103 1.278 . S
C97 O104 1.241 1_455 S
C98 O84 1.244 . S
C98 O86 1.256 . S
C99 O88 1.239 . S
C99 O92 1.256 . S
C100 O89 1.278 . S
C100 O95 1.241 . S
C101 O91 1.244 . S
C101 O96 1.256 1_545 S
C102 O93 1.239 1_655 S
C102 O94 1.256 . S
O103 Mn85 2.221 1_545 S
O103 Mn87 2.290 1_455 S
O103 C97 1.278 . S
O104 Mn87 2.251 . S
O104 C97 1.241 1_655 S
O105 Mn106 2.163 . S
O105 C119 1.244 . S
Mn106 O105 2.163 . S
Mn106 O109 2.160 . S
Mn106 O110 2.221 . S
Mn106 O112 2.163 . S
Mn106 O114 2.160 . S
Mn106 O124 2.221 . S
O107 Mn108 2.087 . S
O107 C119 1.256 . S
Mn108 O107 2.087 . S
Mn108 O115 2.089 . S
Mn108 O124 2.290 . S
Mn108 O125 2.251 . S
O109 Mn106 2.160 . S
O109 C120 1.239 . S
O110 Mn106 2.221 . S
O110 Mn111 2.290 . S
O110 C121 1.278 . S
Mn111 O110 2.290 . S
Mn111 O113 2.089 . S
Mn111 O116 2.251 . S
Mn111 O117 2.087 . S
O112 Mn106 2.163 . S
O112 C122 1.244 . S
O113 Mn111 2.089 . S
O113 C120 1.256 . S
O114 Mn106 2.160 . S
O114 C123 1.239 . S
O115 Mn108 2.089 . S
O115 C123 1.256 . S
O116 Mn111 2.251 . S
O116 C121 1.241 . S
O117 Mn111 2.087 . S
O117 C122 1.256 . S
C118 O124 1.278 . S
C118 O125 1.241 . S
C119 O105 1.244 . S
C119 O107 1.256 . S
C120 O109 1.239 . S
C120 O113 1.256 . S
C121 O110 1.278 . S
C121 O116 1.241 . S
C122 O112 1.244 . S
C122 O117 1.256 . S
C123 O114 1.239 . S
C123 O115 1.256 . S
O124 Mn106 2.221 . S
O124 Mn108 2.290 . S
O124 C118 1.278 . S
O125 Mn108 2.251 . S
O125 C118 1.241 . S
O126 Mn127 2.163 . S
O126 C140 1.244 . S
Mn127 O126 2.163 . S
Mn127 O130 2.160 . S
Mn127 O131 2.221 . S
Mn127 O133 2.163 . S
Mn127 O135 2.160 . S
Mn127 O145 2.221 . S
O128 Mn129 2.087 . S
O128 C140 1.256 . S
Mn129 O128 2.087 . S
Mn129 O136 2.089 . S
Mn129 O145 2.290 . S
Mn129 O146 2.251 . S
O130 Mn127 2.160 . S
O130 C141 1.239 . S
O131 Mn127 2.221 . S
O131 Mn132 2.290 . S
O131 C142 1.278 . S
Mn132 O131 2.290 . S
Mn132 O134 2.089 . S
Mn132 O137 2.251 . S
Mn132 O138 2.087 . S
O133 Mn127 2.163 . S
O133 C143 1.244 . S
O134 Mn132 2.089 . S
O134 C141 1.256 . S
O135 Mn127 2.160 . S
O135 C144 1.239 . S
O136 Mn129 2.089 . S
O136 C144 1.256 . S
O137 Mn132 2.251 . S
O137 C142 1.241 . S
O138 Mn132 2.087 . S
O138 C143 1.256 . S
C139 O145 1.278 . S
C139 O146 1.241 . S
C140 O126 1.244 . S
C140 O128 1.256 . S
C141 O130 1.239 . S
C141 O134 1.256 . S
C142 O131 1.278 . S
C142 O137 1.241 . S
C143 O133 1.244 . S
C143 O138 1.256 . S
C144 O135 1.239 . S
C144 O136 1.256 . S
O145 Mn127 2.221 . S
O145 Mn129 2.290 . S
O145 C139 1.278 . S
O146 Mn129 2.251 . S
O146 C139 1.241 . S
O147 Mn148 2.163 . S
O147 C161 1.244 . S
Mn148 O147 2.163 . S
Mn148 O151 2.160 . S
Mn148 O152 2.221 . S
Mn148 O154 2.163 . S
Mn148 O156 2.160 . S
Mn148 O166 2.221 . S
O149 Mn150 2.087 . S
O149 C161 1.256 . S
Mn150 O149 2.087 . S
Mn150 O157 2.089 . S
Mn150 O166 2.290 . S
Mn150 O167 2.251 . S
O151 Mn148 2.160 . S
O151 C162 1.239 . S
O152 Mn148 2.221 . S
O152 Mn153 2.290 . S
O152 C163 1.278 . S
Mn153 O152 2.290 . S
Mn153 O155 2.089 . S
Mn153 O158 2.251 . S
Mn153 O159 2.087 . S
O154 Mn148 2.163 . S
O154 C164 1.244 . S
O155 Mn153 2.089 . S
O155 C162 1.256 . S
O156 Mn148 2.160 . S
O156 C165 1.239 . S
O157 Mn150 2.089 . S
O157 C165 1.256 . S
O158 Mn153 2.251 . S
O158 C163 1.241 . S
O159 Mn153 2.087 . S
O159 C164 1.256 . S
C160 O166 1.278 . S
C160 O167 1.241 . S
C161 O147 1.244 . S
C161 O149 1.256 . S
C162 O151 1.239 . S
C162 O155 1.256 . S
C163 O152 1.278 . S
C163 O158 1.241 . S
C164 O154 1.244 . S
C164 O159 1.256 . S
C165 O156 1.239 . S
C165 O157 1.256 . S
O166 Mn148 2.221 . S
O166 Mn150 2.290 . S
O166 C160 1.278 . S
O167 Mn150 2.251 . S
O167 C160 1.241 . S
O168 Mn169 2.163 1_565 S
O168 C182 1.244 . S
Mn169 O168 2.163 1_545 S
Mn169 O172 2.160 . S
Mn169 O173 2.221 . S
Mn169 O175 2.163 . S
Mn169 O177 2.160 . S
Mn169 O187 2.221 . S
O170 Mn171 2.087 . S
O170 C182 1.256 . S
Mn171 O170 2.087 . S
Mn171 O178 2.089 . S
Mn171 O187 2.290 1_565 S
Mn171 O188 2.251 . S
O172 Mn169 2.160 . S
O172 C183 1.239 . S
O173 Mn169 2.221 . S
O173 Mn174 2.290 . S
O173 C184 1.278 . S
Mn174 O173 2.290 . S
Mn174 O176 2.089 . S
Mn174 O179 2.251 . S
Mn174 O180 2.087 . S
O175 Mn169 2.163 . S
O175 C185 1.244 . S
O176 Mn174 2.089 . S
O176 C183 1.256 . S
O177 Mn169 2.160 . S
O177 C186 1.239 1_545 S
O178 Mn171 2.089 . S
O178 C186 1.256 . S
O179 Mn174 2.251 . S
O179 C184 1.241 . S
O180 Mn174 2.087 . S
O180 C185 1.256 . S
C181 O187 1.278 . S
C181 O188 1.241 1_545 S
C182 O168 1.244 . S
C182 O170 1.256 . S
C183 O172 1.239 . S
C183 O176 1.256 . S
C184 O173 1.278 . S
C184 O179 1.241 . S
C185 O175 1.244 . S
C185 O180 1.256 . S
C186 O177 1.239 1_565 S
C186 O178 1.256 . S
O187 Mn169 2.221 . S
O187 Mn171 2.290 1_545 S
O187 C181 1.278 . S
O188 Mn171 2.251 . S
O188 C181 1.241 1_565 S
O189 Mn190 2.163 . S
O189 C203 1.244 . S
Mn190 O189 2.163 . S
Mn190 O193 2.160 . S
Mn190 O194 2.221 . S
Mn190 O196 2.163 . S
Mn190 O198 2.160 . S
Mn190 O208 2.221 . S
O191 Mn192 2.087 . S
O191 C203 1.256 . S
Mn192 O191 2.087 . S
Mn192 O199 2.089 . S
Mn192 O208 2.290 . S
Mn192 O209 2.251 . S
O193 Mn190 2.160 . S
O193 C204 1.239 . S
O194 Mn190 2.221 . S
O194 Mn195 2.290 . S
O194 C205 1.278 . S
Mn195 O194 2.290 . S
Mn195 O197 2.089 . S
Mn195 O200 2.251 . S
Mn195 O201 2.087 . S
O196 Mn190 2.163 . S
O196 C206 1.244 . S
O197 Mn195 2.089 . S
O197 C204 1.256 . S
O198 Mn190 2.160 . S
O198 C207 1.239 . S
O199 Mn192 2.089 . S
O199 C207 1.256 . S
O200 Mn195 2.251 . S
O200 C205 1.241 . S
O201 Mn195 2.087 . S
O201 C206 1.256 . S
C202 O208 1.278 . S
C202 O209 1.241 . S
C203 O189 1.244 . S
C203 O191 1.256 . S
C204 O193 1.239 . S
C204 O197 1.256 . S
C205 O194 1.278 . S
C205 O200 1.241 . S
C206 O196 1.244 . S
C206 O201 1.256 . S
C207 O198 1.239 . S
C207 O199 1.256 . S
O208 Mn190 2.221 . S
O208 Mn192 2.290 . S
O208 C202 1.278 . S
O209 Mn192 2.251 . S
O209 C202 1.241 . S
O210 Mn211 2.163 . S
O210 C224 1.244 . S
Mn211 O210 2.163 . S
Mn211 O214 2.160 . S
Mn211 O215 2.221 . S
Mn211 O217 2.163 . S
Mn211 O219 2.160 . S
Mn211 O229 2.221 . S
O212 Mn213 2.087 . S
O212 C224 1.256 . S
Mn213 O212 2.087 . S
Mn213 O220 2.089 . S
Mn213 O229 2.290 . S
Mn213 O230 2.251 . S
O214 Mn211 2.160 . S
O214 C225 1.239 . S
O215 Mn211 2.221 . S
O215 Mn216 2.290 . S
O215 C226 1.278 . S
Mn216 O215 2.290 . S
Mn216 O218 2.089 . S
Mn216 O221 2.251 . S
Mn216 O222 2.087 . S
O217 Mn211 2.163 . S
O217 C227 1.244 . S
O218 Mn216 2.089 . S
O218 C225 1.256 . S
O219 Mn211 2.160 . S
O219 C228 1.239 . S
O220 Mn213 2.089 . S
O220 C228 1.256 . S
O221 Mn216 2.251 . S
O221 C226 1.241 . S
O222 Mn216 2.087 . S
O222 C227 1.256 . S
C223 O229 1.278 . S
C223 O230 1.241 . S
C224 O210 1.244 . S
C224 O212 1.256 . S
C225 O214 1.239 . S
C225 O218 1.256 . S
C226 O215 1.278 . S
C226 O221 1.241 . S
C227 O217 1.244 . S
C227 O222 1.256 . S
C228 O219 1.239 . S
C228 O220 1.256 . S
O229 Mn211 2.221 . S
O229 Mn213 2.290 . S
O229 C223 1.278 . S
O230 Mn213 2.251 . S
O230 C223 1.241 . S
O231 Mn232 2.163 1_556 S
O231 C245 1.244 . S
Mn232 O231 2.163 1_554 S
Mn232 O235 2.160 . S
Mn232 O236 2.221 1_554 S
Mn232 O238 2.163 . S
Mn232 O240 2.160 . S
Mn232 O250 2.221 . S
O233 Mn234 2.087 . S
O233 C245 1.256 1_554 S
Mn234 O233 2.087 . S
Mn234 O241 2.089 . S
Mn234 O250 2.290 . S
Mn234 O251 2.251 . S
O235 Mn232 2.160 . S
O235 C246 1.239 . S
O236 Mn232 2.221 1_556 S
O236 Mn237 2.290 . S
O236 C247 1.278 . S
Mn237 O236 2.290 . S
Mn237 O239 2.089 1_556 S
Mn237 O242 2.251 . S
Mn237 O243 2.087 1_556 S
O238 Mn232 2.163 . S
O238 C248 1.244 . S
O239 Mn237 2.089 1_554 S
O239 C246 1.256 . S
O240 Mn232 2.160 . S
O240 C249 1.239 . S
O241 Mn234 2.089 . S
O241 C249 1.256 . S
O242 Mn237 2.251 . S
O242 C247 1.241 . S
O243 Mn237 2.087 1_554 S
O243 C248 1.256 . S
C244 O250 1.278 . S
C244 O251 1.241 . S
C245 O231 1.244 . S
C245 O233 1.256 1_556 S
C246 O235 1.239 . S
C246 O239 1.256 . S
C247 O236 1.278 . S
C247 O242 1.241 . S
C248 O238 1.244 . S
C248 O243 1.256 . S
C249 O240 1.239 . S
C249 O241 1.256 . S
O250 Mn232 2.221 . S
O250 Mn234 2.290 . S
O250 C244 1.278 . S
O251 Mn234 2.251 . S
O251 C244 1.241 . S
O252 Mn253 2.163 . S
O252 C266 1.244 . S
Mn253 O252 2.163 . S
Mn253 O256 2.160 . S
Mn253 O257 2.221 . S
Mn253 O259 2.163 1_556 S
Mn253 O261 2.160 . S
Mn253 O271 2.221 1_556 S
O254 Mn255 2.087 1_556 S
O254 C266 1.256 . S
Mn255 O254 2.087 1_554 S
Mn255 O262 2.089 1_554 S
Mn255 O271 2.290 . S
Mn255 O272 2.251 . S
O256 Mn253 2.160 . S
O256 C267 1.239 . S
O257 Mn253 2.221 . S
O257 Mn258 2.290 . S
O257 C268 1.278 . S
Mn258 O257 2.290 . S
Mn258 O260 2.089 . S
Mn258 O263 2.251 . S
Mn258 O264 2.087 . S
O259 Mn253 2.163 1_554 S
O259 C269 1.244 . S
O260 Mn258 2.089 . S
O260 C267 1.256 . S
O261 Mn253 2.160 . S
O261 C270 1.239 . S
O262 Mn255 2.089 1_556 S
O262 C270 1.256 . S
O263 Mn258 2.251 . S
O263 C268 1.241 . S
O264 Mn258 2.087 . S
O264 C269 1.256 1_556 S
C265 O271 1.278 . S
C265 O272 1.241 . S
C266 O252 1.244 . S
C266 O254 1.256 . S
C267 O256 1.239 . S
C267 O260 1.256 . S
C268 O257 1.278 . S
C268 O263 1.241 . S
C269 O259 1.244 . S
C269 O264 1.256 1_554 S
C270 O261 1.239 . S
C270 O262 1.256 . S
O271 Mn253 2.221 1_554 S
O271 Mn255 2.290 . S
O271 C265 1.278 . S
O272 Mn255 2.251 . S
O272 C265 1.241 . S
O273 Mn274 2.163 . S
O273 C287 1.244 . S
Mn274 O273 2.163 . S
Mn274 O277 2.160 . S
Mn274 O278 2.221 . S
Mn274 O280 2.163 . S
Mn274 O282 2.160 . S
Mn274 O292 2.221 . S
O275 Mn276 2.087 . S
O275 C287 1.256 . S
Mn276 O275 2.087 . S
Mn276 O283 2.089 . S
Mn276 O292 2.290 . S
Mn276 O293 2.251 . S
O277 Mn274 2.160 . S
O277 C288 1.239 . S
O278 Mn274 2.221 . S
O278 Mn279 2.290 . S
O278 C289 1.278 . S
Mn279 O278 2.290 . S
Mn279 O281 2.089 . S
Mn279 O284 2.251 . S
Mn279 O285 2.087 . S
O280 Mn274 2.163 . S
O280 C290 1.244 . S
O281 Mn279 2.089 . S
O281 C288 1.256 . S
O282 Mn274 2.160 . S
O282 C291 1.239 . S
O283 Mn276 2.089 . S
O283 C291 1.256 . S
O284 Mn279 2.251 . S
O284 C289 1.241 . S
O285 Mn279 2.087 . S
O285 C290 1.256 . S
C286 O292 1.278 . S
C286 O293 1.241 . S
C287 O273 1.244 . S
C287 O275 1.256 . S
C288 O277 1.239 . S
C288 O281 1.256 . S
C289 O278 1.278 . S
C289 O284 1.241 . S
C290 O280 1.244 . S
C290 O285 1.256 . S
C291 O282 1.239 . S
C291 O283 1.256 . S
O292 Mn274 2.221 . S
O292 Mn276 2.290 . S
O292 C286 1.278 . S
O293 Mn276 2.251 . S
O293 C286 1.241 . S
O294 Mn295 2.163 . S
O294 C308 1.244 . S
Mn295 O294 2.163 . S
Mn295 O298 2.160 . S
Mn295 O299 2.221 . S
Mn295 O301 2.163 . S
Mn295 O303 2.160 . S
Mn295 O313 2.221 . S
O296 Mn297 2.087 . S
O296 C308 1.256 . S
Mn297 O296 2.087 . S
Mn297 O304 2.089 . S
Mn297 O313 2.290 . S
Mn297 O314 2.251 . S
O298 Mn295 2.160 . S
O298 C309 1.239 . S
O299 Mn295 2.221 . S
O299 Mn300 2.290 . S
O299 C310 1.278 . S
Mn300 O299 2.290 . S
Mn300 O302 2.089 . S
Mn300 O305 2.251 . S
Mn300 O306 2.087 . S
O301 Mn295 2.163 . S
O301 C311 1.244 . S
O302 Mn300 2.089 . S
O302 C309 1.256 . S
O303 Mn295 2.160 . S
O303 C312 1.239 . S
O304 Mn297 2.089 . S
O304 C312 1.256 . S
O305 Mn300 2.251 . S
O305 C310 1.241 . S
O306 Mn300 2.087 . S
O306 C311 1.256 . S
C307 O313 1.278 . S
C307 O314 1.241 . S
C308 O294 1.244 . S
C308 O296 1.256 . S
C309 O298 1.239 . S
C309 O302 1.256 . S
C310 O299 1.278 . S
C310 O305 1.241 . S
C311 O301 1.244 . S
C311 O306 1.256 . S
C312 O303 1.239 . S
C312 O304 1.256 . S
O313 Mn295 2.221 . S
O313 Mn297 2.290 . S
O313 C307 1.278 . S
O314 Mn297 2.251 . S
O314 C307 1.241 . S
O315 Mn316 2.163 1_455 S
O315 C329 1.244 . S
Mn316 O315 2.163 1_655 S
Mn316 O319 2.160 . S
Mn316 O320 2.221 . S
Mn316 O322 2.163 . S
Mn316 O324 2.160 . S
Mn316 O334 2.221 . S
O317 Mn318 2.087 . S
O317 C329 1.256 . S
Mn318 O317 2.087 . S
Mn318 O325 2.089 . S
Mn318 O334 2.290 1_455 S
Mn318 O335 2.251 . S
O319 Mn316 2.160 . S
O319 C330 1.239 . S
O320 Mn316 2.221 . S
O320 Mn321 2.290 . S
O320 C331 1.278 . S
Mn321 O320 2.290 . S
Mn321 O323 2.089 . S
Mn321 O326 2.251 . S
Mn321 O327 2.087 . S
O322 Mn316 2.163 . S
O322 C332 1.244 . S
O323 Mn321 2.089 . S
O323 C330 1.256 . S
O324 Mn316 2.160 . S
O324 C333 1.239 1_655 S
O325 Mn318 2.089 . S
O325 C333 1.256 . S
O326 Mn321 2.251 . S
O326 C331 1.241 . S
O327 Mn321 2.087 . S
O327 C332 1.256 . S
C328 O334 1.278 . S
C328 O335 1.241 1_655 S
C329 O315 1.244 . S
C329 O317 1.256 . S
C330 O319 1.239 . S
C330 O323 1.256 . S
C331 O320 1.278 . S
C331 O326 1.241 . S
C332 O322 1.244 . S
C332 O327 1.256 . S
C333 O324 1.239 1_455 S
C333 O325 1.256 . S
O334 Mn316 2.221 . S
O334 Mn318 2.290 1_655 S
O334 C328 1.278 . S
O335 Mn318 2.251 . S
O335 C328 1.241 1_455 S
O336 Mn337 2.163 1_556 S
O336 C350 1.244 . S
Mn337 O336 2.163 1_554 S
Mn337 O340 2.160 . S
Mn337 O341 2.221 . S
Mn337 O343 2.163 . S
Mn337 O345 2.160 . S
Mn337 O355 2.221 . S
O338 Mn339 2.087 . S
O338 C350 1.256 . S
Mn339 O338 2.087 . S
Mn339 O346 2.089 . S
Mn339 O355 2.290 1_556 S
Mn339 O356 2.251 . S
O340 Mn337 2.160 . S
O340 C351 1.239 . S
O341 Mn337 2.221 . S
O341 Mn342 2.290 . S
O341 C352 1.278 . S
Mn342 O341 2.290 . S
Mn342 O344 2.089 . S
Mn342 O347 2.251 . S
Mn342 O348 2.087 . S
O343 Mn337 2.163 . S
O343 C353 1.244 . S
O344 Mn342 2.089 . S
O344 C351 1.256 . S
O345 Mn337 2.160 . S
O345 C354 1.239 1_554 S
O346 Mn339 2.089 . S
O346 C354 1.256 . S
O347 Mn342 2.251 . S
O347 C352 1.241 . S
O348 Mn342 2.087 . S
O348 C353 1.256 . S
C349 O355 1.278 . S
C349 O356 1.241 1_554 S
C350 O336 1.244 . S
C350 O338 1.256 . S
C351 O340 1.239 . S
C351 O344 1.256 . S
C352 O341 1.278 . S
C352 O347 1.241 . S
C353 O343 1.244 . S
C353 O348 1.256 . S
C354 O345 1.239 1_556 S
C354 O346 1.256 . S
O355 Mn337 2.221 . S
O355 Mn339 2.290 1_554 S
O355 C349 1.278 . S
O356 Mn339 2.251 . S
O356 C349 1.241 1_556 S
O357 Mn358 2.163 . S
O357 C371 1.244 . S
Mn358 O357 2.163 . S
Mn358 O361 2.160 . S
Mn358 O362 2.221 . S
Mn358 O364 2.163 . S
Mn358 O366 2.160 . S
Mn358 O376 2.221 . S
O359 Mn360 2.087 . S
O359 C371 1.256 . S
Mn360 O359 2.087 . S
Mn360 O367 2.089 . S
Mn360 O376 2.290 . S
Mn360 O377 2.251 . S
O361 Mn358 2.160 . S
O361 C372 1.239 . S
O362 Mn358 2.221 . S
O362 Mn363 2.290 . S
O362 C373 1.278 . S
Mn363 O362 2.290 . S
Mn363 O365 2.089 . S
Mn363 O368 2.251 . S
Mn363 O369 2.087 . S
O364 Mn358 2.163 . S
O364 C374 1.244 . S
O365 Mn363 2.089 . S
O365 C372 1.256 . S
O366 Mn358 2.160 . S
O366 C375 1.239 . S
O367 Mn360 2.089 . S
O367 C375 1.256 . S
O368 Mn363 2.251 . S
O368 C373 1.241 . S
O369 Mn363 2.087 . S
O369 C374 1.256 . S
C370 O376 1.278 . S
C370 O377 1.241 . S
C371 O357 1.244 . S
C371 O359 1.256 . S
C372 O361 1.239 . S
C372 O365 1.256 . S
C373 O362 1.278 . S
C373 O368 1.241 . S
C374 O364 1.244 . S
C374 O369 1.256 . S
C375 O366 1.239 . S
C375 O367 1.256 . S
O376 Mn358 2.221 . S
O376 Mn360 2.290 . S
O376 C370 1.278 . S
O377 Mn360 2.251 . S
O377 C370 1.241 . S
O378 Mn379 2.163 1_554 S
O378 C392 1.244 . S
Mn379 O378 2.163 1_556 S
Mn379 O382 2.160 . S
Mn379 O383 2.221 . S
Mn379 O385 2.163 1_545 S
Mn379 O387 2.160 . S
Mn379 O397 2.221 1_545 S
O380 Mn381 2.087 1_545 S
O380 C392 1.256 . S
Mn381 O380 2.087 1_565 S
Mn381 O388 2.089 1_565 S
Mn381 O397 2.290 1_554 S
Mn381 O398 2.251 . S
O382 Mn379 2.160 . S
O382 C393 1.239 . S
O383 Mn379 2.221 . S
O383 Mn384 2.290 . S
O383 C394 1.278 . S
Mn384 O383 2.290 . S
Mn384 O386 2.089 . S
Mn384 O389 2.251 . S
Mn384 O390 2.087 . S
O385 Mn379 2.163 1_565 S
O385 C395 1.244 . S
O386 Mn384 2.089 . S
O386 C393 1.256 . S
O387 Mn379 2.160 . S
O387 C396 1.239 1_556 S
O388 Mn381 2.089 1_545 S
O388 C396 1.256 . S
O389 Mn384 2.251 . S
O389 C394 1.241 . S
O390 Mn384 2.087 . S
O390 C395 1.256 1_545 S
C391 O397 1.278 . S
C391 O398 1.241 1_556 S
C392 O378 1.244 . S
C392 O380 1.256 . S
C393 O382 1.239 . S
C393 O386 1.256 . S
C394 O383 1.278 . S
C394 O389 1.241 . S
C395 O385 1.244 . S
C395 O390 1.256 1_565 S
C396 O387 1.239 1_554 S
C396 O388 1.256 . S
O397 Mn379 2.221 1_565 S
O397 Mn381 2.290 1_556 S
O397 C391 1.278 . S
O398 Mn381 2.251 . S
O398 C391 1.241 1_554 S
O399 Mn400 2.163 . S
O399 C413 1.244 . S
Mn400 O399 2.163 . S
Mn400 O403 2.160 . S
Mn400 O404 2.221 . S
Mn400 O406 2.163 . S
Mn400 O408 2.160 . S
Mn400 O418 2.221 . S
O401 Mn402 2.087 . S
O401 C413 1.256 . S
Mn402 O401 2.087 . S
Mn402 O409 2.089 . S
Mn402 O418 2.290 . S
Mn402 O419 2.251 . S
O403 Mn400 2.160 . S
O403 C414 1.239 . S
O404 Mn400 2.221 . S
O404 Mn405 2.290 . S
O404 C415 1.278 . S
Mn405 O404 2.290 . S
Mn405 O407 2.089 . S
Mn405 O410 2.251 . S
Mn405 O411 2.087 . S
O406 Mn400 2.163 . S
O406 C416 1.244 . S
O407 Mn405 2.089 . S
O407 C414 1.256 . S
O408 Mn400 2.160 . S
O408 C417 1.239 . S
O409 Mn402 2.089 . S
O409 C417 1.256 . S
O410 Mn405 2.251 . S
O410 C415 1.241 . S
O411 Mn405 2.087 . S
O411 C416 1.256 . S
C412 O418 1.278 . S
C412 O419 1.241 . S
C413 O399 1.244 . S
C413 O401 1.256 . S
C414 O403 1.239 . S
C414 O407 1.256 . S
C415 O404 1.278 . S
C415 O410 1.241 . S
C416 O406 1.244 . S
C416 O411 1.256 . S
C417 O408 1.239 . S
C417 O409 1.256 . S
O418 Mn400 2.221 . S
O418 Mn402 2.290 . S
O418 C412 1.278 . S
O419 Mn402 2.251 . S
O419 C412 1.241 . S
O420 Mn421 2.163 . S
O420 C434 1.244 . S
Mn421 O420 2.163 . S
Mn421 O424 2.160 . S
Mn421 O425 2.221 . S
Mn421 O427 2.163 . S
Mn421 O429 2.160 . S
Mn421 O439 2.221 . S
O422 Mn423 2.087 . S
O422 C434 1.256 . S
Mn423 O422 2.087 . S
Mn423 O430 2.089 . S
Mn423 O439 2.290 . S
Mn423 O440 2.251 . S
O424 Mn421 2.160 . S
O424 C435 1.239 . S
O425 Mn421 2.221 . S
O425 Mn426 2.290 . S
O425 C436 1.278 . S
Mn426 O425 2.290 . S
Mn426 O428 2.089 . S
Mn426 O431 2.251 . S
Mn426 O432 2.087 . S
O427 Mn421 2.163 . S
O427 C437 1.244 . S
O428 Mn426 2.089 . S
O428 C435 1.256 . S
O429 Mn421 2.160 . S
O429 C438 1.239 . S
O430 Mn423 2.089 . S
O430 C438 1.256 . S
O431 Mn426 2.251 . S
O431 C436 1.241 . S
O432 Mn426 2.087 . S
O432 C437 1.256 . S
C433 O439 1.278 . S
C433 O440 1.241 . S
C434 O420 1.244 . S
C434 O422 1.256 . S
C435 O424 1.239 . S
C435 O428 1.256 . S
C436 O425 1.278 . S
C436 O431 1.241 . S
C437 O427 1.244 . S
C437 O432 1.256 . S
C438 O429 1.239 . S
C438 O430 1.256 . S
O439 Mn421 2.221 . S
O439 Mn423 2.290 . S
O439 C433 1.278 . S
O440 Mn423 2.251 . S
O440 C433 1.241 . S
O441 Mn442 2.163 1_556 S
O441 C455 1.244 . S
Mn442 O441 2.163 1_554 S
Mn442 O445 2.160 . S
Mn442 O446 2.221 . S
Mn442 O448 2.163 1_655 S
Mn442 O450 2.160 . S
Mn442 O460 2.221 1_655 S
O443 Mn444 2.087 1_655 S
O443 C455 1.256 . S
Mn444 O443 2.087 1_455 S
Mn444 O451 2.089 1_455 S
Mn444 O460 2.290 1_556 S
Mn444 O461 2.251 . S
O445 Mn442 2.160 . S
O445 C456 1.239 . S
O446 Mn442 2.221 . S
O446 Mn447 2.290 . S
O446 C457 1.278 . S
Mn447 O446 2.290 . S
Mn447 O449 2.089 . S
Mn447 O452 2.251 . S
Mn447 O453 2.087 . S
O448 Mn442 2.163 1_455 S
O448 C458 1.244 . S
O449 Mn447 2.089 . S
O449 C456 1.256 . S
O450 Mn442 2.160 . S
O450 C459 1.239 1_554 S
O451 Mn444 2.089 1_655 S
O451 C459 1.256 . S
O452 Mn447 2.251 . S
O452 C457 1.241 . S
O453 Mn447 2.087 . S
O453 C458 1.256 1_655 S
C454 O460 1.278 . S
C454 O461 1.241 1_554 S
C455 O441 1.244 . S
C455 O443 1.256 . S
C456 O445 1.239 . S
C456 O449 1.256 . S
C457 O446 1.278 . S
C457 O452 1.241 . S
C458 O448 1.244 . S
C458 O453 1.256 1_455 S
C459 O450 1.239 1_556 S
C459 O451 1.256 . S
O460 Mn442 2.221 1_455 S
O460 Mn444 2.290 1_554 S
O460 C454 1.278 . S
O461 Mn444 2.251 . S
O461 C454 1.241 1_556 S
O462 Mn463 2.163 . S
O462 C476 1.244 . S
Mn463 O462 2.163 . S
Mn463 O466 2.160 . S
Mn463 O467 2.221 . S
Mn463 O469 2.163 . S
Mn463 O471 2.160 . S
Mn463 O481 2.221 . S
O464 Mn465 2.087 . S
O464 C476 1.256 . S
Mn465 O464 2.087 . S
Mn465 O472 2.089 . S
Mn465 O481 2.290 . S
Mn465 O482 2.251 . S
O466 Mn463 2.160 . S
O466 C477 1.239 . S
O467 Mn463 2.221 . S
O467 Mn468 2.290 . S
O467 C478 1.278 . S
Mn468 O467 2.290 . S
Mn468 O470 2.089 . S
Mn468 O473 2.251 . S
Mn468 O474 2.087 . S
O469 Mn463 2.163 . S
O469 C479 1.244 . S
O470 Mn468 2.089 . S
O470 C477 1.256 . S
O471 Mn463 2.160 . S
O471 C480 1.239 . S
O472 Mn465 2.089 . S
O472 C480 1.256 . S
O473 Mn468 2.251 . S
O473 C478 1.241 . S
O474 Mn468 2.087 . S
O474 C479 1.256 . S
C475 O481 1.278 . S
C475 O482 1.241 . S
C476 O462 1.244 . S
C476 O464 1.256 . S
C477 O466 1.239 . S
C477 O470 1.256 . S
C478 O467 1.278 . S
C478 O473 1.241 . S
C479 O469 1.244 . S
C479 O474 1.256 . S
C480 O471 1.239 . S
C480 O472 1.256 . S
O481 Mn463 2.221 . S
O481 Mn465 2.290 . S
O481 C475 1.278 . S
O482 Mn465 2.251 . S
O482 C475 1.241 . S
O483 Mn484 2.163 1_565 S
O483 C497 1.244 . S
Mn484 O483 2.163 1_545 S
Mn484 O487 2.160 . S
Mn484 O488 2.221 1_545 S
Mn484 O490 2.163 . S
Mn484 O492 2.160 . S
Mn484 O502 2.221 . S
O485 Mn486 2.087 . S
O485 C497 1.256 1_545 S
Mn486 O485 2.087 . S
Mn486 O493 2.089 . S
Mn486 O502 2.290 . S
Mn486 O503 2.251 . S
O487 Mn484 2.160 . S
O487 C498 1.239 . S
O488 Mn484 2.221 1_565 S
O488 Mn489 2.290 . S
O488 C499 1.278 . S
Mn489 O488 2.290 . S
Mn489 O491 2.089 1_565 S
Mn489 O494 2.251 . S
Mn489 O495 2.087 1_565 S
O490 Mn484 2.163 . S
O490 C500 1.244 . S
O491 Mn489 2.089 1_545 S
O491 C498 1.256 . S
O492 Mn484 2.160 . S
O492 C501 1.239 . S
O493 Mn486 2.089 . S
O493 C501 1.256 . S
O494 Mn489 2.251 . S
O494 C499 1.241 . S
O495 Mn489 2.087 1_545 S
O495 C500 1.256 . S
C496 O502 1.278 . S
C496 O503 1.241 . S
C497 O483 1.244 . S
C497 O485 1.256 1_565 S
C498 O487 1.239 . S
C498 O491 1.256 . S
C499 O488 1.278 . S
C499 O494 1.241 . S
C500 O490 1.244 . S
C500 O495 1.256 . S
C501 O492 1.239 . S
C501 O493 1.256 . S
O502 Mn484 2.221 . S
O502 Mn486 2.290 . S
O502 C496 1.278 . S
O503 Mn486 2.251 . S
O503 C496 1.241 . S
O504 Mn505 2.163 1_455 S
O504 C518 1.244 . S
Mn505 O504 2.163 1_655 S
Mn505 O508 2.160 . S
Mn505 O509 2.221 . S
Mn505 O511 2.163 . S
Mn505 O513 2.160 . S
Mn505 O523 2.221 . S
O506 Mn507 2.087 . S
O506 C518 1.256 . S
Mn507 O506 2.087 . S
Mn507 O514 2.089 . S
Mn507 O523 2.290 1_455 S
Mn507 O524 2.251 . S
O508 Mn505 2.160 . S
O508 C519 1.239 . S
O509 Mn505 2.221 . S
O509 Mn510 2.290 . S
O509 C520 1.278 . S
Mn510 O509 2.290 . S
Mn510 O512 2.089 . S
Mn510 O515 2.251 . S
Mn510 O516 2.087 . S
O511 Mn505 2.163 . S
O511 C521 1.244 . S
O512 Mn510 2.089 . S
O512 C519 1.256 . S
O513 Mn505 2.160 . S
O513 C522 1.239 1_655 S
O514 Mn507 2.089 . S
O514 C522 1.256 . S
O515 Mn510 2.251 . S
O515 C520 1.241 . S
O516 Mn510 2.087 . S
O516 C521 1.256 . S
C517 O523 1.278 . S
C517 O524 1.241 1_655 S
C518 O504 1.244 . S
C518 O506 1.256 . S
C519 O508 1.239 . S
C519 O512 1.256 . S
C520 O509 1.278 . S
C520 O515 1.241 . S
C521 O511 1.244 . S
C521 O516 1.256 . S
C522 O513 1.239 1_455 S
C522 O514 1.256 . S
O523 Mn505 2.221 . S
O523 Mn507 2.290 1_655 S
O523 C517 1.278 . S
O524 Mn507 2.251 . S
O524 C517 1.241 1_455 S
O525 Mn526 2.163 . S
O525 C539 1.244 . S
Mn526 O525 2.163 . S
Mn526 O529 2.160 . S
Mn526 O530 2.221 . S
Mn526 O532 2.163 . S
Mn526 O534 2.160 . S
Mn526 O544 2.221 . S
O527 Mn528 2.087 . S
O527 C539 1.256 . S
Mn528 O527 2.087 . S
Mn528 O535 2.089 . S
Mn528 O544 2.290 . S
Mn528 O545 2.251 . S
O529 Mn526 2.160 . S
O529 C540 1.239 . S
O530 Mn526 2.221 . S
O530 Mn531 2.290 . S
O530 C541 1.278 . S
Mn531 O530 2.290 . S
Mn531 O533 2.089 . S
Mn531 O536 2.251 . S
Mn531 O537 2.087 . S
O532 Mn526 2.163 . S
O532 C542 1.244 . S
O533 Mn531 2.089 . S
O533 C540 1.256 . S
O534 Mn526 2.160 . S
O534 C543 1.239 . S
O535 Mn528 2.089 . S
O535 C543 1.256 . S
O536 Mn531 2.251 . S
O536 C541 1.241 . S
O537 Mn531 2.087 . S
O537 C542 1.256 . S
C538 O544 1.278 . S
C538 O545 1.241 . S
C539 O525 1.244 . S
C539 O527 1.256 . S
C540 O529 1.239 . S
C540 O533 1.256 . S
C541 O530 1.278 . S
C541 O536 1.241 . S
C542 O532 1.244 . S
C542 O537 1.256 . S
C543 O534 1.239 . S
C543 O535 1.256 . S
O544 Mn526 2.221 . S
O544 Mn528 2.290 . S
O544 C538 1.278 . S
O545 Mn528 2.251 . S
O545 C538 1.241 . S
O546 Mn547 2.163 . S
O546 C560 1.244 . S
Mn547 O546 2.163 . S
Mn547 O550 2.160 . S
Mn547 O551 2.221 . S
Mn547 O553 2.163 . S
Mn547 O555 2.160 . S
Mn547 O565 2.221 . S
O548 Mn549 2.087 . S
O548 C560 1.256 . S
Mn549 O548 2.087 . S
Mn549 O556 2.089 . S
Mn549 O565 2.290 . S
Mn549 O566 2.251 . S
O550 Mn547 2.160 . S
O550 C561 1.239 . S
O551 Mn547 2.221 . S
O551 Mn552 2.290 . S
O551 C562 1.278 . S
Mn552 O551 2.290 . S
Mn552 O554 2.089 . S
Mn552 O557 2.251 . S
Mn552 O558 2.087 . S
O553 Mn547 2.163 . S
O553 C563 1.244 . S
O554 Mn552 2.089 . S
O554 C561 1.256 . S
O555 Mn547 2.160 . S
O555 C564 1.239 . S
O556 Mn549 2.089 . S
O556 C564 1.256 . S
O557 Mn552 2.251 . S
O557 C562 1.241 . S
O558 Mn552 2.087 . S
O558 C563 1.256 . S
C559 O565 1.278 . S
C559 O566 1.241 . S
C560 O546 1.244 . S
C560 O548 1.256 . S
C561 O550 1.239 . S
C561 O554 1.256 . S
C562 O551 1.278 . S
C562 O557 1.241 . S
C563 O553 1.244 . S
C563 O558 1.256 . S
C564 O555 1.239 . S
C564 O556 1.256 . S
O565 Mn547 2.221 . S
O565 Mn549 2.290 . S
O565 C559 1.278 . S
O566 Mn549 2.251 . S
O566 C559 1.241 . S
O567 Mn568 2.163 . S
O567 C581 1.244 . S
Mn568 O567 2.163 . S
Mn568 O571 2.160 . S
Mn568 O572 2.221 . S
Mn568 O574 2.163 1_655 S
Mn568 O576 2.160 . S
Mn568 O586 2.221 1_655 S
O569 Mn570 2.087 1_655 S
O569 C581 1.256 . S
Mn570 O569 2.087 1_455 S
Mn570 O577 2.089 1_455 S
Mn570 O586 2.290 . S
Mn570 O587 2.251 . S
O571 Mn568 2.160 . S
O571 C582 1.239 . S
O572 Mn568 2.221 . S
O572 Mn573 2.290 . S
O572 C583 1.278 . S
Mn573 O572 2.290 . S
Mn573 O575 2.089 . S
Mn573 O578 2.251 . S
Mn573 O579 2.087 . S
O574 Mn568 2.163 1_455 S
O574 C584 1.244 . S
O575 Mn573 2.089 . S
O575 C582 1.256 . S
O576 Mn568 2.160 . S
O576 C585 1.239 . S
O577 Mn570 2.089 1_655 S
O577 C585 1.256 . S
O578 Mn573 2.251 . S
O578 C583 1.241 . S
O579 Mn573 2.087 . S
O579 C584 1.256 1_655 S
C580 O586 1.278 . S
C580 O587 1.241 . S
C581 O567 1.244 . S
C581 O569 1.256 . S
C582 O571 1.239 . S
C582 O575 1.256 . S
C583 O572 1.278 . S
C583 O578 1.241 . S
C584 O574 1.244 . S
C584 O579 1.256 1_455 S
C585 O576 1.239 . S
C585 O577 1.256 . S
O586 Mn568 2.221 1_455 S
O586 Mn570 2.290 . S
O586 C580 1.278 . S
O587 Mn570 2.251 . S
O587 C580 1.241 . S
O588 Mn589 2.163 1_455 S
O588 C602 1.244 . S
Mn589 O588 2.163 1_655 S
Mn589 O592 2.160 . S
Mn589 O593 2.221 . S
Mn589 O595 2.163 1_545 S
Mn589 O597 2.160 . S
Mn589 O607 2.221 1_545 S
O590 Mn591 2.087 1_545 S
O590 C602 1.256 . S
Mn591 O590 2.087 1_565 S
Mn591 O598 2.089 1_565 S
Mn591 O607 2.290 1_455 S
Mn591 O608 2.251 . S
O592 Mn589 2.160 . S
O592 C603 1.239 . S
O593 Mn589 2.221 . S
O593 Mn594 2.290 . S
O593 C604 1.278 . S
Mn594 O593 2.290 . S
Mn594 O596 2.089 . S
Mn594 O599 2.251 . S
Mn594 O600 2.087 . S
O595 Mn589 2.163 1_565 S
O595 C605 1.244 . S
O596 Mn594 2.089 . S
O596 C603 1.256 . S
O597 Mn589 2.160 . S
O597 C606 1.239 1_655 S
O598 Mn591 2.089 1_545 S
O598 C606 1.256 . S
O599 Mn594 2.251 . S
O599 C604 1.241 . S
O600 Mn594 2.087 . S
O600 C605 1.256 1_545 S
C601 O607 1.278 . S
C601 O608 1.241 1_655 S
C602 O588 1.244 . S
C602 O590 1.256 . S
C603 O592 1.239 . S
C603 O596 1.256 . S
C604 O593 1.278 . S
C604 O599 1.241 . S
C605 O595 1.244 . S
C605 O600 1.256 1_565 S
C606 O597 1.239 1_455 S
C606 O598 1.256 . S
O607 Mn589 2.221 1_565 S
O607 Mn591 2.290 1_655 S
O607 C601 1.278 . S
O608 Mn591 2.251 . S
O608 C601 1.241 1_455 S
O609 Mn610 2.163 . S
O609 C623 1.244 . S
Mn610 O609 2.163 . S
Mn610 O613 2.160 . S
Mn610 O614 2.221 . S
Mn610 O616 2.163 . S
Mn610 O618 2.160 . S
Mn610 O628 2.221 . S
O611 Mn612 2.087 . S
O611 C623 1.256 . S
Mn612 O611 2.087 . S
Mn612 O619 2.089 . S
Mn612 O628 2.290 . S
Mn612 O629 2.251 . S
O613 Mn610 2.160 . S
O613 C624 1.239 . S
O614 Mn610 2.221 . S
O614 Mn615 2.290 . S
O614 C625 1.278 . S
Mn615 O614 2.290 . S
Mn615 O617 2.089 . S
Mn615 O620 2.251 . S
Mn615 O621 2.087 . S
O616 Mn610 2.163 . S
O616 C626 1.244 . S
O617 Mn615 2.089 . S
O617 C624 1.256 . S
O618 Mn610 2.160 . S
O618 C627 1.239 . S
O619 Mn612 2.089 . S
O619 C627 1.256 . S
O620 Mn615 2.251 . S
O620 C625 1.241 . S
O621 Mn615 2.087 . S
O621 C626 1.256 . S
C622 O628 1.278 . S
C622 O629 1.241 . S
C623 O609 1.244 . S
C623 O611 1.256 . S
C624 O613 1.239 . S
C624 O617 1.256 . S
C625 O614 1.278 . S
C625 O620 1.241 . S
C626 O616 1.244 . S
C626 O621 1.256 . S
C627 O618 1.239 . S
C627 O619 1.256 . S
O628 Mn610 2.221 . S
O628 Mn612 2.290 . S
O628 C622 1.278 . S
O629 Mn612 2.251 . S
O629 C622 1.241 . S
O630 Mn631 2.163 . S
O630 C644 1.244 . S
Mn631 O630 2.163 . S
Mn631 O634 2.160 . S
Mn631 O635 2.221 . S
Mn631 O637 2.163 . S
Mn631 O639 2.160 . S
Mn631 O649 2.221 . S
O632 Mn633 2.087 . S
O632 C644 1.256 . S
Mn633 O632 2.087 . S
Mn633 O640 2.089 . S
Mn633 O649 2.290 . S
Mn633 O650 2.251 . S
O634 Mn631 2.160 . S
O634 C645 1.239 . S
O635 Mn631 2.221 . S
O635 Mn636 2.290 . S
O635 C646 1.278 . S
Mn636 O635 2.290 . S
Mn636 O638 2.089 . S
Mn636 O641 2.251 . S
Mn636 O642 2.087 . S
O637 Mn631 2.163 . S
O637 C647 1.244 . S
O638 Mn636 2.089 . S
O638 C645 1.256 . S
O639 Mn631 2.160 . S
O639 C648 1.239 . S
O640 Mn633 2.089 . S
O640 C648 1.256 . S
O641 Mn636 2.251 . S
O641 C646 1.241 . S
O642 Mn636 2.087 . S
O642 C647 1.256 . S
C643 O649 1.278 . S
C643 O650 1.241 . S
C644 O630 1.244 . S
C644 O632 1.256 . S
C645 O634 1.239 . S
C645 O638 1.256 . S
C646 O635 1.278 . S
C646 O641 1.241 . S
C647 O637 1.244 . S
C647 O642 1.256 . S
C648 O639 1.239 . S
C648 O640 1.256 . S
O649 Mn631 2.221 . S
O649 Mn633 2.290 . S
O649 C643 1.278 . S
O650 Mn633 2.251 . S
O650 C643 1.241 . S
O651 Mn652 2.163 . S
O651 C665 1.244 . S
Mn652 O651 2.163 . S
Mn652 O655 2.160 . S
Mn652 O656 2.221 . S
Mn652 O658 2.163 . S
Mn652 O660 2.160 . S
Mn652 O670 2.221 . S
O653 Mn654 2.087 . S
O653 C665 1.256 . S
Mn654 O653 2.087 . S
Mn654 O661 2.089 . S
Mn654 O670 2.290 . S
Mn654 O671 2.251 . S
O655 Mn652 2.160 . S
O655 C666 1.239 . S
O656 Mn652 2.221 . S
O656 Mn657 2.290 . S
O656 C667 1.278 . S
Mn657 O656 2.290 . S
Mn657 O659 2.089 . S
Mn657 O662 2.251 . S
Mn657 O663 2.087 . S
O658 Mn652 2.163 . S
O658 C668 1.244 . S
O659 Mn657 2.089 . S
O659 C666 1.256 . S
O660 Mn652 2.160 . S
O660 C669 1.239 . S
O661 Mn654 2.089 . S
O661 C669 1.256 . S
O662 Mn657 2.251 . S
O662 C667 1.241 . S
O663 Mn657 2.087 . S
O663 C668 1.256 . S
C664 O670 1.278 . S
C664 O671 1.241 . S
C665 O651 1.244 . S
C665 O653 1.256 . S
C666 O655 1.239 . S
C666 O659 1.256 . S
C667 O656 1.278 . S
C667 O662 1.241 . S
C668 O658 1.244 . S
C668 O663 1.256 . S
C669 O660 1.239 . S
C669 O661 1.256 . S
O670 Mn652 2.221 . S
O670 Mn654 2.290 . S
O670 C664 1.278 . S
O671 Mn654 2.251 . S
O671 C664 1.241 . S
O672 Mn673 2.163 1_545 S
O672 C686 1.244 . S
Mn673 O672 2.163 1_565 S
Mn673 O676 2.160 . S
Mn673 O677 2.221 . S
Mn673 O679 2.163 . S
Mn673 O681 2.160 . S
Mn673 O691 2.221 . S
O674 Mn675 2.087 . S
O674 C686 1.256 . S
Mn675 O674 2.087 . S
Mn675 O682 2.089 . S
Mn675 O691 2.290 1_545 S
Mn675 O692 2.251 . S
O676 Mn673 2.160 . S
O676 C687 1.239 . S
O677 Mn673 2.221 . S
O677 Mn678 2.290 . S
O677 C688 1.278 . S
Mn678 O677 2.290 . S
Mn678 O680 2.089 . S
Mn678 O683 2.251 . S
Mn678 O684 2.087 . S
O679 Mn673 2.163 . S
O679 C689 1.244 . S
O680 Mn678 2.089 . S
O680 C687 1.256 . S
O681 Mn673 2.160 . S
O681 C690 1.239 1_565 S
O682 Mn675 2.089 . S
O682 C690 1.256 . S
O683 Mn678 2.251 . S
O683 C688 1.241 . S
O684 Mn678 2.087 . S
O684 C689 1.256 . S
C685 O691 1.278 . S
C685 O692 1.241 1_565 S
C686 O672 1.244 . S
C686 O674 1.256 . S
C687 O676 1.239 . S
C687 O680 1.256 . S
C688 O677 1.278 . S
C688 O683 1.241 . S
C689 O679 1.244 . S
C689 O684 1.256 . S
C690 O681 1.239 1_545 S
C690 O682 1.256 . S
O691 Mn673 2.221 . S
O691 Mn675 2.290 1_565 S
O691 C685 1.278 . S
O692 Mn675 2.251 . S
O692 C685 1.241 1_545 S
O693 Mn694 2.163 . S
O693 C707 1.244 . S
Mn694 O693 2.163 . S
Mn694 O697 2.160 . S
Mn694 O698 2.221 . S
Mn694 O700 2.163 . S
Mn694 O702 2.160 . S
Mn694 O712 2.221 . S
O695 Mn696 2.087 . S
O695 C707 1.256 . S
Mn696 O695 2.087 . S
Mn696 O703 2.089 . S
Mn696 O712 2.290 . S
Mn696 O713 2.251 . S
O697 Mn694 2.160 . S
O697 C708 1.239 . S
O698 Mn694 2.221 . S
O698 Mn699 2.290 . S
O698 C709 1.278 . S
Mn699 O698 2.290 . S
Mn699 O701 2.089 . S
Mn699 O704 2.251 . S
Mn699 O705 2.087 . S
O700 Mn694 2.163 . S
O700 C710 1.244 . S
O701 Mn699 2.089 . S
O701 C708 1.256 . S
O702 Mn694 2.160 . S
O702 C711 1.239 . S
O703 Mn696 2.089 . S
O703 C711 1.256 . S
O704 Mn699 2.251 . S
O704 C709 1.241 . S
O705 Mn699 2.087 . S
O705 C710 1.256 . S
C706 O712 1.278 . S
C706 O713 1.241 . S
C707 O693 1.244 . S
C707 O695 1.256 . S
C708 O697 1.239 . S
C708 O701 1.256 . S
C709 O698 1.278 . S
C709 O704 1.241 . S
C710 O700 1.244 . S
C710 O705 1.256 . S
C711 O702 1.239 . S
C711 O703 1.256 . S
O712 Mn694 2.221 . S
O712 Mn696 2.290 . S
O712 C706 1.278 . S
O713 Mn696 2.251 . S
O713 C706 1.241 . S
O714 Mn715 2.163 . S
O714 C728 1.244 . S
Mn715 O714 2.163 . S
Mn715 O718 2.160 . S
Mn715 O719 2.221 . S
Mn715 O721 2.163 . S
Mn715 O723 2.160 . S
Mn715 O733 2.221 . S
O716 Mn717 2.087 . S
O716 C728 1.256 . S
Mn717 O716 2.087 . S
Mn717 O724 2.089 . S
Mn717 O733 2.290 . S
Mn717 O734 2.251 . S
O718 Mn715 2.160 . S
O718 C729 1.239 . S
O719 Mn715 2.221 . S
O719 Mn720 2.290 . S
O719 C730 1.278 . S
Mn720 O719 2.290 . S
Mn720 O722 2.089 . S
Mn720 O725 2.251 . S
Mn720 O726 2.087 . S
O721 Mn715 2.163 . S
O721 C731 1.244 . S
O722 Mn720 2.089 . S
O722 C729 1.256 . S
O723 Mn715 2.160 . S
O723 C732 1.239 . S
O724 Mn717 2.089 . S
O724 C732 1.256 . S
O725 Mn720 2.251 . S
O725 C730 1.241 . S
O726 Mn720 2.087 . S
O726 C731 1.256 . S
C727 O733 1.278 . S
C727 O734 1.241 . S
C728 O714 1.244 . S
C728 O716 1.256 . S
C729 O718 1.239 . S
C729 O722 1.256 . S
C730 O719 1.278 . S
C730 O725 1.241 . S
C731 O721 1.244 . S
C731 O726 1.256 . S
C732 O723 1.239 . S
C732 O724 1.256 . S
O733 Mn715 2.221 . S
O733 Mn717 2.290 . S
O733 C727 1.278 . S
O734 Mn717 2.251 . S
O734 C727 1.241 . S
O735 Mn736 2.163 . S
O735 C749 1.244 . S
Mn736 O735 2.163 . S
Mn736 O739 2.160 . S
Mn736 O740 2.221 . S
Mn736 O742 2.163 1_556 S
Mn736 O744 2.160 . S
Mn736 O754 2.221 1_556 S
O737 Mn738 2.087 1_556 S
O737 C749 1.256 . S
Mn738 O737 2.087 1_554 S
Mn738 O745 2.089 1_554 S
Mn738 O754 2.290 . S
Mn738 O755 2.251 . S
O739 Mn736 2.160 . S
O739 C750 1.239 . S
O740 Mn736 2.221 . S
O740 Mn741 2.290 . S
O740 C751 1.278 . S
Mn741 O740 2.290 . S
Mn741 O743 2.089 . S
Mn741 O746 2.251 . S
Mn741 O747 2.087 . S
O742 Mn736 2.163 1_554 S
O742 C752 1.244 . S
O743 Mn741 2.089 . S
O743 C750 1.256 . S
O744 Mn736 2.160 . S
O744 C753 1.239 . S
O745 Mn738 2.089 1_556 S
O745 C753 1.256 . S
O746 Mn741 2.251 . S
O746 C751 1.241 . S
O747 Mn741 2.087 . S
O747 C752 1.256 1_556 S
C748 O754 1.278 . S
C748 O755 1.241 . S
C749 O735 1.244 . S
C749 O737 1.256 . S
C750 O739 1.239 . S
C750 O743 1.256 . S
C751 O740 1.278 . S
C751 O746 1.241 . S
C752 O742 1.244 . S
C752 O747 1.256 1_554 S
C753 O744 1.239 . S
C753 O745 1.256 . S
O754 Mn736 2.221 1_554 S
O754 Mn738 2.290 . S
O754 C748 1.278 . S
O755 Mn738 2.251 . S
O755 C748 1.241 . S
O756 Mn757 2.163 . S
O756 C770 1.244 . S
Mn757 O756 2.163 . S
Mn757 O760 2.160 . S
Mn757 O761 2.221 . S
Mn757 O763 2.163 1_554 S
Mn757 O765 2.160 . S
Mn757 O775 2.221 1_554 S
O758 Mn759 2.087 1_554 S
O758 C770 1.256 . S
Mn759 O758 2.087 1_556 S
Mn759 O766 2.089 1_556 S
Mn759 O775 2.290 . S
Mn759 O776 2.251 . S
O760 Mn757 2.160 . S
O760 C771 1.239 . S
O761 Mn757 2.221 . S
O761 Mn762 2.290 . S
O761 C772 1.278 . S
Mn762 O761 2.290 . S
Mn762 O764 2.089 . S
Mn762 O767 2.251 . S
Mn762 O768 2.087 . S
O763 Mn757 2.163 1_556 S
O763 C773 1.244 . S
O764 Mn762 2.089 . S
O764 C771 1.256 . S
O765 Mn757 2.160 . S
O765 C774 1.239 . S
O766 Mn759 2.089 1_554 S
O766 C774 1.256 . S
O767 Mn762 2.251 . S
O767 C772 1.241 . S
O768 Mn762 2.087 . S
O768 C773 1.256 1_554 S
C769 O775 1.278 . S
C769 O776 1.241 . S
C770 O756 1.244 . S
C770 O758 1.256 . S
C771 O760 1.239 . S
C771 O764 1.256 . S
C772 O761 1.278 . S
C772 O767 1.241 . S
C773 O763 1.244 . S
C773 O768 1.256 1_556 S
C774 O765 1.239 . S
C774 O766 1.256 . S
O775 Mn757 2.221 1_556 S
O775 Mn759 2.290 . S
O775 C769 1.278 . S
O776 Mn759 2.251 . S
O776 C769 1.241 . S
O777 Mn778 2.163 . S
O777 C791 1.244 . S
Mn778 O777 2.163 . S
Mn778 O781 2.160 . S
Mn778 O782 2.221 . S
Mn778 O784 2.163 . S
Mn778 O786 2.160 . S
Mn778 O796 2.221 . S
O779 Mn780 2.087 . S
O779 C791 1.256 . S
Mn780 O779 2.087 . S
Mn780 O787 2.089 . S
Mn780 O796 2.290 . S
Mn780 O797 2.251 . S
O781 Mn778 2.160 . S
O781 C792 1.239 . S
O782 Mn778 2.221 . S
O782 Mn783 2.290 . S
O782 C793 1.278 . S
Mn783 O782 2.290 . S
Mn783 O785 2.089 . S
Mn783 O788 2.251 . S
Mn783 O789 2.087 . S
O784 Mn778 2.163 . S
O784 C794 1.244 . S
O785 Mn783 2.089 . S
O785 C792 1.256 . S
O786 Mn778 2.160 . S
O786 C795 1.239 . S
O787 Mn780 2.089 . S
O787 C795 1.256 . S
O788 Mn783 2.251 . S
O788 C793 1.241 . S
O789 Mn783 2.087 . S
O789 C794 1.256 . S
C790 O796 1.278 . S
C790 O797 1.241 . S
C791 O777 1.244 . S
C791 O779 1.256 . S
C792 O781 1.239 . S
C792 O785 1.256 . S
C793 O782 1.278 . S
C793 O788 1.241 . S
C794 O784 1.244 . S
C794 O789 1.256 . S
C795 O786 1.239 . S
C795 O787 1.256 . S
O796 Mn778 2.221 . S
O796 Mn780 2.290 . S
O796 C790 1.278 . S
O797 Mn780 2.251 . S
O797 C790 1.241 . S
O798 Mn799 2.163 . S
O798 C812 1.244 . S
Mn799 O798 2.163 . S
Mn799 O802 2.160 . S
Mn799 O803 2.221 . S
Mn799 O805 2.163 . S
Mn799 O807 2.160 . S
Mn799 O817 2.221 . S
O800 Mn801 2.087 . S
O800 C812 1.256 . S
Mn801 O800 2.087 . S
Mn801 O808 2.089 . S
Mn801 O817 2.290 . S
Mn801 O818 2.251 . S
O802 Mn799 2.160 . S
O802 C813 1.239 . S
O803 Mn799 2.221 . S
O803 Mn804 2.290 . S
O803 C814 1.278 . S
Mn804 O803 2.290 . S
Mn804 O806 2.089 . S
Mn804 O809 2.251 . S
Mn804 O810 2.087 . S
O805 Mn799 2.163 . S
O805 C815 1.244 . S
O806 Mn804 2.089 . S
O806 C813 1.256 . S
O807 Mn799 2.160 . S
O807 C816 1.239 . S
O808 Mn801 2.089 . S
O808 C816 1.256 . S
O809 Mn804 2.251 . S
O809 C814 1.241 . S
O810 Mn804 2.087 . S
O810 C815 1.256 . S
C811 O817 1.278 . S
C811 O818 1.241 . S
C812 O798 1.244 . S
C812 O800 1.256 . S
C813 O802 1.239 . S
C813 O806 1.256 . S
C814 O803 1.278 . S
C814 O809 1.241 . S
C815 O805 1.244 . S
C815 O810 1.256 . S
C816 O807 1.239 . S
C816 O808 1.256 . S
O817 Mn799 2.221 . S
O817 Mn801 2.290 . S
O817 C811 1.278 . S
O818 Mn801 2.251 . S
O818 C811 1.241 . S
O819 Mn820 2.163 1_655 S
O819 C833 1.244 . S
Mn820 O819 2.163 1_455 S
Mn820 O823 2.160 . S
Mn820 O824 2.221 . S
Mn820 O826 2.163 . S
Mn820 O828 2.160 . S
Mn820 O838 2.221 . S
O821 Mn822 2.087 . S
O821 C833 1.256 . S
Mn822 O821 2.087 . S
Mn822 O829 2.089 . S
Mn822 O838 2.290 1_655 S
Mn822 O839 2.251 . S
O823 Mn820 2.160 . S
O823 C834 1.239 . S
O824 Mn820 2.221 . S
O824 Mn825 2.290 . S
O824 C835 1.278 . S
Mn825 O824 2.290 . S
Mn825 O827 2.089 . S
Mn825 O830 2.251 . S
Mn825 O831 2.087 . S
O826 Mn820 2.163 . S
O826 C836 1.244 . S
O827 Mn825 2.089 . S
O827 C834 1.256 . S
O828 Mn820 2.160 . S
O828 C837 1.239 1_455 S
O829 Mn822 2.089 . S
O829 C837 1.256 . S
O830 Mn825 2.251 . S
O830 C835 1.241 . S
O831 Mn825 2.087 . S
O831 C836 1.256 . S
C832 O838 1.278 . S
C832 O839 1.241 1_455 S
C833 O819 1.244 . S
C833 O821 1.256 . S
C834 O823 1.239 . S
C834 O827 1.256 . S
C835 O824 1.278 . S
C835 O830 1.241 . S
C836 O826 1.244 . S
C836 O831 1.256 . S
C837 O828 1.239 1_655 S
C837 O829 1.256 . S
O838 Mn820 2.221 . S
O838 Mn822 2.290 1_455 S
O838 C832 1.278 . S
O839 Mn822 2.251 . S
O839 C832 1.241 1_655 S
O840 Mn841 2.163 1_554 S
O840 C854 1.244 . S
Mn841 O840 2.163 1_556 S
Mn841 O844 2.160 . S
Mn841 O845 2.221 . S
Mn841 O847 2.163 . S
Mn841 O849 2.160 . S
Mn841 O859 2.221 . S
O842 Mn843 2.087 . S
O842 C854 1.256 . S
Mn843 O842 2.087 . S
Mn843 O850 2.089 . S
Mn843 O859 2.290 1_554 S
Mn843 O860 2.251 . S
O844 Mn841 2.160 . S
O844 C855 1.239 . S
O845 Mn841 2.221 . S
O845 Mn846 2.290 . S
O845 C856 1.278 . S
Mn846 O845 2.290 . S
Mn846 O848 2.089 . S
Mn846 O851 2.251 . S
Mn846 O852 2.087 . S
O847 Mn841 2.163 . S
O847 C857 1.244 . S
O848 Mn846 2.089 . S
O848 C855 1.256 . S
O849 Mn841 2.160 . S
O849 C858 1.239 1_556 S
O850 Mn843 2.089 . S
O850 C858 1.256 . S
O851 Mn846 2.251 . S
O851 C856 1.241 . S
O852 Mn846 2.087 . S
O852 C857 1.256 . S
C853 O859 1.278 . S
C853 O860 1.241 1_556 S
C854 O840 1.244 . S
C854 O842 1.256 . S
C855 O844 1.239 . S
C855 O848 1.256 . S
C856 O845 1.278 . S
C856 O851 1.241 . S
C857 O847 1.244 . S
C857 O852 1.256 . S
C858 O849 1.239 1_554 S
C858 O850 1.256 . S
O859 Mn841 2.221 . S
O859 Mn843 2.290 1_556 S
O859 C853 1.278 . S
O860 Mn843 2.251 . S
O860 C853 1.241 1_554 S
O861 Mn862 2.163 . S
O861 C875 1.244 . S
Mn862 O861 2.163 . S
Mn862 O865 2.160 . S
Mn862 O866 2.221 . S
Mn862 O868 2.163 . S
Mn862 O870 2.160 . S
Mn862 O880 2.221 . S
O863 Mn864 2.087 . S
O863 C875 1.256 . S
Mn864 O863 2.087 . S
Mn864 O871 2.089 . S
Mn864 O880 2.290 . S
Mn864 O881 2.251 . S
O865 Mn862 2.160 . S
O865 C876 1.239 . S
O866 Mn862 2.221 . S
O866 Mn867 2.290 . S
O866 C877 1.278 . S
Mn867 O866 2.290 . S
Mn867 O869 2.089 . S
Mn867 O872 2.251 . S
Mn867 O873 2.087 . S
O868 Mn862 2.163 . S
O868 C878 1.244 . S
O869 Mn867 2.089 . S
O869 C876 1.256 . S
O870 Mn862 2.160 . S
O870 C879 1.239 . S
O871 Mn864 2.089 . S
O871 C879 1.256 . S
O872 Mn867 2.251 . S
O872 C877 1.241 . S
O873 Mn867 2.087 . S
O873 C878 1.256 . S
C874 O880 1.278 . S
C874 O881 1.241 . S
C875 O861 1.244 . S
C875 O863 1.256 . S
C876 O865 1.239 . S
C876 O869 1.256 . S
C877 O866 1.278 . S
C877 O872 1.241 . S
C878 O868 1.244 . S
C878 O873 1.256 . S
C879 O870 1.239 . S
C879 O871 1.256 . S
O880 Mn862 2.221 . S
O880 Mn864 2.290 . S
O880 C874 1.278 . S
O881 Mn864 2.251 . S
O881 C874 1.241 . S
O882 Mn883 2.163 1_556 S
O882 C896 1.244 . S
Mn883 O882 2.163 1_554 S
Mn883 O886 2.160 . S
Mn883 O887 2.221 . S
Mn883 O889 2.163 1_565 S
Mn883 O891 2.160 . S
Mn883 O901 2.221 1_565 S
O884 Mn885 2.087 1_565 S
O884 C896 1.256 . S
Mn885 O884 2.087 1_545 S
Mn885 O892 2.089 1_545 S
Mn885 O901 2.290 1_556 S
Mn885 O902 2.251 . S
O886 Mn883 2.160 . S
O886 C897 1.239 . S
O887 Mn883 2.221 . S
O887 Mn888 2.290 . S
O887 C898 1.278 . S
Mn888 O887 2.290 . S
Mn888 O890 2.089 . S
Mn888 O893 2.251 . S
Mn888 O894 2.087 . S
O889 Mn883 2.163 1_545 S
O889 C899 1.244 . S
O890 Mn888 2.089 . S
O890 C897 1.256 . S
O891 Mn883 2.160 . S
O891 C900 1.239 1_554 S
O892 Mn885 2.089 1_565 S
O892 C900 1.256 . S
O893 Mn888 2.251 . S
O893 C898 1.241 . S
O894 Mn888 2.087 . S
O894 C899 1.256 1_565 S
C895 O901 1.278 . S
C895 O902 1.241 1_554 S
C896 O882 1.244 . S
C896 O884 1.256 . S
C897 O886 1.239 . S
C897 O890 1.256 . S
C898 O887 1.278 . S
C898 O893 1.241 . S
C899 O889 1.244 . S
C899 O894 1.256 1_545 S
C900 O891 1.239 1_556 S
C900 O892 1.256 . S
O901 Mn883 2.221 1_545 S
O901 Mn885 2.290 1_554 S
O901 C895 1.278 . S
O902 Mn885 2.251 . S
O902 C895 1.241 1_556 S
O903 Mn904 2.163 . S
O903 C917 1.244 . S
Mn904 O903 2.163 . S
Mn904 O907 2.160 . S
Mn904 O908 2.221 . S
Mn904 O910 2.163 . S
Mn904 O912 2.160 . S
Mn904 O922 2.221 . S
O905 Mn906 2.087 . S
O905 C917 1.256 . S
Mn906 O905 2.087 . S
Mn906 O913 2.089 . S
Mn906 O922 2.290 . S
Mn906 O923 2.251 . S
O907 Mn904 2.160 . S
O907 C918 1.239 . S
O908 Mn904 2.221 . S
O908 Mn909 2.290 . S
O908 C919 1.278 . S
Mn909 O908 2.290 . S
Mn909 O911 2.089 . S
Mn909 O914 2.251 . S
Mn909 O915 2.087 . S
O910 Mn904 2.163 . S
O910 C920 1.244 . S
O911 Mn909 2.089 . S
O911 C918 1.256 . S
O912 Mn904 2.160 . S
O912 C921 1.239 . S
O913 Mn906 2.089 . S
O913 C921 1.256 . S
O914 Mn909 2.251 . S
O914 C919 1.241 . S
O915 Mn909 2.087 . S
O915 C920 1.256 . S
C916 O922 1.278 . S
C916 O923 1.241 . S
C917 O903 1.244 . S
C917 O905 1.256 . S
C918 O907 1.239 . S
C918 O911 1.256 . S
C919 O908 1.278 . S
C919 O914 1.241 . S
C920 O910 1.244 . S
C920 O915 1.256 . S
C921 O912 1.239 . S
C921 O913 1.256 . S
O922 Mn904 2.221 . S
O922 Mn906 2.290 . S
O922 C916 1.278 . S
O923 Mn906 2.251 . S
O923 C916 1.241 . S
O924 Mn925 2.163 . S
O924 C938 1.244 . S
Mn925 O924 2.163 . S
Mn925 O928 2.160 . S
Mn925 O929 2.221 . S
Mn925 O931 2.163 . S
Mn925 O933 2.160 . S
Mn925 O943 2.221 . S
O926 Mn927 2.087 . S
O926 C938 1.256 . S
Mn927 O926 2.087 . S
Mn927 O934 2.089 . S
Mn927 O943 2.290 . S
Mn927 O944 2.251 . S
O928 Mn925 2.160 . S
O928 C939 1.239 . S
O929 Mn925 2.221 . S
O929 Mn930 2.290 . S
O929 C940 1.278 . S
Mn930 O929 2.290 . S
Mn930 O932 2.089 . S
Mn930 O935 2.251 . S
Mn930 O936 2.087 . S
O931 Mn925 2.163 . S
O931 C941 1.244 . S
O932 Mn930 2.089 . S
O932 C939 1.256 . S
O933 Mn925 2.160 . S
O933 C942 1.239 . S
O934 Mn927 2.089 . S
O934 C942 1.256 . S
O935 Mn930 2.251 . S
O935 C940 1.241 . S
O936 Mn930 2.087 . S
O936 C941 1.256 . S
C937 O943 1.278 . S
C937 O944 1.241 . S
C938 O924 1.244 . S
C938 O926 1.256 . S
C939 O928 1.239 . S
C939 O932 1.256 . S
C940 O929 1.278 . S
C940 O935 1.241 . S
C941 O931 1.244 . S
C941 O936 1.256 . S
C942 O933 1.239 . S
C942 O934 1.256 . S
O943 Mn925 2.221 . S
O943 Mn927 2.290 . S
O943 C937 1.278 . S
O944 Mn927 2.251 . S
O944 C937 1.241 . S
O945 Mn946 2.163 1_554 S
O945 C959 1.244 . S
Mn946 O945 2.163 1_556 S
Mn946 O949 2.160 . S
Mn946 O950 2.221 . S
Mn946 O952 2.163 1_455 S
Mn946 O954 2.160 . S
Mn946 O964 2.221 1_455 S
O947 Mn948 2.087 1_455 S
O947 C959 1.256 . S
Mn948 O947 2.087 1_655 S
Mn948 O955 2.089 1_655 S
Mn948 O964 2.290 1_554 S
Mn948 O965 2.251 . S
O949 Mn946 2.160 . S
O949 C960 1.239 . S
O950 Mn946 2.221 . S
O950 Mn951 2.290 . S
O950 C961 1.278 . S
Mn951 O950 2.290 . S
Mn951 O953 2.089 . S
Mn951 O956 2.251 . S
Mn951 O957 2.087 . S
O952 Mn946 2.163 1_655 S
O952 C962 1.244 . S
O953 Mn951 2.089 . S
O953 C960 1.256 . S
O954 Mn946 2.160 . S
O954 C963 1.239 1_556 S
O955 Mn948 2.089 1_455 S
O955 C963 1.256 . S
O956 Mn951 2.251 . S
O956 C961 1.241 . S
O957 Mn951 2.087 . S
O957 C962 1.256 1_455 S
C958 O964 1.278 . S
C958 O965 1.241 1_556 S
C959 O945 1.244 . S
C959 O947 1.256 . S
C960 O949 1.239 . S
C960 O953 1.256 . S
C961 O950 1.278 . S
C961 O956 1.241 . S
C962 O952 1.244 . S
C962 O957 1.256 1_655 S
C963 O954 1.239 1_554 S
C963 O955 1.256 . S
O964 Mn946 2.221 1_655 S
O964 Mn948 2.290 1_556 S
O964 C958 1.278 . S
O965 Mn948 2.251 . S
O965 C958 1.241 1_554 S
O966 Mn967 2.163 . S
O966 C980 1.244 . S
Mn967 O966 2.163 . S
Mn967 O970 2.160 . S
Mn967 O971 2.221 . S
Mn967 O973 2.163 . S
Mn967 O975 2.160 . S
Mn967 O985 2.221 . S
O968 Mn969 2.087 . S
O968 C980 1.256 . S
Mn969 O968 2.087 . S
Mn969 O976 2.089 . S
Mn969 O985 2.290 . S
Mn969 O986 2.251 . S
O970 Mn967 2.160 . S
O970 C981 1.239 . S
O971 Mn967 2.221 . S
O971 Mn972 2.290 . S
O971 C982 1.278 . S
Mn972 O971 2.290 . S
Mn972 O974 2.089 . S
Mn972 O977 2.251 . S
Mn972 O978 2.087 . S
O973 Mn967 2.163 . S
O973 C983 1.244 . S
O974 Mn972 2.089 . S
O974 C981 1.256 . S
O975 Mn967 2.160 . S
O975 C984 1.239 . S
O976 Mn969 2.089 . S
O976 C984 1.256 . S
O977 Mn972 2.251 . S
O977 C982 1.241 . S
O978 Mn972 2.087 . S
O978 C983 1.256 . S
C979 O985 1.278 . S
C979 O986 1.241 . S
C980 O966 1.244 . S
C980 O968 1.256 . S
C981 O970 1.239 . S
C981 O974 1.256 . S
C982 O971 1.278 . S
C982 O977 1.241 . S
C983 O973 1.244 . S
C983 O978 1.256 . S
C984 O975 1.239 . S
C984 O976 1.256 . S
O985 Mn967 2.221 . S
O985 Mn969 2.290 . S
O985 C979 1.278 . S
O986 Mn969 2.251 . S
O986 C979 1.241 . S
O987 Mn988 2.163 . S
O987 C1001 1.244 . S
Mn988 O987 2.163 . S
Mn988 O991 2.160 . S
Mn988 O992 2.221 . S
Mn988 O994 2.163 1_565 S
Mn988 O996 2.160 . S
Mn988 O1006 2.221 1_565 S
O989 Mn990 2.087 1_565 S
O989 C1001 1.256 . S
Mn990 O989 2.087 1_545 S
Mn990 O997 2.089 1_545 S
Mn990 O1006 2.290 . S
Mn990 O1007 2.251 . S
O991 Mn988 2.160 . S
O991 C1002 1.239 . S
O992 Mn988 2.221 . S
O992 Mn993 2.290 . S
O992 C1003 1.278 . S
Mn993 O992 2.290 . S
Mn993 O995 2.089 . S
Mn993 O998 2.251 . S
Mn993 O999 2.087 . S
O994 Mn988 2.163 1_545 S
O994 C1004 1.244 . S
O995 Mn993 2.089 . S
O995 C1002 1.256 . S
O996 Mn988 2.160 . S
O996 C1005 1.239 . S
O997 Mn990 2.089 1_565 S
O997 C1005 1.256 . S
O998 Mn993 2.251 . S
O998 C1003 1.241 . S
O999 Mn993 2.087 . S
O999 C1004 1.256 1_565 S
C1000 O1006 1.278 . S
C1000 O1007 1.241 . S
C1001 O987 1.244 . S
C1001 O989 1.256 . S
C1002 O991 1.239 . S
C1002 O995 1.256 . S
C1003 O992 1.278 . S
C1003 O998 1.241 . S
C1004 O994 1.244 . S
C1004 O999 1.256 1_545 S
C1005 O996 1.239 . S
C1005 O997 1.256 . S
O1006 Mn988 2.221 1_545 S
O1006 Mn990 2.290 . S
O1006 C1000 1.278 . S
O1007 Mn990 2.251 . S
O1007 C1000 1.241 . S
O1008 Mn1009 2.163 . S
O1008 C1022 1.244 . S
Mn1009 O1008 2.163 . S
Mn1009 O1012 2.160 . S
Mn1009 O1013 2.221 . S
Mn1009 O1015 2.163 1_455 S
Mn1009 O1017 2.160 . S
Mn1009 O1027 2.221 . S
O1010 Mn1011 2.087 . S
O1010 C1022 1.256 . S
Mn1011 O1010 2.087 . S
Mn1011 O1018 2.089 . S
Mn1011 O1027 2.290 . S
Mn1011 O1028 2.251 . S
O1012 Mn1009 2.160 . S
O1012 C1023 1.239 1_455 S
O1013 Mn1009 2.221 . S
O1013 Mn1014 2.290 1_455 S
O1013 C1024 1.278 . S
Mn1014 O1013 2.290 1_655 S
Mn1014 O1016 2.089 . S
Mn1014 O1019 2.251 . S
Mn1014 O1020 2.087 . S
O1015 Mn1009 2.163 1_655 S
O1015 C1025 1.244 . S
O1016 Mn1014 2.089 . S
O1016 C1023 1.256 . S
O1017 Mn1009 2.160 . S
O1017 C1026 1.239 . S
O1018 Mn1011 2.089 . S
O1018 C1026 1.256 . S
O1019 Mn1014 2.251 . S
O1019 C1024 1.241 1_655 S
O1020 Mn1014 2.087 . S
O1020 C1025 1.256 . S
C1021 O1027 1.278 . S
C1021 O1028 1.241 . S
C1022 O1008 1.244 . S
C1022 O1010 1.256 . S
C1023 O1012 1.239 1_655 S
C1023 O1016 1.256 . S
C1024 O1013 1.278 . S
C1024 O1019 1.241 1_455 S
C1025 O1015 1.244 . S
C1025 O1020 1.256 . S
C1026 O1017 1.239 . S
C1026 O1018 1.256 . S
O1027 Mn1009 2.221 . S
O1027 Mn1011 2.290 . S
O1027 C1021 1.278 . S
O1028 Mn1011 2.251 . S
O1028 C1021 1.241 . S
O1029 Mn1030 2.163 . S
O1029 C1043 1.244 . S
Mn1030 O1029 2.163 . S
Mn1030 O1033 2.160 . S
Mn1030 O1034 2.221 . S
Mn1030 O1036 2.163 . S
Mn1030 O1038 2.160 . S
Mn1030 O1048 2.221 . S
O1031 Mn1032 2.087 . S
O1031 C1043 1.256 . S
Mn1032 O1031 2.087 . S
Mn1032 O1039 2.089 . S
Mn1032 O1048 2.290 . S
Mn1032 O1049 2.251 . S
O1033 Mn1030 2.160 . S
O1033 C1044 1.239 . S
O1034 Mn1030 2.221 . S
O1034 Mn1035 2.290 . S
O1034 C1045 1.278 . S
Mn1035 O1034 2.290 . S
Mn1035 O1037 2.089 . S
Mn1035 O1040 2.251 . S
Mn1035 O1041 2.087 . S
O1036 Mn1030 2.163 . S
O1036 C1046 1.244 . S
O1037 Mn1035 2.089 . S
O1037 C1044 1.256 . S
O1038 Mn1030 2.160 . S
O1038 C1047 1.239 . S
O1039 Mn1032 2.089 . S
O1039 C1047 1.256 . S
O1040 Mn1035 2.251 . S
O1040 C1045 1.241 . S
O1041 Mn1035 2.087 . S
O1041 C1046 1.256 . S
C1042 O1048 1.278 . S
C1042 O1049 1.241 . S
C1043 O1029 1.244 . S
C1043 O1031 1.256 . S
C1044 O1033 1.239 . S
C1044 O1037 1.256 . S
C1045 O1034 1.278 . S
C1045 O1040 1.241 . S
C1046 O1036 1.244 . S
C1046 O1041 1.256 . S
C1047 O1038 1.239 . S
C1047 O1039 1.256 . S
O1048 Mn1030 2.221 . S
O1048 Mn1032 2.290 . S
O1048 C1042 1.278 . S
O1049 Mn1032 2.251 . S
O1049 C1042 1.241 . S
O1050 Mn1051 2.163 . S
O1050 C1064 1.244 . S
Mn1051 O1050 2.163 . S
Mn1051 O1054 2.160 . S
Mn1051 O1055 2.221 . S
Mn1051 O1057 2.163 1_565 S
Mn1051 O1059 2.160 . S
Mn1051 O1069 2.221 1_565 S
O1052 Mn1053 2.087 1_565 S
O1052 C1064 1.256 . S
Mn1053 O1052 2.087 1_545 S
Mn1053 O1060 2.089 1_545 S
Mn1053 O1069 2.290 . S
Mn1053 O1070 2.251 . S
O1054 Mn1051 2.160 . S
O1054 C1065 1.239 . S
O1055 Mn1051 2.221 . S
O1055 Mn1056 2.290 . S
O1055 C1066 1.278 . S
Mn1056 O1055 2.290 . S
Mn1056 O1058 2.089 . S
Mn1056 O1061 2.251 . S
Mn1056 O1062 2.087 . S
O1057 Mn1051 2.163 1_545 S
O1057 C1067 1.244 . S
O1058 Mn1056 2.089 . S
O1058 C1065 1.256 . S
O1059 Mn1051 2.160 . S
O1059 C1068 1.239 . S
O1060 Mn1053 2.089 1_565 S
O1060 C1068 1.256 . S
O1061 Mn1056 2.251 . S
O1061 C1066 1.241 . S
O1062 Mn1056 2.087 . S
O1062 C1067 1.256 1_565 S
C1063 O1069 1.278 . S
C1063 O1070 1.241 . S
C1064 O1050 1.244 . S
C1064 O1052 1.256 . S
C1065 O1054 1.239 . S
C1065 O1058 1.256 . S
C1066 O1055 1.278 . S
C1066 O1061 1.241 . S
C1067 O1057 1.244 . S
C1067 O1062 1.256 1_545 S
C1068 O1059 1.239 . S
C1068 O1060 1.256 . S
O1069 Mn1051 2.221 1_545 S
O1069 Mn1053 2.290 . S
O1069 C1063 1.278 . S
O1070 Mn1053 2.251 . S
O1070 C1063 1.241 . S
O1071 Mn1072 2.163 1_655 S
O1071 C1085 1.244 . S
Mn1072 O1071 2.163 1_455 S
Mn1072 O1075 2.160 . S
Mn1072 O1076 2.221 1_455 S
Mn1072 O1078 2.163 1_565 S
Mn1072 O1080 2.160 . S
Mn1072 O1090 2.221 . S
O1073 Mn1074 2.087 . S
O1073 C1085 1.256 1_455 S
Mn1074 O1073 2.087 . S
Mn1074 O1081 2.089 . S
Mn1074 O1090 2.290 . S
Mn1074 O1091 2.251 . S
O1075 Mn1072 2.160 . S
O1075 C1086 1.239 1_565 S
O1076 Mn1072 2.221 1_655 S
O1076 Mn1077 2.290 1_565 S
O1076 C1087 1.278 . S
Mn1077 O1076 2.290 1_545 S
Mn1077 O1079 2.089 1_655 S
Mn1077 O1082 2.251 . S
Mn1077 O1083 2.087 1_655 S
O1078 Mn1072 2.163 1_545 S
O1078 C1088 1.244 . S
O1079 Mn1077 2.089 1_455 S
O1079 C1086 1.256 . S
O1080 Mn1072 2.160 . S
O1080 C1089 1.239 . S
O1081 Mn1074 2.089 . S
O1081 C1089 1.256 . S
O1082 Mn1077 2.251 . S
O1082 C1087 1.241 1_545 S
O1083 Mn1077 2.087 1_455 S
O1083 C1088 1.256 . S
C1084 O1090 1.278 . S
C1084 O1091 1.241 . S
C1085 O1071 1.244 . S
C1085 O1073 1.256 1_655 S
C1086 O1075 1.239 1_545 S
C1086 O1079 1.256 . S
C1087 O1076 1.278 . S
C1087 O1082 1.241 1_565 S
C1088 O1078 1.244 . S
C1088 O1083 1.256 . S
C1089 O1080 1.239 . S
C1089 O1081 1.256 . S
O1090 Mn1072 2.221 . S
O1090 Mn1074 2.290 . S
O1090 C1084 1.278 . S
O1091 Mn1074 2.251 . S
O1091 C1084 1.241 . S
O1092 Mn1093 2.163 1_655 S
O1092 C1106 1.244 . S
Mn1093 O1092 2.163 1_455 S
Mn1093 O1096 2.160 . S
Mn1093 O1097 2.221 . S
Mn1093 O1099 2.163 . S
Mn1093 O1101 2.160 . S
Mn1093 O1111 2.221 . S
O1094 Mn1095 2.087 . S
O1094 C1106 1.256 . S
Mn1095 O1094 2.087 . S
Mn1095 O1102 2.089 . S
Mn1095 O1111 2.290 1_655 S
Mn1095 O1112 2.251 . S
O1096 Mn1093 2.160 . S
O1096 C1107 1.239 . S
O1097 Mn1093 2.221 . S
O1097 Mn1098 2.290 . S
O1097 C1108 1.278 . S
Mn1098 O1097 2.290 . S
Mn1098 O1100 2.089 . S
Mn1098 O1103 2.251 . S
Mn1098 O1104 2.087 . S
O1099 Mn1093 2.163 . S
O1099 C1109 1.244 . S
O1100 Mn1098 2.089 . S
O1100 C1107 1.256 . S
O1101 Mn1093 2.160 . S
O1101 C1110 1.239 1_455 S
O1102 Mn1095 2.089 . S
O1102 C1110 1.256 . S
O1103 Mn1098 2.251 . S
O1103 C1108 1.241 . S
O1104 Mn1098 2.087 . S
O1104 C1109 1.256 . S
C1105 O1111 1.278 . S
C1105 O1112 1.241 1_455 S
C1106 O1092 1.244 . S
C1106 O1094 1.256 . S
C1107 O1096 1.239 . S
C1107 O1100 1.256 . S
C1108 O1097 1.278 . S
C1108 O1103 1.241 . S
C1109 O1099 1.244 . S
C1109 O1104 1.256 . S
C1110 O1101 1.239 1_655 S
C1110 O1102 1.256 . S
O1111 Mn1093 2.221 . S
O1111 Mn1095 2.290 1_455 S
O1111 C1105 1.278 . S
O1112 Mn1095 2.251 . S
O1112 C1105 1.241 1_655 S
O1113 Mn1114 2.163 . S
O1113 C1127 1.244 . S
Mn1114 O1113 2.163 . S
Mn1114 O1117 2.160 . S
Mn1114 O1118 2.221 . S
Mn1114 O1120 2.163 . S
Mn1114 O1122 2.160 . S
Mn1114 O1132 2.221 . S
O1115 Mn1116 2.087 . S
O1115 C1127 1.256 . S
Mn1116 O1115 2.087 . S
Mn1116 O1123 2.089 . S
Mn1116 O1132 2.290 . S
Mn1116 O1133 2.251 . S
O1117 Mn1114 2.160 . S
O1117 C1128 1.239 . S
O1118 Mn1114 2.221 . S
O1118 Mn1119 2.290 . S
O1118 C1129 1.278 . S
Mn1119 O1118 2.290 . S
Mn1119 O1121 2.089 . S
Mn1119 O1124 2.251 . S
Mn1119 O1125 2.087 . S
O1120 Mn1114 2.163 . S
O1120 C1130 1.244 . S
O1121 Mn1119 2.089 . S
O1121 C1128 1.256 . S
O1122 Mn1114 2.160 . S
O1122 C1131 1.239 . S
O1123 Mn1116 2.089 . S
O1123 C1131 1.256 . S
O1124 Mn1119 2.251 . S
O1124 C1129 1.241 . S
O1125 Mn1119 2.087 . S
O1125 C1130 1.256 . S
C1126 O1132 1.278 . S
C1126 O1133 1.241 . S
C1127 O1113 1.244 . S
C1127 O1115 1.256 . S
C1128 O1117 1.239 . S
C1128 O1121 1.256 . S
C1129 O1118 1.278 . S
C1129 O1124 1.241 . S
C1130 O1120 1.244 . S
C1130 O1125 1.256 . S
C1131 O1122 1.239 . S
C1131 O1123 1.256 . S
O1132 Mn1114 2.221 . S
O1132 Mn1116 2.290 . S
O1132 C1126 1.278 . S
O1133 Mn1116 2.251 . S
O1133 C1126 1.241 . S
O1134 Mn1135 2.163 . S
O1134 C1148 1.244 . S
Mn1135 O1134 2.163 . S
Mn1135 O1138 2.160 . S
Mn1135 O1139 2.221 . S
Mn1135 O1141 2.163 . S
Mn1135 O1143 2.160 . S
Mn1135 O1153 2.221 . S
O1136 Mn1137 2.087 . S
O1136 C1148 1.256 . S
Mn1137 O1136 2.087 . S
Mn1137 O1144 2.089 . S
Mn1137 O1153 2.290 . S
Mn1137 O1154 2.251 . S
O1138 Mn1135 2.160 . S
O1138 C1149 1.239 . S
O1139 Mn1135 2.221 . S
O1139 Mn1140 2.290 . S
O1139 C1150 1.278 . S
Mn1140 O1139 2.290 . S
Mn1140 O1142 2.089 . S
Mn1140 O1145 2.251 . S
Mn1140 O1146 2.087 . S
O1141 Mn1135 2.163 . S
O1141 C1151 1.244 . S
O1142 Mn1140 2.089 . S
O1142 C1149 1.256 . S
O1143 Mn1135 2.160 . S
O1143 C1152 1.239 . S
O1144 Mn1137 2.089 . S
O1144 C1152 1.256 . S
O1145 Mn1140 2.251 . S
O1145 C1150 1.241 . S
O1146 Mn1140 2.087 . S
O1146 C1151 1.256 . S
C1147 O1153 1.278 . S
C1147 O1154 1.241 . S
C1148 O1134 1.244 . S
C1148 O1136 1.256 . S
C1149 O1138 1.239 . S
C1149 O1142 1.256 . S
C1150 O1139 1.278 . S
C1150 O1145 1.241 . S
C1151 O1141 1.244 . S
C1151 O1146 1.256 . S
C1152 O1143 1.239 . S
C1152 O1144 1.256 . S
O1153 Mn1135 2.221 . S
O1153 Mn1137 2.290 . S
O1153 C1147 1.278 . S
O1154 Mn1137 2.251 . S
O1154 C1147 1.241 . S
O1155 Mn1156 2.163 . S
O1155 C1169 1.244 . S
Mn1156 O1155 2.163 . S
Mn1156 O1159 2.160 . S
Mn1156 O1160 2.221 . S
Mn1156 O1162 2.163 1_565 S
Mn1156 O1164 2.160 . S
Mn1156 O1174 2.221 . S
O1157 Mn1158 2.087 . S
O1157 C1169 1.256 . S
Mn1158 O1157 2.087 . S
Mn1158 O1165 2.089 . S
Mn1158 O1174 2.290 . S
Mn1158 O1175 2.251 . S
O1159 Mn1156 2.160 . S
O1159 C1170 1.239 1_565 S
O1160 Mn1156 2.221 . S
O1160 Mn1161 2.290 1_565 S
O1160 C1171 1.278 . S
Mn1161 O1160 2.290 1_545 S
Mn1161 O1163 2.089 . S
Mn1161 O1166 2.251 . S
Mn1161 O1167 2.087 . S
O1162 Mn1156 2.163 1_545 S
O1162 C1172 1.244 . S
O1163 Mn1161 2.089 . S
O1163 C1170 1.256 . S
O1164 Mn1156 2.160 . S
O1164 C1173 1.239 . S
O1165 Mn1158 2.089 . S
O1165 C1173 1.256 . S
O1166 Mn1161 2.251 . S
O1166 C1171 1.241 1_545 S
O1167 Mn1161 2.087 . S
O1167 C1172 1.256 . S
C1168 O1174 1.278 . S
C1168 O1175 1.241 . S
C1169 O1155 1.244 . S
C1169 O1157 1.256 . S
C1170 O1159 1.239 1_545 S
C1170 O1163 1.256 . S
C1171 O1160 1.278 . S
C1171 O1166 1.241 1_565 S
C1172 O1162 1.244 . S
C1172 O1167 1.256 . S
C1173 O1164 1.239 . S
C1173 O1165 1.256 . S
O1174 Mn1156 2.221 . S
O1174 Mn1158 2.290 . S
O1174 C1168 1.278 . S
O1175 Mn1158 2.251 . S
O1175 C1168 1.241 . S
O1176 Mn1177 2.163 . S
O1176 C1190 1.244 . S
Mn1177 O1176 2.163 . S
Mn1177 O1180 2.160 . S
Mn1177 O1181 2.221 . S
Mn1177 O1183 2.163 . S
Mn1177 O1185 2.160 . S
Mn1177 O1195 2.221 . S
O1178 Mn1179 2.087 . S
O1178 C1190 1.256 . S
Mn1179 O1178 2.087 . S
Mn1179 O1186 2.089 . S
Mn1179 O1195 2.290 . S
Mn1179 O1196 2.251 . S
O1180 Mn1177 2.160 . S
O1180 C1191 1.239 . S
O1181 Mn1177 2.221 . S
O1181 Mn1182 2.290 . S
O1181 C1192 1.278 . S
Mn1182 O1181 2.290 . S
Mn1182 O1184 2.089 . S
Mn1182 O1187 2.251 . S
Mn1182 O1188 2.087 . S
O1183 Mn1177 2.163 . S
O1183 C1193 1.244 . S
O1184 Mn1182 2.089 . S
O1184 C1191 1.256 . S
O1185 Mn1177 2.160 . S
O1185 C1194 1.239 . S
O1186 Mn1179 2.089 . S
O1186 C1194 1.256 . S
O1187 Mn1182 2.251 . S
O1187 C1192 1.241 . S
O1188 Mn1182 2.087 . S
O1188 C1193 1.256 . S
C1189 O1195 1.278 . S
C1189 O1196 1.241 . S
C1190 O1176 1.244 . S
C1190 O1178 1.256 . S
C1191 O1180 1.239 . S
C1191 O1184 1.256 . S
C1192 O1181 1.278 . S
C1192 O1187 1.241 . S
C1193 O1183 1.244 . S
C1193 O1188 1.256 . S
C1194 O1185 1.239 . S
C1194 O1186 1.256 . S
O1195 Mn1177 2.221 . S
O1195 Mn1179 2.290 . S
O1195 C1189 1.278 . S
O1196 Mn1179 2.251 . S
O1196 C1189 1.241 . S
O1197 Mn1198 2.163 . S
O1197 C1211 1.244 . S
Mn1198 O1197 2.163 . S
Mn1198 O1201 2.160 . S
Mn1198 O1202 2.221 . S
Mn1198 O1204 2.163 1_554 S
Mn1198 O1206 2.160 . S
Mn1198 O1216 2.221 1_554 S
O1199 Mn1200 2.087 1_554 S
O1199 C1211 1.256 . S
Mn1200 O1199 2.087 1_556 S
Mn1200 O1207 2.089 1_556 S
Mn1200 O1216 2.290 . S
Mn1200 O1217 2.251 . S
O1201 Mn1198 2.160 . S
O1201 C1212 1.239 . S
O1202 Mn1198 2.221 . S
O1202 Mn1203 2.290 . S
O1202 C1213 1.278 . S
Mn1203 O1202 2.290 . S
Mn1203 O1205 2.089 . S
Mn1203 O1208 2.251 . S
Mn1203 O1209 2.087 . S
O1204 Mn1198 2.163 1_556 S
O1204 C1214 1.244 . S
O1205 Mn1203 2.089 . S
O1205 C1212 1.256 . S
O1206 Mn1198 2.160 . S
O1206 C1215 1.239 . S
O1207 Mn1200 2.089 1_554 S
O1207 C1215 1.256 . S
O1208 Mn1203 2.251 . S
O1208 C1213 1.241 . S
O1209 Mn1203 2.087 . S
O1209 C1214 1.256 1_554 S
C1210 O1216 1.278 . S
C1210 O1217 1.241 . S
C1211 O1197 1.244 . S
C1211 O1199 1.256 . S
C1212 O1201 1.239 . S
C1212 O1205 1.256 . S
C1213 O1202 1.278 . S
C1213 O1208 1.241 . S
C1214 O1204 1.244 . S
C1214 O1209 1.256 1_556 S
C1215 O1206 1.239 . S
C1215 O1207 1.256 . S
O1216 Mn1198 2.221 1_556 S
O1216 Mn1200 2.290 . S
O1216 C1210 1.278 . S
O1217 Mn1200 2.251 . S
O1217 C1210 1.241 . S
O1218 Mn1219 2.163 . S
O1218 C1232 1.244 . S
Mn1219 O1218 2.163 . S
Mn1219 O1222 2.160 . S
Mn1219 O1223 2.221 . S
Mn1219 O1225 2.163 . S
Mn1219 O1227 2.160 . S
Mn1219 O1237 2.221 . S
O1220 Mn1221 2.087 . S
O1220 C1232 1.256 . S
Mn1221 O1220 2.087 . S
Mn1221 O1228 2.089 . S
Mn1221 O1237 2.290 . S
Mn1221 O1238 2.251 . S
O1222 Mn1219 2.160 . S
O1222 C1233 1.239 . S
O1223 Mn1219 2.221 . S
O1223 Mn1224 2.290 . S
O1223 C1234 1.278 . S
Mn1224 O1223 2.290 . S
Mn1224 O1226 2.089 . S
Mn1224 O1229 2.251 . S
Mn1224 O1230 2.087 . S
O1225 Mn1219 2.163 . S
O1225 C1235 1.244 . S
O1226 Mn1224 2.089 . S
O1226 C1233 1.256 . S
O1227 Mn1219 2.160 . S
O1227 C1236 1.239 . S
O1228 Mn1221 2.089 . S
O1228 C1236 1.256 . S
O1229 Mn1224 2.251 . S
O1229 C1234 1.241 . S
O1230 Mn1224 2.087 . S
O1230 C1235 1.256 . S
C1231 O1237 1.278 . S
C1231 O1238 1.241 . S
C1232 O1218 1.244 . S
C1232 O1220 1.256 . S
C1233 O1222 1.239 . S
C1233 O1226 1.256 . S
C1234 O1223 1.278 . S
C1234 O1229 1.241 . S
C1235 O1225 1.244 . S
C1235 O1230 1.256 . S
C1236 O1227 1.239 . S
C1236 O1228 1.256 . S
O1237 Mn1219 2.221 . S
O1237 Mn1221 2.290 . S
O1237 C1231 1.278 . S
O1238 Mn1221 2.251 . S
O1238 C1231 1.241 . S
O1239 Mn1240 2.163 . S
O1239 C1253 1.244 . S
Mn1240 O1239 2.163 . S
Mn1240 O1243 2.160 . S
Mn1240 O1244 2.221 . S
Mn1240 O1246 2.163 . S
Mn1240 O1248 2.160 . S
Mn1240 O1258 2.221 . S
O1241 Mn1242 2.087 . S
O1241 C1253 1.256 . S
Mn1242 O1241 2.087 . S
Mn1242 O1249 2.089 . S
Mn1242 O1258 2.290 . S
Mn1242 O1259 2.251 . S
O1243 Mn1240 2.160 . S
O1243 C1254 1.239 . S
O1244 Mn1240 2.221 . S
O1244 Mn1245 2.290 . S
O1244 C1255 1.278 . S
Mn1245 O1244 2.290 . S
Mn1245 O1247 2.089 . S
Mn1245 O1250 2.251 . S
Mn1245 O1251 2.087 . S
O1246 Mn1240 2.163 . S
O1246 C1256 1.244 . S
O1247 Mn1245 2.089 . S
O1247 C1254 1.256 . S
O1248 Mn1240 2.160 . S
O1248 C1257 1.239 . S
O1249 Mn1242 2.089 . S
O1249 C1257 1.256 . S
O1250 Mn1245 2.251 . S
O1250 C1255 1.241 . S
O1251 Mn1245 2.087 . S
O1251 C1256 1.256 . S
C1252 O1258 1.278 . S
C1252 O1259 1.241 . S
C1253 O1239 1.244 . S
C1253 O1241 1.256 . S
C1254 O1243 1.239 . S
C1254 O1247 1.256 . S
C1255 O1244 1.278 . S
C1255 O1250 1.241 . S
C1256 O1246 1.244 . S
C1256 O1251 1.256 . S
C1257 O1248 1.239 . S
C1257 O1249 1.256 . S
O1258 Mn1240 2.221 . S
O1258 Mn1242 2.290 . S
O1258 C1252 1.278 . S
O1259 Mn1242 2.251 . S
O1259 C1252 1.241 . S
O1260 Mn1261 2.163 . S
O1260 C1274 1.244 . S
Mn1261 O1260 2.163 . S
Mn1261 O1264 2.160 . S
Mn1261 O1265 2.221 . S
Mn1261 O1267 2.163 . S
Mn1261 O1269 2.160 . S
Mn1261 O1279 2.221 . S
O1262 Mn1263 2.087 . S
O1262 C1274 1.256 . S
Mn1263 O1262 2.087 . S
Mn1263 O1270 2.089 . S
Mn1263 O1279 2.290 . S
Mn1263 O1280 2.251 . S
O1264 Mn1261 2.160 . S
O1264 C1275 1.239 . S
O1265 Mn1261 2.221 . S
O1265 Mn1266 2.290 . S
O1265 C1276 1.278 . S
Mn1266 O1265 2.290 . S
Mn1266 O1268 2.089 . S
Mn1266 O1271 2.251 . S
Mn1266 O1272 2.087 . S
O1267 Mn1261 2.163 . S
O1267 C1277 1.244 . S
O1268 Mn1266 2.089 . S
O1268 C1275 1.256 . S
O1269 Mn1261 2.160 . S
O1269 C1278 1.239 . S
O1270 Mn1263 2.089 . S
O1270 C1278 1.256 . S
O1271 Mn1266 2.251 . S
O1271 C1276 1.241 . S
O1272 Mn1266 2.087 . S
O1272 C1277 1.256 . S
C1273 O1279 1.278 . S
C1273 O1280 1.241 . S
C1274 O1260 1.244 . S
C1274 O1262 1.256 . S
C1275 O1264 1.239 . S
C1275 O1268 1.256 . S
C1276 O1265 1.278 . S
C1276 O1271 1.241 . S
C1277 O1267 1.244 . S
C1277 O1272 1.256 . S
C1278 O1269 1.239 . S
C1278 O1270 1.256 . S
O1279 Mn1261 2.221 . S
O1279 Mn1263 2.290 . S
O1279 C1273 1.278 . S
O1280 Mn1263 2.251 . S
O1280 C1273 1.241 . S
O1281 Mn1282 2.163 . S
O1281 C1295 1.244 . S
Mn1282 O1281 2.163 . S
Mn1282 O1285 2.160 . S
Mn1282 O1286 2.221 . S
Mn1282 O1288 2.163 . S
Mn1282 O1290 2.160 . S
Mn1282 O1300 2.221 . S
O1283 Mn1284 2.087 . S
O1283 C1295 1.256 . S
Mn1284 O1283 2.087 . S
Mn1284 O1291 2.089 . S
Mn1284 O1300 2.290 . S
Mn1284 O1301 2.251 . S
O1285 Mn1282 2.160 . S
O1285 C1296 1.239 . S
O1286 Mn1282 2.221 . S
O1286 Mn1287 2.290 . S
O1286 C1297 1.278 . S
Mn1287 O1286 2.290 . S
Mn1287 O1289 2.089 . S
Mn1287 O1292 2.251 . S
Mn1287 O1293 2.087 . S
O1288 Mn1282 2.163 . S
O1288 C1298 1.244 . S
O1289 Mn1287 2.089 . S
O1289 C1296 1.256 . S
O1290 Mn1282 2.160 . S
O1290 C1299 1.239 . S
O1291 Mn1284 2.089 . S
O1291 C1299 1.256 . S
O1292 Mn1287 2.251 . S
O1292 C1297 1.241 . S
O1293 Mn1287 2.087 . S
O1293 C1298 1.256 . S
C1294 O1300 1.278 . S
C1294 O1301 1.241 . S
C1295 O1281 1.244 . S
C1295 O1283 1.256 . S
C1296 O1285 1.239 . S
C1296 O1289 1.256 . S
C1297 O1286 1.278 . S
C1297 O1292 1.241 . S
C1298 O1288 1.244 . S
C1298 O1293 1.256 . S
C1299 O1290 1.239 . S
C1299 O1291 1.256 . S
O1300 Mn1282 2.221 . S
O1300 Mn1284 2.290 . S
O1300 C1294 1.278 . S
O1301 Mn1284 2.251 . S
O1301 C1294 1.241 . S
O1302 Mn1303 2.163 1_554 S
O1302 C1316 1.244 . S
Mn1303 O1302 2.163 1_556 S
Mn1303 O1306 2.160 . S
Mn1303 O1307 2.221 1_556 S
Mn1303 O1309 2.163 1_545 S
Mn1303 O1311 2.160 . S
Mn1303 O1321 2.221 . S
O1304 Mn1305 2.087 . S
O1304 C1316 1.256 1_556 S
Mn1305 O1304 2.087 . S
Mn1305 O1312 2.089 . S
Mn1305 O1321 2.290 . S
Mn1305 O1322 2.251 . S
O1306 Mn1303 2.160 . S
O1306 C1317 1.239 1_545 S
O1307 Mn1303 2.221 1_554 S
O1307 Mn1308 2.290 1_545 S
O1307 C1318 1.278 . S
Mn1308 O1307 2.290 1_565 S
Mn1308 O1310 2.089 1_554 S
Mn1308 O1313 2.251 . S
Mn1308 O1314 2.087 1_554 S
O1309 Mn1303 2.163 1_565 S
O1309 C1319 1.244 . S
O1310 Mn1308 2.089 1_556 S
O1310 C1317 1.256 . S
O1311 Mn1303 2.160 . S
O1311 C1320 1.239 . S
O1312 Mn1305 2.089 . S
O1312 C1320 1.256 . S
O1313 Mn1308 2.251 . S
O1313 C1318 1.241 1_565 S
O1314 Mn1308 2.087 1_556 S
O1314 C1319 1.256 . S
C1315 O1321 1.278 . S
C1315 O1322 1.241 . S
C1316 O1302 1.244 . S
C1316 O1304 1.256 1_554 S
C1317 O1306 1.239 1_565 S
C1317 O1310 1.256 . S
C1318 O1307 1.278 . S
C1318 O1313 1.241 1_545 S
C1319 O1309 1.244 . S
C1319 O1314 1.256 . S
C1320 O1311 1.239 . S
C1320 O1312 1.256 . S
O1321 Mn1303 2.221 . S
O1321 Mn1305 2.290 . S
O1321 C1315 1.278 . S
O1322 Mn1305 2.251 . S
O1322 C1315 1.241 . S
O1323 Mn1324 2.163 1_455 S
O1323 C1337 1.244 . S
Mn1324 O1323 2.163 1_655 S
Mn1324 O1327 2.160 . S
Mn1324 O1328 2.221 . S
Mn1324 O1330 2.163 . S
Mn1324 O1332 2.160 . S
Mn1324 O1342 2.221 . S
O1325 Mn1326 2.087 . S
O1325 C1337 1.256 . S
Mn1326 O1325 2.087 . S
Mn1326 O1333 2.089 . S
Mn1326 O1342 2.290 1_455 S
Mn1326 O1343 2.251 . S
O1327 Mn1324 2.160 . S
O1327 C1338 1.239 . S
O1328 Mn1324 2.221 . S
O1328 Mn1329 2.290 . S
O1328 C1339 1.278 . S
Mn1329 O1328 2.290 . S
Mn1329 O1331 2.089 . S
Mn1329 O1334 2.251 . S
Mn1329 O1335 2.087 . S
O1330 Mn1324 2.163 . S
O1330 C1340 1.244 . S
O1331 Mn1329 2.089 . S
O1331 C1338 1.256 . S
O1332 Mn1324 2.160 . S
O1332 C1341 1.239 1_655 S
O1333 Mn1326 2.089 . S
O1333 C1341 1.256 . S
O1334 Mn1329 2.251 . S
O1334 C1339 1.241 . S
O1335 Mn1329 2.087 . S
O1335 C1340 1.256 . S
C1336 O1342 1.278 . S
C1336 O1343 1.241 1_655 S
C1337 O1323 1.244 . S
C1337 O1325 1.256 . S
C1338 O1327 1.239 . S
C1338 O1331 1.256 . S
C1339 O1328 1.278 . S
C1339 O1334 1.241 . S
C1340 O1330 1.244 . S
C1340 O1335 1.256 . S
C1341 O1332 1.239 1_455 S
C1341 O1333 1.256 . S
O1342 Mn1324 2.221 . S
O1342 Mn1326 2.290 1_655 S
O1342 C1336 1.278 . S
O1343 Mn1326 2.251 . S
O1343 C1336 1.241 1_455 S
O1344 Mn1345 2.163 . S
O1344 C1358 1.244 . S
Mn1345 O1344 2.163 . S
Mn1345 O1348 2.160 . S
Mn1345 O1349 2.221 . S
Mn1345 O1351 2.163 . S
Mn1345 O1353 2.160 . S
Mn1345 O1363 2.221 . S
O1346 Mn1347 2.087 . S
O1346 C1358 1.256 . S
Mn1347 O1346 2.087 . S
Mn1347 O1354 2.089 . S
Mn1347 O1363 2.290 . S
Mn1347 O1364 2.251 . S
O1348 Mn1345 2.160 . S
O1348 C1359 1.239 . S
O1349 Mn1345 2.221 . S
O1349 Mn1350 2.290 . S
O1349 C1360 1.278 . S
Mn1350 O1349 2.290 . S
Mn1350 O1352 2.089 . S
Mn1350 O1355 2.251 . S
Mn1350 O1356 2.087 . S
O1351 Mn1345 2.163 . S
O1351 C1361 1.244 . S
O1352 Mn1350 2.089 . S
O1352 C1359 1.256 . S
O1353 Mn1345 2.160 . S
O1353 C1362 1.239 . S
O1354 Mn1347 2.089 . S
O1354 C1362 1.256 . S
O1355 Mn1350 2.251 . S
O1355 C1360 1.241 . S
O1356 Mn1350 2.087 . S
O1356 C1361 1.256 . S
C1357 O1363 1.278 . S
C1357 O1364 1.241 . S
C1358 O1344 1.244 . S
C1358 O1346 1.256 . S
C1359 O1348 1.239 . S
C1359 O1352 1.256 . S
C1360 O1349 1.278 . S
C1360 O1355 1.241 . S
C1361 O1351 1.244 . S
C1361 O1356 1.256 . S
C1362 O1353 1.239 . S
C1362 O1354 1.256 . S
O1363 Mn1345 2.221 . S
O1363 Mn1347 2.290 . S
O1363 C1357 1.278 . S
O1364 Mn1347 2.251 . S
O1364 C1357 1.241 . S
O1365 Mn1366 2.163 . S
O1365 C1379 1.244 . S
Mn1366 O1365 2.163 . S
Mn1366 O1369 2.160 . S
Mn1366 O1370 2.221 . S
Mn1366 O1372 2.163 . S
Mn1366 O1374 2.160 . S
Mn1366 O1384 2.221 . S
O1367 Mn1368 2.087 . S
O1367 C1379 1.256 . S
Mn1368 O1367 2.087 . S
Mn1368 O1375 2.089 . S
Mn1368 O1384 2.290 . S
Mn1368 O1385 2.251 . S
O1369 Mn1366 2.160 . S
O1369 C1380 1.239 . S
O1370 Mn1366 2.221 . S
O1370 Mn1371 2.290 . S
O1370 C1381 1.278 . S
Mn1371 O1370 2.290 . S
Mn1371 O1373 2.089 . S
Mn1371 O1376 2.251 . S
Mn1371 O1377 2.087 . S
O1372 Mn1366 2.163 . S
O1372 C1382 1.244 . S
O1373 Mn1371 2.089 . S
O1373 C1380 1.256 . S
O1374 Mn1366 2.160 . S
O1374 C1383 1.239 . S
O1375 Mn1368 2.089 . S
O1375 C1383 1.256 . S
O1376 Mn1371 2.251 . S
O1376 C1381 1.241 . S
O1377 Mn1371 2.087 . S
O1377 C1382 1.256 . S
C1378 O1384 1.278 . S
C1378 O1385 1.241 . S
C1379 O1365 1.244 . S
C1379 O1367 1.256 . S
C1380 O1369 1.239 . S
C1380 O1373 1.256 . S
C1381 O1370 1.278 . S
C1381 O1376 1.241 . S
C1382 O1372 1.244 . S
C1382 O1377 1.256 . S
C1383 O1374 1.239 . S
C1383 O1375 1.256 . S
O1384 Mn1366 2.221 . S
O1384 Mn1368 2.290 . S
O1384 C1378 1.278 . S
O1385 Mn1368 2.251 . S
O1385 C1378 1.241 . S
O1386 Mn1387 2.163 . S
O1386 C1400 1.244 . S
Mn1387 O1386 2.163 . S
Mn1387 O1390 2.160 . S
Mn1387 O1391 2.221 . S
Mn1387 O1393 2.163 . S
Mn1387 O1395 2.160 . S
Mn1387 O1405 2.221 . S
O1388 Mn1389 2.087 . S
O1388 C1400 1.256 . S
Mn1389 O1388 2.087 . S
Mn1389 O1396 2.089 . S
Mn1389 O1405 2.290 . S
Mn1389 O1406 2.251 . S
O1390 Mn1387 2.160 . S
O1390 C1401 1.239 . S
O1391 Mn1387 2.221 . S
O1391 Mn1392 2.290 . S
O1391 C1402 1.278 . S
Mn1392 O1391 2.290 . S
Mn1392 O1394 2.089 . S
Mn1392 O1397 2.251 . S
Mn1392 O1398 2.087 . S
O1393 Mn1387 2.163 . S
O1393 C1403 1.244 . S
O1394 Mn1392 2.089 . S
O1394 C1401 1.256 . S
O1395 Mn1387 2.160 . S
O1395 C1404 1.239 . S
O1396 Mn1389 2.089 . S
O1396 C1404 1.256 . S
O1397 Mn1392 2.251 . S
O1397 C1402 1.241 . S
O1398 Mn1392 2.087 . S
O1398 C1403 1.256 . S
C1399 O1405 1.278 . S
C1399 O1406 1.241 . S
C1400 O1386 1.244 . S
C1400 O1388 1.256 . S
C1401 O1390 1.239 . S
C1401 O1394 1.256 . S
C1402 O1391 1.278 . S
C1402 O1397 1.241 . S
C1403 O1393 1.244 . S
C1403 O1398 1.256 . S
C1404 O1395 1.239 . S
C1404 O1396 1.256 . S
O1405 Mn1387 2.221 . S
O1405 Mn1389 2.290 . S
O1405 C1399 1.278 . S
O1406 Mn1389 2.251 . S
O1406 C1399 1.241 . S
O1407 Mn1408 2.163 . S
O1407 C1421 1.244 . S
Mn1408 O1407 2.163 . S
Mn1408 O1411 2.160 . S
Mn1408 O1412 2.221 . S
Mn1408 O1414 2.163 . S
Mn1408 O1416 2.160 . S
Mn1408 O1426 2.221 . S
O1409 Mn1410 2.087 . S
O1409 C1421 1.256 . S
Mn1410 O1409 2.087 . S
Mn1410 O1417 2.089 . S
Mn1410 O1426 2.290 . S
Mn1410 O1427 2.251 . S
O1411 Mn1408 2.160 . S
O1411 C1422 1.239 . S
O1412 Mn1408 2.221 . S
O1412 Mn1413 2.290 . S
O1412 C1423 1.278 . S
Mn1413 O1412 2.290 . S
Mn1413 O1415 2.089 . S
Mn1413 O1418 2.251 . S
Mn1413 O1419 2.087 . S
O1414 Mn1408 2.163 . S
O1414 C1424 1.244 . S
O1415 Mn1413 2.089 . S
O1415 C1422 1.256 . S
O1416 Mn1408 2.160 . S
O1416 C1425 1.239 . S
O1417 Mn1410 2.089 . S
O1417 C1425 1.256 . S
O1418 Mn1413 2.251 . S
O1418 C1423 1.241 . S
O1419 Mn1413 2.087 . S
O1419 C1424 1.256 . S
C1420 O1426 1.278 . S
C1420 O1427 1.241 . S
C1421 O1407 1.244 . S
C1421 O1409 1.256 . S
C1422 O1411 1.239 . S
C1422 O1415 1.256 . S
C1423 O1412 1.278 . S
C1423 O1418 1.241 . S
C1424 O1414 1.244 . S
C1424 O1419 1.256 . S
C1425 O1416 1.239 . S
C1425 O1417 1.256 . S
O1426 Mn1408 2.221 . S
O1426 Mn1410 2.290 . S
O1426 C1420 1.278 . S
O1427 Mn1410 2.251 . S
O1427 C1420 1.241 . S
O1428 Mn1429 2.163 . S
O1428 C1442 1.244 . S
Mn1429 O1428 2.163 . S
Mn1429 O1432 2.160 . S
Mn1429 O1433 2.221 . S
Mn1429 O1435 2.163 1_556 S
Mn1429 O1437 2.160 . S
Mn1429 O1447 2.221 . S
O1430 Mn1431 2.087 . S
O1430 C1442 1.256 . S
Mn1431 O1430 2.087 . S
Mn1431 O1438 2.089 . S
Mn1431 O1447 2.290 . S
Mn1431 O1448 2.251 . S
O1432 Mn1429 2.160 . S
O1432 C1443 1.239 1_556 S
O1433 Mn1429 2.221 . S
O1433 Mn1434 2.290 1_556 S
O1433 C1444 1.278 . S
Mn1434 O1433 2.290 1_554 S
Mn1434 O1436 2.089 . S
Mn1434 O1439 2.251 . S
Mn1434 O1440 2.087 . S
O1435 Mn1429 2.163 1_554 S
O1435 C1445 1.244 . S
O1436 Mn1434 2.089 . S
O1436 C1443 1.256 . S
O1437 Mn1429 2.160 . S
O1437 C1446 1.239 . S
O1438 Mn1431 2.089 . S
O1438 C1446 1.256 . S
O1439 Mn1434 2.251 . S
O1439 C1444 1.241 1_554 S
O1440 Mn1434 2.087 . S
O1440 C1445 1.256 . S
C1441 O1447 1.278 . S
C1441 O1448 1.241 . S
C1442 O1428 1.244 . S
C1442 O1430 1.256 . S
C1443 O1432 1.239 1_554 S
C1443 O1436 1.256 . S
C1444 O1433 1.278 . S
C1444 O1439 1.241 1_556 S
C1445 O1435 1.244 . S
C1445 O1440 1.256 . S
C1446 O1437 1.239 . S
C1446 O1438 1.256 . S
O1447 Mn1429 2.221 . S
O1447 Mn1431 2.290 . S
O1447 C1441 1.278 . S
O1448 Mn1431 2.251 . S
O1448 C1441 1.241 . S
O1449 Mn1450 2.163 . S
O1449 C1463 1.244 . S
Mn1450 O1449 2.163 . S
Mn1450 O1453 2.160 . S
Mn1450 O1454 2.221 . S
Mn1450 O1456 2.163 1_655 S
Mn1450 O1458 2.160 . S
Mn1450 O1468 2.221 1_655 S
O1451 Mn1452 2.087 1_655 S
O1451 C1463 1.256 . S
Mn1452 O1451 2.087 1_455 S
Mn1452 O1459 2.089 1_455 S
Mn1452 O1468 2.290 . S
Mn1452 O1469 2.251 . S
O1453 Mn1450 2.160 . S
O1453 C1464 1.239 . S
O1454 Mn1450 2.221 . S
O1454 Mn1455 2.290 . S
O1454 C1465 1.278 . S
Mn1455 O1454 2.290 . S
Mn1455 O1457 2.089 . S
Mn1455 O1460 2.251 . S
Mn1455 O1461 2.087 . S
O1456 Mn1450 2.163 1_455 S
O1456 C1466 1.244 . S
O1457 Mn1455 2.089 . S
O1457 C1464 1.256 . S
O1458 Mn1450 2.160 . S
O1458 C1467 1.239 . S
O1459 Mn1452 2.089 1_655 S
O1459 C1467 1.256 . S
O1460 Mn1455 2.251 . S
O1460 C1465 1.241 . S
O1461 Mn1455 2.087 . S
O1461 C1466 1.256 1_655 S
C1462 O1468 1.278 . S
C1462 O1469 1.241 . S
C1463 O1449 1.244 . S
C1463 O1451 1.256 . S
C1464 O1453 1.239 . S
C1464 O1457 1.256 . S
C1465 O1454 1.278 . S
C1465 O1460 1.241 . S
C1466 O1456 1.244 . S
C1466 O1461 1.256 1_455 S
C1467 O1458 1.239 . S
C1467 O1459 1.256 . S
O1468 Mn1450 2.221 1_455 S
O1468 Mn1452 2.290 . S
O1468 C1462 1.278 . S
O1469 Mn1452 2.251 . S
O1469 C1462 1.241 . S
O1470 Mn1471 2.163 . S
O1470 C1484 1.244 . S
Mn1471 O1470 2.163 . S
Mn1471 O1474 2.160 . S
Mn1471 O1475 2.221 . S
Mn1471 O1477 2.163 . S
Mn1471 O1479 2.160 . S
Mn1471 O1489 2.221 . S
O1472 Mn1473 2.087 . S
O1472 C1484 1.256 . S
Mn1473 O1472 2.087 . S
Mn1473 O1480 2.089 . S
Mn1473 O1489 2.290 . S
Mn1473 O1490 2.251 . S
O1474 Mn1471 2.160 . S
O1474 C1485 1.239 . S
O1475 Mn1471 2.221 . S
O1475 Mn1476 2.290 . S
O1475 C1486 1.278 . S
Mn1476 O1475 2.290 . S
Mn1476 O1478 2.089 . S
Mn1476 O1481 2.251 . S
Mn1476 O1482 2.087 . S
O1477 Mn1471 2.163 . S
O1477 C1487 1.244 . S
O1478 Mn1476 2.089 . S
O1478 C1485 1.256 . S
O1479 Mn1471 2.160 . S
O1479 C1488 1.239 . S
O1480 Mn1473 2.089 . S
O1480 C1488 1.256 . S
O1481 Mn1476 2.251 . S
O1481 C1486 1.241 . S
O1482 Mn1476 2.087 . S
O1482 C1487 1.256 . S
C1483 O1489 1.278 . S
C1483 O1490 1.241 . S
C1484 O1470 1.244 . S
C1484 O1472 1.256 . S
C1485 O1474 1.239 . S
C1485 O1478 1.256 . S
C1486 O1475 1.278 . S
C1486 O1481 1.241 . S
C1487 O1477 1.244 . S
C1487 O1482 1.256 . S
C1488 O1479 1.239 . S
C1488 O1480 1.256 . S
O1489 Mn1471 2.221 . S
O1489 Mn1473 2.290 . S
O1489 C1483 1.278 . S
O1490 Mn1473 2.251 . S
O1490 C1483 1.241 . S
O1491 Mn1492 2.163 . S
O1491 C1505 1.244 . S
Mn1492 O1491 2.163 . S
Mn1492 O1495 2.160 . S
Mn1492 O1496 2.221 . S
Mn1492 O1498 2.163 . S
Mn1492 O1500 2.160 . S
Mn1492 O1510 2.221 . S
O1493 Mn1494 2.087 . S
O1493 C1505 1.256 . S
Mn1494 O1493 2.087 . S
Mn1494 O1501 2.089 . S
Mn1494 O1510 2.290 . S
Mn1494 O1511 2.251 . S
O1495 Mn1492 2.160 . S
O1495 C1506 1.239 . S
O1496 Mn1492 2.221 . S
O1496 Mn1497 2.290 . S
O1496 C1507 1.278 . S
Mn1497 O1496 2.290 . S
Mn1497 O1499 2.089 . S
Mn1497 O1502 2.251 . S
Mn1497 O1503 2.087 . S
O1498 Mn1492 2.163 . S
O1498 C1508 1.244 . S
O1499 Mn1497 2.089 . S
O1499 C1506 1.256 . S
O1500 Mn1492 2.160 . S
O1500 C1509 1.239 . S
O1501 Mn1494 2.089 . S
O1501 C1509 1.256 . S
O1502 Mn1497 2.251 . S
O1502 C1507 1.241 . S
O1503 Mn1497 2.087 . S
O1503 C1508 1.256 . S
C1504 O1510 1.278 . S
C1504 O1511 1.241 . S
C1505 O1491 1.244 . S
C1505 O1493 1.256 . S
C1506 O1495 1.239 . S
C1506 O1499 1.256 . S
C1507 O1496 1.278 . S
C1507 O1502 1.241 . S
C1508 O1498 1.244 . S
C1508 O1503 1.256 . S
C1509 O1500 1.239 . S
C1509 O1501 1.256 . S
O1510 Mn1492 2.221 . S
O1510 Mn1494 2.290 . S
O1510 C1504 1.278 . S
O1511 Mn1494 2.251 . S
O1511 C1504 1.241 . S
O1512 Mn1513 2.163 1_455 S
O1512 C1526 1.244 . S
Mn1513 O1512 2.163 1_655 S
Mn1513 O1516 2.160 . S
Mn1513 O1517 2.221 . S
Mn1513 O1519 2.163 . S
Mn1513 O1521 2.160 . S
Mn1513 O1531 2.221 . S
O1514 Mn1515 2.087 . S
O1514 C1526 1.256 . S
Mn1515 O1514 2.087 . S
Mn1515 O1522 2.089 . S
Mn1515 O1531 2.290 1_455 S
Mn1515 O1532 2.251 . S
O1516 Mn1513 2.160 . S
O1516 C1527 1.239 . S
O1517 Mn1513 2.221 . S
O1517 Mn1518 2.290 . S
O1517 C1528 1.278 . S
Mn1518 O1517 2.290 . S
Mn1518 O1520 2.089 . S
Mn1518 O1523 2.251 . S
Mn1518 O1524 2.087 . S
O1519 Mn1513 2.163 . S
O1519 C1529 1.244 . S
O1520 Mn1518 2.089 . S
O1520 C1527 1.256 . S
O1521 Mn1513 2.160 . S
O1521 C1530 1.239 1_655 S
O1522 Mn1515 2.089 . S
O1522 C1530 1.256 . S
O1523 Mn1518 2.251 . S
O1523 C1528 1.241 . S
O1524 Mn1518 2.087 . S
O1524 C1529 1.256 . S
C1525 O1531 1.278 . S
C1525 O1532 1.241 1_655 S
C1526 O1512 1.244 . S
C1526 O1514 1.256 . S
C1527 O1516 1.239 . S
C1527 O1520 1.256 . S
C1528 O1517 1.278 . S
C1528 O1523 1.241 . S
C1529 O1519 1.244 . S
C1529 O1524 1.256 . S
C1530 O1521 1.239 1_455 S
C1530 O1522 1.256 . S
O1531 Mn1513 2.221 . S
O1531 Mn1515 2.290 1_655 S
O1531 C1525 1.278 . S
O1532 Mn1515 2.251 . S
O1532 C1525 1.241 1_455 S
O1533 Mn1534 2.163 . S
O1533 C1547 1.244 . S
Mn1534 O1533 2.163 . S
Mn1534 O1537 2.160 . S
Mn1534 O1538 2.221 . S
Mn1534 O1540 2.163 . S
Mn1534 O1542 2.160 . S
Mn1534 O1552 2.221 . S
O1535 Mn1536 2.087 . S
O1535 C1547 1.256 . S
Mn1536 O1535 2.087 . S
Mn1536 O1543 2.089 . S
Mn1536 O1552 2.290 . S
Mn1536 O1553 2.251 . S
O1537 Mn1534 2.160 . S
O1537 C1548 1.239 . S
O1538 Mn1534 2.221 . S
O1538 Mn1539 2.290 . S
O1538 C1549 1.278 . S
Mn1539 O1538 2.290 . S
Mn1539 O1541 2.089 . S
Mn1539 O1544 2.251 . S
Mn1539 O1545 2.087 . S
O1540 Mn1534 2.163 . S
O1540 C1550 1.244 . S
O1541 Mn1539 2.089 . S
O1541 C1548 1.256 . S
O1542 Mn1534 2.160 . S
O1542 C1551 1.239 . S
O1543 Mn1536 2.089 . S
O1543 C1551 1.256 . S
O1544 Mn1539 2.251 . S
O1544 C1549 1.241 . S
O1545 Mn1539 2.087 . S
O1545 C1550 1.256 . S
C1546 O1552 1.278 . S
C1546 O1553 1.241 . S
C1547 O1533 1.244 . S
C1547 O1535 1.256 . S
C1548 O1537 1.239 . S
C1548 O1541 1.256 . S
C1549 O1538 1.278 . S
C1549 O1544 1.241 . S
C1550 O1540 1.244 . S
C1550 O1545 1.256 . S
C1551 O1542 1.239 . S
C1551 O1543 1.256 . S
O1552 Mn1534 2.221 . S
O1552 Mn1536 2.290 . S
O1552 C1546 1.278 . S
O1553 Mn1536 2.251 . S
O1553 C1546 1.241 . S
O1554 Mn1555 2.163 . S
O1554 C1568 1.244 . S
Mn1555 O1554 2.163 . S
Mn1555 O1558 2.160 . S
Mn1555 O1559 2.221 . S
Mn1555 O1561 2.163 1_545 S
Mn1555 O1563 2.160 . S
Mn1555 O1573 2.221 1_545 S
O1556 Mn1557 2.087 1_545 S
O1556 C1568 1.256 . S
Mn1557 O1556 2.087 1_565 S
Mn1557 O1564 2.089 1_565 S
Mn1557 O1573 2.290 . S
Mn1557 O1574 2.251 . S
O1558 Mn1555 2.160 . S
O1558 C1569 1.239 . S
O1559 Mn1555 2.221 . S
O1559 Mn1560 2.290 . S
O1559 C1570 1.278 . S
Mn1560 O1559 2.290 . S
Mn1560 O1562 2.089 . S
Mn1560 O1565 2.251 . S
Mn1560 O1566 2.087 . S
O1561 Mn1555 2.163 1_565 S
O1561 C1571 1.244 . S
O1562 Mn1560 2.089 . S
O1562 C1569 1.256 . S
O1563 Mn1555 2.160 . S
O1563 C1572 1.239 . S
O1564 Mn1557 2.089 1_545 S
O1564 C1572 1.256 . S
O1565 Mn1560 2.251 . S
O1565 C1570 1.241 . S
O1566 Mn1560 2.087 . S
O1566 C1571 1.256 1_545 S
C1567 O1573 1.278 . S
C1567 O1574 1.241 . S
C1568 O1554 1.244 . S
C1568 O1556 1.256 . S
C1569 O1558 1.239 . S
C1569 O1562 1.256 . S
C1570 O1559 1.278 . S
C1570 O1565 1.241 . S
C1571 O1561 1.244 . S
C1571 O1566 1.256 1_565 S
C1572 O1563 1.239 . S
C1572 O1564 1.256 . S
O1573 Mn1555 2.221 1_565 S
O1573 Mn1557 2.290 . S
O1573 C1567 1.278 . S
O1574 Mn1557 2.251 . S
O1574 C1567 1.241 . S
O1575 Mn1576 2.163 1_565 S
O1575 C1589 1.244 . S
Mn1576 O1575 2.163 1_545 S
Mn1576 O1579 2.160 . S
Mn1576 O1580 2.221 . S
Mn1576 O1582 2.163 1_655 S
Mn1576 O1584 2.160 . S
Mn1576 O1594 2.221 1_655 S
O1577 Mn1578 2.087 1_655 S
O1577 C1589 1.256 . S
Mn1578 O1577 2.087 1_455 S
Mn1578 O1585 2.089 1_455 S
Mn1578 O1594 2.290 1_565 S
Mn1578 O1595 2.251 . S
O1579 Mn1576 2.160 . S
O1579 C1590 1.239 . S
O1580 Mn1576 2.221 . S
O1580 Mn1581 2.290 . S
O1580 C1591 1.278 . S
Mn1581 O1580 2.290 . S
Mn1581 O1583 2.089 . S
Mn1581 O1586 2.251 . S
Mn1581 O1587 2.087 . S
O1582 Mn1576 2.163 1_455 S
O1582 C1592 1.244 . S
O1583 Mn1581 2.089 . S
O1583 C1590 1.256 . S
O1584 Mn1576 2.160 . S
O1584 C1593 1.239 1_545 S
O1585 Mn1578 2.089 1_655 S
O1585 C1593 1.256 . S
O1586 Mn1581 2.251 . S
O1586 C1591 1.241 . S
O1587 Mn1581 2.087 . S
O1587 C1592 1.256 1_655 S
C1588 O1594 1.278 . S
C1588 O1595 1.241 1_545 S
C1589 O1575 1.244 . S
C1589 O1577 1.256 . S
C1590 O1579 1.239 . S
C1590 O1583 1.256 . S
C1591 O1580 1.278 . S
C1591 O1586 1.241 . S
C1592 O1582 1.244 . S
C1592 O1587 1.256 1_455 S
C1593 O1584 1.239 1_565 S
C1593 O1585 1.256 . S
O1594 Mn1576 2.221 1_455 S
O1594 Mn1578 2.290 1_545 S
O1594 C1588 1.278 . S
O1595 Mn1578 2.251 . S
O1595 C1588 1.241 1_565 S
O1596 Mn1597 2.163 1_455 S
O1596 C1610 1.244 . S
Mn1597 O1596 2.163 1_655 S
Mn1597 O1600 2.160 . S
Mn1597 O1601 2.221 . S
Mn1597 O1603 2.163 . S
Mn1597 O1605 2.160 . S
Mn1597 O1615 2.221 . S
O1598 Mn1599 2.087 . S
O1598 C1610 1.256 . S
Mn1599 O1598 2.087 . S
Mn1599 O1606 2.089 . S
Mn1599 O1615 2.290 1_455 S
Mn1599 O1616 2.251 . S
O1600 Mn1597 2.160 . S
O1600 C1611 1.239 . S
O1601 Mn1597 2.221 . S
O1601 Mn1602 2.290 . S
O1601 C1612 1.278 . S
Mn1602 O1601 2.290 . S
Mn1602 O1604 2.089 . S
Mn1602 O1607 2.251 . S
Mn1602 O1608 2.087 . S
O1603 Mn1597 2.163 . S
O1603 C1613 1.244 . S
O1604 Mn1602 2.089 . S
O1604 C1611 1.256 . S
O1605 Mn1597 2.160 . S
O1605 C1614 1.239 1_655 S
O1606 Mn1599 2.089 . S
O1606 C1614 1.256 . S
O1607 Mn1602 2.251 . S
O1607 C1612 1.241 . S
O1608 Mn1602 2.087 . S
O1608 C1613 1.256 . S
C1609 O1615 1.278 . S
C1609 O1616 1.241 1_655 S
C1610 O1596 1.244 . S
C1610 O1598 1.256 . S
C1611 O1600 1.239 . S
C1611 O1604 1.256 . S
C1612 O1601 1.278 . S
C1612 O1607 1.241 . S
C1613 O1603 1.244 . S
C1613 O1608 1.256 . S
C1614 O1605 1.239 1_455 S
C1614 O1606 1.256 . S
O1615 Mn1597 2.221 . S
O1615 Mn1599 2.290 1_655 S
O1615 C1609 1.278 . S
O1616 Mn1599 2.251 . S
O1616 C1609 1.241 1_455 S
O1617 Mn1618 2.163 . S
O1617 C1631 1.244 . S
Mn1618 O1617 2.163 . S
Mn1618 O1621 2.160 . S
Mn1618 O1622 2.221 . S
Mn1618 O1624 2.163 . S
Mn1618 O1626 2.160 . S
Mn1618 O1636 2.221 . S
O1619 Mn1620 2.087 . S
O1619 C1631 1.256 . S
Mn1620 O1619 2.087 . S
Mn1620 O1627 2.089 . S
Mn1620 O1636 2.290 . S
Mn1620 O1637 2.251 . S
O1621 Mn1618 2.160 . S
O1621 C1632 1.239 . S
O1622 Mn1618 2.221 . S
O1622 Mn1623 2.290 . S
O1622 C1633 1.278 . S
Mn1623 O1622 2.290 . S
Mn1623 O1625 2.089 . S
Mn1623 O1628 2.251 . S
Mn1623 O1629 2.087 . S
O1624 Mn1618 2.163 . S
O1624 C1634 1.244 . S
O1625 Mn1623 2.089 . S
O1625 C1632 1.256 . S
O1626 Mn1618 2.160 . S
O1626 C1635 1.239 . S
O1627 Mn1620 2.089 . S
O1627 C1635 1.256 . S
O1628 Mn1623 2.251 . S
O1628 C1633 1.241 . S
O1629 Mn1623 2.087 . S
O1629 C1634 1.256 . S
C1630 O1636 1.278 . S
C1630 O1637 1.241 . S
C1631 O1617 1.244 . S
C1631 O1619 1.256 . S
C1632 O1621 1.239 . S
C1632 O1625 1.256 . S
C1633 O1622 1.278 . S
C1633 O1628 1.241 . S
C1634 O1624 1.244 . S
C1634 O1629 1.256 . S
C1635 O1626 1.239 . S
C1635 O1627 1.256 . S
O1636 Mn1618 2.221 . S
O1636 Mn1620 2.290 . S
O1636 C1630 1.278 . S
O1637 Mn1620 2.251 . S
O1637 C1630 1.241 . S
O1638 Mn1639 2.163 . S
O1638 C1652 1.244 . S
Mn1639 O1638 2.163 . S
Mn1639 O1642 2.160 . S
Mn1639 O1643 2.221 . S
Mn1639 O1645 2.163 . S
Mn1639 O1647 2.160 . S
Mn1639 O1657 2.221 . S
O1640 Mn1641 2.087 . S
O1640 C1652 1.256 . S
Mn1641 O1640 2.087 . S
Mn1641 O1648 2.089 . S
Mn1641 O1657 2.290 . S
Mn1641 O1658 2.251 . S
O1642 Mn1639 2.160 . S
O1642 C1653 1.239 . S
O1643 Mn1639 2.221 . S
O1643 Mn1644 2.290 . S
O1643 C1654 1.278 . S
Mn1644 O1643 2.290 . S
Mn1644 O1646 2.089 . S
Mn1644 O1649 2.251 . S
Mn1644 O1650 2.087 . S
O1645 Mn1639 2.163 . S
O1645 C1655 1.244 . S
O1646 Mn1644 2.089 . S
O1646 C1653 1.256 . S
O1647 Mn1639 2.160 . S
O1647 C1656 1.239 . S
O1648 Mn1641 2.089 . S
O1648 C1656 1.256 . S
O1649 Mn1644 2.251 . S
O1649 C1654 1.241 . S
O1650 Mn1644 2.087 . S
O1650 C1655 1.256 . S
C1651 O1657 1.278 . S
C1651 O1658 1.241 . S
C1652 O1638 1.244 . S
C1652 O1640 1.256 . S
C1653 O1642 1.239 . S
C1653 O1646 1.256 . S
C1654 O1643 1.278 . S
C1654 O1649 1.241 . S
C1655 O1645 1.244 . S
C1655 O1650 1.256 . S
C1656 O1647 1.239 . S
C1656 O1648 1.256 . S
O1657 Mn1639 2.221 . S
O1657 Mn1641 2.290 . S
O1657 C1651 1.278 . S
O1658 Mn1641 2.251 . S
O1658 C1651 1.241 . S
O1659 Mn1660 2.163 1_565 S
O1659 C1673 1.244 . S
Mn1660 O1659 2.163 1_545 S
Mn1660 O1663 2.160 . S
Mn1660 O1664 2.221 . S
Mn1660 O1666 2.163 . S
Mn1660 O1668 2.160 . S
Mn1660 O1678 2.221 . S
O1661 Mn1662 2.087 . S
O1661 C1673 1.256 . S
Mn1662 O1661 2.087 . S
Mn1662 O1669 2.089 . S
Mn1662 O1678 2.290 1_565 S
Mn1662 O1679 2.251 . S
O1663 Mn1660 2.160 . S
O1663 C1674 1.239 . S
O1664 Mn1660 2.221 . S
O1664 Mn1665 2.290 . S
O1664 C1675 1.278 . S
Mn1665 O1664 2.290 . S
Mn1665 O1667 2.089 . S
Mn1665 O1670 2.251 . S
Mn1665 O1671 2.087 . S
O1666 Mn1660 2.163 . S
O1666 C1676 1.244 . S
O1667 Mn1665 2.089 . S
O1667 C1674 1.256 . S
O1668 Mn1660 2.160 . S
O1668 C1677 1.239 1_545 S
O1669 Mn1662 2.089 . S
O1669 C1677 1.256 . S
O1670 Mn1665 2.251 . S
O1670 C1675 1.241 . S
O1671 Mn1665 2.087 . S
O1671 C1676 1.256 . S
C1672 O1678 1.278 . S
C1672 O1679 1.241 1_545 S
C1673 O1659 1.244 . S
C1673 O1661 1.256 . S
C1674 O1663 1.239 . S
C1674 O1667 1.256 . S
C1675 O1664 1.278 . S
C1675 O1670 1.241 . S
C1676 O1666 1.244 . S
C1676 O1671 1.256 . S
C1677 O1668 1.239 1_565 S
C1677 O1669 1.256 . S
O1678 Mn1660 2.221 . S
O1678 Mn1662 2.290 1_545 S
O1678 C1672 1.278 . S
O1679 Mn1662 2.251 . S
O1679 C1672 1.241 1_565 S
O1680 Mn1681 2.163 . S
O1680 C1694 1.244 . S
Mn1681 O1680 2.163 . S
Mn1681 O1684 2.160 . S
Mn1681 O1685 2.221 . S
Mn1681 O1687 2.163 . S
Mn1681 O1689 2.160 . S
Mn1681 O1699 2.221 . S
O1682 Mn1683 2.087 . S
O1682 C1694 1.256 . S
Mn1683 O1682 2.087 . S
Mn1683 O1690 2.089 . S
Mn1683 O1699 2.290 . S
Mn1683 O1700 2.251 . S
O1684 Mn1681 2.160 . S
O1684 C1695 1.239 . S
O1685 Mn1681 2.221 . S
O1685 Mn1686 2.290 . S
O1685 C1696 1.278 . S
Mn1686 O1685 2.290 . S
Mn1686 O1688 2.089 . S
Mn1686 O1691 2.251 . S
Mn1686 O1692 2.087 . S
O1687 Mn1681 2.163 . S
O1687 C1697 1.244 . S
O1688 Mn1686 2.089 . S
O1688 C1695 1.256 . S
O1689 Mn1681 2.160 . S
O1689 C1698 1.239 . S
O1690 Mn1683 2.089 . S
O1690 C1698 1.256 . S
O1691 Mn1686 2.251 . S
O1691 C1696 1.241 . S
O1692 Mn1686 2.087 . S
O1692 C1697 1.256 . S
C1693 O1699 1.278 . S
C1693 O1700 1.241 . S
C1694 O1680 1.244 . S
C1694 O1682 1.256 . S
C1695 O1684 1.239 . S
C1695 O1688 1.256 . S
C1696 O1685 1.278 . S
C1696 O1691 1.241 . S
C1697 O1687 1.244 . S
C1697 O1692 1.256 . S
C1698 O1689 1.239 . S
C1698 O1690 1.256 . S
O1699 Mn1681 2.221 . S
O1699 Mn1683 2.290 . S
O1699 C1693 1.278 . S
O1700 Mn1683 2.251 . S
O1700 C1693 1.241 . S
O1701 Mn1702 2.163 . S
O1701 C1715 1.244 . S
Mn1702 O1701 2.163 . S
Mn1702 O1705 2.160 . S
Mn1702 O1706 2.221 . S
Mn1702 O1708 2.163 1_556 S
Mn1702 O1710 2.160 . S
Mn1702 O1720 2.221 1_556 S
O1703 Mn1704 2.087 1_556 S
O1703 C1715 1.256 . S
Mn1704 O1703 2.087 1_554 S
Mn1704 O1711 2.089 1_554 S
Mn1704 O1720 2.290 . S
Mn1704 O1721 2.251 . S
O1705 Mn1702 2.160 . S
O1705 C1716 1.239 . S
O1706 Mn1702 2.221 . S
O1706 Mn1707 2.290 . S
O1706 C1717 1.278 . S
Mn1707 O1706 2.290 . S
Mn1707 O1709 2.089 . S
Mn1707 O1712 2.251 . S
Mn1707 O1713 2.087 . S
O1708 Mn1702 2.163 1_554 S
O1708 C1718 1.244 . S
O1709 Mn1707 2.089 . S
O1709 C1716 1.256 . S
O1710 Mn1702 2.160 . S
O1710 C1719 1.239 . S
O1711 Mn1704 2.089 1_556 S
O1711 C1719 1.256 . S
O1712 Mn1707 2.251 . S
O1712 C1717 1.241 . S
O1713 Mn1707 2.087 . S
O1713 C1718 1.256 1_556 S
C1714 O1720 1.278 . S
C1714 O1721 1.241 . S
C1715 O1701 1.244 . S
C1715 O1703 1.256 . S
C1716 O1705 1.239 . S
C1716 O1709 1.256 . S
C1717 O1706 1.278 . S
C1717 O1712 1.241 . S
C1718 O1708 1.244 . S
C1718 O1713 1.256 1_554 S
C1719 O1710 1.239 . S
C1719 O1711 1.256 . S
O1720 Mn1702 2.221 1_554 S
O1720 Mn1704 2.290 . S
O1720 C1714 1.278 . S
O1721 Mn1704 2.251 . S
O1721 C1714 1.241 . S
O1722 Mn1723 2.163 . S
O1722 C1736 1.244 . S
Mn1723 O1722 2.163 . S
Mn1723 O1726 2.160 . S
Mn1723 O1727 2.221 . S
Mn1723 O1729 2.163 . S
Mn1723 O1731 2.160 . S
Mn1723 O1741 2.221 . S
O1724 Mn1725 2.087 . S
O1724 C1736 1.256 . S
Mn1725 O1724 2.087 . S
Mn1725 O1732 2.089 . S
Mn1725 O1741 2.290 . S
Mn1725 O1742 2.251 . S
O1726 Mn1723 2.160 . S
O1726 C1737 1.239 . S
O1727 Mn1723 2.221 . S
O1727 Mn1728 2.290 . S
O1727 C1738 1.278 . S
Mn1728 O1727 2.290 . S
Mn1728 O1730 2.089 . S
Mn1728 O1733 2.251 . S
Mn1728 O1734 2.087 . S
O1729 Mn1723 2.163 . S
O1729 C1739 1.244 . S
O1730 Mn1728 2.089 . S
O1730 C1737 1.256 . S
O1731 Mn1723 2.160 . S
O1731 C1740 1.239 . S
O1732 Mn1725 2.089 . S
O1732 C1740 1.256 . S
O1733 Mn1728 2.251 . S
O1733 C1738 1.241 . S
O1734 Mn1728 2.087 . S
O1734 C1739 1.256 . S
C1735 O1741 1.278 . S
C1735 O1742 1.241 . S
C1736 O1722 1.244 . S
C1736 O1724 1.256 . S
C1737 O1726 1.239 . S
C1737 O1730 1.256 . S
C1738 O1727 1.278 . S
C1738 O1733 1.241 . S
C1739 O1729 1.244 . S
C1739 O1734 1.256 . S
C1740 O1731 1.239 . S
C1740 O1732 1.256 . S
O1741 Mn1723 2.221 . S
O1741 Mn1725 2.290 . S
O1741 C1735 1.278 . S
O1742 Mn1725 2.251 . S
O1742 C1735 1.241 . S
O1743 Mn1744 2.163 . S
O1743 C1757 1.244 . S
Mn1744 O1743 2.163 . S
Mn1744 O1747 2.160 . S
Mn1744 O1748 2.221 . S
Mn1744 O1750 2.163 . S
Mn1744 O1752 2.160 . S
Mn1744 O1762 2.221 . S
O1745 Mn1746 2.087 . S
O1745 C1757 1.256 . S
Mn1746 O1745 2.087 . S
Mn1746 O1753 2.089 . S
Mn1746 O1762 2.290 . S
Mn1746 O1763 2.251 . S
O1747 Mn1744 2.160 . S
O1747 C1758 1.239 . S
O1748 Mn1744 2.221 . S
O1748 Mn1749 2.290 . S
O1748 C1759 1.278 . S
Mn1749 O1748 2.290 . S
Mn1749 O1751 2.089 . S
Mn1749 O1754 2.251 . S
Mn1749 O1755 2.087 . S
O1750 Mn1744 2.163 . S
O1750 C1760 1.244 . S
O1751 Mn1749 2.089 . S
O1751 C1758 1.256 . S
O1752 Mn1744 2.160 . S
O1752 C1761 1.239 . S
O1753 Mn1746 2.089 . S
O1753 C1761 1.256 . S
O1754 Mn1749 2.251 . S
O1754 C1759 1.241 . S
O1755 Mn1749 2.087 . S
O1755 C1760 1.256 . S
C1756 O1762 1.278 . S
C1756 O1763 1.241 . S
C1757 O1743 1.244 . S
C1757 O1745 1.256 . S
C1758 O1747 1.239 . S
C1758 O1751 1.256 . S
C1759 O1748 1.278 . S
C1759 O1754 1.241 . S
C1760 O1750 1.244 . S
C1760 O1755 1.256 . S
C1761 O1752 1.239 . S
C1761 O1753 1.256 . S
O1762 Mn1744 2.221 . S
O1762 Mn1746 2.290 . S
O1762 C1756 1.278 . S
O1763 Mn1746 2.251 . S
O1763 C1756 1.241 . S
O1764 Mn1765 2.163 . S
O1764 C1778 1.244 . S
Mn1765 O1764 2.163 . S
Mn1765 O1768 2.160 . S
Mn1765 O1769 2.221 . S
Mn1765 O1771 2.163 . S
Mn1765 O1773 2.160 . S
Mn1765 O1783 2.221 . S
O1766 Mn1767 2.087 . S
O1766 C1778 1.256 . S
Mn1767 O1766 2.087 . S
Mn1767 O1774 2.089 . S
Mn1767 O1783 2.290 . S
Mn1767 O1784 2.251 . S
O1768 Mn1765 2.160 . S
O1768 C1779 1.239 . S
O1769 Mn1765 2.221 . S
O1769 Mn1770 2.290 . S
O1769 C1780 1.278 . S
Mn1770 O1769 2.290 . S
Mn1770 O1772 2.089 . S
Mn1770 O1775 2.251 . S
Mn1770 O1776 2.087 . S
O1771 Mn1765 2.163 . S
O1771 C1781 1.244 . S
O1772 Mn1770 2.089 . S
O1772 C1779 1.256 . S
O1773 Mn1765 2.160 . S
O1773 C1782 1.239 . S
O1774 Mn1767 2.089 . S
O1774 C1782 1.256 . S
O1775 Mn1770 2.251 . S
O1775 C1780 1.241 . S
O1776 Mn1770 2.087 . S
O1776 C1781 1.256 . S
C1777 O1783 1.278 . S
C1777 O1784 1.241 . S
C1778 O1764 1.244 . S
C1778 O1766 1.256 . S
C1779 O1768 1.239 . S
C1779 O1772 1.256 . S
C1780 O1769 1.278 . S
C1780 O1775 1.241 . S
C1781 O1771 1.244 . S
C1781 O1776 1.256 . S
C1782 O1773 1.239 . S
C1782 O1774 1.256 . S
O1783 Mn1765 2.221 . S
O1783 Mn1767 2.290 . S
O1783 C1777 1.278 . S
O1784 Mn1767 2.251 . S
O1784 C1777 1.241 . S
O1785 Mn1786 2.163 . S
O1785 C1799 1.244 . S
Mn1786 O1785 2.163 . S
Mn1786 O1789 2.160 . S
Mn1786 O1790 2.221 . S
Mn1786 O1792 2.163 . S
Mn1786 O1794 2.160 . S
Mn1786 O1804 2.221 . S
O1787 Mn1788 2.087 . S
O1787 C1799 1.256 . S
Mn1788 O1787 2.087 . S
Mn1788 O1795 2.089 . S
Mn1788 O1804 2.290 . S
Mn1788 O1805 2.251 . S
O1789 Mn1786 2.160 . S
O1789 C1800 1.239 . S
O1790 Mn1786 2.221 . S
O1790 Mn1791 2.290 . S
O1790 C1801 1.278 . S
Mn1791 O1790 2.290 . S
Mn1791 O1793 2.089 . S
Mn1791 O1796 2.251 . S
Mn1791 O1797 2.087 . S
O1792 Mn1786 2.163 . S
O1792 C1802 1.244 . S
O1793 Mn1791 2.089 . S
O1793 C1800 1.256 . S
O1794 Mn1786 2.160 . S
O1794 C1803 1.239 . S
O1795 Mn1788 2.089 . S
O1795 C1803 1.256 . S
O1796 Mn1791 2.251 . S
O1796 C1801 1.241 . S
O1797 Mn1791 2.087 . S
O1797 C1802 1.256 . S
C1798 O1804 1.278 . S
C1798 O1805 1.241 . S
C1799 O1785 1.244 . S
C1799 O1787 1.256 . S
C1800 O1789 1.239 . S
C1800 O1793 1.256 . S
C1801 O1790 1.278 . S
C1801 O1796 1.241 . S
C1802 O1792 1.244 . S
C1802 O1797 1.256 . S
C1803 O1794 1.239 . S
C1803 O1795 1.256 . S
O1804 Mn1786 2.221 . S
O1804 Mn1788 2.290 . S
O1804 C1798 1.278 . S
O1805 Mn1788 2.251 . S
O1805 C1798 1.241 . S
O1806 Mn1807 2.163 1_545 S
O1806 C1820 1.244 . S
Mn1807 O1806 2.163 1_565 S
Mn1807 O1810 2.160 . S
Mn1807 O1811 2.221 . S
Mn1807 O1813 2.163 1_554 S
Mn1807 O1815 2.160 . S
Mn1807 O1825 2.221 1_554 S
O1808 Mn1809 2.087 1_554 S
O1808 C1820 1.256 . S
Mn1809 O1808 2.087 1_556 S
Mn1809 O1816 2.089 1_556 S
Mn1809 O1825 2.290 1_545 S
Mn1809 O1826 2.251 . S
O1810 Mn1807 2.160 . S
O1810 C1821 1.239 . S
O1811 Mn1807 2.221 . S
O1811 Mn1812 2.290 . S
O1811 C1822 1.278 . S
Mn1812 O1811 2.290 . S
Mn1812 O1814 2.089 . S
Mn1812 O1817 2.251 . S
Mn1812 O1818 2.087 . S
O1813 Mn1807 2.163 1_556 S
O1813 C1823 1.244 . S
O1814 Mn1812 2.089 . S
O1814 C1821 1.256 . S
O1815 Mn1807 2.160 . S
O1815 C1824 1.239 1_565 S
O1816 Mn1809 2.089 1_554 S
O1816 C1824 1.256 . S
O1817 Mn1812 2.251 . S
O1817 C1822 1.241 . S
O1818 Mn1812 2.087 . S
O1818 C1823 1.256 1_554 S
C1819 O1825 1.278 . S
C1819 O1826 1.241 1_565 S
C1820 O1806 1.244 . S
C1820 O1808 1.256 . S
C1821 O1810 1.239 . S
C1821 O1814 1.256 . S
C1822 O1811 1.278 . S
C1822 O1817 1.241 . S
C1823 O1813 1.244 . S
C1823 O1818 1.256 1_556 S
C1824 O1815 1.239 1_545 S
C1824 O1816 1.256 . S
O1825 Mn1807 2.221 1_556 S
O1825 Mn1809 2.290 1_565 S
O1825 C1819 1.278 . S
O1826 Mn1809 2.251 . S
O1826 C1819 1.241 1_545 S
O1827 Mn1828 2.163 1_655 S
O1827 C1841 1.244 . S
Mn1828 O1827 2.163 1_455 S
Mn1828 O1831 2.160 . S
Mn1828 O1832 2.221 . S
Mn1828 O1834 2.163 . S
Mn1828 O1836 2.160 . S
Mn1828 O1846 2.221 . S
O1829 Mn1830 2.087 . S
O1829 C1841 1.256 . S
Mn1830 O1829 2.087 . S
Mn1830 O1837 2.089 . S
Mn1830 O1846 2.290 1_655 S
Mn1830 O1847 2.251 . S
O1831 Mn1828 2.160 . S
O1831 C1842 1.239 . S
O1832 Mn1828 2.221 . S
O1832 Mn1833 2.290 . S
O1832 C1843 1.278 . S
Mn1833 O1832 2.290 . S
Mn1833 O1835 2.089 . S
Mn1833 O1838 2.251 . S
Mn1833 O1839 2.087 . S
O1834 Mn1828 2.163 . S
O1834 C1844 1.244 . S
O1835 Mn1833 2.089 . S
O1835 C1842 1.256 . S
O1836 Mn1828 2.160 . S
O1836 C1845 1.239 1_455 S
O1837 Mn1830 2.089 . S
O1837 C1845 1.256 . S
O1838 Mn1833 2.251 . S
O1838 C1843 1.241 . S
O1839 Mn1833 2.087 . S
O1839 C1844 1.256 . S
C1840 O1846 1.278 . S
C1840 O1847 1.241 1_455 S
C1841 O1827 1.244 . S
C1841 O1829 1.256 . S
C1842 O1831 1.239 . S
C1842 O1835 1.256 . S
C1843 O1832 1.278 . S
C1843 O1838 1.241 . S
C1844 O1834 1.244 . S
C1844 O1839 1.256 . S
C1845 O1836 1.239 1_655 S
C1845 O1837 1.256 . S
O1846 Mn1828 2.221 . S
O1846 Mn1830 2.290 1_455 S
O1846 C1840 1.278 . S
O1847 Mn1830 2.251 . S
O1847 C1840 1.241 1_655 S
O1848 Mn1849 2.163 . S
O1848 C1862 1.244 . S
Mn1849 O1848 2.163 . S
Mn1849 O1852 2.160 . S
Mn1849 O1853 2.221 . S
Mn1849 O1855 2.163 . S
Mn1849 O1857 2.160 . S
Mn1849 O1867 2.221 . S
O1850 Mn1851 2.087 . S
O1850 C1862 1.256 . S
Mn1851 O1850 2.087 . S
Mn1851 O1858 2.089 . S
Mn1851 O1867 2.290 . S
Mn1851 O1868 2.251 . S
O1852 Mn1849 2.160 . S
O1852 C1863 1.239 . S
O1853 Mn1849 2.221 . S
O1853 Mn1854 2.290 . S
O1853 C1864 1.278 . S
Mn1854 O1853 2.290 . S
Mn1854 O1856 2.089 . S
Mn1854 O1859 2.251 . S
Mn1854 O1860 2.087 . S
O1855 Mn1849 2.163 . S
O1855 C1865 1.244 . S
O1856 Mn1854 2.089 . S
O1856 C1863 1.256 . S
O1857 Mn1849 2.160 . S
O1857 C1866 1.239 . S
O1858 Mn1851 2.089 . S
O1858 C1866 1.256 . S
O1859 Mn1854 2.251 . S
O1859 C1864 1.241 . S
O1860 Mn1854 2.087 . S
O1860 C1865 1.256 . S
C1861 O1867 1.278 . S
C1861 O1868 1.241 . S
C1862 O1848 1.244 . S
C1862 O1850 1.256 . S
C1863 O1852 1.239 . S
C1863 O1856 1.256 . S
C1864 O1853 1.278 . S
C1864 O1859 1.241 . S
C1865 O1855 1.244 . S
C1865 O1860 1.256 . S
C1866 O1857 1.239 . S
C1866 O1858 1.256 . S
O1867 Mn1849 2.221 . S
O1867 Mn1851 2.290 . S
O1867 C1861 1.278 . S
O1868 Mn1851 2.251 . S
O1868 C1861 1.241 . S
O1869 Mn1870 2.163 . S
O1869 C1883 1.244 . S
Mn1870 O1869 2.163 . S
Mn1870 O1873 2.160 . S
Mn1870 O1874 2.221 . S
Mn1870 O1876 2.163 . S
Mn1870 O1878 2.160 . S
Mn1870 O1888 2.221 . S
O1871 Mn1872 2.087 . S
O1871 C1883 1.256 . S
Mn1872 O1871 2.087 . S
Mn1872 O1879 2.089 . S
Mn1872 O1888 2.290 . S
Mn1872 O1889 2.251 . S
O1873 Mn1870 2.160 . S
O1873 C1884 1.239 . S
O1874 Mn1870 2.221 . S
O1874 Mn1875 2.290 . S
O1874 C1885 1.278 . S
Mn1875 O1874 2.290 . S
Mn1875 O1877 2.089 . S
Mn1875 O1880 2.251 . S
Mn1875 O1881 2.087 . S
O1876 Mn1870 2.163 . S
O1876 C1886 1.244 . S
O1877 Mn1875 2.089 . S
O1877 C1884 1.256 . S
O1878 Mn1870 2.160 . S
O1878 C1887 1.239 . S
O1879 Mn1872 2.089 . S
O1879 C1887 1.256 . S
O1880 Mn1875 2.251 . S
O1880 C1885 1.241 . S
O1881 Mn1875 2.087 . S
O1881 C1886 1.256 . S
C1882 O1888 1.278 . S
C1882 O1889 1.241 . S
C1883 O1869 1.244 . S
C1883 O1871 1.256 . S
C1884 O1873 1.239 . S
C1884 O1877 1.256 . S
C1885 O1874 1.278 . S
C1885 O1880 1.241 . S
C1886 O1876 1.244 . S
C1886 O1881 1.256 . S
C1887 O1878 1.239 . S
C1887 O1879 1.256 . S
O1888 Mn1870 2.221 . S
O1888 Mn1872 2.290 . S
O1888 C1882 1.278 . S
O1889 Mn1872 2.251 . S
O1889 C1882 1.241 . S
O1890 Mn1891 2.163 . S
O1890 C1904 1.244 . S
Mn1891 O1890 2.163 . S
Mn1891 O1894 2.160 . S
Mn1891 O1895 2.221 . S
Mn1891 O1897 2.163 . S
Mn1891 O1899 2.160 . S
Mn1891 O1909 2.221 . S
O1892 Mn1893 2.087 . S
O1892 C1904 1.256 . S
Mn1893 O1892 2.087 . S
Mn1893 O1900 2.089 . S
Mn1893 O1909 2.290 . S
Mn1893 O1910 2.251 . S
O1894 Mn1891 2.160 . S
O1894 C1905 1.239 . S
O1895 Mn1891 2.221 . S
O1895 Mn1896 2.290 . S
O1895 C1906 1.278 . S
Mn1896 O1895 2.290 . S
Mn1896 O1898 2.089 . S
Mn1896 O1901 2.251 . S
Mn1896 O1902 2.087 . S
O1897 Mn1891 2.163 . S
O1897 C1907 1.244 . S
O1898 Mn1896 2.089 . S
O1898 C1905 1.256 . S
O1899 Mn1891 2.160 . S
O1899 C1908 1.239 . S
O1900 Mn1893 2.089 . S
O1900 C1908 1.256 . S
O1901 Mn1896 2.251 . S
O1901 C1906 1.241 . S
O1902 Mn1896 2.087 . S
O1902 C1907 1.256 . S
C1903 O1909 1.278 . S
C1903 O1910 1.241 . S
C1904 O1890 1.244 . S
C1904 O1892 1.256 . S
C1905 O1894 1.239 . S
C1905 O1898 1.256 . S
C1906 O1895 1.278 . S
C1906 O1901 1.241 . S
C1907 O1897 1.244 . S
C1907 O1902 1.256 . S
C1908 O1899 1.239 . S
C1908 O1900 1.256 . S
O1909 Mn1891 2.221 . S
O1909 Mn1893 2.290 . S
O1909 C1903 1.278 . S
O1910 Mn1893 2.251 . S
O1910 C1903 1.241 . S
O1911 Mn1912 2.163 . S
O1911 C1925 1.244 . S
Mn1912 O1911 2.163 . S
Mn1912 O1915 2.160 . S
Mn1912 O1916 2.221 . S
Mn1912 O1918 2.163 . S
Mn1912 O1920 2.160 . S
Mn1912 O1930 2.221 . S
O1913 Mn1914 2.087 . S
O1913 C1925 1.256 . S
Mn1914 O1913 2.087 . S
Mn1914 O1921 2.089 . S
Mn1914 O1930 2.290 . S
Mn1914 O1931 2.251 . S
O1915 Mn1912 2.160 . S
O1915 C1926 1.239 . S
O1916 Mn1912 2.221 . S
O1916 Mn1917 2.290 . S
O1916 C1927 1.278 . S
Mn1917 O1916 2.290 . S
Mn1917 O1919 2.089 . S
Mn1917 O1922 2.251 . S
Mn1917 O1923 2.087 . S
O1918 Mn1912 2.163 . S
O1918 C1928 1.244 . S
O1919 Mn1917 2.089 . S
O1919 C1926 1.256 . S
O1920 Mn1912 2.160 . S
O1920 C1929 1.239 . S
O1921 Mn1914 2.089 . S
O1921 C1929 1.256 . S
O1922 Mn1917 2.251 . S
O1922 C1927 1.241 . S
O1923 Mn1917 2.087 . S
O1923 C1928 1.256 . S
C1924 O1930 1.278 . S
C1924 O1931 1.241 . S
C1925 O1911 1.244 . S
C1925 O1913 1.256 . S
C1926 O1915 1.239 . S
C1926 O1919 1.256 . S
C1927 O1916 1.278 . S
C1927 O1922 1.241 . S
C1928 O1918 1.244 . S
C1928 O1923 1.256 . S
C1929 O1920 1.239 . S
C1929 O1921 1.256 . S
O1930 Mn1912 2.221 . S
O1930 Mn1914 2.290 . S
O1930 C1924 1.278 . S
O1931 Mn1914 2.251 . S
O1931 C1924 1.241 . S
O1932 Mn1933 2.163 1_556 S
O1932 C1946 1.244 . S
Mn1933 O1932 2.163 1_554 S
Mn1933 O1936 2.160 . S
Mn1933 O1937 2.221 . S
Mn1933 O1939 2.163 . S
Mn1933 O1941 2.160 . S
Mn1933 O1951 2.221 . S
O1934 Mn1935 2.087 . S
O1934 C1946 1.256 . S
Mn1935 O1934 2.087 . S
Mn1935 O1942 2.089 . S
Mn1935 O1951 2.290 1_556 S
Mn1935 O1952 2.251 . S
O1936 Mn1933 2.160 . S
O1936 C1947 1.239 . S
O1937 Mn1933 2.221 . S
O1937 Mn1938 2.290 . S
O1937 C1948 1.278 . S
Mn1938 O1937 2.290 . S
Mn1938 O1940 2.089 . S
Mn1938 O1943 2.251 . S
Mn1938 O1944 2.087 . S
O1939 Mn1933 2.163 . S
O1939 C1949 1.244 . S
O1940 Mn1938 2.089 . S
O1940 C1947 1.256 . S
O1941 Mn1933 2.160 . S
O1941 C1950 1.239 1_554 S
O1942 Mn1935 2.089 . S
O1942 C1950 1.256 . S
O1943 Mn1938 2.251 . S
O1943 C1948 1.241 . S
O1944 Mn1938 2.087 . S
O1944 C1949 1.256 . S
C1945 O1951 1.278 . S
C1945 O1952 1.241 1_554 S
C1946 O1932 1.244 . S
C1946 O1934 1.256 . S
C1947 O1936 1.239 . S
C1947 O1940 1.256 . S
C1948 O1937 1.278 . S
C1948 O1943 1.241 . S
C1949 O1939 1.244 . S
C1949 O1944 1.256 . S
C1950 O1941 1.239 1_556 S
C1950 O1942 1.256 . S
O1951 Mn1933 2.221 . S
O1951 Mn1935 2.290 1_554 S
O1951 C1945 1.278 . S
O1952 Mn1935 2.251 . S
O1952 C1945 1.241 1_556 S
O1953 Mn1954 2.163 . S
O1953 C1967 1.244 . S
Mn1954 O1953 2.163 . S
Mn1954 O1957 2.160 . S
Mn1954 O1958 2.221 . S
Mn1954 O1960 2.163 1_455 S
Mn1954 O1962 2.160 . S
Mn1954 O1972 2.221 1_455 S
O1955 Mn1956 2.087 1_455 S
O1955 C1967 1.256 . S
Mn1956 O1955 2.087 1_655 S
Mn1956 O1963 2.089 1_655 S
Mn1956 O1972 2.290 . S
Mn1956 O1973 2.251 . S
O1957 Mn1954 2.160 . S
O1957 C1968 1.239 . S
O1958 Mn1954 2.221 . S
O1958 Mn1959 2.290 . S
O1958 C1969 1.278 . S
Mn1959 O1958 2.290 . S
Mn1959 O1961 2.089 . S
Mn1959 O1964 2.251 . S
Mn1959 O1965 2.087 . S
O1960 Mn1954 2.163 1_655 S
O1960 C1970 1.244 . S
O1961 Mn1959 2.089 . S
O1961 C1968 1.256 . S
O1962 Mn1954 2.160 . S
O1962 C1971 1.239 . S
O1963 Mn1956 2.089 1_455 S
O1963 C1971 1.256 . S
O1964 Mn1959 2.251 . S
O1964 C1969 1.241 . S
O1965 Mn1959 2.087 . S
O1965 C1970 1.256 1_455 S
C1966 O1972 1.278 . S
C1966 O1973 1.241 . S
C1967 O1953 1.244 . S
C1967 O1955 1.256 . S
C1968 O1957 1.239 . S
C1968 O1961 1.256 . S
C1969 O1958 1.278 . S
C1969 O1964 1.241 . S
C1970 O1960 1.244 . S
C1970 O1965 1.256 1_655 S
C1971 O1962 1.239 . S
C1971 O1963 1.256 . S
O1972 Mn1954 2.221 1_655 S
O1972 Mn1956 2.290 . S
O1972 C1966 1.278 . S
O1973 Mn1956 2.251 . S
O1973 C1966 1.241 . S
O1974 Mn1975 2.163 . S
O1974 C1988 1.244 . S
Mn1975 O1974 2.163 . S
Mn1975 O1978 2.160 . S
Mn1975 O1979 2.221 . S
Mn1975 O1981 2.163 . S
Mn1975 O1983 2.160 . S
Mn1975 O1993 2.221 . S
O1976 Mn1977 2.087 . S
O1976 C1988 1.256 . S
Mn1977 O1976 2.087 . S
Mn1977 O1984 2.089 . S
Mn1977 O1993 2.290 . S
Mn1977 O1994 2.251 . S
O1978 Mn1975 2.160 . S
O1978 C1989 1.239 . S
O1979 Mn1975 2.221 . S
O1979 Mn1980 2.290 . S
O1979 C1990 1.278 . S
Mn1980 O1979 2.290 . S
Mn1980 O1982 2.089 . S
Mn1980 O1985 2.251 . S
Mn1980 O1986 2.087 . S
O1981 Mn1975 2.163 . S
O1981 C1991 1.244 . S
O1982 Mn1980 2.089 . S
O1982 C1989 1.256 . S
O1983 Mn1975 2.160 . S
O1983 C1992 1.239 . S
O1984 Mn1977 2.089 . S
O1984 C1992 1.256 . S
O1985 Mn1980 2.251 . S
O1985 C1990 1.241 . S
O1986 Mn1980 2.087 . S
O1986 C1991 1.256 . S
C1987 O1993 1.278 . S
C1987 O1994 1.241 . S
C1988 O1974 1.244 . S
C1988 O1976 1.256 . S
C1989 O1978 1.239 . S
C1989 O1982 1.256 . S
C1990 O1979 1.278 . S
C1990 O1985 1.241 . S
C1991 O1981 1.244 . S
C1991 O1986 1.256 . S
C1992 O1983 1.239 . S
C1992 O1984 1.256 . S
O1993 Mn1975 2.221 . S
O1993 Mn1977 2.290 . S
O1993 C1987 1.278 . S
O1994 Mn1977 2.251 . S
O1994 C1987 1.241 . S
O1995 Mn1996 2.163 . S
O1995 C2009 1.244 . S
Mn1996 O1995 2.163 . S
Mn1996 O1999 2.160 . S
Mn1996 O2000 2.221 . S
Mn1996 O2002 2.163 . S
Mn1996 O2004 2.160 . S
Mn1996 O2014 2.221 . S
O1997 Mn1998 2.087 . S
O1997 C2009 1.256 . S
Mn1998 O1997 2.087 . S
Mn1998 O2005 2.089 . S
Mn1998 O2014 2.290 . S
Mn1998 O2015 2.251 . S
O1999 Mn1996 2.160 . S
O1999 C2010 1.239 . S
O2000 Mn1996 2.221 . S
O2000 Mn2001 2.290 . S
O2000 C2011 1.278 . S
Mn2001 O2000 2.290 . S
Mn2001 O2003 2.089 . S
Mn2001 O2006 2.251 . S
Mn2001 O2007 2.087 . S
O2002 Mn1996 2.163 . S
O2002 C2012 1.244 . S
O2003 Mn2001 2.089 . S
O2003 C2010 1.256 . S
O2004 Mn1996 2.160 . S
O2004 C2013 1.239 . S
O2005 Mn1998 2.089 . S
O2005 C2013 1.256 . S
O2006 Mn2001 2.251 . S
O2006 C2011 1.241 . S
O2007 Mn2001 2.087 . S
O2007 C2012 1.256 . S
C2008 O2014 1.278 . S
C2008 O2015 1.241 . S
C2009 O1995 1.244 . S
C2009 O1997 1.256 . S
C2010 O1999 1.239 . S
C2010 O2003 1.256 . S
C2011 O2000 1.278 . S
C2011 O2006 1.241 . S
C2012 O2002 1.244 . S
C2012 O2007 1.256 . S
C2013 O2004 1.239 . S
C2013 O2005 1.256 . S
O2014 Mn1996 2.221 . S
O2014 Mn1998 2.290 . S
O2014 C2008 1.278 . S
O2015 Mn1998 2.251 . S
O2015 C2008 1.241 . S
O2016 Mn2017 2.163 . S
O2016 C2030 1.244 . S
Mn2017 O2016 2.163 . S
Mn2017 O2020 2.160 . S
Mn2017 O2021 2.221 . S
Mn2017 O2023 2.163 . S
Mn2017 O2025 2.160 . S
Mn2017 O2035 2.221 . S
O2018 Mn2019 2.087 . S
O2018 C2030 1.256 . S
Mn2019 O2018 2.087 . S
Mn2019 O2026 2.089 . S
Mn2019 O2035 2.290 . S
Mn2019 O2036 2.251 . S
O2020 Mn2017 2.160 . S
O2020 C2031 1.239 . S
O2021 Mn2017 2.221 . S
O2021 Mn2022 2.290 . S
O2021 C2032 1.278 . S
Mn2022 O2021 2.290 . S
Mn2022 O2024 2.089 . S
Mn2022 O2027 2.251 . S
Mn2022 O2028 2.087 . S
O2023 Mn2017 2.163 . S
O2023 C2033 1.244 . S
O2024 Mn2022 2.089 . S
O2024 C2031 1.256 . S
O2025 Mn2017 2.160 . S
O2025 C2034 1.239 . S
O2026 Mn2019 2.089 . S
O2026 C2034 1.256 . S
O2027 Mn2022 2.251 . S
O2027 C2032 1.241 . S
O2028 Mn2022 2.087 . S
O2028 C2033 1.256 . S
C2029 O2035 1.278 . S
C2029 O2036 1.241 . S
C2030 O2016 1.244 . S
C2030 O2018 1.256 . S
C2031 O2020 1.239 . S
C2031 O2024 1.256 . S
C2032 O2021 1.278 . S
C2032 O2027 1.241 . S
C2033 O2023 1.244 . S
C2033 O2028 1.256 . S
C2034 O2025 1.239 . S
C2034 O2026 1.256 . S
O2035 Mn2017 2.221 . S
O2035 Mn2019 2.290 . S
O2035 C2029 1.278 . S
O2036 Mn2019 2.251 . S
O2036 C2029 1.241 . S
O2037 Mn2038 2.163 . S
O2037 C2051 1.244 . S
Mn2038 O2037 2.163 . S
Mn2038 O2041 2.160 . S
Mn2038 O2042 2.221 . S
Mn2038 O2044 2.163 . S
Mn2038 O2046 2.160 . S
Mn2038 O2056 2.221 . S
O2039 Mn2040 2.087 . S
O2039 C2051 1.256 . S
Mn2040 O2039 2.087 . S
Mn2040 O2047 2.089 . S
Mn2040 O2056 2.290 . S
Mn2040 O2057 2.251 . S
O2041 Mn2038 2.160 . S
O2041 C2052 1.239 . S
O2042 Mn2038 2.221 . S
O2042 Mn2043 2.290 . S
O2042 C2053 1.278 . S
Mn2043 O2042 2.290 . S
Mn2043 O2045 2.089 . S
Mn2043 O2048 2.251 . S
Mn2043 O2049 2.087 . S
O2044 Mn2038 2.163 . S
O2044 C2054 1.244 . S
O2045 Mn2043 2.089 . S
O2045 C2052 1.256 . S
O2046 Mn2038 2.160 . S
O2046 C2055 1.239 . S
O2047 Mn2040 2.089 . S
O2047 C2055 1.256 . S
O2048 Mn2043 2.251 . S
O2048 C2053 1.241 . S
O2049 Mn2043 2.087 . S
O2049 C2054 1.256 . S
C2050 O2056 1.278 . S
C2050 O2057 1.241 . S
C2051 O2037 1.244 . S
C2051 O2039 1.256 . S
C2052 O2041 1.239 . S
C2052 O2045 1.256 . S
C2053 O2042 1.278 . S
C2053 O2048 1.241 . S
C2054 O2044 1.244 . S
C2054 O2049 1.256 . S
C2055 O2046 1.239 . S
C2055 O2047 1.256 . S
O2056 Mn2038 2.221 . S
O2056 Mn2040 2.290 . S
O2056 C2050 1.278 . S
O2057 Mn2040 2.251 . S
O2057 C2050 1.241 . S
O2058 Mn2059 2.163 . S
O2058 C2072 1.244 . S
Mn2059 O2058 2.163 . S
Mn2059 O2062 2.160 . S
Mn2059 O2063 2.221 . S
Mn2059 O2065 2.163 . S
Mn2059 O2067 2.160 . S
Mn2059 O2077 2.221 . S
O2060 Mn2061 2.087 . S
O2060 C2072 1.256 . S
Mn2061 O2060 2.087 . S
Mn2061 O2068 2.089 . S
Mn2061 O2077 2.290 . S
Mn2061 O2078 2.251 . S
O2062 Mn2059 2.160 . S
O2062 C2073 1.239 . S
O2063 Mn2059 2.221 . S
O2063 Mn2064 2.290 . S
O2063 C2074 1.278 . S
Mn2064 O2063 2.290 . S
Mn2064 O2066 2.089 . S
Mn2064 O2069 2.251 . S
Mn2064 O2070 2.087 . S
O2065 Mn2059 2.163 . S
O2065 C2075 1.244 . S
O2066 Mn2064 2.089 . S
O2066 C2073 1.256 . S
O2067 Mn2059 2.160 . S
O2067 C2076 1.239 . S
O2068 Mn2061 2.089 . S
O2068 C2076 1.256 . S
O2069 Mn2064 2.251 . S
O2069 C2074 1.241 . S
O2070 Mn2064 2.087 . S
O2070 C2075 1.256 . S
C2071 O2077 1.278 . S
C2071 O2078 1.241 . S
C2072 O2058 1.244 . S
C2072 O2060 1.256 . S
C2073 O2062 1.239 . S
C2073 O2066 1.256 . S
C2074 O2063 1.278 . S
C2074 O2069 1.241 . S
C2075 O2065 1.244 . S
C2075 O2070 1.256 . S
C2076 O2067 1.239 . S
C2076 O2068 1.256 . S
O2077 Mn2059 2.221 . S
O2077 Mn2061 2.290 . S
O2077 C2071 1.278 . S
O2078 Mn2061 2.251 . S
O2078 C2071 1.241 . S
O2079 Mn2080 2.163 . S
O2079 C2093 1.244 . S
Mn2080 O2079 2.163 . S
Mn2080 O2083 2.160 . S
Mn2080 O2084 2.221 . S
Mn2080 O2086 2.163 . S
Mn2080 O2088 2.160 . S
Mn2080 O2098 2.221 . S
O2081 Mn2082 2.087 . S
O2081 C2093 1.256 . S
Mn2082 O2081 2.087 . S
Mn2082 O2089 2.089 . S
Mn2082 O2098 2.290 . S
Mn2082 O2099 2.251 . S
O2083 Mn2080 2.160 . S
O2083 C2094 1.239 . S
O2084 Mn2080 2.221 . S
O2084 Mn2085 2.290 . S
O2084 C2095 1.278 . S
Mn2085 O2084 2.290 . S
Mn2085 O2087 2.089 . S
Mn2085 O2090 2.251 . S
Mn2085 O2091 2.087 . S
O2086 Mn2080 2.163 . S
O2086 C2096 1.244 . S
O2087 Mn2085 2.089 . S
O2087 C2094 1.256 . S
O2088 Mn2080 2.160 . S
O2088 C2097 1.239 . S
O2089 Mn2082 2.089 . S
O2089 C2097 1.256 . S
O2090 Mn2085 2.251 . S
O2090 C2095 1.241 . S
O2091 Mn2085 2.087 . S
O2091 C2096 1.256 . S
C2092 O2098 1.278 . S
C2092 O2099 1.241 . S
C2093 O2079 1.244 . S
C2093 O2081 1.256 . S
C2094 O2083 1.239 . S
C2094 O2087 1.256 . S
C2095 O2084 1.278 . S
C2095 O2090 1.241 . S
C2096 O2086 1.244 . S
C2096 O2091 1.256 . S
C2097 O2088 1.239 . S
C2097 O2089 1.256 . S
O2098 Mn2080 2.221 . S
O2098 Mn2082 2.290 . S
O2098 C2092 1.278 . S
O2099 Mn2082 2.251 . S
O2099 C2092 1.241 . S
O2100 Mn2101 2.163 . S
O2100 C2114 1.244 . S
Mn2101 O2100 2.163 . S
Mn2101 O2104 2.160 . S
Mn2101 O2105 2.221 . S
Mn2101 O2107 2.163 1_565 S
Mn2101 O2109 2.160 . S
Mn2101 O2119 2.221 1_565 S
O2102 Mn2103 2.087 1_565 S
O2102 C2114 1.256 . S
Mn2103 O2102 2.087 1_545 S
Mn2103 O2110 2.089 1_545 S
Mn2103 O2119 2.290 . S
Mn2103 O2120 2.251 . S
O2104 Mn2101 2.160 . S
O2104 C2115 1.239 . S
O2105 Mn2101 2.221 . S
O2105 Mn2106 2.290 . S
O2105 C2116 1.278 . S
Mn2106 O2105 2.290 . S
Mn2106 O2108 2.089 . S
Mn2106 O2111 2.251 . S
Mn2106 O2112 2.087 . S
O2107 Mn2101 2.163 1_545 S
O2107 C2117 1.244 . S
O2108 Mn2106 2.089 . S
O2108 C2115 1.256 . S
O2109 Mn2101 2.160 . S
O2109 C2118 1.239 . S
O2110 Mn2103 2.089 1_565 S
O2110 C2118 1.256 . S
O2111 Mn2106 2.251 . S
O2111 C2116 1.241 . S
O2112 Mn2106 2.087 . S
O2112 C2117 1.256 1_565 S
C2113 O2119 1.278 . S
C2113 O2120 1.241 . S
C2114 O2100 1.244 . S
C2114 O2102 1.256 . S
C2115 O2104 1.239 . S
C2115 O2108 1.256 . S
C2116 O2105 1.278 . S
C2116 O2111 1.241 . S
C2117 O2107 1.244 . S
C2117 O2112 1.256 1_545 S
C2118 O2109 1.239 . S
C2118 O2110 1.256 . S
O2119 Mn2101 2.221 1_545 S
O2119 Mn2103 2.290 . S
O2119 C2113 1.278 . S
O2120 Mn2103 2.251 . S
O2120 C2113 1.241 . S
O2121 Mn2122 2.163 . S
O2121 C2135 1.244 . S
Mn2122 O2121 2.163 . S
Mn2122 O2125 2.160 . S
Mn2122 O2126 2.221 . S
Mn2122 O2128 2.163 1_455 S
Mn2122 O2130 2.160 . S
Mn2122 O2140 2.221 1_455 S
O2123 Mn2124 2.087 1_455 S
O2123 C2135 1.256 . S
Mn2124 O2123 2.087 1_655 S
Mn2124 O2131 2.089 1_655 S
Mn2124 O2140 2.290 . S
Mn2124 O2141 2.251 . S
O2125 Mn2122 2.160 . S
O2125 C2136 1.239 . S
O2126 Mn2122 2.221 . S
O2126 Mn2127 2.290 . S
O2126 C2137 1.278 . S
Mn2127 O2126 2.290 . S
Mn2127 O2129 2.089 . S
Mn2127 O2132 2.251 . S
Mn2127 O2133 2.087 . S
O2128 Mn2122 2.163 1_655 S
O2128 C2138 1.244 . S
O2129 Mn2127 2.089 . S
O2129 C2136 1.256 . S
O2130 Mn2122 2.160 . S
O2130 C2139 1.239 . S
O2131 Mn2124 2.089 1_455 S
O2131 C2139 1.256 . S
O2132 Mn2127 2.251 . S
O2132 C2137 1.241 . S
O2133 Mn2127 2.087 . S
O2133 C2138 1.256 1_455 S
C2134 O2140 1.278 . S
C2134 O2141 1.241 . S
C2135 O2121 1.244 . S
C2135 O2123 1.256 . S
C2136 O2125 1.239 . S
C2136 O2129 1.256 . S
C2137 O2126 1.278 . S
C2137 O2132 1.241 . S
C2138 O2128 1.244 . S
C2138 O2133 1.256 1_655 S
C2139 O2130 1.239 . S
C2139 O2131 1.256 . S
O2140 Mn2122 2.221 1_655 S
O2140 Mn2124 2.290 . S
O2140 C2134 1.278 . S
O2141 Mn2124 2.251 . S
O2141 C2134 1.241 . S
O2142 Mn2143 2.163 . S
O2142 C2156 1.244 . S
Mn2143 O2142 2.163 . S
Mn2143 O2146 2.160 . S
Mn2143 O2147 2.221 . S
Mn2143 O2149 2.163 . S
Mn2143 O2151 2.160 . S
Mn2143 O2161 2.221 . S
O2144 Mn2145 2.087 . S
O2144 C2156 1.256 . S
Mn2145 O2144 2.087 . S
Mn2145 O2152 2.089 . S
Mn2145 O2161 2.290 . S
Mn2145 O2162 2.251 . S
O2146 Mn2143 2.160 . S
O2146 C2157 1.239 . S
O2147 Mn2143 2.221 . S
O2147 Mn2148 2.290 . S
O2147 C2158 1.278 . S
Mn2148 O2147 2.290 . S
Mn2148 O2150 2.089 . S
Mn2148 O2153 2.251 . S
Mn2148 O2154 2.087 . S
O2149 Mn2143 2.163 . S
O2149 C2159 1.244 . S
O2150 Mn2148 2.089 . S
O2150 C2157 1.256 . S
O2151 Mn2143 2.160 . S
O2151 C2160 1.239 . S
O2152 Mn2145 2.089 . S
O2152 C2160 1.256 . S
O2153 Mn2148 2.251 . S
O2153 C2158 1.241 . S
O2154 Mn2148 2.087 . S
O2154 C2159 1.256 . S
C2155 O2161 1.278 . S
C2155 O2162 1.241 . S
C2156 O2142 1.244 . S
C2156 O2144 1.256 . S
C2157 O2146 1.239 . S
C2157 O2150 1.256 . S
C2158 O2147 1.278 . S
C2158 O2153 1.241 . S
C2159 O2149 1.244 . S
C2159 O2154 1.256 . S
C2160 O2151 1.239 . S
C2160 O2152 1.256 . S
O2161 Mn2143 2.221 . S
O2161 Mn2145 2.290 . S
O2161 C2155 1.278 . S
O2162 Mn2145 2.251 . S
O2162 C2155 1.241 . S
O2163 Mn2164 2.163 . S
O2163 C2177 1.244 . S
Mn2164 O2163 2.163 . S
Mn2164 O2167 2.160 . S
Mn2164 O2168 2.221 . S
Mn2164 O2170 2.163 . S
Mn2164 O2172 2.160 . S
Mn2164 O2182 2.221 . S
O2165 Mn2166 2.087 . S
O2165 C2177 1.256 . S
Mn2166 O2165 2.087 . S
Mn2166 O2173 2.089 . S
Mn2166 O2182 2.290 . S
Mn2166 O2183 2.251 . S
O2167 Mn2164 2.160 . S
O2167 C2178 1.239 . S
O2168 Mn2164 2.221 . S
O2168 Mn2169 2.290 . S
O2168 C2179 1.278 . S
Mn2169 O2168 2.290 . S
Mn2169 O2171 2.089 . S
Mn2169 O2174 2.251 . S
Mn2169 O2175 2.087 . S
O2170 Mn2164 2.163 . S
O2170 C2180 1.244 . S
O2171 Mn2169 2.089 . S
O2171 C2178 1.256 . S
O2172 Mn2164 2.160 . S
O2172 C2181 1.239 . S
O2173 Mn2166 2.089 . S
O2173 C2181 1.256 . S
O2174 Mn2169 2.251 . S
O2174 C2179 1.241 . S
O2175 Mn2169 2.087 . S
O2175 C2180 1.256 . S
C2176 O2182 1.278 . S
C2176 O2183 1.241 . S
C2177 O2163 1.244 . S
C2177 O2165 1.256 . S
C2178 O2167 1.239 . S
C2178 O2171 1.256 . S
C2179 O2168 1.278 . S
C2179 O2174 1.241 . S
C2180 O2170 1.244 . S
C2180 O2175 1.256 . S
C2181 O2172 1.239 . S
C2181 O2173 1.256 . S
O2182 Mn2164 2.221 . S
O2182 Mn2166 2.290 . S
O2182 C2176 1.278 . S
O2183 Mn2166 2.251 . S
O2183 C2176 1.241 . S
O2184 Mn2185 2.163 1_565 S
O2184 C2198 1.244 . S
Mn2185 O2184 2.163 1_545 S
Mn2185 O2188 2.160 . S
Mn2185 O2189 2.221 . S
Mn2185 O2191 2.163 . S
Mn2185 O2193 2.160 . S
Mn2185 O2203 2.221 . S
O2186 Mn2187 2.087 . S
O2186 C2198 1.256 . S
Mn2187 O2186 2.087 . S
Mn2187 O2194 2.089 . S
Mn2187 O2203 2.290 1_565 S
Mn2187 O2204 2.251 . S
O2188 Mn2185 2.160 . S
O2188 C2199 1.239 . S
O2189 Mn2185 2.221 . S
O2189 Mn2190 2.290 . S
O2189 C2200 1.278 . S
Mn2190 O2189 2.290 . S
Mn2190 O2192 2.089 . S
Mn2190 O2195 2.251 . S
Mn2190 O2196 2.087 . S
O2191 Mn2185 2.163 . S
O2191 C2201 1.244 . S
O2192 Mn2190 2.089 . S
O2192 C2199 1.256 . S
O2193 Mn2185 2.160 . S
O2193 C2202 1.239 1_545 S
O2194 Mn2187 2.089 . S
O2194 C2202 1.256 . S
O2195 Mn2190 2.251 . S
O2195 C2200 1.241 . S
O2196 Mn2190 2.087 . S
O2196 C2201 1.256 . S
C2197 O2203 1.278 . S
C2197 O2204 1.241 1_545 S
C2198 O2184 1.244 . S
C2198 O2186 1.256 . S
C2199 O2188 1.239 . S
C2199 O2192 1.256 . S
C2200 O2189 1.278 . S
C2200 O2195 1.241 . S
C2201 O2191 1.244 . S
C2201 O2196 1.256 . S
C2202 O2193 1.239 1_565 S
C2202 O2194 1.256 . S
O2203 Mn2185 2.221 . S
O2203 Mn2187 2.290 1_545 S
O2203 C2197 1.278 . S
O2204 Mn2187 2.251 . S
O2204 C2197 1.241 1_565 S
O2205 Mn2206 2.163 1_455 S
O2205 C2219 1.244 . S
Mn2206 O2205 2.163 1_655 S
Mn2206 O2209 2.160 . S
Mn2206 O2210 2.221 . S
Mn2206 O2212 2.163 1_554 S
Mn2206 O2214 2.160 . S
Mn2206 O2224 2.221 1_554 S
O2207 Mn2208 2.087 1_554 S
O2207 C2219 1.256 . S
Mn2208 O2207 2.087 1_556 S
Mn2208 O2215 2.089 1_556 S
Mn2208 O2224 2.290 1_455 S
Mn2208 O2225 2.251 . S
O2209 Mn2206 2.160 . S
O2209 C2220 1.239 . S
O2210 Mn2206 2.221 . S
O2210 Mn2211 2.290 . S
O2210 C2221 1.278 . S
Mn2211 O2210 2.290 . S
Mn2211 O2213 2.089 . S
Mn2211 O2216 2.251 . S
Mn2211 O2217 2.087 . S
O2212 Mn2206 2.163 1_556 S
O2212 C2222 1.244 . S
O2213 Mn2211 2.089 . S
O2213 C2220 1.256 . S
O2214 Mn2206 2.160 . S
O2214 C2223 1.239 1_655 S
O2215 Mn2208 2.089 1_554 S
O2215 C2223 1.256 . S
O2216 Mn2211 2.251 . S
O2216 C2221 1.241 . S
O2217 Mn2211 2.087 . S
O2217 C2222 1.256 1_554 S
C2218 O2224 1.278 . S
C2218 O2225 1.241 1_655 S
C2219 O2205 1.244 . S
C2219 O2207 1.256 . S
C2220 O2209 1.239 . S
C2220 O2213 1.256 . S
C2221 O2210 1.278 . S
C2221 O2216 1.241 . S
C2222 O2212 1.244 . S
C2222 O2217 1.256 1_556 S
C2223 O2214 1.239 1_455 S
C2223 O2215 1.256 . S
O2224 Mn2206 2.221 1_556 S
O2224 Mn2208 2.290 1_655 S
O2224 C2218 1.278 . S
O2225 Mn2208 2.251 . S
O2225 C2218 1.241 1_455 S
O2226 Mn2227 2.163 . S
O2226 C2240 1.244 . S
Mn2227 O2226 2.163 . S
Mn2227 O2230 2.160 . S
Mn2227 O2231 2.221 . S
Mn2227 O2233 2.163 . S
Mn2227 O2235 2.160 . S
Mn2227 O2245 2.221 . S
O2228 Mn2229 2.087 . S
O2228 C2240 1.256 . S
Mn2229 O2228 2.087 . S
Mn2229 O2236 2.089 . S
Mn2229 O2245 2.290 . S
Mn2229 O2246 2.251 . S
O2230 Mn2227 2.160 . S
O2230 C2241 1.239 . S
O2231 Mn2227 2.221 . S
O2231 Mn2232 2.290 . S
O2231 C2242 1.278 . S
Mn2232 O2231 2.290 . S
Mn2232 O2234 2.089 . S
Mn2232 O2237 2.251 . S
Mn2232 O2238 2.087 . S
O2233 Mn2227 2.163 . S
O2233 C2243 1.244 . S
O2234 Mn2232 2.089 . S
O2234 C2241 1.256 . S
O2235 Mn2227 2.160 . S
O2235 C2244 1.239 . S
O2236 Mn2229 2.089 . S
O2236 C2244 1.256 . S
O2237 Mn2232 2.251 . S
O2237 C2242 1.241 . S
O2238 Mn2232 2.087 . S
O2238 C2243 1.256 . S
C2239 O2245 1.278 . S
C2239 O2246 1.241 . S
C2240 O2226 1.244 . S
C2240 O2228 1.256 . S
C2241 O2230 1.239 . S
C2241 O2234 1.256 . S
C2242 O2231 1.278 . S
C2242 O2237 1.241 . S
C2243 O2233 1.244 . S
C2243 O2238 1.256 . S
C2244 O2235 1.239 . S
C2244 O2236 1.256 . S
O2245 Mn2227 2.221 . S
O2245 Mn2229 2.290 . S
O2245 C2239 1.278 . S
O2246 Mn2229 2.251 . S
O2246 C2239 1.241 . S
O2247 Mn2248 2.163 . S
O2247 C2261 1.244 . S
Mn2248 O2247 2.163 . S
Mn2248 O2251 2.160 . S
Mn2248 O2252 2.221 . S
Mn2248 O2254 2.163 . S
Mn2248 O2256 2.160 . S
Mn2248 O2266 2.221 . S
O2249 Mn2250 2.087 . S
O2249 C2261 1.256 . S
Mn2250 O2249 2.087 . S
Mn2250 O2257 2.089 . S
Mn2250 O2266 2.290 . S
Mn2250 O2267 2.251 . S
O2251 Mn2248 2.160 . S
O2251 C2262 1.239 . S
O2252 Mn2248 2.221 . S
O2252 Mn2253 2.290 . S
O2252 C2263 1.278 . S
Mn2253 O2252 2.290 . S
Mn2253 O2255 2.089 . S
Mn2253 O2258 2.251 . S
Mn2253 O2259 2.087 . S
O2254 Mn2248 2.163 . S
O2254 C2264 1.244 . S
O2255 Mn2253 2.089 . S
O2255 C2262 1.256 . S
O2256 Mn2248 2.160 . S
O2256 C2265 1.239 . S
O2257 Mn2250 2.089 . S
O2257 C2265 1.256 . S
O2258 Mn2253 2.251 . S
O2258 C2263 1.241 . S
O2259 Mn2253 2.087 . S
O2259 C2264 1.256 . S
C2260 O2266 1.278 . S
C2260 O2267 1.241 . S
C2261 O2247 1.244 . S
C2261 O2249 1.256 . S
C2262 O2251 1.239 . S
C2262 O2255 1.256 . S
C2263 O2252 1.278 . S
C2263 O2258 1.241 . S
C2264 O2254 1.244 . S
C2264 O2259 1.256 . S
C2265 O2256 1.239 . S
C2265 O2257 1.256 . S
O2266 Mn2248 2.221 . S
O2266 Mn2250 2.290 . S
O2266 C2260 1.278 . S
O2267 Mn2250 2.251 . S
O2267 C2260 1.241 . S
O2268 Mn2269 2.163 . S
O2268 C2282 1.244 . S
Mn2269 O2268 2.163 . S
Mn2269 O2272 2.160 . S
Mn2269 O2273 2.221 . S
Mn2269 O2275 2.163 . S
Mn2269 O2277 2.160 . S
Mn2269 O2287 2.221 . S
O2270 Mn2271 2.087 . S
O2270 C2282 1.256 . S
Mn2271 O2270 2.087 . S
Mn2271 O2278 2.089 . S
Mn2271 O2287 2.290 . S
Mn2271 O2288 2.251 . S
O2272 Mn2269 2.160 . S
O2272 C2283 1.239 . S
O2273 Mn2269 2.221 . S
O2273 Mn2274 2.290 . S
O2273 C2284 1.278 . S
Mn2274 O2273 2.290 . S
Mn2274 O2276 2.089 . S
Mn2274 O2279 2.251 . S
Mn2274 O2280 2.087 . S
O2275 Mn2269 2.163 . S
O2275 C2285 1.244 . S
O2276 Mn2274 2.089 . S
O2276 C2283 1.256 . S
O2277 Mn2269 2.160 . S
O2277 C2286 1.239 . S
O2278 Mn2271 2.089 . S
O2278 C2286 1.256 . S
O2279 Mn2274 2.251 . S
O2279 C2284 1.241 . S
O2280 Mn2274 2.087 . S
O2280 C2285 1.256 . S
C2281 O2287 1.278 . S
C2281 O2288 1.241 . S
C2282 O2268 1.244 . S
C2282 O2270 1.256 . S
C2283 O2272 1.239 . S
C2283 O2276 1.256 . S
C2284 O2273 1.278 . S
C2284 O2279 1.241 . S
C2285 O2275 1.244 . S
C2285 O2280 1.256 . S
C2286 O2277 1.239 . S
C2286 O2278 1.256 . S
O2287 Mn2269 2.221 . S
O2287 Mn2271 2.290 . S
O2287 C2281 1.278 . S
O2288 Mn2271 2.251 . S
O2288 C2281 1.241 . S
O2289 Mn2290 2.163 . S
O2289 C2303 1.244 . S
Mn2290 O2289 2.163 . S
Mn2290 O2293 2.160 . S
Mn2290 O2294 2.221 . S
Mn2290 O2296 2.163 . S
Mn2290 O2298 2.160 . S
Mn2290 O2308 2.221 . S
O2291 Mn2292 2.087 . S
O2291 C2303 1.256 . S
Mn2292 O2291 2.087 . S
Mn2292 O2299 2.089 . S
Mn2292 O2308 2.290 . S
Mn2292 O2309 2.251 . S
O2293 Mn2290 2.160 . S
O2293 C2304 1.239 . S
O2294 Mn2290 2.221 . S
O2294 Mn2295 2.290 . S
O2294 C2305 1.278 . S
Mn2295 O2294 2.290 . S
Mn2295 O2297 2.089 . S
Mn2295 O2300 2.251 . S
Mn2295 O2301 2.087 . S
O2296 Mn2290 2.163 . S
O2296 C2306 1.244 . S
O2297 Mn2295 2.089 . S
O2297 C2304 1.256 . S
O2298 Mn2290 2.160 . S
O2298 C2307 1.239 . S
O2299 Mn2292 2.089 . S
O2299 C2307 1.256 . S
O2300 Mn2295 2.251 . S
O2300 C2305 1.241 . S
O2301 Mn2295 2.087 . S
O2301 C2306 1.256 . S
C2302 O2308 1.278 . S
C2302 O2309 1.241 . S
C2303 O2289 1.244 . S
C2303 O2291 1.256 . S
C2304 O2293 1.239 . S
C2304 O2297 1.256 . S
C2305 O2294 1.278 . S
C2305 O2300 1.241 . S
C2306 O2296 1.244 . S
C2306 O2301 1.256 . S
C2307 O2298 1.239 . S
C2307 O2299 1.256 . S
O2308 Mn2290 2.221 . S
O2308 Mn2292 2.290 . S
O2308 C2302 1.278 . S
O2309 Mn2292 2.251 . S
O2309 C2302 1.241 . S
O2310 Mn2311 2.163 1_554 S
O2310 C2324 1.244 . S
Mn2311 O2310 2.163 1_556 S
Mn2311 O2314 2.160 . S
Mn2311 O2315 2.221 1_556 S
Mn2311 O2317 2.163 . S
Mn2311 O2319 2.160 . S
Mn2311 O2329 2.221 . S
O2312 Mn2313 2.087 . S
O2312 C2324 1.256 1_556 S
Mn2313 O2312 2.087 . S
Mn2313 O2320 2.089 . S
Mn2313 O2329 2.290 . S
Mn2313 O2330 2.251 . S
O2314 Mn2311 2.160 . S
O2314 C2325 1.239 . S
O2315 Mn2311 2.221 1_554 S
O2315 Mn2316 2.290 . S
O2315 C2326 1.278 . S
Mn2316 O2315 2.290 . S
Mn2316 O2318 2.089 1_554 S
Mn2316 O2321 2.251 . S
Mn2316 O2322 2.087 1_554 S
O2317 Mn2311 2.163 . S
O2317 C2327 1.244 . S
O2318 Mn2316 2.089 1_556 S
O2318 C2325 1.256 . S
O2319 Mn2311 2.160 . S
O2319 C2328 1.239 . S
O2320 Mn2313 2.089 . S
O2320 C2328 1.256 . S
O2321 Mn2316 2.251 . S
O2321 C2326 1.241 . S
O2322 Mn2316 2.087 1_556 S
O2322 C2327 1.256 . S
C2323 O2329 1.278 . S
C2323 O2330 1.241 . S
C2324 O2310 1.244 . S
C2324 O2312 1.256 1_554 S
C2325 O2314 1.239 . S
C2325 O2318 1.256 . S
C2326 O2315 1.278 . S
C2326 O2321 1.241 . S
C2327 O2317 1.244 . S
C2327 O2322 1.256 . S
C2328 O2319 1.239 . S
C2328 O2320 1.256 . S
O2329 Mn2311 2.221 . S
O2329 Mn2313 2.290 . S
O2329 C2323 1.278 . S
O2330 Mn2313 2.251 . S
O2330 C2323 1.241 . S
O2331 Mn2332 2.163 . S
O2331 C2345 1.244 . S
Mn2332 O2331 2.163 . S
Mn2332 O2335 2.160 . S
Mn2332 O2336 2.221 . S
Mn2332 O2338 2.163 . S
Mn2332 O2340 2.160 . S
Mn2332 O2350 2.221 . S
O2333 Mn2334 2.087 . S
O2333 C2345 1.256 . S
Mn2334 O2333 2.087 . S
Mn2334 O2341 2.089 . S
Mn2334 O2350 2.290 . S
Mn2334 O2351 2.251 . S
O2335 Mn2332 2.160 . S
O2335 C2346 1.239 . S
O2336 Mn2332 2.221 . S
O2336 Mn2337 2.290 . S
O2336 C2347 1.278 . S
Mn2337 O2336 2.290 . S
Mn2337 O2339 2.089 . S
Mn2337 O2342 2.251 . S
Mn2337 O2343 2.087 . S
O2338 Mn2332 2.163 . S
O2338 C2348 1.244 . S
O2339 Mn2337 2.089 . S
O2339 C2346 1.256 . S
O2340 Mn2332 2.160 . S
O2340 C2349 1.239 . S
O2341 Mn2334 2.089 . S
O2341 C2349 1.256 . S
O2342 Mn2337 2.251 . S
O2342 C2347 1.241 . S
O2343 Mn2337 2.087 . S
O2343 C2348 1.256 . S
C2344 O2350 1.278 . S
C2344 O2351 1.241 . S
C2345 O2331 1.244 . S
C2345 O2333 1.256 . S
C2346 O2335 1.239 . S
C2346 O2339 1.256 . S
C2347 O2336 1.278 . S
C2347 O2342 1.241 . S
C2348 O2338 1.244 . S
C2348 O2343 1.256 . S
C2349 O2340 1.239 . S
C2349 O2341 1.256 . S
O2350 Mn2332 2.221 . S
O2350 Mn2334 2.290 . S
O2350 C2344 1.278 . S
O2351 Mn2334 2.251 . S
O2351 C2344 1.241 . S
O2352 Mn2353 2.163 . S
O2352 C2366 1.244 . S
Mn2353 O2352 2.163 . S
Mn2353 O2356 2.160 . S
Mn2353 O2357 2.221 . S
Mn2353 O2359 2.163 . S
Mn2353 O2361 2.160 . S
Mn2353 O2371 2.221 . S
O2354 Mn2355 2.087 . S
O2354 C2366 1.256 . S
Mn2355 O2354 2.087 . S
Mn2355 O2362 2.089 . S
Mn2355 O2371 2.290 . S
Mn2355 O2372 2.251 . S
O2356 Mn2353 2.160 . S
O2356 C2367 1.239 . S
O2357 Mn2353 2.221 . S
O2357 Mn2358 2.290 . S
O2357 C2368 1.278 . S
Mn2358 O2357 2.290 . S
Mn2358 O2360 2.089 . S
Mn2358 O2363 2.251 . S
Mn2358 O2364 2.087 . S
O2359 Mn2353 2.163 . S
O2359 C2369 1.244 . S
O2360 Mn2358 2.089 . S
O2360 C2367 1.256 . S
O2361 Mn2353 2.160 . S
O2361 C2370 1.239 . S
O2362 Mn2355 2.089 . S
O2362 C2370 1.256 . S
O2363 Mn2358 2.251 . S
O2363 C2368 1.241 . S
O2364 Mn2358 2.087 . S
O2364 C2369 1.256 . S
C2365 O2371 1.278 . S
C2365 O2372 1.241 . S
C2366 O2352 1.244 . S
C2366 O2354 1.256 . S
C2367 O2356 1.239 . S
C2367 O2360 1.256 . S
C2368 O2357 1.278 . S
C2368 O2363 1.241 . S
C2369 O2359 1.244 . S
C2369 O2364 1.256 . S
C2370 O2361 1.239 . S
C2370 O2362 1.256 . S
O2371 Mn2353 2.221 . S
O2371 Mn2355 2.290 . S
O2371 C2365 1.278 . S
O2372 Mn2355 2.251 . S
O2372 C2365 1.241 . S
O2373 Mn2374 2.163 . S
O2373 C2387 1.244 . S
Mn2374 O2373 2.163 . S
Mn2374 O2377 2.160 . S
Mn2374 O2378 2.221 . S
Mn2374 O2380 2.163 . S
Mn2374 O2382 2.160 . S
Mn2374 O2392 2.221 . S
O2375 Mn2376 2.087 . S
O2375 C2387 1.256 . S
Mn2376 O2375 2.087 . S
Mn2376 O2383 2.089 . S
Mn2376 O2392 2.290 . S
Mn2376 O2393 2.251 . S
O2377 Mn2374 2.160 . S
O2377 C2388 1.239 . S
O2378 Mn2374 2.221 . S
O2378 Mn2379 2.290 . S
O2378 C2389 1.278 . S
Mn2379 O2378 2.290 . S
Mn2379 O2381 2.089 . S
Mn2379 O2384 2.251 . S
Mn2379 O2385 2.087 . S
O2380 Mn2374 2.163 . S
O2380 C2390 1.244 . S
O2381 Mn2379 2.089 . S
O2381 C2388 1.256 . S
O2382 Mn2374 2.160 . S
O2382 C2391 1.239 . S
O2383 Mn2376 2.089 . S
O2383 C2391 1.256 . S
O2384 Mn2379 2.251 . S
O2384 C2389 1.241 . S
O2385 Mn2379 2.087 . S
O2385 C2390 1.256 . S
C2386 O2392 1.278 . S
C2386 O2393 1.241 . S
C2387 O2373 1.244 . S
C2387 O2375 1.256 . S
C2388 O2377 1.239 . S
C2388 O2381 1.256 . S
C2389 O2378 1.278 . S
C2389 O2384 1.241 . S
C2390 O2380 1.244 . S
C2390 O2385 1.256 . S
C2391 O2382 1.239 . S
C2391 O2383 1.256 . S
O2392 Mn2374 2.221 . S
O2392 Mn2376 2.290 . S
O2392 C2386 1.278 . S
O2393 Mn2376 2.251 . S
O2393 C2386 1.241 . S
O2394 Mn2395 2.163 . S
O2394 C2408 1.244 . S
Mn2395 O2394 2.163 . S
Mn2395 O2398 2.160 . S
Mn2395 O2399 2.221 . S
Mn2395 O2401 2.163 1_545 S
Mn2395 O2403 2.160 . S
Mn2395 O2413 2.221 1_545 S
O2396 Mn2397 2.087 1_545 S
O2396 C2408 1.256 . S
Mn2397 O2396 2.087 1_565 S
Mn2397 O2404 2.089 1_565 S
Mn2397 O2413 2.290 . S
Mn2397 O2414 2.251 . S
O2398 Mn2395 2.160 . S
O2398 C2409 1.239 . S
O2399 Mn2395 2.221 . S
O2399 Mn2400 2.290 . S
O2399 C2410 1.278 . S
Mn2400 O2399 2.290 . S
Mn2400 O2402 2.089 . S
Mn2400 O2405 2.251 . S
Mn2400 O2406 2.087 . S
O2401 Mn2395 2.163 1_565 S
O2401 C2411 1.244 . S
O2402 Mn2400 2.089 . S
O2402 C2409 1.256 . S
O2403 Mn2395 2.160 . S
O2403 C2412 1.239 . S
O2404 Mn2397 2.089 1_545 S
O2404 C2412 1.256 . S
O2405 Mn2400 2.251 . S
O2405 C2410 1.241 . S
O2406 Mn2400 2.087 . S
O2406 C2411 1.256 1_545 S
C2407 O2413 1.278 . S
C2407 O2414 1.241 . S
C2408 O2394 1.244 . S
C2408 O2396 1.256 . S
C2409 O2398 1.239 . S
C2409 O2402 1.256 . S
C2410 O2399 1.278 . S
C2410 O2405 1.241 . S
C2411 O2401 1.244 . S
C2411 O2406 1.256 1_565 S
C2412 O2403 1.239 . S
C2412 O2404 1.256 . S
O2413 Mn2395 2.221 1_565 S
O2413 Mn2397 2.290 . S
O2413 C2407 1.278 . S
O2414 Mn2397 2.251 . S
O2414 C2407 1.241 . S
O2415 Mn2416 2.163 . S
O2415 C2429 1.244 . S
Mn2416 O2415 2.163 . S
Mn2416 O2419 2.160 . S
Mn2416 O2420 2.221 . S
Mn2416 O2422 2.163 1_655 S
Mn2416 O2424 2.160 . S
Mn2416 O2434 2.221 1_655 S
O2417 Mn2418 2.087 1_655 S
O2417 C2429 1.256 . S
Mn2418 O2417 2.087 1_455 S
Mn2418 O2425 2.089 1_455 S
Mn2418 O2434 2.290 . S
Mn2418 O2435 2.251 . S
O2419 Mn2416 2.160 . S
O2419 C2430 1.239 . S
O2420 Mn2416 2.221 . S
O2420 Mn2421 2.290 . S
O2420 C2431 1.278 . S
Mn2421 O2420 2.290 . S
Mn2421 O2423 2.089 . S
Mn2421 O2426 2.251 . S
Mn2421 O2427 2.087 . S
O2422 Mn2416 2.163 1_455 S
O2422 C2432 1.244 . S
O2423 Mn2421 2.089 . S
O2423 C2430 1.256 . S
O2424 Mn2416 2.160 . S
O2424 C2433 1.239 . S
O2425 Mn2418 2.089 1_655 S
O2425 C2433 1.256 . S
O2426 Mn2421 2.251 . S
O2426 C2431 1.241 . S
O2427 Mn2421 2.087 . S
O2427 C2432 1.256 1_655 S
C2428 O2434 1.278 . S
C2428 O2435 1.241 . S
C2429 O2415 1.244 . S
C2429 O2417 1.256 . S
C2430 O2419 1.239 . S
C2430 O2423 1.256 . S
C2431 O2420 1.278 . S
C2431 O2426 1.241 . S
C2432 O2422 1.244 . S
C2432 O2427 1.256 1_455 S
C2433 O2424 1.239 . S
C2433 O2425 1.256 . S
O2434 Mn2416 2.221 1_455 S
O2434 Mn2418 2.290 . S
O2434 C2428 1.278 . S
O2435 Mn2418 2.251 . S
O2435 C2428 1.241 . S
O2436 Mn2437 2.163 . S
O2436 C2450 1.244 . S
Mn2437 O2436 2.163 . S
Mn2437 O2440 2.160 . S
Mn2437 O2441 2.221 . S
Mn2437 O2443 2.163 1_556 S
Mn2437 O2445 2.160 . S
Mn2437 O2455 2.221 . S
O2438 Mn2439 2.087 . S
O2438 C2450 1.256 . S
Mn2439 O2438 2.087 . S
Mn2439 O2446 2.089 . S
Mn2439 O2455 2.290 . S
Mn2439 O2456 2.251 . S
O2440 Mn2437 2.160 . S
O2440 C2451 1.239 1_556 S
O2441 Mn2437 2.221 . S
O2441 Mn2442 2.290 1_556 S
O2441 C2452 1.278 . S
Mn2442 O2441 2.290 1_554 S
Mn2442 O2444 2.089 . S
Mn2442 O2447 2.251 . S
Mn2442 O2448 2.087 . S
O2443 Mn2437 2.163 1_554 S
O2443 C2453 1.244 . S
O2444 Mn2442 2.089 . S
O2444 C2451 1.256 . S
O2445 Mn2437 2.160 . S
O2445 C2454 1.239 . S
O2446 Mn2439 2.089 . S
O2446 C2454 1.256 . S
O2447 Mn2442 2.251 . S
O2447 C2452 1.241 1_554 S
O2448 Mn2442 2.087 . S
O2448 C2453 1.256 . S
C2449 O2455 1.278 . S
C2449 O2456 1.241 . S
C2450 O2436 1.244 . S
C2450 O2438 1.256 . S
C2451 O2440 1.239 1_554 S
C2451 O2444 1.256 . S
C2452 O2441 1.278 . S
C2452 O2447 1.241 1_556 S
C2453 O2443 1.244 . S
C2453 O2448 1.256 . S
C2454 O2445 1.239 . S
C2454 O2446 1.256 . S
O2455 Mn2437 2.221 . S
O2455 Mn2439 2.290 . S
O2455 C2449 1.278 . S
O2456 Mn2439 2.251 . S
O2456 C2449 1.241 . S
O2457 Mn2458 2.163 . S
O2457 C2471 1.244 . S
Mn2458 O2457 2.163 . S
Mn2458 O2461 2.160 . S
Mn2458 O2462 2.221 . S
Mn2458 O2464 2.163 . S
Mn2458 O2466 2.160 . S
Mn2458 O2476 2.221 . S
O2459 Mn2460 2.087 . S
O2459 C2471 1.256 . S
Mn2460 O2459 2.087 . S
Mn2460 O2467 2.089 . S
Mn2460 O2476 2.290 . S
Mn2460 O2477 2.251 . S
O2461 Mn2458 2.160 . S
O2461 C2472 1.239 . S
O2462 Mn2458 2.221 . S
O2462 Mn2463 2.290 . S
O2462 C2473 1.278 . S
Mn2463 O2462 2.290 . S
Mn2463 O2465 2.089 . S
Mn2463 O2468 2.251 . S
Mn2463 O2469 2.087 . S
O2464 Mn2458 2.163 . S
O2464 C2474 1.244 . S
O2465 Mn2463 2.089 . S
O2465 C2472 1.256 . S
O2466 Mn2458 2.160 . S
O2466 C2475 1.239 . S
O2467 Mn2460 2.089 . S
O2467 C2475 1.256 . S
O2468 Mn2463 2.251 . S
O2468 C2473 1.241 . S
O2469 Mn2463 2.087 . S
O2469 C2474 1.256 . S
C2470 O2476 1.278 . S
C2470 O2477 1.241 . S
C2471 O2457 1.244 . S
C2471 O2459 1.256 . S
C2472 O2461 1.239 . S
C2472 O2465 1.256 . S
C2473 O2462 1.278 . S
C2473 O2468 1.241 . S
C2474 O2464 1.244 . S
C2474 O2469 1.256 . S
C2475 O2466 1.239 . S
C2475 O2467 1.256 . S
O2476 Mn2458 2.221 . S
O2476 Mn2460 2.290 . S
O2476 C2470 1.278 . S
O2477 Mn2460 2.251 . S
O2477 C2470 1.241 . S
O2478 Mn2479 2.163 . S
O2478 C2492 1.244 . S
Mn2479 O2478 2.163 . S
Mn2479 O2482 2.160 . S
Mn2479 O2483 2.221 . S
Mn2479 O2485 2.163 . S
Mn2479 O2487 2.160 . S
Mn2479 O2497 2.221 . S
O2480 Mn2481 2.087 . S
O2480 C2492 1.256 . S
Mn2481 O2480 2.087 . S
Mn2481 O2488 2.089 . S
Mn2481 O2497 2.290 . S
Mn2481 O2498 2.251 . S
O2482 Mn2479 2.160 . S
O2482 C2493 1.239 . S
O2483 Mn2479 2.221 . S
O2483 Mn2484 2.290 . S
O2483 C2494 1.278 . S
Mn2484 O2483 2.290 . S
Mn2484 O2486 2.089 . S
Mn2484 O2489 2.251 . S
Mn2484 O2490 2.087 . S
O2485 Mn2479 2.163 . S
O2485 C2495 1.244 . S
O2486 Mn2484 2.089 . S
O2486 C2493 1.256 . S
O2487 Mn2479 2.160 . S
O2487 C2496 1.239 . S
O2488 Mn2481 2.089 . S
O2488 C2496 1.256 . S
O2489 Mn2484 2.251 . S
O2489 C2494 1.241 . S
O2490 Mn2484 2.087 . S
O2490 C2495 1.256 . S
C2491 O2497 1.278 . S
C2491 O2498 1.241 . S
C2492 O2478 1.244 . S
C2492 O2480 1.256 . S
C2493 O2482 1.239 . S
C2493 O2486 1.256 . S
C2494 O2483 1.278 . S
C2494 O2489 1.241 . S
C2495 O2485 1.244 . S
C2495 O2490 1.256 . S
C2496 O2487 1.239 . S
C2496 O2488 1.256 . S
O2497 Mn2479 2.221 . S
O2497 Mn2481 2.290 . S
O2497 C2491 1.278 . S
O2498 Mn2481 2.251 . S
O2498 C2491 1.241 . S
O2499 Mn2500 2.163 1_565 S
O2499 C2513 1.244 . S
Mn2500 O2499 2.163 1_545 S
Mn2500 O2503 2.160 . S
Mn2500 O2504 2.221 1_545 S
Mn2500 O2506 2.163 . S
Mn2500 O2508 2.160 . S
Mn2500 O2518 2.221 . S
O2501 Mn2502 2.087 . S
O2501 C2513 1.256 1_545 S
Mn2502 O2501 2.087 . S
Mn2502 O2509 2.089 . S
Mn2502 O2518 2.290 . S
Mn2502 O2519 2.251 . S
O2503 Mn2500 2.160 . S
O2503 C2514 1.239 . S
O2504 Mn2500 2.221 1_565 S
O2504 Mn2505 2.290 . S
O2504 C2515 1.278 . S
Mn2505 O2504 2.290 . S
Mn2505 O2507 2.089 1_565 S
Mn2505 O2510 2.251 . S
Mn2505 O2511 2.087 1_565 S
O2506 Mn2500 2.163 . S
O2506 C2516 1.244 . S
O2507 Mn2505 2.089 1_545 S
O2507 C2514 1.256 . S
O2508 Mn2500 2.160 . S
O2508 C2517 1.239 . S
O2509 Mn2502 2.089 . S
O2509 C2517 1.256 . S
O2510 Mn2505 2.251 . S
O2510 C2515 1.241 . S
O2511 Mn2505 2.087 1_545 S
O2511 C2516 1.256 . S
C2512 O2518 1.278 . S
C2512 O2519 1.241 . S
C2513 O2499 1.244 . S
C2513 O2501 1.256 1_565 S
C2514 O2503 1.239 . S
C2514 O2507 1.256 . S
C2515 O2504 1.278 . S
C2515 O2510 1.241 . S
C2516 O2506 1.244 . S
C2516 O2511 1.256 . S
C2517 O2508 1.239 . S
C2517 O2509 1.256 . S
O2518 Mn2500 2.221 . S
O2518 Mn2502 2.290 . S
O2518 C2512 1.278 . S
O2519 Mn2502 2.251 . S
O2519 C2512 1.241 . S
O2520 Mn2521 2.163 . S
O2520 C2534 1.244 . S
Mn2521 O2520 2.163 . S
Mn2521 O2524 2.160 . S
Mn2521 O2525 2.221 . S
Mn2521 O2527 2.163 . S
Mn2521 O2529 2.160 . S
Mn2521 O2539 2.221 . S
O2522 Mn2523 2.087 . S
O2522 C2534 1.256 . S
Mn2523 O2522 2.087 . S
Mn2523 O2530 2.089 . S
Mn2523 O2539 2.290 . S
Mn2523 O2540 2.251 . S
O2524 Mn2521 2.160 . S
O2524 C2535 1.239 . S
O2525 Mn2521 2.221 . S
O2525 Mn2526 2.290 . S
O2525 C2536 1.278 . S
Mn2526 O2525 2.290 . S
Mn2526 O2528 2.089 . S
Mn2526 O2531 2.251 . S
Mn2526 O2532 2.087 . S
O2527 Mn2521 2.163 . S
O2527 C2537 1.244 . S
O2528 Mn2526 2.089 . S
O2528 C2535 1.256 . S
O2529 Mn2521 2.160 . S
O2529 C2538 1.239 . S
O2530 Mn2523 2.089 . S
O2530 C2538 1.256 . S
O2531 Mn2526 2.251 . S
O2531 C2536 1.241 . S
O2532 Mn2526 2.087 . S
O2532 C2537 1.256 . S
C2533 O2539 1.278 . S
C2533 O2540 1.241 . S
C2534 O2520 1.244 . S
C2534 O2522 1.256 . S
C2535 O2524 1.239 . S
C2535 O2528 1.256 . S
C2536 O2525 1.278 . S
C2536 O2531 1.241 . S
C2537 O2527 1.244 . S
C2537 O2532 1.256 . S
C2538 O2529 1.239 . S
C2538 O2530 1.256 . S
O2539 Mn2521 2.221 . S
O2539 Mn2523 2.290 . S
O2539 C2533 1.278 . S
O2540 Mn2523 2.251 . S
O2540 C2533 1.241 . S
O2541 Mn2542 2.163 . S
O2541 C2555 1.244 . S
Mn2542 O2541 2.163 . S
Mn2542 O2545 2.160 . S
Mn2542 O2546 2.221 . S
Mn2542 O2548 2.163 . S
Mn2542 O2550 2.160 . S
Mn2542 O2560 2.221 . S
O2543 Mn2544 2.087 . S
O2543 C2555 1.256 . S
Mn2544 O2543 2.087 . S
Mn2544 O2551 2.089 . S
Mn2544 O2560 2.290 . S
Mn2544 O2561 2.251 . S
O2545 Mn2542 2.160 . S
O2545 C2556 1.239 . S
O2546 Mn2542 2.221 . S
O2546 Mn2547 2.290 . S
O2546 C2557 1.278 . S
Mn2547 O2546 2.290 . S
Mn2547 O2549 2.089 . S
Mn2547 O2552 2.251 . S
Mn2547 O2553 2.087 . S
O2548 Mn2542 2.163 . S
O2548 C2558 1.244 . S
O2549 Mn2547 2.089 . S
O2549 C2556 1.256 . S
O2550 Mn2542 2.160 . S
O2550 C2559 1.239 . S
O2551 Mn2544 2.089 . S
O2551 C2559 1.256 . S
O2552 Mn2547 2.251 . S
O2552 C2557 1.241 . S
O2553 Mn2547 2.087 . S
O2553 C2558 1.256 . S
C2554 O2560 1.278 . S
C2554 O2561 1.241 . S
C2555 O2541 1.244 . S
C2555 O2543 1.256 . S
C2556 O2545 1.239 . S
C2556 O2549 1.256 . S
C2557 O2546 1.278 . S
C2557 O2552 1.241 . S
C2558 O2548 1.244 . S
C2558 O2553 1.256 . S
C2559 O2550 1.239 . S
C2559 O2551 1.256 . S
O2560 Mn2542 2.221 . S
O2560 Mn2544 2.290 . S
O2560 C2554 1.278 . S
O2561 Mn2544 2.251 . S
O2561 C2554 1.241 . S
O2562 Mn2563 2.163 . S
O2562 C2576 1.244 . S
Mn2563 O2562 2.163 . S
Mn2563 O2566 2.160 . S
Mn2563 O2567 2.221 . S
Mn2563 O2569 2.163 . S
Mn2563 O2571 2.160 . S
Mn2563 O2581 2.221 . S
O2564 Mn2565 2.087 . S
O2564 C2576 1.256 . S
Mn2565 O2564 2.087 . S
Mn2565 O2572 2.089 . S
Mn2565 O2581 2.290 . S
Mn2565 O2582 2.251 . S
O2566 Mn2563 2.160 . S
O2566 C2577 1.239 . S
O2567 Mn2563 2.221 . S
O2567 Mn2568 2.290 . S
O2567 C2578 1.278 . S
Mn2568 O2567 2.290 . S
Mn2568 O2570 2.089 . S
Mn2568 O2573 2.251 . S
Mn2568 O2574 2.087 . S
O2569 Mn2563 2.163 . S
O2569 C2579 1.244 . S
O2570 Mn2568 2.089 . S
O2570 C2577 1.256 . S
O2571 Mn2563 2.160 . S
O2571 C2580 1.239 . S
O2572 Mn2565 2.089 . S
O2572 C2580 1.256 . S
O2573 Mn2568 2.251 . S
O2573 C2578 1.241 . S
O2574 Mn2568 2.087 . S
O2574 C2579 1.256 . S
C2575 O2581 1.278 . S
C2575 O2582 1.241 . S
C2576 O2562 1.244 . S
C2576 O2564 1.256 . S
C2577 O2566 1.239 . S
C2577 O2570 1.256 . S
C2578 O2567 1.278 . S
C2578 O2573 1.241 . S
C2579 O2569 1.244 . S
C2579 O2574 1.256 . S
C2580 O2571 1.239 . S
C2580 O2572 1.256 . S
O2581 Mn2563 2.221 . S
O2581 Mn2565 2.290 . S
O2581 C2575 1.278 . S
O2582 Mn2565 2.251 . S
O2582 C2575 1.241 . S
O2583 Mn2584 2.163 . S
O2583 C2597 1.244 . S
Mn2584 O2583 2.163 . S
Mn2584 O2587 2.160 . S
Mn2584 O2588 2.221 . S
Mn2584 O2590 2.163 . S
Mn2584 O2592 2.160 . S
Mn2584 O2602 2.221 . S
O2585 Mn2586 2.087 . S
O2585 C2597 1.256 . S
Mn2586 O2585 2.087 . S
Mn2586 O2593 2.089 . S
Mn2586 O2602 2.290 . S
Mn2586 O2603 2.251 . S
O2587 Mn2584 2.160 . S
O2587 C2598 1.239 . S
O2588 Mn2584 2.221 . S
O2588 Mn2589 2.290 . S
O2588 C2599 1.278 . S
Mn2589 O2588 2.290 . S
Mn2589 O2591 2.089 . S
Mn2589 O2594 2.251 . S
Mn2589 O2595 2.087 . S
O2590 Mn2584 2.163 . S
O2590 C2600 1.244 . S
O2591 Mn2589 2.089 . S
O2591 C2598 1.256 . S
O2592 Mn2584 2.160 . S
O2592 C2601 1.239 . S
O2593 Mn2586 2.089 . S
O2593 C2601 1.256 . S
O2594 Mn2589 2.251 . S
O2594 C2599 1.241 . S
O2595 Mn2589 2.087 . S
O2595 C2600 1.256 . S
C2596 O2602 1.278 . S
C2596 O2603 1.241 . S
C2597 O2583 1.244 . S
C2597 O2585 1.256 . S
C2598 O2587 1.239 . S
C2598 O2591 1.256 . S
C2599 O2588 1.278 . S
C2599 O2594 1.241 . S
C2600 O2590 1.244 . S
C2600 O2595 1.256 . S
C2601 O2592 1.239 . S
C2601 O2593 1.256 . S
O2602 Mn2584 2.221 . S
O2602 Mn2586 2.290 . S
O2602 C2596 1.278 . S
O2603 Mn2586 2.251 . S
O2603 C2596 1.241 . S
O2604 Mn2605 2.163 . S
O2604 C2618 1.244 . S
Mn2605 O2604 2.163 . S
Mn2605 O2608 2.160 . S
Mn2605 O2609 2.221 . S
Mn2605 O2611 2.163 1_545 S
Mn2605 O2613 2.160 . S
Mn2605 O2623 2.221 1_545 S
O2606 Mn2607 2.087 1_545 S
O2606 C2618 1.256 . S
Mn2607 O2606 2.087 1_565 S
Mn2607 O2614 2.089 1_565 S
Mn2607 O2623 2.290 . S
Mn2607 O2624 2.251 . S
O2608 Mn2605 2.160 . S
O2608 C2619 1.239 . S
O2609 Mn2605 2.221 . S
O2609 Mn2610 2.290 . S
O2609 C2620 1.278 . S
Mn2610 O2609 2.290 . S
Mn2610 O2612 2.089 . S
Mn2610 O2615 2.251 . S
Mn2610 O2616 2.087 . S
O2611 Mn2605 2.163 1_565 S
O2611 C2621 1.244 . S
O2612 Mn2610 2.089 . S
O2612 C2619 1.256 . S
O2613 Mn2605 2.160 . S
O2613 C2622 1.239 . S
O2614 Mn2607 2.089 1_545 S
O2614 C2622 1.256 . S
O2615 Mn2610 2.251 . S
O2615 C2620 1.241 . S
O2616 Mn2610 2.087 . S
O2616 C2621 1.256 1_545 S
C2617 O2623 1.278 . S
C2617 O2624 1.241 . S
C2618 O2604 1.244 . S
C2618 O2606 1.256 . S
C2619 O2608 1.239 . S
C2619 O2612 1.256 . S
C2620 O2609 1.278 . S
C2620 O2615 1.241 . S
C2621 O2611 1.244 . S
C2621 O2616 1.256 1_565 S
C2622 O2613 1.239 . S
C2622 O2614 1.256 . S
O2623 Mn2605 2.221 1_565 S
O2623 Mn2607 2.290 . S
O2623 C2617 1.278 . S
O2624 Mn2607 2.251 . S
O2624 C2617 1.241 . S
O2625 Mn2626 2.163 . S
O2625 C2639 1.244 . S
Mn2626 O2625 2.163 . S
Mn2626 O2629 2.160 . S
Mn2626 O2630 2.221 . S
Mn2626 O2632 2.163 1_655 S
Mn2626 O2634 2.160 . S
Mn2626 O2644 2.221 1_655 S
O2627 Mn2628 2.087 1_655 S
O2627 C2639 1.256 . S
Mn2628 O2627 2.087 1_455 S
Mn2628 O2635 2.089 1_455 S
Mn2628 O2644 2.290 . S
Mn2628 O2645 2.251 . S
O2629 Mn2626 2.160 . S
O2629 C2640 1.239 . S
O2630 Mn2626 2.221 . S
O2630 Mn2631 2.290 . S
O2630 C2641 1.278 . S
Mn2631 O2630 2.290 . S
Mn2631 O2633 2.089 . S
Mn2631 O2636 2.251 . S
Mn2631 O2637 2.087 . S
O2632 Mn2626 2.163 1_455 S
O2632 C2642 1.244 . S
O2633 Mn2631 2.089 . S
O2633 C2640 1.256 . S
O2634 Mn2626 2.160 . S
O2634 C2643 1.239 . S
O2635 Mn2628 2.089 1_655 S
O2635 C2643 1.256 . S
O2636 Mn2631 2.251 . S
O2636 C2641 1.241 . S
O2637 Mn2631 2.087 . S
O2637 C2642 1.256 1_655 S
C2638 O2644 1.278 . S
C2638 O2645 1.241 . S
C2639 O2625 1.244 . S
C2639 O2627 1.256 . S
C2640 O2629 1.239 . S
C2640 O2633 1.256 . S
C2641 O2630 1.278 . S
C2641 O2636 1.241 . S
C2642 O2632 1.244 . S
C2642 O2637 1.256 1_455 S
C2643 O2634 1.239 . S
C2643 O2635 1.256 . S
O2644 Mn2626 2.221 1_455 S
O2644 Mn2628 2.290 . S
O2644 C2638 1.278 . S
O2645 Mn2628 2.251 . S
O2645 C2638 1.241 . S
O2646 Mn2647 2.163 . S
O2646 C2660 1.244 . S
Mn2647 O2646 2.163 . S
Mn2647 O2650 2.160 . S
Mn2647 O2651 2.221 . S
Mn2647 O2653 2.163 . S
Mn2647 O2655 2.160 . S
Mn2647 O2665 2.221 . S
O2648 Mn2649 2.087 . S
O2648 C2660 1.256 . S
Mn2649 O2648 2.087 . S
Mn2649 O2656 2.089 . S
Mn2649 O2665 2.290 . S
Mn2649 O2666 2.251 . S
O2650 Mn2647 2.160 . S
O2650 C2661 1.239 . S
O2651 Mn2647 2.221 . S
O2651 Mn2652 2.290 . S
O2651 C2662 1.278 . S
Mn2652 O2651 2.290 . S
Mn2652 O2654 2.089 . S
Mn2652 O2657 2.251 . S
Mn2652 O2658 2.087 . S
O2653 Mn2647 2.163 . S
O2653 C2663 1.244 . S
O2654 Mn2652 2.089 . S
O2654 C2661 1.256 . S
O2655 Mn2647 2.160 . S
O2655 C2664 1.239 . S
O2656 Mn2649 2.089 . S
O2656 C2664 1.256 . S
O2657 Mn2652 2.251 . S
O2657 C2662 1.241 . S
O2658 Mn2652 2.087 . S
O2658 C2663 1.256 . S
C2659 O2665 1.278 . S
C2659 O2666 1.241 . S
C2660 O2646 1.244 . S
C2660 O2648 1.256 . S
C2661 O2650 1.239 . S
C2661 O2654 1.256 . S
C2662 O2651 1.278 . S
C2662 O2657 1.241 . S
C2663 O2653 1.244 . S
C2663 O2658 1.256 . S
C2664 O2655 1.239 . S
C2664 O2656 1.256 . S
O2665 Mn2647 2.221 . S
O2665 Mn2649 2.290 . S
O2665 C2659 1.278 . S
O2666 Mn2649 2.251 . S
O2666 C2659 1.241 . S
O2667 Mn2668 2.163 . S
O2667 C2681 1.244 . S
Mn2668 O2667 2.163 . S
Mn2668 O2671 2.160 . S
Mn2668 O2672 2.221 . S
Mn2668 O2674 2.163 . S
Mn2668 O2676 2.160 . S
Mn2668 O2686 2.221 . S
O2669 Mn2670 2.087 . S
O2669 C2681 1.256 . S
Mn2670 O2669 2.087 . S
Mn2670 O2677 2.089 . S
Mn2670 O2686 2.290 . S
Mn2670 O2687 2.251 . S
O2671 Mn2668 2.160 . S
O2671 C2682 1.239 . S
O2672 Mn2668 2.221 . S
O2672 Mn2673 2.290 . S
O2672 C2683 1.278 . S
Mn2673 O2672 2.290 . S
Mn2673 O2675 2.089 . S
Mn2673 O2678 2.251 . S
Mn2673 O2679 2.087 . S
O2674 Mn2668 2.163 . S
O2674 C2684 1.244 . S
O2675 Mn2673 2.089 . S
O2675 C2682 1.256 . S
O2676 Mn2668 2.160 . S
O2676 C2685 1.239 . S
O2677 Mn2670 2.089 . S
O2677 C2685 1.256 . S
O2678 Mn2673 2.251 . S
O2678 C2683 1.241 . S
O2679 Mn2673 2.087 . S
O2679 C2684 1.256 . S
C2680 O2686 1.278 . S
C2680 O2687 1.241 . S
C2681 O2667 1.244 . S
C2681 O2669 1.256 . S
C2682 O2671 1.239 . S
C2682 O2675 1.256 . S
C2683 O2672 1.278 . S
C2683 O2678 1.241 . S
C2684 O2674 1.244 . S
C2684 O2679 1.256 . S
C2685 O2676 1.239 . S
C2685 O2677 1.256 . S
O2686 Mn2668 2.221 . S
O2686 Mn2670 2.290 . S
O2686 C2680 1.278 . S
O2687 Mn2670 2.251 . S
O2687 C2680 1.241 . S
O2688 Mn2689 2.163 1_545 S
O2688 C2702 1.244 . S
Mn2689 O2688 2.163 1_565 S
Mn2689 O2692 2.160 . S
Mn2689 O2693 2.221 . S
Mn2689 O2695 2.163 . S
Mn2689 O2697 2.160 . S
Mn2689 O2707 2.221 . S
O2690 Mn2691 2.087 . S
O2690 C2702 1.256 . S
Mn2691 O2690 2.087 . S
Mn2691 O2698 2.089 . S
Mn2691 O2707 2.290 1_545 S
Mn2691 O2708 2.251 . S
O2692 Mn2689 2.160 . S
O2692 C2703 1.239 . S
O2693 Mn2689 2.221 . S
O2693 Mn2694 2.290 . S
O2693 C2704 1.278 . S
Mn2694 O2693 2.290 . S
Mn2694 O2696 2.089 . S
Mn2694 O2699 2.251 . S
Mn2694 O2700 2.087 . S
O2695 Mn2689 2.163 . S
O2695 C2705 1.244 . S
O2696 Mn2694 2.089 . S
O2696 C2703 1.256 . S
O2697 Mn2689 2.160 . S
O2697 C2706 1.239 1_565 S
O2698 Mn2691 2.089 . S
O2698 C2706 1.256 . S
O2699 Mn2694 2.251 . S
O2699 C2704 1.241 . S
O2700 Mn2694 2.087 . S
O2700 C2705 1.256 . S
C2701 O2707 1.278 . S
C2701 O2708 1.241 1_565 S
C2702 O2688 1.244 . S
C2702 O2690 1.256 . S
C2703 O2692 1.239 . S
C2703 O2696 1.256 . S
C2704 O2693 1.278 . S
C2704 O2699 1.241 . S
C2705 O2695 1.244 . S
C2705 O2700 1.256 . S
C2706 O2697 1.239 1_545 S
C2706 O2698 1.256 . S
O2707 Mn2689 2.221 . S
O2707 Mn2691 2.290 1_565 S
O2707 C2701 1.278 . S
O2708 Mn2691 2.251 . S
O2708 C2701 1.241 1_545 S
O2709 Mn2710 2.163 1_655 S
O2709 C2723 1.244 . S
Mn2710 O2709 2.163 1_455 S
Mn2710 O2713 2.160 . S
Mn2710 O2714 2.221 . S
Mn2710 O2716 2.163 1_556 S
Mn2710 O2718 2.160 . S
Mn2710 O2728 2.221 1_556 S
O2711 Mn2712 2.087 1_556 S
O2711 C2723 1.256 . S
Mn2712 O2711 2.087 1_554 S
Mn2712 O2719 2.089 1_554 S
Mn2712 O2728 2.290 1_655 S
Mn2712 O2729 2.251 . S
O2713 Mn2710 2.160 . S
O2713 C2724 1.239 . S
O2714 Mn2710 2.221 . S
O2714 Mn2715 2.290 . S
O2714 C2725 1.278 . S
Mn2715 O2714 2.290 . S
Mn2715 O2717 2.089 . S
Mn2715 O2720 2.251 . S
Mn2715 O2721 2.087 . S
O2716 Mn2710 2.163 1_554 S
O2716 C2726 1.244 . S
O2717 Mn2715 2.089 . S
O2717 C2724 1.256 . S
O2718 Mn2710 2.160 . S
O2718 C2727 1.239 1_455 S
O2719 Mn2712 2.089 1_556 S
O2719 C2727 1.256 . S
O2720 Mn2715 2.251 . S
O2720 C2725 1.241 . S
O2721 Mn2715 2.087 . S
O2721 C2726 1.256 1_556 S
C2722 O2728 1.278 . S
C2722 O2729 1.241 1_455 S
C2723 O2709 1.244 . S
C2723 O2711 1.256 . S
C2724 O2713 1.239 . S
C2724 O2717 1.256 . S
C2725 O2714 1.278 . S
C2725 O2720 1.241 . S
C2726 O2716 1.244 . S
C2726 O2721 1.256 1_554 S
C2727 O2718 1.239 1_655 S
C2727 O2719 1.256 . S
O2728 Mn2710 2.221 1_554 S
O2728 Mn2712 2.290 1_455 S
O2728 C2722 1.278 . S
O2729 Mn2712 2.251 . S
O2729 C2722 1.241 1_655 S
O2730 Mn2731 2.163 . S
O2730 C2744 1.244 . S
Mn2731 O2730 2.163 . S
Mn2731 O2734 2.160 . S
Mn2731 O2735 2.221 . S
Mn2731 O2737 2.163 . S
Mn2731 O2739 2.160 . S
Mn2731 O2749 2.221 . S
O2732 Mn2733 2.087 . S
O2732 C2744 1.256 . S
Mn2733 O2732 2.087 . S
Mn2733 O2740 2.089 . S
Mn2733 O2749 2.290 . S
Mn2733 O2750 2.251 . S
O2734 Mn2731 2.160 . S
O2734 C2745 1.239 . S
O2735 Mn2731 2.221 . S
O2735 Mn2736 2.290 . S
O2735 C2746 1.278 . S
Mn2736 O2735 2.290 . S
Mn2736 O2738 2.089 . S
Mn2736 O2741 2.251 . S
Mn2736 O2742 2.087 . S
O2737 Mn2731 2.163 . S
O2737 C2747 1.244 . S
O2738 Mn2736 2.089 . S
O2738 C2745 1.256 . S
O2739 Mn2731 2.160 . S
O2739 C2748 1.239 . S
O2740 Mn2733 2.089 . S
O2740 C2748 1.256 . S
O2741 Mn2736 2.251 . S
O2741 C2746 1.241 . S
O2742 Mn2736 2.087 . S
O2742 C2747 1.256 . S
C2743 O2749 1.278 . S
C2743 O2750 1.241 . S
C2744 O2730 1.244 . S
C2744 O2732 1.256 . S
C2745 O2734 1.239 . S
C2745 O2738 1.256 . S
C2746 O2735 1.278 . S
C2746 O2741 1.241 . S
C2747 O2737 1.244 . S
C2747 O2742 1.256 . S
C2748 O2739 1.239 . S
C2748 O2740 1.256 . S
O2749 Mn2731 2.221 . S
O2749 Mn2733 2.290 . S
O2749 C2743 1.278 . S
O2750 Mn2733 2.251 . S
O2750 C2743 1.241 . S
O2751 Mn2752 2.163 . S
O2751 C2765 1.244 . S
Mn2752 O2751 2.163 . S
Mn2752 O2755 2.160 . S
Mn2752 O2756 2.221 . S
Mn2752 O2758 2.163 . S
Mn2752 O2760 2.160 . S
Mn2752 O2770 2.221 . S
O2753 Mn2754 2.087 . S
O2753 C2765 1.256 . S
Mn2754 O2753 2.087 . S
Mn2754 O2761 2.089 . S
Mn2754 O2770 2.290 . S
Mn2754 O2771 2.251 . S
O2755 Mn2752 2.160 . S
O2755 C2766 1.239 . S
O2756 Mn2752 2.221 . S
O2756 Mn2757 2.290 . S
O2756 C2767 1.278 . S
Mn2757 O2756 2.290 . S
Mn2757 O2759 2.089 . S
Mn2757 O2762 2.251 . S
Mn2757 O2763 2.087 . S
O2758 Mn2752 2.163 . S
O2758 C2768 1.244 . S
O2759 Mn2757 2.089 . S
O2759 C2766 1.256 . S
O2760 Mn2752 2.160 . S
O2760 C2769 1.239 . S
O2761 Mn2754 2.089 . S
O2761 C2769 1.256 . S
O2762 Mn2757 2.251 . S
O2762 C2767 1.241 . S
O2763 Mn2757 2.087 . S
O2763 C2768 1.256 . S
C2764 O2770 1.278 . S
C2764 O2771 1.241 . S
C2765 O2751 1.244 . S
C2765 O2753 1.256 . S
C2766 O2755 1.239 . S
C2766 O2759 1.256 . S
C2767 O2756 1.278 . S
C2767 O2762 1.241 . S
C2768 O2758 1.244 . S
C2768 O2763 1.256 . S
C2769 O2760 1.239 . S
C2769 O2761 1.256 . S
O2770 Mn2752 2.221 . S
O2770 Mn2754 2.290 . S
O2770 C2764 1.278 . S
O2771 Mn2754 2.251 . S
O2771 C2764 1.241 . S
O2772 Mn2773 2.163 . S
O2772 C2786 1.244 . S
Mn2773 O2772 2.163 . S
Mn2773 O2776 2.160 . S
Mn2773 O2777 2.221 . S
Mn2773 O2779 2.163 . S
Mn2773 O2781 2.160 . S
Mn2773 O2791 2.221 . S
O2774 Mn2775 2.087 . S
O2774 C2786 1.256 . S
Mn2775 O2774 2.087 . S
Mn2775 O2782 2.089 . S
Mn2775 O2791 2.290 . S
Mn2775 O2792 2.251 . S
O2776 Mn2773 2.160 . S
O2776 C2787 1.239 . S
O2777 Mn2773 2.221 . S
O2777 Mn2778 2.290 . S
O2777 C2788 1.278 . S
Mn2778 O2777 2.290 . S
Mn2778 O2780 2.089 . S
Mn2778 O2783 2.251 . S
Mn2778 O2784 2.087 . S
O2779 Mn2773 2.163 . S
O2779 C2789 1.244 . S
O2780 Mn2778 2.089 . S
O2780 C2787 1.256 . S
O2781 Mn2773 2.160 . S
O2781 C2790 1.239 . S
O2782 Mn2775 2.089 . S
O2782 C2790 1.256 . S
O2783 Mn2778 2.251 . S
O2783 C2788 1.241 . S
O2784 Mn2778 2.087 . S
O2784 C2789 1.256 . S
C2785 O2791 1.278 . S
C2785 O2792 1.241 . S
C2786 O2772 1.244 . S
C2786 O2774 1.256 . S
C2787 O2776 1.239 . S
C2787 O2780 1.256 . S
C2788 O2777 1.278 . S
C2788 O2783 1.241 . S
C2789 O2779 1.244 . S
C2789 O2784 1.256 . S
C2790 O2781 1.239 . S
C2790 O2782 1.256 . S
O2791 Mn2773 2.221 . S
O2791 Mn2775 2.290 . S
O2791 C2785 1.278 . S
O2792 Mn2775 2.251 . S
O2792 C2785 1.241 . S
O2793 Mn2794 2.163 . S
O2793 C2807 1.244 . S
Mn2794 O2793 2.163 . S
Mn2794 O2797 2.160 . S
Mn2794 O2798 2.221 . S
Mn2794 O2800 2.163 . S
Mn2794 O2802 2.160 . S
Mn2794 O2812 2.221 . S
O2795 Mn2796 2.087 . S
O2795 C2807 1.256 . S
Mn2796 O2795 2.087 . S
Mn2796 O2803 2.089 . S
Mn2796 O2812 2.290 . S
Mn2796 O2813 2.251 . S
O2797 Mn2794 2.160 . S
O2797 C2808 1.239 . S
O2798 Mn2794 2.221 . S
O2798 Mn2799 2.290 . S
O2798 C2809 1.278 . S
Mn2799 O2798 2.290 . S
Mn2799 O2801 2.089 . S
Mn2799 O2804 2.251 . S
Mn2799 O2805 2.087 . S
O2800 Mn2794 2.163 . S
O2800 C2810 1.244 . S
O2801 Mn2799 2.089 . S
O2801 C2808 1.256 . S
O2802 Mn2794 2.160 . S
O2802 C2811 1.239 . S
O2803 Mn2796 2.089 . S
O2803 C2811 1.256 . S
O2804 Mn2799 2.251 . S
O2804 C2809 1.241 . S
O2805 Mn2799 2.087 . S
O2805 C2810 1.256 . S
C2806 O2812 1.278 . S
C2806 O2813 1.241 . S
C2807 O2793 1.244 . S
C2807 O2795 1.256 . S
C2808 O2797 1.239 . S
C2808 O2801 1.256 . S
C2809 O2798 1.278 . S
C2809 O2804 1.241 . S
C2810 O2800 1.244 . S
C2810 O2805 1.256 . S
C2811 O2802 1.239 . S
C2811 O2803 1.256 . S
O2812 Mn2794 2.221 . S
O2812 Mn2796 2.290 . S
O2812 C2806 1.278 . S
O2813 Mn2796 2.251 . S
O2813 C2806 1.241 . S
O2814 Mn2815 2.163 . S
O2814 C2828 1.244 . S
Mn2815 O2814 2.163 . S
Mn2815 O2818 2.160 . S
Mn2815 O2819 2.221 . S
Mn2815 O2821 2.163 1_554 S
Mn2815 O2823 2.160 . S
Mn2815 O2833 2.221 1_554 S
O2816 Mn2817 2.087 1_554 S
O2816 C2828 1.256 . S
Mn2817 O2816 2.087 1_556 S
Mn2817 O2824 2.089 1_556 S
Mn2817 O2833 2.290 . S
Mn2817 O2834 2.251 . S
O2818 Mn2815 2.160 . S
O2818 C2829 1.239 . S
O2819 Mn2815 2.221 . S
O2819 Mn2820 2.290 . S
O2819 C2830 1.278 . S
Mn2820 O2819 2.290 . S
Mn2820 O2822 2.089 . S
Mn2820 O2825 2.251 . S
Mn2820 O2826 2.087 . S
O2821 Mn2815 2.163 1_556 S
O2821 C2831 1.244 . S
O2822 Mn2820 2.089 . S
O2822 C2829 1.256 . S
O2823 Mn2815 2.160 . S
O2823 C2832 1.239 . S
O2824 Mn2817 2.089 1_554 S
O2824 C2832 1.256 . S
O2825 Mn2820 2.251 . S
O2825 C2830 1.241 . S
O2826 Mn2820 2.087 . S
O2826 C2831 1.256 1_554 S
C2827 O2833 1.278 . S
C2827 O2834 1.241 . S
C2828 O2814 1.244 . S
C2828 O2816 1.256 . S
C2829 O2818 1.239 . S
C2829 O2822 1.256 . S
C2830 O2819 1.278 . S
C2830 O2825 1.241 . S
C2831 O2821 1.244 . S
C2831 O2826 1.256 1_556 S
C2832 O2823 1.239 . S
C2832 O2824 1.256 . S
O2833 Mn2815 2.221 1_556 S
O2833 Mn2817 2.290 . S
O2833 C2827 1.278 . S
O2834 Mn2817 2.251 . S
O2834 C2827 1.241 . S
O2835 Mn2836 2.163 . S
O2835 C2849 1.244 . S
Mn2836 O2835 2.163 . S
Mn2836 O2839 2.160 . S
Mn2836 O2840 2.221 . S
Mn2836 O2842 2.163 . S
Mn2836 O2844 2.160 . S
Mn2836 O2854 2.221 . S
O2837 Mn2838 2.087 . S
O2837 C2849 1.256 . S
Mn2838 O2837 2.087 . S
Mn2838 O2845 2.089 . S
Mn2838 O2854 2.290 . S
Mn2838 O2855 2.251 . S
O2839 Mn2836 2.160 . S
O2839 C2850 1.239 . S
O2840 Mn2836 2.221 . S
O2840 Mn2841 2.290 . S
O2840 C2851 1.278 . S
Mn2841 O2840 2.290 . S
Mn2841 O2843 2.089 . S
Mn2841 O2846 2.251 . S
Mn2841 O2847 2.087 . S
O2842 Mn2836 2.163 . S
O2842 C2852 1.244 . S
O2843 Mn2841 2.089 . S
O2843 C2850 1.256 . S
O2844 Mn2836 2.160 . S
O2844 C2853 1.239 . S
O2845 Mn2838 2.089 . S
O2845 C2853 1.256 . S
O2846 Mn2841 2.251 . S
O2846 C2851 1.241 . S
O2847 Mn2841 2.087 . S
O2847 C2852 1.256 . S
C2848 O2854 1.278 . S
C2848 O2855 1.241 . S
C2849 O2835 1.244 . S
C2849 O2837 1.256 . S
C2850 O2839 1.239 . S
C2850 O2843 1.256 . S
C2851 O2840 1.278 . S
C2851 O2846 1.241 . S
C2852 O2842 1.244 . S
C2852 O2847 1.256 . S
C2853 O2844 1.239 . S
C2853 O2845 1.256 . S
O2854 Mn2836 2.221 . S
O2854 Mn2838 2.290 . S
O2854 C2848 1.278 . S
O2855 Mn2838 2.251 . S
O2855 C2848 1.241 . S
O2856 Mn2857 2.163 . S
O2856 C2870 1.244 . S
Mn2857 O2856 2.163 . S
Mn2857 O2860 2.160 . S
Mn2857 O2861 2.221 . S
Mn2857 O2863 2.163 . S
Mn2857 O2865 2.160 . S
Mn2857 O2875 2.221 . S
O2858 Mn2859 2.087 . S
O2858 C2870 1.256 . S
Mn2859 O2858 2.087 . S
Mn2859 O2866 2.089 . S
Mn2859 O2875 2.290 . S
Mn2859 O2876 2.251 . S
O2860 Mn2857 2.160 . S
O2860 C2871 1.239 . S
O2861 Mn2857 2.221 . S
O2861 Mn2862 2.290 . S
O2861 C2872 1.278 . S
Mn2862 O2861 2.290 . S
Mn2862 O2864 2.089 . S
Mn2862 O2867 2.251 . S
Mn2862 O2868 2.087 . S
O2863 Mn2857 2.163 . S
O2863 C2873 1.244 . S
O2864 Mn2862 2.089 . S
O2864 C2871 1.256 . S
O2865 Mn2857 2.160 . S
O2865 C2874 1.239 . S
O2866 Mn2859 2.089 . S
O2866 C2874 1.256 . S
O2867 Mn2862 2.251 . S
O2867 C2872 1.241 . S
O2868 Mn2862 2.087 . S
O2868 C2873 1.256 . S
C2869 O2875 1.278 . S
C2869 O2876 1.241 . S
C2870 O2856 1.244 . S
C2870 O2858 1.256 . S
C2871 O2860 1.239 . S
C2871 O2864 1.256 . S
C2872 O2861 1.278 . S
C2872 O2867 1.241 . S
C2873 O2863 1.244 . S
C2873 O2868 1.256 . S
C2874 O2865 1.239 . S
C2874 O2866 1.256 . S
O2875 Mn2857 2.221 . S
O2875 Mn2859 2.290 . S
O2875 C2869 1.278 . S
O2876 Mn2859 2.251 . S
O2876 C2869 1.241 . S
O2877 Mn2878 2.163 . S
O2877 C2891 1.244 . S
Mn2878 O2877 2.163 . S
Mn2878 O2881 2.160 . S
Mn2878 O2882 2.221 . S
Mn2878 O2884 2.163 . S
Mn2878 O2886 2.160 . S
Mn2878 O2896 2.221 . S
O2879 Mn2880 2.087 . S
O2879 C2891 1.256 . S
Mn2880 O2879 2.087 . S
Mn2880 O2887 2.089 . S
Mn2880 O2896 2.290 . S
Mn2880 O2897 2.251 . S
O2881 Mn2878 2.160 . S
O2881 C2892 1.239 . S
O2882 Mn2878 2.221 . S
O2882 Mn2883 2.290 . S
O2882 C2893 1.278 . S
Mn2883 O2882 2.290 . S
Mn2883 O2885 2.089 . S
Mn2883 O2888 2.251 . S
Mn2883 O2889 2.087 . S
O2884 Mn2878 2.163 . S
O2884 C2894 1.244 . S
O2885 Mn2883 2.089 . S
O2885 C2892 1.256 . S
O2886 Mn2878 2.160 . S
O2886 C2895 1.239 . S
O2887 Mn2880 2.089 . S
O2887 C2895 1.256 . S
O2888 Mn2883 2.251 . S
O2888 C2893 1.241 . S
O2889 Mn2883 2.087 . S
O2889 C2894 1.256 . S
C2890 O2896 1.278 . S
C2890 O2897 1.241 . S
C2891 O2877 1.244 . S
C2891 O2879 1.256 . S
C2892 O2881 1.239 . S
C2892 O2885 1.256 . S
C2893 O2882 1.278 . S
C2893 O2888 1.241 . S
C2894 O2884 1.244 . S
C2894 O2889 1.256 . S
C2895 O2886 1.239 . S
C2895 O2887 1.256 . S
O2896 Mn2878 2.221 . S
O2896 Mn2880 2.290 . S
O2896 C2890 1.278 . S
O2897 Mn2880 2.251 . S
O2897 C2890 1.241 . S
O2898 Mn2899 2.163 . S
O2898 C2912 1.244 . S
Mn2899 O2898 2.163 . S
Mn2899 O2902 2.160 . S
Mn2899 O2903 2.221 . S
Mn2899 O2905 2.163 1_565 S
Mn2899 O2907 2.160 . S
Mn2899 O2917 2.221 1_565 S
O2900 Mn2901 2.087 1_565 S
O2900 C2912 1.256 . S
Mn2901 O2900 2.087 1_545 S
Mn2901 O2908 2.089 1_545 S
Mn2901 O2917 2.290 . S
Mn2901 O2918 2.251 . S
O2902 Mn2899 2.160 . S
O2902 C2913 1.239 . S
O2903 Mn2899 2.221 . S
O2903 Mn2904 2.290 . S
O2903 C2914 1.278 . S
Mn2904 O2903 2.290 . S
Mn2904 O2906 2.089 . S
Mn2904 O2909 2.251 . S
Mn2904 O2910 2.087 . S
O2905 Mn2899 2.163 1_545 S
O2905 C2915 1.244 . S
O2906 Mn2904 2.089 . S
O2906 C2913 1.256 . S
O2907 Mn2899 2.160 . S
O2907 C2916 1.239 . S
O2908 Mn2901 2.089 1_565 S
O2908 C2916 1.256 . S
O2909 Mn2904 2.251 . S
O2909 C2914 1.241 . S
O2910 Mn2904 2.087 . S
O2910 C2915 1.256 1_565 S
C2911 O2917 1.278 . S
C2911 O2918 1.241 . S
C2912 O2898 1.244 . S
C2912 O2900 1.256 . S
C2913 O2902 1.239 . S
C2913 O2906 1.256 . S
C2914 O2903 1.278 . S
C2914 O2909 1.241 . S
C2915 O2905 1.244 . S
C2915 O2910 1.256 1_545 S
C2916 O2907 1.239 . S
C2916 O2908 1.256 . S
O2917 Mn2899 2.221 1_545 S
O2917 Mn2901 2.290 . S
O2917 C2911 1.278 . S
O2918 Mn2901 2.251 . S
O2918 C2911 1.241 . S
O2919 Mn2920 2.163 . S
O2919 C2933 1.244 . S
Mn2920 O2919 2.163 . S
Mn2920 O2923 2.160 . S
Mn2920 O2924 2.221 . S
Mn2920 O2926 2.163 1_455 S
Mn2920 O2928 2.160 . S
Mn2920 O2938 2.221 1_455 S
O2921 Mn2922 2.087 1_455 S
O2921 C2933 1.256 . S
Mn2922 O2921 2.087 1_655 S
Mn2922 O2929 2.089 1_655 S
Mn2922 O2938 2.290 . S
Mn2922 O2939 2.251 . S
O2923 Mn2920 2.160 . S
O2923 C2934 1.239 . S
O2924 Mn2920 2.221 . S
O2924 Mn2925 2.290 . S
O2924 C2935 1.278 . S
Mn2925 O2924 2.290 . S
Mn2925 O2927 2.089 . S
Mn2925 O2930 2.251 . S
Mn2925 O2931 2.087 . S
O2926 Mn2920 2.163 1_655 S
O2926 C2936 1.244 . S
O2927 Mn2925 2.089 . S
O2927 C2934 1.256 . S
O2928 Mn2920 2.160 . S
O2928 C2937 1.239 . S
O2929 Mn2922 2.089 1_455 S
O2929 C2937 1.256 . S
O2930 Mn2925 2.251 . S
O2930 C2935 1.241 . S
O2931 Mn2925 2.087 . S
O2931 C2936 1.256 1_455 S
C2932 O2938 1.278 . S
C2932 O2939 1.241 . S
C2933 O2919 1.244 . S
C2933 O2921 1.256 . S
C2934 O2923 1.239 . S
C2934 O2927 1.256 . S
C2935 O2924 1.278 . S
C2935 O2930 1.241 . S
C2936 O2926 1.244 . S
C2936 O2931 1.256 1_655 S
C2937 O2928 1.239 . S
C2937 O2929 1.256 . S
O2938 Mn2920 2.221 1_655 S
O2938 Mn2922 2.290 . S
O2938 C2932 1.278 . S
O2939 Mn2922 2.251 . S
O2939 C2932 1.241 . S
O2940 Mn2941 2.163 1_556 S
O2940 C2954 1.244 . S
Mn2941 O2940 2.163 1_554 S
Mn2941 O2944 2.160 . S
Mn2941 O2945 2.221 . S
Mn2941 O2947 2.163 . S
Mn2941 O2949 2.160 . S
Mn2941 O2959 2.221 . S
O2942 Mn2943 2.087 . S
O2942 C2954 1.256 . S
Mn2943 O2942 2.087 . S
Mn2943 O2950 2.089 . S
Mn2943 O2959 2.290 1_556 S
Mn2943 O2960 2.251 . S
O2944 Mn2941 2.160 . S
O2944 C2955 1.239 . S
O2945 Mn2941 2.221 . S
O2945 Mn2946 2.290 . S
O2945 C2956 1.278 . S
Mn2946 O2945 2.290 . S
Mn2946 O2948 2.089 . S
Mn2946 O2951 2.251 . S
Mn2946 O2952 2.087 . S
O2947 Mn2941 2.163 . S
O2947 C2957 1.244 . S
O2948 Mn2946 2.089 . S
O2948 C2955 1.256 . S
O2949 Mn2941 2.160 . S
O2949 C2958 1.239 1_554 S
O2950 Mn2943 2.089 . S
O2950 C2958 1.256 . S
O2951 Mn2946 2.251 . S
O2951 C2956 1.241 . S
O2952 Mn2946 2.087 . S
O2952 C2957 1.256 . S
C2953 O2959 1.278 . S
C2953 O2960 1.241 1_554 S
C2954 O2940 1.244 . S
C2954 O2942 1.256 . S
C2955 O2944 1.239 . S
C2955 O2948 1.256 . S
C2956 O2945 1.278 . S
C2956 O2951 1.241 . S
C2957 O2947 1.244 . S
C2957 O2952 1.256 . S
C2958 O2949 1.239 1_556 S
C2958 O2950 1.256 . S
O2959 Mn2941 2.221 . S
O2959 Mn2943 2.290 1_554 S
O2959 C2953 1.278 . S
O2960 Mn2943 2.251 . S
O2960 C2953 1.241 1_556 S
O2961 Mn2962 2.163 . S
O2961 C2975 1.244 . S
Mn2962 O2961 2.163 . S
Mn2962 O2965 2.160 . S
Mn2962 O2966 2.221 . S
Mn2962 O2968 2.163 . S
Mn2962 O2970 2.160 . S
Mn2962 O2980 2.221 . S
O2963 Mn2964 2.087 . S
O2963 C2975 1.256 . S
Mn2964 O2963 2.087 . S
Mn2964 O2971 2.089 . S
Mn2964 O2980 2.290 . S
Mn2964 O2981 2.251 . S
O2965 Mn2962 2.160 . S
O2965 C2976 1.239 . S
O2966 Mn2962 2.221 . S
O2966 Mn2967 2.290 . S
O2966 C2977 1.278 . S
Mn2967 O2966 2.290 . S
Mn2967 O2969 2.089 . S
Mn2967 O2972 2.251 . S
Mn2967 O2973 2.087 . S
O2968 Mn2962 2.163 . S
O2968 C2978 1.244 . S
O2969 Mn2967 2.089 . S
O2969 C2976 1.256 . S
O2970 Mn2962 2.160 . S
O2970 C2979 1.239 . S
O2971 Mn2964 2.089 . S
O2971 C2979 1.256 . S
O2972 Mn2967 2.251 . S
O2972 C2977 1.241 . S
O2973 Mn2967 2.087 . S
O2973 C2978 1.256 . S
C2974 O2980 1.278 . S
C2974 O2981 1.241 . S
C2975 O2961 1.244 . S
C2975 O2963 1.256 . S
C2976 O2965 1.239 . S
C2976 O2969 1.256 . S
C2977 O2966 1.278 . S
C2977 O2972 1.241 . S
C2978 O2968 1.244 . S
C2978 O2973 1.256 . S
C2979 O2970 1.239 . S
C2979 O2971 1.256 . S
O2980 Mn2962 2.221 . S
O2980 Mn2964 2.290 . S
O2980 C2974 1.278 . S
O2981 Mn2964 2.251 . S
O2981 C2974 1.241 . S
O2982 Mn2983 2.163 . S
O2982 C2996 1.244 . S
Mn2983 O2982 2.163 . S
Mn2983 O2986 2.160 . S
Mn2983 O2987 2.221 . S
Mn2983 O2989 2.163 . S
Mn2983 O2991 2.160 . S
Mn2983 O3001 2.221 . S
O2984 Mn2985 2.087 . S
O2984 C2996 1.256 . S
Mn2985 O2984 2.087 . S
Mn2985 O2992 2.089 . S
Mn2985 O3001 2.290 . S
Mn2985 O3002 2.251 . S
O2986 Mn2983 2.160 . S
O2986 C2997 1.239 . S
O2987 Mn2983 2.221 . S
O2987 Mn2988 2.290 . S
O2987 C2998 1.278 . S
Mn2988 O2987 2.290 . S
Mn2988 O2990 2.089 . S
Mn2988 O2993 2.251 . S
Mn2988 O2994 2.087 . S
O2989 Mn2983 2.163 . S
O2989 C2999 1.244 . S
O2990 Mn2988 2.089 . S
O2990 C2997 1.256 . S
O2991 Mn2983 2.160 . S
O2991 C3000 1.239 . S
O2992 Mn2985 2.089 . S
O2992 C3000 1.256 . S
O2993 Mn2988 2.251 . S
O2993 C2998 1.241 . S
O2994 Mn2988 2.087 . S
O2994 C2999 1.256 . S
C2995 O3001 1.278 . S
C2995 O3002 1.241 . S
C2996 O2982 1.244 . S
C2996 O2984 1.256 . S
C2997 O2986 1.239 . S
C2997 O2990 1.256 . S
C2998 O2987 1.278 . S
C2998 O2993 1.241 . S
C2999 O2989 1.244 . S
C2999 O2994 1.256 . S
C3000 O2991 1.239 . S
C3000 O2992 1.256 . S
O3001 Mn2983 2.221 . S
O3001 Mn2985 2.290 . S
O3001 C2995 1.278 . S
O3002 Mn2985 2.251 . S
O3002 C2995 1.241 . S
O3003 Mn3004 2.163 . S
O3003 C3017 1.244 . S
Mn3004 O3003 2.163 . S
Mn3004 O3007 2.160 . S
Mn3004 O3008 2.221 . S
Mn3004 O3010 2.163 1_565 S
Mn3004 O3012 2.160 . S
Mn3004 O3022 2.221 1_565 S
O3005 Mn3006 2.087 1_565 S
O3005 C3017 1.256 . S
Mn3006 O3005 2.087 1_545 S
Mn3006 O3013 2.089 1_545 S
Mn3006 O3022 2.290 . S
Mn3006 O3023 2.251 . S
O3007 Mn3004 2.160 . S
O3007 C3018 1.239 . S
O3008 Mn3004 2.221 . S
O3008 Mn3009 2.290 . S
O3008 C3019 1.278 . S
Mn3009 O3008 2.290 . S
Mn3009 O3011 2.089 . S
Mn3009 O3014 2.251 . S
Mn3009 O3015 2.087 . S
O3010 Mn3004 2.163 1_545 S
O3010 C3020 1.244 . S
O3011 Mn3009 2.089 . S
O3011 C3018 1.256 . S
O3012 Mn3004 2.160 . S
O3012 C3021 1.239 . S
O3013 Mn3006 2.089 1_565 S
O3013 C3021 1.256 . S
O3014 Mn3009 2.251 . S
O3014 C3019 1.241 . S
O3015 Mn3009 2.087 . S
O3015 C3020 1.256 1_565 S
C3016 O3022 1.278 . S
C3016 O3023 1.241 . S
C3017 O3003 1.244 . S
C3017 O3005 1.256 . S
C3018 O3007 1.239 . S
C3018 O3011 1.256 . S
C3019 O3008 1.278 . S
C3019 O3014 1.241 . S
C3020 O3010 1.244 . S
C3020 O3015 1.256 1_545 S
C3021 O3012 1.239 . S
C3021 O3013 1.256 . S
O3022 Mn3004 2.221 1_545 S
O3022 Mn3006 2.290 . S
O3022 C3016 1.278 . S
O3023 Mn3006 2.251 . S
O3023 C3016 1.241 . S
O3024 Mn3025 2.163 . S
O3024 C3038 1.244 . S
Mn3025 O3024 2.163 . S
Mn3025 O3028 2.160 . S
Mn3025 O3029 2.221 . S
Mn3025 O3031 2.163 . S
Mn3025 O3033 2.160 . S
Mn3025 O3043 2.221 . S
O3026 Mn3027 2.087 . S
O3026 C3038 1.256 . S
Mn3027 O3026 2.087 . S
Mn3027 O3034 2.089 . S
Mn3027 O3043 2.290 . S
Mn3027 O3044 2.251 . S
O3028 Mn3025 2.160 . S
O3028 C3039 1.239 . S
O3029 Mn3025 2.221 . S
O3029 Mn3030 2.290 . S
O3029 C3040 1.278 . S
Mn3030 O3029 2.290 . S
Mn3030 O3032 2.089 . S
Mn3030 O3035 2.251 . S
Mn3030 O3036 2.087 . S
O3031 Mn3025 2.163 . S
O3031 C3041 1.244 . S
O3032 Mn3030 2.089 . S
O3032 C3039 1.256 . S
O3033 Mn3025 2.160 . S
O3033 C3042 1.239 . S
O3034 Mn3027 2.089 . S
O3034 C3042 1.256 . S
O3035 Mn3030 2.251 . S
O3035 C3040 1.241 . S
O3036 Mn3030 2.087 . S
O3036 C3041 1.256 . S
C3037 O3043 1.278 . S
C3037 O3044 1.241 . S
C3038 O3024 1.244 . S
C3038 O3026 1.256 . S
C3039 O3028 1.239 . S
C3039 O3032 1.256 . S
C3040 O3029 1.278 . S
C3040 O3035 1.241 . S
C3041 O3031 1.244 . S
C3041 O3036 1.256 . S
C3042 O3033 1.239 . S
C3042 O3034 1.256 . S
O3043 Mn3025 2.221 . S
O3043 Mn3027 2.290 . S
O3043 C3037 1.278 . S
O3044 Mn3027 2.251 . S
O3044 C3037 1.241 . S
O3045 Mn3046 2.163 . S
O3045 C3059 1.244 . S
Mn3046 O3045 2.163 . S
Mn3046 O3049 2.160 . S
Mn3046 O3050 2.221 . S
Mn3046 O3052 2.163 . S
Mn3046 O3054 2.160 . S
Mn3046 O3064 2.221 . S
O3047 Mn3048 2.087 . S
O3047 C3059 1.256 . S
Mn3048 O3047 2.087 . S
Mn3048 O3055 2.089 . S
Mn3048 O3064 2.290 . S
Mn3048 O3065 2.251 . S
O3049 Mn3046 2.160 . S
O3049 C3060 1.239 . S
O3050 Mn3046 2.221 . S
O3050 Mn3051 2.290 . S
O3050 C3061 1.278 . S
Mn3051 O3050 2.290 . S
Mn3051 O3053 2.089 . S
Mn3051 O3056 2.251 . S
Mn3051 O3057 2.087 . S
O3052 Mn3046 2.163 . S
O3052 C3062 1.244 . S
O3053 Mn3051 2.089 . S
O3053 C3060 1.256 . S
O3054 Mn3046 2.160 . S
O3054 C3063 1.239 . S
O3055 Mn3048 2.089 . S
O3055 C3063 1.256 . S
O3056 Mn3051 2.251 . S
O3056 C3061 1.241 . S
O3057 Mn3051 2.087 . S
O3057 C3062 1.256 . S
C3058 O3064 1.278 . S
C3058 O3065 1.241 . S
C3059 O3045 1.244 . S
C3059 O3047 1.256 . S
C3060 O3049 1.239 . S
C3060 O3053 1.256 . S
C3061 O3050 1.278 . S
C3061 O3056 1.241 . S
C3062 O3052 1.244 . S
C3062 O3057 1.256 . S
C3063 O3054 1.239 . S
C3063 O3055 1.256 . S
O3064 Mn3046 2.221 . S
O3064 Mn3048 2.290 . S
O3064 C3058 1.278 . S
O3065 Mn3048 2.251 . S
O3065 C3058 1.241 . S
O3066 Mn3067 2.163 . S
O3066 C3080 1.244 . S
Mn3067 O3066 2.163 . S
Mn3067 O3070 2.160 . S
Mn3067 O3071 2.221 . S
Mn3067 O3073 2.163 1_565 S
Mn3067 O3075 2.160 . S
Mn3067 O3085 2.221 1_565 S
O3068 Mn3069 2.087 1_565 S
O3068 C3080 1.256 . S
Mn3069 O3068 2.087 1_545 S
Mn3069 O3076 2.089 1_545 S
Mn3069 O3085 2.290 . S
Mn3069 O3086 2.251 . S
O3070 Mn3067 2.160 . S
O3070 C3081 1.239 . S
O3071 Mn3067 2.221 . S
O3071 Mn3072 2.290 . S
O3071 C3082 1.278 . S
Mn3072 O3071 2.290 . S
Mn3072 O3074 2.089 . S
Mn3072 O3077 2.251 . S
Mn3072 O3078 2.087 . S
O3073 Mn3067 2.163 1_545 S
O3073 C3083 1.244 . S
O3074 Mn3072 2.089 . S
O3074 C3081 1.256 . S
O3075 Mn3067 2.160 . S
O3075 C3084 1.239 . S
O3076 Mn3069 2.089 1_565 S
O3076 C3084 1.256 . S
O3077 Mn3072 2.251 . S
O3077 C3082 1.241 . S
O3078 Mn3072 2.087 . S
O3078 C3083 1.256 1_565 S
C3079 O3085 1.278 . S
C3079 O3086 1.241 . S
C3080 O3066 1.244 . S
C3080 O3068 1.256 . S
C3081 O3070 1.239 . S
C3081 O3074 1.256 . S
C3082 O3071 1.278 . S
C3082 O3077 1.241 . S
C3083 O3073 1.244 . S
C3083 O3078 1.256 1_545 S
C3084 O3075 1.239 . S
C3084 O3076 1.256 . S
O3085 Mn3067 2.221 1_545 S
O3085 Mn3069 2.290 . S
O3085 C3079 1.278 . S
O3086 Mn3069 2.251 . S
O3086 C3079 1.241 . S
O3087 Mn3088 2.163 . S
O3087 C3101 1.244 . S
Mn3088 O3087 2.163 . S
Mn3088 O3091 2.160 . S
Mn3088 O3092 2.221 . S
Mn3088 O3094 2.163 1_565 S
Mn3088 O3096 2.160 . S
Mn3088 O3106 2.221 . S
O3089 Mn3090 2.087 . S
O3089 C3101 1.256 . S
Mn3090 O3089 2.087 . S
Mn3090 O3097 2.089 . S
Mn3090 O3106 2.290 . S
Mn3090 O3107 2.251 . S
O3091 Mn3088 2.160 . S
O3091 C3102 1.239 1_565 S
O3092 Mn3088 2.221 . S
O3092 Mn3093 2.290 1_565 S
O3092 C3103 1.278 . S
Mn3093 O3092 2.290 1_545 S
Mn3093 O3095 2.089 . S
Mn3093 O3098 2.251 . S
Mn3093 O3099 2.087 . S
O3094 Mn3088 2.163 1_545 S
O3094 C3104 1.244 . S
O3095 Mn3093 2.089 . S
O3095 C3102 1.256 . S
O3096 Mn3088 2.160 . S
O3096 C3105 1.239 . S
O3097 Mn3090 2.089 . S
O3097 C3105 1.256 . S
O3098 Mn3093 2.251 . S
O3098 C3103 1.241 1_545 S
O3099 Mn3093 2.087 . S
O3099 C3104 1.256 . S
C3100 O3106 1.278 . S
C3100 O3107 1.241 . S
C3101 O3087 1.244 . S
C3101 O3089 1.256 . S
C3102 O3091 1.239 1_545 S
C3102 O3095 1.256 . S
C3103 O3092 1.278 . S
C3103 O3098 1.241 1_565 S
C3104 O3094 1.244 . S
C3104 O3099 1.256 . S
C3105 O3096 1.239 . S
C3105 O3097 1.256 . S
O3106 Mn3088 2.221 . S
O3106 Mn3090 2.290 . S
O3106 C3100 1.278 . S
O3107 Mn3090 2.251 . S
O3107 C3100 1.241 . S
O3108 Mn3109 2.163 . S
O3108 C3122 1.244 . S
Mn3109 O3108 2.163 . S
Mn3109 O3112 2.160 . S
Mn3109 O3113 2.221 . S
Mn3109 O3115 2.163 . S
Mn3109 O3117 2.160 . S
Mn3109 O3127 2.221 . S
O3110 Mn3111 2.087 . S
O3110 C3122 1.256 . S
Mn3111 O3110 2.087 . S
Mn3111 O3118 2.089 . S
Mn3111 O3127 2.290 . S
Mn3111 O3128 2.251 . S
O3112 Mn3109 2.160 . S
O3112 C3123 1.239 . S
O3113 Mn3109 2.221 . S
O3113 Mn3114 2.290 . S
O3113 C3124 1.278 . S
Mn3114 O3113 2.290 . S
Mn3114 O3116 2.089 . S
Mn3114 O3119 2.251 . S
Mn3114 O3120 2.087 . S
O3115 Mn3109 2.163 . S
O3115 C3125 1.244 . S
O3116 Mn3114 2.089 . S
O3116 C3123 1.256 . S
O3117 Mn3109 2.160 . S
O3117 C3126 1.239 . S
O3118 Mn3111 2.089 . S
O3118 C3126 1.256 . S
O3119 Mn3114 2.251 . S
O3119 C3124 1.241 . S
O3120 Mn3114 2.087 . S
O3120 C3125 1.256 . S
C3121 O3127 1.278 . S
C3121 O3128 1.241 . S
C3122 O3108 1.244 . S
C3122 O3110 1.256 . S
C3123 O3112 1.239 . S
C3123 O3116 1.256 . S
C3124 O3113 1.278 . S
C3124 O3119 1.241 . S
C3125 O3115 1.244 . S
C3125 O3120 1.256 . S
C3126 O3117 1.239 . S
C3126 O3118 1.256 . S
O3127 Mn3109 2.221 . S
O3127 Mn3111 2.290 . S
O3127 C3121 1.278 . S
O3128 Mn3111 2.251 . S
O3128 C3121 1.241 . S
O3129 Mn3130 2.163 . S
O3129 C3143 1.244 . S
Mn3130 O3129 2.163 . S
Mn3130 O3133 2.160 . S
Mn3130 O3134 2.221 . S
Mn3130 O3136 2.163 1_455 S
Mn3130 O3138 2.160 . S
Mn3130 O3148 2.221 1_455 S
O3131 Mn3132 2.087 1_455 S
O3131 C3143 1.256 . S
Mn3132 O3131 2.087 1_655 S
Mn3132 O3139 2.089 1_655 S
Mn3132 O3148 2.290 . S
Mn3132 O3149 2.251 . S
O3133 Mn3130 2.160 . S
O3133 C3144 1.239 . S
O3134 Mn3130 2.221 . S
O3134 Mn3135 2.290 . S
O3134 C3145 1.278 . S
Mn3135 O3134 2.290 . S
Mn3135 O3137 2.089 . S
Mn3135 O3140 2.251 . S
Mn3135 O3141 2.087 . S
O3136 Mn3130 2.163 1_655 S
O3136 C3146 1.244 . S
O3137 Mn3135 2.089 . S
O3137 C3144 1.256 . S
O3138 Mn3130 2.160 . S
O3138 C3147 1.239 . S
O3139 Mn3132 2.089 1_455 S
O3139 C3147 1.256 . S
O3140 Mn3135 2.251 . S
O3140 C3145 1.241 . S
O3141 Mn3135 2.087 . S
O3141 C3146 1.256 1_455 S
C3142 O3148 1.278 . S
C3142 O3149 1.241 . S
C3143 O3129 1.244 . S
C3143 O3131 1.256 . S
C3144 O3133 1.239 . S
C3144 O3137 1.256 . S
C3145 O3134 1.278 . S
C3145 O3140 1.241 . S
C3146 O3136 1.244 . S
C3146 O3141 1.256 1_655 S
C3147 O3138 1.239 . S
C3147 O3139 1.256 . S
O3148 Mn3130 2.221 1_655 S
O3148 Mn3132 2.290 . S
O3148 C3142 1.278 . S
O3149 Mn3132 2.251 . S
O3149 C3142 1.241 . S
O3150 Mn3151 2.163 . S
O3150 C3164 1.244 . S
Mn3151 O3150 2.163 . S
Mn3151 O3154 2.160 . S
Mn3151 O3155 2.221 . S
Mn3151 O3157 2.163 . S
Mn3151 O3159 2.160 . S
Mn3151 O3169 2.221 . S
O3152 Mn3153 2.087 . S
O3152 C3164 1.256 . S
Mn3153 O3152 2.087 . S
Mn3153 O3160 2.089 . S
Mn3153 O3169 2.290 . S
Mn3153 O3170 2.251 . S
O3154 Mn3151 2.160 . S
O3154 C3165 1.239 . S
O3155 Mn3151 2.221 . S
O3155 Mn3156 2.290 . S
O3155 C3166 1.278 . S
Mn3156 O3155 2.290 . S
Mn3156 O3158 2.089 . S
Mn3156 O3161 2.251 . S
Mn3156 O3162 2.087 . S
O3157 Mn3151 2.163 . S
O3157 C3167 1.244 . S
O3158 Mn3156 2.089 . S
O3158 C3165 1.256 . S
O3159 Mn3151 2.160 . S
O3159 C3168 1.239 . S
O3160 Mn3153 2.089 . S
O3160 C3168 1.256 . S
O3161 Mn3156 2.251 . S
O3161 C3166 1.241 . S
O3162 Mn3156 2.087 . S
O3162 C3167 1.256 . S
C3163 O3169 1.278 . S
C3163 O3170 1.241 . S
C3164 O3150 1.244 . S
C3164 O3152 1.256 . S
C3165 O3154 1.239 . S
C3165 O3158 1.256 . S
C3166 O3155 1.278 . S
C3166 O3161 1.241 . S
C3167 O3157 1.244 . S
C3167 O3162 1.256 . S
C3168 O3159 1.239 . S
C3168 O3160 1.256 . S
O3169 Mn3151 2.221 . S
O3169 Mn3153 2.290 . S
O3169 C3163 1.278 . S
O3170 Mn3153 2.251 . S
O3170 C3163 1.241 . S
O3171 Mn3172 2.163 . S
O3171 C3185 1.244 . S
Mn3172 O3171 2.163 . S
Mn3172 O3175 2.160 . S
Mn3172 O3176 2.221 . S
Mn3172 O3178 2.163 1_565 S
Mn3172 O3180 2.160 . S
Mn3172 O3190 2.221 . S
O3173 Mn3174 2.087 . S
O3173 C3185 1.256 . S
Mn3174 O3173 2.087 . S
Mn3174 O3181 2.089 . S
Mn3174 O3190 2.290 . S
Mn3174 O3191 2.251 . S
O3175 Mn3172 2.160 . S
O3175 C3186 1.239 1_565 S
O3176 Mn3172 2.221 . S
O3176 Mn3177 2.290 1_565 S
O3176 C3187 1.278 . S
Mn3177 O3176 2.290 1_545 S
Mn3177 O3179 2.089 . S
Mn3177 O3182 2.251 . S
Mn3177 O3183 2.087 . S
O3178 Mn3172 2.163 1_545 S
O3178 C3188 1.244 . S
O3179 Mn3177 2.089 . S
O3179 C3186 1.256 . S
O3180 Mn3172 2.160 . S
O3180 C3189 1.239 . S
O3181 Mn3174 2.089 . S
O3181 C3189 1.256 . S
O3182 Mn3177 2.251 . S
O3182 C3187 1.241 1_545 S
O3183 Mn3177 2.087 . S
O3183 C3188 1.256 . S
C3184 O3190 1.278 . S
C3184 O3191 1.241 . S
C3185 O3171 1.244 . S
C3185 O3173 1.256 . S
C3186 O3175 1.239 1_545 S
C3186 O3179 1.256 . S
C3187 O3176 1.278 . S
C3187 O3182 1.241 1_565 S
C3188 O3178 1.244 . S
C3188 O3183 1.256 . S
C3189 O3180 1.239 . S
C3189 O3181 1.256 . S
O3190 Mn3172 2.221 . S
O3190 Mn3174 2.290 . S
O3190 C3184 1.278 . S
O3191 Mn3174 2.251 . S
O3191 C3184 1.241 . S
O3192 Mn3193 2.163 . S
O3192 C3206 1.244 . S
Mn3193 O3192 2.163 . S
Mn3193 O3196 2.160 . S
Mn3193 O3197 2.221 . S
Mn3193 O3199 2.163 . S
Mn3193 O3201 2.160 . S
Mn3193 O3211 2.221 . S
O3194 Mn3195 2.087 . S
O3194 C3206 1.256 . S
Mn3195 O3194 2.087 . S
Mn3195 O3202 2.089 . S
Mn3195 O3211 2.290 . S
Mn3195 O3212 2.251 . S
O3196 Mn3193 2.160 . S
O3196 C3207 1.239 . S
O3197 Mn3193 2.221 . S
O3197 Mn3198 2.290 . S
O3197 C3208 1.278 . S
Mn3198 O3197 2.290 . S
Mn3198 O3200 2.089 . S
Mn3198 O3203 2.251 . S
Mn3198 O3204 2.087 . S
O3199 Mn3193 2.163 . S
O3199 C3209 1.244 . S
O3200 Mn3198 2.089 . S
O3200 C3207 1.256 . S
O3201 Mn3193 2.160 . S
O3201 C3210 1.239 . S
O3202 Mn3195 2.089 . S
O3202 C3210 1.256 . S
O3203 Mn3198 2.251 . S
O3203 C3208 1.241 . S
O3204 Mn3198 2.087 . S
O3204 C3209 1.256 . S
C3205 O3211 1.278 . S
C3205 O3212 1.241 . S
C3206 O3192 1.244 . S
C3206 O3194 1.256 . S
C3207 O3196 1.239 . S
C3207 O3200 1.256 . S
C3208 O3197 1.278 . S
C3208 O3203 1.241 . S
C3209 O3199 1.244 . S
C3209 O3204 1.256 . S
C3210 O3201 1.239 . S
C3210 O3202 1.256 . S
O3211 Mn3193 2.221 . S
O3211 Mn3195 2.290 . S
O3211 C3205 1.278 . S
O3212 Mn3195 2.251 . S
O3212 C3205 1.241 . S
O3213 Mn3214 2.163 1_455 S
O3213 C3227 1.244 . S
Mn3214 O3213 2.163 1_655 S
Mn3214 O3217 2.160 . S
Mn3214 O3218 2.221 . S
Mn3214 O3220 2.163 . S
Mn3214 O3222 2.160 . S
Mn3214 O3232 2.221 . S
O3215 Mn3216 2.087 . S
O3215 C3227 1.256 . S
Mn3216 O3215 2.087 . S
Mn3216 O3223 2.089 . S
Mn3216 O3232 2.290 1_455 S
Mn3216 O3233 2.251 . S
O3217 Mn3214 2.160 . S
O3217 C3228 1.239 . S
O3218 Mn3214 2.221 . S
O3218 Mn3219 2.290 . S
O3218 C3229 1.278 . S
Mn3219 O3218 2.290 . S
Mn3219 O3221 2.089 . S
Mn3219 O3224 2.251 . S
Mn3219 O3225 2.087 . S
O3220 Mn3214 2.163 . S
O3220 C3230 1.244 . S
O3221 Mn3219 2.089 . S
O3221 C3228 1.256 . S
O3222 Mn3214 2.160 . S
O3222 C3231 1.239 1_655 S
O3223 Mn3216 2.089 . S
O3223 C3231 1.256 . S
O3224 Mn3219 2.251 . S
O3224 C3229 1.241 . S
O3225 Mn3219 2.087 . S
O3225 C3230 1.256 . S
C3226 O3232 1.278 . S
C3226 O3233 1.241 1_655 S
C3227 O3213 1.244 . S
C3227 O3215 1.256 . S
C3228 O3217 1.239 . S
C3228 O3221 1.256 . S
C3229 O3218 1.278 . S
C3229 O3224 1.241 . S
C3230 O3220 1.244 . S
C3230 O3225 1.256 . S
C3231 O3222 1.239 1_455 S
C3231 O3223 1.256 . S
O3232 Mn3214 2.221 . S
O3232 Mn3216 2.290 1_655 S
O3232 C3226 1.278 . S
O3233 Mn3216 2.251 . S
O3233 C3226 1.241 1_455 S
O3234 Mn3235 2.163 . S
O3234 C3248 1.244 . S
Mn3235 O3234 2.163 . S
Mn3235 O3238 2.160 . S
Mn3235 O3239 2.221 . S
Mn3235 O3241 2.163 . S
Mn3235 O3243 2.160 . S
Mn3235 O3253 2.221 . S
O3236 Mn3237 2.087 . S
O3236 C3248 1.256 . S
Mn3237 O3236 2.087 . S
Mn3237 O3244 2.089 . S
Mn3237 O3253 2.290 . S
Mn3237 O3254 2.251 . S
O3238 Mn3235 2.160 . S
O3238 C3249 1.239 . S
O3239 Mn3235 2.221 . S
O3239 Mn3240 2.290 . S
O3239 C3250 1.278 . S
Mn3240 O3239 2.290 . S
Mn3240 O3242 2.089 . S
Mn3240 O3245 2.251 . S
Mn3240 O3246 2.087 . S
O3241 Mn3235 2.163 . S
O3241 C3251 1.244 . S
O3242 Mn3240 2.089 . S
O3242 C3249 1.256 . S
O3243 Mn3235 2.160 . S
O3243 C3252 1.239 . S
O3244 Mn3237 2.089 . S
O3244 C3252 1.256 . S
O3245 Mn3240 2.251 . S
O3245 C3250 1.241 . S
O3246 Mn3240 2.087 . S
O3246 C3251 1.256 . S
C3247 O3253 1.278 . S
C3247 O3254 1.241 . S
C3248 O3234 1.244 . S
C3248 O3236 1.256 . S
C3249 O3238 1.239 . S
C3249 O3242 1.256 . S
C3250 O3239 1.278 . S
C3250 O3245 1.241 . S
C3251 O3241 1.244 . S
C3251 O3246 1.256 . S
C3252 O3243 1.239 . S
C3252 O3244 1.256 . S
O3253 Mn3235 2.221 . S
O3253 Mn3237 2.290 . S
O3253 C3247 1.278 . S
O3254 Mn3237 2.251 . S
O3254 C3247 1.241 . S
O3255 Mn3256 2.163 1_556 S
O3255 C3269 1.244 . S
Mn3256 O3255 2.163 1_554 S
Mn3256 O3259 2.160 . S
Mn3256 O3260 2.221 1_554 S
Mn3256 O3262 2.163 . S
Mn3256 O3264 2.160 . S
Mn3256 O3274 2.221 . S
O3257 Mn3258 2.087 . S
O3257 C3269 1.256 1_554 S
Mn3258 O3257 2.087 . S
Mn3258 O3265 2.089 . S
Mn3258 O3274 2.290 . S
Mn3258 O3275 2.251 . S
O3259 Mn3256 2.160 . S
O3259 C3270 1.239 . S
O3260 Mn3256 2.221 1_556 S
O3260 Mn3261 2.290 . S
O3260 C3271 1.278 . S
Mn3261 O3260 2.290 . S
Mn3261 O3263 2.089 1_556 S
Mn3261 O3266 2.251 . S
Mn3261 O3267 2.087 1_556 S
O3262 Mn3256 2.163 . S
O3262 C3272 1.244 . S
O3263 Mn3261 2.089 1_554 S
O3263 C3270 1.256 . S
O3264 Mn3256 2.160 . S
O3264 C3273 1.239 . S
O3265 Mn3258 2.089 . S
O3265 C3273 1.256 . S
O3266 Mn3261 2.251 . S
O3266 C3271 1.241 . S
O3267 Mn3261 2.087 1_554 S
O3267 C3272 1.256 . S
C3268 O3274 1.278 . S
C3268 O3275 1.241 . S
C3269 O3255 1.244 . S
C3269 O3257 1.256 1_556 S
C3270 O3259 1.239 . S
C3270 O3263 1.256 . S
C3271 O3260 1.278 . S
C3271 O3266 1.241 . S
C3272 O3262 1.244 . S
C3272 O3267 1.256 . S
C3273 O3264 1.239 . S
C3273 O3265 1.256 . S
O3274 Mn3256 2.221 . S
O3274 Mn3258 2.290 . S
O3274 C3268 1.278 . S
O3275 Mn3258 2.251 . S
O3275 C3268 1.241 . S
O3276 Mn3277 2.163 . S
O3276 C3290 1.244 . S
Mn3277 O3276 2.163 . S
Mn3277 O3280 2.160 . S
Mn3277 O3281 2.221 . S
Mn3277 O3283 2.163 1_556 S
Mn3277 O3285 2.160 . S
Mn3277 O3295 2.221 1_556 S
O3278 Mn3279 2.087 1_556 S
O3278 C3290 1.256 . S
Mn3279 O3278 2.087 1_554 S
Mn3279 O3286 2.089 1_554 S
Mn3279 O3295 2.290 . S
Mn3279 O3296 2.251 . S
O3280 Mn3277 2.160 . S
O3280 C3291 1.239 . S
O3281 Mn3277 2.221 . S
O3281 Mn3282 2.290 . S
O3281 C3292 1.278 . S
Mn3282 O3281 2.290 . S
Mn3282 O3284 2.089 . S
Mn3282 O3287 2.251 . S
Mn3282 O3288 2.087 . S
O3283 Mn3277 2.163 1_554 S
O3283 C3293 1.244 . S
O3284 Mn3282 2.089 . S
O3284 C3291 1.256 . S
O3285 Mn3277 2.160 . S
O3285 C3294 1.239 . S
O3286 Mn3279 2.089 1_556 S
O3286 C3294 1.256 . S
O3287 Mn3282 2.251 . S
O3287 C3292 1.241 . S
O3288 Mn3282 2.087 . S
O3288 C3293 1.256 1_556 S
C3289 O3295 1.278 . S
C3289 O3296 1.241 . S
C3290 O3276 1.244 . S
C3290 O3278 1.256 . S
C3291 O3280 1.239 . S
C3291 O3284 1.256 . S
C3292 O3281 1.278 . S
C3292 O3287 1.241 . S
C3293 O3283 1.244 . S
C3293 O3288 1.256 1_554 S
C3294 O3285 1.239 . S
C3294 O3286 1.256 . S
O3295 Mn3277 2.221 1_554 S
O3295 Mn3279 2.290 . S
O3295 C3289 1.278 . S
O3296 Mn3279 2.251 . S
O3296 C3289 1.241 . S
O3297 Mn3298 2.163 . S
O3297 C3311 1.244 . S
Mn3298 O3297 2.163 . S
Mn3298 O3301 2.160 . S
Mn3298 O3302 2.221 . S
Mn3298 O3304 2.163 . S
Mn3298 O3306 2.160 . S
Mn3298 O3316 2.221 . S
O3299 Mn3300 2.087 . S
O3299 C3311 1.256 . S
Mn3300 O3299 2.087 . S
Mn3300 O3307 2.089 . S
Mn3300 O3316 2.290 . S
Mn3300 O3317 2.251 . S
O3301 Mn3298 2.160 . S
O3301 C3312 1.239 . S
O3302 Mn3298 2.221 . S
O3302 Mn3303 2.290 . S
O3302 C3313 1.278 . S
Mn3303 O3302 2.290 . S
Mn3303 O3305 2.089 . S
Mn3303 O3308 2.251 . S
Mn3303 O3309 2.087 . S
O3304 Mn3298 2.163 . S
O3304 C3314 1.244 . S
O3305 Mn3303 2.089 . S
O3305 C3312 1.256 . S
O3306 Mn3298 2.160 . S
O3306 C3315 1.239 . S
O3307 Mn3300 2.089 . S
O3307 C3315 1.256 . S
O3308 Mn3303 2.251 . S
O3308 C3313 1.241 . S
O3309 Mn3303 2.087 . S
O3309 C3314 1.256 . S
C3310 O3316 1.278 . S
C3310 O3317 1.241 . S
C3311 O3297 1.244 . S
C3311 O3299 1.256 . S
C3312 O3301 1.239 . S
C3312 O3305 1.256 . S
C3313 O3302 1.278 . S
C3313 O3308 1.241 . S
C3314 O3304 1.244 . S
C3314 O3309 1.256 . S
C3315 O3306 1.239 . S
C3315 O3307 1.256 . S
O3316 Mn3298 2.221 . S
O3316 Mn3300 2.290 . S
O3316 C3310 1.278 . S
O3317 Mn3300 2.251 . S
O3317 C3310 1.241 . S
O3318 Mn3319 2.163 . S
O3318 C3332 1.244 . S
Mn3319 O3318 2.163 . S
Mn3319 O3322 2.160 . S
Mn3319 O3323 2.221 . S
Mn3319 O3325 2.163 1_545 S
Mn3319 O3327 2.160 . S
Mn3319 O3337 2.221 . S
O3320 Mn3321 2.087 . S
O3320 C3332 1.256 . S
Mn3321 O3320 2.087 . S
Mn3321 O3328 2.089 . S
Mn3321 O3337 2.290 . S
Mn3321 O3338 2.251 . S
O3322 Mn3319 2.160 . S
O3322 C3333 1.239 1_545 S
O3323 Mn3319 2.221 . S
O3323 Mn3324 2.290 1_545 S
O3323 C3334 1.278 . S
Mn3324 O3323 2.290 1_565 S
Mn3324 O3326 2.089 . S
Mn3324 O3329 2.251 . S
Mn3324 O3330 2.087 . S
O3325 Mn3319 2.163 1_565 S
O3325 C3335 1.244 . S
O3326 Mn3324 2.089 . S
O3326 C3333 1.256 . S
O3327 Mn3319 2.160 . S
O3327 C3336 1.239 . S
O3328 Mn3321 2.089 . S
O3328 C3336 1.256 . S
O3329 Mn3324 2.251 . S
O3329 C3334 1.241 1_565 S
O3330 Mn3324 2.087 . S
O3330 C3335 1.256 . S
C3331 O3337 1.278 . S
C3331 O3338 1.241 . S
C3332 O3318 1.244 . S
C3332 O3320 1.256 . S
C3333 O3322 1.239 1_565 S
C3333 O3326 1.256 . S
C3334 O3323 1.278 . S
C3334 O3329 1.241 1_545 S
C3335 O3325 1.244 . S
C3335 O3330 1.256 . S
C3336 O3327 1.239 . S
C3336 O3328 1.256 . S
O3337 Mn3319 2.221 . S
O3337 Mn3321 2.290 . S
O3337 C3331 1.278 . S
O3338 Mn3321 2.251 . S
O3338 C3331 1.241 . S
O3339 Mn3340 2.163 . S
O3339 C3353 1.244 . S
Mn3340 O3339 2.163 . S
Mn3340 O3343 2.160 . S
Mn3340 O3344 2.221 . S
Mn3340 O3346 2.163 . S
Mn3340 O3348 2.160 . S
Mn3340 O3358 2.221 . S
O3341 Mn3342 2.087 . S
O3341 C3353 1.256 . S
Mn3342 O3341 2.087 . S
Mn3342 O3349 2.089 . S
Mn3342 O3358 2.290 . S
Mn3342 O3359 2.251 . S
O3343 Mn3340 2.160 . S
O3343 C3354 1.239 . S
O3344 Mn3340 2.221 . S
O3344 Mn3345 2.290 . S
O3344 C3355 1.278 . S
Mn3345 O3344 2.290 . S
Mn3345 O3347 2.089 . S
Mn3345 O3350 2.251 . S
Mn3345 O3351 2.087 . S
O3346 Mn3340 2.163 . S
O3346 C3356 1.244 . S
O3347 Mn3345 2.089 . S
O3347 C3354 1.256 . S
O3348 Mn3340 2.160 . S
O3348 C3357 1.239 . S
O3349 Mn3342 2.089 . S
O3349 C3357 1.256 . S
O3350 Mn3345 2.251 . S
O3350 C3355 1.241 . S
O3351 Mn3345 2.087 . S
O3351 C3356 1.256 . S
C3352 O3358 1.278 . S
C3352 O3359 1.241 . S
C3353 O3339 1.244 . S
C3353 O3341 1.256 . S
C3354 O3343 1.239 . S
C3354 O3347 1.256 . S
C3355 O3344 1.278 . S
C3355 O3350 1.241 . S
C3356 O3346 1.244 . S
C3356 O3351 1.256 . S
C3357 O3348 1.239 . S
C3357 O3349 1.256 . S
O3358 Mn3340 2.221 . S
O3358 Mn3342 2.290 . S
O3358 C3352 1.278 . S
O3359 Mn3342 2.251 . S
O3359 C3352 1.241 . S
O3360 Mn3361 2.163 1_556 S
O3360 C3374 1.244 . S
Mn3361 O3360 2.163 1_554 S
Mn3361 O3364 2.160 . S
Mn3361 O3365 2.221 . S
Mn3361 O3367 2.163 . S
Mn3361 O3369 2.160 . S
Mn3361 O3379 2.221 . S
O3362 Mn3363 2.087 . S
O3362 C3374 1.256 . S
Mn3363 O3362 2.087 . S
Mn3363 O3370 2.089 . S
Mn3363 O3379 2.290 1_556 S
Mn3363 O3380 2.251 . S
O3364 Mn3361 2.160 . S
O3364 C3375 1.239 . S
O3365 Mn3361 2.221 . S
O3365 Mn3366 2.290 . S
O3365 C3376 1.278 . S
Mn3366 O3365 2.290 . S
Mn3366 O3368 2.089 . S
Mn3366 O3371 2.251 . S
Mn3366 O3372 2.087 . S
O3367 Mn3361 2.163 . S
O3367 C3377 1.244 . S
O3368 Mn3366 2.089 . S
O3368 C3375 1.256 . S
O3369 Mn3361 2.160 . S
O3369 C3378 1.239 1_554 S
O3370 Mn3363 2.089 . S
O3370 C3378 1.256 . S
O3371 Mn3366 2.251 . S
O3371 C3376 1.241 . S
O3372 Mn3366 2.087 . S
O3372 C3377 1.256 . S
C3373 O3379 1.278 . S
C3373 O3380 1.241 1_554 S
C3374 O3360 1.244 . S
C3374 O3362 1.256 . S
C3375 O3364 1.239 . S
C3375 O3368 1.256 . S
C3376 O3365 1.278 . S
C3376 O3371 1.241 . S
C3377 O3367 1.244 . S
C3377 O3372 1.256 . S
C3378 O3369 1.239 1_556 S
C3378 O3370 1.256 . S
O3379 Mn3361 2.221 . S
O3379 Mn3363 2.290 1_554 S
O3379 C3373 1.278 . S
O3380 Mn3363 2.251 . S
O3380 C3373 1.241 1_556 S
O3381 Mn3382 2.163 . S
O3381 C3395 1.244 . S
Mn3382 O3381 2.163 . S
Mn3382 O3385 2.160 . S
Mn3382 O3386 2.221 . S
Mn3382 O3388 2.163 . S
Mn3382 O3390 2.160 . S
Mn3382 O3400 2.221 . S
O3383 Mn3384 2.087 . S
O3383 C3395 1.256 . S
Mn3384 O3383 2.087 . S
Mn3384 O3391 2.089 . S
Mn3384 O3400 2.290 . S
Mn3384 O3401 2.251 . S
O3385 Mn3382 2.160 . S
O3385 C3396 1.239 . S
O3386 Mn3382 2.221 . S
O3386 Mn3387 2.290 . S
O3386 C3397 1.278 . S
Mn3387 O3386 2.290 . S
Mn3387 O3389 2.089 . S
Mn3387 O3392 2.251 . S
Mn3387 O3393 2.087 . S
O3388 Mn3382 2.163 . S
O3388 C3398 1.244 . S
O3389 Mn3387 2.089 . S
O3389 C3396 1.256 . S
O3390 Mn3382 2.160 . S
O3390 C3399 1.239 . S
O3391 Mn3384 2.089 . S
O3391 C3399 1.256 . S
O3392 Mn3387 2.251 . S
O3392 C3397 1.241 . S
O3393 Mn3387 2.087 . S
O3393 C3398 1.256 . S
C3394 O3400 1.278 . S
C3394 O3401 1.241 . S
C3395 O3381 1.244 . S
C3395 O3383 1.256 . S
C3396 O3385 1.239 . S
C3396 O3389 1.256 . S
C3397 O3386 1.278 . S
C3397 O3392 1.241 . S
C3398 O3388 1.244 . S
C3398 O3393 1.256 . S
C3399 O3390 1.239 . S
C3399 O3391 1.256 . S
O3400 Mn3382 2.221 . S
O3400 Mn3384 2.290 . S
O3400 C3394 1.278 . S
O3401 Mn3384 2.251 . S
O3401 C3394 1.241 . S
O3402 Mn3403 2.163 1_554 S
O3402 C3416 1.244 . S
Mn3403 O3402 2.163 1_556 S
Mn3403 O3406 2.160 . S
Mn3403 O3407 2.221 . S
Mn3403 O3409 2.163 . S
Mn3403 O3411 2.160 . S
Mn3403 O3421 2.221 . S
O3404 Mn3405 2.087 . S
O3404 C3416 1.256 . S
Mn3405 O3404 2.087 . S
Mn3405 O3412 2.089 . S
Mn3405 O3421 2.290 1_554 S
Mn3405 O3422 2.251 . S
O3406 Mn3403 2.160 . S
O3406 C3417 1.239 . S
O3407 Mn3403 2.221 . S
O3407 Mn3408 2.290 . S
O3407 C3418 1.278 . S
Mn3408 O3407 2.290 . S
Mn3408 O3410 2.089 . S
Mn3408 O3413 2.251 . S
Mn3408 O3414 2.087 . S
O3409 Mn3403 2.163 . S
O3409 C3419 1.244 . S
O3410 Mn3408 2.089 . S
O3410 C3417 1.256 . S
O3411 Mn3403 2.160 . S
O3411 C3420 1.239 1_556 S
O3412 Mn3405 2.089 . S
O3412 C3420 1.256 . S
O3413 Mn3408 2.251 . S
O3413 C3418 1.241 . S
O3414 Mn3408 2.087 . S
O3414 C3419 1.256 . S
C3415 O3421 1.278 . S
C3415 O3422 1.241 1_556 S
C3416 O3402 1.244 . S
C3416 O3404 1.256 . S
C3417 O3406 1.239 . S
C3417 O3410 1.256 . S
C3418 O3407 1.278 . S
C3418 O3413 1.241 . S
C3419 O3409 1.244 . S
C3419 O3414 1.256 . S
C3420 O3411 1.239 1_554 S
C3420 O3412 1.256 . S
O3421 Mn3403 2.221 . S
O3421 Mn3405 2.290 1_556 S
O3421 C3415 1.278 . S
O3422 Mn3405 2.251 . S
O3422 C3415 1.241 1_554 S
O3423 Mn3424 2.163 . S
O3423 C3437 1.244 . S
Mn3424 O3423 2.163 . S
Mn3424 O3427 2.160 . S
Mn3424 O3428 2.221 . S
Mn3424 O3430 2.163 1_655 S
Mn3424 O3432 2.160 . S
Mn3424 O3442 2.221 1_655 S
O3425 Mn3426 2.087 1_655 S
O3425 C3437 1.256 . S
Mn3426 O3425 2.087 1_455 S
Mn3426 O3433 2.089 1_455 S
Mn3426 O3442 2.290 . S
Mn3426 O3443 2.251 . S
O3427 Mn3424 2.160 . S
O3427 C3438 1.239 . S
O3428 Mn3424 2.221 . S
O3428 Mn3429 2.290 . S
O3428 C3439 1.278 . S
Mn3429 O3428 2.290 . S
Mn3429 O3431 2.089 . S
Mn3429 O3434 2.251 . S
Mn3429 O3435 2.087 . S
O3430 Mn3424 2.163 1_455 S
O3430 C3440 1.244 . S
O3431 Mn3429 2.089 . S
O3431 C3438 1.256 . S
O3432 Mn3424 2.160 . S
O3432 C3441 1.239 . S
O3433 Mn3426 2.089 1_655 S
O3433 C3441 1.256 . S
O3434 Mn3429 2.251 . S
O3434 C3439 1.241 . S
O3435 Mn3429 2.087 . S
O3435 C3440 1.256 1_655 S
C3436 O3442 1.278 . S
C3436 O3443 1.241 . S
C3437 O3423 1.244 . S
C3437 O3425 1.256 . S
C3438 O3427 1.239 . S
C3438 O3431 1.256 . S
C3439 O3428 1.278 . S
C3439 O3434 1.241 . S
C3440 O3430 1.244 . S
C3440 O3435 1.256 1_455 S
C3441 O3432 1.239 . S
C3441 O3433 1.256 . S
O3442 Mn3424 2.221 1_455 S
O3442 Mn3426 2.290 . S
O3442 C3436 1.278 . S
O3443 Mn3426 2.251 . S
O3443 C3436 1.241 . S
O3444 Mn3445 2.163 . S
O3444 C3458 1.244 . S
Mn3445 O3444 2.163 . S
Mn3445 O3448 2.160 . S
Mn3445 O3449 2.221 . S
Mn3445 O3451 2.163 . S
Mn3445 O3453 2.160 . S
Mn3445 O3463 2.221 . S
O3446 Mn3447 2.087 . S
O3446 C3458 1.256 . S
Mn3447 O3446 2.087 . S
Mn3447 O3454 2.089 . S
Mn3447 O3463 2.290 . S
Mn3447 O3464 2.251 . S
O3448 Mn3445 2.160 . S
O3448 C3459 1.239 . S
O3449 Mn3445 2.221 . S
O3449 Mn3450 2.290 . S
O3449 C3460 1.278 . S
Mn3450 O3449 2.290 . S
Mn3450 O3452 2.089 . S
Mn3450 O3455 2.251 . S
Mn3450 O3456 2.087 . S
O3451 Mn3445 2.163 . S
O3451 C3461 1.244 . S
O3452 Mn3450 2.089 . S
O3452 C3459 1.256 . S
O3453 Mn3445 2.160 . S
O3453 C3462 1.239 . S
O3454 Mn3447 2.089 . S
O3454 C3462 1.256 . S
O3455 Mn3450 2.251 . S
O3455 C3460 1.241 . S
O3456 Mn3450 2.087 . S
O3456 C3461 1.256 . S
C3457 O3463 1.278 . S
C3457 O3464 1.241 . S
C3458 O3444 1.244 . S
C3458 O3446 1.256 . S
C3459 O3448 1.239 . S
C3459 O3452 1.256 . S
C3460 O3449 1.278 . S
C3460 O3455 1.241 . S
C3461 O3451 1.244 . S
C3461 O3456 1.256 . S
C3462 O3453 1.239 . S
C3462 O3454 1.256 . S
O3463 Mn3445 2.221 . S
O3463 Mn3447 2.290 . S
O3463 C3457 1.278 . S
O3464 Mn3447 2.251 . S
O3464 C3457 1.241 . S
O3465 Mn3466 2.163 1_556 S
O3465 C3479 1.244 . S
Mn3466 O3465 2.163 1_554 S
Mn3466 O3469 2.160 . S
Mn3466 O3470 2.221 . S
Mn3466 O3472 2.163 . S
Mn3466 O3474 2.160 . S
Mn3466 O3484 2.221 . S
O3467 Mn3468 2.087 . S
O3467 C3479 1.256 . S
Mn3468 O3467 2.087 . S
Mn3468 O3475 2.089 . S
Mn3468 O3484 2.290 1_556 S
Mn3468 O3485 2.251 . S
O3469 Mn3466 2.160 . S
O3469 C3480 1.239 . S
O3470 Mn3466 2.221 . S
O3470 Mn3471 2.290 . S
O3470 C3481 1.278 . S
Mn3471 O3470 2.290 . S
Mn3471 O3473 2.089 . S
Mn3471 O3476 2.251 . S
Mn3471 O3477 2.087 . S
O3472 Mn3466 2.163 . S
O3472 C3482 1.244 . S
O3473 Mn3471 2.089 . S
O3473 C3480 1.256 . S
O3474 Mn3466 2.160 . S
O3474 C3483 1.239 1_554 S
O3475 Mn3468 2.089 . S
O3475 C3483 1.256 . S
O3476 Mn3471 2.251 . S
O3476 C3481 1.241 . S
O3477 Mn3471 2.087 . S
O3477 C3482 1.256 . S
C3478 O3484 1.278 . S
C3478 O3485 1.241 1_554 S
C3479 O3465 1.244 . S
C3479 O3467 1.256 . S
C3480 O3469 1.239 . S
C3480 O3473 1.256 . S
C3481 O3470 1.278 . S
C3481 O3476 1.241 . S
C3482 O3472 1.244 . S
C3482 O3477 1.256 . S
C3483 O3474 1.239 1_556 S
C3483 O3475 1.256 . S
O3484 Mn3466 2.221 . S
O3484 Mn3468 2.290 1_554 S
O3484 C3478 1.278 . S
O3485 Mn3468 2.251 . S
O3485 C3478 1.241 1_556 S
O3486 Mn3487 2.163 . S
O3486 C3500 1.244 . S
Mn3487 O3486 2.163 . S
Mn3487 O3490 2.160 . S
Mn3487 O3491 2.221 . S
Mn3487 O3493 2.163 . S
Mn3487 O3495 2.160 . S
Mn3487 O3505 2.221 . S
O3488 Mn3489 2.087 . S
O3488 C3500 1.256 . S
Mn3489 O3488 2.087 . S
Mn3489 O3496 2.089 . S
Mn3489 O3505 2.290 . S
Mn3489 O3506 2.251 . S
O3490 Mn3487 2.160 . S
O3490 C3501 1.239 . S
O3491 Mn3487 2.221 . S
O3491 Mn3492 2.290 . S
O3491 C3502 1.278 . S
Mn3492 O3491 2.290 . S
Mn3492 O3494 2.089 . S
Mn3492 O3497 2.251 . S
Mn3492 O3498 2.087 . S
O3493 Mn3487 2.163 . S
O3493 C3503 1.244 . S
O3494 Mn3492 2.089 . S
O3494 C3501 1.256 . S
O3495 Mn3487 2.160 . S
O3495 C3504 1.239 . S
O3496 Mn3489 2.089 . S
O3496 C3504 1.256 . S
O3497 Mn3492 2.251 . S
O3497 C3502 1.241 . S
O3498 Mn3492 2.087 . S
O3498 C3503 1.256 . S
C3499 O3505 1.278 . S
C3499 O3506 1.241 . S
C3500 O3486 1.244 . S
C3500 O3488 1.256 . S
C3501 O3490 1.239 . S
C3501 O3494 1.256 . S
C3502 O3491 1.278 . S
C3502 O3497 1.241 . S
C3503 O3493 1.244 . S
C3503 O3498 1.256 . S
C3504 O3495 1.239 . S
C3504 O3496 1.256 . S
O3505 Mn3487 2.221 . S
O3505 Mn3489 2.290 . S
O3505 C3499 1.278 . S
O3506 Mn3489 2.251 . S
O3506 C3499 1.241 . S
O3507 Mn3508 2.163 . S
O3507 C3521 1.244 . S
Mn3508 O3507 2.163 . S
Mn3508 O3511 2.160 . S
Mn3508 O3512 2.221 . S
Mn3508 O3514 2.163 . S
Mn3508 O3516 2.160 . S
Mn3508 O3526 2.221 . S
O3509 Mn3510 2.087 . S
O3509 C3521 1.256 . S
Mn3510 O3509 2.087 . S
Mn3510 O3517 2.089 . S
Mn3510 O3526 2.290 . S
Mn3510 O3527 2.251 . S
O3511 Mn3508 2.160 . S
O3511 C3522 1.239 . S
O3512 Mn3508 2.221 . S
O3512 Mn3513 2.290 . S
O3512 C3523 1.278 . S
Mn3513 O3512 2.290 . S
Mn3513 O3515 2.089 . S
Mn3513 O3518 2.251 . S
Mn3513 O3519 2.087 . S
O3514 Mn3508 2.163 . S
O3514 C3524 1.244 . S
O3515 Mn3513 2.089 . S
O3515 C3522 1.256 . S
O3516 Mn3508 2.160 . S
O3516 C3525 1.239 . S
O3517 Mn3510 2.089 . S
O3517 C3525 1.256 . S
O3518 Mn3513 2.251 . S
O3518 C3523 1.241 . S
O3519 Mn3513 2.087 . S
O3519 C3524 1.256 . S
C3520 O3526 1.278 . S
C3520 O3527 1.241 . S
C3521 O3507 1.244 . S
C3521 O3509 1.256 . S
C3522 O3511 1.239 . S
C3522 O3515 1.256 . S
C3523 O3512 1.278 . S
C3523 O3518 1.241 . S
C3524 O3514 1.244 . S
C3524 O3519 1.256 . S
C3525 O3516 1.239 . S
C3525 O3517 1.256 . S
O3526 Mn3508 2.221 . S
O3526 Mn3510 2.290 . S
O3526 C3520 1.278 . S
O3527 Mn3510 2.251 . S
O3527 C3520 1.241 . S
O3528 Mn3529 2.163 . S
O3528 C3542 1.244 . S
Mn3529 O3528 2.163 . S
Mn3529 O3532 2.160 . S
Mn3529 O3533 2.221 . S
Mn3529 O3535 2.163 . S
Mn3529 O3537 2.160 . S
Mn3529 O3547 2.221 . S
O3530 Mn3531 2.087 . S
O3530 C3542 1.256 . S
Mn3531 O3530 2.087 . S
Mn3531 O3538 2.089 . S
Mn3531 O3547 2.290 . S
Mn3531 O3548 2.251 . S
O3532 Mn3529 2.160 . S
O3532 C3543 1.239 . S
O3533 Mn3529 2.221 . S
O3533 Mn3534 2.290 . S
O3533 C3544 1.278 . S
Mn3534 O3533 2.290 . S
Mn3534 O3536 2.089 . S
Mn3534 O3539 2.251 . S
Mn3534 O3540 2.087 . S
O3535 Mn3529 2.163 . S
O3535 C3545 1.244 . S
O3536 Mn3534 2.089 . S
O3536 C3543 1.256 . S
O3537 Mn3529 2.160 . S
O3537 C3546 1.239 . S
O3538 Mn3531 2.089 . S
O3538 C3546 1.256 . S
O3539 Mn3534 2.251 . S
O3539 C3544 1.241 . S
O3540 Mn3534 2.087 . S
O3540 C3545 1.256 . S
C3541 O3547 1.278 . S
C3541 O3548 1.241 . S
C3542 O3528 1.244 . S
C3542 O3530 1.256 . S
C3543 O3532 1.239 . S
C3543 O3536 1.256 . S
C3544 O3533 1.278 . S
C3544 O3539 1.241 . S
C3545 O3535 1.244 . S
C3545 O3540 1.256 . S
C3546 O3537 1.239 . S
C3546 O3538 1.256 . S
O3547 Mn3529 2.221 . S
O3547 Mn3531 2.290 . S
O3547 C3541 1.278 . S
O3548 Mn3531 2.251 . S
O3548 C3541 1.241 . S
O3549 Mn3550 2.163 . S
O3549 C3563 1.244 . S
Mn3550 O3549 2.163 . S
Mn3550 O3553 2.160 . S
Mn3550 O3554 2.221 . S
Mn3550 O3556 2.163 . S
Mn3550 O3558 2.160 . S
Mn3550 O3568 2.221 . S
O3551 Mn3552 2.087 . S
O3551 C3563 1.256 . S
Mn3552 O3551 2.087 . S
Mn3552 O3559 2.089 . S
Mn3552 O3568 2.290 . S
Mn3552 O3569 2.251 . S
O3553 Mn3550 2.160 . S
O3553 C3564 1.239 . S
O3554 Mn3550 2.221 . S
O3554 Mn3555 2.290 . S
O3554 C3565 1.278 . S
Mn3555 O3554 2.290 . S
Mn3555 O3557 2.089 . S
Mn3555 O3560 2.251 . S
Mn3555 O3561 2.087 . S
O3556 Mn3550 2.163 . S
O3556 C3566 1.244 . S
O3557 Mn3555 2.089 . S
O3557 C3564 1.256 . S
O3558 Mn3550 2.160 . S
O3558 C3567 1.239 . S
O3559 Mn3552 2.089 . S
O3559 C3567 1.256 . S
O3560 Mn3555 2.251 . S
O3560 C3565 1.241 . S
O3561 Mn3555 2.087 . S
O3561 C3566 1.256 . S
C3562 O3568 1.278 . S
C3562 O3569 1.241 . S
C3563 O3549 1.244 . S
C3563 O3551 1.256 . S
C3564 O3553 1.239 . S
C3564 O3557 1.256 . S
C3565 O3554 1.278 . S
C3565 O3560 1.241 . S
C3566 O3556 1.244 . S
C3566 O3561 1.256 . S
C3567 O3558 1.239 . S
C3567 O3559 1.256 . S
O3568 Mn3550 2.221 . S
O3568 Mn3552 2.290 . S
O3568 C3562 1.278 . S
O3569 Mn3552 2.251 . S
O3569 C3562 1.241 . S
O3570 Mn3571 2.163 . S
O3570 C3584 1.244 . S
Mn3571 O3570 2.163 . S
Mn3571 O3574 2.160 . S
Mn3571 O3575 2.221 . S
Mn3571 O3577 2.163 1_545 S
Mn3571 O3579 2.160 . S
Mn3571 O3589 2.221 1_545 S
O3572 Mn3573 2.087 1_545 S
O3572 C3584 1.256 . S
Mn3573 O3572 2.087 1_565 S
Mn3573 O3580 2.089 1_565 S
Mn3573 O3589 2.290 . S
Mn3573 O3590 2.251 . S
O3574 Mn3571 2.160 . S
O3574 C3585 1.239 . S
O3575 Mn3571 2.221 . S
O3575 Mn3576 2.290 . S
O3575 C3586 1.278 . S
Mn3576 O3575 2.290 . S
Mn3576 O3578 2.089 . S
Mn3576 O3581 2.251 . S
Mn3576 O3582 2.087 . S
O3577 Mn3571 2.163 1_565 S
O3577 C3587 1.244 . S
O3578 Mn3576 2.089 . S
O3578 C3585 1.256 . S
O3579 Mn3571 2.160 . S
O3579 C3588 1.239 . S
O3580 Mn3573 2.089 1_545 S
O3580 C3588 1.256 . S
O3581 Mn3576 2.251 . S
O3581 C3586 1.241 . S
O3582 Mn3576 2.087 . S
O3582 C3587 1.256 1_545 S
C3583 O3589 1.278 . S
C3583 O3590 1.241 . S
C3584 O3570 1.244 . S
C3584 O3572 1.256 . S
C3585 O3574 1.239 . S
C3585 O3578 1.256 . S
C3586 O3575 1.278 . S
C3586 O3581 1.241 . S
C3587 O3577 1.244 . S
C3587 O3582 1.256 1_565 S
C3588 O3579 1.239 . S
C3588 O3580 1.256 . S
O3589 Mn3571 2.221 1_565 S
O3589 Mn3573 2.290 . S
O3589 C3583 1.278 . S
O3590 Mn3573 2.251 . S
O3590 C3583 1.241 . S
O3591 Mn3592 2.163 1_565 S
O3591 C3605 1.244 . S
Mn3592 O3591 2.163 1_545 S
Mn3592 O3595 2.160 . S
Mn3592 O3596 2.221 . S
Mn3592 O3598 2.163 . S
Mn3592 O3600 2.160 . S
Mn3592 O3610 2.221 . S
O3593 Mn3594 2.087 . S
O3593 C3605 1.256 . S
Mn3594 O3593 2.087 . S
Mn3594 O3601 2.089 . S
Mn3594 O3610 2.290 1_565 S
Mn3594 O3611 2.251 . S
O3595 Mn3592 2.160 . S
O3595 C3606 1.239 . S
O3596 Mn3592 2.221 . S
O3596 Mn3597 2.290 . S
O3596 C3607 1.278 . S
Mn3597 O3596 2.290 . S
Mn3597 O3599 2.089 . S
Mn3597 O3602 2.251 . S
Mn3597 O3603 2.087 . S
O3598 Mn3592 2.163 . S
O3598 C3608 1.244 . S
O3599 Mn3597 2.089 . S
O3599 C3606 1.256 . S
O3600 Mn3592 2.160 . S
O3600 C3609 1.239 1_545 S
O3601 Mn3594 2.089 . S
O3601 C3609 1.256 . S
O3602 Mn3597 2.251 . S
O3602 C3607 1.241 . S
O3603 Mn3597 2.087 . S
O3603 C3608 1.256 . S
C3604 O3610 1.278 . S
C3604 O3611 1.241 1_545 S
C3605 O3591 1.244 . S
C3605 O3593 1.256 . S
C3606 O3595 1.239 . S
C3606 O3599 1.256 . S
C3607 O3596 1.278 . S
C3607 O3602 1.241 . S
C3608 O3598 1.244 . S
C3608 O3603 1.256 . S
C3609 O3600 1.239 1_565 S
C3609 O3601 1.256 . S
O3610 Mn3592 2.221 . S
O3610 Mn3594 2.290 1_545 S
O3610 C3604 1.278 . S
O3611 Mn3594 2.251 . S
O3611 C3604 1.241 1_565 S
O3612 Mn3613 2.163 . S
O3612 C3626 1.244 . S
Mn3613 O3612 2.163 . S
Mn3613 O3616 2.160 . S
Mn3613 O3617 2.221 . S
Mn3613 O3619 2.163 . S
Mn3613 O3621 2.160 . S
Mn3613 O3631 2.221 . S
O3614 Mn3615 2.087 . S
O3614 C3626 1.256 . S
Mn3615 O3614 2.087 . S
Mn3615 O3622 2.089 . S
Mn3615 O3631 2.290 . S
Mn3615 O3632 2.251 . S
O3616 Mn3613 2.160 . S
O3616 C3627 1.239 . S
O3617 Mn3613 2.221 . S
O3617 Mn3618 2.290 . S
O3617 C3628 1.278 . S
Mn3618 O3617 2.290 . S
Mn3618 O3620 2.089 . S
Mn3618 O3623 2.251 . S
Mn3618 O3624 2.087 . S
O3619 Mn3613 2.163 . S
O3619 C3629 1.244 . S
O3620 Mn3618 2.089 . S
O3620 C3627 1.256 . S
O3621 Mn3613 2.160 . S
O3621 C3630 1.239 . S
O3622 Mn3615 2.089 . S
O3622 C3630 1.256 . S
O3623 Mn3618 2.251 . S
O3623 C3628 1.241 . S
O3624 Mn3618 2.087 . S
O3624 C3629 1.256 . S
C3625 O3631 1.278 . S
C3625 O3632 1.241 . S
C3626 O3612 1.244 . S
C3626 O3614 1.256 . S
C3627 O3616 1.239 . S
C3627 O3620 1.256 . S
C3628 O3617 1.278 . S
C3628 O3623 1.241 . S
C3629 O3619 1.244 . S
C3629 O3624 1.256 . S
C3630 O3621 1.239 . S
C3630 O3622 1.256 . S
O3631 Mn3613 2.221 . S
O3631 Mn3615 2.290 . S
O3631 C3625 1.278 . S
O3632 Mn3615 2.251 . S
O3632 C3625 1.241 . S
O3633 Mn3634 2.163 . S
O3633 C3647 1.244 . S
Mn3634 O3633 2.163 . S
Mn3634 O3637 2.160 . S
Mn3634 O3638 2.221 . S
Mn3634 O3640 2.163 1_655 S
Mn3634 O3642 2.160 . S
Mn3634 O3652 2.221 1_655 S
O3635 Mn3636 2.087 1_655 S
O3635 C3647 1.256 . S
Mn3636 O3635 2.087 1_455 S
Mn3636 O3643 2.089 1_455 S
Mn3636 O3652 2.290 . S
Mn3636 O3653 2.251 . S
O3637 Mn3634 2.160 . S
O3637 C3648 1.239 . S
O3638 Mn3634 2.221 . S
O3638 Mn3639 2.290 . S
O3638 C3649 1.278 . S
Mn3639 O3638 2.290 . S
Mn3639 O3641 2.089 . S
Mn3639 O3644 2.251 . S
Mn3639 O3645 2.087 . S
O3640 Mn3634 2.163 1_455 S
O3640 C3650 1.244 . S
O3641 Mn3639 2.089 . S
O3641 C3648 1.256 . S
O3642 Mn3634 2.160 . S
O3642 C3651 1.239 . S
O3643 Mn3636 2.089 1_655 S
O3643 C3651 1.256 . S
O3644 Mn3639 2.251 . S
O3644 C3649 1.241 . S
O3645 Mn3639 2.087 . S
O3645 C3650 1.256 1_655 S
C3646 O3652 1.278 . S
C3646 O3653 1.241 . S
C3647 O3633 1.244 . S
C3647 O3635 1.256 . S
C3648 O3637 1.239 . S
C3648 O3641 1.256 . S
C3649 O3638 1.278 . S
C3649 O3644 1.241 . S
C3650 O3640 1.244 . S
C3650 O3645 1.256 1_455 S
C3651 O3642 1.239 . S
C3651 O3643 1.256 . S
O3652 Mn3634 2.221 1_455 S
O3652 Mn3636 2.290 . S
O3652 C3646 1.278 . S
O3653 Mn3636 2.251 . S
O3653 C3646 1.241 . S
O3654 Mn3655 2.163 . S
O3654 C3668 1.244 . S
Mn3655 O3654 2.163 . S
Mn3655 O3658 2.160 . S
Mn3655 O3659 2.221 . S
Mn3655 O3661 2.163 . S
Mn3655 O3663 2.160 . S
Mn3655 O3673 2.221 . S
O3656 Mn3657 2.087 . S
O3656 C3668 1.256 . S
Mn3657 O3656 2.087 . S
Mn3657 O3664 2.089 . S
Mn3657 O3673 2.290 . S
Mn3657 O3674 2.251 . S
O3658 Mn3655 2.160 . S
O3658 C3669 1.239 . S
O3659 Mn3655 2.221 . S
O3659 Mn3660 2.290 . S
O3659 C3670 1.278 . S
Mn3660 O3659 2.290 . S
Mn3660 O3662 2.089 . S
Mn3660 O3665 2.251 . S
Mn3660 O3666 2.087 . S
O3661 Mn3655 2.163 . S
O3661 C3671 1.244 . S
O3662 Mn3660 2.089 . S
O3662 C3669 1.256 . S
O3663 Mn3655 2.160 . S
O3663 C3672 1.239 . S
O3664 Mn3657 2.089 . S
O3664 C3672 1.256 . S
O3665 Mn3660 2.251 . S
O3665 C3670 1.241 . S
O3666 Mn3660 2.087 . S
O3666 C3671 1.256 . S
C3667 O3673 1.278 . S
C3667 O3674 1.241 . S
C3668 O3654 1.244 . S
C3668 O3656 1.256 . S
C3669 O3658 1.239 . S
C3669 O3662 1.256 . S
C3670 O3659 1.278 . S
C3670 O3665 1.241 . S
C3671 O3661 1.244 . S
C3671 O3666 1.256 . S
C3672 O3663 1.239 . S
C3672 O3664 1.256 . S
O3673 Mn3655 2.221 . S
O3673 Mn3657 2.290 . S
O3673 C3667 1.278 . S
O3674 Mn3657 2.251 . S
O3674 C3667 1.241 . S
O3675 Mn3676 2.163 1_565 S
O3675 C3689 1.244 . S
Mn3676 O3675 2.163 1_545 S
Mn3676 O3679 2.160 . S
Mn3676 O3680 2.221 . S
Mn3676 O3682 2.163 . S
Mn3676 O3684 2.160 . S
Mn3676 O3694 2.221 . S
O3677 Mn3678 2.087 . S
O3677 C3689 1.256 . S
Mn3678 O3677 2.087 . S
Mn3678 O3685 2.089 . S
Mn3678 O3694 2.290 1_565 S
Mn3678 O3695 2.251 . S
O3679 Mn3676 2.160 . S
O3679 C3690 1.239 . S
O3680 Mn3676 2.221 . S
O3680 Mn3681 2.290 . S
O3680 C3691 1.278 . S
Mn3681 O3680 2.290 . S
Mn3681 O3683 2.089 . S
Mn3681 O3686 2.251 . S
Mn3681 O3687 2.087 . S
O3682 Mn3676 2.163 . S
O3682 C3692 1.244 . S
O3683 Mn3681 2.089 . S
O3683 C3690 1.256 . S
O3684 Mn3676 2.160 . S
O3684 C3693 1.239 1_545 S
O3685 Mn3678 2.089 . S
O3685 C3693 1.256 . S
O3686 Mn3681 2.251 . S
O3686 C3691 1.241 . S
O3687 Mn3681 2.087 . S
O3687 C3692 1.256 . S
C3688 O3694 1.278 . S
C3688 O3695 1.241 1_545 S
C3689 O3675 1.244 . S
C3689 O3677 1.256 . S
C3690 O3679 1.239 . S
C3690 O3683 1.256 . S
C3691 O3680 1.278 . S
C3691 O3686 1.241 . S
C3692 O3682 1.244 . S
C3692 O3687 1.256 . S
C3693 O3684 1.239 1_565 S
C3693 O3685 1.256 . S
O3694 Mn3676 2.221 . S
O3694 Mn3678 2.290 1_545 S
O3694 C3688 1.278 . S
O3695 Mn3678 2.251 . S
O3695 C3688 1.241 1_565 S
O3696 Mn3697 2.163 . S
O3696 C3710 1.244 . S
Mn3697 O3696 2.163 . S
Mn3697 O3700 2.160 . S
Mn3697 O3701 2.221 . S
Mn3697 O3703 2.163 . S
Mn3697 O3705 2.160 . S
Mn3697 O3715 2.221 . S
O3698 Mn3699 2.087 . S
O3698 C3710 1.256 . S
Mn3699 O3698 2.087 . S
Mn3699 O3706 2.089 . S
Mn3699 O3715 2.290 . S
Mn3699 O3716 2.251 . S
O3700 Mn3697 2.160 . S
O3700 C3711 1.239 . S
O3701 Mn3697 2.221 . S
O3701 Mn3702 2.290 . S
O3701 C3712 1.278 . S
Mn3702 O3701 2.290 . S
Mn3702 O3704 2.089 . S
Mn3702 O3707 2.251 . S
Mn3702 O3708 2.087 . S
O3703 Mn3697 2.163 . S
O3703 C3713 1.244 . S
O3704 Mn3702 2.089 . S
O3704 C3711 1.256 . S
O3705 Mn3697 2.160 . S
O3705 C3714 1.239 . S
O3706 Mn3699 2.089 . S
O3706 C3714 1.256 . S
O3707 Mn3702 2.251 . S
O3707 C3712 1.241 . S
O3708 Mn3702 2.087 . S
O3708 C3713 1.256 . S
C3709 O3715 1.278 . S
C3709 O3716 1.241 . S
C3710 O3696 1.244 . S
C3710 O3698 1.256 . S
C3711 O3700 1.239 . S
C3711 O3704 1.256 . S
C3712 O3701 1.278 . S
C3712 O3707 1.241 . S
C3713 O3703 1.244 . S
C3713 O3708 1.256 . S
C3714 O3705 1.239 . S
C3714 O3706 1.256 . S
O3715 Mn3697 2.221 . S
O3715 Mn3699 2.290 . S
O3715 C3709 1.278 . S
O3716 Mn3699 2.251 . S
O3716 C3709 1.241 . S
O3717 Mn3718 2.163 1_655 S
O3717 C3731 1.244 . S
Mn3718 O3717 2.163 1_455 S
Mn3718 O3721 2.160 . S
Mn3718 O3722 2.221 . S
Mn3718 O3724 2.163 . S
Mn3718 O3726 2.160 . S
Mn3718 O3736 2.221 . S
O3719 Mn3720 2.087 . S
O3719 C3731 1.256 . S
Mn3720 O3719 2.087 . S
Mn3720 O3727 2.089 . S
Mn3720 O3736 2.290 1_655 S
Mn3720 O3737 2.251 . S
O3721 Mn3718 2.160 . S
O3721 C3732 1.239 . S
O3722 Mn3718 2.221 . S
O3722 Mn3723 2.290 . S
O3722 C3733 1.278 . S
Mn3723 O3722 2.290 . S
Mn3723 O3725 2.089 . S
Mn3723 O3728 2.251 . S
Mn3723 O3729 2.087 . S
O3724 Mn3718 2.163 . S
O3724 C3734 1.244 . S
O3725 Mn3723 2.089 . S
O3725 C3732 1.256 . S
O3726 Mn3718 2.160 . S
O3726 C3735 1.239 1_455 S
O3727 Mn3720 2.089 . S
O3727 C3735 1.256 . S
O3728 Mn3723 2.251 . S
O3728 C3733 1.241 . S
O3729 Mn3723 2.087 . S
O3729 C3734 1.256 . S
C3730 O3736 1.278 . S
C3730 O3737 1.241 1_455 S
C3731 O3717 1.244 . S
C3731 O3719 1.256 . S
C3732 O3721 1.239 . S
C3732 O3725 1.256 . S
C3733 O3722 1.278 . S
C3733 O3728 1.241 . S
C3734 O3724 1.244 . S
C3734 O3729 1.256 . S
C3735 O3726 1.239 1_655 S
C3735 O3727 1.256 . S
O3736 Mn3718 2.221 . S
O3736 Mn3720 2.290 1_455 S
O3736 C3730 1.278 . S
O3737 Mn3720 2.251 . S
O3737 C3730 1.241 1_655 S
O3738 Mn3739 2.163 . S
O3738 C3752 1.244 . S
Mn3739 O3738 2.163 . S
Mn3739 O3742 2.160 . S
Mn3739 O3743 2.221 . S
Mn3739 O3745 2.163 . S
Mn3739 O3747 2.160 . S
Mn3739 O3757 2.221 . S
O3740 Mn3741 2.087 . S
O3740 C3752 1.256 . S
Mn3741 O3740 2.087 . S
Mn3741 O3748 2.089 . S
Mn3741 O3757 2.290 . S
Mn3741 O3758 2.251 . S
O3742 Mn3739 2.160 . S
O3742 C3753 1.239 . S
O3743 Mn3739 2.221 . S
O3743 Mn3744 2.290 . S
O3743 C3754 1.278 . S
Mn3744 O3743 2.290 . S
Mn3744 O3746 2.089 . S
Mn3744 O3749 2.251 . S
Mn3744 O3750 2.087 . S
O3745 Mn3739 2.163 . S
O3745 C3755 1.244 . S
O3746 Mn3744 2.089 . S
O3746 C3753 1.256 . S
O3747 Mn3739 2.160 . S
O3747 C3756 1.239 . S
O3748 Mn3741 2.089 . S
O3748 C3756 1.256 . S
O3749 Mn3744 2.251 . S
O3749 C3754 1.241 . S
O3750 Mn3744 2.087 . S
O3750 C3755 1.256 . S
C3751 O3757 1.278 . S
C3751 O3758 1.241 . S
C3752 O3738 1.244 . S
C3752 O3740 1.256 . S
C3753 O3742 1.239 . S
C3753 O3746 1.256 . S
C3754 O3743 1.278 . S
C3754 O3749 1.241 . S
C3755 O3745 1.244 . S
C3755 O3750 1.256 . S
C3756 O3747 1.239 . S
C3756 O3748 1.256 . S
O3757 Mn3739 2.221 . S
O3757 Mn3741 2.290 . S
O3757 C3751 1.278 . S
O3758 Mn3741 2.251 . S
O3758 C3751 1.241 . S
O3759 Mn3760 2.163 . S
O3759 C3773 1.244 . S
Mn3760 O3759 2.163 . S
Mn3760 O3763 2.160 . S
Mn3760 O3764 2.221 . S
Mn3760 O3766 2.163 1_556 S
Mn3760 O3768 2.160 . S
Mn3760 O3778 2.221 1_556 S
O3761 Mn3762 2.087 1_556 S
O3761 C3773 1.256 . S
Mn3762 O3761 2.087 1_554 S
Mn3762 O3769 2.089 1_554 S
Mn3762 O3778 2.290 . S
Mn3762 O3779 2.251 . S
O3763 Mn3760 2.160 . S
O3763 C3774 1.239 . S
O3764 Mn3760 2.221 . S
O3764 Mn3765 2.290 . S
O3764 C3775 1.278 . S
Mn3765 O3764 2.290 . S
Mn3765 O3767 2.089 . S
Mn3765 O3770 2.251 . S
Mn3765 O3771 2.087 . S
O3766 Mn3760 2.163 1_554 S
O3766 C3776 1.244 . S
O3767 Mn3765 2.089 . S
O3767 C3774 1.256 . S
O3768 Mn3760 2.160 . S
O3768 C3777 1.239 . S
O3769 Mn3762 2.089 1_556 S
O3769 C3777 1.256 . S
O3770 Mn3765 2.251 . S
O3770 C3775 1.241 . S
O3771 Mn3765 2.087 . S
O3771 C3776 1.256 1_556 S
C3772 O3778 1.278 . S
C3772 O3779 1.241 . S
C3773 O3759 1.244 . S
C3773 O3761 1.256 . S
C3774 O3763 1.239 . S
C3774 O3767 1.256 . S
C3775 O3764 1.278 . S
C3775 O3770 1.241 . S
C3776 O3766 1.244 . S
C3776 O3771 1.256 1_554 S
C3777 O3768 1.239 . S
C3777 O3769 1.256 . S
O3778 Mn3760 2.221 1_554 S
O3778 Mn3762 2.290 . S
O3778 C3772 1.278 . S
O3779 Mn3762 2.251 . S
O3779 C3772 1.241 . S
O3780 Mn3781 2.163 . S
O3780 C3794 1.244 . S
Mn3781 O3780 2.163 . S
Mn3781 O3784 2.160 . S
Mn3781 O3785 2.221 . S
Mn3781 O3787 2.163 1_554 S
Mn3781 O3789 2.160 . S
Mn3781 O3799 2.221 1_554 S
O3782 Mn3783 2.087 1_554 S
O3782 C3794 1.256 . S
Mn3783 O3782 2.087 1_556 S
Mn3783 O3790 2.089 1_556 S
Mn3783 O3799 2.290 . S
Mn3783 O3800 2.251 . S
O3784 Mn3781 2.160 . S
O3784 C3795 1.239 . S
O3785 Mn3781 2.221 . S
O3785 Mn3786 2.290 . S
O3785 C3796 1.278 . S
Mn3786 O3785 2.290 . S
Mn3786 O3788 2.089 . S
Mn3786 O3791 2.251 . S
Mn3786 O3792 2.087 . S
O3787 Mn3781 2.163 1_556 S
O3787 C3797 1.244 . S
O3788 Mn3786 2.089 . S
O3788 C3795 1.256 . S
O3789 Mn3781 2.160 . S
O3789 C3798 1.239 . S
O3790 Mn3783 2.089 1_554 S
O3790 C3798 1.256 . S
O3791 Mn3786 2.251 . S
O3791 C3796 1.241 . S
O3792 Mn3786 2.087 . S
O3792 C3797 1.256 1_554 S
C3793 O3799 1.278 . S
C3793 O3800 1.241 . S
C3794 O3780 1.244 . S
C3794 O3782 1.256 . S
C3795 O3784 1.239 . S
C3795 O3788 1.256 . S
C3796 O3785 1.278 . S
C3796 O3791 1.241 . S
C3797 O3787 1.244 . S
C3797 O3792 1.256 1_556 S
C3798 O3789 1.239 . S
C3798 O3790 1.256 . S
O3799 Mn3781 2.221 1_556 S
O3799 Mn3783 2.290 . S
O3799 C3793 1.278 . S
O3800 Mn3783 2.251 . S
O3800 C3793 1.241 . S
O3801 Mn3802 2.163 . S
O3801 C3815 1.244 . S
Mn3802 O3801 2.163 . S
Mn3802 O3805 2.160 . S
Mn3802 O3806 2.221 . S
Mn3802 O3808 2.163 . S
Mn3802 O3810 2.160 . S
Mn3802 O3820 2.221 . S
O3803 Mn3804 2.087 . S
O3803 C3815 1.256 . S
Mn3804 O3803 2.087 . S
Mn3804 O3811 2.089 . S
Mn3804 O3820 2.290 . S
Mn3804 O3821 2.251 . S
O3805 Mn3802 2.160 . S
O3805 C3816 1.239 . S
O3806 Mn3802 2.221 . S
O3806 Mn3807 2.290 . S
O3806 C3817 1.278 . S
Mn3807 O3806 2.290 . S
Mn3807 O3809 2.089 . S
Mn3807 O3812 2.251 . S
Mn3807 O3813 2.087 . S
O3808 Mn3802 2.163 . S
O3808 C3818 1.244 . S
O3809 Mn3807 2.089 . S
O3809 C3816 1.256 . S
O3810 Mn3802 2.160 . S
O3810 C3819 1.239 . S
O3811 Mn3804 2.089 . S
O3811 C3819 1.256 . S
O3812 Mn3807 2.251 . S
O3812 C3817 1.241 . S
O3813 Mn3807 2.087 . S
O3813 C3818 1.256 . S
C3814 O3820 1.278 . S
C3814 O3821 1.241 . S
C3815 O3801 1.244 . S
C3815 O3803 1.256 . S
C3816 O3805 1.239 . S
C3816 O3809 1.256 . S
C3817 O3806 1.278 . S
C3817 O3812 1.241 . S
C3818 O3808 1.244 . S
C3818 O3813 1.256 . S
C3819 O3810 1.239 . S
C3819 O3811 1.256 . S
O3820 Mn3802 2.221 . S
O3820 Mn3804 2.290 . S
O3820 C3814 1.278 . S
O3821 Mn3804 2.251 . S
O3821 C3814 1.241 . S
O3822 Mn3823 2.163 1_545 S
O3822 C3836 1.244 . S
Mn3823 O3822 2.163 1_565 S
Mn3823 O3826 2.160 . S
Mn3823 O3827 2.221 . S
Mn3823 O3829 2.163 . S
Mn3823 O3831 2.160 . S
Mn3823 O3841 2.221 . S
O3824 Mn3825 2.087 . S
O3824 C3836 1.256 . S
Mn3825 O3824 2.087 . S
Mn3825 O3832 2.089 . S
Mn3825 O3841 2.290 1_545 S
Mn3825 O3842 2.251 . S
O3826 Mn3823 2.160 . S
O3826 C3837 1.239 . S
O3827 Mn3823 2.221 . S
O3827 Mn3828 2.290 . S
O3827 C3838 1.278 . S
Mn3828 O3827 2.290 . S
Mn3828 O3830 2.089 . S
Mn3828 O3833 2.251 . S
Mn3828 O3834 2.087 . S
O3829 Mn3823 2.163 . S
O3829 C3839 1.244 . S
O3830 Mn3828 2.089 . S
O3830 C3837 1.256 . S
O3831 Mn3823 2.160 . S
O3831 C3840 1.239 1_565 S
O3832 Mn3825 2.089 . S
O3832 C3840 1.256 . S
O3833 Mn3828 2.251 . S
O3833 C3838 1.241 . S
O3834 Mn3828 2.087 . S
O3834 C3839 1.256 . S
C3835 O3841 1.278 . S
C3835 O3842 1.241 1_565 S
C3836 O3822 1.244 . S
C3836 O3824 1.256 . S
C3837 O3826 1.239 . S
C3837 O3830 1.256 . S
C3838 O3827 1.278 . S
C3838 O3833 1.241 . S
C3839 O3829 1.244 . S
C3839 O3834 1.256 . S
C3840 O3831 1.239 1_545 S
C3840 O3832 1.256 . S
O3841 Mn3823 2.221 . S
O3841 Mn3825 2.290 1_565 S
O3841 C3835 1.278 . S
O3842 Mn3825 2.251 . S
O3842 C3835 1.241 1_545 S
O3843 Mn3844 2.163 . S
O3843 C3857 1.244 . S
Mn3844 O3843 2.163 . S
Mn3844 O3847 2.160 . S
Mn3844 O3848 2.221 . S
Mn3844 O3850 2.163 . S
Mn3844 O3852 2.160 . S
Mn3844 O3862 2.221 . S
O3845 Mn3846 2.087 . S
O3845 C3857 1.256 . S
Mn3846 O3845 2.087 . S
Mn3846 O3853 2.089 . S
Mn3846 O3862 2.290 . S
Mn3846 O3863 2.251 . S
O3847 Mn3844 2.160 . S
O3847 C3858 1.239 . S
O3848 Mn3844 2.221 . S
O3848 Mn3849 2.290 . S
O3848 C3859 1.278 . S
Mn3849 O3848 2.290 . S
Mn3849 O3851 2.089 . S
Mn3849 O3854 2.251 . S
Mn3849 O3855 2.087 . S
O3850 Mn3844 2.163 . S
O3850 C3860 1.244 . S
O3851 Mn3849 2.089 . S
O3851 C3858 1.256 . S
O3852 Mn3844 2.160 . S
O3852 C3861 1.239 . S
O3853 Mn3846 2.089 . S
O3853 C3861 1.256 . S
O3854 Mn3849 2.251 . S
O3854 C3859 1.241 . S
O3855 Mn3849 2.087 . S
O3855 C3860 1.256 . S
C3856 O3862 1.278 . S
C3856 O3863 1.241 . S
C3857 O3843 1.244 . S
C3857 O3845 1.256 . S
C3858 O3847 1.239 . S
C3858 O3851 1.256 . S
C3859 O3848 1.278 . S
C3859 O3854 1.241 . S
C3860 O3850 1.244 . S
C3860 O3855 1.256 . S
C3861 O3852 1.239 . S
C3861 O3853 1.256 . S
O3862 Mn3844 2.221 . S
O3862 Mn3846 2.290 . S
O3862 C3856 1.278 . S
O3863 Mn3846 2.251 . S
O3863 C3856 1.241 . S
O3864 Mn3865 2.163 1_554 S
O3864 C3878 1.244 . S
Mn3865 O3864 2.163 1_556 S
Mn3865 O3868 2.160 . S
Mn3865 O3869 2.221 . S
Mn3865 O3871 2.163 . S
Mn3865 O3873 2.160 . S
Mn3865 O3883 2.221 . S
O3866 Mn3867 2.087 . S
O3866 C3878 1.256 . S
Mn3867 O3866 2.087 . S
Mn3867 O3874 2.089 . S
Mn3867 O3883 2.290 1_554 S
Mn3867 O3884 2.251 . S
O3868 Mn3865 2.160 . S
O3868 C3879 1.239 . S
O3869 Mn3865 2.221 . S
O3869 Mn3870 2.290 . S
O3869 C3880 1.278 . S
Mn3870 O3869 2.290 . S
Mn3870 O3872 2.089 . S
Mn3870 O3875 2.251 . S
Mn3870 O3876 2.087 . S
O3871 Mn3865 2.163 . S
O3871 C3881 1.244 . S
O3872 Mn3870 2.089 . S
O3872 C3879 1.256 . S
O3873 Mn3865 2.160 . S
O3873 C3882 1.239 1_556 S
O3874 Mn3867 2.089 . S
O3874 C3882 1.256 . S
O3875 Mn3870 2.251 . S
O3875 C3880 1.241 . S
O3876 Mn3870 2.087 . S
O3876 C3881 1.256 . S
C3877 O3883 1.278 . S
C3877 O3884 1.241 1_556 S
C3878 O3864 1.244 . S
C3878 O3866 1.256 . S
C3879 O3868 1.239 . S
C3879 O3872 1.256 . S
C3880 O3869 1.278 . S
C3880 O3875 1.241 . S
C3881 O3871 1.244 . S
C3881 O3876 1.256 . S
C3882 O3873 1.239 1_554 S
C3882 O3874 1.256 . S
O3883 Mn3865 2.221 . S
O3883 Mn3867 2.290 1_556 S
O3883 C3877 1.278 . S
O3884 Mn3867 2.251 . S
O3884 C3877 1.241 1_554 S
O3885 Mn3886 2.163 . S
O3885 C3899 1.244 . S
Mn3886 O3885 2.163 . S
Mn3886 O3889 2.160 . S
Mn3886 O3890 2.221 . S
Mn3886 O3892 2.163 . S
Mn3886 O3894 2.160 . S
Mn3886 O3904 2.221 . S
O3887 Mn3888 2.087 . S
O3887 C3899 1.256 . S
Mn3888 O3887 2.087 . S
Mn3888 O3895 2.089 . S
Mn3888 O3904 2.290 . S
Mn3888 O3905 2.251 . S
O3889 Mn3886 2.160 . S
O3889 C3900 1.239 . S
O3890 Mn3886 2.221 . S
O3890 Mn3891 2.290 . S
O3890 C3901 1.278 . S
Mn3891 O3890 2.290 . S
Mn3891 O3893 2.089 . S
Mn3891 O3896 2.251 . S
Mn3891 O3897 2.087 . S
O3892 Mn3886 2.163 . S
O3892 C3902 1.244 . S
O3893 Mn3891 2.089 . S
O3893 C3900 1.256 . S
O3894 Mn3886 2.160 . S
O3894 C3903 1.239 . S
O3895 Mn3888 2.089 . S
O3895 C3903 1.256 . S
O3896 Mn3891 2.251 . S
O3896 C3901 1.241 . S
O3897 Mn3891 2.087 . S
O3897 C3902 1.256 . S
C3898 O3904 1.278 . S
C3898 O3905 1.241 . S
C3899 O3885 1.244 . S
C3899 O3887 1.256 . S
C3900 O3889 1.239 . S
C3900 O3893 1.256 . S
C3901 O3890 1.278 . S
C3901 O3896 1.241 . S
C3902 O3892 1.244 . S
C3902 O3897 1.256 . S
C3903 O3894 1.239 . S
C3903 O3895 1.256 . S
O3904 Mn3886 2.221 . S
O3904 Mn3888 2.290 . S
O3904 C3898 1.278 . S
O3905 Mn3888 2.251 . S
O3905 C3898 1.241 . S
O3906 Mn3907 2.163 1_556 S
O3906 C3920 1.244 . S
Mn3907 O3906 2.163 1_554 S
Mn3907 O3910 2.160 . S
Mn3907 O3911 2.221 . S
Mn3907 O3913 2.163 . S
Mn3907 O3915 2.160 . S
Mn3907 O3925 2.221 . S
O3908 Mn3909 2.087 . S
O3908 C3920 1.256 . S
Mn3909 O3908 2.087 . S
Mn3909 O3916 2.089 . S
Mn3909 O3925 2.290 1_556 S
Mn3909 O3926 2.251 . S
O3910 Mn3907 2.160 . S
O3910 C3921 1.239 . S
O3911 Mn3907 2.221 . S
O3911 Mn3912 2.290 . S
O3911 C3922 1.278 . S
Mn3912 O3911 2.290 . S
Mn3912 O3914 2.089 . S
Mn3912 O3917 2.251 . S
Mn3912 O3918 2.087 . S
O3913 Mn3907 2.163 . S
O3913 C3923 1.244 . S
O3914 Mn3912 2.089 . S
O3914 C3921 1.256 . S
O3915 Mn3907 2.160 . S
O3915 C3924 1.239 1_554 S
O3916 Mn3909 2.089 . S
O3916 C3924 1.256 . S
O3917 Mn3912 2.251 . S
O3917 C3922 1.241 . S
O3918 Mn3912 2.087 . S
O3918 C3923 1.256 . S
C3919 O3925 1.278 . S
C3919 O3926 1.241 1_554 S
C3920 O3906 1.244 . S
C3920 O3908 1.256 . S
C3921 O3910 1.239 . S
C3921 O3914 1.256 . S
C3922 O3911 1.278 . S
C3922 O3917 1.241 . S
C3923 O3913 1.244 . S
C3923 O3918 1.256 . S
C3924 O3915 1.239 1_556 S
C3924 O3916 1.256 . S
O3925 Mn3907 2.221 . S
O3925 Mn3909 2.290 1_554 S
O3925 C3919 1.278 . S
O3926 Mn3909 2.251 . S
O3926 C3919 1.241 1_556 S
O3927 Mn3928 2.163 . S
O3927 C3941 1.244 . S
Mn3928 O3927 2.163 . S
Mn3928 O3931 2.160 . S
Mn3928 O3932 2.221 . S
Mn3928 O3934 2.163 1_455 S
Mn3928 O3936 2.160 . S
Mn3928 O3946 2.221 1_455 S
O3929 Mn3930 2.087 1_455 S
O3929 C3941 1.256 . S
Mn3930 O3929 2.087 1_655 S
Mn3930 O3937 2.089 1_655 S
Mn3930 O3946 2.290 . S
Mn3930 O3947 2.251 . S
O3931 Mn3928 2.160 . S
O3931 C3942 1.239 . S
O3932 Mn3928 2.221 . S
O3932 Mn3933 2.290 . S
O3932 C3943 1.278 . S
Mn3933 O3932 2.290 . S
Mn3933 O3935 2.089 . S
Mn3933 O3938 2.251 . S
Mn3933 O3939 2.087 . S
O3934 Mn3928 2.163 1_655 S
O3934 C3944 1.244 . S
O3935 Mn3933 2.089 . S
O3935 C3942 1.256 . S
O3936 Mn3928 2.160 . S
O3936 C3945 1.239 . S
O3937 Mn3930 2.089 1_455 S
O3937 C3945 1.256 . S
O3938 Mn3933 2.251 . S
O3938 C3943 1.241 . S
O3939 Mn3933 2.087 . S
O3939 C3944 1.256 1_455 S
C3940 O3946 1.278 . S
C3940 O3947 1.241 . S
C3941 O3927 1.244 . S
C3941 O3929 1.256 . S
C3942 O3931 1.239 . S
C3942 O3935 1.256 . S
C3943 O3932 1.278 . S
C3943 O3938 1.241 . S
C3944 O3934 1.244 . S
C3944 O3939 1.256 1_655 S
C3945 O3936 1.239 . S
C3945 O3937 1.256 . S
O3946 Mn3928 2.221 1_655 S
O3946 Mn3930 2.290 . S
O3946 C3940 1.278 . S
O3947 Mn3930 2.251 . S
O3947 C3940 1.241 . S
O3948 Mn3949 2.163 . S
O3948 C3962 1.244 . S
Mn3949 O3948 2.163 . S
Mn3949 O3952 2.160 . S
Mn3949 O3953 2.221 . S
Mn3949 O3955 2.163 . S
Mn3949 O3957 2.160 . S
Mn3949 O3967 2.221 . S
O3950 Mn3951 2.087 . S
O3950 C3962 1.256 . S
Mn3951 O3950 2.087 . S
Mn3951 O3958 2.089 . S
Mn3951 O3967 2.290 . S
Mn3951 O3968 2.251 . S
O3952 Mn3949 2.160 . S
O3952 C3963 1.239 . S
O3953 Mn3949 2.221 . S
O3953 Mn3954 2.290 . S
O3953 C3964 1.278 . S
Mn3954 O3953 2.290 . S
Mn3954 O3956 2.089 . S
Mn3954 O3959 2.251 . S
Mn3954 O3960 2.087 . S
O3955 Mn3949 2.163 . S
O3955 C3965 1.244 . S
O3956 Mn3954 2.089 . S
O3956 C3963 1.256 . S
O3957 Mn3949 2.160 . S
O3957 C3966 1.239 . S
O3958 Mn3951 2.089 . S
O3958 C3966 1.256 . S
O3959 Mn3954 2.251 . S
O3959 C3964 1.241 . S
O3960 Mn3954 2.087 . S
O3960 C3965 1.256 . S
C3961 O3967 1.278 . S
C3961 O3968 1.241 . S
C3962 O3948 1.244 . S
C3962 O3950 1.256 . S
C3963 O3952 1.239 . S
C3963 O3956 1.256 . S
C3964 O3953 1.278 . S
C3964 O3959 1.241 . S
C3965 O3955 1.244 . S
C3965 O3960 1.256 . S
C3966 O3957 1.239 . S
C3966 O3958 1.256 . S
O3967 Mn3949 2.221 . S
O3967 Mn3951 2.290 . S
O3967 C3961 1.278 . S
O3968 Mn3951 2.251 . S
O3968 C3961 1.241 . S
O3969 Mn3970 2.163 1_554 S
O3969 C3983 1.244 . S
Mn3970 O3969 2.163 1_556 S
Mn3970 O3973 2.160 . S
Mn3970 O3974 2.221 . S
Mn3970 O3976 2.163 . S
Mn3970 O3978 2.160 . S
Mn3970 O3988 2.221 . S
O3971 Mn3972 2.087 . S
O3971 C3983 1.256 . S
Mn3972 O3971 2.087 . S
Mn3972 O3979 2.089 . S
Mn3972 O3988 2.290 1_554 S
Mn3972 O3989 2.251 . S
O3973 Mn3970 2.160 . S
O3973 C3984 1.239 . S
O3974 Mn3970 2.221 . S
O3974 Mn3975 2.290 . S
O3974 C3985 1.278 . S
Mn3975 O3974 2.290 . S
Mn3975 O3977 2.089 . S
Mn3975 O3980 2.251 . S
Mn3975 O3981 2.087 . S
O3976 Mn3970 2.163 . S
O3976 C3986 1.244 . S
O3977 Mn3975 2.089 . S
O3977 C3984 1.256 . S
O3978 Mn3970 2.160 . S
O3978 C3987 1.239 1_556 S
O3979 Mn3972 2.089 . S
O3979 C3987 1.256 . S
O3980 Mn3975 2.251 . S
O3980 C3985 1.241 . S
O3981 Mn3975 2.087 . S
O3981 C3986 1.256 . S
C3982 O3988 1.278 . S
C3982 O3989 1.241 1_556 S
C3983 O3969 1.244 . S
C3983 O3971 1.256 . S
C3984 O3973 1.239 . S
C3984 O3977 1.256 . S
C3985 O3974 1.278 . S
C3985 O3980 1.241 . S
C3986 O3976 1.244 . S
C3986 O3981 1.256 . S
C3987 O3978 1.239 1_554 S
C3987 O3979 1.256 . S
O3988 Mn3970 2.221 . S
O3988 Mn3972 2.290 1_556 S
O3988 C3982 1.278 . S
O3989 Mn3972 2.251 . S
O3989 C3982 1.241 1_554 S
O3990 Mn3991 2.163 . S
O3990 C4004 1.244 . S
Mn3991 O3990 2.163 . S
Mn3991 O3994 2.160 . S
Mn3991 O3995 2.221 . S
Mn3991 O3997 2.163 . S
Mn3991 O3999 2.160 . S
Mn3991 O4009 2.221 . S
O3992 Mn3993 2.087 . S
O3992 C4004 1.256 . S
Mn3993 O3992 2.087 . S
Mn3993 O4000 2.089 . S
Mn3993 O4009 2.290 . S
Mn3993 O4010 2.251 . S
O3994 Mn3991 2.160 . S
O3994 C4005 1.239 . S
O3995 Mn3991 2.221 . S
O3995 Mn3996 2.290 . S
O3995 C4006 1.278 . S
Mn3996 O3995 2.290 . S
Mn3996 O3998 2.089 . S
Mn3996 O4001 2.251 . S
Mn3996 O4002 2.087 . S
O3997 Mn3991 2.163 . S
O3997 C4007 1.244 . S
O3998 Mn3996 2.089 . S
O3998 C4005 1.256 . S
O3999 Mn3991 2.160 . S
O3999 C4008 1.239 . S
O4000 Mn3993 2.089 . S
O4000 C4008 1.256 . S
O4001 Mn3996 2.251 . S
O4001 C4006 1.241 . S
O4002 Mn3996 2.087 . S
O4002 C4007 1.256 . S
C4003 O4009 1.278 . S
C4003 O4010 1.241 . S
C4004 O3990 1.244 . S
C4004 O3992 1.256 . S
C4005 O3994 1.239 . S
C4005 O3998 1.256 . S
C4006 O3995 1.278 . S
C4006 O4001 1.241 . S
C4007 O3997 1.244 . S
C4007 O4002 1.256 . S
C4008 O3999 1.239 . S
C4008 O4000 1.256 . S
O4009 Mn3991 2.221 . S
O4009 Mn3993 2.290 . S
O4009 C4003 1.278 . S
O4010 Mn3993 2.251 . S
O4010 C4003 1.241 . S
O4011 Mn4012 2.163 . S
O4011 C4025 1.244 . S
Mn4012 O4011 2.163 . S
Mn4012 O4015 2.160 . S
Mn4012 O4016 2.221 . S
Mn4012 O4018 2.163 . S
Mn4012 O4020 2.160 . S
Mn4012 O4030 2.221 . S
O4013 Mn4014 2.087 . S
O4013 C4025 1.256 . S
Mn4014 O4013 2.087 . S
Mn4014 O4021 2.089 . S
Mn4014 O4030 2.290 . S
Mn4014 O4031 2.251 . S
O4015 Mn4012 2.160 . S
O4015 C4026 1.239 . S
O4016 Mn4012 2.221 . S
O4016 Mn4017 2.290 . S
O4016 C4027 1.278 . S
Mn4017 O4016 2.290 . S
Mn4017 O4019 2.089 . S
Mn4017 O4022 2.251 . S
Mn4017 O4023 2.087 . S
O4018 Mn4012 2.163 . S
O4018 C4028 1.244 . S
O4019 Mn4017 2.089 . S
O4019 C4026 1.256 . S
O4020 Mn4012 2.160 . S
O4020 C4029 1.239 . S
O4021 Mn4014 2.089 . S
O4021 C4029 1.256 . S
O4022 Mn4017 2.251 . S
O4022 C4027 1.241 . S
O4023 Mn4017 2.087 . S
O4023 C4028 1.256 . S
C4024 O4030 1.278 . S
C4024 O4031 1.241 . S
C4025 O4011 1.244 . S
C4025 O4013 1.256 . S
C4026 O4015 1.239 . S
C4026 O4019 1.256 . S
C4027 O4016 1.278 . S
C4027 O4022 1.241 . S
C4028 O4018 1.244 . S
C4028 O4023 1.256 . S
C4029 O4020 1.239 . S
C4029 O4021 1.256 . S
O4030 Mn4012 2.221 . S
O4030 Mn4014 2.290 . S
O4030 C4024 1.278 . S
O4031 Mn4014 2.251 . S
O4031 C4024 1.241 . S
C15 C2223 1.672 1_655 S
C1233 C39 1.673 . S
C60 C2262 1.672 . S
C78 C1194 1.672 . S
C1341 C102 1.672 1_455 S
C123 C2286 1.672 . S
C141 C1299 1.673 . S
C2325 C162 1.673 . S
C186 C1086 1.672 1_565 S
C207 C2031 1.673 . S
C225 C1047 1.672 . S
C246 C2076 1.672 . S
C2139 C270 1.673 . S
C1149 C291 1.673 . S
C2178 C309 1.673 . S
C333 C1110 1.673 1_455 S
C396 C354 1.672 1_554 S
C3504 C375 1.672 . S
C3522 C417 1.672 . S
C435 C2475 1.673 . S
C2451 C459 1.672 1_554 S
C480 C3399 1.673 . S
C3441 C498 1.673 . S
C2727 C522 1.672 1_655 S
C1740 C543 1.673 . S
C564 C2769 1.672 . S
C585 C1698 1.672 . S
C1845 C606 1.672 1_655 S
C2790 C627 1.672 . S
C648 C1803 1.673 . S
C2832 C669 1.673 . S
C690 C1593 1.672 1_545 S
C2538 C711 1.673 . S
C1551 C732 1.672 . S
C2580 C753 1.672 . S
C774 C2643 1.673 . S
C795 C1656 1.673 . S
C816 C2685 1.673 . S
C837 C1614 1.673 1_655 S
C900 C858 1.672 1_556 S
C4008 C879 1.672 . S
C4029 C921 1.672 . S
C2979 C942 1.673 . S
C2958 C963 1.672 1_556 S
C984 C3903 1.673 . S
C3945 C1005 1.673 . S
C1023 C3231 1.672 1_655 S
C3270 C1068 1.673 . S
C1131 C3294 1.672 . S
C3333 C1170 1.673 1_565 S
C1215 C3039 1.672 . S
C3084 C1254 1.672 . S
C1278 C3147 1.672 . S
C1317 C3186 1.672 1_565 S
C1362 C1404 1.673 . S
C2496 C1383 1.673 . S
C2514 C1425 1.672 . S
C1443 C3483 1.673 1_554 S
C3459 C1467 1.673 . S
C2391 C1488 1.673 . S
C2433 C1506 1.672 . S
C3735 C1530 1.672 1_655 S
C1572 C3777 1.673 . S
C1635 C3798 1.672 . S
C3840 C1677 1.673 1_545 S
C3546 C1719 1.672 . S
C3588 C1761 1.672 . S
C3651 C1782 1.672 . S
C1824 C3693 1.672 1_545 S
C1908 C1866 1.673 . S
C3000 C1887 1.673 . S
C3021 C1929 1.672 . S
C3987 C1950 1.673 1_554 S
C1971 C3966 1.673 . S
C1992 C2895 1.673 . S
C2013 C2937 1.672 . S
C3249 C2055 1.673 . S
C2094 C3210 1.673 . S
C3357 C2118 1.673 . S
C2157 C3315 1.672 . S
C3102 C2202 1.672 1_545 S
C2241 C3063 1.673 . S
C3165 C2307 1.673 . S
C3126 C2349 1.673 . S
C2412 C2370 1.672 . S
C2559 C3756 1.673 . S
C2601 C3714 1.673 . S
C2622 C3861 1.673 . S
C3819 C2664 1.672 . S
C3609 C2706 1.672 1_565 S
C3567 C2748 1.673 . S
C2811 C3672 1.673 . S
C2853 C3630 1.673 . S
C2916 C2874 1.672 . S
C3420 C3378 1.672 1_554 S
C3882 C3924 1.672 1_554 S
C1234 C14 2.340 . S
C2263 C38 2.339 . S
C1189 C59 2.340 . S
C77 C2218 2.339 . S
C1318 C101 2.339 . S
C122 C2344 2.340 . S
C140 C1273 2.340 . S
C2302 C161 2.340 . S
C185 C2386 2.340 . S
C1399 C206 2.340 . S
C2428 C224 2.339 . S
C2452 C245 2.340 . S
C269 C349 2.340 . S
C3523 C290 2.339 . S
C1462 C308 2.339 . S
C332 C3499 2.340 . S
C353 C1150 2.340 . S
C3079 C374 2.339 . S
C3103 C395 2.340 . S
C3040 C416 2.340 . S
C434 C34 2.340 . S
C97 C458 2.339 . S
C1126 C479 2.340 . S
C497 C1171 2.340 . S
C1735 C521 2.340 . S
C2764 C542 2.339 . S
C563 C1693 2.340 . S
C584 C2722 2.339 . S
C605 C1819 2.339 . S
C2848 C626 2.340 . S
C647 C1777 2.340 . S
C668 C2806 2.340 . S
C2890 C689 2.340 . S
C710 C1903 2.340 . S
C2932 C731 2.339 . S
C2953 C752 2.340 . S
C853 C773 2.340 . S
C4024 C794 2.339 . S
C815 C1966 2.339 . S
C4003 C836 2.340 . S
C1651 C857 2.340 . S
C3583 C878 2.339 . S
C3604 C899 2.340 . S
C920 C3541 2.340 . S
C538 C941 2.340 . S
C962 C601 2.339 . S
C1630 C983 2.340 . S
C1004 C1672 2.340 . S
C1022 C226 2.340 . S
C1046 C3271 2.340 . S
C181 C1067 2.340 . S
C3226 C1085 2.340 . S
C1109 C310 2.340 . S
C1130 C3352 2.340 . S
C265 C1148 2.340 . S
C1169 C3310 2.340 . S
C3394 C1193 2.340 . S
C1214 C391 2.339 . S
C1232 C3436 2.340 . S
C3460 C1253 2.340 . S
C1357 C1277 2.340 . S
C2515 C1298 2.339 . S
C454 C1316 2.339 . S
C2491 C1340 2.340 . S
C142 C1361 2.340 . S
C1382 C2071 2.340 . S
C2095 C1403 2.340 . S
C2032 C1424 2.340 . S
C1442 C1042 2.340 . S
C1105 C1466 2.340 . S
C118 C1487 2.339 . S
C163 C1505 2.340 . S
C1529 C727 2.340 . S
C3772 C1550 2.340 . S
C1571 C685 2.340 . S
C3730 C1592 2.340 . S
C811 C1613 2.340 . S
C3856 C1634 2.340 . S
C769 C1655 2.340 . S
C3814 C1676 2.340 . S
C3898 C1697 2.340 . S
C895 C1718 2.339 . S
C3940 C1739 2.340 . S
C3961 C1760 2.340 . S
C1781 C1861 2.340 . S
C1802 C3016 2.339 . S
C1823 C958 2.339 . S
C1844 C2995 2.340 . S
C1865 C643 2.340 . S
C1886 C2575 2.340 . S
C2596 C1907 2.340 . S
C1928 C2533 2.340 . S
C1949 C1546 2.340 . S
C1970 C1609 2.340 . S
C622 C1991 2.339 . S
C664 C2012 2.340 . S
C3250 C2030 2.340 . S
C247 C2054 2.339 . S
C3205 C2075 2.340 . S
C202 C2093 2.340 . S
C2117 C3334 2.340 . S
C328 C2138 2.340 . S
C2156 C3289 2.339 . S
C2177 C286 2.340 . S
C2201 C370 2.340 . S
C2222 C3415 2.340 . S
C412 C2240 2.339 . S
C2261 C436 2.340 . S
C2365 C2285 2.340 . S
C2306 C1507 2.340 . S
C2324 C3478 2.340 . S
C2348 C1483 2.340 . S
C2369 C3166 2.340 . S
C1063 C2390 2.340 . S
C2411 C1087 2.339 . S
C1024 C2432 2.340 . S
C2450 C2050 2.340 . S
C2474 C2113 2.339 . S
C2495 C3142 2.339 . S
C2513 C3187 2.340 . S
C2537 C3751 2.340 . S
C748 C2558 2.339 . S
C3709 C2579 2.340 . S
C2600 C706 2.340 . S
C2621 C3835 2.340 . S
C832 C2642 2.340 . S
C2663 C3793 2.339 . S
C790 C2684 2.340 . S
C874 C2705 2.340 . S
C3919 C2726 2.340 . S
C916 C2747 2.339 . S
C937 C2768 2.340 . S
C2869 C2789 2.340 . S
C2810 C2008 2.340 . S
C3982 C2831 2.340 . S
C2852 C1987 2.340 . S
C2873 C3667 2.340 . S
C2894 C1567 2.340 . S
C1588 C2915 2.339 . S
C2936 C1525 2.340 . S
C2957 C2554 2.340 . S
C2978 C2617 2.339 . S
C2999 C3646 2.339 . S
C3688 C3020 2.340 . S
C3038 C2242 2.340 . S
C1255 C3062 2.340 . S
C3083 C2197 2.340 . S
C1210 C3101 2.339 . S
C3125 C2326 2.339 . S
C3146 C1336 2.340 . S
C2281 C3164 2.339 . S
C1294 C3185 2.340 . S
C1378 C3209 2.340 . S
C3230 C2407 2.339 . S
C1420 C3248 2.340 . S
C1444 C3269 2.340 . S
C3293 C3373 2.340 . S
C3314 C499 2.340 . S
C3332 C2470 2.340 . S
C3356 C475 2.340 . S
C3377 C2158 2.340 . S
C3398 C55 2.339 . S
C3419 C79 2.339 . S
C16 C3440 2.340 . S
C3058 C3458 2.340 . S
C3121 C3482 2.340 . S
C3503 C2134 2.340 . S
C2179 C3521 2.340 . S
C3545 C2743 2.340 . S
C3566 C1756 2.340 . S
C3587 C2701 2.340 . S
C3608 C1714 2.339 . S
C3629 C2827 2.339 . S
C3650 C1840 2.340 . S
C2785 C3671 2.339 . S
C3692 C1798 2.340 . S
C3713 C1882 2.340 . S
C3734 C2911 2.339 . S
C1924 C3755 2.340 . S
C3776 C1945 2.340 . S
C3877 C3797 2.340 . S
C3818 C1000 2.340 . S
C2974 C3839 2.340 . S
C3860 C979 2.340 . S
C3881 C2659 2.340 . S
C3902 C559 2.339 . S
C580 C3923 2.339 . S
C517 C3944 2.340 . S
C3562 C3965 2.340 . S
C3986 C3625 2.340 . S
C2638 C4007 2.340 . S
C4028 C2680 2.340 . S
C2933 C13 1.889 . S
C3962 C37 1.890 . S
C58 C1883 1.889 . S
C3920 C76 1.890 . S
C959 C100 1.890 . S
C980 C121 1.889 . S
C139 C2870 1.890 . S
C4025 C160 1.889 . S
C184 C3584 1.889 . S
C2597 C205 1.889 . S
C518 C223 1.889 . S
C1547 C244 1.889 . S
C268 C2660 1.890 . S
C665 C289 1.890 . S
C1610 C307 1.889 . S
C3647 C331 1.889 . S
C3794 C352 1.889 . S
C686 C373 1.889 . S
C394 C1715 1.889 . S
C415 C3752 1.889 . S
C1757 C433 1.889 . S
C1820 C457 1.890 . S
C478 C2849 1.889 . S
C1799 C496 1.890 . S
C520 C2429 1.889 . S
C541 C3461 1.890 . S
C1379 C562 1.889 . S
C583 C3416 1.890 . S
C455 C604 1.890 . S
C476 C625 1.889 . S
C646 C2366 1.890 . S
C3524 C667 1.889 . S
C688 C3080 1.889 . S
C2096 C709 1.889 . S
C730 C17 1.889 . S
C751 C1043 1.889 . S
C772 C2159 1.890 . S
C164 C793 1.890 . S
C814 C1106 1.889 . S
C835 C3143 1.889 . S
C856 C3290 1.889 . S
C877 C182 1.889 . S
C898 C1211 1.889 . S
C3251 C919 1.889 . S
C940 C1256 1.889 . S
C961 C1319 1.890 . S
C982 C2345 1.889 . S
C1003 C1295 1.890 . S
C1021 C3941 1.889 . S
C2954 C1045 1.889 . S
C875 C1066 1.890 . S
C2912 C1084 1.889 . S
C1967 C1108 1.889 . S
C1129 C1988 1.889 . S
C1147 C3878 1.889 . S
C3017 C1168 1.889 . S
C2576 C1192 1.889 . S
C1213 C3605 1.890 . S
C1526 C1231 1.889 . S
C539 C1252 1.889 . S
C3668 C1276 1.889 . S
C1673 C1297 1.889 . S
C602 C1315 1.890 . S
C2639 C1339 1.889 . S
C1360 C2786 1.889 . S
C1694 C1381 1.890 . S
C1402 C707 1.889 . S
C2744 C1423 1.889 . S
C1441 C749 1.889 . S
C1465 C812 1.890 . S
C1486 C3857 1.890 . S
C791 C1504 1.889 . S
C1528 C3437 1.889 . S
C2453 C1549 1.889 . S
C1570 C371 1.890 . S
C1591 C2408 1.889 . S
C1612 C1463 1.889 . S
C1484 C1633 1.889 . S
C1654 C3374 1.889 . S
C1675 C2516 1.889 . S
C1696 C2072 1.889 . S
C1717 C3104 1.890 . S
C1738 C1025 1.889 . S
C1759 C35 1.889 . S
C3167 C1780 1.889 . S
C1801 C1172 1.889 . S
C98 C1822 1.890 . S
C2135 C1843 1.889 . S
C1864 C2282 1.889 . S
C1885 C1190 1.890 . S
C203 C1906 1.889 . S
C2243 C1927 1.889 . S
C248 C1948 1.889 . S
C311 C1969 1.890 . S
C3353 C1990 1.890 . S
C287 C2011 1.889 . S
C2029 C917 1.889 . S
C1946 C2053 1.889 . S
C3899 C2074 1.889 . S
C1904 C2092 1.889 . S
C2116 C2975 1.890 . S
C2137 C2996 1.890 . S
C2155 C854 1.889 . S
C2009 C2176 1.889 . S
C2200 C1568 1.889 . S
C2221 C581 1.889 . S
C2534 C2239 1.889 . S
C2260 C3563 1.889 . S
C644 C2284 1.889 . S
C2305 C2681 1.889 . S
C3626 C2323 1.890 . S
C1631 C2347 1.889 . S
C2368 C1778 1.889 . S
C2702 C2389 1.889 . S
C2410 C3731 1.890 . S
C2431 C1736 1.889 . S
C3773 C2449 1.889 . S
C2473 C3836 1.889 . S
C2494 C833 1.889 . S
C2512 C3815 1.889 . S
C2536 C413 1.889 . S
C2557 C1445 1.889 . S
C2578 C3395 1.889 . S
C2599 C1400 1.889 . S
C2620 C2471 1.890 . S
C2641 C2492 1.890 . S
C350 C2662 1.889 . S
C2683 C1508 1.889 . S
C2704 C1064 1.889 . S
C2725 C80 1.889 . S
C2746 C2033 1.889 . S
C3059 C2767 1.889 . S
C2788 C143 1.889 . S
C2180 C2809 1.889 . S
C2830 C3122 1.890 . S
C1127 C2851 1.889 . S
C2872 C1274 1.889 . S
C2198 C2893 1.889 . S
C3227 C2914 1.890 . S
C2935 C1235 1.889 . S
C3272 C2956 1.889 . S
C3335 C2977 1.889 . S
C329 C2998 1.889 . S
C3019 C3311 1.889 . S
C1925 C3037 1.889 . S
C3061 C938 1.889 . S
C3082 C2891 1.889 . S
C896 C3100 1.889 . S
C3983 C3124 1.889 . S
C4004 C3145 1.889 . S
C3163 C1862 1.889 . S
C1001 C3184 1.889 . S
C3208 C560 1.889 . S
C1589 C3229 1.889 . S
C3542 C3247 1.890 . S
C2555 C3268 1.890 . S
C3292 C1652 1.889 . S
C3689 C3313 1.889 . S
C2618 C3331 1.889 . S
C3355 C623 1.889 . S
C770 C3376 1.889 . S
C3397 C3710 1.889 . S
C3418 C2723 1.889 . S
C3439 C728 1.890 . S
C2765 C3457 1.889 . S
C2828 C3481 1.889 . S
C1841 C3502 1.889 . S
C3520 C2807 1.889 . S
C3544 C1421 1.889 . S
C437 C3565 1.889 . S
C2387 C3586 1.889 . S
C3607 C392 1.889 . S
C3628 C3479 1.889 . S
C3500 C3649 1.889 . S
C3670 C1358 1.889 . S
C500 C3691 1.889 . S
C56 C3712 1.889 . S
C1088 C3733 1.889 . S
C3754 C3041 1.890 . S
C2051 C3775 1.890 . S
C1151 C3796 1.889 . S
C3188 C3817 1.889 . S
C3838 C2114 1.889 . S
C3859 C119 1.889 . S
C3880 C266 1.889 . S
C3901 C3206 1.889 . S
C2219 C3922 1.889 . S
C227 C3943 1.890 . S
C2264 C3964 1.889 . S
C2327 C3985 1.889 . S
C4006 C1337 1.889 . S
C2303 C4027 1.889 . S
C1152 C18 0.918 . S
C2181 C36 0.918 . S
C1107 C57 0.918 . S
C2136 C81 0.918 . S
C1065 C99 0.918 . S
C2097 C120 0.918 . S
C144 C1026 0.918 . S
C165 C2052 0.918 . S
C183 C1236 0.918 . S
C204 C2265 0.918 . S
C228 C1191 0.918 . S
C249 C2220 0.918 . S
C1320 C267 0.918 . S
C2346 C288 0.918 . S
C312 C1275 0.918 . S
C2304 C330 0.918 . S
C2388 C351 0.918 . S
C372 C2367 0.918 . S
C2517 C393 0.918 . S
C3480 C414 0.918 . S
C438 C1485 0.918 . S
C3438 C456 0.918 . S
C1446 C477 0.918 . S
C2409 C501 0.918 . S
C519 C1653 0.918 . S
C540 C2682 0.918 . S
C561 C1611 0.918 . S
C582 C2640 0.918 . S
C603 C1569 0.918 . S
C624 C2598 0.918 . S
C1527 C645 0.918 . S
C2556 C666 0.918 . S
C1737 C687 0.918 . S
C2766 C708 0.918 . S
C729 C1695 0.918 . S
C2724 C750 0.918 . S
C771 C1821 0.918 . S
C792 C2850 0.918 . S
C1779 C813 0.918 . S
C834 C2808 0.918 . S
C2892 C855 0.918 . S
C2871 C876 0.918 . S
C897 C3018 0.918 . S
C3984 C918 0.918 . S
C939 C1989 0.918 . S
C3942 C960 0.918 . S
C981 C1947 0.918 . S
C1002 C2913 0.918 . S
C1044 C3189 0.918 . S
C1089 C3144 0.918 . S
C3105 C1128 0.918 . S
C1173 C3060 0.918 . S
C1212 C3273 0.918 . S
C3228 C1257 0.918 . S
C1296 C3354 0.918 . S
C1338 C3312 0.918 . S
C1359 C3396 0.918 . S
C1380 C3375 0.918 . S
C1401 C3525 0.918 . S
C2472 C1422 0.918 . S
C2430 C1464 0.918 . S
C1509 C3417 0.918 . S
C1548 C3690 0.918 . S
C3648 C1590 0.918 . S
C1632 C3606 0.918 . S
C1674 C3564 0.918 . S
C1716 C3774 0.918 . S
C3732 C1758 0.918 . S
C3858 C1800 0.918 . S
C3816 C1842 0.918 . S
C3900 C1863 0.918 . S
C3879 C1884 0.918 . S
C1905 C4026 0.918 . S
C2976 C1926 0.918 . S
C2934 C1968 0.918 . S
C2010 C3921 0.918 . S
C3168 C2034 0.918 . S
C3123 C2073 0.918 . S
C3081 C2115 0.918 . S
C2160 C3042 0.918 . S
C2199 C3252 0.918 . S
C3207 C2244 0.918 . S
C2283 C3336 0.918 . S
C3291 C2328 0.918 . S
C2454 C3501 0.918 . S
C3462 C2493 0.918 . S
C3669 C2535 0.918 . S
C3627 C2577 0.918 . S
C3585 C2619 0.918 . S
C2661 C3543 0.918 . S
C2703 C3753 0.918 . S
C3711 C2745 0.918 . S
C2787 C3837 0.918 . S
C3795 C2829 0.918 . S
C2955 C4005 0.918 . S
C2997 C3963 0.918 . S
