# Generated by pormake.
# Topology zfm, (5)-cn, num edge types: 1
# Building blocks:
#     Node 0, Type 0, BuildingBlock: BEQFEK_clean_sbu_0, # of connection points: 5
#     Node 1, Type 0, BuildingBlock: BEQFEK_clean_sbu_0, # of connection points: 5
#     Node 2, Type 0, BuildingBlock: BEQFEK_clean_sbu_0, # of connection points: 5
#     Node 3, Type 0, BuildingBlock: BEQFEK_clean_sbu_0, # of connection points: 5
#     Node 4, Type 0, BuildingBlock: BEQFEK_clean_sbu_0, # of connection points: 5
#     Node 5, Type 0, BuildingBlock: BEQFEK_clean_sbu_0, # of connection points: 5
#     Node 6, Type 0, BuildingBlock: BEQFEK_clean_sbu_0, # of connection points: 5
#     Node 7, Type 0, BuildingBlock: BEQFEK_clean_sbu_0, # of connection points: 5
#     Node 8, Type 0, BuildingBlock: BEQFEK_clean_sbu_0, # of connection points: 5
#     Node 9, Type 0, BuildingBlock: BEQFEK_clean_sbu_0, # of connection points: 5
#     Node 10, Type 0, BuildingBlock: BEQFEK_clean_sbu_0, # of connection points: 5
#     Node 11, Type 0, BuildingBlock: BEQFEK_clean_sbu_0, # of connection points: 5
#     Node 12, Type 0, BuildingBlock: BEQFEK_clean_sbu_0, # of connection points: 5
#     Node 13, Type 0, BuildingBlock: BEQFEK_clean_sbu_0, # of connection points: 5
#     Node 14, Type 0, BuildingBlock: BEQFEK_clean_sbu_0, # of connection points: 5
#     Node 15, Type 0, BuildingBlock: BEQFEK_clean_sbu_0, # of connection points: 5
#     Edge 16, Type (0, 0), BuildingBlock: CIFDUS_clean_linker_0, # of connection points: 2
#     Edge 17, Type (0, 0), BuildingBlock: CIFDUS_clean_linker_0, # of connection points: 2
#     Edge 18, Type (0, 0), BuildingBlock: CIFDUS_clean_linker_0, # of connection points: 2
#     Edge 19, Type (0, 0), BuildingBlock: CIFDUS_clean_linker_0, # of connection points: 2
#     Edge 20, Type (0, 0), BuildingBlock: CIFDUS_clean_linker_0, # of connection points: 2
#     Edge 21, Type (0, 0), BuildingBlock: CIFDUS_clean_linker_0, # of connection points: 2
#     Edge 22, Type (0, 0), BuildingBlock: CIFDUS_clean_linker_0, # of connection points: 2
#     Edge 23, Type (0, 0), BuildingBlock: CIFDUS_clean_linker_0, # of connection points: 2
#     Edge 24, Type (0, 0), BuildingBlock: CIFDUS_clean_linker_0, # of connection points: 2
#     Edge 25, Type (0, 0), BuildingBlock: CIFDUS_clean_linker_0, # of connection points: 2
#     Edge 26, Type (0, 0), BuildingBlock: CIFDUS_clean_linker_0, # of connection points: 2
#     Edge 27, Type (0, 0), BuildingBlock: CIFDUS_clean_linker_0, # of connection points: 2
#     Edge 28, Type (0, 0), BuildingBlock: CIFDUS_clean_linker_0, # of connection points: 2
#     Edge 29, Type (0, 0), BuildingBlock: CIFDUS_clean_linker_0, # of connection points: 2
#     Edge 30, Type (0, 0), BuildingBlock: CIFDUS_clean_linker_0, # of connection points: 2
#     Edge 31, Type (0, 0), BuildingBlock: CIFDUS_clean_linker_0, # of connection points: 2
#     Edge 32, Type (0, 0), BuildingBlock: CIFDUS_clean_linker_0, # of connection points: 2
#     Edge 33, Type (0, 0), BuildingBlock: CIFDUS_clean_linker_0, # of connection points: 2
#     Edge 34, Type (0, 0), BuildingBlock: CIFDUS_clean_linker_0, # of connection points: 2
#     Edge 35, Type (0, 0), BuildingBlock: CIFDUS_clean_linker_0, # of connection points: 2
#     Edge 36, Type (0, 0), BuildingBlock: CIFDUS_clean_linker_0, # of connection points: 2
#     Edge 37, Type (0, 0), BuildingBlock: CIFDUS_clean_linker_0, # of connection points: 2
#     Edge 38, Type (0, 0), BuildingBlock: CIFDUS_clean_linker_0, # of connection points: 2
#     Edge 39, Type (0, 0), BuildingBlock: CIFDUS_clean_linker_0, # of connection points: 2
#     Edge 40, Type (0, 0), BuildingBlock: CIFDUS_clean_linker_0, # of connection points: 2
#     Edge 41, Type (0, 0), BuildingBlock: CIFDUS_clean_linker_0, # of connection points: 2
#     Edge 42, Type (0, 0), BuildingBlock: CIFDUS_clean_linker_0, # of connection points: 2
#     Edge 43, Type (0, 0), BuildingBlock: CIFDUS_clean_linker_0, # of connection points: 2
#     Edge 44, Type (0, 0), BuildingBlock: CIFDUS_clean_linker_0, # of connection points: 2
#     Edge 45, Type (0, 0), BuildingBlock: CIFDUS_clean_linker_0, # of connection points: 2
#     Edge 46, Type (0, 0), BuildingBlock: CIFDUS_clean_linker_0, # of connection points: 2
#     Edge 47, Type (0, 0), BuildingBlock: CIFDUS_clean_linker_0, # of connection points: 2
#     Edge 48, Type (0, 0), BuildingBlock: CIFDUS_clean_linker_0, # of connection points: 2
#     Edge 49, Type (0, 0), BuildingBlock: CIFDUS_clean_linker_0, # of connection points: 2
#     Edge 50, Type (0, 0), BuildingBlock: CIFDUS_clean_linker_0, # of connection points: 2
#     Edge 51, Type (0, 0), BuildingBlock: CIFDUS_clean_linker_0, # of connection points: 2
#     Edge 52, Type (0, 0), BuildingBlock: CIFDUS_clean_linker_0, # of connection points: 2
#     Edge 53, Type (0, 0), BuildingBlock: CIFDUS_clean_linker_0, # of connection points: 2
#     Edge 54, Type (0, 0), BuildingBlock: CIFDUS_clean_linker_0, # of connection points: 2
#     Edge 55, Type (0, 0), BuildingBlock: CIFDUS_clean_linker_0, # of connection points: 2
# Relax obj value: 0.128
# Max RMSD: 0.193
# Mean RMSD: 0.193
data_MOF--net-zfm--node1-BEQFEK_clean_sbu_0--edge1-CIFDUS_clean_linker_0
_symmetry_space_group_name_H-M    P1
_symmetry_Int_Tables_number       1
_symmetry_cell_setting            triclinic
loop_
_symmetry_equiv_pos_as_xyz
'x, y, z'
_cell_length_a     25.257008
_cell_length_b     25.253987
_cell_length_c     69.09233
_cell_angle_alpha  90.084007
_cell_angle_beta   89.986431
_cell_angle_gamma 89.946491
loop_
_atom_site_label
_atom_site_type_symbol
_atom_site_fract_x
_atom_site_fract_y
_atom_site_fract_z
_atom_type_partial_charge
Co0 Co 0.42905 0.0827 0.16185 0.0
Co1 Co 0.43996 0.09925 0.11655 0.0
C2 C 0.37595 0.00999 0.13516 0.0
O3 O 0.38875 0.01983 0.15266 0.0
O4 O 0.39375 0.03797 0.12133 0.0
C5 C 0.43604 0.04424 0.20222 0.0
O6 O 0.44117 0.99666 0.19474 0.0
C7 C 0.46354 0.05578 0.07837 0.0
C8 C 0.46416 0.12642 0.0596 0.0
C9 C 0.469 0.07171 0.05924 0.0
N10 N 0.45534 0.09886 0.08942 0.0
N11 N 0.45576 0.14103 0.07812 0.0
C12 C 0.46811 0.00093 0.08634 0.0
H13 H 0.42839 0.9822 0.08644 0.0
H14 H 0.48288 0.00233 0.10147 0.0
H15 H 0.49509 0.97645 0.07733 0.0
C16 C 0.54834 0.08229 0.15724 0.0
N17 N 0.49852 0.08671 0.15028 0.0
N18 N 0.5014 0.09802 0.13173 0.0
C19 C 0.55219 0.10433 0.12654 0.0
C20 C 0.58431 0.09342 0.14238 0.0
C21 C 0.56084 0.06336 0.17723 0.0
H22 H 0.56213 0.09778 0.18722 0.0
H23 H 0.52973 0.03588 0.18223 0.0
H24 H 0.59943 0.04243 0.1777 0.0
O25 O 0.38374 0.14533 0.15422 0.0
O26 O 0.39775 0.1608 0.12293 0.0
H27 H 0.54024 0.1554 0.1022 0.0
H28 H 0.60878 0.14277 0.10764 0.0
C29 C 0.56872 0.12484 0.10712 0.0
H30 H 0.56845 0.09192 0.09647 0.0
H31 H 0.44965 0.17967 0.08301 0.0
O32 O 0.43169 0.0841 0.19104 0.0
C33 C 0.37522 0.17221 0.13886 0.0
Co34 Co 0.43476 0.43271 0.66121 0.0
Co35 Co 0.41985 0.44955 0.61651 0.0
C36 C 0.50724 0.38307 0.63175 0.0
O37 O 0.49423 0.39183 0.64928 0.0
O38 O 0.48244 0.40481 0.61792 0.0
C39 C 0.48905 0.45439 0.69667 0.0
O40 O 0.52382 0.47722 0.68527 0.0
C41 C 0.45233 0.47814 0.57749 0.0
C42 C 0.37671 0.48632 0.56173 0.0
C43 C 0.43113 0.48958 0.55952 0.0
N44 N 0.41239 0.46914 0.58992 0.0
N45 N 0.36721 0.47399 0.58041 0.0
C46 C 0.50971 0.47283 0.58265 0.0
H47 H 0.52103 0.43043 0.58178 0.0
H48 H 0.51649 0.4865 0.59772 0.0
H49 H 0.5355 0.49529 0.57264 0.0
C50 C 0.41976 0.54869 0.66084 0.0
N51 N 0.4258 0.50217 0.6516 0.0
N52 N 0.42494 0.51023 0.63283 0.0
C53 C 0.42257 0.56283 0.62949 0.0
C54 C 0.41862 0.5893 0.64721 0.0
C55 C 0.40864 0.55308 0.68209 0.0
H56 H 0.38747 0.51729 0.68722 0.0
H57 H 0.44646 0.55632 0.69013 0.0
H58 H 0.38417 0.58856 0.68528 0.0
O59 O 0.37049 0.39224 0.65631 0.0
O60 O 0.36012 0.40158 0.62443 0.0
H61 H 0.38924 0.58938 0.60274 0.0
H62 H 0.44643 0.62692 0.61058 0.0
C63 C 0.42859 0.58691 0.60982 0.0
H64 H 0.45483 0.56217 0.60081 0.0
H65 H 0.32996 0.46846 0.58663 0.0
O66 O 0.44784 0.43355 0.68937 0.0
C67 C 0.3459 0.38201 0.64069 0.0
Co68 Co 0.03995 0.42215 0.15891 0.0
Co69 Co 0.05088 0.41079 0.11367 0.0
C70 C 0.10057 0.50061 0.13519 0.0
O71 O 0.08278 0.48328 0.15118 0.0
O72 O 0.08949 0.47784 0.11925 0.0
C73 C 0.07095 0.43384 0.19654 0.0
O74 O 0.11578 0.43107 0.18693 0.0
C75 C 0.03912 0.44333 0.07343 0.0
C76 C 0.0468 0.36814 0.05729 0.0
C77 C 0.03927 0.42211 0.05488 0.0
N78 N 0.04655 0.40391 0.08616 0.0
N79 N 0.0513 0.35903 0.07645 0.0
C80 C 0.02867 0.4995 0.07921 0.0
H81 H 0.00989 0.50088 0.09373 0.0
H82 H 0.00273 0.51945 0.06849 0.0
H83 H 0.06682 0.52114 0.07998 0.0
C84 C 0.92561 0.4218 0.14829 0.0
N85 N 0.97741 0.41734 0.14389 0.0
N86 N 0.98241 0.40852 0.12522 0.0
C87 C 0.93394 0.40421 0.11729 0.0
C88 C 0.89594 0.41353 0.13152 0.0
C89 C 0.90581 0.4393 0.1677 0.0
H90 H 0.89499 0.40393 0.17634 0.0
H91 H 0.93696 0.46149 0.17555 0.0
H92 H 0.87031 0.46488 0.16621 0.0
O93 O 0.08639 0.35914 0.15556 0.0
O94 O 0.09702 0.35439 0.12367 0.0
H95 H 0.95283 0.35731 0.09237 0.0
H96 H 0.88371 0.37352 0.0945 0.0
C97 C 0.92449 0.38871 0.09665 0.0
H98 H 0.93085 0.42354 0.08717 0.0
H99 H 0.05744 0.32218 0.08289 0.0
O100 O 0.02775 0.43013 0.18716 0.0
C101 C 0.10789 0.33847 0.14069 0.0
Co102 Co 0.08809 0.06296 0.65693 0.0
Co103 Co 0.10901 0.04916 0.6117 0.0
C104 C 0.01809 0.11442 0.62828 0.0
O105 O 0.02786 0.10286 0.64589 0.0
O106 O 0.04587 0.09547 0.61448 0.0
C107 C 0.04159 0.07246 0.69573 0.0
O108 O -0.00165 0.08518 0.68624 0.0
C109 C 0.08001 0.0171 0.57201 0.0
C110 C 0.15709 0.02018 0.55697 0.0
C111 C 0.10382 0.00964 0.55399 0.0
N112 N 0.11744 0.03155 0.58482 0.0
N113 N 0.16339 0.03344 0.57571 0.0
C114 C 0.02352 0.0077 0.57753 0.0
H115 H 0.0002 0.04408 0.5746 0.0
H116 H 0.02055 -0.00116 0.59323 0.0
H117 H 0.00657 0.97452 0.569 0.0
C118 C 0.08421 0.94477 0.65334 0.0
N119 N 0.09232 0.99345 0.64589 0.0
N120 N 0.10532 0.9885 0.62753 0.0
C121 C 0.1091 0.93686 0.62301 0.0
C122 C 0.09468 0.9069 0.63906 0.0
C123 C 0.06154 0.93553 0.67306 0.0
H124 H 0.09437 0.93029 0.68355 0.0
H125 H 0.03745 0.97003 0.67763 0.0
H126 H 0.03628 0.89963 0.67327 0.0
O127 O 0.15172 0.10749 0.65039 0.0
O128 O 0.16856 0.0932 0.61922 0.0
H129 H 0.16181 0.94325 0.59879 0.0
H130 H 0.14538 0.87617 0.60525 0.0
C131 C 0.12964 0.91705 0.60398 0.0
H132 H 0.09725 0.91757 0.59315 0.0
H133 H 0.19911 0.04377 0.58229 0.0
O134 O 0.0832 0.06068 0.68618 0.0
C135 C 0.1791 0.11605 0.63515 0.0
Co136 Co 0.4486 0.39581 0.84991 0.0
Co137 Co 0.4447 0.40596 0.89512 0.0
C138 C 0.38731 0.48256 0.87104 0.0
O139 O 0.40183 0.45783 0.85581 0.0
O140 O 0.40375 0.46884 0.88768 0.0
C141 C 0.47834 0.43098 0.81163 0.0
O142 O 0.49528 0.47409 0.8203 0.0
C143 C 0.45104 0.44462 0.9353 0.0
C144 C 0.48079 0.37388 0.95064 0.0
C145 C 0.4678 0.42669 0.95328 0.0
N146 N 0.45516 0.40455 0.92254 0.0
N147 N 0.47235 0.36222 0.93186 0.0
C148 C 0.42941 0.49811 0.93031 0.0
H149 H 0.39058 0.49328 0.92305 0.0
H150 H 0.45662 0.51808 0.92005 0.0
H151 H 0.42347 0.52323 0.9433 0.0
C152 C 0.56367 0.38975 0.85802 0.0
N153 N 0.51304 0.39556 0.86371 0.0
N154 N 0.51169 0.40453 0.88242 0.0
C155 C 0.56172 0.40864 0.88906 0.0
C156 C 0.5968 0.39852 0.87386 0.0
C157 C 0.57914 0.37198 0.83812 0.0
H158 H 0.548 0.34598 0.83197 0.0
H159 H 0.5833 0.40701 0.82858 0.0
H160 H 0.61728 0.35012 0.8384 0.0
O161 O 0.40784 0.33347 0.8564 0.0
O162 O 0.39896 0.34364 0.88818 0.0
H163 H 0.57765 0.39432 0.91901 0.0
H164 H 0.61322 0.45001 0.90904 0.0
C165 C 0.57505 0.42837 0.90892 0.0
H166 H 0.54385 0.45575 0.91411 0.0
H167 H 0.47965 0.32572 0.92528 0.0
O168 O 0.45921 0.39352 0.82166 0.0
C169 C 0.38835 0.31912 0.87248 0.0
Co170 Co 0.08136 0.44522 0.34771 0.0
Co171 Co 0.08294 0.4433 0.39322 0.0
C172 C -0.00013 0.38642 0.37124 0.0
O173 O 0.0182 0.40102 0.35492 0.0
O174 O 0.02029 0.40245 0.38696 0.0
C175 C 0.03337 0.4639 0.3108 0.0
O176 O 0.98964 0.46647 0.32106 0.0
C177 C 0.04361 0.45104 0.43285 0.0
C178 C 0.11681 0.46058 0.44998 0.0
C179 C 0.06221 0.45679 0.45165 0.0
N180 N 0.08523 0.45095 0.42072 0.0
N181 N 0.12892 0.45646 0.43104 0.0
C182 C 0.98715 0.45102 0.4262 0.0
H183 H 0.98395 0.46889 0.41159 0.0
H184 H 0.96157 0.47357 0.43635 0.0
H185 H 0.97276 0.40957 0.42538 0.0
C186 C 0.09604 0.56015 0.35563 0.0
N187 N 0.08778 0.51007 0.36157 0.0
N188 N 0.08388 0.50957 0.38052 0.0
C189 C 0.08584 0.55962 0.38722 0.0
C190 C 0.09467 0.59388 0.3717 0.0
C191 C 0.10943 0.57391 0.33514 0.0
H192 H 0.13218 0.54117 0.32837 0.0
H193 H 0.0723 0.57924 0.32677 0.0
H194 H 0.13325 0.61076 0.3344 0.0
O195 O 0.1432 0.40015 0.3528 0.0
O196 O 0.14287 0.39716 0.38501 0.0
H197 H 0.11082 0.57306 0.41643 0.0
H198 H 0.05556 0.61391 0.40891 0.0
C199 C 0.07379 0.5741 0.4078 0.0
H200 H 0.04549 0.54556 0.41403 0.0
H201 H 0.16694 0.45773 0.42514 0.0
O202 O 0.07732 0.45702 0.31941 0.0
C203 C 0.16183 0.38284 0.3687 0.0
Co204 Co 0.05652 0.0804 0.84993 0.0
Co205 Co 0.05413 0.08087 0.89622 0.0
C206 C 0.1087 0.9955 0.8729 0.0
O207 O 0.09351 0.01532 0.85691 0.0
O208 O 0.09531 0.01587 0.88909 0.0
C209 C 0.09087 0.07462 0.81077 0.0
O210 O 0.1361 0.06832 0.81988 0.0
C211 C 0.03046 0.04475 0.93654 0.0
C212 C 0.04862 0.11774 0.95286 0.0
C213 C 0.03343 0.06544 0.95526 0.0
N214 N 0.04344 0.08318 0.92385 0.0
N215 N 0.05384 0.1267 0.93379 0.0
C216 C 0.01904 0.98881 0.93077 0.0
H217 H 0.03272 0.98096 0.9158 0.0
H218 H 0.97565 0.98216 0.93127 0.0
H219 H 0.03826 0.9608 0.94096 0.0
C220 C 0.94064 0.08729 0.85652 0.0
N221 N 0.99072 0.0849 0.86311 0.0
N222 N 0.99039 0.08947 0.88208 0.0
C223 C 0.94067 0.0991 0.88806 0.0
C224 C 0.90674 0.09697 0.87212 0.0
C225 C 0.92598 0.0751 0.83599 0.0
H226 H 0.95688 0.05024 0.82911 0.0
H227 H 0.88774 0.05363 0.83525 0.0
H228 H 0.92252 0.11264 0.82776 0.0
O229 O 0.10571 0.1387 0.85791 0.0
O230 O 0.10093 0.13967 0.8901 0.0
H231 H 0.88962 0.13748 0.90904 0.0
H232 H 0.92505 0.0796 0.91765 0.0
C233 C 0.92753 0.11533 0.90837 0.0
H234 H 0.95929 0.14113 0.91414 0.0
H235 H 0.06575 0.16236 0.92754 0.0
O236 O 0.04909 0.08167 0.82081 0.0
C237 C 0.1195 0.15751 0.87432 0.0
Co238 Co 0.41483 0.05702 0.35605 0.0
Co239 Co 0.39477 0.04932 0.40147 0.0
C240 C 0.48683 0.11002 0.38355 0.0
O241 O 0.47672 0.0964 0.36616 0.0
O242 O 0.45857 0.09364 0.3976 0.0
C243 C 0.46281 0.0454 0.31773 0.0
O244 O 0.50739 0.04162 0.32742 0.0
C245 C 0.42381 0.02152 0.4418 0.0
C246 C 0.3498 0.04073 0.45732 0.0
C247 C 0.40146 0.02395 0.46023 0.0
N248 N 0.38701 0.03627 0.42875 0.0
N249 N 0.34276 0.04718 0.43816 0.0
C250 C 0.48009 0.0093 0.4367 0.0
H251 H 0.48933 0.02249 0.42179 0.0
H252 H 0.48632 0.96586 0.43739 0.0
H253 H 0.5074 0.02842 0.44718 0.0
C254 C 0.41004 0.93904 0.36108 0.0
N255 N 0.40752 0.98887 0.36811 0.0
N256 N 0.39556 0.98665 0.38663 0.0
C257 C 0.38713 0.936 0.39173 0.0
C258 C 0.39674 0.90356 0.3758 0.0
C259 C 0.43006 0.92607 0.34124 0.0
H260 H 0.39788 0.93233 0.33055 0.0
H261 H 0.46323 0.95274 0.33758 0.0
H262 H 0.44476 0.88484 0.34017 0.0
O263 O 0.3526 0.10404 0.36191 0.0
O264 O 0.33604 0.09391 0.39332 0.0
H265 H 0.33743 0.94964 0.41642 0.0
H266 H 0.34666 0.8807 0.41051 0.0
C267 C 0.36638 0.9199 0.41116 0.0
H268 H 0.39962 0.91813 0.42163 0.0
H269 H 0.30815 0.06068 0.43155 0.0
O270 O 0.4195 0.05129 0.32694 0.0
C271 C 0.32563 0.11493 0.37705 0.0
Co272 Co 0.56436 0.92254 0.85317 0.0
Co273 Co 0.54975 0.91353 0.89853 0.0
C274 C 0.61464 -0.00062 0.8802 0.0
O275 O 0.60425 0.985 0.86294 0.0
O276 O 0.59517 0.97508 0.89461 0.0
C277 C 0.5617 0.96931 0.81496 0.0
O278 O 0.56156 0.01449 0.82441 0.0
C279 C 0.53022 0.95417 0.9375 0.0
C280 C 0.51934 0.88162 0.95481 0.0
C281 C 0.52212 0.93636 0.95631 0.0
N282 N 0.53287 0.91204 0.92559 0.0
N283 N 0.52617 0.86875 0.93602 0.0
C284 C 0.53156 0.01028 0.93053 0.0
H285 H 0.57298 0.02484 0.93082 0.0
H286 H 0.51696 0.01263 0.91541 0.0
H287 H 0.50685 0.03618 0.93987 0.0
C288 C 0.44865 0.91389 0.85461 0.0
N289 N 0.49566 0.91646 0.86362 0.0
N290 N 0.48829 0.91674 0.88246 0.0
C291 C 0.43572 0.91793 0.88603 0.0
C292 C 0.40855 0.91597 0.86842 0.0
C293 C 0.44306 0.90548 0.83324 0.0
H294 H 0.47408 0.87772 0.82809 0.0
H295 H 0.44853 0.94377 0.82564 0.0
H296 H 0.40373 0.88881 0.82952 0.0
O297 O 0.6057 0.8603 0.86024 0.0
O298 O 0.5964 0.85144 0.89212 0.0
H299 H 0.40505 0.88649 0.91244 0.0
H300 H 0.37472 0.94807 0.90508 0.0
C301 C 0.41247 0.92572 0.90577 0.0
H302 H 0.44011 0.94797 0.91509 0.0
H303 H 0.52708 0.83042 0.93037 0.0
O304 O 0.56241 0.92615 0.82442 0.0
C305 C 0.6161 0.83643 0.87599 0.0
Co306 Co 0.5648 0.55284 0.35571 0.0
Co307 Co 0.59215 0.55083 0.39989 0.0
C308 C 0.49758 0.6105 0.38272 0.0
O309 O 0.50388 0.59408 0.36545 0.0
O310 O 0.5286 0.59568 0.39619 0.0
C311 C 0.55087 0.5782 0.31584 0.0
O312 O 0.5496 0.62706 0.32239 0.0
C313 C 0.55877 0.51802 0.43817 0.0
C314 C 0.62451 0.54386 0.45698 0.0
C315 C 0.5748 0.52046 0.45738 0.0
N316 N 0.59716 0.53867 0.42704 0.0
N317 N 0.63659 0.55374 0.43833 0.0
C318 C 0.50621 0.50043 0.43047 0.0
H319 H 0.5003 0.51433 0.41543 0.0
H320 H 0.50466 0.45656 0.4303 0.0
H321 H 0.47371 0.51521 0.43986 0.0
C322 C 0.56894 0.43679 0.36175 0.0
N323 N 0.57291 0.48683 0.36832 0.0
N324 N 0.58909 0.48603 0.38635 0.0
C325 C 0.59865 0.43559 0.39163 0.0
C326 C 0.58577 0.40224 0.37624 0.0
C327 C 0.54517 0.42283 0.34255 0.0
H328 H 0.57689 0.42168 0.33144 0.0
H329 H 0.51564 0.45313 0.33826 0.0
H330 H 0.52531 0.38371 0.34305 0.0
O331 O 0.62814 0.59937 0.35928 0.0
O332 O 0.65031 0.59522 0.39045 0.0
H333 H 0.65077 0.45216 0.41545 0.0
H334 H 0.64622 0.38285 0.40901 0.0
C335 C 0.62369 0.4204 0.41046 0.0
H336 H 0.59245 0.41497 0.42156 0.0
H337 H 0.67098 0.57213 0.43337 0.0
O338 O 0.55663 0.54035 0.32771 0.0
C339 C 0.65747 0.61336 0.37343 0.0
Co340 Co 0.94044 0.60597 0.84909 0.0
Co341 Co 0.94725 0.57726 0.89338 0.0
C342 C 0.88599 0.50992 0.86656 0.0
O343 O 0.89897 0.54087 0.85284 0.0
O344 O 0.90343 0.51704 0.88371 0.0
C345 C 0.94506 0.5806 0.80899 0.0
O346 O 0.9437 0.53201 0.81573 0.0
C347 C 0.96609 0.5265 0.93155 0.0
C348 C 0.98263 0.59714 0.94945 0.0
C349 C 0.97828 0.54247 0.95037 0.0
N350 N 0.96329 0.56986 0.92027 0.0
N351 N 0.97315 0.61183 0.9311 0.0
C352 C 0.96042 0.47128 0.92395 0.0
H353 H 0.96878 0.47011 0.90819 0.0
H354 H 0.98775 0.44396 0.93159 0.0
H355 H 0.91913 0.45771 0.92625 0.0
C356 C 0.05614 0.60223 0.85264 0.0
N357 N 0.00755 0.60062 0.86056 0.0
N358 N 0.01117 0.58593 0.87875 0.0
C359 C 0.06258 0.57647 0.88288 0.0
C360 C 0.09295 0.58642 0.8664 0.0
C361 C 0.06669 0.61738 0.83206 0.0
H362 H 0.04111 0.65124 0.82793 0.0
H363 H 0.057 0.58346 0.82248 0.0
H364 H 0.1088 0.62843 0.82991 0.0
O365 O 0.89716 0.66172 0.86064 0.0
O366 O 0.89917 0.64015 0.89179 0.0
H367 H 0.07822 0.5821 0.91319 0.0
H368 H 0.1221 0.53728 0.90054 0.0
C369 C 0.0809 0.55216 0.90147 0.0
H370 H 0.05458 0.51875 0.9053 0.0
H371 H 0.97346 0.65062 0.92591 0.0
O372 O 0.94528 0.61916 0.82084 0.0
C373 C 0.88194 0.66884 0.878 0.0
Co374 Co 0.90026 0.94545 0.35315 0.0
Co375 Co 0.91663 0.93323 0.39849 0.0
C376 C 0.99189 0.8848 0.36992 0.0
O377 O 0.96492 0.90369 0.35599 0.0
O378 O 0.9796 0.89446 0.38754 0.0
C379 C 0.90519 0.92955 0.3125 0.0
O380 O 0.92256 0.88316 0.31826 0.0
C381 C 0.95867 0.9497 0.43851 0.0
C382 C 0.88569 0.93687 0.45549 0.0
C383 C 0.93847 0.95083 0.45729 0.0
N384 N 0.91928 0.93623 0.42629 0.0
N385 N 0.87608 0.92791 0.43664 0.0
C386 C 0.01282 0.96561 0.432 0.0
H387 H 0.01249 0.97593 0.41638 0.0
H388 H 0.02735 -0.00034 0.44067 0.0
H389 H 0.04038 0.9319 0.43416 0.0
C390 C 0.90808 0.05879 0.36415 0.0
N391 N 0.90475 0.00705 0.36875 0.0
N392 N 0.90694 0.00191 0.38766 0.0
C393 C 0.9075 0.05039 0.39578 0.0
C394 C 0.90968 0.08842 0.38118 0.0
C395 C 0.91691 0.07817 0.34392 0.0
H396 H 0.8781 0.08725 0.33717 0.0
H397 H 0.93699 0.04734 0.33517 0.0
H398 H 0.94173 0.11435 0.34375 0.0
O399 O 0.84137 0.89679 0.36081 0.0
O400 O 0.85561 0.88878 0.39239 0.0
H401 H 0.87462 0.03115 0.42351 0.0
H402 H 0.88764 0.10056 0.42013 0.0
C403 C 0.90253 0.06003 0.4171 0.0
H404 H 0.94171 0.05501 0.42407 0.0
H405 H 0.83943 0.91775 0.43074 0.0
O406 O 0.89155 0.96354 0.32516 0.0
C407 C 0.82987 0.87675 0.37721 0.0
Co408 Co 0.55018 0.59384 0.16029 0.0
Co409 Co 0.53728 0.58047 0.11527 0.0
C410 C 0.59851 0.50247 0.13882 0.0
O411 O 0.58784 0.52611 0.15467 0.0
O412 O 0.58013 0.51876 0.12272 0.0
C413 C 0.54364 0.56632 0.20045 0.0
O414 O 0.54236 0.51752 0.19385 0.0
C415 C 0.51869 0.5355 0.07637 0.0
C416 C 0.48703 0.60513 0.06083 0.0
C417 C 0.4989 0.55192 0.05861 0.0
N418 N 0.51768 0.57702 0.08859 0.0
N419 N 0.49894 0.61851 0.07918 0.0
C420 C 0.54125 0.4825 0.08149 0.0
H421 H 0.58163 0.48782 0.08746 0.0
H422 H 0.51647 0.46402 0.09289 0.0
H423 H 0.54391 0.45579 0.06879 0.0
C424 C 0.43389 0.60271 0.15766 0.0
N425 N 0.48179 0.59699 0.14941 0.0
N426 N 0.47584 0.58668 0.13091 0.0
C427 C 0.42376 0.58221 0.12698 0.0
C428 C 0.39506 0.59288 0.1438 0.0
C429 C 0.42605 0.61888 0.17833 0.0
H430 H 0.45625 0.64865 0.18247 0.0
H431 H 0.43102 0.58379 0.1878 0.0
H432 H 0.3861 0.63609 0.18064 0.0
O433 O 0.59587 0.64915 0.14988 0.0
O434 O 0.58622 0.64189 0.11805 0.0
H435 H 0.39705 0.59378 0.09792 0.0
H436 H 0.36466 0.53985 0.1103 0.0
C437 C 0.40284 0.56071 0.10826 0.0
H438 H 0.43144 0.53225 0.10196 0.0
H439 H 0.49395 0.65592 0.08535 0.0
O440 O 0.54679 0.60449 0.18857 0.0
C441 C 0.60771 0.6634 0.13278 0.0
Co442 Co 0.90794 0.55702 0.654 0.0
Co443 Co 0.89265 0.55092 0.60912 0.0
C444 C 0.97816 0.61751 0.62892 0.0
O445 O 0.96825 0.60104 0.64592 0.0
O446 O 0.95187 0.60073 0.61442 0.0
C447 C 0.92128 0.58546 0.69375 0.0
O448 O 0.92881 0.63301 0.68657 0.0
C449 C 0.93674 0.52921 0.57128 0.0
C450 C 0.86671 0.527 0.55217 0.0
C451 C 0.92145 0.52258 0.55217 0.0
N452 N 0.89328 0.53759 0.58203 0.0
N453 N 0.85144 0.53633 0.57056 0.0
C454 C 0.99126 0.52478 0.5796 0.0
H455 H 0.98923 0.51096 0.59483 0.0
H456 H 0.01592 0.49711 0.57093 0.0
H457 H 0.01021 0.5644 0.57949 0.0
C458 C 0.91447 0.44035 0.64862 0.0
N459 N 0.90806 0.48978 0.6417 0.0
N460 N 0.89766 0.48718 0.62312 0.0
C461 C 0.89429 0.43607 0.61773 0.0
C462 C 0.90541 0.40421 0.63368 0.0
C463 C 0.93346 0.42882 0.66871 0.0
H464 H 0.95895 0.46153 0.67398 0.0
H465 H 0.95647 0.39143 0.66922 0.0
H466 H 0.89883 0.4254 0.67852 0.0
O467 O 0.84294 0.59937 0.64779 0.0
O468 O 0.82857 0.58938 0.61622 0.0
H469 H 0.86035 0.37793 0.59831 0.0
H470 H 0.91089 0.42002 0.58795 0.0
C471 C 0.87671 0.41867 0.59803 0.0
H472 H 0.84578 0.44594 0.59254 0.0
H473 H 0.81256 0.54185 0.57527 0.0
O474 O 0.91117 0.54731 0.68235 0.0
C475 C 0.81584 0.60887 0.63257 0.0
Co476 Co 0.93286 0.91952 0.15658 0.0
Co477 Co 0.93784 0.89972 0.11126 0.0
C478 C 0.87675 0.99093 0.13023 0.0
O479 O 0.89216 0.98099 0.1474 0.0
O480 O 0.89257 0.96322 0.11587 0.0
C481 C 0.91538 0.94901 0.197 0.0
O482 O 0.88112 0.98343 0.1902 0.0
C483 C 0.96414 0.92898 0.07073 0.0
C484 C 0.94701 0.85412 0.05543 0.0
C485 C 0.96249 0.90608 0.05235 0.0
N486 N 0.9502 0.89218 0.08389 0.0
N487 N 0.94049 0.84745 0.0746 0.0
C488 C 0.97504 0.98559 0.07571 0.0
H489 H 0.96054 0.99508 0.09045 0.0
H490 H 0.01842 0.9924 0.07544 0.0
H491 H 0.95628 0.01232 0.06497 0.0
C492 C 0.04854 0.91713 0.15142 0.0
N493 N -0.00072 0.91367 0.14418 0.0
N494 N 0.0018 0.90125 0.12573 0.0
C495 C 0.05289 0.89371 0.12081 0.0
C496 C 0.08469 0.90383 0.13694 0.0
C497 C 0.0601 0.93796 0.17129 0.0
H498 H 0.02825 0.96535 0.17599 0.0
H499 H 0.09831 0.95955 0.17166 0.0
H500 H 0.06184 0.9044 0.18162 0.0
O501 O 0.8877 0.8572 0.15105 0.0
O502 O 0.89267 0.84062 0.1195 0.0
H503 H 0.10908 0.85393 0.10216 0.0
H504 H 0.07273 0.9079 0.0912 0.0
C505 C 0.07004 0.874 0.10135 0.0
H506 H 0.0404 0.84574 0.09557 0.0
H507 H 0.92799 0.81266 0.08133 0.0
O508 O 0.94146 0.9202 0.18526 0.0
C509 C 0.87434 0.8303 0.13623 0.0
Co510 Co 0.56948 0.94356 0.66227 0.0
Co511 Co 0.57272 0.93634 0.61649 0.0
C512 C 0.48435 0.88913 0.63992 0.0
O513 O 0.50454 0.90599 0.65561 0.0
O514 O 0.50513 0.89982 0.62356 0.0
C515 C 0.56528 0.91382 0.70092 0.0
O516 O 0.56287 0.8678 0.69206 0.0
C517 C 0.53985 0.95706 0.57586 0.0
C518 C 0.61085 0.93058 0.5599 0.0
C519 C 0.56011 0.95028 0.55721 0.0
N520 N 0.57698 0.94202 0.58875 0.0
N521 N 0.61937 0.92659 0.57906 0.0
C522 C 0.48526 0.97431 0.58145 0.0
H523 H 0.4764 0.96318 0.59661 0.0
H524 H 0.48255 0.01804 0.58035 0.0
H525 H 0.45546 0.95658 0.57158 0.0
C526 C 0.58134 0.05681 0.65356 0.0
N527 N 0.57688 0.00617 0.64783 0.0
N528 N 0.58241 0.00329 0.62894 0.0
C529 C 0.59382 0.05194 0.62211 0.0
C530 C 0.59315 0.08798 0.63749 0.0
C531 C 0.56918 0.07476 0.67376 0.0
H532 H 0.6062 0.07496 0.6824 0.0
H533 H 0.54072 0.0473 0.68067 0.0
H534 H 0.55169 0.11506 0.67385 0.0
O535 O 0.62811 0.89343 0.65692 0.0
O536 O 0.62817 0.88626 0.62483 0.0
H537 H 0.63289 0.02889 0.59586 0.0
H538 H 0.63283 0.09922 0.60026 0.0
C539 C 0.60915 0.06241 0.60154 0.0
H540 H 0.57286 0.06604 0.59259 0.0
H541 H 0.65384 0.91226 0.58553 0.0
O542 O 0.56881 0.95558 0.69074 0.0
C543 C 0.64567 0.87266 0.64139 0.0
H544 H 0.48957 0.98708 0.22919 0.0
H545 H 0.38129 0.11798 0.22301 0.0
H546 H 0.37771 0.12849 0.25824 0.0
H547 H 0.40555 0.10022 0.291 0.0
H548 H 0.52087 0.9754 0.29681 0.0
H549 H 0.52153 0.96253 0.2617 0.0
C550 C 0.46516 0.01783 0.23559 0.0
C551 C 0.43539 0.05142 0.22354 0.0
C552 C 0.46457 0.02464 0.25583 0.0
C553 C 0.40462 0.09168 0.23199 0.0
C554 C 0.40244 0.09759 0.25213 0.0
C555 C 0.43065 0.07018 0.28452 0.0
C556 C 0.46281 0.0385 0.29644 0.0
C557 C 0.43219 0.06426 0.26422 0.0
C558 C 0.49585 0.00027 0.2879 0.0
C559 C 0.49617 0.99286 0.26783 0.0
H560 H 0.53121 0.4928 0.78568 0.0
H561 H 0.42468 0.35959 0.78967 0.0
H562 H 0.41941 0.35482 0.75454 0.0
H563 H 0.44242 0.38992 0.72272 0.0
H564 H 0.55112 0.52094 0.71813 0.0
H565 H 0.55837 0.52498 0.75344 0.0
C566 C 0.50701 0.46267 0.77883 0.0
C567 C 0.47813 0.42689 0.79029 0.0
C568 C 0.50444 0.45978 0.75853 0.0
C569 C 0.44735 0.38767 0.78122 0.0
C570 C 0.44416 0.38494 0.76111 0.0
C571 C 0.46778 0.41932 0.72945 0.0
C572 C 0.49587 0.45531 0.71788 0.0
C573 C 0.47211 0.42105 0.74965 0.0
C574 C 0.52912 0.49274 0.72676 0.0
C575 C 0.53315 0.49517 0.74693 0.0
H576 H 0.11597 0.45712 0.28582 0.0
H577 H 0.9456 0.46969 0.28761 0.0
H578 H 0.94182 0.46216 0.25236 0.0
H579 H 0.98698 0.44859 0.22103 0.0
H580 H 0.15751 0.43581 0.21984 0.0
H581 H 0.16091 0.44661 0.25479 0.0
C582 C 0.07796 0.45854 0.27853 0.0
C583 C 0.03116 0.46371 0.28938 0.0
C584 C 0.07602 0.45375 0.25832 0.0
C585 C 0.9823 0.46567 0.27963 0.0
C586 C 0.98007 0.46119 0.25946 0.0
C587 C 0.02484 0.4482 0.22843 0.0
C588 C 0.07184 0.44109 0.2178 0.0
C589 C 0.02666 0.45457 0.24866 0.0
C590 C 0.12063 0.44104 0.22762 0.0
C591 C 0.12271 0.44727 0.24765 0.0
H592 H 0.00531 0.08693 0.78656 0.0
H593 H 0.17366 0.05713 0.78628 0.0
H594 H 0.17327 0.05272 0.75108 0.0
H595 H 0.12573 0.05783 0.7201 0.0
H596 H 0.95767 0.0887 0.72008 0.0
H597 H 0.95754 0.09194 0.75539 0.0
C598 C 0.04191 0.0795 0.77881 0.0
C599 C 0.08942 0.07246 0.7892 0.0
C600 C 0.04157 0.07708 0.75838 0.0
C601 C 0.13642 0.06282 0.7788 0.0
C602 C 0.13631 0.06021 0.75858 0.0
C603 C 0.08901 0.06511 0.72779 0.0
C604 C 0.04182 0.07298 0.71732 0.0
C605 C 0.08919 0.06732 0.74819 0.0
C606 C 0.99469 0.08253 0.72765 0.0
C607 C 0.99453 0.08443 0.74792 0.0
H608 H 0.55843 0.88302 0.79148 0.0
H609 H 0.56484 0.05377 0.79016 0.0
H610 H 0.5664 0.052 0.75479 0.0
H611 H 0.5668 0.00169 0.72414 0.0
H612 H 0.56027 0.83087 0.72593 0.0
H613 H 0.55801 0.83314 0.76114 0.0
C614 C 0.56016 0.91992 0.78349 0.0
C615 C 0.56165 0.96843 0.7935 0.0
C616 C 0.56112 0.91865 0.76318 0.0
C617 C 0.56368 0.01582 0.78285 0.0
C618 C 0.56463 0.01486 0.7626 0.0
C619 C 0.56489 0.96499 0.73224 0.0
C620 C 0.56382 0.91621 0.72235 0.0
C621 C 0.56353 0.96647 0.7526 0.0
C622 C 0.56121 0.86903 0.7331 0.0
C623 C 0.5599 0.87022 0.75328 0.0
H624 H 0.54151 0.64947 0.28657 0.0
H625 H 0.55293 0.48175 0.29795 0.0
H626 H 0.55043 0.46324 0.26331 0.0
H627 H 0.5471 0.49464 0.22976 0.0
H628 H 0.53655 0.6624 0.21838 0.0
H629 H 0.53647 0.68076 0.25305 0.0
C630 C 0.54328 0.60886 0.28149 0.0
C631 C 0.54754 0.56715 0.29485 0.0
C632 C 0.54207 0.59842 0.26154 0.0
C633 C 0.54973 0.5147 0.28799 0.0
C634 C 0.54833 0.50402 0.26817 0.0
C635 C 0.54459 0.53521 0.23485 0.0
C636 C 0.54206 0.57704 0.22148 0.0
C637 C 0.54482 0.54558 0.25481 0.0
C638 C 0.53883 0.62941 0.22835 0.0
C639 C 0.53874 0.64 0.24818 0.0
H640 H 0.93924 0.65813 0.72217 0.0
H641 H 0.91232 0.4912 0.71273 0.0
H642 H 0.91878 0.47501 0.74742 0.0
H643 H 0.93095 0.50809 0.78044 0.0
H644 H 0.95671 0.67501 0.79012 0.0
H645 H 0.95205 0.69121 0.75531 0.0
C646 C 0.93481 0.6182 0.72769 0.0
C647 C 0.92521 0.57601 0.71484 0.0
C648 C 0.93844 0.60909 0.7477 0.0
C649 C 0.91959 0.52449 0.72227 0.0
C650 C 0.92335 0.51513 0.74212 0.0
C651 C 0.93581 0.54801 0.77496 0.0
C652 C 0.94415 0.59025 0.78788 0.0
C653 C 0.93266 0.55712 0.75496 0.0
C654 C 0.95013 0.64176 0.7805 0.0
C655 C 0.94745 0.65108 0.76059 0.0
H656 H 0.95225 0.87572 0.28323 0.0
H657 H 0.85349 0.01167 0.29473 0.0
H658 H 0.84867 0.03048 0.26001 0.0
H659 H 0.8711 0.00693 0.2263 0.0
H660 H 0.97228 0.8722 0.21534 0.0
H661 H 0.97774 0.85461 0.24994 0.0
C662 C 0.92957 0.90945 0.27817 0.0
C663 C 0.90286 0.94194 0.29155 0.0
C664 C 0.92749 0.92034 0.25827 0.0
C665 C 0.87428 0.98592 0.28473 0.0
C666 C 0.8715 0.99668 0.26488 0.0
C667 C 0.89452 0.97385 0.23148 0.0
C668 C 0.92096 0.94079 0.21817 0.0
C669 C 0.89776 0.96399 0.2515 0.0
C670 C 0.95142 0.8983 0.2252 0.0
C671 C 0.9545 0.88808 0.24501 0.0
H672 H 0.52919 0.09312 0.02783 0.0
H673 H 0.42064 0.97745 0.05077 0.0
H674 H 0.42838 0.9251 0.02118 0.0
H675 H 0.4642 0.91332 0.98828 0.0
H676 H 0.57516 0.02768 0.9659 0.0
H677 H 0.56755 0.07963 0.99546 0.0
C678 C 0.50743 0.05632 0.02635 0.0
C679 C 0.47522 0.03872 0.04163 0.0
C680 C 0.51185 0.02653 0.00922 0.0
C681 C 0.44702 0.99111 0.0395 0.0
C682 C 0.45096 0.96141 0.02247 0.0
C683 C 0.48672 0.94962 0.98989 0.0
C684 C 0.51861 0.9675 0.97453 0.0
C685 C 0.48312 0.97882 0.0072 0.0
C686 C 0.54823 0.01416 0.977 0.0
C687 C 0.54454 0.04361 0.99408 0.0
H688 H 0.57474 0.57276 0.49153 0.0
H689 H 0.50779 0.43624 0.46309 0.0
H690 H 0.45486 0.41675 0.49172 0.0
H691 H 0.42827 0.43784 0.52525 0.0
H692 H 0.49809 0.57195 0.55412 0.0
H693 H 0.54938 0.59306 0.52505 0.0
C694 C 0.54867 0.53865 0.49163 0.0
C695 C 0.54421 0.50687 0.47499 0.0
C696 C 0.51893 0.52722 0.50827 0.0
C697 C 0.51052 0.46261 0.47538 0.0
C698 C 0.4806 0.45107 0.49186 0.0
C699 C 0.45458 0.47177 0.52504 0.0
C700 C 0.46001 0.50315 0.54169 0.0
C701 C 0.4843 0.48321 0.50836 0.0
C702 C 0.49405 0.54701 0.54143 0.0
C703 C 0.52323 0.55906 0.52485 0.0
H704 H 0.0391 0.56825 0.98105 0.0
H705 H 0.93239 0.44698 0.96067 0.0
H706 H 0.94445 0.39798 0.99068 0.0
H707 H 0.98293 0.39104 0.02346 0.0
H708 H 0.08545 0.51511 0.04427 0.0
H709 H 0.07651 0.562 0.01359 0.0
C710 C 0.01851 0.53101 0.9831 0.0
C711 C 0.98607 0.5108 0.96827 0.0
C712 C 0.02426 0.50386 1.00067 0.0
C713 C 0.9594 0.46266 0.97134 0.0
C714 C 0.96563 0.43488 0.98871 0.0
C715 C 0.0033 0.42832 0.0212 0.0
C716 C 0.03398 0.45013 0.03621 0.0
C717 C -0.00221 0.45522 1.00351 0.0
C718 C 0.0604 0.49829 0.03315 0.0
C719 C 0.05569 0.52487 0.01554 0.0
H720 H 0.00547 0.03446 0.5398 0.0
H721 H 0.14992 0.95252 0.52514 0.0
H722 H 0.11323 0.92885 0.49356 0.0
H723 H 0.03886 0.92944 0.47034 0.0
H724 H 0.8938 0.00922 0.48579 0.0
H725 H 0.93145 0.03453 0.51695 0.0
C726 C 0.02854 0.01029 0.52998 0.0
C727 C 0.07995 0.99421 0.53512 0.0
C728 C 0.00708 0.99655 0.51187 0.0
C729 C 0.11004 0.96511 0.52165 0.0
C730 C 0.0891 0.95151 0.50357 0.0
C731 C 0.01587 0.95306 0.4804 0.0
C732 C 0.9638 0.9679 0.47564 0.0
C733 C 0.03758 0.96695 0.4985 0.0
C734 C 0.934 0.99728 0.48909 0.0
C735 C 0.95549 0.01181 0.50693 0.0
H736 H 0.52077 0.58223 0.0221 0.0
H737 H 0.45573 0.45314 0.05517 0.0
H738 H 0.44085 0.40262 0.02542 0.0
H739 H 0.4457 0.39569 0.98985 0.0
H740 H 0.5116 0.52481 0.95699 0.0
H741 H 0.52613 0.57514 0.9867 0.0
C742 C 0.50345 0.54297 0.02274 0.0
C743 C 0.49058 0.52081 0.04076 0.0
C744 C 0.4946 0.5145 0.0056 0.0
C745 C 0.46762 0.47022 0.04147 0.0
C746 C 0.45861 0.44158 0.02447 0.0
C747 C 0.46306 0.43493 0.98926 0.0
C748 C 0.47598 0.45727 0.97127 0.0
C749 C 0.47201 0.46332 0.00645 0.0
C750 C 0.49931 0.50771 0.97063 0.0
C751 C 0.50821 0.53624 0.98763 0.0
H752 H 0.90258 0.45703 0.52203 0.0
H753 H 0.01514 0.57106 0.54353 0.0
H754 H 0.06972 0.55896 0.5147 0.0
H755 H 0.08391 0.51813 0.48278 0.0
H756 H 0.97245 0.40243 0.46163 0.0
H757 H 0.91881 0.41331 0.49073 0.0
C758 C 0.93916 0.47905 0.52037 0.0
C759 C 0.95526 0.51423 0.53498 0.0
C760 C 0.97025 0.47199 0.50372 0.0
C761 C 0.00263 0.54267 0.53272 0.0
C762 C 0.03362 0.53613 0.51615 0.0
C763 C 0.04801 0.49513 0.48461 0.0
C764 C 0.0313 0.46083 0.4698 0.0
C765 C 0.01772 0.50105 0.50152 0.0
C766 C 0.98508 0.43074 0.47245 0.0
C767 C 0.95463 0.43652 0.48919 0.0
H768 H 0.96404 0.98623 0.96558 0.0
H769 H 0.08745 0.08669 0.98827 0.0
H770 H 0.07689 0.04703 0.02018 0.0
H771 H 0.03339 0.98316 0.04168 0.0
H772 H 0.90987 0.8827 0.01914 0.0
H773 H 0.92105 0.9216 0.98708 0.0
C774 C 0.98943 -0.0013 0.97735 0.0
C775 C 0.0271 0.03888 0.97434 0.0
C776 C 0.98314 0.97569 0.99578 0.0
C777 C 0.05816 0.0558 0.9901 0.0
C778 C 0.05224 0.03307 0.00839 0.0
C779 C 0.00815 0.97048 0.0299 0.0
C780 C 0.97006 0.9308 0.033 0.0
C781 C 0.01472 0.99311 0.01144 0.0
C782 C 0.93937 0.91336 0.01723 0.0
C783 C 0.94564 0.93567 0.99886 0.0
H784 H 0.4859 0.02456 0.54635 0.0
H785 H 0.57783 0.89339 0.52448 0.0
H786 H 0.53795 0.9044 0.49259 0.0
H787 H 0.47557 0.95007 0.47099 0.0
H788 H 0.38261 0.0802 0.493 0.0
H789 H 0.42271 0.0694 0.52491 0.0
C790 C 0.49637 0.9975 0.53482 0.0
C791 C 0.53414 0.95747 0.53805 0.0
C792 C 0.47299 0.00382 0.51646 0.0
C793 C 0.54876 0.92447 0.5225 0.0
C794 C 0.52587 0.93062 0.50422 0.0
C795 C 0.46478 0.97671 0.48263 0.0
C796 C 0.42684 0.01655 0.47945 0.0
C797 C 0.48794 0.97019 0.50101 0.0
C798 C 0.41185 0.04929 0.49501 0.0
C799 C 0.43486 0.04324 0.51327 0.0
H800 H 0.64552 0.05437 0.11347 0.0
H801 H 0.65559 0.11907 0.17117 0.0
H802 H 0.7505 0.09914 0.1719 0.0
H803 H 0.82809 0.05505 0.15694 0.0
H804 H 0.81746 0.00193 0.09755 0.0
H805 H 0.72574 0.03034 0.09616 0.0
C806 C 0.66843 0.06645 0.12596 0.0
C807 C 0.64297 0.08758 0.14234 0.0
C808 C 0.72313 0.05772 0.12586 0.0
C809 C 0.6737 0.10111 0.15857 0.0
C810 C 0.72815 0.09042 0.1589 0.0
C811 C 0.80625 0.05115 0.1435 0.0
C812 C 0.82943 0.02492 0.12756 0.0
C813 C 0.75303 0.06752 0.14274 0.0
C814 C 0.8007 0.02118 0.11017 0.0
C815 C 0.74789 0.03691 0.10939 0.0
H816 H 0.47873 0.82133 0.66947 0.0
H817 H 0.41242 0.85166 0.61303 0.0
H818 H 0.37545 0.76167 0.61237 0.0
H819 H 0.37528 0.67059 0.62576 0.0
H820 H 0.46768 0.63954 0.67716 0.0
H821 H 0.47899 0.73326 0.68239 0.0
C822 C 0.4549 0.8091 0.65719 0.0
C823 C 0.44827 0.84324 0.64132 0.0
C824 C 0.43882 0.75635 0.65605 0.0
C825 C 0.41787 0.82616 0.62546 0.0
C826 C 0.39734 0.77455 0.62501 0.0
C827 C 0.39851 0.6842 0.63796 0.0
C828 C 0.42049 0.64732 0.65101 0.0
C829 C 0.41002 0.73848 0.63981 0.0
C830 C 0.44868 0.66625 0.66714 0.0
C831 C 0.45606 0.72021 0.67001 0.0
H832 H 0.81349 0.38697 0.15553 0.0
H833 H 0.84894 0.46353 0.1012 0.0
H834 H 0.7562 0.48415 0.09663 0.0
H835 H 0.66816 0.49258 0.10987 0.0
H836 H 0.63419 0.43492 0.16725 0.0
H837 H 0.72271 0.39484 0.16892 0.0
C838 C 0.80088 0.40825 0.14273 0.0
C839 C 0.83837 0.42282 0.1286 0.0
C840 C 0.74755 0.42362 0.14081 0.0
C841 C 0.82112 0.44996 0.11201 0.0
C842 C 0.76795 0.46252 0.10947 0.0
C843 C 0.67933 0.46986 0.12255 0.0
C844 C 0.64449 0.46629 0.13835 0.0
C845 C 0.73116 0.45079 0.12398 0.0
C846 C 0.66023 0.4378 0.15484 0.0
C847 C 0.71099 0.41544 0.15586 0.0
H848 H 0.03995 0.66731 0.65603 0.0
H849 H 0.99088 0.67595 0.59617 0.0
H850 H 0.02383 0.76604 0.59411 0.0
H851 H 0.05319 0.8459 0.61053 0.0
H852 H 0.1127 0.83708 0.66895 0.0
H853 H 0.08659 0.74382 0.67061 0.0
C854 C 0.03769 0.68838 0.64238 0.0
C855 C 0.0118 0.66508 0.62642 0.0
C856 C 0.05684 0.74059 0.64122 0.0
C857 C 0.00997 0.69284 0.60879 0.0
C858 C 0.02842 0.74468 0.6076 0.0
C859 C 0.06266 0.82343 0.62341 0.0
C860 C 0.08457 0.84887 0.63964 0.0
C861 C 0.04996 0.76952 0.62392 0.0
C862 C 0.09455 0.81897 0.6564 0.0
C863 C 0.0802 0.76545 0.65728 0.0
H864 H 0.66078 0.43612 0.84533 0.0
H865 H 0.66614 0.36997 0.90282 0.0
H866 H 0.75986 0.39319 0.90531 0.0
H867 H 0.8367 0.44306 0.89231 0.0
H868 H 0.8319 0.49623 0.83287 0.0
H869 H 0.74233 0.4633 0.82957 0.0
C870 C 0.68245 0.42439 0.85812 0.0
C871 C 0.65564 0.40278 0.87407 0.0
C872 C 0.73676 0.43523 0.85908 0.0
C873 C 0.68508 0.38893 0.89061 0.0
C874 C 0.73892 0.40157 0.89197 0.0
C875 C 0.81671 0.446 0.87846 0.0
C876 C 0.84057 0.4739 0.86312 0.0
C877 C 0.76475 0.42651 0.87649 0.0
C878 C 0.81435 0.47615 0.84514 0.0
C879 C 0.76276 0.45762 0.84321 0.0
H880 H 0.05826 0.66229 0.34421 0.0
H881 H 0.13482 0.65992 0.40002 0.0
H882 H 0.11427 0.75372 0.40443 0.0
H883 H 0.06155 0.8322 0.39397 0.0
H884 H 0.0044 0.83648 0.33502 0.0
H885 H 0.03452 0.74679 0.3298 0.0
C886 C 0.0731 0.68215 0.35698 0.0
C887 C 0.09556 0.65294 0.37218 0.0
C888 C 0.06479 0.73674 0.35885 0.0
C889 C 0.11412 0.6805 0.38857 0.0
C890 C 0.10316 0.73445 0.39101 0.0
C891 C 0.05728 0.81419 0.37979 0.0
C892 C 0.02825 0.84038 0.36527 0.0
C893 C 0.07623 0.76244 0.37654 0.0
C894 C 0.02482 0.81696 0.34678 0.0
C895 C 0.04187 0.76528 0.34371 0.0
H896 H 0.84212 0.06002 0.90046 0.0
H897 H 0.83756 0.13315 0.84406 0.0
H898 H 0.74274 0.11476 0.84191 0.0
H899 H 0.66444 0.06654 0.8548 0.0
H900 H 0.66911 0.01 0.91382 0.0
H901 H 0.76022 0.03834 0.91683 0.0
C902 C 0.82063 0.07486 0.88807 0.0
C903 C 0.8478 0.09656 0.87223 0.0
C904 C 0.76582 0.0677 0.88748 0.0
C905 C 0.81836 0.11382 0.85612 0.0
C906 C 0.76388 0.10411 0.85499 0.0
C907 C 0.68484 0.06209 0.86852 0.0
C908 C 0.6605 0.03435 0.88377 0.0
C909 C 0.73757 0.0792 0.87036 0.0
C910 C 0.68698 0.03019 0.90164 0.0
C911 C 0.73946 0.04594 0.90338 0.0
H912 H 0.43332 0.83882 0.4041 0.0
H913 H 0.36571 0.83547 0.34679 0.0
H914 H 0.38477 0.74059 0.34442 0.0
H915 H 0.43126 0.66185 0.35744 0.0
H916 H 0.48768 0.66533 0.4165 0.0
H917 H 0.45837 0.75637 0.41983 0.0
C918 C 0.42057 0.81732 0.39136 0.0
C919 C 0.39945 0.84471 0.37544 0.0
C920 C 0.42922 0.7626 0.39046 0.0
C921 C 0.3841 0.81577 0.35897 0.0
C922 C 0.39439 0.76139 0.35769 0.0
C923 C 0.43566 0.68192 0.37123 0.0
C924 C 0.46331 0.65712 0.38645 0.0
C925 C 0.41861 0.73473 0.37315 0.0
C926 C 0.46759 0.68352 0.40435 0.0
C927 C 0.45121 0.73592 0.40627 0.0
H928 H 0.18193 0.99312 0.84514 0.0
H929 H 0.14194 0.92192 0.89991 0.0
H930 H 0.23098 0.88265 0.90173 0.0
H931 H 0.32351 0.87924 0.88952 0.0
H932 H 0.36391 0.97353 0.8395 0.0
H933 H 0.27147 0.99158 0.83366 0.0
C934 C 0.19188 0.96779 0.85728 0.0
C935 C 0.1552 0.96003 0.87229 0.0
C936 C 0.24387 0.94984 0.85906 0.0
C937 C 0.16942 0.92806 0.88809 0.0
C938 C 0.22044 0.90619 0.88921 0.0
C939 C 0.31213 0.90409 0.87745 0.0
C940 C 0.35109 0.9241 0.86479 0.0
C941 C 0.25871 0.91876 0.87514 0.0
C942 C 0.33523 0.95554 0.84905 0.0
C943 C 0.28214 0.96673 0.84584 0.0
H944 H 0.54998 0.16183 0.3575 0.0
H945 H 0.50301 0.1622 0.41765 0.0
H946 H 0.53427 0.25262 0.42114 0.0
H947 H 0.5575 0.33611 0.40549 0.0
H948 H 0.61225 0.33562 0.34636 0.0
H949 H 0.59387 0.24083 0.34398 0.0
C950 C 0.54804 0.18104 0.37154 0.0
C951 C 0.5225 0.15565 0.38709 0.0
C952 C 0.56572 0.23356 0.37348 0.0
C953 C 0.52148 0.1809 0.40527 0.0
C954 C 0.53896 0.23297 0.40729 0.0
C955 C 0.56748 0.31519 0.3923 0.0
C956 C 0.5847 0.34339 0.37595 0.0
C957 C 0.55847 0.26049 0.39123 0.0
C958 C 0.59682 0.31527 0.35893 0.0
C959 C 0.58687 0.26094 0.35762 0.0
H960 H 0.17977 0.61137 0.88809 0.0
H961 H 0.13112 0.5269 0.83682 0.0
H962 H 0.22149 0.49655 0.83156 0.0
H963 H 0.31138 0.48478 0.84357 0.0
H964 H 0.35917 0.56032 0.89679 0.0
H965 H 0.27275 0.60384 0.89916 0.0
C966 C 0.18926 0.58656 0.87574 0.0
C967 C 0.14892 0.57155 0.86284 0.0
C968 C 0.24121 0.56757 0.87318 0.0
C969 C 0.16159 0.53972 0.8468 0.0
C970 C 0.21324 0.522 0.84384 0.0
C971 C 0.30355 0.51196 0.85541 0.0
C972 C 0.34167 0.51925 0.86999 0.0
C973 C 0.25308 0.53467 0.85716 0.0
C974 C 0.33045 0.554 0.88538 0.0
C975 C 0.28089 0.57855 0.88682 0.0
H976 H 0.0028 0.31317 0.3989 0.0
H977 H 0.92373 0.3514 0.34539 0.0
H978 H 0.88193 0.26334 0.34525 0.0
H979 H 0.87581 0.17249 0.35901 0.0
H980 H 0.97484 0.13305 0.40792 0.0
H981 H -0.00053 0.22483 0.4116 0.0
C982 C 0.97539 0.30302 0.38739 0.0
C983 C 0.96574 0.33904 0.37231 0.0
C984 C 0.95522 0.25167 0.38664 0.0
C985 C 0.93129 0.32447 0.35726 0.0
C986 C 0.90784 0.27405 0.35712 0.0
C987 C 0.903 0.18397 0.37039 0.0
C988 C 0.92228 0.14561 0.38345 0.0
C989 C 0.92094 0.23669 0.37146 0.0
C990 C 0.95721 0.1615 0.39818 0.0
C991 C 0.97219 0.21412 0.40013 0.0
H992 H 0.16733 0.51475 0.16489 0.0
H993 H 0.13677 0.56716 0.10656 0.0
H994 H 0.22412 0.60961 0.10552 0.0
H995 H 0.3136 0.61975 0.11963 0.0
H996 H 0.34679 0.5475 0.17493 0.0
H997 H 0.25391 0.5266 0.17905 0.0
C998 C 0.17896 0.53671 0.1521 0.0
C999 C 0.14557 0.53791 0.13583 0.0
C1000 C 0.23028 0.55714 0.15108 0.0
C1001 C 0.16177 0.56585 0.11929 0.0
C1002 C 0.21185 0.58964 0.11865 0.0
C1003 C 0.30042 0.59943 0.13256 0.0
C1004 C 0.33736 0.58559 0.14698 0.0
C1005 C 0.2473 0.58344 0.13416 0.0
C1006 C 0.31943 0.56012 0.16382 0.0
C1007 C 0.26621 0.54735 0.16608 0.0
H1008 H 0.94897 0.16446 0.65278 0.0
H1009 H 0.01025 0.16899 0.59441 0.0
H1010 H 0.97788 0.25895 0.5906 0.0
H1011 H 0.94742 0.34072 0.60583 0.0
H1012 H 0.87677 0.33555 0.66264 0.0
H1013 H 0.89952 0.24172 0.66533 0.0
C1014 C 0.95391 0.18454 0.63904 0.0
C1015 C 0.98334 0.16033 0.62412 0.0
C1016 C 0.9353 0.23669 0.63689 0.0
C1017 C 0.98843 0.18666 0.60627 0.0
C1018 C 0.97037 0.23848 0.60411 0.0
C1019 C 0.93498 0.31892 0.61852 0.0
C1020 C 0.91151 0.34564 0.63419 0.0
C1021 C 0.94605 0.26462 0.61963 0.0
C1022 C 0.89673 0.31647 0.65064 0.0
C1023 C 0.90914 0.26263 0.65211 0.0
H1024 H 0.15348 0.93755 0.10925 0.0
H1025 H 0.14879 0.87474 0.16724 0.0
H1026 H 0.24229 0.89649 0.17157 0.0
H1027 H 0.32149 0.94499 0.16006 0.0
H1028 H 0.32722 0.99597 0.1004 0.0
H1029 H 0.23807 0.96359 0.09522 0.0
C1030 C 0.17304 0.92637 0.12258 0.0
C1031 C 0.14347 0.90618 0.13811 0.0
C1032 C 0.22725 0.9367 0.12467 0.0
C1033 C 0.16999 0.89264 0.15532 0.0
C1034 C 0.22366 0.9045 0.15775 0.0
C1035 C 0.30388 0.9476 0.14578 0.0
C1036 C 0.33056 0.97463 0.13089 0.0
C1037 C 0.2522 0.92848 0.14274 0.0
C1038 C 0.30745 0.97646 0.11233 0.0
C1039 C 0.2561 0.95825 0.10932 0.0
H1040 H 0.57695 0.33038 0.65533 0.0
H1041 H 0.51091 0.32957 0.59764 0.0
H1042 H 0.53633 0.23772 0.59353 0.0
H1043 H 0.55857 0.15399 0.60904 0.0
H1044 H 0.63788 0.15485 0.66433 0.0
H1045 H 0.62448 0.2504 0.66687 0.0
C1046 C 0.56981 0.31065 0.64163 0.0
C1047 C 0.54039 0.3364 0.62713 0.0
C1048 C 0.58501 0.25747 0.63917 0.0
C1049 C 0.53263 0.31066 0.60925 0.0
C1050 C 0.5467 0.25775 0.60689 0.0
C1051 C 0.57534 0.17491 0.62126 0.0
C1052 C 0.59724 0.1467 0.63683 0.0
C1053 C 0.57013 0.23008 0.62217 0.0
C1054 C 0.61822 0.17518 0.65258 0.0
C1055 C 0.6112 0.22997 0.65395 0.0
H1056 H 0.19177 0.32827 0.11708 0.0
H1057 H 0.12711 0.27035 0.1708 0.0
H1058 H 0.20694 0.21676 0.17602 0.0
H1059 H 0.29443 0.18538 0.16474 0.0
H1060 H 0.35881 0.24753 0.11148 0.0
H1061 H 0.28011 0.30169 0.10695 0.0
C1062 C 0.19473 0.30335 0.12982 0.0
C1063 C 0.15317 0.30223 0.14332 0.0
C1064 C 0.2411 0.2743 0.13299 0.0
C1065 C 0.15834 0.27112 0.16006 0.0
C1066 C 0.20407 0.24088 0.1631 0.0
C1067 C 0.29169 0.21156 0.15236 0.0
C1068 C 0.33243 0.21217 0.13843 0.0
C1069 C 0.24582 0.24229 0.14967 0.0
C1070 C 0.32802 0.2461 0.12239 0.0
C1071 C 0.28285 0.27684 0.11969 0.0
H1072 H 0.18899 0.19715 0.66092 0.0
H1073 H 0.25477 0.13459 0.6079 0.0
H1074 H 0.30776 0.2144 0.60385 0.0
H1075 H 0.33451 0.30262 0.615 0.0
H1076 H 0.27227 0.36395 0.66863 0.0
H1077 H 0.21758 0.28464 0.67254 0.0
C1078 C 0.21563 0.20053 0.64867 0.0
C1079 C 0.21796 0.15981 0.63478 0.0
C1080 C 0.24548 0.24695 0.64624 0.0
C1081 C 0.25226 0.16524 0.61885 0.0
C1082 C 0.28226 0.21108 0.61641 0.0
C1083 C 0.30802 0.29904 0.6273 0.0
C1084 C 0.30634 0.33933 0.64129 0.0
C1085 C 0.27853 0.25252 0.62984 0.0
C1086 C 0.27336 0.33362 0.65752 0.0
C1087 C 0.24262 0.28812 0.65986 0.0
H1088 H 0.30491 0.31144 0.89694 0.0
H1089 H 0.37437 0.24038 0.84607 0.0
H1090 H 0.29491 0.18701 0.84119 0.0
H1091 H 0.20452 0.16288 0.85071 0.0
H1092 H 0.1353 0.23315 0.90173 0.0
H1093 H 0.21532 0.2857 0.90692 0.0
C1094 C 0.3031 0.2834 0.88505 0.0
C1095 C 0.34552 0.27955 0.87197 0.0
C1096 C 0.25677 0.25394 0.88202 0.0
C1097 C 0.34224 0.24379 0.8564 0.0
C1098 C 0.29666 0.21368 0.85348 0.0
C1099 C 0.20665 0.19051 0.86273 0.0
C1100 C 0.16392 0.19497 0.87562 0.0
C1101 C 0.25329 0.21927 0.86596 0.0
C1102 C 0.16762 0.22968 0.89148 0.0
C1103 C 0.21347 0.25927 0.89456 0.0
H1104 H 0.31705 0.19375 0.35035 0.0
H1105 H 0.24884 0.13593 0.4036 0.0
H1106 H 0.19554 0.21601 0.40643 0.0
H1107 H 0.17008 0.30324 0.39441 0.0
H1108 H 0.23529 0.36088 0.34073 0.0
H1109 H 0.28906 0.2805 0.33767 0.0
C1110 C 0.2898 0.19823 0.36237 0.0
C1111 C 0.2869 0.15883 0.37672 0.0
C1112 C 0.25979 0.24487 0.36411 0.0
C1113 C 0.25183 0.1656 0.39234 0.0
C1114 C 0.22162 0.21157 0.39407 0.0
C1115 C 0.19677 0.29866 0.38221 0.0
C1116 C 0.19953 0.33826 0.368 0.0
C1117 C 0.22601 0.25181 0.38024 0.0
C1118 C 0.23308 0.33111 0.35198 0.0
C1119 C 0.26341 0.28503 0.35015 0.0
H1120 H 0.68796 0.81092 0.90405 0.0
H1121 H 0.63895 0.772 0.84589 0.0
H1122 H 0.71851 0.71903 0.8413 0.0
H1123 H 0.80392 0.68853 0.8528 0.0
H1124 H 0.8541 0.72295 0.91111 0.0
H1125 H 0.77245 0.7739 0.9166 0.0
C1126 C 0.69417 0.78971 0.89058 0.0
C1127 C 0.65768 0.79541 0.87531 0.0
C1128 C 0.74076 0.75991 0.88788 0.0
C1129 C 0.6665 0.76829 0.85783 0.0
C1130 C 0.71217 0.73836 0.85513 0.0
C1131 C 0.79746 0.70776 0.86666 0.0
C1132 C 0.83556 0.70329 0.88136 0.0
C1133 C 0.75012 0.73515 0.86984 0.0
C1134 C 0.82568 0.72677 0.89946 0.0
C1135 C 0.77889 0.75546 0.90262 0.0
H1136 H 0.79658 0.80975 0.34864 0.0
H1137 H 0.77801 0.84455 0.40948 0.0
H1138 H 0.72673 0.76389 0.41381 0.0
H1139 H 0.68953 0.68245 0.40076 0.0
H1140 H 0.7044 0.64736 0.33988 0.0
H1141 H 0.75579 0.72864 0.33519 0.0
C1142 C 0.78038 0.80016 0.36274 0.0
C1143 C 0.79105 0.8332 0.3787 0.0
C1144 C 0.75145 0.75308 0.36523 0.0
C1145 C 0.77039 0.81984 0.39695 0.0
C1146 C 0.74138 0.77351 0.39949 0.0
C1147 C 0.7047 0.69205 0.3865 0.0
C1148 C 0.694 0.65845 0.37076 0.0
C1149 C 0.73253 0.73941 0.38383 0.0
C1150 C 0.71272 0.67229 0.35228 0.0
C1151 C 0.74168 0.71894 0.34957 0.0
H1152 H 0.67767 0.6941 0.16019 0.0
H1153 H 0.64255 0.71044 0.09931 0.0
H1154 H 0.72499 0.75969 0.09468 0.0
H1155 H 0.80688 0.79778 0.10803 0.0
H1156 H 0.84093 0.78056 0.16895 0.0
H1157 H 0.75933 0.73034 0.17332 0.0
C1158 C 0.68751 0.70891 0.14591 0.0
C1159 C 0.65363 0.69899 0.13014 0.0
C1160 C 0.73529 0.73595 0.14329 0.0
C1161 C 0.66766 0.71791 0.11172 0.0
C1162 C 0.71499 0.74566 0.10904 0.0
C1163 C 0.79695 0.78217 0.12219 0.0
C1164 C 0.83008 0.79258 0.13814 0.0
C1165 C 0.74932 0.75445 0.1247 0.0
C1166 C 0.8162 0.77288 0.15645 0.0
C1167 C 0.76937 0.74456 0.15899 0.0
H1168 H 0.79938 0.68295 0.66058 0.0
H1169 H 0.74119 0.62954 0.60511 0.0
H1170 H 0.68525 0.70793 0.60268 0.0
H1171 H 0.65658 0.79362 0.61535 0.0
H1172 H 0.71293 0.84716 0.67099 0.0
H1173 H 0.76678 0.76697 0.67413 0.0
C1174 C 0.77368 0.68788 0.64814 0.0
C1175 C 0.7746 0.65042 0.63303 0.0
C1176 C 0.74233 0.73363 0.64663 0.0
C1177 C 0.74133 0.65775 0.61694 0.0
C1178 C 0.70962 0.70278 0.61545 0.0
C1179 C 0.68112 0.78809 0.62808 0.0
C1180 C 0.68158 0.82668 0.64276 0.0
C1181 C 0.7108 0.74151 0.62999 0.0
C1182 C 0.71246 0.81826 0.65939 0.0
C1183 C 0.74293 0.77231 0.66125 0.0
loop_
_geom_bond_atom_site_label_1
_geom_bond_atom_site_label_2
_geom_bond_distance
_geom_bond_site_symmetry_2
_ccdc_geom_bond_type
Co0 O3 1.970 . S
Co0 N17 1.989 . S
Co0 O25 1.967 . S
Co0 O32 1.920 . S
Co1 O4 1.966 . S
Co1 N10 2.022 . S
Co1 N18 1.993 . S
Co1 O26 1.941 . S
C2 O3 1.258 . S
C2 O4 1.263 . S
O3 Co0 1.970 . S
O3 C2 1.258 . S
O4 Co1 1.966 . S
O4 C2 1.263 . S
C5 O6 1.235 . S
C5 O32 1.289 . S
O6 C5 1.235 . S
C7 C9 1.400 . S
C7 N10 1.351 . S
C7 C12 1.501 1_545 S
C8 C9 1.387 . S
C8 N11 1.341 . S
C9 C7 1.400 . S
C9 C8 1.387 . S
N10 Co1 2.022 . S
N10 C7 1.351 . S
N10 N11 1.365 . S
N11 C8 1.341 . S
N11 N10 1.365 . S
N11 H31 0.862 . S
C12 C7 1.501 1_565 S
C12 H13 0.961 . S
C12 H14 0.961 . S
C12 H15 0.960 . S
H13 C12 0.961 . S
H14 C12 0.961 . S
H15 C12 0.960 . S
C16 N17 1.342 . S
C16 C20 1.401 . S
C16 C21 1.499 . S
N17 Co0 1.989 . S
N17 C16 1.342 . S
N17 N18 1.388 . S
N18 Co1 1.993 . S
N18 N17 1.388 . S
N18 C19 1.346 . S
C19 N18 1.346 . S
C19 C20 1.396 . S
C19 C29 1.510 . S
C20 C16 1.401 . S
C20 C19 1.396 . S
C21 C16 1.499 . S
C21 H22 0.959 . S
C21 H23 0.960 . S
C21 H24 0.961 . S
H22 C21 0.959 . S
H23 C21 0.960 . S
H24 C21 0.961 . S
O25 Co0 1.967 . S
O25 C33 1.258 . S
O26 Co1 1.941 . S
O26 C33 1.266 . S
H27 C29 0.959 . S
H28 C29 0.961 . S
C29 C19 1.510 . S
C29 H27 0.959 . S
C29 H28 0.961 . S
C29 H30 0.960 . S
H30 C29 0.960 . S
H31 N11 0.862 . S
O32 Co0 1.920 . S
O32 C5 1.289 . S
C33 O25 1.258 . S
C33 O26 1.266 . S
Co34 O37 1.970 . S
Co34 N51 1.989 . S
Co34 O59 1.967 . S
Co34 O66 1.920 . S
Co35 O38 1.966 . S
Co35 N44 2.022 . S
Co35 N52 1.993 . S
Co35 O60 1.941 . S
C36 O37 1.258 . S
C36 O38 1.263 . S
O37 Co34 1.970 . S
O37 C36 1.258 . S
O38 Co35 1.966 . S
O38 C36 1.263 . S
C39 O40 1.235 . S
C39 O66 1.289 . S
O40 C39 1.235 . S
C41 C43 1.400 . S
C41 N44 1.351 . S
C41 C46 1.501 . S
C42 C43 1.387 . S
C42 N45 1.341 . S
C43 C41 1.400 . S
C43 C42 1.387 . S
N44 Co35 2.022 . S
N44 C41 1.351 . S
N44 N45 1.365 . S
N45 C42 1.341 . S
N45 N44 1.365 . S
N45 H65 0.862 . S
C46 C41 1.501 . S
C46 H47 0.961 . S
C46 H48 0.961 . S
C46 H49 0.960 . S
H47 C46 0.961 . S
H48 C46 0.961 . S
H49 C46 0.960 . S
C50 N51 1.342 . S
C50 C54 1.401 . S
C50 C55 1.499 . S
N51 Co34 1.989 . S
N51 C50 1.342 . S
N51 N52 1.388 . S
N52 Co35 1.993 . S
N52 N51 1.388 . S
N52 C53 1.346 . S
C53 N52 1.346 . S
C53 C54 1.396 . S
C53 C63 1.510 . S
C54 C50 1.401 . S
C54 C53 1.396 . S
C55 C50 1.499 . S
C55 H56 0.959 . S
C55 H57 0.960 . S
C55 H58 0.961 . S
H56 C55 0.959 . S
H57 C55 0.960 . S
H58 C55 0.961 . S
O59 Co34 1.967 . S
O59 C67 1.258 . S
O60 Co35 1.941 . S
O60 C67 1.266 . S
H61 C63 0.959 . S
H62 C63 0.961 . S
C63 C53 1.510 . S
C63 H61 0.959 . S
C63 H62 0.961 . S
C63 H64 0.960 . S
H64 C63 0.960 . S
H65 N45 0.862 . S
O66 Co34 1.920 . S
O66 C39 1.289 . S
C67 O59 1.258 . S
C67 O60 1.266 . S
Co68 O71 1.970 . S
Co68 N85 1.989 . S
Co68 O93 1.967 . S
Co68 O100 1.920 . S
Co69 O72 1.966 . S
Co69 N78 2.022 . S
Co69 N86 1.993 . S
Co69 O94 1.941 . S
C70 O71 1.258 . S
C70 O72 1.263 . S
O71 Co68 1.970 . S
O71 C70 1.258 . S
O72 Co69 1.966 . S
O72 C70 1.263 . S
C73 O74 1.235 . S
C73 O100 1.289 . S
O74 C73 1.235 . S
C75 C77 1.400 . S
C75 N78 1.351 . S
C75 C80 1.501 . S
C76 C77 1.387 . S
C76 N79 1.341 . S
C77 C75 1.400 . S
C77 C76 1.387 . S
N78 Co69 2.022 . S
N78 C75 1.351 . S
N78 N79 1.365 . S
N79 C76 1.341 . S
N79 N78 1.365 . S
N79 H99 0.862 . S
C80 C75 1.501 . S
C80 H81 0.961 . S
C80 H82 0.961 . S
C80 H83 0.960 . S
H81 C80 0.961 . S
H82 C80 0.961 . S
H83 C80 0.960 . S
C84 N85 1.342 1_655 S
C84 C88 1.401 . S
C84 C89 1.499 . S
N85 Co68 1.989 . S
N85 C84 1.342 1_455 S
N85 N86 1.388 . S
N86 Co69 1.993 . S
N86 N85 1.388 . S
N86 C87 1.346 1_455 S
C87 N86 1.346 1_655 S
C87 C88 1.396 . S
C87 C97 1.510 . S
C88 C84 1.401 . S
C88 C87 1.396 . S
C89 C84 1.499 . S
C89 H90 0.959 . S
C89 H91 0.960 . S
C89 H92 0.961 . S
H90 C89 0.959 . S
H91 C89 0.960 . S
H92 C89 0.961 . S
O93 Co68 1.967 . S
O93 C101 1.258 . S
O94 Co69 1.941 . S
O94 C101 1.266 . S
H95 C97 0.959 . S
H96 C97 0.961 . S
C97 C87 1.510 . S
C97 H95 0.959 . S
C97 H96 0.961 . S
C97 H98 0.960 . S
H98 C97 0.960 . S
H99 N79 0.862 . S
O100 Co68 1.920 . S
O100 C73 1.289 . S
C101 O93 1.258 . S
C101 O94 1.266 . S
Co102 O105 1.970 . S
Co102 N119 1.989 . S
Co102 O127 1.967 . S
Co102 O134 1.920 . S
Co103 O106 1.966 . S
Co103 N112 2.022 . S
Co103 N120 1.993 . S
Co103 O128 1.941 . S
C104 O105 1.258 . S
C104 O106 1.263 . S
O105 Co102 1.970 . S
O105 C104 1.258 . S
O106 Co103 1.966 . S
O106 C104 1.263 . S
C107 O108 1.235 . S
C107 O134 1.289 . S
O108 C107 1.235 . S
C109 C111 1.400 . S
C109 N112 1.351 . S
C109 C114 1.501 1_455 S
C110 C111 1.387 . S
C110 N113 1.341 . S
C111 C109 1.400 . S
C111 C110 1.387 . S
N112 Co103 2.022 . S
N112 C109 1.351 . S
N112 N113 1.365 . S
N113 C110 1.341 . S
N113 N112 1.365 . S
N113 H133 0.862 . S
C114 C109 1.501 1_655 S
C114 H115 0.961 . S
C114 H116 0.961 . S
C114 H117 0.960 . S
H115 C114 0.961 . S
H116 C114 0.961 . S
H117 C114 0.960 . S
C118 N119 1.342 1_565 S
C118 C122 1.401 . S
C118 C123 1.499 . S
N119 Co102 1.989 . S
N119 C118 1.342 1_545 S
N119 N120 1.388 . S
N120 Co103 1.993 . S
N120 N119 1.388 . S
N120 C121 1.346 1_545 S
C121 N120 1.346 1_565 S
C121 C122 1.396 . S
C121 C131 1.510 . S
C122 C118 1.401 . S
C122 C121 1.396 . S
C123 C118 1.499 . S
C123 H124 0.959 . S
C123 H125 0.960 . S
C123 H126 0.961 . S
H124 C123 0.959 . S
H125 C123 0.960 . S
H126 C123 0.961 . S
O127 Co102 1.967 . S
O127 C135 1.258 . S
O128 Co103 1.941 . S
O128 C135 1.266 . S
H129 C131 0.959 . S
H130 C131 0.961 . S
C131 C121 1.510 . S
C131 H129 0.959 . S
C131 H130 0.961 . S
C131 H132 0.960 . S
H132 C131 0.960 . S
H133 N113 0.862 . S
O134 Co102 1.920 . S
O134 C107 1.289 . S
C135 O127 1.258 . S
C135 O128 1.266 . S
Co136 O139 1.970 . S
Co136 N153 1.989 . S
Co136 O161 1.967 . S
Co136 O168 1.920 . S
Co137 O140 1.966 . S
Co137 N146 2.022 . S
Co137 N154 1.993 . S
Co137 O162 1.941 . S
C138 O139 1.258 . S
C138 O140 1.263 . S
O139 Co136 1.970 . S
O139 C138 1.258 . S
O140 Co137 1.966 . S
O140 C138 1.263 . S
C141 O142 1.235 . S
C141 O168 1.289 . S
O142 C141 1.235 . S
C143 C145 1.400 . S
C143 N146 1.351 . S
C143 C148 1.501 . S
C144 C145 1.387 . S
C144 N147 1.341 . S
C145 C143 1.400 . S
C145 C144 1.387 . S
N146 Co137 2.022 . S
N146 C143 1.351 . S
N146 N147 1.365 . S
N147 C144 1.341 . S
N147 N146 1.365 . S
N147 H167 0.862 . S
C148 C143 1.501 . S
C148 H149 0.961 . S
C148 H150 0.961 . S
C148 H151 0.960 . S
H149 C148 0.961 . S
H150 C148 0.961 . S
H151 C148 0.960 . S
C152 N153 1.342 . S
C152 C156 1.401 . S
C152 C157 1.499 . S
N153 Co136 1.989 . S
N153 C152 1.342 . S
N153 N154 1.388 . S
N154 Co137 1.993 . S
N154 N153 1.388 . S
N154 C155 1.346 . S
C155 N154 1.346 . S
C155 C156 1.396 . S
C155 C165 1.510 . S
C156 C152 1.401 . S
C156 C155 1.396 . S
C157 C152 1.499 . S
C157 H158 0.959 . S
C157 H159 0.960 . S
C157 H160 0.961 . S
H158 C157 0.959 . S
H159 C157 0.960 . S
H160 C157 0.961 . S
O161 Co136 1.967 . S
O161 C169 1.258 . S
O162 Co137 1.941 . S
O162 C169 1.266 . S
H163 C165 0.959 . S
H164 C165 0.961 . S
C165 C155 1.510 . S
C165 H163 0.959 . S
C165 H164 0.961 . S
C165 H166 0.960 . S
H166 C165 0.960 . S
H167 N147 0.862 . S
O168 Co136 1.920 . S
O168 C141 1.289 . S
C169 O161 1.258 . S
C169 O162 1.266 . S
Co170 O173 1.970 . S
Co170 N187 1.989 . S
Co170 O195 1.967 . S
Co170 O202 1.920 . S
Co171 O174 1.966 . S
Co171 N180 2.022 . S
Co171 N188 1.993 . S
Co171 O196 1.941 . S
C172 O173 1.258 . S
C172 O174 1.263 . S
O173 Co170 1.970 . S
O173 C172 1.258 . S
O174 Co171 1.966 . S
O174 C172 1.263 . S
C175 O176 1.235 . S
C175 O202 1.289 . S
O176 C175 1.235 . S
C177 C179 1.400 . S
C177 N180 1.351 . S
C177 C182 1.501 1_455 S
C178 C179 1.387 . S
C178 N181 1.341 . S
C179 C177 1.400 . S
C179 C178 1.387 . S
N180 Co171 2.022 . S
N180 C177 1.351 . S
N180 N181 1.365 . S
N181 C178 1.341 . S
N181 N180 1.365 . S
N181 H201 0.862 . S
C182 C177 1.501 1_655 S
C182 H183 0.961 . S
C182 H184 0.961 . S
C182 H185 0.960 . S
H183 C182 0.961 . S
H184 C182 0.961 . S
H185 C182 0.960 . S
C186 N187 1.342 . S
C186 C190 1.401 . S
C186 C191 1.499 . S
N187 Co170 1.989 . S
N187 C186 1.342 . S
N187 N188 1.388 . S
N188 Co171 1.993 . S
N188 N187 1.388 . S
N188 C189 1.346 . S
C189 N188 1.346 . S
C189 C190 1.396 . S
C189 C199 1.510 . S
C190 C186 1.401 . S
C190 C189 1.396 . S
C191 C186 1.499 . S
C191 H192 0.959 . S
C191 H193 0.960 . S
C191 H194 0.961 . S
H192 C191 0.959 . S
H193 C191 0.960 . S
H194 C191 0.961 . S
O195 Co170 1.967 . S
O195 C203 1.258 . S
O196 Co171 1.941 . S
O196 C203 1.266 . S
H197 C199 0.959 . S
H198 C199 0.961 . S
C199 C189 1.510 . S
C199 H197 0.959 . S
C199 H198 0.961 . S
C199 H200 0.960 . S
H200 C199 0.960 . S
H201 N181 0.862 . S
O202 Co170 1.920 . S
O202 C175 1.289 . S
C203 O195 1.258 . S
C203 O196 1.266 . S
Co204 O207 1.970 . S
Co204 N221 1.989 . S
Co204 O229 1.967 . S
Co204 O236 1.920 . S
Co205 O208 1.966 . S
Co205 N214 2.022 . S
Co205 N222 1.993 . S
Co205 O230 1.941 . S
C206 O207 1.258 . S
C206 O208 1.263 . S
O207 Co204 1.970 . S
O207 C206 1.258 . S
O208 Co205 1.966 . S
O208 C206 1.263 . S
C209 O210 1.235 . S
C209 O236 1.289 . S
O210 C209 1.235 . S
C211 C213 1.400 . S
C211 N214 1.351 . S
C211 C216 1.501 1_545 S
C212 C213 1.387 . S
C212 N215 1.341 . S
C213 C211 1.400 . S
C213 C212 1.387 . S
N214 Co205 2.022 . S
N214 C211 1.351 . S
N214 N215 1.365 . S
N215 C212 1.341 . S
N215 N214 1.365 . S
N215 H235 0.862 . S
C216 C211 1.501 1_565 S
C216 H217 0.961 . S
C216 H218 0.961 . S
C216 H219 0.960 . S
H217 C216 0.961 . S
H218 C216 0.961 . S
H219 C216 0.960 . S
C220 N221 1.342 1_655 S
C220 C224 1.401 . S
C220 C225 1.499 . S
N221 Co204 1.989 . S
N221 C220 1.342 1_455 S
N221 N222 1.388 . S
N222 Co205 1.993 . S
N222 N221 1.388 . S
N222 C223 1.346 1_455 S
C223 N222 1.346 1_655 S
C223 C224 1.396 . S
C223 C233 1.510 . S
C224 C220 1.401 . S
C224 C223 1.396 . S
C225 C220 1.499 . S
C225 H226 0.959 . S
C225 H227 0.960 . S
C225 H228 0.961 . S
H226 C225 0.959 . S
H227 C225 0.960 . S
H228 C225 0.961 . S
O229 Co204 1.967 . S
O229 C237 1.258 . S
O230 Co205 1.941 . S
O230 C237 1.266 . S
H231 C233 0.959 . S
H232 C233 0.961 . S
C233 C223 1.510 . S
C233 H231 0.959 . S
C233 H232 0.961 . S
C233 H234 0.960 . S
H234 C233 0.960 . S
H235 N215 0.862 . S
O236 Co204 1.920 . S
O236 C209 1.289 . S
C237 O229 1.258 . S
C237 O230 1.266 . S
Co238 O241 1.970 . S
Co238 N255 1.989 . S
Co238 O263 1.967 . S
Co238 O270 1.920 . S
Co239 O242 1.966 . S
Co239 N248 2.022 . S
Co239 N256 1.993 . S
Co239 O264 1.941 . S
C240 O241 1.258 . S
C240 O242 1.263 . S
O241 Co238 1.970 . S
O241 C240 1.258 . S
O242 Co239 1.966 . S
O242 C240 1.263 . S
C243 O244 1.235 . S
C243 O270 1.289 . S
O244 C243 1.235 . S
C245 C247 1.400 . S
C245 N248 1.351 . S
C245 C250 1.501 . S
C246 C247 1.387 . S
C246 N249 1.341 . S
C247 C245 1.400 . S
C247 C246 1.387 . S
N248 Co239 2.022 . S
N248 C245 1.351 . S
N248 N249 1.365 . S
N249 C246 1.341 . S
N249 N248 1.365 . S
N249 H269 0.862 . S
C250 C245 1.501 . S
C250 H251 0.961 . S
C250 H252 0.961 . S
C250 H253 0.960 . S
H251 C250 0.961 . S
H252 C250 0.961 . S
H253 C250 0.960 . S
C254 N255 1.342 1_565 S
C254 C258 1.401 . S
C254 C259 1.499 . S
N255 Co238 1.989 . S
N255 C254 1.342 1_545 S
N255 N256 1.388 . S
N256 Co239 1.993 . S
N256 N255 1.388 . S
N256 C257 1.346 1_545 S
C257 N256 1.346 1_565 S
C257 C258 1.396 . S
C257 C267 1.510 . S
C258 C254 1.401 . S
C258 C257 1.396 . S
C259 C254 1.499 . S
C259 H260 0.959 . S
C259 H261 0.960 . S
C259 H262 0.961 . S
H260 C259 0.959 . S
H261 C259 0.960 . S
H262 C259 0.961 . S
O263 Co238 1.967 . S
O263 C271 1.258 . S
O264 Co239 1.941 . S
O264 C271 1.266 . S
H265 C267 0.959 . S
H266 C267 0.961 . S
C267 C257 1.510 . S
C267 H265 0.959 . S
C267 H266 0.961 . S
C267 H268 0.960 . S
H268 C267 0.960 . S
H269 N249 0.862 . S
O270 Co238 1.920 . S
O270 C243 1.289 . S
C271 O263 1.258 . S
C271 O264 1.266 . S
Co272 O275 1.970 . S
Co272 N289 1.989 . S
Co272 O297 1.967 . S
Co272 O304 1.920 . S
Co273 O276 1.966 . S
Co273 N282 2.022 . S
Co273 N290 1.993 . S
Co273 O298 1.941 . S
C274 O275 1.258 . S
C274 O276 1.263 . S
O275 Co272 1.970 . S
O275 C274 1.258 . S
O276 Co273 1.966 . S
O276 C274 1.263 . S
C277 O278 1.235 . S
C277 O304 1.289 . S
O278 C277 1.235 . S
C279 C281 1.400 . S
C279 N282 1.351 . S
C279 C284 1.501 1_565 S
C280 C281 1.387 . S
C280 N283 1.341 . S
C281 C279 1.400 . S
C281 C280 1.387 . S
N282 Co273 2.022 . S
N282 C279 1.351 . S
N282 N283 1.365 . S
N283 C280 1.341 . S
N283 N282 1.365 . S
N283 H303 0.862 . S
C284 C279 1.501 1_545 S
C284 H285 0.961 . S
C284 H286 0.961 . S
C284 H287 0.960 . S
H285 C284 0.961 . S
H286 C284 0.961 . S
H287 C284 0.960 . S
C288 N289 1.342 . S
C288 C292 1.401 . S
C288 C293 1.499 . S
N289 Co272 1.989 . S
N289 C288 1.342 . S
N289 N290 1.388 . S
N290 Co273 1.993 . S
N290 N289 1.388 . S
N290 C291 1.346 . S
C291 N290 1.346 . S
C291 C292 1.396 . S
C291 C301 1.510 . S
C292 C288 1.401 . S
C292 C291 1.396 . S
C293 C288 1.499 . S
C293 H294 0.959 . S
C293 H295 0.960 . S
C293 H296 0.961 . S
H294 C293 0.959 . S
H295 C293 0.960 . S
H296 C293 0.961 . S
O297 Co272 1.967 . S
O297 C305 1.258 . S
O298 Co273 1.941 . S
O298 C305 1.266 . S
H299 C301 0.959 . S
H300 C301 0.961 . S
C301 C291 1.510 . S
C301 H299 0.959 . S
C301 H300 0.961 . S
C301 H302 0.960 . S
H302 C301 0.960 . S
H303 N283 0.862 . S
O304 Co272 1.920 . S
O304 C277 1.289 . S
C305 O297 1.258 . S
C305 O298 1.266 . S
Co306 O309 1.970 . S
Co306 N323 1.989 . S
Co306 O331 1.967 . S
Co306 O338 1.920 . S
Co307 O310 1.966 . S
Co307 N316 2.022 . S
Co307 N324 1.993 . S
Co307 O332 1.941 . S
C308 O309 1.258 . S
C308 O310 1.263 . S
O309 Co306 1.970 . S
O309 C308 1.258 . S
O310 Co307 1.966 . S
O310 C308 1.263 . S
C311 O312 1.235 . S
C311 O338 1.289 . S
O312 C311 1.235 . S
C313 C315 1.400 . S
C313 N316 1.351 . S
C313 C318 1.501 . S
C314 C315 1.387 . S
C314 N317 1.341 . S
C315 C313 1.400 . S
C315 C314 1.387 . S
N316 Co307 2.022 . S
N316 C313 1.351 . S
N316 N317 1.365 . S
N317 C314 1.341 . S
N317 N316 1.365 . S
N317 H337 0.862 . S
C318 C313 1.501 . S
C318 H319 0.961 . S
C318 H320 0.961 . S
C318 H321 0.960 . S
H319 C318 0.961 . S
H320 C318 0.961 . S
H321 C318 0.960 . S
C322 N323 1.342 . S
C322 C326 1.401 . S
C322 C327 1.499 . S
N323 Co306 1.989 . S
N323 C322 1.342 . S
N323 N324 1.388 . S
N324 Co307 1.993 . S
N324 N323 1.388 . S
N324 C325 1.346 . S
C325 N324 1.346 . S
C325 C326 1.396 . S
C325 C335 1.510 . S
C326 C322 1.401 . S
C326 C325 1.396 . S
C327 C322 1.499 . S
C327 H328 0.959 . S
C327 H329 0.960 . S
C327 H330 0.961 . S
H328 C327 0.959 . S
H329 C327 0.960 . S
H330 C327 0.961 . S
O331 Co306 1.967 . S
O331 C339 1.258 . S
O332 Co307 1.941 . S
O332 C339 1.266 . S
H333 C335 0.959 . S
H334 C335 0.961 . S
C335 C325 1.510 . S
C335 H333 0.959 . S
C335 H334 0.961 . S
C335 H336 0.960 . S
H336 C335 0.960 . S
H337 N317 0.862 . S
O338 Co306 1.920 . S
O338 C311 1.289 . S
C339 O331 1.258 . S
C339 O332 1.266 . S
Co340 O343 1.970 . S
Co340 N357 1.989 . S
Co340 O365 1.967 . S
Co340 O372 1.920 . S
Co341 O344 1.966 . S
Co341 N350 2.022 . S
Co341 N358 1.993 . S
Co341 O366 1.941 . S
C342 O343 1.258 . S
C342 O344 1.263 . S
O343 Co340 1.970 . S
O343 C342 1.258 . S
O344 Co341 1.966 . S
O344 C342 1.263 . S
C345 O346 1.235 . S
C345 O372 1.289 . S
O346 C345 1.235 . S
C347 C349 1.400 . S
C347 N350 1.351 . S
C347 C352 1.501 . S
C348 C349 1.387 . S
C348 N351 1.341 . S
C349 C347 1.400 . S
C349 C348 1.387 . S
N350 Co341 2.022 . S
N350 C347 1.351 . S
N350 N351 1.365 . S
N351 C348 1.341 . S
N351 N350 1.365 . S
N351 H371 0.862 . S
C352 C347 1.501 . S
C352 H353 0.961 . S
C352 H354 0.961 . S
C352 H355 0.960 . S
H353 C352 0.961 . S
H354 C352 0.961 . S
H355 C352 0.960 . S
C356 N357 1.342 1_455 S
C356 C360 1.401 . S
C356 C361 1.499 . S
N357 Co340 1.989 . S
N357 C356 1.342 1_655 S
N357 N358 1.388 . S
N358 Co341 1.993 . S
N358 N357 1.388 . S
N358 C359 1.346 1_655 S
C359 N358 1.346 1_455 S
C359 C360 1.396 . S
C359 C369 1.510 . S
C360 C356 1.401 . S
C360 C359 1.396 . S
C361 C356 1.499 . S
C361 H362 0.959 . S
C361 H363 0.960 . S
C361 H364 0.961 . S
H362 C361 0.959 . S
H363 C361 0.960 . S
H364 C361 0.961 . S
O365 Co340 1.967 . S
O365 C373 1.258 . S
O366 Co341 1.941 . S
O366 C373 1.266 . S
H367 C369 0.959 . S
H368 C369 0.961 . S
C369 C359 1.510 . S
C369 H367 0.959 . S
C369 H368 0.961 . S
C369 H370 0.960 . S
H370 C369 0.960 . S
H371 N351 0.862 . S
O372 Co340 1.920 . S
O372 C345 1.289 . S
C373 O365 1.258 . S
C373 O366 1.266 . S
Co374 O377 1.970 . S
Co374 N391 1.989 . S
Co374 O399 1.967 . S
Co374 O406 1.920 . S
Co375 O378 1.966 . S
Co375 N384 2.022 . S
Co375 N392 1.993 . S
Co375 O400 1.941 . S
C376 O377 1.258 . S
C376 O378 1.263 . S
O377 Co374 1.970 . S
O377 C376 1.258 . S
O378 Co375 1.966 . S
O378 C376 1.263 . S
C379 O380 1.235 . S
C379 O406 1.289 . S
O380 C379 1.235 . S
C381 C383 1.400 . S
C381 N384 1.351 . S
C381 C386 1.501 1_655 S
C382 C383 1.387 . S
C382 N385 1.341 . S
C383 C381 1.400 . S
C383 C382 1.387 . S
N384 Co375 2.022 . S
N384 C381 1.351 . S
N384 N385 1.365 . S
N385 C382 1.341 . S
N385 N384 1.365 . S
N385 H405 0.862 . S
C386 C381 1.501 1_455 S
C386 H387 0.961 . S
C386 H388 0.961 . S
C386 H389 0.960 . S
H387 C386 0.961 . S
H388 C386 0.961 . S
H389 C386 0.960 . S
C390 N391 1.342 1_545 S
C390 C394 1.401 . S
C390 C395 1.499 . S
N391 Co374 1.989 . S
N391 C390 1.342 1_565 S
N391 N392 1.388 . S
N392 Co375 1.993 . S
N392 N391 1.388 . S
N392 C393 1.346 1_565 S
C393 N392 1.346 1_545 S
C393 C394 1.396 . S
C393 C403 1.510 . S
C394 C390 1.401 . S
C394 C393 1.396 . S
C395 C390 1.499 . S
C395 H396 0.959 . S
C395 H397 0.960 . S
C395 H398 0.961 . S
H396 C395 0.959 . S
H397 C395 0.960 . S
H398 C395 0.961 . S
O399 Co374 1.967 . S
O399 C407 1.258 . S
O400 Co375 1.941 . S
O400 C407 1.266 . S
H401 C403 0.959 . S
H402 C403 0.961 . S
C403 C393 1.510 . S
C403 H401 0.959 . S
C403 H402 0.961 . S
C403 H404 0.960 . S
H404 C403 0.960 . S
H405 N385 0.862 . S
O406 Co374 1.920 . S
O406 C379 1.289 . S
C407 O399 1.258 . S
C407 O400 1.266 . S
Co408 O411 1.970 . S
Co408 N425 1.989 . S
Co408 O433 1.967 . S
Co408 O440 1.920 . S
Co409 O412 1.966 . S
Co409 N418 2.022 . S
Co409 N426 1.993 . S
Co409 O434 1.941 . S
C410 O411 1.258 . S
C410 O412 1.263 . S
O411 Co408 1.970 . S
O411 C410 1.258 . S
O412 Co409 1.966 . S
O412 C410 1.263 . S
C413 O414 1.235 . S
C413 O440 1.289 . S
O414 C413 1.235 . S
C415 C417 1.400 . S
C415 N418 1.351 . S
C415 C420 1.501 . S
C416 C417 1.387 . S
C416 N419 1.341 . S
C417 C415 1.400 . S
C417 C416 1.387 . S
N418 Co409 2.022 . S
N418 C415 1.351 . S
N418 N419 1.365 . S
N419 C416 1.341 . S
N419 N418 1.365 . S
N419 H439 0.862 . S
C420 C415 1.501 . S
C420 H421 0.961 . S
C420 H422 0.961 . S
C420 H423 0.960 . S
H421 C420 0.961 . S
H422 C420 0.961 . S
H423 C420 0.960 . S
C424 N425 1.342 . S
C424 C428 1.401 . S
C424 C429 1.499 . S
N425 Co408 1.989 . S
N425 C424 1.342 . S
N425 N426 1.388 . S
N426 Co409 1.993 . S
N426 N425 1.388 . S
N426 C427 1.346 . S
C427 N426 1.346 . S
C427 C428 1.396 . S
C427 C437 1.510 . S
C428 C424 1.401 . S
C428 C427 1.396 . S
C429 C424 1.499 . S
C429 H430 0.959 . S
C429 H431 0.960 . S
C429 H432 0.961 . S
H430 C429 0.959 . S
H431 C429 0.960 . S
H432 C429 0.961 . S
O433 Co408 1.967 . S
O433 C441 1.258 . S
O434 Co409 1.941 . S
O434 C441 1.266 . S
H435 C437 0.959 . S
H436 C437 0.961 . S
C437 C427 1.510 . S
C437 H435 0.959 . S
C437 H436 0.961 . S
C437 H438 0.960 . S
H438 C437 0.960 . S
H439 N419 0.862 . S
O440 Co408 1.920 . S
O440 C413 1.289 . S
C441 O433 1.258 . S
C441 O434 1.266 . S
Co442 O445 1.970 . S
Co442 N459 1.989 . S
Co442 O467 1.967 . S
Co442 O474 1.920 . S
Co443 O446 1.966 . S
Co443 N452 2.022 . S
Co443 N460 1.993 . S
Co443 O468 1.941 . S
C444 O445 1.258 . S
C444 O446 1.263 . S
O445 Co442 1.970 . S
O445 C444 1.258 . S
O446 Co443 1.966 . S
O446 C444 1.263 . S
C447 O448 1.235 . S
C447 O474 1.289 . S
O448 C447 1.235 . S
C449 C451 1.400 . S
C449 N452 1.351 . S
C449 C454 1.501 1_655 S
C450 C451 1.387 . S
C450 N453 1.341 . S
C451 C449 1.400 . S
C451 C450 1.387 . S
N452 Co443 2.022 . S
N452 C449 1.351 . S
N452 N453 1.365 . S
N453 C450 1.341 . S
N453 N452 1.365 . S
N453 H473 0.862 . S
C454 C449 1.501 1_455 S
C454 H455 0.961 . S
C454 H456 0.961 . S
C454 H457 0.960 . S
H455 C454 0.961 . S
H456 C454 0.961 . S
H457 C454 0.960 . S
C458 N459 1.342 . S
C458 C462 1.401 . S
C458 C463 1.499 . S
N459 Co442 1.989 . S
N459 C458 1.342 . S
N459 N460 1.388 . S
N460 Co443 1.993 . S
N460 N459 1.388 . S
N460 C461 1.346 . S
C461 N460 1.346 . S
C461 C462 1.396 . S
C461 C471 1.510 . S
C462 C458 1.401 . S
C462 C461 1.396 . S
C463 C458 1.499 . S
C463 H464 0.959 . S
C463 H465 0.960 . S
C463 H466 0.961 . S
H464 C463 0.959 . S
H465 C463 0.960 . S
H466 C463 0.961 . S
O467 Co442 1.967 . S
O467 C475 1.258 . S
O468 Co443 1.941 . S
O468 C475 1.266 . S
H469 C471 0.959 . S
H470 C471 0.961 . S
C471 C461 1.510 . S
C471 H469 0.959 . S
C471 H470 0.961 . S
C471 H472 0.960 . S
H472 C471 0.960 . S
H473 N453 0.862 . S
O474 Co442 1.920 . S
O474 C447 1.289 . S
C475 O467 1.258 . S
C475 O468 1.266 . S
Co476 O479 1.970 . S
Co476 N493 1.989 . S
Co476 O501 1.967 . S
Co476 O508 1.920 . S
Co477 O480 1.966 . S
Co477 N486 2.022 . S
Co477 N494 1.993 . S
Co477 O502 1.941 . S
C478 O479 1.258 . S
C478 O480 1.263 . S
O479 Co476 1.970 . S
O479 C478 1.258 . S
O480 Co477 1.966 . S
O480 C478 1.263 . S
C481 O482 1.235 . S
C481 O508 1.289 . S
O482 C481 1.235 . S
C483 C485 1.400 . S
C483 N486 1.351 . S
C483 C488 1.501 1_565 S
C484 C485 1.387 . S
C484 N487 1.341 . S
C485 C483 1.400 . S
C485 C484 1.387 . S
N486 Co477 2.022 . S
N486 C483 1.351 . S
N486 N487 1.365 . S
N487 C484 1.341 . S
N487 N486 1.365 . S
N487 H507 0.862 . S
C488 C483 1.501 1_545 S
C488 H489 0.961 . S
C488 H490 0.961 . S
C488 H491 0.960 . S
H489 C488 0.961 . S
H490 C488 0.961 . S
H491 C488 0.960 . S
C492 N493 1.342 1_455 S
C492 C496 1.401 . S
C492 C497 1.499 . S
N493 Co476 1.989 . S
N493 C492 1.342 1_655 S
N493 N494 1.388 . S
N494 Co477 1.993 . S
N494 N493 1.388 . S
N494 C495 1.346 1_655 S
C495 N494 1.346 1_455 S
C495 C496 1.396 . S
C495 C505 1.510 . S
C496 C492 1.401 . S
C496 C495 1.396 . S
C497 C492 1.499 . S
C497 H498 0.959 . S
C497 H499 0.960 . S
C497 H500 0.961 . S
H498 C497 0.959 . S
H499 C497 0.960 . S
H500 C497 0.961 . S
O501 Co476 1.967 . S
O501 C509 1.258 . S
O502 Co477 1.941 . S
O502 C509 1.266 . S
H503 C505 0.959 . S
H504 C505 0.961 . S
C505 C495 1.510 . S
C505 H503 0.959 . S
C505 H504 0.961 . S
C505 H506 0.960 . S
H506 C505 0.960 . S
H507 N487 0.862 . S
O508 Co476 1.920 . S
O508 C481 1.289 . S
C509 O501 1.258 . S
C509 O502 1.266 . S
Co510 O513 1.970 . S
Co510 N527 1.989 . S
Co510 O535 1.967 . S
Co510 O542 1.920 . S
Co511 O514 1.966 . S
Co511 N520 2.022 . S
Co511 N528 1.993 . S
Co511 O536 1.941 . S
C512 O513 1.258 . S
C512 O514 1.263 . S
O513 Co510 1.970 . S
O513 C512 1.258 . S
O514 Co511 1.966 . S
O514 C512 1.263 . S
C515 O516 1.235 . S
C515 O542 1.289 . S
O516 C515 1.235 . S
C517 C519 1.400 . S
C517 N520 1.351 . S
C517 C522 1.501 . S
C518 C519 1.387 . S
C518 N521 1.341 . S
C519 C517 1.400 . S
C519 C518 1.387 . S
N520 Co511 2.022 . S
N520 C517 1.351 . S
N520 N521 1.365 . S
N521 C518 1.341 . S
N521 N520 1.365 . S
N521 H541 0.862 . S
C522 C517 1.501 . S
C522 H523 0.961 . S
C522 H524 0.961 . S
C522 H525 0.960 . S
H523 C522 0.961 . S
H524 C522 0.961 . S
H525 C522 0.960 . S
C526 N527 1.342 1_545 S
C526 C530 1.401 . S
C526 C531 1.499 . S
N527 Co510 1.989 . S
N527 C526 1.342 1_565 S
N527 N528 1.388 . S
N528 Co511 1.993 . S
N528 N527 1.388 . S
N528 C529 1.346 1_565 S
C529 N528 1.346 1_545 S
C529 C530 1.396 . S
C529 C539 1.510 . S
C530 C526 1.401 . S
C530 C529 1.396 . S
C531 C526 1.499 . S
C531 H532 0.959 . S
C531 H533 0.960 . S
C531 H534 0.961 . S
H532 C531 0.959 . S
H533 C531 0.960 . S
H534 C531 0.961 . S
O535 Co510 1.967 . S
O535 C543 1.258 . S
O536 Co511 1.941 . S
O536 C543 1.266 . S
H537 C539 0.959 . S
H538 C539 0.961 . S
C539 C529 1.510 . S
C539 H537 0.959 . S
C539 H538 0.961 . S
C539 H540 0.960 . S
H540 C539 0.960 . S
H541 N521 0.862 . S
O542 Co510 1.920 . S
O542 C515 1.289 . S
C543 O535 1.258 . S
C543 O536 1.266 . S
H544 C550 0.930 . S
H545 C553 0.930 . S
H546 C554 0.930 . S
H547 C555 0.930 . S
H548 C558 0.930 . S
H549 C559 0.930 . S
C550 H544 0.930 . S
C550 C551 1.355 . S
C550 C552 1.415 . S
C551 C550 1.355 . S
C551 C553 1.419 . S
C552 C550 1.415 . S
C552 C557 1.425 . S
C552 C559 1.409 . S
C553 H545 0.930 . S
C553 C551 1.419 . S
C553 C554 1.362 . S
C554 H546 0.930 . S
C554 C553 1.362 . S
C554 C557 1.409 . S
C555 H547 0.930 . S
C555 C556 1.355 . S
C555 C557 1.415 . S
C556 C555 1.355 . S
C556 C558 1.419 . S
C557 C552 1.425 . S
C557 C554 1.409 . S
C557 C555 1.415 . S
C558 H548 0.930 . S
C558 C556 1.419 . S
C558 C559 1.362 . S
C559 H549 0.930 . S
C559 C552 1.409 . S
C559 C558 1.362 . S
H560 C566 0.930 . S
H561 C569 0.930 . S
H562 C570 0.930 . S
H563 C571 0.930 . S
H564 C574 0.930 . S
H565 C575 0.930 . S
C566 H560 0.930 . S
C566 C567 1.355 . S
C566 C568 1.415 . S
C567 C566 1.355 . S
C567 C569 1.419 . S
C568 C566 1.415 . S
C568 C573 1.425 . S
C568 C575 1.409 . S
C569 H561 0.930 . S
C569 C567 1.419 . S
C569 C570 1.362 . S
C570 H562 0.930 . S
C570 C569 1.362 . S
C570 C573 1.409 . S
C571 H563 0.930 . S
C571 C572 1.355 . S
C571 C573 1.415 . S
C572 C571 1.355 . S
C572 C574 1.419 . S
C573 C568 1.425 . S
C573 C570 1.409 . S
C573 C571 1.415 . S
C574 H564 0.930 . S
C574 C572 1.419 . S
C574 C575 1.362 . S
C575 H565 0.930 . S
C575 C568 1.409 . S
C575 C574 1.362 . S
H576 C582 0.930 . S
H577 C585 0.930 1_655 S
H578 C586 0.930 1_655 S
H579 C587 0.930 . S
H580 C590 0.930 . S
H581 C591 0.930 . S
C582 H576 0.930 . S
C582 C583 1.355 . S
C582 C584 1.415 . S
C583 C582 1.355 . S
C583 C585 1.419 . S
C584 C582 1.415 . S
C584 C589 1.425 . S
C584 C591 1.409 . S
C585 H577 0.930 1_455 S
C585 C583 1.419 . S
C585 C586 1.362 . S
C586 H578 0.930 1_455 S
C586 C585 1.362 . S
C586 C589 1.409 . S
C587 H579 0.930 . S
C587 C588 1.355 . S
C587 C589 1.415 . S
C588 C587 1.355 . S
C588 C590 1.419 . S
C589 C584 1.425 . S
C589 C586 1.409 . S
C589 C587 1.415 . S
C590 H580 0.930 . S
C590 C588 1.419 . S
C590 C591 1.362 . S
C591 H581 0.930 . S
C591 C584 1.409 . S
C591 C590 1.362 . S
H592 C598 0.930 . S
H593 C601 0.930 . S
H594 C602 0.930 . S
H595 C603 0.930 . S
H596 C606 0.930 1_655 S
H597 C607 0.930 1_655 S
C598 H592 0.930 . S
C598 C599 1.355 . S
C598 C600 1.415 . S
C599 C598 1.355 . S
C599 C601 1.419 . S
C600 C598 1.415 . S
C600 C605 1.425 . S
C600 C607 1.409 . S
C601 H593 0.930 . S
C601 C599 1.419 . S
C601 C602 1.362 . S
C602 H594 0.930 . S
C602 C601 1.362 . S
C602 C605 1.409 . S
C603 H595 0.930 . S
C603 C604 1.355 . S
C603 C605 1.415 . S
C604 C603 1.355 . S
C604 C606 1.419 . S
C605 C600 1.425 . S
C605 C602 1.409 . S
C605 C603 1.415 . S
C606 H596 0.930 1_455 S
C606 C604 1.419 . S
C606 C607 1.362 . S
C607 H597 0.930 1_455 S
C607 C600 1.409 . S
C607 C606 1.362 . S
H608 C614 0.930 . S
H609 C617 0.930 1_545 S
H610 C618 0.930 1_545 S
H611 C619 0.930 . S
H612 C622 0.930 . S
H613 C623 0.930 . S
C614 H608 0.930 . S
C614 C615 1.355 . S
C614 C616 1.415 . S
C615 C614 1.355 . S
C615 C617 1.419 . S
C616 C614 1.415 . S
C616 C621 1.425 . S
C616 C623 1.409 . S
C617 H609 0.930 1_565 S
C617 C615 1.419 . S
C617 C618 1.362 . S
C618 H610 0.930 1_565 S
C618 C617 1.362 . S
C618 C621 1.409 . S
C619 H611 0.930 . S
C619 C620 1.355 . S
C619 C621 1.415 . S
C620 C619 1.355 . S
C620 C622 1.419 . S
C621 C616 1.425 . S
C621 C618 1.409 . S
C621 C619 1.415 . S
C622 H612 0.930 . S
C622 C620 1.419 . S
C622 C623 1.362 . S
C623 H613 0.930 . S
C623 C616 1.409 . S
C623 C622 1.362 . S
H624 C630 0.930 . S
H625 C633 0.930 . S
H626 C634 0.930 . S
H627 C635 0.930 . S
H628 C638 0.930 . S
H629 C639 0.930 . S
C630 H624 0.930 . S
C630 C631 1.355 . S
C630 C632 1.415 . S
C631 C630 1.355 . S
C631 C633 1.419 . S
C632 C630 1.415 . S
C632 C637 1.425 . S
C632 C639 1.409 . S
C633 H625 0.930 . S
C633 C631 1.419 . S
C633 C634 1.362 . S
C634 H626 0.930 . S
C634 C633 1.362 . S
C634 C637 1.409 . S
C635 H627 0.930 . S
C635 C636 1.355 . S
C635 C637 1.415 . S
C636 C635 1.355 . S
C636 C638 1.419 . S
C637 C632 1.425 . S
C637 C634 1.409 . S
C637 C635 1.415 . S
C638 H628 0.930 . S
C638 C636 1.419 . S
C638 C639 1.362 . S
C639 H629 0.930 . S
C639 C632 1.409 . S
C639 C638 1.362 . S
H640 C646 0.930 . S
H641 C649 0.930 . S
H642 C650 0.930 . S
H643 C651 0.930 . S
H644 C654 0.930 . S
H645 C655 0.930 . S
C646 H640 0.930 . S
C646 C647 1.355 . S
C646 C648 1.415 . S
C647 C646 1.355 . S
C647 C649 1.419 . S
C648 C646 1.415 . S
C648 C653 1.425 . S
C648 C655 1.409 . S
C649 H641 0.930 . S
C649 C647 1.419 . S
C649 C650 1.362 . S
C650 H642 0.930 . S
C650 C649 1.362 . S
C650 C653 1.409 . S
C651 H643 0.930 . S
C651 C652 1.355 . S
C651 C653 1.415 . S
C652 C651 1.355 . S
C652 C654 1.419 . S
C653 C648 1.425 . S
C653 C650 1.409 . S
C653 C651 1.415 . S
C654 H644 0.930 . S
C654 C652 1.419 . S
C654 C655 1.362 . S
C655 H645 0.930 . S
C655 C648 1.409 . S
C655 C654 1.362 . S
H656 C662 0.930 . S
H657 C665 0.930 1_545 S
H658 C666 0.930 1_545 S
H659 C667 0.930 1_545 S
H660 C670 0.930 . S
H661 C671 0.930 . S
C662 H656 0.930 . S
C662 C663 1.355 . S
C662 C664 1.415 . S
C663 C662 1.355 . S
C663 C665 1.419 . S
C664 C662 1.415 . S
C664 C669 1.425 . S
C664 C671 1.409 . S
C665 H657 0.930 1_565 S
C665 C663 1.419 . S
C665 C666 1.362 . S
C666 H658 0.930 1_565 S
C666 C665 1.362 . S
C666 C669 1.409 . S
C667 H659 0.930 1_565 S
C667 C668 1.355 . S
C667 C669 1.415 . S
C668 C667 1.355 . S
C668 C670 1.419 . S
C669 C664 1.425 . S
C669 C666 1.409 . S
C669 C667 1.415 . S
C670 H660 0.930 . S
C670 C668 1.419 . S
C670 C671 1.362 . S
C671 H661 0.930 . S
C671 C664 1.409 . S
C671 C670 1.362 . S
H672 C678 0.930 . S
H673 C681 0.930 . S
H674 C682 0.954 . S
H675 C683 0.930 . S
H676 C686 0.930 . S
H677 C687 0.954 . S
C678 H672 0.930 . S
C678 C679 1.355 1_565 S
C678 C680 1.415 . S
C679 C678 1.355 1_545 S
C679 C681 1.419 . S
C680 C678 1.415 . S
C680 C685 1.425 1_564 S
C680 C687 1.420 . S
C681 H673 0.930 . S
C681 C679 1.419 . S
C681 C682 1.329 1_554 S
C682 H674 0.954 . S
C682 C681 1.329 1_556 S
C682 C685 1.420 . S
C683 H675 0.930 . S
C683 C684 1.355 1_545 S
C683 C685 1.415 . S
C684 C683 1.355 1_565 S
C684 C686 1.419 . S
C685 C680 1.425 1_546 S
C685 C682 1.420 . S
C685 C683 1.415 . S
C686 H676 0.930 . S
C686 C684 1.419 . S
C686 C687 1.329 1_556 S
C687 H677 0.954 . S
C687 C680 1.420 . S
C687 C686 1.329 1_554 S
H688 C694 0.930 . S
H689 C697 0.930 . S
H690 C698 0.930 . S
H691 C699 0.930 . S
H692 C702 0.930 . S
H693 C703 0.930 . S
C694 H688 0.930 . S
C694 C695 1.355 . S
C694 C696 1.415 . S
C695 C694 1.355 . S
C695 C697 1.419 . S
C696 C694 1.415 . S
C696 C701 1.425 . S
C696 C703 1.409 . S
C697 H689 0.930 . S
C697 C695 1.419 . S
C697 C698 1.362 . S
C698 H690 0.930 . S
C698 C697 1.362 . S
C698 C701 1.409 . S
C699 H691 0.930 . S
C699 C700 1.355 . S
C699 C701 1.415 . S
C700 C699 1.355 . S
C700 C702 1.419 . S
C701 C696 1.425 . S
C701 C698 1.409 . S
C701 C699 1.415 . S
C702 H692 0.930 . S
C702 C700 1.419 . S
C702 C703 1.362 . S
C703 H693 0.930 . S
C703 C696 1.409 . S
C703 C702 1.362 . S
H704 C710 0.930 . S
H705 C713 0.930 . S
H706 C714 0.918 1_554 S
H707 C715 0.930 . S
H708 C718 0.930 . S
H709 C719 0.918 1_556 S
C710 H704 0.930 . S
C710 C711 1.355 1_455 S
C710 C712 1.415 . S
C711 C710 1.355 1_655 S
C711 C713 1.419 . S
C712 C710 1.415 . S
C712 C717 1.425 1_456 S
C712 C719 1.403 1_556 S
C713 H705 0.930 . S
C713 C711 1.419 . S
C713 C714 1.381 . S
C714 H706 0.918 1_556 S
C714 C713 1.381 . S
C714 C717 1.403 1_556 S
C715 H707 0.930 . S
C715 C716 1.355 1_655 S
C715 C717 1.415 . S
C716 C715 1.355 1_455 S
C716 C718 1.419 . S
C717 C712 1.425 1_654 S
C717 C714 1.403 1_554 S
C717 C715 1.415 . S
C718 H708 0.930 . S
C718 C716 1.419 . S
C718 C719 1.381 . S
C719 H709 0.918 1_554 S
C719 C712 1.403 1_554 S
C719 C718 1.381 . S
H720 C726 0.930 . S
H721 C729 0.930 . S
H722 C730 0.930 . S
H723 C731 0.930 . S
H724 C734 0.930 . S
H725 C735 0.930 . S
C726 H720 0.930 . S
C726 C727 1.355 1_655 S
C726 C728 1.415 . S
C727 C726 1.355 1_455 S
C727 C729 1.419 1_545 S
C728 C726 1.415 . S
C728 C733 1.425 1_645 S
C728 C735 1.409 . S
C729 H721 0.930 . S
C729 C727 1.419 1_565 S
C729 C730 1.362 . S
C730 H722 0.930 . S
C730 C729 1.362 . S
C730 C733 1.409 . S
C731 H723 0.930 . S
C731 C732 1.355 1_455 S
C731 C733 1.415 . S
C732 C731 1.355 1_655 S
C732 C734 1.419 1_565 S
C733 C728 1.425 1_465 S
C733 C730 1.409 . S
C733 C731 1.415 . S
C734 H724 0.930 . S
C734 C732 1.419 1_545 S
C734 C735 1.362 . S
C735 H725 0.930 . S
C735 C728 1.409 . S
C735 C734 1.362 . S
H736 C742 0.930 . S
H737 C745 0.930 . S
H738 C746 0.930 . S
H739 C747 0.930 . S
H740 C750 0.930 . S
H741 C751 0.930 . S
C742 H736 0.930 . S
C742 C743 1.355 . S
C742 C744 1.401 1_554 S
C743 C742 1.355 . S
C743 C745 1.419 . S
C744 C742 1.401 1_556 S
C744 C749 1.425 1_556 S
C744 C751 1.424 . S
C745 H737 0.930 . S
C745 C743 1.419 . S
C745 C746 1.362 . S
C746 H738 0.930 . S
C746 C745 1.362 . S
C746 C749 1.424 . S
C747 H739 0.930 . S
C747 C748 1.355 . S
C747 C749 1.401 1_556 S
C748 C747 1.355 . S
C748 C750 1.419 . S
C749 C744 1.425 1_554 S
C749 C746 1.424 . S
C749 C747 1.401 1_554 S
C750 H740 0.930 . S
C750 C748 1.419 . S
C750 C751 1.362 . S
C751 H741 0.930 . S
C751 C744 1.424 . S
C751 C750 1.362 . S
H752 C758 0.930 . S
H753 C761 0.930 . S
H754 C762 0.930 . S
H755 C763 0.930 . S
H756 C766 0.930 . S
H757 C767 0.930 . S
C758 H752 0.930 . S
C758 C759 1.355 . S
C758 C760 1.415 . S
C759 C758 1.355 . S
C759 C761 1.419 1_655 S
C760 C758 1.415 . S
C760 C765 1.425 1_655 S
C760 C767 1.409 . S
C761 H753 0.930 . S
C761 C759 1.419 1_455 S
C761 C762 1.362 . S
C762 H754 0.930 . S
C762 C761 1.362 . S
C762 C765 1.409 . S
C763 H755 0.930 . S
C763 C764 1.355 . S
C763 C765 1.415 . S
C764 C763 1.355 . S
C764 C766 1.419 1_455 S
C765 C760 1.425 1_455 S
C765 C762 1.409 . S
C765 C763 1.415 . S
C766 H756 0.930 . S
C766 C764 1.419 1_655 S
C766 C767 1.362 . S
C767 H757 0.930 . S
C767 C760 1.409 . S
C767 C766 1.362 . S
H768 C774 0.930 . S
H769 C777 0.930 . S
H770 C778 0.930 . S
H771 C779 0.930 . S
H772 C782 0.930 . S
H773 C783 0.930 . S
C774 H768 0.930 . S
C774 C775 1.355 1_565 S
C774 C776 1.415 . S
C775 C774 1.355 1_545 S
C775 C777 1.419 . S
C776 C774 1.415 . S
C776 C781 1.425 1_466 S
C776 C783 1.409 1_556 S
C777 H769 0.930 . S
C777 C775 1.419 . S
C777 C778 1.362 1_455 S
C778 H770 0.930 . S
C778 C777 1.362 1_655 S
C778 C781 1.409 1_556 S
C779 H771 0.930 . S
C779 C780 1.355 1_545 S
C779 C781 1.415 . S
C780 C779 1.355 1_565 S
C780 C782 1.419 . S
C781 C776 1.425 1_644 S
C781 C778 1.409 1_554 S
C781 C779 1.415 . S
C782 H772 0.930 . S
C782 C780 1.419 . S
C782 C783 1.362 1_655 S
C783 H773 0.930 . S
C783 C776 1.409 1_554 S
C783 C782 1.362 1_455 S
H784 C790 0.930 1_545 S
H785 C793 0.930 . S
H786 C794 0.930 . S
H787 C795 0.930 1_565 S
H788 C798 0.930 . S
H789 C799 0.930 . S
C790 H784 0.930 1_565 S
C790 C791 1.355 . S
C790 C792 1.415 1_565 S
C791 C790 1.355 . S
C791 C793 1.419 . S
C792 C790 1.415 1_545 S
C792 C797 1.425 1_545 S
C792 C799 1.409 . S
C793 H785 0.930 . S
C793 C791 1.419 . S
C793 C794 1.362 . S
C794 H786 0.930 . S
C794 C793 1.362 . S
C794 C797 1.409 . S
C795 H787 0.930 1_545 S
C795 C796 1.355 . S
C795 C797 1.415 1_545 S
C796 C795 1.355 . S
C796 C798 1.419 . S
C797 C792 1.425 1_565 S
C797 C794 1.409 . S
C797 C795 1.415 1_565 S
C798 H788 0.930 . S
C798 C796 1.419 . S
C798 C799 1.362 . S
C799 H789 0.930 . S
C799 C792 1.409 . S
C799 C798 1.362 . S
H800 C806 0.930 1_565 S
H801 C809 0.930 . S
H802 C810 0.930 . S
H803 C811 0.930 . S
H804 C814 0.930 . S
H805 C815 0.930 . S
C806 H800 0.930 1_545 S
C806 C807 1.355 . S
C806 C808 1.415 1_545 S
C807 C806 1.355 . S
C807 C809 1.419 . S
C808 C806 1.415 1_565 S
C808 C813 1.425 1_565 S
C808 C815 1.409 . S
C809 H801 0.930 . S
C809 C807 1.419 . S
C809 C810 1.362 . S
C810 H802 0.930 . S
C810 C809 1.362 . S
C810 C813 1.409 . S
C811 H803 0.930 . S
C811 C812 1.355 1_545 S
C811 C813 1.415 . S
C812 C811 1.355 1_565 S
C812 C814 1.419 . S
C813 C808 1.425 1_545 S
C813 C810 1.409 . S
C813 C811 1.415 . S
C814 H804 0.930 . S
C814 C812 1.419 . S
C814 C815 1.362 . S
C815 H805 0.930 . S
C815 C808 1.409 . S
C815 C814 1.362 . S
H816 C822 0.930 . S
H817 C825 0.930 . S
H818 C826 0.930 . S
H819 C827 0.930 . S
H820 C830 0.930 . S
H821 C831 0.930 . S
C822 H816 0.930 . S
C822 C823 1.355 . S
C822 C824 1.415 . S
C823 C822 1.355 . S
C823 C825 1.419 . S
C824 C822 1.415 . S
C824 C829 1.425 . S
C824 C831 1.409 . S
C825 H817 0.930 . S
C825 C823 1.419 . S
C825 C826 1.362 . S
C826 H818 0.930 . S
C826 C825 1.362 . S
C826 C829 1.409 . S
C827 H819 0.930 . S
C827 C828 1.355 . S
C827 C829 1.415 . S
C828 C827 1.355 . S
C828 C830 1.419 . S
C829 C824 1.425 . S
C829 C826 1.409 . S
C829 C827 1.415 . S
C830 H820 0.930 . S
C830 C828 1.419 . S
C830 C831 1.362 . S
C831 H821 0.930 . S
C831 C824 1.409 . S
C831 C830 1.362 . S
H832 C838 0.930 . S
H833 C841 0.930 . S
H834 C842 0.930 . S
H835 C843 0.930 . S
H836 C846 0.930 . S
H837 C847 0.930 . S
C838 H832 0.930 . S
C838 C839 1.355 . S
C838 C840 1.415 . S
C839 C838 1.355 . S
C839 C841 1.419 . S
C840 C838 1.415 . S
C840 C845 1.425 . S
C840 C847 1.409 . S
C841 H833 0.930 . S
C841 C839 1.419 . S
C841 C842 1.362 . S
C842 H834 0.930 . S
C842 C841 1.362 . S
C842 C845 1.409 . S
C843 H835 0.930 . S
C843 C844 1.355 . S
C843 C845 1.415 . S
C844 C843 1.355 . S
C844 C846 1.419 . S
C845 C840 1.425 . S
C845 C842 1.409 . S
C845 C843 1.415 . S
C846 H836 0.930 . S
C846 C844 1.419 . S
C846 C847 1.362 . S
C847 H837 0.930 . S
C847 C840 1.409 . S
C847 C846 1.362 . S
H848 C854 0.930 . S
H849 C857 0.930 . S
H850 C858 0.930 . S
H851 C859 0.930 1_655 S
H852 C862 0.930 . S
H853 C863 0.930 . S
C854 H848 0.930 . S
C854 C855 1.355 1_455 S
C854 C856 1.415 . S
C855 C854 1.355 1_655 S
C855 C857 1.419 . S
C856 C854 1.415 . S
C856 C861 1.425 1_455 S
C856 C863 1.409 . S
C857 H849 0.930 . S
C857 C855 1.419 . S
C857 C858 1.362 . S
C858 H850 0.930 . S
C858 C857 1.362 . S
C858 C861 1.409 . S
C859 H851 0.930 1_455 S
C859 C860 1.355 . S
C859 C861 1.415 1_455 S
C860 C859 1.355 . S
C860 C862 1.419 . S
C861 C856 1.425 1_655 S
C861 C858 1.409 . S
C861 C859 1.415 1_655 S
C862 H852 0.930 . S
C862 C860 1.419 . S
C862 C863 1.362 . S
C863 H853 0.930 . S
C863 C856 1.409 . S
C863 C862 1.362 . S
H864 C870 0.930 . S
H865 C873 0.930 . S
H866 C874 0.930 . S
H867 C875 0.930 . S
H868 C878 0.930 . S
H869 C879 0.930 . S
C870 H864 0.930 . S
C870 C871 1.355 . S
C870 C872 1.415 . S
C871 C870 1.355 . S
C871 C873 1.419 . S
C872 C870 1.415 . S
C872 C877 1.425 . S
C872 C879 1.409 . S
C873 H865 0.930 . S
C873 C871 1.419 . S
C873 C874 1.362 . S
C874 H866 0.930 . S
C874 C873 1.362 . S
C874 C877 1.409 . S
C875 H867 0.930 . S
C875 C876 1.355 . S
C875 C877 1.415 . S
C876 C875 1.355 . S
C876 C878 1.419 . S
C877 C872 1.425 . S
C877 C874 1.409 . S
C877 C875 1.415 . S
C878 H868 0.930 . S
C878 C876 1.419 . S
C878 C879 1.362 . S
C879 H869 0.930 . S
C879 C872 1.409 . S
C879 C878 1.362 . S
H880 C886 0.930 1_655 S
H881 C889 0.930 . S
H882 C890 0.930 . S
H883 C891 0.930 . S
H884 C894 0.930 . S
H885 C895 0.930 . S
C886 H880 0.930 1_455 S
C886 C887 1.355 . S
C886 C888 1.415 1_455 S
C887 C886 1.355 . S
C887 C889 1.419 . S
C888 C886 1.415 1_655 S
C888 C893 1.425 1_655 S
C888 C895 1.409 . S
C889 H881 0.930 . S
C889 C887 1.419 . S
C889 C890 1.362 . S
C890 H882 0.930 . S
C890 C889 1.362 . S
C890 C893 1.409 . S
C891 H883 0.930 . S
C891 C892 1.355 1_455 S
C891 C893 1.415 . S
C892 C891 1.355 1_655 S
C892 C894 1.419 . S
C893 C888 1.425 1_455 S
C893 C890 1.409 . S
C893 C891 1.415 . S
C894 H884 0.930 . S
C894 C892 1.419 . S
C894 C895 1.362 . S
C895 H885 0.930 . S
C895 C888 1.409 . S
C895 C894 1.362 . S
H896 C902 0.930 . S
H897 C905 0.930 . S
H898 C906 0.930 . S
H899 C907 0.930 . S
H900 C910 0.930 . S
H901 C911 0.930 . S
C902 H896 0.930 . S
C902 C903 1.355 . S
C902 C904 1.415 . S
C903 C902 1.355 . S
C903 C905 1.419 . S
C904 C902 1.415 . S
C904 C909 1.425 . S
C904 C911 1.409 1_545 S
C905 H897 0.930 . S
C905 C903 1.419 . S
C905 C906 1.362 . S
C906 H898 0.930 . S
C906 C905 1.362 . S
C906 C909 1.409 . S
C907 H899 0.930 . S
C907 C908 1.355 1_545 S
C907 C909 1.415 . S
C908 C907 1.355 1_565 S
C908 C910 1.419 . S
C909 C904 1.425 . S
C909 C906 1.409 . S
C909 C907 1.415 . S
C910 H900 0.930 . S
C910 C908 1.419 . S
C910 C911 1.362 . S
C911 H901 0.930 . S
C911 C904 1.409 1_565 S
C911 C910 1.362 . S
H912 C918 0.930 . S
H913 C921 0.930 . S
H914 C922 0.930 . S
H915 C923 0.930 . S
H916 C926 0.930 . S
H917 C927 0.930 . S
C918 H912 0.930 . S
C918 C919 1.355 . S
C918 C920 1.415 . S
C919 C918 1.355 . S
C919 C921 1.419 . S
C920 C918 1.415 . S
C920 C925 1.425 . S
C920 C927 1.409 . S
C921 H913 0.930 . S
C921 C919 1.419 . S
C921 C922 1.362 . S
C922 H914 0.930 . S
C922 C921 1.362 . S
C922 C925 1.409 . S
C923 H915 0.930 . S
C923 C924 1.355 . S
C923 C925 1.415 . S
C924 C923 1.355 . S
C924 C926 1.419 . S
C925 C920 1.425 . S
C925 C922 1.409 . S
C925 C923 1.415 . S
C926 H916 0.930 . S
C926 C924 1.419 . S
C926 C927 1.362 . S
C927 H917 0.930 . S
C927 C920 1.409 . S
C927 C926 1.362 . S
H928 C934 0.930 . S
H929 C937 0.930 . S
H930 C938 0.930 . S
H931 C939 0.930 . S
H932 C942 0.930 . S
H933 C943 0.930 1_545 S
C934 H928 0.930 . S
C934 C935 1.355 . S
C934 C936 1.415 1_545 S
C935 C934 1.355 . S
C935 C937 1.419 1_545 S
C936 C934 1.415 1_565 S
C936 C941 1.425 . S
C936 C943 1.409 . S
C937 H929 0.930 . S
C937 C935 1.419 1_565 S
C937 C938 1.362 . S
C938 H930 0.930 . S
C938 C937 1.362 . S
C938 C941 1.409 . S
C939 H931 0.930 . S
C939 C940 1.355 . S
C939 C941 1.415 . S
C940 C939 1.355 . S
C940 C942 1.419 . S
C941 C936 1.425 . S
C941 C938 1.409 . S
C941 C939 1.415 . S
C942 H932 0.930 . S
C942 C940 1.419 . S
C942 C943 1.362 . S
C943 H933 0.930 1_565 S
C943 C936 1.409 . S
C943 C942 1.362 . S
H944 C950 0.930 . S
H945 C953 0.930 . S
H946 C954 0.930 . S
H947 C955 0.930 . S
H948 C958 0.930 . S
H949 C959 0.930 . S
C950 H944 0.930 . S
C950 C951 1.355 . S
C950 C952 1.415 . S
C951 C950 1.355 . S
C951 C953 1.419 . S
C952 C950 1.415 . S
C952 C957 1.425 . S
C952 C959 1.409 . S
C953 H945 0.930 . S
C953 C951 1.419 . S
C953 C954 1.362 . S
C954 H946 0.930 . S
C954 C953 1.362 . S
C954 C957 1.409 . S
C955 H947 0.930 . S
C955 C956 1.355 . S
C955 C957 1.415 . S
C956 C955 1.355 . S
C956 C958 1.419 . S
C957 C952 1.425 . S
C957 C954 1.409 . S
C957 C955 1.415 . S
C958 H948 0.930 . S
C958 C956 1.419 . S
C958 C959 1.362 . S
C959 H949 0.930 . S
C959 C952 1.409 . S
C959 C958 1.362 . S
H960 C966 0.930 . S
H961 C969 0.930 . S
H962 C970 0.930 . S
H963 C971 0.930 . S
H964 C974 0.930 . S
H965 C975 0.930 . S
C966 H960 0.930 . S
C966 C967 1.355 . S
C966 C968 1.415 . S
C967 C966 1.355 . S
C967 C969 1.419 . S
C968 C966 1.415 . S
C968 C973 1.425 . S
C968 C975 1.409 . S
C969 H961 0.930 . S
C969 C967 1.419 . S
C969 C970 1.362 . S
C970 H962 0.930 . S
C970 C969 1.362 . S
C970 C973 1.409 . S
C971 H963 0.930 . S
C971 C972 1.355 . S
C971 C973 1.415 . S
C972 C971 1.355 . S
C972 C974 1.419 . S
C973 C968 1.425 . S
C973 C970 1.409 . S
C973 C971 1.415 . S
C974 H964 0.930 . S
C974 C972 1.419 . S
C974 C975 1.362 . S
C975 H965 0.930 . S
C975 C968 1.409 . S
C975 C974 1.362 . S
H976 C982 0.930 . S
H977 C985 0.930 . S
H978 C986 0.930 . S
H979 C987 0.930 . S
H980 C990 0.930 . S
H981 C991 0.930 . S
C982 H976 0.930 . S
C982 C983 1.362 . S
C982 C984 1.415 . S
C983 C982 1.362 . S
C983 C985 1.406 1_455 S
C984 C982 1.415 . S
C984 C989 1.425 1_455 S
C984 C991 1.409 . S
C985 H977 0.930 . S
C985 C983 1.406 1_655 S
C985 C986 1.362 . S
C986 H978 0.930 . S
C986 C985 1.362 . S
C986 C989 1.409 . S
C987 H979 0.930 . S
C987 C988 1.355 . S
C987 C989 1.415 . S
C988 C987 1.355 . S
C988 C990 1.419 1_655 S
C989 C984 1.425 1_655 S
C989 C986 1.409 . S
C989 C987 1.415 . S
C990 H980 0.930 . S
C990 C988 1.419 1_455 S
C990 C991 1.362 . S
C991 H981 0.930 . S
C991 C984 1.409 . S
C991 C990 1.362 . S
H992 C998 0.930 . S
H993 C1001 0.930 . S
H994 C1002 0.930 . S
H995 C1003 0.930 . S
H996 C1006 0.930 . S
H997 C1007 0.930 . S
C998 H992 0.930 . S
C998 C999 1.355 . S
C998 C1000 1.415 . S
C999 C998 1.355 . S
C999 C1001 1.419 . S
C1000 C998 1.415 . S
C1000 C1005 1.425 . S
C1000 C1007 1.409 . S
C1001 H993 0.930 . S
C1001 C999 1.419 . S
C1001 C1002 1.362 . S
C1002 H994 0.930 . S
C1002 C1001 1.362 . S
C1002 C1005 1.409 . S
C1003 H995 0.930 . S
C1003 C1004 1.355 . S
C1003 C1005 1.415 . S
C1004 C1003 1.355 . S
C1004 C1006 1.419 . S
C1005 C1000 1.425 . S
C1005 C1002 1.409 . S
C1005 C1003 1.415 . S
C1006 H996 0.930 . S
C1006 C1004 1.419 . S
C1006 C1007 1.362 . S
C1007 H997 0.930 . S
C1007 C1000 1.409 . S
C1007 C1006 1.362 . S
H1008 C1014 0.930 . S
H1009 C1017 0.930 . S
H1010 C1018 0.930 . S
H1011 C1019 0.930 1_455 S
H1012 C1022 0.930 . S
H1013 C1023 0.930 . S
C1014 H1008 0.930 . S
C1014 C1015 1.355 1_655 S
C1014 C1016 1.415 . S
C1015 C1014 1.355 1_455 S
C1015 C1017 1.419 . S
C1016 C1014 1.415 . S
C1016 C1021 1.425 . S
C1016 C1023 1.409 . S
C1017 H1009 0.930 . S
C1017 C1015 1.419 . S
C1017 C1018 1.362 . S
C1018 H1010 0.930 . S
C1018 C1017 1.362 . S
C1018 C1021 1.409 1_455 S
C1019 H1011 0.930 1_655 S
C1019 C1020 1.355 . S
C1019 C1021 1.415 . S
C1020 C1019 1.355 . S
C1020 C1022 1.419 . S
C1021 C1016 1.425 . S
C1021 C1018 1.409 1_655 S
C1021 C1019 1.415 . S
C1022 H1012 0.930 . S
C1022 C1020 1.419 . S
C1022 C1023 1.362 . S
C1023 H1013 0.930 . S
C1023 C1016 1.409 . S
C1023 C1022 1.362 . S
H1024 C1030 0.930 . S
H1025 C1033 0.930 . S
H1026 C1034 0.930 . S
H1027 C1035 0.930 . S
H1028 C1038 0.930 . S
H1029 C1039 0.930 . S
C1030 H1024 0.930 . S
C1030 C1031 1.355 . S
C1030 C1032 1.415 . S
C1031 C1030 1.355 . S
C1031 C1033 1.419 . S
C1032 C1030 1.415 . S
C1032 C1037 1.425 . S
C1032 C1039 1.409 1_565 S
C1033 H1025 0.930 . S
C1033 C1031 1.419 . S
C1033 C1034 1.362 . S
C1034 H1026 0.930 . S
C1034 C1033 1.362 . S
C1034 C1037 1.409 . S
C1035 H1027 0.930 . S
C1035 C1036 1.355 1_565 S
C1035 C1037 1.415 . S
C1036 C1035 1.355 1_545 S
C1036 C1038 1.419 . S
C1037 C1032 1.425 . S
C1037 C1034 1.409 . S
C1037 C1035 1.415 . S
C1038 H1028 0.930 . S
C1038 C1036 1.419 . S
C1038 C1039 1.362 . S
C1039 H1029 0.930 . S
C1039 C1032 1.409 1_545 S
C1039 C1038 1.362 . S
H1040 C1046 0.930 . S
H1041 C1049 0.930 . S
H1042 C1050 0.930 . S
H1043 C1051 0.930 . S
H1044 C1054 0.930 . S
H1045 C1055 0.930 . S
C1046 H1040 0.930 . S
C1046 C1047 1.355 . S
C1046 C1048 1.415 . S
C1047 C1046 1.355 . S
C1047 C1049 1.419 . S
C1048 C1046 1.415 . S
C1048 C1053 1.425 . S
C1048 C1055 1.409 . S
C1049 H1041 0.930 . S
C1049 C1047 1.419 . S
C1049 C1050 1.362 . S
C1050 H1042 0.930 . S
C1050 C1049 1.362 . S
C1050 C1053 1.409 . S
C1051 H1043 0.930 . S
C1051 C1052 1.355 . S
C1051 C1053 1.415 . S
C1052 C1051 1.355 . S
C1052 C1054 1.419 . S
C1053 C1048 1.425 . S
C1053 C1050 1.409 . S
C1053 C1051 1.415 . S
C1054 H1044 0.930 . S
C1054 C1052 1.419 . S
C1054 C1055 1.362 . S
C1055 H1045 0.930 . S
C1055 C1048 1.409 . S
C1055 C1054 1.362 . S
H1056 C1062 0.930 . S
H1057 C1065 0.930 . S
H1058 C1066 0.930 . S
H1059 C1067 0.930 . S
H1060 C1070 0.930 . S
H1061 C1071 0.930 . S
C1062 H1056 0.930 . S
C1062 C1063 1.355 . S
C1062 C1064 1.415 . S
C1063 C1062 1.355 . S
C1063 C1065 1.419 . S
C1064 C1062 1.415 . S
C1064 C1069 1.425 . S
C1064 C1071 1.409 . S
C1065 H1057 0.930 . S
C1065 C1063 1.419 . S
C1065 C1066 1.362 . S
C1066 H1058 0.930 . S
C1066 C1065 1.362 . S
C1066 C1069 1.409 . S
C1067 H1059 0.930 . S
C1067 C1068 1.355 . S
C1067 C1069 1.415 . S
C1068 C1067 1.355 . S
C1068 C1070 1.419 . S
C1069 C1064 1.425 . S
C1069 C1066 1.409 . S
C1069 C1067 1.415 . S
C1070 H1060 0.930 . S
C1070 C1068 1.419 . S
C1070 C1071 1.362 . S
C1071 H1061 0.930 . S
C1071 C1064 1.409 . S
C1071 C1070 1.362 . S
H1072 C1078 0.930 . S
H1073 C1081 0.930 . S
H1074 C1082 0.930 . S
H1075 C1083 0.930 . S
H1076 C1086 0.930 . S
H1077 C1087 0.930 . S
C1078 H1072 0.930 . S
C1078 C1079 1.355 . S
C1078 C1080 1.415 . S
C1079 C1078 1.355 . S
C1079 C1081 1.419 . S
C1080 C1078 1.415 . S
C1080 C1085 1.425 . S
C1080 C1087 1.409 . S
C1081 H1073 0.930 . S
C1081 C1079 1.419 . S
C1081 C1082 1.362 . S
C1082 H1074 0.930 . S
C1082 C1081 1.362 . S
C1082 C1085 1.409 . S
C1083 H1075 0.930 . S
C1083 C1084 1.355 . S
C1083 C1085 1.415 . S
C1084 C1083 1.355 . S
C1084 C1086 1.419 . S
C1085 C1080 1.425 . S
C1085 C1082 1.409 . S
C1085 C1083 1.415 . S
C1086 H1076 0.930 . S
C1086 C1084 1.419 . S
C1086 C1087 1.362 . S
C1087 H1077 0.930 . S
C1087 C1080 1.409 . S
C1087 C1086 1.362 . S
H1088 C1094 0.930 . S
H1089 C1097 0.930 . S
H1090 C1098 0.930 . S
H1091 C1099 0.930 . S
H1092 C1102 0.930 . S
H1093 C1103 0.930 . S
C1094 H1088 0.930 . S
C1094 C1095 1.355 . S
C1094 C1096 1.415 . S
C1095 C1094 1.355 . S
C1095 C1097 1.419 . S
C1096 C1094 1.415 . S
C1096 C1101 1.425 . S
C1096 C1103 1.409 . S
C1097 H1089 0.930 . S
C1097 C1095 1.419 . S
C1097 C1098 1.362 . S
C1098 H1090 0.930 . S
C1098 C1097 1.362 . S
C1098 C1101 1.409 . S
C1099 H1091 0.930 . S
C1099 C1100 1.355 . S
C1099 C1101 1.415 . S
C1100 C1099 1.355 . S
C1100 C1102 1.419 . S
C1101 C1096 1.425 . S
C1101 C1098 1.409 . S
C1101 C1099 1.415 . S
C1102 H1092 0.930 . S
C1102 C1100 1.419 . S
C1102 C1103 1.362 . S
C1103 H1093 0.930 . S
C1103 C1096 1.409 . S
C1103 C1102 1.362 . S
H1104 C1110 0.930 . S
H1105 C1113 0.930 . S
H1106 C1114 0.930 . S
H1107 C1115 0.930 . S
H1108 C1118 0.930 . S
H1109 C1119 0.930 . S
C1110 H1104 0.930 . S
C1110 C1111 1.355 . S
C1110 C1112 1.415 . S
C1111 C1110 1.355 . S
C1111 C1113 1.419 . S
C1112 C1110 1.415 . S
C1112 C1117 1.425 . S
C1112 C1119 1.409 . S
C1113 H1105 0.930 . S
C1113 C1111 1.419 . S
C1113 C1114 1.362 . S
C1114 H1106 0.930 . S
C1114 C1113 1.362 . S
C1114 C1117 1.409 . S
C1115 H1107 0.930 . S
C1115 C1116 1.355 . S
C1115 C1117 1.415 . S
C1116 C1115 1.355 . S
C1116 C1118 1.419 . S
C1117 C1112 1.425 . S
C1117 C1114 1.409 . S
C1117 C1115 1.415 . S
C1118 H1108 0.930 . S
C1118 C1116 1.419 . S
C1118 C1119 1.362 . S
C1119 H1109 0.930 . S
C1119 C1112 1.409 . S
C1119 C1118 1.362 . S
H1120 C1126 0.930 . S
H1121 C1129 0.930 . S
H1122 C1130 0.930 . S
H1123 C1131 0.930 . S
H1124 C1134 0.930 . S
H1125 C1135 0.930 . S
C1126 H1120 0.930 . S
C1126 C1127 1.355 . S
C1126 C1128 1.415 . S
C1127 C1126 1.355 . S
C1127 C1129 1.419 . S
C1128 C1126 1.415 . S
C1128 C1133 1.425 . S
C1128 C1135 1.409 . S
C1129 H1121 0.930 . S
C1129 C1127 1.419 . S
C1129 C1130 1.362 . S
C1130 H1122 0.930 . S
C1130 C1129 1.362 . S
C1130 C1133 1.409 . S
C1131 H1123 0.930 . S
C1131 C1132 1.355 . S
C1131 C1133 1.415 . S
C1132 C1131 1.355 . S
C1132 C1134 1.419 . S
C1133 C1128 1.425 . S
C1133 C1130 1.409 . S
C1133 C1131 1.415 . S
C1134 H1124 0.930 . S
C1134 C1132 1.419 . S
C1134 C1135 1.362 . S
C1135 H1125 0.930 . S
C1135 C1128 1.409 . S
C1135 C1134 1.362 . S
H1136 C1142 0.930 . S
H1137 C1145 0.930 . S
H1138 C1146 0.930 . S
H1139 C1147 0.930 . S
H1140 C1150 0.930 . S
H1141 C1151 0.930 . S
C1142 H1136 0.930 . S
C1142 C1143 1.355 . S
C1142 C1144 1.415 . S
C1143 C1142 1.355 . S
C1143 C1145 1.419 . S
C1144 C1142 1.415 . S
C1144 C1149 1.425 . S
C1144 C1151 1.409 . S
C1145 H1137 0.930 . S
C1145 C1143 1.419 . S
C1145 C1146 1.362 . S
C1146 H1138 0.930 . S
C1146 C1145 1.362 . S
C1146 C1149 1.409 . S
C1147 H1139 0.930 . S
C1147 C1148 1.355 . S
C1147 C1149 1.415 . S
C1148 C1147 1.355 . S
C1148 C1150 1.419 . S
C1149 C1144 1.425 . S
C1149 C1146 1.409 . S
C1149 C1147 1.415 . S
C1150 H1140 0.930 . S
C1150 C1148 1.419 . S
C1150 C1151 1.362 . S
C1151 H1141 0.930 . S
C1151 C1144 1.409 . S
C1151 C1150 1.362 . S
H1152 C1158 0.930 . S
H1153 C1161 0.930 . S
H1154 C1162 0.930 . S
H1155 C1163 0.930 . S
H1156 C1166 0.930 . S
H1157 C1167 0.930 . S
C1158 H1152 0.930 . S
C1158 C1159 1.355 . S
C1158 C1160 1.415 . S
C1159 C1158 1.355 . S
C1159 C1161 1.419 . S
C1160 C1158 1.415 . S
C1160 C1165 1.425 . S
C1160 C1167 1.409 . S
C1161 H1153 0.930 . S
C1161 C1159 1.419 . S
C1161 C1162 1.362 . S
C1162 H1154 0.930 . S
C1162 C1161 1.362 . S
C1162 C1165 1.409 . S
C1163 H1155 0.930 . S
C1163 C1164 1.355 . S
C1163 C1165 1.415 . S
C1164 C1163 1.355 . S
C1164 C1166 1.419 . S
C1165 C1160 1.425 . S
C1165 C1162 1.409 . S
C1165 C1163 1.415 . S
C1166 H1156 0.930 . S
C1166 C1164 1.419 . S
C1166 C1167 1.362 . S
C1167 H1157 0.930 . S
C1167 C1160 1.409 . S
C1167 C1166 1.362 . S
H1168 C1174 0.930 . S
H1169 C1177 0.930 . S
H1170 C1178 0.930 . S
H1171 C1179 0.930 . S
H1172 C1182 0.930 . S
H1173 C1183 0.930 . S
C1174 H1168 0.930 . S
C1174 C1175 1.355 . S
C1174 C1176 1.415 . S
C1175 C1174 1.355 . S
C1175 C1177 1.419 . S
C1176 C1174 1.415 . S
C1176 C1181 1.425 . S
C1176 C1183 1.409 . S
C1177 H1169 0.930 . S
C1177 C1175 1.419 . S
C1177 C1178 1.362 . S
C1178 H1170 0.930 . S
C1178 C1177 1.362 . S
C1178 C1181 1.409 . S
C1179 H1171 0.930 . S
C1179 C1180 1.355 . S
C1179 C1181 1.415 . S
C1180 C1179 1.355 . S
C1180 C1182 1.419 . S
C1181 C1176 1.425 . S
C1181 C1178 1.409 . S
C1181 C1179 1.415 . S
C1182 H1172 0.930 . S
C1182 C1180 1.419 . S
C1182 C1183 1.362 . S
C1183 H1173 0.930 . S
C1183 C1176 1.409 . S
C1183 C1182 1.362 . S
C551 C5 1.545 . S
C556 C243 1.523 . S
C567 C141 1.545 . S
C572 C39 1.523 . S
C583 C175 1.523 . S
C588 C73 1.546 . S
C599 C209 1.544 . S
C604 C107 1.524 . S
C615 C277 1.532 . S
C620 C515 1.537 . S
C631 C311 1.540 . S
C636 C413 1.528 . S
C647 C447 1.530 . S
C652 C345 1.538 . S
C663 C379 1.522 . S
C668 C481 1.546 . S
C679 C9 1.492 . S
C684 C281 1.492 . S
C695 C315 1.492 . S
C700 C43 1.492 . S
C711 C349 1.543 . S
C716 C77 1.543 . S
C727 C111 1.471 . S
C732 C383 1.471 . S
C743 C417 1.504 . S
C748 C145 1.504 . S
C759 C451 1.551 . S
C764 C179 1.551 . S
C775 C213 1.460 . S
C780 C485 1.460 . S
C791 C519 1.502 . S
C796 C247 1.502 . S
C807 C20 1.047 . S
C812 C478 1.006 . S
C823 C512 1.048 . S
C828 C54 1.017 . S
C839 C88 1.006 . S
C844 C410 1.033 . S
C855 C444 0.995 . S
C860 C122 1.043 . S
C871 C156 1.047 . S
C876 C342 0.999 . S
C887 C190 1.047 . S
C892 C376 0.998 . S
C903 C224 1.033 . S
C908 C274 1.032 . S
C919 C258 1.045 . S
C924 C308 1.013 . S
C935 C206 1.048 . S
C940 C292 1.016 . S
C951 C240 1.002 . S
C956 C326 1.048 . S
C967 C360 1.007 . S
C972 C138 1.050 . S
C983 C172 1.044 . S
C988 C394 1.005 . S
C999 C70 1.049 . S
C1004 C428 1.006 . S
C1015 C104 1.023 . S
C1020 C462 1.039 . S
C1031 C496 1.045 . S
C1036 C2 1.011 . S
C1047 C36 1.007 . S
C1052 C530 1.047 . S
C1063 C101 1.311 . S
C1068 C33 1.302 . S
C1079 C135 1.258 . S
C1084 C67 1.254 . S
C1095 C169 1.360 . S
C1100 C237 1.363 . S
C1111 C271 1.349 . S
C1116 C203 1.355 . S
C1127 C305 1.251 . S
C1132 C373 1.252 . S
C1143 C407 1.251 . S
C1148 C339 1.252 . S
C1159 C441 1.257 . S
C1164 C509 1.262 . S
C1175 C475 1.362 . S
C1180 C543 1.364 . S
