# Generated by pormake.
# Topology ech, (8)-cn, num edge types: 1
# Building blocks:
#     Node 0, Type 0, BuildingBlock: EBIMEJ_clean_sbu_0, # of connection points: 8
#     Node 1, Type 0, BuildingBlock: EBIMEJ_clean_sbu_0, # of connection points: 8
#     Node 2, Type 0, BuildingBlock: EBIMEJ_clean_sbu_0, # of connection points: 8
#     Node 3, Type 0, BuildingBlock: EBIMEJ_clean_sbu_0, # of connection points: 8
#     Node 4, Type 0, BuildingBlock: EBIMEJ_clean_sbu_0, # of connection points: 8
#     Node 5, Type 0, BuildingBlock: EBIMEJ_clean_sbu_0, # of connection points: 8
#     Node 6, Type 0, BuildingBlock: EBIMEJ_clean_sbu_0, # of connection points: 8
#     Node 7, Type 0, BuildingBlock: EBIMEJ_clean_sbu_0, # of connection points: 8
#     Node 8, Type 0, BuildingBlock: EBIMEJ_clean_sbu_0, # of connection points: 8
#     Node 9, Type 0, BuildingBlock: EBIMEJ_clean_sbu_0, # of connection points: 8
#     Node 10, Type 0, BuildingBlock: EBIMEJ_clean_sbu_0, # of connection points: 8
#     Node 11, Type 0, BuildingBlock: EBIMEJ_clean_sbu_0, # of connection points: 8
#     Node 12, Type 0, BuildingBlock: EBIMEJ_clean_sbu_0, # of connection points: 8
#     Node 13, Type 0, BuildingBlock: EBIMEJ_clean_sbu_0, # of connection points: 8
#     Node 14, Type 0, BuildingBlock: EBIMEJ_clean_sbu_0, # of connection points: 8
#     Node 15, Type 0, BuildingBlock: EBIMEJ_clean_sbu_0, # of connection points: 8
#     Node 16, Type 0, BuildingBlock: EBIMEJ_clean_sbu_0, # of connection points: 8
#     Node 17, Type 0, BuildingBlock: EBIMEJ_clean_sbu_0, # of connection points: 8
#     Node 18, Type 0, BuildingBlock: EBIMEJ_clean_sbu_0, # of connection points: 8
#     Node 19, Type 0, BuildingBlock: EBIMEJ_clean_sbu_0, # of connection points: 8
#     Node 20, Type 0, BuildingBlock: EBIMEJ_clean_sbu_0, # of connection points: 8
#     Node 21, Type 0, BuildingBlock: EBIMEJ_clean_sbu_0, # of connection points: 8
#     Node 22, Type 0, BuildingBlock: EBIMEJ_clean_sbu_0, # of connection points: 8
#     Node 23, Type 0, BuildingBlock: EBIMEJ_clean_sbu_0, # of connection points: 8
#     Edge 24, Type (0, 0), BuildingBlock: OJICUG_clean_linker_0, # of connection points: 2
#     Edge 25, Type (0, 0), BuildingBlock: OJICUG_clean_linker_0, # of connection points: 2
#     Edge 26, Type (0, 0), BuildingBlock: OJICUG_clean_linker_0, # of connection points: 2
#     Edge 27, Type (0, 0), BuildingBlock: OJICUG_clean_linker_0, # of connection points: 2
#     Edge 28, Type (0, 0), BuildingBlock: OJICUG_clean_linker_0, # of connection points: 2
#     Edge 29, Type (0, 0), BuildingBlock: OJICUG_clean_linker_0, # of connection points: 2
#     Edge 30, Type (0, 0), BuildingBlock: OJICUG_clean_linker_0, # of connection points: 2
#     Edge 31, Type (0, 0), BuildingBlock: OJICUG_clean_linker_0, # of connection points: 2
#     Edge 32, Type (0, 0), BuildingBlock: OJICUG_clean_linker_0, # of connection points: 2
#     Edge 33, Type (0, 0), BuildingBlock: OJICUG_clean_linker_0, # of connection points: 2
#     Edge 34, Type (0, 0), BuildingBlock: OJICUG_clean_linker_0, # of connection points: 2
#     Edge 35, Type (0, 0), BuildingBlock: OJICUG_clean_linker_0, # of connection points: 2
#     Edge 36, Type (0, 0), BuildingBlock: OJICUG_clean_linker_0, # of connection points: 2
#     Edge 37, Type (0, 0), BuildingBlock: OJICUG_clean_linker_0, # of connection points: 2
#     Edge 38, Type (0, 0), BuildingBlock: OJICUG_clean_linker_0, # of connection points: 2
#     Edge 39, Type (0, 0), BuildingBlock: OJICUG_clean_linker_0, # of connection points: 2
#     Edge 40, Type (0, 0), BuildingBlock: OJICUG_clean_linker_0, # of connection points: 2
#     Edge 41, Type (0, 0), BuildingBlock: OJICUG_clean_linker_0, # of connection points: 2
#     Edge 42, Type (0, 0), BuildingBlock: OJICUG_clean_linker_0, # of connection points: 2
#     Edge 43, Type (0, 0), BuildingBlock: OJICUG_clean_linker_0, # of connection points: 2
#     Edge 44, Type (0, 0), BuildingBlock: OJICUG_clean_linker_0, # of connection points: 2
#     Edge 45, Type (0, 0), BuildingBlock: OJICUG_clean_linker_0, # of connection points: 2
#     Edge 46, Type (0, 0), BuildingBlock: OJICUG_clean_linker_0, # of connection points: 2
#     Edge 47, Type (0, 0), BuildingBlock: OJICUG_clean_linker_0, # of connection points: 2
#     Edge 48, Type (0, 0), BuildingBlock: OJICUG_clean_linker_0, # of connection points: 2
#     Edge 49, Type (0, 0), BuildingBlock: OJICUG_clean_linker_0, # of connection points: 2
#     Edge 50, Type (0, 0), BuildingBlock: OJICUG_clean_linker_0, # of connection points: 2
#     Edge 51, Type (0, 0), BuildingBlock: OJICUG_clean_linker_0, # of connection points: 2
#     Edge 52, Type (0, 0), BuildingBlock: OJICUG_clean_linker_0, # of connection points: 2
#     Edge 53, Type (0, 0), BuildingBlock: OJICUG_clean_linker_0, # of connection points: 2
#     Edge 54, Type (0, 0), BuildingBlock: OJICUG_clean_linker_0, # of connection points: 2
#     Edge 55, Type (0, 0), BuildingBlock: OJICUG_clean_linker_0, # of connection points: 2
#     Edge 56, Type (0, 0), BuildingBlock: OJICUG_clean_linker_0, # of connection points: 2
#     Edge 57, Type (0, 0), BuildingBlock: OJICUG_clean_linker_0, # of connection points: 2
#     Edge 58, Type (0, 0), BuildingBlock: OJICUG_clean_linker_0, # of connection points: 2
#     Edge 59, Type (0, 0), BuildingBlock: OJICUG_clean_linker_0, # of connection points: 2
#     Edge 60, Type (0, 0), BuildingBlock: OJICUG_clean_linker_0, # of connection points: 2
#     Edge 61, Type (0, 0), BuildingBlock: OJICUG_clean_linker_0, # of connection points: 2
#     Edge 62, Type (0, 0), BuildingBlock: OJICUG_clean_linker_0, # of connection points: 2
#     Edge 63, Type (0, 0), BuildingBlock: OJICUG_clean_linker_0, # of connection points: 2
#     Edge 64, Type (0, 0), BuildingBlock: OJICUG_clean_linker_0, # of connection points: 2
#     Edge 65, Type (0, 0), BuildingBlock: OJICUG_clean_linker_0, # of connection points: 2
#     Edge 66, Type (0, 0), BuildingBlock: OJICUG_clean_linker_0, # of connection points: 2
#     Edge 67, Type (0, 0), BuildingBlock: OJICUG_clean_linker_0, # of connection points: 2
#     Edge 68, Type (0, 0), BuildingBlock: OJICUG_clean_linker_0, # of connection points: 2
#     Edge 69, Type (0, 0), BuildingBlock: OJICUG_clean_linker_0, # of connection points: 2
#     Edge 70, Type (0, 0), BuildingBlock: OJICUG_clean_linker_0, # of connection points: 2
#     Edge 71, Type (0, 0), BuildingBlock: OJICUG_clean_linker_0, # of connection points: 2
#     Edge 72, Type (0, 0), BuildingBlock: OJICUG_clean_linker_0, # of connection points: 2
#     Edge 73, Type (0, 0), BuildingBlock: OJICUG_clean_linker_0, # of connection points: 2
#     Edge 74, Type (0, 0), BuildingBlock: OJICUG_clean_linker_0, # of connection points: 2
#     Edge 75, Type (0, 0), BuildingBlock: OJICUG_clean_linker_0, # of connection points: 2
#     Edge 76, Type (0, 0), BuildingBlock: OJICUG_clean_linker_0, # of connection points: 2
#     Edge 77, Type (0, 0), BuildingBlock: OJICUG_clean_linker_0, # of connection points: 2
#     Edge 78, Type (0, 0), BuildingBlock: OJICUG_clean_linker_0, # of connection points: 2
#     Edge 79, Type (0, 0), BuildingBlock: OJICUG_clean_linker_0, # of connection points: 2
#     Edge 80, Type (0, 0), BuildingBlock: OJICUG_clean_linker_0, # of connection points: 2
#     Edge 81, Type (0, 0), BuildingBlock: OJICUG_clean_linker_0, # of connection points: 2
#     Edge 82, Type (0, 0), BuildingBlock: OJICUG_clean_linker_0, # of connection points: 2
#     Edge 83, Type (0, 0), BuildingBlock: OJICUG_clean_linker_0, # of connection points: 2
#     Edge 84, Type (0, 0), BuildingBlock: OJICUG_clean_linker_0, # of connection points: 2
#     Edge 85, Type (0, 0), BuildingBlock: OJICUG_clean_linker_0, # of connection points: 2
#     Edge 86, Type (0, 0), BuildingBlock: OJICUG_clean_linker_0, # of connection points: 2
#     Edge 87, Type (0, 0), BuildingBlock: OJICUG_clean_linker_0, # of connection points: 2
#     Edge 88, Type (0, 0), BuildingBlock: OJICUG_clean_linker_0, # of connection points: 2
#     Edge 89, Type (0, 0), BuildingBlock: OJICUG_clean_linker_0, # of connection points: 2
#     Edge 90, Type (0, 0), BuildingBlock: OJICUG_clean_linker_0, # of connection points: 2
#     Edge 91, Type (0, 0), BuildingBlock: OJICUG_clean_linker_0, # of connection points: 2
#     Edge 92, Type (0, 0), BuildingBlock: OJICUG_clean_linker_0, # of connection points: 2
#     Edge 93, Type (0, 0), BuildingBlock: OJICUG_clean_linker_0, # of connection points: 2
#     Edge 94, Type (0, 0), BuildingBlock: OJICUG_clean_linker_0, # of connection points: 2
#     Edge 95, Type (0, 0), BuildingBlock: OJICUG_clean_linker_0, # of connection points: 2
#     Edge 96, Type (0, 0), BuildingBlock: OJICUG_clean_linker_0, # of connection points: 2
#     Edge 97, Type (0, 0), BuildingBlock: OJICUG_clean_linker_0, # of connection points: 2
#     Edge 98, Type (0, 0), BuildingBlock: OJICUG_clean_linker_0, # of connection points: 2
#     Edge 99, Type (0, 0), BuildingBlock: OJICUG_clean_linker_0, # of connection points: 2
#     Edge 100, Type (0, 0), BuildingBlock: OJICUG_clean_linker_0, # of connection points: 2
#     Edge 101, Type (0, 0), BuildingBlock: OJICUG_clean_linker_0, # of connection points: 2
#     Edge 102, Type (0, 0), BuildingBlock: OJICUG_clean_linker_0, # of connection points: 2
#     Edge 103, Type (0, 0), BuildingBlock: OJICUG_clean_linker_0, # of connection points: 2
#     Edge 104, Type (0, 0), BuildingBlock: OJICUG_clean_linker_0, # of connection points: 2
#     Edge 105, Type (0, 0), BuildingBlock: OJICUG_clean_linker_0, # of connection points: 2
#     Edge 106, Type (0, 0), BuildingBlock: OJICUG_clean_linker_0, # of connection points: 2
#     Edge 107, Type (0, 0), BuildingBlock: OJICUG_clean_linker_0, # of connection points: 2
#     Edge 108, Type (0, 0), BuildingBlock: OJICUG_clean_linker_0, # of connection points: 2
#     Edge 109, Type (0, 0), BuildingBlock: OJICUG_clean_linker_0, # of connection points: 2
#     Edge 110, Type (0, 0), BuildingBlock: OJICUG_clean_linker_0, # of connection points: 2
#     Edge 111, Type (0, 0), BuildingBlock: OJICUG_clean_linker_0, # of connection points: 2
#     Edge 112, Type (0, 0), BuildingBlock: OJICUG_clean_linker_0, # of connection points: 2
#     Edge 113, Type (0, 0), BuildingBlock: OJICUG_clean_linker_0, # of connection points: 2
#     Edge 114, Type (0, 0), BuildingBlock: OJICUG_clean_linker_0, # of connection points: 2
#     Edge 115, Type (0, 0), BuildingBlock: OJICUG_clean_linker_0, # of connection points: 2
#     Edge 116, Type (0, 0), BuildingBlock: OJICUG_clean_linker_0, # of connection points: 2
#     Edge 117, Type (0, 0), BuildingBlock: OJICUG_clean_linker_0, # of connection points: 2
#     Edge 118, Type (0, 0), BuildingBlock: OJICUG_clean_linker_0, # of connection points: 2
#     Edge 119, Type (0, 0), BuildingBlock: OJICUG_clean_linker_0, # of connection points: 2
# Relax obj value: 0.222
# Max RMSD: 0.235
# Mean RMSD: 0.235
data_MOF--net-ech--node1-EBIMEJ_clean_sbu_0--edge1-OJICUG_clean_linker_0
_symmetry_space_group_name_H-M    P1
_symmetry_Int_Tables_number       1
_symmetry_cell_setting            triclinic
loop_
_symmetry_equiv_pos_as_xyz
'x, y, z'
_cell_length_a     37.439871
_cell_length_b     37.439378
_cell_length_c     37.440129
_cell_angle_alpha  90.005182
_cell_angle_beta   90.014924
_cell_angle_gamma 90.010056
loop_
_atom_site_label
_atom_site_type_symbol
_atom_site_fract_x
_atom_site_fract_y
_atom_site_fract_z
_atom_type_partial_charge
Co0 Co 0.19325 0.27083 0.43118 0.0
Co1 Co 0.15043 0.3017 0.50601 0.0
Co2 Co 0.14372 0.34063 0.43646 0.0
H3 H 0.17012 0.30805 0.4438 0.0
O4 O 0.18096 0.3109 0.46392 0.0
H5 H 0.12402 0.33163 0.49544 0.0
O6 O 0.11293 0.32727 0.47581 0.0
Co7 Co 0.10305 0.36989 0.5036 0.0
O8 O 0.10506 0.35544 0.55508 0.0
O9 O 0.11858 0.29723 0.5497 0.0
O10 O 0.10415 0.40928 0.46728 0.0
O11 O 0.10894 0.3764 0.41765 0.0
O12 O 0.24242 0.24568 0.43445 0.0
O13 O 0.21922 0.25493 0.38507 0.0
O14 O 0.15009 0.39274 0.51451 0.0
O15 O 0.17764 0.34228 0.52985 0.0
C16 C 0.19364 0.33313 0.37649 0.0
C17 C 0.20385 0.24479 0.51208 0.0
C18 C 0.03778 0.37749 0.50094 0.0
C19 C 0.11911 0.27018 0.40233 0.0
C20 C 0.10603 0.32384 0.56756 0.0
C21 C 0.1 0.40511 0.43378 0.0
C22 C 0.24595 0.2427 0.40117 0.0
C23 C 0.17657 0.37638 0.52791 0.0
O24 O 0.20022 0.30033 0.38429 0.0
O25 O 0.17546 0.35316 0.39689 0.0
O26 O 0.1855 0.26935 0.52699 0.0
O27 O 0.20721 0.24169 0.4777 0.0
O28 O 0.05813 0.39624 0.51998 0.0
O29 O 0.05455 0.35421 0.48366 0.0
O30 O 0.14558 0.25179 0.41347 0.0
O31 O 0.1175 0.30393 0.407 0.0
Co32 Co 0.36194 0.78414 0.93135 0.0
Co33 Co 0.40462 0.75361 1.00642 0.0
Co34 Co 0.41148 0.71439 0.93703 0.0
H35 H 0.38507 0.747 0.94418 0.0
O36 O 0.3742 0.74422 0.96428 0.0
H37 H 0.43107 0.72364 0.99606 0.0
O38 O 0.44221 0.72791 0.97643 0.0
Co39 Co 0.45197 0.68539 1.00443 0.0
O40 O 0.4501 0.70017 0.05582 0.0
O41 O 0.43631 0.7583 0.05022 0.0
O42 O 0.45019 0.64582 0.96834 0.0
O43 O 0.4463 0.6785 0.91853 0.0
O44 O 0.31261 0.80892 0.93452 0.0
O45 O 0.33603 0.80002 0.88519 0.0
O46 O 0.40498 0.6626 1.01555 0.0
O47 O 0.37734 0.71317 0.03038 0.0
C48 C 0.36148 0.72159 0.87696 0.0
C49 C 0.35119 0.81054 1.01211 0.0
C50 C 0.51715 0.67688 1.00186 0.0
C51 C 0.4361 0.78471 0.90261 0.0
C52 C 0.44886 0.7318 0.06822 0.0
C53 C 0.45487 0.64979 0.93489 0.0
C54 C 0.30917 0.812 0.90124 0.0
C55 C 0.37847 0.67905 0.02875 0.0
O56 O 0.3551 0.75448 0.88452 0.0
O57 O 0.37972 0.70168 0.89746 0.0
O58 O 0.3695 0.78604 1.02715 0.0
O59 O 0.3479 0.81351 0.97771 0.0
O60 O 0.49641 0.6579 1.02023 0.0
O61 O 0.50084 0.70095 0.98525 0.0
O62 O 0.40961 0.80312 0.91366 0.0
O63 O 0.43775 0.75097 0.90742 0.0
Co64 Co 0.6932 0.28447 0.62369 0.0
Co65 Co 0.65037 0.25362 0.54886 0.0
Co66 Co 0.64405 0.21453 0.61835 0.0
H67 H 0.67025 0.24721 0.61099 0.0
O68 O 0.68105 0.24445 0.59085 0.0
H69 H 0.624 0.22367 0.55947 0.0
O70 O 0.613 0.22794 0.57917 0.0
Co71 Co 0.60304 0.1854 0.55127 0.0
O72 O 0.60484 0.19991 0.4998 0.0
O73 O 0.61846 0.25809 0.5052 0.0
O74 O 0.60455 0.14591 0.58744 0.0
O75 O 0.60948 0.17858 0.6372 0.0
O76 O 0.74251 0.30926 0.62025 0.0
O77 O 0.71914 0.30068 0.66968 0.0
O78 O 0.65007 0.1626 0.54036 0.0
O79 O 0.67756 0.21308 0.52493 0.0
C80 C 0.69446 0.22197 0.67802 0.0
C81 C 0.70373 0.31058 0.5428 0.0
C82 C 0.53782 0.17733 0.55375 0.0
C83 C 0.61921 0.2848 0.65268 0.0
C84 C 0.60593 0.23149 0.4873 0.0
C85 C 0.60049 0.14993 0.62096 0.0
C86 C 0.74598 0.31256 0.6535 0.0
C87 C 0.6765 0.17897 0.52688 0.0
O88 O 0.70033 0.25499 0.67061 0.0
O89 O 0.67624 0.20194 0.65761 0.0
O90 O 0.68535 0.28605 0.52786 0.0
O91 O 0.70712 0.31364 0.57718 0.0
O92 O 0.55839 0.15849 0.53505 0.0
O93 O 0.55434 0.20099 0.57077 0.0
O94 O 0.64548 0.30334 0.64133 0.0
O95 O 0.61784 0.25101 0.64814 0.0
Co96 Co 0.86183 0.77071 0.12376 0.0
Co97 Co 0.90465 0.80147 0.04884 0.0
Co98 Co 0.9111 0.84058 0.11832 0.0
H99 H 0.88484 0.80792 0.11101 0.0
O100 O 0.87403 0.81067 0.09086 0.0
H101 H 0.93104 0.83141 0.05942 0.0
O102 O 0.94207 0.82713 0.07911 0.0
Co103 Co 0.95199 0.86966 0.0512 0.0
O104 O 0.95009 0.8552 0.99972 0.0
O105 O 0.93651 0.79701 1.00513 0.0
O106 O 0.95058 0.90917 0.08737 0.0
O107 O 0.94574 0.87649 0.13712 0.0
O108 O 0.81294 0.74503 0.1205 0.0
O109 O 0.83559 0.75547 0.16991 0.0
O110 O 0.90501 0.89249 0.04014 0.0
O111 O 0.87743 0.84199 1.02493 0.0
C112 C 0.86076 0.83328 0.17804 0.0
C113 C 0.85124 0.74454 0.04287 0.0
C114 C 1.01723 0.87751 0.05385 0.0
C115 C 0.93588 0.77029 0.15264 0.0
C116 C 0.949 0.82361 0.98722 0.0
C117 C 0.95471 0.90514 0.12089 0.0
C118 C 0.80912 0.74268 0.1538 0.0
C119 C 0.87854 0.8761 1.02675 0.0
O120 O 0.85476 0.80029 0.17062 0.0
O121 O 0.87901 0.85325 0.15761 0.0
O122 O 0.86963 0.76904 0.0279 0.0
O123 O 0.84788 0.74152 0.07726 0.0
O124 O 0.9968 0.89625 0.0349 0.0
O125 O 1.00056 0.85408 0.07103 0.0
O126 O 0.90956 0.75178 0.14134 0.0
O127 O 0.9373 0.80407 0.14809 0.0
Co128 Co 0.43139 0.19316 0.27064 0.0
Co129 Co 0.5062 0.15032 0.30145 0.0
Co130 Co 0.43674 0.14409 0.34061 0.0
H131 H 0.4441 0.17024 0.3079 0.0
O132 O 0.46426 0.18103 0.31062 0.0
H133 H 0.49558 0.12399 0.33143 0.0
O134 O 0.47586 0.113 0.32718 0.0
Co135 Co 0.50377 0.10306 0.3697 0.0
O136 O 0.55524 0.10481 0.35522 0.0
O137 O 0.54984 0.11836 0.29702 0.0
O138 O 0.46769 0.10474 0.40927 0.0
O139 O 0.41791 0.10959 0.37663 0.0
O140 O 0.43497 0.24236 0.24567 0.0
O141 O 0.38547 0.21915 0.25436 0.0
O142 O 0.51498 0.15005 0.39248 0.0
O143 O 0.53017 0.17755 0.34194 0.0
C144 C 0.37705 0.19442 0.33312 0.0
C145 C 0.51227 0.20376 0.24454 0.0
C146 C 0.50082 0.03782 0.37742 0.0
C147 C 0.40236 0.11918 0.27038 0.0
C148 C 0.56772 0.10583 0.32362 0.0
C149 C 0.43416 0.10067 0.40529 0.0
C150 C 0.40172 0.2459 0.24237 0.0
C151 C 0.52838 0.17648 0.37605 0.0
O152 O 0.38444 0.20024 0.30008 0.0
O153 O 0.39752 0.1763 0.35318 0.0
O154 O 0.52722 0.18525 0.26897 0.0
O155 O 0.47789 0.20721 0.24155 0.0
O156 O 0.5201 0.05809 0.39601 0.0
O157 O 0.48347 0.05465 0.35423 0.0
O158 O 0.41372 0.14543 0.25182 0.0
O159 O 0.40689 0.11784 0.30417 0.0
Co160 Co 0.12381 0.86178 0.77057 0.0
Co161 Co 0.04908 0.90474 0.80151 0.0
Co162 Co 0.11861 0.91078 0.84058 0.0
H163 H 0.11115 0.88467 0.80786 0.0
O164 O 0.09097 0.87392 0.81059 0.0
H165 H 0.0598 0.93099 0.83153 0.0
O166 O 0.07953 0.94196 0.82727 0.0
Co167 Co 0.05169 0.95188 0.86985 0.0
O168 O 1.0002 0.9502 0.85539 0.0
O169 O 1.00554 0.93682 0.79715 0.0
O170 O 0.08799 0.95055 0.90927 0.0
O171 O 0.13766 0.94521 0.87653 0.0
O172 O 0.12036 0.81247 0.74579 0.0
O173 O 0.1698 0.83584 0.75439 0.0
O174 O 0.04043 0.90487 0.89256 0.0
O175 O 1.02507 0.87752 0.84198 0.0
C176 C 0.1782 0.86034 0.833 0.0
C177 C 0.04285 0.85144 0.7445 0.0
C178 C 0.05441 1.01712 0.87755 0.0
C179 C 0.15283 0.93574 0.7703 0.0
C180 C 0.9877 0.94932 0.82379 0.0
C181 C 0.12154 0.95434 0.90518 0.0
C182 C 0.15361 0.80899 0.74252 0.0
C183 C 1.02691 0.87851 0.8761 0.0
O184 O 0.17081 0.85462 0.79996 0.0
O185 O 0.15777 0.87846 0.85308 0.0
O186 O 0.02796 0.86991 0.76899 0.0
O187 O 0.07722 0.84793 0.74148 0.0
O188 O 0.03534 0.99677 0.89626 0.0
O189 O 0.07171 1.00037 0.85428 0.0
O190 O 0.14138 0.90954 0.75172 0.0
O191 O 0.14843 0.937 0.80411 0.0
Co192 Co 0.93127 0.36193 0.78424 0.0
Co193 Co 1.00621 0.40457 0.75341 0.0
Co194 Co 0.93673 0.41121 0.71436 0.0
H195 H 0.944 0.3849 0.747 0.0
O196 O 0.96411 0.37405 0.74421 0.0
H197 H 0.99563 0.43111 0.72357 0.0
O198 O 0.97596 0.44212 0.72792 0.0
Co199 Co 1.00383 0.45225 0.6854 0.0
O200 O 0.05534 0.45012 0.69976 0.0
O201 O 0.05003 0.43628 0.75789 0.0
O202 O 0.96761 0.45132 0.6459 0.0
O203 O 0.91789 0.4459 0.67855 0.0
O204 O 0.93402 0.31479 0.81319 0.0
O205 O 0.88503 0.33443 0.7966 0.0
O206 O 1.01479 0.4053 0.6624 0.0
O207 O 0.02994 0.37744 0.71276 0.0
C208 C 0.87702 0.36093 0.72152 0.0
C209 C 1.0122 0.35111 0.81025 0.0
C210 C 1.00129 0.51751 0.67772 0.0
C211 C 0.90247 0.43598 0.78468 0.0
C212 C 0.06794 0.44876 0.73129 0.0
C213 C 0.93406 0.45513 0.64996 0.0
C214 C 0.90083 0.30957 0.81254 0.0
C215 C 0.0281 0.37872 0.67866 0.0
O216 O 0.88444 0.35492 0.75452 0.0
O217 O 0.89744 0.37916 0.70155 0.0
O218 O 1.02715 0.36942 0.78568 0.0
O219 O 0.9778 0.34785 0.81336 0.0
O220 O 1.02018 0.49709 0.65891 0.0
O221 O 0.98411 0.50082 0.70112 0.0
O222 O 0.91384 0.4097 0.8032 0.0
O223 O 0.90693 0.43734 0.75088 0.0
Co224 Co 0.62376 0.69325 0.2843 0.0
Co225 Co 0.54886 0.65037 0.25367 0.0
Co226 Co 0.61821 0.64412 0.21433 0.0
H227 H 0.61095 0.6703 0.24707 0.0
O228 O 0.59079 0.68108 0.2444 0.0
H229 H 0.55936 0.62413 0.22358 0.0
O230 O 0.57905 0.61308 0.22776 0.0
Co231 Co 0.55105 0.60339 0.18523 0.0
O232 O 0.49965 0.60506 0.19997 0.0
O233 O 0.50525 0.61841 0.2582 0.0
O234 O 0.58705 0.6054 0.1456 0.0
O235 O 0.63689 0.6096 0.17823 0.0
O236 O 0.66989 0.71936 0.29984 0.0
O237 O 0.62049 0.74235 0.30953 0.0
O238 O 0.53986 0.65048 0.16267 0.0
O239 O 0.52473 0.67771 0.21337 0.0
C240 C 0.67802 0.69434 0.22174 0.0
C241 C 0.54295 0.7037 0.31071 0.0
C242 C 0.55388 0.5382 0.17698 0.0
C243 C 0.65265 0.61922 0.28454 0.0
C244 C 0.48728 0.60596 0.23161 0.0
C245 C 0.62054 0.60098 0.14952 0.0
C246 C 0.65378 0.746 0.31223 0.0
C247 C 0.52647 0.67682 0.17925 0.0
O248 O 0.67066 0.70022 0.25477 0.0
O249 O 0.65748 0.67626 0.20171 0.0
O250 O 0.52796 0.68523 0.28629 0.0
O251 O 0.57734 0.70721 0.31361 0.0
O252 O 0.53507 0.55872 0.15819 0.0
O253 O 0.5708 0.55474 0.20069 0.0
O254 O 0.64134 0.64549 0.30309 0.0
O255 O 0.64807 0.61784 0.25075 0.0
Co256 Co 0.27108 0.43115 0.19323 0.0
Co257 Co 0.30159 0.50612 0.15047 0.0
Co258 Co 0.34093 0.43681 0.14386 0.0
H259 H 0.30828 0.44397 0.17021 0.0
O260 O 0.311 0.46411 0.18104 0.0
H261 H 0.33147 0.49564 0.12397 0.0
O262 O 0.3272 0.47595 0.11295 0.0
Co263 Co 0.36964 0.50397 0.10289 0.0
O264 O 0.35507 0.5554 0.10495 0.0
O265 O 0.29693 0.54984 0.11866 0.0
O266 O 0.40933 0.468 0.10413 0.0
O267 O 0.37682 0.41816 0.10914 0.0
O268 O 0.23945 0.43315 0.23874 0.0
O269 O 0.26155 0.38522 0.22222 0.0
O270 O 0.39258 0.51508 0.14984 0.0
O271 O 0.34213 0.53007 0.1776 0.0
C272 C 0.33398 0.377 0.19392 0.0
C273 C 0.24482 0.51198 0.20403 0.0
C274 C 0.37712 0.5011 0.03762 0.0
C275 C 0.27065 0.40236 0.11917 0.0
C276 C 0.32346 0.56783 0.10613 0.0
C277 C 0.40541 0.43446 0.10012 0.0
C278 C 0.24289 0.40041 0.24548 0.0
C279 C 0.37623 0.52834 0.17639 0.0
O280 O 0.30096 0.38436 0.19993 0.0
O281 O 0.35395 0.39758 0.17587 0.0
O282 O 0.26924 0.52699 0.18558 0.0
O283 O 0.24186 0.47758 0.20741 0.0
O284 O 0.39567 0.52048 0.05784 0.0
O285 O 0.3541 0.48362 0.05452 0.0
O286 O 0.25215 0.41376 0.14544 0.0
O287 O 0.30445 0.40685 0.11778 0.0
Co288 Co 0.77089 0.12385 0.8618 0.0
Co289 Co 0.80168 0.04895 0.90462 0.0
Co290 Co 0.84065 0.11848 0.91132 0.0
H291 H 0.80807 0.11115 0.88493 0.0
O292 O 0.81091 0.09104 0.8741 0.0
H293 H 0.83153 0.05953 0.93113 0.0
O294 O 0.82718 0.0792 0.94217 0.0
Co295 Co 0.86971 0.05135 0.95223 0.0
O296 O 0.85532 0.99985 0.95017 0.0
O297 O 0.79716 1.00522 0.93644 0.0
O298 O 0.90915 0.08763 0.95129 0.0
O299 O 0.87641 0.13732 0.94609 0.0
O300 O 0.75492 0.16995 0.83585 0.0
O301 O 0.74603 0.12057 0.8125 0.0
O302 O 0.89272 0.04043 0.90529 0.0
O303 O 0.84233 1.02515 0.87753 0.0
C304 C 0.83331 0.17839 0.86126 0.0
C305 C 0.74483 0.04293 0.85117 0.0
C306 C 0.87706 0.05388 1.01752 0.0
C307 C 0.77024 0.15267 0.93591 0.0
C308 C 0.82373 0.98734 0.94901 0.0
C309 C 0.90505 0.12116 0.95524 0.0
C310 C 0.74291 0.15384 0.80902 0.0
C311 C 0.87644 1.02704 0.87875 0.0
O312 O 0.80042 0.17077 0.85492 0.0
O313 O 0.85329 0.15791 0.87944 0.0
O314 O 0.7694 0.02799 0.86949 0.0
O315 O 0.74173 0.07732 0.84786 0.0
O316 O 0.89573 0.0347 0.99725 0.0
O317 O 0.85401 0.07138 1.00066 0.0
O318 O 0.75183 0.14146 0.90948 0.0
O319 O 0.80401 0.14808 0.93747 0.0
Co320 Co 0.78435 0.93133 0.3618 0.0
Co321 Co 0.75355 1.00612 0.40479 0.0
Co322 Co 0.71443 0.93665 0.41094 0.0
H323 H 0.74712 0.94403 0.38477 0.0
O324 O 0.74439 0.96421 0.37402 0.0
H325 H 0.7236 0.99546 0.43112 0.0
O326 O 0.72787 0.97573 0.44208 0.0
Co327 Co 0.68536 1.0036 0.45211 0.0
O328 O 0.6998 0.0551 0.45036 0.0
O329 O 0.75799 0.04974 0.43678 0.0
O330 O 0.64583 0.96744 0.45072 0.0
O331 O 0.67848 0.9177 0.44544 0.0
O332 O 0.80976 0.93462 0.31278 0.0
O333 O 0.7998 0.88521 0.33561 0.0
O334 O 0.66253 1.01472 0.40512 0.0
O335 O 0.71302 0.03007 0.37761 0.0
C336 C 0.72182 0.87704 0.36054 0.0
C337 C 0.81049 1.01225 0.35146 0.0
C338 C 0.67779 1.00078 0.51736 0.0
C339 C 0.7847 0.90233 0.43577 0.0
C340 C 0.73139 0.06761 0.44932 0.0
C341 C 0.64985 0.93389 0.45455 0.0
C342 C 0.81234 0.90134 0.30905 0.0
C343 C 0.67891 0.02818 0.37869 0.0
O344 O 0.75485 0.88441 0.35471 0.0
O345 O 0.70179 0.8975 0.37868 0.0
O346 O 0.78599 1.02718 0.36987 0.0
O347 O 0.81351 0.97787 0.34799 0.0
O348 O 0.65921 1.02009 0.49711 0.0
O349 O 0.70086 0.98332 0.50051 0.0
O350 O 0.80324 0.91376 0.40954 0.0
O351 O 0.7509 0.90678 0.43709 0.0
Co352 Co 0.28433 0.62376 0.6933 0.0
Co353 Co 0.25375 0.54887 0.65026 0.0
Co354 Co 0.21436 0.6182 0.64411 0.0
H355 H 0.2471 0.61094 0.67032 0.0
O356 O 0.24444 0.59075 0.68106 0.0
H357 H 0.22367 0.5594 0.624 0.0
O358 O 0.22785 0.57913 0.61301 0.0
Co359 Co 0.18536 0.55109 0.60315 0.0
O360 O 0.20012 0.49969 0.60481 0.0
O361 O 0.25834 0.50533 0.61819 0.0
O362 O 0.14576 0.58714 0.60479 0.0
O363 O 0.17834 0.63697 0.60959 0.0
O364 O 0.31272 0.62081 0.74077 0.0
O365 O 0.29718 0.66995 0.72067 0.0
O366 O 0.16274 0.53959 0.65013 0.0
O367 O 0.21343 0.52464 0.67749 0.0
C368 C 0.22162 0.67791 0.6944 0.0
C369 C 0.3107 0.54292 0.70368 0.0
C370 C 0.17719 0.5538 0.53796 0.0
C371 C 0.28456 0.65271 0.61929 0.0
C372 C 0.23178 0.48736 0.60569 0.0
C373 C 0.1497 0.62067 0.60068 0.0
C374 C 0.31259 0.65403 0.74579 0.0
C375 C 0.1793 0.52622 0.67649 0.0
O376 O 0.25467 0.6706 0.70026 0.0
O377 O 0.20161 0.65737 0.67632 0.0
O378 O 0.28635 0.52794 0.6851 0.0
O379 O 0.31355 0.5773 0.70727 0.0
O380 O 0.1584 0.535 0.55849 0.0
O381 O 0.20084 0.5708 0.55451 0.0
O382 O 0.30312 0.64135 0.64554 0.0
O383 O 0.25077 0.64815 0.61793 0.0
Co384 Co 0.95199 0.68533 0.55143 0.0
Co385 Co 0.91094 0.71446 0.61844 0.0
Co386 Co 0.90468 0.75355 0.54894 0.0
H387 H 0.93103 0.72359 0.55958 0.0
O388 O 0.94202 0.72788 0.5793 0.0
H389 H 0.88473 0.74712 0.61104 0.0
O390 O 0.87396 0.74436 0.59088 0.0
Co391 Co 0.86175 0.78435 0.62373 0.0
O392 O 0.85462 0.75487 0.67065 0.0
O393 O 0.87873 0.70184 0.65766 0.0
O394 O 0.84785 0.81349 0.5772 0.0
O395 O 0.86972 0.78598 0.5279 0.0
O396 O 0.99661 0.65837 0.53524 0.0
O397 O 1.00071 0.7009 0.57092 0.0
O398 O 0.90947 0.80331 0.64129 0.0
O399 O 0.93709 0.75099 0.64824 0.0
C400 C 0.94918 0.73141 0.48744 0.0
C401 C 0.95461 0.64995 0.6212 0.0
C402 C 0.809 0.81231 0.65369 0.0
C403 C 0.87854 0.67891 0.52698 0.0
C404 C 0.86051 0.72186 0.67806 0.0
C405 C 0.85129 0.81047 0.54282 0.0
C406 C 1.0172 0.67722 0.55392 0.0
C407 C 0.93574 0.78479 0.6527 0.0
O408 O 0.95025 0.69983 0.49995 0.0
O409 O 0.93663 0.75801 0.50531 0.0
O410 O 0.94551 0.67858 0.63738 0.0
O411 O 0.95065 0.64587 0.58767 0.0
O412 O 0.81249 0.80924 0.62041 0.0
O413 O 0.83581 0.80029 0.66981 0.0
O414 O 0.90493 0.66254 0.54053 0.0
O415 O 0.87752 0.71301 0.52497 0.0
Co416 Co 0.60321 0.36994 0.05104 0.0
Co417 Co 0.644 0.34086 0.1182 0.0
Co418 Co 0.65029 0.30159 0.04881 0.0
H419 H 0.62401 0.33163 0.05933 0.0
O420 O 0.61297 0.32742 0.07903 0.0
H421 H 0.67018 0.30813 0.11093 0.0
O422 O 0.68098 0.31082 0.09078 0.0
Co423 Co 0.69312 0.27088 0.12371 0.0
O424 O 0.70018 0.30049 0.17056 0.0
O425 O 0.67616 0.35352 0.15745 0.0
O426 O 0.70703 0.24161 0.07726 0.0
O427 O 0.68519 0.26904 0.02789 0.0
O428 O 0.55852 0.39676 0.03478 0.0
O429 O 0.55457 0.35446 0.07074 0.0
O430 O 0.64536 0.25208 0.14124 0.0
O431 O 0.61775 0.30442 0.14806 0.0
C432 C 0.60597 0.3237 0.98718 0.0
C433 C 0.60069 0.40559 0.12062 0.0
C434 C 0.74568 0.24274 0.15391 0.0
C435 C 0.67669 0.37609 1.02668 0.0
C436 C 0.69431 0.33351 0.17792 0.0
C437 C 0.70358 0.24455 0.04287 0.0
C438 C 0.538 0.37801 0.05364 0.0
C439 C 0.61911 0.27063 0.1526 0.0
O440 O 0.60502 0.35533 0.99959 0.0
O441 O 0.61837 0.2971 1.00515 0.0
O442 O 0.60948 0.37692 0.13693 0.0
O443 O 0.60488 0.40954 0.08711 0.0
O444 O 0.74155 0.24431 0.1206 0.0
O445 O 0.71962 0.25638 0.16995 0.0
O446 O 0.65032 0.39259 0.0401 0.0
O447 O 0.67762 0.34198 1.0248 0.0
Co448 Co 0.452 0.86978 0.50366 0.0
Co449 Co 0.4109 0.8406 0.43667 0.0
Co450 Co 0.40466 0.80155 0.50618 0.0
H451 H 0.43102 0.83151 0.49553 0.0
O452 O 0.442 0.82722 0.47582 0.0
H453 H 0.38474 0.8079 0.44406 0.0
O454 O 0.37395 0.81065 0.46421 0.0
Co455 Co 0.3618 0.77064 0.43136 0.0
O456 O 0.35466 0.80011 0.38443 0.0
O457 O 0.37868 0.85317 0.39747 0.0
O458 O 0.34781 0.74157 0.47792 0.0
O459 O 0.3697 0.76911 0.52722 0.0
O460 O 0.49691 0.8962 0.51999 0.0
O461 O 0.50049 0.85419 0.48367 0.0
O462 O 0.40959 0.75176 0.41389 0.0
O463 O 0.43711 0.80412 0.40687 0.0
C464 C 0.44907 0.82384 0.56772 0.0
C465 C 0.45452 0.9052 0.43388 0.0
C466 C 0.30908 0.74256 0.40138 0.0
C467 C 0.37854 0.8762 0.52814 0.0
C468 C 0.3605 0.83313 0.37704 0.0
C469 C 0.35124 0.74463 0.5123 0.0
C470 C 0.51725 0.87749 0.50093 0.0
C471 C 0.43582 0.77031 0.40247 0.0
O472 O 0.45015 0.8554 0.55517 0.0
O473 O 0.43659 0.7972 0.54986 0.0
O474 O 0.4454 0.87655 0.41773 0.0
O475 O 0.45074 0.90926 0.46743 0.0
O476 O 0.31275 0.74529 0.43466 0.0
O477 O 0.3357 0.755 0.38525 0.0
O478 O 0.40498 0.89258 0.51471 0.0
O479 O 0.37745 0.84209 0.53004 0.0
Co480 Co 0.10307 0.18529 1.00362 0.0
Co481 Co 0.14417 0.21442 0.93662 0.0
Co482 Co 0.15032 0.25356 1.00611 0.0
H483 H 0.12401 0.22357 0.99544 0.0
O484 O 0.11304 0.22782 0.97571 0.0
H485 H 0.17032 0.24713 0.94402 0.0
O486 O 0.18109 0.24442 0.96419 0.0
Co487 Co 0.19325 0.28439 0.93131 0.0
O488 O 0.20036 0.25493 0.88437 0.0
O489 O 0.17644 0.20184 0.89745 0.0
O490 O 0.20723 0.31347 0.97786 0.0
O491 O 0.18523 0.28605 1.02717 0.0
O492 O 0.05824 0.15885 1.02015 0.0
O493 O 0.05449 0.20082 0.98379 0.0
O494 O 0.14552 0.30323 0.91364 0.0
O495 O 0.11796 0.25087 0.90676 0.0
C496 C 0.1058 0.23136 0.06757 0.0
C497 C 0.10056 0.14983 0.93386 0.0
C498 C 0.24599 0.31241 0.90136 0.0
C499 C 0.17651 0.17894 0.02813 0.0
C500 C 0.19458 0.22189 0.877 0.0
C501 C 0.20375 0.31048 1.01224 0.0
C502 C 0.03781 0.17753 1.00114 0.0
C503 C 0.11928 0.28466 0.90225 0.0
O504 O 0.1049 0.19975 0.0551 0.0
O505 O 0.11828 0.25798 0.04968 0.0
O506 O 0.10969 0.17845 0.91767 0.0
O507 O 0.10438 0.14581 0.96741 0.0
O508 O 0.24248 0.30935 0.93464 0.0
O509 O 0.2192 0.30033 0.88523 0.0
O510 O 0.15013 0.16254 1.01458 0.0
O511 O 0.17752 0.21305 0.0301 0.0
Co512 Co 0.55147 0.95214 0.68539 0.0
Co513 Co 0.61845 0.91099 0.71449 0.0
Co514 Co 0.549 0.90484 0.75364 0.0
H515 H 0.55964 0.93117 0.72365 0.0
O516 O 0.57938 0.94213 0.72792 0.0
H517 H 0.61107 0.88481 0.74718 0.0
O518 O 0.5909 0.87406 0.74446 0.0
Co519 Co 0.62381 0.86186 0.78443 0.0
O520 O 0.67069 0.85473 0.75487 0.0
O521 O 0.65758 0.87872 0.70182 0.0
O522 O 0.57729 0.84797 0.81356 0.0
O523 O 0.52796 0.86993 0.78612 0.0
O524 O 0.53524 0.99682 0.65855 0.0
O525 O 0.57104 1.00082 0.70099 0.0
O526 O 0.64144 0.9096 0.80331 0.0
O527 O 0.64834 0.93714 0.75095 0.0
C528 C 0.48753 0.94938 0.7315 0.0
C529 C 0.62128 0.95471 0.64998 0.0
C530 C 0.6539 0.80926 0.81262 0.0
C531 C 0.52682 0.87873 0.67904 0.0
C532 C 0.67804 0.86056 0.72183 0.0
C533 C 0.5429 0.85146 0.81058 0.0
C534 C 0.55397 1.01736 0.6774 0.0
C535 C 0.65284 0.93582 0.78474 0.0
O536 O 0.50001 0.95039 0.69991 0.0
O537 O 0.50541 0.93685 0.75811 0.0
O538 O 0.63743 0.94548 0.67859 0.0
O539 O 0.58771 0.951 0.64592 0.0
O540 O 0.62061 0.81359 0.8113 0.0
O541 O 0.66999 0.83515 0.7987 0.0
O542 O 0.54033 0.90511 0.66263 0.0
O543 O 0.52496 0.87768 0.71315 0.0
Co544 Co 1.00351 0.10293 0.18523 0.0
Co545 Co 0.93647 0.14391 0.21443 0.0
Co546 Co 1.00602 0.15039 0.25338 0.0
H547 H 0.99538 0.12396 0.22347 0.0
O548 O 0.97569 0.11294 0.22782 0.0
H549 H 0.94388 0.17022 0.24702 0.0
O550 O 0.96401 0.18102 0.24421 0.0
Co551 Co 0.9312 0.19326 0.28423 0.0
O552 O 0.88424 0.20028 0.25477 0.0
O553 O 0.89716 0.17598 0.20183 0.0
O554 O 0.97773 0.20703 0.31345 0.0
O555 O 1.02704 0.18542 0.28574 0.0
O556 O 1.01985 0.05828 0.1584 0.0
O557 O 0.98424 0.05418 0.20097 0.0
O558 O 0.91367 0.14559 0.30331 0.0
O559 O 0.90681 0.1178 0.25106 0.0
C560 C 0.06757 0.10602 0.23122 0.0
C561 C 0.93354 0.09994 0.1501 0.0
C562 C 0.90124 0.24608 0.31212 0.0
C563 C 0.02784 0.17642 0.17868 0.0
C564 C 0.87674 0.19419 0.22181 0.0
C565 C 1.01211 0.20368 0.31035 0.0
C566 C 1.00128 0.03768 0.17733 0.0
C567 C 0.90234 0.11925 0.28485 0.0
O568 O 0.05502 0.10491 0.19964 0.0
O569 O 0.0497 0.11851 0.25783 0.0
O570 O 0.91747 0.10924 0.17872 0.0
O571 O 0.96708 0.10373 0.14591 0.0
O572 O 0.93451 0.24254 0.30913 0.0
O573 O 0.88511 0.21928 0.30005 0.0
O574 O 1.01431 0.14998 0.16237 0.0
O575 O 0.02987 0.17752 0.21278 0.0
Co576 Co 0.05113 0.60302 0.36976 0.0
Co577 Co 0.11828 0.6439 0.34071 0.0
Co578 Co 0.04885 0.65029 0.30153 0.0
H579 H 0.0594 0.62394 0.3315 0.0
O580 O 0.07909 0.6129 0.32726 0.0
H581 H 0.11101 0.6701 0.30799 0.0
O582 O 0.09087 0.68092 0.31071 0.0
Co583 Co 0.12379 0.69304 0.27074 0.0
O584 O 0.17066 0.70008 0.30033 0.0
O585 O 0.15757 0.67603 0.35336 0.0
O586 O 0.07729 0.707 0.24154 0.0
O587 O 0.02792 0.68526 0.26905 0.0
O588 O 0.03472 0.55818 0.39624 0.0
O589 O 0.07096 0.55447 0.35417 0.0
O590 O 0.14147 0.64528 0.25195 0.0
O591 O 0.14811 0.61762 0.30429 0.0
C592 C 0.98721 0.60595 0.32365 0.0
C593 C 0.12075 0.60044 0.40537 0.0
C594 C 0.15385 0.74573 0.24269 0.0
C595 C 1.02675 0.67649 0.37614 0.0
C596 C 0.17804 0.69418 0.33335 0.0
C597 C 0.0429 0.70363 0.24455 0.0
C598 C 0.0537 0.53777 0.37751 0.0
C599 C 0.15274 0.61899 0.27052 0.0
O600 O 0.99967 0.60495 0.35526 0.0
O601 O 1.00515 0.61841 0.29705 0.0
O602 O 0.13703 0.60935 0.37673 0.0
O603 O 0.08723 0.60454 0.40934 0.0
O604 O 0.12055 0.7418 0.24481 0.0
O605 O 0.16995 0.7194 0.25573 0.0
O606 O 0.04011 0.65004 0.39256 0.0
O607 O 1.02493 0.67756 0.34203 0.0
Co608 Co 0.50371 0.45208 0.86982 0.0
Co609 Co 0.43666 0.41102 0.84066 0.0
Co610 Co 0.50608 0.40481 0.80149 0.0
H611 H 0.4955 0.43114 0.83153 0.0
O612 O 0.47578 0.44212 0.82726 0.0
H613 H 0.44402 0.38481 0.80798 0.0
O614 O 0.46418 0.37405 0.81072 0.0
Co615 Co 0.4313 0.36186 0.77073 0.0
O616 O 0.3844 0.35477 0.80026 0.0
O617 O 0.39747 0.3788 0.8533 0.0
O618 O 0.47779 0.34789 0.74157 0.0
O619 O 0.5271 0.36989 0.76901 0.0
O620 O 0.51973 0.49629 0.89755 0.0
O621 O 0.48518 0.50116 0.85418 0.0
O622 O 0.41395 0.40966 0.7518 0.0
O623 O 0.40683 0.43716 0.80415 0.0
C624 C 0.5676 0.44927 0.82355 0.0
C625 C 0.43379 0.45488 0.9051 0.0
C626 C 0.40113 0.30931 0.74253 0.0
C627 C 0.5281 0.37858 0.87605 0.0
C628 C 0.37702 0.36063 0.83328 0.0
C629 C 0.51217 0.3514 0.74456 0.0
C630 C 0.50178 0.51726 0.87842 0.0
C631 C 0.40249 0.43588 0.77034 0.0
O632 O 0.55515 0.45029 0.85516 0.0
O633 O 0.54967 0.43679 0.79696 0.0
O634 O 0.41766 0.44556 0.87651 0.0
O635 O 0.46735 0.4512 0.90921 0.0
O636 O 0.43443 0.31353 0.74397 0.0
O637 O 0.38508 0.33528 0.75633 0.0
O638 O 0.51447 0.4049 0.89246 0.0
O639 O 0.53016 0.37766 0.84195 0.0
Co640 Co 0.68532 0.55094 0.95193 0.0
Co641 Co 0.71428 0.61816 0.91118 0.0
Co642 Co 0.75357 0.54879 0.90465 0.0
H643 H 0.72359 0.55925 0.93104 0.0
O644 O 0.72782 0.57893 0.9421 0.0
H645 H 0.74695 0.61095 0.88489 0.0
O646 O 0.74422 0.59081 0.87407 0.0
Co647 Co 0.78413 0.62375 0.86184 0.0
O648 O 0.75454 0.67063 0.85499 0.0
O649 O 0.70158 0.65752 0.87919 0.0
O650 O 0.81347 0.57736 0.84788 0.0
O651 O 0.78604 0.52795 0.86963 0.0
O652 O 0.658 0.53508 0.99644 0.0
O653 O 0.7009 0.57028 1.00072 0.0
O654 O 0.80302 0.64135 0.90958 0.0
O655 O 0.75076 0.64794 0.93742 0.0
C656 C 0.7317 0.48715 0.94907 0.0
C657 C 0.64959 0.62041 0.9545 0.0
C658 C 0.812 0.65378 0.80903 0.0
C659 C 0.679 0.52664 0.87845 0.0
C660 C 0.72157 0.67806 0.86107 0.0
C661 C 0.81052 0.54296 0.85126 0.0
C662 C 0.67694 0.55358 1.01711 0.0
C663 C 0.78454 0.65257 0.93594 0.0
O664 O 0.70007 0.49954 0.95018 0.0
O665 O 0.75822 0.50511 0.9365 0.0
O666 O 0.67827 0.63678 0.94584 0.0
O667 O 0.64568 0.58693 0.95005 0.0
O668 O 0.79975 0.66988 0.83575 0.0
O669 O 0.80918 0.62049 0.81265 0.0
O670 O 0.66259 0.54005 0.90487 0.0
O671 O 0.71311 0.52475 0.87743 0.0
Co672 Co 0.1853 1.00371 0.10301 0.0
Co673 Co 0.21433 0.93665 0.14405 0.0
Co674 Co 0.25349 1.00611 0.15036 0.0
H675 H 0.22353 0.9955 0.124 0.0
O676 O 0.22779 0.97579 0.11301 0.0
H677 H 0.24701 0.94398 0.17027 0.0
O678 O 0.24429 0.96414 0.18105 0.0
Co679 Co 0.28424 0.93123 0.19323 0.0
O680 O 0.25475 0.88428 0.2002 0.0
O681 O 0.2017 0.89739 0.1762 0.0
O682 O 0.31341 0.97775 0.2072 0.0
O683 O 0.28595 1.0271 0.18534 0.0
O684 O 0.1592 1.02008 0.05794 0.0
O685 O 0.20094 0.98341 0.05467 0.0
O686 O 0.30314 0.91376 0.14545 0.0
O687 O 0.2508 0.90684 0.11784 0.0
C688 C 0.23137 0.06767 0.10588 0.0
C689 C 0.14976 0.93401 0.10043 0.0
C690 C 0.31215 0.90121 0.24601 0.0
C691 C 0.17886 0.02837 0.17639 0.0
C692 C 0.22173 0.87688 0.1943 0.0
C693 C 0.31042 1.01214 0.20377 0.0
C694 C 0.17785 1.00079 0.03775 0.0
C695 C 0.2846 0.90239 0.11918 0.0
O696 O 0.19977 0.05519 0.10482 0.0
O697 O 0.25796 0.04977 0.11842 0.0
O698 O 0.17838 0.91779 0.10949 0.0
O699 O 0.14575 0.96756 0.10437 0.0
O700 O 0.29987 0.8851 0.2193 0.0
O701 O 0.30935 0.93449 0.24241 0.0
O702 O 0.16245 1.01502 0.14992 0.0
O703 O 0.21298 0.03007 0.17755 0.0
Co704 Co 0.36975 0.05124 0.60302 0.0
Co705 Co 0.34065 0.11835 0.64385 0.0
Co706 Co 0.30154 0.04889 0.65034 0.0
H707 H 0.33149 0.05945 0.62395 0.0
O708 O 0.3272 0.07912 0.6129 0.0
H709 H 0.30801 0.11106 0.67013 0.0
O710 O 0.31077 0.09092 0.68094 0.0
Co711 Co 0.27082 0.12381 0.69317 0.0
O712 O 0.30034 0.17074 0.70008 0.0
O713 O 0.3533 0.1577 0.67588 0.0
O714 O 0.24163 0.0773 0.70714 0.0
O715 O 0.26913 0.02795 0.68536 0.0
O716 O 0.3966 0.0351 0.55832 0.0
O717 O 0.35413 0.07084 0.55436 0.0
O718 O 0.25189 0.14159 0.6455 0.0
O719 O 0.30413 0.14808 0.61762 0.0
C720 C 0.32359 0.98732 0.6059 0.0
C721 C 0.40525 0.12089 0.60035 0.0
C722 C 0.24294 0.1538 0.74599 0.0
C723 C 0.37619 1.02688 0.67648 0.0
C724 C 0.33331 0.17819 0.69402 0.0
C725 C 0.24464 0.04291 0.70375 0.0
C726 C 0.37776 0.05385 0.5378 0.0
C727 C 0.27037 0.15279 0.61913 0.0
O728 O 0.35519 0.99978 0.60486 0.0
O729 O 0.29701 1.00521 0.61845 0.0
O730 O 0.37657 0.13713 0.60921 0.0
O731 O 0.40928 0.08739 0.60455 0.0
O732 O 0.25506 0.16992 0.71922 0.0
O733 O 0.24587 0.12052 0.74242 0.0
O734 O 0.39257 0.04032 0.65005 0.0
O735 O 0.34208 1.02497 0.67755 0.0
Co736 Co 0.86972 0.50366 0.45205 0.0
Co737 Co 0.84061 0.43668 0.41089 0.0
Co738 Co 0.80147 0.50614 0.40475 0.0
H739 H 0.83145 0.49549 0.43108 0.0
O740 O 0.82719 0.47575 0.44203 0.0
H741 H 0.80792 0.44408 0.38472 0.0
O742 O 0.81065 0.46425 0.37397 0.0
Co743 Co 0.77067 0.43138 0.36176 0.0
O744 O 0.80013 0.38445 0.35464 0.0
O745 O 0.85321 0.39752 0.3786 0.0
O746 O 0.74157 0.4779 0.34778 0.0
O747 O 0.769 0.5272 0.36983 0.0
O748 O 0.89609 0.5202 0.49692 0.0
O749 O 0.85424 0.48368 0.50058 0.0
O750 O 0.75178 0.41384 0.4095 0.0
O751 O 0.80414 0.40681 0.43703 0.0
C752 C 0.82364 0.56761 0.44927 0.0
C753 C 0.90516 0.43388 0.45461 0.0
C754 C 0.74264 0.40148 0.30899 0.0
C755 C 0.87607 0.52819 0.37861 0.0
C756 C 0.83316 0.37708 0.36044 0.0
C757 C 0.74457 0.51228 0.35129 0.0
C758 C 0.87747 0.50108 0.5173 0.0
C759 C 0.77033 0.4024 0.43572 0.0
O760 O 0.85524 0.55514 0.45025 0.0
O761 O 0.79702 0.54972 0.43677 0.0
O762 O 0.87656 0.4177 0.44539 0.0
O763 O 0.9092 0.46744 0.45086 0.0
O764 O 0.75485 0.38532 0.33569 0.0
O765 O 0.74557 0.43475 0.31259 0.0
O766 O 0.89247 0.51466 0.405 0.0
O767 O 0.84197 0.53014 0.37759 0.0
C768 C 0.08721 0.48068 0.36896 0.0
C769 C 0.06033 0.50019 0.38656 0.0
H770 H 0.12077 0.43413 0.37012 0.0
C771 C 0.04316 0.48525 0.41625 0.0
H772 H 0.10087 0.49174 0.34598 0.0
C773 C 0.05482 0.45286 0.43012 0.0
C774 C 0.08342 0.43462 0.41421 0.0
H775 H 1.02224 0.49961 0.43015 0.0
H776 H 0.0426 0.44292 0.45437 0.0
C777 C 0.09857 0.44781 0.38264 0.0
C778 C 0.45818 0.60792 0.88302 0.0
C779 C 0.47169 0.62011 0.91574 0.0
H780 H 0.4573 0.56489 0.84523 0.0
C781 C 0.49898 0.60094 0.93284 0.0
H782 H 0.43704 0.62235 0.86952 0.0
C783 C 0.51088 0.56869 0.9189 0.0
C784 C 0.49524 0.55476 0.8879 0.0
H785 H 0.50998 0.61006 0.95799 0.0
H786 H 0.53069 0.55364 0.93368 0.0
C787 C 0.46976 0.57516 0.86925 0.0
C788 C 0.54386 0.06956 0.63815 0.0
C789 C 0.56063 0.0549 0.66821 0.0
H790 H 0.54368 0.11159 0.59973 0.0
C791 C 0.58719 0.07464 0.68606 0.0
H792 H 0.5232 0.05502 0.62402 0.0
C793 C 0.59865 0.10745 0.67231 0.0
C794 C 0.5839 0.12036 0.64042 0.0
H795 H 0.60054 0.0638 0.70934 0.0
H796 H 0.62062 0.12133 0.68507 0.0
C797 C 0.55561 0.10188 0.62422 0.0
C798 C 0.95671 0.94755 0.1723 0.0
C799 C 0.97135 0.93469 0.14034 0.0
H800 H 0.9549 0.99115 0.20938 0.0
C801 C 0.9996 0.9532 0.1241 0.0
H802 H 0.93478 0.93364 0.18509 0.0
C803 C 1.01138 0.98551 0.13804 0.0
C804 C 0.99469 1.00012 0.16816 0.0
H805 H 1.01146 0.94352 0.09956 0.0
H806 H 0.03198 1.00008 0.12388 0.0
C807 C 0.96819 0.98034 0.18606 0.0
C808 C 0.3691 0.08718 0.48059 0.0
C809 C 0.38698 0.06061 0.50029 0.0
H810 H 0.37004 0.12068 0.43395 0.0
C811 C 0.41708 0.04394 0.48562 0.0
H812 H 0.34579 0.10046 0.49144 0.0
C813 C 0.431 0.05577 0.45333 0.0
C814 C 0.41475 0.08405 0.43488 0.0
H815 H 0.43123 1.02328 0.50013 0.0
H816 H 0.45551 0.04389 0.4436 0.0
C817 C 0.38284 0.09872 0.4478 0.0
C818 C 0.18613 0.96661 0.98102 0.0
C819 C 0.16891 0.99399 1.00018 0.0
H820 H 0.1846 0.9326 0.93477 0.0
C821 C 0.13961 1.01154 0.98492 0.0
H822 H 0.2088 0.95264 0.99234 0.0
C823 C 0.12571 0.99983 0.95256 0.0
C824 C 0.1412 0.97079 0.93467 0.0
H825 H 0.12601 0.03284 0.999 0.0
H826 H 0.10174 1.0124 0.94236 0.0
C827 C 0.17242 0.95518 0.94818 0.0
C828 C 0.91604 0.51193 0.5699 0.0
C829 C 0.88655 0.49446 0.55487 0.0
H830 H 0.9541 0.51284 0.6123 0.0
C831 C 0.86925 0.46732 0.57429 0.0
H832 H 0.92971 0.53307 0.55562 0.0
C833 C 0.88303 0.45601 0.60713 0.0
C834 C 0.91441 0.47152 0.62041 0.0
H835 H 0.84644 0.45341 0.56316 0.0
H836 H 0.87076 0.4336 0.62074 0.0
C837 C 0.93001 0.50035 0.60228 0.0
C838 C 0.68586 0.58648 0.07456 0.0
C839 C 0.66752 0.56045 0.05455 0.0
H840 H 0.68536 0.6197 0.12142 0.0
C841 C 0.63686 0.54447 0.06884 0.0
H842 H 0.7096 0.59922 0.06401 0.0
C843 C 0.62294 0.55647 0.10106 0.0
C844 C 0.63973 0.58421 0.11986 0.0
H845 H 0.62233 0.52425 0.05409 0.0
H846 H 0.59806 0.54514 0.11048 0.0
C847 C 0.67212 0.59817 0.1073 0.0
C848 C 0.45342 0.43112 0.05519 0.0
C849 C 0.43503 0.41503 0.08359 0.0
H850 H 0.50021 0.43121 1.02268 0.0
C851 C 0.44804 0.38325 0.09849 0.0
H852 H 0.44361 0.45552 0.04314 0.0
C853 C 0.48084 0.36951 0.08705 0.0
C854 C 0.50049 0.38724 0.06035 0.0
H855 H 0.43423 0.37059 0.12055 0.0
H856 H 0.49175 0.34633 0.1005 0.0
C857 C 0.48575 0.41719 0.04346 0.0
C858 C 0.98069 0.18597 0.96765 0.0
C859 C 1.00021 0.16848 0.9946 0.0
H860 H 0.9341 0.18467 0.9341 0.0
C861 C 0.98525 0.1389 1.01194 0.0
H862 H 0.99176 0.20887 0.95386 0.0
C863 C 0.95283 0.125 1.00038 0.0
C864 C 0.93458 0.14078 0.9717 0.0
H865 H 0.99962 0.12509 0.03293 0.0
H866 H 0.94286 0.10083 1.01275 0.0
C867 C 0.9478 0.17226 0.95638 0.0
C868 C 0.60703 0.88283 0.45571 0.0
C869 C 0.6203 0.9143 0.47102 0.0
H870 H 0.56307 0.84619 0.45337 0.0
C871 C 0.60218 0.93006 0.49977 0.0
H872 H 0.62063 0.87043 0.43337 0.0
C873 C 0.56984 0.91614 0.51147 0.0
C874 C 0.55481 0.88655 0.4942 0.0
H875 H 0.6122 0.95422 0.51213 0.0
H876 H 0.55557 0.92993 0.53254 0.0
C877 C 0.5742 0.86909 0.46713 0.0
C878 C 0.06925 0.63772 0.54406 0.0
C879 C 0.0547 0.66793 0.56065 0.0
H880 H 0.11115 0.59917 0.54409 0.0
C881 C 0.0745 0.68586 0.58712 0.0
H882 H 0.05467 0.62354 0.52348 0.0
C883 C 0.10727 0.67207 0.59865 0.0
C884 C 0.12007 0.64006 0.58408 0.0
H885 H 0.06374 0.70925 0.60034 0.0
H886 H 0.12121 0.68492 0.62054 0.0
C887 C 0.10152 0.62375 0.5559 0.0
C888 C 1.01156 0.5699 0.63878 0.0
C889 C 0.99457 0.55505 0.66861 0.0
H890 H 1.01187 0.61204 0.60048 0.0
C891 C 0.96771 0.57458 0.68624 0.0
H892 H 0.03245 0.55554 0.62484 0.0
C893 C 0.9562 0.60736 0.67246 0.0
C894 C 0.9712 0.62044 0.64076 0.0
H895 H 0.95417 0.56359 0.70933 0.0
H896 H 0.93402 0.62107 0.68502 0.0
C897 C 0.99976 0.60219 0.62482 0.0
C898 C 0.54411 0.48609 0.13751 0.0
C899 C 0.5607 0.50072 0.16769 0.0
H900 H 0.5441 0.44407 0.09907 0.0
C901 C 0.5872 0.48098 0.18564 0.0
H902 H 0.52351 0.50063 0.1233 0.0
C903 C 0.59871 0.44817 0.17193 0.0
C904 C 0.5841 0.43526 0.13997 0.0
H905 H 0.60042 0.4918 0.209 0.0
H906 H 0.6206 0.43427 0.18479 0.0
C907 C 0.55592 0.45377 0.12362 0.0
C908 C 0.46674 0.98099 0.36921 0.0
C909 C 0.49402 1.00027 0.38648 0.0
H910 H 0.43287 0.93464 0.37071 0.0
C911 C 0.51151 0.98513 0.41589 0.0
H912 H 0.45281 0.99221 0.34646 0.0
C913 C 0.49985 0.95277 0.42981 0.0
C914 C 0.47092 0.93474 0.41424 0.0
H915 H 0.53273 0.99931 0.42953 0.0
H916 H 0.51238 0.94266 0.45384 0.0
C917 C 0.45536 0.94815 0.38295 0.0
C918 C 0.09952 0.10696 0.88286 0.0
C919 C 0.08413 0.12027 0.91427 0.0
H920 H 0.10199 0.06295 0.84631 0.0
C921 C 0.05535 0.10214 0.92998 0.0
H922 H 0.12188 0.12057 0.87051 0.0
C923 C 0.04373 0.06974 0.91609 0.0
C924 C 0.06109 0.0547 0.88657 0.0
H925 H 0.04294 0.11218 0.9541 0.0
H926 H 1.02265 0.05547 0.92986 0.0
C927 C 0.08817 0.0741 0.86915 0.0
C928 C 0.68592 0.96667 0.57415 0.0
C929 C 0.66877 0.99405 0.55492 0.0
H930 H 0.68428 0.93276 0.62046 0.0
C931 C 0.6395 1.01169 0.57012 0.0
H932 H 0.70856 0.95262 0.56289 0.0
C933 C 0.62555 1.00008 0.60249 0.0
C934 C 0.64097 0.97105 0.62045 0.0
H935 H 0.62596 0.03301 0.55598 0.0
H936 H 0.60161 1.01273 0.61264 0.0
C937 C 0.67216 0.95533 0.60699 0.0
C938 C 0.92917 0.05444 0.10273 0.0
C939 C 0.91377 0.0835 0.12066 0.0
H940 H 0.92876 1.02151 0.05622 0.0
C941 C 0.88258 0.09921 0.10721 0.0
H942 H 0.95311 0.0418 0.1129 0.0
C943 C 0.86883 0.08788 0.07436 0.0
C944 C 0.88598 0.06051 0.05513 0.0
H945 H 0.87048 0.1218 0.12066 0.0
H946 H 0.8462 0.10195 0.06307 0.0
C947 C 0.91522 0.04282 0.07036 0.0
C948 C 0.1858 0.58711 0.48074 0.0
C949 C 0.16792 0.56055 0.50046 0.0
H950 H 0.18485 0.62054 0.43405 0.0
C951 C 0.13783 0.54384 0.48579 0.0
H952 H 0.20909 0.60042 0.49158 0.0
C953 C 0.12391 0.5556 0.45347 0.0
C954 C 0.14016 0.58387 0.43499 0.0
H955 H 0.12369 0.52318 0.50031 0.0
H956 H 0.09942 0.54369 0.44373 0.0
C957 C 0.17206 0.59859 0.44793 0.0
C958 C 0.41536 0.51202 0.98483 0.0
C959 C 0.38615 0.49431 1.00007 0.0
H960 H 0.45326 0.51306 0.94231 0.0
C961 C 0.36911 0.4668 0.98091 0.0
H962 H 0.42882 0.53343 0.9989 0.0
C963 C 0.38291 0.45542 0.9481 0.0
C964 C 0.41404 0.47122 0.9346 0.0
H965 H 0.34652 0.45268 0.99222 0.0
H966 H 0.37088 0.43276 0.9347 0.0
C967 C 0.42936 0.50036 0.95249 0.0
C968 C 0.60101 0.62271 0.99889 0.0
C969 C 0.61991 0.63959 0.97128 0.0
H970 H 0.55396 0.62203 0.03098 0.0
C971 C 0.60745 0.67208 0.95747 0.0
H972 H 0.61034 0.59775 1.01011 0.0
C973 C 0.5747 0.68583 0.96914 0.0
C974 C 0.55459 0.6674 0.99502 0.0
H975 H 0.62165 0.6854 0.93605 0.0
H976 H 0.56422 0.70966 0.95649 0.0
C977 C 0.56879 0.63664 1.01087 0.0
C978 C 0.07429 0.86906 0.08747 0.0
C979 C 0.05476 0.88666 0.06059 0.0
H980 H 0.1208 0.87029 0.12114 0.0
C981 C 0.06963 0.91647 0.04355 0.0
H982 H 0.06328 0.84599 0.10104 0.0
C983 C 0.10194 0.93042 0.05531 0.0
C984 C 0.1202 0.91449 0.08389 0.0
H985 H 0.05526 0.93038 1.02264 0.0
H986 H 0.11184 0.95472 0.04314 0.0
C987 C 0.10709 0.88283 0.09895 0.0
C988 C 0.44768 0.1723 0.59832 0.0
C989 C 0.43484 0.1403 0.58373 0.0
H990 H 0.49127 0.20942 0.60009 0.0
C991 C 0.4534 0.12398 0.55557 0.0
H992 H 0.43374 0.18516 0.62018 0.0
C993 C 0.48571 0.13791 0.5438 0.0
C994 C 0.5003 0.16809 0.56042 0.0
H995 H 0.44375 0.09941 0.54376 0.0
H996 H 0.5003 0.1237 0.52324 0.0
C997 C 0.48049 0.18605 0.58685 0.0
C998 C 0.94806 0.3829 0.45559 0.0
C999 C 0.93469 0.41425 0.47106 0.0
H1000 H 0.99209 0.34638 0.45311 0.0
C1001 C 0.95274 0.42987 0.49995 0.0
H1002 H 0.93452 0.37061 0.43313 0.0
C1003 C 0.9851 0.41595 0.51163 0.0
C1004 C 1.00021 0.38649 0.49421 0.0
H1005 H 0.94265 0.45393 0.51242 0.0
H1006 H 0.9993 0.42964 0.53281 0.0
C1007 C 0.98089 0.36916 0.467 0.0
C1008 C 0.20603 0.40017 0.30117 0.0
C1009 C 0.22944 0.38236 0.2781 0.0
H1010 H 0.17635 0.39868 0.34965 0.0
C1011 C 0.24089 0.34765 0.28718 0.0
H1012 H 0.19666 0.42683 0.29492 0.0
C1013 C 0.22943 0.33129 0.31896 0.0
C1014 C 0.20621 0.34931 0.34228 0.0
H1015 H 0.25917 0.3333 0.27 0.0
H1016 H 0.23903 0.30481 0.32539 0.0
C1017 C 0.19451 0.38389 0.3327 0.0
C1018 C 0.35586 0.66877 0.83601 0.0
C1019 C 0.34854 0.70513 0.84299 0.0
H1020 H 0.35053 0.62447 0.80019 0.0
C1021 C 0.3298 0.72478 0.81704 0.0
H1022 H 0.37037 0.65257 0.85508 0.0
C1023 C 0.31863 0.70838 0.78514 0.0
C1024 C 0.32581 0.67199 0.7786 0.0
H1025 H 0.32381 0.75273 0.82132 0.0
H1026 H 0.30403 0.72413 0.76577 0.0
C1027 C 0.34458 0.65248 0.80439 0.0
C1028 C 0.70543 0.16806 0.7162 0.0
C1029 C 0.70797 0.20542 0.7117 0.0
H1030 H 0.71415 0.12283 0.75008 0.0
C1031 C 0.72188 0.22586 0.73999 0.0
H1032 H 0.69487 0.15122 0.69517 0.0
C1033 C 0.73268 0.20926 0.77194 0.0
C1034 C 0.73009 0.1719 0.7761 0.0
H1035 H 0.72401 0.2546 0.73764 0.0
H1036 H 0.74321 0.22566 0.7933 0.0
C1037 C 0.7164 0.1516 0.74782 0.0
C1038 C 0.83254 0.82952 0.23963 0.0
C1039 C 0.84735 0.84986 0.21174 0.0
H1040 H 0.81029 0.82977 0.29256 0.0
C1041 C 0.85078 0.8871 0.21665 0.0
H1042 H 0.82972 0.80086 0.23698 0.0
C1043 C 0.83977 0.90354 0.24828 0.0
C1044 C 0.82515 0.88331 0.27613 0.0
H1045 H 0.86205 0.90387 0.19595 0.0
H1046 H 0.84272 0.93221 0.25087 0.0
C1047 C 0.82165 0.84608 0.27155 0.0
C1048 C 0.3151 0.22187 0.32921 0.0
C1049 C 0.34332 0.20782 0.34965 0.0
H1050 H 0.2618 0.2432 0.32938 0.0
C1051 C 0.33869 0.20503 0.38697 0.0
H1052 H 0.31753 0.22418 0.30049 0.0
C1053 C 0.30704 0.21596 0.40341 0.0
C1054 C 0.27886 0.22983 0.38311 0.0
H1055 H 0.35964 0.19433 0.40382 0.0
H1056 H 0.3047 0.21354 0.43216 0.0
C1057 C 0.28312 0.23259 0.34578 0.0
C1058 C 0.24018 0.83296 0.82914 0.0
C1059 C 0.21186 0.84682 0.84956 0.0
H1060 H 0.29351 0.81168 0.8294 0.0
C1061 C 0.21633 0.84931 0.88693 0.0
H1062 H 0.23787 0.83087 0.80039 0.0
C1063 C 0.24794 0.83837 0.90342 0.0
C1064 C 0.27625 0.82475 0.88314 0.0
H1065 H 0.19527 0.85981 0.90376 0.0
H1066 H 0.25017 0.8406 0.93219 0.0
C1067 C 0.27212 0.82218 0.84578 0.0
C1068 C 0.80725 0.33887 0.65114 0.0
C1069 C 0.77892 0.32537 0.6715 0.0
H1070 H 0.86 0.36018 0.65073 0.0
C1071 C 0.78302 0.32296 0.70886 0.0
H1072 H 0.80502 0.34095 0.62236 0.0
C1073 C 0.81494 0.33385 0.72543 0.0
C1074 C 0.84332 0.34749 0.70496 0.0
H1075 H 0.76163 0.31248 0.72527 0.0
H1076 H 0.81718 0.33204 0.75419 0.0
C1077 C 0.83889 0.34982 0.66758 0.0
C1078 C 0.73956 0.72271 0.22553 0.0
C1079 C 0.71178 0.70765 0.2052 0.0
H1080 H 0.79241 0.74516 0.22529 0.0
C1081 C 0.71684 0.70394 0.16801 0.0
H1082 H 0.73679 0.72577 0.25415 0.0
C1083 C 0.74848 0.71493 0.1516 0.0
C1084 C 0.77621 0.72983 0.17181 0.0
H1085 H 0.69624 0.69246 0.15124 0.0
H1086 H 0.75118 0.71176 0.12296 0.0
C1087 C 0.7715 0.73359 0.209 0.0
C1088 C 0.34647 0.28295 0.23173 0.0
C1089 C 0.38382 0.27882 0.22942 0.0
H1090 H 0.3012 0.31709 0.22247 0.0
C1091 C 0.40424 0.3071 0.21589 0.0
H1092 H 0.33 0.26159 0.2422 0.0
C1093 C 0.38787 0.33876 0.2049 0.0
C1094 C 0.3505 0.34324 0.20722 0.0
H1095 H 0.43302 0.30483 0.21384 0.0
H1096 H 0.40476 0.35985 0.19455 0.0
C1097 C 0.32996 0.31487 0.22077 0.0
C1098 C 0.83026 0.238 0.82901 0.0
C1099 C 0.84971 0.21242 0.84842 0.0
H1100 H 0.83108 0.28898 0.8027 0.0
C1101 C 0.88585 0.21977 0.85647 0.0
H1102 H 0.8025 0.23342 0.82243 0.0
C1103 C 0.90213 0.2514 0.84523 0.0
C1104 C 0.88283 0.27681 0.82575 0.0
H1105 H 0.90189 0.20101 0.87153 0.0
H1106 H 0.92997 0.25589 0.85176 0.0
C1107 C 0.84665 0.26991 0.81786 0.0
C1108 C 0.70908 0.78339 0.32172 0.0
C1109 C 0.67182 0.77893 0.325 0.0
H1110 H 0.75432 0.81791 0.32994 0.0
C1111 C 0.65156 0.8069 0.33934 0.0
H1112 H 0.72541 0.76229 0.31058 0.0
C1113 C 0.668 0.83854 0.35029 0.0
C1114 C 0.70527 0.84334 0.34711 0.0
H1115 H 0.62286 0.80439 0.3421 0.0
H1116 H 0.6512 0.85933 0.36135 0.0
C1117 C 0.72565 0.81534 0.33257 0.0
C1118 C 0.15126 0.74773 0.71621 0.0
C1119 C 0.1716 0.77605 0.72976 0.0
H1120 H 0.15084 0.69498 0.6949 0.0
C1121 C 0.20895 0.77191 0.73231 0.0
H1122 H 0.12249 0.74998 0.71402 0.0
C1123 C 0.22553 0.73998 0.7215 0.0
C1124 C 0.20506 0.71161 0.70778 0.0
H1125 H 0.22536 0.79329 0.74284 0.0
H1126 H 0.25428 0.73771 0.72344 0.0
C1127 C 0.1677 0.71607 0.70532 0.0
C1128 C 0.83892 0.65155 0.74804 0.0
C1129 C 0.8248 0.67182 0.77611 0.0
H1130 H 0.86082 0.65118 0.69555 0.0
C1131 C 0.82179 0.70912 0.77175 0.0
H1132 H 0.84149 0.62282 0.75045 0.0
C1133 C 0.83266 0.7257 0.73982 0.0
C1134 C 0.847 0.7053 0.71174 0.0
H1135 H 0.81086 0.72548 0.79294 0.0
H1136 H 0.83022 0.75441 0.73734 0.0
C1137 C 0.84993 0.66799 0.71642 0.0
C1138 C 0.72199 0.32964 0.23974 0.0
C1139 C 0.70773 0.35006 0.21163 0.0
H1140 H 0.7438 0.32982 0.29287 0.0
C1141 C 0.70481 0.38737 0.21632 0.0
H1142 H 0.72437 0.30093 0.23726 0.0
C1143 C 0.71577 0.40379 0.24797 0.0
C1144 C 0.72985 0.38348 0.27605 0.0
H1145 H 0.69398 0.4042 0.19543 0.0
H1146 H 0.71322 0.43251 0.2504 0.0
C1147 C 0.73286 0.34619 0.27168 0.0
C1148 C 0.32177 0.84588 0.28334 0.0
C1149 C 0.32491 0.88316 0.27894 0.0
H1150 H 0.33009 0.8006 0.31779 0.0
C1151 C 0.3391 0.90343 0.307 0.0
H1152 H 0.31075 0.82953 0.26217 0.0
C1153 C 0.35006 0.88698 0.33863 0.0
C1154 C 0.34703 0.84968 0.34334 0.0
H1155 H 0.34175 0.93214 0.30456 0.0
H1156 H 0.361 0.90379 0.35948 0.0
C1157 C 0.33261 0.8293 0.31527 0.0
C1158 C 0.22226 0.22575 0.81516 0.0
C1159 C 0.20807 0.20534 0.84332 0.0
H1160 H 0.2439 0.22553 0.76198 0.0
C1161 C 0.20527 0.16801 0.83869 0.0
H1162 H 0.2246 0.25447 0.81761 0.0
C1163 C 0.21623 0.15156 0.80707 0.0
C1164 C 0.23019 0.17185 0.77892 0.0
H1165 H 0.19451 0.15118 0.85962 0.0
H1166 H 0.21377 0.12282 0.8047 0.0
C1167 C 0.23309 0.20916 0.78322 0.0
C1168 C 0.77187 0.82225 0.70906 0.0
C1169 C 0.77607 0.82505 0.67173 0.0
H1170 H 0.7376 0.83089 0.7544 0.0
C1171 C 0.74785 0.83886 0.65145 0.0
H1172 H 0.79317 0.81151 0.72542 0.0
C1173 C 0.71623 0.84978 0.66792 0.0
C1174 C 0.7117 0.84709 0.70526 0.0
H1175 H 0.75015 0.84124 0.62269 0.0
H1176 H 0.69522 0.86041 0.65109 0.0
C1177 C 0.73995 0.83308 0.72567 0.0
C1178 C 0.78378 0.23462 0.20893 0.0
C1179 C 0.77853 0.22977 0.17194 0.0
H1180 H 0.81892 0.22762 0.25389 0.0
C1181 C 0.80567 0.21364 0.15191 0.0
H1182 H 0.76333 0.24714 0.22508 0.0
C1183 C 0.83729 0.20257 0.1683 0.0
C1184 C 0.84292 0.20742 0.20529 0.0
H1185 H 0.80253 0.20959 0.12343 0.0
H1186 H 0.85743 0.19013 0.15166 0.0
C1187 C 0.8157 0.22365 0.22544 0.0
C1188 C 0.23974 0.72217 0.32953 0.0
C1189 C 0.21176 0.70758 0.34991 0.0
H1190 H 0.29275 0.74425 0.32977 0.0
C1191 C 0.21658 0.70436 0.38717 0.0
H1192 H 0.23715 0.72483 0.30086 0.0
C1193 C 0.24822 0.71534 0.40361 0.0
C1194 C 0.27617 0.72974 0.38335 0.0
H1195 H 0.19581 0.69326 0.40397 0.0
H1196 H 0.25075 0.71255 0.4323 0.0
C1197 C 0.27167 0.73305 0.3461 0.0
C1198 C 0.30712 0.33902 0.90362 0.0
C1199 C 0.27892 0.32515 0.88333 0.0
H1200 H 0.35974 0.36061 0.904 0.0
C1201 C 0.28317 0.3223 0.84601 0.0
H1202 H 0.30479 0.34144 0.93237 0.0
C1203 C 0.3151 0.33312 0.82942 0.0
C1204 C 0.34333 0.34719 0.84984 0.0
H1205 H 0.26189 0.31152 0.82964 0.0
H1206 H 0.31749 0.33089 0.8007 0.0
C1207 C 0.33876 0.34994 0.88717 0.0
C1208 C 0.65187 0.74949 0.8422 0.0
C1209 C 0.67186 0.77639 0.82562 0.0
H1210 H 0.6516 0.69788 0.86608 0.0
C1211 C 0.70874 0.77088 0.82035 0.0
H1212 H 0.62346 0.75284 0.8466 0.0
C1213 C 0.72518 0.73893 0.83133 0.0
C1214 C 0.70507 0.71193 0.84797 0.0
H1215 H 0.72486 0.79114 0.80747 0.0
H1216 H 0.75355 0.73552 0.82698 0.0
C1217 C 0.66819 0.71783 0.85328 0.0
C1218 C 0.16806 0.83784 0.20354 0.0
C1219 C 0.2052 0.84309 0.20759 0.0
H1220 H 0.12308 0.80335 0.21114 0.0
C1221 C 0.2255 0.81549 0.22298 0.0
H1222 H 0.15132 0.8583 0.19179 0.0
C1223 C 0.20898 0.78354 0.23389 0.0
C1224 C 0.17185 0.77864 0.22981 0.0
H1225 H 0.25407 0.8184 0.22631 0.0
H1226 H 0.22525 0.76277 0.24574 0.0
C1227 C 0.15168 0.80619 0.21456 0.0
C1228 C 0.38676 0.21781 0.70206 0.0
C1229 C 0.34983 0.21204 0.70718 0.0
H1230 H 0.43156 0.25271 0.70889 0.0
C1231 C 0.32971 0.23914 0.72365 0.0
H1232 H 0.40336 0.19779 0.68941 0.0
C1233 C 0.34619 0.27107 0.73462 0.0
C1234 C 0.38312 0.27646 0.72953 0.0
H1235 H 0.3013 0.23581 0.72784 0.0
H1236 H 0.33007 0.29142 0.74736 0.0
C1237 C 0.40312 0.24945 0.71314 0.0
C1238 C 0.88704 0.33881 0.34974 0.0
C1239 C 0.84971 0.34341 0.34695 0.0
H1240 H 0.93223 0.30483 0.34125 0.0
C1241 C 0.8293 0.31523 0.3328 0.0
H1242 H 0.90387 0.35975 0.36047 0.0
C1243 C 0.84588 0.28329 0.32198 0.0
C1244 C 0.8832 0.27901 0.32487 0.0
H1245 H 0.80057 0.31765 0.33047 0.0
H1246 H 0.82951 0.26202 0.31119 0.0
C1247 C 0.90349 0.30718 0.33879 0.0
C1248 C 0.20917 0.39416 0.58334 0.0
C1249 C 0.20371 0.39827 0.54644 0.0
H1250 H 0.2243 0.4202 0.63218 0.0
C1251 C 0.21818 0.42824 0.52919 0.0
H1252 H 0.19765 0.37159 0.59732 0.0
C1253 C 0.23475 0.45529 0.54896 0.0
C1254 C 0.23608 0.45341 0.58643 0.0
H1255 H 0.21396 0.43218 0.50083 0.0
H1256 H 0.24197 0.47983 0.5354 0.0
C1257 C 0.22489 0.42178 0.60328 0.0
C1258 C 0.33077 0.63335 0.10423 0.0
C1259 C 0.31912 0.60196 0.08721 0.0
H1260 H 0.3583 0.68339 0.09843 0.0
C1261 C 0.31993 0.60044 0.04971 0.0
H1262 H 0.33176 0.63463 0.13313 0.0
C1263 C 0.33641 0.62758 0.03 0.0
C1264 C 0.35132 0.65727 0.04735 0.0
H1265 H 0.31235 0.57608 0.03601 0.0
H1266 H 0.34024 0.62388 1.00155 0.0
C1267 C 0.3464 0.66105 0.08437 0.0
C1268 C 0.70865 0.16091 0.4713 0.0
C1269 C 0.70356 0.15705 0.50829 0.0
H1270 H 0.72337 0.13457 0.42252 0.0
C1271 C 0.7182 0.12721 0.5256 0.0
H1272 H 0.69697 0.18337 0.45727 0.0
C1273 C 0.73459 0.10004 0.50587 0.0
C1274 C 0.73561 0.10168 0.46839 0.0
H1275 H 0.71423 0.12345 0.55402 0.0
H1276 H 0.74197 0.0756 0.51953 0.0
C1277 C 0.72422 0.13318 0.45142 0.0
C1278 C 0.84643 0.89406 0.97112 0.0
C1279 C 0.85148 0.89798 1.00811 0.0
H1280 H 0.83177 0.92034 0.92228 0.0
C1281 C 0.83681 0.92783 1.02536 0.0
H1282 H 0.85814 0.87159 0.95713 0.0
C1283 C 0.82043 0.95497 1.00557 0.0
C1284 C 0.81946 0.95328 0.96809 0.0
H1285 H 0.84075 0.93164 0.05379 0.0
H1286 H 0.81303 0.97943 1.01919 0.0
C1287 C 0.83088 0.92176 0.95117 0.0
C1288 C 0.60393 0.22413 0.42178 0.0
C1289 C 0.58694 0.23573 0.45319 0.0
H1290 H 0.59807 0.19668 0.37171 0.0
C1291 C 0.54945 0.23487 0.45476 0.0
H1292 H 0.63283 0.22317 0.42047 0.0
C1293 C 0.52971 0.21842 0.42761 0.0
C1294 C 0.54702 0.20358 0.39788 0.0
H1295 H 0.53578 0.24241 0.47914 0.0
H1296 H 0.50126 0.21458 0.43133 0.0
C1297 C 0.58403 0.20852 0.39408 0.0
C1298 C 0.95109 0.83117 0.92171 0.0
C1299 C 0.96801 0.8194 0.95311 0.0
H1300 H 0.9571 0.8587 0.87171 0.0
C1301 C 1.0055 0.82008 0.95471 0.0
H1302 H 0.9222 0.83227 0.92038 0.0
C1303 C 1.02534 0.8365 0.92762 0.0
C1304 C 1.00811 0.85148 0.89789 0.0
H1305 H 1.01913 0.81241 0.97908 0.0
H1306 H 0.0538 0.84019 0.93136 0.0
C1307 C 0.97107 0.84674 0.89406 0.0
C1308 C 0.1035 0.33063 0.63315 0.0
C1309 C 0.08668 0.31958 0.60145 0.0
H1310 H 0.0975 0.3576 0.68347 0.0
C1311 C 0.04922 0.32096 0.5995 0.0
H1312 H 0.1324 0.33118 0.63478 0.0
C1313 C 0.02942 0.33739 0.6266 0.0
C1314 C 0.04663 0.35168 0.65667 0.0
H1315 H 0.03569 0.31385 0.5749 0.0
H1316 H 1.00107 0.34165 0.62262 0.0
C1317 C 0.08354 0.3462 0.66081 0.0
C1318 C 0.52502 0.71912 0.12799 0.0
C1319 C 0.50774 0.70398 0.15759 0.0
H1320 H 0.51891 0.74335 0.07659 0.0
C1321 C 0.4707 0.70868 0.16136 0.0
H1322 H 0.5535 0.71546 0.1243 0.0
C1323 C 0.45076 0.72433 0.13371 0.0
C1324 C 0.46773 0.73618 0.10238 0.0
H1325 H 0.4567 0.69662 0.18364 0.0
H1326 H 0.42187 0.72316 0.13497 0.0
C1327 C 0.50523 0.7356 0.10091 0.0
C1328 C 0.42175 0.60373 0.22452 0.0
C1329 C 0.45328 0.5868 0.23588 0.0
H1330 H 0.37163 0.59785 0.19715 0.0
C1331 C 0.45503 0.54932 0.23471 0.0
H1332 H 0.42029 0.63263 0.22381 0.0
C1333 C 0.42796 0.52959 0.21815 0.0
C1334 C 0.39811 0.54688 0.20352 0.0
H1335 H 0.47951 0.53571 0.24208 0.0
H1336 H 0.43181 0.50119 0.21406 0.0
C1337 C 0.39411 0.58383 0.2088 0.0
C1338 C 0.92841 1.02578 0.83732 0.0
C1339 C 0.89843 1.0085 0.85172 0.0
H1340 H 0.98007 1.01965 0.8137 0.0
C1341 C 0.89443 0.97156 0.84637 0.0
H1342 H 0.93228 0.05416 0.84149 0.0
C1343 C 0.92213 0.95166 0.83079 0.0
C1344 C 0.95373 0.96857 0.81962 0.0
H1345 H 0.87186 0.95756 0.85786 0.0
H1346 H 0.92061 0.92276 0.83143 0.0
C1347 C 0.95554 1.00604 0.82089 0.0
C1348 C 0.60007 0.04926 0.32046 0.0
C1349 C 0.60177 0.08674 0.31941 0.0
H1350 H 0.62336 1.00109 0.34092 0.0
C1351 C 0.63328 0.10368 0.33084 0.0
H1352 H 0.57561 0.03563 0.31305 0.0
C1353 C 0.66096 0.08377 0.34648 0.0
C1354 C 0.65702 0.04679 0.35161 0.0
H1355 H 0.63471 0.13258 0.33166 0.0
H1356 H 0.68342 0.09778 0.35818 0.0
C1357 C 0.62718 0.02951 0.33693 0.0
C1358 C 0.16106 0.47011 0.70748 0.0
C1359 C 0.15766 0.50727 0.7035 0.0
H1360 H 0.1343 0.42131 0.72133 0.0
C1361 C 0.12836 0.52459 0.71916 0.0
H1362 H 0.18307 0.45609 0.69495 0.0
C1363 C 0.1012 0.50479 0.73552 0.0
C1364 C 0.10232 0.46728 0.73548 0.0
H1365 H 0.12495 0.55316 0.71603 0.0
H1366 H 0.0771 0.51858 0.74373 0.0
C1367 C 0.13335 0.45019 0.72302 0.0
C1368 C 0.8308 0.63317 0.45146 0.0
C1369 C 0.81942 0.60165 0.4684 0.0
H1370 H 0.85804 0.68336 0.45736 0.0
C1371 C 0.82046 0.59996 0.50588 0.0
H1372 H 0.83162 0.63458 0.42256 0.0
C1373 C 0.83686 0.62712 0.52564 0.0
C1374 C 0.85149 0.65698 0.50836 0.0
H1375 H 0.81308 0.5755 0.51951 0.0
H1376 H 0.84084 0.62333 0.55406 0.0
C1377 C 0.84637 0.66089 0.47138 0.0
C1378 C 0.73516 0.45472 1.00557 0.0
C1379 C 0.73605 0.45307 0.96808 0.0
H1380 H 0.71478 0.43142 0.05377 0.0
C1381 C 0.72452 0.4216 0.95114 0.0
H1382 H 0.74267 0.47914 1.0192 0.0
C1383 C 0.70888 0.39394 0.97107 0.0
C1384 C 0.70386 0.39785 1.00806 0.0
H1385 H 0.7236 0.42021 0.92225 0.0
H1386 H 0.69707 0.37153 0.95706 0.0
C1387 C 0.71868 0.42763 1.02534 0.0
C1388 C 0.33064 0.92176 0.60363 0.0
C1389 C 0.3193 0.95331 0.58673 0.0
H1390 H 0.35788 0.87159 0.59769 0.0
C1391 C 0.3204 0.95507 0.54925 0.0
H1392 H 0.3314 0.92029 0.63253 0.0
C1393 C 0.33686 0.92797 0.52948 0.0
C1394 C 0.35146 0.89808 0.54674 0.0
H1395 H 0.31306 0.97956 0.53566 0.0
H1396 H 0.3409 0.93183 0.50108 0.0
C1397 C 0.34625 0.89409 0.58369 0.0
C1398 C 0.22418 0.13323 0.10371 0.0
C1399 C 0.23561 0.10172 0.08678 0.0
H1400 H 0.19691 0.18339 0.09778 0.0
C1401 C 0.23464 0.10005 0.04929 0.0
H1402 H 0.22331 0.13463 0.1326 0.0
C1403 C 0.21824 0.1272 0.02952 0.0
C1404 C 0.20356 0.15705 0.04678 0.0
H1405 H 0.24205 0.0756 0.03566 0.0
H1406 H 0.21431 0.12341 1.00109 0.0
C1407 C 0.20862 0.16094 0.08377 0.0
C1408 C 0.47099 0.84703 0.66093 0.0
C1409 C 0.50804 0.85173 0.65719 0.0
H1410 H 0.42215 0.83262 0.63451 0.0
C1411 C 0.52531 0.83674 0.62749 0.0
H1412 H 0.45701 0.85901 0.68326 0.0
C1413 C 0.5055 0.82035 0.60035 0.0
C1414 C 0.46801 0.81969 0.60188 0.0
H1415 H 0.55378 0.84041 0.62382 0.0
H1416 H 0.51917 0.81267 0.57601 0.0
C1417 C 0.45105 0.83148 0.63323 0.0
C1418 C 0.02923 0.21788 0.12671 0.0
C1419 C 0.04644 0.20345 0.15672 0.0
H1420 H 0.03547 0.24152 0.07507 0.0
C1421 C 0.08338 0.2088 0.1608 0.0
H1422 H 1.00085 0.21373 0.12279 0.0
C1423 C 0.10334 0.22438 0.13314 0.0
C1424 C 0.0865 0.23558 0.1015 0.0
H1425 H 0.09734 0.1973 0.18339 0.0
H1426 H 0.13224 0.22373 0.13472 0.0
C1427 C 0.04903 0.23432 0.09962 0.0
C1428 C 0.97112 0.70857 0.39416 0.0
C1429 C 1.00813 0.70358 0.398 0.0
H1430 H 0.92233 0.72321 0.42052 0.0
C1431 C 1.02543 0.71833 0.4278 0.0
H1432 H 0.9571 0.69679 0.37174 0.0
C1433 C 1.00569 0.73472 0.45496 0.0
C1434 C 0.9682 0.73564 0.45335 0.0
H1435 H 0.05387 0.71443 0.43155 0.0
H1436 H 1.01936 0.74218 0.47938 0.0
C1437 C 0.95123 0.72414 0.42188 0.0
C1438 C 0.58382 0.34664 0.894 0.0
C1439 C 0.54682 0.35155 0.8979 0.0
H1440 H 0.63269 0.33205 0.92025 0.0
C1441 C 0.52959 0.33671 0.92768 0.0
H1442 H 0.59779 0.35848 0.87158 0.0
C1443 C 0.54942 0.32028 0.95477 0.0
C1444 C 0.58691 0.31945 0.95311 0.0
H1445 H 0.50115 0.34052 0.93147 0.0
H1446 H 0.53581 0.31273 0.97919 0.0
C1447 C 0.6038 0.33105 0.92165 0.0
C1448 C 0.60018 0.50571 0.82019 0.0
C1449 C 0.60172 0.46822 0.81929 0.0
H1450 H 0.6237 0.55386 0.84047 0.0
C1451 C 0.63315 0.4512 0.83078 0.0
H1452 H 0.57578 0.51941 0.81273 0.0
C1453 C 0.66092 0.47105 0.84634 0.0
C1454 C 0.65715 0.50806 0.85133 0.0
H1455 H 0.63445 0.42229 0.83171 0.0
H1456 H 0.6833 0.45698 0.85812 0.0
C1457 C 0.62739 0.52541 0.83658 0.0
C1458 C 0.13307 0.10406 0.22369 0.0
C1459 C 0.1017 0.08707 0.23541 0.0
H1460 H 0.18312 0.09816 0.19623 0.0
C1461 C 0.10018 0.04957 0.23472 0.0
H1462 H 0.13434 0.13296 0.22259 0.0
C1463 C 0.12733 0.0298 0.21835 0.0
C1464 C 0.15704 0.0471 0.20342 0.0
H1465 H 0.07582 0.0359 0.24235 0.0
H1466 H 0.12365 1.00133 0.21464 0.0
C1467 C 0.16079 0.08414 0.20816 0.0
C1468 C 0.45513 1.00594 0.73463 0.0
C1469 C 0.45346 0.96846 0.73572 0.0
H1470 H 0.43174 0.05407 0.71418 0.0
C1471 C 0.42195 0.95148 0.72435 0.0
H1472 H 0.47958 1.0196 0.74199 0.0
C1473 C 0.39422 0.97135 0.70875 0.0
C1474 C 0.39811 1.00833 0.70359 0.0
H1475 H 0.42055 0.92258 0.72356 0.0
H1476 H 0.37176 0.9573 0.69709 0.0
C1477 C 0.42796 1.02565 0.7182 0.0
C1478 C 0.92168 0.60377 0.33089 0.0
C1479 C 0.95317 0.58685 0.3194 0.0
H1480 H 0.87158 0.59783 0.35825 0.0
C1481 C 0.95485 0.54936 0.32036 0.0
H1482 H 0.92027 0.63267 0.33177 0.0
C1483 C 0.92775 0.52958 0.33682 0.0
C1484 C 0.89794 0.54685 0.35156 0.0
H1485 H 0.97929 0.53575 0.3129 0.0
H1486 H 0.93156 0.50116 0.34074 0.0
C1487 C 0.89402 0.58383 0.3465 0.0
C1488 C 0.26907 0.17939 0.55654 0.0
C1489 C 0.25259 0.17387 0.59009 0.0
H1490 H 0.26654 0.20533 0.50506 0.0
C1491 C 0.21937 0.19009 0.59628 0.0
H1492 H 0.29465 0.16721 0.55073 0.0
C1493 C 0.20368 0.21208 0.57044 0.0
C1494 C 0.2203 0.21832 0.53718 0.0
H1495 H 0.20584 0.18673 0.62163 0.0
H1496 H 0.17841 0.22466 0.57683 0.0
C1497 C 0.25292 0.20108 0.53022 0.0
C1498 C 0.33586 0.86563 0.09604 0.0
C1499 C 0.30239 0.88142 0.09007 0.0
H1500 H 0.37705 0.83145 0.07642 0.0
C1501 C 0.2857 0.87556 0.05667 0.0
H1502 H 0.34957 0.86928 0.12127 0.0
C1503 C 0.30187 0.85394 0.03031 0.0
C1504 C 0.33475 0.8371 0.03709 0.0
H1505 H 0.25992 0.8874 0.05101 0.0
H1506 H 0.28808 0.84938 1.00529 0.0
C1507 C 0.35159 0.84372 0.07018 0.0
C1508 C 0.75301 0.35399 0.52457 0.0
C1509 C 0.72019 0.33706 0.51774 0.0
H1510 H 0.79492 0.38754 0.50392 0.0
C1511 C 0.7034 0.34356 0.48461 0.0
H1512 H 0.76675 0.34952 0.54963 0.0
C1513 C 0.71913 0.36549 0.45875 0.0
C1514 C 0.75254 0.38138 0.46479 0.0
H1515 H 0.67798 0.33121 0.47834 0.0
H1516 H 0.70547 0.36906 0.4335 0.0
C1517 C 0.76919 0.37561 0.49822 0.0
C1518 C 0.78582 0.67932 0.99847 0.0
C1519 C 0.80236 0.67361 0.96498 0.0
H1520 H 0.78835 0.7054 0.04988 0.0
C1521 C 0.8357 0.68962 0.95885 0.0
H1522 H 0.76015 0.6673 1.00424 0.0
C1523 C 0.85145 0.71159 0.98467 0.0
C1524 C 0.83476 0.71803 1.01785 0.0
H1525 H 0.84928 0.68611 0.93355 0.0
H1526 H 0.8768 0.72401 0.97831 0.0
C1527 C 0.80202 0.70099 1.02477 0.0
C1528 C 0.57048 0.20367 0.2116 0.0
C1529 C 0.5373 0.22033 0.21811 0.0
H1530 H 0.62155 0.20587 0.18606 0.0
C1531 C 0.53037 0.25313 0.20116 0.0
H1532 H 0.57684 0.17828 0.22396 0.0
C1533 C 0.55664 0.26937 0.1795 0.0
C1534 C 0.59011 0.25282 0.1737 0.0
H1535 H 0.50526 0.26679 0.20563 0.0
H1536 H 0.55086 0.29507 0.16754 0.0
C1537 C 0.59626 0.21945 0.18964 0.0
C1538 C 0.95874 0.83598 0.68967 0.0
C1539 C 0.9648 0.8026 0.67371 0.0
H1540 H 0.9783 0.8771 0.72399 0.0
C1541 C 0.99826 0.786 0.67944 0.0
H1542 H 0.93345 0.8496 0.68613 0.0
C1543 C 1.0246 0.80219 0.70106 0.0
C1544 C 1.01776 0.83498 0.71805 0.0
H1545 H 1.00398 0.7603 0.66746 0.0
H1546 H 0.04969 0.78848 0.70548 0.0
C1547 C 0.9846 0.85172 0.7116 0.0
C1548 C 0.0304 0.30194 0.85383 0.0
C1549 C 0.03726 0.33467 0.83675 0.0
H1550 H 0.051 0.26014 0.88755 0.0
C1551 C 0.07044 0.35141 0.84315 0.0
H1552 H 1.00529 0.28824 0.84945 0.0
C1553 C 0.0963 0.33573 0.86512 0.0
C1554 C 0.09021 0.3024 0.88118 0.0
H1555 H 0.07676 0.37676 0.83069 0.0
H1556 H 0.12159 0.34935 0.86861 0.0
C1557 C 0.05674 0.2858 0.8755 0.0
C1558 C 0.52467 0.75308 0.35402 0.0
C1559 C 0.51794 0.72015 0.33724 0.0
H1560 H 0.50393 0.79506 0.38741 0.0
C1561 C 0.48489 0.70327 0.3439 0.0
H1562 H 0.54967 0.7669 0.34943 0.0
C1563 C 0.459 0.719 0.36579 0.0
C1564 C 0.46493 0.75252 0.38151 0.0
H1565 H 0.47868 0.67778 0.33167 0.0
H1566 H 0.43381 0.70526 0.36947 0.0
C1567 C 0.4983 0.76925 0.37561 0.0
C1568 C 0.17959 0.55648 0.26941 0.0
C1569 C 0.17383 0.58992 0.25278 0.0
H1570 H 0.20572 0.50508 0.267 0.0
C1571 C 0.18981 0.59598 0.21942 0.0
H1572 H 0.16759 0.55075 0.2951 0.0
C1573 C 0.21179 0.57015 0.20373 0.0
C1574 C 0.21829 0.53701 0.2205 0.0
H1575 H 0.18626 0.62124 0.20577 0.0
H1576 H 0.22418 0.57646 0.17835 0.0
C1577 C 0.20127 0.53015 0.25327 0.0
C1578 C 0.67958 0.99836 0.78588 0.0
C1579 C 0.67391 0.96489 0.80249 0.0
H1580 H 0.70562 0.0498 0.7883 0.0
C1581 C 0.68997 0.95882 0.83582 0.0
H1582 H 0.66752 1.00408 0.76021 0.0
C1583 C 0.71194 0.98468 0.85149 0.0
C1584 C 0.71833 1.01785 0.83475 0.0
H1585 H 0.68648 0.93354 0.84944 0.0
H1586 H 0.7244 0.97838 0.87685 0.0
C1587 C 0.70125 1.02471 0.80201 0.0
C1588 C 0.85404 0.03039 0.3023 0.0
C1589 C 0.83697 0.03731 0.33503 0.0
H1590 H 0.88771 0.05094 0.26047 0.0
C1591 C 0.84339 0.07049 0.35174 0.0
H1592 H 0.84965 1.00528 0.28863 0.0
C1593 C 0.86534 0.09633 0.33602 0.0
C1594 C 0.88135 0.0902 0.30269 0.0
H1595 H 0.83094 0.07683 0.37709 0.0
H1596 H 0.86883 0.12164 0.3496 0.0
C1597 C 0.87569 0.05671 0.28614 0.0
C1598 C 0.3439 0.48487 0.70327 0.0
C1599 C 0.33722 0.51791 0.72015 0.0
H1600 H 0.36951 0.43381 0.70529 0.0
C1601 C 0.35398 0.52467 0.75307 0.0
H1602 H 0.33169 0.47865 0.67777 0.0
C1603 C 0.3756 0.49833 0.76926 0.0
C1604 C 0.38152 0.46497 0.75253 0.0
H1605 H 0.34938 0.54967 0.76688 0.0
H1606 H 0.38739 0.50397 0.79507 0.0
C1607 C 0.36581 0.45901 0.71902 0.0
C1608 C 0.85159 0.84344 0.48463 0.0
C1609 C 0.83483 0.83694 0.51776 0.0
H1610 H 0.84952 0.86895 0.43352 0.0
C1611 C 0.80202 0.85389 0.52459 0.0
H1612 H 0.877 0.83108 0.47835 0.0
C1613 C 0.78585 0.87552 0.49826 0.0
C1614 C 0.80248 0.8813 0.46483 0.0
H1615 H 0.78829 0.84942 0.54966 0.0
H1616 H 0.76013 0.88747 0.50397 0.0
C1617 C 0.83587 0.86538 0.45878 0.0
C1618 C 0.70329 0.21157 0.98468 0.0
C1619 C 0.72001 0.21802 1.01786 0.0
H1620 H 0.70543 0.1861 0.93354 0.0
C1621 C 0.75275 0.20099 1.02477 0.0
H1622 H 0.67793 0.22398 0.97834 0.0
C1623 C 0.76893 0.17933 0.99846 0.0
C1624 C 0.75237 0.17364 0.96497 0.0
H1625 H 0.76644 0.2054 0.04987 0.0
H1626 H 0.79461 0.16733 1.00423 0.0
C1627 C 0.71903 0.18961 0.95885 0.0
C1628 C 0.28577 0.67949 0.55677 0.0
C1629 C 0.30233 0.6738 0.59026 0.0
H1630 H 0.28831 0.70552 0.50534 0.0
C1631 C 0.33566 0.68984 0.5964 0.0
H1632 H 0.26011 0.66746 0.551 0.0
C1633 C 0.3514 0.71179 0.57058 0.0
C1634 C 0.33472 0.71819 0.53737 0.0
H1635 H 0.34924 0.68635 0.62171 0.0
H1636 H 0.37676 0.72423 0.57693 0.0
C1637 C 0.30197 0.70114 0.53046 0.0
C1638 C 0.26933 0.37556 0.05666 0.0
C1639 C 0.25281 0.3813 0.09015 0.0
H1640 H 0.26672 0.34948 1.00525 0.0
C1641 C 0.21945 0.36533 0.0963 0.0
H1642 H 0.29501 0.38754 0.05088 0.0
C1643 C 0.20366 0.34338 0.0705 0.0
C1644 C 0.22031 0.33692 0.0373 0.0
H1645 H 0.20588 0.36887 0.12161 0.0
H1646 H 0.17828 0.331 0.07686 0.0
C1647 C 0.25308 0.35391 0.03037 0.0
C1648 C 0.52491 0.80233 0.85426 0.0
C1649 C 0.51787 0.83496 0.83706 0.0
H1650 H 0.50452 0.76054 0.88811 0.0
C1651 C 0.48461 0.85155 0.84337 0.0
H1652 H 0.55008 0.78875 0.84995 0.0
C1653 C 0.45884 0.8358 0.86538 0.0
C1654 C 0.46509 0.80257 0.88156 0.0
H1655 H 0.47817 0.87682 0.83084 0.0
H1656 H 0.43347 0.84929 0.8688 0.0
C1657 C 0.49865 0.78613 0.87597 0.0
C1658 C 0.0302 0.25266 0.35415 0.0
C1659 C 0.03717 0.22005 0.33688 0.0
H1660 H 0.05068 0.29437 0.38803 0.0
C1661 C 0.07042 0.20341 0.34314 0.0
H1662 H 1.00503 0.26627 0.34989 0.0
C1663 C 0.09626 0.21909 0.36514 0.0
C1664 C 0.09006 0.25232 0.38135 0.0
H1665 H 0.07681 0.17815 0.33054 0.0
H1666 H 0.12162 0.20558 0.3685 0.0
C1667 C 0.0565 0.26879 0.37585 0.0
C1668 C 1.02474 0.75289 0.20107 0.0
C1669 C 1.01787 0.72009 0.21803 0.0
H1670 H 1.00414 0.79479 0.16747 0.0
C1671 C 0.98472 0.70335 0.21153 0.0
H1672 H 0.04982 0.7666 0.20553 0.0
C1673 C 0.95887 0.71909 0.18959 0.0
C1674 C 0.96495 0.75247 0.17366 0.0
H1675 H 0.9784 0.67795 0.2239 0.0
H1676 H 0.9336 0.70546 0.18603 0.0
C1677 C 0.99841 0.76907 0.17942 0.0
C1678 C 0.53038 0.30213 0.70111 0.0
C1679 C 0.53723 0.33492 0.71809 0.0
H1680 H 0.55098 0.26026 0.66749 0.0
C1681 C 0.57038 0.35168 0.71162 0.0
H1682 H 0.5053 0.28841 0.70554 0.0
C1683 C 0.59623 0.33596 0.68967 0.0
C1684 C 0.59016 0.30258 0.67372 0.0
H1685 H 0.57669 0.37707 0.724 0.0
H1686 H 0.6215 0.3496 0.68613 0.0
C1687 C 0.55671 0.28596 0.67946 0.0
C1688 C 0.84364 0.48486 0.85162 0.0
C1689 C 0.83707 0.51797 0.83483 0.0
H1690 H 0.86921 0.43378 0.84957 0.0
C1691 C 0.85398 0.5248 0.802 0.0
H1692 H 0.83131 0.47858 0.87704 0.0
C1693 C 0.87564 0.49847 0.78584 0.0
C1694 C 0.88147 0.46505 0.80249 0.0
H1695 H 0.84947 0.54984 0.78825 0.0
H1696 H 0.88755 0.50417 0.7601 0.0
C1697 C 0.8656 0.45902 0.83591 0.0
C1698 C 0.34344 0.07031 0.20348 0.0
C1699 C 0.33691 0.03718 0.22025 0.0
H1700 H 0.36898 0.1214 0.20555 0.0
C1701 C 0.35385 0.03035 0.25308 0.0
H1702 H 0.3311 0.07659 0.17806 0.0
C1703 C 0.3755 0.05668 0.26925 0.0
C1704 C 0.3813 0.09011 0.25261 0.0
H1705 H 0.34936 1.00529 0.26681 0.0
H1706 H 0.38743 0.05098 0.29498 0.0
C1707 C 0.36539 0.09615 0.2192 0.0
C1708 C 0.20129 1.02462 0.75308 0.0
C1709 C 0.21814 1.01786 0.72021 0.0
H1710 H 0.16781 1.0039 0.79501 0.0
C1711 C 0.21157 0.98477 0.70337 0.0
H1712 H 0.20582 0.04965 0.76687 0.0
C1713 C 0.18965 0.95889 0.71908 0.0
C1714 C 0.17384 0.96485 0.75254 0.0
H1715 H 0.22385 0.97854 0.67792 0.0
H1716 H 0.18603 0.93366 0.70538 0.0
C1717 C 0.17968 0.99825 0.76924 0.0
C1718 C 0.67949 0.55672 0.28575 0.0
C1719 C 0.67374 0.59019 0.30232 0.0
H1720 H 0.70557 0.50532 0.28829 0.0
C1721 C 0.68972 0.59633 0.33568 0.0
H1722 H 0.6675 0.55096 0.26006 0.0
C1723 C 0.71168 0.57052 0.35144 0.0
C1724 C 0.71813 0.53734 0.33475 0.0
H1725 H 0.68618 0.62162 0.34928 0.0
H1726 H 0.72406 0.57686 0.37682 0.0
C1727 C 0.70114 0.53043 0.30196 0.0
loop_
_geom_bond_atom_site_label_1
_geom_bond_atom_site_label_2
_geom_bond_distance
_geom_bond_site_symmetry_2
_ccdc_geom_bond_type
Co0 H3 2.400 . S
Co0 O4 2.009 . S
Co0 O12 2.115 . S
Co0 O13 2.315 . S
Co0 O24 2.053 . S
Co0 O27 2.094 . S
Co0 O30 2.122 . S
Co1 O4 2.126 . S
Co1 H5 2.388 . S
Co1 O6 2.053 . S
Co1 O9 2.047 . S
Co1 O15 2.113 . S
Co1 O26 2.063 . S
Co2 H3 2.388 . S
Co2 O4 2.053 . S
Co2 O6 2.126 . S
Co2 O11 2.063 . S
Co2 O25 2.047 . S
Co2 O31 2.113 . S
H3 Co0 2.400 . S
H3 Co2 2.388 . S
H3 O4 0.760 . S
O4 Co0 2.009 . S
O4 Co1 2.126 . S
O4 Co2 2.053 . S
O4 H3 0.760 . S
H5 Co1 2.388 . S
H5 O6 0.760 . S
H5 Co7 2.400 . S
O6 Co1 2.053 . S
O6 Co2 2.126 . S
O6 H5 0.760 . S
O6 Co7 2.009 . S
Co7 H5 2.400 . S
Co7 O6 2.009 . S
Co7 O8 2.053 . S
Co7 O10 2.094 . S
Co7 O14 2.122 . S
Co7 O28 2.115 . S
Co7 O29 2.315 . S
O8 Co7 2.053 . S
O8 C20 1.259 . S
O9 Co1 2.047 . S
O9 C20 1.257 . S
O10 Co7 2.094 . S
O10 C21 1.253 . S
O11 Co2 2.063 . S
O11 C21 1.268 . S
O12 Co0 2.115 . S
O12 C22 1.281 . S
O13 Co0 2.315 . S
O13 C22 1.252 . S
O14 Co7 2.122 . S
O14 C23 1.272 . S
O15 Co1 2.113 . S
O15 C23 1.245 . S
C16 O24 1.259 . S
C16 O25 1.257 . S
C17 O26 1.268 . S
C17 O27 1.253 . S
C18 O28 1.281 . S
C18 O29 1.252 . S
C19 O30 1.272 . S
C19 O31 1.245 . S
C20 O8 1.259 . S
C20 O9 1.257 . S
C21 O10 1.253 . S
C21 O11 1.268 . S
C22 O12 1.281 . S
C22 O13 1.252 . S
C23 O14 1.272 . S
C23 O15 1.245 . S
O24 Co0 2.053 . S
O24 C16 1.259 . S
O25 Co2 2.047 . S
O25 C16 1.257 . S
O26 Co1 2.063 . S
O26 C17 1.268 . S
O27 Co0 2.094 . S
O27 C17 1.253 . S
O28 Co7 2.115 . S
O28 C18 1.281 . S
O29 Co7 2.315 . S
O29 C18 1.252 . S
O30 Co0 2.122 . S
O30 C19 1.272 . S
O31 Co2 2.113 . S
O31 C19 1.245 . S
Co32 H35 2.400 . S
Co32 O36 2.009 . S
Co32 O44 2.115 . S
Co32 O45 2.315 . S
Co32 O56 2.053 . S
Co32 O59 2.094 . S
Co32 O62 2.122 . S
Co33 O36 2.126 . S
Co33 H37 2.388 . S
Co33 O38 2.053 . S
Co33 O41 2.047 1_556 S
Co33 O47 2.113 1_556 S
Co33 O58 2.063 1_556 S
Co34 H35 2.388 . S
Co34 O36 2.053 . S
Co34 O38 2.126 . S
Co34 O43 2.063 . S
Co34 O57 2.047 . S
Co34 O63 2.113 . S
H35 Co32 2.400 . S
H35 Co34 2.388 . S
H35 O36 0.760 . S
O36 Co32 2.009 . S
O36 Co33 2.126 . S
O36 Co34 2.053 . S
O36 H35 0.760 . S
H37 Co33 2.388 . S
H37 O38 0.760 . S
H37 Co39 2.400 . S
O38 Co33 2.053 . S
O38 Co34 2.126 . S
O38 H37 0.760 . S
O38 Co39 2.009 . S
Co39 H37 2.400 . S
Co39 O38 2.009 . S
Co39 O40 2.053 1_556 S
Co39 O42 2.094 . S
Co39 O46 2.122 . S
Co39 O60 2.115 . S
Co39 O61 2.315 . S
O40 Co39 2.053 1_554 S
O40 C52 1.259 . S
O41 Co33 2.047 1_554 S
O41 C52 1.257 . S
O42 Co39 2.094 . S
O42 C53 1.253 . S
O43 Co34 2.063 . S
O43 C53 1.268 . S
O44 Co32 2.115 . S
O44 C54 1.281 . S
O45 Co32 2.315 . S
O45 C54 1.252 . S
O46 Co39 2.122 . S
O46 C55 1.272 1_556 S
O47 Co33 2.113 1_554 S
O47 C55 1.245 . S
C48 O56 1.259 . S
C48 O57 1.257 . S
C49 O58 1.268 1_556 S
C49 O59 1.253 . S
C50 O60 1.281 . S
C50 O61 1.252 . S
C51 O62 1.272 . S
C51 O63 1.245 . S
C52 O40 1.259 . S
C52 O41 1.257 . S
C53 O42 1.253 . S
C53 O43 1.268 . S
C54 O44 1.281 . S
C54 O45 1.252 . S
C55 O46 1.272 1_554 S
C55 O47 1.245 . S
O56 Co32 2.053 . S
O56 C48 1.259 . S
O57 Co34 2.047 . S
O57 C48 1.257 . S
O58 Co33 2.063 1_554 S
O58 C49 1.268 1_554 S
O59 Co32 2.094 . S
O59 C49 1.253 . S
O60 Co39 2.115 . S
O60 C50 1.281 . S
O61 Co39 2.315 . S
O61 C50 1.252 . S
O62 Co32 2.122 . S
O62 C51 1.272 . S
O63 Co34 2.113 . S
O63 C51 1.245 . S
Co64 H67 2.400 . S
Co64 O68 2.009 . S
Co64 O76 2.115 . S
Co64 O77 2.315 . S
Co64 O88 2.053 . S
Co64 O91 2.094 . S
Co64 O94 2.122 . S
Co65 O68 2.126 . S
Co65 H69 2.388 . S
Co65 O70 2.053 . S
Co65 O73 2.047 . S
Co65 O79 2.113 . S
Co65 O90 2.063 . S
Co66 H67 2.388 . S
Co66 O68 2.053 . S
Co66 O70 2.126 . S
Co66 O75 2.063 . S
Co66 O89 2.047 . S
Co66 O95 2.113 . S
H67 Co64 2.400 . S
H67 Co66 2.388 . S
H67 O68 0.760 . S
O68 Co64 2.009 . S
O68 Co65 2.126 . S
O68 Co66 2.053 . S
O68 H67 0.760 . S
H69 Co65 2.388 . S
H69 O70 0.760 . S
H69 Co71 2.400 . S
O70 Co65 2.053 . S
O70 Co66 2.126 . S
O70 H69 0.760 . S
O70 Co71 2.009 . S
Co71 H69 2.400 . S
Co71 O70 2.009 . S
Co71 O72 2.053 . S
Co71 O74 2.094 . S
Co71 O78 2.122 . S
Co71 O92 2.115 . S
Co71 O93 2.315 . S
O72 Co71 2.053 . S
O72 C84 1.259 . S
O73 Co65 2.047 . S
O73 C84 1.257 . S
O74 Co71 2.094 . S
O74 C85 1.253 . S
O75 Co66 2.063 . S
O75 C85 1.268 . S
O76 Co64 2.115 . S
O76 C86 1.281 . S
O77 Co64 2.315 . S
O77 C86 1.252 . S
O78 Co71 2.122 . S
O78 C87 1.272 . S
O79 Co65 2.113 . S
O79 C87 1.245 . S
C80 O88 1.259 . S
C80 O89 1.257 . S
C81 O90 1.268 . S
C81 O91 1.253 . S
C82 O92 1.281 . S
C82 O93 1.252 . S
C83 O94 1.272 . S
C83 O95 1.245 . S
C84 O72 1.259 . S
C84 O73 1.257 . S
C85 O74 1.253 . S
C85 O75 1.268 . S
C86 O76 1.281 . S
C86 O77 1.252 . S
C87 O78 1.272 . S
C87 O79 1.245 . S
O88 Co64 2.053 . S
O88 C80 1.259 . S
O89 Co66 2.047 . S
O89 C80 1.257 . S
O90 Co65 2.063 . S
O90 C81 1.268 . S
O91 Co64 2.094 . S
O91 C81 1.253 . S
O92 Co71 2.115 . S
O92 C82 1.281 . S
O93 Co71 2.315 . S
O93 C82 1.252 . S
O94 Co64 2.122 . S
O94 C83 1.272 . S
O95 Co66 2.113 . S
O95 C83 1.245 . S
Co96 H99 2.400 . S
Co96 O100 2.009 . S
Co96 O108 2.115 . S
Co96 O109 2.315 . S
Co96 O120 2.053 . S
Co96 O123 2.094 . S
Co96 O126 2.122 . S
Co97 O100 2.126 . S
Co97 H101 2.388 . S
Co97 O102 2.053 . S
Co97 O105 2.047 1_554 S
Co97 O111 2.113 1_554 S
Co97 O122 2.063 1_554 S
Co98 H99 2.388 . S
Co98 O100 2.053 . S
Co98 O102 2.126 . S
Co98 O107 2.063 . S
Co98 O121 2.047 . S
Co98 O127 2.113 . S
H99 Co96 2.400 . S
H99 Co98 2.388 . S
H99 O100 0.760 . S
O100 Co96 2.009 . S
O100 Co97 2.126 . S
O100 Co98 2.053 . S
O100 H99 0.760 . S
H101 Co97 2.388 . S
H101 O102 0.760 . S
H101 Co103 2.400 . S
O102 Co97 2.053 . S
O102 Co98 2.126 . S
O102 H101 0.760 . S
O102 Co103 2.009 . S
Co103 H101 2.400 . S
Co103 O102 2.009 . S
Co103 O104 2.053 1_554 S
Co103 O106 2.094 . S
Co103 O110 2.122 . S
Co103 O124 2.115 . S
Co103 O125 2.315 . S
O104 Co103 2.053 1_556 S
O104 C116 1.259 . S
O105 Co97 2.047 1_556 S
O105 C116 1.257 . S
O106 Co103 2.094 . S
O106 C117 1.253 . S
O107 Co98 2.063 . S
O107 C117 1.268 . S
O108 Co96 2.115 . S
O108 C118 1.281 . S
O109 Co96 2.315 . S
O109 C118 1.252 . S
O110 Co103 2.122 . S
O110 C119 1.272 1_554 S
O111 Co97 2.113 1_556 S
O111 C119 1.245 . S
C112 O120 1.259 . S
C112 O121 1.257 . S
C113 O122 1.268 1_554 S
C113 O123 1.253 . S
C114 O124 1.281 . S
C114 O125 1.252 . S
C115 O126 1.272 . S
C115 O127 1.245 . S
C116 O104 1.259 . S
C116 O105 1.257 . S
C117 O106 1.253 . S
C117 O107 1.268 . S
C118 O108 1.281 . S
C118 O109 1.252 . S
C119 O110 1.272 1_556 S
C119 O111 1.245 . S
O120 Co96 2.053 . S
O120 C112 1.259 . S
O121 Co98 2.047 . S
O121 C112 1.257 . S
O122 Co97 2.063 1_556 S
O122 C113 1.268 1_556 S
O123 Co96 2.094 . S
O123 C113 1.253 . S
O124 Co103 2.115 . S
O124 C114 1.281 . S
O125 Co103 2.315 . S
O125 C114 1.252 . S
O126 Co96 2.122 . S
O126 C115 1.272 . S
O127 Co98 2.113 . S
O127 C115 1.245 . S
Co128 H131 2.400 . S
Co128 O132 2.009 . S
Co128 O140 2.115 . S
Co128 O141 2.315 . S
Co128 O152 2.053 . S
Co128 O155 2.094 . S
Co128 O158 2.122 . S
Co129 O132 2.126 . S
Co129 H133 2.388 . S
Co129 O134 2.053 . S
Co129 O137 2.047 . S
Co129 O143 2.113 . S
Co129 O154 2.063 . S
Co130 H131 2.388 . S
Co130 O132 2.053 . S
Co130 O134 2.126 . S
Co130 O139 2.063 . S
Co130 O153 2.047 . S
Co130 O159 2.113 . S
H131 Co128 2.400 . S
H131 Co130 2.388 . S
H131 O132 0.760 . S
O132 Co128 2.009 . S
O132 Co129 2.126 . S
O132 Co130 2.053 . S
O132 H131 0.760 . S
H133 Co129 2.388 . S
H133 O134 0.760 . S
H133 Co135 2.400 . S
O134 Co129 2.053 . S
O134 Co130 2.126 . S
O134 H133 0.760 . S
O134 Co135 2.009 . S
Co135 H133 2.400 . S
Co135 O134 2.009 . S
Co135 O136 2.053 . S
Co135 O138 2.094 . S
Co135 O142 2.122 . S
Co135 O156 2.115 . S
Co135 O157 2.315 . S
O136 Co135 2.053 . S
O136 C148 1.259 . S
O137 Co129 2.047 . S
O137 C148 1.257 . S
O138 Co135 2.094 . S
O138 C149 1.253 . S
O139 Co130 2.063 . S
O139 C149 1.268 . S
O140 Co128 2.115 . S
O140 C150 1.281 . S
O141 Co128 2.315 . S
O141 C150 1.252 . S
O142 Co135 2.122 . S
O142 C151 1.272 . S
O143 Co129 2.113 . S
O143 C151 1.245 . S
C144 O152 1.259 . S
C144 O153 1.257 . S
C145 O154 1.268 . S
C145 O155 1.253 . S
C146 O156 1.281 . S
C146 O157 1.252 . S
C147 O158 1.272 . S
C147 O159 1.245 . S
C148 O136 1.259 . S
C148 O137 1.257 . S
C149 O138 1.253 . S
C149 O139 1.268 . S
C150 O140 1.281 . S
C150 O141 1.252 . S
C151 O142 1.272 . S
C151 O143 1.245 . S
O152 Co128 2.053 . S
O152 C144 1.259 . S
O153 Co130 2.047 . S
O153 C144 1.257 . S
O154 Co129 2.063 . S
O154 C145 1.268 . S
O155 Co128 2.094 . S
O155 C145 1.253 . S
O156 Co135 2.115 . S
O156 C146 1.281 . S
O157 Co135 2.315 . S
O157 C146 1.252 . S
O158 Co128 2.122 . S
O158 C147 1.272 . S
O159 Co130 2.113 . S
O159 C147 1.245 . S
Co160 H163 2.400 . S
Co160 O164 2.009 . S
Co160 O172 2.115 . S
Co160 O173 2.315 . S
Co160 O184 2.053 . S
Co160 O187 2.094 . S
Co160 O190 2.122 . S
Co161 O164 2.126 . S
Co161 H165 2.388 . S
Co161 O166 2.053 . S
Co161 O169 2.047 1_455 S
Co161 O175 2.113 1_455 S
Co161 O186 2.063 1_455 S
Co162 H163 2.388 . S
Co162 O164 2.053 . S
Co162 O166 2.126 . S
Co162 O171 2.063 . S
Co162 O185 2.047 . S
Co162 O191 2.113 . S
H163 Co160 2.400 . S
H163 Co162 2.388 . S
H163 O164 0.760 . S
O164 Co160 2.009 . S
O164 Co161 2.126 . S
O164 Co162 2.053 . S
O164 H163 0.760 . S
H165 Co161 2.388 . S
H165 O166 0.760 . S
H165 Co167 2.400 . S
O166 Co161 2.053 . S
O166 Co162 2.126 . S
O166 H165 0.760 . S
O166 Co167 2.009 . S
Co167 H165 2.400 . S
Co167 O166 2.009 . S
Co167 O168 2.053 1_455 S
Co167 O170 2.094 . S
Co167 O174 2.122 . S
Co167 O188 2.115 . S
Co167 O189 2.315 . S
O168 Co167 2.053 1_655 S
O168 C180 1.259 . S
O169 Co161 2.047 1_655 S
O169 C180 1.257 . S
O170 Co167 2.094 . S
O170 C181 1.253 . S
O171 Co162 2.063 . S
O171 C181 1.268 . S
O172 Co160 2.115 . S
O172 C182 1.281 . S
O173 Co160 2.315 . S
O173 C182 1.252 . S
O174 Co167 2.122 . S
O174 C183 1.272 1_455 S
O175 Co161 2.113 1_655 S
O175 C183 1.245 . S
C176 O184 1.259 . S
C176 O185 1.257 . S
C177 O186 1.268 1_455 S
C177 O187 1.253 . S
C178 O188 1.281 . S
C178 O189 1.252 . S
C179 O190 1.272 . S
C179 O191 1.245 . S
C180 O168 1.259 . S
C180 O169 1.257 . S
C181 O170 1.253 . S
C181 O171 1.268 . S
C182 O172 1.281 . S
C182 O173 1.252 . S
C183 O174 1.272 1_655 S
C183 O175 1.245 . S
O184 Co160 2.053 . S
O184 C176 1.259 . S
O185 Co162 2.047 . S
O185 C176 1.257 . S
O186 Co161 2.063 1_655 S
O186 C177 1.268 1_655 S
O187 Co160 2.094 . S
O187 C177 1.253 . S
O188 Co167 2.115 . S
O188 C178 1.281 . S
O189 Co167 2.315 . S
O189 C178 1.252 . S
O190 Co160 2.122 . S
O190 C179 1.272 . S
O191 Co162 2.113 . S
O191 C179 1.245 . S
Co192 H195 2.400 . S
Co192 O196 2.009 . S
Co192 O204 2.115 . S
Co192 O205 2.315 . S
Co192 O216 2.053 . S
Co192 O219 2.094 . S
Co192 O222 2.122 . S
Co193 O196 2.126 . S
Co193 H197 2.388 . S
Co193 O198 2.053 . S
Co193 O201 2.047 1_655 S
Co193 O207 2.113 1_655 S
Co193 O218 2.063 1_655 S
Co194 H195 2.388 . S
Co194 O196 2.053 . S
Co194 O198 2.126 . S
Co194 O203 2.063 . S
Co194 O217 2.047 . S
Co194 O223 2.113 . S
H195 Co192 2.400 . S
H195 Co194 2.388 . S
H195 O196 0.760 . S
O196 Co192 2.009 . S
O196 Co193 2.126 . S
O196 Co194 2.053 . S
O196 H195 0.760 . S
H197 Co193 2.388 . S
H197 O198 0.760 . S
H197 Co199 2.400 . S
O198 Co193 2.053 . S
O198 Co194 2.126 . S
O198 H197 0.760 . S
O198 Co199 2.009 . S
Co199 H197 2.400 . S
Co199 O198 2.009 . S
Co199 O200 2.053 1_655 S
Co199 O202 2.094 . S
Co199 O206 2.122 . S
Co199 O220 2.115 . S
Co199 O221 2.315 . S
O200 Co199 2.053 1_455 S
O200 C212 1.259 . S
O201 Co193 2.047 1_455 S
O201 C212 1.257 . S
O202 Co199 2.094 . S
O202 C213 1.253 . S
O203 Co194 2.063 . S
O203 C213 1.268 . S
O204 Co192 2.115 . S
O204 C214 1.281 . S
O205 Co192 2.315 . S
O205 C214 1.252 . S
O206 Co199 2.122 . S
O206 C215 1.272 1_655 S
O207 Co193 2.113 1_455 S
O207 C215 1.245 . S
C208 O216 1.259 . S
C208 O217 1.257 . S
C209 O218 1.268 1_655 S
C209 O219 1.253 . S
C210 O220 1.281 . S
C210 O221 1.252 . S
C211 O222 1.272 . S
C211 O223 1.245 . S
C212 O200 1.259 . S
C212 O201 1.257 . S
C213 O202 1.253 . S
C213 O203 1.268 . S
C214 O204 1.281 . S
C214 O205 1.252 . S
C215 O206 1.272 1_455 S
C215 O207 1.245 . S
O216 Co192 2.053 . S
O216 C208 1.259 . S
O217 Co194 2.047 . S
O217 C208 1.257 . S
O218 Co193 2.063 1_455 S
O218 C209 1.268 1_455 S
O219 Co192 2.094 . S
O219 C209 1.253 . S
O220 Co199 2.115 . S
O220 C210 1.281 . S
O221 Co199 2.315 . S
O221 C210 1.252 . S
O222 Co192 2.122 . S
O222 C211 1.272 . S
O223 Co194 2.113 . S
O223 C211 1.245 . S
Co224 H227 2.400 . S
Co224 O228 2.009 . S
Co224 O236 2.115 . S
Co224 O237 2.315 . S
Co224 O248 2.053 . S
Co224 O251 2.094 . S
Co224 O254 2.122 . S
Co225 O228 2.126 . S
Co225 H229 2.388 . S
Co225 O230 2.053 . S
Co225 O233 2.047 . S
Co225 O239 2.113 . S
Co225 O250 2.063 . S
Co226 H227 2.388 . S
Co226 O228 2.053 . S
Co226 O230 2.126 . S
Co226 O235 2.063 . S
Co226 O249 2.047 . S
Co226 O255 2.113 . S
H227 Co224 2.400 . S
H227 Co226 2.388 . S
H227 O228 0.760 . S
O228 Co224 2.009 . S
O228 Co225 2.126 . S
O228 Co226 2.053 . S
O228 H227 0.760 . S
H229 Co225 2.388 . S
H229 O230 0.760 . S
H229 Co231 2.400 . S
O230 Co225 2.053 . S
O230 Co226 2.126 . S
O230 H229 0.760 . S
O230 Co231 2.009 . S
Co231 H229 2.400 . S
Co231 O230 2.009 . S
Co231 O232 2.053 . S
Co231 O234 2.094 . S
Co231 O238 2.122 . S
Co231 O252 2.115 . S
Co231 O253 2.315 . S
O232 Co231 2.053 . S
O232 C244 1.259 . S
O233 Co225 2.047 . S
O233 C244 1.257 . S
O234 Co231 2.094 . S
O234 C245 1.253 . S
O235 Co226 2.063 . S
O235 C245 1.268 . S
O236 Co224 2.115 . S
O236 C246 1.281 . S
O237 Co224 2.315 . S
O237 C246 1.252 . S
O238 Co231 2.122 . S
O238 C247 1.272 . S
O239 Co225 2.113 . S
O239 C247 1.245 . S
C240 O248 1.259 . S
C240 O249 1.257 . S
C241 O250 1.268 . S
C241 O251 1.253 . S
C242 O252 1.281 . S
C242 O253 1.252 . S
C243 O254 1.272 . S
C243 O255 1.245 . S
C244 O232 1.259 . S
C244 O233 1.257 . S
C245 O234 1.253 . S
C245 O235 1.268 . S
C246 O236 1.281 . S
C246 O237 1.252 . S
C247 O238 1.272 . S
C247 O239 1.245 . S
O248 Co224 2.053 . S
O248 C240 1.259 . S
O249 Co226 2.047 . S
O249 C240 1.257 . S
O250 Co225 2.063 . S
O250 C241 1.268 . S
O251 Co224 2.094 . S
O251 C241 1.253 . S
O252 Co231 2.115 . S
O252 C242 1.281 . S
O253 Co231 2.315 . S
O253 C242 1.252 . S
O254 Co224 2.122 . S
O254 C243 1.272 . S
O255 Co226 2.113 . S
O255 C243 1.245 . S
Co256 H259 2.400 . S
Co256 O260 2.009 . S
Co256 O268 2.115 . S
Co256 O269 2.315 . S
Co256 O280 2.053 . S
Co256 O283 2.094 . S
Co256 O286 2.122 . S
Co257 O260 2.126 . S
Co257 H261 2.388 . S
Co257 O262 2.053 . S
Co257 O265 2.047 . S
Co257 O271 2.113 . S
Co257 O282 2.063 . S
Co258 H259 2.388 . S
Co258 O260 2.053 . S
Co258 O262 2.126 . S
Co258 O267 2.063 . S
Co258 O281 2.047 . S
Co258 O287 2.113 . S
H259 Co256 2.400 . S
H259 Co258 2.388 . S
H259 O260 0.760 . S
O260 Co256 2.009 . S
O260 Co257 2.126 . S
O260 Co258 2.053 . S
O260 H259 0.760 . S
H261 Co257 2.388 . S
H261 O262 0.760 . S
H261 Co263 2.400 . S
O262 Co257 2.053 . S
O262 Co258 2.126 . S
O262 H261 0.760 . S
O262 Co263 2.009 . S
Co263 H261 2.400 . S
Co263 O262 2.009 . S
Co263 O264 2.053 . S
Co263 O266 2.094 . S
Co263 O270 2.122 . S
Co263 O284 2.115 . S
Co263 O285 2.315 . S
O264 Co263 2.053 . S
O264 C276 1.259 . S
O265 Co257 2.047 . S
O265 C276 1.257 . S
O266 Co263 2.094 . S
O266 C277 1.253 . S
O267 Co258 2.063 . S
O267 C277 1.268 . S
O268 Co256 2.115 . S
O268 C278 1.281 . S
O269 Co256 2.315 . S
O269 C278 1.252 . S
O270 Co263 2.122 . S
O270 C279 1.272 . S
O271 Co257 2.113 . S
O271 C279 1.245 . S
C272 O280 1.259 . S
C272 O281 1.257 . S
C273 O282 1.268 . S
C273 O283 1.253 . S
C274 O284 1.281 . S
C274 O285 1.252 . S
C275 O286 1.272 . S
C275 O287 1.245 . S
C276 O264 1.259 . S
C276 O265 1.257 . S
C277 O266 1.253 . S
C277 O267 1.268 . S
C278 O268 1.281 . S
C278 O269 1.252 . S
C279 O270 1.272 . S
C279 O271 1.245 . S
O280 Co256 2.053 . S
O280 C272 1.259 . S
O281 Co258 2.047 . S
O281 C272 1.257 . S
O282 Co257 2.063 . S
O282 C273 1.268 . S
O283 Co256 2.094 . S
O283 C273 1.253 . S
O284 Co263 2.115 . S
O284 C274 1.281 . S
O285 Co263 2.315 . S
O285 C274 1.252 . S
O286 Co256 2.122 . S
O286 C275 1.272 . S
O287 Co258 2.113 . S
O287 C275 1.245 . S
Co288 H291 2.400 . S
Co288 O292 2.009 . S
Co288 O300 2.115 . S
Co288 O301 2.315 . S
Co288 O312 2.053 . S
Co288 O315 2.094 . S
Co288 O318 2.122 . S
Co289 O292 2.126 . S
Co289 H293 2.388 . S
Co289 O294 2.053 . S
Co289 O297 2.047 1_545 S
Co289 O303 2.113 1_545 S
Co289 O314 2.063 1_545 S
Co290 H291 2.388 . S
Co290 O292 2.053 . S
Co290 O294 2.126 . S
Co290 O299 2.063 . S
Co290 O313 2.047 . S
Co290 O319 2.113 . S
H291 Co288 2.400 . S
H291 Co290 2.388 . S
H291 O292 0.760 . S
O292 Co288 2.009 . S
O292 Co289 2.126 . S
O292 Co290 2.053 . S
O292 H291 0.760 . S
H293 Co289 2.388 . S
H293 O294 0.760 . S
H293 Co295 2.400 . S
O294 Co289 2.053 . S
O294 Co290 2.126 . S
O294 H293 0.760 . S
O294 Co295 2.009 . S
Co295 H293 2.400 . S
Co295 O294 2.009 . S
Co295 O296 2.053 1_545 S
Co295 O298 2.094 . S
Co295 O302 2.122 . S
Co295 O316 2.115 . S
Co295 O317 2.315 . S
O296 Co295 2.053 1_565 S
O296 C308 1.259 . S
O297 Co289 2.047 1_565 S
O297 C308 1.257 . S
O298 Co295 2.094 . S
O298 C309 1.253 . S
O299 Co290 2.063 . S
O299 C309 1.268 . S
O300 Co288 2.115 . S
O300 C310 1.281 . S
O301 Co288 2.315 . S
O301 C310 1.252 . S
O302 Co295 2.122 . S
O302 C311 1.272 1_545 S
O303 Co289 2.113 1_565 S
O303 C311 1.245 . S
C304 O312 1.259 . S
C304 O313 1.257 . S
C305 O314 1.268 1_545 S
C305 O315 1.253 . S
C306 O316 1.281 . S
C306 O317 1.252 . S
C307 O318 1.272 . S
C307 O319 1.245 . S
C308 O296 1.259 . S
C308 O297 1.257 . S
C309 O298 1.253 . S
C309 O299 1.268 . S
C310 O300 1.281 . S
C310 O301 1.252 . S
C311 O302 1.272 1_565 S
C311 O303 1.245 . S
O312 Co288 2.053 . S
O312 C304 1.259 . S
O313 Co290 2.047 . S
O313 C304 1.257 . S
O314 Co289 2.063 1_565 S
O314 C305 1.268 1_565 S
O315 Co288 2.094 . S
O315 C305 1.253 . S
O316 Co295 2.115 . S
O316 C306 1.281 . S
O317 Co295 2.315 . S
O317 C306 1.252 . S
O318 Co288 2.122 . S
O318 C307 1.272 . S
O319 Co290 2.113 . S
O319 C307 1.245 . S
Co320 H323 2.400 . S
Co320 O324 2.009 . S
Co320 O332 2.115 . S
Co320 O333 2.315 . S
Co320 O344 2.053 . S
Co320 O347 2.094 . S
Co320 O350 2.122 . S
Co321 O324 2.126 . S
Co321 H325 2.388 . S
Co321 O326 2.053 . S
Co321 O329 2.047 1_565 S
Co321 O335 2.113 1_565 S
Co321 O346 2.063 1_565 S
Co322 H323 2.388 . S
Co322 O324 2.053 . S
Co322 O326 2.126 . S
Co322 O331 2.063 . S
Co322 O345 2.047 . S
Co322 O351 2.113 . S
H323 Co320 2.400 . S
H323 Co322 2.388 . S
H323 O324 0.760 . S
O324 Co320 2.009 . S
O324 Co321 2.126 . S
O324 Co322 2.053 . S
O324 H323 0.760 . S
H325 Co321 2.388 . S
H325 O326 0.760 . S
H325 Co327 2.400 . S
O326 Co321 2.053 . S
O326 Co322 2.126 . S
O326 H325 0.760 . S
O326 Co327 2.009 . S
Co327 H325 2.400 . S
Co327 O326 2.009 . S
Co327 O328 2.053 1_565 S
Co327 O330 2.094 . S
Co327 O334 2.122 . S
Co327 O348 2.115 . S
Co327 O349 2.315 . S
O328 Co327 2.053 1_545 S
O328 C340 1.259 . S
O329 Co321 2.047 1_545 S
O329 C340 1.257 . S
O330 Co327 2.094 . S
O330 C341 1.253 . S
O331 Co322 2.063 . S
O331 C341 1.268 . S
O332 Co320 2.115 . S
O332 C342 1.281 . S
O333 Co320 2.315 . S
O333 C342 1.252 . S
O334 Co327 2.122 . S
O334 C343 1.272 1_565 S
O335 Co321 2.113 1_545 S
O335 C343 1.245 . S
C336 O344 1.259 . S
C336 O345 1.257 . S
C337 O346 1.268 1_565 S
C337 O347 1.253 . S
C338 O348 1.281 . S
C338 O349 1.252 . S
C339 O350 1.272 . S
C339 O351 1.245 . S
C340 O328 1.259 . S
C340 O329 1.257 . S
C341 O330 1.253 . S
C341 O331 1.268 . S
C342 O332 1.281 . S
C342 O333 1.252 . S
C343 O334 1.272 1_545 S
C343 O335 1.245 . S
O344 Co320 2.053 . S
O344 C336 1.259 . S
O345 Co322 2.047 . S
O345 C336 1.257 . S
O346 Co321 2.063 1_545 S
O346 C337 1.268 1_545 S
O347 Co320 2.094 . S
O347 C337 1.253 . S
O348 Co327 2.115 . S
O348 C338 1.281 . S
O349 Co327 2.315 . S
O349 C338 1.252 . S
O350 Co320 2.122 . S
O350 C339 1.272 . S
O351 Co322 2.113 . S
O351 C339 1.245 . S
Co352 H355 2.400 . S
Co352 O356 2.009 . S
Co352 O364 2.115 . S
Co352 O365 2.315 . S
Co352 O376 2.053 . S
Co352 O379 2.094 . S
Co352 O382 2.122 . S
Co353 O356 2.126 . S
Co353 H357 2.388 . S
Co353 O358 2.053 . S
Co353 O361 2.047 . S
Co353 O367 2.113 . S
Co353 O378 2.063 . S
Co354 H355 2.388 . S
Co354 O356 2.053 . S
Co354 O358 2.126 . S
Co354 O363 2.063 . S
Co354 O377 2.047 . S
Co354 O383 2.113 . S
H355 Co352 2.400 . S
H355 Co354 2.388 . S
H355 O356 0.760 . S
O356 Co352 2.009 . S
O356 Co353 2.126 . S
O356 Co354 2.053 . S
O356 H355 0.760 . S
H357 Co353 2.388 . S
H357 O358 0.760 . S
H357 Co359 2.400 . S
O358 Co353 2.053 . S
O358 Co354 2.126 . S
O358 H357 0.760 . S
O358 Co359 2.009 . S
Co359 H357 2.400 . S
Co359 O358 2.009 . S
Co359 O360 2.053 . S
Co359 O362 2.094 . S
Co359 O366 2.122 . S
Co359 O380 2.115 . S
Co359 O381 2.315 . S
O360 Co359 2.053 . S
O360 C372 1.259 . S
O361 Co353 2.047 . S
O361 C372 1.257 . S
O362 Co359 2.094 . S
O362 C373 1.253 . S
O363 Co354 2.063 . S
O363 C373 1.268 . S
O364 Co352 2.115 . S
O364 C374 1.281 . S
O365 Co352 2.315 . S
O365 C374 1.252 . S
O366 Co359 2.122 . S
O366 C375 1.272 . S
O367 Co353 2.113 . S
O367 C375 1.245 . S
C368 O376 1.259 . S
C368 O377 1.257 . S
C369 O378 1.268 . S
C369 O379 1.253 . S
C370 O380 1.281 . S
C370 O381 1.252 . S
C371 O382 1.272 . S
C371 O383 1.245 . S
C372 O360 1.259 . S
C372 O361 1.257 . S
C373 O362 1.253 . S
C373 O363 1.268 . S
C374 O364 1.281 . S
C374 O365 1.252 . S
C375 O366 1.272 . S
C375 O367 1.245 . S
O376 Co352 2.053 . S
O376 C368 1.259 . S
O377 Co354 2.047 . S
O377 C368 1.257 . S
O378 Co353 2.063 . S
O378 C369 1.268 . S
O379 Co352 2.094 . S
O379 C369 1.253 . S
O380 Co359 2.115 . S
O380 C370 1.281 . S
O381 Co359 2.315 . S
O381 C370 1.252 . S
O382 Co352 2.122 . S
O382 C371 1.272 . S
O383 Co354 2.113 . S
O383 C371 1.245 . S
Co384 H387 2.400 . S
Co384 O388 2.009 . S
Co384 O396 2.115 . S
Co384 O397 2.315 . S
Co384 O408 2.053 . S
Co384 O411 2.094 . S
Co384 O414 2.122 . S
Co385 O388 2.126 . S
Co385 H389 2.388 . S
Co385 O390 2.053 . S
Co385 O393 2.047 . S
Co385 O399 2.113 . S
Co385 O410 2.063 . S
Co386 H387 2.388 . S
Co386 O388 2.053 . S
Co386 O390 2.126 . S
Co386 O395 2.063 . S
Co386 O409 2.047 . S
Co386 O415 2.113 . S
H387 Co384 2.400 . S
H387 Co386 2.388 . S
H387 O388 0.760 . S
O388 Co384 2.009 . S
O388 Co385 2.126 . S
O388 Co386 2.053 . S
O388 H387 0.760 . S
H389 Co385 2.388 . S
H389 O390 0.760 . S
H389 Co391 2.400 . S
O390 Co385 2.053 . S
O390 Co386 2.126 . S
O390 H389 0.760 . S
O390 Co391 2.009 . S
Co391 H389 2.400 . S
Co391 O390 2.009 . S
Co391 O392 2.053 . S
Co391 O394 2.094 . S
Co391 O398 2.122 . S
Co391 O412 2.115 . S
Co391 O413 2.315 . S
O392 Co391 2.053 . S
O392 C404 1.259 . S
O393 Co385 2.047 . S
O393 C404 1.257 . S
O394 Co391 2.094 . S
O394 C405 1.253 . S
O395 Co386 2.063 . S
O395 C405 1.268 . S
O396 Co384 2.115 . S
O396 C406 1.281 . S
O397 Co384 2.315 . S
O397 C406 1.252 . S
O398 Co391 2.122 . S
O398 C407 1.272 . S
O399 Co385 2.113 . S
O399 C407 1.245 . S
C400 O408 1.259 . S
C400 O409 1.257 . S
C401 O410 1.268 . S
C401 O411 1.253 . S
C402 O412 1.281 . S
C402 O413 1.252 . S
C403 O414 1.272 . S
C403 O415 1.245 . S
C404 O392 1.259 . S
C404 O393 1.257 . S
C405 O394 1.253 . S
C405 O395 1.268 . S
C406 O396 1.281 . S
C406 O397 1.252 . S
C407 O398 1.272 . S
C407 O399 1.245 . S
O408 Co384 2.053 . S
O408 C400 1.259 . S
O409 Co386 2.047 . S
O409 C400 1.257 . S
O410 Co385 2.063 . S
O410 C401 1.268 . S
O411 Co384 2.094 . S
O411 C401 1.253 . S
O412 Co391 2.115 . S
O412 C402 1.281 . S
O413 Co391 2.315 . S
O413 C402 1.252 . S
O414 Co384 2.122 . S
O414 C403 1.272 . S
O415 Co386 2.113 . S
O415 C403 1.245 . S
Co416 H419 2.400 . S
Co416 O420 2.009 . S
Co416 O428 2.115 . S
Co416 O429 2.315 . S
Co416 O440 2.053 1_554 S
Co416 O443 2.094 . S
Co416 O446 2.122 . S
Co417 O420 2.126 . S
Co417 H421 2.388 . S
Co417 O422 2.053 . S
Co417 O425 2.047 . S
Co417 O431 2.113 . S
Co417 O442 2.063 . S
Co418 H419 2.388 . S
Co418 O420 2.053 . S
Co418 O422 2.126 . S
Co418 O427 2.063 1_554 S
Co418 O441 2.047 1_554 S
Co418 O447 2.113 1_554 S
H419 Co416 2.400 . S
H419 Co418 2.388 . S
H419 O420 0.760 . S
O420 Co416 2.009 . S
O420 Co417 2.126 . S
O420 Co418 2.053 . S
O420 H419 0.760 . S
H421 Co417 2.388 . S
H421 O422 0.760 . S
H421 Co423 2.400 . S
O422 Co417 2.053 . S
O422 Co418 2.126 . S
O422 H421 0.760 . S
O422 Co423 2.009 . S
Co423 H421 2.400 . S
Co423 O422 2.009 . S
Co423 O424 2.053 . S
Co423 O426 2.094 . S
Co423 O430 2.122 . S
Co423 O444 2.115 . S
Co423 O445 2.315 . S
O424 Co423 2.053 . S
O424 C436 1.259 . S
O425 Co417 2.047 . S
O425 C436 1.257 . S
O426 Co423 2.094 . S
O426 C437 1.253 . S
O427 Co418 2.063 1_556 S
O427 C437 1.268 1_556 S
O428 Co416 2.115 . S
O428 C438 1.281 . S
O429 Co416 2.315 . S
O429 C438 1.252 . S
O430 Co423 2.122 . S
O430 C439 1.272 . S
O431 Co417 2.113 . S
O431 C439 1.245 . S
C432 O440 1.259 . S
C432 O441 1.257 . S
C433 O442 1.268 . S
C433 O443 1.253 . S
C434 O444 1.281 . S
C434 O445 1.252 . S
C435 O446 1.272 1_556 S
C435 O447 1.245 . S
C436 O424 1.259 . S
C436 O425 1.257 . S
C437 O426 1.253 . S
C437 O427 1.268 1_554 S
C438 O428 1.281 . S
C438 O429 1.252 . S
C439 O430 1.272 . S
C439 O431 1.245 . S
O440 Co416 2.053 1_556 S
O440 C432 1.259 . S
O441 Co418 2.047 1_556 S
O441 C432 1.257 . S
O442 Co417 2.063 . S
O442 C433 1.268 . S
O443 Co416 2.094 . S
O443 C433 1.253 . S
O444 Co423 2.115 . S
O444 C434 1.281 . S
O445 Co423 2.315 . S
O445 C434 1.252 . S
O446 Co416 2.122 . S
O446 C435 1.272 1_554 S
O447 Co418 2.113 1_556 S
O447 C435 1.245 . S
Co448 H451 2.400 . S
Co448 O452 2.009 . S
Co448 O460 2.115 . S
Co448 O461 2.315 . S
Co448 O472 2.053 . S
Co448 O475 2.094 . S
Co448 O478 2.122 . S
Co449 O452 2.126 . S
Co449 H453 2.388 . S
Co449 O454 2.053 . S
Co449 O457 2.047 . S
Co449 O463 2.113 . S
Co449 O474 2.063 . S
Co450 H451 2.388 . S
Co450 O452 2.053 . S
Co450 O454 2.126 . S
Co450 O459 2.063 . S
Co450 O473 2.047 . S
Co450 O479 2.113 . S
H451 Co448 2.400 . S
H451 Co450 2.388 . S
H451 O452 0.760 . S
O452 Co448 2.009 . S
O452 Co449 2.126 . S
O452 Co450 2.053 . S
O452 H451 0.760 . S
H453 Co449 2.388 . S
H453 O454 0.760 . S
H453 Co455 2.400 . S
O454 Co449 2.053 . S
O454 Co450 2.126 . S
O454 H453 0.760 . S
O454 Co455 2.009 . S
Co455 H453 2.400 . S
Co455 O454 2.009 . S
Co455 O456 2.053 . S
Co455 O458 2.094 . S
Co455 O462 2.122 . S
Co455 O476 2.115 . S
Co455 O477 2.315 . S
O456 Co455 2.053 . S
O456 C468 1.259 . S
O457 Co449 2.047 . S
O457 C468 1.257 . S
O458 Co455 2.094 . S
O458 C469 1.253 . S
O459 Co450 2.063 . S
O459 C469 1.268 . S
O460 Co448 2.115 . S
O460 C470 1.281 . S
O461 Co448 2.315 . S
O461 C470 1.252 . S
O462 Co455 2.122 . S
O462 C471 1.272 . S
O463 Co449 2.113 . S
O463 C471 1.245 . S
C464 O472 1.259 . S
C464 O473 1.257 . S
C465 O474 1.268 . S
C465 O475 1.253 . S
C466 O476 1.281 . S
C466 O477 1.252 . S
C467 O478 1.272 . S
C467 O479 1.245 . S
C468 O456 1.259 . S
C468 O457 1.257 . S
C469 O458 1.253 . S
C469 O459 1.268 . S
C470 O460 1.281 . S
C470 O461 1.252 . S
C471 O462 1.272 . S
C471 O463 1.245 . S
O472 Co448 2.053 . S
O472 C464 1.259 . S
O473 Co450 2.047 . S
O473 C464 1.257 . S
O474 Co449 2.063 . S
O474 C465 1.268 . S
O475 Co448 2.094 . S
O475 C465 1.253 . S
O476 Co455 2.115 . S
O476 C466 1.281 . S
O477 Co455 2.315 . S
O477 C466 1.252 . S
O478 Co448 2.122 . S
O478 C467 1.272 . S
O479 Co450 2.113 . S
O479 C467 1.245 . S
Co480 H483 2.400 . S
Co480 O484 2.009 . S
Co480 O492 2.115 . S
Co480 O493 2.315 . S
Co480 O504 2.053 1_556 S
Co480 O507 2.094 . S
Co480 O510 2.122 . S
Co481 O484 2.126 . S
Co481 H485 2.388 . S
Co481 O486 2.053 . S
Co481 O489 2.047 . S
Co481 O495 2.113 . S
Co481 O506 2.063 . S
Co482 H483 2.388 . S
Co482 O484 2.053 . S
Co482 O486 2.126 . S
Co482 O491 2.063 1_556 S
Co482 O505 2.047 1_556 S
Co482 O511 2.113 1_556 S
H483 Co480 2.400 . S
H483 Co482 2.388 . S
H483 O484 0.760 . S
O484 Co480 2.009 . S
O484 Co481 2.126 . S
O484 Co482 2.053 . S
O484 H483 0.760 . S
H485 Co481 2.388 . S
H485 O486 0.760 . S
H485 Co487 2.400 . S
O486 Co481 2.053 . S
O486 Co482 2.126 . S
O486 H485 0.760 . S
O486 Co487 2.009 . S
Co487 H485 2.400 . S
Co487 O486 2.009 . S
Co487 O488 2.053 . S
Co487 O490 2.094 . S
Co487 O494 2.122 . S
Co487 O508 2.115 . S
Co487 O509 2.315 . S
O488 Co487 2.053 . S
O488 C500 1.259 . S
O489 Co481 2.047 . S
O489 C500 1.257 . S
O490 Co487 2.094 . S
O490 C501 1.253 . S
O491 Co482 2.063 1_554 S
O491 C501 1.268 1_554 S
O492 Co480 2.115 . S
O492 C502 1.281 . S
O493 Co480 2.315 . S
O493 C502 1.252 . S
O494 Co487 2.122 . S
O494 C503 1.272 . S
O495 Co481 2.113 . S
O495 C503 1.245 . S
C496 O504 1.259 . S
C496 O505 1.257 . S
C497 O506 1.268 . S
C497 O507 1.253 . S
C498 O508 1.281 . S
C498 O509 1.252 . S
C499 O510 1.272 1_554 S
C499 O511 1.245 . S
C500 O488 1.259 . S
C500 O489 1.257 . S
C501 O490 1.253 . S
C501 O491 1.268 1_556 S
C502 O492 1.281 . S
C502 O493 1.252 . S
C503 O494 1.272 . S
C503 O495 1.245 . S
O504 Co480 2.053 1_554 S
O504 C496 1.259 . S
O505 Co482 2.047 1_554 S
O505 C496 1.257 . S
O506 Co481 2.063 . S
O506 C497 1.268 . S
O507 Co480 2.094 . S
O507 C497 1.253 . S
O508 Co487 2.115 . S
O508 C498 1.281 . S
O509 Co487 2.315 . S
O509 C498 1.252 . S
O510 Co480 2.122 . S
O510 C499 1.272 1_556 S
O511 Co482 2.113 1_554 S
O511 C499 1.245 . S
Co512 H515 2.400 . S
Co512 O516 2.009 . S
Co512 O524 2.115 . S
Co512 O525 2.315 . S
Co512 O536 2.053 . S
Co512 O539 2.094 . S
Co512 O542 2.122 . S
Co513 O516 2.126 . S
Co513 H517 2.388 . S
Co513 O518 2.053 . S
Co513 O521 2.047 . S
Co513 O527 2.113 . S
Co513 O538 2.063 . S
Co514 H515 2.388 . S
Co514 O516 2.053 . S
Co514 O518 2.126 . S
Co514 O523 2.063 . S
Co514 O537 2.047 . S
Co514 O543 2.113 . S
H515 Co512 2.400 . S
H515 Co514 2.388 . S
H515 O516 0.760 . S
O516 Co512 2.009 . S
O516 Co513 2.126 . S
O516 Co514 2.053 . S
O516 H515 0.760 . S
H517 Co513 2.388 . S
H517 O518 0.760 . S
H517 Co519 2.400 . S
O518 Co513 2.053 . S
O518 Co514 2.126 . S
O518 H517 0.760 . S
O518 Co519 2.009 . S
Co519 H517 2.400 . S
Co519 O518 2.009 . S
Co519 O520 2.053 . S
Co519 O522 2.094 . S
Co519 O526 2.122 . S
Co519 O540 2.115 . S
Co519 O541 2.315 . S
O520 Co519 2.053 . S
O520 C532 1.259 . S
O521 Co513 2.047 . S
O521 C532 1.257 . S
O522 Co519 2.094 . S
O522 C533 1.253 . S
O523 Co514 2.063 . S
O523 C533 1.268 . S
O524 Co512 2.115 . S
O524 C534 1.281 . S
O525 Co512 2.315 . S
O525 C534 1.252 . S
O526 Co519 2.122 . S
O526 C535 1.272 . S
O527 Co513 2.113 . S
O527 C535 1.245 . S
C528 O536 1.259 . S
C528 O537 1.257 . S
C529 O538 1.268 . S
C529 O539 1.253 . S
C530 O540 1.281 . S
C530 O541 1.252 . S
C531 O542 1.272 . S
C531 O543 1.245 . S
C532 O520 1.259 . S
C532 O521 1.257 . S
C533 O522 1.253 . S
C533 O523 1.268 . S
C534 O524 1.281 . S
C534 O525 1.252 . S
C535 O526 1.272 . S
C535 O527 1.245 . S
O536 Co512 2.053 . S
O536 C528 1.259 . S
O537 Co514 2.047 . S
O537 C528 1.257 . S
O538 Co513 2.063 . S
O538 C529 1.268 . S
O539 Co512 2.094 . S
O539 C529 1.253 . S
O540 Co519 2.115 . S
O540 C530 1.281 . S
O541 Co519 2.315 . S
O541 C530 1.252 . S
O542 Co512 2.122 . S
O542 C531 1.272 . S
O543 Co514 2.113 . S
O543 C531 1.245 . S
Co544 H547 2.400 . S
Co544 O548 2.009 . S
Co544 O556 2.115 . S
Co544 O557 2.315 . S
Co544 O568 2.053 1_655 S
Co544 O571 2.094 . S
Co544 O574 2.122 . S
Co545 O548 2.126 . S
Co545 H549 2.388 . S
Co545 O550 2.053 . S
Co545 O553 2.047 . S
Co545 O559 2.113 . S
Co545 O570 2.063 . S
Co546 H547 2.388 . S
Co546 O548 2.053 . S
Co546 O550 2.126 . S
Co546 O555 2.063 1_655 S
Co546 O569 2.047 1_655 S
Co546 O575 2.113 1_655 S
H547 Co544 2.400 . S
H547 Co546 2.388 . S
H547 O548 0.760 . S
O548 Co544 2.009 . S
O548 Co545 2.126 . S
O548 Co546 2.053 . S
O548 H547 0.760 . S
H549 Co545 2.388 . S
H549 O550 0.760 . S
H549 Co551 2.400 . S
O550 Co545 2.053 . S
O550 Co546 2.126 . S
O550 H549 0.760 . S
O550 Co551 2.009 . S
Co551 H549 2.400 . S
Co551 O550 2.009 . S
Co551 O552 2.053 . S
Co551 O554 2.094 . S
Co551 O558 2.122 . S
Co551 O572 2.115 . S
Co551 O573 2.315 . S
O552 Co551 2.053 . S
O552 C564 1.259 . S
O553 Co545 2.047 . S
O553 C564 1.257 . S
O554 Co551 2.094 . S
O554 C565 1.253 . S
O555 Co546 2.063 1_455 S
O555 C565 1.268 1_455 S
O556 Co544 2.115 . S
O556 C566 1.281 . S
O557 Co544 2.315 . S
O557 C566 1.252 . S
O558 Co551 2.122 . S
O558 C567 1.272 . S
O559 Co545 2.113 . S
O559 C567 1.245 . S
C560 O568 1.259 . S
C560 O569 1.257 . S
C561 O570 1.268 . S
C561 O571 1.253 . S
C562 O572 1.281 . S
C562 O573 1.252 . S
C563 O574 1.272 1_455 S
C563 O575 1.245 . S
C564 O552 1.259 . S
C564 O553 1.257 . S
C565 O554 1.253 . S
C565 O555 1.268 1_655 S
C566 O556 1.281 . S
C566 O557 1.252 . S
C567 O558 1.272 . S
C567 O559 1.245 . S
O568 Co544 2.053 1_455 S
O568 C560 1.259 . S
O569 Co546 2.047 1_455 S
O569 C560 1.257 . S
O570 Co545 2.063 . S
O570 C561 1.268 . S
O571 Co544 2.094 . S
O571 C561 1.253 . S
O572 Co551 2.115 . S
O572 C562 1.281 . S
O573 Co551 2.315 . S
O573 C562 1.252 . S
O574 Co544 2.122 . S
O574 C563 1.272 1_655 S
O575 Co546 2.113 1_455 S
O575 C563 1.245 . S
Co576 H579 2.400 . S
Co576 O580 2.009 . S
Co576 O588 2.115 . S
Co576 O589 2.315 . S
Co576 O600 2.053 1_455 S
Co576 O603 2.094 . S
Co576 O606 2.122 . S
Co577 O580 2.126 . S
Co577 H581 2.388 . S
Co577 O582 2.053 . S
Co577 O585 2.047 . S
Co577 O591 2.113 . S
Co577 O602 2.063 . S
Co578 H579 2.388 . S
Co578 O580 2.053 . S
Co578 O582 2.126 . S
Co578 O587 2.063 1_455 S
Co578 O601 2.047 1_455 S
Co578 O607 2.113 1_455 S
H579 Co576 2.400 . S
H579 Co578 2.388 . S
H579 O580 0.760 . S
O580 Co576 2.009 . S
O580 Co577 2.126 . S
O580 Co578 2.053 . S
O580 H579 0.760 . S
H581 Co577 2.388 . S
H581 O582 0.760 . S
H581 Co583 2.400 . S
O582 Co577 2.053 . S
O582 Co578 2.126 . S
O582 H581 0.760 . S
O582 Co583 2.009 . S
Co583 H581 2.400 . S
Co583 O582 2.009 . S
Co583 O584 2.053 . S
Co583 O586 2.094 . S
Co583 O590 2.122 . S
Co583 O604 2.115 . S
Co583 O605 2.315 . S
O584 Co583 2.053 . S
O584 C596 1.259 . S
O585 Co577 2.047 . S
O585 C596 1.257 . S
O586 Co583 2.094 . S
O586 C597 1.253 . S
O587 Co578 2.063 1_655 S
O587 C597 1.268 1_655 S
O588 Co576 2.115 . S
O588 C598 1.281 . S
O589 Co576 2.315 . S
O589 C598 1.252 . S
O590 Co583 2.122 . S
O590 C599 1.272 . S
O591 Co577 2.113 . S
O591 C599 1.245 . S
C592 O600 1.259 . S
C592 O601 1.257 . S
C593 O602 1.268 . S
C593 O603 1.253 . S
C594 O604 1.281 . S
C594 O605 1.252 . S
C595 O606 1.272 1_655 S
C595 O607 1.245 . S
C596 O584 1.259 . S
C596 O585 1.257 . S
C597 O586 1.253 . S
C597 O587 1.268 1_455 S
C598 O588 1.281 . S
C598 O589 1.252 . S
C599 O590 1.272 . S
C599 O591 1.245 . S
O600 Co576 2.053 1_655 S
O600 C592 1.259 . S
O601 Co578 2.047 1_655 S
O601 C592 1.257 . S
O602 Co577 2.063 . S
O602 C593 1.268 . S
O603 Co576 2.094 . S
O603 C593 1.253 . S
O604 Co583 2.115 . S
O604 C594 1.281 . S
O605 Co583 2.315 . S
O605 C594 1.252 . S
O606 Co576 2.122 . S
O606 C595 1.272 1_455 S
O607 Co578 2.113 1_655 S
O607 C595 1.245 . S
Co608 H611 2.400 . S
Co608 O612 2.009 . S
Co608 O620 2.115 . S
Co608 O621 2.315 . S
Co608 O632 2.053 . S
Co608 O635 2.094 . S
Co608 O638 2.122 . S
Co609 O612 2.126 . S
Co609 H613 2.388 . S
Co609 O614 2.053 . S
Co609 O617 2.047 . S
Co609 O623 2.113 . S
Co609 O634 2.063 . S
Co610 H611 2.388 . S
Co610 O612 2.053 . S
Co610 O614 2.126 . S
Co610 O619 2.063 . S
Co610 O633 2.047 . S
Co610 O639 2.113 . S
H611 Co608 2.400 . S
H611 Co610 2.388 . S
H611 O612 0.760 . S
O612 Co608 2.009 . S
O612 Co609 2.126 . S
O612 Co610 2.053 . S
O612 H611 0.760 . S
H613 Co609 2.388 . S
H613 O614 0.760 . S
H613 Co615 2.400 . S
O614 Co609 2.053 . S
O614 Co610 2.126 . S
O614 H613 0.760 . S
O614 Co615 2.009 . S
Co615 H613 2.400 . S
Co615 O614 2.009 . S
Co615 O616 2.053 . S
Co615 O618 2.094 . S
Co615 O622 2.122 . S
Co615 O636 2.115 . S
Co615 O637 2.315 . S
O616 Co615 2.053 . S
O616 C628 1.259 . S
O617 Co609 2.047 . S
O617 C628 1.257 . S
O618 Co615 2.094 . S
O618 C629 1.253 . S
O619 Co610 2.063 . S
O619 C629 1.268 . S
O620 Co608 2.115 . S
O620 C630 1.281 . S
O621 Co608 2.315 . S
O621 C630 1.252 . S
O622 Co615 2.122 . S
O622 C631 1.272 . S
O623 Co609 2.113 . S
O623 C631 1.245 . S
C624 O632 1.259 . S
C624 O633 1.257 . S
C625 O634 1.268 . S
C625 O635 1.253 . S
C626 O636 1.281 . S
C626 O637 1.252 . S
C627 O638 1.272 . S
C627 O639 1.245 . S
C628 O616 1.259 . S
C628 O617 1.257 . S
C629 O618 1.253 . S
C629 O619 1.268 . S
C630 O620 1.281 . S
C630 O621 1.252 . S
C631 O622 1.272 . S
C631 O623 1.245 . S
O632 Co608 2.053 . S
O632 C624 1.259 . S
O633 Co610 2.047 . S
O633 C624 1.257 . S
O634 Co609 2.063 . S
O634 C625 1.268 . S
O635 Co608 2.094 . S
O635 C625 1.253 . S
O636 Co615 2.115 . S
O636 C626 1.281 . S
O637 Co615 2.315 . S
O637 C626 1.252 . S
O638 Co608 2.122 . S
O638 C627 1.272 . S
O639 Co610 2.113 . S
O639 C627 1.245 . S
Co640 H643 2.400 . S
Co640 O644 2.009 . S
Co640 O652 2.115 . S
Co640 O653 2.315 . S
Co640 O664 2.053 . S
Co640 O667 2.094 . S
Co640 O670 2.122 . S
Co641 O644 2.126 . S
Co641 H645 2.388 . S
Co641 O646 2.053 . S
Co641 O649 2.047 . S
Co641 O655 2.113 . S
Co641 O666 2.063 . S
Co642 H643 2.388 . S
Co642 O644 2.053 . S
Co642 O646 2.126 . S
Co642 O651 2.063 . S
Co642 O665 2.047 . S
Co642 O671 2.113 . S
H643 Co640 2.400 . S
H643 Co642 2.388 . S
H643 O644 0.760 . S
O644 Co640 2.009 . S
O644 Co641 2.126 . S
O644 Co642 2.053 . S
O644 H643 0.760 . S
H645 Co641 2.388 . S
H645 O646 0.760 . S
H645 Co647 2.400 . S
O646 Co641 2.053 . S
O646 Co642 2.126 . S
O646 H645 0.760 . S
O646 Co647 2.009 . S
Co647 H645 2.400 . S
Co647 O646 2.009 . S
Co647 O648 2.053 . S
Co647 O650 2.094 . S
Co647 O654 2.122 . S
Co647 O668 2.115 . S
Co647 O669 2.315 . S
O648 Co647 2.053 . S
O648 C660 1.259 . S
O649 Co641 2.047 . S
O649 C660 1.257 . S
O650 Co647 2.094 . S
O650 C661 1.253 . S
O651 Co642 2.063 . S
O651 C661 1.268 . S
O652 Co640 2.115 . S
O652 C662 1.281 . S
O653 Co640 2.315 . S
O653 C662 1.252 . S
O654 Co647 2.122 . S
O654 C663 1.272 . S
O655 Co641 2.113 . S
O655 C663 1.245 . S
C656 O664 1.259 . S
C656 O665 1.257 . S
C657 O666 1.268 . S
C657 O667 1.253 . S
C658 O668 1.281 . S
C658 O669 1.252 . S
C659 O670 1.272 . S
C659 O671 1.245 . S
C660 O648 1.259 . S
C660 O649 1.257 . S
C661 O650 1.253 . S
C661 O651 1.268 . S
C662 O652 1.281 . S
C662 O653 1.252 . S
C663 O654 1.272 . S
C663 O655 1.245 . S
O664 Co640 2.053 . S
O664 C656 1.259 . S
O665 Co642 2.047 . S
O665 C656 1.257 . S
O666 Co641 2.063 . S
O666 C657 1.268 . S
O667 Co640 2.094 . S
O667 C657 1.253 . S
O668 Co647 2.115 . S
O668 C658 1.281 . S
O669 Co647 2.315 . S
O669 C658 1.252 . S
O670 Co640 2.122 . S
O670 C659 1.272 . S
O671 Co642 2.113 . S
O671 C659 1.245 . S
Co672 H675 2.400 . S
Co672 O676 2.009 . S
Co672 O684 2.115 . S
Co672 O685 2.315 . S
Co672 O696 2.053 1_565 S
Co672 O699 2.094 . S
Co672 O702 2.122 . S
Co673 O676 2.126 . S
Co673 H677 2.388 . S
Co673 O678 2.053 . S
Co673 O681 2.047 . S
Co673 O687 2.113 . S
Co673 O698 2.063 . S
Co674 H675 2.388 . S
Co674 O676 2.053 . S
Co674 O678 2.126 . S
Co674 O683 2.063 1_565 S
Co674 O697 2.047 1_565 S
Co674 O703 2.113 1_565 S
H675 Co672 2.400 . S
H675 Co674 2.388 . S
H675 O676 0.760 . S
O676 Co672 2.009 . S
O676 Co673 2.126 . S
O676 Co674 2.053 . S
O676 H675 0.760 . S
H677 Co673 2.388 . S
H677 O678 0.760 . S
H677 Co679 2.400 . S
O678 Co673 2.053 . S
O678 Co674 2.126 . S
O678 H677 0.760 . S
O678 Co679 2.009 . S
Co679 H677 2.400 . S
Co679 O678 2.009 . S
Co679 O680 2.053 . S
Co679 O682 2.094 . S
Co679 O686 2.122 . S
Co679 O700 2.115 . S
Co679 O701 2.315 . S
O680 Co679 2.053 . S
O680 C692 1.259 . S
O681 Co673 2.047 . S
O681 C692 1.257 . S
O682 Co679 2.094 . S
O682 C693 1.253 . S
O683 Co674 2.063 1_545 S
O683 C693 1.268 1_545 S
O684 Co672 2.115 . S
O684 C694 1.281 . S
O685 Co672 2.315 . S
O685 C694 1.252 . S
O686 Co679 2.122 . S
O686 C695 1.272 . S
O687 Co673 2.113 . S
O687 C695 1.245 . S
C688 O696 1.259 . S
C688 O697 1.257 . S
C689 O698 1.268 . S
C689 O699 1.253 . S
C690 O700 1.281 . S
C690 O701 1.252 . S
C691 O702 1.272 1_545 S
C691 O703 1.245 . S
C692 O680 1.259 . S
C692 O681 1.257 . S
C693 O682 1.253 . S
C693 O683 1.268 1_565 S
C694 O684 1.281 . S
C694 O685 1.252 . S
C695 O686 1.272 . S
C695 O687 1.245 . S
O696 Co672 2.053 1_545 S
O696 C688 1.259 . S
O697 Co674 2.047 1_545 S
O697 C688 1.257 . S
O698 Co673 2.063 . S
O698 C689 1.268 . S
O699 Co672 2.094 . S
O699 C689 1.253 . S
O700 Co679 2.115 . S
O700 C690 1.281 . S
O701 Co679 2.315 . S
O701 C690 1.252 . S
O702 Co672 2.122 . S
O702 C691 1.272 1_565 S
O703 Co674 2.113 1_545 S
O703 C691 1.245 . S
Co704 H707 2.400 . S
Co704 O708 2.009 . S
Co704 O716 2.115 . S
Co704 O717 2.315 . S
Co704 O728 2.053 1_545 S
Co704 O731 2.094 . S
Co704 O734 2.122 . S
Co705 O708 2.126 . S
Co705 H709 2.388 . S
Co705 O710 2.053 . S
Co705 O713 2.047 . S
Co705 O719 2.113 . S
Co705 O730 2.063 . S
Co706 H707 2.388 . S
Co706 O708 2.053 . S
Co706 O710 2.126 . S
Co706 O715 2.063 1_545 S
Co706 O729 2.047 1_545 S
Co706 O735 2.113 1_545 S
H707 Co704 2.400 . S
H707 Co706 2.388 . S
H707 O708 0.760 . S
O708 Co704 2.009 . S
O708 Co705 2.126 . S
O708 Co706 2.053 . S
O708 H707 0.760 . S
H709 Co705 2.388 . S
H709 O710 0.760 . S
H709 Co711 2.400 . S
O710 Co705 2.053 . S
O710 Co706 2.126 . S
O710 H709 0.760 . S
O710 Co711 2.009 . S
Co711 H709 2.400 . S
Co711 O710 2.009 . S
Co711 O712 2.053 . S
Co711 O714 2.094 . S
Co711 O718 2.122 . S
Co711 O732 2.115 . S
Co711 O733 2.315 . S
O712 Co711 2.053 . S
O712 C724 1.259 . S
O713 Co705 2.047 . S
O713 C724 1.257 . S
O714 Co711 2.094 . S
O714 C725 1.253 . S
O715 Co706 2.063 1_565 S
O715 C725 1.268 1_565 S
O716 Co704 2.115 . S
O716 C726 1.281 . S
O717 Co704 2.315 . S
O717 C726 1.252 . S
O718 Co711 2.122 . S
O718 C727 1.272 . S
O719 Co705 2.113 . S
O719 C727 1.245 . S
C720 O728 1.259 . S
C720 O729 1.257 . S
C721 O730 1.268 . S
C721 O731 1.253 . S
C722 O732 1.281 . S
C722 O733 1.252 . S
C723 O734 1.272 1_565 S
C723 O735 1.245 . S
C724 O712 1.259 . S
C724 O713 1.257 . S
C725 O714 1.253 . S
C725 O715 1.268 1_545 S
C726 O716 1.281 . S
C726 O717 1.252 . S
C727 O718 1.272 . S
C727 O719 1.245 . S
O728 Co704 2.053 1_565 S
O728 C720 1.259 . S
O729 Co706 2.047 1_565 S
O729 C720 1.257 . S
O730 Co705 2.063 . S
O730 C721 1.268 . S
O731 Co704 2.094 . S
O731 C721 1.253 . S
O732 Co711 2.115 . S
O732 C722 1.281 . S
O733 Co711 2.315 . S
O733 C722 1.252 . S
O734 Co704 2.122 . S
O734 C723 1.272 1_545 S
O735 Co706 2.113 1_565 S
O735 C723 1.245 . S
Co736 H739 2.400 . S
Co736 O740 2.009 . S
Co736 O748 2.115 . S
Co736 O749 2.315 . S
Co736 O760 2.053 . S
Co736 O763 2.094 . S
Co736 O766 2.122 . S
Co737 O740 2.126 . S
Co737 H741 2.388 . S
Co737 O742 2.053 . S
Co737 O745 2.047 . S
Co737 O751 2.113 . S
Co737 O762 2.063 . S
Co738 H739 2.388 . S
Co738 O740 2.053 . S
Co738 O742 2.126 . S
Co738 O747 2.063 . S
Co738 O761 2.047 . S
Co738 O767 2.113 . S
H739 Co736 2.400 . S
H739 Co738 2.388 . S
H739 O740 0.760 . S
O740 Co736 2.009 . S
O740 Co737 2.126 . S
O740 Co738 2.053 . S
O740 H739 0.760 . S
H741 Co737 2.388 . S
H741 O742 0.760 . S
H741 Co743 2.400 . S
O742 Co737 2.053 . S
O742 Co738 2.126 . S
O742 H741 0.760 . S
O742 Co743 2.009 . S
Co743 H741 2.400 . S
Co743 O742 2.009 . S
Co743 O744 2.053 . S
Co743 O746 2.094 . S
Co743 O750 2.122 . S
Co743 O764 2.115 . S
Co743 O765 2.315 . S
O744 Co743 2.053 . S
O744 C756 1.259 . S
O745 Co737 2.047 . S
O745 C756 1.257 . S
O746 Co743 2.094 . S
O746 C757 1.253 . S
O747 Co738 2.063 . S
O747 C757 1.268 . S
O748 Co736 2.115 . S
O748 C758 1.281 . S
O749 Co736 2.315 . S
O749 C758 1.252 . S
O750 Co743 2.122 . S
O750 C759 1.272 . S
O751 Co737 2.113 . S
O751 C759 1.245 . S
C752 O760 1.259 . S
C752 O761 1.257 . S
C753 O762 1.268 . S
C753 O763 1.253 . S
C754 O764 1.281 . S
C754 O765 1.252 . S
C755 O766 1.272 . S
C755 O767 1.245 . S
C756 O744 1.259 . S
C756 O745 1.257 . S
C757 O746 1.253 . S
C757 O747 1.268 . S
C758 O748 1.281 . S
C758 O749 1.252 . S
C759 O750 1.272 . S
C759 O751 1.245 . S
O760 Co736 2.053 . S
O760 C752 1.259 . S
O761 Co738 2.047 . S
O761 C752 1.257 . S
O762 Co737 2.063 . S
O762 C753 1.268 . S
O763 Co736 2.094 . S
O763 C753 1.253 . S
O764 Co743 2.115 . S
O764 C754 1.281 . S
O765 Co743 2.315 . S
O765 C754 1.252 . S
O766 Co736 2.122 . S
O766 C755 1.272 . S
O767 Co738 2.113 . S
O767 C755 1.245 . S
C768 C769 1.387 . S
C768 H772 0.950 . S
C768 C777 1.390 . S
C769 C768 1.387 . S
C769 C771 1.387 . S
H770 C777 0.950 . S
C771 C769 1.387 . S
C771 C773 1.390 . S
C771 H775 0.950 . S
H772 C768 0.950 . S
C773 C771 1.390 . S
C773 C774 1.387 . S
C773 H776 0.950 . S
C774 C773 1.387 . S
C774 C777 1.387 . S
H775 C771 0.950 . S
H776 C773 0.950 . S
C777 C768 1.390 . S
C777 H770 0.950 . S
C777 C774 1.387 . S
C778 C779 1.387 . S
C778 H782 0.950 . S
C778 C787 1.390 . S
C779 C778 1.387 . S
C779 C781 1.387 . S
H780 C787 0.950 . S
C781 C779 1.387 . S
C781 C783 1.390 . S
C781 H785 0.950 . S
H782 C778 0.950 . S
C783 C781 1.390 . S
C783 C784 1.387 . S
C783 H786 0.950 . S
C784 C783 1.387 . S
C784 C787 1.387 . S
H785 C781 0.950 . S
H786 C783 0.950 . S
C787 C778 1.390 . S
C787 H780 0.950 . S
C787 C784 1.387 . S
C788 C789 1.387 . S
C788 H792 0.950 . S
C788 C797 1.390 . S
C789 C788 1.387 . S
C789 C791 1.387 . S
H790 C797 0.950 . S
C791 C789 1.387 . S
C791 C793 1.390 . S
C791 H795 0.950 . S
H792 C788 0.950 . S
C793 C791 1.390 . S
C793 C794 1.387 . S
C793 H796 0.950 . S
C794 C793 1.387 . S
C794 C797 1.387 . S
H795 C791 0.950 . S
H796 C793 0.950 . S
C797 C788 1.390 . S
C797 H790 0.950 . S
C797 C794 1.387 . S
C798 C799 1.387 . S
C798 H802 0.950 . S
C798 C807 1.390 . S
C799 C798 1.387 . S
C799 C801 1.387 . S
H800 C807 0.950 . S
C801 C799 1.387 . S
C801 C803 1.390 . S
C801 H805 0.950 . S
H802 C798 0.950 . S
C803 C801 1.390 . S
C803 C804 1.387 . S
C803 H806 0.950 . S
C804 C803 1.387 . S
C804 C807 1.387 . S
H805 C801 0.950 . S
H806 C803 0.950 . S
C807 C798 1.390 . S
C807 H800 0.950 . S
C807 C804 1.387 . S
C808 C809 1.387 . S
C808 H812 0.950 . S
C808 C817 1.390 . S
C809 C808 1.387 . S
C809 C811 1.387 . S
H810 C817 0.950 . S
C811 C809 1.387 . S
C811 C813 1.390 . S
C811 H815 0.950 . S
H812 C808 0.950 . S
C813 C811 1.390 . S
C813 C814 1.387 . S
C813 H816 0.950 . S
C814 C813 1.387 . S
C814 C817 1.387 . S
H815 C811 0.950 . S
H816 C813 0.950 . S
C817 C808 1.390 . S
C817 H810 0.950 . S
C817 C814 1.387 . S
C818 C819 1.387 . S
C818 H822 0.950 . S
C818 C827 1.390 . S
C819 C818 1.387 . S
C819 C821 1.387 . S
H820 C827 0.950 . S
C821 C819 1.387 . S
C821 C823 1.390 . S
C821 H825 0.967 . S
H822 C818 0.950 . S
C823 C821 1.390 . S
C823 C824 1.387 . S
C823 H826 0.950 . S
C824 C823 1.387 . S
C824 C827 1.387 . S
H825 C821 0.967 . S
H826 C823 0.950 . S
C827 C818 1.390 . S
C827 H820 0.950 . S
C827 C824 1.387 . S
C828 C829 1.387 . S
C828 H832 0.950 . S
C828 C837 1.390 . S
C829 C828 1.387 . S
C829 C831 1.387 . S
H830 C837 0.950 . S
C831 C829 1.387 . S
C831 C833 1.390 . S
C831 H835 0.950 . S
H832 C828 0.950 . S
C833 C831 1.390 . S
C833 C834 1.387 . S
C833 H836 0.950 . S
C834 C833 1.387 . S
C834 C837 1.387 . S
H835 C831 0.950 . S
H836 C833 0.950 . S
C837 C828 1.390 . S
C837 H830 0.950 . S
C837 C834 1.387 . S
C838 C839 1.387 . S
C838 H842 0.950 . S
C838 C847 1.390 . S
C839 C838 1.387 . S
C839 C841 1.387 . S
H840 C847 0.950 . S
C841 C839 1.387 . S
C841 C843 1.390 . S
C841 H845 0.950 . S
H842 C838 0.950 . S
C843 C841 1.390 . S
C843 C844 1.387 . S
C843 H846 0.950 . S
C844 C843 1.387 . S
C844 C847 1.387 . S
H845 C841 0.950 . S
H846 C843 0.950 . S
C847 C838 1.390 . S
C847 H840 0.950 . S
C847 C844 1.387 . S
C848 C849 1.387 . S
C848 H852 0.950 . S
C848 C857 1.390 . S
C849 C848 1.387 . S
C849 C851 1.387 . S
H850 C857 0.950 . S
C851 C849 1.387 . S
C851 C853 1.390 . S
C851 H855 0.950 . S
H852 C848 0.950 . S
C853 C851 1.390 . S
C853 C854 1.387 . S
C853 H856 0.950 . S
C854 C853 1.387 . S
C854 C857 1.387 . S
H855 C851 0.950 . S
H856 C853 0.950 . S
C857 C848 1.390 . S
C857 H850 0.950 . S
C857 C854 1.387 . S
C858 C859 1.387 . S
C858 H862 0.950 . S
C858 C867 1.390 . S
C859 C858 1.387 . S
C859 C861 1.387 . S
H860 C867 0.950 . S
C861 C859 1.387 . S
C861 C863 1.390 . S
C861 H865 0.950 . S
H862 C858 0.950 . S
C863 C861 1.390 . S
C863 C864 1.387 . S
C863 H866 0.950 . S
C864 C863 1.387 . S
C864 C867 1.387 . S
H865 C861 0.950 . S
H866 C863 0.950 . S
C867 C858 1.390 . S
C867 H860 0.950 . S
C867 C864 1.387 . S
C868 C869 1.387 . S
C868 H872 0.950 . S
C868 C877 1.390 . S
C869 C868 1.387 . S
C869 C871 1.387 . S
H870 C877 0.950 . S
C871 C869 1.387 . S
C871 C873 1.390 . S
C871 H875 0.950 . S
H872 C868 0.950 . S
C873 C871 1.390 . S
C873 C874 1.387 . S
C873 H876 0.950 . S
C874 C873 1.387 . S
C874 C877 1.387 . S
H875 C871 0.950 . S
H876 C873 0.950 . S
C877 C868 1.390 . S
C877 H870 0.950 . S
C877 C874 1.387 . S
C878 C879 1.387 . S
C878 H882 0.950 . S
C878 C887 1.390 . S
C879 C878 1.387 . S
C879 C881 1.387 . S
H880 C887 0.950 . S
C881 C879 1.387 . S
C881 C883 1.390 . S
C881 H885 0.950 . S
H882 C878 0.950 . S
C883 C881 1.390 . S
C883 C884 1.387 . S
C883 H886 0.950 . S
C884 C883 1.387 . S
C884 C887 1.387 . S
H885 C881 0.950 . S
H886 C883 0.950 . S
C887 C878 1.390 . S
C887 H880 0.950 . S
C887 C884 1.387 . S
C888 C889 1.387 . S
C888 H892 0.950 . S
C888 C897 1.390 . S
C889 C888 1.387 . S
C889 C891 1.387 . S
H890 C897 0.950 . S
C891 C889 1.387 . S
C891 C893 1.390 . S
C891 H895 0.950 . S
H892 C888 0.950 . S
C893 C891 1.390 . S
C893 C894 1.387 . S
C893 H896 0.950 . S
C894 C893 1.387 . S
C894 C897 1.387 . S
H895 C891 0.950 . S
H896 C893 0.950 . S
C897 C888 1.390 . S
C897 H890 0.950 . S
C897 C894 1.387 . S
C898 C899 1.387 . S
C898 H902 0.950 . S
C898 C907 1.390 . S
C899 C898 1.387 . S
C899 C901 1.387 . S
H900 C907 0.950 . S
C901 C899 1.387 . S
C901 C903 1.390 . S
C901 H905 0.950 . S
H902 C898 0.950 . S
C903 C901 1.390 . S
C903 C904 1.387 . S
C903 H906 0.950 . S
C904 C903 1.387 . S
C904 C907 1.387 . S
H905 C901 0.950 . S
H906 C903 0.950 . S
C907 C898 1.390 . S
C907 H900 0.950 . S
C907 C904 1.387 . S
C908 C909 1.387 . S
C908 H912 0.950 . S
C908 C917 1.390 . S
C909 C908 1.387 . S
C909 C911 1.387 . S
H910 C917 0.950 . S
C911 C909 1.387 . S
C911 C913 1.390 . S
C911 H915 0.950 . S
H912 C908 0.950 . S
C913 C911 1.390 . S
C913 C914 1.387 . S
C913 H916 0.950 . S
C914 C913 1.387 . S
C914 C917 1.387 . S
H915 C911 0.950 . S
H916 C913 0.950 . S
C917 C908 1.390 . S
C917 H910 0.950 . S
C917 C914 1.387 . S
C918 C919 1.387 . S
C918 H922 0.950 . S
C918 C927 1.390 . S
C919 C918 1.387 . S
C919 C921 1.387 . S
H920 C927 0.950 . S
C921 C919 1.387 . S
C921 C923 1.390 . S
C921 H925 0.950 . S
H922 C918 0.950 . S
C923 C921 1.390 . S
C923 C924 1.387 . S
C923 H926 0.950 . S
C924 C923 1.387 . S
C924 C927 1.387 . S
H925 C921 0.950 . S
H926 C923 0.950 . S
C927 C918 1.390 . S
C927 H920 0.950 . S
C927 C924 1.387 . S
C928 C929 1.387 . S
C928 H932 0.950 . S
C928 C937 1.390 . S
C929 C928 1.387 . S
C929 C931 1.387 . S
H930 C937 0.950 . S
C931 C929 1.387 . S
C931 C933 1.390 . S
C931 H935 0.950 1_565 S
H932 C928 0.950 . S
C933 C931 1.390 . S
C933 C934 1.387 . S
C933 H936 0.950 . S
C934 C933 1.387 . S
C934 C937 1.387 . S
H935 C931 0.950 1_545 S
H936 C933 0.950 . S
C937 C928 1.390 . S
C937 H930 0.950 . S
C937 C934 1.387 . S
C938 C939 1.387 . S
C938 H942 0.950 . S
C938 C947 1.390 . S
C939 C938 1.387 . S
C939 C941 1.387 . S
H940 C947 0.950 1_565 S
C941 C939 1.387 . S
C941 C943 1.390 . S
C941 H945 0.950 . S
H942 C938 0.950 . S
C943 C941 1.390 . S
C943 C944 1.387 . S
C943 H946 0.950 . S
C944 C943 1.387 . S
C944 C947 1.387 . S
H945 C941 0.950 . S
H946 C943 0.950 . S
C947 C938 1.390 . S
C947 H940 0.950 1_545 S
C947 C944 1.387 . S
C948 C949 1.387 . S
C948 H952 0.950 . S
C948 C957 1.390 . S
C949 C948 1.387 . S
C949 C951 1.387 . S
H950 C957 0.950 . S
C951 C949 1.387 . S
C951 C953 1.390 . S
C951 H955 0.950 . S
H952 C948 0.950 . S
C953 C951 1.390 . S
C953 C954 1.387 . S
C953 H956 0.950 . S
C954 C953 1.387 . S
C954 C957 1.387 . S
H955 C951 0.950 . S
H956 C953 0.950 . S
C957 C948 1.390 . S
C957 H950 0.950 . S
C957 C954 1.387 . S
C958 C959 1.387 . S
C958 H962 0.950 . S
C958 C967 1.390 . S
C959 C958 1.387 . S
C959 C961 1.387 . S
H960 C967 0.950 . S
C961 C959 1.387 . S
C961 C963 1.390 . S
C961 H965 0.950 . S
H962 C958 0.950 . S
C963 C961 1.390 . S
C963 C964 1.387 . S
C963 H966 0.950 . S
C964 C963 1.387 . S
C964 C967 1.387 . S
H965 C961 0.950 . S
H966 C963 0.950 . S
C967 C958 1.390 . S
C967 H960 0.950 . S
C967 C964 1.387 . S
C968 C969 1.387 . S
C968 H972 0.950 . S
C968 C977 1.390 . S
C969 C968 1.387 . S
C969 C971 1.387 . S
H970 C977 0.950 . S
C971 C969 1.387 . S
C971 C973 1.390 . S
C971 H975 0.950 . S
H972 C968 0.950 . S
C973 C971 1.390 . S
C973 C974 1.387 . S
C973 H976 0.950 . S
C974 C973 1.387 . S
C974 C977 1.387 . S
H975 C971 0.950 . S
H976 C973 0.950 . S
C977 C968 1.390 . S
C977 H970 0.950 . S
C977 C974 1.387 . S
C978 C979 1.387 . S
C978 H982 0.950 . S
C978 C987 1.390 . S
C979 C978 1.387 . S
C979 C981 1.387 . S
H980 C987 0.950 . S
C981 C979 1.387 . S
C981 C983 1.390 . S
C981 H985 0.950 . S
H982 C978 0.950 . S
C983 C981 1.390 . S
C983 C984 1.387 . S
C983 H986 0.950 . S
C984 C983 1.387 . S
C984 C987 1.387 . S
H985 C981 0.950 . S
H986 C983 0.950 . S
C987 C978 1.390 . S
C987 H980 0.950 . S
C987 C984 1.387 . S
C988 C989 1.387 . S
C988 H992 0.950 . S
C988 C997 1.390 . S
C989 C988 1.387 . S
C989 C991 1.387 . S
H990 C997 0.950 . S
C991 C989 1.387 . S
C991 C993 1.390 . S
C991 H995 0.950 . S
H992 C988 0.950 . S
C993 C991 1.390 . S
C993 C994 1.387 . S
C993 H996 0.950 . S
C994 C993 1.387 . S
C994 C997 1.387 . S
H995 C991 0.950 . S
H996 C993 0.950 . S
C997 C988 1.390 . S
C997 H990 0.950 . S
C997 C994 1.387 . S
C998 C999 1.387 . S
C998 H1002 0.950 . S
C998 C1007 1.390 . S
C999 C998 1.387 . S
C999 C1001 1.387 . S
H1000 C1007 0.950 . S
C1001 C999 1.387 . S
C1001 C1003 1.390 . S
C1001 H1005 0.950 . S
H1002 C998 0.950 . S
C1003 C1001 1.390 . S
C1003 C1004 1.387 . S
C1003 H1006 0.950 . S
C1004 C1003 1.387 . S
C1004 C1007 1.387 . S
H1005 C1001 0.950 . S
H1006 C1003 0.950 . S
C1007 C998 1.390 . S
C1007 H1000 0.950 . S
C1007 C1004 1.387 . S
C1008 C1009 1.387 . S
C1008 H1012 0.950 . S
C1008 C1017 1.390 . S
C1009 C1008 1.387 . S
C1009 C1011 1.387 . S
H1010 C1017 0.950 . S
C1011 C1009 1.387 . S
C1011 C1013 1.390 . S
C1011 H1015 0.950 . S
H1012 C1008 0.950 . S
C1013 C1011 1.390 . S
C1013 C1014 1.387 . S
C1013 H1016 0.950 . S
C1014 C1013 1.387 . S
C1014 C1017 1.387 . S
H1015 C1011 0.950 . S
H1016 C1013 0.950 . S
C1017 C1008 1.390 . S
C1017 H1010 0.950 . S
C1017 C1014 1.387 . S
C1018 C1019 1.387 . S
C1018 H1022 0.950 . S
C1018 C1027 1.390 . S
C1019 C1018 1.387 . S
C1019 C1021 1.387 . S
H1020 C1027 0.950 . S
C1021 C1019 1.387 . S
C1021 C1023 1.390 . S
C1021 H1025 0.950 . S
H1022 C1018 0.950 . S
C1023 C1021 1.390 . S
C1023 C1024 1.387 . S
C1023 H1026 0.950 . S
C1024 C1023 1.387 . S
C1024 C1027 1.387 . S
H1025 C1021 0.950 . S
H1026 C1023 0.950 . S
C1027 C1018 1.390 . S
C1027 H1020 0.950 . S
C1027 C1024 1.387 . S
C1028 C1029 1.387 . S
C1028 H1032 0.950 . S
C1028 C1037 1.390 . S
C1029 C1028 1.387 . S
C1029 C1031 1.387 . S
H1030 C1037 0.950 . S
C1031 C1029 1.387 . S
C1031 C1033 1.390 . S
C1031 H1035 0.950 . S
H1032 C1028 0.950 . S
C1033 C1031 1.390 . S
C1033 C1034 1.387 . S
C1033 H1036 0.950 . S
C1034 C1033 1.387 . S
C1034 C1037 1.387 . S
H1035 C1031 0.950 . S
H1036 C1033 0.950 . S
C1037 C1028 1.390 . S
C1037 H1030 0.950 . S
C1037 C1034 1.387 . S
C1038 C1039 1.387 . S
C1038 H1042 0.950 . S
C1038 C1047 1.390 . S
C1039 C1038 1.387 . S
C1039 C1041 1.387 . S
H1040 C1047 0.950 . S
C1041 C1039 1.387 . S
C1041 C1043 1.390 . S
C1041 H1045 0.950 . S
H1042 C1038 0.950 . S
C1043 C1041 1.390 . S
C1043 C1044 1.387 . S
C1043 H1046 0.950 . S
C1044 C1043 1.387 . S
C1044 C1047 1.387 . S
H1045 C1041 0.950 . S
H1046 C1043 0.950 . S
C1047 C1038 1.390 . S
C1047 H1040 0.950 . S
C1047 C1044 1.387 . S
C1048 C1049 1.387 . S
C1048 H1052 0.950 . S
C1048 C1057 1.390 . S
C1049 C1048 1.387 . S
C1049 C1051 1.387 . S
H1050 C1057 0.950 . S
C1051 C1049 1.387 . S
C1051 C1053 1.390 . S
C1051 H1055 0.950 . S
H1052 C1048 0.950 . S
C1053 C1051 1.390 . S
C1053 C1054 1.387 . S
C1053 H1056 0.950 . S
C1054 C1053 1.387 . S
C1054 C1057 1.387 . S
H1055 C1051 0.950 . S
H1056 C1053 0.950 . S
C1057 C1048 1.390 . S
C1057 H1050 0.950 . S
C1057 C1054 1.387 . S
C1058 C1059 1.387 . S
C1058 H1062 0.950 . S
C1058 C1067 1.390 . S
C1059 C1058 1.387 . S
C1059 C1061 1.387 . S
H1060 C1067 0.950 . S
C1061 C1059 1.387 . S
C1061 C1063 1.390 . S
C1061 H1065 0.950 . S
H1062 C1058 0.950 . S
C1063 C1061 1.390 . S
C1063 C1064 1.387 . S
C1063 H1066 0.950 . S
C1064 C1063 1.387 . S
C1064 C1067 1.387 . S
H1065 C1061 0.950 . S
H1066 C1063 0.950 . S
C1067 C1058 1.390 . S
C1067 H1060 0.950 . S
C1067 C1064 1.387 . S
C1068 C1069 1.387 . S
C1068 H1072 0.950 . S
C1068 C1077 1.390 . S
C1069 C1068 1.387 . S
C1069 C1071 1.387 . S
H1070 C1077 0.950 . S
C1071 C1069 1.387 . S
C1071 C1073 1.390 . S
C1071 H1075 0.950 . S
H1072 C1068 0.950 . S
C1073 C1071 1.390 . S
C1073 C1074 1.387 . S
C1073 H1076 0.950 . S
C1074 C1073 1.387 . S
C1074 C1077 1.387 . S
H1075 C1071 0.950 . S
H1076 C1073 0.950 . S
C1077 C1068 1.390 . S
C1077 H1070 0.950 . S
C1077 C1074 1.387 . S
C1078 C1079 1.387 . S
C1078 H1082 0.950 . S
C1078 C1087 1.390 . S
C1079 C1078 1.387 . S
C1079 C1081 1.387 . S
H1080 C1087 0.950 . S
C1081 C1079 1.387 . S
C1081 C1083 1.390 . S
C1081 H1085 0.950 . S
H1082 C1078 0.950 . S
C1083 C1081 1.390 . S
C1083 C1084 1.387 . S
C1083 H1086 0.950 . S
C1084 C1083 1.387 . S
C1084 C1087 1.387 . S
H1085 C1081 0.950 . S
H1086 C1083 0.950 . S
C1087 C1078 1.390 . S
C1087 H1080 0.950 . S
C1087 C1084 1.387 . S
C1088 C1089 1.387 . S
C1088 H1092 0.950 . S
C1088 C1097 1.390 . S
C1089 C1088 1.387 . S
C1089 C1091 1.387 . S
H1090 C1097 0.950 . S
C1091 C1089 1.387 . S
C1091 C1093 1.390 . S
C1091 H1095 0.950 . S
H1092 C1088 0.950 . S
C1093 C1091 1.390 . S
C1093 C1094 1.387 . S
C1093 H1096 0.950 . S
C1094 C1093 1.387 . S
C1094 C1097 1.387 . S
H1095 C1091 0.950 . S
H1096 C1093 0.950 . S
C1097 C1088 1.390 . S
C1097 H1090 0.950 . S
C1097 C1094 1.387 . S
C1098 C1099 1.387 . S
C1098 H1102 0.950 . S
C1098 C1107 1.390 . S
C1099 C1098 1.387 . S
C1099 C1101 1.387 . S
H1100 C1107 0.950 . S
C1101 C1099 1.387 . S
C1101 C1103 1.390 . S
C1101 H1105 0.950 . S
H1102 C1098 0.950 . S
C1103 C1101 1.390 . S
C1103 C1104 1.387 . S
C1103 H1106 0.950 . S
C1104 C1103 1.387 . S
C1104 C1107 1.387 . S
H1105 C1101 0.950 . S
H1106 C1103 0.950 . S
C1107 C1098 1.390 . S
C1107 H1100 0.950 . S
C1107 C1104 1.387 . S
C1108 C1109 1.387 . S
C1108 H1112 0.950 . S
C1108 C1117 1.390 . S
C1109 C1108 1.387 . S
C1109 C1111 1.387 . S
H1110 C1117 0.950 . S
C1111 C1109 1.387 . S
C1111 C1113 1.390 . S
C1111 H1115 0.950 . S
H1112 C1108 0.950 . S
C1113 C1111 1.390 . S
C1113 C1114 1.387 . S
C1113 H1116 0.950 . S
C1114 C1113 1.387 . S
C1114 C1117 1.387 . S
H1115 C1111 0.950 . S
H1116 C1113 0.950 . S
C1117 C1108 1.390 . S
C1117 H1110 0.950 . S
C1117 C1114 1.387 . S
C1118 C1119 1.387 . S
C1118 H1122 0.950 . S
C1118 C1127 1.390 . S
C1119 C1118 1.387 . S
C1119 C1121 1.387 . S
H1120 C1127 0.950 . S
C1121 C1119 1.387 . S
C1121 C1123 1.390 . S
C1121 H1125 0.950 . S
H1122 C1118 0.950 . S
C1123 C1121 1.390 . S
C1123 C1124 1.387 . S
C1123 H1126 0.950 . S
C1124 C1123 1.387 . S
C1124 C1127 1.387 . S
H1125 C1121 0.950 . S
H1126 C1123 0.950 . S
C1127 C1118 1.390 . S
C1127 H1120 0.950 . S
C1127 C1124 1.387 . S
C1128 C1129 1.387 . S
C1128 H1132 0.950 . S
C1128 C1137 1.390 . S
C1129 C1128 1.387 . S
C1129 C1131 1.387 . S
H1130 C1137 0.950 . S
C1131 C1129 1.387 . S
C1131 C1133 1.390 . S
C1131 H1135 0.950 . S
H1132 C1128 0.950 . S
C1133 C1131 1.390 . S
C1133 C1134 1.387 . S
C1133 H1136 0.950 . S
C1134 C1133 1.387 . S
C1134 C1137 1.387 . S
H1135 C1131 0.950 . S
H1136 C1133 0.950 . S
C1137 C1128 1.390 . S
C1137 H1130 0.950 . S
C1137 C1134 1.387 . S
C1138 C1139 1.387 . S
C1138 H1142 0.950 . S
C1138 C1147 1.390 . S
C1139 C1138 1.387 . S
C1139 C1141 1.387 . S
H1140 C1147 0.950 . S
C1141 C1139 1.387 . S
C1141 C1143 1.390 . S
C1141 H1145 0.950 . S
H1142 C1138 0.950 . S
C1143 C1141 1.390 . S
C1143 C1144 1.387 . S
C1143 H1146 0.950 . S
C1144 C1143 1.387 . S
C1144 C1147 1.387 . S
H1145 C1141 0.950 . S
H1146 C1143 0.950 . S
C1147 C1138 1.390 . S
C1147 H1140 0.950 . S
C1147 C1144 1.387 . S
C1148 C1149 1.387 . S
C1148 H1152 0.950 . S
C1148 C1157 1.390 . S
C1149 C1148 1.387 . S
C1149 C1151 1.387 . S
H1150 C1157 0.950 . S
C1151 C1149 1.387 . S
C1151 C1153 1.390 . S
C1151 H1155 0.950 . S
H1152 C1148 0.950 . S
C1153 C1151 1.390 . S
C1153 C1154 1.387 . S
C1153 H1156 0.950 . S
C1154 C1153 1.387 . S
C1154 C1157 1.387 . S
H1155 C1151 0.950 . S
H1156 C1153 0.950 . S
C1157 C1148 1.390 . S
C1157 H1150 0.950 . S
C1157 C1154 1.387 . S
C1158 C1159 1.387 . S
C1158 H1162 0.950 . S
C1158 C1167 1.390 . S
C1159 C1158 1.387 . S
C1159 C1161 1.387 . S
H1160 C1167 0.950 . S
C1161 C1159 1.387 . S
C1161 C1163 1.390 . S
C1161 H1165 0.950 . S
H1162 C1158 0.950 . S
C1163 C1161 1.390 . S
C1163 C1164 1.387 . S
C1163 H1166 0.950 . S
C1164 C1163 1.387 . S
C1164 C1167 1.387 . S
H1165 C1161 0.950 . S
H1166 C1163 0.950 . S
C1167 C1158 1.390 . S
C1167 H1160 0.950 . S
C1167 C1164 1.387 . S
C1168 C1169 1.387 . S
C1168 H1172 0.950 . S
C1168 C1177 1.390 . S
C1169 C1168 1.387 . S
C1169 C1171 1.387 . S
H1170 C1177 0.950 . S
C1171 C1169 1.387 . S
C1171 C1173 1.390 . S
C1171 H1175 0.950 . S
H1172 C1168 0.950 . S
C1173 C1171 1.390 . S
C1173 C1174 1.387 . S
C1173 H1176 0.950 . S
C1174 C1173 1.387 . S
C1174 C1177 1.387 . S
H1175 C1171 0.950 . S
H1176 C1173 0.950 . S
C1177 C1168 1.390 . S
C1177 H1170 0.950 . S
C1177 C1174 1.387 . S
C1178 C1179 1.387 . S
C1178 H1182 0.950 . S
C1178 C1187 1.390 . S
C1179 C1178 1.387 . S
C1179 C1181 1.387 . S
H1180 C1187 0.950 . S
C1181 C1179 1.387 . S
C1181 C1183 1.390 . S
C1181 H1185 0.950 . S
H1182 C1178 0.950 . S
C1183 C1181 1.390 . S
C1183 C1184 1.387 . S
C1183 H1186 0.950 . S
C1184 C1183 1.387 . S
C1184 C1187 1.387 . S
H1185 C1181 0.950 . S
H1186 C1183 0.950 . S
C1187 C1178 1.390 . S
C1187 H1180 0.950 . S
C1187 C1184 1.387 . S
C1188 C1189 1.387 . S
C1188 H1192 0.950 . S
C1188 C1197 1.390 . S
C1189 C1188 1.387 . S
C1189 C1191 1.387 . S
H1190 C1197 0.950 . S
C1191 C1189 1.387 . S
C1191 C1193 1.390 . S
C1191 H1195 0.950 . S
H1192 C1188 0.950 . S
C1193 C1191 1.390 . S
C1193 C1194 1.387 . S
C1193 H1196 0.950 . S
C1194 C1193 1.387 . S
C1194 C1197 1.387 . S
H1195 C1191 0.950 . S
H1196 C1193 0.950 . S
C1197 C1188 1.390 . S
C1197 H1190 0.950 . S
C1197 C1194 1.387 . S
C1198 C1199 1.387 . S
C1198 H1202 0.950 . S
C1198 C1207 1.390 . S
C1199 C1198 1.387 . S
C1199 C1201 1.387 . S
H1200 C1207 0.950 . S
C1201 C1199 1.387 . S
C1201 C1203 1.390 . S
C1201 H1205 0.950 . S
H1202 C1198 0.950 . S
C1203 C1201 1.390 . S
C1203 C1204 1.387 . S
C1203 H1206 0.950 . S
C1204 C1203 1.387 . S
C1204 C1207 1.387 . S
H1205 C1201 0.950 . S
H1206 C1203 0.950 . S
C1207 C1198 1.390 . S
C1207 H1200 0.950 . S
C1207 C1204 1.387 . S
C1208 C1209 1.387 . S
C1208 H1212 0.950 . S
C1208 C1217 1.390 . S
C1209 C1208 1.387 . S
C1209 C1211 1.387 . S
H1210 C1217 0.950 . S
C1211 C1209 1.387 . S
C1211 C1213 1.390 . S
C1211 H1215 0.950 . S
H1212 C1208 0.950 . S
C1213 C1211 1.390 . S
C1213 C1214 1.387 . S
C1213 H1216 0.950 . S
C1214 C1213 1.387 . S
C1214 C1217 1.387 . S
H1215 C1211 0.950 . S
H1216 C1213 0.950 . S
C1217 C1208 1.390 . S
C1217 H1210 0.950 . S
C1217 C1214 1.387 . S
C1218 C1219 1.387 . S
C1218 H1222 0.950 . S
C1218 C1227 1.390 . S
C1219 C1218 1.387 . S
C1219 C1221 1.387 . S
H1220 C1227 0.950 . S
C1221 C1219 1.387 . S
C1221 C1223 1.390 . S
C1221 H1225 0.950 . S
H1222 C1218 0.950 . S
C1223 C1221 1.390 . S
C1223 C1224 1.387 . S
C1223 H1226 0.950 . S
C1224 C1223 1.387 . S
C1224 C1227 1.387 . S
H1225 C1221 0.950 . S
H1226 C1223 0.950 . S
C1227 C1218 1.390 . S
C1227 H1220 0.950 . S
C1227 C1224 1.387 . S
C1228 C1229 1.387 . S
C1228 H1232 0.950 . S
C1228 C1237 1.390 . S
C1229 C1228 1.387 . S
C1229 C1231 1.387 . S
H1230 C1237 0.950 . S
C1231 C1229 1.387 . S
C1231 C1233 1.390 . S
C1231 H1235 0.950 . S
H1232 C1228 0.950 . S
C1233 C1231 1.390 . S
C1233 C1234 1.387 . S
C1233 H1236 0.950 . S
C1234 C1233 1.387 . S
C1234 C1237 1.387 . S
H1235 C1231 0.950 . S
H1236 C1233 0.950 . S
C1237 C1228 1.390 . S
C1237 H1230 0.950 . S
C1237 C1234 1.387 . S
C1238 C1239 1.387 . S
C1238 H1242 0.950 . S
C1238 C1247 1.390 . S
C1239 C1238 1.387 . S
C1239 C1241 1.387 . S
H1240 C1247 0.950 . S
C1241 C1239 1.387 . S
C1241 C1243 1.390 . S
C1241 H1245 0.950 . S
H1242 C1238 0.950 . S
C1243 C1241 1.390 . S
C1243 C1244 1.387 . S
C1243 H1246 0.950 . S
C1244 C1243 1.387 . S
C1244 C1247 1.387 . S
H1245 C1241 0.950 . S
H1246 C1243 0.950 . S
C1247 C1238 1.390 . S
C1247 H1240 0.950 . S
C1247 C1244 1.387 . S
C1248 C1249 1.387 . S
C1248 H1252 0.950 . S
C1248 C1257 1.390 . S
C1249 C1248 1.387 . S
C1249 C1251 1.387 . S
H1250 C1257 0.950 . S
C1251 C1249 1.387 . S
C1251 C1253 1.390 . S
C1251 H1255 0.950 . S
H1252 C1248 0.950 . S
C1253 C1251 1.390 . S
C1253 C1254 1.387 . S
C1253 H1256 0.950 . S
C1254 C1253 1.387 . S
C1254 C1257 1.387 . S
H1255 C1251 0.950 . S
H1256 C1253 0.950 . S
C1257 C1248 1.390 . S
C1257 H1250 0.950 . S
C1257 C1254 1.387 . S
C1258 C1259 1.387 . S
C1258 H1262 0.950 . S
C1258 C1267 1.390 . S
C1259 C1258 1.387 . S
C1259 C1261 1.387 . S
H1260 C1267 0.950 . S
C1261 C1259 1.387 . S
C1261 C1263 1.390 . S
C1261 H1265 0.950 . S
H1262 C1258 0.950 . S
C1263 C1261 1.390 . S
C1263 C1264 1.387 . S
C1263 H1266 0.950 1_554 S
C1264 C1263 1.387 . S
C1264 C1267 1.387 . S
H1265 C1261 0.950 . S
H1266 C1263 0.950 1_556 S
C1267 C1258 1.390 . S
C1267 H1260 0.950 . S
C1267 C1264 1.387 . S
C1268 C1269 1.387 . S
C1268 H1272 0.950 . S
C1268 C1277 1.390 . S
C1269 C1268 1.387 . S
C1269 C1271 1.387 . S
H1270 C1277 0.950 . S
C1271 C1269 1.387 . S
C1271 C1273 1.390 . S
C1271 H1275 0.950 . S
H1272 C1268 0.950 . S
C1273 C1271 1.390 . S
C1273 C1274 1.387 . S
C1273 H1276 0.950 . S
C1274 C1273 1.387 . S
C1274 C1277 1.387 . S
H1275 C1271 0.950 . S
H1276 C1273 0.950 . S
C1277 C1268 1.390 . S
C1277 H1270 0.950 . S
C1277 C1274 1.387 . S
C1278 C1279 1.387 . S
C1278 H1282 0.950 . S
C1278 C1287 1.390 . S
C1279 C1278 1.387 . S
C1279 C1281 1.387 . S
H1280 C1287 0.950 . S
C1281 C1279 1.387 . S
C1281 C1283 1.390 . S
C1281 H1285 0.950 1_556 S
H1282 C1278 0.950 . S
C1283 C1281 1.390 . S
C1283 C1284 1.387 . S
C1283 H1286 0.950 . S
C1284 C1283 1.387 . S
C1284 C1287 1.387 . S
H1285 C1281 0.950 1_554 S
H1286 C1283 0.950 . S
C1287 C1278 1.390 . S
C1287 H1280 0.950 . S
C1287 C1284 1.387 . S
C1288 C1289 1.387 . S
C1288 H1292 0.950 . S
C1288 C1297 1.390 . S
C1289 C1288 1.387 . S
C1289 C1291 1.387 . S
H1290 C1297 0.950 . S
C1291 C1289 1.387 . S
C1291 C1293 1.390 . S
C1291 H1295 0.950 . S
H1292 C1288 0.950 . S
C1293 C1291 1.390 . S
C1293 C1294 1.387 . S
C1293 H1296 0.950 . S
C1294 C1293 1.387 . S
C1294 C1297 1.387 . S
H1295 C1291 0.950 . S
H1296 C1293 0.950 . S
C1297 C1288 1.390 . S
C1297 H1290 0.950 . S
C1297 C1294 1.387 . S
C1298 C1299 1.387 . S
C1298 H1302 0.950 . S
C1298 C1307 1.390 . S
C1299 C1298 1.387 . S
C1299 C1301 1.387 . S
H1300 C1307 0.950 . S
C1301 C1299 1.387 . S
C1301 C1303 1.390 . S
C1301 H1305 0.950 . S
H1302 C1298 0.950 . S
C1303 C1301 1.390 . S
C1303 C1304 1.387 . S
C1303 H1306 0.950 . S
C1304 C1303 1.387 . S
C1304 C1307 1.387 . S
H1305 C1301 0.950 . S
H1306 C1303 0.950 . S
C1307 C1298 1.390 . S
C1307 H1300 0.950 . S
C1307 C1304 1.387 . S
C1308 C1309 1.387 . S
C1308 H1312 0.950 . S
C1308 C1317 1.390 . S
C1309 C1308 1.387 . S
C1309 C1311 1.387 . S
H1310 C1317 0.950 . S
C1311 C1309 1.387 . S
C1311 C1313 1.390 . S
C1311 H1315 0.950 . S
H1312 C1308 0.950 . S
C1313 C1311 1.390 . S
C1313 C1314 1.387 . S
C1313 H1316 0.950 1_455 S
C1314 C1313 1.387 . S
C1314 C1317 1.387 . S
H1315 C1311 0.950 . S
H1316 C1313 0.950 1_655 S
C1317 C1308 1.390 . S
C1317 H1310 0.950 . S
C1317 C1314 1.387 . S
C1318 C1319 1.387 . S
C1318 H1322 0.950 . S
C1318 C1327 1.390 . S
C1319 C1318 1.387 . S
C1319 C1321 1.387 . S
H1320 C1327 0.950 . S
C1321 C1319 1.387 . S
C1321 C1323 1.390 . S
C1321 H1325 0.950 . S
H1322 C1318 0.950 . S
C1323 C1321 1.390 . S
C1323 C1324 1.387 . S
C1323 H1326 0.950 . S
C1324 C1323 1.387 . S
C1324 C1327 1.387 . S
H1325 C1321 0.950 . S
H1326 C1323 0.950 . S
C1327 C1318 1.390 . S
C1327 H1320 0.950 . S
C1327 C1324 1.387 . S
C1328 C1329 1.387 . S
C1328 H1332 0.950 . S
C1328 C1337 1.390 . S
C1329 C1328 1.387 . S
C1329 C1331 1.387 . S
H1330 C1337 0.950 . S
C1331 C1329 1.387 . S
C1331 C1333 1.390 . S
C1331 H1335 0.950 . S
H1332 C1328 0.950 . S
C1333 C1331 1.390 . S
C1333 C1334 1.387 . S
C1333 H1336 0.950 . S
C1334 C1333 1.387 . S
C1334 C1337 1.387 . S
H1335 C1331 0.950 . S
H1336 C1333 0.950 . S
C1337 C1328 1.390 . S
C1337 H1330 0.950 . S
C1337 C1334 1.387 . S
C1338 C1339 1.387 . S
C1338 H1342 0.950 1_565 S
C1338 C1347 1.390 . S
C1339 C1338 1.387 . S
C1339 C1341 1.387 . S
H1340 C1347 0.950 . S
C1341 C1339 1.387 . S
C1341 C1343 1.390 . S
C1341 H1345 0.950 . S
H1342 C1338 0.950 1_545 S
C1343 C1341 1.390 . S
C1343 C1344 1.387 . S
C1343 H1346 0.950 . S
C1344 C1343 1.387 . S
C1344 C1347 1.387 . S
H1345 C1341 0.950 . S
H1346 C1343 0.950 . S
C1347 C1338 1.390 . S
C1347 H1340 0.950 . S
C1347 C1344 1.387 . S
C1348 C1349 1.387 . S
C1348 H1352 0.952 1_545 S
C1348 C1357 1.390 . S
C1349 C1348 1.387 . S
C1349 C1351 1.387 . S
H1350 C1357 0.950 1_565 S
C1351 C1349 1.387 . S
C1351 C1353 1.390 . S
C1351 H1355 0.950 . S
H1352 C1348 0.952 1_565 S
C1353 C1351 1.390 . S
C1353 C1354 1.387 . S
C1353 H1356 0.950 . S
C1354 C1353 1.387 . S
C1354 C1357 1.387 . S
H1355 C1351 0.950 . S
H1356 C1353 0.950 . S
C1357 C1348 1.390 . S
C1357 H1350 0.950 1_545 S
C1357 C1354 1.387 . S
C1358 C1359 1.387 . S
C1358 H1362 0.950 . S
C1358 C1367 1.390 . S
C1359 C1358 1.387 . S
C1359 C1361 1.387 . S
H1360 C1367 0.950 . S
C1361 C1359 1.387 . S
C1361 C1363 1.390 . S
C1361 H1365 0.950 . S
H1362 C1358 0.950 . S
C1363 C1361 1.390 . S
C1363 C1364 1.387 . S
C1363 H1366 0.950 . S
C1364 C1363 1.387 . S
C1364 C1367 1.387 . S
H1365 C1361 0.950 . S
H1366 C1363 0.950 . S
C1367 C1358 1.390 . S
C1367 H1360 0.950 . S
C1367 C1364 1.387 . S
C1368 C1369 1.387 . S
C1368 H1372 0.950 . S
C1368 C1377 1.390 . S
C1369 C1368 1.387 . S
C1369 C1371 1.387 . S
H1370 C1377 0.950 . S
C1371 C1369 1.387 . S
C1371 C1373 1.390 . S
C1371 H1375 0.950 . S
H1372 C1368 0.950 . S
C1373 C1371 1.390 . S
C1373 C1374 1.387 . S
C1373 H1376 0.950 . S
C1374 C1373 1.387 . S
C1374 C1377 1.387 . S
H1375 C1371 0.950 . S
H1376 C1373 0.950 . S
C1377 C1368 1.390 . S
C1377 H1370 0.950 . S
C1377 C1374 1.387 . S
C1378 C1379 1.387 . S
C1378 H1382 0.950 . S
C1378 C1387 1.390 . S
C1379 C1378 1.387 . S
C1379 C1381 1.387 . S
H1380 C1387 0.950 1_554 S
C1381 C1379 1.387 . S
C1381 C1383 1.390 . S
C1381 H1385 0.950 . S
H1382 C1378 0.950 . S
C1383 C1381 1.390 . S
C1383 C1384 1.387 . S
C1383 H1386 0.950 . S
C1384 C1383 1.387 . S
C1384 C1387 1.387 . S
H1385 C1381 0.950 . S
H1386 C1383 0.950 . S
C1387 C1378 1.390 . S
C1387 H1380 0.950 1_556 S
C1387 C1384 1.387 . S
C1388 C1389 1.387 . S
C1388 H1392 0.950 . S
C1388 C1397 1.390 . S
C1389 C1388 1.387 . S
C1389 C1391 1.387 . S
H1390 C1397 0.950 . S
C1391 C1389 1.387 . S
C1391 C1393 1.390 . S
C1391 H1395 0.950 . S
H1392 C1388 0.950 . S
C1393 C1391 1.390 . S
C1393 C1394 1.387 . S
C1393 H1396 0.950 . S
C1394 C1393 1.387 . S
C1394 C1397 1.387 . S
H1395 C1391 0.950 . S
H1396 C1393 0.950 . S
C1397 C1388 1.390 . S
C1397 H1390 0.950 . S
C1397 C1394 1.387 . S
C1398 C1399 1.387 . S
C1398 H1402 0.950 . S
C1398 C1407 1.390 . S
C1399 C1398 1.387 . S
C1399 C1401 1.387 . S
H1400 C1407 0.950 . S
C1401 C1399 1.387 . S
C1401 C1403 1.390 . S
C1401 H1405 0.950 . S
H1402 C1398 0.950 . S
C1403 C1401 1.390 . S
C1403 C1404 1.387 . S
C1403 H1406 0.950 1_554 S
C1404 C1403 1.387 . S
C1404 C1407 1.387 . S
H1405 C1401 0.950 . S
H1406 C1403 0.950 1_556 S
C1407 C1398 1.390 . S
C1407 H1400 0.950 . S
C1407 C1404 1.387 . S
C1408 C1409 1.387 . S
C1408 H1412 0.950 . S
C1408 C1417 1.390 . S
C1409 C1408 1.387 . S
C1409 C1411 1.387 . S
H1410 C1417 0.950 . S
C1411 C1409 1.387 . S
C1411 C1413 1.390 . S
C1411 H1415 0.950 . S
H1412 C1408 0.950 . S
C1413 C1411 1.390 . S
C1413 C1414 1.387 . S
C1413 H1416 0.950 . S
C1414 C1413 1.387 . S
C1414 C1417 1.387 . S
H1415 C1411 0.950 . S
H1416 C1413 0.950 . S
C1417 C1408 1.390 . S
C1417 H1410 0.950 . S
C1417 C1414 1.387 . S
C1418 C1419 1.387 . S
C1418 H1422 0.950 1_455 S
C1418 C1427 1.390 . S
C1419 C1418 1.387 . S
C1419 C1421 1.387 . S
H1420 C1427 0.950 . S
C1421 C1419 1.387 . S
C1421 C1423 1.390 . S
C1421 H1425 0.950 . S
H1422 C1418 0.950 1_655 S
C1423 C1421 1.390 . S
C1423 C1424 1.387 . S
C1423 H1426 0.950 . S
C1424 C1423 1.387 . S
C1424 C1427 1.387 . S
H1425 C1421 0.950 . S
H1426 C1423 0.950 . S
C1427 C1418 1.390 . S
C1427 H1420 0.950 . S
C1427 C1424 1.387 . S
C1428 C1429 1.387 . S
C1428 H1432 0.950 . S
C1428 C1437 1.390 . S
C1429 C1428 1.387 . S
C1429 C1431 1.387 . S
H1430 C1437 0.950 . S
C1431 C1429 1.387 . S
C1431 C1433 1.390 . S
C1431 H1435 0.950 . S
H1432 C1428 0.950 . S
C1433 C1431 1.390 . S
C1433 C1434 1.387 . S
C1433 H1436 0.950 . S
C1434 C1433 1.387 . S
C1434 C1437 1.387 . S
H1435 C1431 0.950 . S
H1436 C1433 0.950 . S
C1437 C1428 1.390 . S
C1437 H1430 0.950 . S
C1437 C1434 1.387 . S
C1438 C1439 1.387 . S
C1438 H1442 0.950 . S
C1438 C1447 1.390 . S
C1439 C1438 1.387 . S
C1439 C1441 1.387 . S
H1440 C1447 0.950 . S
C1441 C1439 1.387 . S
C1441 C1443 1.390 . S
C1441 H1445 0.950 . S
H1442 C1438 0.950 . S
C1443 C1441 1.390 . S
C1443 C1444 1.387 . S
C1443 H1446 0.950 . S
C1444 C1443 1.387 . S
C1444 C1447 1.387 . S
H1445 C1441 0.950 . S
H1446 C1443 0.950 . S
C1447 C1438 1.390 . S
C1447 H1440 0.950 . S
C1447 C1444 1.387 . S
C1448 C1449 1.387 . S
C1448 H1452 0.950 . S
C1448 C1457 1.390 . S
C1449 C1448 1.387 . S
C1449 C1451 1.387 . S
H1450 C1457 0.950 . S
C1451 C1449 1.387 . S
C1451 C1453 1.390 . S
C1451 H1455 0.950 . S
H1452 C1448 0.950 . S
C1453 C1451 1.390 . S
C1453 C1454 1.387 . S
C1453 H1456 0.950 . S
C1454 C1453 1.387 . S
C1454 C1457 1.387 . S
H1455 C1451 0.950 . S
H1456 C1453 0.950 . S
C1457 C1448 1.390 . S
C1457 H1450 0.950 . S
C1457 C1454 1.387 . S
C1458 C1459 1.387 . S
C1458 H1462 0.950 . S
C1458 C1467 1.390 . S
C1459 C1458 1.387 . S
C1459 C1461 1.387 . S
H1460 C1467 0.950 . S
C1461 C1459 1.387 . S
C1461 C1463 1.390 . S
C1461 H1465 0.950 . S
H1462 C1458 0.950 . S
C1463 C1461 1.390 . S
C1463 C1464 1.387 . S
C1463 H1466 0.950 1_545 S
C1464 C1463 1.387 . S
C1464 C1467 1.387 . S
H1465 C1461 0.950 . S
H1466 C1463 0.950 1_565 S
C1467 C1458 1.390 . S
C1467 H1460 0.950 . S
C1467 C1464 1.387 . S
C1468 C1469 1.387 . S
C1468 H1472 0.950 . S
C1468 C1477 1.390 . S
C1469 C1468 1.387 . S
C1469 C1471 1.387 . S
H1470 C1477 0.950 1_545 S
C1471 C1469 1.387 . S
C1471 C1473 1.390 . S
C1471 H1475 0.950 . S
H1472 C1468 0.950 . S
C1473 C1471 1.390 . S
C1473 C1474 1.387 . S
C1473 H1476 0.950 . S
C1474 C1473 1.387 . S
C1474 C1477 1.387 . S
H1475 C1471 0.950 . S
H1476 C1473 0.950 . S
C1477 C1468 1.390 . S
C1477 H1470 0.950 1_565 S
C1477 C1474 1.387 . S
C1478 C1479 1.387 . S
C1478 H1482 0.950 . S
C1478 C1487 1.390 . S
C1479 C1478 1.387 . S
C1479 C1481 1.387 . S
H1480 C1487 0.950 . S
C1481 C1479 1.387 . S
C1481 C1483 1.390 . S
C1481 H1485 0.950 . S
H1482 C1478 0.950 . S
C1483 C1481 1.390 . S
C1483 C1484 1.387 . S
C1483 H1486 0.950 . S
C1484 C1483 1.387 . S
C1484 C1487 1.387 . S
H1485 C1481 0.950 . S
H1486 C1483 0.950 . S
C1487 C1478 1.390 . S
C1487 H1480 0.950 . S
C1487 C1484 1.387 . S
C1488 C1489 1.387 . S
C1488 H1492 0.950 . S
C1488 C1497 1.390 . S
C1489 C1488 1.387 . S
C1489 C1491 1.387 . S
H1490 C1497 0.950 . S
C1491 C1489 1.387 . S
C1491 C1493 1.390 . S
C1491 H1495 0.950 . S
H1492 C1488 0.950 . S
C1493 C1491 1.390 . S
C1493 C1494 1.387 . S
C1493 H1496 0.950 . S
C1494 C1493 1.387 . S
C1494 C1497 1.387 . S
H1495 C1491 0.950 . S
H1496 C1493 0.950 . S
C1497 C1488 1.390 . S
C1497 H1490 0.950 . S
C1497 C1494 1.387 . S
C1498 C1499 1.387 . S
C1498 H1502 0.950 . S
C1498 C1507 1.390 . S
C1499 C1498 1.387 . S
C1499 C1501 1.387 . S
H1500 C1507 0.950 . S
C1501 C1499 1.387 . S
C1501 C1503 1.390 . S
C1501 H1505 0.950 . S
H1502 C1498 0.950 . S
C1503 C1501 1.390 . S
C1503 C1504 1.387 . S
C1503 H1506 0.950 1_554 S
C1504 C1503 1.387 . S
C1504 C1507 1.387 . S
H1505 C1501 0.950 . S
H1506 C1503 0.950 1_556 S
C1507 C1498 1.390 . S
C1507 H1500 0.950 . S
C1507 C1504 1.387 . S
C1508 C1509 1.387 . S
C1508 H1512 0.950 . S
C1508 C1517 1.390 . S
C1509 C1508 1.387 . S
C1509 C1511 1.387 . S
H1510 C1517 0.950 . S
C1511 C1509 1.387 . S
C1511 C1513 1.390 . S
C1511 H1515 0.950 . S
H1512 C1508 0.950 . S
C1513 C1511 1.390 . S
C1513 C1514 1.387 . S
C1513 H1516 0.950 . S
C1514 C1513 1.387 . S
C1514 C1517 1.387 . S
H1515 C1511 0.950 . S
H1516 C1513 0.950 . S
C1517 C1508 1.390 . S
C1517 H1510 0.950 . S
C1517 C1514 1.387 . S
C1518 C1519 1.387 . S
C1518 H1522 0.950 . S
C1518 C1527 1.390 . S
C1519 C1518 1.387 . S
C1519 C1521 1.387 . S
H1520 C1527 0.950 1_554 S
C1521 C1519 1.387 . S
C1521 C1523 1.390 . S
C1521 H1525 0.950 . S
H1522 C1518 0.950 . S
C1523 C1521 1.390 . S
C1523 C1524 1.387 . S
C1523 H1526 0.950 . S
C1524 C1523 1.387 . S
C1524 C1527 1.387 . S
H1525 C1521 0.950 . S
H1526 C1523 0.950 . S
C1527 C1518 1.390 . S
C1527 H1520 0.950 1_556 S
C1527 C1524 1.387 . S
C1528 C1529 1.387 . S
C1528 H1532 0.950 . S
C1528 C1537 1.390 . S
C1529 C1528 1.387 . S
C1529 C1531 1.387 . S
H1530 C1537 0.950 . S
C1531 C1529 1.387 . S
C1531 C1533 1.390 . S
C1531 H1535 0.950 . S
H1532 C1528 0.950 . S
C1533 C1531 1.390 . S
C1533 C1534 1.387 . S
C1533 H1536 0.950 . S
C1534 C1533 1.387 . S
C1534 C1537 1.387 . S
H1535 C1531 0.950 . S
H1536 C1533 0.950 . S
C1537 C1528 1.390 . S
C1537 H1530 0.950 . S
C1537 C1534 1.387 . S
C1538 C1539 1.387 . S
C1538 H1542 0.950 . S
C1538 C1547 1.390 . S
C1539 C1538 1.387 . S
C1539 C1541 1.387 . S
H1540 C1547 0.950 . S
C1541 C1539 1.387 . S
C1541 C1543 1.390 . S
C1541 H1545 0.950 . S
H1542 C1538 0.950 . S
C1543 C1541 1.390 . S
C1543 C1544 1.387 . S
C1543 H1546 0.950 . S
C1544 C1543 1.387 . S
C1544 C1547 1.387 . S
H1545 C1541 0.950 . S
H1546 C1543 0.950 . S
C1547 C1538 1.390 . S
C1547 H1540 0.950 . S
C1547 C1544 1.387 . S
C1548 C1549 1.387 . S
C1548 H1552 0.950 . S
C1548 C1557 1.390 . S
C1549 C1548 1.387 . S
C1549 C1551 1.387 . S
H1550 C1557 0.950 . S
C1551 C1549 1.387 . S
C1551 C1553 1.390 . S
C1551 H1555 0.950 . S
H1552 C1548 0.950 . S
C1553 C1551 1.390 . S
C1553 C1554 1.387 . S
C1553 H1556 0.950 . S
C1554 C1553 1.387 . S
C1554 C1557 1.387 . S
H1555 C1551 0.950 . S
H1556 C1553 0.950 . S
C1557 C1548 1.390 . S
C1557 H1550 0.950 . S
C1557 C1554 1.387 . S
C1558 C1559 1.387 . S
C1558 H1562 0.950 . S
C1558 C1567 1.390 . S
C1559 C1558 1.387 . S
C1559 C1561 1.387 . S
H1560 C1567 0.950 . S
C1561 C1559 1.387 . S
C1561 C1563 1.390 . S
C1561 H1565 0.950 . S
H1562 C1558 0.950 . S
C1563 C1561 1.390 . S
C1563 C1564 1.387 . S
C1563 H1566 0.950 . S
C1564 C1563 1.387 . S
C1564 C1567 1.387 . S
H1565 C1561 0.950 . S
H1566 C1563 0.950 . S
C1567 C1558 1.390 . S
C1567 H1560 0.950 . S
C1567 C1564 1.387 . S
C1568 C1569 1.387 . S
C1568 H1572 0.950 . S
C1568 C1577 1.390 . S
C1569 C1568 1.387 . S
C1569 C1571 1.387 . S
H1570 C1577 0.950 . S
C1571 C1569 1.387 . S
C1571 C1573 1.390 . S
C1571 H1575 0.950 . S
H1572 C1568 0.950 . S
C1573 C1571 1.390 . S
C1573 C1574 1.387 . S
C1573 H1576 0.950 . S
C1574 C1573 1.387 . S
C1574 C1577 1.387 . S
H1575 C1571 0.950 . S
H1576 C1573 0.950 . S
C1577 C1568 1.390 . S
C1577 H1570 0.950 . S
C1577 C1574 1.387 . S
C1578 C1579 1.387 . S
C1578 H1582 0.950 . S
C1578 C1587 1.390 . S
C1579 C1578 1.387 . S
C1579 C1581 1.387 . S
H1580 C1587 0.950 1_545 S
C1581 C1579 1.387 . S
C1581 C1583 1.390 . S
C1581 H1585 0.950 . S
H1582 C1578 0.950 . S
C1583 C1581 1.390 . S
C1583 C1584 1.387 . S
C1583 H1586 0.950 . S
C1584 C1583 1.387 . S
C1584 C1587 1.387 . S
H1585 C1581 0.950 . S
H1586 C1583 0.950 . S
C1587 C1578 1.390 . S
C1587 H1580 0.950 1_565 S
C1587 C1584 1.387 . S
C1588 C1589 1.387 . S
C1588 H1592 0.950 1_545 S
C1588 C1597 1.390 . S
C1589 C1588 1.387 . S
C1589 C1591 1.387 . S
H1590 C1597 0.950 . S
C1591 C1589 1.387 . S
C1591 C1593 1.390 . S
C1591 H1595 0.950 . S
H1592 C1588 0.950 1_565 S
C1593 C1591 1.390 . S
C1593 C1594 1.387 . S
C1593 H1596 0.950 . S
C1594 C1593 1.387 . S
C1594 C1597 1.387 . S
H1595 C1591 0.950 . S
H1596 C1593 0.950 . S
C1597 C1588 1.390 . S
C1597 H1590 0.950 . S
C1597 C1594 1.387 . S
C1598 C1599 1.387 . S
C1598 H1602 0.950 . S
C1598 C1607 1.390 . S
C1599 C1598 1.387 . S
C1599 C1601 1.387 . S
H1600 C1607 0.950 . S
C1601 C1599 1.387 . S
C1601 C1603 1.390 . S
C1601 H1605 0.950 . S
H1602 C1598 0.950 . S
C1603 C1601 1.390 . S
C1603 C1604 1.387 . S
C1603 H1606 0.950 . S
C1604 C1603 1.387 . S
C1604 C1607 1.387 . S
H1605 C1601 0.950 . S
H1606 C1603 0.950 . S
C1607 C1598 1.390 . S
C1607 H1600 0.950 . S
C1607 C1604 1.387 . S
C1608 C1609 1.387 . S
C1608 H1612 0.950 . S
C1608 C1617 1.390 . S
C1609 C1608 1.387 . S
C1609 C1611 1.387 . S
H1610 C1617 0.950 . S
C1611 C1609 1.387 . S
C1611 C1613 1.390 . S
C1611 H1615 0.950 . S
H1612 C1608 0.950 . S
C1613 C1611 1.390 . S
C1613 C1614 1.387 . S
C1613 H1616 0.950 . S
C1614 C1613 1.387 . S
C1614 C1617 1.387 . S
H1615 C1611 0.950 . S
H1616 C1613 0.950 . S
C1617 C1608 1.390 . S
C1617 H1610 0.950 . S
C1617 C1614 1.387 . S
C1618 C1619 1.387 . S
C1618 H1622 0.950 . S
C1618 C1627 1.390 . S
C1619 C1618 1.387 . S
C1619 C1621 1.387 . S
H1620 C1627 0.950 . S
C1621 C1619 1.387 . S
C1621 C1623 1.390 . S
C1621 H1625 0.950 . S
H1622 C1618 0.950 . S
C1623 C1621 1.390 . S
C1623 C1624 1.387 . S
C1623 H1626 0.950 . S
C1624 C1623 1.387 . S
C1624 C1627 1.387 . S
H1625 C1621 0.950 . S
H1626 C1623 0.950 . S
C1627 C1618 1.390 . S
C1627 H1620 0.950 . S
C1627 C1624 1.387 . S
C1628 C1629 1.387 . S
C1628 H1632 0.950 . S
C1628 C1637 1.390 . S
C1629 C1628 1.387 . S
C1629 C1631 1.387 . S
H1630 C1637 0.950 . S
C1631 C1629 1.387 . S
C1631 C1633 1.390 . S
C1631 H1635 0.950 . S
H1632 C1628 0.950 . S
C1633 C1631 1.390 . S
C1633 C1634 1.387 . S
C1633 H1636 0.950 . S
C1634 C1633 1.387 . S
C1634 C1637 1.387 . S
H1635 C1631 0.950 . S
H1636 C1633 0.950 . S
C1637 C1628 1.390 . S
C1637 H1630 0.950 . S
C1637 C1634 1.387 . S
C1638 C1639 1.387 . S
C1638 H1642 0.950 . S
C1638 C1647 1.390 . S
C1639 C1638 1.387 . S
C1639 C1641 1.387 . S
H1640 C1647 0.950 1_556 S
C1641 C1639 1.387 . S
C1641 C1643 1.390 . S
C1641 H1645 0.950 . S
H1642 C1638 0.950 . S
C1643 C1641 1.390 . S
C1643 C1644 1.387 . S
C1643 H1646 0.950 . S
C1644 C1643 1.387 . S
C1644 C1647 1.387 . S
H1645 C1641 0.950 . S
H1646 C1643 0.950 . S
C1647 C1638 1.390 . S
C1647 H1640 0.950 1_554 S
C1647 C1644 1.387 . S
C1648 C1649 1.387 . S
C1648 H1652 0.950 . S
C1648 C1657 1.390 . S
C1649 C1648 1.387 . S
C1649 C1651 1.387 . S
H1650 C1657 0.950 . S
C1651 C1649 1.387 . S
C1651 C1653 1.390 . S
C1651 H1655 0.950 . S
H1652 C1648 0.950 . S
C1653 C1651 1.390 . S
C1653 C1654 1.387 . S
C1653 H1656 0.950 . S
C1654 C1653 1.387 . S
C1654 C1657 1.387 . S
H1655 C1651 0.950 . S
H1656 C1653 0.950 . S
C1657 C1648 1.390 . S
C1657 H1650 0.950 . S
C1657 C1654 1.387 . S
C1658 C1659 1.387 . S
C1658 H1662 0.950 1_455 S
C1658 C1667 1.390 . S
C1659 C1658 1.387 . S
C1659 C1661 1.387 . S
H1660 C1667 0.950 . S
C1661 C1659 1.387 . S
C1661 C1663 1.390 . S
C1661 H1665 0.950 . S
H1662 C1658 0.950 1_655 S
C1663 C1661 1.390 . S
C1663 C1664 1.387 . S
C1663 H1666 0.950 . S
C1664 C1663 1.387 . S
C1664 C1667 1.387 . S
H1665 C1661 0.950 . S
H1666 C1663 0.950 . S
C1667 C1658 1.390 . S
C1667 H1660 0.950 . S
C1667 C1664 1.387 . S
C1668 C1669 1.387 . S
C1668 H1672 0.950 . S
C1668 C1677 1.390 . S
C1669 C1668 1.387 . S
C1669 C1671 1.387 . S
H1670 C1677 0.950 . S
C1671 C1669 1.387 . S
C1671 C1673 1.390 . S
C1671 H1675 0.950 . S
H1672 C1668 0.950 . S
C1673 C1671 1.390 . S
C1673 C1674 1.387 . S
C1673 H1676 0.950 . S
C1674 C1673 1.387 . S
C1674 C1677 1.387 . S
H1675 C1671 0.950 . S
H1676 C1673 0.950 . S
C1677 C1668 1.390 . S
C1677 H1670 0.950 . S
C1677 C1674 1.387 . S
C1678 C1679 1.387 . S
C1678 H1682 0.950 . S
C1678 C1687 1.390 . S
C1679 C1678 1.387 . S
C1679 C1681 1.387 . S
H1680 C1687 0.950 . S
C1681 C1679 1.387 . S
C1681 C1683 1.390 . S
C1681 H1685 0.950 . S
H1682 C1678 0.950 . S
C1683 C1681 1.390 . S
C1683 C1684 1.387 . S
C1683 H1686 0.950 . S
C1684 C1683 1.387 . S
C1684 C1687 1.387 . S
H1685 C1681 0.950 . S
H1686 C1683 0.950 . S
C1687 C1678 1.390 . S
C1687 H1680 0.950 . S
C1687 C1684 1.387 . S
C1688 C1689 1.387 . S
C1688 H1692 0.950 . S
C1688 C1697 1.390 . S
C1689 C1688 1.387 . S
C1689 C1691 1.387 . S
H1690 C1697 0.950 . S
C1691 C1689 1.387 . S
C1691 C1693 1.390 . S
C1691 H1695 0.950 . S
H1692 C1688 0.950 . S
C1693 C1691 1.390 . S
C1693 C1694 1.387 . S
C1693 H1696 0.950 . S
C1694 C1693 1.387 . S
C1694 C1697 1.387 . S
H1695 C1691 0.950 . S
H1696 C1693 0.950 . S
C1697 C1688 1.390 . S
C1697 H1690 0.950 . S
C1697 C1694 1.387 . S
C1698 C1699 1.387 . S
C1698 H1702 0.950 . S
C1698 C1707 1.390 . S
C1699 C1698 1.387 . S
C1699 C1701 1.387 . S
H1700 C1707 0.950 . S
C1701 C1699 1.387 . S
C1701 C1703 1.390 . S
C1701 H1705 0.950 . S
H1702 C1698 0.950 . S
C1703 C1701 1.390 . S
C1703 C1704 1.387 . S
C1703 H1706 0.950 . S
C1704 C1703 1.387 . S
C1704 C1707 1.387 . S
H1705 C1701 0.950 . S
H1706 C1703 0.950 . S
C1707 C1698 1.390 . S
C1707 H1700 0.950 . S
C1707 C1704 1.387 . S
C1708 C1709 1.387 . S
C1708 H1712 0.950 1_565 S
C1708 C1717 1.390 . S
C1709 C1708 1.387 . S
C1709 C1711 1.387 . S
H1710 C1717 0.950 . S
C1711 C1709 1.387 . S
C1711 C1713 1.390 . S
C1711 H1715 0.950 . S
H1712 C1708 0.950 1_545 S
C1713 C1711 1.390 . S
C1713 C1714 1.387 . S
C1713 H1716 0.950 . S
C1714 C1713 1.387 . S
C1714 C1717 1.387 . S
H1715 C1711 0.950 . S
H1716 C1713 0.950 . S
C1717 C1708 1.390 . S
C1717 H1710 0.950 . S
C1717 C1714 1.387 . S
C1718 C1719 1.387 . S
C1718 H1722 0.950 . S
C1718 C1727 1.390 . S
C1719 C1718 1.387 . S
C1719 C1721 1.387 . S
H1720 C1727 0.950 . S
C1721 C1719 1.387 . S
C1721 C1723 1.390 . S
C1721 H1725 0.950 . S
H1722 C1718 0.950 . S
C1723 C1721 1.390 . S
C1723 C1724 1.387 . S
C1723 H1726 0.950 . S
C1724 C1723 1.387 . S
C1724 C1727 1.387 . S
H1725 C1721 0.950 . S
H1726 C1723 0.950 . S
C1727 C1718 1.390 . S
C1727 H1720 0.950 . S
C1727 C1724 1.387 . S
C769 C598 1.241 . S
C774 C21 1.226 . S
C779 C53 1.226 . S
C784 C630 1.242 . S
C789 C534 1.241 1_545 S
C794 C85 1.228 . S
C799 C117 1.225 . S
C804 C566 1.241 1_565 S
C809 C726 1.242 . S
C814 C149 1.227 . S
C819 C694 1.239 1_556 S
C824 C181 1.224 . S
C829 C758 1.243 . S
C834 C213 1.229 . S
C839 C662 1.243 1_554 S
C844 C245 1.227 . S
C849 C277 1.227 . S
C854 C438 1.240 . S
C859 C502 1.240 1_655 S
C864 C309 1.225 . S
C869 C341 1.226 . S
C874 C470 1.242 . S
C879 C406 1.240 1_455 S
C884 C373 1.227 . S
C889 C210 1.241 . S
C894 C401 1.225 . S
C899 C242 1.241 . S
C904 C433 1.226 . S
C909 C146 1.242 1_565 S
C914 C465 1.229 . S
C919 C497 1.228 . S
C924 C178 1.241 1_545 S
C929 C338 1.243 . S
C934 C529 1.229 . S
C939 C561 1.224 . S
C944 C306 1.238 1_554 S
C949 C370 1.239 . S
C954 C593 1.225 . S
C959 C274 1.238 1_556 S
C964 C625 1.224 . S
C969 C657 1.227 . S
C974 C50 1.242 . S
C979 C114 1.240 1_455 S
C984 C689 1.227 . S
C989 C721 1.226 . S
C994 C82 1.240 . S
C999 C753 1.229 . S
C1004 C18 1.243 1_655 S
C1009 C278 2.007 . S
C1014 C16 2.134 . S
C1019 C48 2.134 . S
C1024 C374 2.007 . S
C1029 C80 2.133 . S
C1034 C310 2.005 . S
C1039 C112 2.133 . S
C1044 C342 2.005 . S
C1049 C144 2.132 . S
C1054 C22 2.003 . S
C1059 C176 2.132 . S
C1064 C54 2.004 . S
C1069 C86 2.006 . S
C1074 C208 2.134 . S
C1079 C240 2.132 . S
C1084 C118 2.004 . S
C1089 C150 2.003 . S
C1094 C272 2.132 . S
C1099 C304 2.132 . S
C1104 C214 2.003 . S
C1109 C246 2.007 . S
C1114 C336 2.134 . S
C1119 C182 2.007 . S
C1124 C368 2.134 . S
C1129 C658 2.007 . S
C1134 C404 2.134 . S
C1139 C436 2.133 . S
C1144 C754 2.004 . S
C1149 C690 2.003 . S
C1154 C468 2.132 . S
C1159 C500 2.133 . S
C1164 C722 2.004 . S
C1169 C402 2.006 . S
C1174 C532 2.134 . S
C1179 C434 2.007 . S
C1184 C564 2.134 . S
C1189 C596 2.134 . S
C1194 C466 2.006 . S
C1199 C498 2.004 . S
C1204 C628 2.132 . S
C1209 C530 2.003 . S
C1214 C660 2.132 . S
C1219 C692 2.132 . S
C1224 C594 2.003 . S
C1229 C724 2.132 . S
C1234 C626 2.003 . S
C1239 C756 2.132 . S
C1244 C562 2.004 . S
C1249 C23 1.312 . S
C1254 C372 1.265 . S
C1259 C276 1.266 . S
C1264 C55 1.310 . S
C1269 C87 1.310 . S
C1274 C340 1.267 . S
C1279 C119 1.309 . S
C1284 C308 1.266 . S
C1289 C84 1.266 . S
C1294 C151 1.310 . S
C1299 C116 1.264 . S
C1304 C183 1.310 . S
C1309 C20 1.267 . S
C1314 C215 1.310 . S
C1319 C247 1.310 . S
C1324 C52 1.263 . S
C1329 C244 1.266 . S
C1334 C279 1.310 . S
C1339 C311 1.312 . S
C1344 C180 1.262 . S
C1349 C148 1.262 . S
C1354 C343 1.312 . S
C1359 C375 1.309 . S
C1364 C212 1.265 . S
C1369 C752 1.262 . S
C1374 C403 1.312 . S
C1379 C656 1.266 . S
C1384 C435 1.311 . S
C1389 C720 1.263 . S
C1394 C467 1.310 . S
C1399 C688 1.262 . S
C1404 C499 1.312 . S
C1409 C531 1.312 . S
C1414 C464 1.265 . S
C1419 C563 1.311 . S
C1424 C496 1.266 . S
C1429 C595 1.310 . S
C1434 C400 1.263 . S
C1439 C627 1.312 . S
C1444 C432 1.265 . S
C1449 C624 1.267 . S
C1454 C659 1.310 . S
C1459 C560 1.263 . S
C1464 C691 1.312 . S
C1469 C528 1.266 . S
C1474 C723 1.309 . S
C1479 C592 1.263 . S
C1484 C755 1.312 . S
C1489 C727 2.314 . S
C1494 C17 2.312 . S
C1499 C695 2.314 . S
C1504 C49 2.311 1_554 S
C1509 C81 2.312 . S
C1514 C759 2.314 . S
C1519 C663 2.314 . S
C1524 C113 2.312 1_556 S
C1529 C145 2.311 . S
C1534 C439 2.314 . S
C1539 C407 2.314 . S
C1544 C177 2.312 1_655 S
C1549 C209 2.312 1_455 S
C1554 C503 2.314 . S
C1559 C241 2.312 . S
C1564 C471 2.314 . S
C1569 C599 2.314 . S
C1574 C273 2.312 . S
C1579 C535 2.314 . S
C1584 C305 2.312 1_565 S
C1589 C337 2.312 1_545 S
C1594 C567 2.314 . S
C1599 C369 2.311 . S
C1604 C631 2.314 . S
C1609 C405 2.312 . S
C1614 C339 2.314 . S
C1619 C437 2.312 1_556 S
C1624 C307 2.314 . S
C1629 C371 2.314 . S
C1634 C469 2.311 . S
C1639 C275 2.314 . S
C1644 C501 2.311 1_554 S
C1649 C533 2.312 . S
C1654 C51 2.314 . S
C1659 C565 2.311 1_455 S
C1664 C19 2.314 . S
C1669 C597 2.312 1_655 S
C1674 C115 2.314 . S
C1679 C629 2.312 . S
C1684 C83 2.314 . S
C1689 C661 2.312 . S
C1694 C211 2.314 . S
C1699 C693 2.312 1_545 S
C1704 C147 2.314 . S
C1709 C725 2.311 1_565 S
C1714 C179 2.314 . S
C1719 C243 2.314 . S
C1724 C757 2.311 . S
