# Generated by pormake.
# Topology cbo, (4)-cn, num edge types: 1
# Building blocks:
#     Node 0, Type 0, BuildingBlock: ICAMEG_clean_sbu_1, # of connection points: 4
#     Node 1, Type 0, BuildingBlock: ICAMEG_clean_sbu_1, # of connection points: 4
#     Node 2, Type 0, BuildingBlock: ICAMEG_clean_sbu_1, # of connection points: 4
#     Node 3, Type 0, BuildingBlock: ICAMEG_clean_sbu_1, # of connection points: 4
#     Node 4, Type 0, BuildingBlock: ICAMEG_clean_sbu_1, # of connection points: 4
#     Node 5, Type 0, BuildingBlock: ICAMEG_clean_sbu_1, # of connection points: 4
#     Node 6, Type 0, BuildingBlock: ICAMEG_clean_sbu_1, # of connection points: 4
#     Node 7, Type 0, BuildingBlock: ICAMEG_clean_sbu_1, # of connection points: 4
#     Node 8, Type 0, BuildingBlock: ICAMEG_clean_sbu_1, # of connection points: 4
#     Node 9, Type 0, BuildingBlock: ICAMEG_clean_sbu_1, # of connection points: 4
#     Node 10, Type 0, BuildingBlock: ICAMEG_clean_sbu_1, # of connection points: 4
#     Node 11, Type 0, BuildingBlock: ICAMEG_clean_sbu_1, # of connection points: 4
#     Node 12, Type 0, BuildingBlock: ICAMEG_clean_sbu_1, # of connection points: 4
#     Node 13, Type 0, BuildingBlock: ICAMEG_clean_sbu_1, # of connection points: 4
#     Node 14, Type 0, BuildingBlock: ICAMEG_clean_sbu_1, # of connection points: 4
#     Node 15, Type 0, BuildingBlock: ICAMEG_clean_sbu_1, # of connection points: 4
#     Node 16, Type 0, BuildingBlock: ICAMEG_clean_sbu_1, # of connection points: 4
#     Node 17, Type 0, BuildingBlock: ICAMEG_clean_sbu_1, # of connection points: 4
#     Node 18, Type 0, BuildingBlock: ICAMEG_clean_sbu_1, # of connection points: 4
#     Node 19, Type 0, BuildingBlock: ICAMEG_clean_sbu_1, # of connection points: 4
#     Node 20, Type 0, BuildingBlock: ICAMEG_clean_sbu_1, # of connection points: 4
#     Node 21, Type 0, BuildingBlock: ICAMEG_clean_sbu_1, # of connection points: 4
#     Node 22, Type 0, BuildingBlock: ICAMEG_clean_sbu_1, # of connection points: 4
#     Node 23, Type 0, BuildingBlock: ICAMEG_clean_sbu_1, # of connection points: 4
#     Edge 24, Type (0, 0), BuildingBlock: ZUJKAS_clean_linker_0, # of connection points: 2
#     Edge 25, Type (0, 0), BuildingBlock: ZUJKAS_clean_linker_0, # of connection points: 2
#     Edge 26, Type (0, 0), BuildingBlock: ZUJKAS_clean_linker_0, # of connection points: 2
#     Edge 27, Type (0, 0), BuildingBlock: ZUJKAS_clean_linker_0, # of connection points: 2
#     Edge 28, Type (0, 0), BuildingBlock: ZUJKAS_clean_linker_0, # of connection points: 2
#     Edge 29, Type (0, 0), BuildingBlock: ZUJKAS_clean_linker_0, # of connection points: 2
#     Edge 30, Type (0, 0), BuildingBlock: ZUJKAS_clean_linker_0, # of connection points: 2
#     Edge 31, Type (0, 0), BuildingBlock: ZUJKAS_clean_linker_0, # of connection points: 2
#     Edge 32, Type (0, 0), BuildingBlock: ZUJKAS_clean_linker_0, # of connection points: 2
#     Edge 33, Type (0, 0), BuildingBlock: ZUJKAS_clean_linker_0, # of connection points: 2
#     Edge 34, Type (0, 0), BuildingBlock: ZUJKAS_clean_linker_0, # of connection points: 2
#     Edge 35, Type (0, 0), BuildingBlock: ZUJKAS_clean_linker_0, # of connection points: 2
#     Edge 36, Type (0, 0), BuildingBlock: ZUJKAS_clean_linker_0, # of connection points: 2
#     Edge 37, Type (0, 0), BuildingBlock: ZUJKAS_clean_linker_0, # of connection points: 2
#     Edge 38, Type (0, 0), BuildingBlock: ZUJKAS_clean_linker_0, # of connection points: 2
#     Edge 39, Type (0, 0), BuildingBlock: ZUJKAS_clean_linker_0, # of connection points: 2
#     Edge 40, Type (0, 0), BuildingBlock: ZUJKAS_clean_linker_0, # of connection points: 2
#     Edge 41, Type (0, 0), BuildingBlock: ZUJKAS_clean_linker_0, # of connection points: 2
#     Edge 42, Type (0, 0), BuildingBlock: ZUJKAS_clean_linker_0, # of connection points: 2
#     Edge 43, Type (0, 0), BuildingBlock: ZUJKAS_clean_linker_0, # of connection points: 2
#     Edge 44, Type (0, 0), BuildingBlock: ZUJKAS_clean_linker_0, # of connection points: 2
#     Edge 45, Type (0, 0), BuildingBlock: ZUJKAS_clean_linker_0, # of connection points: 2
#     Edge 46, Type (0, 0), BuildingBlock: ZUJKAS_clean_linker_0, # of connection points: 2
#     Edge 47, Type (0, 0), BuildingBlock: ZUJKAS_clean_linker_0, # of connection points: 2
#     Edge 48, Type (0, 0), BuildingBlock: ZUJKAS_clean_linker_0, # of connection points: 2
#     Edge 49, Type (0, 0), BuildingBlock: ZUJKAS_clean_linker_0, # of connection points: 2
#     Edge 50, Type (0, 0), BuildingBlock: ZUJKAS_clean_linker_0, # of connection points: 2
#     Edge 51, Type (0, 0), BuildingBlock: ZUJKAS_clean_linker_0, # of connection points: 2
#     Edge 52, Type (0, 0), BuildingBlock: ZUJKAS_clean_linker_0, # of connection points: 2
#     Edge 53, Type (0, 0), BuildingBlock: ZUJKAS_clean_linker_0, # of connection points: 2
#     Edge 54, Type (0, 0), BuildingBlock: ZUJKAS_clean_linker_0, # of connection points: 2
#     Edge 55, Type (0, 0), BuildingBlock: ZUJKAS_clean_linker_0, # of connection points: 2
#     Edge 56, Type (0, 0), BuildingBlock: ZUJKAS_clean_linker_0, # of connection points: 2
#     Edge 57, Type (0, 0), BuildingBlock: ZUJKAS_clean_linker_0, # of connection points: 2
#     Edge 58, Type (0, 0), BuildingBlock: ZUJKAS_clean_linker_0, # of connection points: 2
#     Edge 59, Type (0, 0), BuildingBlock: ZUJKAS_clean_linker_0, # of connection points: 2
#     Edge 60, Type (0, 0), BuildingBlock: ZUJKAS_clean_linker_0, # of connection points: 2
#     Edge 61, Type (0, 0), BuildingBlock: ZUJKAS_clean_linker_0, # of connection points: 2
#     Edge 62, Type (0, 0), BuildingBlock: ZUJKAS_clean_linker_0, # of connection points: 2
#     Edge 63, Type (0, 0), BuildingBlock: ZUJKAS_clean_linker_0, # of connection points: 2
#     Edge 64, Type (0, 0), BuildingBlock: ZUJKAS_clean_linker_0, # of connection points: 2
#     Edge 65, Type (0, 0), BuildingBlock: ZUJKAS_clean_linker_0, # of connection points: 2
#     Edge 66, Type (0, 0), BuildingBlock: ZUJKAS_clean_linker_0, # of connection points: 2
#     Edge 67, Type (0, 0), BuildingBlock: ZUJKAS_clean_linker_0, # of connection points: 2
#     Edge 68, Type (0, 0), BuildingBlock: ZUJKAS_clean_linker_0, # of connection points: 2
#     Edge 69, Type (0, 0), BuildingBlock: ZUJKAS_clean_linker_0, # of connection points: 2
#     Edge 70, Type (0, 0), BuildingBlock: ZUJKAS_clean_linker_0, # of connection points: 2
#     Edge 71, Type (0, 0), BuildingBlock: ZUJKAS_clean_linker_0, # of connection points: 2
# Relax obj value: 0.093
# Max RMSD: 0.118
# Mean RMSD: 0.118
data_MOF--net-cbo--node1-ICAMEG_clean_sbu_1--edge1-ZUJKAS_clean_linker_0
_symmetry_space_group_name_H-M    P1
_symmetry_Int_Tables_number       1
_symmetry_cell_setting            triclinic
loop_
_symmetry_equiv_pos_as_xyz
'x, y, z'
_cell_length_a     71.204834
_cell_length_b     71.185438
_cell_length_c     71.189171
_cell_angle_alpha  89.995323
_cell_angle_beta   89.999857
_cell_angle_gamma 89.997421
loop_
_atom_site_label
_atom_site_type_symbol
_atom_site_fract_x
_atom_site_fract_y
_atom_site_fract_z
_atom_type_partial_charge
Co0 Co 0.15082 0.20394 0.3588 0.0
Co1 Co 0.12326 0.17437 0.33207 0.0
O2 O 0.12982 0.18645 0.35587 0.0
C3 C 0.15786 0.17561 0.38869 0.0
O4 O 0.15453 0.16233 0.37634 0.0
C5 C 0.08701 0.19173 0.34359 0.0
O6 O 0.09597 0.20751 0.34691 0.0
O7 O 0.12337 0.19901 0.3186 0.0
O8 O 0.1453 0.21565 0.33399 0.0
H9 H 0.12924 0.16188 0.26286 0.0
H10 H 0.12214 0.20059 0.38878 0.0
O11 O 0.15689 0.19282 0.38389 0.0
H12 H 0.12003 0.26687 0.36875 0.0
H13 H 0.1921 0.24855 0.39499 0.0
H14 H 0.18078 0.21833 0.3337 0.0
H15 H 0.14246 0.24481 0.35429 0.0
H16 H 0.16557 0.22666 0.39079 0.0
O17 O 0.09593 0.17736 0.3378 0.0
H18 H 0.13751 0.1768 0.293 0.0
H19 H 0.0944 0.14619 0.32064 0.0
H20 H 0.20737 0.24024 0.33724 0.0
H21 H 0.0996 0.22221 0.40376 0.0
H22 H 0.21317 0.25552 0.36807 0.0
H23 H 0.0984 0.25561 0.39371 0.0
O24 O 0.16854 0.18606 0.34638 0.0
H25 H 0.10693 0.13052 0.3849 0.0
H26 H 0.14013 0.13672 0.32444 0.0
H27 H 0.14096 0.10647 0.3413 0.0
H28 H 0.12424 0.10322 0.37176 0.0
H29 H 0.10663 0.16056 0.36764 0.0
H30 H 0.08555 0.13106 0.29075 0.0
H31 H 0.10308 0.13883 0.2616 0.0
O32 O 0.15026 0.17083 0.3257 0.0
C33 C 0.13405 0.21333 0.32026 0.0
C34 C 0.12152 0.15834 0.27547 0.0
C35 C 0.09699 0.14106 0.29112 0.0
N36 N 0.11652 0.1623 0.30858 0.0
C37 C 0.12617 0.16671 0.29259 0.0
C38 C 0.10203 0.14972 0.30799 0.0
C39 C 0.10683 0.14542 0.27477 0.0
C40 C 0.12181 0.21514 0.38444 0.0
N41 N 0.13364 0.22144 0.3707 0.0
C42 C 0.10897 0.2273 0.39293 0.0
C43 C 0.10829 0.24603 0.38727 0.0
C44 C 0.12041 0.25235 0.37325 0.0
C45 C 0.13305 0.23978 0.36506 0.0
C46 C 0.18971 0.24199 0.38149 0.0
C47 C 0.18316 0.22499 0.34713 0.0
C48 C 0.17474 0.22955 0.37903 0.0
N49 N 0.17158 0.2213 0.36199 0.0
C50 C 0.19826 0.23735 0.34907 0.0
C51 C 0.20152 0.24591 0.36637 0.0
C52 C 0.1663 0.17496 0.33248 0.0
C53 C 0.11424 0.13174 0.37162 0.0
C54 C 0.13291 0.13545 0.33771 0.0
C55 C 0.13337 0.11826 0.34718 0.0
C56 C 0.12397 0.11645 0.36425 0.0
N57 N 0.12332 0.15038 0.34502 0.0
C58 C 0.11405 0.1487 0.36175 0.0
Co59 Co 0.35257 0.80066 0.85967 0.0
Co60 Co 0.37971 0.83003 0.83237 0.0
O61 O 0.37331 0.81835 0.85639 0.0
C62 C 0.34428 0.82921 0.88908 0.0
O63 O 0.34577 0.8424 0.87627 0.0
C64 C 0.41605 0.8133 0.84438 0.0
O65 O 0.40717 0.79752 0.84789 0.0
O66 O 0.37995 0.80513 0.81939 0.0
O67 O 0.35803 0.78866 0.83498 0.0
H68 H 0.37367 0.84111 0.76293 0.0
H69 H 0.38141 0.80468 0.88942 0.0
O70 O 0.34667 0.81205 0.88467 0.0
H71 H 0.38406 0.73817 0.87024 0.0
H72 H 0.31196 0.7562 0.8968 0.0
H73 H 0.3226 0.78559 0.83498 0.0
H74 H 0.36132 0.75982 0.85563 0.0
H75 H 0.33823 0.77829 0.8921 0.0
O76 O 0.40707 0.82751 0.83825 0.0
H77 H 0.36553 0.82668 0.79335 0.0
H78 H 0.40824 0.85832 0.82043 0.0
H79 H 0.29626 0.76347 0.83902 0.0
H80 H 0.40426 0.78347 0.90454 0.0
H81 H 0.2908 0.7486 0.87012 0.0
H82 H 0.40572 0.74997 0.89492 0.0
O83 O 0.33461 0.81817 0.84708 0.0
H84 H 0.39513 0.87512 0.88442 0.0
H85 H 0.36238 0.86728 0.82391 0.0
H86 H 0.36106 0.89784 0.84016 0.0
H87 H 0.37755 0.90192 0.87063 0.0
H88 H 0.39595 0.84475 0.86777 0.0
H89 H 0.41696 0.87298 0.79027 0.0
H90 H 0.39957 0.86444 0.76125 0.0
O91 O 0.35265 0.83307 0.82592 0.0
C92 C 0.36931 0.7908 0.82124 0.0
C93 C 0.38133 0.84498 0.77548 0.0
C94 C 0.40564 0.86285 0.79082 0.0
N95 N 0.38633 0.84173 0.80867 0.0
C96 C 0.37675 0.83689 0.79276 0.0
C97 C 0.40067 0.85446 0.80785 0.0
C98 C 0.39587 0.85806 0.77455 0.0
C99 C 0.38186 0.79008 0.88527 0.0
N100 N 0.37001 0.78349 0.87168 0.0
C101 C 0.39487 0.77816 0.89383 0.0
C102 C 0.3957 0.75936 0.88841 0.0
C103 C 0.38356 0.75274 0.87455 0.0
C104 C 0.37075 0.76508 0.86628 0.0
C105 C 0.31421 0.76257 0.88318 0.0
C106 C 0.32038 0.77911 0.84853 0.0
C107 C 0.32903 0.77513 0.88044 0.0
N108 N 0.33201 0.78314 0.86325 0.0
C109 C 0.30541 0.76663 0.85074 0.0
C110 C 0.30235 0.75831 0.8682 0.0
C111 C 0.33668 0.82897 0.83289 0.0
C112 C 0.38793 0.87353 0.87113 0.0
C113 C 0.36952 0.86892 0.8372 0.0
C114 C 0.36877 0.88627 0.84631 0.0
C115 C 0.37804 0.88855 0.8634 0.0
N116 N 0.37927 0.85426 0.84485 0.0
C117 C 0.38839 0.85639 0.86161 0.0
Co118 Co 0.65177 0.29682 0.64289 0.0
Co119 Co 0.62375 0.32684 0.66859 0.0
O120 O 0.63078 0.3144 0.64513 0.0
C121 C 0.65941 0.32475 0.61281 0.0
O122 O 0.65541 0.33819 0.62479 0.0
C123 C 0.58715 0.30925 0.65814 0.0
O124 O 0.59534 0.29272 0.6578 0.0
O125 O 0.62349 0.30239 0.68245 0.0
O126 O 0.64562 0.28545 0.66768 0.0
H127 H 0.62801 0.34045 0.73772 0.0
H128 H 0.62365 0.29995 0.61237 0.0
O129 O 0.6585 0.30761 0.61783 0.0
H130 H 0.62111 0.23384 0.63288 0.0
H131 H 0.69376 0.25168 0.6082 0.0
H132 H 0.68109 0.28265 0.66886 0.0
H133 H 0.64329 0.256 0.64758 0.0
H134 H 0.6672 0.27367 0.61153 0.0
O135 O 0.59656 0.32395 0.66201 0.0
H136 H 0.63703 0.32503 0.70804 0.0
H137 H 0.59458 0.35514 0.67885 0.0
H138 H 0.70769 0.26063 0.6662 0.0
H139 H 0.60136 0.27823 0.59715 0.0
H140 H 0.71417 0.24497 0.63569 0.0
H141 H 0.59996 0.24491 0.60744 0.0
O142 O 0.66925 0.3148 0.65547 0.0
H143 H 0.60887 0.37015 0.61486 0.0
H144 H 0.64069 0.36446 0.67612 0.0
H145 H 0.64206 0.3945 0.65893 0.0
H146 H 0.62604 0.39749 0.62808 0.0
H147 H 0.60802 0.3403 0.63245 0.0
H148 H 0.58501 0.37077 0.70825 0.0
H149 H 0.60182 0.36351 0.73795 0.0
O150 O 0.65061 0.33033 0.67562 0.0
C151 C 0.63412 0.28799 0.68116 0.0
C152 C 0.62061 0.34378 0.72486 0.0
C153 C 0.59646 0.36077 0.70832 0.0
N154 N 0.61643 0.33927 0.69171 0.0
C155 C 0.62568 0.33513 0.708 0.0
C156 C 0.60191 0.35184 0.69173 0.0
C157 C 0.6059 0.3567 0.72498 0.0
C158 C 0.62321 0.28545 0.61683 0.0
N159 N 0.6348 0.27924 0.63081 0.0
C160 C 0.61052 0.27322 0.6082 0.0
C161 C 0.60973 0.25454 0.61399 0.0
C162 C 0.62158 0.24832 0.62827 0.0
C163 C 0.63408 0.26095 0.63659 0.0
C164 C 0.69107 0.25839 0.62157 0.0
C165 C 0.68376 0.27582 0.65556 0.0
C166 C 0.67608 0.2709 0.62353 0.0
N167 N 0.67254 0.27936 0.6404 0.0
C168 C 0.69887 0.2634 0.65413 0.0
C169 C 0.70251 0.25463 0.637 0.0
C170 C 0.66677 0.32606 0.66921 0.0
C171 C 0.61587 0.36903 0.62831 0.0
C172 C 0.63377 0.36562 0.66267 0.0
C173 C 0.63454 0.38269 0.65302 0.0
C174 C 0.62553 0.38436 0.63572 0.0
N175 N 0.62426 0.35065 0.65532 0.0
C176 C 0.61538 0.35219 0.63837 0.0
Co177 Co 0.85227 0.70239 0.13994 0.0
Co178 Co 0.87907 0.67498 0.1691 0.0
O179 O 0.873 0.68496 0.14424 0.0
C180 C 0.84473 0.67306 0.1111 0.0
O181 O 0.84585 0.66023 0.12431 0.0
C182 C 0.91582 0.68943 0.15575 0.0
O183 O 0.90742 0.70532 0.1516 0.0
O184 O 0.88038 0.70078 0.17986 0.0
O185 O 0.85689 0.71517 0.16455 0.0
H186 H 0.87374 0.67009 0.23933 0.0
H187 H 0.88192 0.69802 0.11108 0.0
O188 O 0.84716 0.69033 0.11508 0.0
H189 H 0.88328 0.765 0.12869 0.0
H190 H 0.8122 0.74547 0.10065 0.0
H191 H 0.82141 0.71762 0.16341 0.0
H192 H 0.86042 0.74343 0.14324 0.0
H193 H 0.83859 0.72382 0.10661 0.0
O194 O 0.90646 0.67589 0.16275 0.0
H195 H 0.86575 0.68229 0.20791 0.0
H196 H 0.90649 0.64653 0.18302 0.0
H197 H 0.79495 0.73933 0.15811 0.0
H198 H 0.9049 0.71915 0.09604 0.0
H199 H 0.79021 0.75342 0.12654 0.0
H200 H 0.90571 0.75289 0.10487 0.0
O201 O 0.83431 0.68485 0.15241 0.0
H202 H 0.89223 0.62491 0.12112 0.0
H203 H 0.85998 0.63949 0.18067 0.0
H204 H 0.85722 0.60773 0.16713 0.0
H205 H 0.87345 0.60026 0.13716 0.0
H206 H 0.89447 0.65655 0.13508 0.0
H207 H 0.91504 0.63405 0.21419 0.0
H208 H 0.89856 0.64579 0.24262 0.0
O209 O 0.85191 0.67369 0.17613 0.0
C210 C 0.86886 0.71438 0.17786 0.0
C211 C 0.88097 0.66481 0.22704 0.0
C212 C 0.90417 0.6446 0.21294 0.0
N213 N 0.88552 0.66501 0.19363 0.0
C214 C 0.87646 0.67162 0.20921 0.0
C215 C 0.8993 0.65175 0.19533 0.0
C216 C 0.89492 0.65119 0.22888 0.0
C217 C 0.88209 0.71272 0.11488 0.0
N218 N 0.86981 0.71949 0.12799 0.0
C219 C 0.89517 0.7246 0.10636 0.0
C220 C 0.89564 0.74353 0.11135 0.0
C221 C 0.88306 0.75033 0.12472 0.0
C222 C 0.87019 0.73803 0.13296 0.0
C223 C 0.81413 0.73944 0.11447 0.0
C224 C 0.8195 0.72376 0.14966 0.0
C225 C 0.82902 0.72713 0.11792 0.0
N226 N 0.8316 0.71955 0.13537 0.0
C227 C 0.80446 0.73602 0.14673 0.0
C228 C 0.8018 0.7439 0.12901 0.0
C229 C 0.83613 0.67626 0.16804 0.0
C230 C 0.88514 0.62798 0.13422 0.0
C231 C 0.86704 0.63637 0.1676 0.0
C232 C 0.86546 0.61834 0.16002 0.0
C233 C 0.87458 0.61416 0.14321 0.0
N234 N 0.87746 0.64983 0.15872 0.0
C235 C 0.88642 0.64584 0.14222 0.0
Co236 Co 0.35845 0.14912 0.20123 0.0
Co237 Co 0.33138 0.12239 0.17128 0.0
O238 O 0.35528 0.12853 0.18332 0.0
C239 C 0.38819 0.15724 0.17303 0.0
O240 O 0.3755 0.15571 0.15973 0.0
C241 C 0.34284 0.08577 0.18783 0.0
O242 O 0.34627 0.09448 0.20373 0.0
O243 O 0.31814 0.122 0.19602 0.0
O244 O 0.3336 0.1437 0.2129 0.0
H245 H 0.26212 0.12897 0.1595 0.0
H246 H 0.38812 0.12016 0.19733 0.0
O247 O 0.3836 0.15498 0.19016 0.0
H248 H 0.36803 0.11699 0.26354 0.0
H249 H 0.3953 0.18911 0.24646 0.0
H250 H 0.33378 0.17913 0.21627 0.0
H251 H 0.35382 0.14 0.24191 0.0
H252 H 0.39069 0.16305 0.22409 0.0
O253 O 0.33702 0.09494 0.17363 0.0
H254 H 0.29242 0.13678 0.17435 0.0
H255 H 0.31959 0.09421 0.14257 0.0
H256 H 0.33773 0.20526 0.23866 0.0
H257 H 0.40284 0.09704 0.21852 0.0
H258 H 0.36868 0.21038 0.25394 0.0
H259 H 0.39276 0.09532 0.25188 0.0
O260 O 0.34617 0.16733 0.18374 0.0
H261 H 0.38386 0.107 0.12669 0.0
H262 H 0.32349 0.14011 0.13408 0.0
H263 H 0.34011 0.14159 0.10374 0.0
H264 H 0.37052 0.12492 0.09989 0.0
H265 H 0.36682 0.10603 0.15685 0.0
H266 H 0.28955 0.08584 0.12749 0.0
H267 H 0.26055 0.10333 0.13589 0.0
O268 O 0.32513 0.14952 0.16842 0.0
C269 C 0.31986 0.13247 0.21048 0.0
C270 C 0.27466 0.12128 0.15569 0.0
C271 C 0.29005 0.09705 0.13774 0.0
N272 N 0.30778 0.11604 0.15925 0.0
C273 C 0.29187 0.12567 0.16401 0.0
C274 C 0.30702 0.10182 0.14637 0.0
C275 C 0.27379 0.10688 0.14245 0.0
C276 C 0.38377 0.11961 0.21187 0.0
N277 N 0.37016 0.13146 0.21838 0.0
C278 C 0.39211 0.10644 0.22378 0.0
C279 C 0.38643 0.10546 0.24249 0.0
C280 C 0.37254 0.1176 0.24904 0.0
C281 C 0.3645 0.13057 0.23671 0.0
C282 C 0.38175 0.18701 0.23992 0.0
C283 C 0.34726 0.18121 0.22292 0.0
C284 C 0.37906 0.17231 0.2272 0.0
N285 N 0.36195 0.16951 0.21896 0.0
C286 C 0.34943 0.19606 0.23556 0.0
C287 C 0.3668 0.19893 0.24411 0.0
C288 C 0.33212 0.16543 0.17275 0.0
C289 C 0.3706 0.11429 0.12818 0.0
C290 C 0.33674 0.13289 0.13255 0.0
C291 C 0.34607 0.13373 0.11531 0.0
C292 C 0.36312 0.12437 0.11316 0.0
N293 N 0.34415 0.12296 0.14721 0.0
C294 C 0.36086 0.11374 0.1452 0.0
Co295 Co 0.14288 0.84908 0.7035 0.0
Co296 Co 0.16787 0.87746 0.67325 0.0
O297 O 0.14468 0.8702 0.68601 0.0
C298 C 0.1125 0.84143 0.67597 0.0
O299 O 0.1244 0.84538 0.66245 0.0
C300 C 0.15731 0.91386 0.69108 0.0
O301 O 0.15696 0.9055 0.70752 0.0
O302 O 0.182 0.87781 0.69751 0.0
O303 O 0.16786 0.85529 0.71448 0.0
H304 H 0.23687 0.87392 0.65884 0.0
H305 H 0.11207 0.87698 0.70117 0.0
O306 O 0.11767 0.84231 0.69307 0.0
H307 H 0.13401 0.87934 0.76683 0.0
H308 H 0.10919 0.8066 0.74894 0.0
H309 H 0.16924 0.81979 0.71703 0.0
H310 H 0.14843 0.85742 0.74423 0.0
H311 H 0.11201 0.83334 0.72707 0.0
O312 O 0.16114 0.90458 0.67629 0.0
H313 H 0.20747 0.86457 0.67458 0.0
H314 H 0.1775 0.90675 0.64484 0.0
H315 H 0.16708 0.79301 0.7389 0.0
H316 H 0.09714 0.89901 0.72336 0.0
H317 H 0.13688 0.78627 0.75503 0.0
H318 H 0.10814 0.90031 0.75645 0.0
O319 O 0.15524 0.83179 0.68521 0.0
H320 H 0.11347 0.89194 0.63069 0.0
H321 H 0.17506 0.86063 0.63551 0.0
H322 H 0.15749 0.85916 0.60569 0.0
H323 H 0.12647 0.87492 0.60314 0.0
H324 H 0.13145 0.8929 0.66029 0.0
H325 H 0.20662 0.91666 0.6289 0.0
H326 H 0.23656 0.90014 0.63582 0.0
O327 O 0.17512 0.85065 0.66961 0.0
C328 C 0.18111 0.86703 0.71183 0.0
C329 C 0.2239 0.88119 0.65566 0.0
C330 C 0.20692 0.90519 0.63888 0.0
N331 N 0.19076 0.88501 0.66053 0.0
C332 C 0.20719 0.87592 0.66449 0.0
C333 C 0.19049 0.89954 0.64798 0.0
C334 C 0.22372 0.89591 0.64276 0.0
C335 C 0.11684 0.87737 0.71558 0.0
N336 N 0.13105 0.86587 0.72141 0.0
C337 C 0.10837 0.88991 0.72807 0.0
C338 C 0.11456 0.89065 0.74662 0.0
C339 C 0.12909 0.8789 0.75246 0.0
C340 C 0.13724 0.86654 0.73958 0.0
C341 C 0.12243 0.80941 0.74201 0.0
C342 C 0.15607 0.81701 0.72406 0.0
C343 C 0.1241 0.8245 0.72958 0.0
N344 N 0.1408 0.82818 0.72086 0.0
C345 C 0.15493 0.8018 0.7364 0.0
C346 C 0.13798 0.79801 0.74543 0.0
C347 C 0.16887 0.83442 0.67385 0.0
C348 C 0.127 0.88505 0.63161 0.0
C349 C 0.16154 0.86744 0.63454 0.0
C350 C 0.15168 0.86661 0.6176 0.0
C351 C 0.13428 0.87547 0.61617 0.0
N352 N 0.1543 0.87687 0.64962 0.0
C353 C 0.13727 0.88561 0.64831 0.0
Co354 Co 0.85906 0.35208 0.80004 0.0
Co355 Co 0.83217 0.37888 0.83012 0.0
O356 O 0.85601 0.37261 0.81802 0.0
C357 C 0.88853 0.34355 0.82837 0.0
O358 O 0.87575 0.34528 0.84156 0.0
C359 C 0.84376 0.41537 0.81343 0.0
O360 O 0.84701 0.40657 0.79755 0.0
O361 O 0.81883 0.3793 0.80543 0.0
O362 O 0.83429 0.35777 0.78832 0.0
H363 H 0.76292 0.37263 0.84217 0.0
H364 H 0.88899 0.38073 0.80418 0.0
O365 O 0.88412 0.34591 0.8112 0.0
H366 H 0.8691 0.38444 0.73793 0.0
H367 H 0.89574 0.31197 0.75478 0.0
H368 H 0.83418 0.32236 0.78477 0.0
H369 H 0.85462 0.36145 0.7594 0.0
H370 H 0.89126 0.33796 0.77724 0.0
O371 O 0.83795 0.4063 0.8277 0.0
H372 H 0.79313 0.36466 0.82723 0.0
H373 H 0.8206 0.40719 0.85879 0.0
H374 H 0.838 0.29629 0.76227 0.0
H375 H 0.90398 0.40382 0.78314 0.0
H376 H 0.86896 0.29096 0.7471 0.0
H377 H 0.894 0.40582 0.74977 0.0
O378 O 0.84656 0.3339 0.8174 0.0
H379 H 0.88482 0.39412 0.87455 0.0
H380 H 0.82431 0.36123 0.86735 0.0
H381 H 0.84101 0.35972 0.89765 0.0
H382 H 0.87149 0.37628 0.90141 0.0
H383 H 0.86771 0.39512 0.84444 0.0
H384 H 0.79065 0.41573 0.87396 0.0
H385 H 0.76154 0.39834 0.86572 0.0
O386 O 0.82581 0.35178 0.83304 0.0
C387 C 0.82054 0.36896 0.79087 0.0
C388 C 0.77551 0.38028 0.84591 0.0
C389 C 0.79107 0.40448 0.86374 0.0
N390 N 0.80863 0.38537 0.84221 0.0
C391 C 0.79267 0.3758 0.83753 0.0
C392 C 0.80798 0.39962 0.85507 0.0
C393 C 0.77475 0.39472 0.85911 0.0
C394 C 0.88469 0.3814 0.78963 0.0
N395 N 0.87099 0.36971 0.78301 0.0
C396 C 0.89318 0.39455 0.7778 0.0
C397 C 0.88755 0.39569 0.75909 0.0
C398 C 0.87358 0.3837 0.75244 0.0
C399 C 0.86538 0.37075 0.76468 0.0
C400 C 0.88217 0.31416 0.76127 0.0
C401 C 0.84767 0.32019 0.77816 0.0
C402 C 0.87957 0.32883 0.77404 0.0
N403 N 0.86245 0.33174 0.78223 0.0
C404 C 0.84976 0.30538 0.76546 0.0
C405 C 0.86714 0.30239 0.75697 0.0
C406 C 0.83262 0.33584 0.82852 0.0
C407 C 0.87153 0.38688 0.8731 0.0
C408 C 0.83759 0.3684 0.86884 0.0
C409 C 0.84696 0.36754 0.88606 0.0
C410 C 0.86405 0.37685 0.88816 0.0
N411 N 0.845 0.37829 0.85415 0.0
C412 C 0.86175 0.38745 0.85611 0.0
Co413 Co 0.64285 0.65047 0.29908 0.0
Co414 Co 0.67009 0.62234 0.32703 0.0
O415 O 0.64597 0.62886 0.31572 0.0
C416 C 0.61218 0.65627 0.32676 0.0
O417 O 0.62468 0.65466 0.34023 0.0
C418 C 0.65784 0.58605 0.31037 0.0
O419 O 0.65448 0.59491 0.29454 0.0
O420 O 0.68234 0.62205 0.30183 0.0
O421 O 0.66837 0.6467 0.28796 0.0
H422 H 0.73979 0.62774 0.33659 0.0
H423 H 0.61379 0.62065 0.29973 0.0
O424 O 0.61716 0.65481 0.30964 0.0
H425 H 0.63673 0.62249 0.23439 0.0
H426 H 0.60634 0.69238 0.25534 0.0
H427 H 0.66689 0.68245 0.28744 0.0
H428 H 0.64949 0.64424 0.25814 0.0
H429 H 0.61107 0.6649 0.27591 0.0
O430 O 0.66394 0.59503 0.32458 0.0
H431 H 0.70915 0.63615 0.32282 0.0
H432 H 0.68238 0.59367 0.35504 0.0
H433 H 0.66283 0.71004 0.2669 0.0
H434 H 0.60052 0.59876 0.27637 0.0
H435 H 0.63236 0.71514 0.25066 0.0
H436 H 0.61204 0.59956 0.24345 0.0
O437 O 0.65397 0.66753 0.31823 0.0
H438 H 0.61898 0.6071 0.37323 0.0
H439 H 0.67946 0.63959 0.36412 0.0
H440 H 0.66391 0.64089 0.39504 0.0
H441 H 0.63346 0.62454 0.39976 0.0
H442 H 0.63494 0.60629 0.34249 0.0
H443 H 0.71277 0.58468 0.36905 0.0
H444 H 0.74174 0.60183 0.35989 0.0
O445 O 0.67689 0.64944 0.33008 0.0
C446 C 0.68139 0.63442 0.2889 0.0
C447 C 0.72726 0.6202 0.34074 0.0
C448 C 0.7121 0.59601 0.35893 0.0
N449 N 0.69398 0.61549 0.3382 0.0
C450 C 0.70986 0.62493 0.33301 0.0
C451 C 0.69494 0.60113 0.35092 0.0
C452 C 0.72835 0.60565 0.35379 0.0
C453 C 0.61874 0.6212 0.28538 0.0
N454 N 0.63232 0.63377 0.28029 0.0
C455 C 0.61123 0.60872 0.27224 0.0
C456 C 0.61772 0.60916 0.25378 0.0
C457 C 0.63159 0.62201 0.24869 0.0
C458 C 0.63879 0.63426 0.26221 0.0
C459 C 0.61969 0.69028 0.26229 0.0
C460 C 0.65365 0.6845 0.28032 0.0
C461 C 0.62244 0.67477 0.27398 0.0
N462 N 0.63931 0.67197 0.28272 0.0
C463 C 0.6514 0.70018 0.26875 0.0
C464 C 0.6343 0.70305 0.25967 0.0
C465 C 0.669 0.66537 0.32777 0.0
C466 C 0.63227 0.61424 0.37136 0.0
C467 C 0.66618 0.63249 0.36603 0.0
C468 C 0.65746 0.63324 0.38359 0.0
C469 C 0.64039 0.62405 0.38623 0.0
N470 N 0.65814 0.62282 0.35153 0.0
C471 C 0.6414 0.61378 0.35401 0.0
Co472 Co 0.2028 0.35962 0.14747 0.0
Co473 Co 0.17276 0.33233 0.12105 0.0
O474 O 0.18474 0.3563 0.12706 0.0
C475 C 0.17437 0.38904 0.15573 0.0
O476 O 0.16125 0.37619 0.15394 0.0
C477 C 0.18916 0.34397 0.08448 0.0
O478 O 0.20503 0.34737 0.09324 0.0
O479 O 0.19752 0.31916 0.12056 0.0
O480 O 0.2146 0.33482 0.14197 0.0
H481 H 0.16119 0.26303 0.12779 0.0
H482 H 0.19846 0.38929 0.11859 0.0
O483 O 0.19157 0.38469 0.15347 0.0
H484 H 0.26473 0.36955 0.11475 0.0
H485 H 0.24809 0.39681 0.18707 0.0
H486 H 0.21823 0.33506 0.17738 0.0
H487 H 0.24341 0.3552 0.13796 0.0
H488 H 0.22556 0.39202 0.16119 0.0
O489 O 0.17498 0.33799 0.09358 0.0
H490 H 0.17599 0.29339 0.13549 0.0
H491 H 0.144 0.32042 0.09299 0.0
H492 H 0.24079 0.33919 0.20334 0.0
H493 H 0.21934 0.40415 0.09527 0.0
H494 H 0.25589 0.37025 0.20832 0.0
H495 H 0.25272 0.39424 0.09321 0.0
O496 O 0.18555 0.34724 0.16579 0.0
H497 H 0.12782 0.38454 0.10571 0.0
H498 H 0.13576 0.32437 0.1391 0.0
H499 H 0.10535 0.34086 0.14071 0.0
H500 H 0.10122 0.37116 0.1239 0.0
H501 H 0.15805 0.36765 0.10462 0.0
H502 H 0.12896 0.29032 0.08473 0.0
H503 H 0.13749 0.26136 0.10223 0.0
O504 O 0.17006 0.32611 0.14823 0.0
C505 C 0.21209 0.32098 0.13088 0.0
C506 C 0.15732 0.27556 0.12009 0.0
C507 C 0.13925 0.29087 0.09591 0.0
N508 N 0.16078 0.30868 0.11478 0.0
C509 C 0.16562 0.2928 0.12442 0.0
C510 C 0.14785 0.30786 0.10062 0.0
C511 C 0.14404 0.27463 0.10574 0.0
C512 C 0.21301 0.38503 0.11789 0.0
N513 N 0.21972 0.37144 0.12967 0.0
C514 C 0.22475 0.39344 0.10461 0.0
C515 C 0.24347 0.38786 0.10345 0.0
C516 C 0.25021 0.374 0.11552 0.0
C517 C 0.23806 0.36588 0.1286 0.0
C518 C 0.24162 0.3832 0.18503 0.0
C519 C 0.22482 0.34859 0.1794 0.0
C520 C 0.22882 0.38042 0.17043 0.0
N521 N 0.22068 0.36324 0.16771 0.0
C522 C 0.23755 0.35086 0.19415 0.0
C523 C 0.246 0.36829 0.19694 0.0
C524 C 0.17456 0.33317 0.16406 0.0
C525 C 0.12943 0.37132 0.11305 0.0
C526 C 0.1341 0.33758 0.13181 0.0
C527 C 0.11683 0.34683 0.13273 0.0
C528 C 0.11452 0.36382 0.12328 0.0
N529 N 0.14865 0.34501 0.12172 0.0
C530 C 0.14649 0.36166 0.11243 0.0
Co531 Co 0.70333 0.14158 0.85345 0.0
Co532 Co 0.67357 0.16879 0.88019 0.0
O533 O 0.68542 0.14481 0.874 0.0
C534 C 0.67489 0.11213 0.84535 0.0
O535 O 0.66177 0.12497 0.84716 0.0
C536 C 0.68987 0.15676 0.91668 0.0
O537 O 0.70572 0.15328 0.90793 0.0
O538 O 0.69841 0.18179 0.88078 0.0
O539 O 0.71514 0.1664 0.85891 0.0
H540 H 0.66249 0.23823 0.87406 0.0
H541 H 0.69929 0.11182 0.88229 0.0
O542 O 0.6921 0.1165 0.8475 0.0
H543 H 0.76556 0.13168 0.88561 0.0
H544 H 0.74837 0.10457 0.81339 0.0
H545 H 0.71845 0.16623 0.82346 0.0
H546 H 0.74401 0.14605 0.86263 0.0
H547 H 0.72604 0.10925 0.83947 0.0
O548 O 0.67575 0.16292 0.9076 0.0
H549 H 0.67707 0.20784 0.86609 0.0
H550 H 0.64486 0.18066 0.90832 0.0
H551 H 0.7408 0.1622 0.7973 0.0
H552 H 0.72041 0.09693 0.90538 0.0
H553 H 0.75593 0.13119 0.79213 0.0
H554 H 0.75379 0.1069 0.90718 0.0
O555 O 0.6859 0.15396 0.8353 0.0
H556 H 0.62829 0.11677 0.89513 0.0
H557 H 0.63663 0.17712 0.86218 0.0
H558 H 0.60611 0.16085 0.86045 0.0
H559 H 0.60178 0.13045 0.87704 0.0
H560 H 0.65863 0.13345 0.89635 0.0
H561 H 0.63003 0.21079 0.91685 0.0
H562 H 0.63878 0.23984 0.89961 0.0
O563 O 0.6709 0.17526 0.85308 0.0
C564 C 0.71282 0.18009 0.87023 0.0
C565 C 0.65852 0.22567 0.88164 0.0
C566 C 0.64032 0.21027 0.90567 0.0
N567 N 0.66174 0.19247 0.88665 0.0
C568 C 0.6667 0.2084 0.87716 0.0
C569 C 0.6488 0.19325 0.90081 0.0
C570 C 0.64523 0.22656 0.89599 0.0
C571 C 0.71384 0.11611 0.88288 0.0
N572 N 0.72042 0.12975 0.87108 0.0
C573 C 0.72571 0.10768 0.89603 0.0
C574 C 0.74443 0.1133 0.89705 0.0
C575 C 0.75104 0.12721 0.88496 0.0
C576 C 0.73876 0.13534 0.87201 0.0
C577 C 0.74189 0.11815 0.81551 0.0
C578 C 0.72505 0.15272 0.82136 0.0
C579 C 0.7292 0.12088 0.83023 0.0
N580 N 0.72105 0.13803 0.83305 0.0
C581 C 0.73766 0.15051 0.8065 0.0
C582 C 0.74613 0.1331 0.8036 0.0
C583 C 0.67512 0.16818 0.83718 0.0
C584 C 0.62999 0.13002 0.88789 0.0
C585 C 0.63488 0.16388 0.86938 0.0
C586 C 0.61755 0.15474 0.86839 0.0
C587 C 0.61513 0.1377 0.87771 0.0
N588 N 0.64938 0.15628 0.87942 0.0
C589 C 0.64711 0.13957 0.88859 0.0
Co590 Co 0.79801 0.8596 0.35088 0.0
Co591 Co 0.82919 0.83266 0.3765 0.0
O592 O 0.81656 0.85643 0.3709 0.0
C593 C 0.82597 0.88954 0.34282 0.0
O594 O 0.83942 0.87733 0.34601 0.0
C595 C 0.81258 0.84327 0.41325 0.0
O596 O 0.79669 0.8466 0.4045 0.0
O597 O 0.80482 0.81876 0.37691 0.0
O598 O 0.78657 0.83477 0.35678 0.0
H599 H 0.84267 0.76383 0.36851 0.0
H600 H 0.80289 0.88933 0.37959 0.0
O601 O 0.80883 0.8847 0.34437 0.0
H602 H 0.73683 0.86929 0.38507 0.0
H603 H 0.75136 0.8962 0.3123 0.0
H604 H 0.78211 0.8348 0.32144 0.0
H605 H 0.75764 0.85504 0.36134 0.0
H606 H 0.77456 0.89173 0.33763 0.0
O607 O 0.8269 0.83774 0.40407 0.0
H608 H 0.82699 0.7939 0.36139 0.0
H609 H 0.85838 0.82106 0.40424 0.0
H610 H 0.75888 0.83861 0.29602 0.0
H611 H 0.78252 0.90409 0.40342 0.0
H612 H 0.74333 0.8695 0.29133 0.0
H613 H 0.74925 0.89403 0.40631 0.0
O614 O 0.81493 0.8474 0.33216 0.0
H615 H 0.87282 0.88568 0.39279 0.0
H616 H 0.86629 0.8261 0.35807 0.0
H617 H 0.89624 0.84344 0.35668 0.0
H618 H 0.89965 0.87344 0.37415 0.0
H619 H 0.84306 0.86797 0.39365 0.0
H620 H 0.87429 0.79125 0.41193 0.0
H621 H 0.8665 0.76238 0.39395 0.0
O622 O 0.83194 0.827 0.3492 0.0
C623 C 0.78977 0.82069 0.36735 0.0
C624 C 0.84622 0.77633 0.37641 0.0
C625 C 0.86394 0.79171 0.4008 0.0
N626 N 0.84185 0.80924 0.38231 0.0
C627 C 0.83742 0.7934 0.37241 0.0
C628 C 0.85486 0.80854 0.39641 0.0
C629 C 0.85957 0.77552 0.3907 0.0
C630 C 0.78838 0.88499 0.38066 0.0
N631 N 0.78145 0.87137 0.36905 0.0
C632 C 0.77693 0.89335 0.39422 0.0
C633 C 0.75827 0.88768 0.39585 0.0
C634 C 0.7513 0.87379 0.38395 0.0
C635 C 0.76317 0.86573 0.37058 0.0
C636 C 0.75802 0.88267 0.31422 0.0
C637 C 0.77533 0.84826 0.31954 0.0
C638 C 0.77121 0.88007 0.32851 0.0
N639 N 0.7796 0.86299 0.33108 0.0
C640 C 0.76222 0.85034 0.3051 0.0
C641 C 0.75352 0.86768 0.30246 0.0
C642 C 0.82664 0.83388 0.33353 0.0
C643 C 0.87152 0.8726 0.38515 0.0
C644 C 0.86763 0.83918 0.36565 0.0
C645 C 0.88465 0.84891 0.36485 0.0
C646 C 0.88656 0.86574 0.37467 0.0
N647 N 0.85295 0.84599 0.37597 0.0
C648 C 0.85473 0.86247 0.38565 0.0
Co649 Co 0.29999 0.64235 0.65105 0.0
Co650 Co 0.3306 0.66851 0.62408 0.0
O651 O 0.31807 0.6449 0.6305 0.0
C652 C 0.32768 0.61207 0.65897 0.0
O653 O 0.34125 0.62409 0.65556 0.0
C654 C 0.31376 0.65702 0.58764 0.0
O655 O 0.29781 0.65417 0.59646 0.0
O656 O 0.30616 0.68226 0.62345 0.0
O657 O 0.28876 0.66728 0.64507 0.0
H658 H 0.34379 0.73762 0.62975 0.0
H659 H 0.30361 0.61209 0.6227 0.0
O660 O 0.31059 0.61715 0.65763 0.0
H661 H 0.23777 0.63319 0.61865 0.0
H662 H 0.25381 0.6071 0.69141 0.0
H663 H 0.2853 0.66784 0.68053 0.0
H664 H 0.25945 0.64747 0.64157 0.0
H665 H 0.27639 0.61082 0.66539 0.0
O666 O 0.32815 0.66256 0.5967 0.0
H667 H 0.3283 0.70773 0.63793 0.0
H668 H 0.35957 0.67934 0.59579 0.0
H669 H 0.26271 0.66479 0.70661 0.0
H670 H 0.28236 0.5973 0.59968 0.0
H671 H 0.24679 0.63424 0.71218 0.0
H672 H 0.24919 0.60789 0.59751 0.0
O673 O 0.3176 0.65461 0.66909 0.0
H674 H 0.37431 0.61517 0.6091 0.0
H675 H 0.36782 0.67578 0.642 0.0
H676 H 0.39785 0.65861 0.64368 0.0
H677 H 0.40125 0.62809 0.62712 0.0
H678 H 0.34447 0.63273 0.60794 0.0
H679 H 0.37529 0.70896 0.58705 0.0
H680 H 0.36747 0.73836 0.60413 0.0
O681 O 0.33355 0.67507 0.65115 0.0
C682 C 0.29154 0.68088 0.63375 0.0
C683 C 0.34735 0.72489 0.62223 0.0
C684 C 0.36501 0.70881 0.59825 0.0
N685 N 0.34312 0.69179 0.61743 0.0
C686 C 0.33867 0.70792 0.62683 0.0
C687 C 0.35604 0.69209 0.60323 0.0
C688 C 0.36062 0.7253 0.60785 0.0
C689 C 0.28916 0.61666 0.62195 0.0
N690 N 0.28277 0.63058 0.63351 0.0
C691 C 0.27721 0.60828 0.60884 0.0
C692 C 0.25861 0.61424 0.60762 0.0
C693 C 0.25219 0.62845 0.61946 0.0
C694 C 0.26455 0.63653 0.63238 0.0
C695 C 0.26064 0.62049 0.68911 0.0
C696 C 0.27836 0.65453 0.68281 0.0
C697 C 0.27348 0.62267 0.67443 0.0
N698 N 0.28208 0.63956 0.67139 0.0
C699 C 0.26561 0.65287 0.69763 0.0
C700 C 0.2567 0.63573 0.70076 0.0
C701 C 0.32891 0.66838 0.66711 0.0
C702 C 0.37302 0.62848 0.61633 0.0
C703 C 0.36915 0.66247 0.63482 0.0
C704 C 0.38621 0.65284 0.63578 0.0
C705 C 0.38812 0.63572 0.62647 0.0
N706 N 0.35442 0.65529 0.62484 0.0
C707 C 0.35618 0.63852 0.61566 0.0
Co708 Co 0.85116 0.79835 0.64035 0.0
Co709 Co 0.87723 0.8297 0.66658 0.0
O710 O 0.87134 0.81675 0.64313 0.0
C711 C 0.84231 0.82623 0.61063 0.0
O712 O 0.84402 0.8395 0.62333 0.0
C713 C 0.91411 0.81257 0.65702 0.0
O714 O 0.90573 0.7962 0.6556 0.0
O715 O 0.87754 0.80551 0.68088 0.0
O716 O 0.85716 0.78714 0.66527 0.0
H717 H 0.87007 0.84441 0.73524 0.0
H718 H 0.8798 0.80272 0.61044 0.0
O719 O 0.84476 0.80909 0.61516 0.0
H720 H 0.88466 0.73674 0.63099 0.0
H721 H 0.81189 0.75188 0.6043 0.0
H722 H 0.82189 0.78271 0.66552 0.0
H723 H 0.86126 0.75795 0.64522 0.0
H724 H 0.83742 0.77494 0.60844 0.0
O725 O 0.90469 0.82721 0.66111 0.0
H726 H 0.86249 0.82831 0.70552 0.0
H727 H 0.90542 0.85875 0.67741 0.0
H728 H 0.7963 0.75963 0.66204 0.0
H729 H 0.9033 0.78196 0.5957 0.0
H730 H 0.79117 0.74403 0.63125 0.0
H731 H 0.90587 0.74872 0.60601 0.0
O732 O 0.83261 0.81548 0.65264 0.0
H733 H 0.89287 0.87227 0.6125 0.0
H734 H 0.85935 0.86711 0.67288 0.0
H735 H 0.85789 0.89678 0.65507 0.0
H736 H 0.87476 0.89951 0.62465 0.0
H737 H 0.89382 0.8428 0.63071 0.0
H738 H 0.91357 0.87507 0.70687 0.0
H739 H 0.89579 0.86798 0.73604 0.0
O740 O 0.85006 0.83269 0.67251 0.0
C741 C 0.86784 0.7905 0.67925 0.0
C742 C 0.87789 0.84766 0.72261 0.0
C743 C 0.90232 0.86485 0.7067 0.0
N744 N 0.88341 0.84268 0.68972 0.0
C745 C 0.87362 0.83863 0.70573 0.0
C746 C 0.89767 0.85553 0.69007 0.0
C747 C 0.89233 0.86087 0.72306 0.0
C748 C 0.88074 0.78824 0.6149 0.0
N749 N 0.86913 0.78154 0.62863 0.0
C750 C 0.89412 0.77657 0.60655 0.0
C751 C 0.89556 0.75793 0.61235 0.0
C752 C 0.88368 0.7512 0.62637 0.0
C753 C 0.87049 0.76328 0.63442 0.0
C754 C 0.814 0.75856 0.61779 0.0
C755 C 0.81981 0.77591 0.6521 0.0
C756 C 0.8284 0.77166 0.62021 0.0
N757 N 0.8312 0.78008 0.63723 0.0
C758 C 0.80526 0.76289 0.65021 0.0
C759 C 0.80238 0.75416 0.63292 0.0
C760 C 0.83427 0.82735 0.66599 0.0
C761 C 0.88549 0.87127 0.62576 0.0
C762 C 0.86666 0.86815 0.65963 0.0
C763 C 0.86583 0.88501 0.64963 0.0
C764 C 0.87531 0.88654 0.63257 0.0
N765 N 0.87669 0.85325 0.65286 0.0
C766 C 0.88603 0.85464 0.63616 0.0
Co767 Co 0.6487 0.20106 0.14236 0.0
Co768 Co 0.62264 0.17204 0.17102 0.0
O769 O 0.62832 0.18315 0.14655 0.0
C770 C 0.65682 0.17194 0.11349 0.0
O771 O 0.65585 0.15904 0.12665 0.0
C772 C 0.58596 0.18799 0.15922 0.0
O773 O 0.59471 0.20369 0.15505 0.0
O774 O 0.62228 0.19726 0.18331 0.0
O775 O 0.6437 0.21357 0.16689 0.0
H776 H 0.63029 0.16298 0.2406 0.0
H777 H 0.61927 0.19598 0.11336 0.0
O778 O 0.65417 0.18916 0.11752 0.0
H779 H 0.61604 0.26283 0.13121 0.0
H780 H 0.68775 0.24518 0.10323 0.0
H781 H 0.67912 0.21701 0.16593 0.0
H782 H 0.63943 0.24183 0.14575 0.0
H783 H 0.66189 0.22289 0.1091 0.0
O784 O 0.59511 0.17404 0.16566 0.0
H785 H 0.63758 0.17668 0.20963 0.0
H786 H 0.59479 0.14369 0.18433 0.0
H787 H 0.70507 0.23934 0.16071 0.0
H788 H 0.59577 0.21652 0.09833 0.0
H789 H 0.70952 0.2536 0.12917 0.0
H790 H 0.59401 0.2502 0.10729 0.0
O791 O 0.66717 0.18407 0.15489 0.0
H792 H 0.60674 0.12522 0.12067 0.0
H793 H 0.64086 0.13537 0.18008 0.0
H794 H 0.64229 0.10437 0.16469 0.0
H795 H 0.62512 0.09913 0.13478 0.0
H796 H 0.60581 0.15605 0.13646 0.0
H797 H 0.58693 0.12974 0.21506 0.0
H798 H 0.60479 0.13933 0.24346 0.0
O799 O 0.6499 0.16959 0.17697 0.0
C800 C 0.63271 0.21165 0.1809 0.0
C801 C 0.62244 0.15865 0.22832 0.0
C802 C 0.59809 0.14001 0.21399 0.0
N803 N 0.6167 0.16091 0.19517 0.0
C804 C 0.62653 0.16632 0.21074 0.0
C805 C 0.60257 0.148 0.19664 0.0
C806 C 0.60812 0.14539 0.22992 0.0
C807 C 0.6187 0.21065 0.11721 0.0
N808 N 0.63075 0.2177 0.13038 0.0
C809 C 0.60532 0.2222 0.1087 0.0
C810 C 0.60432 0.24109 0.11375 0.0
C811 C 0.61667 0.24818 0.12719 0.0
C812 C 0.62985 0.23621 0.13542 0.0
C813 C 0.68595 0.23909 0.11704 0.0
C814 C 0.6809 0.22323 0.15219 0.0
C815 C 0.67135 0.22642 0.12044 0.0
N816 N 0.66893 0.21875 0.13787 0.0
C817 C 0.69565 0.23583 0.14931 0.0
C818 C 0.69815 0.24381 0.1316 0.0
C819 C 0.66563 0.17367 0.16944 0.0
C820 C 0.61424 0.12731 0.13372 0.0
C821 C 0.6334 0.13322 0.16704 0.0
C822 C 0.63423 0.11562 0.15841 0.0
C823 C 0.62458 0.11269 0.14164 0.0
N824 N 0.6232 0.14748 0.15922 0.0
C825 C 0.61371 0.14472 0.14276 0.0
Co826 Co 0.35247 0.70237 0.36101 0.0
Co827 Co 0.37677 0.67107 0.33305 0.0
O828 O 0.37204 0.68352 0.35706 0.0
C829 C 0.34378 0.67412 0.39047 0.0
O830 O 0.34467 0.66104 0.3775 0.0
C831 C 0.41405 0.68687 0.34298 0.0
O832 O 0.40567 0.70284 0.34685 0.0
O833 O 0.3772 0.6956 0.3194 0.0
O834 O 0.35781 0.71403 0.33612 0.0
H835 H 0.36668 0.65849 0.26433 0.0
H836 H 0.38193 0.69664 0.38986 0.0
O837 O 0.34668 0.69125 0.38618 0.0
H838 H 0.38797 0.76285 0.37039 0.0
H839 H 0.31579 0.74906 0.39945 0.0
H840 H 0.32265 0.71923 0.33731 0.0
H841 H 0.36351 0.74259 0.35658 0.0
H842 H 0.34054 0.72546 0.39389 0.0
O843 O 0.40449 0.67282 0.33741 0.0
H844 H 0.36065 0.67394 0.29474 0.0
H845 H 0.40368 0.64154 0.32039 0.0
H846 H 0.29781 0.74288 0.34221 0.0
H847 H 0.40649 0.71645 0.40417 0.0
H848 H 0.29426 0.75797 0.37348 0.0
H849 H 0.40967 0.74979 0.39439 0.0
O850 O 0.33308 0.68597 0.34907 0.0
H851 H 0.39343 0.62668 0.38533 0.0
H852 H 0.35768 0.63431 0.3265 0.0
H853 H 0.35617 0.60421 0.34359 0.0
H854 H 0.37416 0.60025 0.37322 0.0
H855 H 0.39441 0.6566 0.36787 0.0
H856 H 0.4103 0.62585 0.29021 0.0
H857 H 0.39167 0.63426 0.26193 0.0
O858 O 0.34932 0.66887 0.32811 0.0
C859 C 0.36792 0.71077 0.32171 0.0
C860 C 0.37486 0.65467 0.27656 0.0
C861 C 0.39936 0.63637 0.29108 0.0
N862 N 0.38173 0.65857 0.30934 0.0
C863 C 0.37148 0.66334 0.29383 0.0
C864 C 0.39558 0.64534 0.30812 0.0
C865 C 0.3889 0.64109 0.27522 0.0
C866 C 0.38312 0.71118 0.38566 0.0
N867 N 0.37126 0.71846 0.37243 0.0
C868 C 0.3971 0.72231 0.39376 0.0
C869 C 0.39889 0.74101 0.38824 0.0
C870 C 0.38673 0.74834 0.37476 0.0
C871 C 0.37294 0.73679 0.36695 0.0
C872 C 0.31721 0.7426 0.38576 0.0
C873 C 0.32126 0.72581 0.35092 0.0
C874 C 0.33117 0.7292 0.38254 0.0
N875 N 0.33311 0.72106 0.36526 0.0
C876 C 0.30714 0.73915 0.35363 0.0
C877 C 0.30514 0.7476 0.37118 0.0
C878 C 0.33392 0.67438 0.3354 0.0
C879 C 0.38556 0.62822 0.37241 0.0
C880 C 0.36549 0.63272 0.33942 0.0
C881 C 0.36462 0.61562 0.349 0.0
C882 C 0.37473 0.6134 0.36562 0.0
N883 N 0.37617 0.64718 0.34615 0.0
C884 C 0.38612 0.64511 0.36243 0.0
Co885 Co 0.149 0.3006 0.85831 0.0
Co886 Co 0.12177 0.32994 0.83105 0.0
O887 O 0.12824 0.31827 0.85506 0.0
C888 C 0.15723 0.32928 0.8876 0.0
O889 O 0.15538 0.34241 0.87477 0.0
C890 C 0.08554 0.313 0.84303 0.0
O891 O 0.09452 0.29724 0.8464 0.0
O892 O 0.12163 0.30507 0.81802 0.0
O893 O 0.14345 0.28853 0.83369 0.0
H894 H 0.1277 0.34117 0.76162 0.0
H895 H 0.12027 0.30472 0.88816 0.0
O896 O 0.15503 0.31207 0.88325 0.0
H897 H 0.11756 0.23815 0.86921 0.0
H898 H 0.18976 0.25625 0.89541 0.0
H899 H 0.17888 0.28547 0.83355 0.0
H900 H 0.14025 0.25975 0.85445 0.0
H901 H 0.16346 0.27832 0.89075 0.0
O902 O 0.09441 0.32729 0.83696 0.0
H903 H 0.13594 0.32673 0.79201 0.0
H904 H 0.09308 0.3581 0.81917 0.0
H905 H 0.20524 0.26336 0.83755 0.0
H906 H 0.09747 0.28357 0.90342 0.0
H907 H 0.21082 0.24858 0.86867 0.0
H908 H 0.09597 0.25003 0.89391 0.0
O909 O 0.16691 0.31808 0.8456 0.0
H910 H 0.10614 0.37493 0.88313 0.0
H911 H 0.13896 0.36726 0.82263 0.0
H912 H 0.14015 0.39782 0.83891 0.0
H913 H 0.12363 0.4018 0.86937 0.0
H914 H 0.10545 0.34457 0.86645 0.0
H915 H 0.08428 0.37277 0.78904 0.0
H916 H 0.1017 0.36438 0.76 0.0
O917 O 0.14881 0.3331 0.82457 0.0
C918 C 0.13221 0.2907 0.81992 0.0
C919 C 0.12004 0.34499 0.77418 0.0
C920 C 0.09565 0.3627 0.78957 0.0
N921 N 0.11507 0.34164 0.80736 0.0
C922 C 0.12467 0.33688 0.79144 0.0
C923 C 0.10066 0.35431 0.80658 0.0
C924 C 0.10543 0.35799 0.77328 0.0
C925 C 0.11981 0.29011 0.88406 0.0
N926 N 0.13161 0.28347 0.87045 0.0
C927 C 0.10682 0.27822 0.8927 0.0
C928 C 0.10597 0.25941 0.88734 0.0
C929 C 0.11807 0.25273 0.87347 0.0
C930 C 0.13085 0.26505 0.86512 0.0
C931 C 0.18746 0.26258 0.88178 0.0
C932 C 0.18116 0.27902 0.84711 0.0
C933 C 0.17262 0.27513 0.87907 0.0
N934 N 0.16958 0.28309 0.86186 0.0
C935 C 0.19613 0.26655 0.8493 0.0
C936 C 0.19927 0.25828 0.86677 0.0
C937 C 0.16481 0.32894 0.83147 0.0
C938 C 0.11336 0.37338 0.86984 0.0
C939 C 0.13181 0.36886 0.83591 0.0
C940 C 0.13248 0.38621 0.84504 0.0
C941 C 0.12319 0.38844 0.86213 0.0
N942 N 0.12211 0.35416 0.84355 0.0
C943 C 0.11297 0.35624 0.8603 0.0
Co944 Co 0.64268 0.85154 0.80035 0.0
Co945 Co 0.6715 0.87854 0.82787 0.0
O946 O 0.64676 0.87242 0.81766 0.0
C947 C 0.61339 0.84427 0.82932 0.0
O948 O 0.62644 0.84518 0.84234 0.0
C949 C 0.65842 0.91526 0.81304 0.0
O950 O 0.65435 0.90677 0.79717 0.0
O951 O 0.68245 0.87971 0.80216 0.0
O952 O 0.66748 0.85596 0.78785 0.0
H953 H 0.74166 0.87322 0.83336 0.0
H954 H 0.61382 0.88131 0.80398 0.0
O955 O 0.61763 0.84665 0.81211 0.0
H956 H 0.63248 0.88197 0.73728 0.0
H957 H 0.60387 0.81117 0.75713 0.0
H958 H 0.66625 0.82044 0.78577 0.0
H959 H 0.64665 0.8593 0.7593 0.0
H960 H 0.60961 0.83775 0.77861 0.0
O961 O 0.66521 0.90594 0.82671 0.0
H962 H 0.71035 0.86518 0.82093 0.0
H963 H 0.68518 0.9061 0.85631 0.0
H964 H 0.66117 0.79377 0.76425 0.0
H965 H 0.59916 0.90411 0.7824 0.0
H966 H 0.62979 0.78901 0.74976 0.0
H967 H 0.60853 0.90457 0.74879 0.0
O968 O 0.65484 0.83373 0.81826 0.0
H969 H 0.62303 0.89201 0.87735 0.0
H970 H 0.68273 0.85969 0.8636 0.0
H971 H 0.66887 0.85714 0.89524 0.0
H972 H 0.63882 0.8734 0.90229 0.0
H973 H 0.63731 0.89406 0.84584 0.0
H974 H 0.71625 0.91469 0.86901 0.0
H975 H 0.74475 0.89814 0.85758 0.0
O976 O 0.67849 0.85137 0.82943 0.0
C977 C 0.68066 0.86808 0.78864 0.0
C978 C 0.72934 0.88048 0.8385 0.0
C979 C 0.71508 0.90378 0.85849 0.0
N980 N 0.69594 0.88503 0.83801 0.0
C981 C 0.71156 0.87595 0.83157 0.0
C982 C 0.69753 0.89887 0.85122 0.0
C983 C 0.73107 0.89448 0.85208 0.0
C984 C 0.61785 0.88131 0.78934 0.0
N985 N 0.63104 0.86895 0.7829 0.0
C986 C 0.60955 0.8943 0.7772 0.0
C987 C 0.61483 0.89457 0.75835 0.0
C988 C 0.62828 0.8819 0.75189 0.0
C989 C 0.6363 0.86913 0.76444 0.0
C990 C 0.61761 0.81312 0.76333 0.0
C991 C 0.65258 0.81851 0.77945 0.0
C992 C 0.62093 0.82811 0.77554 0.0
N993 N 0.63828 0.83071 0.78334 0.0
C994 C 0.64978 0.80336 0.76731 0.0
C995 C 0.63216 0.80069 0.7592 0.0
C996 C 0.67037 0.83559 0.827 0.0
C997 C 0.63616 0.8849 0.87447 0.0
C998 C 0.66963 0.86677 0.86654 0.0
C999 C 0.66186 0.86531 0.8845 0.0
C1000 C 0.64501 0.87444 0.88845 0.0
N1001 N 0.66088 0.8771 0.85292 0.0
C1002 C 0.64434 0.88607 0.85668 0.0
Co1003 Co 0.86083 0.15093 0.29803 0.0
Co1004 Co 0.83383 0.12434 0.32815 0.0
O1005 O 0.85766 0.13051 0.31607 0.0
C1006 C 0.89002 0.15976 0.3265 0.0
O1007 O 0.87706 0.1584 0.33956 0.0
C1008 C 0.84432 0.0875 0.31142 0.0
O1009 O 0.84582 0.09574 0.29498 0.0
O1010 O 0.82047 0.12388 0.30345 0.0
O1011 O 0.83611 0.14519 0.28622 0.0
H1012 H 0.76457 0.13048 0.34022 0.0
H1013 H 0.89056 0.12213 0.3025 0.0
O1014 O 0.88582 0.15708 0.30932 0.0
H1015 H 0.87129 0.11841 0.23607 0.0
H1016 H 0.89781 0.19084 0.25284 0.0
H1017 H 0.83605 0.18058 0.28247 0.0
H1018 H 0.85671 0.1415 0.25737 0.0
H1019 H 0.89318 0.16495 0.2754 0.0
O1020 O 0.8398 0.09696 0.32591 0.0
H1021 H 0.79476 0.13852 0.32527 0.0
H1022 H 0.82232 0.09601 0.35681 0.0
H1023 H 0.84001 0.20655 0.25988 0.0
H1024 H 0.90565 0.09893 0.28165 0.0
H1025 H 0.87108 0.21181 0.24489 0.0
H1026 H 0.89598 0.09694 0.24818 0.0
O1027 O 0.84826 0.16918 0.31524 0.0
H1028 H 0.88641 0.10942 0.37279 0.0
H1029 H 0.82589 0.14223 0.36524 0.0
H1030 H 0.84252 0.14393 0.39557 0.0
H1031 H 0.873 0.12741 0.3995 0.0
H1032 H 0.86938 0.10822 0.34264 0.0
H1033 H 0.79239 0.08741 0.37199 0.0
H1034 H 0.76325 0.10475 0.36376 0.0
O1035 O 0.82741 0.15144 0.33092 0.0
C1036 C 0.82229 0.13411 0.28881 0.0
C1037 C 0.77718 0.12286 0.34397 0.0
C1038 C 0.79279 0.09867 0.36178 0.0
N1039 N 0.8103 0.11784 0.34026 0.0
C1040 C 0.79432 0.12738 0.33558 0.0
C1041 C 0.80969 0.10357 0.3531 0.0
C1042 C 0.77645 0.10841 0.35716 0.0
C1043 C 0.88638 0.12144 0.28792 0.0
N1044 N 0.87281 0.1332 0.28115 0.0
C1045 C 0.89493 0.10824 0.2762 0.0
C1046 C 0.88949 0.10711 0.25743 0.0
C1047 C 0.87563 0.11914 0.25063 0.0
C1048 C 0.86738 0.13216 0.26277 0.0
C1049 C 0.8842 0.18867 0.25926 0.0
C1050 C 0.84958 0.18272 0.27593 0.0
C1051 C 0.88151 0.17407 0.27208 0.0
N1052 N 0.86433 0.17119 0.28015 0.0
C1053 C 0.85175 0.19747 0.26318 0.0
C1054 C 0.86919 0.20043 0.2548 0.0
C1055 C 0.83428 0.16733 0.32634 0.0
C1056 C 0.87312 0.11664 0.37127 0.0
C1057 C 0.83918 0.13506 0.36681 0.0
C1058 C 0.84851 0.13603 0.38404 0.0
C1059 C 0.8656 0.12675 0.38624 0.0
N1060 N 0.84663 0.12508 0.3522 0.0
C1061 C 0.86338 0.11595 0.35425 0.0
Co1062 Co 0.14094 0.6492 0.20231 0.0
Co1063 Co 0.17084 0.62251 0.17565 0.0
O1064 O 0.14575 0.62828 0.18522 0.0
C1065 C 0.11212 0.65576 0.17269 0.0
O1066 O 0.12538 0.65463 0.15992 0.0
C1067 C 0.15791 0.5856 0.19019 0.0
O1068 O 0.15335 0.594 0.20597 0.0
O1069 O 0.1812 0.6216 0.20162 0.0
O1070 O 0.16551 0.64523 0.21536 0.0
H1071 H 0.24101 0.62899 0.17178 0.0
H1072 H 0.11268 0.61895 0.19818 0.0
O1073 O 0.11608 0.65369 0.19001 0.0
H1074 H 0.12975 0.61897 0.26531 0.0
H1075 H 0.10063 0.6892 0.24449 0.0
H1076 H 0.16372 0.68073 0.2172 0.0
H1077 H 0.14404 0.64175 0.2435 0.0
H1078 H 0.10722 0.66259 0.2233 0.0
O1079 O 0.16493 0.59503 0.17671 0.0
H1080 H 0.20929 0.63656 0.18342 0.0
H1081 H 0.18565 0.59506 0.14767 0.0
H1082 H 0.15779 0.70743 0.23847 0.0
H1083 H 0.09789 0.59602 0.21954 0.0
H1084 H 0.12605 0.71179 0.25227 0.0
H1085 H 0.10646 0.5959 0.25336 0.0
O1086 O 0.1532 0.6671 0.18455 0.0
H1087 H 0.12385 0.60814 0.125 0.0
H1088 H 0.18265 0.64145 0.14015 0.0
H1089 H 0.16955 0.64369 0.10816 0.0
H1090 H 0.13996 0.62692 0.1004 0.0
H1091 H 0.13735 0.60641 0.15686 0.0
H1092 H 0.21714 0.58693 0.13574 0.0
H1093 H 0.24509 0.604 0.14776 0.0
O1094 O 0.17745 0.64977 0.17417 0.0
C1095 C 0.17892 0.63334 0.21499 0.0
C1096 C 0.22894 0.62149 0.16638 0.0
C1097 C 0.21554 0.59787 0.14618 0.0
N1098 N 0.19562 0.61637 0.16612 0.0
C1099 C 0.21093 0.62576 0.17288 0.0
C1100 C 0.19775 0.60251 0.15301 0.0
C1101 C 0.23122 0.60746 0.15292 0.0
C1102 C 0.11636 0.61908 0.21291 0.0
N1103 N 0.12918 0.6317 0.21959 0.0
C1104 C 0.10799 0.60602 0.22493 0.0
C1105 C 0.11282 0.60595 0.2439 0.0
C1106 C 0.1259 0.61887 0.25061 0.0
C1107 C 0.134 0.63171 0.23817 0.0
C1108 C 0.11452 0.68743 0.23859 0.0
C1109 C 0.1499 0.68248 0.22322 0.0
C1110 C 0.11832 0.67243 0.22653 0.0
N1111 N 0.13587 0.67005 0.21911 0.0
C1112 C 0.14661 0.69765 0.23522 0.0
C1113 C 0.12879 0.7001 0.24295 0.0
C1114 C 0.169 0.66543 0.17625 0.0
C1115 C 0.13678 0.61546 0.12819 0.0
C1116 C 0.16974 0.63415 0.1369 0.0
C1117 C 0.16241 0.63544 0.11875 0.0
C1118 C 0.14581 0.62602 0.11441 0.0
N1119 N 0.16082 0.62372 0.15033 0.0
C1120 C 0.14453 0.61447 0.14619 0.0
Co1121 Co 0.35882 0.349 0.70232 0.0
Co1122 Co 0.33393 0.37748 0.67212 0.0
O1123 O 0.3571 0.37016 0.68488 0.0
C1124 C 0.38929 0.34122 0.67491 0.0
O1125 O 0.37732 0.34476 0.66133 0.0
C1126 C 0.34465 0.41387 0.68991 0.0
O1127 O 0.34499 0.40552 0.70635 0.0
O1128 O 0.31982 0.3779 0.69639 0.0
O1129 O 0.33378 0.35515 0.71321 0.0
H1130 H 0.26491 0.37419 0.65776 0.0
H1131 H 0.38962 0.37693 0.70023 0.0
O1132 O 0.38411 0.34233 0.69199 0.0
H1133 H 0.36737 0.37908 0.76579 0.0
H1134 H 0.39235 0.30643 0.74779 0.0
H1135 H 0.33244 0.31964 0.71564 0.0
H1136 H 0.35307 0.35722 0.74305 0.0
H1137 H 0.3896 0.33322 0.72599 0.0
O1138 O 0.34077 0.40459 0.67512 0.0
H1139 H 0.29429 0.36474 0.67348 0.0
H1140 H 0.32439 0.40678 0.64369 0.0
H1141 H 0.33453 0.2928 0.73744 0.0
H1142 H 0.40443 0.39891 0.72255 0.0
H1143 H 0.36466 0.28605 0.7537 0.0
H1144 H 0.39328 0.4001 0.75559 0.0
O1145 O 0.34654 0.33176 0.68392 0.0
H1146 H 0.38841 0.39162 0.62955 0.0
H1147 H 0.32665 0.36068 0.63438 0.0
H1148 H 0.34421 0.35909 0.60458 0.0
H1149 H 0.37532 0.37466 0.60202 0.0
H1150 H 0.37044 0.39271 0.65915 0.0
H1151 H 0.2953 0.41678 0.62776 0.0
H1152 H 0.2653 0.40039 0.63471 0.0
O1153 O 0.32659 0.3507 0.66851 0.0
C1154 C 0.3206 0.367 0.71063 0.0
C1155 C 0.27791 0.3814 0.65457 0.0
C1156 C 0.29496 0.40532 0.63775 0.0
N1157 N 0.31107 0.3851 0.65941 0.0
C1158 C 0.2946 0.37608 0.66339 0.0
C1159 C 0.31138 0.39962 0.64685 0.0
C1160 C 0.27813 0.39612 0.64165 0.0
C1161 C 0.38479 0.37727 0.71462 0.0
N1162 N 0.37055 0.36575 0.72034 0.0
C1163 C 0.39319 0.38979 0.72718 0.0
C1164 C 0.3869 0.39046 0.74571 0.0
C1165 C 0.37236 0.37868 0.75144 0.0
C1166 C 0.36428 0.36636 0.73848 0.0
C1167 C 0.37914 0.30924 0.74081 0.0
C1168 C 0.34558 0.31685 0.72273 0.0
C1169 C 0.37752 0.32436 0.72841 0.0
N1170 N 0.36085 0.32805 0.71963 0.0
C1171 C 0.34669 0.30161 0.73503 0.0
C1172 C 0.3636 0.29782 0.74413 0.0
C1173 C 0.33286 0.33444 0.67264 0.0
C1174 C 0.37485 0.38482 0.63048 0.0
C1175 C 0.3402 0.36742 0.63341 0.0
C1176 C 0.35006 0.36652 0.61648 0.0
C1177 C 0.36751 0.37527 0.61504 0.0
N1178 N 0.34749 0.37681 0.64849 0.0
C1179 C 0.36458 0.38545 0.64718 0.0
Co1180 Co 0.8008 0.64314 0.85014 0.0
Co1181 Co 0.82881 0.67016 0.87846 0.0
O1182 O 0.81769 0.64603 0.87158 0.0
C1183 C 0.82877 0.61291 0.84335 0.0
O1184 O 0.84212 0.62551 0.84518 0.0
C1185 C 0.81261 0.65708 0.91466 0.0
O1186 O 0.7967 0.6539 0.90588 0.0
O1187 O 0.80349 0.68214 0.87927 0.0
O1188 O 0.7894 0.66843 0.85461 0.0
H1189 H 0.83763 0.74007 0.87432 0.0
H1190 H 0.80224 0.61348 0.87933 0.0
O1191 O 0.81162 0.61767 0.84509 0.0
H1192 H 0.7366 0.63558 0.87885 0.0
H1193 H 0.75695 0.60698 0.80806 0.0
H1194 H 0.78844 0.66772 0.81884 0.0
H1195 H 0.75988 0.64909 0.85705 0.0
H1196 H 0.77784 0.61137 0.83535 0.0
O1197 O 0.82671 0.66342 0.90568 0.0
H1198 H 0.82406 0.70945 0.86546 0.0
H1199 H 0.85695 0.68217 0.9071 0.0
H1200 H 0.76755 0.66399 0.79146 0.0
H1201 H 0.77937 0.59945 0.90127 0.0
H1202 H 0.75163 0.63343 0.78593 0.0
H1203 H 0.7463 0.61054 0.90115 0.0
O1204 O 0.81958 0.65487 0.83307 0.0
H1205 H 0.87573 0.61927 0.89219 0.0
H1206 H 0.86557 0.68027 0.86097 0.0
H1207 H 0.89664 0.6651 0.85902 0.0
H1208 H 0.90188 0.63439 0.87473 0.0
H1209 H 0.84483 0.63487 0.89365 0.0
H1210 H 0.87075 0.71252 0.91653 0.0
H1211 H 0.86115 0.74173 0.90004 0.0
O1212 O 0.83148 0.67754 0.85144 0.0
C1213 C 0.79036 0.68123 0.86711 0.0
C1214 C 0.84196 0.72743 0.88158 0.0
C1215 C 0.86054 0.71197 0.90529 0.0
N1216 N 0.8398 0.69403 0.88566 0.0
C1217 C 0.83436 0.71004 0.87659 0.0
C1218 C 0.85264 0.69483 0.89992 0.0
C1219 C 0.85515 0.72836 0.89602 0.0
C1220 C 0.78783 0.61825 0.87908 0.0
N1221 N 0.78238 0.63201 0.86686 0.0
C1222 C 0.77497 0.61031 0.89158 0.0
C1223 C 0.75642 0.61656 0.89153 0.0
C1224 C 0.75097 0.63061 0.87903 0.0
C1225 C 0.76422 0.63824 0.86675 0.0
C1226 C 0.76376 0.62037 0.81034 0.0
C1227 C 0.78145 0.65443 0.81661 0.0
C1228 C 0.77563 0.62294 0.82575 0.0
N1229 N 0.7842 0.63985 0.82879 0.0
C1230 C 0.76969 0.65238 0.80104 0.0
C1231 C 0.76078 0.63522 0.79794 0.0
C1232 C 0.829 0.66995 0.83539 0.0
C1233 C 0.87363 0.63268 0.88532 0.0
C1234 C 0.86772 0.66688 0.86779 0.0
C1235 C 0.88536 0.65838 0.86667 0.0
C1236 C 0.88829 0.64115 0.87551 0.0
N1237 N 0.85342 0.65849 0.87747 0.0
C1238 C 0.85619 0.64161 0.88616 0.0
Co1239 Co 0.29926 0.85769 0.15064 0.0
Co1240 Co 0.32729 0.83017 0.1228 0.0
O1241 O 0.31623 0.85442 0.12931 0.0
C1242 C 0.32736 0.88786 0.1573 0.0
O1243 O 0.34067 0.87517 0.15594 0.0
C1244 C 0.31125 0.84286 0.08635 0.0
O1245 O 0.29539 0.84646 0.09505 0.0
O1246 O 0.30193 0.81823 0.12213 0.0
O1247 O 0.28773 0.83242 0.14645 0.0
H1248 H 0.3359 0.76031 0.12802 0.0
H1249 H 0.301 0.88698 0.12108 0.0
O1250 O 0.31021 0.88316 0.15539 0.0
H1251 H 0.23524 0.86526 0.12153 0.0
H1252 H 0.25542 0.89469 0.19201 0.0
H1253 H 0.2866 0.83362 0.18222 0.0
H1254 H 0.25834 0.85188 0.14361 0.0
H1255 H 0.27643 0.8898 0.1649 0.0
O1256 O 0.32525 0.83647 0.09547 0.0
H1257 H 0.32241 0.7911 0.1364 0.0
H1258 H 0.35546 0.81764 0.09441 0.0
H1259 H 0.26559 0.83785 0.20943 0.0
H1260 H 0.27832 0.90086 0.09888 0.0
H1261 H 0.24982 0.86857 0.21446 0.0
H1262 H 0.24518 0.88996 0.09898 0.0
O1263 O 0.31789 0.84607 0.16797 0.0
H1264 H 0.37428 0.8808 0.10843 0.0
H1265 H 0.36404 0.82021 0.14042 0.0
H1266 H 0.39512 0.83537 0.1422 0.0
H1267 H 0.40041 0.86588 0.1261 0.0
H1268 H 0.34336 0.86521 0.10715 0.0
H1269 H 0.36919 0.78711 0.08547 0.0
H1270 H 0.35947 0.75817 0.10239 0.0
O1271 O 0.32992 0.8232 0.14992 0.0
C1272 C 0.28872 0.81941 0.13418 0.0
C1273 C 0.34029 0.77282 0.12058 0.0
C1274 C 0.35895 0.78786 0.09668 0.0
N1275 N 0.33823 0.80616 0.11598 0.0
C1276 C 0.33273 0.7903 0.12529 0.0
C1277 C 0.35109 0.8051 0.10177 0.0
C1278 C 0.3535 0.77163 0.10618 0.0
C1279 C 0.28657 0.88229 0.12133 0.0
N1280 N 0.28099 0.86871 0.13369 0.0
C1281 C 0.2738 0.89015 0.10867 0.0
C1282 C 0.25522 0.88401 0.10872 0.0
C1283 C 0.24964 0.87014 0.12136 0.0
C1284 C 0.26279 0.86258 0.1338 0.0
C1285 C 0.26217 0.88122 0.18994 0.0
C1286 C 0.27969 0.84698 0.18423 0.0
C1287 C 0.2741 0.87838 0.17463 0.0
N1288 N 0.28258 0.86137 0.17187 0.0
C1289 C 0.26785 0.84931 0.1997 0.0
C1290 C 0.25903 0.86656 0.20253 0.0
C1291 C 0.32737 0.831 0.16586 0.0
C1292 C 0.37217 0.86749 0.11547 0.0
C1293 C 0.3662 0.83352 0.13343 0.0
C1294 C 0.38385 0.84201 0.13445 0.0
C1295 C 0.38681 0.85912 0.1254 0.0
N1296 N 0.35192 0.84179 0.12363 0.0
C1297 C 0.35471 0.85857 0.11474 0.0
Co1298 Co 0.20287 0.14202 0.65057 0.0
Co1299 Co 0.17193 0.16742 0.62332 0.0
O1300 O 0.18478 0.14409 0.63002 0.0
C1301 C 0.17543 0.11173 0.65899 0.0
O1302 O 0.16184 0.12373 0.6556 0.0
C1303 C 0.18881 0.15692 0.58648 0.0
O1304 O 0.20541 0.15646 0.59449 0.0
O1305 O 0.19621 0.18149 0.62243 0.0
O1306 O 0.21381 0.16699 0.64424 0.0
H1307 H 0.15782 0.23644 0.62783 0.0
H1308 H 0.19952 0.11147 0.62251 0.0
O1309 O 0.19251 0.11681 0.65747 0.0
H1310 H 0.26521 0.133 0.61838 0.0
H1311 H 0.24936 0.10776 0.69142 0.0
H1312 H 0.21735 0.16806 0.67967 0.0
H1313 H 0.24337 0.14736 0.6411 0.0
H1314 H 0.22674 0.11091 0.66536 0.0
O1315 O 0.17424 0.16087 0.59606 0.0
H1316 H 0.17373 0.20691 0.6365 0.0
H1317 H 0.1428 0.17738 0.59488 0.0
H1318 H 0.23998 0.16558 0.70578 0.0
H1319 H 0.22093 0.0966 0.59968 0.0
H1320 H 0.25617 0.13526 0.71179 0.0
H1321 H 0.25403 0.10739 0.59749 0.0
O1322 O 0.18515 0.15433 0.66847 0.0
H1323 H 0.12876 0.11331 0.60956 0.0
H1324 H 0.13472 0.17459 0.64129 0.0
H1325 H 0.1049 0.15712 0.64344 0.0
H1326 H 0.10177 0.12625 0.62747 0.0
H1327 H 0.15839 0.13117 0.60792 0.0
H1328 H 0.12667 0.20663 0.58567 0.0
H1329 H 0.1341 0.23642 0.60224 0.0
O1330 O 0.16904 0.17444 0.65029 0.0
C1331 C 0.21086 0.1804 0.63275 0.0
C1332 C 0.15442 0.22354 0.62054 0.0
C1333 C 0.13696 0.20681 0.59686 0.0
N1334 N 0.1591 0.19042 0.6163 0.0
C1335 C 0.16334 0.20676 0.62542 0.0
C1336 C 0.14617 0.1903 0.60211 0.0
C1337 C 0.14113 0.22352 0.60617 0.0
C1338 C 0.21394 0.11615 0.62173 0.0
N1339 N 0.2202 0.13022 0.63317 0.0
C1340 C 0.22598 0.10771 0.60874 0.0
C1341 C 0.24454 0.11379 0.6075 0.0
C1342 C 0.25082 0.12817 0.61921 0.0
C1343 C 0.23838 0.13628 0.63201 0.0
C1344 C 0.24242 0.12106 0.68892 0.0
C1345 C 0.22441 0.15485 0.68214 0.0
C1346 C 0.22956 0.12291 0.67422 0.0
N1347 N 0.22082 0.13968 0.67094 0.0
C1348 C 0.23718 0.15352 0.69697 0.0
C1349 C 0.24624 0.13649 0.70035 0.0
C1350 C 0.17374 0.168 0.66632 0.0
C1351 C 0.12993 0.12676 0.61654 0.0
C1352 C 0.1335 0.16114 0.63437 0.0
C1353 C 0.11656 0.15133 0.63559 0.0
C1354 C 0.11481 0.13402 0.62661 0.0
N1355 N 0.14828 0.15393 0.62444 0.0
C1356 C 0.14666 0.13698 0.61559 0.0
Co1357 Co 0.70293 0.36022 0.3515 0.0
Co1358 Co 0.67311 0.33246 0.37764 0.0
O1359 O 0.68489 0.35655 0.37183 0.0
C1360 C 0.67419 0.38925 0.34297 0.0
O1361 O 0.66124 0.37616 0.34411 0.0
C1362 C 0.68963 0.34282 0.41458 0.0
O1363 O 0.70599 0.34484 0.4063 0.0
O1364 O 0.69797 0.31941 0.37797 0.0
O1365 O 0.71499 0.33557 0.3569 0.0
H1366 H 0.66192 0.26314 0.37046 0.0
H1367 H 0.69805 0.38948 0.38071 0.0
O1368 O 0.69138 0.38517 0.34568 0.0
H1369 H 0.76469 0.37094 0.3843 0.0
H1370 H 0.74779 0.39826 0.31222 0.0
H1371 H 0.7188 0.33604 0.32152 0.0
H1372 H 0.74361 0.35645 0.36094 0.0
H1373 H 0.72524 0.39303 0.33799 0.0
O1374 O 0.67524 0.33806 0.4051 0.0
H1375 H 0.67652 0.29363 0.36291 0.0
H1376 H 0.64454 0.32018 0.40572 0.0
H1377 H 0.7414 0.34061 0.29568 0.0
H1378 H 0.71868 0.40446 0.40419 0.0
H1379 H 0.75607 0.37191 0.2909 0.0
H1380 H 0.75224 0.39516 0.40611 0.0
O1381 O 0.68589 0.34773 0.33304 0.0
H1382 H 0.62776 0.38425 0.39323 0.0
H1383 H 0.6362 0.32433 0.35951 0.0
H1384 H 0.60566 0.34059 0.35798 0.0
H1385 H 0.60128 0.37077 0.37495 0.0
H1386 H 0.65812 0.36759 0.39425 0.0
H1387 H 0.62971 0.28994 0.41383 0.0
H1388 H 0.63833 0.26115 0.39609 0.0
O1389 O 0.67049 0.3264 0.35044 0.0
C1390 C 0.71258 0.32155 0.36778 0.0
C1391 C 0.658 0.27559 0.37825 0.0
C1392 C 0.63994 0.29063 0.40261 0.0
N1393 N 0.66129 0.30869 0.38377 0.0
C1394 C 0.66618 0.2929 0.37401 0.0
C1395 C 0.64842 0.3077 0.39799 0.0
C1396 C 0.64478 0.27448 0.39265 0.0
C1397 C 0.71268 0.38546 0.38138 0.0
N1398 N 0.71963 0.37214 0.36943 0.0
C1399 C 0.72427 0.39395 0.39473 0.0
C1400 C 0.7431 0.38871 0.39582 0.0
C1401 C 0.75009 0.37511 0.3836 0.0
C1402 C 0.73807 0.36691 0.37043 0.0
C1403 C 0.74152 0.38455 0.31418 0.0
C1404 C 0.72519 0.34967 0.3196 0.0
C1405 C 0.7287 0.38152 0.32872 0.0
N1406 N 0.7208 0.36421 0.33133 0.0
C1407 C 0.73795 0.35219 0.30491 0.0
C1408 C 0.74616 0.36976 0.30222 0.0
C1409 C 0.67499 0.33357 0.33467 0.0
C1410 C 0.62948 0.37109 0.38581 0.0
C1411 C 0.63443 0.33748 0.36688 0.0
C1412 C 0.61708 0.3466 0.366 0.0
C1413 C 0.61463 0.36353 0.37553 0.0
N1414 N 0.64891 0.34497 0.37702 0.0
C1415 C 0.64661 0.36156 0.38639 0.0
H1416 H 0.14878 0.30476 0.16595 0.0
H1417 H 0.13911 0.28697 0.19347 0.0
H1418 H 0.17414 0.32172 0.22856 0.0
H1419 H 0.18415 0.33967 0.20094 0.0
H1420 H 0.18004 0.28312 0.23306 0.0
H1421 H 0.10402 0.29964 0.23713 0.0
H1422 H 0.11162 0.29194 0.21435 0.0
H1423 H 0.12036 0.3137 0.22375 0.0
C1424 C 0.15426 0.30891 0.17952 0.0
C1425 C 0.16727 0.32373 0.18118 0.0
C1426 C 0.14858 0.29874 0.19529 0.0
C1427 C 0.15568 0.30318 0.2131 0.0
C1428 C 0.16837 0.31818 0.21494 0.0
H1429 H 0.15138 0.24754 0.32101 0.0
H1430 H 0.1553 0.26969 0.29532 0.0
C1431 C 0.17405 0.32844 0.19914 0.0
C1432 C 0.15111 0.29108 0.22944 0.0
H1433 H 0.11475 0.27377 0.2556 0.0
C1434 C 0.16579 0.28123 0.23812 0.0
C1435 C 0.13247 0.28845 0.23584 0.0
C1436 C 0.11621 0.29911 0.22741 0.0
C1437 C 0.16234 0.26856 0.25281 0.0
C1438 C 0.14371 0.26594 0.25925 0.0
C1439 C 0.12899 0.27579 0.2506 0.0
C1440 C 0.13947 0.2533 0.27525 0.0
C1441 C 0.17862 0.25773 0.26101 0.0
C1442 C 0.12849 0.2371 0.27273 0.0
C1443 C 0.12601 0.22435 0.28754 0.0
C1444 C 0.13449 0.22766 0.3051 0.0
C1445 C 0.14473 0.24439 0.3077 0.0
C1446 C 0.14709 0.25708 0.29298 0.0
H1447 H 0.19093 0.25762 0.25141 0.0
H1448 H 0.18303 0.26444 0.27437 0.0
H1449 H 0.17456 0.24299 0.26409 0.0
H1450 H 0.12238 0.23401 0.25914 0.0
H1451 H 0.11804 0.21164 0.28504 0.0
H1452 H 0.38551 0.79193 0.78607 0.0
H1453 H 0.38129 0.76916 0.76051 0.0
H1454 H 0.34816 0.73408 0.79708 0.0
H1455 H 0.35197 0.75662 0.82244 0.0
H1456 H 0.38885 0.72915 0.75776 0.0
H1457 H 0.31281 0.74572 0.75269 0.0
H1458 H 0.32919 0.76051 0.76517 0.0
H1459 H 0.32053 0.73932 0.77583 0.0
C1460 C 0.37752 0.77926 0.78874 0.0
C1461 C 0.36895 0.77624 0.80631 0.0
C1462 C 0.37512 0.76628 0.77412 0.0
C1463 C 0.36412 0.75013 0.77684 0.0
C1464 C 0.35639 0.74664 0.79459 0.0
H1465 H 0.31911 0.66276 0.70407 0.0
H1466 H 0.32919 0.68119 0.73134 0.0
C1467 C 0.35869 0.75956 0.80912 0.0
C1468 C 0.35992 0.73725 0.76102 0.0
H1469 H 0.32367 0.71982 0.7349 0.0
C1470 C 0.37463 0.72713 0.75268 0.0
C1471 C 0.34133 0.73465 0.75448 0.0
C1472 C 0.32506 0.74573 0.76236 0.0
C1473 C 0.37118 0.7142 0.73815 0.0
C1474 C 0.35257 0.71157 0.73167 0.0
C1475 C 0.33789 0.72171 0.74002 0.0
C1476 C 0.34801 0.69912 0.71558 0.0
C1477 C 0.38742 0.70324 0.73008 0.0
C1478 C 0.35531 0.70304 0.69773 0.0
C1479 C 0.34959 0.69259 0.68215 0.0
C1480 C 0.33634 0.67801 0.68406 0.0
C1481 C 0.32939 0.6738 0.70208 0.0
C1482 C 0.33511 0.68434 0.71767 0.0
H1483 H 0.39952 0.70282 0.73992 0.0
H1484 H 0.38319 0.68862 0.72668 0.0
H1485 H 0.39218 0.71011 0.71692 0.0
H1486 H 0.36494 0.71464 0.6957 0.0
H1487 H 0.35521 0.69635 0.66853 0.0
H1488 H 0.65119 0.25368 0.68087 0.0
H1489 H 0.65452 0.23163 0.70666 0.0
H1490 H 0.62144 0.26781 0.74222 0.0
H1491 H 0.61767 0.29007 0.71617 0.0
H1492 H 0.67202 0.24054 0.74007 0.0
H1493 H 0.59919 0.21552 0.75272 0.0
H1494 H 0.60607 0.22723 0.73128 0.0
H1495 H 0.60205 0.24061 0.75229 0.0
C1496 C 0.64427 0.25691 0.69402 0.0
C1497 C 0.63414 0.27374 0.69639 0.0
C1498 C 0.64625 0.24423 0.70879 0.0
C1499 C 0.63815 0.24799 0.72632 0.0
C1500 C 0.62753 0.26446 0.72869 0.0
H1501 H 0.65045 0.19758 0.83573 0.0
H1502 H 0.64092 0.21567 0.80832 0.0
C1503 C 0.62545 0.27721 0.71381 0.0
C1504 C 0.64232 0.23536 0.74237 0.0
H1505 H 0.62239 0.20611 0.77477 0.0
C1506 C 0.66118 0.23292 0.74759 0.0
C1507 C 0.62814 0.22551 0.75219 0.0
C1508 C 0.60772 0.22717 0.74679 0.0
C1509 C 0.66625 0.22111 0.76251 0.0
C1510 C 0.6521 0.21116 0.77228 0.0
C1511 C 0.63321 0.21363 0.76713 0.0
C1512 C 0.65666 0.1989 0.78849 0.0
C1513 C 0.68669 0.21979 0.76802 0.0
C1514 C 0.6683 0.1831 0.78638 0.0
C1515 C 0.67388 0.17266 0.80209 0.0
C1516 C 0.66783 0.17782 0.82019 0.0
C1517 C 0.6555 0.19319 0.82207 0.0
C1518 C 0.64996 0.20357 0.80639 0.0
H1519 H 0.6951 0.2315 0.76204 0.0
H1520 H 0.68829 0.21994 0.78354 0.0
H1521 H 0.6926 0.2064 0.76268 0.0
H1522 H 0.67337 0.17908 0.77261 0.0
H1523 H 0.68331 0.16089 0.80009 0.0
H1524 H 0.8864 0.71535 0.21232 0.0
H1525 H 0.88147 0.73832 0.2375 0.0
H1526 H 0.84484 0.77026 0.20138 0.0
H1527 H 0.84931 0.74738 0.17637 0.0
H1528 H 0.88653 0.77804 0.23988 0.0
H1529 H 0.81153 0.75774 0.24666 0.0
H1530 H 0.82827 0.74385 0.23366 0.0
H1531 H 0.81832 0.76466 0.22338 0.0
C1532 C 0.87747 0.72737 0.20965 0.0
C1533 C 0.8681 0.72936 0.19235 0.0
C1534 C 0.87467 0.74048 0.22406 0.0
C1535 C 0.86248 0.75577 0.22141 0.0
C1536 C 0.85397 0.75834 0.20385 0.0
H1537 H 0.81558 0.84006 0.29703 0.0
H1538 H 0.82561 0.82281 0.26899 0.0
C1539 C 0.85665 0.74525 0.18952 0.0
C1540 C 0.85794 0.76859 0.23719 0.0
H1541 H 0.82159 0.78386 0.26451 0.0
C1542 C 0.87235 0.77932 0.2453 0.0
C1543 C 0.83941 0.77022 0.24422 0.0
C1544 C 0.82351 0.7584 0.23667 0.0
C1545 C 0.86867 0.79182 0.26014 0.0
C1546 C 0.85014 0.79341 0.26717 0.0
C1547 C 0.83574 0.78275 0.25898 0.0
C1548 C 0.84548 0.80516 0.28373 0.0
C1549 C 0.88457 0.80338 0.26803 0.0
C1550 C 0.85337 0.801 0.30128 0.0
C1551 C 0.84767 0.81076 0.3173 0.0
C1552 C 0.83387 0.8249 0.31615 0.0
C1553 C 0.8263 0.82935 0.29844 0.0
C1554 C 0.83198 0.81949 0.2824 0.0
H1555 H 0.89638 0.80458 0.2579 0.0
H1556 H 0.87974 0.81772 0.27183 0.0
H1557 H 0.88998 0.7965 0.28093 0.0
H1558 H 0.86349 0.78973 0.30271 0.0
H1559 H 0.85378 0.80683 0.33066 0.0
H1560 H 0.32029 0.15028 0.24448 0.0
H1561 H 0.29472 0.15345 0.26685 0.0
H1562 H 0.2595 0.11871 0.23193 0.0
H1563 H 0.28513 0.11549 0.20914 0.0
H1564 H 0.24328 0.15299 0.24206 0.0
H1565 H 0.27197 0.11714 0.30495 0.0
H1566 H 0.28764 0.13426 0.2951 0.0
H1567 H 0.28155 0.11372 0.28171 0.0
C1568 C 0.30725 0.14299 0.2416 0.0
C1569 C 0.30483 0.13258 0.22494 0.0
C1570 C 0.29265 0.14475 0.25454 0.0
C1571 C 0.2753 0.1361 0.25122 0.0
C1572 C 0.27287 0.12537 0.23483 0.0
H1573 H 0.16691 0.14782 0.30538 0.0
H1574 H 0.19352 0.13737 0.2867 0.0
C1575 C 0.28754 0.12352 0.22184 0.0
C1576 C 0.2593 0.13978 0.26404 0.0
H1577 H 0.24535 0.13706 0.30991 0.0
C1578 C 0.24362 0.1493 0.25684 0.0
C1579 C 0.25989 0.13514 0.28337 0.0
C1580 C 0.27609 0.12435 0.29173 0.0
C1581 C 0.22871 0.15473 0.26853 0.0
C1582 C 0.22935 0.1502 0.28788 0.0
C1583 C 0.24495 0.14055 0.29508 0.0
C1584 C 0.21372 0.1552 0.30069 0.0
C1585 C 0.21264 0.16574 0.26015 0.0
C1586 C 0.21642 0.16811 0.31536 0.0
C1587 C 0.20117 0.17407 0.3263 0.0
C1588 C 0.183 0.16717 0.32271 0.0
C1589 C 0.18062 0.15358 0.30852 0.0
C1590 C 0.19582 0.14761 0.29772 0.0
H1591 H 0.21649 0.1721 0.24642 0.0
H1592 H 0.20056 0.15619 0.2578 0.0
H1593 H 0.20804 0.17711 0.26979 0.0
H1594 H 0.23019 0.17405 0.31793 0.0
H1595 H 0.20352 0.18454 0.33709 0.0
H1596 H 0.33573 0.85513 0.80484 0.0
H1597 H 0.30881 0.86531 0.78648 0.0
H1598 H 0.27257 0.82973 0.81947 0.0
H1599 H 0.29954 0.81957 0.83831 0.0
H1600 H 0.28716 0.84188 0.76493 0.0
H1601 H 0.24307 0.87903 0.81739 0.0
H1602 H 0.26753 0.87366 0.82147 0.0
H1603 H 0.24996 0.85574 0.82423 0.0
C1604 C 0.32203 0.84964 0.8085 0.0
C1605 C 0.31985 0.8365 0.82314 0.0
C1606 C 0.30663 0.8555 0.79791 0.0
C1607 C 0.28866 0.84842 0.80168 0.0
C1608 C 0.28627 0.83566 0.81655 0.0
H1609 H 0.18262 0.84807 0.74516 0.0
H1610 H 0.2089 0.84568 0.76683 0.0
C1611 C 0.30172 0.82981 0.82726 0.0
C1612 C 0.27285 0.8533 0.789 0.0
H1613 H 0.22895 0.8726 0.78774 0.0
C1614 C 0.2745 0.84877 0.76988 0.0
C1615 C 0.25635 0.86226 0.7955 0.0
C1616 C 0.25412 0.86813 0.81574 0.0
C1617 C 0.25991 0.85246 0.75715 0.0
C1618 C 0.24333 0.86125 0.76367 0.0
C1619 C 0.24173 0.86598 0.78276 0.0
C1620 C 0.22699 0.86433 0.75113 0.0
C1621 C 0.2621 0.8463 0.73698 0.0
C1622 C 0.22826 0.87604 0.73528 0.0
C1623 C 0.21317 0.87748 0.72272 0.0
C1624 C 0.19655 0.86724 0.72585 0.0
C1625 C 0.19517 0.85613 0.74218 0.0
C1626 C 0.21019 0.85475 0.75467 0.0
H1627 H 0.27395 0.83632 0.73516 0.0
H1628 H 0.24904 0.83951 0.73182 0.0
H1629 H 0.26489 0.85878 0.72807 0.0
H1630 H 0.24103 0.8838 0.73245 0.0
H1631 H 0.21472 0.88619 0.71034 0.0
H1632 H 0.8208 0.35136 0.75676 0.0
H1633 H 0.79506 0.3482 0.73457 0.0
H1634 H 0.76003 0.38274 0.76988 0.0
H1635 H 0.78581 0.38591 0.79249 0.0
H1636 H 0.74371 0.34864 0.7598 0.0
H1637 H 0.77196 0.38442 0.69671 0.0
H1638 H 0.78771 0.36726 0.70635 0.0
H1639 H 0.78179 0.38777 0.71986 0.0
C1640 C 0.80776 0.3586 0.75976 0.0
C1641 C 0.80544 0.36893 0.77648 0.0
C1642 C 0.79307 0.35686 0.74692 0.0
C1643 C 0.77571 0.36546 0.75041 0.0
C1644 C 0.77339 0.37612 0.76685 0.0
H1645 H 0.66703 0.3531 0.69645 0.0
H1646 H 0.69352 0.36375 0.71523 0.0
C1647 C 0.78815 0.37795 0.77974 0.0
C1648 C 0.75961 0.36179 0.7377 0.0
H1649 H 0.7454 0.36438 0.69191 0.0
C1650 C 0.74397 0.3523 0.74501 0.0
C1651 C 0.76008 0.36638 0.71836 0.0
C1652 C 0.77621 0.37718 0.70987 0.0
C1653 C 0.72899 0.34684 0.73342 0.0
C1654 C 0.72952 0.35129 0.71405 0.0
C1655 C 0.74507 0.36094 0.70675 0.0
C1656 C 0.71391 0.34609 0.70129 0.0
C1657 C 0.71297 0.33583 0.74192 0.0
C1658 C 0.71674 0.33319 0.68664 0.0
C1659 C 0.70158 0.32711 0.67566 0.0
C1660 C 0.68334 0.33388 0.67917 0.0
C1661 C 0.68081 0.34744 0.69337 0.0
C1662 C 0.69593 0.35352 0.70423 0.0
H1663 H 0.71687 0.32958 0.75568 0.0
H1664 H 0.70087 0.34537 0.74424 0.0
H1665 H 0.70838 0.32439 0.73237 0.0
H1666 H 0.73057 0.32738 0.68409 0.0
H1667 H 0.70406 0.31668 0.66486 0.0
H1668 H 0.80375 0.66132 0.15335 0.0
H1669 H 0.77645 0.64962 0.17093 0.0
H1670 H 0.80303 0.66604 0.22292 0.0
H1671 H 0.83053 0.67654 0.20557 0.0
H1672 H 0.78811 0.63371 0.22749 0.0
H1673 H 0.7349 0.67903 0.19293 0.0
H1674 H 0.74675 0.66351 0.17703 0.0
H1675 H 0.75969 0.68182 0.18877 0.0
C1676 C 0.80364 0.66242 0.16853 0.0
C1677 C 0.81921 0.66981 0.17812 0.0
C1678 C 0.78801 0.65585 0.17857 0.0
C1679 C 0.78747 0.6572 0.1983 0.0
C1680 C 0.80305 0.66473 0.20775 0.0
H1681 H 0.69467 0.66597 0.27241 0.0
H1682 H 0.71997 0.66888 0.24967 0.0
C1683 C 0.81878 0.67079 0.19782 0.0
C1684 C 0.77092 0.65083 0.20941 0.0
H1685 H 0.7239 0.65779 0.21572 0.0
C1686 C 0.77404 0.63897 0.22489 0.0
C1687 C 0.75255 0.65769 0.20607 0.0
C1688 C 0.74825 0.67135 0.19042 0.0
C1689 C 0.75964 0.63455 0.23763 0.0
C1690 C 0.74128 0.64141 0.2343 0.0
C1691 C 0.73795 0.65249 0.21828 0.0
C1692 C 0.72574 0.63903 0.24812 0.0
C1693 C 0.7646 0.62351 0.25506 0.0
C1694 C 0.7204 0.62126 0.25496 0.0
C1695 C 0.70616 0.61962 0.26848 0.0
C1696 C 0.69662 0.63566 0.27487 0.0
C1697 C 0.70167 0.65332 0.26766 0.0
C1698 C 0.71614 0.655 0.25459 0.0
H1699 H 0.77995 0.62372 0.25788 0.0
H1700 H 0.75724 0.62915 0.26759 0.0
H1701 H 0.76036 0.60864 0.2531 0.0
H1702 H 0.72717 0.60865 0.24983 0.0
H1703 H 0.70238 0.60582 0.27367 0.0
H1704 H 0.33748 0.20248 0.18265 0.0
H1705 H 0.31873 0.22962 0.17259 0.0
H1706 H 0.28633 0.19383 0.13604 0.0
H1707 H 0.3046 0.16678 0.14606 0.0
H1708 H 0.31068 0.2452 0.13582 0.0
H1709 H 0.24689 0.21751 0.17117 0.0
H1710 H 0.2701 0.2085 0.17592 0.0
H1711 H 0.25774 0.20139 0.15509 0.0
C1712 C 0.32651 0.20042 0.17231 0.0
C1713 C 0.32249 0.18237 0.16531 0.0
C1714 C 0.31581 0.21594 0.16659 0.0
C1715 C 0.30093 0.21364 0.15384 0.0
C1716 C 0.29751 0.19585 0.14617 0.0
H1717 H 0.21049 0.28615 0.11416 0.0
H1718 H 0.23302 0.26034 0.11761 0.0
C1719 C 0.30808 0.18038 0.15189 0.0
C1720 C 0.28842 0.22957 0.14902 0.0
H1721 H 0.24288 0.24434 0.15198 0.0
C1722 C 0.29587 0.24507 0.13938 0.0
C1723 C 0.26909 0.22931 0.15364 0.0
C1724 C 0.26046 0.21338 0.16467 0.0
C1725 C 0.28441 0.26024 0.13402 0.0
C1726 C 0.26508 0.25997 0.13868 0.0
C1727 C 0.25766 0.24443 0.14825 0.0
C1728 C 0.25247 0.27611 0.13484 0.0
C1729 C 0.29302 0.27628 0.12319 0.0
C1730 C 0.25597 0.29353 0.1433 0.0
C1731 C 0.24317 0.30826 0.14139 0.0
C1732 C 0.22648 0.30588 0.13103 0.0
C1733 C 0.22322 0.28853 0.12214 0.0
C1734 C 0.23606 0.27375 0.12412 0.0
H1735 H 0.3062 0.27195 0.11603 0.0
H1736 H 0.2831 0.28183 0.11251 0.0
H1737 H 0.29651 0.28783 0.13306 0.0
H1738 H 0.2683 0.29556 0.15197 0.0
H1739 H 0.24618 0.32134 0.14853 0.0
H1740 H 0.83777 0.29883 0.8184 0.0
H1741 H 0.81903 0.27171 0.82848 0.0
H1742 H 0.78702 0.30741 0.86545 0.0
H1743 H 0.80527 0.33447 0.8554 0.0
H1744 H 0.81135 0.25592 0.86505 0.0
H1745 H 0.74715 0.284 0.83075 0.0
H1746 H 0.7703 0.29307 0.82584 0.0
H1747 H 0.75817 0.29995 0.84688 0.0
C1748 C 0.82688 0.30088 0.82883 0.0
C1749 C 0.82296 0.31891 0.83594 0.0
C1750 C 0.81618 0.28537 0.83456 0.0
C1751 C 0.80142 0.28765 0.84744 0.0
C1752 C 0.7981 0.30542 0.85521 0.0
H1753 H 0.71148 0.21468 0.88746 0.0
H1754 H 0.73396 0.24053 0.88406 0.0
C1755 C 0.80866 0.32088 0.84948 0.0
C1756 C 0.78894 0.2717 0.8523 0.0
H1757 H 0.74336 0.25698 0.84971 0.0
C1758 C 0.79649 0.25609 0.86167 0.0
C1759 C 0.76955 0.27202 0.84791 0.0
C1760 C 0.76079 0.28807 0.83715 0.0
C1761 C 0.78509 0.24086 0.86699 0.0
C1762 C 0.76572 0.24118 0.86255 0.0
C1763 C 0.75818 0.25684 0.85326 0.0
C1764 C 0.75315 0.22499 0.86633 0.0
C1765 C 0.79383 0.22468 0.87752 0.0
C1766 C 0.75654 0.20769 0.85758 0.0
C1767 C 0.74376 0.19295 0.85945 0.0
C1768 C 0.72721 0.19518 0.87008 0.0
C1769 C 0.72409 0.21241 0.87926 0.0
C1770 C 0.7369 0.22721 0.87731 0.0
H1771 H 0.80711 0.22891 0.88454 0.0
H1772 H 0.78404 0.21902 0.88826 0.0
H1773 H 0.79717 0.21325 0.86746 0.0
H1774 H 0.76875 0.20578 0.84871 0.0
H1775 H 0.74665 0.17996 0.85208 0.0
H1776 H 0.75447 0.82171 0.3524 0.0
H1777 H 0.73212 0.79608 0.34955 0.0
H1778 H 0.77019 0.75925 0.37892 0.0
H1779 H 0.79273 0.78507 0.38221 0.0
H1780 H 0.73939 0.7635 0.33036 0.0
H1781 H 0.71982 0.74776 0.40421 0.0
H1782 H 0.73124 0.76938 0.39743 0.0
H1783 H 0.74465 0.74811 0.39971 0.0
C1784 C 0.75806 0.80829 0.35859 0.0
C1785 C 0.77548 0.80551 0.36755 0.0
C1786 C 0.74521 0.79362 0.35691 0.0
C1787 C 0.7494 0.7758 0.36413 0.0
C1788 C 0.76651 0.773 0.37355 0.0
H1789 H 0.70016 0.66618 0.35021 0.0
H1790 H 0.71831 0.69352 0.35988 0.0
C1791 C 0.77942 0.78776 0.37535 0.0
C1792 C 0.73649 0.7599 0.36025 0.0
H1793 H 0.70932 0.72619 0.38093 0.0
C1794 C 0.7327 0.75543 0.34142 0.0
C1795 C 0.72786 0.74936 0.37471 0.0
C1796 C 0.73093 0.75394 0.39516 0.0
C1797 C 0.72077 0.74052 0.33662 0.0
C1798 C 0.7121 0.72998 0.35105 0.0
C1799 C 0.71588 0.73441 0.36991 0.0
C1800 C 0.69984 0.71372 0.34673 0.0
C1801 C 0.71796 0.73584 0.31612 0.0
C1802 C 0.68309 0.71606 0.33658 0.0
C1803 C 0.67261 0.7004 0.33094 0.0
C1804 C 0.6787 0.68214 0.33544 0.0
C1805 C 0.69505 0.67999 0.34638 0.0
C1806 C 0.70547 0.69561 0.35199 0.0
H1807 H 0.72879 0.7425 0.30708 0.0
H1808 H 0.71838 0.72041 0.31385 0.0
H1809 H 0.704 0.74102 0.31153 0.0
H1810 H 0.67836 0.72997 0.33264 0.0
H1811 H 0.66007 0.70261 0.32262 0.0
H1812 H 0.16498 0.79711 0.6833 0.0
H1813 H 0.18455 0.77082 0.6727 0.0
H1814 H 0.21507 0.80814 0.63606 0.0
H1815 H 0.19594 0.83442 0.64663 0.0
H1816 H 0.19256 0.75585 0.63588 0.0
H1817 H 0.25591 0.78569 0.67037 0.0
H1818 H 0.23248 0.7939 0.67548 0.0
H1819 H 0.24419 0.8013 0.65439 0.0
C1820 C 0.1757 0.79969 0.67283 0.0
C1821 C 0.17895 0.81796 0.66598 0.0
C1822 C 0.18688 0.78466 0.6668 0.0
C1823 C 0.20147 0.78764 0.65387 0.0
C1824 C 0.20413 0.80562 0.64633 0.0
H1825 H 0.29346 0.71526 0.6161 0.0
H1826 H 0.27086 0.74118 0.61844 0.0
C1827 C 0.19306 0.82062 0.65236 0.0
C1828 C 0.21447 0.77218 0.64881 0.0
H1829 H 0.26032 0.75846 0.65199 0.0
C1830 C 0.20737 0.75639 0.63938 0.0
C1831 C 0.23381 0.77299 0.65333 0.0
C1832 C 0.24208 0.78929 0.66409 0.0
C1833 C 0.21916 0.74139 0.63429 0.0
C1834 C 0.23845 0.7421 0.63904 0.0
C1835 C 0.24556 0.75801 0.64823 0.0
C1836 C 0.25124 0.72595 0.63597 0.0
C1837 C 0.21088 0.72497 0.62376 0.0
C1838 C 0.24769 0.70883 0.64501 0.0
C1839 C 0.26051 0.69408 0.64375 0.0
C1840 C 0.27729 0.6961 0.63345 0.0
C1841 C 0.28065 0.71316 0.62404 0.0
C1842 C 0.26778 0.72799 0.62539 0.0
H1843 H 0.1978 0.729 0.61625 0.0
H1844 H 0.22103 0.7192 0.61342 0.0
H1845 H 0.20728 0.71369 0.63389 0.0
H1846 H 0.23526 0.70707 0.65361 0.0
H1847 H 0.25742 0.68124 0.6513 0.0
H1848 H 0.85104 0.70143 0.8348 0.0
H1849 H 0.86042 0.71997 0.80758 0.0
H1850 H 0.83332 0.68016 0.77087 0.0
H1851 H 0.82361 0.6615 0.79808 0.0
H1852 H 0.88148 0.71123 0.77478 0.0
H1853 H 0.8076 0.7306 0.75862 0.0
H1854 H 0.81442 0.72011 0.78067 0.0
H1855 H 0.81206 0.7058 0.76002 0.0
C1856 C 0.84717 0.69645 0.82095 0.0
C1857 C 0.83639 0.68001 0.81869 0.0
C1858 C 0.85261 0.70709 0.8054 0.0
C1859 C 0.84733 0.70159 0.78725 0.0
C1860 C 0.83728 0.68479 0.78481 0.0
H1861 H 0.85277 0.75523 0.67885 0.0
H1862 H 0.84987 0.7333 0.70486 0.0
C1863 C 0.83183 0.67409 0.80038 0.0
C1864 C 0.8516 0.71396 0.77105 0.0
H1865 H 0.8308 0.74103 0.7374 0.0
C1866 C 0.87043 0.71776 0.76657 0.0
C1867 C 0.83713 0.72257 0.7605 0.0
C1868 C 0.81666 0.71974 0.76523 0.0
C1869 C 0.87518 0.72965 0.75152 0.0
C1870 C 0.8607 0.73818 0.74093 0.0
C1871 C 0.84189 0.73442 0.74549 0.0
C1872 C 0.86453 0.75086 0.72483 0.0
C1873 C 0.89562 0.73269 0.74685 0.0
C1874 C 0.87402 0.768 0.72732 0.0
C1875 C 0.87584 0.78065 0.71234 0.0
C1876 C 0.86802 0.77645 0.69467 0.0
C1877 C 0.85899 0.75902 0.6922 0.0
C1878 C 0.85727 0.74642 0.70709 0.0
H1879 H 0.9047 0.72167 0.75316 0.0
H1880 H 0.89785 0.73281 0.73142 0.0
H1881 H 0.90016 0.74649 0.7525 0.0
H1882 H 0.87942 0.77188 0.741 0.0
H1883 H 0.88275 0.79398 0.7148 0.0
H1884 H 0.61671 0.21137 0.21613 0.0
H1885 H 0.621 0.2347 0.24108 0.0
H1886 H 0.65422 0.26882 0.20366 0.0
H1887 H 0.65031 0.24567 0.17887 0.0
H1888 H 0.67183 0.26136 0.23737 0.0
H1889 H 0.59935 0.28753 0.24932 0.0
H1890 H 0.60175 0.26241 0.24999 0.0
H1891 H 0.60599 0.27479 0.22841 0.0
C1892 C 0.62464 0.224 0.2131 0.0
C1893 C 0.63317 0.22657 0.19546 0.0
C1894 C 0.62701 0.23736 0.22736 0.0
C1895 C 0.6378 0.25358 0.22416 0.0
C1896 C 0.6458 0.25644 0.20642 0.0
H1897 H 0.68375 0.34103 0.29773 0.0
H1898 H 0.6739 0.32316 0.26998 0.0
C1899 C 0.64351 0.24314 0.19223 0.0
C1900 C 0.64217 0.26683 0.23964 0.0
H1901 H 0.62252 0.29675 0.27157 0.0
C1902 C 0.66106 0.26923 0.24475 0.0
C1903 C 0.6281 0.27702 0.24925 0.0
C1904 C 0.60766 0.27549 0.2439 0.0
C1905 C 0.66626 0.2812 0.25952 0.0
C1906 C 0.65219 0.29134 0.2692 0.0
C1907 C 0.63329 0.28905 0.26402 0.0
C1908 C 0.65677 0.30343 0.28553 0.0
C1909 C 0.6867 0.28237 0.26504 0.0
C1910 C 0.64983 0.29871 0.30332 0.0
C1911 C 0.6553 0.3089 0.31913 0.0
C1912 C 0.66783 0.32414 0.31751 0.0
C1913 C 0.67416 0.32935 0.29952 0.0
C1914 C 0.66864 0.31909 0.28366 0.0
H1915 H 0.69505 0.27065 0.25901 0.0
H1916 H 0.69268 0.29576 0.25975 0.0
H1917 H 0.68828 0.28215 0.28055 0.0
H1918 H 0.64061 0.28671 0.30507 0.0
H1919 H 0.65003 0.30447 0.3327 0.0
H1920 H 0.35377 0.74642 0.32328 0.0
H1921 H 0.35001 0.76867 0.29761 0.0
H1922 H 0.3771 0.72997 0.25974 0.0
H1923 H 0.38129 0.70753 0.28555 0.0
H1924 H 0.38787 0.76843 0.25475 0.0
H1925 H 0.31039 0.75974 0.25672 0.0
H1926 H 0.32062 0.7663 0.27882 0.0
H1927 H 0.32619 0.74388 0.26861 0.0
C1928 C 0.35917 0.74263 0.30958 0.0
C1929 C 0.36771 0.72504 0.3065 0.0
C1930 C 0.3569 0.75538 0.29488 0.0
C1931 C 0.36291 0.75081 0.27671 0.0
C1932 C 0.37225 0.7337 0.27367 0.0
H1933 H 0.35017 0.80009 0.1668 0.0
H1934 H 0.36012 0.78215 0.19415 0.0
C1935 C 0.37464 0.7209 0.28844 0.0
C1936 C 0.35865 0.76359 0.26082 0.0
H1937 H 0.32224 0.78355 0.23679 0.0
C1938 C 0.37354 0.77172 0.25077 0.0
C1939 C 0.33992 0.76785 0.25568 0.0
C1940 C 0.32334 0.75887 0.26539 0.0
C1941 C 0.37017 0.78424 0.23587 0.0
C1942 C 0.35144 0.78849 0.23076 0.0
C1943 C 0.33658 0.7804 0.24085 0.0
C1944 C 0.34681 0.8005 0.21437 0.0
C1945 C 0.38667 0.793 0.22588 0.0
C1946 C 0.33586 0.81676 0.21661 0.0
C1947 C 0.33004 0.82712 0.20093 0.0
C1948 C 0.33491 0.82125 0.18269 0.0
C1949 C 0.34619 0.80513 0.18059 0.0
C1950 C 0.35203 0.79487 0.19625 0.0
H1951 H 0.39958 0.79258 0.23464 0.0
H1952 H 0.38951 0.78507 0.21277 0.0
H1953 H 0.38369 0.80783 0.22204 0.0
H1954 H 0.33155 0.82126 0.2305 0.0
H1955 H 0.32131 0.83938 0.20309 0.0
H1956 H 0.1834 0.1627 0.70337 0.0
H1957 H 0.17308 0.18126 0.73045 0.0
H1958 H 0.13742 0.21436 0.6944 0.0
H1959 H 0.14738 0.19593 0.6674 0.0
H1960 H 0.17842 0.21988 0.73389 0.0
H1961 H 0.10258 0.20263 0.73841 0.0
H1962 H 0.11906 0.18845 0.72532 0.0
H1963 H 0.11007 0.20989 0.71544 0.0
C1964 C 0.17309 0.17369 0.70124 0.0
C1965 C 0.16623 0.17776 0.68316 0.0
C1966 C 0.16724 0.1843 0.71674 0.0
C1967 C 0.15429 0.19902 0.71448 0.0
C1968 C 0.14709 0.20281 0.69655 0.0
H1969 H 0.11625 0.29191 0.78465 0.0
H1970 H 0.12061 0.26916 0.75909 0.0
C1971 C 0.15294 0.19228 0.68108 0.0
C1972 C 0.14957 0.21152 0.73047 0.0
H1973 H 0.11304 0.22901 0.75628 0.0
C1974 C 0.16415 0.22173 0.73891 0.0
C1975 C 0.1309 0.2141 0.73681 0.0
C1976 C 0.11476 0.20307 0.72865 0.0
C1977 C 0.16056 0.23467 0.75333 0.0
C1978 C 0.14192 0.23721 0.75974 0.0
C1979 C 0.1273 0.22704 0.7513 0.0
C1980 C 0.13759 0.25006 0.77554 0.0
C1981 C 0.17674 0.24581 0.76133 0.0
C1982 C 0.14515 0.24651 0.79334 0.0
C1983 C 0.14277 0.25941 0.80787 0.0
C1984 C 0.13259 0.27614 0.80499 0.0
C1985 C 0.12417 0.27921 0.78737 0.0
C1986 C 0.12665 0.26624 0.77275 0.0
H1987 H 0.18907 0.24581 0.75176 0.0
H1988 H 0.17254 0.26058 0.76407 0.0
H1989 H 0.18116 0.23944 0.77485 0.0
H1990 H 0.15333 0.23393 0.79588 0.0
H1991 H 0.14938 0.25644 0.82124 0.0
H1992 H 0.71409 0.88737 0.787 0.0
H1993 H 0.73909 0.8838 0.76364 0.0
H1994 H 0.70532 0.84366 0.73339 0.0
H1995 H 0.6803 0.84716 0.75642 0.0
H1996 H 0.75727 0.84972 0.7561 0.0
H1997 H 0.72437 0.87803 0.69139 0.0
H1998 H 0.71534 0.88294 0.71459 0.0
H1999 H 0.71033 0.86086 0.7034 0.0
C2000 C 0.71183 0.87804 0.7752 0.0
C2001 C 0.69513 0.86757 0.77364 0.0
C2002 C 0.72615 0.876 0.76188 0.0
C2003 C 0.72396 0.86365 0.74665 0.0
C2004 C 0.70716 0.85357 0.74479 0.0
H2005 H 0.79779 0.81499 0.66241 0.0
H2006 H 0.77063 0.8247 0.68128 0.0
C2007 C 0.69289 0.85552 0.7581 0.0
C2008 C 0.73981 0.85996 0.73364 0.0
H2009 H 0.7526 0.8604 0.68736 0.0
C2010 C 0.75633 0.85224 0.7411 0.0
C2011 C 0.73844 0.86304 0.71405 0.0
C2012 C 0.72123 0.87183 0.70536 0.0
C2013 C 0.7714 0.84718 0.72947 0.0
C2014 C 0.77007 0.85028 0.70987 0.0
C2015 C 0.75357 0.85804 0.70238 0.0
C2016 C 0.78586 0.84572 0.69709 0.0
C2017 C 0.78845 0.8381 0.73822 0.0
C2018 C 0.80318 0.85477 0.69929 0.0
C2019 C 0.81868 0.84924 0.68866 0.0
C2020 C 0.81715 0.83463 0.6754 0.0
C2021 C 0.79948 0.82626 0.67248 0.0
C2022 C 0.78395 0.83178 0.68326 0.0
H2023 H 0.78531 0.83229 0.75237 0.0
H2024 H 0.79391 0.82659 0.72921 0.0
H2025 H 0.7997 0.84877 0.73982 0.0
H2026 H 0.80485 0.86583 0.70961 0.0
H2027 H 0.83198 0.85614 0.69124 0.0
H2028 H 0.66781 0.14983 0.19947 0.0
H2029 H 0.69565 0.1407 0.21707 0.0
H2030 H 0.73046 0.17213 0.17875 0.0
H2031 H 0.70253 0.18166 0.16104 0.0
H2032 H 0.72881 0.12179 0.20701 0.0
H2033 H 0.74267 0.19504 0.23029 0.0
H2034 H 0.72082 0.1881 0.21949 0.0
H2035 H 0.74135 0.19184 0.20529 0.0
C2036 C 0.68136 0.15474 0.1946 0.0
C2037 C 0.68286 0.16666 0.17887 0.0
C2038 C 0.69729 0.14943 0.20471 0.0
C2039 C 0.71507 0.15596 0.1994 0.0
C2040 C 0.71679 0.1672 0.18327 0.0
H2041 H 0.82319 0.15074 0.25426 0.0
H2042 H 0.79766 0.15402 0.23183 0.0
C2043 C 0.70082 0.17255 0.1731 0.0
C2044 C 0.73159 0.1516 0.21133 0.0
H2045 H 0.76441 0.17194 0.23973 0.0
C2046 C 0.73666 0.13273 0.21414 0.0
C2047 C 0.74167 0.16591 0.22073 0.0
C2048 C 0.73631 0.18635 0.21899 0.0
C2049 C 0.75173 0.12781 0.22592 0.0
C2050 C 0.76176 0.14213 0.23534 0.0
C2051 C 0.75671 0.16098 0.23246 0.0
C2052 C 0.77766 0.13808 0.2482 0.0
C2053 C 0.75695 0.10738 0.22797 0.0
C2054 C 0.775 0.12775 0.26481 0.0
C2055 C 0.7897 0.12571 0.27775 0.0
C2056 C 0.80725 0.13415 0.27436 0.0
C2057 C 0.80992 0.14402 0.25742 0.0
C2058 C 0.79531 0.14596 0.24453 0.0
H2059 H 0.75113 0.09873 0.21636 0.0
H2060 H 0.77245 0.10559 0.22828 0.0
H2061 H 0.75119 0.10194 0.2414 0.0
H2062 H 0.76137 0.12183 0.26809 0.0
H2063 H 0.78709 0.11814 0.29069 0.0
H2064 H 0.29776 0.68644 0.34185 0.0
H2065 H 0.26931 0.67696 0.32491 0.0
H2066 H 0.30178 0.63785 0.292 0.0
H2067 H 0.33008 0.64703 0.30874 0.0
H2068 H 0.26468 0.68066 0.2859 0.0
H2069 H 0.25628 0.6063 0.30742 0.0
H2070 H 0.27067 0.62273 0.32034 0.0
H2071 H 0.27948 0.6119 0.29928 0.0
C2072 C 0.29879 0.67557 0.33126 0.0
C2073 C 0.31625 0.6675 0.32673 0.0
C2074 C 0.28252 0.6702 0.32157 0.0
C2075 C 0.28339 0.65651 0.30738 0.0
C2076 C 0.30069 0.64813 0.30317 0.0
H2077 H 0.21325 0.61567 0.21702 0.0
H2078 H 0.23788 0.62074 0.24055 0.0
C2079 C 0.31692 0.65352 0.31273 0.0
C2080 C 0.26669 0.65214 0.29573 0.0
H2081 H 0.23901 0.61609 0.28029 0.0
C2082 C 0.25889 0.6666 0.28486 0.0
C2083 C 0.25932 0.63374 0.29425 0.0
C2084 C 0.26674 0.6178 0.30607 0.0
C2085 C 0.24428 0.66307 0.27212 0.0
C2086 C 0.237 0.64463 0.27049 0.0
C2087 C 0.24464 0.63019 0.28154 0.0
C2088 C 0.22154 0.64016 0.25727 0.0
C2089 C 0.23721 0.679 0.26002 0.0
C2090 C 0.20402 0.64892 0.25923 0.0
C2091 C 0.19001 0.64616 0.24582 0.0
C2092 C 0.19311 0.63439 0.23022 0.0
C2093 C 0.21037 0.62485 0.22881 0.0
C2094 C 0.22447 0.62773 0.24224 0.0
H2095 H 0.24734 0.69086 0.25953 0.0
H2096 H 0.23449 0.67417 0.24544 0.0
H2097 H 0.22382 0.68437 0.26593 0.0
H2098 H 0.20133 0.65825 0.27094 0.0
H2099 H 0.17688 0.65365 0.2475 0.0
H2100 H 0.31888 0.34778 0.7438 0.0
H2101 H 0.29254 0.34541 0.76539 0.0
H2102 H 0.26073 0.38399 0.73123 0.0
H2103 H 0.28711 0.38637 0.7092 0.0
H2104 H 0.27266 0.37236 0.78645 0.0
H2105 H 0.22743 0.33674 0.73361 0.0
H2106 H 0.25237 0.33976 0.73031 0.0
H2107 H 0.23668 0.35918 0.72668 0.0
C2108 C 0.30639 0.35595 0.74085 0.0
C2109 C 0.30512 0.36719 0.7246 0.0
C2110 C 0.29133 0.35457 0.7533 0.0
C2111 C 0.2746 0.3643 0.7498 0.0
C2112 C 0.27344 0.37612 0.73403 0.0
H2113 H 0.16575 0.3552 0.8035 0.0
H2114 H 0.19266 0.3654 0.78513 0.0
C2115 C 0.28857 0.37755 0.72151 0.0
C2116 C 0.25822 0.36125 0.76231 0.0
H2117 H 0.21426 0.34217 0.76342 0.0
C2118 C 0.25983 0.36585 0.78143 0.0
C2119 C 0.24158 0.35263 0.75572 0.0
C2120 C 0.23936 0.34662 0.73551 0.0
C2121 C 0.24518 0.36215 0.79414 0.0
C2122 C 0.22864 0.35334 0.78758 0.0
C2123 C 0.22696 0.34894 0.76842 0.0
C2124 C 0.21281 0.34842 0.80023 0.0
C2125 C 0.24745 0.36789 0.81441 0.0
C2126 C 0.2152 0.33559 0.81505 0.0
C2127 C 0.19975 0.32973 0.82576 0.0
C2128 C 0.18162 0.33647 0.8217 0.0
C2129 C 0.17945 0.34967 0.80711 0.0
C2130 C 0.19484 0.35554 0.79652 0.0
H2131 H 0.2585 0.37878 0.81611 0.0
H2132 H 0.23406 0.3734 0.8202 0.0
H2133 H 0.25162 0.35545 0.82281 0.0
H2134 H 0.22888 0.32962 0.81793 0.0
H2135 H 0.20194 0.31945 0.83677 0.0
H2136 H 0.77627 0.70218 0.89635 0.0
H2137 H 0.75169 0.72638 0.89467 0.0
H2138 H 0.74863 0.71887 0.83458 0.0
H2139 H 0.77214 0.69421 0.83636 0.0
H2140 H 0.75006 0.75861 0.87954 0.0
H2141 H 0.69457 0.71747 0.84525 0.0
H2142 H 0.71545 0.70652 0.85451 0.0
H2143 H 0.71522 0.71612 0.83101 0.0
C2144 C 0.77015 0.70562 0.88285 0.0
C2145 C 0.77591 0.69614 0.86653 0.0
C2146 C 0.7561 0.7194 0.88189 0.0
C2147 C 0.74779 0.72409 0.86455 0.0
C2148 C 0.75408 0.71498 0.84823 0.0
H2149 H 0.70791 0.82999 0.82848 0.0
H2150 H 0.72473 0.80262 0.84005 0.0
C2151 C 0.76772 0.70098 0.84925 0.0
C2152 C 0.73351 0.73931 0.86309 0.0
H2153 H 0.69344 0.75132 0.83963 0.0
C2154 C 0.73749 0.75688 0.87113 0.0
C2155 C 0.71668 0.73708 0.85268 0.0
C2156 C 0.71016 0.71819 0.84561 0.0
C2157 C 0.72588 0.7725 0.8679 0.0
C2158 C 0.71036 0.77076 0.85554 0.0
C2159 C 0.7056 0.7529 0.84867 0.0
C2160 C 0.69977 0.7874 0.84854 0.0
C2161 C 0.73051 0.79067 0.87779 0.0
C2162 C 0.68 0.78766 0.84833 0.0
C2163 C 0.67027 0.80315 0.84101 0.0
C2164 C 0.68018 0.81874 0.83407 0.0
C2165 C 0.6999 0.81834 0.83409 0.0
C2166 C 0.70955 0.80274 0.84092 0.0
H2167 H 0.737 0.78791 0.89172 0.0
H2168 H 0.7409 0.79864 0.86933 0.0
H2169 H 0.71784 0.79951 0.8799 0.0
H2170 H 0.67209 0.77591 0.85389 0.0
H2171 H 0.65505 0.80312 0.84113 0.0
H2172 H 0.15361 0.69714 0.16053 0.0
H2173 H 0.17064 0.72421 0.14746 0.0
H2174 H 0.22316 0.69918 0.16457 0.0
H2175 H 0.20639 0.67192 0.17649 0.0
H2176 H 0.19118 0.74988 0.16142 0.0
H2177 H 0.23695 0.71151 0.11258 0.0
H2178 H 0.21751 0.70024 0.12424 0.0
H2179 H 0.24015 0.70189 0.13557 0.0
C2180 C 0.1688 0.69746 0.16134 0.0
C2181 C 0.17872 0.68236 0.16926 0.0
C2182 C 0.17853 0.71287 0.15384 0.0
C2183 C 0.19829 0.71351 0.15442 0.0
C2184 C 0.20803 0.69872 0.16309 0.0
H2185 H 0.2693 0.80781 0.16479 0.0
H2186 H 0.2458 0.78319 0.16681 0.0
C2187 C 0.1984 0.68319 0.17011 0.0
C2188 C 0.20887 0.72997 0.147 0.0
H2189 H 0.24919 0.74154 0.12375 0.0
C2190 C 0.20366 0.74806 0.15287 0.0
C2191 C 0.22481 0.72788 0.13524 0.0
C2192 C 0.22999 0.70933 0.12638 0.0
C2193 C 0.21467 0.76383 0.1485 0.0
C2194 C 0.23187 0.76135 0.13875 0.0
C2195 C 0.23632 0.74349 0.13166 0.0
C2196 C 0.24604 0.77665 0.13709 0.0
C2197 C 0.20771 0.78294 0.15449 0.0
C2198 C 0.25492 0.78063 0.11986 0.0
C2199 C 0.26896 0.79441 0.11879 0.0
C2200 C 0.27417 0.80459 0.13487 0.0
C2201 C 0.26535 0.80049 0.15205 0.0
C2202 C 0.25171 0.7865 0.1532 0.0
H2203 H 0.19212 0.78347 0.15428 0.0
H2204 H 0.21225 0.78571 0.16914 0.0
H2205 H 0.21319 0.79426 0.14526 0.0
H2206 H 0.25099 0.77307 0.10726 0.0
H2207 H 0.27556 0.79725 0.10537 0.0
H2208 H 0.30564 0.33459 0.64557 0.0
H2209 H 0.28652 0.30835 0.63488 0.0
H2210 H 0.31728 0.27082 0.6711 0.0
H2211 H 0.33684 0.29707 0.68182 0.0
H2212 H 0.30923 0.25613 0.6342 0.0
H2213 H 0.24582 0.28549 0.66903 0.0
H2214 H 0.25746 0.30125 0.65313 0.0
H2215 H 0.26923 0.29375 0.67416 0.0
C2216 C 0.30857 0.32076 0.65118 0.0
C2217 C 0.32275 0.31802 0.66471 0.0
C2218 C 0.29751 0.30578 0.64508 0.0
C2219 C 0.30024 0.28774 0.65246 0.0
C2220 C 0.31489 0.2847 0.66531 0.0
H2221 H 0.24511 0.18115 0.64998 0.0
H2222 H 0.26704 0.20718 0.65205 0.0
C2223 C 0.32606 0.29971 0.67141 0.0
C2224 C 0.28728 0.27228 0.6473 0.0
H2225 H 0.24151 0.25831 0.65057 0.0
C2226 C 0.29442 0.25659 0.63775 0.0
C2227 C 0.26795 0.27298 0.65188 0.0
C2228 C 0.25963 0.28918 0.66275 0.0
C2229 C 0.2827 0.24155 0.63263 0.0
C2230 C 0.26342 0.24213 0.63746 0.0
C2231 C 0.25625 0.25797 0.64674 0.0
C2232 C 0.25075 0.22586 0.63449 0.0
C2233 C 0.29103 0.22523 0.62199 0.0
C2234 C 0.23411 0.22772 0.62403 0.0
C2235 C 0.22136 0.21276 0.62282 0.0
C2236 C 0.22496 0.19576 0.63225 0.0
C2237 C 0.24184 0.19393 0.64241 0.0
C2238 C 0.25453 0.2088 0.64354 0.0
H2239 H 0.30401 0.22939 0.61439 0.0
H2240 H 0.29481 0.21395 0.63207 0.0
H2241 H 0.28085 0.21939 0.61172 0.0
H2242 H 0.23085 0.24086 0.61709 0.0
H2243 H 0.20848 0.21472 0.61497 0.0
H2244 H 0.74724 0.3233 0.35147 0.0
H2245 H 0.76984 0.29804 0.34745 0.0
H2246 H 0.73391 0.26051 0.37853 0.0
H2247 H 0.71104 0.28595 0.38294 0.0
H2248 H 0.77393 0.25762 0.38694 0.0
H2249 H 0.75867 0.2547 0.31046 0.0
H2250 H 0.76488 0.27759 0.31907 0.0
H2251 H 0.74355 0.26663 0.32695 0.0
C2252 C 0.74412 0.30979 0.35771 0.0
C2253 C 0.72717 0.30667 0.36742 0.0
C2254 C 0.75709 0.29532 0.35529 0.0
C2255 C 0.75338 0.27735 0.36237 0.0
C2256 C 0.73695 0.2743 0.37287 0.0
H2257 H 0.80593 0.16888 0.35217 0.0
H2258 H 0.78798 0.1962 0.36203 0.0
C2259 C 0.72392 0.28886 0.37538 0.0
C2260 C 0.7663 0.26164 0.35797 0.0
H2261 H 0.78407 0.23628 0.32135 0.0
C2262 C 0.77614 0.25288 0.37262 0.0
C2263 C 0.76916 0.25557 0.33925 0.0
C2264 C 0.75841 0.26397 0.32302 0.0
C2265 C 0.789 0.23834 0.36901 0.0
C2266 C 0.79183 0.23226 0.35029 0.0
C2267 C 0.78202 0.24108 0.33566 0.0
C2268 C 0.80403 0.21605 0.34557 0.0
C2269 C 0.79965 0.22981 0.38522 0.0
C2270 C 0.81899 0.21807 0.33285 0.0
C2271 C 0.82933 0.20237 0.32704 0.0
C2272 C 0.82475 0.18434 0.33372 0.0
C2273 C 0.80997 0.18251 0.34676 0.0
C2274 C 0.79972 0.19816 0.35256 0.0
H2275 H 0.80015 0.23947 0.39748 0.0
H2276 H 0.79248 0.21673 0.38974 0.0
H2277 H 0.81425 0.22619 0.38109 0.0
H2278 H 0.82243 0.23176 0.32716 0.0
H2279 H 0.84053 0.20431 0.31692 0.0
H2280 H 0.15686 0.14844 0.5673 0.0
H2281 H 0.15245 0.14713 0.53335 0.0
H2282 H 0.21134 0.15884 0.52514 0.0
H2283 H 0.21598 0.15954 0.55924 0.0
H2284 H 0.15679 0.1754 0.51021 0.0
H2285 H 0.20371 0.11787 0.48706 0.0
H2286 H 0.19758 0.12144 0.51141 0.0
H2287 H 0.2158 0.13529 0.50066 0.0
C2288 C 0.16897 0.15042 0.55828 0.0
C2289 C 0.18678 0.15416 0.56595 0.0
C2290 C 0.16641 0.14966 0.53885 0.0
C2291 C 0.18157 0.15272 0.52662 0.0
C2292 C 0.1995 0.15597 0.53424 0.0
H2293 H 0.1712 0.19925 0.41563 0.0
H2294 H 0.17712 0.19243 0.44862 0.0
C2295 C 0.20212 0.1565 0.55375 0.0
C2296 C 0.17811 0.15431 0.50606 0.0
H2297 H 0.19235 0.13854 0.46298 0.0
C2298 C 0.16448 0.16718 0.49993 0.0
C2299 C 0.18795 0.14347 0.49258 0.0
C2300 C 0.20194 0.1286 0.49825 0.0
C2301 C 0.16069 0.16983 0.48078 0.0
C2302 C 0.17119 0.15971 0.46728 0.0
C2303 C 0.18448 0.14645 0.47334 0.0
C2304 C 0.16886 0.16324 0.44685 0.0
C2305 C 0.14535 0.18338 0.47523 0.0
C2306 C 0.16297 0.14887 0.43466 0.0
C2307 C 0.15972 0.1527 0.4156 0.0
C2308 C 0.16231 0.17095 0.40849 0.0
C2309 C 0.1688 0.1851 0.42067 0.0
C2310 C 0.17215 0.18124 0.43958 0.0
H2311 H 0.13512 0.18552 0.48682 0.0
H2312 H 0.15169 0.19721 0.47186 0.0
H2313 H 0.13763 0.17833 0.46265 0.0
H2314 H 0.16046 0.13484 0.43998 0.0
H2315 H 0.15478 0.14149 0.40658 0.0
H2316 H 0.28481 0.85627 0.06151 0.0
H2317 H 0.28777 0.85895 0.02726 0.0
H2318 H 0.34438 0.83764 0.03045 0.0
H2319 H 0.34173 0.83528 0.06444 0.0
H2320 H 0.34132 0.86762 0.00623 0.0
H2321 H 0.28632 0.81402 0.99172 0.0
H2322 H 0.27899 0.8338 0.00557 0.0
H2323 H 0.29596 0.8176 0.01487 0.0
C2324 C 0.2979 0.85223 0.05491 0.0
C2325 C 0.31296 0.8454 0.06574 0.0
C2326 C 0.29955 0.8537 0.03533 0.0
C2327 C 0.31621 0.84824 0.02626 0.0
C2328 C 0.33138 0.84191 0.03711 0.0
H2329 H 0.34285 0.80528 0.91891 0.0
H2330 H 0.33486 0.81243 0.95136 0.0
C2331 C 0.32979 0.84051 0.0566 0.0
C2332 C 0.31796 0.84845 0.00546 0.0
H2333 H 0.30197 0.82688 0.9657 0.0
C2334 C 0.33258 0.8589 0.99731 0.0
C2335 C 0.30663 0.83692 0.99389 0.0
C2336 C 0.29118 0.82482 0.00189 0.0
C2337 C 0.3366 0.85765 0.97801 0.0
C2338 C 0.32546 0.84588 0.96651 0.0
C2339 C 0.31043 0.83596 0.97455 0.0
C2340 C 0.3303 0.84209 0.94657 0.0
C2341 C 0.3533 0.86817 0.9703 0.0
C2342 C 0.3304 0.85642 0.93298 0.0
C2343 C 0.33511 0.85239 0.91427 0.0
C2344 C 0.33963 0.83393 0.90884 0.0
C2345 C 0.33942 0.81966 0.92253 0.0
C2346 C 0.33481 0.8237 0.94113 0.0
H2347 H 0.36252 0.87365 0.98164 0.0
H2348 H 0.36179 0.85898 0.96098 0.0
H2349 H 0.34831 0.88028 0.96185 0.0
H2350 H 0.32669 0.87067 0.9368 0.0
H2351 H 0.33505 0.86368 0.90407 0.0
H2352 H 0.7176 0.34295 0.44116 0.0
H2353 H 0.71372 0.34253 0.47542 0.0
H2354 H 0.65371 0.34726 0.46873 0.0
H2355 H 0.65739 0.34719 0.43466 0.0
H2356 H 0.69748 0.36653 0.50171 0.0
H2357 H 0.65901 0.2989 0.49843 0.0
H2358 H 0.67141 0.30845 0.47852 0.0
H2359 H 0.64838 0.317 0.48447 0.0
C2360 C 0.7036 0.34407 0.44701 0.0
C2361 C 0.68779 0.34479 0.43521 0.0
C2362 C 0.70141 0.34384 0.46658 0.0
C2363 C 0.68339 0.34442 0.47461 0.0
C2364 C 0.66771 0.34629 0.46284 0.0
H2365 H 0.65386 0.35763 0.59335 0.0
H2366 H 0.66059 0.36352 0.56006 0.0
C2367 C 0.66985 0.34631 0.44335 0.0
C2368 C 0.68082 0.34215 0.49519 0.0
H2369 H 0.65925 0.31448 0.52784 0.0
C2370 C 0.68919 0.35513 0.50747 0.0
C2371 C 0.67023 0.32709 0.50268 0.0
C2372 C 0.6619 0.31195 0.49037 0.0
C2373 C 0.687 0.35358 0.52706 0.0
C2374 C 0.67585 0.33889 0.53449 0.0
C2375 C 0.66766 0.32585 0.52216 0.0
C2376 C 0.67291 0.33616 0.55499 0.0
C2377 C 0.69698 0.36744 0.5396 0.0
C2378 C 0.67735 0.31879 0.56318 0.0
C2379 C 0.67324 0.3153 0.58201 0.0
C2380 C 0.66466 0.32915 0.59317 0.0
C2381 C 0.6606 0.34674 0.58514 0.0
C2382 C 0.66455 0.35016 0.56614 0.0
H2383 H 0.70884 0.37439 0.53221 0.0
H2384 H 0.68694 0.37852 0.544 0.0
H2385 H 0.70248 0.36046 0.55242 0.0
H2386 H 0.6838 0.30777 0.55488 0.0
H2387 H 0.67666 0.30164 0.58777 0.0
H2388 H 0.84311 0.69628 0.08071 0.0
H2389 H 0.83465 0.6884 0.04856 0.0
H2390 H 0.82718 0.63042 0.06441 0.0
H2391 H 0.83593 0.63816 0.09689 0.0
H2392 H 0.84721 0.6347 0.03122 0.0
H2393 H 0.78224 0.67711 0.02875 0.0
H2394 H 0.80198 0.69072 0.03649 0.0
H2395 H 0.79389 0.67129 0.05052 0.0
C2396 C 0.83962 0.68183 0.07747 0.0
C2397 C 0.84006 0.66787 0.09147 0.0
C2398 C 0.83465 0.67738 0.05905 0.0
C2399 C 0.82984 0.65892 0.05417 0.0
C2400 C 0.83064 0.64481 0.06795 0.0
H2401 H 0.78548 0.64498 0.9394 0.0
H2402 H 0.78831 0.64177 0.97361 0.0
C2403 C 0.83566 0.64925 0.08648 0.0
C2404 C 0.8246 0.65452 0.03446 0.0
H2405 H 0.79603 0.66919 0.99884 0.0
C2406 C 0.83582 0.64198 0.0242 0.0
C2407 C 0.80949 0.66371 0.02537 0.0
C2408 C 0.79608 0.6763 0.03591 0.0
C2409 C 0.83309 0.63934 0.00483 0.0
C2410 C 0.819 0.64979 0.99544 0.0
C2411 C 0.807 0.66136 0.00595 0.0
C2412 C 0.81751 0.6502 0.97462 0.0
C2413 C 0.84554 0.6256 0.99457 0.0
C2414 C 0.83291 0.65609 0.96384 0.0
C2415 C 0.83134 0.65792 0.94439 0.0
C2416 C 0.81425 0.65409 0.93522 0.0
C2417 C 0.79884 0.64802 0.946 0.0
C2418 C 0.80044 0.64617 0.96555 0.0
H2419 H 0.85061 0.61436 0.00413 0.0
H2420 H 0.83807 0.61899 0.98257 0.0
H2421 H 0.85803 0.63313 0.98907 0.0
H2422 H 0.84606 0.65979 0.97053 0.0
H2423 H 0.8435 0.66269 0.93659 0.0
H2424 H 0.40369 0.16528 0.1385 0.0
H2425 H 0.43658 0.17308 0.13166 0.0
H2426 H 0.45028 0.16684 0.19034 0.0
H2427 H 0.41767 0.1594 0.19733 0.0
H2428 H 0.46524 0.19907 0.17478 0.0
H2429 H 0.48093 0.13643 0.13074 0.0
H2430 H 0.46139 0.15059 0.12331 0.0
H2431 H 0.46013 0.13802 0.14514 0.0
C2432 C 0.41373 0.16554 0.14992 0.0
C2433 C 0.40802 0.1617 0.16845 0.0
C2434 C 0.43253 0.16992 0.14598 0.0
C2435 C 0.44592 0.17038 0.16048 0.0
C2436 C 0.4402 0.1666 0.17894 0.0
H2437 H 0.56382 0.15814 0.1685 0.0
H2438 H 0.52979 0.15567 0.16638 0.0
C2439 C 0.4215 0.1623 0.18289 0.0
C2440 C 0.46596 0.1748 0.15676 0.0
H2441 H 0.5057 0.1576 0.13613 0.0
C2442 C 0.47407 0.19014 0.16615 0.0
C2443 C 0.47745 0.16304 0.1456 0.0
C2444 C 0.46965 0.146 0.1357 0.0
C2445 C 0.49346 0.19368 0.16523 0.0
C2446 C 0.50501 0.18176 0.15429 0.0
C2447 C 0.4968 0.16678 0.1444 0.0
C2448 C 0.5258 0.18337 0.15451 0.0
C2449 C 0.50152 0.20955 0.17674 0.0
C2450 C 0.53498 0.19971 0.1483 0.0
C2451 C 0.55457 0.20124 0.14962 0.0
C2452 C 0.5653 0.1864 0.15705 0.0
C2453 C 0.55605 0.1699 0.16277 0.0
C2454 C 0.53655 0.16842 0.16151 0.0
H2455 H 0.49133 0.21493 0.18726 0.0
H2456 H 0.51442 0.20496 0.18422 0.0
H2457 H 0.50535 0.22133 0.16729 0.0
H2458 H 0.527 0.21129 0.14252 0.0
H2459 H 0.56127 0.21408 0.14493 0.0
H2460 H 0.94042 0.78437 0.65795 0.0
H2461 H 0.9747 0.78794 0.65869 0.0
H2462 H 0.96864 0.84788 0.65231 0.0
H2463 H 0.93455 0.84451 0.65203 0.0
H2464 H 0.00138 0.80336 0.63452 0.0
H2465 H 0.99777 0.84351 0.70115 0.0
H2466 H 0.97786 0.83102 0.69172 0.0
H2467 H 0.98408 0.85378 0.68266 0.0
C2468 C 0.94642 0.79828 0.65654 0.0
C2469 C 0.93477 0.81418 0.65524 0.0
C2470 C 0.96599 0.8003 0.65695 0.0
C2471 C 0.9742 0.81822 0.65599 0.0
C2472 C 0.96261 0.83397 0.65357 0.0
H2473 H 0.09315 0.84651 0.64297 0.0
H2474 H 0.05984 0.83994 0.63713 0.0
C2475 C 0.94311 0.832 0.65335 0.0
C2476 C 0.99477 0.82066 0.65843 0.0
H2477 H 0.02734 0.8426 0.6859 0.0
C2478 C 0.0071 0.81187 0.64578 0.0
C2479 C 0.00221 0.83154 0.67331 0.0
C2480 C 0.98982 0.84035 0.6881 0.0
C2481 C 0.02669 0.81394 0.64745 0.0
C2482 C 0.03407 0.82539 0.66195 0.0
C2483 C 0.0217 0.83397 0.67468 0.0
C2484 C 0.05457 0.82828 0.66474 0.0
C2485 C 0.03927 0.80353 0.63395 0.0
C2486 C 0.06265 0.82418 0.68224 0.0
C2487 C 0.08151 0.8282 0.6857 0.0
C2488 C 0.0928 0.83634 0.67169 0.0
C2489 C 0.08485 0.84009 0.654 0.0
C2490 C 0.06584 0.83623 0.6506 0.0
H2491 H 0.03185 0.79154 0.62725 0.0
H2492 H 0.04382 0.81326 0.62266 0.0
H2493 H 0.052 0.79813 0.64116 0.0
H2494 H 0.05426 0.81806 0.69337 0.0
H2495 H 0.0872 0.82503 0.69945 0.0
H2496 H 0.06316 0.34338 0.83647 0.0
H2497 H 0.02919 0.34551 0.83922 0.0
H2498 H 0.02685 0.28809 0.85838 0.0
H2499 H 0.06111 0.28567 0.85534 0.0
H2500 H 0.00128 0.29506 0.83098 0.0
H2501 H 0.996 0.35054 0.88491 0.0
H2502 H 0.01082 0.35776 0.86588 0.0
H2503 H 0.01761 0.3381 0.8803 0.0
C2504 C 0.05552 0.3312 0.84144 0.0
C2505 C 0.06491 0.31433 0.84569 0.0
C2506 C 0.03605 0.33252 0.84317 0.0
C2507 C 0.02547 0.3171 0.84938 0.0
C2508 C 0.03476 0.30023 0.85373 0.0
H2509 H 0.90353 0.33542 0.86307 0.0
H2510 H 0.93613 0.32671 0.87025 0.0
C2511 C 0.05433 0.29887 0.85198 0.0
C2512 C 0.00465 0.3184 0.84993 0.0
H2513 H 0.96876 0.34649 0.86496 0.0
C2514 C 0.99413 0.30609 0.83868 0.0
C2515 C 0.99523 0.33257 0.86024 0.0
C2516 C 0.0055 0.34535 0.87367 0.0
C2517 C 0.97466 0.30832 0.83654 0.0
C2518 C 0.96551 0.3235 0.84557 0.0
C2519 C 0.97581 0.33505 0.85778 0.0
C2520 C 0.94566 0.32842 0.84143 0.0
C2521 C 0.96412 0.29455 0.82436 0.0
C2522 C 0.94031 0.33264 0.82295 0.0
C2523 C 0.9218 0.33757 0.81882 0.0
C2524 C 0.9082 0.33858 0.83312 0.0
C2525 C 0.91363 0.33469 0.85172 0.0
C2526 C 0.93224 0.3297 0.85584 0.0
H2527 H 0.97139 0.28074 0.82382 0.0
H2528 H 0.94957 0.29235 0.82954 0.0
H2529 H 0.96339 0.30008 0.8098 0.0
H2530 H 0.95052 0.33229 0.81168 0.0
H2531 H 0.91821 0.34065 0.80436 0.0
H2532 H 0.43952 0.71296 0.35578 0.0
H2533 H 0.47381 0.70978 0.35712 0.0
H2534 H 0.46955 0.65367 0.33469 0.0
H2535 H 0.4355 0.65653 0.33364 0.0
H2536 H 0.49452 0.65582 0.364 0.0
H2537 H 0.50825 0.71198 0.31144 0.0
H2538 H 0.49492 0.71909 0.33165 0.0
H2539 H 0.48511 0.70246 0.31539 0.0
C2540 C 0.4459 0.69994 0.35117 0.0
C2541 C 0.43475 0.68506 0.34446 0.0
C2542 C 0.4655 0.69817 0.35188 0.0
C2543 C 0.47427 0.68158 0.34575 0.0
C2544 C 0.46312 0.66661 0.33946 0.0
H2545 H 0.58283 0.65762 0.30222 0.0
H2546 H 0.55001 0.66451 0.30896 0.0
C2547 C 0.4436 0.66831 0.33882 0.0
C2548 C 0.49504 0.67968 0.34542 0.0
H2549 H 0.53455 0.69644 0.324 0.0
C2550 C 0.50333 0.6648 0.3554 0.0
C2551 C 0.50645 0.69131 0.33404 0.0
C2552 C 0.49828 0.70702 0.32238 0.0
C2553 C 0.52263 0.66094 0.35394 0.0
C2554 C 0.53401 0.67249 0.34245 0.0
C2555 C 0.52581 0.68767 0.33288 0.0
C2556 C 0.5541 0.66818 0.33885 0.0
C2557 C 0.53049 0.64402 0.364 0.0
C2558 C 0.56739 0.66795 0.35344 0.0
C2559 C 0.58628 0.66387 0.34964 0.0
C2560 C 0.5922 0.66013 0.33116 0.0
C2561 C 0.57881 0.66045 0.31662 0.0
C2562 C 0.56001 0.66444 0.32043 0.0
H2563 H 0.51924 0.63438 0.36891 0.0
H2564 H 0.54017 0.63605 0.35473 0.0
H2565 H 0.53856 0.64875 0.37647 0.0
H2566 H 0.56321 0.67112 0.36771 0.0
H2567 H 0.59624 0.66384 0.36114 0.0
H2568 H 0.19835 0.41861 0.15992 0.0
H2569 H 0.19079 0.45087 0.16835 0.0
H2570 H 0.13201 0.43663 0.17134 0.0
H2571 H 0.13943 0.40409 0.1626 0.0
H2572 H 0.13865 0.4697 0.15192 0.0
H2573 H 0.17617 0.47076 0.21991 0.0
H2574 H 0.19097 0.46287 0.2011 0.0
H2575 H 0.17073 0.44921 0.20769 0.0
C2576 C 0.18379 0.42223 0.16243 0.0
C2577 C 0.1695 0.40868 0.1607 0.0
C2578 C 0.17952 0.4407 0.1674 0.0
C2579 C 0.1609 0.44607 0.1709 0.0
C2580 C 0.14651 0.43272 0.1689 0.0
H2581 H 0.14396 0.56021 0.21576 0.0
H2582 H 0.14138 0.52603 0.21204 0.0
C2583 C 0.15077 0.41414 0.1639 0.0
C2584 C 0.15662 0.46586 0.17595 0.0
H2585 H 0.16957 0.50091 0.20603 0.0
C2586 C 0.14516 0.47647 0.16392 0.0
C2587 C 0.16481 0.47462 0.19181 0.0
C2588 C 0.17619 0.46372 0.20598 0.0
C2589 C 0.14259 0.49584 0.1667 0.0
C2590 C 0.15202 0.50488 0.18171 0.0
C2591 C 0.16254 0.49405 0.19438 0.0
C2592 C 0.15234 0.52566 0.18368 0.0
C2593 C 0.13 0.50647 0.15338 0.0
C2594 C 0.15948 0.53678 0.16907 0.0
C2595 C 0.16096 0.55621 0.17113 0.0
C2596 C 0.15551 0.56502 0.18797 0.0
C2597 C 0.14827 0.55389 0.20261 0.0
C2598 C 0.14677 0.53436 0.2005 0.0
H2599 H 0.11919 0.4971 0.14713 0.0
H2600 H 0.12282 0.51831 0.16057 0.0
H2601 H 0.13858 0.51224 0.14172 0.0
H2602 H 0.16435 0.53036 0.15615 0.0
H2603 H 0.16668 0.56429 0.15958 0.0
H2604 H 0.66651 0.93684 0.84365 0.0
H2605 H 0.66414 0.97081 0.8467 0.0
H2606 H 0.6422 0.97459 0.79036 0.0
H2607 H 0.64485 0.94039 0.78702 0.0
H2608 H 0.67025 0.99964 0.79647 0.0
H2609 H 0.61912 0.00442 0.85462 0.0
H2610 H 0.63837 0.98931 0.86055 0.0
H2611 H 0.62288 0.983 0.84156 0.0
C2612 C 0.661 0.94481 0.83192 0.0
C2613 C 0.65587 0.93584 0.81507 0.0
C2614 C 0.65949 0.96427 0.83377 0.0
C2615 C 0.65264 0.97524 0.8189 0.0
C2616 C 0.64737 0.96637 0.80208 0.0
H2617 H 0.63996 0.0971 0.83842 0.0
H2618 H 0.63252 0.06448 0.83001 0.0
C2619 C 0.6489 0.94683 0.80019 0.0
C2620 C 0.65239 0.99605 0.82062 0.0
H2621 H 0.63879 0.03167 0.84978 0.0
C2622 C 0.66311 0.00667 0.80794 0.0
C2623 C 0.64281 0.00532 0.83539 0.0
C2624 C 0.62999 0.99493 0.84867 0.0
C2625 C 0.66542 0.02612 0.81028 0.0
C2626 C 0.65708 0.03513 0.82593 0.0
C2627 C 0.64542 0.02472 0.83795 0.0
C2628 C 0.66137 0.05496 0.83076 0.0
C2629 C 0.677 0.03679 0.79609 0.0
C2630 C 0.67998 0.06033 0.83433 0.0
C2631 C 0.68427 0.07885 0.83909 0.0
C2632 C 0.67 0.09245 0.84056 0.0
C2633 C 0.65129 0.087 0.83731 0.0
C2634 C 0.64701 0.06838 0.83251 0.0
H2635 H 0.67706 0.02959 0.78225 0.0
H2636 H 0.67164 0.05132 0.79416 0.0
H2637 H 0.69174 0.03761 0.80109 0.0
H2638 H 0.69124 0.05012 0.83359 0.0
H2639 H 0.69882 0.08246 0.84166 0.0
H2640 H 0.8432 0.06075 0.28365 0.0
H2641 H 0.8429 0.02651 0.28779 0.0
H2642 H 0.85066 0.03362 0.34745 0.0
H2643 H 0.85044 0.06767 0.34353 0.0
H2644 H 0.86739 1.00012 0.30298 0.0
H2645 H 0.80188 0.00435 0.34487 0.0
H2646 H 0.81098 0.02409 0.33186 0.0
H2647 H 0.82064 0.01817 0.35446 0.0
C2648 C 0.84502 0.05499 0.29761 0.0
C2649 C 0.84652 0.0669 0.31329 0.0
C2650 C 0.84486 0.03544 0.29996 0.0
C2651 C 0.84631 0.02754 0.31799 0.0
C2652 C 0.84901 0.03941 0.33348 0.0
H2653 H 0.85935 0.90849 0.34697 0.0
H2654 H 0.86542 0.94174 0.34012 0.0
C2655 C 0.84894 0.05888 0.33119 0.0
C2656 C 0.84398 0.007 0.32083 0.0
H2657 H 0.81705 0.97476 0.34393 0.0
C2658 C 0.85636 0.99452 0.31188 0.0
C2659 C 0.8294 0.99973 0.33222 0.0
C2660 C 0.81485 0.01225 0.34125 0.0
C2661 C 0.85469 0.97496 0.31422 0.0
C2662 C 0.84048 0.96775 0.32613 0.0
C2663 C 0.82805 0.98027 0.33493 0.0
C2664 C 0.83758 0.9473 0.32918 0.0
C2665 C 0.86785 0.96221 0.30358 0.0
C2666 C 0.81988 0.93941 0.32558 0.0
C2667 C 0.81631 0.92061 0.32978 0.0
C2668 C 0.83039 0.90918 0.33759 0.0
C2669 C 0.84827 0.91692 0.34083 0.0
C2670 C 0.85178 0.93588 0.3368 0.0
H2671 H 0.87434 0.9695 0.29139 0.0
H2672 H 0.87932 0.95762 0.31308 0.0
H2673 H 0.86042 0.9495 0.29843 0.0
H2674 H 0.8087 0.9479 0.31971 0.0
H2675 H 0.80241 0.91508 0.32698 0.0
H2676 H 0.34246 0.44048 0.71779 0.0
H2677 H 0.34243 0.47474 0.71383 0.0
H2678 H 0.3529 0.46794 0.65456 0.0
H2679 H 0.35248 0.43388 0.65828 0.0
H2680 H 0.36777 0.50128 0.6996 0.0
H2681 H 0.30378 0.49708 0.65539 0.0
H2682 H 0.31236 0.47736 0.66879 0.0
H2683 H 0.3229 0.48324 0.64658 0.0
C2684 C 0.34497 0.44631 0.70397 0.0
C2685 C 0.34716 0.43447 0.68831 0.0
C2686 C 0.34495 0.46588 0.70172 0.0
C2687 C 0.34723 0.47388 0.68382 0.0
C2688 C 0.35063 0.46208 0.66841 0.0
H2689 H 0.36107 0.59298 0.65543 0.0
H2690 H 0.3669 0.5597 0.6623 0.0
C2691 C 0.35045 0.44259 0.67059 0.0
C2692 C 0.34498 0.49442 0.68096 0.0
H2693 H 0.31878 0.52671 0.65708 0.0
C2694 C 0.35704 0.50689 0.69035 0.0
C2695 C 0.33078 0.50172 0.6691 0.0
C2696 C 0.31659 0.48918 0.65953 0.0
C2697 C 0.35544 0.52646 0.68799 0.0
C2698 C 0.34162 0.53369 0.67564 0.0
C2699 C 0.32949 0.52118 0.66641 0.0
C2700 C 0.3388 0.55416 0.67255 0.0
C2701 C 0.36825 0.5392 0.69905 0.0
C2702 C 0.32104 0.56208 0.67576 0.0
C2703 C 0.31762 0.58091 0.67158 0.0
C2704 C 0.3319 0.59235 0.66415 0.0
C2705 C 0.34982 0.58456 0.66127 0.0
C2706 C 0.3532 0.56557 0.6653 0.0
H2707 H 0.37443 0.53188 0.71137 0.0
H2708 H 0.37996 0.54389 0.68989 0.0
H2709 H 0.36062 0.55185 0.70405 0.0
H2710 H 0.30971 0.55358 0.68132 0.0
H2711 H 0.30367 0.58646 0.67409 0.0
H2712 H 0.78544 0.85511 0.43806 0.0
H2713 H 0.78796 0.85727 0.47237 0.0
H2714 H 0.84519 0.83768 0.46942 0.0
H2715 H 0.84296 0.83581 0.43537 0.0
H2716 H 0.79473 0.82931 0.49734 0.0
H2717 H 0.85071 0.88267 0.50349 0.0
H2718 H 0.8382 0.87854 0.48181 0.0
H2719 H 0.85768 0.86378 0.48836 0.0
C2720 C 0.79861 0.85145 0.44472 0.0
C2721 C 0.814 0.84532 0.43394 0.0
C2722 C 0.80003 0.8527 0.46432 0.0
C2723 C 0.81688 0.84799 0.47346 0.0
C2724 C 0.83222 0.8419 0.46269 0.0
H2725 H 0.83931 0.80208 0.58105 0.0
H2726 H 0.83133 0.80937 0.54861 0.0
C2727 C 0.83085 0.84069 0.44318 0.0
C2728 C 0.81824 0.84812 0.49429 0.0
H2729 H 0.84624 0.86257 0.53048 0.0
C2730 C 0.8058 0.83684 0.50462 0.0
C2731 C 0.83245 0.8582 0.50388 0.0
C2732 C 0.84538 0.87164 0.49381 0.0
C2733 C 0.8079 0.83449 0.52409 0.0
C2734 C 0.82306 0.84335 0.53342 0.0
C2735 C 0.83479 0.85553 0.52329 0.0
C2736 C 0.8277 0.83918 0.55333 0.0
C2737 C 0.79395 0.82234 0.53444 0.0
C2738 C 0.82897 0.85362 0.56673 0.0
C2739 C 0.83375 0.84951 0.58539 0.0
C2740 C 0.83743 0.8309 0.59092 0.0
C2741 C 0.83639 0.81655 0.57737 0.0
C2742 C 0.83168 0.82067 0.55879 0.0
H2743 H 0.78022 0.8219 0.52703 0.0
H2744 H 0.7994 0.80775 0.53517 0.0
H2745 H 0.79163 0.82747 0.54899 0.0
H2746 H 0.82615 0.86804 0.56277 0.0
H2747 H 0.83451 0.8609 0.59545 0.0
H2748 H 0.65941 0.16411 0.93868 0.0
H2749 H 0.6569 0.16173 0.97268 0.0
H2750 H 0.71371 0.14094 0.97569 0.0
H2751 H 0.71653 0.14363 0.94142 0.0
H2752 H 0.66046 0.13167 0.99695 0.0
H2753 H 0.71474 0.18614 0.01103 0.0
H2754 H 0.705 0.1824 0.98794 0.0
H2755 H 0.7222 0.16641 0.99717 0.0
C2756 C 0.67142 0.15899 0.94649 0.0
C2757 C 0.68827 0.15425 0.9373 0.0
C2758 C 0.66991 0.15757 0.96597 0.0
C2759 C 0.68517 0.15138 0.97677 0.0
C2760 C 0.70186 0.14607 0.96765 0.0
H2761 H 0.66677 0.13736 0.09924 0.0
H2762 H 0.67525 0.12986 0.06664 0.0
C2763 C 0.70342 0.14755 0.94807 0.0
C2764 C 0.68351 0.15122 0.99756 0.0
H2765 H 0.69911 0.17344 0.0371 0.0
C2766 C 0.66906 0.1406 0.0058 0.0
C2767 C 0.69467 0.16302 0.00903 0.0
C2768 C 0.70994 0.17527 0.00091 0.0
C2769 C 0.66501 0.14197 0.02508 0.0
C2770 C 0.67592 0.15406 0.03645 0.0
C2771 C 0.69083 0.16412 0.02834 0.0
C2772 C 0.67089 0.15812 0.05628 0.0
C2773 C 0.64849 0.13126 0.03291 0.0
C2774 C 0.66588 0.17649 0.0613 0.0
C2775 C 0.66117 0.18082 0.07981 0.0
C2776 C 0.6614 0.16686 0.09381 0.0
C2777 C 0.66637 0.1484 0.08878 0.0
C2778 C 0.67116 0.14408 0.07016 0.0
H2779 H 0.63949 0.12528 0.02164 0.0
H2780 H 0.65369 0.11949 0.04171 0.0
H2781 H 0.63972 0.14049 0.04192 0.0
H2782 H 0.66552 0.18753 0.05083 0.0
H2783 H 0.65738 0.19518 0.08311 0.0
H2784 H 0.33462 0.63957 0.40518 0.0
H2785 H 0.32618 0.63228 0.43782 0.0
H2786 H 0.33438 0.69037 0.45291 0.0
H2787 H 0.34248 0.69781 0.42054 0.0
H2788 H 0.34662 0.63635 0.47031 0.0
H2789 H 0.28254 0.68 0.47415 0.0
H2790 H 0.29369 0.67411 0.45215 0.0
H2791 H 0.30239 0.69329 0.46616 0.0
C2792 C 0.33454 0.65079 0.41545 0.0
C2793 C 0.33907 0.6693 0.41019 0.0
C2794 C 0.32971 0.64661 0.43408 0.0
C2795 C 0.32923 0.66087 0.44772 0.0
C2796 C 0.33412 0.67924 0.44255 0.0
H2797 H 0.34452 0.66273 0.56554 0.0
H2798 H 0.34669 0.66068 0.53151 0.0
C2799 C 0.33889 0.68344 0.424 0.0
C2800 C 0.32435 0.65664 0.46756 0.0
H2801 H 0.29663 0.67155 0.50376 0.0
C2802 C 0.3355 0.64381 0.47756 0.0
C2803 C 0.30959 0.66607 0.47697 0.0
C2804 C 0.29624 0.67898 0.46674 0.0
C2805 C 0.333 0.64104 0.49695 0.0
C2806 C 0.31925 0.65165 0.50664 0.0
C2807 C 0.30735 0.6636 0.49641 0.0
C2808 C 0.31793 0.65171 0.52747 0.0
C2809 C 0.3453 0.62693 0.50688 0.0
C2810 C 0.30088 0.64777 0.53661 0.0
C2811 C 0.29951 0.64914 0.55621 0.0
C2812 C 0.31514 0.65461 0.56699 0.0
C2813 C 0.3322 0.65839 0.55775 0.0
C2814 C 0.33353 0.65706 0.53824 0.0
H2815 H 0.35009 0.61574 0.49711 0.0
H2816 H 0.35797 0.63416 0.51238 0.0
H2817 H 0.33783 0.62027 0.51884 0.0
H2818 H 0.2886 0.64378 0.52856 0.0
H2819 H 0.28616 0.64615 0.56287 0.0
H2820 H 0.21604 0.35661 0.05976 0.0
H2821 H 0.21321 0.35968 0.02553 0.0
H2822 H 0.1561 0.33974 0.02845 0.0
H2823 H 0.15864 0.33697 0.06241 0.0
H2824 H 0.20639 0.33231 0.99997 0.0
H2825 H 0.15006 0.38542 0.99541 0.0
H2826 H 0.16277 0.38092 0.0169 0.0
H2827 H 0.14328 0.36622 0.01022 0.0
C2828 C 0.20283 0.35308 0.05311 0.0
C2829 C 0.18757 0.34657 0.06386 0.0
C2830 C 0.20123 0.35485 0.03356 0.0
C2831 C 0.18432 0.3503 0.02444 0.0
C2832 C 0.16911 0.34385 0.03518 0.0
H2833 H 0.16044 0.30533 0.91729 0.0
H2834 H 0.16887 0.31272 0.94956 0.0
C2835 C 0.17066 0.34211 0.05464 0.0
C2836 C 0.1828 0.3509 0.00363 0.0
H2837 H 0.15421 0.36569 0.96803 0.0
C2838 C 0.19518 0.33988 0.99296 0.0
C2839 C 0.1684 0.36104 0.99438 0.0
C2840 C 0.15552 0.37423 0.00482 0.0
C2841 C 0.19283 0.3378 0.97348 0.0
C2842 C 0.17746 0.34667 0.9645 0.0
C2843 C 0.16581 0.35865 0.97495 0.0
C2844 C 0.17243 0.34251 0.94468 0.0
C2845 C 0.20669 0.32587 0.96277 0.0
C2846 C 0.17095 0.35692 0.93126 0.0
C2847 C 0.16592 0.35275 0.91267 0.0
C2848 C 0.16219 0.33411 0.90725 0.0
C2849 C 0.16339 0.31982 0.92086 0.0
C2850 C 0.16836 0.324 0.93935 0.0
H2851 H 0.22054 0.32546 0.96994 0.0
H2852 H 0.20133 0.31125 0.96199 0.0
H2853 H 0.20871 0.33116 0.94824 0.0
H2854 H 0.17382 0.37135 0.93514 0.0
H2855 H 0.16504 0.36409 0.90257 0.0
H2856 H 0.58317 0.8442 0.80588 0.0
H2857 H 0.55071 0.83653 0.81331 0.0
H2858 H 0.566 0.82654 0.87107 0.0
H2859 H 0.59875 0.83455 0.8638 0.0
H2860 H 0.53637 0.80323 0.82716 0.0
H2861 H 0.5215 0.86277 0.87558 0.0
H2862 H 0.5419 0.86229 0.86054 0.0
H2863 H 0.5413 0.84827 0.8815 0.0
C2864 C 0.57971 0.84046 0.82022 0.0
C2865 C 0.59361 0.84002 0.83426 0.0
C2866 C 0.5611 0.83602 0.82442 0.0
C2867 C 0.55588 0.83107 0.84276 0.0
C2868 C 0.56967 0.8306 0.85688 0.0
H2869 H 0.44067 0.78635 0.85717 0.0
H2870 H 0.47497 0.7889 0.85967 0.0
C2871 C 0.58838 0.83512 0.85269 0.0
C2872 C 0.53597 0.82629 0.8467 0.0
H2873 H 0.49664 0.84198 0.86924 0.0
C2874 C 0.5277 0.81154 0.83654 0.0
C2875 C 0.5247 0.83724 0.85886 0.0
C2876 C 0.53269 0.85363 0.86967 0.0
C2877 C 0.50835 0.80788 0.83764 0.0
C2878 C 0.497 0.81905 0.84954 0.0
C2879 C 0.50539 0.83336 0.86023 0.0
C2880 C 0.4762 0.81752 0.84946 0.0
C2881 C 0.50008 0.79276 0.82529 0.0
C2882 C 0.46548 0.83292 0.84347 0.0
C2883 C 0.44598 0.83156 0.84215 0.0
C2884 C 0.43669 0.81474 0.8468 0.0
C2885 C 0.44739 0.79944 0.85331 0.0
C2886 C 0.46699 0.80085 0.85469 0.0
H2887 H 0.51011 0.78798 0.81433 0.0
H2888 H 0.49629 0.78044 0.83406 0.0
H2889 H 0.48712 0.79785 0.81826 0.0
H2890 H 0.47225 0.84592 0.83938 0.0
H2891 H 0.43823 0.84367 0.83718 0.0
H2892 H 0.92026 0.16081 0.30306 0.0
H2893 H 0.95257 0.16901 0.31067 0.0
H2894 H 0.93685 0.17843 0.36842 0.0
H2895 H 0.90431 0.16983 0.36098 0.0
H2896 H 0.96686 0.202 0.32461 0.0
H2897 H 0.98129 0.14261 0.37332 0.0
H2898 H 0.96092 0.14315 0.35827 0.0
H2899 H 0.96153 0.15714 0.37926 0.0
C2900 C 0.9236 0.16456 0.31743 0.0
C2901 C 0.90967 0.16461 0.33144 0.0
C2902 C 0.94212 0.1693 0.32174 0.0
C2903 C 0.94719 0.17419 0.34013 0.0
C2904 C 0.93332 0.1744 0.35418 0.0
H2905 H 0.06232 0.21904 0.35558 0.0
H2906 H 0.02797 0.21668 0.35761 0.0
C2907 C 0.91472 0.16955 0.34989 0.0
C2908 C 0.96705 0.17903 0.34427 0.0
H2909 H 0.00609 0.16362 0.3675 0.0
C2910 C 0.97542 0.19376 0.33415 0.0
C2911 C 0.97818 0.16818 0.35666 0.0
C2912 C 0.97014 0.15179 0.36742 0.0
C2913 C 0.99475 0.19748 0.33551 0.0
C2914 C 0.00595 0.18642 0.34764 0.0
C2915 C 0.99744 0.17216 0.35831 0.0
C2916 C 0.02676 0.18791 0.3478 0.0
C2917 C 0.00316 0.21254 0.32317 0.0
C2918 C 0.0375 0.17239 0.34221 0.0
C2919 C 0.05702 0.17363 0.34119 0.0
C2920 C 0.06632 0.19047 0.34574 0.0
C2921 C 0.05559 0.20592 0.35183 0.0
C2922 C 0.03596 0.20462 0.35292 0.0
H2923 H 0.99326 0.21721 0.31204 0.0
H2924 H 0.00678 0.22492 0.33191 0.0
H2925 H 0.01623 0.20744 0.31636 0.0
H2926 H 0.03074 0.15935 0.33821 0.0
H2927 H 0.06477 0.1614 0.33653 0.0
H2928 H 0.09779 0.66342 0.13756 0.0
H2929 H 0.06525 0.67183 0.12964 0.0
H2930 H 0.04959 0.66609 0.18786 0.0
H2931 H 0.08177 0.65791 0.1959 0.0
H2932 H 0.03177 0.65167 0.13511 0.0
H2933 H 0.03028 0.71853 0.17465 0.0
H2934 H 0.0519 0.70656 0.1689 0.0
H2935 H 0.03817 0.69926 0.18884 0.0
C2936 C 0.0874 0.66398 0.14866 0.0
C2937 C 0.09245 0.66015 0.16739 0.0
C2938 C 0.06884 0.6688 0.14412 0.0
C2939 C 0.05511 0.67 0.15824 0.0
C2940 C 0.06005 0.66574 0.17682 0.0
H2941 H 0.93711 0.65847 0.1633 0.0
H2942 H 0.97101 0.65506 0.16058 0.0
C2943 C 0.07849 0.66094 0.18136 0.0
C2944 C 0.03542 0.67519 0.15378 0.0
H2945 H 1.00025 0.70487 0.16729 0.0
C2946 C 0.02493 0.66348 0.14189 0.0
C2947 C 0.02658 0.69081 0.16232 0.0
C2948 C 0.03737 0.70463 0.17423 0.0
C2949 C 0.00557 0.66631 0.13926 0.0
C2950 C 0.99644 0.68103 0.14904 0.0
C2951 C 0.00718 0.69343 0.15997 0.0
C2952 C 0.97566 0.68293 0.14937 0.0
C2953 C 0.99505 0.65331 0.12625 0.0
C2954 C 0.96694 0.69991 0.14434 0.0
C2955 C 0.94744 0.702 0.14605 0.0
C2956 C 0.93635 0.68719 0.15298 0.0
C2957 C 0.94516 0.67017 0.15784 0.0
C2958 C 0.96458 0.66811 0.15613 0.0
H2959 H 0.00448 0.6474 0.11531 0.0
H2960 H 0.98928 0.64139 0.13448 0.0
H2961 H 0.98321 0.66066 0.11923 0.0
H2962 H 0.97524 0.7116 0.13925 0.0
H2963 H 0.94111 0.71529 0.1422 0.0
H2964 H 0.41555 0.32758 0.69917 0.0
H2965 H 0.44857 0.32108 0.693 0.0
H2966 H 0.44128 0.33756 0.63517 0.0
H2967 H 0.40788 0.34382 0.64115 0.0
H2968 H 0.4637 0.30536 0.63943 0.0
H2969 H 0.48747 0.3625 0.68662 0.0
H2970 H 0.47214 0.3461 0.69806 0.0
H2971 H 0.4634 0.36027 0.67903 0.0
C2972 C 0.42089 0.32981 0.6851 0.0
C2973 C 0.4091 0.33641 0.67068 0.0
C2974 C 0.43982 0.32612 0.68162 0.0
C2975 C 0.44748 0.3292 0.66373 0.0
C2976 C 0.43566 0.3352 0.64912 0.0
H2977 H 0.56777 0.34096 0.64932 0.0
H2978 H 0.53381 0.34516 0.64804 0.0
C2979 C 0.4166 0.33879 0.65256 0.0
C2980 C 0.46793 0.32656 0.66058 0.0
H2981 H 0.51079 0.34077 0.6766 0.0
C2982 C 0.47404 0.31319 0.64743 0.0
C2983 C 0.48139 0.33699 0.67082 0.0
C2984 C 0.4758 0.3524 0.68428 0.0
C2985 C 0.49328 0.30961 0.64462 0.0
C2986 C 0.50671 0.31944 0.65552 0.0
C2987 C 0.50053 0.3331 0.66834 0.0
C2988 C 0.52727 0.31606 0.65394 0.0
C2989 C 0.49902 0.29554 0.62986 0.0
C2990 C 0.53499 0.29819 0.65733 0.0
C2991 C 0.55452 0.29569 0.65784 0.0
C2992 C 0.56662 0.31109 0.65534 0.0
C2993 C 0.55883 0.32882 0.65143 0.0
C2994 C 0.5394 0.33125 0.65069 0.0
H2995 H 0.48783 0.2936 0.61915 0.0
H2996 H 0.51213 0.29994 0.62265 0.0
H2997 H 0.50155 0.28174 0.63665 0.0
H2998 H 0.52596 0.28632 0.6603 0.0
H2999 H 0.5601 0.28189 0.66102 0.0
H3000 H 0.86336 0.5974 0.83582 0.0
H3001 H 0.87025 0.56463 0.82757 0.0
H3002 H 0.81151 0.55089 0.83298 0.0
H3003 H 0.80447 0.58341 0.84086 0.0
H3004 H 0.86466 0.53224 0.84749 0.0
H3005 H 0.82361 0.52951 0.78168 0.0
H3006 H 0.8294 0.55135 0.79318 0.0
H3007 H 0.80963 0.53764 0.80099 0.0
C3008 C 0.85191 0.5874 0.83517 0.0
C3009 C 0.83334 0.59309 0.83884 0.0
C3010 C 0.85587 0.56869 0.83044 0.0
C3011 C 0.84134 0.5554 0.82922 0.0
C3012 C 0.82289 0.56099 0.83328 0.0
H3013 H 0.83694 0.43748 0.84396 0.0
H3014 H 0.83929 0.47148 0.8463 0.0
C3015 C 0.81891 0.57961 0.83793 0.0
C3016 C 0.84532 0.53547 0.82445 0.0
H3017 H 0.83085 0.49968 0.79598 0.0
C3018 C 0.8575 0.52518 0.83605 0.0
C3019 C 0.83631 0.52631 0.80927 0.0
C3020 C 0.82417 0.53683 0.79545 0.0
C3021 C 0.86001 0.50576 0.83356 0.0
C3022 C 0.84977 0.49633 0.81935 0.0
C3023 C 0.8385 0.50683 0.80705 0.0
C3024 C 0.84941 0.4755 0.81792 0.0
C3025 C 0.87345 0.49552 0.84635 0.0
C3026 C 0.85387 0.46637 0.80099 0.0
C3027 C 0.85234 0.44678 0.79951 0.0
C3028 C 0.84619 0.43602 0.8149 0.0
C3029 C 0.84183 0.44526 0.83183 0.0
C3030 C 0.84332 0.46475 0.83327 0.0
H3031 H 0.88462 0.50506 0.85162 0.0
H3032 H 0.86565 0.4901 0.85871 0.0
H3033 H 0.88018 0.48347 0.83907 0.0
H3034 H 0.85843 0.47441 0.78891 0.0
H3035 H 0.85578 0.44012 0.78627 0.0
H3036 H 0.30326 0.9176 0.158 0.0
H3037 H 0.31026 0.95027 0.16531 0.0
H3038 H 0.36854 0.93612 0.17383 0.0
H3039 H 0.3617 0.90322 0.16613 0.0
H3040 H 0.32442 0.96539 0.19778 0.0
H3041 H 0.3717 0.98022 0.13739 0.0
H3042 H 0.35718 0.95949 0.13848 0.0
H3043 H 0.37844 0.96077 0.152 0.0
C3044 C 0.31761 0.92137 0.16134 0.0
C3045 C 0.33194 0.90776 0.16143 0.0
C3046 C 0.32158 0.94009 0.16557 0.0
C3047 C 0.33994 0.9457 0.16998 0.0
C3048 C 0.35432 0.93218 0.17016 0.0
H3049 H 0.35522 0.06078 0.21464 0.0
H3050 H 0.35714 0.02645 0.21192 0.0
C3051 C 0.35037 0.91337 0.16583 0.0
C3052 C 0.34369 0.96573 0.17449 0.0
H3053 H 0.36608 0.00504 0.1585 0.0
C3054 C 0.33367 0.97404 0.18932 0.0
C3055 C 0.35568 0.977 0.16335 0.0
C3056 C 0.36628 0.96903 0.14681 0.0
C3057 C 0.33484 0.99341 0.19295 0.0
C3058 C 0.34666 0.00472 0.18167 0.0
C3059 C 0.35714 0.99631 0.16721 0.0
C3060 C 0.34683 0.02553 0.18332 0.0
C3061 C 0.32266 0.0017 0.2082 0.0
C3062 C 0.34099 0.03644 0.16799 0.0
C3063 C 0.34003 0.05596 0.16944 0.0
C3064 C 0.34489 0.06508 0.1863 0.0
C3065 C 0.35122 0.05419 0.20153 0.0
C3066 C 0.35225 0.03457 0.20002 0.0
H3067 H 0.3116 0.99175 0.21292 0.0
H3068 H 0.33153 0.00524 0.22051 0.0
H3069 H 0.31578 0.01481 0.20327 0.0
H3070 H 0.33677 0.0298 0.15497 0.0
H3071 H 0.33517 0.06385 0.15738 0.0
H3072 H 0.1494 0.9339 0.6595 0.0
H3073 H 0.1493 0.96796 0.65574 0.0
H3074 H 0.16024 0.97472 0.71493 0.0
H3075 H 0.15991 0.94046 0.71894 0.0
H3076 H 0.13507 0.00152 0.70079 0.0
H3077 H 0.19879 0.99652 0.65627 0.0
H3078 H 0.17949 0.98284 0.64759 0.0
H3079 H 0.19007 0.97694 0.66977 0.0
C3080 C 0.15159 0.94261 0.67179 0.0
C3081 C 0.15493 0.93447 0.68949 0.0
C3082 C 0.15159 0.96209 0.66959 0.0
C3083 C 0.15523 0.97386 0.68496 0.0
C3084 C 0.15754 0.96587 0.70286 0.0
H3085 H 0.19953 0.08616 0.67406 0.0
H3086 H 0.19343 0.05337 0.68167 0.0
C3087 C 0.15735 0.9463 0.70513 0.0
C3088 C 0.15769 0.99437 0.68205 0.0
H3089 H 0.18403 0.0263 0.65785 0.0
C3090 C 0.1458 0.00699 0.69146 0.0
C3091 C 0.1719 0.00148 0.67008 0.0
C3092 C 0.18591 0.98877 0.66049 0.0
C3093 C 0.14756 0.02653 0.68898 0.0
C3094 C 0.16136 0.03357 0.6765 0.0
C3095 C 0.17334 0.02092 0.66728 0.0
C3096 C 0.16425 0.05399 0.67319 0.0
C3097 C 0.13493 0.03944 0.70006 0.0
C3098 C 0.14983 0.06539 0.66597 0.0
C3099 C 0.15324 0.08433 0.66173 0.0
C3100 C 0.17122 0.09207 0.66436 0.0
C3101 C 0.18554 0.08064 0.67175 0.0
C3102 C 0.18208 0.06186 0.67614 0.0
H3103 H 0.12885 0.03226 0.71251 0.0
H3104 H 0.14266 0.0521 0.70486 0.0
H3105 H 0.12314 0.04409 0.69098 0.0
H3106 H 0.13608 0.05955 0.66316 0.0
H3107 H 0.14196 0.09273 0.65593 0.0
H3108 H 0.69742 0.41964 0.34234 0.0
H3109 H 0.68972 0.45192 0.33413 0.0
H3110 H 0.63216 0.43593 0.32416 0.0
H3111 H 0.63969 0.40339 0.33275 0.0
H3112 H 0.67592 0.46589 0.30078 0.0
H3113 H 0.62695 0.48061 0.3599 0.0
H3114 H 0.64214 0.46032 0.35961 0.0
H3115 H 0.62126 0.46069 0.34548 0.0
C3116 C 0.68307 0.42291 0.33848 0.0
C3117 C 0.66915 0.4089 0.33825 0.0
C3118 C 0.67872 0.44141 0.33374 0.0
C3119 C 0.66035 0.44639 0.32866 0.0
C3120 C 0.64637 0.43247 0.32832 0.0
H3121 H 0.6454 0.56135 0.28333 0.0
H3122 H 0.64303 0.52703 0.28591 0.0
C3123 C 0.65071 0.41387 0.33316 0.0
C3124 C 0.65621 0.46622 0.3237 0.0
H3125 H 0.6331 0.50538 0.33896 0.0
C3126 C 0.66638 0.47451 0.30897 0.0
C3127 C 0.64383 0.47741 0.33448 0.0
C3128 C 0.63299 0.46942 0.35085 0.0
C3129 C 0.6651 0.49382 0.30518 0.0
C3130 C 0.653 0.5051 0.3162 0.0
C3131 C 0.64227 0.49668 0.33046 0.0
C3132 C 0.65293 0.5259 0.31464 0.0
C3133 C 0.6775 0.50215 0.29013 0.0
C3134 C 0.65869 0.53668 0.33008 0.0
C3135 C 0.65991 0.55618 0.32871 0.0
C3136 C 0.65541 0.56541 0.31182 0.0
C3137 C 0.64913 0.55466 0.29648 0.0
C3138 C 0.64784 0.53505 0.2979 0.0
H3139 H 0.68857 0.49219 0.28547 0.0
H3140 H 0.66879 0.50582 0.27774 0.0
H3141 H 0.68437 0.51519 0.29523 0.0
H3142 H 0.66268 0.52994 0.34314 0.0
H3143 H 0.66471 0.56396 0.34087 0.0
loop_
_geom_bond_atom_site_label_1
_geom_bond_atom_site_label_2
_geom_bond_distance
_geom_bond_site_symmetry_2
_ccdc_geom_bond_type
Co0 O2 2.143 . S
Co0 O8 2.074 . S
Co0 O11 2.093 . S
Co0 O24 2.097 . S
Co0 N41 2.151 . S
Co0 N49 2.214 . S
Co1 O2 2.160 . S
Co1 O7 2.058 . S
Co1 O17 2.057 . S
Co1 O32 2.037 . S
Co1 N36 2.145 . S
Co1 N57 2.257 . S
O2 Co0 2.143 . S
O2 Co1 2.160 . S
C3 O4 1.278 . S
C3 O11 1.224 . S
O4 C3 1.278 . S
C5 O6 1.245 . S
C5 O17 1.232 . S
O6 C5 1.245 . S
O7 Co1 2.058 . S
O7 C33 1.269 . S
O8 Co0 2.074 . S
O8 C33 1.257 . S
H9 C34 0.930 . S
H10 C40 0.930 . S
O11 Co0 2.093 . S
O11 C3 1.224 . S
H12 C44 0.929 . S
H13 C46 0.930 . S
H14 C47 0.930 . S
H15 C45 0.929 . S
H16 C48 0.928 . S
O17 Co1 2.057 . S
O17 C5 1.232 . S
H18 C37 0.929 . S
H19 C38 0.929 . S
H20 C50 0.931 . S
H21 C42 0.929 . S
H22 C51 0.930 . S
H23 C43 0.931 . S
O24 Co0 2.097 . S
O24 C52 1.214 . S
H25 C53 0.929 . S
H26 C54 0.929 . S
H27 C55 0.930 . S
H28 C56 0.929 . S
H29 C58 0.930 . S
H30 C35 0.930 . S
H31 C39 0.930 . S
O32 Co1 2.037 . S
O32 C52 1.234 . S
C33 O7 1.269 . S
C33 O8 1.257 . S
C34 H9 0.930 . S
C34 C37 1.388 . S
C34 C39 1.418 . S
C35 H30 0.930 . S
C35 C38 1.404 . S
C35 C39 1.353 . S
N36 Co1 2.145 . S
N36 C37 1.397 . S
N36 C38 1.334 . S
C37 H18 0.929 . S
C37 C34 1.388 . S
C37 N36 1.397 . S
C38 H19 0.929 . S
C38 C35 1.404 . S
C38 N36 1.334 . S
C39 H31 0.930 . S
C39 C34 1.418 . S
C39 C35 1.353 . S
C40 H10 0.930 . S
C40 N41 1.330 . S
C40 C42 1.446 . S
N41 Co0 2.151 . S
N41 C40 1.330 . S
N41 C45 1.418 . S
C42 H21 0.929 . S
C42 C40 1.446 . S
C42 C43 1.332 . S
C43 H23 0.931 . S
C43 C42 1.332 . S
C43 C44 1.267 . S
C44 H12 0.929 . S
C44 C43 1.267 . S
C44 C45 1.251 . S
C45 H15 0.929 . S
C45 N41 1.418 . S
C45 C44 1.251 . S
C46 H13 0.930 . S
C46 C48 1.406 . S
C46 C51 1.261 . S
C47 H14 0.930 . S
C47 N49 1.325 . S
C47 C50 1.357 . S
C48 H16 0.928 . S
C48 C46 1.406 . S
C48 N49 1.261 . S
N49 Co0 2.214 . S
N49 C47 1.325 . S
N49 C48 1.261 . S
C50 H20 0.931 . S
C50 C47 1.357 . S
C50 C51 1.312 . S
C51 H22 0.930 . S
C51 C46 1.261 . S
C51 C50 1.312 . S
C52 O24 1.214 . S
C52 O32 1.234 . S
C53 H25 0.929 . S
C53 C56 1.391 . S
C53 C58 1.391 . S
C54 H26 0.929 . S
C54 C55 1.390 . S
C54 N57 1.391 . S
C55 H27 0.930 . S
C55 C54 1.390 . S
C55 C56 1.392 . S
C56 H28 0.929 . S
C56 C53 1.391 . S
C56 C55 1.392 . S
N57 Co1 2.257 . S
N57 C54 1.391 . S
N57 C58 1.388 . S
C58 H29 0.930 . S
C58 C53 1.391 . S
C58 N57 1.388 . S
Co59 O61 2.143 . S
Co59 O67 2.074 . S
Co59 O70 2.093 . S
Co59 O83 2.097 . S
Co59 N100 2.151 . S
Co59 N108 2.214 . S
Co60 O61 2.160 . S
Co60 O66 2.058 . S
Co60 O76 2.057 . S
Co60 O91 2.037 . S
Co60 N95 2.145 . S
Co60 N116 2.257 . S
O61 Co59 2.143 . S
O61 Co60 2.160 . S
C62 O63 1.278 . S
C62 O70 1.224 . S
O63 C62 1.278 . S
C64 O65 1.245 . S
C64 O76 1.232 . S
O65 C64 1.245 . S
O66 Co60 2.058 . S
O66 C92 1.269 . S
O67 Co59 2.074 . S
O67 C92 1.257 . S
H68 C93 0.930 . S
H69 C99 0.930 . S
O70 Co59 2.093 . S
O70 C62 1.224 . S
H71 C103 0.929 . S
H72 C105 0.930 . S
H73 C106 0.930 . S
H74 C104 0.929 . S
H75 C107 0.928 . S
O76 Co60 2.057 . S
O76 C64 1.232 . S
H77 C96 0.929 . S
H78 C97 0.929 . S
H79 C109 0.931 . S
H80 C101 0.929 . S
H81 C110 0.930 . S
H82 C102 0.931 . S
O83 Co59 2.097 . S
O83 C111 1.214 . S
H84 C112 0.929 . S
H85 C113 0.929 . S
H86 C114 0.930 . S
H87 C115 0.929 . S
H88 C117 0.930 . S
H89 C94 0.930 . S
H90 C98 0.930 . S
O91 Co60 2.037 . S
O91 C111 1.234 . S
C92 O66 1.269 . S
C92 O67 1.257 . S
C93 H68 0.930 . S
C93 C96 1.388 . S
C93 C98 1.418 . S
C94 H89 0.930 . S
C94 C97 1.404 . S
C94 C98 1.353 . S
N95 Co60 2.145 . S
N95 C96 1.397 . S
N95 C97 1.334 . S
C96 H77 0.929 . S
C96 C93 1.388 . S
C96 N95 1.397 . S
C97 H78 0.929 . S
C97 C94 1.404 . S
C97 N95 1.334 . S
C98 H90 0.930 . S
C98 C93 1.418 . S
C98 C94 1.353 . S
C99 H69 0.930 . S
C99 N100 1.330 . S
C99 C101 1.446 . S
N100 Co59 2.151 . S
N100 C99 1.330 . S
N100 C104 1.418 . S
C101 H80 0.929 . S
C101 C99 1.446 . S
C101 C102 1.332 . S
C102 H82 0.931 . S
C102 C101 1.332 . S
C102 C103 1.267 . S
C103 H71 0.929 . S
C103 C102 1.267 . S
C103 C104 1.251 . S
C104 H74 0.929 . S
C104 N100 1.418 . S
C104 C103 1.251 . S
C105 H72 0.930 . S
C105 C107 1.406 . S
C105 C110 1.261 . S
C106 H73 0.930 . S
C106 N108 1.325 . S
C106 C109 1.357 . S
C107 H75 0.928 . S
C107 C105 1.406 . S
C107 N108 1.261 . S
N108 Co59 2.214 . S
N108 C106 1.325 . S
N108 C107 1.261 . S
C109 H79 0.931 . S
C109 C106 1.357 . S
C109 C110 1.312 . S
C110 H81 0.930 . S
C110 C105 1.261 . S
C110 C109 1.312 . S
C111 O83 1.214 . S
C111 O91 1.234 . S
C112 H84 0.929 . S
C112 C115 1.391 . S
C112 C117 1.391 . S
C113 H85 0.929 . S
C113 C114 1.390 . S
C113 N116 1.391 . S
C114 H86 0.930 . S
C114 C113 1.390 . S
C114 C115 1.392 . S
C115 H87 0.929 . S
C115 C112 1.391 . S
C115 C114 1.392 . S
N116 Co60 2.257 . S
N116 C113 1.391 . S
N116 C117 1.388 . S
C117 H88 0.930 . S
C117 C112 1.391 . S
C117 N116 1.388 . S
Co118 O120 2.143 . S
Co118 O126 2.074 . S
Co118 O129 2.093 . S
Co118 O142 2.097 . S
Co118 N159 2.151 . S
Co118 N167 2.214 . S
Co119 O120 2.160 . S
Co119 O125 2.058 . S
Co119 O135 2.057 . S
Co119 O150 2.037 . S
Co119 N154 2.145 . S
Co119 N175 2.257 . S
O120 Co118 2.143 . S
O120 Co119 2.160 . S
C121 O122 1.278 . S
C121 O129 1.224 . S
O122 C121 1.278 . S
C123 O124 1.245 . S
C123 O135 1.232 . S
O124 C123 1.245 . S
O125 Co119 2.058 . S
O125 C151 1.269 . S
O126 Co118 2.074 . S
O126 C151 1.257 . S
H127 C152 0.930 . S
H128 C158 0.930 . S
O129 Co118 2.093 . S
O129 C121 1.224 . S
H130 C162 0.929 . S
H131 C164 0.930 . S
H132 C165 0.930 . S
H133 C163 0.929 . S
H134 C166 0.928 . S
O135 Co119 2.057 . S
O135 C123 1.232 . S
H136 C155 0.929 . S
H137 C156 0.929 . S
H138 C168 0.931 . S
H139 C160 0.929 . S
H140 C169 0.930 . S
H141 C161 0.931 . S
O142 Co118 2.097 . S
O142 C170 1.214 . S
H143 C171 0.929 . S
H144 C172 0.929 . S
H145 C173 0.930 . S
H146 C174 0.929 . S
H147 C176 0.930 . S
H148 C153 0.930 . S
H149 C157 0.930 . S
O150 Co119 2.037 . S
O150 C170 1.234 . S
C151 O125 1.269 . S
C151 O126 1.257 . S
C152 H127 0.930 . S
C152 C155 1.388 . S
C152 C157 1.418 . S
C153 H148 0.930 . S
C153 C156 1.404 . S
C153 C157 1.353 . S
N154 Co119 2.145 . S
N154 C155 1.397 . S
N154 C156 1.334 . S
C155 H136 0.929 . S
C155 C152 1.388 . S
C155 N154 1.397 . S
C156 H137 0.929 . S
C156 C153 1.404 . S
C156 N154 1.334 . S
C157 H149 0.930 . S
C157 C152 1.418 . S
C157 C153 1.353 . S
C158 H128 0.930 . S
C158 N159 1.330 . S
C158 C160 1.446 . S
N159 Co118 2.151 . S
N159 C158 1.330 . S
N159 C163 1.418 . S
C160 H139 0.929 . S
C160 C158 1.446 . S
C160 C161 1.332 . S
C161 H141 0.931 . S
C161 C160 1.332 . S
C161 C162 1.267 . S
C162 H130 0.929 . S
C162 C161 1.267 . S
C162 C163 1.251 . S
C163 H133 0.929 . S
C163 N159 1.418 . S
C163 C162 1.251 . S
C164 H131 0.930 . S
C164 C166 1.406 . S
C164 C169 1.261 . S
C165 H132 0.930 . S
C165 N167 1.325 . S
C165 C168 1.357 . S
C166 H134 0.928 . S
C166 C164 1.406 . S
C166 N167 1.261 . S
N167 Co118 2.214 . S
N167 C165 1.325 . S
N167 C166 1.261 . S
C168 H138 0.931 . S
C168 C165 1.357 . S
C168 C169 1.312 . S
C169 H140 0.930 . S
C169 C164 1.261 . S
C169 C168 1.312 . S
C170 O142 1.214 . S
C170 O150 1.234 . S
C171 H143 0.929 . S
C171 C174 1.391 . S
C171 C176 1.391 . S
C172 H144 0.929 . S
C172 C173 1.390 . S
C172 N175 1.391 . S
C173 H145 0.930 . S
C173 C172 1.390 . S
C173 C174 1.392 . S
C174 H146 0.929 . S
C174 C171 1.391 . S
C174 C173 1.392 . S
N175 Co119 2.257 . S
N175 C172 1.391 . S
N175 C176 1.388 . S
C176 H147 0.930 . S
C176 C171 1.391 . S
C176 N175 1.388 . S
Co177 O179 2.143 . S
Co177 O185 2.074 . S
Co177 O188 2.093 . S
Co177 O201 2.097 . S
Co177 N218 2.151 . S
Co177 N226 2.214 . S
Co178 O179 2.160 . S
Co178 O184 2.058 . S
Co178 O194 2.057 . S
Co178 O209 2.037 . S
Co178 N213 2.145 . S
Co178 N234 2.257 . S
O179 Co177 2.143 . S
O179 Co178 2.160 . S
C180 O181 1.278 . S
C180 O188 1.224 . S
O181 C180 1.278 . S
C182 O183 1.245 . S
C182 O194 1.232 . S
O183 C182 1.245 . S
O184 Co178 2.058 . S
O184 C210 1.269 . S
O185 Co177 2.074 . S
O185 C210 1.257 . S
H186 C211 0.930 . S
H187 C217 0.930 . S
O188 Co177 2.093 . S
O188 C180 1.224 . S
H189 C221 0.929 . S
H190 C223 0.930 . S
H191 C224 0.930 . S
H192 C222 0.929 . S
H193 C225 0.928 . S
O194 Co178 2.057 . S
O194 C182 1.232 . S
H195 C214 0.929 . S
H196 C215 0.929 . S
H197 C227 0.931 . S
H198 C219 0.929 . S
H199 C228 0.930 . S
H200 C220 0.931 . S
O201 Co177 2.097 . S
O201 C229 1.214 . S
H202 C230 0.929 . S
H203 C231 0.929 . S
H204 C232 0.930 . S
H205 C233 0.929 . S
H206 C235 0.930 . S
H207 C212 0.930 . S
H208 C216 0.930 . S
O209 Co178 2.037 . S
O209 C229 1.234 . S
C210 O184 1.269 . S
C210 O185 1.257 . S
C211 H186 0.930 . S
C211 C214 1.388 . S
C211 C216 1.418 . S
C212 H207 0.930 . S
C212 C215 1.404 . S
C212 C216 1.353 . S
N213 Co178 2.145 . S
N213 C214 1.397 . S
N213 C215 1.334 . S
C214 H195 0.929 . S
C214 C211 1.388 . S
C214 N213 1.397 . S
C215 H196 0.929 . S
C215 C212 1.404 . S
C215 N213 1.334 . S
C216 H208 0.930 . S
C216 C211 1.418 . S
C216 C212 1.353 . S
C217 H187 0.930 . S
C217 N218 1.330 . S
C217 C219 1.446 . S
N218 Co177 2.151 . S
N218 C217 1.330 . S
N218 C222 1.418 . S
C219 H198 0.929 . S
C219 C217 1.446 . S
C219 C220 1.332 . S
C220 H200 0.931 . S
C220 C219 1.332 . S
C220 C221 1.267 . S
C221 H189 0.929 . S
C221 C220 1.267 . S
C221 C222 1.251 . S
C222 H192 0.929 . S
C222 N218 1.418 . S
C222 C221 1.251 . S
C223 H190 0.930 . S
C223 C225 1.406 . S
C223 C228 1.261 . S
C224 H191 0.930 . S
C224 N226 1.325 . S
C224 C227 1.357 . S
C225 H193 0.928 . S
C225 C223 1.406 . S
C225 N226 1.261 . S
N226 Co177 2.214 . S
N226 C224 1.325 . S
N226 C225 1.261 . S
C227 H197 0.931 . S
C227 C224 1.357 . S
C227 C228 1.312 . S
C228 H199 0.930 . S
C228 C223 1.261 . S
C228 C227 1.312 . S
C229 O201 1.214 . S
C229 O209 1.234 . S
C230 H202 0.929 . S
C230 C233 1.391 . S
C230 C235 1.391 . S
C231 H203 0.929 . S
C231 C232 1.390 . S
C231 N234 1.391 . S
C232 H204 0.930 . S
C232 C231 1.390 . S
C232 C233 1.392 . S
C233 H205 0.929 . S
C233 C230 1.391 . S
C233 C232 1.392 . S
N234 Co178 2.257 . S
N234 C231 1.391 . S
N234 C235 1.388 . S
C235 H206 0.930 . S
C235 C230 1.391 . S
C235 N234 1.388 . S
Co236 O238 2.143 . S
Co236 O244 2.074 . S
Co236 O247 2.093 . S
Co236 O260 2.097 . S
Co236 N277 2.151 . S
Co236 N285 2.214 . S
Co237 O238 2.160 . S
Co237 O243 2.058 . S
Co237 O253 2.057 . S
Co237 O268 2.037 . S
Co237 N272 2.145 . S
Co237 N293 2.257 . S
O238 Co236 2.143 . S
O238 Co237 2.160 . S
C239 O240 1.278 . S
C239 O247 1.224 . S
O240 C239 1.278 . S
C241 O242 1.245 . S
C241 O253 1.232 . S
O242 C241 1.245 . S
O243 Co237 2.058 . S
O243 C269 1.269 . S
O244 Co236 2.074 . S
O244 C269 1.257 . S
H245 C270 0.930 . S
H246 C276 0.930 . S
O247 Co236 2.093 . S
O247 C239 1.224 . S
H248 C280 0.929 . S
H249 C282 0.930 . S
H250 C283 0.930 . S
H251 C281 0.929 . S
H252 C284 0.928 . S
O253 Co237 2.057 . S
O253 C241 1.232 . S
H254 C273 0.929 . S
H255 C274 0.929 . S
H256 C286 0.931 . S
H257 C278 0.929 . S
H258 C287 0.930 . S
H259 C279 0.931 . S
O260 Co236 2.097 . S
O260 C288 1.214 . S
H261 C289 0.929 . S
H262 C290 0.929 . S
H263 C291 0.930 . S
H264 C292 0.929 . S
H265 C294 0.930 . S
H266 C271 0.930 . S
H267 C275 0.930 . S
O268 Co237 2.037 . S
O268 C288 1.234 . S
C269 O243 1.269 . S
C269 O244 1.257 . S
C270 H245 0.930 . S
C270 C273 1.388 . S
C270 C275 1.418 . S
C271 H266 0.930 . S
C271 C274 1.404 . S
C271 C275 1.353 . S
N272 Co237 2.145 . S
N272 C273 1.397 . S
N272 C274 1.334 . S
C273 H254 0.929 . S
C273 C270 1.388 . S
C273 N272 1.397 . S
C274 H255 0.929 . S
C274 C271 1.404 . S
C274 N272 1.334 . S
C275 H267 0.930 . S
C275 C270 1.418 . S
C275 C271 1.353 . S
C276 H246 0.930 . S
C276 N277 1.330 . S
C276 C278 1.446 . S
N277 Co236 2.151 . S
N277 C276 1.330 . S
N277 C281 1.418 . S
C278 H257 0.929 . S
C278 C276 1.446 . S
C278 C279 1.332 . S
C279 H259 0.931 . S
C279 C278 1.332 . S
C279 C280 1.267 . S
C280 H248 0.929 . S
C280 C279 1.267 . S
C280 C281 1.251 . S
C281 H251 0.929 . S
C281 N277 1.418 . S
C281 C280 1.251 . S
C282 H249 0.930 . S
C282 C284 1.406 . S
C282 C287 1.261 . S
C283 H250 0.930 . S
C283 N285 1.325 . S
C283 C286 1.357 . S
C284 H252 0.928 . S
C284 C282 1.406 . S
C284 N285 1.261 . S
N285 Co236 2.214 . S
N285 C283 1.325 . S
N285 C284 1.261 . S
C286 H256 0.931 . S
C286 C283 1.357 . S
C286 C287 1.312 . S
C287 H258 0.930 . S
C287 C282 1.261 . S
C287 C286 1.312 . S
C288 O260 1.214 . S
C288 O268 1.234 . S
C289 H261 0.929 . S
C289 C292 1.391 . S
C289 C294 1.391 . S
C290 H262 0.929 . S
C290 C291 1.390 . S
C290 N293 1.391 . S
C291 H263 0.930 . S
C291 C290 1.390 . S
C291 C292 1.392 . S
C292 H264 0.929 . S
C292 C289 1.391 . S
C292 C291 1.392 . S
N293 Co237 2.257 . S
N293 C290 1.391 . S
N293 C294 1.388 . S
C294 H265 0.930 . S
C294 C289 1.391 . S
C294 N293 1.388 . S
Co295 O297 2.143 . S
Co295 O303 2.074 . S
Co295 O306 2.093 . S
Co295 O319 2.097 . S
Co295 N336 2.151 . S
Co295 N344 2.214 . S
Co296 O297 2.160 . S
Co296 O302 2.058 . S
Co296 O312 2.057 . S
Co296 O327 2.037 . S
Co296 N331 2.145 . S
Co296 N352 2.257 . S
O297 Co295 2.143 . S
O297 Co296 2.160 . S
C298 O299 1.278 . S
C298 O306 1.224 . S
O299 C298 1.278 . S
C300 O301 1.245 . S
C300 O312 1.232 . S
O301 C300 1.245 . S
O302 Co296 2.058 . S
O302 C328 1.269 . S
O303 Co295 2.074 . S
O303 C328 1.257 . S
H304 C329 0.930 . S
H305 C335 0.930 . S
O306 Co295 2.093 . S
O306 C298 1.224 . S
H307 C339 0.929 . S
H308 C341 0.930 . S
H309 C342 0.930 . S
H310 C340 0.929 . S
H311 C343 0.928 . S
O312 Co296 2.057 . S
O312 C300 1.232 . S
H313 C332 0.929 . S
H314 C333 0.929 . S
H315 C345 0.931 . S
H316 C337 0.929 . S
H317 C346 0.930 . S
H318 C338 0.931 . S
O319 Co295 2.097 . S
O319 C347 1.214 . S
H320 C348 0.929 . S
H321 C349 0.929 . S
H322 C350 0.930 . S
H323 C351 0.929 . S
H324 C353 0.930 . S
H325 C330 0.930 . S
H326 C334 0.930 . S
O327 Co296 2.037 . S
O327 C347 1.234 . S
C328 O302 1.269 . S
C328 O303 1.257 . S
C329 H304 0.930 . S
C329 C332 1.388 . S
C329 C334 1.418 . S
C330 H325 0.930 . S
C330 C333 1.404 . S
C330 C334 1.353 . S
N331 Co296 2.145 . S
N331 C332 1.397 . S
N331 C333 1.334 . S
C332 H313 0.929 . S
C332 C329 1.388 . S
C332 N331 1.397 . S
C333 H314 0.929 . S
C333 C330 1.404 . S
C333 N331 1.334 . S
C334 H326 0.930 . S
C334 C329 1.418 . S
C334 C330 1.353 . S
C335 H305 0.930 . S
C335 N336 1.330 . S
C335 C337 1.446 . S
N336 Co295 2.151 . S
N336 C335 1.330 . S
N336 C340 1.418 . S
C337 H316 0.929 . S
C337 C335 1.446 . S
C337 C338 1.332 . S
C338 H318 0.931 . S
C338 C337 1.332 . S
C338 C339 1.267 . S
C339 H307 0.929 . S
C339 C338 1.267 . S
C339 C340 1.251 . S
C340 H310 0.929 . S
C340 N336 1.418 . S
C340 C339 1.251 . S
C341 H308 0.930 . S
C341 C343 1.406 . S
C341 C346 1.261 . S
C342 H309 0.930 . S
C342 N344 1.325 . S
C342 C345 1.357 . S
C343 H311 0.928 . S
C343 C341 1.406 . S
C343 N344 1.261 . S
N344 Co295 2.214 . S
N344 C342 1.325 . S
N344 C343 1.261 . S
C345 H315 0.931 . S
C345 C342 1.357 . S
C345 C346 1.312 . S
C346 H317 0.930 . S
C346 C341 1.261 . S
C346 C345 1.312 . S
C347 O319 1.214 . S
C347 O327 1.234 . S
C348 H320 0.929 . S
C348 C351 1.391 . S
C348 C353 1.391 . S
C349 H321 0.929 . S
C349 C350 1.390 . S
C349 N352 1.391 . S
C350 H322 0.930 . S
C350 C349 1.390 . S
C350 C351 1.392 . S
C351 H323 0.929 . S
C351 C348 1.391 . S
C351 C350 1.392 . S
N352 Co296 2.257 . S
N352 C349 1.391 . S
N352 C353 1.388 . S
C353 H324 0.930 . S
C353 C348 1.391 . S
C353 N352 1.388 . S
Co354 O356 2.143 . S
Co354 O362 2.074 . S
Co354 O365 2.093 . S
Co354 O378 2.097 . S
Co354 N395 2.151 . S
Co354 N403 2.214 . S
Co355 O356 2.160 . S
Co355 O361 2.058 . S
Co355 O371 2.057 . S
Co355 O386 2.037 . S
Co355 N390 2.145 . S
Co355 N411 2.257 . S
O356 Co354 2.143 . S
O356 Co355 2.160 . S
C357 O358 1.278 . S
C357 O365 1.224 . S
O358 C357 1.278 . S
C359 O360 1.245 . S
C359 O371 1.232 . S
O360 C359 1.245 . S
O361 Co355 2.058 . S
O361 C387 1.269 . S
O362 Co354 2.074 . S
O362 C387 1.257 . S
H363 C388 0.930 . S
H364 C394 0.930 . S
O365 Co354 2.093 . S
O365 C357 1.224 . S
H366 C398 0.929 . S
H367 C400 0.930 . S
H368 C401 0.930 . S
H369 C399 0.929 . S
H370 C402 0.928 . S
O371 Co355 2.057 . S
O371 C359 1.232 . S
H372 C391 0.929 . S
H373 C392 0.929 . S
H374 C404 0.931 . S
H375 C396 0.929 . S
H376 C405 0.930 . S
H377 C397 0.931 . S
O378 Co354 2.097 . S
O378 C406 1.214 . S
H379 C407 0.929 . S
H380 C408 0.929 . S
H381 C409 0.930 . S
H382 C410 0.929 . S
H383 C412 0.930 . S
H384 C389 0.930 . S
H385 C393 0.930 . S
O386 Co355 2.037 . S
O386 C406 1.234 . S
C387 O361 1.269 . S
C387 O362 1.257 . S
C388 H363 0.930 . S
C388 C391 1.388 . S
C388 C393 1.418 . S
C389 H384 0.930 . S
C389 C392 1.404 . S
C389 C393 1.353 . S
N390 Co355 2.145 . S
N390 C391 1.397 . S
N390 C392 1.334 . S
C391 H372 0.929 . S
C391 C388 1.388 . S
C391 N390 1.397 . S
C392 H373 0.929 . S
C392 C389 1.404 . S
C392 N390 1.334 . S
C393 H385 0.930 . S
C393 C388 1.418 . S
C393 C389 1.353 . S
C394 H364 0.930 . S
C394 N395 1.330 . S
C394 C396 1.446 . S
N395 Co354 2.151 . S
N395 C394 1.330 . S
N395 C399 1.418 . S
C396 H375 0.929 . S
C396 C394 1.446 . S
C396 C397 1.332 . S
C397 H377 0.931 . S
C397 C396 1.332 . S
C397 C398 1.267 . S
C398 H366 0.929 . S
C398 C397 1.267 . S
C398 C399 1.251 . S
C399 H369 0.929 . S
C399 N395 1.418 . S
C399 C398 1.251 . S
C400 H367 0.930 . S
C400 C402 1.406 . S
C400 C405 1.261 . S
C401 H368 0.930 . S
C401 N403 1.325 . S
C401 C404 1.357 . S
C402 H370 0.928 . S
C402 C400 1.406 . S
C402 N403 1.261 . S
N403 Co354 2.214 . S
N403 C401 1.325 . S
N403 C402 1.261 . S
C404 H374 0.931 . S
C404 C401 1.357 . S
C404 C405 1.312 . S
C405 H376 0.930 . S
C405 C400 1.261 . S
C405 C404 1.312 . S
C406 O378 1.214 . S
C406 O386 1.234 . S
C407 H379 0.929 . S
C407 C410 1.391 . S
C407 C412 1.391 . S
C408 H380 0.929 . S
C408 C409 1.390 . S
C408 N411 1.391 . S
C409 H381 0.930 . S
C409 C408 1.390 . S
C409 C410 1.392 . S
C410 H382 0.929 . S
C410 C407 1.391 . S
C410 C409 1.392 . S
N411 Co355 2.257 . S
N411 C408 1.391 . S
N411 C412 1.388 . S
C412 H383 0.930 . S
C412 C407 1.391 . S
C412 N411 1.388 . S
Co413 O415 2.143 . S
Co413 O421 2.074 . S
Co413 O424 2.093 . S
Co413 O437 2.097 . S
Co413 N454 2.151 . S
Co413 N462 2.214 . S
Co414 O415 2.160 . S
Co414 O420 2.058 . S
Co414 O430 2.057 . S
Co414 O445 2.037 . S
Co414 N449 2.145 . S
Co414 N470 2.257 . S
O415 Co413 2.143 . S
O415 Co414 2.160 . S
C416 O417 1.278 . S
C416 O424 1.224 . S
O417 C416 1.278 . S
C418 O419 1.245 . S
C418 O430 1.232 . S
O419 C418 1.245 . S
O420 Co414 2.058 . S
O420 C446 1.269 . S
O421 Co413 2.074 . S
O421 C446 1.257 . S
H422 C447 0.930 . S
H423 C453 0.930 . S
O424 Co413 2.093 . S
O424 C416 1.224 . S
H425 C457 0.929 . S
H426 C459 0.930 . S
H427 C460 0.930 . S
H428 C458 0.929 . S
H429 C461 0.928 . S
O430 Co414 2.057 . S
O430 C418 1.232 . S
H431 C450 0.929 . S
H432 C451 0.929 . S
H433 C463 0.931 . S
H434 C455 0.929 . S
H435 C464 0.930 . S
H436 C456 0.931 . S
O437 Co413 2.097 . S
O437 C465 1.214 . S
H438 C466 0.929 . S
H439 C467 0.929 . S
H440 C468 0.930 . S
H441 C469 0.929 . S
H442 C471 0.930 . S
H443 C448 0.930 . S
H444 C452 0.930 . S
O445 Co414 2.037 . S
O445 C465 1.234 . S
C446 O420 1.269 . S
C446 O421 1.257 . S
C447 H422 0.930 . S
C447 C450 1.388 . S
C447 C452 1.418 . S
C448 H443 0.930 . S
C448 C451 1.404 . S
C448 C452 1.353 . S
N449 Co414 2.145 . S
N449 C450 1.397 . S
N449 C451 1.334 . S
C450 H431 0.929 . S
C450 C447 1.388 . S
C450 N449 1.397 . S
C451 H432 0.929 . S
C451 C448 1.404 . S
C451 N449 1.334 . S
C452 H444 0.930 . S
C452 C447 1.418 . S
C452 C448 1.353 . S
C453 H423 0.930 . S
C453 N454 1.330 . S
C453 C455 1.446 . S
N454 Co413 2.151 . S
N454 C453 1.330 . S
N454 C458 1.418 . S
C455 H434 0.929 . S
C455 C453 1.446 . S
C455 C456 1.332 . S
C456 H436 0.931 . S
C456 C455 1.332 . S
C456 C457 1.267 . S
C457 H425 0.929 . S
C457 C456 1.267 . S
C457 C458 1.251 . S
C458 H428 0.929 . S
C458 N454 1.418 . S
C458 C457 1.251 . S
C459 H426 0.930 . S
C459 C461 1.406 . S
C459 C464 1.261 . S
C460 H427 0.930 . S
C460 N462 1.325 . S
C460 C463 1.357 . S
C461 H429 0.928 . S
C461 C459 1.406 . S
C461 N462 1.261 . S
N462 Co413 2.214 . S
N462 C460 1.325 . S
N462 C461 1.261 . S
C463 H433 0.931 . S
C463 C460 1.357 . S
C463 C464 1.312 . S
C464 H435 0.930 . S
C464 C459 1.261 . S
C464 C463 1.312 . S
C465 O437 1.214 . S
C465 O445 1.234 . S
C466 H438 0.929 . S
C466 C469 1.391 . S
C466 C471 1.391 . S
C467 H439 0.929 . S
C467 C468 1.390 . S
C467 N470 1.391 . S
C468 H440 0.930 . S
C468 C467 1.390 . S
C468 C469 1.392 . S
C469 H441 0.929 . S
C469 C466 1.391 . S
C469 C468 1.392 . S
N470 Co414 2.257 . S
N470 C467 1.391 . S
N470 C471 1.388 . S
C471 H442 0.930 . S
C471 C466 1.391 . S
C471 N470 1.388 . S
Co472 O474 2.143 . S
Co472 O480 2.074 . S
Co472 O483 2.093 . S
Co472 O496 2.097 . S
Co472 N513 2.151 . S
Co472 N521 2.214 . S
Co473 O474 2.160 . S
Co473 O479 2.058 . S
Co473 O489 2.057 . S
Co473 O504 2.037 . S
Co473 N508 2.145 . S
Co473 N529 2.257 . S
O474 Co472 2.143 . S
O474 Co473 2.160 . S
C475 O476 1.278 . S
C475 O483 1.224 . S
O476 C475 1.278 . S
C477 O478 1.245 . S
C477 O489 1.232 . S
O478 C477 1.245 . S
O479 Co473 2.058 . S
O479 C505 1.269 . S
O480 Co472 2.074 . S
O480 C505 1.257 . S
H481 C506 0.930 . S
H482 C512 0.930 . S
O483 Co472 2.093 . S
O483 C475 1.224 . S
H484 C516 0.929 . S
H485 C518 0.930 . S
H486 C519 0.930 . S
H487 C517 0.929 . S
H488 C520 0.928 . S
O489 Co473 2.057 . S
O489 C477 1.232 . S
H490 C509 0.929 . S
H491 C510 0.929 . S
H492 C522 0.931 . S
H493 C514 0.929 . S
H494 C523 0.930 . S
H495 C515 0.931 . S
O496 Co472 2.097 . S
O496 C524 1.214 . S
H497 C525 0.929 . S
H498 C526 0.929 . S
H499 C527 0.930 . S
H500 C528 0.929 . S
H501 C530 0.930 . S
H502 C507 0.930 . S
H503 C511 0.930 . S
O504 Co473 2.037 . S
O504 C524 1.234 . S
C505 O479 1.269 . S
C505 O480 1.257 . S
C506 H481 0.930 . S
C506 C509 1.388 . S
C506 C511 1.418 . S
C507 H502 0.930 . S
C507 C510 1.404 . S
C507 C511 1.353 . S
N508 Co473 2.145 . S
N508 C509 1.397 . S
N508 C510 1.334 . S
C509 H490 0.929 . S
C509 C506 1.388 . S
C509 N508 1.397 . S
C510 H491 0.929 . S
C510 C507 1.404 . S
C510 N508 1.334 . S
C511 H503 0.930 . S
C511 C506 1.418 . S
C511 C507 1.353 . S
C512 H482 0.930 . S
C512 N513 1.330 . S
C512 C514 1.446 . S
N513 Co472 2.151 . S
N513 C512 1.330 . S
N513 C517 1.418 . S
C514 H493 0.929 . S
C514 C512 1.446 . S
C514 C515 1.332 . S
C515 H495 0.931 . S
C515 C514 1.332 . S
C515 C516 1.267 . S
C516 H484 0.929 . S
C516 C515 1.267 . S
C516 C517 1.251 . S
C517 H487 0.929 . S
C517 N513 1.418 . S
C517 C516 1.251 . S
C518 H485 0.930 . S
C518 C520 1.406 . S
C518 C523 1.261 . S
C519 H486 0.930 . S
C519 N521 1.325 . S
C519 C522 1.357 . S
C520 H488 0.928 . S
C520 C518 1.406 . S
C520 N521 1.261 . S
N521 Co472 2.214 . S
N521 C519 1.325 . S
N521 C520 1.261 . S
C522 H492 0.931 . S
C522 C519 1.357 . S
C522 C523 1.312 . S
C523 H494 0.930 . S
C523 C518 1.261 . S
C523 C522 1.312 . S
C524 O496 1.214 . S
C524 O504 1.234 . S
C525 H497 0.929 . S
C525 C528 1.391 . S
C525 C530 1.391 . S
C526 H498 0.929 . S
C526 C527 1.390 . S
C526 N529 1.391 . S
C527 H499 0.930 . S
C527 C526 1.390 . S
C527 C528 1.392 . S
C528 H500 0.929 . S
C528 C525 1.391 . S
C528 C527 1.392 . S
N529 Co473 2.257 . S
N529 C526 1.391 . S
N529 C530 1.388 . S
C530 H501 0.930 . S
C530 C525 1.391 . S
C530 N529 1.388 . S
Co531 O533 2.143 . S
Co531 O539 2.074 . S
Co531 O542 2.093 . S
Co531 O555 2.097 . S
Co531 N572 2.151 . S
Co531 N580 2.214 . S
Co532 O533 2.160 . S
Co532 O538 2.058 . S
Co532 O548 2.057 . S
Co532 O563 2.037 . S
Co532 N567 2.145 . S
Co532 N588 2.257 . S
O533 Co531 2.143 . S
O533 Co532 2.160 . S
C534 O535 1.278 . S
C534 O542 1.224 . S
O535 C534 1.278 . S
C536 O537 1.245 . S
C536 O548 1.232 . S
O537 C536 1.245 . S
O538 Co532 2.058 . S
O538 C564 1.269 . S
O539 Co531 2.074 . S
O539 C564 1.257 . S
H540 C565 0.930 . S
H541 C571 0.930 . S
O542 Co531 2.093 . S
O542 C534 1.224 . S
H543 C575 0.929 . S
H544 C577 0.930 . S
H545 C578 0.930 . S
H546 C576 0.929 . S
H547 C579 0.928 . S
O548 Co532 2.057 . S
O548 C536 1.232 . S
H549 C568 0.929 . S
H550 C569 0.929 . S
H551 C581 0.931 . S
H552 C573 0.929 . S
H553 C582 0.930 . S
H554 C574 0.931 . S
O555 Co531 2.097 . S
O555 C583 1.214 . S
H556 C584 0.929 . S
H557 C585 0.929 . S
H558 C586 0.930 . S
H559 C587 0.929 . S
H560 C589 0.930 . S
H561 C566 0.930 . S
H562 C570 0.930 . S
O563 Co532 2.037 . S
O563 C583 1.234 . S
C564 O538 1.269 . S
C564 O539 1.257 . S
C565 H540 0.930 . S
C565 C568 1.388 . S
C565 C570 1.418 . S
C566 H561 0.930 . S
C566 C569 1.404 . S
C566 C570 1.353 . S
N567 Co532 2.145 . S
N567 C568 1.397 . S
N567 C569 1.334 . S
C568 H549 0.929 . S
C568 C565 1.388 . S
C568 N567 1.397 . S
C569 H550 0.929 . S
C569 C566 1.404 . S
C569 N567 1.334 . S
C570 H562 0.930 . S
C570 C565 1.418 . S
C570 C566 1.353 . S
C571 H541 0.930 . S
C571 N572 1.330 . S
C571 C573 1.446 . S
N572 Co531 2.151 . S
N572 C571 1.330 . S
N572 C576 1.418 . S
C573 H552 0.929 . S
C573 C571 1.446 . S
C573 C574 1.332 . S
C574 H554 0.931 . S
C574 C573 1.332 . S
C574 C575 1.267 . S
C575 H543 0.929 . S
C575 C574 1.267 . S
C575 C576 1.251 . S
C576 H546 0.929 . S
C576 N572 1.418 . S
C576 C575 1.251 . S
C577 H544 0.930 . S
C577 C579 1.406 . S
C577 C582 1.261 . S
C578 H545 0.930 . S
C578 N580 1.325 . S
C578 C581 1.357 . S
C579 H547 0.928 . S
C579 C577 1.406 . S
C579 N580 1.261 . S
N580 Co531 2.214 . S
N580 C578 1.325 . S
N580 C579 1.261 . S
C581 H551 0.931 . S
C581 C578 1.357 . S
C581 C582 1.312 . S
C582 H553 0.930 . S
C582 C577 1.261 . S
C582 C581 1.312 . S
C583 O555 1.214 . S
C583 O563 1.234 . S
C584 H556 0.929 . S
C584 C587 1.391 . S
C584 C589 1.391 . S
C585 H557 0.929 . S
C585 C586 1.390 . S
C585 N588 1.391 . S
C586 H558 0.930 . S
C586 C585 1.390 . S
C586 C587 1.392 . S
C587 H559 0.929 . S
C587 C584 1.391 . S
C587 C586 1.392 . S
N588 Co532 2.257 . S
N588 C585 1.391 . S
N588 C589 1.388 . S
C589 H560 0.930 . S
C589 C584 1.391 . S
C589 N588 1.388 . S
Co590 O592 2.143 . S
Co590 O598 2.074 . S
Co590 O601 2.093 . S
Co590 O614 2.097 . S
Co590 N631 2.151 . S
Co590 N639 2.214 . S
Co591 O592 2.160 . S
Co591 O597 2.058 . S
Co591 O607 2.057 . S
Co591 O622 2.037 . S
Co591 N626 2.145 . S
Co591 N647 2.257 . S
O592 Co590 2.143 . S
O592 Co591 2.160 . S
C593 O594 1.278 . S
C593 O601 1.224 . S
O594 C593 1.278 . S
C595 O596 1.245 . S
C595 O607 1.232 . S
O596 C595 1.245 . S
O597 Co591 2.058 . S
O597 C623 1.269 . S
O598 Co590 2.074 . S
O598 C623 1.257 . S
H599 C624 0.930 . S
H600 C630 0.930 . S
O601 Co590 2.093 . S
O601 C593 1.224 . S
H602 C634 0.929 . S
H603 C636 0.930 . S
H604 C637 0.930 . S
H605 C635 0.929 . S
H606 C638 0.928 . S
O607 Co591 2.057 . S
O607 C595 1.232 . S
H608 C627 0.929 . S
H609 C628 0.929 . S
H610 C640 0.931 . S
H611 C632 0.929 . S
H612 C641 0.930 . S
H613 C633 0.931 . S
O614 Co590 2.097 . S
O614 C642 1.214 . S
H615 C643 0.929 . S
H616 C644 0.929 . S
H617 C645 0.930 . S
H618 C646 0.929 . S
H619 C648 0.930 . S
H620 C625 0.930 . S
H621 C629 0.930 . S
O622 Co591 2.037 . S
O622 C642 1.234 . S
C623 O597 1.269 . S
C623 O598 1.257 . S
C624 H599 0.930 . S
C624 C627 1.388 . S
C624 C629 1.418 . S
C625 H620 0.930 . S
C625 C628 1.404 . S
C625 C629 1.353 . S
N626 Co591 2.145 . S
N626 C627 1.397 . S
N626 C628 1.334 . S
C627 H608 0.929 . S
C627 C624 1.388 . S
C627 N626 1.397 . S
C628 H609 0.929 . S
C628 C625 1.404 . S
C628 N626 1.334 . S
C629 H621 0.930 . S
C629 C624 1.418 . S
C629 C625 1.353 . S
C630 H600 0.930 . S
C630 N631 1.330 . S
C630 C632 1.446 . S
N631 Co590 2.151 . S
N631 C630 1.330 . S
N631 C635 1.418 . S
C632 H611 0.929 . S
C632 C630 1.446 . S
C632 C633 1.332 . S
C633 H613 0.931 . S
C633 C632 1.332 . S
C633 C634 1.267 . S
C634 H602 0.929 . S
C634 C633 1.267 . S
C634 C635 1.251 . S
C635 H605 0.929 . S
C635 N631 1.418 . S
C635 C634 1.251 . S
C636 H603 0.930 . S
C636 C638 1.406 . S
C636 C641 1.261 . S
C637 H604 0.930 . S
C637 N639 1.325 . S
C637 C640 1.357 . S
C638 H606 0.928 . S
C638 C636 1.406 . S
C638 N639 1.261 . S
N639 Co590 2.214 . S
N639 C637 1.325 . S
N639 C638 1.261 . S
C640 H610 0.931 . S
C640 C637 1.357 . S
C640 C641 1.312 . S
C641 H612 0.930 . S
C641 C636 1.261 . S
C641 C640 1.312 . S
C642 O614 1.214 . S
C642 O622 1.234 . S
C643 H615 0.929 . S
C643 C646 1.391 . S
C643 C648 1.391 . S
C644 H616 0.929 . S
C644 C645 1.390 . S
C644 N647 1.391 . S
C645 H617 0.930 . S
C645 C644 1.390 . S
C645 C646 1.392 . S
C646 H618 0.929 . S
C646 C643 1.391 . S
C646 C645 1.392 . S
N647 Co591 2.257 . S
N647 C644 1.391 . S
N647 C648 1.388 . S
C648 H619 0.930 . S
C648 C643 1.391 . S
C648 N647 1.388 . S
Co649 O651 2.143 . S
Co649 O657 2.074 . S
Co649 O660 2.093 . S
Co649 O673 2.097 . S
Co649 N690 2.151 . S
Co649 N698 2.214 . S
Co650 O651 2.160 . S
Co650 O656 2.058 . S
Co650 O666 2.057 . S
Co650 O681 2.037 . S
Co650 N685 2.145 . S
Co650 N706 2.257 . S
O651 Co649 2.143 . S
O651 Co650 2.160 . S
C652 O653 1.278 . S
C652 O660 1.224 . S
O653 C652 1.278 . S
C654 O655 1.245 . S
C654 O666 1.232 . S
O655 C654 1.245 . S
O656 Co650 2.058 . S
O656 C682 1.269 . S
O657 Co649 2.074 . S
O657 C682 1.257 . S
H658 C683 0.930 . S
H659 C689 0.930 . S
O660 Co649 2.093 . S
O660 C652 1.224 . S
H661 C693 0.929 . S
H662 C695 0.930 . S
H663 C696 0.930 . S
H664 C694 0.929 . S
H665 C697 0.928 . S
O666 Co650 2.057 . S
O666 C654 1.232 . S
H667 C686 0.929 . S
H668 C687 0.929 . S
H669 C699 0.931 . S
H670 C691 0.929 . S
H671 C700 0.930 . S
H672 C692 0.931 . S
O673 Co649 2.097 . S
O673 C701 1.214 . S
H674 C702 0.929 . S
H675 C703 0.929 . S
H676 C704 0.930 . S
H677 C705 0.929 . S
H678 C707 0.930 . S
H679 C684 0.930 . S
H680 C688 0.930 . S
O681 Co650 2.037 . S
O681 C701 1.234 . S
C682 O656 1.269 . S
C682 O657 1.257 . S
C683 H658 0.930 . S
C683 C686 1.388 . S
C683 C688 1.418 . S
C684 H679 0.930 . S
C684 C687 1.404 . S
C684 C688 1.353 . S
N685 Co650 2.145 . S
N685 C686 1.397 . S
N685 C687 1.334 . S
C686 H667 0.929 . S
C686 C683 1.388 . S
C686 N685 1.397 . S
C687 H668 0.929 . S
C687 C684 1.404 . S
C687 N685 1.334 . S
C688 H680 0.930 . S
C688 C683 1.418 . S
C688 C684 1.353 . S
C689 H659 0.930 . S
C689 N690 1.330 . S
C689 C691 1.446 . S
N690 Co649 2.151 . S
N690 C689 1.330 . S
N690 C694 1.418 . S
C691 H670 0.929 . S
C691 C689 1.446 . S
C691 C692 1.332 . S
C692 H672 0.931 . S
C692 C691 1.332 . S
C692 C693 1.267 . S
C693 H661 0.929 . S
C693 C692 1.267 . S
C693 C694 1.251 . S
C694 H664 0.929 . S
C694 N690 1.418 . S
C694 C693 1.251 . S
C695 H662 0.930 . S
C695 C697 1.406 . S
C695 C700 1.261 . S
C696 H663 0.930 . S
C696 N698 1.325 . S
C696 C699 1.357 . S
C697 H665 0.928 . S
C697 C695 1.406 . S
C697 N698 1.261 . S
N698 Co649 2.214 . S
N698 C696 1.325 . S
N698 C697 1.261 . S
C699 H669 0.931 . S
C699 C696 1.357 . S
C699 C700 1.312 . S
C700 H671 0.930 . S
C700 C695 1.261 . S
C700 C699 1.312 . S
C701 O673 1.214 . S
C701 O681 1.234 . S
C702 H674 0.929 . S
C702 C705 1.391 . S
C702 C707 1.391 . S
C703 H675 0.929 . S
C703 C704 1.390 . S
C703 N706 1.391 . S
C704 H676 0.930 . S
C704 C703 1.390 . S
C704 C705 1.392 . S
C705 H677 0.929 . S
C705 C702 1.391 . S
C705 C704 1.392 . S
N706 Co650 2.257 . S
N706 C703 1.391 . S
N706 C707 1.388 . S
C707 H678 0.930 . S
C707 C702 1.391 . S
C707 N706 1.388 . S
Co708 O710 2.143 . S
Co708 O716 2.074 . S
Co708 O719 2.093 . S
Co708 O732 2.097 . S
Co708 N749 2.151 . S
Co708 N757 2.214 . S
Co709 O710 2.160 . S
Co709 O715 2.058 . S
Co709 O725 2.057 . S
Co709 O740 2.037 . S
Co709 N744 2.145 . S
Co709 N765 2.257 . S
O710 Co708 2.143 . S
O710 Co709 2.160 . S
C711 O712 1.278 . S
C711 O719 1.224 . S
O712 C711 1.278 . S
C713 O714 1.245 . S
C713 O725 1.232 . S
O714 C713 1.245 . S
O715 Co709 2.058 . S
O715 C741 1.269 . S
O716 Co708 2.074 . S
O716 C741 1.257 . S
H717 C742 0.930 . S
H718 C748 0.930 . S
O719 Co708 2.093 . S
O719 C711 1.224 . S
H720 C752 0.929 . S
H721 C754 0.930 . S
H722 C755 0.930 . S
H723 C753 0.929 . S
H724 C756 0.928 . S
O725 Co709 2.057 . S
O725 C713 1.232 . S
H726 C745 0.929 . S
H727 C746 0.929 . S
H728 C758 0.931 . S
H729 C750 0.929 . S
H730 C759 0.930 . S
H731 C751 0.931 . S
O732 Co708 2.097 . S
O732 C760 1.214 . S
H733 C761 0.929 . S
H734 C762 0.929 . S
H735 C763 0.930 . S
H736 C764 0.929 . S
H737 C766 0.930 . S
H738 C743 0.930 . S
H739 C747 0.930 . S
O740 Co709 2.037 . S
O740 C760 1.234 . S
C741 O715 1.269 . S
C741 O716 1.257 . S
C742 H717 0.930 . S
C742 C745 1.388 . S
C742 C747 1.418 . S
C743 H738 0.930 . S
C743 C746 1.404 . S
C743 C747 1.353 . S
N744 Co709 2.145 . S
N744 C745 1.397 . S
N744 C746 1.334 . S
C745 H726 0.929 . S
C745 C742 1.388 . S
C745 N744 1.397 . S
C746 H727 0.929 . S
C746 C743 1.404 . S
C746 N744 1.334 . S
C747 H739 0.930 . S
C747 C742 1.418 . S
C747 C743 1.353 . S
C748 H718 0.930 . S
C748 N749 1.330 . S
C748 C750 1.446 . S
N749 Co708 2.151 . S
N749 C748 1.330 . S
N749 C753 1.418 . S
C750 H729 0.929 . S
C750 C748 1.446 . S
C750 C751 1.332 . S
C751 H731 0.931 . S
C751 C750 1.332 . S
C751 C752 1.267 . S
C752 H720 0.929 . S
C752 C751 1.267 . S
C752 C753 1.251 . S
C753 H723 0.929 . S
C753 N749 1.418 . S
C753 C752 1.251 . S
C754 H721 0.930 . S
C754 C756 1.406 . S
C754 C759 1.261 . S
C755 H722 0.930 . S
C755 N757 1.325 . S
C755 C758 1.357 . S
C756 H724 0.928 . S
C756 C754 1.406 . S
C756 N757 1.261 . S
N757 Co708 2.214 . S
N757 C755 1.325 . S
N757 C756 1.261 . S
C758 H728 0.931 . S
C758 C755 1.357 . S
C758 C759 1.312 . S
C759 H730 0.930 . S
C759 C754 1.261 . S
C759 C758 1.312 . S
C760 O732 1.214 . S
C760 O740 1.234 . S
C761 H733 0.929 . S
C761 C764 1.391 . S
C761 C766 1.391 . S
C762 H734 0.929 . S
C762 C763 1.390 . S
C762 N765 1.391 . S
C763 H735 0.930 . S
C763 C762 1.390 . S
C763 C764 1.392 . S
C764 H736 0.929 . S
C764 C761 1.391 . S
C764 C763 1.392 . S
N765 Co709 2.257 . S
N765 C762 1.391 . S
N765 C766 1.388 . S
C766 H737 0.930 . S
C766 C761 1.391 . S
C766 N765 1.388 . S
Co767 O769 2.143 . S
Co767 O775 2.074 . S
Co767 O778 2.093 . S
Co767 O791 2.097 . S
Co767 N808 2.151 . S
Co767 N816 2.214 . S
Co768 O769 2.160 . S
Co768 O774 2.058 . S
Co768 O784 2.057 . S
Co768 O799 2.037 . S
Co768 N803 2.145 . S
Co768 N824 2.257 . S
O769 Co767 2.143 . S
O769 Co768 2.160 . S
C770 O771 1.278 . S
C770 O778 1.224 . S
O771 C770 1.278 . S
C772 O773 1.245 . S
C772 O784 1.232 . S
O773 C772 1.245 . S
O774 Co768 2.058 . S
O774 C800 1.269 . S
O775 Co767 2.074 . S
O775 C800 1.257 . S
H776 C801 0.930 . S
H777 C807 0.930 . S
O778 Co767 2.093 . S
O778 C770 1.224 . S
H779 C811 0.929 . S
H780 C813 0.930 . S
H781 C814 0.930 . S
H782 C812 0.929 . S
H783 C815 0.928 . S
O784 Co768 2.057 . S
O784 C772 1.232 . S
H785 C804 0.929 . S
H786 C805 0.929 . S
H787 C817 0.931 . S
H788 C809 0.929 . S
H789 C818 0.930 . S
H790 C810 0.931 . S
O791 Co767 2.097 . S
O791 C819 1.214 . S
H792 C820 0.929 . S
H793 C821 0.929 . S
H794 C822 0.930 . S
H795 C823 0.929 . S
H796 C825 0.930 . S
H797 C802 0.930 . S
H798 C806 0.930 . S
O799 Co768 2.037 . S
O799 C819 1.234 . S
C800 O774 1.269 . S
C800 O775 1.257 . S
C801 H776 0.930 . S
C801 C804 1.388 . S
C801 C806 1.418 . S
C802 H797 0.930 . S
C802 C805 1.404 . S
C802 C806 1.353 . S
N803 Co768 2.145 . S
N803 C804 1.397 . S
N803 C805 1.334 . S
C804 H785 0.929 . S
C804 C801 1.388 . S
C804 N803 1.397 . S
C805 H786 0.929 . S
C805 C802 1.404 . S
C805 N803 1.334 . S
C806 H798 0.930 . S
C806 C801 1.418 . S
C806 C802 1.353 . S
C807 H777 0.930 . S
C807 N808 1.330 . S
C807 C809 1.446 . S
N808 Co767 2.151 . S
N808 C807 1.330 . S
N808 C812 1.418 . S
C809 H788 0.929 . S
C809 C807 1.446 . S
C809 C810 1.332 . S
C810 H790 0.931 . S
C810 C809 1.332 . S
C810 C811 1.267 . S
C811 H779 0.929 . S
C811 C810 1.267 . S
C811 C812 1.251 . S
C812 H782 0.929 . S
C812 N808 1.418 . S
C812 C811 1.251 . S
C813 H780 0.930 . S
C813 C815 1.406 . S
C813 C818 1.261 . S
C814 H781 0.930 . S
C814 N816 1.325 . S
C814 C817 1.357 . S
C815 H783 0.928 . S
C815 C813 1.406 . S
C815 N816 1.261 . S
N816 Co767 2.214 . S
N816 C814 1.325 . S
N816 C815 1.261 . S
C817 H787 0.931 . S
C817 C814 1.357 . S
C817 C818 1.312 . S
C818 H789 0.930 . S
C818 C813 1.261 . S
C818 C817 1.312 . S
C819 O791 1.214 . S
C819 O799 1.234 . S
C820 H792 0.929 . S
C820 C823 1.391 . S
C820 C825 1.391 . S
C821 H793 0.929 . S
C821 C822 1.390 . S
C821 N824 1.391 . S
C822 H794 0.930 . S
C822 C821 1.390 . S
C822 C823 1.392 . S
C823 H795 0.929 . S
C823 C820 1.391 . S
C823 C822 1.392 . S
N824 Co768 2.257 . S
N824 C821 1.391 . S
N824 C825 1.388 . S
C825 H796 0.930 . S
C825 C820 1.391 . S
C825 N824 1.388 . S
Co826 O828 2.143 . S
Co826 O834 2.074 . S
Co826 O837 2.093 . S
Co826 O850 2.097 . S
Co826 N867 2.151 . S
Co826 N875 2.214 . S
Co827 O828 2.160 . S
Co827 O833 2.058 . S
Co827 O843 2.057 . S
Co827 O858 2.037 . S
Co827 N862 2.145 . S
Co827 N883 2.257 . S
O828 Co826 2.143 . S
O828 Co827 2.160 . S
C829 O830 1.278 . S
C829 O837 1.224 . S
O830 C829 1.278 . S
C831 O832 1.245 . S
C831 O843 1.232 . S
O832 C831 1.245 . S
O833 Co827 2.058 . S
O833 C859 1.269 . S
O834 Co826 2.074 . S
O834 C859 1.257 . S
H835 C860 0.930 . S
H836 C866 0.930 . S
O837 Co826 2.093 . S
O837 C829 1.224 . S
H838 C870 0.929 . S
H839 C872 0.930 . S
H840 C873 0.930 . S
H841 C871 0.929 . S
H842 C874 0.928 . S
O843 Co827 2.057 . S
O843 C831 1.232 . S
H844 C863 0.929 . S
H845 C864 0.929 . S
H846 C876 0.931 . S
H847 C868 0.929 . S
H848 C877 0.930 . S
H849 C869 0.931 . S
O850 Co826 2.097 . S
O850 C878 1.214 . S
H851 C879 0.929 . S
H852 C880 0.929 . S
H853 C881 0.930 . S
H854 C882 0.929 . S
H855 C884 0.930 . S
H856 C861 0.930 . S
H857 C865 0.930 . S
O858 Co827 2.037 . S
O858 C878 1.234 . S
C859 O833 1.269 . S
C859 O834 1.257 . S
C860 H835 0.930 . S
C860 C863 1.388 . S
C860 C865 1.418 . S
C861 H856 0.930 . S
C861 C864 1.404 . S
C861 C865 1.353 . S
N862 Co827 2.145 . S
N862 C863 1.397 . S
N862 C864 1.334 . S
C863 H844 0.929 . S
C863 C860 1.388 . S
C863 N862 1.397 . S
C864 H845 0.929 . S
C864 C861 1.404 . S
C864 N862 1.334 . S
C865 H857 0.930 . S
C865 C860 1.418 . S
C865 C861 1.353 . S
C866 H836 0.930 . S
C866 N867 1.330 . S
C866 C868 1.446 . S
N867 Co826 2.151 . S
N867 C866 1.330 . S
N867 C871 1.418 . S
C868 H847 0.929 . S
C868 C866 1.446 . S
C868 C869 1.332 . S
C869 H849 0.931 . S
C869 C868 1.332 . S
C869 C870 1.267 . S
C870 H838 0.929 . S
C870 C869 1.267 . S
C870 C871 1.251 . S
C871 H841 0.929 . S
C871 N867 1.418 . S
C871 C870 1.251 . S
C872 H839 0.930 . S
C872 C874 1.406 . S
C872 C877 1.261 . S
C873 H840 0.930 . S
C873 N875 1.325 . S
C873 C876 1.357 . S
C874 H842 0.928 . S
C874 C872 1.406 . S
C874 N875 1.261 . S
N875 Co826 2.214 . S
N875 C873 1.325 . S
N875 C874 1.261 . S
C876 H846 0.931 . S
C876 C873 1.357 . S
C876 C877 1.312 . S
C877 H848 0.930 . S
C877 C872 1.261 . S
C877 C876 1.312 . S
C878 O850 1.214 . S
C878 O858 1.234 . S
C879 H851 0.929 . S
C879 C882 1.391 . S
C879 C884 1.391 . S
C880 H852 0.929 . S
C880 C881 1.390 . S
C880 N883 1.391 . S
C881 H853 0.930 . S
C881 C880 1.390 . S
C881 C882 1.392 . S
C882 H854 0.929 . S
C882 C879 1.391 . S
C882 C881 1.392 . S
N883 Co827 2.257 . S
N883 C880 1.391 . S
N883 C884 1.388 . S
C884 H855 0.930 . S
C884 C879 1.391 . S
C884 N883 1.388 . S
Co885 O887 2.143 . S
Co885 O893 2.074 . S
Co885 O896 2.093 . S
Co885 O909 2.097 . S
Co885 N926 2.151 . S
Co885 N934 2.214 . S
Co886 O887 2.160 . S
Co886 O892 2.058 . S
Co886 O902 2.057 . S
Co886 O917 2.037 . S
Co886 N921 2.145 . S
Co886 N942 2.257 . S
O887 Co885 2.143 . S
O887 Co886 2.160 . S
C888 O889 1.278 . S
C888 O896 1.224 . S
O889 C888 1.278 . S
C890 O891 1.245 . S
C890 O902 1.232 . S
O891 C890 1.245 . S
O892 Co886 2.058 . S
O892 C918 1.269 . S
O893 Co885 2.074 . S
O893 C918 1.257 . S
H894 C919 0.930 . S
H895 C925 0.930 . S
O896 Co885 2.093 . S
O896 C888 1.224 . S
H897 C929 0.929 . S
H898 C931 0.930 . S
H899 C932 0.930 . S
H900 C930 0.929 . S
H901 C933 0.928 . S
O902 Co886 2.057 . S
O902 C890 1.232 . S
H903 C922 0.929 . S
H904 C923 0.929 . S
H905 C935 0.931 . S
H906 C927 0.929 . S
H907 C936 0.930 . S
H908 C928 0.931 . S
O909 Co885 2.097 . S
O909 C937 1.214 . S
H910 C938 0.929 . S
H911 C939 0.929 . S
H912 C940 0.930 . S
H913 C941 0.929 . S
H914 C943 0.930 . S
H915 C920 0.930 . S
H916 C924 0.930 . S
O917 Co886 2.037 . S
O917 C937 1.234 . S
C918 O892 1.269 . S
C918 O893 1.257 . S
C919 H894 0.930 . S
C919 C922 1.388 . S
C919 C924 1.418 . S
C920 H915 0.930 . S
C920 C923 1.404 . S
C920 C924 1.353 . S
N921 Co886 2.145 . S
N921 C922 1.397 . S
N921 C923 1.334 . S
C922 H903 0.929 . S
C922 C919 1.388 . S
C922 N921 1.397 . S
C923 H904 0.929 . S
C923 C920 1.404 . S
C923 N921 1.334 . S
C924 H916 0.930 . S
C924 C919 1.418 . S
C924 C920 1.353 . S
C925 H895 0.930 . S
C925 N926 1.330 . S
C925 C927 1.446 . S
N926 Co885 2.151 . S
N926 C925 1.330 . S
N926 C930 1.418 . S
C927 H906 0.929 . S
C927 C925 1.446 . S
C927 C928 1.332 . S
C928 H908 0.931 . S
C928 C927 1.332 . S
C928 C929 1.267 . S
C929 H897 0.929 . S
C929 C928 1.267 . S
C929 C930 1.251 . S
C930 H900 0.929 . S
C930 N926 1.418 . S
C930 C929 1.251 . S
C931 H898 0.930 . S
C931 C933 1.406 . S
C931 C936 1.261 . S
C932 H899 0.930 . S
C932 N934 1.325 . S
C932 C935 1.357 . S
C933 H901 0.928 . S
C933 C931 1.406 . S
C933 N934 1.261 . S
N934 Co885 2.214 . S
N934 C932 1.325 . S
N934 C933 1.261 . S
C935 H905 0.931 . S
C935 C932 1.357 . S
C935 C936 1.312 . S
C936 H907 0.930 . S
C936 C931 1.261 . S
C936 C935 1.312 . S
C937 O909 1.214 . S
C937 O917 1.234 . S
C938 H910 0.929 . S
C938 C941 1.391 . S
C938 C943 1.391 . S
C939 H911 0.929 . S
C939 C940 1.390 . S
C939 N942 1.391 . S
C940 H912 0.930 . S
C940 C939 1.390 . S
C940 C941 1.392 . S
C941 H913 0.929 . S
C941 C938 1.391 . S
C941 C940 1.392 . S
N942 Co886 2.257 . S
N942 C939 1.391 . S
N942 C943 1.388 . S
C943 H914 0.930 . S
C943 C938 1.391 . S
C943 N942 1.388 . S
Co944 O946 2.143 . S
Co944 O952 2.074 . S
Co944 O955 2.093 . S
Co944 O968 2.097 . S
Co944 N985 2.151 . S
Co944 N993 2.214 . S
Co945 O946 2.160 . S
Co945 O951 2.058 . S
Co945 O961 2.057 . S
Co945 O976 2.037 . S
Co945 N980 2.145 . S
Co945 N1001 2.257 . S
O946 Co944 2.143 . S
O946 Co945 2.160 . S
C947 O948 1.278 . S
C947 O955 1.224 . S
O948 C947 1.278 . S
C949 O950 1.245 . S
C949 O961 1.232 . S
O950 C949 1.245 . S
O951 Co945 2.058 . S
O951 C977 1.269 . S
O952 Co944 2.074 . S
O952 C977 1.257 . S
H953 C978 0.930 . S
H954 C984 0.930 . S
O955 Co944 2.093 . S
O955 C947 1.224 . S
H956 C988 0.929 . S
H957 C990 0.930 . S
H958 C991 0.930 . S
H959 C989 0.929 . S
H960 C992 0.928 . S
O961 Co945 2.057 . S
O961 C949 1.232 . S
H962 C981 0.929 . S
H963 C982 0.929 . S
H964 C994 0.931 . S
H965 C986 0.929 . S
H966 C995 0.930 . S
H967 C987 0.931 . S
O968 Co944 2.097 . S
O968 C996 1.214 . S
H969 C997 0.929 . S
H970 C998 0.929 . S
H971 C999 0.930 . S
H972 C1000 0.929 . S
H973 C1002 0.930 . S
H974 C979 0.930 . S
H975 C983 0.930 . S
O976 Co945 2.037 . S
O976 C996 1.234 . S
C977 O951 1.269 . S
C977 O952 1.257 . S
C978 H953 0.930 . S
C978 C981 1.388 . S
C978 C983 1.418 . S
C979 H974 0.930 . S
C979 C982 1.404 . S
C979 C983 1.353 . S
N980 Co945 2.145 . S
N980 C981 1.397 . S
N980 C982 1.334 . S
C981 H962 0.929 . S
C981 C978 1.388 . S
C981 N980 1.397 . S
C982 H963 0.929 . S
C982 C979 1.404 . S
C982 N980 1.334 . S
C983 H975 0.930 . S
C983 C978 1.418 . S
C983 C979 1.353 . S
C984 H954 0.930 . S
C984 N985 1.330 . S
C984 C986 1.446 . S
N985 Co944 2.151 . S
N985 C984 1.330 . S
N985 C989 1.418 . S
C986 H965 0.929 . S
C986 C984 1.446 . S
C986 C987 1.332 . S
C987 H967 0.931 . S
C987 C986 1.332 . S
C987 C988 1.267 . S
C988 H956 0.929 . S
C988 C987 1.267 . S
C988 C989 1.251 . S
C989 H959 0.929 . S
C989 N985 1.418 . S
C989 C988 1.251 . S
C990 H957 0.930 . S
C990 C992 1.406 . S
C990 C995 1.261 . S
C991 H958 0.930 . S
C991 N993 1.325 . S
C991 C994 1.357 . S
C992 H960 0.928 . S
C992 C990 1.406 . S
C992 N993 1.261 . S
N993 Co944 2.214 . S
N993 C991 1.325 . S
N993 C992 1.261 . S
C994 H964 0.931 . S
C994 C991 1.357 . S
C994 C995 1.312 . S
C995 H966 0.930 . S
C995 C990 1.261 . S
C995 C994 1.312 . S
C996 O968 1.214 . S
C996 O976 1.234 . S
C997 H969 0.929 . S
C997 C1000 1.391 . S
C997 C1002 1.391 . S
C998 H970 0.929 . S
C998 C999 1.390 . S
C998 N1001 1.391 . S
C999 H971 0.930 . S
C999 C998 1.390 . S
C999 C1000 1.392 . S
C1000 H972 0.929 . S
C1000 C997 1.391 . S
C1000 C999 1.392 . S
N1001 Co945 2.257 . S
N1001 C998 1.391 . S
N1001 C1002 1.388 . S
C1002 H973 0.930 . S
C1002 C997 1.391 . S
C1002 N1001 1.388 . S
Co1003 O1005 2.143 . S
Co1003 O1011 2.074 . S
Co1003 O1014 2.093 . S
Co1003 O1027 2.097 . S
Co1003 N1044 2.151 . S
Co1003 N1052 2.214 . S
Co1004 O1005 2.160 . S
Co1004 O1010 2.058 . S
Co1004 O1020 2.057 . S
Co1004 O1035 2.037 . S
Co1004 N1039 2.145 . S
Co1004 N1060 2.257 . S
O1005 Co1003 2.143 . S
O1005 Co1004 2.160 . S
C1006 O1007 1.278 . S
C1006 O1014 1.224 . S
O1007 C1006 1.278 . S
C1008 O1009 1.245 . S
C1008 O1020 1.232 . S
O1009 C1008 1.245 . S
O1010 Co1004 2.058 . S
O1010 C1036 1.269 . S
O1011 Co1003 2.074 . S
O1011 C1036 1.257 . S
H1012 C1037 0.930 . S
H1013 C1043 0.930 . S
O1014 Co1003 2.093 . S
O1014 C1006 1.224 . S
H1015 C1047 0.929 . S
H1016 C1049 0.930 . S
H1017 C1050 0.930 . S
H1018 C1048 0.929 . S
H1019 C1051 0.928 . S
O1020 Co1004 2.057 . S
O1020 C1008 1.232 . S
H1021 C1040 0.929 . S
H1022 C1041 0.929 . S
H1023 C1053 0.931 . S
H1024 C1045 0.929 . S
H1025 C1054 0.930 . S
H1026 C1046 0.931 . S
O1027 Co1003 2.097 . S
O1027 C1055 1.214 . S
H1028 C1056 0.929 . S
H1029 C1057 0.929 . S
H1030 C1058 0.930 . S
H1031 C1059 0.929 . S
H1032 C1061 0.930 . S
H1033 C1038 0.930 . S
H1034 C1042 0.930 . S
O1035 Co1004 2.037 . S
O1035 C1055 1.234 . S
C1036 O1010 1.269 . S
C1036 O1011 1.257 . S
C1037 H1012 0.930 . S
C1037 C1040 1.388 . S
C1037 C1042 1.418 . S
C1038 H1033 0.930 . S
C1038 C1041 1.404 . S
C1038 C1042 1.353 . S
N1039 Co1004 2.145 . S
N1039 C1040 1.397 . S
N1039 C1041 1.334 . S
C1040 H1021 0.929 . S
C1040 C1037 1.388 . S
C1040 N1039 1.397 . S
C1041 H1022 0.929 . S
C1041 C1038 1.404 . S
C1041 N1039 1.334 . S
C1042 H1034 0.930 . S
C1042 C1037 1.418 . S
C1042 C1038 1.353 . S
C1043 H1013 0.930 . S
C1043 N1044 1.330 . S
C1043 C1045 1.446 . S
N1044 Co1003 2.151 . S
N1044 C1043 1.330 . S
N1044 C1048 1.418 . S
C1045 H1024 0.929 . S
C1045 C1043 1.446 . S
C1045 C1046 1.332 . S
C1046 H1026 0.931 . S
C1046 C1045 1.332 . S
C1046 C1047 1.267 . S
C1047 H1015 0.929 . S
C1047 C1046 1.267 . S
C1047 C1048 1.251 . S
C1048 H1018 0.929 . S
C1048 N1044 1.418 . S
C1048 C1047 1.251 . S
C1049 H1016 0.930 . S
C1049 C1051 1.406 . S
C1049 C1054 1.261 . S
C1050 H1017 0.930 . S
C1050 N1052 1.325 . S
C1050 C1053 1.357 . S
C1051 H1019 0.928 . S
C1051 C1049 1.406 . S
C1051 N1052 1.261 . S
N1052 Co1003 2.214 . S
N1052 C1050 1.325 . S
N1052 C1051 1.261 . S
C1053 H1023 0.931 . S
C1053 C1050 1.357 . S
C1053 C1054 1.312 . S
C1054 H1025 0.930 . S
C1054 C1049 1.261 . S
C1054 C1053 1.312 . S
C1055 O1027 1.214 . S
C1055 O1035 1.234 . S
C1056 H1028 0.929 . S
C1056 C1059 1.391 . S
C1056 C1061 1.391 . S
C1057 H1029 0.929 . S
C1057 C1058 1.390 . S
C1057 N1060 1.391 . S
C1058 H1030 0.930 . S
C1058 C1057 1.390 . S
C1058 C1059 1.392 . S
C1059 H1031 0.929 . S
C1059 C1056 1.391 . S
C1059 C1058 1.392 . S
N1060 Co1004 2.257 . S
N1060 C1057 1.391 . S
N1060 C1061 1.388 . S
C1061 H1032 0.930 . S
C1061 C1056 1.391 . S
C1061 N1060 1.388 . S
Co1062 O1064 2.143 . S
Co1062 O1070 2.074 . S
Co1062 O1073 2.093 . S
Co1062 O1086 2.097 . S
Co1062 N1103 2.151 . S
Co1062 N1111 2.214 . S
Co1063 O1064 2.160 . S
Co1063 O1069 2.058 . S
Co1063 O1079 2.057 . S
Co1063 O1094 2.037 . S
Co1063 N1098 2.145 . S
Co1063 N1119 2.257 . S
O1064 Co1062 2.143 . S
O1064 Co1063 2.160 . S
C1065 O1066 1.278 . S
C1065 O1073 1.224 . S
O1066 C1065 1.278 . S
C1067 O1068 1.245 . S
C1067 O1079 1.232 . S
O1068 C1067 1.245 . S
O1069 Co1063 2.058 . S
O1069 C1095 1.269 . S
O1070 Co1062 2.074 . S
O1070 C1095 1.257 . S
H1071 C1096 0.930 . S
H1072 C1102 0.930 . S
O1073 Co1062 2.093 . S
O1073 C1065 1.224 . S
H1074 C1106 0.929 . S
H1075 C1108 0.930 . S
H1076 C1109 0.930 . S
H1077 C1107 0.929 . S
H1078 C1110 0.928 . S
O1079 Co1063 2.057 . S
O1079 C1067 1.232 . S
H1080 C1099 0.929 . S
H1081 C1100 0.929 . S
H1082 C1112 0.931 . S
H1083 C1104 0.929 . S
H1084 C1113 0.930 . S
H1085 C1105 0.931 . S
O1086 Co1062 2.097 . S
O1086 C1114 1.214 . S
H1087 C1115 0.929 . S
H1088 C1116 0.929 . S
H1089 C1117 0.930 . S
H1090 C1118 0.929 . S
H1091 C1120 0.930 . S
H1092 C1097 0.930 . S
H1093 C1101 0.930 . S
O1094 Co1063 2.037 . S
O1094 C1114 1.234 . S
C1095 O1069 1.269 . S
C1095 O1070 1.257 . S
C1096 H1071 0.930 . S
C1096 C1099 1.388 . S
C1096 C1101 1.418 . S
C1097 H1092 0.930 . S
C1097 C1100 1.404 . S
C1097 C1101 1.353 . S
N1098 Co1063 2.145 . S
N1098 C1099 1.397 . S
N1098 C1100 1.334 . S
C1099 H1080 0.929 . S
C1099 C1096 1.388 . S
C1099 N1098 1.397 . S
C1100 H1081 0.929 . S
C1100 C1097 1.404 . S
C1100 N1098 1.334 . S
C1101 H1093 0.930 . S
C1101 C1096 1.418 . S
C1101 C1097 1.353 . S
C1102 H1072 0.930 . S
C1102 N1103 1.330 . S
C1102 C1104 1.446 . S
N1103 Co1062 2.151 . S
N1103 C1102 1.330 . S
N1103 C1107 1.418 . S
C1104 H1083 0.929 . S
C1104 C1102 1.446 . S
C1104 C1105 1.332 . S
C1105 H1085 0.931 . S
C1105 C1104 1.332 . S
C1105 C1106 1.267 . S
C1106 H1074 0.929 . S
C1106 C1105 1.267 . S
C1106 C1107 1.251 . S
C1107 H1077 0.929 . S
C1107 N1103 1.418 . S
C1107 C1106 1.251 . S
C1108 H1075 0.930 . S
C1108 C1110 1.406 . S
C1108 C1113 1.261 . S
C1109 H1076 0.930 . S
C1109 N1111 1.325 . S
C1109 C1112 1.357 . S
C1110 H1078 0.928 . S
C1110 C1108 1.406 . S
C1110 N1111 1.261 . S
N1111 Co1062 2.214 . S
N1111 C1109 1.325 . S
N1111 C1110 1.261 . S
C1112 H1082 0.931 . S
C1112 C1109 1.357 . S
C1112 C1113 1.312 . S
C1113 H1084 0.930 . S
C1113 C1108 1.261 . S
C1113 C1112 1.312 . S
C1114 O1086 1.214 . S
C1114 O1094 1.234 . S
C1115 H1087 0.929 . S
C1115 C1118 1.391 . S
C1115 C1120 1.391 . S
C1116 H1088 0.929 . S
C1116 C1117 1.390 . S
C1116 N1119 1.391 . S
C1117 H1089 0.930 . S
C1117 C1116 1.390 . S
C1117 C1118 1.392 . S
C1118 H1090 0.929 . S
C1118 C1115 1.391 . S
C1118 C1117 1.392 . S
N1119 Co1063 2.257 . S
N1119 C1116 1.391 . S
N1119 C1120 1.388 . S
C1120 H1091 0.930 . S
C1120 C1115 1.391 . S
C1120 N1119 1.388 . S
Co1121 O1123 2.143 . S
Co1121 O1129 2.074 . S
Co1121 O1132 2.093 . S
Co1121 O1145 2.097 . S
Co1121 N1162 2.151 . S
Co1121 N1170 2.214 . S
Co1122 O1123 2.160 . S
Co1122 O1128 2.058 . S
Co1122 O1138 2.057 . S
Co1122 O1153 2.037 . S
Co1122 N1157 2.145 . S
Co1122 N1178 2.257 . S
O1123 Co1121 2.143 . S
O1123 Co1122 2.160 . S
C1124 O1125 1.278 . S
C1124 O1132 1.224 . S
O1125 C1124 1.278 . S
C1126 O1127 1.245 . S
C1126 O1138 1.232 . S
O1127 C1126 1.245 . S
O1128 Co1122 2.058 . S
O1128 C1154 1.269 . S
O1129 Co1121 2.074 . S
O1129 C1154 1.257 . S
H1130 C1155 0.930 . S
H1131 C1161 0.930 . S
O1132 Co1121 2.093 . S
O1132 C1124 1.224 . S
H1133 C1165 0.929 . S
H1134 C1167 0.930 . S
H1135 C1168 0.930 . S
H1136 C1166 0.929 . S
H1137 C1169 0.928 . S
O1138 Co1122 2.057 . S
O1138 C1126 1.232 . S
H1139 C1158 0.929 . S
H1140 C1159 0.929 . S
H1141 C1171 0.931 . S
H1142 C1163 0.929 . S
H1143 C1172 0.930 . S
H1144 C1164 0.931 . S
O1145 Co1121 2.097 . S
O1145 C1173 1.214 . S
H1146 C1174 0.929 . S
H1147 C1175 0.929 . S
H1148 C1176 0.930 . S
H1149 C1177 0.929 . S
H1150 C1179 0.930 . S
H1151 C1156 0.930 . S
H1152 C1160 0.930 . S
O1153 Co1122 2.037 . S
O1153 C1173 1.234 . S
C1154 O1128 1.269 . S
C1154 O1129 1.257 . S
C1155 H1130 0.930 . S
C1155 C1158 1.388 . S
C1155 C1160 1.418 . S
C1156 H1151 0.930 . S
C1156 C1159 1.404 . S
C1156 C1160 1.353 . S
N1157 Co1122 2.145 . S
N1157 C1158 1.397 . S
N1157 C1159 1.334 . S
C1158 H1139 0.929 . S
C1158 C1155 1.388 . S
C1158 N1157 1.397 . S
C1159 H1140 0.929 . S
C1159 C1156 1.404 . S
C1159 N1157 1.334 . S
C1160 H1152 0.930 . S
C1160 C1155 1.418 . S
C1160 C1156 1.353 . S
C1161 H1131 0.930 . S
C1161 N1162 1.330 . S
C1161 C1163 1.446 . S
N1162 Co1121 2.151 . S
N1162 C1161 1.330 . S
N1162 C1166 1.418 . S
C1163 H1142 0.929 . S
C1163 C1161 1.446 . S
C1163 C1164 1.332 . S
C1164 H1144 0.931 . S
C1164 C1163 1.332 . S
C1164 C1165 1.267 . S
C1165 H1133 0.929 . S
C1165 C1164 1.267 . S
C1165 C1166 1.251 . S
C1166 H1136 0.929 . S
C1166 N1162 1.418 . S
C1166 C1165 1.251 . S
C1167 H1134 0.930 . S
C1167 C1169 1.406 . S
C1167 C1172 1.261 . S
C1168 H1135 0.930 . S
C1168 N1170 1.325 . S
C1168 C1171 1.357 . S
C1169 H1137 0.928 . S
C1169 C1167 1.406 . S
C1169 N1170 1.261 . S
N1170 Co1121 2.214 . S
N1170 C1168 1.325 . S
N1170 C1169 1.261 . S
C1171 H1141 0.931 . S
C1171 C1168 1.357 . S
C1171 C1172 1.312 . S
C1172 H1143 0.930 . S
C1172 C1167 1.261 . S
C1172 C1171 1.312 . S
C1173 O1145 1.214 . S
C1173 O1153 1.234 . S
C1174 H1146 0.929 . S
C1174 C1177 1.391 . S
C1174 C1179 1.391 . S
C1175 H1147 0.929 . S
C1175 C1176 1.390 . S
C1175 N1178 1.391 . S
C1176 H1148 0.930 . S
C1176 C1175 1.390 . S
C1176 C1177 1.392 . S
C1177 H1149 0.929 . S
C1177 C1174 1.391 . S
C1177 C1176 1.392 . S
N1178 Co1122 2.257 . S
N1178 C1175 1.391 . S
N1178 C1179 1.388 . S
C1179 H1150 0.930 . S
C1179 C1174 1.391 . S
C1179 N1178 1.388 . S
Co1180 O1182 2.143 . S
Co1180 O1188 2.074 . S
Co1180 O1191 2.093 . S
Co1180 O1204 2.097 . S
Co1180 N1221 2.151 . S
Co1180 N1229 2.214 . S
Co1181 O1182 2.160 . S
Co1181 O1187 2.058 . S
Co1181 O1197 2.057 . S
Co1181 O1212 2.037 . S
Co1181 N1216 2.145 . S
Co1181 N1237 2.257 . S
O1182 Co1180 2.143 . S
O1182 Co1181 2.160 . S
C1183 O1184 1.278 . S
C1183 O1191 1.224 . S
O1184 C1183 1.278 . S
C1185 O1186 1.245 . S
C1185 O1197 1.232 . S
O1186 C1185 1.245 . S
O1187 Co1181 2.058 . S
O1187 C1213 1.269 . S
O1188 Co1180 2.074 . S
O1188 C1213 1.257 . S
H1189 C1214 0.930 . S
H1190 C1220 0.930 . S
O1191 Co1180 2.093 . S
O1191 C1183 1.224 . S
H1192 C1224 0.929 . S
H1193 C1226 0.930 . S
H1194 C1227 0.930 . S
H1195 C1225 0.929 . S
H1196 C1228 0.928 . S
O1197 Co1181 2.057 . S
O1197 C1185 1.232 . S
H1198 C1217 0.929 . S
H1199 C1218 0.929 . S
H1200 C1230 0.931 . S
H1201 C1222 0.929 . S
H1202 C1231 0.930 . S
H1203 C1223 0.931 . S
O1204 Co1180 2.097 . S
O1204 C1232 1.214 . S
H1205 C1233 0.929 . S
H1206 C1234 0.929 . S
H1207 C1235 0.930 . S
H1208 C1236 0.929 . S
H1209 C1238 0.930 . S
H1210 C1215 0.930 . S
H1211 C1219 0.930 . S
O1212 Co1181 2.037 . S
O1212 C1232 1.234 . S
C1213 O1187 1.269 . S
C1213 O1188 1.257 . S
C1214 H1189 0.930 . S
C1214 C1217 1.388 . S
C1214 C1219 1.418 . S
C1215 H1210 0.930 . S
C1215 C1218 1.404 . S
C1215 C1219 1.353 . S
N1216 Co1181 2.145 . S
N1216 C1217 1.397 . S
N1216 C1218 1.334 . S
C1217 H1198 0.929 . S
C1217 C1214 1.388 . S
C1217 N1216 1.397 . S
C1218 H1199 0.929 . S
C1218 C1215 1.404 . S
C1218 N1216 1.334 . S
C1219 H1211 0.930 . S
C1219 C1214 1.418 . S
C1219 C1215 1.353 . S
C1220 H1190 0.930 . S
C1220 N1221 1.330 . S
C1220 C1222 1.446 . S
N1221 Co1180 2.151 . S
N1221 C1220 1.330 . S
N1221 C1225 1.418 . S
C1222 H1201 0.929 . S
C1222 C1220 1.446 . S
C1222 C1223 1.332 . S
C1223 H1203 0.931 . S
C1223 C1222 1.332 . S
C1223 C1224 1.267 . S
C1224 H1192 0.929 . S
C1224 C1223 1.267 . S
C1224 C1225 1.251 . S
C1225 H1195 0.929 . S
C1225 N1221 1.418 . S
C1225 C1224 1.251 . S
C1226 H1193 0.930 . S
C1226 C1228 1.406 . S
C1226 C1231 1.261 . S
C1227 H1194 0.930 . S
C1227 N1229 1.325 . S
C1227 C1230 1.357 . S
C1228 H1196 0.928 . S
C1228 C1226 1.406 . S
C1228 N1229 1.261 . S
N1229 Co1180 2.214 . S
N1229 C1227 1.325 . S
N1229 C1228 1.261 . S
C1230 H1200 0.931 . S
C1230 C1227 1.357 . S
C1230 C1231 1.312 . S
C1231 H1202 0.930 . S
C1231 C1226 1.261 . S
C1231 C1230 1.312 . S
C1232 O1204 1.214 . S
C1232 O1212 1.234 . S
C1233 H1205 0.929 . S
C1233 C1236 1.391 . S
C1233 C1238 1.391 . S
C1234 H1206 0.929 . S
C1234 C1235 1.390 . S
C1234 N1237 1.391 . S
C1235 H1207 0.930 . S
C1235 C1234 1.390 . S
C1235 C1236 1.392 . S
C1236 H1208 0.929 . S
C1236 C1233 1.391 . S
C1236 C1235 1.392 . S
N1237 Co1181 2.257 . S
N1237 C1234 1.391 . S
N1237 C1238 1.388 . S
C1238 H1209 0.930 . S
C1238 C1233 1.391 . S
C1238 N1237 1.388 . S
Co1239 O1241 2.143 . S
Co1239 O1247 2.074 . S
Co1239 O1250 2.093 . S
Co1239 O1263 2.097 . S
Co1239 N1280 2.151 . S
Co1239 N1288 2.214 . S
Co1240 O1241 2.160 . S
Co1240 O1246 2.058 . S
Co1240 O1256 2.057 . S
Co1240 O1271 2.037 . S
Co1240 N1275 2.145 . S
Co1240 N1296 2.257 . S
O1241 Co1239 2.143 . S
O1241 Co1240 2.160 . S
C1242 O1243 1.278 . S
C1242 O1250 1.224 . S
O1243 C1242 1.278 . S
C1244 O1245 1.245 . S
C1244 O1256 1.232 . S
O1245 C1244 1.245 . S
O1246 Co1240 2.058 . S
O1246 C1272 1.269 . S
O1247 Co1239 2.074 . S
O1247 C1272 1.257 . S
H1248 C1273 0.930 . S
H1249 C1279 0.930 . S
O1250 Co1239 2.093 . S
O1250 C1242 1.224 . S
H1251 C1283 0.929 . S
H1252 C1285 0.930 . S
H1253 C1286 0.930 . S
H1254 C1284 0.929 . S
H1255 C1287 0.928 . S
O1256 Co1240 2.057 . S
O1256 C1244 1.232 . S
H1257 C1276 0.929 . S
H1258 C1277 0.929 . S
H1259 C1289 0.931 . S
H1260 C1281 0.929 . S
H1261 C1290 0.930 . S
H1262 C1282 0.931 . S
O1263 Co1239 2.097 . S
O1263 C1291 1.214 . S
H1264 C1292 0.929 . S
H1265 C1293 0.929 . S
H1266 C1294 0.930 . S
H1267 C1295 0.929 . S
H1268 C1297 0.930 . S
H1269 C1274 0.930 . S
H1270 C1278 0.930 . S
O1271 Co1240 2.037 . S
O1271 C1291 1.234 . S
C1272 O1246 1.269 . S
C1272 O1247 1.257 . S
C1273 H1248 0.930 . S
C1273 C1276 1.388 . S
C1273 C1278 1.418 . S
C1274 H1269 0.930 . S
C1274 C1277 1.404 . S
C1274 C1278 1.353 . S
N1275 Co1240 2.145 . S
N1275 C1276 1.397 . S
N1275 C1277 1.334 . S
C1276 H1257 0.929 . S
C1276 C1273 1.388 . S
C1276 N1275 1.397 . S
C1277 H1258 0.929 . S
C1277 C1274 1.404 . S
C1277 N1275 1.334 . S
C1278 H1270 0.930 . S
C1278 C1273 1.418 . S
C1278 C1274 1.353 . S
C1279 H1249 0.930 . S
C1279 N1280 1.330 . S
C1279 C1281 1.446 . S
N1280 Co1239 2.151 . S
N1280 C1279 1.330 . S
N1280 C1284 1.418 . S
C1281 H1260 0.929 . S
C1281 C1279 1.446 . S
C1281 C1282 1.332 . S
C1282 H1262 0.931 . S
C1282 C1281 1.332 . S
C1282 C1283 1.267 . S
C1283 H1251 0.929 . S
C1283 C1282 1.267 . S
C1283 C1284 1.251 . S
C1284 H1254 0.929 . S
C1284 N1280 1.418 . S
C1284 C1283 1.251 . S
C1285 H1252 0.930 . S
C1285 C1287 1.406 . S
C1285 C1290 1.261 . S
C1286 H1253 0.930 . S
C1286 N1288 1.325 . S
C1286 C1289 1.357 . S
C1287 H1255 0.928 . S
C1287 C1285 1.406 . S
C1287 N1288 1.261 . S
N1288 Co1239 2.214 . S
N1288 C1286 1.325 . S
N1288 C1287 1.261 . S
C1289 H1259 0.931 . S
C1289 C1286 1.357 . S
C1289 C1290 1.312 . S
C1290 H1261 0.930 . S
C1290 C1285 1.261 . S
C1290 C1289 1.312 . S
C1291 O1263 1.214 . S
C1291 O1271 1.234 . S
C1292 H1264 0.929 . S
C1292 C1295 1.391 . S
C1292 C1297 1.391 . S
C1293 H1265 0.929 . S
C1293 C1294 1.390 . S
C1293 N1296 1.391 . S
C1294 H1266 0.930 . S
C1294 C1293 1.390 . S
C1294 C1295 1.392 . S
C1295 H1267 0.929 . S
C1295 C1292 1.391 . S
C1295 C1294 1.392 . S
N1296 Co1240 2.257 . S
N1296 C1293 1.391 . S
N1296 C1297 1.388 . S
C1297 H1268 0.930 . S
C1297 C1292 1.391 . S
C1297 N1296 1.388 . S
Co1298 O1300 2.143 . S
Co1298 O1306 2.074 . S
Co1298 O1309 2.093 . S
Co1298 O1322 2.097 . S
Co1298 N1339 2.151 . S
Co1298 N1347 2.214 . S
Co1299 O1300 2.160 . S
Co1299 O1305 2.058 . S
Co1299 O1315 2.057 . S
Co1299 O1330 2.037 . S
Co1299 N1334 2.145 . S
Co1299 N1355 2.257 . S
O1300 Co1298 2.143 . S
O1300 Co1299 2.160 . S
C1301 O1302 1.278 . S
C1301 O1309 1.224 . S
O1302 C1301 1.278 . S
C1303 O1304 1.245 . S
C1303 O1315 1.232 . S
O1304 C1303 1.245 . S
O1305 Co1299 2.058 . S
O1305 C1331 1.269 . S
O1306 Co1298 2.074 . S
O1306 C1331 1.257 . S
H1307 C1332 0.930 . S
H1308 C1338 0.930 . S
O1309 Co1298 2.093 . S
O1309 C1301 1.224 . S
H1310 C1342 0.929 . S
H1311 C1344 0.930 . S
H1312 C1345 0.930 . S
H1313 C1343 0.929 . S
H1314 C1346 0.928 . S
O1315 Co1299 2.057 . S
O1315 C1303 1.232 . S
H1316 C1335 0.929 . S
H1317 C1336 0.929 . S
H1318 C1348 0.931 . S
H1319 C1340 0.929 . S
H1320 C1349 0.930 . S
H1321 C1341 0.931 . S
O1322 Co1298 2.097 . S
O1322 C1350 1.214 . S
H1323 C1351 0.929 . S
H1324 C1352 0.929 . S
H1325 C1353 0.930 . S
H1326 C1354 0.929 . S
H1327 C1356 0.930 . S
H1328 C1333 0.930 . S
H1329 C1337 0.930 . S
O1330 Co1299 2.037 . S
O1330 C1350 1.234 . S
C1331 O1305 1.269 . S
C1331 O1306 1.257 . S
C1332 H1307 0.930 . S
C1332 C1335 1.388 . S
C1332 C1337 1.418 . S
C1333 H1328 0.930 . S
C1333 C1336 1.404 . S
C1333 C1337 1.353 . S
N1334 Co1299 2.145 . S
N1334 C1335 1.397 . S
N1334 C1336 1.334 . S
C1335 H1316 0.929 . S
C1335 C1332 1.388 . S
C1335 N1334 1.397 . S
C1336 H1317 0.929 . S
C1336 C1333 1.404 . S
C1336 N1334 1.334 . S
C1337 H1329 0.930 . S
C1337 C1332 1.418 . S
C1337 C1333 1.353 . S
C1338 H1308 0.930 . S
C1338 N1339 1.330 . S
C1338 C1340 1.446 . S
N1339 Co1298 2.151 . S
N1339 C1338 1.330 . S
N1339 C1343 1.418 . S
C1340 H1319 0.929 . S
C1340 C1338 1.446 . S
C1340 C1341 1.332 . S
C1341 H1321 0.931 . S
C1341 C1340 1.332 . S
C1341 C1342 1.267 . S
C1342 H1310 0.929 . S
C1342 C1341 1.267 . S
C1342 C1343 1.251 . S
C1343 H1313 0.929 . S
C1343 N1339 1.418 . S
C1343 C1342 1.251 . S
C1344 H1311 0.930 . S
C1344 C1346 1.406 . S
C1344 C1349 1.261 . S
C1345 H1312 0.930 . S
C1345 N1347 1.325 . S
C1345 C1348 1.357 . S
C1346 H1314 0.928 . S
C1346 C1344 1.406 . S
C1346 N1347 1.261 . S
N1347 Co1298 2.214 . S
N1347 C1345 1.325 . S
N1347 C1346 1.261 . S
C1348 H1318 0.931 . S
C1348 C1345 1.357 . S
C1348 C1349 1.312 . S
C1349 H1320 0.930 . S
C1349 C1344 1.261 . S
C1349 C1348 1.312 . S
C1350 O1322 1.214 . S
C1350 O1330 1.234 . S
C1351 H1323 0.929 . S
C1351 C1354 1.391 . S
C1351 C1356 1.391 . S
C1352 H1324 0.929 . S
C1352 C1353 1.390 . S
C1352 N1355 1.391 . S
C1353 H1325 0.930 . S
C1353 C1352 1.390 . S
C1353 C1354 1.392 . S
C1354 H1326 0.929 . S
C1354 C1351 1.391 . S
C1354 C1353 1.392 . S
N1355 Co1299 2.257 . S
N1355 C1352 1.391 . S
N1355 C1356 1.388 . S
C1356 H1327 0.930 . S
C1356 C1351 1.391 . S
C1356 N1355 1.388 . S
Co1357 O1359 2.143 . S
Co1357 O1365 2.074 . S
Co1357 O1368 2.093 . S
Co1357 O1381 2.097 . S
Co1357 N1398 2.151 . S
Co1357 N1406 2.214 . S
Co1358 O1359 2.160 . S
Co1358 O1364 2.058 . S
Co1358 O1374 2.057 . S
Co1358 O1389 2.037 . S
Co1358 N1393 2.145 . S
Co1358 N1414 2.257 . S
O1359 Co1357 2.143 . S
O1359 Co1358 2.160 . S
C1360 O1361 1.278 . S
C1360 O1368 1.224 . S
O1361 C1360 1.278 . S
C1362 O1363 1.245 . S
C1362 O1374 1.232 . S
O1363 C1362 1.245 . S
O1364 Co1358 2.058 . S
O1364 C1390 1.269 . S
O1365 Co1357 2.074 . S
O1365 C1390 1.257 . S
H1366 C1391 0.930 . S
H1367 C1397 0.930 . S
O1368 Co1357 2.093 . S
O1368 C1360 1.224 . S
H1369 C1401 0.929 . S
H1370 C1403 0.930 . S
H1371 C1404 0.930 . S
H1372 C1402 0.929 . S
H1373 C1405 0.928 . S
O1374 Co1358 2.057 . S
O1374 C1362 1.232 . S
H1375 C1394 0.929 . S
H1376 C1395 0.929 . S
H1377 C1407 0.931 . S
H1378 C1399 0.929 . S
H1379 C1408 0.930 . S
H1380 C1400 0.931 . S
O1381 Co1357 2.097 . S
O1381 C1409 1.214 . S
H1382 C1410 0.929 . S
H1383 C1411 0.929 . S
H1384 C1412 0.930 . S
H1385 C1413 0.929 . S
H1386 C1415 0.930 . S
H1387 C1392 0.930 . S
H1388 C1396 0.930 . S
O1389 Co1358 2.037 . S
O1389 C1409 1.234 . S
C1390 O1364 1.269 . S
C1390 O1365 1.257 . S
C1391 H1366 0.930 . S
C1391 C1394 1.388 . S
C1391 C1396 1.418 . S
C1392 H1387 0.930 . S
C1392 C1395 1.404 . S
C1392 C1396 1.353 . S
N1393 Co1358 2.145 . S
N1393 C1394 1.397 . S
N1393 C1395 1.334 . S
C1394 H1375 0.929 . S
C1394 C1391 1.388 . S
C1394 N1393 1.397 . S
C1395 H1376 0.929 . S
C1395 C1392 1.404 . S
C1395 N1393 1.334 . S
C1396 H1388 0.930 . S
C1396 C1391 1.418 . S
C1396 C1392 1.353 . S
C1397 H1367 0.930 . S
C1397 N1398 1.330 . S
C1397 C1399 1.446 . S
N1398 Co1357 2.151 . S
N1398 C1397 1.330 . S
N1398 C1402 1.418 . S
C1399 H1378 0.929 . S
C1399 C1397 1.446 . S
C1399 C1400 1.332 . S
C1400 H1380 0.931 . S
C1400 C1399 1.332 . S
C1400 C1401 1.267 . S
C1401 H1369 0.929 . S
C1401 C1400 1.267 . S
C1401 C1402 1.251 . S
C1402 H1372 0.929 . S
C1402 N1398 1.418 . S
C1402 C1401 1.251 . S
C1403 H1370 0.930 . S
C1403 C1405 1.406 . S
C1403 C1408 1.261 . S
C1404 H1371 0.930 . S
C1404 N1406 1.325 . S
C1404 C1407 1.357 . S
C1405 H1373 0.928 . S
C1405 C1403 1.406 . S
C1405 N1406 1.261 . S
N1406 Co1357 2.214 . S
N1406 C1404 1.325 . S
N1406 C1405 1.261 . S
C1407 H1377 0.931 . S
C1407 C1404 1.357 . S
C1407 C1408 1.312 . S
C1408 H1379 0.930 . S
C1408 C1403 1.261 . S
C1408 C1407 1.312 . S
C1409 O1381 1.214 . S
C1409 O1389 1.234 . S
C1410 H1382 0.929 . S
C1410 C1413 1.391 . S
C1410 C1415 1.391 . S
C1411 H1383 0.929 . S
C1411 C1412 1.390 . S
C1411 N1414 1.391 . S
C1412 H1384 0.930 . S
C1412 C1411 1.390 . S
C1412 C1413 1.392 . S
C1413 H1385 0.929 . S
C1413 C1410 1.391 . S
C1413 C1412 1.392 . S
N1414 Co1358 2.257 . S
N1414 C1411 1.391 . S
N1414 C1415 1.388 . S
C1415 H1386 0.930 . S
C1415 C1410 1.391 . S
C1415 N1414 1.388 . S
H1416 C1424 0.929 . S
H1417 C1426 0.930 . S
H1418 C1428 0.930 . S
H1419 C1431 0.929 . S
H1420 C1434 0.930 . S
H1421 C1436 0.960 . S
H1422 C1436 0.960 . S
H1423 C1436 0.960 . S
C1424 H1416 0.929 . S
C1424 C1425 1.377 . S
C1424 C1426 1.384 . S
C1425 C1424 1.377 . S
C1425 C1431 1.390 . S
C1426 H1417 0.930 . S
C1426 C1424 1.384 . S
C1426 C1427 1.372 . S
C1427 C1426 1.372 . S
C1427 C1428 1.400 . S
C1427 C1432 1.490 . S
C1428 H1418 0.930 . S
C1428 C1427 1.400 . S
C1428 C1431 1.386 . S
H1429 C1445 0.930 . S
H1430 C1446 0.931 . S
C1431 H1419 0.929 . S
C1431 C1425 1.390 . S
C1431 C1428 1.386 . S
C1432 C1427 1.490 . S
C1432 C1434 1.395 . S
C1432 C1435 1.403 . S
H1433 C1439 0.930 . S
C1434 H1420 0.930 . S
C1434 C1432 1.395 . S
C1434 C1437 1.403 . S
C1435 C1432 1.403 . S
C1435 C1436 1.524 . S
C1435 C1439 1.400 . S
C1436 H1421 0.960 . S
C1436 H1422 0.960 . S
C1436 H1423 0.960 . S
C1436 C1435 1.524 . S
C1437 C1434 1.403 . S
C1437 C1438 1.392 . S
C1437 C1441 1.495 . S
C1438 C1437 1.392 . S
C1438 C1439 1.385 . S
C1438 C1440 1.478 . S
C1439 H1433 0.930 . S
C1439 C1435 1.400 . S
C1439 C1438 1.385 . S
C1440 C1438 1.478 . S
C1440 C1442 1.381 . S
C1440 C1446 1.383 . S
C1441 C1437 1.495 . S
C1441 H1447 0.959 . S
C1441 H1448 0.961 . S
C1441 H1449 0.960 . S
C1442 C1440 1.381 . S
C1442 C1443 1.394 . S
C1442 H1450 0.930 . S
C1443 C1442 1.394 . S
C1443 C1444 1.383 . S
C1443 H1451 0.929 . S
C1444 C1443 1.383 . S
C1444 C1445 1.377 . S
C1445 H1429 0.930 . S
C1445 C1444 1.377 . S
C1445 C1446 1.379 . S
C1446 H1430 0.931 . S
C1446 C1440 1.383 . S
C1446 C1445 1.379 . S
H1447 C1441 0.959 . S
H1448 C1441 0.961 . S
H1449 C1441 0.960 . S
H1450 C1442 0.930 . S
H1451 C1443 0.929 . S
H1452 C1460 0.929 . S
H1453 C1462 0.930 . S
H1454 C1464 0.930 . S
H1455 C1467 0.929 . S
H1456 C1470 0.930 . S
H1457 C1472 0.960 . S
H1458 C1472 0.960 . S
H1459 C1472 0.960 . S
C1460 H1452 0.929 . S
C1460 C1461 1.377 . S
C1460 C1462 1.384 . S
C1461 C1460 1.377 . S
C1461 C1467 1.390 . S
C1462 H1453 0.930 . S
C1462 C1460 1.384 . S
C1462 C1463 1.372 . S
C1463 C1462 1.372 . S
C1463 C1464 1.400 . S
C1463 C1468 1.490 . S
C1464 H1454 0.930 . S
C1464 C1463 1.400 . S
C1464 C1467 1.386 . S
H1465 C1481 0.930 . S
H1466 C1482 0.931 . S
C1467 H1455 0.929 . S
C1467 C1461 1.390 . S
C1467 C1464 1.386 . S
C1468 C1463 1.490 . S
C1468 C1470 1.395 . S
C1468 C1471 1.403 . S
H1469 C1475 0.930 . S
C1470 H1456 0.930 . S
C1470 C1468 1.395 . S
C1470 C1473 1.403 . S
C1471 C1468 1.403 . S
C1471 C1472 1.524 . S
C1471 C1475 1.400 . S
C1472 H1457 0.960 . S
C1472 H1458 0.960 . S
C1472 H1459 0.960 . S
C1472 C1471 1.524 . S
C1473 C1470 1.403 . S
C1473 C1474 1.392 . S
C1473 C1477 1.495 . S
C1474 C1473 1.392 . S
C1474 C1475 1.385 . S
C1474 C1476 1.478 . S
C1475 H1469 0.930 . S
C1475 C1471 1.400 . S
C1475 C1474 1.385 . S
C1476 C1474 1.478 . S
C1476 C1478 1.381 . S
C1476 C1482 1.383 . S
C1477 C1473 1.495 . S
C1477 H1483 0.959 . S
C1477 H1484 0.961 . S
C1477 H1485 0.960 . S
C1478 C1476 1.381 . S
C1478 C1479 1.394 . S
C1478 H1486 0.930 . S
C1479 C1478 1.394 . S
C1479 C1480 1.383 . S
C1479 H1487 0.929 . S
C1480 C1479 1.383 . S
C1480 C1481 1.377 . S
C1481 H1465 0.930 . S
C1481 C1480 1.377 . S
C1481 C1482 1.379 . S
C1482 H1466 0.931 . S
C1482 C1476 1.383 . S
C1482 C1481 1.379 . S
H1483 C1477 0.959 . S
H1484 C1477 0.961 . S
H1485 C1477 0.960 . S
H1486 C1478 0.930 . S
H1487 C1479 0.929 . S
H1488 C1496 0.929 . S
H1489 C1498 0.930 . S
H1490 C1500 0.930 . S
H1491 C1503 0.929 . S
H1492 C1506 0.930 . S
H1493 C1508 0.960 . S
H1494 C1508 0.960 . S
H1495 C1508 0.960 . S
C1496 H1488 0.929 . S
C1496 C1497 1.377 . S
C1496 C1498 1.384 . S
C1497 C1496 1.377 . S
C1497 C1503 1.390 . S
C1498 H1489 0.930 . S
C1498 C1496 1.384 . S
C1498 C1499 1.372 . S
C1499 C1498 1.372 . S
C1499 C1500 1.400 . S
C1499 C1504 1.490 . S
C1500 H1490 0.930 . S
C1500 C1499 1.400 . S
C1500 C1503 1.386 . S
H1501 C1517 0.930 . S
H1502 C1518 0.931 . S
C1503 H1491 0.929 . S
C1503 C1497 1.390 . S
C1503 C1500 1.386 . S
C1504 C1499 1.490 . S
C1504 C1506 1.395 . S
C1504 C1507 1.403 . S
H1505 C1511 0.930 . S
C1506 H1492 0.930 . S
C1506 C1504 1.395 . S
C1506 C1509 1.403 . S
C1507 C1504 1.403 . S
C1507 C1508 1.524 . S
C1507 C1511 1.400 . S
C1508 H1493 0.960 . S
C1508 H1494 0.960 . S
C1508 H1495 0.960 . S
C1508 C1507 1.524 . S
C1509 C1506 1.403 . S
C1509 C1510 1.392 . S
C1509 C1513 1.495 . S
C1510 C1509 1.392 . S
C1510 C1511 1.385 . S
C1510 C1512 1.478 . S
C1511 H1505 0.930 . S
C1511 C1507 1.400 . S
C1511 C1510 1.385 . S
C1512 C1510 1.478 . S
C1512 C1514 1.381 . S
C1512 C1518 1.383 . S
C1513 C1509 1.495 . S
C1513 H1519 0.959 . S
C1513 H1520 0.961 . S
C1513 H1521 0.960 . S
C1514 C1512 1.381 . S
C1514 C1515 1.394 . S
C1514 H1522 0.930 . S
C1515 C1514 1.394 . S
C1515 C1516 1.383 . S
C1515 H1523 0.929 . S
C1516 C1515 1.383 . S
C1516 C1517 1.377 . S
C1517 H1501 0.930 . S
C1517 C1516 1.377 . S
C1517 C1518 1.379 . S
C1518 H1502 0.931 . S
C1518 C1512 1.383 . S
C1518 C1517 1.379 . S
H1519 C1513 0.959 . S
H1520 C1513 0.961 . S
H1521 C1513 0.960 . S
H1522 C1514 0.930 . S
H1523 C1515 0.929 . S
H1524 C1532 0.929 . S
H1525 C1534 0.930 . S
H1526 C1536 0.930 . S
H1527 C1539 0.929 . S
H1528 C1542 0.930 . S
H1529 C1544 0.960 . S
H1530 C1544 0.960 . S
H1531 C1544 0.960 . S
C1532 H1524 0.929 . S
C1532 C1533 1.377 . S
C1532 C1534 1.384 . S
C1533 C1532 1.377 . S
C1533 C1539 1.390 . S
C1534 H1525 0.930 . S
C1534 C1532 1.384 . S
C1534 C1535 1.372 . S
C1535 C1534 1.372 . S
C1535 C1536 1.400 . S
C1535 C1540 1.490 . S
C1536 H1526 0.930 . S
C1536 C1535 1.400 . S
C1536 C1539 1.386 . S
H1537 C1553 0.930 . S
H1538 C1554 0.931 . S
C1539 H1527 0.929 . S
C1539 C1533 1.390 . S
C1539 C1536 1.386 . S
C1540 C1535 1.490 . S
C1540 C1542 1.395 . S
C1540 C1543 1.403 . S
H1541 C1547 0.930 . S
C1542 H1528 0.930 . S
C1542 C1540 1.395 . S
C1542 C1545 1.403 . S
C1543 C1540 1.403 . S
C1543 C1544 1.524 . S
C1543 C1547 1.400 . S
C1544 H1529 0.960 . S
C1544 H1530 0.960 . S
C1544 H1531 0.960 . S
C1544 C1543 1.524 . S
C1545 C1542 1.403 . S
C1545 C1546 1.392 . S
C1545 C1549 1.495 . S
C1546 C1545 1.392 . S
C1546 C1547 1.385 . S
C1546 C1548 1.478 . S
C1547 H1541 0.930 . S
C1547 C1543 1.400 . S
C1547 C1546 1.385 . S
C1548 C1546 1.478 . S
C1548 C1550 1.381 . S
C1548 C1554 1.383 . S
C1549 C1545 1.495 . S
C1549 H1555 0.959 . S
C1549 H1556 0.961 . S
C1549 H1557 0.960 . S
C1550 C1548 1.381 . S
C1550 C1551 1.394 . S
C1550 H1558 0.930 . S
C1551 C1550 1.394 . S
C1551 C1552 1.383 . S
C1551 H1559 0.929 . S
C1552 C1551 1.383 . S
C1552 C1553 1.377 . S
C1553 H1537 0.930 . S
C1553 C1552 1.377 . S
C1553 C1554 1.379 . S
C1554 H1538 0.931 . S
C1554 C1548 1.383 . S
C1554 C1553 1.379 . S
H1555 C1549 0.959 . S
H1556 C1549 0.961 . S
H1557 C1549 0.960 . S
H1558 C1550 0.930 . S
H1559 C1551 0.929 . S
H1560 C1568 0.929 . S
H1561 C1570 0.930 . S
H1562 C1572 0.930 . S
H1563 C1575 0.929 . S
H1564 C1578 0.930 . S
H1565 C1580 0.960 . S
H1566 C1580 0.960 . S
H1567 C1580 0.960 . S
C1568 H1560 0.929 . S
C1568 C1569 1.377 . S
C1568 C1570 1.384 . S
C1569 C1568 1.377 . S
C1569 C1575 1.390 . S
C1570 H1561 0.930 . S
C1570 C1568 1.384 . S
C1570 C1571 1.372 . S
C1571 C1570 1.372 . S
C1571 C1572 1.400 . S
C1571 C1576 1.490 . S
C1572 H1562 0.930 . S
C1572 C1571 1.400 . S
C1572 C1575 1.386 . S
H1573 C1589 0.930 . S
H1574 C1590 0.931 . S
C1575 H1563 0.929 . S
C1575 C1569 1.390 . S
C1575 C1572 1.386 . S
C1576 C1571 1.490 . S
C1576 C1578 1.395 . S
C1576 C1579 1.403 . S
H1577 C1583 0.930 . S
C1578 H1564 0.930 . S
C1578 C1576 1.395 . S
C1578 C1581 1.403 . S
C1579 C1576 1.403 . S
C1579 C1580 1.524 . S
C1579 C1583 1.400 . S
C1580 H1565 0.960 . S
C1580 H1566 0.960 . S
C1580 H1567 0.960 . S
C1580 C1579 1.524 . S
C1581 C1578 1.403 . S
C1581 C1582 1.392 . S
C1581 C1585 1.495 . S
C1582 C1581 1.392 . S
C1582 C1583 1.385 . S
C1582 C1584 1.478 . S
C1583 H1577 0.930 . S
C1583 C1579 1.400 . S
C1583 C1582 1.385 . S
C1584 C1582 1.478 . S
C1584 C1586 1.381 . S
C1584 C1590 1.383 . S
C1585 C1581 1.495 . S
C1585 H1591 0.959 . S
C1585 H1592 0.961 . S
C1585 H1593 0.960 . S
C1586 C1584 1.381 . S
C1586 C1587 1.394 . S
C1586 H1594 0.930 . S
C1587 C1586 1.394 . S
C1587 C1588 1.383 . S
C1587 H1595 0.929 . S
C1588 C1587 1.383 . S
C1588 C1589 1.377 . S
C1589 H1573 0.930 . S
C1589 C1588 1.377 . S
C1589 C1590 1.379 . S
C1590 H1574 0.931 . S
C1590 C1584 1.383 . S
C1590 C1589 1.379 . S
H1591 C1585 0.959 . S
H1592 C1585 0.961 . S
H1593 C1585 0.960 . S
H1594 C1586 0.930 . S
H1595 C1587 0.929 . S
H1596 C1604 0.929 . S
H1597 C1606 0.930 . S
H1598 C1608 0.930 . S
H1599 C1611 0.929 . S
H1600 C1614 0.930 . S
H1601 C1616 0.960 . S
H1602 C1616 0.960 . S
H1603 C1616 0.960 . S
C1604 H1596 0.929 . S
C1604 C1605 1.377 . S
C1604 C1606 1.384 . S
C1605 C1604 1.377 . S
C1605 C1611 1.390 . S
C1606 H1597 0.930 . S
C1606 C1604 1.384 . S
C1606 C1607 1.372 . S
C1607 C1606 1.372 . S
C1607 C1608 1.400 . S
C1607 C1612 1.490 . S
C1608 H1598 0.930 . S
C1608 C1607 1.400 . S
C1608 C1611 1.386 . S
H1609 C1625 0.930 . S
H1610 C1626 0.931 . S
C1611 H1599 0.929 . S
C1611 C1605 1.390 . S
C1611 C1608 1.386 . S
C1612 C1607 1.490 . S
C1612 C1614 1.395 . S
C1612 C1615 1.403 . S
H1613 C1619 0.930 . S
C1614 H1600 0.930 . S
C1614 C1612 1.395 . S
C1614 C1617 1.403 . S
C1615 C1612 1.403 . S
C1615 C1616 1.524 . S
C1615 C1619 1.400 . S
C1616 H1601 0.960 . S
C1616 H1602 0.960 . S
C1616 H1603 0.960 . S
C1616 C1615 1.524 . S
C1617 C1614 1.403 . S
C1617 C1618 1.392 . S
C1617 C1621 1.495 . S
C1618 C1617 1.392 . S
C1618 C1619 1.385 . S
C1618 C1620 1.478 . S
C1619 H1613 0.930 . S
C1619 C1615 1.400 . S
C1619 C1618 1.385 . S
C1620 C1618 1.478 . S
C1620 C1622 1.381 . S
C1620 C1626 1.383 . S
C1621 C1617 1.495 . S
C1621 H1627 0.959 . S
C1621 H1628 0.961 . S
C1621 H1629 0.960 . S
C1622 C1620 1.381 . S
C1622 C1623 1.394 . S
C1622 H1630 0.930 . S
C1623 C1622 1.394 . S
C1623 C1624 1.383 . S
C1623 H1631 0.929 . S
C1624 C1623 1.383 . S
C1624 C1625 1.377 . S
C1625 H1609 0.930 . S
C1625 C1624 1.377 . S
C1625 C1626 1.379 . S
C1626 H1610 0.931 . S
C1626 C1620 1.383 . S
C1626 C1625 1.379 . S
H1627 C1621 0.959 . S
H1628 C1621 0.961 . S
H1629 C1621 0.960 . S
H1630 C1622 0.930 . S
H1631 C1623 0.929 . S
H1632 C1640 0.929 . S
H1633 C1642 0.930 . S
H1634 C1644 0.930 . S
H1635 C1647 0.929 . S
H1636 C1650 0.930 . S
H1637 C1652 0.960 . S
H1638 C1652 0.960 . S
H1639 C1652 0.960 . S
C1640 H1632 0.929 . S
C1640 C1641 1.377 . S
C1640 C1642 1.384 . S
C1641 C1640 1.377 . S
C1641 C1647 1.390 . S
C1642 H1633 0.930 . S
C1642 C1640 1.384 . S
C1642 C1643 1.372 . S
C1643 C1642 1.372 . S
C1643 C1644 1.400 . S
C1643 C1648 1.490 . S
C1644 H1634 0.930 . S
C1644 C1643 1.400 . S
C1644 C1647 1.386 . S
H1645 C1661 0.930 . S
H1646 C1662 0.931 . S
C1647 H1635 0.929 . S
C1647 C1641 1.390 . S
C1647 C1644 1.386 . S
C1648 C1643 1.490 . S
C1648 C1650 1.395 . S
C1648 C1651 1.403 . S
H1649 C1655 0.930 . S
C1650 H1636 0.930 . S
C1650 C1648 1.395 . S
C1650 C1653 1.403 . S
C1651 C1648 1.403 . S
C1651 C1652 1.524 . S
C1651 C1655 1.400 . S
C1652 H1637 0.960 . S
C1652 H1638 0.960 . S
C1652 H1639 0.960 . S
C1652 C1651 1.524 . S
C1653 C1650 1.403 . S
C1653 C1654 1.392 . S
C1653 C1657 1.495 . S
C1654 C1653 1.392 . S
C1654 C1655 1.385 . S
C1654 C1656 1.478 . S
C1655 H1649 0.930 . S
C1655 C1651 1.400 . S
C1655 C1654 1.385 . S
C1656 C1654 1.478 . S
C1656 C1658 1.381 . S
C1656 C1662 1.383 . S
C1657 C1653 1.495 . S
C1657 H1663 0.959 . S
C1657 H1664 0.961 . S
C1657 H1665 0.960 . S
C1658 C1656 1.381 . S
C1658 C1659 1.394 . S
C1658 H1666 0.930 . S
C1659 C1658 1.394 . S
C1659 C1660 1.383 . S
C1659 H1667 0.929 . S
C1660 C1659 1.383 . S
C1660 C1661 1.377 . S
C1661 H1645 0.930 . S
C1661 C1660 1.377 . S
C1661 C1662 1.379 . S
C1662 H1646 0.931 . S
C1662 C1656 1.383 . S
C1662 C1661 1.379 . S
H1663 C1657 0.959 . S
H1664 C1657 0.961 . S
H1665 C1657 0.960 . S
H1666 C1658 0.930 . S
H1667 C1659 0.929 . S
H1668 C1676 0.929 . S
H1669 C1678 0.930 . S
H1670 C1680 0.930 . S
H1671 C1683 0.929 . S
H1672 C1686 0.930 . S
H1673 C1688 0.960 . S
H1674 C1688 0.960 . S
H1675 C1688 0.960 . S
C1676 H1668 0.929 . S
C1676 C1677 1.377 . S
C1676 C1678 1.384 . S
C1677 C1676 1.377 . S
C1677 C1683 1.390 . S
C1678 H1669 0.930 . S
C1678 C1676 1.384 . S
C1678 C1679 1.372 . S
C1679 C1678 1.372 . S
C1679 C1680 1.400 . S
C1679 C1684 1.490 . S
C1680 H1670 0.930 . S
C1680 C1679 1.400 . S
C1680 C1683 1.386 . S
H1681 C1697 0.930 . S
H1682 C1698 0.931 . S
C1683 H1671 0.929 . S
C1683 C1677 1.390 . S
C1683 C1680 1.386 . S
C1684 C1679 1.490 . S
C1684 C1686 1.395 . S
C1684 C1687 1.403 . S
H1685 C1691 0.930 . S
C1686 H1672 0.930 . S
C1686 C1684 1.395 . S
C1686 C1689 1.403 . S
C1687 C1684 1.403 . S
C1687 C1688 1.524 . S
C1687 C1691 1.400 . S
C1688 H1673 0.960 . S
C1688 H1674 0.960 . S
C1688 H1675 0.960 . S
C1688 C1687 1.524 . S
C1689 C1686 1.403 . S
C1689 C1690 1.392 . S
C1689 C1693 1.495 . S
C1690 C1689 1.392 . S
C1690 C1691 1.385 . S
C1690 C1692 1.478 . S
C1691 H1685 0.930 . S
C1691 C1687 1.400 . S
C1691 C1690 1.385 . S
C1692 C1690 1.478 . S
C1692 C1694 1.381 . S
C1692 C1698 1.383 . S
C1693 C1689 1.495 . S
C1693 H1699 0.959 . S
C1693 H1700 0.961 . S
C1693 H1701 0.960 . S
C1694 C1692 1.381 . S
C1694 C1695 1.394 . S
C1694 H1702 0.930 . S
C1695 C1694 1.394 . S
C1695 C1696 1.383 . S
C1695 H1703 0.929 . S
C1696 C1695 1.383 . S
C1696 C1697 1.377 . S
C1697 H1681 0.930 . S
C1697 C1696 1.377 . S
C1697 C1698 1.379 . S
C1698 H1682 0.931 . S
C1698 C1692 1.383 . S
C1698 C1697 1.379 . S
H1699 C1693 0.959 . S
H1700 C1693 0.961 . S
H1701 C1693 0.960 . S
H1702 C1694 0.930 . S
H1703 C1695 0.929 . S
H1704 C1712 0.929 . S
H1705 C1714 0.930 . S
H1706 C1716 0.930 . S
H1707 C1719 0.929 . S
H1708 C1722 0.930 . S
H1709 C1724 0.960 . S
H1710 C1724 0.960 . S
H1711 C1724 0.960 . S
C1712 H1704 0.929 . S
C1712 C1713 1.377 . S
C1712 C1714 1.384 . S
C1713 C1712 1.377 . S
C1713 C1719 1.390 . S
C1714 H1705 0.930 . S
C1714 C1712 1.384 . S
C1714 C1715 1.372 . S
C1715 C1714 1.372 . S
C1715 C1716 1.400 . S
C1715 C1720 1.490 . S
C1716 H1706 0.930 . S
C1716 C1715 1.400 . S
C1716 C1719 1.386 . S
H1717 C1733 0.930 . S
H1718 C1734 0.931 . S
C1719 H1707 0.929 . S
C1719 C1713 1.390 . S
C1719 C1716 1.386 . S
C1720 C1715 1.490 . S
C1720 C1722 1.395 . S
C1720 C1723 1.403 . S
H1721 C1727 0.930 . S
C1722 H1708 0.930 . S
C1722 C1720 1.395 . S
C1722 C1725 1.403 . S
C1723 C1720 1.403 . S
C1723 C1724 1.524 . S
C1723 C1727 1.400 . S
C1724 H1709 0.960 . S
C1724 H1710 0.960 . S
C1724 H1711 0.960 . S
C1724 C1723 1.524 . S
C1725 C1722 1.403 . S
C1725 C1726 1.392 . S
C1725 C1729 1.495 . S
C1726 C1725 1.392 . S
C1726 C1727 1.385 . S
C1726 C1728 1.478 . S
C1727 H1721 0.930 . S
C1727 C1723 1.400 . S
C1727 C1726 1.385 . S
C1728 C1726 1.478 . S
C1728 C1730 1.381 . S
C1728 C1734 1.383 . S
C1729 C1725 1.495 . S
C1729 H1735 0.959 . S
C1729 H1736 0.961 . S
C1729 H1737 0.960 . S
C1730 C1728 1.381 . S
C1730 C1731 1.394 . S
C1730 H1738 0.930 . S
C1731 C1730 1.394 . S
C1731 C1732 1.383 . S
C1731 H1739 0.929 . S
C1732 C1731 1.383 . S
C1732 C1733 1.377 . S
C1733 H1717 0.930 . S
C1733 C1732 1.377 . S
C1733 C1734 1.379 . S
C1734 H1718 0.931 . S
C1734 C1728 1.383 . S
C1734 C1733 1.379 . S
H1735 C1729 0.959 . S
H1736 C1729 0.961 . S
H1737 C1729 0.960 . S
H1738 C1730 0.930 . S
H1739 C1731 0.929 . S
H1740 C1748 0.929 . S
H1741 C1750 0.930 . S
H1742 C1752 0.930 . S
H1743 C1755 0.929 . S
H1744 C1758 0.930 . S
H1745 C1760 0.960 . S
H1746 C1760 0.960 . S
H1747 C1760 0.960 . S
C1748 H1740 0.929 . S
C1748 C1749 1.377 . S
C1748 C1750 1.384 . S
C1749 C1748 1.377 . S
C1749 C1755 1.390 . S
C1750 H1741 0.930 . S
C1750 C1748 1.384 . S
C1750 C1751 1.372 . S
C1751 C1750 1.372 . S
C1751 C1752 1.400 . S
C1751 C1756 1.490 . S
C1752 H1742 0.930 . S
C1752 C1751 1.400 . S
C1752 C1755 1.386 . S
H1753 C1769 0.930 . S
H1754 C1770 0.931 . S
C1755 H1743 0.929 . S
C1755 C1749 1.390 . S
C1755 C1752 1.386 . S
C1756 C1751 1.490 . S
C1756 C1758 1.395 . S
C1756 C1759 1.403 . S
H1757 C1763 0.930 . S
C1758 H1744 0.930 . S
C1758 C1756 1.395 . S
C1758 C1761 1.403 . S
C1759 C1756 1.403 . S
C1759 C1760 1.524 . S
C1759 C1763 1.400 . S
C1760 H1745 0.960 . S
C1760 H1746 0.960 . S
C1760 H1747 0.960 . S
C1760 C1759 1.524 . S
C1761 C1758 1.403 . S
C1761 C1762 1.392 . S
C1761 C1765 1.495 . S
C1762 C1761 1.392 . S
C1762 C1763 1.385 . S
C1762 C1764 1.478 . S
C1763 H1757 0.930 . S
C1763 C1759 1.400 . S
C1763 C1762 1.385 . S
C1764 C1762 1.478 . S
C1764 C1766 1.381 . S
C1764 C1770 1.383 . S
C1765 C1761 1.495 . S
C1765 H1771 0.959 . S
C1765 H1772 0.961 . S
C1765 H1773 0.960 . S
C1766 C1764 1.381 . S
C1766 C1767 1.394 . S
C1766 H1774 0.930 . S
C1767 C1766 1.394 . S
C1767 C1768 1.383 . S
C1767 H1775 0.929 . S
C1768 C1767 1.383 . S
C1768 C1769 1.377 . S
C1769 H1753 0.930 . S
C1769 C1768 1.377 . S
C1769 C1770 1.379 . S
C1770 H1754 0.931 . S
C1770 C1764 1.383 . S
C1770 C1769 1.379 . S
H1771 C1765 0.959 . S
H1772 C1765 0.961 . S
H1773 C1765 0.960 . S
H1774 C1766 0.930 . S
H1775 C1767 0.929 . S
H1776 C1784 0.929 . S
H1777 C1786 0.930 . S
H1778 C1788 0.930 . S
H1779 C1791 0.929 . S
H1780 C1794 0.930 . S
H1781 C1796 0.960 . S
H1782 C1796 0.960 . S
H1783 C1796 0.960 . S
C1784 H1776 0.929 . S
C1784 C1785 1.377 . S
C1784 C1786 1.384 . S
C1785 C1784 1.377 . S
C1785 C1791 1.390 . S
C1786 H1777 0.930 . S
C1786 C1784 1.384 . S
C1786 C1787 1.372 . S
C1787 C1786 1.372 . S
C1787 C1788 1.400 . S
C1787 C1792 1.490 . S
C1788 H1778 0.930 . S
C1788 C1787 1.400 . S
C1788 C1791 1.386 . S
H1789 C1805 0.930 . S
H1790 C1806 0.931 . S
C1791 H1779 0.929 . S
C1791 C1785 1.390 . S
C1791 C1788 1.386 . S
C1792 C1787 1.490 . S
C1792 C1794 1.395 . S
C1792 C1795 1.403 . S
H1793 C1799 0.930 . S
C1794 H1780 0.930 . S
C1794 C1792 1.395 . S
C1794 C1797 1.403 . S
C1795 C1792 1.403 . S
C1795 C1796 1.524 . S
C1795 C1799 1.400 . S
C1796 H1781 0.960 . S
C1796 H1782 0.960 . S
C1796 H1783 0.960 . S
C1796 C1795 1.524 . S
C1797 C1794 1.403 . S
C1797 C1798 1.392 . S
C1797 C1801 1.495 . S
C1798 C1797 1.392 . S
C1798 C1799 1.385 . S
C1798 C1800 1.478 . S
C1799 H1793 0.930 . S
C1799 C1795 1.400 . S
C1799 C1798 1.385 . S
C1800 C1798 1.478 . S
C1800 C1802 1.381 . S
C1800 C1806 1.383 . S
C1801 C1797 1.495 . S
C1801 H1807 0.959 . S
C1801 H1808 0.961 . S
C1801 H1809 0.960 . S
C1802 C1800 1.381 . S
C1802 C1803 1.394 . S
C1802 H1810 0.930 . S
C1803 C1802 1.394 . S
C1803 C1804 1.383 . S
C1803 H1811 0.929 . S
C1804 C1803 1.383 . S
C1804 C1805 1.377 . S
C1805 H1789 0.930 . S
C1805 C1804 1.377 . S
C1805 C1806 1.379 . S
C1806 H1790 0.931 . S
C1806 C1800 1.383 . S
C1806 C1805 1.379 . S
H1807 C1801 0.959 . S
H1808 C1801 0.961 . S
H1809 C1801 0.960 . S
H1810 C1802 0.930 . S
H1811 C1803 0.929 . S
H1812 C1820 0.929 . S
H1813 C1822 0.930 . S
H1814 C1824 0.930 . S
H1815 C1827 0.929 . S
H1816 C1830 0.930 . S
H1817 C1832 0.960 . S
H1818 C1832 0.960 . S
H1819 C1832 0.960 . S
C1820 H1812 0.929 . S
C1820 C1821 1.377 . S
C1820 C1822 1.384 . S
C1821 C1820 1.377 . S
C1821 C1827 1.390 . S
C1822 H1813 0.930 . S
C1822 C1820 1.384 . S
C1822 C1823 1.372 . S
C1823 C1822 1.372 . S
C1823 C1824 1.400 . S
C1823 C1828 1.490 . S
C1824 H1814 0.930 . S
C1824 C1823 1.400 . S
C1824 C1827 1.386 . S
H1825 C1841 0.930 . S
H1826 C1842 0.931 . S
C1827 H1815 0.929 . S
C1827 C1821 1.390 . S
C1827 C1824 1.386 . S
C1828 C1823 1.490 . S
C1828 C1830 1.395 . S
C1828 C1831 1.403 . S
H1829 C1835 0.930 . S
C1830 H1816 0.930 . S
C1830 C1828 1.395 . S
C1830 C1833 1.403 . S
C1831 C1828 1.403 . S
C1831 C1832 1.524 . S
C1831 C1835 1.400 . S
C1832 H1817 0.960 . S
C1832 H1818 0.960 . S
C1832 H1819 0.960 . S
C1832 C1831 1.524 . S
C1833 C1830 1.403 . S
C1833 C1834 1.392 . S
C1833 C1837 1.495 . S
C1834 C1833 1.392 . S
C1834 C1835 1.385 . S
C1834 C1836 1.478 . S
C1835 H1829 0.930 . S
C1835 C1831 1.400 . S
C1835 C1834 1.385 . S
C1836 C1834 1.478 . S
C1836 C1838 1.381 . S
C1836 C1842 1.383 . S
C1837 C1833 1.495 . S
C1837 H1843 0.959 . S
C1837 H1844 0.961 . S
C1837 H1845 0.960 . S
C1838 C1836 1.381 . S
C1838 C1839 1.394 . S
C1838 H1846 0.930 . S
C1839 C1838 1.394 . S
C1839 C1840 1.383 . S
C1839 H1847 0.929 . S
C1840 C1839 1.383 . S
C1840 C1841 1.377 . S
C1841 H1825 0.930 . S
C1841 C1840 1.377 . S
C1841 C1842 1.379 . S
C1842 H1826 0.931 . S
C1842 C1836 1.383 . S
C1842 C1841 1.379 . S
H1843 C1837 0.959 . S
H1844 C1837 0.961 . S
H1845 C1837 0.960 . S
H1846 C1838 0.930 . S
H1847 C1839 0.929 . S
H1848 C1856 0.929 . S
H1849 C1858 0.930 . S
H1850 C1860 0.930 . S
H1851 C1863 0.929 . S
H1852 C1866 0.930 . S
H1853 C1868 0.960 . S
H1854 C1868 0.960 . S
H1855 C1868 0.960 . S
C1856 H1848 0.929 . S
C1856 C1857 1.377 . S
C1856 C1858 1.384 . S
C1857 C1856 1.377 . S
C1857 C1863 1.390 . S
C1858 H1849 0.930 . S
C1858 C1856 1.384 . S
C1858 C1859 1.372 . S
C1859 C1858 1.372 . S
C1859 C1860 1.400 . S
C1859 C1864 1.490 . S
C1860 H1850 0.930 . S
C1860 C1859 1.400 . S
C1860 C1863 1.386 . S
H1861 C1877 0.930 . S
H1862 C1878 0.931 . S
C1863 H1851 0.929 . S
C1863 C1857 1.390 . S
C1863 C1860 1.386 . S
C1864 C1859 1.490 . S
C1864 C1866 1.395 . S
C1864 C1867 1.403 . S
H1865 C1871 0.930 . S
C1866 H1852 0.930 . S
C1866 C1864 1.395 . S
C1866 C1869 1.403 . S
C1867 C1864 1.403 . S
C1867 C1868 1.524 . S
C1867 C1871 1.400 . S
C1868 H1853 0.960 . S
C1868 H1854 0.960 . S
C1868 H1855 0.960 . S
C1868 C1867 1.524 . S
C1869 C1866 1.403 . S
C1869 C1870 1.392 . S
C1869 C1873 1.495 . S
C1870 C1869 1.392 . S
C1870 C1871 1.385 . S
C1870 C1872 1.478 . S
C1871 H1865 0.930 . S
C1871 C1867 1.400 . S
C1871 C1870 1.385 . S
C1872 C1870 1.478 . S
C1872 C1874 1.381 . S
C1872 C1878 1.383 . S
C1873 C1869 1.495 . S
C1873 H1879 0.959 . S
C1873 H1880 0.961 . S
C1873 H1881 0.960 . S
C1874 C1872 1.381 . S
C1874 C1875 1.394 . S
C1874 H1882 0.930 . S
C1875 C1874 1.394 . S
C1875 C1876 1.383 . S
C1875 H1883 0.929 . S
C1876 C1875 1.383 . S
C1876 C1877 1.377 . S
C1877 H1861 0.930 . S
C1877 C1876 1.377 . S
C1877 C1878 1.379 . S
C1878 H1862 0.931 . S
C1878 C1872 1.383 . S
C1878 C1877 1.379 . S
H1879 C1873 0.959 . S
H1880 C1873 0.961 . S
H1881 C1873 0.960 . S
H1882 C1874 0.930 . S
H1883 C1875 0.929 . S
H1884 C1892 0.929 . S
H1885 C1894 0.930 . S
H1886 C1896 0.930 . S
H1887 C1899 0.929 . S
H1888 C1902 0.930 . S
H1889 C1904 0.960 . S
H1890 C1904 0.960 . S
H1891 C1904 0.960 . S
C1892 H1884 0.929 . S
C1892 C1893 1.377 . S
C1892 C1894 1.384 . S
C1893 C1892 1.377 . S
C1893 C1899 1.390 . S
C1894 H1885 0.930 . S
C1894 C1892 1.384 . S
C1894 C1895 1.372 . S
C1895 C1894 1.372 . S
C1895 C1896 1.400 . S
C1895 C1900 1.490 . S
C1896 H1886 0.930 . S
C1896 C1895 1.400 . S
C1896 C1899 1.386 . S
H1897 C1913 0.930 . S
H1898 C1914 0.931 . S
C1899 H1887 0.929 . S
C1899 C1893 1.390 . S
C1899 C1896 1.386 . S
C1900 C1895 1.490 . S
C1900 C1902 1.395 . S
C1900 C1903 1.403 . S
H1901 C1907 0.930 . S
C1902 H1888 0.930 . S
C1902 C1900 1.395 . S
C1902 C1905 1.403 . S
C1903 C1900 1.403 . S
C1903 C1904 1.524 . S
C1903 C1907 1.400 . S
C1904 H1889 0.960 . S
C1904 H1890 0.960 . S
C1904 H1891 0.960 . S
C1904 C1903 1.524 . S
C1905 C1902 1.403 . S
C1905 C1906 1.392 . S
C1905 C1909 1.495 . S
C1906 C1905 1.392 . S
C1906 C1907 1.385 . S
C1906 C1908 1.478 . S
C1907 H1901 0.930 . S
C1907 C1903 1.400 . S
C1907 C1906 1.385 . S
C1908 C1906 1.478 . S
C1908 C1910 1.381 . S
C1908 C1914 1.383 . S
C1909 C1905 1.495 . S
C1909 H1915 0.959 . S
C1909 H1916 0.961 . S
C1909 H1917 0.960 . S
C1910 C1908 1.381 . S
C1910 C1911 1.394 . S
C1910 H1918 0.930 . S
C1911 C1910 1.394 . S
C1911 C1912 1.383 . S
C1911 H1919 0.929 . S
C1912 C1911 1.383 . S
C1912 C1913 1.377 . S
C1913 H1897 0.930 . S
C1913 C1912 1.377 . S
C1913 C1914 1.379 . S
C1914 H1898 0.931 . S
C1914 C1908 1.383 . S
C1914 C1913 1.379 . S
H1915 C1909 0.959 . S
H1916 C1909 0.961 . S
H1917 C1909 0.960 . S
H1918 C1910 0.930 . S
H1919 C1911 0.929 . S
H1920 C1928 0.929 . S
H1921 C1930 0.930 . S
H1922 C1932 0.930 . S
H1923 C1935 0.929 . S
H1924 C1938 0.930 . S
H1925 C1940 0.960 . S
H1926 C1940 0.960 . S
H1927 C1940 0.960 . S
C1928 H1920 0.929 . S
C1928 C1929 1.377 . S
C1928 C1930 1.384 . S
C1929 C1928 1.377 . S
C1929 C1935 1.390 . S
C1930 H1921 0.930 . S
C1930 C1928 1.384 . S
C1930 C1931 1.372 . S
C1931 C1930 1.372 . S
C1931 C1932 1.400 . S
C1931 C1936 1.490 . S
C1932 H1922 0.930 . S
C1932 C1931 1.400 . S
C1932 C1935 1.386 . S
H1933 C1949 0.930 . S
H1934 C1950 0.931 . S
C1935 H1923 0.929 . S
C1935 C1929 1.390 . S
C1935 C1932 1.386 . S
C1936 C1931 1.490 . S
C1936 C1938 1.395 . S
C1936 C1939 1.403 . S
H1937 C1943 0.930 . S
C1938 H1924 0.930 . S
C1938 C1936 1.395 . S
C1938 C1941 1.403 . S
C1939 C1936 1.403 . S
C1939 C1940 1.524 . S
C1939 C1943 1.400 . S
C1940 H1925 0.960 . S
C1940 H1926 0.960 . S
C1940 H1927 0.960 . S
C1940 C1939 1.524 . S
C1941 C1938 1.403 . S
C1941 C1942 1.392 . S
C1941 C1945 1.495 . S
C1942 C1941 1.392 . S
C1942 C1943 1.385 . S
C1942 C1944 1.478 . S
C1943 H1937 0.930 . S
C1943 C1939 1.400 . S
C1943 C1942 1.385 . S
C1944 C1942 1.478 . S
C1944 C1946 1.381 . S
C1944 C1950 1.383 . S
C1945 C1941 1.495 . S
C1945 H1951 0.959 . S
C1945 H1952 0.961 . S
C1945 H1953 0.960 . S
C1946 C1944 1.381 . S
C1946 C1947 1.394 . S
C1946 H1954 0.930 . S
C1947 C1946 1.394 . S
C1947 C1948 1.383 . S
C1947 H1955 0.929 . S
C1948 C1947 1.383 . S
C1948 C1949 1.377 . S
C1949 H1933 0.930 . S
C1949 C1948 1.377 . S
C1949 C1950 1.379 . S
C1950 H1934 0.931 . S
C1950 C1944 1.383 . S
C1950 C1949 1.379 . S
H1951 C1945 0.959 . S
H1952 C1945 0.961 . S
H1953 C1945 0.960 . S
H1954 C1946 0.930 . S
H1955 C1947 0.929 . S
H1956 C1964 0.929 . S
H1957 C1966 0.930 . S
H1958 C1968 0.930 . S
H1959 C1971 0.929 . S
H1960 C1974 0.930 . S
H1961 C1976 0.960 . S
H1962 C1976 0.960 . S
H1963 C1976 0.960 . S
C1964 H1956 0.929 . S
C1964 C1965 1.377 . S
C1964 C1966 1.384 . S
C1965 C1964 1.377 . S
C1965 C1971 1.390 . S
C1966 H1957 0.930 . S
C1966 C1964 1.384 . S
C1966 C1967 1.372 . S
C1967 C1966 1.372 . S
C1967 C1968 1.400 . S
C1967 C1972 1.490 . S
C1968 H1958 0.930 . S
C1968 C1967 1.400 . S
C1968 C1971 1.386 . S
H1969 C1985 0.930 . S
H1970 C1986 0.931 . S
C1971 H1959 0.929 . S
C1971 C1965 1.390 . S
C1971 C1968 1.386 . S
C1972 C1967 1.490 . S
C1972 C1974 1.395 . S
C1972 C1975 1.403 . S
H1973 C1979 0.930 . S
C1974 H1960 0.930 . S
C1974 C1972 1.395 . S
C1974 C1977 1.403 . S
C1975 C1972 1.403 . S
C1975 C1976 1.524 . S
C1975 C1979 1.400 . S
C1976 H1961 0.960 . S
C1976 H1962 0.960 . S
C1976 H1963 0.960 . S
C1976 C1975 1.524 . S
C1977 C1974 1.403 . S
C1977 C1978 1.392 . S
C1977 C1981 1.495 . S
C1978 C1977 1.392 . S
C1978 C1979 1.385 . S
C1978 C1980 1.478 . S
C1979 H1973 0.930 . S
C1979 C1975 1.400 . S
C1979 C1978 1.385 . S
C1980 C1978 1.478 . S
C1980 C1982 1.381 . S
C1980 C1986 1.383 . S
C1981 C1977 1.495 . S
C1981 H1987 0.959 . S
C1981 H1988 0.961 . S
C1981 H1989 0.960 . S
C1982 C1980 1.381 . S
C1982 C1983 1.394 . S
C1982 H1990 0.930 . S
C1983 C1982 1.394 . S
C1983 C1984 1.383 . S
C1983 H1991 0.929 . S
C1984 C1983 1.383 . S
C1984 C1985 1.377 . S
C1985 H1969 0.930 . S
C1985 C1984 1.377 . S
C1985 C1986 1.379 . S
C1986 H1970 0.931 . S
C1986 C1980 1.383 . S
C1986 C1985 1.379 . S
H1987 C1981 0.959 . S
H1988 C1981 0.961 . S
H1989 C1981 0.960 . S
H1990 C1982 0.930 . S
H1991 C1983 0.929 . S
H1992 C2000 0.929 . S
H1993 C2002 0.930 . S
H1994 C2004 0.930 . S
H1995 C2007 0.929 . S
H1996 C2010 0.930 . S
H1997 C2012 0.960 . S
H1998 C2012 0.960 . S
H1999 C2012 0.960 . S
C2000 H1992 0.929 . S
C2000 C2001 1.377 . S
C2000 C2002 1.384 . S
C2001 C2000 1.377 . S
C2001 C2007 1.390 . S
C2002 H1993 0.930 . S
C2002 C2000 1.384 . S
C2002 C2003 1.372 . S
C2003 C2002 1.372 . S
C2003 C2004 1.400 . S
C2003 C2008 1.490 . S
C2004 H1994 0.930 . S
C2004 C2003 1.400 . S
C2004 C2007 1.386 . S
H2005 C2021 0.930 . S
H2006 C2022 0.931 . S
C2007 H1995 0.929 . S
C2007 C2001 1.390 . S
C2007 C2004 1.386 . S
C2008 C2003 1.490 . S
C2008 C2010 1.395 . S
C2008 C2011 1.403 . S
H2009 C2015 0.930 . S
C2010 H1996 0.930 . S
C2010 C2008 1.395 . S
C2010 C2013 1.403 . S
C2011 C2008 1.403 . S
C2011 C2012 1.524 . S
C2011 C2015 1.400 . S
C2012 H1997 0.960 . S
C2012 H1998 0.960 . S
C2012 H1999 0.960 . S
C2012 C2011 1.524 . S
C2013 C2010 1.403 . S
C2013 C2014 1.392 . S
C2013 C2017 1.495 . S
C2014 C2013 1.392 . S
C2014 C2015 1.385 . S
C2014 C2016 1.478 . S
C2015 H2009 0.930 . S
C2015 C2011 1.400 . S
C2015 C2014 1.385 . S
C2016 C2014 1.478 . S
C2016 C2018 1.381 . S
C2016 C2022 1.383 . S
C2017 C2013 1.495 . S
C2017 H2023 0.959 . S
C2017 H2024 0.961 . S
C2017 H2025 0.960 . S
C2018 C2016 1.381 . S
C2018 C2019 1.394 . S
C2018 H2026 0.930 . S
C2019 C2018 1.394 . S
C2019 C2020 1.383 . S
C2019 H2027 0.929 . S
C2020 C2019 1.383 . S
C2020 C2021 1.377 . S
C2021 H2005 0.930 . S
C2021 C2020 1.377 . S
C2021 C2022 1.379 . S
C2022 H2006 0.931 . S
C2022 C2016 1.383 . S
C2022 C2021 1.379 . S
H2023 C2017 0.959 . S
H2024 C2017 0.961 . S
H2025 C2017 0.960 . S
H2026 C2018 0.930 . S
H2027 C2019 0.929 . S
H2028 C2036 0.929 . S
H2029 C2038 0.930 . S
H2030 C2040 0.930 . S
H2031 C2043 0.929 . S
H2032 C2046 0.930 . S
H2033 C2048 0.960 . S
H2034 C2048 0.960 . S
H2035 C2048 0.960 . S
C2036 H2028 0.929 . S
C2036 C2037 1.377 . S
C2036 C2038 1.384 . S
C2037 C2036 1.377 . S
C2037 C2043 1.390 . S
C2038 H2029 0.930 . S
C2038 C2036 1.384 . S
C2038 C2039 1.372 . S
C2039 C2038 1.372 . S
C2039 C2040 1.400 . S
C2039 C2044 1.490 . S
C2040 H2030 0.930 . S
C2040 C2039 1.400 . S
C2040 C2043 1.386 . S
H2041 C2057 0.930 . S
H2042 C2058 0.931 . S
C2043 H2031 0.929 . S
C2043 C2037 1.390 . S
C2043 C2040 1.386 . S
C2044 C2039 1.490 . S
C2044 C2046 1.395 . S
C2044 C2047 1.403 . S
H2045 C2051 0.930 . S
C2046 H2032 0.930 . S
C2046 C2044 1.395 . S
C2046 C2049 1.403 . S
C2047 C2044 1.403 . S
C2047 C2048 1.524 . S
C2047 C2051 1.400 . S
C2048 H2033 0.960 . S
C2048 H2034 0.960 . S
C2048 H2035 0.960 . S
C2048 C2047 1.524 . S
C2049 C2046 1.403 . S
C2049 C2050 1.392 . S
C2049 C2053 1.495 . S
C2050 C2049 1.392 . S
C2050 C2051 1.385 . S
C2050 C2052 1.478 . S
C2051 H2045 0.930 . S
C2051 C2047 1.400 . S
C2051 C2050 1.385 . S
C2052 C2050 1.478 . S
C2052 C2054 1.381 . S
C2052 C2058 1.383 . S
C2053 C2049 1.495 . S
C2053 H2059 0.959 . S
C2053 H2060 0.961 . S
C2053 H2061 0.960 . S
C2054 C2052 1.381 . S
C2054 C2055 1.394 . S
C2054 H2062 0.930 . S
C2055 C2054 1.394 . S
C2055 C2056 1.383 . S
C2055 H2063 0.929 . S
C2056 C2055 1.383 . S
C2056 C2057 1.377 . S
C2057 H2041 0.930 . S
C2057 C2056 1.377 . S
C2057 C2058 1.379 . S
C2058 H2042 0.931 . S
C2058 C2052 1.383 . S
C2058 C2057 1.379 . S
H2059 C2053 0.959 . S
H2060 C2053 0.961 . S
H2061 C2053 0.960 . S
H2062 C2054 0.930 . S
H2063 C2055 0.929 . S
H2064 C2072 0.929 . S
H2065 C2074 0.930 . S
H2066 C2076 0.930 . S
H2067 C2079 0.929 . S
H2068 C2082 0.930 . S
H2069 C2084 0.960 . S
H2070 C2084 0.960 . S
H2071 C2084 0.960 . S
C2072 H2064 0.929 . S
C2072 C2073 1.377 . S
C2072 C2074 1.384 . S
C2073 C2072 1.377 . S
C2073 C2079 1.390 . S
C2074 H2065 0.930 . S
C2074 C2072 1.384 . S
C2074 C2075 1.372 . S
C2075 C2074 1.372 . S
C2075 C2076 1.400 . S
C2075 C2080 1.490 . S
C2076 H2066 0.930 . S
C2076 C2075 1.400 . S
C2076 C2079 1.386 . S
H2077 C2093 0.930 . S
H2078 C2094 0.931 . S
C2079 H2067 0.929 . S
C2079 C2073 1.390 . S
C2079 C2076 1.386 . S
C2080 C2075 1.490 . S
C2080 C2082 1.395 . S
C2080 C2083 1.403 . S
H2081 C2087 0.930 . S
C2082 H2068 0.930 . S
C2082 C2080 1.395 . S
C2082 C2085 1.403 . S
C2083 C2080 1.403 . S
C2083 C2084 1.524 . S
C2083 C2087 1.400 . S
C2084 H2069 0.960 . S
C2084 H2070 0.960 . S
C2084 H2071 0.960 . S
C2084 C2083 1.524 . S
C2085 C2082 1.403 . S
C2085 C2086 1.392 . S
C2085 C2089 1.495 . S
C2086 C2085 1.392 . S
C2086 C2087 1.385 . S
C2086 C2088 1.478 . S
C2087 H2081 0.930 . S
C2087 C2083 1.400 . S
C2087 C2086 1.385 . S
C2088 C2086 1.478 . S
C2088 C2090 1.381 . S
C2088 C2094 1.383 . S
C2089 C2085 1.495 . S
C2089 H2095 0.959 . S
C2089 H2096 0.961 . S
C2089 H2097 0.960 . S
C2090 C2088 1.381 . S
C2090 C2091 1.394 . S
C2090 H2098 0.930 . S
C2091 C2090 1.394 . S
C2091 C2092 1.383 . S
C2091 H2099 0.929 . S
C2092 C2091 1.383 . S
C2092 C2093 1.377 . S
C2093 H2077 0.930 . S
C2093 C2092 1.377 . S
C2093 C2094 1.379 . S
C2094 H2078 0.931 . S
C2094 C2088 1.383 . S
C2094 C2093 1.379 . S
H2095 C2089 0.959 . S
H2096 C2089 0.961 . S
H2097 C2089 0.960 . S
H2098 C2090 0.930 . S
H2099 C2091 0.929 . S
H2100 C2108 0.929 . S
H2101 C2110 0.930 . S
H2102 C2112 0.930 . S
H2103 C2115 0.929 . S
H2104 C2118 0.930 . S
H2105 C2120 0.960 . S
H2106 C2120 0.960 . S
H2107 C2120 0.960 . S
C2108 H2100 0.929 . S
C2108 C2109 1.377 . S
C2108 C2110 1.384 . S
C2109 C2108 1.377 . S
C2109 C2115 1.390 . S
C2110 H2101 0.930 . S
C2110 C2108 1.384 . S
C2110 C2111 1.372 . S
C2111 C2110 1.372 . S
C2111 C2112 1.400 . S
C2111 C2116 1.490 . S
C2112 H2102 0.930 . S
C2112 C2111 1.400 . S
C2112 C2115 1.386 . S
H2113 C2129 0.930 . S
H2114 C2130 0.931 . S
C2115 H2103 0.929 . S
C2115 C2109 1.390 . S
C2115 C2112 1.386 . S
C2116 C2111 1.490 . S
C2116 C2118 1.395 . S
C2116 C2119 1.403 . S
H2117 C2123 0.930 . S
C2118 H2104 0.930 . S
C2118 C2116 1.395 . S
C2118 C2121 1.403 . S
C2119 C2116 1.403 . S
C2119 C2120 1.524 . S
C2119 C2123 1.400 . S
C2120 H2105 0.960 . S
C2120 H2106 0.960 . S
C2120 H2107 0.960 . S
C2120 C2119 1.524 . S
C2121 C2118 1.403 . S
C2121 C2122 1.392 . S
C2121 C2125 1.495 . S
C2122 C2121 1.392 . S
C2122 C2123 1.385 . S
C2122 C2124 1.478 . S
C2123 H2117 0.930 . S
C2123 C2119 1.400 . S
C2123 C2122 1.385 . S
C2124 C2122 1.478 . S
C2124 C2126 1.381 . S
C2124 C2130 1.383 . S
C2125 C2121 1.495 . S
C2125 H2131 0.959 . S
C2125 H2132 0.961 . S
C2125 H2133 0.960 . S
C2126 C2124 1.381 . S
C2126 C2127 1.394 . S
C2126 H2134 0.930 . S
C2127 C2126 1.394 . S
C2127 C2128 1.383 . S
C2127 H2135 0.929 . S
C2128 C2127 1.383 . S
C2128 C2129 1.377 . S
C2129 H2113 0.930 . S
C2129 C2128 1.377 . S
C2129 C2130 1.379 . S
C2130 H2114 0.931 . S
C2130 C2124 1.383 . S
C2130 C2129 1.379 . S
H2131 C2125 0.959 . S
H2132 C2125 0.961 . S
H2133 C2125 0.960 . S
H2134 C2126 0.930 . S
H2135 C2127 0.929 . S
H2136 C2144 0.929 . S
H2137 C2146 0.930 . S
H2138 C2148 0.930 . S
H2139 C2151 0.929 . S
H2140 C2154 0.930 . S
H2141 C2156 0.960 . S
H2142 C2156 0.960 . S
H2143 C2156 0.960 . S
C2144 H2136 0.929 . S
C2144 C2145 1.377 . S
C2144 C2146 1.384 . S
C2145 C2144 1.377 . S
C2145 C2151 1.390 . S
C2146 H2137 0.930 . S
C2146 C2144 1.384 . S
C2146 C2147 1.372 . S
C2147 C2146 1.372 . S
C2147 C2148 1.400 . S
C2147 C2152 1.490 . S
C2148 H2138 0.930 . S
C2148 C2147 1.400 . S
C2148 C2151 1.386 . S
H2149 C2165 0.930 . S
H2150 C2166 0.931 . S
C2151 H2139 0.929 . S
C2151 C2145 1.390 . S
C2151 C2148 1.386 . S
C2152 C2147 1.490 . S
C2152 C2154 1.395 . S
C2152 C2155 1.403 . S
H2153 C2159 0.930 . S
C2154 H2140 0.930 . S
C2154 C2152 1.395 . S
C2154 C2157 1.403 . S
C2155 C2152 1.403 . S
C2155 C2156 1.524 . S
C2155 C2159 1.400 . S
C2156 H2141 0.960 . S
C2156 H2142 0.960 . S
C2156 H2143 0.960 . S
C2156 C2155 1.524 . S
C2157 C2154 1.403 . S
C2157 C2158 1.392 . S
C2157 C2161 1.495 . S
C2158 C2157 1.392 . S
C2158 C2159 1.385 . S
C2158 C2160 1.478 . S
C2159 H2153 0.930 . S
C2159 C2155 1.400 . S
C2159 C2158 1.385 . S
C2160 C2158 1.478 . S
C2160 C2162 1.381 . S
C2160 C2166 1.383 . S
C2161 C2157 1.495 . S
C2161 H2167 0.959 . S
C2161 H2168 0.961 . S
C2161 H2169 0.960 . S
C2162 C2160 1.381 . S
C2162 C2163 1.394 . S
C2162 H2170 0.930 . S
C2163 C2162 1.394 . S
C2163 C2164 1.383 . S
C2163 H2171 0.929 . S
C2164 C2163 1.383 . S
C2164 C2165 1.377 . S
C2165 H2149 0.930 . S
C2165 C2164 1.377 . S
C2165 C2166 1.379 . S
C2166 H2150 0.931 . S
C2166 C2160 1.383 . S
C2166 C2165 1.379 . S
H2167 C2161 0.959 . S
H2168 C2161 0.961 . S
H2169 C2161 0.960 . S
H2170 C2162 0.930 . S
H2171 C2163 0.929 . S
H2172 C2180 0.929 . S
H2173 C2182 0.930 . S
H2174 C2184 0.930 . S
H2175 C2187 0.929 . S
H2176 C2190 0.930 . S
H2177 C2192 0.960 . S
H2178 C2192 0.960 . S
H2179 C2192 0.960 . S
C2180 H2172 0.929 . S
C2180 C2181 1.377 . S
C2180 C2182 1.384 . S
C2181 C2180 1.377 . S
C2181 C2187 1.390 . S
C2182 H2173 0.930 . S
C2182 C2180 1.384 . S
C2182 C2183 1.372 . S
C2183 C2182 1.372 . S
C2183 C2184 1.400 . S
C2183 C2188 1.490 . S
C2184 H2174 0.930 . S
C2184 C2183 1.400 . S
C2184 C2187 1.386 . S
H2185 C2201 0.930 . S
H2186 C2202 0.931 . S
C2187 H2175 0.929 . S
C2187 C2181 1.390 . S
C2187 C2184 1.386 . S
C2188 C2183 1.490 . S
C2188 C2190 1.395 . S
C2188 C2191 1.403 . S
H2189 C2195 0.930 . S
C2190 H2176 0.930 . S
C2190 C2188 1.395 . S
C2190 C2193 1.403 . S
C2191 C2188 1.403 . S
C2191 C2192 1.524 . S
C2191 C2195 1.400 . S
C2192 H2177 0.960 . S
C2192 H2178 0.960 . S
C2192 H2179 0.960 . S
C2192 C2191 1.524 . S
C2193 C2190 1.403 . S
C2193 C2194 1.392 . S
C2193 C2197 1.495 . S
C2194 C2193 1.392 . S
C2194 C2195 1.385 . S
C2194 C2196 1.478 . S
C2195 H2189 0.930 . S
C2195 C2191 1.400 . S
C2195 C2194 1.385 . S
C2196 C2194 1.478 . S
C2196 C2198 1.381 . S
C2196 C2202 1.383 . S
C2197 C2193 1.495 . S
C2197 H2203 0.959 . S
C2197 H2204 0.961 . S
C2197 H2205 0.960 . S
C2198 C2196 1.381 . S
C2198 C2199 1.394 . S
C2198 H2206 0.930 . S
C2199 C2198 1.394 . S
C2199 C2200 1.383 . S
C2199 H2207 0.929 . S
C2200 C2199 1.383 . S
C2200 C2201 1.377 . S
C2201 H2185 0.930 . S
C2201 C2200 1.377 . S
C2201 C2202 1.379 . S
C2202 H2186 0.931 . S
C2202 C2196 1.383 . S
C2202 C2201 1.379 . S
H2203 C2197 0.959 . S
H2204 C2197 0.961 . S
H2205 C2197 0.960 . S
H2206 C2198 0.930 . S
H2207 C2199 0.929 . S
H2208 C2216 0.929 . S
H2209 C2218 0.930 . S
H2210 C2220 0.930 . S
H2211 C2223 0.929 . S
H2212 C2226 0.930 . S
H2213 C2228 0.960 . S
H2214 C2228 0.960 . S
H2215 C2228 0.960 . S
C2216 H2208 0.929 . S
C2216 C2217 1.377 . S
C2216 C2218 1.384 . S
C2217 C2216 1.377 . S
C2217 C2223 1.390 . S
C2218 H2209 0.930 . S
C2218 C2216 1.384 . S
C2218 C2219 1.372 . S
C2219 C2218 1.372 . S
C2219 C2220 1.400 . S
C2219 C2224 1.490 . S
C2220 H2210 0.930 . S
C2220 C2219 1.400 . S
C2220 C2223 1.386 . S
H2221 C2237 0.930 . S
H2222 C2238 0.931 . S
C2223 H2211 0.929 . S
C2223 C2217 1.390 . S
C2223 C2220 1.386 . S
C2224 C2219 1.490 . S
C2224 C2226 1.395 . S
C2224 C2227 1.403 . S
H2225 C2231 0.930 . S
C2226 H2212 0.930 . S
C2226 C2224 1.395 . S
C2226 C2229 1.403 . S
C2227 C2224 1.403 . S
C2227 C2228 1.524 . S
C2227 C2231 1.400 . S
C2228 H2213 0.960 . S
C2228 H2214 0.960 . S
C2228 H2215 0.960 . S
C2228 C2227 1.524 . S
C2229 C2226 1.403 . S
C2229 C2230 1.392 . S
C2229 C2233 1.495 . S
C2230 C2229 1.392 . S
C2230 C2231 1.385 . S
C2230 C2232 1.478 . S
C2231 H2225 0.930 . S
C2231 C2227 1.400 . S
C2231 C2230 1.385 . S
C2232 C2230 1.478 . S
C2232 C2234 1.381 . S
C2232 C2238 1.383 . S
C2233 C2229 1.495 . S
C2233 H2239 0.959 . S
C2233 H2240 0.961 . S
C2233 H2241 0.960 . S
C2234 C2232 1.381 . S
C2234 C2235 1.394 . S
C2234 H2242 0.930 . S
C2235 C2234 1.394 . S
C2235 C2236 1.383 . S
C2235 H2243 0.929 . S
C2236 C2235 1.383 . S
C2236 C2237 1.377 . S
C2237 H2221 0.930 . S
C2237 C2236 1.377 . S
C2237 C2238 1.379 . S
C2238 H2222 0.931 . S
C2238 C2232 1.383 . S
C2238 C2237 1.379 . S
H2239 C2233 0.959 . S
H2240 C2233 0.961 . S
H2241 C2233 0.960 . S
H2242 C2234 0.930 . S
H2243 C2235 0.929 . S
H2244 C2252 0.929 . S
H2245 C2254 0.930 . S
H2246 C2256 0.930 . S
H2247 C2259 0.929 . S
H2248 C2262 0.930 . S
H2249 C2264 0.960 . S
H2250 C2264 0.960 . S
H2251 C2264 0.960 . S
C2252 H2244 0.929 . S
C2252 C2253 1.377 . S
C2252 C2254 1.384 . S
C2253 C2252 1.377 . S
C2253 C2259 1.390 . S
C2254 H2245 0.930 . S
C2254 C2252 1.384 . S
C2254 C2255 1.372 . S
C2255 C2254 1.372 . S
C2255 C2256 1.400 . S
C2255 C2260 1.490 . S
C2256 H2246 0.930 . S
C2256 C2255 1.400 . S
C2256 C2259 1.386 . S
H2257 C2273 0.930 . S
H2258 C2274 0.931 . S
C2259 H2247 0.929 . S
C2259 C2253 1.390 . S
C2259 C2256 1.386 . S
C2260 C2255 1.490 . S
C2260 C2262 1.395 . S
C2260 C2263 1.403 . S
H2261 C2267 0.930 . S
C2262 H2248 0.930 . S
C2262 C2260 1.395 . S
C2262 C2265 1.403 . S
C2263 C2260 1.403 . S
C2263 C2264 1.524 . S
C2263 C2267 1.400 . S
C2264 H2249 0.960 . S
C2264 H2250 0.960 . S
C2264 H2251 0.960 . S
C2264 C2263 1.524 . S
C2265 C2262 1.403 . S
C2265 C2266 1.392 . S
C2265 C2269 1.495 . S
C2266 C2265 1.392 . S
C2266 C2267 1.385 . S
C2266 C2268 1.478 . S
C2267 H2261 0.930 . S
C2267 C2263 1.400 . S
C2267 C2266 1.385 . S
C2268 C2266 1.478 . S
C2268 C2270 1.381 . S
C2268 C2274 1.383 . S
C2269 C2265 1.495 . S
C2269 H2275 0.959 . S
C2269 H2276 0.961 . S
C2269 H2277 0.960 . S
C2270 C2268 1.381 . S
C2270 C2271 1.394 . S
C2270 H2278 0.930 . S
C2271 C2270 1.394 . S
C2271 C2272 1.383 . S
C2271 H2279 0.929 . S
C2272 C2271 1.383 . S
C2272 C2273 1.377 . S
C2273 H2257 0.930 . S
C2273 C2272 1.377 . S
C2273 C2274 1.379 . S
C2274 H2258 0.931 . S
C2274 C2268 1.383 . S
C2274 C2273 1.379 . S
H2275 C2269 0.959 . S
H2276 C2269 0.961 . S
H2277 C2269 0.960 . S
H2278 C2270 0.930 . S
H2279 C2271 0.929 . S
H2280 C2288 0.929 . S
H2281 C2290 0.930 . S
H2282 C2292 0.930 . S
H2283 C2295 0.929 . S
H2284 C2298 0.930 . S
H2285 C2300 0.960 . S
H2286 C2300 0.960 . S
H2287 C2300 0.960 . S
C2288 H2280 0.929 . S
C2288 C2289 1.377 . S
C2288 C2290 1.384 . S
C2289 C2288 1.377 . S
C2289 C2295 1.390 . S
C2290 H2281 0.930 . S
C2290 C2288 1.384 . S
C2290 C2291 1.372 . S
C2291 C2290 1.372 . S
C2291 C2292 1.400 . S
C2291 C2296 1.490 . S
C2292 H2282 0.930 . S
C2292 C2291 1.400 . S
C2292 C2295 1.386 . S
H2293 C2309 0.930 . S
H2294 C2310 0.931 . S
C2295 H2283 0.929 . S
C2295 C2289 1.390 . S
C2295 C2292 1.386 . S
C2296 C2291 1.490 . S
C2296 C2298 1.395 . S
C2296 C2299 1.403 . S
H2297 C2303 0.930 . S
C2298 H2284 0.930 . S
C2298 C2296 1.395 . S
C2298 C2301 1.403 . S
C2299 C2296 1.403 . S
C2299 C2300 1.524 . S
C2299 C2303 1.400 . S
C2300 H2285 0.960 . S
C2300 H2286 0.960 . S
C2300 H2287 0.960 . S
C2300 C2299 1.524 . S
C2301 C2298 1.403 . S
C2301 C2302 1.392 . S
C2301 C2305 1.495 . S
C2302 C2301 1.392 . S
C2302 C2303 1.385 . S
C2302 C2304 1.478 . S
C2303 H2297 0.930 . S
C2303 C2299 1.400 . S
C2303 C2302 1.385 . S
C2304 C2302 1.478 . S
C2304 C2306 1.381 . S
C2304 C2310 1.383 . S
C2305 C2301 1.495 . S
C2305 H2311 0.959 . S
C2305 H2312 0.961 . S
C2305 H2313 0.960 . S
C2306 C2304 1.381 . S
C2306 C2307 1.394 . S
C2306 H2314 0.930 . S
C2307 C2306 1.394 . S
C2307 C2308 1.383 . S
C2307 H2315 0.929 . S
C2308 C2307 1.383 . S
C2308 C2309 1.377 . S
C2309 H2293 0.930 . S
C2309 C2308 1.377 . S
C2309 C2310 1.379 . S
C2310 H2294 0.931 . S
C2310 C2304 1.383 . S
C2310 C2309 1.379 . S
H2311 C2305 0.959 . S
H2312 C2305 0.961 . S
H2313 C2305 0.960 . S
H2314 C2306 0.930 . S
H2315 C2307 0.929 . S
H2316 C2324 0.929 . S
H2317 C2326 0.930 . S
H2318 C2328 0.930 . S
H2319 C2331 0.929 . S
H2320 C2334 0.963 . S
H2321 C2336 0.962 . S
H2322 C2336 0.959 1_554 S
H2323 C2336 0.957 1_554 S
C2324 H2316 0.929 . S
C2324 C2325 1.377 . S
C2324 C2326 1.384 . S
C2325 C2324 1.377 . S
C2325 C2331 1.390 . S
C2326 H2317 0.930 . S
C2326 C2324 1.384 . S
C2326 C2327 1.372 . S
C2327 C2326 1.372 . S
C2327 C2328 1.400 . S
C2327 C2332 1.490 . S
C2328 H2318 0.930 . S
C2328 C2327 1.400 . S
C2328 C2331 1.386 . S
H2329 C2345 0.930 . S
H2330 C2346 0.931 . S
C2331 H2319 0.929 . S
C2331 C2325 1.390 . S
C2331 C2328 1.386 . S
C2332 C2327 1.490 . S
C2332 C2334 1.395 1_554 S
C2332 C2335 1.403 1_554 S
H2333 C2339 0.930 . S
C2334 H2320 0.963 . S
C2334 C2332 1.395 1_556 S
C2334 C2337 1.403 . S
C2335 C2332 1.403 1_556 S
C2335 C2336 1.525 . S
C2335 C2339 1.400 . S
C2336 H2321 0.962 . S
C2336 H2322 0.959 1_556 S
C2336 H2323 0.957 1_556 S
C2336 C2335 1.525 . S
C2337 C2334 1.403 . S
C2337 C2338 1.392 . S
C2337 C2341 1.495 . S
C2338 C2337 1.392 . S
C2338 C2339 1.385 . S
C2338 C2340 1.478 . S
C2339 H2333 0.930 . S
C2339 C2335 1.400 . S
C2339 C2338 1.385 . S
C2340 C2338 1.478 . S
C2340 C2342 1.381 . S
C2340 C2346 1.383 . S
C2341 C2337 1.495 . S
C2341 H2347 0.959 . S
C2341 H2348 0.961 . S
C2341 H2349 0.960 . S
C2342 C2340 1.381 . S
C2342 C2343 1.394 . S
C2342 H2350 0.930 . S
C2343 C2342 1.394 . S
C2343 C2344 1.383 . S
C2343 H2351 0.929 . S
C2344 C2343 1.383 . S
C2344 C2345 1.377 . S
C2345 H2329 0.930 . S
C2345 C2344 1.377 . S
C2345 C2346 1.379 . S
C2346 H2330 0.931 . S
C2346 C2340 1.383 . S
C2346 C2345 1.379 . S
H2347 C2341 0.959 . S
H2348 C2341 0.961 . S
H2349 C2341 0.960 . S
H2350 C2342 0.930 . S
H2351 C2343 0.929 . S
H2352 C2360 0.929 . S
H2353 C2362 0.930 . S
H2354 C2364 0.930 . S
H2355 C2367 0.929 . S
H2356 C2370 0.930 . S
H2357 C2372 0.960 . S
H2358 C2372 0.960 . S
H2359 C2372 0.960 . S
C2360 H2352 0.929 . S
C2360 C2361 1.377 . S
C2360 C2362 1.384 . S
C2361 C2360 1.377 . S
C2361 C2367 1.390 . S
C2362 H2353 0.930 . S
C2362 C2360 1.384 . S
C2362 C2363 1.372 . S
C2363 C2362 1.372 . S
C2363 C2364 1.400 . S
C2363 C2368 1.490 . S
C2364 H2354 0.930 . S
C2364 C2363 1.400 . S
C2364 C2367 1.386 . S
H2365 C2381 0.930 . S
H2366 C2382 0.931 . S
C2367 H2355 0.929 . S
C2367 C2361 1.390 . S
C2367 C2364 1.386 . S
C2368 C2363 1.490 . S
C2368 C2370 1.395 . S
C2368 C2371 1.403 . S
H2369 C2375 0.930 . S
C2370 H2356 0.930 . S
C2370 C2368 1.395 . S
C2370 C2373 1.403 . S
C2371 C2368 1.403 . S
C2371 C2372 1.524 . S
C2371 C2375 1.400 . S
C2372 H2357 0.960 . S
C2372 H2358 0.960 . S
C2372 H2359 0.960 . S
C2372 C2371 1.524 . S
C2373 C2370 1.403 . S
C2373 C2374 1.392 . S
C2373 C2377 1.495 . S
C2374 C2373 1.392 . S
C2374 C2375 1.385 . S
C2374 C2376 1.478 . S
C2375 H2369 0.930 . S
C2375 C2371 1.400 . S
C2375 C2374 1.385 . S
C2376 C2374 1.478 . S
C2376 C2378 1.381 . S
C2376 C2382 1.383 . S
C2377 C2373 1.495 . S
C2377 H2383 0.959 . S
C2377 H2384 0.961 . S
C2377 H2385 0.960 . S
C2378 C2376 1.381 . S
C2378 C2379 1.394 . S
C2378 H2386 0.930 . S
C2379 C2378 1.394 . S
C2379 C2380 1.383 . S
C2379 H2387 0.929 . S
C2380 C2379 1.383 . S
C2380 C2381 1.377 . S
C2381 H2365 0.930 . S
C2381 C2380 1.377 . S
C2381 C2382 1.379 . S
C2382 H2366 0.931 . S
C2382 C2376 1.383 . S
C2382 C2381 1.379 . S
H2383 C2377 0.959 . S
H2384 C2377 0.961 . S
H2385 C2377 0.960 . S
H2386 C2378 0.930 . S
H2387 C2379 0.929 . S
H2388 C2396 0.929 . S
H2389 C2398 0.930 . S
H2390 C2400 0.930 . S
H2391 C2403 0.929 . S
H2392 C2406 0.930 . S
H2393 C2408 0.960 . S
H2394 C2408 0.960 . S
H2395 C2408 0.960 . S
C2396 H2388 0.929 . S
C2396 C2397 1.377 . S
C2396 C2398 1.384 . S
C2397 C2396 1.377 . S
C2397 C2403 1.390 . S
C2398 H2389 0.930 . S
C2398 C2396 1.384 . S
C2398 C2399 1.372 . S
C2399 C2398 1.372 . S
C2399 C2400 1.400 . S
C2399 C2404 1.490 . S
C2400 H2390 0.930 . S
C2400 C2399 1.400 . S
C2400 C2403 1.386 . S
H2401 C2417 0.930 . S
H2402 C2418 0.931 . S
C2403 H2391 0.929 . S
C2403 C2397 1.390 . S
C2403 C2400 1.386 . S
C2404 C2399 1.490 . S
C2404 C2406 1.395 . S
C2404 C2407 1.403 . S
H2405 C2411 0.930 . S
C2406 H2392 0.930 . S
C2406 C2404 1.395 . S
C2406 C2409 1.403 . S
C2407 C2404 1.403 . S
C2407 C2408 1.524 . S
C2407 C2411 1.400 . S
C2408 H2393 0.960 . S
C2408 H2394 0.960 . S
C2408 H2395 0.960 . S
C2408 C2407 1.524 . S
C2409 C2406 1.403 . S
C2409 C2410 1.392 1_554 S
C2409 C2413 1.495 1_554 S
C2410 C2409 1.392 1_556 S
C2410 C2411 1.385 1_556 S
C2410 C2412 1.478 . S
C2411 H2405 0.930 . S
C2411 C2407 1.400 . S
C2411 C2410 1.385 1_554 S
C2412 C2410 1.478 . S
C2412 C2414 1.381 . S
C2412 C2418 1.383 . S
C2413 C2409 1.495 1_556 S
C2413 H2419 0.959 1_556 S
C2413 H2420 0.961 . S
C2413 H2421 0.960 . S
C2414 C2412 1.381 . S
C2414 C2415 1.394 . S
C2414 H2422 0.930 . S
C2415 C2414 1.394 . S
C2415 C2416 1.383 . S
C2415 H2423 0.929 . S
C2416 C2415 1.383 . S
C2416 C2417 1.377 . S
C2417 H2401 0.930 . S
C2417 C2416 1.377 . S
C2417 C2418 1.379 . S
C2418 H2402 0.931 . S
C2418 C2412 1.383 . S
C2418 C2417 1.379 . S
H2419 C2413 0.959 1_554 S
H2420 C2413 0.961 . S
H2421 C2413 0.960 . S
H2422 C2414 0.930 . S
H2423 C2415 0.929 . S
H2424 C2432 0.929 . S
H2425 C2434 0.930 . S
H2426 C2436 0.930 . S
H2427 C2439 0.929 . S
H2428 C2442 0.930 . S
H2429 C2444 0.960 . S
H2430 C2444 0.960 . S
H2431 C2444 0.960 . S
C2432 H2424 0.929 . S
C2432 C2433 1.377 . S
C2432 C2434 1.384 . S
C2433 C2432 1.377 . S
C2433 C2439 1.390 . S
C2434 H2425 0.930 . S
C2434 C2432 1.384 . S
C2434 C2435 1.372 . S
C2435 C2434 1.372 . S
C2435 C2436 1.400 . S
C2435 C2440 1.490 . S
C2436 H2426 0.930 . S
C2436 C2435 1.400 . S
C2436 C2439 1.386 . S
H2437 C2453 0.930 . S
H2438 C2454 0.931 . S
C2439 H2427 0.929 . S
C2439 C2433 1.390 . S
C2439 C2436 1.386 . S
C2440 C2435 1.490 . S
C2440 C2442 1.395 . S
C2440 C2443 1.403 . S
H2441 C2447 0.930 . S
C2442 H2428 0.930 . S
C2442 C2440 1.395 . S
C2442 C2445 1.403 . S
C2443 C2440 1.403 . S
C2443 C2444 1.524 . S
C2443 C2447 1.400 . S
C2444 H2429 0.960 . S
C2444 H2430 0.960 . S
C2444 H2431 0.960 . S
C2444 C2443 1.524 . S
C2445 C2442 1.403 . S
C2445 C2446 1.392 . S
C2445 C2449 1.495 . S
C2446 C2445 1.392 . S
C2446 C2447 1.385 . S
C2446 C2448 1.478 . S
C2447 H2441 0.930 . S
C2447 C2443 1.400 . S
C2447 C2446 1.385 . S
C2448 C2446 1.478 . S
C2448 C2450 1.381 . S
C2448 C2454 1.383 . S
C2449 C2445 1.495 . S
C2449 H2455 0.959 . S
C2449 H2456 0.961 . S
C2449 H2457 0.960 . S
C2450 C2448 1.381 . S
C2450 C2451 1.394 . S
C2450 H2458 0.930 . S
C2451 C2450 1.394 . S
C2451 C2452 1.383 . S
C2451 H2459 0.929 . S
C2452 C2451 1.383 . S
C2452 C2453 1.377 . S
C2453 H2437 0.930 . S
C2453 C2452 1.377 . S
C2453 C2454 1.379 . S
C2454 H2438 0.931 . S
C2454 C2448 1.383 . S
C2454 C2453 1.379 . S
H2455 C2449 0.959 . S
H2456 C2449 0.961 . S
H2457 C2449 0.960 . S
H2458 C2450 0.930 . S
H2459 C2451 0.929 . S
H2460 C2468 0.929 . S
H2461 C2470 0.930 . S
H2462 C2472 0.930 . S
H2463 C2475 0.929 . S
H2464 C2478 0.930 . S
H2465 C2480 0.960 . S
H2466 C2480 0.960 . S
H2467 C2480 0.960 . S
C2468 H2460 0.929 . S
C2468 C2469 1.377 . S
C2468 C2470 1.384 . S
C2469 C2468 1.377 . S
C2469 C2475 1.390 . S
C2470 H2461 0.930 . S
C2470 C2468 1.384 . S
C2470 C2471 1.372 . S
C2471 C2470 1.372 . S
C2471 C2472 1.400 . S
C2471 C2476 1.490 . S
C2472 H2462 0.930 . S
C2472 C2471 1.400 . S
C2472 C2475 1.386 . S
H2473 C2489 0.930 . S
H2474 C2490 0.931 . S
C2475 H2463 0.929 . S
C2475 C2469 1.390 . S
C2475 C2472 1.386 . S
C2476 C2471 1.490 . S
C2476 C2478 1.395 1_655 S
C2476 C2479 1.403 1_655 S
H2477 C2483 0.930 . S
C2478 H2464 0.930 . S
C2478 C2476 1.395 1_455 S
C2478 C2481 1.403 . S
C2479 C2476 1.403 1_455 S
C2479 C2480 1.524 1_455 S
C2479 C2483 1.400 . S
C2480 H2465 0.960 . S
C2480 H2466 0.960 . S
C2480 H2467 0.960 . S
C2480 C2479 1.524 1_655 S
C2481 C2478 1.403 . S
C2481 C2482 1.392 . S
C2481 C2485 1.495 . S
C2482 C2481 1.392 . S
C2482 C2483 1.385 . S
C2482 C2484 1.478 . S
C2483 H2477 0.930 . S
C2483 C2479 1.400 . S
C2483 C2482 1.385 . S
C2484 C2482 1.478 . S
C2484 C2486 1.381 . S
C2484 C2490 1.383 . S
C2485 C2481 1.495 . S
C2485 H2491 0.959 . S
C2485 H2492 0.961 . S
C2485 H2493 0.960 . S
C2486 C2484 1.381 . S
C2486 C2487 1.394 . S
C2486 H2494 0.930 . S
C2487 C2486 1.394 . S
C2487 C2488 1.383 . S
C2487 H2495 0.929 . S
C2488 C2487 1.383 . S
C2488 C2489 1.377 . S
C2489 H2473 0.930 . S
C2489 C2488 1.377 . S
C2489 C2490 1.379 . S
C2490 H2474 0.931 . S
C2490 C2484 1.383 . S
C2490 C2489 1.379 . S
H2491 C2485 0.959 . S
H2492 C2485 0.961 . S
H2493 C2485 0.960 . S
H2494 C2486 0.930 . S
H2495 C2487 0.929 . S
H2496 C2504 0.929 . S
H2497 C2506 0.930 . S
H2498 C2508 0.930 . S
H2499 C2511 0.929 . S
H2500 C2514 0.930 1_455 S
H2501 C2516 0.960 . S
H2502 C2516 0.960 1_455 S
H2503 C2516 0.960 1_455 S
C2504 H2496 0.929 . S
C2504 C2505 1.377 . S
C2504 C2506 1.384 . S
C2505 C2504 1.377 . S
C2505 C2511 1.390 . S
C2506 H2497 0.930 . S
C2506 C2504 1.384 . S
C2506 C2507 1.372 . S
C2507 C2506 1.372 . S
C2507 C2508 1.400 . S
C2507 C2512 1.490 . S
C2508 H2498 0.930 . S
C2508 C2507 1.400 . S
C2508 C2511 1.386 . S
H2509 C2525 0.930 . S
H2510 C2526 0.931 . S
C2511 H2499 0.929 . S
C2511 C2505 1.390 . S
C2511 C2508 1.386 . S
C2512 C2507 1.490 . S
C2512 C2514 1.395 1_455 S
C2512 C2515 1.403 1_455 S
H2513 C2519 0.930 . S
C2514 H2500 0.930 1_655 S
C2514 C2512 1.395 1_655 S
C2514 C2517 1.403 . S
C2515 C2512 1.403 1_655 S
C2515 C2516 1.524 . S
C2515 C2519 1.400 . S
C2516 H2501 0.960 . S
C2516 H2502 0.960 1_655 S
C2516 H2503 0.960 1_655 S
C2516 C2515 1.524 . S
C2517 C2514 1.403 . S
C2517 C2518 1.392 . S
C2517 C2521 1.495 . S
C2518 C2517 1.392 . S
C2518 C2519 1.385 . S
C2518 C2520 1.478 . S
C2519 H2513 0.930 . S
C2519 C2515 1.400 . S
C2519 C2518 1.385 . S
C2520 C2518 1.478 . S
C2520 C2522 1.381 . S
C2520 C2526 1.383 . S
C2521 C2517 1.495 . S
C2521 H2527 0.959 . S
C2521 H2528 0.961 . S
C2521 H2529 0.960 . S
C2522 C2520 1.381 . S
C2522 C2523 1.394 . S
C2522 H2530 0.930 . S
C2523 C2522 1.394 . S
C2523 C2524 1.383 . S
C2523 H2531 0.929 . S
C2524 C2523 1.383 . S
C2524 C2525 1.377 . S
C2525 H2509 0.930 . S
C2525 C2524 1.377 . S
C2525 C2526 1.379 . S
C2526 H2510 0.931 . S
C2526 C2520 1.383 . S
C2526 C2525 1.379 . S
H2527 C2521 0.959 . S
H2528 C2521 0.961 . S
H2529 C2521 0.960 . S
H2530 C2522 0.930 . S
H2531 C2523 0.929 . S
H2532 C2540 0.929 . S
H2533 C2542 0.930 . S
H2534 C2544 0.930 . S
H2535 C2547 0.929 . S
H2536 C2550 0.930 . S
H2537 C2552 0.960 . S
H2538 C2552 0.960 . S
H2539 C2552 0.960 . S
C2540 H2532 0.929 . S
C2540 C2541 1.377 . S
C2540 C2542 1.384 . S
C2541 C2540 1.377 . S
C2541 C2547 1.390 . S
C2542 H2533 0.930 . S
C2542 C2540 1.384 . S
C2542 C2543 1.372 . S
C2543 C2542 1.372 . S
C2543 C2544 1.400 . S
C2543 C2548 1.490 . S
C2544 H2534 0.930 . S
C2544 C2543 1.400 . S
C2544 C2547 1.386 . S
H2545 C2561 0.930 . S
H2546 C2562 0.931 . S
C2547 H2535 0.929 . S
C2547 C2541 1.390 . S
C2547 C2544 1.386 . S
C2548 C2543 1.490 . S
C2548 C2550 1.395 . S
C2548 C2551 1.403 . S
H2549 C2555 0.930 . S
C2550 H2536 0.930 . S
C2550 C2548 1.395 . S
C2550 C2553 1.403 . S
C2551 C2548 1.403 . S
C2551 C2552 1.524 . S
C2551 C2555 1.400 . S
C2552 H2537 0.960 . S
C2552 H2538 0.960 . S
C2552 H2539 0.960 . S
C2552 C2551 1.524 . S
C2553 C2550 1.403 . S
C2553 C2554 1.392 . S
C2553 C2557 1.495 . S
C2554 C2553 1.392 . S
C2554 C2555 1.385 . S
C2554 C2556 1.478 . S
C2555 H2549 0.930 . S
C2555 C2551 1.400 . S
C2555 C2554 1.385 . S
C2556 C2554 1.478 . S
C2556 C2558 1.381 . S
C2556 C2562 1.383 . S
C2557 C2553 1.495 . S
C2557 H2563 0.959 . S
C2557 H2564 0.961 . S
C2557 H2565 0.960 . S
C2558 C2556 1.381 . S
C2558 C2559 1.394 . S
C2558 H2566 0.930 . S
C2559 C2558 1.394 . S
C2559 C2560 1.383 . S
C2559 H2567 0.929 . S
C2560 C2559 1.383 . S
C2560 C2561 1.377 . S
C2561 H2545 0.930 . S
C2561 C2560 1.377 . S
C2561 C2562 1.379 . S
C2562 H2546 0.931 . S
C2562 C2556 1.383 . S
C2562 C2561 1.379 . S
H2563 C2557 0.959 . S
H2564 C2557 0.961 . S
H2565 C2557 0.960 . S
H2566 C2558 0.930 . S
H2567 C2559 0.929 . S
H2568 C2576 0.929 . S
H2569 C2578 0.930 . S
H2570 C2580 0.930 . S
H2571 C2583 0.929 . S
H2572 C2586 0.930 . S
H2573 C2588 0.960 . S
H2574 C2588 0.960 . S
H2575 C2588 0.960 . S
C2576 H2568 0.929 . S
C2576 C2577 1.377 . S
C2576 C2578 1.384 . S
C2577 C2576 1.377 . S
C2577 C2583 1.390 . S
C2578 H2569 0.930 . S
C2578 C2576 1.384 . S
C2578 C2579 1.372 . S
C2579 C2578 1.372 . S
C2579 C2580 1.400 . S
C2579 C2584 1.490 . S
C2580 H2570 0.930 . S
C2580 C2579 1.400 . S
C2580 C2583 1.386 . S
H2581 C2597 0.930 . S
H2582 C2598 0.931 . S
C2583 H2571 0.929 . S
C2583 C2577 1.390 . S
C2583 C2580 1.386 . S
C2584 C2579 1.490 . S
C2584 C2586 1.395 . S
C2584 C2587 1.403 . S
H2585 C2591 0.930 . S
C2586 H2572 0.930 . S
C2586 C2584 1.395 . S
C2586 C2589 1.403 . S
C2587 C2584 1.403 . S
C2587 C2588 1.524 . S
C2587 C2591 1.400 . S
C2588 H2573 0.960 . S
C2588 H2574 0.960 . S
C2588 H2575 0.960 . S
C2588 C2587 1.524 . S
C2589 C2586 1.403 . S
C2589 C2590 1.392 . S
C2589 C2593 1.495 . S
C2590 C2589 1.392 . S
C2590 C2591 1.385 . S
C2590 C2592 1.478 . S
C2591 H2585 0.930 . S
C2591 C2587 1.400 . S
C2591 C2590 1.385 . S
C2592 C2590 1.478 . S
C2592 C2594 1.381 . S
C2592 C2598 1.383 . S
C2593 C2589 1.495 . S
C2593 H2599 0.959 . S
C2593 H2600 0.961 . S
C2593 H2601 0.960 . S
C2594 C2592 1.381 . S
C2594 C2595 1.394 . S
C2594 H2602 0.930 . S
C2595 C2594 1.394 . S
C2595 C2596 1.383 . S
C2595 H2603 0.929 . S
C2596 C2595 1.383 . S
C2596 C2597 1.377 . S
C2597 H2581 0.930 . S
C2597 C2596 1.377 . S
C2597 C2598 1.379 . S
C2598 H2582 0.931 . S
C2598 C2592 1.383 . S
C2598 C2597 1.379 . S
H2599 C2593 0.959 . S
H2600 C2593 0.961 . S
H2601 C2593 0.960 . S
H2602 C2594 0.930 . S
H2603 C2595 0.929 . S
H2604 C2612 0.929 . S
H2605 C2614 0.930 . S
H2606 C2616 0.930 . S
H2607 C2619 0.929 . S
H2608 C2622 0.930 1_565 S
H2609 C2624 0.960 . S
H2610 C2624 0.960 1_565 S
H2611 C2624 0.960 1_565 S
C2612 H2604 0.929 . S
C2612 C2613 1.377 . S
C2612 C2614 1.384 . S
C2613 C2612 1.377 . S
C2613 C2619 1.390 . S
C2614 H2605 0.930 . S
C2614 C2612 1.384 . S
C2614 C2615 1.372 . S
C2615 C2614 1.372 . S
C2615 C2616 1.400 . S
C2615 C2620 1.490 . S
C2616 H2606 0.930 . S
C2616 C2615 1.400 . S
C2616 C2619 1.386 . S
H2617 C2633 0.930 . S
H2618 C2634 0.931 . S
C2619 H2607 0.929 . S
C2619 C2613 1.390 . S
C2619 C2616 1.386 . S
C2620 C2615 1.490 . S
C2620 C2622 1.395 1_565 S
C2620 C2623 1.403 1_565 S
H2621 C2627 0.930 . S
C2622 H2608 0.930 1_545 S
C2622 C2620 1.395 1_545 S
C2622 C2625 1.403 . S
C2623 C2620 1.403 1_545 S
C2623 C2624 1.524 . S
C2623 C2627 1.400 . S
C2624 H2609 0.960 . S
C2624 H2610 0.960 1_545 S
C2624 H2611 0.960 1_545 S
C2624 C2623 1.524 . S
C2625 C2622 1.403 . S
C2625 C2626 1.392 . S
C2625 C2629 1.495 . S
C2626 C2625 1.392 . S
C2626 C2627 1.385 . S
C2626 C2628 1.478 . S
C2627 H2621 0.930 . S
C2627 C2623 1.400 . S
C2627 C2626 1.385 . S
C2628 C2626 1.478 . S
C2628 C2630 1.381 . S
C2628 C2634 1.383 . S
C2629 C2625 1.495 . S
C2629 H2635 0.959 . S
C2629 H2636 0.961 . S
C2629 H2637 0.960 . S
C2630 C2628 1.381 . S
C2630 C2631 1.394 . S
C2630 H2638 0.930 . S
C2631 C2630 1.394 . S
C2631 C2632 1.383 . S
C2631 H2639 0.929 . S
C2632 C2631 1.383 . S
C2632 C2633 1.377 . S
C2633 H2617 0.930 . S
C2633 C2632 1.377 . S
C2633 C2634 1.379 . S
C2634 H2618 0.931 . S
C2634 C2628 1.383 . S
C2634 C2633 1.379 . S
H2635 C2629 0.959 . S
H2636 C2629 0.961 . S
H2637 C2629 0.960 . S
H2638 C2630 0.930 . S
H2639 C2631 0.929 . S
H2640 C2648 0.929 . S
H2641 C2650 0.930 . S
H2642 C2652 0.930 . S
H2643 C2655 0.929 . S
H2644 C2658 0.930 . S
H2645 C2660 0.960 . S
H2646 C2660 0.960 . S
H2647 C2660 0.960 . S
C2648 H2640 0.929 . S
C2648 C2649 1.377 . S
C2648 C2650 1.384 . S
C2649 C2648 1.377 . S
C2649 C2655 1.390 . S
C2650 H2641 0.930 . S
C2650 C2648 1.384 . S
C2650 C2651 1.372 . S
C2651 C2650 1.372 . S
C2651 C2652 1.400 . S
C2651 C2656 1.490 . S
C2652 H2642 0.930 . S
C2652 C2651 1.400 . S
C2652 C2655 1.386 . S
H2653 C2669 0.930 . S
H2654 C2670 0.931 . S
C2655 H2643 0.929 . S
C2655 C2649 1.390 . S
C2655 C2652 1.386 . S
C2656 C2651 1.490 . S
C2656 C2658 1.395 1_545 S
C2656 C2659 1.403 1_545 S
H2657 C2663 0.930 . S
C2658 H2644 0.930 . S
C2658 C2656 1.395 1_565 S
C2658 C2661 1.403 . S
C2659 C2656 1.403 1_565 S
C2659 C2660 1.524 1_565 S
C2659 C2663 1.400 . S
C2660 H2645 0.960 . S
C2660 H2646 0.960 . S
C2660 H2647 0.960 . S
C2660 C2659 1.524 1_545 S
C2661 C2658 1.403 . S
C2661 C2662 1.392 . S
C2661 C2665 1.495 . S
C2662 C2661 1.392 . S
C2662 C2663 1.385 . S
C2662 C2664 1.478 . S
C2663 H2657 0.930 . S
C2663 C2659 1.400 . S
C2663 C2662 1.385 . S
C2664 C2662 1.478 . S
C2664 C2666 1.381 . S
C2664 C2670 1.383 . S
C2665 C2661 1.495 . S
C2665 H2671 0.959 . S
C2665 H2672 0.961 . S
C2665 H2673 0.960 . S
C2666 C2664 1.381 . S
C2666 C2667 1.394 . S
C2666 H2674 0.930 . S
C2667 C2666 1.394 . S
C2667 C2668 1.383 . S
C2667 H2675 0.929 . S
C2668 C2667 1.383 . S
C2668 C2669 1.377 . S
C2669 H2653 0.930 . S
C2669 C2668 1.377 . S
C2669 C2670 1.379 . S
C2670 H2654 0.931 . S
C2670 C2664 1.383 . S
C2670 C2669 1.379 . S
H2671 C2665 0.959 . S
H2672 C2665 0.961 . S
H2673 C2665 0.960 . S
H2674 C2666 0.930 . S
H2675 C2667 0.929 . S
H2676 C2684 0.929 . S
H2677 C2686 0.930 . S
H2678 C2688 0.930 . S
H2679 C2691 0.929 . S
H2680 C2694 0.930 . S
H2681 C2696 0.960 . S
H2682 C2696 0.960 . S
H2683 C2696 0.960 . S
C2684 H2676 0.929 . S
C2684 C2685 1.377 . S
C2684 C2686 1.384 . S
C2685 C2684 1.377 . S
C2685 C2691 1.390 . S
C2686 H2677 0.930 . S
C2686 C2684 1.384 . S
C2686 C2687 1.372 . S
C2687 C2686 1.372 . S
C2687 C2688 1.400 . S
C2687 C2692 1.490 . S
C2688 H2678 0.930 . S
C2688 C2687 1.400 . S
C2688 C2691 1.386 . S
H2689 C2705 0.930 . S
H2690 C2706 0.931 . S
C2691 H2679 0.929 . S
C2691 C2685 1.390 . S
C2691 C2688 1.386 . S
C2692 C2687 1.490 . S
C2692 C2694 1.395 . S
C2692 C2695 1.403 . S
H2693 C2699 0.930 . S
C2694 H2680 0.930 . S
C2694 C2692 1.395 . S
C2694 C2697 1.403 . S
C2695 C2692 1.403 . S
C2695 C2696 1.524 . S
C2695 C2699 1.400 . S
C2696 H2681 0.960 . S
C2696 H2682 0.960 . S
C2696 H2683 0.960 . S
C2696 C2695 1.524 . S
C2697 C2694 1.403 . S
C2697 C2698 1.392 . S
C2697 C2701 1.495 . S
C2698 C2697 1.392 . S
C2698 C2699 1.385 . S
C2698 C2700 1.478 . S
C2699 H2693 0.930 . S
C2699 C2695 1.400 . S
C2699 C2698 1.385 . S
C2700 C2698 1.478 . S
C2700 C2702 1.381 . S
C2700 C2706 1.383 . S
C2701 C2697 1.495 . S
C2701 H2707 0.959 . S
C2701 H2708 0.961 . S
C2701 H2709 0.960 . S
C2702 C2700 1.381 . S
C2702 C2703 1.394 . S
C2702 H2710 0.930 . S
C2703 C2702 1.394 . S
C2703 C2704 1.383 . S
C2703 H2711 0.929 . S
C2704 C2703 1.383 . S
C2704 C2705 1.377 . S
C2705 H2689 0.930 . S
C2705 C2704 1.377 . S
C2705 C2706 1.379 . S
C2706 H2690 0.931 . S
C2706 C2700 1.383 . S
C2706 C2705 1.379 . S
H2707 C2701 0.959 . S
H2708 C2701 0.961 . S
H2709 C2701 0.960 . S
H2710 C2702 0.930 . S
H2711 C2703 0.929 . S
H2712 C2720 0.929 . S
H2713 C2722 0.930 . S
H2714 C2724 0.930 . S
H2715 C2727 0.929 . S
H2716 C2730 0.930 . S
H2717 C2732 0.960 . S
H2718 C2732 0.960 . S
H2719 C2732 0.960 . S
C2720 H2712 0.929 . S
C2720 C2721 1.377 . S
C2720 C2722 1.384 . S
C2721 C2720 1.377 . S
C2721 C2727 1.390 . S
C2722 H2713 0.930 . S
C2722 C2720 1.384 . S
C2722 C2723 1.372 . S
C2723 C2722 1.372 . S
C2723 C2724 1.400 . S
C2723 C2728 1.490 . S
C2724 H2714 0.930 . S
C2724 C2723 1.400 . S
C2724 C2727 1.386 . S
H2725 C2741 0.930 . S
H2726 C2742 0.931 . S
C2727 H2715 0.929 . S
C2727 C2721 1.390 . S
C2727 C2724 1.386 . S
C2728 C2723 1.490 . S
C2728 C2730 1.395 . S
C2728 C2731 1.403 . S
H2729 C2735 0.930 . S
C2730 H2716 0.930 . S
C2730 C2728 1.395 . S
C2730 C2733 1.403 . S
C2731 C2728 1.403 . S
C2731 C2732 1.524 . S
C2731 C2735 1.400 . S
C2732 H2717 0.960 . S
C2732 H2718 0.960 . S
C2732 H2719 0.960 . S
C2732 C2731 1.524 . S
C2733 C2730 1.403 . S
C2733 C2734 1.392 . S
C2733 C2737 1.495 . S
C2734 C2733 1.392 . S
C2734 C2735 1.385 . S
C2734 C2736 1.478 . S
C2735 H2729 0.930 . S
C2735 C2731 1.400 . S
C2735 C2734 1.385 . S
C2736 C2734 1.478 . S
C2736 C2738 1.381 . S
C2736 C2742 1.383 . S
C2737 C2733 1.495 . S
C2737 H2743 0.959 . S
C2737 H2744 0.961 . S
C2737 H2745 0.960 . S
C2738 C2736 1.381 . S
C2738 C2739 1.394 . S
C2738 H2746 0.930 . S
C2739 C2738 1.394 . S
C2739 C2740 1.383 . S
C2739 H2747 0.929 . S
C2740 C2739 1.383 . S
C2740 C2741 1.377 . S
C2741 H2725 0.930 . S
C2741 C2740 1.377 . S
C2741 C2742 1.379 . S
C2742 H2726 0.931 . S
C2742 C2736 1.383 . S
C2742 C2741 1.379 . S
H2743 C2737 0.959 . S
H2744 C2737 0.961 . S
H2745 C2737 0.960 . S
H2746 C2738 0.930 . S
H2747 C2739 0.929 . S
H2748 C2756 0.929 . S
H2749 C2758 0.930 . S
H2750 C2760 0.930 . S
H2751 C2763 0.929 . S
H2752 C2766 0.930 1_556 S
H2753 C2768 0.960 . S
H2754 C2768 0.960 . S
H2755 C2768 0.960 . S
C2756 H2748 0.929 . S
C2756 C2757 1.377 . S
C2756 C2758 1.384 . S
C2757 C2756 1.377 . S
C2757 C2763 1.390 . S
C2758 H2749 0.930 . S
C2758 C2756 1.384 . S
C2758 C2759 1.372 . S
C2759 C2758 1.372 . S
C2759 C2760 1.400 . S
C2759 C2764 1.490 . S
C2760 H2750 0.930 . S
C2760 C2759 1.400 . S
C2760 C2763 1.386 . S
H2761 C2777 0.930 . S
H2762 C2778 0.931 . S
C2763 H2751 0.929 . S
C2763 C2757 1.390 . S
C2763 C2760 1.386 . S
C2764 C2759 1.490 . S
C2764 C2766 1.395 1_556 S
C2764 C2767 1.403 1_556 S
H2765 C2771 0.930 . S
C2766 H2752 0.930 1_554 S
C2766 C2764 1.395 1_554 S
C2766 C2769 1.403 . S
C2767 C2764 1.403 1_554 S
C2767 C2768 1.524 . S
C2767 C2771 1.400 . S
C2768 H2753 0.960 . S
C2768 H2754 0.960 . S
C2768 H2755 0.960 . S
C2768 C2767 1.524 . S
C2769 C2766 1.403 . S
C2769 C2770 1.392 . S
C2769 C2773 1.495 . S
C2770 C2769 1.392 . S
C2770 C2771 1.385 . S
C2770 C2772 1.478 . S
C2771 H2765 0.930 . S
C2771 C2767 1.400 . S
C2771 C2770 1.385 . S
C2772 C2770 1.478 . S
C2772 C2774 1.381 . S
C2772 C2778 1.383 . S
C2773 C2769 1.495 . S
C2773 H2779 0.959 . S
C2773 H2780 0.961 . S
C2773 H2781 0.960 . S
C2774 C2772 1.381 . S
C2774 C2775 1.394 . S
C2774 H2782 0.930 . S
C2775 C2774 1.394 . S
C2775 C2776 1.383 . S
C2775 H2783 0.929 . S
C2776 C2775 1.383 . S
C2776 C2777 1.377 . S
C2777 H2761 0.930 . S
C2777 C2776 1.377 . S
C2777 C2778 1.379 . S
C2778 H2762 0.931 . S
C2778 C2772 1.383 . S
C2778 C2777 1.379 . S
H2779 C2773 0.959 . S
H2780 C2773 0.961 . S
H2781 C2773 0.960 . S
H2782 C2774 0.930 . S
H2783 C2775 0.929 . S
H2784 C2792 0.929 . S
H2785 C2794 0.930 . S
H2786 C2796 0.930 . S
H2787 C2799 0.929 . S
H2788 C2802 0.930 . S
H2789 C2804 0.960 . S
H2790 C2804 0.960 . S
H2791 C2804 0.960 . S
C2792 H2784 0.929 . S
C2792 C2793 1.377 . S
C2792 C2794 1.384 . S
C2793 C2792 1.377 . S
C2793 C2799 1.390 . S
C2794 H2785 0.930 . S
C2794 C2792 1.384 . S
C2794 C2795 1.372 . S
C2795 C2794 1.372 . S
C2795 C2796 1.400 . S
C2795 C2800 1.490 . S
C2796 H2786 0.930 . S
C2796 C2795 1.400 . S
C2796 C2799 1.386 . S
H2797 C2813 0.930 . S
H2798 C2814 0.931 . S
C2799 H2787 0.929 . S
C2799 C2793 1.390 . S
C2799 C2796 1.386 . S
C2800 C2795 1.490 . S
C2800 C2802 1.395 . S
C2800 C2803 1.403 . S
H2801 C2807 0.930 . S
C2802 H2788 0.930 . S
C2802 C2800 1.395 . S
C2802 C2805 1.403 . S
C2803 C2800 1.403 . S
C2803 C2804 1.524 . S
C2803 C2807 1.400 . S
C2804 H2789 0.960 . S
C2804 H2790 0.960 . S
C2804 H2791 0.960 . S
C2804 C2803 1.524 . S
C2805 C2802 1.403 . S
C2805 C2806 1.392 . S
C2805 C2809 1.495 . S
C2806 C2805 1.392 . S
C2806 C2807 1.385 . S
C2806 C2808 1.478 . S
C2807 H2801 0.930 . S
C2807 C2803 1.400 . S
C2807 C2806 1.385 . S
C2808 C2806 1.478 . S
C2808 C2810 1.381 . S
C2808 C2814 1.383 . S
C2809 C2805 1.495 . S
C2809 H2815 0.959 . S
C2809 H2816 0.961 . S
C2809 H2817 0.960 . S
C2810 C2808 1.381 . S
C2810 C2811 1.394 . S
C2810 H2818 0.930 . S
C2811 C2810 1.394 . S
C2811 C2812 1.383 . S
C2811 H2819 0.929 . S
C2812 C2811 1.383 . S
C2812 C2813 1.377 . S
C2813 H2797 0.930 . S
C2813 C2812 1.377 . S
C2813 C2814 1.379 . S
C2814 H2798 0.931 . S
C2814 C2808 1.383 . S
C2814 C2813 1.379 . S
H2815 C2809 0.959 . S
H2816 C2809 0.961 . S
H2817 C2809 0.960 . S
H2818 C2810 0.930 . S
H2819 C2811 0.929 . S
H2820 C2828 0.929 . S
H2821 C2830 0.930 . S
H2822 C2832 0.930 . S
H2823 C2835 0.929 . S
H2824 C2838 0.930 . S
H2825 C2840 0.960 1_556 S
H2826 C2840 0.960 . S
H2827 C2840 0.960 . S
C2828 H2820 0.929 . S
C2828 C2829 1.377 . S
C2828 C2830 1.384 . S
C2829 C2828 1.377 . S
C2829 C2835 1.390 . S
C2830 H2821 0.930 . S
C2830 C2828 1.384 . S
C2830 C2831 1.372 . S
C2831 C2830 1.372 . S
C2831 C2832 1.400 . S
C2831 C2836 1.490 . S
C2832 H2822 0.930 . S
C2832 C2831 1.400 . S
C2832 C2835 1.386 . S
H2833 C2849 0.930 . S
H2834 C2850 0.931 . S
C2835 H2823 0.929 . S
C2835 C2829 1.390 . S
C2835 C2832 1.386 . S
C2836 C2831 1.490 . S
C2836 C2838 1.395 1_554 S
C2836 C2839 1.403 1_554 S
H2837 C2843 0.930 . S
C2838 H2824 0.930 . S
C2838 C2836 1.395 1_556 S
C2838 C2841 1.403 . S
C2839 C2836 1.403 1_556 S
C2839 C2840 1.524 1_556 S
C2839 C2843 1.400 . S
C2840 H2825 0.960 1_554 S
C2840 H2826 0.960 . S
C2840 H2827 0.960 . S
C2840 C2839 1.524 1_554 S
C2841 C2838 1.403 . S
C2841 C2842 1.392 . S
C2841 C2845 1.495 . S
C2842 C2841 1.392 . S
C2842 C2843 1.385 . S
C2842 C2844 1.478 . S
C2843 H2837 0.930 . S
C2843 C2839 1.400 . S
C2843 C2842 1.385 . S
C2844 C2842 1.478 . S
C2844 C2846 1.381 . S
C2844 C2850 1.383 . S
C2845 C2841 1.495 . S
C2845 H2851 0.959 . S
C2845 H2852 0.961 . S
C2845 H2853 0.960 . S
C2846 C2844 1.381 . S
C2846 C2847 1.394 . S
C2846 H2854 0.930 . S
C2847 C2846 1.394 . S
C2847 C2848 1.383 . S
C2847 H2855 0.929 . S
C2848 C2847 1.383 . S
C2848 C2849 1.377 . S
C2849 H2833 0.930 . S
C2849 C2848 1.377 . S
C2849 C2850 1.379 . S
C2850 H2834 0.931 . S
C2850 C2844 1.383 . S
C2850 C2849 1.379 . S
H2851 C2845 0.959 . S
H2852 C2845 0.961 . S
H2853 C2845 0.960 . S
H2854 C2846 0.930 . S
H2855 C2847 0.929 . S
H2856 C2864 0.929 . S
H2857 C2866 0.930 . S
H2858 C2868 0.930 . S
H2859 C2871 0.929 . S
H2860 C2874 0.930 . S
H2861 C2876 0.960 . S
H2862 C2876 0.960 . S
H2863 C2876 0.960 . S
C2864 H2856 0.929 . S
C2864 C2865 1.377 . S
C2864 C2866 1.384 . S
C2865 C2864 1.377 . S
C2865 C2871 1.390 . S
C2866 H2857 0.930 . S
C2866 C2864 1.384 . S
C2866 C2867 1.372 . S
C2867 C2866 1.372 . S
C2867 C2868 1.400 . S
C2867 C2872 1.490 . S
C2868 H2858 0.930 . S
C2868 C2867 1.400 . S
C2868 C2871 1.386 . S
H2869 C2885 0.930 . S
H2870 C2886 0.931 . S
C2871 H2859 0.929 . S
C2871 C2865 1.390 . S
C2871 C2868 1.386 . S
C2872 C2867 1.490 . S
C2872 C2874 1.395 . S
C2872 C2875 1.403 . S
H2873 C2879 0.930 . S
C2874 H2860 0.930 . S
C2874 C2872 1.395 . S
C2874 C2877 1.403 . S
C2875 C2872 1.403 . S
C2875 C2876 1.524 . S
C2875 C2879 1.400 . S
C2876 H2861 0.960 . S
C2876 H2862 0.960 . S
C2876 H2863 0.960 . S
C2876 C2875 1.524 . S
C2877 C2874 1.403 . S
C2877 C2878 1.392 . S
C2877 C2881 1.495 . S
C2878 C2877 1.392 . S
C2878 C2879 1.385 . S
C2878 C2880 1.478 . S
C2879 H2873 0.930 . S
C2879 C2875 1.400 . S
C2879 C2878 1.385 . S
C2880 C2878 1.478 . S
C2880 C2882 1.381 . S
C2880 C2886 1.383 . S
C2881 C2877 1.495 . S
C2881 H2887 0.959 . S
C2881 H2888 0.961 . S
C2881 H2889 0.960 . S
C2882 C2880 1.381 . S
C2882 C2883 1.394 . S
C2882 H2890 0.930 . S
C2883 C2882 1.394 . S
C2883 C2884 1.383 . S
C2883 H2891 0.929 . S
C2884 C2883 1.383 . S
C2884 C2885 1.377 . S
C2885 H2869 0.930 . S
C2885 C2884 1.377 . S
C2885 C2886 1.379 . S
C2886 H2870 0.931 . S
C2886 C2880 1.383 . S
C2886 C2885 1.379 . S
H2887 C2881 0.959 . S
H2888 C2881 0.961 . S
H2889 C2881 0.960 . S
H2890 C2882 0.930 . S
H2891 C2883 0.929 . S
H2892 C2900 0.929 . S
H2893 C2902 0.930 . S
H2894 C2904 0.930 . S
H2895 C2907 0.929 . S
H2896 C2910 0.930 . S
H2897 C2912 0.960 . S
H2898 C2912 0.960 . S
H2899 C2912 0.960 . S
C2900 H2892 0.929 . S
C2900 C2901 1.377 . S
C2900 C2902 1.384 . S
C2901 C2900 1.377 . S
C2901 C2907 1.390 . S
C2902 H2893 0.930 . S
C2902 C2900 1.384 . S
C2902 C2903 1.372 . S
C2903 C2902 1.372 . S
C2903 C2904 1.400 . S
C2903 C2908 1.490 . S
C2904 H2894 0.930 . S
C2904 C2903 1.400 . S
C2904 C2907 1.386 . S
H2905 C2921 0.930 . S
H2906 C2922 0.931 . S
C2907 H2895 0.929 . S
C2907 C2901 1.390 . S
C2907 C2904 1.386 . S
C2908 C2903 1.490 . S
C2908 C2910 1.395 . S
C2908 C2911 1.403 . S
H2909 C2915 0.930 1_455 S
C2910 H2896 0.930 . S
C2910 C2908 1.395 . S
C2910 C2913 1.403 . S
C2911 C2908 1.403 . S
C2911 C2912 1.524 . S
C2911 C2915 1.400 . S
C2912 H2897 0.960 . S
C2912 H2898 0.960 . S
C2912 H2899 0.960 . S
C2912 C2911 1.524 . S
C2913 C2910 1.403 . S
C2913 C2914 1.392 1_655 S
C2913 C2917 1.495 . S
C2914 C2913 1.392 1_455 S
C2914 C2915 1.385 1_455 S
C2914 C2916 1.478 . S
C2915 H2909 0.930 1_655 S
C2915 C2911 1.400 . S
C2915 C2914 1.385 1_655 S
C2916 C2914 1.478 . S
C2916 C2918 1.381 . S
C2916 C2922 1.383 . S
C2917 C2913 1.495 . S
C2917 H2923 0.959 . S
C2917 H2924 0.961 . S
C2917 H2925 0.960 . S
C2918 C2916 1.381 . S
C2918 C2919 1.394 . S
C2918 H2926 0.930 . S
C2919 C2918 1.394 . S
C2919 C2920 1.383 . S
C2919 H2927 0.929 . S
C2920 C2919 1.383 . S
C2920 C2921 1.377 . S
C2921 H2905 0.930 . S
C2921 C2920 1.377 . S
C2921 C2922 1.379 . S
C2922 H2906 0.931 . S
C2922 C2916 1.383 . S
C2922 C2921 1.379 . S
H2923 C2917 0.959 . S
H2924 C2917 0.961 . S
H2925 C2917 0.960 . S
H2926 C2918 0.930 . S
H2927 C2919 0.929 . S
H2928 C2936 0.929 . S
H2929 C2938 0.930 . S
H2930 C2940 0.930 . S
H2931 C2943 0.929 . S
H2932 C2946 0.930 . S
H2933 C2948 0.960 . S
H2934 C2948 0.960 . S
H2935 C2948 0.960 . S
C2936 H2928 0.929 . S
C2936 C2937 1.377 . S
C2936 C2938 1.384 . S
C2937 C2936 1.377 . S
C2937 C2943 1.390 . S
C2938 H2929 0.930 . S
C2938 C2936 1.384 . S
C2938 C2939 1.372 . S
C2939 C2938 1.372 . S
C2939 C2940 1.400 . S
C2939 C2944 1.490 . S
C2940 H2930 0.930 . S
C2940 C2939 1.400 . S
C2940 C2943 1.386 . S
H2941 C2957 0.930 . S
H2942 C2958 0.931 . S
C2943 H2931 0.929 . S
C2943 C2937 1.390 . S
C2943 C2940 1.386 . S
C2944 C2939 1.490 . S
C2944 C2946 1.395 . S
C2944 C2947 1.403 . S
H2945 C2951 0.930 . S
C2946 H2932 0.930 . S
C2946 C2944 1.395 . S
C2946 C2949 1.403 . S
C2947 C2944 1.403 . S
C2947 C2948 1.524 . S
C2947 C2951 1.400 . S
C2948 H2933 0.960 . S
C2948 H2934 0.960 . S
C2948 H2935 0.960 . S
C2948 C2947 1.524 . S
C2949 C2946 1.403 . S
C2949 C2950 1.392 1_455 S
C2949 C2953 1.495 1_455 S
C2950 C2949 1.392 1_655 S
C2950 C2951 1.385 1_655 S
C2950 C2952 1.478 . S
C2951 H2945 0.930 . S
C2951 C2947 1.400 . S
C2951 C2950 1.385 1_455 S
C2952 C2950 1.478 . S
C2952 C2954 1.381 . S
C2952 C2958 1.383 . S
C2953 C2949 1.495 1_655 S
C2953 H2959 0.959 1_655 S
C2953 H2960 0.961 . S
C2953 H2961 0.960 . S
C2954 C2952 1.381 . S
C2954 C2955 1.394 . S
C2954 H2962 0.930 . S
C2955 C2954 1.394 . S
C2955 C2956 1.383 . S
C2955 H2963 0.929 . S
C2956 C2955 1.383 . S
C2956 C2957 1.377 . S
C2957 H2941 0.930 . S
C2957 C2956 1.377 . S
C2957 C2958 1.379 . S
C2958 H2942 0.931 . S
C2958 C2952 1.383 . S
C2958 C2957 1.379 . S
H2959 C2953 0.959 1_455 S
H2960 C2953 0.961 . S
H2961 C2953 0.960 . S
H2962 C2954 0.930 . S
H2963 C2955 0.929 . S
H2964 C2972 0.929 . S
H2965 C2974 0.930 . S
H2966 C2976 0.930 . S
H2967 C2979 0.929 . S
H2968 C2982 0.930 . S
H2969 C2984 0.960 . S
H2970 C2984 0.960 . S
H2971 C2984 0.960 . S
C2972 H2964 0.929 . S
C2972 C2973 1.377 . S
C2972 C2974 1.384 . S
C2973 C2972 1.377 . S
C2973 C2979 1.390 . S
C2974 H2965 0.930 . S
C2974 C2972 1.384 . S
C2974 C2975 1.372 . S
C2975 C2974 1.372 . S
C2975 C2976 1.400 . S
C2975 C2980 1.490 . S
C2976 H2966 0.930 . S
C2976 C2975 1.400 . S
C2976 C2979 1.386 . S
H2977 C2993 0.930 . S
H2978 C2994 0.931 . S
C2979 H2967 0.929 . S
C2979 C2973 1.390 . S
C2979 C2976 1.386 . S
C2980 C2975 1.490 . S
C2980 C2982 1.395 . S
C2980 C2983 1.403 . S
H2981 C2987 0.930 . S
C2982 H2968 0.930 . S
C2982 C2980 1.395 . S
C2982 C2985 1.403 . S
C2983 C2980 1.403 . S
C2983 C2984 1.524 . S
C2983 C2987 1.400 . S
C2984 H2969 0.960 . S
C2984 H2970 0.960 . S
C2984 H2971 0.960 . S
C2984 C2983 1.524 . S
C2985 C2982 1.403 . S
C2985 C2986 1.392 . S
C2985 C2989 1.495 . S
C2986 C2985 1.392 . S
C2986 C2987 1.385 . S
C2986 C2988 1.478 . S
C2987 H2981 0.930 . S
C2987 C2983 1.400 . S
C2987 C2986 1.385 . S
C2988 C2986 1.478 . S
C2988 C2990 1.381 . S
C2988 C2994 1.383 . S
C2989 C2985 1.495 . S
C2989 H2995 0.959 . S
C2989 H2996 0.961 . S
C2989 H2997 0.960 . S
C2990 C2988 1.381 . S
C2990 C2991 1.394 . S
C2990 H2998 0.930 . S
C2991 C2990 1.394 . S
C2991 C2992 1.383 . S
C2991 H2999 0.929 . S
C2992 C2991 1.383 . S
C2992 C2993 1.377 . S
C2993 H2977 0.930 . S
C2993 C2992 1.377 . S
C2993 C2994 1.379 . S
C2994 H2978 0.931 . S
C2994 C2988 1.383 . S
C2994 C2993 1.379 . S
H2995 C2989 0.959 . S
H2996 C2989 0.961 . S
H2997 C2989 0.960 . S
H2998 C2990 0.930 . S
H2999 C2991 0.929 . S
H3000 C3008 0.929 . S
H3001 C3010 0.930 . S
H3002 C3012 0.930 . S
H3003 C3015 0.929 . S
H3004 C3018 0.930 . S
H3005 C3020 0.960 . S
H3006 C3020 0.960 . S
H3007 C3020 0.960 . S
C3008 H3000 0.929 . S
C3008 C3009 1.377 . S
C3008 C3010 1.384 . S
C3009 C3008 1.377 . S
C3009 C3015 1.390 . S
C3010 H3001 0.930 . S
C3010 C3008 1.384 . S
C3010 C3011 1.372 . S
C3011 C3010 1.372 . S
C3011 C3012 1.400 . S
C3011 C3016 1.490 . S
C3012 H3002 0.930 . S
C3012 C3011 1.400 . S
C3012 C3015 1.386 . S
H3013 C3029 0.930 . S
H3014 C3030 0.931 . S
C3015 H3003 0.929 . S
C3015 C3009 1.390 . S
C3015 C3012 1.386 . S
C3016 C3011 1.490 . S
C3016 C3018 1.395 . S
C3016 C3019 1.403 . S
H3017 C3023 0.930 . S
C3018 H3004 0.930 . S
C3018 C3016 1.395 . S
C3018 C3021 1.403 . S
C3019 C3016 1.403 . S
C3019 C3020 1.524 . S
C3019 C3023 1.400 . S
C3020 H3005 0.960 . S
C3020 H3006 0.960 . S
C3020 H3007 0.960 . S
C3020 C3019 1.524 . S
C3021 C3018 1.403 . S
C3021 C3022 1.392 . S
C3021 C3025 1.495 . S
C3022 C3021 1.392 . S
C3022 C3023 1.385 . S
C3022 C3024 1.478 . S
C3023 H3017 0.930 . S
C3023 C3019 1.400 . S
C3023 C3022 1.385 . S
C3024 C3022 1.478 . S
C3024 C3026 1.381 . S
C3024 C3030 1.383 . S
C3025 C3021 1.495 . S
C3025 H3031 0.959 . S
C3025 H3032 0.961 . S
C3025 H3033 0.960 . S
C3026 C3024 1.381 . S
C3026 C3027 1.394 . S
C3026 H3034 0.930 . S
C3027 C3026 1.394 . S
C3027 C3028 1.383 . S
C3027 H3035 0.929 . S
C3028 C3027 1.383 . S
C3028 C3029 1.377 . S
C3029 H3013 0.930 . S
C3029 C3028 1.377 . S
C3029 C3030 1.379 . S
C3030 H3014 0.931 . S
C3030 C3024 1.383 . S
C3030 C3029 1.379 . S
H3031 C3025 0.959 . S
H3032 C3025 0.961 . S
H3033 C3025 0.960 . S
H3034 C3026 0.930 . S
H3035 C3027 0.929 . S
H3036 C3044 0.929 . S
H3037 C3046 0.930 . S
H3038 C3048 0.930 . S
H3039 C3051 0.929 . S
H3040 C3054 0.930 . S
H3041 C3056 0.960 . S
H3042 C3056 0.960 . S
H3043 C3056 0.960 . S
C3044 H3036 0.929 . S
C3044 C3045 1.377 . S
C3044 C3046 1.384 . S
C3045 C3044 1.377 . S
C3045 C3051 1.390 . S
C3046 H3037 0.930 . S
C3046 C3044 1.384 . S
C3046 C3047 1.372 . S
C3047 C3046 1.372 . S
C3047 C3048 1.400 . S
C3047 C3052 1.490 . S
C3048 H3038 0.930 . S
C3048 C3047 1.400 . S
C3048 C3051 1.386 . S
H3049 C3065 0.930 . S
H3050 C3066 0.931 . S
C3051 H3039 0.929 . S
C3051 C3045 1.390 . S
C3051 C3048 1.386 . S
C3052 C3047 1.490 . S
C3052 C3054 1.395 . S
C3052 C3055 1.403 . S
H3053 C3059 0.930 . S
C3054 H3040 0.930 . S
C3054 C3052 1.395 . S
C3054 C3057 1.403 . S
C3055 C3052 1.403 . S
C3055 C3056 1.524 . S
C3055 C3059 1.400 . S
C3056 H3041 0.960 . S
C3056 H3042 0.960 . S
C3056 H3043 0.960 . S
C3056 C3055 1.524 . S
C3057 C3054 1.403 . S
C3057 C3058 1.392 1_565 S
C3057 C3061 1.495 1_565 S
C3058 C3057 1.392 1_545 S
C3058 C3059 1.385 1_545 S
C3058 C3060 1.478 . S
C3059 H3053 0.930 . S
C3059 C3055 1.400 . S
C3059 C3058 1.385 1_565 S
C3060 C3058 1.478 . S
C3060 C3062 1.381 . S
C3060 C3066 1.383 . S
C3061 C3057 1.495 1_545 S
C3061 H3067 0.959 1_545 S
C3061 H3068 0.961 . S
C3061 H3069 0.960 . S
C3062 C3060 1.381 . S
C3062 C3063 1.394 . S
C3062 H3070 0.930 . S
C3063 C3062 1.394 . S
C3063 C3064 1.383 . S
C3063 H3071 0.929 . S
C3064 C3063 1.383 . S
C3064 C3065 1.377 . S
C3065 H3049 0.930 . S
C3065 C3064 1.377 . S
C3065 C3066 1.379 . S
C3066 H3050 0.931 . S
C3066 C3060 1.383 . S
C3066 C3065 1.379 . S
H3067 C3061 0.959 1_565 S
H3068 C3061 0.961 . S
H3069 C3061 0.960 . S
H3070 C3062 0.930 . S
H3071 C3063 0.929 . S
H3072 C3080 0.929 . S
H3073 C3082 0.930 . S
H3074 C3084 0.930 . S
H3075 C3087 0.929 . S
H3076 C3090 0.930 . S
H3077 C3092 0.960 1_545 S
H3078 C3092 0.960 . S
H3079 C3092 0.960 . S
C3080 H3072 0.929 . S
C3080 C3081 1.377 . S
C3080 C3082 1.384 . S
C3081 C3080 1.377 . S
C3081 C3087 1.390 . S
C3082 H3073 0.930 . S
C3082 C3080 1.384 . S
C3082 C3083 1.372 . S
C3083 C3082 1.372 . S
C3083 C3084 1.400 . S
C3083 C3088 1.490 . S
C3084 H3074 0.930 . S
C3084 C3083 1.400 . S
C3084 C3087 1.386 . S
H3085 C3101 0.930 . S
H3086 C3102 0.931 . S
C3087 H3075 0.929 . S
C3087 C3081 1.390 . S
C3087 C3084 1.386 . S
C3088 C3083 1.490 . S
C3088 C3090 1.395 1_565 S
C3088 C3091 1.403 1_565 S
H3089 C3095 0.930 . S
C3090 H3076 0.930 . S
C3090 C3088 1.395 1_545 S
C3090 C3093 1.403 . S
C3091 C3088 1.403 1_545 S
C3091 C3092 1.524 1_545 S
C3091 C3095 1.400 . S
C3092 H3077 0.960 1_565 S
C3092 H3078 0.960 . S
C3092 H3079 0.960 . S
C3092 C3091 1.524 1_565 S
C3093 C3090 1.403 . S
C3093 C3094 1.392 . S
C3093 C3097 1.495 . S
C3094 C3093 1.392 . S
C3094 C3095 1.385 . S
C3094 C3096 1.478 . S
C3095 H3089 0.930 . S
C3095 C3091 1.400 . S
C3095 C3094 1.385 . S
C3096 C3094 1.478 . S
C3096 C3098 1.381 . S
C3096 C3102 1.383 . S
C3097 C3093 1.495 . S
C3097 H3103 0.959 . S
C3097 H3104 0.961 . S
C3097 H3105 0.960 . S
C3098 C3096 1.381 . S
C3098 C3099 1.394 . S
C3098 H3106 0.930 . S
C3099 C3098 1.394 . S
C3099 C3100 1.383 . S
C3099 H3107 0.929 . S
C3100 C3099 1.383 . S
C3100 C3101 1.377 . S
C3101 H3085 0.930 . S
C3101 C3100 1.377 . S
C3101 C3102 1.379 . S
C3102 H3086 0.931 . S
C3102 C3096 1.383 . S
C3102 C3101 1.379 . S
H3103 C3097 0.959 . S
H3104 C3097 0.961 . S
H3105 C3097 0.960 . S
H3106 C3098 0.930 . S
H3107 C3099 0.929 . S
H3108 C3116 0.929 . S
H3109 C3118 0.930 . S
H3110 C3120 0.930 . S
H3111 C3123 0.929 . S
H3112 C3126 0.930 . S
H3113 C3128 0.960 . S
H3114 C3128 0.960 . S
H3115 C3128 0.960 . S
C3116 H3108 0.929 . S
C3116 C3117 1.377 . S
C3116 C3118 1.384 . S
C3117 C3116 1.377 . S
C3117 C3123 1.390 . S
C3118 H3109 0.930 . S
C3118 C3116 1.384 . S
C3118 C3119 1.372 . S
C3119 C3118 1.372 . S
C3119 C3120 1.400 . S
C3119 C3124 1.490 . S
C3120 H3110 0.930 . S
C3120 C3119 1.400 . S
C3120 C3123 1.386 . S
H3121 C3137 0.930 . S
H3122 C3138 0.931 . S
C3123 H3111 0.929 . S
C3123 C3117 1.390 . S
C3123 C3120 1.386 . S
C3124 C3119 1.490 . S
C3124 C3126 1.395 . S
C3124 C3127 1.403 . S
H3125 C3131 0.930 . S
C3126 H3112 0.930 . S
C3126 C3124 1.395 . S
C3126 C3129 1.403 . S
C3127 C3124 1.403 . S
C3127 C3128 1.524 . S
C3127 C3131 1.400 . S
C3128 H3113 0.960 . S
C3128 H3114 0.960 . S
C3128 H3115 0.960 . S
C3128 C3127 1.524 . S
C3129 C3126 1.403 . S
C3129 C3130 1.392 . S
C3129 C3133 1.495 . S
C3130 C3129 1.392 . S
C3130 C3131 1.385 . S
C3130 C3132 1.478 . S
C3131 H3125 0.930 . S
C3131 C3127 1.400 . S
C3131 C3130 1.385 . S
C3132 C3130 1.478 . S
C3132 C3134 1.381 . S
C3132 C3138 1.383 . S
C3133 C3129 1.495 . S
C3133 H3139 0.959 . S
C3133 H3140 0.961 . S
C3133 H3141 0.960 . S
C3134 C3132 1.381 . S
C3134 C3135 1.394 . S
C3134 H3142 0.930 . S
C3135 C3134 1.394 . S
C3135 C3136 1.383 . S
C3135 H3143 0.929 . S
C3136 C3135 1.383 . S
C3136 C3137 1.377 . S
C3137 H3121 0.930 . S
C3137 C3136 1.377 . S
C3137 C3138 1.379 . S
C3138 H3122 0.931 . S
C3138 C3132 1.383 . S
C3138 C3137 1.379 . S
H3139 C3133 0.959 . S
H3140 C3133 0.961 . S
H3141 C3133 0.960 . S
H3142 C3134 0.930 . S
H3143 C3135 0.929 . S
C1425 C524 1.151 . S
C1444 C33 1.131 . S
C1461 C92 1.140 . S
C1480 C701 1.159 . S
C1497 C151 1.146 . S
C1516 C583 1.157 . S
C1533 C210 1.141 . S
C1552 C642 1.160 . S
C1569 C269 1.143 . S
C1588 C52 1.140 . S
C1605 C111 1.154 . S
C1624 C328 1.125 . S
C1641 C387 1.140 . S
C1660 C170 1.142 . S
C1677 C229 1.155 . S
C1696 C446 1.142 . S
C1713 C288 1.151 . S
C1732 C505 1.152 . S
C1749 C406 1.153 . S
C1768 C564 1.161 . S
C1785 C623 1.146 . S
C1804 C465 1.143 . S
C1821 C347 1.151 . S
C1840 C682 1.157 . S
C1857 C1232 1.151 . S
C1876 C741 1.143 . S
C1893 C800 1.142 . S
C1912 C1409 1.145 . S
C1929 C859 1.145 . S
C1948 C1291 1.150 . S
C1965 C1350 1.155 . S
C1984 C918 1.125 . S
C2001 C977 1.147 . S
C2020 C760 1.143 . S
C2037 C819 1.151 . S
C2056 C1036 1.143 . S
C2073 C878 1.154 . S
C2092 C1095 1.120 . S
C2109 C1154 1.139 . S
C2128 C937 1.160 . S
C2145 C1213 1.147 . S
C2164 C996 1.143 . S
C2181 C1114 1.153 . S
C2200 C1272 1.152 . S
C2217 C1173 1.151 . S
C2236 C1331 1.161 . S
C2253 C1390 1.145 . S
C2272 C1055 1.150 . S
C2289 C1303 1.508 . S
C2308 C3 1.505 . S
C2325 C1244 1.506 . S
C2344 C62 1.492 . S
C2361 C1362 1.504 . S
C2380 C121 1.474 . S
C2397 C180 1.494 . S
C2416 C1185 1.507 . S
C2433 C239 1.495 . S
C2452 C772 1.509 . S
C2469 C713 1.505 . S
C2488 C298 1.479 . S
C2505 C890 1.506 . S
C2524 C357 1.489 . S
C2541 C831 1.507 . S
C2560 C416 1.504 . S
C2577 C475 1.490 . S
C2596 C1067 1.496 . S
C2613 C949 1.506 . S
C2632 C534 1.491 . S
C2649 C1008 1.504 . S
C2668 C593 1.474 . S
C2685 C1126 1.505 . S
C2704 C652 1.485 . S
C2721 C595 1.507 . S
C2740 C711 1.474 . S
C2757 C536 1.505 . S
C2776 C770 1.504 . S
C2793 C829 1.491 . S
C2812 C654 1.500 . S
C2829 C477 1.508 . S
C2848 C888 1.478 . S
C2865 C947 1.495 . S
C2884 C64 1.505 . S
C2901 C1006 1.495 . S
C2920 C5 1.505 . S
C2937 C1065 1.489 . S
C2956 C182 1.506 . S
C2973 C1124 1.491 . S
C2992 C123 1.510 . S
C3009 C1183 1.490 . S
C3028 C359 1.510 . S
C3045 C1242 1.495 . S
C3064 C241 1.495 . S
C3081 C300 1.505 . S
C3100 C1301 1.486 . S
C3117 C1360 1.495 . S
C3136 C418 1.495 . S
