# Generated by pormake.
# Topology snx, (6)-cn, num edge types: 1
# Building blocks:
#     Node 0, Type 0, BuildingBlock: OJICUG_clean_sbu_0, # of connection points: 6
#     Node 1, Type 0, BuildingBlock: OJICUG_clean_sbu_0, # of connection points: 6
#     Node 2, Type 0, BuildingBlock: OJICUG_clean_sbu_0, # of connection points: 6
#     Node 3, Type 0, BuildingBlock: OJICUG_clean_sbu_0, # of connection points: 6
#     Node 4, Type 0, BuildingBlock: OJICUG_clean_sbu_0, # of connection points: 6
#     Node 5, Type 0, BuildingBlock: OJICUG_clean_sbu_0, # of connection points: 6
#     Edge 6, Type (0, 0), BuildingBlock: AJUNOK_clean_linker_0, # of connection points: 2
#     Edge 7, Type (0, 0), BuildingBlock: AJUNOK_clean_linker_0, # of connection points: 2
#     Edge 8, Type (0, 0), BuildingBlock: AJUNOK_clean_linker_0, # of connection points: 2
#     Edge 9, Type (0, 0), BuildingBlock: AJUNOK_clean_linker_0, # of connection points: 2
#     Edge 10, Type (0, 0), BuildingBlock: AJUNOK_clean_linker_0, # of connection points: 2
#     Edge 11, Type (0, 0), BuildingBlock: AJUNOK_clean_linker_0, # of connection points: 2
#     Edge 12, Type (0, 0), BuildingBlock: AJUNOK_clean_linker_0, # of connection points: 2
#     Edge 13, Type (0, 0), BuildingBlock: AJUNOK_clean_linker_0, # of connection points: 2
#     Edge 14, Type (0, 0), BuildingBlock: AJUNOK_clean_linker_0, # of connection points: 2
#     Edge 15, Type (0, 0), BuildingBlock: AJUNOK_clean_linker_0, # of connection points: 2
#     Edge 16, Type (0, 0), BuildingBlock: AJUNOK_clean_linker_0, # of connection points: 2
#     Edge 17, Type (0, 0), BuildingBlock: AJUNOK_clean_linker_0, # of connection points: 2
#     Edge 18, Type (0, 0), BuildingBlock: AJUNOK_clean_linker_0, # of connection points: 2
#     Edge 19, Type (0, 0), BuildingBlock: AJUNOK_clean_linker_0, # of connection points: 2
#     Edge 20, Type (0, 0), BuildingBlock: AJUNOK_clean_linker_0, # of connection points: 2
#     Edge 21, Type (0, 0), BuildingBlock: AJUNOK_clean_linker_0, # of connection points: 2
#     Edge 22, Type (0, 0), BuildingBlock: AJUNOK_clean_linker_0, # of connection points: 2
#     Edge 23, Type (0, 0), BuildingBlock: AJUNOK_clean_linker_0, # of connection points: 2
# Relax obj value: 0.060
# Max RMSD: 0.112
# Mean RMSD: 0.112
data_MOF--net-snx--node1-OJICUG_clean_sbu_0--edge1-AJUNOK_clean_linker_0
_symmetry_space_group_name_H-M    P1
_symmetry_Int_Tables_number       1
_symmetry_cell_setting            triclinic
loop_
_symmetry_equiv_pos_as_xyz
'x, y, z'
_cell_length_a     29.171908
_cell_length_b     29.17039
_cell_length_c     16.338945
_cell_angle_alpha  89.772488
_cell_angle_beta   90.218394
_cell_angle_gamma 120.11555
loop_
_atom_site_label
_atom_site_type_symbol
_atom_site_fract_x
_atom_site_fract_y
_atom_site_fract_z
_atom_type_partial_charge
Sc0 Sc 0.19973 0.41318 0.13476 0.0
Sc1 Sc 0.20215 0.41206 0.35077 0.0
Sc2 Sc 0.14457 0.29255 0.24125 0.0
O3 O 0.18221 0.37277 0.24234 0.0
C4 C 0.08725 0.31635 0.09267 0.0
C5 C 0.16778 0.4825 0.24725 0.0
C6 C 0.08514 0.3152 0.38365 0.0
C7 C 0.30422 0.48362 0.23952 0.0
C8 C 0.22526 0.3205 0.09671 0.0
C9 C 0.22461 0.31883 0.3915 0.0
O10 O 0.12027 0.36568 0.08782 0.0
O11 O 0.17257 0.46347 0.31472 0.0
O12 O 0.08482 0.28723 0.32387 0.0
O13 O 0.28079 0.46527 0.17149 0.0
O14 O 0.20152 0.29242 0.15886 0.0
O15 O 0.23501 0.36628 0.4005 0.0
O16 O 0.22452 0.36241 0.07712 0.0
O17 O 0.28042 0.46902 0.30806 0.0
O18 O 0.19119 0.2876 0.33951 0.0
O19 O 0.17753 0.46894 0.17856 0.0
O20 O 0.09311 0.28559 0.14133 0.0
O21 O 0.1255 0.3591 0.40384 0.0
Sc22 Sc 0.8434 0.1435 0.73233 0.0
Sc23 Sc 0.78186 0.20454 0.62949 0.0
Sc24 Sc 0.78576 0.20367 0.84619 0.0
O25 O 0.80367 0.18403 0.73603 0.0
C26 C 0.76462 0.08659 0.88085 0.0
C27 C 0.75974 0.08881 0.58737 0.0
C28 C 0.68062 0.17157 0.74303 0.0
C29 C 0.89738 0.22541 0.58585 0.0
C30 C 0.90182 0.22267 0.8808 0.0
C31 C 0.81697 0.30756 0.73928 0.0
O32 O 0.7939 0.08778 0.82277 0.0
O33 O 0.75194 0.12742 0.57559 0.0
O34 O 0.70545 0.17843 0.81015 0.0
O35 O 0.89794 0.19547 0.6419 0.0
O36 O 0.86448 0.232 0.89549 0.0
O37 O 0.80877 0.28405 0.67081 0.0
O38 O 0.89947 0.19201 0.82397 0.0
O39 O 0.85826 0.23234 0.57273 0.0
O40 O 0.81084 0.28383 0.80742 0.0
O41 O 0.79132 0.08909 0.6413 0.0
O42 O 0.75737 0.12512 0.89724 0.0
O43 O 0.70295 0.17916 0.6736 0.0
Sc44 Sc 0.69546 0.84784 0.23985 0.0
Sc45 Sc 0.57551 0.78391 0.13034 0.0
Sc46 Sc 0.57508 0.78381 0.34668 0.0
O47 O 0.61519 0.80499 0.23882 0.0
C48 C 0.67198 0.76803 0.38978 0.0
C49 C 0.67356 0.76587 0.0973 0.0
C50 C 0.50504 0.68053 0.23745 0.0
C51 C 0.66931 0.89954 0.08763 0.0
C52 C 0.66774 0.9025 0.38249 0.0
C53 C 0.50415 0.81573 0.23815 0.0
O54 O 0.70231 0.80316 0.33898 0.0
O55 O 0.62791 0.7588 0.07945 0.0
O56 O 0.51963 0.70503 0.30525 0.0
O57 O 0.70004 0.89821 0.14134 0.0
O58 O 0.62523 0.8605 0.40227 0.0
O59 O 0.51891 0.80603 0.17034 0.0
O60 O 0.6962 0.90517 0.32211 0.0
O61 O 0.62173 0.86248 0.07801 0.0
O62 O 0.52245 0.81142 0.30685 0.0
O63 O 0.70178 0.79512 0.15582 0.0
O64 O 0.62307 0.75314 0.39668 0.0
O65 O 0.52356 0.70328 0.16917 0.0
Sc66 Sc 0.84739 0.69704 0.74389 0.0
Sc67 Sc 0.78399 0.57761 0.63364 0.0
Sc68 Sc 0.78357 0.57577 0.85016 0.0
O69 O 0.8048 0.61665 0.74263 0.0
C70 C 0.89993 0.66912 0.89281 0.0
C71 C 0.90245 0.67144 0.59834 0.0
C72 C 0.81585 0.50565 0.74015 0.0
C73 C 0.76712 0.67493 0.59533 0.0
C74 C 0.76591 0.67339 0.88842 0.0
C75 C 0.6803 0.50616 0.7416 0.0
O76 O 0.89913 0.70031 0.83935 0.0
O77 O 0.86126 0.62794 0.57937 0.0
O78 O 0.80668 0.52019 0.80853 0.0
O79 O 0.80093 0.70439 0.64836 0.0
O80 O 0.75754 0.62692 0.9033 0.0
O81 O 0.70463 0.52187 0.67374 0.0
O82 O 0.79597 0.70251 0.83134 0.0
O83 O 0.75418 0.62673 0.5847 0.0
O84 O 0.70325 0.52364 0.81012 0.0
O85 O 0.90399 0.69979 0.65811 0.0
O86 O 0.86186 0.62206 0.90314 0.0
O87 O 0.8108 0.52398 0.67192 0.0
Sc88 Sc 0.14368 0.84448 0.24612 0.0
Sc89 Sc 0.20563 0.78603 0.3526 0.0
Sc90 Sc 0.2019 0.78373 0.13735 0.0
O91 O 0.18394 0.80478 0.24535 0.0
C92 C 0.08736 0.76282 0.09897 0.0
C93 C 0.08855 0.76437 0.39101 0.0
C94 C 0.17066 0.68184 0.2499 0.0
C95 C 0.22535 0.89937 0.39406 0.0
C96 C 0.22249 0.90084 0.10027 0.0
C97 C 0.30669 0.81746 0.23877 0.0
O98 O 0.09313 0.80022 0.14537 0.0
O99 O 0.13087 0.76456 0.41121 0.0
O100 O 0.18297 0.70654 0.18194 0.0
O101 O 0.1879 0.89406 0.34783 0.0
O102 O 0.22271 0.85886 0.07963 0.0
O103 O 0.28242 0.80504 0.30692 0.0
O104 O 0.19984 0.9041 0.16454 0.0
O105 O 0.24109 0.866 0.39742 0.0
O106 O 0.28389 0.81578 0.17133 0.0
O107 O 0.0848 0.78745 0.32734 0.0
O108 O 0.12156 0.74824 0.09385 0.0
O109 O 0.17313 0.70436 0.31765 0.0
Sc110 Sc 0.29079 0.14519 0.7457 0.0
Sc111 Sc 0.41124 0.20368 0.85456 0.0
Sc112 Sc 0.41095 0.20108 0.63781 0.0
O113 O 0.37115 0.18342 0.74609 0.0
C114 C 0.31407 0.08554 0.60189 0.0
C115 C 0.3143 0.0877 0.89266 0.0
C116 C 0.48106 0.16911 0.74939 0.0
C117 C 0.31796 0.22755 0.89111 0.0
C118 C 0.3178 0.22513 0.59736 0.0
C119 C 0.48243 0.30573 0.74281 0.0
O120 O 0.28428 0.09006 0.65365 0.0
O121 O 0.36 0.12675 0.90887 0.0
O122 O 0.46545 0.177 0.68083 0.0
O123 O 0.28732 0.19572 0.83711 0.0
O124 O 0.36169 0.22804 0.58065 0.0
O125 O 0.46688 0.28245 0.81166 0.0
O126 O 0.28846 0.19823 0.65654 0.0
O127 O 0.36409 0.23494 0.90505 0.0
O128 O 0.46491 0.2818 0.67487 0.0
O129 O 0.2852 0.08836 0.83515 0.0
O130 O 0.36183 0.12188 0.59017 0.0
O131 O 0.46404 0.17581 0.81734 0.0
C132 C 0.16658 0.55643 0.32243 0.0
C133 C 0.15726 0.5273 0.24961 0.0
C134 C 0.1674 0.60483 0.32311 0.0
C135 C 0.15892 0.62611 0.25102 0.0
H136 H 0.17646 0.54347 0.37862 0.0
H137 H 0.17786 0.62708 0.37972 0.0
S138 S 0.12102 0.55995 0.04838 0.0
N139 N 0.13092 0.51925 0.10644 0.0
N140 N 0.13238 0.61023 0.1078 0.0
C141 C 0.14484 0.59518 0.17945 0.0
C142 C 0.14402 0.54582 0.17873 0.0
C143 C 0.60536 0.16966 0.81936 0.0
C144 C 0.62493 0.16029 0.7464 0.0
C145 C 0.55693 0.16882 0.8211 0.0
C146 C 0.52593 0.15854 0.74995 0.0
H147 H 0.62888 0.18067 0.87489 0.0
H148 H 0.54538 0.17934 0.87775 0.0
S149 S 0.55375 0.12038 0.54737 0.0
N150 N 0.6055 0.13241 0.6042 0.0
N151 N 0.51444 0.13067 0.60743 0.0
C152 C 0.54276 0.14454 0.67832 0.0
C153 C 0.5922 0.14547 0.67653 0.0
C154 C 0.38272 0.55636 0.31168 0.0
C155 C 0.36013 0.52799 0.23902 0.0
C156 C 0.43134 0.60376 0.31123 0.0
C157 C 0.4597 0.62511 0.23811 0.0
H158 H 0.36158 0.54345 0.36916 0.0
H159 H 0.44524 0.6251 0.36843 0.0
S160 S 0.42343 0.56081 0.03384 0.0
N161 N 0.37388 0.52065 0.0938 0.0
N162 N 0.46535 0.6099 0.09298 0.0
C163 C 0.43991 0.59485 0.16614 0.0
C164 C 0.39019 0.54636 0.1666 0.0
C165 C 0.81951 0.43247 0.66655 0.0
C166 C 0.8268 0.461 0.73934 0.0
C167 C 0.81986 0.38465 0.66643 0.0
C168 C 0.82748 0.3631 0.7391 0.0
H169 H 0.81058 0.44551 0.6096 0.0
H170 H 0.81122 0.36317 0.60926 0.0
S171 S 0.85964 0.4279 0.94307 0.0
N172 N 0.8501 0.46837 0.88387 0.0
N173 N 0.85059 0.37835 0.8837 0.0
C174 C 0.83936 0.39348 0.81109 0.0
C175 C 0.83905 0.44237 0.81119 0.0
C176 C 0.43006 0.81854 0.16463 0.0
C177 C 0.45951 0.82669 0.23715 0.0
C178 C 0.38237 0.81918 0.16458 0.0
C179 C 0.36202 0.82792 0.23702 0.0
H180 H 0.44231 0.8088 0.10794 0.0
H181 H 0.35991 0.80968 0.10807 0.0
S182 S 0.42892 0.8623 0.43971 0.0
N183 N 0.46858 0.85179 0.38086 0.0
N184 N 0.3789 0.85285 0.38063 0.0
C185 C 0.39318 0.84058 0.30848 0.0
C186 C 0.44188 0.84002 0.30855 0.0
C187 C 0.60373 0.43138 0.66849 0.0
C188 C 0.62481 0.46079 0.74088 0.0
C189 C 0.556 0.38288 0.66879 0.0
C190 C 0.52714 0.36153 0.74148 0.0
H191 H 0.62552 0.44435 0.61156 0.0
H192 H 0.54327 0.36077 0.61211 0.0
S193 S 0.55937 0.42772 0.94442 0.0
N194 N 0.60891 0.46855 0.885 0.0
N195 N 0.51927 0.37747 0.88555 0.0
C196 C 0.54542 0.39258 0.81296 0.0
C197 C 0.59413 0.4421 0.81265 0.0
C198 C 0.31098 0.26522 0.02464 0.0
C199 C 0.29787 0.25581 0.94108 0.0
C200 C 0.28787 0.28701 0.07479 0.0
C201 C 0.25228 0.30158 0.04236 0.0
H202 H 0.33761 0.25377 0.05213 0.0
H203 H 0.29752 0.29211 0.13944 0.0
S204 S 0.20641 0.28709 0.82746 0.0
N205 N 0.24759 0.26375 0.82808 0.0
N206 N 0.20572 0.30628 0.92216 0.0
C207 C 0.24027 0.29415 0.95864 0.0
C208 C 0.26268 0.27084 0.908 0.0
C209 C -0.00481 0.27698 0.56809 0.0
C210 C 0.94432 0.25209 0.53282 0.0
C211 C 0.04068 0.29888 0.51916 0.0
C212 C 0.03673 0.29508 0.43342 0.0
H213 H -0.00021 0.2792 0.63406 0.0
H214 H 0.07915 0.31732 0.54872 0.0
S215 S 0.91265 0.23437 0.31131 0.0
N216 N 0.89247 0.22615 0.40738 0.0
N217 N 0.97807 0.2657 0.31512 0.0
C218 C 0.98609 0.2707 0.39737 0.0
C219 C 0.93981 0.24966 0.4472 0.0
C220 C 0.68929 0.01983 0.96723 0.0
C221 C 0.73986 0.03858 0.9329 0.0
C222 C 0.66536 0.97348 0.01523 0.0
C223 C 0.69191 0.94541 0.03177 0.0
H224 H 0.66793 0.04076 0.95624 0.0
H225 H 0.62658 0.96032 0.04121 0.0
S226 S 0.82468 0.97783 0.9568 0.0
N227 N 0.81528 0.02498 0.91873 0.0
N228 N 0.7707 0.93886 0.00961 0.0
C229 C 0.7423 0.96373 -0.00218 0.0
C230 C 0.76619 0.01009 0.94821 0.0
C231 C 0.66744 0.69063 0.46484 0.0
C232 C 0.69566 0.74472 0.44389 0.0
C233 C 0.69094 0.66787 0.5129 0.0
C234 C 0.74296 0.69878 0.54307 0.0
H235 H 0.62737 0.66555 0.44263 0.0
H236 H 0.66804 0.626 0.52733 0.0
S237 S 0.83281 0.84278 0.50728 0.0
N238 N 0.77786 0.82871 0.45788 0.0
N239 N 0.8217 0.78642 0.54864 0.0
C240 C 0.77117 0.75308 0.52327 0.0
C241 C 0.74761 0.77593 0.47358 0.0
C242 C 0.97155 0.74411 0.96983 0.0
C243 C 0.94666 0.69045 0.94713 0.0
C244 C 0.01668 0.76674 0.0194 0.0
C245 C 0.03941 0.73691 0.04704 0.0
H246 H 0.95579 0.7689 0.94956 0.0
H247 H 0.03435 0.80827 0.03515 0.0
S248 S 0.98958 0.59463 0.00467 0.0
N249 N 0.94754 0.6077 0.95638 0.0
N250 N 0.03354 0.65067 0.04863 0.0
C251 C 0.01512 0.68314 0.02467 0.0
C252 C 0.96834 0.65976 0.97518 0.0
C253 C 0.32322 0.02913 0.49422 0.0
C254 C 0.29157 0.03613 0.55237 0.0
C255 C 0.30212 0.98388 0.44444 0.0
C256 C 0.24859 0.94453 0.45045 0.0
H257 H 0.36447 0.05905 0.48625 0.0
H258 H 0.32738 0.98033 0.39953 0.0
S259 S 0.14967 0.93994 0.59639 0.0
N260 N 0.20419 -0.00348 0.61622 0.0
N261 N 0.16511 0.91271 0.52097 0.0
C262 C 0.21685 0.94993 0.50919 0.0
C263 C 0.23819 0.99538 0.56066 0.0
C264 C 0.66688 0.68919 0.01828 0.0
C265 C 0.69694 0.74211 0.0445 0.0
C266 C 0.68959 0.66644 0.96898 0.0
C267 C 0.74246 0.69652 0.94252 0.0
H268 H 0.6259 0.6651 0.03693 0.0
H269 H 0.66543 0.62549 0.9502 0.0
S270 S 0.83723 0.83706 -0.00674 0.0
N271 N 0.78197 0.82383 0.04042 0.0
N272 N 0.82412 0.78174 0.94638 0.0
C273 C 0.77259 0.74957 0.96787 0.0
C274 C 0.74994 0.77221 0.01923 0.0
C275 C 0.94577 0.68537 0.46166 0.0
C276 C 0.95042 0.69143 0.54715 0.0
C277 C 0.99079 0.70873 0.41144 0.0
C278 C 0.04199 0.73766 0.4452 0.0
H279 H 0.90702 0.66409 0.43316 0.0
H280 H 0.98549 0.70431 0.34571 0.0
S281 S 0.07567 0.76295 0.66564 0.0
N282 N 0.0103 0.72738 0.66354 0.0
N283 N 0.09487 0.76999 0.5692 0.0
C284 C 0.04726 0.74251 0.53067 0.0
C285 C 0.00146 0.71975 0.58165 0.0
C286 C 0.27837 -0.00137 0.07938 0.0
C287 C 0.24819 0.94759 0.04588 0.0
C288 C 0.30123 0.04379 0.02909 0.0
C289 C 0.2933 0.03948 0.94388 0.0
H290 H 0.28437 0.00367 0.14496 0.0
H291 H 0.32388 0.08241 0.05736 0.0
S292 S 0.21756 0.91485 0.82604 0.0
N293 N 0.21244 0.89524 0.92225 0.0
N294 N 0.25388 0.98017 0.82799 0.0
C295 C 0.26338 0.98864 0.90962 0.0
C296 C 0.24125 0.94266 0.96058 0.0
C297 C 0.28327 0.23528 0.46353 0.0
C298 C 0.29871 0.25268 0.54412 0.0
C299 C 0.25988 0.25743 0.4143 0.0
C300 C 0.25211 0.29841 0.4436 0.0
H301 H 0.28778 0.20324 0.43932 0.0
H302 H 0.24754 0.2421 0.35294 0.0
S303 S 0.28969 0.36001 0.64938 0.0
N304 N 0.30689 0.314 0.65068 0.0
N305 N 0.26424 0.35695 0.5577 0.0
C306 C 0.26933 0.31737 0.52344 0.0
C307 C 0.29221 0.29405 0.57393 0.0
C308 C 0.96779 0.29673 0.96975 0.0
C309 C 0.94948 0.24665 0.93392 0.0
C310 C 0.0131 0.31976 0.01995 0.0
C311 C 0.04071 0.29284 0.03762 0.0
H312 H 0.94733 0.3185 0.95823 0.0
H313 H 0.02602 0.3584 0.0463 0.0
S314 S 0.00908 0.16092 0.95937 0.0
N315 N 0.9629 0.17116 0.91952 0.0
N316 N 0.04714 0.21401 0.01459 0.0
C317 C 0.02273 0.2428 0.0024 0.0
C318 C 0.97737 0.21982 0.95035 0.0
C319 C 0.68722 0.94553 0.51948 0.0
C320 C 0.68657 0.94999 0.43388 0.0
C321 C 0.7104 0.9908 0.56903 0.0
C322 C 0.73218 0.04177 0.53464 0.0
H323 H 0.67165 0.90698 0.54807 0.0
H324 H 0.71168 0.98594 0.63463 0.0
S325 S 0.73744 0.0743 0.3141 0.0
N326 N 0.70814 0.00897 0.31687 0.0
N327 N 0.75001 0.09403 0.41035 0.0
C328 C 0.72986 0.04659 0.44941 0.0
C329 C 0.70752 0.00065 0.39887 0.0
loop_
_geom_bond_atom_site_label_1
_geom_bond_atom_site_label_2
_geom_bond_distance
_geom_bond_site_symmetry_2
_ccdc_geom_bond_type
Sc0 O3 2.025 . S
Sc0 O10 2.105 . S
Sc0 O13 2.105 . S
Sc0 O16 2.105 . S
Sc0 O19 2.105 . S
Sc1 O3 2.025 . S
Sc1 O11 2.105 . S
Sc1 O15 2.105 . S
Sc1 O17 2.105 . S
Sc1 O21 2.105 . S
Sc2 O3 2.025 . S
Sc2 O12 2.105 . S
Sc2 O14 2.105 . S
Sc2 O18 2.105 . S
Sc2 O20 2.105 . S
O3 Sc0 2.025 . S
O3 Sc1 2.025 . S
O3 Sc2 2.025 . S
C4 O10 1.268 . S
C4 O20 1.268 . S
C5 O11 1.268 . S
C5 O19 1.268 . S
C6 O12 1.268 . S
C6 O21 1.268 . S
C7 O13 1.268 . S
C7 O17 1.268 . S
C8 O14 1.268 . S
C8 O16 1.268 . S
C9 O15 1.268 . S
C9 O18 1.268 . S
O10 Sc0 2.105 . S
O10 C4 1.268 . S
O11 Sc1 2.105 . S
O11 C5 1.268 . S
O12 Sc2 2.105 . S
O12 C6 1.268 . S
O13 Sc0 2.105 . S
O13 C7 1.268 . S
O14 Sc2 2.105 . S
O14 C8 1.268 . S
O15 Sc1 2.105 . S
O15 C9 1.268 . S
O16 Sc0 2.105 . S
O16 C8 1.268 . S
O17 Sc1 2.105 . S
O17 C7 1.268 . S
O18 Sc2 2.105 . S
O18 C9 1.268 . S
O19 Sc0 2.105 . S
O19 C5 1.268 . S
O20 Sc2 2.105 . S
O20 C4 1.268 . S
O21 Sc1 2.105 . S
O21 C6 1.268 . S
Sc22 O25 2.025 . S
Sc22 O32 2.105 . S
Sc22 O35 2.105 . S
Sc22 O38 2.105 . S
Sc22 O41 2.105 . S
Sc23 O25 2.025 . S
Sc23 O33 2.105 . S
Sc23 O37 2.105 . S
Sc23 O39 2.105 . S
Sc23 O43 2.105 . S
Sc24 O25 2.025 . S
Sc24 O34 2.105 . S
Sc24 O36 2.105 . S
Sc24 O40 2.105 . S
Sc24 O42 2.105 . S
O25 Sc22 2.025 . S
O25 Sc23 2.025 . S
O25 Sc24 2.025 . S
C26 O32 1.268 . S
C26 O42 1.268 . S
C27 O33 1.268 . S
C27 O41 1.268 . S
C28 O34 1.268 . S
C28 O43 1.268 . S
C29 O35 1.268 . S
C29 O39 1.268 . S
C30 O36 1.268 . S
C30 O38 1.268 . S
C31 O37 1.268 . S
C31 O40 1.268 . S
O32 Sc22 2.105 . S
O32 C26 1.268 . S
O33 Sc23 2.105 . S
O33 C27 1.268 . S
O34 Sc24 2.105 . S
O34 C28 1.268 . S
O35 Sc22 2.105 . S
O35 C29 1.268 . S
O36 Sc24 2.105 . S
O36 C30 1.268 . S
O37 Sc23 2.105 . S
O37 C31 1.268 . S
O38 Sc22 2.105 . S
O38 C30 1.268 . S
O39 Sc23 2.105 . S
O39 C29 1.268 . S
O40 Sc24 2.105 . S
O40 C31 1.268 . S
O41 Sc22 2.105 . S
O41 C27 1.268 . S
O42 Sc24 2.105 . S
O42 C26 1.268 . S
O43 Sc23 2.105 . S
O43 C28 1.268 . S
Sc44 O47 2.025 . S
Sc44 O54 2.105 . S
Sc44 O57 2.105 . S
Sc44 O60 2.105 . S
Sc44 O63 2.105 . S
Sc45 O47 2.025 . S
Sc45 O55 2.105 . S
Sc45 O59 2.105 . S
Sc45 O61 2.105 . S
Sc45 O65 2.105 . S
Sc46 O47 2.025 . S
Sc46 O56 2.105 . S
Sc46 O58 2.105 . S
Sc46 O62 2.105 . S
Sc46 O64 2.105 . S
O47 Sc44 2.025 . S
O47 Sc45 2.025 . S
O47 Sc46 2.025 . S
C48 O54 1.268 . S
C48 O64 1.268 . S
C49 O55 1.268 . S
C49 O63 1.268 . S
C50 O56 1.268 . S
C50 O65 1.268 . S
C51 O57 1.268 . S
C51 O61 1.268 . S
C52 O58 1.268 . S
C52 O60 1.268 . S
C53 O59 1.268 . S
C53 O62 1.268 . S
O54 Sc44 2.105 . S
O54 C48 1.268 . S
O55 Sc45 2.105 . S
O55 C49 1.268 . S
O56 Sc46 2.105 . S
O56 C50 1.268 . S
O57 Sc44 2.105 . S
O57 C51 1.268 . S
O58 Sc46 2.105 . S
O58 C52 1.268 . S
O59 Sc45 2.105 . S
O59 C53 1.268 . S
O60 Sc44 2.105 . S
O60 C52 1.268 . S
O61 Sc45 2.105 . S
O61 C51 1.268 . S
O62 Sc46 2.105 . S
O62 C53 1.268 . S
O63 Sc44 2.105 . S
O63 C49 1.268 . S
O64 Sc46 2.105 . S
O64 C48 1.268 . S
O65 Sc45 2.105 . S
O65 C50 1.268 . S
Sc66 O69 2.025 . S
Sc66 O76 2.105 . S
Sc66 O79 2.105 . S
Sc66 O82 2.105 . S
Sc66 O85 2.105 . S
Sc67 O69 2.025 . S
Sc67 O77 2.105 . S
Sc67 O81 2.105 . S
Sc67 O83 2.105 . S
Sc67 O87 2.105 . S
Sc68 O69 2.025 . S
Sc68 O78 2.105 . S
Sc68 O80 2.105 . S
Sc68 O84 2.105 . S
Sc68 O86 2.105 . S
O69 Sc66 2.025 . S
O69 Sc67 2.025 . S
O69 Sc68 2.025 . S
C70 O76 1.268 . S
C70 O86 1.268 . S
C71 O77 1.268 . S
C71 O85 1.268 . S
C72 O78 1.268 . S
C72 O87 1.268 . S
C73 O79 1.268 . S
C73 O83 1.268 . S
C74 O80 1.268 . S
C74 O82 1.268 . S
C75 O81 1.268 . S
C75 O84 1.268 . S
O76 Sc66 2.105 . S
O76 C70 1.268 . S
O77 Sc67 2.105 . S
O77 C71 1.268 . S
O78 Sc68 2.105 . S
O78 C72 1.268 . S
O79 Sc66 2.105 . S
O79 C73 1.268 . S
O80 Sc68 2.105 . S
O80 C74 1.268 . S
O81 Sc67 2.105 . S
O81 C75 1.268 . S
O82 Sc66 2.105 . S
O82 C74 1.268 . S
O83 Sc67 2.105 . S
O83 C73 1.268 . S
O84 Sc68 2.105 . S
O84 C75 1.268 . S
O85 Sc66 2.105 . S
O85 C71 1.268 . S
O86 Sc68 2.105 . S
O86 C70 1.268 . S
O87 Sc67 2.105 . S
O87 C72 1.268 . S
Sc88 O91 2.025 . S
Sc88 O98 2.105 . S
Sc88 O101 2.105 . S
Sc88 O104 2.105 . S
Sc88 O107 2.105 . S
Sc89 O91 2.025 . S
Sc89 O99 2.105 . S
Sc89 O103 2.105 . S
Sc89 O105 2.105 . S
Sc89 O109 2.105 . S
Sc90 O91 2.025 . S
Sc90 O100 2.105 . S
Sc90 O102 2.105 . S
Sc90 O106 2.105 . S
Sc90 O108 2.105 . S
O91 Sc88 2.025 . S
O91 Sc89 2.025 . S
O91 Sc90 2.025 . S
C92 O98 1.268 . S
C92 O108 1.268 . S
C93 O99 1.268 . S
C93 O107 1.268 . S
C94 O100 1.268 . S
C94 O109 1.268 . S
C95 O101 1.268 . S
C95 O105 1.268 . S
C96 O102 1.268 . S
C96 O104 1.268 . S
C97 O103 1.268 . S
C97 O106 1.268 . S
O98 Sc88 2.105 . S
O98 C92 1.268 . S
O99 Sc89 2.105 . S
O99 C93 1.268 . S
O100 Sc90 2.105 . S
O100 C94 1.268 . S
O101 Sc88 2.105 . S
O101 C95 1.268 . S
O102 Sc90 2.105 . S
O102 C96 1.268 . S
O103 Sc89 2.105 . S
O103 C97 1.268 . S
O104 Sc88 2.105 . S
O104 C96 1.268 . S
O105 Sc89 2.105 . S
O105 C95 1.268 . S
O106 Sc90 2.105 . S
O106 C97 1.268 . S
O107 Sc88 2.105 . S
O107 C93 1.268 . S
O108 Sc90 2.105 . S
O108 C92 1.268 . S
O109 Sc89 2.105 . S
O109 C94 1.268 . S
Sc110 O113 2.025 . S
Sc110 O120 2.105 . S
Sc110 O123 2.105 . S
Sc110 O126 2.105 . S
Sc110 O129 2.105 . S
Sc111 O113 2.025 . S
Sc111 O121 2.105 . S
Sc111 O125 2.105 . S
Sc111 O127 2.105 . S
Sc111 O131 2.105 . S
Sc112 O113 2.025 . S
Sc112 O122 2.105 . S
Sc112 O124 2.105 . S
Sc112 O128 2.105 . S
Sc112 O130 2.105 . S
O113 Sc110 2.025 . S
O113 Sc111 2.025 . S
O113 Sc112 2.025 . S
C114 O120 1.268 . S
C114 O130 1.268 . S
C115 O121 1.268 . S
C115 O129 1.268 . S
C116 O122 1.268 . S
C116 O131 1.268 . S
C117 O123 1.268 . S
C117 O127 1.268 . S
C118 O124 1.268 . S
C118 O126 1.268 . S
C119 O125 1.268 . S
C119 O128 1.268 . S
O120 Sc110 2.105 . S
O120 C114 1.268 . S
O121 Sc111 2.105 . S
O121 C115 1.268 . S
O122 Sc112 2.105 . S
O122 C116 1.268 . S
O123 Sc110 2.105 . S
O123 C117 1.268 . S
O124 Sc112 2.105 . S
O124 C118 1.268 . S
O125 Sc111 2.105 . S
O125 C119 1.268 . S
O126 Sc110 2.105 . S
O126 C118 1.268 . S
O127 Sc111 2.105 . S
O127 C117 1.268 . S
O128 Sc112 2.105 . S
O128 C119 1.268 . S
O129 Sc110 2.105 . S
O129 C115 1.268 . S
O130 Sc112 2.105 . S
O130 C114 1.268 . S
O131 Sc111 2.105 . S
O131 C116 1.268 . S
C132 C133 1.369 . S
C132 C134 1.419 . S
C132 H136 0.930 . S
C133 C132 1.369 . S
C133 C142 1.429 . S
C134 C132 1.419 . S
C134 C135 1.363 . S
C134 H137 0.929 . S
C135 C134 1.363 . S
C135 C141 1.428 . S
H136 C132 0.930 . S
H137 C134 0.929 . S
S138 N139 1.613 . S
S138 N140 1.610 . S
N139 S138 1.613 . S
N139 C142 1.350 . S
N140 S138 1.610 . S
N140 C141 1.351 . S
C141 C135 1.428 . S
C141 N140 1.351 . S
C141 C142 1.434 . S
C142 C133 1.429 . S
C142 N139 1.350 . S
C142 C141 1.434 . S
C143 C144 1.369 . S
C143 C145 1.419 . S
C143 H147 0.930 . S
C144 C143 1.369 . S
C144 C153 1.429 . S
C145 C143 1.419 . S
C145 C146 1.363 . S
C145 H148 0.929 . S
C146 C145 1.363 . S
C146 C152 1.428 . S
H147 C143 0.930 . S
H148 C145 0.929 . S
S149 N150 1.613 . S
S149 N151 1.610 . S
N150 S149 1.613 . S
N150 C153 1.350 . S
N151 S149 1.610 . S
N151 C152 1.351 . S
C152 C146 1.428 . S
C152 N151 1.351 . S
C152 C153 1.434 . S
C153 C144 1.429 . S
C153 N150 1.350 . S
C153 C152 1.434 . S
C154 C155 1.369 . S
C154 C156 1.419 . S
C154 H158 0.930 . S
C155 C154 1.369 . S
C155 C164 1.429 . S
C156 C154 1.419 . S
C156 C157 1.363 . S
C156 H159 0.929 . S
C157 C156 1.363 . S
C157 C163 1.428 . S
H158 C154 0.930 . S
H159 C156 0.929 . S
S160 N161 1.613 . S
S160 N162 1.610 . S
N161 S160 1.613 . S
N161 C164 1.350 . S
N162 S160 1.610 . S
N162 C163 1.351 . S
C163 C157 1.428 . S
C163 N162 1.351 . S
C163 C164 1.434 . S
C164 C155 1.429 . S
C164 N161 1.350 . S
C164 C163 1.434 . S
C165 C166 1.369 . S
C165 C167 1.419 . S
C165 H169 0.930 . S
C166 C165 1.369 . S
C166 C175 1.429 . S
C167 C165 1.419 . S
C167 C168 1.363 . S
C167 H170 0.929 . S
C168 C167 1.363 . S
C168 C174 1.428 . S
H169 C165 0.930 . S
H170 C167 0.929 . S
S171 N172 1.613 . S
S171 N173 1.610 . S
N172 S171 1.613 . S
N172 C175 1.350 . S
N173 S171 1.610 . S
N173 C174 1.351 . S
C174 C168 1.428 . S
C174 N173 1.351 . S
C174 C175 1.434 . S
C175 C166 1.429 . S
C175 N172 1.350 . S
C175 C174 1.434 . S
C176 C177 1.369 . S
C176 C178 1.419 . S
C176 H180 0.930 . S
C177 C176 1.369 . S
C177 C186 1.429 . S
C178 C176 1.419 . S
C178 C179 1.363 . S
C178 H181 0.929 . S
C179 C178 1.363 . S
C179 C185 1.428 . S
H180 C176 0.930 . S
H181 C178 0.929 . S
S182 N183 1.613 . S
S182 N184 1.610 . S
N183 S182 1.613 . S
N183 C186 1.350 . S
N184 S182 1.610 . S
N184 C185 1.351 . S
C185 C179 1.428 . S
C185 N184 1.351 . S
C185 C186 1.434 . S
C186 C177 1.429 . S
C186 N183 1.350 . S
C186 C185 1.434 . S
C187 C188 1.369 . S
C187 C189 1.419 . S
C187 H191 0.930 . S
C188 C187 1.369 . S
C188 C197 1.429 . S
C189 C187 1.419 . S
C189 C190 1.363 . S
C189 H192 0.929 . S
C190 C189 1.363 . S
C190 C196 1.428 . S
H191 C187 0.930 . S
H192 C189 0.929 . S
S193 N194 1.613 . S
S193 N195 1.610 . S
N194 S193 1.613 . S
N194 C197 1.350 . S
N195 S193 1.610 . S
N195 C196 1.351 . S
C196 C190 1.428 . S
C196 N195 1.351 . S
C196 C197 1.434 . S
C197 C188 1.429 . S
C197 N194 1.350 . S
C197 C196 1.434 . S
C198 C199 1.369 1_554 S
C198 C200 1.419 . S
C198 H202 0.930 . S
C199 C198 1.369 1_556 S
C199 C208 1.429 . S
C200 C198 1.419 . S
C200 C201 1.363 . S
C200 H203 0.929 . S
C201 C200 1.363 . S
C201 C207 1.428 1_554 S
H202 C198 0.930 . S
H203 C200 0.929 . S
S204 N205 1.613 . S
S204 N206 1.610 . S
N205 S204 1.613 . S
N205 C208 1.350 . S
N206 S204 1.610 . S
N206 C207 1.351 . S
C207 C201 1.428 1_556 S
C207 N206 1.351 . S
C207 C208 1.434 . S
C208 C199 1.429 . S
C208 N205 1.350 . S
C208 C207 1.434 . S
C209 C210 1.369 . S
C209 C211 1.419 1_655 S
C209 H213 0.930 . S
C210 C209 1.369 . S
C210 C219 1.429 . S
C211 C209 1.419 1_455 S
C211 C212 1.363 . S
C211 H214 0.929 . S
C212 C211 1.363 . S
C212 C218 1.431 1_455 S
H213 C209 0.930 . S
H214 C211 0.929 . S
S215 N216 1.613 . S
S215 N217 1.610 . S
N216 S215 1.613 . S
N216 C219 1.350 . S
N217 S215 1.610 . S
N217 C218 1.350 . S
C218 C212 1.431 1_655 S
C218 N217 1.350 . S
C218 C219 1.432 . S
C219 C210 1.429 . S
C219 N216 1.350 . S
C219 C218 1.432 . S
C220 C221 1.369 . S
C220 C222 1.419 1_546 S
C220 H224 0.930 . S
C221 C220 1.369 . S
C221 C230 1.429 . S
C222 C220 1.419 1_564 S
C222 C223 1.363 . S
C222 H225 0.929 . S
C223 C222 1.363 . S
C223 C229 1.428 . S
H224 C220 0.930 . S
H225 C222 0.929 . S
S226 N227 1.613 1_565 S
S226 N228 1.610 1_556 S
N227 S226 1.613 1_545 S
N227 C230 1.350 . S
N228 S226 1.610 1_554 S
N228 C229 1.351 . S
C229 C223 1.428 . S
C229 N228 1.351 . S
C229 C230 1.434 1_564 S
C230 C221 1.429 . S
C230 N227 1.350 . S
C230 C229 1.434 1_546 S
C231 C232 1.369 . S
C231 C233 1.419 . S
C231 H235 0.930 . S
C232 C231 1.369 . S
C232 C241 1.429 . S
C233 C231 1.419 . S
C233 C234 1.363 . S
C233 H236 0.929 . S
C234 C233 1.363 . S
C234 C240 1.428 . S
H235 C231 0.930 . S
H236 C233 0.929 . S
S237 N238 1.613 . S
S237 N239 1.610 . S
N238 S237 1.613 . S
N238 C241 1.350 . S
N239 S237 1.610 . S
N239 C240 1.351 . S
C240 C234 1.428 . S
C240 N239 1.351 . S
C240 C241 1.434 . S
C241 C232 1.429 . S
C241 N238 1.350 . S
C241 C240 1.434 . S
C242 C243 1.369 1_554 S
C242 C244 1.419 1_655 S
C242 H246 0.930 . S
C243 C242 1.369 1_556 S
C243 C252 1.429 . S
C244 C242 1.419 1_455 S
C244 C245 1.363 . S
C244 H247 0.929 . S
C245 C244 1.363 . S
C245 C251 1.428 1_554 S
H246 C242 0.930 . S
H247 C244 0.929 . S
S248 N249 1.613 1_455 S
S248 N250 1.610 . S
N249 S248 1.613 1_655 S
N249 C252 1.350 . S
N250 S248 1.610 . S
N250 C251 1.351 . S
C251 C245 1.428 1_556 S
C251 N250 1.351 . S
C251 C252 1.434 1_455 S
C252 C243 1.429 . S
C252 N249 1.350 . S
C252 C251 1.434 1_655 S
C253 C254 1.369 . S
C253 C255 1.419 1_545 S
C253 H257 0.930 . S
C254 C253 1.369 . S
C254 C263 1.437 . S
C255 C253 1.419 1_565 S
C255 C256 1.363 . S
C255 H258 0.929 . S
C256 C255 1.363 . S
C256 C262 1.428 . S
H257 C253 0.930 . S
H258 C255 0.929 . S
S259 N260 1.613 . S
S259 N261 1.610 . S
N260 S259 1.613 . S
N260 C263 1.355 1_565 S
N261 S259 1.610 . S
N261 C262 1.351 . S
C262 C256 1.428 . S
C262 N261 1.351 . S
C262 C263 1.419 1_565 S
C263 C254 1.437 . S
C263 N260 1.355 1_545 S
C263 C262 1.419 1_545 S
C264 C265 1.369 . S
C264 C266 1.419 1_554 S
C264 H268 0.930 . S
C265 C264 1.369 . S
C265 C274 1.429 . S
C266 C264 1.419 1_556 S
C266 C267 1.363 . S
C266 H269 0.929 . S
C267 C266 1.363 . S
C267 C273 1.428 . S
H268 C264 0.930 . S
H269 C266 0.929 . S
S270 N271 1.618 . S
S270 N272 1.606 1_554 S
N271 S270 1.618 . S
N271 C274 1.350 . S
N272 S270 1.606 1_556 S
N272 C273 1.351 . S
C273 C267 1.428 . S
C273 N272 1.351 . S
C273 C274 1.434 1_556 S
C274 C265 1.429 . S
C274 N271 1.350 . S
C274 C273 1.434 1_554 S
C275 C276 1.369 . S
C275 C277 1.419 . S
C275 H279 0.930 . S
C276 C275 1.369 . S
C276 C285 1.429 1_655 S
C277 C275 1.419 . S
C277 C278 1.363 1_655 S
C277 H280 0.929 . S
C278 C277 1.363 1_455 S
C278 C284 1.428 . S
H279 C275 0.930 . S
H280 C277 0.929 . S
S281 N282 1.613 . S
S281 N283 1.610 . S
N282 S281 1.613 . S
N282 C285 1.350 . S
N283 S281 1.610 . S
N283 C284 1.351 . S
C284 C278 1.428 . S
C284 N283 1.351 . S
C284 C285 1.434 . S
C285 C276 1.429 1_455 S
C285 N282 1.350 . S
C285 C284 1.434 . S
C286 C287 1.369 1_545 S
C286 C288 1.419 . S
C286 H290 0.930 . S
C287 C286 1.369 1_565 S
C287 C296 1.429 1_554 S
C288 C286 1.419 . S
C288 C289 1.363 1_554 S
C288 H291 0.929 . S
C289 C288 1.363 1_556 S
C289 C295 1.428 1_545 S
H290 C286 0.930 . S
H291 C288 0.929 . S
S292 N293 1.613 . S
S292 N294 1.610 . S
N293 S292 1.613 . S
N293 C296 1.350 . S
N294 S292 1.610 . S
N294 C295 1.351 . S
C295 C289 1.428 1_565 S
C295 N294 1.351 . S
C295 C296 1.434 . S
C296 C287 1.429 1_556 S
C296 N293 1.350 . S
C296 C295 1.434 . S
C297 C298 1.369 . S
C297 C299 1.419 . S
C297 H301 0.930 . S
C298 C297 1.369 . S
C298 C307 1.429 . S
C299 C297 1.419 . S
C299 C300 1.363 . S
C299 H302 0.929 . S
C300 C299 1.363 . S
C300 C306 1.428 . S
H301 C297 0.930 . S
H302 C299 0.929 . S
S303 N304 1.613 . S
S303 N305 1.610 . S
N304 S303 1.613 . S
N304 C307 1.350 . S
N305 S303 1.610 . S
N305 C306 1.351 . S
C306 C300 1.428 . S
C306 N305 1.351 . S
C306 C307 1.434 . S
C307 C298 1.429 . S
C307 N304 1.350 . S
C307 C306 1.434 . S
C308 C309 1.369 . S
C308 C310 1.419 1_656 S
C308 H312 0.930 . S
C309 C308 1.369 . S
C309 C318 1.429 . S
C310 C308 1.419 1_454 S
C310 C311 1.363 . S
C310 H313 0.929 . S
C311 C310 1.363 . S
C311 C317 1.428 . S
H312 C308 0.930 . S
H313 C310 0.929 . S
S314 N315 1.613 1_455 S
S314 N316 1.610 1_556 S
N315 S314 1.613 1_655 S
N315 C318 1.350 . S
N316 S314 1.610 1_554 S
N316 C317 1.351 . S
C317 C311 1.428 . S
C317 N316 1.351 . S
C317 C318 1.434 1_454 S
C318 C309 1.429 . S
C318 N315 1.350 . S
C318 C317 1.434 1_656 S
C319 C320 1.369 . S
C319 C321 1.419 . S
C319 H323 0.930 . S
C320 C319 1.369 . S
C320 C329 1.429 1_565 S
C321 C319 1.419 . S
C321 C322 1.363 1_565 S
C321 H324 0.929 . S
C322 C321 1.363 1_545 S
C322 C328 1.428 . S
H323 C319 0.930 . S
H324 C321 0.929 . S
S325 N326 1.613 . S
S325 N327 1.610 . S
N326 S325 1.613 . S
N326 C329 1.350 . S
N327 S325 1.610 . S
N327 C328 1.351 . S
C328 C322 1.428 . S
C328 N327 1.351 . S
C328 C329 1.434 . S
C329 C320 1.429 1_545 S
C329 N326 1.350 . S
C329 C328 1.434 . S
C133 C5 1.388 . S
C135 C94 1.388 . S
C144 C28 1.390 . S
C146 C116 1.390 . S
C155 C7 1.392 . S
C157 C50 1.391 . S
C166 C72 1.388 . S
C168 C31 1.388 . S
C177 C53 1.383 . S
C179 C97 1.384 . S
C188 C75 1.383 . S
C190 C119 1.384 . S
C199 C117 1.543 . S
C201 C8 1.539 . S
C210 C29 1.539 . S
C212 C6 1.542 . S
C221 C26 1.540 . S
C223 C51 1.539 . S
C232 C48 1.539 . S
C234 C73 1.539 . S
C243 C70 1.543 . S
C245 C92 1.542 . S
C254 C114 1.541 . S
C256 C95 1.539 . S
C265 C49 1.538 . S
C267 C74 1.540 . S
C276 C71 1.542 . S
C278 C93 1.539 . S
C287 C96 1.540 . S
C289 C115 1.542 . S
C298 C118 1.543 . S
C300 C9 1.540 . S
C309 C30 1.538 . S
C311 C4 1.539 . S
C320 C52 1.542 . S
C322 C27 1.539 . S
