# Generated by pormake.
# Topology umd, (4)-cn, num edge types: 1
# Building blocks:
#     Node 0, Type 0, BuildingBlock: QUQFOY_clean_sbu_3, # of connection points: 4
#     Node 1, Type 0, BuildingBlock: QUQFOY_clean_sbu_3, # of connection points: 4
#     Node 2, Type 0, BuildingBlock: QUQFOY_clean_sbu_3, # of connection points: 4
#     Node 3, Type 0, BuildingBlock: QUQFOY_clean_sbu_3, # of connection points: 4
#     Node 4, Type 0, BuildingBlock: QUQFOY_clean_sbu_3, # of connection points: 4
#     Node 5, Type 0, BuildingBlock: QUQFOY_clean_sbu_3, # of connection points: 4
#     Node 6, Type 0, BuildingBlock: QUQFOY_clean_sbu_3, # of connection points: 4
#     Node 7, Type 0, BuildingBlock: QUQFOY_clean_sbu_3, # of connection points: 4
#     Node 8, Type 0, BuildingBlock: QUQFOY_clean_sbu_3, # of connection points: 4
#     Node 9, Type 0, BuildingBlock: QUQFOY_clean_sbu_3, # of connection points: 4
#     Node 10, Type 0, BuildingBlock: QUQFOY_clean_sbu_3, # of connection points: 4
#     Node 11, Type 0, BuildingBlock: QUQFOY_clean_sbu_3, # of connection points: 4
#     Node 12, Type 0, BuildingBlock: QUQFOY_clean_sbu_3, # of connection points: 4
#     Node 13, Type 0, BuildingBlock: QUQFOY_clean_sbu_3, # of connection points: 4
#     Node 14, Type 0, BuildingBlock: QUQFOY_clean_sbu_3, # of connection points: 4
#     Node 15, Type 0, BuildingBlock: QUQFOY_clean_sbu_3, # of connection points: 4
#     Edge 16, Type (0, 0), BuildingBlock: TEMPAE_clean_linker_10, # of connection points: 2
#     Edge 17, Type (0, 0), BuildingBlock: TEMPAE_clean_linker_10, # of connection points: 2
#     Edge 18, Type (0, 0), BuildingBlock: TEMPAE_clean_linker_10, # of connection points: 2
#     Edge 19, Type (0, 0), BuildingBlock: TEMPAE_clean_linker_10, # of connection points: 2
#     Edge 20, Type (0, 0), BuildingBlock: TEMPAE_clean_linker_10, # of connection points: 2
#     Edge 21, Type (0, 0), BuildingBlock: TEMPAE_clean_linker_10, # of connection points: 2
#     Edge 22, Type (0, 0), BuildingBlock: TEMPAE_clean_linker_10, # of connection points: 2
#     Edge 23, Type (0, 0), BuildingBlock: TEMPAE_clean_linker_10, # of connection points: 2
#     Edge 24, Type (0, 0), BuildingBlock: TEMPAE_clean_linker_10, # of connection points: 2
#     Edge 25, Type (0, 0), BuildingBlock: TEMPAE_clean_linker_10, # of connection points: 2
#     Edge 26, Type (0, 0), BuildingBlock: TEMPAE_clean_linker_10, # of connection points: 2
#     Edge 27, Type (0, 0), BuildingBlock: TEMPAE_clean_linker_10, # of connection points: 2
#     Edge 28, Type (0, 0), BuildingBlock: TEMPAE_clean_linker_10, # of connection points: 2
#     Edge 29, Type (0, 0), BuildingBlock: TEMPAE_clean_linker_10, # of connection points: 2
#     Edge 30, Type (0, 0), BuildingBlock: TEMPAE_clean_linker_10, # of connection points: 2
#     Edge 31, Type (0, 0), BuildingBlock: TEMPAE_clean_linker_10, # of connection points: 2
#     Edge 32, Type (0, 0), BuildingBlock: TEMPAE_clean_linker_10, # of connection points: 2
#     Edge 33, Type (0, 0), BuildingBlock: TEMPAE_clean_linker_10, # of connection points: 2
#     Edge 34, Type (0, 0), BuildingBlock: TEMPAE_clean_linker_10, # of connection points: 2
#     Edge 35, Type (0, 0), BuildingBlock: TEMPAE_clean_linker_10, # of connection points: 2
#     Edge 36, Type (0, 0), BuildingBlock: TEMPAE_clean_linker_10, # of connection points: 2
#     Edge 37, Type (0, 0), BuildingBlock: TEMPAE_clean_linker_10, # of connection points: 2
#     Edge 38, Type (0, 0), BuildingBlock: TEMPAE_clean_linker_10, # of connection points: 2
#     Edge 39, Type (0, 0), BuildingBlock: TEMPAE_clean_linker_10, # of connection points: 2
#     Edge 40, Type (0, 0), BuildingBlock: TEMPAE_clean_linker_10, # of connection points: 2
#     Edge 41, Type (0, 0), BuildingBlock: TEMPAE_clean_linker_10, # of connection points: 2
#     Edge 42, Type (0, 0), BuildingBlock: TEMPAE_clean_linker_10, # of connection points: 2
#     Edge 43, Type (0, 0), BuildingBlock: TEMPAE_clean_linker_10, # of connection points: 2
#     Edge 44, Type (0, 0), BuildingBlock: TEMPAE_clean_linker_10, # of connection points: 2
#     Edge 45, Type (0, 0), BuildingBlock: TEMPAE_clean_linker_10, # of connection points: 2
#     Edge 46, Type (0, 0), BuildingBlock: TEMPAE_clean_linker_10, # of connection points: 2
#     Edge 47, Type (0, 0), BuildingBlock: TEMPAE_clean_linker_10, # of connection points: 2
# Relax obj value: 0.099
# Max RMSD: 0.237
# Mean RMSD: 0.237
data_MOF--net-umd--node1-QUQFOY_clean_sbu_3--edge1-TEMPAE_clean_linker_10
_symmetry_space_group_name_H-M    P1
_symmetry_Int_Tables_number       1
_symmetry_cell_setting            triclinic
loop_
_symmetry_equiv_pos_as_xyz
'x, y, z'
_cell_length_a     41.152015
_cell_length_b     41.117022
_cell_length_c     60.421822
_cell_angle_alpha  89.936615
_cell_angle_beta   90.109937
_cell_angle_gamma 90.058841
loop_
_atom_site_label
_atom_site_type_symbol
_atom_site_fract_x
_atom_site_fract_y
_atom_site_fract_z
_atom_type_partial_charge
C0 C 0.21732 0.47467 0.13136 0.0
O1 O 0.20906 0.49924 0.11994 0.0
Cd2 Cd 0.18709 0.49437 0.08316 0.0
O3 O 0.21504 0.44611 0.12344 0.0
Cd4 Cd 0.19837 0.41803 0.08926 0.0
C5 C 0.12126 0.44608 0.09504 0.0
O6 O 0.21822 0.45676 0.06125 0.0
O7 O 0.18758 0.4169 0.05034 0.0
O8 O 0.24655 0.38474 0.09024 0.0
C9 C 0.20505 0.44124 0.04538 0.0
O10 O 0.13272 0.47388 0.09006 0.0
C11 C 0.23219 0.35767 0.09271 0.0
O12 O 0.13946 0.42109 0.09646 0.0
O13 O 0.20137 0.35835 0.09409 0.0
C14 C 0.46969 0.20031 0.64501 0.0
O15 O 0.44512 0.19643 0.63256 0.0
Cd16 Cd 0.45135 0.18124 0.59399 0.0
O17 O 0.49816 0.19509 0.6378 0.0
Cd18 Cd 0.52614 0.1774 0.60426 0.0
C19 C 0.4853 0.10601 0.60036 0.0
O20 O 0.49536 0.21063 0.5769 0.0
O21 O 0.53177 0.17698 0.56492 0.0
O22 O 0.56477 0.21537 0.61962 0.0
C23 C 0.5112 0.199 0.56069 0.0
O24 O 0.46173 0.12327 0.59342 0.0
C25 C 0.59009 0.19927 0.61492 0.0
O26 O 0.51136 0.11928 0.60745 0.0
O27 O 0.58594 0.17184 0.60564 0.0
C28 C 0.78587 0.46848 0.13878 0.0
O29 O 0.77788 0.44301 0.12831 0.0
Cd30 Cd 0.80078 0.43942 0.09191 0.0
O31 O 0.79948 0.4919 0.12865 0.0
Cd32 Cd 0.81097 0.50961 0.09054 0.0
C33 C 0.87922 0.46886 0.09694 0.0
O34 O 0.77541 0.47668 0.06614 0.0
O35 O 0.81951 0.4968 0.05219 0.0
O36 O 0.77196 0.55025 0.10094 0.0
C37 C 0.79234 0.48301 0.04909 0.0
O38 O 0.86035 0.44437 0.09541 0.0
C39 C 0.78687 0.57458 0.09303 0.0
O40 O 0.86796 0.49765 0.09626 0.0
O41 O 0.81395 0.56918 0.0836 0.0
C42 C 0.47753 0.76817 0.62972 0.0
O43 O 0.5027 0.77273 0.61802 0.0
Cd44 Cd 0.49796 0.78874 0.57948 0.0
O45 O 0.4494 0.77267 0.62167 0.0
Cd46 Cd 0.42311 0.78987 0.58737 0.0
C47 C 0.46242 0.86241 0.58793 0.0
O48 O 0.45609 0.75856 0.56034 0.0
O49 O 0.42048 0.79282 0.54787 0.0
O50 O 0.38453 0.75028 0.60066 0.0
C51 C 0.44107 0.77074 0.54389 0.0
O52 O 0.48679 0.84666 0.58069 0.0
C53 C 0.35915 0.76619 0.59571 0.0
O54 O 0.43636 0.84769 0.59345 0.0
O55 O 0.36321 0.79416 0.58715 0.0
C56 C 0.21274 0.4706 0.29556 0.0
O57 O 0.20627 0.44458 0.30594 0.0
Cd58 Cd 0.18752 0.44454 0.3437 0.0
O59 O 0.20886 0.49809 0.30475 0.0
Cd60 Cd 0.1893 0.51889 0.34042 0.0
C61 C 0.11535 0.48448 0.33722 0.0
O62 O 0.21511 0.4822 0.36758 0.0
O63 O 0.17267 0.50938 0.37799 0.0
O64 O 0.23321 0.55735 0.34462 0.0
C65 C 0.1965 0.49134 0.38313 0.0
O66 O 0.13024 0.45871 0.34303 0.0
C67 C 0.21655 0.583 0.34215 0.0
O68 O 0.131 0.51041 0.33258 0.0
O69 O 0.18629 0.57931 0.33863 0.0
C70 C 0.46514 0.21187 0.80977 0.0
O71 O 0.48989 0.20505 0.82146 0.0
Cd72 Cd 0.48687 0.18874 0.85991 0.0
O73 O 0.43675 0.21035 0.81795 0.0
Cd74 Cd 0.41044 0.19562 0.85296 0.0
C75 C 0.44279 0.11945 0.85124 0.0
O76 O 0.44787 0.21986 0.88022 0.0
O77 O 0.41069 0.187 0.8923 0.0
O78 O 0.37595 0.24264 0.85004 0.0
C79 C 0.43364 0.20663 0.8966 0.0
O80 O 0.46892 0.13273 0.85804 0.0
C81 C 0.34912 0.2275 0.84898 0.0
O82 O 0.41792 0.13656 0.84626 0.0
O83 O 0.35039 0.19658 0.84916 0.0
C84 C 0.7786 0.47863 0.30428 0.0
O85 O 0.77424 0.50517 0.3145 0.0
Cd86 Cd 0.79555 0.50758 0.35172 0.0
O87 O 0.78881 0.45377 0.31464 0.0
Cd88 Cd 0.80092 0.43468 0.35205 0.0
C89 C 0.87117 0.47263 0.34468 0.0
O90 O 0.76991 0.47053 0.37718 0.0
O91 O 0.81363 0.44772 0.38986 0.0
O92 O 0.7584 0.39621 0.34404 0.0
C93 C 0.788 0.46386 0.39365 0.0
O94 O 0.85439 0.49784 0.34911 0.0
C95 C 0.77292 0.37107 0.35112 0.0
O96 O 0.85769 0.44483 0.34291 0.0
O97 O 0.80148 0.37503 0.3588 0.0
C98 C 0.45874 0.77995 0.79334 0.0
O99 O 0.4321 0.78085 0.80381 0.0
Cd100 Cd 0.43357 0.79886 0.8419 0.0
O101 O 0.48497 0.78846 0.80274 0.0
Cd102 Cd 0.50518 0.8077 0.83845 0.0
C103 C 0.46237 0.87642 0.83597 0.0
O104 O 0.47452 0.77304 0.86491 0.0
O105 O 0.49739 0.81687 0.87731 0.0
O106 O 0.54576 0.76935 0.82701 0.0
C107 C 0.48319 0.7902 0.88141 0.0
O108 O 0.43912 0.85786 0.84181 0.0
C109 C 0.57039 0.78489 0.83382 0.0
O110 O 0.49008 0.86457 0.8311 0.0
O111 O 0.56525 0.81222 0.84302 0.0
C112 C 0.74958 0.49141 0.8064 0.0
O113 O 0.75764 0.46744 0.81848 0.0
Cd114 Cd 0.77373 0.47235 0.85689 0.0
O115 O 0.75014 0.52023 0.81398 0.0
Cd116 Cd 0.76464 0.54867 0.8483 0.0
C117 C 0.84173 0.51861 0.84838 0.0
O118 O 0.74106 0.51141 0.87586 0.0
O119 O 0.77207 0.55028 0.88771 0.0
O120 O 0.71739 0.58275 0.84459 0.0
C121 C 0.75337 0.52663 0.89215 0.0
O122 O 0.82908 0.49231 0.85544 0.0
C123 C 0.73237 0.60966 0.84327 0.0
O124 O 0.82403 0.54266 0.84256 0.0
O125 O 0.76327 0.60854 0.84359 0.0
C126 C 0.48502 0.77228 0.29359 0.0
O127 O 0.50902 0.76606 0.30606 0.0
Cd128 Cd 0.50646 0.78647 0.34348 0.0
O129 O 0.45901 0.78373 0.30173 0.0
Cd130 Cd 0.43532 0.79331 0.33855 0.0
C131 C 0.47397 0.86361 0.33758 0.0
O132 O 0.46627 0.76063 0.36619 0.0
O133 O 0.44249 0.80467 0.37726 0.0
O134 O 0.39864 0.75079 0.3274 0.0
C135 C 0.45736 0.77864 0.38216 0.0
O136 O 0.49796 0.84562 0.34292 0.0
C137 C 0.37253 0.76462 0.33326 0.0
O138 O 0.44649 0.8511 0.33276 0.0
O139 O 0.37503 0.79301 0.34149 0.0
C140 C 0.1802 0.50203 0.79849 0.0
O141 O 0.18661 0.52687 0.8101 0.0
Cd142 Cd 0.16368 0.52718 0.84681 0.0
O143 O 0.16684 0.47735 0.80724 0.0
Cd144 Cd 0.15175 0.45572 0.8435 0.0
C145 C 0.08483 0.49981 0.83913 0.0
O146 O 0.1868 0.48552 0.86998 0.0
O147 O 0.14203 0.46459 0.8823 0.0
O148 O 0.19036 0.41539 0.83194 0.0
C149 C 0.16911 0.478 0.88643 0.0
O150 O 0.10408 0.52297 0.8442 0.0
C151 C 0.17489 0.39064 0.83865 0.0
O152 O 0.0957 0.47118 0.83597 0.0
O153 O 0.14747 0.39563 0.84773 0.0
C154 C 0.49838 0.20198 0.30905 0.0
O155 O 0.47071 0.20454 0.31807 0.0
Cd156 Cd 0.46458 0.18263 0.35509 0.0
O157 O 0.5225 0.19224 0.32036 0.0
Cd158 Cd 0.53693 0.17758 0.35833 0.0
C159 C 0.49909 0.10694 0.34973 0.0
O160 O 0.49892 0.20626 0.38312 0.0
O161 O 0.5216 0.16203 0.39525 0.0
O162 O 0.57394 0.22244 0.36173 0.0
C163 C 0.505 0.18734 0.39929 0.0
O164 O 0.4736 0.12382 0.35299 0.0
C165 C 0.59998 0.20606 0.36253 0.0
O166 O 0.52702 0.12036 0.34906 0.0
O167 O 0.59731 0.17526 0.36125 0.0
C168 C 0.76089 0.48685 0.64199 0.0
O169 O 0.76752 0.51212 0.63081 0.0
Cd170 Cd 0.78933 0.50814 0.59391 0.0
O171 O 0.76512 0.45874 0.63378 0.0
Cd172 Cd 0.78385 0.43325 0.59933 0.0
C173 C 0.85926 0.46588 0.60369 0.0
O174 O 0.76023 0.46971 0.57087 0.0
O175 O 0.79435 0.43239 0.5606 0.0
O176 O 0.73804 0.39695 0.59933 0.0
C177 C 0.77429 0.45444 0.55526 0.0
O178 O 0.84566 0.4929 0.59933 0.0
C179 C 0.75373 0.37097 0.60299 0.0
O180 O 0.84277 0.43972 0.60527 0.0
O181 O 0.78434 0.37357 0.60535 0.0
C182 C 0.50339 0.76159 0.12796 0.0
O183 O 0.47769 0.76207 0.11631 0.0
Cd184 Cd 0.47976 0.78087 0.07826 0.0
O185 O 0.53088 0.76678 0.11908 0.0
Cd186 Cd 0.55541 0.77591 0.08262 0.0
C187 C 0.52407 0.85136 0.08517 0.0
O188 O 0.51719 0.75065 0.05609 0.0
O189 O 0.55266 0.78504 0.04347 0.0
O190 O 0.58821 0.72789 0.0863 0.0
C191 C 0.53037 0.7645 0.03952 0.0
O192 O 0.49735 0.83754 0.08008 0.0
C193 C 0.61562 0.74202 0.08565 0.0
O194 O 0.54974 0.83475 0.08868 0.0
O195 O 0.61549 0.77291 0.08429 0.0
C196 C 0.19818 0.48983 0.63419 0.0
O197 O 0.20165 0.46227 0.62512 0.0
Cd198 Cd 0.17744 0.4563 0.58884 0.0
O199 O 0.18706 0.51353 0.62304 0.0
Cd200 Cd 0.17112 0.5294 0.58571 0.0
C201 C 0.10139 0.48947 0.59481 0.0
O202 O 0.20054 0.49168 0.56089 0.0
O203 O 0.16058 0.52052 0.54761 0.0
O204 O 0.21449 0.56815 0.58384 0.0
C205 C 0.18439 0.50161 0.54418 0.0
O206 O 0.11906 0.4641 0.59402 0.0
C207 C 0.19714 0.59357 0.58456 0.0
O208 O 0.11372 0.51768 0.5924 0.0
O209 O 0.16654 0.58965 0.586 0.0
C210 C 0.50847 0.18712 0.14384 0.0
O211 O 0.53259 0.19487 0.13195 0.0
Cd212 Cd 0.53147 0.17352 0.09467 0.0
O213 O 0.48377 0.1738 0.13509 0.0
Cd214 Cd 0.46216 0.16176 0.09818 0.0
C215 C 0.50486 0.09429 0.10015 0.0
O216 O 0.49056 0.19753 0.0712 0.0
O217 O 0.47085 0.15182 0.05943 0.0
O218 O 0.42222 0.20055 0.10991 0.0
C219 C 0.4829 0.17943 0.05495 0.0
O220 O 0.52791 0.11369 0.09518 0.0
C221 C 0.39739 0.18506 0.10334 0.0
O222 O 0.47655 0.10516 0.1043 0.0
O223 O 0.40219 0.15754 0.09431 0.0
C224 C 0.06697 0.42474 0.08432 0.0
C225 C 0.0861 0.44336 0.09867 0.0
C226 C 0.03291 0.42675 0.08505 0.0
C227 C 0.0179 0.44712 0.10095 0.0
C228 C 0.03731 0.46432 0.11639 0.0
C229 C 0.07126 0.46274 0.11475 0.0
C230 C 0.01312 0.40875 0.06792 0.0
C231 C 0.02228 0.48546 0.13403 0.0
C232 C 0.93598 0.48491 0.08779 0.0
C233 C 0.91461 0.46368 0.09858 0.0
C234 C 0.96961 0.47941 0.08814 0.0
C235 C 0.9822 0.45269 0.10024 0.0
C236 C 0.96073 0.43163 0.11164 0.0
C237 C 0.92707 0.43705 0.11033 0.0
C238 C -0.00838 0.50194 0.07527 0.0
C239 C 0.97331 0.40362 0.12536 0.0
H240 H 0.07867 0.41017 0.0717 0.0
H241 H 0.08628 0.47718 0.12577 0.0
H242 H -0.00616 0.39411 0.07598 0.0
H243 H 0.00089 0.42654 0.05688 0.0
H244 H 0.02831 0.39238 0.05763 0.0
H245 H 0.04045 0.49366 0.14645 0.0
H246 H 0.01121 0.50727 0.12627 0.0
H247 H 0.00261 0.47209 0.1427 0.0
H248 H 0.9263 0.50531 0.07851 0.0
H249 H 0.9105 0.42075 0.1188 0.0
H250 H 0.00654 0.48772 0.06345 0.0
H251 H 0.0086 0.51448 0.0867 0.0
H252 H 0.97782 0.52064 0.06588 0.0
H253 H -0.01313 0.38639 0.11473 0.0
H254 H 0.95345 0.39016 0.1338 0.0
H255 H -0.00945 0.41277 0.13806 0.0
C256 C 0.44544 0.91506 0.60528 0.0
C257 C 0.46514 0.89812 0.59031 0.0
C258 C 0.44901 0.94878 0.60822 0.0
C259 C 0.47234 0.96596 0.59555 0.0
C260 C 0.49207 0.94899 0.58028 0.0
C261 C 0.48844 0.91526 0.57801 0.0
C262 C 0.42788 0.96601 0.62489 0.0
C263 C 0.51671 0.96653 0.56611 0.0
C264 C 0.45909 0.05596 0.58539 0.0
C265 C 0.48212 0.07016 0.59957 0.0
C266 C 0.45561 0.02213 0.58402 0.0
C267 C 0.47523 0.00191 0.59746 0.0
C268 C 0.49822 0.01603 0.61208 0.0
C269 C 0.50165 0.05004 0.61279 0.0
C270 C 0.43131 0.00802 0.56789 0.0
C271 C 0.5192 -0.00481 0.62691 0.0
H272 H 0.42763 0.90187 0.61498 0.0
H273 H 0.50365 0.90232 0.56634 0.0
H274 H 0.4433 0.97943 0.6369 0.0
H275 H 0.41234 -0.01582 0.61639 0.0
H276 H 0.41199 0.94893 0.63416 0.0
H277 H 0.53025 0.94971 0.5551 0.0
H278 H 0.50433 -0.01497 0.55571 0.0
H279 H 0.53443 0.97958 0.57674 0.0
H280 H 0.44407 0.07133 0.57498 0.0
H281 H 0.51932 0.06089 0.62388 0.0
H282 H 0.41349 -0.00741 0.57679 0.0
H283 H 0.44398 -0.00777 0.55578 0.0
H284 H 0.41786 0.02714 0.55865 0.0
H285 H 0.5037 0.97903 0.63715 0.0
H286 H 0.53482 0.00996 0.63805 0.0
H287 H 0.53501 0.97935 0.61671 0.0
C288 C 0.06171 0.50398 0.32249 0.0
C289 C 0.07944 0.48419 0.33704 0.0
C290 C 0.02754 0.50294 0.32218 0.0
C291 C 0.0109 0.48238 0.33724 0.0
C292 C 0.02879 0.46283 0.35219 0.0
C293 C 0.0628 0.46365 0.35169 0.0
C294 C 0.00925 0.52353 0.30565 0.0
C295 C 0.01201 0.44126 0.36892 0.0
C296 C 0.92358 0.50061 0.35303 0.0
C297 C 0.9067 0.47588 0.34192 0.0
C298 C 0.95746 0.50338 0.35134 0.0
C299 C 0.97476 0.48142 0.33772 0.0
C300 C 0.95769 0.45711 0.32584 0.0
C301 C 0.92387 0.45431 0.32834 0.0
C302 C 0.97485 0.52904 0.36477 0.0
C303 C 0.9752 0.43375 0.31075 0.0
H304 H 0.07456 0.51973 0.31107 0.0
H305 H 0.07644 0.44858 0.36314 0.0
H306 H -0.00663 0.50785 0.29531 0.0
H307 H -0.00674 0.54095 0.31442 0.0
H308 H 0.0258 0.53743 0.29463 0.0
H309 H 0.02951 0.42831 0.37982 0.0
H310 H -0.00442 0.45602 0.37942 0.0
H311 H -0.00319 0.42292 0.3603 0.0
H312 H 0.91037 0.51723 0.36363 0.0
H313 H 0.91082 0.43539 0.31953 0.0
H314 H -0.01003 0.54454 0.35384 0.0
H315 H -0.00855 0.51719 0.37681 0.0
H316 H 0.95774 0.54487 0.37401 0.0
H317 H -0.00913 0.44734 0.29901 0.0
H318 H 0.95812 0.41827 0.30114 0.0
H319 H -0.00873 0.41769 0.32066 0.0
C320 C 0.47812 0.93301 0.82454 0.0
C321 C 0.4572 0.91208 0.83604 0.0
C322 C 0.47391 0.96692 0.82545 0.0
C323 C 0.44868 0.98013 0.83859 0.0
C324 C 0.4272 0.95907 0.84994 0.0
C325 C 0.43153 0.92534 0.84835 0.0
C326 C 0.49693 -0.01138 0.81279 0.0
C327 C 0.40046 0.97216 0.86451 0.0
C328 C 0.46258 0.06452 0.862 0.0
C329 C 0.44234 0.08371 0.84862 0.0
C330 C 0.4645 0.03079 0.85903 0.0
C331 C 0.44628 0.0159 0.84193 0.0
C332 C 0.42566 0.0351 0.8284 0.0
C333 C 0.42363 0.06882 0.83209 0.0
C334 C 0.48615 0.01112 0.87419 0.0
C335 C 0.40632 0.02012 0.80976 0.0
H336 H 0.49783 0.92292 0.81486 0.0
H337 H 0.41534 0.90934 0.8574 0.0
H338 H 0.48308 0.00639 0.80267 0.0
H339 H 0.51214 0.00271 0.82455 0.0
H340 H 0.51324 0.97458 0.80172 0.0
H341 H 0.38485 0.95253 0.87136 0.0
H342 H 0.41126 -0.01407 0.8785 0.0
H343 H 0.38492 -0.0107 0.85507 0.0
H344 H 0.47695 0.07593 0.87489 0.0
H345 H 0.40824 0.08366 0.82157 0.0
H346 H 0.50544 -0.00101 0.86443 0.0
H347 H 0.4718 -0.00826 0.88243 0.0
H348 H 0.49789 0.02632 0.88713 0.0
H349 H 0.42301 0.00812 0.7979 0.0
H350 H 0.39156 0.0384 0.80067 0.0
H351 H 0.38985 0.00105 0.81632 0.0
C352 C 0.89662 0.50191 0.86129 0.0
C353 C 0.87752 0.52031 0.8467 0.0
C354 C 0.9305 0.50093 0.85923 0.0
C355 C 0.94568 0.51821 0.84181 0.0
C356 C 0.92659 0.53722 0.82715 0.0
C357 C 0.89266 0.53836 0.82994 0.0
C358 C 0.94999 0.48099 0.87554 0.0
C359 C 0.94189 0.55548 0.80816 0.0
C360 C 0.03613 0.53301 0.84899 0.0
C361 C 0.04943 0.50606 0.83803 0.0
C362 C 0.0024 0.5379 0.84975 0.0
C363 C 0.98149 0.51566 0.83891 0.0
C364 C -0.00515 0.48926 0.82695 0.0
C365 C 0.02865 0.48456 0.82686 0.0
C366 C -0.01089 0.56595 0.86306 0.0
C367 C 0.97337 0.46537 0.81483 0.0
H368 H 0.885 0.48812 0.87438 0.0
H369 H 0.87789 0.55237 0.81852 0.0
H370 H 0.96236 0.46081 0.86679 0.0
H371 H 0.96913 0.49625 0.88328 0.0
H372 H 0.93462 0.47047 0.88885 0.0
H373 H 0.92382 0.56988 0.79862 0.0
H374 H 0.96104 0.57214 0.81438 0.0
H375 H 0.95381 0.53803 0.79677 0.0
H376 H 0.05202 0.54967 0.85774 0.0
H377 H 0.0388 0.46388 0.81818 0.0
H378 H 0.97547 0.55641 0.8775 0.0
H379 H 0.97184 0.5804 0.85295 0.0
H380 H 0.00862 0.58235 0.86919 0.0
H381 H 0.95911 0.45097 0.82694 0.0
H382 H -0.0124 0.4483 0.80442 0.0
H383 H 0.9558 0.4785 0.80412 0.0
C384 C 0.51721 0.05404 0.33338 0.0
C385 C 0.49586 0.07136 0.34702 0.0
C386 C 0.5136 0.02032 0.33039 0.0
C387 C 0.48873 0.00349 0.34187 0.0
C388 C 0.46736 0.0209 0.35585 0.0
C389 C 0.47088 0.05469 0.35798 0.0
C390 C 0.53631 0.00273 0.31489 0.0
C391 C 0.44117 0.00377 0.36892 0.0
C392 C 0.45991 0.9195 0.324 0.0
C393 C 0.47807 0.89933 0.33803 0.0
C394 C 0.46387 0.95347 0.32455 0.0
C395 C 0.48571 0.96751 0.34 0.0
C396 C 0.50391 0.94718 0.35429 0.0
C397 C 0.50022 0.91334 0.3529 0.0
C398 C 0.44467 0.97433 0.30865 0.0
C399 C 0.5267 0.96118 0.37145 0.0
H400 H 0.53633 0.06697 0.32473 0.0
H401 H 0.45447 0.06802 0.36865 0.0
H402 H 0.55096 -0.01527 0.32426 0.0
H403 H 0.5221 -0.01093 0.30233 0.0
H404 H 0.55312 0.01962 0.30623 0.0
H405 H 0.4268 0.02083 0.37924 0.0
H406 H 0.42436 -0.00913 0.35755 0.0
H407 H 0.45228 -0.01482 0.3799 0.0
H408 H 0.44295 0.9087 0.31238 0.0
H409 H 0.51408 0.89781 0.36393 0.0
H410 H 0.46132 -0.00956 0.29924 0.0
H411 H 0.42777 -0.00979 0.31796 0.0
H412 H 0.43032 0.95956 0.29674 0.0
H413 H 0.5456 0.97626 0.36333 0.0
H414 H 0.53891 0.94201 0.3814 0.0
H415 H 0.51304 0.97731 0.38282 0.0
C416 C 0.91324 0.44412 0.59272 0.0
C417 C 0.89485 0.46525 0.60579 0.0
C418 C 0.94722 0.44703 0.59181 0.0
C419 C 0.96303 0.47088 0.60492 0.0
C420 C 0.94453 0.49095 0.61914 0.0
C421 C 0.91055 0.48836 0.61904 0.0
C422 C 0.96599 0.42584 0.57596 0.0
C423 C 0.96053 0.51581 0.63397 0.0
C424 C 0.05424 0.46205 0.61269 0.0
C425 C 0.06611 0.48574 0.59811 0.0
C426 C 0.0207 0.45746 0.61552 0.0
C427 C -0.00135 0.47616 0.60279 0.0
C428 C 0.01062 0.49998 0.5879 0.0
C429 C 0.04426 0.50491 0.58605 0.0
C430 C 0.00887 0.43275 0.63217 0.0
C431 C -0.01208 0.51977 0.57357 0.0
H432 H 0.90089 0.42659 0.58225 0.0
H433 H 0.89615 0.50466 0.62914 0.0
H434 H 0.97777 0.44131 0.56322 0.0
H435 H -0.01441 0.41267 0.58483 0.0
H436 H 0.9502 0.40777 0.5675 0.0
H437 H 0.9431 0.52676 0.64583 0.0
H438 H 0.98071 0.50449 0.64345 0.0
H439 H 0.97114 0.53558 0.62378 0.0
H440 H 0.07124 0.44738 0.62212 0.0
H441 H 0.05353 0.52299 0.57461 0.0
H442 H -0.00498 0.41327 0.62365 0.0
H443 H -0.00792 0.44449 0.64408 0.0
H444 H 0.02916 0.42141 0.64155 0.0
H445 H 0.97241 0.50333 0.56352 0.0
H446 H 0.0012 0.53639 0.56223 0.0
H447 H 0.97153 0.5345 0.58409 0.0
C448 C 0.49083 0.03763 0.11199 0.0
C449 C 0.51072 0.0588 0.09987 0.0
C450 C 0.49517 0.0038 0.11082 0.0
C451 C 0.51939 -0.00912 0.09672 0.0
C452 C 0.53986 0.01218 0.08471 0.0
C453 C 0.53554 0.0459 0.08664 0.0
C454 C 0.47334 0.98188 0.12427 0.0
C455 C 0.56542 -0.00064 0.06908 0.0
C456 C 0.54489 0.90234 0.1029 0.0
C457 C 0.52457 0.88713 0.08741 0.0
C458 C 0.54342 0.93614 0.10624 0.0
C459 C 0.52177 0.95512 0.09333 0.0
C460 C 0.50197 0.93991 0.07719 0.0
C461 C 0.5033 0.90606 0.07465 0.0
C462 C 0.56436 0.95144 0.12394 0.0
C463 C 0.47919 0.95935 0.06269 0.0
H464 H 0.47179 0.04752 0.12237 0.0
H465 H 0.55084 0.06217 0.07711 0.0
H466 H 0.45731 0.96773 0.11307 0.0
H467 H 0.48811 0.96417 0.13383 0.0
H468 H 0.45785 -0.00424 0.13596 0.0
H469 H 0.58031 0.01914 0.06171 0.0
H470 H 0.58182 0.98225 0.07785 0.0
H471 H 0.55355 -0.01439 0.05549 0.0
H472 H 0.56112 0.88767 0.11293 0.0
H473 H 0.48772 0.89436 0.06254 0.0
H474 H 0.54871 0.9634 0.13645 0.0
H475 H 0.58005 0.97056 0.11663 0.0
H476 H 0.58005 0.93334 0.13245 0.0
H477 H 0.46048 0.97135 0.07303 0.0
H478 H 0.4667 0.944 0.05016 0.0
H479 H 0.49281 0.97881 0.05397 0.0
C480 C 0.24264 0.49244 0.26288 0.0
C481 C 0.22128 0.46945 0.27192 0.0
C482 C 0.24785 0.49401 0.23994 0.0
C483 C 0.23014 0.47304 0.22579 0.0
C484 C 0.20917 0.44923 0.23495 0.0
C485 C 0.20549 0.44733 0.25797 0.0
C486 C 0.27143 0.51876 0.23085 0.0
C487 C 0.18915 0.42699 0.22042 0.0
C488 C 0.20728 0.50016 0.16792 0.0
C489 C 0.22528 0.47848 0.15499 0.0
C490 C 0.20957 0.49952 0.19107 0.0
C491 C 0.23128 0.47747 0.20139 0.0
C492 C 0.25147 0.45742 0.18827 0.0
C493 C 0.2477 0.45763 0.16518 0.0
C494 C 0.18698 0.52069 0.20445 0.0
C495 C 0.27589 0.43464 0.19863 0.0
H496 H 0.25498 0.50943 0.27374 0.0
H497 H 0.1887 0.42979 0.26498 0.0
H498 H 0.28745 0.50744 0.21827 0.0
H499 H 0.25785 0.53862 0.22254 0.0
H500 H 0.28679 0.52961 0.24406 0.0
H501 H 0.17435 0.40953 0.23018 0.0
H502 H 0.17256 0.44171 0.20993 0.0
H503 H 0.20515 0.41303 0.20916 0.0
H504 H 0.18969 0.51602 0.16002 0.0
H505 H 0.26173 0.44097 0.15511 0.0
H506 H 0.2009 0.53518 0.21669 0.0
H507 H 0.16981 0.50509 0.21384 0.0
H508 H 0.17269 0.53761 0.1939 0.0
H509 H 0.28968 0.44718 0.21193 0.0
H510 H 0.29335 0.42504 0.18625 0.0
H511 H 0.26305 0.41375 0.20629 0.0
C512 C 0.48716 0.23111 0.67833 0.0
C513 C 0.46576 0.20888 0.66848 0.0
C514 C 0.48671 0.23649 0.70125 0.0
C515 C 0.4653 0.21811 0.71465 0.0
C516 C 0.44302 0.19625 0.70465 0.0
C517 C 0.44313 0.19234 0.68157 0.0
C518 C 0.50992 0.26094 0.71117 0.0
C519 C 0.42042 0.17554 0.71841 0.0
C520 C 0.49072 0.19892 0.77361 0.0
C521 C 0.46852 0.21743 0.78578 0.0
C522 C 0.4903 0.19938 0.7504 0.0
C523 C 0.46789 0.21972 0.73917 0.0
C524 C 0.44687 0.24007 0.75145 0.0
C525 C 0.44697 0.23818 0.77465 0.0
C526 C 0.51258 0.17671 0.73793 0.0
C527 C 0.42359 0.26304 0.74009 0.0
H528 H 0.5046 0.24397 0.6681 0.0
H529 H 0.42689 0.17487 0.6739 0.0
H530 H 0.49701 0.27693 0.72304 0.0
H531 H 0.52927 0.24807 0.7205 0.0
H532 H 0.5216 0.27634 0.69832 0.0
H533 H 0.40393 0.16048 0.70806 0.0
H534 H 0.4349 0.15914 0.7292 0.0
H535 H 0.40547 0.19106 0.72939 0.0
H536 H 0.50708 0.18255 0.78222 0.0
H537 H 0.42984 0.25255 0.78411 0.0
H538 H 0.52775 0.19062 0.72609 0.0
H539 H 0.49788 0.1592 0.72815 0.0
H540 H 0.52888 0.1628 0.74914 0.0
H541 H 0.43645 0.2774 0.72723 0.0
H542 H 0.41197 0.28007 0.75193 0.0
H543 H 0.40422 0.24895 0.73165 0.0
C544 C 0.756 0.45271 0.17325 0.0
C545 C 0.78021 0.47114 0.16281 0.0
C546 C 0.75124 0.45484 0.19622 0.0
C547 C 0.77181 0.47514 0.20898 0.0
C548 C 0.79592 0.49416 0.19844 0.0
C549 C 0.79955 0.49221 0.17545 0.0
C550 C 0.72474 0.43486 0.20688 0.0
C551 C 0.81888 0.5155 0.21152 0.0
C552 C 0.75507 0.49922 0.26856 0.0
C553 C 0.77421 0.47661 0.28005 0.0
C554 C 0.7526 0.49805 0.24536 0.0
C555 C 0.77042 0.47432 0.23352 0.0
C556 C 0.78925 0.45112 0.24512 0.0
C557 C 0.79058 0.45232 0.26823 0.0
C558 C 0.73162 0.52263 0.23351 0.0
C559 C 0.80924 0.4259 0.23309 0.0
H560 H 0.74075 0.4367 0.16346 0.0
H561 H 0.81837 0.50644 0.16744 0.0
H562 H 0.73572 0.41546 0.21723 0.0
H563 H 0.70984 0.45031 0.21795 0.0
H564 H 0.70855 0.42328 0.19443 0.0
H565 H 0.83551 0.52964 0.20069 0.0
H566 H 0.805 0.53274 0.22195 0.0
H567 H 0.83375 0.50022 0.22279 0.0
H568 H 0.74216 0.51786 0.27766 0.0
H569 H 0.80557 0.43487 0.27701 0.0
H570 H 0.71542 0.51026 0.22146 0.0
H571 H 0.74719 0.53969 0.22404 0.0
H572 H 0.71647 0.53696 0.24516 0.0
H573 H 0.79357 0.41143 0.22185 0.0
H574 H 0.82179 0.40899 0.24463 0.0
H575 H 0.82783 0.43815 0.22273 0.0
C576 C 0.43825 0.78513 0.75478 0.0
C577 C 0.45978 0.77086 0.76984 0.0
C578 C 0.44252 0.781 0.73192 0.0
C579 C 0.4682 0.76112 0.7241 0.0
C580 C 0.4887 0.74499 0.73939 0.0
C581 C 0.48469 0.75066 0.76211 0.0
C582 C 0.42067 0.79932 0.71614 0.0
C583 C 0.51543 0.72254 0.73176 0.0
C584 C 0.45944 0.73896 0.66353 0.0
C585 C 0.4802 0.76166 0.65358 0.0
C586 C 0.45704 0.73685 0.68665 0.0
C587 C 0.47469 0.75902 0.69996 0.0
C588 C 0.49665 0.78115 0.68993 0.0
C589 C 0.49957 0.78178 0.6668 0.0
C590 C 0.43449 0.71197 0.69673 0.0
C591 C 0.51528 0.80576 0.70349 0.0
H592 H 0.41928 0.80107 0.76084 0.0
H593 H 0.50128 0.73959 0.77387 0.0
H594 H 0.43544 0.81627 0.70596 0.0
H595 H 0.40853 0.78219 0.70462 0.0
H596 H 0.40172 0.81355 0.7249 0.0
H597 H 0.52633 0.70866 0.7457 0.0
H598 H 0.50594 0.70508 0.71932 0.0
H599 H 0.53492 0.73687 0.72366 0.0
H600 H 0.44443 0.72347 0.65319 0.0
H601 H 0.51519 0.79967 0.659 0.0
H602 H 0.41251 0.72426 0.70322 0.0
H603 H 0.44646 0.69951 0.71086 0.0
H604 H 0.42667 0.69339 0.68449 0.0
H605 H 0.49797 0.8226 0.71164 0.0
H606 H 0.53236 0.82032 0.69326 0.0
H607 H 0.52929 0.79347 0.71676 0.0
C608 C 0.76272 0.46508 0.77052 0.0
C609 C 0.74341 0.48671 0.78259 0.0
C610 C 0.76165 0.46473 0.74732 0.0
C611 C 0.73989 0.48572 0.73604 0.0
C612 C 0.7186 0.50583 0.74828 0.0
C613 C 0.7211 0.5066 0.77144 0.0
C614 C 0.78534 0.44351 0.73489 0.0
C615 C 0.69416 0.52753 0.73689 0.0
C616 C 0.76658 0.51286 0.67891 0.0
C617 C 0.75159 0.48957 0.66545 0.0
C618 C 0.76234 0.51234 0.70193 0.0
C619 C 0.74167 0.48865 0.71156 0.0
C620 C 0.72476 0.46645 0.69783 0.0
C621 C 0.73046 0.46673 0.67493 0.0
C622 C 0.78147 0.5359 0.71603 0.0
C623 C 0.70155 0.44171 0.70738 0.0
H624 H 0.78023 0.44997 0.77916 0.0
H625 H 0.70605 0.52323 0.78083 0.0
H626 H 0.77228 0.42787 0.72288 0.0
H627 H 0.80234 0.45905 0.72532 0.0
H628 H 0.79978 0.42769 0.74613 0.0
H629 H 0.67621 0.53772 0.7487 0.0
H630 H 0.70692 0.54803 0.72871 0.0
H631 H 0.68095 0.51386 0.72384 0.0
H632 H 0.7832 0.53028 0.67158 0.0
H633 H 0.71875 0.4488 0.66446 0.0
H634 H 0.79826 0.52223 0.72701 0.0
H635 H 0.7649 0.55002 0.7268 0.0
H636 H 0.79596 0.55321 0.70593 0.0
H637 H 0.71537 0.42286 0.71654 0.0
H638 H 0.68692 0.42951 0.69433 0.0
H639 H 0.68481 0.45346 0.71932 0.0
C640 C 0.50652 0.74242 0.26061 0.0
C641 C 0.48719 0.76723 0.26944 0.0
C642 C 0.50853 0.73777 0.2376 0.0
C643 C 0.49172 0.75917 0.2232 0.0
C644 C 0.47217 0.78425 0.23211 0.0
C645 C 0.46975 0.78762 0.25513 0.0
C646 C 0.52882 0.71018 0.2287 0.0
C647 C 0.45465 0.80821 0.21736 0.0
C648 C 0.52477 0.77376 0.16555 0.0
C649 C 0.50147 0.75824 0.15228 0.0
C650 C 0.52215 0.77374 0.18866 0.0
C651 C 0.49612 0.75692 0.19882 0.0
C652 C 0.4733 0.73994 0.18555 0.0
C653 C 0.47591 0.74129 0.16237 0.0
C654 C 0.54643 0.79299 0.20214 0.0
C655 C 0.4458 0.72092 0.19584 0.0
H656 H 0.51974 0.72642 0.27169 0.0
H657 H 0.45493 0.80695 0.26194 0.0
H658 H 0.51433 0.69545 0.21688 0.0
H659 H 0.54995 0.72004 0.2195 0.0
H660 H 0.53796 0.69401 0.24207 0.0
H661 H 0.44028 0.82619 0.22694 0.0
H662 H 0.47252 0.82156 0.20703 0.0
H663 H 0.43802 0.79518 0.20594 0.0
H664 H 0.5444 0.78719 0.15782 0.0
H665 H 0.45799 0.7291 0.15213 0.0
H666 H 0.55825 0.77711 0.21461 0.0
H667 H 0.53369 0.81259 0.21127 0.0
H668 H 0.56561 0.80421 0.1917 0.0
H669 H 0.45528 0.70442 0.20888 0.0
H670 H 0.4323 0.70626 0.18342 0.0
H671 H 0.42851 0.73784 0.20389 0.0
C672 C 0.21423 0.51828 0.76595 0.0
C673 C 0.18765 0.50125 0.77465 0.0
C674 C 0.22148 0.51667 0.74325 0.0
C675 C 0.20098 0.4985 0.72901 0.0
C676 C 0.17413 0.48132 0.73781 0.0
C677 C 0.16809 0.48256 0.76056 0.0
C678 C 0.25084 0.53449 0.73447 0.0
C679 C 0.15114 0.46238 0.72313 0.0
C680 C 0.1896 0.52091 0.66895 0.0
C681 C 0.20366 0.49416 0.6582 0.0
C682 C 0.19009 0.52349 0.69203 0.0
C683 C 0.20574 0.49915 0.70468 0.0
C684 C 0.22211 0.47336 0.69389 0.0
C685 C 0.22049 0.4709 0.67071 0.0
C686 C 0.1717 0.55098 0.70287 0.0
C687 C 0.23988 0.44751 0.70686 0.0
H688 H 0.22961 0.53239 0.77692 0.0
H689 H 0.14744 0.46947 0.76728 0.0
H690 H 0.26614 0.51773 0.72458 0.0
H691 H 0.24301 0.55442 0.7233 0.0
H692 H 0.26588 0.54507 0.74796 0.0
H693 H 0.13145 0.45032 0.73266 0.0
H694 H 0.13988 0.47892 0.71078 0.0
H695 H 0.16464 0.44349 0.71385 0.0
H696 H 0.17655 0.53905 0.65942 0.0
H697 H 0.23172 0.45039 0.66247 0.0
H698 H 0.18713 0.56339 0.71532 0.0
H699 H 0.15024 0.54103 0.71169 0.0
H700 H 0.16313 0.56933 0.69068 0.0
H701 H 0.25489 0.45869 0.72011 0.0
H702 H 0.25582 0.43254 0.69611 0.0
H703 H 0.22203 0.43117 0.71497 0.0
C704 C 0.47882 0.22323 0.27237 0.0
C705 C 0.50236 0.20685 0.28493 0.0
C706 C 0.48108 0.22462 0.24917 0.0
C707 C 0.50697 0.20847 0.23836 0.0
C708 C 0.53144 0.19303 0.25103 0.0
C709 C 0.52903 0.19276 0.27414 0.0
C710 C 0.45502 0.2421 0.23621 0.0
C711 C 0.55903 0.17486 0.24016 0.0
C712 C 0.49042 0.17261 0.18177 0.0
C713 C 0.50847 0.19314 0.16792 0.0
C714 C 0.48962 0.17756 0.20467 0.0
C715 C 0.50658 0.20425 0.21393 0.0
C716 C 0.52433 0.22553 0.19999 0.0
C717 C 0.52548 0.21942 0.1771 0.0
C718 C 0.47114 0.15376 0.219 0.0
C719 C 0.54198 0.25471 0.20925 0.0
H720 H 0.45832 0.23443 0.28063 0.0
H721 H 0.54732 0.17996 0.28369 0.0
H722 H 0.46607 0.25776 0.22328 0.0
H723 H 0.43932 0.22407 0.22769 0.0
H724 H 0.43946 0.25739 0.24701 0.0
H725 H 0.57733 0.16622 0.25236 0.0
H726 H 0.54923 0.15346 0.23117 0.0
H727 H 0.57141 0.19052 0.22784 0.0
H728 H 0.47737 0.15217 0.1747 0.0
H729 H 0.53913 0.23552 0.16636 0.0
H730 H 0.45201 0.16665 0.22844 0.0
H731 H 0.48786 0.14245 0.23121 0.0
H732 H 0.45948 0.13412 0.20917 0.0
H733 H 0.52496 0.26989 0.21901 0.0
H734 H 0.55298 0.26997 0.19605 0.0
H735 H 0.56152 0.24665 0.22066 0.0
C736 C 0.21259 0.48198 0.91531 0.0
C737 C 0.17961 0.48287 0.90952 0.0
C738 C 0.22209 0.48036 0.93765 0.0
C739 C 0.19798 0.48009 0.95435 0.0
C740 C 0.16488 0.48403 0.94852 0.0
C741 C 0.1561 0.48506 0.92616 0.0
C742 C 0.2576 0.47624 0.94321 0.0
C743 C 0.13842 0.48447 0.96581 0.0
C744 C 0.20443 0.42789 0.00544 0.0
C745 C 0.2086 0.45119 0.02207 0.0
C746 C 0.20346 0.43689 -0.01687 0.0
C747 C 0.20614 0.47015 -0.02267 0.0
C748 C 0.21227 0.49364 -0.00604 0.0
C749 C 0.21366 0.48381 0.01625 0.0
C750 C 0.19748 0.41093 0.9659 0.0
C751 C 0.21518 0.5293 -0.01159 0.0
H752 H 0.23081 0.48037 0.90242 0.0
H753 H 0.1306 0.4863 0.92168 0.0
H754 H 0.26434 0.49099 0.95789 0.0
H755 H 0.26237 0.45038 0.94734 0.0
H756 H 0.27348 0.48323 0.92914 0.0
H757 H 0.11465 0.49217 0.95882 0.0
H758 H 0.13555 0.45973 -0.02707 0.0
H759 H 0.14496 0.50112 -0.02045 0.0
H760 H 0.20103 0.40257 0.00992 0.0
H761 H 0.21694 0.50184 0.02915 0.0
H762 H 0.21498 0.41344 0.95206 0.0
H763 H 0.17268 0.41381 0.95892 0.0
H764 H 0.19961 0.38601 -0.02714 0.0
H765 H 0.23048 0.53297 -0.02648 0.0
H766 H 0.22566 0.54348 0.00236 0.0
H767 H 0.19071 0.53919 -0.01538 0.0
C768 C 0.49343 0.22713 0.42959 0.0
C769 C 0.49532 0.19489 0.4222 0.0
C770 C 0.49063 0.23408 0.4523 0.0
C771 C 0.48926 0.20813 0.46772 0.0
C772 C 0.48808 0.17563 0.46 0.0
C773 C 0.49147 0.16943 0.43736 0.0
C774 C 0.4919 0.26902 0.45985 0.0
C775 C 0.48594 0.1472 0.4758 0.0
C776 C 0.53179 0.20879 0.52289 0.0
C777 C 0.50556 0.20894 0.53759 0.0
C778 C 0.52685 0.21165 0.50007 0.0
C779 C 0.49477 0.21396 0.49171 0.0
C780 C 0.46832 0.21661 0.5066 0.0
C781 C 0.47409 0.2143 0.52952 0.0
C782 C 0.55587 0.20944 0.48486 0.0
C783 C 0.4338 0.21914 0.49835 0.0
H784 H 0.49635 0.24687 0.41785 0.0
H785 H 0.49242 0.14447 0.4316 0.0
H786 H 0.47477 0.27329 0.47369 0.0
H787 H 0.51672 0.27462 0.46597 0.0
H788 H 0.4861 0.28612 0.44615 0.0
H789 H 0.4808 0.12398 0.46708 0.0
H790 H 0.50931 0.14462 0.48482 0.0
H791 H 0.46664 0.15136 0.48826 0.0
H792 H 0.55619 0.20503 0.52922 0.0
H793 H 0.4538 0.21433 0.54095 0.0
H794 H 0.55464 0.22852 0.47189 0.0
H795 H 0.5558 0.18548 0.47641 0.0
H796 H 0.57921 0.21205 0.49396 0.0
H797 H 0.43214 0.2358 0.48394 0.0
H798 H 0.4171 0.22782 0.5115 0.0
H799 H 0.42542 0.1948 0.49283 0.0
C800 C 0.74719 0.48055 0.02136 0.0
C801 C 0.78034 0.47785 0.02637 0.0
C802 C 0.73672 0.48315 -0.00074 0.0
C803 C 0.76001 0.48265 -0.01798 0.0
C804 C 0.79306 0.47656 -0.01295 0.0
C805 C 0.80284 0.47451 0.00918 0.0
C806 C 0.70125 0.48936 -0.00545 0.0
C807 C 0.81864 0.4752 0.96917 0.0
C808 C 0.74234 0.48325 0.92034 0.0
C809 C 0.7492 0.51582 0.91524 0.0
C810 C 0.74356 0.47217 0.94236 0.0
C811 C 0.7515 0.49433 0.95947 0.0
C812 C 0.7559 0.52769 0.95446 0.0
C813 C 0.75492 0.53795 0.9324 0.0
C814 C 0.73861 0.43647 0.94706 0.0
C815 C 0.76389 0.55229 -0.02777 0.0
H816 H 0.72975 0.48306 0.03467 0.0
H817 H 0.82845 0.4719 0.01307 0.0
H818 H 0.69761 0.51567 -0.00868 0.0
H819 H 0.69314 0.47594 -0.02039 0.0
H820 H 0.68567 0.48223 0.00876 0.0
H821 H 0.84218 0.46576 -0.0245 0.0
H822 H 0.81047 0.45957 0.95528 0.0
H823 H 0.82273 0.50001 0.96246 0.0
H824 H 0.73783 0.4661 0.90706 0.0
H825 H 0.75972 0.56325 0.9285 0.0
H826 H 0.72407 0.43287 0.96231 0.0
H827 H 0.76257 0.42477 0.94977 0.0
H828 H 0.72631 0.42391 0.93308 0.0
H829 H 0.74668 0.55007 -0.01375 0.0
H830 H 0.76305 0.57767 0.96592 0.0
H831 H 0.78867 0.54758 -0.02123 0.0
C832 C 0.42169 0.76226 0.50555 0.0
C833 C 0.44721 0.76074 0.52086 0.0
C834 C 0.42737 0.75842 0.48289 0.0
C835 C 0.45955 0.75371 0.47529 0.0
C836 C 0.48513 0.74982 0.49081 0.0
C837 C 0.47858 0.75314 0.51356 0.0
C838 C 0.39921 0.76205 0.46699 0.0
C839 C 0.51973 0.74479 0.48338 0.0
C840 C 0.4635 0.7388 0.41332 0.0
C841 C 0.46435 0.77089 0.40551 0.0
C842 C 0.46427 0.73229 0.4362 0.0
C843 C 0.46646 0.75851 0.45135 0.0
C844 C 0.47021 0.79065 0.4433 0.0
C845 C 0.46875 0.79644 0.42051 0.0
C846 C 0.4602 0.69773 0.44411 0.0
C847 C 0.47329 0.81931 0.4588 0.0
H848 H 0.39731 0.76766 0.51126 0.0
H849 H 0.49832 0.75196 0.52544 0.0
H850 H 0.40115 0.78573 0.45826 0.0
H851 H 0.39977 0.7426 0.45429 0.0
H852 H 0.37538 0.76115 0.47558 0.0
H853 H 0.53536 0.73571 0.49707 0.0
H854 H 0.52088 0.72738 0.46939 0.0
H855 H 0.52982 0.76828 0.4775 0.0
H856 H 0.46013 0.71902 0.40168 0.0
H857 H 0.46993 0.82125 0.41443 0.0
H858 H 0.43479 0.69405 0.44971 0.0
H859 H 0.47636 0.69264 0.45842 0.0
H860 H 0.46538 0.6799 0.43078 0.0
H861 H 0.44969 0.82351 0.46719 0.0
H862 H 0.48024 0.84196 0.44996 0.0
H863 H 0.49168 0.81432 0.47181 0.0
C864 C 0.17362 0.47318 0.41882 0.0
C865 C 0.20099 0.48082 0.40616 0.0
C866 C 0.17597 0.46964 0.44179 0.0
C867 C 0.20626 0.47498 0.45233 0.0
C868 C 0.23452 0.47994 0.43938 0.0
C869 C 0.23157 0.48249 0.41626 0.0
C870 C 0.14538 0.46339 0.4549 0.0
C871 C 0.2672 0.48585 0.44999 0.0
C872 C 0.19219 0.51992 0.50568 0.0
C873 C 0.19472 0.49502 0.52136 0.0
C874 C 0.19843 0.51406 0.48333 0.0
C875 C 0.20654 0.48221 0.47639 0.0
C876 C 0.21071 0.45722 0.49232 0.0
C877 C 0.20507 0.46406 0.51481 0.0
C878 C 0.19446 0.54166 0.46699 0.0
C879 C 0.219 0.42294 0.48555 0.0
H880 H 0.15004 0.47144 0.41085 0.0
H881 H 0.25272 0.4884 0.40635 0.0
H882 H 0.14995 0.44546 0.46828 0.0
H883 H 0.1373 0.48637 0.46278 0.0
H884 H 0.1253 0.45424 0.44427 0.0
H885 H 0.28737 0.48239 0.43802 0.0
H886 H 0.26823 0.51123 0.45619 0.0
H887 H 0.27102 0.46944 0.46434 0.0
H888 H 0.1847 0.54402 0.51088 0.0
H889 H 0.20702 0.44485 0.52705 0.0
H890 H 0.17251 0.53742 0.45669 0.0
H891 H 0.21566 0.54288 0.45571 0.0
H892 H 0.19183 0.56557 0.47534 0.0
H893 H 0.197 0.41108 0.4786 0.0
H894 H 0.22764 0.4082 0.49981 0.0
H895 H 0.23789 0.42279 0.47248 0.0
C896 C 0.47644 0.2207 0.92462 0.0
C897 C 0.4444 0.21161 0.91966 0.0
C898 C 0.4876 0.22102 0.94665 0.0
C899 C 0.46603 0.21244 0.96394 0.0
C900 C 0.43309 0.20549 0.95902 0.0
C901 C 0.42278 0.2049 0.93695 0.0
C902 C 0.52287 0.2285 0.95123 0.0
C903 C 0.40909 0.19672 -0.02303 0.0
C904 C 0.49002 0.16631 0.01527 0.0
C905 C 0.48585 0.1899 0.0317 0.0
C906 C 0.48662 0.17417 -0.00715 0.0
C907 C 0.47817 0.20632 -0.01324 0.0
C908 C 0.47639 0.23083 0.00319 0.0
C909 C 0.48051 0.22233 0.02558 0.0
C910 C 0.48941 0.14739 -0.02414 0.0
C911 C 0.46744 0.26536 -0.00265 0.0
H912 H 0.4932 0.22594 0.91126 0.0
H913 H 0.39785 0.19834 0.93317 0.0
H914 H 0.52537 0.24473 0.96579 0.0
H915 H 0.53588 0.20557 0.95514 0.0
H916 H 0.53491 0.24009 0.93679 0.0
H917 H 0.38375 0.19544 -0.02936 0.0
H918 H 0.41551 0.17268 -0.01589 0.0
H919 H 0.41008 0.2148 -0.00943 0.0
H920 H 0.4946 0.14127 0.02001 0.0
H921 H 0.47726 0.24059 0.03832 0.0
H922 H 0.50424 0.15553 0.96158 0.0
H923 H 0.46486 0.14116 0.96951 0.0
H924 H 0.50049 0.12501 -0.0171 0.0
H925 H 0.48034 0.27346 -0.01779 0.0
H926 H 0.47312 0.28246 0.01105 0.0
H927 H 0.44098 0.26667 -0.00611 0.0
C928 C 0.74801 0.47316 0.42409 0.0
C929 C 0.7801 0.47373 0.41642 0.0
C930 C 0.74137 0.47567 0.44685 0.0
C931 C 0.76747 0.47934 0.46199 0.0
C932 C 0.79952 0.48328 0.45394 0.0
C933 C 0.80547 0.48001 0.43127 0.0
C934 C 0.70689 0.47139 0.45477 0.0
C935 C 0.828 0.48798 0.46942 0.0
C936 C 0.75972 0.49199 0.52406 0.0
C937 C 0.76725 0.46072 0.53173 0.0
C938 C 0.75768 0.49839 0.50121 0.0
C939 C 0.76279 0.47275 0.48595 0.0
C940 C 0.76791 0.44071 0.49382 0.0
C941 C 0.77041 0.4352 0.51659 0.0
C942 C 0.75227 0.53285 0.49345 0.0
C943 C 0.77285 0.41248 0.47819 0.0
H944 H 0.72838 0.46835 0.41255 0.0
H945 H 0.83027 0.48098 0.42525 0.0
H946 H 0.70363 0.44617 0.46094 0.0
H947 H 0.70149 0.48813 0.46867 0.0
H948 H 0.68904 0.47566 0.44126 0.0
H949 H 0.85029 0.49563 0.46047 0.0
H950 H 0.82229 0.50649 0.48217 0.0
H951 H 0.8332 0.46476 0.47812 0.0
H952 H 0.75722 0.51173 0.53582 0.0
H953 H 0.77568 0.41087 0.52255 0.0
H954 H 0.73532 0.53353 0.47916 0.0
H955 H 0.77573 0.54331 0.48788 0.0
H956 H 0.74248 0.54847 0.50686 0.0
H957 H 0.75349 0.41208 0.46539 0.0
H958 H 0.77285 0.38871 0.48694 0.0
H959 H 0.79646 0.41527 0.46955 0.0
C960 C 0.48742 0.74969 0.01177 0.0
C961 C 0.51953 0.75872 0.01657 0.0
C962 C 0.47617 0.74894 -0.01024 0.0
C963 C 0.49774 0.757 -0.02766 0.0
C964 C 0.53076 0.76372 -0.02287 0.0
C965 C 0.54114 0.76479 -0.00082 0.0
C966 C 0.44081 0.74171 -0.01467 0.0
C967 C 0.55479 0.77188 0.95907 0.0
C968 C 0.48357 0.74712 0.91068 0.0
C969 C 0.47897 0.77965 0.90453 0.0
C970 C 0.48712 0.73856 0.93312 0.0
C971 C 0.48553 0.76312 0.94953 0.0
C972 C 0.47761 0.79538 0.94337 0.0
C973 C 0.47479 0.80329 0.92092 0.0
C974 C 0.49544 0.7039 0.93902 0.0
C975 C 0.47502 0.82224 0.96031 0.0
H976 H 0.47068 0.74494 0.02523 0.0
H977 H 0.56612 0.77128 0.00285 0.0
H978 H 0.4279 0.76476 -0.01839 0.0
H979 H 0.43803 0.72562 -0.02928 0.0
H980 H 0.42889 0.73007 -0.00021 0.0
H981 H 0.58017 0.77287 0.96532 0.0
H982 H 0.55347 0.75362 0.94559 0.0
H983 H 0.54868 0.79591 0.95179 0.0
H984 H 0.48684 0.72883 0.89797 0.0
H985 H 0.47081 0.82841 0.91613 0.0
H986 H 0.48259 0.69615 0.95427 0.0
H987 H 0.52192 0.70208 0.94231 0.0
H988 H 0.48923 0.68684 0.9254 0.0
H989 H 0.46007 0.81428 -0.02541 0.0
H990 H 0.46416 0.84469 0.95322 0.0
H991 H 0.49961 0.82827 0.96668 0.0
C992 C 0.28287 0.32663 0.08571 0.0
C993 C 0.25096 0.32708 0.09373 0.0
C994 C 0.30207 0.29867 0.08735 0.0
C995 C 0.28926 0.27047 0.09762 0.0
C996 C 0.25671 0.27038 0.10522 0.0
C997 C 0.23779 0.29872 0.10303 0.0
C998 C 0.3365 0.29973 0.07872 0.0
C999 C 0.24236 0.24091 0.11644 0.0
C1000 C 0.34283 0.19725 0.08717 0.0
C1001 C 0.36511 0.20045 0.10458 0.0
C1002 C 0.31599 0.21829 0.08553 0.0
C1003 C 0.3113 0.2425 0.1019 0.0
C1004 C 0.3319 0.24335 0.12068 0.0
C1005 C 0.35878 0.22256 0.12165 0.0
C1006 C 0.29464 0.21662 0.06524 0.0
C1007 C 0.32741 0.26827 0.13875 0.0
H1008 H 0.29303 0.34836 0.07824 0.0
H1009 H 0.2131 0.29899 0.10924 0.0
H1010 H 0.35385 0.29763 0.09273 0.0
H1011 H 0.34096 0.27891 0.06746 0.0
H1012 H 0.34184 0.32262 0.06963 0.0
H1013 H 0.21572 0.2433 0.11893 0.0
H1014 H 0.24716 0.21866 0.10662 0.0
H1015 H 0.25405 0.23752 0.13284 0.0
H1016 H 0.34778 0.18021 0.07392 0.0
H1017 H 0.37587 0.22477 0.13526 0.0
H1018 H 0.30141 0.23656 0.05373 0.0
H1019 H 0.26871 0.21997 0.06965 0.0
H1020 H 0.2974 0.19312 0.05638 0.0
H1021 H 0.33526 0.29249 0.13263 0.0
H1022 H 0.34189 0.2623 0.15375 0.0
H1023 H 0.30144 0.27018 0.14347 0.0
C1024 C 0.70603 0.33641 0.59437 0.0
C1025 C 0.73649 0.33956 0.60449 0.0
C1026 C 0.68744 0.30819 0.59697 0.0
C1027 C 0.69936 0.28256 0.61039 0.0
C1028 C 0.73073 0.28496 0.61995 0.0
C1029 C 0.74911 0.31348 0.61676 0.0
C1030 C 0.65436 0.30649 0.5861 0.0
C1031 C 0.74416 0.25825 0.63444 0.0
C1032 C 0.62673 0.23881 0.63342 0.0
C1033 C 0.62246 0.21416 0.61771 0.0
C1034 C 0.65404 0.25914 0.6328 0.0
C1035 C 0.67722 0.25507 0.61575 0.0
C1036 C 0.67468 0.22814 0.60124 0.0
C1037 C 0.6473 0.20776 0.6025 0.0
C1038 C 0.65621 0.28704 0.64897 0.0
C1039 C 0.69895 0.22285 0.58292 0.0
H1040 H 0.6964 0.35635 0.5846 0.0
H1041 H 0.7727 0.31589 0.62461 0.0
H1042 H 0.65188 0.2836 0.57654 0.0
H1043 H 0.63517 0.30649 0.59898 0.0
H1044 H 0.64991 0.3273 0.57475 0.0
H1045 H 0.77068 0.26114 0.63733 0.0
H1046 H 0.73168 0.25873 0.6507 0.0
H1047 H 0.73962 0.23402 0.62698 0.0
H1048 H 0.60772 0.24347 0.64542 0.0
H1049 H 0.64407 0.18863 0.59035 0.0
H1050 H 0.64922 0.30994 0.64047 0.0
H1051 H 0.68145 0.29002 0.65511 0.0
H1052 H 0.6398 0.28351 0.66336 0.0
H1053 H 0.69376 0.24008 0.56921 0.0
H1054 H 0.69761 0.19771 0.57625 0.0
H1055 H 0.72407 0.22762 0.58875 0.0
C1056 C 0.77289 0.62776 0.07537 0.0
C1057 C 0.7716 0.60697 0.09371 0.0
C1058 C 0.75208 0.65482 0.07391 0.0
C1059 C 0.73013 0.66131 0.09142 0.0
C1060 C 0.73131 0.64219 0.1109 0.0
C1061 C 0.75172 0.61498 0.11167 0.0
C1062 C 0.75145 0.67445 0.05281 0.0
C1063 C 0.7089 0.64865 0.13016 0.0
C1064 C 0.67553 0.73612 0.09285 0.0
C1065 C 0.6459 0.72274 0.08584 0.0
C1066 C 0.70369 0.71677 0.09419 0.0
C1067 C 0.7021 0.68358 0.08796 0.0
C1068 C 0.67249 0.6705 0.07995 0.0
C1069 C 0.64477 0.69012 0.07921 0.0
C1070 C 0.73469 0.73142 0.10308 0.0
C1071 C 0.66976 0.63539 0.07277 0.0
H1072 H 0.78822 0.62148 0.06144 0.0
H1073 H 0.75101 0.59905 0.12598 0.0
H1074 H 0.72997 0.6672 0.04282 0.0
H1075 H 0.74916 0.70079 0.05641 0.0
H1076 H 0.77361 0.67044 0.0427 0.0
H1077 H 0.71656 0.63527 0.14529 0.0
H1078 H 0.70802 0.67501 0.13398 0.0
H1079 H 0.6839 0.64079 0.12579 0.0
H1080 H 0.67646 0.76137 0.09797 0.0
H1081 H 0.62202 0.6798 0.07346 0.0
H1082 H 0.75548 0.72541 0.09217 0.0
H1083 H 0.74003 0.72094 0.11962 0.0
H1084 H 0.73303 0.75828 0.10471 0.0
H1085 H 0.689 0.62952 0.06058 0.0
H1086 H 0.64575 0.62981 0.06523 0.0
H1087 H 0.67328 0.61918 0.08727 0.0
C1088 C 0.20014 0.65195 0.59642 0.0
C1089 C 0.21277 0.62584 0.58429 0.0
C1090 C 0.21824 0.68077 0.59909 0.0
C1091 C 0.24928 0.68338 0.58911 0.0
C1092 C 0.26081 0.65791 0.57546 0.0
C1093 C 0.24255 0.62939 0.57341 0.0
C1094 C 0.20514 0.70733 0.61375 0.0
C1095 C 0.29348 0.65985 0.56413 0.0
C1096 C 0.30213 0.75801 0.58252 0.0
C1097 C 0.32688 0.75085 0.59773 0.0
C1098 C 0.27462 0.73786 0.5808 0.0
C1099 C 0.27187 0.71035 0.59481 0.0
C1100 C 0.29508 0.70534 0.61181 0.0
C1101 C 0.32248 0.72548 0.61291 0.0
C1102 C 0.25031 0.74418 0.56258 0.0
C1103 C 0.29272 0.67677 0.62745 0.0
H1104 H 0.17709 0.64915 0.60487 0.0
H1105 H 0.25211 0.60934 0.56377 0.0
H1106 H 0.21742 0.70615 0.6301 0.0
H1107 H 0.21014 0.73169 0.60661 0.0
H1108 H 0.17856 0.70476 0.61642 0.0
H1109 H 0.29729 0.63948 0.55235 0.0
H1110 H 0.29584 0.68312 0.55497 0.0
H1111 H 0.31312 0.65909 0.57673 0.0
H1112 H 0.30545 0.77771 0.5708 0.0
H1113 H 0.34139 0.72024 0.62492 0.0
H1114 H 0.22518 0.73932 0.56832 0.0
H1115 H 0.2553 0.72756 0.54854 0.0
H1116 H 0.2518 0.7696 0.55642 0.0
H1117 H 0.26757 0.67405 0.63376 0.0
H1118 H 0.30952 0.67929 0.64177 0.0
H1119 H 0.29901 0.65411 0.61846 0.0
C1120 C 0.3175 0.75084 0.34827 0.0
C1121 C 0.34146 0.7467 0.33206 0.0
C1122 C 0.29155 0.72866 0.35007 0.0
C1123 C 0.28948 0.70219 0.33512 0.0
C1124 C 0.31195 0.6999 0.31748 0.0
C1125 C 0.33782 0.72199 0.3163 0.0
C1126 C 0.26809 0.73199 0.36909 0.0
C1127 C 0.31036 0.67248 0.3009 0.0
C1128 C 0.26264 0.61844 0.35332 0.0
C1129 C 0.23245 0.61527 0.34278 0.0
C1130 C 0.28035 0.64747 0.35215 0.0
C1131 C 0.26782 0.67397 0.33982 0.0
C1132 C 0.23655 0.67156 0.33008 0.0
C1133 C 0.21907 0.64219 0.3318 0.0
C1134 C 0.31334 0.64909 0.36312 0.0
C1135 C 0.2224 0.69922 0.31679 0.0
H1136 H 0.3203 0.76991 0.36051 0.0
H1137 H 0.35613 0.719 0.30359 0.0
H1138 H 0.24285 0.72677 0.36366 0.0
H1139 H 0.27444 0.71405 0.38213 0.0
H1140 H 0.26895 0.7567 0.37649 0.0
H1141 H 0.32661 0.67677 0.28652 0.0
H1142 H 0.3178 0.64944 0.30903 0.0
H1143 H 0.28516 0.6692 0.29474 0.0
H1144 H 0.27287 0.59783 0.3621 0.0
H1145 H 0.19569 0.63983 0.32366 0.0
H1146 H 0.31546 0.67145 0.37328 0.0
H1147 H 0.33255 0.65012 0.35027 0.0
H1148 H 0.31806 0.62769 0.3739 0.0
H1149 H 0.22587 0.72271 0.3255 0.0
H1150 H 0.19608 0.69567 0.31345 0.0
H1151 H 0.23525 0.70097 0.3007 0.0
C1152 C 0.31743 0.27788 0.85554 0.0
C1153 C 0.31815 0.24566 0.84804 0.0
C1154 C 0.28916 0.2966 0.85399 0.0
C1155 C 0.26088 0.28302 0.8443 0.0
C1156 C 0.26109 0.25017 0.83723 0.0
C1157 C 0.28975 0.23171 0.83936 0.0
C1158 C 0.28995 0.33136 0.86211 0.0
C1159 C 0.23156 0.23498 0.8266 0.0
C1160 C 0.18763 0.33634 0.85514 0.0
C1161 C 0.19019 0.35827 0.83747 0.0
C1162 C 0.20879 0.30957 0.85674 0.0
C1163 C 0.23248 0.30457 0.84009 0.0
C1164 C 0.23259 0.32472 0.82108 0.0
C1165 C 0.21172 0.35157 0.82014 0.0
C1166 C 0.20789 0.28872 0.87729 0.0
C1167 C 0.2569 0.31988 0.80268 0.0
H1168 H 0.3392 0.28864 0.86256 0.0
H1169 H 0.29025 0.20678 0.83356 0.0
H1170 H 0.28722 0.34823 0.84788 0.0
H1171 H 0.2694 0.3359 0.87355 0.0
H1172 H 0.31299 0.33733 0.87083 0.0
H1173 H 0.23417 0.20824 0.82469 0.0
H1174 H 0.20946 0.24007 0.83648 0.0
H1175 H 0.22776 0.24583 0.80997 0.0
H1176 H 0.17103 0.34157 0.86859 0.0
H1177 H 0.21344 0.36838 0.80634 0.0
H1178 H 0.22804 0.29602 0.88848 0.0
H1179 H 0.2114 0.2627 0.87314 0.0
H1180 H 0.18462 0.29148 0.88639 0.0
H1181 H 0.28121 0.32821 0.8083 0.0
H1182 H 0.25023 0.3338 0.78757 0.0
H1183 H 0.25893 0.29376 0.79832 0.0
C1184 C 0.63285 0.25344 0.37447 0.0
C1185 C 0.63158 0.22298 0.36416 0.0
C1186 C 0.66084 0.27275 0.37342 0.0
C1187 C 0.68812 0.2616 0.36138 0.0
C1188 C 0.68773 0.22996 0.35207 0.0
C1189 C 0.65941 0.21082 0.35372 0.0
C1190 C 0.66032 0.30605 0.38398 0.0
C1191 C 0.71625 0.21724 0.33906 0.0
C1192 C 0.73103 0.33366 0.33606 0.0
C1193 C 0.75594 0.3394 0.35139 0.0
C1194 C 0.71054 0.30662 0.33807 0.0
C1195 C 0.71463 0.28506 0.35615 0.0
C1196 C 0.74118 0.28946 0.37083 0.0
C1197 C 0.76176 0.31656 0.36818 0.0
C1198 C 0.68296 0.30258 0.32175 0.0
C1199 C 0.74634 0.26709 0.39033 0.0
H1200 H 0.61147 0.26271 0.3828 0.0
H1201 H 0.65843 0.18726 0.34572 0.0
H1202 H 0.68269 0.31006 0.39388 0.0
H1203 H 0.65961 0.32497 0.37087 0.0
H1204 H 0.6389 0.30944 0.39489 0.0
H1205 H 0.71458 0.19056 0.33637 0.0
H1206 H 0.71692 0.22941 0.32267 0.0
H1207 H 0.73947 0.22281 0.34761 0.0
H1208 H 0.72675 0.35108 0.32288 0.0
H1209 H 0.78102 0.32097 0.38007 0.0
H1210 H 0.65963 0.30856 0.32997 0.0
H1211 H 0.6814 0.27701 0.31601 0.0
H1212 H 0.68574 0.31867 0.30709 0.0
H1213 H 0.72811 0.27269 0.40329 0.0
H1214 H 0.77096 0.26999 0.39763 0.0
H1215 H 0.74287 0.24132 0.38545 0.0
C1216 C 0.72848 0.6692 0.83403 0.0
C1217 C 0.71414 0.64058 0.84207 0.0
C1218 C 0.71024 0.69803 0.83203 0.0
C1219 C 0.6772 0.69817 0.83858 0.0
C1220 C 0.66312 0.66959 0.8475 0.0
C1221 C 0.68165 0.64116 0.84893 0.0
C1222 C 0.72593 0.72789 0.82219 0.0
C1223 C 0.62811 0.6687 0.85501 0.0
C1224 C 0.62427 0.77131 0.8505 0.0
C1225 C 0.60277 0.76974 0.83254 0.0
C1226 C 0.65084 0.7499 0.8519 0.0
C1227 C 0.65607 0.72699 0.83474 0.0
C1228 C 0.63642 0.72799 0.8155 0.0
C1229 C 0.60974 0.74908 0.81477 0.0
C1230 C 0.67114 0.74957 0.87271 0.0
C1231 C 0.64153 0.70456 0.7966 0.0
H1232 H 0.75362 0.66882 0.82872 0.0
H1233 H 0.67057 0.61923 0.85545 0.0
H1234 H 0.71526 0.73277 0.80564 0.0
H1235 H 0.72109 0.74952 0.83263 0.0
H1236 H 0.75263 0.725 0.82032 0.0
H1237 H 0.62164 0.64528 0.86307 0.0
H1238 H 0.62336 0.68871 0.86687 0.0
H1239 H 0.61177 0.67232 0.84059 0.0
H1240 H 0.61878 0.78723 0.86429 0.0
H1241 H 0.59323 0.74812 0.80077 0.0
H1242 H 0.69722 0.74604 0.8688 0.0
H1243 H 0.66339 0.72894 0.88332 0.0
H1244 H 0.66835 0.77242 0.88232 0.0
H1245 H 0.66772 0.7024 0.79257 0.0
H1246 H 0.62816 0.71219 0.78147 0.0
H1247 H 0.63272 0.68008 0.8015 0.0
loop_
_geom_bond_atom_site_label_1
_geom_bond_atom_site_label_2
_geom_bond_distance
_geom_bond_site_symmetry_2
_ccdc_geom_bond_type
C0 O1 1.306 . S
C0 O3 1.160 . S
O1 C0 1.306 . S
O1 Cd2 2.228 . S
Cd2 O1 2.228 . S
Cd2 O6 2.273 . S
Cd2 O10 2.277 . S
O3 C0 1.160 . S
O3 Cd4 2.203 . S
Cd4 O3 2.203 . S
Cd4 O6 2.411 . S
Cd4 O7 2.333 . S
Cd4 O8 2.352 . S
Cd4 O12 2.277 . S
Cd4 O13 2.356 . S
C5 O10 1.209 . S
C5 O12 1.226 . S
O6 Cd2 2.273 . S
O6 Cd4 2.411 . S
O6 C9 1.320 . S
O7 Cd4 2.333 . S
O7 C9 1.214 . S
O8 Cd4 2.352 . S
O8 C11 1.258 . S
C9 O6 1.320 . S
C9 O7 1.214 . S
O10 Cd2 2.277 . S
O10 C5 1.209 . S
C11 O8 1.258 . S
C11 O13 1.282 . S
O12 Cd4 2.277 . S
O12 C5 1.226 . S
O13 Cd4 2.356 . S
O13 C11 1.282 . S
C14 O15 1.306 . S
C14 O17 1.160 . S
O15 C14 1.306 . S
O15 Cd16 2.228 . S
Cd16 O15 2.228 . S
Cd16 O20 2.273 . S
Cd16 O24 2.277 . S
O17 C14 1.160 . S
O17 Cd18 2.203 . S
Cd18 O17 2.203 . S
Cd18 O20 2.411 . S
Cd18 O21 2.333 . S
Cd18 O22 2.352 . S
Cd18 O26 2.277 . S
Cd18 O27 2.356 . S
C19 O24 1.209 . S
C19 O26 1.226 . S
O20 Cd16 2.273 . S
O20 Cd18 2.411 . S
O20 C23 1.320 . S
O21 Cd18 2.333 . S
O21 C23 1.214 . S
O22 Cd18 2.352 . S
O22 C25 1.258 . S
C23 O20 1.320 . S
C23 O21 1.214 . S
O24 Cd16 2.277 . S
O24 C19 1.209 . S
C25 O22 1.258 . S
C25 O27 1.282 . S
O26 Cd18 2.277 . S
O26 C19 1.226 . S
O27 Cd18 2.356 . S
O27 C25 1.282 . S
C28 O29 1.306 . S
C28 O31 1.160 . S
O29 C28 1.306 . S
O29 Cd30 2.228 . S
Cd30 O29 2.228 . S
Cd30 O34 2.273 . S
Cd30 O38 2.277 . S
O31 C28 1.160 . S
O31 Cd32 2.203 . S
Cd32 O31 2.203 . S
Cd32 O34 2.411 . S
Cd32 O35 2.333 . S
Cd32 O36 2.352 . S
Cd32 O40 2.277 . S
Cd32 O41 2.356 . S
C33 O38 1.209 . S
C33 O40 1.226 . S
O34 Cd30 2.273 . S
O34 Cd32 2.411 . S
O34 C37 1.320 . S
O35 Cd32 2.333 . S
O35 C37 1.214 . S
O36 Cd32 2.352 . S
O36 C39 1.258 . S
C37 O34 1.320 . S
C37 O35 1.214 . S
O38 Cd30 2.277 . S
O38 C33 1.209 . S
C39 O36 1.258 . S
C39 O41 1.282 . S
O40 Cd32 2.277 . S
O40 C33 1.226 . S
O41 Cd32 2.356 . S
O41 C39 1.282 . S
C42 O43 1.306 . S
C42 O45 1.160 . S
O43 C42 1.306 . S
O43 Cd44 2.228 . S
Cd44 O43 2.228 . S
Cd44 O48 2.273 . S
Cd44 O52 2.277 . S
O45 C42 1.160 . S
O45 Cd46 2.203 . S
Cd46 O45 2.203 . S
Cd46 O48 2.411 . S
Cd46 O49 2.333 . S
Cd46 O50 2.352 . S
Cd46 O54 2.277 . S
Cd46 O55 2.356 . S
C47 O52 1.209 . S
C47 O54 1.226 . S
O48 Cd44 2.273 . S
O48 Cd46 2.411 . S
O48 C51 1.320 . S
O49 Cd46 2.333 . S
O49 C51 1.214 . S
O50 Cd46 2.352 . S
O50 C53 1.258 . S
C51 O48 1.320 . S
C51 O49 1.214 . S
O52 Cd44 2.277 . S
O52 C47 1.209 . S
C53 O50 1.258 . S
C53 O55 1.282 . S
O54 Cd46 2.277 . S
O54 C47 1.226 . S
O55 Cd46 2.356 . S
O55 C53 1.282 . S
C56 O57 1.306 . S
C56 O59 1.160 . S
O57 C56 1.306 . S
O57 Cd58 2.228 . S
Cd58 O57 2.228 . S
Cd58 O62 2.273 . S
Cd58 O66 2.277 . S
O59 C56 1.160 . S
O59 Cd60 2.203 . S
Cd60 O59 2.203 . S
Cd60 O62 2.411 . S
Cd60 O63 2.333 . S
Cd60 O64 2.352 . S
Cd60 O68 2.277 . S
Cd60 O69 2.356 . S
C61 O66 1.209 . S
C61 O68 1.226 . S
O62 Cd58 2.273 . S
O62 Cd60 2.411 . S
O62 C65 1.320 . S
O63 Cd60 2.333 . S
O63 C65 1.214 . S
O64 Cd60 2.352 . S
O64 C67 1.258 . S
C65 O62 1.320 . S
C65 O63 1.214 . S
O66 Cd58 2.277 . S
O66 C61 1.209 . S
C67 O64 1.258 . S
C67 O69 1.282 . S
O68 Cd60 2.277 . S
O68 C61 1.226 . S
O69 Cd60 2.356 . S
O69 C67 1.282 . S
C70 O71 1.306 . S
C70 O73 1.160 . S
O71 C70 1.306 . S
O71 Cd72 2.228 . S
Cd72 O71 2.228 . S
Cd72 O76 2.273 . S
Cd72 O80 2.277 . S
O73 C70 1.160 . S
O73 Cd74 2.203 . S
Cd74 O73 2.203 . S
Cd74 O76 2.411 . S
Cd74 O77 2.333 . S
Cd74 O78 2.352 . S
Cd74 O82 2.277 . S
Cd74 O83 2.356 . S
C75 O80 1.209 . S
C75 O82 1.226 . S
O76 Cd72 2.273 . S
O76 Cd74 2.411 . S
O76 C79 1.320 . S
O77 Cd74 2.333 . S
O77 C79 1.214 . S
O78 Cd74 2.352 . S
O78 C81 1.258 . S
C79 O76 1.320 . S
C79 O77 1.214 . S
O80 Cd72 2.277 . S
O80 C75 1.209 . S
C81 O78 1.258 . S
C81 O83 1.282 . S
O82 Cd74 2.277 . S
O82 C75 1.226 . S
O83 Cd74 2.356 . S
O83 C81 1.282 . S
C84 O85 1.306 . S
C84 O87 1.160 . S
O85 C84 1.306 . S
O85 Cd86 2.228 . S
Cd86 O85 2.228 . S
Cd86 O90 2.273 . S
Cd86 O94 2.277 . S
O87 C84 1.160 . S
O87 Cd88 2.203 . S
Cd88 O87 2.203 . S
Cd88 O90 2.411 . S
Cd88 O91 2.333 . S
Cd88 O92 2.352 . S
Cd88 O96 2.277 . S
Cd88 O97 2.356 . S
C89 O94 1.209 . S
C89 O96 1.226 . S
O90 Cd86 2.273 . S
O90 Cd88 2.411 . S
O90 C93 1.320 . S
O91 Cd88 2.333 . S
O91 C93 1.214 . S
O92 Cd88 2.352 . S
O92 C95 1.258 . S
C93 O90 1.320 . S
C93 O91 1.214 . S
O94 Cd86 2.277 . S
O94 C89 1.209 . S
C95 O92 1.258 . S
C95 O97 1.282 . S
O96 Cd88 2.277 . S
O96 C89 1.226 . S
O97 Cd88 2.356 . S
O97 C95 1.282 . S
C98 O99 1.306 . S
C98 O101 1.160 . S
O99 C98 1.306 . S
O99 Cd100 2.228 . S
Cd100 O99 2.228 . S
Cd100 O104 2.273 . S
Cd100 O108 2.277 . S
O101 C98 1.160 . S
O101 Cd102 2.203 . S
Cd102 O101 2.203 . S
Cd102 O104 2.411 . S
Cd102 O105 2.333 . S
Cd102 O106 2.352 . S
Cd102 O110 2.277 . S
Cd102 O111 2.356 . S
C103 O108 1.209 . S
C103 O110 1.226 . S
O104 Cd100 2.273 . S
O104 Cd102 2.411 . S
O104 C107 1.320 . S
O105 Cd102 2.333 . S
O105 C107 1.214 . S
O106 Cd102 2.352 . S
O106 C109 1.258 . S
C107 O104 1.320 . S
C107 O105 1.214 . S
O108 Cd100 2.277 . S
O108 C103 1.209 . S
C109 O106 1.258 . S
C109 O111 1.282 . S
O110 Cd102 2.277 . S
O110 C103 1.226 . S
O111 Cd102 2.356 . S
O111 C109 1.282 . S
C112 O113 1.306 . S
C112 O115 1.160 . S
O113 C112 1.306 . S
O113 Cd114 2.228 . S
Cd114 O113 2.228 . S
Cd114 O118 2.273 . S
Cd114 O122 2.277 . S
O115 C112 1.160 . S
O115 Cd116 2.203 . S
Cd116 O115 2.203 . S
Cd116 O118 2.411 . S
Cd116 O119 2.333 . S
Cd116 O120 2.352 . S
Cd116 O124 2.277 . S
Cd116 O125 2.356 . S
C117 O122 1.209 . S
C117 O124 1.226 . S
O118 Cd114 2.273 . S
O118 Cd116 2.411 . S
O118 C121 1.320 . S
O119 Cd116 2.333 . S
O119 C121 1.214 . S
O120 Cd116 2.352 . S
O120 C123 1.258 . S
C121 O118 1.320 . S
C121 O119 1.214 . S
O122 Cd114 2.277 . S
O122 C117 1.209 . S
C123 O120 1.258 . S
C123 O125 1.282 . S
O124 Cd116 2.277 . S
O124 C117 1.226 . S
O125 Cd116 2.356 . S
O125 C123 1.282 . S
C126 O127 1.306 . S
C126 O129 1.160 . S
O127 C126 1.306 . S
O127 Cd128 2.228 . S
Cd128 O127 2.228 . S
Cd128 O132 2.273 . S
Cd128 O136 2.277 . S
O129 C126 1.160 . S
O129 Cd130 2.203 . S
Cd130 O129 2.203 . S
Cd130 O132 2.411 . S
Cd130 O133 2.333 . S
Cd130 O134 2.352 . S
Cd130 O138 2.277 . S
Cd130 O139 2.356 . S
C131 O136 1.209 . S
C131 O138 1.226 . S
O132 Cd128 2.273 . S
O132 Cd130 2.411 . S
O132 C135 1.320 . S
O133 Cd130 2.333 . S
O133 C135 1.214 . S
O134 Cd130 2.352 . S
O134 C137 1.258 . S
C135 O132 1.320 . S
C135 O133 1.214 . S
O136 Cd128 2.277 . S
O136 C131 1.209 . S
C137 O134 1.258 . S
C137 O139 1.282 . S
O138 Cd130 2.277 . S
O138 C131 1.226 . S
O139 Cd130 2.356 . S
O139 C137 1.282 . S
C140 O141 1.306 . S
C140 O143 1.160 . S
O141 C140 1.306 . S
O141 Cd142 2.228 . S
Cd142 O141 2.228 . S
Cd142 O146 2.273 . S
Cd142 O150 2.277 . S
O143 C140 1.160 . S
O143 Cd144 2.203 . S
Cd144 O143 2.203 . S
Cd144 O146 2.411 . S
Cd144 O147 2.333 . S
Cd144 O148 2.352 . S
Cd144 O152 2.277 . S
Cd144 O153 2.356 . S
C145 O150 1.209 . S
C145 O152 1.226 . S
O146 Cd142 2.273 . S
O146 Cd144 2.411 . S
O146 C149 1.320 . S
O147 Cd144 2.333 . S
O147 C149 1.214 . S
O148 Cd144 2.352 . S
O148 C151 1.258 . S
C149 O146 1.320 . S
C149 O147 1.214 . S
O150 Cd142 2.277 . S
O150 C145 1.209 . S
C151 O148 1.258 . S
C151 O153 1.282 . S
O152 Cd144 2.277 . S
O152 C145 1.226 . S
O153 Cd144 2.356 . S
O153 C151 1.282 . S
C154 O155 1.306 . S
C154 O157 1.160 . S
O155 C154 1.306 . S
O155 Cd156 2.228 . S
Cd156 O155 2.228 . S
Cd156 O160 2.273 . S
Cd156 O164 2.277 . S
O157 C154 1.160 . S
O157 Cd158 2.203 . S
Cd158 O157 2.203 . S
Cd158 O160 2.411 . S
Cd158 O161 2.333 . S
Cd158 O162 2.352 . S
Cd158 O166 2.277 . S
Cd158 O167 2.356 . S
C159 O164 1.209 . S
C159 O166 1.226 . S
O160 Cd156 2.273 . S
O160 Cd158 2.411 . S
O160 C163 1.320 . S
O161 Cd158 2.333 . S
O161 C163 1.214 . S
O162 Cd158 2.352 . S
O162 C165 1.258 . S
C163 O160 1.320 . S
C163 O161 1.214 . S
O164 Cd156 2.277 . S
O164 C159 1.209 . S
C165 O162 1.258 . S
C165 O167 1.282 . S
O166 Cd158 2.277 . S
O166 C159 1.226 . S
O167 Cd158 2.356 . S
O167 C165 1.282 . S
C168 O169 1.306 . S
C168 O171 1.160 . S
O169 C168 1.306 . S
O169 Cd170 2.228 . S
Cd170 O169 2.228 . S
Cd170 O174 2.273 . S
Cd170 O178 2.277 . S
O171 C168 1.160 . S
O171 Cd172 2.203 . S
Cd172 O171 2.203 . S
Cd172 O174 2.411 . S
Cd172 O175 2.333 . S
Cd172 O176 2.352 . S
Cd172 O180 2.277 . S
Cd172 O181 2.356 . S
C173 O178 1.209 . S
C173 O180 1.226 . S
O174 Cd170 2.273 . S
O174 Cd172 2.411 . S
O174 C177 1.320 . S
O175 Cd172 2.333 . S
O175 C177 1.214 . S
O176 Cd172 2.352 . S
O176 C179 1.258 . S
C177 O174 1.320 . S
C177 O175 1.214 . S
O178 Cd170 2.277 . S
O178 C173 1.209 . S
C179 O176 1.258 . S
C179 O181 1.282 . S
O180 Cd172 2.277 . S
O180 C173 1.226 . S
O181 Cd172 2.356 . S
O181 C179 1.282 . S
C182 O183 1.306 . S
C182 O185 1.160 . S
O183 C182 1.306 . S
O183 Cd184 2.228 . S
Cd184 O183 2.228 . S
Cd184 O188 2.273 . S
Cd184 O192 2.277 . S
O185 C182 1.160 . S
O185 Cd186 2.203 . S
Cd186 O185 2.203 . S
Cd186 O188 2.411 . S
Cd186 O189 2.333 . S
Cd186 O190 2.352 . S
Cd186 O194 2.277 . S
Cd186 O195 2.356 . S
C187 O192 1.209 . S
C187 O194 1.226 . S
O188 Cd184 2.273 . S
O188 Cd186 2.411 . S
O188 C191 1.320 . S
O189 Cd186 2.333 . S
O189 C191 1.214 . S
O190 Cd186 2.352 . S
O190 C193 1.258 . S
C191 O188 1.320 . S
C191 O189 1.214 . S
O192 Cd184 2.277 . S
O192 C187 1.209 . S
C193 O190 1.258 . S
C193 O195 1.282 . S
O194 Cd186 2.277 . S
O194 C187 1.226 . S
O195 Cd186 2.356 . S
O195 C193 1.282 . S
C196 O197 1.306 . S
C196 O199 1.160 . S
O197 C196 1.306 . S
O197 Cd198 2.228 . S
Cd198 O197 2.228 . S
Cd198 O202 2.273 . S
Cd198 O206 2.277 . S
O199 C196 1.160 . S
O199 Cd200 2.203 . S
Cd200 O199 2.203 . S
Cd200 O202 2.411 . S
Cd200 O203 2.333 . S
Cd200 O204 2.352 . S
Cd200 O208 2.277 . S
Cd200 O209 2.356 . S
C201 O206 1.209 . S
C201 O208 1.226 . S
O202 Cd198 2.273 . S
O202 Cd200 2.411 . S
O202 C205 1.320 . S
O203 Cd200 2.333 . S
O203 C205 1.214 . S
O204 Cd200 2.352 . S
O204 C207 1.258 . S
C205 O202 1.320 . S
C205 O203 1.214 . S
O206 Cd198 2.277 . S
O206 C201 1.209 . S
C207 O204 1.258 . S
C207 O209 1.282 . S
O208 Cd200 2.277 . S
O208 C201 1.226 . S
O209 Cd200 2.356 . S
O209 C207 1.282 . S
C210 O211 1.306 . S
C210 O213 1.160 . S
O211 C210 1.306 . S
O211 Cd212 2.228 . S
Cd212 O211 2.228 . S
Cd212 O216 2.273 . S
Cd212 O220 2.277 . S
O213 C210 1.160 . S
O213 Cd214 2.203 . S
Cd214 O213 2.203 . S
Cd214 O216 2.411 . S
Cd214 O217 2.333 . S
Cd214 O218 2.352 . S
Cd214 O222 2.277 . S
Cd214 O223 2.356 . S
C215 O220 1.209 . S
C215 O222 1.226 . S
O216 Cd212 2.273 . S
O216 Cd214 2.411 . S
O216 C219 1.320 . S
O217 Cd214 2.333 . S
O217 C219 1.214 . S
O218 Cd214 2.352 . S
O218 C221 1.258 . S
C219 O216 1.320 . S
C219 O217 1.214 . S
O220 Cd212 2.277 . S
O220 C215 1.209 . S
C221 O218 1.258 . S
C221 O223 1.282 . S
O222 Cd214 2.277 . S
O222 C215 1.226 . S
O223 Cd214 2.356 . S
O223 C221 1.282 . S
C224 C225 1.391 . S
C224 C226 1.394 . S
C224 H240 0.931 . S
C225 C224 1.391 . S
C225 C229 1.376 . S
C226 C224 1.394 . S
C226 C227 1.369 . S
C226 C230 1.527 1_455 S
C227 C226 1.369 . S
C227 C228 1.410 . S
C227 C235 1.503 1_455 S
C228 C227 1.410 . S
C228 C229 1.392 . S
C228 C231 1.511 . S
C229 C225 1.376 . S
C229 C228 1.392 . S
C229 H241 0.929 . S
C230 C226 1.527 1_655 S
C230 H242 0.965 . S
C230 H243 0.963 . S
C230 H244 0.959 1_655 S
C231 C228 1.511 . S
C231 H245 0.961 . S
C231 H246 0.961 . S
C231 H247 0.961 . S
C232 C233 1.370 . S
C232 C234 1.363 . S
C232 H248 0.931 . S
C233 C232 1.370 . S
C233 C237 1.408 . S
C234 C232 1.363 . S
C234 C235 1.370 . S
C234 C238 1.524 . S
C235 C227 1.503 1_655 S
C235 C234 1.370 . S
C235 C236 1.403 . S
C236 C235 1.403 . S
C236 C237 1.404 . S
C236 C239 1.539 . S
C237 C233 1.408 . S
C237 C236 1.404 . S
C237 H249 0.930 . S
C238 C234 1.524 . S
C238 H250 0.956 . S
C238 H251 0.961 1_655 S
C238 H252 0.961 . S
C239 C236 1.539 . S
C239 H253 0.958 . S
C239 H254 0.961 . S
C239 H255 0.960 . S
H240 C224 0.931 . S
H241 C229 0.929 . S
H242 C230 0.965 . S
H243 C230 0.963 . S
H244 C230 0.959 1_455 S
H245 C231 0.961 . S
H246 C231 0.961 . S
H247 C231 0.961 . S
H248 C232 0.931 . S
H249 C237 0.930 . S
H250 C238 0.956 . S
H251 C238 0.961 1_455 S
H252 C238 0.961 . S
H253 C239 0.958 . S
H254 C239 0.961 . S
H255 C239 0.960 . S
C256 C257 1.391 . S
C256 C258 1.394 . S
C256 H272 0.931 . S
C257 C256 1.391 . S
C257 C261 1.376 . S
C258 C256 1.394 . S
C258 C259 1.369 . S
C258 C262 1.551 . S
C259 C258 1.369 . S
C259 C260 1.410 . S
C259 C267 1.503 1_565 S
C260 C259 1.410 . S
C260 C261 1.392 . S
C260 C263 1.511 . S
C261 C257 1.376 . S
C261 C260 1.392 . S
C261 H273 0.929 . S
C262 C258 1.551 . S
C262 H274 0.938 1_565 S
C262 H275 0.952 1_565 S
C262 H276 0.973 . S
C263 C260 1.511 . S
C263 H277 0.961 . S
C263 H278 0.961 . S
C263 H279 0.961 . S
C264 C265 1.370 . S
C264 C266 1.363 . S
C264 H280 0.931 . S
C265 C264 1.370 . S
C265 C269 1.408 . S
C266 C264 1.363 . S
C266 C267 1.370 . S
C266 C270 1.524 . S
C267 C259 1.503 1_545 S
C267 C266 1.370 . S
C267 C268 1.403 . S
C268 C267 1.403 . S
C268 C269 1.404 . S
C268 C271 1.539 . S
C269 C265 1.408 . S
C269 C268 1.404 . S
C269 H281 0.930 . S
C270 C266 1.524 . S
C270 H282 0.956 . S
C270 H283 0.961 1_545 S
C270 H284 0.961 . S
C271 C268 1.539 . S
C271 H285 0.958 . S
C271 H286 0.961 . S
C271 H287 0.960 1_545 S
H272 C256 0.931 . S
H273 C261 0.929 . S
H274 C262 0.938 1_545 S
H275 C262 0.952 1_545 S
H276 C262 0.973 . S
H277 C263 0.961 . S
H278 C263 0.961 . S
H279 C263 0.961 . S
H280 C264 0.931 . S
H281 C269 0.930 . S
H282 C270 0.956 . S
H283 C270 0.961 1_565 S
H284 C270 0.961 . S
H285 C271 0.958 . S
H286 C271 0.961 . S
H287 C271 0.960 1_565 S
C288 C289 1.391 . S
C288 C290 1.394 . S
C288 H304 0.931 . S
C289 C288 1.391 . S
C289 C293 1.376 . S
C290 C288 1.394 . S
C290 C291 1.369 . S
C290 C294 1.531 . S
C291 C290 1.369 . S
C291 C292 1.410 . S
C291 C299 1.503 1_455 S
C292 C291 1.410 . S
C292 C293 1.392 . S
C292 C295 1.511 . S
C293 C289 1.376 . S
C293 C292 1.392 . S
C293 H305 0.929 . S
C294 C290 1.531 . S
C294 H306 0.960 1_455 S
C294 H307 0.962 1_455 S
C294 H308 0.960 . S
C295 C292 1.511 . S
C295 H309 0.961 . S
C295 H310 0.961 . S
C295 H311 0.961 . S
C296 C297 1.370 . S
C296 C298 1.363 . S
C296 H312 0.931 . S
C297 C296 1.370 . S
C297 C301 1.408 . S
C298 C296 1.363 . S
C298 C299 1.370 . S
C298 C302 1.524 . S
C299 C291 1.503 1_655 S
C299 C298 1.370 . S
C299 C300 1.403 . S
C300 C299 1.403 . S
C300 C301 1.404 . S
C300 C303 1.539 . S
C301 C297 1.408 . S
C301 C300 1.404 . S
C301 H313 0.930 . S
C302 C298 1.524 . S
C302 H314 0.956 . S
C302 H315 0.936 1_655 S
C302 H316 0.961 . S
C303 C300 1.539 . S
C303 H317 0.958 . S
C303 H318 0.961 . S
C303 H319 0.960 1_655 S
H304 C288 0.931 . S
H305 C293 0.929 . S
H306 C294 0.960 1_655 S
H307 C294 0.962 1_655 S
H308 C294 0.960 . S
H309 C295 0.961 . S
H310 C295 0.961 . S
H311 C295 0.961 . S
H312 C296 0.931 . S
H313 C301 0.930 . S
H314 C302 0.956 . S
H315 C302 0.936 1_455 S
H316 C302 0.961 . S
H317 C303 0.958 . S
H318 C303 0.961 . S
H319 C303 0.960 1_455 S
C320 C321 1.391 . S
C320 C322 1.394 . S
C320 H336 0.931 . S
C321 C320 1.391 . S
C321 C325 1.376 . S
C322 C320 1.394 . S
C322 C323 1.369 . S
C322 C326 1.531 . S
C323 C322 1.369 . S
C323 C324 1.410 . S
C323 C331 1.503 1_565 S
C324 C323 1.410 . S
C324 C325 1.392 . S
C324 C327 1.511 . S
C325 C321 1.376 . S
C325 C324 1.392 . S
C325 H337 0.929 . S
C326 C322 1.531 . S
C326 H338 0.960 1_565 S
C326 H339 0.962 1_565 S
C326 H340 0.960 . S
C327 C324 1.511 . S
C327 H341 0.961 . S
C327 H342 0.961 . S
C327 H343 0.961 . S
C328 C329 1.370 . S
C328 C330 1.363 . S
C328 H344 0.931 . S
C329 C328 1.370 . S
C329 C333 1.408 . S
C330 C328 1.363 . S
C330 C331 1.370 . S
C330 C334 1.524 . S
C331 C323 1.503 1_545 S
C331 C330 1.370 . S
C331 C332 1.403 . S
C332 C331 1.403 . S
C332 C333 1.404 . S
C332 C335 1.539 . S
C333 C329 1.408 . S
C333 C332 1.404 . S
C333 H345 0.930 . S
C334 C330 1.524 . S
C334 H346 0.956 . S
C334 H347 0.961 . S
C334 H348 0.961 . S
C335 C332 1.539 . S
C335 H349 0.958 . S
C335 H350 0.961 . S
C335 H351 0.960 1_545 S
H336 C320 0.931 . S
H337 C325 0.929 . S
H338 C326 0.960 1_545 S
H339 C326 0.962 1_545 S
H340 C326 0.960 . S
H341 C327 0.961 . S
H342 C327 0.961 . S
H343 C327 0.961 . S
H344 C328 0.931 . S
H345 C333 0.930 . S
H346 C334 0.956 . S
H347 C334 0.961 . S
H348 C334 0.961 . S
H349 C335 0.958 . S
H350 C335 0.961 . S
H351 C335 0.960 1_565 S
C352 C353 1.391 . S
C352 C354 1.394 . S
C352 H368 0.931 . S
C353 C352 1.391 . S
C353 C357 1.376 . S
C354 C352 1.394 . S
C354 C355 1.369 . S
C354 C358 1.531 . S
C355 C354 1.369 . S
C355 C356 1.410 . S
C355 C363 1.503 1_655 S
C356 C355 1.410 . S
C356 C357 1.392 . S
C356 C359 1.511 . S
C357 C353 1.376 . S
C357 C356 1.392 . S
C357 H369 0.929 . S
C358 C354 1.531 . S
C358 H370 0.960 . S
C358 H371 0.962 . S
C358 H372 0.960 . S
C359 C356 1.511 . S
C359 H373 0.961 . S
C359 H374 0.961 1_655 S
C359 H375 0.961 . S
C360 C361 1.370 . S
C360 C362 1.363 . S
C360 H376 0.931 . S
C361 C360 1.370 . S
C361 C365 1.408 . S
C362 C360 1.363 . S
C362 C363 1.370 . S
C362 C366 1.524 . S
C363 C355 1.503 1_455 S
C363 C362 1.370 . S
C363 C364 1.403 . S
C364 C363 1.403 . S
C364 C365 1.404 . S
C364 C367 1.539 . S
C365 C361 1.408 . S
C365 C364 1.404 . S
C365 H377 0.930 . S
C366 C362 1.524 . S
C366 H378 0.956 . S
C366 H379 0.961 . S
C366 H380 0.961 . S
C367 C364 1.539 . S
C367 H381 0.958 1_455 S
C367 H382 0.961 . S
C367 H383 0.960 1_455 S
H368 C352 0.931 . S
H369 C357 0.929 . S
H370 C358 0.960 . S
H371 C358 0.962 . S
H372 C358 0.960 . S
H373 C359 0.961 . S
H374 C359 0.961 1_455 S
H375 C359 0.961 . S
H376 C360 0.931 . S
H377 C365 0.930 . S
H378 C366 0.956 . S
H379 C366 0.961 . S
H380 C366 0.961 . S
H381 C367 0.958 1_655 S
H382 C367 0.961 . S
H383 C367 0.960 1_655 S
C384 C385 1.391 . S
C384 C386 1.394 . S
C384 H400 0.931 . S
C385 C384 1.391 . S
C385 C389 1.376 . S
C386 C384 1.394 . S
C386 C387 1.369 . S
C386 C390 1.531 . S
C387 C386 1.369 . S
C387 C388 1.410 . S
C387 C395 1.503 1_545 S
C388 C387 1.410 . S
C388 C389 1.392 . S
C388 C391 1.511 . S
C389 C385 1.376 . S
C389 C388 1.392 . S
C389 H401 0.929 . S
C390 C386 1.531 . S
C390 H402 0.960 1_545 S
C390 H403 0.962 . S
C390 H404 0.960 . S
C391 C388 1.511 . S
C391 H405 0.961 . S
C391 H406 0.961 . S
C391 H407 0.961 . S
C392 C393 1.370 . S
C392 C394 1.363 . S
C392 H408 0.931 . S
C393 C392 1.370 . S
C393 C397 1.408 . S
C394 C392 1.363 . S
C394 C395 1.370 . S
C394 C398 1.524 1_565 S
C395 C387 1.503 1_565 S
C395 C394 1.370 . S
C395 C396 1.403 . S
C396 C395 1.403 . S
C396 C397 1.404 . S
C396 C399 1.539 . S
C397 C393 1.408 . S
C397 C396 1.404 . S
C397 H409 0.930 . S
C398 C394 1.524 1_545 S
C398 H410 0.956 . S
C398 H411 0.961 . S
C398 H412 0.961 1_545 S
C399 C396 1.539 . S
C399 H413 0.958 . S
C399 H414 0.961 . S
C399 H415 0.960 . S
H400 C384 0.931 . S
H401 C389 0.929 . S
H402 C390 0.960 1_565 S
H403 C390 0.962 . S
H404 C390 0.960 . S
H405 C391 0.961 . S
H406 C391 0.961 . S
H407 C391 0.961 . S
H408 C392 0.931 . S
H409 C397 0.930 . S
H410 C398 0.956 . S
H411 C398 0.961 . S
H412 C398 0.961 1_565 S
H413 C399 0.958 . S
H414 C399 0.961 . S
H415 C399 0.960 . S
C416 C417 1.391 . S
C416 C418 1.394 . S
C416 H432 0.931 . S
C417 C416 1.391 . S
C417 C421 1.376 . S
C418 C416 1.394 . S
C418 C419 1.369 . S
C418 C422 1.531 . S
C419 C418 1.369 . S
C419 C420 1.410 . S
C419 C427 1.503 1_655 S
C420 C419 1.410 . S
C420 C421 1.392 . S
C420 C423 1.511 . S
C421 C417 1.376 . S
C421 C420 1.392 . S
C421 H433 0.929 . S
C422 C418 1.531 . S
C422 H434 0.960 1_655 S
C422 H435 0.962 1_655 S
C422 H436 0.960 . S
C423 C420 1.511 . S
C423 H437 0.961 . S
C423 H438 0.961 . S
C423 H439 0.961 . S
C424 C425 1.370 . S
C424 C426 1.363 . S
C424 H440 0.931 . S
C425 C424 1.370 . S
C425 C429 1.408 . S
C426 C424 1.363 . S
C426 C427 1.370 . S
C426 C430 1.524 . S
C427 C419 1.503 1_455 S
C427 C426 1.370 . S
C427 C428 1.403 . S
C428 C427 1.403 . S
C428 C429 1.404 . S
C428 C431 1.539 . S
C429 C425 1.408 . S
C429 C428 1.404 . S
C429 H441 0.930 . S
C430 C426 1.524 . S
C430 H442 0.956 . S
C430 H443 0.961 1_455 S
C430 H444 0.961 . S
C431 C428 1.539 . S
C431 H445 0.958 . S
C431 H446 0.961 . S
C431 H447 0.960 1_455 S
H432 C416 0.931 . S
H433 C421 0.929 . S
H434 C422 0.960 1_455 S
H435 C422 0.962 1_455 S
H436 C422 0.960 . S
H437 C423 0.961 . S
H438 C423 0.961 . S
H439 C423 0.961 . S
H440 C424 0.931 . S
H441 C429 0.930 . S
H442 C430 0.956 . S
H443 C430 0.961 1_655 S
H444 C430 0.961 . S
H445 C431 0.958 . S
H446 C431 0.961 . S
H447 C431 0.960 1_655 S
C448 C449 1.391 . S
C448 C450 1.394 . S
C448 H464 0.931 . S
C449 C448 1.391 . S
C449 C453 1.376 . S
C450 C448 1.394 . S
C450 C451 1.369 . S
C450 C454 1.526 1_545 S
C451 C450 1.369 . S
C451 C452 1.410 . S
C451 C459 1.503 1_545 S
C452 C451 1.410 . S
C452 C453 1.392 . S
C452 C455 1.511 . S
C453 C449 1.376 . S
C453 C452 1.392 . S
C453 H465 0.929 . S
C454 C450 1.526 1_565 S
C454 H466 0.965 . S
C454 H467 0.964 . S
C454 H468 0.958 1_565 S
C455 C452 1.511 . S
C455 H469 0.961 . S
C455 H470 0.961 . S
C455 H471 0.961 . S
C456 C457 1.370 . S
C456 C458 1.363 . S
C456 H472 0.931 . S
C457 C456 1.370 . S
C457 C461 1.408 . S
C458 C456 1.363 . S
C458 C459 1.370 . S
C458 C462 1.524 . S
C459 C451 1.503 1_565 S
C459 C458 1.370 . S
C459 C460 1.403 . S
C460 C459 1.403 . S
C460 C461 1.404 . S
C460 C463 1.539 . S
C461 C457 1.408 . S
C461 C460 1.404 . S
C461 H473 0.930 . S
C462 C458 1.524 . S
C462 H474 0.956 . S
C462 H475 0.961 1_565 S
C462 H476 0.961 . S
C463 C460 1.539 . S
C463 H477 0.958 . S
C463 H478 0.961 . S
C463 H479 0.960 1_565 S
H464 C448 0.931 . S
H465 C453 0.929 . S
H466 C454 0.965 . S
H467 C454 0.964 . S
H468 C454 0.958 1_545 S
H469 C455 0.961 . S
H470 C455 0.961 . S
H471 C455 0.961 . S
H472 C456 0.931 . S
H473 C461 0.930 . S
H474 C462 0.956 . S
H475 C462 0.961 1_545 S
H476 C462 0.961 . S
H477 C463 0.958 . S
H478 C463 0.961 . S
H479 C463 0.960 1_545 S
C480 C481 1.391 . S
C480 C482 1.394 . S
C480 H496 0.931 . S
C481 C480 1.391 . S
C481 C485 1.376 . S
C482 C480 1.394 . S
C482 C483 1.369 . S
C482 C486 1.531 . S
C483 C482 1.369 . S
C483 C484 1.410 . S
C483 C491 1.503 . S
C484 C483 1.410 . S
C484 C485 1.392 . S
C484 C487 1.511 . S
C485 C481 1.376 . S
C485 C484 1.392 . S
C485 H497 0.929 . S
C486 C482 1.531 . S
C486 H498 0.960 . S
C486 H499 0.962 . S
C486 H500 0.960 . S
C487 C484 1.511 . S
C487 H501 0.961 . S
C487 H502 0.961 . S
C487 H503 0.961 . S
C488 C489 1.370 . S
C488 C490 1.363 . S
C488 H504 0.931 . S
C489 C488 1.370 . S
C489 C493 1.408 . S
C490 C488 1.363 . S
C490 C491 1.370 . S
C490 C494 1.524 . S
C491 C483 1.503 . S
C491 C490 1.370 . S
C491 C492 1.403 . S
C492 C491 1.403 . S
C492 C493 1.404 . S
C492 C495 1.539 . S
C493 C489 1.408 . S
C493 C492 1.404 . S
C493 H505 0.930 . S
C494 C490 1.524 . S
C494 H506 0.956 . S
C494 H507 0.961 . S
C494 H508 0.961 . S
C495 C492 1.539 . S
C495 H509 0.958 . S
C495 H510 0.961 . S
C495 H511 0.960 . S
H496 C480 0.931 . S
H497 C485 0.929 . S
H498 C486 0.960 . S
H499 C486 0.962 . S
H500 C486 0.960 . S
H501 C487 0.961 . S
H502 C487 0.961 . S
H503 C487 0.961 . S
H504 C488 0.931 . S
H505 C493 0.930 . S
H506 C494 0.956 . S
H507 C494 0.961 . S
H508 C494 0.961 . S
H509 C495 0.958 . S
H510 C495 0.961 . S
H511 C495 0.960 . S
C512 C513 1.391 . S
C512 C514 1.394 . S
C512 H528 0.931 . S
C513 C512 1.391 . S
C513 C517 1.376 . S
C514 C512 1.394 . S
C514 C515 1.369 . S
C514 C518 1.531 . S
C515 C514 1.369 . S
C515 C516 1.410 . S
C515 C523 1.503 . S
C516 C515 1.410 . S
C516 C517 1.392 . S
C516 C519 1.511 . S
C517 C513 1.376 . S
C517 C516 1.392 . S
C517 H529 0.929 . S
C518 C514 1.531 . S
C518 H530 0.960 . S
C518 H531 0.962 . S
C518 H532 0.960 . S
C519 C516 1.511 . S
C519 H533 0.961 . S
C519 H534 0.961 . S
C519 H535 0.961 . S
C520 C521 1.370 . S
C520 C522 1.363 . S
C520 H536 0.931 . S
C521 C520 1.370 . S
C521 C525 1.408 . S
C522 C520 1.363 . S
C522 C523 1.370 . S
C522 C526 1.524 . S
C523 C515 1.503 . S
C523 C522 1.370 . S
C523 C524 1.403 . S
C524 C523 1.403 . S
C524 C525 1.404 . S
C524 C527 1.539 . S
C525 C521 1.408 . S
C525 C524 1.404 . S
C525 H537 0.930 . S
C526 C522 1.524 . S
C526 H538 0.956 . S
C526 H539 0.961 . S
C526 H540 0.961 . S
C527 C524 1.539 . S
C527 H541 0.958 . S
C527 H542 0.961 . S
C527 H543 0.960 . S
H528 C512 0.931 . S
H529 C517 0.929 . S
H530 C518 0.960 . S
H531 C518 0.962 . S
H532 C518 0.960 . S
H533 C519 0.961 . S
H534 C519 0.961 . S
H535 C519 0.961 . S
H536 C520 0.931 . S
H537 C525 0.930 . S
H538 C526 0.956 . S
H539 C526 0.961 . S
H540 C526 0.961 . S
H541 C527 0.958 . S
H542 C527 0.961 . S
H543 C527 0.960 . S
C544 C545 1.391 . S
C544 C546 1.394 . S
C544 H560 0.931 . S
C545 C544 1.391 . S
C545 C549 1.376 . S
C546 C544 1.394 . S
C546 C547 1.369 . S
C546 C550 1.531 . S
C547 C546 1.369 . S
C547 C548 1.410 . S
C547 C555 1.503 . S
C548 C547 1.410 . S
C548 C549 1.392 . S
C548 C551 1.511 . S
C549 C545 1.376 . S
C549 C548 1.392 . S
C549 H561 0.929 . S
C550 C546 1.531 . S
C550 H562 0.960 . S
C550 H563 0.962 . S
C550 H564 0.960 . S
C551 C548 1.511 . S
C551 H565 0.961 . S
C551 H566 0.961 . S
C551 H567 0.961 . S
C552 C553 1.370 . S
C552 C554 1.363 . S
C552 H568 0.931 . S
C553 C552 1.370 . S
C553 C557 1.408 . S
C554 C552 1.363 . S
C554 C555 1.370 . S
C554 C558 1.524 . S
C555 C547 1.503 . S
C555 C554 1.370 . S
C555 C556 1.403 . S
C556 C555 1.403 . S
C556 C557 1.404 . S
C556 C559 1.539 . S
C557 C553 1.408 . S
C557 C556 1.404 . S
C557 H569 0.930 . S
C558 C554 1.524 . S
C558 H570 0.956 . S
C558 H571 0.961 . S
C558 H572 0.961 . S
C559 C556 1.539 . S
C559 H573 0.958 . S
C559 H574 0.961 . S
C559 H575 0.960 . S
H560 C544 0.931 . S
H561 C549 0.929 . S
H562 C550 0.960 . S
H563 C550 0.962 . S
H564 C550 0.960 . S
H565 C551 0.961 . S
H566 C551 0.961 . S
H567 C551 0.961 . S
H568 C552 0.931 . S
H569 C557 0.930 . S
H570 C558 0.956 . S
H571 C558 0.961 . S
H572 C558 0.961 . S
H573 C559 0.958 . S
H574 C559 0.961 . S
H575 C559 0.960 . S
C576 C577 1.391 . S
C576 C578 1.394 . S
C576 H592 0.931 . S
C577 C576 1.391 . S
C577 C581 1.376 . S
C578 C576 1.394 . S
C578 C579 1.369 . S
C578 C582 1.531 . S
C579 C578 1.369 . S
C579 C580 1.410 . S
C579 C587 1.503 . S
C580 C579 1.410 . S
C580 C581 1.392 . S
C580 C583 1.511 . S
C581 C577 1.376 . S
C581 C580 1.392 . S
C581 H593 0.929 . S
C582 C578 1.531 . S
C582 H594 0.960 . S
C582 H595 0.962 . S
C582 H596 0.960 . S
C583 C580 1.511 . S
C583 H597 0.961 . S
C583 H598 0.961 . S
C583 H599 0.961 . S
C584 C585 1.370 . S
C584 C586 1.363 . S
C584 H600 0.931 . S
C585 C584 1.370 . S
C585 C589 1.408 . S
C586 C584 1.363 . S
C586 C587 1.370 . S
C586 C590 1.524 . S
C587 C579 1.503 . S
C587 C586 1.370 . S
C587 C588 1.403 . S
C588 C587 1.403 . S
C588 C589 1.404 . S
C588 C591 1.539 . S
C589 C585 1.408 . S
C589 C588 1.404 . S
C589 H601 0.930 . S
C590 C586 1.524 . S
C590 H602 0.956 . S
C590 H603 0.961 . S
C590 H604 0.961 . S
C591 C588 1.539 . S
C591 H605 0.958 . S
C591 H606 0.961 . S
C591 H607 0.960 . S
H592 C576 0.931 . S
H593 C581 0.929 . S
H594 C582 0.960 . S
H595 C582 0.962 . S
H596 C582 0.960 . S
H597 C583 0.961 . S
H598 C583 0.961 . S
H599 C583 0.961 . S
H600 C584 0.931 . S
H601 C589 0.930 . S
H602 C590 0.956 . S
H603 C590 0.961 . S
H604 C590 0.961 . S
H605 C591 0.958 . S
H606 C591 0.961 . S
H607 C591 0.960 . S
C608 C609 1.391 . S
C608 C610 1.394 . S
C608 H624 0.931 . S
C609 C608 1.391 . S
C609 C613 1.376 . S
C610 C608 1.394 . S
C610 C611 1.369 . S
C610 C614 1.531 . S
C611 C610 1.369 . S
C611 C612 1.410 . S
C611 C619 1.503 . S
C612 C611 1.410 . S
C612 C613 1.392 . S
C612 C615 1.511 . S
C613 C609 1.376 . S
C613 C612 1.392 . S
C613 H625 0.929 . S
C614 C610 1.531 . S
C614 H626 0.960 . S
C614 H627 0.962 . S
C614 H628 0.960 . S
C615 C612 1.511 . S
C615 H629 0.961 . S
C615 H630 0.961 . S
C615 H631 0.961 . S
C616 C617 1.370 . S
C616 C618 1.363 . S
C616 H632 0.931 . S
C617 C616 1.370 . S
C617 C621 1.408 . S
C618 C616 1.363 . S
C618 C619 1.370 . S
C618 C622 1.524 . S
C619 C611 1.503 . S
C619 C618 1.370 . S
C619 C620 1.403 . S
C620 C619 1.403 . S
C620 C621 1.404 . S
C620 C623 1.539 . S
C621 C617 1.408 . S
C621 C620 1.404 . S
C621 H633 0.930 . S
C622 C618 1.524 . S
C622 H634 0.956 . S
C622 H635 0.961 . S
C622 H636 0.961 . S
C623 C620 1.539 . S
C623 H637 0.958 . S
C623 H638 0.961 . S
C623 H639 0.960 . S
H624 C608 0.931 . S
H625 C613 0.929 . S
H626 C614 0.960 . S
H627 C614 0.962 . S
H628 C614 0.960 . S
H629 C615 0.961 . S
H630 C615 0.961 . S
H631 C615 0.961 . S
H632 C616 0.931 . S
H633 C621 0.930 . S
H634 C622 0.956 . S
H635 C622 0.961 . S
H636 C622 0.961 . S
H637 C623 0.958 . S
H638 C623 0.961 . S
H639 C623 0.960 . S
C640 C641 1.391 . S
C640 C642 1.394 . S
C640 H656 0.931 . S
C641 C640 1.391 . S
C641 C645 1.376 . S
C642 C640 1.394 . S
C642 C643 1.369 . S
C642 C646 1.531 . S
C643 C642 1.369 . S
C643 C644 1.410 . S
C643 C651 1.503 . S
C644 C643 1.410 . S
C644 C645 1.392 . S
C644 C647 1.511 . S
C645 C641 1.376 . S
C645 C644 1.392 . S
C645 H657 0.929 . S
C646 C642 1.531 . S
C646 H658 0.960 . S
C646 H659 0.962 . S
C646 H660 0.960 . S
C647 C644 1.511 . S
C647 H661 0.961 . S
C647 H662 0.961 . S
C647 H663 0.961 . S
C648 C649 1.370 . S
C648 C650 1.363 . S
C648 H664 0.931 . S
C649 C648 1.370 . S
C649 C653 1.408 . S
C650 C648 1.363 . S
C650 C651 1.370 . S
C650 C654 1.524 . S
C651 C643 1.503 . S
C651 C650 1.370 . S
C651 C652 1.403 . S
C652 C651 1.403 . S
C652 C653 1.404 . S
C652 C655 1.539 . S
C653 C649 1.408 . S
C653 C652 1.404 . S
C653 H665 0.930 . S
C654 C650 1.524 . S
C654 H666 0.956 . S
C654 H667 0.961 . S
C654 H668 0.961 . S
C655 C652 1.539 . S
C655 H669 0.958 . S
C655 H670 0.961 . S
C655 H671 0.960 . S
H656 C640 0.931 . S
H657 C645 0.929 . S
H658 C646 0.960 . S
H659 C646 0.962 . S
H660 C646 0.960 . S
H661 C647 0.961 . S
H662 C647 0.961 . S
H663 C647 0.961 . S
H664 C648 0.931 . S
H665 C653 0.930 . S
H666 C654 0.956 . S
H667 C654 0.961 . S
H668 C654 0.961 . S
H669 C655 0.958 . S
H670 C655 0.961 . S
H671 C655 0.960 . S
C672 C673 1.391 . S
C672 C674 1.394 . S
C672 H688 0.931 . S
C673 C672 1.391 . S
C673 C677 1.376 . S
C674 C672 1.394 . S
C674 C675 1.369 . S
C674 C678 1.531 . S
C675 C674 1.369 . S
C675 C676 1.410 . S
C675 C683 1.503 . S
C676 C675 1.410 . S
C676 C677 1.392 . S
C676 C679 1.511 . S
C677 C673 1.376 . S
C677 C676 1.392 . S
C677 H689 0.929 . S
C678 C674 1.531 . S
C678 H690 0.960 . S
C678 H691 0.962 . S
C678 H692 0.960 . S
C679 C676 1.511 . S
C679 H693 0.961 . S
C679 H694 0.961 . S
C679 H695 0.961 . S
C680 C681 1.370 . S
C680 C682 1.363 . S
C680 H696 0.931 . S
C681 C680 1.370 . S
C681 C685 1.408 . S
C682 C680 1.363 . S
C682 C683 1.370 . S
C682 C686 1.524 . S
C683 C675 1.503 . S
C683 C682 1.370 . S
C683 C684 1.403 . S
C684 C683 1.403 . S
C684 C685 1.404 . S
C684 C687 1.539 . S
C685 C681 1.408 . S
C685 C684 1.404 . S
C685 H697 0.930 . S
C686 C682 1.524 . S
C686 H698 0.956 . S
C686 H699 0.961 . S
C686 H700 0.961 . S
C687 C684 1.539 . S
C687 H701 0.958 . S
C687 H702 0.961 . S
C687 H703 0.960 . S
H688 C672 0.931 . S
H689 C677 0.929 . S
H690 C678 0.960 . S
H691 C678 0.962 . S
H692 C678 0.960 . S
H693 C679 0.961 . S
H694 C679 0.961 . S
H695 C679 0.961 . S
H696 C680 0.931 . S
H697 C685 0.930 . S
H698 C686 0.956 . S
H699 C686 0.961 . S
H700 C686 0.961 . S
H701 C687 0.958 . S
H702 C687 0.961 . S
H703 C687 0.960 . S
C704 C705 1.391 . S
C704 C706 1.394 . S
C704 H720 0.931 . S
C705 C704 1.391 . S
C705 C709 1.376 . S
C706 C704 1.394 . S
C706 C707 1.369 . S
C706 C710 1.531 . S
C707 C706 1.369 . S
C707 C708 1.410 . S
C707 C715 1.503 . S
C708 C707 1.410 . S
C708 C709 1.392 . S
C708 C711 1.511 . S
C709 C705 1.376 . S
C709 C708 1.392 . S
C709 H721 0.929 . S
C710 C706 1.531 . S
C710 H722 0.960 . S
C710 H723 0.962 . S
C710 H724 0.960 . S
C711 C708 1.511 . S
C711 H725 0.961 . S
C711 H726 0.961 . S
C711 H727 0.961 . S
C712 C713 1.370 . S
C712 C714 1.363 . S
C712 H728 0.931 . S
C713 C712 1.370 . S
C713 C717 1.408 . S
C714 C712 1.363 . S
C714 C715 1.370 . S
C714 C718 1.524 . S
C715 C707 1.503 . S
C715 C714 1.370 . S
C715 C716 1.403 . S
C716 C715 1.403 . S
C716 C717 1.404 . S
C716 C719 1.539 . S
C717 C713 1.408 . S
C717 C716 1.404 . S
C717 H729 0.930 . S
C718 C714 1.524 . S
C718 H730 0.956 . S
C718 H731 0.961 . S
C718 H732 0.961 . S
C719 C716 1.539 . S
C719 H733 0.958 . S
C719 H734 0.961 . S
C719 H735 0.960 . S
H720 C704 0.931 . S
H721 C709 0.929 . S
H722 C710 0.960 . S
H723 C710 0.962 . S
H724 C710 0.960 . S
H725 C711 0.961 . S
H726 C711 0.961 . S
H727 C711 0.961 . S
H728 C712 0.931 . S
H729 C717 0.930 . S
H730 C718 0.956 . S
H731 C718 0.961 . S
H732 C718 0.961 . S
H733 C719 0.958 . S
H734 C719 0.961 . S
H735 C719 0.960 . S
C736 C737 1.391 . S
C736 C738 1.394 . S
C736 H752 0.931 . S
C737 C736 1.391 . S
C737 C741 1.376 . S
C738 C736 1.394 . S
C738 C739 1.369 . S
C738 C742 1.531 . S
C739 C738 1.369 . S
C739 C740 1.410 . S
C739 C747 1.503 1_556 S
C740 C739 1.410 . S
C740 C741 1.392 . S
C740 C743 1.511 . S
C741 C737 1.376 . S
C741 C740 1.392 . S
C741 H753 0.929 . S
C742 C738 1.531 . S
C742 H754 0.960 1_556 S
C742 H755 0.962 . S
C742 H756 0.960 . S
C743 C740 1.511 . S
C743 H757 0.961 . S
C743 H758 0.961 1_556 S
C743 H759 0.961 . S
C744 C745 1.370 . S
C744 C746 1.363 . S
C744 H760 0.931 . S
C745 C744 1.370 . S
C745 C749 1.408 . S
C746 C744 1.363 . S
C746 C747 1.370 . S
C746 C750 1.524 . S
C747 C739 1.503 1_554 S
C747 C746 1.370 . S
C747 C748 1.403 . S
C748 C747 1.403 . S
C748 C749 1.404 . S
C748 C751 1.539 . S
C749 C745 1.408 . S
C749 C748 1.404 . S
C749 H761 0.930 . S
C750 C746 1.524 . S
C750 H762 0.956 . S
C750 H763 0.961 1_554 S
C750 H764 0.961 . S
C751 C748 1.539 . S
C751 H765 0.958 . S
C751 H766 0.961 . S
C751 H767 0.970 . S
H752 C736 0.931 . S
H753 C741 0.929 . S
H754 C742 0.960 1_554 S
H755 C742 0.962 . S
H756 C742 0.960 . S
H757 C743 0.961 . S
H758 C743 0.961 1_554 S
H759 C743 0.961 . S
H760 C744 0.931 . S
H761 C749 0.930 . S
H762 C750 0.956 . S
H763 C750 0.961 1_556 S
H764 C750 0.961 . S
H765 C751 0.958 . S
H766 C751 0.961 . S
H767 C751 0.970 . S
C768 C769 1.391 . S
C768 C770 1.394 . S
C768 H784 0.931 . S
C769 C768 1.391 . S
C769 C773 1.376 . S
C770 C768 1.394 . S
C770 C771 1.369 . S
C770 C774 1.531 . S
C771 C770 1.369 . S
C771 C772 1.410 . S
C771 C779 1.503 . S
C772 C771 1.410 . S
C772 C773 1.392 . S
C772 C775 1.511 . S
C773 C769 1.376 . S
C773 C772 1.392 . S
C773 H785 0.929 . S
C774 C770 1.531 . S
C774 H786 0.960 . S
C774 H787 0.962 . S
C774 H788 0.960 . S
C775 C772 1.511 . S
C775 H789 0.961 . S
C775 H790 0.961 . S
C775 H791 0.961 . S
C776 C777 1.370 . S
C776 C778 1.363 . S
C776 H792 0.931 . S
C777 C776 1.370 . S
C777 C781 1.408 . S
C778 C776 1.363 . S
C778 C779 1.370 . S
C778 C782 1.524 . S
C779 C771 1.503 . S
C779 C778 1.370 . S
C779 C780 1.403 . S
C780 C779 1.403 . S
C780 C781 1.404 . S
C780 C783 1.539 . S
C781 C777 1.408 . S
C781 C780 1.404 . S
C781 H793 0.930 . S
C782 C778 1.524 . S
C782 H794 0.956 . S
C782 H795 0.961 . S
C782 H796 0.961 . S
C783 C780 1.539 . S
C783 H797 0.958 . S
C783 H798 0.961 . S
C783 H799 0.960 . S
H784 C768 0.931 . S
H785 C773 0.929 . S
H786 C774 0.960 . S
H787 C774 0.962 . S
H788 C774 0.960 . S
H789 C775 0.961 . S
H790 C775 0.961 . S
H791 C775 0.961 . S
H792 C776 0.931 . S
H793 C781 0.930 . S
H794 C782 0.956 . S
H795 C782 0.961 . S
H796 C782 0.961 . S
H797 C783 0.958 . S
H798 C783 0.961 . S
H799 C783 0.960 . S
C800 C801 1.391 . S
C800 C802 1.394 . S
C800 H816 0.931 . S
C801 C800 1.391 . S
C801 C805 1.376 . S
C802 C800 1.394 . S
C802 C803 1.369 . S
C802 C806 1.531 . S
C803 C802 1.369 . S
C803 C804 1.410 . S
C803 C811 1.503 1_554 S
C804 C803 1.410 . S
C804 C805 1.392 . S
C804 C807 1.511 . S
C805 C801 1.376 . S
C805 C804 1.392 . S
C805 H817 0.929 . S
C806 C802 1.531 . S
C806 H818 0.960 1_554 S
C806 H819 0.962 . S
C806 H820 0.960 . S
C807 C804 1.511 . S
C807 H821 0.961 . S
C807 H822 0.961 1_554 S
C807 H823 0.961 . S
C808 C809 1.370 . S
C808 C810 1.363 . S
C808 H824 0.931 . S
C809 C808 1.370 . S
C809 C813 1.408 . S
C810 C808 1.363 . S
C810 C811 1.370 . S
C810 C814 1.524 . S
C811 C803 1.503 1_556 S
C811 C810 1.370 . S
C811 C812 1.403 . S
C812 C811 1.403 . S
C812 C813 1.404 . S
C812 C815 1.539 . S
C813 C809 1.408 . S
C813 C812 1.404 . S
C813 H825 0.930 . S
C814 C810 1.524 . S
C814 H826 0.956 . S
C814 H827 0.961 1_556 S
C814 H828 0.961 . S
C815 C812 1.539 . S
C815 H829 0.958 . S
C815 H830 0.961 . S
C815 H831 0.970 . S
H816 C800 0.931 . S
H817 C805 0.929 . S
H818 C806 0.960 1_556 S
H819 C806 0.962 . S
H820 C806 0.960 . S
H821 C807 0.961 . S
H822 C807 0.961 1_556 S
H823 C807 0.961 . S
H824 C808 0.931 . S
H825 C813 0.930 . S
H826 C814 0.956 . S
H827 C814 0.961 1_554 S
H828 C814 0.961 . S
H829 C815 0.958 . S
H830 C815 0.961 . S
H831 C815 0.970 . S
C832 C833 1.391 . S
C832 C834 1.394 . S
C832 H848 0.931 . S
C833 C832 1.391 . S
C833 C837 1.376 . S
C834 C832 1.394 . S
C834 C835 1.369 . S
C834 C838 1.531 . S
C835 C834 1.369 . S
C835 C836 1.410 . S
C835 C843 1.503 . S
C836 C835 1.410 . S
C836 C837 1.392 . S
C836 C839 1.511 . S
C837 C833 1.376 . S
C837 C836 1.392 . S
C837 H849 0.929 . S
C838 C834 1.531 . S
C838 H850 0.960 . S
C838 H851 0.962 . S
C838 H852 0.960 . S
C839 C836 1.511 . S
C839 H853 0.961 . S
C839 H854 0.961 . S
C839 H855 0.961 . S
C840 C841 1.370 . S
C840 C842 1.363 . S
C840 H856 0.931 . S
C841 C840 1.370 . S
C841 C845 1.408 . S
C842 C840 1.363 . S
C842 C843 1.370 . S
C842 C846 1.524 . S
C843 C835 1.503 . S
C843 C842 1.370 . S
C843 C844 1.403 . S
C844 C843 1.403 . S
C844 C845 1.404 . S
C844 C847 1.539 . S
C845 C841 1.408 . S
C845 C844 1.404 . S
C845 H857 0.930 . S
C846 C842 1.524 . S
C846 H858 0.956 . S
C846 H859 0.961 . S
C846 H860 0.961 . S
C847 C844 1.539 . S
C847 H861 0.958 . S
C847 H862 0.961 . S
C847 H863 0.960 . S
H848 C832 0.931 . S
H849 C837 0.929 . S
H850 C838 0.960 . S
H851 C838 0.962 . S
H852 C838 0.960 . S
H853 C839 0.961 . S
H854 C839 0.961 . S
H855 C839 0.961 . S
H856 C840 0.931 . S
H857 C845 0.930 . S
H858 C846 0.956 . S
H859 C846 0.961 . S
H860 C846 0.961 . S
H861 C847 0.958 . S
H862 C847 0.961 . S
H863 C847 0.960 . S
C864 C865 1.391 . S
C864 C866 1.394 . S
C864 H880 0.931 . S
C865 C864 1.391 . S
C865 C869 1.376 . S
C866 C864 1.394 . S
C866 C867 1.369 . S
C866 C870 1.531 . S
C867 C866 1.369 . S
C867 C868 1.410 . S
C867 C875 1.503 . S
C868 C867 1.410 . S
C868 C869 1.392 . S
C868 C871 1.511 . S
C869 C865 1.376 . S
C869 C868 1.392 . S
C869 H881 0.929 . S
C870 C866 1.531 . S
C870 H882 0.960 . S
C870 H883 0.962 . S
C870 H884 0.960 . S
C871 C868 1.511 . S
C871 H885 0.961 . S
C871 H886 0.961 . S
C871 H887 0.961 . S
C872 C873 1.370 . S
C872 C874 1.363 . S
C872 H888 0.931 . S
C873 C872 1.370 . S
C873 C877 1.408 . S
C874 C872 1.363 . S
C874 C875 1.370 . S
C874 C878 1.524 . S
C875 C867 1.503 . S
C875 C874 1.370 . S
C875 C876 1.403 . S
C876 C875 1.403 . S
C876 C877 1.404 . S
C876 C879 1.539 . S
C877 C873 1.408 . S
C877 C876 1.404 . S
C877 H889 0.930 . S
C878 C874 1.524 . S
C878 H890 0.956 . S
C878 H891 0.961 . S
C878 H892 0.961 . S
C879 C876 1.539 . S
C879 H893 0.958 . S
C879 H894 0.961 . S
C879 H895 0.960 . S
H880 C864 0.931 . S
H881 C869 0.929 . S
H882 C870 0.960 . S
H883 C870 0.962 . S
H884 C870 0.960 . S
H885 C871 0.961 . S
H886 C871 0.961 . S
H887 C871 0.961 . S
H888 C872 0.931 . S
H889 C877 0.930 . S
H890 C878 0.956 . S
H891 C878 0.961 . S
H892 C878 0.961 . S
H893 C879 0.958 . S
H894 C879 0.961 . S
H895 C879 0.960 . S
C896 C897 1.391 . S
C896 C898 1.394 . S
C896 H912 0.931 . S
C897 C896 1.391 . S
C897 C901 1.376 . S
C898 C896 1.394 . S
C898 C899 1.369 . S
C898 C902 1.531 . S
C899 C898 1.369 . S
C899 C900 1.410 . S
C899 C907 1.503 1_556 S
C900 C899 1.410 . S
C900 C901 1.392 . S
C900 C903 1.511 . S
C901 C897 1.376 . S
C901 C900 1.392 . S
C901 H913 0.929 . S
C902 C898 1.531 . S
C902 H914 0.960 1_556 S
C902 H915 0.962 . S
C902 H916 0.960 . S
C903 C900 1.511 . S
C903 H917 0.961 . S
C903 H918 0.961 1_556 S
C903 H919 0.961 . S
C904 C905 1.370 . S
C904 C906 1.363 . S
C904 H920 0.931 . S
C905 C904 1.370 . S
C905 C909 1.408 . S
C906 C904 1.363 . S
C906 C907 1.370 . S
C906 C910 1.524 . S
C907 C899 1.503 1_554 S
C907 C906 1.370 . S
C907 C908 1.403 . S
C908 C907 1.403 . S
C908 C909 1.404 . S
C908 C911 1.539 . S
C909 C905 1.408 . S
C909 C908 1.404 . S
C909 H921 0.930 . S
C910 C906 1.524 . S
C910 H922 0.956 . S
C910 H923 0.961 1_554 S
C910 H924 0.961 . S
C911 C908 1.539 . S
C911 H925 0.958 . S
C911 H926 0.961 . S
C911 H927 0.970 . S
H912 C896 0.931 . S
H913 C901 0.929 . S
H914 C902 0.960 1_554 S
H915 C902 0.962 . S
H916 C902 0.960 . S
H917 C903 0.961 . S
H918 C903 0.961 1_554 S
H919 C903 0.961 . S
H920 C904 0.931 . S
H921 C909 0.930 . S
H922 C910 0.956 . S
H923 C910 0.961 1_556 S
H924 C910 0.961 . S
H925 C911 0.958 . S
H926 C911 0.961 . S
H927 C911 0.970 . S
C928 C929 1.391 . S
C928 C930 1.394 . S
C928 H944 0.931 . S
C929 C928 1.391 . S
C929 C933 1.376 . S
C930 C928 1.394 . S
C930 C931 1.369 . S
C930 C934 1.531 . S
C931 C930 1.369 . S
C931 C932 1.410 . S
C931 C939 1.503 . S
C932 C931 1.410 . S
C932 C933 1.392 . S
C932 C935 1.511 . S
C933 C929 1.376 . S
C933 C932 1.392 . S
C933 H945 0.929 . S
C934 C930 1.531 . S
C934 H946 0.960 . S
C934 H947 0.962 . S
C934 H948 0.960 . S
C935 C932 1.511 . S
C935 H949 0.961 . S
C935 H950 0.961 . S
C935 H951 0.961 . S
C936 C937 1.370 . S
C936 C938 1.363 . S
C936 H952 0.931 . S
C937 C936 1.370 . S
C937 C941 1.408 . S
C938 C936 1.363 . S
C938 C939 1.370 . S
C938 C942 1.524 . S
C939 C931 1.503 . S
C939 C938 1.370 . S
C939 C940 1.403 . S
C940 C939 1.403 . S
C940 C941 1.404 . S
C940 C943 1.539 . S
C941 C937 1.408 . S
C941 C940 1.404 . S
C941 H953 0.930 . S
C942 C938 1.524 . S
C942 H954 0.956 . S
C942 H955 0.961 . S
C942 H956 0.961 . S
C943 C940 1.539 . S
C943 H957 0.958 . S
C943 H958 0.961 . S
C943 H959 0.960 . S
H944 C928 0.931 . S
H945 C933 0.929 . S
H946 C934 0.960 . S
H947 C934 0.962 . S
H948 C934 0.960 . S
H949 C935 0.961 . S
H950 C935 0.961 . S
H951 C935 0.961 . S
H952 C936 0.931 . S
H953 C941 0.930 . S
H954 C942 0.956 . S
H955 C942 0.961 . S
H956 C942 0.961 . S
H957 C943 0.958 . S
H958 C943 0.961 . S
H959 C943 0.960 . S
C960 C961 1.391 . S
C960 C962 1.394 . S
C960 H976 0.931 . S
C961 C960 1.391 . S
C961 C965 1.376 . S
C962 C960 1.394 . S
C962 C963 1.369 . S
C962 C966 1.531 . S
C963 C962 1.369 . S
C963 C964 1.410 . S
C963 C971 1.503 1_554 S
C964 C963 1.410 . S
C964 C965 1.392 . S
C964 C967 1.511 . S
C965 C961 1.376 . S
C965 C964 1.392 . S
C965 H977 0.929 . S
C966 C962 1.531 . S
C966 H978 0.960 1_554 S
C966 H979 0.962 . S
C966 H980 0.960 . S
C967 C964 1.511 . S
C967 H981 0.961 . S
C967 H982 0.961 1_554 S
C967 H983 0.961 . S
C968 C969 1.370 . S
C968 C970 1.363 . S
C968 H984 0.931 . S
C969 C968 1.370 . S
C969 C973 1.408 . S
C970 C968 1.363 . S
C970 C971 1.370 . S
C970 C974 1.524 . S
C971 C963 1.503 1_556 S
C971 C970 1.370 . S
C971 C972 1.403 . S
C972 C971 1.403 . S
C972 C973 1.404 . S
C972 C975 1.539 . S
C973 C969 1.408 . S
C973 C972 1.404 . S
C973 H985 0.930 . S
C974 C970 1.524 . S
C974 H986 0.956 . S
C974 H987 0.961 1_556 S
C974 H988 0.961 . S
C975 C972 1.539 . S
C975 H989 0.958 . S
C975 H990 0.961 . S
C975 H991 0.970 . S
H976 C960 0.931 . S
H977 C965 0.929 . S
H978 C966 0.960 1_556 S
H979 C966 0.962 . S
H980 C966 0.960 . S
H981 C967 0.961 . S
H982 C967 0.961 1_556 S
H983 C967 0.961 . S
H984 C968 0.931 . S
H985 C973 0.930 . S
H986 C974 0.956 . S
H987 C974 0.961 1_554 S
H988 C974 0.961 . S
H989 C975 0.958 . S
H990 C975 0.961 . S
H991 C975 0.970 . S
C992 C993 1.391 . S
C992 C994 1.394 . S
C992 H1008 0.931 . S
C993 C992 1.391 . S
C993 C997 1.376 . S
C994 C992 1.394 . S
C994 C995 1.369 . S
C994 C998 1.531 . S
C995 C994 1.369 . S
C995 C996 1.410 . S
C995 C1003 1.503 . S
C996 C995 1.410 . S
C996 C997 1.392 . S
C996 C999 1.511 . S
C997 C993 1.376 . S
C997 C996 1.392 . S
C997 H1009 0.929 . S
C998 C994 1.531 . S
C998 H1010 0.960 . S
C998 H1011 0.962 . S
C998 H1012 0.960 . S
C999 C996 1.511 . S
C999 H1013 0.961 . S
C999 H1014 0.961 . S
C999 H1015 0.961 . S
C1000 C1001 1.370 . S
C1000 C1002 1.363 . S
C1000 H1016 0.931 . S
C1001 C1000 1.370 . S
C1001 C1005 1.408 . S
C1002 C1000 1.363 . S
C1002 C1003 1.370 . S
C1002 C1006 1.524 . S
C1003 C995 1.503 . S
C1003 C1002 1.370 . S
C1003 C1004 1.403 . S
C1004 C1003 1.403 . S
C1004 C1005 1.404 . S
C1004 C1007 1.539 . S
C1005 C1001 1.408 . S
C1005 C1004 1.404 . S
C1005 H1017 0.930 . S
C1006 C1002 1.524 . S
C1006 H1018 0.956 . S
C1006 H1019 0.961 . S
C1006 H1020 0.961 . S
C1007 C1004 1.539 . S
C1007 H1021 0.958 . S
C1007 H1022 0.961 . S
C1007 H1023 0.960 . S
H1008 C992 0.931 . S
H1009 C997 0.929 . S
H1010 C998 0.960 . S
H1011 C998 0.962 . S
H1012 C998 0.960 . S
H1013 C999 0.961 . S
H1014 C999 0.961 . S
H1015 C999 0.961 . S
H1016 C1000 0.931 . S
H1017 C1005 0.930 . S
H1018 C1006 0.956 . S
H1019 C1006 0.961 . S
H1020 C1006 0.961 . S
H1021 C1007 0.958 . S
H1022 C1007 0.961 . S
H1023 C1007 0.960 . S
C1024 C1025 1.391 . S
C1024 C1026 1.394 . S
C1024 H1040 0.931 . S
C1025 C1024 1.391 . S
C1025 C1029 1.376 . S
C1026 C1024 1.394 . S
C1026 C1027 1.369 . S
C1026 C1030 1.531 . S
C1027 C1026 1.369 . S
C1027 C1028 1.410 . S
C1027 C1035 1.503 . S
C1028 C1027 1.410 . S
C1028 C1029 1.392 . S
C1028 C1031 1.511 . S
C1029 C1025 1.376 . S
C1029 C1028 1.392 . S
C1029 H1041 0.929 . S
C1030 C1026 1.531 . S
C1030 H1042 0.960 . S
C1030 H1043 0.962 . S
C1030 H1044 0.960 . S
C1031 C1028 1.511 . S
C1031 H1045 0.961 . S
C1031 H1046 0.961 . S
C1031 H1047 0.961 . S
C1032 C1033 1.370 . S
C1032 C1034 1.363 . S
C1032 H1048 0.931 . S
C1033 C1032 1.370 . S
C1033 C1037 1.408 . S
C1034 C1032 1.363 . S
C1034 C1035 1.370 . S
C1034 C1038 1.524 . S
C1035 C1027 1.503 . S
C1035 C1034 1.370 . S
C1035 C1036 1.403 . S
C1036 C1035 1.403 . S
C1036 C1037 1.404 . S
C1036 C1039 1.539 . S
C1037 C1033 1.408 . S
C1037 C1036 1.404 . S
C1037 H1049 0.930 . S
C1038 C1034 1.524 . S
C1038 H1050 0.956 . S
C1038 H1051 0.961 . S
C1038 H1052 0.961 . S
C1039 C1036 1.539 . S
C1039 H1053 0.958 . S
C1039 H1054 0.961 . S
C1039 H1055 0.960 . S
H1040 C1024 0.931 . S
H1041 C1029 0.929 . S
H1042 C1030 0.960 . S
H1043 C1030 0.962 . S
H1044 C1030 0.960 . S
H1045 C1031 0.961 . S
H1046 C1031 0.961 . S
H1047 C1031 0.961 . S
H1048 C1032 0.931 . S
H1049 C1037 0.930 . S
H1050 C1038 0.956 . S
H1051 C1038 0.961 . S
H1052 C1038 0.961 . S
H1053 C1039 0.958 . S
H1054 C1039 0.961 . S
H1055 C1039 0.960 . S
C1056 C1057 1.391 . S
C1056 C1058 1.394 . S
C1056 H1072 0.931 . S
C1057 C1056 1.391 . S
C1057 C1061 1.376 . S
C1058 C1056 1.394 . S
C1058 C1059 1.369 . S
C1058 C1062 1.531 . S
C1059 C1058 1.369 . S
C1059 C1060 1.410 . S
C1059 C1067 1.503 . S
C1060 C1059 1.410 . S
C1060 C1061 1.392 . S
C1060 C1063 1.511 . S
C1061 C1057 1.376 . S
C1061 C1060 1.392 . S
C1061 H1073 0.929 . S
C1062 C1058 1.531 . S
C1062 H1074 0.960 . S
C1062 H1075 0.962 . S
C1062 H1076 0.960 . S
C1063 C1060 1.511 . S
C1063 H1077 0.961 . S
C1063 H1078 0.961 . S
C1063 H1079 0.961 . S
C1064 C1065 1.370 . S
C1064 C1066 1.363 . S
C1064 H1080 0.931 . S
C1065 C1064 1.370 . S
C1065 C1069 1.408 . S
C1066 C1064 1.363 . S
C1066 C1067 1.370 . S
C1066 C1070 1.524 . S
C1067 C1059 1.503 . S
C1067 C1066 1.370 . S
C1067 C1068 1.403 . S
C1068 C1067 1.403 . S
C1068 C1069 1.404 . S
C1068 C1071 1.539 . S
C1069 C1065 1.408 . S
C1069 C1068 1.404 . S
C1069 H1081 0.930 . S
C1070 C1066 1.524 . S
C1070 H1082 0.956 . S
C1070 H1083 0.961 . S
C1070 H1084 0.961 . S
C1071 C1068 1.539 . S
C1071 H1085 0.958 . S
C1071 H1086 0.961 . S
C1071 H1087 0.960 . S
H1072 C1056 0.931 . S
H1073 C1061 0.929 . S
H1074 C1062 0.960 . S
H1075 C1062 0.962 . S
H1076 C1062 0.960 . S
H1077 C1063 0.961 . S
H1078 C1063 0.961 . S
H1079 C1063 0.961 . S
H1080 C1064 0.931 . S
H1081 C1069 0.930 . S
H1082 C1070 0.956 . S
H1083 C1070 0.961 . S
H1084 C1070 0.961 . S
H1085 C1071 0.958 . S
H1086 C1071 0.961 . S
H1087 C1071 0.960 . S
C1088 C1089 1.391 . S
C1088 C1090 1.394 . S
C1088 H1104 0.931 . S
C1089 C1088 1.391 . S
C1089 C1093 1.376 . S
C1090 C1088 1.394 . S
C1090 C1091 1.369 . S
C1090 C1094 1.531 . S
C1091 C1090 1.369 . S
C1091 C1092 1.410 . S
C1091 C1099 1.503 . S
C1092 C1091 1.410 . S
C1092 C1093 1.392 . S
C1092 C1095 1.511 . S
C1093 C1089 1.376 . S
C1093 C1092 1.392 . S
C1093 H1105 0.929 . S
C1094 C1090 1.531 . S
C1094 H1106 0.960 . S
C1094 H1107 0.962 . S
C1094 H1108 0.960 . S
C1095 C1092 1.511 . S
C1095 H1109 0.961 . S
C1095 H1110 0.961 . S
C1095 H1111 0.961 . S
C1096 C1097 1.370 . S
C1096 C1098 1.363 . S
C1096 H1112 0.931 . S
C1097 C1096 1.370 . S
C1097 C1101 1.408 . S
C1098 C1096 1.363 . S
C1098 C1099 1.370 . S
C1098 C1102 1.524 . S
C1099 C1091 1.503 . S
C1099 C1098 1.370 . S
C1099 C1100 1.403 . S
C1100 C1099 1.403 . S
C1100 C1101 1.404 . S
C1100 C1103 1.539 . S
C1101 C1097 1.408 . S
C1101 C1100 1.404 . S
C1101 H1113 0.930 . S
C1102 C1098 1.524 . S
C1102 H1114 0.956 . S
C1102 H1115 0.961 . S
C1102 H1116 0.961 . S
C1103 C1100 1.539 . S
C1103 H1117 0.958 . S
C1103 H1118 0.961 . S
C1103 H1119 0.960 . S
H1104 C1088 0.931 . S
H1105 C1093 0.929 . S
H1106 C1094 0.960 . S
H1107 C1094 0.962 . S
H1108 C1094 0.960 . S
H1109 C1095 0.961 . S
H1110 C1095 0.961 . S
H1111 C1095 0.961 . S
H1112 C1096 0.931 . S
H1113 C1101 0.930 . S
H1114 C1102 0.956 . S
H1115 C1102 0.961 . S
H1116 C1102 0.961 . S
H1117 C1103 0.958 . S
H1118 C1103 0.961 . S
H1119 C1103 0.960 . S
C1120 C1121 1.391 . S
C1120 C1122 1.394 . S
C1120 H1136 0.931 . S
C1121 C1120 1.391 . S
C1121 C1125 1.376 . S
C1122 C1120 1.394 . S
C1122 C1123 1.369 . S
C1122 C1126 1.531 . S
C1123 C1122 1.369 . S
C1123 C1124 1.410 . S
C1123 C1131 1.503 . S
C1124 C1123 1.410 . S
C1124 C1125 1.392 . S
C1124 C1127 1.511 . S
C1125 C1121 1.376 . S
C1125 C1124 1.392 . S
C1125 H1137 0.929 . S
C1126 C1122 1.531 . S
C1126 H1138 0.960 . S
C1126 H1139 0.962 . S
C1126 H1140 0.960 . S
C1127 C1124 1.511 . S
C1127 H1141 0.961 . S
C1127 H1142 0.961 . S
C1127 H1143 0.961 . S
C1128 C1129 1.370 . S
C1128 C1130 1.363 . S
C1128 H1144 0.931 . S
C1129 C1128 1.370 . S
C1129 C1133 1.408 . S
C1130 C1128 1.363 . S
C1130 C1131 1.370 . S
C1130 C1134 1.524 . S
C1131 C1123 1.503 . S
C1131 C1130 1.370 . S
C1131 C1132 1.403 . S
C1132 C1131 1.403 . S
C1132 C1133 1.404 . S
C1132 C1135 1.539 . S
C1133 C1129 1.408 . S
C1133 C1132 1.404 . S
C1133 H1145 0.930 . S
C1134 C1130 1.524 . S
C1134 H1146 0.956 . S
C1134 H1147 0.961 . S
C1134 H1148 0.961 . S
C1135 C1132 1.539 . S
C1135 H1149 0.958 . S
C1135 H1150 0.961 . S
C1135 H1151 0.960 . S
H1136 C1120 0.931 . S
H1137 C1125 0.929 . S
H1138 C1126 0.960 . S
H1139 C1126 0.962 . S
H1140 C1126 0.960 . S
H1141 C1127 0.961 . S
H1142 C1127 0.961 . S
H1143 C1127 0.961 . S
H1144 C1128 0.931 . S
H1145 C1133 0.930 . S
H1146 C1134 0.956 . S
H1147 C1134 0.961 . S
H1148 C1134 0.961 . S
H1149 C1135 0.958 . S
H1150 C1135 0.961 . S
H1151 C1135 0.960 . S
C1152 C1153 1.391 . S
C1152 C1154 1.394 . S
C1152 H1168 0.931 . S
C1153 C1152 1.391 . S
C1153 C1157 1.376 . S
C1154 C1152 1.394 . S
C1154 C1155 1.369 . S
C1154 C1158 1.531 . S
C1155 C1154 1.369 . S
C1155 C1156 1.410 . S
C1155 C1163 1.503 . S
C1156 C1155 1.410 . S
C1156 C1157 1.392 . S
C1156 C1159 1.511 . S
C1157 C1153 1.376 . S
C1157 C1156 1.392 . S
C1157 H1169 0.929 . S
C1158 C1154 1.531 . S
C1158 H1170 0.960 . S
C1158 H1171 0.962 . S
C1158 H1172 0.960 . S
C1159 C1156 1.511 . S
C1159 H1173 0.961 . S
C1159 H1174 0.961 . S
C1159 H1175 0.961 . S
C1160 C1161 1.370 . S
C1160 C1162 1.363 . S
C1160 H1176 0.931 . S
C1161 C1160 1.370 . S
C1161 C1165 1.408 . S
C1162 C1160 1.363 . S
C1162 C1163 1.370 . S
C1162 C1166 1.524 . S
C1163 C1155 1.503 . S
C1163 C1162 1.370 . S
C1163 C1164 1.403 . S
C1164 C1163 1.403 . S
C1164 C1165 1.404 . S
C1164 C1167 1.539 . S
C1165 C1161 1.408 . S
C1165 C1164 1.404 . S
C1165 H1177 0.930 . S
C1166 C1162 1.524 . S
C1166 H1178 0.956 . S
C1166 H1179 0.961 . S
C1166 H1180 0.961 . S
C1167 C1164 1.539 . S
C1167 H1181 0.958 . S
C1167 H1182 0.961 . S
C1167 H1183 0.960 . S
H1168 C1152 0.931 . S
H1169 C1157 0.929 . S
H1170 C1158 0.960 . S
H1171 C1158 0.962 . S
H1172 C1158 0.960 . S
H1173 C1159 0.961 . S
H1174 C1159 0.961 . S
H1175 C1159 0.961 . S
H1176 C1160 0.931 . S
H1177 C1165 0.930 . S
H1178 C1166 0.956 . S
H1179 C1166 0.961 . S
H1180 C1166 0.961 . S
H1181 C1167 0.958 . S
H1182 C1167 0.961 . S
H1183 C1167 0.960 . S
C1184 C1185 1.391 . S
C1184 C1186 1.394 . S
C1184 H1200 0.931 . S
C1185 C1184 1.391 . S
C1185 C1189 1.376 . S
C1186 C1184 1.394 . S
C1186 C1187 1.369 . S
C1186 C1190 1.531 . S
C1187 C1186 1.369 . S
C1187 C1188 1.410 . S
C1187 C1195 1.503 . S
C1188 C1187 1.410 . S
C1188 C1189 1.392 . S
C1188 C1191 1.511 . S
C1189 C1185 1.376 . S
C1189 C1188 1.392 . S
C1189 H1201 0.929 . S
C1190 C1186 1.531 . S
C1190 H1202 0.960 . S
C1190 H1203 0.962 . S
C1190 H1204 0.960 . S
C1191 C1188 1.511 . S
C1191 H1205 0.961 . S
C1191 H1206 0.961 . S
C1191 H1207 0.961 . S
C1192 C1193 1.370 . S
C1192 C1194 1.363 . S
C1192 H1208 0.931 . S
C1193 C1192 1.370 . S
C1193 C1197 1.408 . S
C1194 C1192 1.363 . S
C1194 C1195 1.370 . S
C1194 C1198 1.524 . S
C1195 C1187 1.503 . S
C1195 C1194 1.370 . S
C1195 C1196 1.403 . S
C1196 C1195 1.403 . S
C1196 C1197 1.404 . S
C1196 C1199 1.539 . S
C1197 C1193 1.408 . S
C1197 C1196 1.404 . S
C1197 H1209 0.930 . S
C1198 C1194 1.524 . S
C1198 H1210 0.956 . S
C1198 H1211 0.961 . S
C1198 H1212 0.961 . S
C1199 C1196 1.539 . S
C1199 H1213 0.958 . S
C1199 H1214 0.961 . S
C1199 H1215 0.960 . S
H1200 C1184 0.931 . S
H1201 C1189 0.929 . S
H1202 C1190 0.960 . S
H1203 C1190 0.962 . S
H1204 C1190 0.960 . S
H1205 C1191 0.961 . S
H1206 C1191 0.961 . S
H1207 C1191 0.961 . S
H1208 C1192 0.931 . S
H1209 C1197 0.930 . S
H1210 C1198 0.956 . S
H1211 C1198 0.961 . S
H1212 C1198 0.961 . S
H1213 C1199 0.958 . S
H1214 C1199 0.961 . S
H1215 C1199 0.960 . S
C1216 C1217 1.391 . S
C1216 C1218 1.394 . S
C1216 H1232 0.931 . S
C1217 C1216 1.391 . S
C1217 C1221 1.376 . S
C1218 C1216 1.394 . S
C1218 C1219 1.369 . S
C1218 C1222 1.531 . S
C1219 C1218 1.369 . S
C1219 C1220 1.410 . S
C1219 C1227 1.503 . S
C1220 C1219 1.410 . S
C1220 C1221 1.392 . S
C1220 C1223 1.511 . S
C1221 C1217 1.376 . S
C1221 C1220 1.392 . S
C1221 H1233 0.929 . S
C1222 C1218 1.531 . S
C1222 H1234 0.960 . S
C1222 H1235 0.962 . S
C1222 H1236 0.960 . S
C1223 C1220 1.511 . S
C1223 H1237 0.961 . S
C1223 H1238 0.961 . S
C1223 H1239 0.961 . S
C1224 C1225 1.370 . S
C1224 C1226 1.363 . S
C1224 H1240 0.931 . S
C1225 C1224 1.370 . S
C1225 C1229 1.408 . S
C1226 C1224 1.363 . S
C1226 C1227 1.370 . S
C1226 C1230 1.524 . S
C1227 C1219 1.503 . S
C1227 C1226 1.370 . S
C1227 C1228 1.403 . S
C1228 C1227 1.403 . S
C1228 C1229 1.404 . S
C1228 C1231 1.539 . S
C1229 C1225 1.408 . S
C1229 C1228 1.404 . S
C1229 H1241 0.930 . S
C1230 C1226 1.524 . S
C1230 H1242 0.956 . S
C1230 H1243 0.961 . S
C1230 H1244 0.961 . S
C1231 C1228 1.539 . S
C1231 H1245 0.958 . S
C1231 H1246 0.961 . S
C1231 H1247 0.960 . S
H1232 C1216 0.931 . S
H1233 C1221 0.929 . S
H1234 C1222 0.960 . S
H1235 C1222 0.962 . S
H1236 C1222 0.960 . S
H1237 C1223 0.961 . S
H1238 C1223 0.961 . S
H1239 C1223 0.961 . S
H1240 C1224 0.931 . S
H1241 C1229 0.930 . S
H1242 C1230 0.956 . S
H1243 C1230 0.961 . S
H1244 C1230 0.961 . S
H1245 C1231 0.958 . S
H1246 C1231 0.961 . S
H1247 C1231 0.960 . S
C225 C5 1.362 . S
C233 C33 1.359 . S
C257 C47 1.353 . S
C265 C19 1.363 . S
C289 C61 1.351 . S
C297 C89 1.364 . S
C321 C103 1.342 . S
C329 C75 1.366 . S
C353 C117 1.346 . S
C361 C145 1.364 . S
C385 C159 1.371 . S
C393 C131 1.353 . S
C417 C173 1.349 . S
C425 C201 1.362 . S
C449 C215 1.355 . S
C457 C187 1.360 . S
C481 C56 1.357 . S
C489 C0 1.339 . S
C513 C14 1.363 . S
C521 C70 1.326 . S
C545 C28 1.339 . S
C553 C84 1.324 . S
C577 C98 1.305 . S
C585 C42 1.337 . S
C609 C112 1.364 . S
C617 C168 1.330 . S
C641 C126 1.343 . S
C649 C182 1.348 . S
C673 C140 1.346 . S
C681 C196 1.348 . S
C705 C154 1.323 . S
C713 C210 1.350 . S
C737 C149 1.231 . S
C745 C9 1.219 . S
C769 C163 1.238 . S
C777 C23 1.226 . S
C801 C37 1.176 . S
C809 C121 1.199 . S
C833 C51 1.222 . S
C841 C135 1.220 . S
C865 C65 1.244 . S
C873 C205 1.226 . S
C897 C79 1.197 . S
C905 C219 1.205 . S
C929 C93 1.175 . S
C937 C177 1.199 . S
C961 C191 1.187 . S
C969 C107 1.201 . S
C993 C11 1.369 . S
C1001 C221 1.371 . S
C1025 C179 1.361 . S
C1033 C25 1.368 . S
C1057 C39 1.361 . S
C1065 C193 1.367 . S
C1089 C207 1.372 . S
C1097 C53 1.372 . S
C1121 C137 1.372 . S
C1129 C67 1.372 . S
C1153 C81 1.368 . S
C1161 C151 1.371 . S
C1185 C165 1.361 . S
C1193 C95 1.367 . S
C1217 C123 1.371 . S
C1225 C109 1.371 . S
