# Generated by pormake.
# Topology smc, (6)-cn, num edge types: 1
# Building blocks:
#     Node 0, Type 0, BuildingBlock: BETGAK_clean_sbu_0, # of connection points: 6
#     Node 1, Type 0, BuildingBlock: BETGAK_clean_sbu_0, # of connection points: 6
#     Node 2, Type 0, BuildingBlock: BETGAK_clean_sbu_0, # of connection points: 6
#     Node 3, Type 0, BuildingBlock: BETGAK_clean_sbu_0, # of connection points: 6
#     Node 4, Type 0, BuildingBlock: BETGAK_clean_sbu_0, # of connection points: 6
#     Node 5, Type 0, BuildingBlock: BETGAK_clean_sbu_0, # of connection points: 6
#     Node 6, Type 0, BuildingBlock: BETGAK_clean_sbu_0, # of connection points: 6
#     Node 7, Type 0, BuildingBlock: BETGAK_clean_sbu_0, # of connection points: 6
#     Node 8, Type 0, BuildingBlock: BETGAK_clean_sbu_0, # of connection points: 6
#     Edge 9, Type (0, 0), None
#     Edge 10, Type (0, 0), None
#     Edge 11, Type (0, 0), None
#     Edge 12, Type (0, 0), None
#     Edge 13, Type (0, 0), None
#     Edge 14, Type (0, 0), None
#     Edge 15, Type (0, 0), None
#     Edge 16, Type (0, 0), None
#     Edge 17, Type (0, 0), None
#     Edge 18, Type (0, 0), None
#     Edge 19, Type (0, 0), None
#     Edge 20, Type (0, 0), None
#     Edge 21, Type (0, 0), None
#     Edge 22, Type (0, 0), None
#     Edge 23, Type (0, 0), None
#     Edge 24, Type (0, 0), None
#     Edge 25, Type (0, 0), None
#     Edge 26, Type (0, 0), None
#     Edge 27, Type (0, 0), None
#     Edge 28, Type (0, 0), None
#     Edge 29, Type (0, 0), None
#     Edge 30, Type (0, 0), None
#     Edge 31, Type (0, 0), None
#     Edge 32, Type (0, 0), None
#     Edge 33, Type (0, 0), None
#     Edge 34, Type (0, 0), None
#     Edge 35, Type (0, 0), None
# Relax obj value: 0.219
# Max RMSD: 0.400
# Mean RMSD: 0.400
data_MOF--net-smc--node1-BETGAK_clean_sbu_0--edge1-none
_symmetry_space_group_name_H-M    P1
_symmetry_Int_Tables_number       1
_symmetry_cell_setting            triclinic
loop_
_symmetry_equiv_pos_as_xyz
'x, y, z'
_cell_length_a     21.544563
_cell_length_b     21.540842
_cell_length_c     17.881909
_cell_angle_alpha  90.001532
_cell_angle_beta   89.988576
_cell_angle_gamma 119.99317
loop_
_atom_site_label
_atom_site_type_symbol
_atom_site_fract_x
_atom_site_fract_y
_atom_site_fract_z
_atom_type_partial_charge
La0 La 0.16474 0.56315 0.96101 0.0
La1 La 1.08872 0.44506 0.00415 0.0
C2 C 0.21631 0.68557 0.89975 0.0
C3 C 0.25215 0.76222 0.92017 0.0
C4 C 0.26879 0.8135 0.86386 0.0
C5 C 0.30898 0.88693 0.88009 0.0
C6 C 0.33328 0.91021 0.953 0.0
C7 C 0.31177 0.85864 0.0104 0.0
C8 C 0.27133 0.78521 -0.00578 0.0
C9 C 1.08793 0.42794 0.85635 0.0
C10 C 0.24481 0.48722 0.93947 0.0
C11 C 0.97821 0.32965 0.04366 0.0
C12 C 0.89951 0.30065 0.04307 0.0
C13 C 0.85661 0.24202 0.08892 0.0
C14 C 0.78222 0.2114 0.08902 0.0
C15 C 0.74801 0.23833 0.04301 0.0
C16 C 0.79101 0.29947 -0.00069 0.0
C17 C 0.86637 0.33049 -0.00061 0.0
C18 C 0.1978 0.49068 0.09672 0.0
C19 C 1.05314 0.56549 0.04373 0.0
O20 O 0.15013 0.64687 0.92164 0.0
O21 O 0.25216 0.6518 0.90912 0.0
O22 O 1.08182 0.48032 0.8874 0.0
O23 O 1.0864 0.47893 0.89044 0.0
O24 O 0.25544 0.55144 0.94813 0.0
O25 O 0.17931 0.43146 0.95342 0.0
O26 O 1.01492 0.38406 0.088 0.0
O27 O 1.01039 0.33792 -0.02063 0.0
O28 O 0.16475 0.42925 0.06412 0.0
O29 O 0.16938 0.52855 0.07643 0.0
O30 O 1.02547 0.50125 0.01479 0.0
O31 O 1.12214 0.5994 0.04793 0.0
H32 H 0.25416 0.79643 0.80656 0.0
H33 H 0.32712 0.92496 0.83459 0.0
H34 H 0.33163 0.87499 0.06684 0.0
H35 H 0.25836 0.74651 0.03874 0.0
H36 H 0.88044 0.21859 0.1238 0.0
H37 H 0.75105 0.16436 0.12337 0.0
H38 H 0.76644 0.32101 0.96257 0.0
H39 H 0.8985 0.3765 0.96414 0.0
La40 La 0.65995 0.67095 0.95155 0.0
La41 La 0.78885 0.7204 -0.00524 0.0
C42 C 0.53968 0.6018 0.886 0.0
C43 C 0.46117 0.55503 0.89787 0.0
C44 C 0.4149 0.54712 0.83888 0.0
C45 C 0.34061 0.51248 0.84981 0.0
C46 C 0.31004 0.48417 0.91994 0.0
C47 C 0.35615 0.48763 -0.02212 0.0
C48 C 0.4311 0.52262 0.96696 0.0
C49 C 0.76699 0.66286 0.83607 0.0
C50 C 0.7364 0.82929 0.94622 0.0
C51 C 0.91004 0.73371 0.02538 0.0
C52 C 0.94459 0.68874 0.02692 0.0
C53 C 1.01931 0.72248 0.0324 0.0
C54 C 1.05364 0.68235 0.04179 0.0
C55 C 1.01427 0.60678 0.04355 0.0
C56 C 0.9392 0.57266 0.03665 0.0
C57 C 0.90463 0.61326 0.02936 0.0
C58 C 0.72952 0.76241 0.09631 0.0
C59 C 0.6727 0.56063 0.02635 0.0
O60 O 0.58143 0.57531 0.90061 0.0
O61 O 0.56859 0.66903 0.90682 0.0
O62 O 0.75242 0.70243 0.87874 0.0
O63 O 0.75102 0.70088 0.87935 0.0
O64 O 0.67223 0.77465 0.95802 0.0
O65 O 0.79409 0.82099 0.94942 0.0
O66 O 0.85858 0.71649 0.07362 0.0
O67 O 0.89458 0.75069 0.96048 0.0
O68 O 0.79286 0.7998 0.06833 0.0
O69 O 0.69823 0.69923 0.06731 0.0
O70 O 0.73571 0.60026 -0.00512 0.0
O71 O 0.63524 0.59161 0.0349 0.0
H72 H 0.43655 0.57168 0.78513 0.0
H73 H 0.30778 0.51509 0.80544 0.0
H74 H 0.33506 0.46989 0.03367 0.0
H75 H 0.4656 0.52815 0.01358 0.0
H76 H 1.05136 0.78032 0.02969 0.0
H77 H 1.11155 0.71087 0.04558 0.0
H78 H 0.90727 0.5147 0.0367 0.0
H79 H 0.84679 0.58561 0.02582 0.0
La80 La 0.55827 1.06449 0.9628 0.0
La81 La 0.50651 0.14424 -0.0014 0.0
C82 C 0.62538 1.01121 0.89825 0.0
C83 C 0.67251 0.98084 0.91125 0.0
C84 C 0.69175 0.95336 0.84997 0.0
C85 C 0.72427 0.9118 0.86102 0.0
C86 C 0.73926 0.89802 0.93342 0.0
C87 C 0.72554 0.93078 -0.00557 0.0
C88 C 0.69235 0.972 -0.01652 0.0
C89 C 0.56697 0.17086 0.83978 0.0
C90 C 0.40058 0.97855 0.96353 0.0
C91 C 0.49142 0.25232 0.01848 0.0
C92 C 0.54066 0.33087 0.01973 0.0
C93 C 0.52338 0.37265 0.06558 0.0
C94 C 0.56933 0.44649 0.07123 0.0
C95 C 0.63405 0.48104 0.0308 0.0
C96 C 0.65292 0.43902 -0.01355 0.0
C97 C 0.60656 0.36431 -0.01889 0.0
C98 C 0.47351 1.05355 0.10963 0.0
C99 C 0.66905 0.1932 0.03243 0.0
O100 O 0.65238 1.07993 0.91019 0.0
O101 O 0.55909 0.97346 0.92219 0.0
O102 O 0.52551 0.12035 0.88506 0.0
O103 O 0.52689 0.12035 0.88583 0.0
O104 O 0.4566 0.97241 -0.02113 0.0
O105 O 0.40719 1.04384 0.95855 0.0
O106 O 0.50183 0.21756 0.07193 0.0
O107 O 0.47926 0.21868 0.95452 0.0
O108 O 0.43085 1.07151 0.07835 0.0
O109 O 0.5346 0.08531 0.07646 0.0
O110 O 0.62695 0.2146 0.00232 0.0
O111 O 0.64161 0.12488 0.04027 0.0
H112 H 0.6769 0.95963 0.79375 0.0
H113 H 0.73132 0.88478 0.81342 0.0
H114 H 0.73374 0.91848 0.05109 0.0
H115 H 0.67783 0.99267 0.03154 0.0
H116 H 0.47377 0.34828 0.09683 0.0
H117 H 0.55283 0.47703 0.10578 0.0
H118 H 0.70182 0.46405 0.95382 0.0
H119 H 0.62171 0.33295 0.94623 0.0
La120 La 0.82884 0.87995 0.29569 0.0
La121 La 0.74877 0.74795 0.33266 0.0
C122 C 0.88191 1.00001 0.23043 0.0
C123 C 0.91247 1.07759 0.24336 0.0
C124 C 0.94033 0.12431 0.18213 0.0
C125 C 0.98189 0.19839 0.19321 0.0
C126 C 0.99534 0.22723 0.2656 0.0
C127 C 0.9622 0.18073 0.32651 0.0
C128 C 0.92098 0.10632 0.31554 0.0
C129 C 0.72203 0.78168 0.17332 0.0
C130 C 0.91444 0.80771 0.29661 0.0
C131 C 0.64068 0.62497 0.35324 0.0
C132 C 0.56211 0.59568 0.3545 0.0
C133 C 0.52025 0.53652 0.4002 0.0
C134 C 0.44637 0.50851 0.40559 0.0
C135 C 0.41186 0.53867 0.36507 0.0
C136 C 0.45397 0.59969 0.32093 0.0
C137 C 0.5287 0.62814 0.31583 0.0
C138 C 0.84013 0.80656 0.4429 0.0
C139 C 0.70034 0.86219 0.3661 0.0
O140 O 0.81326 0.95841 0.24279 0.0
O141 O 0.91969 0.97141 0.25416 0.0
O142 O 0.77203 0.79069 0.21919 0.0
O143 O 0.77223 0.79186 0.21976 0.0
O144 O 0.92077 0.87005 0.3115 0.0
O145 O 0.8491 0.74897 0.29226 0.0
O146 O 0.67553 0.67043 0.40645 0.0
O147 O 0.67424 0.64605 0.28918 0.0
O148 O 0.82188 0.7456 0.41221 0.0
O149 O 0.80829 0.83572 0.40954 0.0
O150 O 0.6787 0.79837 0.33659 0.0
O151 O 0.76873 0.90326 0.37323 0.0
H152 H 0.93432 0.10318 0.12594 0.0
H153 H 1.00915 0.23243 0.14567 0.0
H154 H 0.9742 0.20122 0.38319 0.0
H155 H 0.90002 1.07115 0.36359 0.0
H156 H 0.54459 0.51126 0.43149 0.0
H157 H 0.41576 0.46136 0.43997 0.0
H158 H 0.42899 0.62357 0.28822 0.0
H159 H 0.56011 0.67471 0.28104 0.0
La160 La 0.32998 0.98763 0.29441 0.0
La161 La 0.44793 1.02954 0.33791 0.0
C162 C 0.20764 0.91687 0.23293 0.0
C163 C 0.13088 0.87605 0.25309 0.0
C164 C 1.07973 0.84248 0.19644 0.0
C165 C 1.00627 0.80903 0.21254 0.0
C166 C 0.98274 0.80868 0.28568 0.0
C167 C 1.03415 0.83785 0.3433 0.0
C168 C 1.10764 0.87106 0.32724 0.0
C169 C 0.46592 1.04566 0.19047 0.0
C170 C 0.40606 0.14357 0.27272 0.0
C171 C 0.56319 1.03433 0.37787 0.0
C172 C 0.59238 0.98477 0.37724 0.0
C173 C 0.65149 1.00099 0.4225 0.0
C174 C 0.68234 0.95741 0.42246 0.0
C175 C 0.65517 0.89597 0.37688 0.0
C176 C 0.59358 0.87734 0.33379 0.0
C177 C 0.56234 0.92151 0.334 0.0
C178 C 0.40233 0.09327 0.4302 0.0
C179 C 0.32729 0.87358 0.37735 0.0
O180 O 0.24626 0.88934 0.25497 0.0
O181 O 0.24144 0.98649 0.24228 0.0
O182 O 0.41308 0.98734 0.22133 0.0
O183 O 0.41433 0.99327 0.22409 0.0
O184 O 0.34181 0.09006 0.28131 0.0
O185 O 0.46172 0.13373 0.28688 0.0
O186 O 0.50854 1.01639 0.42194 0.0
O187 O 0.5552 1.05847 0.31362 0.0
O188 O 0.46376 0.12151 0.39764 0.0
O189 O 0.36437 1.02697 0.40991 0.0
O190 O 0.39162 0.9101 0.34862 0.0
O191 O 0.29341 0.90873 0.38132 0.0
H192 H 1.09694 0.8459 0.13905 0.0
H193 H 0.96839 0.79003 0.16689 0.0
H194 H 1.01763 0.84047 0.39993 0.0
H195 H 0.1462 0.89601 0.37201 0.0
H196 H 0.67511 1.04849 0.45702 0.0
H197 H 0.72971 0.97366 0.45635 0.0
H198 H 0.57184 0.83098 0.29738 0.0
H199 H 0.516 0.90726 0.29918 0.0
La200 La 0.22241 0.37483 0.28444 0.0
La201 La 0.17253 0.4544 0.32831 0.0
C202 C 0.29179 0.32409 0.21857 0.0
C203 C 0.33849 0.29227 0.23058 0.0
C204 C 0.34643 0.2538 0.17171 0.0
C205 C 0.381 0.21409 0.18281 0.0
C206 C 0.40922 0.21188 0.25301 0.0
C207 C 0.40575 0.25465 0.31083 0.0
C208 C 0.37082 0.29466 0.29973 0.0
C209 C 0.23075 0.49033 0.16938 0.0
C210 C 1.06403 0.29312 0.27865 0.0
C211 C 0.15912 0.5622 0.35908 0.0
C212 C 0.2041 0.64173 0.36071 0.0
C213 C 0.17036 0.68277 0.36546 0.0
C214 C 0.21044 0.75724 0.37482 0.0
C215 C 0.28598 0.79341 0.37722 0.0
C216 C 0.32011 0.7524 0.37102 0.0
C217 C 0.27956 0.67722 0.36382 0.0
C218 C 0.13036 0.35238 0.42907 0.0
C219 C 0.3323 0.49757 0.36017 0.0
O220 O 0.31819 0.39225 0.23358 0.0
O221 O 0.22445 0.28566 0.239 0.0
O222 O 0.19148 0.43666 0.21258 0.0
O223 O 0.1926 0.43662 0.21299 0.0
O224 O 1.11864 0.28351 0.29031 0.0
O225 O 1.07223 0.35909 0.28235 0.0
O226 O 0.17618 0.52783 0.40733 0.0
O227 O 0.14223 0.52986 0.29413 0.0
O228 O 1.093 0.37846 0.40127 0.0
O229 O 0.19362 0.38449 0.40021 0.0
O230 O 0.29269 0.52124 0.32915 0.0
O231 O 0.30149 0.42905 0.36808 0.0
H232 H 0.32193 0.25082 0.11792 0.0
H233 H 0.3784 0.17855 0.13854 0.0
H234 H 0.42342 0.25136 0.36667 0.0
H235 H 0.36528 0.32372 0.34627 0.0
H236 H 1.11256 0.65702 0.36219 0.0
H237 H 0.18191 0.78667 0.37807 0.0
H238 H 0.37806 0.7784 0.37158 0.0
H239 H 0.30721 0.64699 0.36082 0.0
La240 La 0.51825 0.2338 0.61806 0.0
La241 La 0.43882 0.10453 0.66175 0.0
C242 C 0.56916 0.354 0.55228 0.0
C243 C 0.60119 0.43259 0.56407 0.0
C244 C 0.6399 0.47878 0.50516 0.0
C245 C 0.67974 0.55309 0.51604 0.0
C246 C 0.68187 0.58382 0.58606 0.0
C247 C 0.63887 0.53777 0.64389 0.0
C248 C 0.59872 0.4628 0.63302 0.0
C249 C 0.40277 0.12665 0.5029 0.0
C250 C 0.60003 0.15721 0.61217 0.0
C251 C 0.33116 0.98329 0.69263 0.0
C252 C 0.25167 0.94873 0.69428 0.0
C253 C 0.21068 0.87396 0.69909 0.0
C254 C 0.13622 0.83956 0.7084 0.0
C255 C 1.10004 0.87893 0.71068 0.0
C256 C 0.141 0.95407 0.70444 0.0
C257 C 0.21616 0.98869 0.69728 0.0
C258 C 0.54054 0.16406 0.76269 0.0
C259 C 0.39546 0.22097 0.69361 0.0
O260 O 0.50101 0.31238 0.56739 0.0
O261 O 0.60748 0.32496 0.57267 0.0
O262 O 0.45653 0.14112 0.54598 0.0
O263 O 0.45656 0.14231 0.5464 0.0
O264 O 0.60961 0.22141 0.624 0.0
O265 O 0.53408 0.09948 0.61575 0.0
O266 O 0.36548 1.03476 0.74084 0.0
O267 O 0.36346 0.99875 0.62765 0.0
O268 O 0.51473 0.1008 0.73451 0.0
O269 O 0.50859 0.1954 0.73391 0.0
O270 O 0.37192 0.15779 0.66241 0.0
O271 O 0.46394 0.25858 0.70171 0.0
H272 H 0.64294 0.45706 0.45149 0.0
H273 H 0.71541 0.58582 0.47175 0.0
H274 H 0.64205 0.55892 0.69962 0.0
H275 H 0.56947 0.42838 0.6796 0.0
H276 H 0.23647 0.84192 0.6959 0.0
H277 H 1.10683 0.78161 0.71167 0.0
H278 H 1.11498 0.98601 0.70488 0.0
H279 H 0.24636 1.04657 0.69421 0.0
La280 La 1.01319 0.33475 0.62881 0.0
La281 La 0.14514 0.38692 0.6651 0.0
C282 C 0.89299 0.26757 0.56397 0.0
C283 C 0.81543 0.22071 0.57694 0.0
C284 C 0.76874 0.20191 0.5157 0.0
C285 C 0.69469 0.1696 0.52678 0.0
C286 C 0.66589 0.15434 0.59918 0.0
C287 C 0.71231 0.16768 0.66013 0.0
C288 C 0.78669 0.20067 0.64914 0.0
C289 C 1.11108 0.3258 0.50614 0.0
C290 C 1.08505 0.49253 0.62894 0.0
C291 C 0.26826 0.40213 0.6854 0.0
C292 C 0.29757 0.35287 0.68689 0.0
C293 C 0.3568 0.37037 0.73254 0.0
C294 C 0.38474 0.32447 0.73828 0.0
C295 C 0.35447 0.25957 0.69814 0.0
C296 C 0.29342 0.24049 0.65403 0.0
C297 C 0.26502 0.2868 0.6486 0.0
C298 C 1.08712 0.42009 0.7755 0.0
C299 C 1.03131 0.22438 0.69938 0.0
O300 O 0.93453 0.24047 0.57647 0.0
O301 O 0.92164 0.33402 0.58744 0.0
O302 O 1.10208 0.36694 0.55182 0.0
O303 O 1.10091 0.36596 0.55239 0.0
O304 O 1.02287 0.43655 0.64432 0.0
O305 O 0.14381 0.48599 0.62437 0.0
O306 O 0.22301 0.39181 0.73874 0.0
O307 O 0.24691 0.41418 0.62131 0.0
O308 O 0.14761 0.46284 0.74402 0.0
O309 O 1.05779 0.35888 0.74254 0.0
O310 O 1.09494 0.26647 0.66946 0.0
O311 O 0.99022 0.25165 0.70664 0.0
H312 H 0.78989 0.21692 0.4595 0.0
H313 H 0.66068 0.16285 0.47924 0.0
H314 H 0.69181 0.1593 0.7168 0.0
H315 H 0.82185 0.21487 0.69719 0.0
H316 H 0.38214 0.42014 0.76352 0.0
H317 H 0.43192 0.34114 0.77262 0.0
H318 H 0.26946 0.19145 0.62161 0.0
H319 H 0.21839 0.27149 0.61387 0.0
La320 La 0.906 0.72899 0.62744 0.0
La321 La 0.86406 0.80485 0.67107 0.0
C322 C 0.97671 0.67745 0.56575 0.0
C323 C 1.01722 0.64118 0.5858 0.0
C324 C 1.05071 0.62356 0.5291 0.0
C325 C 1.08387 0.58325 0.54507 0.0
C326 C 1.08401 0.55984 0.61814 0.0
C327 C 1.05489 0.58208 0.67583 0.0
C328 C 1.02197 0.62265 0.6599 0.0
C329 C 0.84833 0.80748 0.52373 0.0
C330 C 0.75015 0.64903 0.60569 0.0
C331 C 0.85914 0.91521 0.71132 0.0
C332 C 0.90876 0.99393 0.71071 0.0
C333 C 0.89283 1.03684 0.7563 0.0
C334 C 0.93645 0.11126 0.75622 0.0
C335 C 0.99763 0.14546 0.71027 0.0
C336 C 1.016 0.10246 0.66687 0.0
C337 C 0.9718 1.02708 0.66713 0.0
C338 C 0.80046 0.69564 0.76335 0.0
C339 C 1.01991 0.84007 0.71061 0.0
O340 O 1.00431 0.74349 0.58819 0.0
O341 O 0.90706 0.64175 0.57483 0.0
O342 O 0.90652 0.81261 0.55453 0.0
O343 O 0.90056 0.80793 0.55729 0.0
O344 O 0.80367 0.63832 0.61434 0.0
O345 O 0.75999 0.71454 0.61982 0.0
O346 O 0.8771 0.87844 0.75528 0.0
O347 O 0.83499 0.88315 0.64705 0.0
O348 O 0.77207 0.72858 0.73057 0.0
O349 O 0.86672 0.72389 0.74304 0.0
O350 O 0.98345 0.86799 0.68198 0.0
O351 O 0.98479 0.77103 0.71441 0.0
H352 H 1.04744 0.63754 0.47174 0.0
H353 H 1.10279 0.56434 0.4994 0.0
H354 H 1.05213 0.56277 0.73241 0.0
H355 H 0.99706 0.63629 0.7047 0.0
H356 H 0.84551 1.01301 0.79109 0.0
H357 H 0.92042 0.14245 0.79034 0.0
H358 H 1.06216 0.12704 0.63019 0.0
H359 H 0.98582 0.99494 0.63206 0.0
loop_
_geom_bond_atom_site_label_1
_geom_bond_atom_site_label_2
_geom_bond_distance
_geom_bond_site_symmetry_2
_ccdc_geom_bond_type
La0 C2 2.928 . S
La0 O20 2.521 . S
La0 O21 2.628 1_556 S
La0 O22 2.554 . S
La0 O23 2.757 1_455 S
La0 O24 2.470 . S
La0 O29 2.482 1_556 S
La0 O31 2.503 1_456 S
La1 C11 2.928 . S
La1 O23 2.482 1_554 S
La1 O25 2.503 1_654 S
La1 O26 2.521 . S
La1 O27 2.628 1_554 S
La1 O28 2.554 . S
La1 O29 2.757 1_655 S
La1 O30 2.470 . S
C2 La0 2.928 . S
C2 C3 1.503 . S
C2 O20 1.261 . S
C2 O21 1.243 1_556 S
C3 C2 1.503 . S
C3 C4 1.394 . S
C3 C8 1.373 1_556 S
C4 C3 1.394 . S
C4 C5 1.380 . S
C4 H32 0.930 . S
C5 C4 1.380 . S
C5 C6 1.376 . S
C5 H33 0.930 . S
C6 C5 1.376 . S
C6 C7 1.370 1_556 S
C7 C6 1.370 1_554 S
C7 C8 1.396 . S
C7 H34 0.929 . S
C8 C3 1.373 1_554 S
C8 C7 1.396 . S
C8 H35 0.929 . S
C9 O22 1.240 1_655 S
C9 O23 1.289 . S
C10 O24 1.258 . S
C10 O25 1.256 . S
C11 La1 2.928 . S
C11 C12 1.503 . S
C11 O26 1.261 . S
C11 O27 1.243 1_554 S
C12 C11 1.503 . S
C12 C13 1.394 . S
C12 C17 1.373 1_554 S
C13 C12 1.394 . S
C13 C14 1.380 . S
C13 H36 0.930 . S
C14 C13 1.380 . S
C14 C15 1.376 . S
C14 H37 0.930 . S
C15 C14 1.376 . S
C15 C16 1.370 1_554 S
C16 C15 1.370 1_556 S
C16 C17 1.396 . S
C16 H38 0.929 . S
C17 C12 1.373 1_556 S
C17 C16 1.396 . S
C17 H39 0.929 . S
C18 O28 1.240 1_455 S
C18 O29 1.289 . S
C19 O30 1.258 . S
C19 O31 1.256 . S
O20 La0 2.521 . S
O20 C2 1.261 . S
O21 La0 2.628 1_554 S
O21 C2 1.243 1_554 S
O22 La0 2.554 . S
O22 C9 1.240 1_455 S
O23 La0 2.757 1_655 S
O23 La1 2.482 1_556 S
O23 C9 1.289 . S
O24 La0 2.470 . S
O24 C10 1.258 . S
O25 La1 2.503 1_456 S
O25 C10 1.256 . S
O26 La1 2.521 . S
O26 C11 1.261 . S
O27 La1 2.628 1_556 S
O27 C11 1.243 1_556 S
O28 La1 2.554 . S
O28 C18 1.240 1_655 S
O29 La0 2.482 1_554 S
O29 La1 2.757 1_455 S
O29 C18 1.289 . S
O30 La1 2.470 . S
O30 C19 1.258 . S
O31 La0 2.503 1_654 S
O31 C19 1.256 . S
H32 C4 0.930 . S
H33 C5 0.930 . S
H34 C7 0.929 . S
H35 C8 0.929 . S
H36 C13 0.930 . S
H37 C14 0.930 . S
H38 C16 0.929 . S
H39 C17 0.929 . S
La40 C42 2.928 . S
La40 O60 2.521 . S
La40 O61 2.628 1_556 S
La40 O62 2.554 . S
La40 O63 2.757 . S
La40 O64 2.470 . S
La40 O69 2.482 1_556 S
La40 O71 2.503 1_556 S
La41 C51 2.928 . S
La41 O63 2.482 1_554 S
La41 O65 2.503 1_554 S
La41 O66 2.521 . S
La41 O67 2.628 1_554 S
La41 O68 2.554 . S
La41 O69 2.757 . S
La41 O70 2.470 . S
C42 La40 2.928 . S
C42 C43 1.503 . S
C42 O60 1.261 . S
C42 O61 1.243 1_556 S
C43 C42 1.503 . S
C43 C44 1.394 . S
C43 C48 1.373 1_556 S
C44 C43 1.394 . S
C44 C45 1.380 . S
C44 H72 0.930 . S
C45 C44 1.380 . S
C45 C46 1.376 . S
C45 H73 0.930 . S
C46 C45 1.376 . S
C46 C47 1.370 1_556 S
C47 C46 1.370 1_554 S
C47 C48 1.396 . S
C47 H74 0.929 . S
C48 C43 1.373 1_554 S
C48 C47 1.396 . S
C48 H75 0.929 . S
C49 O62 1.240 . S
C49 O63 1.289 . S
C50 O64 1.258 . S
C50 O65 1.256 . S
C51 La41 2.928 . S
C51 C52 1.503 . S
C51 O66 1.261 . S
C51 O67 1.243 1_554 S
C52 C51 1.503 . S
C52 C53 1.394 . S
C52 C57 1.373 1_554 S
C53 C52 1.394 . S
C53 C54 1.380 . S
C53 H76 0.930 . S
C54 C53 1.380 . S
C54 C55 1.376 . S
C54 H77 0.930 . S
C55 C54 1.376 . S
C55 C56 1.370 1_554 S
C56 C55 1.370 1_556 S
C56 C57 1.396 . S
C56 H78 0.929 . S
C57 C52 1.373 1_556 S
C57 C56 1.396 . S
C57 H79 0.929 . S
C58 O68 1.240 . S
C58 O69 1.289 . S
C59 O70 1.258 . S
C59 O71 1.256 . S
O60 La40 2.521 . S
O60 C42 1.261 . S
O61 La40 2.628 1_554 S
O61 C42 1.243 1_554 S
O62 La40 2.554 . S
O62 C49 1.240 . S
O63 La40 2.757 . S
O63 La41 2.482 1_556 S
O63 C49 1.289 . S
O64 La40 2.470 . S
O64 C50 1.258 . S
O65 La41 2.503 1_556 S
O65 C50 1.256 . S
O66 La41 2.521 . S
O66 C51 1.261 . S
O67 La41 2.628 1_556 S
O67 C51 1.243 1_556 S
O68 La41 2.554 . S
O68 C58 1.240 . S
O69 La40 2.482 1_554 S
O69 La41 2.757 . S
O69 C58 1.289 . S
O70 La41 2.470 . S
O70 C59 1.258 . S
O71 La40 2.503 1_554 S
O71 C59 1.256 . S
H72 C44 0.930 . S
H73 C45 0.930 . S
H74 C47 0.929 . S
H75 C48 0.929 . S
H76 C53 0.930 . S
H77 C54 0.930 . S
H78 C56 0.929 . S
H79 C57 0.929 . S
La80 C82 2.928 . S
La80 O100 2.521 . S
La80 O101 2.628 1_556 S
La80 O102 2.554 . S
La80 O103 2.757 1_565 S
La80 O104 2.470 . S
La80 O109 2.482 1_556 S
La80 O111 2.503 1_566 S
La81 C91 2.928 . S
La81 O103 2.482 1_554 S
La81 O105 2.503 1_544 S
La81 O106 2.521 . S
La81 O107 2.628 1_554 S
La81 O108 2.554 . S
La81 O109 2.757 1_545 S
La81 O110 2.470 . S
C82 La80 2.928 . S
C82 C83 1.503 . S
C82 O100 1.261 . S
C82 O101 1.243 1_556 S
C83 C82 1.503 . S
C83 C84 1.394 . S
C83 C88 1.373 1_556 S
C84 C83 1.394 . S
C84 C85 1.380 . S
C84 H112 0.930 . S
C85 C84 1.380 . S
C85 C86 1.376 . S
C85 H113 0.930 . S
C86 C85 1.376 . S
C86 C87 1.370 1_556 S
C87 C86 1.370 1_554 S
C87 C88 1.396 . S
C87 H114 0.929 . S
C88 C83 1.373 1_554 S
C88 C87 1.396 . S
C88 H115 0.929 . S
C89 O102 1.240 1_545 S
C89 O103 1.289 . S
C90 O104 1.258 . S
C90 O105 1.256 . S
C91 La81 2.928 . S
C91 C92 1.503 . S
C91 O106 1.261 . S
C91 O107 1.243 1_554 S
C92 C91 1.503 . S
C92 C93 1.394 . S
C92 C97 1.373 1_554 S
C93 C92 1.394 . S
C93 C94 1.380 . S
C93 H116 0.930 . S
C94 C93 1.380 . S
C94 C95 1.376 . S
C94 H117 0.930 . S
C95 C94 1.376 . S
C95 C96 1.370 1_554 S
C96 C95 1.370 1_556 S
C96 C97 1.396 . S
C96 H118 0.929 . S
C97 C92 1.373 1_556 S
C97 C96 1.396 . S
C97 H119 0.929 . S
C98 O108 1.240 1_565 S
C98 O109 1.289 . S
C99 O110 1.258 . S
C99 O111 1.256 . S
O100 La80 2.521 . S
O100 C82 1.261 . S
O101 La80 2.628 1_554 S
O101 C82 1.243 1_554 S
O102 La80 2.554 . S
O102 C89 1.240 1_565 S
O103 La80 2.757 1_545 S
O103 La81 2.482 1_556 S
O103 C89 1.289 . S
O104 La80 2.470 . S
O104 C90 1.258 . S
O105 La81 2.503 1_566 S
O105 C90 1.256 . S
O106 La81 2.521 . S
O106 C91 1.261 . S
O107 La81 2.628 1_556 S
O107 C91 1.243 1_556 S
O108 La81 2.554 . S
O108 C98 1.240 1_545 S
O109 La80 2.482 1_554 S
O109 La81 2.757 1_565 S
O109 C98 1.289 . S
O110 La81 2.470 . S
O110 C99 1.258 . S
O111 La80 2.503 1_544 S
O111 C99 1.256 . S
H112 C84 0.930 . S
H113 C85 0.930 . S
H114 C87 0.929 . S
H115 C88 0.929 . S
H116 C93 0.930 . S
H117 C94 0.930 . S
H118 C96 0.929 . S
H119 C97 0.929 . S
La120 C122 2.928 . S
La120 O140 2.521 . S
La120 O141 2.628 . S
La120 O142 2.554 . S
La120 O143 2.757 . S
La120 O144 2.470 . S
La120 O149 2.482 . S
La120 O151 2.503 . S
La121 C131 2.928 . S
La121 O143 2.482 . S
La121 O145 2.503 . S
La121 O146 2.521 . S
La121 O147 2.628 . S
La121 O148 2.554 . S
La121 O149 2.757 . S
La121 O150 2.470 . S
C122 La120 2.928 . S
C122 C123 1.503 1_565 S
C122 O140 1.261 . S
C122 O141 1.243 . S
C123 C122 1.503 1_545 S
C123 C124 1.394 . S
C123 C128 1.373 . S
C124 C123 1.394 . S
C124 C125 1.380 . S
C124 H152 0.930 . S
C125 C124 1.380 . S
C125 C126 1.376 1_655 S
C125 H153 0.930 1_655 S
C126 C125 1.376 1_455 S
C126 C127 1.370 . S
C127 C126 1.370 . S
C127 C128 1.396 1_455 S
C127 H154 0.929 . S
C128 C123 1.373 . S
C128 C127 1.396 1_655 S
C128 H155 0.929 . S
C129 O142 1.240 . S
C129 O143 1.289 . S
C130 O144 1.258 . S
C130 O145 1.256 . S
C131 La121 2.928 . S
C131 C132 1.503 . S
C131 O146 1.261 . S
C131 O147 1.243 . S
C132 C131 1.503 . S
C132 C133 1.394 . S
C132 C137 1.373 . S
C133 C132 1.394 . S
C133 C134 1.380 . S
C133 H156 0.930 . S
C134 C133 1.380 . S
C134 C135 1.376 . S
C134 H157 0.930 . S
C135 C134 1.376 . S
C135 C136 1.370 . S
C136 C135 1.370 . S
C136 C137 1.396 . S
C136 H158 0.929 . S
C137 C132 1.373 . S
C137 C136 1.396 . S
C137 H159 0.929 . S
C138 O148 1.240 . S
C138 O149 1.289 . S
C139 O150 1.258 . S
C139 O151 1.256 . S
O140 La120 2.521 . S
O140 C122 1.261 . S
O141 La120 2.628 . S
O141 C122 1.243 . S
O142 La120 2.554 . S
O142 C129 1.240 . S
O143 La120 2.757 . S
O143 La121 2.482 . S
O143 C129 1.289 . S
O144 La120 2.470 . S
O144 C130 1.258 . S
O145 La121 2.503 . S
O145 C130 1.256 . S
O146 La121 2.521 . S
O146 C131 1.261 . S
O147 La121 2.628 . S
O147 C131 1.243 . S
O148 La121 2.554 . S
O148 C138 1.240 . S
O149 La120 2.482 . S
O149 La121 2.757 . S
O149 C138 1.289 . S
O150 La121 2.470 . S
O150 C139 1.258 . S
O151 La120 2.503 . S
O151 C139 1.256 . S
H152 C124 0.930 . S
H153 C125 0.930 1_455 S
H154 C127 0.929 . S
H155 C128 0.929 . S
H156 C133 0.930 . S
H157 C134 0.930 . S
H158 C136 0.929 . S
H159 C137 0.929 . S
La160 C162 2.928 . S
La160 O180 2.521 . S
La160 O181 2.628 . S
La160 O182 2.554 . S
La160 O183 2.757 . S
La160 O184 2.470 . S
La160 O189 2.482 . S
La160 O191 2.503 . S
La161 C171 2.928 . S
La161 O183 2.482 . S
La161 O185 2.503 1_565 S
La161 O186 2.521 . S
La161 O187 2.628 . S
La161 O188 2.554 . S
La161 O189 2.757 . S
La161 O190 2.470 . S
C162 La160 2.928 . S
C162 C163 1.503 1_455 S
C162 O180 1.261 . S
C162 O181 1.243 . S
C163 C162 1.503 1_655 S
C163 C164 1.394 . S
C163 C168 1.373 . S
C164 C163 1.394 . S
C164 C165 1.380 . S
C164 H192 0.930 . S
C165 C164 1.380 . S
C165 C166 1.376 . S
C165 H193 0.930 . S
C166 C165 1.376 . S
C166 C167 1.370 . S
C167 C166 1.370 . S
C167 C168 1.396 . S
C167 H194 0.929 . S
C168 C163 1.373 . S
C168 C167 1.396 . S
C168 H195 0.929 . S
C169 O182 1.240 . S
C169 O183 1.289 . S
C170 O184 1.258 1_545 S
C170 O185 1.256 . S
C171 La161 2.928 . S
C171 C172 1.503 . S
C171 O186 1.261 . S
C171 O187 1.243 . S
C172 C171 1.503 . S
C172 C173 1.394 . S
C172 C177 1.373 . S
C173 C172 1.394 . S
C173 C174 1.380 . S
C173 H196 0.930 . S
C174 C173 1.380 . S
C174 C175 1.376 . S
C174 H197 0.930 . S
C175 C174 1.376 . S
C175 C176 1.370 . S
C176 C175 1.370 . S
C176 C177 1.396 . S
C176 H198 0.929 . S
C177 C172 1.373 . S
C177 C176 1.396 . S
C177 H199 0.929 . S
C178 O188 1.240 . S
C178 O189 1.289 . S
C179 O190 1.258 . S
C179 O191 1.256 . S
O180 La160 2.521 . S
O180 C162 1.261 . S
O181 La160 2.628 . S
O181 C162 1.243 . S
O182 La160 2.554 . S
O182 C169 1.240 . S
O183 La160 2.757 . S
O183 La161 2.482 . S
O183 C169 1.289 . S
O184 La160 2.470 . S
O184 C170 1.258 1_565 S
O185 La161 2.503 1_545 S
O185 C170 1.256 . S
O186 La161 2.521 . S
O186 C171 1.261 . S
O187 La161 2.628 . S
O187 C171 1.243 . S
O188 La161 2.554 . S
O188 C178 1.240 . S
O189 La160 2.482 . S
O189 La161 2.757 . S
O189 C178 1.289 . S
O190 La161 2.470 . S
O190 C179 1.258 . S
O191 La160 2.503 . S
O191 C179 1.256 . S
H192 C164 0.930 . S
H193 C165 0.930 . S
H194 C167 0.929 . S
H195 C168 0.929 . S
H196 C173 0.930 . S
H197 C174 0.930 . S
H198 C176 0.929 . S
H199 C177 0.929 . S
La200 C202 2.928 . S
La200 O220 2.521 . S
La200 O221 2.628 . S
La200 O222 2.554 . S
La200 O223 2.757 . S
La200 O224 2.470 . S
La200 O229 2.482 . S
La200 O231 2.503 . S
La201 C211 2.928 . S
La201 O223 2.482 . S
La201 O225 2.503 . S
La201 O226 2.521 . S
La201 O227 2.628 . S
La201 O228 2.554 . S
La201 O229 2.757 . S
La201 O230 2.470 . S
C202 La200 2.928 . S
C202 C203 1.503 . S
C202 O220 1.261 . S
C202 O221 1.243 . S
C203 C202 1.503 . S
C203 C204 1.394 . S
C203 C208 1.373 . S
C204 C203 1.394 . S
C204 C205 1.380 . S
C204 H232 0.930 . S
C205 C204 1.380 . S
C205 C206 1.376 1_545 S
C205 H233 0.930 . S
C206 C205 1.376 1_565 S
C206 C207 1.370 1_565 S
C207 C206 1.370 1_545 S
C207 C208 1.396 . S
C207 H234 0.929 1_545 S
C208 C203 1.373 . S
C208 C207 1.396 . S
C208 H235 0.929 . S
C209 O222 1.240 . S
C209 O223 1.289 . S
C210 O224 1.258 . S
C210 O225 1.256 . S
C211 La201 2.928 . S
C211 C212 1.503 . S
C211 O226 1.261 . S
C211 O227 1.243 . S
C212 C211 1.503 . S
C212 C213 1.394 . S
C212 C217 1.373 . S
C213 C212 1.394 . S
C213 C214 1.380 . S
C213 H236 0.930 . S
C214 C213 1.380 . S
C214 C215 1.376 . S
C214 H237 0.930 . S
C215 C214 1.376 . S
C215 C216 1.370 . S
C216 C215 1.370 . S
C216 C217 1.396 . S
C216 H238 0.929 . S
C217 C212 1.373 . S
C217 C216 1.396 . S
C217 H239 0.929 . S
C218 O228 1.240 . S
C218 O229 1.289 . S
C219 O230 1.258 . S
C219 O231 1.256 . S
O220 La200 2.521 . S
O220 C202 1.261 . S
O221 La200 2.628 . S
O221 C202 1.243 . S
O222 La200 2.554 . S
O222 C209 1.240 . S
O223 La200 2.757 . S
O223 La201 2.482 . S
O223 C209 1.289 . S
O224 La200 2.470 . S
O224 C210 1.258 . S
O225 La201 2.503 . S
O225 C210 1.256 . S
O226 La201 2.521 . S
O226 C211 1.261 . S
O227 La201 2.628 . S
O227 C211 1.243 . S
O228 La201 2.554 . S
O228 C218 1.240 . S
O229 La200 2.482 . S
O229 La201 2.757 . S
O229 C218 1.289 . S
O230 La201 2.470 . S
O230 C219 1.258 . S
O231 La200 2.503 . S
O231 C219 1.256 . S
H232 C204 0.930 . S
H233 C205 0.930 . S
H234 C207 0.929 1_565 S
H235 C208 0.929 . S
H236 C213 0.930 . S
H237 C214 0.930 . S
H238 C216 0.929 . S
H239 C217 0.929 . S
La240 C242 2.928 . S
La240 O260 2.521 . S
La240 O261 2.628 . S
La240 O262 2.554 . S
La240 O263 2.757 . S
La240 O264 2.470 . S
La240 O269 2.482 . S
La240 O271 2.503 . S
La241 C251 2.928 1_545 S
La241 O263 2.482 . S
La241 O265 2.503 . S
La241 O266 2.521 1_545 S
La241 O267 2.628 1_545 S
La241 O268 2.554 . S
La241 O269 2.757 . S
La241 O270 2.470 . S
C242 La240 2.928 . S
C242 C243 1.503 . S
C242 O260 1.261 . S
C242 O261 1.243 . S
C243 C242 1.503 . S
C243 C244 1.394 . S
C243 C248 1.373 . S
C244 C243 1.394 . S
C244 C245 1.380 . S
C244 H272 0.930 . S
C245 C244 1.380 . S
C245 C246 1.376 . S
C245 H273 0.930 . S
C246 C245 1.376 . S
C246 C247 1.370 . S
C247 C246 1.370 . S
C247 C248 1.396 . S
C247 H274 0.929 . S
C248 C243 1.373 . S
C248 C247 1.396 . S
C248 H275 0.929 . S
C249 O262 1.240 . S
C249 O263 1.289 . S
C250 O264 1.258 . S
C250 O265 1.256 . S
C251 La241 2.928 1_565 S
C251 C252 1.503 . S
C251 O266 1.261 . S
C251 O267 1.243 . S
C252 C251 1.503 . S
C252 C253 1.394 . S
C252 C257 1.373 . S
C253 C252 1.394 . S
C253 C254 1.380 . S
C253 H276 0.930 . S
C254 C253 1.380 . S
C254 C255 1.376 1_455 S
C254 H277 0.930 . S
C255 C254 1.376 1_655 S
C255 C256 1.370 1_655 S
C256 C255 1.370 1_455 S
C256 C257 1.396 . S
C256 H278 0.929 1_455 S
C257 C252 1.373 . S
C257 C256 1.396 . S
C257 H279 0.929 . S
C258 O268 1.240 . S
C258 O269 1.289 . S
C259 O270 1.258 . S
C259 O271 1.256 . S
O260 La240 2.521 . S
O260 C242 1.261 . S
O261 La240 2.628 . S
O261 C242 1.243 . S
O262 La240 2.554 . S
O262 C249 1.240 . S
O263 La240 2.757 . S
O263 La241 2.482 . S
O263 C249 1.289 . S
O264 La240 2.470 . S
O264 C250 1.258 . S
O265 La241 2.503 . S
O265 C250 1.256 . S
O266 La241 2.521 1_565 S
O266 C251 1.261 . S
O267 La241 2.628 1_565 S
O267 C251 1.243 . S
O268 La241 2.554 . S
O268 C258 1.240 . S
O269 La240 2.482 . S
O269 La241 2.757 . S
O269 C258 1.289 . S
O270 La241 2.470 . S
O270 C259 1.258 . S
O271 La240 2.503 . S
O271 C259 1.256 . S
H272 C244 0.930 . S
H273 C245 0.930 . S
H274 C247 0.929 . S
H275 C248 0.929 . S
H276 C253 0.930 . S
H277 C254 0.930 . S
H278 C256 0.929 1_655 S
H279 C257 0.929 . S
La280 C282 2.928 . S
La280 O300 2.521 . S
La280 O301 2.628 . S
La280 O302 2.554 . S
La280 O303 2.757 . S
La280 O304 2.470 . S
La280 O309 2.482 . S
La280 O311 2.503 . S
La281 C291 2.928 1_655 S
La281 O303 2.482 . S
La281 O305 2.503 . S
La281 O306 2.521 1_655 S
La281 O307 2.628 1_655 S
La281 O308 2.554 . S
La281 O309 2.757 . S
La281 O310 2.470 . S
C282 La280 2.928 . S
C282 C283 1.503 . S
C282 O300 1.261 . S
C282 O301 1.243 . S
C283 C282 1.503 . S
C283 C284 1.394 . S
C283 C288 1.373 . S
C284 C283 1.394 . S
C284 C285 1.380 . S
C284 H312 0.930 . S
C285 C284 1.380 . S
C285 C286 1.376 . S
C285 H313 0.930 . S
C286 C285 1.376 . S
C286 C287 1.370 . S
C287 C286 1.370 . S
C287 C288 1.396 . S
C287 H314 0.929 . S
C288 C283 1.373 . S
C288 C287 1.396 . S
C288 H315 0.929 . S
C289 O302 1.240 . S
C289 O303 1.289 . S
C290 O304 1.258 . S
C290 O305 1.256 . S
C291 La281 2.928 1_455 S
C291 C292 1.503 . S
C291 O306 1.261 . S
C291 O307 1.243 . S
C292 C291 1.503 . S
C292 C293 1.394 . S
C292 C297 1.373 . S
C293 C292 1.394 . S
C293 C294 1.380 . S
C293 H316 0.930 . S
C294 C293 1.380 . S
C294 C295 1.376 . S
C294 H317 0.930 . S
C295 C294 1.376 . S
C295 C296 1.370 . S
C296 C295 1.370 . S
C296 C297 1.396 . S
C296 H318 0.929 . S
C297 C292 1.373 . S
C297 C296 1.396 . S
C297 H319 0.929 . S
C298 O308 1.240 . S
C298 O309 1.289 . S
C299 O310 1.258 . S
C299 O311 1.256 . S
O300 La280 2.521 . S
O300 C282 1.261 . S
O301 La280 2.628 . S
O301 C282 1.243 . S
O302 La280 2.554 . S
O302 C289 1.240 . S
O303 La280 2.757 . S
O303 La281 2.482 . S
O303 C289 1.289 . S
O304 La280 2.470 . S
O304 C290 1.258 . S
O305 La281 2.503 . S
O305 C290 1.256 . S
O306 La281 2.521 1_455 S
O306 C291 1.261 . S
O307 La281 2.628 1_455 S
O307 C291 1.243 . S
O308 La281 2.554 . S
O308 C298 1.240 . S
O309 La280 2.482 . S
O309 La281 2.757 . S
O309 C298 1.289 . S
O310 La281 2.470 . S
O310 C299 1.258 . S
O311 La280 2.503 . S
O311 C299 1.256 . S
H312 C284 0.930 . S
H313 C285 0.930 . S
H314 C287 0.929 . S
H315 C288 0.929 . S
H316 C293 0.930 . S
H317 C294 0.930 . S
H318 C296 0.929 . S
H319 C297 0.929 . S
La320 C322 2.928 . S
La320 O340 2.521 . S
La320 O341 2.628 . S
La320 O342 2.554 . S
La320 O343 2.757 . S
La320 O344 2.470 . S
La320 O349 2.482 . S
La320 O351 2.503 . S
La321 C331 2.928 . S
La321 O343 2.482 . S
La321 O345 2.503 . S
La321 O346 2.521 . S
La321 O347 2.628 . S
La321 O348 2.554 . S
La321 O349 2.757 . S
La321 O350 2.470 . S
C322 La320 2.928 . S
C322 C323 1.503 . S
C322 O340 1.261 . S
C322 O341 1.243 . S
C323 C322 1.503 . S
C323 C324 1.394 . S
C323 C328 1.373 . S
C324 C323 1.394 . S
C324 C325 1.380 . S
C324 H352 0.930 . S
C325 C324 1.380 . S
C325 C326 1.376 . S
C325 H353 0.930 . S
C326 C325 1.376 . S
C326 C327 1.370 . S
C327 C326 1.370 . S
C327 C328 1.396 . S
C327 H354 0.929 . S
C328 C323 1.373 . S
C328 C327 1.396 . S
C328 H355 0.929 . S
C329 O342 1.240 . S
C329 O343 1.289 . S
C330 O344 1.258 . S
C330 O345 1.256 . S
C331 La321 2.928 . S
C331 C332 1.503 . S
C331 O346 1.261 . S
C331 O347 1.243 . S
C332 C331 1.503 . S
C332 C333 1.394 . S
C332 C337 1.373 . S
C333 C332 1.394 . S
C333 C334 1.380 . S
C333 H356 0.930 . S
C334 C333 1.380 . S
C334 C335 1.376 1_565 S
C334 H357 0.930 1_565 S
C335 C334 1.376 1_545 S
C335 C336 1.370 . S
C336 C335 1.370 . S
C336 C337 1.396 1_545 S
C336 H358 0.929 . S
C337 C332 1.373 . S
C337 C336 1.396 1_565 S
C337 H359 0.929 . S
C338 O348 1.240 . S
C338 O349 1.289 . S
C339 O350 1.258 . S
C339 O351 1.256 . S
O340 La320 2.521 . S
O340 C322 1.261 . S
O341 La320 2.628 . S
O341 C322 1.243 . S
O342 La320 2.554 . S
O342 C329 1.240 . S
O343 La320 2.757 . S
O343 La321 2.482 . S
O343 C329 1.289 . S
O344 La320 2.470 . S
O344 C330 1.258 . S
O345 La321 2.503 . S
O345 C330 1.256 . S
O346 La321 2.521 . S
O346 C331 1.261 . S
O347 La321 2.628 . S
O347 C331 1.243 . S
O348 La321 2.554 . S
O348 C338 1.240 . S
O349 La320 2.482 . S
O349 La321 2.757 . S
O349 C338 1.289 . S
O350 La321 2.470 . S
O350 C339 1.258 . S
O351 La320 2.503 . S
O351 C339 1.256 . S
H352 C324 0.930 . S
H353 C325 0.930 . S
H354 C327 0.929 . S
H355 C328 0.929 . S
H356 C333 0.930 . S
H357 C334 0.930 1_545 S
H358 C336 0.929 . S
H359 C337 0.929 . S
C46 C10 2.894 . S
C86 C50 2.894 . S
C90 C6 2.894 . S
C95 C59 2.248 . S
C99 C15 2.248 . S
C19 C55 2.248 . S
C130 C166 2.894 . S
C206 C170 2.894 1_565 S
C210 C126 2.894 . S
C179 C215 2.248 . S
C219 C135 2.248 . S
C175 C139 2.248 . S
C286 C250 2.894 . S
C290 C326 2.894 . S
C330 C246 2.894 . S
C335 C299 2.248 . S
C339 C255 2.248 . S
C259 C295 2.248 . S
C209 C18 4.596 . S
C129 C58 4.596 . S
C98 C169 4.596 . S
C89 C258 4.596 . S
C9 C298 4.596 . S
C338 C49 4.596 . S
C138 C329 4.596 . S
C178 C249 4.596 1_565 S
C289 C218 4.596 1_655 S
