# Generated by pormake.
# Topology wna, (6)-cn, num edge types: 1
# Building blocks:
#     Node 0, Type 0, BuildingBlock: HISSIN_clean_sbu_0, # of connection points: 6
#     Node 1, Type 0, BuildingBlock: HISSIN_clean_sbu_0, # of connection points: 6
#     Node 2, Type 0, BuildingBlock: HISSIN_clean_sbu_0, # of connection points: 6
#     Node 3, Type 0, BuildingBlock: HISSIN_clean_sbu_0, # of connection points: 6
#     Node 4, Type 0, BuildingBlock: HISSIN_clean_sbu_0, # of connection points: 6
#     Node 5, Type 0, BuildingBlock: HISSIN_clean_sbu_0, # of connection points: 6
#     Node 6, Type 0, BuildingBlock: HISSIN_clean_sbu_0, # of connection points: 6
#     Node 7, Type 0, BuildingBlock: HISSIN_clean_sbu_0, # of connection points: 6
#     Node 8, Type 0, BuildingBlock: HISSIN_clean_sbu_0, # of connection points: 6
#     Node 9, Type 0, BuildingBlock: HISSIN_clean_sbu_0, # of connection points: 6
#     Node 10, Type 0, BuildingBlock: HISSIN_clean_sbu_0, # of connection points: 6
#     Node 11, Type 0, BuildingBlock: HISSIN_clean_sbu_0, # of connection points: 6
#     Node 12, Type 0, BuildingBlock: HISSIN_clean_sbu_0, # of connection points: 6
#     Node 13, Type 0, BuildingBlock: HISSIN_clean_sbu_0, # of connection points: 6
#     Node 14, Type 0, BuildingBlock: HISSIN_clean_sbu_0, # of connection points: 6
#     Node 15, Type 0, BuildingBlock: HISSIN_clean_sbu_0, # of connection points: 6
#     Node 16, Type 0, BuildingBlock: HISSIN_clean_sbu_0, # of connection points: 6
#     Node 17, Type 0, BuildingBlock: HISSIN_clean_sbu_0, # of connection points: 6
#     Node 18, Type 0, BuildingBlock: HISSIN_clean_sbu_0, # of connection points: 6
#     Node 19, Type 0, BuildingBlock: HISSIN_clean_sbu_0, # of connection points: 6
#     Node 20, Type 0, BuildingBlock: HISSIN_clean_sbu_0, # of connection points: 6
#     Node 21, Type 0, BuildingBlock: HISSIN_clean_sbu_0, # of connection points: 6
#     Node 22, Type 0, BuildingBlock: HISSIN_clean_sbu_0, # of connection points: 6
#     Node 23, Type 0, BuildingBlock: HISSIN_clean_sbu_0, # of connection points: 6
#     Node 24, Type 0, BuildingBlock: HISSIN_clean_sbu_0, # of connection points: 6
#     Node 25, Type 0, BuildingBlock: HISSIN_clean_sbu_0, # of connection points: 6
#     Node 26, Type 0, BuildingBlock: HISSIN_clean_sbu_0, # of connection points: 6
#     Node 27, Type 0, BuildingBlock: HISSIN_clean_sbu_0, # of connection points: 6
#     Node 28, Type 0, BuildingBlock: HISSIN_clean_sbu_0, # of connection points: 6
#     Node 29, Type 0, BuildingBlock: HISSIN_clean_sbu_0, # of connection points: 6
#     Node 30, Type 0, BuildingBlock: HISSIN_clean_sbu_0, # of connection points: 6
#     Node 31, Type 0, BuildingBlock: HISSIN_clean_sbu_0, # of connection points: 6
#     Node 32, Type 0, BuildingBlock: HISSIN_clean_sbu_0, # of connection points: 6
#     Node 33, Type 0, BuildingBlock: HISSIN_clean_sbu_0, # of connection points: 6
#     Node 34, Type 0, BuildingBlock: HISSIN_clean_sbu_0, # of connection points: 6
#     Node 35, Type 0, BuildingBlock: HISSIN_clean_sbu_0, # of connection points: 6
#     Edge 36, Type (0, 0), None
#     Edge 37, Type (0, 0), None
#     Edge 38, Type (0, 0), None
#     Edge 39, Type (0, 0), None
#     Edge 40, Type (0, 0), None
#     Edge 41, Type (0, 0), None
#     Edge 42, Type (0, 0), None
#     Edge 43, Type (0, 0), None
#     Edge 44, Type (0, 0), None
#     Edge 45, Type (0, 0), None
#     Edge 46, Type (0, 0), None
#     Edge 47, Type (0, 0), None
#     Edge 48, Type (0, 0), None
#     Edge 49, Type (0, 0), None
#     Edge 50, Type (0, 0), None
#     Edge 51, Type (0, 0), None
#     Edge 52, Type (0, 0), None
#     Edge 53, Type (0, 0), None
#     Edge 54, Type (0, 0), None
#     Edge 55, Type (0, 0), None
#     Edge 56, Type (0, 0), None
#     Edge 57, Type (0, 0), None
#     Edge 58, Type (0, 0), None
#     Edge 59, Type (0, 0), None
#     Edge 60, Type (0, 0), None
#     Edge 61, Type (0, 0), None
#     Edge 62, Type (0, 0), None
#     Edge 63, Type (0, 0), None
#     Edge 64, Type (0, 0), None
#     Edge 65, Type (0, 0), None
#     Edge 66, Type (0, 0), None
#     Edge 67, Type (0, 0), None
#     Edge 68, Type (0, 0), None
#     Edge 69, Type (0, 0), None
#     Edge 70, Type (0, 0), None
#     Edge 71, Type (0, 0), None
#     Edge 72, Type (0, 0), None
#     Edge 73, Type (0, 0), None
#     Edge 74, Type (0, 0), None
#     Edge 75, Type (0, 0), None
#     Edge 76, Type (0, 0), None
#     Edge 77, Type (0, 0), None
#     Edge 78, Type (0, 0), None
#     Edge 79, Type (0, 0), None
#     Edge 80, Type (0, 0), None
#     Edge 81, Type (0, 0), None
#     Edge 82, Type (0, 0), None
#     Edge 83, Type (0, 0), None
#     Edge 84, Type (0, 0), None
#     Edge 85, Type (0, 0), None
#     Edge 86, Type (0, 0), None
#     Edge 87, Type (0, 0), None
#     Edge 88, Type (0, 0), None
#     Edge 89, Type (0, 0), None
#     Edge 90, Type (0, 0), None
#     Edge 91, Type (0, 0), None
#     Edge 92, Type (0, 0), None
#     Edge 93, Type (0, 0), None
#     Edge 94, Type (0, 0), None
#     Edge 95, Type (0, 0), None
#     Edge 96, Type (0, 0), None
#     Edge 97, Type (0, 0), None
#     Edge 98, Type (0, 0), None
#     Edge 99, Type (0, 0), None
#     Edge 100, Type (0, 0), None
#     Edge 101, Type (0, 0), None
#     Edge 102, Type (0, 0), None
#     Edge 103, Type (0, 0), None
#     Edge 104, Type (0, 0), None
#     Edge 105, Type (0, 0), None
#     Edge 106, Type (0, 0), None
#     Edge 107, Type (0, 0), None
#     Edge 108, Type (0, 0), None
#     Edge 109, Type (0, 0), None
#     Edge 110, Type (0, 0), None
#     Edge 111, Type (0, 0), None
#     Edge 112, Type (0, 0), None
#     Edge 113, Type (0, 0), None
#     Edge 114, Type (0, 0), None
#     Edge 115, Type (0, 0), None
#     Edge 116, Type (0, 0), None
#     Edge 117, Type (0, 0), None
#     Edge 118, Type (0, 0), None
#     Edge 119, Type (0, 0), None
#     Edge 120, Type (0, 0), None
#     Edge 121, Type (0, 0), None
#     Edge 122, Type (0, 0), None
#     Edge 123, Type (0, 0), None
#     Edge 124, Type (0, 0), None
#     Edge 125, Type (0, 0), None
#     Edge 126, Type (0, 0), None
#     Edge 127, Type (0, 0), None
#     Edge 128, Type (0, 0), None
#     Edge 129, Type (0, 0), None
#     Edge 130, Type (0, 0), None
#     Edge 131, Type (0, 0), None
#     Edge 132, Type (0, 0), None
#     Edge 133, Type (0, 0), None
#     Edge 134, Type (0, 0), None
#     Edge 135, Type (0, 0), None
#     Edge 136, Type (0, 0), None
#     Edge 137, Type (0, 0), None
#     Edge 138, Type (0, 0), None
#     Edge 139, Type (0, 0), None
#     Edge 140, Type (0, 0), None
#     Edge 141, Type (0, 0), None
#     Edge 142, Type (0, 0), None
#     Edge 143, Type (0, 0), None
# Relax obj value: 0.124
# Max RMSD: 0.241
# Mean RMSD: 0.220
data_MOF--net-wna--node1-HISSIN_clean_sbu_0--edge1-none
_symmetry_space_group_name_H-M    P1
_symmetry_Int_Tables_number       1
_symmetry_cell_setting            triclinic
loop_
_symmetry_equiv_pos_as_xyz
'x, y, z'
_cell_length_a     18.973011
_cell_length_b     18.9755
_cell_length_c     107.16027
_cell_angle_alpha  89.999917
_cell_angle_beta   90.001532
_cell_angle_gamma 120.00548
loop_
_atom_site_label
_atom_site_type_symbol
_atom_site_fract_x
_atom_site_fract_y
_atom_site_fract_z
_atom_type_partial_charge
Eu0 Eu 0.15759 0.26263 0.16416 0.0
Eu1 Eu 0.1636 0.26708 0.19591 0.0
C2 C 0.09651 0.36568 0.17966 0.0
C3 C 0.19075 0.30817 0.1282 0.0
C4 C 0.16004 0.35576 0.12314 0.0
C5 C 0.27045 0.33054 0.10928 0.0
C6 C 0.18287 0.38876 0.11116 0.0
C7 C 0.24777 0.2977 0.12126 0.0
C8 C 0.23638 0.37438 0.10393 0.0
C9 C 0.15562 0.26004 0.13973 0.0
O10 O 0.03691 0.16281 0.19158 0.0
O11 O 0.03208 0.16644 0.16992 0.0
C12 C 0.99909 0.13562 0.18081 0.0
O13 O 0.152 0.14663 0.17033 0.0
O14 O 0.17788 0.33508 0.21325 0.0
O15 O 0.1653 0.21515 0.21395 0.0
O16 O 0.20046 0.17503 0.19054 0.0
C17 C 0.17885 0.12918 0.18051 0.0
O18 O 0.29006 0.33281 0.16879 0.0
O19 O 0.28944 0.36518 0.18953 0.0
O20 O 0.08747 0.32116 0.18958 0.0
O21 O 0.20221 0.24294 0.1465 0.0
O22 O 0.1068 0.27427 0.14649 0.0
O23 O 0.13995 0.3672 0.17002 0.0
C24 C 0.12704 0.2593 0.23228 0.0
C25 C 0.05976 0.18232 0.23489 0.0
C26 C 0.12159 0.30096 0.25361 0.0
C27 C 1.02424 0.16468 0.2468 0.0
C28 C 0.15689 0.31854 0.24172 0.0
C29 C 0.05532 0.22342 0.2564 0.0
C30 C 0.17253 0.27676 0.22037 0.0
C31 C 0.32756 0.3723 0.17892 0.0
H32 H 0.1154 0.36438 0.12816 0.0
H33 H 0.31234 0.31895 0.10403 0.0
H34 H 0.15465 0.42136 0.10728 0.0
H35 H 0.27212 0.26085 0.12486 0.0
H36 H 0.03547 0.13524 0.22782 0.0
H37 H 0.148 0.34763 0.26072 0.0
H38 H 0.97238 0.1048 0.24846 0.0
H39 H 0.20935 0.37799 0.23999 0.0
Eu40 Eu 0.78673 0.90489 0.16416 0.0
Eu41 Eu 0.7823 0.90646 0.19591 0.0
C42 C 0.68373 0.74076 0.17967 0.0
C43 C 0.74116 0.89246 0.1282 0.0
C44 C 0.69366 0.81416 0.12313 0.0
C45 C 0.71871 0.94977 0.10929 0.0
C46 C 0.66066 0.80399 0.11115 0.0
C47 C 0.75154 0.95994 0.12127 0.0
C48 C 0.67497 0.87188 0.10393 0.0
C49 C 0.7893 0.90549 0.13973 0.0
O50 O 0.88658 0.88407 0.19158 0.0
O51 O 0.88295 0.87561 0.16992 0.0
C52 C 0.91378 0.87346 0.18081 0.0
O53 O 0.90275 1.01533 0.17033 0.0
O54 O 0.7143 0.85274 0.21325 0.0
O55 O 0.83425 0.9601 0.21395 0.0
O56 O 0.87439 0.03537 0.19055 0.0
C57 C 0.92021 0.05963 0.18051 0.0
O58 O 0.71654 0.96715 0.1688 0.0
O59 O 0.68421 0.93421 0.18953 0.0
O60 O 0.72824 0.77625 0.18959 0.0
O61 O 0.8064 0.96917 0.1465 0.0
O62 O 0.77508 0.84245 0.14649 0.0
O63 O 0.68217 0.78266 0.17002 0.0
C64 C 0.7901 0.87768 0.23228 0.0
C65 C 0.86708 0.88738 0.23489 0.0
C66 C 0.74846 0.83058 0.25362 0.0
C67 C 0.88474 0.86952 0.2468 0.0
C68 C 0.73087 0.84831 0.24172 0.0
C69 C 0.82601 0.84186 0.2564 0.0
C70 C 0.77264 0.90571 0.22037 0.0
C71 C 0.67708 0.96519 0.17892 0.0
H72 H 0.6851 0.76091 0.12816 0.0
H73 H 0.73024 1.00324 0.10404 0.0
H74 H 0.62814 0.74317 0.10727 0.0
H75 H 0.78832 0.02113 0.12487 0.0
H76 H 0.91417 0.91018 0.22782 0.0
H77 H 0.70179 0.81032 0.26073 0.0
H78 H 0.94463 0.87753 0.24846 0.0
H79 H 0.67141 0.8413 0.24 0.0
Eu80 Eu 0.1445 0.89185 0.16416 0.0
Eu81 Eu 0.14296 0.88585 0.19591 0.0
C82 C 0.30865 0.95298 0.17966 0.0
C83 C 0.1569 0.8587 0.1282 0.0
C84 C 0.23521 0.88943 0.12314 0.0
C85 C 0.09957 0.77901 0.10927 0.0
C86 C 0.24539 0.86661 0.11116 0.0
C87 C 0.0894 0.80168 0.12126 0.0
C88 C 0.17749 0.81309 0.10393 0.0
C89 C 0.14388 0.89381 0.13973 0.0
O90 O 0.16535 1.01251 0.19158 0.0
O91 O 0.1738 1.01734 0.16992 0.0
C92 C 0.17599 0.05033 0.18081 0.0
O93 O 0.03406 0.89741 0.17033 0.0
O94 O 0.1967 0.87159 0.21325 0.0
O95 O 0.08931 0.88413 0.21395 0.0
O96 O 1.01402 0.84899 0.19055 0.0
C97 C 0.98976 0.87056 0.18051 0.0
O98 O 0.08225 0.75939 0.16879 0.0
O99 O 0.11523 0.76003 0.18953 0.0
O100 O 0.27317 0.962 0.18958 0.0
O101 O 0.08019 0.84721 0.1465 0.0
O102 O 0.20693 0.94264 0.14649 0.0
O103 O 0.26674 0.90953 0.17002 0.0
C104 C 0.17176 0.92242 0.23228 0.0
C105 C 0.16206 0.98969 0.23489 0.0
C106 C 0.21887 0.92788 0.25361 0.0
C107 C 0.17994 0.02522 0.2468 0.0
C108 C 0.20113 0.89257 0.24172 0.0
C109 C 0.2076 0.99414 0.2564 0.0
C110 C 0.14371 0.87692 0.22037 0.0
C111 C 0.08425 0.72191 0.17892 0.0
H112 H 0.28848 0.93407 0.12817 0.0
H113 H 0.04609 0.73712 0.10402 0.0
H114 H 0.30623 0.89484 0.10728 0.0
H115 H 1.02819 0.77732 0.12485 0.0
H116 H 0.13927 1.01398 0.22782 0.0
H117 H 0.23912 0.90147 0.26073 0.0
H118 H 0.17193 0.07708 0.24845 0.0
H119 H 0.20813 0.84012 0.23999 0.0
Eu120 Eu 0.27343 0.13625 0.36101 0.0
Eu121 Eu 0.27517 0.14325 0.32954 0.0
C122 C 0.37088 0.07107 0.34448 0.0
C123 C 0.29074 0.15972 0.39807 0.0
C124 C 0.36221 0.22903 0.40214 0.0
C125 C 0.24555 0.12916 0.41966 0.0
C126 C 0.37644 0.24646 0.41487 0.0
C127 C 0.23147 0.1115 0.40692 0.0
C128 C 0.31945 0.19525 0.4238 0.0
C129 C 0.28424 0.12818 0.38525 0.0
O130 O 0.16504 0.0222 0.33447 0.0
O131 O 0.1858 1.00736 0.3554 0.0
C132 C 0.1449 0.97997 0.34495 0.0
O133 O 0.16861 0.15635 0.35612 0.0
O134 O 0.3394 0.15304 0.31202 0.0
O135 O 0.22447 0.15114 0.31165 0.0
O136 O 0.18266 0.17877 0.33473 0.0
C137 C 0.14622 0.1734 0.34539 0.0
O138 O 0.32573 0.26826 0.35641 0.0
O139 O 0.37239 0.26779 0.33661 0.0
O140 O 0.32395 0.06105 0.33488 0.0
O141 O 0.2148 0.09542 0.37935 0.0
O142 O 0.34673 0.16534 0.37781 0.0
O143 O 0.37475 0.11604 0.35403 0.0
C144 C 0.25902 0.10409 0.29324 0.0
C145 C 0.19295 0.09643 0.28619 0.0
C146 C 0.28891 0.03619 0.27645 0.0
C147 C 0.17553 0.0598 0.27438 0.0
C148 C 0.3065 0.07301 0.28825 0.0
C149 C 0.22405 0.03023 0.26924 0.0
C150 C 0.28244 0.15194 0.30503 0.0
C151 C 0.36988 0.30665 0.34665 0.0
H152 H 0.40944 0.26713 0.39557 0.0
H153 H 0.2001 0.08899 0.4263 0.0
H154 H 0.43439 0.29737 0.41772 0.0
H155 H 0.17619 0.05724 0.40405 0.0
H156 H 0.15551 0.12039 0.28968 0.0
H157 H 0.32765 1.01433 0.27284 0.0
H158 H 0.124 0.05494 0.26929 0.0
H159 H 0.35843 0.07869 0.29333 0.0
Eu160 Eu 0.91325 0.1471 0.36102 0.0
Eu161 Eu 0.90624 0.14187 0.32954 0.0
C162 C 0.9784 0.30973 0.34448 0.0
C163 C 0.88977 0.14096 0.39807 0.0
C164 C 0.82047 0.14314 0.40213 0.0
C165 C 0.92029 0.12633 0.41967 0.0
C166 C 0.80303 0.13997 0.41486 0.0
C167 C 0.93796 0.1299 0.40693 0.0
C168 C 0.85421 0.13417 0.4238 0.0
C169 C 0.92134 0.16598 0.38525 0.0
O170 O 1.02731 0.15282 0.33448 0.0
O171 O 0.04215 0.18837 0.3554 0.0
C172 C 0.06955 0.17491 0.34495 0.0
O173 O 0.89312 0.02219 0.35612 0.0
O174 O 0.89648 0.19633 0.31203 0.0
O175 O 0.89831 0.08329 0.31165 0.0
O176 O 0.87074 1.01385 0.33473 0.0
C177 C 0.87609 0.98276 0.34539 0.0
O178 O 0.78121 0.0674 0.35642 0.0
O179 O 0.7817 0.11453 0.33661 0.0
O180 O 0.98844 0.27285 0.33489 0.0
O181 O 0.95402 0.12924 0.37936 0.0
O182 O 0.88424 0.19137 0.37781 0.0
O183 O 0.93344 0.26862 0.35403 0.0
C184 C 0.9454 0.1649 0.29324 0.0
C185 C 0.95306 0.10649 0.28619 0.0
C186 C 1.01328 0.26268 0.27645 0.0
C187 C 0.98968 0.1257 0.27439 0.0
C188 C 0.97647 0.24345 0.28825 0.0
C189 C 1.01925 0.20379 0.26924 0.0
C190 C 0.89754 0.14047 0.30504 0.0
C191 C 0.74283 0.07316 0.34666 0.0
H192 H 0.78239 0.15228 0.39556 0.0
H193 H 0.96043 0.12104 0.42631 0.0
H194 H 0.75213 0.14703 0.41771 0.0
H195 H 0.99221 0.12885 0.40406 0.0
H196 H 0.9291 0.0451 0.28968 0.0
H197 H 0.03513 0.32327 0.27284 0.0
H198 H 0.99454 0.07904 0.26929 0.0
H199 H 0.97077 0.28969 0.29333 0.0
Eu200 Eu 0.90236 0.7761 0.36101 0.0
Eu201 Eu 0.9076 0.77434 0.32954 0.0
C202 C 0.73971 0.67864 0.34448 0.0
C203 C 0.90849 0.75876 0.39807 0.0
C204 C 0.90632 0.68729 0.40213 0.0
C205 C 0.92312 0.8039 0.41967 0.0
C206 C 0.9095 0.67302 0.41486 0.0
C207 C 0.91955 0.81801 0.40693 0.0
C208 C 0.91529 0.72999 0.4238 0.0
C209 C 0.88348 0.76531 0.38525 0.0
O210 O 0.89668 0.88445 0.33447 0.0
O211 O 0.8611 0.86372 0.3554 0.0
C212 C 0.87457 0.90458 0.34495 0.0
O213 O 1.02729 0.88089 0.35612 0.0
O214 O 0.85313 0.7101 0.31202 0.0
O215 O 0.96619 0.825 0.31165 0.0
O216 O 0.03565 0.86686 0.33473 0.0
C217 C 0.06674 0.90327 0.34539 0.0
O218 O 0.98204 0.72375 0.35642 0.0
O219 O 0.9349 0.67712 0.33661 0.0
O220 O 0.77661 0.72556 0.33489 0.0
O221 O 0.92023 0.83473 0.37935 0.0
O222 O 0.85807 0.70282 0.37781 0.0
O223 O 0.78081 0.67478 0.35403 0.0
C224 C 0.88457 0.79047 0.29324 0.0
C225 C 0.94298 0.85652 0.28619 0.0
C226 C 0.78675 0.76056 0.27645 0.0
C227 C 0.92376 0.87394 0.27438 0.0
C228 C 0.80599 0.74298 0.28825 0.0
C229 C 0.84565 0.82542 0.26924 0.0
C230 C 0.909 0.76705 0.30503 0.0
C231 C 0.97626 0.67961 0.34666 0.0
H232 H 0.89719 0.64008 0.39556 0.0
H233 H 0.92841 0.84933 0.42631 0.0
H234 H 0.90245 0.61507 0.41771 0.0
H235 H 0.92059 0.87329 0.40406 0.0
H236 H 1.00439 0.89397 0.28968 0.0
H237 H 0.72614 0.72182 0.27285 0.0
H238 H 0.97043 0.92546 0.26929 0.0
H239 H 0.75974 0.69105 0.29333 0.0
Eu240 Eu 0.89576 0.77256 0.82879 0.0
Eu241 Eu 0.90177 0.77701 0.86053 0.0
C242 C 0.88051 0.91046 0.84419 0.0
C243 C 0.93232 0.78034 0.79241 0.0
C244 C 0.9996 0.85732 0.7898 0.0
C245 C 0.93777 0.73869 0.77108 0.0
C246 C 0.03512 0.87497 0.7779 0.0
C247 C 0.90246 0.72111 0.78298 0.0
C248 C 1.00404 0.81623 0.7683 0.0
C249 C 0.88683 0.76289 0.80433 0.0
O250 O 0.7693 0.70683 0.8559 0.0
O251 O 0.76992 0.67446 0.83517 0.0
C252 C 0.7318 0.66734 0.84577 0.0
O253 O 0.97189 0.71848 0.83512 0.0
O254 O 0.85715 0.7967 0.8782 0.0
O255 O 0.95255 0.76537 0.87821 0.0
O256 O 0.91941 0.67244 0.85468 0.0
C257 C 0.96285 0.67397 0.84503 0.0
O258 O 1.02245 0.87683 0.83312 0.0
O259 O 1.02728 0.8732 0.85478 0.0
O260 O 0.90736 0.89302 0.85437 0.0
O261 O 0.88148 0.70457 0.81144 0.0
O262 O 0.89406 0.82449 0.81075 0.0
O263 O 0.8589 0.86461 0.83415 0.0
C264 C 0.86861 0.73148 0.8965 0.0
C265 C 0.89931 0.68388 0.90156 0.0
C266 C 0.7889 0.70911 0.91542 0.0
C267 C 0.87648 0.65088 0.91354 0.0
C268 C 0.81158 0.74195 0.90344 0.0
C269 C 0.82297 0.66527 0.92076 0.0
C270 C 0.90373 0.7796 0.88497 0.0
C271 C 0.06026 0.90403 0.84389 0.0
H272 H 1.0239 0.9044 0.79688 0.0
H273 H 0.91135 0.69201 0.76397 0.0
H274 H 0.08699 0.93484 0.77624 0.0
H275 H 0.85 0.66166 0.7847 0.0
H276 H 0.94395 0.67525 0.89653 0.0
H277 H 0.74702 0.72071 0.92067 0.0
H278 H 0.90469 0.61827 0.91742 0.0
H279 H 0.78724 0.7788 0.89984 0.0
Eu280 Eu 0.27706 0.13318 0.82879 0.0
Eu281 Eu 0.27263 0.13475 0.86053 0.0
C282 C 0.13915 0.98001 0.84419 0.0
C283 C 0.26926 0.16196 0.79241 0.0
C284 C 0.19228 0.15227 0.7898 0.0
C285 C 0.3109 0.20905 0.77108 0.0
C286 C 0.17462 0.17013 0.7779 0.0
C287 C 0.32849 0.19133 0.78298 0.0
C288 C 0.23336 0.19778 0.7683 0.0
C289 C 0.28672 0.13393 0.80432 0.0
O290 O 0.34282 0.07249 0.8559 0.0
O291 O 0.37515 0.10543 0.83517 0.0
C292 C 0.38228 0.07445 0.84577 0.0
O293 O 0.33112 0.26339 0.83511 0.0
O294 O 0.25295 0.07047 0.8782 0.0
O295 O 0.28428 0.19719 0.8782 0.0
O296 O 0.37719 0.25699 0.85467 0.0
C297 C 0.37563 0.29888 0.84503 0.0
O298 O 0.17277 0.15557 0.83312 0.0
O299 O 0.17641 0.16403 0.85478 0.0
O300 O 0.15661 0.02431 0.85437 0.0
O301 O 0.34506 0.1869 0.81144 0.0
O302 O 0.22511 0.07954 0.81075 0.0
O303 O 0.18497 1.00427 0.83415 0.0
C304 C 0.3182 0.14718 0.89649 0.0
C305 C 0.3657 0.22548 0.90156 0.0
C306 C 0.34064 0.08987 0.91541 0.0
C307 C 0.39869 0.23565 0.91355 0.0
C308 C 0.30782 0.0797 0.90343 0.0
C309 C 0.38439 0.16776 0.92076 0.0
C310 C 0.27006 0.13416 0.88497 0.0
C311 C 0.14558 0.16618 0.84389 0.0
H312 H 0.1452 0.12948 0.79688 0.0
H313 H 0.35757 0.2293 0.76397 0.0
H314 H 0.11474 0.16212 0.77624 0.0
H315 H 0.38795 0.19832 0.7847 0.0
H316 H 0.37425 0.27873 0.89654 0.0
H317 H 0.32912 0.0364 0.92066 0.0
H318 H 0.43122 0.29647 0.91743 0.0
H319 H 0.27104 1.01851 0.89982 0.0
Eu320 Eu 0.9164 0.15379 0.82879 0.0
Eu321 Eu 0.91486 0.1478 0.86053 0.0
C322 C 0.0696 0.16908 0.84419 0.0
C323 C 0.8876 0.11722 0.79241 0.0
C324 C 0.8973 0.04995 0.7898 0.0
C325 C 0.8405 0.11176 0.77108 0.0
C326 C 0.87942 1.01442 0.7779 0.0
C327 C 0.85823 0.14707 0.78298 0.0
C328 C 0.85177 0.0455 0.7683 0.0
C329 C 0.91564 0.16272 0.80432 0.0
O330 O 0.97711 0.28025 0.8559 0.0
O331 O 0.94412 0.27961 0.83517 0.0
C332 C 0.97511 0.31774 0.84577 0.0
O333 O 0.78619 0.07764 0.83511 0.0
O334 O 0.97917 0.19243 0.8782 0.0
O335 O 0.85243 0.09701 0.87821 0.0
O336 O 0.79262 0.13011 0.85468 0.0
C337 C 0.75071 0.08666 0.84503 0.0
O338 O 0.89401 0.02713 0.83312 0.0
O339 O 0.88556 0.02231 0.85478 0.0
O340 O 1.0253 0.14224 0.85437 0.0
O341 O 0.86266 0.16805 0.81144 0.0
O342 O 0.97005 0.15552 0.81075 0.0
O343 O 0.04534 0.19065 0.83415 0.0
C344 C 0.90246 0.18094 0.8965 0.0
C345 C 0.82415 0.15021 0.90156 0.0
C346 C 0.95978 0.26063 0.91542 0.0
C347 C 0.81396 0.17303 0.91354 0.0
C348 C 0.96995 0.23797 0.90344 0.0
C349 C 0.88186 0.22654 0.92076 0.0
C350 C 0.91548 0.14583 0.88497 0.0
C351 C 0.88336 0.98932 0.84389 0.0
H352 H 0.92009 0.02566 0.79688 0.0
H353 H 0.82025 0.13817 0.76397 0.0
H354 H 0.88743 0.96256 0.77624 0.0
H355 H 0.85124 0.19953 0.7847 0.0
H356 H 0.77088 0.10557 0.89653 0.0
H357 H 1.01326 0.30252 0.92067 0.0
H358 H 0.75312 0.14479 0.91742 0.0
H359 H 0.03116 0.26233 0.89984 0.0
Eu360 Eu 0.78419 0.89639 0.69516 0.0
Eu361 Eu 0.78594 0.9034 0.66368 0.0
C362 C 0.91315 0.86625 0.67931 0.0
C363 C 0.80035 0.93555 0.73146 0.0
C364 C 0.86641 0.94321 0.73851 0.0
C365 C 0.77046 1.00345 0.74825 0.0
C366 C 0.88384 0.97984 0.75031 0.0
C367 C 0.75287 0.96664 0.73644 0.0
C368 C 0.83532 1.00941 0.75546 0.0
C369 C 0.77693 0.8877 0.71966 0.0
O370 O 0.73363 0.77138 0.66828 0.0
O371 O 0.68698 0.77185 0.68809 0.0
C372 C 0.68949 0.73299 0.67804 0.0
O373 O 0.73541 0.97859 0.68981 0.0
O374 O 0.84457 0.94421 0.64534 0.0
O375 O 0.71264 0.8743 0.64689 0.0
O376 O 0.68462 0.9236 0.67067 0.0
C377 C 0.68849 0.96857 0.68022 0.0
O378 O 0.89433 1.01744 0.69022 0.0
O379 O 0.87357 0.03228 0.6693 0.0
O380 O 0.89076 0.88329 0.66858 0.0
O381 O 0.71996 0.8866 0.71267 0.0
O382 O 0.83489 0.8885 0.71304 0.0
O383 O 0.8767 0.86087 0.68996 0.0
C384 C 0.76862 0.87991 0.62663 0.0
C385 C 0.69716 0.8106 0.62256 0.0
C386 C 0.81382 0.91047 0.60504 0.0
C387 C 0.68292 0.79317 0.60983 0.0
C388 C 0.8279 0.92813 0.61778 0.0
C389 C 0.73992 0.84438 0.60089 0.0
C390 C 0.77513 0.91146 0.63945 0.0
C391 C 0.91447 0.05967 0.67975 0.0
H392 H 0.90385 0.91924 0.73502 0.0
H393 H 0.73172 0.02531 0.75185 0.0
H394 H 0.93536 0.98469 0.75541 0.0
H395 H 0.70094 0.96095 0.73136 0.0
H396 H 0.64993 0.77251 0.62913 0.0
H397 H 0.85927 0.95063 0.5984 0.0
H398 H 0.62497 0.74226 0.60698 0.0
H399 H 0.88318 0.98238 0.62064 0.0
Eu400 Eu 0.15312 0.89777 0.69516 0.0
Eu401 Eu 0.14611 0.89254 0.66368 0.0
C402 C 0.18327 0.05688 0.67931 0.0
C403 C 0.11397 0.87475 0.73145 0.0
C404 C 0.10632 0.93315 0.73851 0.0
C405 C 0.04608 0.77696 0.74825 0.0
C406 C 0.06969 0.91395 0.75031 0.0
C407 C 0.08289 0.79619 0.73644 0.0
C408 C 0.04012 0.83586 0.75546 0.0
C409 C 0.16183 0.89917 0.71966 0.0
O410 O 0.27815 0.97224 0.66828 0.0
O411 O 0.27767 0.92511 0.68809 0.0
C412 C 0.31654 0.96648 0.67804 0.0
O413 O 0.07093 0.76679 0.68981 0.0
O414 O 0.10535 0.9104 0.64534 0.0
O415 O 0.17513 0.84827 0.64688 0.0
O416 O 0.12593 0.77102 0.67066 0.0
C417 C 0.08097 0.72991 0.68021 0.0
O418 O 0.03206 0.88682 0.69022 0.0
O419 O 1.01722 0.85127 0.6693 0.0
O420 O 0.16625 1.01745 0.66858 0.0
O421 O 0.16289 0.84331 0.71267 0.0
O422 O 0.16106 0.95636 0.71304 0.0
O423 O 0.18862 0.02579 0.68996 0.0
C424 C 0.1696 0.89868 0.62663 0.0
C425 C 0.2389 0.8965 0.62256 0.0
C426 C 0.13907 0.9133 0.60503 0.0
C427 C 0.25634 0.89967 0.60983 0.0
C428 C 0.1214 0.90973 0.61777 0.0
C429 C 0.20515 0.90546 0.60089 0.0
C430 C 0.13803 0.87366 0.63944 0.0
C431 C 0.98982 0.86473 0.67975 0.0
H432 H 0.13028 0.99455 0.73502 0.0
H433 H 1.02422 0.71637 0.75185 0.0
H434 H 0.06484 0.96061 0.75541 0.0
H435 H 0.08858 0.74994 0.73137 0.0
H436 H 0.27698 0.88737 0.62913 0.0
H437 H 0.09893 0.91859 0.59839 0.0
H438 H 0.30724 0.89261 0.60699 0.0
H439 H 0.06715 0.91078 0.62063 0.0
Eu440 Eu 0.15177 0.26531 0.69516 0.0
Eu441 Eu 0.15701 0.26354 0.66368 0.0
C442 C 0.99263 0.13637 0.67931 0.0
C443 C 0.1748 0.24918 0.73146 0.0
C444 C 0.11639 0.18312 0.73851 0.0
C445 C 0.27262 0.27908 0.74824 0.0
C446 C 0.1356 0.1657 0.75031 0.0
C447 C 0.25337 0.29665 0.73644 0.0
C448 C 0.21371 0.21422 0.75546 0.0
C449 C 0.15036 0.2726 0.71966 0.0
O450 O 0.07733 0.31589 0.66828 0.0
O451 O 0.12446 0.36252 0.68809 0.0
C452 C 0.08311 0.36004 0.67804 0.0
O453 O 0.28276 0.31408 0.68981 0.0
O454 O 0.13913 0.20491 0.64534 0.0
O455 O 0.2013 0.33682 0.64688 0.0
O456 O 0.27855 0.36486 0.67067 0.0
C457 C 0.31966 0.361 0.68022 0.0
O458 O 0.16269 0.15519 0.69022 0.0
O459 O 0.19826 0.17592 0.6693 0.0
O460 O 0.03207 0.15875 0.66858 0.0
O461 O 0.20624 0.32954 0.71267 0.0
O462 O 0.09318 0.21464 0.71304 0.0
O463 O 1.02372 0.17279 0.68997 0.0
C464 C 0.15087 0.28088 0.62663 0.0
C465 C 0.15305 0.35235 0.62256 0.0
C466 C 0.13624 0.23574 0.60503 0.0
C467 C 0.14987 0.36662 0.60984 0.0
C468 C 0.13981 0.22163 0.61777 0.0
C469 C 0.14407 0.30965 0.6009 0.0
C470 C 0.17589 0.27433 0.63944 0.0
C471 C 0.18479 0.13506 0.67975 0.0
H472 H 0.05497 0.14568 0.73502 0.0
H473 H 0.33322 0.31781 0.75185 0.0
H474 H 0.08893 0.11419 0.75541 0.0
H475 H 0.29963 0.34859 0.73136 0.0
H476 H 0.16218 0.39956 0.62914 0.0
H477 H 0.13095 0.19031 0.59839 0.0
H478 H 0.15693 0.42458 0.60699 0.0
H479 H 0.13877 0.16635 0.62063 0.0
Eu480 Eu 0.82436 0.59598 0.49749 0.0
Eu481 Eu 0.83036 0.60043 0.52924 0.0
C482 C 0.76325 0.699 0.51299 0.0
C483 C 0.85758 0.64152 0.46153 0.0
C484 C 0.82691 0.68916 0.45647 0.0
C485 C 0.93727 0.66387 0.44261 0.0
C486 C 0.84976 0.72217 0.44449 0.0
C487 C 0.91458 0.63102 0.45459 0.0
C488 C 0.90323 0.70774 0.43726 0.0
C489 C 0.82243 0.59339 0.47306 0.0
O490 O 0.70366 0.49618 0.52491 0.0
O491 O 0.69884 0.49979 0.50324 0.0
C492 C 0.66585 0.46898 0.51413 0.0
O493 O 0.81874 0.47996 0.50366 0.0
O494 O 0.84469 0.66843 0.54658 0.0
O495 O 0.83202 0.54847 0.54727 0.0
O496 O 0.8672 0.50836 0.52387 0.0
C497 C 0.84558 0.4625 0.51384 0.0
O498 O 0.95683 0.66617 0.50212 0.0
O499 O 0.9562 0.69853 0.52286 0.0
O500 O 0.75423 0.65451 0.52291 0.0
O501 O 0.869 0.57629 0.47983 0.0
O502 O 0.7736 0.60761 0.47982 0.0
O503 O 0.80668 0.70052 0.50334 0.0
C504 C 0.79382 0.59268 0.56561 0.0
C505 C 0.72635 0.5158 0.56821 0.0
C506 C 0.78854 0.63424 0.58695 0.0
C507 C 0.69082 0.49815 0.58011 0.0
C508 C 0.82386 0.65182 0.57506 0.0
C509 C 0.72207 0.55678 0.58972 0.0
C510 C 0.83931 0.6101 0.5537 0.0
C511 C 0.99433 0.70566 0.51225 0.0
H512 H 0.78229 0.69782 0.4615 0.0
H513 H 0.97914 0.65225 0.43735 0.0
H514 H 0.82156 0.7548 0.44061 0.0
H515 H 0.93889 0.59414 0.45818 0.0
H516 H 0.70192 0.46879 0.56112 0.0
H517 H 0.81508 0.68082 0.59407 0.0
H518 H 0.6388 0.43835 0.58176 0.0
H519 H 0.87646 0.71119 0.57334 0.0
Eu520 Eu 0.45344 0.2383 0.49749 0.0
Eu521 Eu 0.44902 0.23986 0.52924 0.0
C522 C 0.35047 0.07415 0.51299 0.0
C523 C 0.40788 0.22596 0.46153 0.0
C524 C 0.36025 0.14767 0.45647 0.0
C525 C 0.38553 0.28333 0.44261 0.0
C526 C 0.32725 0.13751 0.44449 0.0
C527 C 0.41837 0.29347 0.4546 0.0
C528 C 0.34167 0.20542 0.43727 0.0
C529 C 0.45601 0.23894 0.47306 0.0
O530 O 0.55327 0.21742 0.52491 0.0
O531 O 0.54965 0.209 0.50324 0.0
C532 C 0.58046 0.20681 0.51413 0.0
O533 O 0.56948 0.34871 0.50366 0.0
O534 O 0.38101 0.18617 0.54658 0.0
O535 O 0.501 0.29348 0.54728 0.0
O536 O 0.54111 0.36877 0.52387 0.0
C537 C 0.58695 0.39301 0.51384 0.0
O538 O 0.38325 0.30055 0.50213 0.0
O539 O 0.35092 0.26759 0.52286 0.0
O540 O 0.39496 0.10965 0.52291 0.0
O541 O 0.47315 0.30263 0.47983 0.0
O542 O 0.44177 0.17589 0.47982 0.0
O543 O 0.34891 0.11604 0.50335 0.0
C544 C 0.4568 0.21107 0.56561 0.0
C545 C 0.53368 0.22049 0.56821 0.0
C546 C 0.41526 0.16423 0.58696 0.0
C547 C 0.55135 0.20261 0.58011 0.0
C548 C 0.39767 0.18197 0.57506 0.0
C549 C 0.49272 0.17523 0.58972 0.0
C550 C 0.43936 0.23913 0.5537 0.0
C551 C 0.34378 0.29858 0.51226 0.0
H552 H 0.3516 0.09439 0.4615 0.0
H553 H 0.39714 0.33681 0.43736 0.0
H554 H 0.29463 0.07669 0.44061 0.0
H555 H 0.45524 0.35466 0.45819 0.0
H556 H 0.58069 0.24307 0.56112 0.0
H557 H 0.36868 0.14418 0.59408 0.0
H558 H 0.61116 0.21041 0.58175 0.0
H559 H 0.33828 0.17518 0.57335 0.0
Eu560 Eu 0.81116 0.22513 0.49749 0.0
Eu561 Eu 0.80961 0.21915 0.52924 0.0
C562 C 0.97531 0.28629 0.51299 0.0
C563 C 0.82347 0.1919 0.46153 0.0
C564 C 0.90178 0.22255 0.45647 0.0
C565 C 0.7661 0.11221 0.44261 0.0
C566 C 0.91194 0.1997 0.44449 0.0
C567 C 0.75596 0.13491 0.45459 0.0
C568 C 0.84402 0.14623 0.43727 0.0
C569 C 0.8105 0.22705 0.47306 0.0
O570 O 0.83205 0.34582 0.52491 0.0
O571 O 0.84049 0.35064 0.50324 0.0
C572 C 0.8427 0.38364 0.51413 0.0
O573 O 0.70074 0.23074 0.50366 0.0
O574 O 0.86331 0.20484 0.54658 0.0
O575 O 0.75598 0.21748 0.54728 0.0
O576 O 0.68068 0.18229 0.52387 0.0
C577 C 0.65643 0.20389 0.51384 0.0
O578 O 0.74891 0.09268 0.50213 0.0
O579 O 0.7819 0.09333 0.52286 0.0
O580 O 0.93982 0.2953 0.52291 0.0
O581 O 0.74681 0.1805 0.47983 0.0
O582 O 0.87356 0.27587 0.47982 0.0
O583 O 0.93341 0.24285 0.50335 0.0
C584 C 0.83842 0.2557 0.56561 0.0
C585 C 0.82902 0.32317 0.56821 0.0
C586 C 0.88527 0.261 0.58695 0.0
C587 C 0.84692 0.35872 0.58011 0.0
C588 C 0.86752 0.22567 0.57506 0.0
C589 C 0.8743 0.32747 0.58972 0.0
C590 C 0.81035 0.21021 0.5537 0.0
C591 C 0.75092 0.0552 0.51225 0.0
H592 H 0.95507 0.26716 0.4615 0.0
H593 H 0.71261 0.07035 0.43735 0.0
H594 H 0.97278 0.22788 0.44062 0.0
H595 H 0.69475 0.1106 0.45819 0.0
H596 H 0.80645 0.34759 0.56112 0.0
H597 H 0.90531 0.23446 0.59408 0.0
H598 H 0.83914 0.41073 0.58175 0.0
H599 H 0.87428 0.17307 0.57335 0.0
Eu600 Eu 0.94016 0.46961 0.69433 0.0
Eu601 Eu 0.94191 0.47661 0.66286 0.0
C602 C 0.03761 0.40443 0.6778 0.0
C603 C 0.95749 0.49303 0.73139 0.0
C604 C 1.02895 0.56234 0.73546 0.0
C605 C 0.91232 0.46241 0.75299 0.0
C606 C 0.04319 0.57974 0.74819 0.0
C607 C 0.89823 0.44477 0.74025 0.0
C608 C 0.98621 0.5285 0.75713 0.0
C609 C 0.95098 0.46152 0.71857 0.0
O610 O 0.83178 0.35556 0.6678 0.0
O611 O 0.85253 0.34072 0.68872 0.0
C612 C 0.81163 0.31333 0.67827 0.0
O613 O 0.83535 0.48972 0.68944 0.0
O614 O 1.00613 0.48638 0.64534 0.0
O615 O 0.89123 0.48453 0.64497 0.0
O616 O 0.84939 0.51211 0.66805 0.0
C617 C 0.81295 0.50675 0.67871 0.0
O618 O 0.99247 0.60163 0.68974 0.0
O619 O 0.03912 0.60115 0.66993 0.0
O620 O 0.99068 0.39441 0.66821 0.0
O621 O 0.88154 0.42878 0.71267 0.0
O622 O 1.01347 0.49869 0.71113 0.0
O623 O 0.04149 0.4494 0.68735 0.0
C624 C 0.92575 0.43746 0.62656 0.0
C625 C 0.85985 0.43005 0.61949 0.0
C626 C 0.95546 0.3693 0.60979 0.0
C627 C 0.84241 0.39341 0.60769 0.0
C628 C 0.97305 0.40613 0.62159 0.0
C629 C 0.89076 0.36358 0.60256 0.0
C630 C 0.94919 0.48531 0.63836 0.0
C631 C 0.03662 0.64001 0.67997 0.0
H632 H 0.07617 0.60047 0.72889 0.0
H633 H 0.86688 0.42222 0.75963 0.0
H634 H 0.10114 0.63065 0.75104 0.0
H635 H 0.84296 0.39051 0.73738 0.0
H636 H 0.82255 0.45421 0.62297 0.0
H637 H 0.99406 0.34724 0.6062 0.0
H638 H 0.79101 0.38874 0.60258 0.0
H639 H 1.02486 0.41162 0.62668 0.0
Eu640 Eu 0.57999 0.48047 0.69434 0.0
Eu641 Eu 0.57298 0.47524 0.66286 0.0
C642 C 0.64513 0.6431 0.6778 0.0
C643 C 0.55657 0.47441 0.73139 0.0
C644 C 0.48726 0.47657 0.73546 0.0
C645 C 0.58715 0.45989 0.75299 0.0
C646 C 0.46984 0.47344 0.74819 0.0
C647 C 0.6048 0.46342 0.74025 0.0
C648 C 0.52106 0.4677 0.75713 0.0
C649 C 0.5881 0.49937 0.71858 0.0
O650 O 0.69404 0.48618 0.6678 0.0
O651 O 0.70889 0.52173 0.68872 0.0
C652 C 0.73628 0.50827 0.67827 0.0
O653 O 0.55985 0.35555 0.68944 0.0
O654 O 0.56323 0.52971 0.64535 0.0
O655 O 0.56501 0.41664 0.64498 0.0
O656 O 0.53749 0.34722 0.66805 0.0
C657 C 0.54283 0.31613 0.67871 0.0
O658 O 0.44795 0.40077 0.68974 0.0
O659 O 0.44843 0.44789 0.66993 0.0
O660 O 0.65518 0.60621 0.66821 0.0
O661 O 0.62076 0.46261 0.71268 0.0
O662 O 0.55099 0.52475 0.71114 0.0
O663 O 0.60017 0.60199 0.68735 0.0
C664 C 0.61211 0.49824 0.62656 0.0
C665 C 0.61952 0.43976 0.61949 0.0
C666 C 0.68024 0.59611 0.60979 0.0
C667 C 0.65616 0.45897 0.60769 0.0
C668 C 0.64342 0.57687 0.62159 0.0
C669 C 0.68597 0.53714 0.60256 0.0
C670 C 0.56426 0.47383 0.63836 0.0
C671 C 0.40956 0.40653 0.67998 0.0
H672 H 0.44914 0.48565 0.72889 0.0
H673 H 0.62733 0.45465 0.75964 0.0
H674 H 0.41892 0.48047 0.75104 0.0
H675 H 0.65906 0.46239 0.73739 0.0
H676 H 0.59538 0.37831 0.62297 0.0
H677 H 0.70229 0.65676 0.6062 0.0
H678 H 0.66083 0.41224 0.60258 0.0
H679 H 0.63793 0.62318 0.62668 0.0
Eu680 Eu 0.56909 0.10946 0.69434 0.0
Eu681 Eu 0.57433 0.10769 0.66286 0.0
C682 C 0.40644 1.012 0.6778 0.0
C683 C 0.57515 0.0921 0.73139 0.0
C684 C 0.57297 0.02062 0.73546 0.0
C685 C 0.58969 0.1372 0.75299 0.0
C686 C 0.5761 1.00633 0.74819 0.0
C687 C 0.58617 0.15133 0.74025 0.0
C688 C 0.58186 0.06329 0.75713 0.0
C689 C 0.55019 0.09867 0.71857 0.0
O690 O 0.56341 0.21781 0.6678 0.0
O691 O 0.52784 0.19709 0.68872 0.0
C692 C 0.54131 0.23795 0.67827 0.0
O693 O 0.69403 0.21425 0.68944 0.0
O694 O 0.51985 0.04347 0.64535 0.0
O695 O 0.63292 0.15835 0.64497 0.0
O696 O 0.70237 0.20023 0.66805 0.0
C697 C 0.73347 0.23664 0.67871 0.0
O698 O 0.64876 0.05711 0.68974 0.0
O699 O 0.60164 1.01048 0.66993 0.0
O700 O 0.44334 0.05893 0.66821 0.0
O701 O 0.58698 0.16809 0.71268 0.0
O702 O 0.52478 0.03618 0.71113 0.0
O703 O 0.44755 1.00814 0.68735 0.0
C704 C 0.55131 0.12382 0.62656 0.0
C705 C 0.60979 0.18972 0.61949 0.0
C706 C 0.45341 0.09408 0.60979 0.0
C707 C 0.59057 0.20714 0.60769 0.0
C708 C 0.47266 0.0765 0.62159 0.0
C709 C 0.51238 0.15878 0.60256 0.0
C710 C 0.57573 0.10039 0.63836 0.0
C711 C 0.64299 1.01296 0.67998 0.0
H712 H 0.56387 0.97343 0.72889 0.0
H713 H 0.59495 0.18261 0.75964 0.0
H714 H 0.56904 0.94838 0.75104 0.0
H715 H 0.58721 0.20661 0.73739 0.0
H716 H 0.67126 0.22703 0.62297 0.0
H717 H 0.39274 0.05547 0.6062 0.0
H718 H 0.6373 0.25854 0.60258 0.0
H719 H 0.42634 0.02469 0.62669 0.0
Eu720 Eu 0.56235 0.10586 0.16213 0.0
Eu721 Eu 0.56836 0.11032 0.19388 0.0
C722 C 0.5471 0.24377 0.17753 0.0
C723 C 0.59892 0.11365 0.12575 0.0
C724 C 0.66621 0.19062 0.12314 0.0
C725 C 0.60434 0.07201 0.10442 0.0
C726 C 0.70173 0.20827 0.11124 0.0
C727 C 0.56904 0.05443 0.11632 0.0
C728 C 0.67063 0.14954 0.10164 0.0
C729 C 0.55342 0.0962 0.13766 0.0
O730 O 0.43589 0.04012 0.18924 0.0
O731 O 0.4365 1.00777 0.16851 0.0
C732 C 0.39839 1.00063 0.17911 0.0
O733 O 0.63847 0.05178 0.16846 0.0
O734 O 0.52373 0.13001 0.21154 0.0
O735 O 0.61914 0.09869 0.21155 0.0
O736 O 0.58601 1.00576 0.18802 0.0
C737 C 0.62943 1.00726 0.17838 0.0
O738 O 0.68904 0.21014 0.16646 0.0
O739 O 0.69387 0.20651 0.18812 0.0
O740 O 0.57394 0.22632 0.18771 0.0
O741 O 0.54807 0.03787 0.14478 0.0
O742 O 0.56066 0.1578 0.14409 0.0
O743 O 0.52549 0.19792 0.16749 0.0
C744 C 0.5352 0.0648 0.22984 0.0
C745 C 0.56588 1.01719 0.2349 0.0
C746 C 0.45552 0.04247 0.24876 0.0
C747 C 0.54305 0.98419 0.24688 0.0
C748 C 0.4782 0.0753 0.23678 0.0
C749 C 0.48957 0.9986 0.25411 0.0
C750 C 0.57032 0.11292 0.21831 0.0
C751 C 0.72685 0.23733 0.17723 0.0
H752 H 0.69052 0.2377 0.13022 0.0
H753 H 0.57792 0.02534 0.09731 0.0
H754 H 0.7536 0.26814 0.10958 0.0
H755 H 0.51657 0.99498 0.11804 0.0
H756 H 0.61051 1.00853 0.22987 0.0
H757 H 0.41366 0.05408 0.25402 0.0
H758 H 0.57126 0.95157 0.25076 0.0
H759 H 0.45387 0.11216 0.23318 0.0
Eu760 Eu 0.94364 0.46649 0.16213 0.0
Eu761 Eu 0.93921 0.46805 0.19387 0.0
C762 C 0.80574 0.31332 0.17753 0.0
C763 C 0.93586 0.49527 0.12575 0.0
C764 C 0.85888 0.48559 0.12314 0.0
C765 C 0.97751 0.54235 0.10442 0.0
C766 C 0.84123 0.50346 0.11124 0.0
C767 C 0.99509 0.52463 0.11632 0.0
C768 C 0.89997 0.5311 0.10164 0.0
C769 C 0.95331 0.46723 0.13766 0.0
O770 O 1.00941 0.4058 0.18924 0.0
O771 O 0.04173 0.43873 0.16851 0.0
C772 C 0.04888 0.40777 0.17911 0.0
O773 O 0.99771 0.59669 0.16845 0.0
O774 O 0.91951 0.40375 0.21154 0.0
O775 O 0.95088 0.53048 0.21155 0.0
O776 O 0.04376 0.59029 0.18802 0.0
C777 C 0.04222 0.63218 0.17837 0.0
O778 O 0.83936 0.48887 0.16646 0.0
O779 O 0.843 0.49734 0.18812 0.0
O780 O 0.82319 0.35762 0.18771 0.0
O781 O 1.01165 0.52019 0.14478 0.0
O782 O 0.89168 0.41285 0.14409 0.0
O783 O 0.85157 0.33757 0.16749 0.0
C784 C 0.98475 0.48043 0.22984 0.0
C785 C 0.03234 0.55872 0.2349 0.0
C786 C 1.00709 0.42307 0.24876 0.0
C787 C 0.06533 0.56888 0.24688 0.0
C788 C 0.97427 0.41293 0.23677 0.0
C789 C 0.05093 0.50098 0.25411 0.0
C790 C 0.93663 0.46743 0.21831 0.0
C791 C 0.81217 0.49949 0.17723 0.0
H792 H 0.8118 0.46281 0.13022 0.0
H793 H 1.02418 0.5626 0.09731 0.0
H794 H 0.78136 0.49546 0.10958 0.0
H795 H 0.05454 0.53161 0.11804 0.0
H796 H 0.04098 0.61199 0.22988 0.0
H797 H 0.99549 0.36959 0.25401 0.0
H798 H 0.09793 0.6297 0.25076 0.0
H799 H 0.93742 0.35173 0.23317 0.0
Eu800 Eu 0.583 0.4871 0.16213 0.0
Eu801 Eu 0.58144 0.4811 0.19388 0.0
C802 C 0.73619 0.50239 0.17753 0.0
C803 C 0.5542 0.45053 0.12575 0.0
C804 C 0.56391 0.38327 0.12314 0.0
C805 C 0.5071 0.44507 0.10442 0.0
C806 C 0.54604 0.34774 0.11124 0.0
C807 C 0.52483 0.48038 0.11632 0.0
C808 C 0.51838 0.37881 0.10164 0.0
C809 C 0.58224 0.49603 0.13766 0.0
O810 O 0.64369 0.61355 0.18924 0.0
O811 O 0.61072 0.61292 0.16851 0.0
C812 C 0.64168 0.65104 0.17912 0.0
O813 O 0.45278 0.41095 0.16845 0.0
O814 O 0.64576 0.52572 0.21154 0.0
O815 O 0.51902 0.43032 0.21155 0.0
O816 O 0.4592 0.46341 0.18802 0.0
C817 C 0.4173 0.41998 0.17837 0.0
O818 O 0.5606 0.36044 0.16646 0.0
O819 O 0.55213 0.3556 0.18812 0.0
O820 O 0.69189 0.47554 0.18771 0.0
O821 O 0.52926 0.50135 0.14478 0.0
O822 O 0.63664 0.48883 0.14409 0.0
O823 O 0.71193 0.52396 0.16749 0.0
C824 C 0.56907 0.51425 0.22984 0.0
C825 C 0.49076 0.48355 0.2349 0.0
C826 C 0.62641 0.59394 0.24876 0.0
C827 C 0.48058 0.50638 0.24688 0.0
C828 C 0.63657 0.57126 0.23678 0.0
C829 C 0.54849 0.55988 0.2541 0.0
C830 C 0.58207 0.47913 0.21831 0.0
C831 C 0.54995 0.32262 0.17723 0.0
H832 H 0.5867 0.35898 0.13022 0.0
H833 H 0.48684 0.47148 0.09731 0.0
H834 H 0.55405 0.29589 0.10958 0.0
H835 H 0.51782 0.53283 0.11804 0.0
H836 H 0.43748 0.43892 0.22987 0.0
H837 H 0.6799 0.63582 0.25401 0.0
H838 H 0.41975 0.47816 0.25076 0.0
H839 H 0.69778 0.5956 0.23318 0.0
Eu840 Eu 0.45082 0.22973 0.0285 0.0
Eu841 Eu 0.45256 0.23674 0.99702 0.0
C842 C 0.57976 0.19956 0.01264 0.0
C843 C 0.46698 0.26889 0.0648 0.0
C844 C 0.53305 0.27655 0.07185 0.0
C845 C 0.43706 0.33676 0.08158 0.0
C846 C 0.55046 0.31317 0.08365 0.0
C847 C 0.41949 0.29995 0.06978 0.0
C848 C 0.50193 0.34273 0.0888 0.0
C849 C 0.44357 0.22103 0.053 0.0
O850 O 0.40027 0.10472 1.00162 0.0
O851 O 0.35361 0.10519 0.02143 0.0
C852 C 0.35613 0.06633 1.01138 0.0
O853 O 0.40204 0.31193 0.02315 0.0
O854 O 0.51119 0.27762 0.97868 0.0
O855 O 0.37926 0.20761 0.98022 0.0
O856 O 0.35123 0.25693 1.00401 0.0
C857 C 0.35511 0.3019 0.01356 0.0
O858 O 0.56097 0.35077 0.02356 0.0
O859 O 0.54019 0.36562 1.00264 0.0
O860 O 0.55738 0.21663 1.00192 0.0
O861 O 0.38659 0.21991 0.04601 0.0
O862 O 0.50154 0.22186 0.04638 0.0
O863 O 0.54331 0.19418 0.0233 0.0
C864 C 0.43528 0.21337 0.95996 0.0
C865 C 0.36387 0.14401 0.95589 0.0
C866 C 0.48045 0.24408 0.93837 0.0
C867 C 0.34964 0.12663 0.94316 0.0
C868 C 0.49452 0.26169 0.95111 0.0
C869 C 0.4066 0.17793 0.93423 0.0
C870 C 0.44175 0.24484 0.97278 0.0
C871 C 0.5811 0.393 0.01308 0.0
H872 H 0.5705 0.2526 0.06836 0.0
H873 H 0.39832 0.35861 0.08519 0.0
H874 H 0.60199 0.31804 0.08875 0.0
H875 H 0.36755 0.29426 0.0647 0.0
H876 H 0.31667 0.10584 0.96246 0.0
H877 H 0.52587 0.28431 0.93173 0.0
H878 H 0.29173 0.07568 0.94031 0.0
H879 H 0.54975 0.31598 0.95398 0.0
Eu880 Eu 0.81972 0.23107 0.0285 0.0
Eu881 Eu 0.81272 0.22583 0.99702 0.0
C882 C 0.84989 0.39018 0.01264 0.0
C883 C 0.78056 0.20806 0.06479 0.0
C884 C 0.77292 0.26647 0.07185 0.0
C885 C 0.71266 0.11027 0.08158 0.0
C886 C 0.7363 0.24727 0.08365 0.0
C887 C 0.74947 0.1295 0.06978 0.0
C888 C 0.70671 0.16917 0.0888 0.0
C889 C 0.82842 0.23249 0.053 0.0
O890 O 0.94476 0.30554 1.00162 0.0
O891 O 0.94428 0.25842 0.02143 0.0
C892 C 0.98315 0.29979 1.01138 0.0
O893 O 0.73753 0.10009 0.02315 0.0
O894 O 0.77194 0.24367 0.97868 0.0
O895 O 0.84176 0.18157 0.98022 0.0
O896 O 0.79254 0.10432 1.004 0.0
C897 C 0.74758 0.06321 0.01355 0.0
O898 O 0.69866 0.22013 0.02356 0.0
O899 O 0.68383 0.18458 1.00263 0.0
O900 O 0.83287 0.35076 1.00192 0.0
O901 O 0.82949 0.17663 0.04601 0.0
O902 O 0.82764 0.28966 0.04638 0.0
O903 O 0.85523 0.3591 0.0233 0.0
C904 C 0.83615 0.23189 0.95996 0.0
C905 C 0.90548 0.22975 0.9559 0.0
C906 C 0.80555 0.24638 0.93836 0.0
C907 C 0.92289 0.23288 0.94317 0.0
C908 C 0.7879 0.24286 0.9511 0.0
C909 C 0.87166 0.23859 0.93423 0.0
C910 C 0.80463 0.20693 0.97278 0.0
C911 C 0.65643 0.19804 0.01308 0.0
H912 H 0.7969 0.32787 0.06836 0.0
H913 H 0.69079 0.04968 0.08519 0.0
H914 H 0.73146 0.29393 0.08875 0.0
H915 H 0.75515 0.08325 0.0647 0.0
H916 H 0.9436 0.22069 0.96247 0.0
H917 H 0.76537 0.25161 0.93172 0.0
H918 H 0.97382 0.22587 0.94032 0.0
H919 H 0.73364 0.24386 0.95397 0.0
Eu920 Eu 0.81841 0.59863 0.0285 0.0
Eu921 Eu 0.82365 0.59686 0.99702 0.0
C922 C 0.65927 0.4697 0.01264 0.0
C923 C 0.84144 0.58249 0.06479 0.0
C924 C 0.78302 0.51645 0.07185 0.0
C925 C 0.93925 0.61239 0.08158 0.0
C926 C 0.80223 0.49903 0.08365 0.0
C927 C 0.92002 0.62996 0.06978 0.0
C928 C 0.88034 0.54754 0.08879 0.0
C929 C 0.81701 0.60592 0.053 0.0
O930 O 0.74397 0.64921 1.00162 0.0
O931 O 0.7911 0.69584 0.02142 0.0
C932 C 0.74975 0.69335 1.01138 0.0
O933 O 0.9494 0.6474 0.02315 0.0
O934 O 0.80578 0.53823 0.97868 0.0
O935 O 0.86794 0.67015 0.98022 0.0
O936 O 0.9452 0.69818 1.004 0.0
C937 C 0.9863 0.69432 0.01355 0.0
O938 O 0.82933 0.48851 0.02356 0.0
O939 O 0.86489 0.50922 1.00263 0.0
O940 O 0.69871 0.49208 1.00192 0.0
O941 O 0.87289 0.66285 0.04601 0.0
O942 O 0.75982 0.54797 0.04638 0.0
O943 O 0.69037 0.5061 0.0233 0.0
C944 C 0.8176 0.61422 0.95996 0.0
C945 C 0.81976 0.68569 0.9559 0.0
C946 C 0.80308 0.56912 0.93836 0.0
C947 C 0.81664 0.69997 0.94317 0.0
C948 C 0.8066 0.55499 0.9511 0.0
C949 C 0.8109 0.64302 0.93423 0.0
C950 C 0.84255 0.60766 0.97278 0.0
C951 C 0.85142 0.46837 0.01308 0.0
H952 H 0.72161 0.47901 0.06836 0.0
H953 H 0.99986 0.65112 0.08519 0.0
H954 H 0.75555 0.44752 0.08875 0.0
H955 H 0.96628 0.68189 0.0647 0.0
H956 H 0.82885 0.73288 0.96247 0.0
H957 H 0.79784 0.5237 0.93172 0.0
H958 H 0.82368 0.75792 0.94032 0.0
H959 H 0.80557 0.49972 0.95397 0.0
Eu960 Eu 0.491 0.92932 0.83082 0.0
Eu961 Eu 0.49701 0.93378 0.86257 0.0
C962 C 0.42993 0.03238 0.84632 0.0
C963 C 0.52416 0.97484 0.79486 0.0
C964 C 0.49347 0.02245 0.7898 0.0
C965 C 0.60384 0.99718 0.77593 0.0
C966 C 0.51631 0.05545 0.77781 0.0
C967 C 0.58117 0.96435 0.78792 0.0
C968 C 0.56979 0.04104 0.77059 0.0
C969 C 0.48904 0.92673 0.80639 0.0
O970 O 0.37032 0.82951 0.85824 0.0
O971 O 0.36549 0.83313 0.83658 0.0
C972 C 0.33251 0.80231 0.84747 0.0
O973 O 0.48542 0.81332 0.83699 0.0
O974 O 0.51129 1.00177 0.87991 0.0
O975 O 0.4987 0.88183 0.88061 0.0
O976 O 0.53387 0.84173 0.8572 0.0
C977 C 0.51226 0.79587 0.84717 0.0
O978 O 0.62347 0.99952 0.83545 0.0
O979 O 0.62286 0.03187 0.85619 0.0
O980 O 0.42089 0.98786 0.85624 0.0
O981 O 0.53562 0.90963 0.81316 0.0
O982 O 0.44022 0.94096 0.81315 0.0
O983 O 0.47335 0.03389 0.83668 0.0
C984 C 0.46044 0.92599 0.89894 0.0
C985 C 0.39315 0.84902 0.90155 0.0
C986 C 0.45502 0.96763 0.92028 0.0
C987 C 0.35763 0.83137 0.91346 0.0
C988 C 0.49032 0.98521 0.90838 0.0
C989 C 0.38873 0.8901 0.92306 0.0
C990 C 0.50593 0.94344 0.88703 0.0
C991 C 0.66097 0.03901 0.84558 0.0
H992 H 0.44885 0.03111 0.79483 0.0
H993 H 0.64571 0.98557 0.77068 0.0
H994 H 0.4881 0.08807 0.77394 0.0
H995 H 0.6055 0.92748 0.79151 0.0
H996 H 0.36884 0.80194 0.89448 0.0
H997 H 0.48145 1.0143 0.92739 0.0
H998 H 0.30575 0.7715 0.91512 0.0
H999 H 0.54279 0.04466 0.90666 0.0
Eu1000 Eu 0.12015 0.57159 0.83082 0.0
Eu1001 Eu 0.11572 0.57316 0.86257 0.0
C1002 C 1.01714 0.40746 0.84632 0.0
C1003 C 0.07461 0.55922 0.79486 0.0
C1004 C 1.02702 0.48092 0.78979 0.0
C1005 C 0.05227 0.61657 0.77594 0.0
C1006 C 0.99403 0.47076 0.77781 0.0
C1007 C 0.08509 0.62672 0.78792 0.0
C1008 C 1.00844 0.53867 0.77059 0.0
C1009 C 0.12273 0.57221 0.80639 0.0
O1010 O 0.22 0.55077 0.85824 0.0
O1011 O 0.21636 0.5423 0.83658 0.0
C1012 C 0.24719 0.54015 0.84747 0.0
O1013 O 0.23617 0.68203 0.83699 0.0
O1014 O 0.04771 0.51945 0.87991 0.0
O1015 O 0.16768 0.62679 0.88061 0.0
O1016 O 0.20779 0.70207 0.85721 0.0
C1017 C 0.25362 0.72633 0.84717 0.0
O1018 O 0.04995 0.63384 0.83545 0.0
O1019 O 1.01763 0.60092 0.85619 0.0
O1020 O 0.06165 0.44295 0.85624 0.0
O1021 O 0.13985 0.6359 0.81316 0.0
O1022 O 0.10848 0.50916 0.81315 0.0
O1023 O 1.0156 0.44935 0.83668 0.0
C1024 C 0.1235 0.54437 0.89894 0.0
C1025 C 0.20047 0.55405 0.90155 0.0
C1026 C 0.08184 0.49729 0.92028 0.0
C1027 C 0.21812 0.53618 0.91346 0.0
C1028 C 0.06427 0.51502 0.90838 0.0
C1029 C 0.15938 0.50855 0.92306 0.0
C1030 C 0.10605 0.57241 0.88703 0.0
C1031 C 1.01048 0.63187 0.84558 0.0
H1032 H 1.01839 0.42765 0.79482 0.0
H1033 H 0.06387 0.67006 0.77069 0.0
H1034 H 0.96143 0.40995 0.77393 0.0
H1035 H 0.12194 0.68791 0.79152 0.0
H1036 H 0.24756 0.57683 0.89448 0.0
H1037 H 0.03518 0.47705 0.92739 0.0
H1038 H 0.27799 0.54418 0.91512 0.0
H1039 H 1.00482 0.50804 0.90666 0.0
Eu1040 Eu 0.47791 0.55854 0.83082 0.0
Eu1041 Eu 0.47636 0.55254 0.86257 0.0
C1042 C 0.64206 0.61966 0.84632 0.0
C1043 C 0.49029 0.52539 0.79486 0.0
C1044 C 0.5686 0.55609 0.7898 0.0
C1045 C 0.43294 0.4457 0.77593 0.0
C1046 C 0.57877 0.53327 0.77782 0.0
C1047 C 0.42279 0.46838 0.78792 0.0
C1048 C 0.51087 0.47977 0.77059 0.0
C1049 C 0.47729 0.56051 0.80639 0.0
O1050 O 0.49876 0.6792 0.85824 0.0
O1051 O 0.50722 0.68404 0.83658 0.0
C1052 C 0.50941 0.71702 0.84747 0.0
O1053 O 0.36747 0.5641 0.83699 0.0
O1054 O 0.5301 0.53829 0.87991 0.0
O1055 O 0.42271 0.55081 0.88061 0.0
O1056 O 0.34743 0.51568 0.8572 0.0
C1057 C 0.32317 0.53726 0.84717 0.0
O1058 O 0.41567 0.42609 0.83545 0.0
O1059 O 0.44864 0.42672 0.85619 0.0
O1060 O 0.60658 0.6287 0.85624 0.0
O1061 O 0.4136 0.51392 0.81316 0.0
O1062 O 0.54034 0.60932 0.81315 0.0
O1063 O 0.60016 0.57623 0.83668 0.0
C1064 C 0.50516 0.58911 0.89894 0.0
C1065 C 0.49545 0.65638 0.90155 0.0
C1066 C 0.55226 0.59457 0.92027 0.0
C1067 C 0.51332 0.6919 0.91346 0.0
C1068 C 0.53453 0.55926 0.90838 0.0
C1069 C 0.54098 0.66083 0.92306 0.0
C1070 C 0.47712 0.54361 0.88703 0.0
C1071 C 0.41768 0.3886 0.84558 0.0
H1072 H 0.62188 0.60072 0.79483 0.0
H1073 H 0.37946 0.40382 0.77068 0.0
H1074 H 0.63961 0.56148 0.77394 0.0
H1075 H 0.36158 0.44403 0.79151 0.0
H1076 H 0.47265 0.68066 0.89448 0.0
H1077 H 0.57252 0.56816 0.92739 0.0
H1078 H 0.5053 0.74375 0.91511 0.0
H1079 H 0.54154 0.50682 0.90665 0.0
Eu1080 Eu 0.60679 0.8029 0.02767 0.0
Eu1081 Eu 0.60853 0.80991 0.9962 0.0
C1082 C 0.70424 0.73775 1.01114 0.0
C1083 C 0.62407 0.82627 0.06473 0.0
C1084 C 0.69548 0.89563 0.06881 0.0
C1085 C 0.5789 0.79557 0.08633 0.0
C1086 C 0.70971 0.91301 0.08154 0.0
C1087 C 0.56484 0.77795 0.07359 0.0
C1088 C 0.65275 0.86171 0.09047 0.0
C1089 C 0.6176 0.79481 0.05191 0.0
O1090 O 0.49838 0.68887 1.00114 0.0
O1091 O 0.51916 0.67402 0.02206 0.0
C1092 C 0.47825 0.64664 1.01161 0.0
O1093 O 0.50197 0.82301 0.02278 0.0
O1094 O 0.67276 0.81973 0.97868 0.0
O1095 O 0.5578 0.81778 0.97832 0.0
O1096 O 0.51604 0.84547 1.0014 0.0
C1097 C 0.47959 0.84008 1.01205 0.0
O1098 O 0.65909 0.93492 0.02308 0.0
O1099 O 0.70574 0.93446 1.00327 0.0
O1100 O 0.65731 0.72772 1.00155 0.0
O1101 O 0.54816 0.76202 0.04601 0.0
O1102 O 0.68009 0.83203 0.04447 0.0
O1103 O 0.70812 0.78271 0.02069 0.0
C1104 C 0.59237 0.77076 0.9599 0.0
C1105 C 0.5263 0.76309 0.95285 0.0
C1106 C 0.62229 0.70288 0.94311 0.0
C1107 C 0.50889 0.72647 0.94104 0.0
C1108 C 0.63986 0.73969 0.95491 0.0
C1109 C 0.55742 0.69691 0.9359 0.0
C1110 C 0.61578 0.81861 0.9717 0.0
C1111 C 0.70323 0.97331 0.01332 0.0
H1112 H 0.74268 0.9338 0.06224 0.0
H1113 H 0.53349 0.75533 0.09296 0.0
H1114 H 0.76762 0.96396 0.08439 0.0
H1115 H 0.5096 0.72366 0.07071 0.0
H1116 H 0.48885 0.78704 0.95634 0.0
H1117 H 0.66104 0.68103 0.93951 0.0
H1118 H 0.45736 0.7216 0.93595 0.0
H1119 H 0.6918 0.74539 0.95999 0.0
Eu1120 Eu 0.24663 0.81381 0.02768 0.0
Eu1121 Eu 0.23963 0.80857 0.9962 0.0
C1122 C 0.31177 0.97643 1.01114 0.0
C1123 C 0.2232 0.80775 0.06473 0.0
C1124 C 0.15388 0.80989 0.0688 0.0
C1125 C 0.2538 0.79325 0.08633 0.0
C1126 C 0.13646 0.80676 0.08153 0.0
C1127 C 0.27145 0.79678 0.07359 0.0
C1128 C 0.18769 0.80104 0.09047 0.0
C1129 C 0.25472 0.83271 0.05192 0.0
O1130 O 0.36069 0.81951 1.00114 0.0
O1131 O 0.37552 0.85506 0.02206 0.0
C1132 C 0.40292 0.8416 1.01161 0.0
O1133 O 0.22648 0.68889 0.02278 0.0
O1134 O 0.22986 0.86302 0.97869 0.0
O1135 O 0.23171 0.74998 0.97832 0.0
O1136 O 0.20412 0.68054 1.0014 0.0
C1137 C 0.20946 0.64946 1.01205 0.0
O1138 O 0.11459 0.7341 0.02308 0.0
O1139 O 0.11507 0.78122 1.00327 0.0
O1140 O 0.32182 0.93955 1.00155 0.0
O1141 O 0.28741 0.79597 0.04602 0.0
O1142 O 0.21759 0.85807 0.04447 0.0
O1143 O 0.26682 0.93533 0.02069 0.0
C1144 C 0.27879 0.83158 0.9599 0.0
C1145 C 0.28643 0.77317 0.95285 0.0
C1146 C 0.3467 0.92937 0.94311 0.0
C1147 C 0.32305 0.79237 0.94104 0.0
C1148 C 0.30989 0.91014 0.95491 0.0
C1149 C 0.35265 0.87047 0.9359 0.0
C1150 C 0.23093 0.80715 0.9717 0.0
C1151 C 0.07621 0.73986 0.01332 0.0
H1152 H 0.11575 0.81896 0.06223 0.0
H1153 H 0.29398 0.78802 0.09298 0.0
H1154 H 0.08554 0.81378 0.08438 0.0
H1155 H 0.32571 0.79577 0.07073 0.0
H1156 H 0.26245 0.71177 0.95634 0.0
H1157 H 0.36857 0.98997 0.93951 0.0
H1158 H 0.32789 0.7457 0.93595 0.0
H1159 H 0.30422 0.95639 0.95999 0.0
Eu1160 Eu 0.2357 0.44278 0.02768 0.0
Eu1161 Eu 0.24094 0.44101 0.9962 0.0
C1162 C 0.07305 0.34532 1.01114 0.0
C1163 C 0.24175 0.42542 0.06474 0.0
C1164 C 0.23959 0.35396 0.0688 0.0
C1165 C 0.25626 0.47052 0.08633 0.0
C1166 C 0.24271 0.33967 0.08153 0.0
C1167 C 0.25274 0.48465 0.07359 0.0
C1168 C 0.24845 0.39663 0.09047 0.0
C1169 C 0.2168 0.43198 0.05192 0.0
O1170 O 0.23003 0.55114 1.00114 0.0
O1171 O 0.19446 0.53042 0.02206 0.0
C1172 C 0.20793 0.57128 1.01161 0.0
O1173 O 0.36064 0.54756 0.02278 0.0
O1174 O 0.18646 0.37679 0.97869 0.0
O1175 O 0.29953 0.49168 0.97832 0.0
O1176 O 0.36898 0.53354 1.00139 0.0
C1177 C 0.40008 0.56994 1.01205 0.0
O1178 O 0.31537 0.39043 0.02308 0.0
O1179 O 0.26825 0.3438 1.00327 0.0
O1180 O 0.10995 0.39225 1.00155 0.0
O1181 O 0.25357 0.50141 0.04602 0.0
O1182 O 0.19141 0.36949 0.04448 0.0
O1183 O 0.11415 0.34146 0.02069 0.0
C1184 C 0.21791 0.45715 0.9599 0.0
C1185 C 0.27634 0.5232 0.95285 0.0
C1186 C 0.1201 0.42726 0.94311 0.0
C1187 C 0.25713 0.54061 0.94105 0.0
C1188 C 0.13934 0.40968 0.95492 0.0
C1189 C 0.17902 0.4921 0.9359 0.0
C1190 C 0.24234 0.43372 0.9717 0.0
C1191 C 0.3096 0.34628 0.01332 0.0
H1192 H 0.23051 0.30677 0.06223 0.0
H1193 H 0.2615 0.51594 0.09298 0.0
H1194 H 0.23568 0.28173 0.08438 0.0
H1195 H 0.25377 0.53992 0.07073 0.0
H1196 H 0.33775 0.56063 0.95634 0.0
H1197 H 0.0595 0.38853 0.93951 0.0
H1198 H 0.30381 0.59212 0.93595 0.0
H1199 H 0.09307 0.35776 0.96 0.0
Eu1200 Eu 0.22901 0.43921 0.49546 0.0
Eu1201 Eu 0.23501 0.44366 0.52721 0.0
C1202 C 0.21379 0.57713 0.51086 0.0
C1203 C 0.26555 0.44697 0.45909 0.0
C1204 C 0.33301 0.52384 0.45649 0.0
C1205 C 0.27084 0.4054 0.43774 0.0
C1206 C 0.36855 0.5415 0.44459 0.0
C1207 C 0.23552 0.38782 0.44964 0.0
C1208 C 0.3373 0.48286 0.43498 0.0
C1209 C 0.22007 0.42954 0.471 0.0
O1210 O 0.10254 0.37346 0.52257 0.0
O1211 O 0.10317 0.34111 0.50184 0.0
C1212 C 0.06505 0.33396 0.51244 0.0
O1213 O 0.30513 0.38513 0.50179 0.0
O1214 O 0.19036 0.46335 0.54487 0.0
O1215 O 0.28577 0.43203 0.54488 0.0
O1216 O 0.2527 0.33912 0.52135 0.0
C1217 C 0.29611 0.34063 0.51171 0.0
O1218 O 0.35571 0.54346 0.49979 0.0
O1219 O 0.36053 0.53985 0.52145 0.0
O1220 O 0.24063 0.55968 0.52104 0.0
O1221 O 0.21468 0.37121 0.47812 0.0
O1222 O 0.22735 0.49117 0.47742 0.0
O1223 O 0.19217 0.53128 0.50083 0.0
C1224 C 0.20179 0.39812 0.56317 0.0
C1225 C 0.23245 0.35048 0.56823 0.0
C1226 C 0.1221 0.37578 0.58209 0.0
C1227 C 0.20961 0.31747 0.58021 0.0
C1228 C 0.14479 0.40862 0.57011 0.0
C1229 C 0.15613 0.3319 0.58743 0.0
C1230 C 0.23694 0.44625 0.55164 0.0
C1231 C 0.39352 0.57065 0.51056 0.0
H1232 H 0.35744 0.57086 0.46358 0.0
H1233 H 0.2443 0.35882 0.43062 0.0
H1234 H 0.42056 0.6013 0.44294 0.0
H1235 H 0.18292 0.32845 0.45135 0.0
H1236 H 0.27707 0.34182 0.5632 0.0
H1237 H 0.08023 0.3874 0.58734 0.0
H1238 H 0.2378 0.28483 0.58408 0.0
H1239 H 0.12048 0.44551 0.56651 0.0
Eu1240 Eu 0.61035 0.79978 0.49546 0.0
Eu1241 Eu 0.60593 0.80134 0.5272 0.0
C1242 C 0.47242 0.64662 0.51086 0.0
C1243 C 0.60257 0.82857 0.45908 0.0
C1244 C 0.52568 0.81915 0.45649 0.0
C1245 C 0.64411 0.87542 0.43774 0.0
C1246 C 0.50802 0.83703 0.44459 0.0
C1247 C 0.6617 0.85768 0.44963 0.0
C1248 C 0.56665 0.86442 0.43498 0.0
C1249 C 0.62 0.80051 0.47099 0.0
O1250 O 0.67613 0.7391 0.52257 0.0
O1251 O 0.70844 0.77203 0.50183 0.0
C1252 C 0.71561 0.74108 0.51244 0.0
O1253 O 0.66441 0.92998 0.50178 0.0
O1254 O 0.58622 0.73701 0.54486 0.0
O1255 O 0.6176 0.86374 0.54488 0.0
O1256 O 0.71045 0.9236 0.52135 0.0
C1257 C 0.70891 0.96548 0.5117 0.0
O1258 O 0.5061 0.82221 0.49979 0.0
O1259 O 0.50972 0.83064 0.52145 0.0
O1260 O 0.48989 0.69093 0.52104 0.0
O1261 O 0.67835 0.85347 0.47811 0.0
O1262 O 0.55837 0.74616 0.47742 0.0
O1263 O 0.51826 0.67087 0.50082 0.0
C1264 C 0.65149 0.81366 0.56317 0.0
C1265 C 0.69912 0.89196 0.56823 0.0
C1266 C 0.67383 0.7563 0.58209 0.0
C1267 C 0.73212 0.90211 0.58021 0.0
C1268 C 0.64099 0.74616 0.5701 0.0
C1269 C 0.71769 0.8342 0.58743 0.0
C1270 C 0.60335 0.80069 0.55164 0.0
C1271 C 0.47891 0.83282 0.51056 0.0
H1272 H 0.47867 0.79656 0.46358 0.0
H1273 H 0.69069 0.89546 0.43062 0.0
H1274 H 0.44821 0.82923 0.44294 0.0
H1275 H 0.72108 0.86446 0.45135 0.0
H1276 H 0.70777 0.94524 0.5632 0.0
H1277 H 0.66221 0.70281 0.58734 0.0
H1278 H 0.76475 0.96294 0.58409 0.0
H1279 H 0.60411 0.68497 0.56651 0.0
Eu1280 Eu 0.24976 0.82049 0.49546 0.0
Eu1281 Eu 0.24821 0.8145 0.52721 0.0
C1282 C 0.40294 0.83575 0.51086 0.0
C1283 C 0.22096 0.78394 0.45909 0.0
C1284 C 0.23035 0.71647 0.45649 0.0
C1285 C 0.1741 0.77863 0.43774 0.0
C1286 C 0.21246 0.68092 0.44459 0.0
C1287 C 0.19185 0.81397 0.44964 0.0
C1288 C 0.18507 0.71217 0.43498 0.0
C1289 C 0.24902 0.82943 0.471 0.0
O1290 O 0.31045 0.94695 0.52257 0.0
O1291 O 0.27747 0.94631 0.50184 0.0
C1292 C 0.30843 0.98443 0.51244 0.0
O1293 O 0.11955 0.74434 0.50178 0.0
O1294 O 0.31256 0.85914 0.54487 0.0
O1295 O 0.18581 0.76376 0.54488 0.0
O1296 O 0.12595 0.79678 0.52135 0.0
C1297 C 0.08406 0.75335 0.5117 0.0
O1298 O 0.22732 0.69382 0.49979 0.0
O1299 O 0.21889 0.689 0.52145 0.0
O1300 O 0.35863 0.8089 0.52104 0.0
O1301 O 0.19607 0.8348 0.47812 0.0
O1302 O 0.30339 0.82216 0.47742 0.0
O1303 O 0.37869 0.85735 0.50082 0.0
C1304 C 0.23589 0.84773 0.56317 0.0
C1305 C 0.15759 0.81708 0.56823 0.0
C1306 C 0.29326 0.92743 0.58209 0.0
C1307 C 0.14742 0.83993 0.58021 0.0
C1308 C 0.30341 0.90473 0.57011 0.0
C1309 C 0.21534 0.8934 0.58743 0.0
C1310 C 0.24887 0.81258 0.55164 0.0
C1311 C 0.21667 0.656 0.51056 0.0
H1312 H 0.25293 0.69205 0.46358 0.0
H1313 H 0.15406 0.80518 0.43062 0.0
H1314 H 0.22023 0.62891 0.44294 0.0
H1315 H 0.18509 0.86657 0.45135 0.0
H1316 H 0.1043 0.77247 0.5632 0.0
H1317 H 0.34676 0.96929 0.58734 0.0
H1318 H 0.08659 0.81175 0.58408 0.0
H1319 H 0.36461 0.92904 0.56651 0.0
Eu1320 Eu 0.11746 0.56303 0.36184 0.0
Eu1321 Eu 0.1192 0.57004 0.33036 0.0
C1322 C 0.24642 0.53289 0.34599 0.0
C1323 C 0.13362 0.60218 0.39814 0.0
C1324 C 0.19952 0.60959 0.40521 0.0
C1325 C 0.10391 0.67034 0.41491 0.0
C1326 C 0.21696 0.64624 0.41701 0.0
C1327 C 0.08631 0.63351 0.40311 0.0
C1328 C 0.16861 0.67606 0.42213 0.0
C1329 C 0.11018 0.55433 0.38634 0.0
O1330 O 0.06689 0.43801 0.33496 0.0
O1331 O 1.02024 0.43849 0.35477 0.0
C1332 C 1.02275 0.39963 0.34472 0.0
O1333 O 0.06868 0.64523 0.35649 0.0
O1334 O 0.17783 0.61086 0.31202 0.0
O1335 O 0.0459 0.54095 0.31356 0.0
O1336 O 1.01788 0.59024 0.33735 0.0
C1337 C 1.02175 0.63521 0.3469 0.0
O1338 O 0.22759 0.68408 0.3569 0.0
O1339 O 0.20684 0.69892 0.33598 0.0
O1340 O 0.22401 0.54992 0.33526 0.0
O1341 O 0.05323 0.55327 0.37935 0.0
O1342 O 0.16813 0.55511 0.37972 0.0
O1343 O 0.20998 0.52753 0.35664 0.0
C1344 C 0.10188 0.54661 0.29331 0.0
C1345 C 0.03042 0.4773 0.28923 0.0
C1346 C 0.14705 0.57724 0.27171 0.0
C1347 C 1.01617 0.45991 0.2765 0.0
C1348 C 0.16113 0.59487 0.28445 0.0
C1349 C 0.07315 0.51115 0.26757 0.0
C1350 C 0.10839 0.57812 0.30612 0.0
C1351 C 0.24773 0.72631 0.34642 0.0
H1352 H 0.23682 0.58544 0.40173 0.0
H1353 H 0.06531 0.6924 0.4185 0.0
H1354 H 0.26836 0.6509 0.42212 0.0
H1355 H 0.0345 0.62802 0.39801 0.0
H1356 H 0.9832 0.43918 0.2958 0.0
H1357 H 0.19248 0.61742 0.26507 0.0
H1358 H 0.95822 0.40899 0.27365 0.0
H1359 H 0.21641 0.64913 0.28732 0.0
Eu1360 Eu 0.48639 0.56441 0.36184 0.0
Eu1361 Eu 0.47938 0.55917 0.33036 0.0
C1362 C 0.51653 0.72351 0.34599 0.0
C1363 C 0.44726 0.5414 0.39813 0.0
C1364 C 0.43984 0.59988 0.4052 0.0
C1365 C 0.37914 0.44354 0.41491 0.0
C1366 C 0.4032 0.58067 0.41701 0.0
C1367 C 0.41596 0.46277 0.40311 0.0
C1368 C 0.3734 0.5025 0.42213 0.0
C1369 C 0.49511 0.56581 0.38634 0.0
O1370 O 0.61142 0.63888 0.33496 0.0
O1371 O 0.61094 0.59175 0.35476 0.0
C1372 C 0.6498 0.63311 0.34472 0.0
O1373 O 0.40419 0.43343 0.35649 0.0
O1374 O 0.4386 0.57703 0.31202 0.0
O1375 O 0.50838 0.51489 0.31356 0.0
O1376 O 0.4592 0.43765 0.33734 0.0
C1377 C 0.41424 0.39655 0.34689 0.0
O1378 O 0.36533 0.55347 0.3569 0.0
O1379 O 0.35048 0.51791 0.33597 0.0
O1380 O 0.49952 0.68409 0.33526 0.0
O1381 O 0.49614 0.50993 0.37935 0.0
O1382 O 0.49436 0.623 0.37972 0.0
O1383 O 0.52188 0.69243 0.35664 0.0
C1384 C 0.5028 0.56523 0.2933 0.0
C1385 C 0.57211 0.56307 0.28924 0.0
C1386 C 0.47221 0.57975 0.2717 0.0
C1387 C 0.58952 0.5662 0.27651 0.0
C1388 C 0.45456 0.57623 0.28444 0.0
C1389 C 0.5383 0.57193 0.26757 0.0
C1390 C 0.47127 0.54027 0.30612 0.0
C1391 C 0.32309 0.53137 0.34642 0.0
H1392 H 0.46398 0.66133 0.40172 0.0
H1393 H 0.3571 0.38289 0.4185 0.0
H1394 H 0.39852 0.62739 0.42211 0.0
H1395 H 0.42146 0.41646 0.39801 0.0
H1396 H 0.61022 0.55399 0.29581 0.0
H1397 H 0.43203 0.58499 0.26506 0.0
H1398 H 0.64043 0.55916 0.27366 0.0
H1399 H 0.4003 0.57725 0.28731 0.0
Eu1400 Eu 0.48504 0.93195 0.36184 0.0
Eu1401 Eu 0.49028 0.93018 0.33036 0.0
C1402 C 0.3259 0.803 0.34599 0.0
C1403 C 0.50806 0.91582 0.39813 0.0
C1404 C 0.44958 0.84992 0.40521 0.0
C1405 C 0.60596 0.94556 0.41491 0.0
C1406 C 0.4688 0.8325 0.41701 0.0
C1407 C 0.58671 0.96314 0.4031 0.0
C1408 C 0.54699 0.88086 0.42213 0.0
C1409 C 0.48364 0.93925 0.38634 0.0
O1410 O 0.4106 0.98253 0.33496 0.0
O1411 O 0.45773 0.02916 0.35477 0.0
C1412 C 0.41638 0.02668 0.34472 0.0
O1413 O 0.61603 0.98071 0.35649 0.0
O1414 O 0.47239 0.87155 0.31202 0.0
O1415 O 0.53458 1.00347 0.31356 0.0
O1416 O 0.61182 0.0315 0.33735 0.0
C1417 C 0.65292 0.02764 0.3469 0.0
O1418 O 0.49596 0.82183 0.3569 0.0
O1419 O 0.53153 0.84255 0.33597 0.0
O1420 O 0.36534 0.82539 0.33526 0.0
O1421 O 0.53952 0.99617 0.37935 0.0
O1422 O 0.42644 0.88129 0.37972 0.0
O1423 O 0.35699 0.83941 0.35664 0.0
C1424 C 0.48422 0.94755 0.2933 0.0
C1425 C 0.4864 1.01902 0.28924 0.0
C1426 C 0.46968 0.90244 0.2717 0.0
C1427 C 0.48327 0.03331 0.27651 0.0
C1428 C 0.4732 0.88831 0.28444 0.0
C1429 C 0.47751 0.97635 0.26757 0.0
C1430 C 0.50918 0.94098 0.30612 0.0
C1431 C 0.51806 0.80169 0.34642 0.0
H1432 H 0.38811 0.8126 0.40173 0.0
H1433 H 0.66663 0.98418 0.4185 0.0
H1434 H 0.42207 0.78109 0.42212 0.0
H1435 H 0.63303 1.01495 0.39801 0.0
H1436 H 0.4955 0.06622 0.29581 0.0
H1437 H 0.46441 0.85702 0.26506 0.0
H1438 H 0.49033 0.09126 0.27366 0.0
H1439 H 0.47215 0.83303 0.28731 0.0
loop_
_geom_bond_atom_site_label_1
_geom_bond_atom_site_label_2
_geom_bond_distance
_geom_bond_site_symmetry_2
_ccdc_geom_bond_type
Eu0 C9 2.828 . S
Eu0 O11 2.392 . S
Eu0 O13 2.418 . S
Eu0 O18 2.373 . S
Eu0 O21 2.488 . S
Eu0 O22 2.471 . S
Eu0 O23 2.349 . S
Eu1 O10 2.373 . S
Eu1 O14 2.488 . S
Eu1 O15 2.471 . S
Eu1 O16 2.349 . S
Eu1 O19 2.392 . S
Eu1 O20 2.418 . S
Eu1 C30 2.828 . S
C2 O20 1.244 . S
C2 O23 1.265 . S
C3 C4 1.379 . S
C3 C7 1.373 . S
C3 C9 1.505 . S
C4 C3 1.379 . S
C4 C6 1.369 . S
C4 H32 0.930 . S
C5 C7 1.383 . S
C5 C8 1.382 . S
C5 H33 0.930 . S
C6 C4 1.369 . S
C6 C8 1.392 . S
C6 H34 0.930 . S
C7 C3 1.373 . S
C7 C5 1.383 . S
C7 H35 0.931 . S
C8 C5 1.382 . S
C8 C6 1.392 . S
C9 Eu0 2.828 . S
C9 C3 1.505 . S
C9 O21 1.249 . S
C9 O22 1.244 . S
O10 Eu1 2.373 . S
O10 C12 1.258 . S
O11 Eu0 2.392 . S
O11 C12 1.242 . S
C12 O10 1.258 . S
C12 O11 1.242 . S
O13 Eu0 2.418 . S
O13 C17 1.244 . S
O14 Eu1 2.488 . S
O14 C30 1.249 . S
O15 Eu1 2.471 . S
O15 C30 1.244 . S
O16 Eu1 2.349 . S
O16 C17 1.265 . S
C17 O13 1.244 . S
C17 O16 1.265 . S
O18 Eu0 2.373 . S
O18 C31 1.258 . S
O19 Eu1 2.392 . S
O19 C31 1.242 . S
O20 Eu1 2.418 . S
O20 C2 1.244 . S
O21 Eu0 2.488 . S
O21 C9 1.249 . S
O22 Eu0 2.471 . S
O22 C9 1.244 . S
O23 Eu0 2.349 . S
O23 C2 1.265 . S
C24 C25 1.379 . S
C24 C28 1.373 . S
C24 C30 1.505 . S
C25 C24 1.379 . S
C25 C27 1.369 . S
C25 H36 0.930 . S
C26 C28 1.383 . S
C26 C29 1.382 1_455 S
C26 H37 0.930 . S
C27 C25 1.369 . S
C27 C29 1.392 1_455 S
C27 H38 0.930 1_455 S
C28 C24 1.373 . S
C28 C26 1.383 . S
C28 H39 0.931 . S
C29 C26 1.382 1_655 S
C29 C27 1.392 1_655 S
C30 Eu1 2.828 . S
C30 O14 1.249 . S
C30 O15 1.244 . S
C30 C24 1.505 . S
C31 O18 1.258 . S
C31 O19 1.242 . S
H32 C4 0.930 . S
H33 C5 0.930 . S
H34 C6 0.930 . S
H35 C7 0.931 . S
H36 C25 0.930 . S
H37 C26 0.930 . S
H38 C27 0.930 1_655 S
H39 C28 0.931 . S
Eu40 C49 2.828 . S
Eu40 O51 2.392 . S
Eu40 O53 2.418 1_565 S
Eu40 O58 2.373 . S
Eu40 O61 2.488 . S
Eu40 O62 2.471 . S
Eu40 O63 2.349 . S
Eu41 O50 2.373 . S
Eu41 O54 2.488 . S
Eu41 O55 2.471 . S
Eu41 O56 2.349 1_565 S
Eu41 O59 2.392 . S
Eu41 O60 2.418 . S
Eu41 C70 2.828 . S
C42 O60 1.244 . S
C42 O63 1.265 . S
C43 C44 1.379 . S
C43 C47 1.373 . S
C43 C49 1.505 . S
C44 C43 1.379 . S
C44 C46 1.369 . S
C44 H72 0.930 . S
C45 C47 1.383 . S
C45 C48 1.382 . S
C45 H73 0.930 1_565 S
C46 C44 1.369 . S
C46 C48 1.392 . S
C46 H74 0.930 . S
C47 C43 1.373 . S
C47 C45 1.383 . S
C47 H75 0.931 1_565 S
C48 C45 1.382 . S
C48 C46 1.392 . S
C49 Eu40 2.828 . S
C49 C43 1.505 . S
C49 O61 1.249 . S
C49 O62 1.244 . S
O50 Eu41 2.373 . S
O50 C52 1.258 . S
O51 Eu40 2.392 . S
O51 C52 1.242 . S
C52 O50 1.258 . S
C52 O51 1.242 . S
O53 Eu40 2.418 1_545 S
O53 C57 1.244 . S
O54 Eu41 2.488 . S
O54 C70 1.249 . S
O55 Eu41 2.471 . S
O55 C70 1.244 . S
O56 Eu41 2.349 1_545 S
O56 C57 1.265 . S
C57 O53 1.244 . S
C57 O56 1.265 . S
O58 Eu40 2.373 . S
O58 C71 1.258 . S
O59 Eu41 2.392 . S
O59 C71 1.242 . S
O60 Eu41 2.418 . S
O60 C42 1.244 . S
O61 Eu40 2.488 . S
O61 C49 1.249 . S
O62 Eu40 2.471 . S
O62 C49 1.244 . S
O63 Eu40 2.349 . S
O63 C42 1.265 . S
C64 C65 1.379 . S
C64 C68 1.373 . S
C64 C70 1.505 . S
C65 C64 1.379 . S
C65 C67 1.369 . S
C65 H76 0.930 . S
C66 C68 1.383 . S
C66 C69 1.382 . S
C66 H77 0.930 . S
C67 C65 1.369 . S
C67 C69 1.392 . S
C67 H78 0.930 . S
C68 C64 1.373 . S
C68 C66 1.383 . S
C68 H79 0.931 . S
C69 C66 1.382 . S
C69 C67 1.392 . S
C70 Eu41 2.828 . S
C70 O54 1.249 . S
C70 O55 1.244 . S
C70 C64 1.505 . S
C71 O58 1.258 . S
C71 O59 1.242 . S
H72 C44 0.930 . S
H73 C45 0.930 1_545 S
H74 C46 0.930 . S
H75 C47 0.931 1_545 S
H76 C65 0.930 . S
H77 C66 0.930 . S
H78 C67 0.930 . S
H79 C68 0.931 . S
Eu80 C89 2.828 . S
Eu80 O91 2.392 . S
Eu80 O93 2.418 1_455 S
Eu80 O98 2.373 . S
Eu80 O101 2.488 . S
Eu80 O102 2.471 . S
Eu80 O103 2.349 . S
Eu81 O90 2.373 . S
Eu81 O94 2.488 . S
Eu81 O95 2.471 . S
Eu81 O96 2.349 1_455 S
Eu81 O99 2.392 . S
Eu81 O100 2.418 . S
Eu81 C110 2.828 . S
C82 O100 1.244 . S
C82 O103 1.265 . S
C83 C84 1.379 . S
C83 C87 1.373 . S
C83 C89 1.505 . S
C84 C83 1.379 . S
C84 C86 1.369 . S
C84 H112 0.930 . S
C85 C87 1.383 . S
C85 C88 1.382 . S
C85 H113 0.930 1_455 S
C86 C84 1.369 . S
C86 C88 1.392 . S
C86 H114 0.930 . S
C87 C83 1.373 . S
C87 C85 1.383 . S
C87 H115 0.931 1_455 S
C88 C85 1.382 . S
C88 C86 1.392 . S
C89 Eu80 2.828 . S
C89 C83 1.505 . S
C89 O101 1.249 . S
C89 O102 1.244 . S
O90 Eu81 2.373 . S
O90 C92 1.258 . S
O91 Eu80 2.392 . S
O91 C92 1.242 . S
C92 O90 1.258 . S
C92 O91 1.242 . S
O93 Eu80 2.418 1_655 S
O93 C97 1.244 . S
O94 Eu81 2.488 . S
O94 C110 1.249 . S
O95 Eu81 2.471 . S
O95 C110 1.244 . S
O96 Eu81 2.349 1_655 S
O96 C97 1.265 . S
C97 O93 1.244 . S
C97 O96 1.265 . S
O98 Eu80 2.373 . S
O98 C111 1.258 . S
O99 Eu81 2.392 . S
O99 C111 1.242 . S
O100 Eu81 2.418 . S
O100 C82 1.244 . S
O101 Eu80 2.488 . S
O101 C89 1.249 . S
O102 Eu80 2.471 . S
O102 C89 1.244 . S
O103 Eu80 2.349 . S
O103 C82 1.265 . S
C104 C105 1.379 . S
C104 C108 1.373 . S
C104 C110 1.505 . S
C105 C104 1.379 . S
C105 C107 1.369 . S
C105 H116 0.930 . S
C106 C108 1.383 . S
C106 C109 1.382 1_565 S
C106 H117 0.930 . S
C107 C105 1.369 . S
C107 C109 1.392 1_565 S
C107 H118 0.930 1_565 S
C108 C104 1.373 . S
C108 C106 1.383 . S
C108 H119 0.931 . S
C109 C106 1.382 1_545 S
C109 C107 1.392 1_545 S
C110 Eu81 2.828 . S
C110 O94 1.249 . S
C110 O95 1.244 . S
C110 C104 1.505 . S
C111 O98 1.258 . S
C111 O99 1.242 . S
H112 C84 0.930 . S
H113 C85 0.930 1_655 S
H114 C86 0.930 . S
H115 C87 0.931 1_655 S
H116 C105 0.930 . S
H117 C106 0.930 . S
H118 C107 0.930 1_545 S
H119 C108 0.931 . S
Eu120 C129 2.828 . S
Eu120 O131 2.392 . S
Eu120 O133 2.418 . S
Eu120 O138 2.373 . S
Eu120 O141 2.488 . S
Eu120 O142 2.471 . S
Eu120 O143 2.349 . S
Eu121 O130 2.373 . S
Eu121 O134 2.488 . S
Eu121 O135 2.471 . S
Eu121 O136 2.349 . S
Eu121 O139 2.392 . S
Eu121 O140 2.418 . S
Eu121 C150 2.828 . S
C122 O140 1.244 . S
C122 O143 1.265 . S
C123 C124 1.379 . S
C123 C127 1.373 . S
C123 C129 1.505 . S
C124 C123 1.379 . S
C124 C126 1.369 . S
C124 H152 0.930 . S
C125 C127 1.383 . S
C125 C128 1.382 . S
C125 H153 0.930 . S
C126 C124 1.369 . S
C126 C128 1.392 . S
C126 H154 0.930 . S
C127 C123 1.373 . S
C127 C125 1.383 . S
C127 H155 0.931 . S
C128 C125 1.382 . S
C128 C126 1.392 . S
C129 Eu120 2.828 . S
C129 C123 1.505 . S
C129 O141 1.249 . S
C129 O142 1.244 . S
O130 Eu121 2.373 . S
O130 C132 1.258 . S
O131 Eu120 2.392 . S
O131 C132 1.242 . S
C132 O130 1.258 . S
C132 O131 1.242 . S
O133 Eu120 2.418 . S
O133 C137 1.244 . S
O134 Eu121 2.488 . S
O134 C150 1.249 . S
O135 Eu121 2.471 . S
O135 C150 1.244 . S
O136 Eu121 2.349 . S
O136 C137 1.265 . S
C137 O133 1.244 . S
C137 O136 1.265 . S
O138 Eu120 2.373 . S
O138 C151 1.258 . S
O139 Eu121 2.392 . S
O139 C151 1.242 . S
O140 Eu121 2.418 . S
O140 C122 1.244 . S
O141 Eu120 2.488 . S
O141 C129 1.249 . S
O142 Eu120 2.471 . S
O142 C129 1.244 . S
O143 Eu120 2.349 . S
O143 C122 1.265 . S
C144 C145 1.379 . S
C144 C148 1.373 . S
C144 C150 1.505 . S
C145 C144 1.379 . S
C145 C147 1.369 . S
C145 H156 0.930 . S
C146 C148 1.383 . S
C146 C149 1.382 1_545 S
C146 H157 0.930 . S
C147 C145 1.369 . S
C147 C149 1.392 1_545 S
C147 H158 0.930 1_545 S
C148 C144 1.373 . S
C148 C146 1.383 . S
C148 H159 0.931 . S
C149 C146 1.382 1_565 S
C149 C147 1.392 1_565 S
C150 Eu121 2.828 . S
C150 O134 1.249 . S
C150 O135 1.244 . S
C150 C144 1.505 . S
C151 O138 1.258 . S
C151 O139 1.242 . S
H152 C124 0.930 . S
H153 C125 0.930 . S
H154 C126 0.930 . S
H155 C127 0.931 . S
H156 C145 0.930 . S
H157 C146 0.930 . S
H158 C147 0.930 1_565 S
H159 C148 0.931 . S
Eu160 C169 2.828 . S
Eu160 O171 2.392 . S
Eu160 O173 2.418 1_545 S
Eu160 O178 2.373 . S
Eu160 O181 2.488 . S
Eu160 O182 2.471 . S
Eu160 O183 2.349 . S
Eu161 O170 2.373 . S
Eu161 O174 2.488 . S
Eu161 O175 2.471 . S
Eu161 O176 2.349 1_545 S
Eu161 O179 2.392 . S
Eu161 O180 2.418 . S
Eu161 C190 2.828 . S
C162 O180 1.244 . S
C162 O183 1.265 . S
C163 C164 1.379 . S
C163 C167 1.373 . S
C163 C169 1.505 . S
C164 C163 1.379 . S
C164 C166 1.369 . S
C164 H192 0.930 . S
C165 C167 1.383 . S
C165 C168 1.382 . S
C165 H193 0.930 1_545 S
C166 C164 1.369 . S
C166 C168 1.392 . S
C166 H194 0.930 . S
C167 C163 1.373 . S
C167 C165 1.383 . S
C167 H195 0.931 1_545 S
C168 C165 1.382 . S
C168 C166 1.392 . S
C169 Eu160 2.828 . S
C169 C163 1.505 . S
C169 O181 1.249 . S
C169 O182 1.244 . S
O170 Eu161 2.373 . S
O170 C172 1.258 . S
O171 Eu160 2.392 . S
O171 C172 1.242 . S
C172 O170 1.258 . S
C172 O171 1.242 . S
O173 Eu160 2.418 1_565 S
O173 C177 1.244 . S
O174 Eu161 2.488 . S
O174 C190 1.249 . S
O175 Eu161 2.471 . S
O175 C190 1.244 . S
O176 Eu161 2.349 1_565 S
O176 C177 1.265 . S
C177 O173 1.244 . S
C177 O176 1.265 . S
O178 Eu160 2.373 . S
O178 C191 1.258 . S
O179 Eu161 2.392 . S
O179 C191 1.242 . S
O180 Eu161 2.418 . S
O180 C162 1.244 . S
O181 Eu160 2.488 . S
O181 C169 1.249 . S
O182 Eu160 2.471 . S
O182 C169 1.244 . S
O183 Eu160 2.349 . S
O183 C162 1.265 . S
C184 C185 1.379 . S
C184 C188 1.373 . S
C184 C190 1.505 . S
C185 C184 1.379 . S
C185 C187 1.369 . S
C185 H196 0.930 . S
C186 C188 1.383 . S
C186 C189 1.382 1_655 S
C186 H197 0.930 . S
C187 C185 1.369 . S
C187 C189 1.392 1_655 S
C187 H198 0.930 1_655 S
C188 C184 1.373 . S
C188 C186 1.383 . S
C188 H199 0.931 . S
C189 C186 1.382 1_455 S
C189 C187 1.392 1_455 S
C190 Eu161 2.828 . S
C190 O174 1.249 . S
C190 O175 1.244 . S
C190 C184 1.505 . S
C191 O178 1.258 . S
C191 O179 1.242 . S
H192 C164 0.930 . S
H193 C165 0.930 1_565 S
H194 C166 0.930 . S
H195 C167 0.931 1_565 S
H196 C185 0.930 . S
H197 C186 0.930 . S
H198 C187 0.930 1_455 S
H199 C188 0.931 . S
Eu200 C209 2.828 . S
Eu200 O211 2.392 . S
Eu200 O213 2.418 1_655 S
Eu200 O218 2.373 . S
Eu200 O221 2.488 . S
Eu200 O222 2.471 . S
Eu200 O223 2.349 . S
Eu201 O210 2.373 . S
Eu201 O214 2.488 . S
Eu201 O215 2.471 . S
Eu201 O216 2.349 1_655 S
Eu201 O219 2.392 . S
Eu201 O220 2.418 . S
Eu201 C230 2.828 . S
C202 O220 1.244 . S
C202 O223 1.265 . S
C203 C204 1.379 . S
C203 C207 1.373 . S
C203 C209 1.505 . S
C204 C203 1.379 . S
C204 C206 1.369 . S
C204 H232 0.930 . S
C205 C207 1.383 . S
C205 C208 1.382 . S
C205 H233 0.930 1_655 S
C206 C204 1.369 . S
C206 C208 1.392 . S
C206 H234 0.930 . S
C207 C203 1.373 . S
C207 C205 1.383 . S
C207 H235 0.931 1_655 S
C208 C205 1.382 . S
C208 C206 1.392 . S
C209 Eu200 2.828 . S
C209 C203 1.505 . S
C209 O221 1.249 . S
C209 O222 1.244 . S
O210 Eu201 2.373 . S
O210 C212 1.258 . S
O211 Eu200 2.392 . S
O211 C212 1.242 . S
C212 O210 1.258 . S
C212 O211 1.242 . S
O213 Eu200 2.418 1_455 S
O213 C217 1.244 . S
O214 Eu201 2.488 . S
O214 C230 1.249 . S
O215 Eu201 2.471 . S
O215 C230 1.244 . S
O216 Eu201 2.349 1_455 S
O216 C217 1.265 . S
C217 O213 1.244 . S
C217 O216 1.265 . S
O218 Eu200 2.373 . S
O218 C231 1.258 . S
O219 Eu201 2.392 . S
O219 C231 1.242 . S
O220 Eu201 2.418 . S
O220 C202 1.244 . S
O221 Eu200 2.488 . S
O221 C209 1.249 . S
O222 Eu200 2.471 . S
O222 C209 1.244 . S
O223 Eu200 2.349 . S
O223 C202 1.265 . S
C224 C225 1.379 . S
C224 C228 1.373 . S
C224 C230 1.505 . S
C225 C224 1.379 . S
C225 C227 1.369 . S
C225 H236 0.930 . S
C226 C228 1.383 . S
C226 C229 1.382 . S
C226 H237 0.930 . S
C227 C225 1.369 . S
C227 C229 1.392 . S
C227 H238 0.930 . S
C228 C224 1.373 . S
C228 C226 1.383 . S
C228 H239 0.931 . S
C229 C226 1.382 . S
C229 C227 1.392 . S
C230 Eu201 2.828 . S
C230 O214 1.249 . S
C230 O215 1.244 . S
C230 C224 1.505 . S
C231 O218 1.258 . S
C231 O219 1.242 . S
H232 C204 0.930 . S
H233 C205 0.930 1_455 S
H234 C206 0.930 . S
H235 C207 0.931 1_455 S
H236 C225 0.930 . S
H237 C226 0.930 . S
H238 C227 0.930 . S
H239 C228 0.931 . S
Eu240 C249 2.828 . S
Eu240 O251 2.392 . S
Eu240 O253 2.418 . S
Eu240 O258 2.373 . S
Eu240 O261 2.488 . S
Eu240 O262 2.471 . S
Eu240 O263 2.349 . S
Eu241 O250 2.373 . S
Eu241 O254 2.488 . S
Eu241 O255 2.471 . S
Eu241 O256 2.349 . S
Eu241 O259 2.392 . S
Eu241 O260 2.418 . S
Eu241 C270 2.828 . S
C242 O260 1.244 . S
C242 O263 1.265 . S
C243 C244 1.379 . S
C243 C247 1.373 . S
C243 C249 1.505 . S
C244 C243 1.379 . S
C244 C246 1.369 . S
C244 H272 0.930 . S
C245 C247 1.383 . S
C245 C248 1.382 1_655 S
C245 H273 0.930 . S
C246 C244 1.369 . S
C246 C248 1.392 1_655 S
C246 H274 0.930 1_655 S
C247 C243 1.373 . S
C247 C245 1.383 . S
C247 H275 0.931 . S
C248 C245 1.382 1_455 S
C248 C246 1.392 1_455 S
C249 Eu240 2.828 . S
C249 C243 1.505 . S
C249 O261 1.249 . S
C249 O262 1.244 . S
O250 Eu241 2.373 . S
O250 C252 1.258 . S
O251 Eu240 2.392 . S
O251 C252 1.242 . S
C252 O250 1.258 . S
C252 O251 1.242 . S
O253 Eu240 2.418 . S
O253 C257 1.244 . S
O254 Eu241 2.488 . S
O254 C270 1.249 . S
O255 Eu241 2.471 . S
O255 C270 1.244 . S
O256 Eu241 2.349 . S
O256 C257 1.265 . S
C257 O253 1.244 . S
C257 O256 1.265 . S
O258 Eu240 2.373 . S
O258 C271 1.258 . S
O259 Eu241 2.392 . S
O259 C271 1.242 . S
O260 Eu241 2.418 . S
O260 C242 1.244 . S
O261 Eu240 2.488 . S
O261 C249 1.249 . S
O262 Eu240 2.471 . S
O262 C249 1.244 . S
O263 Eu240 2.349 . S
O263 C242 1.265 . S
C264 C265 1.379 . S
C264 C268 1.373 . S
C264 C270 1.505 . S
C265 C264 1.379 . S
C265 C267 1.369 . S
C265 H276 0.930 . S
C266 C268 1.383 . S
C266 C269 1.382 . S
C266 H277 0.930 . S
C267 C265 1.369 . S
C267 C269 1.392 . S
C267 H278 0.930 . S
C268 C264 1.373 . S
C268 C266 1.383 . S
C268 H279 0.931 . S
C269 C266 1.382 . S
C269 C267 1.392 . S
C270 Eu241 2.828 . S
C270 O254 1.249 . S
C270 O255 1.244 . S
C270 C264 1.505 . S
C271 O258 1.258 . S
C271 O259 1.242 . S
H272 C244 0.930 . S
H273 C245 0.930 . S
H274 C246 0.930 1_455 S
H275 C247 0.931 . S
H276 C265 0.930 . S
H277 C266 0.930 . S
H278 C267 0.930 . S
H279 C268 0.931 . S
Eu280 C289 2.828 . S
Eu280 O291 2.392 . S
Eu280 O293 2.418 . S
Eu280 O298 2.373 . S
Eu280 O301 2.488 . S
Eu280 O302 2.471 . S
Eu280 O303 2.349 1_545 S
Eu281 O290 2.373 . S
Eu281 O294 2.488 . S
Eu281 O295 2.471 . S
Eu281 O296 2.349 . S
Eu281 O299 2.392 . S
Eu281 O300 2.418 1_545 S
Eu281 C310 2.828 . S
C282 O300 1.244 . S
C282 O303 1.265 . S
C283 C284 1.379 . S
C283 C287 1.373 . S
C283 C289 1.505 . S
C284 C283 1.379 . S
C284 C286 1.369 . S
C284 H312 0.930 . S
C285 C287 1.383 . S
C285 C288 1.382 . S
C285 H313 0.930 . S
C286 C284 1.369 . S
C286 C288 1.392 . S
C286 H314 0.930 . S
C287 C283 1.373 . S
C287 C285 1.383 . S
C287 H315 0.931 . S
C288 C285 1.382 . S
C288 C286 1.392 . S
C289 Eu280 2.828 . S
C289 C283 1.505 . S
C289 O301 1.249 . S
C289 O302 1.244 . S
O290 Eu281 2.373 . S
O290 C292 1.258 . S
O291 Eu280 2.392 . S
O291 C292 1.242 . S
C292 O290 1.258 . S
C292 O291 1.242 . S
O293 Eu280 2.418 . S
O293 C297 1.244 . S
O294 Eu281 2.488 . S
O294 C310 1.249 . S
O295 Eu281 2.471 . S
O295 C310 1.244 . S
O296 Eu281 2.349 . S
O296 C297 1.265 . S
C297 O293 1.244 . S
C297 O296 1.265 . S
O298 Eu280 2.373 . S
O298 C311 1.258 . S
O299 Eu281 2.392 . S
O299 C311 1.242 . S
O300 Eu281 2.418 1_565 S
O300 C282 1.244 . S
O301 Eu280 2.488 . S
O301 C289 1.249 . S
O302 Eu280 2.471 . S
O302 C289 1.244 . S
O303 Eu280 2.349 1_565 S
O303 C282 1.265 . S
C304 C305 1.379 . S
C304 C308 1.373 . S
C304 C310 1.505 . S
C305 C304 1.379 . S
C305 C307 1.369 . S
C305 H316 0.930 . S
C306 C308 1.383 . S
C306 C309 1.382 . S
C306 H317 0.930 1_545 S
C307 C305 1.369 . S
C307 C309 1.392 . S
C307 H318 0.930 . S
C308 C304 1.373 . S
C308 C306 1.383 . S
C308 H319 0.931 1_545 S
C309 C306 1.382 . S
C309 C307 1.392 . S
C310 Eu281 2.828 . S
C310 O294 1.249 . S
C310 O295 1.244 . S
C310 C304 1.505 . S
C311 O298 1.258 . S
C311 O299 1.242 . S
H312 C284 0.930 . S
H313 C285 0.930 . S
H314 C286 0.930 . S
H315 C287 0.931 . S
H316 C305 0.930 . S
H317 C306 0.930 1_565 S
H318 C307 0.930 . S
H319 C308 0.931 1_565 S
Eu320 C329 2.828 . S
Eu320 O331 2.392 . S
Eu320 O333 2.418 . S
Eu320 O338 2.373 . S
Eu320 O341 2.488 . S
Eu320 O342 2.471 . S
Eu320 O343 2.349 1_655 S
Eu321 O330 2.373 . S
Eu321 O334 2.488 . S
Eu321 O335 2.471 . S
Eu321 O336 2.349 . S
Eu321 O339 2.392 . S
Eu321 O340 2.418 1_655 S
Eu321 C350 2.828 . S
C322 O340 1.244 . S
C322 O343 1.265 . S
C323 C324 1.379 . S
C323 C327 1.373 . S
C323 C329 1.505 . S
C324 C323 1.379 . S
C324 C326 1.369 . S
C324 H352 0.930 . S
C325 C327 1.383 . S
C325 C328 1.382 1_545 S
C325 H353 0.930 . S
C326 C324 1.369 . S
C326 C328 1.392 1_545 S
C326 H354 0.930 1_545 S
C327 C323 1.373 . S
C327 C325 1.383 . S
C327 H355 0.931 . S
C328 C325 1.382 1_565 S
C328 C326 1.392 1_565 S
C329 Eu320 2.828 . S
C329 C323 1.505 . S
C329 O341 1.249 . S
C329 O342 1.244 . S
O330 Eu321 2.373 . S
O330 C332 1.258 . S
O331 Eu320 2.392 . S
O331 C332 1.242 . S
C332 O330 1.258 . S
C332 O331 1.242 . S
O333 Eu320 2.418 . S
O333 C337 1.244 . S
O334 Eu321 2.488 . S
O334 C350 1.249 . S
O335 Eu321 2.471 . S
O335 C350 1.244 . S
O336 Eu321 2.349 . S
O336 C337 1.265 . S
C337 O333 1.244 . S
C337 O336 1.265 . S
O338 Eu320 2.373 . S
O338 C351 1.258 . S
O339 Eu321 2.392 . S
O339 C351 1.242 . S
O340 Eu321 2.418 1_455 S
O340 C322 1.244 . S
O341 Eu320 2.488 . S
O341 C329 1.249 . S
O342 Eu320 2.471 . S
O342 C329 1.244 . S
O343 Eu320 2.349 1_455 S
O343 C322 1.265 . S
C344 C345 1.379 . S
C344 C348 1.373 . S
C344 C350 1.505 . S
C345 C344 1.379 . S
C345 C347 1.369 . S
C345 H356 0.930 . S
C346 C348 1.383 . S
C346 C349 1.382 . S
C346 H357 0.930 1_655 S
C347 C345 1.369 . S
C347 C349 1.392 . S
C347 H358 0.930 . S
C348 C344 1.373 . S
C348 C346 1.383 . S
C348 H359 0.931 1_655 S
C349 C346 1.382 . S
C349 C347 1.392 . S
C350 Eu321 2.828 . S
C350 O334 1.249 . S
C350 O335 1.244 . S
C350 C344 1.505 . S
C351 O338 1.258 . S
C351 O339 1.242 . S
H352 C324 0.930 . S
H353 C325 0.930 . S
H354 C326 0.930 1_565 S
H355 C327 0.931 . S
H356 C345 0.930 . S
H357 C346 0.930 1_455 S
H358 C347 0.930 . S
H359 C348 0.931 1_455 S
Eu360 C369 2.828 . S
Eu360 O371 2.392 . S
Eu360 O373 2.418 . S
Eu360 O378 2.373 . S
Eu360 O381 2.488 . S
Eu360 O382 2.471 . S
Eu360 O383 2.349 . S
Eu361 O370 2.373 . S
Eu361 O374 2.488 . S
Eu361 O375 2.471 . S
Eu361 O376 2.349 . S
Eu361 O379 2.392 . S
Eu361 O380 2.418 . S
Eu361 C390 2.828 . S
C362 O380 1.244 . S
C362 O383 1.265 . S
C363 C364 1.379 . S
C363 C367 1.373 . S
C363 C369 1.505 . S
C364 C363 1.379 . S
C364 C366 1.369 . S
C364 H392 0.930 . S
C365 C367 1.383 . S
C365 C368 1.382 1_565 S
C365 H393 0.930 . S
C366 C364 1.369 . S
C366 C368 1.392 1_565 S
C366 H394 0.930 1_565 S
C367 C363 1.373 . S
C367 C365 1.383 . S
C367 H395 0.931 . S
C368 C365 1.382 1_545 S
C368 C366 1.392 1_545 S
C369 Eu360 2.828 . S
C369 C363 1.505 . S
C369 O381 1.249 . S
C369 O382 1.244 . S
O370 Eu361 2.373 . S
O370 C372 1.258 . S
O371 Eu360 2.392 . S
O371 C372 1.242 . S
C372 O370 1.258 . S
C372 O371 1.242 . S
O373 Eu360 2.418 . S
O373 C377 1.244 . S
O374 Eu361 2.488 . S
O374 C390 1.249 . S
O375 Eu361 2.471 . S
O375 C390 1.244 . S
O376 Eu361 2.349 . S
O376 C377 1.265 . S
C377 O373 1.244 . S
C377 O376 1.265 . S
O378 Eu360 2.373 . S
O378 C391 1.258 . S
O379 Eu361 2.392 . S
O379 C391 1.242 . S
O380 Eu361 2.418 . S
O380 C362 1.244 . S
O381 Eu360 2.488 . S
O381 C369 1.249 . S
O382 Eu360 2.471 . S
O382 C369 1.244 . S
O383 Eu360 2.349 . S
O383 C362 1.265 . S
C384 C385 1.379 . S
C384 C388 1.373 . S
C384 C390 1.505 . S
C385 C384 1.379 . S
C385 C387 1.369 . S
C385 H396 0.930 . S
C386 C388 1.383 . S
C386 C389 1.382 . S
C386 H397 0.930 . S
C387 C385 1.369 . S
C387 C389 1.392 . S
C387 H398 0.930 . S
C388 C384 1.373 . S
C388 C386 1.383 . S
C388 H399 0.931 . S
C389 C386 1.382 . S
C389 C387 1.392 . S
C390 Eu361 2.828 . S
C390 O374 1.249 . S
C390 O375 1.244 . S
C390 C384 1.505 . S
C391 O378 1.258 . S
C391 O379 1.242 . S
H392 C364 0.930 . S
H393 C365 0.930 . S
H394 C366 0.930 1_545 S
H395 C367 0.931 . S
H396 C385 0.930 . S
H397 C386 0.930 . S
H398 C387 0.930 . S
H399 C388 0.931 . S
Eu400 C409 2.828 . S
Eu400 O411 2.392 . S
Eu400 O413 2.418 . S
Eu400 O418 2.373 . S
Eu400 O421 2.488 . S
Eu400 O422 2.471 . S
Eu400 O423 2.349 1_565 S
Eu401 O410 2.373 . S
Eu401 O414 2.488 . S
Eu401 O415 2.471 . S
Eu401 O416 2.349 . S
Eu401 O419 2.392 . S
Eu401 O420 2.418 1_565 S
Eu401 C430 2.828 . S
C402 O420 1.244 . S
C402 O423 1.265 . S
C403 C404 1.379 . S
C403 C407 1.373 . S
C403 C409 1.505 . S
C404 C403 1.379 . S
C404 C406 1.369 . S
C404 H432 0.930 . S
C405 C407 1.383 . S
C405 C408 1.382 1_455 S
C405 H433 0.930 . S
C406 C404 1.369 . S
C406 C408 1.392 1_455 S
C406 H434 0.930 1_455 S
C407 C403 1.373 . S
C407 C405 1.383 . S
C407 H435 0.931 . S
C408 C405 1.382 1_655 S
C408 C406 1.392 1_655 S
C409 Eu400 2.828 . S
C409 C403 1.505 . S
C409 O421 1.249 . S
C409 O422 1.244 . S
O410 Eu401 2.373 . S
O410 C412 1.258 . S
O411 Eu400 2.392 . S
O411 C412 1.242 . S
C412 O410 1.258 . S
C412 O411 1.242 . S
O413 Eu400 2.418 . S
O413 C417 1.244 . S
O414 Eu401 2.488 . S
O414 C430 1.249 . S
O415 Eu401 2.471 . S
O415 C430 1.244 . S
O416 Eu401 2.349 . S
O416 C417 1.265 . S
C417 O413 1.244 . S
C417 O416 1.265 . S
O418 Eu400 2.373 . S
O418 C431 1.258 . S
O419 Eu401 2.392 . S
O419 C431 1.242 . S
O420 Eu401 2.418 1_545 S
O420 C402 1.244 . S
O421 Eu400 2.488 . S
O421 C409 1.249 . S
O422 Eu400 2.471 . S
O422 C409 1.244 . S
O423 Eu400 2.349 1_545 S
O423 C402 1.265 . S
C424 C425 1.379 . S
C424 C428 1.373 . S
C424 C430 1.505 . S
C425 C424 1.379 . S
C425 C427 1.369 . S
C425 H436 0.930 . S
C426 C428 1.383 . S
C426 C429 1.382 . S
C426 H437 0.930 1_565 S
C427 C425 1.369 . S
C427 C429 1.392 . S
C427 H438 0.930 . S
C428 C424 1.373 . S
C428 C426 1.383 . S
C428 H439 0.931 1_565 S
C429 C426 1.382 . S
C429 C427 1.392 . S
C430 Eu401 2.828 . S
C430 O414 1.249 . S
C430 O415 1.244 . S
C430 C424 1.505 . S
C431 O418 1.258 . S
C431 O419 1.242 . S
H432 C404 0.930 . S
H433 C405 0.930 . S
H434 C406 0.930 1_655 S
H435 C407 0.931 . S
H436 C425 0.930 . S
H437 C426 0.930 1_545 S
H438 C427 0.930 . S
H439 C428 0.931 1_545 S
Eu440 C449 2.828 . S
Eu440 O451 2.392 . S
Eu440 O453 2.418 . S
Eu440 O458 2.373 . S
Eu440 O461 2.488 . S
Eu440 O462 2.471 . S
Eu440 O463 2.349 1_455 S
Eu441 O450 2.373 . S
Eu441 O454 2.488 . S
Eu441 O455 2.471 . S
Eu441 O456 2.349 . S
Eu441 O459 2.392 . S
Eu441 O460 2.418 1_455 S
Eu441 C470 2.828 . S
C442 O460 1.244 . S
C442 O463 1.265 . S
C443 C444 1.379 . S
C443 C447 1.373 . S
C443 C449 1.505 . S
C444 C443 1.379 . S
C444 C446 1.369 . S
C444 H472 0.930 . S
C445 C447 1.383 . S
C445 C448 1.382 . S
C445 H473 0.930 . S
C446 C444 1.369 . S
C446 C448 1.392 . S
C446 H474 0.930 . S
C447 C443 1.373 . S
C447 C445 1.383 . S
C447 H475 0.931 . S
C448 C445 1.382 . S
C448 C446 1.392 . S
C449 Eu440 2.828 . S
C449 C443 1.505 . S
C449 O461 1.249 . S
C449 O462 1.244 . S
O450 Eu441 2.373 . S
O450 C452 1.258 . S
O451 Eu440 2.392 . S
O451 C452 1.242 . S
C452 O450 1.258 . S
C452 O451 1.242 . S
O453 Eu440 2.418 . S
O453 C457 1.244 . S
O454 Eu441 2.488 . S
O454 C470 1.249 . S
O455 Eu441 2.471 . S
O455 C470 1.244 . S
O456 Eu441 2.349 . S
O456 C457 1.265 . S
C457 O453 1.244 . S
C457 O456 1.265 . S
O458 Eu440 2.373 . S
O458 C471 1.258 . S
O459 Eu441 2.392 . S
O459 C471 1.242 . S
O460 Eu441 2.418 1_655 S
O460 C442 1.244 . S
O461 Eu440 2.488 . S
O461 C449 1.249 . S
O462 Eu440 2.471 . S
O462 C449 1.244 . S
O463 Eu440 2.349 1_655 S
O463 C442 1.265 . S
C464 C465 1.379 . S
C464 C468 1.373 . S
C464 C470 1.505 . S
C465 C464 1.379 . S
C465 C467 1.369 . S
C465 H476 0.930 . S
C466 C468 1.383 . S
C466 C469 1.382 . S
C466 H477 0.930 1_455 S
C467 C465 1.369 . S
C467 C469 1.392 . S
C467 H478 0.930 . S
C468 C464 1.373 . S
C468 C466 1.383 . S
C468 H479 0.931 1_455 S
C469 C466 1.382 . S
C469 C467 1.392 . S
C470 Eu441 2.828 . S
C470 O454 1.249 . S
C470 O455 1.244 . S
C470 C464 1.505 . S
C471 O458 1.258 . S
C471 O459 1.242 . S
H472 C444 0.930 . S
H473 C445 0.930 . S
H474 C446 0.930 . S
H475 C447 0.931 . S
H476 C465 0.930 . S
H477 C466 0.930 1_655 S
H478 C467 0.930 . S
H479 C468 0.931 1_655 S
Eu480 C489 2.828 . S
Eu480 O491 2.392 . S
Eu480 O493 2.418 . S
Eu480 O498 2.373 . S
Eu480 O501 2.488 . S
Eu480 O502 2.471 . S
Eu480 O503 2.349 . S
Eu481 O490 2.373 . S
Eu481 O494 2.488 . S
Eu481 O495 2.471 . S
Eu481 O496 2.349 . S
Eu481 O499 2.392 . S
Eu481 O500 2.418 . S
Eu481 C510 2.828 . S
C482 O500 1.244 . S
C482 O503 1.265 . S
C483 C484 1.379 . S
C483 C487 1.373 . S
C483 C489 1.505 . S
C484 C483 1.379 . S
C484 C486 1.369 . S
C484 H512 0.930 . S
C485 C487 1.383 . S
C485 C488 1.382 . S
C485 H513 0.930 . S
C486 C484 1.369 . S
C486 C488 1.392 . S
C486 H514 0.930 . S
C487 C483 1.373 . S
C487 C485 1.383 . S
C487 H515 0.931 . S
C488 C485 1.382 . S
C488 C486 1.392 . S
C489 Eu480 2.828 . S
C489 C483 1.505 . S
C489 O501 1.249 . S
C489 O502 1.244 . S
O490 Eu481 2.373 . S
O490 C492 1.258 . S
O491 Eu480 2.392 . S
O491 C492 1.242 . S
C492 O490 1.258 . S
C492 O491 1.242 . S
O493 Eu480 2.418 . S
O493 C497 1.244 . S
O494 Eu481 2.488 . S
O494 C510 1.249 . S
O495 Eu481 2.471 . S
O495 C510 1.244 . S
O496 Eu481 2.349 . S
O496 C497 1.265 . S
C497 O493 1.244 . S
C497 O496 1.265 . S
O498 Eu480 2.373 . S
O498 C511 1.258 . S
O499 Eu481 2.392 . S
O499 C511 1.242 . S
O500 Eu481 2.418 . S
O500 C482 1.244 . S
O501 Eu480 2.488 . S
O501 C489 1.249 . S
O502 Eu480 2.471 . S
O502 C489 1.244 . S
O503 Eu480 2.349 . S
O503 C482 1.265 . S
C504 C505 1.379 . S
C504 C508 1.373 . S
C504 C510 1.505 . S
C505 C504 1.379 . S
C505 C507 1.369 . S
C505 H516 0.930 . S
C506 C508 1.383 . S
C506 C509 1.382 . S
C506 H517 0.930 . S
C507 C505 1.369 . S
C507 C509 1.392 . S
C507 H518 0.930 . S
C508 C504 1.373 . S
C508 C506 1.383 . S
C508 H519 0.931 . S
C509 C506 1.382 . S
C509 C507 1.392 . S
C510 Eu481 2.828 . S
C510 O494 1.249 . S
C510 O495 1.244 . S
C510 C504 1.505 . S
C511 O498 1.258 . S
C511 O499 1.242 . S
H512 C484 0.930 . S
H513 C485 0.930 . S
H514 C486 0.930 . S
H515 C487 0.931 . S
H516 C505 0.930 . S
H517 C506 0.930 . S
H518 C507 0.930 . S
H519 C508 0.931 . S
Eu520 C529 2.828 . S
Eu520 O531 2.392 . S
Eu520 O533 2.418 . S
Eu520 O538 2.373 . S
Eu520 O541 2.488 . S
Eu520 O542 2.471 . S
Eu520 O543 2.349 . S
Eu521 O530 2.373 . S
Eu521 O534 2.488 . S
Eu521 O535 2.471 . S
Eu521 O536 2.349 . S
Eu521 O539 2.392 . S
Eu521 O540 2.418 . S
Eu521 C550 2.828 . S
C522 O540 1.244 . S
C522 O543 1.265 . S
C523 C524 1.379 . S
C523 C527 1.373 . S
C523 C529 1.505 . S
C524 C523 1.379 . S
C524 C526 1.369 . S
C524 H552 0.930 . S
C525 C527 1.383 . S
C525 C528 1.382 . S
C525 H553 0.930 . S
C526 C524 1.369 . S
C526 C528 1.392 . S
C526 H554 0.930 . S
C527 C523 1.373 . S
C527 C525 1.383 . S
C527 H555 0.931 . S
C528 C525 1.382 . S
C528 C526 1.392 . S
C529 Eu520 2.828 . S
C529 C523 1.505 . S
C529 O541 1.249 . S
C529 O542 1.244 . S
O530 Eu521 2.373 . S
O530 C532 1.258 . S
O531 Eu520 2.392 . S
O531 C532 1.242 . S
C532 O530 1.258 . S
C532 O531 1.242 . S
O533 Eu520 2.418 . S
O533 C537 1.244 . S
O534 Eu521 2.488 . S
O534 C550 1.249 . S
O535 Eu521 2.471 . S
O535 C550 1.244 . S
O536 Eu521 2.349 . S
O536 C537 1.265 . S
C537 O533 1.244 . S
C537 O536 1.265 . S
O538 Eu520 2.373 . S
O538 C551 1.258 . S
O539 Eu521 2.392 . S
O539 C551 1.242 . S
O540 Eu521 2.418 . S
O540 C522 1.244 . S
O541 Eu520 2.488 . S
O541 C529 1.249 . S
O542 Eu520 2.471 . S
O542 C529 1.244 . S
O543 Eu520 2.349 . S
O543 C522 1.265 . S
C544 C545 1.379 . S
C544 C548 1.373 . S
C544 C550 1.505 . S
C545 C544 1.379 . S
C545 C547 1.369 . S
C545 H556 0.930 . S
C546 C548 1.383 . S
C546 C549 1.382 . S
C546 H557 0.930 . S
C547 C545 1.369 . S
C547 C549 1.392 . S
C547 H558 0.930 . S
C548 C544 1.373 . S
C548 C546 1.383 . S
C548 H559 0.931 . S
C549 C546 1.382 . S
C549 C547 1.392 . S
C550 Eu521 2.828 . S
C550 O534 1.249 . S
C550 O535 1.244 . S
C550 C544 1.505 . S
C551 O538 1.258 . S
C551 O539 1.242 . S
H552 C524 0.930 . S
H553 C525 0.930 . S
H554 C526 0.930 . S
H555 C527 0.931 . S
H556 C545 0.930 . S
H557 C546 0.930 . S
H558 C547 0.930 . S
H559 C548 0.931 . S
Eu560 C569 2.828 . S
Eu560 O571 2.392 . S
Eu560 O573 2.418 . S
Eu560 O578 2.373 . S
Eu560 O581 2.488 . S
Eu560 O582 2.471 . S
Eu560 O583 2.349 . S
Eu561 O570 2.373 . S
Eu561 O574 2.488 . S
Eu561 O575 2.471 . S
Eu561 O576 2.349 . S
Eu561 O579 2.392 . S
Eu561 O580 2.418 . S
Eu561 C590 2.828 . S
C562 O580 1.244 . S
C562 O583 1.265 . S
C563 C564 1.379 . S
C563 C567 1.373 . S
C563 C569 1.505 . S
C564 C563 1.379 . S
C564 C566 1.369 . S
C564 H592 0.930 . S
C565 C567 1.383 . S
C565 C568 1.382 . S
C565 H593 0.930 . S
C566 C564 1.369 . S
C566 C568 1.392 . S
C566 H594 0.930 . S
C567 C563 1.373 . S
C567 C565 1.383 . S
C567 H595 0.931 . S
C568 C565 1.382 . S
C568 C566 1.392 . S
C569 Eu560 2.828 . S
C569 C563 1.505 . S
C569 O581 1.249 . S
C569 O582 1.244 . S
O570 Eu561 2.373 . S
O570 C572 1.258 . S
O571 Eu560 2.392 . S
O571 C572 1.242 . S
C572 O570 1.258 . S
C572 O571 1.242 . S
O573 Eu560 2.418 . S
O573 C577 1.244 . S
O574 Eu561 2.488 . S
O574 C590 1.249 . S
O575 Eu561 2.471 . S
O575 C590 1.244 . S
O576 Eu561 2.349 . S
O576 C577 1.265 . S
C577 O573 1.244 . S
C577 O576 1.265 . S
O578 Eu560 2.373 . S
O578 C591 1.258 . S
O579 Eu561 2.392 . S
O579 C591 1.242 . S
O580 Eu561 2.418 . S
O580 C562 1.244 . S
O581 Eu560 2.488 . S
O581 C569 1.249 . S
O582 Eu560 2.471 . S
O582 C569 1.244 . S
O583 Eu560 2.349 . S
O583 C562 1.265 . S
C584 C585 1.379 . S
C584 C588 1.373 . S
C584 C590 1.505 . S
C585 C584 1.379 . S
C585 C587 1.369 . S
C585 H596 0.930 . S
C586 C588 1.383 . S
C586 C589 1.382 . S
C586 H597 0.930 . S
C587 C585 1.369 . S
C587 C589 1.392 . S
C587 H598 0.930 . S
C588 C584 1.373 . S
C588 C586 1.383 . S
C588 H599 0.931 . S
C589 C586 1.382 . S
C589 C587 1.392 . S
C590 Eu561 2.828 . S
C590 O574 1.249 . S
C590 O575 1.244 . S
C590 C584 1.505 . S
C591 O578 1.258 . S
C591 O579 1.242 . S
H592 C564 0.930 . S
H593 C565 0.930 . S
H594 C566 0.930 . S
H595 C567 0.931 . S
H596 C585 0.930 . S
H597 C586 0.930 . S
H598 C587 0.930 . S
H599 C588 0.931 . S
Eu600 C609 2.828 . S
Eu600 O611 2.392 . S
Eu600 O613 2.418 . S
Eu600 O618 2.373 . S
Eu600 O621 2.488 . S
Eu600 O622 2.471 . S
Eu600 O623 2.349 . S
Eu601 O610 2.373 . S
Eu601 O614 2.488 . S
Eu601 O615 2.471 . S
Eu601 O616 2.349 . S
Eu601 O619 2.392 1_655 S
Eu601 O620 2.418 1_655 S
Eu601 C630 2.828 . S
C602 O620 1.244 . S
C602 O623 1.265 1_455 S
C603 C604 1.379 1_655 S
C603 C607 1.373 . S
C603 C609 1.505 . S
C604 C603 1.379 1_455 S
C604 C606 1.369 . S
C604 H632 0.930 . S
C605 C607 1.383 . S
C605 C608 1.382 1_655 S
C605 H633 0.930 . S
C606 C604 1.369 . S
C606 C608 1.392 . S
C606 H634 0.930 . S
C607 C603 1.373 . S
C607 C605 1.383 . S
C607 H635 0.931 . S
C608 C605 1.382 1_455 S
C608 C606 1.392 . S
C609 Eu600 2.828 . S
C609 C603 1.505 . S
C609 O621 1.249 . S
C609 O622 1.244 . S
O610 Eu601 2.373 . S
O610 C612 1.258 . S
O611 Eu600 2.392 . S
O611 C612 1.242 . S
C612 O610 1.258 . S
C612 O611 1.242 . S
O613 Eu600 2.418 . S
O613 C617 1.244 . S
O614 Eu601 2.488 . S
O614 C630 1.249 . S
O615 Eu601 2.471 . S
O615 C630 1.244 . S
O616 Eu601 2.349 . S
O616 C617 1.265 . S
C617 O613 1.244 . S
C617 O616 1.265 . S
O618 Eu600 2.373 . S
O618 C631 1.258 1_655 S
O619 Eu601 2.392 1_455 S
O619 C631 1.242 . S
O620 Eu601 2.418 1_455 S
O620 C602 1.244 . S
O621 Eu600 2.488 . S
O621 C609 1.249 . S
O622 Eu600 2.471 . S
O622 C609 1.244 . S
O623 Eu600 2.349 . S
O623 C602 1.265 1_655 S
C624 C625 1.379 . S
C624 C628 1.373 . S
C624 C630 1.505 . S
C625 C624 1.379 . S
C625 C627 1.369 . S
C625 H636 0.930 . S
C626 C628 1.383 . S
C626 C629 1.382 . S
C626 H637 0.930 . S
C627 C625 1.369 . S
C627 C629 1.392 . S
C627 H638 0.930 . S
C628 C624 1.373 . S
C628 C626 1.383 . S
C628 H639 0.931 . S
C629 C626 1.382 . S
C629 C627 1.392 . S
C630 Eu601 2.828 . S
C630 O614 1.249 . S
C630 O615 1.244 . S
C630 C624 1.505 . S
C631 O618 1.258 1_455 S
C631 O619 1.242 . S
H632 C604 0.930 . S
H633 C605 0.930 . S
H634 C606 0.930 . S
H635 C607 0.931 . S
H636 C625 0.930 . S
H637 C626 0.930 . S
H638 C627 0.930 . S
H639 C628 0.931 . S
Eu640 C649 2.828 . S
Eu640 O651 2.392 . S
Eu640 O653 2.418 . S
Eu640 O658 2.373 . S
Eu640 O661 2.488 . S
Eu640 O662 2.471 . S
Eu640 O663 2.349 . S
Eu641 O650 2.373 . S
Eu641 O654 2.488 . S
Eu641 O655 2.471 . S
Eu641 O656 2.349 . S
Eu641 O659 2.392 . S
Eu641 O660 2.418 . S
Eu641 C670 2.828 . S
C642 O660 1.244 . S
C642 O663 1.265 . S
C643 C644 1.379 . S
C643 C647 1.373 . S
C643 C649 1.505 . S
C644 C643 1.379 . S
C644 C646 1.369 . S
C644 H672 0.930 . S
C645 C647 1.383 . S
C645 C648 1.382 . S
C645 H673 0.930 . S
C646 C644 1.369 . S
C646 C648 1.392 . S
C646 H674 0.930 . S
C647 C643 1.373 . S
C647 C645 1.383 . S
C647 H675 0.931 . S
C648 C645 1.382 . S
C648 C646 1.392 . S
C649 Eu640 2.828 . S
C649 C643 1.505 . S
C649 O661 1.249 . S
C649 O662 1.244 . S
O650 Eu641 2.373 . S
O650 C652 1.258 . S
O651 Eu640 2.392 . S
O651 C652 1.242 . S
C652 O650 1.258 . S
C652 O651 1.242 . S
O653 Eu640 2.418 . S
O653 C657 1.244 . S
O654 Eu641 2.488 . S
O654 C670 1.249 . S
O655 Eu641 2.471 . S
O655 C670 1.244 . S
O656 Eu641 2.349 . S
O656 C657 1.265 . S
C657 O653 1.244 . S
C657 O656 1.265 . S
O658 Eu640 2.373 . S
O658 C671 1.258 . S
O659 Eu641 2.392 . S
O659 C671 1.242 . S
O660 Eu641 2.418 . S
O660 C642 1.244 . S
O661 Eu640 2.488 . S
O661 C649 1.249 . S
O662 Eu640 2.471 . S
O662 C649 1.244 . S
O663 Eu640 2.349 . S
O663 C642 1.265 . S
C664 C665 1.379 . S
C664 C668 1.373 . S
C664 C670 1.505 . S
C665 C664 1.379 . S
C665 C667 1.369 . S
C665 H676 0.930 . S
C666 C668 1.383 . S
C666 C669 1.382 . S
C666 H677 0.930 . S
C667 C665 1.369 . S
C667 C669 1.392 . S
C667 H678 0.930 . S
C668 C664 1.373 . S
C668 C666 1.383 . S
C668 H679 0.931 . S
C669 C666 1.382 . S
C669 C667 1.392 . S
C670 Eu641 2.828 . S
C670 O654 1.249 . S
C670 O655 1.244 . S
C670 C664 1.505 . S
C671 O658 1.258 . S
C671 O659 1.242 . S
H672 C644 0.930 . S
H673 C645 0.930 . S
H674 C646 0.930 . S
H675 C647 0.931 . S
H676 C665 0.930 . S
H677 C666 0.930 . S
H678 C667 0.930 . S
H679 C668 0.931 . S
Eu680 C689 2.828 . S
Eu680 O691 2.392 . S
Eu680 O693 2.418 . S
Eu680 O698 2.373 . S
Eu680 O701 2.488 . S
Eu680 O702 2.471 . S
Eu680 O703 2.349 . S
Eu681 O690 2.373 . S
Eu681 O694 2.488 . S
Eu681 O695 2.471 . S
Eu681 O696 2.349 . S
Eu681 O699 2.392 1_545 S
Eu681 O700 2.418 1_545 S
Eu681 C710 2.828 . S
C682 O700 1.244 . S
C682 O703 1.265 1_565 S
C683 C684 1.379 1_545 S
C683 C687 1.373 . S
C683 C689 1.505 . S
C684 C683 1.379 1_565 S
C684 C686 1.369 . S
C684 H712 0.930 . S
C685 C687 1.383 . S
C685 C688 1.382 1_545 S
C685 H713 0.930 . S
C686 C684 1.369 . S
C686 C688 1.392 . S
C686 H714 0.930 . S
C687 C683 1.373 . S
C687 C685 1.383 . S
C687 H715 0.931 . S
C688 C685 1.382 1_565 S
C688 C686 1.392 . S
C689 Eu680 2.828 . S
C689 C683 1.505 . S
C689 O701 1.249 . S
C689 O702 1.244 . S
O690 Eu681 2.373 . S
O690 C692 1.258 . S
O691 Eu680 2.392 . S
O691 C692 1.242 . S
C692 O690 1.258 . S
C692 O691 1.242 . S
O693 Eu680 2.418 . S
O693 C697 1.244 . S
O694 Eu681 2.488 . S
O694 C710 1.249 . S
O695 Eu681 2.471 . S
O695 C710 1.244 . S
O696 Eu681 2.349 . S
O696 C697 1.265 . S
C697 O693 1.244 . S
C697 O696 1.265 . S
O698 Eu680 2.373 . S
O698 C711 1.258 1_545 S
O699 Eu681 2.392 1_565 S
O699 C711 1.242 . S
O700 Eu681 2.418 1_565 S
O700 C682 1.244 . S
O701 Eu680 2.488 . S
O701 C689 1.249 . S
O702 Eu680 2.471 . S
O702 C689 1.244 . S
O703 Eu680 2.349 . S
O703 C682 1.265 1_545 S
C704 C705 1.379 . S
C704 C708 1.373 . S
C704 C710 1.505 . S
C705 C704 1.379 . S
C705 C707 1.369 . S
C705 H716 0.930 . S
C706 C708 1.383 . S
C706 C709 1.382 . S
C706 H717 0.930 . S
C707 C705 1.369 . S
C707 C709 1.392 . S
C707 H718 0.930 . S
C708 C704 1.373 . S
C708 C706 1.383 . S
C708 H719 0.931 . S
C709 C706 1.382 . S
C709 C707 1.392 . S
C710 Eu681 2.828 . S
C710 O694 1.249 . S
C710 O695 1.244 . S
C710 C704 1.505 . S
C711 O698 1.258 1_565 S
C711 O699 1.242 . S
H712 C684 0.930 . S
H713 C685 0.930 . S
H714 C686 0.930 . S
H715 C687 0.931 . S
H716 C705 0.930 . S
H717 C706 0.930 . S
H718 C707 0.930 . S
H719 C708 0.931 . S
Eu720 C729 2.828 . S
Eu720 O731 2.392 1_545 S
Eu720 O733 2.418 1_545 S
Eu720 O738 2.373 . S
Eu720 O741 2.488 . S
Eu720 O742 2.471 . S
Eu720 O743 2.349 . S
Eu721 O730 2.373 . S
Eu721 O734 2.488 . S
Eu721 O735 2.471 . S
Eu721 O736 2.349 . S
Eu721 O739 2.392 . S
Eu721 O740 2.418 . S
Eu721 C750 2.828 . S
C722 O740 1.244 . S
C722 O743 1.265 . S
C723 C724 1.379 . S
C723 C727 1.373 . S
C723 C729 1.505 . S
C724 C723 1.379 . S
C724 C726 1.369 . S
C724 H752 0.930 . S
C725 C727 1.383 . S
C725 C728 1.382 . S
C725 H753 0.930 . S
C726 C724 1.369 . S
C726 C728 1.392 . S
C726 H754 0.930 . S
C727 C723 1.373 . S
C727 C725 1.383 . S
C727 H755 0.931 . S
C728 C725 1.382 . S
C728 C726 1.392 . S
C729 Eu720 2.828 . S
C729 C723 1.505 . S
C729 O741 1.249 . S
C729 O742 1.244 . S
O730 Eu721 2.373 . S
O730 C732 1.258 1_545 S
O731 Eu720 2.392 1_565 S
O731 C732 1.242 . S
C732 O730 1.258 1_565 S
C732 O731 1.242 . S
O733 Eu720 2.418 1_565 S
O733 C737 1.244 . S
O734 Eu721 2.488 . S
O734 C750 1.249 . S
O735 Eu721 2.471 . S
O735 C750 1.244 . S
O736 Eu721 2.349 . S
O736 C737 1.265 1_545 S
C737 O733 1.244 . S
C737 O736 1.265 1_565 S
O738 Eu720 2.373 . S
O738 C751 1.258 . S
O739 Eu721 2.392 . S
O739 C751 1.242 . S
O740 Eu721 2.418 . S
O740 C722 1.244 . S
O741 Eu720 2.488 . S
O741 C729 1.249 . S
O742 Eu720 2.471 . S
O742 C729 1.244 . S
O743 Eu720 2.349 . S
O743 C722 1.265 . S
C744 C745 1.379 1_545 S
C744 C748 1.373 . S
C744 C750 1.505 . S
C745 C744 1.379 1_565 S
C745 C747 1.369 . S
C745 H756 0.930 . S
C746 C748 1.383 . S
C746 C749 1.382 1_545 S
C746 H757 0.930 . S
C747 C745 1.369 . S
C747 C749 1.392 . S
C747 H758 0.930 . S
C748 C744 1.373 . S
C748 C746 1.383 . S
C748 H759 0.931 . S
C749 C746 1.382 1_565 S
C749 C747 1.392 . S
C750 Eu721 2.828 . S
C750 O734 1.249 . S
C750 O735 1.244 . S
C750 C744 1.505 . S
C751 O738 1.258 . S
C751 O739 1.242 . S
H752 C724 0.930 . S
H753 C725 0.930 . S
H754 C726 0.930 . S
H755 C727 0.931 . S
H756 C745 0.930 . S
H757 C746 0.930 . S
H758 C747 0.930 . S
H759 C748 0.931 . S
Eu760 C769 2.828 . S
Eu760 O771 2.392 1_655 S
Eu760 O773 2.418 1_655 S
Eu760 O778 2.373 . S
Eu760 O781 2.488 . S
Eu760 O782 2.471 . S
Eu760 O783 2.349 . S
Eu761 O770 2.373 . S
Eu761 O774 2.488 . S
Eu761 O775 2.471 . S
Eu761 O776 2.349 . S
Eu761 O779 2.392 . S
Eu761 O780 2.418 . S
Eu761 C790 2.828 . S
C762 O780 1.244 . S
C762 O783 1.265 . S
C763 C764 1.379 . S
C763 C767 1.373 . S
C763 C769 1.505 . S
C764 C763 1.379 . S
C764 C766 1.369 . S
C764 H792 0.930 . S
C765 C767 1.383 . S
C765 C768 1.382 . S
C765 H793 0.930 . S
C766 C764 1.369 . S
C766 C768 1.392 . S
C766 H794 0.930 . S
C767 C763 1.373 . S
C767 C765 1.383 . S
C767 H795 0.931 . S
C768 C765 1.382 . S
C768 C766 1.392 . S
C769 Eu760 2.828 . S
C769 C763 1.505 . S
C769 O781 1.249 . S
C769 O782 1.244 . S
O770 Eu761 2.373 . S
O770 C772 1.258 1_655 S
O771 Eu760 2.392 1_455 S
O771 C772 1.242 . S
C772 O770 1.258 1_455 S
C772 O771 1.242 . S
O773 Eu760 2.418 1_455 S
O773 C777 1.244 . S
O774 Eu761 2.488 . S
O774 C790 1.249 . S
O775 Eu761 2.471 . S
O775 C790 1.244 . S
O776 Eu761 2.349 . S
O776 C777 1.265 1_655 S
C777 O773 1.244 . S
C777 O776 1.265 1_455 S
O778 Eu760 2.373 . S
O778 C791 1.258 . S
O779 Eu761 2.392 . S
O779 C791 1.242 . S
O780 Eu761 2.418 . S
O780 C762 1.244 . S
O781 Eu760 2.488 . S
O781 C769 1.249 . S
O782 Eu760 2.471 . S
O782 C769 1.244 . S
O783 Eu760 2.349 . S
O783 C762 1.265 . S
C784 C785 1.379 1_655 S
C784 C788 1.373 . S
C784 C790 1.505 . S
C785 C784 1.379 1_455 S
C785 C787 1.369 . S
C785 H796 0.930 . S
C786 C788 1.383 . S
C786 C789 1.382 1_655 S
C786 H797 0.930 . S
C787 C785 1.369 . S
C787 C789 1.392 . S
C787 H798 0.930 . S
C788 C784 1.373 . S
C788 C786 1.383 . S
C788 H799 0.931 . S
C789 C786 1.382 1_455 S
C789 C787 1.392 . S
C790 Eu761 2.828 . S
C790 O774 1.249 . S
C790 O775 1.244 . S
C790 C784 1.505 . S
C791 O778 1.258 . S
C791 O779 1.242 . S
H792 C764 0.930 . S
H793 C765 0.930 . S
H794 C766 0.930 . S
H795 C767 0.931 . S
H796 C785 0.930 . S
H797 C786 0.930 . S
H798 C787 0.930 . S
H799 C788 0.931 . S
Eu800 C809 2.828 . S
Eu800 O811 2.392 . S
Eu800 O813 2.418 . S
Eu800 O818 2.373 . S
Eu800 O821 2.488 . S
Eu800 O822 2.471 . S
Eu800 O823 2.349 . S
Eu801 O810 2.373 . S
Eu801 O814 2.488 . S
Eu801 O815 2.471 . S
Eu801 O816 2.349 . S
Eu801 O819 2.392 . S
Eu801 O820 2.418 . S
Eu801 C830 2.828 . S
C802 O820 1.244 . S
C802 O823 1.265 . S
C803 C804 1.379 . S
C803 C807 1.373 . S
C803 C809 1.505 . S
C804 C803 1.379 . S
C804 C806 1.369 . S
C804 H832 0.930 . S
C805 C807 1.383 . S
C805 C808 1.382 . S
C805 H833 0.930 . S
C806 C804 1.369 . S
C806 C808 1.392 . S
C806 H834 0.930 . S
C807 C803 1.373 . S
C807 C805 1.383 . S
C807 H835 0.931 . S
C808 C805 1.382 . S
C808 C806 1.392 . S
C809 Eu800 2.828 . S
C809 C803 1.505 . S
C809 O821 1.249 . S
C809 O822 1.244 . S
O810 Eu801 2.373 . S
O810 C812 1.258 . S
O811 Eu800 2.392 . S
O811 C812 1.242 . S
C812 O810 1.258 . S
C812 O811 1.242 . S
O813 Eu800 2.418 . S
O813 C817 1.244 . S
O814 Eu801 2.488 . S
O814 C830 1.249 . S
O815 Eu801 2.471 . S
O815 C830 1.244 . S
O816 Eu801 2.349 . S
O816 C817 1.265 . S
C817 O813 1.244 . S
C817 O816 1.265 . S
O818 Eu800 2.373 . S
O818 C831 1.258 . S
O819 Eu801 2.392 . S
O819 C831 1.242 . S
O820 Eu801 2.418 . S
O820 C802 1.244 . S
O821 Eu800 2.488 . S
O821 C809 1.249 . S
O822 Eu800 2.471 . S
O822 C809 1.244 . S
O823 Eu800 2.349 . S
O823 C802 1.265 . S
C824 C825 1.379 . S
C824 C828 1.373 . S
C824 C830 1.505 . S
C825 C824 1.379 . S
C825 C827 1.369 . S
C825 H836 0.930 . S
C826 C828 1.383 . S
C826 C829 1.382 . S
C826 H837 0.930 . S
C827 C825 1.369 . S
C827 C829 1.392 . S
C827 H838 0.930 . S
C828 C824 1.373 . S
C828 C826 1.383 . S
C828 H839 0.931 . S
C829 C826 1.382 . S
C829 C827 1.392 . S
C830 Eu801 2.828 . S
C830 O814 1.249 . S
C830 O815 1.244 . S
C830 C824 1.505 . S
C831 O818 1.258 . S
C831 O819 1.242 . S
H832 C804 0.930 . S
H833 C805 0.930 . S
H834 C806 0.930 . S
H835 C807 0.931 . S
H836 C825 0.930 . S
H837 C826 0.930 . S
H838 C827 0.930 . S
H839 C828 0.931 . S
Eu840 C849 2.828 . S
Eu840 O851 2.392 . S
Eu840 O853 2.418 . S
Eu840 O858 2.373 . S
Eu840 O861 2.488 . S
Eu840 O862 2.471 . S
Eu840 O863 2.349 . S
Eu841 O850 2.373 . S
Eu841 O854 2.488 . S
Eu841 O855 2.471 . S
Eu841 O856 2.349 . S
Eu841 O859 2.392 . S
Eu841 O860 2.418 . S
Eu841 C870 2.828 . S
C842 O860 1.244 . S
C842 O863 1.265 1_556 S
C843 C844 1.379 . S
C843 C847 1.373 . S
C843 C849 1.505 . S
C844 C843 1.379 . S
C844 C846 1.369 . S
C844 H872 0.930 . S
C845 C847 1.383 . S
C845 C848 1.382 . S
C845 H873 0.930 . S
C846 C844 1.369 . S
C846 C848 1.392 . S
C846 H874 0.930 . S
C847 C843 1.373 . S
C847 C845 1.383 . S
C847 H875 0.931 . S
C848 C845 1.382 . S
C848 C846 1.392 . S
C849 Eu840 2.828 . S
C849 C843 1.505 . S
C849 O861 1.249 . S
C849 O862 1.244 . S
O850 Eu841 2.373 . S
O850 C852 1.258 . S
O851 Eu840 2.392 . S
O851 C852 1.242 1_554 S
C852 O850 1.258 . S
C852 O851 1.242 1_556 S
O853 Eu840 2.418 . S
O853 C857 1.244 . S
O854 Eu841 2.488 . S
O854 C870 1.249 . S
O855 Eu841 2.471 . S
O855 C870 1.244 . S
O856 Eu841 2.349 . S
O856 C857 1.265 1_556 S
C857 O853 1.244 . S
C857 O856 1.265 1_554 S
O858 Eu840 2.373 . S
O858 C871 1.258 . S
O859 Eu841 2.392 . S
O859 C871 1.242 1_556 S
O860 Eu841 2.418 . S
O860 C842 1.244 . S
O861 Eu840 2.488 . S
O861 C849 1.249 . S
O862 Eu840 2.471 . S
O862 C849 1.244 . S
O863 Eu840 2.349 . S
O863 C842 1.265 1_554 S
C864 C865 1.379 . S
C864 C868 1.373 . S
C864 C870 1.505 . S
C865 C864 1.379 . S
C865 C867 1.369 . S
C865 H876 0.930 . S
C866 C868 1.383 . S
C866 C869 1.382 . S
C866 H877 0.930 . S
C867 C865 1.369 . S
C867 C869 1.392 . S
C867 H878 0.930 . S
C868 C864 1.373 . S
C868 C866 1.383 . S
C868 H879 0.931 . S
C869 C866 1.382 . S
C869 C867 1.392 . S
C870 Eu841 2.828 . S
C870 O854 1.249 . S
C870 O855 1.244 . S
C870 C864 1.505 . S
C871 O858 1.258 . S
C871 O859 1.242 1_554 S
H872 C844 0.930 . S
H873 C845 0.930 . S
H874 C846 0.930 . S
H875 C847 0.931 . S
H876 C865 0.930 . S
H877 C866 0.930 . S
H878 C867 0.930 . S
H879 C868 0.931 . S
Eu880 C889 2.828 . S
Eu880 O891 2.392 . S
Eu880 O893 2.418 . S
Eu880 O898 2.373 . S
Eu880 O901 2.488 . S
Eu880 O902 2.471 . S
Eu880 O903 2.349 . S
Eu881 O890 2.373 . S
Eu881 O894 2.488 . S
Eu881 O895 2.471 . S
Eu881 O896 2.349 . S
Eu881 O899 2.392 . S
Eu881 O900 2.418 . S
Eu881 C910 2.828 . S
C882 O900 1.244 . S
C882 O903 1.265 1_556 S
C883 C884 1.379 . S
C883 C887 1.373 . S
C883 C889 1.505 . S
C884 C883 1.379 . S
C884 C886 1.369 . S
C884 H912 0.930 . S
C885 C887 1.383 . S
C885 C888 1.382 . S
C885 H913 0.930 . S
C886 C884 1.369 . S
C886 C888 1.392 . S
C886 H914 0.930 . S
C887 C883 1.373 . S
C887 C885 1.383 . S
C887 H915 0.931 . S
C888 C885 1.382 . S
C888 C886 1.392 . S
C889 Eu880 2.828 . S
C889 C883 1.505 . S
C889 O901 1.249 . S
C889 O902 1.244 . S
O890 Eu881 2.373 . S
O890 C892 1.258 . S
O891 Eu880 2.392 . S
O891 C892 1.242 1_554 S
C892 O890 1.258 . S
C892 O891 1.242 1_556 S
O893 Eu880 2.418 . S
O893 C897 1.244 . S
O894 Eu881 2.488 . S
O894 C910 1.249 . S
O895 Eu881 2.471 . S
O895 C910 1.244 . S
O896 Eu881 2.349 . S
O896 C897 1.265 1_556 S
C897 O893 1.244 . S
C897 O896 1.265 1_554 S
O898 Eu880 2.373 . S
O898 C911 1.258 . S
O899 Eu881 2.392 . S
O899 C911 1.242 1_556 S
O900 Eu881 2.418 . S
O900 C882 1.244 . S
O901 Eu880 2.488 . S
O901 C889 1.249 . S
O902 Eu880 2.471 . S
O902 C889 1.244 . S
O903 Eu880 2.349 . S
O903 C882 1.265 1_554 S
C904 C905 1.379 . S
C904 C908 1.373 . S
C904 C910 1.505 . S
C905 C904 1.379 . S
C905 C907 1.369 . S
C905 H916 0.930 . S
C906 C908 1.383 . S
C906 C909 1.382 . S
C906 H917 0.930 . S
C907 C905 1.369 . S
C907 C909 1.392 . S
C907 H918 0.930 . S
C908 C904 1.373 . S
C908 C906 1.383 . S
C908 H919 0.931 . S
C909 C906 1.382 . S
C909 C907 1.392 . S
C910 Eu881 2.828 . S
C910 O894 1.249 . S
C910 O895 1.244 . S
C910 C904 1.505 . S
C911 O898 1.258 . S
C911 O899 1.242 1_554 S
H912 C884 0.930 . S
H913 C885 0.930 . S
H914 C886 0.930 . S
H915 C887 0.931 . S
H916 C905 0.930 . S
H917 C906 0.930 . S
H918 C907 0.930 . S
H919 C908 0.931 . S
Eu920 C929 2.828 . S
Eu920 O931 2.392 . S
Eu920 O933 2.418 . S
Eu920 O938 2.373 . S
Eu920 O941 2.488 . S
Eu920 O942 2.471 . S
Eu920 O943 2.349 . S
Eu921 O930 2.373 . S
Eu921 O934 2.488 . S
Eu921 O935 2.471 . S
Eu921 O936 2.349 . S
Eu921 O939 2.392 . S
Eu921 O940 2.418 . S
Eu921 C950 2.828 . S
C922 O940 1.244 . S
C922 O943 1.265 1_556 S
C923 C924 1.379 . S
C923 C927 1.373 . S
C923 C929 1.505 . S
C924 C923 1.379 . S
C924 C926 1.369 . S
C924 H952 0.930 . S
C925 C927 1.383 . S
C925 C928 1.382 . S
C925 H953 0.930 . S
C926 C924 1.369 . S
C926 C928 1.392 . S
C926 H954 0.930 . S
C927 C923 1.373 . S
C927 C925 1.383 . S
C927 H955 0.931 . S
C928 C925 1.382 . S
C928 C926 1.392 . S
C929 Eu920 2.828 . S
C929 C923 1.505 . S
C929 O941 1.249 . S
C929 O942 1.244 . S
O930 Eu921 2.373 . S
O930 C932 1.258 . S
O931 Eu920 2.392 . S
O931 C932 1.242 1_554 S
C932 O930 1.258 . S
C932 O931 1.242 1_556 S
O933 Eu920 2.418 . S
O933 C937 1.244 . S
O934 Eu921 2.488 . S
O934 C950 1.249 . S
O935 Eu921 2.471 . S
O935 C950 1.244 . S
O936 Eu921 2.349 . S
O936 C937 1.265 1_556 S
C937 O933 1.244 . S
C937 O936 1.265 1_554 S
O938 Eu920 2.373 . S
O938 C951 1.258 . S
O939 Eu921 2.392 . S
O939 C951 1.242 1_556 S
O940 Eu921 2.418 . S
O940 C922 1.244 . S
O941 Eu920 2.488 . S
O941 C929 1.249 . S
O942 Eu920 2.471 . S
O942 C929 1.244 . S
O943 Eu920 2.349 . S
O943 C922 1.265 1_554 S
C944 C945 1.379 . S
C944 C948 1.373 . S
C944 C950 1.505 . S
C945 C944 1.379 . S
C945 C947 1.369 . S
C945 H956 0.930 . S
C946 C948 1.383 . S
C946 C949 1.382 . S
C946 H957 0.930 . S
C947 C945 1.369 . S
C947 C949 1.392 . S
C947 H958 0.930 . S
C948 C944 1.373 . S
C948 C946 1.383 . S
C948 H959 0.931 . S
C949 C946 1.382 . S
C949 C947 1.392 . S
C950 Eu921 2.828 . S
C950 O934 1.249 . S
C950 O935 1.244 . S
C950 C944 1.505 . S
C951 O938 1.258 . S
C951 O939 1.242 1_554 S
H952 C924 0.930 . S
H953 C925 0.930 . S
H954 C926 0.930 . S
H955 C927 0.931 . S
H956 C945 0.930 . S
H957 C946 0.930 . S
H958 C947 0.930 . S
H959 C948 0.931 . S
Eu960 C969 2.828 . S
Eu960 O971 2.392 . S
Eu960 O973 2.418 . S
Eu960 O978 2.373 . S
Eu960 O981 2.488 . S
Eu960 O982 2.471 . S
Eu960 O983 2.349 . S
Eu961 O970 2.373 . S
Eu961 O974 2.488 . S
Eu961 O975 2.471 . S
Eu961 O976 2.349 . S
Eu961 O979 2.392 1_565 S
Eu961 O980 2.418 1_565 S
Eu961 C990 2.828 . S
C962 O980 1.244 . S
C962 O983 1.265 1_545 S
C963 C964 1.379 1_565 S
C963 C967 1.373 . S
C963 C969 1.505 . S
C964 C963 1.379 1_545 S
C964 C966 1.369 . S
C964 H992 0.930 . S
C965 C967 1.383 . S
C965 C968 1.382 1_565 S
C965 H993 0.930 . S
C966 C964 1.369 . S
C966 C968 1.392 . S
C966 H994 0.930 . S
C967 C963 1.373 . S
C967 C965 1.383 . S
C967 H995 0.931 . S
C968 C965 1.382 1_545 S
C968 C966 1.392 . S
C969 Eu960 2.828 . S
C969 C963 1.505 . S
C969 O981 1.249 . S
C969 O982 1.244 . S
O970 Eu961 2.373 . S
O970 C972 1.258 . S
O971 Eu960 2.392 . S
O971 C972 1.242 . S
C972 O970 1.258 . S
C972 O971 1.242 . S
O973 Eu960 2.418 . S
O973 C977 1.244 . S
O974 Eu961 2.488 . S
O974 C990 1.249 . S
O975 Eu961 2.471 . S
O975 C990 1.244 . S
O976 Eu961 2.349 . S
O976 C977 1.265 . S
C977 O973 1.244 . S
C977 O976 1.265 . S
O978 Eu960 2.373 . S
O978 C991 1.258 1_565 S
O979 Eu961 2.392 1_545 S
O979 C991 1.242 . S
O980 Eu961 2.418 1_545 S
O980 C962 1.244 . S
O981 Eu960 2.488 . S
O981 C969 1.249 . S
O982 Eu960 2.471 . S
O982 C969 1.244 . S
O983 Eu960 2.349 . S
O983 C962 1.265 1_565 S
C984 C985 1.379 . S
C984 C988 1.373 . S
C984 C990 1.505 . S
C985 C984 1.379 . S
C985 C987 1.369 . S
C985 H996 0.930 . S
C986 C988 1.383 . S
C986 C989 1.382 . S
C986 H997 0.930 . S
C987 C985 1.369 . S
C987 C989 1.392 . S
C987 H998 0.930 . S
C988 C984 1.373 . S
C988 C986 1.383 . S
C988 H999 0.931 . S
C989 C986 1.382 . S
C989 C987 1.392 . S
C990 Eu961 2.828 . S
C990 O974 1.249 . S
C990 O975 1.244 . S
C990 C984 1.505 . S
C991 O978 1.258 1_545 S
C991 O979 1.242 . S
H992 C964 0.930 . S
H993 C965 0.930 . S
H994 C966 0.930 . S
H995 C967 0.931 . S
H996 C985 0.930 . S
H997 C986 0.930 . S
H998 C987 0.930 . S
H999 C988 0.931 . S
Eu1000 C1009 2.828 . S
Eu1000 O1011 2.392 . S
Eu1000 O1013 2.418 . S
Eu1000 O1018 2.373 . S
Eu1000 O1021 2.488 . S
Eu1000 O1022 2.471 . S
Eu1000 O1023 2.349 . S
Eu1001 O1010 2.373 . S
Eu1001 O1014 2.488 . S
Eu1001 O1015 2.471 . S
Eu1001 O1016 2.349 . S
Eu1001 O1019 2.392 1_455 S
Eu1001 O1020 2.418 1_455 S
Eu1001 C1030 2.828 . S
C1002 O1020 1.244 . S
C1002 O1023 1.265 1_655 S
C1003 C1004 1.379 1_455 S
C1003 C1007 1.373 . S
C1003 C1009 1.505 . S
C1004 C1003 1.379 1_655 S
C1004 C1006 1.369 . S
C1004 H1032 0.930 . S
C1005 C1007 1.383 . S
C1005 C1008 1.382 1_455 S
C1005 H1033 0.930 . S
C1006 C1004 1.369 . S
C1006 C1008 1.392 . S
C1006 H1034 0.930 . S
C1007 C1003 1.373 . S
C1007 C1005 1.383 . S
C1007 H1035 0.931 . S
C1008 C1005 1.382 1_655 S
C1008 C1006 1.392 . S
C1009 Eu1000 2.828 . S
C1009 C1003 1.505 . S
C1009 O1021 1.249 . S
C1009 O1022 1.244 . S
O1010 Eu1001 2.373 . S
O1010 C1012 1.258 . S
O1011 Eu1000 2.392 . S
O1011 C1012 1.242 . S
C1012 O1010 1.258 . S
C1012 O1011 1.242 . S
O1013 Eu1000 2.418 . S
O1013 C1017 1.244 . S
O1014 Eu1001 2.488 . S
O1014 C1030 1.249 . S
O1015 Eu1001 2.471 . S
O1015 C1030 1.244 . S
O1016 Eu1001 2.349 . S
O1016 C1017 1.265 . S
C1017 O1013 1.244 . S
C1017 O1016 1.265 . S
O1018 Eu1000 2.373 . S
O1018 C1031 1.258 1_455 S
O1019 Eu1001 2.392 1_655 S
O1019 C1031 1.242 . S
O1020 Eu1001 2.418 1_655 S
O1020 C1002 1.244 . S
O1021 Eu1000 2.488 . S
O1021 C1009 1.249 . S
O1022 Eu1000 2.471 . S
O1022 C1009 1.244 . S
O1023 Eu1000 2.349 . S
O1023 C1002 1.265 1_455 S
C1024 C1025 1.379 . S
C1024 C1028 1.373 . S
C1024 C1030 1.505 . S
C1025 C1024 1.379 . S
C1025 C1027 1.369 . S
C1025 H1036 0.930 . S
C1026 C1028 1.383 . S
C1026 C1029 1.382 . S
C1026 H1037 0.930 . S
C1027 C1025 1.369 . S
C1027 C1029 1.392 . S
C1027 H1038 0.930 . S
C1028 C1024 1.373 . S
C1028 C1026 1.383 . S
C1028 H1039 0.931 . S
C1029 C1026 1.382 . S
C1029 C1027 1.392 . S
C1030 Eu1001 2.828 . S
C1030 O1014 1.249 . S
C1030 O1015 1.244 . S
C1030 C1024 1.505 . S
C1031 O1018 1.258 1_655 S
C1031 O1019 1.242 . S
H1032 C1004 0.930 . S
H1033 C1005 0.930 . S
H1034 C1006 0.930 . S
H1035 C1007 0.931 . S
H1036 C1025 0.930 . S
H1037 C1026 0.930 . S
H1038 C1027 0.930 . S
H1039 C1028 0.931 . S
Eu1040 C1049 2.828 . S
Eu1040 O1051 2.392 . S
Eu1040 O1053 2.418 . S
Eu1040 O1058 2.373 . S
Eu1040 O1061 2.488 . S
Eu1040 O1062 2.471 . S
Eu1040 O1063 2.349 . S
Eu1041 O1050 2.373 . S
Eu1041 O1054 2.488 . S
Eu1041 O1055 2.471 . S
Eu1041 O1056 2.349 . S
Eu1041 O1059 2.392 . S
Eu1041 O1060 2.418 . S
Eu1041 C1070 2.828 . S
C1042 O1060 1.244 . S
C1042 O1063 1.265 . S
C1043 C1044 1.379 . S
C1043 C1047 1.373 . S
C1043 C1049 1.505 . S
C1044 C1043 1.379 . S
C1044 C1046 1.369 . S
C1044 H1072 0.930 . S
C1045 C1047 1.383 . S
C1045 C1048 1.382 . S
C1045 H1073 0.930 . S
C1046 C1044 1.369 . S
C1046 C1048 1.392 . S
C1046 H1074 0.930 . S
C1047 C1043 1.373 . S
C1047 C1045 1.383 . S
C1047 H1075 0.931 . S
C1048 C1045 1.382 . S
C1048 C1046 1.392 . S
C1049 Eu1040 2.828 . S
C1049 C1043 1.505 . S
C1049 O1061 1.249 . S
C1049 O1062 1.244 . S
O1050 Eu1041 2.373 . S
O1050 C1052 1.258 . S
O1051 Eu1040 2.392 . S
O1051 C1052 1.242 . S
C1052 O1050 1.258 . S
C1052 O1051 1.242 . S
O1053 Eu1040 2.418 . S
O1053 C1057 1.244 . S
O1054 Eu1041 2.488 . S
O1054 C1070 1.249 . S
O1055 Eu1041 2.471 . S
O1055 C1070 1.244 . S
O1056 Eu1041 2.349 . S
O1056 C1057 1.265 . S
C1057 O1053 1.244 . S
C1057 O1056 1.265 . S
O1058 Eu1040 2.373 . S
O1058 C1071 1.258 . S
O1059 Eu1041 2.392 . S
O1059 C1071 1.242 . S
O1060 Eu1041 2.418 . S
O1060 C1042 1.244 . S
O1061 Eu1040 2.488 . S
O1061 C1049 1.249 . S
O1062 Eu1040 2.471 . S
O1062 C1049 1.244 . S
O1063 Eu1040 2.349 . S
O1063 C1042 1.265 . S
C1064 C1065 1.379 . S
C1064 C1068 1.373 . S
C1064 C1070 1.505 . S
C1065 C1064 1.379 . S
C1065 C1067 1.369 . S
C1065 H1076 0.930 . S
C1066 C1068 1.383 . S
C1066 C1069 1.382 . S
C1066 H1077 0.930 . S
C1067 C1065 1.369 . S
C1067 C1069 1.392 . S
C1067 H1078 0.930 . S
C1068 C1064 1.373 . S
C1068 C1066 1.383 . S
C1068 H1079 0.931 . S
C1069 C1066 1.382 . S
C1069 C1067 1.392 . S
C1070 Eu1041 2.828 . S
C1070 O1054 1.249 . S
C1070 O1055 1.244 . S
C1070 C1064 1.505 . S
C1071 O1058 1.258 . S
C1071 O1059 1.242 . S
H1072 C1044 0.930 . S
H1073 C1045 0.930 . S
H1074 C1046 0.930 . S
H1075 C1047 0.931 . S
H1076 C1065 0.930 . S
H1077 C1066 0.930 . S
H1078 C1067 0.930 . S
H1079 C1068 0.931 . S
Eu1080 C1089 2.828 . S
Eu1080 O1091 2.392 . S
Eu1080 O1093 2.418 . S
Eu1080 O1098 2.373 . S
Eu1080 O1101 2.488 . S
Eu1080 O1102 2.471 . S
Eu1080 O1103 2.349 . S
Eu1081 O1090 2.373 . S
Eu1081 O1094 2.488 . S
Eu1081 O1095 2.471 . S
Eu1081 O1096 2.349 . S
Eu1081 O1099 2.392 . S
Eu1081 O1100 2.418 . S
Eu1081 C1110 2.828 . S
C1082 O1100 1.244 . S
C1082 O1103 1.265 1_556 S
C1083 C1084 1.379 . S
C1083 C1087 1.373 . S
C1083 C1089 1.505 . S
C1084 C1083 1.379 . S
C1084 C1086 1.369 . S
C1084 H1112 0.930 . S
C1085 C1087 1.383 . S
C1085 C1088 1.382 . S
C1085 H1113 0.930 . S
C1086 C1084 1.369 . S
C1086 C1088 1.392 . S
C1086 H1114 0.930 . S
C1087 C1083 1.373 . S
C1087 C1085 1.383 . S
C1087 H1115 0.931 . S
C1088 C1085 1.382 . S
C1088 C1086 1.392 . S
C1089 Eu1080 2.828 . S
C1089 C1083 1.505 . S
C1089 O1101 1.249 . S
C1089 O1102 1.244 . S
O1090 Eu1081 2.373 . S
O1090 C1092 1.258 . S
O1091 Eu1080 2.392 . S
O1091 C1092 1.242 1_554 S
C1092 O1090 1.258 . S
C1092 O1091 1.242 1_556 S
O1093 Eu1080 2.418 . S
O1093 C1097 1.244 . S
O1094 Eu1081 2.488 . S
O1094 C1110 1.249 . S
O1095 Eu1081 2.471 . S
O1095 C1110 1.244 . S
O1096 Eu1081 2.349 . S
O1096 C1097 1.265 1_556 S
C1097 O1093 1.244 . S
C1097 O1096 1.265 1_554 S
O1098 Eu1080 2.373 . S
O1098 C1111 1.258 . S
O1099 Eu1081 2.392 . S
O1099 C1111 1.242 1_556 S
O1100 Eu1081 2.418 . S
O1100 C1082 1.244 . S
O1101 Eu1080 2.488 . S
O1101 C1089 1.249 . S
O1102 Eu1080 2.471 . S
O1102 C1089 1.244 . S
O1103 Eu1080 2.349 . S
O1103 C1082 1.265 1_554 S
C1104 C1105 1.379 . S
C1104 C1108 1.373 . S
C1104 C1110 1.505 . S
C1105 C1104 1.379 . S
C1105 C1107 1.369 . S
C1105 H1116 0.930 . S
C1106 C1108 1.383 . S
C1106 C1109 1.382 . S
C1106 H1117 0.930 . S
C1107 C1105 1.369 . S
C1107 C1109 1.392 . S
C1107 H1118 0.930 . S
C1108 C1104 1.373 . S
C1108 C1106 1.383 . S
C1108 H1119 0.931 . S
C1109 C1106 1.382 . S
C1109 C1107 1.392 . S
C1110 Eu1081 2.828 . S
C1110 O1094 1.249 . S
C1110 O1095 1.244 . S
C1110 C1104 1.505 . S
C1111 O1098 1.258 . S
C1111 O1099 1.242 1_554 S
H1112 C1084 0.930 . S
H1113 C1085 0.930 . S
H1114 C1086 0.930 . S
H1115 C1087 0.931 . S
H1116 C1105 0.930 . S
H1117 C1106 0.930 . S
H1118 C1107 0.930 . S
H1119 C1108 0.931 . S
Eu1120 C1129 2.828 . S
Eu1120 O1131 2.392 . S
Eu1120 O1133 2.418 . S
Eu1120 O1138 2.373 . S
Eu1120 O1141 2.488 . S
Eu1120 O1142 2.471 . S
Eu1120 O1143 2.349 . S
Eu1121 O1130 2.373 . S
Eu1121 O1134 2.488 . S
Eu1121 O1135 2.471 . S
Eu1121 O1136 2.349 . S
Eu1121 O1139 2.392 . S
Eu1121 O1140 2.418 . S
Eu1121 C1150 2.828 . S
C1122 O1140 1.244 . S
C1122 O1143 1.265 1_556 S
C1123 C1124 1.379 . S
C1123 C1127 1.373 . S
C1123 C1129 1.505 . S
C1124 C1123 1.379 . S
C1124 C1126 1.369 . S
C1124 H1152 0.930 . S
C1125 C1127 1.383 . S
C1125 C1128 1.382 . S
C1125 H1153 0.930 . S
C1126 C1124 1.369 . S
C1126 C1128 1.392 . S
C1126 H1154 0.930 . S
C1127 C1123 1.373 . S
C1127 C1125 1.383 . S
C1127 H1155 0.931 . S
C1128 C1125 1.382 . S
C1128 C1126 1.392 . S
C1129 Eu1120 2.828 . S
C1129 C1123 1.505 . S
C1129 O1141 1.249 . S
C1129 O1142 1.244 . S
O1130 Eu1121 2.373 . S
O1130 C1132 1.258 . S
O1131 Eu1120 2.392 . S
O1131 C1132 1.242 1_554 S
C1132 O1130 1.258 . S
C1132 O1131 1.242 1_556 S
O1133 Eu1120 2.418 . S
O1133 C1137 1.244 . S
O1134 Eu1121 2.488 . S
O1134 C1150 1.249 . S
O1135 Eu1121 2.471 . S
O1135 C1150 1.244 . S
O1136 Eu1121 2.349 . S
O1136 C1137 1.265 1_556 S
C1137 O1133 1.244 . S
C1137 O1136 1.265 1_554 S
O1138 Eu1120 2.373 . S
O1138 C1151 1.258 . S
O1139 Eu1121 2.392 . S
O1139 C1151 1.242 1_556 S
O1140 Eu1121 2.418 . S
O1140 C1122 1.244 . S
O1141 Eu1120 2.488 . S
O1141 C1129 1.249 . S
O1142 Eu1120 2.471 . S
O1142 C1129 1.244 . S
O1143 Eu1120 2.349 . S
O1143 C1122 1.265 1_554 S
C1144 C1145 1.379 . S
C1144 C1148 1.373 . S
C1144 C1150 1.505 . S
C1145 C1144 1.379 . S
C1145 C1147 1.369 . S
C1145 H1156 0.930 . S
C1146 C1148 1.383 . S
C1146 C1149 1.382 . S
C1146 H1157 0.930 . S
C1147 C1145 1.369 . S
C1147 C1149 1.392 . S
C1147 H1158 0.930 . S
C1148 C1144 1.373 . S
C1148 C1146 1.383 . S
C1148 H1159 0.931 . S
C1149 C1146 1.382 . S
C1149 C1147 1.392 . S
C1150 Eu1121 2.828 . S
C1150 O1134 1.249 . S
C1150 O1135 1.244 . S
C1150 C1144 1.505 . S
C1151 O1138 1.258 . S
C1151 O1139 1.242 1_554 S
H1152 C1124 0.930 . S
H1153 C1125 0.930 . S
H1154 C1126 0.930 . S
H1155 C1127 0.931 . S
H1156 C1145 0.930 . S
H1157 C1146 0.930 . S
H1158 C1147 0.930 . S
H1159 C1148 0.931 . S
Eu1160 C1169 2.828 . S
Eu1160 O1171 2.392 . S
Eu1160 O1173 2.418 . S
Eu1160 O1178 2.373 . S
Eu1160 O1181 2.488 . S
Eu1160 O1182 2.471 . S
Eu1160 O1183 2.349 . S
Eu1161 O1170 2.373 . S
Eu1161 O1174 2.488 . S
Eu1161 O1175 2.471 . S
Eu1161 O1176 2.349 . S
Eu1161 O1179 2.392 . S
Eu1161 O1180 2.418 . S
Eu1161 C1190 2.828 . S
C1162 O1180 1.244 . S
C1162 O1183 1.265 1_556 S
C1163 C1164 1.379 . S
C1163 C1167 1.373 . S
C1163 C1169 1.505 . S
C1164 C1163 1.379 . S
C1164 C1166 1.369 . S
C1164 H1192 0.930 . S
C1165 C1167 1.383 . S
C1165 C1168 1.382 . S
C1165 H1193 0.930 . S
C1166 C1164 1.369 . S
C1166 C1168 1.392 . S
C1166 H1194 0.930 . S
C1167 C1163 1.373 . S
C1167 C1165 1.383 . S
C1167 H1195 0.931 . S
C1168 C1165 1.382 . S
C1168 C1166 1.392 . S
C1169 Eu1160 2.828 . S
C1169 C1163 1.505 . S
C1169 O1181 1.249 . S
C1169 O1182 1.244 . S
O1170 Eu1161 2.373 . S
O1170 C1172 1.258 . S
O1171 Eu1160 2.392 . S
O1171 C1172 1.242 1_554 S
C1172 O1170 1.258 . S
C1172 O1171 1.242 1_556 S
O1173 Eu1160 2.418 . S
O1173 C1177 1.244 . S
O1174 Eu1161 2.488 . S
O1174 C1190 1.249 . S
O1175 Eu1161 2.471 . S
O1175 C1190 1.244 . S
O1176 Eu1161 2.349 . S
O1176 C1177 1.265 1_556 S
C1177 O1173 1.244 . S
C1177 O1176 1.265 1_554 S
O1178 Eu1160 2.373 . S
O1178 C1191 1.258 . S
O1179 Eu1161 2.392 . S
O1179 C1191 1.242 1_556 S
O1180 Eu1161 2.418 . S
O1180 C1162 1.244 . S
O1181 Eu1160 2.488 . S
O1181 C1169 1.249 . S
O1182 Eu1160 2.471 . S
O1182 C1169 1.244 . S
O1183 Eu1160 2.349 . S
O1183 C1162 1.265 1_554 S
C1184 C1185 1.379 . S
C1184 C1188 1.373 . S
C1184 C1190 1.505 . S
C1185 C1184 1.379 . S
C1185 C1187 1.369 . S
C1185 H1196 0.930 . S
C1186 C1188 1.383 . S
C1186 C1189 1.382 . S
C1186 H1197 0.930 . S
C1187 C1185 1.369 . S
C1187 C1189 1.392 . S
C1187 H1198 0.930 . S
C1188 C1184 1.373 . S
C1188 C1186 1.383 . S
C1188 H1199 0.931 . S
C1189 C1186 1.382 . S
C1189 C1187 1.392 . S
C1190 Eu1161 2.828 . S
C1190 O1174 1.249 . S
C1190 O1175 1.244 . S
C1190 C1184 1.505 . S
C1191 O1178 1.258 . S
C1191 O1179 1.242 1_554 S
H1192 C1164 0.930 . S
H1193 C1165 0.930 . S
H1194 C1166 0.930 . S
H1195 C1167 0.931 . S
H1196 C1185 0.930 . S
H1197 C1186 0.930 . S
H1198 C1187 0.930 . S
H1199 C1188 0.931 . S
Eu1200 C1209 2.828 . S
Eu1200 O1211 2.392 . S
Eu1200 O1213 2.418 . S
Eu1200 O1218 2.373 . S
Eu1200 O1221 2.488 . S
Eu1200 O1222 2.471 . S
Eu1200 O1223 2.349 . S
Eu1201 O1210 2.373 . S
Eu1201 O1214 2.488 . S
Eu1201 O1215 2.471 . S
Eu1201 O1216 2.349 . S
Eu1201 O1219 2.392 . S
Eu1201 O1220 2.418 . S
Eu1201 C1230 2.828 . S
C1202 O1220 1.244 . S
C1202 O1223 1.265 . S
C1203 C1204 1.379 . S
C1203 C1207 1.373 . S
C1203 C1209 1.505 . S
C1204 C1203 1.379 . S
C1204 C1206 1.369 . S
C1204 H1232 0.930 . S
C1205 C1207 1.383 . S
C1205 C1208 1.382 . S
C1205 H1233 0.930 . S
C1206 C1204 1.369 . S
C1206 C1208 1.392 . S
C1206 H1234 0.930 . S
C1207 C1203 1.373 . S
C1207 C1205 1.383 . S
C1207 H1235 0.931 . S
C1208 C1205 1.382 . S
C1208 C1206 1.392 . S
C1209 Eu1200 2.828 . S
C1209 C1203 1.505 . S
C1209 O1221 1.249 . S
C1209 O1222 1.244 . S
O1210 Eu1201 2.373 . S
O1210 C1212 1.258 . S
O1211 Eu1200 2.392 . S
O1211 C1212 1.242 . S
C1212 O1210 1.258 . S
C1212 O1211 1.242 . S
O1213 Eu1200 2.418 . S
O1213 C1217 1.244 . S
O1214 Eu1201 2.488 . S
O1214 C1230 1.249 . S
O1215 Eu1201 2.471 . S
O1215 C1230 1.244 . S
O1216 Eu1201 2.349 . S
O1216 C1217 1.265 . S
C1217 O1213 1.244 . S
C1217 O1216 1.265 . S
O1218 Eu1200 2.373 . S
O1218 C1231 1.258 . S
O1219 Eu1201 2.392 . S
O1219 C1231 1.242 . S
O1220 Eu1201 2.418 . S
O1220 C1202 1.244 . S
O1221 Eu1200 2.488 . S
O1221 C1209 1.249 . S
O1222 Eu1200 2.471 . S
O1222 C1209 1.244 . S
O1223 Eu1200 2.349 . S
O1223 C1202 1.265 . S
C1224 C1225 1.379 . S
C1224 C1228 1.373 . S
C1224 C1230 1.505 . S
C1225 C1224 1.379 . S
C1225 C1227 1.369 . S
C1225 H1236 0.930 . S
C1226 C1228 1.383 . S
C1226 C1229 1.382 . S
C1226 H1237 0.930 . S
C1227 C1225 1.369 . S
C1227 C1229 1.392 . S
C1227 H1238 0.930 . S
C1228 C1224 1.373 . S
C1228 C1226 1.383 . S
C1228 H1239 0.931 . S
C1229 C1226 1.382 . S
C1229 C1227 1.392 . S
C1230 Eu1201 2.828 . S
C1230 O1214 1.249 . S
C1230 O1215 1.244 . S
C1230 C1224 1.505 . S
C1231 O1218 1.258 . S
C1231 O1219 1.242 . S
H1232 C1204 0.930 . S
H1233 C1205 0.930 . S
H1234 C1206 0.930 . S
H1235 C1207 0.931 . S
H1236 C1225 0.930 . S
H1237 C1226 0.930 . S
H1238 C1227 0.930 . S
H1239 C1228 0.931 . S
Eu1240 C1249 2.828 . S
Eu1240 O1251 2.392 . S
Eu1240 O1253 2.418 . S
Eu1240 O1258 2.373 . S
Eu1240 O1261 2.488 . S
Eu1240 O1262 2.471 . S
Eu1240 O1263 2.349 . S
Eu1241 O1250 2.373 . S
Eu1241 O1254 2.488 . S
Eu1241 O1255 2.471 . S
Eu1241 O1256 2.349 . S
Eu1241 O1259 2.392 . S
Eu1241 O1260 2.418 . S
Eu1241 C1270 2.828 . S
C1242 O1260 1.244 . S
C1242 O1263 1.265 . S
C1243 C1244 1.379 . S
C1243 C1247 1.373 . S
C1243 C1249 1.505 . S
C1244 C1243 1.379 . S
C1244 C1246 1.369 . S
C1244 H1272 0.930 . S
C1245 C1247 1.383 . S
C1245 C1248 1.382 . S
C1245 H1273 0.930 . S
C1246 C1244 1.369 . S
C1246 C1248 1.392 . S
C1246 H1274 0.930 . S
C1247 C1243 1.373 . S
C1247 C1245 1.383 . S
C1247 H1275 0.931 . S
C1248 C1245 1.382 . S
C1248 C1246 1.392 . S
C1249 Eu1240 2.828 . S
C1249 C1243 1.505 . S
C1249 O1261 1.249 . S
C1249 O1262 1.244 . S
O1250 Eu1241 2.373 . S
O1250 C1252 1.258 . S
O1251 Eu1240 2.392 . S
O1251 C1252 1.242 . S
C1252 O1250 1.258 . S
C1252 O1251 1.242 . S
O1253 Eu1240 2.418 . S
O1253 C1257 1.244 . S
O1254 Eu1241 2.488 . S
O1254 C1270 1.249 . S
O1255 Eu1241 2.471 . S
O1255 C1270 1.244 . S
O1256 Eu1241 2.349 . S
O1256 C1257 1.265 . S
C1257 O1253 1.244 . S
C1257 O1256 1.265 . S
O1258 Eu1240 2.373 . S
O1258 C1271 1.258 . S
O1259 Eu1241 2.392 . S
O1259 C1271 1.242 . S
O1260 Eu1241 2.418 . S
O1260 C1242 1.244 . S
O1261 Eu1240 2.488 . S
O1261 C1249 1.249 . S
O1262 Eu1240 2.471 . S
O1262 C1249 1.244 . S
O1263 Eu1240 2.349 . S
O1263 C1242 1.265 . S
C1264 C1265 1.379 . S
C1264 C1268 1.373 . S
C1264 C1270 1.505 . S
C1265 C1264 1.379 . S
C1265 C1267 1.369 . S
C1265 H1276 0.930 . S
C1266 C1268 1.383 . S
C1266 C1269 1.382 . S
C1266 H1277 0.930 . S
C1267 C1265 1.369 . S
C1267 C1269 1.392 . S
C1267 H1278 0.930 . S
C1268 C1264 1.373 . S
C1268 C1266 1.383 . S
C1268 H1279 0.931 . S
C1269 C1266 1.382 . S
C1269 C1267 1.392 . S
C1270 Eu1241 2.828 . S
C1270 O1254 1.249 . S
C1270 O1255 1.244 . S
C1270 C1264 1.505 . S
C1271 O1258 1.258 . S
C1271 O1259 1.242 . S
H1272 C1244 0.930 . S
H1273 C1245 0.930 . S
H1274 C1246 0.930 . S
H1275 C1247 0.931 . S
H1276 C1265 0.930 . S
H1277 C1266 0.930 . S
H1278 C1267 0.930 . S
H1279 C1268 0.931 . S
Eu1280 C1289 2.828 . S
Eu1280 O1291 2.392 . S
Eu1280 O1293 2.418 . S
Eu1280 O1298 2.373 . S
Eu1280 O1301 2.488 . S
Eu1280 O1302 2.471 . S
Eu1280 O1303 2.349 . S
Eu1281 O1290 2.373 . S
Eu1281 O1294 2.488 . S
Eu1281 O1295 2.471 . S
Eu1281 O1296 2.349 . S
Eu1281 O1299 2.392 . S
Eu1281 O1300 2.418 . S
Eu1281 C1310 2.828 . S
C1282 O1300 1.244 . S
C1282 O1303 1.265 . S
C1283 C1284 1.379 . S
C1283 C1287 1.373 . S
C1283 C1289 1.505 . S
C1284 C1283 1.379 . S
C1284 C1286 1.369 . S
C1284 H1312 0.930 . S
C1285 C1287 1.383 . S
C1285 C1288 1.382 . S
C1285 H1313 0.930 . S
C1286 C1284 1.369 . S
C1286 C1288 1.392 . S
C1286 H1314 0.930 . S
C1287 C1283 1.373 . S
C1287 C1285 1.383 . S
C1287 H1315 0.931 . S
C1288 C1285 1.382 . S
C1288 C1286 1.392 . S
C1289 Eu1280 2.828 . S
C1289 C1283 1.505 . S
C1289 O1301 1.249 . S
C1289 O1302 1.244 . S
O1290 Eu1281 2.373 . S
O1290 C1292 1.258 . S
O1291 Eu1280 2.392 . S
O1291 C1292 1.242 . S
C1292 O1290 1.258 . S
C1292 O1291 1.242 . S
O1293 Eu1280 2.418 . S
O1293 C1297 1.244 . S
O1294 Eu1281 2.488 . S
O1294 C1310 1.249 . S
O1295 Eu1281 2.471 . S
O1295 C1310 1.244 . S
O1296 Eu1281 2.349 . S
O1296 C1297 1.265 . S
C1297 O1293 1.244 . S
C1297 O1296 1.265 . S
O1298 Eu1280 2.373 . S
O1298 C1311 1.258 . S
O1299 Eu1281 2.392 . S
O1299 C1311 1.242 . S
O1300 Eu1281 2.418 . S
O1300 C1282 1.244 . S
O1301 Eu1280 2.488 . S
O1301 C1289 1.249 . S
O1302 Eu1280 2.471 . S
O1302 C1289 1.244 . S
O1303 Eu1280 2.349 . S
O1303 C1282 1.265 . S
C1304 C1305 1.379 . S
C1304 C1308 1.373 . S
C1304 C1310 1.505 . S
C1305 C1304 1.379 . S
C1305 C1307 1.369 . S
C1305 H1316 0.930 . S
C1306 C1308 1.383 . S
C1306 C1309 1.382 . S
C1306 H1317 0.930 . S
C1307 C1305 1.369 . S
C1307 C1309 1.392 . S
C1307 H1318 0.930 . S
C1308 C1304 1.373 . S
C1308 C1306 1.383 . S
C1308 H1319 0.931 . S
C1309 C1306 1.382 . S
C1309 C1307 1.392 . S
C1310 Eu1281 2.828 . S
C1310 O1294 1.249 . S
C1310 O1295 1.244 . S
C1310 C1304 1.505 . S
C1311 O1298 1.258 . S
C1311 O1299 1.242 . S
H1312 C1284 0.930 . S
H1313 C1285 0.930 . S
H1314 C1286 0.930 . S
H1315 C1287 0.931 . S
H1316 C1305 0.930 . S
H1317 C1306 0.930 . S
H1318 C1307 0.930 . S
H1319 C1308 0.931 . S
Eu1320 C1329 2.828 . S
Eu1320 O1331 2.392 1_455 S
Eu1320 O1333 2.418 1_455 S
Eu1320 O1338 2.373 . S
Eu1320 O1341 2.488 . S
Eu1320 O1342 2.471 . S
Eu1320 O1343 2.349 . S
Eu1321 O1330 2.373 . S
Eu1321 O1334 2.488 . S
Eu1321 O1335 2.471 . S
Eu1321 O1336 2.349 . S
Eu1321 O1339 2.392 . S
Eu1321 O1340 2.418 . S
Eu1321 C1350 2.828 . S
C1322 O1340 1.244 . S
C1322 O1343 1.265 . S
C1323 C1324 1.379 . S
C1323 C1327 1.373 . S
C1323 C1329 1.505 . S
C1324 C1323 1.379 . S
C1324 C1326 1.369 . S
C1324 H1352 0.930 . S
C1325 C1327 1.383 . S
C1325 C1328 1.382 . S
C1325 H1353 0.930 . S
C1326 C1324 1.369 . S
C1326 C1328 1.392 . S
C1326 H1354 0.930 . S
C1327 C1323 1.373 . S
C1327 C1325 1.383 . S
C1327 H1355 0.931 . S
C1328 C1325 1.382 . S
C1328 C1326 1.392 . S
C1329 Eu1320 2.828 . S
C1329 C1323 1.505 . S
C1329 O1341 1.249 . S
C1329 O1342 1.244 . S
O1330 Eu1321 2.373 . S
O1330 C1332 1.258 1_455 S
O1331 Eu1320 2.392 1_655 S
O1331 C1332 1.242 . S
C1332 O1330 1.258 1_655 S
C1332 O1331 1.242 . S
O1333 Eu1320 2.418 1_655 S
O1333 C1337 1.244 . S
O1334 Eu1321 2.488 . S
O1334 C1350 1.249 . S
O1335 Eu1321 2.471 . S
O1335 C1350 1.244 . S
O1336 Eu1321 2.349 . S
O1336 C1337 1.265 1_455 S
C1337 O1333 1.244 . S
C1337 O1336 1.265 1_655 S
O1338 Eu1320 2.373 . S
O1338 C1351 1.258 . S
O1339 Eu1321 2.392 . S
O1339 C1351 1.242 . S
O1340 Eu1321 2.418 . S
O1340 C1322 1.244 . S
O1341 Eu1320 2.488 . S
O1341 C1329 1.249 . S
O1342 Eu1320 2.471 . S
O1342 C1329 1.244 . S
O1343 Eu1320 2.349 . S
O1343 C1322 1.265 . S
C1344 C1345 1.379 1_455 S
C1344 C1348 1.373 . S
C1344 C1350 1.505 . S
C1345 C1344 1.379 1_655 S
C1345 C1347 1.369 . S
C1345 H1356 0.930 . S
C1346 C1348 1.383 . S
C1346 C1349 1.382 1_455 S
C1346 H1357 0.930 . S
C1347 C1345 1.369 . S
C1347 C1349 1.392 . S
C1347 H1358 0.930 . S
C1348 C1344 1.373 . S
C1348 C1346 1.383 . S
C1348 H1359 0.931 . S
C1349 C1346 1.382 1_655 S
C1349 C1347 1.392 . S
C1350 Eu1321 2.828 . S
C1350 O1334 1.249 . S
C1350 O1335 1.244 . S
C1350 C1344 1.505 . S
C1351 O1338 1.258 . S
C1351 O1339 1.242 . S
H1352 C1324 0.930 . S
H1353 C1325 0.930 . S
H1354 C1326 0.930 . S
H1355 C1327 0.931 . S
H1356 C1345 0.930 . S
H1357 C1346 0.930 . S
H1358 C1347 0.930 . S
H1359 C1348 0.931 . S
Eu1360 C1369 2.828 . S
Eu1360 O1371 2.392 . S
Eu1360 O1373 2.418 . S
Eu1360 O1378 2.373 . S
Eu1360 O1381 2.488 . S
Eu1360 O1382 2.471 . S
Eu1360 O1383 2.349 . S
Eu1361 O1370 2.373 . S
Eu1361 O1374 2.488 . S
Eu1361 O1375 2.471 . S
Eu1361 O1376 2.349 . S
Eu1361 O1379 2.392 . S
Eu1361 O1380 2.418 . S
Eu1361 C1390 2.828 . S
C1362 O1380 1.244 . S
C1362 O1383 1.265 . S
C1363 C1364 1.379 . S
C1363 C1367 1.373 . S
C1363 C1369 1.505 . S
C1364 C1363 1.379 . S
C1364 C1366 1.369 . S
C1364 H1392 0.930 . S
C1365 C1367 1.383 . S
C1365 C1368 1.382 . S
C1365 H1393 0.930 . S
C1366 C1364 1.369 . S
C1366 C1368 1.392 . S
C1366 H1394 0.930 . S
C1367 C1363 1.373 . S
C1367 C1365 1.383 . S
C1367 H1395 0.931 . S
C1368 C1365 1.382 . S
C1368 C1366 1.392 . S
C1369 Eu1360 2.828 . S
C1369 C1363 1.505 . S
C1369 O1381 1.249 . S
C1369 O1382 1.244 . S
O1370 Eu1361 2.373 . S
O1370 C1372 1.258 . S
O1371 Eu1360 2.392 . S
O1371 C1372 1.242 . S
C1372 O1370 1.258 . S
C1372 O1371 1.242 . S
O1373 Eu1360 2.418 . S
O1373 C1377 1.244 . S
O1374 Eu1361 2.488 . S
O1374 C1390 1.249 . S
O1375 Eu1361 2.471 . S
O1375 C1390 1.244 . S
O1376 Eu1361 2.349 . S
O1376 C1377 1.265 . S
C1377 O1373 1.244 . S
C1377 O1376 1.265 . S
O1378 Eu1360 2.373 . S
O1378 C1391 1.258 . S
O1379 Eu1361 2.392 . S
O1379 C1391 1.242 . S
O1380 Eu1361 2.418 . S
O1380 C1362 1.244 . S
O1381 Eu1360 2.488 . S
O1381 C1369 1.249 . S
O1382 Eu1360 2.471 . S
O1382 C1369 1.244 . S
O1383 Eu1360 2.349 . S
O1383 C1362 1.265 . S
C1384 C1385 1.379 . S
C1384 C1388 1.373 . S
C1384 C1390 1.505 . S
C1385 C1384 1.379 . S
C1385 C1387 1.369 . S
C1385 H1396 0.930 . S
C1386 C1388 1.383 . S
C1386 C1389 1.382 . S
C1386 H1397 0.930 . S
C1387 C1385 1.369 . S
C1387 C1389 1.392 . S
C1387 H1398 0.930 . S
C1388 C1384 1.373 . S
C1388 C1386 1.383 . S
C1388 H1399 0.931 . S
C1389 C1386 1.382 . S
C1389 C1387 1.392 . S
C1390 Eu1361 2.828 . S
C1390 O1374 1.249 . S
C1390 O1375 1.244 . S
C1390 C1384 1.505 . S
C1391 O1378 1.258 . S
C1391 O1379 1.242 . S
H1392 C1364 0.930 . S
H1393 C1365 0.930 . S
H1394 C1366 0.930 . S
H1395 C1367 0.931 . S
H1396 C1385 0.930 . S
H1397 C1386 0.930 . S
H1398 C1387 0.930 . S
H1399 C1388 0.931 . S
Eu1400 C1409 2.828 . S
Eu1400 O1411 2.392 1_565 S
Eu1400 O1413 2.418 1_565 S
Eu1400 O1418 2.373 . S
Eu1400 O1421 2.488 . S
Eu1400 O1422 2.471 . S
Eu1400 O1423 2.349 . S
Eu1401 O1410 2.373 . S
Eu1401 O1414 2.488 . S
Eu1401 O1415 2.471 . S
Eu1401 O1416 2.349 . S
Eu1401 O1419 2.392 . S
Eu1401 O1420 2.418 . S
Eu1401 C1430 2.828 . S
C1402 O1420 1.244 . S
C1402 O1423 1.265 . S
C1403 C1404 1.379 . S
C1403 C1407 1.373 . S
C1403 C1409 1.505 . S
C1404 C1403 1.379 . S
C1404 C1406 1.369 . S
C1404 H1432 0.930 . S
C1405 C1407 1.383 . S
C1405 C1408 1.382 . S
C1405 H1433 0.930 . S
C1406 C1404 1.369 . S
C1406 C1408 1.392 . S
C1406 H1434 0.930 . S
C1407 C1403 1.373 . S
C1407 C1405 1.383 . S
C1407 H1435 0.931 . S
C1408 C1405 1.382 . S
C1408 C1406 1.392 . S
C1409 Eu1400 2.828 . S
C1409 C1403 1.505 . S
C1409 O1421 1.249 . S
C1409 O1422 1.244 . S
O1410 Eu1401 2.373 . S
O1410 C1412 1.258 1_565 S
O1411 Eu1400 2.392 1_545 S
O1411 C1412 1.242 . S
C1412 O1410 1.258 1_545 S
C1412 O1411 1.242 . S
O1413 Eu1400 2.418 1_545 S
O1413 C1417 1.244 . S
O1414 Eu1401 2.488 . S
O1414 C1430 1.249 . S
O1415 Eu1401 2.471 . S
O1415 C1430 1.244 . S
O1416 Eu1401 2.349 . S
O1416 C1417 1.265 1_565 S
C1417 O1413 1.244 . S
C1417 O1416 1.265 1_545 S
O1418 Eu1400 2.373 . S
O1418 C1431 1.258 . S
O1419 Eu1401 2.392 . S
O1419 C1431 1.242 . S
O1420 Eu1401 2.418 . S
O1420 C1402 1.244 . S
O1421 Eu1400 2.488 . S
O1421 C1409 1.249 . S
O1422 Eu1400 2.471 . S
O1422 C1409 1.244 . S
O1423 Eu1400 2.349 . S
O1423 C1402 1.265 . S
C1424 C1425 1.379 1_565 S
C1424 C1428 1.373 . S
C1424 C1430 1.505 . S
C1425 C1424 1.379 1_545 S
C1425 C1427 1.369 . S
C1425 H1436 0.930 . S
C1426 C1428 1.383 . S
C1426 C1429 1.382 1_565 S
C1426 H1437 0.930 . S
C1427 C1425 1.369 . S
C1427 C1429 1.392 . S
C1427 H1438 0.930 . S
C1428 C1424 1.373 . S
C1428 C1426 1.383 . S
C1428 H1439 0.931 . S
C1429 C1426 1.382 1_545 S
C1429 C1427 1.392 . S
C1430 Eu1401 2.828 . S
C1430 O1414 1.249 . S
C1430 O1415 1.244 . S
C1430 C1424 1.505 . S
C1431 O1418 1.258 . S
C1431 O1419 1.242 . S
H1432 C1404 0.930 . S
H1433 C1405 0.930 . S
H1434 C1406 0.930 . S
H1435 C1407 0.931 . S
H1436 C1425 0.930 . S
H1437 C1426 0.930 . S
H1438 C1427 0.930 . S
H1439 C1428 0.931 . S
C17 C92 2.372 1_545 S
C12 C57 2.373 1_455 S
C97 C52 2.373 . S
C137 C172 2.473 1_455 S
C212 C177 2.474 . S
C217 C132 2.475 1_565 S
C242 C351 2.372 1_565 S
C282 C271 2.373 1_455 S
C322 C311 2.373 . S
C362 C431 2.473 1_655 S
C471 C402 2.474 . S
C391 C442 2.475 1_565 S
C572 C497 2.453 . S
C537 C492 2.456 . S
C532 C577 2.453 . S
C617 C652 2.482 . S
C692 C657 2.485 . S
C612 C697 2.484 . S
C722 C831 2.402 . S
C762 C751 2.401 . S
C791 C802 2.404 . S
C911 C842 2.222 1_554 S
C882 C951 2.224 1_556 S
C871 C922 2.225 1_554 S
C977 C1052 2.402 . S
C1017 C972 2.401 . S
C1057 C1012 2.404 . S
C1097 C1132 2.222 1_554 S
C1137 C1172 2.224 1_554 S
C1177 C1092 2.225 1_554 S
C1202 C1311 2.453 . S
C1242 C1231 2.456 . S
C1271 C1282 2.453 . S
C1322 C1391 2.482 . S
C1362 C1431 2.485 . S
C1351 C1402 2.484 . S
C31 C817 2.387 . S
C737 C71 2.382 . S
C111 C777 2.386 . S
C151 C1377 2.259 . S
C1417 C191 2.259 . S
C231 C1337 2.256 . S
C1042 C252 2.387 . S
C292 C962 2.382 . S
C332 C1002 2.386 . S
C642 C372 2.259 . S
C682 C412 2.259 . S
C602 C452 2.256 . S
C511 C1297 2.330 1_655 S
C551 C1217 2.325 . S
C1257 C591 2.324 1_565 S
C417 C631 2.312 . S
C457 C671 2.310 . S
C377 C711 2.307 . S
C82 C732 2.377 . S
C772 C2 2.372 . S
C812 C42 2.374 . S
C1122 C852 2.367 1_565 S
C1162 C892 2.363 1_455 S
C932 C1082 2.363 . S
C337 C991 2.377 . S
C257 C1031 2.372 . S
C297 C1071 2.374 . S
C1111 C897 2.367 1_565 S
C937 C1151 2.363 1_655 S
C1191 C857 2.363 . S
C1212 C562 2.330 1_455 S
C1252 C482 2.325 . S
C1292 C522 2.324 1_565 S
C1332 C162 2.312 . S
C202 C1372 2.310 . S
C122 C1412 2.307 . S
C1168 C8 3.352 . S
C1088 C48 3.352 . S
C88 C1128 3.351 . S
C528 C128 3.464 . S
C168 C568 3.464 . S
C208 C488 3.465 . S
C269 C949 3.352 . S
C309 C869 3.353 . S
C349 C909 3.351 . S
C1269 C389 3.464 . S
C1309 C429 3.464 . S
C1229 C469 3.465 . S
C608 C1008 3.464 1_455 S
C648 C1048 3.464 . S
C688 C968 3.463 1_565 S
C749 C1429 3.462 1_565 S
C1349 C789 3.464 1_655 S
C829 C1389 3.464 . S
C189 C29 1.290 1_455 S
C229 C69 1.290 . S
C149 C109 1.291 1_565 S
C248 C408 1.291 1_455 S
C448 C288 1.290 . S
C328 C368 1.291 1_565 S
C669 C509 1.380 . S
C709 C549 1.380 . S
C629 C589 1.379 . S
C888 C728 1.853 . S
C768 C928 1.852 . S
C808 C848 1.853 . S
C989 C1149 1.853 . S
C1189 C1029 1.852 . S
C1069 C1109 1.853 . S
C1208 C1368 1.380 . S
C1408 C1248 1.380 . S
C1288 C1328 1.379 . S
