# Generated by pormake.
# Topology ske, (6)-cn, num edge types: 1
# Building blocks:
#     Node 0, Type 0, BuildingBlock: CUKXOW_clean_sbu_0, # of connection points: 6
#     Node 1, Type 0, BuildingBlock: CUKXOW_clean_sbu_0, # of connection points: 6
#     Node 2, Type 0, BuildingBlock: CUKXOW_clean_sbu_0, # of connection points: 6
#     Node 3, Type 0, BuildingBlock: CUKXOW_clean_sbu_0, # of connection points: 6
#     Node 4, Type 0, BuildingBlock: CUKXOW_clean_sbu_0, # of connection points: 6
#     Node 5, Type 0, BuildingBlock: CUKXOW_clean_sbu_0, # of connection points: 6
#     Node 6, Type 0, BuildingBlock: CUKXOW_clean_sbu_0, # of connection points: 6
#     Node 7, Type 0, BuildingBlock: CUKXOW_clean_sbu_0, # of connection points: 6
#     Edge 8, Type (0, 0), BuildingBlock: XIVTED_clean_linker_0, # of connection points: 2
#     Edge 9, Type (0, 0), BuildingBlock: XIVTED_clean_linker_0, # of connection points: 2
#     Edge 10, Type (0, 0), BuildingBlock: XIVTED_clean_linker_0, # of connection points: 2
#     Edge 11, Type (0, 0), BuildingBlock: XIVTED_clean_linker_0, # of connection points: 2
#     Edge 12, Type (0, 0), BuildingBlock: XIVTED_clean_linker_0, # of connection points: 2
#     Edge 13, Type (0, 0), BuildingBlock: XIVTED_clean_linker_0, # of connection points: 2
#     Edge 14, Type (0, 0), BuildingBlock: XIVTED_clean_linker_0, # of connection points: 2
#     Edge 15, Type (0, 0), BuildingBlock: XIVTED_clean_linker_0, # of connection points: 2
#     Edge 16, Type (0, 0), BuildingBlock: XIVTED_clean_linker_0, # of connection points: 2
#     Edge 17, Type (0, 0), BuildingBlock: XIVTED_clean_linker_0, # of connection points: 2
#     Edge 18, Type (0, 0), BuildingBlock: XIVTED_clean_linker_0, # of connection points: 2
#     Edge 19, Type (0, 0), BuildingBlock: XIVTED_clean_linker_0, # of connection points: 2
#     Edge 20, Type (0, 0), BuildingBlock: XIVTED_clean_linker_0, # of connection points: 2
#     Edge 21, Type (0, 0), BuildingBlock: XIVTED_clean_linker_0, # of connection points: 2
#     Edge 22, Type (0, 0), BuildingBlock: XIVTED_clean_linker_0, # of connection points: 2
#     Edge 23, Type (0, 0), BuildingBlock: XIVTED_clean_linker_0, # of connection points: 2
#     Edge 24, Type (0, 0), BuildingBlock: XIVTED_clean_linker_0, # of connection points: 2
#     Edge 25, Type (0, 0), BuildingBlock: XIVTED_clean_linker_0, # of connection points: 2
#     Edge 26, Type (0, 0), BuildingBlock: XIVTED_clean_linker_0, # of connection points: 2
#     Edge 27, Type (0, 0), BuildingBlock: XIVTED_clean_linker_0, # of connection points: 2
#     Edge 28, Type (0, 0), BuildingBlock: XIVTED_clean_linker_0, # of connection points: 2
#     Edge 29, Type (0, 0), BuildingBlock: XIVTED_clean_linker_0, # of connection points: 2
#     Edge 30, Type (0, 0), BuildingBlock: XIVTED_clean_linker_0, # of connection points: 2
#     Edge 31, Type (0, 0), BuildingBlock: XIVTED_clean_linker_0, # of connection points: 2
# Relax obj value: 0.167
# Max RMSD: 0.209
# Mean RMSD: 0.209
data_MOF--net-ske--node1-CUKXOW_clean_sbu_0--edge1-XIVTED_clean_linker_0
_symmetry_space_group_name_H-M    P1
_symmetry_Int_Tables_number       1
_symmetry_cell_setting            triclinic
loop_
_symmetry_equiv_pos_as_xyz
'x, y, z'
_cell_length_a     51.905517
_cell_length_b     30.79441
_cell_length_c     18.281649
_cell_angle_alpha  97.097368
_cell_angle_beta   89.930835
_cell_angle_gamma 89.746544
loop_
_atom_site_label
_atom_site_type_symbol
_atom_site_fract_x
_atom_site_fract_y
_atom_site_fract_z
_atom_type_partial_charge
Tb0 Tb 0.18061 0.24555 0.44319 0.0
C1 C 0.17476 0.16158 0.51723 0.0
Tb2 Tb 0.16442 0.25506 0.61005 0.0
O3 O 0.21979 0.2253 0.47413 0.0
O4 O 0.19737 0.26587 0.54737 0.0
O5 O 0.172 0.17879 0.45505 0.0
C6 C 0.16815 0.25752 0.75581 0.0
O7 O 0.1768 0.18607 0.58246 0.0
C8 C 0.12352 0.24458 0.52515 0.0
C9 C 0.16205 0.33813 0.52419 0.0
O10 O 0.15866 0.22565 0.71128 0.0
O11 O 0.17533 0.28862 0.71851 0.0
O12 O 0.12235 0.25124 0.59668 0.0
O13 O 0.1469 0.24509 0.50702 0.0
O14 O 0.16215 0.32379 0.59023 0.0
O15 O 0.16648 0.31246 0.46148 0.0
C16 C 0.18232 0.24469 0.29777 0.0
O17 O 0.19632 0.2696 0.34451 0.0
O18 O 0.16764 0.22025 0.33294 0.0
C19 C 0.21811 0.24474 0.5413 0.0
Tb20 Tb 0.90241 0.25746 0.61147 0.0
C21 C 0.90415 0.33917 0.52324 0.0
Tb22 Tb 0.88739 0.24714 0.44369 0.0
O23 O 0.94441 0.24906 0.60053 0.0
O24 O 0.92066 0.24541 0.50918 0.0
O25 O 0.90029 0.32581 0.58908 0.0
C26 C 0.88416 0.24853 0.29854 0.0
O27 O 0.9039 0.31207 0.46096 0.0
C28 C 0.84948 0.2492 0.54144 0.0
C29 C 0.89629 0.16284 0.5179 0.0
O30 O 0.87447 0.27789 0.3482 0.0
O31 O 0.89549 0.21831 0.33055 0.0
O32 O 0.84798 0.22878 0.47504 0.0
O33 O 0.87029 0.2697 0.54683 0.0
O34 O 0.89704 0.18037 0.45541 0.0
O35 O 0.89514 0.18674 0.5839 0.0
C36 C 0.89473 0.26134 0.75615 0.0
O37 O 0.88455 0.23291 0.70632 0.0
O38 O 0.90931 0.28785 0.7246 0.0
C39 C 0.94381 0.24324 0.52881 0.0
Tb40 Tb 0.18045 0.74738 0.54646 0.0
C41 C 0.17466 0.83287 0.47399 0.0
Tb42 Tb 0.1662 0.73935 0.37899 0.0
O43 O 0.22045 0.76337 0.51659 0.0
O44 O 0.19765 0.72406 0.44367 0.0
O45 O 0.17277 0.81498 0.53591 0.0
C46 C 0.17411 0.73438 0.2343 0.0
O47 O 0.17571 0.80924 0.40773 0.0
C48 C 0.12461 0.757 0.45934 0.0
C49 C 0.1617 0.65704 0.46568 0.0
O50 O 0.18492 0.76221 0.28388 0.0
O51 O 0.15879 0.70914 0.26612 0.0
O52 O 0.12466 0.7525 0.38767 0.0
O53 O 0.14739 0.75202 0.4807 0.0
O54 O 0.16615 0.67066 0.40032 0.0
O55 O 0.16238 0.6837 0.52837 0.0
C56 C 0.18335 0.74532 0.69148 0.0
O57 O 0.19244 0.71548 0.64164 0.0
O58 O 0.17275 0.77634 0.65974 0.0
C59 C 0.2189 0.74314 0.45011 0.0
Tb60 Tb 0.90309 0.7395 0.37218 0.0
C61 C 0.90514 0.65773 0.46039 0.0
Tb62 Tb 0.88795 0.74981 0.53999 0.0
O63 O 0.94494 0.749 0.38275 0.0
O64 O 0.92129 0.7514 0.47446 0.0
O65 O 0.90137 0.67115 0.39455 0.0
C66 C 0.88473 0.7484 0.68519 0.0
O67 O 0.90474 0.68482 0.52269 0.0
C68 C 0.85006 0.74758 0.44238 0.0
C69 C 0.89636 0.83407 0.46571 0.0
O70 O 0.87532 0.71893 0.63557 0.0
O71 O 0.89576 0.77876 0.65311 0.0
O72 O 0.84836 0.76789 0.50885 0.0
O73 O 0.87103 0.72724 0.43695 0.0
O74 O 0.89726 0.81655 0.52818 0.0
O75 O 0.89523 0.81016 0.39975 0.0
C76 C 0.89552 0.73554 0.22751 0.0
O77 O 0.88515 0.76398 0.27734 0.0
O78 O 0.91021 0.70904 0.25906 0.0
C79 C 0.94437 0.75433 0.45446 0.0
Tb80 Tb 0.67958 0.74151 0.94141 0.0
C81 C 0.67407 0.65549 0.01239 0.0
Tb82 Tb 0.66512 0.74855 0.1089 0.0
O83 O 0.7197 0.72566 0.9709 0.0
O84 O 0.69652 0.76425 0.04449 0.0
O85 O 0.67232 0.67371 0.95074 0.0
C86 C 0.67309 0.75224 0.25328 0.0
O87 O 0.67487 0.67876 0.07893 0.0
C88 C 0.6237 0.73156 0.02813 0.0
C89 C 0.66042 0.83145 0.02382 0.0
O90 O 0.68405 0.72485 0.20296 0.0
O91 O 0.65757 0.77777 0.2224 0.0
O92 O 0.62361 0.73569 0.09981 0.0
O93 O 0.6465 0.73652 0.00706 0.0
O94 O 0.66497 0.81744 0.08882 0.0
O95 O 0.66108 0.80508 0.9608 0.0
C96 C 0.68256 0.74483 0.79673 0.0
O97 O 0.69136 0.77437 0.84722 0.0
O98 O 0.67221 0.71338 0.82764 0.0
C99 C 0.71793 0.74536 0.03773 0.0
Tb100 Tb 0.40263 0.75678 0.11343 0.0
C101 C 0.39832 0.83853 0.02342 0.0
Tb102 Tb 0.3877 0.74227 0.94479 0.0
O103 O 0.44471 0.74932 0.10177 0.0
O104 O 0.42058 0.74376 0.01153 0.0
O105 O 0.3995 0.82498 0.09002 0.0
C106 C 0.38796 0.74228 0.79914 0.0
O107 O 0.39511 0.81178 0.96149 0.0
C108 C 0.35021 0.74337 0.04289 0.0
C109 C 0.39833 0.66038 0.02351 0.0
O110 O 0.40809 0.73809 0.83968 0.0
O111 O 0.36749 0.74594 0.84047 0.0
O112 O 0.34942 0.72031 0.97821 0.0
O113 O 0.37038 0.76591 0.04715 0.0
O114 O 0.39825 0.6766 0.95975 0.0
O115 O 0.3971 0.68523 0.08878 0.0
C116 C 0.39568 0.76231 0.25837 0.0
O117 O 0.3822 0.73829 0.20927 0.0
O118 O 0.41312 0.78338 0.2259 0.0
C119 C 0.44385 0.7425 0.03019 0.0
Tb120 Tb 0.6803 0.24366 0.04473 0.0
C121 C 0.67313 0.32687 0.96919 0.0
Tb122 Tb 0.66433 0.23267 0.87746 0.0
O123 O 0.71909 0.26513 0.01356 0.0
O124 O 0.69742 0.22334 0.94074 0.0
O125 O 0.67061 0.30993 0.0317 0.0
C126 C 0.6678 0.22999 0.73165 0.0
O127 O 0.6755 0.30217 0.90418 0.0
C128 C 0.62337 0.24168 0.96291 0.0
C129 C 0.66308 0.15019 0.96452 0.0
O130 O 0.65611 0.26 0.77556 0.0
O131 O 0.67736 0.20083 0.76963 0.0
O132 O 0.62219 0.23395 0.89146 0.0
O133 O 0.6468 0.24285 0.98041 0.0
O134 O 0.66285 0.16413 0.89817 0.0
O135 O 0.66734 0.17622 0.02688 0.0
C136 C 0.68192 0.24486 0.19017 0.0
O137 O 0.69665 0.2209 0.14369 0.0
O138 O 0.66655 0.26821 0.15474 0.0
C139 C 0.71779 0.24522 0.94666 0.0
Tb140 Tb 0.40304 0.23886 0.87583 0.0
C141 C 0.40604 0.15653 0.96201 0.0
Tb142 Tb 0.38797 0.24713 0.04365 0.0
O143 O 0.44486 0.24891 0.88671 0.0
O144 O 0.4212 0.25026 0.97816 0.0
O145 O 0.40153 0.17031 0.89684 0.0
C146 C 0.38461 0.2441 0.18833 0.0
O147 O 0.40591 0.18317 0.02475 0.0
C148 C 0.35004 0.24466 0.94604 0.0
C149 C 0.39583 0.33237 0.97191 0.0
O150 O 0.37584 0.21453 0.13781 0.0
O151 O 0.39509 0.27545 0.15745 0.0
O152 O 0.34819 0.2644 0.01285 0.0
O153 O 0.37121 0.22498 0.9402 0.0
O154 O 0.3968 0.31428 0.03382 0.0
O155 O 0.39482 0.3091 0.90542 0.0
C156 C 0.39522 0.23576 0.73149 0.0
O157 O 0.38449 0.26335 0.78196 0.0
O158 O 0.41046 0.20968 0.7622 0.0
C159 C 0.44428 0.25359 0.95844 0.0
H160 H 0.22064 0.29931 0.67016 0.0
H161 H 0.35015 0.19417 0.81238 0.0
H162 H 0.26069 0.1915 0.54618 0.0
H163 H 0.30566 0.29348 0.9439 0.0
H164 H 0.31852 0.19401 0.71309 0.0
H165 H 0.25202 0.29863 0.76951 0.0
C166 C 0.23588 0.27506 0.6643 0.0
C167 C 0.23772 0.24483 0.60043 0.0
C168 C 0.3156 0.21582 0.7636 0.0
C169 C 0.2744 0.24463 0.71342 0.0
C170 C 0.3337 0.21603 0.8203 0.0
C171 C 0.33061 0.2441 0.88639 0.0
C172 C 0.29409 0.24384 0.77289 0.0
C173 C 0.30881 0.27138 0.89386 0.0
C174 C 0.25397 0.27494 0.72084 0.0
C175 C 0.25848 0.21524 0.59464 0.0
N176 N 0.29144 0.27064 0.83781 0.0
N177 N 0.27599 0.21585 0.65039 0.0
H178 H 0.72217 0.18893 0.82005 0.0
H179 H 0.84858 0.30046 0.67443 0.0
H180 H 0.7587 0.3012 0.93996 0.0
H181 H 0.80631 0.19823 0.54471 0.0
H182 H 0.81703 0.29964 0.77397 0.0
H183 H 0.7535 0.19052 0.72057 0.0
C184 C 0.7366 0.21435 0.82493 0.0
C185 C 0.73744 0.24558 0.88763 0.0
C186 C 0.81457 0.27741 0.72378 0.0
C187 C 0.77411 0.24684 0.77464 0.0
C188 C 0.83263 0.27777 0.66695 0.0
C189 C 0.83013 0.24918 0.6013 0.0
C190 C 0.79373 0.24827 0.71506 0.0
C191 C 0.80899 0.22077 0.59441 0.0
C192 C 0.75468 0.21499 0.76836 0.0
C193 C 0.75726 0.27666 0.89237 0.0
N194 N 0.79166 0.22097 0.65057 0.0
N195 N 0.77478 0.27654 0.83663 0.0
H196 H 0.34696 0.79973 0.17015 0.0
H197 H 0.21929 0.69233 0.31692 0.0
H198 H 0.30881 0.68875 0.05101 0.0
H199 H 0.26289 0.79243 0.44748 0.0
H200 H 0.2508 0.69243 0.21725 0.0
H201 H 0.31559 0.79937 0.27009 0.0
C202 C 0.33196 0.77519 0.16509 0.0
C203 C 0.33069 0.74388 0.10249 0.0
C204 C 0.25357 0.71434 0.26766 0.0
C205 C 0.29429 0.74372 0.21648 0.0
C206 C 0.23554 0.71438 0.32458 0.0
C207 C 0.2384 0.7426 0.3905 0.0
C208 C 0.27477 0.74272 0.27645 0.0
C209 C 0.25992 0.77019 0.39758 0.0
C210 C 0.31402 0.77505 0.2222 0.0
C211 C 0.3106 0.71333 0.09843 0.0
N212 N 0.27723 0.76965 0.34124 0.0
N213 N 0.29321 0.71401 0.1546 0.0
H214 H 0.71737 0.79462 0.17236 0.0
H215 H 0.8503 0.69739 0.3085 0.0
H216 H 0.76316 0.69847 0.03798 0.0
H217 H 0.80544 0.7959 0.44064 0.0
H218 H 0.81869 0.69714 0.20927 0.0
H219 H 0.74911 0.79511 0.27125 0.0
C220 C 0.73413 0.77352 0.16372 0.0
C221 C 0.73753 0.74621 0.09697 0.0
C222 C 0.81569 0.71885 0.25985 0.0
C223 C 0.77425 0.74693 0.21004 0.0
C224 C 0.83379 0.7191 0.31654 0.0
C225 C 0.83061 0.747 0.38275 0.0
C226 C 0.79401 0.74648 0.26941 0.0
C227 C 0.80868 0.77398 0.39044 0.0
C228 C 0.7523 0.7739 0.22022 0.0
C229 C 0.75975 0.71995 0.08858 0.0
N230 N 0.79124 0.77307 0.33451 0.0
N231 N 0.77723 0.72091 0.14443 0.0
H232 H 0.17528 0.89051 0.60043 0.0
H233 H 0.17473 0.10344 0.39182 0.0
H234 H 0.17609 0.88613 0.36333 0.0
H235 H 0.17731 0.10886 0.62896 0.0
H236 H 0.17545 0.02413 0.38112 0.0
H237 H 0.17619 0.97001 0.61195 0.0
C238 C 0.17566 0.90617 0.55055 0.0
C239 C 0.17555 0.88133 0.48057 0.0
C240 C 0.17592 0.04253 0.43555 0.0
C241 C 0.17661 0.97297 0.49389 0.0
C242 C 0.17549 0.08804 0.44193 0.0
C243 C 0.1759 0.11314 0.51165 0.0
C244 C 0.17671 0.02152 0.49925 0.0
C245 C 0.17696 0.09096 0.57416 0.0
C246 C 0.17621 0.95173 0.5574 0.0
C247 C 0.17614 0.90378 0.41834 0.0
N248 N 0.17726 0.04637 0.56647 0.0
N249 N 0.17659 0.94832 0.4265 0.0
H250 H 0.90496 0.40904 0.63336 0.0
H251 H 0.90565 0.58785 0.35031 0.0
H252 H 0.91113 0.37687 0.39713 0.0
H253 H 0.91211 0.61987 0.58642 0.0
H254 H 0.90805 0.51008 0.36613 0.0
H255 H 0.90792 0.48673 0.61756 0.0
C256 C 0.9071 0.41819 0.57836 0.0
C257 C 0.90764 0.38627 0.51662 0.0
C258 C 0.90911 0.53424 0.41436 0.0
C259 C 0.91086 0.47501 0.49799 0.0
C260 C 0.90775 0.57864 0.40528 0.0
C261 C 0.90852 0.61056 0.46699 0.0
C262 C 0.91107 0.52172 0.48565 0.0
C263 C 0.91129 0.59658 0.53703 0.0
C264 C 0.90879 0.46254 0.5693 0.0
C265 C 0.91048 0.40016 0.44654 0.0
N266 N 0.91228 0.55332 0.54443 0.0
N267 N 0.91181 0.44339 0.43918 0.0
H268 H 0.89578 0.8864 0.35374 0.0
H269 H 0.8956 0.1105 0.62983 0.0
H270 H 0.89752 0.89243 0.59106 0.0
H271 H 0.8978 0.10447 0.39253 0.0
H272 H 0.89586 0.03039 0.61683 0.0
H273 H 0.89605 0.96652 0.36672 0.0
C274 C 0.89622 0.90445 0.40846 0.0
C275 C 0.89661 0.8825 0.47127 0.0
C276 C 0.89631 0.0467 0.56766 0.0
C277 C 0.89689 0.97416 0.48662 0.0
C278 C 0.89616 0.09245 0.57511 0.0
C279 C 0.89666 0.11441 0.51232 0.0
C280 C 0.89691 0.02274 0.49693 0.0
C281 C 0.89738 0.08916 0.44271 0.0
C282 C 0.89639 0.95021 0.4159 0.0
C283 C 0.8972 0.90774 0.54087 0.0
N284 N 0.89745 0.0448 0.43696 0.0
N285 N 0.89729 0.9521 0.54661 0.0
H286 H 0.16184 0.58758 0.35486 0.0
H287 H 0.15734 0.40729 0.63519 0.0
H288 H 0.15199 0.61894 0.59018 0.0
H289 H 0.15686 0.37654 0.39811 0.0
H290 H 0.15381 0.48514 0.6202 0.0
H291 H 0.1585 0.5098 0.36941 0.0
C292 C 0.15877 0.57823 0.40939 0.0
C293 C 0.15741 0.60997 0.47129 0.0
C294 C 0.1543 0.46121 0.57155 0.0
C295 C 0.15379 0.52101 0.48857 0.0
C296 C 0.15629 0.41676 0.58016 0.0
C297 C 0.15767 0.38519 0.51799 0.0
C298 C 0.1538 0.47414 0.50031 0.0
C299 C 0.15616 0.39953 0.4479 0.0
C300 C 0.15689 0.5338 0.41776 0.0
C301 C 0.15337 0.59578 0.54071 0.0
N302 N 0.15451 0.44281 0.44105 0.0
N303 N 0.15191 0.55246 0.54748 0.0
H304 H 0.67593 0.5981 0.8856 0.0
H305 H 0.67074 0.38532 0.09395 0.0
H306 H 0.67405 0.60203 0.12257 0.0
H307 H 0.67725 0.37928 0.85726 0.0
H308 H 0.6717 0.4645 0.10429 0.0
H309 H 0.67631 0.51848 0.87374 0.0
C310 C 0.67562 0.58231 0.93535 0.0
C311 C 0.67489 0.60703 0.00541 0.0
C312 C 0.67297 0.44601 0.05002 0.0
C313 C 0.6753 0.51539 0.99174 0.0
C314 C 0.67239 0.40055 0.04383 0.0
C315 C 0.6739 0.37529 0.97437 0.0
C316 C 0.67501 0.46686 0.98638 0.0
C317 C 0.67603 0.39731 0.91187 0.0
C318 C 0.67586 0.53671 0.92833 0.0
C319 C 0.67461 0.58447 0.06751 0.0
N320 N 0.67648 0.44189 0.91936 0.0
N321 N 0.67475 0.53995 0.05917 0.0
H322 H 0.38869 0.87704 0.89995 0.0
H323 H 0.42258 0.1188 0.08113 0.0
H324 H 0.4124 0.90751 0.12695 0.0
H325 H 0.39609 0.08673 0.85717 0.0
H326 H 0.42193 0.04143 0.09676 0.0
H327 H 0.39338 0.95323 0.88279 0.0
C328 C 0.39492 0.89973 0.94652 0.0
C329 C 0.40022 0.88561 0.01525 0.0
C330 C 0.41642 0.05124 0.04407 0.0
C331 C 0.40568 0.97369 -0.00472 0.0
C332 C 0.41683 0.09546 0.03487 0.0
C333 C 0.40912 0.10937 0.96777 0.0
C334 C 0.40821 0.02059 0.98584 0.0
C335 C 0.40215 0.07755 0.9098 0.0
C336 C 0.39761 0.94343 0.9364 0.0
C337 C 0.40803 0.9169 0.07318 0.0
N338 N 0.40167 0.03464 0.9204 0.0
N339 N 0.41056 0.95957 0.06184 0.0
H340 H 0.39897 0.38499 0.86123 0.0
H341 H 0.39355 0.60901 0.13631 0.0
H342 H 0.39386 0.39009 0.09807 0.0
H343 H 0.40549 0.60148 0.90109 0.0
H344 H 0.39327 0.52878 0.12436 0.0
H345 H 0.4005 0.46489 0.87525 0.0
C346 C 0.39811 0.40283 0.91609 0.0
C347 C 0.3963 0.38071 0.97844 0.0
C348 C 0.39601 0.54486 0.07552 0.0
C349 C 0.39809 0.47216 -0.00496 0.0
C350 C 0.39623 0.59062 0.08238 0.0
C351 C 0.39938 0.61213 0.01969 0.0
C352 C 0.39894 0.52061 0.0055 0.0
C353 C 0.40277 0.58655 0.95109 0.0
C354 C 0.39906 0.44847 0.92415 0.0
C355 C 0.39532 0.40564 0.04828 0.0
N356 N 0.40236 0.5423 0.94589 0.0
N357 N 0.3962 0.44998 0.05466 0.0
H358 H 0.65623 0.08116 0.85455 0.0
H359 H 0.66257 0.90075 0.13461 0.0
H360 H 0.66046 0.1119 0.09133 0.0
H361 H 0.64911 0.87001 0.90082 0.0
H362 H 0.66008 0.97868 0.12036 0.0
H363 H 0.65208 0.00357 0.87029 0.0
C364 C 0.65614 0.07175 0.90971 0.0
C365 C 0.65892 0.10323 0.97149 0.0
C366 C 0.65748 0.9548 0.07231 0.0
C367 C 0.65428 0.01459 0.99 0.0
C368 C 0.65884 0.91028 0.08053 0.0
C369 C 0.65628 0.87867 0.01887 0.0
C370 C 0.65367 0.96777 0.00189 0.0
C371 C 0.65146 0.89308 0.95002 0.0
C372 C 0.65376 0.02745 0.91873 0.0
C373 C 0.65859 0.08898 0.04177 0.0
N374 N 0.65052 0.93647 0.94334 0.0
N375 N 0.6565 0.04584 0.04899 0.0
H376 H 0.15617 0.19002 0.19688 0.0
H377 H 0.19227 0.31773 0.85539 0.0
H378 H 0.20689 0.30142 0.21715 0.0
H379 H 0.15087 0.19573 0.83681 0.0
H380 H 0.19712 0.31447 0.98832 0.0
H381 H 0.15339 0.19326 0.06461 0.0
C382 C 0.16682 0.21508 0.17321 0.0
C383 C 0.18178 0.2455 0.21761 0.0
C384 C 0.187 0.28844 0.95504 0.0
C385 C 0.17858 0.24971 0.06636 0.0
C386 C 0.18415 0.2904 0.87947 0.0
C387 C 0.17105 0.25705 0.83562 0.0
C388 C 0.17653 0.25298 0.98644 0.0
C389 C 0.16104 0.22217 0.86891 0.0
C390 C 0.16524 0.21695 0.09771 0.0
C391 C 0.1952 0.27732 0.18443 0.0
N392 N 0.16393 0.22111 0.94233 0.0
N393 N 0.1932 0.27877 0.11058 0.0
H394 H 0.89155 0.18122 0.18935 0.0
H395 H 0.9057 0.32722 0.86599 0.0
H396 H 0.87608 0.3199 0.22653 0.0
H397 H 0.87609 0.19576 0.82741 0.0
H398 H 0.90115 0.32505 -0.00054 0.0
H399 H 0.8923 0.18515 0.05615 0.0
C400 C 0.88825 0.21244 0.1693 0.0
C401 C 0.88367 0.25028 0.2185 0.0
C402 C 0.89554 0.29685 0.96155 0.0
C403 C 0.88501 0.25515 0.0672 0.0
C404 C 0.89821 0.29801 0.88573 0.0
C405 C 0.8913 0.26157 0.8361 0.0
C406 C 0.88652 0.25862 0.98743 0.0
C407 C 0.88162 0.22452 0.8641 0.0
C408 C 0.8886 0.21463 0.09355 0.0
C409 C 0.87953 0.28998 0.19005 0.0
N410 N 0.8798 0.22375 0.93805 0.0
N411 N 0.88059 0.29154 0.11606 0.0
H412 H 0.1615 0.66904 0.12538 0.0
H413 H 0.17769 0.81316 0.8006 0.0
H414 H 0.19434 0.7983 0.162 0.0
H415 H 0.19009 0.6736 0.76349 0.0
H416 H 0.17743 0.80951 0.93388 0.0
H417 H 0.16575 0.67057 0.99171 0.0
C418 C 0.16966 0.69762 0.10516 0.0
C419 C 0.17754 0.73365 0.15429 0.0
C420 C 0.18035 0.77977 0.89647 0.0
C421 C 0.18198 0.7359 0.00274 0.0
C422 C 0.1804 0.7818 0.82069 0.0
C423 C 0.18398 0.74363 0.77149 0.0
C424 C 0.18323 0.73913 0.92289 0.0
C425 C 0.18741 0.70376 0.79998 0.0
C426 C 0.17215 0.6984 0.02923 0.0
C427 C 0.18805 0.76988 0.12569 0.0
N428 N 0.18665 0.70241 0.87404 0.0
N429 N 0.18967 0.77035 0.05164 0.0
H430 H 0.89159 0.81573 0.79438 0.0
H431 H 0.90693 0.66969 0.11758 0.0
H432 H 0.87728 0.67693 0.75718 0.0
H433 H 0.87647 0.80105 0.15635 0.0
H434 H 0.90236 0.67184 0.98413 0.0
H435 H 0.89244 0.81176 0.92756 0.0
C436 C 0.88857 0.78448 0.81443 0.0
C437 C 0.88428 0.74662 0.76522 0.0
C438 C 0.89657 0.70002 0.02209 0.0
C439 C 0.88573 0.7417 0.91651 0.0
C440 C 0.89925 0.69887 0.09789 0.0
C441 C 0.89211 0.73529 0.14757 0.0
C442 C 0.88729 0.73822 -0.00374 0.0
C443 C 0.88218 0.77231 0.11963 0.0
C444 C 0.88898 0.78225 0.89016 0.0
C445 C 0.88049 0.70686 0.79367 0.0
N446 N 0.88035 0.77306 0.0457 0.0
N447 N 0.88161 0.70529 0.86764 0.0
H448 H 0.6944 0.68808 0.32337 0.0
H449 H 0.68878 0.81738 0.72678 0.0
H450 H 0.66015 0.81668 0.36392 0.0
H451 H 0.67774 0.67777 0.68604 0.0
H452 H 0.68797 0.8207 0.59303 0.0
H453 H 0.69837 0.68688 0.45675 0.0
C454 C 0.6879 0.71617 0.36045 0.0
C455 C 0.67676 0.75242 0.33307 0.0
C456 C 0.68583 0.78941 0.61365 0.0
C457 C 0.6816 0.75148 0.48475 0.0
C458 C 0.6864 0.78745 0.68956 0.0
C459 C 0.68325 0.74725 0.71694 0.0
C460 C 0.68273 0.75073 0.56525 0.0
C461 C 0.68012 0.70939 0.66683 0.0
C462 C 0.69009 0.71538 0.43627 0.0
C463 C 0.66867 0.78803 0.38319 0.0
N464 N 0.68011 0.71198 0.59319 0.0
N465 N 0.67135 0.78679 0.45691 0.0
H466 H 0.43 0.75461 0.71585 0.0
H467 H 0.356 0.72976 0.33249 0.0
H468 H 0.3476 0.73804 0.70247 0.0
H469 H 0.42911 0.79525 0.36557 0.0
H470 H 0.35322 0.7261 0.46558 0.0
H471 H 0.43108 0.76226 0.58433 0.0
C472 C 0.41215 0.75239 0.68498 0.0
C473 C 0.38868 0.74563 0.71963 0.0
C474 C 0.36977 0.74152 0.44369 0.0
C475 C 0.38977 0.75418 0.56951 0.0
C476 C 0.37138 0.74355 0.36796 0.0
C477 C 0.39287 0.7627 0.33845 0.0
C478 C 0.39 0.75812 0.48969 0.0
C479 C 0.41224 0.78022 0.3864 0.0
C480 C 0.41276 0.75702 0.61014 0.0
C481 C 0.36607 0.74325 0.67748 0.0
N482 N 0.41048 0.77713 0.4597 0.0
N483 N 0.36718 0.74725 0.60427 0.0
H484 H 0.65339 0.29657 0.29049 0.0
H485 H 0.69588 0.17426 0.63334 0.0
H486 H 0.70872 0.19083 0.27131 0.0
H487 H 0.64634 0.28789 0.64945 0.0
H488 H 0.70066 0.17818 0.50056 0.0
H489 H 0.65054 0.29284 0.42261 0.0
C490 C 0.66504 0.27267 0.31437 0.0
C491 C 0.6813 0.24396 0.27031 0.0
C492 C 0.68875 0.2022 0.53325 0.0
C493 C 0.67805 0.23918 0.4214 0.0
C494 C 0.68596 0.19986 0.60874 0.0
C495 C 0.67061 0.23068 0.65186 0.0
C496 C 0.67601 0.23553 0.50121 0.0
C497 C 0.65829 0.26342 0.61792 0.0
C498 C 0.66341 0.2705 0.38979 0.0
C499 C 0.69598 0.21358 0.30375 0.0
N500 N 0.66123 0.26493 0.54461 0.0
N501 N 0.69394 0.21183 0.37752 0.0
H502 H 0.37825 0.17153 0.25819 0.0
H503 H 0.37434 0.30053 0.66206 0.0
H504 H 0.38977 0.31102 0.29913 0.0
H505 H 0.4076 0.17123 0.6203 0.0
H506 H 0.37007 0.302 0.52885 0.0
H507 H 0.37942 0.16803 0.39185 0.0
C508 C 0.38079 0.2014 0.29543 0.0
C509 C 0.38398 0.24162 0.26812 0.0
C510 C 0.37822 0.2733 0.54901 0.0
C511 C 0.38494 0.23793 0.41976 0.0
C512 C 0.38058 0.27235 0.62475 0.0
C513 C 0.39151 0.23582 0.65175 0.0
C514 C 0.38633 0.23707 0.50021 0.0
C515 C 0.39925 0.20011 0.60133 0.0
C516 C 0.38158 0.19934 0.37131 0.0
C517 C 0.38735 0.27939 0.31828 0.0
N518 N 0.39641 0.2015 0.52769 0.0
N519 N 0.38758 0.27669 0.39188 0.0
H520 H 0.09719 0.31064 0.47336 0.0
H521 H 0.9706 0.16941 0.48127 0.0
H522 H 0.09656 0.1714 0.47907 0.0
H523 H 0.97088 0.30903 0.47993 0.0
H524 H 1.01608 0.1666 0.44475 0.0
H525 H 0.05145 0.308 0.43976 0.0
C526 C 0.08764 0.27922 0.46405 0.0
C527 C 0.1006 0.24107 0.4778 0.0
C528 C 1.00608 0.19777 0.45012 0.0
C529 C 0.04807 0.23789 0.44306 0.0
C530 C 0.98004 0.19923 0.47015 0.0
C531 C 0.96706 0.2394 0.4825 0.0
C532 C 1.01933 0.23698 0.4443 0.0
C533 C 0.98024 0.27735 0.46974 0.0
C534 C 0.06145 0.27773 0.44584 0.0
C535 C 0.08725 0.20138 0.46767 0.0
N536 N 1.00579 0.27534 0.45255 0.0
N537 N 0.06161 0.20088 0.45214 0.0
H538 H 0.96966 0.83065 0.48724 0.0
H539 H 0.09982 0.70079 0.53953 0.0
H540 H 0.97267 0.69435 0.51743 0.0
H541 H 0.09486 0.82946 0.47152 0.0
H542 H 0.05375 0.70516 0.57179 0.0
H543 H 1.01505 0.83787 0.52279 0.0
C544 C 0.97969 0.80268 0.50444 0.0
C545 C 0.96749 0.76204 0.50046 0.0
C546 C 0.06293 0.73305 0.5522 0.0
C547 C 1.01972 0.7693 0.53765 0.0
C548 C 0.08927 0.73075 0.53475 0.0
C549 C 0.10104 0.76505 0.50369 0.0
C550 C 0.04844 0.76985 0.53804 0.0
C551 C 0.08645 0.80257 0.49612 0.0
C552 C 1.00568 0.80662 0.52389 0.0
C553 C 0.98142 0.72641 0.52109 0.0
N554 N 0.06088 0.80379 0.5123 0.0
N555 N 1.00696 0.73063 0.53758 0.0
H556 H 0.60029 0.78869 0.9463 0.0
H557 H 0.46755 0.66499 0.98852 0.0
H558 H 0.59268 0.66109 0.0168 0.0
H559 H 0.47349 0.80304 0.97453 0.0
H560 H 0.51307 0.65601 0.95368 0.0
H561 H 0.55437 0.78691 0.9126 0.0
C562 C 0.5892 0.75948 0.95136 0.0
C563 C 0.60016 0.72477 0.98357 0.0
C564 C 0.50426 0.68809 0.95581 0.0
C565 C 0.54776 0.72287 0.94725 0.0
C566 C 0.47822 0.69307 0.97477 0.0
C567 C 0.46683 0.73467 0.9833 0.0
C568 C 0.51909 0.72519 0.94667 0.0
C569 C 0.48159 0.77032 0.96728 0.0
C570 C 0.56296 0.75866 0.93306 0.0
C571 C 0.58488 0.68826 0.99139 0.0
N572 N 0.5071 0.76493 0.95084 0.0
N573 N 0.55942 0.68843 0.97417 0.0
H574 H 0.46656 0.19099 0.03046 0.0
H575 H 0.60081 0.31606 0.02817 0.0
H576 H 0.47582 0.32345 0.98279 0.0
H577 H 0.59281 0.17598 -0.0031 0.0
H578 H 0.55502 0.32305 0.06173 0.0
H579 H 0.51212 0.18986 0.06723 0.0
C580 C 0.47792 0.22048 0.03109 0.0
C581 C 0.46754 0.25755 0.00447 0.0
C582 C 0.56349 0.29072 0.05017 0.0
C583 C 0.51953 0.25627 0.04451 0.0
C584 C 0.58967 0.28675 0.03205 0.0
C585 C 0.60051 0.24539 0.01076 0.0
C586 C 0.54812 0.253 0.04642 0.0
C587 C 0.58512 0.2084 0.01406 0.0
C588 C 0.50394 0.21969 0.05121 0.0
C589 C 0.48316 0.29447 0.00389 0.0
N590 N 0.5596 0.21304 0.03046 0.0
N591 N 0.50845 0.29279 0.0228 0.0
loop_
_geom_bond_atom_site_label_1
_geom_bond_atom_site_label_2
_geom_bond_distance
_geom_bond_site_symmetry_2
_ccdc_geom_bond_type
Tb0 O3 2.453 . S
Tb0 O4 2.596 . S
Tb0 O5 2.374 . S
Tb0 O13 2.343 . S
Tb0 O15 2.353 . S
Tb0 O17 2.427 . S
Tb0 O18 2.513 . S
C1 O5 1.251 . S
C1 O7 1.263 . S
Tb2 O4 2.343 . S
Tb2 O7 2.353 . S
Tb2 O10 2.427 . S
Tb2 O11 2.513 . S
Tb2 O12 2.453 . S
Tb2 O13 2.596 . S
Tb2 O14 2.374 . S
O3 Tb0 2.453 . S
O3 C19 1.245 . S
O4 Tb0 2.596 . S
O4 Tb2 2.343 . S
O4 C19 1.259 . S
O5 Tb0 2.374 . S
O5 C1 1.251 . S
C6 O10 1.275 . S
C6 O11 1.246 . S
O7 C1 1.263 . S
O7 Tb2 2.353 . S
C8 O12 1.245 . S
C8 O13 1.259 . S
C9 O14 1.250 . S
C9 O15 1.263 . S
O10 Tb2 2.427 . S
O10 C6 1.275 . S
O11 Tb2 2.513 . S
O11 C6 1.246 . S
O12 Tb2 2.453 . S
O12 C8 1.245 . S
O13 Tb0 2.343 . S
O13 Tb2 2.596 . S
O13 C8 1.259 . S
O14 Tb2 2.374 . S
O14 C9 1.250 . S
O15 Tb0 2.353 . S
O15 C9 1.263 . S
C16 O17 1.275 . S
C16 O18 1.246 . S
O17 Tb0 2.427 . S
O17 C16 1.275 . S
O18 Tb0 2.513 . S
O18 C16 1.246 . S
C19 O3 1.245 . S
C19 O4 1.259 . S
Tb20 O23 2.453 . S
Tb20 O24 2.596 . S
Tb20 O25 2.374 . S
Tb20 O33 2.343 . S
Tb20 O35 2.353 . S
Tb20 O37 2.427 . S
Tb20 O38 2.513 . S
C21 O25 1.251 . S
C21 O27 1.263 . S
Tb22 O24 2.343 . S
Tb22 O27 2.353 . S
Tb22 O30 2.427 . S
Tb22 O31 2.513 . S
Tb22 O32 2.453 . S
Tb22 O33 2.596 . S
Tb22 O34 2.374 . S
O23 Tb20 2.453 . S
O23 C39 1.245 . S
O24 Tb20 2.596 . S
O24 Tb22 2.343 . S
O24 C39 1.259 . S
O25 Tb20 2.374 . S
O25 C21 1.251 . S
C26 O30 1.275 . S
C26 O31 1.246 . S
O27 C21 1.263 . S
O27 Tb22 2.353 . S
C28 O32 1.245 . S
C28 O33 1.259 . S
C29 O34 1.250 . S
C29 O35 1.263 . S
O30 Tb22 2.427 . S
O30 C26 1.275 . S
O31 Tb22 2.513 . S
O31 C26 1.246 . S
O32 Tb22 2.453 . S
O32 C28 1.245 . S
O33 Tb20 2.343 . S
O33 Tb22 2.596 . S
O33 C28 1.259 . S
O34 Tb22 2.374 . S
O34 C29 1.250 . S
O35 Tb20 2.353 . S
O35 C29 1.263 . S
C36 O37 1.275 . S
C36 O38 1.246 . S
O37 Tb20 2.427 . S
O37 C36 1.275 . S
O38 Tb20 2.513 . S
O38 C36 1.246 . S
C39 O23 1.245 . S
C39 O24 1.259 . S
Tb40 O43 2.453 . S
Tb40 O44 2.596 . S
Tb40 O45 2.374 . S
Tb40 O53 2.343 . S
Tb40 O55 2.353 . S
Tb40 O57 2.427 . S
Tb40 O58 2.513 . S
C41 O45 1.251 . S
C41 O47 1.263 . S
Tb42 O44 2.343 . S
Tb42 O47 2.353 . S
Tb42 O50 2.427 . S
Tb42 O51 2.513 . S
Tb42 O52 2.453 . S
Tb42 O53 2.596 . S
Tb42 O54 2.374 . S
O43 Tb40 2.453 . S
O43 C59 1.245 . S
O44 Tb40 2.596 . S
O44 Tb42 2.343 . S
O44 C59 1.259 . S
O45 Tb40 2.374 . S
O45 C41 1.251 . S
C46 O50 1.275 . S
C46 O51 1.246 . S
O47 C41 1.263 . S
O47 Tb42 2.353 . S
C48 O52 1.245 . S
C48 O53 1.259 . S
C49 O54 1.250 . S
C49 O55 1.263 . S
O50 Tb42 2.427 . S
O50 C46 1.275 . S
O51 Tb42 2.513 . S
O51 C46 1.246 . S
O52 Tb42 2.453 . S
O52 C48 1.245 . S
O53 Tb40 2.343 . S
O53 Tb42 2.596 . S
O53 C48 1.259 . S
O54 Tb42 2.374 . S
O54 C49 1.250 . S
O55 Tb40 2.353 . S
O55 C49 1.263 . S
C56 O57 1.275 . S
C56 O58 1.246 . S
O57 Tb40 2.427 . S
O57 C56 1.275 . S
O58 Tb40 2.513 . S
O58 C56 1.246 . S
C59 O43 1.245 . S
C59 O44 1.259 . S
Tb60 O63 2.453 . S
Tb60 O64 2.596 . S
Tb60 O65 2.374 . S
Tb60 O73 2.343 . S
Tb60 O75 2.353 . S
Tb60 O77 2.427 . S
Tb60 O78 2.513 . S
C61 O65 1.251 . S
C61 O67 1.263 . S
Tb62 O64 2.343 . S
Tb62 O67 2.353 . S
Tb62 O70 2.427 . S
Tb62 O71 2.513 . S
Tb62 O72 2.453 . S
Tb62 O73 2.596 . S
Tb62 O74 2.374 . S
O63 Tb60 2.453 . S
O63 C79 1.245 . S
O64 Tb60 2.596 . S
O64 Tb62 2.343 . S
O64 C79 1.259 . S
O65 Tb60 2.374 . S
O65 C61 1.251 . S
C66 O70 1.275 . S
C66 O71 1.246 . S
O67 C61 1.263 . S
O67 Tb62 2.353 . S
C68 O72 1.245 . S
C68 O73 1.259 . S
C69 O74 1.250 . S
C69 O75 1.263 . S
O70 Tb62 2.427 . S
O70 C66 1.275 . S
O71 Tb62 2.513 . S
O71 C66 1.246 . S
O72 Tb62 2.453 . S
O72 C68 1.245 . S
O73 Tb60 2.343 . S
O73 Tb62 2.596 . S
O73 C68 1.259 . S
O74 Tb62 2.374 . S
O74 C69 1.250 . S
O75 Tb60 2.353 . S
O75 C69 1.263 . S
C76 O77 1.275 . S
C76 O78 1.246 . S
O77 Tb60 2.427 . S
O77 C76 1.275 . S
O78 Tb60 2.513 . S
O78 C76 1.246 . S
C79 O63 1.245 . S
C79 O64 1.259 . S
Tb80 O83 2.453 . S
Tb80 O84 2.596 1_556 S
Tb80 O85 2.374 . S
Tb80 O93 2.343 . S
Tb80 O95 2.353 . S
Tb80 O97 2.427 . S
Tb80 O98 2.513 . S
C81 O85 1.251 1_554 S
C81 O87 1.263 . S
Tb82 O84 2.343 . S
Tb82 O87 2.353 . S
Tb82 O90 2.427 . S
Tb82 O91 2.513 . S
Tb82 O92 2.453 . S
Tb82 O93 2.596 1_554 S
Tb82 O94 2.374 . S
O83 Tb80 2.453 . S
O83 C99 1.245 1_556 S
O84 Tb80 2.596 1_554 S
O84 Tb82 2.343 . S
O84 C99 1.259 . S
O85 Tb80 2.374 . S
O85 C81 1.251 1_556 S
C86 O90 1.275 . S
C86 O91 1.246 . S
O87 C81 1.263 . S
O87 Tb82 2.353 . S
C88 O92 1.245 1_556 S
C88 O93 1.259 . S
C89 O94 1.250 . S
C89 O95 1.263 1_554 S
O90 Tb82 2.427 . S
O90 C86 1.275 . S
O91 Tb82 2.513 . S
O91 C86 1.246 . S
O92 Tb82 2.453 . S
O92 C88 1.245 1_554 S
O93 Tb80 2.343 . S
O93 Tb82 2.596 1_556 S
O93 C88 1.259 . S
O94 Tb82 2.374 . S
O94 C89 1.250 . S
O95 Tb80 2.353 . S
O95 C89 1.263 1_556 S
C96 O97 1.275 . S
C96 O98 1.246 . S
O97 Tb80 2.427 . S
O97 C96 1.275 . S
O98 Tb80 2.513 . S
O98 C96 1.246 . S
C99 O83 1.245 1_554 S
C99 O84 1.259 . S
Tb100 O103 2.453 . S
Tb100 O104 2.596 1_554 S
Tb100 O105 2.374 . S
Tb100 O113 2.343 . S
Tb100 O115 2.353 . S
Tb100 O117 2.427 . S
Tb100 O118 2.513 . S
C101 O105 1.251 . S
C101 O107 1.263 1_554 S
Tb102 O104 2.343 . S
Tb102 O107 2.353 . S
Tb102 O110 2.427 . S
Tb102 O111 2.513 . S
Tb102 O112 2.453 . S
Tb102 O113 2.596 1_556 S
Tb102 O114 2.374 . S
O103 Tb100 2.453 . S
O103 C119 1.245 1_554 S
O104 Tb100 2.596 1_556 S
O104 Tb102 2.343 . S
O104 C119 1.259 . S
O105 Tb100 2.374 . S
O105 C101 1.251 . S
C106 O110 1.275 . S
C106 O111 1.246 . S
O107 C101 1.263 1_556 S
O107 Tb102 2.353 . S
C108 O112 1.245 1_554 S
C108 O113 1.259 . S
C109 O114 1.250 1_554 S
C109 O115 1.263 . S
O110 Tb102 2.427 . S
O110 C106 1.275 . S
O111 Tb102 2.513 . S
O111 C106 1.246 . S
O112 Tb102 2.453 . S
O112 C108 1.245 1_556 S
O113 Tb100 2.343 . S
O113 Tb102 2.596 1_554 S
O113 C108 1.259 . S
O114 Tb102 2.374 . S
O114 C109 1.250 1_556 S
O115 Tb100 2.353 . S
O115 C109 1.263 . S
C116 O117 1.275 . S
C116 O118 1.246 . S
O117 Tb100 2.427 . S
O117 C116 1.275 . S
O118 Tb100 2.513 . S
O118 C116 1.246 . S
C119 O103 1.245 1_556 S
C119 O104 1.259 . S
Tb120 O123 2.453 . S
Tb120 O124 2.596 1_554 S
Tb120 O125 2.374 . S
Tb120 O133 2.343 . S
Tb120 O135 2.353 . S
Tb120 O137 2.427 . S
Tb120 O138 2.513 . S
C121 O125 1.251 1_556 S
C121 O127 1.263 . S
Tb122 O124 2.343 . S
Tb122 O127 2.353 . S
Tb122 O130 2.427 . S
Tb122 O131 2.513 . S
Tb122 O132 2.453 . S
Tb122 O133 2.596 1_556 S
Tb122 O134 2.374 . S
O123 Tb120 2.453 . S
O123 C139 1.245 1_554 S
O124 Tb120 2.596 1_556 S
O124 Tb122 2.343 . S
O124 C139 1.259 . S
O125 Tb120 2.374 . S
O125 C121 1.251 1_554 S
C126 O130 1.275 . S
C126 O131 1.246 . S
O127 C121 1.263 . S
O127 Tb122 2.353 . S
C128 O132 1.245 1_554 S
C128 O133 1.259 . S
C129 O134 1.250 . S
C129 O135 1.263 1_556 S
O130 Tb122 2.427 . S
O130 C126 1.275 . S
O131 Tb122 2.513 . S
O131 C126 1.246 . S
O132 Tb122 2.453 . S
O132 C128 1.245 1_556 S
O133 Tb120 2.343 . S
O133 Tb122 2.596 1_554 S
O133 C128 1.259 . S
O134 Tb122 2.374 . S
O134 C129 1.250 . S
O135 Tb120 2.353 . S
O135 C129 1.263 1_554 S
C136 O137 1.275 . S
C136 O138 1.246 . S
O137 Tb120 2.427 . S
O137 C136 1.275 . S
O138 Tb120 2.513 . S
O138 C136 1.246 . S
C139 O123 1.245 1_556 S
C139 O124 1.259 . S
Tb140 O143 2.453 . S
Tb140 O144 2.596 1_556 S
Tb140 O145 2.374 . S
Tb140 O153 2.343 . S
Tb140 O155 2.353 . S
Tb140 O157 2.427 . S
Tb140 O158 2.513 . S
C141 O145 1.251 . S
C141 O147 1.263 1_556 S
Tb142 O144 2.343 . S
Tb142 O147 2.353 . S
Tb142 O150 2.427 . S
Tb142 O151 2.513 . S
Tb142 O152 2.453 . S
Tb142 O153 2.596 1_554 S
Tb142 O154 2.374 . S
O143 Tb140 2.453 . S
O143 C159 1.245 1_556 S
O144 Tb140 2.596 1_554 S
O144 Tb142 2.343 . S
O144 C159 1.259 . S
O145 Tb140 2.374 . S
O145 C141 1.251 . S
C146 O150 1.275 . S
C146 O151 1.246 . S
O147 C141 1.263 1_554 S
O147 Tb142 2.353 . S
C148 O152 1.245 1_556 S
C148 O153 1.259 . S
C149 O154 1.250 1_556 S
C149 O155 1.263 . S
O150 Tb142 2.427 . S
O150 C146 1.275 . S
O151 Tb142 2.513 . S
O151 C146 1.246 . S
O152 Tb142 2.453 . S
O152 C148 1.245 1_554 S
O153 Tb140 2.343 . S
O153 Tb142 2.596 1_556 S
O153 C148 1.259 . S
O154 Tb142 2.374 . S
O154 C149 1.250 1_554 S
O155 Tb140 2.353 . S
O155 C149 1.263 . S
C156 O157 1.275 . S
C156 O158 1.246 . S
O157 Tb140 2.427 . S
O157 C156 1.275 . S
O158 Tb140 2.513 . S
O158 C156 1.246 . S
C159 O143 1.245 1_554 S
C159 O144 1.259 . S
H160 C166 0.930 . S
H161 C170 0.930 . S
H162 C175 0.929 . S
H163 C173 0.929 . S
H164 C168 0.929 . S
H165 C174 0.929 . S
C166 H160 0.930 . S
C166 C167 1.367 . S
C166 C174 1.378 . S
C167 C166 1.367 . S
C167 C175 1.433 . S
C168 H164 0.929 . S
C168 C170 1.378 . S
C168 C172 1.350 . S
C169 C172 1.463 . S
C169 C174 1.350 . S
C169 N177 1.427 . S
C170 H161 0.930 . S
C170 C168 1.378 . S
C170 C171 1.367 . S
C171 C170 1.367 . S
C171 C173 1.433 . S
C172 C168 1.350 . S
C172 C169 1.463 . S
C172 N176 1.427 . S
C173 H163 0.929 . S
C173 C171 1.433 . S
C173 N176 1.384 . S
C174 H165 0.929 . S
C174 C166 1.378 . S
C174 C169 1.350 . S
C175 H162 0.929 . S
C175 C167 1.433 . S
C175 N177 1.384 . S
N176 C172 1.427 . S
N176 C173 1.384 . S
N177 C169 1.427 . S
N177 C175 1.384 . S
H178 C184 0.930 . S
H179 C188 0.930 . S
H180 C193 0.929 . S
H181 C191 0.929 . S
H182 C186 0.929 . S
H183 C192 0.929 . S
C184 H178 0.930 . S
C184 C185 1.367 . S
C184 C192 1.378 . S
C185 C184 1.367 . S
C185 C193 1.433 . S
C186 H182 0.929 . S
C186 C188 1.378 . S
C186 C190 1.350 . S
C187 C190 1.463 . S
C187 C192 1.350 . S
C187 N195 1.427 . S
C188 H179 0.930 . S
C188 C186 1.378 . S
C188 C189 1.367 . S
C189 C188 1.367 . S
C189 C191 1.433 . S
C190 C186 1.350 . S
C190 C187 1.463 . S
C190 N194 1.427 . S
C191 H181 0.929 . S
C191 C189 1.433 . S
C191 N194 1.384 . S
C192 H183 0.929 . S
C192 C184 1.378 . S
C192 C187 1.350 . S
C193 H180 0.929 . S
C193 C185 1.433 . S
C193 N195 1.384 . S
N194 C190 1.427 . S
N194 C191 1.384 . S
N195 C187 1.427 . S
N195 C193 1.384 . S
H196 C202 0.930 . S
H197 C206 0.930 . S
H198 C211 0.929 . S
H199 C209 0.929 . S
H200 C204 0.929 . S
H201 C210 0.929 . S
C202 H196 0.930 . S
C202 C203 1.367 . S
C202 C210 1.378 . S
C203 C202 1.367 . S
C203 C211 1.433 . S
C204 H200 0.929 . S
C204 C206 1.378 . S
C204 C208 1.350 . S
C205 C208 1.463 . S
C205 C210 1.350 . S
C205 N213 1.427 . S
C206 H197 0.930 . S
C206 C204 1.378 . S
C206 C207 1.367 . S
C207 C206 1.367 . S
C207 C209 1.433 . S
C208 C204 1.350 . S
C208 C205 1.463 . S
C208 N212 1.427 . S
C209 H199 0.929 . S
C209 C207 1.433 . S
C209 N212 1.384 . S
C210 H201 0.929 . S
C210 C202 1.378 . S
C210 C205 1.350 . S
C211 H198 0.929 . S
C211 C203 1.433 . S
C211 N213 1.384 . S
N212 C208 1.427 . S
N212 C209 1.384 . S
N213 C205 1.427 . S
N213 C211 1.384 . S
H214 C220 0.930 . S
H215 C224 0.930 . S
H216 C229 0.929 . S
H217 C227 0.929 . S
H218 C222 0.929 . S
H219 C228 0.929 . S
C220 H214 0.930 . S
C220 C221 1.367 . S
C220 C228 1.378 . S
C221 C220 1.367 . S
C221 C229 1.433 . S
C222 H218 0.929 . S
C222 C224 1.378 . S
C222 C226 1.350 . S
C223 C226 1.463 . S
C223 C228 1.350 . S
C223 N231 1.427 . S
C224 H215 0.930 . S
C224 C222 1.378 . S
C224 C225 1.367 . S
C225 C224 1.367 . S
C225 C227 1.433 . S
C226 C222 1.350 . S
C226 C223 1.463 . S
C226 N230 1.427 . S
C227 H217 0.929 . S
C227 C225 1.433 . S
C227 N230 1.384 . S
C228 H219 0.929 . S
C228 C220 1.378 . S
C228 C223 1.350 . S
C229 H216 0.929 . S
C229 C221 1.433 . S
C229 N231 1.384 . S
N230 C226 1.427 . S
N230 C227 1.384 . S
N231 C223 1.427 . S
N231 C229 1.384 . S
H232 C238 0.930 . S
H233 C242 0.930 . S
H234 C247 0.929 . S
H235 C245 0.929 . S
H236 C240 0.929 . S
H237 C246 0.929 . S
C238 H232 0.930 . S
C238 C239 1.367 . S
C238 C246 1.378 . S
C239 C238 1.367 . S
C239 C247 1.433 . S
C240 H236 0.929 . S
C240 C242 1.378 . S
C240 C244 1.350 . S
C241 C244 1.463 1_565 S
C241 C246 1.350 . S
C241 N249 1.427 . S
C242 H233 0.930 . S
C242 C240 1.378 . S
C242 C243 1.367 . S
C243 C242 1.367 . S
C243 C245 1.433 . S
C244 C240 1.350 . S
C244 C241 1.463 1_545 S
C244 N248 1.427 . S
C245 H235 0.929 . S
C245 C243 1.433 . S
C245 N248 1.384 . S
C246 H237 0.929 . S
C246 C238 1.378 . S
C246 C241 1.350 . S
C247 H234 0.929 . S
C247 C239 1.433 . S
C247 N249 1.384 . S
N248 C244 1.427 . S
N248 C245 1.384 . S
N249 C241 1.427 . S
N249 C247 1.384 . S
H250 C256 0.930 . S
H251 C260 0.930 . S
H252 C265 0.929 . S
H253 C263 0.929 . S
H254 C258 0.929 . S
H255 C264 0.929 . S
C256 H250 0.930 . S
C256 C257 1.367 . S
C256 C264 1.378 . S
C257 C256 1.367 . S
C257 C265 1.433 . S
C258 H254 0.929 . S
C258 C260 1.378 . S
C258 C262 1.350 . S
C259 C262 1.463 . S
C259 C264 1.350 . S
C259 N267 1.427 . S
C260 H251 0.930 . S
C260 C258 1.378 . S
C260 C261 1.367 . S
C261 C260 1.367 . S
C261 C263 1.433 . S
C262 C258 1.350 . S
C262 C259 1.463 . S
C262 N266 1.427 . S
C263 H253 0.929 . S
C263 C261 1.433 . S
C263 N266 1.384 . S
C264 H255 0.929 . S
C264 C256 1.378 . S
C264 C259 1.350 . S
C265 H252 0.929 . S
C265 C257 1.433 . S
C265 N267 1.384 . S
N266 C262 1.427 . S
N266 C263 1.384 . S
N267 C259 1.427 . S
N267 C265 1.384 . S
H268 C274 0.930 . S
H269 C278 0.930 . S
H270 C283 0.929 . S
H271 C281 0.929 . S
H272 C276 0.929 . S
H273 C282 0.929 . S
C274 H268 0.930 . S
C274 C275 1.367 . S
C274 C282 1.378 . S
C275 C274 1.367 . S
C275 C283 1.433 . S
C276 H272 0.929 . S
C276 C278 1.378 . S
C276 C280 1.350 . S
C277 C280 1.463 1_565 S
C277 C282 1.350 . S
C277 N285 1.427 . S
C278 H269 0.930 . S
C278 C276 1.378 . S
C278 C279 1.367 . S
C279 C278 1.367 . S
C279 C281 1.433 . S
C280 C276 1.350 . S
C280 C277 1.463 1_545 S
C280 N284 1.427 . S
C281 H271 0.929 . S
C281 C279 1.433 . S
C281 N284 1.384 . S
C282 H273 0.929 . S
C282 C274 1.378 . S
C282 C277 1.350 . S
C283 H270 0.929 . S
C283 C275 1.433 . S
C283 N285 1.384 . S
N284 C280 1.427 . S
N284 C281 1.384 . S
N285 C277 1.427 . S
N285 C283 1.384 . S
H286 C292 0.930 . S
H287 C296 0.930 . S
H288 C301 0.929 . S
H289 C299 0.929 . S
H290 C294 0.929 . S
H291 C300 0.929 . S
C292 H286 0.930 . S
C292 C293 1.367 . S
C292 C300 1.378 . S
C293 C292 1.367 . S
C293 C301 1.433 . S
C294 H290 0.929 . S
C294 C296 1.378 . S
C294 C298 1.350 . S
C295 C298 1.463 . S
C295 C300 1.350 . S
C295 N303 1.427 . S
C296 H287 0.930 . S
C296 C294 1.378 . S
C296 C297 1.367 . S
C297 C296 1.367 . S
C297 C299 1.433 . S
C298 C294 1.350 . S
C298 C295 1.463 . S
C298 N302 1.427 . S
C299 H289 0.929 . S
C299 C297 1.433 . S
C299 N302 1.384 . S
C300 H291 0.929 . S
C300 C292 1.378 . S
C300 C295 1.350 . S
C301 H288 0.929 . S
C301 C293 1.433 . S
C301 N303 1.384 . S
N302 C298 1.427 . S
N302 C299 1.384 . S
N303 C295 1.427 . S
N303 C301 1.384 . S
H304 C310 0.930 . S
H305 C314 0.930 . S
H306 C319 0.929 . S
H307 C317 0.929 . S
H308 C312 0.929 . S
H309 C318 0.929 . S
C310 H304 0.930 . S
C310 C311 1.367 1_556 S
C310 C318 1.378 . S
C311 C310 1.367 1_554 S
C311 C319 1.433 . S
C312 H308 0.929 . S
C312 C314 1.378 . S
C312 C316 1.348 1_554 S
C313 C316 1.464 1_554 S
C313 C318 1.348 1_554 S
C313 N321 1.429 . S
C314 H305 0.930 . S
C314 C312 1.378 . S
C314 C315 1.367 1_554 S
C315 C314 1.367 1_556 S
C315 C317 1.433 . S
C316 C312 1.348 1_556 S
C316 C313 1.464 1_556 S
C316 N320 1.429 . S
C317 H307 0.929 . S
C317 C315 1.433 . S
C317 N320 1.384 . S
C318 H309 0.929 . S
C318 C310 1.378 . S
C318 C313 1.348 1_556 S
C319 H306 0.929 . S
C319 C311 1.433 . S
C319 N321 1.384 . S
N320 C316 1.429 . S
N320 C317 1.384 . S
N321 C313 1.429 . S
N321 C319 1.384 . S
H322 C328 0.930 . S
H323 C332 0.930 . S
H324 C337 0.929 . S
H325 C335 0.929 . S
H326 C330 0.929 . S
H327 C336 0.929 . S
C328 H322 0.930 . S
C328 C329 1.367 1_556 S
C328 C336 1.378 . S
C329 C328 1.367 1_554 S
C329 C337 1.433 . S
C330 H326 0.929 . S
C330 C332 1.378 . S
C330 C334 1.346 1_554 S
C331 C334 1.461 1_564 S
C331 C336 1.346 1_554 S
C331 N339 1.432 . S
C332 H323 0.930 . S
C332 C330 1.378 . S
C332 C333 1.367 1_554 S
C333 C332 1.367 1_556 S
C333 C335 1.433 . S
C334 C330 1.346 1_556 S
C334 C331 1.461 1_546 S
C334 N338 1.432 . S
C335 H325 0.929 . S
C335 C333 1.433 . S
C335 N338 1.384 . S
C336 H327 0.929 . S
C336 C328 1.378 . S
C336 C331 1.346 1_556 S
C337 H324 0.929 . S
C337 C329 1.433 . S
C337 N339 1.384 . S
N338 C334 1.432 . S
N338 C335 1.384 . S
N339 C331 1.432 . S
N339 C337 1.384 . S
H340 C346 0.930 . S
H341 C350 0.930 . S
H342 C355 0.929 . S
H343 C353 0.929 . S
H344 C348 0.929 . S
H345 C354 0.929 . S
C346 H340 0.930 . S
C346 C347 1.367 . S
C346 C354 1.378 . S
C347 C346 1.367 . S
C347 C355 1.433 1_556 S
C348 H344 0.929 . S
C348 C350 1.378 . S
C348 C352 1.350 . S
C349 C352 1.463 1_556 S
C349 C354 1.350 . S
C349 N357 1.427 1_556 S
C350 H341 0.930 . S
C350 C348 1.378 . S
C350 C351 1.367 . S
C351 C350 1.367 . S
C351 C353 1.433 1_554 S
C352 C348 1.350 . S
C352 C349 1.463 1_554 S
C352 N356 1.427 1_554 S
C353 H343 0.929 . S
C353 C351 1.433 1_556 S
C353 N356 1.384 . S
C354 H345 0.929 . S
C354 C346 1.378 . S
C354 C349 1.350 . S
C355 H342 0.929 . S
C355 C347 1.433 1_554 S
C355 N357 1.384 . S
N356 C352 1.427 1_556 S
N356 C353 1.384 . S
N357 C349 1.427 1_554 S
N357 C355 1.384 . S
H358 C364 0.930 . S
H359 C368 0.930 . S
H360 C373 0.929 . S
H361 C371 0.929 . S
H362 C366 0.929 . S
H363 C372 0.929 . S
C364 H358 0.930 . S
C364 C365 1.367 . S
C364 C372 1.378 . S
C365 C364 1.367 . S
C365 C373 1.433 1_556 S
C366 H362 0.929 . S
C366 C368 1.378 . S
C366 C370 1.350 . S
C367 C370 1.463 1_546 S
C367 C372 1.350 . S
C367 N375 1.427 1_556 S
C368 H359 0.930 . S
C368 C366 1.378 . S
C368 C369 1.367 . S
C369 C368 1.367 . S
C369 C371 1.433 1_554 S
C370 C366 1.350 . S
C370 C367 1.463 1_564 S
C370 N374 1.427 1_554 S
C371 H361 0.929 . S
C371 C369 1.433 1_556 S
C371 N374 1.384 . S
C372 H363 0.929 . S
C372 C364 1.378 . S
C372 C367 1.350 . S
C373 H360 0.929 . S
C373 C365 1.433 1_554 S
C373 N375 1.384 . S
N374 C370 1.427 1_556 S
N374 C371 1.384 . S
N375 C367 1.427 1_554 S
N375 C373 1.384 . S
H376 C382 0.930 . S
H377 C386 0.930 . S
H378 C391 0.929 . S
H379 C389 0.929 . S
H380 C384 0.929 . S
H381 C390 0.929 . S
C382 H376 0.930 . S
C382 C383 1.367 . S
C382 C390 1.378 . S
C383 C382 1.367 . S
C383 C391 1.433 . S
C384 H380 0.929 . S
C384 C386 1.378 . S
C384 C388 1.350 . S
C385 C388 1.463 1_554 S
C385 C390 1.350 . S
C385 N393 1.427 . S
C386 H377 0.930 . S
C386 C384 1.378 . S
C386 C387 1.367 . S
C387 C386 1.367 . S
C387 C389 1.433 . S
C388 C384 1.350 . S
C388 C385 1.463 1_556 S
C388 N392 1.427 . S
C389 H379 0.929 . S
C389 C387 1.433 . S
C389 N392 1.384 . S
C390 H381 0.929 . S
C390 C382 1.378 . S
C390 C385 1.350 . S
C391 H378 0.929 . S
C391 C383 1.433 . S
C391 N393 1.384 . S
N392 C388 1.427 . S
N392 C389 1.384 . S
N393 C385 1.427 . S
N393 C391 1.384 . S
H394 C400 0.930 . S
H395 C404 0.930 . S
H396 C409 0.929 . S
H397 C407 0.929 . S
H398 C402 0.929 . S
H399 C408 0.929 . S
C400 H394 0.930 . S
C400 C401 1.367 . S
C400 C408 1.378 . S
C401 C400 1.367 . S
C401 C409 1.433 . S
C402 H398 0.929 . S
C402 C404 1.378 . S
C402 C406 1.350 . S
C403 C406 1.463 1_554 S
C403 C408 1.350 . S
C403 N411 1.427 . S
C404 H395 0.930 . S
C404 C402 1.378 . S
C404 C405 1.367 . S
C405 C404 1.367 . S
C405 C407 1.433 . S
C406 C402 1.350 . S
C406 C403 1.463 1_556 S
C406 N410 1.427 . S
C407 H397 0.929 . S
C407 C405 1.433 . S
C407 N410 1.384 . S
C408 H399 0.929 . S
C408 C400 1.378 . S
C408 C403 1.350 . S
C409 H396 0.929 . S
C409 C401 1.433 . S
C409 N411 1.384 . S
N410 C406 1.427 . S
N410 C407 1.384 . S
N411 C403 1.427 . S
N411 C409 1.384 . S
H412 C418 0.930 . S
H413 C422 0.930 . S
H414 C427 0.929 . S
H415 C425 0.929 . S
H416 C420 0.929 . S
H417 C426 0.929 . S
C418 H412 0.930 . S
C418 C419 1.367 . S
C418 C426 1.378 . S
C419 C418 1.367 . S
C419 C427 1.433 . S
C420 H416 0.929 . S
C420 C422 1.378 . S
C420 C424 1.350 . S
C421 C424 1.463 1_554 S
C421 C426 1.350 . S
C421 N429 1.427 . S
C422 H413 0.930 . S
C422 C420 1.378 . S
C422 C423 1.367 . S
C423 C422 1.367 . S
C423 C425 1.433 . S
C424 C420 1.350 . S
C424 C421 1.463 1_556 S
C424 N428 1.427 . S
C425 H415 0.929 . S
C425 C423 1.433 . S
C425 N428 1.384 . S
C426 H417 0.929 . S
C426 C418 1.378 . S
C426 C421 1.350 . S
C427 H414 0.929 . S
C427 C419 1.433 . S
C427 N429 1.384 . S
N428 C424 1.427 . S
N428 C425 1.384 . S
N429 C421 1.427 . S
N429 C427 1.384 . S
H430 C436 0.930 . S
H431 C440 0.930 . S
H432 C445 0.929 . S
H433 C443 0.929 . S
H434 C438 0.929 . S
H435 C444 0.929 . S
C436 H430 0.930 . S
C436 C437 1.367 . S
C436 C444 1.378 . S
C437 C436 1.367 . S
C437 C445 1.433 . S
C438 H434 0.929 . S
C438 C440 1.378 . S
C438 C442 1.350 . S
C439 C442 1.463 1_556 S
C439 C444 1.350 . S
C439 N447 1.427 . S
C440 H431 0.930 . S
C440 C438 1.378 . S
C440 C441 1.367 . S
C441 C440 1.367 . S
C441 C443 1.433 . S
C442 C438 1.350 . S
C442 C439 1.463 1_554 S
C442 N446 1.427 . S
C443 H433 0.929 . S
C443 C441 1.433 . S
C443 N446 1.384 . S
C444 H435 0.929 . S
C444 C436 1.378 . S
C444 C439 1.350 . S
C445 H432 0.929 . S
C445 C437 1.433 . S
C445 N447 1.384 . S
N446 C442 1.427 . S
N446 C443 1.384 . S
N447 C439 1.427 . S
N447 C445 1.384 . S
H448 C454 0.930 . S
H449 C458 0.930 . S
H450 C463 0.929 . S
H451 C461 0.929 . S
H452 C456 0.929 . S
H453 C462 0.929 . S
C454 H448 0.930 . S
C454 C455 1.367 . S
C454 C462 1.378 . S
C455 C454 1.367 . S
C455 C463 1.433 . S
C456 H452 0.929 . S
C456 C458 1.378 . S
C456 C460 1.350 . S
C457 C460 1.463 . S
C457 C462 1.350 . S
C457 N465 1.427 . S
C458 H449 0.930 . S
C458 C456 1.378 . S
C458 C459 1.367 . S
C459 C458 1.367 . S
C459 C461 1.433 . S
C460 C456 1.350 . S
C460 C457 1.463 . S
C460 N464 1.427 . S
C461 H451 0.929 . S
C461 C459 1.433 . S
C461 N464 1.384 . S
C462 H453 0.929 . S
C462 C454 1.378 . S
C462 C457 1.350 . S
C463 H450 0.929 . S
C463 C455 1.433 . S
C463 N465 1.384 . S
N464 C460 1.427 . S
N464 C461 1.384 . S
N465 C457 1.427 . S
N465 C463 1.384 . S
H466 C472 0.930 . S
H467 C476 0.930 . S
H468 C481 0.929 . S
H469 C479 0.929 . S
H470 C474 0.929 . S
H471 C480 0.929 . S
C472 H466 0.930 . S
C472 C473 1.367 . S
C472 C480 1.378 . S
C473 C472 1.367 . S
C473 C481 1.433 . S
C474 H470 0.929 . S
C474 C476 1.378 . S
C474 C478 1.350 . S
C475 C478 1.463 . S
C475 C480 1.350 . S
C475 N483 1.427 . S
C476 H467 0.930 . S
C476 C474 1.378 . S
C476 C477 1.367 . S
C477 C476 1.367 . S
C477 C479 1.433 . S
C478 C474 1.350 . S
C478 C475 1.463 . S
C478 N482 1.427 . S
C479 H469 0.929 . S
C479 C477 1.433 . S
C479 N482 1.384 . S
C480 H471 0.929 . S
C480 C472 1.378 . S
C480 C475 1.350 . S
C481 H468 0.929 . S
C481 C473 1.433 . S
C481 N483 1.384 . S
N482 C478 1.427 . S
N482 C479 1.384 . S
N483 C475 1.427 . S
N483 C481 1.384 . S
H484 C490 0.930 . S
H485 C494 0.930 . S
H486 C499 0.929 . S
H487 C497 0.929 . S
H488 C492 0.929 . S
H489 C498 0.929 . S
C490 H484 0.930 . S
C490 C491 1.367 . S
C490 C498 1.378 . S
C491 C490 1.367 . S
C491 C499 1.433 . S
C492 H488 0.929 . S
C492 C494 1.378 . S
C492 C496 1.350 . S
C493 C496 1.463 . S
C493 C498 1.350 . S
C493 N501 1.427 . S
C494 H485 0.930 . S
C494 C492 1.378 . S
C494 C495 1.367 . S
C495 C494 1.367 . S
C495 C497 1.433 . S
C496 C492 1.350 . S
C496 C493 1.463 . S
C496 N500 1.427 . S
C497 H487 0.929 . S
C497 C495 1.433 . S
C497 N500 1.384 . S
C498 H489 0.929 . S
C498 C490 1.378 . S
C498 C493 1.350 . S
C499 H486 0.929 . S
C499 C491 1.433 . S
C499 N501 1.384 . S
N500 C496 1.427 . S
N500 C497 1.384 . S
N501 C493 1.427 . S
N501 C499 1.384 . S
H502 C508 0.930 . S
H503 C512 0.930 . S
H504 C517 0.929 . S
H505 C515 0.929 . S
H506 C510 0.929 . S
H507 C516 0.929 . S
C508 H502 0.930 . S
C508 C509 1.367 . S
C508 C516 1.378 . S
C509 C508 1.367 . S
C509 C517 1.433 . S
C510 H506 0.929 . S
C510 C512 1.378 . S
C510 C514 1.350 . S
C511 C514 1.463 . S
C511 C516 1.350 . S
C511 N519 1.427 . S
C512 H503 0.930 . S
C512 C510 1.378 . S
C512 C513 1.367 . S
C513 C512 1.367 . S
C513 C515 1.433 . S
C514 C510 1.350 . S
C514 C511 1.463 . S
C514 N518 1.427 . S
C515 H505 0.929 . S
C515 C513 1.433 . S
C515 N518 1.384 . S
C516 H507 0.929 . S
C516 C508 1.378 . S
C516 C511 1.350 . S
C517 H504 0.929 . S
C517 C509 1.433 . S
C517 N519 1.384 . S
N518 C514 1.427 . S
N518 C515 1.384 . S
N519 C511 1.427 . S
N519 C517 1.384 . S
H520 C526 0.930 . S
H521 C530 0.930 . S
H522 C535 0.929 . S
H523 C533 0.929 . S
H524 C528 0.929 . S
H525 C534 0.929 . S
C526 H520 0.930 . S
C526 C527 1.367 . S
C526 C534 1.378 . S
C527 C526 1.367 . S
C527 C535 1.433 . S
C528 H524 0.929 . S
C528 C530 1.378 . S
C528 C532 1.350 . S
C529 C532 1.463 1_455 S
C529 C534 1.350 . S
C529 N537 1.427 . S
C530 H521 0.930 . S
C530 C528 1.378 . S
C530 C531 1.367 . S
C531 C530 1.367 . S
C531 C533 1.433 . S
C532 C528 1.350 . S
C532 C529 1.463 1_655 S
C532 N536 1.427 . S
C533 H523 0.929 . S
C533 C531 1.433 . S
C533 N536 1.384 . S
C534 H525 0.929 . S
C534 C526 1.378 . S
C534 C529 1.350 . S
C535 H522 0.929 . S
C535 C527 1.433 . S
C535 N537 1.384 . S
N536 C532 1.427 . S
N536 C533 1.384 . S
N537 C529 1.427 . S
N537 C535 1.384 . S
H538 C544 0.930 . S
H539 C548 0.930 . S
H540 C553 0.929 . S
H541 C551 0.929 . S
H542 C546 0.929 . S
H543 C552 0.929 . S
C544 H538 0.930 . S
C544 C545 1.367 . S
C544 C552 1.378 . S
C545 C544 1.367 . S
C545 C553 1.433 . S
C546 H542 0.929 . S
C546 C548 1.378 . S
C546 C550 1.350 . S
C547 C550 1.463 1_655 S
C547 C552 1.350 . S
C547 N555 1.427 . S
C548 H539 0.930 . S
C548 C546 1.378 . S
C548 C549 1.367 . S
C549 C548 1.367 . S
C549 C551 1.433 . S
C550 C546 1.350 . S
C550 C547 1.463 1_455 S
C550 N554 1.427 . S
C551 H541 0.929 . S
C551 C549 1.433 . S
C551 N554 1.384 . S
C552 H543 0.929 . S
C552 C544 1.378 . S
C552 C547 1.350 . S
C553 H540 0.929 . S
C553 C545 1.433 . S
C553 N555 1.384 . S
N554 C550 1.427 . S
N554 C551 1.384 . S
N555 C547 1.427 . S
N555 C553 1.384 . S
H556 C562 0.930 . S
H557 C566 0.930 . S
H558 C571 0.929 . S
H559 C569 0.929 . S
H560 C564 0.929 . S
H561 C570 0.929 . S
C562 H556 0.930 . S
C562 C563 1.367 . S
C562 C570 1.378 . S
C563 C562 1.367 . S
C563 C571 1.433 . S
C564 H560 0.929 . S
C564 C566 1.378 . S
C564 C568 1.350 . S
C565 C568 1.463 . S
C565 C570 1.350 . S
C565 N573 1.427 . S
C566 H557 0.930 . S
C566 C564 1.378 . S
C566 C567 1.367 . S
C567 C566 1.367 . S
C567 C569 1.433 . S
C568 C564 1.350 . S
C568 C565 1.463 . S
C568 N572 1.427 . S
C569 H559 0.929 . S
C569 C567 1.433 . S
C569 N572 1.384 . S
C570 H561 0.929 . S
C570 C562 1.378 . S
C570 C565 1.350 . S
C571 H558 0.929 . S
C571 C563 1.433 . S
C571 N573 1.384 . S
N572 C568 1.427 . S
N572 C569 1.384 . S
N573 C565 1.427 . S
N573 C571 1.384 . S
H574 C580 0.930 . S
H575 C584 0.930 . S
H576 C589 0.929 . S
H577 C587 0.929 . S
H578 C582 0.929 . S
H579 C588 0.929 . S
C580 H574 0.930 . S
C580 C581 1.367 . S
C580 C588 1.378 . S
C581 C580 1.367 . S
C581 C589 1.433 . S
C582 H578 0.929 . S
C582 C584 1.378 . S
C582 C586 1.350 . S
C583 C586 1.463 . S
C583 C588 1.350 . S
C583 N591 1.427 . S
C584 H575 0.930 . S
C584 C582 1.378 . S
C584 C585 1.367 . S
C585 C584 1.367 . S
C585 C587 1.433 . S
C586 C582 1.350 . S
C586 C583 1.463 . S
C586 N590 1.427 . S
C587 H577 0.929 . S
C587 C585 1.433 . S
C587 N590 1.384 . S
C588 H579 0.929 . S
C588 C580 1.378 . S
C588 C583 1.350 . S
C589 H576 0.929 . S
C589 C581 1.433 . S
C589 N591 1.384 . S
N590 C586 1.427 . S
N590 C587 1.384 . S
N591 C583 1.427 . S
N591 C589 1.384 . S
C167 C19 1.811 . S
C171 C148 1.811 . S
C185 C139 1.804 . S
C189 C28 1.804 . S
C203 C108 1.809 . S
C207 C59 1.809 . S
C221 C99 1.809 . S
C225 C68 1.809 . S
C239 C41 1.769 . S
C243 C1 1.763 . S
C257 C21 1.230 . S
C261 C61 1.225 . S
C275 C69 1.770 . S
C279 C29 1.769 . S
C293 C49 1.225 . S
C297 C9 1.230 . S
C311 C81 1.770 . S
C315 C121 1.763 . S
C329 C101 1.227 . S
C333 C141 1.233 . S
C347 C149 1.768 . S
C351 C109 1.771 . S
C365 C129 1.225 . S
C369 C89 1.230 . S
C383 C16 1.507 . S
C387 C6 1.507 . S
C401 C26 1.498 . S
C405 C36 1.498 . S
C419 C46 1.495 . S
C423 C56 1.495 . S
C437 C66 1.497 . S
C441 C76 1.497 . S
C455 C86 1.505 . S
C459 C96 1.505 . S
C473 C106 1.505 . S
C477 C116 1.505 . S
C491 C136 1.505 . S
C495 C126 1.505 . S
C509 C146 1.506 . S
C513 C156 1.506 . S
C527 C8 1.810 . S
C531 C39 1.821 . S
C545 C79 1.807 . S
C549 C48 1.825 . S
C563 C88 1.824 . S
C567 C119 1.808 . S
C581 C159 1.819 . S
C585 C128 1.813 . S
