# Generated by pormake.
# Topology snl, (6)-cn, num edge types: 1
# Building blocks:
#     Node 0, Type 0, BuildingBlock: BETFAJ_clean_sbu_0, # of connection points: 6
#     Node 1, Type 0, BuildingBlock: BETFAJ_clean_sbu_0, # of connection points: 6
#     Node 2, Type 0, BuildingBlock: BETFAJ_clean_sbu_0, # of connection points: 6
#     Node 3, Type 0, BuildingBlock: BETFAJ_clean_sbu_0, # of connection points: 6
#     Node 4, Type 0, BuildingBlock: BETFAJ_clean_sbu_0, # of connection points: 6
#     Node 5, Type 0, BuildingBlock: BETFAJ_clean_sbu_0, # of connection points: 6
#     Node 6, Type 0, BuildingBlock: BETFAJ_clean_sbu_0, # of connection points: 6
#     Node 7, Type 0, BuildingBlock: BETFAJ_clean_sbu_0, # of connection points: 6
#     Node 8, Type 0, BuildingBlock: BETFAJ_clean_sbu_0, # of connection points: 6
#     Node 9, Type 0, BuildingBlock: BETFAJ_clean_sbu_0, # of connection points: 6
#     Node 10, Type 0, BuildingBlock: BETFAJ_clean_sbu_0, # of connection points: 6
#     Node 11, Type 0, BuildingBlock: BETFAJ_clean_sbu_0, # of connection points: 6
#     Node 12, Type 0, BuildingBlock: BETFAJ_clean_sbu_0, # of connection points: 6
#     Node 13, Type 0, BuildingBlock: BETFAJ_clean_sbu_0, # of connection points: 6
#     Node 14, Type 0, BuildingBlock: BETFAJ_clean_sbu_0, # of connection points: 6
#     Node 15, Type 0, BuildingBlock: BETFAJ_clean_sbu_0, # of connection points: 6
#     Edge 16, Type (0, 0), BuildingBlock: KIFKEQ_clean_linker_1, # of connection points: 2
#     Edge 17, Type (0, 0), BuildingBlock: KIFKEQ_clean_linker_1, # of connection points: 2
#     Edge 18, Type (0, 0), BuildingBlock: KIFKEQ_clean_linker_1, # of connection points: 2
#     Edge 19, Type (0, 0), BuildingBlock: KIFKEQ_clean_linker_1, # of connection points: 2
#     Edge 20, Type (0, 0), BuildingBlock: KIFKEQ_clean_linker_1, # of connection points: 2
#     Edge 21, Type (0, 0), BuildingBlock: KIFKEQ_clean_linker_1, # of connection points: 2
#     Edge 22, Type (0, 0), BuildingBlock: KIFKEQ_clean_linker_1, # of connection points: 2
#     Edge 23, Type (0, 0), BuildingBlock: KIFKEQ_clean_linker_1, # of connection points: 2
#     Edge 24, Type (0, 0), BuildingBlock: KIFKEQ_clean_linker_1, # of connection points: 2
#     Edge 25, Type (0, 0), BuildingBlock: KIFKEQ_clean_linker_1, # of connection points: 2
#     Edge 26, Type (0, 0), BuildingBlock: KIFKEQ_clean_linker_1, # of connection points: 2
#     Edge 27, Type (0, 0), BuildingBlock: KIFKEQ_clean_linker_1, # of connection points: 2
#     Edge 28, Type (0, 0), BuildingBlock: KIFKEQ_clean_linker_1, # of connection points: 2
#     Edge 29, Type (0, 0), BuildingBlock: KIFKEQ_clean_linker_1, # of connection points: 2
#     Edge 30, Type (0, 0), BuildingBlock: KIFKEQ_clean_linker_1, # of connection points: 2
#     Edge 31, Type (0, 0), BuildingBlock: KIFKEQ_clean_linker_1, # of connection points: 2
#     Edge 32, Type (0, 0), BuildingBlock: KIFKEQ_clean_linker_1, # of connection points: 2
#     Edge 33, Type (0, 0), BuildingBlock: KIFKEQ_clean_linker_1, # of connection points: 2
#     Edge 34, Type (0, 0), BuildingBlock: KIFKEQ_clean_linker_1, # of connection points: 2
#     Edge 35, Type (0, 0), BuildingBlock: KIFKEQ_clean_linker_1, # of connection points: 2
#     Edge 36, Type (0, 0), BuildingBlock: KIFKEQ_clean_linker_1, # of connection points: 2
#     Edge 37, Type (0, 0), BuildingBlock: KIFKEQ_clean_linker_1, # of connection points: 2
#     Edge 38, Type (0, 0), BuildingBlock: KIFKEQ_clean_linker_1, # of connection points: 2
#     Edge 39, Type (0, 0), BuildingBlock: KIFKEQ_clean_linker_1, # of connection points: 2
#     Edge 40, Type (0, 0), BuildingBlock: KIFKEQ_clean_linker_1, # of connection points: 2
#     Edge 41, Type (0, 0), BuildingBlock: KIFKEQ_clean_linker_1, # of connection points: 2
#     Edge 42, Type (0, 0), BuildingBlock: KIFKEQ_clean_linker_1, # of connection points: 2
#     Edge 43, Type (0, 0), BuildingBlock: KIFKEQ_clean_linker_1, # of connection points: 2
#     Edge 44, Type (0, 0), BuildingBlock: KIFKEQ_clean_linker_1, # of connection points: 2
#     Edge 45, Type (0, 0), BuildingBlock: KIFKEQ_clean_linker_1, # of connection points: 2
#     Edge 46, Type (0, 0), BuildingBlock: KIFKEQ_clean_linker_1, # of connection points: 2
#     Edge 47, Type (0, 0), BuildingBlock: KIFKEQ_clean_linker_1, # of connection points: 2
#     Edge 48, Type (0, 0), BuildingBlock: KIFKEQ_clean_linker_1, # of connection points: 2
#     Edge 49, Type (0, 0), BuildingBlock: KIFKEQ_clean_linker_1, # of connection points: 2
#     Edge 50, Type (0, 0), BuildingBlock: KIFKEQ_clean_linker_1, # of connection points: 2
#     Edge 51, Type (0, 0), BuildingBlock: KIFKEQ_clean_linker_1, # of connection points: 2
#     Edge 52, Type (0, 0), BuildingBlock: KIFKEQ_clean_linker_1, # of connection points: 2
#     Edge 53, Type (0, 0), BuildingBlock: KIFKEQ_clean_linker_1, # of connection points: 2
#     Edge 54, Type (0, 0), BuildingBlock: KIFKEQ_clean_linker_1, # of connection points: 2
#     Edge 55, Type (0, 0), BuildingBlock: KIFKEQ_clean_linker_1, # of connection points: 2
#     Edge 56, Type (0, 0), BuildingBlock: KIFKEQ_clean_linker_1, # of connection points: 2
#     Edge 57, Type (0, 0), BuildingBlock: KIFKEQ_clean_linker_1, # of connection points: 2
#     Edge 58, Type (0, 0), BuildingBlock: KIFKEQ_clean_linker_1, # of connection points: 2
#     Edge 59, Type (0, 0), BuildingBlock: KIFKEQ_clean_linker_1, # of connection points: 2
#     Edge 60, Type (0, 0), BuildingBlock: KIFKEQ_clean_linker_1, # of connection points: 2
#     Edge 61, Type (0, 0), BuildingBlock: KIFKEQ_clean_linker_1, # of connection points: 2
#     Edge 62, Type (0, 0), BuildingBlock: KIFKEQ_clean_linker_1, # of connection points: 2
#     Edge 63, Type (0, 0), BuildingBlock: KIFKEQ_clean_linker_1, # of connection points: 2
# Relax obj value: 0.189
# Max RMSD: 0.253
# Mean RMSD: 0.224
data_MOF--net-snl--node1-BETFAJ_clean_sbu_0--edge1-KIFKEQ_clean_linker_1
_symmetry_space_group_name_H-M    P1
_symmetry_Int_Tables_number       1
_symmetry_cell_setting            triclinic
loop_
_symmetry_equiv_pos_as_xyz
'x, y, z'
_cell_length_a     58.439282
_cell_length_b     58.490577
_cell_length_c     26.354211
_cell_angle_alpha  102.81236
_cell_angle_beta   89.925479
_cell_angle_gamma 90.118303
loop_
_atom_site_label
_atom_site_type_symbol
_atom_site_fract_x
_atom_site_fract_y
_atom_site_fract_z
_atom_type_partial_charge
Sm0 Sm 0.14945 0.63045 0.0879 0.0
Sm1 Sm 0.1328 0.63455 0.1987 0.0
C2 C 0.15601 0.61325 0.98731 0.0
C3 C 0.14952 0.61841 0.93655 0.0
C4 C 0.13692 0.60179 0.90075 0.0
C5 C 0.13239 0.60517 0.8508 0.0
C6 C 0.14072 0.62511 0.83488 0.0
C7 C 0.15235 0.64233 0.87188 0.0
C8 C 0.1566 0.63906 0.92213 0.0
C9 C 0.14222 0.67779 0.12532 0.0
C10 C 0.09423 0.63703 0.11785 0.0
C11 C 0.1249 0.64387 0.3005 0.0
C12 C 0.1331 0.64014 0.35131 0.0
C13 C 0.14139 0.65936 0.38861 0.0
C14 C 0.14541 0.65742 0.43979 0.0
C15 C 0.14124 0.6362 0.45485 0.0
C16 C 0.13439 0.61652 0.41677 0.0
C17 C 0.13024 0.61849 0.36554 0.0
C18 C 0.13375 0.58947 0.13633 0.0
C19 C 0.18844 0.63067 0.17882 0.0
O20 O 0.13966 0.60597 0.01394 0.0
O21 O 0.17057 0.62742 0.01664 0.0
O22 O 0.13876 0.66246 0.15203 0.0
O23 O 0.15021 0.6683 0.07984 0.0
O24 O 0.10941 0.62673 0.08275 0.0
O25 O 0.10051 0.64652 0.16561 0.0
O26 O 0.13696 0.65756 0.27764 0.0
O27 O 0.11568 0.62619 0.26768 0.0
O28 O 0.14904 0.60491 0.13941 0.0
O29 O 0.11716 0.59739 0.16809 0.0
O30 O 0.17126 0.6348 0.21187 0.0
O31 O 0.18494 0.62712 0.12778 0.0
H32 H 0.13099 0.58584 0.91102 0.0
H33 H 0.12269 0.59185 0.8244 0.0
H34 H 0.15914 0.65792 0.8616 0.0
H35 H 0.16607 0.65242 0.94904 0.0
H36 H 0.14379 0.67624 0.37882 0.0
H37 H 0.15107 0.67277 0.46807 0.0
H38 H 0.13099 0.59994 0.42721 0.0
H39 H 0.12387 0.60332 0.33779 0.0
Sm40 Sm 0.64895 0.88512 0.43922 0.0
Sm41 Sm 0.63476 0.88232 0.32434 0.0
C42 C 0.6547 0.9019 0.53989 0.0
C43 C 0.64811 0.89686 0.5902 0.0
C44 C 0.64194 0.91558 0.63083 0.0
C45 C 0.63753 0.91189 0.6804 0.0
C46 C 0.639 0.88926 0.69044 0.0
C47 C 0.64398 0.87027 0.64868 0.0
C48 C 0.64857 0.87405 0.599 0.0
C49 C 0.64337 0.83822 0.39351 0.0
C50 C 0.59476 0.87727 0.40235 0.0
C51 C 0.62856 0.87144 0.22253 0.0
C52 C 0.63608 0.87638 0.17268 0.0
C53 C 0.64386 0.85773 0.13337 0.0
C54 C 0.64763 0.86091 0.08308 0.0
C55 C 0.64343 0.88275 0.07116 0.0
C56 C 0.63694 0.90177 0.11119 0.0
C57 C 0.63337 0.89865 0.16167 0.0
C58 C 0.63451 0.92666 0.38956 0.0
C59 C 0.68968 0.88793 0.35254 0.0
O60 O 0.6383 0.90892 0.51315 0.0
O61 O 0.66931 0.88763 0.51107 0.0
O62 O 0.64049 0.85507 0.37133 0.0
O63 O 0.64997 0.846 0.4411 0.0
O64 O 0.60882 0.88761 0.44006 0.0
O65 O 0.60258 0.86858 0.35528 0.0
O66 O 0.64278 0.86015 0.24648 0.0
O67 O 0.61661 0.88749 0.25413 0.0
O68 O 0.64926 0.91092 0.38826 0.0
O69 O 0.61949 0.9198 0.35297 0.0
O70 O 0.67358 0.88551 0.31669 0.0
O71 O 0.68496 0.88884 0.40238 0.0
H72 H 0.64125 0.93328 0.62462 0.0
H73 H 0.63402 0.92706 0.71125 0.0
H74 H 0.64472 0.85253 0.65444 0.0
H75 H 0.6529 0.85923 0.56785 0.0
H76 H 0.64599 0.84039 0.14095 0.0
H77 H 0.65247 0.84592 0.05285 0.0
H78 H 0.63385 0.91885 0.10297 0.0
H79 H 0.62757 0.9134 0.19137 0.0
Sm80 Sm 0.37966 0.40908 0.69419 0.0
Sm81 Sm 0.37419 0.38568 0.57886 0.0
C82 C 0.36841 0.42167 0.79425 0.0
C83 C 0.37205 0.41506 0.84506 0.0
C84 C 0.35351 0.40613 0.86863 0.0
C85 C 0.35559 0.40135 0.91811 0.0
C86 C 0.37638 0.40521 0.94581 0.0
C87 C 0.39521 0.41352 0.9214 0.0
C88 C 0.39305 0.41849 0.87178 0.0
C89 C 0.42366 0.39985 0.65794 0.0
C90 C 0.38298 0.35053 0.65246 0.0
C91 C 0.37283 0.37231 0.47559 0.0
C92 C 0.37222 0.38112 0.42677 0.0
C93 C 0.39165 0.39096 0.40811 0.0
C94 C 0.3916 0.39602 0.35843 0.0
C95 C 0.37222 0.39115 0.32614 0.0
C96 C 0.35247 0.38243 0.34596 0.0
C97 C 0.35248 0.37749 0.39558 0.0
C98 C 0.33533 0.38906 0.64043 0.0
C99 C 0.37574 0.44327 0.61002 0.0
O100 O 0.35644 0.40701 0.75957 0.0
O101 O 0.38515 0.43156 0.77366 0.0
O102 O 0.40592 0.39475 0.6295 0.0
O103 O 0.41816 0.41006 0.7051 0.0
O104 O 0.37799 0.36847 0.6916 0.0
O105 O 0.38649 0.35364 0.60518 0.0
O106 O 0.39184 0.37446 0.50251 0.0
O107 O 0.35456 0.37528 0.50496 0.0
O108 O 0.34977 0.40508 0.64015 0.0
O109 O 0.34137 0.36993 0.60797 0.0
O110 O 0.37655 0.42389 0.57364 0.0
O111 O 0.37582 0.44295 0.66041 0.0
H112 H 0.33707 0.40337 0.84921 0.0
H113 H 0.34049 0.39541 0.93521 0.0
H114 H 0.41166 0.41634 0.94061 0.0
H115 H 0.40773 0.42527 0.85471 0.0
H116 H 0.40717 0.394 0.43103 0.0
H117 H 0.40711 0.40267 0.34435 0.0
H118 H 0.33712 0.37887 0.32251 0.0
H119 H 0.33723 0.36999 0.4088 0.0
Sm120 Sm 0.88 0.10953 0.83222 0.0
Sm121 Sm 0.87393 0.13363 0.94881 0.0
C122 C 0.86932 0.09749 0.73164 0.0
C123 C 0.87374 0.10389 0.68063 0.0
C124 C 0.85869 0.11912 0.66257 0.0
C125 C 0.86093 0.12327 0.6124 0.0
C126 C 0.87815 0.11213 0.57846 0.0
C127 C 0.89372 0.09755 0.59711 0.0
C128 C 0.89153 0.09346 0.64749 0.0
C129 C 0.92362 0.11779 0.87185 0.0
C130 C 0.88349 0.16825 0.87442 0.0
C131 C 0.86944 0.14587 0.05176 0.0
C132 C 0.87064 0.1378 0.10128 0.0
C133 C 0.88974 0.12595 0.11534 0.0
C134 C 0.89084 0.12062 0.1648 0.0
C135 C 0.87291 0.12707 0.20075 0.0
C136 C 0.85355 0.13809 0.18589 0.0
C137 C 0.85241 0.14333 0.13666 0.0
C138 C 0.83541 0.13031 0.88616 0.0
C139 C 0.87993 0.07658 0.91826 0.0
O140 O 0.85773 0.11257 0.7662 0.0
O141 O 0.88533 0.08686 0.75262 0.0
O142 O 0.90539 0.12329 0.89824 0.0
O143 O 0.91881 0.10773 0.82411 0.0
O144 O 0.87942 0.15003 0.83526 0.0
O145 O 0.88586 0.16586 0.92263 0.0
O146 O 0.88843 0.14886 0.02741 0.0
O147 O 0.85268 0.13764 0.02018 0.0
O148 O 0.84985 0.1142 0.88574 0.0
O149 O 0.84111 0.14888 0.92071 0.0
O150 O 0.88267 0.09642 0.95248 0.0
O151 O 0.87582 0.07624 0.8683 0.0
H152 H 0.84463 0.12733 0.68665 0.0
H153 H 0.8485 0.13445 0.59947 0.0
H154 H 0.90743 0.08898 0.57242 0.0
H155 H 0.90344 0.08164 0.65991 0.0
H156 H 0.90398 0.12131 0.08872 0.0
H157 H 0.90595 0.11211 0.17556 0.0
H158 H 0.83953 0.1432 0.21294 0.0
H159 H 0.83746 0.15236 0.12671 0.0
Sm160 Sm 0.15014 0.38452 0.93393 0.0
Sm161 Sm 0.13419 0.3826 0.82914 0.0
C162 C 0.15705 0.39381 0.03616 0.0
C163 C 0.14801 0.39116 0.08707 0.0
C164 C 0.14559 0.41126 0.12702 0.0
C165 C 0.14088 0.40941 0.17793 0.0
C166 C 0.13823 0.38732 0.19035 0.0
C167 C 0.13919 0.36718 0.14938 0.0
C168 C 0.14418 0.36907 0.09836 0.0
C169 C 0.14901 0.33895 0.87566 0.0
C170 C 0.09456 0.3778 0.90629 0.0
C171 C 0.12618 0.37445 0.72762 0.0
C172 C 0.13431 0.37821 0.67686 0.0
C173 C 0.13976 0.35861 0.6373 0.0
C174 C 0.14375 0.36104 0.58645 0.0
C175 C 0.14216 0.38312 0.57396 0.0
C176 C 0.13804 0.40294 0.61416 0.0
C177 C 0.13419 0.40053 0.66519 0.0
C178 C 0.13482 0.42753 0.8924 0.0
C179 C 0.18946 0.38724 0.84848 0.0
O180 O 0.14651 0.40816 1.01252 0.0
O181 O 0.16509 0.37527 1.00412 0.0
O182 O 0.13357 0.35413 0.87605 0.0
O183 O 0.1658 0.34793 0.90557 0.0
O184 O 0.10977 0.38731 0.94225 0.0
O185 O 0.10122 0.36974 0.85819 0.0
O186 O 0.13796 0.36027 0.74948 0.0
O187 O 0.11753 0.39223 0.76116 0.0
O188 O 0.15063 0.41261 0.88857 0.0
O189 O 0.11797 0.4191 0.86194 0.0
O190 O 0.17292 0.37987 0.81509 0.0
O191 O 0.18506 0.39308 0.89902 0.0
H192 H 0.14848 0.42849 0.11936 0.0
H193 H 0.14059 0.42541 0.20783 0.0
H194 H 0.13665 0.34987 0.15675 0.0
H195 H 0.14575 0.35321 0.06822 0.0
H196 H 0.13985 0.3412 0.64518 0.0
H197 H 0.14674 0.34542 0.55634 0.0
H198 H 0.13705 0.42022 0.60577 0.0
H199 H 0.13021 0.41601 0.6949 0.0
Sm200 Sm 0.88052 0.90837 0.1932 0.0
Sm201 Sm 0.87225 0.88276 0.07574 0.0
C202 C 0.87184 0.92272 0.29443 0.0
C203 C 0.87455 0.91547 0.3449 0.0
C204 C 0.85521 0.90808 0.36869 0.0
C205 C 0.85662 0.90306 0.4181 0.0
C206 C 0.8775 0.90515 0.44552 0.0
C207 C 0.89707 0.91187 0.42086 0.0
C208 C 0.89559 0.9171 0.37137 0.0
C209 C 0.92286 0.89841 0.14712 0.0
C210 C 0.88416 0.84966 0.1527 0.0
C211 C 0.86915 0.86954 0.97287 0.0
C212 C 0.86978 0.8788 0.92466 0.0
C213 C 0.89018 0.88683 0.90597 0.0
C214 C 0.89084 0.89248 0.85686 0.0
C215 C 0.87118 0.89002 0.82526 0.0
C216 C 0.85056 0.88326 0.84536 0.0
C217 C 0.84988 0.87772 0.89434 0.0
C218 C 0.83538 0.88609 0.14283 0.0
C219 C 0.87528 0.94048 0.10514 0.0
O220 O 0.85759 0.9104 0.261 0.0
O221 O 0.88982 0.92964 0.27203 0.0
O222 O 0.90368 0.89357 0.12479 0.0
O223 O 0.91992 0.90895 0.19541 0.0
O224 O 0.87947 0.86791 0.19158 0.0
O225 O 0.88611 0.85186 0.10421 0.0
O226 O 0.88826 0.86872 0.99842 0.0
O227 O 0.85141 0.87506 1.00345 0.0
O228 O 0.84972 0.90213 0.14123 0.0
O229 O 0.83974 0.86752 0.10689 0.0
O230 O 0.87589 0.9207 0.06987 0.0
O231 O 0.87575 0.94109 0.15604 0.0
H232 H 0.83869 0.90675 0.34959 0.0
H233 H 0.84098 0.89839 0.43539 0.0
H234 H 0.91359 0.91327 0.4398 0.0
H235 H 0.91088 0.92271 0.35424 0.0
H236 H 0.90582 0.888 0.92839 0.0
H237 H 0.907 0.89764 0.84259 0.0
H238 H 0.835 0.88164 0.82252 0.0
H239 H 0.83387 0.87174 0.90773 0.0
Sm240 Sm 0.38109 0.6093 0.33209 0.0
Sm241 Sm 0.373 0.63116 0.44924 0.0
C242 C 0.37146 0.59763 0.23123 0.0
C243 C 0.37538 0.60475 0.18108 0.0
C244 C 0.35955 0.61955 0.16415 0.0
C245 C 0.36125 0.62428 0.11458 0.0
C246 C 0.37859 0.61401 0.07988 0.0
C247 C 0.39502 0.59997 0.09763 0.0
C248 C 0.39342 0.59538 0.1476 0.0
C249 C 0.42377 0.61921 0.37627 0.0
C250 C 0.38314 0.66764 0.37861 0.0
C251 C 0.36704 0.64299 0.55144 0.0
C252 C 0.36929 0.63539 0.60101 0.0
C253 C 0.38978 0.62633 0.61629 0.0
C254 C 0.39159 0.62127 0.66576 0.0
C255 C 0.37291 0.62502 0.70044 0.0
C256 C 0.35224 0.63326 0.68406 0.0
C257 C 0.35051 0.63845 0.635 0.0
C258 C 0.33532 0.62809 0.38406 0.0
C259 C 0.38081 0.57461 0.41445 0.0
O260 O 0.3591 0.61187 0.26579 0.0
O261 O 0.38808 0.58774 0.2521 0.0
O262 O 0.40488 0.62309 0.40036 0.0
O263 O 0.42043 0.60952 0.32763 0.0
O264 O 0.37928 0.64996 0.33809 0.0
O265 O 0.38508 0.66422 0.42616 0.0
O266 O 0.38557 0.64826 0.52827 0.0
O267 O 0.35142 0.63243 0.51906 0.0
O268 O 0.3501 0.61225 0.38313 0.0
O269 O 0.34022 0.64624 0.42051 0.0
O270 O 0.38343 0.59377 0.45101 0.0
O271 O 0.37663 0.57544 0.36521 0.0
H272 H 0.34535 0.62705 0.1887 0.0
H273 H 0.34861 0.63568 0.1032 0.0
H274 H 0.40859 0.59161 0.0722 0.0
H275 H 0.40586 0.58385 0.15926 0.0
H276 H 0.40446 0.62357 0.59053 0.0
H277 H 0.40764 0.61465 0.67712 0.0
H278 H 0.33762 0.63654 0.70995 0.0
H279 H 0.33455 0.64545 0.62404 0.0
Sm280 Sm 0.65001 0.13325 0.59142 0.0
Sm281 Sm 0.63399 0.13282 0.69619 0.0
C282 C 0.65823 0.12814 0.49006 0.0
C283 C 0.64855 0.13079 0.43962 0.0
C284 C 0.63896 0.11132 0.40491 0.0
C285 C 0.63405 0.11236 0.35348 0.0
C286 C 0.63868 0.13283 0.33594 0.0
C287 C 0.64693 0.1527 0.37112 0.0
C288 C 0.6518 0.15172 0.42256 0.0
C289 C 0.6465 0.1778 0.65402 0.0
C290 C 0.59414 0.13443 0.61755 0.0
C291 C 0.62645 0.14124 0.79797 0.0
C292 C 0.63417 0.13687 0.84848 0.0
C293 C 0.64499 0.15488 0.88479 0.0
C294 C 0.64841 0.15275 0.93608 0.0
C295 C 0.64087 0.13265 0.95219 0.0
C296 C 0.6314 0.11404 0.91501 0.0
C297 C 0.62806 0.11612 0.86373 0.0
C298 C 0.6366 0.08825 0.63251 0.0
C299 C 0.68929 0.13193 0.67695 0.0
O300 O 0.65022 0.11149 0.51073 0.0
O301 O 0.66344 0.14702 0.52485 0.0
O302 O 0.63169 0.16171 0.65073 0.0
O303 O 0.66412 0.17012 0.62558 0.0
O304 O 0.61003 0.1278 0.58121 0.0
O305 O 0.59995 0.14209 0.66633 0.0
O306 O 0.63904 0.15478 0.77584 0.0
O307 O 0.61679 0.12406 0.76455 0.0
O308 O 0.65137 0.10426 0.63454 0.0
O309 O 0.62093 0.09474 0.66746 0.0
O310 O 0.67235 0.13856 0.70967 0.0
O311 O 0.68512 0.12527 0.62641 0.0
H312 H 0.63639 0.09488 0.41661 0.0
H313 H 0.62786 0.09678 0.32665 0.0
H314 H 0.65075 0.1686 0.35805 0.0
H315 H 0.65927 0.16699 0.44806 0.0
H316 H 0.64978 0.17113 0.87429 0.0
H317 H 0.65572 0.16742 0.96379 0.0
H318 H 0.62585 0.09814 0.92604 0.0
H319 H 0.61975 0.10187 0.83675 0.0
Sm320 Sm 0.88033 0.38456 0.82562 0.0
Sm321 Sm 0.86754 0.38556 0.93918 0.0
C322 C 0.88609 0.3739 0.72382 0.0
C323 C 0.87854 0.37735 0.67297 0.0
C324 C 0.87343 0.3574 0.6342 0.0
C325 C 0.87031 0.35925 0.58292 0.0
C326 C 0.87206 0.38112 0.56984 0.0
C327 C 0.87562 0.40136 0.60902 0.0
C328 C 0.87896 0.39949 0.66048 0.0
C329 C 0.88025 0.42888 0.89125 0.0
C330 C 0.82568 0.38859 0.85535 0.0
C331 C 0.86329 0.40109 0.04062 0.0
C332 C 0.86931 0.39602 0.09108 0.0
C333 C 0.87834 0.4143 0.12933 0.0
C334 C 0.88226 0.4112 0.17941 0.0
C335 C 0.87701 0.38976 0.19242 0.0
C336 C 0.86938 0.37088 0.15316 0.0
C337 C 0.86553 0.374 0.10267 0.0
C338 C 0.8729 0.33896 0.89179 0.0
C339 C 0.92155 0.37927 0.90014 0.0
O340 O 0.87257 0.36204 0.74819 0.0
O341 O 0.89715 0.39095 0.75475 0.0
O342 O 0.86596 0.41272 0.89138 0.0
O343 O 0.89463 0.4225 0.85311 0.0
O344 O 0.84148 0.38693 0.81901 0.0
O345 O 0.83091 0.38909 0.90478 0.0
O346 O 0.88031 0.40687 0.01366 0.0
O347 O 0.84767 0.38809 1.01209 0.0
O348 O 0.87544 0.35596 0.86975 0.0
O349 O 0.86667 0.34644 0.93971 0.0
O350 O 0.90761 0.38871 0.9388 0.0
O351 O 0.91353 0.37149 0.85303 0.0
H352 H 0.87301 0.34018 0.6431 0.0
H353 H 0.86744 0.3435 0.55306 0.0
H354 H 0.87707 0.41837 0.59935 0.0
H355 H 0.88286 0.41515 0.68981 0.0
H356 H 0.88171 0.4313 0.12085 0.0
H357 H 0.8887 0.42587 0.20851 0.0
H358 H 0.86529 0.35413 0.16207 0.0
H359 H 0.85893 0.3595 0.07335 0.0
Sm360 Sm 0.38067 0.13521 0.69785 0.0
Sm361 Sm 0.36714 0.13023 0.59016 0.0
C362 C 0.38775 0.14475 0.79985 0.0
C363 C 0.38084 0.13951 0.85018 0.0
C364 C 0.36934 0.15666 0.88719 0.0
C365 C 0.36615 0.15379 0.93803 0.0
C366 C 0.37471 0.13386 0.95298 0.0
C367 C 0.38519 0.11617 0.91543 0.0
C368 C 0.38816 0.11891 0.86445 0.0
C369 C 0.38085 0.08922 0.63861 0.0
C370 C 0.32616 0.12885 0.67304 0.0
C371 C 0.36298 0.11543 0.48781 0.0
C372 C 0.36927 0.12095 0.43756 0.0
C373 C 0.38128 0.10432 0.40041 0.0
C374 C 0.38469 0.10783 0.35012 0.0
C375 C 0.37584 0.12786 0.33606 0.0
C376 C 0.36474 0.14494 0.37385 0.0
C377 C 0.36157 0.14159 0.42422 0.0
C378 C 0.36643 0.1771 0.6408 0.0
C379 C 0.4218 0.13864 0.62352 0.0
O380 O 0.37366 0.15673 0.77726 0.0
O381 O 0.39902 0.12872 0.76682 0.0
O382 O 0.36541 0.10419 0.63985 0.0
O383 O 0.39718 0.09809 0.67011 0.0
O384 O 0.34163 0.13723 0.70843 0.0
O385 O 0.33203 0.12158 0.6236 0.0
O386 O 0.37917 0.10823 0.51461 0.0
O387 O 0.3482 0.12914 0.51701 0.0
O388 O 0.38171 0.16261 0.64739 0.0
O389 O 0.35199 0.16703 0.6056 0.0
O390 O 0.40744 0.12833 0.58657 0.0
O391 O 0.41393 0.14799 0.67005 0.0
H392 H 0.36372 0.17281 0.87751 0.0
H393 H 0.35812 0.16773 0.96637 0.0
H394 H 0.39171 0.10052 0.92598 0.0
H395 H 0.39706 0.10532 0.83695 0.0
H396 H 0.38726 0.08821 0.40969 0.0
H397 H 0.39319 0.09434 0.32152 0.0
H398 H 0.35796 0.16062 0.36397 0.0
H399 H 0.35238 0.15479 0.45205 0.0
Sm400 Sm 0.64368 0.63296 0.449 0.0
Sm401 Sm 0.63558 0.60807 0.33264 0.0
C402 C 0.64904 0.64535 0.55152 0.0
C403 C 0.64704 0.63672 0.60039 0.0
C404 C 0.62573 0.63306 0.62223 0.0
C405 C 0.62447 0.62788 0.67176 0.0
C406 C 0.64447 0.62635 0.70067 0.0
C407 C 0.66576 0.62868 0.67723 0.0
C408 C 0.66701 0.63393 0.62801 0.0
C409 C 0.68098 0.62865 0.38281 0.0
C410 C 0.63603 0.57581 0.41994 0.0
C411 C 0.64503 0.59503 0.23165 0.0
C412 C 0.64139 0.60266 0.18175 0.0
C413 C 0.65674 0.61839 0.16626 0.0
C414 C 0.65504 0.6237 0.11712 0.0
C415 C 0.63825 0.61305 0.08109 0.0
C416 C 0.62228 0.59804 0.09757 0.0
C417 C 0.62383 0.59295 0.14714 0.0
C418 C 0.59297 0.61879 0.37644 0.0
C419 C 0.63356 0.66695 0.37343 0.0
O420 O 0.63036 0.64972 0.5278 0.0
O421 O 0.66536 0.63633 0.5193 0.0
O422 O 0.66638 0.61286 0.38449 0.0
O423 O 0.6761 0.64766 0.41687 0.0
O424 O 0.63436 0.59585 0.45415 0.0
O425 O 0.63921 0.57507 0.36948 0.0
O426 O 0.65854 0.60808 0.26585 0.0
O427 O 0.62771 0.58645 0.25322 0.0
O428 O 0.61187 0.62335 0.40032 0.0
O429 O 0.59637 0.60841 0.32823 0.0
O430 O 0.63707 0.6485 0.33435 0.0
O431 O 0.63169 0.6649 0.42203 0.0
H432 H 0.61 0.63494 0.6019 0.0
H433 H 0.60775 0.62619 0.68831 0.0
H434 H 0.68158 0.627 0.69744 0.0
H435 H 0.6837 0.63652 0.6122 0.0
H436 H 0.67053 0.62629 0.19168 0.0
H437 H 0.66727 0.63596 0.10729 0.0
H438 H 0.6091 0.58931 0.07151 0.0
H439 H 0.6117 0.58075 0.15765 0.0
Sm440 Sm 0.14272 0.88709 0.07926 0.0
Sm441 Sm 0.13455 0.91074 0.19606 0.0
C442 C 0.14505 0.87366 0.97634 0.0
C443 C 0.14445 0.88246 0.9276 0.0
C444 C 0.12367 0.88774 0.90588 0.0
C445 C 0.12317 0.8927 0.85621 0.0
C446 C 0.1434 0.89233 0.827 0.0
C447 C 0.16429 0.88831 0.85002 0.0
C448 C 0.16479 0.88337 0.89957 0.0
C449 C 0.18018 0.8909 0.14417 0.0
C450 C 0.1389 0.94478 0.11157 0.0
C451 C 0.14373 0.92454 0.29686 0.0
C452 C 0.14101 0.91645 0.34625 0.0
C453 C 0.15946 0.90573 0.36569 0.0
C454 C 0.15816 0.89969 0.41404 0.0
C455 C 0.13847 0.90467 0.44598 0.0
C456 C 0.11959 0.91459 0.4248 0.0
C457 C 0.12087 0.92037 0.3759 0.0
C458 C 0.0919 0.89965 0.15289 0.0
C459 C 0.13418 0.85213 0.15488 0.0
O460 O 0.12602 0.8735 1.00264 0.0
O461 O 0.16301 0.87895 1.00623 0.0
O462 O 0.16537 0.90663 0.14418 0.0
O463 O 0.17578 0.87233 0.10831 0.0
O464 O 0.13982 0.92548 0.07482 0.0
O465 O 0.13763 0.94443 0.16186 0.0
O466 O 0.15793 0.91259 0.26269 0.0
O467 O 0.12566 0.9317 0.27534 0.0
O468 O 0.11071 0.89558 0.1282 0.0
O469 O 0.09553 0.90957 0.20126 0.0
O470 O 0.13713 0.87041 0.19454 0.0
O471 O 0.1321 0.85459 0.1066 0.0
H472 H 0.10767 0.8872 0.92634 0.0
H473 H 0.10677 0.89566 0.83969 0.0
H474 H 0.18025 0.88837 0.82912 0.0
H475 H 0.18109 0.87942 0.91516 0.0
H476 H 0.17528 0.90232 0.34383 0.0
H477 H 0.17314 0.89145 0.42554 0.0
H478 H 0.10373 0.91869 0.44569 0.0
H479 H 0.10619 0.92844 0.36196 0.0
Sm480 Sm 0.87997 0.63459 0.19933 0.0
Sm481 Sm 0.86634 0.63373 0.09213 0.0
C482 C 0.88662 0.6438 0.30114 0.0
C483 C 0.8788 0.63947 0.35142 0.0
C484 C 0.872 0.65861 0.39072 0.0
C485 C 0.86842 0.65589 0.44144 0.0
C486 C 0.87183 0.63401 0.45385 0.0
C487 C 0.8773 0.61455 0.4139 0.0
C488 C 0.88069 0.61723 0.36302 0.0
C489 C 0.87874 0.58984 0.13563 0.0
C490 C 0.82522 0.63047 0.17371 0.0
C491 C 0.86066 0.62445 0.98978 0.0
C492 C 0.86966 0.6275 0.93939 0.0
C493 C 0.87342 0.60746 0.90001 0.0
C494 C 0.87802 0.6094 0.84921 0.0
C495 C 0.87915 0.63154 0.83654 0.0
C496 C 0.87695 0.65171 0.87702 0.0
C497 C 0.87208 0.64972 0.92792 0.0
C498 C 0.86808 0.6788 0.15275 0.0
C499 C 0.92151 0.63779 0.12475 0.0
O500 O 0.87369 0.65674 0.27826 0.0
O501 O 0.8969 0.62676 0.26858 0.0
O502 O 0.86401 0.60563 0.13692 0.0
O503 O 0.89426 0.59686 0.17081 0.0
O504 O 0.84098 0.63693 0.20961 0.0
O505 O 0.83073 0.62531 0.12372 0.0
O506 O 0.87198 0.61077 0.01377 0.0
O507 O 0.85149 0.64251 0.02139 0.0
O508 O 0.8828 0.66297 0.1527 0.0
O509 O 0.85189 0.67091 0.12001 0.0
O510 O 0.90665 0.63006 0.08669 0.0
O511 O 0.91412 0.64555 0.1724 0.0
H512 H 0.87056 0.67596 0.38279 0.0
H513 H 0.86437 0.67121 0.47156 0.0
H514 H 0.87976 0.59744 0.42244 0.0
H515 H 0.88579 0.60211 0.33344 0.0
H516 H 0.87163 0.59014 0.90797 0.0
H517 H 0.87933 0.59339 0.81952 0.0
H518 H 0.87832 0.66908 0.86926 0.0
H519 H 0.86945 0.66552 0.95773 0.0
Sm520 Sm 0.14323 0.13256 0.94924 0.0
Sm521 Sm 0.13572 0.10905 0.83076 0.0
C522 C 0.14741 0.14502 0.05207 0.0
C523 C 0.14588 0.13672 0.10131 0.0
C524 C 0.12505 0.1295 0.11967 0.0
C525 C 0.12373 0.1246 0.16939 0.0
C526 C 0.14323 0.12652 0.20126 0.0
C527 C 0.16421 0.13268 0.18199 0.0
C528 C 0.16547 0.13789 0.13271 0.0
C529 C 0.18082 0.12936 0.88404 0.0
C530 C 0.13802 0.07507 0.91454 0.0
C531 C 0.14498 0.09645 0.72955 0.0
C532 C 0.14128 0.10376 0.67942 0.0
C533 C 0.15763 0.11785 0.66133 0.0
C534 C 0.15578 0.12255 0.61159 0.0
C535 C 0.13777 0.11296 0.5784 0.0
C536 C 0.12102 0.09954 0.59688 0.0
C537 C 0.12269 0.09506 0.6469 0.0
C538 C 0.09301 0.1181 0.87605 0.0
C539 C 0.1328 0.16742 0.87473 0.0
O540 O 0.12852 0.14789 0.02739 0.0
O541 O 0.16437 0.13706 0.02076 0.0
O542 O 0.16613 0.11348 0.88384 0.0
O543 O 0.1761 0.14786 0.91974 0.0
O544 O 0.13614 0.09424 0.95158 0.0
O545 O 0.14062 0.07568 0.86468 0.0
O546 O 0.15828 0.10976 0.76367 0.0
O547 O 0.12781 0.08768 0.75119 0.0
O548 O 0.11204 0.12276 0.89904 0.0
O549 O 0.09631 0.10804 0.82757 0.0
O550 O 0.13753 0.14951 0.83534 0.0
O551 O 0.13036 0.1647 0.92281 0.0
H552 H 0.10967 0.12827 0.09634 0.0
H553 H 0.1074 0.11969 0.18337 0.0
H554 H 0.17944 0.13442 0.20595 0.0
H555 H 0.18171 0.14355 0.11975 0.0
H556 H 0.17233 0.12465 0.68495 0.0
H557 H 0.16903 0.13278 0.59816 0.0
H558 H 0.10687 0.09208 0.57211 0.0
H559 H 0.10981 0.08415 0.65938 0.0
Sm560 Sm 0.64412 0.38342 0.57644 0.0
Sm561 Sm 0.63796 0.40712 0.69189 0.0
C562 C 0.64772 0.37062 0.47335 0.0
C563 C 0.64603 0.37926 0.42444 0.0
C564 C 0.62494 0.38543 0.40551 0.0
C565 C 0.6235 0.39076 0.3562 0.0
C566 C 0.64312 0.39019 0.32486 0.0
C567 C 0.66431 0.38496 0.34482 0.0
C568 C 0.66571 0.37945 0.3938 0.0
C569 C 0.68228 0.38589 0.64019 0.0
C570 C 0.64214 0.44084 0.60758 0.0
C571 C 0.64891 0.4191 0.79229 0.0
C572 C 0.64523 0.41246 0.84319 0.0
C573 C 0.66283 0.40098 0.86396 0.0
C574 C 0.66101 0.39655 0.91386 0.0
C575 C 0.64165 0.4038 0.94515 0.0
C576 C 0.62357 0.41447 0.92352 0.0
C577 C 0.62535 0.41878 0.87321 0.0
C578 C 0.59422 0.40107 0.65272 0.0
C579 C 0.63233 0.34873 0.64958 0.0
O580 O 0.62893 0.36813 0.49878 0.0
O581 O 0.66498 0.37807 0.50412 0.0
O582 O 0.66824 0.40214 0.63927 0.0
O583 O 0.67619 0.36702 0.60686 0.0
O584 O 0.63997 0.42151 0.57138 0.0
O585 O 0.64336 0.44056 0.65789 0.0
O586 O 0.66073 0.40444 0.75739 0.0
O587 O 0.63236 0.42923 0.77187 0.0
O588 O 0.61209 0.39472 0.62527 0.0
O589 O 0.59949 0.41059 0.70047 0.0
O590 O 0.63746 0.36661 0.68872 0.0
O591 O 0.63024 0.35159 0.60171 0.0
H592 H 0.60944 0.38558 0.42815 0.0
H593 H 0.60698 0.39504 0.34227 0.0
H594 H 0.67973 0.38418 0.32163 0.0
H595 H 0.68218 0.37462 0.40709 0.0
H596 H 0.67839 0.39585 0.842 0.0
H597 H 0.67505 0.3877 0.92813 0.0
H598 H 0.60838 0.42038 0.94615 0.0
H599 H 0.61142 0.42763 0.85851 0.0
Sm600 Sm 0.38103 0.88332 0.32847 0.0
Sm601 Sm 0.36634 0.88406 0.43392 0.0
C602 C 0.3885 0.87482 0.22683 0.0
C603 C 0.38079 0.87944 0.17659 0.0
C604 C 0.36733 0.86289 0.14256 0.0
C605 C 0.36346 0.86509 0.09148 0.0
C606 C 0.37338 0.88364 0.07289 0.0
C607 C 0.38582 0.90084 0.1081 0.0
C608 C 0.38938 0.8988 0.15926 0.0
C609 C 0.38022 0.92807 0.39213 0.0
C610 C 0.32599 0.88749 0.35158 0.0
C611 C 0.35986 0.89236 0.53608 0.0
C612 C 0.36921 0.88868 0.58586 0.0
C613 C 0.38035 0.90722 0.61997 0.0
C614 C 0.38531 0.90572 0.67097 0.0
C615 C 0.37916 0.88568 0.68899 0.0
C616 C 0.36949 0.86648 0.65389 0.0
C617 C 0.36446 0.868 0.60286 0.0
C618 C 0.36849 0.83884 0.3734 0.0
C619 C 0.42186 0.88092 0.40464 0.0
O620 O 0.37587 0.86128 0.24896 0.0
O621 O 0.39822 0.89198 0.26021 0.0
O622 O 0.36488 0.91268 0.38991 0.0
O623 O 0.39628 0.92044 0.35874 0.0
O624 O 0.34206 0.88124 0.31632 0.0
O625 O 0.33106 0.89253 0.4017 0.0
O626 O 0.37066 0.9068 0.51296 0.0
O627 O 0.3511 0.87437 0.50345 0.0
O628 O 0.38336 0.85469 0.37449 0.0
O629 O 0.35181 0.84692 0.40454 0.0
O630 O 0.40651 0.88801 0.44192 0.0
O631 O 0.41524 0.87323 0.3564 0.0
H632 H 0.3605 0.84771 0.1547 0.0
H633 H 0.35324 0.85183 0.06626 0.0
H634 H 0.39401 0.91528 0.0957 0.0
H635 H 0.39992 0.91183 0.18435 0.0
H636 H 0.38421 0.9234 0.6081 0.0
H637 H 0.39307 0.92066 0.69703 0.0
H638 H 0.36446 0.85085 0.66678 0.0
H639 H 0.3558 0.8534 0.57768 0.0
H640 H 0.14094 0.5896 0.74666 0.0
H641 H 0.13641 0.66506 0.79566 0.0
H642 H 0.13988 0.59251 0.65684 0.0
H643 H 0.138 0.66815 0.7056 0.0
H644 H 0.12271 0.66727 0.53686 0.0
H645 H 0.12094 0.66465 0.62734 0.0
H646 H 0.16054 0.60061 0.59026 0.0
H647 H 0.16091 0.60271 0.49903 0.0
C648 C 0.13963 0.6069 0.73856 0.0
C649 C 0.13883 0.62709 0.77923 0.0
C650 C 0.13959 0.60861 0.68647 0.0
C651 C 0.13932 0.63059 0.673 0.0
C652 C 0.13806 0.6508 0.71367 0.0
C653 C 0.13755 0.64906 0.76585 0.0
C654 C 0.13116 0.65271 0.54823 0.0
C655 C 0.14195 0.6352 0.51078 0.0
C656 C 0.13024 0.65121 0.60043 0.0
C657 C 0.14051 0.63235 0.61703 0.0
C658 C 0.15183 0.61511 0.57941 0.0
C659 C 0.1523 0.61638 0.52694 0.0
H660 H 0.67628 0.86868 0.99683 0.0
H661 H 0.60966 0.90073 0.02165 0.0
H662 H 0.67446 0.86979 0.90538 0.0
H663 H 0.60651 0.9 0.93003 0.0
H664 H 0.61181 0.91336 0.76961 0.0
H665 H 0.61402 0.9133 0.86062 0.0
H666 H 0.66181 0.85534 0.82567 0.0
H667 H 0.662 0.85789 0.73558 0.0
C668 C 0.66119 0.87589 0.98239 0.0
C669 C 0.64322 0.88482 0.01625 0.0
C670 C 0.65987 0.87622 0.92958 0.0
C671 C 0.64018 0.88478 0.9089 0.0
C672 C 0.62227 0.89374 0.94351 0.0
C673 C 0.62394 0.89409 0.99646 0.0
C674 C 0.62314 0.90088 0.78141 0.0
C675 C 0.63714 0.88606 0.74493 0.0
C676 C 0.6241 0.90046 0.8341 0.0
C677 C 0.63839 0.88451 0.85195 0.0
C678 C 0.65119 0.86856 0.81468 0.0
C679 C 0.65085 0.86957 0.76218 0.0
H680 H 0.35723 0.35964 0.24042 0.0
H681 H 0.38955 0.42733 0.2863 0.0
H682 H 0.36027 0.36134 0.15036 0.0
H683 H 0.39104 0.43043 0.1962 0.0
H684 H 0.40271 0.42915 0.02786 0.0
H685 H 0.40334 0.42478 0.11661 0.0
H686 H 0.35144 0.37061 0.07862 0.0
H687 H 0.35339 0.37292 0.98917 0.0
C688 C 0.36461 0.37522 0.23109 0.0
C689 C 0.37309 0.39335 0.27074 0.0
C690 C 0.36626 0.37639 0.17873 0.0
C691 C 0.37586 0.39615 0.16387 0.0
C692 C 0.38402 0.41452 0.20426 0.0
C693 C 0.38296 0.41296 0.25666 0.0
C694 C 0.3919 0.41582 0.0381 0.0
C695 C 0.37781 0.40162 1.00056 0.0
C696 C 0.3918 0.41363 0.09011 0.0
C697 C 0.37709 0.3976 0.10711 0.0
C698 C 0.36335 0.3831 0.06889 0.0
C699 C 0.36404 0.38478 0.01671 0.0
H700 H 0.88608 0.07795 0.49065 0.0
H701 H 0.87151 0.15183 0.54027 0.0
H702 H 0.88597 0.08131 0.4004 0.0
H703 H 0.86997 0.15507 0.44989 0.0
H704 H 0.88668 0.15976 0.28464 0.0
H705 H 0.88921 0.15637 0.37501 0.0
H706 H 0.86432 0.08498 0.3301 0.0
H707 H 0.86315 0.08837 0.23928 0.0
C708 C 0.88298 0.095 0.48233 0.0
C709 C 0.87892 0.11462 0.52305 0.0
C710 C 0.8825 0.09688 0.4302 0.0
C711 C 0.87783 0.11846 0.41689 0.0
C712 C 0.87395 0.13816 0.45787 0.0
C713 C 0.87455 0.13627 0.51004 0.0
C714 C 0.88204 0.1433 0.29435 0.0
C715 C 0.87498 0.12426 0.25517 0.0
C716 C 0.88319 0.14136 0.34634 0.0
C717 C 0.87695 0.12037 0.36081 0.0
C718 C 0.86976 0.10131 0.32103 0.0
C719 C 0.86892 0.10321 0.26884 0.0
H720 H 0.11814 0.41828 0.27264 0.0
H721 H 0.15419 0.35218 0.23577 0.0
H722 H 0.12073 0.41858 0.36396 0.0
H723 H 0.15408 0.35089 0.32674 0.0
H724 H 0.17208 0.36294 0.49668 0.0
H725 H 0.1705 0.36385 0.40493 0.0
H726 H 0.10941 0.40662 0.43426 0.0
H727 H 0.11223 0.40692 0.52596 0.0
C728 C 0.12645 0.40362 0.28376 0.0
C729 C 0.13638 0.38548 0.24609 0.0
C730 C 0.12754 0.40353 0.33671 0.0
C731 C 0.13787 0.38486 0.35394 0.0
C732 C 0.14662 0.36604 0.31594 0.0
C733 C 0.14616 0.36649 0.26304 0.0
C734 C 0.15852 0.37276 0.48331 0.0
C735 C 0.14238 0.38498 0.5186 0.0
C736 C 0.15736 0.37306 0.43037 0.0
C737 C 0.13965 0.38513 0.41098 0.0
C738 C 0.12364 0.39749 0.44687 0.0
C739 C 0.12517 0.39763 0.49987 0.0
H740 H 0.85321 0.86077 0.73973 0.0
H741 H 0.89244 0.92442 0.78562 0.0
H742 H 0.85653 0.86261 0.64997 0.0
H743 H 0.89439 0.92785 0.69579 0.0
H744 H 0.90546 0.92658 0.52707 0.0
H745 H 0.90552 0.92193 0.61555 0.0
H746 H 0.84922 0.87263 0.57864 0.0
H747 H 0.85158 0.87501 0.48938 0.0
C748 C 0.86221 0.87554 0.73048 0.0
C749 C 0.87247 0.89247 0.77006 0.0
C750 C 0.86404 0.87683 0.67824 0.0
C751 C 0.87567 0.89555 0.66338 0.0
C752 C 0.88569 0.91272 0.70374 0.0
C753 C 0.8844 0.911 0.75603 0.0
C754 C 0.89352 0.91421 0.53747 0.0
C755 C 0.87837 0.90139 0.50023 0.0
C756 C 0.89312 0.91189 0.58939 0.0
C757 C 0.87708 0.89714 0.60668 0.0
C758 C 0.8622 0.88406 0.56877 0.0
C759 C 0.86315 0.88581 0.51666 0.0
H760 H 0.40755 0.6399 0.76944 0.0
H761 H 0.34303 0.60309 0.75406 0.0
H762 H 0.40928 0.63833 0.86084 0.0
H763 H 0.34515 0.60026 0.84453 0.0
H764 H 0.34149 0.6171 0.01788 0.0
H765 H 0.34092 0.62041 0.92823 0.0
H766 H 0.41488 0.61767 0.9239 0.0
H767 H 0.41544 0.61671 0.01558 0.0
C768 C 0.39395 0.63102 0.78544 0.0
C769 C 0.37512 0.62171 0.7546 0.0
C770 C 0.39493 0.63004 0.83803 0.0
C771 C 0.37726 0.61935 0.86101 0.0
C772 C 0.35881 0.60929 0.82925 0.0
C773 C 0.35766 0.61066 0.777 0.0
C774 C 0.35772 0.61779 0.99843 0.0
C775 C 0.37854 0.61666 0.02461 0.0
C776 C 0.35738 0.61916 0.94616 0.0
C777 C 0.37783 0.6189 0.91772 0.0
C778 C 0.3987 0.61808 0.94407 0.0
C779 C 0.39904 0.61715 0.99678 0.0
H780 H 0.67506 0.14626 0.02397 0.0
H781 H 0.6065 0.11799 1.00734 0.0
H782 H 0.67398 0.14687 0.11681 0.0
H783 H 0.60571 0.11754 0.09936 0.0
H784 H 0.60264 0.14144 0.27665 0.0
H785 H 0.60324 0.14171 0.18373 0.0
H786 H 0.67483 0.12251 0.17676 0.0
H787 H 0.67414 0.12324 0.26967 0.0
C788 C 0.65982 0.14004 0.04012 0.0
C789 C 0.64094 0.13192 1.00822 0.0
C790 C 0.65924 0.14017 0.09329 0.0
C791 C 0.63975 0.13219 0.11586 0.0
C792 C 0.62091 0.12406 0.08372 0.0
C793 C 0.62149 0.12396 0.03067 0.0
C794 C 0.61841 0.13735 0.25489 0.0
C795 C 0.63837 0.13239 0.27979 0.0
C796 C 0.61879 0.13733 0.2017 0.0
C797 C 0.63914 0.1322 0.1725 0.0
C798 C 0.65898 0.127 0.19792 0.0
C799 C 0.6586 0.1272 0.25099 0.0
H800 H 0.86108 0.42198 0.27505 0.0
H801 H 0.89307 0.35385 0.23452 0.0
H802 H 0.86084 0.42018 0.36576 0.0
H803 H 0.89138 0.35114 0.32557 0.0
H804 H 0.90411 0.36242 0.49939 0.0
H805 H 0.9063 0.36457 0.40824 0.0
H806 H 0.8426 0.40328 0.4253 0.0
H807 H 0.84159 0.40238 0.51743 0.0
C808 C 0.86817 0.40659 0.28567 0.0
C809 C 0.87729 0.38814 0.2477 0.0
C810 C 0.86763 0.40535 0.33775 0.0
C811 C 0.87584 0.38541 0.35333 0.0
C812 C 0.88508 0.3669 0.31527 0.0
C813 C 0.88583 0.36828 0.26296 0.0
C814 C 0.89069 0.37143 0.48327 0.0
C815 C 0.87271 0.38228 0.5148 0.0
C816 C 0.89179 0.3725 0.43101 0.0
C817 C 0.87463 0.38408 0.40901 0.0
C818 C 0.85643 0.39467 0.44092 0.0
C819 C 0.85566 0.39404 0.49355 0.0
H820 H 0.41255 0.12437 0.27049 0.0
H821 H 0.33979 0.13557 0.27805 0.0
H822 H 0.41274 0.1263 0.18055 0.0
H823 H 0.33897 0.13703 0.18836 0.0
H824 H 0.33846 0.13924 0.01996 0.0
H825 H 0.33857 0.13874 0.11054 0.0
H826 H 0.41192 0.12537 0.10118 0.0
H827 H 0.41091 0.12611 1.01094 0.0
C828 C 0.3965 0.12721 0.25229 0.0
C829 C 0.3762 0.1299 0.28111 0.0
C830 C 0.39637 0.12829 0.19976 0.0
C831 C 0.37577 0.13165 0.17388 0.0
C832 C 0.35549 0.13446 0.20412 0.0
C833 C 0.35578 0.13372 0.25668 0.0
C834 C 0.3545 0.13619 0.03793 0.0
C835 C 0.3746 0.13254 1.00845 0.0
C836 C 0.35479 0.13582 0.09083 0.0
C837 C 0.37534 0.132 0.11639 0.0
C838 C 0.39546 0.12839 0.08564 0.0
C839 C 0.39503 0.1286 0.03276 0.0
H840 H 0.6018 0.61205 1.01281 0.0
H841 H 0.67521 0.62136 0.02237 0.0
H842 H 0.6029 0.61513 0.92238 0.0
H843 H 0.67625 0.62449 0.93288 0.0
H844 H 0.67155 0.64789 0.78205 0.0
H845 H 0.66922 0.64594 0.87254 0.0
H846 H 0.61238 0.5976 0.8371 0.0
H847 H 0.61442 0.60014 0.74608 0.0
C848 C 0.61823 0.61464 0.99594 0.0
C849 C 0.6384 0.6164 0.02594 0.0
C850 C 0.61886 0.6164 0.9436 0.0
C851 C 0.63968 0.62003 0.91939 0.0
C852 C 0.65974 0.62215 0.94967 0.0
C853 C 0.65911 0.62038 1.00177 0.0
C854 C 0.65868 0.63659 0.79322 0.0
C855 C 0.64328 0.62407 0.75621 0.0
C856 C 0.65733 0.63543 0.84561 0.0
C857 C 0.64066 0.6215 0.86305 0.0
C858 C 0.62525 0.60887 0.82592 0.0
C859 C 0.62648 0.61022 0.77337 0.0
H860 H 0.10237 0.91008 0.51914 0.0
H861 H 0.174 0.88983 0.50341 0.0
H862 H 0.10336 0.90683 0.60807 0.0
H863 H 0.17458 0.88727 0.59181 0.0
H864 H 0.16711 0.86636 0.74491 0.0
H865 H 0.16475 0.86754 0.65381 0.0
H866 H 0.11568 0.92407 0.69148 0.0
H867 H 0.11751 0.92213 0.78287 0.0
C868 C 0.11848 0.90512 0.5333 0.0
C869 C 0.1382 0.90075 0.50128 0.0
C870 C 0.11897 0.90333 0.58553 0.0
C871 C 0.13911 0.89704 0.60812 0.0
C872 C 0.15855 0.89195 0.57629 0.0
C873 C 0.15812 0.89364 0.52421 0.0
C874 C 0.15596 0.87922 0.73389 0.0
C875 C 0.14259 0.89423 0.77144 0.0
C876 C 0.1546 0.87995 0.68131 0.0
C877 C 0.14006 0.89597 0.66451 0.0
C878 C 0.12678 0.91115 0.70229 0.0
C879 C 0.12793 0.91018 0.75496 0.0
H880 H 0.85959 0.66464 0.79059 0.0
H881 H 0.90149 0.60225 0.75534 0.0
H882 H 0.85883 0.66549 0.69941 0.0
H883 H 0.89824 0.60132 0.66368 0.0
H884 H 0.90484 0.61426 0.50221 0.0
H885 H 0.90833 0.61503 0.5941 0.0
H886 H 0.8426 0.64974 0.62175 0.0
H887 H 0.84021 0.65035 0.52987 0.0
C888 C 0.86876 0.65111 0.76359 0.0
C889 C 0.88048 0.63327 0.7809 0.0
C890 C 0.86781 0.65125 0.71067 0.0
C891 C 0.87803 0.63321 0.67319 0.0
C892 C 0.89026 0.61572 0.69074 0.0
C893 C 0.89179 0.61599 0.74375 0.0
C894 C 0.89107 0.62185 0.52802 0.0
C895 C 0.87224 0.63219 0.50898 0.0
C896 C 0.89298 0.62225 0.58099 0.0
C897 C 0.87582 0.63254 0.61629 0.0
C898 C 0.85656 0.64222 0.59657 0.0
C899 C 0.85496 0.64233 0.54367 0.0
H900 H 0.13786 0.07779 0.49175 0.0
H901 H 0.13771 0.15315 0.54085 0.0
H902 H 0.13877 0.08074 0.40083 0.0
H903 H 0.13884 0.15634 0.4497 0.0
H904 H 0.11878 0.15336 0.28002 0.0
H905 H 0.11705 0.15046 0.37112 0.0
H906 H 0.16289 0.09109 0.33667 0.0
H907 H 0.16431 0.09409 0.24551 0.0
C908 C 0.13785 0.09501 0.48289 0.0
C909 C 0.13756 0.11522 0.52325 0.0
C910 C 0.13863 0.09675 0.43077 0.0
C911 C 0.13893 0.11879 0.41752 0.0
C912 C 0.13841 0.13906 0.45817 0.0
C913 C 0.1379 0.13729 0.51043 0.0
C914 C 0.12826 0.13957 0.29206 0.0
C915 C 0.1415 0.12382 0.25584 0.0
C916 C 0.12751 0.13804 0.34436 0.0
C917 C 0.13982 0.12053 0.36164 0.0
C918 C 0.15295 0.10464 0.32493 0.0
C919 C 0.15389 0.10637 0.27273 0.0
H920 H 0.67066 0.41694 0.27665 0.0
H921 H 0.61198 0.37107 0.2498 0.0
H922 H 0.66927 0.42093 0.18689 0.0
H923 H 0.61122 0.37374 0.15903 0.0
H924 H 0.60464 0.39463 1.00355 0.0
H925 H 0.60389 0.39307 0.09498 0.0
H926 H 0.67714 0.40408 0.1034 0.0
H927 H 0.67742 0.40784 0.01413 0.0
C928 C 0.65752 0.40757 0.25132 0.0
C929 C 0.64146 0.39368 0.27049 0.0
C930 C 0.65681 0.40962 0.19935 0.0
C931 C 0.64031 0.3974 0.16439 0.0
C932 C 0.62403 0.38377 0.18413 0.0
C933 C 0.62448 0.38213 0.23645 0.0
C934 C 0.62054 0.3971 0.02514 0.0
C935 C 0.64107 0.40142 1.00081 0.0
C936 C 0.6202 0.39584 0.0778 0.0
C937 C 0.64044 0.39858 0.10778 0.0
C938 C 0.661 0.40244 0.08288 0.0
C939 C 0.66126 0.40408 0.0307 0.0
H940 H 0.37199 0.84629 0.98823 0.0
H941 H 0.37306 0.9221 0.02846 0.0
H942 H 0.37291 0.84701 0.8971 0.0
H943 H 0.3773 0.9228 0.93796 0.0
H944 H 0.3648 0.92033 0.76885 0.0
H945 H 0.36201 0.91975 0.85991 0.0
H946 H 0.39392 0.85122 0.82842 0.0
H947 H 0.39498 0.85138 0.73617 0.0
C948 C 0.37238 0.86319 0.97791 0.0
C949 C 0.3725 0.88415 0.01645 0.0
C950 C 0.37354 0.8636 0.92512 0.0
C951 C 0.37557 0.88495 0.9091 0.0
C952 C 0.37543 0.9059 0.94778 0.0
C953 C 0.37347 0.90551 1.00039 0.0
C954 C 0.37142 0.90524 0.78156 0.0
C955 C 0.38014 0.88592 0.74537 0.0
C956 C 0.36993 0.90489 0.83421 0.0
C957 C 0.37766 0.8854 0.85261 0.0
C958 C 0.38714 0.86634 0.81626 0.0
C959 C 0.38806 0.86648 0.76323 0.0
H960 H 0.13061 0.70461 0.05959 0.0
H961 H 0.14313 0.70907 0.2228 0.0
H962 H 0.1283 0.74681 0.07494 0.0
H963 H 0.14131 0.7524 0.23845 0.0
H964 H 0.11621 0.8317 0.23236 0.0
H965 H 0.11666 0.78949 0.23333 0.0
H966 H 0.15847 0.77606 0.09473 0.0
H967 H 0.15736 0.81725 0.09296 0.0
C968 C 0.13272 0.71468 0.09911 0.0
C969 C 0.13733 0.70341 0.13981 0.0
C970 C 0.13154 0.73901 0.10789 0.0
C971 C 0.13526 0.75317 0.15768 0.0
C972 C 0.13851 0.74202 0.19951 0.0
C973 C 0.13951 0.71725 0.19063 0.0
C974 C 0.12562 0.81962 0.20258 0.0
C975 C 0.13628 0.82767 0.16186 0.0
C976 C 0.12594 0.7955 0.20316 0.0
C977 C 0.13709 0.77921 0.16329 0.0
C978 C 0.14906 0.78784 0.1251 0.0
C979 C 0.14847 0.81155 0.12413 0.0
H980 H 0.56255 0.86069 0.32897 0.0
H981 H 0.56919 0.8938 0.49204 0.0
H982 H 0.52145 0.86303 0.33624 0.0
H983 H 0.52719 0.89628 0.49919 0.0
H984 H 0.44773 0.8731 0.48775 0.0
H985 H 0.48994 0.8726 0.49286 0.0
H986 H 0.494 0.89452 0.34704 0.0
H987 H 0.45263 0.89435 0.34145 0.0
C988 C 0.5553 0.86836 0.36673 0.0
C989 C 0.56942 0.87715 0.40993 0.0
C990 C 0.53154 0.86987 0.37075 0.0
C991 C 0.52089 0.88019 0.41812 0.0
C992 C 0.53483 0.88824 0.46209 0.0
C993 C 0.55889 0.88686 0.45797 0.0
C994 C 0.45778 0.87806 0.45733 0.0
C995 C 0.44691 0.88335 0.41378 0.0
C996 C 0.4819 0.8778 0.4602 0.0
C997 C 0.49541 0.883 0.41975 0.0
C998 C 0.48427 0.8897 0.37812 0.0
C999 C 0.46048 0.8897 0.37503 0.0
H1000 H 0.38921 0.33221 0.74074 0.0
H1001 H 0.37321 0.31242 0.57688 0.0
H1002 H 0.38595 0.29059 0.74598 0.0
H1003 H 0.36983 0.27186 0.58227 0.0
H1004 H 0.33687 0.20843 0.61623 0.0
H1005 H 0.34127 0.25044 0.62668 0.0
H1006 H 0.40574 0.24802 0.70474 0.0
H1007 H 0.40137 0.20517 0.69397 0.0
C1008 C 0.38508 0.3191 0.706 0.0
C1009 C 0.38165 0.32573 0.65834 0.0
C1010 C 0.38333 0.29529 0.70892 0.0
C1011 C 0.37754 0.27787 0.66453 0.0
C1012 C 0.37417 0.28472 0.6173 0.0
C1013 C 0.37628 0.30812 0.6142 0.0
C1014 C 0.35195 0.2167 0.63617 0.0
C1015 C 0.36887 0.20323 0.65371 0.0
C1016 C 0.35446 0.2409 0.64212 0.0
C1017 C 0.37396 0.25264 0.66604 0.0
C1018 C 0.39048 0.23951 0.68622 0.0
C1019 C 0.38802 0.21498 0.67988 0.0
H1020 H 0.95435 0.08358 0.84411 0.0
H1021 H 0.94726 0.15301 0.94072 0.0
H1022 H 0.99505 0.08477 0.85866 0.0
H1023 H 0.98884 0.15421 0.95734 0.0
H1024 H 0.06634 0.15733 0.90481 0.0
H1025 H 0.02471 0.15787 0.91691 0.0
H1026 H 0.02589 0.08335 0.91039 0.0
H1027 H 0.06699 0.08293 0.89537 0.0
C1028 C 0.96154 0.09899 0.86978 0.0
C1029 C 0.94752 0.11813 0.89138 0.0
C1030 C 0.98509 0.09964 0.87863 0.0
C1031 C 0.9957 0.11955 0.9096 0.0
C1032 C 0.98149 0.13857 0.93301 0.0
C1033 C 0.95759 0.13783 0.92416 0.0
C1034 C 0.05766 0.14129 0.90768 0.0
C1035 C 0.06989 0.12014 0.89976 0.0
C1036 C 0.03371 0.14152 0.91448 0.0
C1037 C 0.02149 0.12055 0.91342 0.0
C1038 C 0.0343 0.0998 0.90981 0.0
C1039 C 0.05803 0.09955 0.90219 0.0
H1040 H 0.18074 0.30431 0.85387 0.0
H1041 H 0.10801 0.31561 0.87269 0.0
H1042 H 0.17504 0.26228 0.84672 0.0
H1043 H 0.10228 0.2735 0.86637 0.0
H1044 H 0.11012 0.20526 0.93193 0.0
H1045 H 0.11249 0.24606 0.9243 0.0
H1046 H 0.15749 0.22571 0.79203 0.0
H1047 H 0.15493 0.18474 0.79939 0.0
C1048 C 0.16348 0.29771 0.85558 0.0
C1049 C 0.14484 0.31324 0.86362 0.0
C1050 C 0.1602 0.27362 0.85138 0.0
C1051 C 0.13821 0.26448 0.85616 0.0
C1052 C 0.11945 0.27997 0.86281 0.0
C1053 C 0.1227 0.30406 0.86597 0.0
C1054 C 0.12026 0.20943 0.90072 0.0
C1055 C 0.13227 0.19171 0.86615 0.0
C1056 C 0.12153 0.23283 0.89619 0.0
C1057 C 0.13517 0.23922 0.85753 0.0
C1058 C 0.14688 0.22142 0.82235 0.0
C1059 C 0.14527 0.19791 0.8263 0.0
H1060 H 0.06219 0.87517 0.19729 0.0
H1061 H 0.06829 0.9095 0.06931 0.0
H1062 H 0.02133 0.87121 0.18377 0.0
H1063 H 0.02689 0.90494 0.05381 0.0
H1064 H 0.95044 0.92405 0.09752 0.0
H1065 H 0.99192 0.92034 0.08747 0.0
H1066 H 0.98925 0.85567 0.14127 0.0
H1067 H 0.94804 0.86039 0.15356 0.0
C1068 C 0.05476 0.88116 0.16488 0.0
C1069 C 0.06851 0.89233 0.13397 0.0
C1070 C 0.03114 0.87882 0.15681 0.0
C1071 C 0.02028 0.88772 0.11752 0.0
C1072 C 0.03434 0.89803 0.08485 0.0
C1073 C 0.0582 0.9003 0.09299 0.0
C1074 C 0.95874 0.90865 0.10536 0.0
C1075 C 0.94596 0.89223 0.12516 0.0
C1076 C 0.98264 0.90649 0.0998 0.0
C1077 C 0.99444 0.88786 0.11426 0.0
C1078 C 0.98119 0.87062 0.13083 0.0
C1079 C 0.95738 0.87298 0.13687 0.0
H1080 H 0.37801 0.68423 0.28876 0.0
H1081 H 0.38883 0.70739 0.45442 0.0
H1082 H 0.37681 0.7253 0.28115 0.0
H1083 H 0.3873 0.74788 0.44684 0.0
H1084 H 0.40325 0.81867 0.41586 0.0
H1085 H 0.40883 0.77691 0.4125 0.0
H1086 H 0.3514 0.76027 0.30771 0.0
H1087 H 0.34573 0.80224 0.31193 0.0
C1088 C 0.3803 0.69798 0.32343 0.0
C1089 C 0.38367 0.69235 0.37212 0.0
C1090 C 0.37947 0.72152 0.31911 0.0
C1091 C 0.38213 0.73997 0.36333 0.0
C1092 C 0.38567 0.73423 0.41175 0.0
C1093 C 0.38643 0.71086 0.41608 0.0
C1094 C 0.3922 0.80602 0.39113 0.0
C1095 C 0.37421 0.8136 0.3637 0.0
C1096 C 0.39522 0.7821 0.38959 0.0
C1097 C 0.38048 0.76515 0.36006 0.0
C1098 C 0.36316 0.77277 0.33058 0.0
C1099 C 0.35988 0.79677 0.33298 0.0
H1100 H 0.56811 0.14774 0.54104 0.0
H1101 H 0.56414 0.11476 0.67181 0.0
H1102 H 0.52591 0.14833 0.53709 0.0
H1103 H 0.52266 0.11472 0.66725 0.0
H1104 H 0.45424 0.1489 0.69858 0.0
H1105 H 0.49533 0.14632 0.68994 0.0
H1106 H 0.48879 0.12446 0.52301 0.0
H1107 H 0.44682 0.12719 0.53169 0.0
C1108 C 0.55824 0.14007 0.56787 0.0
C1109 C 0.56932 0.13133 0.60687 0.0
C1110 C 0.53413 0.14043 0.56576 0.0
C1111 C 0.52087 0.13197 0.60249 0.0
C1112 C 0.53222 0.12194 0.63919 0.0
C1113 C 0.55604 0.1218 0.64157 0.0
C1114 C 0.46135 0.14373 0.65976 0.0
C1115 C 0.44707 0.13823 0.61576 0.0
C1116 C 0.48507 0.14203 0.65488 0.0
C1117 C 0.49545 0.13484 0.60581 0.0
C1118 C 0.48133 0.13002 0.56139 0.0
C1119 C 0.45732 0.1315 0.56634 0.0
H1120 H 0.86799 0.20628 0.9432 0.0
H1121 H 0.8954 0.18522 0.78764 0.0
H1122 H 0.86453 0.24629 0.93302 0.0
H1123 H 0.89227 0.22615 0.77769 0.0
H1124 H 0.9079 0.31177 0.84037 0.0
H1125 H 0.91017 0.26867 0.82536 0.0
H1126 H 0.84007 0.26653 0.87576 0.0
H1127 H 0.83803 0.30913 0.89131 0.0
C1128 C 0.87351 0.21024 0.90683 0.0
C1129 C 0.88217 0.19256 0.86637 0.0
C1130 C 0.87131 0.23321 0.90083 0.0
C1131 C 0.87798 0.23939 0.85443 0.0
C1132 C 0.88697 0.22186 0.81387 0.0
C1133 C 0.88872 0.1985 0.81951 0.0
C1134 C 0.89277 0.30191 0.84608 0.0
C1135 C 0.87277 0.31369 0.86691 0.0
C1136 C 0.89407 0.27729 0.83771 0.0
C1137 C 0.8754 0.26427 0.85021 0.0
C1138 C 0.85484 0.27607 0.86647 0.0
C1139 C 0.85361 0.30045 0.87505 0.0
H1140 H 0.60737 0.81091 0.34749 0.0
H1141 H 0.67852 0.80847 0.38864 0.0
H1142 H 0.60532 0.76779 0.33186 0.0
H1143 H 0.67679 0.76584 0.37189 0.0
H1144 H 0.65353 0.7037 0.43741 0.0
H1145 H 0.65643 0.74393 0.42869 0.0
H1146 H 0.62035 0.72614 0.2823 0.0
H1147 H 0.61762 0.68497 0.29101 0.0
C1148 C 0.62277 0.80108 0.35094 0.0
C1149 C 0.64314 0.81291 0.36908 0.0
C1150 C 0.6216 0.77644 0.34217 0.0
C1151 C 0.64081 0.76341 0.35148 0.0
C1152 C 0.66159 0.77533 0.36522 0.0
C1153 C 0.66265 0.79975 0.37442 0.0
C1154 C 0.64616 0.70824 0.40324 0.0
C1155 C 0.63521 0.69116 0.36506 0.0
C1156 C 0.64802 0.73133 0.39798 0.0
C1157 C 0.6388 0.73829 0.35457 0.0
C1158 C 0.62766 0.7213 0.31615 0.0
C1159 C 0.62618 0.69779 0.32099 0.0
H1160 H 0.90746 0.70003 0.13204 0.0
H1161 H 0.84038 0.71462 0.19949 0.0
H1162 H 0.9138 0.74199 0.139 0.0
H1163 H 0.84675 0.75672 0.20745 0.0
H1164 H 0.8712 0.8335 0.23954 0.0
H1165 H 0.86954 0.79252 0.24794 0.0
H1166 H 0.89719 0.77009 0.09293 0.0
H1167 H 0.89919 0.81048 0.08481 0.0
C1168 C 0.89435 0.71231 0.14979 0.0
C1169 C 0.8735 0.70416 0.16563 0.0
C1170 C 0.89786 0.73633 0.15335 0.0
C1171 C 0.88075 0.75279 0.17363 0.0
C1172 C 0.86036 0.74461 0.19202 0.0
C1173 C 0.85667 0.72052 0.18739 0.0
C1174 C 0.8773 0.81983 0.2077 0.0
C1175 C 0.88537 0.8254 0.16159 0.0
C1176 C 0.87618 0.79633 0.21233 0.0
C1177 C 0.88331 0.77797 0.17117 0.0
C1178 C 0.89193 0.78371 0.12579 0.0
C1179 C 0.89293 0.807 0.12107 0.0
H1180 H 0.6735 0.21382 0.70275 0.0
H1181 H 0.60785 0.19883 0.62836 0.0
H1182 H 0.66776 0.25577 0.70815 0.0
H1183 H 0.60215 0.24072 0.6328 0.0
H1184 H 0.61862 0.30936 0.57966 0.0
H1185 H 0.62 0.2689 0.58806 0.0
H1186 H 0.64487 0.2915 0.74541 0.0
H1187 H 0.64375 0.3324 0.73685 0.0
C1188 C 0.65762 0.21962 0.68861 0.0
C1189 C 0.64102 0.20315 0.66571 0.0
C1190 C 0.6543 0.24364 0.6917 0.0
C1191 C 0.63454 0.25169 0.67067 0.0
C1192 C 0.61762 0.23516 0.64915 0.0
C1193 C 0.62074 0.21119 0.64711 0.0
C1194 C 0.62412 0.30588 0.61644 0.0
C1195 C 0.631 0.32431 0.65768 0.0
C1196 C 0.62479 0.28256 0.62131 0.0
C1197 C 0.63243 0.27684 0.6675 0.0
C1198 C 0.63898 0.29526 0.70918 0.0
C1199 C 0.63818 0.31873 0.70442 0.0
H1200 H 0.95361 0.3636 0.82568 0.0
H1201 H 0.94721 0.39369 0.99027 0.0
H1202 H 0.99468 0.36339 0.83372 0.0
H1203 H 0.98907 0.39269 0.99878 0.0
H1204 H 0.06738 0.40914 0.97438 0.0
H1205 H 0.0253 0.40946 0.97749 0.0
H1206 H 0.02398 0.34323 0.86533 0.0
H1207 H 0.06542 0.34348 0.86105 0.0
C1208 C 0.96091 0.36993 0.86399 0.0
C1209 C 0.94686 0.37848 0.90746 0.0
C1210 C 0.98469 0.36965 0.86866 0.0
C1211 C 0.99544 0.37764 0.91712 0.0
C1212 C 0.98148 0.38642 0.96079 0.0
C1213 C 0.95745 0.38683 0.95602 0.0
C1214 C 0.058 0.39447 0.95138 0.0
C1215 C 0.06972 0.37633 0.91739 0.0
C1216 C 0.03387 0.39464 0.95299 0.0
C1217 C 0.02105 0.37659 0.92089 0.0
C1218 C 0.03305 0.35781 0.8895 0.0
C1219 C 0.05693 0.3578 0.88745 0.0
H1220 H 0.44902 0.65909 0.38724 0.0
H1221 H 0.45151 0.58851 0.40977 0.0
H1222 H 0.49018 0.66317 0.40223 0.0
H1223 H 0.4928 0.59172 0.42207 0.0
H1224 H 0.56829 0.60041 0.44662 0.0
H1225 H 0.52692 0.60383 0.46135 0.0
H1226 H 0.52346 0.65262 0.35981 0.0
H1227 H 0.56456 0.64967 0.34752 0.0
C1228 C 0.45837 0.64467 0.39698 0.0
C1229 C 0.44703 0.62368 0.39853 0.0
C1230 C 0.48216 0.64675 0.40454 0.0
C1231 C 0.4954 0.62765 0.41259 0.0
C1232 C 0.4836 0.60703 0.41669 0.0
C1233 C 0.45978 0.60509 0.40963 0.0
C1234 C 0.55867 0.6126 0.42945 0.0
C1235 C 0.56968 0.62521 0.39691 0.0
C1236 C 0.53479 0.61425 0.43691 0.0
C1237 C 0.52129 0.62838 0.41151 0.0
C1238 C 0.53281 0.64182 0.38103 0.0
C1239 C 0.55656 0.64016 0.37376 0.0
H1240 H 0.45724 0.39443 0.72316 0.0
H1241 H 0.44574 0.39405 0.56124 0.0
H1242 H 0.49818 0.39294 0.70875 0.0
H1243 H 0.48773 0.39261 0.54668 0.0
H1244 H 0.57113 0.36808 0.57641 0.0
H1245 H 0.529 0.36467 0.56571 0.0
H1246 H 0.52077 0.42903 0.68119 0.0
H1247 H 0.56191 0.43236 0.69188 0.0
C1248 C 0.46345 0.39366 0.68405 0.0
C1249 C 0.44812 0.39465 0.64352 0.0
C1250 C 0.48702 0.39276 0.67584 0.0
C1251 C 0.49628 0.39291 0.62677 0.0
C1252 C 0.48108 0.39241 0.58494 0.0
C1253 C 0.45709 0.39324 0.59325 0.0
C1254 C 0.56026 0.38178 0.5982 0.0
C1255 C 0.56988 0.40038 0.63537 0.0
C1256 C 0.53618 0.37983 0.59214 0.0
C1257 C 0.52155 0.39649 0.62306 0.0
C1258 C 0.53148 0.41582 0.65711 0.0
C1259 C 0.55515 0.41769 0.66322 0.0
H1260 H 0.0673 0.65077 0.04361 0.0
H1261 H 0.06512 0.61638 0.17225 0.0
H1262 H 0.02511 0.64987 0.03959 0.0
H1263 H 0.02364 0.61451 0.16718 0.0
H1264 H 0.95398 0.64526 0.19981 0.0
H1265 H 0.99494 0.64348 0.19131 0.0
H1266 H 0.98872 0.62626 0.02387 0.0
H1267 H 0.94669 0.62845 0.03246 0.0
C1268 C 0.05781 0.64254 0.07007 0.0
C1269 C 0.06935 0.63381 0.10848 0.0
C1270 C 0.03369 0.64196 0.0678 0.0
C1271 C 0.02086 0.63249 0.10366 0.0
C1272 C 0.03278 0.62254 0.13984 0.0
C1273 C 0.0566 0.62344 0.14256 0.0
C1274 C 0.96108 0.64121 0.16086 0.0
C1275 C 0.94681 0.63703 0.11673 0.0
C1276 C 0.9848 0.63994 0.15604 0.0
C1277 C 0.99531 0.63437 0.10689 0.0
C1278 C 0.9812 0.63059 0.06236 0.0
C1279 C 0.95714 0.63175 0.06724 0.0
H1280 H 0.16689 0.57081 0.0651 0.0
H1281 H 0.10191 0.55449 0.12647 0.0
H1282 H 0.16749 0.53199 1.00617 0.0
H1283 H 0.10261 0.51563 0.06843 0.0
H1284 H 0.09897 0.4576 0.91981 0.0
H1285 H 0.09902 0.49644 0.97793 0.0
H1286 H 0.17147 0.49018 1.00391 0.0
H1287 H 0.17131 0.45121 0.94545 0.0
C1288 C 0.15278 0.55888 0.06622 0.0
C1289 C 0.13436 0.56577 0.10062 0.0
C1290 C 0.15317 0.53654 0.03256 0.0
C1291 C 0.1351 0.52048 0.03225 0.0
C1292 C 0.1167 0.5275 0.06682 0.0
C1293 C 0.11635 0.54979 0.10045 0.0
C1294 C 0.11493 0.46454 0.93779 0.0
C1295 C 0.13514 0.45131 0.92776 0.0
C1296 C 0.11495 0.4868 0.97153 0.0
C1297 C 0.13525 0.49664 0.99596 0.0
C1298 C 0.15553 0.48339 0.98557 0.0
C1299 C 0.15544 0.46096 0.95224 0.0
H1300 H 0.70321 0.91933 0.29772 0.0
H1301 H 0.72906 0.86363 0.36422 0.0
H1302 H 0.73928 0.92133 0.25364 0.0
H1303 H 0.76497 0.86401 0.31669 0.0
H1304 H 0.83206 0.87252 0.2355 0.0
H1305 H 0.79929 0.8763 0.29423 0.0
H1306 H 0.75973 0.90507 0.18428 0.0
H1307 H 0.79335 0.9035 0.12936 0.0
C1308 C 0.71684 0.90756 0.30314 0.0
C1309 C 0.71331 0.89139 0.33457 0.0
C1310 C 0.73756 0.90833 0.27685 0.0
C1311 C 0.75532 0.89231 0.2794 0.0
C1312 C 0.75207 0.87679 0.31317 0.0
C1313 C 0.73139 0.87649 0.34075 0.0
C1314 C 0.81645 0.88025 0.22492 0.0
C1315 C 0.81543 0.88837 0.17865 0.0
C1316 C 0.79738 0.88208 0.25824 0.0
C1317 C 0.77636 0.89122 0.24517 0.0
C1318 C 0.77547 0.89873 0.19768 0.0
C1319 C 0.79476 0.8976 0.16541 0.0
H1320 H 0.39973 0.4854 0.63692 0.0
H1321 H 0.34718 0.44976 0.53479 0.0
H1322 H 0.40072 0.51632 0.58793 0.0
H1323 H 0.34908 0.47895 0.48351 0.0
H1324 H 0.34786 0.54043 0.40482 0.0
H1325 H 0.34435 0.51129 0.45717 0.0
H1326 H 0.41211 0.52966 0.51997 0.0
H1327 H 0.4143 0.55997 0.47054 0.0
C1328 C 0.38806 0.48443 0.6046 0.0
C1329 C 0.37332 0.46513 0.59002 0.0
C1330 C 0.38897 0.50191 0.57518 0.0
C1331 C 0.37543 0.50039 0.52976 0.0
C1332 C 0.35986 0.48151 0.51755 0.0
C1333 C 0.35876 0.46443 0.54723 0.0
C1334 C 0.36219 0.53772 0.42887 0.0
C1335 C 0.38148 0.5523 0.43284 0.0
C1336 C 0.36024 0.52093 0.45965 0.0
C1337 C 0.37778 0.5178 0.49474 0.0
C1338 C 0.39769 0.53161 0.49568 0.0
C1339 C 0.3993 0.54876 0.46603 0.0
H1340 H 0.81954 0.0936 0.80766 0.0
H1341 H 0.80602 0.16554 0.88349 0.0
H1342 H 0.78593 0.09382 0.75147 0.0
H1343 H 0.77352 0.16614 0.82738 0.0
H1344 H 0.70188 0.15484 0.77319 0.0
H1345 H 0.73684 0.15264 0.81907 0.0
H1346 H 0.76602 0.10757 0.68205 0.0
H1347 H 0.72947 0.10879 0.63575 0.0
C1348 C 0.8095 0.10947 0.81218 0.0
C1349 C 0.81544 0.12953 0.85042 0.0
C1350 C 0.79031 0.10967 0.77967 0.0
C1351 C 0.77654 0.12989 0.78499 0.0
C1352 C 0.78307 0.14997 0.82255 0.0
C1353 C 0.80198 0.14971 0.85479 0.0
C1354 C 0.71561 0.1444 0.7522 0.0
C1355 C 0.71261 0.13195 0.70045 0.0
C1356 C 0.73603 0.14336 0.77873 0.0
C1357 C 0.75474 0.1302 0.75456 0.0
C1358 C 0.75204 0.11785 0.70227 0.0
C1359 C 0.73119 0.11876 0.67542 0.0
H1360 H 0.85298 0.57566 0.04718 0.0
H1361 H 0.90333 0.55082 0.14169 0.0
H1362 H 0.85351 0.53743 0.98543 0.0
H1363 H 0.90284 0.51224 0.08146 0.0
H1364 H 0.86483 0.44155 0.99163 0.0
H1365 H 0.86586 0.48022 0.05055 0.0
H1366 H 0.88943 0.51036 0.92471 0.0
H1367 H 0.89101 0.47095 0.8672 0.0
C1368 C 0.86416 0.56207 0.0548 0.0
C1369 C 0.87828 0.56637 0.09916 0.0
C1370 C 0.86443 0.54019 0.01943 0.0
C1371 C 0.87826 0.52188 0.02858 0.0
C1372 C 0.89205 0.52605 0.0734 0.0
C1373 C 0.8923 0.54812 0.10788 0.0
C1374 C 0.87101 0.45618 0.97695 0.0
C1375 C 0.87886 0.45289 0.92542 0.0
C1376 C 0.87126 0.47844 1.01051 0.0
C1377 C 0.87795 0.49829 0.99241 0.0
C1378 C 0.8845 0.49532 0.93994 0.0
C1379 C 0.88543 0.47278 0.90711 0.0
H1380 H 0.22169 0.10865 0.89273 0.0
H1381 H 0.18522 0.1467 0.79633 0.0
H1382 H 0.25532 0.10736 0.83838 0.0
H1383 H 0.21768 0.14311 0.73729 0.0
H1384 H 0.28699 0.15335 0.66378 0.0
H1385 H 0.25139 0.15277 0.71155 0.0
H1386 H 0.27723 0.09451 0.77153 0.0
H1387 H 0.31318 0.09699 0.72735 0.0
C1388 C 0.22077 0.11619 0.85877 0.0
C1389 C 0.20075 0.12739 0.8483 0.0
C1390 C 0.24009 0.11523 0.82663 0.0
C1391 C 0.23982 0.12478 0.78168 0.0
C1392 C 0.21933 0.13577 0.77128 0.0
C1393 C 0.20035 0.13754 0.80479 0.0
C1394 C 0.28474 0.14029 0.6868 0.0
C1395 C 0.30278 0.12517 0.69176 0.0
C1396 C 0.26417 0.13982 0.71453 0.0
C1397 C 0.26094 0.12394 0.74751 0.0
C1398 C 0.27878 0.10781 0.7491 0.0
C1399 C 0.29945 0.10878 0.72261 0.0
H1400 H 0.6517 0.52999 0.38074 0.0
H1401 H 0.61805 0.57355 0.51327 0.0
H1402 H 0.65337 0.49823 0.42721 0.0
H1403 H 0.62168 0.5437 0.56108 0.0
H1404 H 0.61785 0.48202 0.63761 0.0
H1405 H 0.61443 0.51279 0.58973 0.0
H1406 H 0.66755 0.47959 0.48369 0.0
H1407 H 0.66915 0.44815 0.52965 0.0
C1408 C 0.64456 0.53278 0.41957 0.0
C1409 C 0.63486 0.55453 0.4429 0.0
C1410 C 0.64592 0.51466 0.44721 0.0
C1411 C 0.63802 0.51788 0.49944 0.0
C1412 C 0.62778 0.53958 0.52143 0.0
C1413 C 0.62593 0.55722 0.49362 0.0
C1414 C 0.62905 0.48169 0.60467 0.0
C1415 C 0.64386 0.46274 0.5878 0.0
C1416 C 0.62717 0.49946 0.57649 0.0
C1417 C 0.6405 0.49917 0.53114 0.0
C1418 C 0.65627 0.48064 0.51662 0.0
C1419 C 0.65763 0.46266 0.54392 0.0
H1420 H 0.31426 0.91871 0.29511 0.0
H1421 H 0.2858 0.8645 0.36283 0.0
H1422 H 0.27844 0.9226 0.25273 0.0
H1423 H 0.25014 0.86626 0.3165 0.0
H1424 H 0.18456 0.87253 0.23034 0.0
H1425 H 0.21723 0.87485 0.28801 0.0
H1426 H 0.2543 0.91342 0.19093 0.0
H1427 H 0.22058 0.91302 0.13806 0.0
C1428 C 0.30006 0.9076 0.30088 0.0
C1429 C 0.30276 0.89146 0.33253 0.0
C1430 C 0.27935 0.90937 0.2754 0.0
C1431 C 0.26072 0.89425 0.27856 0.0
C1432 C 0.26344 0.8785 0.3121 0.0
C1433 C 0.28407 0.87733 0.33909 0.0
C1434 C 0.19966 0.88195 0.2225 0.0
C1435 C 0.19992 0.89297 0.18034 0.0
C1436 C 0.21881 0.88304 0.25529 0.0
C1437 C 0.23931 0.89434 0.24557 0.0
C1438 C 0.23925 0.90509 0.2023 0.0
C1439 C 0.2198 0.90472 0.17091 0.0
H1440 H 0.66224 0.94149 0.47436 0.0
H1441 H 0.60832 0.96507 0.38684 0.0
H1442 H 0.66313 0.98001 0.53428 0.0
H1443 H 0.60943 1.00369 0.44602 0.0
H1444 H 0.63328 0.07664 0.52704 0.0
H1445 H 0.63406 0.03793 0.46917 0.0
H1446 H 0.64027 1.00663 0.6023 0.0
H1447 H 0.64043 0.04594 0.66 0.0
C1448 C 0.6505 0.95488 0.46802 0.0
C1449 C 0.63509 0.95014 0.42596 0.0
C1450 C 0.65098 0.97698 0.50248 0.0
C1451 C 0.63639 0.9951 0.49513 0.0
C1452 C 0.62109 0.99031 0.45275 0.0
C1453 C 0.62035 0.96811 0.41889 0.0
C1454 C 0.63573 0.06164 0.54377 0.0
C1455 C 0.63776 0.06447 0.59781 0.0
C1456 C 0.63558 0.03928 0.51069 0.0
C1457 C 0.63726 0.01898 0.53082 0.0
C1458 C 0.63926 0.02181 0.58521 0.0
C1459 C 0.63928 0.0443 0.61833 0.0
H1460 H 0.23305 0.38045 0.88542 0.0
H1461 H 0.19763 0.40129 0.75953 0.0
H1462 H 0.26975 0.3826 0.84025 0.0
H1463 H 0.23355 0.40325 0.71482 0.0
H1464 H 0.30192 0.42232 0.65838 0.0
H1465 H 0.26832 0.42432 0.7147 0.0
H1466 H 0.29106 0.36215 0.76279 0.0
H1467 H 0.32452 0.36013 0.70553 0.0
C1468 C 0.23312 0.38582 0.84864 0.0
C1469 C 0.21238 0.39067 0.82611 0.0
C1470 C 0.2541 0.38684 0.82242 0.0
C1471 C 0.2548 0.39316 0.77362 0.0
C1472 C 0.23399 0.39865 0.75241 0.0
C1473 C 0.21324 0.39734 0.77803 0.0
C1474 C 0.29978 0.40921 0.68132 0.0
C1475 C 0.31567 0.39094 0.67712 0.0
C1476 C 0.28044 0.41023 0.7135 0.0
C1477 C 0.27668 0.39326 0.7433 0.0
C1478 C 0.29325 0.37555 0.74069 0.0
C1479 C 0.31233 0.37423 0.70748 0.0
H1480 H 0.85396 0.94401 0.01634 0.0
H1481 H 0.89305 0.98515 0.1427 0.0
H1482 H 0.85516 0.97508 0.97082 0.0
H1483 H 0.89559 0.01643 0.09671 0.0
H1484 H 0.89633 0.07452 1.01308 0.0
H1485 H 0.89331 0.04448 0.05934 0.0
H1486 H 0.86462 0.9982 0.92221 0.0
H1487 H 0.86599 0.03015 0.87698 0.0
C1488 C 0.8629 0.95997 0.0346 0.0
C1489 C 0.87357 0.96192 0.08328 0.0
C1490 C 0.86392 0.97805 1.00769 0.0
C1491 C 0.87607 0.99896 0.0277 0.0
C1492 C 0.88598 1.00115 0.07802 0.0
C1493 C 0.88455 0.98304 0.10544 0.0
C1494 C 0.88915 0.05799 0.99237 0.0
C1495 C 0.881 0.0552 0.94099 0.0
C1496 C 0.88755 0.04014 0.01955 0.0
C1497 C 0.87829 0.01803 0.99653 0.0
C1498 C 0.87125 0.01477 0.94356 0.0
C1499 C 0.87237 0.03312 0.91647 0.0
H1500 H 0.23127 0.61858 0.13155 0.0
H1501 H 0.19832 0.63926 0.28178 0.0
H1502 H 0.26821 0.61648 0.17628 0.0
H1503 H 0.23412 0.63682 0.32464 0.0
H1504 H 0.30263 0.6611 0.38919 0.0
H1505 H 0.26937 0.66099 0.33418 0.0
H1506 H 0.28858 0.59317 0.24231 0.0
H1507 H 0.32214 0.59301 0.299 0.0
C1508 C 0.23178 0.62268 0.17367 0.0
C1509 C 0.21161 0.6293 0.20262 0.0
C1510 C 0.25289 0.6213 0.19929 0.0
C1511 C 0.25419 0.62673 0.2542 0.0
C1512 C 0.23396 0.63293 0.28248 0.0
C1513 C 0.21322 0.63425 0.2574 0.0
C1514 C 0.29996 0.64613 0.35722 0.0
C1515 C 0.31523 0.62714 0.34856 0.0
C1516 C 0.28081 0.64608 0.3255 0.0
C1517 C 0.27622 0.6271 0.28361 0.0
C1518 C 0.29171 0.60818 0.27389 0.0
C1519 C 0.31087 0.60806 0.3065 0.0
H1520 H 0.4142 0.96098 0.40718 0.0
H1521 H 0.34604 0.94869 0.45833 0.0
H1522 H 0.41449 0.9997 0.46598 0.0
H1523 H 0.34629 0.98747 0.51745 0.0
H1524 H 0.34604 0.06799 0.57638 0.0
H1525 H 0.34579 0.02944 0.51687 0.0
H1526 H 0.41569 0.01855 0.55872 0.0
H1527 H 0.41587 0.05722 0.61827 0.0
C1528 C 0.39924 0.96658 0.43096 0.0
C1529 C 0.38006 0.95175 0.42783 0.0
C1530 C 0.39946 0.98876 0.46501 0.0
C1531 C 0.38042 0.99687 0.4967 0.0
C1532 C 0.36118 0.98201 0.49333 0.0
C1533 C 0.36105 0.95971 0.45957 0.0
C1534 C 0.36133 0.05732 0.57308 0.0
C1535 C 0.3809 0.06561 0.6026 0.0
C1536 C 0.36116 0.03513 0.53904 0.0
C1537 C 0.38066 0.02066 0.53302 0.0
C1538 C 0.40037 0.02917 0.56203 0.0
C1539 C 0.40045 0.05129 0.59651 0.0
H1540 H 0.78424 0.64959 0.15166 0.0
H1541 H 0.81384 0.60331 0.23999 0.0
H1542 H 0.74731 0.64755 0.19566 0.0
H1543 H 0.77734 0.60104 0.28343 0.0
H1544 H 0.7048 0.58953 0.33378 0.0
H1545 H 0.73763 0.5876 0.27484 0.0
H1546 H 0.73221 0.66208 0.28474 0.0
H1547 H 0.69968 0.66391 0.34398 0.0
C1548 C 0.78267 0.63852 0.17943 0.0
C1549 C 0.80183 0.62647 0.19216 0.0
C1550 C 0.76162 0.63752 0.20509 0.0
C1551 C 0.75924 0.62414 0.24336 0.0
C1552 C 0.77829 0.61129 0.25396 0.0
C1553 C 0.79928 0.61264 0.22912 0.0
C1554 C 0.71054 0.60541 0.32292 0.0
C1555 C 0.69981 0.6269 0.34395 0.0
C1556 C 0.7294 0.60436 0.28928 0.0
C1557 C 0.73773 0.62471 0.27495 0.0
C1558 C 0.72628 0.64601 0.29444 0.0
C1559 C 0.70774 0.64712 0.32884 0.0
H1560 H 0.17526 0.05113 0.93529 0.0
H1561 H 0.10171 0.0508 0.94091 0.0
H1562 H 0.1766 0.02216 0.98872 0.0
H1563 H 0.10257 0.02059 0.99176 0.0
H1564 H 0.10839 0.98165 0.12205 0.0
H1565 H 0.10838 0.01221 0.07164 0.0
H1566 H 0.1728 0.98569 1.00156 0.0
H1567 H 0.17304 0.95641 0.05366 0.0
C1568 C 0.15932 0.044 0.94612 0.0
C1569 C 0.1384 0.05275 0.93258 0.0
C1570 C 0.15998 0.02737 0.97728 0.0
C1571 C 0.13967 0.01877 0.99575 0.0
C1572 C 0.11869 0.02693 0.97995 0.0
C1573 C 0.11809 0.04389 0.9495 0.0
C1574 C 0.12291 0.98307 0.09734 0.0
C1575 C 0.14094 0.9669 0.09268 0.0
C1576 C 0.12272 1.00026 0.06721 0.0
C1577 C 0.14045 1.00159 0.03119 0.0
C1578 C 0.15888 0.98585 0.0287 0.0
C1579 C 0.15908 0.9689 0.05885 0.0
H1580 H 0.70262 0.42528 0.69875 0.0
H1581 H 0.70515 0.34981 0.66851 0.0
H1582 H 0.73458 0.42768 0.75962 0.0
H1583 H 0.73718 0.35208 0.7292 0.0
H1584 H 0.78708 0.36256 0.86578 0.0
H1585 H 0.75055 0.3627 0.81932 0.0
H1586 H 0.77495 0.42037 0.75611 0.0
H1587 H 0.81093 0.42015 0.80234 0.0
C1588 C 0.70998 0.40918 0.70522 0.0
C1589 C 0.70145 0.38735 0.67828 0.0
C1590 C 0.72838 0.41052 0.74011 0.0
C1591 C 0.7387 0.39007 0.74957 0.0
C1592 C 0.72967 0.36824 0.72355 0.0
C1593 C 0.71143 0.36691 0.68821 0.0
C1594 C 0.78425 0.37569 0.84323 0.0
C1595 C 0.80179 0.39152 0.83821 0.0
C1596 C 0.76346 0.37558 0.8159 0.0
C1597 C 0.75967 0.39147 0.78341 0.0
C1598 C 0.77691 0.40802 0.78092 0.0
C1599 C 0.79764 0.40791 0.80752 0.0
loop_
_geom_bond_atom_site_label_1
_geom_bond_atom_site_label_2
_geom_bond_distance
_geom_bond_site_symmetry_2
_ccdc_geom_bond_type
Sm0 C2 2.846 1_554 S
Sm0 O20 2.543 1_554 S
Sm0 O21 2.450 1_554 S
Sm0 O22 2.681 . S
Sm0 O23 2.464 . S
Sm0 O24 2.396 . S
Sm0 O28 2.386 . S
Sm0 O31 2.408 . S
Sm1 C11 2.846 . S
Sm1 O22 2.386 . S
Sm1 O25 2.408 . S
Sm1 O26 2.543 . S
Sm1 O27 2.450 . S
Sm1 O28 2.681 . S
Sm1 O29 2.464 . S
Sm1 O30 2.396 . S
C2 Sm0 2.846 1_556 S
C2 C3 1.506 . S
C2 O20 1.261 . S
C2 O21 1.242 . S
C3 C2 1.506 . S
C3 C4 1.358 . S
C3 C8 1.382 . S
C4 C3 1.358 . S
C4 C5 1.385 . S
C4 H32 0.930 . S
C5 C4 1.385 . S
C5 C6 1.395 . S
C5 H33 0.929 . S
C6 C5 1.395 . S
C6 C7 1.335 . S
C7 C6 1.335 . S
C7 C8 1.398 . S
C7 H34 0.930 . S
C8 C3 1.382 . S
C8 C7 1.398 . S
C8 H35 0.929 . S
C9 O22 1.271 . S
C9 O23 1.251 . S
C10 O24 1.252 . S
C10 O25 1.272 . S
C11 Sm1 2.846 . S
C11 C12 1.506 . S
C11 O26 1.261 . S
C11 O27 1.242 . S
C12 C11 1.506 . S
C12 C13 1.358 . S
C12 C17 1.382 . S
C13 C12 1.358 . S
C13 C14 1.385 . S
C13 H36 0.930 . S
C14 C13 1.385 . S
C14 C15 1.395 . S
C14 H37 0.929 . S
C15 C14 1.395 . S
C15 C16 1.335 . S
C16 C15 1.335 . S
C16 C17 1.398 . S
C16 H38 0.930 . S
C17 C12 1.382 . S
C17 C16 1.398 . S
C17 H39 0.929 . S
C18 O28 1.271 . S
C18 O29 1.251 . S
C19 O30 1.252 . S
C19 O31 1.272 . S
O20 Sm0 2.543 1_556 S
O20 C2 1.261 . S
O21 Sm0 2.450 1_556 S
O21 C2 1.242 . S
O22 Sm0 2.681 . S
O22 Sm1 2.386 . S
O22 C9 1.271 . S
O23 Sm0 2.464 . S
O23 C9 1.251 . S
O24 Sm0 2.396 . S
O24 C10 1.252 . S
O25 Sm1 2.408 . S
O25 C10 1.272 . S
O26 Sm1 2.543 . S
O26 C11 1.261 . S
O27 Sm1 2.450 . S
O27 C11 1.242 . S
O28 Sm0 2.386 . S
O28 Sm1 2.681 . S
O28 C18 1.271 . S
O29 Sm1 2.464 . S
O29 C18 1.251 . S
O30 Sm1 2.396 . S
O30 C19 1.252 . S
O31 Sm0 2.408 . S
O31 C19 1.272 . S
H32 C4 0.930 . S
H33 C5 0.929 . S
H34 C7 0.930 . S
H35 C8 0.929 . S
H36 C13 0.930 . S
H37 C14 0.929 . S
H38 C16 0.930 . S
H39 C17 0.929 . S
Sm40 C42 2.846 . S
Sm40 O60 2.543 . S
Sm40 O61 2.450 . S
Sm40 O62 2.681 . S
Sm40 O63 2.464 . S
Sm40 O64 2.396 . S
Sm40 O68 2.386 . S
Sm40 O71 2.408 . S
Sm41 C51 2.846 . S
Sm41 O62 2.386 . S
Sm41 O65 2.408 . S
Sm41 O66 2.543 . S
Sm41 O67 2.450 . S
Sm41 O68 2.681 . S
Sm41 O69 2.464 . S
Sm41 O70 2.396 . S
C42 Sm40 2.846 . S
C42 C43 1.506 . S
C42 O60 1.261 . S
C42 O61 1.242 . S
C43 C42 1.506 . S
C43 C44 1.358 . S
C43 C48 1.382 . S
C44 C43 1.358 . S
C44 C45 1.385 . S
C44 H72 0.930 . S
C45 C44 1.385 . S
C45 C46 1.395 . S
C45 H73 0.929 . S
C46 C45 1.395 . S
C46 C47 1.335 . S
C47 C46 1.335 . S
C47 C48 1.398 . S
C47 H74 0.930 . S
C48 C43 1.382 . S
C48 C47 1.398 . S
C48 H75 0.929 . S
C49 O62 1.271 . S
C49 O63 1.251 . S
C50 O64 1.252 . S
C50 O65 1.272 . S
C51 Sm41 2.846 . S
C51 C52 1.506 . S
C51 O66 1.261 . S
C51 O67 1.242 . S
C52 C51 1.506 . S
C52 C53 1.358 . S
C52 C57 1.382 . S
C53 C52 1.358 . S
C53 C54 1.385 . S
C53 H76 0.930 . S
C54 C53 1.385 . S
C54 C55 1.395 . S
C54 H77 0.929 . S
C55 C54 1.395 . S
C55 C56 1.335 . S
C56 C55 1.335 . S
C56 C57 1.398 . S
C56 H78 0.930 . S
C57 C52 1.382 . S
C57 C56 1.398 . S
C57 H79 0.929 . S
C58 O68 1.271 . S
C58 O69 1.251 . S
C59 O70 1.252 . S
C59 O71 1.272 . S
O60 Sm40 2.543 . S
O60 C42 1.261 . S
O61 Sm40 2.450 . S
O61 C42 1.242 . S
O62 Sm40 2.681 . S
O62 Sm41 2.386 . S
O62 C49 1.271 . S
O63 Sm40 2.464 . S
O63 C49 1.251 . S
O64 Sm40 2.396 . S
O64 C50 1.252 . S
O65 Sm41 2.408 . S
O65 C50 1.272 . S
O66 Sm41 2.543 . S
O66 C51 1.261 . S
O67 Sm41 2.450 . S
O67 C51 1.242 . S
O68 Sm40 2.386 . S
O68 Sm41 2.681 . S
O68 C58 1.271 . S
O69 Sm41 2.464 . S
O69 C58 1.251 . S
O70 Sm41 2.396 . S
O70 C59 1.252 . S
O71 Sm40 2.408 . S
O71 C59 1.272 . S
H72 C44 0.930 . S
H73 C45 0.929 . S
H74 C47 0.930 . S
H75 C48 0.929 . S
H76 C53 0.930 . S
H77 C54 0.929 . S
H78 C56 0.930 . S
H79 C57 0.929 . S
Sm80 C82 2.846 . S
Sm80 O100 2.543 . S
Sm80 O101 2.450 . S
Sm80 O102 2.681 . S
Sm80 O103 2.464 . S
Sm80 O104 2.396 . S
Sm80 O108 2.386 . S
Sm80 O111 2.408 . S
Sm81 C91 2.846 . S
Sm81 O102 2.386 . S
Sm81 O105 2.408 . S
Sm81 O106 2.543 . S
Sm81 O107 2.450 . S
Sm81 O108 2.681 . S
Sm81 O109 2.464 . S
Sm81 O110 2.396 . S
C82 Sm80 2.846 . S
C82 C83 1.506 . S
C82 O100 1.261 . S
C82 O101 1.242 . S
C83 C82 1.506 . S
C83 C84 1.358 . S
C83 C88 1.382 . S
C84 C83 1.358 . S
C84 C85 1.385 . S
C84 H112 0.930 . S
C85 C84 1.385 . S
C85 C86 1.395 . S
C85 H113 0.929 . S
C86 C85 1.395 . S
C86 C87 1.335 . S
C87 C86 1.335 . S
C87 C88 1.398 . S
C87 H114 0.930 . S
C88 C83 1.382 . S
C88 C87 1.398 . S
C88 H115 0.929 . S
C89 O102 1.271 . S
C89 O103 1.251 . S
C90 O104 1.252 . S
C90 O105 1.272 . S
C91 Sm81 2.846 . S
C91 C92 1.506 . S
C91 O106 1.261 . S
C91 O107 1.242 . S
C92 C91 1.506 . S
C92 C93 1.358 . S
C92 C97 1.382 . S
C93 C92 1.358 . S
C93 C94 1.385 . S
C93 H116 0.930 . S
C94 C93 1.385 . S
C94 C95 1.395 . S
C94 H117 0.929 . S
C95 C94 1.395 . S
C95 C96 1.335 . S
C96 C95 1.335 . S
C96 C97 1.398 . S
C96 H118 0.930 . S
C97 C92 1.382 . S
C97 C96 1.398 . S
C97 H119 0.929 . S
C98 O108 1.271 . S
C98 O109 1.251 . S
C99 O110 1.252 . S
C99 O111 1.272 . S
O100 Sm80 2.543 . S
O100 C82 1.261 . S
O101 Sm80 2.450 . S
O101 C82 1.242 . S
O102 Sm80 2.681 . S
O102 Sm81 2.386 . S
O102 C89 1.271 . S
O103 Sm80 2.464 . S
O103 C89 1.251 . S
O104 Sm80 2.396 . S
O104 C90 1.252 . S
O105 Sm81 2.408 . S
O105 C90 1.272 . S
O106 Sm81 2.543 . S
O106 C91 1.261 . S
O107 Sm81 2.450 . S
O107 C91 1.242 . S
O108 Sm80 2.386 . S
O108 Sm81 2.681 . S
O108 C98 1.271 . S
O109 Sm81 2.464 . S
O109 C98 1.251 . S
O110 Sm81 2.396 . S
O110 C99 1.252 . S
O111 Sm80 2.408 . S
O111 C99 1.272 . S
H112 C84 0.930 . S
H113 C85 0.929 . S
H114 C87 0.930 . S
H115 C88 0.929 . S
H116 C93 0.930 . S
H117 C94 0.929 . S
H118 C96 0.930 . S
H119 C97 0.929 . S
Sm120 C122 2.846 . S
Sm120 O140 2.543 . S
Sm120 O141 2.450 . S
Sm120 O142 2.681 . S
Sm120 O143 2.464 . S
Sm120 O144 2.396 . S
Sm120 O148 2.386 . S
Sm120 O151 2.408 . S
Sm121 C131 2.846 1_556 S
Sm121 O142 2.386 . S
Sm121 O145 2.408 . S
Sm121 O146 2.543 1_556 S
Sm121 O147 2.450 1_556 S
Sm121 O148 2.681 . S
Sm121 O149 2.464 . S
Sm121 O150 2.396 . S
C122 Sm120 2.846 . S
C122 C123 1.506 . S
C122 O140 1.261 . S
C122 O141 1.242 . S
C123 C122 1.506 . S
C123 C124 1.358 . S
C123 C128 1.382 . S
C124 C123 1.358 . S
C124 C125 1.385 . S
C124 H152 0.930 . S
C125 C124 1.385 . S
C125 C126 1.395 . S
C125 H153 0.929 . S
C126 C125 1.395 . S
C126 C127 1.335 . S
C127 C126 1.335 . S
C127 C128 1.398 . S
C127 H154 0.930 . S
C128 C123 1.382 . S
C128 C127 1.398 . S
C128 H155 0.929 . S
C129 O142 1.271 . S
C129 O143 1.251 . S
C130 O144 1.252 . S
C130 O145 1.272 . S
C131 Sm121 2.846 1_554 S
C131 C132 1.506 . S
C131 O146 1.261 . S
C131 O147 1.242 . S
C132 C131 1.506 . S
C132 C133 1.358 . S
C132 C137 1.382 . S
C133 C132 1.358 . S
C133 C134 1.385 . S
C133 H156 0.930 . S
C134 C133 1.385 . S
C134 C135 1.395 . S
C134 H157 0.929 . S
C135 C134 1.395 . S
C135 C136 1.335 . S
C136 C135 1.335 . S
C136 C137 1.398 . S
C136 H158 0.930 . S
C137 C132 1.382 . S
C137 C136 1.398 . S
C137 H159 0.929 . S
C138 O148 1.271 . S
C138 O149 1.251 . S
C139 O150 1.252 . S
C139 O151 1.272 . S
O140 Sm120 2.543 . S
O140 C122 1.261 . S
O141 Sm120 2.450 . S
O141 C122 1.242 . S
O142 Sm120 2.681 . S
O142 Sm121 2.386 . S
O142 C129 1.271 . S
O143 Sm120 2.464 . S
O143 C129 1.251 . S
O144 Sm120 2.396 . S
O144 C130 1.252 . S
O145 Sm121 2.408 . S
O145 C130 1.272 . S
O146 Sm121 2.543 1_554 S
O146 C131 1.261 . S
O147 Sm121 2.450 1_554 S
O147 C131 1.242 . S
O148 Sm120 2.386 . S
O148 Sm121 2.681 . S
O148 C138 1.271 . S
O149 Sm121 2.464 . S
O149 C138 1.251 . S
O150 Sm121 2.396 . S
O150 C139 1.252 . S
O151 Sm120 2.408 . S
O151 C139 1.272 . S
H152 C124 0.930 . S
H153 C125 0.929 . S
H154 C127 0.930 . S
H155 C128 0.929 . S
H156 C133 0.930 . S
H157 C134 0.929 . S
H158 C136 0.930 . S
H159 C137 0.929 . S
Sm160 C162 2.846 1_556 S
Sm160 O180 2.543 1_556 S
Sm160 O181 2.450 1_556 S
Sm160 O182 2.681 . S
Sm160 O183 2.464 . S
Sm160 O184 2.396 . S
Sm160 O188 2.386 . S
Sm160 O191 2.408 . S
Sm161 C171 2.846 . S
Sm161 O182 2.386 . S
Sm161 O185 2.408 . S
Sm161 O186 2.543 . S
Sm161 O187 2.450 . S
Sm161 O188 2.681 . S
Sm161 O189 2.464 . S
Sm161 O190 2.396 . S
C162 Sm160 2.846 1_554 S
C162 C163 1.506 . S
C162 O180 1.261 . S
C162 O181 1.242 . S
C163 C162 1.506 . S
C163 C164 1.358 . S
C163 C168 1.382 . S
C164 C163 1.358 . S
C164 C165 1.385 . S
C164 H192 0.930 . S
C165 C164 1.385 . S
C165 C166 1.395 . S
C165 H193 0.929 . S
C166 C165 1.395 . S
C166 C167 1.335 . S
C167 C166 1.335 . S
C167 C168 1.398 . S
C167 H194 0.930 . S
C168 C163 1.382 . S
C168 C167 1.398 . S
C168 H195 0.929 . S
C169 O182 1.271 . S
C169 O183 1.251 . S
C170 O184 1.252 . S
C170 O185 1.272 . S
C171 Sm161 2.846 . S
C171 C172 1.506 . S
C171 O186 1.261 . S
C171 O187 1.242 . S
C172 C171 1.506 . S
C172 C173 1.358 . S
C172 C177 1.382 . S
C173 C172 1.358 . S
C173 C174 1.385 . S
C173 H196 0.930 . S
C174 C173 1.385 . S
C174 C175 1.395 . S
C174 H197 0.929 . S
C175 C174 1.395 . S
C175 C176 1.335 . S
C176 C175 1.335 . S
C176 C177 1.398 . S
C176 H198 0.930 . S
C177 C172 1.382 . S
C177 C176 1.398 . S
C177 H199 0.929 . S
C178 O188 1.271 . S
C178 O189 1.251 . S
C179 O190 1.252 . S
C179 O191 1.272 . S
O180 Sm160 2.543 1_554 S
O180 C162 1.261 . S
O181 Sm160 2.450 1_554 S
O181 C162 1.242 . S
O182 Sm160 2.681 . S
O182 Sm161 2.386 . S
O182 C169 1.271 . S
O183 Sm160 2.464 . S
O183 C169 1.251 . S
O184 Sm160 2.396 . S
O184 C170 1.252 . S
O185 Sm161 2.408 . S
O185 C170 1.272 . S
O186 Sm161 2.543 . S
O186 C171 1.261 . S
O187 Sm161 2.450 . S
O187 C171 1.242 . S
O188 Sm160 2.386 . S
O188 Sm161 2.681 . S
O188 C178 1.271 . S
O189 Sm161 2.464 . S
O189 C178 1.251 . S
O190 Sm161 2.396 . S
O190 C179 1.252 . S
O191 Sm160 2.408 . S
O191 C179 1.272 . S
H192 C164 0.930 . S
H193 C165 0.929 . S
H194 C167 0.930 . S
H195 C168 0.929 . S
H196 C173 0.930 . S
H197 C174 0.929 . S
H198 C176 0.930 . S
H199 C177 0.929 . S
Sm200 C202 2.846 . S
Sm200 O220 2.543 . S
Sm200 O221 2.450 . S
Sm200 O222 2.681 . S
Sm200 O223 2.464 . S
Sm200 O224 2.396 . S
Sm200 O228 2.386 . S
Sm200 O231 2.408 . S
Sm201 C211 2.846 1_554 S
Sm201 O222 2.386 . S
Sm201 O225 2.408 . S
Sm201 O226 2.543 1_554 S
Sm201 O227 2.450 1_554 S
Sm201 O228 2.681 . S
Sm201 O229 2.464 . S
Sm201 O230 2.396 . S
C202 Sm200 2.846 . S
C202 C203 1.506 . S
C202 O220 1.261 . S
C202 O221 1.242 . S
C203 C202 1.506 . S
C203 C204 1.358 . S
C203 C208 1.382 . S
C204 C203 1.358 . S
C204 C205 1.385 . S
C204 H232 0.930 . S
C205 C204 1.385 . S
C205 C206 1.395 . S
C205 H233 0.929 . S
C206 C205 1.395 . S
C206 C207 1.335 . S
C207 C206 1.335 . S
C207 C208 1.398 . S
C207 H234 0.930 . S
C208 C203 1.382 . S
C208 C207 1.398 . S
C208 H235 0.929 . S
C209 O222 1.271 . S
C209 O223 1.251 . S
C210 O224 1.252 . S
C210 O225 1.272 . S
C211 Sm201 2.846 1_556 S
C211 C212 1.506 . S
C211 O226 1.261 . S
C211 O227 1.242 . S
C212 C211 1.506 . S
C212 C213 1.358 . S
C212 C217 1.382 . S
C213 C212 1.358 . S
C213 C214 1.385 . S
C213 H236 0.930 . S
C214 C213 1.385 . S
C214 C215 1.395 . S
C214 H237 0.929 . S
C215 C214 1.395 . S
C215 C216 1.335 . S
C216 C215 1.335 . S
C216 C217 1.398 . S
C216 H238 0.930 . S
C217 C212 1.382 . S
C217 C216 1.398 . S
C217 H239 0.929 . S
C218 O228 1.271 . S
C218 O229 1.251 . S
C219 O230 1.252 . S
C219 O231 1.272 . S
O220 Sm200 2.543 . S
O220 C202 1.261 . S
O221 Sm200 2.450 . S
O221 C202 1.242 . S
O222 Sm200 2.681 . S
O222 Sm201 2.386 . S
O222 C209 1.271 . S
O223 Sm200 2.464 . S
O223 C209 1.251 . S
O224 Sm200 2.396 . S
O224 C210 1.252 . S
O225 Sm201 2.408 . S
O225 C210 1.272 . S
O226 Sm201 2.543 1_556 S
O226 C211 1.261 . S
O227 Sm201 2.450 1_556 S
O227 C211 1.242 . S
O228 Sm200 2.386 . S
O228 Sm201 2.681 . S
O228 C218 1.271 . S
O229 Sm201 2.464 . S
O229 C218 1.251 . S
O230 Sm201 2.396 . S
O230 C219 1.252 . S
O231 Sm200 2.408 . S
O231 C219 1.272 . S
H232 C204 0.930 . S
H233 C205 0.929 . S
H234 C207 0.930 . S
H235 C208 0.929 . S
H236 C213 0.930 . S
H237 C214 0.929 . S
H238 C216 0.930 . S
H239 C217 0.929 . S
Sm240 C242 2.846 . S
Sm240 O260 2.543 . S
Sm240 O261 2.450 . S
Sm240 O262 2.681 . S
Sm240 O263 2.464 . S
Sm240 O264 2.396 . S
Sm240 O268 2.386 . S
Sm240 O271 2.408 . S
Sm241 C251 2.846 . S
Sm241 O262 2.386 . S
Sm241 O265 2.408 . S
Sm241 O266 2.543 . S
Sm241 O267 2.450 . S
Sm241 O268 2.681 . S
Sm241 O269 2.464 . S
Sm241 O270 2.396 . S
C242 Sm240 2.846 . S
C242 C243 1.506 . S
C242 O260 1.261 . S
C242 O261 1.242 . S
C243 C242 1.506 . S
C243 C244 1.358 . S
C243 C248 1.382 . S
C244 C243 1.358 . S
C244 C245 1.385 . S
C244 H272 0.930 . S
C245 C244 1.385 . S
C245 C246 1.395 . S
C245 H273 0.929 . S
C246 C245 1.395 . S
C246 C247 1.335 . S
C247 C246 1.335 . S
C247 C248 1.398 . S
C247 H274 0.930 . S
C248 C243 1.382 . S
C248 C247 1.398 . S
C248 H275 0.929 . S
C249 O262 1.271 . S
C249 O263 1.251 . S
C250 O264 1.252 . S
C250 O265 1.272 . S
C251 Sm241 2.846 . S
C251 C252 1.506 . S
C251 O266 1.261 . S
C251 O267 1.242 . S
C252 C251 1.506 . S
C252 C253 1.358 . S
C252 C257 1.382 . S
C253 C252 1.358 . S
C253 C254 1.385 . S
C253 H276 0.930 . S
C254 C253 1.385 . S
C254 C255 1.395 . S
C254 H277 0.929 . S
C255 C254 1.395 . S
C255 C256 1.335 . S
C256 C255 1.335 . S
C256 C257 1.398 . S
C256 H278 0.930 . S
C257 C252 1.382 . S
C257 C256 1.398 . S
C257 H279 0.929 . S
C258 O268 1.271 . S
C258 O269 1.251 . S
C259 O270 1.252 . S
C259 O271 1.272 . S
O260 Sm240 2.543 . S
O260 C242 1.261 . S
O261 Sm240 2.450 . S
O261 C242 1.242 . S
O262 Sm240 2.681 . S
O262 Sm241 2.386 . S
O262 C249 1.271 . S
O263 Sm240 2.464 . S
O263 C249 1.251 . S
O264 Sm240 2.396 . S
O264 C250 1.252 . S
O265 Sm241 2.408 . S
O265 C250 1.272 . S
O266 Sm241 2.543 . S
O266 C251 1.261 . S
O267 Sm241 2.450 . S
O267 C251 1.242 . S
O268 Sm240 2.386 . S
O268 Sm241 2.681 . S
O268 C258 1.271 . S
O269 Sm241 2.464 . S
O269 C258 1.251 . S
O270 Sm241 2.396 . S
O270 C259 1.252 . S
O271 Sm240 2.408 . S
O271 C259 1.272 . S
H272 C244 0.930 . S
H273 C245 0.929 . S
H274 C247 0.930 . S
H275 C248 0.929 . S
H276 C253 0.930 . S
H277 C254 0.929 . S
H278 C256 0.930 . S
H279 C257 0.929 . S
Sm280 C282 2.846 . S
Sm280 O300 2.543 . S
Sm280 O301 2.450 . S
Sm280 O302 2.681 . S
Sm280 O303 2.464 . S
Sm280 O304 2.396 . S
Sm280 O308 2.386 . S
Sm280 O311 2.408 . S
Sm281 C291 2.846 . S
Sm281 O302 2.386 . S
Sm281 O305 2.408 . S
Sm281 O306 2.543 . S
Sm281 O307 2.450 . S
Sm281 O308 2.681 . S
Sm281 O309 2.464 . S
Sm281 O310 2.396 . S
C282 Sm280 2.846 . S
C282 C283 1.506 . S
C282 O300 1.261 . S
C282 O301 1.242 . S
C283 C282 1.506 . S
C283 C284 1.358 . S
C283 C288 1.382 . S
C284 C283 1.358 . S
C284 C285 1.385 . S
C284 H312 0.930 . S
C285 C284 1.385 . S
C285 C286 1.395 . S
C285 H313 0.929 . S
C286 C285 1.395 . S
C286 C287 1.335 . S
C287 C286 1.335 . S
C287 C288 1.398 . S
C287 H314 0.930 . S
C288 C283 1.382 . S
C288 C287 1.398 . S
C288 H315 0.929 . S
C289 O302 1.271 . S
C289 O303 1.251 . S
C290 O304 1.252 . S
C290 O305 1.272 . S
C291 Sm281 2.846 . S
C291 C292 1.506 . S
C291 O306 1.261 . S
C291 O307 1.242 . S
C292 C291 1.506 . S
C292 C293 1.358 . S
C292 C297 1.382 . S
C293 C292 1.358 . S
C293 C294 1.385 . S
C293 H316 0.930 . S
C294 C293 1.385 . S
C294 C295 1.395 . S
C294 H317 0.929 . S
C295 C294 1.395 . S
C295 C296 1.335 . S
C296 C295 1.335 . S
C296 C297 1.398 . S
C296 H318 0.930 . S
C297 C292 1.382 . S
C297 C296 1.398 . S
C297 H319 0.929 . S
C298 O308 1.271 . S
C298 O309 1.251 . S
C299 O310 1.252 . S
C299 O311 1.272 . S
O300 Sm280 2.543 . S
O300 C282 1.261 . S
O301 Sm280 2.450 . S
O301 C282 1.242 . S
O302 Sm280 2.681 . S
O302 Sm281 2.386 . S
O302 C289 1.271 . S
O303 Sm280 2.464 . S
O303 C289 1.251 . S
O304 Sm280 2.396 . S
O304 C290 1.252 . S
O305 Sm281 2.408 . S
O305 C290 1.272 . S
O306 Sm281 2.543 . S
O306 C291 1.261 . S
O307 Sm281 2.450 . S
O307 C291 1.242 . S
O308 Sm280 2.386 . S
O308 Sm281 2.681 . S
O308 C298 1.271 . S
O309 Sm281 2.464 . S
O309 C298 1.251 . S
O310 Sm281 2.396 . S
O310 C299 1.252 . S
O311 Sm280 2.408 . S
O311 C299 1.272 . S
H312 C284 0.930 . S
H313 C285 0.929 . S
H314 C287 0.930 . S
H315 C288 0.929 . S
H316 C293 0.930 . S
H317 C294 0.929 . S
H318 C296 0.930 . S
H319 C297 0.929 . S
Sm320 C322 2.846 . S
Sm320 O340 2.543 . S
Sm320 O341 2.450 . S
Sm320 O342 2.681 . S
Sm320 O343 2.464 . S
Sm320 O344 2.396 . S
Sm320 O348 2.386 . S
Sm320 O351 2.408 . S
Sm321 C331 2.846 1_556 S
Sm321 O342 2.386 . S
Sm321 O345 2.408 . S
Sm321 O346 2.543 1_556 S
Sm321 O347 2.450 1_556 S
Sm321 O348 2.681 . S
Sm321 O349 2.464 . S
Sm321 O350 2.396 . S
C322 Sm320 2.846 . S
C322 C323 1.506 . S
C322 O340 1.261 . S
C322 O341 1.242 . S
C323 C322 1.506 . S
C323 C324 1.358 . S
C323 C328 1.382 . S
C324 C323 1.358 . S
C324 C325 1.385 . S
C324 H352 0.930 . S
C325 C324 1.385 . S
C325 C326 1.395 . S
C325 H353 0.929 . S
C326 C325 1.395 . S
C326 C327 1.335 . S
C327 C326 1.335 . S
C327 C328 1.398 . S
C327 H354 0.930 . S
C328 C323 1.382 . S
C328 C327 1.398 . S
C328 H355 0.929 . S
C329 O342 1.271 . S
C329 O343 1.251 . S
C330 O344 1.252 . S
C330 O345 1.272 . S
C331 Sm321 2.846 1_554 S
C331 C332 1.506 . S
C331 O346 1.261 . S
C331 O347 1.242 . S
C332 C331 1.506 . S
C332 C333 1.358 . S
C332 C337 1.382 . S
C333 C332 1.358 . S
C333 C334 1.385 . S
C333 H356 0.930 . S
C334 C333 1.385 . S
C334 C335 1.395 . S
C334 H357 0.929 . S
C335 C334 1.395 . S
C335 C336 1.335 . S
C336 C335 1.335 . S
C336 C337 1.398 . S
C336 H358 0.930 . S
C337 C332 1.382 . S
C337 C336 1.398 . S
C337 H359 0.929 . S
C338 O348 1.271 . S
C338 O349 1.251 . S
C339 O350 1.252 . S
C339 O351 1.272 . S
O340 Sm320 2.543 . S
O340 C322 1.261 . S
O341 Sm320 2.450 . S
O341 C322 1.242 . S
O342 Sm320 2.681 . S
O342 Sm321 2.386 . S
O342 C329 1.271 . S
O343 Sm320 2.464 . S
O343 C329 1.251 . S
O344 Sm320 2.396 . S
O344 C330 1.252 . S
O345 Sm321 2.408 . S
O345 C330 1.272 . S
O346 Sm321 2.543 1_554 S
O346 C331 1.261 . S
O347 Sm321 2.450 1_554 S
O347 C331 1.242 . S
O348 Sm320 2.386 . S
O348 Sm321 2.681 . S
O348 C338 1.271 . S
O349 Sm321 2.464 . S
O349 C338 1.251 . S
O350 Sm321 2.396 . S
O350 C339 1.252 . S
O351 Sm320 2.408 . S
O351 C339 1.272 . S
H352 C324 0.930 . S
H353 C325 0.929 . S
H354 C327 0.930 . S
H355 C328 0.929 . S
H356 C333 0.930 . S
H357 C334 0.929 . S
H358 C336 0.930 . S
H359 C337 0.929 . S
Sm360 C362 2.846 . S
Sm360 O380 2.543 . S
Sm360 O381 2.450 . S
Sm360 O382 2.681 . S
Sm360 O383 2.464 . S
Sm360 O384 2.396 . S
Sm360 O388 2.386 . S
Sm360 O391 2.408 . S
Sm361 C371 2.846 . S
Sm361 O382 2.386 . S
Sm361 O385 2.408 . S
Sm361 O386 2.543 . S
Sm361 O387 2.450 . S
Sm361 O388 2.681 . S
Sm361 O389 2.464 . S
Sm361 O390 2.396 . S
C362 Sm360 2.846 . S
C362 C363 1.506 . S
C362 O380 1.261 . S
C362 O381 1.242 . S
C363 C362 1.506 . S
C363 C364 1.358 . S
C363 C368 1.382 . S
C364 C363 1.358 . S
C364 C365 1.385 . S
C364 H392 0.930 . S
C365 C364 1.385 . S
C365 C366 1.395 . S
C365 H393 0.929 . S
C366 C365 1.395 . S
C366 C367 1.335 . S
C367 C366 1.335 . S
C367 C368 1.398 . S
C367 H394 0.930 . S
C368 C363 1.382 . S
C368 C367 1.398 . S
C368 H395 0.929 . S
C369 O382 1.271 . S
C369 O383 1.251 . S
C370 O384 1.252 . S
C370 O385 1.272 . S
C371 Sm361 2.846 . S
C371 C372 1.506 . S
C371 O386 1.261 . S
C371 O387 1.242 . S
C372 C371 1.506 . S
C372 C373 1.358 . S
C372 C377 1.382 . S
C373 C372 1.358 . S
C373 C374 1.385 . S
C373 H396 0.930 . S
C374 C373 1.385 . S
C374 C375 1.395 . S
C374 H397 0.929 . S
C375 C374 1.395 . S
C375 C376 1.335 . S
C376 C375 1.335 . S
C376 C377 1.398 . S
C376 H398 0.930 . S
C377 C372 1.382 . S
C377 C376 1.398 . S
C377 H399 0.929 . S
C378 O388 1.271 . S
C378 O389 1.251 . S
C379 O390 1.252 . S
C379 O391 1.272 . S
O380 Sm360 2.543 . S
O380 C362 1.261 . S
O381 Sm360 2.450 . S
O381 C362 1.242 . S
O382 Sm360 2.681 . S
O382 Sm361 2.386 . S
O382 C369 1.271 . S
O383 Sm360 2.464 . S
O383 C369 1.251 . S
O384 Sm360 2.396 . S
O384 C370 1.252 . S
O385 Sm361 2.408 . S
O385 C370 1.272 . S
O386 Sm361 2.543 . S
O386 C371 1.261 . S
O387 Sm361 2.450 . S
O387 C371 1.242 . S
O388 Sm360 2.386 . S
O388 Sm361 2.681 . S
O388 C378 1.271 . S
O389 Sm361 2.464 . S
O389 C378 1.251 . S
O390 Sm361 2.396 . S
O390 C379 1.252 . S
O391 Sm360 2.408 . S
O391 C379 1.272 . S
H392 C364 0.930 . S
H393 C365 0.929 . S
H394 C367 0.930 . S
H395 C368 0.929 . S
H396 C373 0.930 . S
H397 C374 0.929 . S
H398 C376 0.930 . S
H399 C377 0.929 . S
Sm400 C402 2.846 . S
Sm400 O420 2.543 . S
Sm400 O421 2.450 . S
Sm400 O422 2.681 . S
Sm400 O423 2.464 . S
Sm400 O424 2.396 . S
Sm400 O428 2.386 . S
Sm400 O431 2.408 . S
Sm401 C411 2.846 . S
Sm401 O422 2.386 . S
Sm401 O425 2.408 . S
Sm401 O426 2.543 . S
Sm401 O427 2.450 . S
Sm401 O428 2.681 . S
Sm401 O429 2.464 . S
Sm401 O430 2.396 . S
C402 Sm400 2.846 . S
C402 C403 1.506 . S
C402 O420 1.261 . S
C402 O421 1.242 . S
C403 C402 1.506 . S
C403 C404 1.358 . S
C403 C408 1.382 . S
C404 C403 1.358 . S
C404 C405 1.385 . S
C404 H432 0.930 . S
C405 C404 1.385 . S
C405 C406 1.395 . S
C405 H433 0.929 . S
C406 C405 1.395 . S
C406 C407 1.335 . S
C407 C406 1.335 . S
C407 C408 1.398 . S
C407 H434 0.930 . S
C408 C403 1.382 . S
C408 C407 1.398 . S
C408 H435 0.929 . S
C409 O422 1.271 . S
C409 O423 1.251 . S
C410 O424 1.252 . S
C410 O425 1.272 . S
C411 Sm401 2.846 . S
C411 C412 1.506 . S
C411 O426 1.261 . S
C411 O427 1.242 . S
C412 C411 1.506 . S
C412 C413 1.358 . S
C412 C417 1.382 . S
C413 C412 1.358 . S
C413 C414 1.385 . S
C413 H436 0.930 . S
C414 C413 1.385 . S
C414 C415 1.395 . S
C414 H437 0.929 . S
C415 C414 1.395 . S
C415 C416 1.335 . S
C416 C415 1.335 . S
C416 C417 1.398 . S
C416 H438 0.930 . S
C417 C412 1.382 . S
C417 C416 1.398 . S
C417 H439 0.929 . S
C418 O428 1.271 . S
C418 O429 1.251 . S
C419 O430 1.252 . S
C419 O431 1.272 . S
O420 Sm400 2.543 . S
O420 C402 1.261 . S
O421 Sm400 2.450 . S
O421 C402 1.242 . S
O422 Sm400 2.681 . S
O422 Sm401 2.386 . S
O422 C409 1.271 . S
O423 Sm400 2.464 . S
O423 C409 1.251 . S
O424 Sm400 2.396 . S
O424 C410 1.252 . S
O425 Sm401 2.408 . S
O425 C410 1.272 . S
O426 Sm401 2.543 . S
O426 C411 1.261 . S
O427 Sm401 2.450 . S
O427 C411 1.242 . S
O428 Sm400 2.386 . S
O428 Sm401 2.681 . S
O428 C418 1.271 . S
O429 Sm401 2.464 . S
O429 C418 1.251 . S
O430 Sm401 2.396 . S
O430 C419 1.252 . S
O431 Sm400 2.408 . S
O431 C419 1.272 . S
H432 C404 0.930 . S
H433 C405 0.929 . S
H434 C407 0.930 . S
H435 C408 0.929 . S
H436 C413 0.930 . S
H437 C414 0.929 . S
H438 C416 0.930 . S
H439 C417 0.929 . S
Sm440 C442 2.846 1_554 S
Sm440 O460 2.543 1_554 S
Sm440 O461 2.450 1_554 S
Sm440 O462 2.681 . S
Sm440 O463 2.464 . S
Sm440 O464 2.396 . S
Sm440 O468 2.386 . S
Sm440 O471 2.408 . S
Sm441 C451 2.846 . S
Sm441 O462 2.386 . S
Sm441 O465 2.408 . S
Sm441 O466 2.543 . S
Sm441 O467 2.450 . S
Sm441 O468 2.681 . S
Sm441 O469 2.464 . S
Sm441 O470 2.396 . S
C442 Sm440 2.846 1_556 S
C442 C443 1.506 . S
C442 O460 1.261 . S
C442 O461 1.242 . S
C443 C442 1.506 . S
C443 C444 1.358 . S
C443 C448 1.382 . S
C444 C443 1.358 . S
C444 C445 1.385 . S
C444 H472 0.930 . S
C445 C444 1.385 . S
C445 C446 1.395 . S
C445 H473 0.929 . S
C446 C445 1.395 . S
C446 C447 1.335 . S
C447 C446 1.335 . S
C447 C448 1.398 . S
C447 H474 0.930 . S
C448 C443 1.382 . S
C448 C447 1.398 . S
C448 H475 0.929 . S
C449 O462 1.271 . S
C449 O463 1.251 . S
C450 O464 1.252 . S
C450 O465 1.272 . S
C451 Sm441 2.846 . S
C451 C452 1.506 . S
C451 O466 1.261 . S
C451 O467 1.242 . S
C452 C451 1.506 . S
C452 C453 1.358 . S
C452 C457 1.382 . S
C453 C452 1.358 . S
C453 C454 1.385 . S
C453 H476 0.930 . S
C454 C453 1.385 . S
C454 C455 1.395 . S
C454 H477 0.929 . S
C455 C454 1.395 . S
C455 C456 1.335 . S
C456 C455 1.335 . S
C456 C457 1.398 . S
C456 H478 0.930 . S
C457 C452 1.382 . S
C457 C456 1.398 . S
C457 H479 0.929 . S
C458 O468 1.271 . S
C458 O469 1.251 . S
C459 O470 1.252 . S
C459 O471 1.272 . S
O460 Sm440 2.543 1_556 S
O460 C442 1.261 . S
O461 Sm440 2.450 1_556 S
O461 C442 1.242 . S
O462 Sm440 2.681 . S
O462 Sm441 2.386 . S
O462 C449 1.271 . S
O463 Sm440 2.464 . S
O463 C449 1.251 . S
O464 Sm440 2.396 . S
O464 C450 1.252 . S
O465 Sm441 2.408 . S
O465 C450 1.272 . S
O466 Sm441 2.543 . S
O466 C451 1.261 . S
O467 Sm441 2.450 . S
O467 C451 1.242 . S
O468 Sm440 2.386 . S
O468 Sm441 2.681 . S
O468 C458 1.271 . S
O469 Sm441 2.464 . S
O469 C458 1.251 . S
O470 Sm441 2.396 . S
O470 C459 1.252 . S
O471 Sm440 2.408 . S
O471 C459 1.272 . S
H472 C444 0.930 . S
H473 C445 0.929 . S
H474 C447 0.930 . S
H475 C448 0.929 . S
H476 C453 0.930 . S
H477 C454 0.929 . S
H478 C456 0.930 . S
H479 C457 0.929 . S
Sm480 C482 2.846 . S
Sm480 O500 2.543 . S
Sm480 O501 2.450 . S
Sm480 O502 2.681 . S
Sm480 O503 2.464 . S
Sm480 O504 2.396 . S
Sm480 O508 2.386 . S
Sm480 O511 2.408 . S
Sm481 C491 2.846 1_554 S
Sm481 O502 2.386 . S
Sm481 O505 2.408 . S
Sm481 O506 2.543 1_554 S
Sm481 O507 2.450 1_554 S
Sm481 O508 2.681 . S
Sm481 O509 2.464 . S
Sm481 O510 2.396 . S
C482 Sm480 2.846 . S
C482 C483 1.506 . S
C482 O500 1.261 . S
C482 O501 1.242 . S
C483 C482 1.506 . S
C483 C484 1.358 . S
C483 C488 1.382 . S
C484 C483 1.358 . S
C484 C485 1.385 . S
C484 H512 0.930 . S
C485 C484 1.385 . S
C485 C486 1.395 . S
C485 H513 0.929 . S
C486 C485 1.395 . S
C486 C487 1.335 . S
C487 C486 1.335 . S
C487 C488 1.398 . S
C487 H514 0.930 . S
C488 C483 1.382 . S
C488 C487 1.398 . S
C488 H515 0.929 . S
C489 O502 1.271 . S
C489 O503 1.251 . S
C490 O504 1.252 . S
C490 O505 1.272 . S
C491 Sm481 2.846 1_556 S
C491 C492 1.506 . S
C491 O506 1.261 . S
C491 O507 1.242 . S
C492 C491 1.506 . S
C492 C493 1.358 . S
C492 C497 1.382 . S
C493 C492 1.358 . S
C493 C494 1.385 . S
C493 H516 0.930 . S
C494 C493 1.385 . S
C494 C495 1.395 . S
C494 H517 0.929 . S
C495 C494 1.395 . S
C495 C496 1.335 . S
C496 C495 1.335 . S
C496 C497 1.398 . S
C496 H518 0.930 . S
C497 C492 1.382 . S
C497 C496 1.398 . S
C497 H519 0.929 . S
C498 O508 1.271 . S
C498 O509 1.251 . S
C499 O510 1.252 . S
C499 O511 1.272 . S
O500 Sm480 2.543 . S
O500 C482 1.261 . S
O501 Sm480 2.450 . S
O501 C482 1.242 . S
O502 Sm480 2.681 . S
O502 Sm481 2.386 . S
O502 C489 1.271 . S
O503 Sm480 2.464 . S
O503 C489 1.251 . S
O504 Sm480 2.396 . S
O504 C490 1.252 . S
O505 Sm481 2.408 . S
O505 C490 1.272 . S
O506 Sm481 2.543 1_556 S
O506 C491 1.261 . S
O507 Sm481 2.450 1_556 S
O507 C491 1.242 . S
O508 Sm480 2.386 . S
O508 Sm481 2.681 . S
O508 C498 1.271 . S
O509 Sm481 2.464 . S
O509 C498 1.251 . S
O510 Sm481 2.396 . S
O510 C499 1.252 . S
O511 Sm480 2.408 . S
O511 C499 1.272 . S
H512 C484 0.930 . S
H513 C485 0.929 . S
H514 C487 0.930 . S
H515 C488 0.929 . S
H516 C493 0.930 . S
H517 C494 0.929 . S
H518 C496 0.930 . S
H519 C497 0.929 . S
Sm520 C522 2.846 1_556 S
Sm520 O540 2.543 1_556 S
Sm520 O541 2.450 1_556 S
Sm520 O542 2.681 . S
Sm520 O543 2.464 . S
Sm520 O544 2.396 . S
Sm520 O548 2.386 . S
Sm520 O551 2.408 . S
Sm521 C531 2.846 . S
Sm521 O542 2.386 . S
Sm521 O545 2.408 . S
Sm521 O546 2.543 . S
Sm521 O547 2.450 . S
Sm521 O548 2.681 . S
Sm521 O549 2.464 . S
Sm521 O550 2.396 . S
C522 Sm520 2.846 1_554 S
C522 C523 1.506 . S
C522 O540 1.261 . S
C522 O541 1.242 . S
C523 C522 1.506 . S
C523 C524 1.358 . S
C523 C528 1.382 . S
C524 C523 1.358 . S
C524 C525 1.385 . S
C524 H552 0.930 . S
C525 C524 1.385 . S
C525 C526 1.395 . S
C525 H553 0.929 . S
C526 C525 1.395 . S
C526 C527 1.335 . S
C527 C526 1.335 . S
C527 C528 1.398 . S
C527 H554 0.930 . S
C528 C523 1.382 . S
C528 C527 1.398 . S
C528 H555 0.929 . S
C529 O542 1.271 . S
C529 O543 1.251 . S
C530 O544 1.252 . S
C530 O545 1.272 . S
C531 Sm521 2.846 . S
C531 C532 1.506 . S
C531 O546 1.261 . S
C531 O547 1.242 . S
C532 C531 1.506 . S
C532 C533 1.358 . S
C532 C537 1.382 . S
C533 C532 1.358 . S
C533 C534 1.385 . S
C533 H556 0.930 . S
C534 C533 1.385 . S
C534 C535 1.395 . S
C534 H557 0.929 . S
C535 C534 1.395 . S
C535 C536 1.335 . S
C536 C535 1.335 . S
C536 C537 1.398 . S
C536 H558 0.930 . S
C537 C532 1.382 . S
C537 C536 1.398 . S
C537 H559 0.929 . S
C538 O548 1.271 . S
C538 O549 1.251 . S
C539 O550 1.252 . S
C539 O551 1.272 . S
O540 Sm520 2.543 1_554 S
O540 C522 1.261 . S
O541 Sm520 2.450 1_554 S
O541 C522 1.242 . S
O542 Sm520 2.681 . S
O542 Sm521 2.386 . S
O542 C529 1.271 . S
O543 Sm520 2.464 . S
O543 C529 1.251 . S
O544 Sm520 2.396 . S
O544 C530 1.252 . S
O545 Sm521 2.408 . S
O545 C530 1.272 . S
O546 Sm521 2.543 . S
O546 C531 1.261 . S
O547 Sm521 2.450 . S
O547 C531 1.242 . S
O548 Sm520 2.386 . S
O548 Sm521 2.681 . S
O548 C538 1.271 . S
O549 Sm521 2.464 . S
O549 C538 1.251 . S
O550 Sm521 2.396 . S
O550 C539 1.252 . S
O551 Sm520 2.408 . S
O551 C539 1.272 . S
H552 C524 0.930 . S
H553 C525 0.929 . S
H554 C527 0.930 . S
H555 C528 0.929 . S
H556 C533 0.930 . S
H557 C534 0.929 . S
H558 C536 0.930 . S
H559 C537 0.929 . S
Sm560 C562 2.846 . S
Sm560 O580 2.543 . S
Sm560 O581 2.450 . S
Sm560 O582 2.681 . S
Sm560 O583 2.464 . S
Sm560 O584 2.396 . S
Sm560 O588 2.386 . S
Sm560 O591 2.408 . S
Sm561 C571 2.846 . S
Sm561 O582 2.386 . S
Sm561 O585 2.408 . S
Sm561 O586 2.543 . S
Sm561 O587 2.450 . S
Sm561 O588 2.681 . S
Sm561 O589 2.464 . S
Sm561 O590 2.396 . S
C562 Sm560 2.846 . S
C562 C563 1.506 . S
C562 O580 1.261 . S
C562 O581 1.242 . S
C563 C562 1.506 . S
C563 C564 1.358 . S
C563 C568 1.382 . S
C564 C563 1.358 . S
C564 C565 1.385 . S
C564 H592 0.930 . S
C565 C564 1.385 . S
C565 C566 1.395 . S
C565 H593 0.929 . S
C566 C565 1.395 . S
C566 C567 1.335 . S
C567 C566 1.335 . S
C567 C568 1.398 . S
C567 H594 0.930 . S
C568 C563 1.382 . S
C568 C567 1.398 . S
C568 H595 0.929 . S
C569 O582 1.271 . S
C569 O583 1.251 . S
C570 O584 1.252 . S
C570 O585 1.272 . S
C571 Sm561 2.846 . S
C571 C572 1.506 . S
C571 O586 1.261 . S
C571 O587 1.242 . S
C572 C571 1.506 . S
C572 C573 1.358 . S
C572 C577 1.382 . S
C573 C572 1.358 . S
C573 C574 1.385 . S
C573 H596 0.930 . S
C574 C573 1.385 . S
C574 C575 1.395 . S
C574 H597 0.929 . S
C575 C574 1.395 . S
C575 C576 1.335 . S
C576 C575 1.335 . S
C576 C577 1.398 . S
C576 H598 0.930 . S
C577 C572 1.382 . S
C577 C576 1.398 . S
C577 H599 0.929 . S
C578 O588 1.271 . S
C578 O589 1.251 . S
C579 O590 1.252 . S
C579 O591 1.272 . S
O580 Sm560 2.543 . S
O580 C562 1.261 . S
O581 Sm560 2.450 . S
O581 C562 1.242 . S
O582 Sm560 2.681 . S
O582 Sm561 2.386 . S
O582 C569 1.271 . S
O583 Sm560 2.464 . S
O583 C569 1.251 . S
O584 Sm560 2.396 . S
O584 C570 1.252 . S
O585 Sm561 2.408 . S
O585 C570 1.272 . S
O586 Sm561 2.543 . S
O586 C571 1.261 . S
O587 Sm561 2.450 . S
O587 C571 1.242 . S
O588 Sm560 2.386 . S
O588 Sm561 2.681 . S
O588 C578 1.271 . S
O589 Sm561 2.464 . S
O589 C578 1.251 . S
O590 Sm561 2.396 . S
O590 C579 1.252 . S
O591 Sm560 2.408 . S
O591 C579 1.272 . S
H592 C564 0.930 . S
H593 C565 0.929 . S
H594 C567 0.930 . S
H595 C568 0.929 . S
H596 C573 0.930 . S
H597 C574 0.929 . S
H598 C576 0.930 . S
H599 C577 0.929 . S
Sm600 C602 2.846 . S
Sm600 O620 2.543 . S
Sm600 O621 2.450 . S
Sm600 O622 2.681 . S
Sm600 O623 2.464 . S
Sm600 O624 2.396 . S
Sm600 O628 2.386 . S
Sm600 O631 2.408 . S
Sm601 C611 2.846 . S
Sm601 O622 2.386 . S
Sm601 O625 2.408 . S
Sm601 O626 2.543 . S
Sm601 O627 2.450 . S
Sm601 O628 2.681 . S
Sm601 O629 2.464 . S
Sm601 O630 2.396 . S
C602 Sm600 2.846 . S
C602 C603 1.506 . S
C602 O620 1.261 . S
C602 O621 1.242 . S
C603 C602 1.506 . S
C603 C604 1.358 . S
C603 C608 1.382 . S
C604 C603 1.358 . S
C604 C605 1.385 . S
C604 H632 0.930 . S
C605 C604 1.385 . S
C605 C606 1.395 . S
C605 H633 0.929 . S
C606 C605 1.395 . S
C606 C607 1.335 . S
C607 C606 1.335 . S
C607 C608 1.398 . S
C607 H634 0.930 . S
C608 C603 1.382 . S
C608 C607 1.398 . S
C608 H635 0.929 . S
C609 O622 1.271 . S
C609 O623 1.251 . S
C610 O624 1.252 . S
C610 O625 1.272 . S
C611 Sm601 2.846 . S
C611 C612 1.506 . S
C611 O626 1.261 . S
C611 O627 1.242 . S
C612 C611 1.506 . S
C612 C613 1.358 . S
C612 C617 1.382 . S
C613 C612 1.358 . S
C613 C614 1.385 . S
C613 H636 0.930 . S
C614 C613 1.385 . S
C614 C615 1.395 . S
C614 H637 0.929 . S
C615 C614 1.395 . S
C615 C616 1.335 . S
C616 C615 1.335 . S
C616 C617 1.398 . S
C616 H638 0.930 . S
C617 C612 1.382 . S
C617 C616 1.398 . S
C617 H639 0.929 . S
C618 O628 1.271 . S
C618 O629 1.251 . S
C619 O630 1.252 . S
C619 O631 1.272 . S
O620 Sm600 2.543 . S
O620 C602 1.261 . S
O621 Sm600 2.450 . S
O621 C602 1.242 . S
O622 Sm600 2.681 . S
O622 Sm601 2.386 . S
O622 C609 1.271 . S
O623 Sm600 2.464 . S
O623 C609 1.251 . S
O624 Sm600 2.396 . S
O624 C610 1.252 . S
O625 Sm601 2.408 . S
O625 C610 1.272 . S
O626 Sm601 2.543 . S
O626 C611 1.261 . S
O627 Sm601 2.450 . S
O627 C611 1.242 . S
O628 Sm600 2.386 . S
O628 Sm601 2.681 . S
O628 C618 1.271 . S
O629 Sm601 2.464 . S
O629 C618 1.251 . S
O630 Sm601 2.396 . S
O630 C619 1.252 . S
O631 Sm600 2.408 . S
O631 C619 1.272 . S
H632 C604 0.930 . S
H633 C605 0.929 . S
H634 C607 0.930 . S
H635 C608 0.929 . S
H636 C613 0.930 . S
H637 C614 0.929 . S
H638 C616 0.930 . S
H639 C617 0.929 . S
H640 C648 0.950 . S
H641 C653 0.950 . S
H642 C650 0.950 . S
H643 C652 0.950 . S
H644 C654 0.950 . S
H645 C656 0.950 . S
H646 C658 0.950 . S
H647 C659 0.950 . S
C648 H640 0.950 . S
C648 C649 1.386 . S
C648 C650 1.391 . S
C649 C648 1.386 . S
C649 C653 1.393 . S
C650 H642 0.950 . S
C650 C648 1.391 . S
C650 C651 1.400 . S
C651 C650 1.400 . S
C651 C652 1.398 . S
C651 C657 1.491 . S
C652 H643 0.950 . S
C652 C651 1.398 . S
C652 C653 1.391 . S
C653 H641 0.950 . S
C653 C649 1.393 . S
C653 C652 1.391 . S
C654 H644 0.950 . S
C654 C655 1.386 . S
C654 C656 1.391 . S
C655 C654 1.386 . S
C655 C659 1.393 . S
C656 H645 0.950 . S
C656 C654 1.391 . S
C656 C657 1.400 . S
C657 C651 1.491 . S
C657 C656 1.400 . S
C657 C658 1.398 . S
C658 H646 0.950 . S
C658 C657 1.398 . S
C658 C659 1.391 . S
C659 H647 0.950 . S
C659 C655 1.393 . S
C659 C658 1.391 . S
H660 C668 0.950 . S
H661 C673 0.950 1_554 S
H662 C670 0.950 . S
H663 C672 0.950 . S
H664 C674 0.950 . S
H665 C676 0.950 . S
H666 C678 0.950 . S
H667 C679 0.950 . S
C668 H660 0.950 . S
C668 C669 1.386 . S
C668 C670 1.391 . S
C669 C668 1.386 . S
C669 C673 1.393 . S
C670 H662 0.950 . S
C670 C668 1.391 . S
C670 C671 1.400 . S
C671 C670 1.400 . S
C671 C672 1.398 . S
C671 C677 1.491 . S
C672 H663 0.950 . S
C672 C671 1.398 . S
C672 C673 1.391 . S
C673 H661 0.950 1_556 S
C673 C669 1.393 . S
C673 C672 1.391 . S
C674 H664 0.950 . S
C674 C675 1.386 . S
C674 C676 1.391 . S
C675 C674 1.386 . S
C675 C679 1.393 . S
C676 H665 0.950 . S
C676 C674 1.391 . S
C676 C677 1.400 . S
C677 C671 1.491 . S
C677 C676 1.400 . S
C677 C678 1.398 . S
C678 H666 0.950 . S
C678 C677 1.398 . S
C678 C679 1.391 . S
C679 H667 0.950 . S
C679 C675 1.393 . S
C679 C678 1.391 . S
H680 C688 0.950 . S
H681 C693 0.950 . S
H682 C690 0.950 . S
H683 C692 0.950 . S
H684 C694 0.950 . S
H685 C696 0.950 . S
H686 C698 0.950 . S
H687 C699 0.950 1_556 S
C688 H680 0.950 . S
C688 C689 1.386 . S
C688 C690 1.391 . S
C689 C688 1.386 . S
C689 C693 1.393 . S
C690 H682 0.950 . S
C690 C688 1.391 . S
C690 C691 1.400 . S
C691 C690 1.400 . S
C691 C692 1.398 . S
C691 C697 1.491 . S
C692 H683 0.950 . S
C692 C691 1.398 . S
C692 C693 1.391 . S
C693 H681 0.950 . S
C693 C689 1.393 . S
C693 C692 1.391 . S
C694 H684 0.950 . S
C694 C695 1.386 1_554 S
C694 C696 1.391 . S
C695 C694 1.386 1_556 S
C695 C699 1.393 1_556 S
C696 H685 0.950 . S
C696 C694 1.391 . S
C696 C697 1.400 . S
C697 C691 1.491 . S
C697 C696 1.400 . S
C697 C698 1.398 . S
C698 H686 0.950 . S
C698 C697 1.398 . S
C698 C699 1.391 . S
C699 H687 0.950 1_554 S
C699 C695 1.393 1_554 S
C699 C698 1.391 . S
H700 C708 0.950 . S
H701 C713 0.950 . S
H702 C710 0.950 . S
H703 C712 0.950 . S
H704 C714 0.950 . S
H705 C716 0.950 . S
H706 C718 0.950 . S
H707 C719 0.950 . S
C708 H700 0.950 . S
C708 C709 1.386 . S
C708 C710 1.391 . S
C709 C708 1.386 . S
C709 C713 1.393 . S
C710 H702 0.950 . S
C710 C708 1.391 . S
C710 C711 1.400 . S
C711 C710 1.400 . S
C711 C712 1.398 . S
C711 C717 1.491 . S
C712 H703 0.950 . S
C712 C711 1.398 . S
C712 C713 1.391 . S
C713 H701 0.950 . S
C713 C709 1.393 . S
C713 C712 1.391 . S
C714 H704 0.950 . S
C714 C715 1.386 . S
C714 C716 1.391 . S
C715 C714 1.386 . S
C715 C719 1.393 . S
C716 H705 0.950 . S
C716 C714 1.391 . S
C716 C717 1.400 . S
C717 C711 1.491 . S
C717 C716 1.400 . S
C717 C718 1.398 . S
C718 H706 0.950 . S
C718 C717 1.398 . S
C718 C719 1.391 . S
C719 H707 0.950 . S
C719 C715 1.393 . S
C719 C718 1.391 . S
H720 C728 0.950 . S
H721 C733 0.950 . S
H722 C730 0.950 . S
H723 C732 0.950 . S
H724 C734 0.950 . S
H725 C736 0.950 . S
H726 C738 0.950 . S
H727 C739 0.950 . S
C728 H720 0.950 . S
C728 C729 1.386 . S
C728 C730 1.391 . S
C729 C728 1.386 . S
C729 C733 1.393 . S
C730 H722 0.950 . S
C730 C728 1.391 . S
C730 C731 1.400 . S
C731 C730 1.400 . S
C731 C732 1.398 . S
C731 C737 1.491 . S
C732 H723 0.950 . S
C732 C731 1.398 . S
C732 C733 1.391 . S
C733 H721 0.950 . S
C733 C729 1.393 . S
C733 C732 1.391 . S
C734 H724 0.950 . S
C734 C735 1.386 . S
C734 C736 1.391 . S
C735 C734 1.386 . S
C735 C739 1.393 . S
C736 H725 0.950 . S
C736 C734 1.391 . S
C736 C737 1.400 . S
C737 C731 1.491 . S
C737 C736 1.400 . S
C737 C738 1.398 . S
C738 H726 0.950 . S
C738 C737 1.398 . S
C738 C739 1.391 . S
C739 H727 0.950 . S
C739 C735 1.393 . S
C739 C738 1.391 . S
H740 C748 0.950 . S
H741 C753 0.950 . S
H742 C750 0.950 . S
H743 C752 0.950 . S
H744 C754 0.950 . S
H745 C756 0.950 . S
H746 C758 0.950 . S
H747 C759 0.950 . S
C748 H740 0.950 . S
C748 C749 1.386 . S
C748 C750 1.391 . S
C749 C748 1.386 . S
C749 C753 1.393 . S
C750 H742 0.950 . S
C750 C748 1.391 . S
C750 C751 1.400 . S
C751 C750 1.400 . S
C751 C752 1.398 . S
C751 C757 1.491 . S
C752 H743 0.950 . S
C752 C751 1.398 . S
C752 C753 1.391 . S
C753 H741 0.950 . S
C753 C749 1.393 . S
C753 C752 1.391 . S
C754 H744 0.950 . S
C754 C755 1.386 . S
C754 C756 1.391 . S
C755 C754 1.386 . S
C755 C759 1.393 . S
C756 H745 0.950 . S
C756 C754 1.391 . S
C756 C757 1.400 . S
C757 C751 1.491 . S
C757 C756 1.400 . S
C757 C758 1.398 . S
C758 H746 0.950 . S
C758 C757 1.398 . S
C758 C759 1.391 . S
C759 H747 0.950 . S
C759 C755 1.393 . S
C759 C758 1.391 . S
H760 C768 0.950 . S
H761 C773 0.950 . S
H762 C770 0.950 . S
H763 C772 0.950 . S
H764 C774 0.950 1_554 S
H765 C776 0.950 . S
H766 C778 0.950 . S
H767 C779 0.950 . S
C768 H760 0.950 . S
C768 C769 1.386 . S
C768 C770 1.391 . S
C769 C768 1.386 . S
C769 C773 1.393 . S
C770 H762 0.950 . S
C770 C768 1.391 . S
C770 C771 1.400 . S
C771 C770 1.400 . S
C771 C772 1.398 . S
C771 C777 1.491 . S
C772 H763 0.950 . S
C772 C771 1.398 . S
C772 C773 1.391 . S
C773 H761 0.950 . S
C773 C769 1.393 . S
C773 C772 1.391 . S
C774 H764 0.950 1_556 S
C774 C775 1.386 1_556 S
C774 C776 1.391 . S
C775 C774 1.386 1_554 S
C775 C779 1.393 1_554 S
C776 H765 0.950 . S
C776 C774 1.391 . S
C776 C777 1.400 . S
C777 C771 1.491 . S
C777 C776 1.400 . S
C777 C778 1.398 . S
C778 H766 0.950 . S
C778 C777 1.398 . S
C778 C779 1.391 . S
C779 H767 0.950 . S
C779 C775 1.393 1_556 S
C779 C778 1.391 . S
H780 C788 0.950 . S
H781 C793 0.950 1_556 S
H782 C790 0.950 . S
H783 C792 0.950 . S
H784 C794 0.950 . S
H785 C796 0.950 . S
H786 C798 0.950 . S
H787 C799 0.950 . S
C788 H780 0.950 . S
C788 C789 1.386 . S
C788 C790 1.391 . S
C789 C788 1.386 . S
C789 C793 1.393 . S
C790 H782 0.950 . S
C790 C788 1.391 . S
C790 C791 1.400 . S
C791 C790 1.400 . S
C791 C792 1.398 . S
C791 C797 1.491 . S
C792 H783 0.950 . S
C792 C791 1.398 . S
C792 C793 1.391 . S
C793 H781 0.950 1_554 S
C793 C789 1.393 . S
C793 C792 1.391 . S
C794 H784 0.950 . S
C794 C795 1.386 . S
C794 C796 1.391 . S
C795 C794 1.386 . S
C795 C799 1.393 . S
C796 H785 0.950 . S
C796 C794 1.391 . S
C796 C797 1.400 . S
C797 C791 1.491 . S
C797 C796 1.400 . S
C797 C798 1.398 . S
C798 H786 0.950 . S
C798 C797 1.398 . S
C798 C799 1.391 . S
C799 H787 0.950 . S
C799 C795 1.393 . S
C799 C798 1.391 . S
H800 C808 0.950 . S
H801 C813 0.950 . S
H802 C810 0.950 . S
H803 C812 0.950 . S
H804 C814 0.950 . S
H805 C816 0.950 . S
H806 C818 0.950 . S
H807 C819 0.950 . S
C808 H800 0.950 . S
C808 C809 1.386 . S
C808 C810 1.391 . S
C809 C808 1.386 . S
C809 C813 1.393 . S
C810 H802 0.950 . S
C810 C808 1.391 . S
C810 C811 1.400 . S
C811 C810 1.400 . S
C811 C812 1.398 . S
C811 C817 1.491 . S
C812 H803 0.950 . S
C812 C811 1.398 . S
C812 C813 1.391 . S
C813 H801 0.950 . S
C813 C809 1.393 . S
C813 C812 1.391 . S
C814 H804 0.950 . S
C814 C815 1.386 . S
C814 C816 1.391 . S
C815 C814 1.386 . S
C815 C819 1.393 . S
C816 H805 0.950 . S
C816 C814 1.391 . S
C816 C817 1.400 . S
C817 C811 1.491 . S
C817 C816 1.400 . S
C817 C818 1.398 . S
C818 H806 0.950 . S
C818 C817 1.398 . S
C818 C819 1.391 . S
C819 H807 0.950 . S
C819 C815 1.393 . S
C819 C818 1.391 . S
H820 C828 0.950 . S
H821 C833 0.950 . S
H822 C830 0.950 . S
H823 C832 0.950 . S
H824 C834 0.950 . S
H825 C836 0.950 . S
H826 C838 0.950 . S
H827 C839 0.950 1_556 S
C828 H820 0.950 . S
C828 C829 1.386 . S
C828 C830 1.391 . S
C829 C828 1.386 . S
C829 C833 1.393 . S
C830 H822 0.950 . S
C830 C828 1.391 . S
C830 C831 1.400 . S
C831 C830 1.400 . S
C831 C832 1.398 . S
C831 C837 1.491 . S
C832 H823 0.950 . S
C832 C831 1.398 . S
C832 C833 1.391 . S
C833 H821 0.950 . S
C833 C829 1.393 . S
C833 C832 1.391 . S
C834 H824 0.950 . S
C834 C835 1.386 . S
C834 C836 1.391 . S
C835 C834 1.386 . S
C835 C839 1.393 . S
C836 H825 0.950 . S
C836 C834 1.391 . S
C836 C837 1.400 . S
C837 C831 1.491 . S
C837 C836 1.400 . S
C837 C838 1.398 . S
C838 H826 0.950 . S
C838 C837 1.398 . S
C838 C839 1.391 . S
C839 H827 0.950 1_554 S
C839 C835 1.393 . S
C839 C838 1.391 . S
H840 C848 0.950 . S
H841 C853 0.950 1_554 S
H842 C850 0.950 . S
H843 C852 0.950 . S
H844 C854 0.950 . S
H845 C856 0.950 . S
H846 C858 0.950 . S
H847 C859 0.950 . S
C848 H840 0.950 . S
C848 C849 1.386 1_556 S
C848 C850 1.391 . S
C849 C848 1.386 1_554 S
C849 C853 1.393 1_554 S
C850 H842 0.950 . S
C850 C848 1.391 . S
C850 C851 1.400 . S
C851 C850 1.400 . S
C851 C852 1.398 . S
C851 C857 1.491 . S
C852 H843 0.950 . S
C852 C851 1.398 . S
C852 C853 1.391 . S
C853 H841 0.950 1_556 S
C853 C849 1.393 1_556 S
C853 C852 1.391 . S
C854 H844 0.950 . S
C854 C855 1.386 . S
C854 C856 1.391 . S
C855 C854 1.386 . S
C855 C859 1.393 . S
C856 H845 0.950 . S
C856 C854 1.391 . S
C856 C857 1.400 . S
C857 C851 1.491 . S
C857 C856 1.400 . S
C857 C858 1.398 . S
C858 H846 0.950 . S
C858 C857 1.398 . S
C858 C859 1.391 . S
C859 H847 0.950 . S
C859 C855 1.393 . S
C859 C858 1.391 . S
H860 C868 0.950 . S
H861 C873 0.950 . S
H862 C870 0.950 . S
H863 C872 0.950 . S
H864 C874 0.950 . S
H865 C876 0.950 . S
H866 C878 0.950 . S
H867 C879 0.950 . S
C868 H860 0.950 . S
C868 C869 1.386 . S
C868 C870 1.391 . S
C869 C868 1.386 . S
C869 C873 1.393 . S
C870 H862 0.950 . S
C870 C868 1.391 . S
C870 C871 1.400 . S
C871 C870 1.400 . S
C871 C872 1.398 . S
C871 C877 1.491 . S
C872 H863 0.950 . S
C872 C871 1.398 . S
C872 C873 1.391 . S
C873 H861 0.950 . S
C873 C869 1.393 . S
C873 C872 1.391 . S
C874 H864 0.950 . S
C874 C875 1.386 . S
C874 C876 1.391 . S
C875 C874 1.386 . S
C875 C879 1.393 . S
C876 H865 0.950 . S
C876 C874 1.391 . S
C876 C877 1.400 . S
C877 C871 1.491 . S
C877 C876 1.400 . S
C877 C878 1.398 . S
C878 H866 0.950 . S
C878 C877 1.398 . S
C878 C879 1.391 . S
C879 H867 0.950 . S
C879 C875 1.393 . S
C879 C878 1.391 . S
H880 C888 0.950 . S
H881 C893 0.950 . S
H882 C890 0.950 . S
H883 C892 0.950 . S
H884 C894 0.950 . S
H885 C896 0.950 . S
H886 C898 0.950 . S
H887 C899 0.950 . S
C888 H880 0.950 . S
C888 C889 1.386 . S
C888 C890 1.391 . S
C889 C888 1.386 . S
C889 C893 1.393 . S
C890 H882 0.950 . S
C890 C888 1.391 . S
C890 C891 1.400 . S
C891 C890 1.400 . S
C891 C892 1.398 . S
C891 C897 1.491 . S
C892 H883 0.950 . S
C892 C891 1.398 . S
C892 C893 1.391 . S
C893 H881 0.950 . S
C893 C889 1.393 . S
C893 C892 1.391 . S
C894 H884 0.950 . S
C894 C895 1.386 . S
C894 C896 1.391 . S
C895 C894 1.386 . S
C895 C899 1.393 . S
C896 H885 0.950 . S
C896 C894 1.391 . S
C896 C897 1.400 . S
C897 C891 1.491 . S
C897 C896 1.400 . S
C897 C898 1.398 . S
C898 H886 0.950 . S
C898 C897 1.398 . S
C898 C899 1.391 . S
C899 H887 0.950 . S
C899 C895 1.393 . S
C899 C898 1.391 . S
H900 C908 0.950 . S
H901 C913 0.950 . S
H902 C910 0.950 . S
H903 C912 0.950 . S
H904 C914 0.950 . S
H905 C916 0.950 . S
H906 C918 0.950 . S
H907 C919 0.950 . S
C908 H900 0.950 . S
C908 C909 1.386 . S
C908 C910 1.391 . S
C909 C908 1.386 . S
C909 C913 1.393 . S
C910 H902 0.950 . S
C910 C908 1.391 . S
C910 C911 1.400 . S
C911 C910 1.400 . S
C911 C912 1.398 . S
C911 C917 1.491 . S
C912 H903 0.950 . S
C912 C911 1.398 . S
C912 C913 1.391 . S
C913 H901 0.950 . S
C913 C909 1.393 . S
C913 C912 1.391 . S
C914 H904 0.950 . S
C914 C915 1.386 . S
C914 C916 1.391 . S
C915 C914 1.386 . S
C915 C919 1.393 . S
C916 H905 0.950 . S
C916 C914 1.391 . S
C916 C917 1.400 . S
C917 C911 1.491 . S
C917 C916 1.400 . S
C917 C918 1.398 . S
C918 H906 0.950 . S
C918 C917 1.398 . S
C918 C919 1.391 . S
C919 H907 0.950 . S
C919 C915 1.393 . S
C919 C918 1.391 . S
H920 C928 0.950 . S
H921 C933 0.950 . S
H922 C930 0.950 . S
H923 C932 0.950 . S
H924 C934 0.950 . S
H925 C936 0.950 . S
H926 C938 0.950 . S
H927 C939 0.945 1_556 S
C928 H920 0.950 . S
C928 C929 1.386 . S
C928 C930 1.391 . S
C929 C928 1.386 . S
C929 C933 1.393 . S
C930 H922 0.950 . S
C930 C928 1.391 . S
C930 C931 1.400 . S
C931 C930 1.400 . S
C931 C932 1.398 . S
C931 C937 1.491 . S
C932 H923 0.950 . S
C932 C931 1.398 . S
C932 C933 1.391 . S
C933 H921 0.950 . S
C933 C929 1.393 . S
C933 C932 1.391 . S
C934 H924 0.950 . S
C934 C935 1.386 1_554 S
C934 C936 1.391 . S
C935 C934 1.386 1_556 S
C935 C939 1.393 1_556 S
C936 H925 0.950 . S
C936 C934 1.391 . S
C936 C937 1.400 . S
C937 C931 1.491 . S
C937 C936 1.400 . S
C937 C938 1.398 . S
C938 H926 0.950 . S
C938 C937 1.398 . S
C938 C939 1.391 . S
C939 H927 0.945 1_554 S
C939 C935 1.393 1_554 S
C939 C938 1.391 . S
H940 C948 0.950 . S
H941 C953 0.950 1_554 S
H942 C950 0.950 . S
H943 C952 0.950 . S
H944 C954 0.950 . S
H945 C956 0.950 . S
H946 C958 0.950 . S
H947 C959 0.950 . S
C948 H940 0.950 . S
C948 C949 1.386 . S
C948 C950 1.391 . S
C949 C948 1.386 . S
C949 C953 1.393 . S
C950 H942 0.950 . S
C950 C948 1.391 . S
C950 C951 1.400 . S
C951 C950 1.400 . S
C951 C952 1.398 . S
C951 C957 1.491 . S
C952 H943 0.950 . S
C952 C951 1.398 . S
C952 C953 1.391 . S
C953 H941 0.950 1_556 S
C953 C949 1.393 . S
C953 C952 1.391 . S
C954 H944 0.950 . S
C954 C955 1.386 . S
C954 C956 1.391 . S
C955 C954 1.386 . S
C955 C959 1.393 . S
C956 H945 0.950 . S
C956 C954 1.391 . S
C956 C957 1.400 . S
C957 C951 1.491 . S
C957 C956 1.400 . S
C957 C958 1.398 . S
C958 H946 0.950 . S
C958 C957 1.398 . S
C958 C959 1.391 . S
C959 H947 0.950 . S
C959 C955 1.393 . S
C959 C958 1.391 . S
H960 C968 0.950 . S
H961 C973 0.950 . S
H962 C970 0.950 . S
H963 C972 0.950 . S
H964 C974 0.950 . S
H965 C976 0.950 . S
H966 C978 0.950 . S
H967 C979 0.950 . S
C968 H960 0.950 . S
C968 C969 1.386 . S
C968 C970 1.391 . S
C969 C968 1.386 . S
C969 C973 1.393 . S
C970 H962 0.950 . S
C970 C968 1.391 . S
C970 C971 1.400 . S
C971 C970 1.400 . S
C971 C972 1.398 . S
C971 C977 1.491 . S
C972 H963 0.950 . S
C972 C971 1.398 . S
C972 C973 1.391 . S
C973 H961 0.950 . S
C973 C969 1.393 . S
C973 C972 1.391 . S
C974 H964 0.950 . S
C974 C975 1.386 . S
C974 C976 1.391 . S
C975 C974 1.386 . S
C975 C979 1.393 . S
C976 H965 0.950 . S
C976 C974 1.391 . S
C976 C977 1.400 . S
C977 C971 1.491 . S
C977 C976 1.400 . S
C977 C978 1.398 . S
C978 H966 0.950 . S
C978 C977 1.398 . S
C978 C979 1.391 . S
C979 H967 0.950 . S
C979 C975 1.393 . S
C979 C978 1.391 . S
H980 C988 0.950 . S
H981 C993 0.950 . S
H982 C990 0.950 . S
H983 C992 0.950 . S
H984 C994 0.950 . S
H985 C996 0.950 . S
H986 C998 0.950 . S
H987 C999 0.950 . S
C988 H980 0.950 . S
C988 C989 1.386 . S
C988 C990 1.391 . S
C989 C988 1.386 . S
C989 C993 1.393 . S
C990 H982 0.950 . S
C990 C988 1.391 . S
C990 C991 1.400 . S
C991 C990 1.400 . S
C991 C992 1.398 . S
C991 C997 1.491 . S
C992 H983 0.950 . S
C992 C991 1.398 . S
C992 C993 1.391 . S
C993 H981 0.950 . S
C993 C989 1.393 . S
C993 C992 1.391 . S
C994 H984 0.950 . S
C994 C995 1.386 . S
C994 C996 1.391 . S
C995 C994 1.386 . S
C995 C999 1.393 . S
C996 H985 0.950 . S
C996 C994 1.391 . S
C996 C997 1.400 . S
C997 C991 1.491 . S
C997 C996 1.400 . S
C997 C998 1.398 . S
C998 H986 0.950 . S
C998 C997 1.398 . S
C998 C999 1.391 . S
C999 H987 0.950 . S
C999 C995 1.393 . S
C999 C998 1.391 . S
H1000 C1008 0.950 . S
H1001 C1013 0.950 . S
H1002 C1010 0.950 . S
H1003 C1012 0.950 . S
H1004 C1014 0.950 . S
H1005 C1016 0.950 . S
H1006 C1018 0.950 . S
H1007 C1019 0.950 . S
C1008 H1000 0.950 . S
C1008 C1009 1.386 . S
C1008 C1010 1.391 . S
C1009 C1008 1.386 . S
C1009 C1013 1.393 . S
C1010 H1002 0.950 . S
C1010 C1008 1.391 . S
C1010 C1011 1.400 . S
C1011 C1010 1.400 . S
C1011 C1012 1.398 . S
C1011 C1017 1.491 . S
C1012 H1003 0.950 . S
C1012 C1011 1.398 . S
C1012 C1013 1.391 . S
C1013 H1001 0.950 . S
C1013 C1009 1.393 . S
C1013 C1012 1.391 . S
C1014 H1004 0.950 . S
C1014 C1015 1.386 . S
C1014 C1016 1.391 . S
C1015 C1014 1.386 . S
C1015 C1019 1.393 . S
C1016 H1005 0.950 . S
C1016 C1014 1.391 . S
C1016 C1017 1.400 . S
C1017 C1011 1.491 . S
C1017 C1016 1.400 . S
C1017 C1018 1.398 . S
C1018 H1006 0.950 . S
C1018 C1017 1.398 . S
C1018 C1019 1.391 . S
C1019 H1007 0.950 . S
C1019 C1015 1.393 . S
C1019 C1018 1.391 . S
H1020 C1028 0.950 . S
H1021 C1033 0.950 . S
H1022 C1030 0.950 . S
H1023 C1032 0.950 . S
H1024 C1034 0.950 . S
H1025 C1036 0.950 . S
H1026 C1038 0.950 . S
H1027 C1039 0.950 . S
C1028 H1020 0.950 . S
C1028 C1029 1.386 . S
C1028 C1030 1.391 . S
C1029 C1028 1.386 . S
C1029 C1033 1.393 . S
C1030 H1022 0.950 . S
C1030 C1028 1.391 . S
C1030 C1031 1.400 . S
C1031 C1030 1.400 . S
C1031 C1032 1.398 . S
C1031 C1037 1.491 1_655 S
C1032 H1023 0.950 . S
C1032 C1031 1.398 . S
C1032 C1033 1.391 . S
C1033 H1021 0.950 . S
C1033 C1029 1.393 . S
C1033 C1032 1.391 . S
C1034 H1024 0.950 . S
C1034 C1035 1.386 . S
C1034 C1036 1.391 . S
C1035 C1034 1.386 . S
C1035 C1039 1.393 . S
C1036 H1025 0.950 . S
C1036 C1034 1.391 . S
C1036 C1037 1.400 . S
C1037 C1031 1.491 1_455 S
C1037 C1036 1.400 . S
C1037 C1038 1.398 . S
C1038 H1026 0.950 . S
C1038 C1037 1.398 . S
C1038 C1039 1.391 . S
C1039 H1027 0.950 . S
C1039 C1035 1.393 . S
C1039 C1038 1.391 . S
H1040 C1048 0.950 . S
H1041 C1053 0.950 . S
H1042 C1050 0.950 . S
H1043 C1052 0.950 . S
H1044 C1054 0.950 . S
H1045 C1056 0.950 . S
H1046 C1058 0.950 . S
H1047 C1059 0.950 . S
C1048 H1040 0.950 . S
C1048 C1049 1.386 . S
C1048 C1050 1.391 . S
C1049 C1048 1.386 . S
C1049 C1053 1.393 . S
C1050 H1042 0.950 . S
C1050 C1048 1.391 . S
C1050 C1051 1.400 . S
C1051 C1050 1.400 . S
C1051 C1052 1.398 . S
C1051 C1057 1.491 . S
C1052 H1043 0.950 . S
C1052 C1051 1.398 . S
C1052 C1053 1.391 . S
C1053 H1041 0.950 . S
C1053 C1049 1.393 . S
C1053 C1052 1.391 . S
C1054 H1044 0.950 . S
C1054 C1055 1.386 . S
C1054 C1056 1.391 . S
C1055 C1054 1.386 . S
C1055 C1059 1.393 . S
C1056 H1045 0.950 . S
C1056 C1054 1.391 . S
C1056 C1057 1.400 . S
C1057 C1051 1.491 . S
C1057 C1056 1.400 . S
C1057 C1058 1.398 . S
C1058 H1046 0.950 . S
C1058 C1057 1.398 . S
C1058 C1059 1.391 . S
C1059 H1047 0.950 . S
C1059 C1055 1.393 . S
C1059 C1058 1.391 . S
H1060 C1068 0.950 . S
H1061 C1073 0.950 . S
H1062 C1070 0.950 . S
H1063 C1072 0.950 . S
H1064 C1074 0.950 . S
H1065 C1076 0.950 . S
H1066 C1078 0.950 . S
H1067 C1079 0.950 . S
C1068 H1060 0.950 . S
C1068 C1069 1.386 . S
C1068 C1070 1.391 . S
C1069 C1068 1.386 . S
C1069 C1073 1.393 . S
C1070 H1062 0.950 . S
C1070 C1068 1.391 . S
C1070 C1071 1.400 . S
C1071 C1070 1.400 . S
C1071 C1072 1.398 . S
C1071 C1077 1.491 1_455 S
C1072 H1063 0.950 . S
C1072 C1071 1.398 . S
C1072 C1073 1.391 . S
C1073 H1061 0.950 . S
C1073 C1069 1.393 . S
C1073 C1072 1.391 . S
C1074 H1064 0.950 . S
C1074 C1075 1.386 . S
C1074 C1076 1.391 . S
C1075 C1074 1.386 . S
C1075 C1079 1.393 . S
C1076 H1065 0.950 . S
C1076 C1074 1.391 . S
C1076 C1077 1.400 . S
C1077 C1071 1.491 1_655 S
C1077 C1076 1.400 . S
C1077 C1078 1.398 . S
C1078 H1066 0.950 . S
C1078 C1077 1.398 . S
C1078 C1079 1.391 . S
C1079 H1067 0.950 . S
C1079 C1075 1.393 . S
C1079 C1078 1.391 . S
H1080 C1088 0.950 . S
H1081 C1093 0.950 . S
H1082 C1090 0.950 . S
H1083 C1092 0.950 . S
H1084 C1094 0.950 . S
H1085 C1096 0.950 . S
H1086 C1098 0.950 . S
H1087 C1099 0.950 . S
C1088 H1080 0.950 . S
C1088 C1089 1.386 . S
C1088 C1090 1.391 . S
C1089 C1088 1.386 . S
C1089 C1093 1.393 . S
C1090 H1082 0.950 . S
C1090 C1088 1.391 . S
C1090 C1091 1.400 . S
C1091 C1090 1.400 . S
C1091 C1092 1.398 . S
C1091 C1097 1.491 . S
C1092 H1083 0.950 . S
C1092 C1091 1.398 . S
C1092 C1093 1.391 . S
C1093 H1081 0.950 . S
C1093 C1089 1.393 . S
C1093 C1092 1.391 . S
C1094 H1084 0.950 . S
C1094 C1095 1.386 . S
C1094 C1096 1.391 . S
C1095 C1094 1.386 . S
C1095 C1099 1.393 . S
C1096 H1085 0.950 . S
C1096 C1094 1.391 . S
C1096 C1097 1.400 . S
C1097 C1091 1.491 . S
C1097 C1096 1.400 . S
C1097 C1098 1.398 . S
C1098 H1086 0.950 . S
C1098 C1097 1.398 . S
C1098 C1099 1.391 . S
C1099 H1087 0.950 . S
C1099 C1095 1.393 . S
C1099 C1098 1.391 . S
H1100 C1108 0.950 . S
H1101 C1113 0.950 . S
H1102 C1110 0.950 . S
H1103 C1112 0.950 . S
H1104 C1114 0.950 . S
H1105 C1116 0.950 . S
H1106 C1118 0.950 . S
H1107 C1119 0.950 . S
C1108 H1100 0.950 . S
C1108 C1109 1.386 . S
C1108 C1110 1.391 . S
C1109 C1108 1.386 . S
C1109 C1113 1.393 . S
C1110 H1102 0.950 . S
C1110 C1108 1.391 . S
C1110 C1111 1.400 . S
C1111 C1110 1.400 . S
C1111 C1112 1.398 . S
C1111 C1117 1.491 . S
C1112 H1103 0.950 . S
C1112 C1111 1.398 . S
C1112 C1113 1.391 . S
C1113 H1101 0.950 . S
C1113 C1109 1.393 . S
C1113 C1112 1.391 . S
C1114 H1104 0.950 . S
C1114 C1115 1.386 . S
C1114 C1116 1.391 . S
C1115 C1114 1.386 . S
C1115 C1119 1.393 . S
C1116 H1105 0.950 . S
C1116 C1114 1.391 . S
C1116 C1117 1.400 . S
C1117 C1111 1.491 . S
C1117 C1116 1.400 . S
C1117 C1118 1.398 . S
C1118 H1106 0.950 . S
C1118 C1117 1.398 . S
C1118 C1119 1.391 . S
C1119 H1107 0.950 . S
C1119 C1115 1.393 . S
C1119 C1118 1.391 . S
H1120 C1128 0.950 . S
H1121 C1133 0.950 . S
H1122 C1130 0.950 . S
H1123 C1132 0.950 . S
H1124 C1134 0.950 . S
H1125 C1136 0.950 . S
H1126 C1138 0.950 . S
H1127 C1139 0.950 . S
C1128 H1120 0.950 . S
C1128 C1129 1.386 . S
C1128 C1130 1.391 . S
C1129 C1128 1.386 . S
C1129 C1133 1.393 . S
C1130 H1122 0.950 . S
C1130 C1128 1.391 . S
C1130 C1131 1.400 . S
C1131 C1130 1.400 . S
C1131 C1132 1.398 . S
C1131 C1137 1.491 . S
C1132 H1123 0.950 . S
C1132 C1131 1.398 . S
C1132 C1133 1.391 . S
C1133 H1121 0.950 . S
C1133 C1129 1.393 . S
C1133 C1132 1.391 . S
C1134 H1124 0.950 . S
C1134 C1135 1.386 . S
C1134 C1136 1.391 . S
C1135 C1134 1.386 . S
C1135 C1139 1.393 . S
C1136 H1125 0.950 . S
C1136 C1134 1.391 . S
C1136 C1137 1.400 . S
C1137 C1131 1.491 . S
C1137 C1136 1.400 . S
C1137 C1138 1.398 . S
C1138 H1126 0.950 . S
C1138 C1137 1.398 . S
C1138 C1139 1.391 . S
C1139 H1127 0.950 . S
C1139 C1135 1.393 . S
C1139 C1138 1.391 . S
H1140 C1148 0.950 . S
H1141 C1153 0.950 . S
H1142 C1150 0.950 . S
H1143 C1152 0.950 . S
H1144 C1154 0.950 . S
H1145 C1156 0.950 . S
H1146 C1158 0.950 . S
H1147 C1159 0.950 . S
C1148 H1140 0.950 . S
C1148 C1149 1.386 . S
C1148 C1150 1.391 . S
C1149 C1148 1.386 . S
C1149 C1153 1.393 . S
C1150 H1142 0.950 . S
C1150 C1148 1.391 . S
C1150 C1151 1.400 . S
C1151 C1150 1.400 . S
C1151 C1152 1.398 . S
C1151 C1157 1.491 . S
C1152 H1143 0.950 . S
C1152 C1151 1.398 . S
C1152 C1153 1.391 . S
C1153 H1141 0.950 . S
C1153 C1149 1.393 . S
C1153 C1152 1.391 . S
C1154 H1144 0.950 . S
C1154 C1155 1.386 . S
C1154 C1156 1.391 . S
C1155 C1154 1.386 . S
C1155 C1159 1.393 . S
C1156 H1145 0.950 . S
C1156 C1154 1.391 . S
C1156 C1157 1.400 . S
C1157 C1151 1.491 . S
C1157 C1156 1.400 . S
C1157 C1158 1.398 . S
C1158 H1146 0.950 . S
C1158 C1157 1.398 . S
C1158 C1159 1.391 . S
C1159 H1147 0.950 . S
C1159 C1155 1.393 . S
C1159 C1158 1.391 . S
H1160 C1168 0.950 . S
H1161 C1173 0.950 . S
H1162 C1170 0.950 . S
H1163 C1172 0.950 . S
H1164 C1174 0.950 . S
H1165 C1176 0.950 . S
H1166 C1178 0.950 . S
H1167 C1179 0.950 . S
C1168 H1160 0.950 . S
C1168 C1169 1.386 . S
C1168 C1170 1.391 . S
C1169 C1168 1.386 . S
C1169 C1173 1.393 . S
C1170 H1162 0.950 . S
C1170 C1168 1.391 . S
C1170 C1171 1.400 . S
C1171 C1170 1.400 . S
C1171 C1172 1.398 . S
C1171 C1177 1.491 . S
C1172 H1163 0.950 . S
C1172 C1171 1.398 . S
C1172 C1173 1.391 . S
C1173 H1161 0.950 . S
C1173 C1169 1.393 . S
C1173 C1172 1.391 . S
C1174 H1164 0.950 . S
C1174 C1175 1.386 . S
C1174 C1176 1.391 . S
C1175 C1174 1.386 . S
C1175 C1179 1.393 . S
C1176 H1165 0.950 . S
C1176 C1174 1.391 . S
C1176 C1177 1.400 . S
C1177 C1171 1.491 . S
C1177 C1176 1.400 . S
C1177 C1178 1.398 . S
C1178 H1166 0.950 . S
C1178 C1177 1.398 . S
C1178 C1179 1.391 . S
C1179 H1167 0.950 . S
C1179 C1175 1.393 . S
C1179 C1178 1.391 . S
H1180 C1188 0.950 . S
H1181 C1193 0.950 . S
H1182 C1190 0.950 . S
H1183 C1192 0.950 . S
H1184 C1194 0.950 . S
H1185 C1196 0.950 . S
H1186 C1198 0.950 . S
H1187 C1199 0.950 . S
C1188 H1180 0.950 . S
C1188 C1189 1.386 . S
C1188 C1190 1.391 . S
C1189 C1188 1.386 . S
C1189 C1193 1.393 . S
C1190 H1182 0.950 . S
C1190 C1188 1.391 . S
C1190 C1191 1.400 . S
C1191 C1190 1.400 . S
C1191 C1192 1.398 . S
C1191 C1197 1.491 . S
C1192 H1183 0.950 . S
C1192 C1191 1.398 . S
C1192 C1193 1.391 . S
C1193 H1181 0.950 . S
C1193 C1189 1.393 . S
C1193 C1192 1.391 . S
C1194 H1184 0.950 . S
C1194 C1195 1.386 . S
C1194 C1196 1.391 . S
C1195 C1194 1.386 . S
C1195 C1199 1.393 . S
C1196 H1185 0.950 . S
C1196 C1194 1.391 . S
C1196 C1197 1.400 . S
C1197 C1191 1.491 . S
C1197 C1196 1.400 . S
C1197 C1198 1.398 . S
C1198 H1186 0.950 . S
C1198 C1197 1.398 . S
C1198 C1199 1.391 . S
C1199 H1187 0.950 . S
C1199 C1195 1.393 . S
C1199 C1198 1.391 . S
H1200 C1208 0.950 . S
H1201 C1213 0.950 . S
H1202 C1210 0.950 . S
H1203 C1212 0.950 . S
H1204 C1214 0.949 . S
H1205 C1216 0.954 . S
H1206 C1218 0.950 . S
H1207 C1219 0.950 . S
C1208 H1200 0.950 . S
C1208 C1209 1.386 . S
C1208 C1210 1.391 . S
C1209 C1208 1.386 . S
C1209 C1213 1.393 . S
C1210 H1202 0.950 . S
C1210 C1208 1.391 . S
C1210 C1211 1.400 . S
C1211 C1210 1.400 . S
C1211 C1212 1.398 . S
C1211 C1217 1.491 1_655 S
C1212 H1203 0.950 . S
C1212 C1211 1.398 . S
C1212 C1213 1.391 . S
C1213 H1201 0.950 . S
C1213 C1209 1.393 . S
C1213 C1212 1.391 . S
C1214 H1204 0.949 . S
C1214 C1215 1.386 . S
C1214 C1216 1.391 . S
C1215 C1214 1.386 . S
C1215 C1219 1.393 . S
C1216 H1205 0.954 . S
C1216 C1214 1.391 . S
C1216 C1217 1.400 . S
C1217 C1211 1.491 1_455 S
C1217 C1216 1.400 . S
C1217 C1218 1.398 . S
C1218 H1206 0.950 . S
C1218 C1217 1.398 . S
C1218 C1219 1.391 . S
C1219 H1207 0.950 . S
C1219 C1215 1.393 . S
C1219 C1218 1.391 . S
H1220 C1228 0.950 . S
H1221 C1233 0.950 . S
H1222 C1230 0.950 . S
H1223 C1232 0.950 . S
H1224 C1234 0.950 . S
H1225 C1236 0.950 . S
H1226 C1238 0.950 . S
H1227 C1239 0.950 . S
C1228 H1220 0.950 . S
C1228 C1229 1.386 . S
C1228 C1230 1.391 . S
C1229 C1228 1.386 . S
C1229 C1233 1.393 . S
C1230 H1222 0.950 . S
C1230 C1228 1.391 . S
C1230 C1231 1.400 . S
C1231 C1230 1.400 . S
C1231 C1232 1.398 . S
C1231 C1237 1.491 . S
C1232 H1223 0.950 . S
C1232 C1231 1.398 . S
C1232 C1233 1.391 . S
C1233 H1221 0.950 . S
C1233 C1229 1.393 . S
C1233 C1232 1.391 . S
C1234 H1224 0.950 . S
C1234 C1235 1.386 . S
C1234 C1236 1.391 . S
C1235 C1234 1.386 . S
C1235 C1239 1.393 . S
C1236 H1225 0.950 . S
C1236 C1234 1.391 . S
C1236 C1237 1.400 . S
C1237 C1231 1.491 . S
C1237 C1236 1.400 . S
C1237 C1238 1.398 . S
C1238 H1226 0.950 . S
C1238 C1237 1.398 . S
C1238 C1239 1.391 . S
C1239 H1227 0.950 . S
C1239 C1235 1.393 . S
C1239 C1238 1.391 . S
H1240 C1248 0.950 . S
H1241 C1253 0.950 . S
H1242 C1250 0.950 . S
H1243 C1252 0.950 . S
H1244 C1254 0.950 . S
H1245 C1256 0.950 . S
H1246 C1258 0.950 . S
H1247 C1259 0.950 . S
C1248 H1240 0.950 . S
C1248 C1249 1.386 . S
C1248 C1250 1.391 . S
C1249 C1248 1.386 . S
C1249 C1253 1.393 . S
C1250 H1242 0.950 . S
C1250 C1248 1.391 . S
C1250 C1251 1.400 . S
C1251 C1250 1.400 . S
C1251 C1252 1.398 . S
C1251 C1257 1.491 . S
C1252 H1243 0.950 . S
C1252 C1251 1.398 . S
C1252 C1253 1.391 . S
C1253 H1241 0.950 . S
C1253 C1249 1.393 . S
C1253 C1252 1.391 . S
C1254 H1244 0.950 . S
C1254 C1255 1.386 . S
C1254 C1256 1.391 . S
C1255 C1254 1.386 . S
C1255 C1259 1.393 . S
C1256 H1245 0.950 . S
C1256 C1254 1.391 . S
C1256 C1257 1.400 . S
C1257 C1251 1.491 . S
C1257 C1256 1.400 . S
C1257 C1258 1.398 . S
C1258 H1246 0.950 . S
C1258 C1257 1.398 . S
C1258 C1259 1.391 . S
C1259 H1247 0.950 . S
C1259 C1255 1.393 . S
C1259 C1258 1.391 . S
H1260 C1268 0.954 . S
H1261 C1273 0.950 . S
H1262 C1270 0.960 . S
H1263 C1272 0.950 . S
H1264 C1274 0.950 . S
H1265 C1276 0.950 . S
H1266 C1278 0.950 . S
H1267 C1279 0.950 . S
C1268 H1260 0.954 . S
C1268 C1269 1.386 . S
C1268 C1270 1.391 . S
C1269 C1268 1.386 . S
C1269 C1273 1.393 . S
C1270 H1262 0.960 . S
C1270 C1268 1.391 . S
C1270 C1271 1.400 . S
C1271 C1270 1.400 . S
C1271 C1272 1.398 . S
C1271 C1277 1.491 1_455 S
C1272 H1263 0.950 . S
C1272 C1271 1.398 . S
C1272 C1273 1.391 . S
C1273 H1261 0.950 . S
C1273 C1269 1.393 . S
C1273 C1272 1.391 . S
C1274 H1264 0.950 . S
C1274 C1275 1.386 . S
C1274 C1276 1.391 . S
C1275 C1274 1.386 . S
C1275 C1279 1.393 . S
C1276 H1265 0.950 . S
C1276 C1274 1.391 . S
C1276 C1277 1.400 . S
C1277 C1271 1.491 1_655 S
C1277 C1276 1.400 . S
C1277 C1278 1.398 . S
C1278 H1266 0.950 . S
C1278 C1277 1.398 . S
C1278 C1279 1.391 . S
C1279 H1267 0.950 . S
C1279 C1275 1.393 . S
C1279 C1278 1.391 . S
H1280 C1288 0.950 . S
H1281 C1293 0.950 . S
H1282 C1290 0.950 . S
H1283 C1292 0.950 . S
H1284 C1294 0.950 . S
H1285 C1296 0.950 . S
H1286 C1298 0.950 . S
H1287 C1299 0.950 . S
C1288 H1280 0.950 . S
C1288 C1289 1.386 . S
C1288 C1290 1.391 . S
C1289 C1288 1.386 . S
C1289 C1293 1.393 . S
C1290 H1282 0.950 . S
C1290 C1288 1.391 . S
C1290 C1291 1.400 . S
C1291 C1290 1.400 . S
C1291 C1292 1.398 . S
C1291 C1297 1.491 1_554 S
C1292 H1283 0.950 . S
C1292 C1291 1.398 . S
C1292 C1293 1.391 . S
C1293 H1281 0.950 . S
C1293 C1289 1.393 . S
C1293 C1292 1.391 . S
C1294 H1284 0.950 . S
C1294 C1295 1.386 . S
C1294 C1296 1.391 . S
C1295 C1294 1.386 . S
C1295 C1299 1.393 . S
C1296 H1285 0.950 . S
C1296 C1294 1.391 . S
C1296 C1297 1.400 . S
C1297 C1291 1.491 1_556 S
C1297 C1296 1.400 . S
C1297 C1298 1.398 . S
C1298 H1286 0.950 . S
C1298 C1297 1.398 . S
C1298 C1299 1.391 . S
C1299 H1287 0.950 . S
C1299 C1295 1.393 . S
C1299 C1298 1.391 . S
H1300 C1308 0.950 . S
H1301 C1313 0.950 . S
H1302 C1310 0.950 . S
H1303 C1312 0.950 . S
H1304 C1314 0.950 . S
H1305 C1316 0.950 . S
H1306 C1318 0.950 . S
H1307 C1319 0.950 . S
C1308 H1300 0.950 . S
C1308 C1309 1.386 . S
C1308 C1310 1.391 . S
C1309 C1308 1.386 . S
C1309 C1313 1.393 . S
C1310 H1302 0.950 . S
C1310 C1308 1.391 . S
C1310 C1311 1.400 . S
C1311 C1310 1.400 . S
C1311 C1312 1.398 . S
C1311 C1317 1.491 . S
C1312 H1303 0.950 . S
C1312 C1311 1.398 . S
C1312 C1313 1.391 . S
C1313 H1301 0.950 . S
C1313 C1309 1.393 . S
C1313 C1312 1.391 . S
C1314 H1304 0.950 . S
C1314 C1315 1.386 . S
C1314 C1316 1.391 . S
C1315 C1314 1.386 . S
C1315 C1319 1.393 . S
C1316 H1305 0.950 . S
C1316 C1314 1.391 . S
C1316 C1317 1.400 . S
C1317 C1311 1.491 . S
C1317 C1316 1.400 . S
C1317 C1318 1.398 . S
C1318 H1306 0.950 . S
C1318 C1317 1.398 . S
C1318 C1319 1.391 . S
C1319 H1307 0.950 . S
C1319 C1315 1.393 . S
C1319 C1318 1.391 . S
H1320 C1328 0.950 . S
H1321 C1333 0.950 . S
H1322 C1330 0.950 . S
H1323 C1332 0.950 . S
H1324 C1334 0.950 . S
H1325 C1336 0.950 . S
H1326 C1338 0.950 . S
H1327 C1339 0.950 . S
C1328 H1320 0.950 . S
C1328 C1329 1.386 . S
C1328 C1330 1.391 . S
C1329 C1328 1.386 . S
C1329 C1333 1.393 . S
C1330 H1322 0.950 . S
C1330 C1328 1.391 . S
C1330 C1331 1.400 . S
C1331 C1330 1.400 . S
C1331 C1332 1.398 . S
C1331 C1337 1.491 . S
C1332 H1323 0.950 . S
C1332 C1331 1.398 . S
C1332 C1333 1.391 . S
C1333 H1321 0.950 . S
C1333 C1329 1.393 . S
C1333 C1332 1.391 . S
C1334 H1324 0.950 . S
C1334 C1335 1.386 . S
C1334 C1336 1.391 . S
C1335 C1334 1.386 . S
C1335 C1339 1.393 . S
C1336 H1325 0.950 . S
C1336 C1334 1.391 . S
C1336 C1337 1.400 . S
C1337 C1331 1.491 . S
C1337 C1336 1.400 . S
C1337 C1338 1.398 . S
C1338 H1326 0.950 . S
C1338 C1337 1.398 . S
C1338 C1339 1.391 . S
C1339 H1327 0.950 . S
C1339 C1335 1.393 . S
C1339 C1338 1.391 . S
H1340 C1348 0.950 . S
H1341 C1353 0.950 . S
H1342 C1350 0.950 . S
H1343 C1352 0.950 . S
H1344 C1354 0.950 . S
H1345 C1356 0.950 . S
H1346 C1358 0.950 . S
H1347 C1359 0.950 . S
C1348 H1340 0.950 . S
C1348 C1349 1.386 . S
C1348 C1350 1.391 . S
C1349 C1348 1.386 . S
C1349 C1353 1.393 . S
C1350 H1342 0.950 . S
C1350 C1348 1.391 . S
C1350 C1351 1.400 . S
C1351 C1350 1.400 . S
C1351 C1352 1.398 . S
C1351 C1357 1.491 . S
C1352 H1343 0.950 . S
C1352 C1351 1.398 . S
C1352 C1353 1.391 . S
C1353 H1341 0.950 . S
C1353 C1349 1.393 . S
C1353 C1352 1.391 . S
C1354 H1344 0.950 . S
C1354 C1355 1.386 . S
C1354 C1356 1.391 . S
C1355 C1354 1.386 . S
C1355 C1359 1.393 . S
C1356 H1345 0.950 . S
C1356 C1354 1.391 . S
C1356 C1357 1.400 . S
C1357 C1351 1.491 . S
C1357 C1356 1.400 . S
C1357 C1358 1.398 . S
C1358 H1346 0.950 . S
C1358 C1357 1.398 . S
C1358 C1359 1.391 . S
C1359 H1347 0.950 . S
C1359 C1355 1.393 . S
C1359 C1358 1.391 . S
H1360 C1368 0.950 . S
H1361 C1373 0.950 . S
H1362 C1370 0.950 . S
H1363 C1372 0.950 . S
H1364 C1374 0.950 . S
H1365 C1376 0.950 . S
H1366 C1378 0.950 . S
H1367 C1379 0.950 . S
C1368 H1360 0.950 . S
C1368 C1369 1.386 . S
C1368 C1370 1.391 1_554 S
C1369 C1368 1.386 . S
C1369 C1373 1.393 . S
C1370 H1362 0.950 . S
C1370 C1368 1.391 1_556 S
C1370 C1371 1.400 1_556 S
C1371 C1370 1.400 1_554 S
C1371 C1372 1.398 . S
C1371 C1377 1.491 1_554 S
C1372 H1363 0.950 . S
C1372 C1371 1.398 . S
C1372 C1373 1.391 . S
C1373 H1361 0.950 . S
C1373 C1369 1.393 . S
C1373 C1372 1.391 . S
C1374 H1364 0.950 . S
C1374 C1375 1.386 . S
C1374 C1376 1.391 1_556 S
C1375 C1374 1.386 . S
C1375 C1379 1.393 . S
C1376 H1365 0.950 . S
C1376 C1374 1.391 1_554 S
C1376 C1377 1.400 1_554 S
C1377 C1371 1.491 1_556 S
C1377 C1376 1.400 1_556 S
C1377 C1378 1.398 . S
C1378 H1366 0.950 . S
C1378 C1377 1.398 . S
C1378 C1379 1.391 . S
C1379 H1367 0.950 . S
C1379 C1375 1.393 . S
C1379 C1378 1.391 . S
H1380 C1388 0.950 . S
H1381 C1393 0.950 . S
H1382 C1390 0.950 . S
H1383 C1392 0.950 . S
H1384 C1394 0.950 . S
H1385 C1396 0.950 . S
H1386 C1398 0.950 . S
H1387 C1399 0.950 . S
C1388 H1380 0.950 . S
C1388 C1389 1.386 . S
C1388 C1390 1.391 . S
C1389 C1388 1.386 . S
C1389 C1393 1.393 . S
C1390 H1382 0.950 . S
C1390 C1388 1.391 . S
C1390 C1391 1.400 . S
C1391 C1390 1.400 . S
C1391 C1392 1.398 . S
C1391 C1397 1.491 . S
C1392 H1383 0.950 . S
C1392 C1391 1.398 . S
C1392 C1393 1.391 . S
C1393 H1381 0.950 . S
C1393 C1389 1.393 . S
C1393 C1392 1.391 . S
C1394 H1384 0.950 . S
C1394 C1395 1.386 . S
C1394 C1396 1.391 . S
C1395 C1394 1.386 . S
C1395 C1399 1.393 . S
C1396 H1385 0.950 . S
C1396 C1394 1.391 . S
C1396 C1397 1.400 . S
C1397 C1391 1.491 . S
C1397 C1396 1.400 . S
C1397 C1398 1.398 . S
C1398 H1386 0.950 . S
C1398 C1397 1.398 . S
C1398 C1399 1.391 . S
C1399 H1387 0.950 . S
C1399 C1395 1.393 . S
C1399 C1398 1.391 . S
H1400 C1408 0.950 . S
H1401 C1413 0.950 . S
H1402 C1410 0.950 . S
H1403 C1412 0.950 . S
H1404 C1414 0.950 . S
H1405 C1416 0.950 . S
H1406 C1418 0.950 . S
H1407 C1419 0.950 . S
C1408 H1400 0.950 . S
C1408 C1409 1.386 . S
C1408 C1410 1.391 . S
C1409 C1408 1.386 . S
C1409 C1413 1.393 . S
C1410 H1402 0.950 . S
C1410 C1408 1.391 . S
C1410 C1411 1.400 . S
C1411 C1410 1.400 . S
C1411 C1412 1.398 . S
C1411 C1417 1.491 . S
C1412 H1403 0.950 . S
C1412 C1411 1.398 . S
C1412 C1413 1.391 . S
C1413 H1401 0.950 . S
C1413 C1409 1.393 . S
C1413 C1412 1.391 . S
C1414 H1404 0.950 . S
C1414 C1415 1.386 . S
C1414 C1416 1.391 . S
C1415 C1414 1.386 . S
C1415 C1419 1.393 . S
C1416 H1405 0.950 . S
C1416 C1414 1.391 . S
C1416 C1417 1.400 . S
C1417 C1411 1.491 . S
C1417 C1416 1.400 . S
C1417 C1418 1.398 . S
C1418 H1406 0.950 . S
C1418 C1417 1.398 . S
C1418 C1419 1.391 . S
C1419 H1407 0.950 . S
C1419 C1415 1.393 . S
C1419 C1418 1.391 . S
H1420 C1428 0.950 . S
H1421 C1433 0.950 . S
H1422 C1430 0.950 . S
H1423 C1432 0.950 . S
H1424 C1434 0.950 . S
H1425 C1436 0.950 . S
H1426 C1438 0.950 . S
H1427 C1439 0.950 . S
C1428 H1420 0.950 . S
C1428 C1429 1.386 . S
C1428 C1430 1.391 . S
C1429 C1428 1.386 . S
C1429 C1433 1.393 . S
C1430 H1422 0.950 . S
C1430 C1428 1.391 . S
C1430 C1431 1.400 . S
C1431 C1430 1.400 . S
C1431 C1432 1.398 . S
C1431 C1437 1.491 . S
C1432 H1423 0.950 . S
C1432 C1431 1.398 . S
C1432 C1433 1.391 . S
C1433 H1421 0.950 . S
C1433 C1429 1.393 . S
C1433 C1432 1.391 . S
C1434 H1424 0.950 . S
C1434 C1435 1.386 . S
C1434 C1436 1.391 . S
C1435 C1434 1.386 . S
C1435 C1439 1.393 . S
C1436 H1425 0.950 . S
C1436 C1434 1.391 . S
C1436 C1437 1.400 . S
C1437 C1431 1.491 . S
C1437 C1436 1.400 . S
C1437 C1438 1.398 . S
C1438 H1426 0.950 . S
C1438 C1437 1.398 . S
C1438 C1439 1.391 . S
C1439 H1427 0.950 . S
C1439 C1435 1.393 . S
C1439 C1438 1.391 . S
H1440 C1448 0.950 . S
H1441 C1453 0.950 . S
H1442 C1450 0.950 . S
H1443 C1452 0.950 . S
H1444 C1454 0.950 . S
H1445 C1456 0.950 . S
H1446 C1458 0.950 . S
H1447 C1459 0.950 . S
C1448 H1440 0.950 . S
C1448 C1449 1.386 . S
C1448 C1450 1.391 . S
C1449 C1448 1.386 . S
C1449 C1453 1.393 . S
C1450 H1442 0.950 . S
C1450 C1448 1.391 . S
C1450 C1451 1.400 . S
C1451 C1450 1.400 . S
C1451 C1452 1.398 . S
C1451 C1457 1.491 1_565 S
C1452 H1443 0.950 . S
C1452 C1451 1.398 . S
C1452 C1453 1.391 . S
C1453 H1441 0.950 . S
C1453 C1449 1.393 . S
C1453 C1452 1.391 . S
C1454 H1444 0.950 . S
C1454 C1455 1.386 . S
C1454 C1456 1.391 . S
C1455 C1454 1.386 . S
C1455 C1459 1.393 . S
C1456 H1445 0.950 . S
C1456 C1454 1.391 . S
C1456 C1457 1.400 . S
C1457 C1451 1.491 1_545 S
C1457 C1456 1.400 . S
C1457 C1458 1.398 . S
C1458 H1446 0.950 . S
C1458 C1457 1.398 . S
C1458 C1459 1.391 . S
C1459 H1447 0.950 . S
C1459 C1455 1.393 . S
C1459 C1458 1.391 . S
H1460 C1468 0.950 . S
H1461 C1473 0.950 . S
H1462 C1470 0.950 . S
H1463 C1472 0.950 . S
H1464 C1474 0.950 . S
H1465 C1476 0.950 . S
H1466 C1478 0.950 . S
H1467 C1479 0.950 . S
C1468 H1460 0.950 . S
C1468 C1469 1.386 . S
C1468 C1470 1.391 . S
C1469 C1468 1.386 . S
C1469 C1473 1.393 . S
C1470 H1462 0.950 . S
C1470 C1468 1.391 . S
C1470 C1471 1.400 . S
C1471 C1470 1.400 . S
C1471 C1472 1.398 . S
C1471 C1477 1.491 . S
C1472 H1463 0.950 . S
C1472 C1471 1.398 . S
C1472 C1473 1.391 . S
C1473 H1461 0.950 . S
C1473 C1469 1.393 . S
C1473 C1472 1.391 . S
C1474 H1464 0.950 . S
C1474 C1475 1.386 . S
C1474 C1476 1.391 . S
C1475 C1474 1.386 . S
C1475 C1479 1.393 . S
C1476 H1465 0.950 . S
C1476 C1474 1.391 . S
C1476 C1477 1.400 . S
C1477 C1471 1.491 . S
C1477 C1476 1.400 . S
C1477 C1478 1.398 . S
C1478 H1466 0.950 . S
C1478 C1477 1.398 . S
C1478 C1479 1.391 . S
C1479 H1467 0.950 . S
C1479 C1475 1.393 . S
C1479 C1478 1.391 . S
H1480 C1488 0.945 1_556 S
H1481 C1493 0.950 . S
H1482 C1490 0.950 . S
H1483 C1492 0.950 1_545 S
H1484 C1494 0.945 1_554 S
H1485 C1496 0.950 . S
H1486 C1498 0.950 1_565 S
H1487 C1499 0.950 . S
C1488 H1480 0.945 1_554 S
C1488 C1489 1.386 . S
C1488 C1490 1.391 1_554 S
C1489 C1488 1.386 . S
C1489 C1493 1.393 . S
C1490 H1482 0.950 . S
C1490 C1488 1.391 1_556 S
C1490 C1491 1.400 1_556 S
C1491 C1490 1.400 1_554 S
C1491 C1492 1.398 . S
C1491 C1497 1.491 1_564 S
C1492 H1483 0.950 1_565 S
C1492 C1491 1.398 . S
C1492 C1493 1.391 . S
C1493 H1481 0.950 . S
C1493 C1489 1.393 . S
C1493 C1492 1.391 . S
C1494 H1484 0.945 1_556 S
C1494 C1495 1.386 . S
C1494 C1496 1.391 1_556 S
C1495 C1494 1.386 . S
C1495 C1499 1.393 . S
C1496 H1485 0.950 . S
C1496 C1494 1.391 1_554 S
C1496 C1497 1.400 1_554 S
C1497 C1491 1.491 1_546 S
C1497 C1496 1.400 1_556 S
C1497 C1498 1.398 . S
C1498 H1486 0.950 1_545 S
C1498 C1497 1.398 . S
C1498 C1499 1.391 . S
C1499 H1487 0.950 . S
C1499 C1495 1.393 . S
C1499 C1498 1.391 . S
H1500 C1508 0.950 . S
H1501 C1513 0.950 . S
H1502 C1510 0.950 . S
H1503 C1512 0.950 . S
H1504 C1514 0.950 . S
H1505 C1516 0.950 . S
H1506 C1518 0.950 . S
H1507 C1519 0.950 . S
C1508 H1500 0.950 . S
C1508 C1509 1.386 . S
C1508 C1510 1.391 . S
C1509 C1508 1.386 . S
C1509 C1513 1.393 . S
C1510 H1502 0.950 . S
C1510 C1508 1.391 . S
C1510 C1511 1.400 . S
C1511 C1510 1.400 . S
C1511 C1512 1.398 . S
C1511 C1517 1.491 . S
C1512 H1503 0.950 . S
C1512 C1511 1.398 . S
C1512 C1513 1.391 . S
C1513 H1501 0.950 . S
C1513 C1509 1.393 . S
C1513 C1512 1.391 . S
C1514 H1504 0.950 . S
C1514 C1515 1.386 . S
C1514 C1516 1.391 . S
C1515 C1514 1.386 . S
C1515 C1519 1.393 . S
C1516 H1505 0.950 . S
C1516 C1514 1.391 . S
C1516 C1517 1.400 . S
C1517 C1511 1.491 . S
C1517 C1516 1.400 . S
C1517 C1518 1.398 . S
C1518 H1506 0.950 . S
C1518 C1517 1.398 . S
C1518 C1519 1.391 . S
C1519 H1507 0.950 . S
C1519 C1515 1.393 . S
C1519 C1518 1.391 . S
H1520 C1528 0.950 . S
H1521 C1533 0.950 . S
H1522 C1530 0.950 . S
H1523 C1532 0.950 . S
H1524 C1534 0.950 . S
H1525 C1536 0.950 . S
H1526 C1538 0.950 . S
H1527 C1539 0.950 . S
C1528 H1520 0.950 . S
C1528 C1529 1.386 . S
C1528 C1530 1.391 . S
C1529 C1528 1.386 . S
C1529 C1533 1.393 . S
C1530 H1522 0.950 . S
C1530 C1528 1.391 . S
C1530 C1531 1.400 . S
C1531 C1530 1.400 . S
C1531 C1532 1.398 . S
C1531 C1537 1.491 1_565 S
C1532 H1523 0.950 . S
C1532 C1531 1.398 . S
C1532 C1533 1.391 . S
C1533 H1521 0.950 . S
C1533 C1529 1.393 . S
C1533 C1532 1.391 . S
C1534 H1524 0.950 . S
C1534 C1535 1.386 . S
C1534 C1536 1.391 . S
C1535 C1534 1.386 . S
C1535 C1539 1.393 . S
C1536 H1525 0.950 . S
C1536 C1534 1.391 . S
C1536 C1537 1.400 . S
C1537 C1531 1.491 1_545 S
C1537 C1536 1.400 . S
C1537 C1538 1.398 . S
C1538 H1526 0.950 . S
C1538 C1537 1.398 . S
C1538 C1539 1.391 . S
C1539 H1527 0.950 . S
C1539 C1535 1.393 . S
C1539 C1538 1.391 . S
H1540 C1548 0.950 . S
H1541 C1553 0.950 . S
H1542 C1550 0.950 . S
H1543 C1552 0.950 . S
H1544 C1554 0.950 . S
H1545 C1556 0.950 . S
H1546 C1558 0.950 . S
H1547 C1559 0.950 . S
C1548 H1540 0.950 . S
C1548 C1549 1.386 . S
C1548 C1550 1.391 . S
C1549 C1548 1.386 . S
C1549 C1553 1.393 . S
C1550 H1542 0.950 . S
C1550 C1548 1.391 . S
C1550 C1551 1.400 . S
C1551 C1550 1.400 . S
C1551 C1552 1.398 . S
C1551 C1557 1.491 . S
C1552 H1543 0.950 . S
C1552 C1551 1.398 . S
C1552 C1553 1.391 . S
C1553 H1541 0.950 . S
C1553 C1549 1.393 . S
C1553 C1552 1.391 . S
C1554 H1544 0.950 . S
C1554 C1555 1.386 . S
C1554 C1556 1.391 . S
C1555 C1554 1.386 . S
C1555 C1559 1.393 . S
C1556 H1545 0.950 . S
C1556 C1554 1.391 . S
C1556 C1557 1.400 . S
C1557 C1551 1.491 . S
C1557 C1556 1.400 . S
C1557 C1558 1.398 . S
C1558 H1546 0.950 . S
C1558 C1557 1.398 . S
C1558 C1559 1.391 . S
C1559 H1547 0.950 . S
C1559 C1555 1.393 . S
C1559 C1558 1.391 . S
H1560 C1568 0.950 . S
H1561 C1573 0.950 . S
H1562 C1570 0.950 . S
H1563 C1572 0.950 . S
H1564 C1574 0.950 . S
H1565 C1576 0.950 . S
H1566 C1578 0.950 . S
H1567 C1579 0.950 . S
C1568 H1560 0.950 . S
C1568 C1569 1.386 . S
C1568 C1570 1.391 . S
C1569 C1568 1.386 . S
C1569 C1573 1.393 . S
C1570 H1562 0.950 . S
C1570 C1568 1.391 . S
C1570 C1571 1.400 . S
C1571 C1570 1.400 . S
C1571 C1572 1.398 . S
C1571 C1577 1.491 1_546 S
C1572 H1563 0.950 . S
C1572 C1571 1.398 . S
C1572 C1573 1.391 . S
C1573 H1561 0.950 . S
C1573 C1569 1.393 . S
C1573 C1572 1.391 . S
C1574 H1564 0.950 . S
C1574 C1575 1.386 . S
C1574 C1576 1.391 . S
C1575 C1574 1.386 . S
C1575 C1579 1.393 . S
C1576 H1565 0.950 . S
C1576 C1574 1.391 . S
C1576 C1577 1.400 . S
C1577 C1571 1.491 1_564 S
C1577 C1576 1.400 . S
C1577 C1578 1.398 . S
C1578 H1566 0.950 . S
C1578 C1577 1.398 . S
C1578 C1579 1.391 . S
C1579 H1567 0.950 . S
C1579 C1575 1.393 . S
C1579 C1578 1.391 . S
H1580 C1588 0.950 . S
H1581 C1593 0.950 . S
H1582 C1590 0.950 . S
H1583 C1592 0.950 . S
H1584 C1594 0.950 . S
H1585 C1596 0.950 . S
H1586 C1598 0.950 . S
H1587 C1599 0.950 . S
C1588 H1580 0.950 . S
C1588 C1589 1.386 . S
C1588 C1590 1.391 . S
C1589 C1588 1.386 . S
C1589 C1593 1.393 . S
C1590 H1582 0.950 . S
C1590 C1588 1.391 . S
C1590 C1591 1.400 . S
C1591 C1590 1.400 . S
C1591 C1592 1.398 . S
C1591 C1597 1.491 . S
C1592 H1583 0.950 . S
C1592 C1591 1.398 . S
C1592 C1593 1.391 . S
C1593 H1581 0.950 . S
C1593 C1589 1.393 . S
C1593 C1592 1.391 . S
C1594 H1584 0.950 . S
C1594 C1595 1.386 . S
C1594 C1596 1.391 . S
C1595 C1594 1.386 . S
C1595 C1599 1.393 . S
C1596 H1585 0.950 . S
C1596 C1594 1.391 . S
C1596 C1597 1.400 . S
C1597 C1591 1.491 . S
C1597 C1596 1.400 . S
C1597 C1598 1.398 . S
C1598 H1586 0.950 . S
C1598 C1597 1.398 . S
C1598 C1599 1.391 . S
C1599 H1587 0.950 . S
C1599 C1595 1.393 . S
C1599 C1598 1.391 . S
C649 C6 1.877 . S
C655 C15 1.877 . S
C669 C55 1.857 1_556 S
C675 C46 1.857 . S
C689 C95 1.524 . S
C695 C86 1.524 . S
C709 C126 1.515 . S
C715 C135 1.515 . S
C729 C166 1.871 . S
C735 C175 1.871 . S
C749 C215 1.524 . S
C755 C206 1.524 . S
C769 C255 1.509 . S
C775 C246 1.509 . S
C789 C295 1.866 1_554 S
C795 C286 1.866 . S
C809 C335 1.857 . S
C815 C326 1.857 . S
C829 C375 1.866 . S
C835 C366 1.866 1_554 S
C849 C415 1.524 . S
C855 C406 1.524 . S
C869 C455 1.524 . S
C875 C446 1.524 . S
C889 C495 1.872 . S
C895 C486 1.872 . S
C909 C535 1.517 . S
C915 C526 1.517 . S
C929 C566 1.510 . S
C935 C575 1.510 . S
C949 C606 1.875 1_556 S
C955 C615 1.875 . S
C969 C9 1.641 . S
C975 C459 1.717 . S
C989 C50 1.683 . S
C995 C619 1.690 . S
C1009 C90 1.718 . S
C1015 C378 1.639 . S
C1029 C129 1.734 . S
C1035 C538 1.749 . S
C1049 C169 1.625 . S
C1055 C539 1.719 . S
C1069 C458 1.732 . S
C1075 C209 1.751 . S
C1089 C250 1.712 . S
C1095 C618 1.650 . S
C1109 C290 1.691 . S
C1115 C379 1.681 . S
C1129 C130 1.704 . S
C1135 C338 1.645 . S
C1149 C49 1.648 . S
C1155 C419 1.703 . S
C1169 C498 1.631 . S
C1175 C210 1.712 . S
C1189 C289 1.629 . S
C1195 C579 1.714 . S
C1209 C339 1.686 . S
C1215 C170 1.687 . S
C1229 C249 1.754 . S
C1235 C418 1.729 . S
C1249 C89 1.742 . S
C1255 C578 1.740 . S
C1269 C10 1.691 . S
C1275 C499 1.681 . S
C1289 C18 1.311 . S
C1295 C178 1.310 . S
C1309 C59 1.724 . S
C1315 C218 1.723 . S
C1329 C99 2.084 . S
C1335 C259 2.081 . S
C1349 C138 1.732 . S
C1355 C299 1.734 . S
C1369 C489 1.310 . S
C1375 C329 1.319 . S
C1389 C529 1.734 . S
C1395 C370 1.733 . S
C1409 C410 2.080 . S
C1415 C570 2.085 . S
C1429 C610 1.734 . S
C1435 C449 1.734 . S
C1449 C58 1.317 . S
C1455 C298 1.309 . S
C1469 C179 1.734 . S
C1475 C98 1.734 . S
C1489 C219 2.082 . S
C1495 C139 2.088 . S
C1509 C19 1.735 . S
C1515 C258 1.734 . S
C1529 C609 1.312 . S
C1535 C369 1.310 . S
C1549 C490 1.725 . S
C1555 C409 1.723 . S
C1569 C530 2.082 . S
C1575 C450 2.082 . S
C1589 C569 1.731 . S
C1595 C330 1.731 . S
