# Generated by pormake.
# Topology wns, (7)-cn, num edge types: 1
# Building blocks:
#     Node 0, Type 0, BuildingBlock: HICVOG_clean_sbu_0, # of connection points: 7
#     Node 1, Type 0, BuildingBlock: HICVOG_clean_sbu_0, # of connection points: 7
#     Node 2, Type 0, BuildingBlock: HICVOG_clean_sbu_0, # of connection points: 7
#     Node 3, Type 0, BuildingBlock: HICVOG_clean_sbu_0, # of connection points: 7
#     Node 4, Type 0, BuildingBlock: HICVOG_clean_sbu_0, # of connection points: 7
#     Node 5, Type 0, BuildingBlock: HICVOG_clean_sbu_0, # of connection points: 7
#     Node 6, Type 0, BuildingBlock: HICVOG_clean_sbu_0, # of connection points: 7
#     Node 7, Type 0, BuildingBlock: HICVOG_clean_sbu_0, # of connection points: 7
#     Node 8, Type 0, BuildingBlock: HICVOG_clean_sbu_0, # of connection points: 7
#     Node 9, Type 0, BuildingBlock: HICVOG_clean_sbu_0, # of connection points: 7
#     Node 10, Type 0, BuildingBlock: HICVOG_clean_sbu_0, # of connection points: 7
#     Node 11, Type 0, BuildingBlock: HICVOG_clean_sbu_0, # of connection points: 7
#     Edge 12, Type (0, 0), BuildingBlock: OJICUG_clean_linker_0, # of connection points: 2
#     Edge 13, Type (0, 0), BuildingBlock: OJICUG_clean_linker_0, # of connection points: 2
#     Edge 14, Type (0, 0), BuildingBlock: OJICUG_clean_linker_0, # of connection points: 2
#     Edge 15, Type (0, 0), BuildingBlock: OJICUG_clean_linker_0, # of connection points: 2
#     Edge 16, Type (0, 0), BuildingBlock: OJICUG_clean_linker_0, # of connection points: 2
#     Edge 17, Type (0, 0), BuildingBlock: OJICUG_clean_linker_0, # of connection points: 2
#     Edge 18, Type (0, 0), BuildingBlock: OJICUG_clean_linker_0, # of connection points: 2
#     Edge 19, Type (0, 0), BuildingBlock: OJICUG_clean_linker_0, # of connection points: 2
#     Edge 20, Type (0, 0), BuildingBlock: OJICUG_clean_linker_0, # of connection points: 2
#     Edge 21, Type (0, 0), BuildingBlock: OJICUG_clean_linker_0, # of connection points: 2
#     Edge 22, Type (0, 0), BuildingBlock: OJICUG_clean_linker_0, # of connection points: 2
#     Edge 23, Type (0, 0), BuildingBlock: OJICUG_clean_linker_0, # of connection points: 2
#     Edge 24, Type (0, 0), BuildingBlock: OJICUG_clean_linker_0, # of connection points: 2
#     Edge 25, Type (0, 0), BuildingBlock: OJICUG_clean_linker_0, # of connection points: 2
#     Edge 26, Type (0, 0), BuildingBlock: OJICUG_clean_linker_0, # of connection points: 2
#     Edge 27, Type (0, 0), BuildingBlock: OJICUG_clean_linker_0, # of connection points: 2
#     Edge 28, Type (0, 0), BuildingBlock: OJICUG_clean_linker_0, # of connection points: 2
#     Edge 29, Type (0, 0), BuildingBlock: OJICUG_clean_linker_0, # of connection points: 2
#     Edge 30, Type (0, 0), BuildingBlock: OJICUG_clean_linker_0, # of connection points: 2
#     Edge 31, Type (0, 0), BuildingBlock: OJICUG_clean_linker_0, # of connection points: 2
#     Edge 32, Type (0, 0), BuildingBlock: OJICUG_clean_linker_0, # of connection points: 2
#     Edge 33, Type (0, 0), BuildingBlock: OJICUG_clean_linker_0, # of connection points: 2
#     Edge 34, Type (0, 0), BuildingBlock: OJICUG_clean_linker_0, # of connection points: 2
#     Edge 35, Type (0, 0), BuildingBlock: OJICUG_clean_linker_0, # of connection points: 2
#     Edge 36, Type (0, 0), BuildingBlock: OJICUG_clean_linker_0, # of connection points: 2
#     Edge 37, Type (0, 0), BuildingBlock: OJICUG_clean_linker_0, # of connection points: 2
#     Edge 38, Type (0, 0), BuildingBlock: OJICUG_clean_linker_0, # of connection points: 2
#     Edge 39, Type (0, 0), BuildingBlock: OJICUG_clean_linker_0, # of connection points: 2
#     Edge 40, Type (0, 0), BuildingBlock: OJICUG_clean_linker_0, # of connection points: 2
#     Edge 41, Type (0, 0), BuildingBlock: OJICUG_clean_linker_0, # of connection points: 2
#     Edge 42, Type (0, 0), BuildingBlock: OJICUG_clean_linker_0, # of connection points: 2
#     Edge 43, Type (0, 0), BuildingBlock: OJICUG_clean_linker_0, # of connection points: 2
#     Edge 44, Type (0, 0), BuildingBlock: OJICUG_clean_linker_0, # of connection points: 2
#     Edge 45, Type (0, 0), BuildingBlock: OJICUG_clean_linker_0, # of connection points: 2
#     Edge 46, Type (0, 0), BuildingBlock: OJICUG_clean_linker_0, # of connection points: 2
#     Edge 47, Type (0, 0), BuildingBlock: OJICUG_clean_linker_0, # of connection points: 2
#     Edge 48, Type (0, 0), BuildingBlock: OJICUG_clean_linker_0, # of connection points: 2
#     Edge 49, Type (0, 0), BuildingBlock: OJICUG_clean_linker_0, # of connection points: 2
#     Edge 50, Type (0, 0), BuildingBlock: OJICUG_clean_linker_0, # of connection points: 2
#     Edge 51, Type (0, 0), BuildingBlock: OJICUG_clean_linker_0, # of connection points: 2
#     Edge 52, Type (0, 0), BuildingBlock: OJICUG_clean_linker_0, # of connection points: 2
#     Edge 53, Type (0, 0), BuildingBlock: OJICUG_clean_linker_0, # of connection points: 2
# Relax obj value: 0.159
# Max RMSD: 0.215
# Mean RMSD: 0.215
data_MOF--net-wns--node1-HICVOG_clean_sbu_0--edge1-OJICUG_clean_linker_0
_symmetry_space_group_name_H-M    P1
_symmetry_Int_Tables_number       1
_symmetry_cell_setting            triclinic
loop_
_symmetry_equiv_pos_as_xyz
'x, y, z'
_cell_length_a     31.378995
_cell_length_b     31.317633
_cell_length_c     27.381287
_cell_angle_alpha  90.456582
_cell_angle_beta   90.082325
_cell_angle_gamma 119.82564
loop_
_atom_site_label
_atom_site_type_symbol
_atom_site_fract_x
_atom_site_fract_y
_atom_site_fract_z
_atom_type_partial_charge
Zn0 Zn 0.46935 0.3087 0.18864 0.0
C1 C 0.38434 0.30809 0.07832 0.0
N2 N 0.37614 0.33632 0.10997 0.0
C3 C 0.39925 0.33464 0.15055 0.0
N4 N 0.42118 0.30737 0.14352 0.0
N5 N 0.41018 0.28881 0.09872 0.0
C6 C 0.43836 0.20997 0.98091 0.0
O7 O 0.4564 0.18823 0.00803 0.0
O8 O 0.43847 0.28196 0.25286 0.0
Zn9 Zn 0.41461 0.23224 0.0755 0.0
N10 N 0.51699 0.3771 0.2021 0.0
C11 C 0.53445 0.45064 0.24471 0.0
C12 C 0.50336 0.40083 0.23488 0.0
C13 C 0.56199 0.40065 0.18063 0.0
N14 N 0.57886 0.47443 0.22268 0.0
C15 C 0.59393 0.45075 0.19129 0.0
O16 O 0.47181 0.22637 0.1027 0.0
C17 C 0.50451 0.24356 0.13612 0.0
O18 O 0.50635 0.27437 0.16776 0.0
H19 H 0.46858 0.38113 0.25338 0.0
H20 H 0.57254 0.38077 0.15544 0.0
C21 C 0.34356 0.13023 0.06777 0.0
C22 C 0.29861 0.08708 0.07567 0.0
C23 C 0.27812 0.12993 0.13427 0.0
C24 C 0.32281 0.17286 0.12598 0.0
N25 N 0.35439 0.17234 0.09237 0.0
N26 N 0.26667 0.08824 0.10847 0.0
H27 H 0.36882 0.13079 0.04071 0.0
C28 C 0.42877 0.24093 0.27087 0.0
O29 O 0.4361 0.20984 0.24472 0.0
O30 O 0.41951 0.23316 0.00166 0.0
H31 H 0.33173 0.20652 0.14536 0.0
H32 H 0.52363 0.47013 0.27008 0.0
H33 H 0.25234 0.13001 0.16041 0.0
Zn34 Zn 0.76477 0.17273 0.18582 0.0
C35 C 0.77194 0.08294 0.08142 0.0
N36 N 0.74635 0.04826 0.11464 0.0
C37 C 0.74434 0.07457 0.1525 0.0
N38 N 0.76762 0.12336 0.14299 0.0
N39 N 0.78588 0.12873 0.09829 0.0
C40 C 0.80823 0.20938 0.97753 0.0
O41 O 0.7822 0.22171 0.0058 0.0
O42 O 0.79631 0.17818 0.25234 0.0
Zn43 Zn 0.83764 0.18919 0.07034 0.0
N44 N 0.69584 0.1515 0.19763 0.0
C45 C 0.6209 0.09506 0.23617 0.0
C46 C 0.67084 0.11322 0.22846 0.0
C47 C 0.6733 0.1743 0.17622 0.0
N48 N 0.5982 0.11709 0.21416 0.0
C49 C 0.62307 0.15673 0.18476 0.0
O50 O 0.84046 0.25127 0.09465 0.0
C51 C 0.8239 0.26883 0.12659 0.0
O52 O 0.79515 0.24211 0.15998 0.0
H53 H 0.6896 0.09709 0.24716 0.0
H54 H 0.69408 0.20545 0.15266 0.0
C55 C 0.94045 0.23103 0.06015 0.0
C56 C 0.98678 0.23474 0.06514 0.0
C57 C 0.95188 0.16651 0.11851 0.0
C58 C 0.90585 0.16283 0.11314 0.0
N59 N 0.90101 0.1949 0.08367 0.0
N60 N 0.99109 0.20186 0.09395 0.0
H61 H 0.93514 0.25531 0.03612 0.0
C62 C 0.83429 0.21763 0.26648 0.0
O63 O 0.85609 0.25436 0.23598 0.0
O64 O 0.83238 0.19108 0.99682 0.0
H65 H 0.87419 0.13421 0.13163 0.0
H66 H 0.60044 0.06407 0.25999 0.0
H67 H 0.95622 0.14092 0.1414 0.0
Zn68 Zn 0.89982 0.60193 0.18383 0.0
C69 C 0.97427 0.7247 0.10253 0.0
N70 N 1.00994 0.73713 0.13576 0.0
C71 C 0.98895 0.70146 0.16916 0.0
N72 N 0.94181 0.66781 0.15636 0.0
N73 N 0.93264 0.68353 0.11475 0.0
C74 C 0.82505 0.62975 0.98948 0.0
O75 O 0.78578 0.60598 0.01663 0.0
O76 O 0.89627 0.60521 0.25802 0.0
Zn77 Zn 0.86962 0.66765 0.08471 0.0
N78 N 0.92551 0.55946 0.16124 0.0
C79 C 0.99114 0.55404 0.12367 0.0
C80 C 0.97201 0.58199 0.14321 0.0
C81 C 0.89688 0.5094 0.15952 0.0
N82 N 0.96265 0.50446 0.12162 0.0
C83 C 0.9158 0.48089 0.13872 0.0
O84 O 0.81033 0.60952 0.11253 0.0
C85 C 0.79704 0.57317 0.1407 0.0
O86 O 0.82791 0.56763 0.16589 0.0
H87 H 0.99421 0.62149 0.14327 0.0
H88 H 0.85948 0.49239 0.17254 0.0
C89 C 0.82168 0.72234 0.06958 0.0
C90 C 0.81248 0.7618 0.07311 0.0
C91 C 0.87902 0.80148 0.12894 0.0
C92 C 0.88778 0.7619 0.12534 0.0
N93 N 0.85923 0.72334 0.09517 0.0
N94 N 0.84198 0.80082 0.10243 0.0
H95 H 0.80006 0.69154 0.04546 0.0
C96 C 0.87619 0.62774 0.27767 0.0
O97 O 0.85952 0.65001 0.24947 0.0
O98 O 0.86645 0.65695 0.01034 0.0
H99 H 0.91726 0.76223 0.1461 0.0
H100 H 1.02813 0.57163 0.10948 0.0
H101 H 0.90179 0.83268 0.15234 0.0
Zn102 Zn 0.32203 0.45059 0.31881 0.0
C103 C 0.27474 0.32623 0.39704 0.0
N104 N 0.29826 0.31481 0.3632 0.0
C105 C 0.3123 0.35106 0.33055 0.0
N106 N 0.29831 0.38416 0.34436 0.0
N107 N 0.27345 0.36748 0.38572 0.0
C108 C 0.21023 0.41318 0.50837 0.0
O109 O 0.18873 0.43185 0.48175 0.0
O110 O 0.31645 0.44889 0.24494 0.0
Zn111 Zn 0.22359 0.38109 0.413 0.0
N112 N 0.3897 0.4925 0.34202 0.0
C113 C 0.45986 0.4966 0.38036 0.0
C114 C 0.4129 0.46929 0.36079 0.0
C115 C 0.4119 0.54268 0.34274 0.0
N116 N 0.4817 0.54629 0.38148 0.0
C117 C 0.45929 0.57057 0.36346 0.0
O118 O 0.22011 0.43913 0.38495 0.0
C119 C 0.24515 0.47706 0.35909 0.0
O120 O 0.28351 0.48399 0.33685 0.0
H121 H 0.39512 0.42973 0.36115 0.0
H122 H 0.39225 0.56031 0.32887 0.0
C123 C 0.12169 0.31523 0.42948 0.0
C124 C 0.07623 0.27187 0.42436 0.0
C125 C 0.10901 0.24603 0.36023 0.0
C126 C 0.15425 0.28933 0.36552 0.0
N127 N 0.15995 0.32279 0.40062 0.0
N128 N 0.07119 0.23793 0.39014 0.0
H129 H 0.127 0.34191 0.45748 0.0
C130 C 0.27409 0.42726 0.22504 0.0
O131 O 0.2351 0.40537 0.25294 0.0
O132 O 0.22993 0.39104 0.48704 0.0
H133 H 0.18468 0.29578 0.34231 0.0
H134 H 0.47864 0.47848 0.3952 0.0
H135 H 0.10421 0.2188 0.33295 0.0
Zn136 Zn 0.62054 0.88043 0.31624 0.0
C137 C 0.74084 0.95957 0.40205 0.0
N138 N 0.75394 0.99429 0.36816 0.0
C139 C 0.7194 0.97209 0.33329 0.0
N140 N 0.68551 0.92513 0.34597 0.0
N141 N 0.70022 0.91752 0.38896 0.0
C142 C 0.64177 0.84776 0.5138 0.0
O143 O 0.60449 0.84101 0.48636 0.0
O144 O 0.62754 0.86992 0.24378 0.0
Zn145 Zn 0.68485 0.85594 0.41982 0.0
N146 N 0.57757 0.90785 0.33068 0.0
C147 C 0.56962 0.97566 0.35923 0.0
C148 C 0.59862 0.95642 0.34297 0.0
C149 C 0.52809 0.87741 0.33523 0.0
N150 N 0.5207 0.94529 0.3645 0.0
C151 C 0.49878 0.89645 0.35332 0.0
O152 O 0.62194 0.7969 0.40009 0.0
C153 C 0.58552 0.78166 0.37128 0.0
O154 O 0.58258 0.81006 0.34036 0.0
H155 H 0.63779 0.98011 0.34174 0.0
H156 H 0.51226 0.83853 0.32727 0.0
C157 C 0.75408 0.82501 0.43959 0.0
C158 C 0.78663 0.80798 0.42825 0.0
C159 C 0.78233 0.82483 0.34478 0.0
C160 C 0.74947 0.84134 0.3562 0.0
N161 N 0.73571 0.84065 0.40336 0.0
N162 N 0.79964 0.80782 0.38091 0.0
H163 H 0.74167 0.82368 0.47669 0.0
C164 C 0.63545 0.83532 0.23088 0.0
O165 O 0.63983 0.80806 0.26452 0.0
O166 O 0.68204 0.858 0.49344 0.0
H167 H 0.73415 0.85347 0.32769 0.0
H168 H 0.58604 1.01423 0.36893 0.0
H169 H 0.79318 0.82457 0.30735 0.0
Zn170 Zn 0.19402 0.74978 0.31108 0.0
C171 C 0.10451 0.741 0.42083 0.0
N172 N 0.06955 0.71409 0.3875 0.0
C173 C 0.0958 0.71933 0.34711 0.0
N174 N 0.14453 0.74746 0.35564 0.0
N175 N 0.1501 0.76257 0.40173 0.0
C176 C 0.19866 0.78459 0.53498 0.0
O177 O 0.1805 0.7389 0.51971 0.0
O178 O 0.1993 0.78739 0.24927 0.0
Zn179 Zn 0.21054 0.81539 0.42992 0.0
N180 N 0.17279 0.68216 0.29162 0.0
C181 C 0.11961 0.61236 0.24285 0.0
C182 C 0.1385 0.66173 0.25552 0.0
C183 C 0.19078 0.65565 0.31414 0.0
N184 N 0.13684 0.58568 0.2658 0.0
C185 C 0.17242 0.60597 0.30086 0.0
O186 O 0.27191 0.81405 0.41113 0.0
C187 C 0.28877 0.80006 0.37606 0.0
O188 O 0.26234 0.77708 0.33922 0.0
H189 H 0.12564 0.68355 0.23697 0.0
H190 H 0.21845 0.67282 0.34246 0.0
C191 C 0.2342 0.91484 0.44165 0.0
C192 C 0.24865 0.96291 0.42687 0.0
C193 C 0.23319 0.93526 0.34453 0.0
C194 C 0.21933 0.88747 0.35945 0.0
N195 N 0.22056 0.87836 0.40772 0.0
N196 N 0.24826 0.97207 0.37843 0.0
H197 H 0.23617 0.90706 0.47974 0.0
C198 C 0.23988 0.82383 0.23587 0.0
O199 O 0.27841 0.84014 0.26474 0.0
O200 O 0.21074 0.81866 0.50402 0.0
H201 H 0.209 0.85823 0.33279 0.0
H202 H 0.09164 0.59542 0.21478 0.0
H203 H 0.23303 0.94322 0.30618 0.0
Zn204 Zn 0.6578 0.82106 0.92269 0.0
C205 C 0.6748 0.72147 0.84406 0.0
N206 N 0.69663 0.71784 0.88474 0.0
C207 C 0.68984 0.74682 0.91655 0.0
N208 N 0.66585 0.76804 0.89622 0.0
N209 N 0.65501 0.75071 0.85093 0.0
C210 C 0.60457 0.78913 0.71556 0.0
O211 O 0.55928 0.77071 0.73123 0.0
O212 O 0.66099 0.82473 0.99622 0.0
Zn213 Zn 0.60674 0.75133 0.80629 0.0
N214 N 0.70925 0.88419 0.89977 0.0
C215 C 0.75393 0.94063 0.83656 0.0
C216 C 0.72147 0.89261 0.85182 0.0
C217 C 0.72868 0.9216 0.93304 0.0
N218 N 0.77232 0.9783 0.86976 0.0
C219 C 0.76077 0.96984 0.91789 0.0
O220 O 0.56636 0.7801 0.83344 0.0
C221 C 0.56328 0.80359 0.87004 0.0
O222 O 0.5946 0.81822 0.90461 0.0
H223 H 0.70509 0.86262 0.82557 0.0
H224 H 0.71733 0.91428 0.97076 0.0
C225 C 0.51599 0.65883 0.81188 0.0
C226 C 0.48404 0.60896 0.8005 0.0
C227 C 0.54239 0.61089 0.74425 0.0
C228 C 0.57352 0.66059 0.7549 0.0
N229 N 0.56039 0.68328 0.78938 0.0
N230 N 0.49852 0.58623 0.76729 0.0
H231 H 0.50591 0.67786 0.83861 0.0
C232 C 0.63816 0.79017 0.02635 0.0
O233 O 0.61068 0.74484 0.0102 0.0
O234 O 0.63591 0.78639 0.74293 0.0
H235 H 0.60798 0.68091 0.73594 0.0
H236 H 0.76355 0.94803 0.79843 0.0
H237 H 0.5528 0.59214 0.71754 0.0
Zn238 Zn 0.2256 0.86026 0.93212 0.0
C239 C 0.30518 0.97701 0.84692 0.0
N240 N 0.29622 0.99967 0.88406 0.0
C241 C 0.27533 0.96441 0.91744 0.0
N242 N 0.27157 0.92175 0.90205 0.0
N243 N 0.29115 0.92932 0.85775 0.0
C244 C 0.24614 0.83226 0.74 0.0
O245 O 0.21796 0.80155 0.77362 0.0
O246 O 0.22687 0.86566 0.00554 0.0
Zn247 Zn 0.30855 0.88348 0.82478 0.0
N248 N 0.16046 0.84429 0.9113 0.0
C249 C 0.10024 0.82582 0.84932 0.0
C250 C 0.14901 0.84253 0.86316 0.0
C251 C 0.12548 0.83105 0.94609 0.0
N252 N 0.06491 0.81104 0.88415 0.0
C253 C 0.07651 0.81382 0.9324 0.0
O254 O 0.27855 0.81449 0.85189 0.0
C255 C 0.25099 0.78597 0.88495 0.0
O256 O 0.23096 0.80048 0.91615 0.0
H257 H 0.17727 0.8529 0.83585 0.0
H258 H 0.1353 0.83157 0.98407 0.0
C259 C 0.39854 0.87976 0.83666 0.0
C260 C 0.44784 0.89875 0.85125 0.0
C261 C 0.45734 0.97862 0.85665 0.0
C262 C 0.40823 0.9595 0.84404 0.0
N263 N 0.37959 0.9106 0.83372 0.0
N264 N 0.47578 0.94786 0.86052 0.0
H265 H 0.37487 0.84068 0.83037 0.0
C266 C 0.26358 0.87441 0.03207 0.0
O267 O 0.30509 0.88418 0.01118 0.0
O268 O 0.28613 0.87039 0.75283 0.0
H269 H 0.39316 0.98364 0.84427 0.0
H270 H 0.09041 0.82357 0.81113 0.0
H271 H 0.4803 1.01742 0.86484 0.0
Zn272 Zn 0.2094 0.39708 0.9202 0.0
C273 C 0.08892 0.36645 0.84176 0.0
N274 N 0.06545 0.33914 0.88062 0.0
C275 C 0.10225 0.35142 0.91264 0.0
N276 N 0.1464 0.38425 0.8942 0.0
N277 N 0.13777 0.39503 0.84984 0.0
C278 C 0.20387 0.42535 0.71948 0.0
O279 O 0.23362 0.41749 0.74692 0.0
O280 O 0.21218 0.40589 0.99396 0.0
Zn281 Zn 0.18006 0.45451 0.81216 0.0
N282 N 0.21648 0.33972 0.9078 0.0
C283 C 0.19085 0.26038 0.8735 0.0
C284 C 0.18511 0.30173 0.87845 0.0
C285 C 0.25405 0.33852 0.93118 0.0
N286 N 0.22777 0.25872 0.89799 0.0
C287 C 0.2601 0.29716 0.92641 0.0
O288 O 0.25197 0.4893 0.82929 0.0
C289 C 0.28275 0.48744 0.8581 0.0
O290 O 0.26958 0.4548 0.89089 0.0
H291 H 0.15547 0.30315 0.85972 0.0
H292 H 0.27805 0.36897 0.95471 0.0
C293 C 0.18587 0.54824 0.83938 0.0
C294 C 0.16538 0.57893 0.84679 0.0
C295 C 0.08864 0.51502 0.81735 0.0
C296 C 0.10914 0.48513 0.80946 0.0
N297 N 0.15683 0.50152 0.82163 0.0
N298 N 0.11707 0.56097 0.83589 0.0
H299 H 0.22404 0.56108 0.84807 0.0
C300 C 0.25374 0.43093 0.01504 0.0
O301 O 0.29338 0.45376 0.98818 0.0
O302 O 0.17642 0.43956 0.73958 0.0
H303 H 0.08718 0.44917 0.79352 0.0
H304 H 0.16575 0.22956 0.85083 0.0
H305 H 0.05051 0.50199 0.80839 0.0
Zn306 Zn 0.74884 0.59544 0.68536 0.0
C307 C 0.79531 0.71648 0.59997 0.0
N308 N 0.77317 0.73017 0.63313 0.0
C309 C 0.75926 0.69545 0.66749 0.0
N310 N 0.77209 0.66096 0.65543 0.0
N311 N 0.79573 0.67534 0.61311 0.0
C312 C 0.85056 0.62389 0.48774 0.0
O313 O 0.86417 0.59795 0.51425 0.0
O314 O 0.75799 0.60141 0.7596 0.0
Zn315 Zn 0.84211 0.65866 0.58379 0.0
N316 N 0.67973 0.55315 0.6649 0.0
C317 C 0.60808 0.54944 0.63053 0.0
C318 C 0.65579 0.57649 0.64829 0.0
C319 C 0.65753 0.50293 0.66303 0.0
N320 N 0.58625 0.49982 0.62841 0.0
C321 C 0.60936 0.47526 0.64373 0.0
O322 O 0.83969 0.59848 0.6105 0.0
C323 C 0.81905 0.56296 0.63999 0.0
O324 O 0.78492 0.55867 0.66797 0.0
H325 H 0.67355 0.61599 0.64803 0.0
H326 H 0.67778 0.48514 0.67467 0.0
C327 C 0.94502 0.71178 0.5717 0.0
C328 C 0.99363 0.75044 0.57716 0.0
C329 C 0.96621 0.78854 0.63448 0.0
C330 C 0.91793 0.74984 0.62886 0.0
N331 N 0.90824 0.71246 0.59709 0.0
N332 N 1.00285 0.78829 0.60818 0.0
H333 H 0.9361 0.68201 0.54621 0.0
C334 C 0.80075 0.62433 0.77873 0.0
O335 O 0.83916 0.64538 0.75001 0.0
O336 O 0.83671 0.65114 0.50927 0.0
H337 H 0.88852 0.74995 0.64927 0.0
H338 H 0.58876 0.56778 0.61764 0.0
H339 H 0.9744 0.81881 0.65921 0.0
Zn340 Zn 0.45767 0.16362 0.67721 0.0
C341 C 0.33748 0.08022 0.59333 0.0
N342 N 0.32704 0.04768 0.62932 0.0
C343 C 0.36173 0.07408 0.66274 0.0
N344 N 0.39258 0.12052 0.64799 0.0
N345 N 0.37644 0.12474 0.60454 0.0
C346 C 0.40796 0.22326 0.47942 0.0
O347 O 0.41898 0.26316 0.50499 0.0
O348 O 0.45255 0.16353 0.75053 0.0
Zn349 Zn 0.39002 0.18599 0.5746 0.0
N350 N 0.50152 0.13879 0.65837 0.0
C351 C 0.50959 0.07055 0.63193 0.0
C352 C 0.48067 0.08984 0.64835 0.0
C353 C 0.55095 0.1694 0.65317 0.0
N354 N 0.55844 0.10098 0.626 0.0
C355 C 0.58038 0.15005 0.63618 0.0
O356 O 0.45207 0.24641 0.59775 0.0
C357 C 0.4874 0.26319 0.62834 0.0
O358 O 0.49162 0.23534 0.65905 0.0
H359 H 0.44177 0.06585 0.65236 0.0
H360 H 0.56676 0.20833 0.66088 0.0
C361 C 0.31426 0.21025 0.55432 0.0
C362 C 0.28453 0.23065 0.56619 0.0
C363 C 0.29717 0.22263 0.65022 0.0
C364 C 0.32838 0.2043 0.63813 0.0
N365 N 0.33704 0.19929 0.5904 0.0
N366 N 0.27702 0.23661 0.61409 0.0
H367 H 0.32181 0.20642 0.51659 0.0
C368 C 0.43881 0.19148 0.77048 0.0
O369 O 0.4266 0.2177 0.74258 0.0
O370 O 0.39453 0.18317 0.50166 0.0
H371 H 0.34701 0.19584 0.66649 0.0
H372 H 0.4933 0.03171 0.62357 0.0
H373 H 0.29059 0.22753 0.68807 0.0
Zn374 Zn 0.86461 0.21411 0.57453 0.0
C375 C 0.98141 0.29333 0.66082 0.0
N376 N 1.00312 0.28278 0.62402 0.0
C377 C 0.96762 0.26223 0.59031 0.0
N378 N 0.92594 0.26037 0.60501 0.0
N379 N 0.93413 0.28075 0.64925 0.0
C380 C 0.84259 0.27614 0.7773 0.0
O381 O 0.81729 0.29499 0.75806 0.0
O382 O 0.86874 0.21304 0.50092 0.0
Zn383 Zn 0.88866 0.29906 0.68168 0.0
N384 N 0.84888 0.14941 0.59613 0.0
C385 C 0.82968 0.09013 0.65854 0.0
C386 C 0.84575 0.13861 0.64442 0.0
C387 C 0.8377 0.11412 0.56151 0.0
N388 N 0.81683 0.05442 0.62379 0.0
C389 C 0.82104 0.06545 0.57546 0.0
O390 O 0.81889 0.2687 0.65449 0.0
C391 C 0.79091 0.24053 0.62077 0.0
O392 O 0.80606 0.22058 0.59012 0.0
H393 H 0.8546 0.16715 0.67158 0.0
H394 H 0.8394 0.12338 0.52331 0.0
C395 C 0.88872 0.39256 0.67386 0.0
C396 C 0.91069 0.44333 0.66381 0.0
C397 C 0.98867 0.44853 0.66056 0.0
C398 C 0.96666 0.39825 0.66805 0.0
N399 N 0.91738 0.37101 0.67584 0.0
N400 N 0.96027 0.46968 0.65814 0.0
H401 H 0.84931 0.37004 0.6775 0.0
C402 C 0.87777 0.24864 0.47294 0.0
O403 O 0.88868 0.29152 0.49208 0.0
O404 O 0.87582 0.27472 0.752 0.0
H405 H 0.98907 0.38137 0.66608 0.0
H406 H 0.82636 0.08077 0.69682 0.0
H407 H 1.02788 0.47039 0.65495 0.0
C408 C 0.23404 0.98997 0.97845 0.0
C409 C 0.26995 0.97708 0.96785 0.0
H410 H 0.21463 0.03462 0.02259 0.0
C411 C 0.31071 0.99339 0.99906 0.0
H412 H 0.20306 0.97891 0.95396 0.0
C413 C 0.31805 0.02616 0.03733 0.0
C414 C 0.28448 0.0428 0.04512 0.0
H415 H 0.3396 0.98514 0.99065 0.0
H416 H 0.3518 0.04139 0.05842 0.0
C417 C 0.24092 1.02215 0.01738 0.0
C418 C 0.03799 0.31903 0.03066 0.0
C419 C 1.02896 0.27066 0.03587 0.0
H420 H 0.07189 0.38445 0.98776 0.0
C421 C 0.05604 0.25494 0.00759 0.0
H422 H 1.01807 0.33229 0.05244 0.0
C423 C 0.08691 0.28492 0.97048 0.0
C424 C 0.09196 0.33138 0.96218 0.0
H425 H 0.04971 0.21778 0.01091 0.0
H426 H 0.10267 0.26981 0.94532 0.0
C427 C 0.06943 0.34919 0.99423 0.0
C428 C 0.72972 0.71816 0.03332 0.0
C429 C 0.77375 0.76225 0.04244 0.0
H430 H 0.66771 0.67938 0.98581 0.0
C431 C 0.78313 0.80472 0.01664 0.0
H432 H 0.72077 0.68516 0.05353 0.0
C433 C 0.75196 0.80151 0.97824 0.0
C434 C 0.71114 0.7559 0.9658 0.0
H435 H 0.81667 0.83925 0.02318 0.0
H436 H 0.76224 0.83336 0.9556 0.0
C437 C 0.699 0.71494 0.99502 0.0
C438 C 1.02324 0.29827 0.46758 0.0
C439 C 0.03602 0.2619 0.45848 0.0
H440 H 0.98919 0.32546 0.51688 0.0
C441 C 1.01606 0.21976 0.48775 0.0
H442 H 0.03815 0.33102 0.44538 0.0
C443 C 0.98816 0.21671 0.52884 0.0
C444 C 0.97889 0.2551 0.54006 0.0
H445 H 1.02575 0.19145 0.48152 0.0
H446 H 0.9772 0.18641 0.55385 0.0
C447 C 0.99481 0.29482 0.50807 0.0
C448 C 0.78777 0.71263 0.5095 0.0
C449 C 0.80899 0.74047 0.55213 0.0
H450 H 0.76536 0.71311 0.43547 0.0
C451 C 0.83049 0.7919 0.55053 0.0
H452 H 0.7685 0.67281 0.51054 0.0
C453 C 0.82702 0.81472 0.50833 0.0
C454 C 0.80257 0.78646 0.46689 0.0
H455 H 0.84606 0.81399 0.5833 0.0
H456 H 0.84029 0.85395 0.50917 0.0
C457 C 0.78521 0.73562 0.46683 0.0
C458 C 0.23984 0.99939 0.50465 0.0
C459 C 0.26794 1.00326 0.4634 0.0
H460 H 0.24013 1.0234 0.57807 0.0
C461 C 0.31727 0.04091 0.46177 0.0
H462 H 0.20177 0.97051 0.50672 0.0
C463 C 0.33949 0.07079 0.50298 0.0
C464 C 0.31224 0.06421 0.54569 0.0
H465 H 0.33978 0.04401 0.43055 0.0
H466 H 0.3789 0.09507 0.5031 0.0
C467 C 0.26174 0.02982 0.54529 0.0
C468 C 0.76346 0.04615 0.94995 0.0
C469 C 0.77832 1.01071 0.95371 0.0
H470 H 0.75008 0.09817 0.98888 0.0
C471 C 0.80174 1.00872 0.99657 0.0
H472 H 0.74478 0.04784 0.91734 0.0
C473 C 0.80582 0.03819 0.03676 0.0
C474 C 0.78616 0.06979 0.03496 0.0
H475 H 0.81339 0.98162 0.00027 0.0
H476 H 0.82014 0.03284 0.0708 0.0
C477 C 0.76696 0.07531 0.99063 0.0
C478 C 0.04231 0.82251 0.01129 0.0
C479 C 0.03801 0.79387 0.96993 0.0
H480 H 1.0228 0.8224 0.08618 0.0
C481 C 1.00333 0.74345 0.96961 0.0
H482 H 0.06911 0.86145 0.01231 0.0
C483 C 0.97744 0.72098 0.01213 0.0
C484 C 0.98494 0.74899 0.05485 0.0
H485 H 1.0002 0.7206 0.93835 0.0
H486 H 0.95617 0.6812 0.01309 0.0
C487 C 1.01574 0.80023 0.05338 0.0
C488 C 0.3186 0.25376 0.01966 0.0
C489 C 0.36251 0.29774 0.02922 0.0
H490 H 0.25125 0.21895 0.97837 0.0
C491 C 0.37658 0.3379 0.99821 0.0
H492 H 0.30654 0.22274 0.04386 0.0
C493 C 0.34499 0.33607 0.96136 0.0
C494 C 0.29851 0.29408 0.95519 0.0
H495 H 0.41002 0.37238 0.00541 0.0
H496 H 0.35541 0.36884 0.94014 0.0
C497 C 0.28682 0.25182 0.9825 0.0
C498 C 1.03283 0.70756 0.53551 0.0
C499 C 1.03319 0.75159 0.54668 0.0
H500 H 0.05682 0.67039 0.48652 0.0
C501 C 0.06726 0.79511 0.52314 0.0
H502 H 1.008 0.6737 0.55394 0.0
C503 C 0.09604 0.79325 0.48488 0.0
C504 C 0.09116 0.74797 0.47035 0.0
H505 H 0.0685 0.82961 0.53128 0.0
H506 H 0.11844 0.82612 0.46391 0.0
C507 C 0.06122 0.70573 0.49739 0.0
C508 C 0.24656 0.22501 0.48431 0.0
C509 C 0.26794 0.25182 0.5274 0.0
H510 H 0.22958 0.22794 0.40911 0.0
C511 C 0.2811 0.30176 0.52977 0.0
H512 H 0.23602 0.18645 0.48162 0.0
C513 C 0.2781 0.32573 0.48797 0.0
C514 C 0.26047 0.29971 0.44375 0.0
H515 H 0.29832 0.32337 0.56241 0.0
H516 H 0.29465 0.36539 0.48899 0.0
C517 C 0.24258 0.24869 0.44298 0.0
C518 C 0.73207 0.96678 0.49113 0.0
C519 C 0.76238 0.97214 0.45131 0.0
H520 H 0.7278 0.99121 0.56339 0.0
C521 C 0.81343 1.00225 0.45635 0.0
H522 H 0.69252 0.94656 0.48698 0.0
C523 C 0.8335 0.02948 0.49923 0.0
C524 C 0.80276 0.02649 0.5378 0.0
H525 H 0.83735 1.00803 0.4256 0.0
H526 H 0.87253 0.05565 0.50087 0.0
C527 C 0.75223 0.99305 0.53452 0.0
C528 C 0.3554 0.30096 0.22772 0.0
C529 C 0.38335 0.34222 0.19886 0.0
H530 H 0.31066 0.27157 0.29042 0.0
C531 C 0.38931 0.38795 0.21362 0.0
H532 H 0.3491 0.26501 0.21649 0.0
C533 C 0.36825 0.3922 0.25741 0.0
C534 C 0.33819 0.35031 0.28519 0.0
H535 H 0.41065 0.42032 0.19166 0.0
H536 H 0.37623 0.42815 0.26952 0.0
C537 C 0.33302 0.30486 0.27004 0.0
C538 C 0.68924 1.00937 0.21061 0.0
C539 C 0.73337 0.05305 0.20151 0.0
H540 H 0.64826 0.95148 0.26079 0.0
C541 C 0.77118 0.0703 0.23615 0.0
H542 H 0.65974 0.99503 0.18387 0.0
C543 C 0.76553 0.04391 0.27869 0.0
C544 C 0.72183 0.99936 0.28791 0.0
H545 H 0.80639 0.10256 0.22894 0.0
H546 H 0.79647 0.058 0.30368 0.0
C547 C 0.68318 0.9834 0.25397 0.0
C548 C 0.0594 0.74747 0.22637 0.0
C549 C 1.01733 0.70254 0.21346 0.0
H550 H 0.11738 0.78738 0.27804 0.0
C551 C 1.00519 0.66128 0.24248 0.0
H552 H 0.07068 0.78027 0.20495 0.0
C553 C 1.0318 0.66581 0.28539 0.0
C554 C 0.07284 0.71114 0.29842 0.0
H555 H 0.97575 0.62556 0.23215 0.0
H556 H 1.02024 0.63404 0.30849 0.0
C557 C 0.08683 0.75162 0.26805 0.0
C558 C 0.70567 0.65867 0.74292 0.0
C559 C 0.73322 0.69842 0.7118 0.0
H560 H 0.66557 0.63463 0.81026 0.0
C561 C 0.73554 0.74371 0.72232 0.0
H562 H 0.69968 0.62262 0.7344 0.0
C563 C 0.71321 0.74972 0.76363 0.0
C564 C 0.68835 0.71085 0.79603 0.0
H565 H 0.75586 0.77543 0.69926 0.0
H566 H 0.71793 0.78576 0.77169 0.0
C567 C 0.6846 0.66515 0.7855 0.0
C568 C 0.35815 1.01009 0.71845 0.0
C569 C 0.35939 0.05509 0.71196 0.0
H570 H 0.34444 0.95219 0.76752 0.0
C571 C 0.34637 0.07552 0.75064 0.0
H572 H 0.36731 0.99324 0.6886 0.0
C573 C 0.33057 0.0505 0.79463 0.0
C574 C 0.32701 1.00413 0.8009 0.0
H575 H 0.34503 0.10912 0.74574 0.0
H576 H 0.31909 0.06687 0.82297 0.0
C577 C 0.34315 0.98545 0.76299 0.0
C578 C 0.9913 0.33249 0.74509 0.0
C579 C 1.00944 0.31615 0.70685 0.0
H580 H 1.00233 0.36155 0.81823 0.0
C581 C 0.05663 0.3215 0.71236 0.0
H582 H 0.95731 0.33232 0.74127 0.0
C583 C 0.08375 0.3408 0.75526 0.0
C584 C 0.06463 0.35546 0.79375 0.0
H585 H 0.07252 0.30965 0.68394 0.0
H586 H 0.11853 0.3417 0.75933 0.0
C587 C 1.01803 0.35088 0.78857 0.0
C588 C 0.58496 0.25225 0.16322 0.0
C589 C 0.53828 0.22361 0.14168 0.0
H590 H 0.64931 0.25374 0.19232 0.0
C591 C 0.52225 0.17414 0.12979 0.0
H592 H 0.59824 0.29049 0.17277 0.0
C593 C 0.55091 0.15294 0.14206 0.0
C594 C 0.59685 0.18117 0.16491 0.0
H595 H 0.48634 0.15106 0.11351 0.0
H596 H 0.53659 0.11407 0.13488 0.0
C597 C 0.61428 0.23137 0.17414 0.0
C598 C 0.87505 0.35258 0.09112 0.0
C599 C 0.84215 0.32263 0.12714 0.0
H600 H 0.92328 0.42552 0.06649 0.0
C601 C 0.83 0.34514 0.16523 0.0
H602 H 0.88504 0.3367 0.06103 0.0
C603 C 0.85209 0.39658 0.16833 0.0
C604 C 0.88683 0.42644 0.13345 0.0
H605 H 0.80476 0.32316 0.19361 0.0
H606 H 0.84361 0.41282 0.19918 0.0
C607 C 0.89715 0.40369 0.09434 0.0
C608 C 0.70996 0.55495 0.13934 0.0
C609 C 0.74393 0.53886 0.14758 0.0
H610 H 0.63567 0.53942 0.14728 0.0
C611 C 0.72694 0.49116 0.16561 0.0
H612 H 0.72189 0.59152 0.1256 0.0
C613 C 0.6772 0.46085 0.17678 0.0
C614 C 0.64398 0.47824 0.17114 0.0
H615 H 0.75226 0.47772 0.17212 0.0
H616 H 0.66526 0.42495 0.19228 0.0
C617 C 0.66064 0.52521 0.15171 0.0
C618 C 0.15881 0.52672 0.33598 0.0
C619 C 0.19154 0.57551 0.32249 0.0
H620 H 0.15017 0.45775 0.35964 0.0
C621 C 0.24229 0.59291 0.32505 0.0
H622 H 0.11951 0.51238 0.33419 0.0
C623 C 0.25984 0.56131 0.33842 0.0
C624 C 0.22703 0.51206 0.35067 0.0
H625 H 0.26831 0.63018 0.3143 0.0
H626 H 0.29908 0.57511 0.33814 0.0
C627 C 0.17638 0.49553 0.35067 0.0
C628 C 0.54918 0.69857 0.40895 0.0
C629 C 0.54798 0.72856 0.37172 0.0
H630 H 0.52169 0.62579 0.43565 0.0
C631 C 0.51331 0.70647 0.33365 0.0
H632 H 0.57487 0.71421 0.43919 0.0
C633 C 0.48242 0.65515 0.33163 0.0
C634 C 0.48577 0.62514 0.36767 0.0
H635 H 0.51143 0.72855 0.30438 0.0
H636 H 0.45781 0.63899 0.30071 0.0
C637 C 0.51863 0.64769 0.40688 0.0
C638 C 0.42478 0.87637 0.40286 0.0
C639 C 0.4454 0.86538 0.36253 0.0
H640 H 0.35956 0.86357 0.43958 0.0
C641 C 0.41413 0.82807 0.32975 0.0
H642 H 0.44799 0.90457 0.42908 0.0
C643 C 0.36301 0.80457 0.33558 0.0
C644 C 0.34232 0.81765 0.37456 0.0
H645 H 0.42892 0.81895 0.29818 0.0
H646 H 0.33973 0.77773 0.30837 0.0
C647 C 0.37397 0.8526 0.40903 0.0
C648 C 0.46432 0.83075 0.82595 0.0
C649 C 0.47009 0.8674 0.85955 0.0
H650 H 0.48938 0.78137 0.80287 0.0
C651 C 0.50187 0.878 0.89962 0.0
H652 H 0.44016 0.822 0.79463 0.0
C653 C 0.52953 0.85463 0.9047 0.0
C654 C 0.52673 0.82055 0.86932 0.0
H655 H 0.50659 0.90573 0.92638 0.0
H656 H 0.55501 0.86532 0.93514 0.0
C657 C 0.49264 0.80766 0.83066 0.0
C658 C 0.25838 0.71514 0.84986 0.0
C659 C 0.23579 0.73277 0.88246 0.0
H660 H 0.25437 0.65201 0.81373 0.0
C661 C 0.19433 0.69839 0.90843 0.0
H662 H 0.29045 0.74057 0.82936 0.0
C663 C 0.17354 0.648 0.89899 0.0
C664 C 0.19425 0.63058 0.86425 0.0
H665 H 0.17594 0.71041 0.93388 0.0
H666 H 0.13981 0.62266 0.91733 0.0
C667 C 0.23796 0.66443 0.84109 0.0
C668 C 0.35204 0.56871 0.83128 0.0
C669 C 0.33566 0.52136 0.84987 0.0
H670 H 0.41265 0.63437 0.80243 0.0
C671 C 0.36966 0.50501 0.85625 0.0
H672 H 0.32656 0.58218 0.82601 0.0
C673 C 0.41845 0.53431 0.84158 0.0
C674 C 0.43449 0.58109 0.82187 0.0
H675 H 0.35796 0.46855 0.87016 0.0
H676 H 0.44347 0.52 0.84465 0.0
C677 C 0.40123 0.59862 0.81803 0.0
C678 C 0.87906 0.53655 0.61566 0.0
C679 C 0.83819 0.52818 0.64365 0.0
H680 H 0.93282 0.516 0.5997 0.0
C681 C 0.8184 0.48847 0.67643 0.0
H682 H 0.89555 0.56662 0.59009 0.0
C683 C 0.84029 0.45901 0.68213 0.0
C684 C 0.88246 0.4691 0.65534 0.0
H685 H 0.78688 0.48097 0.69855 0.0
H686 H 0.82547 0.42984 0.70878 0.0
C687 C 0.90078 0.50754 0.62143 0.0
C688 C 0.55911 0.33841 0.66663 0.0
C689 C 0.52253 0.31707 0.63008 0.0
H690 H 0.61541 0.40505 0.7001 0.0
C691 C 0.51798 0.34814 0.59638 0.0
H692 H 0.5637 0.31556 0.69321 0.0
C693 C 0.5476 0.39911 0.60022 0.0
C694 C 0.58286 0.42074 0.63777 0.0
H695 H 0.49064 0.33327 0.56752 0.0
H696 H 0.54216 0.42171 0.574 0.0
C697 C 0.58902 0.38976 0.67044 0.0
C698 C 0.71648 0.23918 0.65814 0.0
C699 C 0.73764 0.22488 0.6206 0.0
H700 H 0.64986 0.22705 0.69261 0.0
C701 C 0.70639 0.19067 0.58531 0.0
H702 H 0.73938 0.26551 0.68588 0.0
C703 C 0.65549 0.16865 0.58937 0.0
C704 C 0.63419 0.18054 0.62842 0.0
H705 H 0.72109 0.17899 0.55558 0.0
H706 H 0.63263 0.14087 0.56265 0.0
C707 C 0.66517 0.2173 0.66193 0.0
C708 C 0.42179 0.22589 0.84626 0.0
C709 C 0.4374 0.19526 0.82432 0.0
H710 H 0.40981 0.25466 0.9129 0.0
C711 C 0.45266 0.16915 0.85433 0.0
H712 H 0.40965 0.24642 0.82417 0.0
C713 C 0.45308 0.17416 0.9051 0.0
C714 C 0.43797 0.20517 0.92706 0.0
H715 H 0.46469 0.14508 0.83864 0.0
H716 H 0.46521 0.15358 0.9271 0.0
C717 C 0.42195 0.23071 0.89711 0.0
C718 C 0.85828 0.23537 0.8484 0.0
C719 C 0.83236 0.2568 0.82777 0.0
H720 H 0.87056 0.20291 0.9116 0.0
C721 C 0.79654 0.25983 0.85598 0.0
H722 H 0.88598 0.23227 0.82761 0.0
C723 C 0.7877 0.24301 0.90407 0.0
C724 C 0.81433 0.22258 0.9251 0.0
H725 H 0.77569 0.27585 0.8412 0.0
H726 H 0.76051 0.24684 0.92501 0.0
C727 C 0.84927 0.21832 0.8965 0.0
C728 C 0.86062 0.65237 0.90482 0.0
C729 C 0.81966 0.62783 0.93543 0.0
H730 H 0.88686 0.67056 0.83142 0.0
C731 C 0.77256 0.60246 0.91397 0.0
H732 H 0.89737 0.67243 0.92009 0.0
C733 C 0.76647 0.60167 0.86331 0.0
C734 C 0.80733 0.62602 0.83263 0.0
H735 H 0.74007 0.58339 0.93634 0.0
H736 H 0.72962 0.58185 0.84824 0.0
C737 C 0.85453 0.65137 0.85397 0.0
C738 C 0.23538 0.40072 0.59207 0.0
C739 C 0.2084 0.41536 0.56244 0.0
H740 H 0.25518 0.39238 0.66488 0.0
C741 C 0.17869 0.43164 0.58498 0.0
H742 H 0.25839 0.38773 0.5759 0.0
C743 C 0.17642 0.43383 0.63585 0.0
C744 C 0.20416 0.42021 0.66555 0.0
H745 H 0.15697 0.44271 0.56332 0.0
H746 H 0.15335 0.44685 0.65186 0.0
C747 C 0.23344 0.40331 0.64309 0.0
C748 C 0.59059 0.82776 0.58888 0.0
C749 C 0.63518 0.8385 0.56694 0.0
H750 H 0.54629 0.80426 0.65285 0.0
C751 C 0.67154 0.83656 0.59547 0.0
H752 H 0.56193 0.82919 0.56811 0.0
C753 C 0.66248 0.82199 0.64439 0.0
C754 C 0.61695 0.80924 0.66559 0.0
H755 H 0.70636 0.84467 0.57961 0.0
H756 H 0.6905 0.8193 0.66507 0.0
C757 C 0.58161 0.81335 0.63757 0.0
C758 C 0.19785 0.77263 0.67285 0.0
C759 C 0.23248 0.82083 0.68769 0.0
H760 H 0.16026 0.72328 0.61307 0.0
C761 C 0.25444 0.85736 0.65203 0.0
H762 H 0.18028 0.74359 0.69942 0.0
C763 C 0.24234 0.84582 0.60259 0.0
C764 C 0.20874 0.79729 0.58764 0.0
H765 H 0.28103 0.89487 0.66229 0.0
H766 H 0.26025 0.87476 0.57596 0.0
C767 C 0.18643 0.7609 0.62335 0.0
C768 C 0.65103 0.84973 0.09386 0.0
C769 C 0.63957 0.80208 0.07887 0.0
H770 H 0.6579 0.89742 0.15367 0.0
C771 C 0.62798 0.76588 0.11434 0.0
H772 H 0.65999 0.87841 0.0673 0.0
C773 C 0.62764 0.77707 0.16385 0.0
C774 C 0.6378 0.82435 0.17869 0.0
H775 H 0.61924 0.72897 0.10384 0.0
H776 H 0.61836 0.74836 0.19042 0.0
C777 C 0.6496 0.86061 0.14324 0.0
C778 C 0.21033 0.84132 0.10594 0.0
C779 C 0.25755 0.86741 0.08552 0.0
H780 H 0.16761 0.80689 0.16957 0.0
C781 C 0.29871 0.88327 0.11613 0.0
H782 H 0.1778 0.82868 0.08334 0.0
C783 C 0.29283 0.87133 0.16568 0.0
C784 C 0.24565 0.84264 0.18547 0.0
H785 H 0.33553 0.90378 0.10156 0.0
H786 H 0.32538 0.88277 0.18792 0.0
C787 C 0.20443 0.82874 0.15535 0.0
C788 C 0.3052 0.45401 0.09104 0.0
C789 C 0.25841 0.43094 0.06892 0.0
H790 H 0.34687 0.47055 0.15733 0.0
C791 C 0.21673 0.40644 0.09861 0.0
H792 H 0.33814 0.47295 0.06927 0.0
C793 C 0.2218 0.40511 0.14931 0.0
C794 C 0.26865 0.42809 0.17134 0.0
H795 H 0.18018 0.38809 0.08272 0.0
H796 H 0.18896 0.38598 0.17118 0.0
C797 C 0.31026 0.45252 0.1416 0.0
C798 C 0.84095 0.65092 0.40397 0.0
C799 C 0.85591 0.62443 0.43384 0.0
H800 H 0.83561 0.67282 0.33128 0.0
C801 C 0.87796 0.59949 0.41187 0.0
H802 H 0.82408 0.67071 0.41969 0.0
C803 C 0.88496 0.601 0.36138 0.0
C804 C 0.86983 0.62725 0.33142 0.0
H805 H 0.8903 0.57899 0.43373 0.0
H806 H 0.90214 0.5814 0.34585 0.0
C807 C 0.84772 0.65221 0.35329 0.0
C808 C 0.40839 0.18696 0.39762 0.0
C809 C 0.40879 0.22494 0.42568 0.0
H810 H 0.4143 0.16208 0.32612 0.0
C811 C 0.41085 0.26547 0.402 0.0
H812 H 0.4063 0.15503 0.41501 0.0
C813 C 0.41468 0.26916 0.3514 0.0
C814 C 0.41713 0.23265 0.32335 0.0
H815 H 0.41022 0.29484 0.42258 0.0
H816 H 0.4174 0.3016 0.33452 0.0
C817 C 0.41278 0.19091 0.34679 0.0
C818 C 0.89033 0.2802 0.38739 0.0
C819 C 0.87115 0.24027 0.4195 0.0
H820 H 0.89451 0.30424 0.31378 0.0
C821 C 0.84293 0.19227 0.40028 0.0
H822 H 0.91249 0.31752 0.40105 0.0
C823 C 0.83199 0.18462 0.35031 0.0
C824 C 0.84983 0.22474 0.31842 0.0
H825 H 0.82764 0.16067 0.4241 0.0
H826 H 0.80875 0.1474 0.33684 0.0
C827 C 0.88013 0.27249 0.33734 0.0
loop_
_geom_bond_atom_site_label_1
_geom_bond_atom_site_label_2
_geom_bond_distance
_geom_bond_site_symmetry_2
_ccdc_geom_bond_type
Zn0 N4 2.020 . S
Zn0 O8 2.019 . S
Zn0 N10 2.119 . S
Zn0 O18 1.975 . S
C1 N2 1.334 . S
C1 N5 1.336 . S
N2 C1 1.334 . S
N2 C3 1.334 . S
C3 N2 1.334 . S
C3 N4 1.336 . S
N4 Zn0 2.020 . S
N4 C3 1.336 . S
N4 N5 1.354 . S
N5 C1 1.336 . S
N5 N4 1.354 . S
N5 Zn9 2.020 . S
C6 O7 1.244 1_556 S
C6 O30 1.257 1_556 S
O7 C6 1.244 1_554 S
O8 Zn0 2.019 . S
O8 C28 1.257 . S
Zn9 N5 2.020 . S
Zn9 O16 1.975 . S
Zn9 N25 2.119 . S
Zn9 O30 2.019 . S
N10 Zn0 2.119 . S
N10 C12 1.334 . S
N10 C13 1.328 . S
C11 C12 1.391 . S
C11 N14 1.329 . S
C11 H32 0.930 . S
C12 N10 1.334 . S
C12 C11 1.391 . S
C12 H19 0.930 . S
C13 N10 1.328 . S
C13 C15 1.392 . S
C13 H20 0.930 . S
N14 C11 1.329 . S
N14 C15 1.331 . S
C15 C13 1.392 . S
C15 N14 1.331 . S
O16 Zn9 1.975 . S
O16 C17 1.252 . S
C17 O16 1.252 . S
C17 O18 1.252 . S
O18 Zn0 1.975 . S
O18 C17 1.252 . S
H19 C12 0.930 . S
H20 C13 0.930 . S
C21 C22 1.392 . S
C21 N25 1.328 . S
C21 H27 0.930 . S
C22 C21 1.392 . S
C22 N26 1.331 . S
C23 C24 1.391 . S
C23 N26 1.329 . S
C23 H33 0.930 . S
C24 C23 1.391 . S
C24 N25 1.334 . S
C24 H31 0.930 . S
N25 Zn9 2.119 . S
N25 C21 1.328 . S
N25 C24 1.334 . S
N26 C22 1.331 . S
N26 C23 1.329 . S
H27 C21 0.930 . S
C28 O8 1.257 . S
C28 O29 1.244 . S
O29 C28 1.244 . S
O30 C6 1.257 1_554 S
O30 Zn9 2.019 . S
H31 C24 0.930 . S
H32 C11 0.930 . S
H33 C23 0.930 . S
Zn34 N38 2.020 . S
Zn34 O42 2.019 . S
Zn34 N44 2.119 . S
Zn34 O52 1.975 . S
C35 N36 1.334 . S
C35 N39 1.336 . S
N36 C35 1.334 . S
N36 C37 1.334 . S
C37 N36 1.334 . S
C37 N38 1.336 . S
N38 Zn34 2.020 . S
N38 C37 1.336 . S
N38 N39 1.354 . S
N39 C35 1.336 . S
N39 N38 1.354 . S
N39 Zn43 2.020 . S
C40 O41 1.244 1_556 S
C40 O64 1.257 1_556 S
O41 C40 1.244 1_554 S
O42 Zn34 2.019 . S
O42 C62 1.257 . S
Zn43 N39 2.020 . S
Zn43 O50 1.975 . S
Zn43 N59 2.119 . S
Zn43 O64 2.019 . S
N44 Zn34 2.119 . S
N44 C46 1.334 . S
N44 C47 1.328 . S
C45 C46 1.391 . S
C45 N48 1.329 . S
C45 H66 0.930 . S
C46 N44 1.334 . S
C46 C45 1.391 . S
C46 H53 0.930 . S
C47 N44 1.328 . S
C47 C49 1.392 . S
C47 H54 0.930 . S
N48 C45 1.329 . S
N48 C49 1.331 . S
C49 C47 1.392 . S
C49 N48 1.331 . S
O50 Zn43 1.975 . S
O50 C51 1.252 . S
C51 O50 1.252 . S
C51 O52 1.252 . S
O52 Zn34 1.975 . S
O52 C51 1.252 . S
H53 C46 0.930 . S
H54 C47 0.930 . S
C55 C56 1.392 . S
C55 N59 1.328 . S
C55 H61 0.930 . S
C56 C55 1.392 . S
C56 N60 1.331 . S
C57 C58 1.391 . S
C57 N60 1.329 . S
C57 H67 0.930 . S
C58 C57 1.391 . S
C58 N59 1.334 . S
C58 H65 0.930 . S
N59 Zn43 2.119 . S
N59 C55 1.328 . S
N59 C58 1.334 . S
N60 C56 1.331 . S
N60 C57 1.329 . S
H61 C55 0.930 . S
C62 O42 1.257 . S
C62 O63 1.244 . S
O63 C62 1.244 . S
O64 C40 1.257 1_554 S
O64 Zn43 2.019 . S
H65 C58 0.930 . S
H66 C45 0.930 . S
H67 C57 0.930 . S
Zn68 N72 2.020 . S
Zn68 O76 2.019 . S
Zn68 N78 2.119 . S
Zn68 O86 1.975 . S
C69 N70 1.334 . S
C69 N73 1.336 . S
N70 C69 1.334 . S
N70 C71 1.334 . S
C71 N70 1.334 . S
C71 N72 1.336 . S
N72 Zn68 2.020 . S
N72 C71 1.336 . S
N72 N73 1.354 . S
N73 C69 1.336 . S
N73 N72 1.354 . S
N73 Zn77 2.020 . S
C74 O75 1.244 1_556 S
C74 O98 1.257 1_556 S
O75 C74 1.244 1_554 S
O76 Zn68 2.019 . S
O76 C96 1.257 . S
Zn77 N73 2.020 . S
Zn77 O84 1.975 . S
Zn77 N93 2.119 . S
Zn77 O98 2.019 . S
N78 Zn68 2.119 . S
N78 C80 1.334 . S
N78 C81 1.328 . S
C79 C80 1.391 . S
C79 N82 1.329 . S
C79 H100 0.930 . S
C80 N78 1.334 . S
C80 C79 1.391 . S
C80 H87 0.930 . S
C81 N78 1.328 . S
C81 C83 1.392 . S
C81 H88 0.930 . S
N82 C79 1.329 . S
N82 C83 1.331 . S
C83 C81 1.392 . S
C83 N82 1.331 . S
O84 Zn77 1.975 . S
O84 C85 1.252 . S
C85 O84 1.252 . S
C85 O86 1.252 . S
O86 Zn68 1.975 . S
O86 C85 1.252 . S
H87 C80 0.930 . S
H88 C81 0.930 . S
C89 C90 1.392 . S
C89 N93 1.328 . S
C89 H95 0.930 . S
C90 C89 1.392 . S
C90 N94 1.331 . S
C91 C92 1.391 . S
C91 N94 1.329 . S
C91 H101 0.930 . S
C92 C91 1.391 . S
C92 N93 1.334 . S
C92 H99 0.930 . S
N93 Zn77 2.119 . S
N93 C89 1.328 . S
N93 C92 1.334 . S
N94 C90 1.331 . S
N94 C91 1.329 . S
H95 C89 0.930 . S
C96 O76 1.257 . S
C96 O97 1.244 . S
O97 C96 1.244 . S
O98 C74 1.257 1_554 S
O98 Zn77 2.019 . S
H99 C92 0.930 . S
H100 C79 0.930 . S
H101 C91 0.930 . S
Zn102 N106 2.020 . S
Zn102 O110 2.019 . S
Zn102 N112 2.119 . S
Zn102 O120 1.975 . S
C103 N104 1.334 . S
C103 N107 1.336 . S
N104 C103 1.334 . S
N104 C105 1.334 . S
C105 N104 1.334 . S
C105 N106 1.336 . S
N106 Zn102 2.020 . S
N106 C105 1.336 . S
N106 N107 1.354 . S
N107 C103 1.336 . S
N107 N106 1.354 . S
N107 Zn111 2.020 . S
C108 O109 1.244 . S
C108 O132 1.257 . S
O109 C108 1.244 . S
O110 Zn102 2.019 . S
O110 C130 1.257 . S
Zn111 N107 2.020 . S
Zn111 O118 1.975 . S
Zn111 N127 2.119 . S
Zn111 O132 2.019 . S
N112 Zn102 2.119 . S
N112 C114 1.334 . S
N112 C115 1.328 . S
C113 C114 1.391 . S
C113 N116 1.329 . S
C113 H134 0.930 . S
C114 N112 1.334 . S
C114 C113 1.391 . S
C114 H121 0.930 . S
C115 N112 1.328 . S
C115 C117 1.392 . S
C115 H122 0.930 . S
N116 C113 1.329 . S
N116 C117 1.331 . S
C117 C115 1.392 . S
C117 N116 1.331 . S
O118 Zn111 1.975 . S
O118 C119 1.252 . S
C119 O118 1.252 . S
C119 O120 1.252 . S
O120 Zn102 1.975 . S
O120 C119 1.252 . S
H121 C114 0.930 . S
H122 C115 0.930 . S
C123 C124 1.392 . S
C123 N127 1.328 . S
C123 H129 0.930 . S
C124 C123 1.392 . S
C124 N128 1.331 . S
C125 C126 1.391 . S
C125 N128 1.329 . S
C125 H135 0.930 . S
C126 C125 1.391 . S
C126 N127 1.334 . S
C126 H133 0.930 . S
N127 Zn111 2.119 . S
N127 C123 1.328 . S
N127 C126 1.334 . S
N128 C124 1.331 . S
N128 C125 1.329 . S
H129 C123 0.930 . S
C130 O110 1.257 . S
C130 O131 1.244 . S
O131 C130 1.244 . S
O132 C108 1.257 . S
O132 Zn111 2.019 . S
H133 C126 0.930 . S
H134 C113 0.930 . S
H135 C125 0.930 . S
Zn136 N140 2.020 . S
Zn136 O144 2.019 . S
Zn136 N146 2.119 . S
Zn136 O154 1.975 . S
C137 N138 1.334 . S
C137 N141 1.336 . S
N138 C137 1.334 . S
N138 C139 1.334 . S
C139 N138 1.334 . S
C139 N140 1.336 . S
N140 Zn136 2.020 . S
N140 C139 1.336 . S
N140 N141 1.354 . S
N141 C137 1.336 . S
N141 N140 1.354 . S
N141 Zn145 2.020 . S
C142 O143 1.244 . S
C142 O166 1.257 . S
O143 C142 1.244 . S
O144 Zn136 2.019 . S
O144 C164 1.257 . S
Zn145 N141 2.020 . S
Zn145 O152 1.975 . S
Zn145 N161 2.119 . S
Zn145 O166 2.019 . S
N146 Zn136 2.119 . S
N146 C148 1.334 . S
N146 C149 1.328 . S
C147 C148 1.391 . S
C147 N150 1.329 . S
C147 H168 0.930 . S
C148 N146 1.334 . S
C148 C147 1.391 . S
C148 H155 0.930 . S
C149 N146 1.328 . S
C149 C151 1.392 . S
C149 H156 0.930 . S
N150 C147 1.329 . S
N150 C151 1.331 . S
C151 C149 1.392 . S
C151 N150 1.331 . S
O152 Zn145 1.975 . S
O152 C153 1.252 . S
C153 O152 1.252 . S
C153 O154 1.252 . S
O154 Zn136 1.975 . S
O154 C153 1.252 . S
H155 C148 0.930 . S
H156 C149 0.930 . S
C157 C158 1.392 . S
C157 N161 1.328 . S
C157 H163 0.930 . S
C158 C157 1.392 . S
C158 N162 1.331 . S
C159 C160 1.391 . S
C159 N162 1.329 . S
C159 H169 0.930 . S
C160 C159 1.391 . S
C160 N161 1.334 . S
C160 H167 0.930 . S
N161 Zn145 2.119 . S
N161 C157 1.328 . S
N161 C160 1.334 . S
N162 C158 1.331 . S
N162 C159 1.329 . S
H163 C157 0.930 . S
C164 O144 1.257 . S
C164 O165 1.244 . S
O165 C164 1.244 . S
O166 C142 1.257 . S
O166 Zn145 2.019 . S
H167 C160 0.930 . S
H168 C147 0.930 . S
H169 C159 0.930 . S
Zn170 N174 2.020 . S
Zn170 O178 2.019 . S
Zn170 N180 2.119 . S
Zn170 O188 1.975 . S
C171 N172 1.334 . S
C171 N175 1.336 . S
N172 C171 1.334 . S
N172 C173 1.334 . S
C173 N172 1.334 . S
C173 N174 1.336 . S
N174 Zn170 2.020 . S
N174 C173 1.336 . S
N174 N175 1.354 . S
N175 C171 1.336 . S
N175 N174 1.354 . S
N175 Zn179 2.020 . S
C176 O177 1.244 . S
C176 O200 1.257 . S
O177 C176 1.244 . S
O178 Zn170 2.019 . S
O178 C198 1.257 . S
Zn179 N175 2.020 . S
Zn179 O186 1.975 . S
Zn179 N195 2.119 . S
Zn179 O200 2.019 . S
N180 Zn170 2.119 . S
N180 C182 1.334 . S
N180 C183 1.328 . S
C181 C182 1.391 . S
C181 N184 1.329 . S
C181 H202 0.930 . S
C182 N180 1.334 . S
C182 C181 1.391 . S
C182 H189 0.930 . S
C183 N180 1.328 . S
C183 C185 1.392 . S
C183 H190 0.930 . S
N184 C181 1.329 . S
N184 C185 1.331 . S
C185 C183 1.392 . S
C185 N184 1.331 . S
O186 Zn179 1.975 . S
O186 C187 1.252 . S
C187 O186 1.252 . S
C187 O188 1.252 . S
O188 Zn170 1.975 . S
O188 C187 1.252 . S
H189 C182 0.930 . S
H190 C183 0.930 . S
C191 C192 1.392 . S
C191 N195 1.328 . S
C191 H197 0.930 . S
C192 C191 1.392 . S
C192 N196 1.331 . S
C193 C194 1.391 . S
C193 N196 1.329 . S
C193 H203 0.930 . S
C194 C193 1.391 . S
C194 N195 1.334 . S
C194 H201 0.930 . S
N195 Zn179 2.119 . S
N195 C191 1.328 . S
N195 C194 1.334 . S
N196 C192 1.331 . S
N196 C193 1.329 . S
H197 C191 0.930 . S
C198 O178 1.257 . S
C198 O199 1.244 . S
O199 C198 1.244 . S
O200 C176 1.257 . S
O200 Zn179 2.019 . S
H201 C194 0.930 . S
H202 C181 0.930 . S
H203 C193 0.930 . S
Zn204 N208 2.020 . S
Zn204 O212 2.019 . S
Zn204 N214 2.119 . S
Zn204 O222 1.975 . S
C205 N206 1.334 . S
C205 N209 1.336 . S
N206 C205 1.334 . S
N206 C207 1.334 . S
C207 N206 1.334 . S
C207 N208 1.336 . S
N208 Zn204 2.020 . S
N208 C207 1.336 . S
N208 N209 1.354 . S
N209 C205 1.336 . S
N209 N208 1.354 . S
N209 Zn213 2.020 . S
C210 O211 1.244 . S
C210 O234 1.257 . S
O211 C210 1.244 . S
O212 Zn204 2.019 . S
O212 C232 1.257 1_556 S
Zn213 N209 2.020 . S
Zn213 O220 1.975 . S
Zn213 N229 2.119 . S
Zn213 O234 2.019 . S
N214 Zn204 2.119 . S
N214 C216 1.334 . S
N214 C217 1.328 . S
C215 C216 1.391 . S
C215 N218 1.329 . S
C215 H236 0.930 . S
C216 N214 1.334 . S
C216 C215 1.391 . S
C216 H223 0.930 . S
C217 N214 1.328 . S
C217 C219 1.392 . S
C217 H224 0.930 . S
N218 C215 1.329 . S
N218 C219 1.331 . S
C219 C217 1.392 . S
C219 N218 1.331 . S
O220 Zn213 1.975 . S
O220 C221 1.252 . S
C221 O220 1.252 . S
C221 O222 1.252 . S
O222 Zn204 1.975 . S
O222 C221 1.252 . S
H223 C216 0.930 . S
H224 C217 0.930 . S
C225 C226 1.392 . S
C225 N229 1.328 . S
C225 H231 0.930 . S
C226 C225 1.392 . S
C226 N230 1.331 . S
C227 C228 1.391 . S
C227 N230 1.329 . S
C227 H237 0.930 . S
C228 C227 1.391 . S
C228 N229 1.334 . S
C228 H235 0.930 . S
N229 Zn213 2.119 . S
N229 C225 1.328 . S
N229 C228 1.334 . S
N230 C226 1.331 . S
N230 C227 1.329 . S
H231 C225 0.930 . S
C232 O212 1.257 1_554 S
C232 O233 1.244 1_554 S
O233 C232 1.244 1_556 S
O234 C210 1.257 . S
O234 Zn213 2.019 . S
H235 C228 0.930 . S
H236 C215 0.930 . S
H237 C227 0.930 . S
Zn238 N242 2.020 . S
Zn238 O246 2.019 . S
Zn238 N248 2.119 . S
Zn238 O256 1.975 . S
C239 N240 1.334 . S
C239 N243 1.336 . S
N240 C239 1.334 . S
N240 C241 1.334 . S
C241 N240 1.334 . S
C241 N242 1.336 . S
N242 Zn238 2.020 . S
N242 C241 1.336 . S
N242 N243 1.354 . S
N243 C239 1.336 . S
N243 N242 1.354 . S
N243 Zn247 2.020 . S
C244 O245 1.244 . S
C244 O268 1.257 . S
O245 C244 1.244 . S
O246 Zn238 2.019 . S
O246 C266 1.257 1_556 S
Zn247 N243 2.020 . S
Zn247 O254 1.975 . S
Zn247 N263 2.119 . S
Zn247 O268 2.019 . S
N248 Zn238 2.119 . S
N248 C250 1.334 . S
N248 C251 1.328 . S
C249 C250 1.391 . S
C249 N252 1.329 . S
C249 H270 0.930 . S
C250 N248 1.334 . S
C250 C249 1.391 . S
C250 H257 0.930 . S
C251 N248 1.328 . S
C251 C253 1.392 . S
C251 H258 0.930 . S
N252 C249 1.329 . S
N252 C253 1.331 . S
C253 C251 1.392 . S
C253 N252 1.331 . S
O254 Zn247 1.975 . S
O254 C255 1.252 . S
C255 O254 1.252 . S
C255 O256 1.252 . S
O256 Zn238 1.975 . S
O256 C255 1.252 . S
H257 C250 0.930 . S
H258 C251 0.930 . S
C259 C260 1.392 . S
C259 N263 1.328 . S
C259 H265 0.930 . S
C260 C259 1.392 . S
C260 N264 1.331 . S
C261 C262 1.391 . S
C261 N264 1.329 . S
C261 H271 0.930 . S
C262 C261 1.391 . S
C262 N263 1.334 . S
C262 H269 0.930 . S
N263 Zn247 2.119 . S
N263 C259 1.328 . S
N263 C262 1.334 . S
N264 C260 1.331 . S
N264 C261 1.329 . S
H265 C259 0.930 . S
C266 O246 1.257 1_554 S
C266 O267 1.244 1_554 S
O267 C266 1.244 1_556 S
O268 C244 1.257 . S
O268 Zn247 2.019 . S
H269 C262 0.930 . S
H270 C249 0.930 . S
H271 C261 0.930 . S
Zn272 N276 2.020 . S
Zn272 O280 2.019 . S
Zn272 N282 2.119 . S
Zn272 O290 1.975 . S
C273 N274 1.334 . S
C273 N277 1.336 . S
N274 C273 1.334 . S
N274 C275 1.334 . S
C275 N274 1.334 . S
C275 N276 1.336 . S
N276 Zn272 2.020 . S
N276 C275 1.336 . S
N276 N277 1.354 . S
N277 C273 1.336 . S
N277 N276 1.354 . S
N277 Zn281 2.020 . S
C278 O279 1.244 . S
C278 O302 1.257 . S
O279 C278 1.244 . S
O280 Zn272 2.019 . S
O280 C300 1.257 1_556 S
Zn281 N277 2.020 . S
Zn281 O288 1.975 . S
Zn281 N297 2.119 . S
Zn281 O302 2.019 . S
N282 Zn272 2.119 . S
N282 C284 1.334 . S
N282 C285 1.328 . S
C283 C284 1.391 . S
C283 N286 1.329 . S
C283 H304 0.930 . S
C284 N282 1.334 . S
C284 C283 1.391 . S
C284 H291 0.930 . S
C285 N282 1.328 . S
C285 C287 1.392 . S
C285 H292 0.930 . S
N286 C283 1.329 . S
N286 C287 1.331 . S
C287 C285 1.392 . S
C287 N286 1.331 . S
O288 Zn281 1.975 . S
O288 C289 1.252 . S
C289 O288 1.252 . S
C289 O290 1.252 . S
O290 Zn272 1.975 . S
O290 C289 1.252 . S
H291 C284 0.930 . S
H292 C285 0.930 . S
C293 C294 1.392 . S
C293 N297 1.328 . S
C293 H299 0.930 . S
C294 C293 1.392 . S
C294 N298 1.331 . S
C295 C296 1.391 . S
C295 N298 1.329 . S
C295 H305 0.930 . S
C296 C295 1.391 . S
C296 N297 1.334 . S
C296 H303 0.930 . S
N297 Zn281 2.119 . S
N297 C293 1.328 . S
N297 C296 1.334 . S
N298 C294 1.331 . S
N298 C295 1.329 . S
H299 C293 0.930 . S
C300 O280 1.257 1_554 S
C300 O301 1.244 1_554 S
O301 C300 1.244 1_556 S
O302 C278 1.257 . S
O302 Zn281 2.019 . S
H303 C296 0.930 . S
H304 C283 0.930 . S
H305 C295 0.930 . S
Zn306 N310 2.020 . S
Zn306 O314 2.019 . S
Zn306 N316 2.119 . S
Zn306 O324 1.975 . S
C307 N308 1.334 . S
C307 N311 1.336 . S
N308 C307 1.334 . S
N308 C309 1.334 . S
C309 N308 1.334 . S
C309 N310 1.336 . S
N310 Zn306 2.020 . S
N310 C309 1.336 . S
N310 N311 1.354 . S
N311 C307 1.336 . S
N311 N310 1.354 . S
N311 Zn315 2.020 . S
C312 O313 1.244 . S
C312 O336 1.257 . S
O313 C312 1.244 . S
O314 Zn306 2.019 . S
O314 C334 1.257 . S
Zn315 N311 2.020 . S
Zn315 O322 1.975 . S
Zn315 N331 2.119 . S
Zn315 O336 2.019 . S
N316 Zn306 2.119 . S
N316 C318 1.334 . S
N316 C319 1.328 . S
C317 C318 1.391 . S
C317 N320 1.329 . S
C317 H338 0.930 . S
C318 N316 1.334 . S
C318 C317 1.391 . S
C318 H325 0.930 . S
C319 N316 1.328 . S
C319 C321 1.392 . S
C319 H326 0.930 . S
N320 C317 1.329 . S
N320 C321 1.331 . S
C321 C319 1.392 . S
C321 N320 1.331 . S
O322 Zn315 1.975 . S
O322 C323 1.252 . S
C323 O322 1.252 . S
C323 O324 1.252 . S
O324 Zn306 1.975 . S
O324 C323 1.252 . S
H325 C318 0.930 . S
H326 C319 0.930 . S
C327 C328 1.392 . S
C327 N331 1.328 . S
C327 H333 0.930 . S
C328 C327 1.392 . S
C328 N332 1.331 . S
C329 C330 1.391 . S
C329 N332 1.329 . S
C329 H339 0.930 . S
C330 C329 1.391 . S
C330 N331 1.334 . S
C330 H337 0.930 . S
N331 Zn315 2.119 . S
N331 C327 1.328 . S
N331 C330 1.334 . S
N332 C328 1.331 . S
N332 C329 1.329 . S
H333 C327 0.930 . S
C334 O314 1.257 . S
C334 O335 1.244 . S
O335 C334 1.244 . S
O336 C312 1.257 . S
O336 Zn315 2.019 . S
H337 C330 0.930 . S
H338 C317 0.930 . S
H339 C329 0.930 . S
Zn340 N344 2.020 . S
Zn340 O348 2.019 . S
Zn340 N350 2.119 . S
Zn340 O358 1.975 . S
C341 N342 1.334 . S
C341 N345 1.336 . S
N342 C341 1.334 . S
N342 C343 1.334 . S
C343 N342 1.334 . S
C343 N344 1.336 . S
N344 Zn340 2.020 . S
N344 C343 1.336 . S
N344 N345 1.354 . S
N345 C341 1.336 . S
N345 N344 1.354 . S
N345 Zn349 2.020 . S
C346 O347 1.244 . S
C346 O370 1.257 . S
O347 C346 1.244 . S
O348 Zn340 2.019 . S
O348 C368 1.257 . S
Zn349 N345 2.020 . S
Zn349 O356 1.975 . S
Zn349 N365 2.119 . S
Zn349 O370 2.019 . S
N350 Zn340 2.119 . S
N350 C352 1.334 . S
N350 C353 1.328 . S
C351 C352 1.391 . S
C351 N354 1.329 . S
C351 H372 0.930 . S
C352 N350 1.334 . S
C352 C351 1.391 . S
C352 H359 0.930 . S
C353 N350 1.328 . S
C353 C355 1.392 . S
C353 H360 0.930 . S
N354 C351 1.329 . S
N354 C355 1.331 . S
C355 C353 1.392 . S
C355 N354 1.331 . S
O356 Zn349 1.975 . S
O356 C357 1.252 . S
C357 O356 1.252 . S
C357 O358 1.252 . S
O358 Zn340 1.975 . S
O358 C357 1.252 . S
H359 C352 0.930 . S
H360 C353 0.930 . S
C361 C362 1.392 . S
C361 N365 1.328 . S
C361 H367 0.930 . S
C362 C361 1.392 . S
C362 N366 1.331 . S
C363 C364 1.391 . S
C363 N366 1.329 . S
C363 H373 0.930 . S
C364 C363 1.391 . S
C364 N365 1.334 . S
C364 H371 0.930 . S
N365 Zn349 2.119 . S
N365 C361 1.328 . S
N365 C364 1.334 . S
N366 C362 1.331 . S
N366 C363 1.329 . S
H367 C361 0.930 . S
C368 O348 1.257 . S
C368 O369 1.244 . S
O369 C368 1.244 . S
O370 C346 1.257 . S
O370 Zn349 2.019 . S
H371 C364 0.930 . S
H372 C351 0.930 . S
H373 C363 0.930 . S
Zn374 N378 2.020 . S
Zn374 O382 2.019 . S
Zn374 N384 2.119 . S
Zn374 O392 1.975 . S
C375 N376 1.334 . S
C375 N379 1.336 . S
N376 C375 1.334 . S
N376 C377 1.334 . S
C377 N376 1.334 . S
C377 N378 1.336 . S
N378 Zn374 2.020 . S
N378 C377 1.336 . S
N378 N379 1.354 . S
N379 C375 1.336 . S
N379 N378 1.354 . S
N379 Zn383 2.020 . S
C380 O381 1.244 . S
C380 O404 1.257 . S
O381 C380 1.244 . S
O382 Zn374 2.019 . S
O382 C402 1.257 . S
Zn383 N379 2.020 . S
Zn383 O390 1.975 . S
Zn383 N399 2.119 . S
Zn383 O404 2.019 . S
N384 Zn374 2.119 . S
N384 C386 1.334 . S
N384 C387 1.328 . S
C385 C386 1.391 . S
C385 N388 1.329 . S
C385 H406 0.930 . S
C386 N384 1.334 . S
C386 C385 1.391 . S
C386 H393 0.930 . S
C387 N384 1.328 . S
C387 C389 1.392 . S
C387 H394 0.930 . S
N388 C385 1.329 . S
N388 C389 1.331 . S
C389 C387 1.392 . S
C389 N388 1.331 . S
O390 Zn383 1.975 . S
O390 C391 1.252 . S
C391 O390 1.252 . S
C391 O392 1.252 . S
O392 Zn374 1.975 . S
O392 C391 1.252 . S
H393 C386 0.930 . S
H394 C387 0.930 . S
C395 C396 1.392 . S
C395 N399 1.328 . S
C395 H401 0.930 . S
C396 C395 1.392 . S
C396 N400 1.331 . S
C397 C398 1.391 . S
C397 N400 1.329 . S
C397 H407 0.930 . S
C398 C397 1.391 . S
C398 N399 1.334 . S
C398 H405 0.930 . S
N399 Zn383 2.119 . S
N399 C395 1.328 . S
N399 C398 1.334 . S
N400 C396 1.331 . S
N400 C397 1.329 . S
H401 C395 0.930 . S
C402 O382 1.257 . S
C402 O403 1.244 . S
O403 C402 1.244 . S
O404 C380 1.257 . S
O404 Zn383 2.019 . S
H405 C398 0.930 . S
H406 C385 0.930 . S
H407 C397 0.930 . S
C408 C409 1.387 . S
C408 H412 0.950 . S
C408 C417 1.390 1_556 S
C409 C408 1.387 . S
C409 C411 1.387 . S
H410 C417 0.950 . S
C411 C409 1.387 . S
C411 C413 1.390 1_565 S
C411 H415 0.950 . S
H412 C408 0.950 . S
C413 C411 1.390 1_545 S
C413 C414 1.387 1_556 S
C413 H416 0.950 . S
C414 C413 1.387 1_554 S
C414 C417 1.387 1_545 S
H415 C411 0.950 . S
H416 C413 0.950 . S
C417 C408 1.390 1_554 S
C417 H410 0.950 . S
C417 C414 1.387 1_565 S
C418 C419 1.387 1_556 S
C418 H422 0.950 . S
C418 C427 1.390 1_655 S
C419 C418 1.387 1_554 S
C419 C421 1.387 1_655 S
H420 C427 0.950 . S
C421 C419 1.387 1_455 S
C421 C423 1.390 1_554 S
C421 H425 0.950 . S
H422 C418 0.950 . S
C423 C421 1.390 1_556 S
C423 C424 1.387 . S
C423 H426 0.950 . S
C424 C423 1.387 . S
C424 C427 1.387 . S
H425 C421 0.950 . S
H426 C423 0.950 . S
C427 C418 1.390 1_455 S
C427 H420 0.950 . S
C427 C424 1.387 . S
C428 C429 1.387 1_556 S
C428 H432 0.950 . S
C428 C437 1.390 . S
C429 C428 1.387 1_554 S
C429 C431 1.387 . S
H430 C437 0.950 . S
C431 C429 1.387 . S
C431 C433 1.390 1_554 S
C431 H435 0.950 . S
H432 C428 0.950 . S
C433 C431 1.390 1_556 S
C433 C434 1.387 . S
C433 H436 0.950 . S
C434 C433 1.387 . S
C434 C437 1.387 . S
H435 C431 0.950 . S
H436 C433 0.950 . S
C437 C428 1.390 . S
C437 H430 0.950 . S
C437 C434 1.387 . S
C438 C439 1.387 . S
C438 H442 0.950 . S
C438 C447 1.390 1_455 S
C439 C438 1.387 . S
C439 C441 1.387 1_455 S
H440 C447 0.950 1_455 S
C441 C439 1.387 1_655 S
C441 C443 1.390 . S
C441 H445 0.950 . S
H442 C438 0.950 . S
C443 C441 1.390 . S
C443 C444 1.387 . S
C443 H446 0.950 . S
C444 C443 1.387 . S
C444 C447 1.387 . S
H445 C441 0.950 . S
H446 C443 0.950 . S
C447 C438 1.390 1_655 S
C447 H440 0.950 1_655 S
C447 C444 1.387 . S
C448 C449 1.387 . S
C448 H452 0.950 . S
C448 C457 1.390 . S
C449 C448 1.387 . S
C449 C451 1.387 . S
H450 C457 0.950 . S
C451 C449 1.387 . S
C451 C453 1.390 . S
C451 H455 0.950 . S
H452 C448 0.950 . S
C453 C451 1.390 . S
C453 C454 1.387 . S
C453 H456 0.950 . S
C454 C453 1.387 . S
C454 C457 1.387 . S
H455 C451 0.950 . S
H456 C453 0.950 . S
C457 C448 1.390 . S
C457 H450 0.950 . S
C457 C454 1.387 . S
C458 C459 1.387 . S
C458 H462 0.950 . S
C458 C467 1.390 1_565 S
C459 C458 1.387 . S
C459 C461 1.387 1_565 S
H460 C467 0.950 1_565 S
C461 C459 1.387 1_545 S
C461 C463 1.390 . S
C461 H465 0.950 . S
H462 C458 0.950 . S
C463 C461 1.390 . S
C463 C464 1.387 . S
C463 H466 0.950 . S
C464 C463 1.387 . S
C464 C467 1.387 . S
H465 C461 0.950 . S
H466 C463 0.950 . S
C467 C458 1.390 1_545 S
C467 H460 0.950 1_545 S
C467 C464 1.387 . S
C468 C469 1.387 1_545 S
C468 H472 0.950 . S
C468 C477 1.390 1_556 S
C469 C468 1.387 1_565 S
C469 C471 1.387 1_556 S
H470 C477 0.950 . S
C471 C469 1.387 1_554 S
C471 C473 1.390 1_565 S
C471 H475 0.950 . S
H472 C468 0.950 . S
C473 C471 1.390 1_545 S
C473 C474 1.387 . S
C473 H476 0.953 . S
C474 C473 1.387 . S
C474 C477 1.387 . S
H475 C471 0.950 . S
H476 C473 0.953 . S
C477 C468 1.390 1_554 S
C477 H470 0.950 . S
C477 C474 1.387 . S
C478 C479 1.387 1_554 S
C478 H482 0.950 . S
C478 C487 1.390 1_455 S
C479 C478 1.387 1_556 S
C479 C481 1.387 1_455 S
H480 C487 0.950 . S
C481 C479 1.387 1_655 S
C481 C483 1.390 1_556 S
C481 H485 0.950 . S
H482 C478 0.950 . S
C483 C481 1.390 1_554 S
C483 C484 1.387 . S
C483 H486 0.950 . S
C484 C483 1.387 . S
C484 C487 1.387 . S
H485 C481 0.950 . S
H486 C483 0.950 . S
C487 C478 1.390 1_655 S
C487 H480 0.950 . S
C487 C484 1.387 . S
C488 C489 1.387 . S
C488 H492 0.950 . S
C488 C497 1.390 1_554 S
C489 C488 1.387 . S
C489 C491 1.387 . S
H490 C497 0.950 . S
C491 C489 1.387 . S
C491 C493 1.390 . S
C491 H495 0.950 . S
H492 C488 0.950 . S
C493 C491 1.390 . S
C493 C494 1.387 1_554 S
C493 H496 0.950 . S
C494 C493 1.387 1_556 S
C494 C497 1.387 . S
H495 C491 0.950 . S
H496 C493 0.950 . S
C497 C488 1.390 1_556 S
C497 H490 0.950 . S
C497 C494 1.387 . S
C498 C499 1.387 . S
C498 H502 0.950 . S
C498 C507 1.390 1_655 S
C499 C498 1.387 . S
C499 C501 1.387 1_655 S
H500 C507 0.950 . S
C501 C499 1.387 1_455 S
C501 C503 1.390 . S
C501 H505 0.950 . S
H502 C498 0.950 . S
C503 C501 1.390 . S
C503 C504 1.387 . S
C503 H506 0.950 . S
C504 C503 1.387 . S
C504 C507 1.387 . S
H505 C501 0.950 . S
H506 C503 0.950 . S
C507 C498 1.390 1_455 S
C507 H500 0.950 . S
C507 C504 1.387 . S
C508 C509 1.387 . S
C508 H512 0.950 . S
C508 C517 1.390 . S
C509 C508 1.387 . S
C509 C511 1.387 . S
H510 C517 0.950 . S
C511 C509 1.387 . S
C511 C513 1.390 . S
C511 H515 0.950 . S
H512 C508 0.950 . S
C513 C511 1.390 . S
C513 C514 1.387 . S
C513 H516 0.950 . S
C514 C513 1.387 . S
C514 C517 1.387 . S
H515 C511 0.950 . S
H516 C513 0.950 . S
C517 C508 1.390 . S
C517 H510 0.950 . S
C517 C514 1.387 . S
C518 C519 1.387 . S
C518 H522 0.950 . S
C518 C527 1.390 . S
C519 C518 1.387 . S
C519 C521 1.387 . S
H520 C527 0.950 . S
C521 C519 1.387 . S
C521 C523 1.390 1_565 S
C521 H525 0.950 . S
H522 C518 0.950 . S
C523 C521 1.390 1_545 S
C523 C524 1.387 . S
C523 H526 0.950 . S
C524 C523 1.387 . S
C524 C527 1.387 1_545 S
H525 C521 0.950 . S
H526 C523 0.950 . S
C527 C518 1.390 . S
C527 H520 0.950 . S
C527 C524 1.387 1_565 S
C528 C529 1.387 . S
C528 H532 0.950 . S
C528 C537 1.390 . S
C529 C528 1.387 . S
C529 C531 1.387 . S
H530 C537 0.950 . S
C531 C529 1.387 . S
C531 C533 1.390 . S
C531 H535 0.950 . S
H532 C528 0.950 . S
C533 C531 1.390 . S
C533 C534 1.387 . S
C533 H536 0.950 . S
C534 C533 1.387 . S
C534 C537 1.387 . S
H535 C531 0.950 . S
H536 C533 0.950 . S
C537 C528 1.390 . S
C537 H530 0.950 . S
C537 C534 1.387 . S
C538 C539 1.387 . S
C538 H542 0.950 . S
C538 C547 1.390 1_545 S
C539 C538 1.387 . S
C539 C541 1.387 . S
H540 C547 0.950 . S
C541 C539 1.387 . S
C541 C543 1.390 1_545 S
C541 H545 0.950 . S
H542 C538 0.950 . S
C543 C541 1.390 1_565 S
C543 C544 1.387 . S
C543 H546 0.950 . S
C544 C543 1.387 . S
C544 C547 1.387 . S
H545 C541 0.950 . S
H546 C543 0.950 . S
C547 C538 1.390 1_565 S
C547 H540 0.950 . S
C547 C544 1.387 . S
C548 C549 1.390 . S
C548 H552 0.949 . S
C548 C557 1.386 1_655 S
C549 C548 1.390 . S
C549 C551 1.387 . S
H550 C557 0.950 . S
C551 C549 1.387 . S
C551 C553 1.386 1_655 S
C551 H555 0.950 . S
H552 C548 0.949 . S
C553 C551 1.386 1_455 S
C553 C554 1.390 . S
C553 H556 0.949 . S
C554 C553 1.390 . S
C554 C557 1.387 . S
H555 C551 0.950 . S
H556 C553 0.949 . S
C557 C548 1.386 1_455 S
C557 H550 0.950 . S
C557 C554 1.387 . S
C558 C559 1.387 . S
C558 H562 0.950 . S
C558 C567 1.390 . S
C559 C558 1.387 . S
C559 C561 1.387 . S
H560 C567 0.950 . S
C561 C559 1.387 . S
C561 C563 1.390 . S
C561 H565 0.950 . S
H562 C558 0.950 . S
C563 C561 1.390 . S
C563 C564 1.387 . S
C563 H566 0.950 . S
C564 C563 1.387 . S
C564 C567 1.387 . S
H565 C561 0.950 . S
H566 C563 0.950 . S
C567 C558 1.390 . S
C567 H560 0.950 . S
C567 C564 1.387 . S
C568 C569 1.387 . S
C568 H572 0.950 . S
C568 C577 1.390 1_545 S
C569 C568 1.387 . S
C569 C571 1.387 . S
H570 C577 0.950 . S
C571 C569 1.387 . S
C571 C573 1.390 1_545 S
C571 H575 0.950 . S
H572 C568 0.950 . S
C573 C571 1.390 1_565 S
C573 C574 1.387 . S
C573 H576 0.950 . S
C574 C573 1.387 . S
C574 C577 1.387 . S
H575 C571 0.950 . S
H576 C573 0.950 . S
C577 C568 1.390 1_565 S
C577 H570 0.950 . S
C577 C574 1.387 . S
C578 C579 1.387 . S
C578 H582 0.950 . S
C578 C587 1.378 1_655 S
C579 C578 1.387 . S
C579 C581 1.396 . S
H580 C587 0.947 . S
C581 C579 1.396 . S
C581 C583 1.379 1_655 S
C581 H585 0.947 . S
H582 C578 0.950 . S
C583 C581 1.379 1_455 S
C583 C584 1.387 . S
C583 H586 0.950 . S
C584 C583 1.387 . S
C584 C587 1.396 . S
H585 C581 0.947 . S
H586 C583 0.950 . S
C587 C578 1.378 1_455 S
C587 H580 0.947 . S
C587 C584 1.396 . S
C588 C589 1.387 . S
C588 H592 0.950 . S
C588 C597 1.390 . S
C589 C588 1.387 . S
C589 C591 1.387 . S
H590 C597 0.950 . S
C591 C589 1.387 . S
C591 C593 1.390 . S
C591 H595 0.950 . S
H592 C588 0.950 . S
C593 C591 1.390 . S
C593 C594 1.387 . S
C593 H596 0.950 . S
C594 C593 1.387 . S
C594 C597 1.387 . S
H595 C591 0.950 . S
H596 C593 0.950 . S
C597 C588 1.390 . S
C597 H590 0.950 . S
C597 C594 1.387 . S
C598 C599 1.387 . S
C598 H602 0.950 . S
C598 C607 1.390 . S
C599 C598 1.387 . S
C599 C601 1.387 . S
H600 C607 0.950 . S
C601 C599 1.387 . S
C601 C603 1.390 . S
C601 H605 0.950 . S
H602 C598 0.950 . S
C603 C601 1.390 . S
C603 C604 1.387 . S
C603 H606 0.950 . S
C604 C603 1.387 . S
C604 C607 1.387 . S
H605 C601 0.950 . S
H606 C603 0.950 . S
C607 C598 1.390 . S
C607 H600 0.950 . S
C607 C604 1.387 . S
C608 C609 1.387 . S
C608 H612 0.950 . S
C608 C617 1.390 . S
C609 C608 1.387 . S
C609 C611 1.387 . S
H610 C617 0.950 . S
C611 C609 1.387 . S
C611 C613 1.390 . S
C611 H615 0.950 . S
H612 C608 0.950 . S
C613 C611 1.390 . S
C613 C614 1.387 . S
C613 H616 0.950 . S
C614 C613 1.387 . S
C614 C617 1.387 . S
H615 C611 0.950 . S
H616 C613 0.950 . S
C617 C608 1.390 . S
C617 H610 0.950 . S
C617 C614 1.387 . S
C618 C619 1.387 . S
C618 H622 0.950 . S
C618 C627 1.390 . S
C619 C618 1.387 . S
C619 C621 1.387 . S
H620 C627 0.950 . S
C621 C619 1.387 . S
C621 C623 1.390 . S
C621 H625 0.950 . S
H622 C618 0.950 . S
C623 C621 1.390 . S
C623 C624 1.387 . S
C623 H626 0.950 . S
C624 C623 1.387 . S
C624 C627 1.387 . S
H625 C621 0.950 . S
H626 C623 0.950 . S
C627 C618 1.390 . S
C627 H620 0.950 . S
C627 C624 1.387 . S
C628 C629 1.387 . S
C628 H632 0.950 . S
C628 C637 1.390 . S
C629 C628 1.387 . S
C629 C631 1.387 . S
H630 C637 0.950 . S
C631 C629 1.387 . S
C631 C633 1.390 . S
C631 H635 0.950 . S
H632 C628 0.950 . S
C633 C631 1.390 . S
C633 C634 1.387 . S
C633 H636 0.950 . S
C634 C633 1.387 . S
C634 C637 1.387 . S
H635 C631 0.950 . S
H636 C633 0.950 . S
C637 C628 1.390 . S
C637 H630 0.950 . S
C637 C634 1.387 . S
C638 C639 1.387 . S
C638 H642 0.950 . S
C638 C647 1.390 . S
C639 C638 1.387 . S
C639 C641 1.387 . S
H640 C647 0.950 . S
C641 C639 1.387 . S
C641 C643 1.390 . S
C641 H645 0.950 . S
H642 C638 0.950 . S
C643 C641 1.390 . S
C643 C644 1.387 . S
C643 H646 0.950 . S
C644 C643 1.387 . S
C644 C647 1.387 . S
H645 C641 0.950 . S
H646 C643 0.950 . S
C647 C638 1.390 . S
C647 H640 0.950 . S
C647 C644 1.387 . S
C648 C649 1.387 . S
C648 H652 0.950 . S
C648 C657 1.390 . S
C649 C648 1.387 . S
C649 C651 1.387 . S
H650 C657 0.950 . S
C651 C649 1.387 . S
C651 C653 1.390 . S
C651 H655 0.950 . S
H652 C648 0.950 . S
C653 C651 1.390 . S
C653 C654 1.387 . S
C653 H656 0.950 . S
C654 C653 1.387 . S
C654 C657 1.387 . S
H655 C651 0.950 . S
H656 C653 0.950 . S
C657 C648 1.390 . S
C657 H650 0.950 . S
C657 C654 1.387 . S
C658 C659 1.387 . S
C658 H662 0.950 . S
C658 C667 1.390 . S
C659 C658 1.387 . S
C659 C661 1.387 . S
H660 C667 0.950 . S
C661 C659 1.387 . S
C661 C663 1.390 . S
C661 H665 0.950 . S
H662 C658 0.950 . S
C663 C661 1.390 . S
C663 C664 1.387 . S
C663 H666 0.950 . S
C664 C663 1.387 . S
C664 C667 1.387 . S
H665 C661 0.950 . S
H666 C663 0.950 . S
C667 C658 1.390 . S
C667 H660 0.950 . S
C667 C664 1.387 . S
C668 C669 1.387 . S
C668 H672 0.950 . S
C668 C677 1.390 . S
C669 C668 1.387 . S
C669 C671 1.387 . S
H670 C677 0.950 . S
C671 C669 1.387 . S
C671 C673 1.390 . S
C671 H675 0.950 . S
H672 C668 0.950 . S
C673 C671 1.390 . S
C673 C674 1.387 . S
C673 H676 0.950 . S
C674 C673 1.387 . S
C674 C677 1.387 . S
H675 C671 0.950 . S
H676 C673 0.950 . S
C677 C668 1.390 . S
C677 H670 0.950 . S
C677 C674 1.387 . S
C678 C679 1.387 . S
C678 H682 0.950 . S
C678 C687 1.390 . S
C679 C678 1.387 . S
C679 C681 1.387 . S
H680 C687 0.950 . S
C681 C679 1.387 . S
C681 C683 1.390 . S
C681 H685 0.950 . S
H682 C678 0.950 . S
C683 C681 1.390 . S
C683 C684 1.387 . S
C683 H686 0.950 . S
C684 C683 1.387 . S
C684 C687 1.387 . S
H685 C681 0.950 . S
H686 C683 0.950 . S
C687 C678 1.390 . S
C687 H680 0.950 . S
C687 C684 1.387 . S
C688 C689 1.387 . S
C688 H692 0.950 . S
C688 C697 1.390 . S
C689 C688 1.387 . S
C689 C691 1.387 . S
H690 C697 0.950 . S
C691 C689 1.387 . S
C691 C693 1.390 . S
C691 H695 0.950 . S
H692 C688 0.950 . S
C693 C691 1.390 . S
C693 C694 1.387 . S
C693 H696 0.950 . S
C694 C693 1.387 . S
C694 C697 1.387 . S
H695 C691 0.950 . S
H696 C693 0.950 . S
C697 C688 1.390 . S
C697 H690 0.950 . S
C697 C694 1.387 . S
C698 C699 1.387 . S
C698 H702 0.950 . S
C698 C707 1.390 . S
C699 C698 1.387 . S
C699 C701 1.387 . S
H700 C707 0.950 . S
C701 C699 1.387 . S
C701 C703 1.390 . S
C701 H705 0.950 . S
H702 C698 0.950 . S
C703 C701 1.390 . S
C703 C704 1.387 . S
C703 H706 0.950 . S
C704 C703 1.387 . S
C704 C707 1.387 . S
H705 C701 0.950 . S
H706 C703 0.950 . S
C707 C698 1.390 . S
C707 H700 0.950 . S
C707 C704 1.387 . S
C708 C709 1.387 . S
C708 H712 0.950 . S
C708 C717 1.390 . S
C709 C708 1.387 . S
C709 C711 1.387 . S
H710 C717 0.950 . S
C711 C709 1.387 . S
C711 C713 1.390 . S
C711 H715 0.950 . S
H712 C708 0.950 . S
C713 C711 1.390 . S
C713 C714 1.387 . S
C713 H716 0.950 . S
C714 C713 1.387 . S
C714 C717 1.387 . S
H715 C711 0.950 . S
H716 C713 0.950 . S
C717 C708 1.390 . S
C717 H710 0.950 . S
C717 C714 1.387 . S
C718 C719 1.387 . S
C718 H722 0.950 . S
C718 C727 1.390 . S
C719 C718 1.387 . S
C719 C721 1.387 . S
H720 C727 0.950 . S
C721 C719 1.387 . S
C721 C723 1.390 . S
C721 H725 0.950 . S
H722 C718 0.950 . S
C723 C721 1.390 . S
C723 C724 1.387 . S
C723 H726 0.950 . S
C724 C723 1.387 . S
C724 C727 1.387 . S
H725 C721 0.950 . S
H726 C723 0.950 . S
C727 C718 1.390 . S
C727 H720 0.950 . S
C727 C724 1.387 . S
C728 C729 1.387 . S
C728 H732 0.950 . S
C728 C737 1.390 . S
C729 C728 1.387 . S
C729 C731 1.387 . S
H730 C737 0.950 . S
C731 C729 1.387 . S
C731 C733 1.390 . S
C731 H735 0.950 . S
H732 C728 0.950 . S
C733 C731 1.390 . S
C733 C734 1.387 . S
C733 H736 0.950 . S
C734 C733 1.387 . S
C734 C737 1.387 . S
H735 C731 0.950 . S
H736 C733 0.950 . S
C737 C728 1.390 . S
C737 H730 0.950 . S
C737 C734 1.387 . S
C738 C739 1.387 . S
C738 H742 0.950 . S
C738 C747 1.390 . S
C739 C738 1.387 . S
C739 C741 1.387 . S
H740 C747 0.950 . S
C741 C739 1.387 . S
C741 C743 1.390 . S
C741 H745 0.950 . S
H742 C738 0.950 . S
C743 C741 1.390 . S
C743 C744 1.387 . S
C743 H746 0.950 . S
C744 C743 1.387 . S
C744 C747 1.387 . S
H745 C741 0.950 . S
H746 C743 0.950 . S
C747 C738 1.390 . S
C747 H740 0.950 . S
C747 C744 1.387 . S
C748 C749 1.387 . S
C748 H752 0.950 . S
C748 C757 1.390 . S
C749 C748 1.387 . S
C749 C751 1.387 . S
H750 C757 0.950 . S
C751 C749 1.387 . S
C751 C753 1.390 . S
C751 H755 0.950 . S
H752 C748 0.950 . S
C753 C751 1.390 . S
C753 C754 1.387 . S
C753 H756 0.950 . S
C754 C753 1.387 . S
C754 C757 1.387 . S
H755 C751 0.950 . S
H756 C753 0.950 . S
C757 C748 1.390 . S
C757 H750 0.950 . S
C757 C754 1.387 . S
C758 C759 1.387 . S
C758 H762 0.950 . S
C758 C767 1.390 . S
C759 C758 1.387 . S
C759 C761 1.387 . S
H760 C767 0.950 . S
C761 C759 1.387 . S
C761 C763 1.390 . S
C761 H765 0.950 . S
H762 C758 0.950 . S
C763 C761 1.390 . S
C763 C764 1.387 . S
C763 H766 0.950 . S
C764 C763 1.387 . S
C764 C767 1.387 . S
H765 C761 0.950 . S
H766 C763 0.950 . S
C767 C758 1.390 . S
C767 H760 0.950 . S
C767 C764 1.387 . S
C768 C769 1.387 . S
C768 H772 0.950 . S
C768 C777 1.390 . S
C769 C768 1.387 . S
C769 C771 1.387 . S
H770 C777 0.950 . S
C771 C769 1.387 . S
C771 C773 1.390 . S
C771 H775 0.950 . S
H772 C768 0.950 . S
C773 C771 1.390 . S
C773 C774 1.387 . S
C773 H776 0.950 . S
C774 C773 1.387 . S
C774 C777 1.387 . S
H775 C771 0.950 . S
H776 C773 0.950 . S
C777 C768 1.390 . S
C777 H770 0.950 . S
C777 C774 1.387 . S
C778 C779 1.387 . S
C778 H782 0.950 . S
C778 C787 1.390 . S
C779 C778 1.387 . S
C779 C781 1.387 . S
H780 C787 0.950 . S
C781 C779 1.387 . S
C781 C783 1.390 . S
C781 H785 0.950 . S
H782 C778 0.950 . S
C783 C781 1.390 . S
C783 C784 1.387 . S
C783 H786 0.950 . S
C784 C783 1.387 . S
C784 C787 1.387 . S
H785 C781 0.950 . S
H786 C783 0.950 . S
C787 C778 1.390 . S
C787 H780 0.950 . S
C787 C784 1.387 . S
C788 C789 1.387 . S
C788 H792 0.950 . S
C788 C797 1.390 . S
C789 C788 1.387 . S
C789 C791 1.387 . S
H790 C797 0.950 . S
C791 C789 1.387 . S
C791 C793 1.390 . S
C791 H795 0.950 . S
H792 C788 0.950 . S
C793 C791 1.390 . S
C793 C794 1.387 . S
C793 H796 0.950 . S
C794 C793 1.387 . S
C794 C797 1.387 . S
H795 C791 0.950 . S
H796 C793 0.950 . S
C797 C788 1.390 . S
C797 H790 0.950 . S
C797 C794 1.387 . S
C798 C799 1.387 . S
C798 H802 0.950 . S
C798 C807 1.390 . S
C799 C798 1.387 . S
C799 C801 1.387 . S
H800 C807 0.950 . S
C801 C799 1.387 . S
C801 C803 1.390 . S
C801 H805 0.950 . S
H802 C798 0.950 . S
C803 C801 1.390 . S
C803 C804 1.387 . S
C803 H806 0.950 . S
C804 C803 1.387 . S
C804 C807 1.387 . S
H805 C801 0.950 . S
H806 C803 0.950 . S
C807 C798 1.390 . S
C807 H800 0.950 . S
C807 C804 1.387 . S
C808 C809 1.387 . S
C808 H812 0.950 . S
C808 C817 1.390 . S
C809 C808 1.387 . S
C809 C811 1.387 . S
H810 C817 0.950 . S
C811 C809 1.387 . S
C811 C813 1.390 . S
C811 H815 0.950 . S
H812 C808 0.950 . S
C813 C811 1.390 . S
C813 C814 1.387 . S
C813 H816 0.950 . S
C814 C813 1.387 . S
C814 C817 1.387 . S
H815 C811 0.950 . S
H816 C813 0.950 . S
C817 C808 1.390 . S
C817 H810 0.950 . S
C817 C814 1.387 . S
C818 C819 1.387 . S
C818 H822 0.950 . S
C818 C827 1.390 . S
C819 C818 1.387 . S
C819 C821 1.387 . S
H820 C827 0.950 . S
C821 C819 1.387 . S
C821 C823 1.390 . S
C821 H825 0.950 . S
H822 C818 0.950 . S
C823 C821 1.390 . S
C823 C824 1.387 . S
C823 H826 0.950 . S
C824 C823 1.387 . S
C824 C827 1.387 . S
H825 C821 0.950 . S
H826 C823 0.950 . S
C827 C818 1.390 . S
C827 H820 0.950 . S
C827 C824 1.387 . S
C409 C241 1.759 . S
C414 C22 1.797 . S
C419 C56 1.798 . S
C424 C275 1.759 . S
C429 C90 1.797 . S
C434 C207 1.759 . S
C439 C124 1.798 . S
C444 C377 1.759 . S
C449 C307 1.760 . S
C454 C158 1.797 . S
C459 C192 1.798 . S
C464 C341 1.758 . S
C469 C219 1.798 . S
C474 C35 1.758 . S
C479 C253 1.796 . S
C484 C69 1.760 . S
C489 C1 1.759 . S
C494 C287 1.797 . S
C499 C328 1.797 . S
C504 C171 1.759 . S
C509 C362 1.796 . S
C514 C103 1.760 . S
C519 C137 1.758 . S
C524 C389 1.798 . S
C529 C3 1.593 . S
C534 C105 1.594 . S
C539 C37 1.596 . S
C544 C139 1.596 . S
C549 C71 1.594 . S
C554 C173 1.593 . S
C559 C309 1.594 . S
C564 C205 1.592 . S
C569 C343 1.593 . S
C574 C239 1.593 . S
C579 C375 1.596 . S
C584 C273 1.594 . S
C589 C17 2.065 . S
C594 C49 1.713 . S
C599 C51 2.064 . S
C604 C83 1.710 . S
C609 C85 2.063 . S
C614 C15 1.709 . S
C619 C185 1.709 . S
C624 C119 2.064 . S
C629 C153 2.063 . S
C634 C117 1.708 . S
C639 C151 1.708 . S
C644 C187 2.063 . S
C649 C260 1.709 . S
C654 C221 2.064 . S
C659 C255 2.064 . S
C664 C294 1.710 . S
C669 C289 2.064 . S
C674 C226 1.709 . S
C679 C323 2.064 . S
C684 C396 1.710 . S
C689 C357 2.064 . S
C694 C321 1.710 . S
C699 C391 2.063 . S
C704 C355 1.708 . S
C709 C368 1.261 . S
C714 C6 1.254 . S
C719 C380 1.261 . S
C724 C40 1.255 . S
C729 C74 1.254 . S
C734 C334 1.261 . S
C739 C108 1.254 . S
C744 C278 1.261 . S
C749 C142 1.254 . S
C754 C210 1.261 . S
C759 C244 1.261 . S
C764 C176 1.254 . S
C769 C232 1.254 . S
C774 C164 1.261 . S
C779 C266 1.254 . S
C784 C198 1.261 . S
C789 C300 1.254 . S
C794 C130 1.261 . S
C799 C312 1.255 . S
C804 C96 1.261 . S
C809 C346 1.255 . S
C814 C28 1.261 . S
C819 C402 1.255 . S
C824 C62 1.261 . S
