# Generated by pormake.
# Topology fst, (5)-cn, num edge types: 1
# Building blocks:
#     Node 0, Type 0, BuildingBlock: XOMCOT_clean_sbu_0, # of connection points: 5
#     Node 1, Type 0, BuildingBlock: XOMCOT_clean_sbu_0, # of connection points: 5
#     Node 2, Type 0, BuildingBlock: XOMCOT_clean_sbu_0, # of connection points: 5
#     Node 3, Type 0, BuildingBlock: XOMCOT_clean_sbu_0, # of connection points: 5
#     Node 4, Type 0, BuildingBlock: XOMCOT_clean_sbu_0, # of connection points: 5
#     Node 5, Type 0, BuildingBlock: XOMCOT_clean_sbu_0, # of connection points: 5
#     Node 6, Type 0, BuildingBlock: XOMCOT_clean_sbu_0, # of connection points: 5
#     Node 7, Type 0, BuildingBlock: XOMCOT_clean_sbu_0, # of connection points: 5
#     Node 8, Type 0, BuildingBlock: XOMCOT_clean_sbu_0, # of connection points: 5
#     Node 9, Type 0, BuildingBlock: XOMCOT_clean_sbu_0, # of connection points: 5
#     Node 10, Type 0, BuildingBlock: XOMCOT_clean_sbu_0, # of connection points: 5
#     Node 11, Type 0, BuildingBlock: XOMCOT_clean_sbu_0, # of connection points: 5
#     Edge 12, Type (0, 0), BuildingBlock: EZIPEK_clean_linker_0, # of connection points: 2
#     Edge 13, Type (0, 0), BuildingBlock: EZIPEK_clean_linker_0, # of connection points: 2
#     Edge 14, Type (0, 0), BuildingBlock: EZIPEK_clean_linker_0, # of connection points: 2
#     Edge 15, Type (0, 0), BuildingBlock: EZIPEK_clean_linker_0, # of connection points: 2
#     Edge 16, Type (0, 0), BuildingBlock: EZIPEK_clean_linker_0, # of connection points: 2
#     Edge 17, Type (0, 0), BuildingBlock: EZIPEK_clean_linker_0, # of connection points: 2
#     Edge 18, Type (0, 0), BuildingBlock: EZIPEK_clean_linker_0, # of connection points: 2
#     Edge 19, Type (0, 0), BuildingBlock: EZIPEK_clean_linker_0, # of connection points: 2
#     Edge 20, Type (0, 0), BuildingBlock: EZIPEK_clean_linker_0, # of connection points: 2
#     Edge 21, Type (0, 0), BuildingBlock: EZIPEK_clean_linker_0, # of connection points: 2
#     Edge 22, Type (0, 0), BuildingBlock: EZIPEK_clean_linker_0, # of connection points: 2
#     Edge 23, Type (0, 0), BuildingBlock: EZIPEK_clean_linker_0, # of connection points: 2
#     Edge 24, Type (0, 0), BuildingBlock: EZIPEK_clean_linker_0, # of connection points: 2
#     Edge 25, Type (0, 0), BuildingBlock: EZIPEK_clean_linker_0, # of connection points: 2
#     Edge 26, Type (0, 0), BuildingBlock: EZIPEK_clean_linker_0, # of connection points: 2
#     Edge 27, Type (0, 0), BuildingBlock: EZIPEK_clean_linker_0, # of connection points: 2
#     Edge 28, Type (0, 0), BuildingBlock: EZIPEK_clean_linker_0, # of connection points: 2
#     Edge 29, Type (0, 0), BuildingBlock: EZIPEK_clean_linker_0, # of connection points: 2
#     Edge 30, Type (0, 0), BuildingBlock: EZIPEK_clean_linker_0, # of connection points: 2
#     Edge 31, Type (0, 0), BuildingBlock: EZIPEK_clean_linker_0, # of connection points: 2
#     Edge 32, Type (0, 0), BuildingBlock: EZIPEK_clean_linker_0, # of connection points: 2
#     Edge 33, Type (0, 0), BuildingBlock: EZIPEK_clean_linker_0, # of connection points: 2
#     Edge 34, Type (0, 0), BuildingBlock: EZIPEK_clean_linker_0, # of connection points: 2
#     Edge 35, Type (0, 0), BuildingBlock: EZIPEK_clean_linker_0, # of connection points: 2
#     Edge 36, Type (0, 0), BuildingBlock: EZIPEK_clean_linker_0, # of connection points: 2
#     Edge 37, Type (0, 0), BuildingBlock: EZIPEK_clean_linker_0, # of connection points: 2
#     Edge 38, Type (0, 0), BuildingBlock: EZIPEK_clean_linker_0, # of connection points: 2
#     Edge 39, Type (0, 0), BuildingBlock: EZIPEK_clean_linker_0, # of connection points: 2
#     Edge 40, Type (0, 0), BuildingBlock: EZIPEK_clean_linker_0, # of connection points: 2
#     Edge 41, Type (0, 0), BuildingBlock: EZIPEK_clean_linker_0, # of connection points: 2
# Relax obj value: 0.176
# Max RMSD: 0.157
# Mean RMSD: 0.157
data_MOF--net-fst--node1-XOMCOT_clean_sbu_0--edge1-EZIPEK_clean_linker_0
_symmetry_space_group_name_H-M    P1
_symmetry_Int_Tables_number       1
_symmetry_cell_setting            triclinic
loop_
_symmetry_equiv_pos_as_xyz
'x, y, z'
_cell_length_a     55.547506
_cell_length_b     55.67909
_cell_length_c     13.766332
_cell_angle_alpha  90.058245
_cell_angle_beta   89.749889
_cell_angle_gamma 120.07102
loop_
_atom_site_label
_atom_site_type_symbol
_atom_site_fract_x
_atom_site_fract_y
_atom_site_fract_z
_atom_type_partial_charge
Co0 Co 0.11963 0.42175 0.99467 0.0
C1 C 0.12664 0.41088 0.20762 0.0
C2 C 0.09627 0.42317 0.18264 0.0
C3 C 0.0972 0.41925 0.28023 0.0
N4 N 0.11511 0.41867 0.13613 0.0
N5 N 0.1163 0.41167 0.29658 0.0
H6 H 0.14187 0.40451 0.19556 0.0
H7 H 0.08222 0.42858 0.1479 0.0
C8 C 0.06029 0.38137 0.92435 0.0
O9 O 0.06626 0.39171 0.83633 0.0
N10 N 0.12383 0.42555 0.85316 0.0
C11 C 0.13347 0.44991 0.80586 0.0
C12 C 0.1349 0.44588 0.70846 0.0
C13 C 0.12063 0.40707 0.78259 0.0
N14 N 0.12683 0.41902 0.69303 0.0
C15 C 0.13254 0.47682 0.03994 0.0
C16 C 0.08716 0.47565 0.95325 0.0
C17 C 0.10828 0.50071 0.99129 0.0
C18 C 0.13099 0.50106 0.03624 0.0
C19 C 0.08976 0.45193 0.95689 0.0
N20 N 0.11251 0.45279 0.99837 0.0
H21 H 0.15024 0.4775 0.07484 0.0
H22 H 0.07373 0.43335 0.9241 0.0
H23 H 0.13974 0.4697 0.83952 0.0
H24 H 0.11374 0.38544 0.79631 0.0
O25 O 0.15981 0.44283 1.00313 0.0
O26 O 0.13517 0.39711 0.9945 0.0
O27 O 0.07861 0.39283 0.99049 0.0
C28 C 0.15962 0.41943 0.99953 0.0
H29 H 0.08456 0.42152 0.33556 0.0
H30 H 0.14186 0.4617 0.65264 0.0
H31 H 0.06919 0.47465 0.91874 0.0
H32 H 0.14754 0.52003 0.06737 0.0
Co33 Co 0.696 0.12034 0.09181 0.0
C34 C 0.69716 0.12426 0.31163 0.0
C35 C 0.71925 0.10516 0.2523 0.0
C36 C 0.72046 0.10435 0.35172 0.0
N37 N 0.70487 0.11777 0.2265 0.0
N38 N 0.70657 0.11628 0.3886 0.0
H39 H 0.68457 0.13391 0.3184 0.0
H40 H 0.72785 0.09654 0.20168 0.0
C41 C 0.66543 0.05823 0.03323 0.0
O42 O 0.65791 0.06236 0.94744 0.0
N43 N 0.6877 0.12263 0.95581 0.0
C44 C 0.67473 0.13596 0.92208 0.0
C45 C 0.67556 0.13634 0.82237 0.0
C46 C 0.69696 0.1157 0.87521 0.0
N47 N 0.68946 0.12362 0.79312 0.0
C48 C 0.66074 0.1406 0.16216 0.0
C49 C 0.61117 0.09652 0.09821 0.0
C50 C 0.6119 0.12099 0.12549 0.0
C51 C 0.6368 0.14298 0.16086 0.0
C52 C 0.63556 0.09522 0.0986 0.0
N53 N 0.66031 0.11727 0.12793 0.0
H54 H 0.68009 0.15844 0.184 0.0
H55 H 0.6343 0.0771 0.06775 0.0
H56 H 0.66632 0.146 0.96645 0.0
H57 H 0.70927 0.10558 0.8765 0.0
O58 O 0.71892 0.16042 0.09392 0.0
O59 O 0.73436 0.13187 0.05633 0.0
O60 O 0.67973 0.07855 0.0902 0.0
C61 C 0.73968 0.15728 0.06847 0.0
H62 H 0.73022 0.09521 0.394 0.0
H63 H 0.66715 0.14576 0.77471 0.0
H64 H 0.59223 0.07916 0.0701 0.0
H65 H 0.63806 0.16229 0.18241 0.0
Co66 Co 0.58498 0.70179 0.07138 0.0
C67 C 0.58306 0.70148 0.29239 0.0
C68 C 0.62385 0.7268 0.23204 0.0
C69 C 0.62599 0.7281 0.33161 0.0
N70 N 0.59701 0.71012 0.20667 0.0
N71 N 0.60041 0.71216 0.36914 0.0
H72 H 0.56101 0.68752 0.29998 0.0
H73 H 0.6409 0.7371 0.18103 0.0
C74 C 0.61666 0.67294 0.11184 0.0
O75 O 0.60227 0.66459 0.19294 0.0
N76 N 0.57371 0.69429 0.93607 0.0
C77 C 0.54731 0.68226 0.90326 0.0
C78 C 0.54767 0.68243 0.80335 0.0
C79 C 0.58985 0.7017 0.85526 0.0
N80 N 0.57431 0.69465 0.77347 0.0
C81 C 0.53093 0.66286 0.1463 0.0
C82 C 0.52792 0.61619 0.06344 0.0
C83 C 0.50386 0.61427 0.10366 0.0
C84 C 0.50563 0.6378 0.14732 0.0
C85 C 0.55255 0.64175 0.06167 0.0
N86 N 0.55409 0.66481 0.10331 0.0
H87 H 0.5313 0.68116 0.17425 0.0
H88 H 0.56952 0.64321 0.01932 0.0
H89 H 0.52902 0.67474 0.94865 0.0
H90 H 0.61236 0.71264 0.85615 0.0
O91 O 0.56564 0.72252 0.08354 0.0
O92 O 0.60974 0.74074 0.03923 0.0
O93 O 0.61205 0.68761 0.05117 0.0
C94 C 0.58871 0.74433 0.05716 0.0
H95 H 0.64485 0.73961 0.37346 0.0
H96 H 0.52981 0.67479 0.756 0.0
H97 H 0.52712 0.59853 0.02712 0.0
H98 H 0.48728 0.63715 0.17762 0.0
Co99 Co 0.8805 0.57289 0.01752 0.0
C100 C 0.87592 0.58538 0.23069 0.0
C101 C 0.90079 0.56641 0.20637 0.0
C102 C 0.9004 0.57086 0.30396 0.0
N103 N 0.88509 0.57495 0.15927 0.0
N104 N 0.88475 0.58264 0.31979 0.0
H105 H 0.86321 0.59475 0.21853 0.0
H106 H 0.91196 0.55738 0.17268 0.0
C107 C 0.94055 0.60885 0.94304 0.0
O108 O 0.93354 0.60029 0.8535 0.0
N109 N 0.87569 0.56992 0.87616 0.0
C110 C 0.86347 0.54541 0.8289 0.0
C111 C 0.86244 0.54988 0.73186 0.0
C112 C 0.88062 0.58908 0.80598 0.0
N113 N 0.87328 0.57726 0.71643 0.0
C114 C 0.86449 0.51663 0.06043 0.0
C115 C 0.90616 0.51434 0.95766 0.0
C116 C 0.88492 0.49008 0.99974 0.0
C117 C 0.86404 0.49137 0.0527 0.0
C118 C 0.90566 0.53906 0.96613 0.0
N119 N 0.88487 0.54008 1.01619 0.0
H120 H 0.84809 0.5173 0.10066 0.0
H121 H 0.92149 0.55678 0.92885 0.0
H122 H 0.85526 0.52527 0.8625 0.0
H123 H 0.88953 0.61104 0.82 0.0
O124 O 0.84041 0.554 0.02859 0.0
O125 O 0.86748 0.59957 0.02169 0.0
O126 O 0.92234 0.59977 1.01115 0.0
C127 C 0.84234 0.57822 0.02717 0.0
H128 H 0.91085 0.56581 0.35972 0.0
H129 H 0.85401 0.53403 0.67615 0.0
H130 H 0.9226 0.51398 0.91618 0.0
H131 H 0.84736 0.47294 0.08657 0.0
Co132 Co 0.30593 0.88028 0.06048 0.0
C133 C 0.30733 0.87932 0.28132 0.0
C134 C 0.28043 0.89292 0.22289 0.0
C135 C 0.27919 0.89368 0.32246 0.0
N136 N 0.29811 0.88405 0.19636 0.0
N137 N 0.29609 0.8852 0.35877 0.0
H138 H 0.3219 0.872 0.28782 0.0
H139 H 0.26914 0.89851 0.1726 0.0
C140 C 0.33205 0.94071 0.09895 0.0
O141 O 0.34188 0.93562 0.17795 0.0
N142 N 0.31283 0.87622 0.92476 0.0
C143 C 0.32497 0.86198 0.89177 0.0
C144 C 0.32496 0.86217 0.79196 0.0
C145 C 0.3055 0.8849 0.84426 0.0
N146 N 0.31275 0.8765 0.76243 0.0
C147 C 0.34899 0.87022 0.13077 0.0
C148 C 0.39213 0.91428 0.03302 0.0
C149 C 0.39695 0.89438 0.07577 0.0
C150 C 0.37527 0.87244 0.12711 0.0
C151 C 0.36565 0.91121 0.03784 0.0
N152 N 0.34429 0.88947 0.08652 0.0
H153 H 0.33192 0.85185 0.16286 0.0
H154 H 0.36194 0.925 0.99427 0.0
H155 H 0.33257 0.85141 0.93718 0.0
H156 H 0.2946 0.89647 0.84536 0.0
O157 O 0.28717 0.84013 0.07539 0.0
O158 O 0.26635 0.86359 0.03355 0.0
O159 O 0.31757 0.92097 0.03923 0.0
C160 C 0.26432 0.83971 0.05175 0.0
H161 H 0.26686 0.89995 0.36516 0.0
H162 H 0.33276 0.85208 0.74443 0.0
H163 H 0.40824 0.93106 0.99055 0.0
H164 H 0.3782 0.85633 0.15913 0.0
Co165 Co 0.42071 0.30163 0.05699 0.0
C166 C 0.42257 0.30259 0.27544 0.0
C167 C 0.38118 0.28434 0.21804 0.0
C168 C 0.37942 0.28351 0.31783 0.0
N169 N 0.40814 0.29631 0.19121 0.0
N170 N 0.40536 0.29492 0.35362 0.0
H171 H 0.44497 0.31226 0.27969 0.0
H172 H 0.36392 0.27668 0.16807 0.0
C173 C 0.39979 0.33871 0.9795 0.0
O174 O 0.42243 0.35205 0.92632 0.0
N175 N 0.43256 0.30624 0.92064 0.0
C176 C 0.45774 0.312 0.88613 0.0
C177 C 0.4573 0.31161 0.78638 0.0
C178 C 0.41679 0.30131 0.84 0.0
N179 N 0.43166 0.30502 0.75752 0.0
C180 C 0.47866 0.33877 0.09402 0.0
C181 C 0.47656 0.38702 0.11167 0.0
C182 C 0.50236 0.38869 0.09904 0.0
C183 C 0.5034 0.3642 0.09551 0.0
C184 C 0.45228 0.36099 0.11009 0.0
N185 N 0.45342 0.33747 0.09077 0.0
H186 H 0.48009 0.32021 0.09006 0.0
H187 H 0.43285 0.3602 0.12198 0.0
H188 H 0.47517 0.315 0.92897 0.0
H189 H 0.39485 0.29461 0.84158 0.0
O190 O 0.43674 0.27834 0.07694 0.0
O191 O 0.39339 0.26297 0.03072 0.0
O192 O 0.39603 0.31821 0.03196 0.0
C193 C 0.41289 0.25742 0.05235 0.0
H194 H 0.36059 0.27508 0.36109 0.0
H195 H 0.47425 0.3151 0.73841 0.0
H196 H 0.47518 0.40564 0.11975 0.0
H197 H 0.52314 0.36475 0.09013 0.0
Co198 Co 0.57886 0.884 0.03235 0.0
C199 C 0.57637 0.88355 0.81443 0.0
C200 C 0.61807 0.90481 0.86979 0.0
C201 C 0.61944 0.90553 0.76997 0.0
N202 N 0.59117 0.89121 0.89793 0.0
N203 N 0.5933 0.8922 0.73547 0.0
H204 H 0.5539 0.87161 0.81124 0.0
H205 H 0.63556 0.91306 0.91866 0.0
C206 C 0.60456 0.94185 0.11976 0.0
O207 O 0.58182 0.93413 0.17101 0.0
N208 N 0.56691 0.87644 0.16863 0.0
C209 C 0.54149 0.857 0.20118 0.0
C210 C 0.54139 0.8565 0.30092 0.0
C211 C 0.5823 0.88671 0.25047 0.0
N212 N 0.56693 0.8752 0.33173 0.0
C213 C 0.52156 0.86625 0.99594 0.0
C214 C 0.5264 0.91803 0.99152 0.0
C215 C 0.49995 0.89448 1.00124 0.0
C216 C 0.49758 0.86833 0.99811 0.0
C217 C 0.54994 0.91491 0.98918 0.0
N218 N 0.54737 0.88934 1.00152 0.0
H219 H 0.51914 0.8458 0.99543 0.0
H220 H 0.57006 0.93319 0.97998 0.0
H221 H 0.52424 0.84299 0.15666 0.0
H222 H 0.60425 0.90198 0.25078 0.0
O223 O 0.56143 0.84444 1.01027 0.0
O224 O 0.60506 0.8713 0.05617 0.0
O225 O 0.60509 0.92476 0.05912 0.0
C226 C 0.58502 0.84657 0.03428 0.0
H227 H 0.63813 0.91466 0.72582 0.0
H228 H 0.5241 0.84296 0.34753 0.0
H229 H 0.52884 0.93857 0.98866 0.0
H230 H 0.47736 0.84965 1.0012 0.0
Co231 Co 0.69421 0.57348 0.03549 0.0
C232 C 0.71203 0.58303 0.8225 0.0
C233 C 0.67039 0.57448 0.84829 0.0
C234 C 0.67529 0.57747 0.75035 0.0
N235 N 0.6932 0.57779 0.89464 0.0
N236 N 0.70138 0.5828 0.73357 0.0
H237 H 0.73271 0.58638 0.8337 0.0
H238 H 0.65099 0.56942 0.88295 0.0
C239 C 0.67151 0.60957 0.11787 0.0
O240 O 0.67064 0.60063 0.20653 0.0
N241 N 0.69468 0.56825 0.1766 0.0
C242 C 0.67941 0.54379 0.22312 0.0
C243 C 0.68522 0.54728 0.32028 0.0
C244 C 0.71108 0.58603 0.24716 0.0
N245 N 0.70499 0.5738 0.33637 0.0
C246 C 0.65276 0.51853 0.97862 0.0
C247 C 0.60929 0.51585 0.08632 0.0
C248 C 0.60547 0.49211 0.03841 0.0
C249 C 0.62728 0.49361 0.98236 0.0
C250 C 0.635 0.54019 0.08108 0.0
N251 N 0.6566 0.54131 0.02922 0.0
H252 H 0.66977 0.51936 0.9374 0.0
H253 H 0.63771 0.55731 0.12438 0.0
H254 H 0.66538 0.52422 0.18913 0.0
H255 H 0.72695 0.60735 0.23357 0.0
O256 O 0.71541 0.55479 0.0199 0.0
O257 O 0.73379 0.60009 0.03934 0.0
O258 O 0.67961 0.60046 0.04698 0.0
C259 C 0.73769 0.57901 0.02952 0.0
H260 H 0.6607 0.57568 0.69495 0.0
H261 H 0.67585 0.53131 0.37547 0.0
H262 H 0.59285 0.51523 0.1308 0.0
H263 H 0.62489 0.47551 0.94434 0.0
Co264 Co 0.11928 0.69406 1.00257 0.0
C265 C 0.11982 0.69307 0.78121 0.0
C266 C 0.11071 0.72317 0.84132 0.0
C267 C 0.11011 0.72466 0.74165 0.0
N268 N 0.11677 0.70338 0.86698 0.0
N269 N 0.11573 0.70571 0.70429 0.0
H270 H 0.12446 0.67655 0.77363 0.0
H271 H 0.10652 0.7355 0.89194 0.0
C272 C 0.05896 0.66733 0.95925 0.0
O273 O 0.06487 0.65885 0.87832 0.0
N274 N 0.12222 0.6857 0.13777 0.0
C275 C 0.13609 0.6731 0.16959 0.0
C276 C 0.13576 0.67273 0.26944 0.0
C277 C 0.1139 0.6932 0.21925 0.0
N278 N 0.12197 0.68544 0.30051 0.0
C279 C 0.13212 0.6538 0.9254 0.0
C280 C 0.08678 0.60772 1.00548 0.0
C281 C 0.10795 0.60469 0.96247 0.0
C282 C 0.13064 0.62799 0.92065 0.0
C283 C 0.08936 0.63395 1.01055 0.0
N284 N 0.11161 0.65667 0.96963 0.0
H285 H 0.15056 0.6718 0.89783 0.0
H286 H 0.07442 0.63608 0.05398 0.0
H287 H 0.14659 0.66548 0.12348 0.0
H288 H 0.10316 0.70491 0.21926 0.0
O289 O 0.15948 0.71354 0.99252 0.0
O290 O 0.13477 0.73299 0.03594 0.0
O291 O 0.07822 0.68132 0.02089 0.0
C292 C 0.15913 0.73577 0.01909 0.0
H293 H 0.10567 0.7384 0.69964 0.0
H294 H 0.14581 0.66475 0.31599 0.0
H295 H 0.06927 0.59025 0.04054 0.0
H296 H 0.14762 0.62645 0.88822 0.0
Co297 Co 0.42319 0.11844 0.03816 0.0
C298 C 0.4122 0.12528 0.8256 0.0
C299 C 0.42678 0.0967 0.84937 0.0
C300 C 0.42293 0.09781 0.75179 0.0
N301 N 0.42024 0.11391 0.89682 0.0
N302 N 0.4138 0.11572 0.73629 0.0
H303 H 0.40581 0.14041 0.83769 0.0
H304 H 0.43435 0.08431 0.88302 0.0
C305 C 0.38994 0.05873 0.11448 0.0
O306 O 0.39846 0.0665 0.20367 0.0
N307 N 0.42717 0.12319 0.18004 0.0
C308 C 0.45161 0.13355 0.22762 0.0
C309 C 0.4474 0.13518 0.32473 0.0
C310 C 0.40848 0.12006 0.25041 0.0
N311 N 0.42036 0.12665 0.34 0.0
C312 C 0.48017 0.13798 0.99015 0.0
C313 C 0.48543 0.0975 0.08799 0.0
C314 C 0.50922 0.12033 0.04982 0.0
C315 C 0.50644 0.14052 0.99867 0.0
C316 C 0.45971 0.09598 0.07929 0.0
N317 N 0.45731 0.11637 0.03281 0.0
H318 H 0.47833 0.15398 0.95238 0.0
H319 H 0.4424 0.07928 0.11575 0.0
H320 H 0.4717 0.14059 0.19453 0.0
H321 H 0.38681 0.11315 0.23648 0.0
O322 O 0.43949 0.15822 0.02667 0.0
O323 O 0.39439 0.12858 0.04178 0.0
O324 O 0.39837 0.07645 0.04531 0.0
C325 C 0.41444 0.15429 0.03536 0.0
H326 H 0.42662 0.08634 0.6958 0.0
H327 H 0.46323 0.14262 0.38045 0.0
H328 H 0.48693 0.08155 0.12799 0.0
H329 H 0.52448 0.15837 0.9677 0.0
Co330 Co 0.31129 0.43031 1.00492 0.0
C331 C 0.2958 0.4125 0.79368 0.0
C332 C 0.33675 0.44755 0.80675 0.0
C333 C 0.33149 0.44128 0.71032 0.0
N334 N 0.31445 0.42976 0.86107 0.0
N335 N 0.30579 0.41942 0.70132 0.0
H336 H 0.27554 0.39528 0.81104 0.0
H337 H 0.35642 0.46376 0.8334 0.0
C338 C 0.34785 0.40551 0.97362 0.0
O339 O 0.36441 0.42752 0.92201 0.0
N340 N 0.30852 0.4318 0.14684 0.0
C341 C 0.31769 0.45583 0.19592 0.0
C342 C 0.31286 0.45046 0.29308 0.0
C343 C 0.29764 0.41177 0.21658 0.0
N344 N 0.3003 0.42288 0.30694 0.0
C345 C 0.35165 0.48812 0.98094 0.0
C346 C 0.39373 0.48778 0.08665 0.0
C347 C 0.39805 0.51288 0.04801 0.0
C348 C 0.37653 0.51299 0.99574 0.0
C349 C 0.36833 0.46351 0.07194 0.0
N350 N 0.34813 0.46351 1.01525 0.0
H351 H 0.33515 0.48853 0.94099 0.0
H352 H 0.36465 0.44484 0.10859 0.0
H353 H 0.32678 0.47617 0.16318 0.0
H354 H 0.28803 0.38977 0.20185 0.0
O355 O 0.28906 0.44813 0.99277 0.0
O356 O 0.27183 0.40289 1.0003 0.0
O357 O 0.32632 0.40372 1.01547 0.0
C358 C 0.26708 0.42352 0.99583 0.0
H359 H 0.34559 0.45201 0.65057 0.0
H360 H 0.31791 0.46571 0.3499 0.0
H361 H 0.40964 0.48711 0.12985 0.0
H362 H 0.379 0.53216 0.96654 0.0
Co363 Co 0.88325 0.30205 0.99032 0.0
C364 C 0.88088 0.3021 0.77023 0.0
C365 C 0.88975 0.27169 0.82861 0.0
C366 C 0.89009 0.27021 0.72895 0.0
N367 N 0.88371 0.29145 0.85527 0.0
N368 N 0.88455 0.2893 0.69263 0.0
H369 H 0.87686 0.31908 0.76394 0.0
H370 H 0.89432 0.25951 0.87836 0.0
C371 C 0.94532 0.33084 0.04431 0.0
O372 O 0.94165 0.34095 0.12566 0.0
N373 N 0.88272 0.31204 0.12609 0.0
C374 C 0.87175 0.32735 0.15962 0.0
C375 C 0.8716 0.32706 0.25939 0.0
C376 C 0.88845 0.30201 0.20711 0.0
N377 N 0.88207 0.31118 0.28905 0.0
C378 C 0.8644 0.33817 0.92009 0.0
C379 C 0.91136 0.38776 0.96599 0.0
C380 C 0.88685 0.38775 0.9441 0.0
C381 C 0.86341 0.36278 0.91732 0.0
C382 C 0.91136 0.36271 0.96932 0.0
N383 N 0.88778 0.338 0.9504 0.0
H384 H 0.84569 0.31899 0.9032 0.0
H385 H 0.93008 0.36373 0.99285 0.0
H386 H 0.86309 0.33708 0.11535 0.0
H387 H 0.89645 0.28784 0.20625 0.0
O388 O 0.84306 0.28088 0.99365 0.0
O389 O 0.87021 0.26374 0.02918 0.0
O390 O 0.92471 0.31603 0.9889 0.0
C391 C 0.84509 0.25952 0.01888 0.0
H392 H 0.8946 0.2566 0.68618 0.0
H393 H 0.86349 0.33689 0.30679 0.0
H394 H 0.92995 0.40683 0.98621 0.0
H395 H 0.84414 0.3621 0.89899 0.0
C396 C 0.10569 0.56267 0.8837 0.0
C397 C 0.10752 0.57776 0.96915 0.0
C398 C 0.10544 0.54021 0.06849 0.0
C399 C 0.10702 0.52676 0.98312 0.0
N400 N 0.11413 0.52811 0.80947 0.0
N401 N 0.1153 0.58362 0.14234 0.0
C402 C 0.10861 0.53876 0.89052 0.0
C403 C 0.10909 0.56728 0.06155 0.0
N404 N 0.10039 0.57069 0.79637 0.0
N405 N 0.09967 0.52682 0.156 0.0
H406 H 0.11913 0.60396 0.14025 0.0
H407 H 0.11948 0.578 0.20967 0.0
H408 H 0.09625 0.50671 0.16376 0.0
H409 H 0.09552 0.53457 0.21889 0.0
H410 H 0.09599 0.55882 0.73345 0.0
H411 H 0.09781 0.5879 0.78866 0.0
H412 H 0.1184 0.53779 0.74182 0.0
H413 H 0.11709 0.51105 0.81136 0.0
C414 C 0.57898 0.12412 1.00909 0.0
C415 C 0.58728 0.12415 0.10664 0.0
C416 C 0.54749 0.12787 0.16426 0.0
C417 C 0.53702 0.12346 0.06793 0.0
N418 N 0.54098 0.11368 0.89966 0.0
N419 N 0.57787 0.12295 0.2783 0.0
C420 C 0.55234 0.12075 0.99036 0.0
C421 C 0.57121 0.12538 0.18475 0.0
N422 N 0.59683 0.12792 0.93433 0.0
N423 N 0.53512 0.13508 0.23567 0.0
H424 H 0.59509 0.1211 0.29623 0.0
H425 H 0.5651 0.12055 0.3375 0.0
H426 H 0.51799 0.13756 0.22297 0.0
H427 H 0.54343 0.14121 0.30496 0.0
H428 H 0.59303 0.13085 0.86253 0.0
H429 H 0.61673 0.13096 0.94525 0.0
H430 H 0.54992 0.10835 0.84305 0.0
H431 H 0.52141 0.11077 0.88293 0.0
C432 C 0.43365 0.54978 0.15807 0.0
C433 C 0.42498 0.53905 0.06293 0.0
C434 C 0.46591 0.57976 0.99519 0.0
C435 C 0.47642 0.58855 0.09046 0.0
N436 N 0.47233 0.57922 0.26269 0.0
N437 N 0.43599 0.54107 0.8921 0.0
C438 C 0.46085 0.5728 0.17212 0.0
C439 C 0.44201 0.55326 0.9817 0.0
N440 N 0.41558 0.53868 0.23454 0.0
N441 N 0.47809 0.59713 0.91775 0.0
H442 H 0.41908 0.52132 0.87936 0.0
H443 H 0.44935 0.54937 0.83264 0.0
H444 H 0.49502 0.61717 0.92463 0.0
H445 H 0.46957 0.59275 0.84829 0.0
H446 H 0.41986 0.54745 0.30366 0.0
H447 H 0.39523 0.52231 0.22688 0.0
H448 H 0.46303 0.56671 0.3233 0.0
H449 H 0.49234 0.59568 0.27572 0.0
C450 C 0.8823 0.42742 0.87687 0.0
C451 C 0.8852 0.41341 0.95801 0.0
C452 C 0.88948 0.45046 0.06589 0.0
C453 C 0.88431 0.46328 0.98603 0.0
N454 N 0.87017 0.4611 0.81921 0.0
N455 N 0.8853 0.40831 0.13227 0.0
C456 C 0.87907 0.45091 0.89245 0.0
C457 C 0.88696 0.42398 0.05337 0.0
N458 N 0.88363 0.4189 0.78485 0.0
N459 N 0.89784 0.46403 0.15281 0.0
H460 H 0.88298 0.38859 0.12647 0.0
H461 H 0.8835 0.41368 0.20332 0.0
H462 H 0.90018 0.48358 0.16482 0.0
H463 H 0.90487 0.45703 0.21024 0.0
H464 H 0.88469 0.4301 0.72285 0.0
H465 H 0.88608 0.40185 0.77059 0.0
H466 H 0.86329 0.45124 0.75242 0.0
H467 H 0.86718 0.47804 0.82814 0.0
C468 C 0.44448 0.90458 0.12959 0.0
C469 C 0.42369 0.895 0.0569 0.0
C470 C 0.45499 0.88982 0.94299 0.0
C471 C 0.47465 0.89673 0.0185 0.0
N472 N 0.48688 0.90712 0.18753 0.0
N473 N 0.40728 0.8747 0.89877 0.0
C474 C 0.46913 0.90327 0.11288 0.0
C475 C 0.42846 0.88663 0.9646 0.0
N476 N 0.44093 0.91554 0.21369 0.0
N477 N 0.46196 0.88689 0.85013 0.0
H478 H 0.38755 0.87197 0.9117 0.0
H479 H 0.40846 0.86541 0.83467 0.0
H480 H 0.48123 0.88911 0.83196 0.0
H481 H 0.44974 0.88472 0.78995 0.0
H482 H 0.45657 0.92573 0.26491 0.0
H483 H 0.42295 0.91638 0.22896 0.0
H484 H 0.48241 0.90874 0.25997 0.0
H485 H 0.50529 0.90666 0.17833 0.0
C486 C 0.57444 0.45084 0.1419 0.0
C487 C 0.57914 0.46539 0.05275 0.0
C488 C 0.53387 0.42912 0.99268 0.0
C489 C 0.52824 0.41581 0.08476 0.0
N490 N 0.54095 0.41589 0.25182 0.0
N491 N 0.56205 0.47099 0.89878 0.0
C492 C 0.54792 0.42723 0.16084 0.0
C493 C 0.55848 0.45526 0.97957 0.0
N494 N 0.59564 0.45911 0.20716 0.0
N495 N 0.5162 0.4163 0.91674 0.0
H496 H 0.58 0.49003 0.88601 0.0
H497 H 0.54643 0.46627 0.84811 0.0
H498 H 0.49782 0.39729 0.92337 0.0
H499 H 0.52076 0.42339 0.84536 0.0
H500 H 0.59448 0.44769 0.26861 0.0
H501 H 0.61537 0.47628 0.19586 0.0
H502 H 0.5532 0.42495 0.31286 0.0
H503 H 0.52171 0.39854 0.26803 0.0
C504 C 0.21625 0.40083 0.94262 0.0
C505 C 0.23832 0.4198 1.00345 0.0
C506 C 0.20679 0.43474 0.07295 0.0
C507 C 0.18624 0.41866 1.00278 0.0
N508 N 0.174 0.39028 0.85854 0.0
N509 N 0.254 0.45474 0.12939 0.0
C510 C 0.19156 0.40256 0.93494 0.0
C511 C 0.23337 0.43676 0.06898 0.0
N512 N 0.21836 0.38081 0.89229 0.0
N513 N 0.20058 0.4471 0.14719 0.0
H514 H 0.27168 0.45355 0.14343 0.0
H515 H 0.2538 0.47121 0.1645 0.0
H516 H 0.18188 0.44696 0.15288 0.0
H517 H 0.21301 0.45563 0.20823 0.0
H518 H 0.20161 0.36456 0.85655 0.0
H519 H 0.23565 0.37836 0.89404 0.0
H520 H 0.17869 0.38155 0.79967 0.0
H521 H 0.15605 0.39129 0.84842 0.0
C522 C 0.81494 0.21439 0.11046 0.0
C523 C 0.8197 0.23154 0.0278 0.0
C524 C 0.77203 0.20003 0.97281 0.0
C525 C 0.76779 0.18185 0.05147 0.0
N526 N 0.78695 0.16929 0.18611 0.0
N527 N 0.80551 0.23558 0.86591 0.0
C528 C 0.78991 0.18815 0.11688 0.0
C529 C 0.79903 0.22286 0.95476 0.0
N530 N 0.83337 0.22375 0.18573 0.0
N531 N 0.75025 0.19594 0.91577 0.0
H532 H 0.82546 0.25135 0.84754 0.0
H533 H 0.79202 0.22827 0.80688 0.0
H534 H 0.73031 0.17894 0.92334 0.0
H535 H 0.7516 0.21046 0.86509 0.0
H536 H 0.82939 0.21368 0.25256 0.0
H537 H 0.85166 0.24286 0.18509 0.0
H538 H 0.80332 0.17136 0.2288 0.0
H539 H 0.76864 0.15045 0.19573 0.0
C540 C 0.5758 0.77597 0.96983 0.0
C541 C 0.59041 0.77174 0.0461 0.0
C542 C 0.60149 0.81666 0.11655 0.0
C543 C 0.58858 0.82174 0.03631 0.0
N544 N 0.57045 0.80927 0.87354 0.0
N545 N 0.62219 0.79074 0.18063 0.0
C546 C 0.57773 0.80225 0.95915 0.0
C547 C 0.60505 0.79305 0.11531 0.0
N548 N 0.55973 0.7548 0.90788 0.0
N549 N 0.60872 0.8332 0.19705 0.0
H550 H 0.62483 0.77355 0.18349 0.0
H551 H 0.6357 0.80691 0.22575 0.0
H552 H 0.60556 0.85003 0.20372 0.0
H553 H 0.61527 0.82857 0.26159 0.0
H554 H 0.54601 0.75566 0.85854 0.0
H555 H 0.5587 0.73565 0.91015 0.0
H556 H 0.56518 0.79698 0.8114 0.0
H557 H 0.5727 0.82874 0.86093 0.0
C558 C 0.78807 0.60019 0.97445 0.0
C559 C 0.76586 0.58171 0.03622 0.0
C560 C 0.79603 0.56526 0.10426 0.0
C561 C 0.81678 0.58085 0.03333 0.0
N562 N 0.83035 0.60999 0.89042 0.0
N563 N 0.74884 0.5467 0.16215 0.0
C564 C 0.81238 0.59775 0.96643 0.0
C565 C 0.76993 0.56427 0.10153 0.0
N566 N 0.78622 0.62016 0.92287 0.0
N567 N 0.80165 0.55229 0.17761 0.0
H568 H 0.73103 0.54798 0.17422 0.0
H569 H 0.74855 0.5302 0.19869 0.0
H570 H 0.8201 0.55191 0.1822 0.0
H571 H 0.78911 0.54385 0.2388 0.0
H572 H 0.8031 0.63627 0.88673 0.0
H573 H 0.76874 0.62239 0.92252 0.0
H574 H 0.8263 0.61933 0.83211 0.0
H575 H 0.84813 0.6086 0.88019 0.0
C576 C 0.20491 0.77228 0.94915 0.0
C577 C 0.1854 0.76306 0.02693 0.0
C578 C 0.21665 0.8055 0.11776 0.0
C579 C 0.23726 0.81316 0.04417 0.0
N580 N 0.25267 0.80124 0.89724 0.0
N581 N 0.17443 0.76906 0.19192 0.0
C582 C 0.23189 0.79571 0.96227 0.0
C583 C 0.19161 0.77928 0.11283 0.0
N584 N 0.19719 0.75957 0.8606 0.0
N585 N 0.22102 0.8232 0.19298 0.0
H586 H 0.15614 0.74993 0.19237 0.0
H587 H 0.1794 0.77834 0.26014 0.0
H588 H 0.2398 0.84145 0.20301 0.0
H589 H 0.2056 0.82066 0.24205 0.0
H590 H 0.20944 0.76722 0.79831 0.0
H591 H 0.17729 0.7431 0.84659 0.0
H592 H 0.25093 0.78756 0.84239 0.0
H593 H 0.27247 0.81849 0.90281 0.0
C594 C 0.39297 0.18298 0.98084 0.0
C595 C 0.4098 0.17835 0.04717 0.0
C596 C 0.42021 0.22129 0.13175 0.0
C597 C 0.40859 0.22874 0.05405 0.0
N598 N 0.38653 0.21746 0.89642 0.0
N599 N 0.44127 0.19491 0.18422 0.0
C600 C 0.39534 0.2097 0.97671 0.0
C601 C 0.42397 0.19805 0.12201 0.0
N602 N 0.37469 0.1621 0.92192 0.0
N603 N 0.42662 0.23574 0.21709 0.0
H604 H 0.44308 0.17726 0.1867 0.0
H605 H 0.45504 0.2107 0.23015 0.0
H606 H 0.42277 0.25199 0.22905 0.0
H607 H 0.43253 0.2295 0.2796 0.0
H608 H 0.36028 0.16381 0.87859 0.0
H609 H 0.37166 0.1421 0.92433 0.0
H610 H 0.37972 0.20547 0.83358 0.0
H611 H 0.38844 0.23692 0.88845 0.0
C612 C 0.10043 0.38555 0.44968 0.0
C613 C 0.12262 0.40573 0.39254 0.0
C614 C 0.15095 0.42238 0.53964 0.0
C615 C 0.12672 0.40783 0.59761 0.0
N616 N 0.07801 0.37348 0.60752 0.0
N617 N 0.16945 0.4444 0.38444 0.0
C618 C 0.10144 0.38816 0.55284 0.0
C619 C 0.14838 0.42393 0.43738 0.0
N620 N 0.07808 0.36445 0.40399 0.0
N621 N 0.17624 0.43576 0.58402 0.0
H622 H 0.16774 0.44693 0.3105 0.0
H623 H 0.18768 0.46009 0.41527 0.0
H624 H 0.1781 0.43468 0.65918 0.0
H625 H 0.19503 0.44524 0.54599 0.0
H626 H 0.0619 0.34776 0.44052 0.0
H627 H 0.07733 0.36251 0.32842 0.0
H628 H 0.05822 0.36161 0.57806 0.0
H629 H 0.07825 0.37391 0.68287 0.0
C630 C 0.67719 0.09754 0.53524 0.0
C631 C 0.70189 0.11834 0.49045 0.0
C632 C 0.72038 0.13946 0.64923 0.0
C633 C 0.69485 0.11996 0.69319 0.0
N634 N 0.64838 0.08133 0.68077 0.0
N635 N 0.74611 0.16018 0.49984 0.0
C636 C 0.67309 0.09917 0.63672 0.0
C637 C 0.7233 0.13961 0.54633 0.0
N638 N 0.65815 0.07588 0.48058 0.0
N639 N 0.74181 0.15758 0.70666 0.0
H640 H 0.74855 0.16052 0.42455 0.0
H641 H 0.76167 0.17775 0.53411 0.0
H642 H 0.74007 0.15745 0.78199 0.0
H643 H 0.76178 0.17122 0.68131 0.0
H644 H 0.64084 0.05849 0.50928 0.0
H645 H 0.66055 0.07457 0.40589 0.0
H646 H 0.6305 0.06746 0.64342 0.0
H647 H 0.6455 0.08122 0.75576 0.0
C648 C 0.59102 0.68356 0.51716 0.0
C649 C 0.59365 0.70754 0.47125 0.0
C650 C 0.58815 0.72501 0.62879 0.0
C651 C 0.58343 0.70009 0.67351 0.0
N652 N 0.57823 0.65475 0.66236 0.0
N653 N 0.59266 0.75006 0.47866 0.0
C654 C 0.58435 0.67912 0.61809 0.0
C655 C 0.59173 0.72806 0.52604 0.0
N656 N 0.59573 0.66555 0.46424 0.0
N657 N 0.58943 0.74575 0.68548 0.0
H658 H 0.59529 0.75261 0.40353 0.0
H659 H 0.58911 0.7648 0.51193 0.0
H660 H 0.58691 0.74382 0.76063 0.0
H661 H 0.59488 0.76541 0.6599 0.0
H662 H 0.59676 0.64894 0.49415 0.0
H663 H 0.60039 0.66833 0.39022 0.0
H664 H 0.57562 0.63731 0.62529 0.0
H665 H 0.57441 0.65158 0.73688 0.0
C666 C 0.90255 0.60873 0.47193 0.0
C667 C 0.87949 0.58984 0.41555 0.0
C668 C 0.85084 0.57605 0.56304 0.0
C669 C 0.87501 0.58894 0.62061 0.0
N670 N 0.9245 0.62012 0.63011 0.0
N671 N 0.83146 0.55387 0.40888 0.0
C672 C 0.90104 0.6067 0.57539 0.0
C673 C 0.8532 0.57366 0.46089 0.0
N674 N 0.92609 0.628 0.42533 0.0
N675 N 0.82593 0.56484 0.61006 0.0
H676 H 0.83324 0.55054 0.33562 0.0
H677 H 0.81264 0.53918 0.43986 0.0
H678 H 0.80674 0.55597 0.57516 0.0
H679 H 0.80674 0.55597 0.57516 0.0
H680 H 0.94318 0.64387 0.4609 0.0
H681 H 0.92724 0.62944 0.34961 0.0
H682 H 0.94452 0.63034 0.60096 0.0
H683 H 0.92394 0.62051 0.70539 0.0
C684 C 0.28283 0.85969 0.61747 0.0
C685 C 0.30751 0.88017 0.66264 0.0
C686 C 0.32439 0.90449 0.50688 0.0
C687 C 0.30064 0.88293 0.46054 0.0
N688 N 0.25843 0.8389 0.46683 0.0
N689 N 0.35278 0.92075 0.65258 0.0
C690 C 0.2801 0.86022 0.51475 0.0
C691 C 0.32857 0.90229 0.6078 0.0
N692 N 0.26203 0.83994 0.67372 0.0
N693 N 0.3424 0.92738 0.45441 0.0
H694 H 0.35575 0.92008 0.72713 0.0
H695 H 0.37029 0.93577 0.61587 0.0
H696 H 0.33981 0.92926 0.38034 0.0
H697 H 0.35881 0.94515 0.48476 0.0
H698 H 0.24247 0.8255 0.64774 0.0
H699 H 0.26378 0.83928 0.7489 0.0
H700 H 0.24373 0.82049 0.49977 0.0
H701 H 0.2562 0.83891 0.3916 0.0
C702 C 0.41828 0.32226 0.50552 0.0
C703 C 0.41238 0.29766 0.45549 0.0
C704 C 0.41537 0.2766 0.60863 0.0
C705 C 0.42267 0.30171 0.6577 0.0
N706 N 0.43322 0.34906 0.65526 0.0
N707 N 0.4054 0.25154 0.45528 0.0
C708 C 0.42455 0.32469 0.60672 0.0
C709 C 0.41088 0.27479 0.50621 0.0
N710 N 0.41721 0.34294 0.45592 0.0
N711 N 0.41263 0.25455 0.66119 0.0
H712 H 0.40126 0.24963 0.38104 0.0
H713 H 0.40576 0.23452 0.48452 0.0
H714 H 0.41618 0.25574 0.73583 0.0
H715 H 0.40583 0.23486 0.63308 0.0
H716 H 0.41871 0.3605 0.48845 0.0
H717 H 0.41332 0.34179 0.38146 0.0
H718 H 0.43764 0.36761 0.62202 0.0
H719 H 0.43727 0.35102 0.72964 0.0
C720 C 0.58206 0.86256 0.4822 0.0
C721 C 0.57533 0.88064 0.43216 0.0
C722 C 0.58019 0.9062 0.58331 0.0
C723 C 0.58585 0.88747 0.63409 0.0
N724 N 0.59151 0.84752 0.63644 0.0
N725 N 0.56503 0.91764 0.43345 0.0
C726 C 0.58665 0.86555 0.58449 0.0
C727 C 0.57371 0.90203 0.48236 0.0
N728 N 0.58411 0.84267 0.43074 0.0
N729 N 0.58179 0.92836 0.63187 0.0
H730 H 0.56062 0.91517 0.35933 0.0
H731 H 0.56078 0.93195 0.46636 0.0
H732 H 0.58588 0.93138 0.70616 0.0
H733 H 0.58057 0.94447 0.59852 0.0
H734 H 0.59068 0.82966 0.45943 0.0
H735 H 0.58008 0.83981 0.35649 0.0
H736 H 0.59069 0.82983 0.60798 0.0
H737 H 0.59548 0.8498 0.71079 0.0
C738 C 0.71351 0.60838 0.57915 0.0
C739 C 0.71369 0.58754 0.63745 0.0
C740 C 0.72388 0.5689 0.49159 0.0
C741 C 0.71592 0.58457 0.43236 0.0
N742 N 0.70487 0.62125 0.42084 0.0
N743 N 0.71968 0.54768 0.64909 0.0
C744 C 0.71199 0.60549 0.47611 0.0
C745 C 0.71987 0.56815 0.59412 0.0
N746 N 0.71411 0.63058 0.62365 0.0
N747 N 0.73439 0.55406 0.44826 0.0
H748 H 0.71659 0.54634 0.72397 0.0
H749 H 0.72091 0.5311 0.61955 0.0
H750 H 0.73746 0.55469 0.37316 0.0
H751 H 0.74254 0.54368 0.48687 0.0
H752 H 0.71621 0.64778 0.58623 0.0
H753 H 0.71532 0.6328 0.69912 0.0
H754 H 0.69799 0.63405 0.44988 0.0
H755 H 0.70494 0.6209 0.34556 0.0
C756 C 0.14353 0.71269 0.44903 0.0
C757 C 0.11965 0.69187 0.40064 0.0
C758 C 0.09282 0.68094 0.55275 0.0
C759 C 0.11717 0.70051 0.60222 0.0
N760 N 0.16588 0.73404 0.60197 0.0
N761 N 0.07242 0.65441 0.40514 0.0
C762 C 0.1426 0.71617 0.55133 0.0
C763 C 0.09443 0.6756 0.45216 0.0
N764 N 0.1669 0.72939 0.39599 0.0
N765 N 0.06816 0.6679 0.6023 0.0
H766 H 0.07311 0.65042 0.3314 0.0
H767 H 0.05414 0.6399 0.4395 0.0
H768 H 0.06673 0.67104 0.67634 0.0
H769 H 0.04899 0.65528 0.56974 0.0
H770 H 0.18442 0.74664 0.42371 0.0
H771 H 0.16813 0.72692 0.3214 0.0
H772 H 0.18582 0.7445 0.57244 0.0
H773 H 0.16538 0.73734 0.6763 0.0
C774 C 0.42266 0.15019 0.49367 0.0
C775 C 0.40892 0.12595 0.43574 0.0
C776 C 0.38764 0.09903 0.58406 0.0
C777 C 0.40712 0.12162 0.64088 0.0
N778 N 0.44312 0.16958 0.65005 0.0
N779 N 0.37616 0.07691 0.4261 0.0
C780 C 0.42409 0.14776 0.59622 0.0
C781 C 0.3901 0.10033 0.48079 0.0
N782 N 0.43517 0.17544 0.44895 0.0
N783 N 0.36732 0.07608 0.6302 0.0
H784 H 0.37645 0.07727 0.3507 0.0
H785 H 0.36503 0.05703 0.4555 0.0
H786 H 0.36548 0.07511 0.70585 0.0
H787 H 0.35103 0.05947 0.59416 0.0
H788 H 0.44396 0.19421 0.48633 0.0
H789 H 0.43402 0.17716 0.37386 0.0
H790 H 0.45829 0.18824 0.61965 0.0
H791 H 0.44479 0.1685 0.72501 0.0
C792 C 0.30514 0.39537 0.55089 0.0
C793 C 0.29331 0.40801 0.60785 0.0
C794 C 0.27414 0.41607 0.45912 0.0
C795 C 0.29194 0.41017 0.40232 0.0
N796 N 0.32399 0.39306 0.39411 0.0
N797 N 0.26424 0.42836 0.61816 0.0
C798 C 0.30674 0.39869 0.44792 0.0
C799 C 0.2764 0.41704 0.56257 0.0
N800 N 0.31545 0.38084 0.59691 0.0
N801 N 0.25588 0.42172 0.41271 0.0
H802 H 0.26517 0.42857 0.69384 0.0
H803 H 0.25413 0.43824 0.58968 0.0
H804 H 0.25429 0.42106 0.33704 0.0
H805 H 0.24095 0.42458 0.44848 0.0
H806 H 0.3231 0.36958 0.56083 0.0
H807 H 0.31315 0.3777 0.67181 0.0
H808 H 0.33779 0.38768 0.42434 0.0
H809 H 0.32544 0.39514 0.3189 0.0
C810 C 0.9086 0.31525 0.54383 0.0
C811 C 0.88393 0.29509 0.59081 0.0
C812 C 0.85933 0.2828 0.43475 0.0
C813 C 0.88351 0.30413 0.38887 0.0
N814 N 0.93028 0.34229 0.39783 0.0
N815 N 0.83554 0.26062 0.58577 0.0
C816 C 0.90799 0.32074 0.44299 0.0
C817 C 0.85919 0.27904 0.5373 0.0
N818 N 0.93266 0.32862 0.59594 0.0
N819 N 0.83667 0.26614 0.37921 0.0
H820 H 0.8352 0.2575 0.66059 0.0
H821 H 0.81603 0.24951 0.55388 0.0
H822 H 0.8363 0.26896 0.30444 0.0
H823 H 0.8189 0.24872 0.40516 0.0
H824 H 0.9521 0.34172 0.56544 0.0
H825 H 0.93334 0.32527 0.67016 0.0
H826 H 0.94796 0.35708 0.4339 0.0
H827 H 0.93042 0.34619 0.32366 0.0
C828 C 0.00929 0.35335 0.88179 0.0
C829 C 0.03047 0.3608 0.95171 0.0
C830 C 0.99367 0.33904 0.07684 0.0
C831 C 0.97422 0.33943 1.01074 0.0
N832 N 0.96578 0.35079 0.84811 0.0
N833 N 0.04158 0.35315 0.11442 0.0
C834 C 0.9825 0.34738 0.91237 0.0
C835 C 0.02232 0.3514 0.0492 0.0
N836 N 0.01412 0.35026 0.78657 0.0
N837 N 0.98448 0.32537 0.16354 0.0
H838 H 0.06055 0.35521 0.09308 0.0
H839 H 0.03838 0.35169 0.18929 0.0
H840 H 0.96354 0.31467 0.18358 0.0
H841 H 0.997 0.32218 0.21167 0.0
H842 H 0.99856 0.34303 0.73403 0.0
H843 H 0.03216 0.35048 0.764 0.0
H844 H 0.97274 0.35938 0.7793 0.0
H845 H 0.94635 0.34807 0.86534 0.0
C846 C 0.62638 0.99113 0.18306 0.0
C847 C 0.62691 0.97202 0.11656 0.0
C848 C 0.65965 0.01065 1.01295 0.0
C849 C 0.65464 0.02922 0.06879 0.0
N850 N 0.63396 0.03711 0.2127 0.0
N851 N 0.65782 0.96629 1.0085 0.0
C852 C 0.63871 0.01962 0.15661 0.0
C853 C 0.64753 0.98242 0.04247 0.0
N854 N 0.61633 0.98241 0.27488 0.0
N855 N 0.676 0.01992 0.9316 0.0
H856 H 0.65322 0.94772 0.04234 0.0
H857 H 0.67414 0.97314 0.95878 0.0
H858 H 0.68749 0.04084 0.91249 0.0
H859 H 0.67723 0.00667 0.88088 0.0
H860 H 0.61757 0.99567 0.33046 0.0
H861 H 0.61045 0.96248 0.29939 0.0
H862 H 0.61898 0.03021 0.26753 0.0
H863 H 0.64388 0.05842 0.20287 0.0
C864 C 0.64012 0.62376 0.03195 0.0
C865 C 0.6615 0.62954 0.10041 0.0
C866 C 0.6582 0.66932 0.16005 0.0
C867 C 0.63686 0.66337 0.09169 0.0
N868 N 0.61565 0.64184 0.93961 0.0
N869 N 0.69654 0.6628 0.20782 0.0
C870 C 0.63072 0.64305 0.01939 0.0
C871 C 0.67236 0.65396 0.15762 0.0
N872 N 0.62701 0.59889 0.98485 0.0
N873 N 0.66456 0.68931 0.22869 0.0
H874 H 0.70791 0.65254 0.2047 0.0
H875 H 0.70678 0.68171 0.24421 0.0
H876 H 0.65629 0.70245 0.22737 0.0
H877 H 0.67713 0.69211 0.28848 0.0
H878 H 0.60945 0.59259 0.9419 0.0
H879 H 0.63159 0.58325 0.99744 0.0
H880 H 0.61243 0.62867 0.88113 0.0
H881 H 0.60946 0.65635 0.92628 0.0
C882 C 0.01529 0.6663 0.90726 0.0
C883 C 0.02935 0.65912 0.97716 0.0
C884 C 0.98479 0.62116 0.03574 0.0
C885 C 0.97058 0.62796 0.96474 0.0
N886 N 0.97172 0.66211 0.85448 0.0
N887 N 0.02683 0.63687 0.12995 0.0
C888 C 0.9857 0.65223 0.90735 0.0
C889 C 0.01386 0.63908 0.04928 0.0
N890 N 0.03029 0.68618 0.83932 0.0
N891 N 0.97126 0.59655 0.08478 0.0
H892 H 0.04783 0.65032 0.14369 0.0
H893 H 0.01609 0.62407 0.18857 0.0
H894 H 0.95047 0.582 0.07362 0.0
H895 H 0.98138 0.58928 0.12921 0.0
H896 H 0.02145 0.68979 0.77852 0.0
H897 H 0.05189 0.69841 0.84222 0.0
H898 H 0.98152 0.68099 0.8176 0.0
H899 H 0.95008 0.65277 0.85562 0.0
C900 C 0.35953 0.98547 1.00826 0.0
C901 C 0.33956 0.97002 0.08062 0.0
C902 C 0.34673 0.01362 0.1518 0.0
C903 C 0.37107 0.02861 0.09438 0.0
N904 N 0.40251 0.02767 0.97406 0.0
N905 N 0.31287 0.96927 0.2201 0.0
C906 C 0.37775 0.01437 0.02275 0.0
C907 C 0.3326 0.98412 0.15151 0.0
N908 N 0.36136 0.97259 0.92652 0.0
N909 N 0.33676 0.02757 0.20483 0.0
H910 H 0.30048 0.9478 0.21659 0.0
H911 H 0.30952 0.97814 0.28161 0.0
H912 H 0.34607 0.04915 0.20378 0.0
H913 H 0.31778 0.01776 0.24159 0.0
H914 H 0.37427 0.98332 0.86802 0.0
H915 H 0.34742 0.95176 0.91209 0.0
H916 H 0.40954 0.01748 0.92854 0.0
H917 H 0.4174 0.04818 0.98731 0.0
C918 C 0.35934 0.37372 0.06954 0.0
C919 C 0.35454 0.3827 0.97884 0.0
C920 C 0.37037 0.35417 0.89342 0.0
C921 C 0.37972 0.34921 0.98271 0.0
N922 N 0.38091 0.35199 0.15849 0.0
N923 N 0.35338 0.38006 0.8039 0.0
C924 C 0.37296 0.35772 0.07176 0.0
C925 C 0.3592 0.37223 0.89071 0.0
N926 N 0.35126 0.38073 0.15382 0.0
N927 N 0.37143 0.34078 0.81153 0.0
H928 H 0.34275 0.391 0.79908 0.0
H929 H 0.35985 0.37666 0.73681 0.0
H930 H 0.37872 0.32679 0.8121 0.0
H931 H 0.36273 0.34127 0.74533 0.0
H932 H 0.35066 0.37194 0.22108 0.0
H933 H 0.34332 0.39411 0.15668 0.0
H934 H 0.38128 0.36163 0.22368 0.0
H935 H 0.38782 0.3379 0.16639 0.0
loop_
_geom_bond_atom_site_label_1
_geom_bond_atom_site_label_2
_geom_bond_distance
_geom_bond_site_symmetry_2
_ccdc_geom_bond_type
Co0 N4 2.148 . S
Co0 N10 2.128 1_554 S
Co0 N20 2.194 . S
Co0 O25 2.351 . S
Co0 O26 2.155 . S
Co0 O27 2.096 1_554 S
C1 N4 1.301 . S
C1 N5 1.328 . S
C1 H6 0.930 . S
C2 C3 1.333 . S
C2 N4 1.317 . S
C2 H7 0.930 . S
C3 C2 1.333 . S
C3 N5 1.350 . S
C3 H29 0.931 . S
N4 Co0 2.148 . S
N4 C1 1.301 . S
N4 C2 1.317 . S
N5 C1 1.328 . S
N5 C3 1.350 . S
H6 C1 0.930 . S
H7 C2 0.930 . S
C8 O9 1.224 . S
C8 O27 1.247 . S
O9 C8 1.224 . S
N10 Co0 2.128 1_556 S
N10 C11 1.355 . S
N10 C13 1.311 . S
C11 N10 1.355 . S
C11 C12 1.363 . S
C11 H23 0.929 . S
C12 C11 1.363 . S
C12 N14 1.375 . S
C12 H30 0.931 . S
C13 N10 1.311 . S
C13 N14 1.347 . S
C13 H24 0.929 . S
N14 C12 1.375 . S
N14 C13 1.347 . S
C15 C18 1.365 . S
C15 N20 1.328 . S
C15 H21 0.929 . S
C16 C17 1.362 . S
C16 C19 1.378 . S
C16 H31 0.929 . S
C17 C16 1.362 . S
C17 C18 1.366 . S
C18 C15 1.365 . S
C18 C17 1.366 . S
C18 H32 0.930 . S
C19 C16 1.378 . S
C19 N20 1.315 . S
C19 H22 0.930 . S
N20 Co0 2.194 . S
N20 C15 1.328 . S
N20 C19 1.315 . S
H21 C15 0.929 . S
H22 C19 0.930 . S
H23 C11 0.929 . S
H24 C13 0.929 . S
O25 Co0 2.351 . S
O25 C28 1.244 . S
O26 Co0 2.155 . S
O26 C28 1.240 . S
O27 Co0 2.096 1_556 S
O27 C8 1.247 . S
C28 O25 1.244 . S
C28 O26 1.240 . S
H29 C3 0.931 . S
H30 C12 0.931 . S
H31 C16 0.929 . S
H32 C18 0.930 . S
Co33 N37 2.148 . S
Co33 N43 2.128 1_554 S
Co33 N53 2.194 . S
Co33 O58 2.351 . S
Co33 O59 2.155 . S
Co33 O60 2.096 1_554 S
C34 N37 1.301 . S
C34 N38 1.328 . S
C34 H39 0.930 . S
C35 C36 1.333 . S
C35 N37 1.317 . S
C35 H40 0.930 . S
C36 C35 1.333 . S
C36 N38 1.350 . S
C36 H62 0.931 . S
N37 Co33 2.148 . S
N37 C34 1.301 . S
N37 C35 1.317 . S
N38 C34 1.328 . S
N38 C36 1.350 . S
H39 C34 0.930 . S
H40 C35 0.930 . S
C41 O42 1.224 . S
C41 O60 1.247 . S
O42 C41 1.224 . S
N43 Co33 2.128 1_556 S
N43 C44 1.355 . S
N43 C46 1.311 . S
C44 N43 1.355 . S
C44 C45 1.363 . S
C44 H56 0.929 . S
C45 C44 1.363 . S
C45 N47 1.375 . S
C45 H63 0.931 . S
C46 N43 1.311 . S
C46 N47 1.347 . S
C46 H57 0.929 . S
N47 C45 1.375 . S
N47 C46 1.347 . S
C48 C51 1.365 . S
C48 N53 1.328 . S
C48 H54 0.929 . S
C49 C50 1.362 . S
C49 C52 1.378 . S
C49 H64 0.929 . S
C50 C49 1.362 . S
C50 C51 1.366 . S
C51 C48 1.365 . S
C51 C50 1.366 . S
C51 H65 0.930 . S
C52 C49 1.378 . S
C52 N53 1.315 . S
C52 H55 0.930 . S
N53 Co33 2.194 . S
N53 C48 1.328 . S
N53 C52 1.315 . S
H54 C48 0.929 . S
H55 C52 0.930 . S
H56 C44 0.929 . S
H57 C46 0.929 . S
O58 Co33 2.351 . S
O58 C61 1.244 . S
O59 Co33 2.155 . S
O59 C61 1.240 . S
O60 Co33 2.096 1_556 S
O60 C41 1.247 . S
C61 O58 1.244 . S
C61 O59 1.240 . S
H62 C36 0.931 . S
H63 C45 0.931 . S
H64 C49 0.929 . S
H65 C51 0.930 . S
Co66 N70 2.148 . S
Co66 N76 2.128 1_554 S
Co66 N86 2.194 . S
Co66 O91 2.351 . S
Co66 O92 2.155 . S
Co66 O93 2.096 1_554 S
C67 N70 1.301 . S
C67 N71 1.328 . S
C67 H72 0.930 . S
C68 C69 1.333 . S
C68 N70 1.317 . S
C68 H73 0.930 . S
C69 C68 1.333 . S
C69 N71 1.350 . S
C69 H95 0.931 . S
N70 Co66 2.148 . S
N70 C67 1.301 . S
N70 C68 1.317 . S
N71 C67 1.328 . S
N71 C69 1.350 . S
H72 C67 0.930 . S
H73 C68 0.930 . S
C74 O75 1.224 . S
C74 O93 1.247 . S
O75 C74 1.224 . S
N76 Co66 2.128 1_556 S
N76 C77 1.355 . S
N76 C79 1.311 . S
C77 N76 1.355 . S
C77 C78 1.363 . S
C77 H89 0.929 . S
C78 C77 1.363 . S
C78 N80 1.375 . S
C78 H96 0.931 . S
C79 N76 1.311 . S
C79 N80 1.347 . S
C79 H90 0.929 . S
N80 C78 1.375 . S
N80 C79 1.347 . S
C81 C84 1.365 . S
C81 N86 1.328 . S
C81 H87 0.929 . S
C82 C83 1.362 . S
C82 C85 1.378 . S
C82 H97 0.929 . S
C83 C82 1.362 . S
C83 C84 1.366 . S
C84 C81 1.365 . S
C84 C83 1.366 . S
C84 H98 0.930 . S
C85 C82 1.378 . S
C85 N86 1.315 . S
C85 H88 0.930 . S
N86 Co66 2.194 . S
N86 C81 1.328 . S
N86 C85 1.315 . S
H87 C81 0.929 . S
H88 C85 0.930 . S
H89 C77 0.929 . S
H90 C79 0.929 . S
O91 Co66 2.351 . S
O91 C94 1.244 . S
O92 Co66 2.155 . S
O92 C94 1.240 . S
O93 Co66 2.096 1_556 S
O93 C74 1.247 . S
C94 O91 1.244 . S
C94 O92 1.240 . S
H95 C69 0.931 . S
H96 C78 0.931 . S
H97 C82 0.929 . S
H98 C84 0.930 . S
Co99 N103 2.148 . S
Co99 N109 2.128 1_554 S
Co99 N119 2.194 . S
Co99 O124 2.351 . S
Co99 O125 2.155 . S
Co99 O126 2.096 1_554 S
C100 N103 1.301 . S
C100 N104 1.328 . S
C100 H105 0.930 . S
C101 C102 1.333 . S
C101 N103 1.317 . S
C101 H106 0.930 . S
C102 C101 1.333 . S
C102 N104 1.350 . S
C102 H128 0.931 . S
N103 Co99 2.148 . S
N103 C100 1.301 . S
N103 C101 1.317 . S
N104 C100 1.328 . S
N104 C102 1.350 . S
H105 C100 0.930 . S
H106 C101 0.930 . S
C107 O108 1.224 . S
C107 O126 1.247 . S
O108 C107 1.224 . S
N109 Co99 2.128 1_556 S
N109 C110 1.355 . S
N109 C112 1.311 . S
C110 N109 1.355 . S
C110 C111 1.363 . S
C110 H122 0.929 . S
C111 C110 1.363 . S
C111 N113 1.375 . S
C111 H129 0.931 . S
C112 N109 1.311 . S
C112 N113 1.347 . S
C112 H123 0.929 . S
N113 C111 1.375 . S
N113 C112 1.347 . S
C114 C117 1.365 . S
C114 N119 1.328 . S
C114 H120 0.929 . S
C115 C116 1.362 . S
C115 C118 1.378 . S
C115 H130 0.929 . S
C116 C115 1.362 . S
C116 C117 1.366 . S
C117 C114 1.365 . S
C117 C116 1.366 . S
C117 H131 0.930 . S
C118 C115 1.378 . S
C118 N119 1.315 . S
C118 H121 0.930 . S
N119 Co99 2.194 . S
N119 C114 1.328 . S
N119 C118 1.315 . S
H120 C114 0.929 . S
H121 C118 0.930 . S
H122 C110 0.929 . S
H123 C112 0.929 . S
O124 Co99 2.351 . S
O124 C127 1.244 . S
O125 Co99 2.155 . S
O125 C127 1.240 . S
O126 Co99 2.096 1_556 S
O126 C107 1.247 . S
C127 O124 1.244 . S
C127 O125 1.240 . S
H128 C102 0.931 . S
H129 C111 0.931 . S
H130 C115 0.929 . S
H131 C117 0.930 . S
Co132 N136 2.148 . S
Co132 N142 2.128 1_554 S
Co132 N152 2.194 . S
Co132 O157 2.351 . S
Co132 O158 2.155 . S
Co132 O159 2.096 1_554 S
C133 N136 1.301 . S
C133 N137 1.328 . S
C133 H138 0.930 . S
C134 C135 1.333 . S
C134 N136 1.317 . S
C134 H139 0.930 . S
C135 C134 1.333 . S
C135 N137 1.350 . S
C135 H161 0.931 . S
N136 Co132 2.148 . S
N136 C133 1.301 . S
N136 C134 1.317 . S
N137 C133 1.328 . S
N137 C135 1.350 . S
H138 C133 0.930 . S
H139 C134 0.930 . S
C140 O141 1.224 . S
C140 O159 1.247 . S
O141 C140 1.224 . S
N142 Co132 2.128 1_556 S
N142 C143 1.355 . S
N142 C145 1.311 . S
C143 N142 1.355 . S
C143 C144 1.363 . S
C143 H155 0.929 . S
C144 C143 1.363 . S
C144 N146 1.375 . S
C144 H162 0.931 . S
C145 N142 1.311 . S
C145 N146 1.347 . S
C145 H156 0.929 . S
N146 C144 1.375 . S
N146 C145 1.347 . S
C147 C150 1.365 . S
C147 N152 1.328 . S
C147 H153 0.929 . S
C148 C149 1.362 . S
C148 C151 1.378 . S
C148 H163 0.929 . S
C149 C148 1.362 . S
C149 C150 1.366 . S
C150 C147 1.365 . S
C150 C149 1.366 . S
C150 H164 0.930 . S
C151 C148 1.378 . S
C151 N152 1.315 . S
C151 H154 0.930 . S
N152 Co132 2.194 . S
N152 C147 1.328 . S
N152 C151 1.315 . S
H153 C147 0.929 . S
H154 C151 0.930 . S
H155 C143 0.929 . S
H156 C145 0.929 . S
O157 Co132 2.351 . S
O157 C160 1.244 . S
O158 Co132 2.155 . S
O158 C160 1.240 . S
O159 Co132 2.096 1_556 S
O159 C140 1.247 . S
C160 O157 1.244 . S
C160 O158 1.240 . S
H161 C135 0.931 . S
H162 C144 0.931 . S
H163 C148 0.929 . S
H164 C150 0.930 . S
Co165 N169 2.148 . S
Co165 N175 2.128 1_554 S
Co165 N185 2.194 . S
Co165 O190 2.351 . S
Co165 O191 2.155 . S
Co165 O192 2.096 1_554 S
C166 N169 1.301 . S
C166 N170 1.328 . S
C166 H171 0.930 . S
C167 C168 1.333 . S
C167 N169 1.317 . S
C167 H172 0.930 . S
C168 C167 1.333 . S
C168 N170 1.350 . S
C168 H194 0.931 . S
N169 Co165 2.148 . S
N169 C166 1.301 . S
N169 C167 1.317 . S
N170 C166 1.328 . S
N170 C168 1.350 . S
H171 C166 0.930 . S
H172 C167 0.930 . S
C173 O174 1.224 . S
C173 O192 1.247 . S
O174 C173 1.224 . S
N175 Co165 2.128 1_556 S
N175 C176 1.355 . S
N175 C178 1.311 . S
C176 N175 1.355 . S
C176 C177 1.363 . S
C176 H188 0.929 . S
C177 C176 1.363 . S
C177 N179 1.375 . S
C177 H195 0.931 . S
C178 N175 1.311 . S
C178 N179 1.347 . S
C178 H189 0.929 . S
N179 C177 1.375 . S
N179 C178 1.347 . S
C180 C183 1.365 . S
C180 N185 1.328 . S
C180 H186 0.929 . S
C181 C182 1.362 . S
C181 C184 1.378 . S
C181 H196 0.929 . S
C182 C181 1.362 . S
C182 C183 1.366 . S
C183 C180 1.365 . S
C183 C182 1.366 . S
C183 H197 0.930 . S
C184 C181 1.378 . S
C184 N185 1.315 . S
C184 H187 0.930 . S
N185 Co165 2.194 . S
N185 C180 1.328 . S
N185 C184 1.315 . S
H186 C180 0.929 . S
H187 C184 0.930 . S
H188 C176 0.929 . S
H189 C178 0.929 . S
O190 Co165 2.351 . S
O190 C193 1.244 . S
O191 Co165 2.155 . S
O191 C193 1.240 . S
O192 Co165 2.096 1_556 S
O192 C173 1.247 . S
C193 O190 1.244 . S
C193 O191 1.240 . S
H194 C168 0.931 . S
H195 C177 0.931 . S
H196 C181 0.929 . S
H197 C183 0.930 . S
Co198 N202 2.148 1_554 S
Co198 N208 2.128 . S
Co198 N218 2.194 . S
Co198 O223 2.351 1_554 S
Co198 O224 2.155 . S
Co198 O225 2.096 . S
C199 N202 1.301 . S
C199 N203 1.328 . S
C199 H204 0.930 . S
C200 C201 1.333 . S
C200 N202 1.317 . S
C200 H205 0.930 . S
C201 C200 1.333 . S
C201 N203 1.350 . S
C201 H227 0.931 . S
N202 Co198 2.148 1_556 S
N202 C199 1.301 . S
N202 C200 1.317 . S
N203 C199 1.328 . S
N203 C201 1.350 . S
H204 C199 0.930 . S
H205 C200 0.930 . S
C206 O207 1.224 . S
C206 O225 1.247 . S
O207 C206 1.224 . S
N208 Co198 2.128 . S
N208 C209 1.355 . S
N208 C211 1.311 . S
C209 N208 1.355 . S
C209 C210 1.363 . S
C209 H221 0.929 . S
C210 C209 1.363 . S
C210 N212 1.375 . S
C210 H228 0.931 . S
C211 N208 1.311 . S
C211 N212 1.347 . S
C211 H222 0.929 . S
N212 C210 1.375 . S
N212 C211 1.347 . S
C213 C216 1.365 . S
C213 N218 1.327 1_556 S
C213 H219 0.929 . S
C214 C215 1.362 . S
C214 C217 1.378 . S
C214 H229 0.929 . S
C215 C214 1.362 . S
C215 C216 1.366 1_554 S
C216 C213 1.365 . S
C216 C215 1.366 1_556 S
C216 H230 0.930 . S
C217 C214 1.378 . S
C217 N218 1.316 . S
C217 H220 0.930 . S
N218 Co198 2.194 . S
N218 C213 1.327 1_554 S
N218 C217 1.316 . S
H219 C213 0.929 . S
H220 C217 0.930 . S
H221 C209 0.929 . S
H222 C211 0.929 . S
O223 Co198 2.351 1_556 S
O223 C226 1.245 . S
O224 Co198 2.155 . S
O224 C226 1.239 1_554 S
O225 Co198 2.096 . S
O225 C206 1.247 . S
C226 O223 1.245 . S
C226 O224 1.239 1_556 S
H227 C201 0.931 . S
H228 C210 0.931 . S
H229 C214 0.929 . S
H230 C216 0.930 . S
Co231 N235 2.148 1_554 S
Co231 N241 2.128 . S
Co231 N251 2.194 . S
Co231 O256 2.351 1_554 S
Co231 O257 2.155 . S
Co231 O258 2.096 . S
C232 N235 1.301 . S
C232 N236 1.328 . S
C232 H237 0.930 . S
C233 C234 1.333 . S
C233 N235 1.317 . S
C233 H238 0.930 . S
C234 C233 1.333 . S
C234 N236 1.350 . S
C234 H260 0.931 . S
N235 Co231 2.148 1_556 S
N235 C232 1.301 . S
N235 C233 1.317 . S
N236 C232 1.328 . S
N236 C234 1.350 . S
H237 C232 0.930 . S
H238 C233 0.930 . S
C239 O240 1.224 . S
C239 O258 1.247 . S
O240 C239 1.224 . S
N241 Co231 2.128 . S
N241 C242 1.355 . S
N241 C244 1.311 . S
C242 N241 1.355 . S
C242 C243 1.363 . S
C242 H254 0.929 . S
C243 C242 1.363 . S
C243 N245 1.375 . S
C243 H261 0.931 . S
C244 N241 1.311 . S
C244 N245 1.347 . S
C244 H255 0.929 . S
N245 C243 1.375 . S
N245 C244 1.347 . S
C246 C249 1.365 . S
C246 N251 1.327 1_556 S
C246 H252 0.929 . S
C247 C248 1.362 . S
C247 C250 1.378 . S
C247 H262 0.929 . S
C248 C247 1.362 . S
C248 C249 1.366 1_554 S
C249 C246 1.365 . S
C249 C248 1.366 1_556 S
C249 H263 0.930 . S
C250 C247 1.378 . S
C250 N251 1.316 . S
C250 H253 0.930 . S
N251 Co231 2.194 . S
N251 C246 1.327 1_554 S
N251 C250 1.316 . S
H252 C246 0.929 . S
H253 C250 0.930 . S
H254 C242 0.929 . S
H255 C244 0.929 . S
O256 Co231 2.351 1_556 S
O256 C259 1.245 . S
O257 Co231 2.155 . S
O257 C259 1.239 1_554 S
O258 Co231 2.096 . S
O258 C239 1.247 . S
C259 O256 1.245 . S
C259 O257 1.239 1_556 S
H260 C234 0.931 . S
H261 C243 0.931 . S
H262 C247 0.929 . S
H263 C249 0.930 . S
Co264 N268 2.148 1_554 S
Co264 N274 2.128 . S
Co264 N284 2.194 . S
Co264 O289 2.351 1_554 S
Co264 O290 2.155 . S
Co264 O291 2.096 . S
C265 N268 1.301 . S
C265 N269 1.328 . S
C265 H270 0.930 . S
C266 C267 1.333 . S
C266 N268 1.317 . S
C266 H271 0.930 . S
C267 C266 1.333 . S
C267 N269 1.350 . S
C267 H293 0.931 . S
N268 Co264 2.148 1_556 S
N268 C265 1.301 . S
N268 C266 1.317 . S
N269 C265 1.328 . S
N269 C267 1.350 . S
H270 C265 0.930 . S
H271 C266 0.930 . S
C272 O273 1.224 . S
C272 O291 1.247 . S
O273 C272 1.224 . S
N274 Co264 2.128 . S
N274 C275 1.355 . S
N274 C277 1.311 . S
C275 N274 1.355 . S
C275 C276 1.363 . S
C275 H287 0.929 . S
C276 C275 1.363 . S
C276 N278 1.375 . S
C276 H294 0.931 . S
C277 N274 1.311 . S
C277 N278 1.347 . S
C277 H288 0.929 . S
N278 C276 1.375 . S
N278 C277 1.347 . S
C279 C282 1.365 . S
C279 N284 1.328 1_556 S
C279 H285 0.929 . S
C280 C281 1.362 . S
C280 C283 1.378 . S
C280 H295 0.929 . S
C281 C280 1.362 . S
C281 C282 1.366 1_554 S
C282 C279 1.365 . S
C282 C281 1.366 1_556 S
C282 H296 0.930 . S
C283 C280 1.378 . S
C283 N284 1.316 . S
C283 H286 0.930 . S
N284 Co264 2.194 . S
N284 C279 1.328 1_554 S
N284 C283 1.316 . S
H285 C279 0.929 . S
H286 C283 0.930 . S
H287 C275 0.929 . S
H288 C277 0.929 . S
O289 Co264 2.351 1_556 S
O289 C292 1.245 . S
O290 Co264 2.155 . S
O290 C292 1.238 1_554 S
O291 Co264 2.096 . S
O291 C272 1.247 . S
C292 O289 1.245 . S
C292 O290 1.238 1_556 S
H293 C267 0.931 . S
H294 C276 0.931 . S
H295 C280 0.929 . S
H296 C282 0.930 . S
Co297 N301 2.148 1_554 S
Co297 N307 2.128 . S
Co297 N317 2.194 . S
Co297 O322 2.351 1_554 S
Co297 O323 2.155 . S
Co297 O324 2.096 . S
C298 N301 1.301 . S
C298 N302 1.328 . S
C298 H303 0.930 . S
C299 C300 1.333 . S
C299 N301 1.317 . S
C299 H304 0.930 . S
C300 C299 1.333 . S
C300 N302 1.350 . S
C300 H326 0.931 . S
N301 Co297 2.148 1_556 S
N301 C298 1.301 . S
N301 C299 1.317 . S
N302 C298 1.328 . S
N302 C300 1.350 . S
H303 C298 0.930 . S
H304 C299 0.930 . S
C305 O306 1.224 . S
C305 O324 1.247 . S
O306 C305 1.224 . S
N307 Co297 2.128 . S
N307 C308 1.355 . S
N307 C310 1.311 . S
C308 N307 1.355 . S
C308 C309 1.363 . S
C308 H320 0.929 . S
C309 C308 1.363 . S
C309 N311 1.375 . S
C309 H327 0.931 . S
C310 N307 1.311 . S
C310 N311 1.347 . S
C310 H321 0.929 . S
N311 C309 1.375 . S
N311 C310 1.347 . S
C312 C315 1.365 . S
C312 N317 1.327 1_556 S
C312 H318 0.929 . S
C313 C314 1.362 . S
C313 C316 1.378 . S
C313 H328 0.929 . S
C314 C313 1.362 . S
C314 C315 1.366 1_554 S
C315 C312 1.365 . S
C315 C314 1.366 1_556 S
C315 H329 0.930 . S
C316 C313 1.378 . S
C316 N317 1.316 . S
C316 H319 0.930 . S
N317 Co297 2.194 . S
N317 C312 1.327 1_554 S
N317 C316 1.316 . S
H318 C312 0.929 . S
H319 C316 0.930 . S
H320 C308 0.929 . S
H321 C310 0.929 . S
O322 Co297 2.351 1_556 S
O322 C325 1.245 . S
O323 Co297 2.155 . S
O323 C325 1.239 1_554 S
O324 Co297 2.096 . S
O324 C305 1.247 . S
C325 O322 1.245 . S
C325 O323 1.239 1_556 S
H326 C300 0.931 . S
H327 C309 0.931 . S
H328 C313 0.929 . S
H329 C315 0.930 . S
Co330 N334 2.148 1_554 S
Co330 N340 2.128 . S
Co330 N350 2.194 . S
Co330 O355 2.351 1_554 S
Co330 O356 2.155 . S
Co330 O357 2.096 . S
C331 N334 1.301 . S
C331 N335 1.328 . S
C331 H336 0.930 . S
C332 C333 1.333 . S
C332 N334 1.317 . S
C332 H337 0.930 . S
C333 C332 1.333 . S
C333 N335 1.350 . S
C333 H359 0.931 . S
N334 Co330 2.148 1_556 S
N334 C331 1.301 . S
N334 C332 1.317 . S
N335 C331 1.328 . S
N335 C333 1.350 . S
H336 C331 0.930 . S
H337 C332 0.930 . S
C338 O339 1.224 . S
C338 O357 1.247 . S
O339 C338 1.224 . S
N340 Co330 2.128 . S
N340 C341 1.355 . S
N340 C343 1.311 . S
C341 N340 1.355 . S
C341 C342 1.363 . S
C341 H353 0.929 . S
C342 C341 1.363 . S
C342 N344 1.375 . S
C342 H360 0.931 . S
C343 N340 1.311 . S
C343 N344 1.347 . S
C343 H354 0.929 . S
N344 C342 1.375 . S
N344 C343 1.347 . S
C345 C348 1.365 . S
C345 N350 1.327 1_556 S
C345 H351 0.929 . S
C346 C347 1.362 . S
C346 C349 1.378 . S
C346 H361 0.929 . S
C347 C346 1.362 . S
C347 C348 1.366 1_554 S
C348 C345 1.365 . S
C348 C347 1.366 1_556 S
C348 H362 0.930 . S
C349 C346 1.378 . S
C349 N350 1.316 . S
C349 H352 0.930 . S
N350 Co330 2.194 . S
N350 C345 1.327 1_554 S
N350 C349 1.316 . S
H351 C345 0.929 . S
H352 C349 0.930 . S
H353 C341 0.929 . S
H354 C343 0.929 . S
O355 Co330 2.351 1_556 S
O355 C358 1.245 . S
O356 Co330 2.155 . S
O356 C358 1.239 1_554 S
O357 Co330 2.096 . S
O357 C338 1.247 . S
C358 O355 1.245 . S
C358 O356 1.239 1_556 S
H359 C333 0.931 . S
H360 C342 0.931 . S
H361 C346 0.929 . S
H362 C348 0.930 . S
Co363 N367 2.148 1_554 S
Co363 N373 2.128 . S
Co363 N383 2.194 . S
Co363 O388 2.351 1_554 S
Co363 O389 2.155 . S
Co363 O390 2.096 . S
C364 N367 1.301 . S
C364 N368 1.328 . S
C364 H369 0.930 . S
C365 C366 1.333 . S
C365 N367 1.317 . S
C365 H370 0.930 . S
C366 C365 1.333 . S
C366 N368 1.350 . S
C366 H392 0.931 . S
N367 Co363 2.148 1_556 S
N367 C364 1.301 . S
N367 C365 1.317 . S
N368 C364 1.328 . S
N368 C366 1.350 . S
H369 C364 0.930 . S
H370 C365 0.930 . S
C371 O372 1.224 . S
C371 O390 1.247 . S
O372 C371 1.224 . S
N373 Co363 2.128 . S
N373 C374 1.355 . S
N373 C376 1.311 . S
C374 N373 1.355 . S
C374 C375 1.363 . S
C374 H386 0.929 . S
C375 C374 1.363 . S
C375 N377 1.375 . S
C375 H393 0.931 . S
C376 N373 1.311 . S
C376 N377 1.347 . S
C376 H387 0.929 . S
N377 C375 1.375 . S
N377 C376 1.347 . S
C378 C381 1.365 . S
C378 N383 1.328 1_556 S
C378 H384 0.929 . S
C379 C380 1.362 . S
C379 C382 1.378 . S
C379 H394 0.929 . S
C380 C379 1.362 . S
C380 C381 1.366 1_554 S
C381 C378 1.365 . S
C381 C380 1.366 1_556 S
C381 H395 0.930 . S
C382 C379 1.378 . S
C382 N383 1.316 . S
C382 H385 0.930 . S
N383 Co363 2.194 . S
N383 C378 1.328 1_554 S
N383 C382 1.316 . S
H384 C378 0.929 . S
H385 C382 0.930 . S
H386 C374 0.929 . S
H387 C376 0.929 . S
O388 Co363 2.351 1_556 S
O388 C391 1.245 . S
O389 Co363 2.155 . S
O389 C391 1.238 1_554 S
O390 Co363 2.096 . S
O390 C371 1.247 . S
C391 O388 1.245 . S
C391 O389 1.238 1_556 S
H392 C366 0.931 . S
H393 C375 0.931 . S
H394 C379 0.929 . S
H395 C381 0.930 . S
C396 C397 1.363 1_556 S
C396 C402 1.379 . S
C396 N404 1.356 . S
C397 C396 1.363 1_554 S
C397 C403 1.363 . S
C398 C399 1.363 . S
C398 C403 1.379 . S
C398 N405 1.356 . S
C399 C398 1.363 . S
C399 C402 1.363 1_554 S
N400 C402 1.356 . S
N400 H412 0.984 . S
N400 H413 0.985 . S
N401 C403 1.356 . S
N401 H406 0.984 . S
N401 H407 0.985 . S
C402 C396 1.379 . S
C402 C399 1.363 1_556 S
C402 N400 1.356 . S
C403 C397 1.363 . S
C403 C398 1.379 . S
C403 N401 1.356 . S
N404 C396 1.356 . S
N404 H410 0.984 . S
N404 H411 0.984 . S
N405 C398 1.356 . S
N405 H408 0.984 . S
N405 H409 0.985 . S
H406 N401 0.984 . S
H407 N401 0.985 . S
H408 N405 0.984 . S
H409 N405 0.985 . S
H410 N404 0.984 . S
H411 N404 0.984 . S
H412 N400 0.984 . S
H413 N400 0.985 . S
C414 C415 1.363 1_556 S
C414 C420 1.379 . S
C414 N422 1.356 . S
C415 C414 1.363 1_554 S
C415 C421 1.363 . S
C416 C417 1.363 . S
C416 C421 1.379 . S
C416 N423 1.356 . S
C417 C416 1.363 . S
C417 C420 1.363 1_554 S
N418 C420 1.356 . S
N418 H430 0.984 . S
N418 H431 0.985 . S
N419 C421 1.356 . S
N419 H424 0.984 . S
N419 H425 0.985 . S
C420 C414 1.379 . S
C420 C417 1.363 1_556 S
C420 N418 1.356 . S
C421 C415 1.363 . S
C421 C416 1.379 . S
C421 N419 1.356 . S
N422 C414 1.356 . S
N422 H428 0.984 . S
N422 H429 0.984 . S
N423 C416 1.356 . S
N423 H426 0.984 . S
N423 H427 0.985 . S
H424 N419 0.984 . S
H425 N419 0.985 . S
H426 N423 0.984 . S
H427 N423 0.985 . S
H428 N422 0.984 . S
H429 N422 0.984 . S
H430 N418 0.984 . S
H431 N418 0.985 . S
C432 C433 1.363 . S
C432 C438 1.379 . S
C432 N440 1.356 . S
C433 C432 1.363 . S
C433 C439 1.363 1_554 S
C434 C435 1.363 1_556 S
C434 C439 1.379 . S
C434 N441 1.356 . S
C435 C434 1.363 1_554 S
C435 C438 1.363 . S
N436 C438 1.356 . S
N436 H448 0.984 . S
N436 H449 0.985 . S
N437 C439 1.356 . S
N437 H442 0.984 . S
N437 H443 0.985 . S
C438 C432 1.379 . S
C438 C435 1.363 . S
C438 N436 1.356 . S
C439 C433 1.363 1_556 S
C439 C434 1.379 . S
C439 N437 1.356 . S
N440 C432 1.356 . S
N440 H446 0.984 . S
N440 H447 0.984 . S
N441 C434 1.356 . S
N441 H444 0.984 . S
N441 H445 0.985 . S
H442 N437 0.984 . S
H443 N437 0.985 . S
H444 N441 0.984 . S
H445 N441 0.985 . S
H446 N440 0.984 . S
H447 N440 0.984 . S
H448 N436 0.984 . S
H449 N436 0.985 . S
C450 C451 1.363 1_556 S
C450 C456 1.379 . S
C450 N458 1.356 . S
C451 C450 1.363 1_554 S
C451 C457 1.363 . S
C452 C453 1.363 . S
C452 C457 1.379 . S
C452 N459 1.356 . S
C453 C452 1.363 . S
C453 C456 1.363 1_554 S
N454 C456 1.356 . S
N454 H466 0.984 . S
N454 H467 0.985 . S
N455 C457 1.356 . S
N455 H460 0.984 . S
N455 H461 0.985 . S
C456 C450 1.379 . S
C456 C453 1.363 1_556 S
C456 N454 1.356 . S
C457 C451 1.363 . S
C457 C452 1.379 . S
C457 N455 1.356 . S
N458 C450 1.356 . S
N458 H464 0.984 . S
N458 H465 0.984 . S
N459 C452 1.356 . S
N459 H462 0.984 . S
N459 H463 0.985 . S
H460 N455 0.984 . S
H461 N455 0.985 . S
H462 N459 0.984 . S
H463 N459 0.985 . S
H464 N458 0.984 . S
H465 N458 0.984 . S
H466 N454 0.984 . S
H467 N454 0.985 . S
C468 C469 1.363 . S
C468 C474 1.379 . S
C468 N476 1.356 . S
C469 C468 1.363 . S
C469 C475 1.363 1_554 S
C470 C471 1.363 1_556 S
C470 C475 1.379 . S
C470 N477 1.356 . S
C471 C470 1.363 1_554 S
C471 C474 1.363 . S
N472 C474 1.356 . S
N472 H484 0.984 . S
N472 H485 0.985 . S
N473 C475 1.356 . S
N473 H478 0.984 . S
N473 H479 0.985 . S
C474 C468 1.379 . S
C474 C471 1.363 . S
C474 N472 1.356 . S
C475 C469 1.363 1_556 S
C475 C470 1.379 . S
C475 N473 1.356 . S
N476 C468 1.356 . S
N476 H482 0.984 . S
N476 H483 0.984 . S
N477 C470 1.356 . S
N477 H480 0.984 . S
N477 H481 0.985 . S
H478 N473 0.984 . S
H479 N473 0.985 . S
H480 N477 0.984 . S
H481 N477 0.985 . S
H482 N476 0.984 . S
H483 N476 0.984 . S
H484 N472 0.984 . S
H485 N472 0.985 . S
C486 C487 1.363 . S
C486 C492 1.379 . S
C486 N494 1.356 . S
C487 C486 1.363 . S
C487 C493 1.363 1_554 S
C488 C489 1.363 1_556 S
C488 C493 1.379 . S
C488 N495 1.356 . S
C489 C488 1.363 1_554 S
C489 C492 1.363 . S
N490 C492 1.356 . S
N490 H502 0.984 . S
N490 H503 0.985 . S
N491 C493 1.356 . S
N491 H496 0.984 . S
N491 H497 0.985 . S
C492 C486 1.379 . S
C492 C489 1.363 . S
C492 N490 1.356 . S
C493 C487 1.363 1_556 S
C493 C488 1.379 . S
C493 N491 1.356 . S
N494 C486 1.356 . S
N494 H500 0.984 . S
N494 H501 0.984 . S
N495 C488 1.356 . S
N495 H498 0.984 . S
N495 H499 0.985 . S
H496 N491 0.984 . S
H497 N491 0.985 . S
H498 N495 0.984 . S
H499 N495 0.985 . S
H500 N494 0.984 . S
H501 N494 0.984 . S
H502 N490 0.984 . S
H503 N490 0.985 . S
C504 C505 1.363 . S
C504 C510 1.379 . S
C504 N512 1.356 . S
C505 C504 1.363 . S
C505 C511 1.363 1_556 S
C506 C507 1.363 . S
C506 C511 1.379 . S
C506 N513 1.356 . S
C507 C506 1.363 . S
C507 C510 1.363 1_554 S
N508 C510 1.356 . S
N508 H520 0.984 . S
N508 H521 0.985 . S
N509 C511 1.356 . S
N509 H514 0.984 . S
N509 H515 0.985 . S
C510 C504 1.379 . S
C510 C507 1.363 1_556 S
C510 N508 1.356 . S
C511 C505 1.363 1_554 S
C511 C506 1.379 . S
C511 N509 1.356 . S
N512 C504 1.356 . S
N512 H518 0.984 . S
N512 H519 0.984 . S
N513 C506 1.356 . S
N513 H516 0.984 . S
N513 H517 0.985 . S
H514 N509 0.984 . S
H515 N509 0.985 . S
H516 N513 0.984 . S
H517 N513 0.985 . S
H518 N512 0.984 . S
H519 N512 0.984 . S
H520 N508 0.984 . S
H521 N508 0.985 . S
C522 C523 1.363 1_554 S
C522 C528 1.379 . S
C522 N530 1.356 . S
C523 C522 1.363 1_556 S
C523 C529 1.363 . S
C524 C525 1.363 1_556 S
C524 C529 1.379 . S
C524 N531 1.356 . S
C525 C524 1.363 1_554 S
C525 C528 1.363 . S
N526 C528 1.356 . S
N526 H538 0.984 . S
N526 H539 0.985 . S
N527 C529 1.356 . S
N527 H532 0.984 . S
N527 H533 0.985 . S
C528 C522 1.379 . S
C528 C525 1.363 . S
C528 N526 1.356 . S
C529 C523 1.363 . S
C529 C524 1.379 . S
C529 N527 1.356 . S
N530 C522 1.356 . S
N530 H536 0.984 . S
N530 H537 0.984 . S
N531 C524 1.356 . S
N531 H534 0.984 . S
N531 H535 0.985 . S
H532 N527 0.984 . S
H533 N527 0.985 . S
H534 N531 0.984 . S
H535 N531 0.985 . S
H536 N530 0.984 . S
H537 N530 0.984 . S
H538 N526 0.984 . S
H539 N526 0.985 . S
C540 C541 1.363 1_556 S
C540 C546 1.379 . S
C540 N548 1.356 . S
C541 C540 1.363 1_554 S
C541 C547 1.363 . S
C542 C543 1.363 1_554 S
C542 C547 1.379 . S
C542 N549 1.356 . S
C543 C542 1.363 1_556 S
C543 C546 1.363 . S
N544 C546 1.356 . S
N544 H556 0.984 . S
N544 H557 0.985 . S
N545 C547 1.356 . S
N545 H550 0.984 . S
N545 H551 0.985 . S
C546 C540 1.379 . S
C546 C543 1.363 . S
C546 N544 1.356 . S
C547 C541 1.363 . S
C547 C542 1.379 . S
C547 N545 1.356 . S
N548 C540 1.356 . S
N548 H554 0.984 . S
N548 H555 0.984 . S
N549 C542 1.356 . S
N549 H552 0.984 . S
N549 H553 0.985 . S
H550 N545 0.984 . S
H551 N545 0.985 . S
H552 N549 0.984 . S
H553 N549 0.985 . S
H554 N548 0.984 . S
H555 N548 0.984 . S
H556 N544 0.984 . S
H557 N544 0.985 . S
C558 C559 1.363 . S
C558 C564 1.379 . S
C558 N566 1.356 . S
C559 C558 1.363 . S
C559 C565 1.363 1_556 S
C560 C561 1.363 . S
C560 C565 1.379 . S
C560 N567 1.356 . S
C561 C560 1.363 . S
C561 C564 1.363 1_554 S
N562 C564 1.356 . S
N562 H574 0.984 . S
N562 H575 0.985 . S
N563 C565 1.356 . S
N563 H568 0.984 . S
N563 H569 0.985 . S
C564 C558 1.379 . S
C564 C561 1.363 1_556 S
C564 N562 1.356 . S
C565 C559 1.363 1_554 S
C565 C560 1.379 . S
C565 N563 1.356 . S
N566 C558 1.356 . S
N566 H572 0.984 . S
N566 H573 0.984 . S
N567 C560 1.356 . S
N567 H570 0.984 . S
N567 H571 0.985 . S
H568 N563 0.984 . S
H569 N563 0.985 . S
H570 N567 0.984 . S
H571 N567 0.985 . S
H572 N566 0.984 . S
H573 N566 0.984 . S
H574 N562 0.984 . S
H575 N562 0.985 . S
C576 C577 1.363 . S
C576 C582 1.379 . S
C576 N584 1.356 . S
C577 C576 1.363 . S
C577 C583 1.363 1_556 S
C578 C579 1.363 . S
C578 C583 1.379 . S
C578 N585 1.356 . S
C579 C578 1.363 . S
C579 C582 1.363 1_554 S
N580 C582 1.356 . S
N580 H592 0.984 . S
N580 H593 0.985 . S
N581 C583 1.356 . S
N581 H586 0.984 . S
N581 H587 0.985 . S
C582 C576 1.379 . S
C582 C579 1.363 1_556 S
C582 N580 1.356 . S
C583 C577 1.363 1_554 S
C583 C578 1.379 . S
C583 N581 1.356 . S
N584 C576 1.356 . S
N584 H590 0.984 . S
N584 H591 0.984 . S
N585 C578 1.356 . S
N585 H588 0.984 . S
N585 H589 0.985 . S
H586 N581 0.984 . S
H587 N581 0.985 . S
H588 N585 0.984 . S
H589 N585 0.985 . S
H590 N584 0.984 . S
H591 N584 0.984 . S
H592 N580 0.984 . S
H593 N580 0.985 . S
C594 C595 1.363 . S
C594 C600 1.379 . S
C594 N602 1.356 . S
C595 C594 1.363 . S
C595 C601 1.363 1_556 S
C596 C597 1.363 . S
C596 C601 1.379 . S
C596 N603 1.356 . S
C597 C596 1.363 . S
C597 C600 1.363 1_554 S
N598 C600 1.356 . S
N598 H610 0.984 . S
N598 H611 0.985 . S
N599 C601 1.356 . S
N599 H604 0.984 . S
N599 H605 0.985 . S
C600 C594 1.379 . S
C600 C597 1.363 1_556 S
C600 N598 1.356 . S
C601 C595 1.363 1_554 S
C601 C596 1.379 . S
C601 N599 1.356 . S
N602 C594 1.356 . S
N602 H608 0.984 . S
N602 H609 0.984 . S
N603 C596 1.356 . S
N603 H606 0.984 . S
N603 H607 0.985 . S
H604 N599 0.984 . S
H605 N599 0.985 . S
H606 N603 0.984 . S
H607 N603 0.985 . S
H608 N602 0.984 . S
H609 N602 0.984 . S
H610 N598 0.984 . S
H611 N598 0.985 . S
C612 C613 1.363 . S
C612 C618 1.379 . S
C612 N620 1.356 . S
C613 C612 1.363 . S
C613 C619 1.363 . S
C614 C615 1.363 . S
C614 C619 1.379 . S
C614 N621 1.356 . S
C615 C614 1.363 . S
C615 C618 1.363 . S
N616 C618 1.356 . S
N616 H628 0.984 . S
N616 H629 0.985 . S
N617 C619 1.356 . S
N617 H622 0.984 . S
N617 H623 0.985 . S
C618 C612 1.379 . S
C618 C615 1.363 . S
C618 N616 1.356 . S
C619 C613 1.363 . S
C619 C614 1.379 . S
C619 N617 1.356 . S
N620 C612 1.356 . S
N620 H626 0.984 . S
N620 H627 0.984 . S
N621 C614 1.356 . S
N621 H624 0.984 . S
N621 H625 0.985 . S
H622 N617 0.984 . S
H623 N617 0.985 . S
H624 N621 0.984 . S
H625 N621 0.985 . S
H626 N620 0.984 . S
H627 N620 0.984 . S
H628 N616 0.984 . S
H629 N616 0.985 . S
C630 C631 1.363 . S
C630 C636 1.379 . S
C630 N638 1.356 . S
C631 C630 1.363 . S
C631 C637 1.363 . S
C632 C633 1.363 . S
C632 C637 1.379 . S
C632 N639 1.356 . S
C633 C632 1.363 . S
C633 C636 1.363 . S
N634 C636 1.356 . S
N634 H646 0.984 . S
N634 H647 0.985 . S
N635 C637 1.356 . S
N635 H640 0.984 . S
N635 H641 0.985 . S
C636 C630 1.379 . S
C636 C633 1.363 . S
C636 N634 1.356 . S
C637 C631 1.363 . S
C637 C632 1.379 . S
C637 N635 1.356 . S
N638 C630 1.356 . S
N638 H644 0.984 . S
N638 H645 0.984 . S
N639 C632 1.356 . S
N639 H642 0.984 . S
N639 H643 0.985 . S
H640 N635 0.984 . S
H641 N635 0.985 . S
H642 N639 0.984 . S
H643 N639 0.985 . S
H644 N638 0.984 . S
H645 N638 0.984 . S
H646 N634 0.984 . S
H647 N634 0.985 . S
C648 C649 1.363 . S
C648 C654 1.379 . S
C648 N656 1.356 . S
C649 C648 1.363 . S
C649 C655 1.363 . S
C650 C651 1.363 . S
C650 C655 1.379 . S
C650 N657 1.356 . S
C651 C650 1.363 . S
C651 C654 1.363 . S
N652 C654 1.356 . S
N652 H664 0.984 . S
N652 H665 0.985 . S
N653 C655 1.356 . S
N653 H658 0.984 . S
N653 H659 0.985 . S
C654 C648 1.379 . S
C654 C651 1.363 . S
C654 N652 1.356 . S
C655 C649 1.363 . S
C655 C650 1.379 . S
C655 N653 1.356 . S
N656 C648 1.356 . S
N656 H662 0.984 . S
N656 H663 0.984 . S
N657 C650 1.356 . S
N657 H660 0.984 . S
N657 H661 0.985 . S
H658 N653 0.984 . S
H659 N653 0.985 . S
H660 N657 0.984 . S
H661 N657 0.985 . S
H662 N656 0.984 . S
H663 N656 0.984 . S
H664 N652 0.984 . S
H665 N652 0.985 . S
C666 C667 1.363 . S
C666 C672 1.379 . S
C666 N674 1.356 . S
C667 C666 1.363 . S
C667 C673 1.363 . S
C668 C669 1.363 . S
C668 C673 1.379 . S
C668 N675 1.356 . S
C669 C668 1.363 . S
C669 C672 1.363 . S
N670 C672 1.356 . S
N670 H682 0.984 . S
N670 H683 0.985 . S
N671 C673 1.356 . S
N671 H676 0.984 . S
N671 H677 0.985 . S
C672 C666 1.379 . S
C672 C669 1.363 . S
C672 N670 1.356 . S
C673 C667 1.363 . S
C673 C668 1.379 . S
C673 N671 1.356 . S
N674 C666 1.356 . S
N674 H680 0.984 . S
N674 H681 0.984 . S
N675 C668 1.356 . S
N675 H678 0.984 . S
N675 H679 0.985 . S
H676 N671 0.984 . S
H677 N671 0.985 . S
H678 N675 0.984 . S
H679 N675 0.985 . S
H680 N674 0.984 . S
H681 N674 0.984 . S
H682 N670 0.984 . S
H683 N670 0.985 . S
C684 C685 1.363 . S
C684 C690 1.379 . S
C684 N692 1.356 . S
C685 C684 1.363 . S
C685 C691 1.363 . S
C686 C687 1.363 . S
C686 C691 1.379 . S
C686 N693 1.356 . S
C687 C686 1.363 . S
C687 C690 1.363 . S
N688 C690 1.356 . S
N688 H700 0.984 . S
N688 H701 0.985 . S
N689 C691 1.356 . S
N689 H694 0.984 . S
N689 H695 0.985 . S
C690 C684 1.379 . S
C690 C687 1.363 . S
C690 N688 1.356 . S
C691 C685 1.363 . S
C691 C686 1.379 . S
C691 N689 1.356 . S
N692 C684 1.356 . S
N692 H698 0.984 . S
N692 H699 0.984 . S
N693 C686 1.356 . S
N693 H696 0.984 . S
N693 H697 0.985 . S
H694 N689 0.984 . S
H695 N689 0.985 . S
H696 N693 0.984 . S
H697 N693 0.985 . S
H698 N692 0.984 . S
H699 N692 0.984 . S
H700 N688 0.984 . S
H701 N688 0.985 . S
C702 C703 1.363 . S
C702 C708 1.379 . S
C702 N710 1.356 . S
C703 C702 1.363 . S
C703 C709 1.363 . S
C704 C705 1.363 . S
C704 C709 1.379 . S
C704 N711 1.356 . S
C705 C704 1.363 . S
C705 C708 1.363 . S
N706 C708 1.356 . S
N706 H718 0.984 . S
N706 H719 0.985 . S
N707 C709 1.356 . S
N707 H712 0.984 . S
N707 H713 0.985 . S
C708 C702 1.379 . S
C708 C705 1.363 . S
C708 N706 1.356 . S
C709 C703 1.363 . S
C709 C704 1.379 . S
C709 N707 1.356 . S
N710 C702 1.356 . S
N710 H716 0.984 . S
N710 H717 0.984 . S
N711 C704 1.356 . S
N711 H714 0.984 . S
N711 H715 0.985 . S
H712 N707 0.984 . S
H713 N707 0.985 . S
H714 N711 0.984 . S
H715 N711 0.985 . S
H716 N710 0.984 . S
H717 N710 0.984 . S
H718 N706 0.984 . S
H719 N706 0.985 . S
C720 C721 1.363 . S
C720 C726 1.379 . S
C720 N728 1.356 . S
C721 C720 1.363 . S
C721 C727 1.363 . S
C722 C723 1.363 . S
C722 C727 1.379 . S
C722 N729 1.356 . S
C723 C722 1.363 . S
C723 C726 1.363 . S
N724 C726 1.356 . S
N724 H736 0.984 . S
N724 H737 0.985 . S
N725 C727 1.356 . S
N725 H730 0.984 . S
N725 H731 0.985 . S
C726 C720 1.379 . S
C726 C723 1.363 . S
C726 N724 1.356 . S
C727 C721 1.363 . S
C727 C722 1.379 . S
C727 N725 1.356 . S
N728 C720 1.356 . S
N728 H734 0.984 . S
N728 H735 0.984 . S
N729 C722 1.356 . S
N729 H732 0.984 . S
N729 H733 0.985 . S
H730 N725 0.984 . S
H731 N725 0.985 . S
H732 N729 0.984 . S
H733 N729 0.985 . S
H734 N728 0.984 . S
H735 N728 0.984 . S
H736 N724 0.984 . S
H737 N724 0.985 . S
C738 C739 1.363 . S
C738 C744 1.379 . S
C738 N746 1.356 . S
C739 C738 1.363 . S
C739 C745 1.363 . S
C740 C741 1.363 . S
C740 C745 1.379 . S
C740 N747 1.356 . S
C741 C740 1.363 . S
C741 C744 1.363 . S
N742 C744 1.356 . S
N742 H754 0.984 . S
N742 H755 0.985 . S
N743 C745 1.356 . S
N743 H748 0.984 . S
N743 H749 0.985 . S
C744 C738 1.379 . S
C744 C741 1.363 . S
C744 N742 1.356 . S
C745 C739 1.363 . S
C745 C740 1.379 . S
C745 N743 1.356 . S
N746 C738 1.356 . S
N746 H752 0.984 . S
N746 H753 0.984 . S
N747 C740 1.356 . S
N747 H750 0.984 . S
N747 H751 0.985 . S
H748 N743 0.984 . S
H749 N743 0.985 . S
H750 N747 0.984 . S
H751 N747 0.985 . S
H752 N746 0.984 . S
H753 N746 0.984 . S
H754 N742 0.984 . S
H755 N742 0.985 . S
C756 C757 1.363 . S
C756 C762 1.379 . S
C756 N764 1.356 . S
C757 C756 1.363 . S
C757 C763 1.363 . S
C758 C759 1.363 . S
C758 C763 1.379 . S
C758 N765 1.356 . S
C759 C758 1.363 . S
C759 C762 1.363 . S
N760 C762 1.356 . S
N760 H772 0.984 . S
N760 H773 0.985 . S
N761 C763 1.356 . S
N761 H766 0.984 . S
N761 H767 0.985 . S
C762 C756 1.379 . S
C762 C759 1.363 . S
C762 N760 1.356 . S
C763 C757 1.363 . S
C763 C758 1.379 . S
C763 N761 1.356 . S
N764 C756 1.356 . S
N764 H770 0.984 . S
N764 H771 0.984 . S
N765 C758 1.356 . S
N765 H768 0.984 . S
N765 H769 0.985 . S
H766 N761 0.984 . S
H767 N761 0.985 . S
H768 N765 0.984 . S
H769 N765 0.985 . S
H770 N764 0.984 . S
H771 N764 0.984 . S
H772 N760 0.984 . S
H773 N760 0.985 . S
C774 C775 1.363 . S
C774 C780 1.379 . S
C774 N782 1.356 . S
C775 C774 1.363 . S
C775 C781 1.363 . S
C776 C777 1.363 . S
C776 C781 1.379 . S
C776 N783 1.356 . S
C777 C776 1.363 . S
C777 C780 1.363 . S
N778 C780 1.356 . S
N778 H790 0.984 . S
N778 H791 0.985 . S
N779 C781 1.356 . S
N779 H784 0.984 . S
N779 H785 0.985 . S
C780 C774 1.379 . S
C780 C777 1.363 . S
C780 N778 1.356 . S
C781 C775 1.363 . S
C781 C776 1.379 . S
C781 N779 1.356 . S
N782 C774 1.356 . S
N782 H788 0.984 . S
N782 H789 0.984 . S
N783 C776 1.356 . S
N783 H786 0.984 . S
N783 H787 0.985 . S
H784 N779 0.984 . S
H785 N779 0.985 . S
H786 N783 0.984 . S
H787 N783 0.985 . S
H788 N782 0.984 . S
H789 N782 0.984 . S
H790 N778 0.984 . S
H791 N778 0.985 . S
C792 C793 1.363 . S
C792 C798 1.379 . S
C792 N800 1.356 . S
C793 C792 1.363 . S
C793 C799 1.363 . S
C794 C795 1.363 . S
C794 C799 1.379 . S
C794 N801 1.356 . S
C795 C794 1.363 . S
C795 C798 1.363 . S
N796 C798 1.356 . S
N796 H808 0.984 . S
N796 H809 0.985 . S
N797 C799 1.356 . S
N797 H802 0.984 . S
N797 H803 0.985 . S
C798 C792 1.379 . S
C798 C795 1.363 . S
C798 N796 1.356 . S
C799 C793 1.363 . S
C799 C794 1.379 . S
C799 N797 1.356 . S
N800 C792 1.356 . S
N800 H806 0.984 . S
N800 H807 0.984 . S
N801 C794 1.356 . S
N801 H804 0.984 . S
N801 H805 0.985 . S
H802 N797 0.984 . S
H803 N797 0.985 . S
H804 N801 0.984 . S
H805 N801 0.985 . S
H806 N800 0.984 . S
H807 N800 0.984 . S
H808 N796 0.984 . S
H809 N796 0.985 . S
C810 C811 1.363 . S
C810 C816 1.379 . S
C810 N818 1.356 . S
C811 C810 1.363 . S
C811 C817 1.363 . S
C812 C813 1.363 . S
C812 C817 1.379 . S
C812 N819 1.356 . S
C813 C812 1.363 . S
C813 C816 1.363 . S
N814 C816 1.356 . S
N814 H826 0.984 . S
N814 H827 0.985 . S
N815 C817 1.356 . S
N815 H820 0.984 . S
N815 H821 0.985 . S
C816 C810 1.379 . S
C816 C813 1.363 . S
C816 N814 1.356 . S
C817 C811 1.363 . S
C817 C812 1.379 . S
C817 N815 1.356 . S
N818 C810 1.356 . S
N818 H824 0.984 . S
N818 H825 0.984 . S
N819 C812 1.356 . S
N819 H822 0.984 . S
N819 H823 0.985 . S
H820 N815 0.984 . S
H821 N815 0.985 . S
H822 N819 0.984 . S
H823 N819 0.985 . S
H824 N818 0.984 . S
H825 N818 0.984 . S
H826 N814 0.984 . S
H827 N814 0.985 . S
C828 C829 1.363 . S
C828 C834 1.379 1_455 S
C828 N836 1.356 . S
C829 C828 1.363 . S
C829 C835 1.363 1_556 S
C830 C831 1.363 . S
C830 C835 1.379 1_655 S
C830 N837 1.356 . S
C831 C830 1.363 . S
C831 C834 1.363 1_554 S
N832 C834 1.356 . S
N832 H844 0.984 . S
N832 H845 0.985 . S
N833 C835 1.356 . S
N833 H838 0.984 . S
N833 H839 0.985 . S
C834 C828 1.379 1_655 S
C834 C831 1.363 1_556 S
C834 N832 1.356 . S
C835 C829 1.363 1_554 S
C835 C830 1.379 1_455 S
C835 N833 1.356 . S
N836 C828 1.356 . S
N836 H842 0.984 . S
N836 H843 0.984 . S
N837 C830 1.356 . S
N837 H840 0.984 . S
N837 H841 0.985 . S
H838 N833 0.984 . S
H839 N833 0.985 . S
H840 N837 0.984 . S
H841 N837 0.985 . S
H842 N836 0.984 . S
H843 N836 0.984 . S
H844 N832 0.984 . S
H845 N832 0.985 . S
C846 C847 1.363 . S
C846 C852 1.379 1_565 S
C846 N854 1.356 . S
C847 C846 1.363 . S
C847 C853 1.363 1_554 S
C848 C849 1.363 . S
C848 C853 1.379 1_545 S
C848 N855 1.356 . S
C849 C848 1.363 . S
C849 C852 1.363 1_556 S
N850 C852 1.356 . S
N850 H862 0.984 . S
N850 H863 0.985 . S
N851 C853 1.356 . S
N851 H856 0.984 . S
N851 H857 0.985 . S
C852 C846 1.379 1_545 S
C852 C849 1.363 1_554 S
C852 N850 1.356 . S
C853 C847 1.363 1_556 S
C853 C848 1.379 1_565 S
C853 N851 1.356 . S
N854 C846 1.356 . S
N854 H860 0.984 . S
N854 H861 0.984 . S
N855 C848 1.356 . S
N855 H858 0.984 . S
N855 H859 0.985 . S
H856 N851 0.984 . S
H857 N851 0.985 . S
H858 N855 0.984 . S
H859 N855 0.985 . S
H860 N854 0.984 . S
H861 N854 0.984 . S
H862 N850 0.984 . S
H863 N850 0.985 . S
C864 C865 1.363 . S
C864 C870 1.379 1_554 S
C864 N872 1.356 . S
C865 C864 1.363 . S
C865 C871 1.363 . S
C866 C867 1.363 1_554 S
C866 C871 1.379 . S
C866 N873 1.356 . S
C867 C866 1.363 1_556 S
C867 C870 1.363 . S
N868 C870 1.356 . S
N868 H880 0.984 . S
N868 H881 0.985 . S
N869 C871 1.356 . S
N869 H874 0.984 . S
N869 H875 0.985 . S
C870 C864 1.379 1_556 S
C870 C867 1.363 . S
C870 N868 1.356 . S
C871 C865 1.363 . S
C871 C866 1.379 . S
C871 N869 1.356 . S
N872 C864 1.356 . S
N872 H878 0.984 1_554 S
N872 H879 0.984 . S
N873 C866 1.356 . S
N873 H876 0.984 . S
N873 H877 0.985 . S
H874 N869 0.984 . S
H875 N869 0.985 . S
H876 N873 0.984 . S
H877 N873 0.985 . S
H878 N872 0.984 1_556 S
H879 N872 0.984 . S
H880 N868 0.984 . S
H881 N868 0.985 . S
C882 C883 1.363 1_556 S
C882 C888 1.379 1_455 S
C882 N890 1.356 . S
C883 C882 1.363 1_554 S
C883 C889 1.363 . S
C884 C885 1.363 1_554 S
C884 C889 1.379 1_655 S
C884 N891 1.356 . S
C885 C884 1.363 1_556 S
C885 C888 1.363 . S
N886 C888 1.356 . S
N886 H898 0.984 . S
N886 H899 0.985 . S
N887 C889 1.356 . S
N887 H892 0.984 . S
N887 H893 0.985 . S
C888 C882 1.379 1_655 S
C888 C885 1.363 . S
C888 N886 1.356 . S
C889 C883 1.363 . S
C889 C884 1.379 1_455 S
C889 N887 1.356 . S
N890 C882 1.356 . S
N890 H896 0.984 . S
N890 H897 0.984 . S
N891 C884 1.356 . S
N891 H894 0.984 . S
N891 H895 0.985 . S
H892 N887 0.984 . S
H893 N887 0.985 . S
H894 N891 0.984 . S
H895 N891 0.985 . S
H896 N890 0.984 . S
H897 N890 0.984 . S
H898 N886 0.984 . S
H899 N886 0.985 . S
C900 C901 1.363 . S
C900 C906 1.379 1_565 S
C900 N908 1.356 . S
C901 C900 1.363 . S
C901 C907 1.363 1_556 S
C902 C903 1.363 . S
C902 C907 1.379 1_545 S
C902 N909 1.356 . S
C903 C902 1.363 . S
C903 C906 1.363 1_554 S
N904 C906 1.356 . S
N904 H916 0.984 . S
N904 H917 0.985 . S
N905 C907 1.356 . S
N905 H910 0.984 . S
N905 H911 0.985 . S
C906 C900 1.379 1_545 S
C906 C903 1.363 1_556 S
C906 N904 1.356 . S
C907 C901 1.363 1_554 S
C907 C902 1.379 1_565 S
C907 N905 1.356 . S
N908 C900 1.356 . S
N908 H914 0.984 . S
N908 H915 0.984 . S
N909 C902 1.356 . S
N909 H912 0.984 . S
N909 H913 0.985 . S
H910 N905 0.984 . S
H911 N905 0.985 . S
H912 N909 0.984 . S
H913 N909 0.985 . S
H914 N908 0.984 . S
H915 N908 0.984 . S
H916 N904 0.984 . S
H917 N904 0.985 . S
C918 C919 1.363 . S
C918 C924 1.379 . S
C918 N926 1.356 . S
C919 C918 1.363 . S
C919 C925 1.363 1_554 S
C920 C921 1.363 . S
C920 C925 1.379 . S
C920 N927 1.356 . S
C921 C920 1.363 . S
C921 C924 1.363 1_556 S
N922 C924 1.356 . S
N922 H934 0.984 . S
N922 H935 0.985 . S
N923 C925 1.356 . S
N923 H928 0.984 . S
N923 H929 0.985 . S
C924 C918 1.379 . S
C924 C921 1.363 1_554 S
C924 N922 1.356 . S
C925 C919 1.363 1_556 S
C925 C920 1.379 . S
C925 N923 1.356 . S
N926 C918 1.356 . S
N926 H932 0.984 . S
N926 H933 0.984 . S
N927 C920 1.356 . S
N927 H930 0.984 . S
N927 H931 0.985 . S
H928 N923 0.984 . S
H929 N923 0.985 . S
H930 N927 0.984 . S
H931 N927 0.985 . S
H932 N926 0.984 . S
H933 N926 0.984 . S
H934 N922 0.984 . S
H935 N922 0.985 . S
C397 C281 1.593 . S
C399 C17 1.593 . S
C415 C50 1.593 . S
C417 C314 1.593 . S
C433 C347 1.593 . S
C435 C83 1.593 . S
C451 C380 1.593 . S
C453 C116 1.593 . S
C469 C149 1.593 . S
C471 C215 1.593 . S
C487 C248 1.593 . S
C489 C182 1.593 . S
C505 C358 1.283 . S
C507 C28 1.283 . S
C523 C391 1.284 . S
C525 C61 1.284 . S
C541 C94 1.283 . S
C543 C226 1.283 . S
C559 C259 1.283 . S
C561 C127 1.283 . S
C577 C292 1.284 . S
C579 C160 1.284 . S
C595 C325 1.283 . S
C597 C193 1.283 . S
C613 N5 1.488 . S
C615 N14 1.480 . S
C631 N38 1.488 . S
C633 N47 1.480 . S
C649 N71 1.488 . S
C651 N80 1.480 . S
C667 N104 1.488 . S
C669 N113 1.480 . S
C685 N146 1.480 . S
C687 N137 1.488 . S
C703 N170 1.488 . S
C705 N179 1.480 . S
C721 N212 1.480 . S
C723 N203 1.488 . S
C739 N236 1.488 . S
C741 N245 1.480 . S
C757 N278 1.480 . S
C759 N269 1.488 . S
C775 N311 1.480 . S
C777 N302 1.488 . S
C793 N335 1.488 . S
C795 N344 1.480 . S
C811 N368 1.488 . S
C813 N377 1.480 . S
C829 C8 1.382 . S
C831 C371 1.382 . S
C847 C206 1.382 . S
C849 C41 1.382 . S
C865 C239 1.381 . S
C867 C74 1.381 . S
C883 C272 1.382 . S
C885 C107 1.382 . S
C901 C140 1.382 . S
C903 C305 1.382 . S
C919 C338 1.381 . S
C921 C173 1.381 . S
