# Generated by pormake.
# Topology gie, (4)-cn, num edge types: 1
# Building blocks:
#     Node 0, Type 0, BuildingBlock: NAWXER_clean_sbu_0, # of connection points: 4
#     Node 1, Type 0, BuildingBlock: NAWXER_clean_sbu_0, # of connection points: 4
#     Node 2, Type 0, BuildingBlock: NAWXER_clean_sbu_0, # of connection points: 4
#     Node 3, Type 0, BuildingBlock: NAWXER_clean_sbu_0, # of connection points: 4
#     Node 4, Type 0, BuildingBlock: NAWXER_clean_sbu_0, # of connection points: 4
#     Node 5, Type 0, BuildingBlock: NAWXER_clean_sbu_0, # of connection points: 4
#     Node 6, Type 0, BuildingBlock: NAWXER_clean_sbu_0, # of connection points: 4
#     Node 7, Type 0, BuildingBlock: NAWXER_clean_sbu_0, # of connection points: 4
#     Node 8, Type 0, BuildingBlock: NAWXER_clean_sbu_0, # of connection points: 4
#     Node 9, Type 0, BuildingBlock: NAWXER_clean_sbu_0, # of connection points: 4
#     Node 10, Type 0, BuildingBlock: NAWXER_clean_sbu_0, # of connection points: 4
#     Node 11, Type 0, BuildingBlock: NAWXER_clean_sbu_0, # of connection points: 4
#     Node 12, Type 0, BuildingBlock: NAWXER_clean_sbu_0, # of connection points: 4
#     Node 13, Type 0, BuildingBlock: NAWXER_clean_sbu_0, # of connection points: 4
#     Node 14, Type 0, BuildingBlock: NAWXER_clean_sbu_0, # of connection points: 4
#     Node 15, Type 0, BuildingBlock: NAWXER_clean_sbu_0, # of connection points: 4
#     Node 16, Type 0, BuildingBlock: NAWXER_clean_sbu_0, # of connection points: 4
#     Node 17, Type 0, BuildingBlock: NAWXER_clean_sbu_0, # of connection points: 4
#     Node 18, Type 0, BuildingBlock: NAWXER_clean_sbu_0, # of connection points: 4
#     Node 19, Type 0, BuildingBlock: NAWXER_clean_sbu_0, # of connection points: 4
#     Node 20, Type 0, BuildingBlock: NAWXER_clean_sbu_0, # of connection points: 4
#     Node 21, Type 0, BuildingBlock: NAWXER_clean_sbu_0, # of connection points: 4
#     Node 22, Type 0, BuildingBlock: NAWXER_clean_sbu_0, # of connection points: 4
#     Node 23, Type 0, BuildingBlock: NAWXER_clean_sbu_0, # of connection points: 4
#     Node 24, Type 0, BuildingBlock: NAWXER_clean_sbu_0, # of connection points: 4
#     Node 25, Type 0, BuildingBlock: NAWXER_clean_sbu_0, # of connection points: 4
#     Node 26, Type 0, BuildingBlock: NAWXER_clean_sbu_0, # of connection points: 4
#     Node 27, Type 0, BuildingBlock: NAWXER_clean_sbu_0, # of connection points: 4
#     Node 28, Type 0, BuildingBlock: NAWXER_clean_sbu_0, # of connection points: 4
#     Node 29, Type 0, BuildingBlock: NAWXER_clean_sbu_0, # of connection points: 4
#     Node 30, Type 0, BuildingBlock: NAWXER_clean_sbu_0, # of connection points: 4
#     Node 31, Type 0, BuildingBlock: NAWXER_clean_sbu_0, # of connection points: 4
#     Node 32, Type 0, BuildingBlock: NAWXER_clean_sbu_0, # of connection points: 4
#     Node 33, Type 0, BuildingBlock: NAWXER_clean_sbu_0, # of connection points: 4
#     Node 34, Type 0, BuildingBlock: NAWXER_clean_sbu_0, # of connection points: 4
#     Node 35, Type 0, BuildingBlock: NAWXER_clean_sbu_0, # of connection points: 4
#     Node 36, Type 0, BuildingBlock: NAWXER_clean_sbu_0, # of connection points: 4
#     Node 37, Type 0, BuildingBlock: NAWXER_clean_sbu_0, # of connection points: 4
#     Node 38, Type 0, BuildingBlock: NAWXER_clean_sbu_0, # of connection points: 4
#     Node 39, Type 0, BuildingBlock: NAWXER_clean_sbu_0, # of connection points: 4
#     Node 40, Type 0, BuildingBlock: NAWXER_clean_sbu_0, # of connection points: 4
#     Node 41, Type 0, BuildingBlock: NAWXER_clean_sbu_0, # of connection points: 4
#     Node 42, Type 0, BuildingBlock: NAWXER_clean_sbu_0, # of connection points: 4
#     Node 43, Type 0, BuildingBlock: NAWXER_clean_sbu_0, # of connection points: 4
#     Node 44, Type 0, BuildingBlock: NAWXER_clean_sbu_0, # of connection points: 4
#     Node 45, Type 0, BuildingBlock: NAWXER_clean_sbu_0, # of connection points: 4
#     Node 46, Type 0, BuildingBlock: NAWXER_clean_sbu_0, # of connection points: 4
#     Node 47, Type 0, BuildingBlock: NAWXER_clean_sbu_0, # of connection points: 4
#     Node 48, Type 0, BuildingBlock: NAWXER_clean_sbu_0, # of connection points: 4
#     Node 49, Type 0, BuildingBlock: NAWXER_clean_sbu_0, # of connection points: 4
#     Node 50, Type 0, BuildingBlock: NAWXER_clean_sbu_0, # of connection points: 4
#     Node 51, Type 0, BuildingBlock: NAWXER_clean_sbu_0, # of connection points: 4
#     Node 52, Type 0, BuildingBlock: NAWXER_clean_sbu_0, # of connection points: 4
#     Node 53, Type 0, BuildingBlock: NAWXER_clean_sbu_0, # of connection points: 4
#     Node 54, Type 0, BuildingBlock: NAWXER_clean_sbu_0, # of connection points: 4
#     Node 55, Type 0, BuildingBlock: NAWXER_clean_sbu_0, # of connection points: 4
#     Node 56, Type 0, BuildingBlock: NAWXER_clean_sbu_0, # of connection points: 4
#     Node 57, Type 0, BuildingBlock: NAWXER_clean_sbu_0, # of connection points: 4
#     Node 58, Type 0, BuildingBlock: NAWXER_clean_sbu_0, # of connection points: 4
#     Node 59, Type 0, BuildingBlock: NAWXER_clean_sbu_0, # of connection points: 4
#     Node 60, Type 0, BuildingBlock: NAWXER_clean_sbu_0, # of connection points: 4
#     Node 61, Type 0, BuildingBlock: NAWXER_clean_sbu_0, # of connection points: 4
#     Node 62, Type 0, BuildingBlock: NAWXER_clean_sbu_0, # of connection points: 4
#     Node 63, Type 0, BuildingBlock: NAWXER_clean_sbu_0, # of connection points: 4
#     Node 64, Type 0, BuildingBlock: NAWXER_clean_sbu_0, # of connection points: 4
#     Node 65, Type 0, BuildingBlock: NAWXER_clean_sbu_0, # of connection points: 4
#     Node 66, Type 0, BuildingBlock: NAWXER_clean_sbu_0, # of connection points: 4
#     Node 67, Type 0, BuildingBlock: NAWXER_clean_sbu_0, # of connection points: 4
#     Node 68, Type 0, BuildingBlock: NAWXER_clean_sbu_0, # of connection points: 4
#     Node 69, Type 0, BuildingBlock: NAWXER_clean_sbu_0, # of connection points: 4
#     Node 70, Type 0, BuildingBlock: NAWXER_clean_sbu_0, # of connection points: 4
#     Node 71, Type 0, BuildingBlock: NAWXER_clean_sbu_0, # of connection points: 4
#     Node 72, Type 0, BuildingBlock: NAWXER_clean_sbu_0, # of connection points: 4
#     Node 73, Type 0, BuildingBlock: NAWXER_clean_sbu_0, # of connection points: 4
#     Node 74, Type 0, BuildingBlock: NAWXER_clean_sbu_0, # of connection points: 4
#     Node 75, Type 0, BuildingBlock: NAWXER_clean_sbu_0, # of connection points: 4
#     Node 76, Type 0, BuildingBlock: NAWXER_clean_sbu_0, # of connection points: 4
#     Node 77, Type 0, BuildingBlock: NAWXER_clean_sbu_0, # of connection points: 4
#     Node 78, Type 0, BuildingBlock: NAWXER_clean_sbu_0, # of connection points: 4
#     Node 79, Type 0, BuildingBlock: NAWXER_clean_sbu_0, # of connection points: 4
#     Node 80, Type 0, BuildingBlock: NAWXER_clean_sbu_0, # of connection points: 4
#     Node 81, Type 0, BuildingBlock: NAWXER_clean_sbu_0, # of connection points: 4
#     Node 82, Type 0, BuildingBlock: NAWXER_clean_sbu_0, # of connection points: 4
#     Node 83, Type 0, BuildingBlock: NAWXER_clean_sbu_0, # of connection points: 4
#     Node 84, Type 0, BuildingBlock: NAWXER_clean_sbu_0, # of connection points: 4
#     Node 85, Type 0, BuildingBlock: NAWXER_clean_sbu_0, # of connection points: 4
#     Node 86, Type 0, BuildingBlock: NAWXER_clean_sbu_0, # of connection points: 4
#     Node 87, Type 0, BuildingBlock: NAWXER_clean_sbu_0, # of connection points: 4
#     Node 88, Type 0, BuildingBlock: NAWXER_clean_sbu_0, # of connection points: 4
#     Node 89, Type 0, BuildingBlock: NAWXER_clean_sbu_0, # of connection points: 4
#     Node 90, Type 0, BuildingBlock: NAWXER_clean_sbu_0, # of connection points: 4
#     Node 91, Type 0, BuildingBlock: NAWXER_clean_sbu_0, # of connection points: 4
#     Node 92, Type 0, BuildingBlock: NAWXER_clean_sbu_0, # of connection points: 4
#     Node 93, Type 0, BuildingBlock: NAWXER_clean_sbu_0, # of connection points: 4
#     Node 94, Type 0, BuildingBlock: NAWXER_clean_sbu_0, # of connection points: 4
#     Node 95, Type 0, BuildingBlock: NAWXER_clean_sbu_0, # of connection points: 4
#     Edge 96, Type (0, 0), BuildingBlock: CIFDUS_clean_linker_0, # of connection points: 2
#     Edge 97, Type (0, 0), BuildingBlock: CIFDUS_clean_linker_0, # of connection points: 2
#     Edge 98, Type (0, 0), BuildingBlock: CIFDUS_clean_linker_0, # of connection points: 2
#     Edge 99, Type (0, 0), BuildingBlock: CIFDUS_clean_linker_0, # of connection points: 2
#     Edge 100, Type (0, 0), BuildingBlock: CIFDUS_clean_linker_0, # of connection points: 2
#     Edge 101, Type (0, 0), BuildingBlock: CIFDUS_clean_linker_0, # of connection points: 2
#     Edge 102, Type (0, 0), BuildingBlock: CIFDUS_clean_linker_0, # of connection points: 2
#     Edge 103, Type (0, 0), BuildingBlock: CIFDUS_clean_linker_0, # of connection points: 2
#     Edge 104, Type (0, 0), BuildingBlock: CIFDUS_clean_linker_0, # of connection points: 2
#     Edge 105, Type (0, 0), BuildingBlock: CIFDUS_clean_linker_0, # of connection points: 2
#     Edge 106, Type (0, 0), BuildingBlock: CIFDUS_clean_linker_0, # of connection points: 2
#     Edge 107, Type (0, 0), BuildingBlock: CIFDUS_clean_linker_0, # of connection points: 2
#     Edge 108, Type (0, 0), BuildingBlock: CIFDUS_clean_linker_0, # of connection points: 2
#     Edge 109, Type (0, 0), BuildingBlock: CIFDUS_clean_linker_0, # of connection points: 2
#     Edge 110, Type (0, 0), BuildingBlock: CIFDUS_clean_linker_0, # of connection points: 2
#     Edge 111, Type (0, 0), BuildingBlock: CIFDUS_clean_linker_0, # of connection points: 2
#     Edge 112, Type (0, 0), BuildingBlock: CIFDUS_clean_linker_0, # of connection points: 2
#     Edge 113, Type (0, 0), BuildingBlock: CIFDUS_clean_linker_0, # of connection points: 2
#     Edge 114, Type (0, 0), BuildingBlock: CIFDUS_clean_linker_0, # of connection points: 2
#     Edge 115, Type (0, 0), BuildingBlock: CIFDUS_clean_linker_0, # of connection points: 2
#     Edge 116, Type (0, 0), BuildingBlock: CIFDUS_clean_linker_0, # of connection points: 2
#     Edge 117, Type (0, 0), BuildingBlock: CIFDUS_clean_linker_0, # of connection points: 2
#     Edge 118, Type (0, 0), BuildingBlock: CIFDUS_clean_linker_0, # of connection points: 2
#     Edge 119, Type (0, 0), BuildingBlock: CIFDUS_clean_linker_0, # of connection points: 2
#     Edge 120, Type (0, 0), BuildingBlock: CIFDUS_clean_linker_0, # of connection points: 2
#     Edge 121, Type (0, 0), BuildingBlock: CIFDUS_clean_linker_0, # of connection points: 2
#     Edge 122, Type (0, 0), BuildingBlock: CIFDUS_clean_linker_0, # of connection points: 2
#     Edge 123, Type (0, 0), BuildingBlock: CIFDUS_clean_linker_0, # of connection points: 2
#     Edge 124, Type (0, 0), BuildingBlock: CIFDUS_clean_linker_0, # of connection points: 2
#     Edge 125, Type (0, 0), BuildingBlock: CIFDUS_clean_linker_0, # of connection points: 2
#     Edge 126, Type (0, 0), BuildingBlock: CIFDUS_clean_linker_0, # of connection points: 2
#     Edge 127, Type (0, 0), BuildingBlock: CIFDUS_clean_linker_0, # of connection points: 2
#     Edge 128, Type (0, 0), BuildingBlock: CIFDUS_clean_linker_0, # of connection points: 2
#     Edge 129, Type (0, 0), BuildingBlock: CIFDUS_clean_linker_0, # of connection points: 2
#     Edge 130, Type (0, 0), BuildingBlock: CIFDUS_clean_linker_0, # of connection points: 2
#     Edge 131, Type (0, 0), BuildingBlock: CIFDUS_clean_linker_0, # of connection points: 2
#     Edge 132, Type (0, 0), BuildingBlock: CIFDUS_clean_linker_0, # of connection points: 2
#     Edge 133, Type (0, 0), BuildingBlock: CIFDUS_clean_linker_0, # of connection points: 2
#     Edge 134, Type (0, 0), BuildingBlock: CIFDUS_clean_linker_0, # of connection points: 2
#     Edge 135, Type (0, 0), BuildingBlock: CIFDUS_clean_linker_0, # of connection points: 2
#     Edge 136, Type (0, 0), BuildingBlock: CIFDUS_clean_linker_0, # of connection points: 2
#     Edge 137, Type (0, 0), BuildingBlock: CIFDUS_clean_linker_0, # of connection points: 2
#     Edge 138, Type (0, 0), BuildingBlock: CIFDUS_clean_linker_0, # of connection points: 2
#     Edge 139, Type (0, 0), BuildingBlock: CIFDUS_clean_linker_0, # of connection points: 2
#     Edge 140, Type (0, 0), BuildingBlock: CIFDUS_clean_linker_0, # of connection points: 2
#     Edge 141, Type (0, 0), BuildingBlock: CIFDUS_clean_linker_0, # of connection points: 2
#     Edge 142, Type (0, 0), BuildingBlock: CIFDUS_clean_linker_0, # of connection points: 2
#     Edge 143, Type (0, 0), BuildingBlock: CIFDUS_clean_linker_0, # of connection points: 2
#     Edge 144, Type (0, 0), BuildingBlock: CIFDUS_clean_linker_0, # of connection points: 2
#     Edge 145, Type (0, 0), BuildingBlock: CIFDUS_clean_linker_0, # of connection points: 2
#     Edge 146, Type (0, 0), BuildingBlock: CIFDUS_clean_linker_0, # of connection points: 2
#     Edge 147, Type (0, 0), BuildingBlock: CIFDUS_clean_linker_0, # of connection points: 2
#     Edge 148, Type (0, 0), BuildingBlock: CIFDUS_clean_linker_0, # of connection points: 2
#     Edge 149, Type (0, 0), BuildingBlock: CIFDUS_clean_linker_0, # of connection points: 2
#     Edge 150, Type (0, 0), BuildingBlock: CIFDUS_clean_linker_0, # of connection points: 2
#     Edge 151, Type (0, 0), BuildingBlock: CIFDUS_clean_linker_0, # of connection points: 2
#     Edge 152, Type (0, 0), BuildingBlock: CIFDUS_clean_linker_0, # of connection points: 2
#     Edge 153, Type (0, 0), BuildingBlock: CIFDUS_clean_linker_0, # of connection points: 2
#     Edge 154, Type (0, 0), BuildingBlock: CIFDUS_clean_linker_0, # of connection points: 2
#     Edge 155, Type (0, 0), BuildingBlock: CIFDUS_clean_linker_0, # of connection points: 2
#     Edge 156, Type (0, 0), BuildingBlock: CIFDUS_clean_linker_0, # of connection points: 2
#     Edge 157, Type (0, 0), BuildingBlock: CIFDUS_clean_linker_0, # of connection points: 2
#     Edge 158, Type (0, 0), BuildingBlock: CIFDUS_clean_linker_0, # of connection points: 2
#     Edge 159, Type (0, 0), BuildingBlock: CIFDUS_clean_linker_0, # of connection points: 2
#     Edge 160, Type (0, 0), BuildingBlock: CIFDUS_clean_linker_0, # of connection points: 2
#     Edge 161, Type (0, 0), BuildingBlock: CIFDUS_clean_linker_0, # of connection points: 2
#     Edge 162, Type (0, 0), BuildingBlock: CIFDUS_clean_linker_0, # of connection points: 2
#     Edge 163, Type (0, 0), BuildingBlock: CIFDUS_clean_linker_0, # of connection points: 2
#     Edge 164, Type (0, 0), BuildingBlock: CIFDUS_clean_linker_0, # of connection points: 2
#     Edge 165, Type (0, 0), BuildingBlock: CIFDUS_clean_linker_0, # of connection points: 2
#     Edge 166, Type (0, 0), BuildingBlock: CIFDUS_clean_linker_0, # of connection points: 2
#     Edge 167, Type (0, 0), BuildingBlock: CIFDUS_clean_linker_0, # of connection points: 2
#     Edge 168, Type (0, 0), BuildingBlock: CIFDUS_clean_linker_0, # of connection points: 2
#     Edge 169, Type (0, 0), BuildingBlock: CIFDUS_clean_linker_0, # of connection points: 2
#     Edge 170, Type (0, 0), BuildingBlock: CIFDUS_clean_linker_0, # of connection points: 2
#     Edge 171, Type (0, 0), BuildingBlock: CIFDUS_clean_linker_0, # of connection points: 2
#     Edge 172, Type (0, 0), BuildingBlock: CIFDUS_clean_linker_0, # of connection points: 2
#     Edge 173, Type (0, 0), BuildingBlock: CIFDUS_clean_linker_0, # of connection points: 2
#     Edge 174, Type (0, 0), BuildingBlock: CIFDUS_clean_linker_0, # of connection points: 2
#     Edge 175, Type (0, 0), BuildingBlock: CIFDUS_clean_linker_0, # of connection points: 2
#     Edge 176, Type (0, 0), BuildingBlock: CIFDUS_clean_linker_0, # of connection points: 2
#     Edge 177, Type (0, 0), BuildingBlock: CIFDUS_clean_linker_0, # of connection points: 2
#     Edge 178, Type (0, 0), BuildingBlock: CIFDUS_clean_linker_0, # of connection points: 2
#     Edge 179, Type (0, 0), BuildingBlock: CIFDUS_clean_linker_0, # of connection points: 2
#     Edge 180, Type (0, 0), BuildingBlock: CIFDUS_clean_linker_0, # of connection points: 2
#     Edge 181, Type (0, 0), BuildingBlock: CIFDUS_clean_linker_0, # of connection points: 2
#     Edge 182, Type (0, 0), BuildingBlock: CIFDUS_clean_linker_0, # of connection points: 2
#     Edge 183, Type (0, 0), BuildingBlock: CIFDUS_clean_linker_0, # of connection points: 2
#     Edge 184, Type (0, 0), BuildingBlock: CIFDUS_clean_linker_0, # of connection points: 2
#     Edge 185, Type (0, 0), BuildingBlock: CIFDUS_clean_linker_0, # of connection points: 2
#     Edge 186, Type (0, 0), BuildingBlock: CIFDUS_clean_linker_0, # of connection points: 2
#     Edge 187, Type (0, 0), BuildingBlock: CIFDUS_clean_linker_0, # of connection points: 2
#     Edge 188, Type (0, 0), BuildingBlock: CIFDUS_clean_linker_0, # of connection points: 2
#     Edge 189, Type (0, 0), BuildingBlock: CIFDUS_clean_linker_0, # of connection points: 2
#     Edge 190, Type (0, 0), BuildingBlock: CIFDUS_clean_linker_0, # of connection points: 2
#     Edge 191, Type (0, 0), BuildingBlock: CIFDUS_clean_linker_0, # of connection points: 2
#     Edge 192, Type (0, 0), BuildingBlock: CIFDUS_clean_linker_0, # of connection points: 2
#     Edge 193, Type (0, 0), BuildingBlock: CIFDUS_clean_linker_0, # of connection points: 2
#     Edge 194, Type (0, 0), BuildingBlock: CIFDUS_clean_linker_0, # of connection points: 2
#     Edge 195, Type (0, 0), BuildingBlock: CIFDUS_clean_linker_0, # of connection points: 2
#     Edge 196, Type (0, 0), BuildingBlock: CIFDUS_clean_linker_0, # of connection points: 2
#     Edge 197, Type (0, 0), BuildingBlock: CIFDUS_clean_linker_0, # of connection points: 2
#     Edge 198, Type (0, 0), BuildingBlock: CIFDUS_clean_linker_0, # of connection points: 2
#     Edge 199, Type (0, 0), BuildingBlock: CIFDUS_clean_linker_0, # of connection points: 2
#     Edge 200, Type (0, 0), BuildingBlock: CIFDUS_clean_linker_0, # of connection points: 2
#     Edge 201, Type (0, 0), BuildingBlock: CIFDUS_clean_linker_0, # of connection points: 2
#     Edge 202, Type (0, 0), BuildingBlock: CIFDUS_clean_linker_0, # of connection points: 2
#     Edge 203, Type (0, 0), BuildingBlock: CIFDUS_clean_linker_0, # of connection points: 2
#     Edge 204, Type (0, 0), BuildingBlock: CIFDUS_clean_linker_0, # of connection points: 2
#     Edge 205, Type (0, 0), BuildingBlock: CIFDUS_clean_linker_0, # of connection points: 2
#     Edge 206, Type (0, 0), BuildingBlock: CIFDUS_clean_linker_0, # of connection points: 2
#     Edge 207, Type (0, 0), BuildingBlock: CIFDUS_clean_linker_0, # of connection points: 2
#     Edge 208, Type (0, 0), BuildingBlock: CIFDUS_clean_linker_0, # of connection points: 2
#     Edge 209, Type (0, 0), BuildingBlock: CIFDUS_clean_linker_0, # of connection points: 2
#     Edge 210, Type (0, 0), BuildingBlock: CIFDUS_clean_linker_0, # of connection points: 2
#     Edge 211, Type (0, 0), BuildingBlock: CIFDUS_clean_linker_0, # of connection points: 2
#     Edge 212, Type (0, 0), BuildingBlock: CIFDUS_clean_linker_0, # of connection points: 2
#     Edge 213, Type (0, 0), BuildingBlock: CIFDUS_clean_linker_0, # of connection points: 2
#     Edge 214, Type (0, 0), BuildingBlock: CIFDUS_clean_linker_0, # of connection points: 2
#     Edge 215, Type (0, 0), BuildingBlock: CIFDUS_clean_linker_0, # of connection points: 2
#     Edge 216, Type (0, 0), BuildingBlock: CIFDUS_clean_linker_0, # of connection points: 2
#     Edge 217, Type (0, 0), BuildingBlock: CIFDUS_clean_linker_0, # of connection points: 2
#     Edge 218, Type (0, 0), BuildingBlock: CIFDUS_clean_linker_0, # of connection points: 2
#     Edge 219, Type (0, 0), BuildingBlock: CIFDUS_clean_linker_0, # of connection points: 2
#     Edge 220, Type (0, 0), BuildingBlock: CIFDUS_clean_linker_0, # of connection points: 2
#     Edge 221, Type (0, 0), BuildingBlock: CIFDUS_clean_linker_0, # of connection points: 2
#     Edge 222, Type (0, 0), BuildingBlock: CIFDUS_clean_linker_0, # of connection points: 2
#     Edge 223, Type (0, 0), BuildingBlock: CIFDUS_clean_linker_0, # of connection points: 2
#     Edge 224, Type (0, 0), BuildingBlock: CIFDUS_clean_linker_0, # of connection points: 2
#     Edge 225, Type (0, 0), BuildingBlock: CIFDUS_clean_linker_0, # of connection points: 2
#     Edge 226, Type (0, 0), BuildingBlock: CIFDUS_clean_linker_0, # of connection points: 2
#     Edge 227, Type (0, 0), BuildingBlock: CIFDUS_clean_linker_0, # of connection points: 2
#     Edge 228, Type (0, 0), BuildingBlock: CIFDUS_clean_linker_0, # of connection points: 2
#     Edge 229, Type (0, 0), BuildingBlock: CIFDUS_clean_linker_0, # of connection points: 2
#     Edge 230, Type (0, 0), BuildingBlock: CIFDUS_clean_linker_0, # of connection points: 2
#     Edge 231, Type (0, 0), BuildingBlock: CIFDUS_clean_linker_0, # of connection points: 2
#     Edge 232, Type (0, 0), BuildingBlock: CIFDUS_clean_linker_0, # of connection points: 2
#     Edge 233, Type (0, 0), BuildingBlock: CIFDUS_clean_linker_0, # of connection points: 2
#     Edge 234, Type (0, 0), BuildingBlock: CIFDUS_clean_linker_0, # of connection points: 2
#     Edge 235, Type (0, 0), BuildingBlock: CIFDUS_clean_linker_0, # of connection points: 2
#     Edge 236, Type (0, 0), BuildingBlock: CIFDUS_clean_linker_0, # of connection points: 2
#     Edge 237, Type (0, 0), BuildingBlock: CIFDUS_clean_linker_0, # of connection points: 2
#     Edge 238, Type (0, 0), BuildingBlock: CIFDUS_clean_linker_0, # of connection points: 2
#     Edge 239, Type (0, 0), BuildingBlock: CIFDUS_clean_linker_0, # of connection points: 2
#     Edge 240, Type (0, 0), BuildingBlock: CIFDUS_clean_linker_0, # of connection points: 2
#     Edge 241, Type (0, 0), BuildingBlock: CIFDUS_clean_linker_0, # of connection points: 2
#     Edge 242, Type (0, 0), BuildingBlock: CIFDUS_clean_linker_0, # of connection points: 2
#     Edge 243, Type (0, 0), BuildingBlock: CIFDUS_clean_linker_0, # of connection points: 2
#     Edge 244, Type (0, 0), BuildingBlock: CIFDUS_clean_linker_0, # of connection points: 2
#     Edge 245, Type (0, 0), BuildingBlock: CIFDUS_clean_linker_0, # of connection points: 2
#     Edge 246, Type (0, 0), BuildingBlock: CIFDUS_clean_linker_0, # of connection points: 2
#     Edge 247, Type (0, 0), BuildingBlock: CIFDUS_clean_linker_0, # of connection points: 2
#     Edge 248, Type (0, 0), BuildingBlock: CIFDUS_clean_linker_0, # of connection points: 2
#     Edge 249, Type (0, 0), BuildingBlock: CIFDUS_clean_linker_0, # of connection points: 2
#     Edge 250, Type (0, 0), BuildingBlock: CIFDUS_clean_linker_0, # of connection points: 2
#     Edge 251, Type (0, 0), BuildingBlock: CIFDUS_clean_linker_0, # of connection points: 2
#     Edge 252, Type (0, 0), BuildingBlock: CIFDUS_clean_linker_0, # of connection points: 2
#     Edge 253, Type (0, 0), BuildingBlock: CIFDUS_clean_linker_0, # of connection points: 2
#     Edge 254, Type (0, 0), BuildingBlock: CIFDUS_clean_linker_0, # of connection points: 2
#     Edge 255, Type (0, 0), BuildingBlock: CIFDUS_clean_linker_0, # of connection points: 2
#     Edge 256, Type (0, 0), BuildingBlock: CIFDUS_clean_linker_0, # of connection points: 2
#     Edge 257, Type (0, 0), BuildingBlock: CIFDUS_clean_linker_0, # of connection points: 2
#     Edge 258, Type (0, 0), BuildingBlock: CIFDUS_clean_linker_0, # of connection points: 2
#     Edge 259, Type (0, 0), BuildingBlock: CIFDUS_clean_linker_0, # of connection points: 2
#     Edge 260, Type (0, 0), BuildingBlock: CIFDUS_clean_linker_0, # of connection points: 2
#     Edge 261, Type (0, 0), BuildingBlock: CIFDUS_clean_linker_0, # of connection points: 2
#     Edge 262, Type (0, 0), BuildingBlock: CIFDUS_clean_linker_0, # of connection points: 2
#     Edge 263, Type (0, 0), BuildingBlock: CIFDUS_clean_linker_0, # of connection points: 2
#     Edge 264, Type (0, 0), BuildingBlock: CIFDUS_clean_linker_0, # of connection points: 2
#     Edge 265, Type (0, 0), BuildingBlock: CIFDUS_clean_linker_0, # of connection points: 2
#     Edge 266, Type (0, 0), BuildingBlock: CIFDUS_clean_linker_0, # of connection points: 2
#     Edge 267, Type (0, 0), BuildingBlock: CIFDUS_clean_linker_0, # of connection points: 2
#     Edge 268, Type (0, 0), BuildingBlock: CIFDUS_clean_linker_0, # of connection points: 2
#     Edge 269, Type (0, 0), BuildingBlock: CIFDUS_clean_linker_0, # of connection points: 2
#     Edge 270, Type (0, 0), BuildingBlock: CIFDUS_clean_linker_0, # of connection points: 2
#     Edge 271, Type (0, 0), BuildingBlock: CIFDUS_clean_linker_0, # of connection points: 2
#     Edge 272, Type (0, 0), BuildingBlock: CIFDUS_clean_linker_0, # of connection points: 2
#     Edge 273, Type (0, 0), BuildingBlock: CIFDUS_clean_linker_0, # of connection points: 2
#     Edge 274, Type (0, 0), BuildingBlock: CIFDUS_clean_linker_0, # of connection points: 2
#     Edge 275, Type (0, 0), BuildingBlock: CIFDUS_clean_linker_0, # of connection points: 2
#     Edge 276, Type (0, 0), BuildingBlock: CIFDUS_clean_linker_0, # of connection points: 2
#     Edge 277, Type (0, 0), BuildingBlock: CIFDUS_clean_linker_0, # of connection points: 2
#     Edge 278, Type (0, 0), BuildingBlock: CIFDUS_clean_linker_0, # of connection points: 2
#     Edge 279, Type (0, 0), BuildingBlock: CIFDUS_clean_linker_0, # of connection points: 2
#     Edge 280, Type (0, 0), BuildingBlock: CIFDUS_clean_linker_0, # of connection points: 2
#     Edge 281, Type (0, 0), BuildingBlock: CIFDUS_clean_linker_0, # of connection points: 2
#     Edge 282, Type (0, 0), BuildingBlock: CIFDUS_clean_linker_0, # of connection points: 2
#     Edge 283, Type (0, 0), BuildingBlock: CIFDUS_clean_linker_0, # of connection points: 2
#     Edge 284, Type (0, 0), BuildingBlock: CIFDUS_clean_linker_0, # of connection points: 2
#     Edge 285, Type (0, 0), BuildingBlock: CIFDUS_clean_linker_0, # of connection points: 2
#     Edge 286, Type (0, 0), BuildingBlock: CIFDUS_clean_linker_0, # of connection points: 2
#     Edge 287, Type (0, 0), BuildingBlock: CIFDUS_clean_linker_0, # of connection points: 2
# Relax obj value: 0.074
# Max RMSD: 0.230
# Mean RMSD: 0.230
data_MOF--net-gie--node1-NAWXER_clean_sbu_0--edge1-CIFDUS_clean_linker_0
_symmetry_space_group_name_H-M    P1
_symmetry_Int_Tables_number       1
_symmetry_cell_setting            triclinic
loop_
_symmetry_equiv_pos_as_xyz
'x, y, z'
_cell_length_a     76.795602
_cell_length_b     76.774871
_cell_length_c     76.755293
_cell_angle_alpha  89.973302
_cell_angle_beta   90.0396
_cell_angle_gamma 90.011452
loop_
_atom_site_label
_atom_site_type_symbol
_atom_site_fract_x
_atom_site_fract_y
_atom_site_fract_z
_atom_type_partial_charge
C0 C 0.99754 0.11144 0.40262 0.0
C1 C 0.03428 0.16143 0.39288 0.0
O2 O 0.99491 0.12262 0.41479 0.0
Zn3 Zn 0.00678 0.14759 0.42171 0.0
O4 O 0.00918 0.11438 0.39136 0.0
Zn5 Zn 0.0163 0.13661 0.39942 0.0
O6 O 0.03175 0.13089 0.42274 0.0
O7 O 0.01734 0.14386 0.44375 0.0
O8 O 0.03248 0.1474 0.38441 0.0
O9 O 0.02577 0.16354 0.40717 0.0
O10 O 0.98704 0.16226 0.42286 0.0
O11 O 0.993 0.15335 0.39621 0.0
C12 C 0.03019 0.13474 0.43896 0.0
C13 C 0.98339 0.16216 0.40676 0.0
C14 C 0.09844 0.73395 0.65427 0.0
C15 C 0.1316 0.78017 0.68262 0.0
O16 O 0.10805 0.74218 0.64331 0.0
Zn17 Zn 0.12717 0.76324 0.64458 0.0
O18 O 0.09921 0.73789 0.67032 0.0
Zn19 Zn 0.11604 0.75622 0.66819 0.0
O20 O 0.10157 0.77546 0.65287 0.0
O21 O 0.11705 0.77963 0.629 0.0
O22 O 0.12175 0.76867 0.68921 0.0
O23 O 0.13481 0.77966 0.66621 0.0
O24 O 0.14838 0.75279 0.63678 0.0
O25 O 0.13933 0.74161 0.66157 0.0
C26 C 0.10364 0.78301 0.63805 0.0
C27 C 0.15034 0.74186 0.64899 0.0
C28 C 0.47759 0.88056 0.9336 0.0
C29 C 0.52239 0.85036 0.90021 0.0
O30 O 0.47725 0.88498 0.91748 0.0
Zn31 Zn 0.49233 0.87927 0.8945 0.0
O32 O 0.48947 0.87038 0.93892 0.0
Zn33 Zn 0.50088 0.86641 0.9169 0.0
O34 O 0.51476 0.89028 0.91122 0.0
O35 O 0.50227 0.90115 0.8878 0.0
O36 O 0.51956 0.84973 0.91651 0.0
O37 O 0.51335 0.86069 0.89064 0.0
O38 O 0.47511 0.8699 0.87922 0.0
O39 O 0.48097 0.85296 0.90174 0.0
C40 C 0.51382 0.90223 0.89956 0.0
C41 C 0.47248 0.85587 0.8876 0.0
C42 C 0.4053 0.27351 0.15387 0.0
C43 C 0.3761 0.22393 0.18074 0.0
O44 O 0.39748 0.26419 0.14235 0.0
Zn45 Zn 0.38131 0.24072 0.14271 0.0
O46 O 0.40429 0.2692 0.1698 0.0
Zn47 Zn 0.39011 0.24889 0.16674 0.0
O48 O 0.40753 0.23095 0.1527 0.0
O49 O 0.39384 0.22556 0.12803 0.0
O50 O 0.38456 0.23633 0.18764 0.0
O51 O 0.37389 0.22385 0.16416 0.0
O52 O 0.35963 0.24791 0.13331 0.0
O53 O 0.36525 0.26018 0.15864 0.0
C54 C 0.40694 0.22327 0.13781 0.0
C55 C 0.35521 0.25823 0.14538 0.0
C56 C 0.03324 0.87421 0.07012 0.0
C57 C 0.98596 0.84585 0.10062 0.0
O58 O 0.03368 0.87865 0.08625 0.0
Zn59 Zn 0.0174 0.87292 0.10879 0.0
O60 O 0.02115 0.86432 0.0649 0.0
Zn61 Zn 0.00944 0.86067 0.08642 0.0
O62 O 0.99563 0.88491 0.09213 0.0
O63 O 0.00844 0.89497 0.11571 0.0
O64 O 0.99045 0.84509 0.08474 0.0
O65 O 0.99467 0.85545 0.11126 0.0
O66 O 0.03318 0.86298 0.12501 0.0
O67 O 0.02781 0.8458 0.10265 0.0
C68 C 0.99688 0.89659 0.10404 0.0
C69 C 0.03554 0.8486 0.11727 0.0
C70 C 0.4088 0.73637 0.35273 0.0
C71 C 0.38676 0.78484 0.31923 0.0
O72 O 0.40035 0.7467 0.36287 0.0
Zn73 Zn 0.38574 0.77119 0.35881 0.0
O74 O 0.41 0.7399 0.33665 0.0
Zn75 Zn 0.39705 0.76075 0.33712 0.0
O76 O 0.4138 0.77835 0.35251 0.0
O77 O 0.397 0.78649 0.37432 0.0
O78 O 0.39534 0.77149 0.31487 0.0
O79 O 0.38217 0.78668 0.33522 0.0
O80 O 0.36273 0.76594 0.36587 0.0
O81 O 0.37092 0.75077 0.34297 0.0
C82 C 0.41159 0.78701 0.36669 0.0
C83 C 0.35944 0.7544 0.3546 0.0
C84 C 0.47904 0.13636 0.57494 0.0
C85 C 0.52211 0.16174 0.61331 0.0
O86 O 0.47604 0.13185 0.59079 0.0
Zn87 Zn 0.48893 0.13609 0.61578 0.0
O88 O 0.49249 0.14527 0.5715 0.0
Zn89 Zn 0.50087 0.14759 0.59474 0.0
O90 O 0.51103 0.12189 0.6013 0.0
O91 O 0.49496 0.11339 0.62345 0.0
O92 O 0.52063 0.16215 0.59687 0.0
O93 O 0.51135 0.15254 0.62225 0.0
O94 O 0.47112 0.1466 0.62913 0.0
O95 O 0.4803 0.16297 0.60734 0.0
C96 C 0.5071 0.11034 0.61276 0.0
C97 C 0.4702 0.16065 0.6205 0.0
C98 C 0.10198 0.26924 0.86405 0.0
C99 C 0.13099 0.22306 0.83182 0.0
O100 O 0.1111 0.2596 0.87426 0.0
Zn101 Zn 0.12839 0.2373 0.87114 0.0
O102 O 0.1022 0.26628 0.84779 0.0
Zn103 Zn 0.11749 0.2466 0.84827 0.0
O104 O 0.10208 0.22706 0.86231 0.0
O105 O 0.1176 0.22049 0.88561 0.0
O106 O 0.12158 0.23546 0.82627 0.0
O107 O 0.13462 0.22221 0.84813 0.0
O108 O 0.15044 0.24504 0.87921 0.0
O109 O 0.14251 0.25822 0.85498 0.0
C110 C 0.10398 0.21835 0.8765 0.0
C111 C 0.15361 0.25603 0.86732 0.0
C112 C 0.43346 0.03448 0.12713 0.0
C113 C 0.40523 0.98591 0.15637 0.0
O114 O 0.41684 0.03554 0.12566 0.0
Zn115 Zn 0.39478 0.01972 0.13346 0.0
O116 O 0.44005 0.02131 0.13461 0.0
Zn117 Zn 0.41879 0.00983 0.14088 0.0
O118 O 0.40875 0.99924 0.11659 0.0
O119 O 0.38405 0.01299 0.11187 0.0
O120 O 0.42132 0.98924 0.15464 0.0
O121 O 0.39393 0.99606 0.1493 0.0
O122 O 0.38187 0.0357 0.1475 0.0
O123 O 0.40693 0.02813 0.1593 0.0
C124 C 0.3952 1.0018 0.1071 0.0
C125 C 0.39271 0.03696 0.15994 0.0
C126 C 0.2255 0.18461 0.38577 0.0
C127 C 0.27497 0.15759 0.41411 0.0
O128 O 0.22603 0.16835 0.38189 0.0
Zn129 Zn 0.24371 0.14701 0.38777 0.0
O130 O 0.23751 0.19101 0.39509 0.0
Zn131 Zn 0.25052 0.17025 0.3992 0.0
O132 O 0.26413 0.16466 0.37477 0.0
O133 O 0.25259 0.14006 0.36569 0.0
O134 O 0.26966 0.17323 0.41458 0.0
O135 O 0.26667 0.14634 0.40486 0.0
O136 O 0.22898 0.13026 0.39843 0.0
O137 O 0.2328 0.15369 0.41458 0.0
C138 C 0.26333 0.15237 0.36344 0.0
C139 C 0.22591 0.13856 0.41236 0.0
C140 C 0.06649 0.97787 0.63347 0.0
C141 C 0.09781 0.02341 0.66376 0.0
O142 O 0.08289 0.97621 0.63056 0.0
Zn143 Zn 0.10609 0.99121 0.63769 0.0
O144 O 0.06122 0.99073 0.64233 0.0
Zn145 Zn 0.08312 1.00084 0.64766 0.0
O146 O 0.09141 0.0133 0.62367 0.0
O147 O 0.11524 0.99956 0.6158 0.0
O148 O 0.08167 0.02009 0.66292 0.0
O149 O 0.10862 0.01385 0.65522 0.0
O150 O 0.11993 0.97413 0.64949 0.0
O151 O 0.09609 0.98118 0.6638 0.0
C152 C 0.10406 0.01136 0.61293 0.0
C153 C 0.11018 0.9722 0.6627 0.0
C154 C 0.24595 0.85761 0.86235 0.0
C155 C 0.28609 0.86921 0.91007 0.0
O156 O 0.24434 0.84596 0.87425 0.0
Zn157 Zn 0.25783 0.84002 0.89853 0.0
O158 O 0.25782 0.86898 0.86386 0.0
Zn159 Zn 0.26678 0.86195 0.88614 0.0
O160 O 0.28198 0.83841 0.88071 0.0
O161 O 0.26813 0.81787 0.89502 0.0
O162 O 0.28367 0.87735 0.8959 0.0
O163 O 0.27759 0.85504 0.91292 0.0
O164 O 0.23903 0.83947 0.91434 0.0
O165 O 0.24455 0.86575 0.90404 0.0
C166 C 0.2806 0.82234 0.88523 0.0
C167 C 0.23543 0.85557 0.91377 0.0
C168 C 0.43202 0.97619 0.37573 0.0
C169 C 0.39417 0.02019 0.35085 0.0
O170 O 0.41625 0.97341 0.38059 0.0
Zn171 Zn 0.3915 0.98682 0.37663 0.0
O172 O 0.43532 0.98942 0.36647 0.0
Zn173 Zn 0.41231 0.99845 0.36458 0.0
O174 O 0.40638 0.00885 0.39033 0.0
O175 O 0.38429 0.99302 0.39941 0.0
O176 O 0.41057 0.01845 0.35025 0.0
O177 O 0.38516 0.00956 0.36018 0.0
O178 O 0.37739 0.96946 0.36643 0.0
O179 O 0.39824 0.97891 0.34906 0.0
C180 C 0.39514 0.00512 0.40214 0.0
C181 C 0.38491 0.96911 0.35175 0.0
C182 C 0.252 0.14057 0.653 0.0
C183 C 0.28785 0.12904 0.60261 0.0
O184 O 0.24909 0.1521 0.64124 0.0
Zn185 Zn 0.25992 0.15777 0.61573 0.0
O186 O 0.26347 0.12903 0.65039 0.0
Zn187 Zn 0.27025 0.13588 0.62759 0.0
O188 O 0.28515 0.15954 0.63169 0.0
O189 O 0.27057 0.18017 0.61814 0.0
O190 O 0.2867 0.12086 0.61692 0.0
O191 O 0.27886 0.143 0.6003 0.0
O192 O 0.23971 0.15718 0.60133 0.0
O193 O 0.24728 0.13133 0.61136 0.0
C194 C 0.28359 0.17558 0.62719 0.0
C195 C 0.23708 0.14089 0.60214 0.0
C196 C 0.11015 0.99558 0.89727 0.0
C197 C 0.11503 0.03361 0.84685 0.0
O198 O 0.09687 0.99394 0.88723 0.0
Zn199 Zn 0.08802 0.0058 0.86324 0.0
O200 O 0.12198 0.00641 0.89334 0.0
Zn201 Zn 0.11214 0.01468 0.8719 0.0
O202 O 0.09011 0.03023 0.88024 0.0
O203 O 0.0668 0.01735 0.86957 0.0
O204 O 0.12564 0.03139 0.85934 0.0
O205 O 0.10067 0.02501 0.84662 0.0
O206 O 0.08577 0.98618 0.84812 0.0
O207 O 0.11311 0.99226 0.85448 0.0
C208 C 0.07352 0.0297 0.87826 0.0
C209 C 0.10186 0.98282 0.84644 0.0
C210 C 0.22764 0.81282 0.12567 0.0
C211 C 0.27474 0.84413 0.09786 0.0
O212 O 0.22628 0.82913 0.12916 0.0
Zn213 Zn 0.24182 0.85213 0.12308 0.0
O214 O 0.24046 0.80761 0.11673 0.0
Zn215 Zn 0.25129 0.82945 0.11246 0.0
O216 O 0.26335 0.83686 0.13703 0.0
O217 O 0.24938 0.86049 0.14523 0.0
O218 O 0.27105 0.82803 0.09785 0.0
O219 O 0.26512 0.8548 0.10648 0.0
O220 O 0.22572 0.86695 0.11159 0.0
O221 O 0.23269 0.84377 0.09615 0.0
C222 C 0.26111 0.84924 0.14805 0.0
C223 C 0.22417 0.85811 0.09774 0.0
C224 C 0.16013 0.40624 0.98059 0.0
C225 C 0.13216 0.4382 0.02685 0.0
O226 O 0.15281 0.39541 0.99109 0.0
Zn227 Zn 0.13677 0.39829 0.01477 0.0
O228 O 0.15874 0.42244 0.98337 0.0
Zn229 Zn 0.14506 0.42106 1.00369 0.0
O230 O 0.16293 0.40934 0.02293 0.0
O231 O 0.1496 0.38533 0.03132 0.0
O232 O 0.13988 0.4432 0.01318 0.0
O233 O 0.12991 0.4218 0.02939 0.0
O234 O 0.11499 0.388 0.00903 0.0
O235 O 0.12029 0.41152 0.99355 0.0
C236 C 0.16261 0.39544 0.03232 0.0
C237 C 0.1104 0.39853 0.99721 0.0
C238 C 0.66286 0.10615 0.02485 0.0
C239 C 0.63014 0.07899 0.97826 0.0
O240 O 0.65324 0.11742 0.01702 0.0
Zn241 Zn 0.63432 0.11672 0.99568 0.0
O242 O 0.66239 0.09033 0.02011 0.0
Zn243 Zn 0.6457 0.09317 1.00204 0.0
O244 O 0.6599 0.10907 0.98299 0.0
O245 O 0.64415 0.13289 0.97977 0.0
O246 O 0.64011 0.07243 0.98965 0.0
O247 O 0.62681 0.09536 0.97881 0.0
O248 O 0.61306 0.12405 0.00612 0.0
O249 O 0.62242 0.09917 0.01686 0.0
C250 C 0.65757 0.12408 0.97591 0.0
C251 C 0.61125 0.11159 0.01679 0.0
C252 C 0.14852 0.40561 0.27341 0.0
C253 C 0.17526 0.37671 0.22432 0.0
O254 O 0.13681 0.39755 0.26452 0.0
Zn255 Zn 0.13718 0.38073 0.24134 0.0
O256 O 0.16434 0.4045 0.26887 0.0
Zn257 Zn 0.16103 0.39008 0.24916 0.0
O258 O 0.14638 0.40695 0.23124 0.0
O259 O 0.12188 0.39278 0.22623 0.0
O260 O 0.18186 0.38523 0.23681 0.0
O261 O 0.15876 0.37391 0.22416 0.0
O262 O 0.12848 0.35884 0.24907 0.0
O263 O 0.15374 0.36537 0.26096 0.0
C264 C 0.13141 0.40603 0.22375 0.0
C265 C 0.14074 0.35495 0.25938 0.0
C266 C 0.84878 0.90179 0.52342 0.0
C267 C 0.87986 0.9348 0.47958 0.0
O268 O 0.85792 0.89172 0.51369 0.0
Zn269 Zn 0.87588 0.89506 0.49203 0.0
O270 O 0.84928 0.91815 0.52103 0.0
Zn271 Zn 0.86518 0.91793 0.50204 0.0
O272 O 0.84993 0.90521 0.48184 0.0
O273 O 0.86449 0.88159 0.47436 0.0
O274 O 0.87052 0.94006 0.49214 0.0
O275 O 0.883 0.91845 0.478 0.0
O276 O 0.89753 0.88617 0.50104 0.0
O277 O 0.88882 0.90975 0.51479 0.0
C278 C 0.85125 0.89136 0.47256 0.0
C279 C 0.89979 0.89728 0.51305 0.0
C280 C 0.8655 0.09817 0.21983 0.0
C281 C 0.86389 0.15127 0.25448 0.0
O282 O 0.85231 0.09813 0.23015 0.0
Zn283 Zn 0.84156 0.11613 0.24949 0.0
O284 O 0.87567 0.11119 0.2198 0.0
Zn285 Zn 0.86391 0.12461 0.23709 0.0
O286 O 0.86817 0.10905 0.26058 0.0
O287 O 0.84186 0.10267 0.27017 0.0
O288 O 0.87417 0.14673 0.2424 0.0
O289 O 0.85118 0.14119 0.25856 0.0
O290 O 0.81887 0.12089 0.24064 0.0
O291 O 0.83976 0.13119 0.22391 0.0
C292 C 0.85825 0.10161 0.27184 0.0
C293 C 0.82349 0.12874 0.22688 0.0
C294 C 0.34655 0.59971 0.4842 0.0
C295 C 0.37622 0.56747 0.52979 0.0
O296 O 0.35628 0.61008 0.4931 0.0
Zn297 Zn 0.37422 0.60683 0.5154 0.0
O298 O 0.34608 0.58369 0.48818 0.0
Zn299 Zn 0.36212 0.58455 0.50694 0.0
O300 O 0.3478 0.59941 0.52678 0.0
O301 O 0.36449 0.62214 0.53217 0.0
O302 O 0.36628 0.56257 0.51758 0.0
O303 O 0.38039 0.58365 0.53081 0.0
O304 O 0.39623 0.61423 0.5065 0.0
O305 O 0.38629 0.5908 0.49333 0.0
C306 C 0.35058 0.61372 0.53504 0.0
C307 C 0.39795 0.60271 0.49482 0.0
C308 C 0.15069 0.64627 0.24966 0.0
C309 C 0.14466 0.59615 0.28838 0.0
O310 O 0.16254 0.63484 0.24684 0.0
Zn311 Zn 0.17031 0.61026 0.25811 0.0
O312 O 0.14017 0.64399 0.26219 0.0
Zn313 Zn 0.1486 0.62153 0.26983 0.0
O314 O 0.17317 0.62701 0.28282 0.0
O315 O 0.19322 0.61399 0.26701 0.0
O316 O 0.1355 0.60991 0.28776 0.0
O317 O 0.15791 0.59465 0.27828 0.0
O318 O 0.16884 0.59528 0.2384 0.0
O319 O 0.14326 0.60467 0.24755 0.0
C320 C 0.18922 0.62307 0.28019 0.0
C321 C 0.15239 0.59558 0.23686 0.0
C322 C 0.36552 0.40553 0.7367 0.0
C323 C 0.33206 0.37639 0.78201 0.0
O324 O 0.3752 0.39557 0.74604 0.0
Zn325 Zn 0.37127 0.37754 0.76763 0.0
O326 O 0.34922 0.40596 0.73947 0.0
Zn327 Zn 0.34896 0.3899 0.75858 0.0
O328 O 0.36403 0.40409 0.77819 0.0
O329 O 0.38639 0.38721 0.78464 0.0
O330 O 0.32687 0.38631 0.76986 0.0
O331 O 0.34818 0.37204 0.78266 0.0
O332 O 0.37821 0.35547 0.75881 0.0
O333 O 0.35478 0.36546 0.74561 0.0
C334 C 0.37812 0.40135 0.78681 0.0
C335 C 0.36652 0.35368 0.74731 0.0
C336 C 0.97106 0.84607 0.62295 0.0
C337 C 0.01091 0.89338 0.60988 0.0
O338 O 0.97305 0.86067 0.6304 0.0
Zn339 Zn 0.99048 0.86965 0.61515 0.0
O340 O 0.98013 0.8425 0.60933 0.0
Zn341 Zn 1.00033 0.85597 0.59426 0.0
O342 O 0.01939 0.84039 0.59575 0.0
O343 O 0.01265 0.8525 0.62093 0.0
O344 O 0.01313 0.88085 0.59904 0.0
O345 O 0.99881 0.89233 0.62104 0.0
O346 O 0.97642 0.87363 0.59079 0.0
O347 O 0.99062 0.85791 0.57152 0.0
C348 C 0.02229 0.84218 0.61191 0.0
C349 C 0.97817 0.86811 0.57508 0.0
C350 C 0.88117 0.22877 0.32171 0.0
C351 C 0.91332 0.27507 0.35108 0.0
O352 O 0.89042 0.24082 0.3152 0.0
Zn353 Zn 0.89654 0.25242 0.3366 0.0
O354 O 0.87865 0.22846 0.33825 0.0
Zn355 Zn 0.8867 0.24383 0.36049 0.0
O356 O 0.86514 0.2531 0.36953 0.0
O357 O 0.87289 0.26537 0.34479 0.0
O358 O 0.90457 0.26586 0.36197 0.0
O359 O 0.91235 0.27164 0.33492 0.0
O360 O 0.91227 0.23297 0.34988 0.0
O361 O 0.89867 0.22679 0.37441 0.0
C362 C 0.8623 0.26428 0.35768 0.0
C363 C 0.91148 0.22438 0.36422 0.0
C364 C 0.48847 0.16252 0.11565 0.0
C365 C 0.53204 0.13557 0.07924 0.0
O366 O 0.49063 0.16267 0.09929 0.0
Zn367 Zn 0.51021 0.14789 0.0983 0.0
O368 O 0.49884 0.15347 0.12521 0.0
Zn369 Zn 0.52147 0.13674 0.11988 0.0
O370 O 0.53916 0.14766 0.13337 0.0
O371 O 0.53062 0.16345 0.11093 0.0
O372 O 0.53483 0.13147 0.09524 0.0
O373 O 0.51882 0.14467 0.07544 0.0
O374 O 0.49939 0.12264 0.10531 0.0
O375 O 0.51476 0.1142 0.12799 0.0
C376 C 0.54041 0.16147 0.12439 0.0
C377 C 0.50273 0.11124 0.11709 0.0
C378 C 0.62163 0.78084 0.82364 0.0
C379 C 0.59745 0.73662 0.86109 0.0
O380 O 0.6121 0.76782 0.82027 0.0
Zn381 Zn 0.61071 0.7584 0.84312 0.0
O382 O 0.62728 0.783 0.83925 0.0
Zn383 Zn 0.62437 0.76891 0.86369 0.0
O384 O 0.64729 0.76103 0.86937 0.0
O385 O 0.63564 0.74589 0.84802 0.0
O386 O 0.60764 0.74656 0.86993 0.0
O387 O 0.59551 0.73921 0.84489 0.0
O388 O 0.59689 0.77835 0.85826 0.0
O389 O 0.61521 0.78614 0.879 0.0
C390 C 0.64826 0.74851 0.85867 0.0
C391 C 0.60042 0.78759 0.87179 0.0
C392 C 0.97153 0.15958 0.89001 0.0
C393 C 0.00601 0.10684 0.89447 0.0
O394 O 0.97154 0.14609 0.88047 0.0
Zn395 Zn 0.98855 0.13335 0.89326 0.0
O396 O 0.98155 0.1602 0.90343 0.0
Zn397 Zn 1.00077 0.14272 0.9153 0.0
O398 O 0.02131 0.1563 0.91476 0.0
O399 O 0.01194 0.14907 0.88858 0.0
O400 O 0.01005 0.11741 0.90678 0.0
O401 O 0.99397 0.11094 0.88395 0.0
O402 O 0.97508 0.12778 0.91763 0.0
O403 O 0.99184 0.13894 0.93806 0.0
C404 C 0.02303 0.15696 0.89835 0.0
C405 C 0.97807 0.13092 0.9338 0.0
C406 C 0.62988 0.22575 0.68579 0.0
C407 C 0.60276 0.27396 0.65535 0.0
O408 O 0.6211 0.23863 0.69112 0.0
Zn409 Zn 0.61708 0.24973 0.66942 0.0
O410 O 0.63323 0.22446 0.66944 0.0
Zn411 Zn 0.62706 0.24047 0.64661 0.0
O412 O 0.64921 0.24695 0.63789 0.0
O413 O 0.64242 0.26066 0.66211 0.0
O414 O 0.61092 0.26429 0.64434 0.0
O415 O 0.60313 0.26998 0.67136 0.0
O416 O 0.60012 0.23138 0.65511 0.0
O417 O 0.61546 0.22484 0.63176 0.0
C418 C 0.6531 0.25795 0.64951 0.0
C419 C 0.60166 0.22312 0.6406 0.0
C420 C 0.54013 0.85424 0.39 0.0
C421 C 0.49732 0.89932 0.40151 0.0
O422 O 0.53799 0.86882 0.38246 0.0
Zn423 Zn 0.51974 0.87706 0.39713 0.0
O424 O 0.53078 0.85039 0.40334 0.0
Zn425 Zn 0.50978 0.86291 0.41786 0.0
O426 O 0.49177 0.84603 0.41551 0.0
O427 O 0.49909 0.85846 0.39064 0.0
O428 O 0.49565 0.88669 0.41234 0.0
O429 O 0.50998 0.8992 0.39092 0.0
O430 O 0.53327 0.88138 0.42157 0.0
O431 O 0.51906 0.86566 0.44083 0.0
C432 C 0.48974 0.84748 0.39915 0.0
C433 C 0.53144 0.87598 0.4373 0.0
C434 C 0.8793 0.78573 0.18603 0.0
C435 C 0.90756 0.73866 0.15432 0.0
O436 O 0.88738 0.77253 0.19184 0.0
Zn437 Zn 0.89257 0.76168 0.16988 0.0
O438 O 0.87693 0.78724 0.16956 0.0
Zn439 Zn 0.88364 0.77242 0.14664 0.0
O440 O 0.8617 0.76587 0.13696 0.0
O441 O 0.86797 0.75114 0.16079 0.0
O442 O 0.89967 0.74917 0.14396 0.0
O443 O 0.90671 0.74115 0.17066 0.0
O444 O 0.91005 0.78039 0.15746 0.0
O445 O 0.89668 0.78882 0.13343 0.0
C446 C 0.85773 0.75417 0.14791 0.0
C447 C 0.90979 0.78961 0.14348 0.0
C448 C 0.61536 0.00969 0.90279 0.0
C449 C 0.62433 0.97228 0.85316 0.0
O450 O 0.6259 0.99728 0.90025 0.0
Zn451 Zn 0.61857 0.99076 0.8776 0.0
O452 O 0.60416 0.01348 0.89095 0.0
Zn453 Zn 0.59789 1.00275 0.86549 0.0
O454 O 0.57467 0.99423 0.86762 0.0
O455 O 0.59362 0.97786 0.88155 0.0
O456 O 0.61122 0.98236 0.85043 0.0
O457 O 0.63224 0.97289 0.86766 0.0
O458 O 0.62539 0.01279 0.86061 0.0
O459 O 0.60023 0.02237 0.85064 0.0
C460 C 0.57787 0.98088 0.87677 0.0
C461 C 0.61669 0.02349 0.85109 0.0
C462 C 0.73799 0.86603 0.60394 0.0
C463 C 0.78437 0.83273 0.63104 0.0
O464 O 0.74073 0.84974 0.60387 0.0
Zn465 Zn 0.76081 0.84987 0.6185 0.0
O466 O 0.748 0.87603 0.61291 0.0
Zn467 Zn 0.77074 0.87228 0.62966 0.0
O468 O 0.78724 0.88696 0.61881 0.0
O469 O 0.77982 0.86427 0.60277 0.0
O470 O 0.78569 0.84893 0.635 0.0
O471 O 0.77163 0.82769 0.62182 0.0
O472 O 0.74981 0.85631 0.64378 0.0
O473 O 0.76369 0.88003 0.652 0.0
C474 C 0.78866 0.87837 0.60478 0.0
C475 C 0.75247 0.86835 0.65507 0.0
C476 C 0.88816 0.00744 0.40631 0.0
C477 C 0.87996 0.04453 0.35602 0.0
O478 O 0.87624 0.01834 0.40292 0.0
Zn479 Zn 0.8849 0.02614 0.38104 0.0
O480 O 0.90078 0.00546 0.39554 0.0
Zn481 Zn 0.90817 0.01702 0.37082 0.0
O482 O 0.92984 0.02831 0.3758 0.0
O483 O 0.90754 0.0414 0.38812 0.0
O484 O 0.89429 0.03597 0.35468 0.0
O485 O 0.87062 0.04263 0.3695 0.0
O486 O 0.88263 1.00344 0.36407 0.0
O487 O 0.90944 0.99709 0.35599 0.0
C488 C 0.92396 0.04058 0.38514 0.0
C489 C 0.89326 0.99379 0.35548 0.0
C490 C 0.77796 0.16127 0.09328 0.0
C491 C 0.73166 0.19042 0.12492 0.0
O492 O 0.77447 0.17741 0.0941 0.0
Zn493 Zn 0.75522 0.17558 0.10976 0.0
O494 O 0.76875 0.15037 0.10202 0.0
Zn495 Zn 0.74664 0.15173 0.11962 0.0
O496 O 0.72993 0.13759 0.10778 0.0
O497 O 0.73577 0.16221 0.09411 0.0
O498 O 0.73118 0.1739 0.12744 0.0
O499 O 0.74382 0.19686 0.11578 0.0
O500 O 0.76786 0.16755 0.13354 0.0
O501 O 0.75549 0.14279 0.14117 0.0
C502 C 0.72736 0.14777 0.09499 0.0
C503 C 0.76655 0.15469 0.14414 0.0
C504 C 0.61513 0.03278 0.65898 0.0
C505 C 0.60828 0.99503 0.60844 0.0
O506 O 0.62549 0.03004 0.64638 0.0
Zn507 Zn 0.61087 0.01459 0.63344 0.0
O508 O 0.60017 0.02525 0.65905 0.0
Zn509 Zn 0.58632 0.00711 0.642 0.0
O510 O 0.58239 0.98766 0.657 0.0
O511 O 0.61009 0.99187 0.65057 0.0
O512 O 0.59487 0.99424 0.61838 0.0
O513 O 0.62042 0.00561 0.61212 0.0
O514 O 0.58998 0.03166 0.6251 0.0
O515 O 0.566 0.01976 0.63529 0.0
C516 C 0.59821 0.98312 0.65849 0.0
C517 C 0.57336 0.03191 0.62688 0.0
C518 C 0.72747 0.86342 0.41003 0.0
C519 C 0.76721 0.85121 0.36269 0.0
O520 O 0.73012 0.87132 0.39578 0.0
Zn521 Zn 0.74627 0.8554 0.38609 0.0
O522 O 0.73535 0.84891 0.41295 0.0
Zn523 Zn 0.75443 0.83318 0.39837 0.0
O524 O 0.77319 0.83175 0.41429 0.0
O525 O 0.76875 0.85822 0.40393 0.0
O526 O 0.76852 0.83929 0.37438 0.0
O527 O 0.75537 0.86259 0.36413 0.0
O528 O 0.73033 0.83261 0.38016 0.0
O529 O 0.74329 0.81143 0.39435 0.0
C530 C 0.7775 0.84768 0.41363 0.0
C531 C 0.73111 0.81645 0.38445 0.0
C532 C 0.90337 0.02295 0.15877 0.0
C533 C 0.93593 0.97568 0.13296 0.0
O534 O 0.91953 0.01971 0.15843 0.0
Zn535 Zn 0.91839 0.99902 0.14522 0.0
O536 O 0.89272 0.01253 0.15106 0.0
Zn537 Zn 0.89603 0.98834 0.13568 0.0
O538 O 0.88209 0.9723 0.14798 0.0
O539 O 0.90512 0.9806 0.16295 0.0
O540 O 0.91966 0.97345 0.12967 0.0
O541 O 0.94059 0.98899 0.14146 0.0
O542 O 0.91039 0.00891 0.11958 0.0
O543 O 0.88681 0.99385 0.11341 0.0
C544 C 0.89105 0.97155 0.16182 0.0
C545 C 0.89782 0.00532 0.1091 0.0
C546 C 0.78628 0.14274 0.91123 0.0
C547 C 0.7478 0.15026 0.86135 0.0
O548 O 0.78529 0.13374 0.89739 0.0
Zn549 Zn 0.76777 0.14754 0.88615 0.0
O550 O 0.77661 0.1563 0.91295 0.0
Zn551 Zn 0.75661 0.16939 0.8975 0.0
O552 O 0.73705 0.16829 0.91271 0.0
O553 O 0.74554 0.14254 0.9032 0.0
O554 O 0.74501 0.16209 0.87282 0.0
O555 O 0.76013 0.13954 0.86372 0.0
O556 O 0.78151 0.17177 0.88097 0.0
O557 O 0.76611 0.19214 0.89397 0.0
C558 C 0.73519 0.15187 0.91248 0.0
C559 C 0.77927 0.18785 0.88499 0.0
C560 C 0.88222 0.5734 0.97684 0.0
C561 C 0.85103 0.60054 0.02467 0.0
O562 O 0.87406 0.56655 0.98946 0.0
Zn563 Zn 0.86754 0.58752 1.00129 0.0
O564 O 0.88391 0.59002 0.97629 0.0
Zn565 Zn 0.87571 0.61166 0.99239 0.0
O566 O 0.89694 0.62192 1.00034 0.0
O567 O 0.89128 0.59703 0.01342 0.0
O568 O 0.85872 0.61205 0.01525 0.0
O569 O 0.85284 0.58451 0.02104 0.0
O570 O 0.84999 0.60042 0.98287 0.0
O571 O 0.86268 0.6254 0.97645 0.0
C572 C 0.90099 0.61052 0.01158 0.0
C573 C 0.84997 0.615 0.97461 0.0
C574 C 0.37949 0.92971 0.03365 0.0
C575 C 0.3498 0.89596 0.98842 0.0
O576 O 0.37063 0.93514 0.02077 0.0
Zn577 Zn 0.3656 0.91271 0.01042 0.0
O578 O 0.38219 0.9133 0.03534 0.0
Zn579 Zn 0.37506 0.88982 0.02153 0.0
O580 O 0.39686 0.8801 0.01459 0.0
O581 O 0.39046 0.90394 0.99998 0.0
O582 O 0.35819 0.88616 0.99908 0.0
O583 O 0.35079 0.9124 0.99009 0.0
O584 O 0.34882 0.90064 0.03002 0.0
O585 O 0.36275 0.87711 0.0389 0.0
C586 C 0.40084 0.89115 1.00298 0.0
C587 C 0.34952 0.88699 0.03971 0.0
C588 C 0.85593 0.60072 0.73803 0.0
C589 C 0.82277 0.62564 0.78576 0.0
O590 O 0.8398 0.60017 0.74148 0.0
Zn591 Zn 0.84032 0.61429 0.76176 0.0
O592 O 0.86614 0.60956 0.74798 0.0
Zn593 Zn 0.86229 0.62563 0.77163 0.0
O594 O 0.87758 0.61488 0.78758 0.0
O595 O 0.85538 0.59818 0.78031 0.0
O596 O 0.83885 0.63005 0.78728 0.0
O597 O 0.81813 0.61681 0.77264 0.0
O598 O 0.84639 0.63996 0.75073 0.0
O599 O 0.86967 0.64834 0.76518 0.0
C600 C 0.86958 0.60052 0.78894 0.0
C601 C 0.85825 0.65141 0.7537 0.0
C602 C 0.13368 0.06986 0.5318 0.0
C603 C 0.163 0.10703 0.48937 0.0
O604 O 0.14379 0.0659 0.51936 0.0
Zn605 Zn 0.14722 0.08881 0.50981 0.0
O606 O 0.12889 0.08579 0.53355 0.0
Zn607 Zn 0.13409 0.11005 0.51996 0.0
O608 O 0.11209 0.11713 0.5108 0.0
O609 O 0.12319 0.09517 0.49616 0.0
O610 O 0.15252 0.11587 0.49897 0.0
O611 O 0.16391 0.09064 0.49136 0.0
O612 O 0.16055 0.10279 0.53084 0.0
O613 O 0.14304 0.12439 0.53811 0.0
C614 C 0.11108 0.10652 0.49821 0.0
C615 C 0.15727 0.11626 0.54024 0.0
C616 C 0.18757 0.8815 0.77928 0.0
C617 C 0.1545 0.90859 0.73258 0.0
O618 O 0.19246 0.88921 0.76554 0.0
Zn619 Zn 0.17013 0.89366 0.75557 0.0
O620 O 0.17122 0.87879 0.78166 0.0
Zn621 Zn 0.14756 0.88486 0.76685 0.0
O622 O 0.13788 0.86271 0.76103 0.0
O623 O 0.16132 0.8685 0.74567 0.0
O624 O 0.14409 0.90095 0.74328 0.0
O625 O 0.17078 0.90741 0.73498 0.0
O626 O 0.15788 0.9114 0.77455 0.0
O627 O 0.13429 0.89759 0.78336 0.0
C628 C 0.14858 0.85828 0.74931 0.0
C629 C 0.14404 0.91091 0.784 0.0
C630 C 0.63297 0.43727 0.4743 0.0
C631 C 0.65463 0.40402 0.52267 0.0
O632 O 0.64129 0.44143 0.48787 0.0
Zn633 Zn 0.64314 0.41921 0.49808 0.0
O634 O 0.62847 0.42129 0.47209 0.0
Zn635 Zn 0.63201 0.39755 0.48757 0.0
O636 O 0.60894 0.39032 0.49268 0.0
O637 O 0.61708 0.41311 0.50802 0.0
O638 O 0.64636 0.39366 0.51238 0.0
O639 O 0.65597 0.42 0.51884 0.0
O640 O 0.66004 0.40421 0.48028 0.0
O641 O 0.64352 0.38217 0.47225 0.0
C642 C 0.60564 0.40145 0.50436 0.0
C643 C 0.65798 0.39004 0.47155 0.0
C644 C 0.86198 0.35957 0.75587 0.0
C645 C 0.86718 0.41359 0.72363 0.0
O646 O 0.87343 0.36464 0.74514 0.0
Zn647 Zn 0.86353 0.38668 0.7395 0.0
O648 O 0.84873 0.36932 0.7589 0.0
Zn649 Zn 0.8398 0.39454 0.74942 0.0
O650 O 0.81842 0.38984 0.73764 0.0
O651 O 0.8413 0.38027 0.72327 0.0
O652 O 0.85275 0.4133 0.73212 0.0
O653 O 0.87731 0.40057 0.72442 0.0
O654 O 0.86473 0.40156 0.76375 0.0
O655 O 0.83739 0.4073 0.77047 0.0
C656 C 0.82476 0.38246 0.72432 0.0
C657 C 0.85347 0.40851 0.77401 0.0
C658 C 0.63271 0.60428 0.21596 0.0
C659 C 0.64468 0.65155 0.25643 0.0
O660 O 0.62448 0.61842 0.21833 0.0
Zn661 Zn 0.63976 0.6283 0.23532 0.0
O662 O 0.64691 0.60154 0.22441 0.0
Zn663 Zn 0.66216 0.61561 0.24384 0.0
O664 O 0.66236 0.59958 0.26288 0.0
O665 O 0.63634 0.61041 0.2571 0.0
O666 O 0.65643 0.63969 0.25741 0.0
O667 O 0.63286 0.65028 0.24495 0.0
O668 O 0.6628 0.63434 0.22037 0.0
O669 O 0.68408 0.61956 0.23264 0.0
C670 C 0.6462 0.60045 0.26625 0.0
C671 C 0.67892 0.62995 0.22089 0.0
C672 C 0.4986 0.60844 0.89904 0.0
C673 C 0.5386 0.65561 0.88782 0.0
O674 O 0.49718 0.6201 0.91094 0.0
Zn675 Zn 0.51028 0.64445 0.91688 0.0
O676 O 0.50985 0.61032 0.88713 0.0
Zn677 Zn 0.51894 0.63213 0.8943 0.0
O678 O 0.53385 0.62596 0.91724 0.0
O679 O 0.52179 0.64032 0.9389 0.0
O680 O 0.53605 0.64167 0.87933 0.0
O681 O 0.53009 0.65838 0.90196 0.0
O682 O 0.49117 0.66073 0.91664 0.0
O683 O 0.49757 0.65033 0.89063 0.0
C684 C 0.53354 0.63007 0.93342 0.0
C685 C 0.48832 0.66032 0.90033 0.0
C686 C 0.60373 0.24228 0.14176 0.0
C687 C 0.6313 0.28964 0.17332 0.0
O688 O 0.612 0.25232 0.13122 0.0
Zn689 Zn 0.62832 0.2756 0.13399 0.0
O690 O 0.60434 0.2453 0.15799 0.0
Zn691 Zn 0.61837 0.26572 0.15689 0.0
O692 O 0.60141 0.28401 0.14284 0.0
O693 O 0.61648 0.29166 0.11961 0.0
O694 O 0.62244 0.27684 0.17879 0.0
O695 O 0.6345 0.29093 0.15695 0.0
O696 O 0.65045 0.26899 0.1253 0.0
O697 O 0.6437 0.25527 0.14957 0.0
C698 C 0.60266 0.2927 0.12856 0.0
C699 C 0.65438 0.25807 0.13701 0.0
C700 C 0.97432 0.37961 0.44072 0.0
C701 C 0.02213 0.35274 0.41006 0.0
O702 O 0.97226 0.38217 0.4243 0.0
Zn703 Zn 0.9875 0.37531 0.40114 0.0
O704 O 0.98762 0.37141 0.44592 0.0
Zn705 Zn 0.99796 0.36665 0.42409 0.0
O706 O 0.00817 0.39163 0.41511 0.0
O707 O 0.99333 0.39733 0.39124 0.0
O708 O 0.01857 0.35351 0.42614 0.0
O709 O 0.01187 0.36002 0.39895 0.0
O710 O 0.97174 0.36208 0.38739 0.0
O711 O 0.97997 0.34841 0.41126 0.0
C712 C 0.00488 0.40172 0.40217 0.0
C713 C 0.97109 0.3487 0.39703 0.0
C714 C 0.90566 0.76937 0.64966 0.0
C715 C 0.87358 0.72483 0.68205 0.0
O716 O 0.89705 0.75912 0.63963 0.0
Zn717 Zn 0.87935 0.73728 0.64258 0.0
O718 O 0.9044 0.76764 0.66608 0.0
Zn719 Zn 0.88882 0.7479 0.66584 0.0
O720 O 0.90521 0.72812 0.65381 0.0
O721 O 0.89152 0.71979 0.62992 0.0
O722 O 0.88254 0.73744 0.68789 0.0
O723 O 0.87138 0.72337 0.66555 0.0
O724 O 0.85801 0.74534 0.63255 0.0
O725 O 0.86502 0.75966 0.65641 0.0
C726 C 0.90457 0.71865 0.64003 0.0
C727 C 0.8547 0.75727 0.64346 0.0
C728 C 0.53364 0.38001 0.57533 0.0
C729 C 0.48883 0.34634 0.60505 0.0
O730 O 0.53456 0.38187 0.59192 0.0
Zn731 Zn 0.52031 0.37265 0.61434 0.0
O732 O 0.52173 0.3705 0.56891 0.0
Zn733 Zn 0.51109 0.36329 0.59036 0.0
O734 O 0.4983 0.38653 0.59958 0.0
O735 O 0.5109 0.39381 0.62431 0.0
O736 O 0.49176 0.34754 0.58881 0.0
O737 O 0.49844 0.3548 0.61583 0.0
O738 O 0.53795 0.36024 0.62724 0.0
O739 O 0.53103 0.34735 0.60253 0.0
C740 C 0.49948 0.39678 0.61271 0.0
C741 C 0.54008 0.34774 0.6166 0.0
C742 C 0.91157 0.23402 0.84881 0.0
C743 C 0.87943 0.28161 0.8221 0.0
O744 O 0.90355 0.24311 0.86034 0.0
Zn745 Zn 0.88624 0.2656 0.86027 0.0
O746 O 0.91004 0.23794 0.83282 0.0
Zn747 Zn 0.89487 0.25743 0.83582 0.0
O748 O 0.91159 0.27611 0.84898 0.0
O749 O 0.89919 0.2818 0.87427 0.0
O750 O 0.88817 0.26951 0.81505 0.0
O751 O 0.8776 0.28173 0.83873 0.0
O752 O 0.86493 0.25663 0.86999 0.0
O753 O 0.87132 0.24484 0.84463 0.0
C754 C 0.91163 0.2842 0.86363 0.0
C755 C 0.86133 0.24585 0.85798 0.0
C756 C 0.96999 0.62668 0.0876 0.0
C757 C 0.01554 0.65541 0.12082 0.0
O758 O 0.96861 0.62305 0.10387 0.0
Zn759 Zn 0.98307 0.6294 0.1273 0.0
O760 O 0.98245 0.63623 0.08251 0.0
Zn761 Zn 0.99301 0.64038 0.10473 0.0
O762 O 0.00466 0.61558 0.1119 0.0
O763 O 0.99084 0.60734 0.13563 0.0
O764 O 0.01285 0.65534 0.1045 0.0
O765 O 0.00557 0.64646 0.13086 0.0
O766 O 0.9661 0.64056 0.14149 0.0
O767 O 0.97371 0.65615 0.11858 0.0
C768 C 1.00234 0.60445 0.12417 0.0
C769 C 0.96468 0.65441 0.13259 0.0
C770 C 0.59702 0.77295 0.35973 0.0
C771 C 0.6215 0.72976 0.32087 0.0
O772 O 0.60705 0.76255 0.36822 0.0
Zn773 Zn 0.62364 0.74029 0.36134 0.0
O774 O 0.59508 0.77097 0.34344 0.0
Zn775 Zn 0.61006 0.75149 0.34106 0.0
O776 O 0.59598 0.73114 0.35549 0.0
O777 O 0.61432 0.72247 0.37584 0.0
O778 O 0.61168 0.74268 0.31791 0.0
O779 O 0.62705 0.72716 0.33645 0.0
O780 O 0.64651 0.74791 0.36757 0.0
O781 O 0.6352 0.76355 0.34638 0.0
C782 C 0.59949 0.72135 0.36865 0.0
C783 C 0.64771 0.76062 0.35709 0.0
C784 C 0.91127 0.48864 0.66643 0.0
C785 C 0.94221 0.5335 0.63455 0.0
O786 O 0.90042 0.49829 0.65805 0.0
Zn787 Zn 0.90267 0.52076 0.64039 0.0
O788 O 0.92745 0.49175 0.66527 0.0
Zn789 Zn 0.92584 0.51096 0.64985 0.0
O790 O 0.91355 0.53077 0.66625 0.0
O791 O 0.88947 0.53813 0.65249 0.0
O792 O 0.94769 0.52093 0.64372 0.0
O793 O 0.92574 0.53517 0.63206 0.0
O794 O 0.89261 0.51229 0.61906 0.0
O795 O 0.91656 0.49831 0.62621 0.0
C796 C 0.89954 0.53992 0.66549 0.0
C797 C 0.90351 0.5003 0.61592 0.0
C798 C 0.76366 0.65357 0.86713 0.0
C799 C 0.72369 0.64735 0.91628 0.0
O800 O 0.76541 0.66617 0.87798 0.0
Zn801 Zn 0.75255 0.6744 0.90175 0.0
O802 O 0.75172 0.64243 0.86964 0.0
Zn803 Zn 0.74296 0.65152 0.89138 0.0
O804 O 0.72842 0.6749 0.88386 0.0
O805 O 0.7427 0.69637 0.89631 0.0
O806 O 0.72565 0.63763 0.90305 0.0
O807 O 0.73269 0.66142 0.91747 0.0
O808 O 0.7716 0.67566 0.9173 0.0
O809 O 0.76548 0.64884 0.90898 0.0
C810 C 0.73015 0.69128 0.88692 0.0
C811 C 0.77497 0.6595 0.91778 0.0
C812 C 0.60446 0.52201 0.15868 0.0
C813 C 0.56744 0.4777 0.13268 0.0
O814 O 0.61367 0.51062 0.15056 0.0
Zn815 Zn 0.6082 0.48738 0.13485 0.0
O816 O 0.58798 0.52077 0.15845 0.0
Zn817 Zn 0.58663 0.50022 0.14455 0.0
O818 O 0.59816 0.48056 0.16187 0.0
O819 O 0.62069 0.46998 0.14755 0.0
O820 O 0.56352 0.49161 0.14064 0.0
O821 O 0.58353 0.47444 0.12949 0.0
O822 O 0.6175 0.49292 0.11233 0.0
O823 O 0.59559 0.50994 0.11941 0.0
C824 C 0.61127 0.47015 0.16113 0.0
C825 C 0.60769 0.50568 0.10868 0.0
C826 C 0.78054 0.32386 0.38267 0.0
C827 C 0.73703 0.36074 0.41034 0.0
O828 O 0.7835 0.33999 0.37934 0.0
Zn829 Zn 0.77042 0.36447 0.38488 0.0
O830 O 0.76685 0.31976 0.39092 0.0
Zn831 Zn 0.75796 0.34279 0.39501 0.0
O832 O 0.74729 0.35159 0.37025 0.0
O833 O 0.76387 0.37362 0.36255 0.0
O834 O 0.73807 0.34424 0.40986 0.0
O835 O 0.748 0.3699 0.40162 0.0
O836 O 0.78812 0.37709 0.39704 0.0
O837 O 0.77795 0.35453 0.41167 0.0
C838 C 0.75108 0.3637 0.35934 0.0
C839 C 0.78822 0.36772 0.41067 0.0
C840 C 0.89342 0.46911 0.84831 0.0
C841 C 0.8975 0.50515 0.90007 0.0
O842 O 0.90633 0.47972 0.84725 0.0
Zn843 Zn 0.91771 0.49982 0.86388 0.0
O844 O 0.88402 0.46906 0.86191 0.0
Zn845 Zn 0.89625 0.48694 0.87401 0.0
O846 O 0.89025 0.50956 0.85778 0.0
O847 O 0.91571 0.52002 0.84961 0.0
O848 O 0.88733 0.49265 0.89653 0.0
O849 O 0.90941 0.50935 0.88912 0.0
O850 O 0.9409 0.49144 0.86749 0.0
O851 O 0.92106 0.47438 0.8792 0.0
C852 C 0.89921 0.52087 0.84927 0.0
C853 C 0.93708 0.47765 0.87574 0.0
C854 C 0.78493 0.68252 0.12966 0.0
C855 C 0.73755 0.65472 0.09861 0.0
O856 O 0.78591 0.6659 0.13136 0.0
Zn857 Zn 0.77029 0.64383 0.12278 0.0
O858 O 0.7723 0.68903 0.12127 0.0
Zn859 Zn 0.76113 0.66783 0.1148 0.0
O860 O 0.74965 0.6582 0.13884 0.0
O861 O 0.76283 0.63325 0.14398 0.0
O862 O 0.74126 0.67071 0.1004 0.0
O863 O 0.74712 0.64317 0.10608 0.0
O864 O 0.7865 0.63046 0.10972 0.0
O865 O 0.7799 0.65549 0.09727 0.0
C866 C 0.75177 0.64465 0.14842 0.0
C867 C 0.7884 0.64106 0.09719 0.0
C868 C 0.57616 0.53645 0.37436 0.0
C869 C 0.60863 0.49164 0.34326 0.0
O870 O 0.59237 0.53667 0.37841 0.0
Zn871 Zn 0.61518 0.52175 0.37185 0.0
O872 O 0.57062 0.52493 0.36389 0.0
Zn873 Zn 0.59247 0.51348 0.35929 0.0
O874 O 0.5985 0.4994 0.38294 0.0
O875 O 0.62224 0.51163 0.39343 0.0
O876 O 0.5924 0.49485 0.34263 0.0
O877 O 0.61844 0.50056 0.35345 0.0
O878 O 0.63042 0.53886 0.36218 0.0
O879 O 0.60757 0.53318 0.34565 0.0
C880 C 0.61042 0.50016 0.39464 0.0
C881 C 0.62185 0.54151 0.34828 0.0
C882 C 0.75396 0.37079 0.64912 0.0
C883 C 0.71506 0.36937 0.59909 0.0
O884 O 0.75714 0.35774 0.63919 0.0
Zn885 Zn 0.74657 0.34698 0.61548 0.0
O886 O 0.74163 0.38113 0.6453 0.0
Zn887 Zn 0.73434 0.36992 0.6242 0.0
O888 O 0.72262 0.34629 0.63334 0.0
O889 O 0.7378 0.32445 0.62259 0.0
O890 O 0.71557 0.38028 0.61152 0.0
O891 O 0.72579 0.35655 0.59897 0.0
O892 O 0.76638 0.34797 0.60004 0.0
O893 O 0.75597 0.3739 0.6067 0.0
C894 C 0.72513 0.32987 0.63175 0.0
C895 C 0.76701 0.36444 0.59847 0.0
C896 C 0.66562 0.896 0.48731 0.0
C897 C 0.6377 0.93458 0.52907 0.0
O898 O 0.65504 0.8875 0.49712 0.0
Zn899 Zn 0.63697 0.89408 0.51811 0.0
O900 O 0.66696 0.91237 0.48911 0.0
Zn901 Zn 0.65065 0.91495 0.50771 0.0
O902 O 0.66353 0.9012 0.52905 0.0
O903 O 0.64572 0.87995 0.53663 0.0
O904 O 0.6481 0.93806 0.51673 0.0
O905 O 0.63239 0.91884 0.53108 0.0
O906 O 0.6146 0.88757 0.50916 0.0
O907 O 0.62612 0.90951 0.49476 0.0
C908 C 0.66001 0.88799 0.53873 0.0
C909 C 0.61367 0.89855 0.49686 0.0
C910 C 0.16315 0.60802 0.51876 0.0
C911 C 0.13181 0.57652 0.47355 0.0
O912 O 0.15427 0.6183 0.50899 0.0
Zn913 Zn 0.13668 0.61581 0.48706 0.0
O914 O 0.16249 0.59169 0.51619 0.0
Zn915 Zn 0.14688 0.59235 0.4967 0.0
O916 O 0.16257 0.60537 0.47717 0.0
O917 O 0.14867 0.62947 0.46986 0.0
O918 O 0.14124 0.57057 0.48575 0.0
O919 O 0.12905 0.59298 0.47261 0.0
O920 O 0.11509 0.62479 0.49588 0.0
O921 O 0.12305 0.60054 0.50903 0.0
C922 C 0.16173 0.61946 0.46818 0.0
C923 C 0.11233 0.61324 0.50739 0.0
C924 C 0.63734 0.90943 0.72062 0.0
C925 C 0.64377 0.86155 0.76191 0.0
O926 O 0.65125 0.91071 0.72981 0.0
Zn927 Zn 0.66403 0.89605 0.75018 0.0
O928 O 0.62728 0.89646 0.72278 0.0
Zn929 Zn 0.64079 0.88518 0.74067 0.0
O930 O 0.63784 0.90345 0.76198 0.0
O931 O 0.66433 0.91223 0.76901 0.0
O932 O 0.63216 0.86362 0.7503 0.0
O933 O 0.6562 0.87262 0.76312 0.0
O934 O 0.68596 0.8903 0.74006 0.0
O935 O 0.66398 0.87753 0.7267 0.0
C936 C 0.64799 0.91274 0.7715 0.0
C937 C 0.68038 0.88053 0.72795 0.0
C938 C 0.34157 0.41286 0.02491 0.0
C939 C 0.37163 0.44411 0.97934 0.0
O940 O 0.35028 0.40215 0.01543 0.0
Zn941 Zn 0.36757 0.40465 0.99286 0.0
O942 O 0.34203 0.429 0.02148 0.0
Zn943 Zn 0.3573 0.4277 1.00221 0.0
O944 O 0.34155 0.41443 0.98253 0.0
O945 O 0.35611 0.39061 0.97587 0.0
O946 O 0.3624 0.44959 0.99186 0.0
O947 O 0.37472 0.42772 0.97802 0.0
O948 O 0.38935 0.39577 1.00107 0.0
O949 O 0.38144 0.41975 0.01462 0.0
C950 C 0.34288 0.40026 0.97371 0.0
C951 C 0.39223 0.40714 0.01268 0.0
C952 C 0.32909 0.62964 0.72643 0.0
C953 C 0.35668 0.5986 0.77397 0.0
O954 O 0.34547 0.63297 0.7267 0.0
Zn955 Zn 0.36701 0.626 0.74364 0.0
O956 O 0.32265 0.62011 0.73826 0.0
Zn957 Zn 0.34353 0.61495 0.75065 0.0
O958 O 0.34981 0.63876 0.7646 0.0
O959 O 0.3746 0.64762 0.75332 0.0
O960 O 0.34081 0.599 0.7694 0.0
O961 O 0.36791 0.60784 0.76566 0.0
O962 O 0.38295 0.61547 0.72797 0.0
O963 O 0.35917 0.59986 0.73204 0.0
C964 C 0.3623 0.64986 0.76407 0.0
C965 C 0.37412 0.60188 0.72475 0.0
C966 C 0.84666 0.09839 0.9836 0.0
C967 C 0.87905 0.07139 0.03118 0.0
O968 O 0.8555 0.10964 0.99229 0.0
Zn969 Zn 0.87338 0.10926 0.01431 0.0
O970 O 0.84749 0.0824 0.98778 0.0
Zn971 Zn 0.86337 0.08508 0.00692 0.0
O972 O 0.84777 0.09961 0.02561 0.0
O973 O 0.86176 0.12428 0.03034 0.0
O974 O 0.86967 0.06435 0.01953 0.0
O975 O 0.8815 0.08791 0.03076 0.0
O976 O 0.89469 0.11784 0.0047 0.0
O977 O 0.88689 0.09263 0.99343 0.0
C978 C 0.84879 0.11446 0.03327 0.0
C979 C 0.89744 0.10557 0.994 0.0
C980 C 0.65807 0.14312 0.74231 0.0
C981 C 0.64626 0.09646 0.78291 0.0
O982 O 0.66995 0.13143 0.74082 0.0
Zn983 Zn 0.67584 0.1072 0.75479 0.0
O984 O 0.64655 0.1414 0.75397 0.0
Zn985 Zn 0.65368 0.11952 0.76296 0.0
O986 O 0.67675 0.12544 0.77857 0.0
O987 O 0.69784 0.11111 0.76562 0.0
O988 O 0.63808 0.11041 0.77962 0.0
O989 O 0.66062 0.09329 0.77487 0.0
O990 O 0.67662 0.09089 0.73626 0.0
O991 O 0.65031 0.10137 0.74094 0.0
C992 C 0.69288 0.12106 0.77778 0.0
C993 C 0.66062 0.09143 0.73222 0.0
C994 C 0.86926 0.86048 0.25749 0.0
C995 C 0.87542 0.91051 0.29561 0.0
O996 O 0.85728 0.87171 0.25429 0.0
Zn997 Zn 0.84965 0.89667 0.26534 0.0
O998 O 0.88003 0.86342 0.26965 0.0
Zn999 Zn 0.87131 0.88562 0.2767 0.0
O1000 O 0.8467 0.87932 0.28958 0.0
O1001 O 0.82677 0.89276 0.27398 0.0
O1002 O 0.8844 0.89669 0.29464 0.0
O1003 O 0.86204 0.91233 0.28568 0.0
O1004 O 0.85069 0.91166 0.24572 0.0
O1005 O 0.87657 0.90267 0.25426 0.0
C1006 C 0.83064 0.88314 0.28682 0.0
C1007 C 0.86709 0.91172 0.24381 0.0
C1008 C 0.51727 0.34668 0.1041 0.0
C1009 C 0.47357 0.3763 0.06946 0.0
O1010 O 0.51488 0.34653 0.08774 0.0
Zn1011 Zn 0.49564 0.36207 0.08727 0.0
O1012 O 0.50724 0.35588 0.11384 0.0
Zn1013 Zn 0.48511 0.37325 0.10972 0.0
O1014 O 0.46724 0.36158 0.12312 0.0
O1015 O 0.47547 0.34687 0.09987 0.0
O1016 O 0.47158 0.37985 0.0857 0.0
O1017 O 0.48621 0.36677 0.0648 0.0
O1018 O 0.50794 0.38604 0.09509 0.0
O1019 O 0.49382 0.39541 0.1182 0.0
C1020 C 0.46586 0.34819 0.11349 0.0
C1021 C 0.506 0.39739 0.10719 0.0
C1022 C 0.38726 0.73015 0.82517 0.0
C1023 C 0.41352 0.77449 0.86146 0.0
O1024 O 0.39724 0.74273 0.82147 0.0
Zn1025 Zn 0.39956 0.75252 0.84409 0.0
O1026 O 0.38197 0.72834 0.84095 0.0
Zn1027 Zn 0.38614 0.74261 0.86515 0.0
O1028 O 0.36355 0.75114 0.87131 0.0
O1029 O 0.37491 0.76544 0.84924 0.0
O1030 O 0.40337 0.7648 0.8706 0.0
O1031 O 0.41513 0.77164 0.84526 0.0
O1032 O 0.41337 0.73252 0.85914 0.0
O1033 O 0.39547 0.72532 0.88042 0.0
C1034 C 0.36251 0.76336 0.86025 0.0
C1035 C 0.41004 0.72349 0.87287 0.0
C1036 C 0.98193 0.66522 0.59612 0.0
C1037 C 0.02897 0.63889 0.56392 0.0
O1038 O 0.98559 0.66566 0.58004 0.0
Zn1039 Zn 0.00549 0.6513 0.58104 0.0
O1040 O 0.99183 0.65669 0.60664 0.0
Zn1041 Zn 0.01549 0.6408 0.6036 0.0
O1042 O 0.03174 0.65269 0.61819 0.0
O1043 O 0.02452 0.66764 0.59475 0.0
O1044 O 0.03073 0.6353 0.58019 0.0
O1045 O 0.01577 0.64741 0.55894 0.0
O1046 O 0.99397 0.62646 0.58853 0.0
O1047 O 0.00851 0.61835 0.61187 0.0
C1048 C 0.03333 0.66629 0.60895 0.0
C1049 C 0.99662 0.6154 0.60081 0.0
C1050 C 0.12918 0.28295 0.33282 0.0
C1051 C 0.09768 0.23994 0.36711 0.0
O1052 O 0.12043 0.26991 0.32767 0.0
Zn1053 Zn 0.11433 0.26088 0.3502 0.0
O1054 O 0.13128 0.28544 0.34922 0.0
Zn1055 Zn 0.12316 0.27279 0.37298 0.0
O1056 O 0.14457 0.26573 0.38364 0.0
O1057 O 0.13847 0.2503 0.36025 0.0
O1058 O 0.10586 0.25076 0.37689 0.0
O1059 O 0.09922 0.24107 0.35067 0.0
O1060 O 0.09755 0.28125 0.36059 0.0
O1061 O 0.11053 0.291 0.3843 0.0
C1062 C 0.14852 0.25355 0.37321 0.0
C1063 C 0.0978 0.2916 0.37374 0.0
C1064 C 0.51998 0.66051 0.39777 0.0
C1065 C 0.47778 0.63089 0.43472 0.0
O1066 O 0.51941 0.65937 0.41426 0.0
Zn1067 Zn 0.49926 0.64478 0.41574 0.0
O1068 O 0.50856 0.65241 0.38858 0.0
Zn1069 Zn 0.48623 0.63554 0.39396 0.0
O1070 O 0.46789 0.64795 0.38285 0.0
O1071 O 0.4788 0.66182 0.40552 0.0
O1072 O 0.47435 0.62833 0.41855 0.0
O1073 O 0.49128 0.63948 0.43881 0.0
O1074 O 0.50914 0.62025 0.4057 0.0
O1075 O 0.49228 0.61379 0.38343 0.0
C1076 C 0.46794 0.66117 0.39277 0.0
C1077 C 0.50504 0.60995 0.39317 0.0
C1078 C 0.12013 0.72584 0.18972 0.0
C1079 C 0.09282 0.76841 0.15126 0.0
O1080 O 0.1101 0.73844 0.19335 0.0
Zn1081 Zn 0.10724 0.74757 0.17017 0.0
O1082 O 0.12498 0.72363 0.17387 0.0
Zn1083 Zn 0.12025 0.73652 0.14919 0.0
O1084 O 0.14266 0.74464 0.14215 0.0
O1085 O 0.13196 0.75988 0.16394 0.0
O1086 O 0.10293 0.75814 0.14277 0.0
O1087 O 0.09152 0.76678 0.16768 0.0
O1088 O 0.09329 0.72679 0.15657 0.0
O1089 O 0.11064 0.71835 0.13528 0.0
C1090 C 0.1441 0.7572 0.15276 0.0
C1091 C 0.0963 0.71695 0.14335 0.0
C1092 C 0.9869 0.34412 0.90362 0.0
C1093 C 0.03453 0.37664 0.92975 0.0
O1094 O 0.99192 0.34469 0.91936 0.0
Zn1095 Zn 0.0106 0.36078 0.91614 0.0
O1096 O 0.99494 0.35323 0.89209 0.0
Zn1097 Zn 0.01692 0.37132 0.89206 0.0
O1098 O 0.03275 0.36032 0.87637 0.0
O1099 O 0.02937 0.34579 0.90091 0.0
O1100 O 0.03376 0.3795 0.91328 0.0
O1101 O 0.02331 0.36673 0.93672 0.0
O1102 O 0.99668 0.38451 0.90958 0.0
O1103 O 0.00696 0.39276 0.88409 0.0
C1104 C 0.03651 0.34731 0.88584 0.0
C1105 C 0.99678 0.39534 0.89683 0.0
C1106 C 0.37585 0.28512 0.67021 0.0
C1107 C 0.40514 0.23964 0.63807 0.0
O1108 O 0.38494 0.27237 0.67536 0.0
Zn1109 Zn 0.38941 0.26193 0.65341 0.0
O1110 O 0.37242 0.28664 0.65389 0.0
Zn1111 Zn 0.3787 0.27163 0.63067 0.0
O1112 O 0.35666 0.26338 0.6223 0.0
O1113 O 0.36512 0.24974 0.64605 0.0
O1114 O 0.39624 0.24926 0.62763 0.0
O1115 O 0.40458 0.24256 0.65433 0.0
O1116 O 0.40525 0.2811 0.63953 0.0
O1117 O 0.39002 0.28844 0.61626 0.0
C1118 C 0.35401 0.25176 0.63372 0.0
C1119 C 0.40375 0.28993 0.62537 0.0
C1120 C 0.11411 0.50698 0.39853 0.0
C1121 C 0.11409 0.47088 0.34672 0.0
O1122 O 0.12514 0.49589 0.39328 0.0
Zn1123 Zn 0.11341 0.48911 0.37246 0.0
O1124 O 0.10022 0.50962 0.38958 0.0
Zn1125 Zn 0.08925 0.49909 0.36564 0.0
O1126 O 0.068 0.48824 0.37304 0.0
O1127 O 0.09136 0.47424 0.382 0.0
O1128 O 0.10003 0.47994 0.34752 0.0
O1129 O 0.12542 0.47247 0.35864 0.0
O1130 O 0.11416 0.51239 0.35616 0.0
O1131 O 0.08674 0.51951 0.35154 0.0
C1132 C 0.07471 0.4755 0.38113 0.0
C1133 C 0.10281 0.52258 0.34925 0.0
C1134 C 0.23245 0.35501 0.09815 0.0
C1135 C 0.27927 0.32701 0.1302 0.0
O1136 O 0.2357 0.33893 0.10019 0.0
Zn1137 Zn 0.25534 0.3415 0.11515 0.0
O1138 O 0.2419 0.36638 0.106 0.0
Zn1139 Zn 0.26432 0.36552 0.12349 0.0
O1140 O 0.28074 0.37905 0.111 0.0
O1141 O 0.27429 0.35422 0.09805 0.0
O1142 O 0.27997 0.34362 0.132 0.0
O1143 O 0.26682 0.32035 0.12164 0.0
O1144 O 0.24345 0.3507 0.13909 0.0
O1145 O 0.25633 0.37572 0.14461 0.0
C1146 C 0.28275 0.36867 0.09831 0.0
C1147 C 0.24537 0.36414 0.14883 0.0
C1148 C 0.39753 0.535 0.84537 0.0
C1149 C 0.4025 0.4966 0.89533 0.0
O1150 O 0.388 0.53401 0.85883 0.0
Zn1151 Zn 0.40077 0.51611 0.87039 0.0
O1152 O 0.41087 0.52499 0.84396 0.0
Zn1153 Zn 0.42278 0.50456 0.85968 0.0
O1154 O 0.4217 0.48487 0.84473 0.0
O1155 O 0.39586 0.49379 0.85357 0.0
O1156 O 0.4146 0.4935 0.88424 0.0
O1157 O 0.39189 0.50894 0.89252 0.0
O1158 O 0.42507 0.52895 0.87671 0.0
O1159 O 0.44557 0.5133 0.86417 0.0
C1160 C 0.40527 0.48316 0.84473 0.0
C1161 C 0.44123 0.52631 0.87335 0.0
C1162 C 0.27362 0.64131 0.59949 0.0
C1163 C 0.2294 0.67876 0.62464 0.0
O1164 O 0.27185 0.65772 0.59882 0.0
Zn1165 Zn 0.25196 0.65939 0.61343 0.0
O1166 O 0.26307 0.6323 0.60889 0.0
Zn1167 Zn 0.24053 0.63835 0.62548 0.0
O1168 O 0.22319 0.62409 0.61522 0.0
O1169 O 0.23216 0.64544 0.59816 0.0
O1170 O 0.22684 0.66293 0.62942 0.0
O1171 O 0.24268 0.68233 0.61553 0.0
O1172 O 0.26275 0.6534 0.63897 0.0
O1173 O 0.24713 0.63124 0.64825 0.0
C1174 C 0.22246 0.63201 0.60074 0.0
C1175 C 0.25926 0.64211 0.6508 0.0
C1176 C 0.12288 0.5364 0.15664 0.0
C1177 C 0.1097 0.49616 0.10988 0.0
O1178 O 0.13084 0.53381 0.14239 0.0
Zn1179 Zn 0.11512 0.51701 0.13319 0.0
O1180 O 0.10867 0.52812 0.15977 0.0
Zn1181 Zn 0.09306 0.50856 0.14613 0.0
O1182 O 0.09303 0.48995 0.16244 0.0
O1183 O 0.11898 0.49531 0.15131 0.0
O1184 O 0.09826 0.49484 0.12199 0.0
O1185 O 0.12141 0.50772 0.11104 0.0
O1186 O 0.09206 0.53245 0.128 0.0
O1187 O 0.07107 0.5197 0.14273 0.0
C1188 C 0.10915 0.48644 0.16158 0.0
C1189 C 0.07603 0.53181 0.13267 0.0
C1190 C 0.22407 0.36746 0.90841 0.0
C1191 C 0.26121 0.36492 0.85723 0.0
O1192 O 0.22558 0.37815 0.89587 0.0
Zn1193 Zn 0.24254 0.36553 0.88298 0.0
O1194 O 0.23329 0.35348 0.90844 0.0
Zn1195 Zn 0.25268 0.34183 0.89109 0.0
O1196 O 0.27268 0.34011 0.90577 0.0
O1197 O 0.26514 0.36726 0.90015 0.0
O1198 O 0.26367 0.35154 0.86696 0.0
O1199 O 0.24992 0.37611 0.86163 0.0
O1200 O 0.22764 0.34297 0.87484 0.0
O1201 O 0.24201 0.32022 0.88478 0.0
C1202 C 0.27524 0.35631 0.9078 0.0
C1203 C 0.22903 0.3264 0.87663 0.0
C1204 C 0.43919 0.47792 0.63816 0.0
C1205 C 0.4022 0.52204 0.66413 0.0
O1206 O 0.44292 0.49079 0.64777 0.0
Zn1207 Zn 0.4201 0.50053 0.64984 0.0
O1208 O 0.42344 0.47606 0.63282 0.0
Zn1209 Zn 0.39917 0.49032 0.6365 0.0
O1210 O 0.39298 0.49851 0.61385 0.0
O1211 O 0.41478 0.51334 0.62503 0.0
O1212 O 0.39326 0.51228 0.65386 0.0
O1213 O 0.41846 0.51954 0.6656 0.0
O1214 O 0.4053 0.48017 0.66353 0.0
O1215 O 0.38406 0.47292 0.64555 0.0
C1216 C 0.4038 0.5109 0.61264 0.0
C1217 C 0.3917 0.47101 0.66009 0.0
C1218 C 0.28802 0.64462 0.41043 0.0
C1219 C 0.24909 0.65067 0.36064 0.0
O1220 O 0.28523 0.63418 0.39791 0.0
Zn1221 Zn 0.26917 0.64836 0.38514 0.0
O1222 O 0.28026 0.65945 0.41058 0.0
Zn1223 Zn 0.26163 0.67292 0.3939 0.0
O1224 O 0.24232 0.67649 0.40923 0.0
O1225 O 0.2467 0.6489 0.40245 0.0
O1226 O 0.24843 0.6641 0.37057 0.0
O1227 O 0.25978 0.63856 0.3641 0.0
O1228 O 0.2853 0.66946 0.37578 0.0
O1229 O 0.27379 0.6934 0.38653 0.0
C1230 C 0.2379 0.66061 0.41055 0.0
C1231 C 0.2854 0.6861 0.37734 0.0
C1232 C 0.3818 0.07485 0.47734 0.0
C1233 C 0.34886 0.10564 0.5218 0.0
O1234 O 0.37239 0.06868 0.48946 0.0
Zn1235 Zn 0.36601 0.09026 0.50024 0.0
O1236 O 0.3843 0.09135 0.4765 0.0
Zn1237 Zn 0.37624 0.11395 0.49105 0.0
O1238 O 0.39758 0.12301 0.50074 0.0
O1239 O 0.38921 0.09863 0.51336 0.0
O1240 O 0.35794 0.11606 0.5124 0.0
O1241 O 0.34975 0.08932 0.51917 0.0
O1242 O 0.35086 0.1031 0.48023 0.0
O1243 O 0.36452 0.12753 0.47357 0.0
C1244 C 0.39993 0.11138 0.51227 0.0
C1245 C 0.35174 0.11723 0.47134 0.0
C1246 C 0.87051 0.44312 0.53499 0.0
C1247 C 0.84323 0.41149 0.48745 0.0
O1248 O 0.86065 0.44805 0.52273 0.0
Zn1249 Zn 0.85746 0.42629 0.51112 0.0
O1250 O 0.8752 0.42707 0.53561 0.0
Zn1251 Zn 0.86994 0.40421 0.5195 0.0
O1252 O 0.8922 0.39752 0.51101 0.0
O1253 O 0.88201 0.4208 0.49775 0.0
O1254 O 0.85288 0.40114 0.49647 0.0
O1255 O 0.84209 0.42739 0.49181 0.0
O1256 O 0.84275 0.41012 0.52964 0.0
O1257 O 0.86012 0.38801 0.5354 0.0
C1258 C 0.89384 0.40908 0.49935 0.0
C1259 C 0.84568 0.39566 0.53762 0.0
C1260 C 0.32217 0.12524 0.28213 0.0
C1261 C 0.35401 0.09773 0.23525 0.0
O1262 O 0.31732 0.11626 0.2692 0.0
Zn1263 Zn 0.33935 0.11234 0.25884 0.0
O1264 O 0.33842 0.12889 0.28381 0.0
Zn1265 Zn 0.36175 0.12283 0.26838 0.0
O1266 O 0.37025 0.145 0.26156 0.0
O1267 O 0.34657 0.13752 0.24726 0.0
O1268 O 0.36477 0.10627 0.24488 0.0
O1269 O 0.33797 0.09785 0.23904 0.0
O1270 O 0.35338 0.09602 0.27806 0.0
O1271 O 0.37646 0.11175 0.28462 0.0
C1272 C 0.35896 0.14844 0.25006 0.0
C1273 C 0.36769 0.09793 0.2866 0.0
C1274 C 0.62861 0.5759 0.03454 0.0
C1275 C 0.65975 0.60451 0.9869 0.0
O1276 O 0.63658 0.56924 0.0217 0.0
Zn1277 Zn 0.64332 0.59062 0.01032 0.0
O1278 O 0.62739 0.59255 0.03558 0.0
Zn1279 Zn 0.63614 0.61468 0.02026 0.0
O1280 O 0.61506 0.62592 0.01341 0.0
O1281 O 0.61908 0.60101 0.99981 0.0
O1282 O 0.65261 0.61571 0.99709 0.0
O1283 O 0.65746 0.58839 0.98979 0.0
O1284 O 0.66154 0.60218 0.02903 0.0
O1285 O 0.64979 0.62726 0.03663 0.0
C1286 C 0.6099 0.61477 1.0024 0.0
C1287 C 0.66213 0.61636 0.03793 0.0
C1288 C 0.67978 0.38087 0.28503 0.0
C1289 C 0.65168 0.40961 0.23584 0.0
O1290 O 0.68616 0.38979 0.2727 0.0
Zn1291 Zn 0.66506 0.39442 0.26001 0.0
O1292 O 0.66336 0.37771 0.28503 0.0
Zn1293 Zn 0.64161 0.38411 0.26801 0.0
O1294 O 0.6335 0.36212 0.26001 0.0
O1295 O 0.6581 0.36987 0.2475 0.0
O1296 O 0.64048 0.401 0.24485 0.0
O1297 O 0.66762 0.40923 0.2402 0.0
O1298 O 0.64963 0.41083 0.27767 0.0
O1299 O 0.62589 0.39558 0.28313 0.0
C1300 C 0.64545 0.35903 0.2491 0.0
C1301 C 0.63473 0.40937 0.28521 0.0
C1302 C 0.13761 0.94366 0.98304 0.0
C1303 C 0.16683 0.91005 0.02806 0.0
O1304 O 0.14651 0.94881 0.99597 0.0
Zn1305 Zn 0.15122 0.92646 0.00609 0.0
O1306 O 0.13434 0.92735 0.98137 0.0
Zn1307 Zn 0.14075 0.90385 0.99562 0.0
O1308 O 0.11882 0.895 1.0034 0.0
O1309 O 0.12687 0.91834 0.01795 0.0
O1310 O 0.15796 0.9001 0.01793 0.0
O1311 O 0.16651 0.92642 0.0257 0.0
O1312 O 0.16704 0.9137 0.98614 0.0
O1313 O 0.15223 0.89037 0.97825 0.0
C1314 C 0.11596 0.90591 0.01545 0.0
C1315 C 0.16564 0.89992 0.97672 0.0
C1316 C 0.36315 0.91223 0.21669 0.0
C1317 C 0.35825 0.86413 0.25791 0.0
O1318 O 0.37258 0.8987 0.21792 0.0
Zn1319 Zn 0.35985 0.88766 0.23645 0.0
O1320 O 0.34987 0.91392 0.2267 0.0
Zn1321 Zn 0.3378 0.89911 0.24751 0.0
O1322 O 0.33901 0.91501 0.26652 0.0
O1323 O 0.36476 0.90552 0.25791 0.0
O1324 O 0.3461 0.87539 0.26005 0.0
O1325 O 0.36883 0.86597 0.24534 0.0
O1326 O 0.3355 0.88046 0.22412 0.0
O1327 O 0.31503 0.8941 0.23884 0.0
C1328 C 0.35546 0.91491 0.26816 0.0
C1329 C 0.31934 0.88401 0.2265 0.0
C1330 C 0.14 0.09665 0.72462 0.0
C1331 C 0.14367 0.14836 0.76077 0.0
O1332 O 0.1294 0.10919 0.72643 0.0
Zn1333 Zn 0.14276 0.12244 0.74248 0.0
O1334 O 0.15446 0.09685 0.7331 0.0
Zn1335 Zn 0.16681 0.11469 0.75172 0.0
O1336 O 0.16982 0.10047 0.77175 0.0
O1337 O 0.14225 0.10575 0.76562 0.0
O1338 O 0.15722 0.13881 0.76295 0.0
O1339 O 0.13221 0.14374 0.74983 0.0
O1340 O 0.16466 0.13068 0.72657 0.0
O1341 O 0.18788 0.12115 0.74042 0.0
C1342 C 0.15382 0.09842 0.77528 0.0
C1343 C 0.18128 0.12913 0.72756 0.0
H1344 H 0.04858 0.18933 0.41 0.0
H1345 H 0.04605 0.16422 0.35973 0.0
H1346 H 0.0653 0.18615 0.34746 0.0
H1347 H 0.08293 0.21234 0.35077 0.0
H1348 H 0.08661 0.23738 0.40095 0.0
H1349 H 0.06698 0.21561 0.41344 0.0
C1350 C 0.05222 0.18873 0.39636 0.0
C1351 C 0.04586 0.17515 0.38583 0.0
C1352 C 0.06357 0.20133 0.38934 0.0
C1353 C 0.0508 0.17446 0.36819 0.0
C1354 C 0.06181 0.18702 0.36111 0.0
C1355 C 0.07946 0.21307 0.36444 0.0
C1356 C 0.08621 0.2265 0.37487 0.0
C1357 C 0.0683 0.20048 0.37155 0.0
C1358 C 0.08164 0.22714 0.39261 0.0
C1359 C 0.07037 0.21472 0.39976 0.0
H1360 H 0.05029 0.82862 0.59565 0.0
H1361 H 0.02679 0.83389 0.6464 0.0
H1362 H 0.0501 0.81619 0.65919 0.0
H1363 H 0.0767 0.79833 0.65559 0.0
H1364 H 0.10029 0.79432 0.60468 0.0
H1365 H 0.0774 0.81246 0.59235 0.0
C1366 C 0.05025 0.82592 0.60953 0.0
C1367 C 0.03675 0.83239 0.62004 0.0
C1368 C 0.06371 0.81594 0.61676 0.0
C1369 C 0.03705 0.82903 0.63803 0.0
C1370 C 0.05034 0.81887 0.64533 0.0
C1371 C 0.07684 0.80149 0.64182 0.0
C1372 C 0.09015 0.79487 0.63107 0.0
C1373 C 0.06366 0.81211 0.63477 0.0
C1374 C 0.09024 0.79923 0.61327 0.0
C1375 C 0.07712 0.80957 0.60617 0.0
H1376 H 0.42607 0.8031 0.84533 0.0
H1377 H 0.42288 0.7783 0.89567 0.0
H1378 H 0.44064 0.80157 0.90841 0.0
H1379 H 0.458 0.82842 0.90485 0.0
H1380 H 0.45994 0.85351 0.85453 0.0
H1381 H 0.44166 0.83068 0.84219 0.0
C1382 C 0.42924 0.80279 0.85911 0.0
C1383 C 0.42335 0.78893 0.86952 0.0
C1384 C 0.43923 0.81625 0.86633 0.0
C1385 C 0.4273 0.78884 0.88739 0.0
C1386 C 0.43748 0.80211 0.89466 0.0
C1387 C 0.45435 0.82891 0.89121 0.0
C1388 C 0.46042 0.84259 0.8806 0.0
C1389 C 0.44367 0.81579 0.8842 0.0
C1390 C 0.45543 0.84315 0.86299 0.0
C1391 C 0.44502 0.83007 0.8559 0.0
H1392 H 0.46176 0.17719 0.09829 0.0
H1393 H 0.48295 0.17137 0.15003 0.0
H1394 H 0.45971 0.18998 0.16169 0.0
H1395 H 0.43342 0.20835 0.15683 0.0
H1396 H 0.41275 0.21295 0.10465 0.0
H1397 H 0.43583 0.19446 0.09357 0.0
C1398 C 0.46137 0.17995 0.11215 0.0
C1399 C 0.47414 0.17297 0.12325 0.0
C1400 C 0.44806 0.19052 0.11868 0.0
C1401 C 0.47326 0.17657 0.14119 0.0
C1402 C 0.46001 0.18725 0.14784 0.0
C1403 C 0.43404 0.20532 0.14305 0.0
C1404 C 0.42135 0.21207 0.13161 0.0
C1405 C 0.44736 0.1944 0.13667 0.0
C1406 C 0.42226 0.20791 0.11379 0.0
C1407 C 0.43548 0.19733 0.10739 0.0
H1408 H 0.05015 0.81956 0.10246 0.0
H1409 H 0.04527 0.84716 0.15122 0.0
H1410 H 0.06229 0.82484 0.16592 0.0
H1411 H 0.07835 0.79739 0.16522 0.0
H1412 H 0.08474 0.77009 0.11655 0.0
H1413 H 0.06745 0.79234 0.10157 0.0
C1414 C 0.05285 0.82067 0.11629 0.0
C1415 C 0.04639 0.83502 0.1257 0.0
C1416 C 0.06292 0.80783 0.12472 0.0
C1417 C 0.05011 0.83632 0.1436 0.0
C1418 C 0.05982 0.82353 0.15207 0.0
C1419 C 0.07594 0.79628 0.15134 0.0
C1420 C 0.08272 0.78205 0.14205 0.0
C1421 C 0.06625 0.80921 0.14279 0.0
C1422 C 0.07968 0.78093 0.12401 0.0
C1423 C 0.06976 0.79363 0.11545 0.0
H1424 H 0.43893 0.80371 0.35087 0.0
H1425 H 0.41605 0.79273 0.40104 0.0
H1426 H 0.43836 0.81004 0.4154 0.0
H1427 H 0.46379 0.82885 0.4139 0.0
H1428 H 0.48636 0.84157 0.36404 0.0
H1429 H 0.46477 0.82318 0.3494 0.0
C1430 C 0.43897 0.80505 0.36494 0.0
C1431 C 0.42587 0.79697 0.37488 0.0
C1432 C 0.45169 0.81543 0.37318 0.0
C1433 C 0.42593 0.79893 0.39309 0.0
C1434 C 0.43869 0.80881 0.40134 0.0
C1435 C 0.46406 0.82758 0.39982 0.0
C1436 C 0.47668 0.83654 0.3901 0.0
C1437 C 0.45153 0.81723 0.39152 0.0
C1438 C 0.47672 0.83485 0.37185 0.0
C1439 C 0.46441 0.8243 0.36347 0.0
H1440 H 0.41808 0.2126 0.65637 0.0
H1441 H 0.41761 0.23516 0.6049 0.0
H1442 H 0.43802 0.2128 0.59479 0.0
H1443 H 0.4566 0.18715 0.60097 0.0
H1444 H 0.45576 0.16447 0.65246 0.0
H1445 H 0.43533 0.18665 0.66218 0.0
C1446 C 0.4224 0.21263 0.64292 0.0
C1447 C 0.41644 0.22557 0.63143 0.0
C1448 C 0.43398 0.19976 0.63723 0.0
C1449 C 0.42199 0.2253 0.61399 0.0
C1450 C 0.43372 0.21257 0.60823 0.0
C1451 C 0.45195 0.18713 0.61431 0.0
C1452 C 0.45776 0.17425 0.626 0.0
C1453 C 0.43992 0.19981 0.6198 0.0
C1454 C 0.45147 0.17422 0.64319 0.0
C1455 C 0.4398 0.1869 0.64878 0.0
H1456 H 0.07631 0.20528 0.85816 0.0
H1457 H 0.10113 0.20397 0.90868 0.0
H1458 H 0.07867 0.18446 0.9195 0.0
H1459 H 0.05171 0.16844 0.91509 0.0
H1460 H 0.02664 0.16879 0.86477 0.0
H1461 H 0.04958 0.18785 0.85336 0.0
C1462 C 0.07678 0.2007 0.87152 0.0
C1463 C 0.09035 0.20617 0.8826 0.0
C1464 C 0.06383 0.18929 0.8777 0.0
C1465 C 0.09087 0.19999 0.89984 0.0
C1466 C 0.07801 0.18883 0.90608 0.0
C1467 C 0.05125 0.17262 0.90159 0.0
C1468 C 0.03743 0.16731 0.89083 0.0
C1469 C 0.0644 0.18349 0.89517 0.0
C1470 C 0.03716 0.17269 0.87333 0.0
C1471 C 0.05023 0.18365 0.86682 0.0
H1472 H 0.36278 0.05453 0.16615 0.0
H1473 H 0.41389 0.04534 0.18762 0.0
H1474 H 0.40701 0.06419 0.21244 0.0
H1475 H 0.3859 0.08278 0.22854 0.0
H1476 H 0.33461 0.09054 0.20683 0.0
H1477 H 0.34222 0.07295 0.18164 0.0
C1478 C 0.37249 0.05665 0.17621 0.0
C1479 C 0.38882 0.04848 0.17499 0.0
C1480 C 0.3684 0.06734 0.19046 0.0
C1481 C 0.40117 0.05141 0.18823 0.0
C1482 C 0.39726 0.06222 0.20242 0.0
C1483 C 0.3765 0.08073 0.21819 0.0
C1484 C 0.3597 0.08795 0.21961 0.0
C1485 C 0.38085 0.07021 0.20374 0.0
C1486 C 0.34759 0.08504 0.20616 0.0
C1487 C 0.35191 0.07498 0.19171 0.0
H1488 H 0.18098 0.09196 0.46298 0.0
H1489 H 0.16993 0.14193 0.48614 0.0
H1490 H 0.18877 0.1562 0.46473 0.0
H1491 H 0.20851 0.15442 0.43925 0.0
H1492 H 0.21822 0.10426 0.41578 0.0
H1493 H 0.19988 0.09022 0.43747 0.0
C1494 C 0.18269 0.10598 0.46338 0.0
C1495 C 0.17409 0.11583 0.4762 0.0
C1496 C 0.19336 0.1141 0.45095 0.0
C1497 C 0.17636 0.13401 0.4764 0.0
C1498 C 0.18717 0.14219 0.46418 0.0
C1499 C 0.20664 0.14042 0.43895 0.0
C1500 C 0.21478 0.13043 0.4259 0.0
C1501 C 0.19577 0.13236 0.45138 0.0
C1502 C 0.21208 0.11231 0.4256 0.0
C1503 C 0.2016 0.10422 0.43803 0.0
H1504 H 0.14072 0.95467 0.66596 0.0
H1505 H 0.09112 0.96212 0.69124 0.0
H1506 H 0.09994 0.94233 0.71466 0.0
H1507 H 0.12227 0.92349 0.72847 0.0
H1508 H 0.17211 0.91735 0.70325 0.0
H1509 H 0.16261 0.93589 0.67933 0.0
C1510 C 0.13177 0.95194 0.67653 0.0
C1511 C 0.11527 0.95991 0.6768 0.0
C1512 C 0.13698 0.94073 0.69003 0.0
C1513 C 0.10392 0.95622 0.6907 0.0
C1514 C 0.10895 0.94487 0.7041 0.0
C1515 C 0.13096 0.9261 0.71765 0.0
C1516 C 0.14789 0.91902 0.71769 0.0
C1517 C 0.12551 0.93711 0.70397 0.0
C1518 C 0.15905 0.92267 0.70363 0.0
C1519 C 0.15364 0.93329 0.68991 0.0
H1520 H 0.30069 0.85264 0.93812 0.0
H1521 H 0.29885 0.90223 0.91167 0.0
H1522 H 0.31832 0.9148 0.93336 0.0
H1523 H 0.33565 0.91198 0.96007 0.0
H1524 H 0.33859 0.86224 0.98609 0.0
H1525 H 0.31908 0.84953 0.96438 0.0
C1526 C 0.30456 0.86619 0.93712 0.0
C1527 C 0.29823 0.87646 0.92329 0.0
C1528 C 0.31601 0.87335 0.94957 0.0
C1529 C 0.30352 0.89397 0.92212 0.0
C1530 C 0.31465 0.90122 0.93456 0.0
C1531 C 0.33206 0.89835 0.96099 0.0
C1532 C 0.33856 0.88813 0.97475 0.0
C1533 C 0.32095 0.89106 0.94836 0.0
C1534 C 0.33384 0.87043 0.97562 0.0
C1535 C 0.32262 0.86314 0.96323 0.0
H1536 H 0.40045 0.95878 0.3214 0.0
H1537 H 0.35243 0.95535 0.35047 0.0
H1538 H 0.33909 0.93873 0.32704 0.0
H1539 H 0.34076 0.9254 0.29827 0.0
H1540 H 0.38892 0.92706 0.26945 0.0
H1541 H 0.40249 0.94413 0.29277 0.0
C1542 C 0.38709 0.95435 0.32259 0.0
C1543 C 0.37746 0.95834 0.33764 0.0
C1544 C 0.37949 0.94453 0.3091 0.0
C1545 C 0.36019 0.9524 0.33907 0.0
C1546 C 0.3525 0.94293 0.32565 0.0
C1547 C 0.35421 0.92956 0.29705 0.0
C1548 C 0.36378 0.92515 0.28213 0.0
C1549 C 0.36198 0.939 0.3106 0.0
C1550 C 0.38128 0.93035 0.28085 0.0
C1551 C 0.38904 0.94011 0.29416 0.0
H1552 H 0.30066 0.14646 0.57448 0.0
H1553 H 0.30046 0.09611 0.59952 0.0
H1554 H 0.31895 0.08434 0.57656 0.0
H1555 H 0.3353 0.08829 0.54945 0.0
H1556 H 0.33678 0.13889 0.52501 0.0
H1557 H 0.31772 0.1506 0.54762 0.0
C1558 C 0.30465 0.13291 0.57487 0.0
C1559 C 0.29917 0.12218 0.58865 0.0
C1560 C 0.31553 0.12626 0.56174 0.0
C1561 C 0.30456 0.10468 0.58908 0.0
C1562 C 0.31511 0.09791 0.57594 0.0
C1563 C 0.3314 0.10186 0.54904 0.0
C1564 C 0.33738 0.11267 0.53555 0.0
C1565 C 0.32068 0.10858 0.56222 0.0
C1566 C 0.33239 0.13029 0.5353 0.0
C1567 C 0.32146 0.137 0.54821 0.0
H1568 H 0.14574 0.05016 0.84119 0.0
H1569 H 0.09373 0.04483 0.82051 0.0
H1570 H 0.10083 0.06504 0.79695 0.0
H1571 H 0.12211 0.08378 0.78182 0.0
H1572 H 0.17433 0.08807 0.80224 0.0
H1573 H 0.16679 0.06881 0.82631 0.0
C1574 C 0.13591 0.05344 0.83158 0.0
C1575 C 0.11923 0.04597 0.83264 0.0
C1576 C 0.14012 0.06491 0.81799 0.0
C1577 C 0.1067 0.05034 0.81999 0.0
C1578 C 0.11074 0.06192 0.80651 0.0
C1579 C 0.13178 0.08059 0.79161 0.0
C1580 C 0.14875 0.08736 0.79022 0.0
C1581 C 0.12744 0.06924 0.80534 0.0
C1582 C 0.16119 0.08298 0.80294 0.0
C1583 C 0.1569 0.07196 0.81673 0.0
H1584 H 0.21177 0.89085 0.094 0.0
H1585 H 0.21182 0.84042 0.06921 0.0
H1586 H 0.19361 0.85189 0.04562 0.0
H1587 H 0.17791 0.87648 0.03193 0.0
H1588 H 0.17934 0.92704 0.05649 0.0
H1589 H 0.19673 0.91525 0.08029 0.0
C1590 C 0.20775 0.8823 0.08349 0.0
C1591 C 0.21307 0.86477 0.08342 0.0
C1592 C 0.19756 0.88903 0.06991 0.0
C1593 C 0.2079 0.85397 0.06958 0.0
C1594 C 0.19748 0.86052 0.0561 0.0
C1595 C 0.18198 0.88488 0.04254 0.0
C1596 C 0.17729 0.90261 0.04245 0.0
C1597 C 0.19226 0.87806 0.05611 0.0
C1598 C 0.18281 0.91337 0.05619 0.0
C1599 C 0.19274 0.90663 0.06984 0.0
H1600 H 0.2275 0.38669 0.08263 0.0
H1601 H 0.20512 0.33532 0.08743 0.0
H1602 H 0.18167 0.34344 0.06764 0.0
H1603 H 0.1677 0.36476 0.04881 0.0
H1604 H 0.19007 0.41597 0.04274 0.0
H1605 H 0.21343 0.40824 0.06312 0.0
C1606 C 0.21742 0.37734 0.07941 0.0
C1607 C 0.21803 0.36044 0.08655 0.0
C1608 C 0.20405 0.38201 0.06774 0.0
C1609 C 0.20499 0.34839 0.0821 0.0
C1610 C 0.19157 0.35302 0.07078 0.0
C1611 C 0.17764 0.3743 0.05193 0.0
C1612 C 0.17709 0.39095 0.04429 0.0
C1613 C 0.19101 0.36974 0.06349 0.0
C1614 C 0.1902 0.40305 0.04841 0.0
C1615 C 0.20353 0.39865 0.0601 0.0
H1616 H 0.68439 0.10728 0.9596 0.0
H1617 H 0.65989 0.15763 0.96485 0.0
H1618 H 0.68149 0.17046 0.94554 0.0
H1619 H 0.70762 0.1677 0.92767 0.0
H1620 H 0.73201 0.11747 0.92144 0.0
H1621 H 0.71012 0.10429 0.9405 0.0
C1622 C 0.68379 0.12105 0.95649 0.0
C1623 C 0.67057 0.13147 0.96374 0.0
C1624 C 0.69621 0.12838 0.94519 0.0
C1625 C 0.66989 0.14927 0.95946 0.0
C1626 C 0.68226 0.15666 0.94843 0.0
C1627 C 0.70815 0.15386 0.93045 0.0
C1628 C 0.72148 0.14362 0.92323 0.0
C1629 C 0.69552 0.14638 0.9413 0.0
C1630 C 0.72186 0.12566 0.92682 0.0
C1631 C 0.70939 0.11812 0.93776 0.0
H1632 H 0.15024 0.43148 0.20738 0.0
H1633 H 0.09785 0.41255 0.21501 0.0
H1634 H 0.0865 0.4357 0.19658 0.0
H1635 H 0.09124 0.4612 0.17831 0.0
H1636 H 0.14342 0.47996 0.16932 0.0
H1637 H 0.15507 0.45696 0.18816 0.0
C1638 C 0.13636 0.43249 0.20503 0.0
C1639 C 0.12492 0.42033 0.21259 0.0
C1640 C 0.12987 0.44575 0.19413 0.0
C1641 C 0.10696 0.42169 0.2093 0.0
C1642 C 0.10043 0.43494 0.19877 0.0
C1643 C 0.10517 0.4603 0.18047 0.0
C1644 C 0.11643 0.47232 0.17249 0.0
C1645 C 0.11174 0.44701 0.19112 0.0
C1646 C 0.13447 0.47083 0.17529 0.0
C1647 C 0.14113 0.45773 0.1861 0.0
H1648 H 0.78505 0.88074 0.42456 0.0
H1649 H 0.80425 0.82792 0.42546 0.0
H1650 H 0.82919 0.83696 0.44285 0.0
H1651 H 0.84509 0.85952 0.45867 0.0
H1652 H 0.82539 0.91212 0.45951 0.0
H1653 H 0.80121 0.90357 0.44057 0.0
C1654 C 0.79476 0.87127 0.42849 0.0
C1655 C 0.79277 0.85369 0.42374 0.0
C1656 C 0.80898 0.8765 0.43884 0.0
C1657 C 0.80539 0.84152 0.42904 0.0
C1658 C 0.8197 0.84667 0.43896 0.0
C1659 C 0.8356 0.86916 0.4546 0.0
C1660 C 0.83707 0.88643 0.46045 0.0
C1661 C 0.82155 0.86408 0.44406 0.0
C1662 C 0.82453 0.89871 0.45521 0.0
C1663 C 0.8107 0.89383 0.44438 0.0
H1664 H 0.89369 0.09343 0.19922 0.0
H1665 H 0.8454 0.06901 0.21433 0.0
H1666 H 0.85207 0.04398 0.1957 0.0
H1667 H 0.87247 0.02843 0.17592 0.0
H1668 H 0.92117 0.053 0.16239 0.0
H1669 H 0.91339 0.07857 0.1794 0.0
C1670 C 0.88454 0.08269 0.19842 0.0
C1671 C 0.86909 0.08312 0.20823 0.0
C1672 C 0.88854 0.06832 0.18789 0.0
C1673 C 0.85744 0.06902 0.20699 0.0
C1674 C 0.86123 0.0547 0.19631 0.0
C1675 C 0.88123 0.03949 0.17656 0.0
C1676 C 0.89738 0.03881 0.16793 0.0
C1677 C 0.87684 0.05413 0.18679 0.0
C1678 C 0.90871 0.05315 0.16901 0.0
C1679 C 0.90429 0.0678 0.17874 0.0
H1680 H 0.30171 0.65671 0.58494 0.0
H1681 H 0.2762 0.60691 0.58999 0.0
H1682 H 0.2977 0.59378 0.57039 0.0
H1683 H 0.32337 0.59683 0.55096 0.0
H1684 H 0.34882 0.64686 0.54709 0.0
H1685 H 0.32769 0.65946 0.56699 0.0
C1686 C 0.30085 0.64296 0.58183 0.0
C1687 C 0.2873 0.63284 0.58884 0.0
C1688 C 0.31322 0.63553 0.57065 0.0
C1689 C 0.28653 0.61499 0.5848 0.0
C1690 C 0.29877 0.6075 0.57352 0.0
C1691 C 0.32425 0.61048 0.55449 0.0
C1692 C 0.33763 0.62088 0.54745 0.0
C1693 C 0.3121 0.6177 0.56621 0.0
C1694 C 0.33871 0.63851 0.5523 0.0
C1695 C 0.3266 0.64577 0.56369 0.0
H1696 H 0.11359 0.59089 0.30457 0.0
H1697 H 0.16488 0.56873 0.29866 0.0
H1698 H 0.15672 0.54434 0.31743 0.0
H1699 H 0.13475 0.52889 0.33501 0.0
H1700 H 0.08308 0.55049 0.33966 0.0
H1701 H 0.09166 0.57544 0.32195 0.0
C1702 C 0.12303 0.58079 0.30748 0.0
C1703 C 0.13984 0.58168 0.30025 0.0
C1704 C 0.11816 0.56663 0.31802 0.0
C1705 C 0.15184 0.56836 0.30401 0.0
C1706 C 0.14719 0.5544 0.31476 0.0
C1707 C 0.1254 0.5391 0.33221 0.0
C1708 C 0.1083 0.5378 0.33868 0.0
C1709 C 0.13034 0.55333 0.32176 0.0
C1710 C 0.09631 0.55109 0.3348 0.0
C1711 C 0.10121 0.56541 0.32469 0.0
H1712 H 0.42076 0.45373 0.83329 0.0
H1713 H 0.37151 0.48075 0.83356 0.0
H1714 H 0.35856 0.45765 0.81578 0.0
H1715 H 0.36158 0.4301 0.79951 0.0
H1716 H 0.41079 0.4029 0.80041 0.0
H1717 H 0.42337 0.42574 0.81845 0.0
C1718 C 0.40719 0.45458 0.82946 0.0
C1719 C 0.39715 0.46898 0.83459 0.0
C1720 C 0.39982 0.44122 0.81946 0.0
C1721 C 0.37952 0.46978 0.82975 0.0
C1722 C 0.37212 0.45661 0.81956 0.0
C1723 C 0.37503 0.42917 0.8037 0.0
C1724 C 0.38524 0.41486 0.79854 0.0
C1725 C 0.38219 0.44231 0.81424 0.0
C1726 C 0.40261 0.41374 0.80421 0.0
C1727 C 0.40986 0.42683 0.81449 0.0
H1728 H 0.91982 0.79775 0.66561 0.0
H1729 H 0.91804 0.77067 0.61639 0.0
H1730 H 0.93823 0.79176 0.6038 0.0
H1731 H 0.95675 0.8178 0.60681 0.0
H1732 H 0.95744 0.84555 0.65569 0.0
H1733 H 0.93741 0.82436 0.66829 0.0
C1734 C 0.92384 0.79648 0.65213 0.0
C1735 C 0.91746 0.78261 0.642 0.0
C1736 C 0.93532 0.80878 0.64488 0.0
C1737 C 0.92269 0.78125 0.62449 0.0
C1738 C 0.9343 0.79328 0.61727 0.0
C1739 C 0.95252 0.81919 0.62022 0.0
C1740 C 0.95866 0.83321 0.63029 0.0
C1741 C 0.94075 0.80707 0.62735 0.0
C1742 C 0.9529 0.83492 0.64761 0.0
C1743 C 0.94146 0.82278 0.65486 0.0
H1744 H 0.97721 0.17538 0.37415 0.0
H1745 H 0.95534 0.1718 0.42581 0.0
H1746 H 0.93092 0.19001 0.41704 0.0
H1747 H 0.91631 0.208 0.39523 0.0
H1748 H 0.93841 0.21295 0.3438 0.0
H1749 H 0.96209 0.19325 0.35192 0.0
C1750 C 0.967 0.17847 0.3834 0.0
C1751 C 0.96814 0.17226 0.40061 0.0
C1752 C 0.95306 0.18932 0.37836 0.0
C1753 C 0.95487 0.17649 0.4125 0.0
C1754 C 0.94087 0.18692 0.40751 0.0
C1755 C 0.92624 0.20472 0.38574 0.0
C1756 C 0.92556 0.21199 0.36895 0.0
C1757 C 0.93993 0.19358 0.39055 0.0
C1758 C 0.93862 0.20761 0.35686 0.0
C1759 C 0.95217 0.19631 0.36149 0.0
H1760 H 0.5537 0.18812 0.10478 0.0
H1761 H 0.55504 0.16561 0.15632 0.0
H1762 H 0.57499 0.18828 0.16599 0.0
H1763 H 0.59156 0.21479 0.16018 0.0
H1764 H 0.59144 0.23713 0.10861 0.0
H1765 H 0.5717 0.21417 0.09855 0.0
C1766 C 0.55837 0.18822 0.11812 0.0
C1767 C 0.55279 0.17524 0.12982 0.0
C1768 C 0.57011 0.20121 0.12359 0.0
C1769 C 0.55912 0.17541 0.14702 0.0
C1770 C 0.57053 0.18839 0.15259 0.0
C1771 C 0.58728 0.21463 0.14671 0.0
C1772 C 0.59289 0.22772 0.1352 0.0
C1773 C 0.57605 0.20138 0.14103 0.0
C1774 C 0.58735 0.22718 0.11774 0.0
C1775 C 0.57599 0.2141 0.112 0.0
H1776 H 0.57227 0.80222 0.85575 0.0
H1777 H 0.59907 0.79947 0.90511 0.0
H1778 H 0.57723 0.81835 0.91831 0.0
H1779 H 0.55039 0.83555 0.91599 0.0
H1780 H 0.5244 0.83984 0.86634 0.0
H1781 H 0.546 0.82055 0.85313 0.0
C1782 C 0.5733 0.80576 0.86939 0.0
C1783 C 0.58723 0.79939 0.87943 0.0
C1784 C 0.56083 0.81693 0.87686 0.0
C1785 C 0.5885 0.80424 0.89705 0.0
C1786 C 0.57599 0.81501 0.90465 0.0
C1787 C 0.54945 0.83224 0.90229 0.0
C1788 C 0.53577 0.83904 0.8922 0.0
C1789 C 0.56209 0.82141 0.8947 0.0
C1790 C 0.53484 0.83481 0.87439 0.0
C1791 C 0.54716 0.82375 0.86683 0.0
H1792 H 0.95669 0.16614 0.8587 0.0
H1793 H 0.96143 0.18678 0.91076 0.0
H1794 H 0.9429 0.21148 0.90277 0.0
H1795 H 0.92546 0.22727 0.88082 0.0
H1796 H 0.92217 0.20705 0.82845 0.0
H1797 H 0.94002 0.18212 0.83675 0.0
C1798 C 0.95362 0.176 0.86834 0.0
C1799 C 0.96034 0.17457 0.88532 0.0
C1800 C 0.94324 0.19025 0.86358 0.0
C1801 C 0.95643 0.18758 0.89758 0.0
C1802 C 0.94581 0.20169 0.89303 0.0
C1803 C 0.92861 0.21737 0.87125 0.0
C1804 C 0.92244 0.21899 0.85405 0.0
C1805 C 0.93915 0.20317 0.87605 0.0
C1806 C 0.92679 0.20615 0.84176 0.0
C1807 C 0.93698 0.19186 0.8465 0.0
H1808 H 0.54928 0.17731 0.59753 0.0
H1809 H 0.52595 0.16985 0.64809 0.0
H1810 H 0.54825 0.18862 0.66125 0.0
H1811 H 0.57444 0.20757 0.65807 0.0
H1812 H 0.59728 0.21375 0.60701 0.0
H1813 H 0.57502 0.19521 0.59443 0.0
C1814 C 0.54901 0.17973 0.61145 0.0
C1815 C 0.53592 0.17223 0.62178 0.0
C1816 C 0.56179 0.19042 0.61885 0.0
C1817 C 0.53592 0.17543 0.63983 0.0
C1818 C 0.54863 0.18623 0.64734 0.0
C1819 C 0.57445 0.20488 0.6442 0.0
C1820 C 0.58753 0.21206 0.63353 0.0
C1821 C 0.56161 0.19389 0.63694 0.0
C1822 C 0.58746 0.20834 0.61558 0.0
C1823 C 0.57471 0.19773 0.60832 0.0
H1824 H 0.55328 0.82519 0.40574 0.0
H1825 H 0.55433 0.85424 0.35756 0.0
H1826 H 0.57233 0.8318 0.34418 0.0
H1827 H 0.58652 0.80334 0.3456 0.0
H1828 H 0.58684 0.77456 0.39386 0.0
H1829 H 0.56962 0.79753 0.40783 0.0
C1830 C 0.55755 0.82665 0.39236 0.0
C1831 C 0.55235 0.84131 0.38263 0.0
C1832 C 0.56807 0.81373 0.38474 0.0
C1833 C 0.55815 0.84311 0.36536 0.0
C1834 C 0.56839 0.83025 0.35766 0.0
C1835 C 0.58285 0.80212 0.3592 0.0
C1836 C 0.58773 0.78722 0.36865 0.0
C1837 C 0.57321 0.81541 0.36714 0.0
C1838 C 0.58319 0.78592 0.38632 0.0
C1839 C 0.57331 0.79902 0.39428 0.0
H1840 H 0.91703 0.80299 0.11175 0.0
H1841 H 0.93643 0.80083 0.16447 0.0
H1842 H 0.96148 0.81874 0.15613 0.0
H1843 H 0.97818 0.83459 0.13351 0.0
H1844 H 0.95903 0.83498 0.08062 0.0
H1845 H 0.93357 0.81826 0.0894 0.0
C1846 C 0.92667 0.80651 0.12147 0.0
C1847 C 0.92483 0.80066 0.13871 0.0
C1848 C 0.94113 0.81648 0.11653 0.0
C1849 C 0.93757 0.80516 0.15108 0.0
C1850 C 0.95188 0.81542 0.14633 0.0
C1851 C 0.96837 0.83107 0.12397 0.0
C1852 C 0.97049 0.83601 0.10645 0.0
C1853 C 0.95384 0.8211 0.12905 0.0
C1854 C 0.95777 0.83124 0.09417 0.0
C1855 C 0.94317 0.8217 0.09917 0.0
H1856 H 0.60707 0.96066 0.82435 0.0
H1857 H 0.65652 0.95792 0.85101 0.0
H1858 H 0.66822 0.93956 0.82797 0.0
H1859 H 0.66463 0.92448 0.80019 0.0
H1860 H 0.61495 0.92566 0.77397 0.0
H1861 H 0.60311 0.9444 0.79688 0.0
C1862 C 0.62039 0.95601 0.82508 0.0
C1863 C 0.63091 0.96068 0.83933 0.0
C1864 C 0.62701 0.94521 0.81188 0.0
C1865 C 0.64811 0.95445 0.84022 0.0
C1866 C 0.65485 0.94399 0.82703 0.0
C1867 C 0.65123 0.92888 0.79947 0.0
C1868 C 0.64072 0.92383 0.78539 0.0
C1869 C 0.64445 0.93934 0.81279 0.0
C1870 C 0.6233 0.92939 0.78473 0.0
C1871 C 0.61653 0.94012 0.79779 0.0
H1872 H 0.83547 0.91892 0.55111 0.0
H1873 H 0.83751 0.86819 0.52705 0.0
H1874 H 0.81881 0.85635 0.55 0.0
H1875 H 0.80172 0.86059 0.57692 0.0
H1876 H 0.80102 0.91128 0.60126 0.0
H1877 H 0.81934 0.92293 0.57817 0.0
C1878 C 0.83179 0.90528 0.55085 0.0
C1879 C 0.83777 0.89447 0.53737 0.0
C1880 C 0.82128 0.89855 0.56415 0.0
C1881 C 0.83308 0.87677 0.53733 0.0
C1882 C 0.82237 0.87001 0.55042 0.0
C1883 C 0.80558 0.87417 0.57713 0.0
C1884 C 0.79999 0.88504 0.59076 0.0
C1885 C 0.81636 0.88079 0.56389 0.0
C1886 C 0.80521 0.9026 0.59096 0.0
C1887 C 0.81565 0.90931 0.57774 0.0
H1888 H 0.89824 0.05592 0.3276 0.0
H1889 H 0.84793 0.05911 0.35256 0.0
H1890 H 0.8371 0.07724 0.32896 0.0
H1891 H 0.84145 0.09156 0.30102 0.0
H1892 H 0.89161 0.08939 0.27584 0.0
H1893 H 0.90298 0.07159 0.29981 0.0
C1894 C 0.88492 0.06062 0.32787 0.0
C1895 C 0.87391 0.05607 0.34181 0.0
C1896 C 0.87873 0.07121 0.31424 0.0
C1897 C 0.85672 0.06239 0.34203 0.0
C1898 C 0.85047 0.07275 0.32851 0.0
C1899 C 0.85489 0.08722 0.30074 0.0
C1900 C 0.86562 0.09167 0.28661 0.0
C1901 C 0.86131 0.07714 0.31452 0.0
C1902 C 0.88307 0.08613 0.28659 0.0
C1903 C 0.88955 0.07592 0.30025 0.0
H1904 H 0.67488 0.1387 0.03219 0.0
H1905 H 0.67711 0.08532 0.04971 0.0
H1906 H 0.69684 0.09358 0.0732 0.0
H1907 H 0.71385 0.11579 0.08849 0.0
H1908 H 0.71289 0.16898 0.07033 0.0
H1909 H 0.6923 0.16098 0.04738 0.0
C1910 C 0.67962 0.12892 0.04122 0.0
C1911 C 0.67451 0.11144 0.03923 0.0
C1912 C 0.69123 0.1337 0.05454 0.0
C1913 C 0.6809 0.09886 0.05091 0.0
C1914 C 0.69217 0.10356 0.06437 0.0
C1915 C 0.70909 0.12565 0.07956 0.0
C1916 C 0.71486 0.14295 0.08115 0.0
C1917 C 0.69748 0.12092 0.06626 0.0
C1918 C 0.70869 0.15555 0.06936 0.0
C1919 C 0.69689 0.15099 0.05625 0.0
H1920 H 0.64758 0.04476 0.66594 0.0
H1921 H 0.59473 0.04662 0.68485 0.0
H1922 H 0.60386 0.06548 0.70891 0.0
H1923 H 0.62717 0.08118 0.72487 0.0
H1924 H 0.68006 0.07783 0.7061 0.0
H1925 H 0.67057 0.05992 0.68175 0.0
C1926 C 0.63801 0.04932 0.67527 0.0
C1927 C 0.62049 0.04431 0.67354 0.0
C1928 C 0.64338 0.05993 0.68916 0.0
C1929 C 0.60832 0.05025 0.68587 0.0
C1930 C 0.61353 0.06106 0.69963 0.0
C1931 C 0.63657 0.07658 0.71539 0.0
C1932 C 0.6543 0.08086 0.71734 0.0
C1933 C 0.63106 0.06596 0.70144 0.0
C1934 C 0.66635 0.07468 0.70501 0.0
C1935 C 0.66094 0.06444 0.69103 0.0
H1936 H 0.71113 0.84798 0.43787 0.0
H1937 H 0.71807 0.89736 0.41184 0.0
H1938 H 0.69972 0.91161 0.43333 0.0
H1939 H 0.68187 0.91036 0.45955 0.0
H1940 H 0.6734 0.86117 0.48534 0.0
H1941 H 0.69202 0.84657 0.46393 0.0
C1942 C 0.70861 0.86184 0.43695 0.0
C1943 C 0.71602 0.87156 0.42326 0.0
C1944 C 0.69773 0.87002 0.44929 0.0
C1945 C 0.7125 0.88952 0.42216 0.0
C1946 C 0.70202 0.89772 0.43448 0.0
C1947 C 0.68409 0.89644 0.46052 0.0
C1948 C 0.67634 0.8869 0.47408 0.0
C1949 C 0.69459 0.88814 0.44809 0.0
C1950 C 0.67919 0.86882 0.475 0.0
C1951 C 0.68988 0.86048 0.46279 0.0
H1952 H 0.90941 0.95749 0.18932 0.0
H1953 H 0.85785 0.96136 0.16713 0.0
H1954 H 0.84618 0.94332 0.19032 0.0
H1955 H 0.85026 0.92636 0.21665 0.0
H1956 H 0.90145 0.92098 0.23915 0.0
H1957 H 0.9136 0.93951 0.21608 0.0
C1958 C 0.89563 0.95441 0.18965 0.0
C1959 C 0.88454 0.96079 0.17648 0.0
C1960 C 0.88892 0.94368 0.20302 0.0
C1961 C 0.86673 0.95657 0.17701 0.0
C1962 C 0.85999 0.94625 0.19029 0.0
C1963 C 0.8641 0.92922 0.21658 0.0
C1964 C 0.8749 0.92234 0.22966 0.0
C1965 C 0.87094 0.9397 0.20331 0.0
C1966 C 0.89283 0.92608 0.22921 0.0
C1967 C 0.89977 0.93672 0.21605 0.0
H1968 H 0.83455 0.13101 0.97691 0.0
H1969 H 0.83388 0.0784 0.95714 0.0
H1970 H 0.81575 0.08763 0.93266 0.0
H1971 H 0.79978 0.11055 0.91703 0.0
H1972 H 0.79904 0.16282 0.93765 0.0
H1973 H 0.81806 0.15383 0.96159 0.0
C1974 C 0.83049 0.12158 0.96721 0.0
C1975 C 0.83561 0.10405 0.96882 0.0
C1976 C 0.8198 0.12692 0.95331 0.0
C1977 C 0.83007 0.09196 0.95624 0.0
C1978 C 0.81973 0.09723 0.94221 0.0
C1979 C 0.80387 0.12 0.9267 0.0
C1980 C 0.79809 0.13735 0.9255 0.0
C1981 C 0.8145 0.11466 0.94063 0.0
C1982 C 0.8033 0.14938 0.93828 0.0
C1983 C 0.81418 0.14426 0.95197 0.0
H1984 H 0.78214 0.62634 0.92893 0.0
H1985 H 0.80182 0.67904 0.92972 0.0
H1986 H 0.82681 0.66975 0.94679 0.0
H1987 H 0.84295 0.64703 0.96186 0.0
H1988 H 0.82332 0.59438 0.96257 0.0
H1989 H 0.79849 0.60328 0.94458 0.0
C1990 C 0.79194 0.63574 0.93281 0.0
C1991 C 0.79008 0.65336 0.92806 0.0
C1992 C 0.80629 0.63035 0.94291 0.0
C1993 C 0.80284 0.66542 0.93328 0.0
C1994 C 0.81719 0.66013 0.94302 0.0
C1995 C 0.83331 0.63744 0.95802 0.0
C1996 C 0.83503 0.62006 0.96349 0.0
C1997 C 0.81902 0.64268 0.94796 0.0
C1998 C 0.82229 0.60787 0.95854 0.0
C1999 C 0.8081 0.61294 0.94824 0.0
H2000 H 0.28129 0.8767 0.08492 0.0
H2001 H 0.30295 0.82497 0.08895 0.0
H2002 H 0.32824 0.83396 0.0721 0.0
H2003 H 0.34381 0.856 0.05543 0.0
H2004 H 0.32197 0.90745 0.04967 0.0
H2005 H 0.2972 0.89911 0.06796 0.0
C2006 C 0.29162 0.86748 0.08219 0.0
C2007 C 0.29023 0.8502 0.08816 0.0
C2008 C 0.30607 0.87264 0.07213 0.0
C2009 C 0.30364 0.83832 0.08441 0.0
C2010 C 0.31814 0.84344 0.07479 0.0
C2011 C 0.33371 0.86546 0.05825 0.0
C2012 C 0.33477 0.88233 0.05123 0.0
C2013 C 0.31942 0.86049 0.06846 0.0
C2014 C 0.32146 0.89435 0.05489 0.0
C2015 C 0.30729 0.88959 0.06536 0.0
H2016 H 0.91415 0.54942 0.83508 0.0
H2017 H 0.8648 0.52298 0.83967 0.0
H2018 H 0.85112 0.54503 0.82105 0.0
H2019 H 0.85341 0.57187 0.80308 0.0
H2020 H 0.90301 0.59817 0.79977 0.0
H2021 H 0.9163 0.5761 0.81814 0.0
C2022 C 0.90039 0.54844 0.83205 0.0
C2023 C 0.89055 0.53453 0.83872 0.0
C2024 C 0.89263 0.56115 0.82147 0.0
C2025 C 0.87269 0.53359 0.83475 0.0
C2026 C 0.86486 0.54616 0.82404 0.0
C2027 C 0.86712 0.57269 0.80637 0.0
C2028 C 0.87717 0.58666 0.80002 0.0
C2029 C 0.87474 0.55999 0.81724 0.0
C2030 C 0.89491 0.58764 0.80452 0.0
C2031 C 0.90257 0.57499 0.81502 0.0
H2032 H 0.18478 0.09878 0.5545 0.0
H2033 H 0.1589 0.1487 0.5543 0.0
H2034 H 0.18101 0.1605 0.57378 0.0
H2035 H 0.20825 0.15709 0.58995 0.0
H2036 H 0.2338 0.10708 0.59138 0.0
H2037 H 0.2112 0.09483 0.57248 0.0
C2038 C 0.18397 0.11222 0.55878 0.0
C2039 C 0.17027 0.12286 0.55285 0.0
C2040 C 0.19666 0.11891 0.5702 0.0
C2041 C 0.16928 0.1402 0.55867 0.0
C2042 C 0.18195 0.14699 0.56978 0.0
C2043 C 0.20884 0.14349 0.58619 0.0
C2044 C 0.22274 0.13305 0.59193 0.0
C2045 C 0.19577 0.13653 0.57548 0.0
C2046 C 0.22321 0.11539 0.58714 0.0
C2047 C 0.21033 0.1084 0.57628 0.0
H2048 H 0.11279 0.91658 0.79923 0.0
H2049 H 0.16432 0.93848 0.79445 0.0
H2050 H 0.15603 0.96247 0.81379 0.0
H2051 H 0.13395 0.97725 0.83206 0.0
H2052 H 0.08221 0.95551 0.83548 0.0
H2053 H 0.09083 0.93141 0.81672 0.0
C2054 C 0.12227 0.92656 0.80243 0.0
C2055 C 0.13919 0.92567 0.79546 0.0
C2056 C 0.11737 0.94036 0.81335 0.0
C2057 C 0.1512 0.93885 0.79962 0.0
C2058 C 0.14648 0.95255 0.81071 0.0
C2059 C 0.12461 0.96718 0.82875 0.0
C2060 C 0.10747 0.96816 0.83523 0.0
C2061 C 0.12958 0.95343 0.81767 0.0
C2062 C 0.09546 0.95512 0.83066 0.0
C2063 C 0.10038 0.94131 0.81994 0.0
H2064 H 0.68606 0.40647 0.45662 0.0
H2065 H 0.66155 0.35621 0.46259 0.0
H2066 H 0.6837 0.34287 0.44434 0.0
H2067 H 0.70968 0.34527 0.42636 0.0
H2068 H 0.73418 0.39531 0.41906 0.0
H2069 H 0.71239 0.4089 0.43796 0.0
C2070 C 0.68568 0.3926 0.45398 0.0
C2071 C 0.67217 0.38237 0.46097 0.0
C2072 C 0.69838 0.38495 0.44313 0.0
C2073 C 0.67174 0.36442 0.45731 0.0
C2074 C 0.68441 0.35674 0.44687 0.0
C2075 C 0.71029 0.35916 0.42887 0.0
C2076 C 0.72357 0.36922 0.4213 0.0
C2077 C 0.69771 0.36688 0.43963 0.0
C2078 C 0.72406 0.38724 0.42466 0.0
C2079 C 0.71163 0.39502 0.43553 0.0
H2080 H 0.87841 0.48201 0.67874 0.0
H2081 H 0.93082 0.46162 0.67803 0.0
H2082 H 0.9217 0.43678 0.69542 0.0
H2083 H 0.89913 0.42076 0.71083 0.0
H2084 H 0.84677 0.44099 0.7129 0.0
H2085 H 0.85559 0.46597 0.69506 0.0
C2086 C 0.88779 0.4721 0.68238 0.0
C2087 C 0.90527 0.47369 0.67705 0.0
C2088 C 0.8825 0.45783 0.69265 0.0
C2089 C 0.91731 0.4608 0.68199 0.0
C2090 C 0.91211 0.44654 0.69193 0.0
C2091 C 0.88959 0.4306 0.70737 0.0
C2092 C 0.87229 0.42895 0.71311 0.0
C2093 C 0.89478 0.44493 0.69732 0.0
C2094 C 0.86018 0.44194 0.70865 0.0
C2095 C 0.86521 0.45621 0.69842 0.0
H2096 H 0.64888 0.57512 0.20344 0.0
H2097 H 0.60009 0.60306 0.2021 0.0
H2098 H 0.58727 0.58028 0.18413 0.0
H2099 H 0.58948 0.55205 0.16954 0.0
H2100 H 0.63828 0.52424 0.16983 0.0
H2101 H 0.65153 0.54736 0.18736 0.0
C2102 C 0.63546 0.57625 0.19916 0.0
C2103 C 0.62546 0.59077 0.20421 0.0
C2104 C 0.62815 0.56311 0.18866 0.0
C2105 C 0.60813 0.59207 0.19841 0.0
C2106 C 0.60074 0.57901 0.18816 0.0
C2107 C 0.60303 0.55104 0.17341 0.0
C2108 C 0.61283 0.53637 0.1685 0.0
C2109 C 0.61057 0.56441 0.18333 0.0
C2110 C 0.63044 0.53539 0.17343 0.0
C2111 C 0.638 0.54859 0.1835 0.0
H2112 H 0.58543 0.70768 0.84549 0.0
H2113 H 0.58815 0.7333 0.8954 0.0
H2114 H 0.57032 0.71017 0.90838 0.0
H2115 H 0.55288 0.68328 0.905 0.0
H2116 H 0.5514 0.65764 0.85493 0.0
H2117 H 0.56989 0.6802 0.84256 0.0
C2118 C 0.58216 0.7082 0.85923 0.0
C2119 C 0.58789 0.72223 0.86945 0.0
C2120 C 0.5721 0.69488 0.86654 0.0
C2121 C 0.58383 0.72259 0.88729 0.0
C2122 C 0.5736 0.70943 0.89467 0.0
C2123 C 0.55667 0.68263 0.89141 0.0
C2124 C 0.55067 0.66888 0.88088 0.0
C2125 C 0.56748 0.69561 0.88435 0.0
C2126 C 0.55584 0.66807 0.86334 0.0
C2127 C 0.56638 0.68099 0.85621 0.0
H2128 H 0.54585 0.33505 0.08737 0.0
H2129 H 0.52148 0.33611 0.13797 0.0
H2130 H 0.54572 0.31931 0.1502 0.0
H2131 H 0.57391 0.30412 0.14628 0.0
H2132 H 0.59835 0.30465 0.09561 0.0
H2133 H 0.57403 0.32104 0.0837 0.0
C2134 C 0.54579 0.33156 0.10107 0.0
C2135 C 0.53184 0.33668 0.11172 0.0
C2136 C 0.55982 0.32221 0.10802 0.0
C2137 C 0.53209 0.33229 0.1295 0.0
C2138 C 0.54593 0.32268 0.13648 0.0
C2139 C 0.57389 0.30786 0.13265 0.0
C2140 C 0.58793 0.30313 0.12187 0.0
C2141 C 0.55988 0.31754 0.12585 0.0
C2142 C 0.58777 0.30817 0.10425 0.0
C2143 C 0.57384 0.31751 0.09737 0.0
H2144 H 0.9588 0.34211 0.36467 0.0
H2145 H 0.95961 0.32117 0.41683 0.0
H2146 H 0.94155 0.2966 0.40733 0.0
H2147 H 0.92535 0.2812 0.38406 0.0
H2148 H 0.92598 0.30195 0.33178 0.0
H2149 H 0.94365 0.32646 0.3415 0.0
C2150 C 0.95501 0.33221 0.37402 0.0
C2151 C 0.96045 0.33356 0.39148 0.0
C2152 C 0.94487 0.31807 0.36842 0.0
C2153 C 0.9556 0.32046 0.40332 0.0
C2154 C 0.94525 0.30643 0.39789 0.0
C2155 C 0.92934 0.29111 0.37482 0.0
C2156 C 0.92427 0.28976 0.35721 0.0
C2157 C 0.93977 0.30512 0.38046 0.0
C2158 C 0.92971 0.30262 0.34537 0.0
C2159 C 0.9398 0.31668 0.35093 0.0
H2160 H 0.97422 0.67605 0.62919 0.0
H2161 H 0.95388 0.67425 0.57676 0.0
H2162 H 0.92775 0.68952 0.58604 0.0
H2163 H 0.91113 0.70438 0.60855 0.0
H2164 H 0.93163 0.70801 0.66077 0.0
H2165 H 0.95715 0.69097 0.65211 0.0
C2166 C 0.96401 0.67893 0.61986 0.0
C2167 C 0.96603 0.67408 0.60231 0.0
C2168 C 0.94905 0.68806 0.62522 0.0
C2169 C 0.95274 0.67798 0.59032 0.0
C2170 C 0.93774 0.68668 0.59561 0.0
C2171 C 0.92108 0.70131 0.61811 0.0
C2172 C 0.91945 0.7074 0.63528 0.0
C2173 C 0.93583 0.69191 0.61296 0.0
C2174 C 0.93258 0.70347 0.64744 0.0
C2175 C 0.94718 0.69375 0.6425 0.0
H2176 H 0.55759 0.34205 0.6469 0.0
H2177 H 0.5506 0.32122 0.59517 0.0
H2178 H 0.57026 0.29712 0.60204 0.0
H2179 H 0.58861 0.28118 0.6233 0.0
H2180 H 0.59428 0.30179 0.6753 0.0
H2181 H 0.57617 0.32668 0.66771 0.0
C2182 C 0.56043 0.33231 0.63707 0.0
C2183 C 0.55257 0.33348 0.62055 0.0
C2184 C 0.57156 0.31836 0.64117 0.0
C2185 C 0.55639 0.32065 0.60802 0.0
C2186 C 0.56766 0.30685 0.61193 0.0
C2187 C 0.58601 0.29122 0.63288 0.0
C2188 C 0.59278 0.28957 0.64985 0.0
C2189 C 0.57522 0.30546 0.62853 0.0
C2190 C 0.58916 0.30264 0.66217 0.0
C2191 C 0.57879 0.31692 0.65786 0.0
H2192 H 0.97738 0.33328 0.87114 0.0
H2193 H 0.96252 0.33017 0.92528 0.0
H2194 H 0.93768 0.3119 0.91763 0.0
H2195 H 0.92035 0.29644 0.8957 0.0
H2196 H 0.93581 0.29833 0.8417 0.0
H2197 H 0.96017 0.31742 0.84916 0.0
C2198 C 0.96866 0.32865 0.88125 0.0
C2199 C 0.97181 0.33312 0.89875 0.0
C2200 C 0.9545 0.3179 0.8768 0.0
C2201 C 0.96046 0.32688 0.91171 0.0
C2202 C 0.94622 0.31645 0.90735 0.0
C2203 C 0.92899 0.30109 0.88554 0.0
C2204 C 0.92622 0.296 0.86816 0.0
C2205 C 0.94314 0.31183 0.88996 0.0
C2206 C 0.93767 0.30201 0.85519 0.0
C2207 C 0.9516 0.31295 0.85944 0.0
H2208 H 0.95309 0.68279 0.11448 0.0
H2209 H 0.95067 0.658 0.16492 0.0
H2210 H 0.93286 0.68177 0.17601 0.0
H2211 H 0.91839 0.70985 0.17169 0.0
H2212 H 0.91966 0.73436 0.12111 0.0
H2213 H 0.93741 0.71046 0.10979 0.0
C2214 C 0.94863 0.68259 0.12788 0.0
C2215 C 0.95328 0.66865 0.13885 0.0
C2216 C 0.93819 0.69626 0.13418 0.0
C2217 C 0.94727 0.66852 0.15616 0.0
C2218 C 0.9371 0.68215 0.16255 0.0
C2219 C 0.92255 0.70998 0.15819 0.0
C2220 C 0.9178 0.72392 0.1473 0.0
C2221 C 0.93257 0.69612 0.15172 0.0
C2222 C 0.92312 0.72377 0.12978 0.0
C2223 C 0.93331 0.71013 0.1233 0.0
H2224 H 0.55021 0.67189 0.41202 0.0
H2225 H 0.5202 0.67355 0.36453 0.0
H2226 H 0.54204 0.6926 0.3512 0.0
H2227 H 0.56953 0.70935 0.35334 0.0
H2228 H 0.59976 0.70635 0.4007 0.0
H2229 H 0.57801 0.68732 0.4137 0.0
C2230 C 0.54844 0.6764 0.39874 0.0
C2231 C 0.53354 0.67139 0.38934 0.0
C2232 C 0.5611 0.68716 0.39112 0.0
C2233 C 0.53156 0.67719 0.37207 0.0
C2234 C 0.54402 0.68813 0.36445 0.0
C2235 C 0.57134 0.70451 0.36649 0.0
C2236 C 0.58625 0.70935 0.37602 0.0
C2237 C 0.55882 0.6933 0.37389 0.0
C2238 C 0.58846 0.70282 0.39301 0.0
C2239 C 0.576 0.69195 0.40051 0.0
H2240 H 0.88856 0.58714 0.73252 0.0
H2241 H 0.83778 0.59244 0.70898 0.0
H2242 H 0.84705 0.57489 0.68427 0.0
H2243 H 0.86892 0.55696 0.66985 0.0
H2244 H 0.91942 0.55005 0.6935 0.0
H2245 H 0.91095 0.56922 0.71755 0.0
C2246 C 0.87963 0.58458 0.72188 0.0
C2247 C 0.86249 0.59109 0.72263 0.0
C2248 C 0.88494 0.57407 0.70775 0.0
C2249 C 0.851 0.58752 0.70881 0.0
C2250 C 0.85628 0.57747 0.69464 0.0
C2251 C 0.87815 0.5597 0.68019 0.0
C2252 C 0.89479 0.55204 0.67983 0.0
C2253 C 0.87312 0.5705 0.69407 0.0
C2254 C 0.90651 0.55572 0.69344 0.0
C2255 C 0.90167 0.5667 0.70721 0.0
H2256 H 0.70762 0.61604 0.92086 0.0
H2257 H 0.71213 0.66729 0.94349 0.0
H2258 H 0.69229 0.65885 0.96692 0.0
H2259 H 0.67405 0.63666 0.98137 0.0
H2260 H 0.67062 0.58512 0.95921 0.0
H2261 H 0.68955 0.59395 0.93526 0.0
C2262 C 0.70422 0.62541 0.93086 0.0
C2263 C 0.71137 0.6423 0.93035 0.0
C2264 C 0.69297 0.6204 0.94444 0.0
C2265 C 0.70688 0.65419 0.94354 0.0
C2266 C 0.6955 0.64938 0.95695 0.0
C2267 C 0.67736 0.62739 0.97125 0.0
C2268 C 0.67086 0.61025 0.97212 0.0
C2269 C 0.68852 0.63249 0.95759 0.0
C2270 C 0.67544 0.59838 0.95894 0.0
C2271 C 0.68628 0.60342 0.9452 0.0
H2272 H 0.61973 0.42385 0.22906 0.0
H2273 H 0.67164 0.41882 0.20816 0.0
H2274 H 0.66353 0.43653 0.18306 0.0
H2275 H 0.64203 0.45396 0.1673 0.0
H2276 H 0.59053 0.46072 0.18864 0.0
H2277 H 0.59812 0.4419 0.21328 0.0
C2278 C 0.6292 0.42655 0.21894 0.0
C2279 C 0.64626 0.41997 0.22046 0.0
C2280 C 0.62455 0.43713 0.20465 0.0
C2281 C 0.65846 0.42377 0.20735 0.0
C2282 C 0.65383 0.43389 0.19297 0.0
C2283 C 0.63241 0.45127 0.17728 0.0
C2284 C 0.61571 0.45869 0.17607 0.0
C2285 C 0.63696 0.44072 0.19153 0.0
C2286 C 0.60349 0.4552 0.18926 0.0
C2287 C 0.60782 0.44441 0.20334 0.0
H2288 H 0.80249 0.39925 0.41724 0.0
H2289 H 0.79873 0.34714 0.43792 0.0
H2290 H 0.81623 0.35573 0.46321 0.0
H2291 H 0.8319 0.37851 0.47993 0.0
H2292 H 0.83358 0.43093 0.45965 0.0
H2293 H 0.81768 0.42176 0.43378 0.0
C2294 C 0.80562 0.38971 0.4272 0.0
C2295 C 0.7994 0.37257 0.42565 0.0
C2296 C 0.81527 0.39484 0.44185 0.0
C2297 C 0.80336 0.36044 0.43881 0.0
C2298 C 0.81337 0.36535 0.45327 0.0
C2299 C 0.82885 0.38786 0.46978 0.0
C2300 C 0.83391 0.40537 0.47172 0.0
C2301 C 0.81929 0.38257 0.45501 0.0
C2302 C 0.82973 0.41739 0.45855 0.0
C2303 C 0.82067 0.41216 0.4437 0.0
H2304 H 0.88494 0.42372 0.78012 0.0
H2305 H 0.83427 0.41528 0.8029 0.0
H2306 H 0.8425 0.4326 0.82822 0.0
H2307 H 0.86355 0.45101 0.84338 0.0
H2308 H 0.91375 0.46097 0.82019 0.0
H2309 H 0.90626 0.44219 0.79556 0.0
C2310 C 0.87579 0.42556 0.79071 0.0
C2311 C 0.85904 0.41823 0.78965 0.0
C2312 C 0.88047 0.43588 0.8051 0.0
C2313 C 0.84722 0.42086 0.80338 0.0
C2314 C 0.85191 0.43075 0.81787 0.0
C2315 C 0.87292 0.449 0.833 0.0
C2316 C 0.88919 0.45736 0.83363 0.0
C2317 C 0.86842 0.43846 0.81878 0.0
C2318 C 0.90111 0.45472 0.81999 0.0
C2319 C 0.89684 0.44397 0.80591 0.0
H2320 H 0.80343 0.6098 0.09082 0.0
H2321 H 0.79983 0.66219 0.07073 0.0
H2322 H 0.81939 0.65448 0.04677 0.0
H2323 H 0.83728 0.63263 0.03136 0.0
H2324 H 0.83973 0.58008 0.05129 0.0
H2325 H 0.82089 0.58814 0.07551 0.0
C2326 C 0.80694 0.61959 0.08125 0.0
C2327 C 0.8002 0.63657 0.08261 0.0
C2328 C 0.818 0.61503 0.06746 0.0
C2329 C 0.80481 0.64901 0.06999 0.0
C2330 C 0.81601 0.64462 0.05629 0.0
C2331 C 0.83375 0.62298 0.04106 0.0
C2332 C 0.83993 0.60579 0.03952 0.0
C2333 C 0.82267 0.62764 0.05489 0.0
C2334 C 0.83512 0.59339 0.05212 0.0
C2335 C 0.82435 0.59798 0.066 0.0
H2336 H 0.6633 0.58741 0.29426 0.0
H2337 H 0.61241 0.59045 0.27062 0.0
H2338 H 0.60025 0.57269 0.2941 0.0
H2339 H 0.60428 0.55573 0.321 0.0
H2340 H 0.65499 0.55383 0.34522 0.0
H2341 H 0.66699 0.57182 0.32192 0.0
C2342 C 0.64956 0.58416 0.29424 0.0
C2343 C 0.6388 0.59009 0.28066 0.0
C2344 C 0.64262 0.57419 0.3079 0.0
C2345 C 0.62096 0.58602 0.28094 0.0
C2346 C 0.61401 0.57585 0.29434 0.0
C2347 C 0.61794 0.55931 0.3212 0.0
C2348 C 0.62874 0.55338 0.33477 0.0
C2349 C 0.62474 0.56979 0.30784 0.0
C2350 C 0.64638 0.55826 0.33495 0.0
C2351 C 0.65328 0.56849 0.32159 0.0
H2352 H 0.67157 0.37338 0.52915 0.0
H2353 H 0.65545 0.42163 0.55293 0.0
H2354 H 0.67161 0.41447 0.57929 0.0
H2355 H 0.69231 0.39595 0.59456 0.0
H2356 H 0.7101 0.3483 0.57067 0.0
H2357 H 0.69134 0.35371 0.54549 0.0
C2358 C 0.67139 0.3821 0.54026 0.0
C2359 C 0.66243 0.39801 0.53914 0.0
C2360 C 0.68119 0.37814 0.55527 0.0
C2361 C 0.66239 0.40935 0.5535 0.0
C2362 C 0.67164 0.4053 0.56856 0.0
C2363 C 0.692 0.38664 0.58393 0.0
C2364 C 0.70271 0.37184 0.58446 0.0
C2365 C 0.68144 0.38996 0.56942 0.0
C2366 C 0.70207 0.35989 0.57057 0.0
C2367 C 0.69134 0.36297 0.55614 0.0
H2368 H 0.7098 0.84906 0.5912 0.0
H2369 H 0.73458 0.89949 0.59216 0.0
H2370 H 0.71253 0.91088 0.57214 0.0
H2371 H 0.68684 0.9061 0.55338 0.0
H2372 H 0.66162 0.85584 0.55355 0.0
H2373 H 0.6832 0.84483 0.5741 0.0
C2374 C 0.71034 0.86257 0.58709 0.0
C2375 C 0.72388 0.87337 0.59305 0.0
C2376 C 0.69758 0.86905 0.57571 0.0
C2377 C 0.72427 0.89091 0.58778 0.0
C2378 C 0.71171 0.89741 0.57627 0.0
C2379 C 0.68606 0.89275 0.55795 0.0
C2380 C 0.67272 0.88177 0.55183 0.0
C2381 C 0.69842 0.88654 0.56999 0.0
C2382 C 0.67175 0.86458 0.55805 0.0
C2383 C 0.68411 0.85824 0.56978 0.0
H2384 H 0.22868 0.62815 0.42135 0.0
H2385 H 0.21266 0.68199 0.42354 0.0
H2386 H 0.18723 0.67391 0.44082 0.0
H2387 H 0.16977 0.65161 0.45574 0.0
H2388 H 0.18655 0.59799 0.4547 0.0
H2389 H 0.21137 0.60591 0.43647 0.0
C2390 C 0.21961 0.63812 0.42557 0.0
C2391 C 0.22258 0.65565 0.42114 0.0
C2392 C 0.20512 0.63341 0.43569 0.0
C2393 C 0.21074 0.66841 0.42682 0.0
C2394 C 0.19616 0.66379 0.43667 0.0
C2395 C 0.17879 0.64165 0.4514 0.0
C2396 C 0.17628 0.62423 0.4565 0.0
C2397 C 0.19324 0.64634 0.44122 0.0
C2398 C 0.1882 0.6115 0.45097 0.0
C2399 C 0.2024 0.61601 0.44055 0.0
H2400 H 0.60566 0.91662 0.70641 0.0
H2401 H 0.65923 0.93362 0.70673 0.0
H2402 H 0.65201 0.9575 0.68701 0.0
H2403 H 0.63033 0.97414 0.67041 0.0
H2404 H 0.5765 0.95799 0.67118 0.0
H2405 H 0.58398 0.93323 0.6897 0.0
C2406 C 0.61577 0.92547 0.70205 0.0
C2407 C 0.63295 0.92333 0.70801 0.0
C2408 C 0.61147 0.93939 0.69096 0.0
C2409 C 0.64588 0.93501 0.70238 0.0
C2410 C 0.64177 0.94867 0.69109 0.0
C2411 C 0.62025 0.96515 0.67455 0.0
C2412 C 0.60289 0.96792 0.66941 0.0
C2413 C 0.62459 0.95108 0.68542 0.0
C2414 C 0.58996 0.95621 0.675 0.0
C2415 C 0.59422 0.94203 0.68558 0.0
H2416 H 0.33944 0.3691 0.95742 0.0
H2417 H 0.3153 0.41966 0.96195 0.0
H2418 H 0.2926 0.41081 0.94139 0.0
H2419 H 0.27934 0.38844 0.92246 0.0
H2420 H 0.30318 0.33764 0.91905 0.0
H2421 H 0.32629 0.34692 0.93876 0.0
C2422 C 0.32926 0.37824 0.95389 0.0
C2423 C 0.32911 0.39503 0.96121 0.0
C2424 C 0.31618 0.37302 0.94223 0.0
C2425 C 0.31572 0.40663 0.95655 0.0
C2426 C 0.30275 0.40159 0.94476 0.0
C2427 C 0.28966 0.37945 0.92595 0.0
C2428 C 0.28953 0.36238 0.91925 0.0
C2429 C 0.30282 0.38479 0.93755 0.0
C2430 C 0.30292 0.35083 0.92404 0.0
C2431 C 0.31616 0.35612 0.93531 0.0
H2432 H 0.41802 0.54951 0.6794 0.0
H2433 H 0.36753 0.52608 0.67184 0.0
H2434 H 0.3542 0.54868 0.69001 0.0
H2435 H 0.35715 0.57489 0.70866 0.0
H2436 H 0.40786 0.59842 0.71489 0.0
H2437 H 0.42079 0.57599 0.69666 0.0
C2438 C 0.40408 0.54932 0.68171 0.0
C2439 C 0.3938 0.53606 0.67438 0.0
C2440 C 0.39654 0.56239 0.69198 0.0
C2441 C 0.37574 0.53616 0.67732 0.0
C2442 C 0.36812 0.54905 0.68776 0.0
C2443 C 0.37102 0.57509 0.706 0.0
C2444 C 0.38151 0.5883 0.71321 0.0
C2445 C 0.37842 0.56219 0.69526 0.0
C2446 C 0.39944 0.58846 0.70951 0.0
C2447 C 0.40689 0.57561 0.69909 0.0
H2448 H 0.78445 0.12809 0.08264 0.0
H2449 H 0.80409 0.18066 0.07907 0.0
H2450 H 0.82798 0.1707 0.06066 0.0
H2451 H 0.84307 0.14721 0.04525 0.0
H2452 H 0.82289 0.09479 0.04775 0.0
H2453 H 0.79945 0.10455 0.06693 0.0
C2454 C 0.79399 0.13735 0.07789 0.0
C2455 C 0.7925 0.15509 0.08226 0.0
C2456 C 0.80759 0.13157 0.0671 0.0
C2457 C 0.8049 0.16695 0.07587 0.0
C2458 C 0.81859 0.16126 0.06536 0.0
C2459 C 0.8336 0.13789 0.05005 0.0
C2460 C 0.83477 0.12029 0.04512 0.0
C2461 C 0.82003 0.14363 0.06085 0.0
C2462 C 0.82228 0.10842 0.05132 0.0
C2463 C 0.80888 0.11399 0.0623 0.0
H2464 H 0.60199 0.05095 0.83476 0.0
H2465 H 0.65129 0.02502 0.84198 0.0
H2466 H 0.665 0.04515 0.8213 0.0
H2467 H 0.66259 0.06977 0.80036 0.0
H2468 H 0.61292 0.09545 0.79423 0.0
H2469 H 0.5998 0.07569 0.81515 0.0
C2470 C 0.61577 0.0497 0.83189 0.0
C2471 C 0.62557 0.03645 0.83985 0.0
C2472 C 0.6235 0.06123 0.82005 0.0
C2473 C 0.64345 0.03515 0.83608 0.0
C2474 C 0.65127 0.0466 0.82418 0.0
C2475 C 0.64891 0.07098 0.8036 0.0
C2476 C 0.63877 0.08405 0.79566 0.0
C2477 C 0.64137 0.05961 0.81592 0.0
C2478 C 0.62107 0.08556 0.80014 0.0
C2479 C 0.61351 0.07425 0.81212 0.0
H2480 H 0.91164 0.96588 0.34428 0.0
H2481 H 0.86032 0.98864 0.34284 0.0
H2482 H 0.85012 0.9649 0.32413 0.0
H2483 H 0.85609 0.93791 0.30759 0.0
H2484 H 0.90726 0.9148 0.31043 0.0
H2485 H 0.91717 0.9384 0.32917 0.0
C2486 C 0.89822 0.96565 0.33989 0.0
C2487 C 0.8868 0.97906 0.34484 0.0
C2488 C 0.89241 0.95189 0.32935 0.0
C2489 C 0.86938 0.97845 0.33923 0.0
C2490 C 0.86355 0.96491 0.32849 0.0
C2491 C 0.86939 0.93805 0.31234 0.0
C2492 C 0.88092 0.92464 0.30753 0.0
C2493 C 0.87499 0.9516 0.32337 0.0
C2494 C 0.89808 0.92492 0.31394 0.0
C2495 C 0.9038 0.93844 0.32464 0.0
H2496 H 0.45081 0.34163 0.14498 0.0
H2497 H 0.45368 0.32246 0.09222 0.0
H2498 H 0.4346 0.29816 0.09978 0.0
H2499 H 0.41778 0.28174 0.12162 0.0
H2500 H 0.41621 0.30012 0.17472 0.0
H2501 H 0.43399 0.32525 0.16678 0.0
C2502 C 0.44715 0.33221 0.13511 0.0
C2503 C 0.45365 0.33391 0.11805 0.0
C2504 C 0.43643 0.31804 0.13962 0.0
C2505 C 0.44892 0.32146 0.10547 0.0
C2506 C 0.43798 0.30754 0.10977 0.0
C2507 C 0.42124 0.29131 0.13143 0.0
C2508 C 0.41564 0.28903 0.14874 0.0
C2509 C 0.43176 0.30561 0.12684 0.0
C2510 C 0.42038 0.30149 0.16131 0.0
C2511 C 0.43055 0.3159 0.15678 0.0
H2512 H 0.43789 0.70865 0.85647 0.0
H2513 H 0.41172 0.71138 0.90613 0.0
H2514 H 0.43362 0.69231 0.91904 0.0
H2515 H 0.46041 0.67504 0.91641 0.0
H2516 H 0.4858 0.67087 0.86648 0.0
H2517 H 0.46405 0.6902 0.85353 0.0
C2518 C 0.437 0.70506 0.87011 0.0
C2519 C 0.42323 0.7115 0.88032 0.0
C2520 C 0.44951 0.6938 0.87743 0.0
C2521 C 0.42215 0.70657 0.89794 0.0
C2522 C 0.4347 0.69569 0.90537 0.0
C2523 C 0.46118 0.67837 0.9027 0.0
C2524 C 0.47476 0.6716 0.89246 0.0
C2525 C 0.44846 0.68926 0.89526 0.0
C2526 C 0.47545 0.67587 0.87465 0.0
C2527 C 0.46304 0.68697 0.86724 0.0
H2528 H 0.047 0.67115 0.64118 0.0
H2529 H 0.04666 0.69302 0.58939 0.0
H2530 H 0.06717 0.71561 0.59867 0.0
H2531 H 0.08532 0.7291 0.62159 0.0
H2532 H 0.08432 0.70781 0.67363 0.0
H2533 H 0.06428 0.68502 0.66413 0.0
C2534 C 0.05142 0.68084 0.63189 0.0
C2535 C 0.04536 0.68033 0.61459 0.0
C2536 C 0.06302 0.69389 0.63737 0.0
C2537 C 0.05108 0.69312 0.60279 0.0
C2538 C 0.06285 0.70601 0.60808 0.0
C2539 C 0.08076 0.71942 0.63082 0.0
C2540 C 0.08639 0.7201 0.64828 0.0
C2541 C 0.06895 0.7065 0.62534 0.0
C2542 C 0.08019 0.7076 0.66013 0.0
C2543 C 0.06873 0.69455 0.65471 0.0
H2544 H 0.09248 0.31167 0.40226 0.0
H2545 H 0.06996 0.2986 0.35243 0.0
H2546 H 0.04501 0.31743 0.35858 0.0
H2547 H 0.02881 0.33655 0.37896 0.0
H2548 H 0.05129 0.34809 0.42919 0.0
H2549 H 0.07702 0.33108 0.42197 0.0
C2550 C 0.0822 0.313 0.39266 0.0
C2551 C 0.0831 0.30368 0.37694 0.0
C2552 C 0.06781 0.3236 0.39638 0.0
C2553 C 0.06958 0.30557 0.36469 0.0
C2554 C 0.0553 0.31635 0.36819 0.0
C2555 C 0.03945 0.33547 0.38819 0.0
C2556 C 0.03811 0.34351 0.4046 0.0
C2557 C 0.05416 0.32529 0.3841 0.0
C2558 C 0.05193 0.3419 0.41653 0.0
C2559 C 0.06667 0.33218 0.41242 0.0
H2560 H 0.42472 0.73098 0.38418 0.0
H2561 H 0.41176 0.70591 0.33558 0.0
H2562 H 0.42789 0.68001 0.34428 0.0
H2563 H 0.44721 0.66525 0.36458 0.0
H2564 H 0.46212 0.69041 0.41259 0.0
H2565 H 0.44373 0.71545 0.40529 0.0
C2566 C 0.42526 0.71972 0.37567 0.0
C2567 C 0.4171 0.72032 0.35927 0.0
C2568 C 0.43505 0.70497 0.38056 0.0
C2569 C 0.41804 0.70576 0.34823 0.0
C2570 C 0.42726 0.69095 0.35318 0.0
C2571 C 0.44637 0.67613 0.37356 0.0
C2572 C 0.45608 0.67595 0.38908 0.0
C2573 C 0.43608 0.69054 0.36914 0.0
C2574 C 0.45483 0.69022 0.4005 0.0
C2575 C 0.44431 0.70455 0.39634 0.0
H2576 H 0.04415 0.66723 0.10395 0.0
H2577 H 0.01892 0.66753 0.15414 0.0
H2578 H 0.04173 0.68658 0.16569 0.0
H2579 H 0.06847 0.7039 0.16119 0.0
H2580 H 0.09413 0.70229 0.11119 0.0
H2581 H 0.07156 0.68301 0.09994 0.0
C2582 C 0.04366 0.67144 0.11743 0.0
C2583 C 0.02981 0.66609 0.12813 0.0
C2584 C 0.05689 0.6822 0.12401 0.0
C2585 C 0.02947 0.67145 0.14564 0.0
C2586 C 0.04247 0.6824 0.15223 0.0
C2587 C 0.06912 0.69929 0.14785 0.0
C2588 C 0.08291 0.70461 0.13703 0.0
C2589 C 0.05618 0.68797 0.14149 0.0
C2590 C 0.08368 0.69838 0.11982 0.0
C2591 C 0.07075 0.68738 0.11334 0.0
H2592 H 0.08598 0.29514 0.84603 0.0
H2593 H 0.09273 0.27485 0.89804 0.0
H2594 H 0.07301 0.29711 0.90944 0.0
H2595 H 0.05331 0.32205 0.90449 0.0
H2596 H 0.04747 0.34262 0.85246 0.0
H2597 H 0.06732 0.32055 0.84127 0.0
C2598 C 0.08318 0.29559 0.85988 0.0
C2599 C 0.09078 0.28328 0.87114 0.0
C2600 C 0.07193 0.30846 0.86635 0.0
C2601 C 0.0871 0.28418 0.88907 0.0
C2602 C 0.07577 0.29687 0.89559 0.0
C2603 C 0.05638 0.32168 0.89071 0.0
C2604 C 0.04882 0.33394 0.87934 0.0
C2605 C 0.06801 0.30902 0.88434 0.0
C2606 C 0.05309 0.33338 0.86153 0.0
C2607 C 0.06444 0.32073 0.85509 0.0
H2608 H 0.46044 0.33546 0.58699 0.0
H2609 H 0.48436 0.33328 0.63782 0.0
H2610 H 0.46015 0.31568 0.64868 0.0
H2611 H 0.4322 0.30078 0.64367 0.0
H2612 H 0.40781 0.30415 0.59308 0.0
H2613 H 0.43212 0.32147 0.58227 0.0
C2614 C 0.46039 0.33107 0.60043 0.0
C2615 C 0.47423 0.33557 0.61155 0.0
C2616 C 0.4463 0.32122 0.60666 0.0
C2617 C 0.47386 0.32999 0.62899 0.0
C2618 C 0.46003 0.31992 0.63521 0.0
C2619 C 0.43219 0.30533 0.63029 0.0
C2620 C 0.41821 0.30112 0.61921 0.0
C2621 C 0.44617 0.31545 0.62416 0.0
C2622 C 0.41836 0.30723 0.60193 0.0
C2623 C 0.4323 0.3171 0.5957 0.0
H2624 H 0.1437 0.45304 0.34 0.0
H2625 H 0.09157 0.46116 0.32062 0.0
H2626 H 0.09717 0.44085 0.29666 0.0
H2627 H 0.11733 0.42122 0.28081 0.0
H2628 H 0.16967 0.41443 0.3002 0.0
H2629 H 0.16345 0.43365 0.32462 0.0
C2630 C 0.1335 0.45037 0.33058 0.0
C2631 C 0.11724 0.45864 0.33212 0.0
C2632 C 0.13685 0.43885 0.31683 0.0
C2633 C 0.10423 0.45503 0.31973 0.0
C2634 C 0.10742 0.44338 0.30604 0.0
C2635 C 0.12728 0.42385 0.29049 0.0
C2636 C 0.14393 0.4164 0.28869 0.0
C2637 C 0.12372 0.43525 0.30442 0.0
C2638 C 0.15677 0.42005 0.30123 0.0
C2639 C 0.15324 0.43105 0.31521 0.0
H2640 H 0.32971 0.3799 0.03148 0.0
H2641 H 0.3302 0.43222 0.05212 0.0
H2642 H 0.31265 0.42294 0.07679 0.0
H2643 H 0.29665 0.40039 0.0922 0.0
H2644 H 0.29465 0.34816 0.07154 0.0
H2645 H 0.31331 0.35698 0.04719 0.0
C2646 C 0.32602 0.38921 0.04144 0.0
C2647 C 0.33124 0.40673 0.03994 0.0
C2648 C 0.31564 0.38384 0.05555 0.0
C2649 C 0.32627 0.41869 0.05288 0.0
C2650 C 0.31626 0.4134 0.06703 0.0
C2651 C 0.30035 0.39086 0.08245 0.0
C2652 C 0.29431 0.37364 0.08372 0.0
C2653 C 0.31079 0.39606 0.06844 0.0
C2654 C 0.29912 0.36153 0.07085 0.0
C2655 C 0.30979 0.36656 0.05694 0.0
H2656 H 0.36636 0.55045 0.83973 0.0
H2657 H 0.41853 0.54702 0.81921 0.0
H2658 H 0.41077 0.5671 0.79568 0.0
H2659 H 0.38886 0.58519 0.78058 0.0
H2660 H 0.33633 0.587 0.80046 0.0
H2661 H 0.34455 0.56806 0.82462 0.0
C2662 C 0.37607 0.55417 0.83017 0.0
C2663 C 0.39301 0.54731 0.83125 0.0
C2664 C 0.37144 0.56542 0.81654 0.0
C2665 C 0.40538 0.55209 0.81864 0.0
C2666 C 0.40096 0.56359 0.8052 0.0
C2667 C 0.37927 0.58151 0.79028 0.0
C2668 C 0.36203 0.58751 0.78876 0.0
C2669 C 0.384 0.57028 0.80397 0.0
C2670 C 0.34967 0.58249 0.8013 0.0
C2671 C 0.35436 0.57168 0.81513 0.0
H2672 H 0.21064 0.64914 0.57194 0.0
H2673 H 0.20863 0.59953 0.59834 0.0
H2674 H 0.1904 0.58768 0.57523 0.0
H2675 H 0.17514 0.59123 0.54743 0.0
H2676 H 0.17575 0.64112 0.52156 0.0
H2677 H 0.19435 0.65302 0.54451 0.0
C2678 C 0.2062 0.63575 0.5726 0.0
C2679 C 0.21103 0.62524 0.5868 0.0
C2680 C 0.19547 0.62904 0.55936 0.0
C2681 C 0.20505 0.60794 0.58759 0.0
C2682 C 0.19465 0.60111 0.57435 0.0
C2683 C 0.17938 0.60469 0.5468 0.0
C2684 C 0.17417 0.61524 0.53279 0.0
C2685 C 0.18981 0.61152 0.56016 0.0
C2686 C 0.17957 0.63273 0.53225 0.0
C2687 C 0.19023 0.63954 0.54535 0.0
H2688 H 0.16727 0.58314 0.20745 0.0
H2689 H 0.11836 0.58519 0.235 0.0
H2690 H 0.10474 0.56719 0.21248 0.0
H2691 H 0.10703 0.55016 0.18532 0.0
H2692 H 0.15588 0.54924 0.15751 0.0
H2693 H 0.16917 0.56755 0.17976 0.0
C2694 C 0.15362 0.57966 0.20853 0.0
C2695 C 0.14388 0.58536 0.22293 0.0
C2696 C 0.14586 0.5695 0.19549 0.0
C2697 C 0.12615 0.58095 0.22403 0.0
C2698 C 0.11836 0.57063 0.21119 0.0
C2699 C 0.12056 0.55401 0.18412 0.0
C2700 C 0.13046 0.54825 0.16981 0.0
C2701 C 0.12813 0.56472 0.19692 0.0
C2702 C 0.14794 0.5535 0.16836 0.0
C2703 C 0.15559 0.56394 0.18111 0.0
H2704 H 0.17673 0.375 0.97566 0.0
H2705 H 0.16633 0.42456 0.95118 0.0
H2706 H 0.18462 0.41664 0.9266 0.0
H2707 H 0.20451 0.39645 0.91256 0.0
H2708 H 0.21623 0.34711 0.93682 0.0
H2709 H 0.19655 0.35413 0.96092 0.0
C2710 C 0.17836 0.38394 0.96484 0.0
C2711 C 0.17023 0.40036 0.96529 0.0
C2712 C 0.18924 0.37943 0.95076 0.0
C2713 C 0.17254 0.41189 0.95124 0.0
C2714 C 0.18301 0.40739 0.93715 0.0
C2715 C 0.20275 0.38716 0.92307 0.0
C2716 C 0.21189 0.37131 0.92288 0.0
C2717 C 0.1916 0.39132 0.93688 0.0
C2718 C 0.2094 0.35945 0.93665 0.0
C2719 C 0.19814 0.36345 0.95043 0.0
H2720 H 0.40862 0.45533 0.68717 0.0
H2721 H 0.35852 0.4589 0.66192 0.0
H2722 H 0.34606 0.43898 0.68327 0.0
H2723 H 0.34918 0.42081 0.70932 0.0
H2724 H 0.39945 0.41585 0.73394 0.0
H2725 H 0.41206 0.4359 0.71262 0.0
C2726 C 0.39499 0.45174 0.68639 0.0
C2727 C 0.38451 0.45866 0.67303 0.0
C2728 C 0.38793 0.43998 0.69856 0.0
C2729 C 0.3669 0.45374 0.67204 0.0
C2730 C 0.35973 0.44236 0.68426 0.0
C2731 C 0.3629 0.42409 0.71001 0.0
C2732 C 0.37333 0.41692 0.72324 0.0
C2733 C 0.3701 0.43544 0.6976 0.0
C2734 C 0.39114 0.42115 0.72384 0.0
C2735 C 0.39835 0.43267 0.71169 0.0
H2736 H 0.33616 0.6331 0.47668 0.0
H2737 H 0.3335 0.58018 0.45784 0.0
H2738 H 0.31582 0.5895 0.43326 0.0
H2739 H 0.30053 0.61234 0.41733 0.0
H2740 H 0.30165 0.66521 0.43631 0.0
H2741 H 0.32045 0.65627 0.4605 0.0
C2742 C 0.33177 0.62366 0.46713 0.0
C2743 C 0.33616 0.60596 0.46915 0.0
C2744 C 0.32127 0.62907 0.45304 0.0
C2745 C 0.33025 0.59386 0.45672 0.0
C2746 C 0.32014 0.59918 0.44259 0.0
C2747 C 0.30494 0.62196 0.42669 0.0
C2748 C 0.29971 0.63943 0.42495 0.0
C2749 C 0.31548 0.6167 0.44067 0.0
C2750 C 0.30545 0.65166 0.43733 0.0
C2751 C 0.31622 0.64656 0.45117 0.0
H2752 H 0.34325 0.14929 0.45908 0.0
H2753 H 0.32805 0.09525 0.45666 0.0
H2754 H 0.30336 0.1028 0.43803 0.0
H2755 H 0.28538 0.12495 0.42336 0.0
H2756 H 0.29983 0.17914 0.42727 0.0
H2757 H 0.32546 0.17134 0.44433 0.0
C2758 C 0.33463 0.13915 0.45433 0.0
C2759 C 0.33749 0.12175 0.4592 0.0
C2760 C 0.32024 0.14363 0.44397 0.0
C2761 C 0.32609 0.10877 0.45312 0.0
C2762 C 0.31196 0.11307 0.44247 0.0
C2763 C 0.2942 0.13502 0.42787 0.0
C2764 C 0.29068 0.15259 0.42407 0.0
C2765 C 0.30879 0.13048 0.43797 0.0
C2766 C 0.30217 0.16552 0.43011 0.0
C2767 C 0.31686 0.16108 0.43984 0.0
H2768 H 0.81613 0.41047 0.55087 0.0
H2769 H 0.84528 0.36241 0.54986 0.0
H2770 H 0.82353 0.34848 0.56825 0.0
H2771 H 0.79622 0.34979 0.58473 0.0
H2772 H 0.76745 0.39802 0.58676 0.0
H2773 H 0.78898 0.41195 0.56796 0.0
C2774 C 0.81769 0.39696 0.55466 0.0
C2775 C 0.83232 0.38754 0.54895 0.0
C2776 C 0.80519 0.38901 0.56547 0.0
C2777 C 0.8342 0.37004 0.5541 0.0
C2778 C 0.82173 0.36201 0.56461 0.0
C2779 C 0.79464 0.36334 0.58104 0.0
C2780 C 0.78021 0.37281 0.58713 0.0
C2781 C 0.80718 0.37135 0.57038 0.0
C2782 C 0.77845 0.39041 0.58231 0.0
C2783 C 0.79075 0.3984 0.57152 0.0
H2784 H 0.41004 0.04731 0.33518 0.0
H2785 H 0.35949 0.02387 0.34225 0.0
H2786 H 0.3466 0.0456 0.32262 0.0
H2787 H 0.35004 0.07114 0.3028 0.0
H2788 H 0.40107 0.0941 0.29696 0.0
H2789 H 0.41335 0.07259 0.31658 0.0
C2790 C 0.39617 0.04692 0.33251 0.0
C2791 C 0.38578 0.03393 0.34014 0.0
C2792 C 0.38892 0.05934 0.32128 0.0
C2793 C 0.3678 0.03377 0.3366 0.0
C2794 C 0.36044 0.04614 0.3253 0.0
C2795 C 0.36384 0.07134 0.3058 0.0
C2796 C 0.37459 0.08423 0.29836 0.0
C2797 C 0.37092 0.05894 0.31742 0.0
C2798 C 0.39243 0.08442 0.30252 0.0
C2799 C 0.39953 0.0721 0.31376 0.0
H2800 H 0.66944 0.64705 0.05359 0.0
H2801 H 0.68868 0.59456 0.04794 0.0
H2802 H 0.71351 0.60151 0.06675 0.0
H2803 H 0.72998 0.62284 0.08452 0.0
H2804 H 0.71069 0.67549 0.08886 0.0
H2805 H 0.68565 0.66808 0.0709 0.0
C2806 C 0.67901 0.63707 0.05649 0.0
C2807 C 0.67716 0.6203 0.04939 0.0
C2808 C 0.69328 0.6412 0.0671 0.0
C2809 C 0.68979 0.60759 0.05322 0.0
C2810 C 0.70398 0.61156 0.06399 0.0
C2811 C 0.72024 0.63264 0.08159 0.0
C2812 C 0.72223 0.6497 0.08803 0.0
C2813 C 0.70589 0.62836 0.07098 0.0
C2814 C 0.70956 0.66229 0.08401 0.0
C2815 C 0.69519 0.65807 0.07375 0.0
H2816 H 0.59168 0.46465 0.328 0.0
H2817 H 0.64276 0.48714 0.33444 0.0
H2818 H 0.65543 0.46391 0.31675 0.0
H2819 H 0.65199 0.43699 0.29954 0.0
H2820 H 0.60093 0.41398 0.2945 0.0
H2821 H 0.58833 0.43758 0.31151 0.0
C2822 C 0.60557 0.46451 0.32547 0.0
C2823 C 0.61623 0.47763 0.33245 0.0
C2824 C 0.61281 0.45098 0.31556 0.0
C2825 C 0.63426 0.47716 0.32923 0.0
C2826 C 0.64152 0.46389 0.3191 0.0
C2827 C 0.63811 0.43718 0.30216 0.0
C2828 C 0.62744 0.42375 0.29575 0.0
C2829 C 0.63093 0.4507 0.31221 0.0
C2830 C 0.60948 0.4241 0.29935 0.0
C2831 C 0.60223 0.43762 0.30905 0.0
H2832 H 0.1694 0.86902 0.96024 0.0
H2833 H 0.19339 0.91955 0.96565 0.0
H2834 H 0.21668 0.91078 0.94571 0.0
H2835 H 0.23075 0.8882 0.92737 0.0
H2836 H 0.20699 0.83739 0.92367 0.0
H2837 H 0.18307 0.84688 0.94216 0.0
C2838 C 0.17966 0.87819 0.95701 0.0
C2839 C 0.17963 0.89492 0.96442 0.0
C2840 C 0.19309 0.87299 0.94581 0.0
C2841 C 0.19312 0.90656 0.96017 0.0
C2842 C 0.20644 0.90156 0.94874 0.0
C2843 C 0.22023 0.87931 0.93051 0.0
C2844 C 0.22064 0.86213 0.92417 0.0
C2845 C 0.20662 0.88474 0.94156 0.0
C2846 C 0.20704 0.85065 0.92848 0.0
C2847 C 0.19334 0.85606 0.93905 0.0
H2848 H 0.39433 0.91753 0.2008 0.0
H2849 H 0.3426 0.93896 0.20536 0.0
H2850 H 0.35078 0.96326 0.18648 0.0
H2851 H 0.37297 0.97901 0.1695 0.0
H2852 H 0.42507 0.95819 0.16626 0.0
H2853 H 0.41639 0.93311 0.18374 0.0
C2854 C 0.38479 0.92743 0.19753 0.0
C2855 C 0.36787 0.9264 0.20445 0.0
C2856 C 0.38968 0.94155 0.18696 0.0
C2857 C 0.35573 0.93945 0.20024 0.0
C2858 C 0.3604 0.95336 0.18944 0.0
C2859 C 0.38239 0.96894 0.17254 0.0
C2860 C 0.39965 0.97051 0.16658 0.0
C2861 C 0.37739 0.95464 0.18286 0.0
C2862 C 0.41173 0.95738 0.17074 0.0
C2863 C 0.40677 0.943 0.18072 0.0
H2864 H 0.10881 0.09047 0.70953 0.0
H2865 H 0.16081 0.06961 0.71371 0.0
H2866 H 0.15269 0.04532 0.69463 0.0
H2867 H 0.1304 0.02975 0.67707 0.0
H2868 H 0.07833 0.05079 0.67432 0.0
H2869 H 0.08696 0.07527 0.69243 0.0
C2870 C 0.11844 0.08067 0.70625 0.0
C2871 C 0.1354 0.0819 0.71303 0.0
C2872 C 0.11365 0.06673 0.6955 0.0
C2873 C 0.14764 0.06898 0.7087 0.0
C2874 C 0.143 0.05509 0.69777 0.0
C2875 C 0.12101 0.03976 0.68038 0.0
C2876 C 0.10374 0.0384 0.67435 0.0
C2877 C 0.126 0.0538 0.69112 0.0
C2878 C 0.09167 0.05142 0.67885 0.0
C2879 C 0.09659 0.06547 0.68921 0.0
H2880 H 0.05876 0.11347 0.43469 0.0
H2881 H 0.03131 0.14421 0.47299 0.0
H2882 H 0.05328 0.13739 0.49466 0.0
H2883 H 0.08087 0.12402 0.50264 0.0
H2884 H 0.10878 0.09286 0.46519 0.0
H2885 H 0.08601 0.09834 0.44346 0.0
C2886 C 0.05757 0.11859 0.4478 0.0
C2887 C 0.04341 0.12946 0.45208 0.0
C2888 C 0.07033 0.11455 0.46041 0.0
C2889 C 0.04203 0.13587 0.46921 0.0
C2890 C 0.05462 0.13199 0.48168 0.0
C2891 C 0.08196 0.11831 0.48976 0.0
C2892 C 0.09657 0.10815 0.48553 0.0
C2893 C 0.06891 0.12154 0.47739 0.0
C2894 C 0.09764 0.10071 0.46882 0.0
C2895 C 0.08467 0.10392 0.45635 0.0
H2896 H 0.16145 0.84884 0.71738 0.0
H2897 H 0.12903 0.83065 0.75955 0.0
H2898 H 0.12196 0.80442 0.74316 0.0
H2899 H 0.12344 0.78743 0.71629 0.0
H2900 H 0.15469 0.80583 0.67336 0.0
H2901 H 0.1638 0.83103 0.6906 0.0
C2902 C 0.15301 0.83903 0.72304 0.0
C2903 C 0.14575 0.84177 0.73966 0.0
C2904 C 0.14869 0.82402 0.71337 0.0
C2905 C 0.13472 0.82896 0.74675 0.0
C2906 C 0.13066 0.81393 0.73739 0.0
C2907 C 0.13238 0.79684 0.71073 0.0
C2908 C 0.13832 0.7947 0.69352 0.0
C2909 C 0.13733 0.81144 0.72059 0.0
C2910 C 0.14986 0.80712 0.68655 0.0
C2911 C 0.15507 0.82157 0.69641 0.0
H2912 H 0.4101 0.90719 0.97255 0.0
H2913 H 0.42805 0.86966 0.01042 0.0
H2914 H 0.45394 0.86408 0.99296 0.0
H2915 H 0.47073 0.86853 0.96622 0.0
H2916 H 0.4524 0.90506 0.9276 0.0
H2917 H 0.42759 0.91242 0.9461 0.0
C2918 C 0.41976 0.89792 0.97705 0.0
C2919 C 0.41706 0.88882 0.99276 0.0
C2920 C 0.43457 0.89453 0.96678 0.0
C2921 C 0.42969 0.87678 0.99834 0.0
C2922 C 0.44454 0.87357 0.98837 0.0
C2923 C 0.46143 0.87825 0.96191 0.0
C2924 C 0.46345 0.88619 0.94552 0.0
C2925 C 0.447 0.88218 0.97246 0.0
C2926 C 0.45117 0.89869 0.94013 0.0
C2927 C 0.43694 0.9029 0.9507 0.0
H2928 H 0.38085 0.21935 0.21548 0.0
H2929 H 0.35675 0.19561 0.17058 0.0
H2930 H 0.34778 0.17074 0.1884 0.0
H2931 H 0.3485 0.15478 0.21651 0.0
H2932 H 0.37399 0.17846 0.26067 0.0
H2933 H 0.38049 0.20429 0.24344 0.0
C2934 C 0.37352 0.20883 0.20957 0.0
C2935 C 0.36957 0.20936 0.19168 0.0
C2936 C 0.36864 0.19448 0.2198 0.0
C2937 C 0.36004 0.19555 0.18431 0.0
C2938 C 0.3549 0.18129 0.19449 0.0
C2939 C 0.35522 0.16573 0.22239 0.0
C2940 C 0.36078 0.16469 0.23983 0.0
C2941 C 0.35934 0.18049 0.21223 0.0
C2942 C 0.36966 0.17889 0.24724 0.0
C2943 C 0.37341 0.19368 0.23739 0.0
H2944 H 0.05961 0.8979 0.07513 0.0
H2945 H 0.03775 0.86282 0.03694 0.0
H2946 H 0.06081 0.87015 0.01659 0.0
H2947 H 0.08784 0.88539 0.00987 0.0
H2948 H 0.10997 0.92097 0.04731 0.0
H2949 H 0.08612 0.91473 0.06754 0.0
C2950 C 0.05987 0.89194 0.06233 0.0
C2951 C 0.04698 0.87973 0.05769 0.0
C2952 C 0.07323 0.89629 0.0505 0.0
C2953 C 0.04746 0.87223 0.04096 0.0
C2954 C 0.06069 0.87639 0.02926 0.0
C2955 C 0.08742 0.89188 0.02241 0.0
C2956 C 0.10074 0.90353 0.0271 0.0
C2957 C 0.07372 0.88824 0.03394 0.0
C2958 C 0.09987 0.91195 0.04335 0.0
C2959 C 0.08627 0.90832 0.05497 0.0
H2960 H 0.36356 0.81183 0.32144 0.0
H2961 H 0.40081 0.78779 0.28688 0.0
H2962 H 0.39492 0.80974 0.26479 0.0
H2963 H 0.37981 0.83617 0.25537 0.0
H2964 H 0.34201 0.8601 0.28935 0.0
H2965 H 0.34739 0.83777 0.3114 0.0
C2966 C 0.37037 0.81141 0.30907 0.0
C2967 C 0.38266 0.79821 0.3059 0.0
C2968 C 0.3668 0.82405 0.29625 0.0
C2969 C 0.39127 0.79777 0.28972 0.0
C2970 C 0.38793 0.81035 0.27703 0.0
C2971 C 0.37267 0.83647 0.26756 0.0
C2972 C 0.36058 0.84983 0.27069 0.0
C2973 C 0.3758 0.82359 0.28017 0.0
C2974 C 0.35138 0.84994 0.28654 0.0
C2975 C 0.35449 0.83721 0.29921 0.0
H2976 H 0.42873 0.1319 0.51009 0.0
H2977 H 0.40324 0.09436 0.54328 0.0
H2978 H 0.42569 0.09833 0.56544 0.0
H2979 H 0.45191 0.11345 0.57598 0.0
H2980 H 0.47783 0.15032 0.54234 0.0
H2981 H 0.45596 0.14553 0.51982 0.0
C2982 C 0.42814 0.12453 0.52214 0.0
C2983 C 0.41427 0.11296 0.52506 0.0
C2984 C 0.44117 0.12677 0.5348 0.0
C2985 C 0.41379 0.10336 0.54067 0.0
C2986 C 0.4266 0.10565 0.5534 0.0
C2987 C 0.45283 0.12035 0.56369 0.0
C2988 C 0.46643 0.1323 0.56093 0.0
C2989 C 0.44025 0.11747 0.55069 0.0
C2990 C 0.4675 0.14103 0.54484 0.0
C2991 C 0.45497 0.13836 0.53194 0.0
H2992 H 0.15907 0.15697 0.79161 0.0
H2993 H 0.12191 0.17539 0.75364 0.0
H2994 H 0.11566 0.20074 0.77172 0.0
H2995 H 0.11949 0.21684 0.79896 0.0
H2996 H 0.15539 0.1978 0.83782 0.0
H2997 H 0.16345 0.17362 0.81873 0.0
C2998 C 0.14975 0.16663 0.78722 0.0
C2999 C 0.14096 0.16427 0.77131 0.0
C3000 C 0.14592 0.18103 0.79788 0.0
C3001 C 0.1288 0.17684 0.76587 0.0
C3002 C 0.12521 0.19135 0.7762 0.0
C3003 C 0.12921 0.20752 0.8032 0.0
C3004 C 0.13681 0.20914 0.8198 0.0
C3005 C 0.13351 0.19346 0.79233 0.0
C3006 C 0.14929 0.19683 0.82512 0.0
C3007 C 0.15391 0.18299 0.81422 0.0
H3008 H 0.47021 0.1046 0.10421 0.0
H3009 H 0.51234 0.08126 0.13323 0.0
H3010 H 0.49513 0.05495 0.13756 0.0
H3011 H 0.46761 0.03925 0.13478 0.0
H3012 H 0.42462 0.06287 0.10731 0.0
H3013 H 0.44268 0.08826 0.10059 0.0
C3014 C 0.47566 0.09367 0.11131 0.0
C3015 C 0.49251 0.09493 0.11843 0.0
C3016 C 0.46551 0.07864 0.1141 0.0
C3017 C 0.49936 0.0807 0.12772 0.0
C3018 C 0.48953 0.06562 0.13019 0.0
C3019 C 0.46221 0.04984 0.12714 0.0
C3020 C 0.44477 0.04913 0.12158 0.0
C3021 C 0.47251 0.06455 0.12369 0.0
C3022 C 0.438 0.06307 0.1118 0.0
C3023 C 0.44831 0.07762 0.10797 0.0
H3024 H 0.21833 0.21737 0.39673 0.0
H3025 H 0.1991 0.17678 0.36291 0.0
H3026 H 0.17394 0.19487 0.35534 0.0
H3027 H 0.15687 0.2219 0.35923 0.0
H3028 H 0.17592 0.26163 0.39418 0.0
H3029 H 0.20169 0.24417 0.40035 0.0
C3030 C 0.20872 0.21247 0.38759 0.0
C3031 C 0.21064 0.19573 0.38038 0.0
C3032 C 0.1942 0.22278 0.38355 0.0
C3033 C 0.19796 0.18961 0.36867 0.0
C3034 C 0.18356 0.19995 0.36434 0.0
C3035 C 0.16673 0.22678 0.3681 0.0
C3036 C 0.16444 0.24306 0.37624 0.0
C3037 C 0.18146 0.21651 0.37183 0.0
C3038 C 0.17728 0.24913 0.3878 0.0
C3039 C 0.19205 0.23916 0.39133 0.0
H3040 H 0.00448 0.92518 0.62345 0.0
H3041 H 0.0443 0.89544 0.59737 0.0
H3042 H 0.06504 0.91939 0.60143 0.0
H3043 H 0.07235 0.94804 0.6145 0.0
H3044 H 0.03174 0.97745 0.64 0.0
H3045 H 0.01091 0.95445 0.63396 0.0
C3046 C 0.01766 0.92398 0.61851 0.0
C3047 C 0.02289 0.90851 0.61029 0.0
C3048 C 0.02945 0.93774 0.62088 0.0
C3049 C 0.03994 0.90725 0.60375 0.0
C3050 C 0.05183 0.9209 0.60615 0.0
C3051 C 0.05891 0.94948 0.61856 0.0
C3052 C 0.05374 0.96443 0.62788 0.0
C3053 C 0.04682 0.9361 0.61501 0.0
C3054 C 0.0362 0.96609 0.63292 0.0
C3055 C 0.02422 0.95291 0.6295 0.0
H3056 H 0.33169 0.75874 0.8767 0.0
H3057 H 0.36018 0.79594 0.84572 0.0
H3058 H 0.33703 0.81747 0.84998 0.0
H3059 H 0.30941 0.8263 0.86426 0.0
H3060 H 0.2813 0.78831 0.89484 0.0
H3061 H 0.30352 0.76665 0.88892 0.0
C3062 C 0.3328 0.77151 0.87074 0.0
C3063 C 0.34771 0.77575 0.86103 0.0
C3064 C 0.31951 0.78378 0.87327 0.0
C3065 C 0.34883 0.79231 0.85326 0.0
C3066 C 0.33563 0.80467 0.85576 0.0
C3067 C 0.30809 0.81324 0.8695 0.0
C3068 C 0.29372 0.80908 0.88012 0.0
C3069 C 0.32102 0.80065 0.86602 0.0
C3070 C 0.29221 0.79202 0.8867 0.0
C3071 C 0.30494 0.77955 0.88335 0.0
H3072 H 0.49911 0.9294 0.38304 0.0
H3073 H 0.46523 0.90026 0.41712 0.0
H3074 H 0.44207 0.92167 0.41262 0.0
H3075 H 0.43092 0.94796 0.39764 0.0
H3076 H 0.46536 0.97687 0.36383 0.0
H3077 H 0.4887 0.95628 0.36961 0.0
C3078 C 0.48671 0.92777 0.38961 0.0
C3079 C 0.48391 0.91318 0.40032 0.0
C3080 C 0.47345 0.94006 0.38691 0.0
C3081 C 0.46778 0.91138 0.40881 0.0
C3082 C 0.45448 0.92358 0.40618 0.0
C3083 C 0.44355 0.94978 0.39161 0.0
C3084 C 0.44627 0.96391 0.38021 0.0
C3085 C 0.45708 0.93786 0.39503 0.0
C3086 C 0.4628 0.96613 0.37262 0.0
C3087 C 0.47621 0.95434 0.3759 0.0
H3088 H 0.28667 0.20868 0.61513 0.0
H3089 H 0.31136 0.17137 0.64921 0.0
H3090 H 0.33478 0.19213 0.65519 0.0
H3091 H 0.34899 0.22036 0.64954 0.0
H3092 H 0.32475 0.25692 0.61434 0.0
H3093 H 0.30037 0.23699 0.61009 0.0
C3094 C 0.29709 0.2051 0.62399 0.0
C3095 C 0.29725 0.18847 0.63169 0.0
C3096 C 0.31064 0.21697 0.62713 0.0
C3097 C 0.31092 0.18407 0.64306 0.0
C3098 C 0.32433 0.19593 0.64648 0.0
C3099 C 0.33828 0.22404 0.64109 0.0
C3100 C 0.33871 0.24011 0.63226 0.0
C3101 C 0.32443 0.21235 0.63842 0.0
C3102 C 0.3248 0.24461 0.62123 0.0
C3103 C 0.31084 0.23322 0.61879 0.0
H3104 H 0.0395 0.03584 0.87078 0.0
H3105 H 0.08276 0.05602 0.90049 0.0
H3106 H 0.06521 0.08108 0.90931 0.0
H3107 H 0.03816 0.09825 0.90697 0.0
H3108 H 0.99564 0.07852 0.8759 0.0
H3109 H 0.01228 0.05229 0.86935 0.0
C3110 C 0.04506 0.0456 0.87935 0.0
C3111 C 0.06244 0.04405 0.88492 0.0
C3112 C 0.03504 0.06014 0.88407 0.0
C3113 C 0.06943 0.0569 0.89595 0.0
C3114 C 0.05941 0.07126 0.90099 0.0
C3115 C 0.03247 0.08811 0.89894 0.0
C3116 C 0.0157 0.09037 0.8919 0.0
C3117 C 0.04228 0.07316 0.89489 0.0
C3118 C 0.00856 0.07716 0.88141 0.0
C3119 C 0.01807 0.06214 0.87765 0.0
H3120 H 0.19894 0.81837 0.14629 0.0
H3121 H 0.22588 0.77855 0.11707 0.0
H3122 H 0.20297 0.75778 0.1237 0.0
H3123 H 0.17461 0.75115 0.13628 0.0
H3124 H 0.14734 0.79025 0.16596 0.0
H3125 H 0.1711 0.81093 0.16084 0.0
C3126 C 0.19984 0.80512 0.14149 0.0
C3127 C 0.21409 0.80014 0.13106 0.0
C3128 C 0.18654 0.79307 0.14539 0.0
C3129 C 0.21508 0.78284 0.12505 0.0
C3130 C 0.20195 0.7709 0.12882 0.0
C3131 C 0.17389 0.76416 0.14175 0.0
C3132 C 0.15916 0.76918 0.15136 0.0
C3133 C 0.18753 0.77593 0.13874 0.0
C3134 C 0.15855 0.78603 0.15852 0.0
C3135 C 0.17209 0.79789 0.15552 0.0
H3136 H 0.11313 0.4334 0.05677 0.0
H3137 H 0.14003 0.47265 0.0267 0.0
H3138 H 0.13456 0.4941 0.04925 0.0
H3139 H 0.12395 0.50146 0.07823 0.0
H3140 H 0.09629 0.4631 0.10852 0.0
H3141 H 0.10006 0.44168 0.08514 0.0
C3142 C 0.11765 0.44668 0.05511 0.0
C3143 C 0.12714 0.4513 0.04011 0.0
C3144 C 0.11438 0.45914 0.06819 0.0
C3145 C 0.13276 0.46864 0.03811 0.0
C3146 C 0.12968 0.48097 0.05103 0.0
C3147 C 0.11862 0.48845 0.07967 0.0
C3148 C 0.11002 0.48381 0.09511 0.0
C3149 C 0.12078 0.4763 0.06622 0.0
C3150 C 0.10296 0.46699 0.09671 0.0
C3151 C 0.1052 0.45471 0.08339 0.0
H3152 H 0.60423 0.04298 0.90887 0.0
H3153 H 0.62974 0.99917 0.93324 0.0
H3154 H 0.63516 0.01642 0.95927 0.0
H3155 H 0.63483 0.04432 0.9742 0.0
H3156 H 0.6106 0.08888 0.94993 0.0
H3157 H 0.60237 0.07093 0.92489 0.0
C3158 C 0.61074 0.03718 0.91999 0.0
C3159 C 0.61669 0.01987 0.91907 0.0
C3160 C 0.61417 0.04732 0.93488 0.0
C3161 C 0.62519 0.01253 0.93354 0.0
C3162 C 0.6283 0.02237 0.94845 0.0
C3163 C 0.62761 0.05014 0.96352 0.0
C3164 C 0.62348 0.06796 0.9639 0.0
C3165 C 0.62321 0.03986 0.94911 0.0
C3166 C 0.61401 0.0752 0.94996 0.0
C3167 C 0.60934 0.06495 0.93561 0.0
H3168 H 0.20865 0.38611 0.21855 0.0
H3169 H 0.16711 0.35492 0.19708 0.0
H3170 H 0.18561 0.34719 0.17226 0.0
H3171 H 0.21329 0.35054 0.15599 0.0
H3172 H 0.25375 0.3833 0.17724 0.0
H3173 H 0.23598 0.38908 0.20287 0.0
C3174 C 0.20363 0.3775 0.20854 0.0
C3175 C 0.18651 0.3711 0.20969 0.0
C3176 C 0.21416 0.37343 0.19422 0.0
C3177 C 0.18023 0.36005 0.1965 0.0
C3178 C 0.19081 0.35564 0.18231 0.0
C3179 C 0.21824 0.35879 0.16634 0.0
C3180 C 0.2348 0.36649 0.16473 0.0
C3181 C 0.20775 0.36241 0.18093 0.0
C3182 C 0.24101 0.3773 0.17813 0.0
C3183 C 0.23087 0.38061 0.1928 0.0
H3184 H 0.86975 0.96836 0.47582 0.0
H3185 H 0.90253 0.92905 0.45263 0.0
H3186 H 0.90926 0.94874 0.42848 0.0
H3187 H 0.90392 0.97632 0.41284 0.0
H3188 H 0.8696 0.0146 0.43553 0.0
H3189 H 0.86546 0.99613 0.46103 0.0
C3190 C 0.87856 0.96414 0.46562 0.0
C3191 C 0.88558 0.94723 0.46601 0.0
C3192 C 0.88199 0.97531 0.4516 0.0
C3193 C 0.8969 0.94198 0.45262 0.0
C3194 C 0.90072 0.95322 0.43878 0.0
C3195 C 0.89571 0.98068 0.42347 0.0
C3196 C 0.88701 0.99676 0.42227 0.0
C3197 C 0.89305 0.96979 0.43796 0.0
C3198 C 0.87633 1.00221 0.43608 0.0
C3199 C 0.87396 0.99167 0.45068 0.0
H3200 H 0.82734 0.15075 0.19927 0.0
H3201 H 0.78987 0.11767 0.22504 0.0
H3202 H 0.76875 0.12328 0.20203 0.0
H3203 H 0.76146 0.13613 0.17372 0.0
H3204 H 0.79831 0.17007 0.14828 0.0
H3205 H 0.81906 0.16567 0.17206 0.0
C3206 C 0.8145 0.14489 0.1999 0.0
C3207 C 0.81026 0.1337 0.21377 0.0
C3208 C 0.80232 0.14826 0.18665 0.0
C3209 C 0.7935 0.12634 0.21452 0.0
C3210 C 0.78141 0.12948 0.20132 0.0
C3211 C 0.774 0.14264 0.17344 0.0
C3212 C 0.77842 0.15326 0.15921 0.0
C3213 C 0.78577 0.14018 0.1872 0.0
C3214 C 0.7946 0.16182 0.15912 0.0
C3215 C 0.8065 0.15926 0.17267 0.0
H3216 H 0.39727 0.57268 0.55837 0.0
H3217 H 0.36801 0.53309 0.53109 0.0
H3218 H 0.37498 0.51203 0.55364 0.0
H3219 H 0.38767 0.5051 0.58188 0.0
H3220 H 0.41722 0.54395 0.60967 0.0
H3221 H 0.41206 0.56489 0.58609 0.0
C3222 C 0.39255 0.55942 0.5573 0.0
C3223 C 0.38197 0.5546 0.54307 0.0
C3224 C 0.39663 0.54719 0.57043 0.0
C3225 C 0.37607 0.53728 0.54189 0.0
C3226 C 0.38004 0.52516 0.5548 0.0
C3227 C 0.39312 0.51811 0.58275 0.0
C3228 C 0.40269 0.52298 0.59759 0.0
C3229 C 0.39005 0.53003 0.56925 0.0
C3230 C 0.40982 0.53984 0.59838 0.0
C3231 C 0.40679 0.55185 0.58494 0.0
H3232 H 0.25237 0.62973 0.33234 0.0
H3233 H 0.21818 0.66757 0.35586 0.0
H3234 H 0.19675 0.66287 0.33275 0.0
H3235 H 0.1871 0.64684 0.30661 0.0
H3236 H 0.222 0.60983 0.28268 0.0
H3237 H 0.24374 0.61547 0.30509 0.0
C3238 C 0.24027 0.63702 0.33235 0.0
C3239 C 0.23682 0.64887 0.34587 0.0
C3240 C 0.22809 0.63437 0.31896 0.0
C3241 C 0.22117 0.65837 0.34559 0.0
C3242 C 0.20887 0.65565 0.33242 0.0
C3243 C 0.19951 0.64011 0.30624 0.0
C3244 C 0.20283 0.62784 0.29304 0.0
C3245 C 0.21209 0.64351 0.31914 0.0
C3246 C 0.21906 0.61935 0.29267 0.0
C3247 C 0.23151 0.62251 0.30553 0.0
H3248 H 0.29152 0.3488 0.84815 0.0
H3249 H 0.25468 0.38749 0.83061 0.0
H3250 H 0.27276 0.39355 0.80521 0.0
H3251 H 0.29969 0.38901 0.78873 0.0
H3252 H 0.33733 0.35139 0.80686 0.0
H3253 H 0.31825 0.34372 0.83115 0.0
C3254 C 0.28738 0.35844 0.83868 0.0
C3255 C 0.27178 0.36769 0.84132 0.0
C3256 C 0.29801 0.36211 0.82422 0.0
C3257 C 0.26666 0.38023 0.82897 0.0
C3258 C 0.27699 0.38371 0.81442 0.0
C3259 C 0.30366 0.379 0.79788 0.0
C3260 C 0.31993 0.37081 0.79596 0.0
C3261 C 0.29279 0.3749 0.81202 0.0
C3262 C 0.3249 0.35795 0.80804 0.0
C3263 C 0.314 0.35356 0.82196 0.0
H3264 H 0.92759 0.8755 0.51069 0.0
H3265 H 0.90437 0.91433 0.544 0.0
H3266 H 0.92676 0.90913 0.56602 0.0
H3267 H 0.95223 0.89251 0.57643 0.0
H3268 H 0.97554 0.8541 0.54262 0.0
H3269 H 0.95389 0.86023 0.52028 0.0
C3270 C 0.92748 0.88291 0.52271 0.0
C3271 C 0.91425 0.8952 0.5257 0.0
C3272 C 0.94039 0.87988 0.53532 0.0
C3273 C 0.9144 0.90479 0.54132 0.0
C3274 C 0.92717 0.90178 0.55397 0.0
C3275 C 0.95261 0.88554 0.56415 0.0
C3276 C 0.96545 0.87278 0.5613 0.0
C3277 C 0.94011 0.88919 0.55122 0.0
C3278 C 0.96582 0.86398 0.54523 0.0
C3279 C 0.95341 0.86745 0.53241 0.0
H3280 H 0.88988 0.22162 0.28812 0.0
H3281 H 0.8575 0.20355 0.33035 0.0
H3282 H 0.84831 0.17859 0.31285 0.0
H3283 H 0.85085 0.16091 0.28614 0.0
H3284 H 0.88442 0.17847 0.24461 0.0
H3285 H 0.89165 0.20458 0.26119 0.0
C3286 C 0.88066 0.21234 0.29345 0.0
C3287 C 0.87442 0.21448 0.31055 0.0
C3288 C 0.8757 0.19783 0.28345 0.0
C3289 C 0.86256 0.20223 0.31725 0.0
C3290 C 0.85731 0.18792 0.30725 0.0
C3291 C 0.85959 0.17055 0.28065 0.0
C3292 C 0.8671 0.16769 0.26416 0.0
C3293 C 0.86399 0.18544 0.29042 0.0
C3294 C 0.87852 0.18026 0.2573 0.0
C3295 C 0.88267 0.19523 0.26678 0.0
H3296 H 0.56008 0.11351 0.08115 0.0
H3297 H 0.53205 0.14726 0.04586 0.0
H3298 H 0.55352 0.14197 0.02327 0.0
H3299 H 0.5811 0.12937 0.01396 0.0
H3300 H 0.60927 0.09503 0.04836 0.0
H3301 H 0.58683 0.09877 0.07075 0.0
C3302 C 0.55863 0.11959 0.06848 0.0
C3303 C 0.54454 0.1309 0.06531 0.0
C3304 C 0.57106 0.11643 0.05537 0.0
C3305 C 0.54276 0.13854 0.04874 0.0
C3306 C 0.55507 0.13556 0.03577 0.0
C3307 C 0.58228 0.1226 0.02631 0.0
C3308 C 0.59688 0.1121 0.02958 0.0
C3309 C 0.56939 0.12478 0.03902 0.0
C3310 C 0.59812 0.10319 0.04554 0.0
C3311 C 0.58534 0.1054 0.05837 0.0
H3312 H 0.64409 0.8084 0.82472 0.0
H3313 H 0.60681 0.78255 0.79145 0.0
H3314 H 0.61064 0.80492 0.7693 0.0
H3315 H 0.6236 0.8325 0.75976 0.0
H3316 H 0.66144 0.85809 0.79254 0.0
H3317 H 0.65841 0.83516 0.81436 0.0
C3318 C 0.63689 0.80761 0.81258 0.0
C3319 C 0.62511 0.79386 0.80984 0.0
C3320 C 0.63919 0.82052 0.79979 0.0
C3321 C 0.61597 0.79298 0.79396 0.0
C3322 C 0.6181 0.80581 0.78126 0.0
C3323 C 0.63123 0.83302 0.77165 0.0
C3324 C 0.64263 0.84704 0.77455 0.0
C3325 C 0.62952 0.81974 0.78411 0.0
C3326 C 0.65256 0.84743 0.78996 0.0
C3327 C 0.65081 0.83435 0.80248 0.0
H3328 H 0.92675 0.12484 0.99745 0.0
H3329 H 0.90095 0.08902 0.96269 0.0
H3330 H 0.9239 0.09325 0.94099 0.0
H3331 H 0.95056 0.10846 0.93132 0.0
H3332 H 0.9766 0.14342 0.96687 0.0
H3333 H 0.95436 0.13812 0.9888 0.0
C3334 C 0.92621 0.11787 0.98517 0.0
C3335 C 0.91212 0.10677 0.98161 0.0
C3336 C 0.93947 0.12026 0.97285 0.0
C3337 C 0.91169 0.09764 0.96574 0.0
C3338 C 0.92477 0.10011 0.9533 0.0
C3339 C 0.9514 0.11482 0.9439 0.0
C3340 C 0.96515 0.12642 0.94737 0.0
C3341 C 0.9386 0.11159 0.95661 0.0
C3342 C 0.96617 0.13443 0.96382 0.0
C3343 C 0.95342 0.13145 0.97639 0.0
H3344 H 0.64129 0.17339 0.74786 0.0
H3345 H 0.6719 0.14632 0.70938 0.0
H3346 H 0.6664 0.1698 0.68834 0.0
H3347 H 0.65112 0.1973 0.68046 0.0
H3348 H 0.62093 0.22377 0.71989 0.0
H3349 H 0.62803 0.20124 0.74087 0.0
C3350 C 0.64689 0.17265 0.73491 0.0
C3351 C 0.65686 0.15807 0.73015 0.0
C3352 C 0.64362 0.18606 0.72297 0.0
C3353 C 0.6642 0.15744 0.71338 0.0
C3354 C 0.66096 0.17081 0.70132 0.0
C3355 C 0.64619 0.19816 0.69366 0.0
C3356 C 0.63537 0.2122 0.69847 0.0
C3357 C 0.6504 0.18506 0.70588 0.0
C3358 C 0.62922 0.21315 0.71571 0.0
C3359 C 0.63326 0.20024 0.72779 0.0
H3360 H 0.55982 0.89742 0.43452 0.0
H3361 H 0.53216 0.86464 0.47094 0.0
H3362 H 0.55467 0.86947 0.49275 0.0
H3363 H 0.58305 0.88139 0.50097 0.0
H3364 H 0.61088 0.91439 0.46499 0.0
H3365 H 0.58743 0.91118 0.44364 0.0
C3366 C 0.55863 0.89147 0.44728 0.0
C3367 C 0.54434 0.88056 0.45098 0.0
C3368 C 0.5717 0.89426 0.45985 0.0
C3369 C 0.543 0.87304 0.46765 0.0
C3370 C 0.55591 0.87576 0.48016 0.0
C3371 C 0.58396 0.88798 0.4885 0.0
C3372 C 0.59879 0.89798 0.48454 0.0
C3373 C 0.57045 0.88608 0.47631 0.0
C3374 C 0.59963 0.90659 0.46839 0.0
C3375 C 0.58624 0.90472 0.45614 0.0
H3376 H 0.85526 0.85387 0.22546 0.0
H3377 H 0.88742 0.83116 0.26563 0.0
H3378 H 0.89219 0.80547 0.2476 0.0
H3379 H 0.88873 0.79017 0.21985 0.0
H3380 H 0.85788 0.81331 0.17893 0.0
H3381 H 0.85101 0.83798 0.19784 0.0
C3382 C 0.86316 0.84321 0.23032 0.0
C3383 C 0.87101 0.84448 0.24685 0.0
C3384 C 0.86615 0.82856 0.21972 0.0
C3385 C 0.88131 0.83059 0.25291 0.0
C3386 C 0.88404 0.81587 0.24262 0.0
C3387 C 0.88034 0.8005 0.21511 0.0
C3388 C 0.87386 0.79988 0.19798 0.0
C3389 C 0.87675 0.81482 0.22591 0.0
C3390 C 0.86309 0.81347 0.19205 0.0
C3391 C 0.85917 0.82761 0.20285 0.0
H3392 H 0.57874 0.95282 0.8988 0.0
H3393 H 0.54486 0.98108 0.86386 0.0
H3394 H 0.52187 0.95978 0.86855 0.0
H3395 H 0.51181 0.93234 0.88119 0.0
H3396 H 0.54511 0.90406 0.91658 0.0
H3397 H 0.56776 0.92622 0.91322 0.0
C3398 C 0.56629 0.95437 0.89231 0.0
C3399 C 0.56363 0.96848 0.88088 0.0
C3400 C 0.55299 0.94206 0.89511 0.0
C3401 C 0.54734 0.97035 0.87269 0.0
C3402 C 0.53415 0.95815 0.87533 0.0
C3403 C 0.52397 0.93107 0.88828 0.0
C3404 C 0.5268 0.9165 0.899 0.0
C3405 C 0.53691 0.94384 0.8863 0.0
C3406 C 0.54257 0.91516 0.90824 0.0
C3407 C 0.55557 0.9278 0.90626 0.0
H3408 H 0.84883 0.78913 0.6579 0.0
H3409 H 0.82659 0.7514 0.62263 0.0
H3410 H 0.80241 0.77107 0.61647 0.0
H3411 H 0.78831 0.79941 0.62 0.0
H3412 H 0.81107 0.83784 0.65414 0.0
H3413 H 0.83428 0.81745 0.66188 0.0
C3414 C 0.83859 0.78515 0.64901 0.0
C3415 C 0.83952 0.76882 0.64073 0.0
C3416 C 0.82487 0.79668 0.64525 0.0
C3417 C 0.82624 0.76392 0.62912 0.0
C3418 C 0.8124 0.77516 0.62558 0.0
C3419 C 0.79826 0.80331 0.62924 0.0
C3420 C 0.79794 0.82014 0.63647 0.0
C3421 C 0.8117 0.79165 0.6334 0.0
C3422 C 0.81102 0.82498 0.64835 0.0
C3423 C 0.8243 0.81333 0.65278 0.0
H3424 H 0.95878 0.04314 0.37982 0.0
H3425 H 0.91592 0.06872 0.40562 0.0
H3426 H 0.93533 0.09219 0.41492 0.0
H3427 H 0.96416 0.10654 0.41386 0.0
H3428 H 0.00636 0.08118 0.3868 0.0
H3429 H 0.98759 0.05649 0.38007 0.0
C3430 C 0.95367 0.05376 0.3876 0.0
C3431 C 0.93588 0.0542 0.39189 0.0
C3432 C 0.96482 0.0673 0.39269 0.0
C3433 C 0.92954 0.06808 0.40203 0.0
C3434 C 0.94064 0.08152 0.40736 0.0
C3435 C 0.96929 0.09546 0.40676 0.0
C3436 C 0.9866 0.0957 0.4008 0.0
C3437 C 0.95826 0.08142 0.40253 0.0
C3438 C 0.99304 0.08135 0.39145 0.0
C3439 C 0.98232 0.06723 0.38756 0.0
H3440 H 0.66248 0.22638 0.15094 0.0
H3441 H 0.68344 0.26822 0.11977 0.0
H3442 H 0.70995 0.25156 0.11476 0.0
H3443 H 0.72616 0.22439 0.11717 0.0
H3444 H 0.70487 0.1816 0.14679 0.0
H3445 H 0.67963 0.19938 0.15459 0.0
C3446 C 0.67297 0.2319 0.14327 0.0
C3447 C 0.67097 0.24845 0.13566 0.0
C3448 C 0.68808 0.22205 0.14006 0.0
C3449 C 0.6846 0.25543 0.12564 0.0
C3450 C 0.69978 0.24593 0.12276 0.0
C3451 C 0.71613 0.21898 0.12552 0.0
C3452 C 0.71738 0.20166 0.1313 0.0
C3453 C 0.7015 0.2291 0.12959 0.0
C3454 C 0.7042 0.19489 0.14208 0.0
C3455 C 0.68974 0.20504 0.14653 0.0
H3456 H 0.53881 0.03728 0.63137 0.0
H3457 H 0.58452 0.06026 0.60811 0.0
H3458 H 0.56765 0.08614 0.60021 0.0
H3459 H 0.5403 0.10317 0.60197 0.0
H3460 H 0.49538 0.08017 0.62674 0.0
H3461 H 0.51154 0.05338 0.63185 0.0
C3462 C 0.5451 0.04784 0.6244 0.0
C3463 C 0.56294 0.04684 0.62043 0.0
C3464 C 0.53545 0.06277 0.62024 0.0
C3465 C 0.57081 0.0607 0.61139 0.0
C3466 C 0.56118 0.07553 0.6069 0.0
C3467 C 0.53402 0.09219 0.60826 0.0
C3468 C 0.5167 0.0937 0.61405 0.0
C3469 C 0.54355 0.07685 0.61155 0.0
C3470 C 0.50875 0.07941 0.6223 0.0
C3471 C 0.51797 0.06406 0.62523 0.0
H3472 H 0.67836 0.75458 0.37341 0.0
H3473 H 0.65099 0.79362 0.34368 0.0
H3474 H 0.67473 0.81434 0.34878 0.0
H3475 H 0.70253 0.82189 0.36348 0.0
H3476 H 0.72941 0.78215 0.39294 0.0
H3477 H 0.70665 0.7613 0.38611 0.0
C3478 C 0.67762 0.76758 0.36791 0.0
C3479 C 0.66285 0.77256 0.3583 0.0
C3480 C 0.69122 0.77939 0.37095 0.0
C3481 C 0.66222 0.78942 0.35112 0.0
C3482 C 0.67576 0.80131 0.35412 0.0
C3483 C 0.70346 0.80864 0.36828 0.0
C3484 C 0.71765 0.80372 0.37885 0.0
C3485 C 0.69021 0.79654 0.36429 0.0
C3486 C 0.71865 0.78642 0.38486 0.0
C3487 C 0.70561 0.77442 0.38098 0.0
H3488 H 1.00058 0.92642 0.12225 0.0
H3489 H 0.96449 0.89909 0.089 0.0
H3490 H 0.94228 0.92134 0.09461 0.0
H3491 H 0.93261 0.94778 0.11063 0.0
H3492 H 0.96961 0.97467 0.14345 0.0
H3493 H 0.99182 0.95337 0.13638 0.0
C3494 C 0.98791 0.92538 0.11608 0.0
C3495 C 0.98417 0.91107 0.10532 0.0
C3496 C 0.97525 0.9381 0.11944 0.0
C3497 C 0.96773 0.91003 0.0973 0.0
C3498 C 0.95498 0.92269 0.10061 0.0
C3499 C 0.94555 0.94898 0.11616 0.0
C3500 C 0.94932 0.96278 0.12768 0.0
C3501 C 0.95849 0.93664 0.11193 0.0
C3502 C 0.96624 0.96422 0.13459 0.0
C3503 C 0.97902 0.95202 0.13057 0.0
H3504 H 0.83308 0.24971 0.87895 0.0
H3505 H 0.85588 0.21506 0.84108 0.0
H3506 H 0.83227 0.1942 0.84562 0.0
H3507 H 0.8058 0.18517 0.86143 0.0
H3508 H 0.78256 0.22049 0.89847 0.0
H3509 H 0.80556 0.24168 0.89308 0.0
C3510 C 0.83283 0.23763 0.87163 0.0
C3511 C 0.84629 0.2339 0.8598 0.0
C3512 C 0.81913 0.22577 0.87418 0.0
C3513 C 0.84567 0.21828 0.85026 0.0
C3514 C 0.8322 0.2063 0.85289 0.0
C3515 C 0.80571 0.19755 0.86823 0.0
C3516 C 0.79252 0.20115 0.88042 0.0
C3517 C 0.81895 0.20981 0.86497 0.0
C3518 C 0.79253 0.21734 0.889 0.0
C3519 C 0.80573 0.22947 0.88599 0.0
H3520 H 0.87524 0.53921 0.97127 0.0
H3521 H 0.90316 0.5829 0.94954 0.0
H3522 H 0.91148 0.56523 0.92437 0.0
H3523 H 0.90928 0.53782 0.90769 0.0
H3524 H 0.87997 0.49487 0.92907 0.0
H3525 H 0.87384 0.51178 0.95523 0.0
C3526 C 0.88331 0.54485 0.96114 0.0
C3527 C 0.88854 0.56237 0.9623 0.0
C3528 C 0.88772 0.53475 0.94656 0.0
C3529 C 0.89891 0.56946 0.94897 0.0
C3530 C 0.90365 0.55936 0.93455 0.0
C3531 C 0.90172 0.53211 0.91816 0.0
C3532 C 0.89506 0.51512 0.9164 0.0
C3533 C 0.89792 0.54206 0.93308 0.0
C3534 C 0.88517 0.50795 0.93004 0.0
C3535 C 0.88165 0.51761 0.94502 0.0
H3536 H 0.36886 0.96309 0.03939 0.0
H3537 H 0.40418 0.9238 0.05857 0.0
H3538 H 0.41315 0.94311 0.08223 0.0
H3539 H 0.40975 0.97055 0.09851 0.0
H3540 H 0.37315 0.00908 0.08021 0.0
H3541 H 0.36601 0.99077 0.05521 0.0
C3542 C 0.37866 0.95882 0.04863 0.0
C3543 C 0.38583 0.942 0.04718 0.0
C3544 C 0.38349 0.96985 0.06245 0.0
C3545 C 0.3984 0.93665 0.05939 0.0
C3546 C 0.40354 0.94769 0.07294 0.0
C3547 C 0.40037 0.97503 0.08894 0.0
C3548 C 0.39201 0.99118 0.09125 0.0
C3549 C 0.396 0.96423 0.07476 0.0
C3550 C 0.37974 0.99669 0.0788 0.0
C3551 C 0.37563 0.98622 0.06448 0.0
H3552 H 0.76035 0.6324 0.83892 0.0
H3553 H 0.79503 0.66986 0.86239 0.0
H3554 H 0.81642 0.66476 0.83934 0.0
H3555 H 0.82573 0.6488 0.8129 0.0
H3556 H 0.79028 0.61205 0.7893 0.0
H3557 H 0.76889 0.61775 0.81193 0.0
C3558 C 0.77254 0.63952 0.83897 0.0
C3559 C 0.77607 0.65143 0.85244 0.0
C3560 C 0.78475 0.6366 0.82564 0.0
C3561 C 0.79192 0.66064 0.85218 0.0
C3562 C 0.80421 0.65768 0.83902 0.0
C3563 C 0.81331 0.64209 0.8127 0.0
C3564 C 0.80973 0.62995 0.79941 0.0
C3565 C 0.80085 0.64555 0.82575 0.0
C3566 C 0.79347 0.62147 0.79931 0.0
C3567 C 0.78117 0.62469 0.81229 0.0
H3568 H 0.10958 0.0726 0.55794 0.0
H3569 H 0.1464 0.03685 0.53501 0.0
H3570 H 0.14005 0.01547 0.5576 0.0
H3571 H 0.1252 0.00735 0.58473 0.0
H3572 H 0.08784 0.04261 0.60745 0.0
H3573 H 0.09316 0.06359 0.58408 0.0
C3574 C 0.11613 0.06009 0.55781 0.0
C3575 C 0.12855 0.05644 0.5448 0.0
C3576 C 0.11236 0.04773 0.57086 0.0
C3577 C 0.13679 0.04007 0.54481 0.0
C3578 C 0.13321 0.02781 0.55778 0.0
C3579 C 0.11813 0.01958 0.58453 0.0
C3580 C 0.10622 0.02341 0.59792 0.0
C3581 C 0.1212 0.03157 0.571 0.0
C3582 C 0.09707 0.03928 0.59732 0.0
C3583 C 0.10016 0.05133 0.58398 0.0
H3584 H 0.25062 0.87427 0.83158 0.0
H3585 H 0.21333 0.84326 0.85989 0.0
H3586 H 0.19194 0.84743 0.83655 0.0
H3587 H 0.18335 0.86131 0.80862 0.0
H3588 H 0.2215 0.89148 0.78035 0.0
H3589 H 0.24291 0.88616 0.80306 0.0
C3590 C 0.23785 0.86832 0.83261 0.0
C3591 C 0.23356 0.85858 0.84752 0.0
C3592 C 0.22568 0.87069 0.81914 0.0
C3593 C 0.217 0.8508 0.84854 0.0
C3594 C 0.20473 0.85325 0.83522 0.0
C3595 C 0.19638 0.86661 0.80739 0.0
C3596 C 0.20069 0.87689 0.79279 0.0
C3597 C 0.20884 0.86339 0.82054 0.0
C3598 C 0.21772 0.88354 0.79139 0.0
C3599 C 0.23003 0.88055 0.80442 0.0
H3600 H 0.62925 0.50211 0.42429 0.0
H3601 H 0.5933 0.46888 0.39672 0.0
H3602 H 0.59681 0.44632 0.41901 0.0
H3603 H 0.61128 0.43557 0.44586 0.0
H3604 H 0.64674 0.46973 0.47314 0.0
H3605 H 0.64224 0.49225 0.45145 0.0
C3606 C 0.62209 0.48997 0.42318 0.0
C3607 C 0.61113 0.48714 0.40883 0.0
C3608 C 0.62417 0.47713 0.43597 0.0
C3609 C 0.60181 0.4714 0.40768 0.0
C3610 C 0.60388 0.45846 0.42038 0.0
C3611 C 0.61796 0.44796 0.44704 0.0
C3612 C 0.62939 0.45086 0.46108 0.0
C3613 C 0.61522 0.46108 0.4345 0.0
C3614 C 0.63786 0.46706 0.4625 0.0
C3615 C 0.63532 0.48001 0.45008 0.0
H3616 H 0.78589 0.35728 0.65632 0.0
H3617 H 0.74636 0.39149 0.67695 0.0
H3618 H 0.76443 0.39728 0.70247 0.0
H3619 H 0.79173 0.39337 0.71847 0.0
H3620 H 0.83204 0.36048 0.69724 0.0
H3621 H 0.81334 0.35335 0.67242 0.0
C3622 C 0.78119 0.36592 0.66646 0.0
C3623 C 0.76479 0.37393 0.66475 0.0
C3624 C 0.79179 0.36944 0.68096 0.0
C3625 C 0.75895 0.38521 0.67791 0.0
C3626 C 0.76927 0.38851 0.69253 0.0
C3627 C 0.79639 0.38451 0.7085 0.0
C3628 C 0.81323 0.37741 0.70973 0.0
C3629 C 0.78574 0.38079 0.69412 0.0
C3630 C 0.81913 0.36613 0.69659 0.0
C3631 C 0.80845 0.36206 0.6824 0.0
H3632 H 0.72063 0.6597 0.15642 0.0
H3633 H 0.75853 0.6228 0.17547 0.0
H3634 H 0.7398 0.61591 0.20017 0.0
H3635 H 0.71205 0.619 0.2154 0.0
H3636 H 0.67333 0.65476 0.19584 0.0
H3637 H 0.693 0.6635 0.17237 0.0
C3638 C 0.72486 0.65031 0.1661 0.0
C3639 C 0.74093 0.64175 0.16408 0.0
C3640 C 0.71383 0.64611 0.18012 0.0
C3641 C 0.74617 0.6295 0.17665 0.0
C3642 C 0.73547 0.62554 0.19079 0.0
C3643 C 0.70794 0.62883 0.20611 0.0
C3644 C 0.69121 0.63617 0.20737 0.0
C3645 C 0.71917 0.63356 0.1925 0.0
C3646 C 0.68611 0.64884 0.19515 0.0
C3647 C 0.69735 0.65384 0.18171 0.0
H3648 H 0.54138 0.64184 0.96595 0.0
H3649 H 0.55716 0.60417 0.92735 0.0
H3650 H 0.58151 0.59522 0.94577 0.0
H3651 H 0.59938 0.59927 0.97216 0.0
H3652 H 0.58421 0.63797 0.00998 0.0
H3653 H 0.55861 0.64522 0.99263 0.0
C3654 C 0.55002 0.63154 0.96164 0.0
C3655 C 0.54743 0.62372 0.94527 0.0
C3656 C 0.56422 0.62668 0.97214 0.0
C3657 C 0.55886 0.61047 0.93986 0.0
C3658 C 0.57282 0.60534 0.95039 0.0
C3659 C 0.59037 0.60916 0.97668 0.0
C3660 C 0.59376 0.61808 0.99233 0.0
C3661 C 0.57579 0.61353 0.96645 0.0
C3662 C 0.582 0.63096 0.99794 0.0
C3663 C 0.56733 0.63512 0.98803 0.0
H3664 H 0.62421 0.29167 0.20785 0.0
H3665 H 0.65185 0.31814 0.16667 0.0
H3666 H 0.66022 0.34124 0.18698 0.0
H3667 H 0.65802 0.35488 0.21612 0.0
H3668 H 0.62897 0.32873 0.25649 0.0
H3669 H 0.62302 0.30447 0.23688 0.0
C3670 C 0.63218 0.30241 0.20329 0.0
C3671 C 0.6373 0.30319 0.18572 0.0
C3672 C 0.63671 0.31573 0.21494 0.0
C3673 C 0.64764 0.31724 0.1801 0.0
C3674 C 0.65244 0.33046 0.19172 0.0
C3675 C 0.65065 0.34372 0.22066 0.0
C3676 C 0.64394 0.34358 0.23772 0.0
C3677 C 0.64685 0.32997 0.20913 0.0
C3678 C 0.63421 0.32916 0.2434 0.0
C3679 C 0.63077 0.3153 0.23219 0.0
H3680 H 0.94594 0.40109 0.43604 0.0
H3681 H 0.97334 0.37095 0.47493 0.0
H3682 H 0.95167 0.37856 0.49657 0.0
H3683 H 0.92421 0.39222 0.50432 0.0
H3684 H 0.89629 0.4228 0.46637 0.0
H3685 H 0.91898 0.41686 0.44467 0.0
C3686 C 0.94718 0.39628 0.44926 0.0
C3687 C 0.96122 0.38532 0.45373 0.0
C3688 C 0.9346 0.40081 0.46188 0.0
C3689 C 0.9627 0.37934 0.47101 0.0
C3690 C 0.95028 0.38368 0.48347 0.0
C3691 C 0.92315 0.39775 0.49135 0.0
C3692 C 0.90854 0.40783 0.48693 0.0
C3693 C 0.9361 0.39419 0.47901 0.0
C3694 C 0.90746 0.41504 0.47012 0.0
C3695 C 0.92036 0.41153 0.45768 0.0
H3696 H 0.84578 0.6577 0.7209 0.0
H3697 H 0.87415 0.68148 0.76321 0.0
H3698 H 0.88011 0.70698 0.74526 0.0
H3699 H 0.87953 0.72145 0.71685 0.0
H3700 H 0.85239 0.69733 0.67393 0.0
H3701 H 0.84363 0.67323 0.69277 0.0
C3702 C 0.853 0.66861 0.72626 0.0
C3703 C 0.85957 0.66764 0.74334 0.0
C3704 C 0.85677 0.68314 0.71569 0.0
C3705 C 0.86904 0.68183 0.75005 0.0
C3706 C 0.87249 0.69643 0.73979 0.0
C3707 C 0.87153 0.71105 0.71165 0.0
C3708 C 0.86675 0.7112 0.69396 0.0
C3709 C 0.86678 0.69705 0.72247 0.0
C3710 C 0.85636 0.69755 0.68747 0.0
C3711 C 0.85134 0.68372 0.69824 0.0
H3712 H 0.53636 0.37713 0.54015 0.0
H3713 H 0.56105 0.40079 0.58478 0.0
H3714 H 0.58464 0.41146 0.56629 0.0
H3715 H 0.59967 0.41168 0.53785 0.0
H3716 H 0.57536 0.38669 0.49376 0.0
H3717 H 0.55016 0.37918 0.51155 0.0
C3718 C 0.54679 0.38477 0.54583 0.0
C3719 C 0.54698 0.38799 0.56387 0.0
C3720 C 0.56045 0.39063 0.53519 0.0
C3721 C 0.5606 0.398 0.57096 0.0
C3722 C 0.57413 0.40412 0.56039 0.0
C3723 C 0.58868 0.40493 0.53208 0.0
C3724 C 0.5894 0.3997 0.51454 0.0
C3725 C 0.57438 0.40019 0.54254 0.0
C3726 C 0.57516 0.39077 0.50726 0.0
C3727 C 0.56076 0.38643 0.51744 0.0
H3728 H 0.84941 0.35028 0.7878 0.0
H3729 H 0.88066 0.33166 0.74499 0.0
H3730 H 0.88759 0.30524 0.76121 0.0
H3731 H 0.88656 0.28841 0.78818 0.0
H3732 H 0.85692 0.30752 0.83192 0.0
H3733 H 0.84752 0.33266 0.81472 0.0
C3734 C 0.85752 0.3403 0.78197 0.0
C3735 C 0.86453 0.34293 0.76523 0.0
C3736 C 0.86187 0.32529 0.79158 0.0
C3737 C 0.87519 0.32999 0.75789 0.0
C3738 C 0.87917 0.31488 0.76715 0.0
C3739 C 0.87788 0.29795 0.79393 0.0
C3740 C 0.87249 0.29607 0.81134 0.0
C3741 C 0.87286 0.31254 0.78412 0.0
C3742 C 0.86132 0.30866 0.81857 0.0
C3743 C 0.85595 0.32306 0.80874 0.0
H3744 H 0.907 0.59666 0.04373 0.0
H3745 H 0.92889 0.63139 0.00532 0.0
H3746 H 0.9527 0.6386 0.0251 0.0
H3747 H 0.96637 0.63642 0.05379 0.0
H3748 H 0.94387 0.60295 0.09297 0.0
H3749 H 0.92128 0.59386 0.07241 0.0
C3750 C 0.91712 0.60562 0.03962 0.0
C3751 C 0.91618 0.61347 0.02307 0.0
C3752 C 0.93058 0.61006 0.05125 0.0
C3753 C 0.92927 0.62522 0.01801 0.0
C3754 C 0.94289 0.62937 0.02932 0.0
C3755 C 0.95662 0.62703 0.05783 0.0
C3756 C 0.95681 0.62042 0.07493 0.0
C3757 C 0.94352 0.62209 0.04606 0.0
C3758 C 0.944 0.60831 0.07992 0.0
C3759 C 0.93108 0.60309 0.06816 0.0
H3760 H 0.6255 0.68119 0.2548 0.0
H3761 H 0.66243 0.65395 0.28728 0.0
H3762 H 0.65908 0.67606 0.30995 0.0
H3763 H 0.64427 0.7023 0.32125 0.0
H3764 H 0.60771 0.72948 0.28821 0.0
H3765 H 0.61238 0.70828 0.26515 0.0
C3766 C 0.63293 0.68014 0.26678 0.0
C3767 C 0.6441 0.66587 0.26937 0.0
C3768 C 0.63094 0.69287 0.27975 0.0
C3769 C 0.65374 0.66482 0.28492 0.0
C3770 C 0.65178 0.67742 0.29794 0.0
C3771 C 0.63742 0.70364 0.30897 0.0
C3772 C 0.62555 0.71741 0.30658 0.0
C3773 C 0.64019 0.69137 0.29562 0.0
C3774 C 0.61689 0.71901 0.29049 0.0
C3775 C 0.61952 0.70686 0.27725 0.0
H3776 H 0.9364 0.56024 0.61148 0.0
H3777 H 0.97651 0.53624 0.64281 0.0
H3778 H 0.99704 0.55875 0.63425 0.0
H3779 H 1.00328 0.58622 0.61947 0.0
H3780 H 0.96388 0.61035 0.5875 0.0
H3781 H 0.94356 0.58677 0.5945 0.0
C3782 C 0.94966 0.55988 0.61631 0.0
C3783 C 0.9548 0.54661 0.62791 0.0
C3784 C 0.96158 0.57291 0.61124 0.0
C3785 C 0.97211 0.54628 0.63392 0.0
C3786 C 0.98391 0.55919 0.62906 0.0
C3787 C 0.9903 0.58625 0.61389 0.0
C3788 C 0.98507 0.60009 0.60309 0.0
C3789 C 0.97872 0.5727 0.61796 0.0
C3790 C 0.96826 0.59982 0.59582 0.0
C3791 C 0.95659 0.58639 0.5999 0.0
H3792 H 0.67964 0.75445 0.87349 0.0
H3793 H 0.65021 0.715 0.84643 0.0
H3794 H 0.6734 0.69375 0.8519 0.0
H3795 H 0.70113 0.6859 0.86655 0.0
H3796 H 0.73015 0.72608 0.89323 0.0
H3797 H 0.70809 0.74741 0.88568 0.0
C3798 C 0.67836 0.74125 0.86862 0.0
C3799 C 0.66316 0.73629 0.85971 0.0
C3800 C 0.69164 0.72914 0.87188 0.0
C3801 C 0.6618 0.71917 0.85332 0.0
C3802 C 0.67501 0.70699 0.85654 0.0
C3803 C 0.70269 0.69935 0.87056 0.0
C3804 C 0.71724 0.70425 0.88063 0.0
C3805 C 0.68986 0.71173 0.86614 0.0
C3806 C 0.71908 0.72181 0.88559 0.0
C3807 C 0.70644 0.73409 0.88129 0.0
H3808 H 0.56966 0.44955 0.11098 0.0
H3809 H 0.53404 0.477 0.14467 0.0
H3810 H 0.51178 0.45497 0.13948 0.0
H3811 H 0.50273 0.42714 0.12641 0.0
H3812 H 0.53791 0.40019 0.09189 0.0
H3813 H 0.55986 0.42275 0.09629 0.0
C3814 C 0.557 0.45076 0.1171 0.0
C3815 C 0.55362 0.46489 0.12829 0.0
C3816 C 0.54412 0.43808 0.11395 0.0
C3817 C 0.53705 0.4663 0.13599 0.0
C3818 C 0.52428 0.45366 0.13307 0.0
C3819 C 0.51516 0.42626 0.11977 0.0
C3820 C 0.51866 0.41191 0.10892 0.0
C3821 C 0.52773 0.43938 0.12224 0.0
C3822 C 0.53481 0.41108 0.1003 0.0
C3823 C 0.54743 0.42396 0.10285 0.0
H3824 H 0.80823 0.32641 0.36039 0.0
H3825 H 0.7823 0.29071 0.39525 0.0
H3826 H 0.80498 0.26905 0.39033 0.0
H3827 H 0.83297 0.26064 0.37728 0.0
H3828 H 0.8584 0.2957 0.34148 0.0
H3829 H 0.83516 0.31707 0.34555 0.0
C3830 C 0.80748 0.31384 0.36681 0.0
C3831 C 0.79361 0.31028 0.37826 0.0
C3832 C 0.82054 0.3013 0.36381 0.0
C3833 C 0.79279 0.29385 0.38635 0.0
C3834 C 0.80581 0.28143 0.3836 0.0
C3835 C 0.83338 0.27292 0.3703 0.0
C3836 C 0.84748 0.2766 0.35919 0.0
C3837 C 0.81986 0.28509 0.37255 0.0
C3838 C 0.84769 0.29251 0.35009 0.0
C3839 C 0.83443 0.30478 0.35246 0.0
H3840 H 0.935 0.44959 0.89755 0.0
H3841 H 0.97013 0.47664 0.86296 0.0
H3842 H 0.9919 0.45391 0.86696 0.0
H3843 H 1.00032 0.42545 0.87875 0.0
H3844 H 0.96592 0.3987 0.91419 0.0
H3845 H 0.94459 0.42223 0.91148 0.0
C3846 C 0.94748 0.45058 0.89102 0.0
C3847 C 0.95084 0.46474 0.87985 0.0
C3848 C 0.96005 0.43747 0.89345 0.0
C3849 C 0.96716 0.46591 0.87162 0.0
C3850 C 0.97962 0.45286 0.87384 0.0
C3851 C 0.9882 0.42483 0.88596 0.0
C3852 C 0.98462 0.41028 0.8965 0.0
C3853 C 0.9761 0.43845 0.88447 0.0
C3854 C 0.96898 0.40976 0.90598 0.0
C3855 C 0.95675 0.42318 0.90439 0.0
H3856 H 0.7891 0.71695 0.12321 0.0
H3857 H 0.81219 0.67398 0.15118 0.0
H3858 H 0.83612 0.69283 0.16061 0.0
H3859 H 0.85138 0.72117 0.15937 0.0
H3860 H 0.82876 0.76331 0.1298 0.0
H3861 H 0.80368 0.74516 0.12267 0.0
C3862 C 0.79927 0.7117 0.13151 0.0
C3863 C 0.79885 0.69405 0.13645 0.0
C3864 C 0.81311 0.72248 0.13657 0.0
C3865 C 0.81221 0.6875 0.14713 0.0
C3866 C 0.8259 0.69827 0.15253 0.0
C3867 C 0.84083 0.72642 0.15157 0.0
C3868 C 0.84191 0.74355 0.14512 0.0
C3869 C 0.82661 0.71574 0.14712 0.0
C3870 C 0.82827 0.75014 0.13486 0.0
C3871 C 0.81392 0.73977 0.13076 0.0
H3872 H 0.53695 0.60139 0.4063 0.0
H3873 H 0.4968 0.58314 0.3714 0.0
H3874 H 0.51481 0.55827 0.36333 0.0
H3875 H 0.54253 0.54254 0.3649 0.0
H3876 H 0.58317 0.56122 0.39899 0.0
H3877 H 0.56438 0.58496 0.40868 0.0
C3878 C 0.53207 0.59187 0.39707 0.0
C3879 C 0.51555 0.59419 0.38944 0.0
C3880 C 0.54262 0.5777 0.39225 0.0
C3881 C 0.50948 0.58176 0.37742 0.0
C3882 C 0.51978 0.56751 0.37278 0.0
C3883 C 0.54725 0.5517 0.37457 0.0
C3884 C 0.56428 0.55009 0.38114 0.0
C3885 C 0.53646 0.56548 0.37991 0.0
C3886 C 0.57015 0.56215 0.39363 0.0
C3887 C 0.55941 0.57576 0.39919 0.0
H3888 H 0.66058 0.28992 0.66307 0.0
H3889 H 0.68198 0.24881 0.63132 0.0
H3890 H 0.70721 0.26682 0.6245 0.0
H3891 H 0.72175 0.29521 0.62509 0.0
H3892 H 0.69969 0.33698 0.65552 0.0
H3893 H 0.67638 0.31778 0.66539 0.0
C3894 C 0.67093 0.28482 0.65492 0.0
C3895 C 0.66935 0.26811 0.64763 0.0
C3896 C 0.68525 0.29544 0.65065 0.0
C3897 C 0.68281 0.2617 0.63699 0.0
C3898 C 0.69725 0.272 0.63305 0.0
C3899 C 0.712 0.30005 0.63409 0.0
C3900 C 0.71241 0.31755 0.63943 0.0
C3901 C 0.69839 0.28905 0.63942 0.0
C3902 C 0.69963 0.3236 0.65108 0.0
C3903 C 0.68625 0.31262 0.65673 0.0
H3904 H 0.61229 0.93344 0.55398 0.0
H3905 H 0.65221 0.96678 0.5326 0.0
H3906 H 0.64613 0.98866 0.55475 0.0
H3907 H 0.63067 0.99775 0.58117 0.0
H3908 H 0.59019 0.96499 0.60228 0.0
H3909 H 0.5952 0.94361 0.57923 0.0
C3910 C 0.61957 0.94555 0.5541 0.0
C3911 C 0.63278 0.94836 0.5417 0.0
C3912 C 0.61595 0.9582 0.56687 0.0
C3913 C 0.64198 0.96421 0.54196 0.0
C3914 C 0.63855 0.97675 0.55467 0.0
C3915 C 0.62286 0.98599 0.58066 0.0
C3916 C 0.61017 0.98293 0.59352 0.0
C3917 C 0.62575 0.97378 0.56734 0.0
C3918 C 0.60003 0.9677 0.59255 0.0
C3919 C 0.60294 0.95542 0.5794 0.0
H3920 H 0.14197 0.54337 0.46664 0.0
H3921 H 0.10652 0.58347 0.44946 0.0
H3922 H 0.09691 0.56495 0.4254 0.0
H3923 H 0.09988 0.53801 0.40821 0.0
H3924 H 0.13664 0.49878 0.42464 0.0
H3925 H 0.14434 0.51626 0.45003 0.0
C3926 C 0.132 0.548 0.45775 0.0
C3927 C 0.12499 0.56478 0.45984 0.0
C3928 C 0.12683 0.53745 0.44373 0.0
C3929 C 0.11218 0.57062 0.44811 0.0
C3930 C 0.10668 0.56004 0.43434 0.0
C3931 C 0.10943 0.53322 0.41746 0.0
C3932 C 0.11769 0.51714 0.41451 0.0
C3933 C 0.1141 0.54353 0.43187 0.0
C3934 C 0.13016 0.51116 0.42654 0.0
C3935 C 0.13457 0.52114 0.44108 0.0
H3936 H 0.71475 0.88784 0.72484 0.0
H3937 H 0.67322 0.85858 0.70073 0.0
H3938 H 0.69254 0.85062 0.67672 0.0
H3939 H 0.72048 0.85429 0.66127 0.0
H3940 H 0.76117 0.88501 0.68499 0.0
H3941 H 0.74297 0.88994 0.7105 0.0
C3942 C 0.70994 0.87954 0.71446 0.0
C3943 C 0.69252 0.87394 0.71453 0.0
C3944 C 0.72097 0.87535 0.70054 0.0
C3945 C 0.68656 0.86316 0.70096 0.0
C3946 C 0.69759 0.85863 0.6872 0.0
C3947 C 0.72543 0.86182 0.67216 0.0
C3948 C 0.74208 0.86937 0.67121 0.0
C3949 C 0.71471 0.86499 0.68665 0.0
C3950 C 0.74832 0.87919 0.68534 0.0
C3951 C 0.73793 0.88203 0.69994 0.0
H3952 H 0.3841 0.5038 0.92452 0.0
H3953 H 0.41584 0.46403 0.90074 0.0
H3954 H 0.40978 0.44437 0.92509 0.0
H3955 H 0.39392 0.43793 0.95229 0.0
H3956 H 0.3627 0.47825 0.97603 0.0
H3957 H 0.3702 0.49821 0.95259 0.0
C3958 C 0.38979 0.49087 0.92471 0.0
C3959 C 0.40026 0.48533 0.91078 0.0
C3960 C 0.38629 0.47969 0.93872 0.0
C3961 C 0.40772 0.46861 0.91132 0.0
C3962 C 0.4042 0.45734 0.9252 0.0
C3963 C 0.38887 0.45112 0.9524 0.0
C3964 C 0.37764 0.45649 0.96584 0.0
C3965 C 0.39327 0.46264 0.93885 0.0
C3966 C 0.37134 0.4737 0.96585 0.0
C3967 C 0.37558 0.48516 0.95241 0.0
H3968 H 0.29456 0.62388 0.72231 0.0
H3969 H 0.33845 0.64905 0.69783 0.0
H3970 H 0.32026 0.6566 0.67272 0.0
H3971 H 0.29231 0.654 0.65678 0.0
H3972 H 0.24921 0.62752 0.68132 0.0
H3973 H 0.26666 0.62266 0.70736 0.0
C3974 C 0.30017 0.63116 0.71158 0.0
C3975 C 0.31789 0.63578 0.71193 0.0
C3976 C 0.28977 0.63516 0.69712 0.0
C3977 C 0.32486 0.64527 0.69789 0.0
C3978 C 0.31447 0.64956 0.68351 0.0
C3979 C 0.2867 0.6474 0.66794 0.0
C3980 C 0.26953 0.64104 0.66707 0.0
C3981 C 0.29697 0.64429 0.68283 0.0
C3982 C 0.26245 0.6324 0.68158 0.0
C3983 C 0.27241 0.62961 0.6965 0.0
H3984 H 0.87343 0.03704 0.03757 0.0
H3985 H 0.9006 0.08197 0.05764 0.0
H3986 H 0.91025 0.06507 0.08287 0.0
H3987 H 0.90919 0.03798 0.10035 0.0
H3988 H 0.88074 0.99376 0.08047 0.0
H3989 H 0.87357 0.00985 0.05408 0.0
C3990 C 0.88161 0.04313 0.04736 0.0
C3991 C 0.88619 0.06079 0.04571 0.0
C3992 C 0.88687 0.03344 0.06196 0.0
C3993 C 0.8968 0.06842 0.05858 0.0
C3994 C 0.90233 0.05876 0.07304 0.0
C3995 C 0.90166 0.03182 0.09011 0.0
C3996 C 0.89545 0.01472 0.09242 0.0
C3997 C 0.8972 0.04132 0.07503 0.0
C3998 C 0.88557 0.00695 0.07909 0.0
C3999 C 0.88144 0.01614 0.06397 0.0
H4000 H 0.75366 0.13127 0.83214 0.0
H4001 H 0.71563 0.16486 0.85622 0.0
H4002 H 0.69537 0.1594 0.83221 0.0
H4003 H 0.68787 0.14367 0.80505 0.0
H4004 H 0.72654 0.11057 0.78114 0.0
H4005 H 0.74702 0.11732 0.80432 0.0
C4006 C 0.74098 0.1375 0.8321 0.0
C4007 C 0.73614 0.14835 0.84604 0.0
C4008 C 0.72942 0.13433 0.81828 0.0
C4009 C 0.71972 0.15645 0.84566 0.0
C4010 C 0.70808 0.15328 0.83196 0.0
C4011 C 0.70081 0.13804 0.80486 0.0
C4012 C 0.70554 0.12652 0.79138 0.0
C4013 C 0.71269 0.14202 0.8183 0.0
C4014 C 0.72245 0.11944 0.79132 0.0
C4015 C 0.73422 0.12326 0.80461 0.0
H4016 H 0.83288 0.85964 0.31374 0.0
H4017 H 0.79673 0.89322 0.28665 0.0
H4018 H 0.77376 0.88521 0.30687 0.0
H4019 H 0.76421 0.87021 0.33317 0.0
H4020 H 0.79965 0.83632 0.36061 0.0
H4021 H 0.82245 0.84267 0.3392 0.0
C4022 C 0.81995 0.86512 0.31223 0.0
C4023 C 0.81665 0.87715 0.29875 0.0
C4024 C 0.80662 0.86039 0.32395 0.0
C4025 C 0.79974 0.88399 0.2969 0.0
C4026 C 0.78654 0.87943 0.30848 0.0
C4027 C 0.77686 0.86405 0.3344 0.0
C4028 C 0.78024 0.85291 0.34854 0.0
C4029 C 0.78989 0.86785 0.32217 0.0
C4030 C 0.79667 0.84492 0.34982 0.0
C4031 C 0.80976 0.84865 0.33764 0.0
H4032 H 0.44707 0.39976 0.0736 0.0
H4033 H 0.47102 0.36582 0.03569 0.0
H4034 H 0.44851 0.37309 0.01458 0.0
H4035 H 0.42109 0.38758 0.00736 0.0
H4036 H 0.39717 0.42209 0.04466 0.0
H4037 H 0.42066 0.41623 0.06542 0.0
C4038 C 0.44743 0.39406 0.06068 0.0
C4039 C 0.46066 0.38213 0.05634 0.0
C4040 C 0.43442 0.39836 0.04848 0.0
C4041 C 0.461 0.37501 0.03946 0.0
C4042 C 0.4481 0.37912 0.02735 0.0
C4043 C 0.42108 0.39393 0.01999 0.0
C4044 C 0.40733 0.40513 0.02452 0.0
C4045 C 0.4346 0.39054 0.0318 0.0
C4046 C 0.40761 0.41342 0.04084 0.0
C4047 C 0.421 0.41001 0.05275 0.0
H4048 H 0.38172 0.67909 0.76122 0.0
H4049 H 0.34475 0.65359 0.79495 0.0
H4050 H 0.34864 0.67653 0.81679 0.0
H4051 H 0.36404 0.70301 0.82697 0.0
H4052 H 0.40053 0.72833 0.79243 0.0
H4053 H 0.39528 0.70633 0.77031 0.0
C4054 C 0.37441 0.67859 0.7733 0.0
C4055 C 0.36308 0.66458 0.77651 0.0
C4056 C 0.3767 0.69177 0.78573 0.0
C4057 C 0.35355 0.66425 0.79214 0.0
C4058 C 0.35583 0.67732 0.80467 0.0
C4059 C 0.37074 0.70376 0.81456 0.0
C4060 C 0.38278 0.71727 0.81149 0.0
C4061 C 0.36761 0.69102 0.80173 0.0
C4062 C 0.39124 0.7181 0.79525 0.0
C4063 C 0.38827 0.70548 0.78254 0.0
H4064 H 0.08307 0.63237 0.50257 0.0
H4065 H 0.10801 0.59778 0.53917 0.0
H4066 H 0.08423 0.60221 0.5599 0.0
H4067 H 0.05687 0.61704 0.56811 0.0
H4068 H 0.03178 0.65079 0.53071 0.0
H4069 H 0.05501 0.64548 0.50988 0.0
C4070 C 0.08327 0.62574 0.51505 0.0
C4071 C 0.09733 0.61489 0.51937 0.0
C4072 C 0.06952 0.62822 0.52682 0.0
C4073 C 0.0973 0.60621 0.53552 0.0
C4074 C 0.08374 0.60878 0.54741 0.0
C4075 C 0.05645 0.62313 0.55537 0.0
C4076 C 0.04264 0.63438 0.55107 0.0
C4077 C 0.06986 0.61992 0.54328 0.0
C4078 C 0.04223 0.64207 0.53442 0.0
C4079 C 0.05555 0.63909 0.52247 0.0
H4080 H 0.12007 0.28622 0.29881 0.0
H4081 H 0.15243 0.30933 0.33855 0.0
H4082 H 0.16037 0.33287 0.31862 0.0
H4083 H 0.15606 0.34825 0.29072 0.0
H4084 H 0.12208 0.32587 0.25193 0.0
H4085 H 0.11697 0.30066 0.27059 0.0
C4086 C 0.12906 0.29626 0.30305 0.0
C4087 C 0.13558 0.29604 0.32017 0.0
C4088 C 0.1332 0.30998 0.2917 0.0
C4089 C 0.14714 0.30923 0.32546 0.0
C4090 C 0.15167 0.32272 0.31408 0.0
C4091 C 0.14776 0.33771 0.28627 0.0
C4092 C 0.13941 0.33895 0.27001 0.0
C4093 C 0.14448 0.32344 0.29729 0.0
C4094 C 0.12856 0.32528 0.26446 0.0
C4095 C 0.12562 0.31086 0.27512 0.0
H4096 H 0.44995 0.60886 0.43141 0.0
H4097 H 0.47789 0.64001 0.46901 0.0
H4098 H 0.45624 0.63312 0.49113 0.0
H4099 H 0.42836 0.62002 0.49933 0.0
H4100 H 0.40045 0.58831 0.46228 0.0
H4101 H 0.42318 0.59348 0.44052 0.0
C4102 C 0.45138 0.61401 0.44448 0.0
C4103 C 0.46547 0.62509 0.44845 0.0
C4104 C 0.43886 0.60994 0.45725 0.0
C4105 C 0.46719 0.6315 0.46553 0.0
C4106 C 0.45477 0.62761 0.47821 0.0
C4107 C 0.42731 0.6141 0.48654 0.0
C4108 C 0.41265 0.60393 0.48238 0.0
C4109 C 0.4404 0.61711 0.47414 0.0
C4110 C 0.41161 0.59618 0.46583 0.0
C4111 C 0.42456 0.59921 0.45335 0.0
H4112 H 0.14455 0.70009 0.18763 0.0
H4113 H 0.1073 0.72321 0.22279 0.0
H4114 H 0.11404 0.70121 0.24473 0.0
H4115 H 0.12934 0.67444 0.25341 0.0
H4116 H 0.16694 0.65158 0.21846 0.0
H4117 H 0.16133 0.67448 0.19713 0.0
C4118 C 0.13798 0.70039 0.20013 0.0
C4119 C 0.12533 0.71324 0.20346 0.0
C4120 C 0.14196 0.6877 0.21276 0.0
C4121 C 0.11707 0.71348 0.21982 0.0
C4122 C 0.12089 0.70087 0.23239 0.0
C4123 C 0.13642 0.67454 0.24119 0.0
C4124 C 0.14847 0.66121 0.23754 0.0
C4125 C 0.13313 0.68777 0.22893 0.0
C4126 C 0.1576 0.66165 0.22166 0.0
C4127 C 0.15435 0.67472 0.20939 0.0
H4128 H 0.10181 0.40945 0.96439 0.0
H4129 H 0.08262 0.37965 0.00805 0.0
H4130 H 0.05698 0.37125 0.99137 0.0
H4131 H 0.04093 0.3707 0.96397 0.0
H4132 H 0.0603 0.39923 0.91957 0.0
H4133 H 0.08485 0.40982 0.93694 0.0
C4134 C 0.09188 0.40132 0.97029 0.0
C4135 C 0.09415 0.39515 0.98741 0.0
C4136 C 0.07726 0.39618 0.96046 0.0
C4137 C 0.08125 0.38449 0.99485 0.0
C4138 C 0.06657 0.37966 0.98533 0.0
C4139 C 0.05042 0.37934 0.95808 0.0
C4140 C 0.04879 0.38408 0.94046 0.0
C4141 C 0.0646 0.38515 0.96804 0.0
C4142 C 0.06126 0.39531 0.93309 0.0
C4143 C 0.07532 0.40137 0.94302 0.0
H4144 H 0.38306 0.28597 0.70468 0.0
H4145 H 0.35636 0.31459 0.6643 0.0
H4146 H 0.34962 0.33781 0.68512 0.0
H4147 H 0.35329 0.35089 0.71439 0.0
H4148 H 0.3815 0.32241 0.75385 0.0
H4149 H 0.38555 0.29816 0.7338 0.0
C4150 C 0.37563 0.29719 0.7004 0.0
C4151 C 0.37031 0.29856 0.68291 0.0
C4152 C 0.37212 0.31057 0.71229 0.0
C4153 C 0.36066 0.31322 0.67767 0.0
C4154 C 0.35684 0.32652 0.68957 0.0
C4155 C 0.36009 0.33926 0.71864 0.0
C4156 C 0.36714 0.33846 0.73555 0.0
C4157 C 0.36277 0.32547 0.70685 0.0
C4158 C 0.37606 0.32339 0.74086 0.0
C4159 C 0.37839 0.30951 0.7294 0.0
H4160 H 0.04004 0.47093 0.37592 0.0
H4161 H 0.08414 0.44881 0.40288 0.0
H4162 H 0.06597 0.42477 0.41322 0.0
H4163 H 0.03795 0.40896 0.41291 0.0
H4164 H 0.99459 0.43046 0.38433 0.0
H4165 H 0.01201 0.45586 0.37649 0.0
C4166 C 0.04567 0.46096 0.38421 0.0
C4167 C 0.06345 0.46167 0.38856 0.0
C4168 C 0.03526 0.44701 0.3898 0.0
C4169 C 0.07051 0.44856 0.39926 0.0
C4170 C 0.06012 0.4348 0.40518 0.0
C4171 C 0.03227 0.41935 0.4052 0.0
C4172 C 0.01502 0.41784 0.39921 0.0
C4173 C 0.04254 0.43374 0.40031 0.0
C4174 C 0.00787 0.43129 0.38904 0.0
C4175 C 0.01782 0.44581 0.38453 0.0
H4176 H 0.28439 0.29276 0.12349 0.0
H4177 H 0.30629 0.33613 0.15175 0.0
H4178 H 0.33108 0.31811 0.1605 0.0
H4179 H 0.34765 0.29053 0.1582 0.0
H4180 H 0.32616 0.24814 0.12819 0.0
H4181 H 0.30007 0.2652 0.12221 0.0
C4182 C 0.29447 0.29826 0.13173 0.0
C4183 C 0.29349 0.31579 0.1369 0.0
C4184 C 0.30883 0.28798 0.13636 0.0
C4185 C 0.30674 0.32268 0.14752 0.0
C4186 C 0.32094 0.31238 0.15252 0.0
C4187 C 0.33711 0.28499 0.15059 0.0
C4188 C 0.33882 0.26813 0.14361 0.0
C4189 C 0.32229 0.29509 0.14675 0.0
C4190 C 0.32518 0.26114 0.1336 0.0
C4191 C 0.31026 0.27088 0.13016 0.0
H4192 H 0.43721 0.55415 0.89511 0.0
H4193 H 0.47541 0.527 0.864 0.0
H4194 H 0.49684 0.54948 0.87031 0.0
H4195 H 0.50409 0.57788 0.88262 0.0
H4196 H 0.46643 0.60522 0.91405 0.0
H4197 H 0.44549 0.58152 0.90982 0.0
C4198 C 0.45027 0.55307 0.88985 0.0
C4199 C 0.45461 0.53901 0.87892 0.0
C4200 C 0.46261 0.5661 0.89352 0.0
C4201 C 0.47166 0.53771 0.87237 0.0
C4202 C 0.48394 0.55059 0.87593 0.0
C4203 C 0.49134 0.57859 0.88867 0.0
C4204 C 0.48672 0.59334 0.89844 0.0
C4205 C 0.47944 0.565 0.88616 0.0
C4206 C 0.47028 0.59398 0.90644 0.0
C4207 C 0.45828 0.58048 0.90395 0.0
H4208 H 0.20199 0.67764 0.64751 0.0
H4209 H 0.22816 0.71135 0.61085 0.0
H4210 H 0.20653 0.73394 0.61574 0.0
H4211 H 0.17949 0.74378 0.62926 0.0
H4212 H 0.15331 0.71088 0.66653 0.0
H4213 H 0.17568 0.68847 0.66271 0.0
C4214 C 0.20299 0.68996 0.64067 0.0
C4215 C 0.21665 0.69269 0.62873 0.0
C4216 C 0.19049 0.70307 0.64364 0.0
C4217 C 0.21782 0.70882 0.6201 0.0
C4218 C 0.20541 0.72178 0.62285 0.0
C4219 C 0.17871 0.73175 0.63664 0.0
C4220 C 0.16468 0.72896 0.64806 0.0
C4221 C 0.1916 0.71899 0.63442 0.0
C4222 C 0.16399 0.71338 0.65767 0.0
C4223 C 0.17674 0.70052 0.65542 0.0
H4224 H 0.04262 0.53571 0.14335 0.0
H4225 H 0.08159 0.55917 0.11033 0.0
H4226 H 0.06171 0.58317 0.10368 0.0
H4227 H 0.03383 0.59842 0.10878 0.0
H4228 H 0.9957 0.57519 0.14294 0.0
H4229 H 0.01465 0.55015 0.1475 0.0
C4230 C 0.04676 0.54597 0.13456 0.0
C4231 C 0.06361 0.54564 0.12741 0.0
C4232 C 0.03541 0.55984 0.13105 0.0
C4233 C 0.06871 0.5591 0.11607 0.0
C4234 C 0.05735 0.57285 0.11228 0.0
C4235 C 0.02961 0.58778 0.11705 0.0
C4236 C 0.0134 0.58872 0.12555 0.0
C4237 C 0.04075 0.5735 0.11991 0.0
C4238 C 0.00815 0.57486 0.13633 0.0
C4239 C 0.01898 0.56052 0.13895 0.0
H4240 H 0.22499 0.29222 0.88439 0.0
H4241 H 0.20097 0.3344 0.85601 0.0
H4242 H 0.17601 0.31579 0.8492 0.0
H4243 H 0.15996 0.28814 0.85334 0.0
H4244 H 0.18366 0.24697 0.88343 0.0
H4245 H 0.20978 0.26453 0.88742 0.0
C4246 C 0.21442 0.29732 0.87651 0.0
C4247 C 0.21485 0.3147 0.87077 0.0
C4248 C 0.19995 0.28673 0.87305 0.0
C4249 C 0.20096 0.32107 0.86065 0.0
C4250 C 0.18665 0.31045 0.85678 0.0
C4251 C 0.17095 0.28297 0.86057 0.0
C4252 C 0.16985 0.26632 0.86815 0.0
C4253 C 0.18584 0.29335 0.86321 0.0
C4254 C 0.18412 0.25981 0.87759 0.0
C4255 C 0.19908 0.26983 0.87988 0.0
H4256 H 0.43754 0.45108 0.61479 0.0
H4257 H 0.47134 0.47491 0.65291 0.0
H4258 H 0.49299 0.4522 0.64828 0.0
H4259 H 0.50204 0.42492 0.63423 0.0
H4260 H 0.46879 0.40151 0.59541 0.0
H4261 H 0.44738 0.42465 0.59946 0.0
C4262 C 0.44968 0.45135 0.62201 0.0
C4263 C 0.45271 0.46467 0.63423 0.0
C4264 C 0.46222 0.43826 0.61921 0.0
C4265 C 0.4686 0.46486 0.64339 0.0
C4266 C 0.48102 0.45183 0.64081 0.0
C4267 C 0.49013 0.42491 0.62662 0.0
C4268 C 0.48702 0.41143 0.61461 0.0
C4269 C 0.47791 0.43836 0.62888 0.0
C4270 C 0.47157 0.41173 0.60473 0.0
C4271 C 0.45927 0.42494 0.60707 0.0
H4272 H 0.28866 0.72127 0.37781 0.0
H4273 H 0.31367 0.67471 0.35872 0.0
H4274 H 0.33804 0.69211 0.34785 0.0
H4275 H 0.35353 0.72036 0.34629 0.0
H4276 H 0.3287 0.76635 0.36685 0.0
H4277 H 0.30291 0.74943 0.37434 0.0
C4278 C 0.29935 0.7149 0.37114 0.0
C4279 C 0.2994 0.69669 0.36927 0.0
C4280 C 0.3134 0.72492 0.36516 0.0
C4281 C 0.31333 0.68871 0.36045 0.0
C4282 C 0.32729 0.69865 0.35423 0.0
C4283 C 0.3423 0.72669 0.35205 0.0
C4284 C 0.343 0.74455 0.35606 0.0
C4285 C 0.32764 0.71674 0.35683 0.0
C4286 C 0.32847 0.75259 0.36372 0.0
C4287 C 0.31374 0.74292 0.36807 0.0
H4288 H 0.37583 0.04024 0.47343 0.0
H4289 H 0.40269 0.08361 0.44978 0.0
H4290 H 0.41073 0.06533 0.425 0.0
H4291 H 0.40783 0.03768 0.40882 0.0
H4292 H 0.3797 0.995 0.43227 0.0
H4293 H 0.37461 0.01231 0.45834 0.0
C4294 C 0.38363 0.04567 0.46298 0.0
C4295 C 0.38851 0.06331 0.46342 0.0
C4296 C 0.3879 0.03522 0.44863 0.0
C4297 C 0.39866 0.07008 0.44975 0.0
C4298 C 0.40324 0.05965 0.43553 0.0
C4299 C 0.40082 0.03211 0.41975 0.0
C4300 C 0.39404 0.01514 0.41854 0.0
C4301 C 0.39759 0.04229 0.43464 0.0
C4302 C 0.38492 0.00811 0.43278 0.0
C4303 C 0.38199 0.01799 0.44772 0.0
H4304 H 0.89522 0.43937 0.5607 0.0
H4305 H 0.85747 0.47561 0.54005 0.0
H4306 H 0.8647 0.49647 0.56274 0.0
H4307 H 0.88096 0.50432 0.58896 0.0
H4308 H 0.91934 0.46888 0.60965 0.0
H4309 H 0.91277 0.44801 0.58645 0.0
C4310 C 0.88863 0.45185 0.56116 0.0
C4311 C 0.87575 0.45581 0.54867 0.0
C4312 C 0.89296 0.464 0.57426 0.0
C4313 C 0.86743 0.47213 0.54942 0.0
C4314 C 0.87153 0.48412 0.56244 0.0
C4315 C 0.88797 0.49207 0.58837 0.0
C4316 C 0.90056 0.48818 0.60111 0.0
C4317 C 0.88417 0.48017 0.57499 0.0
C4318 C 0.9096 0.47227 0.60002 0.0
C4319 C 0.90579 0.46028 0.58677 0.0
H4320 H 0.32595 0.14759 0.31002 0.0
H4321 H 0.28861 0.11448 0.28397 0.0
H4322 H 0.26701 0.12095 0.30605 0.0
H4323 H 0.25896 0.13448 0.33353 0.0
H4324 H 0.29529 0.16814 0.36001 0.0
H4325 H 0.31684 0.16323 0.33693 0.0
C4326 C 0.31306 0.14189 0.30915 0.0
C4327 C 0.30905 0.13043 0.29537 0.0
C4328 C 0.30045 0.14577 0.32197 0.0
C4329 C 0.29218 0.12329 0.29439 0.0
C4330 C 0.27975 0.12697 0.30705 0.0
C4331 C 0.27154 0.14089 0.3342 0.0
C4332 C 0.27555 0.15155 0.34852 0.0
C4333 C 0.2838 0.13797 0.32099 0.0
C4334 C 0.29184 0.15991 0.34908 0.0
C4335 C 0.30421 0.157 0.33594 0.0
H4336 H 0.63408 0.54117 0.03933 0.0
H4337 H 0.60752 0.58533 0.06172 0.0
H4338 H 0.59754 0.56723 0.08595 0.0
H4339 H 0.5977 0.53915 0.10169 0.0
H4340 H 0.62556 0.49555 0.0798 0.0
H4341 H 0.63352 0.51306 0.0545 0.0
C4342 C 0.62597 0.54683 0.04941 0.0
C4343 C 0.6216 0.56462 0.04866 0.0
C4344 C 0.62052 0.53642 0.06348 0.0
C4345 C 0.61115 0.5717 0.06195 0.0
C4346 C 0.60543 0.56135 0.07584 0.0
C4347 C 0.60532 0.53343 0.09127 0.0
C4348 C 0.61101 0.51604 0.09267 0.0
C4349 C 0.61021 0.54373 0.07687 0.0
C4350 C 0.62105 0.5089 0.07912 0.0
C4351 C 0.62563 0.51892 0.06463 0.0
H4352 H 0.71398 0.38847 0.29023 0.0
H4353 H 0.67118 0.35975 0.31261 0.0
H4354 H 0.68969 0.35094 0.33704 0.0
H4355 H 0.71785 0.35244 0.35274 0.0
H4356 H 0.76001 0.38223 0.33049 0.0
H4357 H 0.74199 0.38942 0.30536 0.0
C4358 C 0.70868 0.38019 0.30037 0.0
C4359 C 0.69116 0.37482 0.29953 0.0
C4360 C 0.71932 0.37536 0.31448 0.0
C4361 C 0.68458 0.36413 0.31289 0.0
C4362 C 0.69518 0.35907 0.32689 0.0
C4363 C 0.72314 0.36035 0.34229 0.0
C4364 C 0.74029 0.36678 0.34355 0.0
C4365 C 0.71255 0.36474 0.32792 0.0
C4366 C 0.74686 0.37715 0.32995 0.0
C4367 C 0.73655 0.38129 0.31554 0.0
H4368 H 0.12978 1.00215 0.92591 0.0
H4369 H 0.09457 0.9643 0.90391 0.0
H4370 H 0.09929 0.94511 0.92893 0.0
H4371 H 0.11472 0.93845 0.95632 0.0
H4372 H 0.14911 0.97695 0.97864 0.0
H4373 H 0.14327 0.99655 0.95434 0.0
C4374 C 0.12308 0.98973 0.92663 0.0
C4375 C 0.11199 0.98457 0.913 0.0
C4376 C 0.12571 0.97887 0.94112 0.0
C4377 C 0.10319 0.96856 0.91423 0.0
C4378 C 0.10593 0.95756 0.92851 0.0
C4379 C 0.12081 0.95119 0.95594 0.0
C4380 C 0.13244 0.95614 0.96924 0.0
C4381 C 0.11734 0.96248 0.94193 0.0
C4382 C 0.1401 0.97277 0.96861 0.0
C4383 C 0.13684 0.98398 0.95466 0.0
H4384 H 0.32298 0.85925 0.20118 0.0
H4385 H 0.28532 0.89383 0.22459 0.0
H4386 H 0.26363 0.88506 0.20317 0.0
H4387 H 0.25592 0.86929 0.1766 0.0
H4388 H 0.29314 0.8344 0.15308 0.0
H4389 H 0.31431 0.84139 0.17587 0.0
C4390 C 0.30999 0.86476 0.20167 0.0
C4391 C 0.30588 0.87733 0.21438 0.0
C4392 C 0.29748 0.85963 0.18929 0.0
C4393 C 0.2889 0.88419 0.21493 0.0
C4394 C 0.27647 0.87921 0.20266 0.0
C4395 C 0.2686 0.86306 0.17655 0.0
C4396 C 0.273 0.85147 0.16307 0.0
C4397 C 0.2807 0.86719 0.18961 0.0
C4398 C 0.28941 0.84337 0.16331 0.0
C4399 C 0.30157 0.84744 0.17629 0.0
H4400 H 0.21602 0.12416 0.72448 0.0
H4401 H 0.17213 0.14769 0.69836 0.0
H4402 H 0.19069 0.15499 0.67348 0.0
H4403 H 0.21892 0.15241 0.65817 0.0
H4404 H 0.26192 0.1271 0.68407 0.0
H4405 H 0.2442 0.12291 0.71006 0.0
C4406 C 0.2105 0.13106 0.71345 0.0
C4407 C 0.19268 0.13527 0.71326 0.0
C4408 C 0.22109 0.13483 0.69909 0.0
C4409 C 0.1858 0.14422 0.69882 0.0
C4410 C 0.19639 0.14837 0.68457 0.0
C4411 C 0.22444 0.14623 0.66962 0.0
C4412 C 0.24167 0.14001 0.6692 0.0
C4413 C 0.21399 0.14342 0.68441 0.0
C4414 C 0.24865 0.13188 0.68405 0.0
C4415 C 0.23853 0.12947 0.69891 0.0
loop_
_geom_bond_atom_site_label_1
_geom_bond_atom_site_label_2
_geom_bond_distance
_geom_bond_site_symmetry_2
_ccdc_geom_bond_type
C0 O2 1.247 . S
C0 O4 1.258 . S
C1 O8 1.247 . S
C1 O9 1.258 . S
O2 C0 1.247 . S
O2 Zn3 2.028 1_655 S
Zn3 O2 2.028 1_455 S
Zn3 O7 2.035 . S
Zn3 O9 2.035 . S
Zn3 O10 2.028 1_455 S
O4 C0 1.258 . S
O4 Zn5 2.035 1_655 S
Zn5 O4 2.035 1_455 S
Zn5 O6 2.028 . S
Zn5 O8 2.028 . S
Zn5 O11 2.035 1_455 S
O6 Zn5 2.028 . S
O6 C12 1.247 . S
O7 Zn3 2.035 . S
O7 C12 1.258 . S
O8 C1 1.247 . S
O8 Zn5 2.028 . S
O9 C1 1.258 . S
O9 Zn3 2.035 . S
O10 Zn3 2.028 1_655 S
O10 C13 1.247 . S
O11 Zn5 2.035 1_655 S
O11 C13 1.258 . S
C12 O6 1.247 . S
C12 O7 1.258 . S
C13 O10 1.247 . S
C13 O11 1.258 . S
C14 O16 1.247 . S
C14 O18 1.258 . S
C15 O22 1.247 . S
C15 O23 1.258 . S
O16 C14 1.247 . S
O16 Zn17 2.028 . S
Zn17 O16 2.028 . S
Zn17 O21 2.035 . S
Zn17 O23 2.035 . S
Zn17 O24 2.028 . S
O18 C14 1.258 . S
O18 Zn19 2.035 . S
Zn19 O18 2.035 . S
Zn19 O20 2.028 . S
Zn19 O22 2.028 . S
Zn19 O25 2.035 . S
O20 Zn19 2.028 . S
O20 C26 1.247 . S
O21 Zn17 2.035 . S
O21 C26 1.258 . S
O22 C15 1.247 . S
O22 Zn19 2.028 . S
O23 C15 1.258 . S
O23 Zn17 2.035 . S
O24 Zn17 2.028 . S
O24 C27 1.247 . S
O25 Zn19 2.035 . S
O25 C27 1.258 . S
C26 O20 1.247 . S
C26 O21 1.258 . S
C27 O24 1.247 . S
C27 O25 1.258 . S
C28 O30 1.247 . S
C28 O32 1.258 . S
C29 O36 1.247 . S
C29 O37 1.258 . S
O30 C28 1.247 . S
O30 Zn31 2.028 . S
Zn31 O30 2.028 . S
Zn31 O35 2.035 . S
Zn31 O37 2.035 . S
Zn31 O38 2.028 . S
O32 C28 1.258 . S
O32 Zn33 2.035 . S
Zn33 O32 2.035 . S
Zn33 O34 2.028 . S
Zn33 O36 2.028 . S
Zn33 O39 2.035 . S
O34 Zn33 2.028 . S
O34 C40 1.247 . S
O35 Zn31 2.035 . S
O35 C40 1.258 . S
O36 C29 1.247 . S
O36 Zn33 2.028 . S
O37 C29 1.258 . S
O37 Zn31 2.035 . S
O38 Zn31 2.028 . S
O38 C41 1.247 . S
O39 Zn33 2.035 . S
O39 C41 1.258 . S
C40 O34 1.247 . S
C40 O35 1.258 . S
C41 O38 1.247 . S
C41 O39 1.258 . S
C42 O44 1.247 . S
C42 O46 1.258 . S
C43 O50 1.247 . S
C43 O51 1.258 . S
O44 C42 1.247 . S
O44 Zn45 2.028 . S
Zn45 O44 2.028 . S
Zn45 O49 2.035 . S
Zn45 O51 2.035 . S
Zn45 O52 2.028 . S
O46 C42 1.258 . S
O46 Zn47 2.035 . S
Zn47 O46 2.035 . S
Zn47 O48 2.028 . S
Zn47 O50 2.028 . S
Zn47 O53 2.035 . S
O48 Zn47 2.028 . S
O48 C54 1.247 . S
O49 Zn45 2.035 . S
O49 C54 1.258 . S
O50 C43 1.247 . S
O50 Zn47 2.028 . S
O51 C43 1.258 . S
O51 Zn45 2.035 . S
O52 Zn45 2.028 . S
O52 C55 1.247 . S
O53 Zn47 2.035 . S
O53 C55 1.258 . S
C54 O48 1.247 . S
C54 O49 1.258 . S
C55 O52 1.247 . S
C55 O53 1.258 . S
C56 O58 1.247 . S
C56 O60 1.258 . S
C57 O64 1.247 . S
C57 O65 1.258 . S
O58 C56 1.247 . S
O58 Zn59 2.028 . S
Zn59 O58 2.028 . S
Zn59 O63 2.035 1_455 S
Zn59 O65 2.035 1_455 S
Zn59 O66 2.028 . S
O60 C56 1.258 . S
O60 Zn61 2.035 . S
Zn61 O60 2.035 . S
Zn61 O62 2.028 1_455 S
Zn61 O64 2.028 1_455 S
Zn61 O67 2.035 . S
O62 Zn61 2.028 1_655 S
O62 C68 1.247 . S
O63 Zn59 2.035 1_655 S
O63 C68 1.258 . S
O64 C57 1.247 . S
O64 Zn61 2.028 1_655 S
O65 C57 1.258 . S
O65 Zn59 2.035 1_655 S
O66 Zn59 2.028 . S
O66 C69 1.247 . S
O67 Zn61 2.035 . S
O67 C69 1.258 . S
C68 O62 1.247 . S
C68 O63 1.258 . S
C69 O66 1.247 . S
C69 O67 1.258 . S
C70 O72 1.247 . S
C70 O74 1.258 . S
C71 O78 1.247 . S
C71 O79 1.258 . S
O72 C70 1.247 . S
O72 Zn73 2.028 . S
Zn73 O72 2.028 . S
Zn73 O77 2.035 . S
Zn73 O79 2.035 . S
Zn73 O80 2.028 . S
O74 C70 1.258 . S
O74 Zn75 2.035 . S
Zn75 O74 2.035 . S
Zn75 O76 2.028 . S
Zn75 O78 2.028 . S
Zn75 O81 2.035 . S
O76 Zn75 2.028 . S
O76 C82 1.247 . S
O77 Zn73 2.035 . S
O77 C82 1.258 . S
O78 C71 1.247 . S
O78 Zn75 2.028 . S
O79 C71 1.258 . S
O79 Zn73 2.035 . S
O80 Zn73 2.028 . S
O80 C83 1.247 . S
O81 Zn75 2.035 . S
O81 C83 1.258 . S
C82 O76 1.247 . S
C82 O77 1.258 . S
C83 O80 1.247 . S
C83 O81 1.258 . S
C84 O86 1.247 . S
C84 O88 1.258 . S
C85 O92 1.247 . S
C85 O93 1.258 . S
O86 C84 1.247 . S
O86 Zn87 2.028 . S
Zn87 O86 2.028 . S
Zn87 O91 2.035 . S
Zn87 O93 2.035 . S
Zn87 O94 2.028 . S
O88 C84 1.258 . S
O88 Zn89 2.035 . S
Zn89 O88 2.035 . S
Zn89 O90 2.028 . S
Zn89 O92 2.028 . S
Zn89 O95 2.035 . S
O90 Zn89 2.028 . S
O90 C96 1.247 . S
O91 Zn87 2.035 . S
O91 C96 1.258 . S
O92 C85 1.247 . S
O92 Zn89 2.028 . S
O93 C85 1.258 . S
O93 Zn87 2.035 . S
O94 Zn87 2.028 . S
O94 C97 1.247 . S
O95 Zn89 2.035 . S
O95 C97 1.258 . S
C96 O90 1.247 . S
C96 O91 1.258 . S
C97 O94 1.247 . S
C97 O95 1.258 . S
C98 O100 1.247 . S
C98 O102 1.258 . S
C99 O106 1.247 . S
C99 O107 1.258 . S
O100 C98 1.247 . S
O100 Zn101 2.028 . S
Zn101 O100 2.028 . S
Zn101 O105 2.035 . S
Zn101 O107 2.035 . S
Zn101 O108 2.028 . S
O102 C98 1.258 . S
O102 Zn103 2.035 . S
Zn103 O102 2.035 . S
Zn103 O104 2.028 . S
Zn103 O106 2.028 . S
Zn103 O109 2.035 . S
O104 Zn103 2.028 . S
O104 C110 1.247 . S
O105 Zn101 2.035 . S
O105 C110 1.258 . S
O106 C99 1.247 . S
O106 Zn103 2.028 . S
O107 C99 1.258 . S
O107 Zn101 2.035 . S
O108 Zn101 2.028 . S
O108 C111 1.247 . S
O109 Zn103 2.035 . S
O109 C111 1.258 . S
C110 O104 1.247 . S
C110 O105 1.258 . S
C111 O108 1.247 . S
C111 O109 1.258 . S
C112 O114 1.247 . S
C112 O116 1.258 . S
C113 O120 1.247 . S
C113 O121 1.258 . S
O114 C112 1.247 . S
O114 Zn115 2.028 . S
Zn115 O114 2.028 . S
Zn115 O119 2.035 1_545 S
Zn115 O121 2.035 1_545 S
Zn115 O122 2.028 . S
O116 C112 1.258 . S
O116 Zn117 2.035 . S
Zn117 O116 2.035 . S
Zn117 O118 2.028 1_545 S
Zn117 O120 2.028 1_545 S
Zn117 O123 2.035 . S
O118 Zn117 2.028 1_565 S
O118 C124 1.247 . S
O119 Zn115 2.035 1_565 S
O119 C124 1.258 . S
O120 C113 1.247 . S
O120 Zn117 2.028 1_565 S
O121 C113 1.258 . S
O121 Zn115 2.035 1_565 S
O122 Zn115 2.028 . S
O122 C125 1.247 . S
O123 Zn117 2.035 . S
O123 C125 1.258 . S
C124 O118 1.247 . S
C124 O119 1.258 . S
C125 O122 1.247 . S
C125 O123 1.258 . S
C126 O128 1.247 . S
C126 O130 1.258 . S
C127 O134 1.247 . S
C127 O135 1.258 . S
O128 C126 1.247 . S
O128 Zn129 2.028 . S
Zn129 O128 2.028 . S
Zn129 O133 2.035 . S
Zn129 O135 2.035 . S
Zn129 O136 2.028 . S
O130 C126 1.258 . S
O130 Zn131 2.035 . S
Zn131 O130 2.035 . S
Zn131 O132 2.028 . S
Zn131 O134 2.028 . S
Zn131 O137 2.035 . S
O132 Zn131 2.028 . S
O132 C138 1.247 . S
O133 Zn129 2.035 . S
O133 C138 1.258 . S
O134 C127 1.247 . S
O134 Zn131 2.028 . S
O135 C127 1.258 . S
O135 Zn129 2.035 . S
O136 Zn129 2.028 . S
O136 C139 1.247 . S
O137 Zn131 2.035 . S
O137 C139 1.258 . S
C138 O132 1.247 . S
C138 O133 1.258 . S
C139 O136 1.247 . S
C139 O137 1.258 . S
C140 O142 1.247 . S
C140 O144 1.258 . S
C141 O148 1.247 . S
C141 O149 1.258 . S
O142 C140 1.247 . S
O142 Zn143 2.028 . S
Zn143 O142 2.028 . S
Zn143 O147 2.035 1_565 S
Zn143 O149 2.035 1_565 S
Zn143 O150 2.028 . S
O144 C140 1.258 . S
O144 Zn145 2.035 . S
Zn145 O144 2.035 . S
Zn145 O146 2.028 1_565 S
Zn145 O148 2.028 1_565 S
Zn145 O151 2.035 . S
O146 Zn145 2.028 1_545 S
O146 C152 1.247 . S
O147 Zn143 2.035 1_545 S
O147 C152 1.258 . S
O148 C141 1.247 . S
O148 Zn145 2.028 1_545 S
O149 C141 1.258 . S
O149 Zn143 2.035 1_545 S
O150 Zn143 2.028 . S
O150 C153 1.247 . S
O151 Zn145 2.035 . S
O151 C153 1.258 . S
C152 O146 1.247 . S
C152 O147 1.258 . S
C153 O150 1.247 . S
C153 O151 1.258 . S
C154 O156 1.247 . S
C154 O158 1.258 . S
C155 O162 1.247 . S
C155 O163 1.258 . S
O156 C154 1.247 . S
O156 Zn157 2.028 . S
Zn157 O156 2.028 . S
Zn157 O161 2.035 . S
Zn157 O163 2.035 . S
Zn157 O164 2.028 . S
O158 C154 1.258 . S
O158 Zn159 2.035 . S
Zn159 O158 2.035 . S
Zn159 O160 2.028 . S
Zn159 O162 2.028 . S
Zn159 O165 2.035 . S
O160 Zn159 2.028 . S
O160 C166 1.247 . S
O161 Zn157 2.035 . S
O161 C166 1.258 . S
O162 C155 1.247 . S
O162 Zn159 2.028 . S
O163 C155 1.258 . S
O163 Zn157 2.035 . S
O164 Zn157 2.028 . S
O164 C167 1.247 . S
O165 Zn159 2.035 . S
O165 C167 1.258 . S
C166 O160 1.247 . S
C166 O161 1.258 . S
C167 O164 1.247 . S
C167 O165 1.258 . S
C168 O170 1.247 . S
C168 O172 1.258 . S
C169 O176 1.247 . S
C169 O177 1.258 . S
O170 C168 1.247 . S
O170 Zn171 2.028 . S
Zn171 O170 2.028 . S
Zn171 O175 2.035 1_565 S
Zn171 O177 2.035 1_565 S
Zn171 O178 2.028 . S
O172 C168 1.258 . S
O172 Zn173 2.035 . S
Zn173 O172 2.035 . S
Zn173 O174 2.028 1_565 S
Zn173 O176 2.028 1_565 S
Zn173 O179 2.035 . S
O174 Zn173 2.028 1_545 S
O174 C180 1.247 . S
O175 Zn171 2.035 1_545 S
O175 C180 1.258 . S
O176 C169 1.247 . S
O176 Zn173 2.028 1_545 S
O177 C169 1.258 . S
O177 Zn171 2.035 1_545 S
O178 Zn171 2.028 . S
O178 C181 1.247 . S
O179 Zn173 2.035 . S
O179 C181 1.258 . S
C180 O174 1.247 . S
C180 O175 1.258 . S
C181 O178 1.247 . S
C181 O179 1.258 . S
C182 O184 1.247 . S
C182 O186 1.258 . S
C183 O190 1.247 . S
C183 O191 1.258 . S
O184 C182 1.247 . S
O184 Zn185 2.028 . S
Zn185 O184 2.028 . S
Zn185 O189 2.035 . S
Zn185 O191 2.035 . S
Zn185 O192 2.028 . S
O186 C182 1.258 . S
O186 Zn187 2.035 . S
Zn187 O186 2.035 . S
Zn187 O188 2.028 . S
Zn187 O190 2.028 . S
Zn187 O193 2.035 . S
O188 Zn187 2.028 . S
O188 C194 1.247 . S
O189 Zn185 2.035 . S
O189 C194 1.258 . S
O190 C183 1.247 . S
O190 Zn187 2.028 . S
O191 C183 1.258 . S
O191 Zn185 2.035 . S
O192 Zn185 2.028 . S
O192 C195 1.247 . S
O193 Zn187 2.035 . S
O193 C195 1.258 . S
C194 O188 1.247 . S
C194 O189 1.258 . S
C195 O192 1.247 . S
C195 O193 1.258 . S
C196 O198 1.247 . S
C196 O200 1.258 . S
C197 O204 1.247 . S
C197 O205 1.258 . S
O198 C196 1.247 . S
O198 Zn199 2.028 1_565 S
Zn199 O198 2.028 1_545 S
Zn199 O203 2.035 . S
Zn199 O205 2.035 . S
Zn199 O206 2.028 1_545 S
O200 C196 1.258 . S
O200 Zn201 2.035 1_565 S
Zn201 O200 2.035 1_545 S
Zn201 O202 2.028 . S
Zn201 O204 2.028 . S
Zn201 O207 2.035 1_545 S
O202 Zn201 2.028 . S
O202 C208 1.247 . S
O203 Zn199 2.035 . S
O203 C208 1.258 . S
O204 C197 1.247 . S
O204 Zn201 2.028 . S
O205 C197 1.258 . S
O205 Zn199 2.035 . S
O206 Zn199 2.028 1_565 S
O206 C209 1.247 . S
O207 Zn201 2.035 1_565 S
O207 C209 1.258 . S
C208 O202 1.247 . S
C208 O203 1.258 . S
C209 O206 1.247 . S
C209 O207 1.258 . S
C210 O212 1.247 . S
C210 O214 1.258 . S
C211 O218 1.247 . S
C211 O219 1.258 . S
O212 C210 1.247 . S
O212 Zn213 2.028 . S
Zn213 O212 2.028 . S
Zn213 O217 2.035 . S
Zn213 O219 2.035 . S
Zn213 O220 2.028 . S
O214 C210 1.258 . S
O214 Zn215 2.035 . S
Zn215 O214 2.035 . S
Zn215 O216 2.028 . S
Zn215 O218 2.028 . S
Zn215 O221 2.035 . S
O216 Zn215 2.028 . S
O216 C222 1.247 . S
O217 Zn213 2.035 . S
O217 C222 1.258 . S
O218 C211 1.247 . S
O218 Zn215 2.028 . S
O219 C211 1.258 . S
O219 Zn213 2.035 . S
O220 Zn213 2.028 . S
O220 C223 1.247 . S
O221 Zn215 2.035 . S
O221 C223 1.258 . S
C222 O216 1.247 . S
C222 O217 1.258 . S
C223 O220 1.247 . S
C223 O221 1.258 . S
C224 O226 1.247 . S
C224 O228 1.258 . S
C225 O232 1.247 . S
C225 O233 1.258 . S
O226 C224 1.247 . S
O226 Zn227 2.028 1_556 S
Zn227 O226 2.028 1_554 S
Zn227 O231 2.035 . S
Zn227 O233 2.035 . S
Zn227 O234 2.028 1_554 S
O228 C224 1.258 . S
O228 Zn229 2.035 1_556 S
Zn229 O228 2.035 1_554 S
Zn229 O230 2.028 . S
Zn229 O232 2.028 . S
Zn229 O235 2.035 1_554 S
O230 Zn229 2.028 . S
O230 C236 1.247 . S
O231 Zn227 2.035 . S
O231 C236 1.258 . S
O232 C225 1.247 . S
O232 Zn229 2.028 . S
O233 C225 1.258 . S
O233 Zn227 2.035 . S
O234 Zn227 2.028 1_556 S
O234 C237 1.247 . S
O235 Zn229 2.035 1_556 S
O235 C237 1.258 . S
C236 O230 1.247 . S
C236 O231 1.258 . S
C237 O234 1.247 . S
C237 O235 1.258 . S
C238 O240 1.247 . S
C238 O242 1.258 . S
C239 O246 1.247 . S
C239 O247 1.258 . S
O240 C238 1.247 . S
O240 Zn241 2.028 1_554 S
Zn241 O240 2.028 1_556 S
Zn241 O245 2.035 . S
Zn241 O247 2.035 . S
Zn241 O248 2.028 1_556 S
O242 C238 1.258 . S
O242 Zn243 2.035 1_554 S
Zn243 O242 2.035 1_556 S
Zn243 O244 2.028 . S
Zn243 O246 2.028 . S
Zn243 O249 2.035 1_556 S
O244 Zn243 2.028 . S
O244 C250 1.247 . S
O245 Zn241 2.035 . S
O245 C250 1.258 . S
O246 C239 1.247 . S
O246 Zn243 2.028 . S
O247 C239 1.258 . S
O247 Zn241 2.035 . S
O248 Zn241 2.028 1_554 S
O248 C251 1.247 . S
O249 Zn243 2.035 1_554 S
O249 C251 1.258 . S
C250 O244 1.247 . S
C250 O245 1.258 . S
C251 O248 1.247 . S
C251 O249 1.258 . S
C252 O254 1.247 . S
C252 O256 1.258 . S
C253 O260 1.247 . S
C253 O261 1.258 . S
O254 C252 1.247 . S
O254 Zn255 2.028 . S
Zn255 O254 2.028 . S
Zn255 O259 2.035 . S
Zn255 O261 2.035 . S
Zn255 O262 2.028 . S
O256 C252 1.258 . S
O256 Zn257 2.035 . S
Zn257 O256 2.035 . S
Zn257 O258 2.028 . S
Zn257 O260 2.028 . S
Zn257 O263 2.035 . S
O258 Zn257 2.028 . S
O258 C264 1.247 . S
O259 Zn255 2.035 . S
O259 C264 1.258 . S
O260 C253 1.247 . S
O260 Zn257 2.028 . S
O261 C253 1.258 . S
O261 Zn255 2.035 . S
O262 Zn255 2.028 . S
O262 C265 1.247 . S
O263 Zn257 2.035 . S
O263 C265 1.258 . S
C264 O258 1.247 . S
C264 O259 1.258 . S
C265 O262 1.247 . S
C265 O263 1.258 . S
C266 O268 1.247 . S
C266 O270 1.258 . S
C267 O274 1.247 . S
C267 O275 1.258 . S
O268 C266 1.247 . S
O268 Zn269 2.028 . S
Zn269 O268 2.028 . S
Zn269 O273 2.035 . S
Zn269 O275 2.035 . S
Zn269 O276 2.028 . S
O270 C266 1.258 . S
O270 Zn271 2.035 . S
Zn271 O270 2.035 . S
Zn271 O272 2.028 . S
Zn271 O274 2.028 . S
Zn271 O277 2.035 . S
O272 Zn271 2.028 . S
O272 C278 1.247 . S
O273 Zn269 2.035 . S
O273 C278 1.258 . S
O274 C267 1.247 . S
O274 Zn271 2.028 . S
O275 C267 1.258 . S
O275 Zn269 2.035 . S
O276 Zn269 2.028 . S
O276 C279 1.247 . S
O277 Zn271 2.035 . S
O277 C279 1.258 . S
C278 O272 1.247 . S
C278 O273 1.258 . S
C279 O276 1.247 . S
C279 O277 1.258 . S
C280 O282 1.247 . S
C280 O284 1.258 . S
C281 O288 1.247 . S
C281 O289 1.258 . S
O282 C280 1.247 . S
O282 Zn283 2.028 . S
Zn283 O282 2.028 . S
Zn283 O287 2.035 . S
Zn283 O289 2.035 . S
Zn283 O290 2.028 . S
O284 C280 1.258 . S
O284 Zn285 2.035 . S
Zn285 O284 2.035 . S
Zn285 O286 2.028 . S
Zn285 O288 2.028 . S
Zn285 O291 2.035 . S
O286 Zn285 2.028 . S
O286 C292 1.247 . S
O287 Zn283 2.035 . S
O287 C292 1.258 . S
O288 C281 1.247 . S
O288 Zn285 2.028 . S
O289 C281 1.258 . S
O289 Zn283 2.035 . S
O290 Zn283 2.028 . S
O290 C293 1.247 . S
O291 Zn285 2.035 . S
O291 C293 1.258 . S
C292 O286 1.247 . S
C292 O287 1.258 . S
C293 O290 1.247 . S
C293 O291 1.258 . S
C294 O296 1.247 . S
C294 O298 1.258 . S
C295 O302 1.247 . S
C295 O303 1.258 . S
O296 C294 1.247 . S
O296 Zn297 2.028 . S
Zn297 O296 2.028 . S
Zn297 O301 2.035 . S
Zn297 O303 2.035 . S
Zn297 O304 2.028 . S
O298 C294 1.258 . S
O298 Zn299 2.035 . S
Zn299 O298 2.035 . S
Zn299 O300 2.028 . S
Zn299 O302 2.028 . S
Zn299 O305 2.035 . S
O300 Zn299 2.028 . S
O300 C306 1.247 . S
O301 Zn297 2.035 . S
O301 C306 1.258 . S
O302 C295 1.247 . S
O302 Zn299 2.028 . S
O303 C295 1.258 . S
O303 Zn297 2.035 . S
O304 Zn297 2.028 . S
O304 C307 1.247 . S
O305 Zn299 2.035 . S
O305 C307 1.258 . S
C306 O300 1.247 . S
C306 O301 1.258 . S
C307 O304 1.247 . S
C307 O305 1.258 . S
C308 O310 1.247 . S
C308 O312 1.258 . S
C309 O316 1.247 . S
C309 O317 1.258 . S
O310 C308 1.247 . S
O310 Zn311 2.028 . S
Zn311 O310 2.028 . S
Zn311 O315 2.035 . S
Zn311 O317 2.035 . S
Zn311 O318 2.028 . S
O312 C308 1.258 . S
O312 Zn313 2.035 . S
Zn313 O312 2.035 . S
Zn313 O314 2.028 . S
Zn313 O316 2.028 . S
Zn313 O319 2.035 . S
O314 Zn313 2.028 . S
O314 C320 1.247 . S
O315 Zn311 2.035 . S
O315 C320 1.258 . S
O316 C309 1.247 . S
O316 Zn313 2.028 . S
O317 C309 1.258 . S
O317 Zn311 2.035 . S
O318 Zn311 2.028 . S
O318 C321 1.247 . S
O319 Zn313 2.035 . S
O319 C321 1.258 . S
C320 O314 1.247 . S
C320 O315 1.258 . S
C321 O318 1.247 . S
C321 O319 1.258 . S
C322 O324 1.247 . S
C322 O326 1.258 . S
C323 O330 1.247 . S
C323 O331 1.258 . S
O324 C322 1.247 . S
O324 Zn325 2.028 . S
Zn325 O324 2.028 . S
Zn325 O329 2.035 . S
Zn325 O331 2.035 . S
Zn325 O332 2.028 . S
O326 C322 1.258 . S
O326 Zn327 2.035 . S
Zn327 O326 2.035 . S
Zn327 O328 2.028 . S
Zn327 O330 2.028 . S
Zn327 O333 2.035 . S
O328 Zn327 2.028 . S
O328 C334 1.247 . S
O329 Zn325 2.035 . S
O329 C334 1.258 . S
O330 C323 1.247 . S
O330 Zn327 2.028 . S
O331 C323 1.258 . S
O331 Zn325 2.035 . S
O332 Zn325 2.028 . S
O332 C335 1.247 . S
O333 Zn327 2.035 . S
O333 C335 1.258 . S
C334 O328 1.247 . S
C334 O329 1.258 . S
C335 O332 1.247 . S
C335 O333 1.258 . S
C336 O338 1.247 . S
C336 O340 1.258 . S
C337 O344 1.247 . S
C337 O345 1.258 . S
O338 C336 1.247 . S
O338 Zn339 2.028 . S
Zn339 O338 2.028 . S
Zn339 O343 2.035 1_655 S
Zn339 O345 2.035 1_655 S
Zn339 O346 2.028 . S
O340 C336 1.258 . S
O340 Zn341 2.035 . S
Zn341 O340 2.035 . S
Zn341 O342 2.028 1_655 S
Zn341 O344 2.028 1_655 S
Zn341 O347 2.035 . S
O342 Zn341 2.028 1_455 S
O342 C348 1.247 . S
O343 Zn339 2.035 1_455 S
O343 C348 1.258 . S
O344 C337 1.247 . S
O344 Zn341 2.028 1_455 S
O345 C337 1.258 . S
O345 Zn339 2.035 1_455 S
O346 Zn339 2.028 . S
O346 C349 1.247 . S
O347 Zn341 2.035 . S
O347 C349 1.258 . S
C348 O342 1.247 . S
C348 O343 1.258 . S
C349 O346 1.247 . S
C349 O347 1.258 . S
C350 O352 1.247 . S
C350 O354 1.258 . S
C351 O358 1.247 . S
C351 O359 1.258 . S
O352 C350 1.247 . S
O352 Zn353 2.028 . S
Zn353 O352 2.028 . S
Zn353 O357 2.035 . S
Zn353 O359 2.035 . S
Zn353 O360 2.028 . S
O354 C350 1.258 . S
O354 Zn355 2.035 . S
Zn355 O354 2.035 . S
Zn355 O356 2.028 . S
Zn355 O358 2.028 . S
Zn355 O361 2.035 . S
O356 Zn355 2.028 . S
O356 C362 1.247 . S
O357 Zn353 2.035 . S
O357 C362 1.258 . S
O358 C351 1.247 . S
O358 Zn355 2.028 . S
O359 C351 1.258 . S
O359 Zn353 2.035 . S
O360 Zn353 2.028 . S
O360 C363 1.247 . S
O361 Zn355 2.035 . S
O361 C363 1.258 . S
C362 O356 1.247 . S
C362 O357 1.258 . S
C363 O360 1.247 . S
C363 O361 1.258 . S
C364 O366 1.247 . S
C364 O368 1.258 . S
C365 O372 1.247 . S
C365 O373 1.258 . S
O366 C364 1.247 . S
O366 Zn367 2.028 . S
Zn367 O366 2.028 . S
Zn367 O371 2.035 . S
Zn367 O373 2.035 . S
Zn367 O374 2.028 . S
O368 C364 1.258 . S
O368 Zn369 2.035 . S
Zn369 O368 2.035 . S
Zn369 O370 2.028 . S
Zn369 O372 2.028 . S
Zn369 O375 2.035 . S
O370 Zn369 2.028 . S
O370 C376 1.247 . S
O371 Zn367 2.035 . S
O371 C376 1.258 . S
O372 C365 1.247 . S
O372 Zn369 2.028 . S
O373 C365 1.258 . S
O373 Zn367 2.035 . S
O374 Zn367 2.028 . S
O374 C377 1.247 . S
O375 Zn369 2.035 . S
O375 C377 1.258 . S
C376 O370 1.247 . S
C376 O371 1.258 . S
C377 O374 1.247 . S
C377 O375 1.258 . S
C378 O380 1.247 . S
C378 O382 1.258 . S
C379 O386 1.247 . S
C379 O387 1.258 . S
O380 C378 1.247 . S
O380 Zn381 2.028 . S
Zn381 O380 2.028 . S
Zn381 O385 2.035 . S
Zn381 O387 2.035 . S
Zn381 O388 2.028 . S
O382 C378 1.258 . S
O382 Zn383 2.035 . S
Zn383 O382 2.035 . S
Zn383 O384 2.028 . S
Zn383 O386 2.028 . S
Zn383 O389 2.035 . S
O384 Zn383 2.028 . S
O384 C390 1.247 . S
O385 Zn381 2.035 . S
O385 C390 1.258 . S
O386 C379 1.247 . S
O386 Zn383 2.028 . S
O387 C379 1.258 . S
O387 Zn381 2.035 . S
O388 Zn381 2.028 . S
O388 C391 1.247 . S
O389 Zn383 2.035 . S
O389 C391 1.258 . S
C390 O384 1.247 . S
C390 O385 1.258 . S
C391 O388 1.247 . S
C391 O389 1.258 . S
C392 O394 1.247 . S
C392 O396 1.258 . S
C393 O400 1.247 . S
C393 O401 1.258 . S
O394 C392 1.247 . S
O394 Zn395 2.028 . S
Zn395 O394 2.028 . S
Zn395 O399 2.035 1_655 S
Zn395 O401 2.035 1_655 S
Zn395 O402 2.028 . S
O396 C392 1.258 . S
O396 Zn397 2.035 . S
Zn397 O396 2.035 . S
Zn397 O398 2.028 1_655 S
Zn397 O400 2.028 1_655 S
Zn397 O403 2.035 . S
O398 Zn397 2.028 1_455 S
O398 C404 1.247 . S
O399 Zn395 2.035 1_455 S
O399 C404 1.258 . S
O400 C393 1.247 . S
O400 Zn397 2.028 1_455 S
O401 C393 1.258 . S
O401 Zn395 2.035 1_455 S
O402 Zn395 2.028 . S
O402 C405 1.247 . S
O403 Zn397 2.035 . S
O403 C405 1.258 . S
C404 O398 1.247 . S
C404 O399 1.258 . S
C405 O402 1.247 . S
C405 O403 1.258 . S
C406 O408 1.247 . S
C406 O410 1.258 . S
C407 O414 1.247 . S
C407 O415 1.258 . S
O408 C406 1.247 . S
O408 Zn409 2.028 . S
Zn409 O408 2.028 . S
Zn409 O413 2.035 . S
Zn409 O415 2.035 . S
Zn409 O416 2.028 . S
O410 C406 1.258 . S
O410 Zn411 2.035 . S
Zn411 O410 2.035 . S
Zn411 O412 2.028 . S
Zn411 O414 2.028 . S
Zn411 O417 2.035 . S
O412 Zn411 2.028 . S
O412 C418 1.247 . S
O413 Zn409 2.035 . S
O413 C418 1.258 . S
O414 C407 1.247 . S
O414 Zn411 2.028 . S
O415 C407 1.258 . S
O415 Zn409 2.035 . S
O416 Zn409 2.028 . S
O416 C419 1.247 . S
O417 Zn411 2.035 . S
O417 C419 1.258 . S
C418 O412 1.247 . S
C418 O413 1.258 . S
C419 O416 1.247 . S
C419 O417 1.258 . S
C420 O422 1.247 . S
C420 O424 1.258 . S
C421 O428 1.247 . S
C421 O429 1.258 . S
O422 C420 1.247 . S
O422 Zn423 2.028 . S
Zn423 O422 2.028 . S
Zn423 O427 2.035 . S
Zn423 O429 2.035 . S
Zn423 O430 2.028 . S
O424 C420 1.258 . S
O424 Zn425 2.035 . S
Zn425 O424 2.035 . S
Zn425 O426 2.028 . S
Zn425 O428 2.028 . S
Zn425 O431 2.035 . S
O426 Zn425 2.028 . S
O426 C432 1.247 . S
O427 Zn423 2.035 . S
O427 C432 1.258 . S
O428 C421 1.247 . S
O428 Zn425 2.028 . S
O429 C421 1.258 . S
O429 Zn423 2.035 . S
O430 Zn423 2.028 . S
O430 C433 1.247 . S
O431 Zn425 2.035 . S
O431 C433 1.258 . S
C432 O426 1.247 . S
C432 O427 1.258 . S
C433 O430 1.247 . S
C433 O431 1.258 . S
C434 O436 1.247 . S
C434 O438 1.258 . S
C435 O442 1.247 . S
C435 O443 1.258 . S
O436 C434 1.247 . S
O436 Zn437 2.028 . S
Zn437 O436 2.028 . S
Zn437 O441 2.035 . S
Zn437 O443 2.035 . S
Zn437 O444 2.028 . S
O438 C434 1.258 . S
O438 Zn439 2.035 . S
Zn439 O438 2.035 . S
Zn439 O440 2.028 . S
Zn439 O442 2.028 . S
Zn439 O445 2.035 . S
O440 Zn439 2.028 . S
O440 C446 1.247 . S
O441 Zn437 2.035 . S
O441 C446 1.258 . S
O442 C435 1.247 . S
O442 Zn439 2.028 . S
O443 C435 1.258 . S
O443 Zn437 2.035 . S
O444 Zn437 2.028 . S
O444 C447 1.247 . S
O445 Zn439 2.035 . S
O445 C447 1.258 . S
C446 O440 1.247 . S
C446 O441 1.258 . S
C447 O444 1.247 . S
C447 O445 1.258 . S
C448 O450 1.247 . S
C448 O452 1.258 . S
C449 O456 1.247 . S
C449 O457 1.258 . S
O450 C448 1.247 . S
O450 Zn451 2.028 1_545 S
Zn451 O450 2.028 1_565 S
Zn451 O455 2.035 . S
Zn451 O457 2.035 . S
Zn451 O458 2.028 1_565 S
O452 C448 1.258 . S
O452 Zn453 2.035 1_545 S
Zn453 O452 2.035 1_565 S
Zn453 O454 2.028 . S
Zn453 O456 2.028 . S
Zn453 O459 2.035 1_565 S
O454 Zn453 2.028 . S
O454 C460 1.247 . S
O455 Zn451 2.035 . S
O455 C460 1.258 . S
O456 C449 1.247 . S
O456 Zn453 2.028 . S
O457 C449 1.258 . S
O457 Zn451 2.035 . S
O458 Zn451 2.028 1_545 S
O458 C461 1.247 . S
O459 Zn453 2.035 1_545 S
O459 C461 1.258 . S
C460 O454 1.247 . S
C460 O455 1.258 . S
C461 O458 1.247 . S
C461 O459 1.258 . S
C462 O464 1.247 . S
C462 O466 1.258 . S
C463 O470 1.247 . S
C463 O471 1.258 . S
O464 C462 1.247 . S
O464 Zn465 2.028 . S
Zn465 O464 2.028 . S
Zn465 O469 2.035 . S
Zn465 O471 2.035 . S
Zn465 O472 2.028 . S
O466 C462 1.258 . S
O466 Zn467 2.035 . S
Zn467 O466 2.035 . S
Zn467 O468 2.028 . S
Zn467 O470 2.028 . S
Zn467 O473 2.035 . S
O468 Zn467 2.028 . S
O468 C474 1.247 . S
O469 Zn465 2.035 . S
O469 C474 1.258 . S
O470 C463 1.247 . S
O470 Zn467 2.028 . S
O471 C463 1.258 . S
O471 Zn465 2.035 . S
O472 Zn465 2.028 . S
O472 C475 1.247 . S
O473 Zn467 2.035 . S
O473 C475 1.258 . S
C474 O468 1.247 . S
C474 O469 1.258 . S
C475 O472 1.247 . S
C475 O473 1.258 . S
C476 O478 1.247 . S
C476 O480 1.258 . S
C477 O484 1.247 . S
C477 O485 1.258 . S
O478 C476 1.247 . S
O478 Zn479 2.028 1_565 S
Zn479 O478 2.028 1_545 S
Zn479 O483 2.035 . S
Zn479 O485 2.035 . S
Zn479 O486 2.028 1_545 S
O480 C476 1.258 . S
O480 Zn481 2.035 1_565 S
Zn481 O480 2.035 1_545 S
Zn481 O482 2.028 . S
Zn481 O484 2.028 . S
Zn481 O487 2.035 1_545 S
O482 Zn481 2.028 . S
O482 C488 1.247 . S
O483 Zn479 2.035 . S
O483 C488 1.258 . S
O484 C477 1.247 . S
O484 Zn481 2.028 . S
O485 C477 1.258 . S
O485 Zn479 2.035 . S
O486 Zn479 2.028 1_565 S
O486 C489 1.247 . S
O487 Zn481 2.035 1_565 S
O487 C489 1.258 . S
C488 O482 1.247 . S
C488 O483 1.258 . S
C489 O486 1.247 . S
C489 O487 1.258 . S
C490 O492 1.247 . S
C490 O494 1.258 . S
C491 O498 1.247 . S
C491 O499 1.258 . S
O492 C490 1.247 . S
O492 Zn493 2.028 . S
Zn493 O492 2.028 . S
Zn493 O497 2.035 . S
Zn493 O499 2.035 . S
Zn493 O500 2.028 . S
O494 C490 1.258 . S
O494 Zn495 2.035 . S
Zn495 O494 2.035 . S
Zn495 O496 2.028 . S
Zn495 O498 2.028 . S
Zn495 O501 2.035 . S
O496 Zn495 2.028 . S
O496 C502 1.247 . S
O497 Zn493 2.035 . S
O497 C502 1.258 . S
O498 C491 1.247 . S
O498 Zn495 2.028 . S
O499 C491 1.258 . S
O499 Zn493 2.035 . S
O500 Zn493 2.028 . S
O500 C503 1.247 . S
O501 Zn495 2.035 . S
O501 C503 1.258 . S
C502 O496 1.247 . S
C502 O497 1.258 . S
C503 O500 1.247 . S
C503 O501 1.258 . S
C504 O506 1.247 . S
C504 O508 1.258 . S
C505 O512 1.247 . S
C505 O513 1.258 . S
O506 C504 1.247 . S
O506 Zn507 2.028 . S
Zn507 O506 2.028 . S
Zn507 O511 2.035 1_545 S
Zn507 O513 2.035 1_545 S
Zn507 O514 2.028 . S
O508 C504 1.258 . S
O508 Zn509 2.035 . S
Zn509 O508 2.035 . S
Zn509 O510 2.028 1_545 S
Zn509 O512 2.028 1_545 S
Zn509 O515 2.035 . S
O510 Zn509 2.028 1_565 S
O510 C516 1.247 . S
O511 Zn507 2.035 1_565 S
O511 C516 1.258 . S
O512 C505 1.247 . S
O512 Zn509 2.028 1_565 S
O513 C505 1.258 . S
O513 Zn507 2.035 1_565 S
O514 Zn507 2.028 . S
O514 C517 1.247 . S
O515 Zn509 2.035 . S
O515 C517 1.258 . S
C516 O510 1.247 . S
C516 O511 1.258 . S
C517 O514 1.247 . S
C517 O515 1.258 . S
C518 O520 1.247 . S
C518 O522 1.258 . S
C519 O526 1.247 . S
C519 O527 1.258 . S
O520 C518 1.247 . S
O520 Zn521 2.028 . S
Zn521 O520 2.028 . S
Zn521 O525 2.035 . S
Zn521 O527 2.035 . S
Zn521 O528 2.028 . S
O522 C518 1.258 . S
O522 Zn523 2.035 . S
Zn523 O522 2.035 . S
Zn523 O524 2.028 . S
Zn523 O526 2.028 . S
Zn523 O529 2.035 . S
O524 Zn523 2.028 . S
O524 C530 1.247 . S
O525 Zn521 2.035 . S
O525 C530 1.258 . S
O526 C519 1.247 . S
O526 Zn523 2.028 . S
O527 C519 1.258 . S
O527 Zn521 2.035 . S
O528 Zn521 2.028 . S
O528 C531 1.247 . S
O529 Zn523 2.035 . S
O529 C531 1.258 . S
C530 O524 1.247 . S
C530 O525 1.258 . S
C531 O528 1.247 . S
C531 O529 1.258 . S
C532 O534 1.247 . S
C532 O536 1.258 . S
C533 O540 1.247 . S
C533 O541 1.258 . S
O534 C532 1.247 . S
O534 Zn535 2.028 1_545 S
Zn535 O534 2.028 1_565 S
Zn535 O539 2.035 . S
Zn535 O541 2.035 . S
Zn535 O542 2.028 1_565 S
O536 C532 1.258 . S
O536 Zn537 2.035 1_545 S
Zn537 O536 2.035 1_565 S
Zn537 O538 2.028 . S
Zn537 O540 2.028 . S
Zn537 O543 2.035 1_565 S
O538 Zn537 2.028 . S
O538 C544 1.247 . S
O539 Zn535 2.035 . S
O539 C544 1.258 . S
O540 C533 1.247 . S
O540 Zn537 2.028 . S
O541 C533 1.258 . S
O541 Zn535 2.035 . S
O542 Zn535 2.028 1_545 S
O542 C545 1.247 . S
O543 Zn537 2.035 1_545 S
O543 C545 1.258 . S
C544 O538 1.247 . S
C544 O539 1.258 . S
C545 O542 1.247 . S
C545 O543 1.258 . S
C546 O548 1.247 . S
C546 O550 1.258 . S
C547 O554 1.247 . S
C547 O555 1.258 . S
O548 C546 1.247 . S
O548 Zn549 2.028 . S
Zn549 O548 2.028 . S
Zn549 O553 2.035 . S
Zn549 O555 2.035 . S
Zn549 O556 2.028 . S
O550 C546 1.258 . S
O550 Zn551 2.035 . S
Zn551 O550 2.035 . S
Zn551 O552 2.028 . S
Zn551 O554 2.028 . S
Zn551 O557 2.035 . S
O552 Zn551 2.028 . S
O552 C558 1.247 . S
O553 Zn549 2.035 . S
O553 C558 1.258 . S
O554 C547 1.247 . S
O554 Zn551 2.028 . S
O555 C547 1.258 . S
O555 Zn549 2.035 . S
O556 Zn549 2.028 . S
O556 C559 1.247 . S
O557 Zn551 2.035 . S
O557 C559 1.258 . S
C558 O552 1.247 . S
C558 O553 1.258 . S
C559 O556 1.247 . S
C559 O557 1.258 . S
C560 O562 1.247 . S
C560 O564 1.258 . S
C561 O568 1.247 . S
C561 O569 1.258 . S
O562 C560 1.247 . S
O562 Zn563 2.028 . S
Zn563 O562 2.028 . S
Zn563 O567 2.035 1_556 S
Zn563 O569 2.035 1_556 S
Zn563 O570 2.028 . S
O564 C560 1.258 . S
O564 Zn565 2.035 . S
Zn565 O564 2.035 . S
Zn565 O566 2.028 1_556 S
Zn565 O568 2.028 1_556 S
Zn565 O571 2.035 . S
O566 Zn565 2.028 1_554 S
O566 C572 1.247 . S
O567 Zn563 2.035 1_554 S
O567 C572 1.258 . S
O568 C561 1.247 . S
O568 Zn565 2.028 1_554 S
O569 C561 1.258 . S
O569 Zn563 2.035 1_554 S
O570 Zn563 2.028 . S
O570 C573 1.247 . S
O571 Zn565 2.035 . S
O571 C573 1.258 . S
C572 O566 1.247 . S
C572 O567 1.258 . S
C573 O570 1.247 . S
C573 O571 1.258 . S
C574 O576 1.247 . S
C574 O578 1.258 . S
C575 O582 1.247 . S
C575 O583 1.258 . S
O576 C574 1.247 . S
O576 Zn577 2.028 . S
Zn577 O576 2.028 . S
Zn577 O581 2.035 1_554 S
Zn577 O583 2.035 1_554 S
Zn577 O584 2.028 . S
O578 C574 1.258 . S
O578 Zn579 2.035 . S
Zn579 O578 2.035 . S
Zn579 O580 2.028 1_554 S
Zn579 O582 2.028 1_554 S
Zn579 O585 2.035 . S
O580 Zn579 2.028 1_556 S
O580 C586 1.247 . S
O581 Zn577 2.035 1_556 S
O581 C586 1.258 . S
O582 C575 1.247 . S
O582 Zn579 2.028 1_556 S
O583 C575 1.258 . S
O583 Zn577 2.035 1_556 S
O584 Zn577 2.028 . S
O584 C587 1.247 . S
O585 Zn579 2.035 . S
O585 C587 1.258 . S
C586 O580 1.247 . S
C586 O581 1.258 . S
C587 O584 1.247 . S
C587 O585 1.258 . S
C588 O590 1.247 . S
C588 O592 1.258 . S
C589 O596 1.247 . S
C589 O597 1.258 . S
O590 C588 1.247 . S
O590 Zn591 2.028 . S
Zn591 O590 2.028 . S
Zn591 O595 2.035 . S
Zn591 O597 2.035 . S
Zn591 O598 2.028 . S
O592 C588 1.258 . S
O592 Zn593 2.035 . S
Zn593 O592 2.035 . S
Zn593 O594 2.028 . S
Zn593 O596 2.028 . S
Zn593 O599 2.035 . S
O594 Zn593 2.028 . S
O594 C600 1.247 . S
O595 Zn591 2.035 . S
O595 C600 1.258 . S
O596 C589 1.247 . S
O596 Zn593 2.028 . S
O597 C589 1.258 . S
O597 Zn591 2.035 . S
O598 Zn591 2.028 . S
O598 C601 1.247 . S
O599 Zn593 2.035 . S
O599 C601 1.258 . S
C600 O594 1.247 . S
C600 O595 1.258 . S
C601 O598 1.247 . S
C601 O599 1.258 . S
C602 O604 1.247 . S
C602 O606 1.258 . S
C603 O610 1.247 . S
C603 O611 1.258 . S
O604 C602 1.247 . S
O604 Zn605 2.028 . S
Zn605 O604 2.028 . S
Zn605 O609 2.035 . S
Zn605 O611 2.035 . S
Zn605 O612 2.028 . S
O606 C602 1.258 . S
O606 Zn607 2.035 . S
Zn607 O606 2.035 . S
Zn607 O608 2.028 . S
Zn607 O610 2.028 . S
Zn607 O613 2.035 . S
O608 Zn607 2.028 . S
O608 C614 1.247 . S
O609 Zn605 2.035 . S
O609 C614 1.258 . S
O610 C603 1.247 . S
O610 Zn607 2.028 . S
O611 C603 1.258 . S
O611 Zn605 2.035 . S
O612 Zn605 2.028 . S
O612 C615 1.247 . S
O613 Zn607 2.035 . S
O613 C615 1.258 . S
C614 O608 1.247 . S
C614 O609 1.258 . S
C615 O612 1.247 . S
C615 O613 1.258 . S
C616 O618 1.247 . S
C616 O620 1.258 . S
C617 O624 1.247 . S
C617 O625 1.258 . S
O618 C616 1.247 . S
O618 Zn619 2.028 . S
Zn619 O618 2.028 . S
Zn619 O623 2.035 . S
Zn619 O625 2.035 . S
Zn619 O626 2.028 . S
O620 C616 1.258 . S
O620 Zn621 2.035 . S
Zn621 O620 2.035 . S
Zn621 O622 2.028 . S
Zn621 O624 2.028 . S
Zn621 O627 2.035 . S
O622 Zn621 2.028 . S
O622 C628 1.247 . S
O623 Zn619 2.035 . S
O623 C628 1.258 . S
O624 C617 1.247 . S
O624 Zn621 2.028 . S
O625 C617 1.258 . S
O625 Zn619 2.035 . S
O626 Zn619 2.028 . S
O626 C629 1.247 . S
O627 Zn621 2.035 . S
O627 C629 1.258 . S
C628 O622 1.247 . S
C628 O623 1.258 . S
C629 O626 1.247 . S
C629 O627 1.258 . S
C630 O632 1.247 . S
C630 O634 1.258 . S
C631 O638 1.247 . S
C631 O639 1.258 . S
O632 C630 1.247 . S
O632 Zn633 2.028 . S
Zn633 O632 2.028 . S
Zn633 O637 2.035 . S
Zn633 O639 2.035 . S
Zn633 O640 2.028 . S
O634 C630 1.258 . S
O634 Zn635 2.035 . S
Zn635 O634 2.035 . S
Zn635 O636 2.028 . S
Zn635 O638 2.028 . S
Zn635 O641 2.035 . S
O636 Zn635 2.028 . S
O636 C642 1.247 . S
O637 Zn633 2.035 . S
O637 C642 1.258 . S
O638 C631 1.247 . S
O638 Zn635 2.028 . S
O639 C631 1.258 . S
O639 Zn633 2.035 . S
O640 Zn633 2.028 . S
O640 C643 1.247 . S
O641 Zn635 2.035 . S
O641 C643 1.258 . S
C642 O636 1.247 . S
C642 O637 1.258 . S
C643 O640 1.247 . S
C643 O641 1.258 . S
C644 O646 1.247 . S
C644 O648 1.258 . S
C645 O652 1.247 . S
C645 O653 1.258 . S
O646 C644 1.247 . S
O646 Zn647 2.028 . S
Zn647 O646 2.028 . S
Zn647 O651 2.035 . S
Zn647 O653 2.035 . S
Zn647 O654 2.028 . S
O648 C644 1.258 . S
O648 Zn649 2.035 . S
Zn649 O648 2.035 . S
Zn649 O650 2.028 . S
Zn649 O652 2.028 . S
Zn649 O655 2.035 . S
O650 Zn649 2.028 . S
O650 C656 1.247 . S
O651 Zn647 2.035 . S
O651 C656 1.258 . S
O652 C645 1.247 . S
O652 Zn649 2.028 . S
O653 C645 1.258 . S
O653 Zn647 2.035 . S
O654 Zn647 2.028 . S
O654 C657 1.247 . S
O655 Zn649 2.035 . S
O655 C657 1.258 . S
C656 O650 1.247 . S
C656 O651 1.258 . S
C657 O654 1.247 . S
C657 O655 1.258 . S
C658 O660 1.247 . S
C658 O662 1.258 . S
C659 O666 1.247 . S
C659 O667 1.258 . S
O660 C658 1.247 . S
O660 Zn661 2.028 . S
Zn661 O660 2.028 . S
Zn661 O665 2.035 . S
Zn661 O667 2.035 . S
Zn661 O668 2.028 . S
O662 C658 1.258 . S
O662 Zn663 2.035 . S
Zn663 O662 2.035 . S
Zn663 O664 2.028 . S
Zn663 O666 2.028 . S
Zn663 O669 2.035 . S
O664 Zn663 2.028 . S
O664 C670 1.247 . S
O665 Zn661 2.035 . S
O665 C670 1.258 . S
O666 C659 1.247 . S
O666 Zn663 2.028 . S
O667 C659 1.258 . S
O667 Zn661 2.035 . S
O668 Zn661 2.028 . S
O668 C671 1.247 . S
O669 Zn663 2.035 . S
O669 C671 1.258 . S
C670 O664 1.247 . S
C670 O665 1.258 . S
C671 O668 1.247 . S
C671 O669 1.258 . S
C672 O674 1.247 . S
C672 O676 1.258 . S
C673 O680 1.247 . S
C673 O681 1.258 . S
O674 C672 1.247 . S
O674 Zn675 2.028 . S
Zn675 O674 2.028 . S
Zn675 O679 2.035 . S
Zn675 O681 2.035 . S
Zn675 O682 2.028 . S
O676 C672 1.258 . S
O676 Zn677 2.035 . S
Zn677 O676 2.035 . S
Zn677 O678 2.028 . S
Zn677 O680 2.028 . S
Zn677 O683 2.035 . S
O678 Zn677 2.028 . S
O678 C684 1.247 . S
O679 Zn675 2.035 . S
O679 C684 1.258 . S
O680 C673 1.247 . S
O680 Zn677 2.028 . S
O681 C673 1.258 . S
O681 Zn675 2.035 . S
O682 Zn675 2.028 . S
O682 C685 1.247 . S
O683 Zn677 2.035 . S
O683 C685 1.258 . S
C684 O678 1.247 . S
C684 O679 1.258 . S
C685 O682 1.247 . S
C685 O683 1.258 . S
C686 O688 1.247 . S
C686 O690 1.258 . S
C687 O694 1.247 . S
C687 O695 1.258 . S
O688 C686 1.247 . S
O688 Zn689 2.028 . S
Zn689 O688 2.028 . S
Zn689 O693 2.035 . S
Zn689 O695 2.035 . S
Zn689 O696 2.028 . S
O690 C686 1.258 . S
O690 Zn691 2.035 . S
Zn691 O690 2.035 . S
Zn691 O692 2.028 . S
Zn691 O694 2.028 . S
Zn691 O697 2.035 . S
O692 Zn691 2.028 . S
O692 C698 1.247 . S
O693 Zn689 2.035 . S
O693 C698 1.258 . S
O694 C687 1.247 . S
O694 Zn691 2.028 . S
O695 C687 1.258 . S
O695 Zn689 2.035 . S
O696 Zn689 2.028 . S
O696 C699 1.247 . S
O697 Zn691 2.035 . S
O697 C699 1.258 . S
C698 O692 1.247 . S
C698 O693 1.258 . S
C699 O696 1.247 . S
C699 O697 1.258 . S
C700 O702 1.247 . S
C700 O704 1.258 . S
C701 O708 1.247 . S
C701 O709 1.258 . S
O702 C700 1.247 . S
O702 Zn703 2.028 . S
Zn703 O702 2.028 . S
Zn703 O707 2.035 1_655 S
Zn703 O709 2.035 1_655 S
Zn703 O710 2.028 . S
O704 C700 1.258 . S
O704 Zn705 2.035 . S
Zn705 O704 2.035 . S
Zn705 O706 2.028 1_655 S
Zn705 O708 2.028 1_655 S
Zn705 O711 2.035 . S
O706 Zn705 2.028 1_455 S
O706 C712 1.247 . S
O707 Zn703 2.035 1_455 S
O707 C712 1.258 . S
O708 C701 1.247 . S
O708 Zn705 2.028 1_455 S
O709 C701 1.258 . S
O709 Zn703 2.035 1_455 S
O710 Zn703 2.028 . S
O710 C713 1.247 . S
O711 Zn705 2.035 . S
O711 C713 1.258 . S
C712 O706 1.247 . S
C712 O707 1.258 . S
C713 O710 1.247 . S
C713 O711 1.258 . S
C714 O716 1.247 . S
C714 O718 1.258 . S
C715 O722 1.247 . S
C715 O723 1.258 . S
O716 C714 1.247 . S
O716 Zn717 2.028 . S
Zn717 O716 2.028 . S
Zn717 O721 2.035 . S
Zn717 O723 2.035 . S
Zn717 O724 2.028 . S
O718 C714 1.258 . S
O718 Zn719 2.035 . S
Zn719 O718 2.035 . S
Zn719 O720 2.028 . S
Zn719 O722 2.028 . S
Zn719 O725 2.035 . S
O720 Zn719 2.028 . S
O720 C726 1.247 . S
O721 Zn717 2.035 . S
O721 C726 1.258 . S
O722 C715 1.247 . S
O722 Zn719 2.028 . S
O723 C715 1.258 . S
O723 Zn717 2.035 . S
O724 Zn717 2.028 . S
O724 C727 1.247 . S
O725 Zn719 2.035 . S
O725 C727 1.258 . S
C726 O720 1.247 . S
C726 O721 1.258 . S
C727 O724 1.247 . S
C727 O725 1.258 . S
C728 O730 1.247 . S
C728 O732 1.258 . S
C729 O736 1.247 . S
C729 O737 1.258 . S
O730 C728 1.247 . S
O730 Zn731 2.028 . S
Zn731 O730 2.028 . S
Zn731 O735 2.035 . S
Zn731 O737 2.035 . S
Zn731 O738 2.028 . S
O732 C728 1.258 . S
O732 Zn733 2.035 . S
Zn733 O732 2.035 . S
Zn733 O734 2.028 . S
Zn733 O736 2.028 . S
Zn733 O739 2.035 . S
O734 Zn733 2.028 . S
O734 C740 1.247 . S
O735 Zn731 2.035 . S
O735 C740 1.258 . S
O736 C729 1.247 . S
O736 Zn733 2.028 . S
O737 C729 1.258 . S
O737 Zn731 2.035 . S
O738 Zn731 2.028 . S
O738 C741 1.247 . S
O739 Zn733 2.035 . S
O739 C741 1.258 . S
C740 O734 1.247 . S
C740 O735 1.258 . S
C741 O738 1.247 . S
C741 O739 1.258 . S
C742 O744 1.247 . S
C742 O746 1.258 . S
C743 O750 1.247 . S
C743 O751 1.258 . S
O744 C742 1.247 . S
O744 Zn745 2.028 . S
Zn745 O744 2.028 . S
Zn745 O749 2.035 . S
Zn745 O751 2.035 . S
Zn745 O752 2.028 . S
O746 C742 1.258 . S
O746 Zn747 2.035 . S
Zn747 O746 2.035 . S
Zn747 O748 2.028 . S
Zn747 O750 2.028 . S
Zn747 O753 2.035 . S
O748 Zn747 2.028 . S
O748 C754 1.247 . S
O749 Zn745 2.035 . S
O749 C754 1.258 . S
O750 C743 1.247 . S
O750 Zn747 2.028 . S
O751 C743 1.258 . S
O751 Zn745 2.035 . S
O752 Zn745 2.028 . S
O752 C755 1.247 . S
O753 Zn747 2.035 . S
O753 C755 1.258 . S
C754 O748 1.247 . S
C754 O749 1.258 . S
C755 O752 1.247 . S
C755 O753 1.258 . S
C756 O758 1.247 . S
C756 O760 1.258 . S
C757 O764 1.247 . S
C757 O765 1.258 . S
O758 C756 1.247 . S
O758 Zn759 2.028 . S
Zn759 O758 2.028 . S
Zn759 O763 2.035 1_655 S
Zn759 O765 2.035 1_655 S
Zn759 O766 2.028 . S
O760 C756 1.258 . S
O760 Zn761 2.035 . S
Zn761 O760 2.035 . S
Zn761 O762 2.028 1_655 S
Zn761 O764 2.028 1_655 S
Zn761 O767 2.035 . S
O762 Zn761 2.028 1_455 S
O762 C768 1.247 . S
O763 Zn759 2.035 1_455 S
O763 C768 1.258 . S
O764 C757 1.247 . S
O764 Zn761 2.028 1_455 S
O765 C757 1.258 . S
O765 Zn759 2.035 1_455 S
O766 Zn759 2.028 . S
O766 C769 1.247 . S
O767 Zn761 2.035 . S
O767 C769 1.258 . S
C768 O762 1.247 . S
C768 O763 1.258 . S
C769 O766 1.247 . S
C769 O767 1.258 . S
C770 O772 1.247 . S
C770 O774 1.258 . S
C771 O778 1.247 . S
C771 O779 1.258 . S
O772 C770 1.247 . S
O772 Zn773 2.028 . S
Zn773 O772 2.028 . S
Zn773 O777 2.035 . S
Zn773 O779 2.035 . S
Zn773 O780 2.028 . S
O774 C770 1.258 . S
O774 Zn775 2.035 . S
Zn775 O774 2.035 . S
Zn775 O776 2.028 . S
Zn775 O778 2.028 . S
Zn775 O781 2.035 . S
O776 Zn775 2.028 . S
O776 C782 1.247 . S
O777 Zn773 2.035 . S
O777 C782 1.258 . S
O778 C771 1.247 . S
O778 Zn775 2.028 . S
O779 C771 1.258 . S
O779 Zn773 2.035 . S
O780 Zn773 2.028 . S
O780 C783 1.247 . S
O781 Zn775 2.035 . S
O781 C783 1.258 . S
C782 O776 1.247 . S
C782 O777 1.258 . S
C783 O780 1.247 . S
C783 O781 1.258 . S
C784 O786 1.247 . S
C784 O788 1.258 . S
C785 O792 1.247 . S
C785 O793 1.258 . S
O786 C784 1.247 . S
O786 Zn787 2.028 . S
Zn787 O786 2.028 . S
Zn787 O791 2.035 . S
Zn787 O793 2.035 . S
Zn787 O794 2.028 . S
O788 C784 1.258 . S
O788 Zn789 2.035 . S
Zn789 O788 2.035 . S
Zn789 O790 2.028 . S
Zn789 O792 2.028 . S
Zn789 O795 2.035 . S
O790 Zn789 2.028 . S
O790 C796 1.247 . S
O791 Zn787 2.035 . S
O791 C796 1.258 . S
O792 C785 1.247 . S
O792 Zn789 2.028 . S
O793 C785 1.258 . S
O793 Zn787 2.035 . S
O794 Zn787 2.028 . S
O794 C797 1.247 . S
O795 Zn789 2.035 . S
O795 C797 1.258 . S
C796 O790 1.247 . S
C796 O791 1.258 . S
C797 O794 1.247 . S
C797 O795 1.258 . S
C798 O800 1.247 . S
C798 O802 1.258 . S
C799 O806 1.247 . S
C799 O807 1.258 . S
O800 C798 1.247 . S
O800 Zn801 2.028 . S
Zn801 O800 2.028 . S
Zn801 O805 2.035 . S
Zn801 O807 2.035 . S
Zn801 O808 2.028 . S
O802 C798 1.258 . S
O802 Zn803 2.035 . S
Zn803 O802 2.035 . S
Zn803 O804 2.028 . S
Zn803 O806 2.028 . S
Zn803 O809 2.035 . S
O804 Zn803 2.028 . S
O804 C810 1.247 . S
O805 Zn801 2.035 . S
O805 C810 1.258 . S
O806 C799 1.247 . S
O806 Zn803 2.028 . S
O807 C799 1.258 . S
O807 Zn801 2.035 . S
O808 Zn801 2.028 . S
O808 C811 1.247 . S
O809 Zn803 2.035 . S
O809 C811 1.258 . S
C810 O804 1.247 . S
C810 O805 1.258 . S
C811 O808 1.247 . S
C811 O809 1.258 . S
C812 O814 1.247 . S
C812 O816 1.258 . S
C813 O820 1.247 . S
C813 O821 1.258 . S
O814 C812 1.247 . S
O814 Zn815 2.028 . S
Zn815 O814 2.028 . S
Zn815 O819 2.035 . S
Zn815 O821 2.035 . S
Zn815 O822 2.028 . S
O816 C812 1.258 . S
O816 Zn817 2.035 . S
Zn817 O816 2.035 . S
Zn817 O818 2.028 . S
Zn817 O820 2.028 . S
Zn817 O823 2.035 . S
O818 Zn817 2.028 . S
O818 C824 1.247 . S
O819 Zn815 2.035 . S
O819 C824 1.258 . S
O820 C813 1.247 . S
O820 Zn817 2.028 . S
O821 C813 1.258 . S
O821 Zn815 2.035 . S
O822 Zn815 2.028 . S
O822 C825 1.247 . S
O823 Zn817 2.035 . S
O823 C825 1.258 . S
C824 O818 1.247 . S
C824 O819 1.258 . S
C825 O822 1.247 . S
C825 O823 1.258 . S
C826 O828 1.247 . S
C826 O830 1.258 . S
C827 O834 1.247 . S
C827 O835 1.258 . S
O828 C826 1.247 . S
O828 Zn829 2.028 . S
Zn829 O828 2.028 . S
Zn829 O833 2.035 . S
Zn829 O835 2.035 . S
Zn829 O836 2.028 . S
O830 C826 1.258 . S
O830 Zn831 2.035 . S
Zn831 O830 2.035 . S
Zn831 O832 2.028 . S
Zn831 O834 2.028 . S
Zn831 O837 2.035 . S
O832 Zn831 2.028 . S
O832 C838 1.247 . S
O833 Zn829 2.035 . S
O833 C838 1.258 . S
O834 C827 1.247 . S
O834 Zn831 2.028 . S
O835 C827 1.258 . S
O835 Zn829 2.035 . S
O836 Zn829 2.028 . S
O836 C839 1.247 . S
O837 Zn831 2.035 . S
O837 C839 1.258 . S
C838 O832 1.247 . S
C838 O833 1.258 . S
C839 O836 1.247 . S
C839 O837 1.258 . S
C840 O842 1.247 . S
C840 O844 1.258 . S
C841 O848 1.247 . S
C841 O849 1.258 . S
O842 C840 1.247 . S
O842 Zn843 2.028 . S
Zn843 O842 2.028 . S
Zn843 O847 2.035 . S
Zn843 O849 2.035 . S
Zn843 O850 2.028 . S
O844 C840 1.258 . S
O844 Zn845 2.035 . S
Zn845 O844 2.035 . S
Zn845 O846 2.028 . S
Zn845 O848 2.028 . S
Zn845 O851 2.035 . S
O846 Zn845 2.028 . S
O846 C852 1.247 . S
O847 Zn843 2.035 . S
O847 C852 1.258 . S
O848 C841 1.247 . S
O848 Zn845 2.028 . S
O849 C841 1.258 . S
O849 Zn843 2.035 . S
O850 Zn843 2.028 . S
O850 C853 1.247 . S
O851 Zn845 2.035 . S
O851 C853 1.258 . S
C852 O846 1.247 . S
C852 O847 1.258 . S
C853 O850 1.247 . S
C853 O851 1.258 . S
C854 O856 1.247 . S
C854 O858 1.258 . S
C855 O862 1.247 . S
C855 O863 1.258 . S
O856 C854 1.247 . S
O856 Zn857 2.028 . S
Zn857 O856 2.028 . S
Zn857 O861 2.035 . S
Zn857 O863 2.035 . S
Zn857 O864 2.028 . S
O858 C854 1.258 . S
O858 Zn859 2.035 . S
Zn859 O858 2.035 . S
Zn859 O860 2.028 . S
Zn859 O862 2.028 . S
Zn859 O865 2.035 . S
O860 Zn859 2.028 . S
O860 C866 1.247 . S
O861 Zn857 2.035 . S
O861 C866 1.258 . S
O862 C855 1.247 . S
O862 Zn859 2.028 . S
O863 C855 1.258 . S
O863 Zn857 2.035 . S
O864 Zn857 2.028 . S
O864 C867 1.247 . S
O865 Zn859 2.035 . S
O865 C867 1.258 . S
C866 O860 1.247 . S
C866 O861 1.258 . S
C867 O864 1.247 . S
C867 O865 1.258 . S
C868 O870 1.247 . S
C868 O872 1.258 . S
C869 O876 1.247 . S
C869 O877 1.258 . S
O870 C868 1.247 . S
O870 Zn871 2.028 . S
Zn871 O870 2.028 . S
Zn871 O875 2.035 . S
Zn871 O877 2.035 . S
Zn871 O878 2.028 . S
O872 C868 1.258 . S
O872 Zn873 2.035 . S
Zn873 O872 2.035 . S
Zn873 O874 2.028 . S
Zn873 O876 2.028 . S
Zn873 O879 2.035 . S
O874 Zn873 2.028 . S
O874 C880 1.247 . S
O875 Zn871 2.035 . S
O875 C880 1.258 . S
O876 C869 1.247 . S
O876 Zn873 2.028 . S
O877 C869 1.258 . S
O877 Zn871 2.035 . S
O878 Zn871 2.028 . S
O878 C881 1.247 . S
O879 Zn873 2.035 . S
O879 C881 1.258 . S
C880 O874 1.247 . S
C880 O875 1.258 . S
C881 O878 1.247 . S
C881 O879 1.258 . S
C882 O884 1.247 . S
C882 O886 1.258 . S
C883 O890 1.247 . S
C883 O891 1.258 . S
O884 C882 1.247 . S
O884 Zn885 2.028 . S
Zn885 O884 2.028 . S
Zn885 O889 2.035 . S
Zn885 O891 2.035 . S
Zn885 O892 2.028 . S
O886 C882 1.258 . S
O886 Zn887 2.035 . S
Zn887 O886 2.035 . S
Zn887 O888 2.028 . S
Zn887 O890 2.028 . S
Zn887 O893 2.035 . S
O888 Zn887 2.028 . S
O888 C894 1.247 . S
O889 Zn885 2.035 . S
O889 C894 1.258 . S
O890 C883 1.247 . S
O890 Zn887 2.028 . S
O891 C883 1.258 . S
O891 Zn885 2.035 . S
O892 Zn885 2.028 . S
O892 C895 1.247 . S
O893 Zn887 2.035 . S
O893 C895 1.258 . S
C894 O888 1.247 . S
C894 O889 1.258 . S
C895 O892 1.247 . S
C895 O893 1.258 . S
C896 O898 1.247 . S
C896 O900 1.258 . S
C897 O904 1.247 . S
C897 O905 1.258 . S
O898 C896 1.247 . S
O898 Zn899 2.028 . S
Zn899 O898 2.028 . S
Zn899 O903 2.035 . S
Zn899 O905 2.035 . S
Zn899 O906 2.028 . S
O900 C896 1.258 . S
O900 Zn901 2.035 . S
Zn901 O900 2.035 . S
Zn901 O902 2.028 . S
Zn901 O904 2.028 . S
Zn901 O907 2.035 . S
O902 Zn901 2.028 . S
O902 C908 1.247 . S
O903 Zn899 2.035 . S
O903 C908 1.258 . S
O904 C897 1.247 . S
O904 Zn901 2.028 . S
O905 C897 1.258 . S
O905 Zn899 2.035 . S
O906 Zn899 2.028 . S
O906 C909 1.247 . S
O907 Zn901 2.035 . S
O907 C909 1.258 . S
C908 O902 1.247 . S
C908 O903 1.258 . S
C909 O906 1.247 . S
C909 O907 1.258 . S
C910 O912 1.247 . S
C910 O914 1.258 . S
C911 O918 1.247 . S
C911 O919 1.258 . S
O912 C910 1.247 . S
O912 Zn913 2.028 . S
Zn913 O912 2.028 . S
Zn913 O917 2.035 . S
Zn913 O919 2.035 . S
Zn913 O920 2.028 . S
O914 C910 1.258 . S
O914 Zn915 2.035 . S
Zn915 O914 2.035 . S
Zn915 O916 2.028 . S
Zn915 O918 2.028 . S
Zn915 O921 2.035 . S
O916 Zn915 2.028 . S
O916 C922 1.247 . S
O917 Zn913 2.035 . S
O917 C922 1.258 . S
O918 C911 1.247 . S
O918 Zn915 2.028 . S
O919 C911 1.258 . S
O919 Zn913 2.035 . S
O920 Zn913 2.028 . S
O920 C923 1.247 . S
O921 Zn915 2.035 . S
O921 C923 1.258 . S
C922 O916 1.247 . S
C922 O917 1.258 . S
C923 O920 1.247 . S
C923 O921 1.258 . S
C924 O926 1.247 . S
C924 O928 1.258 . S
C925 O932 1.247 . S
C925 O933 1.258 . S
O926 C924 1.247 . S
O926 Zn927 2.028 . S
Zn927 O926 2.028 . S
Zn927 O931 2.035 . S
Zn927 O933 2.035 . S
Zn927 O934 2.028 . S
O928 C924 1.258 . S
O928 Zn929 2.035 . S
Zn929 O928 2.035 . S
Zn929 O930 2.028 . S
Zn929 O932 2.028 . S
Zn929 O935 2.035 . S
O930 Zn929 2.028 . S
O930 C936 1.247 . S
O931 Zn927 2.035 . S
O931 C936 1.258 . S
O932 C925 1.247 . S
O932 Zn929 2.028 . S
O933 C925 1.258 . S
O933 Zn927 2.035 . S
O934 Zn927 2.028 . S
O934 C937 1.247 . S
O935 Zn929 2.035 . S
O935 C937 1.258 . S
C936 O930 1.247 . S
C936 O931 1.258 . S
C937 O934 1.247 . S
C937 O935 1.258 . S
C938 O940 1.247 . S
C938 O942 1.258 . S
C939 O946 1.247 . S
C939 O947 1.258 . S
O940 C938 1.247 . S
O940 Zn941 2.028 1_554 S
Zn941 O940 2.028 1_556 S
Zn941 O945 2.035 . S
Zn941 O947 2.035 . S
Zn941 O948 2.028 1_556 S
O942 C938 1.258 . S
O942 Zn943 2.035 1_554 S
Zn943 O942 2.035 1_556 S
Zn943 O944 2.028 . S
Zn943 O946 2.028 . S
Zn943 O949 2.035 1_556 S
O944 Zn943 2.028 . S
O944 C950 1.247 . S
O945 Zn941 2.035 . S
O945 C950 1.258 . S
O946 C939 1.247 . S
O946 Zn943 2.028 . S
O947 C939 1.258 . S
O947 Zn941 2.035 . S
O948 Zn941 2.028 1_554 S
O948 C951 1.247 . S
O949 Zn943 2.035 1_554 S
O949 C951 1.258 . S
C950 O944 1.247 . S
C950 O945 1.258 . S
C951 O948 1.247 . S
C951 O949 1.258 . S
C952 O954 1.247 . S
C952 O956 1.258 . S
C953 O960 1.247 . S
C953 O961 1.258 . S
O954 C952 1.247 . S
O954 Zn955 2.028 . S
Zn955 O954 2.028 . S
Zn955 O959 2.035 . S
Zn955 O961 2.035 . S
Zn955 O962 2.028 . S
O956 C952 1.258 . S
O956 Zn957 2.035 . S
Zn957 O956 2.035 . S
Zn957 O958 2.028 . S
Zn957 O960 2.028 . S
Zn957 O963 2.035 . S
O958 Zn957 2.028 . S
O958 C964 1.247 . S
O959 Zn955 2.035 . S
O959 C964 1.258 . S
O960 C953 1.247 . S
O960 Zn957 2.028 . S
O961 C953 1.258 . S
O961 Zn955 2.035 . S
O962 Zn955 2.028 . S
O962 C965 1.247 . S
O963 Zn957 2.035 . S
O963 C965 1.258 . S
C964 O958 1.247 . S
C964 O959 1.258 . S
C965 O962 1.247 . S
C965 O963 1.258 . S
C966 O968 1.247 . S
C966 O970 1.258 . S
C967 O974 1.247 . S
C967 O975 1.258 . S
O968 C966 1.247 . S
O968 Zn969 2.028 1_556 S
Zn969 O968 2.028 1_554 S
Zn969 O973 2.035 . S
Zn969 O975 2.035 . S
Zn969 O976 2.028 1_554 S
O970 C966 1.258 . S
O970 Zn971 2.035 1_556 S
Zn971 O970 2.035 1_554 S
Zn971 O972 2.028 . S
Zn971 O974 2.028 . S
Zn971 O977 2.035 1_554 S
O972 Zn971 2.028 . S
O972 C978 1.247 . S
O973 Zn969 2.035 . S
O973 C978 1.258 . S
O974 C967 1.247 . S
O974 Zn971 2.028 . S
O975 C967 1.258 . S
O975 Zn969 2.035 . S
O976 Zn969 2.028 1_556 S
O976 C979 1.247 . S
O977 Zn971 2.035 1_556 S
O977 C979 1.258 . S
C978 O972 1.247 . S
C978 O973 1.258 . S
C979 O976 1.247 . S
C979 O977 1.258 . S
C980 O982 1.247 . S
C980 O984 1.258 . S
C981 O988 1.247 . S
C981 O989 1.258 . S
O982 C980 1.247 . S
O982 Zn983 2.028 . S
Zn983 O982 2.028 . S
Zn983 O987 2.035 . S
Zn983 O989 2.035 . S
Zn983 O990 2.028 . S
O984 C980 1.258 . S
O984 Zn985 2.035 . S
Zn985 O984 2.035 . S
Zn985 O986 2.028 . S
Zn985 O988 2.028 . S
Zn985 O991 2.035 . S
O986 Zn985 2.028 . S
O986 C992 1.247 . S
O987 Zn983 2.035 . S
O987 C992 1.258 . S
O988 C981 1.247 . S
O988 Zn985 2.028 . S
O989 C981 1.258 . S
O989 Zn983 2.035 . S
O990 Zn983 2.028 . S
O990 C993 1.247 . S
O991 Zn985 2.035 . S
O991 C993 1.258 . S
C992 O986 1.247 . S
C992 O987 1.258 . S
C993 O990 1.247 . S
C993 O991 1.258 . S
C994 O996 1.247 . S
C994 O998 1.258 . S
C995 O1002 1.247 . S
C995 O1003 1.258 . S
O996 C994 1.247 . S
O996 Zn997 2.028 . S
Zn997 O996 2.028 . S
Zn997 O1001 2.035 . S
Zn997 O1003 2.035 . S
Zn997 O1004 2.028 . S
O998 C994 1.258 . S
O998 Zn999 2.035 . S
Zn999 O998 2.035 . S
Zn999 O1000 2.028 . S
Zn999 O1002 2.028 . S
Zn999 O1005 2.035 . S
O1000 Zn999 2.028 . S
O1000 C1006 1.247 . S
O1001 Zn997 2.035 . S
O1001 C1006 1.258 . S
O1002 C995 1.247 . S
O1002 Zn999 2.028 . S
O1003 C995 1.258 . S
O1003 Zn997 2.035 . S
O1004 Zn997 2.028 . S
O1004 C1007 1.247 . S
O1005 Zn999 2.035 . S
O1005 C1007 1.258 . S
C1006 O1000 1.247 . S
C1006 O1001 1.258 . S
C1007 O1004 1.247 . S
C1007 O1005 1.258 . S
C1008 O1010 1.247 . S
C1008 O1012 1.258 . S
C1009 O1016 1.247 . S
C1009 O1017 1.258 . S
O1010 C1008 1.247 . S
O1010 Zn1011 2.028 . S
Zn1011 O1010 2.028 . S
Zn1011 O1015 2.035 . S
Zn1011 O1017 2.035 . S
Zn1011 O1018 2.028 . S
O1012 C1008 1.258 . S
O1012 Zn1013 2.035 . S
Zn1013 O1012 2.035 . S
Zn1013 O1014 2.028 . S
Zn1013 O1016 2.028 . S
Zn1013 O1019 2.035 . S
O1014 Zn1013 2.028 . S
O1014 C1020 1.247 . S
O1015 Zn1011 2.035 . S
O1015 C1020 1.258 . S
O1016 C1009 1.247 . S
O1016 Zn1013 2.028 . S
O1017 C1009 1.258 . S
O1017 Zn1011 2.035 . S
O1018 Zn1011 2.028 . S
O1018 C1021 1.247 . S
O1019 Zn1013 2.035 . S
O1019 C1021 1.258 . S
C1020 O1014 1.247 . S
C1020 O1015 1.258 . S
C1021 O1018 1.247 . S
C1021 O1019 1.258 . S
C1022 O1024 1.247 . S
C1022 O1026 1.258 . S
C1023 O1030 1.247 . S
C1023 O1031 1.258 . S
O1024 C1022 1.247 . S
O1024 Zn1025 2.028 . S
Zn1025 O1024 2.028 . S
Zn1025 O1029 2.035 . S
Zn1025 O1031 2.035 . S
Zn1025 O1032 2.028 . S
O1026 C1022 1.258 . S
O1026 Zn1027 2.035 . S
Zn1027 O1026 2.035 . S
Zn1027 O1028 2.028 . S
Zn1027 O1030 2.028 . S
Zn1027 O1033 2.035 . S
O1028 Zn1027 2.028 . S
O1028 C1034 1.247 . S
O1029 Zn1025 2.035 . S
O1029 C1034 1.258 . S
O1030 C1023 1.247 . S
O1030 Zn1027 2.028 . S
O1031 C1023 1.258 . S
O1031 Zn1025 2.035 . S
O1032 Zn1025 2.028 . S
O1032 C1035 1.247 . S
O1033 Zn1027 2.035 . S
O1033 C1035 1.258 . S
C1034 O1028 1.247 . S
C1034 O1029 1.258 . S
C1035 O1032 1.247 . S
C1035 O1033 1.258 . S
C1036 O1038 1.247 . S
C1036 O1040 1.258 . S
C1037 O1044 1.247 . S
C1037 O1045 1.258 . S
O1038 C1036 1.247 . S
O1038 Zn1039 2.028 1_655 S
Zn1039 O1038 2.028 1_455 S
Zn1039 O1043 2.035 . S
Zn1039 O1045 2.035 . S
Zn1039 O1046 2.028 1_455 S
O1040 C1036 1.258 . S
O1040 Zn1041 2.035 1_655 S
Zn1041 O1040 2.035 1_455 S
Zn1041 O1042 2.028 . S
Zn1041 O1044 2.028 . S
Zn1041 O1047 2.035 1_455 S
O1042 Zn1041 2.028 . S
O1042 C1048 1.247 . S
O1043 Zn1039 2.035 . S
O1043 C1048 1.258 . S
O1044 C1037 1.247 . S
O1044 Zn1041 2.028 . S
O1045 C1037 1.258 . S
O1045 Zn1039 2.035 . S
O1046 Zn1039 2.028 1_655 S
O1046 C1049 1.247 . S
O1047 Zn1041 2.035 1_655 S
O1047 C1049 1.258 . S
C1048 O1042 1.247 . S
C1048 O1043 1.258 . S
C1049 O1046 1.247 . S
C1049 O1047 1.258 . S
C1050 O1052 1.247 . S
C1050 O1054 1.258 . S
C1051 O1058 1.247 . S
C1051 O1059 1.258 . S
O1052 C1050 1.247 . S
O1052 Zn1053 2.028 . S
Zn1053 O1052 2.028 . S
Zn1053 O1057 2.035 . S
Zn1053 O1059 2.035 . S
Zn1053 O1060 2.028 . S
O1054 C1050 1.258 . S
O1054 Zn1055 2.035 . S
Zn1055 O1054 2.035 . S
Zn1055 O1056 2.028 . S
Zn1055 O1058 2.028 . S
Zn1055 O1061 2.035 . S
O1056 Zn1055 2.028 . S
O1056 C1062 1.247 . S
O1057 Zn1053 2.035 . S
O1057 C1062 1.258 . S
O1058 C1051 1.247 . S
O1058 Zn1055 2.028 . S
O1059 C1051 1.258 . S
O1059 Zn1053 2.035 . S
O1060 Zn1053 2.028 . S
O1060 C1063 1.247 . S
O1061 Zn1055 2.035 . S
O1061 C1063 1.258 . S
C1062 O1056 1.247 . S
C1062 O1057 1.258 . S
C1063 O1060 1.247 . S
C1063 O1061 1.258 . S
C1064 O1066 1.247 . S
C1064 O1068 1.258 . S
C1065 O1072 1.247 . S
C1065 O1073 1.258 . S
O1066 C1064 1.247 . S
O1066 Zn1067 2.028 . S
Zn1067 O1066 2.028 . S
Zn1067 O1071 2.035 . S
Zn1067 O1073 2.035 . S
Zn1067 O1074 2.028 . S
O1068 C1064 1.258 . S
O1068 Zn1069 2.035 . S
Zn1069 O1068 2.035 . S
Zn1069 O1070 2.028 . S
Zn1069 O1072 2.028 . S
Zn1069 O1075 2.035 . S
O1070 Zn1069 2.028 . S
O1070 C1076 1.247 . S
O1071 Zn1067 2.035 . S
O1071 C1076 1.258 . S
O1072 C1065 1.247 . S
O1072 Zn1069 2.028 . S
O1073 C1065 1.258 . S
O1073 Zn1067 2.035 . S
O1074 Zn1067 2.028 . S
O1074 C1077 1.247 . S
O1075 Zn1069 2.035 . S
O1075 C1077 1.258 . S
C1076 O1070 1.247 . S
C1076 O1071 1.258 . S
C1077 O1074 1.247 . S
C1077 O1075 1.258 . S
C1078 O1080 1.247 . S
C1078 O1082 1.258 . S
C1079 O1086 1.247 . S
C1079 O1087 1.258 . S
O1080 C1078 1.247 . S
O1080 Zn1081 2.028 . S
Zn1081 O1080 2.028 . S
Zn1081 O1085 2.035 . S
Zn1081 O1087 2.035 . S
Zn1081 O1088 2.028 . S
O1082 C1078 1.258 . S
O1082 Zn1083 2.035 . S
Zn1083 O1082 2.035 . S
Zn1083 O1084 2.028 . S
Zn1083 O1086 2.028 . S
Zn1083 O1089 2.035 . S
O1084 Zn1083 2.028 . S
O1084 C1090 1.247 . S
O1085 Zn1081 2.035 . S
O1085 C1090 1.258 . S
O1086 C1079 1.247 . S
O1086 Zn1083 2.028 . S
O1087 C1079 1.258 . S
O1087 Zn1081 2.035 . S
O1088 Zn1081 2.028 . S
O1088 C1091 1.247 . S
O1089 Zn1083 2.035 . S
O1089 C1091 1.258 . S
C1090 O1084 1.247 . S
C1090 O1085 1.258 . S
C1091 O1088 1.247 . S
C1091 O1089 1.258 . S
C1092 O1094 1.247 . S
C1092 O1096 1.258 . S
C1093 O1100 1.247 . S
C1093 O1101 1.258 . S
O1094 C1092 1.247 . S
O1094 Zn1095 2.028 1_655 S
Zn1095 O1094 2.028 1_455 S
Zn1095 O1099 2.035 . S
Zn1095 O1101 2.035 . S
Zn1095 O1102 2.028 1_455 S
O1096 C1092 1.258 . S
O1096 Zn1097 2.035 1_655 S
Zn1097 O1096 2.035 1_455 S
Zn1097 O1098 2.028 . S
Zn1097 O1100 2.028 . S
Zn1097 O1103 2.035 1_455 S
O1098 Zn1097 2.028 . S
O1098 C1104 1.247 . S
O1099 Zn1095 2.035 . S
O1099 C1104 1.258 . S
O1100 C1093 1.247 . S
O1100 Zn1097 2.028 . S
O1101 C1093 1.258 . S
O1101 Zn1095 2.035 . S
O1102 Zn1095 2.028 1_655 S
O1102 C1105 1.247 . S
O1103 Zn1097 2.035 1_655 S
O1103 C1105 1.258 . S
C1104 O1098 1.247 . S
C1104 O1099 1.258 . S
C1105 O1102 1.247 . S
C1105 O1103 1.258 . S
C1106 O1108 1.247 . S
C1106 O1110 1.258 . S
C1107 O1114 1.247 . S
C1107 O1115 1.258 . S
O1108 C1106 1.247 . S
O1108 Zn1109 2.028 . S
Zn1109 O1108 2.028 . S
Zn1109 O1113 2.035 . S
Zn1109 O1115 2.035 . S
Zn1109 O1116 2.028 . S
O1110 C1106 1.258 . S
O1110 Zn1111 2.035 . S
Zn1111 O1110 2.035 . S
Zn1111 O1112 2.028 . S
Zn1111 O1114 2.028 . S
Zn1111 O1117 2.035 . S
O1112 Zn1111 2.028 . S
O1112 C1118 1.247 . S
O1113 Zn1109 2.035 . S
O1113 C1118 1.258 . S
O1114 C1107 1.247 . S
O1114 Zn1111 2.028 . S
O1115 C1107 1.258 . S
O1115 Zn1109 2.035 . S
O1116 Zn1109 2.028 . S
O1116 C1119 1.247 . S
O1117 Zn1111 2.035 . S
O1117 C1119 1.258 . S
C1118 O1112 1.247 . S
C1118 O1113 1.258 . S
C1119 O1116 1.247 . S
C1119 O1117 1.258 . S
C1120 O1122 1.247 . S
C1120 O1124 1.258 . S
C1121 O1128 1.247 . S
C1121 O1129 1.258 . S
O1122 C1120 1.247 . S
O1122 Zn1123 2.028 . S
Zn1123 O1122 2.028 . S
Zn1123 O1127 2.035 . S
Zn1123 O1129 2.035 . S
Zn1123 O1130 2.028 . S
O1124 C1120 1.258 . S
O1124 Zn1125 2.035 . S
Zn1125 O1124 2.035 . S
Zn1125 O1126 2.028 . S
Zn1125 O1128 2.028 . S
Zn1125 O1131 2.035 . S
O1126 Zn1125 2.028 . S
O1126 C1132 1.247 . S
O1127 Zn1123 2.035 . S
O1127 C1132 1.258 . S
O1128 C1121 1.247 . S
O1128 Zn1125 2.028 . S
O1129 C1121 1.258 . S
O1129 Zn1123 2.035 . S
O1130 Zn1123 2.028 . S
O1130 C1133 1.247 . S
O1131 Zn1125 2.035 . S
O1131 C1133 1.258 . S
C1132 O1126 1.247 . S
C1132 O1127 1.258 . S
C1133 O1130 1.247 . S
C1133 O1131 1.258 . S
C1134 O1136 1.247 . S
C1134 O1138 1.258 . S
C1135 O1142 1.247 . S
C1135 O1143 1.258 . S
O1136 C1134 1.247 . S
O1136 Zn1137 2.028 . S
Zn1137 O1136 2.028 . S
Zn1137 O1141 2.035 . S
Zn1137 O1143 2.035 . S
Zn1137 O1144 2.028 . S
O1138 C1134 1.258 . S
O1138 Zn1139 2.035 . S
Zn1139 O1138 2.035 . S
Zn1139 O1140 2.028 . S
Zn1139 O1142 2.028 . S
Zn1139 O1145 2.035 . S
O1140 Zn1139 2.028 . S
O1140 C1146 1.247 . S
O1141 Zn1137 2.035 . S
O1141 C1146 1.258 . S
O1142 C1135 1.247 . S
O1142 Zn1139 2.028 . S
O1143 C1135 1.258 . S
O1143 Zn1137 2.035 . S
O1144 Zn1137 2.028 . S
O1144 C1147 1.247 . S
O1145 Zn1139 2.035 . S
O1145 C1147 1.258 . S
C1146 O1140 1.247 . S
C1146 O1141 1.258 . S
C1147 O1144 1.247 . S
C1147 O1145 1.258 . S
C1148 O1150 1.247 . S
C1148 O1152 1.258 . S
C1149 O1156 1.247 . S
C1149 O1157 1.258 . S
O1150 C1148 1.247 . S
O1150 Zn1151 2.028 . S
Zn1151 O1150 2.028 . S
Zn1151 O1155 2.035 . S
Zn1151 O1157 2.035 . S
Zn1151 O1158 2.028 . S
O1152 C1148 1.258 . S
O1152 Zn1153 2.035 . S
Zn1153 O1152 2.035 . S
Zn1153 O1154 2.028 . S
Zn1153 O1156 2.028 . S
Zn1153 O1159 2.035 . S
O1154 Zn1153 2.028 . S
O1154 C1160 1.247 . S
O1155 Zn1151 2.035 . S
O1155 C1160 1.258 . S
O1156 C1149 1.247 . S
O1156 Zn1153 2.028 . S
O1157 C1149 1.258 . S
O1157 Zn1151 2.035 . S
O1158 Zn1151 2.028 . S
O1158 C1161 1.247 . S
O1159 Zn1153 2.035 . S
O1159 C1161 1.258 . S
C1160 O1154 1.247 . S
C1160 O1155 1.258 . S
C1161 O1158 1.247 . S
C1161 O1159 1.258 . S
C1162 O1164 1.247 . S
C1162 O1166 1.258 . S
C1163 O1170 1.247 . S
C1163 O1171 1.258 . S
O1164 C1162 1.247 . S
O1164 Zn1165 2.028 . S
Zn1165 O1164 2.028 . S
Zn1165 O1169 2.035 . S
Zn1165 O1171 2.035 . S
Zn1165 O1172 2.028 . S
O1166 C1162 1.258 . S
O1166 Zn1167 2.035 . S
Zn1167 O1166 2.035 . S
Zn1167 O1168 2.028 . S
Zn1167 O1170 2.028 . S
Zn1167 O1173 2.035 . S
O1168 Zn1167 2.028 . S
O1168 C1174 1.247 . S
O1169 Zn1165 2.035 . S
O1169 C1174 1.258 . S
O1170 C1163 1.247 . S
O1170 Zn1167 2.028 . S
O1171 C1163 1.258 . S
O1171 Zn1165 2.035 . S
O1172 Zn1165 2.028 . S
O1172 C1175 1.247 . S
O1173 Zn1167 2.035 . S
O1173 C1175 1.258 . S
C1174 O1168 1.247 . S
C1174 O1169 1.258 . S
C1175 O1172 1.247 . S
C1175 O1173 1.258 . S
C1176 O1178 1.247 . S
C1176 O1180 1.258 . S
C1177 O1184 1.247 . S
C1177 O1185 1.258 . S
O1178 C1176 1.247 . S
O1178 Zn1179 2.028 . S
Zn1179 O1178 2.028 . S
Zn1179 O1183 2.035 . S
Zn1179 O1185 2.035 . S
Zn1179 O1186 2.028 . S
O1180 C1176 1.258 . S
O1180 Zn1181 2.035 . S
Zn1181 O1180 2.035 . S
Zn1181 O1182 2.028 . S
Zn1181 O1184 2.028 . S
Zn1181 O1187 2.035 . S
O1182 Zn1181 2.028 . S
O1182 C1188 1.247 . S
O1183 Zn1179 2.035 . S
O1183 C1188 1.258 . S
O1184 C1177 1.247 . S
O1184 Zn1181 2.028 . S
O1185 C1177 1.258 . S
O1185 Zn1179 2.035 . S
O1186 Zn1179 2.028 . S
O1186 C1189 1.247 . S
O1187 Zn1181 2.035 . S
O1187 C1189 1.258 . S
C1188 O1182 1.247 . S
C1188 O1183 1.258 . S
C1189 O1186 1.247 . S
C1189 O1187 1.258 . S
C1190 O1192 1.247 . S
C1190 O1194 1.258 . S
C1191 O1198 1.247 . S
C1191 O1199 1.258 . S
O1192 C1190 1.247 . S
O1192 Zn1193 2.028 . S
Zn1193 O1192 2.028 . S
Zn1193 O1197 2.035 . S
Zn1193 O1199 2.035 . S
Zn1193 O1200 2.028 . S
O1194 C1190 1.258 . S
O1194 Zn1195 2.035 . S
Zn1195 O1194 2.035 . S
Zn1195 O1196 2.028 . S
Zn1195 O1198 2.028 . S
Zn1195 O1201 2.035 . S
O1196 Zn1195 2.028 . S
O1196 C1202 1.247 . S
O1197 Zn1193 2.035 . S
O1197 C1202 1.258 . S
O1198 C1191 1.247 . S
O1198 Zn1195 2.028 . S
O1199 C1191 1.258 . S
O1199 Zn1193 2.035 . S
O1200 Zn1193 2.028 . S
O1200 C1203 1.247 . S
O1201 Zn1195 2.035 . S
O1201 C1203 1.258 . S
C1202 O1196 1.247 . S
C1202 O1197 1.258 . S
C1203 O1200 1.247 . S
C1203 O1201 1.258 . S
C1204 O1206 1.247 . S
C1204 O1208 1.258 . S
C1205 O1212 1.247 . S
C1205 O1213 1.258 . S
O1206 C1204 1.247 . S
O1206 Zn1207 2.028 . S
Zn1207 O1206 2.028 . S
Zn1207 O1211 2.035 . S
Zn1207 O1213 2.035 . S
Zn1207 O1214 2.028 . S
O1208 C1204 1.258 . S
O1208 Zn1209 2.035 . S
Zn1209 O1208 2.035 . S
Zn1209 O1210 2.028 . S
Zn1209 O1212 2.028 . S
Zn1209 O1215 2.035 . S
O1210 Zn1209 2.028 . S
O1210 C1216 1.247 . S
O1211 Zn1207 2.035 . S
O1211 C1216 1.258 . S
O1212 C1205 1.247 . S
O1212 Zn1209 2.028 . S
O1213 C1205 1.258 . S
O1213 Zn1207 2.035 . S
O1214 Zn1207 2.028 . S
O1214 C1217 1.247 . S
O1215 Zn1209 2.035 . S
O1215 C1217 1.258 . S
C1216 O1210 1.247 . S
C1216 O1211 1.258 . S
C1217 O1214 1.247 . S
C1217 O1215 1.258 . S
C1218 O1220 1.247 . S
C1218 O1222 1.258 . S
C1219 O1226 1.247 . S
C1219 O1227 1.258 . S
O1220 C1218 1.247 . S
O1220 Zn1221 2.028 . S
Zn1221 O1220 2.028 . S
Zn1221 O1225 2.035 . S
Zn1221 O1227 2.035 . S
Zn1221 O1228 2.028 . S
O1222 C1218 1.258 . S
O1222 Zn1223 2.035 . S
Zn1223 O1222 2.035 . S
Zn1223 O1224 2.028 . S
Zn1223 O1226 2.028 . S
Zn1223 O1229 2.035 . S
O1224 Zn1223 2.028 . S
O1224 C1230 1.247 . S
O1225 Zn1221 2.035 . S
O1225 C1230 1.258 . S
O1226 C1219 1.247 . S
O1226 Zn1223 2.028 . S
O1227 C1219 1.258 . S
O1227 Zn1221 2.035 . S
O1228 Zn1221 2.028 . S
O1228 C1231 1.247 . S
O1229 Zn1223 2.035 . S
O1229 C1231 1.258 . S
C1230 O1224 1.247 . S
C1230 O1225 1.258 . S
C1231 O1228 1.247 . S
C1231 O1229 1.258 . S
C1232 O1234 1.247 . S
C1232 O1236 1.258 . S
C1233 O1240 1.247 . S
C1233 O1241 1.258 . S
O1234 C1232 1.247 . S
O1234 Zn1235 2.028 . S
Zn1235 O1234 2.028 . S
Zn1235 O1239 2.035 . S
Zn1235 O1241 2.035 . S
Zn1235 O1242 2.028 . S
O1236 C1232 1.258 . S
O1236 Zn1237 2.035 . S
Zn1237 O1236 2.035 . S
Zn1237 O1238 2.028 . S
Zn1237 O1240 2.028 . S
Zn1237 O1243 2.035 . S
O1238 Zn1237 2.028 . S
O1238 C1244 1.247 . S
O1239 Zn1235 2.035 . S
O1239 C1244 1.258 . S
O1240 C1233 1.247 . S
O1240 Zn1237 2.028 . S
O1241 C1233 1.258 . S
O1241 Zn1235 2.035 . S
O1242 Zn1235 2.028 . S
O1242 C1245 1.247 . S
O1243 Zn1237 2.035 . S
O1243 C1245 1.258 . S
C1244 O1238 1.247 . S
C1244 O1239 1.258 . S
C1245 O1242 1.247 . S
C1245 O1243 1.258 . S
C1246 O1248 1.247 . S
C1246 O1250 1.258 . S
C1247 O1254 1.247 . S
C1247 O1255 1.258 . S
O1248 C1246 1.247 . S
O1248 Zn1249 2.028 . S
Zn1249 O1248 2.028 . S
Zn1249 O1253 2.035 . S
Zn1249 O1255 2.035 . S
Zn1249 O1256 2.028 . S
O1250 C1246 1.258 . S
O1250 Zn1251 2.035 . S
Zn1251 O1250 2.035 . S
Zn1251 O1252 2.028 . S
Zn1251 O1254 2.028 . S
Zn1251 O1257 2.035 . S
O1252 Zn1251 2.028 . S
O1252 C1258 1.247 . S
O1253 Zn1249 2.035 . S
O1253 C1258 1.258 . S
O1254 C1247 1.247 . S
O1254 Zn1251 2.028 . S
O1255 C1247 1.258 . S
O1255 Zn1249 2.035 . S
O1256 Zn1249 2.028 . S
O1256 C1259 1.247 . S
O1257 Zn1251 2.035 . S
O1257 C1259 1.258 . S
C1258 O1252 1.247 . S
C1258 O1253 1.258 . S
C1259 O1256 1.247 . S
C1259 O1257 1.258 . S
C1260 O1262 1.247 . S
C1260 O1264 1.258 . S
C1261 O1268 1.247 . S
C1261 O1269 1.258 . S
O1262 C1260 1.247 . S
O1262 Zn1263 2.028 . S
Zn1263 O1262 2.028 . S
Zn1263 O1267 2.035 . S
Zn1263 O1269 2.035 . S
Zn1263 O1270 2.028 . S
O1264 C1260 1.258 . S
O1264 Zn1265 2.035 . S
Zn1265 O1264 2.035 . S
Zn1265 O1266 2.028 . S
Zn1265 O1268 2.028 . S
Zn1265 O1271 2.035 . S
O1266 Zn1265 2.028 . S
O1266 C1272 1.247 . S
O1267 Zn1263 2.035 . S
O1267 C1272 1.258 . S
O1268 C1261 1.247 . S
O1268 Zn1265 2.028 . S
O1269 C1261 1.258 . S
O1269 Zn1263 2.035 . S
O1270 Zn1263 2.028 . S
O1270 C1273 1.247 . S
O1271 Zn1265 2.035 . S
O1271 C1273 1.258 . S
C1272 O1266 1.247 . S
C1272 O1267 1.258 . S
C1273 O1270 1.247 . S
C1273 O1271 1.258 . S
C1274 O1276 1.247 . S
C1274 O1278 1.258 . S
C1275 O1282 1.247 . S
C1275 O1283 1.258 . S
O1276 C1274 1.247 . S
O1276 Zn1277 2.028 . S
Zn1277 O1276 2.028 . S
Zn1277 O1281 2.035 1_554 S
Zn1277 O1283 2.035 1_554 S
Zn1277 O1284 2.028 . S
O1278 C1274 1.258 . S
O1278 Zn1279 2.035 . S
Zn1279 O1278 2.035 . S
Zn1279 O1280 2.028 1_554 S
Zn1279 O1282 2.028 1_554 S
Zn1279 O1285 2.035 . S
O1280 Zn1279 2.028 1_556 S
O1280 C1286 1.247 . S
O1281 Zn1277 2.035 1_556 S
O1281 C1286 1.258 . S
O1282 C1275 1.247 . S
O1282 Zn1279 2.028 1_556 S
O1283 C1275 1.258 . S
O1283 Zn1277 2.035 1_556 S
O1284 Zn1277 2.028 . S
O1284 C1287 1.247 . S
O1285 Zn1279 2.035 . S
O1285 C1287 1.258 . S
C1286 O1280 1.247 . S
C1286 O1281 1.258 . S
C1287 O1284 1.247 . S
C1287 O1285 1.258 . S
C1288 O1290 1.247 . S
C1288 O1292 1.258 . S
C1289 O1296 1.247 . S
C1289 O1297 1.258 . S
O1290 C1288 1.247 . S
O1290 Zn1291 2.028 . S
Zn1291 O1290 2.028 . S
Zn1291 O1295 2.035 . S
Zn1291 O1297 2.035 . S
Zn1291 O1298 2.028 . S
O1292 C1288 1.258 . S
O1292 Zn1293 2.035 . S
Zn1293 O1292 2.035 . S
Zn1293 O1294 2.028 . S
Zn1293 O1296 2.028 . S
Zn1293 O1299 2.035 . S
O1294 Zn1293 2.028 . S
O1294 C1300 1.247 . S
O1295 Zn1291 2.035 . S
O1295 C1300 1.258 . S
O1296 C1289 1.247 . S
O1296 Zn1293 2.028 . S
O1297 C1289 1.258 . S
O1297 Zn1291 2.035 . S
O1298 Zn1291 2.028 . S
O1298 C1301 1.247 . S
O1299 Zn1293 2.035 . S
O1299 C1301 1.258 . S
C1300 O1294 1.247 . S
C1300 O1295 1.258 . S
C1301 O1298 1.247 . S
C1301 O1299 1.258 . S
C1302 O1304 1.247 . S
C1302 O1306 1.258 . S
C1303 O1310 1.247 . S
C1303 O1311 1.258 . S
O1304 C1302 1.247 . S
O1304 Zn1305 2.028 . S
Zn1305 O1304 2.028 . S
Zn1305 O1309 2.035 1_556 S
Zn1305 O1311 2.035 1_556 S
Zn1305 O1312 2.028 . S
O1306 C1302 1.258 . S
O1306 Zn1307 2.035 . S
Zn1307 O1306 2.035 . S
Zn1307 O1308 2.028 1_556 S
Zn1307 O1310 2.028 1_556 S
Zn1307 O1313 2.035 . S
O1308 Zn1307 2.028 1_554 S
O1308 C1314 1.247 . S
O1309 Zn1305 2.035 1_554 S
O1309 C1314 1.258 . S
O1310 C1303 1.247 . S
O1310 Zn1307 2.028 1_554 S
O1311 C1303 1.258 . S
O1311 Zn1305 2.035 1_554 S
O1312 Zn1305 2.028 . S
O1312 C1315 1.247 . S
O1313 Zn1307 2.035 . S
O1313 C1315 1.258 . S
C1314 O1308 1.247 . S
C1314 O1309 1.258 . S
C1315 O1312 1.247 . S
C1315 O1313 1.258 . S
C1316 O1318 1.247 . S
C1316 O1320 1.258 . S
C1317 O1324 1.247 . S
C1317 O1325 1.258 . S
O1318 C1316 1.247 . S
O1318 Zn1319 2.028 . S
Zn1319 O1318 2.028 . S
Zn1319 O1323 2.035 . S
Zn1319 O1325 2.035 . S
Zn1319 O1326 2.028 . S
O1320 C1316 1.258 . S
O1320 Zn1321 2.035 . S
Zn1321 O1320 2.035 . S
Zn1321 O1322 2.028 . S
Zn1321 O1324 2.028 . S
Zn1321 O1327 2.035 . S
O1322 Zn1321 2.028 . S
O1322 C1328 1.247 . S
O1323 Zn1319 2.035 . S
O1323 C1328 1.258 . S
O1324 C1317 1.247 . S
O1324 Zn1321 2.028 . S
O1325 C1317 1.258 . S
O1325 Zn1319 2.035 . S
O1326 Zn1319 2.028 . S
O1326 C1329 1.247 . S
O1327 Zn1321 2.035 . S
O1327 C1329 1.258 . S
C1328 O1322 1.247 . S
C1328 O1323 1.258 . S
C1329 O1326 1.247 . S
C1329 O1327 1.258 . S
C1330 O1332 1.247 . S
C1330 O1334 1.258 . S
C1331 O1338 1.247 . S
C1331 O1339 1.258 . S
O1332 C1330 1.247 . S
O1332 Zn1333 2.028 . S
Zn1333 O1332 2.028 . S
Zn1333 O1337 2.035 . S
Zn1333 O1339 2.035 . S
Zn1333 O1340 2.028 . S
O1334 C1330 1.258 . S
O1334 Zn1335 2.035 . S
Zn1335 O1334 2.035 . S
Zn1335 O1336 2.028 . S
Zn1335 O1338 2.028 . S
Zn1335 O1341 2.035 . S
O1336 Zn1335 2.028 . S
O1336 C1342 1.247 . S
O1337 Zn1333 2.035 . S
O1337 C1342 1.258 . S
O1338 C1331 1.247 . S
O1338 Zn1335 2.028 . S
O1339 C1331 1.258 . S
O1339 Zn1333 2.035 . S
O1340 Zn1333 2.028 . S
O1340 C1343 1.247 . S
O1341 Zn1335 2.035 . S
O1341 C1343 1.258 . S
C1342 O1336 1.247 . S
C1342 O1337 1.258 . S
C1343 O1340 1.247 . S
C1343 O1341 1.258 . S
H1344 C1350 0.930 . S
H1345 C1353 0.930 . S
H1346 C1354 0.930 . S
H1347 C1355 0.930 . S
H1348 C1358 0.930 . S
H1349 C1359 0.930 . S
C1350 H1344 0.930 . S
C1350 C1351 1.355 . S
C1350 C1352 1.415 . S
C1351 C1350 1.355 . S
C1351 C1353 1.419 . S
C1352 C1350 1.415 . S
C1352 C1357 1.425 . S
C1352 C1359 1.409 . S
C1353 H1345 0.930 . S
C1353 C1351 1.419 . S
C1353 C1354 1.362 . S
C1354 H1346 0.930 . S
C1354 C1353 1.362 . S
C1354 C1357 1.409 . S
C1355 H1347 0.930 . S
C1355 C1356 1.355 . S
C1355 C1357 1.415 . S
C1356 C1355 1.355 . S
C1356 C1358 1.419 . S
C1357 C1352 1.425 . S
C1357 C1354 1.409 . S
C1357 C1355 1.415 . S
C1358 H1348 0.930 . S
C1358 C1356 1.419 . S
C1358 C1359 1.362 . S
C1359 H1349 0.930 . S
C1359 C1352 1.409 . S
C1359 C1358 1.362 . S
H1360 C1366 0.930 . S
H1361 C1369 0.930 . S
H1362 C1370 0.930 . S
H1363 C1371 0.930 . S
H1364 C1374 0.930 . S
H1365 C1375 0.930 . S
C1366 H1360 0.930 . S
C1366 C1367 1.355 . S
C1366 C1368 1.415 . S
C1367 C1366 1.355 . S
C1367 C1369 1.419 . S
C1368 C1366 1.415 . S
C1368 C1373 1.425 . S
C1368 C1375 1.409 . S
C1369 H1361 0.930 . S
C1369 C1367 1.419 . S
C1369 C1370 1.362 . S
C1370 H1362 0.930 . S
C1370 C1369 1.362 . S
C1370 C1373 1.409 . S
C1371 H1363 0.930 . S
C1371 C1372 1.355 . S
C1371 C1373 1.415 . S
C1372 C1371 1.355 . S
C1372 C1374 1.419 . S
C1373 C1368 1.425 . S
C1373 C1370 1.409 . S
C1373 C1371 1.415 . S
C1374 H1364 0.930 . S
C1374 C1372 1.419 . S
C1374 C1375 1.362 . S
C1375 H1365 0.930 . S
C1375 C1368 1.409 . S
C1375 C1374 1.362 . S
H1376 C1382 0.930 . S
H1377 C1385 0.930 . S
H1378 C1386 0.930 . S
H1379 C1387 0.930 . S
H1380 C1390 0.930 . S
H1381 C1391 0.930 . S
C1382 H1376 0.930 . S
C1382 C1383 1.355 . S
C1382 C1384 1.415 . S
C1383 C1382 1.355 . S
C1383 C1385 1.419 . S
C1384 C1382 1.415 . S
C1384 C1389 1.425 . S
C1384 C1391 1.409 . S
C1385 H1377 0.930 . S
C1385 C1383 1.419 . S
C1385 C1386 1.362 . S
C1386 H1378 0.930 . S
C1386 C1385 1.362 . S
C1386 C1389 1.409 . S
C1387 H1379 0.930 . S
C1387 C1388 1.355 . S
C1387 C1389 1.415 . S
C1388 C1387 1.355 . S
C1388 C1390 1.419 . S
C1389 C1384 1.425 . S
C1389 C1386 1.409 . S
C1389 C1387 1.415 . S
C1390 H1380 0.930 . S
C1390 C1388 1.419 . S
C1390 C1391 1.362 . S
C1391 H1381 0.930 . S
C1391 C1384 1.409 . S
C1391 C1390 1.362 . S
H1392 C1398 0.930 . S
H1393 C1401 0.930 . S
H1394 C1402 0.930 . S
H1395 C1403 0.930 . S
H1396 C1406 0.930 . S
H1397 C1407 0.930 . S
C1398 H1392 0.930 . S
C1398 C1399 1.355 . S
C1398 C1400 1.415 . S
C1399 C1398 1.355 . S
C1399 C1401 1.419 . S
C1400 C1398 1.415 . S
C1400 C1405 1.425 . S
C1400 C1407 1.409 . S
C1401 H1393 0.930 . S
C1401 C1399 1.419 . S
C1401 C1402 1.362 . S
C1402 H1394 0.930 . S
C1402 C1401 1.362 . S
C1402 C1405 1.409 . S
C1403 H1395 0.930 . S
C1403 C1404 1.355 . S
C1403 C1405 1.415 . S
C1404 C1403 1.355 . S
C1404 C1406 1.419 . S
C1405 C1400 1.425 . S
C1405 C1402 1.409 . S
C1405 C1403 1.415 . S
C1406 H1396 0.930 . S
C1406 C1404 1.419 . S
C1406 C1407 1.362 . S
C1407 H1397 0.930 . S
C1407 C1400 1.409 . S
C1407 C1406 1.362 . S
H1408 C1414 0.930 . S
H1409 C1417 0.930 . S
H1410 C1418 0.930 . S
H1411 C1419 0.930 . S
H1412 C1422 0.930 . S
H1413 C1423 0.930 . S
C1414 H1408 0.930 . S
C1414 C1415 1.355 . S
C1414 C1416 1.415 . S
C1415 C1414 1.355 . S
C1415 C1417 1.419 . S
C1416 C1414 1.415 . S
C1416 C1421 1.425 . S
C1416 C1423 1.409 . S
C1417 H1409 0.930 . S
C1417 C1415 1.419 . S
C1417 C1418 1.362 . S
C1418 H1410 0.930 . S
C1418 C1417 1.362 . S
C1418 C1421 1.409 . S
C1419 H1411 0.930 . S
C1419 C1420 1.355 . S
C1419 C1421 1.415 . S
C1420 C1419 1.355 . S
C1420 C1422 1.419 . S
C1421 C1416 1.425 . S
C1421 C1418 1.409 . S
C1421 C1419 1.415 . S
C1422 H1412 0.930 . S
C1422 C1420 1.419 . S
C1422 C1423 1.362 . S
C1423 H1413 0.930 . S
C1423 C1416 1.409 . S
C1423 C1422 1.362 . S
H1424 C1430 0.930 . S
H1425 C1433 0.930 . S
H1426 C1434 0.930 . S
H1427 C1435 0.930 . S
H1428 C1438 0.930 . S
H1429 C1439 0.930 . S
C1430 H1424 0.930 . S
C1430 C1431 1.355 . S
C1430 C1432 1.415 . S
C1431 C1430 1.355 . S
C1431 C1433 1.419 . S
C1432 C1430 1.415 . S
C1432 C1437 1.425 . S
C1432 C1439 1.409 . S
C1433 H1425 0.930 . S
C1433 C1431 1.419 . S
C1433 C1434 1.362 . S
C1434 H1426 0.930 . S
C1434 C1433 1.362 . S
C1434 C1437 1.409 . S
C1435 H1427 0.930 . S
C1435 C1436 1.355 . S
C1435 C1437 1.415 . S
C1436 C1435 1.355 . S
C1436 C1438 1.419 . S
C1437 C1432 1.425 . S
C1437 C1434 1.409 . S
C1437 C1435 1.415 . S
C1438 H1428 0.930 . S
C1438 C1436 1.419 . S
C1438 C1439 1.362 . S
C1439 H1429 0.930 . S
C1439 C1432 1.409 . S
C1439 C1438 1.362 . S
H1440 C1446 0.930 . S
H1441 C1449 0.930 . S
H1442 C1450 0.930 . S
H1443 C1451 0.930 . S
H1444 C1454 0.930 . S
H1445 C1455 0.930 . S
C1446 H1440 0.930 . S
C1446 C1447 1.355 . S
C1446 C1448 1.415 . S
C1447 C1446 1.355 . S
C1447 C1449 1.419 . S
C1448 C1446 1.415 . S
C1448 C1453 1.425 . S
C1448 C1455 1.409 . S
C1449 H1441 0.930 . S
C1449 C1447 1.419 . S
C1449 C1450 1.362 . S
C1450 H1442 0.930 . S
C1450 C1449 1.362 . S
C1450 C1453 1.409 . S
C1451 H1443 0.930 . S
C1451 C1452 1.355 . S
C1451 C1453 1.415 . S
C1452 C1451 1.355 . S
C1452 C1454 1.419 . S
C1453 C1448 1.425 . S
C1453 C1450 1.409 . S
C1453 C1451 1.415 . S
C1454 H1444 0.930 . S
C1454 C1452 1.419 . S
C1454 C1455 1.362 . S
C1455 H1445 0.930 . S
C1455 C1448 1.409 . S
C1455 C1454 1.362 . S
H1456 C1462 0.930 . S
H1457 C1465 0.930 . S
H1458 C1466 0.930 . S
H1459 C1467 0.930 . S
H1460 C1470 0.930 . S
H1461 C1471 0.930 . S
C1462 H1456 0.930 . S
C1462 C1463 1.355 . S
C1462 C1464 1.415 . S
C1463 C1462 1.355 . S
C1463 C1465 1.419 . S
C1464 C1462 1.415 . S
C1464 C1469 1.425 . S
C1464 C1471 1.409 . S
C1465 H1457 0.930 . S
C1465 C1463 1.419 . S
C1465 C1466 1.362 . S
C1466 H1458 0.930 . S
C1466 C1465 1.362 . S
C1466 C1469 1.409 . S
C1467 H1459 0.930 . S
C1467 C1468 1.355 . S
C1467 C1469 1.415 . S
C1468 C1467 1.355 . S
C1468 C1470 1.419 . S
C1469 C1464 1.425 . S
C1469 C1466 1.409 . S
C1469 C1467 1.415 . S
C1470 H1460 0.930 . S
C1470 C1468 1.419 . S
C1470 C1471 1.362 . S
C1471 H1461 0.930 . S
C1471 C1464 1.409 . S
C1471 C1470 1.362 . S
H1472 C1478 0.930 . S
H1473 C1481 0.930 . S
H1474 C1482 0.930 . S
H1475 C1483 0.930 . S
H1476 C1486 0.930 . S
H1477 C1487 0.930 . S
C1478 H1472 0.930 . S
C1478 C1479 1.355 . S
C1478 C1480 1.415 . S
C1479 C1478 1.355 . S
C1479 C1481 1.419 . S
C1480 C1478 1.415 . S
C1480 C1485 1.425 . S
C1480 C1487 1.409 . S
C1481 H1473 0.930 . S
C1481 C1479 1.419 . S
C1481 C1482 1.362 . S
C1482 H1474 0.930 . S
C1482 C1481 1.362 . S
C1482 C1485 1.409 . S
C1483 H1475 0.930 . S
C1483 C1484 1.355 . S
C1483 C1485 1.415 . S
C1484 C1483 1.355 . S
C1484 C1486 1.419 . S
C1485 C1480 1.425 . S
C1485 C1482 1.409 . S
C1485 C1483 1.415 . S
C1486 H1476 0.930 . S
C1486 C1484 1.419 . S
C1486 C1487 1.362 . S
C1487 H1477 0.930 . S
C1487 C1480 1.409 . S
C1487 C1486 1.362 . S
H1488 C1494 0.930 . S
H1489 C1497 0.930 . S
H1490 C1498 0.930 . S
H1491 C1499 0.930 . S
H1492 C1502 0.930 . S
H1493 C1503 0.930 . S
C1494 H1488 0.930 . S
C1494 C1495 1.355 . S
C1494 C1496 1.415 . S
C1495 C1494 1.355 . S
C1495 C1497 1.419 . S
C1496 C1494 1.415 . S
C1496 C1501 1.425 . S
C1496 C1503 1.409 . S
C1497 H1489 0.930 . S
C1497 C1495 1.419 . S
C1497 C1498 1.362 . S
C1498 H1490 0.930 . S
C1498 C1497 1.362 . S
C1498 C1501 1.409 . S
C1499 H1491 0.930 . S
C1499 C1500 1.355 . S
C1499 C1501 1.415 . S
C1500 C1499 1.355 . S
C1500 C1502 1.419 . S
C1501 C1496 1.425 . S
C1501 C1498 1.409 . S
C1501 C1499 1.415 . S
C1502 H1492 0.930 . S
C1502 C1500 1.419 . S
C1502 C1503 1.362 . S
C1503 H1493 0.930 . S
C1503 C1496 1.409 . S
C1503 C1502 1.362 . S
H1504 C1510 0.930 . S
H1505 C1513 0.930 . S
H1506 C1514 0.930 . S
H1507 C1515 0.930 . S
H1508 C1518 0.930 . S
H1509 C1519 0.930 . S
C1510 H1504 0.930 . S
C1510 C1511 1.355 . S
C1510 C1512 1.415 . S
C1511 C1510 1.355 . S
C1511 C1513 1.419 . S
C1512 C1510 1.415 . S
C1512 C1517 1.425 . S
C1512 C1519 1.409 . S
C1513 H1505 0.930 . S
C1513 C1511 1.419 . S
C1513 C1514 1.362 . S
C1514 H1506 0.930 . S
C1514 C1513 1.362 . S
C1514 C1517 1.409 . S
C1515 H1507 0.930 . S
C1515 C1516 1.355 . S
C1515 C1517 1.415 . S
C1516 C1515 1.355 . S
C1516 C1518 1.419 . S
C1517 C1512 1.425 . S
C1517 C1514 1.409 . S
C1517 C1515 1.415 . S
C1518 H1508 0.930 . S
C1518 C1516 1.419 . S
C1518 C1519 1.362 . S
C1519 H1509 0.930 . S
C1519 C1512 1.409 . S
C1519 C1518 1.362 . S
H1520 C1526 0.930 . S
H1521 C1529 0.930 . S
H1522 C1530 0.930 . S
H1523 C1531 0.930 . S
H1524 C1534 0.930 . S
H1525 C1535 0.930 . S
C1526 H1520 0.930 . S
C1526 C1527 1.355 . S
C1526 C1528 1.415 . S
C1527 C1526 1.355 . S
C1527 C1529 1.419 . S
C1528 C1526 1.415 . S
C1528 C1533 1.425 . S
C1528 C1535 1.409 . S
C1529 H1521 0.930 . S
C1529 C1527 1.419 . S
C1529 C1530 1.362 . S
C1530 H1522 0.930 . S
C1530 C1529 1.362 . S
C1530 C1533 1.409 . S
C1531 H1523 0.930 . S
C1531 C1532 1.355 . S
C1531 C1533 1.415 . S
C1532 C1531 1.355 . S
C1532 C1534 1.419 . S
C1533 C1528 1.425 . S
C1533 C1530 1.409 . S
C1533 C1531 1.415 . S
C1534 H1524 0.930 . S
C1534 C1532 1.419 . S
C1534 C1535 1.362 . S
C1535 H1525 0.930 . S
C1535 C1528 1.409 . S
C1535 C1534 1.362 . S
H1536 C1542 0.930 . S
H1537 C1545 0.930 . S
H1538 C1546 0.930 . S
H1539 C1547 0.930 . S
H1540 C1550 0.930 . S
H1541 C1551 0.930 . S
C1542 H1536 0.930 . S
C1542 C1543 1.355 . S
C1542 C1544 1.415 . S
C1543 C1542 1.355 . S
C1543 C1545 1.419 . S
C1544 C1542 1.415 . S
C1544 C1549 1.425 . S
C1544 C1551 1.409 . S
C1545 H1537 0.930 . S
C1545 C1543 1.419 . S
C1545 C1546 1.362 . S
C1546 H1538 0.930 . S
C1546 C1545 1.362 . S
C1546 C1549 1.409 . S
C1547 H1539 0.930 . S
C1547 C1548 1.355 . S
C1547 C1549 1.415 . S
C1548 C1547 1.355 . S
C1548 C1550 1.419 . S
C1549 C1544 1.425 . S
C1549 C1546 1.409 . S
C1549 C1547 1.415 . S
C1550 H1540 0.930 . S
C1550 C1548 1.419 . S
C1550 C1551 1.362 . S
C1551 H1541 0.930 . S
C1551 C1544 1.409 . S
C1551 C1550 1.362 . S
H1552 C1558 0.930 . S
H1553 C1561 0.930 . S
H1554 C1562 0.930 . S
H1555 C1563 0.930 . S
H1556 C1566 0.930 . S
H1557 C1567 0.930 . S
C1558 H1552 0.930 . S
C1558 C1559 1.355 . S
C1558 C1560 1.415 . S
C1559 C1558 1.355 . S
C1559 C1561 1.419 . S
C1560 C1558 1.415 . S
C1560 C1565 1.425 . S
C1560 C1567 1.409 . S
C1561 H1553 0.930 . S
C1561 C1559 1.419 . S
C1561 C1562 1.362 . S
C1562 H1554 0.930 . S
C1562 C1561 1.362 . S
C1562 C1565 1.409 . S
C1563 H1555 0.930 . S
C1563 C1564 1.355 . S
C1563 C1565 1.415 . S
C1564 C1563 1.355 . S
C1564 C1566 1.419 . S
C1565 C1560 1.425 . S
C1565 C1562 1.409 . S
C1565 C1563 1.415 . S
C1566 H1556 0.930 . S
C1566 C1564 1.419 . S
C1566 C1567 1.362 . S
C1567 H1557 0.930 . S
C1567 C1560 1.409 . S
C1567 C1566 1.362 . S
H1568 C1574 0.930 . S
H1569 C1577 0.930 . S
H1570 C1578 0.930 . S
H1571 C1579 0.930 . S
H1572 C1582 0.930 . S
H1573 C1583 0.930 . S
C1574 H1568 0.930 . S
C1574 C1575 1.355 . S
C1574 C1576 1.415 . S
C1575 C1574 1.355 . S
C1575 C1577 1.419 . S
C1576 C1574 1.415 . S
C1576 C1581 1.425 . S
C1576 C1583 1.409 . S
C1577 H1569 0.930 . S
C1577 C1575 1.419 . S
C1577 C1578 1.362 . S
C1578 H1570 0.930 . S
C1578 C1577 1.362 . S
C1578 C1581 1.409 . S
C1579 H1571 0.930 . S
C1579 C1580 1.355 . S
C1579 C1581 1.415 . S
C1580 C1579 1.355 . S
C1580 C1582 1.419 . S
C1581 C1576 1.425 . S
C1581 C1578 1.409 . S
C1581 C1579 1.415 . S
C1582 H1572 0.930 . S
C1582 C1580 1.419 . S
C1582 C1583 1.362 . S
C1583 H1573 0.930 . S
C1583 C1576 1.409 . S
C1583 C1582 1.362 . S
H1584 C1590 0.930 . S
H1585 C1593 0.930 . S
H1586 C1594 0.930 . S
H1587 C1595 0.930 . S
H1588 C1598 0.930 . S
H1589 C1599 0.930 . S
C1590 H1584 0.930 . S
C1590 C1591 1.355 . S
C1590 C1592 1.415 . S
C1591 C1590 1.355 . S
C1591 C1593 1.419 . S
C1592 C1590 1.415 . S
C1592 C1597 1.425 . S
C1592 C1599 1.409 . S
C1593 H1585 0.930 . S
C1593 C1591 1.419 . S
C1593 C1594 1.362 . S
C1594 H1586 0.930 . S
C1594 C1593 1.362 . S
C1594 C1597 1.409 . S
C1595 H1587 0.930 . S
C1595 C1596 1.355 . S
C1595 C1597 1.415 . S
C1596 C1595 1.355 . S
C1596 C1598 1.419 . S
C1597 C1592 1.425 . S
C1597 C1594 1.409 . S
C1597 C1595 1.415 . S
C1598 H1588 0.930 . S
C1598 C1596 1.419 . S
C1598 C1599 1.362 . S
C1599 H1589 0.930 . S
C1599 C1592 1.409 . S
C1599 C1598 1.362 . S
H1600 C1606 0.930 . S
H1601 C1609 0.930 . S
H1602 C1610 0.930 . S
H1603 C1611 0.930 . S
H1604 C1614 0.930 . S
H1605 C1615 0.930 . S
C1606 H1600 0.930 . S
C1606 C1607 1.355 . S
C1606 C1608 1.415 . S
C1607 C1606 1.355 . S
C1607 C1609 1.419 . S
C1608 C1606 1.415 . S
C1608 C1613 1.425 . S
C1608 C1615 1.409 . S
C1609 H1601 0.930 . S
C1609 C1607 1.419 . S
C1609 C1610 1.362 . S
C1610 H1602 0.930 . S
C1610 C1609 1.362 . S
C1610 C1613 1.409 . S
C1611 H1603 0.930 . S
C1611 C1612 1.355 . S
C1611 C1613 1.415 . S
C1612 C1611 1.355 . S
C1612 C1614 1.419 . S
C1613 C1608 1.425 . S
C1613 C1610 1.409 . S
C1613 C1611 1.415 . S
C1614 H1604 0.930 . S
C1614 C1612 1.419 . S
C1614 C1615 1.362 . S
C1615 H1605 0.930 . S
C1615 C1608 1.409 . S
C1615 C1614 1.362 . S
H1616 C1622 0.930 . S
H1617 C1625 0.930 . S
H1618 C1626 0.930 . S
H1619 C1627 0.930 . S
H1620 C1630 0.930 . S
H1621 C1631 0.930 . S
C1622 H1616 0.930 . S
C1622 C1623 1.355 . S
C1622 C1624 1.415 . S
C1623 C1622 1.355 . S
C1623 C1625 1.419 . S
C1624 C1622 1.415 . S
C1624 C1629 1.425 . S
C1624 C1631 1.409 . S
C1625 H1617 0.930 . S
C1625 C1623 1.419 . S
C1625 C1626 1.362 . S
C1626 H1618 0.930 . S
C1626 C1625 1.362 . S
C1626 C1629 1.409 . S
C1627 H1619 0.930 . S
C1627 C1628 1.355 . S
C1627 C1629 1.415 . S
C1628 C1627 1.355 . S
C1628 C1630 1.419 . S
C1629 C1624 1.425 . S
C1629 C1626 1.409 . S
C1629 C1627 1.415 . S
C1630 H1620 0.930 . S
C1630 C1628 1.419 . S
C1630 C1631 1.362 . S
C1631 H1621 0.930 . S
C1631 C1624 1.409 . S
C1631 C1630 1.362 . S
H1632 C1638 0.930 . S
H1633 C1641 0.930 . S
H1634 C1642 0.930 . S
H1635 C1643 0.930 . S
H1636 C1646 0.930 . S
H1637 C1647 0.930 . S
C1638 H1632 0.930 . S
C1638 C1639 1.355 . S
C1638 C1640 1.415 . S
C1639 C1638 1.355 . S
C1639 C1641 1.419 . S
C1640 C1638 1.415 . S
C1640 C1645 1.425 . S
C1640 C1647 1.409 . S
C1641 H1633 0.930 . S
C1641 C1639 1.419 . S
C1641 C1642 1.362 . S
C1642 H1634 0.930 . S
C1642 C1641 1.362 . S
C1642 C1645 1.409 . S
C1643 H1635 0.930 . S
C1643 C1644 1.355 . S
C1643 C1645 1.415 . S
C1644 C1643 1.355 . S
C1644 C1646 1.419 . S
C1645 C1640 1.425 . S
C1645 C1642 1.409 . S
C1645 C1643 1.415 . S
C1646 H1636 0.930 . S
C1646 C1644 1.419 . S
C1646 C1647 1.362 . S
C1647 H1637 0.930 . S
C1647 C1640 1.409 . S
C1647 C1646 1.362 . S
H1648 C1654 0.930 . S
H1649 C1657 0.930 . S
H1650 C1658 0.930 . S
H1651 C1659 0.930 . S
H1652 C1662 0.930 . S
H1653 C1663 0.930 . S
C1654 H1648 0.930 . S
C1654 C1655 1.355 . S
C1654 C1656 1.415 . S
C1655 C1654 1.355 . S
C1655 C1657 1.419 . S
C1656 C1654 1.415 . S
C1656 C1661 1.425 . S
C1656 C1663 1.409 . S
C1657 H1649 0.930 . S
C1657 C1655 1.419 . S
C1657 C1658 1.362 . S
C1658 H1650 0.930 . S
C1658 C1657 1.362 . S
C1658 C1661 1.409 . S
C1659 H1651 0.930 . S
C1659 C1660 1.355 . S
C1659 C1661 1.415 . S
C1660 C1659 1.355 . S
C1660 C1662 1.419 . S
C1661 C1656 1.425 . S
C1661 C1658 1.409 . S
C1661 C1659 1.415 . S
C1662 H1652 0.930 . S
C1662 C1660 1.419 . S
C1662 C1663 1.362 . S
C1663 H1653 0.930 . S
C1663 C1656 1.409 . S
C1663 C1662 1.362 . S
H1664 C1670 0.930 . S
H1665 C1673 0.930 . S
H1666 C1674 0.930 . S
H1667 C1675 0.930 . S
H1668 C1678 0.930 . S
H1669 C1679 0.930 . S
C1670 H1664 0.930 . S
C1670 C1671 1.355 . S
C1670 C1672 1.415 . S
C1671 C1670 1.355 . S
C1671 C1673 1.419 . S
C1672 C1670 1.415 . S
C1672 C1677 1.425 . S
C1672 C1679 1.409 . S
C1673 H1665 0.930 . S
C1673 C1671 1.419 . S
C1673 C1674 1.362 . S
C1674 H1666 0.930 . S
C1674 C1673 1.362 . S
C1674 C1677 1.409 . S
C1675 H1667 0.930 . S
C1675 C1676 1.355 . S
C1675 C1677 1.415 . S
C1676 C1675 1.355 . S
C1676 C1678 1.419 . S
C1677 C1672 1.425 . S
C1677 C1674 1.409 . S
C1677 C1675 1.415 . S
C1678 H1668 0.930 . S
C1678 C1676 1.419 . S
C1678 C1679 1.362 . S
C1679 H1669 0.930 . S
C1679 C1672 1.409 . S
C1679 C1678 1.362 . S
H1680 C1686 0.930 . S
H1681 C1689 0.930 . S
H1682 C1690 0.930 . S
H1683 C1691 0.930 . S
H1684 C1694 0.930 . S
H1685 C1695 0.930 . S
C1686 H1680 0.930 . S
C1686 C1687 1.355 . S
C1686 C1688 1.415 . S
C1687 C1686 1.355 . S
C1687 C1689 1.419 . S
C1688 C1686 1.415 . S
C1688 C1693 1.425 . S
C1688 C1695 1.409 . S
C1689 H1681 0.930 . S
C1689 C1687 1.419 . S
C1689 C1690 1.362 . S
C1690 H1682 0.930 . S
C1690 C1689 1.362 . S
C1690 C1693 1.409 . S
C1691 H1683 0.930 . S
C1691 C1692 1.355 . S
C1691 C1693 1.415 . S
C1692 C1691 1.355 . S
C1692 C1694 1.419 . S
C1693 C1688 1.425 . S
C1693 C1690 1.409 . S
C1693 C1691 1.415 . S
C1694 H1684 0.930 . S
C1694 C1692 1.419 . S
C1694 C1695 1.362 . S
C1695 H1685 0.930 . S
C1695 C1688 1.409 . S
C1695 C1694 1.362 . S
H1696 C1702 0.930 . S
H1697 C1705 0.930 . S
H1698 C1706 0.930 . S
H1699 C1707 0.930 . S
H1700 C1710 0.930 . S
H1701 C1711 0.930 . S
C1702 H1696 0.930 . S
C1702 C1703 1.355 . S
C1702 C1704 1.415 . S
C1703 C1702 1.355 . S
C1703 C1705 1.419 . S
C1704 C1702 1.415 . S
C1704 C1709 1.425 . S
C1704 C1711 1.409 . S
C1705 H1697 0.930 . S
C1705 C1703 1.419 . S
C1705 C1706 1.362 . S
C1706 H1698 0.930 . S
C1706 C1705 1.362 . S
C1706 C1709 1.409 . S
C1707 H1699 0.930 . S
C1707 C1708 1.355 . S
C1707 C1709 1.415 . S
C1708 C1707 1.355 . S
C1708 C1710 1.419 . S
C1709 C1704 1.425 . S
C1709 C1706 1.409 . S
C1709 C1707 1.415 . S
C1710 H1700 0.930 . S
C1710 C1708 1.419 . S
C1710 C1711 1.362 . S
C1711 H1701 0.930 . S
C1711 C1704 1.409 . S
C1711 C1710 1.362 . S
H1712 C1718 0.930 . S
H1713 C1721 0.930 . S
H1714 C1722 0.930 . S
H1715 C1723 0.930 . S
H1716 C1726 0.930 . S
H1717 C1727 0.930 . S
C1718 H1712 0.930 . S
C1718 C1719 1.355 . S
C1718 C1720 1.415 . S
C1719 C1718 1.355 . S
C1719 C1721 1.419 . S
C1720 C1718 1.415 . S
C1720 C1725 1.425 . S
C1720 C1727 1.409 . S
C1721 H1713 0.930 . S
C1721 C1719 1.419 . S
C1721 C1722 1.362 . S
C1722 H1714 0.930 . S
C1722 C1721 1.362 . S
C1722 C1725 1.409 . S
C1723 H1715 0.930 . S
C1723 C1724 1.355 . S
C1723 C1725 1.415 . S
C1724 C1723 1.355 . S
C1724 C1726 1.419 . S
C1725 C1720 1.425 . S
C1725 C1722 1.409 . S
C1725 C1723 1.415 . S
C1726 H1716 0.930 . S
C1726 C1724 1.419 . S
C1726 C1727 1.362 . S
C1727 H1717 0.930 . S
C1727 C1720 1.409 . S
C1727 C1726 1.362 . S
H1728 C1734 0.930 . S
H1729 C1737 0.930 . S
H1730 C1738 0.930 . S
H1731 C1739 0.930 . S
H1732 C1742 0.930 . S
H1733 C1743 0.930 . S
C1734 H1728 0.930 . S
C1734 C1735 1.355 . S
C1734 C1736 1.415 . S
C1735 C1734 1.355 . S
C1735 C1737 1.419 . S
C1736 C1734 1.415 . S
C1736 C1741 1.425 . S
C1736 C1743 1.409 . S
C1737 H1729 0.930 . S
C1737 C1735 1.419 . S
C1737 C1738 1.362 . S
C1738 H1730 0.930 . S
C1738 C1737 1.362 . S
C1738 C1741 1.409 . S
C1739 H1731 0.930 . S
C1739 C1740 1.355 . S
C1739 C1741 1.415 . S
C1740 C1739 1.355 . S
C1740 C1742 1.419 . S
C1741 C1736 1.425 . S
C1741 C1738 1.409 . S
C1741 C1739 1.415 . S
C1742 H1732 0.930 . S
C1742 C1740 1.419 . S
C1742 C1743 1.362 . S
C1743 H1733 0.930 . S
C1743 C1736 1.409 . S
C1743 C1742 1.362 . S
H1744 C1750 0.930 . S
H1745 C1753 0.930 . S
H1746 C1754 0.930 . S
H1747 C1755 0.930 . S
H1748 C1758 0.930 . S
H1749 C1759 0.930 . S
C1750 H1744 0.930 . S
C1750 C1751 1.355 . S
C1750 C1752 1.415 . S
C1751 C1750 1.355 . S
C1751 C1753 1.419 . S
C1752 C1750 1.415 . S
C1752 C1757 1.425 . S
C1752 C1759 1.409 . S
C1753 H1745 0.930 . S
C1753 C1751 1.419 . S
C1753 C1754 1.362 . S
C1754 H1746 0.930 . S
C1754 C1753 1.362 . S
C1754 C1757 1.409 . S
C1755 H1747 0.930 . S
C1755 C1756 1.355 . S
C1755 C1757 1.415 . S
C1756 C1755 1.355 . S
C1756 C1758 1.419 . S
C1757 C1752 1.425 . S
C1757 C1754 1.409 . S
C1757 C1755 1.415 . S
C1758 H1748 0.930 . S
C1758 C1756 1.419 . S
C1758 C1759 1.362 . S
C1759 H1749 0.930 . S
C1759 C1752 1.409 . S
C1759 C1758 1.362 . S
H1760 C1766 0.930 . S
H1761 C1769 0.930 . S
H1762 C1770 0.930 . S
H1763 C1771 0.930 . S
H1764 C1774 0.930 . S
H1765 C1775 0.930 . S
C1766 H1760 0.930 . S
C1766 C1767 1.355 . S
C1766 C1768 1.415 . S
C1767 C1766 1.355 . S
C1767 C1769 1.419 . S
C1768 C1766 1.415 . S
C1768 C1773 1.425 . S
C1768 C1775 1.409 . S
C1769 H1761 0.930 . S
C1769 C1767 1.419 . S
C1769 C1770 1.362 . S
C1770 H1762 0.930 . S
C1770 C1769 1.362 . S
C1770 C1773 1.409 . S
C1771 H1763 0.930 . S
C1771 C1772 1.355 . S
C1771 C1773 1.415 . S
C1772 C1771 1.355 . S
C1772 C1774 1.419 . S
C1773 C1768 1.425 . S
C1773 C1770 1.409 . S
C1773 C1771 1.415 . S
C1774 H1764 0.930 . S
C1774 C1772 1.419 . S
C1774 C1775 1.362 . S
C1775 H1765 0.930 . S
C1775 C1768 1.409 . S
C1775 C1774 1.362 . S
H1776 C1782 0.930 . S
H1777 C1785 0.930 . S
H1778 C1786 0.930 . S
H1779 C1787 0.930 . S
H1780 C1790 0.930 . S
H1781 C1791 0.930 . S
C1782 H1776 0.930 . S
C1782 C1783 1.355 . S
C1782 C1784 1.415 . S
C1783 C1782 1.355 . S
C1783 C1785 1.419 . S
C1784 C1782 1.415 . S
C1784 C1789 1.425 . S
C1784 C1791 1.409 . S
C1785 H1777 0.930 . S
C1785 C1783 1.419 . S
C1785 C1786 1.362 . S
C1786 H1778 0.930 . S
C1786 C1785 1.362 . S
C1786 C1789 1.409 . S
C1787 H1779 0.930 . S
C1787 C1788 1.355 . S
C1787 C1789 1.415 . S
C1788 C1787 1.355 . S
C1788 C1790 1.419 . S
C1789 C1784 1.425 . S
C1789 C1786 1.409 . S
C1789 C1787 1.415 . S
C1790 H1780 0.930 . S
C1790 C1788 1.419 . S
C1790 C1791 1.362 . S
C1791 H1781 0.930 . S
C1791 C1784 1.409 . S
C1791 C1790 1.362 . S
H1792 C1798 0.930 . S
H1793 C1801 0.930 . S
H1794 C1802 0.930 . S
H1795 C1803 0.930 . S
H1796 C1806 0.930 . S
H1797 C1807 0.930 . S
C1798 H1792 0.930 . S
C1798 C1799 1.355 . S
C1798 C1800 1.415 . S
C1799 C1798 1.355 . S
C1799 C1801 1.419 . S
C1800 C1798 1.415 . S
C1800 C1805 1.425 . S
C1800 C1807 1.409 . S
C1801 H1793 0.930 . S
C1801 C1799 1.419 . S
C1801 C1802 1.362 . S
C1802 H1794 0.930 . S
C1802 C1801 1.362 . S
C1802 C1805 1.409 . S
C1803 H1795 0.930 . S
C1803 C1804 1.355 . S
C1803 C1805 1.415 . S
C1804 C1803 1.355 . S
C1804 C1806 1.419 . S
C1805 C1800 1.425 . S
C1805 C1802 1.409 . S
C1805 C1803 1.415 . S
C1806 H1796 0.930 . S
C1806 C1804 1.419 . S
C1806 C1807 1.362 . S
C1807 H1797 0.930 . S
C1807 C1800 1.409 . S
C1807 C1806 1.362 . S
H1808 C1814 0.930 . S
H1809 C1817 0.930 . S
H1810 C1818 0.930 . S
H1811 C1819 0.930 . S
H1812 C1822 0.930 . S
H1813 C1823 0.930 . S
C1814 H1808 0.930 . S
C1814 C1815 1.355 . S
C1814 C1816 1.415 . S
C1815 C1814 1.355 . S
C1815 C1817 1.419 . S
C1816 C1814 1.415 . S
C1816 C1821 1.425 . S
C1816 C1823 1.409 . S
C1817 H1809 0.930 . S
C1817 C1815 1.419 . S
C1817 C1818 1.362 . S
C1818 H1810 0.930 . S
C1818 C1817 1.362 . S
C1818 C1821 1.409 . S
C1819 H1811 0.930 . S
C1819 C1820 1.355 . S
C1819 C1821 1.415 . S
C1820 C1819 1.355 . S
C1820 C1822 1.419 . S
C1821 C1816 1.425 . S
C1821 C1818 1.409 . S
C1821 C1819 1.415 . S
C1822 H1812 0.930 . S
C1822 C1820 1.419 . S
C1822 C1823 1.362 . S
C1823 H1813 0.930 . S
C1823 C1816 1.409 . S
C1823 C1822 1.362 . S
H1824 C1830 0.930 . S
H1825 C1833 0.930 . S
H1826 C1834 0.930 . S
H1827 C1835 0.930 . S
H1828 C1838 0.930 . S
H1829 C1839 0.930 . S
C1830 H1824 0.930 . S
C1830 C1831 1.355 . S
C1830 C1832 1.415 . S
C1831 C1830 1.355 . S
C1831 C1833 1.419 . S
C1832 C1830 1.415 . S
C1832 C1837 1.425 . S
C1832 C1839 1.409 . S
C1833 H1825 0.930 . S
C1833 C1831 1.419 . S
C1833 C1834 1.362 . S
C1834 H1826 0.930 . S
C1834 C1833 1.362 . S
C1834 C1837 1.409 . S
C1835 H1827 0.930 . S
C1835 C1836 1.355 . S
C1835 C1837 1.415 . S
C1836 C1835 1.355 . S
C1836 C1838 1.419 . S
C1837 C1832 1.425 . S
C1837 C1834 1.409 . S
C1837 C1835 1.415 . S
C1838 H1828 0.930 . S
C1838 C1836 1.419 . S
C1838 C1839 1.362 . S
C1839 H1829 0.930 . S
C1839 C1832 1.409 . S
C1839 C1838 1.362 . S
H1840 C1846 0.930 . S
H1841 C1849 0.930 . S
H1842 C1850 0.930 . S
H1843 C1851 0.930 . S
H1844 C1854 0.930 . S
H1845 C1855 0.930 . S
C1846 H1840 0.930 . S
C1846 C1847 1.355 . S
C1846 C1848 1.415 . S
C1847 C1846 1.355 . S
C1847 C1849 1.419 . S
C1848 C1846 1.415 . S
C1848 C1853 1.425 . S
C1848 C1855 1.409 . S
C1849 H1841 0.930 . S
C1849 C1847 1.419 . S
C1849 C1850 1.362 . S
C1850 H1842 0.930 . S
C1850 C1849 1.362 . S
C1850 C1853 1.409 . S
C1851 H1843 0.930 . S
C1851 C1852 1.355 . S
C1851 C1853 1.415 . S
C1852 C1851 1.355 . S
C1852 C1854 1.419 . S
C1853 C1848 1.425 . S
C1853 C1850 1.409 . S
C1853 C1851 1.415 . S
C1854 H1844 0.930 . S
C1854 C1852 1.419 . S
C1854 C1855 1.362 . S
C1855 H1845 0.930 . S
C1855 C1848 1.409 . S
C1855 C1854 1.362 . S
H1856 C1862 0.930 . S
H1857 C1865 0.930 . S
H1858 C1866 0.930 . S
H1859 C1867 0.930 . S
H1860 C1870 0.930 . S
H1861 C1871 0.930 . S
C1862 H1856 0.930 . S
C1862 C1863 1.355 . S
C1862 C1864 1.415 . S
C1863 C1862 1.355 . S
C1863 C1865 1.419 . S
C1864 C1862 1.415 . S
C1864 C1869 1.425 . S
C1864 C1871 1.409 . S
C1865 H1857 0.930 . S
C1865 C1863 1.419 . S
C1865 C1866 1.362 . S
C1866 H1858 0.930 . S
C1866 C1865 1.362 . S
C1866 C1869 1.409 . S
C1867 H1859 0.930 . S
C1867 C1868 1.355 . S
C1867 C1869 1.415 . S
C1868 C1867 1.355 . S
C1868 C1870 1.419 . S
C1869 C1864 1.425 . S
C1869 C1866 1.409 . S
C1869 C1867 1.415 . S
C1870 H1860 0.930 . S
C1870 C1868 1.419 . S
C1870 C1871 1.362 . S
C1871 H1861 0.930 . S
C1871 C1864 1.409 . S
C1871 C1870 1.362 . S
H1872 C1878 0.930 . S
H1873 C1881 0.930 . S
H1874 C1882 0.930 . S
H1875 C1883 0.930 . S
H1876 C1886 0.930 . S
H1877 C1887 0.930 . S
C1878 H1872 0.930 . S
C1878 C1879 1.355 . S
C1878 C1880 1.415 . S
C1879 C1878 1.355 . S
C1879 C1881 1.419 . S
C1880 C1878 1.415 . S
C1880 C1885 1.425 . S
C1880 C1887 1.409 . S
C1881 H1873 0.930 . S
C1881 C1879 1.419 . S
C1881 C1882 1.362 . S
C1882 H1874 0.930 . S
C1882 C1881 1.362 . S
C1882 C1885 1.409 . S
C1883 H1875 0.930 . S
C1883 C1884 1.355 . S
C1883 C1885 1.415 . S
C1884 C1883 1.355 . S
C1884 C1886 1.419 . S
C1885 C1880 1.425 . S
C1885 C1882 1.409 . S
C1885 C1883 1.415 . S
C1886 H1876 0.930 . S
C1886 C1884 1.419 . S
C1886 C1887 1.362 . S
C1887 H1877 0.930 . S
C1887 C1880 1.409 . S
C1887 C1886 1.362 . S
H1888 C1894 0.930 . S
H1889 C1897 0.930 . S
H1890 C1898 0.930 . S
H1891 C1899 0.930 . S
H1892 C1902 0.930 . S
H1893 C1903 0.930 . S
C1894 H1888 0.930 . S
C1894 C1895 1.355 . S
C1894 C1896 1.415 . S
C1895 C1894 1.355 . S
C1895 C1897 1.419 . S
C1896 C1894 1.415 . S
C1896 C1901 1.425 . S
C1896 C1903 1.409 . S
C1897 H1889 0.930 . S
C1897 C1895 1.419 . S
C1897 C1898 1.362 . S
C1898 H1890 0.930 . S
C1898 C1897 1.362 . S
C1898 C1901 1.409 . S
C1899 H1891 0.930 . S
C1899 C1900 1.355 . S
C1899 C1901 1.415 . S
C1900 C1899 1.355 . S
C1900 C1902 1.419 . S
C1901 C1896 1.425 . S
C1901 C1898 1.409 . S
C1901 C1899 1.415 . S
C1902 H1892 0.930 . S
C1902 C1900 1.419 . S
C1902 C1903 1.362 . S
C1903 H1893 0.930 . S
C1903 C1896 1.409 . S
C1903 C1902 1.362 . S
H1904 C1910 0.930 . S
H1905 C1913 0.930 . S
H1906 C1914 0.930 . S
H1907 C1915 0.930 . S
H1908 C1918 0.930 . S
H1909 C1919 0.930 . S
C1910 H1904 0.930 . S
C1910 C1911 1.355 . S
C1910 C1912 1.415 . S
C1911 C1910 1.355 . S
C1911 C1913 1.419 . S
C1912 C1910 1.415 . S
C1912 C1917 1.425 . S
C1912 C1919 1.409 . S
C1913 H1905 0.930 . S
C1913 C1911 1.419 . S
C1913 C1914 1.362 . S
C1914 H1906 0.930 . S
C1914 C1913 1.362 . S
C1914 C1917 1.409 . S
C1915 H1907 0.930 . S
C1915 C1916 1.355 . S
C1915 C1917 1.415 . S
C1916 C1915 1.355 . S
C1916 C1918 1.419 . S
C1917 C1912 1.425 . S
C1917 C1914 1.409 . S
C1917 C1915 1.415 . S
C1918 H1908 0.930 . S
C1918 C1916 1.419 . S
C1918 C1919 1.362 . S
C1919 H1909 0.930 . S
C1919 C1912 1.409 . S
C1919 C1918 1.362 . S
H1920 C1926 0.930 . S
H1921 C1929 0.930 . S
H1922 C1930 0.930 . S
H1923 C1931 0.930 . S
H1924 C1934 0.930 . S
H1925 C1935 0.930 . S
C1926 H1920 0.930 . S
C1926 C1927 1.355 . S
C1926 C1928 1.415 . S
C1927 C1926 1.355 . S
C1927 C1929 1.419 . S
C1928 C1926 1.415 . S
C1928 C1933 1.425 . S
C1928 C1935 1.409 . S
C1929 H1921 0.930 . S
C1929 C1927 1.419 . S
C1929 C1930 1.362 . S
C1930 H1922 0.930 . S
C1930 C1929 1.362 . S
C1930 C1933 1.409 . S
C1931 H1923 0.930 . S
C1931 C1932 1.355 . S
C1931 C1933 1.415 . S
C1932 C1931 1.355 . S
C1932 C1934 1.419 . S
C1933 C1928 1.425 . S
C1933 C1930 1.409 . S
C1933 C1931 1.415 . S
C1934 H1924 0.930 . S
C1934 C1932 1.419 . S
C1934 C1935 1.362 . S
C1935 H1925 0.930 . S
C1935 C1928 1.409 . S
C1935 C1934 1.362 . S
H1936 C1942 0.930 . S
H1937 C1945 0.930 . S
H1938 C1946 0.930 . S
H1939 C1947 0.930 . S
H1940 C1950 0.930 . S
H1941 C1951 0.930 . S
C1942 H1936 0.930 . S
C1942 C1943 1.355 . S
C1942 C1944 1.415 . S
C1943 C1942 1.355 . S
C1943 C1945 1.419 . S
C1944 C1942 1.415 . S
C1944 C1949 1.425 . S
C1944 C1951 1.409 . S
C1945 H1937 0.930 . S
C1945 C1943 1.419 . S
C1945 C1946 1.362 . S
C1946 H1938 0.930 . S
C1946 C1945 1.362 . S
C1946 C1949 1.409 . S
C1947 H1939 0.930 . S
C1947 C1948 1.355 . S
C1947 C1949 1.415 . S
C1948 C1947 1.355 . S
C1948 C1950 1.419 . S
C1949 C1944 1.425 . S
C1949 C1946 1.409 . S
C1949 C1947 1.415 . S
C1950 H1940 0.930 . S
C1950 C1948 1.419 . S
C1950 C1951 1.362 . S
C1951 H1941 0.930 . S
C1951 C1944 1.409 . S
C1951 C1950 1.362 . S
H1952 C1958 0.930 . S
H1953 C1961 0.930 . S
H1954 C1962 0.930 . S
H1955 C1963 0.930 . S
H1956 C1966 0.930 . S
H1957 C1967 0.930 . S
C1958 H1952 0.930 . S
C1958 C1959 1.355 . S
C1958 C1960 1.415 . S
C1959 C1958 1.355 . S
C1959 C1961 1.419 . S
C1960 C1958 1.415 . S
C1960 C1965 1.425 . S
C1960 C1967 1.409 . S
C1961 H1953 0.930 . S
C1961 C1959 1.419 . S
C1961 C1962 1.362 . S
C1962 H1954 0.930 . S
C1962 C1961 1.362 . S
C1962 C1965 1.409 . S
C1963 H1955 0.930 . S
C1963 C1964 1.355 . S
C1963 C1965 1.415 . S
C1964 C1963 1.355 . S
C1964 C1966 1.419 . S
C1965 C1960 1.425 . S
C1965 C1962 1.409 . S
C1965 C1963 1.415 . S
C1966 H1956 0.930 . S
C1966 C1964 1.419 . S
C1966 C1967 1.362 . S
C1967 H1957 0.930 . S
C1967 C1960 1.409 . S
C1967 C1966 1.362 . S
H1968 C1974 0.930 . S
H1969 C1977 0.930 . S
H1970 C1978 0.930 . S
H1971 C1979 0.930 . S
H1972 C1982 0.930 . S
H1973 C1983 0.930 . S
C1974 H1968 0.930 . S
C1974 C1975 1.355 . S
C1974 C1976 1.415 . S
C1975 C1974 1.355 . S
C1975 C1977 1.419 . S
C1976 C1974 1.415 . S
C1976 C1981 1.425 . S
C1976 C1983 1.409 . S
C1977 H1969 0.930 . S
C1977 C1975 1.419 . S
C1977 C1978 1.362 . S
C1978 H1970 0.930 . S
C1978 C1977 1.362 . S
C1978 C1981 1.409 . S
C1979 H1971 0.930 . S
C1979 C1980 1.355 . S
C1979 C1981 1.415 . S
C1980 C1979 1.355 . S
C1980 C1982 1.419 . S
C1981 C1976 1.425 . S
C1981 C1978 1.409 . S
C1981 C1979 1.415 . S
C1982 H1972 0.930 . S
C1982 C1980 1.419 . S
C1982 C1983 1.362 . S
C1983 H1973 0.930 . S
C1983 C1976 1.409 . S
C1983 C1982 1.362 . S
H1984 C1990 0.930 . S
H1985 C1993 0.930 . S
H1986 C1994 0.930 . S
H1987 C1995 0.930 . S
H1988 C1998 0.930 . S
H1989 C1999 0.930 . S
C1990 H1984 0.930 . S
C1990 C1991 1.355 . S
C1990 C1992 1.415 . S
C1991 C1990 1.355 . S
C1991 C1993 1.419 . S
C1992 C1990 1.415 . S
C1992 C1997 1.425 . S
C1992 C1999 1.409 . S
C1993 H1985 0.930 . S
C1993 C1991 1.419 . S
C1993 C1994 1.362 . S
C1994 H1986 0.930 . S
C1994 C1993 1.362 . S
C1994 C1997 1.409 . S
C1995 H1987 0.930 . S
C1995 C1996 1.355 . S
C1995 C1997 1.415 . S
C1996 C1995 1.355 . S
C1996 C1998 1.419 . S
C1997 C1992 1.425 . S
C1997 C1994 1.409 . S
C1997 C1995 1.415 . S
C1998 H1988 0.930 . S
C1998 C1996 1.419 . S
C1998 C1999 1.362 . S
C1999 H1989 0.930 . S
C1999 C1992 1.409 . S
C1999 C1998 1.362 . S
H2000 C2006 0.930 . S
H2001 C2009 0.930 . S
H2002 C2010 0.930 . S
H2003 C2011 0.930 . S
H2004 C2014 0.930 . S
H2005 C2015 0.930 . S
C2006 H2000 0.930 . S
C2006 C2007 1.355 . S
C2006 C2008 1.415 . S
C2007 C2006 1.355 . S
C2007 C2009 1.419 . S
C2008 C2006 1.415 . S
C2008 C2013 1.425 . S
C2008 C2015 1.409 . S
C2009 H2001 0.930 . S
C2009 C2007 1.419 . S
C2009 C2010 1.362 . S
C2010 H2002 0.930 . S
C2010 C2009 1.362 . S
C2010 C2013 1.409 . S
C2011 H2003 0.930 . S
C2011 C2012 1.355 . S
C2011 C2013 1.415 . S
C2012 C2011 1.355 . S
C2012 C2014 1.419 . S
C2013 C2008 1.425 . S
C2013 C2010 1.409 . S
C2013 C2011 1.415 . S
C2014 H2004 0.930 . S
C2014 C2012 1.419 . S
C2014 C2015 1.362 . S
C2015 H2005 0.930 . S
C2015 C2008 1.409 . S
C2015 C2014 1.362 . S
H2016 C2022 0.930 . S
H2017 C2025 0.930 . S
H2018 C2026 0.930 . S
H2019 C2027 0.930 . S
H2020 C2030 0.930 . S
H2021 C2031 0.930 . S
C2022 H2016 0.930 . S
C2022 C2023 1.355 . S
C2022 C2024 1.415 . S
C2023 C2022 1.355 . S
C2023 C2025 1.419 . S
C2024 C2022 1.415 . S
C2024 C2029 1.425 . S
C2024 C2031 1.409 . S
C2025 H2017 0.930 . S
C2025 C2023 1.419 . S
C2025 C2026 1.362 . S
C2026 H2018 0.930 . S
C2026 C2025 1.362 . S
C2026 C2029 1.409 . S
C2027 H2019 0.930 . S
C2027 C2028 1.355 . S
C2027 C2029 1.415 . S
C2028 C2027 1.355 . S
C2028 C2030 1.419 . S
C2029 C2024 1.425 . S
C2029 C2026 1.409 . S
C2029 C2027 1.415 . S
C2030 H2020 0.930 . S
C2030 C2028 1.419 . S
C2030 C2031 1.362 . S
C2031 H2021 0.930 . S
C2031 C2024 1.409 . S
C2031 C2030 1.362 . S
H2032 C2038 0.930 . S
H2033 C2041 0.930 . S
H2034 C2042 0.930 . S
H2035 C2043 0.930 . S
H2036 C2046 0.930 . S
H2037 C2047 0.930 . S
C2038 H2032 0.930 . S
C2038 C2039 1.355 . S
C2038 C2040 1.415 . S
C2039 C2038 1.355 . S
C2039 C2041 1.419 . S
C2040 C2038 1.415 . S
C2040 C2045 1.425 . S
C2040 C2047 1.409 . S
C2041 H2033 0.930 . S
C2041 C2039 1.419 . S
C2041 C2042 1.362 . S
C2042 H2034 0.930 . S
C2042 C2041 1.362 . S
C2042 C2045 1.409 . S
C2043 H2035 0.930 . S
C2043 C2044 1.355 . S
C2043 C2045 1.415 . S
C2044 C2043 1.355 . S
C2044 C2046 1.419 . S
C2045 C2040 1.425 . S
C2045 C2042 1.409 . S
C2045 C2043 1.415 . S
C2046 H2036 0.930 . S
C2046 C2044 1.419 . S
C2046 C2047 1.362 . S
C2047 H2037 0.930 . S
C2047 C2040 1.409 . S
C2047 C2046 1.362 . S
H2048 C2054 0.930 . S
H2049 C2057 0.930 . S
H2050 C2058 0.930 . S
H2051 C2059 0.930 . S
H2052 C2062 0.930 . S
H2053 C2063 0.930 . S
C2054 H2048 0.930 . S
C2054 C2055 1.355 . S
C2054 C2056 1.415 . S
C2055 C2054 1.355 . S
C2055 C2057 1.419 . S
C2056 C2054 1.415 . S
C2056 C2061 1.425 . S
C2056 C2063 1.409 . S
C2057 H2049 0.930 . S
C2057 C2055 1.419 . S
C2057 C2058 1.362 . S
C2058 H2050 0.930 . S
C2058 C2057 1.362 . S
C2058 C2061 1.409 . S
C2059 H2051 0.930 . S
C2059 C2060 1.355 . S
C2059 C2061 1.415 . S
C2060 C2059 1.355 . S
C2060 C2062 1.419 . S
C2061 C2056 1.425 . S
C2061 C2058 1.409 . S
C2061 C2059 1.415 . S
C2062 H2052 0.930 . S
C2062 C2060 1.419 . S
C2062 C2063 1.362 . S
C2063 H2053 0.930 . S
C2063 C2056 1.409 . S
C2063 C2062 1.362 . S
H2064 C2070 0.930 . S
H2065 C2073 0.930 . S
H2066 C2074 0.930 . S
H2067 C2075 0.930 . S
H2068 C2078 0.930 . S
H2069 C2079 0.930 . S
C2070 H2064 0.930 . S
C2070 C2071 1.355 . S
C2070 C2072 1.415 . S
C2071 C2070 1.355 . S
C2071 C2073 1.419 . S
C2072 C2070 1.415 . S
C2072 C2077 1.425 . S
C2072 C2079 1.409 . S
C2073 H2065 0.930 . S
C2073 C2071 1.419 . S
C2073 C2074 1.362 . S
C2074 H2066 0.930 . S
C2074 C2073 1.362 . S
C2074 C2077 1.409 . S
C2075 H2067 0.930 . S
C2075 C2076 1.355 . S
C2075 C2077 1.415 . S
C2076 C2075 1.355 . S
C2076 C2078 1.419 . S
C2077 C2072 1.425 . S
C2077 C2074 1.409 . S
C2077 C2075 1.415 . S
C2078 H2068 0.930 . S
C2078 C2076 1.419 . S
C2078 C2079 1.362 . S
C2079 H2069 0.930 . S
C2079 C2072 1.409 . S
C2079 C2078 1.362 . S
H2080 C2086 0.930 . S
H2081 C2089 0.930 . S
H2082 C2090 0.930 . S
H2083 C2091 0.930 . S
H2084 C2094 0.930 . S
H2085 C2095 0.930 . S
C2086 H2080 0.930 . S
C2086 C2087 1.355 . S
C2086 C2088 1.415 . S
C2087 C2086 1.355 . S
C2087 C2089 1.419 . S
C2088 C2086 1.415 . S
C2088 C2093 1.425 . S
C2088 C2095 1.409 . S
C2089 H2081 0.930 . S
C2089 C2087 1.419 . S
C2089 C2090 1.362 . S
C2090 H2082 0.930 . S
C2090 C2089 1.362 . S
C2090 C2093 1.409 . S
C2091 H2083 0.930 . S
C2091 C2092 1.355 . S
C2091 C2093 1.415 . S
C2092 C2091 1.355 . S
C2092 C2094 1.419 . S
C2093 C2088 1.425 . S
C2093 C2090 1.409 . S
C2093 C2091 1.415 . S
C2094 H2084 0.930 . S
C2094 C2092 1.419 . S
C2094 C2095 1.362 . S
C2095 H2085 0.930 . S
C2095 C2088 1.409 . S
C2095 C2094 1.362 . S
H2096 C2102 0.930 . S
H2097 C2105 0.930 . S
H2098 C2106 0.930 . S
H2099 C2107 0.930 . S
H2100 C2110 0.930 . S
H2101 C2111 0.930 . S
C2102 H2096 0.930 . S
C2102 C2103 1.355 . S
C2102 C2104 1.415 . S
C2103 C2102 1.355 . S
C2103 C2105 1.419 . S
C2104 C2102 1.415 . S
C2104 C2109 1.425 . S
C2104 C2111 1.409 . S
C2105 H2097 0.930 . S
C2105 C2103 1.419 . S
C2105 C2106 1.362 . S
C2106 H2098 0.930 . S
C2106 C2105 1.362 . S
C2106 C2109 1.409 . S
C2107 H2099 0.930 . S
C2107 C2108 1.355 . S
C2107 C2109 1.415 . S
C2108 C2107 1.355 . S
C2108 C2110 1.419 . S
C2109 C2104 1.425 . S
C2109 C2106 1.409 . S
C2109 C2107 1.415 . S
C2110 H2100 0.930 . S
C2110 C2108 1.419 . S
C2110 C2111 1.362 . S
C2111 H2101 0.930 . S
C2111 C2104 1.409 . S
C2111 C2110 1.362 . S
H2112 C2118 0.930 . S
H2113 C2121 0.930 . S
H2114 C2122 0.930 . S
H2115 C2123 0.930 . S
H2116 C2126 0.930 . S
H2117 C2127 0.930 . S
C2118 H2112 0.930 . S
C2118 C2119 1.355 . S
C2118 C2120 1.415 . S
C2119 C2118 1.355 . S
C2119 C2121 1.419 . S
C2120 C2118 1.415 . S
C2120 C2125 1.425 . S
C2120 C2127 1.409 . S
C2121 H2113 0.930 . S
C2121 C2119 1.419 . S
C2121 C2122 1.362 . S
C2122 H2114 0.930 . S
C2122 C2121 1.362 . S
C2122 C2125 1.409 . S
C2123 H2115 0.930 . S
C2123 C2124 1.355 . S
C2123 C2125 1.415 . S
C2124 C2123 1.355 . S
C2124 C2126 1.419 . S
C2125 C2120 1.425 . S
C2125 C2122 1.409 . S
C2125 C2123 1.415 . S
C2126 H2116 0.930 . S
C2126 C2124 1.419 . S
C2126 C2127 1.362 . S
C2127 H2117 0.930 . S
C2127 C2120 1.409 . S
C2127 C2126 1.362 . S
H2128 C2134 0.930 . S
H2129 C2137 0.930 . S
H2130 C2138 0.930 . S
H2131 C2139 0.930 . S
H2132 C2142 0.930 . S
H2133 C2143 0.930 . S
C2134 H2128 0.930 . S
C2134 C2135 1.355 . S
C2134 C2136 1.415 . S
C2135 C2134 1.355 . S
C2135 C2137 1.419 . S
C2136 C2134 1.415 . S
C2136 C2141 1.425 . S
C2136 C2143 1.409 . S
C2137 H2129 0.930 . S
C2137 C2135 1.419 . S
C2137 C2138 1.362 . S
C2138 H2130 0.930 . S
C2138 C2137 1.362 . S
C2138 C2141 1.409 . S
C2139 H2131 0.930 . S
C2139 C2140 1.355 . S
C2139 C2141 1.415 . S
C2140 C2139 1.355 . S
C2140 C2142 1.419 . S
C2141 C2136 1.425 . S
C2141 C2138 1.409 . S
C2141 C2139 1.415 . S
C2142 H2132 0.930 . S
C2142 C2140 1.419 . S
C2142 C2143 1.362 . S
C2143 H2133 0.930 . S
C2143 C2136 1.409 . S
C2143 C2142 1.362 . S
H2144 C2150 0.930 . S
H2145 C2153 0.930 . S
H2146 C2154 0.930 . S
H2147 C2155 0.930 . S
H2148 C2158 0.930 . S
H2149 C2159 0.930 . S
C2150 H2144 0.930 . S
C2150 C2151 1.355 . S
C2150 C2152 1.415 . S
C2151 C2150 1.355 . S
C2151 C2153 1.419 . S
C2152 C2150 1.415 . S
C2152 C2157 1.425 . S
C2152 C2159 1.409 . S
C2153 H2145 0.930 . S
C2153 C2151 1.419 . S
C2153 C2154 1.362 . S
C2154 H2146 0.930 . S
C2154 C2153 1.362 . S
C2154 C2157 1.409 . S
C2155 H2147 0.930 . S
C2155 C2156 1.355 . S
C2155 C2157 1.415 . S
C2156 C2155 1.355 . S
C2156 C2158 1.419 . S
C2157 C2152 1.425 . S
C2157 C2154 1.409 . S
C2157 C2155 1.415 . S
C2158 H2148 0.930 . S
C2158 C2156 1.419 . S
C2158 C2159 1.362 . S
C2159 H2149 0.930 . S
C2159 C2152 1.409 . S
C2159 C2158 1.362 . S
H2160 C2166 0.930 . S
H2161 C2169 0.930 . S
H2162 C2170 0.930 . S
H2163 C2171 0.930 . S
H2164 C2174 0.930 . S
H2165 C2175 0.930 . S
C2166 H2160 0.930 . S
C2166 C2167 1.355 . S
C2166 C2168 1.415 . S
C2167 C2166 1.355 . S
C2167 C2169 1.419 . S
C2168 C2166 1.415 . S
C2168 C2173 1.425 . S
C2168 C2175 1.409 . S
C2169 H2161 0.930 . S
C2169 C2167 1.419 . S
C2169 C2170 1.362 . S
C2170 H2162 0.930 . S
C2170 C2169 1.362 . S
C2170 C2173 1.409 . S
C2171 H2163 0.930 . S
C2171 C2172 1.355 . S
C2171 C2173 1.415 . S
C2172 C2171 1.355 . S
C2172 C2174 1.419 . S
C2173 C2168 1.425 . S
C2173 C2170 1.409 . S
C2173 C2171 1.415 . S
C2174 H2164 0.930 . S
C2174 C2172 1.419 . S
C2174 C2175 1.362 . S
C2175 H2165 0.930 . S
C2175 C2168 1.409 . S
C2175 C2174 1.362 . S
H2176 C2182 0.930 . S
H2177 C2185 0.930 . S
H2178 C2186 0.930 . S
H2179 C2187 0.930 . S
H2180 C2190 0.930 . S
H2181 C2191 0.930 . S
C2182 H2176 0.930 . S
C2182 C2183 1.355 . S
C2182 C2184 1.415 . S
C2183 C2182 1.355 . S
C2183 C2185 1.419 . S
C2184 C2182 1.415 . S
C2184 C2189 1.425 . S
C2184 C2191 1.409 . S
C2185 H2177 0.930 . S
C2185 C2183 1.419 . S
C2185 C2186 1.362 . S
C2186 H2178 0.930 . S
C2186 C2185 1.362 . S
C2186 C2189 1.409 . S
C2187 H2179 0.930 . S
C2187 C2188 1.355 . S
C2187 C2189 1.415 . S
C2188 C2187 1.355 . S
C2188 C2190 1.419 . S
C2189 C2184 1.425 . S
C2189 C2186 1.409 . S
C2189 C2187 1.415 . S
C2190 H2180 0.930 . S
C2190 C2188 1.419 . S
C2190 C2191 1.362 . S
C2191 H2181 0.930 . S
C2191 C2184 1.409 . S
C2191 C2190 1.362 . S
H2192 C2198 0.930 . S
H2193 C2201 0.930 . S
H2194 C2202 0.930 . S
H2195 C2203 0.930 . S
H2196 C2206 0.930 . S
H2197 C2207 0.930 . S
C2198 H2192 0.930 . S
C2198 C2199 1.355 . S
C2198 C2200 1.415 . S
C2199 C2198 1.355 . S
C2199 C2201 1.419 . S
C2200 C2198 1.415 . S
C2200 C2205 1.425 . S
C2200 C2207 1.409 . S
C2201 H2193 0.930 . S
C2201 C2199 1.419 . S
C2201 C2202 1.362 . S
C2202 H2194 0.930 . S
C2202 C2201 1.362 . S
C2202 C2205 1.409 . S
C2203 H2195 0.930 . S
C2203 C2204 1.355 . S
C2203 C2205 1.415 . S
C2204 C2203 1.355 . S
C2204 C2206 1.419 . S
C2205 C2200 1.425 . S
C2205 C2202 1.409 . S
C2205 C2203 1.415 . S
C2206 H2196 0.930 . S
C2206 C2204 1.419 . S
C2206 C2207 1.362 . S
C2207 H2197 0.930 . S
C2207 C2200 1.409 . S
C2207 C2206 1.362 . S
H2208 C2214 0.930 . S
H2209 C2217 0.930 . S
H2210 C2218 0.930 . S
H2211 C2219 0.930 . S
H2212 C2222 0.930 . S
H2213 C2223 0.930 . S
C2214 H2208 0.930 . S
C2214 C2215 1.355 . S
C2214 C2216 1.415 . S
C2215 C2214 1.355 . S
C2215 C2217 1.419 . S
C2216 C2214 1.415 . S
C2216 C2221 1.425 . S
C2216 C2223 1.409 . S
C2217 H2209 0.930 . S
C2217 C2215 1.419 . S
C2217 C2218 1.362 . S
C2218 H2210 0.930 . S
C2218 C2217 1.362 . S
C2218 C2221 1.409 . S
C2219 H2211 0.930 . S
C2219 C2220 1.355 . S
C2219 C2221 1.415 . S
C2220 C2219 1.355 . S
C2220 C2222 1.419 . S
C2221 C2216 1.425 . S
C2221 C2218 1.409 . S
C2221 C2219 1.415 . S
C2222 H2212 0.930 . S
C2222 C2220 1.419 . S
C2222 C2223 1.362 . S
C2223 H2213 0.930 . S
C2223 C2216 1.409 . S
C2223 C2222 1.362 . S
H2224 C2230 0.930 . S
H2225 C2233 0.930 . S
H2226 C2234 0.930 . S
H2227 C2235 0.930 . S
H2228 C2238 0.930 . S
H2229 C2239 0.930 . S
C2230 H2224 0.930 . S
C2230 C2231 1.355 . S
C2230 C2232 1.415 . S
C2231 C2230 1.355 . S
C2231 C2233 1.419 . S
C2232 C2230 1.415 . S
C2232 C2237 1.425 . S
C2232 C2239 1.409 . S
C2233 H2225 0.930 . S
C2233 C2231 1.419 . S
C2233 C2234 1.362 . S
C2234 H2226 0.930 . S
C2234 C2233 1.362 . S
C2234 C2237 1.409 . S
C2235 H2227 0.930 . S
C2235 C2236 1.355 . S
C2235 C2237 1.415 . S
C2236 C2235 1.355 . S
C2236 C2238 1.419 . S
C2237 C2232 1.425 . S
C2237 C2234 1.409 . S
C2237 C2235 1.415 . S
C2238 H2228 0.930 . S
C2238 C2236 1.419 . S
C2238 C2239 1.362 . S
C2239 H2229 0.930 . S
C2239 C2232 1.409 . S
C2239 C2238 1.362 . S
H2240 C2246 0.930 . S
H2241 C2249 0.930 . S
H2242 C2250 0.930 . S
H2243 C2251 0.930 . S
H2244 C2254 0.930 . S
H2245 C2255 0.930 . S
C2246 H2240 0.930 . S
C2246 C2247 1.355 . S
C2246 C2248 1.415 . S
C2247 C2246 1.355 . S
C2247 C2249 1.419 . S
C2248 C2246 1.415 . S
C2248 C2253 1.425 . S
C2248 C2255 1.409 . S
C2249 H2241 0.930 . S
C2249 C2247 1.419 . S
C2249 C2250 1.362 . S
C2250 H2242 0.930 . S
C2250 C2249 1.362 . S
C2250 C2253 1.409 . S
C2251 H2243 0.930 . S
C2251 C2252 1.355 . S
C2251 C2253 1.415 . S
C2252 C2251 1.355 . S
C2252 C2254 1.419 . S
C2253 C2248 1.425 . S
C2253 C2250 1.409 . S
C2253 C2251 1.415 . S
C2254 H2244 0.930 . S
C2254 C2252 1.419 . S
C2254 C2255 1.362 . S
C2255 H2245 0.930 . S
C2255 C2248 1.409 . S
C2255 C2254 1.362 . S
H2256 C2262 0.930 . S
H2257 C2265 0.930 . S
H2258 C2266 0.930 . S
H2259 C2267 0.930 . S
H2260 C2270 0.930 . S
H2261 C2271 0.930 . S
C2262 H2256 0.930 . S
C2262 C2263 1.355 . S
C2262 C2264 1.415 . S
C2263 C2262 1.355 . S
C2263 C2265 1.419 . S
C2264 C2262 1.415 . S
C2264 C2269 1.425 . S
C2264 C2271 1.409 . S
C2265 H2257 0.930 . S
C2265 C2263 1.419 . S
C2265 C2266 1.362 . S
C2266 H2258 0.930 . S
C2266 C2265 1.362 . S
C2266 C2269 1.409 . S
C2267 H2259 0.930 . S
C2267 C2268 1.355 . S
C2267 C2269 1.415 . S
C2268 C2267 1.355 . S
C2268 C2270 1.419 . S
C2269 C2264 1.425 . S
C2269 C2266 1.409 . S
C2269 C2267 1.415 . S
C2270 H2260 0.930 . S
C2270 C2268 1.419 . S
C2270 C2271 1.362 . S
C2271 H2261 0.930 . S
C2271 C2264 1.409 . S
C2271 C2270 1.362 . S
H2272 C2278 0.930 . S
H2273 C2281 0.930 . S
H2274 C2282 0.930 . S
H2275 C2283 0.930 . S
H2276 C2286 0.930 . S
H2277 C2287 0.930 . S
C2278 H2272 0.930 . S
C2278 C2279 1.355 . S
C2278 C2280 1.415 . S
C2279 C2278 1.355 . S
C2279 C2281 1.419 . S
C2280 C2278 1.415 . S
C2280 C2285 1.425 . S
C2280 C2287 1.409 . S
C2281 H2273 0.930 . S
C2281 C2279 1.419 . S
C2281 C2282 1.362 . S
C2282 H2274 0.930 . S
C2282 C2281 1.362 . S
C2282 C2285 1.409 . S
C2283 H2275 0.930 . S
C2283 C2284 1.355 . S
C2283 C2285 1.415 . S
C2284 C2283 1.355 . S
C2284 C2286 1.419 . S
C2285 C2280 1.425 . S
C2285 C2282 1.409 . S
C2285 C2283 1.415 . S
C2286 H2276 0.930 . S
C2286 C2284 1.419 . S
C2286 C2287 1.362 . S
C2287 H2277 0.930 . S
C2287 C2280 1.409 . S
C2287 C2286 1.362 . S
H2288 C2294 0.930 . S
H2289 C2297 0.930 . S
H2290 C2298 0.930 . S
H2291 C2299 0.930 . S
H2292 C2302 0.930 . S
H2293 C2303 0.930 . S
C2294 H2288 0.930 . S
C2294 C2295 1.355 . S
C2294 C2296 1.415 . S
C2295 C2294 1.355 . S
C2295 C2297 1.419 . S
C2296 C2294 1.415 . S
C2296 C2301 1.425 . S
C2296 C2303 1.409 . S
C2297 H2289 0.930 . S
C2297 C2295 1.419 . S
C2297 C2298 1.362 . S
C2298 H2290 0.930 . S
C2298 C2297 1.362 . S
C2298 C2301 1.409 . S
C2299 H2291 0.930 . S
C2299 C2300 1.355 . S
C2299 C2301 1.415 . S
C2300 C2299 1.355 . S
C2300 C2302 1.419 . S
C2301 C2296 1.425 . S
C2301 C2298 1.409 . S
C2301 C2299 1.415 . S
C2302 H2292 0.930 . S
C2302 C2300 1.419 . S
C2302 C2303 1.362 . S
C2303 H2293 0.930 . S
C2303 C2296 1.409 . S
C2303 C2302 1.362 . S
H2304 C2310 0.930 . S
H2305 C2313 0.930 . S
H2306 C2314 0.930 . S
H2307 C2315 0.930 . S
H2308 C2318 0.930 . S
H2309 C2319 0.930 . S
C2310 H2304 0.930 . S
C2310 C2311 1.355 . S
C2310 C2312 1.415 . S
C2311 C2310 1.355 . S
C2311 C2313 1.419 . S
C2312 C2310 1.415 . S
C2312 C2317 1.425 . S
C2312 C2319 1.409 . S
C2313 H2305 0.930 . S
C2313 C2311 1.419 . S
C2313 C2314 1.362 . S
C2314 H2306 0.930 . S
C2314 C2313 1.362 . S
C2314 C2317 1.409 . S
C2315 H2307 0.930 . S
C2315 C2316 1.355 . S
C2315 C2317 1.415 . S
C2316 C2315 1.355 . S
C2316 C2318 1.419 . S
C2317 C2312 1.425 . S
C2317 C2314 1.409 . S
C2317 C2315 1.415 . S
C2318 H2308 0.930 . S
C2318 C2316 1.419 . S
C2318 C2319 1.362 . S
C2319 H2309 0.930 . S
C2319 C2312 1.409 . S
C2319 C2318 1.362 . S
H2320 C2326 0.930 . S
H2321 C2329 0.930 . S
H2322 C2330 0.930 . S
H2323 C2331 0.930 . S
H2324 C2334 0.930 . S
H2325 C2335 0.930 . S
C2326 H2320 0.930 . S
C2326 C2327 1.355 . S
C2326 C2328 1.415 . S
C2327 C2326 1.355 . S
C2327 C2329 1.419 . S
C2328 C2326 1.415 . S
C2328 C2333 1.425 . S
C2328 C2335 1.409 . S
C2329 H2321 0.930 . S
C2329 C2327 1.419 . S
C2329 C2330 1.362 . S
C2330 H2322 0.930 . S
C2330 C2329 1.362 . S
C2330 C2333 1.409 . S
C2331 H2323 0.930 . S
C2331 C2332 1.355 . S
C2331 C2333 1.415 . S
C2332 C2331 1.355 . S
C2332 C2334 1.419 . S
C2333 C2328 1.425 . S
C2333 C2330 1.409 . S
C2333 C2331 1.415 . S
C2334 H2324 0.930 . S
C2334 C2332 1.419 . S
C2334 C2335 1.362 . S
C2335 H2325 0.930 . S
C2335 C2328 1.409 . S
C2335 C2334 1.362 . S
H2336 C2342 0.930 . S
H2337 C2345 0.930 . S
H2338 C2346 0.930 . S
H2339 C2347 0.930 . S
H2340 C2350 0.930 . S
H2341 C2351 0.930 . S
C2342 H2336 0.930 . S
C2342 C2343 1.355 . S
C2342 C2344 1.415 . S
C2343 C2342 1.355 . S
C2343 C2345 1.419 . S
C2344 C2342 1.415 . S
C2344 C2349 1.425 . S
C2344 C2351 1.409 . S
C2345 H2337 0.930 . S
C2345 C2343 1.419 . S
C2345 C2346 1.362 . S
C2346 H2338 0.930 . S
C2346 C2345 1.362 . S
C2346 C2349 1.409 . S
C2347 H2339 0.930 . S
C2347 C2348 1.355 . S
C2347 C2349 1.415 . S
C2348 C2347 1.355 . S
C2348 C2350 1.419 . S
C2349 C2344 1.425 . S
C2349 C2346 1.409 . S
C2349 C2347 1.415 . S
C2350 H2340 0.930 . S
C2350 C2348 1.419 . S
C2350 C2351 1.362 . S
C2351 H2341 0.930 . S
C2351 C2344 1.409 . S
C2351 C2350 1.362 . S
H2352 C2358 0.930 . S
H2353 C2361 0.930 . S
H2354 C2362 0.930 . S
H2355 C2363 0.930 . S
H2356 C2366 0.930 . S
H2357 C2367 0.930 . S
C2358 H2352 0.930 . S
C2358 C2359 1.355 . S
C2358 C2360 1.415 . S
C2359 C2358 1.355 . S
C2359 C2361 1.419 . S
C2360 C2358 1.415 . S
C2360 C2365 1.425 . S
C2360 C2367 1.409 . S
C2361 H2353 0.930 . S
C2361 C2359 1.419 . S
C2361 C2362 1.362 . S
C2362 H2354 0.930 . S
C2362 C2361 1.362 . S
C2362 C2365 1.409 . S
C2363 H2355 0.930 . S
C2363 C2364 1.355 . S
C2363 C2365 1.415 . S
C2364 C2363 1.355 . S
C2364 C2366 1.419 . S
C2365 C2360 1.425 . S
C2365 C2362 1.409 . S
C2365 C2363 1.415 . S
C2366 H2356 0.930 . S
C2366 C2364 1.419 . S
C2366 C2367 1.362 . S
C2367 H2357 0.930 . S
C2367 C2360 1.409 . S
C2367 C2366 1.362 . S
H2368 C2374 0.930 . S
H2369 C2377 0.930 . S
H2370 C2378 0.930 . S
H2371 C2379 0.930 . S
H2372 C2382 0.930 . S
H2373 C2383 0.930 . S
C2374 H2368 0.930 . S
C2374 C2375 1.355 . S
C2374 C2376 1.415 . S
C2375 C2374 1.355 . S
C2375 C2377 1.419 . S
C2376 C2374 1.415 . S
C2376 C2381 1.425 . S
C2376 C2383 1.409 . S
C2377 H2369 0.930 . S
C2377 C2375 1.419 . S
C2377 C2378 1.362 . S
C2378 H2370 0.930 . S
C2378 C2377 1.362 . S
C2378 C2381 1.409 . S
C2379 H2371 0.930 . S
C2379 C2380 1.355 . S
C2379 C2381 1.415 . S
C2380 C2379 1.355 . S
C2380 C2382 1.419 . S
C2381 C2376 1.425 . S
C2381 C2378 1.409 . S
C2381 C2379 1.415 . S
C2382 H2372 0.930 . S
C2382 C2380 1.419 . S
C2382 C2383 1.362 . S
C2383 H2373 0.930 . S
C2383 C2376 1.409 . S
C2383 C2382 1.362 . S
H2384 C2390 0.930 . S
H2385 C2393 0.930 . S
H2386 C2394 0.930 . S
H2387 C2395 0.930 . S
H2388 C2398 0.930 . S
H2389 C2399 0.930 . S
C2390 H2384 0.930 . S
C2390 C2391 1.355 . S
C2390 C2392 1.415 . S
C2391 C2390 1.355 . S
C2391 C2393 1.419 . S
C2392 C2390 1.415 . S
C2392 C2397 1.425 . S
C2392 C2399 1.409 . S
C2393 H2385 0.930 . S
C2393 C2391 1.419 . S
C2393 C2394 1.362 . S
C2394 H2386 0.930 . S
C2394 C2393 1.362 . S
C2394 C2397 1.409 . S
C2395 H2387 0.930 . S
C2395 C2396 1.355 . S
C2395 C2397 1.415 . S
C2396 C2395 1.355 . S
C2396 C2398 1.419 . S
C2397 C2392 1.425 . S
C2397 C2394 1.409 . S
C2397 C2395 1.415 . S
C2398 H2388 0.930 . S
C2398 C2396 1.419 . S
C2398 C2399 1.362 . S
C2399 H2389 0.930 . S
C2399 C2392 1.409 . S
C2399 C2398 1.362 . S
H2400 C2406 0.930 . S
H2401 C2409 0.930 . S
H2402 C2410 0.930 . S
H2403 C2411 0.930 . S
H2404 C2414 0.930 . S
H2405 C2415 0.930 . S
C2406 H2400 0.930 . S
C2406 C2407 1.355 . S
C2406 C2408 1.415 . S
C2407 C2406 1.355 . S
C2407 C2409 1.419 . S
C2408 C2406 1.415 . S
C2408 C2413 1.425 . S
C2408 C2415 1.409 . S
C2409 H2401 0.930 . S
C2409 C2407 1.419 . S
C2409 C2410 1.362 . S
C2410 H2402 0.930 . S
C2410 C2409 1.362 . S
C2410 C2413 1.409 . S
C2411 H2403 0.930 . S
C2411 C2412 1.355 . S
C2411 C2413 1.415 . S
C2412 C2411 1.355 . S
C2412 C2414 1.419 . S
C2413 C2408 1.425 . S
C2413 C2410 1.409 . S
C2413 C2411 1.415 . S
C2414 H2404 0.930 . S
C2414 C2412 1.419 . S
C2414 C2415 1.362 . S
C2415 H2405 0.930 . S
C2415 C2408 1.409 . S
C2415 C2414 1.362 . S
H2416 C2422 0.930 . S
H2417 C2425 0.930 . S
H2418 C2426 0.930 . S
H2419 C2427 0.930 . S
H2420 C2430 0.930 . S
H2421 C2431 0.930 . S
C2422 H2416 0.930 . S
C2422 C2423 1.355 . S
C2422 C2424 1.415 . S
C2423 C2422 1.355 . S
C2423 C2425 1.419 . S
C2424 C2422 1.415 . S
C2424 C2429 1.425 . S
C2424 C2431 1.409 . S
C2425 H2417 0.930 . S
C2425 C2423 1.419 . S
C2425 C2426 1.362 . S
C2426 H2418 0.930 . S
C2426 C2425 1.362 . S
C2426 C2429 1.409 . S
C2427 H2419 0.930 . S
C2427 C2428 1.355 . S
C2427 C2429 1.415 . S
C2428 C2427 1.355 . S
C2428 C2430 1.419 . S
C2429 C2424 1.425 . S
C2429 C2426 1.409 . S
C2429 C2427 1.415 . S
C2430 H2420 0.930 . S
C2430 C2428 1.419 . S
C2430 C2431 1.362 . S
C2431 H2421 0.930 . S
C2431 C2424 1.409 . S
C2431 C2430 1.362 . S
H2432 C2438 0.930 . S
H2433 C2441 0.930 . S
H2434 C2442 0.930 . S
H2435 C2443 0.930 . S
H2436 C2446 0.930 . S
H2437 C2447 0.930 . S
C2438 H2432 0.930 . S
C2438 C2439 1.355 . S
C2438 C2440 1.415 . S
C2439 C2438 1.355 . S
C2439 C2441 1.419 . S
C2440 C2438 1.415 . S
C2440 C2445 1.425 . S
C2440 C2447 1.409 . S
C2441 H2433 0.930 . S
C2441 C2439 1.419 . S
C2441 C2442 1.362 . S
C2442 H2434 0.930 . S
C2442 C2441 1.362 . S
C2442 C2445 1.409 . S
C2443 H2435 0.930 . S
C2443 C2444 1.355 . S
C2443 C2445 1.415 . S
C2444 C2443 1.355 . S
C2444 C2446 1.419 . S
C2445 C2440 1.425 . S
C2445 C2442 1.409 . S
C2445 C2443 1.415 . S
C2446 H2436 0.930 . S
C2446 C2444 1.419 . S
C2446 C2447 1.362 . S
C2447 H2437 0.930 . S
C2447 C2440 1.409 . S
C2447 C2446 1.362 . S
H2448 C2454 0.930 . S
H2449 C2457 0.930 . S
H2450 C2458 0.930 . S
H2451 C2459 0.930 . S
H2452 C2462 0.930 . S
H2453 C2463 0.930 . S
C2454 H2448 0.930 . S
C2454 C2455 1.355 . S
C2454 C2456 1.415 . S
C2455 C2454 1.355 . S
C2455 C2457 1.419 . S
C2456 C2454 1.415 . S
C2456 C2461 1.425 . S
C2456 C2463 1.409 . S
C2457 H2449 0.930 . S
C2457 C2455 1.419 . S
C2457 C2458 1.362 . S
C2458 H2450 0.930 . S
C2458 C2457 1.362 . S
C2458 C2461 1.409 . S
C2459 H2451 0.930 . S
C2459 C2460 1.355 . S
C2459 C2461 1.415 . S
C2460 C2459 1.355 . S
C2460 C2462 1.419 . S
C2461 C2456 1.425 . S
C2461 C2458 1.409 . S
C2461 C2459 1.415 . S
C2462 H2452 0.930 . S
C2462 C2460 1.419 . S
C2462 C2463 1.362 . S
C2463 H2453 0.930 . S
C2463 C2456 1.409 . S
C2463 C2462 1.362 . S
H2464 C2470 0.930 . S
H2465 C2473 0.930 . S
H2466 C2474 0.930 . S
H2467 C2475 0.930 . S
H2468 C2478 0.930 . S
H2469 C2479 0.930 . S
C2470 H2464 0.930 . S
C2470 C2471 1.355 . S
C2470 C2472 1.415 . S
C2471 C2470 1.355 . S
C2471 C2473 1.419 . S
C2472 C2470 1.415 . S
C2472 C2477 1.425 . S
C2472 C2479 1.409 . S
C2473 H2465 0.930 . S
C2473 C2471 1.419 . S
C2473 C2474 1.362 . S
C2474 H2466 0.930 . S
C2474 C2473 1.362 . S
C2474 C2477 1.409 . S
C2475 H2467 0.930 . S
C2475 C2476 1.355 . S
C2475 C2477 1.415 . S
C2476 C2475 1.355 . S
C2476 C2478 1.419 . S
C2477 C2472 1.425 . S
C2477 C2474 1.409 . S
C2477 C2475 1.415 . S
C2478 H2468 0.930 . S
C2478 C2476 1.419 . S
C2478 C2479 1.362 . S
C2479 H2469 0.930 . S
C2479 C2472 1.409 . S
C2479 C2478 1.362 . S
H2480 C2486 0.930 . S
H2481 C2489 0.930 . S
H2482 C2490 0.930 . S
H2483 C2491 0.930 . S
H2484 C2494 0.930 . S
H2485 C2495 0.930 . S
C2486 H2480 0.930 . S
C2486 C2487 1.355 . S
C2486 C2488 1.415 . S
C2487 C2486 1.355 . S
C2487 C2489 1.419 . S
C2488 C2486 1.415 . S
C2488 C2493 1.425 . S
C2488 C2495 1.409 . S
C2489 H2481 0.930 . S
C2489 C2487 1.419 . S
C2489 C2490 1.362 . S
C2490 H2482 0.930 . S
C2490 C2489 1.362 . S
C2490 C2493 1.409 . S
C2491 H2483 0.930 . S
C2491 C2492 1.355 . S
C2491 C2493 1.415 . S
C2492 C2491 1.355 . S
C2492 C2494 1.419 . S
C2493 C2488 1.425 . S
C2493 C2490 1.409 . S
C2493 C2491 1.415 . S
C2494 H2484 0.930 . S
C2494 C2492 1.419 . S
C2494 C2495 1.362 . S
C2495 H2485 0.930 . S
C2495 C2488 1.409 . S
C2495 C2494 1.362 . S
H2496 C2502 0.930 . S
H2497 C2505 0.930 . S
H2498 C2506 0.930 . S
H2499 C2507 0.930 . S
H2500 C2510 0.930 . S
H2501 C2511 0.930 . S
C2502 H2496 0.930 . S
C2502 C2503 1.355 . S
C2502 C2504 1.415 . S
C2503 C2502 1.355 . S
C2503 C2505 1.419 . S
C2504 C2502 1.415 . S
C2504 C2509 1.425 . S
C2504 C2511 1.409 . S
C2505 H2497 0.930 . S
C2505 C2503 1.419 . S
C2505 C2506 1.362 . S
C2506 H2498 0.930 . S
C2506 C2505 1.362 . S
C2506 C2509 1.409 . S
C2507 H2499 0.930 . S
C2507 C2508 1.355 . S
C2507 C2509 1.415 . S
C2508 C2507 1.355 . S
C2508 C2510 1.419 . S
C2509 C2504 1.425 . S
C2509 C2506 1.409 . S
C2509 C2507 1.415 . S
C2510 H2500 0.930 . S
C2510 C2508 1.419 . S
C2510 C2511 1.362 . S
C2511 H2501 0.930 . S
C2511 C2504 1.409 . S
C2511 C2510 1.362 . S
H2512 C2518 0.930 . S
H2513 C2521 0.930 . S
H2514 C2522 0.930 . S
H2515 C2523 0.930 . S
H2516 C2526 0.930 . S
H2517 C2527 0.930 . S
C2518 H2512 0.930 . S
C2518 C2519 1.355 . S
C2518 C2520 1.415 . S
C2519 C2518 1.355 . S
C2519 C2521 1.419 . S
C2520 C2518 1.415 . S
C2520 C2525 1.425 . S
C2520 C2527 1.409 . S
C2521 H2513 0.930 . S
C2521 C2519 1.419 . S
C2521 C2522 1.362 . S
C2522 H2514 0.930 . S
C2522 C2521 1.362 . S
C2522 C2525 1.409 . S
C2523 H2515 0.930 . S
C2523 C2524 1.355 . S
C2523 C2525 1.415 . S
C2524 C2523 1.355 . S
C2524 C2526 1.419 . S
C2525 C2520 1.425 . S
C2525 C2522 1.409 . S
C2525 C2523 1.415 . S
C2526 H2516 0.930 . S
C2526 C2524 1.419 . S
C2526 C2527 1.362 . S
C2527 H2517 0.930 . S
C2527 C2520 1.409 . S
C2527 C2526 1.362 . S
H2528 C2534 0.930 . S
H2529 C2537 0.930 . S
H2530 C2538 0.930 . S
H2531 C2539 0.930 . S
H2532 C2542 0.930 . S
H2533 C2543 0.930 . S
C2534 H2528 0.930 . S
C2534 C2535 1.355 . S
C2534 C2536 1.415 . S
C2535 C2534 1.355 . S
C2535 C2537 1.419 . S
C2536 C2534 1.415 . S
C2536 C2541 1.425 . S
C2536 C2543 1.409 . S
C2537 H2529 0.930 . S
C2537 C2535 1.419 . S
C2537 C2538 1.362 . S
C2538 H2530 0.930 . S
C2538 C2537 1.362 . S
C2538 C2541 1.409 . S
C2539 H2531 0.930 . S
C2539 C2540 1.355 . S
C2539 C2541 1.415 . S
C2540 C2539 1.355 . S
C2540 C2542 1.419 . S
C2541 C2536 1.425 . S
C2541 C2538 1.409 . S
C2541 C2539 1.415 . S
C2542 H2532 0.930 . S
C2542 C2540 1.419 . S
C2542 C2543 1.362 . S
C2543 H2533 0.930 . S
C2543 C2536 1.409 . S
C2543 C2542 1.362 . S
H2544 C2550 0.930 . S
H2545 C2553 0.930 . S
H2546 C2554 0.930 . S
H2547 C2555 0.930 . S
H2548 C2558 0.930 . S
H2549 C2559 0.930 . S
C2550 H2544 0.930 . S
C2550 C2551 1.355 . S
C2550 C2552 1.415 . S
C2551 C2550 1.355 . S
C2551 C2553 1.419 . S
C2552 C2550 1.415 . S
C2552 C2557 1.425 . S
C2552 C2559 1.409 . S
C2553 H2545 0.930 . S
C2553 C2551 1.419 . S
C2553 C2554 1.362 . S
C2554 H2546 0.930 . S
C2554 C2553 1.362 . S
C2554 C2557 1.409 . S
C2555 H2547 0.930 . S
C2555 C2556 1.355 . S
C2555 C2557 1.415 . S
C2556 C2555 1.355 . S
C2556 C2558 1.419 . S
C2557 C2552 1.425 . S
C2557 C2554 1.409 . S
C2557 C2555 1.415 . S
C2558 H2548 0.930 . S
C2558 C2556 1.419 . S
C2558 C2559 1.362 . S
C2559 H2549 0.930 . S
C2559 C2552 1.409 . S
C2559 C2558 1.362 . S
H2560 C2566 0.930 . S
H2561 C2569 0.930 . S
H2562 C2570 0.930 . S
H2563 C2571 0.930 . S
H2564 C2574 0.930 . S
H2565 C2575 0.930 . S
C2566 H2560 0.930 . S
C2566 C2567 1.355 . S
C2566 C2568 1.415 . S
C2567 C2566 1.355 . S
C2567 C2569 1.419 . S
C2568 C2566 1.415 . S
C2568 C2573 1.425 . S
C2568 C2575 1.409 . S
C2569 H2561 0.930 . S
C2569 C2567 1.419 . S
C2569 C2570 1.362 . S
C2570 H2562 0.930 . S
C2570 C2569 1.362 . S
C2570 C2573 1.409 . S
C2571 H2563 0.930 . S
C2571 C2572 1.355 . S
C2571 C2573 1.415 . S
C2572 C2571 1.355 . S
C2572 C2574 1.419 . S
C2573 C2568 1.425 . S
C2573 C2570 1.409 . S
C2573 C2571 1.415 . S
C2574 H2564 0.930 . S
C2574 C2572 1.419 . S
C2574 C2575 1.362 . S
C2575 H2565 0.930 . S
C2575 C2568 1.409 . S
C2575 C2574 1.362 . S
H2576 C2582 0.930 . S
H2577 C2585 0.930 . S
H2578 C2586 0.930 . S
H2579 C2587 0.930 . S
H2580 C2590 0.930 . S
H2581 C2591 0.930 . S
C2582 H2576 0.930 . S
C2582 C2583 1.355 . S
C2582 C2584 1.415 . S
C2583 C2582 1.355 . S
C2583 C2585 1.419 . S
C2584 C2582 1.415 . S
C2584 C2589 1.425 . S
C2584 C2591 1.409 . S
C2585 H2577 0.930 . S
C2585 C2583 1.419 . S
C2585 C2586 1.362 . S
C2586 H2578 0.930 . S
C2586 C2585 1.362 . S
C2586 C2589 1.409 . S
C2587 H2579 0.930 . S
C2587 C2588 1.355 . S
C2587 C2589 1.415 . S
C2588 C2587 1.355 . S
C2588 C2590 1.419 . S
C2589 C2584 1.425 . S
C2589 C2586 1.409 . S
C2589 C2587 1.415 . S
C2590 H2580 0.930 . S
C2590 C2588 1.419 . S
C2590 C2591 1.362 . S
C2591 H2581 0.930 . S
C2591 C2584 1.409 . S
C2591 C2590 1.362 . S
H2592 C2598 0.930 . S
H2593 C2601 0.930 . S
H2594 C2602 0.930 . S
H2595 C2603 0.930 . S
H2596 C2606 0.930 . S
H2597 C2607 0.930 . S
C2598 H2592 0.930 . S
C2598 C2599 1.355 . S
C2598 C2600 1.415 . S
C2599 C2598 1.355 . S
C2599 C2601 1.419 . S
C2600 C2598 1.415 . S
C2600 C2605 1.425 . S
C2600 C2607 1.409 . S
C2601 H2593 0.930 . S
C2601 C2599 1.419 . S
C2601 C2602 1.362 . S
C2602 H2594 0.930 . S
C2602 C2601 1.362 . S
C2602 C2605 1.409 . S
C2603 H2595 0.930 . S
C2603 C2604 1.355 . S
C2603 C2605 1.415 . S
C2604 C2603 1.355 . S
C2604 C2606 1.419 . S
C2605 C2600 1.425 . S
C2605 C2602 1.409 . S
C2605 C2603 1.415 . S
C2606 H2596 0.930 . S
C2606 C2604 1.419 . S
C2606 C2607 1.362 . S
C2607 H2597 0.930 . S
C2607 C2600 1.409 . S
C2607 C2606 1.362 . S
H2608 C2614 0.930 . S
H2609 C2617 0.930 . S
H2610 C2618 0.930 . S
H2611 C2619 0.930 . S
H2612 C2622 0.930 . S
H2613 C2623 0.930 . S
C2614 H2608 0.930 . S
C2614 C2615 1.355 . S
C2614 C2616 1.415 . S
C2615 C2614 1.355 . S
C2615 C2617 1.419 . S
C2616 C2614 1.415 . S
C2616 C2621 1.425 . S
C2616 C2623 1.409 . S
C2617 H2609 0.930 . S
C2617 C2615 1.419 . S
C2617 C2618 1.362 . S
C2618 H2610 0.930 . S
C2618 C2617 1.362 . S
C2618 C2621 1.409 . S
C2619 H2611 0.930 . S
C2619 C2620 1.355 . S
C2619 C2621 1.415 . S
C2620 C2619 1.355 . S
C2620 C2622 1.419 . S
C2621 C2616 1.425 . S
C2621 C2618 1.409 . S
C2621 C2619 1.415 . S
C2622 H2612 0.930 . S
C2622 C2620 1.419 . S
C2622 C2623 1.362 . S
C2623 H2613 0.930 . S
C2623 C2616 1.409 . S
C2623 C2622 1.362 . S
H2624 C2630 0.930 . S
H2625 C2633 0.930 . S
H2626 C2634 0.930 . S
H2627 C2635 0.930 . S
H2628 C2638 0.930 . S
H2629 C2639 0.930 . S
C2630 H2624 0.930 . S
C2630 C2631 1.355 . S
C2630 C2632 1.415 . S
C2631 C2630 1.355 . S
C2631 C2633 1.419 . S
C2632 C2630 1.415 . S
C2632 C2637 1.425 . S
C2632 C2639 1.409 . S
C2633 H2625 0.930 . S
C2633 C2631 1.419 . S
C2633 C2634 1.362 . S
C2634 H2626 0.930 . S
C2634 C2633 1.362 . S
C2634 C2637 1.409 . S
C2635 H2627 0.930 . S
C2635 C2636 1.355 . S
C2635 C2637 1.415 . S
C2636 C2635 1.355 . S
C2636 C2638 1.419 . S
C2637 C2632 1.425 . S
C2637 C2634 1.409 . S
C2637 C2635 1.415 . S
C2638 H2628 0.930 . S
C2638 C2636 1.419 . S
C2638 C2639 1.362 . S
C2639 H2629 0.930 . S
C2639 C2632 1.409 . S
C2639 C2638 1.362 . S
H2640 C2646 0.930 . S
H2641 C2649 0.930 . S
H2642 C2650 0.930 . S
H2643 C2651 0.930 . S
H2644 C2654 0.930 . S
H2645 C2655 0.930 . S
C2646 H2640 0.930 . S
C2646 C2647 1.355 . S
C2646 C2648 1.415 . S
C2647 C2646 1.355 . S
C2647 C2649 1.419 . S
C2648 C2646 1.415 . S
C2648 C2653 1.425 . S
C2648 C2655 1.409 . S
C2649 H2641 0.930 . S
C2649 C2647 1.419 . S
C2649 C2650 1.362 . S
C2650 H2642 0.930 . S
C2650 C2649 1.362 . S
C2650 C2653 1.409 . S
C2651 H2643 0.930 . S
C2651 C2652 1.355 . S
C2651 C2653 1.415 . S
C2652 C2651 1.355 . S
C2652 C2654 1.419 . S
C2653 C2648 1.425 . S
C2653 C2650 1.409 . S
C2653 C2651 1.415 . S
C2654 H2644 0.930 . S
C2654 C2652 1.419 . S
C2654 C2655 1.362 . S
C2655 H2645 0.930 . S
C2655 C2648 1.409 . S
C2655 C2654 1.362 . S
H2656 C2662 0.930 . S
H2657 C2665 0.930 . S
H2658 C2666 0.930 . S
H2659 C2667 0.930 . S
H2660 C2670 0.930 . S
H2661 C2671 0.930 . S
C2662 H2656 0.930 . S
C2662 C2663 1.355 . S
C2662 C2664 1.415 . S
C2663 C2662 1.355 . S
C2663 C2665 1.419 . S
C2664 C2662 1.415 . S
C2664 C2669 1.425 . S
C2664 C2671 1.409 . S
C2665 H2657 0.930 . S
C2665 C2663 1.419 . S
C2665 C2666 1.362 . S
C2666 H2658 0.930 . S
C2666 C2665 1.362 . S
C2666 C2669 1.409 . S
C2667 H2659 0.930 . S
C2667 C2668 1.355 . S
C2667 C2669 1.415 . S
C2668 C2667 1.355 . S
C2668 C2670 1.419 . S
C2669 C2664 1.425 . S
C2669 C2666 1.409 . S
C2669 C2667 1.415 . S
C2670 H2660 0.930 . S
C2670 C2668 1.419 . S
C2670 C2671 1.362 . S
C2671 H2661 0.930 . S
C2671 C2664 1.409 . S
C2671 C2670 1.362 . S
H2672 C2678 0.930 . S
H2673 C2681 0.930 . S
H2674 C2682 0.930 . S
H2675 C2683 0.930 . S
H2676 C2686 0.930 . S
H2677 C2687 0.930 . S
C2678 H2672 0.930 . S
C2678 C2679 1.355 . S
C2678 C2680 1.415 . S
C2679 C2678 1.355 . S
C2679 C2681 1.419 . S
C2680 C2678 1.415 . S
C2680 C2685 1.425 . S
C2680 C2687 1.409 . S
C2681 H2673 0.930 . S
C2681 C2679 1.419 . S
C2681 C2682 1.362 . S
C2682 H2674 0.930 . S
C2682 C2681 1.362 . S
C2682 C2685 1.409 . S
C2683 H2675 0.930 . S
C2683 C2684 1.355 . S
C2683 C2685 1.415 . S
C2684 C2683 1.355 . S
C2684 C2686 1.419 . S
C2685 C2680 1.425 . S
C2685 C2682 1.409 . S
C2685 C2683 1.415 . S
C2686 H2676 0.930 . S
C2686 C2684 1.419 . S
C2686 C2687 1.362 . S
C2687 H2677 0.930 . S
C2687 C2680 1.409 . S
C2687 C2686 1.362 . S
H2688 C2694 0.930 . S
H2689 C2697 0.930 . S
H2690 C2698 0.930 . S
H2691 C2699 0.930 . S
H2692 C2702 0.930 . S
H2693 C2703 0.930 . S
C2694 H2688 0.930 . S
C2694 C2695 1.355 . S
C2694 C2696 1.415 . S
C2695 C2694 1.355 . S
C2695 C2697 1.419 . S
C2696 C2694 1.415 . S
C2696 C2701 1.425 . S
C2696 C2703 1.409 . S
C2697 H2689 0.930 . S
C2697 C2695 1.419 . S
C2697 C2698 1.362 . S
C2698 H2690 0.930 . S
C2698 C2697 1.362 . S
C2698 C2701 1.409 . S
C2699 H2691 0.930 . S
C2699 C2700 1.355 . S
C2699 C2701 1.415 . S
C2700 C2699 1.355 . S
C2700 C2702 1.419 . S
C2701 C2696 1.425 . S
C2701 C2698 1.409 . S
C2701 C2699 1.415 . S
C2702 H2692 0.930 . S
C2702 C2700 1.419 . S
C2702 C2703 1.362 . S
C2703 H2693 0.930 . S
C2703 C2696 1.409 . S
C2703 C2702 1.362 . S
H2704 C2710 0.930 . S
H2705 C2713 0.930 . S
H2706 C2714 0.930 . S
H2707 C2715 0.930 . S
H2708 C2718 0.930 . S
H2709 C2719 0.930 . S
C2710 H2704 0.930 . S
C2710 C2711 1.355 . S
C2710 C2712 1.415 . S
C2711 C2710 1.355 . S
C2711 C2713 1.419 . S
C2712 C2710 1.415 . S
C2712 C2717 1.425 . S
C2712 C2719 1.409 . S
C2713 H2705 0.930 . S
C2713 C2711 1.419 . S
C2713 C2714 1.362 . S
C2714 H2706 0.930 . S
C2714 C2713 1.362 . S
C2714 C2717 1.409 . S
C2715 H2707 0.930 . S
C2715 C2716 1.355 . S
C2715 C2717 1.415 . S
C2716 C2715 1.355 . S
C2716 C2718 1.419 . S
C2717 C2712 1.425 . S
C2717 C2714 1.409 . S
C2717 C2715 1.415 . S
C2718 H2708 0.930 . S
C2718 C2716 1.419 . S
C2718 C2719 1.362 . S
C2719 H2709 0.930 . S
C2719 C2712 1.409 . S
C2719 C2718 1.362 . S
H2720 C2726 0.930 . S
H2721 C2729 0.930 . S
H2722 C2730 0.930 . S
H2723 C2731 0.930 . S
H2724 C2734 0.930 . S
H2725 C2735 0.930 . S
C2726 H2720 0.930 . S
C2726 C2727 1.355 . S
C2726 C2728 1.415 . S
C2727 C2726 1.355 . S
C2727 C2729 1.419 . S
C2728 C2726 1.415 . S
C2728 C2733 1.425 . S
C2728 C2735 1.409 . S
C2729 H2721 0.930 . S
C2729 C2727 1.419 . S
C2729 C2730 1.362 . S
C2730 H2722 0.930 . S
C2730 C2729 1.362 . S
C2730 C2733 1.409 . S
C2731 H2723 0.930 . S
C2731 C2732 1.355 . S
C2731 C2733 1.415 . S
C2732 C2731 1.355 . S
C2732 C2734 1.419 . S
C2733 C2728 1.425 . S
C2733 C2730 1.409 . S
C2733 C2731 1.415 . S
C2734 H2724 0.930 . S
C2734 C2732 1.419 . S
C2734 C2735 1.362 . S
C2735 H2725 0.930 . S
C2735 C2728 1.409 . S
C2735 C2734 1.362 . S
H2736 C2742 0.930 . S
H2737 C2745 0.930 . S
H2738 C2746 0.930 . S
H2739 C2747 0.930 . S
H2740 C2750 0.930 . S
H2741 C2751 0.930 . S
C2742 H2736 0.930 . S
C2742 C2743 1.355 . S
C2742 C2744 1.415 . S
C2743 C2742 1.355 . S
C2743 C2745 1.419 . S
C2744 C2742 1.415 . S
C2744 C2749 1.425 . S
C2744 C2751 1.409 . S
C2745 H2737 0.930 . S
C2745 C2743 1.419 . S
C2745 C2746 1.362 . S
C2746 H2738 0.930 . S
C2746 C2745 1.362 . S
C2746 C2749 1.409 . S
C2747 H2739 0.930 . S
C2747 C2748 1.355 . S
C2747 C2749 1.415 . S
C2748 C2747 1.355 . S
C2748 C2750 1.419 . S
C2749 C2744 1.425 . S
C2749 C2746 1.409 . S
C2749 C2747 1.415 . S
C2750 H2740 0.930 . S
C2750 C2748 1.419 . S
C2750 C2751 1.362 . S
C2751 H2741 0.930 . S
C2751 C2744 1.409 . S
C2751 C2750 1.362 . S
H2752 C2758 0.930 . S
H2753 C2761 0.930 . S
H2754 C2762 0.930 . S
H2755 C2763 0.930 . S
H2756 C2766 0.930 . S
H2757 C2767 0.930 . S
C2758 H2752 0.930 . S
C2758 C2759 1.355 . S
C2758 C2760 1.415 . S
C2759 C2758 1.355 . S
C2759 C2761 1.419 . S
C2760 C2758 1.415 . S
C2760 C2765 1.425 . S
C2760 C2767 1.409 . S
C2761 H2753 0.930 . S
C2761 C2759 1.419 . S
C2761 C2762 1.362 . S
C2762 H2754 0.930 . S
C2762 C2761 1.362 . S
C2762 C2765 1.409 . S
C2763 H2755 0.930 . S
C2763 C2764 1.355 . S
C2763 C2765 1.415 . S
C2764 C2763 1.355 . S
C2764 C2766 1.419 . S
C2765 C2760 1.425 . S
C2765 C2762 1.409 . S
C2765 C2763 1.415 . S
C2766 H2756 0.930 . S
C2766 C2764 1.419 . S
C2766 C2767 1.362 . S
C2767 H2757 0.930 . S
C2767 C2760 1.409 . S
C2767 C2766 1.362 . S
H2768 C2774 0.930 . S
H2769 C2777 0.930 . S
H2770 C2778 0.930 . S
H2771 C2779 0.930 . S
H2772 C2782 0.930 . S
H2773 C2783 0.930 . S
C2774 H2768 0.930 . S
C2774 C2775 1.355 . S
C2774 C2776 1.415 . S
C2775 C2774 1.355 . S
C2775 C2777 1.419 . S
C2776 C2774 1.415 . S
C2776 C2781 1.425 . S
C2776 C2783 1.409 . S
C2777 H2769 0.930 . S
C2777 C2775 1.419 . S
C2777 C2778 1.362 . S
C2778 H2770 0.930 . S
C2778 C2777 1.362 . S
C2778 C2781 1.409 . S
C2779 H2771 0.930 . S
C2779 C2780 1.355 . S
C2779 C2781 1.415 . S
C2780 C2779 1.355 . S
C2780 C2782 1.419 . S
C2781 C2776 1.425 . S
C2781 C2778 1.409 . S
C2781 C2779 1.415 . S
C2782 H2772 0.930 . S
C2782 C2780 1.419 . S
C2782 C2783 1.362 . S
C2783 H2773 0.930 . S
C2783 C2776 1.409 . S
C2783 C2782 1.362 . S
H2784 C2790 0.930 . S
H2785 C2793 0.930 . S
H2786 C2794 0.930 . S
H2787 C2795 0.930 . S
H2788 C2798 0.930 . S
H2789 C2799 0.930 . S
C2790 H2784 0.930 . S
C2790 C2791 1.355 . S
C2790 C2792 1.415 . S
C2791 C2790 1.355 . S
C2791 C2793 1.419 . S
C2792 C2790 1.415 . S
C2792 C2797 1.425 . S
C2792 C2799 1.409 . S
C2793 H2785 0.930 . S
C2793 C2791 1.419 . S
C2793 C2794 1.362 . S
C2794 H2786 0.930 . S
C2794 C2793 1.362 . S
C2794 C2797 1.409 . S
C2795 H2787 0.930 . S
C2795 C2796 1.355 . S
C2795 C2797 1.415 . S
C2796 C2795 1.355 . S
C2796 C2798 1.419 . S
C2797 C2792 1.425 . S
C2797 C2794 1.409 . S
C2797 C2795 1.415 . S
C2798 H2788 0.930 . S
C2798 C2796 1.419 . S
C2798 C2799 1.362 . S
C2799 H2789 0.930 . S
C2799 C2792 1.409 . S
C2799 C2798 1.362 . S
H2800 C2806 0.930 . S
H2801 C2809 0.930 . S
H2802 C2810 0.930 . S
H2803 C2811 0.930 . S
H2804 C2814 0.930 . S
H2805 C2815 0.930 . S
C2806 H2800 0.930 . S
C2806 C2807 1.355 . S
C2806 C2808 1.415 . S
C2807 C2806 1.355 . S
C2807 C2809 1.419 . S
C2808 C2806 1.415 . S
C2808 C2813 1.425 . S
C2808 C2815 1.409 . S
C2809 H2801 0.930 . S
C2809 C2807 1.419 . S
C2809 C2810 1.362 . S
C2810 H2802 0.930 . S
C2810 C2809 1.362 . S
C2810 C2813 1.409 . S
C2811 H2803 0.930 . S
C2811 C2812 1.355 . S
C2811 C2813 1.415 . S
C2812 C2811 1.355 . S
C2812 C2814 1.419 . S
C2813 C2808 1.425 . S
C2813 C2810 1.409 . S
C2813 C2811 1.415 . S
C2814 H2804 0.930 . S
C2814 C2812 1.419 . S
C2814 C2815 1.362 . S
C2815 H2805 0.930 . S
C2815 C2808 1.409 . S
C2815 C2814 1.362 . S
H2816 C2822 0.930 . S
H2817 C2825 0.930 . S
H2818 C2826 0.930 . S
H2819 C2827 0.930 . S
H2820 C2830 0.930 . S
H2821 C2831 0.930 . S
C2822 H2816 0.930 . S
C2822 C2823 1.355 . S
C2822 C2824 1.415 . S
C2823 C2822 1.355 . S
C2823 C2825 1.419 . S
C2824 C2822 1.415 . S
C2824 C2829 1.425 . S
C2824 C2831 1.409 . S
C2825 H2817 0.930 . S
C2825 C2823 1.419 . S
C2825 C2826 1.362 . S
C2826 H2818 0.930 . S
C2826 C2825 1.362 . S
C2826 C2829 1.409 . S
C2827 H2819 0.930 . S
C2827 C2828 1.355 . S
C2827 C2829 1.415 . S
C2828 C2827 1.355 . S
C2828 C2830 1.419 . S
C2829 C2824 1.425 . S
C2829 C2826 1.409 . S
C2829 C2827 1.415 . S
C2830 H2820 0.930 . S
C2830 C2828 1.419 . S
C2830 C2831 1.362 . S
C2831 H2821 0.930 . S
C2831 C2824 1.409 . S
C2831 C2830 1.362 . S
H2832 C2838 0.930 . S
H2833 C2841 0.930 . S
H2834 C2842 0.930 . S
H2835 C2843 0.930 . S
H2836 C2846 0.930 . S
H2837 C2847 0.930 . S
C2838 H2832 0.930 . S
C2838 C2839 1.355 . S
C2838 C2840 1.415 . S
C2839 C2838 1.355 . S
C2839 C2841 1.419 . S
C2840 C2838 1.415 . S
C2840 C2845 1.425 . S
C2840 C2847 1.409 . S
C2841 H2833 0.930 . S
C2841 C2839 1.419 . S
C2841 C2842 1.362 . S
C2842 H2834 0.930 . S
C2842 C2841 1.362 . S
C2842 C2845 1.409 . S
C2843 H2835 0.930 . S
C2843 C2844 1.355 . S
C2843 C2845 1.415 . S
C2844 C2843 1.355 . S
C2844 C2846 1.419 . S
C2845 C2840 1.425 . S
C2845 C2842 1.409 . S
C2845 C2843 1.415 . S
C2846 H2836 0.930 . S
C2846 C2844 1.419 . S
C2846 C2847 1.362 . S
C2847 H2837 0.930 . S
C2847 C2840 1.409 . S
C2847 C2846 1.362 . S
H2848 C2854 0.930 . S
H2849 C2857 0.930 . S
H2850 C2858 0.930 . S
H2851 C2859 0.930 . S
H2852 C2862 0.930 . S
H2853 C2863 0.930 . S
C2854 H2848 0.930 . S
C2854 C2855 1.355 . S
C2854 C2856 1.415 . S
C2855 C2854 1.355 . S
C2855 C2857 1.419 . S
C2856 C2854 1.415 . S
C2856 C2861 1.425 . S
C2856 C2863 1.409 . S
C2857 H2849 0.930 . S
C2857 C2855 1.419 . S
C2857 C2858 1.362 . S
C2858 H2850 0.930 . S
C2858 C2857 1.362 . S
C2858 C2861 1.409 . S
C2859 H2851 0.930 . S
C2859 C2860 1.355 . S
C2859 C2861 1.415 . S
C2860 C2859 1.355 . S
C2860 C2862 1.419 . S
C2861 C2856 1.425 . S
C2861 C2858 1.409 . S
C2861 C2859 1.415 . S
C2862 H2852 0.930 . S
C2862 C2860 1.419 . S
C2862 C2863 1.362 . S
C2863 H2853 0.930 . S
C2863 C2856 1.409 . S
C2863 C2862 1.362 . S
H2864 C2870 0.930 . S
H2865 C2873 0.930 . S
H2866 C2874 0.930 . S
H2867 C2875 0.930 . S
H2868 C2878 0.930 . S
H2869 C2879 0.930 . S
C2870 H2864 0.930 . S
C2870 C2871 1.355 . S
C2870 C2872 1.415 . S
C2871 C2870 1.355 . S
C2871 C2873 1.419 . S
C2872 C2870 1.415 . S
C2872 C2877 1.425 . S
C2872 C2879 1.409 . S
C2873 H2865 0.930 . S
C2873 C2871 1.419 . S
C2873 C2874 1.362 . S
C2874 H2866 0.930 . S
C2874 C2873 1.362 . S
C2874 C2877 1.409 . S
C2875 H2867 0.930 . S
C2875 C2876 1.355 . S
C2875 C2877 1.415 . S
C2876 C2875 1.355 . S
C2876 C2878 1.419 . S
C2877 C2872 1.425 . S
C2877 C2874 1.409 . S
C2877 C2875 1.415 . S
C2878 H2868 0.930 . S
C2878 C2876 1.419 . S
C2878 C2879 1.362 . S
C2879 H2869 0.930 . S
C2879 C2872 1.409 . S
C2879 C2878 1.362 . S
H2880 C2886 0.930 . S
H2881 C2889 0.930 . S
H2882 C2890 0.930 . S
H2883 C2891 0.930 . S
H2884 C2894 0.930 . S
H2885 C2895 0.930 . S
C2886 H2880 0.930 . S
C2886 C2887 1.355 . S
C2886 C2888 1.415 . S
C2887 C2886 1.355 . S
C2887 C2889 1.419 . S
C2888 C2886 1.415 . S
C2888 C2893 1.425 . S
C2888 C2895 1.409 . S
C2889 H2881 0.930 . S
C2889 C2887 1.419 . S
C2889 C2890 1.362 . S
C2890 H2882 0.930 . S
C2890 C2889 1.362 . S
C2890 C2893 1.409 . S
C2891 H2883 0.930 . S
C2891 C2892 1.355 . S
C2891 C2893 1.415 . S
C2892 C2891 1.355 . S
C2892 C2894 1.419 . S
C2893 C2888 1.425 . S
C2893 C2890 1.409 . S
C2893 C2891 1.415 . S
C2894 H2884 0.930 . S
C2894 C2892 1.419 . S
C2894 C2895 1.362 . S
C2895 H2885 0.930 . S
C2895 C2888 1.409 . S
C2895 C2894 1.362 . S
H2896 C2902 0.930 . S
H2897 C2905 0.930 . S
H2898 C2906 0.930 . S
H2899 C2907 0.930 . S
H2900 C2910 0.930 . S
H2901 C2911 0.930 . S
C2902 H2896 0.930 . S
C2902 C2903 1.355 . S
C2902 C2904 1.415 . S
C2903 C2902 1.355 . S
C2903 C2905 1.419 . S
C2904 C2902 1.415 . S
C2904 C2909 1.425 . S
C2904 C2911 1.409 . S
C2905 H2897 0.930 . S
C2905 C2903 1.419 . S
C2905 C2906 1.362 . S
C2906 H2898 0.930 . S
C2906 C2905 1.362 . S
C2906 C2909 1.409 . S
C2907 H2899 0.930 . S
C2907 C2908 1.355 . S
C2907 C2909 1.415 . S
C2908 C2907 1.355 . S
C2908 C2910 1.419 . S
C2909 C2904 1.425 . S
C2909 C2906 1.409 . S
C2909 C2907 1.415 . S
C2910 H2900 0.930 . S
C2910 C2908 1.419 . S
C2910 C2911 1.362 . S
C2911 H2901 0.930 . S
C2911 C2904 1.409 . S
C2911 C2910 1.362 . S
H2912 C2918 0.930 . S
H2913 C2921 0.930 . S
H2914 C2922 0.930 . S
H2915 C2923 0.930 . S
H2916 C2926 0.930 . S
H2917 C2927 0.930 . S
C2918 H2912 0.930 . S
C2918 C2919 1.355 . S
C2918 C2920 1.415 . S
C2919 C2918 1.355 . S
C2919 C2921 1.419 . S
C2920 C2918 1.415 . S
C2920 C2925 1.425 . S
C2920 C2927 1.409 . S
C2921 H2913 0.930 . S
C2921 C2919 1.419 . S
C2921 C2922 1.362 . S
C2922 H2914 0.930 . S
C2922 C2921 1.362 . S
C2922 C2925 1.409 . S
C2923 H2915 0.930 . S
C2923 C2924 1.355 . S
C2923 C2925 1.415 . S
C2924 C2923 1.355 . S
C2924 C2926 1.419 . S
C2925 C2920 1.425 . S
C2925 C2922 1.409 . S
C2925 C2923 1.415 . S
C2926 H2916 0.930 . S
C2926 C2924 1.419 . S
C2926 C2927 1.362 . S
C2927 H2917 0.930 . S
C2927 C2920 1.409 . S
C2927 C2926 1.362 . S
H2928 C2934 0.930 . S
H2929 C2937 0.930 . S
H2930 C2938 0.930 . S
H2931 C2939 0.930 . S
H2932 C2942 0.930 . S
H2933 C2943 0.930 . S
C2934 H2928 0.930 . S
C2934 C2935 1.355 . S
C2934 C2936 1.415 . S
C2935 C2934 1.355 . S
C2935 C2937 1.419 . S
C2936 C2934 1.415 . S
C2936 C2941 1.425 . S
C2936 C2943 1.409 . S
C2937 H2929 0.930 . S
C2937 C2935 1.419 . S
C2937 C2938 1.362 . S
C2938 H2930 0.930 . S
C2938 C2937 1.362 . S
C2938 C2941 1.409 . S
C2939 H2931 0.930 . S
C2939 C2940 1.355 . S
C2939 C2941 1.415 . S
C2940 C2939 1.355 . S
C2940 C2942 1.419 . S
C2941 C2936 1.425 . S
C2941 C2938 1.409 . S
C2941 C2939 1.415 . S
C2942 H2932 0.930 . S
C2942 C2940 1.419 . S
C2942 C2943 1.362 . S
C2943 H2933 0.930 . S
C2943 C2936 1.409 . S
C2943 C2942 1.362 . S
H2944 C2950 0.930 . S
H2945 C2953 0.930 . S
H2946 C2954 0.930 . S
H2947 C2955 0.930 . S
H2948 C2958 0.930 . S
H2949 C2959 0.930 . S
C2950 H2944 0.930 . S
C2950 C2951 1.355 . S
C2950 C2952 1.415 . S
C2951 C2950 1.355 . S
C2951 C2953 1.419 . S
C2952 C2950 1.415 . S
C2952 C2957 1.425 . S
C2952 C2959 1.409 . S
C2953 H2945 0.930 . S
C2953 C2951 1.419 . S
C2953 C2954 1.362 . S
C2954 H2946 0.930 . S
C2954 C2953 1.362 . S
C2954 C2957 1.409 . S
C2955 H2947 0.930 . S
C2955 C2956 1.355 . S
C2955 C2957 1.415 . S
C2956 C2955 1.355 . S
C2956 C2958 1.419 . S
C2957 C2952 1.425 . S
C2957 C2954 1.409 . S
C2957 C2955 1.415 . S
C2958 H2948 0.930 . S
C2958 C2956 1.419 . S
C2958 C2959 1.362 . S
C2959 H2949 0.930 . S
C2959 C2952 1.409 . S
C2959 C2958 1.362 . S
H2960 C2966 0.930 . S
H2961 C2969 0.930 . S
H2962 C2970 0.930 . S
H2963 C2971 0.930 . S
H2964 C2974 0.930 . S
H2965 C2975 0.930 . S
C2966 H2960 0.930 . S
C2966 C2967 1.355 . S
C2966 C2968 1.415 . S
C2967 C2966 1.355 . S
C2967 C2969 1.419 . S
C2968 C2966 1.415 . S
C2968 C2973 1.425 . S
C2968 C2975 1.409 . S
C2969 H2961 0.930 . S
C2969 C2967 1.419 . S
C2969 C2970 1.362 . S
C2970 H2962 0.930 . S
C2970 C2969 1.362 . S
C2970 C2973 1.409 . S
C2971 H2963 0.930 . S
C2971 C2972 1.355 . S
C2971 C2973 1.415 . S
C2972 C2971 1.355 . S
C2972 C2974 1.419 . S
C2973 C2968 1.425 . S
C2973 C2970 1.409 . S
C2973 C2971 1.415 . S
C2974 H2964 0.930 . S
C2974 C2972 1.419 . S
C2974 C2975 1.362 . S
C2975 H2965 0.930 . S
C2975 C2968 1.409 . S
C2975 C2974 1.362 . S
H2976 C2982 0.930 . S
H2977 C2985 0.930 . S
H2978 C2986 0.930 . S
H2979 C2987 0.930 . S
H2980 C2990 0.930 . S
H2981 C2991 0.930 . S
C2982 H2976 0.930 . S
C2982 C2983 1.355 . S
C2982 C2984 1.415 . S
C2983 C2982 1.355 . S
C2983 C2985 1.419 . S
C2984 C2982 1.415 . S
C2984 C2989 1.425 . S
C2984 C2991 1.409 . S
C2985 H2977 0.930 . S
C2985 C2983 1.419 . S
C2985 C2986 1.362 . S
C2986 H2978 0.930 . S
C2986 C2985 1.362 . S
C2986 C2989 1.409 . S
C2987 H2979 0.930 . S
C2987 C2988 1.355 . S
C2987 C2989 1.415 . S
C2988 C2987 1.355 . S
C2988 C2990 1.419 . S
C2989 C2984 1.425 . S
C2989 C2986 1.409 . S
C2989 C2987 1.415 . S
C2990 H2980 0.930 . S
C2990 C2988 1.419 . S
C2990 C2991 1.362 . S
C2991 H2981 0.930 . S
C2991 C2984 1.409 . S
C2991 C2990 1.362 . S
H2992 C2998 0.930 . S
H2993 C3001 0.930 . S
H2994 C3002 0.930 . S
H2995 C3003 0.930 . S
H2996 C3006 0.930 . S
H2997 C3007 0.930 . S
C2998 H2992 0.930 . S
C2998 C2999 1.355 . S
C2998 C3000 1.415 . S
C2999 C2998 1.355 . S
C2999 C3001 1.419 . S
C3000 C2998 1.415 . S
C3000 C3005 1.425 . S
C3000 C3007 1.409 . S
C3001 H2993 0.930 . S
C3001 C2999 1.419 . S
C3001 C3002 1.362 . S
C3002 H2994 0.930 . S
C3002 C3001 1.362 . S
C3002 C3005 1.409 . S
C3003 H2995 0.930 . S
C3003 C3004 1.355 . S
C3003 C3005 1.415 . S
C3004 C3003 1.355 . S
C3004 C3006 1.419 . S
C3005 C3000 1.425 . S
C3005 C3002 1.409 . S
C3005 C3003 1.415 . S
C3006 H2996 0.930 . S
C3006 C3004 1.419 . S
C3006 C3007 1.362 . S
C3007 H2997 0.930 . S
C3007 C3000 1.409 . S
C3007 C3006 1.362 . S
H3008 C3014 0.930 . S
H3009 C3017 0.930 . S
H3010 C3018 0.930 . S
H3011 C3019 0.930 . S
H3012 C3022 0.930 . S
H3013 C3023 0.930 . S
C3014 H3008 0.930 . S
C3014 C3015 1.355 . S
C3014 C3016 1.415 . S
C3015 C3014 1.355 . S
C3015 C3017 1.419 . S
C3016 C3014 1.415 . S
C3016 C3021 1.425 . S
C3016 C3023 1.409 . S
C3017 H3009 0.930 . S
C3017 C3015 1.419 . S
C3017 C3018 1.362 . S
C3018 H3010 0.930 . S
C3018 C3017 1.362 . S
C3018 C3021 1.409 . S
C3019 H3011 0.930 . S
C3019 C3020 1.355 . S
C3019 C3021 1.415 . S
C3020 C3019 1.355 . S
C3020 C3022 1.419 . S
C3021 C3016 1.425 . S
C3021 C3018 1.409 . S
C3021 C3019 1.415 . S
C3022 H3012 0.930 . S
C3022 C3020 1.419 . S
C3022 C3023 1.362 . S
C3023 H3013 0.930 . S
C3023 C3016 1.409 . S
C3023 C3022 1.362 . S
H3024 C3030 0.930 . S
H3025 C3033 0.930 . S
H3026 C3034 0.930 . S
H3027 C3035 0.930 . S
H3028 C3038 0.930 . S
H3029 C3039 0.930 . S
C3030 H3024 0.930 . S
C3030 C3031 1.355 . S
C3030 C3032 1.415 . S
C3031 C3030 1.355 . S
C3031 C3033 1.419 . S
C3032 C3030 1.415 . S
C3032 C3037 1.425 . S
C3032 C3039 1.409 . S
C3033 H3025 0.930 . S
C3033 C3031 1.419 . S
C3033 C3034 1.362 . S
C3034 H3026 0.930 . S
C3034 C3033 1.362 . S
C3034 C3037 1.409 . S
C3035 H3027 0.930 . S
C3035 C3036 1.355 . S
C3035 C3037 1.415 . S
C3036 C3035 1.355 . S
C3036 C3038 1.419 . S
C3037 C3032 1.425 . S
C3037 C3034 1.409 . S
C3037 C3035 1.415 . S
C3038 H3028 0.930 . S
C3038 C3036 1.419 . S
C3038 C3039 1.362 . S
C3039 H3029 0.930 . S
C3039 C3032 1.409 . S
C3039 C3038 1.362 . S
H3040 C3046 0.930 . S
H3041 C3049 0.930 . S
H3042 C3050 0.930 . S
H3043 C3051 0.930 . S
H3044 C3054 0.930 . S
H3045 C3055 0.930 . S
C3046 H3040 0.930 . S
C3046 C3047 1.355 . S
C3046 C3048 1.415 . S
C3047 C3046 1.355 . S
C3047 C3049 1.419 . S
C3048 C3046 1.415 . S
C3048 C3053 1.425 . S
C3048 C3055 1.409 . S
C3049 H3041 0.930 . S
C3049 C3047 1.419 . S
C3049 C3050 1.362 . S
C3050 H3042 0.930 . S
C3050 C3049 1.362 . S
C3050 C3053 1.409 . S
C3051 H3043 0.930 . S
C3051 C3052 1.355 . S
C3051 C3053 1.415 . S
C3052 C3051 1.355 . S
C3052 C3054 1.419 . S
C3053 C3048 1.425 . S
C3053 C3050 1.409 . S
C3053 C3051 1.415 . S
C3054 H3044 0.930 . S
C3054 C3052 1.419 . S
C3054 C3055 1.362 . S
C3055 H3045 0.930 . S
C3055 C3048 1.409 . S
C3055 C3054 1.362 . S
H3056 C3062 0.930 . S
H3057 C3065 0.930 . S
H3058 C3066 0.930 . S
H3059 C3067 0.930 . S
H3060 C3070 0.930 . S
H3061 C3071 0.930 . S
C3062 H3056 0.930 . S
C3062 C3063 1.355 . S
C3062 C3064 1.415 . S
C3063 C3062 1.355 . S
C3063 C3065 1.419 . S
C3064 C3062 1.415 . S
C3064 C3069 1.425 . S
C3064 C3071 1.409 . S
C3065 H3057 0.930 . S
C3065 C3063 1.419 . S
C3065 C3066 1.362 . S
C3066 H3058 0.930 . S
C3066 C3065 1.362 . S
C3066 C3069 1.409 . S
C3067 H3059 0.930 . S
C3067 C3068 1.355 . S
C3067 C3069 1.415 . S
C3068 C3067 1.355 . S
C3068 C3070 1.419 . S
C3069 C3064 1.425 . S
C3069 C3066 1.409 . S
C3069 C3067 1.415 . S
C3070 H3060 0.930 . S
C3070 C3068 1.419 . S
C3070 C3071 1.362 . S
C3071 H3061 0.930 . S
C3071 C3064 1.409 . S
C3071 C3070 1.362 . S
H3072 C3078 0.930 . S
H3073 C3081 0.930 . S
H3074 C3082 0.930 . S
H3075 C3083 0.930 . S
H3076 C3086 0.930 . S
H3077 C3087 0.930 . S
C3078 H3072 0.930 . S
C3078 C3079 1.355 . S
C3078 C3080 1.415 . S
C3079 C3078 1.355 . S
C3079 C3081 1.419 . S
C3080 C3078 1.415 . S
C3080 C3085 1.425 . S
C3080 C3087 1.409 . S
C3081 H3073 0.930 . S
C3081 C3079 1.419 . S
C3081 C3082 1.362 . S
C3082 H3074 0.930 . S
C3082 C3081 1.362 . S
C3082 C3085 1.409 . S
C3083 H3075 0.930 . S
C3083 C3084 1.355 . S
C3083 C3085 1.415 . S
C3084 C3083 1.355 . S
C3084 C3086 1.419 . S
C3085 C3080 1.425 . S
C3085 C3082 1.409 . S
C3085 C3083 1.415 . S
C3086 H3076 0.930 . S
C3086 C3084 1.419 . S
C3086 C3087 1.362 . S
C3087 H3077 0.930 . S
C3087 C3080 1.409 . S
C3087 C3086 1.362 . S
H3088 C3094 0.930 . S
H3089 C3097 0.930 . S
H3090 C3098 0.930 . S
H3091 C3099 0.930 . S
H3092 C3102 0.930 . S
H3093 C3103 0.930 . S
C3094 H3088 0.930 . S
C3094 C3095 1.355 . S
C3094 C3096 1.415 . S
C3095 C3094 1.355 . S
C3095 C3097 1.419 . S
C3096 C3094 1.415 . S
C3096 C3101 1.425 . S
C3096 C3103 1.409 . S
C3097 H3089 0.930 . S
C3097 C3095 1.419 . S
C3097 C3098 1.362 . S
C3098 H3090 0.930 . S
C3098 C3097 1.362 . S
C3098 C3101 1.409 . S
C3099 H3091 0.930 . S
C3099 C3100 1.355 . S
C3099 C3101 1.415 . S
C3100 C3099 1.355 . S
C3100 C3102 1.419 . S
C3101 C3096 1.425 . S
C3101 C3098 1.409 . S
C3101 C3099 1.415 . S
C3102 H3092 0.930 . S
C3102 C3100 1.419 . S
C3102 C3103 1.362 . S
C3103 H3093 0.930 . S
C3103 C3096 1.409 . S
C3103 C3102 1.362 . S
H3104 C3110 0.930 . S
H3105 C3113 0.930 . S
H3106 C3114 0.930 . S
H3107 C3115 0.930 . S
H3108 C3118 0.930 . S
H3109 C3119 0.930 . S
C3110 H3104 0.930 . S
C3110 C3111 1.355 . S
C3110 C3112 1.415 . S
C3111 C3110 1.355 . S
C3111 C3113 1.419 . S
C3112 C3110 1.415 . S
C3112 C3117 1.425 . S
C3112 C3119 1.409 . S
C3113 H3105 0.930 . S
C3113 C3111 1.419 . S
C3113 C3114 1.362 . S
C3114 H3106 0.930 . S
C3114 C3113 1.362 . S
C3114 C3117 1.409 . S
C3115 H3107 0.930 . S
C3115 C3116 1.355 . S
C3115 C3117 1.415 . S
C3116 C3115 1.355 . S
C3116 C3118 1.419 . S
C3117 C3112 1.425 . S
C3117 C3114 1.409 . S
C3117 C3115 1.415 . S
C3118 H3108 0.930 . S
C3118 C3116 1.419 . S
C3118 C3119 1.362 . S
C3119 H3109 0.930 . S
C3119 C3112 1.409 . S
C3119 C3118 1.362 . S
H3120 C3126 0.930 . S
H3121 C3129 0.930 . S
H3122 C3130 0.930 . S
H3123 C3131 0.930 . S
H3124 C3134 0.930 . S
H3125 C3135 0.930 . S
C3126 H3120 0.930 . S
C3126 C3127 1.355 . S
C3126 C3128 1.415 . S
C3127 C3126 1.355 . S
C3127 C3129 1.419 . S
C3128 C3126 1.415 . S
C3128 C3133 1.425 . S
C3128 C3135 1.409 . S
C3129 H3121 0.930 . S
C3129 C3127 1.419 . S
C3129 C3130 1.362 . S
C3130 H3122 0.930 . S
C3130 C3129 1.362 . S
C3130 C3133 1.409 . S
C3131 H3123 0.930 . S
C3131 C3132 1.355 . S
C3131 C3133 1.415 . S
C3132 C3131 1.355 . S
C3132 C3134 1.419 . S
C3133 C3128 1.425 . S
C3133 C3130 1.409 . S
C3133 C3131 1.415 . S
C3134 H3124 0.930 . S
C3134 C3132 1.419 . S
C3134 C3135 1.362 . S
C3135 H3125 0.930 . S
C3135 C3128 1.409 . S
C3135 C3134 1.362 . S
H3136 C3142 0.930 . S
H3137 C3145 0.930 . S
H3138 C3146 0.930 . S
H3139 C3147 0.930 . S
H3140 C3150 0.930 . S
H3141 C3151 0.930 . S
C3142 H3136 0.930 . S
C3142 C3143 1.355 . S
C3142 C3144 1.415 . S
C3143 C3142 1.355 . S
C3143 C3145 1.419 . S
C3144 C3142 1.415 . S
C3144 C3149 1.425 . S
C3144 C3151 1.409 . S
C3145 H3137 0.930 . S
C3145 C3143 1.419 . S
C3145 C3146 1.362 . S
C3146 H3138 0.930 . S
C3146 C3145 1.362 . S
C3146 C3149 1.409 . S
C3147 H3139 0.930 . S
C3147 C3148 1.355 . S
C3147 C3149 1.415 . S
C3148 C3147 1.355 . S
C3148 C3150 1.419 . S
C3149 C3144 1.425 . S
C3149 C3146 1.409 . S
C3149 C3147 1.415 . S
C3150 H3140 0.930 . S
C3150 C3148 1.419 . S
C3150 C3151 1.362 . S
C3151 H3141 0.930 . S
C3151 C3144 1.409 . S
C3151 C3150 1.362 . S
H3152 C3158 0.930 . S
H3153 C3161 0.930 . S
H3154 C3162 0.930 . S
H3155 C3163 0.930 . S
H3156 C3166 0.930 . S
H3157 C3167 0.930 . S
C3158 H3152 0.930 . S
C3158 C3159 1.355 . S
C3158 C3160 1.415 . S
C3159 C3158 1.355 . S
C3159 C3161 1.419 . S
C3160 C3158 1.415 . S
C3160 C3165 1.425 . S
C3160 C3167 1.409 . S
C3161 H3153 0.930 . S
C3161 C3159 1.419 . S
C3161 C3162 1.362 . S
C3162 H3154 0.930 . S
C3162 C3161 1.362 . S
C3162 C3165 1.409 . S
C3163 H3155 0.930 . S
C3163 C3164 1.355 . S
C3163 C3165 1.415 . S
C3164 C3163 1.355 . S
C3164 C3166 1.419 . S
C3165 C3160 1.425 . S
C3165 C3162 1.409 . S
C3165 C3163 1.415 . S
C3166 H3156 0.930 . S
C3166 C3164 1.419 . S
C3166 C3167 1.362 . S
C3167 H3157 0.930 . S
C3167 C3160 1.409 . S
C3167 C3166 1.362 . S
H3168 C3174 0.930 . S
H3169 C3177 0.930 . S
H3170 C3178 0.930 . S
H3171 C3179 0.930 . S
H3172 C3182 0.930 . S
H3173 C3183 0.930 . S
C3174 H3168 0.930 . S
C3174 C3175 1.355 . S
C3174 C3176 1.415 . S
C3175 C3174 1.355 . S
C3175 C3177 1.419 . S
C3176 C3174 1.415 . S
C3176 C3181 1.425 . S
C3176 C3183 1.409 . S
C3177 H3169 0.930 . S
C3177 C3175 1.419 . S
C3177 C3178 1.362 . S
C3178 H3170 0.930 . S
C3178 C3177 1.362 . S
C3178 C3181 1.409 . S
C3179 H3171 0.930 . S
C3179 C3180 1.355 . S
C3179 C3181 1.415 . S
C3180 C3179 1.355 . S
C3180 C3182 1.419 . S
C3181 C3176 1.425 . S
C3181 C3178 1.409 . S
C3181 C3179 1.415 . S
C3182 H3172 0.930 . S
C3182 C3180 1.419 . S
C3182 C3183 1.362 . S
C3183 H3173 0.930 . S
C3183 C3176 1.409 . S
C3183 C3182 1.362 . S
H3184 C3190 0.930 . S
H3185 C3193 0.930 . S
H3186 C3194 0.930 . S
H3187 C3195 0.930 . S
H3188 C3198 0.930 . S
H3189 C3199 0.930 . S
C3190 H3184 0.930 . S
C3190 C3191 1.355 . S
C3190 C3192 1.415 . S
C3191 C3190 1.355 . S
C3191 C3193 1.419 . S
C3192 C3190 1.415 . S
C3192 C3197 1.425 . S
C3192 C3199 1.409 . S
C3193 H3185 0.930 . S
C3193 C3191 1.419 . S
C3193 C3194 1.362 . S
C3194 H3186 0.930 . S
C3194 C3193 1.362 . S
C3194 C3197 1.409 . S
C3195 H3187 0.930 . S
C3195 C3196 1.355 . S
C3195 C3197 1.415 . S
C3196 C3195 1.355 . S
C3196 C3198 1.419 . S
C3197 C3192 1.425 . S
C3197 C3194 1.409 . S
C3197 C3195 1.415 . S
C3198 H3188 0.930 . S
C3198 C3196 1.419 . S
C3198 C3199 1.362 . S
C3199 H3189 0.930 . S
C3199 C3192 1.409 . S
C3199 C3198 1.362 . S
H3200 C3206 0.930 . S
H3201 C3209 0.930 . S
H3202 C3210 0.930 . S
H3203 C3211 0.930 . S
H3204 C3214 0.930 . S
H3205 C3215 0.930 . S
C3206 H3200 0.930 . S
C3206 C3207 1.355 . S
C3206 C3208 1.415 . S
C3207 C3206 1.355 . S
C3207 C3209 1.419 . S
C3208 C3206 1.415 . S
C3208 C3213 1.425 . S
C3208 C3215 1.409 . S
C3209 H3201 0.930 . S
C3209 C3207 1.419 . S
C3209 C3210 1.362 . S
C3210 H3202 0.930 . S
C3210 C3209 1.362 . S
C3210 C3213 1.409 . S
C3211 H3203 0.930 . S
C3211 C3212 1.355 . S
C3211 C3213 1.415 . S
C3212 C3211 1.355 . S
C3212 C3214 1.419 . S
C3213 C3208 1.425 . S
C3213 C3210 1.409 . S
C3213 C3211 1.415 . S
C3214 H3204 0.930 . S
C3214 C3212 1.419 . S
C3214 C3215 1.362 . S
C3215 H3205 0.930 . S
C3215 C3208 1.409 . S
C3215 C3214 1.362 . S
H3216 C3222 0.930 . S
H3217 C3225 0.930 . S
H3218 C3226 0.930 . S
H3219 C3227 0.930 . S
H3220 C3230 0.930 . S
H3221 C3231 0.930 . S
C3222 H3216 0.930 . S
C3222 C3223 1.355 . S
C3222 C3224 1.415 . S
C3223 C3222 1.355 . S
C3223 C3225 1.419 . S
C3224 C3222 1.415 . S
C3224 C3229 1.425 . S
C3224 C3231 1.409 . S
C3225 H3217 0.930 . S
C3225 C3223 1.419 . S
C3225 C3226 1.362 . S
C3226 H3218 0.930 . S
C3226 C3225 1.362 . S
C3226 C3229 1.409 . S
C3227 H3219 0.930 . S
C3227 C3228 1.355 . S
C3227 C3229 1.415 . S
C3228 C3227 1.355 . S
C3228 C3230 1.419 . S
C3229 C3224 1.425 . S
C3229 C3226 1.409 . S
C3229 C3227 1.415 . S
C3230 H3220 0.930 . S
C3230 C3228 1.419 . S
C3230 C3231 1.362 . S
C3231 H3221 0.930 . S
C3231 C3224 1.409 . S
C3231 C3230 1.362 . S
H3232 C3238 0.930 . S
H3233 C3241 0.930 . S
H3234 C3242 0.930 . S
H3235 C3243 0.930 . S
H3236 C3246 0.930 . S
H3237 C3247 0.930 . S
C3238 H3232 0.930 . S
C3238 C3239 1.355 . S
C3238 C3240 1.415 . S
C3239 C3238 1.355 . S
C3239 C3241 1.419 . S
C3240 C3238 1.415 . S
C3240 C3245 1.425 . S
C3240 C3247 1.409 . S
C3241 H3233 0.930 . S
C3241 C3239 1.419 . S
C3241 C3242 1.362 . S
C3242 H3234 0.930 . S
C3242 C3241 1.362 . S
C3242 C3245 1.409 . S
C3243 H3235 0.930 . S
C3243 C3244 1.355 . S
C3243 C3245 1.415 . S
C3244 C3243 1.355 . S
C3244 C3246 1.419 . S
C3245 C3240 1.425 . S
C3245 C3242 1.409 . S
C3245 C3243 1.415 . S
C3246 H3236 0.930 . S
C3246 C3244 1.419 . S
C3246 C3247 1.362 . S
C3247 H3237 0.930 . S
C3247 C3240 1.409 . S
C3247 C3246 1.362 . S
H3248 C3254 0.930 . S
H3249 C3257 0.930 . S
H3250 C3258 0.930 . S
H3251 C3259 0.930 . S
H3252 C3262 0.930 . S
H3253 C3263 0.930 . S
C3254 H3248 0.930 . S
C3254 C3255 1.355 . S
C3254 C3256 1.415 . S
C3255 C3254 1.355 . S
C3255 C3257 1.419 . S
C3256 C3254 1.415 . S
C3256 C3261 1.425 . S
C3256 C3263 1.409 . S
C3257 H3249 0.930 . S
C3257 C3255 1.419 . S
C3257 C3258 1.362 . S
C3258 H3250 0.930 . S
C3258 C3257 1.362 . S
C3258 C3261 1.409 . S
C3259 H3251 0.930 . S
C3259 C3260 1.355 . S
C3259 C3261 1.415 . S
C3260 C3259 1.355 . S
C3260 C3262 1.419 . S
C3261 C3256 1.425 . S
C3261 C3258 1.409 . S
C3261 C3259 1.415 . S
C3262 H3252 0.930 . S
C3262 C3260 1.419 . S
C3262 C3263 1.362 . S
C3263 H3253 0.930 . S
C3263 C3256 1.409 . S
C3263 C3262 1.362 . S
H3264 C3270 0.930 . S
H3265 C3273 0.930 . S
H3266 C3274 0.930 . S
H3267 C3275 0.930 . S
H3268 C3278 0.930 . S
H3269 C3279 0.930 . S
C3270 H3264 0.930 . S
C3270 C3271 1.355 . S
C3270 C3272 1.415 . S
C3271 C3270 1.355 . S
C3271 C3273 1.419 . S
C3272 C3270 1.415 . S
C3272 C3277 1.425 . S
C3272 C3279 1.409 . S
C3273 H3265 0.930 . S
C3273 C3271 1.419 . S
C3273 C3274 1.362 . S
C3274 H3266 0.930 . S
C3274 C3273 1.362 . S
C3274 C3277 1.409 . S
C3275 H3267 0.930 . S
C3275 C3276 1.355 . S
C3275 C3277 1.415 . S
C3276 C3275 1.355 . S
C3276 C3278 1.419 . S
C3277 C3272 1.425 . S
C3277 C3274 1.409 . S
C3277 C3275 1.415 . S
C3278 H3268 0.930 . S
C3278 C3276 1.419 . S
C3278 C3279 1.362 . S
C3279 H3269 0.930 . S
C3279 C3272 1.409 . S
C3279 C3278 1.362 . S
H3280 C3286 0.930 . S
H3281 C3289 0.930 . S
H3282 C3290 0.930 . S
H3283 C3291 0.930 . S
H3284 C3294 0.930 . S
H3285 C3295 0.930 . S
C3286 H3280 0.930 . S
C3286 C3287 1.355 . S
C3286 C3288 1.415 . S
C3287 C3286 1.355 . S
C3287 C3289 1.419 . S
C3288 C3286 1.415 . S
C3288 C3293 1.425 . S
C3288 C3295 1.409 . S
C3289 H3281 0.930 . S
C3289 C3287 1.419 . S
C3289 C3290 1.362 . S
C3290 H3282 0.930 . S
C3290 C3289 1.362 . S
C3290 C3293 1.409 . S
C3291 H3283 0.930 . S
C3291 C3292 1.355 . S
C3291 C3293 1.415 . S
C3292 C3291 1.355 . S
C3292 C3294 1.419 . S
C3293 C3288 1.425 . S
C3293 C3290 1.409 . S
C3293 C3291 1.415 . S
C3294 H3284 0.930 . S
C3294 C3292 1.419 . S
C3294 C3295 1.362 . S
C3295 H3285 0.930 . S
C3295 C3288 1.409 . S
C3295 C3294 1.362 . S
H3296 C3302 0.930 . S
H3297 C3305 0.930 . S
H3298 C3306 0.930 . S
H3299 C3307 0.930 . S
H3300 C3310 0.930 . S
H3301 C3311 0.930 . S
C3302 H3296 0.930 . S
C3302 C3303 1.355 . S
C3302 C3304 1.415 . S
C3303 C3302 1.355 . S
C3303 C3305 1.419 . S
C3304 C3302 1.415 . S
C3304 C3309 1.425 . S
C3304 C3311 1.409 . S
C3305 H3297 0.930 . S
C3305 C3303 1.419 . S
C3305 C3306 1.362 . S
C3306 H3298 0.930 . S
C3306 C3305 1.362 . S
C3306 C3309 1.409 . S
C3307 H3299 0.930 . S
C3307 C3308 1.355 . S
C3307 C3309 1.415 . S
C3308 C3307 1.355 . S
C3308 C3310 1.419 . S
C3309 C3304 1.425 . S
C3309 C3306 1.409 . S
C3309 C3307 1.415 . S
C3310 H3300 0.930 . S
C3310 C3308 1.419 . S
C3310 C3311 1.362 . S
C3311 H3301 0.930 . S
C3311 C3304 1.409 . S
C3311 C3310 1.362 . S
H3312 C3318 0.930 . S
H3313 C3321 0.930 . S
H3314 C3322 0.930 . S
H3315 C3323 0.930 . S
H3316 C3326 0.930 . S
H3317 C3327 0.930 . S
C3318 H3312 0.930 . S
C3318 C3319 1.355 . S
C3318 C3320 1.415 . S
C3319 C3318 1.355 . S
C3319 C3321 1.419 . S
C3320 C3318 1.415 . S
C3320 C3325 1.425 . S
C3320 C3327 1.409 . S
C3321 H3313 0.930 . S
C3321 C3319 1.419 . S
C3321 C3322 1.362 . S
C3322 H3314 0.930 . S
C3322 C3321 1.362 . S
C3322 C3325 1.409 . S
C3323 H3315 0.930 . S
C3323 C3324 1.355 . S
C3323 C3325 1.415 . S
C3324 C3323 1.355 . S
C3324 C3326 1.419 . S
C3325 C3320 1.425 . S
C3325 C3322 1.409 . S
C3325 C3323 1.415 . S
C3326 H3316 0.930 . S
C3326 C3324 1.419 . S
C3326 C3327 1.362 . S
C3327 H3317 0.930 . S
C3327 C3320 1.409 . S
C3327 C3326 1.362 . S
H3328 C3334 0.930 . S
H3329 C3337 0.930 . S
H3330 C3338 0.930 . S
H3331 C3339 0.930 . S
H3332 C3342 0.930 . S
H3333 C3343 0.930 . S
C3334 H3328 0.930 . S
C3334 C3335 1.355 . S
C3334 C3336 1.415 . S
C3335 C3334 1.355 . S
C3335 C3337 1.419 . S
C3336 C3334 1.415 . S
C3336 C3341 1.425 . S
C3336 C3343 1.409 . S
C3337 H3329 0.930 . S
C3337 C3335 1.419 . S
C3337 C3338 1.362 . S
C3338 H3330 0.930 . S
C3338 C3337 1.362 . S
C3338 C3341 1.409 . S
C3339 H3331 0.930 . S
C3339 C3340 1.355 . S
C3339 C3341 1.415 . S
C3340 C3339 1.355 . S
C3340 C3342 1.419 . S
C3341 C3336 1.425 . S
C3341 C3338 1.409 . S
C3341 C3339 1.415 . S
C3342 H3332 0.930 . S
C3342 C3340 1.419 . S
C3342 C3343 1.362 . S
C3343 H3333 0.930 . S
C3343 C3336 1.409 . S
C3343 C3342 1.362 . S
H3344 C3350 0.930 . S
H3345 C3353 0.930 . S
H3346 C3354 0.930 . S
H3347 C3355 0.930 . S
H3348 C3358 0.930 . S
H3349 C3359 0.930 . S
C3350 H3344 0.930 . S
C3350 C3351 1.355 . S
C3350 C3352 1.415 . S
C3351 C3350 1.355 . S
C3351 C3353 1.419 . S
C3352 C3350 1.415 . S
C3352 C3357 1.425 . S
C3352 C3359 1.409 . S
C3353 H3345 0.930 . S
C3353 C3351 1.419 . S
C3353 C3354 1.362 . S
C3354 H3346 0.930 . S
C3354 C3353 1.362 . S
C3354 C3357 1.409 . S
C3355 H3347 0.930 . S
C3355 C3356 1.355 . S
C3355 C3357 1.415 . S
C3356 C3355 1.355 . S
C3356 C3358 1.419 . S
C3357 C3352 1.425 . S
C3357 C3354 1.409 . S
C3357 C3355 1.415 . S
C3358 H3348 0.930 . S
C3358 C3356 1.419 . S
C3358 C3359 1.362 . S
C3359 H3349 0.930 . S
C3359 C3352 1.409 . S
C3359 C3358 1.362 . S
H3360 C3366 0.930 . S
H3361 C3369 0.930 . S
H3362 C3370 0.930 . S
H3363 C3371 0.930 . S
H3364 C3374 0.930 . S
H3365 C3375 0.930 . S
C3366 H3360 0.930 . S
C3366 C3367 1.355 . S
C3366 C3368 1.415 . S
C3367 C3366 1.355 . S
C3367 C3369 1.419 . S
C3368 C3366 1.415 . S
C3368 C3373 1.425 . S
C3368 C3375 1.409 . S
C3369 H3361 0.930 . S
C3369 C3367 1.419 . S
C3369 C3370 1.362 . S
C3370 H3362 0.930 . S
C3370 C3369 1.362 . S
C3370 C3373 1.409 . S
C3371 H3363 0.930 . S
C3371 C3372 1.355 . S
C3371 C3373 1.415 . S
C3372 C3371 1.355 . S
C3372 C3374 1.419 . S
C3373 C3368 1.425 . S
C3373 C3370 1.409 . S
C3373 C3371 1.415 . S
C3374 H3364 0.930 . S
C3374 C3372 1.419 . S
C3374 C3375 1.362 . S
C3375 H3365 0.930 . S
C3375 C3368 1.409 . S
C3375 C3374 1.362 . S
H3376 C3382 0.930 . S
H3377 C3385 0.930 . S
H3378 C3386 0.930 . S
H3379 C3387 0.930 . S
H3380 C3390 0.930 . S
H3381 C3391 0.930 . S
C3382 H3376 0.930 . S
C3382 C3383 1.355 . S
C3382 C3384 1.415 . S
C3383 C3382 1.355 . S
C3383 C3385 1.419 . S
C3384 C3382 1.415 . S
C3384 C3389 1.425 . S
C3384 C3391 1.409 . S
C3385 H3377 0.930 . S
C3385 C3383 1.419 . S
C3385 C3386 1.362 . S
C3386 H3378 0.930 . S
C3386 C3385 1.362 . S
C3386 C3389 1.409 . S
C3387 H3379 0.930 . S
C3387 C3388 1.355 . S
C3387 C3389 1.415 . S
C3388 C3387 1.355 . S
C3388 C3390 1.419 . S
C3389 C3384 1.425 . S
C3389 C3386 1.409 . S
C3389 C3387 1.415 . S
C3390 H3380 0.930 . S
C3390 C3388 1.419 . S
C3390 C3391 1.362 . S
C3391 H3381 0.930 . S
C3391 C3384 1.409 . S
C3391 C3390 1.362 . S
H3392 C3398 0.930 . S
H3393 C3401 0.930 . S
H3394 C3402 0.930 . S
H3395 C3403 0.930 . S
H3396 C3406 0.930 . S
H3397 C3407 0.930 . S
C3398 H3392 0.930 . S
C3398 C3399 1.355 . S
C3398 C3400 1.415 . S
C3399 C3398 1.355 . S
C3399 C3401 1.419 . S
C3400 C3398 1.415 . S
C3400 C3405 1.425 . S
C3400 C3407 1.409 . S
C3401 H3393 0.930 . S
C3401 C3399 1.419 . S
C3401 C3402 1.362 . S
C3402 H3394 0.930 . S
C3402 C3401 1.362 . S
C3402 C3405 1.409 . S
C3403 H3395 0.930 . S
C3403 C3404 1.355 . S
C3403 C3405 1.415 . S
C3404 C3403 1.355 . S
C3404 C3406 1.419 . S
C3405 C3400 1.425 . S
C3405 C3402 1.409 . S
C3405 C3403 1.415 . S
C3406 H3396 0.930 . S
C3406 C3404 1.419 . S
C3406 C3407 1.362 . S
C3407 H3397 0.930 . S
C3407 C3400 1.409 . S
C3407 C3406 1.362 . S
H3408 C3414 0.930 . S
H3409 C3417 0.930 . S
H3410 C3418 0.930 . S
H3411 C3419 0.930 . S
H3412 C3422 0.930 . S
H3413 C3423 0.930 . S
C3414 H3408 0.930 . S
C3414 C3415 1.355 . S
C3414 C3416 1.415 . S
C3415 C3414 1.355 . S
C3415 C3417 1.419 . S
C3416 C3414 1.415 . S
C3416 C3421 1.425 . S
C3416 C3423 1.409 . S
C3417 H3409 0.930 . S
C3417 C3415 1.419 . S
C3417 C3418 1.362 . S
C3418 H3410 0.930 . S
C3418 C3417 1.362 . S
C3418 C3421 1.409 . S
C3419 H3411 0.930 . S
C3419 C3420 1.355 . S
C3419 C3421 1.415 . S
C3420 C3419 1.355 . S
C3420 C3422 1.419 . S
C3421 C3416 1.425 . S
C3421 C3418 1.409 . S
C3421 C3419 1.415 . S
C3422 H3412 0.930 . S
C3422 C3420 1.419 . S
C3422 C3423 1.362 . S
C3423 H3413 0.930 . S
C3423 C3416 1.409 . S
C3423 C3422 1.362 . S
H3424 C3430 0.930 . S
H3425 C3433 0.930 . S
H3426 C3434 0.930 . S
H3427 C3435 0.930 . S
H3428 C3438 0.930 . S
H3429 C3439 0.930 . S
C3430 H3424 0.930 . S
C3430 C3431 1.355 . S
C3430 C3432 1.415 . S
C3431 C3430 1.355 . S
C3431 C3433 1.419 . S
C3432 C3430 1.415 . S
C3432 C3437 1.425 . S
C3432 C3439 1.409 . S
C3433 H3425 0.930 . S
C3433 C3431 1.419 . S
C3433 C3434 1.362 . S
C3434 H3426 0.930 . S
C3434 C3433 1.362 . S
C3434 C3437 1.409 . S
C3435 H3427 0.930 . S
C3435 C3436 1.355 . S
C3435 C3437 1.415 . S
C3436 C3435 1.355 . S
C3436 C3438 1.419 . S
C3437 C3432 1.425 . S
C3437 C3434 1.409 . S
C3437 C3435 1.415 . S
C3438 H3428 0.930 . S
C3438 C3436 1.419 . S
C3438 C3439 1.362 . S
C3439 H3429 0.930 . S
C3439 C3432 1.409 . S
C3439 C3438 1.362 . S
H3440 C3446 0.930 . S
H3441 C3449 0.930 . S
H3442 C3450 0.930 . S
H3443 C3451 0.930 . S
H3444 C3454 0.930 . S
H3445 C3455 0.930 . S
C3446 H3440 0.930 . S
C3446 C3447 1.355 . S
C3446 C3448 1.415 . S
C3447 C3446 1.355 . S
C3447 C3449 1.419 . S
C3448 C3446 1.415 . S
C3448 C3453 1.425 . S
C3448 C3455 1.409 . S
C3449 H3441 0.930 . S
C3449 C3447 1.419 . S
C3449 C3450 1.362 . S
C3450 H3442 0.930 . S
C3450 C3449 1.362 . S
C3450 C3453 1.409 . S
C3451 H3443 0.930 . S
C3451 C3452 1.355 . S
C3451 C3453 1.415 . S
C3452 C3451 1.355 . S
C3452 C3454 1.419 . S
C3453 C3448 1.425 . S
C3453 C3450 1.409 . S
C3453 C3451 1.415 . S
C3454 H3444 0.930 . S
C3454 C3452 1.419 . S
C3454 C3455 1.362 . S
C3455 H3445 0.930 . S
C3455 C3448 1.409 . S
C3455 C3454 1.362 . S
H3456 C3462 0.930 . S
H3457 C3465 0.930 . S
H3458 C3466 0.930 . S
H3459 C3467 0.930 . S
H3460 C3470 0.930 . S
H3461 C3471 0.930 . S
C3462 H3456 0.930 . S
C3462 C3463 1.355 . S
C3462 C3464 1.415 . S
C3463 C3462 1.355 . S
C3463 C3465 1.419 . S
C3464 C3462 1.415 . S
C3464 C3469 1.425 . S
C3464 C3471 1.409 . S
C3465 H3457 0.930 . S
C3465 C3463 1.419 . S
C3465 C3466 1.362 . S
C3466 H3458 0.930 . S
C3466 C3465 1.362 . S
C3466 C3469 1.409 . S
C3467 H3459 0.930 . S
C3467 C3468 1.355 . S
C3467 C3469 1.415 . S
C3468 C3467 1.355 . S
C3468 C3470 1.419 . S
C3469 C3464 1.425 . S
C3469 C3466 1.409 . S
C3469 C3467 1.415 . S
C3470 H3460 0.930 . S
C3470 C3468 1.419 . S
C3470 C3471 1.362 . S
C3471 H3461 0.930 . S
C3471 C3464 1.409 . S
C3471 C3470 1.362 . S
H3472 C3478 0.930 . S
H3473 C3481 0.930 . S
H3474 C3482 0.930 . S
H3475 C3483 0.930 . S
H3476 C3486 0.930 . S
H3477 C3487 0.930 . S
C3478 H3472 0.930 . S
C3478 C3479 1.355 . S
C3478 C3480 1.415 . S
C3479 C3478 1.355 . S
C3479 C3481 1.419 . S
C3480 C3478 1.415 . S
C3480 C3485 1.425 . S
C3480 C3487 1.409 . S
C3481 H3473 0.930 . S
C3481 C3479 1.419 . S
C3481 C3482 1.362 . S
C3482 H3474 0.930 . S
C3482 C3481 1.362 . S
C3482 C3485 1.409 . S
C3483 H3475 0.930 . S
C3483 C3484 1.355 . S
C3483 C3485 1.415 . S
C3484 C3483 1.355 . S
C3484 C3486 1.419 . S
C3485 C3480 1.425 . S
C3485 C3482 1.409 . S
C3485 C3483 1.415 . S
C3486 H3476 0.930 . S
C3486 C3484 1.419 . S
C3486 C3487 1.362 . S
C3487 H3477 0.930 . S
C3487 C3480 1.409 . S
C3487 C3486 1.362 . S
H3488 C3494 0.930 . S
H3489 C3497 0.930 . S
H3490 C3498 0.930 . S
H3491 C3499 0.930 . S
H3492 C3502 0.930 . S
H3493 C3503 0.930 . S
C3494 H3488 0.930 . S
C3494 C3495 1.355 . S
C3494 C3496 1.415 . S
C3495 C3494 1.355 . S
C3495 C3497 1.419 . S
C3496 C3494 1.415 . S
C3496 C3501 1.425 . S
C3496 C3503 1.409 . S
C3497 H3489 0.930 . S
C3497 C3495 1.419 . S
C3497 C3498 1.362 . S
C3498 H3490 0.930 . S
C3498 C3497 1.362 . S
C3498 C3501 1.409 . S
C3499 H3491 0.930 . S
C3499 C3500 1.355 . S
C3499 C3501 1.415 . S
C3500 C3499 1.355 . S
C3500 C3502 1.419 . S
C3501 C3496 1.425 . S
C3501 C3498 1.409 . S
C3501 C3499 1.415 . S
C3502 H3492 0.930 . S
C3502 C3500 1.419 . S
C3502 C3503 1.362 . S
C3503 H3493 0.930 . S
C3503 C3496 1.409 . S
C3503 C3502 1.362 . S
H3504 C3510 0.930 . S
H3505 C3513 0.930 . S
H3506 C3514 0.930 . S
H3507 C3515 0.930 . S
H3508 C3518 0.930 . S
H3509 C3519 0.930 . S
C3510 H3504 0.930 . S
C3510 C3511 1.355 . S
C3510 C3512 1.415 . S
C3511 C3510 1.355 . S
C3511 C3513 1.419 . S
C3512 C3510 1.415 . S
C3512 C3517 1.425 . S
C3512 C3519 1.409 . S
C3513 H3505 0.930 . S
C3513 C3511 1.419 . S
C3513 C3514 1.362 . S
C3514 H3506 0.930 . S
C3514 C3513 1.362 . S
C3514 C3517 1.409 . S
C3515 H3507 0.930 . S
C3515 C3516 1.355 . S
C3515 C3517 1.415 . S
C3516 C3515 1.355 . S
C3516 C3518 1.419 . S
C3517 C3512 1.425 . S
C3517 C3514 1.409 . S
C3517 C3515 1.415 . S
C3518 H3508 0.930 . S
C3518 C3516 1.419 . S
C3518 C3519 1.362 . S
C3519 H3509 0.930 . S
C3519 C3512 1.409 . S
C3519 C3518 1.362 . S
H3520 C3526 0.930 . S
H3521 C3529 0.930 . S
H3522 C3530 0.930 . S
H3523 C3531 0.930 . S
H3524 C3534 0.930 . S
H3525 C3535 0.930 . S
C3526 H3520 0.930 . S
C3526 C3527 1.355 . S
C3526 C3528 1.415 . S
C3527 C3526 1.355 . S
C3527 C3529 1.419 . S
C3528 C3526 1.415 . S
C3528 C3533 1.425 . S
C3528 C3535 1.409 . S
C3529 H3521 0.930 . S
C3529 C3527 1.419 . S
C3529 C3530 1.362 . S
C3530 H3522 0.930 . S
C3530 C3529 1.362 . S
C3530 C3533 1.409 . S
C3531 H3523 0.930 . S
C3531 C3532 1.355 . S
C3531 C3533 1.415 . S
C3532 C3531 1.355 . S
C3532 C3534 1.419 . S
C3533 C3528 1.425 . S
C3533 C3530 1.409 . S
C3533 C3531 1.415 . S
C3534 H3524 0.930 . S
C3534 C3532 1.419 . S
C3534 C3535 1.362 . S
C3535 H3525 0.930 . S
C3535 C3528 1.409 . S
C3535 C3534 1.362 . S
H3536 C3542 0.930 . S
H3537 C3545 0.930 . S
H3538 C3546 0.930 . S
H3539 C3547 0.930 . S
H3540 C3550 0.930 . S
H3541 C3551 0.930 . S
C3542 H3536 0.930 . S
C3542 C3543 1.355 . S
C3542 C3544 1.415 . S
C3543 C3542 1.355 . S
C3543 C3545 1.419 . S
C3544 C3542 1.415 . S
C3544 C3549 1.425 . S
C3544 C3551 1.409 . S
C3545 H3537 0.930 . S
C3545 C3543 1.419 . S
C3545 C3546 1.362 . S
C3546 H3538 0.930 . S
C3546 C3545 1.362 . S
C3546 C3549 1.409 . S
C3547 H3539 0.930 . S
C3547 C3548 1.355 . S
C3547 C3549 1.415 . S
C3548 C3547 1.355 . S
C3548 C3550 1.419 . S
C3549 C3544 1.425 . S
C3549 C3546 1.409 . S
C3549 C3547 1.415 . S
C3550 H3540 0.930 . S
C3550 C3548 1.419 . S
C3550 C3551 1.362 . S
C3551 H3541 0.930 . S
C3551 C3544 1.409 . S
C3551 C3550 1.362 . S
H3552 C3558 0.930 . S
H3553 C3561 0.930 . S
H3554 C3562 0.930 . S
H3555 C3563 0.930 . S
H3556 C3566 0.930 . S
H3557 C3567 0.930 . S
C3558 H3552 0.930 . S
C3558 C3559 1.355 . S
C3558 C3560 1.415 . S
C3559 C3558 1.355 . S
C3559 C3561 1.419 . S
C3560 C3558 1.415 . S
C3560 C3565 1.425 . S
C3560 C3567 1.409 . S
C3561 H3553 0.930 . S
C3561 C3559 1.419 . S
C3561 C3562 1.362 . S
C3562 H3554 0.930 . S
C3562 C3561 1.362 . S
C3562 C3565 1.409 . S
C3563 H3555 0.930 . S
C3563 C3564 1.355 . S
C3563 C3565 1.415 . S
C3564 C3563 1.355 . S
C3564 C3566 1.419 . S
C3565 C3560 1.425 . S
C3565 C3562 1.409 . S
C3565 C3563 1.415 . S
C3566 H3556 0.930 . S
C3566 C3564 1.419 . S
C3566 C3567 1.362 . S
C3567 H3557 0.930 . S
C3567 C3560 1.409 . S
C3567 C3566 1.362 . S
H3568 C3574 0.930 . S
H3569 C3577 0.930 . S
H3570 C3578 0.930 . S
H3571 C3579 0.930 . S
H3572 C3582 0.930 . S
H3573 C3583 0.930 . S
C3574 H3568 0.930 . S
C3574 C3575 1.355 . S
C3574 C3576 1.415 . S
C3575 C3574 1.355 . S
C3575 C3577 1.419 . S
C3576 C3574 1.415 . S
C3576 C3581 1.425 . S
C3576 C3583 1.409 . S
C3577 H3569 0.930 . S
C3577 C3575 1.419 . S
C3577 C3578 1.362 . S
C3578 H3570 0.930 . S
C3578 C3577 1.362 . S
C3578 C3581 1.409 . S
C3579 H3571 0.930 . S
C3579 C3580 1.355 . S
C3579 C3581 1.415 . S
C3580 C3579 1.355 . S
C3580 C3582 1.419 . S
C3581 C3576 1.425 . S
C3581 C3578 1.409 . S
C3581 C3579 1.415 . S
C3582 H3572 0.930 . S
C3582 C3580 1.419 . S
C3582 C3583 1.362 . S
C3583 H3573 0.930 . S
C3583 C3576 1.409 . S
C3583 C3582 1.362 . S
H3584 C3590 0.930 . S
H3585 C3593 0.930 . S
H3586 C3594 0.930 . S
H3587 C3595 0.930 . S
H3588 C3598 0.930 . S
H3589 C3599 0.930 . S
C3590 H3584 0.930 . S
C3590 C3591 1.355 . S
C3590 C3592 1.415 . S
C3591 C3590 1.355 . S
C3591 C3593 1.419 . S
C3592 C3590 1.415 . S
C3592 C3597 1.425 . S
C3592 C3599 1.409 . S
C3593 H3585 0.930 . S
C3593 C3591 1.419 . S
C3593 C3594 1.362 . S
C3594 H3586 0.930 . S
C3594 C3593 1.362 . S
C3594 C3597 1.409 . S
C3595 H3587 0.930 . S
C3595 C3596 1.355 . S
C3595 C3597 1.415 . S
C3596 C3595 1.355 . S
C3596 C3598 1.419 . S
C3597 C3592 1.425 . S
C3597 C3594 1.409 . S
C3597 C3595 1.415 . S
C3598 H3588 0.930 . S
C3598 C3596 1.419 . S
C3598 C3599 1.362 . S
C3599 H3589 0.930 . S
C3599 C3592 1.409 . S
C3599 C3598 1.362 . S
H3600 C3606 0.930 . S
H3601 C3609 0.930 . S
H3602 C3610 0.930 . S
H3603 C3611 0.930 . S
H3604 C3614 0.930 . S
H3605 C3615 0.930 . S
C3606 H3600 0.930 . S
C3606 C3607 1.355 . S
C3606 C3608 1.415 . S
C3607 C3606 1.355 . S
C3607 C3609 1.419 . S
C3608 C3606 1.415 . S
C3608 C3613 1.425 . S
C3608 C3615 1.409 . S
C3609 H3601 0.930 . S
C3609 C3607 1.419 . S
C3609 C3610 1.362 . S
C3610 H3602 0.930 . S
C3610 C3609 1.362 . S
C3610 C3613 1.409 . S
C3611 H3603 0.930 . S
C3611 C3612 1.355 . S
C3611 C3613 1.415 . S
C3612 C3611 1.355 . S
C3612 C3614 1.419 . S
C3613 C3608 1.425 . S
C3613 C3610 1.409 . S
C3613 C3611 1.415 . S
C3614 H3604 0.930 . S
C3614 C3612 1.419 . S
C3614 C3615 1.362 . S
C3615 H3605 0.930 . S
C3615 C3608 1.409 . S
C3615 C3614 1.362 . S
H3616 C3622 0.930 . S
H3617 C3625 0.930 . S
H3618 C3626 0.930 . S
H3619 C3627 0.930 . S
H3620 C3630 0.930 . S
H3621 C3631 0.930 . S
C3622 H3616 0.930 . S
C3622 C3623 1.355 . S
C3622 C3624 1.415 . S
C3623 C3622 1.355 . S
C3623 C3625 1.419 . S
C3624 C3622 1.415 . S
C3624 C3629 1.425 . S
C3624 C3631 1.409 . S
C3625 H3617 0.930 . S
C3625 C3623 1.419 . S
C3625 C3626 1.362 . S
C3626 H3618 0.930 . S
C3626 C3625 1.362 . S
C3626 C3629 1.409 . S
C3627 H3619 0.930 . S
C3627 C3628 1.355 . S
C3627 C3629 1.415 . S
C3628 C3627 1.355 . S
C3628 C3630 1.419 . S
C3629 C3624 1.425 . S
C3629 C3626 1.409 . S
C3629 C3627 1.415 . S
C3630 H3620 0.930 . S
C3630 C3628 1.419 . S
C3630 C3631 1.362 . S
C3631 H3621 0.930 . S
C3631 C3624 1.409 . S
C3631 C3630 1.362 . S
H3632 C3638 0.930 . S
H3633 C3641 0.930 . S
H3634 C3642 0.930 . S
H3635 C3643 0.930 . S
H3636 C3646 0.930 . S
H3637 C3647 0.930 . S
C3638 H3632 0.930 . S
C3638 C3639 1.355 . S
C3638 C3640 1.415 . S
C3639 C3638 1.355 . S
C3639 C3641 1.419 . S
C3640 C3638 1.415 . S
C3640 C3645 1.425 . S
C3640 C3647 1.409 . S
C3641 H3633 0.930 . S
C3641 C3639 1.419 . S
C3641 C3642 1.362 . S
C3642 H3634 0.930 . S
C3642 C3641 1.362 . S
C3642 C3645 1.409 . S
C3643 H3635 0.930 . S
C3643 C3644 1.355 . S
C3643 C3645 1.415 . S
C3644 C3643 1.355 . S
C3644 C3646 1.419 . S
C3645 C3640 1.425 . S
C3645 C3642 1.409 . S
C3645 C3643 1.415 . S
C3646 H3636 0.930 . S
C3646 C3644 1.419 . S
C3646 C3647 1.362 . S
C3647 H3637 0.930 . S
C3647 C3640 1.409 . S
C3647 C3646 1.362 . S
H3648 C3654 0.930 . S
H3649 C3657 0.930 . S
H3650 C3658 0.930 . S
H3651 C3659 0.930 . S
H3652 C3662 0.930 . S
H3653 C3663 0.930 . S
C3654 H3648 0.930 . S
C3654 C3655 1.355 . S
C3654 C3656 1.415 . S
C3655 C3654 1.355 . S
C3655 C3657 1.419 . S
C3656 C3654 1.415 . S
C3656 C3661 1.425 . S
C3656 C3663 1.409 . S
C3657 H3649 0.930 . S
C3657 C3655 1.419 . S
C3657 C3658 1.362 . S
C3658 H3650 0.930 . S
C3658 C3657 1.362 . S
C3658 C3661 1.409 . S
C3659 H3651 0.930 . S
C3659 C3660 1.355 . S
C3659 C3661 1.415 . S
C3660 C3659 1.355 . S
C3660 C3662 1.419 . S
C3661 C3656 1.425 . S
C3661 C3658 1.409 . S
C3661 C3659 1.415 . S
C3662 H3652 0.930 . S
C3662 C3660 1.419 . S
C3662 C3663 1.362 . S
C3663 H3653 0.930 . S
C3663 C3656 1.409 . S
C3663 C3662 1.362 . S
H3664 C3670 0.930 . S
H3665 C3673 0.930 . S
H3666 C3674 0.930 . S
H3667 C3675 0.930 . S
H3668 C3678 0.930 . S
H3669 C3679 0.930 . S
C3670 H3664 0.930 . S
C3670 C3671 1.355 . S
C3670 C3672 1.415 . S
C3671 C3670 1.355 . S
C3671 C3673 1.419 . S
C3672 C3670 1.415 . S
C3672 C3677 1.425 . S
C3672 C3679 1.409 . S
C3673 H3665 0.930 . S
C3673 C3671 1.419 . S
C3673 C3674 1.362 . S
C3674 H3666 0.930 . S
C3674 C3673 1.362 . S
C3674 C3677 1.409 . S
C3675 H3667 0.930 . S
C3675 C3676 1.355 . S
C3675 C3677 1.415 . S
C3676 C3675 1.355 . S
C3676 C3678 1.419 . S
C3677 C3672 1.425 . S
C3677 C3674 1.409 . S
C3677 C3675 1.415 . S
C3678 H3668 0.930 . S
C3678 C3676 1.419 . S
C3678 C3679 1.362 . S
C3679 H3669 0.930 . S
C3679 C3672 1.409 . S
C3679 C3678 1.362 . S
H3680 C3686 0.930 . S
H3681 C3689 0.930 . S
H3682 C3690 0.930 . S
H3683 C3691 0.930 . S
H3684 C3694 0.930 . S
H3685 C3695 0.930 . S
C3686 H3680 0.930 . S
C3686 C3687 1.355 . S
C3686 C3688 1.415 . S
C3687 C3686 1.355 . S
C3687 C3689 1.419 . S
C3688 C3686 1.415 . S
C3688 C3693 1.425 . S
C3688 C3695 1.409 . S
C3689 H3681 0.930 . S
C3689 C3687 1.419 . S
C3689 C3690 1.362 . S
C3690 H3682 0.930 . S
C3690 C3689 1.362 . S
C3690 C3693 1.409 . S
C3691 H3683 0.930 . S
C3691 C3692 1.355 . S
C3691 C3693 1.415 . S
C3692 C3691 1.355 . S
C3692 C3694 1.419 . S
C3693 C3688 1.425 . S
C3693 C3690 1.409 . S
C3693 C3691 1.415 . S
C3694 H3684 0.930 . S
C3694 C3692 1.419 . S
C3694 C3695 1.362 . S
C3695 H3685 0.930 . S
C3695 C3688 1.409 . S
C3695 C3694 1.362 . S
H3696 C3702 0.930 . S
H3697 C3705 0.930 . S
H3698 C3706 0.930 . S
H3699 C3707 0.930 . S
H3700 C3710 0.930 . S
H3701 C3711 0.930 . S
C3702 H3696 0.930 . S
C3702 C3703 1.355 . S
C3702 C3704 1.415 . S
C3703 C3702 1.355 . S
C3703 C3705 1.419 . S
C3704 C3702 1.415 . S
C3704 C3709 1.425 . S
C3704 C3711 1.409 . S
C3705 H3697 0.930 . S
C3705 C3703 1.419 . S
C3705 C3706 1.362 . S
C3706 H3698 0.930 . S
C3706 C3705 1.362 . S
C3706 C3709 1.409 . S
C3707 H3699 0.930 . S
C3707 C3708 1.355 . S
C3707 C3709 1.415 . S
C3708 C3707 1.355 . S
C3708 C3710 1.419 . S
C3709 C3704 1.425 . S
C3709 C3706 1.409 . S
C3709 C3707 1.415 . S
C3710 H3700 0.930 . S
C3710 C3708 1.419 . S
C3710 C3711 1.362 . S
C3711 H3701 0.930 . S
C3711 C3704 1.409 . S
C3711 C3710 1.362 . S
H3712 C3718 0.930 . S
H3713 C3721 0.930 . S
H3714 C3722 0.930 . S
H3715 C3723 0.930 . S
H3716 C3726 0.930 . S
H3717 C3727 0.930 . S
C3718 H3712 0.930 . S
C3718 C3719 1.355 . S
C3718 C3720 1.415 . S
C3719 C3718 1.355 . S
C3719 C3721 1.419 . S
C3720 C3718 1.415 . S
C3720 C3725 1.425 . S
C3720 C3727 1.409 . S
C3721 H3713 0.930 . S
C3721 C3719 1.419 . S
C3721 C3722 1.362 . S
C3722 H3714 0.930 . S
C3722 C3721 1.362 . S
C3722 C3725 1.409 . S
C3723 H3715 0.930 . S
C3723 C3724 1.355 . S
C3723 C3725 1.415 . S
C3724 C3723 1.355 . S
C3724 C3726 1.419 . S
C3725 C3720 1.425 . S
C3725 C3722 1.409 . S
C3725 C3723 1.415 . S
C3726 H3716 0.930 . S
C3726 C3724 1.419 . S
C3726 C3727 1.362 . S
C3727 H3717 0.930 . S
C3727 C3720 1.409 . S
C3727 C3726 1.362 . S
H3728 C3734 0.930 . S
H3729 C3737 0.930 . S
H3730 C3738 0.930 . S
H3731 C3739 0.930 . S
H3732 C3742 0.930 . S
H3733 C3743 0.930 . S
C3734 H3728 0.930 . S
C3734 C3735 1.355 . S
C3734 C3736 1.415 . S
C3735 C3734 1.355 . S
C3735 C3737 1.419 . S
C3736 C3734 1.415 . S
C3736 C3741 1.425 . S
C3736 C3743 1.409 . S
C3737 H3729 0.930 . S
C3737 C3735 1.419 . S
C3737 C3738 1.362 . S
C3738 H3730 0.930 . S
C3738 C3737 1.362 . S
C3738 C3741 1.409 . S
C3739 H3731 0.930 . S
C3739 C3740 1.355 . S
C3739 C3741 1.415 . S
C3740 C3739 1.355 . S
C3740 C3742 1.419 . S
C3741 C3736 1.425 . S
C3741 C3738 1.409 . S
C3741 C3739 1.415 . S
C3742 H3732 0.930 . S
C3742 C3740 1.419 . S
C3742 C3743 1.362 . S
C3743 H3733 0.930 . S
C3743 C3736 1.409 . S
C3743 C3742 1.362 . S
H3744 C3750 0.930 . S
H3745 C3753 0.930 . S
H3746 C3754 0.930 . S
H3747 C3755 0.930 . S
H3748 C3758 0.930 . S
H3749 C3759 0.930 . S
C3750 H3744 0.930 . S
C3750 C3751 1.355 . S
C3750 C3752 1.415 . S
C3751 C3750 1.355 . S
C3751 C3753 1.419 . S
C3752 C3750 1.415 . S
C3752 C3757 1.425 . S
C3752 C3759 1.409 . S
C3753 H3745 0.930 . S
C3753 C3751 1.419 . S
C3753 C3754 1.362 . S
C3754 H3746 0.930 . S
C3754 C3753 1.362 . S
C3754 C3757 1.409 . S
C3755 H3747 0.930 . S
C3755 C3756 1.355 . S
C3755 C3757 1.415 . S
C3756 C3755 1.355 . S
C3756 C3758 1.419 . S
C3757 C3752 1.425 . S
C3757 C3754 1.409 . S
C3757 C3755 1.415 . S
C3758 H3748 0.930 . S
C3758 C3756 1.419 . S
C3758 C3759 1.362 . S
C3759 H3749 0.930 . S
C3759 C3752 1.409 . S
C3759 C3758 1.362 . S
H3760 C3766 0.930 . S
H3761 C3769 0.930 . S
H3762 C3770 0.930 . S
H3763 C3771 0.930 . S
H3764 C3774 0.930 . S
H3765 C3775 0.930 . S
C3766 H3760 0.930 . S
C3766 C3767 1.355 . S
C3766 C3768 1.415 . S
C3767 C3766 1.355 . S
C3767 C3769 1.419 . S
C3768 C3766 1.415 . S
C3768 C3773 1.425 . S
C3768 C3775 1.409 . S
C3769 H3761 0.930 . S
C3769 C3767 1.419 . S
C3769 C3770 1.362 . S
C3770 H3762 0.930 . S
C3770 C3769 1.362 . S
C3770 C3773 1.409 . S
C3771 H3763 0.930 . S
C3771 C3772 1.355 . S
C3771 C3773 1.415 . S
C3772 C3771 1.355 . S
C3772 C3774 1.419 . S
C3773 C3768 1.425 . S
C3773 C3770 1.409 . S
C3773 C3771 1.415 . S
C3774 H3764 0.930 . S
C3774 C3772 1.419 . S
C3774 C3775 1.362 . S
C3775 H3765 0.930 . S
C3775 C3768 1.409 . S
C3775 C3774 1.362 . S
H3776 C3782 0.930 . S
H3777 C3785 0.930 . S
H3778 C3786 0.930 . S
H3779 C3787 0.930 . S
H3780 C3790 0.930 . S
H3781 C3791 0.930 . S
C3782 H3776 0.930 . S
C3782 C3783 1.355 . S
C3782 C3784 1.415 . S
C3783 C3782 1.355 . S
C3783 C3785 1.419 . S
C3784 C3782 1.415 . S
C3784 C3789 1.425 . S
C3784 C3791 1.409 . S
C3785 H3777 0.930 . S
C3785 C3783 1.419 . S
C3785 C3786 1.362 . S
C3786 H3778 0.930 . S
C3786 C3785 1.362 . S
C3786 C3789 1.409 . S
C3787 H3779 0.930 . S
C3787 C3788 1.355 . S
C3787 C3789 1.415 . S
C3788 C3787 1.355 . S
C3788 C3790 1.419 . S
C3789 C3784 1.425 . S
C3789 C3786 1.409 . S
C3789 C3787 1.415 . S
C3790 H3780 0.930 . S
C3790 C3788 1.419 . S
C3790 C3791 1.362 . S
C3791 H3781 0.930 . S
C3791 C3784 1.409 . S
C3791 C3790 1.362 . S
H3792 C3798 0.930 . S
H3793 C3801 0.930 . S
H3794 C3802 0.930 . S
H3795 C3803 0.930 . S
H3796 C3806 0.930 . S
H3797 C3807 0.930 . S
C3798 H3792 0.930 . S
C3798 C3799 1.355 . S
C3798 C3800 1.415 . S
C3799 C3798 1.355 . S
C3799 C3801 1.419 . S
C3800 C3798 1.415 . S
C3800 C3805 1.425 . S
C3800 C3807 1.409 . S
C3801 H3793 0.930 . S
C3801 C3799 1.419 . S
C3801 C3802 1.362 . S
C3802 H3794 0.930 . S
C3802 C3801 1.362 . S
C3802 C3805 1.409 . S
C3803 H3795 0.930 . S
C3803 C3804 1.355 . S
C3803 C3805 1.415 . S
C3804 C3803 1.355 . S
C3804 C3806 1.419 . S
C3805 C3800 1.425 . S
C3805 C3802 1.409 . S
C3805 C3803 1.415 . S
C3806 H3796 0.930 . S
C3806 C3804 1.419 . S
C3806 C3807 1.362 . S
C3807 H3797 0.930 . S
C3807 C3800 1.409 . S
C3807 C3806 1.362 . S
H3808 C3814 0.930 . S
H3809 C3817 0.930 . S
H3810 C3818 0.930 . S
H3811 C3819 0.930 . S
H3812 C3822 0.930 . S
H3813 C3823 0.930 . S
C3814 H3808 0.930 . S
C3814 C3815 1.355 . S
C3814 C3816 1.415 . S
C3815 C3814 1.355 . S
C3815 C3817 1.419 . S
C3816 C3814 1.415 . S
C3816 C3821 1.425 . S
C3816 C3823 1.409 . S
C3817 H3809 0.930 . S
C3817 C3815 1.419 . S
C3817 C3818 1.362 . S
C3818 H3810 0.930 . S
C3818 C3817 1.362 . S
C3818 C3821 1.409 . S
C3819 H3811 0.930 . S
C3819 C3820 1.355 . S
C3819 C3821 1.415 . S
C3820 C3819 1.355 . S
C3820 C3822 1.419 . S
C3821 C3816 1.425 . S
C3821 C3818 1.409 . S
C3821 C3819 1.415 . S
C3822 H3812 0.930 . S
C3822 C3820 1.419 . S
C3822 C3823 1.362 . S
C3823 H3813 0.930 . S
C3823 C3816 1.409 . S
C3823 C3822 1.362 . S
H3824 C3830 0.930 . S
H3825 C3833 0.930 . S
H3826 C3834 0.930 . S
H3827 C3835 0.930 . S
H3828 C3838 0.930 . S
H3829 C3839 0.930 . S
C3830 H3824 0.930 . S
C3830 C3831 1.355 . S
C3830 C3832 1.415 . S
C3831 C3830 1.355 . S
C3831 C3833 1.419 . S
C3832 C3830 1.415 . S
C3832 C3837 1.425 . S
C3832 C3839 1.409 . S
C3833 H3825 0.930 . S
C3833 C3831 1.419 . S
C3833 C3834 1.362 . S
C3834 H3826 0.930 . S
C3834 C3833 1.362 . S
C3834 C3837 1.409 . S
C3835 H3827 0.930 . S
C3835 C3836 1.355 . S
C3835 C3837 1.415 . S
C3836 C3835 1.355 . S
C3836 C3838 1.419 . S
C3837 C3832 1.425 . S
C3837 C3834 1.409 . S
C3837 C3835 1.415 . S
C3838 H3828 0.930 . S
C3838 C3836 1.419 . S
C3838 C3839 1.362 . S
C3839 H3829 0.930 . S
C3839 C3832 1.409 . S
C3839 C3838 1.362 . S
H3840 C3846 0.930 . S
H3841 C3849 0.930 . S
H3842 C3850 0.930 . S
H3843 C3851 0.930 . S
H3844 C3854 0.930 . S
H3845 C3855 0.930 . S
C3846 H3840 0.930 . S
C3846 C3847 1.355 . S
C3846 C3848 1.415 . S
C3847 C3846 1.355 . S
C3847 C3849 1.419 . S
C3848 C3846 1.415 . S
C3848 C3853 1.425 . S
C3848 C3855 1.409 . S
C3849 H3841 0.930 . S
C3849 C3847 1.419 . S
C3849 C3850 1.362 . S
C3850 H3842 0.930 . S
C3850 C3849 1.362 . S
C3850 C3853 1.409 . S
C3851 H3843 0.930 . S
C3851 C3852 1.355 . S
C3851 C3853 1.415 . S
C3852 C3851 1.355 . S
C3852 C3854 1.419 . S
C3853 C3848 1.425 . S
C3853 C3850 1.409 . S
C3853 C3851 1.415 . S
C3854 H3844 0.930 . S
C3854 C3852 1.419 . S
C3854 C3855 1.362 . S
C3855 H3845 0.930 . S
C3855 C3848 1.409 . S
C3855 C3854 1.362 . S
H3856 C3862 0.930 . S
H3857 C3865 0.930 . S
H3858 C3866 0.930 . S
H3859 C3867 0.930 . S
H3860 C3870 0.930 . S
H3861 C3871 0.930 . S
C3862 H3856 0.930 . S
C3862 C3863 1.355 . S
C3862 C3864 1.415 . S
C3863 C3862 1.355 . S
C3863 C3865 1.419 . S
C3864 C3862 1.415 . S
C3864 C3869 1.425 . S
C3864 C3871 1.409 . S
C3865 H3857 0.930 . S
C3865 C3863 1.419 . S
C3865 C3866 1.362 . S
C3866 H3858 0.930 . S
C3866 C3865 1.362 . S
C3866 C3869 1.409 . S
C3867 H3859 0.930 . S
C3867 C3868 1.355 . S
C3867 C3869 1.415 . S
C3868 C3867 1.355 . S
C3868 C3870 1.419 . S
C3869 C3864 1.425 . S
C3869 C3866 1.409 . S
C3869 C3867 1.415 . S
C3870 H3860 0.930 . S
C3870 C3868 1.419 . S
C3870 C3871 1.362 . S
C3871 H3861 0.930 . S
C3871 C3864 1.409 . S
C3871 C3870 1.362 . S
H3872 C3878 0.930 . S
H3873 C3881 0.930 . S
H3874 C3882 0.930 . S
H3875 C3883 0.930 . S
H3876 C3886 0.930 . S
H3877 C3887 0.930 . S
C3878 H3872 0.930 . S
C3878 C3879 1.355 . S
C3878 C3880 1.415 . S
C3879 C3878 1.355 . S
C3879 C3881 1.419 . S
C3880 C3878 1.415 . S
C3880 C3885 1.425 . S
C3880 C3887 1.409 . S
C3881 H3873 0.930 . S
C3881 C3879 1.419 . S
C3881 C3882 1.362 . S
C3882 H3874 0.930 . S
C3882 C3881 1.362 . S
C3882 C3885 1.409 . S
C3883 H3875 0.930 . S
C3883 C3884 1.355 . S
C3883 C3885 1.415 . S
C3884 C3883 1.355 . S
C3884 C3886 1.419 . S
C3885 C3880 1.425 . S
C3885 C3882 1.409 . S
C3885 C3883 1.415 . S
C3886 H3876 0.930 . S
C3886 C3884 1.419 . S
C3886 C3887 1.362 . S
C3887 H3877 0.930 . S
C3887 C3880 1.409 . S
C3887 C3886 1.362 . S
H3888 C3894 0.930 . S
H3889 C3897 0.930 . S
H3890 C3898 0.930 . S
H3891 C3899 0.930 . S
H3892 C3902 0.930 . S
H3893 C3903 0.930 . S
C3894 H3888 0.930 . S
C3894 C3895 1.355 . S
C3894 C3896 1.415 . S
C3895 C3894 1.355 . S
C3895 C3897 1.419 . S
C3896 C3894 1.415 . S
C3896 C3901 1.425 . S
C3896 C3903 1.409 . S
C3897 H3889 0.930 . S
C3897 C3895 1.419 . S
C3897 C3898 1.362 . S
C3898 H3890 0.930 . S
C3898 C3897 1.362 . S
C3898 C3901 1.409 . S
C3899 H3891 0.930 . S
C3899 C3900 1.355 . S
C3899 C3901 1.415 . S
C3900 C3899 1.355 . S
C3900 C3902 1.419 . S
C3901 C3896 1.425 . S
C3901 C3898 1.409 . S
C3901 C3899 1.415 . S
C3902 H3892 0.930 . S
C3902 C3900 1.419 . S
C3902 C3903 1.362 . S
C3903 H3893 0.930 . S
C3903 C3896 1.409 . S
C3903 C3902 1.362 . S
H3904 C3910 0.930 . S
H3905 C3913 0.930 . S
H3906 C3914 0.930 . S
H3907 C3915 0.930 . S
H3908 C3918 0.930 . S
H3909 C3919 0.930 . S
C3910 H3904 0.930 . S
C3910 C3911 1.355 . S
C3910 C3912 1.415 . S
C3911 C3910 1.355 . S
C3911 C3913 1.419 . S
C3912 C3910 1.415 . S
C3912 C3917 1.425 . S
C3912 C3919 1.409 . S
C3913 H3905 0.930 . S
C3913 C3911 1.419 . S
C3913 C3914 1.362 . S
C3914 H3906 0.930 . S
C3914 C3913 1.362 . S
C3914 C3917 1.409 . S
C3915 H3907 0.930 . S
C3915 C3916 1.355 . S
C3915 C3917 1.415 . S
C3916 C3915 1.355 . S
C3916 C3918 1.419 . S
C3917 C3912 1.425 . S
C3917 C3914 1.409 . S
C3917 C3915 1.415 . S
C3918 H3908 0.930 . S
C3918 C3916 1.419 . S
C3918 C3919 1.362 . S
C3919 H3909 0.930 . S
C3919 C3912 1.409 . S
C3919 C3918 1.362 . S
H3920 C3926 0.930 . S
H3921 C3929 0.930 . S
H3922 C3930 0.930 . S
H3923 C3931 0.930 . S
H3924 C3934 0.930 . S
H3925 C3935 0.930 . S
C3926 H3920 0.930 . S
C3926 C3927 1.355 . S
C3926 C3928 1.415 . S
C3927 C3926 1.355 . S
C3927 C3929 1.419 . S
C3928 C3926 1.415 . S
C3928 C3933 1.425 . S
C3928 C3935 1.409 . S
C3929 H3921 0.930 . S
C3929 C3927 1.419 . S
C3929 C3930 1.362 . S
C3930 H3922 0.930 . S
C3930 C3929 1.362 . S
C3930 C3933 1.409 . S
C3931 H3923 0.930 . S
C3931 C3932 1.355 . S
C3931 C3933 1.415 . S
C3932 C3931 1.355 . S
C3932 C3934 1.419 . S
C3933 C3928 1.425 . S
C3933 C3930 1.409 . S
C3933 C3931 1.415 . S
C3934 H3924 0.930 . S
C3934 C3932 1.419 . S
C3934 C3935 1.362 . S
C3935 H3925 0.930 . S
C3935 C3928 1.409 . S
C3935 C3934 1.362 . S
H3936 C3942 0.930 . S
H3937 C3945 0.930 . S
H3938 C3946 0.930 . S
H3939 C3947 0.930 . S
H3940 C3950 0.930 . S
H3941 C3951 0.930 . S
C3942 H3936 0.930 . S
C3942 C3943 1.355 . S
C3942 C3944 1.415 . S
C3943 C3942 1.355 . S
C3943 C3945 1.419 . S
C3944 C3942 1.415 . S
C3944 C3949 1.425 . S
C3944 C3951 1.409 . S
C3945 H3937 0.930 . S
C3945 C3943 1.419 . S
C3945 C3946 1.362 . S
C3946 H3938 0.930 . S
C3946 C3945 1.362 . S
C3946 C3949 1.409 . S
C3947 H3939 0.930 . S
C3947 C3948 1.355 . S
C3947 C3949 1.415 . S
C3948 C3947 1.355 . S
C3948 C3950 1.419 . S
C3949 C3944 1.425 . S
C3949 C3946 1.409 . S
C3949 C3947 1.415 . S
C3950 H3940 0.930 . S
C3950 C3948 1.419 . S
C3950 C3951 1.362 . S
C3951 H3941 0.930 . S
C3951 C3944 1.409 . S
C3951 C3950 1.362 . S
H3952 C3958 0.930 . S
H3953 C3961 0.930 . S
H3954 C3962 0.930 . S
H3955 C3963 0.930 . S
H3956 C3966 0.930 . S
H3957 C3967 0.930 . S
C3958 H3952 0.930 . S
C3958 C3959 1.355 . S
C3958 C3960 1.415 . S
C3959 C3958 1.355 . S
C3959 C3961 1.419 . S
C3960 C3958 1.415 . S
C3960 C3965 1.425 . S
C3960 C3967 1.409 . S
C3961 H3953 0.930 . S
C3961 C3959 1.419 . S
C3961 C3962 1.362 . S
C3962 H3954 0.930 . S
C3962 C3961 1.362 . S
C3962 C3965 1.409 . S
C3963 H3955 0.930 . S
C3963 C3964 1.355 . S
C3963 C3965 1.415 . S
C3964 C3963 1.355 . S
C3964 C3966 1.419 . S
C3965 C3960 1.425 . S
C3965 C3962 1.409 . S
C3965 C3963 1.415 . S
C3966 H3956 0.930 . S
C3966 C3964 1.419 . S
C3966 C3967 1.362 . S
C3967 H3957 0.930 . S
C3967 C3960 1.409 . S
C3967 C3966 1.362 . S
H3968 C3974 0.930 . S
H3969 C3977 0.930 . S
H3970 C3978 0.930 . S
H3971 C3979 0.930 . S
H3972 C3982 0.930 . S
H3973 C3983 0.930 . S
C3974 H3968 0.930 . S
C3974 C3975 1.355 . S
C3974 C3976 1.415 . S
C3975 C3974 1.355 . S
C3975 C3977 1.419 . S
C3976 C3974 1.415 . S
C3976 C3981 1.425 . S
C3976 C3983 1.409 . S
C3977 H3969 0.930 . S
C3977 C3975 1.419 . S
C3977 C3978 1.362 . S
C3978 H3970 0.930 . S
C3978 C3977 1.362 . S
C3978 C3981 1.409 . S
C3979 H3971 0.930 . S
C3979 C3980 1.355 . S
C3979 C3981 1.415 . S
C3980 C3979 1.355 . S
C3980 C3982 1.419 . S
C3981 C3976 1.425 . S
C3981 C3978 1.409 . S
C3981 C3979 1.415 . S
C3982 H3972 0.930 . S
C3982 C3980 1.419 . S
C3982 C3983 1.362 . S
C3983 H3973 0.930 . S
C3983 C3976 1.409 . S
C3983 C3982 1.362 . S
H3984 C3990 0.930 . S
H3985 C3993 0.930 . S
H3986 C3994 0.930 . S
H3987 C3995 0.930 . S
H3988 C3998 0.930 . S
H3989 C3999 0.930 . S
C3990 H3984 0.930 . S
C3990 C3991 1.355 . S
C3990 C3992 1.415 . S
C3991 C3990 1.355 . S
C3991 C3993 1.419 . S
C3992 C3990 1.415 . S
C3992 C3997 1.425 . S
C3992 C3999 1.409 . S
C3993 H3985 0.930 . S
C3993 C3991 1.419 . S
C3993 C3994 1.362 . S
C3994 H3986 0.930 . S
C3994 C3993 1.362 . S
C3994 C3997 1.409 . S
C3995 H3987 0.930 . S
C3995 C3996 1.355 . S
C3995 C3997 1.415 . S
C3996 C3995 1.355 . S
C3996 C3998 1.419 . S
C3997 C3992 1.425 . S
C3997 C3994 1.409 . S
C3997 C3995 1.415 . S
C3998 H3988 0.930 . S
C3998 C3996 1.419 . S
C3998 C3999 1.362 . S
C3999 H3989 0.930 . S
C3999 C3992 1.409 . S
C3999 C3998 1.362 . S
H4000 C4006 0.930 . S
H4001 C4009 0.930 . S
H4002 C4010 0.930 . S
H4003 C4011 0.930 . S
H4004 C4014 0.930 . S
H4005 C4015 0.930 . S
C4006 H4000 0.930 . S
C4006 C4007 1.355 . S
C4006 C4008 1.415 . S
C4007 C4006 1.355 . S
C4007 C4009 1.419 . S
C4008 C4006 1.415 . S
C4008 C4013 1.425 . S
C4008 C4015 1.409 . S
C4009 H4001 0.930 . S
C4009 C4007 1.419 . S
C4009 C4010 1.362 . S
C4010 H4002 0.930 . S
C4010 C4009 1.362 . S
C4010 C4013 1.409 . S
C4011 H4003 0.930 . S
C4011 C4012 1.355 . S
C4011 C4013 1.415 . S
C4012 C4011 1.355 . S
C4012 C4014 1.419 . S
C4013 C4008 1.425 . S
C4013 C4010 1.409 . S
C4013 C4011 1.415 . S
C4014 H4004 0.930 . S
C4014 C4012 1.419 . S
C4014 C4015 1.362 . S
C4015 H4005 0.930 . S
C4015 C4008 1.409 . S
C4015 C4014 1.362 . S
H4016 C4022 0.930 . S
H4017 C4025 0.930 . S
H4018 C4026 0.930 . S
H4019 C4027 0.930 . S
H4020 C4030 0.930 . S
H4021 C4031 0.930 . S
C4022 H4016 0.930 . S
C4022 C4023 1.355 . S
C4022 C4024 1.415 . S
C4023 C4022 1.355 . S
C4023 C4025 1.419 . S
C4024 C4022 1.415 . S
C4024 C4029 1.425 . S
C4024 C4031 1.409 . S
C4025 H4017 0.930 . S
C4025 C4023 1.419 . S
C4025 C4026 1.362 . S
C4026 H4018 0.930 . S
C4026 C4025 1.362 . S
C4026 C4029 1.409 . S
C4027 H4019 0.930 . S
C4027 C4028 1.355 . S
C4027 C4029 1.415 . S
C4028 C4027 1.355 . S
C4028 C4030 1.419 . S
C4029 C4024 1.425 . S
C4029 C4026 1.409 . S
C4029 C4027 1.415 . S
C4030 H4020 0.930 . S
C4030 C4028 1.419 . S
C4030 C4031 1.362 . S
C4031 H4021 0.930 . S
C4031 C4024 1.409 . S
C4031 C4030 1.362 . S
H4032 C4038 0.930 . S
H4033 C4041 0.930 . S
H4034 C4042 0.930 . S
H4035 C4043 0.930 . S
H4036 C4046 0.930 . S
H4037 C4047 0.930 . S
C4038 H4032 0.930 . S
C4038 C4039 1.355 . S
C4038 C4040 1.415 . S
C4039 C4038 1.355 . S
C4039 C4041 1.419 . S
C4040 C4038 1.415 . S
C4040 C4045 1.425 . S
C4040 C4047 1.409 . S
C4041 H4033 0.930 . S
C4041 C4039 1.419 . S
C4041 C4042 1.362 . S
C4042 H4034 0.930 . S
C4042 C4041 1.362 . S
C4042 C4045 1.409 . S
C4043 H4035 0.930 . S
C4043 C4044 1.355 . S
C4043 C4045 1.415 . S
C4044 C4043 1.355 . S
C4044 C4046 1.419 . S
C4045 C4040 1.425 . S
C4045 C4042 1.409 . S
C4045 C4043 1.415 . S
C4046 H4036 0.930 . S
C4046 C4044 1.419 . S
C4046 C4047 1.362 . S
C4047 H4037 0.930 . S
C4047 C4040 1.409 . S
C4047 C4046 1.362 . S
H4048 C4054 0.930 . S
H4049 C4057 0.930 . S
H4050 C4058 0.930 . S
H4051 C4059 0.930 . S
H4052 C4062 0.930 . S
H4053 C4063 0.930 . S
C4054 H4048 0.930 . S
C4054 C4055 1.355 . S
C4054 C4056 1.415 . S
C4055 C4054 1.355 . S
C4055 C4057 1.419 . S
C4056 C4054 1.415 . S
C4056 C4061 1.425 . S
C4056 C4063 1.409 . S
C4057 H4049 0.930 . S
C4057 C4055 1.419 . S
C4057 C4058 1.362 . S
C4058 H4050 0.930 . S
C4058 C4057 1.362 . S
C4058 C4061 1.409 . S
C4059 H4051 0.930 . S
C4059 C4060 1.355 . S
C4059 C4061 1.415 . S
C4060 C4059 1.355 . S
C4060 C4062 1.419 . S
C4061 C4056 1.425 . S
C4061 C4058 1.409 . S
C4061 C4059 1.415 . S
C4062 H4052 0.930 . S
C4062 C4060 1.419 . S
C4062 C4063 1.362 . S
C4063 H4053 0.930 . S
C4063 C4056 1.409 . S
C4063 C4062 1.362 . S
H4064 C4070 0.930 . S
H4065 C4073 0.930 . S
H4066 C4074 0.930 . S
H4067 C4075 0.930 . S
H4068 C4078 0.930 . S
H4069 C4079 0.930 . S
C4070 H4064 0.930 . S
C4070 C4071 1.355 . S
C4070 C4072 1.415 . S
C4071 C4070 1.355 . S
C4071 C4073 1.419 . S
C4072 C4070 1.415 . S
C4072 C4077 1.425 . S
C4072 C4079 1.409 . S
C4073 H4065 0.930 . S
C4073 C4071 1.419 . S
C4073 C4074 1.362 . S
C4074 H4066 0.930 . S
C4074 C4073 1.362 . S
C4074 C4077 1.409 . S
C4075 H4067 0.930 . S
C4075 C4076 1.355 . S
C4075 C4077 1.415 . S
C4076 C4075 1.355 . S
C4076 C4078 1.419 . S
C4077 C4072 1.425 . S
C4077 C4074 1.409 . S
C4077 C4075 1.415 . S
C4078 H4068 0.930 . S
C4078 C4076 1.419 . S
C4078 C4079 1.362 . S
C4079 H4069 0.930 . S
C4079 C4072 1.409 . S
C4079 C4078 1.362 . S
H4080 C4086 0.930 . S
H4081 C4089 0.930 . S
H4082 C4090 0.930 . S
H4083 C4091 0.930 . S
H4084 C4094 0.930 . S
H4085 C4095 0.930 . S
C4086 H4080 0.930 . S
C4086 C4087 1.355 . S
C4086 C4088 1.415 . S
C4087 C4086 1.355 . S
C4087 C4089 1.419 . S
C4088 C4086 1.415 . S
C4088 C4093 1.425 . S
C4088 C4095 1.409 . S
C4089 H4081 0.930 . S
C4089 C4087 1.419 . S
C4089 C4090 1.362 . S
C4090 H4082 0.930 . S
C4090 C4089 1.362 . S
C4090 C4093 1.409 . S
C4091 H4083 0.930 . S
C4091 C4092 1.355 . S
C4091 C4093 1.415 . S
C4092 C4091 1.355 . S
C4092 C4094 1.419 . S
C4093 C4088 1.425 . S
C4093 C4090 1.409 . S
C4093 C4091 1.415 . S
C4094 H4084 0.930 . S
C4094 C4092 1.419 . S
C4094 C4095 1.362 . S
C4095 H4085 0.930 . S
C4095 C4088 1.409 . S
C4095 C4094 1.362 . S
H4096 C4102 0.930 . S
H4097 C4105 0.930 . S
H4098 C4106 0.930 . S
H4099 C4107 0.930 . S
H4100 C4110 0.930 . S
H4101 C4111 0.930 . S
C4102 H4096 0.930 . S
C4102 C4103 1.355 . S
C4102 C4104 1.415 . S
C4103 C4102 1.355 . S
C4103 C4105 1.419 . S
C4104 C4102 1.415 . S
C4104 C4109 1.425 . S
C4104 C4111 1.409 . S
C4105 H4097 0.930 . S
C4105 C4103 1.419 . S
C4105 C4106 1.362 . S
C4106 H4098 0.930 . S
C4106 C4105 1.362 . S
C4106 C4109 1.409 . S
C4107 H4099 0.930 . S
C4107 C4108 1.355 . S
C4107 C4109 1.415 . S
C4108 C4107 1.355 . S
C4108 C4110 1.419 . S
C4109 C4104 1.425 . S
C4109 C4106 1.409 . S
C4109 C4107 1.415 . S
C4110 H4100 0.930 . S
C4110 C4108 1.419 . S
C4110 C4111 1.362 . S
C4111 H4101 0.930 . S
C4111 C4104 1.409 . S
C4111 C4110 1.362 . S
H4112 C4118 0.930 . S
H4113 C4121 0.930 . S
H4114 C4122 0.930 . S
H4115 C4123 0.930 . S
H4116 C4126 0.930 . S
H4117 C4127 0.930 . S
C4118 H4112 0.930 . S
C4118 C4119 1.355 . S
C4118 C4120 1.415 . S
C4119 C4118 1.355 . S
C4119 C4121 1.419 . S
C4120 C4118 1.415 . S
C4120 C4125 1.425 . S
C4120 C4127 1.409 . S
C4121 H4113 0.930 . S
C4121 C4119 1.419 . S
C4121 C4122 1.362 . S
C4122 H4114 0.930 . S
C4122 C4121 1.362 . S
C4122 C4125 1.409 . S
C4123 H4115 0.930 . S
C4123 C4124 1.355 . S
C4123 C4125 1.415 . S
C4124 C4123 1.355 . S
C4124 C4126 1.419 . S
C4125 C4120 1.425 . S
C4125 C4122 1.409 . S
C4125 C4123 1.415 . S
C4126 H4116 0.930 . S
C4126 C4124 1.419 . S
C4126 C4127 1.362 . S
C4127 H4117 0.930 . S
C4127 C4120 1.409 . S
C4127 C4126 1.362 . S
H4128 C4134 0.930 . S
H4129 C4137 0.930 . S
H4130 C4138 0.930 . S
H4131 C4139 0.930 . S
H4132 C4142 0.930 . S
H4133 C4143 0.930 . S
C4134 H4128 0.930 . S
C4134 C4135 1.355 . S
C4134 C4136 1.415 . S
C4135 C4134 1.355 . S
C4135 C4137 1.419 . S
C4136 C4134 1.415 . S
C4136 C4141 1.425 . S
C4136 C4143 1.409 . S
C4137 H4129 0.930 . S
C4137 C4135 1.419 . S
C4137 C4138 1.362 . S
C4138 H4130 0.930 . S
C4138 C4137 1.362 . S
C4138 C4141 1.409 . S
C4139 H4131 0.930 . S
C4139 C4140 1.355 . S
C4139 C4141 1.415 . S
C4140 C4139 1.355 . S
C4140 C4142 1.419 . S
C4141 C4136 1.425 . S
C4141 C4138 1.409 . S
C4141 C4139 1.415 . S
C4142 H4132 0.930 . S
C4142 C4140 1.419 . S
C4142 C4143 1.362 . S
C4143 H4133 0.930 . S
C4143 C4136 1.409 . S
C4143 C4142 1.362 . S
H4144 C4150 0.930 . S
H4145 C4153 0.930 . S
H4146 C4154 0.930 . S
H4147 C4155 0.930 . S
H4148 C4158 0.930 . S
H4149 C4159 0.930 . S
C4150 H4144 0.930 . S
C4150 C4151 1.355 . S
C4150 C4152 1.415 . S
C4151 C4150 1.355 . S
C4151 C4153 1.419 . S
C4152 C4150 1.415 . S
C4152 C4157 1.425 . S
C4152 C4159 1.409 . S
C4153 H4145 0.930 . S
C4153 C4151 1.419 . S
C4153 C4154 1.362 . S
C4154 H4146 0.930 . S
C4154 C4153 1.362 . S
C4154 C4157 1.409 . S
C4155 H4147 0.930 . S
C4155 C4156 1.355 . S
C4155 C4157 1.415 . S
C4156 C4155 1.355 . S
C4156 C4158 1.419 . S
C4157 C4152 1.425 . S
C4157 C4154 1.409 . S
C4157 C4155 1.415 . S
C4158 H4148 0.930 . S
C4158 C4156 1.419 . S
C4158 C4159 1.362 . S
C4159 H4149 0.930 . S
C4159 C4152 1.409 . S
C4159 C4158 1.362 . S
H4160 C4166 0.930 . S
H4161 C4169 0.930 . S
H4162 C4170 0.930 . S
H4163 C4171 0.930 . S
H4164 C4174 0.930 . S
H4165 C4175 0.930 . S
C4166 H4160 0.930 . S
C4166 C4167 1.355 . S
C4166 C4168 1.415 . S
C4167 C4166 1.355 . S
C4167 C4169 1.419 . S
C4168 C4166 1.415 . S
C4168 C4173 1.425 . S
C4168 C4175 1.409 . S
C4169 H4161 0.930 . S
C4169 C4167 1.419 . S
C4169 C4170 1.362 . S
C4170 H4162 0.930 . S
C4170 C4169 1.362 . S
C4170 C4173 1.409 . S
C4171 H4163 0.930 . S
C4171 C4172 1.355 . S
C4171 C4173 1.415 . S
C4172 C4171 1.355 . S
C4172 C4174 1.419 . S
C4173 C4168 1.425 . S
C4173 C4170 1.409 . S
C4173 C4171 1.415 . S
C4174 H4164 0.930 . S
C4174 C4172 1.419 . S
C4174 C4175 1.362 . S
C4175 H4165 0.930 . S
C4175 C4168 1.409 . S
C4175 C4174 1.362 . S
H4176 C4182 0.930 . S
H4177 C4185 0.930 . S
H4178 C4186 0.930 . S
H4179 C4187 0.930 . S
H4180 C4190 0.930 . S
H4181 C4191 0.930 . S
C4182 H4176 0.930 . S
C4182 C4183 1.355 . S
C4182 C4184 1.415 . S
C4183 C4182 1.355 . S
C4183 C4185 1.419 . S
C4184 C4182 1.415 . S
C4184 C4189 1.425 . S
C4184 C4191 1.409 . S
C4185 H4177 0.930 . S
C4185 C4183 1.419 . S
C4185 C4186 1.362 . S
C4186 H4178 0.930 . S
C4186 C4185 1.362 . S
C4186 C4189 1.409 . S
C4187 H4179 0.930 . S
C4187 C4188 1.355 . S
C4187 C4189 1.415 . S
C4188 C4187 1.355 . S
C4188 C4190 1.419 . S
C4189 C4184 1.425 . S
C4189 C4186 1.409 . S
C4189 C4187 1.415 . S
C4190 H4180 0.930 . S
C4190 C4188 1.419 . S
C4190 C4191 1.362 . S
C4191 H4181 0.930 . S
C4191 C4184 1.409 . S
C4191 C4190 1.362 . S
H4192 C4198 0.930 . S
H4193 C4201 0.930 . S
H4194 C4202 0.930 . S
H4195 C4203 0.930 . S
H4196 C4206 0.930 . S
H4197 C4207 0.930 . S
C4198 H4192 0.930 . S
C4198 C4199 1.355 . S
C4198 C4200 1.415 . S
C4199 C4198 1.355 . S
C4199 C4201 1.419 . S
C4200 C4198 1.415 . S
C4200 C4205 1.425 . S
C4200 C4207 1.409 . S
C4201 H4193 0.930 . S
C4201 C4199 1.419 . S
C4201 C4202 1.362 . S
C4202 H4194 0.930 . S
C4202 C4201 1.362 . S
C4202 C4205 1.409 . S
C4203 H4195 0.930 . S
C4203 C4204 1.355 . S
C4203 C4205 1.415 . S
C4204 C4203 1.355 . S
C4204 C4206 1.419 . S
C4205 C4200 1.425 . S
C4205 C4202 1.409 . S
C4205 C4203 1.415 . S
C4206 H4196 0.930 . S
C4206 C4204 1.419 . S
C4206 C4207 1.362 . S
C4207 H4197 0.930 . S
C4207 C4200 1.409 . S
C4207 C4206 1.362 . S
H4208 C4214 0.930 . S
H4209 C4217 0.930 . S
H4210 C4218 0.930 . S
H4211 C4219 0.930 . S
H4212 C4222 0.930 . S
H4213 C4223 0.930 . S
C4214 H4208 0.930 . S
C4214 C4215 1.355 . S
C4214 C4216 1.415 . S
C4215 C4214 1.355 . S
C4215 C4217 1.419 . S
C4216 C4214 1.415 . S
C4216 C4221 1.425 . S
C4216 C4223 1.409 . S
C4217 H4209 0.930 . S
C4217 C4215 1.419 . S
C4217 C4218 1.362 . S
C4218 H4210 0.930 . S
C4218 C4217 1.362 . S
C4218 C4221 1.409 . S
C4219 H4211 0.930 . S
C4219 C4220 1.355 . S
C4219 C4221 1.415 . S
C4220 C4219 1.355 . S
C4220 C4222 1.419 . S
C4221 C4216 1.425 . S
C4221 C4218 1.409 . S
C4221 C4219 1.415 . S
C4222 H4212 0.930 . S
C4222 C4220 1.419 . S
C4222 C4223 1.362 . S
C4223 H4213 0.930 . S
C4223 C4216 1.409 . S
C4223 C4222 1.362 . S
H4224 C4230 0.930 . S
H4225 C4233 0.930 . S
H4226 C4234 0.930 . S
H4227 C4235 0.930 . S
H4228 C4238 0.930 . S
H4229 C4239 0.930 . S
C4230 H4224 0.930 . S
C4230 C4231 1.355 . S
C4230 C4232 1.415 . S
C4231 C4230 1.355 . S
C4231 C4233 1.419 . S
C4232 C4230 1.415 . S
C4232 C4237 1.425 . S
C4232 C4239 1.409 . S
C4233 H4225 0.930 . S
C4233 C4231 1.419 . S
C4233 C4234 1.362 . S
C4234 H4226 0.930 . S
C4234 C4233 1.362 . S
C4234 C4237 1.409 . S
C4235 H4227 0.930 . S
C4235 C4236 1.355 . S
C4235 C4237 1.415 . S
C4236 C4235 1.355 . S
C4236 C4238 1.419 . S
C4237 C4232 1.425 . S
C4237 C4234 1.409 . S
C4237 C4235 1.415 . S
C4238 H4228 0.930 . S
C4238 C4236 1.419 . S
C4238 C4239 1.362 . S
C4239 H4229 0.930 . S
C4239 C4232 1.409 . S
C4239 C4238 1.362 . S
H4240 C4246 0.930 . S
H4241 C4249 0.930 . S
H4242 C4250 0.930 . S
H4243 C4251 0.930 . S
H4244 C4254 0.930 . S
H4245 C4255 0.930 . S
C4246 H4240 0.930 . S
C4246 C4247 1.355 . S
C4246 C4248 1.415 . S
C4247 C4246 1.355 . S
C4247 C4249 1.419 . S
C4248 C4246 1.415 . S
C4248 C4253 1.425 . S
C4248 C4255 1.409 . S
C4249 H4241 0.930 . S
C4249 C4247 1.419 . S
C4249 C4250 1.362 . S
C4250 H4242 0.930 . S
C4250 C4249 1.362 . S
C4250 C4253 1.409 . S
C4251 H4243 0.930 . S
C4251 C4252 1.355 . S
C4251 C4253 1.415 . S
C4252 C4251 1.355 . S
C4252 C4254 1.419 . S
C4253 C4248 1.425 . S
C4253 C4250 1.409 . S
C4253 C4251 1.415 . S
C4254 H4244 0.930 . S
C4254 C4252 1.419 . S
C4254 C4255 1.362 . S
C4255 H4245 0.930 . S
C4255 C4248 1.409 . S
C4255 C4254 1.362 . S
H4256 C4262 0.930 . S
H4257 C4265 0.930 . S
H4258 C4266 0.930 . S
H4259 C4267 0.930 . S
H4260 C4270 0.930 . S
H4261 C4271 0.930 . S
C4262 H4256 0.930 . S
C4262 C4263 1.355 . S
C4262 C4264 1.415 . S
C4263 C4262 1.355 . S
C4263 C4265 1.419 . S
C4264 C4262 1.415 . S
C4264 C4269 1.425 . S
C4264 C4271 1.409 . S
C4265 H4257 0.930 . S
C4265 C4263 1.419 . S
C4265 C4266 1.362 . S
C4266 H4258 0.930 . S
C4266 C4265 1.362 . S
C4266 C4269 1.409 . S
C4267 H4259 0.930 . S
C4267 C4268 1.355 . S
C4267 C4269 1.415 . S
C4268 C4267 1.355 . S
C4268 C4270 1.419 . S
C4269 C4264 1.425 . S
C4269 C4266 1.409 . S
C4269 C4267 1.415 . S
C4270 H4260 0.930 . S
C4270 C4268 1.419 . S
C4270 C4271 1.362 . S
C4271 H4261 0.930 . S
C4271 C4264 1.409 . S
C4271 C4270 1.362 . S
H4272 C4278 0.930 . S
H4273 C4281 0.930 . S
H4274 C4282 0.930 . S
H4275 C4283 0.930 . S
H4276 C4286 0.930 . S
H4277 C4287 0.930 . S
C4278 H4272 0.930 . S
C4278 C4279 1.355 . S
C4278 C4280 1.415 . S
C4279 C4278 1.355 . S
C4279 C4281 1.419 . S
C4280 C4278 1.415 . S
C4280 C4285 1.425 . S
C4280 C4287 1.409 . S
C4281 H4273 0.930 . S
C4281 C4279 1.419 . S
C4281 C4282 1.362 . S
C4282 H4274 0.930 . S
C4282 C4281 1.362 . S
C4282 C4285 1.409 . S
C4283 H4275 0.930 . S
C4283 C4284 1.355 . S
C4283 C4285 1.415 . S
C4284 C4283 1.355 . S
C4284 C4286 1.419 . S
C4285 C4280 1.425 . S
C4285 C4282 1.409 . S
C4285 C4283 1.415 . S
C4286 H4276 0.930 . S
C4286 C4284 1.419 . S
C4286 C4287 1.362 . S
C4287 H4277 0.930 . S
C4287 C4280 1.409 . S
C4287 C4286 1.362 . S
H4288 C4294 0.930 . S
H4289 C4297 0.930 . S
H4290 C4298 0.930 . S
H4291 C4299 0.930 . S
H4292 C4302 0.930 . S
H4293 C4303 0.930 . S
C4294 H4288 0.930 . S
C4294 C4295 1.355 . S
C4294 C4296 1.415 . S
C4295 C4294 1.355 . S
C4295 C4297 1.419 . S
C4296 C4294 1.415 . S
C4296 C4301 1.425 . S
C4296 C4303 1.409 . S
C4297 H4289 0.930 . S
C4297 C4295 1.419 . S
C4297 C4298 1.362 . S
C4298 H4290 0.930 . S
C4298 C4297 1.362 . S
C4298 C4301 1.409 . S
C4299 H4291 0.930 . S
C4299 C4300 1.355 . S
C4299 C4301 1.415 . S
C4300 C4299 1.355 . S
C4300 C4302 1.419 . S
C4301 C4296 1.425 . S
C4301 C4298 1.409 . S
C4301 C4299 1.415 . S
C4302 H4292 0.930 . S
C4302 C4300 1.419 . S
C4302 C4303 1.362 . S
C4303 H4293 0.930 . S
C4303 C4296 1.409 . S
C4303 C4302 1.362 . S
H4304 C4310 0.930 . S
H4305 C4313 0.930 . S
H4306 C4314 0.930 . S
H4307 C4315 0.930 . S
H4308 C4318 0.930 . S
H4309 C4319 0.930 . S
C4310 H4304 0.930 . S
C4310 C4311 1.355 . S
C4310 C4312 1.415 . S
C4311 C4310 1.355 . S
C4311 C4313 1.419 . S
C4312 C4310 1.415 . S
C4312 C4317 1.425 . S
C4312 C4319 1.409 . S
C4313 H4305 0.930 . S
C4313 C4311 1.419 . S
C4313 C4314 1.362 . S
C4314 H4306 0.930 . S
C4314 C4313 1.362 . S
C4314 C4317 1.409 . S
C4315 H4307 0.930 . S
C4315 C4316 1.355 . S
C4315 C4317 1.415 . S
C4316 C4315 1.355 . S
C4316 C4318 1.419 . S
C4317 C4312 1.425 . S
C4317 C4314 1.409 . S
C4317 C4315 1.415 . S
C4318 H4308 0.930 . S
C4318 C4316 1.419 . S
C4318 C4319 1.362 . S
C4319 H4309 0.930 . S
C4319 C4312 1.409 . S
C4319 C4318 1.362 . S
H4320 C4326 0.930 . S
H4321 C4329 0.930 . S
H4322 C4330 0.930 . S
H4323 C4331 0.930 . S
H4324 C4334 0.930 . S
H4325 C4335 0.930 . S
C4326 H4320 0.930 . S
C4326 C4327 1.355 . S
C4326 C4328 1.415 . S
C4327 C4326 1.355 . S
C4327 C4329 1.419 . S
C4328 C4326 1.415 . S
C4328 C4333 1.425 . S
C4328 C4335 1.409 . S
C4329 H4321 0.930 . S
C4329 C4327 1.419 . S
C4329 C4330 1.362 . S
C4330 H4322 0.930 . S
C4330 C4329 1.362 . S
C4330 C4333 1.409 . S
C4331 H4323 0.930 . S
C4331 C4332 1.355 . S
C4331 C4333 1.415 . S
C4332 C4331 1.355 . S
C4332 C4334 1.419 . S
C4333 C4328 1.425 . S
C4333 C4330 1.409 . S
C4333 C4331 1.415 . S
C4334 H4324 0.930 . S
C4334 C4332 1.419 . S
C4334 C4335 1.362 . S
C4335 H4325 0.930 . S
C4335 C4328 1.409 . S
C4335 C4334 1.362 . S
H4336 C4342 0.930 . S
H4337 C4345 0.930 . S
H4338 C4346 0.930 . S
H4339 C4347 0.930 . S
H4340 C4350 0.930 . S
H4341 C4351 0.930 . S
C4342 H4336 0.930 . S
C4342 C4343 1.355 . S
C4342 C4344 1.415 . S
C4343 C4342 1.355 . S
C4343 C4345 1.419 . S
C4344 C4342 1.415 . S
C4344 C4349 1.425 . S
C4344 C4351 1.409 . S
C4345 H4337 0.930 . S
C4345 C4343 1.419 . S
C4345 C4346 1.362 . S
C4346 H4338 0.930 . S
C4346 C4345 1.362 . S
C4346 C4349 1.409 . S
C4347 H4339 0.930 . S
C4347 C4348 1.355 . S
C4347 C4349 1.415 . S
C4348 C4347 1.355 . S
C4348 C4350 1.419 . S
C4349 C4344 1.425 . S
C4349 C4346 1.409 . S
C4349 C4347 1.415 . S
C4350 H4340 0.930 . S
C4350 C4348 1.419 . S
C4350 C4351 1.362 . S
C4351 H4341 0.930 . S
C4351 C4344 1.409 . S
C4351 C4350 1.362 . S
H4352 C4358 0.930 . S
H4353 C4361 0.930 . S
H4354 C4362 0.930 . S
H4355 C4363 0.930 . S
H4356 C4366 0.930 . S
H4357 C4367 0.930 . S
C4358 H4352 0.930 . S
C4358 C4359 1.355 . S
C4358 C4360 1.415 . S
C4359 C4358 1.355 . S
C4359 C4361 1.419 . S
C4360 C4358 1.415 . S
C4360 C4365 1.425 . S
C4360 C4367 1.409 . S
C4361 H4353 0.930 . S
C4361 C4359 1.419 . S
C4361 C4362 1.362 . S
C4362 H4354 0.930 . S
C4362 C4361 1.362 . S
C4362 C4365 1.409 . S
C4363 H4355 0.930 . S
C4363 C4364 1.355 . S
C4363 C4365 1.415 . S
C4364 C4363 1.355 . S
C4364 C4366 1.419 . S
C4365 C4360 1.425 . S
C4365 C4362 1.409 . S
C4365 C4363 1.415 . S
C4366 H4356 0.930 . S
C4366 C4364 1.419 . S
C4366 C4367 1.362 . S
C4367 H4357 0.930 . S
C4367 C4360 1.409 . S
C4367 C4366 1.362 . S
H4368 C4374 0.930 . S
H4369 C4377 0.930 . S
H4370 C4378 0.930 . S
H4371 C4379 0.930 . S
H4372 C4382 0.930 . S
H4373 C4383 0.930 . S
C4374 H4368 0.930 . S
C4374 C4375 1.355 . S
C4374 C4376 1.415 . S
C4375 C4374 1.355 . S
C4375 C4377 1.419 . S
C4376 C4374 1.415 . S
C4376 C4381 1.425 . S
C4376 C4383 1.409 . S
C4377 H4369 0.930 . S
C4377 C4375 1.419 . S
C4377 C4378 1.362 . S
C4378 H4370 0.930 . S
C4378 C4377 1.362 . S
C4378 C4381 1.409 . S
C4379 H4371 0.930 . S
C4379 C4380 1.355 . S
C4379 C4381 1.415 . S
C4380 C4379 1.355 . S
C4380 C4382 1.419 . S
C4381 C4376 1.425 . S
C4381 C4378 1.409 . S
C4381 C4379 1.415 . S
C4382 H4372 0.930 . S
C4382 C4380 1.419 . S
C4382 C4383 1.362 . S
C4383 H4373 0.930 . S
C4383 C4376 1.409 . S
C4383 C4382 1.362 . S
H4384 C4390 0.930 . S
H4385 C4393 0.930 . S
H4386 C4394 0.930 . S
H4387 C4395 0.930 . S
H4388 C4398 0.930 . S
H4389 C4399 0.930 . S
C4390 H4384 0.930 . S
C4390 C4391 1.355 . S
C4390 C4392 1.415 . S
C4391 C4390 1.355 . S
C4391 C4393 1.419 . S
C4392 C4390 1.415 . S
C4392 C4397 1.425 . S
C4392 C4399 1.409 . S
C4393 H4385 0.930 . S
C4393 C4391 1.419 . S
C4393 C4394 1.362 . S
C4394 H4386 0.930 . S
C4394 C4393 1.362 . S
C4394 C4397 1.409 . S
C4395 H4387 0.930 . S
C4395 C4396 1.355 . S
C4395 C4397 1.415 . S
C4396 C4395 1.355 . S
C4396 C4398 1.419 . S
C4397 C4392 1.425 . S
C4397 C4394 1.409 . S
C4397 C4395 1.415 . S
C4398 H4388 0.930 . S
C4398 C4396 1.419 . S
C4398 C4399 1.362 . S
C4399 H4389 0.930 . S
C4399 C4392 1.409 . S
C4399 C4398 1.362 . S
H4400 C4406 0.930 . S
H4401 C4409 0.930 . S
H4402 C4410 0.930 . S
H4403 C4411 0.930 . S
H4404 C4414 0.930 . S
H4405 C4415 0.930 . S
C4406 H4400 0.930 . S
C4406 C4407 1.355 . S
C4406 C4408 1.415 . S
C4407 C4406 1.355 . S
C4407 C4409 1.419 . S
C4408 C4406 1.415 . S
C4408 C4413 1.425 . S
C4408 C4415 1.409 . S
C4409 H4401 0.930 . S
C4409 C4407 1.419 . S
C4409 C4410 1.362 . S
C4410 H4402 0.930 . S
C4410 C4409 1.362 . S
C4410 C4413 1.409 . S
C4411 H4403 0.930 . S
C4411 C4412 1.355 . S
C4411 C4413 1.415 . S
C4412 C4411 1.355 . S
C4412 C4414 1.419 . S
C4413 C4408 1.425 . S
C4413 C4410 1.409 . S
C4413 C4411 1.415 . S
C4414 H4404 0.930 . S
C4414 C4412 1.419 . S
C4414 C4415 1.362 . S
C4415 H4405 0.930 . S
C4415 C4408 1.409 . S
C4415 C4414 1.362 . S
C1351 C1 1.674 . S
C1356 C1051 1.700 . S
C1367 C348 1.686 . S
C1372 C26 1.671 . S
C1383 C1023 1.700 . S
C1388 C41 1.678 . S
C1399 C364 1.687 . S
C1404 C54 1.670 . S
C1415 C69 1.677 . S
C1420 C1079 1.667 . S
C1431 C82 1.677 . S
C1436 C432 1.670 . S
C1447 C1107 1.698 . S
C1452 C97 1.671 . S
C1463 C110 1.670 . S
C1468 C404 1.690 . S
C1479 C125 1.705 . S
C1484 C1261 1.667 . S
C1495 C603 1.700 . S
C1500 C139 1.677 . S
C1511 C153 1.705 . S
C1516 C617 1.670 . S
C1527 C155 1.683 . S
C1532 C575 1.662 . S
C1543 C181 1.670 . S
C1548 C1328 1.696 . S
C1559 C183 1.668 . S
C1564 C1233 1.686 . S
C1575 C197 1.705 . S
C1580 C1342 1.666 . S
C1591 C223 1.702 . S
C1596 C1303 1.682 . S
C1607 C1134 1.698 . S
C1612 C236 1.685 . S
C1623 C250 1.671 . S
C1628 C558 1.683 . S
C1639 C264 1.675 . S
C1644 C1188 1.699 . S
C1655 C530 1.699 . S
C1660 C278 1.682 . S
C1671 C280 1.697 . S
C1676 C532 1.689 . S
C1687 C1162 1.694 . S
C1692 C306 1.671 . S
C1703 C309 1.691 . S
C1708 C1133 1.695 . S
C1719 C1160 1.656 . S
C1724 C334 1.698 . S
C1735 C714 1.692 . S
C1740 C336 1.668 . S
C1751 C13 1.662 . S
C1756 C363 1.705 . S
C1767 C376 1.678 . S
C1772 C686 1.666 . S
C1783 C391 1.674 . S
C1788 C29 1.675 . S
C1799 C392 1.698 . S
C1804 C742 1.658 . S
C1815 C85 1.667 . S
C1820 C419 1.679 . S
C1831 C420 1.670 . S
C1836 C770 1.696 . S
C1847 C447 1.679 . S
C1852 C57 1.700 . S
C1863 C449 1.685 . S
C1868 C936 1.662 . S
C1879 C266 1.663 . S
C1884 C474 1.682 . S
C1895 C477 1.671 . S
C1900 C292 1.684 . S
C1911 C238 1.679 . S
C1916 C502 1.703 . S
C1927 C504 1.681 . S
C1932 C993 1.699 . S
C1943 C518 1.674 . S
C1948 C896 1.699 . S
C1959 C544 1.671 . S
C1964 C1007 1.676 . S
C1975 C966 1.690 . S
C1980 C546 1.696 . S
C1991 C811 1.658 . S
C1996 C573 1.689 . S
C2007 C211 1.656 . S
C2012 C587 1.694 . S
C2023 C852 1.699 . S
C2028 C600 1.685 . S
C2039 C615 1.676 . S
C2044 C195 1.671 . S
C2055 C629 1.691 . S
C2060 C209 1.694 . S
C2071 C643 1.674 . S
C2076 C827 1.698 . S
C2087 C784 1.694 . S
C2092 C645 1.694 . S
C2103 C658 1.676 . S
C2108 C812 1.700 . S
C2119 C379 1.657 . S
C2124 C673 1.696 . S
C2135 C1008 1.684 . S
C2140 C698 1.671 . S
C2151 C713 1.691 . S
C2156 C351 1.695 . S
C2167 C1036 1.662 . S
C2172 C726 1.705 . S
C2183 C741 1.695 . S
C2188 C407 1.692 . S
C2199 C1092 1.700 . S
C2204 C754 1.681 . S
C2215 C769 1.680 . S
C2220 C435 1.664 . S
C2231 C1064 1.656 . S
C2236 C782 1.698 . S
C2247 C588 1.661 . S
C2252 C796 1.705 . S
C2263 C799 1.705 . S
C2268 C1275 1.667 . S
C2279 C1289 1.659 . S
C2284 C824 1.703 . S
C2295 C839 1.692 . S
C2300 C1247 1.694 . S
C2311 C657 1.660 . S
C2316 C840 1.703 . S
C2327 C867 1.696 . S
C2332 C561 1.657 . S
C2343 C670 1.657 . S
C2348 C881 1.689 . S
C2359 C631 1.697 . S
C2364 C883 1.688 . S
C2375 C462 1.657 . S
C2380 C908 1.691 . S
C2391 C1230 1.661 . S
C2396 C922 1.705 . S
C2407 C924 1.701 . S
C2412 C516 1.657 . S
C2423 C950 1.705 . S
C2428 C1202 1.673 . S
C2439 C1205 1.694 . S
C2444 C965 1.669 . S
C2455 C490 1.697 . S
C2460 C978 1.687 . S
C2471 C461 1.670 . S
C2476 C981 1.675 . S
C2487 C489 1.664 . S
C2492 C995 1.681 . S
C2503 C1020 1.681 . S
C2508 C42 1.700 . S
C2519 C1035 1.692 . S
C2524 C685 1.657 . S
C2535 C1048 1.684 . S
C2540 C14 1.699 . S
C2551 C1063 1.705 . S
C2556 C701 1.662 . S
C2567 C70 1.664 . S
C2572 C1076 1.704 . S
C2583 C757 1.671 . S
C2588 C1091 1.676 . S
C2599 C98 1.668 . S
C2604 C1104 1.677 . S
C2615 C729 1.675 . S
C2620 C1119 1.674 . S
C2631 C1121 1.698 . S
C2636 C252 1.689 . S
C2647 C938 1.687 . S
C2652 C1146 1.698 . S
C2663 C1148 1.682 . S
C2668 C953 1.699 . S
C2679 C1174 1.694 . S
C2684 C910 1.657 . S
C2695 C321 1.698 . S
C2700 C1176 1.673 . S
C2711 C224 1.698 . S
C2716 C1190 1.687 . S
C2727 C1217 1.671 . S
C2732 C322 1.684 . S
C2743 C294 1.657 . S
C2748 C1218 1.695 . S
C2759 C1245 1.691 . S
C2764 C127 1.695 . S
C2775 C1259 1.673 . S
C2780 C895 1.697 . S
C2791 C169 1.692 . S
C2796 C1273 1.671 . S
C2807 C1287 1.700 . S
C2812 C855 1.685 . S
C2823 C869 1.697 . S
C2828 C1301 1.687 . S
C2839 C1315 1.683 . S
C2844 C167 1.699 . S
C2855 C1316 1.698 . S
C2860 C113 1.686 . S
C2871 C1330 1.698 . S
C2876 C141 1.656 . S
C2887 C12 1.587 . S
C2892 C614 1.618 . S
C2903 C628 1.593 . S
C2908 C15 1.615 . S
C2919 C586 1.594 . S
C2924 C28 1.621 . S
C2935 C43 1.617 . S
C2940 C1272 1.610 . S
C2951 C56 1.594 . S
C2956 C1314 1.624 . S
C2967 C71 1.593 . S
C2972 C1317 1.604 . S
C2983 C1244 1.606 . S
C2988 C84 1.593 . S
C2999 C1331 1.596 . S
C3004 C99 1.607 . S
C3015 C377 1.602 . S
C3020 C112 1.622 . S
C3031 C126 1.612 . S
C3036 C1062 1.593 . S
C3047 C337 1.624 . S
C3052 C140 1.591 . S
C3063 C1034 1.623 . S
C3068 C166 1.599 . S
C3079 C421 1.612 . S
C3084 C168 1.589 . S
C3095 C194 1.622 . S
C3100 C1118 1.600 . S
C3111 C208 1.619 . S
C3116 C393 1.610 . S
C3127 C210 1.608 . S
C3132 C1090 1.595 . S
C3143 C225 1.606 . S
C3148 C1177 1.596 . S
C3159 C448 1.613 . S
C3164 C239 1.614 . S
C3175 C253 1.615 . S
C3180 C1147 1.614 . S
C3191 C267 1.615 . S
C3196 C476 1.593 . S
C3207 C293 1.591 . S
C3212 C503 1.606 . S
C3223 C295 1.586 . S
C3228 C1216 1.622 . S
C3239 C1219 1.607 . S
C3244 C320 1.593 . S
C3255 C1191 1.595 . S
C3260 C323 1.619 . S
C3271 C279 1.620 . S
C3276 C349 1.587 . S
C3287 C350 1.610 . S
C3292 C281 1.593 . S
C3303 C365 1.588 . S
C3308 C251 1.621 . S
C3319 C378 1.585 . S
C3324 C925 1.620 . S
C3335 C979 1.597 . S
C3340 C405 1.603 . S
C3351 C980 1.623 . S
C3356 C406 1.587 . S
C3367 C433 1.605 . S
C3372 C909 1.620 . S
C3383 C994 1.595 . S
C3388 C434 1.619 . S
C3399 C460 1.585 . S
C3404 C40 1.620 . S
C3415 C727 1.600 . S
C3420 C463 1.622 . S
C3431 C488 1.622 . S
C3436 C0 1.601 . S
C3447 C699 1.593 . S
C3452 C491 1.619 . S
C3463 C517 1.615 . S
C3468 C96 1.614 . S
C3479 C783 1.611 . S
C3484 C531 1.589 . S
C3495 C68 1.613 . S
C3500 C533 1.588 . S
C3511 C755 1.599 . S
C3516 C559 1.601 . S
C3527 C560 1.600 . S
C3532 C841 1.598 . S
C3543 C574 1.604 . S
C3548 C124 1.597 . S
C3559 C798 1.613 . S
C3564 C589 1.588 . S
C3575 C602 1.594 . S
C3580 C152 1.604 . S
C3591 C154 1.604 . S
C3596 C616 1.594 . S
C3607 C880 1.599 . S
C3612 C630 1.601 . S
C3623 C882 1.608 . S
C3628 C656 1.619 . S
C3639 C866 1.614 . S
C3644 C671 1.616 . S
C3655 C684 1.611 . S
C3660 C1286 1.593 . S
C3671 C687 1.603 . S
C3676 C1300 1.621 . S
C3687 C700 1.588 . S
C3692 C1258 1.622 . S
C3703 C601 1.598 . S
C3708 C715 1.603 . S
C3719 C728 1.620 . S
C3724 C642 1.607 . S
C3735 C644 1.607 . S
C3740 C743 1.619 . S
C3751 C572 1.597 . S
C3756 C756 1.622 . S
C3767 C659 1.622 . S
C3772 C771 1.586 . S
C3783 C785 1.586 . S
C3788 C1049 1.613 . S
C3799 C390 1.613 . S
C3804 C810 1.588 . S
C3815 C813 1.592 . S
C3820 C1021 1.606 . S
C3831 C826 1.596 . S
C3836 C362 1.602 . S
C3847 C853 1.591 . S
C3852 C1105 1.607 . S
C3863 C854 1.608 . S
C3868 C446 1.619 . S
C3879 C1077 1.597 . S
C3884 C868 1.621 . S
C3895 C418 1.600 . S
C3900 C894 1.622 . S
C3911 C897 1.585 . S
C3916 C505 1.619 . S
C3927 C911 1.615 . S
C3932 C1120 1.593 . S
C3943 C937 1.621 . S
C3948 C475 1.605 . S
C3959 C1149 1.624 . S
C3964 C939 1.592 . S
C3975 C952 1.613 . S
C3980 C1175 1.595 . S
C3991 C967 1.614 . S
C3996 C545 1.595 . S
C4007 C547 1.614 . S
C4012 C992 1.588 . S
C4023 C1006 1.601 . S
C4028 C519 1.600 . S
C4039 C1009 1.591 . S
C4044 C951 1.609 . S
C4055 C964 1.624 . S
C4060 C1022 1.592 . S
C4071 C923 1.609 . S
C4076 C1037 1.591 . S
C4087 C1050 1.611 . S
C4092 C265 1.616 . S
C4103 C1065 1.591 . S
C4108 C307 1.608 . S
C4119 C1078 1.589 . S
C4124 C308 1.609 . S
C4135 C237 1.612 . S
C4140 C1093 1.616 . S
C4151 C1106 1.622 . S
C4156 C335 1.601 . S
C4167 C1132 1.622 . S
C4172 C712 1.602 . S
C4183 C1135 1.622 . S
C4188 C55 1.598 . S
C4199 C1161 1.611 . S
C4204 C672 1.618 . S
C4215 C1163 1.588 . S
C4220 C27 1.613 . S
C4231 C1189 1.622 . S
C4236 C768 1.598 . S
C4247 C1203 1.603 . S
C4252 C111 1.597 . S
C4263 C1204 1.585 . S
C4268 C740 1.621 . S
C4279 C1231 1.622 . S
C4284 C83 1.599 . S
C4295 C1232 1.622 . S
C4300 C180 1.602 . S
C4311 C1246 1.593 . S
C4316 C797 1.624 . S
C4327 C1260 1.585 . S
C4332 C138 1.619 . S
C4343 C1274 1.599 . S
C4348 C825 1.598 . S
C4359 C1288 1.622 . S
C4364 C838 1.602 . S
C4375 C196 1.624 . S
C4380 C1302 1.596 . S
C4391 C1329 1.593 . S
C4396 C222 1.624 . S
C4407 C1343 1.621 . S
C4412 C182 1.607 . S
