# Generated by pormake.
# Topology neb, (4)-cn, num edge types: 1
# Building blocks:
#     Node 0, Type 0, BuildingBlock: ICAMEG_clean_sbu_1, # of connection points: 4
#     Node 1, Type 0, BuildingBlock: ICAMEG_clean_sbu_1, # of connection points: 4
#     Node 2, Type 0, BuildingBlock: ICAMEG_clean_sbu_1, # of connection points: 4
#     Node 3, Type 0, BuildingBlock: ICAMEG_clean_sbu_1, # of connection points: 4
#     Node 4, Type 0, BuildingBlock: ICAMEG_clean_sbu_1, # of connection points: 4
#     Node 5, Type 0, BuildingBlock: ICAMEG_clean_sbu_1, # of connection points: 4
#     Node 6, Type 0, BuildingBlock: ICAMEG_clean_sbu_1, # of connection points: 4
#     Node 7, Type 0, BuildingBlock: ICAMEG_clean_sbu_1, # of connection points: 4
#     Node 8, Type 0, BuildingBlock: ICAMEG_clean_sbu_1, # of connection points: 4
#     Node 9, Type 0, BuildingBlock: ICAMEG_clean_sbu_1, # of connection points: 4
#     Node 10, Type 0, BuildingBlock: ICAMEG_clean_sbu_1, # of connection points: 4
#     Node 11, Type 0, BuildingBlock: ICAMEG_clean_sbu_1, # of connection points: 4
#     Node 12, Type 0, BuildingBlock: ICAMEG_clean_sbu_1, # of connection points: 4
#     Node 13, Type 0, BuildingBlock: ICAMEG_clean_sbu_1, # of connection points: 4
#     Node 14, Type 0, BuildingBlock: ICAMEG_clean_sbu_1, # of connection points: 4
#     Node 15, Type 0, BuildingBlock: ICAMEG_clean_sbu_1, # of connection points: 4
#     Edge 16, Type (0, 0), BuildingBlock: OJICUG_clean_linker_0, # of connection points: 2
#     Edge 17, Type (0, 0), BuildingBlock: OJICUG_clean_linker_0, # of connection points: 2
#     Edge 18, Type (0, 0), BuildingBlock: OJICUG_clean_linker_0, # of connection points: 2
#     Edge 19, Type (0, 0), BuildingBlock: OJICUG_clean_linker_0, # of connection points: 2
#     Edge 20, Type (0, 0), BuildingBlock: OJICUG_clean_linker_0, # of connection points: 2
#     Edge 21, Type (0, 0), BuildingBlock: OJICUG_clean_linker_0, # of connection points: 2
#     Edge 22, Type (0, 0), BuildingBlock: OJICUG_clean_linker_0, # of connection points: 2
#     Edge 23, Type (0, 0), BuildingBlock: OJICUG_clean_linker_0, # of connection points: 2
#     Edge 24, Type (0, 0), BuildingBlock: OJICUG_clean_linker_0, # of connection points: 2
#     Edge 25, Type (0, 0), BuildingBlock: OJICUG_clean_linker_0, # of connection points: 2
#     Edge 26, Type (0, 0), BuildingBlock: OJICUG_clean_linker_0, # of connection points: 2
#     Edge 27, Type (0, 0), BuildingBlock: OJICUG_clean_linker_0, # of connection points: 2
#     Edge 28, Type (0, 0), BuildingBlock: OJICUG_clean_linker_0, # of connection points: 2
#     Edge 29, Type (0, 0), BuildingBlock: OJICUG_clean_linker_0, # of connection points: 2
#     Edge 30, Type (0, 0), BuildingBlock: OJICUG_clean_linker_0, # of connection points: 2
#     Edge 31, Type (0, 0), BuildingBlock: OJICUG_clean_linker_0, # of connection points: 2
#     Edge 32, Type (0, 0), BuildingBlock: OJICUG_clean_linker_0, # of connection points: 2
#     Edge 33, Type (0, 0), BuildingBlock: OJICUG_clean_linker_0, # of connection points: 2
#     Edge 34, Type (0, 0), BuildingBlock: OJICUG_clean_linker_0, # of connection points: 2
#     Edge 35, Type (0, 0), BuildingBlock: OJICUG_clean_linker_0, # of connection points: 2
#     Edge 36, Type (0, 0), BuildingBlock: OJICUG_clean_linker_0, # of connection points: 2
#     Edge 37, Type (0, 0), BuildingBlock: OJICUG_clean_linker_0, # of connection points: 2
#     Edge 38, Type (0, 0), BuildingBlock: OJICUG_clean_linker_0, # of connection points: 2
#     Edge 39, Type (0, 0), BuildingBlock: OJICUG_clean_linker_0, # of connection points: 2
#     Edge 40, Type (0, 0), BuildingBlock: OJICUG_clean_linker_0, # of connection points: 2
#     Edge 41, Type (0, 0), BuildingBlock: OJICUG_clean_linker_0, # of connection points: 2
#     Edge 42, Type (0, 0), BuildingBlock: OJICUG_clean_linker_0, # of connection points: 2
#     Edge 43, Type (0, 0), BuildingBlock: OJICUG_clean_linker_0, # of connection points: 2
#     Edge 44, Type (0, 0), BuildingBlock: OJICUG_clean_linker_0, # of connection points: 2
#     Edge 45, Type (0, 0), BuildingBlock: OJICUG_clean_linker_0, # of connection points: 2
#     Edge 46, Type (0, 0), BuildingBlock: OJICUG_clean_linker_0, # of connection points: 2
#     Edge 47, Type (0, 0), BuildingBlock: OJICUG_clean_linker_0, # of connection points: 2
# Relax obj value: 0.005
# Max RMSD: 0.054
# Mean RMSD: 0.054
data_MOF--net-neb--node1-ICAMEG_clean_sbu_1--edge1-OJICUG_clean_linker_0
_symmetry_space_group_name_H-M    P1
_symmetry_Int_Tables_number       1
_symmetry_cell_setting            triclinic
loop_
_symmetry_equiv_pos_as_xyz
'x, y, z'
_cell_length_a     30.423628
_cell_length_b     18.133942
_cell_length_c     62.726552
_cell_angle_alpha  90.003332
_cell_angle_beta   102.64259
_cell_angle_gamma 89.999896
loop_
_atom_site_label
_atom_site_type_symbol
_atom_site_fract_x
_atom_site_fract_y
_atom_site_fract_z
_atom_type_partial_charge
Co0 Co 0.17577 0.09247 0.42296 0.0
Co1 Co 0.09367 0.18985 0.44049 0.0
O2 O 0.1166 0.09756 0.43064 0.0
C3 C 0.11601 0.98437 0.39241 0.0
O4 O 0.08122 0.99672 0.4011 0.0
C5 C 0.0746 0.0804 0.47301 0.0
O6 O 0.11619 0.05626 0.47594 0.0
O7 O 0.14877 0.19816 0.46445 0.0
O8 O 0.2016 0.16496 0.44638 0.0
H9 H 0.10652 0.4523 0.46686 0.0
H10 H 0.13077 0.95684 0.43581 0.0
O11 O 0.15302 0.01897 0.39899 0.0
H12 H 0.28156 0.9625 0.48441 0.0
H13 H 0.30521 0.96618 0.39967 0.0
H14 H 0.24394 0.2042 0.41776 0.0
H15 H 0.25817 0.0599 0.45696 0.0
H16 H 0.23216 0.97161 0.41055 0.0
O17 O 0.06136 0.13328 0.45987 0.0
H18 H 0.13361 0.33662 0.45354 0.0
H19 H 1.00557 0.23751 0.44964 0.0
H20 H 0.31732 0.20113 0.40717 0.0
H21 H 0.153 0.85801 0.46271 0.0
H22 H 0.34842 0.08148 0.39801 0.0
H23 H 0.22895 0.86018 0.48734 0.0
O24 O 0.15845 0.1747 0.40166 0.0
H25 H 0.96137 0.05712 0.39434 0.0
H26 H 0.0434 0.29306 0.40655 0.0
H27 H 0.97635 0.28276 0.37648 0.0
H28 H 0.93465 0.16414 0.37027 0.0
H29 H 0.02897 0.06973 0.42407 0.0
H30 H 0.97721 0.35197 0.46306 0.0
H31 H 0.02778 0.46051 0.47171 0.0
O32 O 0.12379 0.25006 0.42104 0.0
C33 C 0.18979 0.19472 0.46267 0.0
C34 C 0.08412 0.40545 0.4631 0.0
C35 C 0.01157 0.34911 0.46099 0.0
N36 N 0.07116 0.28045 0.45069 0.0
C37 C 0.09924 0.33982 0.45551 0.0
C38 C 0.02787 0.28436 0.45345 0.0
C39 C 0.03995 0.41 0.46583 0.0
C40 C 0.16416 0.95777 0.44595 0.0
N41 N 0.19345 0.01338 0.44417 0.0
C42 C 0.17646 0.90178 0.46141 0.0
C43 C 0.219 0.90314 0.47527 0.0
C44 C 0.24851 0.96049 0.47363 0.0
C45 C 0.23503 0.01553 0.458 0.0
C46 C 0.29204 0.01864 0.40365 0.0
C47 C 0.25734 0.15184 0.41394 0.0
C48 C 0.25061 0.02212 0.40976 0.0
N49 N 0.23387 0.08815 0.41492 0.0
C50 C 0.29887 0.15048 0.40789 0.0
C51 C 0.31628 0.08335 0.40274 0.0
C52 C 0.14313 0.23793 0.40528 0.0
C53 C 0.97929 0.10906 0.39685 0.0
C54 C 0.02594 0.241 0.40376 0.0
C55 C 0.98775 0.23561 0.38679 0.0
C56 C 0.96434 0.16909 0.38333 0.0
N57 N 0.04048 0.18185 0.41693 0.0
C58 C 0.01761 0.11654 0.41366 0.0
Co59 Co 0.09357 0.09016 0.8171 0.0
Co60 Co 0.17586 0.18777 0.7998 0.0
O61 O 0.15283 0.09535 0.80952 0.0
C62 C 0.1531 0.98173 0.84763 0.0
O63 O 0.18799 0.99401 0.83902 0.0
C64 C 0.19522 0.07869 0.76723 0.0
O65 O 0.15364 0.05443 0.76421 0.0
O66 O 0.12089 0.1963 0.77578 0.0
O67 O 0.0679 0.16287 0.79373 0.0
H68 H 0.16318 0.45046 0.77365 0.0
H69 H 0.13866 0.95468 0.8042 0.0
O70 O 0.11615 0.01646 0.84102 0.0
H71 H 0.98806 0.96071 0.75543 0.0
H72 H 0.96386 0.96356 0.84007 0.0
H73 H 0.02532 0.2018 0.82228 0.0
H74 H 0.01133 0.05788 0.78296 0.0
H75 H 0.03704 0.96915 0.82931 0.0
O76 O 0.20834 0.13145 0.78043 0.0
H77 H 0.13599 0.33463 0.78682 0.0
H78 H 0.2641 0.23562 0.79084 0.0
H79 H 0.95182 0.19857 0.83274 0.0
H80 H 0.11655 0.85607 0.77722 0.0
H81 H 0.92063 0.07882 0.84174 0.0
H82 H 0.0407 0.85842 0.7525 0.0
O83 O 0.11077 0.1722 0.83849 0.0
H84 H 0.30791 0.05464 0.84601 0.0
H85 H 0.22596 0.29066 0.83388 0.0
H86 H 0.29287 0.2801 0.86403 0.0
H87 H 0.33453 0.16144 0.87019 0.0
H88 H 0.24045 0.06751 0.81621 0.0
H89 H 0.29256 0.35025 0.77757 0.0
H90 H 0.242 0.4588 0.76893 0.0
O91 O 0.1456 0.24773 0.81924 0.0
C92 C 0.07983 0.19288 0.77751 0.0
C93 C 0.18557 0.4036 0.77741 0.0
C94 C 0.25816 0.34732 0.77958 0.0
N95 N 0.19846 0.27849 0.78972 0.0
C96 C 0.17039 0.33788 0.78492 0.0
C97 C 0.2418 0.28248 0.78704 0.0
C98 C 0.22978 0.40822 0.77475 0.0
C99 C 0.1053 0.95568 0.79402 0.0
N100 N 0.076 1.01127 0.79581 0.0
C101 C 0.09308 0.89982 0.77852 0.0
C102 C 0.05059 0.90128 0.76461 0.0
C103 C 0.02106 0.95862 0.76625 0.0
C104 C 0.03448 0.01353 0.78193 0.0
C105 C 0.97707 0.01607 0.83615 0.0
C106 C 0.01188 0.14939 0.82603 0.0
C107 C 0.01857 0.01963 0.83011 0.0
N108 N 0.03537 0.08572 0.82504 0.0
C109 C 0.97028 0.14794 0.83201 0.0
C110 C 0.95282 0.08075 0.83708 0.0
C111 C 0.12612 0.23547 0.83494 0.0
C112 C 0.29001 0.1066 0.84352 0.0
C113 C 0.24341 0.23859 0.83665 0.0
C114 C 0.28151 0.23305 0.85366 0.0
C115 C 0.3049 0.16651 0.85709 0.0
N116 N 0.22893 0.17956 0.82342 0.0
C117 C 0.25178 0.11422 0.82666 0.0
Co118 Co 0.84479 0.93326 0.56717 0.0
Co119 Co 0.92702 0.83564 0.54982 0.0
O120 O 0.90399 0.92806 0.55954 0.0
C121 C 0.90435 0.04184 0.59764 0.0
O122 O 0.93922 0.0296 0.589 0.0
C123 C 0.94602 0.94466 0.51717 0.0
O124 O 0.90441 0.96873 0.51422 0.0
O125 O 0.87195 0.82688 0.52585 0.0
O126 O 0.81906 0.86047 0.54384 0.0
H127 H 0.91446 0.57278 0.5238 0.0
H128 H 0.88978 0.06871 0.5542 0.0
O129 O 0.86742 1.00703 0.59106 0.0
H130 H 0.73909 0.06243 0.50552 0.0
H131 H 0.71518 0.05992 0.59021 0.0
H132 H 0.77661 0.82162 0.57245 0.0
H133 H 0.76245 0.96538 0.53308 0.0
H134 H 0.78829 0.0543 0.57939 0.0
O135 O 0.9593 0.89196 0.53038 0.0
H136 H 0.88724 0.68862 0.53696 0.0
H137 H 0.01518 0.78795 0.54075 0.0
H138 H 0.70317 0.82488 0.58297 0.0
H139 H 0.86757 0.1672 0.52719 0.0
H140 H 0.67199 0.94466 0.59196 0.0
H141 H 0.79168 0.16472 0.50251 0.0
O142 O 0.86207 0.85129 0.58857 0.0
H143 H 0.05913 0.96922 0.59583 0.0
H144 H 0.97737 0.73299 0.5839 0.0
H145 H 0.04439 0.7438 0.61397 0.0
H146 H 0.08596 0.86257 0.62004 0.0
H147 H 0.99156 0.9561 0.56611 0.0
H148 H 0.04367 0.67332 0.52749 0.0
H149 H 0.99321 0.5646 0.51898 0.0
O150 O 0.89693 0.77571 0.56933 0.0
C151 C 0.83092 0.83034 0.52762 0.0
C152 C 0.93681 0.61971 0.52751 0.0
C153 C 1.00931 0.67617 0.52955 0.0
N154 N 0.94964 0.74491 0.53975 0.0
C155 C 0.92162 0.68543 0.53501 0.0
C156 C 0.99294 0.74102 0.537 0.0
C157 C 0.98099 0.61518 0.52479 0.0
C158 C 0.8564 0.06766 0.54404 0.0
N159 N 0.82713 0.01206 0.54587 0.0
C160 C 0.84412 0.12345 0.52852 0.0
C161 C 0.80161 0.12191 0.51463 0.0
C162 C 0.77211 0.06458 0.51631 0.0
C163 C 0.78558 1.00973 0.53201 0.0
C164 C 0.72838 1.00739 0.5863 0.0
C165 C 0.76317 0.87403 0.5762 0.0
C166 C 0.76984 1.00382 0.58023 0.0
N167 N 0.78664 0.93771 0.57516 0.0
C168 C 0.7216 0.8755 0.58221 0.0
C169 C 0.70415 0.94272 0.58727 0.0
C170 C 0.87746 0.78802 0.58505 0.0
C171 C 0.04127 0.91721 0.59338 0.0
C172 C 0.99477 0.78511 0.58662 0.0
C173 C 0.03294 0.79078 0.60359 0.0
C174 C 0.05628 0.85739 0.60697 0.0
N175 N 0.98018 0.84405 0.57338 0.0
C176 C 1.00297 0.90945 0.57657 0.0
Co177 Co 0.92448 0.93253 0.17284 0.0
Co178 Co 0.8424 0.83492 0.19032 0.0
O179 O 0.86532 0.92732 0.18053 0.0
C180 C 0.86475 0.04091 0.14239 0.0
O181 O 0.82995 0.02862 0.15107 0.0
C182 C 0.82339 0.94403 0.22293 0.0
O183 O 0.86499 0.96815 0.22587 0.0
O184 O 0.89751 0.82645 0.21426 0.0
O185 O 0.95033 0.85988 0.19621 0.0
H186 H 0.85526 0.57225 0.21649 0.0
H187 H 0.87947 0.06798 0.18582 0.0
O188 O 0.90172 1.00618 0.14893 0.0
H189 H 0.03031 0.06211 0.23436 0.0
H190 H 0.05387 0.05917 0.14961 0.0
H191 H 0.99266 0.82093 0.16756 0.0
H192 H 1.0069 0.96492 0.20685 0.0
H193 H 0.98084 0.05356 0.16051 0.0
O194 O 0.81012 0.89129 0.20974 0.0
H195 H 0.88234 0.68807 0.20325 0.0
H196 H 0.75432 0.78711 0.19945 0.0
H197 H 0.06602 0.82419 0.15695 0.0
H198 H 0.90172 0.16661 0.21278 0.0
H199 H 0.09709 0.94395 0.14787 0.0
H200 H 0.9777 0.16434 0.23739 0.0
O201 O 0.90716 0.85045 0.15149 0.0
H202 H 0.7101 0.96796 0.14428 0.0
H203 H 0.79209 0.73196 0.15631 0.0
H204 H 0.72502 0.74246 0.12626 0.0
H205 H 0.68333 0.86111 0.12014 0.0
H206 H 0.77772 0.95514 0.17399 0.0
H207 H 0.72597 0.6725 0.21279 0.0
H208 H 0.77654 0.56394 0.22135 0.0
O209 O 0.8725 0.77491 0.17082 0.0
C210 C 0.93853 0.82995 0.21247 0.0
C211 C 0.83286 0.61912 0.21276 0.0
C212 C 0.76032 0.67541 0.21072 0.0
N213 N 0.8199 0.74421 0.20045 0.0
C214 C 0.84798 0.68482 0.20522 0.0
C215 C 0.77661 0.74025 0.20322 0.0
C216 C 0.78871 0.61451 0.2155 0.0
C217 C 0.91288 0.06702 0.19594 0.0
N218 N 0.94217 0.01146 0.19411 0.0
C219 C 0.92519 0.12289 0.21144 0.0
C220 C 0.96774 0.12147 0.22529 0.0
C221 C 0.99725 0.06417 0.22359 0.0
C222 C 0.98376 1.00925 0.20792 0.0
C223 C 0.04072 1.00666 0.15356 0.0
C224 C 1.00605 0.87333 0.16377 0.0
C225 C 0.9993 1.00309 0.15968 0.0
N226 N 0.98257 0.93699 0.1648 0.0
C227 C 0.04757 0.8748 0.15771 0.0
C228 C 0.06496 0.942 0.1526 0.0
C229 C 0.89184 0.78717 0.15506 0.0
C230 C 0.72801 0.916 0.14675 0.0
C231 C 0.77463 0.78403 0.15356 0.0
C232 C 0.73643 0.78953 0.1366 0.0
C233 C 0.71303 0.85607 0.1332 0.0
N234 N 0.78919 0.84308 0.16677 0.0
C235 C 0.76634 0.90841 0.16355 0.0
Co236 Co 0.17386 0.59015 0.92261 0.0
Co237 Co 0.09156 0.68767 0.93995 0.0
O238 O 0.11463 0.5953 0.93023 0.0
C239 C 0.11427 0.48173 0.8921 0.0
O240 O 0.07942 0.494 0.90074 0.0
C241 C 0.07266 0.57877 0.97264 0.0
O242 O 0.11431 0.55489 0.97564 0.0
O243 O 0.1466 0.69642 0.96393 0.0
O244 O 0.19958 0.66283 0.94599 0.0
H245 H 0.104 0.9505 0.966 0.0
H246 H 0.12881 0.45466 0.93553 0.0
O247 O 0.15123 0.51646 0.89869 0.0
H248 H 0.27947 0.46071 0.98424 0.0
H249 H 0.30349 0.4636 0.89956 0.0
H250 H 0.24208 0.7018 0.91741 0.0
H251 H 0.25616 0.55786 0.95671 0.0
H252 H 0.23035 0.46916 0.91036 0.0
O253 O 0.05929 0.63128 0.95939 0.0
H254 H 0.13129 0.8347 0.95284 0.0
H255 H 1.00336 0.73525 0.949 0.0
H256 H 0.31554 0.6986 0.9069 0.0
H257 H 0.15096 0.35608 0.96251 0.0
H258 H 0.34671 0.57886 0.89787 0.0
H259 H 0.22685 0.35844 0.98721 0.0
O260 O 0.15663 0.6722 0.90124 0.0
H261 H 0.95946 0.55409 0.89393 0.0
H262 H 0.04124 0.79031 0.90586 0.0
H263 H 0.97423 0.77949 0.87579 0.0
H264 H 0.93265 0.66074 0.86972 0.0
H265 H 0.02703 0.56721 0.92366 0.0
H266 H 0.97481 0.84983 0.96225 0.0
H267 H 0.02523 0.95859 0.97079 0.0
O268 O 0.12166 0.74767 0.92046 0.0
C269 C 0.18766 0.69291 0.9622 0.0
C270 C 0.08167 0.90355 0.96228 0.0
C271 C 1.00919 0.84702 0.96021 0.0
N272 N 0.06891 0.77835 0.95003 0.0
C273 C 0.0969 0.83785 0.95478 0.0
C274 C 0.02559 0.7822 0.95276 0.0
C275 C 0.03749 0.90803 0.96498 0.0
C276 C 0.16218 0.45567 0.9457 0.0
N277 N 0.19148 0.51125 0.94389 0.0
C278 C 0.17443 0.39982 0.9612 0.0
C279 C 0.21694 0.40129 0.9751 0.0
C280 C 0.24645 0.45861 0.97344 0.0
C281 C 0.23302 0.51351 0.95775 0.0
C282 C 0.29029 0.5161 0.90349 0.0
C283 C 0.25551 0.64941 0.91364 0.0
C284 C 0.24882 0.51965 0.90955 0.0
N285 N 0.23203 0.58573 0.91465 0.0
C286 C 0.29709 0.64797 0.90764 0.0
C287 C 0.31454 0.58078 0.90255 0.0
C288 C 0.14119 0.73543 0.90477 0.0
C289 C 0.97733 0.60609 0.89638 0.0
C290 C 0.02383 0.73819 0.90314 0.0
C291 C 0.98567 0.73251 0.88616 0.0
C292 C 0.96232 0.66592 0.88279 0.0
N293 N 0.03842 0.67925 0.91638 0.0
C294 C 0.01562 0.61386 0.91319 0.0
Co295 Co 0.09449 0.59241 0.31759 0.0
Co296 Co 0.17653 0.68968 0.29996 0.0
O297 O 0.15359 0.59744 0.30984 0.0
C298 C 0.15435 0.48433 0.34809 0.0
O299 O 0.18908 0.49662 0.33936 0.0
C300 C 0.19518 0.58014 0.26738 0.0
O301 O 0.15356 0.55619 0.26454 0.0
O302 O 0.12133 0.69815 0.27608 0.0
O303 O 0.06857 0.66487 0.29418 0.0
H304 H 0.16379 0.95217 0.27364 0.0
H305 H 0.13937 0.4567 0.3047 0.0
O306 O 0.11733 0.51895 0.34155 0.0
H307 H 0.98845 0.46243 0.25623 0.0
H308 H 0.96521 0.46622 0.34105 0.0
H309 H 0.02638 0.70418 0.32285 0.0
H310 H 0.01197 0.55985 0.28366 0.0
H311 H 0.03818 0.4716 0.33008 0.0
O312 O 0.20861 0.633 0.28051 0.0
H313 H 0.13669 0.83657 0.287 0.0
H314 H 0.26454 0.73707 0.29066 0.0
H315 H 0.95309 0.70116 0.33353 0.0
H316 H 0.117 0.35785 0.27782 0.0
H317 H 0.92204 0.58154 0.34274 0.0
H318 H 0.04099 0.36005 0.25325 0.0
O319 O 0.11191 0.67467 0.33887 0.0
H320 H 0.30894 0.5566 0.3459 0.0
H321 H 0.22709 0.79272 0.33387 0.0
H322 H 0.29429 0.78224 0.36385 0.0
H323 H 0.3359 0.66353 0.36997 0.0
H324 H 0.24118 0.56938 0.31626 0.0
H325 H 0.29291 0.85146 0.2772 0.0
H326 H 0.24243 0.96014 0.26865 0.0
O327 O 0.14662 0.74994 0.31949 0.0
C328 C 0.08033 0.69471 0.27789 0.0
C329 C 0.18615 0.90526 0.27736 0.0
C330 C 0.25859 0.8487 0.27933 0.0
N331 N 0.19905 0.78021 0.28973 0.0
C332 C 0.17102 0.83967 0.28498 0.0
C333 C 0.24229 0.78399 0.2869 0.0
C334 C 0.23026 0.90967 0.27455 0.0
C335 C 0.10595 0.45765 0.29459 0.0
N336 N 0.0767 0.5133 0.2964 0.0
C337 C 0.09357 0.40164 0.27914 0.0
C338 C 0.05099 0.40303 0.26532 0.0
C339 C 0.02152 0.46041 0.26698 0.0
C340 C 0.03508 0.51546 0.28261 0.0
C341 C 0.97835 0.51867 0.33705 0.0
C342 C 0.013 0.65184 0.3267 0.0
C343 C 0.01974 0.52211 0.33089 0.0
N344 N 0.03646 0.58813 0.3257 0.0
C345 C 0.97152 0.6505 0.33279 0.0
C346 C 0.95414 0.58338 0.33798 0.0
C347 C 0.12728 0.73786 0.33526 0.0
C348 C 0.29106 0.60858 0.34343 0.0
C349 C 0.24451 0.74062 0.33662 0.0
C350 C 0.28279 0.73513 0.35354 0.0
C351 C 0.30615 0.66856 0.35694 0.0
N352 N 0.22984 0.68152 0.32345 0.0
C353 C 0.25266 0.61616 0.32667 0.0
Co354 Co 0.84354 0.43251 0.06738 0.0
Co355 Co 0.92573 0.33495 0.04995 0.0
O356 O 0.9027 0.42734 0.05969 0.0
C357 C 0.90324 0.54096 0.09782 0.0
O358 O 0.93804 0.52866 0.08913 0.0
C359 C 0.9445 0.4438 0.01721 0.0
O360 O 0.90286 0.46773 0.01425 0.0
O361 O 0.8706 0.3261 0.02604 0.0
O362 O 0.81773 0.35975 0.04404 0.0
H363 H 0.91321 0.07205 0.02397 0.0
H364 H 0.88848 0.56798 0.05438 0.0
O365 O 0.86627 0.50624 0.09128 0.0
H366 H 0.73769 0.56177 0.0058 0.0
H367 H 0.71407 0.55913 0.09055 0.0
H368 H 0.77539 0.32086 0.07269 0.0
H369 H 0.76112 0.46469 0.03334 0.0
H370 H 0.78712 0.55352 0.07967 0.0
O371 O 0.95789 0.39129 0.03047 0.0
H372 H 0.88599 0.18788 0.03714 0.0
H373 H 0.01385 0.28736 0.04082 0.0
H374 H 0.70201 0.32411 0.08327 0.0
H375 H 0.8662 0.6665 0.02739 0.0
H376 H 0.67088 0.44388 0.09231 0.0
H377 H 0.79025 0.66405 0.00276 0.0
O378 O 0.86088 0.35049 0.08876 0.0
H379 H 0.05794 0.46869 0.09583 0.0
H380 H 0.97619 0.23242 0.08404 0.0
H381 H 0.0433 0.24334 0.11406 0.0
H382 H 0.08486 0.36212 0.12006 0.0
H383 H 0.99029 0.45547 0.06616 0.0
H384 H 0.04234 0.17275 0.02756 0.0
H385 H 0.99193 0.06396 0.0191 0.0
O386 O 0.89575 0.27501 0.06951 0.0
C387 C 0.82958 0.32955 0.02782 0.0
C388 C 0.93555 0.11902 0.02766 0.0
C389 C 1.00799 0.17556 0.02964 0.0
N390 N 0.94834 0.24425 0.03987 0.0
C391 C 0.92035 0.18473 0.03516 0.0
C392 C 0.99162 0.2404 0.03709 0.0
C393 C 0.9797 0.11453 0.0249 0.0
C394 C 0.85509 0.56694 0.04425 0.0
N395 N 0.82582 0.51135 0.04609 0.0
C396 C 0.84276 0.62275 0.02873 0.0
C397 C 0.80022 0.62123 0.01487 0.0
C398 C 0.77073 0.5639 0.01658 0.0
C399 C 0.78424 0.50904 0.03227 0.0
C400 C 0.72724 0.50661 0.08662 0.0
C401 C 0.76198 0.37327 0.07646 0.0
C402 C 0.76868 0.50304 0.08051 0.0
N403 N 0.78544 0.43694 0.07541 0.0
C404 C 0.72044 0.37473 0.0825 0.0
C405 C 0.70302 0.44194 0.08759 0.0
C406 C 0.8763 0.28726 0.08522 0.0
C407 C 0.04009 0.41668 0.09341 0.0
C408 C 0.9936 0.28455 0.08673 0.0
C409 C 0.03181 0.29029 0.10367 0.0
C410 C 0.05515 0.3569 0.10701 0.0
N411 N 0.97895 0.34345 0.07348 0.0
C412 C 1.00174 0.40885 0.07663 0.0
Co413 Co 0.925 0.43325 0.67273 0.0
Co414 Co 0.84255 0.33564 0.68993 0.0
O415 O 0.86573 0.42807 0.6803 0.0
C416 C 0.86555 0.54188 0.64223 0.0
O417 O 0.83063 0.52958 0.65083 0.0
C418 C 0.82371 0.44406 0.72277 0.0
O419 O 0.86541 0.46776 0.72585 0.0
O420 O 0.89756 0.32653 0.71391 0.0
O421 O 0.95061 0.36038 0.69606 0.0
H422 H 0.85465 0.0725 0.71569 0.0
H423 H 0.87994 0.56864 0.68569 0.0
O424 O 0.90248 0.5071 0.64884 0.0
H425 H 0.03045 0.56218 0.73453 0.0
H426 H 0.05483 0.55995 0.6499 0.0
H427 H 0.99321 0.32161 0.6675 0.0
H428 H 1.00722 0.46526 0.70691 0.0
H429 H 0.98162 0.55431 0.66062 0.0
O430 O 0.81029 0.39187 0.7094 0.0
H431 H 0.88211 0.18841 0.70269 0.0
H432 H 0.75426 0.28811 0.69887 0.0
H433 H 0.06675 0.32488 0.65707 0.0
H434 H 0.90201 0.66699 0.71276 0.0
H435 H 0.09803 0.44469 0.64817 0.0
H436 H 0.97782 0.66442 0.73752 0.0
O437 O 0.90781 0.35134 0.65129 0.0
H438 H 0.71064 0.46987 0.64399 0.0
H439 H 0.79222 0.23345 0.6557 0.0
H440 H 0.72527 0.24467 0.62561 0.0
H441 H 0.68379 0.36353 0.61965 0.0
H442 H 0.77814 0.45635 0.67373 0.0
H443 H 0.72554 0.17341 0.71197 0.0
H444 H 0.77583 0.06447 0.72041 0.0
O445 O 0.87265 0.27582 0.6704 0.0
C446 C 0.93863 0.33004 0.71221 0.0
C447 C 0.83237 0.11953 0.71201 0.0
C448 C 0.75994 0.1762 0.70996 0.0
N449 N 0.81978 0.24489 0.6999 0.0
C450 C 0.8477 0.1853 0.7046 0.0
C451 C 0.77644 0.24108 0.70259 0.0
C452 C 0.78816 0.11508 0.71468 0.0
C453 C 0.91327 0.56755 0.69588 0.0
N454 N 0.94258 0.51198 0.69407 0.0
C455 C 0.92548 0.62326 0.71144 0.0
C456 C 0.96795 0.62167 0.72537 0.0
C457 C 0.99747 0.56437 0.7237 0.0
C458 C 0.98407 0.5096 0.70796 0.0
C459 C 0.04159 0.50742 0.65378 0.0
C460 C 1.00669 0.37403 0.66378 0.0
C461 C 1.00007 0.50383 0.65979 0.0
N462 N 0.98322 0.43771 0.66481 0.0
C463 C 0.04831 0.37551 0.65783 0.0
C464 C 0.06582 0.44274 0.65282 0.0
C465 C 0.89229 0.28812 0.65476 0.0
C466 C 0.72845 0.41782 0.64639 0.0
C467 C 0.77486 0.28561 0.65303 0.0
C468 C 0.73672 0.29152 0.63604 0.0
C469 C 0.71343 0.35817 0.63273 0.0
N470 N 0.78946 0.34439 0.66635 0.0
C471 C 0.76671 0.40983 0.66321 0.0
Co472 Co 0.67444 0.08871 0.92325 0.0
Co473 Co 0.5921 0.18637 0.9405 0.0
O474 O 0.61521 0.0939 0.93085 0.0
C475 C 0.61499 0.9799 0.89281 0.0
O476 O 0.58009 0.99213 0.90142 0.0
C477 C 0.57306 0.07765 0.97322 0.0
O478 O 0.61468 0.05359 0.97624 0.0
O479 O 0.64713 0.19536 0.96448 0.0
O480 O 0.70009 0.16166 0.94655 0.0
H481 H 0.60445 0.44942 0.96635 0.0
H482 H 0.62948 0.95331 0.93627 0.0
O483 O 0.6519 0.01479 0.89939 0.0
H484 H 0.7801 0.95997 0.98501 0.0
H485 H 0.8042 0.96201 0.90036 0.0
H486 H 0.74259 0.20037 0.91795 0.0
H487 H 0.75674 0.05684 0.95739 0.0
H488 H 0.73104 0.96764 0.91113 0.0
O489 O 0.5598 0.13018 0.95996 0.0
H490 H 0.63177 0.33351 0.95328 0.0
H491 H 0.50386 0.23407 0.94949 0.0
H492 H 0.81608 0.1971 0.90747 0.0
H493 H 0.65168 0.855 0.96334 0.0
H494 H 0.84735 0.07728 0.89857 0.0
H495 H 0.72754 0.85767 0.98805 0.0
O496 O 0.65717 0.17055 0.9018 0.0
H497 H 0.46014 0.05234 0.89453 0.0
H498 H 0.54175 0.28873 0.90634 0.0
H499 H 0.47478 0.27764 0.87625 0.0
H500 H 0.43328 0.1588 0.87024 0.0
H501 H 0.52766 0.06574 0.92427 0.0
H502 H 0.47527 0.34877 0.96265 0.0
H503 H 0.52567 0.45759 0.97112 0.0
O504 O 0.6222 0.24618 0.92097 0.0
C505 C 0.68817 0.19192 0.96274 0.0
C506 C 0.58213 0.40245 0.96266 0.0
C507 C 0.50965 0.34593 0.96061 0.0
N508 N 0.5694 0.27715 0.9505 0.0
C509 C 0.59739 0.33669 0.95521 0.0
C510 C 0.52608 0.28104 0.95322 0.0
C511 C 0.53794 0.40697 0.96535 0.0
C512 C 0.66284 0.95445 0.94644 0.0
N513 N 0.6921 1.01005 0.9446 0.0
C514 C 0.67512 0.89876 0.962 0.0
C515 C 0.71761 0.9004 0.9759 0.0
C516 C 0.74709 0.95774 0.9742 0.0
C517 C 0.73362 0.01248 0.95847 0.0
C518 C 0.79096 0.01455 0.90423 0.0
C519 C 0.75607 0.14794 0.91424 0.0
C520 C 0.74947 0.01813 0.91027 0.0
N521 N 0.73263 0.08426 0.9153 0.0
C522 C 0.79766 0.14647 0.90825 0.0
C523 C 0.81517 0.07923 0.90324 0.0
C524 C 0.64172 0.23382 0.90528 0.0
C525 C 0.47796 0.10438 0.89695 0.0
C526 C 0.52437 0.23658 0.90364 0.0
C527 C 0.48623 0.23074 0.88666 0.0
C528 C 0.46294 0.1641 0.88331 0.0
N529 N 0.53898 0.17774 0.91693 0.0
C530 C 0.51623 0.1123 0.91377 0.0
Co531 Co 0.59398 0.09083 0.31743 0.0
Co532 Co 0.67598 0.18843 0.29989 0.0
O533 O 0.6531 0.09603 0.3097 0.0
C534 C 0.65379 0.9825 0.34787 0.0
O535 O 0.68855 0.99479 0.33915 0.0
C536 C 0.69494 0.07928 0.26727 0.0
O537 O 0.65335 0.05513 0.26434 0.0
O538 O 0.62082 0.19686 0.27597 0.0
O539 O 0.56808 0.16346 0.29407 0.0
H540 H 0.66304 0.45106 0.27369 0.0
H541 H 0.63894 0.95536 0.30443 0.0
O542 O 0.6168 0.0172 0.34134 0.0
H543 H 0.48801 0.96121 0.25597 0.0
H544 H 0.46469 0.96422 0.34076 0.0
H545 H 0.52583 0.20245 0.32275 0.0
H546 H 0.51149 0.05842 0.28346 0.0
H547 H 0.53767 0.96982 0.32981 0.0
O548 O 0.70822 0.13204 0.28045 0.0
H549 H 0.63601 0.33526 0.28696 0.0
H550 H 0.76402 0.23624 0.2907 0.0
H551 H 0.45252 0.19921 0.33341 0.0
H552 H 0.61662 0.85672 0.27748 0.0
H553 H 0.42149 0.07946 0.34252 0.0
H554 H 0.5406 0.85898 0.25291 0.0
O555 O 0.61136 0.17293 0.33878 0.0
H556 H 0.80837 0.05546 0.34588 0.0
H557 H 0.72635 0.29143 0.33387 0.0
H558 H 0.79347 0.28096 0.36389 0.0
H559 H 0.83517 0.16233 0.37 0.0
H560 H 0.7407 0.06823 0.3162 0.0
H561 H 0.79232 0.35084 0.27734 0.0
H562 H 0.74173 0.45939 0.26879 0.0
O563 O 0.64594 0.24845 0.31941 0.0
C564 C 0.57982 0.19338 0.27779 0.0
C565 C 0.68544 0.40421 0.27741 0.0
C566 C 0.75798 0.34792 0.27943 0.0
N567 N 0.69845 0.27912 0.28973 0.0
C568 C 0.67036 0.33851 0.28497 0.0
C569 C 0.74171 0.2831 0.28694 0.0
C570 C 0.72958 0.40882 0.27465 0.0
C571 C 0.60551 0.95633 0.29432 0.0
N572 N 0.57623 0.01189 0.29617 0.0
C573 C 0.59317 0.90044 0.27884 0.0
C574 C 0.55059 0.90186 0.26501 0.0
C575 C 0.52109 0.95916 0.26672 0.0
C576 C 0.53462 0.0141 0.28238 0.0
C577 C 0.47783 0.01673 0.3368 0.0
C578 C 0.51246 0.15005 0.32656 0.0
C579 C 0.51922 0.0203 0.33065 0.0
N580 N 0.53593 0.08639 0.32551 0.0
C581 C 0.47096 0.14859 0.33264 0.0
C582 C 0.45359 0.0814 0.33777 0.0
C583 C 0.62664 0.2362 0.33518 0.0
C584 C 0.79046 0.10741 0.34341 0.0
C585 C 0.74381 0.23937 0.33661 0.0
C586 C 0.78204 0.23388 0.35356 0.0
C587 C 0.80545 0.16735 0.35696 0.0
N588 N 0.72923 0.1803 0.32341 0.0
C589 C 0.7521 0.11498 0.32663 0.0
Co590 Co 0.34284 0.93113 0.06739 0.0
Co591 Co 0.42508 0.83361 0.05002 0.0
O592 O 0.40208 0.92597 0.0598 0.0
C593 C 0.40245 0.03931 0.09797 0.0
O594 O 0.43732 0.02694 0.08934 0.0
C595 C 0.44432 0.94277 0.01747 0.0
O596 O 0.40271 0.96688 0.01446 0.0
O597 O 0.37008 0.82521 0.02601 0.0
O598 O 0.31712 0.85856 0.04398 0.0
H599 H 0.41236 0.57103 0.02376 0.0
H600 H 0.38796 0.06666 0.05456 0.0
O601 O 0.36546 1.0047 0.09136 0.0
H602 H 0.23736 0.06093 0.00579 0.0
H603 H 0.21318 0.05762 0.09044 0.0
H604 H 0.27457 0.81947 0.07253 0.0
H605 H 0.26058 0.96363 0.03328 0.0
H606 H 0.28635 0.05208 0.07967 0.0
O607 O 0.45752 0.89006 0.03067 0.0
H608 H 0.38518 0.6868 0.03698 0.0
H609 H 0.51328 0.78584 0.04102 0.0
H610 H 0.20108 0.82266 0.083 0.0
H611 H 0.36589 0.16539 0.02762 0.0
H612 H 0.16992 0.94237 0.09207 0.0
H613 H 0.29004 0.16319 0.0029 0.0
O614 O 0.36002 0.84897 0.08873 0.0
H615 H 0.55721 0.96645 0.09626 0.0
H616 H 0.47515 0.73054 0.08406 0.0
H617 H 0.54207 0.74094 0.1142 0.0
H618 H 0.58379 0.85954 0.12041 0.0
H619 H 0.48973 0.95375 0.06647 0.0
H620 H 0.54174 0.67128 0.02771 0.0
H621 H 0.49117 0.56274 0.01904 0.0
O622 O 0.39482 0.77353 0.06943 0.0
C623 C 0.32903 0.82868 0.02773 0.0
C624 C 0.43476 0.61788 0.02753 0.0
C625 C 0.50734 0.67418 0.02972 0.0
N626 N 0.44765 0.74294 0.03989 0.0
C627 C 0.41958 0.68357 0.03507 0.0
C628 C 0.49099 0.73899 0.0372 0.0
C629 C 0.47896 0.61329 0.02487 0.0
C630 C 0.35461 0.06572 0.04438 0.0
N631 N 0.32528 1.01014 0.04615 0.0
C632 C 0.3424 0.12165 0.0289 0.0
C633 C 0.29992 0.12027 0.01499 0.0
C634 C 0.27036 0.06295 0.01661 0.0
C635 C 0.28376 1.00797 0.03227 0.0
C636 C 0.22637 1.00513 0.0865 0.0
C637 C 0.26114 0.87186 0.07631 0.0
C638 C 0.26787 1.0016 0.08046 0.0
N639 N 0.28465 0.93553 0.07534 0.0
C640 C 0.21955 0.87328 0.08229 0.0
C641 C 0.20211 0.94045 0.0874 0.0
C642 C 0.37536 0.78571 0.08515 0.0
C643 C 0.53929 0.91452 0.09376 0.0
C644 C 0.49262 0.7826 0.08684 0.0
C645 C 0.53074 0.78804 0.10385 0.0
C646 C 0.55416 0.85455 0.10731 0.0
N647 N 0.47817 0.84169 0.07363 0.0
C648 C 0.50104 0.90699 0.0769 0.0
Co649 Co 0.42602 0.93246 0.67331 0.0
Co650 Co 0.34367 0.83492 0.69059 0.0
O651 O 0.36675 0.92733 0.68089 0.0
C652 C 0.36653 0.04093 0.64278 0.0
O653 O 0.33164 0.02861 0.6514 0.0
C654 C 0.32433 0.94399 0.72317 0.0
O655 O 0.36591 0.96823 0.72619 0.0
O656 O 0.39863 0.82631 0.71461 0.0
O657 O 0.45166 0.85971 0.69668 0.0
H658 H 0.35622 0.57218 0.7167 0.0
H659 H 0.38099 0.06799 0.68621 0.0
O660 O 0.40349 1.0062 0.64939 0.0
H661 H 0.53155 0.06175 0.73501 0.0
H662 H 0.55582 0.05893 0.65039 0.0
H663 H 0.49423 0.82075 0.66813 0.0
H664 H 0.50826 0.96462 0.70747 0.0
H665 H 0.48262 0.05342 0.66113 0.0
O666 O 0.31121 0.89125 0.70996 0.0
H667 H 0.38348 0.688 0.70356 0.0
H668 H 0.2554 0.78715 0.69952 0.0
H669 H 0.56775 0.82391 0.65769 0.0
H670 H 0.40313 0.16656 0.71321 0.0
H671 H 0.59901 0.94364 0.64871 0.0
H672 H 0.47896 0.1641 0.73794 0.0
O673 O 0.40881 0.85045 0.65192 0.0
H674 H 0.2117 0.96822 0.64438 0.0
H675 H 0.29357 0.73213 0.65648 0.0
H676 H 0.2267 0.74279 0.62632 0.0
H677 H 0.18507 0.86149 0.62017 0.0
H678 H 0.27913 0.95525 0.67419 0.0
H679 H 0.22687 0.67253 0.71276 0.0
H680 H 0.27738 0.56392 0.72139 0.0
O681 O 0.37393 0.77494 0.67115 0.0
C682 C 0.43969 0.82968 0.71289 0.0
C683 C 0.33384 0.61907 0.71294 0.0
C684 C 0.26127 0.67542 0.71076 0.0
N685 N 0.32102 0.74421 0.70065 0.0
C686 C 0.34906 0.68478 0.70545 0.0
C687 C 0.27767 0.74026 0.70332 0.0
C688 C 0.28962 0.61449 0.71559 0.0
C689 C 0.41434 0.06694 0.6964 0.0
N690 N 0.44362 1.01131 0.69461 0.0
C691 C 0.42658 0.12278 0.71191 0.0
C692 C 0.46905 0.12125 0.72583 0.0
C693 C 0.49856 0.06388 0.72419 0.0
C694 C 0.48513 1.009 0.7085 0.0
C695 C 0.54258 1.00644 0.65429 0.0
C696 C 0.5077 0.87314 0.66439 0.0
C697 C 0.50107 1.00292 0.66032 0.0
N698 N 0.48424 0.93684 0.66539 0.0
C699 C 0.54932 0.87455 0.65842 0.0
C700 C 0.56681 0.94174 0.65336 0.0
C701 C 0.39343 0.78719 0.65545 0.0
C702 C 0.22958 0.91625 0.64686 0.0
C703 C 0.27614 0.78422 0.65372 0.0
C704 C 0.23805 0.78981 0.6367 0.0
C705 C 0.21468 0.85638 0.63327 0.0
N706 N 0.29062 0.84321 0.66696 0.0
C707 C 0.2678 0.90857 0.66373 0.0
Co708 Co 0.67521 0.59085 0.42284 0.0
Co709 Co 0.59313 0.68837 0.44036 0.0
O710 O 0.61609 0.596 0.43058 0.0
C711 C 0.61541 0.48247 0.39242 0.0
O712 O 0.58066 0.49477 0.40114 0.0
C713 C 0.57441 0.57937 0.47307 0.0
O714 O 0.61604 0.55542 0.47599 0.0
O715 O 0.6483 0.69707 0.46425 0.0
O716 O 0.70109 0.66354 0.44619 0.0
H717 H 0.60581 0.95115 0.46644 0.0
H718 H 0.63031 0.45534 0.43585 0.0
O719 O 0.6524 0.51717 0.39894 0.0
H720 H 0.78122 0.46142 0.48432 0.0
H721 H 0.80453 0.46429 0.39953 0.0
H722 H 0.74333 0.7025 0.41751 0.0
H723 H 0.75771 0.55857 0.45681 0.0
H724 H 0.73155 0.46986 0.41047 0.0
O725 O 0.561 0.63197 0.45985 0.0
H726 H 0.63295 0.83536 0.45321 0.0
H727 H 0.50507 0.73598 0.44957 0.0
H728 H 0.81664 0.69929 0.40686 0.0
H729 H 0.65266 0.35676 0.46282 0.0
H730 H 0.84771 0.57955 0.39776 0.0
H731 H 0.72867 0.35913 0.48739 0.0
O732 O 0.65781 0.67291 0.40149 0.0
H733 H 0.46079 0.5549 0.3945 0.0
H734 H 0.54262 0.79107 0.40634 0.0
H735 H 0.47546 0.78032 0.37634 0.0
H736 H 0.43386 0.66158 0.37032 0.0
H737 H 0.5285 0.56796 0.42414 0.0
H738 H 0.47667 0.85056 0.4629 0.0
H739 H 0.52714 0.95928 0.47137 0.0
O740 O 0.62307 0.74837 0.4208 0.0
C741 C 0.68931 0.69361 0.46244 0.0
C742 C 0.58346 0.90422 0.46275 0.0
C743 C 0.511 0.84773 0.46079 0.0
N744 N 0.57058 0.77904 0.45049 0.0
C745 C 0.59861 0.83852 0.45521 0.0
C746 C 0.52732 0.78291 0.4533 0.0
C747 C 0.53933 0.90872 0.46553 0.0
C748 C 0.66373 0.45636 0.44596 0.0
N749 N 0.69298 0.51195 0.44411 0.0
C750 C 0.67609 0.40051 0.46146 0.0
C751 C 0.71867 0.40199 0.47529 0.0
C752 C 0.74815 0.45932 0.47357 0.0
C753 C 0.73459 0.51422 0.4579 0.0
C754 C 0.79138 0.5168 0.40348 0.0
C755 C 0.75672 0.65011 0.41371 0.0
C756 C 0.74999 0.52035 0.40963 0.0
N757 N 0.73326 0.58643 0.41476 0.0
C758 C 0.79821 0.64867 0.40763 0.0
C759 C 0.8156 0.58148 0.4025 0.0
C760 C 0.64244 0.73615 0.40506 0.0
C761 C 0.47866 0.60689 0.39692 0.0
C762 C 0.5252 0.73896 0.40363 0.0
C763 C 0.48695 0.73332 0.3867 0.0
C764 C 0.46359 0.66673 0.38335 0.0
N765 N 0.53985 0.68 0.41686 0.0
C766 C 0.51704 0.61462 0.41369 0.0
Co767 Co 0.5943 0.58871 0.81761 0.0
Co768 Co 0.67683 0.68629 0.80047 0.0
O769 O 0.65358 0.59385 0.81005 0.0
C770 C 0.65367 0.47988 0.84807 0.0
O771 O 0.6886 0.49215 0.83947 0.0
C772 C 0.69563 0.57799 0.76759 0.0
O773 O 0.65392 0.55432 0.7645 0.0
O774 O 0.62184 0.69559 0.77648 0.0
O775 O 0.56874 0.66171 0.79431 0.0
H776 H 0.66491 0.94956 0.77482 0.0
H777 H 0.63929 0.45332 0.8046 0.0
O778 O 0.61676 0.51473 0.84147 0.0
H779 H 0.4888 0.46014 0.75575 0.0
H780 H 0.46438 0.46206 0.84037 0.0
H781 H 0.52614 0.7004 0.82287 0.0
H782 H 0.51208 0.55693 0.78341 0.0
H783 H 0.53761 0.46766 0.82966 0.0
O784 O 0.70907 0.63012 0.78098 0.0
H785 H 0.63737 0.83363 0.78777 0.0
H786 H 0.76516 0.73375 0.79156 0.0
H787 H 0.45259 0.69716 0.83329 0.0
H788 H 0.61716 0.35509 0.77749 0.0
H789 H 0.42124 0.57735 0.84214 0.0
H790 H 0.54136 0.35784 0.75273 0.0
O791 O 0.61152 0.67051 0.83908 0.0
H792 H 0.80863 0.55168 0.84635 0.0
H793 H 0.72721 0.78826 0.83474 0.0
H794 H 0.79415 0.77681 0.86484 0.0
H795 H 0.83555 0.65787 0.87074 0.0
H796 H 0.74115 0.56542 0.81662 0.0
H797 H 0.79397 0.84847 0.77851 0.0
H798 H 0.74375 0.95751 0.77011 0.0
O799 O 0.64676 0.74607 0.82002 0.0
C800 C 0.58076 0.69211 0.77817 0.0
C801 C 0.68716 0.90249 0.77848 0.0
C802 C 0.75957 0.84572 0.78052 0.0
N803 N 0.69967 0.77706 0.79054 0.0
C804 C 0.67178 0.83671 0.78586 0.0
C805 C 0.74302 0.78083 0.78785 0.0
C806 C 0.73138 0.90689 0.77582 0.0
C807 C 0.60596 0.45449 0.7944 0.0
N808 N 0.57669 0.51008 0.79624 0.0
C809 C 0.59372 0.39885 0.77883 0.0
C810 C 0.55126 0.40054 0.76489 0.0
C811 C 0.52177 0.45787 0.76658 0.0
C812 C 0.5352 0.51257 0.78234 0.0
C813 C 0.47765 0.51459 0.83652 0.0
C814 C 0.51263 0.64797 0.82656 0.0
C815 C 0.51918 0.51816 0.83051 0.0
N816 N 0.53607 0.58428 0.82551 0.0
C817 C 0.471 0.64652 0.83251 0.0
C818 C 0.45345 0.57929 0.8375 0.0
C819 C 0.62709 0.73373 0.83565 0.0
C820 C 0.79085 0.60376 0.84398 0.0
C821 C 0.74454 0.73606 0.8374 0.0
C822 C 0.78267 0.73003 0.85438 0.0
C823 C 0.80591 0.66332 0.85767 0.0
N824 N 0.72991 0.67737 0.82405 0.0
C825 C 0.7526 0.61188 0.82716 0.0
Co826 Co 0.34545 0.43252 0.5678 0.0
Co827 Co 0.42762 0.33504 0.55034 0.0
O828 O 0.40461 0.42739 0.56012 0.0
C829 C 0.40513 0.54093 0.59828 0.0
O830 O 0.43994 0.5287 0.58959 0.0
C831 C 0.44639 0.44407 0.51766 0.0
O832 O 0.40475 0.468 0.51472 0.0
O833 O 0.37249 0.32636 0.52642 0.0
O834 O 0.31963 0.35986 0.54444 0.0
H835 H 0.41503 0.07229 0.52424 0.0
H836 H 0.3904 0.56804 0.55484 0.0
O837 O 0.36817 0.50617 0.59172 0.0
H838 H 0.23958 0.56201 0.50628 0.0
H839 H 0.216 0.55897 0.59104 0.0
H840 H 0.2773 0.32082 0.57307 0.0
H841 H 0.26301 0.46483 0.53379 0.0
H842 H 0.28903 0.55346 0.58014 0.0
O843 O 0.45979 0.39148 0.53088 0.0
H844 H 0.38784 0.18805 0.53746 0.0
H845 H 0.51573 0.28749 0.54119 0.0
H846 H 0.20394 0.32398 0.58368 0.0
H847 H 0.36811 0.66666 0.52788 0.0
H848 H 0.17282 0.44369 0.59277 0.0
H849 H 0.29215 0.6643 0.50327 0.0
O850 O 0.36279 0.35044 0.58916 0.0
H851 H 0.55985 0.46855 0.59628 0.0
H852 H 0.47809 0.23232 0.58437 0.0
H853 H 0.54521 0.24308 0.61439 0.0
H854 H 0.58678 0.36184 0.62045 0.0
H855 H 0.49218 0.45549 0.56661 0.0
H856 H 0.54419 0.17295 0.52787 0.0
H857 H 0.49374 0.06421 0.51936 0.0
O858 O 0.39762 0.27499 0.56988 0.0
C859 C 0.33146 0.32986 0.52819 0.0
C860 C 0.43738 0.11923 0.52795 0.0
C861 C 0.50984 0.17576 0.52995 0.0
N862 N 0.45021 0.24439 0.54022 0.0
C863 C 0.4222 0.1849 0.53548 0.0
C864 C 0.49348 0.24055 0.53744 0.0
C865 C 0.48153 0.11475 0.52519 0.0
C866 C 0.357 0.56704 0.54471 0.0
N867 N 0.32772 0.51144 0.54654 0.0
C868 C 0.34467 0.6229 0.52922 0.0
C869 C 0.30212 0.62144 0.51537 0.0
C870 C 0.27263 0.5641 0.51705 0.0
C871 C 0.28614 0.50918 0.53272 0.0
C872 C 0.22917 0.50648 0.58709 0.0
C873 C 0.26389 0.37321 0.57687 0.0
C874 C 0.27059 0.50296 0.58097 0.0
N875 N 0.28735 0.4369 0.57584 0.0
C876 C 0.22236 0.37462 0.58292 0.0
C877 C 0.20495 0.44179 0.58804 0.0
C878 C 0.3782 0.28721 0.58561 0.0
C879 C 0.54199 0.41655 0.59384 0.0
C880 C 0.49549 0.28444 0.58709 0.0
C881 C 0.53372 0.29009 0.60403 0.0
C882 C 0.55706 0.35669 0.60741 0.0
N883 N 0.48085 0.34342 0.57387 0.0
C884 C 0.50364 0.40881 0.57706 0.0
Co885 Co 0.42372 0.43123 0.1728 0.0
Co886 Co 0.34171 0.33386 0.19042 0.0
O887 O 0.36463 0.42614 0.18055 0.0
C888 C 0.36385 0.53938 0.14231 0.0
O889 O 0.32911 0.52714 0.15105 0.0
C890 C 0.32308 0.44333 0.22302 0.0
O891 O 0.36469 0.46729 0.22586 0.0
O892 O 0.39693 0.32535 0.2143 0.0
O893 O 0.44966 0.35874 0.19619 0.0
H894 H 0.3545 0.07131 0.2167 0.0
H895 H 0.37881 0.56686 0.18572 0.0
O896 O 0.40085 0.50471 0.14885 0.0
H897 H 0.52976 0.56118 0.23416 0.0
H898 H 0.55294 0.55759 0.14933 0.0
H899 H 0.49185 0.31953 0.16751 0.0
H900 H 0.50624 0.46379 0.20672 0.0
H901 H 0.47999 0.55211 0.16032 0.0
O902 O 0.30965 0.39048 0.20989 0.0
H903 H 0.38157 0.18695 0.20334 0.0
H904 H 0.25372 0.2864 0.19974 0.0
H905 H 0.56513 0.32265 0.15683 0.0
H906 H 0.40117 0.66568 0.21261 0.0
H907 H 0.59614 0.44231 0.14763 0.0
H908 H 0.4772 0.6635 0.23716 0.0
O909 O 0.40631 0.349 0.1515 0.0
H910 H 0.20927 0.46699 0.14453 0.0
H911 H 0.29112 0.23086 0.15651 0.0
H912 H 0.22389 0.24137 0.12654 0.0
H913 H 0.18228 0.36009 0.12045 0.0
H914 H 0.27705 0.45417 0.17414 0.0
H915 H 0.22539 0.17198 0.21319 0.0
H916 H 0.27588 0.0633 0.22171 0.0
O917 O 0.37161 0.27366 0.17087 0.0
C918 C 0.43792 0.32883 0.21247 0.0
C919 C 0.33214 0.11823 0.21299 0.0
C920 C 0.2597 0.17476 0.21105 0.0
N921 N 0.31921 0.24329 0.20064 0.0
C922 C 0.34725 0.18383 0.20538 0.0
C923 C 0.27598 0.23949 0.20349 0.0
C924 C 0.28804 0.11379 0.21582 0.0
C925 C 0.41224 0.56593 0.19582 0.0
N926 N 0.4415 0.51031 0.194 0.0
C927 C 0.42461 0.62192 0.21127 0.0
C928 C 0.4672 0.62055 0.2251 0.0
C929 C 0.49668 0.56319 0.22342 0.0
C930 C 0.48312 0.50816 0.20779 0.0
C931 C 0.53982 0.50512 0.15334 0.0
C932 C 0.50521 0.3719 0.16367 0.0
C933 C 0.49844 0.50162 0.1595 0.0
N934 N 0.48174 0.43558 0.16469 0.0
C935 C 0.54669 0.37328 0.15757 0.0
C936 C 0.56405 0.44043 0.15239 0.0
C937 C 0.39095 0.28579 0.15511 0.0
C938 C 0.22715 0.41501 0.14698 0.0
C939 C 0.2737 0.28296 0.15377 0.0
C940 C 0.23541 0.28847 0.13686 0.0
C941 C 0.21205 0.35504 0.13347 0.0
N942 N 0.28839 0.34205 0.16694 0.0
C943 C 0.26557 0.40741 0.16374 0.0
C944 C 0.30551 0.25816 0.49336 0.0
C945 C 0.29537 0.29566 0.51125 0.0
H946 H 0.28049 0.19701 0.46416 0.0
C947 C 0.25002 0.29924 0.51312 0.0
H948 H 0.33993 0.25399 0.49141 0.0
C949 C 0.21575 0.2663 0.49751 0.0
C950 C 0.22589 0.22882 0.47962 0.0
H951 H 0.24077 0.32747 0.52671 0.0
H952 H 0.18133 0.27048 0.49946 0.0
C953 C 0.27124 0.22522 0.47775 0.0
C954 C 0.02342 0.95348 0.50931 0.0
C955 C 0.97868 0.97932 0.50571 0.0
H956 H 0.08867 0.96477 0.50193 0.0
C957 C 0.96598 0.03878 0.49135 0.0
H958 H 0.03452 0.90784 0.52031 0.0
C959 C 0.99719 0.07151 0.48085 0.0
C960 C 0.04193 0.04568 0.48445 0.0
H961 H 0.93194 0.06022 0.48823 0.0
H962 H 0.98609 0.11715 0.46986 0.0
C963 C 0.05462 0.98621 0.49881 0.0
C964 C 0.30405 0.03786 0.74898 0.0
C965 C 0.29153 0.97843 0.73459 0.0
H966 H 0.28369 0.11596 0.77048 0.0
C967 C 0.24683 0.95235 0.73094 0.0
H968 H 0.33805 0.05948 0.75215 0.0
C969 C 0.2155 0.98482 0.74142 0.0
C970 C 0.22802 0.04425 0.75581 0.0
H971 H 0.23586 0.90672 0.71992 0.0
H972 H 0.1815 0.9632 0.73824 0.0
C973 C 0.27272 0.07033 0.75946 0.0
C974 C 0.99845 0.22372 0.76239 0.0
C975 C 0.04384 0.22742 0.7606 0.0
H976 H 0.92983 0.25293 0.74873 0.0
C977 C 0.05414 0.26554 0.74285 0.0
H978 H 0.98907 0.19502 0.77586 0.0
C979 C 0.01999 0.29903 0.72731 0.0
C980 C 0.9746 0.29536 0.7291 0.0
H981 H 0.0886 0.26983 0.74097 0.0
H982 H 0.02937 0.32775 0.71384 0.0
C983 C 0.96429 0.2572 0.74684 0.0
C984 C 0.74951 0.79947 0.51262 0.0
C985 C 0.79485 0.79581 0.51074 0.0
H986 H 0.68084 0.77036 0.49905 0.0
C987 C 0.80501 0.75781 0.49294 0.0
H988 H 0.74024 0.82807 0.52614 0.0
C989 C 0.77075 0.72444 0.47742 0.0
C990 C 0.72541 0.7281 0.4793 0.0
H991 H 0.83943 0.75356 0.491 0.0
H992 H 0.78 0.69584 0.4639 0.0
C993 C 0.71526 0.7661 0.4971 0.0
C994 C 0.71485 0.98532 0.24139 0.0
C995 C 0.72757 0.04471 0.25577 0.0
H996 H 0.73491 0.90713 0.21982 0.0
C997 C 0.7723 0.07059 0.25936 0.0
H998 H 0.68082 0.96386 0.23827 0.0
C999 C 0.80347 0.03799 0.24881 0.0
C1000 C 0.79076 0.9786 0.23442 0.0
H1001 H 0.78341 0.11618 0.27037 0.0
H1002 H 0.83751 0.05946 0.25193 0.0
C1003 C 0.74603 0.95272 0.23084 0.0
C1004 C 0.01998 0.79937 0.2275 0.0
C1005 C 0.97465 0.79577 0.22939 0.0
H1006 H 0.08869 0.77059 0.24111 0.0
C1007 C 0.96456 0.75822 0.24728 0.0
H1008 H 0.0292 0.82763 0.21391 0.0
C1009 C 0.99886 0.72526 0.26287 0.0
C1010 C 0.04419 0.72886 0.26097 0.0
H1011 H 0.93015 0.75404 0.24925 0.0
H1012 H 0.98965 0.697 0.27646 0.0
C1013 C 0.05428 0.7664 0.24308 0.0
C1014 C 0.24762 0.79808 0.01258 0.0
C1015 C 0.29301 0.79443 0.01077 0.0
H1016 H 0.17898 0.76919 -0.00113 0.0
C1017 C 0.30326 0.75672 0.99295 0.0
H1018 H 0.23829 0.82647 0.02612 0.0
C1019 C 0.26906 0.72361 0.97734 0.0
C1020 C 0.22368 0.72724 0.97914 0.0
H1021 H 0.33771 0.75249 0.99105 0.0
H1022 H 0.2784 0.69521 0.9638 0.0
C1023 C 0.21343 0.76497 -0.00303 0.0
C1024 C 0.05293 0.48518 -0.00133 0.0
C1025 C 0.04008 0.54424 0.98418 0.0
H1026 H 0.03306 0.40733 0.02038 0.0
C1027 C 0.9953 0.56988 0.98055 0.0
H1028 H 0.08702 0.46391 0.00183 0.0
C1029 C 0.9642 0.53736 0.99116 0.0
C1030 C 0.97706 0.4783 0.00566 0.0
H1031 H 0.98408 0.61522 0.96946 0.0
H1032 H 0.93012 0.55863 0.98801 0.0
C1033 C 0.02184 0.45266 0.00928 0.0
C1034 C 0.24583 0.4526 0.23104 0.0
C1035 C 0.29059 0.47828 0.23453 0.0
H1036 H 0.18073 0.46427 0.23855 0.0
C1037 C 0.30347 0.53786 0.24882 0.0
H1038 H 0.23459 0.40687 0.2201 0.0
C1039 C 0.27243 0.57085 0.25937 0.0
C1040 C 0.22767 0.54517 0.25588 0.0
H1041 H 0.33753 0.55918 0.25186 0.0
H1042 H 0.28367 0.61658 0.27031 0.0
C1043 C 0.21479 0.48559 0.24159 0.0
C1044 C 0.76955 0.223 0.97775 0.0
C1045 C 0.72419 0.22668 0.97959 0.0
H1046 H 0.83819 0.25232 0.99131 0.0
C1047 C 0.71396 0.26495 -0.00267 0.0
H1048 H 0.77887 0.1942 0.96427 0.0
C1049 C 0.74817 0.29855 0.01282 0.0
C1050 C 0.79353 0.29487 0.01097 0.0
H1051 H 0.67953 0.26922 -0.00075 0.0
H1052 H 0.73886 0.32736 0.0263 0.0
C1053 C 0.80375 0.25661 0.99323 0.0
C1054 C 0.71523 0.48522 0.74129 0.0
C1055 C 0.72818 0.54372 0.75598 0.0
H1056 H 0.735 0.40807 0.71936 0.0
C1057 C 0.77303 0.56908 0.75974 0.0
H1058 H 0.68109 0.46419 0.73803 0.0
C1059 C 0.8041 0.53684 0.74906 0.0
C1060 C 0.79116 0.47834 0.73437 0.0
H1061 H 0.78433 0.61398 0.77099 0.0
H1062 H 0.83825 0.55787 0.75232 0.0
C1063 C 0.7463 0.45297 0.73061 0.0
C1064 C 0.49562 0.06903 0.98104 0.0
C1065 C 0.54036 0.0432 0.98471 0.0
H1066 H 0.43033 0.05794 0.98839 0.0
C1067 C 0.55304 0.98398 -0.00084 0.0
H1068 H 0.48453 0.11449 0.96998 0.0
C1069 C 0.5218 0.95148 0.00969 0.0
C1070 C 0.47705 0.9773 0.00602 0.0
H1071 H 0.58709 0.96256 0.00234 0.0
H1072 H 0.53288 0.90601 0.02075 0.0
C1073 C 0.46438 0.03653 0.99157 0.0
C1074 C 0.5194 0.29826 0.22745 0.0
C1075 C 0.47408 0.29462 0.22937 0.0
H1076 H 0.58812 0.26944 0.24102 0.0
C1077 C 0.46403 0.257 0.24725 0.0
H1078 H 0.52859 0.32658 0.21386 0.0
C1079 C 0.49835 0.22397 0.26281 0.0
C1080 C 0.54367 0.2276 0.26089 0.0
H1081 H 0.42964 0.25278 0.24924 0.0
H1082 H 0.48917 0.19565 0.2764 0.0
C1083 C 0.55372 0.26523 0.24301 0.0
C1084 C 0.52106 0.7987 0.72803 0.0
C1085 C 0.47565 0.79506 0.7298 0.0
H1086 H 0.58965 0.76936 0.74169 0.0
C1087 C 0.46531 0.75688 0.74753 0.0
H1088 H 0.53046 0.82744 0.71457 0.0
C1089 C 0.49943 0.72329 0.76307 0.0
C1090 C 0.54483 0.72691 0.76129 0.0
H1091 H 0.43084 0.75262 0.7494 0.0
H1092 H 0.49001 0.69453 0.77652 0.0
C1093 C 0.55518 0.76512 0.74357 0.0
C1094 C 0.46605 0.53786 0.49166 0.0
C1095 C 0.47892 0.47868 0.50611 0.0
H1096 H 0.48588 0.61588 0.46999 0.0
C1097 C 0.52369 0.45301 0.50969 0.0
H1098 H 0.43198 0.55916 0.48855 0.0
C1099 C 0.55476 0.48561 0.49907 0.0
C1100 C 0.54189 0.54479 0.48463 0.0
H1101 H 0.53492 0.40758 0.52075 0.0
H1102 H 0.58883 0.46431 0.50219 0.0
C1103 C 0.49712 0.57046 0.48105 0.0
C1104 C 0.09398 0.79808 0.36448 0.0
C1105 C 0.12232 0.8014 0.34952 0.0
H1106 H 0.06877 0.85445 0.38949 0.0
C1107 C 0.14591 0.8673 0.34796 0.0
H1108 H 0.07492 0.74859 0.36594 0.0
C1109 C 0.14286 0.92698 0.36156 0.0
C1110 C 0.11516 0.9234 0.37669 0.0
H1111 H 0.1674 0.87285 0.3364 0.0
H1112 H 0.16249 0.97604 0.36032 0.0
C1113 C 0.09009 0.85888 0.3778 0.0
C1114 C 0.12467 0.36745 0.39263 0.0
C1115 C 0.14814 0.30146 0.39102 0.0
H1116 H 0.10815 0.47624 0.38029 0.0
C1117 C 0.17637 0.29803 0.37602 0.0
H1118 H 0.10328 0.3731 0.40423 0.0
C1119 C 0.18023 0.3588 0.36268 0.0
C1120 C 0.15527 0.4234 0.36383 0.0
H1121 H 0.19533 0.24847 0.37452 0.0
H1122 H 0.20145 0.35429 0.35094 0.0
C1123 C 0.1277 0.42711 0.37902 0.0
C1124 C 0.14447 0.36494 0.84767 0.0
C1125 C 0.12098 0.29892 0.84921 0.0
H1126 H 0.16083 0.47373 0.86004 0.0
C1127 C 0.09259 0.29541 0.86414 0.0
H1128 H 0.16599 0.37065 0.83613 0.0
C1129 C 0.08857 0.35615 0.87747 0.0
C1130 C 0.11354 0.42079 0.87638 0.0
H1131 H 0.07361 0.24582 0.86558 0.0
H1132 H 0.06722 0.35159 0.88914 0.0
C1133 C 0.14127 0.42457 0.86127 0.0
C1134 C 0.17481 0.79545 0.87561 0.0
C1135 C 0.1463 0.79887 0.8905 0.0
H1136 H 0.2003 0.85171 0.85066 0.0
C1137 C 0.12271 0.86481 0.89198 0.0
H1138 H 0.19388 0.74593 0.87421 0.0
C1139 C 0.12592 0.92445 0.8784 0.0
C1140 C 0.15379 0.92077 0.86334 0.0
H1141 H 0.10109 0.87045 0.90348 0.0
H1142 H 0.10629 0.97355 0.87959 0.0
C1143 C 0.17885 0.85621 0.8623 0.0
C1144 C 0.92602 0.22813 0.62563 0.0
C1145 C 0.89744 0.22472 0.64048 0.0
H1146 H 0.9516 0.17186 0.60071 0.0
C1147 C 0.87382 0.15879 0.64194 0.0
H1148 H 0.9451 0.27765 0.62425 0.0
C1149 C 0.87709 0.09914 0.62837 0.0
C1150 C 0.90502 0.10281 0.61335 0.0
H1151 H 0.85214 0.15316 0.65341 0.0
H1152 H 0.85744 0.05005 0.62955 0.0
C1153 C 0.9301 0.16737 0.61232 0.0
C1154 C 0.89273 0.59907 0.61146 0.0
C1155 C 0.86488 0.60281 0.62652 0.0
H1156 H 0.91754 0.65299 0.58635 0.0
C1157 C 0.83983 0.6674 0.62756 0.0
H1158 H 0.91234 0.54996 0.61027 0.0
C1159 C 0.84387 0.72812 0.61422 0.0
C1160 C 0.87236 0.72463 0.59933 0.0
H1161 H 0.81839 0.67194 0.63919 0.0
H1162 H 0.82482 0.77766 0.61562 0.0
C1163 C 0.89594 0.65867 0.59785 0.0
C1164 C 0.92905 0.66652 0.11243 0.0
C1165 C 0.90409 0.60189 0.11355 0.0
H1166 H 0.94411 0.77682 0.12432 0.0
C1167 C 0.87647 0.59812 0.12872 0.0
H1168 H 0.95031 0.67108 0.10072 0.0
C1169 C 0.87339 0.65772 0.14234 0.0
C1170 C 0.89687 0.72374 0.14077 0.0
H1171 H 0.85693 0.54896 0.12997 0.0
H1172 H 0.85196 0.65201 0.15392 0.0
C1173 C 0.92514 0.72724 0.12579 0.0
C1174 C 0.83891 0.16645 0.12776 0.0
C1175 C 0.86394 0.10188 0.12667 0.0
H1176 H 0.82383 0.27675 0.11588 0.0
C1177 C 0.89169 0.09822 0.11156 0.0
H1178 H 0.81755 0.17093 0.13944 0.0
C1179 C 0.89483 0.15787 0.09797 0.0
C1180 C 0.87127 0.22382 0.09951 0.0
H1181 H 0.91129 0.04912 0.11033 0.0
H1182 H 0.91636 0.15225 0.08644 0.0
C1183 C 0.84287 0.22722 0.11444 0.0
C1184 C 0.64564 0.86298 0.84853 0.0
C1185 C 0.62196 0.79708 0.84995 0.0
H1186 H 0.66204 0.97166 0.86095 0.0
C1187 C 0.59333 0.79366 0.86478 0.0
H1188 H 0.66736 0.86861 0.83708 0.0
C1189 C 0.58925 0.8544 0.8781 0.0
C1190 C 0.61437 0.91893 0.87711 0.0
H1191 H 0.5742 0.74417 0.86613 0.0
H1192 H 0.5677 0.84992 0.88969 0.0
C1193 C 0.64236 0.92259 0.86211 0.0
C1194 C 0.6232 0.3631 0.89243 0.0
C1195 C 0.64681 0.29716 0.89097 0.0
H1196 H 0.60678 0.47179 0.87999 0.0
C1197 C 0.67534 0.29366 0.8761 0.0
H1198 H 0.60157 0.3688 0.90392 0.0
C1199 C 0.67938 0.35436 0.86276 0.0
C1200 C 0.65431 0.41894 0.86378 0.0
H1201 H 0.69442 0.24413 0.87472 0.0
H1202 H 0.70085 0.34982 0.85114 0.0
C1203 C 0.62642 0.42268 0.87882 0.0
C1204 C 0.6451 0.36568 0.34787 0.0
C1205 C 0.62166 0.29966 0.34947 0.0
H1206 H 0.66158 0.47446 0.36021 0.0
C1207 C 0.59345 0.29616 0.36448 0.0
H1208 H 0.66648 0.37138 0.33627 0.0
C1209 C 0.58957 0.35691 0.37783 0.0
C1210 C 0.61451 0.42154 0.37668 0.0
H1211 H 0.5745 0.24657 0.36597 0.0
H1212 H 0.56836 0.35235 0.38957 0.0
C1213 C 0.64206 0.42531 0.36149 0.0
C1214 C 0.67574 0.79618 0.3758 0.0
C1215 C 0.64743 0.7996 0.39077 0.0
H1216 H 0.70094 0.85246 0.35076 0.0
C1217 C 0.6239 0.86556 0.39234 0.0
H1218 H 0.69475 0.74664 0.37434 0.0
C1219 C 0.62699 0.92522 0.37873 0.0
C1220 C 0.65465 0.92154 0.36359 0.0
H1221 H 0.60244 0.8712 0.4039 0.0
H1222 H 0.60741 0.97433 0.37999 0.0
C1223 C 0.67965 0.85696 0.36247 0.0
C1224 C 0.37233 0.15638 0.14237 0.0
C1225 C 0.39594 0.22228 0.14084 0.0
H1226 H 0.3558 0.04764 0.13 0.0
C1227 C 0.42436 0.22561 0.12592 0.0
H1228 H 0.35079 0.15082 0.15391 0.0
C1229 C 0.4283 0.16481 0.1126 0.0
C1230 C 0.40322 0.1003 0.11368 0.0
H1231 H 0.44343 0.2751 0.12448 0.0
H1232 H 0.44968 0.16925 0.10093 0.0
C1233 C 0.37544 0.0967 0.12878 0.0
C1234 C 0.33804 0.66493 0.12772 0.0
C1235 C 0.36297 0.60029 0.12657 0.0
H1236 H 0.32304 0.77529 0.11587 0.0
C1237 C 0.39057 0.59652 0.11141 0.0
H1238 H 0.31679 0.66949 0.13944 0.0
C1239 C 0.39369 0.65617 0.09781 0.0
C1240 C 0.37026 0.72221 0.0994 0.0
H1241 H 0.4101 0.54736 0.11014 0.0
H1242 H 0.41512 0.65048 0.08623 0.0
C1243 C 0.34198 0.72569 0.11438 0.0
C1244 C 0.42691 0.72724 0.62624 0.0
C1245 C 0.39854 0.72374 0.64119 0.0
H1246 H 0.45222 0.67105 0.60122 0.0
C1247 C 0.37506 0.65772 0.64273 0.0
H1248 H 0.44589 0.77682 0.62479 0.0
C1249 C 0.37822 0.5981 0.62913 0.0
C1250 C 0.40592 0.60186 0.61401 0.0
H1251 H 0.35356 0.65202 0.65428 0.0
H1252 H 0.35867 0.54894 0.63037 0.0
C1253 C 0.43089 0.66649 0.61291 0.0
C1254 C 0.39679 0.15786 0.5984 0.0
C1255 C 0.37317 0.22378 0.59989 0.0
H1256 H 0.41328 0.04915 0.6108 0.0
C1257 C 0.34471 0.22718 0.6148 0.0
H1258 H 0.41836 0.15224 0.58688 0.0
C1259 C 0.34074 0.16643 0.62813 0.0
C1260 C 0.36582 0.10189 0.62707 0.0
H1261 H 0.32563 0.27668 0.61621 0.0
H1262 H 0.31932 0.17091 0.63978 0.0
C1263 C 0.39364 0.09823 0.612 0.0
loop_
_geom_bond_atom_site_label_1
_geom_bond_atom_site_label_2
_geom_bond_distance
_geom_bond_site_symmetry_2
_ccdc_geom_bond_type
Co0 O2 2.143 . S
Co0 O8 2.074 . S
Co0 O11 2.093 1_545 S
Co0 O24 2.097 . S
Co0 N41 2.151 1_545 S
Co0 N49 2.214 . S
Co1 O2 2.160 . S
Co1 O7 2.058 . S
Co1 O17 2.057 . S
Co1 O32 2.037 . S
Co1 N36 2.145 . S
Co1 N57 2.257 . S
O2 Co0 2.143 . S
O2 Co1 2.160 . S
C3 O4 1.278 . S
C3 O11 1.224 . S
O4 C3 1.278 . S
C5 O6 1.251 . S
C5 O17 1.232 . S
O6 C5 1.251 . S
O7 Co1 2.058 . S
O7 C33 1.269 . S
O8 Co0 2.074 . S
O8 C33 1.257 . S
H9 C34 0.930 . S
H10 C40 0.930 . S
O11 Co0 2.093 1_565 S
O11 C3 1.224 . S
H12 C44 0.929 . S
H13 C46 0.930 . S
H14 C47 0.930 . S
H15 C45 0.929 . S
H16 C48 0.928 . S
O17 Co1 2.057 . S
O17 C5 1.232 . S
H18 C37 0.929 . S
H19 C38 0.929 . S
H20 C50 0.931 . S
H21 C42 0.929 . S
H22 C51 0.930 . S
H23 C43 0.931 . S
O24 Co0 2.097 . S
O24 C52 1.214 . S
H25 C53 0.929 . S
H26 C54 0.929 . S
H27 C55 0.930 . S
H28 C56 0.929 . S
H29 C58 0.930 . S
H30 C35 0.930 . S
H31 C39 0.930 1_655 S
O32 Co1 2.037 . S
O32 C52 1.234 . S
C33 O7 1.269 . S
C33 O8 1.257 . S
C34 H9 0.930 . S
C34 C37 1.388 . S
C34 C39 1.418 . S
C35 H30 0.930 . S
C35 C38 1.404 1_655 S
C35 C39 1.353 1_655 S
N36 Co1 2.145 . S
N36 C37 1.397 . S
N36 C38 1.334 . S
C37 H18 0.929 . S
C37 C34 1.388 . S
C37 N36 1.397 . S
C38 H19 0.929 . S
C38 C35 1.404 1_455 S
C38 N36 1.334 . S
C39 H31 0.930 1_455 S
C39 C34 1.418 . S
C39 C35 1.353 1_455 S
C40 H10 0.930 . S
C40 N41 1.330 . S
C40 C42 1.446 . S
N41 Co0 2.151 1_565 S
N41 C40 1.330 . S
N41 C45 1.418 1_565 S
C42 H21 0.929 . S
C42 C40 1.446 . S
C42 C43 1.332 . S
C43 H23 0.931 . S
C43 C42 1.332 . S
C43 C44 1.267 . S
C44 H12 0.929 . S
C44 C43 1.267 . S
C44 C45 1.251 1_565 S
C45 H15 0.929 . S
C45 N41 1.418 1_545 S
C45 C44 1.251 1_545 S
C46 H13 0.930 . S
C46 C48 1.406 . S
C46 C51 1.261 . S
C47 H14 0.930 . S
C47 N49 1.325 . S
C47 C50 1.357 . S
C48 H16 0.928 . S
C48 C46 1.406 . S
C48 N49 1.261 . S
N49 Co0 2.214 . S
N49 C47 1.325 . S
N49 C48 1.261 . S
C50 H20 0.931 . S
C50 C47 1.357 . S
C50 C51 1.312 . S
C51 H22 0.930 . S
C51 C46 1.261 . S
C51 C50 1.312 . S
C52 O24 1.214 . S
C52 O32 1.234 . S
C53 H25 0.929 . S
C53 C56 1.391 . S
C53 C58 1.391 1_655 S
C54 H26 0.929 . S
C54 C55 1.390 1_455 S
C54 N57 1.391 . S
C55 H27 0.930 . S
C55 C54 1.390 1_655 S
C55 C56 1.392 . S
C56 H28 0.929 . S
C56 C53 1.391 . S
C56 C55 1.392 . S
N57 Co1 2.257 . S
N57 C54 1.391 . S
N57 C58 1.388 . S
C58 H29 0.930 . S
C58 C53 1.391 1_455 S
C58 N57 1.388 . S
Co59 O61 2.143 . S
Co59 O67 2.074 . S
Co59 O70 2.093 1_545 S
Co59 O83 2.097 . S
Co59 N100 2.151 1_545 S
Co59 N108 2.214 . S
Co60 O61 2.160 . S
Co60 O66 2.058 . S
Co60 O76 2.057 . S
Co60 O91 2.037 . S
Co60 N95 2.145 . S
Co60 N116 2.257 . S
O61 Co59 2.143 . S
O61 Co60 2.160 . S
C62 O63 1.278 . S
C62 O70 1.224 . S
O63 C62 1.278 . S
C64 O65 1.251 . S
C64 O76 1.232 . S
O65 C64 1.251 . S
O66 Co60 2.058 . S
O66 C92 1.269 . S
O67 Co59 2.074 . S
O67 C92 1.257 . S
H68 C93 0.930 . S
H69 C99 0.930 . S
O70 Co59 2.093 1_565 S
O70 C62 1.224 . S
H71 C103 0.929 . S
H72 C105 0.930 . S
H73 C106 0.927 1_455 S
H74 C104 0.929 . S
H75 C107 0.928 . S
O76 Co60 2.057 . S
O76 C64 1.232 . S
H77 C96 0.929 . S
H78 C97 0.929 . S
H79 C109 0.931 . S
H80 C101 0.929 . S
H81 C110 0.930 . S
H82 C102 0.931 . S
O83 Co59 2.097 . S
O83 C111 1.214 . S
H84 C112 0.929 . S
H85 C113 0.929 . S
H86 C114 0.930 . S
H87 C115 0.929 . S
H88 C117 0.930 . S
H89 C94 0.930 . S
H90 C98 0.930 . S
O91 Co60 2.037 . S
O91 C111 1.234 . S
C92 O66 1.269 . S
C92 O67 1.257 . S
C93 H68 0.930 . S
C93 C96 1.388 . S
C93 C98 1.418 . S
C94 H89 0.930 . S
C94 C97 1.404 . S
C94 C98 1.353 . S
N95 Co60 2.145 . S
N95 C96 1.397 . S
N95 C97 1.334 . S
C96 H77 0.929 . S
C96 C93 1.388 . S
C96 N95 1.397 . S
C97 H78 0.929 . S
C97 C94 1.404 . S
C97 N95 1.334 . S
C98 H90 0.930 . S
C98 C93 1.418 . S
C98 C94 1.353 . S
C99 H69 0.930 . S
C99 N100 1.330 . S
C99 C101 1.446 . S
N100 Co59 2.151 1_565 S
N100 C99 1.330 . S
N100 C104 1.418 1_465 S
C101 H80 0.929 . S
C101 C99 1.446 . S
C101 C102 1.332 1_455 S
C102 H82 0.931 . S
C102 C101 1.332 1_655 S
C102 C103 1.267 . S
C103 H71 0.929 . S
C103 C102 1.267 . S
C103 C104 1.251 1_565 S
C104 H74 0.929 . S
C104 N100 1.418 1_645 S
C104 C103 1.251 1_545 S
C105 H72 0.930 . S
C105 C107 1.406 . S
C105 C110 1.261 . S
C106 H73 0.927 1_655 S
C106 N108 1.324 1_655 S
C106 C109 1.361 . S
C107 H75 0.928 . S
C107 C105 1.406 . S
C107 N108 1.261 1_655 S
N108 Co59 2.214 . S
N108 C106 1.324 1_455 S
N108 C107 1.261 1_455 S
C109 H79 0.931 . S
C109 C106 1.361 . S
C109 C110 1.312 . S
C110 H81 0.930 . S
C110 C105 1.261 . S
C110 C109 1.312 . S
C111 O83 1.214 . S
C111 O91 1.234 . S
C112 H84 0.929 . S
C112 C115 1.391 . S
C112 C117 1.391 . S
C113 H85 0.929 . S
C113 C114 1.390 . S
C113 N116 1.391 . S
C114 H86 0.930 . S
C114 C113 1.390 . S
C114 C115 1.392 . S
C115 H87 0.929 . S
C115 C112 1.391 . S
C115 C114 1.392 . S
N116 Co60 2.257 . S
N116 C113 1.391 . S
N116 C117 1.388 . S
C117 H88 0.930 . S
C117 C112 1.391 . S
C117 N116 1.388 . S
Co118 O120 2.143 . S
Co118 O126 2.074 . S
Co118 O129 2.093 1_565 S
Co118 O142 2.097 . S
Co118 N159 2.151 1_565 S
Co118 N167 2.214 . S
Co119 O120 2.160 . S
Co119 O125 2.058 . S
Co119 O135 2.057 . S
Co119 O150 2.037 . S
Co119 N154 2.145 . S
Co119 N175 2.257 . S
O120 Co118 2.143 . S
O120 Co119 2.160 . S
C121 O122 1.278 . S
C121 O129 1.224 . S
O122 C121 1.278 . S
C123 O124 1.251 . S
C123 O135 1.232 . S
O124 C123 1.251 . S
O125 Co119 2.058 . S
O125 C151 1.269 . S
O126 Co118 2.074 . S
O126 C151 1.257 . S
H127 C152 0.930 . S
H128 C158 0.930 . S
O129 Co118 2.093 1_545 S
O129 C121 1.224 . S
H130 C162 0.929 . S
H131 C164 0.930 . S
H132 C165 0.930 . S
H133 C163 0.929 . S
H134 C166 0.928 . S
O135 Co119 2.057 . S
O135 C123 1.232 . S
H136 C155 0.929 . S
H137 C156 0.929 . S
H138 C168 0.931 . S
H139 C160 0.929 . S
H140 C169 0.930 . S
H141 C161 0.931 . S
O142 Co118 2.097 . S
O142 C170 1.214 . S
H143 C171 0.929 . S
H144 C172 0.929 . S
H145 C173 0.930 . S
H146 C174 0.929 . S
H147 C176 0.930 . S
H148 C153 0.930 . S
H149 C157 0.930 1_455 S
O150 Co119 2.037 . S
O150 C170 1.234 . S
C151 O125 1.269 . S
C151 O126 1.257 . S
C152 H127 0.930 . S
C152 C155 1.388 . S
C152 C157 1.418 . S
C153 H148 0.930 . S
C153 C156 1.404 1_455 S
C153 C157 1.353 1_455 S
N154 Co119 2.145 . S
N154 C155 1.397 . S
N154 C156 1.334 . S
C155 H136 0.929 . S
C155 C152 1.388 . S
C155 N154 1.397 . S
C156 H137 0.929 . S
C156 C153 1.404 1_655 S
C156 N154 1.334 . S
C157 H149 0.930 1_655 S
C157 C152 1.418 . S
C157 C153 1.353 1_655 S
C158 H128 0.930 . S
C158 N159 1.330 . S
C158 C160 1.446 . S
N159 Co118 2.151 1_545 S
N159 C158 1.330 . S
N159 C163 1.418 1_545 S
C160 H139 0.929 . S
C160 C158 1.446 . S
C160 C161 1.332 . S
C161 H141 0.931 . S
C161 C160 1.332 . S
C161 C162 1.267 . S
C162 H130 0.929 . S
C162 C161 1.267 . S
C162 C163 1.251 1_545 S
C163 H133 0.929 . S
C163 N159 1.418 1_565 S
C163 C162 1.251 1_565 S
C164 H131 0.930 . S
C164 C166 1.406 . S
C164 C169 1.261 . S
C165 H132 0.930 . S
C165 N167 1.325 . S
C165 C168 1.357 . S
C166 H134 0.928 . S
C166 C164 1.406 . S
C166 N167 1.261 . S
N167 Co118 2.214 . S
N167 C165 1.325 . S
N167 C166 1.261 . S
C168 H138 0.931 . S
C168 C165 1.357 . S
C168 C169 1.312 . S
C169 H140 0.930 . S
C169 C164 1.261 . S
C169 C168 1.312 . S
C170 O142 1.214 . S
C170 O150 1.234 . S
C171 H143 0.929 . S
C171 C174 1.391 . S
C171 C176 1.391 1_455 S
C172 H144 0.929 . S
C172 C173 1.390 1_655 S
C172 N175 1.391 . S
C173 H145 0.930 . S
C173 C172 1.390 1_455 S
C173 C174 1.392 . S
C174 H146 0.929 . S
C174 C171 1.391 . S
C174 C173 1.392 . S
N175 Co119 2.257 . S
N175 C172 1.391 . S
N175 C176 1.388 . S
C176 H147 0.930 . S
C176 C171 1.391 1_655 S
C176 N175 1.388 . S
Co177 O179 2.143 . S
Co177 O185 2.074 . S
Co177 O188 2.093 1_565 S
Co177 O201 2.097 . S
Co177 N218 2.151 1_565 S
Co177 N226 2.214 . S
Co178 O179 2.160 . S
Co178 O184 2.058 . S
Co178 O194 2.057 . S
Co178 O209 2.037 . S
Co178 N213 2.145 . S
Co178 N234 2.257 . S
O179 Co177 2.143 . S
O179 Co178 2.160 . S
C180 O181 1.278 . S
C180 O188 1.224 . S
O181 C180 1.278 . S
C182 O183 1.251 . S
C182 O194 1.232 . S
O183 C182 1.251 . S
O184 Co178 2.058 . S
O184 C210 1.269 . S
O185 Co177 2.074 . S
O185 C210 1.257 . S
H186 C211 0.930 . S
H187 C217 0.930 . S
O188 Co177 2.093 1_545 S
O188 C180 1.224 . S
H189 C221 0.929 . S
H190 C223 0.930 . S
H191 C224 0.927 1_655 S
H192 C222 0.929 . S
H193 C225 0.928 . S
O194 Co178 2.057 . S
O194 C182 1.232 . S
H195 C214 0.929 . S
H196 C215 0.929 . S
H197 C227 0.931 . S
H198 C219 0.929 . S
H199 C228 0.930 . S
H200 C220 0.931 . S
O201 Co177 2.097 . S
O201 C229 1.214 . S
H202 C230 0.929 . S
H203 C231 0.929 . S
H204 C232 0.930 . S
H205 C233 0.929 . S
H206 C235 0.930 . S
H207 C212 0.930 . S
H208 C216 0.930 . S
O209 Co178 2.037 . S
O209 C229 1.234 . S
C210 O184 1.269 . S
C210 O185 1.257 . S
C211 H186 0.930 . S
C211 C214 1.388 . S
C211 C216 1.418 . S
C212 H207 0.930 . S
C212 C215 1.404 . S
C212 C216 1.353 . S
N213 Co178 2.145 . S
N213 C214 1.397 . S
N213 C215 1.334 . S
C214 H195 0.929 . S
C214 C211 1.388 . S
C214 N213 1.397 . S
C215 H196 0.929 . S
C215 C212 1.404 . S
C215 N213 1.334 . S
C216 H208 0.930 . S
C216 C211 1.418 . S
C216 C212 1.353 . S
C217 H187 0.930 . S
C217 N218 1.330 . S
C217 C219 1.446 . S
N218 Co177 2.151 1_545 S
N218 C217 1.330 . S
N218 C222 1.418 1_645 S
C219 H198 0.929 . S
C219 C217 1.446 . S
C219 C220 1.332 1_655 S
C220 H200 0.931 . S
C220 C219 1.332 1_455 S
C220 C221 1.267 . S
C221 H189 0.929 . S
C221 C220 1.267 . S
C221 C222 1.251 1_545 S
C222 H192 0.929 . S
C222 N218 1.418 1_465 S
C222 C221 1.251 1_565 S
C223 H190 0.930 . S
C223 C225 1.406 . S
C223 C228 1.261 . S
C224 H191 0.927 1_455 S
C224 N226 1.324 1_455 S
C224 C227 1.361 . S
C225 H193 0.928 . S
C225 C223 1.406 . S
C225 N226 1.261 1_455 S
N226 Co177 2.214 . S
N226 C224 1.324 1_655 S
N226 C225 1.261 1_655 S
C227 H197 0.931 . S
C227 C224 1.361 . S
C227 C228 1.312 . S
C228 H199 0.930 . S
C228 C223 1.261 . S
C228 C227 1.312 . S
C229 O201 1.214 . S
C229 O209 1.234 . S
C230 H202 0.929 . S
C230 C233 1.391 . S
C230 C235 1.391 . S
C231 H203 0.929 . S
C231 C232 1.390 . S
C231 N234 1.391 . S
C232 H204 0.930 . S
C232 C231 1.390 . S
C232 C233 1.392 . S
C233 H205 0.929 . S
C233 C230 1.391 . S
C233 C232 1.392 . S
N234 Co178 2.257 . S
N234 C231 1.391 . S
N234 C235 1.388 . S
C235 H206 0.930 . S
C235 C230 1.391 . S
C235 N234 1.388 . S
Co236 O238 2.143 . S
Co236 O244 2.074 . S
Co236 O247 2.093 . S
Co236 O260 2.097 . S
Co236 N277 2.151 . S
Co236 N285 2.214 . S
Co237 O238 2.160 . S
Co237 O243 2.058 . S
Co237 O253 2.057 . S
Co237 O268 2.037 . S
Co237 N272 2.145 . S
Co237 N293 2.257 . S
O238 Co236 2.143 . S
O238 Co237 2.160 . S
C239 O240 1.278 . S
C239 O247 1.224 . S
O240 C239 1.278 . S
C241 O242 1.245 . S
C241 O253 1.232 . S
O242 C241 1.245 . S
O243 Co237 2.058 . S
O243 C269 1.269 . S
O244 Co236 2.074 . S
O244 C269 1.257 . S
H245 C270 0.930 . S
H246 C276 0.930 . S
O247 Co236 2.093 . S
O247 C239 1.224 . S
H248 C280 0.929 . S
H249 C282 0.930 . S
H250 C283 0.930 . S
H251 C281 0.929 . S
H252 C284 0.928 . S
O253 Co237 2.057 . S
O253 C241 1.232 . S
H254 C273 0.929 . S
H255 C274 0.929 . S
H256 C286 0.931 . S
H257 C278 0.929 . S
H258 C287 0.930 . S
H259 C279 0.931 . S
O260 Co236 2.097 . S
O260 C288 1.214 . S
H261 C289 0.929 . S
H262 C290 0.929 . S
H263 C291 0.930 . S
H264 C292 0.929 . S
H265 C294 0.930 . S
H266 C271 0.930 . S
H267 C275 0.930 1_655 S
O268 Co237 2.037 . S
O268 C288 1.234 . S
C269 O243 1.269 . S
C269 O244 1.257 . S
C270 H245 0.930 . S
C270 C273 1.388 . S
C270 C275 1.418 . S
C271 H266 0.930 . S
C271 C274 1.404 1_655 S
C271 C275 1.353 1_655 S
N272 Co237 2.145 . S
N272 C273 1.397 . S
N272 C274 1.334 . S
C273 H254 0.929 . S
C273 C270 1.388 . S
C273 N272 1.397 . S
C274 H255 0.929 . S
C274 C271 1.404 1_455 S
C274 N272 1.334 . S
C275 H267 0.930 1_455 S
C275 C270 1.418 . S
C275 C271 1.353 1_455 S
C276 H246 0.930 . S
C276 N277 1.330 . S
C276 C278 1.446 . S
N277 Co236 2.151 . S
N277 C276 1.330 . S
N277 C281 1.418 . S
C278 H257 0.929 . S
C278 C276 1.446 . S
C278 C279 1.332 . S
C279 H259 0.931 . S
C279 C278 1.332 . S
C279 C280 1.267 . S
C280 H248 0.929 . S
C280 C279 1.267 . S
C280 C281 1.251 . S
C281 H251 0.929 . S
C281 N277 1.418 . S
C281 C280 1.251 . S
C282 H249 0.930 . S
C282 C284 1.406 . S
C282 C287 1.261 . S
C283 H250 0.930 . S
C283 N285 1.325 . S
C283 C286 1.357 . S
C284 H252 0.928 . S
C284 C282 1.406 . S
C284 N285 1.261 . S
N285 Co236 2.214 . S
N285 C283 1.325 . S
N285 C284 1.261 . S
C286 H256 0.931 . S
C286 C283 1.357 . S
C286 C287 1.312 . S
C287 H258 0.930 . S
C287 C282 1.261 . S
C287 C286 1.312 . S
C288 O260 1.214 . S
C288 O268 1.234 . S
C289 H261 0.929 . S
C289 C292 1.391 . S
C289 C294 1.391 1_655 S
C290 H262 0.929 . S
C290 C291 1.390 1_455 S
C290 N293 1.391 . S
C291 H263 0.930 . S
C291 C290 1.390 1_655 S
C291 C292 1.392 . S
C292 H264 0.929 . S
C292 C289 1.391 . S
C292 C291 1.392 . S
N293 Co237 2.257 . S
N293 C290 1.391 . S
N293 C294 1.388 . S
C294 H265 0.930 . S
C294 C289 1.391 1_455 S
C294 N293 1.388 . S
Co295 O297 2.143 . S
Co295 O303 2.074 . S
Co295 O306 2.093 . S
Co295 O319 2.097 . S
Co295 N336 2.151 . S
Co295 N344 2.214 . S
Co296 O297 2.160 . S
Co296 O302 2.058 . S
Co296 O312 2.057 . S
Co296 O327 2.037 . S
Co296 N331 2.145 . S
Co296 N352 2.257 . S
O297 Co295 2.143 . S
O297 Co296 2.160 . S
C298 O299 1.278 . S
C298 O306 1.224 . S
O299 C298 1.278 . S
C300 O301 1.245 . S
C300 O312 1.232 . S
O301 C300 1.245 . S
O302 Co296 2.058 . S
O302 C328 1.269 . S
O303 Co295 2.074 . S
O303 C328 1.257 . S
H304 C329 0.930 . S
H305 C335 0.930 . S
O306 Co295 2.093 . S
O306 C298 1.224 . S
H307 C339 0.929 . S
H308 C341 0.930 . S
H309 C342 0.928 1_455 S
H310 C340 0.929 . S
H311 C343 0.928 . S
O312 Co296 2.057 . S
O312 C300 1.232 . S
H313 C332 0.929 . S
H314 C333 0.929 . S
H315 C345 0.931 . S
H316 C337 0.929 . S
H317 C346 0.930 . S
H318 C338 0.931 . S
O319 Co295 2.097 . S
O319 C347 1.214 . S
H320 C348 0.929 . S
H321 C349 0.929 . S
H322 C350 0.930 . S
H323 C351 0.929 . S
H324 C353 0.930 . S
H325 C330 0.930 . S
H326 C334 0.930 . S
O327 Co296 2.037 . S
O327 C347 1.234 . S
C328 O302 1.269 . S
C328 O303 1.257 . S
C329 H304 0.930 . S
C329 C332 1.388 . S
C329 C334 1.418 . S
C330 H325 0.930 . S
C330 C333 1.404 . S
C330 C334 1.353 . S
N331 Co296 2.145 . S
N331 C332 1.397 . S
N331 C333 1.334 . S
C332 H313 0.929 . S
C332 C329 1.388 . S
C332 N331 1.397 . S
C333 H314 0.929 . S
C333 C330 1.404 . S
C333 N331 1.334 . S
C334 H326 0.930 . S
C334 C329 1.418 . S
C334 C330 1.353 . S
C335 H305 0.930 . S
C335 N336 1.330 . S
C335 C337 1.446 . S
N336 Co295 2.151 . S
N336 C335 1.330 . S
N336 C340 1.418 1_455 S
C337 H316 0.929 . S
C337 C335 1.446 . S
C337 C338 1.332 1_455 S
C338 H318 0.931 . S
C338 C337 1.332 1_655 S
C338 C339 1.267 . S
C339 H307 0.929 . S
C339 C338 1.267 . S
C339 C340 1.251 . S
C340 H310 0.929 . S
C340 N336 1.418 1_655 S
C340 C339 1.251 . S
C341 H308 0.930 . S
C341 C343 1.406 . S
C341 C346 1.261 . S
C342 H309 0.928 1_655 S
C342 N344 1.324 1_655 S
C342 C345 1.360 . S
C343 H311 0.928 . S
C343 C341 1.406 . S
C343 N344 1.261 1_655 S
N344 Co295 2.214 . S
N344 C342 1.324 1_455 S
N344 C343 1.261 1_455 S
C345 H315 0.931 . S
C345 C342 1.360 . S
C345 C346 1.312 . S
C346 H317 0.930 . S
C346 C341 1.261 . S
C346 C345 1.312 . S
C347 O319 1.214 . S
C347 O327 1.234 . S
C348 H320 0.929 . S
C348 C351 1.391 . S
C348 C353 1.391 . S
C349 H321 0.929 . S
C349 C350 1.390 . S
C349 N352 1.391 . S
C350 H322 0.930 . S
C350 C349 1.390 . S
C350 C351 1.392 . S
C351 H323 0.929 . S
C351 C348 1.391 . S
C351 C350 1.392 . S
N352 Co296 2.257 . S
N352 C349 1.391 . S
N352 C353 1.388 . S
C353 H324 0.930 . S
C353 C348 1.391 . S
C353 N352 1.388 . S
Co354 O356 2.143 . S
Co354 O362 2.074 . S
Co354 O365 2.093 . S
Co354 O378 2.097 . S
Co354 N395 2.151 . S
Co354 N403 2.214 . S
Co355 O356 2.160 . S
Co355 O361 2.058 . S
Co355 O371 2.057 . S
Co355 O386 2.037 . S
Co355 N390 2.145 . S
Co355 N411 2.257 . S
O356 Co354 2.143 . S
O356 Co355 2.160 . S
C357 O358 1.278 . S
C357 O365 1.224 . S
O358 C357 1.278 . S
C359 O360 1.245 . S
C359 O371 1.232 . S
O360 C359 1.245 . S
O361 Co355 2.058 . S
O361 C387 1.269 . S
O362 Co354 2.074 . S
O362 C387 1.257 . S
H363 C388 0.930 . S
H364 C394 0.930 . S
O365 Co354 2.093 . S
O365 C357 1.224 . S
H366 C398 0.929 . S
H367 C400 0.930 . S
H368 C401 0.930 . S
H369 C399 0.929 . S
H370 C402 0.928 . S
O371 Co355 2.057 . S
O371 C359 1.232 . S
H372 C391 0.929 . S
H373 C392 0.929 . S
H374 C404 0.931 . S
H375 C396 0.929 . S
H376 C405 0.930 . S
H377 C397 0.931 . S
O378 Co354 2.097 . S
O378 C406 1.214 . S
H379 C407 0.929 . S
H380 C408 0.929 . S
H381 C409 0.930 . S
H382 C410 0.929 . S
H383 C412 0.930 . S
H384 C389 0.930 . S
H385 C393 0.930 1_455 S
O386 Co355 2.037 . S
O386 C406 1.234 . S
C387 O361 1.269 . S
C387 O362 1.257 . S
C388 H363 0.930 . S
C388 C391 1.388 . S
C388 C393 1.418 . S
C389 H384 0.930 . S
C389 C392 1.404 1_455 S
C389 C393 1.353 1_455 S
N390 Co355 2.145 . S
N390 C391 1.397 . S
N390 C392 1.334 . S
C391 H372 0.929 . S
C391 C388 1.388 . S
C391 N390 1.397 . S
C392 H373 0.929 . S
C392 C389 1.404 1_655 S
C392 N390 1.334 . S
C393 H385 0.930 1_655 S
C393 C388 1.418 . S
C393 C389 1.353 1_655 S
C394 H364 0.930 . S
C394 N395 1.330 . S
C394 C396 1.446 . S
N395 Co354 2.151 . S
N395 C394 1.330 . S
N395 C399 1.418 . S
C396 H375 0.929 . S
C396 C394 1.446 . S
C396 C397 1.332 . S
C397 H377 0.931 . S
C397 C396 1.332 . S
C397 C398 1.267 . S
C398 H366 0.929 . S
C398 C397 1.267 . S
C398 C399 1.251 . S
C399 H369 0.929 . S
C399 N395 1.418 . S
C399 C398 1.251 . S
C400 H367 0.930 . S
C400 C402 1.406 . S
C400 C405 1.261 . S
C401 H368 0.930 . S
C401 N403 1.325 . S
C401 C404 1.357 . S
C402 H370 0.928 . S
C402 C400 1.406 . S
C402 N403 1.261 . S
N403 Co354 2.214 . S
N403 C401 1.325 . S
N403 C402 1.261 . S
C404 H374 0.931 . S
C404 C401 1.357 . S
C404 C405 1.312 . S
C405 H376 0.930 . S
C405 C400 1.261 . S
C405 C404 1.312 . S
C406 O378 1.214 . S
C406 O386 1.234 . S
C407 H379 0.929 . S
C407 C410 1.391 . S
C407 C412 1.391 1_455 S
C408 H380 0.929 . S
C408 C409 1.390 1_655 S
C408 N411 1.391 . S
C409 H381 0.930 . S
C409 C408 1.390 1_455 S
C409 C410 1.392 . S
C410 H382 0.929 . S
C410 C407 1.391 . S
C410 C409 1.392 . S
N411 Co355 2.257 . S
N411 C408 1.391 . S
N411 C412 1.388 . S
C412 H383 0.930 . S
C412 C407 1.391 1_655 S
C412 N411 1.388 . S
Co413 O415 2.143 . S
Co413 O421 2.074 . S
Co413 O424 2.093 . S
Co413 O437 2.097 . S
Co413 N454 2.151 . S
Co413 N462 2.214 . S
Co414 O415 2.160 . S
Co414 O420 2.058 . S
Co414 O430 2.057 . S
Co414 O445 2.037 . S
Co414 N449 2.145 . S
Co414 N470 2.257 . S
O415 Co413 2.143 . S
O415 Co414 2.160 . S
C416 O417 1.278 . S
C416 O424 1.224 . S
O417 C416 1.278 . S
C418 O419 1.245 . S
C418 O430 1.232 . S
O419 C418 1.245 . S
O420 Co414 2.058 . S
O420 C446 1.269 . S
O421 Co413 2.074 . S
O421 C446 1.257 . S
H422 C447 0.930 . S
H423 C453 0.930 . S
O424 Co413 2.093 . S
O424 C416 1.224 . S
H425 C457 0.929 . S
H426 C459 0.930 . S
H427 C460 0.928 1_655 S
H428 C458 0.929 . S
H429 C461 0.928 . S
O430 Co414 2.057 . S
O430 C418 1.232 . S
H431 C450 0.929 . S
H432 C451 0.929 . S
H433 C463 0.931 . S
H434 C455 0.929 . S
H435 C464 0.930 . S
H436 C456 0.931 . S
O437 Co413 2.097 . S
O437 C465 1.214 . S
H438 C466 0.929 . S
H439 C467 0.929 . S
H440 C468 0.930 . S
H441 C469 0.929 . S
H442 C471 0.930 . S
H443 C448 0.930 . S
H444 C452 0.930 . S
O445 Co414 2.037 . S
O445 C465 1.234 . S
C446 O420 1.269 . S
C446 O421 1.257 . S
C447 H422 0.930 . S
C447 C450 1.388 . S
C447 C452 1.418 . S
C448 H443 0.930 . S
C448 C451 1.404 . S
C448 C452 1.353 . S
N449 Co414 2.145 . S
N449 C450 1.397 . S
N449 C451 1.334 . S
C450 H431 0.929 . S
C450 C447 1.388 . S
C450 N449 1.397 . S
C451 H432 0.929 . S
C451 C448 1.404 . S
C451 N449 1.334 . S
C452 H444 0.930 . S
C452 C447 1.418 . S
C452 C448 1.353 . S
C453 H423 0.930 . S
C453 N454 1.330 . S
C453 C455 1.446 . S
N454 Co413 2.151 . S
N454 C453 1.330 . S
N454 C458 1.418 1_655 S
C455 H434 0.929 . S
C455 C453 1.446 . S
C455 C456 1.332 1_655 S
C456 H436 0.931 . S
C456 C455 1.332 1_455 S
C456 C457 1.267 . S
C457 H425 0.929 . S
C457 C456 1.267 . S
C457 C458 1.251 . S
C458 H428 0.929 . S
C458 N454 1.418 1_455 S
C458 C457 1.251 . S
C459 H426 0.930 . S
C459 C461 1.406 . S
C459 C464 1.261 . S
C460 H427 0.928 1_455 S
C460 N462 1.324 1_455 S
C460 C463 1.360 . S
C461 H429 0.928 . S
C461 C459 1.406 . S
C461 N462 1.261 1_455 S
N462 Co413 2.214 . S
N462 C460 1.324 1_655 S
N462 C461 1.261 1_655 S
C463 H433 0.931 . S
C463 C460 1.360 . S
C463 C464 1.312 . S
C464 H435 0.930 . S
C464 C459 1.261 . S
C464 C463 1.312 . S
C465 O437 1.214 . S
C465 O445 1.234 . S
C466 H438 0.929 . S
C466 C469 1.391 . S
C466 C471 1.391 . S
C467 H439 0.929 . S
C467 C468 1.390 . S
C467 N470 1.391 . S
C468 H440 0.930 . S
C468 C467 1.390 . S
C468 C469 1.392 . S
C469 H441 0.929 . S
C469 C466 1.391 . S
C469 C468 1.392 . S
N470 Co414 2.257 . S
N470 C467 1.391 . S
N470 C471 1.388 . S
C471 H442 0.930 . S
C471 C466 1.391 . S
C471 N470 1.388 . S
Co472 O474 2.143 . S
Co472 O480 2.074 . S
Co472 O483 2.093 1_545 S
Co472 O496 2.097 . S
Co472 N513 2.151 1_545 S
Co472 N521 2.214 . S
Co473 O474 2.160 . S
Co473 O479 2.058 . S
Co473 O489 2.057 . S
Co473 O504 2.037 . S
Co473 N508 2.145 . S
Co473 N529 2.257 . S
O474 Co472 2.143 . S
O474 Co473 2.160 . S
C475 O476 1.278 . S
C475 O483 1.224 . S
O476 C475 1.278 . S
C477 O478 1.251 . S
C477 O489 1.232 . S
O478 C477 1.251 . S
O479 Co473 2.058 . S
O479 C505 1.269 . S
O480 Co472 2.074 . S
O480 C505 1.257 . S
H481 C506 0.930 . S
H482 C512 0.930 . S
O483 Co472 2.093 1_565 S
O483 C475 1.224 . S
H484 C516 0.929 . S
H485 C518 0.930 . S
H486 C519 0.930 . S
H487 C517 0.929 . S
H488 C520 0.928 . S
O489 Co473 2.057 . S
O489 C477 1.232 . S
H490 C509 0.929 . S
H491 C510 0.929 . S
H492 C522 0.931 . S
H493 C514 0.929 . S
H494 C523 0.930 . S
H495 C515 0.931 . S
O496 Co472 2.097 . S
O496 C524 1.214 . S
H497 C525 0.929 . S
H498 C526 0.929 . S
H499 C527 0.930 . S
H500 C528 0.929 . S
H501 C530 0.930 . S
H502 C507 0.930 . S
H503 C511 0.930 . S
O504 Co473 2.037 . S
O504 C524 1.234 . S
C505 O479 1.269 . S
C505 O480 1.257 . S
C506 H481 0.930 . S
C506 C509 1.388 . S
C506 C511 1.418 . S
C507 H502 0.930 . S
C507 C510 1.404 . S
C507 C511 1.353 . S
N508 Co473 2.145 . S
N508 C509 1.397 . S
N508 C510 1.334 . S
C509 H490 0.929 . S
C509 C506 1.388 . S
C509 N508 1.397 . S
C510 H491 0.929 . S
C510 C507 1.404 . S
C510 N508 1.334 . S
C511 H503 0.930 . S
C511 C506 1.418 . S
C511 C507 1.353 . S
C512 H482 0.930 . S
C512 N513 1.330 . S
C512 C514 1.446 . S
N513 Co472 2.151 1_565 S
N513 C512 1.330 . S
N513 C517 1.418 1_565 S
C514 H493 0.929 . S
C514 C512 1.446 . S
C514 C515 1.332 . S
C515 H495 0.931 . S
C515 C514 1.332 . S
C515 C516 1.267 . S
C516 H484 0.929 . S
C516 C515 1.267 . S
C516 C517 1.251 1_565 S
C517 H487 0.929 . S
C517 N513 1.418 1_545 S
C517 C516 1.251 1_545 S
C518 H485 0.930 . S
C518 C520 1.406 . S
C518 C523 1.261 . S
C519 H486 0.930 . S
C519 N521 1.325 . S
C519 C522 1.357 . S
C520 H488 0.928 . S
C520 C518 1.406 . S
C520 N521 1.261 . S
N521 Co472 2.214 . S
N521 C519 1.325 . S
N521 C520 1.261 . S
C522 H492 0.931 . S
C522 C519 1.357 . S
C522 C523 1.312 . S
C523 H494 0.930 . S
C523 C518 1.261 . S
C523 C522 1.312 . S
C524 O496 1.214 . S
C524 O504 1.234 . S
C525 H497 0.929 . S
C525 C528 1.391 . S
C525 C530 1.391 . S
C526 H498 0.929 . S
C526 C527 1.390 . S
C526 N529 1.391 . S
C527 H499 0.930 . S
C527 C526 1.390 . S
C527 C528 1.392 . S
C528 H500 0.929 . S
C528 C525 1.391 . S
C528 C527 1.392 . S
N529 Co473 2.257 . S
N529 C526 1.391 . S
N529 C530 1.388 . S
C530 H501 0.930 . S
C530 C525 1.391 . S
C530 N529 1.388 . S
Co531 O533 2.143 . S
Co531 O539 2.074 . S
Co531 O542 2.093 1_545 S
Co531 O555 2.097 . S
Co531 N572 2.151 1_545 S
Co531 N580 2.214 . S
Co532 O533 2.160 . S
Co532 O538 2.058 . S
Co532 O548 2.057 . S
Co532 O563 2.037 . S
Co532 N567 2.145 . S
Co532 N588 2.257 . S
O533 Co531 2.143 . S
O533 Co532 2.160 . S
C534 O535 1.278 . S
C534 O542 1.224 . S
O535 C534 1.278 . S
C536 O537 1.251 . S
C536 O548 1.232 . S
O537 C536 1.251 . S
O538 Co532 2.058 . S
O538 C564 1.269 . S
O539 Co531 2.074 . S
O539 C564 1.257 . S
H540 C565 0.930 . S
H541 C571 0.930 . S
O542 Co531 2.093 1_565 S
O542 C534 1.224 . S
H543 C575 0.929 . S
H544 C577 0.930 . S
H545 C578 0.930 . S
H546 C576 0.929 . S
H547 C579 0.928 . S
O548 Co532 2.057 . S
O548 C536 1.232 . S
H549 C568 0.929 . S
H550 C569 0.929 . S
H551 C581 0.931 . S
H552 C573 0.929 . S
H553 C582 0.930 . S
H554 C574 0.931 . S
O555 Co531 2.097 . S
O555 C583 1.214 . S
H556 C584 0.929 . S
H557 C585 0.929 . S
H558 C586 0.930 . S
H559 C587 0.929 . S
H560 C589 0.930 . S
H561 C566 0.930 . S
H562 C570 0.930 . S
O563 Co532 2.037 . S
O563 C583 1.234 . S
C564 O538 1.269 . S
C564 O539 1.257 . S
C565 H540 0.930 . S
C565 C568 1.388 . S
C565 C570 1.418 . S
C566 H561 0.930 . S
C566 C569 1.404 . S
C566 C570 1.353 . S
N567 Co532 2.145 . S
N567 C568 1.397 . S
N567 C569 1.334 . S
C568 H549 0.929 . S
C568 C565 1.388 . S
C568 N567 1.397 . S
C569 H550 0.929 . S
C569 C566 1.404 . S
C569 N567 1.334 . S
C570 H562 0.930 . S
C570 C565 1.418 . S
C570 C566 1.353 . S
C571 H541 0.930 . S
C571 N572 1.330 . S
C571 C573 1.446 . S
N572 Co531 2.151 1_565 S
N572 C571 1.330 . S
N572 C576 1.418 1_565 S
C573 H552 0.929 . S
C573 C571 1.446 . S
C573 C574 1.332 . S
C574 H554 0.931 . S
C574 C573 1.332 . S
C574 C575 1.267 . S
C575 H543 0.929 . S
C575 C574 1.267 . S
C575 C576 1.251 1_565 S
C576 H546 0.929 . S
C576 N572 1.418 1_545 S
C576 C575 1.251 1_545 S
C577 H544 0.930 . S
C577 C579 1.406 . S
C577 C582 1.261 . S
C578 H545 0.930 . S
C578 N580 1.325 . S
C578 C581 1.357 . S
C579 H547 0.928 . S
C579 C577 1.406 . S
C579 N580 1.261 . S
N580 Co531 2.214 . S
N580 C578 1.325 . S
N580 C579 1.261 . S
C581 H551 0.931 . S
C581 C578 1.357 . S
C581 C582 1.312 . S
C582 H553 0.930 . S
C582 C577 1.261 . S
C582 C581 1.312 . S
C583 O555 1.214 . S
C583 O563 1.234 . S
C584 H556 0.929 . S
C584 C587 1.391 . S
C584 C589 1.391 . S
C585 H557 0.929 . S
C585 C586 1.390 . S
C585 N588 1.391 . S
C586 H558 0.930 . S
C586 C585 1.390 . S
C586 C587 1.392 . S
C587 H559 0.929 . S
C587 C584 1.391 . S
C587 C586 1.392 . S
N588 Co532 2.257 . S
N588 C585 1.391 . S
N588 C589 1.388 . S
C589 H560 0.930 . S
C589 C584 1.391 . S
C589 N588 1.388 . S
Co590 O592 2.143 . S
Co590 O598 2.074 . S
Co590 O601 2.093 1_565 S
Co590 O614 2.097 . S
Co590 N631 2.151 1_565 S
Co590 N639 2.214 . S
Co591 O592 2.160 . S
Co591 O597 2.058 . S
Co591 O607 2.057 . S
Co591 O622 2.037 . S
Co591 N626 2.145 . S
Co591 N647 2.257 . S
O592 Co590 2.143 . S
O592 Co591 2.160 . S
C593 O594 1.278 . S
C593 O601 1.224 . S
O594 C593 1.278 . S
C595 O596 1.251 . S
C595 O607 1.232 . S
O596 C595 1.251 . S
O597 Co591 2.058 . S
O597 C623 1.269 . S
O598 Co590 2.074 . S
O598 C623 1.257 . S
H599 C624 0.930 . S
H600 C630 0.930 . S
O601 Co590 2.093 1_545 S
O601 C593 1.224 . S
H602 C634 0.929 . S
H603 C636 0.930 . S
H604 C637 0.930 . S
H605 C635 0.929 . S
H606 C638 0.928 . S
O607 Co591 2.057 . S
O607 C595 1.232 . S
H608 C627 0.929 . S
H609 C628 0.929 . S
H610 C640 0.931 . S
H611 C632 0.929 . S
H612 C641 0.930 . S
H613 C633 0.931 . S
O614 Co590 2.097 . S
O614 C642 1.214 . S
H615 C643 0.929 . S
H616 C644 0.929 . S
H617 C645 0.930 . S
H618 C646 0.929 . S
H619 C648 0.930 . S
H620 C625 0.930 . S
H621 C629 0.930 . S
O622 Co591 2.037 . S
O622 C642 1.234 . S
C623 O597 1.269 . S
C623 O598 1.257 . S
C624 H599 0.930 . S
C624 C627 1.388 . S
C624 C629 1.418 . S
C625 H620 0.930 . S
C625 C628 1.404 . S
C625 C629 1.353 . S
N626 Co591 2.145 . S
N626 C627 1.397 . S
N626 C628 1.334 . S
C627 H608 0.929 . S
C627 C624 1.388 . S
C627 N626 1.397 . S
C628 H609 0.929 . S
C628 C625 1.404 . S
C628 N626 1.334 . S
C629 H621 0.930 . S
C629 C624 1.418 . S
C629 C625 1.353 . S
C630 H600 0.930 . S
C630 N631 1.330 . S
C630 C632 1.446 . S
N631 Co590 2.151 1_545 S
N631 C630 1.330 . S
N631 C635 1.418 1_545 S
C632 H611 0.929 . S
C632 C630 1.446 . S
C632 C633 1.332 . S
C633 H613 0.931 . S
C633 C632 1.332 . S
C633 C634 1.267 . S
C634 H602 0.929 . S
C634 C633 1.267 . S
C634 C635 1.251 1_545 S
C635 H605 0.929 . S
C635 N631 1.418 1_565 S
C635 C634 1.251 1_565 S
C636 H603 0.930 . S
C636 C638 1.406 . S
C636 C641 1.261 . S
C637 H604 0.930 . S
C637 N639 1.325 . S
C637 C640 1.357 . S
C638 H606 0.928 . S
C638 C636 1.406 . S
C638 N639 1.261 . S
N639 Co590 2.214 . S
N639 C637 1.325 . S
N639 C638 1.261 . S
C640 H610 0.931 . S
C640 C637 1.357 . S
C640 C641 1.312 . S
C641 H612 0.930 . S
C641 C636 1.261 . S
C641 C640 1.312 . S
C642 O614 1.214 . S
C642 O622 1.234 . S
C643 H615 0.929 . S
C643 C646 1.391 . S
C643 C648 1.391 . S
C644 H616 0.929 . S
C644 C645 1.390 . S
C644 N647 1.391 . S
C645 H617 0.930 . S
C645 C644 1.390 . S
C645 C646 1.392 . S
C646 H618 0.929 . S
C646 C643 1.391 . S
C646 C645 1.392 . S
N647 Co591 2.257 . S
N647 C644 1.391 . S
N647 C648 1.388 . S
C648 H619 0.930 . S
C648 C643 1.391 . S
C648 N647 1.388 . S
Co649 O651 2.143 . S
Co649 O657 2.074 . S
Co649 O660 2.093 1_565 S
Co649 O673 2.097 . S
Co649 N690 2.151 1_565 S
Co649 N698 2.214 . S
Co650 O651 2.160 . S
Co650 O656 2.058 . S
Co650 O666 2.057 . S
Co650 O681 2.037 . S
Co650 N685 2.145 . S
Co650 N706 2.257 . S
O651 Co649 2.143 . S
O651 Co650 2.160 . S
C652 O653 1.278 . S
C652 O660 1.224 . S
O653 C652 1.278 . S
C654 O655 1.251 . S
C654 O666 1.232 . S
O655 C654 1.251 . S
O656 Co650 2.058 . S
O656 C682 1.269 . S
O657 Co649 2.074 . S
O657 C682 1.257 . S
H658 C683 0.930 . S
H659 C689 0.930 . S
O660 Co649 2.093 1_545 S
O660 C652 1.224 . S
H661 C693 0.929 . S
H662 C695 0.930 . S
H663 C696 0.930 . S
H664 C694 0.929 . S
H665 C697 0.928 . S
O666 Co650 2.057 . S
O666 C654 1.232 . S
H667 C686 0.929 . S
H668 C687 0.929 . S
H669 C699 0.931 . S
H670 C691 0.929 . S
H671 C700 0.930 . S
H672 C692 0.931 . S
O673 Co649 2.097 . S
O673 C701 1.214 . S
H674 C702 0.929 . S
H675 C703 0.929 . S
H676 C704 0.930 . S
H677 C705 0.929 . S
H678 C707 0.930 . S
H679 C684 0.930 . S
H680 C688 0.930 . S
O681 Co650 2.037 . S
O681 C701 1.234 . S
C682 O656 1.269 . S
C682 O657 1.257 . S
C683 H658 0.930 . S
C683 C686 1.388 . S
C683 C688 1.418 . S
C684 H679 0.930 . S
C684 C687 1.404 . S
C684 C688 1.353 . S
N685 Co650 2.145 . S
N685 C686 1.397 . S
N685 C687 1.334 . S
C686 H667 0.929 . S
C686 C683 1.388 . S
C686 N685 1.397 . S
C687 H668 0.929 . S
C687 C684 1.404 . S
C687 N685 1.334 . S
C688 H680 0.930 . S
C688 C683 1.418 . S
C688 C684 1.353 . S
C689 H659 0.930 . S
C689 N690 1.330 . S
C689 C691 1.446 . S
N690 Co649 2.151 1_545 S
N690 C689 1.330 . S
N690 C694 1.418 1_545 S
C691 H670 0.929 . S
C691 C689 1.446 . S
C691 C692 1.332 . S
C692 H672 0.931 . S
C692 C691 1.332 . S
C692 C693 1.267 . S
C693 H661 0.929 . S
C693 C692 1.267 . S
C693 C694 1.251 1_545 S
C694 H664 0.929 . S
C694 N690 1.418 1_565 S
C694 C693 1.251 1_565 S
C695 H662 0.930 . S
C695 C697 1.406 . S
C695 C700 1.261 . S
C696 H663 0.930 . S
C696 N698 1.325 . S
C696 C699 1.357 . S
C697 H665 0.928 . S
C697 C695 1.406 . S
C697 N698 1.261 . S
N698 Co649 2.214 . S
N698 C696 1.325 . S
N698 C697 1.261 . S
C699 H669 0.931 . S
C699 C696 1.357 . S
C699 C700 1.312 . S
C700 H671 0.930 . S
C700 C695 1.261 . S
C700 C699 1.312 . S
C701 O673 1.214 . S
C701 O681 1.234 . S
C702 H674 0.929 . S
C702 C705 1.391 . S
C702 C707 1.391 . S
C703 H675 0.929 . S
C703 C704 1.390 . S
C703 N706 1.391 . S
C704 H676 0.930 . S
C704 C703 1.390 . S
C704 C705 1.392 . S
C705 H677 0.929 . S
C705 C702 1.391 . S
C705 C704 1.392 . S
N706 Co650 2.257 . S
N706 C703 1.391 . S
N706 C707 1.388 . S
C707 H678 0.930 . S
C707 C702 1.391 . S
C707 N706 1.388 . S
Co708 O710 2.143 . S
Co708 O716 2.074 . S
Co708 O719 2.093 . S
Co708 O732 2.097 . S
Co708 N749 2.151 . S
Co708 N757 2.214 . S
Co709 O710 2.160 . S
Co709 O715 2.058 . S
Co709 O725 2.057 . S
Co709 O740 2.037 . S
Co709 N744 2.145 . S
Co709 N765 2.257 . S
O710 Co708 2.143 . S
O710 Co709 2.160 . S
C711 O712 1.278 . S
C711 O719 1.224 . S
O712 C711 1.278 . S
C713 O714 1.245 . S
C713 O725 1.232 . S
O714 C713 1.245 . S
O715 Co709 2.058 . S
O715 C741 1.269 . S
O716 Co708 2.074 . S
O716 C741 1.257 . S
H717 C742 0.930 . S
H718 C748 0.930 . S
O719 Co708 2.093 . S
O719 C711 1.224 . S
H720 C752 0.929 . S
H721 C754 0.930 . S
H722 C755 0.930 . S
H723 C753 0.929 . S
H724 C756 0.928 . S
O725 Co709 2.057 . S
O725 C713 1.232 . S
H726 C745 0.929 . S
H727 C746 0.929 . S
H728 C758 0.931 . S
H729 C750 0.929 . S
H730 C759 0.930 . S
H731 C751 0.931 . S
O732 Co708 2.097 . S
O732 C760 1.214 . S
H733 C761 0.929 . S
H734 C762 0.929 . S
H735 C763 0.930 . S
H736 C764 0.929 . S
H737 C766 0.930 . S
H738 C743 0.930 . S
H739 C747 0.930 . S
O740 Co709 2.037 . S
O740 C760 1.234 . S
C741 O715 1.269 . S
C741 O716 1.257 . S
C742 H717 0.930 . S
C742 C745 1.388 . S
C742 C747 1.418 . S
C743 H738 0.930 . S
C743 C746 1.404 . S
C743 C747 1.353 . S
N744 Co709 2.145 . S
N744 C745 1.397 . S
N744 C746 1.334 . S
C745 H726 0.929 . S
C745 C742 1.388 . S
C745 N744 1.397 . S
C746 H727 0.929 . S
C746 C743 1.404 . S
C746 N744 1.334 . S
C747 H739 0.930 . S
C747 C742 1.418 . S
C747 C743 1.353 . S
C748 H718 0.930 . S
C748 N749 1.330 . S
C748 C750 1.446 . S
N749 Co708 2.151 . S
N749 C748 1.330 . S
N749 C753 1.418 . S
C750 H729 0.929 . S
C750 C748 1.446 . S
C750 C751 1.332 . S
C751 H731 0.931 . S
C751 C750 1.332 . S
C751 C752 1.267 . S
C752 H720 0.929 . S
C752 C751 1.267 . S
C752 C753 1.251 . S
C753 H723 0.929 . S
C753 N749 1.418 . S
C753 C752 1.251 . S
C754 H721 0.930 . S
C754 C756 1.406 . S
C754 C759 1.261 . S
C755 H722 0.930 . S
C755 N757 1.325 . S
C755 C758 1.357 . S
C756 H724 0.928 . S
C756 C754 1.406 . S
C756 N757 1.261 . S
N757 Co708 2.214 . S
N757 C755 1.325 . S
N757 C756 1.261 . S
C758 H728 0.931 . S
C758 C755 1.357 . S
C758 C759 1.312 . S
C759 H730 0.930 . S
C759 C754 1.261 . S
C759 C758 1.312 . S
C760 O732 1.214 . S
C760 O740 1.234 . S
C761 H733 0.929 . S
C761 C764 1.391 . S
C761 C766 1.391 . S
C762 H734 0.929 . S
C762 C763 1.390 . S
C762 N765 1.391 . S
C763 H735 0.930 . S
C763 C762 1.390 . S
C763 C764 1.392 . S
C764 H736 0.929 . S
C764 C761 1.391 . S
C764 C763 1.392 . S
N765 Co709 2.257 . S
N765 C762 1.391 . S
N765 C766 1.388 . S
C766 H737 0.930 . S
C766 C761 1.391 . S
C766 N765 1.388 . S
Co767 O769 2.143 . S
Co767 O775 2.074 . S
Co767 O778 2.093 . S
Co767 O791 2.097 . S
Co767 N808 2.151 . S
Co767 N816 2.214 . S
Co768 O769 2.160 . S
Co768 O774 2.058 . S
Co768 O784 2.057 . S
Co768 O799 2.037 . S
Co768 N803 2.145 . S
Co768 N824 2.257 . S
O769 Co767 2.143 . S
O769 Co768 2.160 . S
C770 O771 1.278 . S
C770 O778 1.224 . S
O771 C770 1.278 . S
C772 O773 1.245 . S
C772 O784 1.232 . S
O773 C772 1.245 . S
O774 Co768 2.058 . S
O774 C800 1.269 . S
O775 Co767 2.074 . S
O775 C800 1.257 . S
H776 C801 0.930 . S
H777 C807 0.930 . S
O778 Co767 2.093 . S
O778 C770 1.224 . S
H779 C811 0.929 . S
H780 C813 0.930 . S
H781 C814 0.930 . S
H782 C812 0.929 . S
H783 C815 0.928 . S
O784 Co768 2.057 . S
O784 C772 1.232 . S
H785 C804 0.929 . S
H786 C805 0.929 . S
H787 C817 0.931 . S
H788 C809 0.929 . S
H789 C818 0.930 . S
H790 C810 0.931 . S
O791 Co767 2.097 . S
O791 C819 1.214 . S
H792 C820 0.929 . S
H793 C821 0.929 . S
H794 C822 0.930 . S
H795 C823 0.929 . S
H796 C825 0.930 . S
H797 C802 0.930 . S
H798 C806 0.930 . S
O799 Co768 2.037 . S
O799 C819 1.234 . S
C800 O774 1.269 . S
C800 O775 1.257 . S
C801 H776 0.930 . S
C801 C804 1.388 . S
C801 C806 1.418 . S
C802 H797 0.930 . S
C802 C805 1.404 . S
C802 C806 1.353 . S
N803 Co768 2.145 . S
N803 C804 1.397 . S
N803 C805 1.334 . S
C804 H785 0.929 . S
C804 C801 1.388 . S
C804 N803 1.397 . S
C805 H786 0.929 . S
C805 C802 1.404 . S
C805 N803 1.334 . S
C806 H798 0.930 . S
C806 C801 1.418 . S
C806 C802 1.353 . S
C807 H777 0.930 . S
C807 N808 1.330 . S
C807 C809 1.446 . S
N808 Co767 2.151 . S
N808 C807 1.330 . S
N808 C812 1.418 . S
C809 H788 0.929 . S
C809 C807 1.446 . S
C809 C810 1.332 . S
C810 H790 0.931 . S
C810 C809 1.332 . S
C810 C811 1.267 . S
C811 H779 0.929 . S
C811 C810 1.267 . S
C811 C812 1.251 . S
C812 H782 0.929 . S
C812 N808 1.418 . S
C812 C811 1.251 . S
C813 H780 0.930 . S
C813 C815 1.406 . S
C813 C818 1.261 . S
C814 H781 0.930 . S
C814 N816 1.325 . S
C814 C817 1.357 . S
C815 H783 0.928 . S
C815 C813 1.406 . S
C815 N816 1.261 . S
N816 Co767 2.214 . S
N816 C814 1.325 . S
N816 C815 1.261 . S
C817 H787 0.931 . S
C817 C814 1.357 . S
C817 C818 1.312 . S
C818 H789 0.930 . S
C818 C813 1.261 . S
C818 C817 1.312 . S
C819 O791 1.214 . S
C819 O799 1.234 . S
C820 H792 0.929 . S
C820 C823 1.391 . S
C820 C825 1.391 . S
C821 H793 0.929 . S
C821 C822 1.390 . S
C821 N824 1.391 . S
C822 H794 0.930 . S
C822 C821 1.390 . S
C822 C823 1.392 . S
C823 H795 0.929 . S
C823 C820 1.391 . S
C823 C822 1.392 . S
N824 Co768 2.257 . S
N824 C821 1.391 . S
N824 C825 1.388 . S
C825 H796 0.930 . S
C825 C820 1.391 . S
C825 N824 1.388 . S
Co826 O828 2.143 . S
Co826 O834 2.074 . S
Co826 O837 2.093 . S
Co826 O850 2.097 . S
Co826 N867 2.151 . S
Co826 N875 2.214 . S
Co827 O828 2.160 . S
Co827 O833 2.058 . S
Co827 O843 2.057 . S
Co827 O858 2.037 . S
Co827 N862 2.145 . S
Co827 N883 2.257 . S
O828 Co826 2.143 . S
O828 Co827 2.160 . S
C829 O830 1.278 . S
C829 O837 1.224 . S
O830 C829 1.278 . S
C831 O832 1.245 . S
C831 O843 1.232 . S
O832 C831 1.245 . S
O833 Co827 2.058 . S
O833 C859 1.269 . S
O834 Co826 2.074 . S
O834 C859 1.257 . S
H835 C860 0.930 . S
H836 C866 0.930 . S
O837 Co826 2.093 . S
O837 C829 1.224 . S
H838 C870 0.929 . S
H839 C872 0.930 . S
H840 C873 0.930 . S
H841 C871 0.929 . S
H842 C874 0.928 . S
O843 Co827 2.057 . S
O843 C831 1.232 . S
H844 C863 0.929 . S
H845 C864 0.929 . S
H846 C876 0.931 . S
H847 C868 0.929 . S
H848 C877 0.930 . S
H849 C869 0.931 . S
O850 Co826 2.097 . S
O850 C878 1.214 . S
H851 C879 0.929 . S
H852 C880 0.929 . S
H853 C881 0.930 . S
H854 C882 0.929 . S
H855 C884 0.930 . S
H856 C861 0.930 . S
H857 C865 0.930 . S
O858 Co827 2.037 . S
O858 C878 1.234 . S
C859 O833 1.269 . S
C859 O834 1.257 . S
C860 H835 0.930 . S
C860 C863 1.388 . S
C860 C865 1.418 . S
C861 H856 0.930 . S
C861 C864 1.404 . S
C861 C865 1.353 . S
N862 Co827 2.145 . S
N862 C863 1.397 . S
N862 C864 1.334 . S
C863 H844 0.929 . S
C863 C860 1.388 . S
C863 N862 1.397 . S
C864 H845 0.929 . S
C864 C861 1.404 . S
C864 N862 1.334 . S
C865 H857 0.930 . S
C865 C860 1.418 . S
C865 C861 1.353 . S
C866 H836 0.930 . S
C866 N867 1.330 . S
C866 C868 1.446 . S
N867 Co826 2.151 . S
N867 C866 1.330 . S
N867 C871 1.418 . S
C868 H847 0.929 . S
C868 C866 1.446 . S
C868 C869 1.332 . S
C869 H849 0.931 . S
C869 C868 1.332 . S
C869 C870 1.267 . S
C870 H838 0.929 . S
C870 C869 1.267 . S
C870 C871 1.251 . S
C871 H841 0.929 . S
C871 N867 1.418 . S
C871 C870 1.251 . S
C872 H839 0.930 . S
C872 C874 1.406 . S
C872 C877 1.261 . S
C873 H840 0.930 . S
C873 N875 1.325 . S
C873 C876 1.357 . S
C874 H842 0.928 . S
C874 C872 1.406 . S
C874 N875 1.261 . S
N875 Co826 2.214 . S
N875 C873 1.325 . S
N875 C874 1.261 . S
C876 H846 0.931 . S
C876 C873 1.357 . S
C876 C877 1.312 . S
C877 H848 0.930 . S
C877 C872 1.261 . S
C877 C876 1.312 . S
C878 O850 1.214 . S
C878 O858 1.234 . S
C879 H851 0.929 . S
C879 C882 1.391 . S
C879 C884 1.391 . S
C880 H852 0.929 . S
C880 C881 1.390 . S
C880 N883 1.391 . S
C881 H853 0.930 . S
C881 C880 1.390 . S
C881 C882 1.392 . S
C882 H854 0.929 . S
C882 C879 1.391 . S
C882 C881 1.392 . S
N883 Co827 2.257 . S
N883 C880 1.391 . S
N883 C884 1.388 . S
C884 H855 0.930 . S
C884 C879 1.391 . S
C884 N883 1.388 . S
Co885 O887 2.143 . S
Co885 O893 2.074 . S
Co885 O896 2.093 . S
Co885 O909 2.097 . S
Co885 N926 2.151 . S
Co885 N934 2.214 . S
Co886 O887 2.160 . S
Co886 O892 2.058 . S
Co886 O902 2.057 . S
Co886 O917 2.037 . S
Co886 N921 2.145 . S
Co886 N942 2.257 . S
O887 Co885 2.143 . S
O887 Co886 2.160 . S
C888 O889 1.278 . S
C888 O896 1.224 . S
O889 C888 1.278 . S
C890 O891 1.245 . S
C890 O902 1.232 . S
O891 C890 1.245 . S
O892 Co886 2.058 . S
O892 C918 1.269 . S
O893 Co885 2.074 . S
O893 C918 1.257 . S
H894 C919 0.930 . S
H895 C925 0.930 . S
O896 Co885 2.093 . S
O896 C888 1.224 . S
H897 C929 0.929 . S
H898 C931 0.930 . S
H899 C932 0.930 . S
H900 C930 0.929 . S
H901 C933 0.928 . S
O902 Co886 2.057 . S
O902 C890 1.232 . S
H903 C922 0.929 . S
H904 C923 0.929 . S
H905 C935 0.931 . S
H906 C927 0.929 . S
H907 C936 0.930 . S
H908 C928 0.931 . S
O909 Co885 2.097 . S
O909 C937 1.214 . S
H910 C938 0.929 . S
H911 C939 0.929 . S
H912 C940 0.930 . S
H913 C941 0.929 . S
H914 C943 0.930 . S
H915 C920 0.930 . S
H916 C924 0.930 . S
O917 Co886 2.037 . S
O917 C937 1.234 . S
C918 O892 1.269 . S
C918 O893 1.257 . S
C919 H894 0.930 . S
C919 C922 1.388 . S
C919 C924 1.418 . S
C920 H915 0.930 . S
C920 C923 1.404 . S
C920 C924 1.353 . S
N921 Co886 2.145 . S
N921 C922 1.397 . S
N921 C923 1.334 . S
C922 H903 0.929 . S
C922 C919 1.388 . S
C922 N921 1.397 . S
C923 H904 0.929 . S
C923 C920 1.404 . S
C923 N921 1.334 . S
C924 H916 0.930 . S
C924 C919 1.418 . S
C924 C920 1.353 . S
C925 H895 0.930 . S
C925 N926 1.330 . S
C925 C927 1.446 . S
N926 Co885 2.151 . S
N926 C925 1.330 . S
N926 C930 1.418 . S
C927 H906 0.929 . S
C927 C925 1.446 . S
C927 C928 1.332 . S
C928 H908 0.931 . S
C928 C927 1.332 . S
C928 C929 1.267 . S
C929 H897 0.929 . S
C929 C928 1.267 . S
C929 C930 1.251 . S
C930 H900 0.929 . S
C930 N926 1.418 . S
C930 C929 1.251 . S
C931 H898 0.930 . S
C931 C933 1.406 . S
C931 C936 1.261 . S
C932 H899 0.930 . S
C932 N934 1.325 . S
C932 C935 1.357 . S
C933 H901 0.928 . S
C933 C931 1.406 . S
C933 N934 1.261 . S
N934 Co885 2.214 . S
N934 C932 1.325 . S
N934 C933 1.261 . S
C935 H905 0.931 . S
C935 C932 1.357 . S
C935 C936 1.312 . S
C936 H907 0.930 . S
C936 C931 1.261 . S
C936 C935 1.312 . S
C937 O909 1.214 . S
C937 O917 1.234 . S
C938 H910 0.929 . S
C938 C941 1.391 . S
C938 C943 1.391 . S
C939 H911 0.929 . S
C939 C940 1.390 . S
C939 N942 1.391 . S
C940 H912 0.930 . S
C940 C939 1.390 . S
C940 C941 1.392 . S
C941 H913 0.929 . S
C941 C938 1.391 . S
C941 C940 1.392 . S
N942 Co886 2.257 . S
N942 C939 1.391 . S
N942 C943 1.388 . S
C943 H914 0.930 . S
C943 C938 1.391 . S
C943 N942 1.388 . S
C944 C945 1.387 . S
C944 H948 0.950 . S
C944 C953 1.390 . S
C945 C944 1.387 . S
C945 C947 1.387 . S
H946 C953 0.950 . S
C947 C945 1.387 . S
C947 C949 1.390 . S
C947 H951 0.950 . S
H948 C944 0.950 . S
C949 C947 1.390 . S
C949 C950 1.387 . S
C949 H952 0.950 . S
C950 C949 1.387 . S
C950 C953 1.387 . S
H951 C947 0.950 . S
H952 C949 0.950 . S
C953 C944 1.390 . S
C953 H946 0.950 . S
C953 C950 1.387 . S
C954 C955 1.387 . S
C954 H958 0.950 . S
C954 C963 1.390 1_655 S
C955 C954 1.387 . S
C955 C957 1.387 1_565 S
H956 C963 0.950 . S
C957 C955 1.387 1_545 S
C957 C959 1.390 1_655 S
C957 H961 0.950 . S
H958 C954 0.950 . S
C959 C957 1.390 1_455 S
C959 C960 1.387 . S
C959 H962 0.950 . S
C960 C959 1.387 . S
C960 C963 1.387 1_545 S
H961 C957 0.950 . S
H962 C959 0.950 . S
C963 C954 1.390 1_455 S
C963 H956 0.950 . S
C963 C960 1.387 1_565 S
C964 C965 1.387 1_545 S
C964 H968 0.950 . S
C964 C973 1.390 . S
C965 C964 1.387 1_565 S
C965 C967 1.387 . S
H966 C973 0.950 . S
C967 C965 1.387 . S
C967 C969 1.390 . S
C967 H971 0.950 . S
H968 C964 0.950 . S
C969 C967 1.390 . S
C969 C970 1.387 1_565 S
C969 H972 0.950 . S
C970 C969 1.387 1_545 S
C970 C973 1.387 . S
H971 C967 0.950 . S
H972 C969 0.950 . S
C973 C964 1.390 . S
C973 H966 0.950 . S
C973 C970 1.387 . S
C974 C975 1.387 . S
C974 H978 0.950 . S
C974 C983 1.390 1_455 S
C975 C974 1.387 . S
C975 C977 1.387 . S
H976 C983 0.950 . S
C977 C975 1.387 . S
C977 C979 1.390 1_455 S
C977 H981 0.950 . S
H978 C974 0.950 . S
C979 C977 1.390 1_655 S
C979 C980 1.387 . S
C979 H982 0.950 . S
C980 C979 1.387 . S
C980 C983 1.387 . S
H981 C977 0.950 . S
H982 C979 0.950 . S
C983 C974 1.390 1_655 S
C983 H976 0.950 . S
C983 C980 1.387 . S
C984 C985 1.387 . S
C984 H988 0.950 . S
C984 C993 1.390 . S
C985 C984 1.387 . S
C985 C987 1.387 . S
H986 C993 0.950 . S
C987 C985 1.387 . S
C987 C989 1.390 . S
C987 H991 0.950 . S
H988 C984 0.950 . S
C989 C987 1.390 . S
C989 C990 1.387 . S
C989 H992 0.950 . S
C990 C989 1.387 . S
C990 C993 1.387 . S
H991 C987 0.950 . S
H992 C989 0.950 . S
C993 C984 1.390 . S
C993 H986 0.950 . S
C993 C990 1.387 . S
C994 C995 1.387 1_565 S
C994 H998 0.950 . S
C994 C1003 1.390 . S
C995 C994 1.387 1_545 S
C995 C997 1.387 . S
H996 C1003 0.950 . S
C997 C995 1.387 . S
C997 C999 1.390 . S
C997 H1001 0.950 . S
H998 C994 0.950 . S
C999 C997 1.390 . S
C999 C1000 1.387 1_545 S
C999 H1002 0.950 . S
C1000 C999 1.387 1_565 S
C1000 C1003 1.387 . S
H1001 C997 0.950 . S
H1002 C999 0.950 . S
C1003 C994 1.390 . S
C1003 H996 0.950 . S
C1003 C1000 1.387 . S
C1004 C1005 1.387 . S
C1004 H1008 0.950 . S
C1004 C1013 1.390 1_655 S
C1005 C1004 1.387 . S
C1005 C1007 1.387 . S
H1006 C1013 0.950 . S
C1007 C1005 1.387 . S
C1007 C1009 1.390 1_655 S
C1007 H1011 0.950 . S
H1008 C1004 0.950 . S
C1009 C1007 1.390 1_455 S
C1009 C1010 1.387 . S
C1009 H1012 0.950 . S
C1010 C1009 1.387 . S
C1010 C1013 1.387 . S
H1011 C1007 0.950 . S
H1012 C1009 0.950 . S
C1013 C1004 1.390 1_455 S
C1013 H1006 0.950 . S
C1013 C1010 1.387 . S
C1014 C1015 1.387 . S
C1014 H1018 0.950 . S
C1014 C1023 1.374 1_554 S
C1015 C1014 1.387 . S
C1015 C1017 1.409 . S
H1016 C1023 0.944 . S
C1017 C1015 1.409 . S
C1017 C1019 1.374 1_554 S
C1017 H1021 0.944 . S
H1018 C1014 0.950 . S
C1019 C1017 1.374 1_556 S
C1019 C1020 1.387 . S
C1019 H1022 0.950 . S
C1020 C1019 1.387 . S
C1020 C1023 1.409 . S
H1021 C1017 0.944 . S
H1022 C1019 0.950 . S
C1023 C1014 1.374 1_556 S
C1023 H1016 0.944 . S
C1023 C1020 1.409 . S
C1024 C1025 1.387 . S
C1024 H1028 0.950 . S
C1024 C1033 1.390 1_456 S
C1025 C1024 1.387 . S
C1025 C1027 1.387 . S
H1026 C1033 0.950 . S
C1027 C1025 1.387 . S
C1027 C1029 1.390 1_456 S
C1027 H1031 0.950 . S
H1028 C1024 0.950 . S
C1029 C1027 1.390 1_654 S
C1029 C1030 1.387 . S
C1029 H1032 0.950 . S
C1030 C1029 1.387 . S
C1030 C1033 1.387 . S
H1031 C1027 0.950 . S
H1032 C1029 0.950 . S
C1033 C1024 1.390 1_654 S
C1033 H1026 0.950 . S
C1033 C1030 1.387 . S
C1034 C1035 1.387 . S
C1034 H1038 0.950 . S
C1034 C1043 1.390 . S
C1035 C1034 1.387 . S
C1035 C1037 1.387 . S
H1036 C1043 0.950 . S
C1037 C1035 1.387 . S
C1037 C1039 1.390 . S
C1037 H1041 0.950 . S
H1038 C1034 0.950 . S
C1039 C1037 1.390 . S
C1039 C1040 1.387 . S
C1039 H1042 0.950 . S
C1040 C1039 1.387 . S
C1040 C1043 1.387 . S
H1041 C1037 0.950 . S
H1042 C1039 0.950 . S
C1043 C1034 1.390 . S
C1043 H1036 0.950 . S
C1043 C1040 1.387 . S
C1044 C1045 1.388 1_554 S
C1044 H1048 0.949 . S
C1044 C1053 1.389 . S
C1045 C1044 1.388 1_556 S
C1045 C1047 1.387 . S
H1046 C1053 0.950 . S
C1047 C1045 1.387 . S
C1047 C1049 1.389 . S
C1047 H1051 0.950 . S
H1048 C1044 0.949 . S
C1049 C1047 1.389 . S
C1049 C1050 1.388 1_556 S
C1049 H1052 0.949 . S
C1050 C1049 1.388 1_554 S
C1050 C1053 1.387 . S
H1051 C1047 0.950 . S
H1052 C1049 0.949 . S
C1053 C1044 1.389 . S
C1053 H1046 0.950 . S
C1053 C1050 1.387 . S
C1054 C1055 1.387 . S
C1054 H1058 0.950 . S
C1054 C1063 1.390 . S
C1055 C1054 1.387 . S
C1055 C1057 1.387 . S
H1056 C1063 0.950 . S
C1057 C1055 1.387 . S
C1057 C1059 1.390 . S
C1057 H1061 0.950 . S
H1058 C1054 0.950 . S
C1059 C1057 1.390 . S
C1059 C1060 1.387 . S
C1059 H1062 0.950 . S
C1060 C1059 1.387 . S
C1060 C1063 1.387 . S
H1061 C1057 0.950 . S
H1062 C1059 0.950 . S
C1063 C1054 1.390 . S
C1063 H1056 0.950 . S
C1063 C1060 1.387 . S
C1064 C1065 1.387 . S
C1064 H1068 0.950 . S
C1064 C1073 1.390 1_556 S
C1065 C1064 1.387 . S
C1065 C1067 1.387 1_545 S
H1066 C1073 0.950 . S
C1067 C1065 1.387 1_565 S
C1067 C1069 1.390 1_556 S
C1067 H1071 0.950 . S
H1068 C1064 0.950 . S
C1069 C1067 1.390 1_554 S
C1069 C1070 1.387 . S
C1069 H1072 0.950 . S
C1070 C1069 1.387 . S
C1070 C1073 1.387 1_565 S
H1071 C1067 0.950 . S
H1072 C1069 0.950 . S
C1073 C1064 1.390 1_554 S
C1073 H1066 0.950 . S
C1073 C1070 1.387 1_545 S
C1074 C1075 1.387 . S
C1074 H1078 0.950 . S
C1074 C1083 1.390 . S
C1075 C1074 1.387 . S
C1075 C1077 1.387 . S
H1076 C1083 0.950 . S
C1077 C1075 1.387 . S
C1077 C1079 1.390 . S
C1077 H1081 0.950 . S
H1078 C1074 0.950 . S
C1079 C1077 1.390 . S
C1079 C1080 1.387 . S
C1079 H1082 0.950 . S
C1080 C1079 1.387 . S
C1080 C1083 1.387 . S
H1081 C1077 0.950 . S
H1082 C1079 0.950 . S
C1083 C1074 1.390 . S
C1083 H1076 0.950 . S
C1083 C1080 1.387 . S
C1084 C1085 1.387 . S
C1084 H1088 0.950 . S
C1084 C1093 1.390 . S
C1085 C1084 1.387 . S
C1085 C1087 1.387 . S
H1086 C1093 0.950 . S
C1087 C1085 1.387 . S
C1087 C1089 1.390 . S
C1087 H1091 0.950 . S
H1088 C1084 0.950 . S
C1089 C1087 1.390 . S
C1089 C1090 1.387 . S
C1089 H1092 0.950 . S
C1090 C1089 1.387 . S
C1090 C1093 1.387 . S
H1091 C1087 0.950 . S
H1092 C1089 0.950 . S
C1093 C1084 1.390 . S
C1093 H1086 0.950 . S
C1093 C1090 1.387 . S
C1094 C1095 1.387 . S
C1094 H1098 0.950 . S
C1094 C1103 1.390 . S
C1095 C1094 1.387 . S
C1095 C1097 1.387 . S
H1096 C1103 0.950 . S
C1097 C1095 1.387 . S
C1097 C1099 1.390 . S
C1097 H1101 0.950 . S
H1098 C1094 0.950 . S
C1099 C1097 1.390 . S
C1099 C1100 1.387 . S
C1099 H1102 0.950 . S
C1100 C1099 1.387 . S
C1100 C1103 1.387 . S
H1101 C1097 0.950 . S
H1102 C1099 0.950 . S
C1103 C1094 1.390 . S
C1103 H1096 0.950 . S
C1103 C1100 1.387 . S
C1104 C1105 1.387 . S
C1104 H1108 0.950 . S
C1104 C1113 1.390 . S
C1105 C1104 1.387 . S
C1105 C1107 1.387 . S
H1106 C1113 0.950 . S
C1107 C1105 1.387 . S
C1107 C1109 1.390 . S
C1107 H1111 0.950 . S
H1108 C1104 0.950 . S
C1109 C1107 1.390 . S
C1109 C1110 1.387 . S
C1109 H1112 0.950 . S
C1110 C1109 1.387 . S
C1110 C1113 1.387 . S
H1111 C1107 0.950 . S
H1112 C1109 0.950 . S
C1113 C1104 1.390 . S
C1113 H1106 0.950 . S
C1113 C1110 1.387 . S
C1114 C1115 1.387 . S
C1114 H1118 0.950 . S
C1114 C1123 1.390 . S
C1115 C1114 1.387 . S
C1115 C1117 1.387 . S
H1116 C1123 0.950 . S
C1117 C1115 1.387 . S
C1117 C1119 1.390 . S
C1117 H1121 0.950 . S
H1118 C1114 0.950 . S
C1119 C1117 1.390 . S
C1119 C1120 1.387 . S
C1119 H1122 0.950 . S
C1120 C1119 1.387 . S
C1120 C1123 1.387 . S
H1121 C1117 0.950 . S
H1122 C1119 0.950 . S
C1123 C1114 1.390 . S
C1123 H1116 0.950 . S
C1123 C1120 1.387 . S
C1124 C1125 1.387 . S
C1124 H1128 0.950 . S
C1124 C1133 1.390 . S
C1125 C1124 1.387 . S
C1125 C1127 1.387 . S
H1126 C1133 0.950 . S
C1127 C1125 1.387 . S
C1127 C1129 1.390 . S
C1127 H1131 0.950 . S
H1128 C1124 0.950 . S
C1129 C1127 1.390 . S
C1129 C1130 1.387 . S
C1129 H1132 0.950 . S
C1130 C1129 1.387 . S
C1130 C1133 1.387 . S
H1131 C1127 0.950 . S
H1132 C1129 0.950 . S
C1133 C1124 1.390 . S
C1133 H1126 0.950 . S
C1133 C1130 1.387 . S
C1134 C1135 1.387 . S
C1134 H1138 0.950 . S
C1134 C1143 1.390 . S
C1135 C1134 1.387 . S
C1135 C1137 1.387 . S
H1136 C1143 0.950 . S
C1137 C1135 1.387 . S
C1137 C1139 1.390 . S
C1137 H1141 0.950 . S
H1138 C1134 0.950 . S
C1139 C1137 1.390 . S
C1139 C1140 1.387 . S
C1139 H1142 0.950 . S
C1140 C1139 1.387 . S
C1140 C1143 1.387 . S
H1141 C1137 0.950 . S
H1142 C1139 0.950 . S
C1143 C1134 1.390 . S
C1143 H1136 0.950 . S
C1143 C1140 1.387 . S
C1144 C1145 1.387 . S
C1144 H1148 0.950 . S
C1144 C1153 1.390 . S
C1145 C1144 1.387 . S
C1145 C1147 1.387 . S
H1146 C1153 0.950 . S
C1147 C1145 1.387 . S
C1147 C1149 1.390 . S
C1147 H1151 0.950 . S
H1148 C1144 0.950 . S
C1149 C1147 1.390 . S
C1149 C1150 1.387 . S
C1149 H1152 0.950 . S
C1150 C1149 1.387 . S
C1150 C1153 1.387 . S
H1151 C1147 0.950 . S
H1152 C1149 0.950 . S
C1153 C1144 1.390 . S
C1153 H1146 0.950 . S
C1153 C1150 1.387 . S
C1154 C1155 1.387 . S
C1154 H1158 0.950 . S
C1154 C1163 1.390 . S
C1155 C1154 1.387 . S
C1155 C1157 1.387 . S
H1156 C1163 0.950 . S
C1157 C1155 1.387 . S
C1157 C1159 1.390 . S
C1157 H1161 0.950 . S
H1158 C1154 0.950 . S
C1159 C1157 1.390 . S
C1159 C1160 1.387 . S
C1159 H1162 0.950 . S
C1160 C1159 1.387 . S
C1160 C1163 1.387 . S
H1161 C1157 0.950 . S
H1162 C1159 0.950 . S
C1163 C1154 1.390 . S
C1163 H1156 0.950 . S
C1163 C1160 1.387 . S
C1164 C1165 1.387 . S
C1164 H1168 0.950 . S
C1164 C1173 1.390 . S
C1165 C1164 1.387 . S
C1165 C1167 1.387 . S
H1166 C1173 0.950 . S
C1167 C1165 1.387 . S
C1167 C1169 1.390 . S
C1167 H1171 0.950 . S
H1168 C1164 0.950 . S
C1169 C1167 1.390 . S
C1169 C1170 1.387 . S
C1169 H1172 0.950 . S
C1170 C1169 1.387 . S
C1170 C1173 1.387 . S
H1171 C1167 0.950 . S
H1172 C1169 0.950 . S
C1173 C1164 1.390 . S
C1173 H1166 0.950 . S
C1173 C1170 1.387 . S
C1174 C1175 1.387 . S
C1174 H1178 0.950 . S
C1174 C1183 1.390 . S
C1175 C1174 1.387 . S
C1175 C1177 1.387 . S
H1176 C1183 0.950 . S
C1177 C1175 1.387 . S
C1177 C1179 1.390 . S
C1177 H1181 0.950 . S
H1178 C1174 0.950 . S
C1179 C1177 1.390 . S
C1179 C1180 1.387 . S
C1179 H1182 0.950 . S
C1180 C1179 1.387 . S
C1180 C1183 1.387 . S
H1181 C1177 0.950 . S
H1182 C1179 0.950 . S
C1183 C1174 1.390 . S
C1183 H1176 0.950 . S
C1183 C1180 1.387 . S
C1184 C1185 1.387 . S
C1184 H1188 0.950 . S
C1184 C1193 1.390 . S
C1185 C1184 1.387 . S
C1185 C1187 1.387 . S
H1186 C1193 0.950 . S
C1187 C1185 1.387 . S
C1187 C1189 1.390 . S
C1187 H1191 0.950 . S
H1188 C1184 0.950 . S
C1189 C1187 1.390 . S
C1189 C1190 1.387 . S
C1189 H1192 0.950 . S
C1190 C1189 1.387 . S
C1190 C1193 1.387 . S
H1191 C1187 0.950 . S
H1192 C1189 0.950 . S
C1193 C1184 1.390 . S
C1193 H1186 0.950 . S
C1193 C1190 1.387 . S
C1194 C1195 1.387 . S
C1194 H1198 0.950 . S
C1194 C1203 1.390 . S
C1195 C1194 1.387 . S
C1195 C1197 1.387 . S
H1196 C1203 0.950 . S
C1197 C1195 1.387 . S
C1197 C1199 1.390 . S
C1197 H1201 0.950 . S
H1198 C1194 0.950 . S
C1199 C1197 1.390 . S
C1199 C1200 1.387 . S
C1199 H1202 0.950 . S
C1200 C1199 1.387 . S
C1200 C1203 1.387 . S
H1201 C1197 0.950 . S
H1202 C1199 0.950 . S
C1203 C1194 1.390 . S
C1203 H1196 0.950 . S
C1203 C1200 1.387 . S
C1204 C1205 1.387 . S
C1204 H1208 0.950 . S
C1204 C1213 1.390 . S
C1205 C1204 1.387 . S
C1205 C1207 1.387 . S
H1206 C1213 0.950 . S
C1207 C1205 1.387 . S
C1207 C1209 1.390 . S
C1207 H1211 0.950 . S
H1208 C1204 0.950 . S
C1209 C1207 1.390 . S
C1209 C1210 1.387 . S
C1209 H1212 0.950 . S
C1210 C1209 1.387 . S
C1210 C1213 1.387 . S
H1211 C1207 0.950 . S
H1212 C1209 0.950 . S
C1213 C1204 1.390 . S
C1213 H1206 0.950 . S
C1213 C1210 1.387 . S
C1214 C1215 1.387 . S
C1214 H1218 0.950 . S
C1214 C1223 1.390 . S
C1215 C1214 1.387 . S
C1215 C1217 1.387 . S
H1216 C1223 0.950 . S
C1217 C1215 1.387 . S
C1217 C1219 1.390 . S
C1217 H1221 0.950 . S
H1218 C1214 0.950 . S
C1219 C1217 1.390 . S
C1219 C1220 1.387 . S
C1219 H1222 0.950 . S
C1220 C1219 1.387 . S
C1220 C1223 1.387 . S
H1221 C1217 0.950 . S
H1222 C1219 0.950 . S
C1223 C1214 1.390 . S
C1223 H1216 0.950 . S
C1223 C1220 1.387 . S
C1224 C1225 1.387 . S
C1224 H1228 0.950 . S
C1224 C1233 1.390 . S
C1225 C1224 1.387 . S
C1225 C1227 1.387 . S
H1226 C1233 0.950 . S
C1227 C1225 1.387 . S
C1227 C1229 1.390 . S
C1227 H1231 0.950 . S
H1228 C1224 0.950 . S
C1229 C1227 1.390 . S
C1229 C1230 1.387 . S
C1229 H1232 0.950 . S
C1230 C1229 1.387 . S
C1230 C1233 1.387 . S
H1231 C1227 0.950 . S
H1232 C1229 0.950 . S
C1233 C1224 1.390 . S
C1233 H1226 0.950 . S
C1233 C1230 1.387 . S
C1234 C1235 1.387 . S
C1234 H1238 0.950 . S
C1234 C1243 1.390 . S
C1235 C1234 1.387 . S
C1235 C1237 1.387 . S
H1236 C1243 0.950 . S
C1237 C1235 1.387 . S
C1237 C1239 1.390 . S
C1237 H1241 0.950 . S
H1238 C1234 0.950 . S
C1239 C1237 1.390 . S
C1239 C1240 1.387 . S
C1239 H1242 0.950 . S
C1240 C1239 1.387 . S
C1240 C1243 1.387 . S
H1241 C1237 0.950 . S
H1242 C1239 0.950 . S
C1243 C1234 1.390 . S
C1243 H1236 0.950 . S
C1243 C1240 1.387 . S
C1244 C1245 1.387 . S
C1244 H1248 0.950 . S
C1244 C1253 1.390 . S
C1245 C1244 1.387 . S
C1245 C1247 1.387 . S
H1246 C1253 0.950 . S
C1247 C1245 1.387 . S
C1247 C1249 1.390 . S
C1247 H1251 0.950 . S
H1248 C1244 0.950 . S
C1249 C1247 1.390 . S
C1249 C1250 1.387 . S
C1249 H1252 0.950 . S
C1250 C1249 1.387 . S
C1250 C1253 1.387 . S
H1251 C1247 0.950 . S
H1252 C1249 0.950 . S
C1253 C1244 1.390 . S
C1253 H1246 0.950 . S
C1253 C1250 1.387 . S
C1254 C1255 1.387 . S
C1254 H1258 0.950 . S
C1254 C1263 1.390 . S
C1255 C1254 1.387 . S
C1255 C1257 1.387 . S
H1256 C1263 0.950 . S
C1257 C1255 1.387 . S
C1257 C1259 1.390 . S
C1257 H1261 0.950 . S
H1258 C1254 0.950 . S
C1259 C1257 1.390 . S
C1259 C1260 1.387 . S
C1259 H1262 0.950 . S
C1260 C1259 1.387 . S
C1260 C1263 1.387 . S
H1261 C1257 0.950 . S
H1262 C1259 0.950 . S
C1263 C1254 1.390 . S
C1263 H1256 0.950 . S
C1263 C1260 1.387 . S
C945 C859 1.513 . S
C950 C33 1.513 . S
C955 C123 1.508 . S
C960 C5 1.508 . S
C965 C654 1.508 . S
C970 C64 1.508 . S
C975 C92 1.513 . S
C980 C446 1.513 . S
C985 C151 1.513 . S
C990 C741 1.513 . S
C995 C536 1.508 . S
C1000 C182 1.508 . S
C1005 C210 1.513 . S
C1010 C328 1.513 . S
C1015 C623 1.513 . S
C1020 C269 1.513 . S
C1025 C241 1.508 . S
C1030 C359 1.508 . S
C1035 C890 1.508 . S
C1040 C300 1.508 . S
C1045 C505 1.513 . S
C1050 C387 1.513 . S
C1055 C772 1.509 . S
C1060 C418 1.509 . S
C1065 C477 1.508 . S
C1070 C595 1.508 . S
C1075 C918 1.513 . S
C1080 C564 1.513 . S
C1085 C682 1.513 . S
C1090 C800 1.513 . S
C1095 C831 1.508 . S
C1100 C713 1.508 . S
C1105 C347 1.573 . S
C1110 C3 1.564 . S
C1115 C52 1.573 . S
C1120 C298 1.564 . S
C1125 C111 1.573 . S
C1130 C239 1.565 . S
C1135 C288 1.573 . S
C1140 C62 1.564 . S
C1145 C465 1.573 . S
C1150 C121 1.564 . S
C1155 C416 1.565 . S
C1160 C170 1.573 . S
C1165 C357 1.564 . S
C1170 C229 1.573 . S
C1175 C180 1.564 . S
C1180 C406 1.573 . S
C1185 C819 1.573 . S
C1190 C475 1.564 . S
C1195 C524 1.573 . S
C1200 C770 1.564 . S
C1205 C583 1.573 . S
C1210 C711 1.564 . S
C1215 C760 1.573 . S
C1220 C534 1.564 . S
C1225 C937 1.573 . S
C1230 C593 1.565 . S
C1235 C888 1.564 . S
C1240 C642 1.573 . S
C1245 C701 1.573 . S
C1250 C829 1.564 . S
C1255 C878 1.573 . S
C1260 C652 1.564 . S
