# Generated by pormake.
# Topology snz, (6)-cn, num edge types: 1
# Building blocks:
#     Node 0, Type 0, BuildingBlock: BETDIP_clean_sbu_0, # of connection points: 6
#     Node 1, Type 0, BuildingBlock: BETDIP_clean_sbu_0, # of connection points: 6
#     Node 2, Type 0, BuildingBlock: BETDIP_clean_sbu_0, # of connection points: 6
#     Node 3, Type 0, BuildingBlock: BETDIP_clean_sbu_0, # of connection points: 6
#     Node 4, Type 0, BuildingBlock: BETDIP_clean_sbu_0, # of connection points: 6
#     Node 5, Type 0, BuildingBlock: BETDIP_clean_sbu_0, # of connection points: 6
#     Node 6, Type 0, BuildingBlock: BETDIP_clean_sbu_0, # of connection points: 6
#     Node 7, Type 0, BuildingBlock: BETDIP_clean_sbu_0, # of connection points: 6
#     Node 8, Type 0, BuildingBlock: BETDIP_clean_sbu_0, # of connection points: 6
#     Edge 9, Type (0, 0), BuildingBlock: TEMPAE_clean_linker_10, # of connection points: 2
#     Edge 10, Type (0, 0), BuildingBlock: TEMPAE_clean_linker_10, # of connection points: 2
#     Edge 11, Type (0, 0), BuildingBlock: TEMPAE_clean_linker_10, # of connection points: 2
#     Edge 12, Type (0, 0), BuildingBlock: TEMPAE_clean_linker_10, # of connection points: 2
#     Edge 13, Type (0, 0), BuildingBlock: TEMPAE_clean_linker_10, # of connection points: 2
#     Edge 14, Type (0, 0), BuildingBlock: TEMPAE_clean_linker_10, # of connection points: 2
#     Edge 15, Type (0, 0), BuildingBlock: TEMPAE_clean_linker_10, # of connection points: 2
#     Edge 16, Type (0, 0), BuildingBlock: TEMPAE_clean_linker_10, # of connection points: 2
#     Edge 17, Type (0, 0), BuildingBlock: TEMPAE_clean_linker_10, # of connection points: 2
#     Edge 18, Type (0, 0), BuildingBlock: TEMPAE_clean_linker_10, # of connection points: 2
#     Edge 19, Type (0, 0), BuildingBlock: TEMPAE_clean_linker_10, # of connection points: 2
#     Edge 20, Type (0, 0), BuildingBlock: TEMPAE_clean_linker_10, # of connection points: 2
#     Edge 21, Type (0, 0), BuildingBlock: TEMPAE_clean_linker_10, # of connection points: 2
#     Edge 22, Type (0, 0), BuildingBlock: TEMPAE_clean_linker_10, # of connection points: 2
#     Edge 23, Type (0, 0), BuildingBlock: TEMPAE_clean_linker_10, # of connection points: 2
#     Edge 24, Type (0, 0), BuildingBlock: TEMPAE_clean_linker_10, # of connection points: 2
#     Edge 25, Type (0, 0), BuildingBlock: TEMPAE_clean_linker_10, # of connection points: 2
#     Edge 26, Type (0, 0), BuildingBlock: TEMPAE_clean_linker_10, # of connection points: 2
#     Edge 27, Type (0, 0), BuildingBlock: TEMPAE_clean_linker_10, # of connection points: 2
#     Edge 28, Type (0, 0), BuildingBlock: TEMPAE_clean_linker_10, # of connection points: 2
#     Edge 29, Type (0, 0), BuildingBlock: TEMPAE_clean_linker_10, # of connection points: 2
#     Edge 30, Type (0, 0), BuildingBlock: TEMPAE_clean_linker_10, # of connection points: 2
#     Edge 31, Type (0, 0), BuildingBlock: TEMPAE_clean_linker_10, # of connection points: 2
#     Edge 32, Type (0, 0), BuildingBlock: TEMPAE_clean_linker_10, # of connection points: 2
#     Edge 33, Type (0, 0), BuildingBlock: TEMPAE_clean_linker_10, # of connection points: 2
#     Edge 34, Type (0, 0), BuildingBlock: TEMPAE_clean_linker_10, # of connection points: 2
#     Edge 35, Type (0, 0), BuildingBlock: TEMPAE_clean_linker_10, # of connection points: 2
# Relax obj value: 0.163
# Max RMSD: 0.233
# Mean RMSD: 0.208
data_MOF--net-snz--node1-BETDIP_clean_sbu_0--edge1-TEMPAE_clean_linker_10
_symmetry_space_group_name_H-M    P1
_symmetry_Int_Tables_number       1
_symmetry_cell_setting            triclinic
loop_
_symmetry_equiv_pos_as_xyz
'x, y, z'
_cell_length_a     68.239027
_cell_length_b     68.283112
_cell_length_c     14.702639
_cell_angle_alpha  90.044287
_cell_angle_beta   89.869305
_cell_angle_gamma 119.95468
loop_
_atom_site_label
_atom_site_type_symbol
_atom_site_fract_x
_atom_site_fract_y
_atom_site_fract_z
_atom_type_partial_charge
Tb0 Tb 0.21308 0.50074 -0.00276 0.0
Tb1 Tb 0.17065 0.50336 0.97724 0.0
C2 C 0.24474 0.49377 0.04569 0.0
C3 C 0.26387 0.48988 0.07244 0.0
C4 C 0.26387 0.47987 0.15626 0.0
C5 C 0.28213 0.47679 0.18159 0.0
C6 C 0.30099 0.48343 0.12368 0.0
C7 C 0.30083 0.49333 0.03961 0.0
C8 C 0.28269 0.49658 0.01471 0.0
C9 C 0.20474 0.50926 0.82929 0.0
C10 C 0.16465 0.45519 0.94706 0.0
C11 C 0.14077 0.5126 0.92792 0.0
C12 C 0.13683 0.53188 0.91545 0.0
C13 C 0.12528 0.53237 0.83752 0.0
C14 C 0.11935 0.54908 0.82646 0.0
C15 C 0.1247 0.56573 0.89348 0.0
C16 C 0.13703 0.56572 0.97028 0.0
C17 C 0.14303 0.54894 0.98123 0.0
C18 C 0.17878 0.49436 0.14539 0.0
C19 C 0.21594 0.54852 0.01816 0.0
O20 O 0.22512 0.48469 0.08746 0.0
O21 O 0.24618 0.50648 0.97654 0.0
O22 O 0.19072 0.49607 0.8869 0.0
O23 O 0.22475 0.5175 0.86413 0.0
O24 O 0.18616 0.46392 0.97564 0.0
O25 O 0.15569 0.46831 0.93688 0.0
O26 O 0.15495 0.51123 0.87181 0.0
O27 O 0.14275 0.507 0.01107 0.0
O28 O 0.19308 0.50771 0.08863 0.0
O29 O 0.15891 0.48689 0.11 0.0
O30 O 0.19653 0.53917 0.97431 0.0
O31 O 0.22435 0.53572 0.04773 0.0
H32 H 0.24978 0.47452 0.20281 0.0
H33 H 0.28129 0.46889 0.24639 0.0
H34 H 0.31497 0.49896 0.99317 0.0
H35 H 0.28346 0.5044 0.94977 0.0
H36 H 0.12042 0.51948 0.78566 0.0
H37 H 0.11035 0.54881 0.76547 0.0
H38 H 0.14141 0.57822 0.02339 0.0
H39 H 0.15204 0.54902 0.04193 0.0
Tb40 Tb 0.78236 0.70157 0.01021 0.0
Tb41 Tb 0.78267 0.65771 0.99569 0.0
C42 C 0.7887 0.74005 0.05767 0.0
C43 C 0.79233 0.76304 0.08362 0.0
C44 C 0.79851 0.77159 0.17266 0.0
C45 C 0.80143 0.79294 0.19678 0.0
C46 C 0.79854 0.80666 0.13246 0.0
C47 C 0.79251 0.7981 0.04324 0.0
C48 C 0.78933 0.77667 0.01947 0.0
C49 C 0.77387 0.68371 0.84479 0.0
C50 C 0.82953 0.70097 0.9636 0.0
C51 C 0.77447 0.61881 0.94805 0.0
C52 C 0.7554 0.59511 0.9421 0.0
C53 C 0.73819 0.5886 0.87677 0.0
C54 C 0.72187 0.56577 0.86502 0.0
C55 C 0.7223 0.54885 0.91823 0.0
C56 C 0.7391 0.55547 0.98543 0.0
C57 C 0.75548 0.57828 0.99687 0.0
C58 C 0.79127 0.67627 0.16094 0.0
C59 C 0.73571 0.65535 0.03916 0.0
O60 O 0.79566 0.72858 0.10621 0.0
O61 O 0.77834 0.72974 0.98284 0.0
O62 O 0.78778 0.6838 0.90158 0.0
O63 O 0.76499 0.69499 0.8794 0.0
O64 O 0.81941 0.71299 0.98483 0.0
O65 O 0.81782 0.67871 0.95842 0.0
O66 O 0.77431 0.63369 0.8923 0.0
O67 O 0.7816 0.62721 0.02924 0.0
O68 O 0.77718 0.67562 0.10396 0.0
O69 O 0.79989 0.66464 0.12739 0.0
O70 O 0.74634 0.64512 0.00682 0.0
O71 O 0.74688 0.67761 0.05477 0.0
H72 H 0.80096 0.76169 0.22416 0.0
H73 H 0.80629 0.79883 0.26589 0.0
H74 H 0.78986 0.80784 0.9916 0.0
H75 H 0.78455 0.77078 0.95029 0.0
H76 H 0.73758 0.60105 0.8331 0.0
H77 H 0.70902 0.56133 0.81344 0.0
H78 H 0.74012 0.54292 0.02698 0.0
H79 H 0.76865 0.58271 0.047 0.0
Tb80 Tb 0.58134 0.07129 0.00847 0.0
Tb81 Tb 0.62497 0.1154 0.98604 0.0
C82 C 0.54456 0.03813 0.06684 0.0
C83 C 0.51994 0.02018 0.07425 0.0
C84 C 0.50307 0.02479 0.10518 0.0
C85 C 0.4808 1.00706 0.12348 0.0
C86 C 0.47478 0.98412 0.11324 0.0
C87 C 0.49164 0.97969 0.08082 0.0
C88 C 0.5137 0.99733 0.06159 0.0
C89 C 0.59762 0.08005 0.8391 0.0
C90 C 0.58097 0.11801 0.95344 0.0
C91 C 0.66319 0.14638 0.93308 0.0
C92 C 0.6871 0.15187 0.92911 0.0
C93 C 0.69325 0.136 0.90063 0.0
C94 C 0.71612 0.14235 0.89021 0.0
C95 C 0.73328 0.16475 0.90723 0.0
C96 C 0.72699 0.18036 0.93805 0.0
C97 C 0.70419 0.17398 0.94879 0.0
C98 C 0.60807 0.10674 0.15486 0.0
C99 C 0.62865 0.07225 0.03227 0.0
O100 O 0.55206 0.05914 0.09195 0.0
O101 O 0.55757 0.03637 0.00574 0.0
O102 O 0.59802 0.09375 0.8972 0.0
O103 O 0.58595 0.05997 0.8735 0.0
O104 O 0.56915 0.09652 0.98386 0.0
O105 O 0.60312 0.12799 0.94284 0.0
O106 O 0.64877 0.12993 0.88101 0.0
O107 O 0.65477 0.14611 0.01341 0.0
O108 O 0.60789 0.09277 0.09827 0.0
O109 O 0.61975 0.12669 0.11912 0.0
O110 O 0.63774 0.09188 0.99017 0.0
O111 O 0.60691 0.06206 0.05745 0.0
H112 H 0.50718 0.04207 0.11741 0.0
H113 H 0.46849 1.01133 0.14886 0.0
H114 H 0.48784 0.96243 0.07073 0.0
H115 H 0.52619 0.99298 0.03932 0.0
H116 H 0.68042 0.11884 0.88444 0.0
H117 H 0.72032 0.12992 0.86591 0.0
H118 H 0.73972 0.19763 0.95327 0.0
H119 H 0.69987 0.18652 0.9708 0.0
Tb120 Tb 0.88146 1.01412 0.358 0.0
Tb121 Tb 0.83787 1.0145 0.3402 0.0
C122 C 0.91187 1.00549 0.40527 0.0
C123 C 0.91629 0.9863 0.40904 0.0
C124 C 0.90361 0.96741 0.46531 0.0
C125 C 0.90987 0.95085 0.47585 0.0
C126 C 0.92897 0.95279 0.43046 0.0
C127 C 0.94103 0.97125 0.37139 0.0
C128 C 0.93483 0.98782 0.36123 0.0
C129 C 0.87242 0.02248 0.19069 0.0
C130 C 0.83706 0.96752 0.31738 0.0
C131 C 0.80593 0.02113 0.29256 0.0
C132 C 0.7867 0.02491 0.26602 0.0
C133 C 0.78606 0.03385 0.18041 0.0
C134 C 0.76792 0.0372 0.15597 0.0
C135 C 0.74984 0.03194 0.21658 0.0
C136 C 0.75059 0.02305 0.30233 0.0
C137 C 0.7686 0.01951 0.32637 0.0
C138 C 0.84698 1.00635 0.50714 0.0
C139 C 0.88557 0.06115 0.39185 0.0
O140 O 0.89661 1.00501 0.46082 0.0
O141 O 0.91101 1.01319 0.3248 0.0
O142 O 0.85847 1.00872 0.24748 0.0
O143 O 0.89245 0.03076 0.22549 0.0
O144 O 0.85705 0.97806 0.35682 0.0
O145 O 0.82684 0.97914 0.29352 0.0
O146 O 0.82502 0.02927 0.24742 0.0
O147 O 0.80505 1.00934 0.36411 0.0
O148 O 0.86062 0.02003 0.44962 0.0
O149 O 0.82685 0.99736 0.4727 0.0
O150 O 0.86397 0.0517 0.36328 0.0
O151 O 0.89526 0.0487 0.4012 0.0
H152 H 0.88921 0.96569 0.50329 0.0
H153 H 0.90023 0.93699 0.52233 0.0
H154 H 0.95552 0.97311 0.33376 0.0
H155 H 0.94493 1.00218 0.31748 0.0
H156 H 0.7996 0.03823 0.1319 0.0
H157 H 0.76828 0.0443 0.08974 0.0
H158 H 0.73704 1.01848 0.35091 0.0
H159 H 0.76836 1.01256 0.39283 0.0
Tb160 Tb 0.26885 0.85746 0.33834 0.0
Tb161 Tb 0.26843 0.8136 0.31989 0.0
C162 C 0.27811 0.89676 0.38504 0.0
C163 C 0.29824 0.91929 0.40376 0.0
C164 C 0.30731 0.92516 0.49196 0.0
C165 C 0.32466 0.94717 0.5115 0.0
C166 C 0.33334 0.96394 0.44351 0.0
C167 C 0.3247 0.95787 0.35475 0.0
C168 C 0.30734 0.93588 0.33524 0.0
C169 C 0.26033 0.84028 0.17094 0.0
C170 C 0.31509 0.8593 0.29826 0.0
C171 C 0.2617 0.77499 0.2726 0.0
C172 C 0.25806 0.75207 0.24549 0.0
C173 C 0.24008 0.73751 0.18821 0.0
C174 C 0.23647 0.71587 0.1649 0.0
C175 C 0.25083 0.70805 0.1973 0.0
C176 C 0.26892 0.72276 0.25404 0.0
C177 C 0.27239 0.74429 0.27795 0.0
C178 C 0.2764 0.83073 0.48731 0.0
C179 C 0.22149 0.81469 0.36634 0.0
O180 O 0.27349 0.8804 0.4428 0.0
O181 O 0.27476 0.88963 0.30081 0.0
O182 O 0.27411 0.83986 0.22693 0.0
O183 O 0.25191 0.85182 0.20692 0.0
O184 O 0.30486 0.86823 0.34412 0.0
O185 O 0.30303 0.83811 0.26766 0.0
O186 O 0.25086 0.78442 0.23635 0.0
O187 O 0.27632 0.78752 0.3348 0.0
O188 O 0.26276 0.83069 0.42989 0.0
O189 O 0.2853 0.81949 0.45277 0.0
O190 O 0.2315 0.80253 0.34582 0.0
O191 O 0.23335 0.83695 0.37154 0.0
H192 H 0.30066 0.91291 0.54666 0.0
H193 H 0.33107 0.95112 0.58035 0.0
H194 H 0.33072 0.97035 0.30087 0.0
H195 H 0.3006 0.93209 0.26683 0.0
H196 H 0.22866 0.74279 0.16164 0.0
H197 H 0.22251 0.70534 0.12032 0.0
H198 H 0.28027 0.7175 0.28156 0.0
H199 H 0.28639 0.75487 0.32233 0.0
Tb200 Tb 0.42533 0.40003 0.35722 0.0
Tb201 Tb 0.46906 0.44403 0.3378 0.0
C202 C 0.38658 0.36952 0.40735 0.0
C203 C 0.36285 0.36464 0.40899 0.0
C204 C 0.35713 0.38088 0.43668 0.0
C205 C 0.3344 0.37512 0.44529 0.0
C206 C 0.31687 0.35297 0.42683 0.0
C207 C 0.32274 0.33695 0.39714 0.0
C208 C 0.34544 0.34274 0.38835 0.0
C209 C 0.44298 0.40919 0.18976 0.0
C210 C 0.42257 0.44425 0.31293 0.0
C211 C 0.50742 0.47601 0.28832 0.0
C212 C 0.53039 0.49516 0.2614 0.0
C213 C 0.53677 0.50029 0.16953 0.0
C214 C 0.55813 0.51862 0.14489 0.0
C215 C 0.57416 0.53235 0.21126 0.0
C216 C 0.56767 0.52684 0.30337 0.0
C217 C 0.54619 0.50879 0.32779 0.0
C218 C 0.45171 0.43511 0.50507 0.0
C219 C 0.46872 0.39688 0.39131 0.0
O220 O 0.40095 0.38579 0.46022 0.0
O221 O 0.39536 0.3696 0.328 0.0
O222 O 0.44272 0.42292 0.24642 0.0
O223 O 0.43139 0.38913 0.22474 0.0
O224 O 0.413 0.42395 0.3501 0.0
O225 O 0.44468 0.45513 0.29306 0.0
O226 O 0.49531 0.45803 0.23823 0.0
O227 O 0.4978 0.47576 0.36567 0.0
O228 O 0.45187 0.4214 0.44806 0.0
O229 O 0.4627 0.45517 0.46956 0.0
O230 O 0.48049 0.41818 0.35942 0.0
O231 O 0.44666 0.38707 0.40364 0.0
H232 H 0.3702 0.39791 0.45334 0.0
H233 H 0.33055 0.38799 0.46709 0.0
H234 H 0.30979 0.31967 0.38358 0.0
H235 H 0.3494 0.32987 0.36764 0.0
H236 H 0.52505 0.49032 0.11631 0.0
H237 H 0.56181 0.52214 0.07324 0.0
H238 H 0.57928 0.53625 0.35759 0.0
H239 H 0.54204 0.50533 0.39929 0.0
Tb240 Tb 0.54706 0.27708 0.6865 0.0
Tb241 Tb 0.50192 0.23758 0.66452 0.0
C242 C 0.58426 0.31379 0.67112 0.0
C243 C 0.59676 0.33713 0.70641 0.0
C244 C 0.58709 0.34564 0.768 0.0
C245 C 0.59961 0.36809 0.7989 0.0
C246 C 0.62202 0.38238 0.7688 0.0
C247 C 0.63142 0.37361 0.70675 0.0
C248 C 0.61896 0.35129 0.67619 0.0
C249 C 0.54313 0.23833 0.74873 0.0
C250 C 0.51527 0.26672 0.84558 0.0
C251 C 0.46645 0.19951 0.6829 0.0
C252 C 0.45537 0.17615 0.64689 0.0
C253 C 0.46773 0.16574 0.61943 0.0
C254 C 0.45648 0.14306 0.59112 0.0
C255 C 0.43265 0.1304 0.58922 0.0
C256 C 0.42046 0.14109 0.61585 0.0
C257 C 0.43169 0.16365 0.6443 0.0
C258 C 0.50473 0.27577 0.60197 0.0
C259 C 0.53228 0.25107 0.49933 0.0
O260 O 0.56645 0.30844 0.62149 0.0
O261 O 0.58093 0.29755 0.72689 0.0
O262 O 0.53475 0.24088 0.67584 0.0
O263 O 0.55477 0.25797 0.78616 0.0
O264 O 0.53167 0.28361 0.80074 0.0
O265 O 0.50286 0.24672 0.8075 0.0
O266 O 0.48478 0.20624 0.73113 0.0
O267 O 0.468 0.21532 0.62841 0.0
O268 O 0.51414 0.27379 0.67297 0.0
O269 O 0.49203 0.25572 0.56912 0.0
O270 O 0.51671 0.23315 0.54229 0.0
O271 O 0.54514 0.27016 0.54228 0.0
H272 H 0.56993 0.33497 0.79206 0.0
H273 H 0.59184 0.37416 0.84709 0.0
H274 H 0.64838 0.38412 0.68042 0.0
H275 H 0.62667 0.3451 0.62817 0.0
H276 H 0.48603 0.17505 0.62058 0.0
H277 H 0.46644 0.13548 0.57034 0.0
H278 H 0.40214 0.13185 0.61683 0.0
H279 H 0.4218 0.17126 0.66583 0.0
Tb280 Tb 1.00608 0.26117 0.68461 0.0
Tb281 Tb 0.04404 0.25483 0.65114 0.0
C282 C 0.96865 0.26043 0.67893 0.0
C283 C 0.94531 0.24744 0.71578 0.0
C284 C 0.93129 0.2242 0.69848 0.0
C285 C 0.90859 0.21295 0.72656 0.0
C286 C 0.89943 0.22464 0.77278 0.0
C287 C 0.9137 0.24772 0.79195 0.0
C288 C 0.93631 0.25897 0.76356 0.0
C289 C 0.04513 0.29575 0.74641 0.0
C290 C 1.01942 0.24191 0.84078 0.0
C291 C 0.08039 0.25339 0.65287 0.0
C292 C 0.10407 0.26589 0.62028 0.0
C293 C 0.11708 0.28961 0.62261 0.0
C294 C 0.14003 0.30066 0.59776 0.0
C295 C 0.15039 0.28817 0.57045 0.0
C296 C 0.13703 0.26447 0.56587 0.0
C297 C 0.1142 0.25351 0.59061 0.0
C298 C 1.00452 0.2205 0.59077 0.0
C299 C 0.03298 0.27675 0.49941 0.0
O300 O 0.97497 0.25037 0.61979 0.0
O301 O 0.98478 0.27269 0.73613 0.0
O302 O 0.04238 0.28521 0.67212 0.0
O303 O 1.02551 0.28779 0.78428 0.0
O304 O 1.00138 0.23977 0.79985 0.0
O305 O 0.03847 0.24901 0.79596 0.0
O306 O 0.07446 0.26278 0.71643 0.0
O307 O 0.06466 0.24344 0.59161 0.0
O308 O 1.0078 0.23086 0.66573 0.0
O309 O 1.02382 0.22881 0.55015 0.0
O310 O 0.05038 0.27858 0.54441 0.0
O311 O 1.01313 0.26848 0.53953 0.0
H312 H 0.93768 0.21479 0.6618 0.0
H313 H 0.89816 0.19511 0.71153 0.0
H314 H 0.9072 0.25735 0.82624 0.0
H315 H 0.94666 0.2769 0.77702 0.0
H316 H 0.10965 0.29958 0.64521 0.0
H317 H 0.14981 0.31891 0.60249 0.0
H318 H 0.14427 0.25432 0.54348 0.0
H319 H 0.10449 0.23521 0.58801 0.0
Tb320 Tb 1.02028 0.73533 0.67781 0.0
Tb321 Tb 0.03123 0.78129 0.65234 0.0
C322 C 1.02011 0.69889 0.71169 0.0
C323 C 0.03469 0.69027 0.74693 0.0
C324 C 0.05751 0.69983 0.72111 0.0
C325 C 0.07002 0.68946 0.74625 0.0
C326 C 0.06 0.66938 0.79791 0.0
C327 C 0.03739 0.66041 0.82621 0.0
C328 C 1.02491 0.67072 0.80089 0.0
C329 C 0.98346 0.74002 0.69802 0.0
C330 C 0.03777 0.76758 0.84001 0.0
C331 C 0.03316 0.81851 0.61716 0.0
C332 C 1.01824 0.82828 0.60385 0.0
C333 C 1.00039 0.81931 0.5407 0.0
C334 C 0.98796 0.83024 0.52404 0.0
C335 C 0.99305 0.85031 0.57034 0.0
C336 C 1.01057 0.85887 0.63496 0.0
C337 C 1.02302 0.84801 0.65127 0.0
C338 C 0.0676 0.77585 0.63075 0.0
C339 C 1.0081 0.7469 0.49518 0.0
O340 O 1.02567 0.70925 0.63332 0.0
O341 O 1.0131 0.70869 0.76913 0.0
O342 O 1.00342 0.75367 0.72371 0.0
O343 O 0.98375 0.72275 0.66347 0.0
O344 O 0.04162 0.75344 0.79341 0.0
O345 O 1.02949 0.77877 0.79795 0.0
O346 O 0.0344 0.81192 0.6991 0.0
O347 O 0.03276 0.80458 0.5554 0.0
O348 O 0.04762 0.76279 0.60396 0.0
O349 O 0.06755 0.79289 0.66846 0.0
O350 O 1.0086 0.76393 0.53919 0.0
O351 O 1.0153 0.73437 0.5339 0.0
H352 H 0.06552 0.71495 0.67957 0.0
H353 H 0.08746 0.69702 0.72425 0.0
H354 H 1.02898 0.64485 0.86494 0.0
H355 H 1.00731 0.66295 0.82103 0.0
H356 H 0.99627 0.80409 0.50308 0.0
H357 H 0.97443 0.82304 0.47456 0.0
H358 H 1.0152 0.87442 0.67097 0.0
H359 H 0.0368 0.85537 0.69968 0.0
C360 C 0.18198 0.48855 0.69183 0.0
C361 C 0.20035 0.50788 0.72957 0.0
C362 C 0.17854 0.48619 0.59698 0.0
C363 C 0.19338 0.5039 0.53799 0.0
C364 C 0.21157 0.52375 0.57621 0.0
C365 C 0.21506 0.52532 0.67119 0.0
C366 C 0.15928 0.46448 0.55983 0.0
C367 C 0.22736 0.54338 0.51671 0.0
C368 C 0.1978 0.49135 0.28669 0.0
C369 C 0.18261 0.49673 0.24535 0.0
C370 C 0.20127 0.49333 0.3817 0.0
C371 C 0.18984 0.50162 0.43659 0.0
C372 C 0.17485 0.50756 0.39438 0.0
C373 C 0.17116 0.5047 0.29976 0.0
C374 C 0.21691 0.48619 0.42349 0.0
C375 C 0.16286 0.51717 0.44907 0.0
H376 H 0.17063 0.4749 0.73638 0.0
H377 H 0.22924 0.54031 0.69999 0.0
H378 H 0.14747 0.46805 0.52123 0.0
H379 H 0.16594 0.45665 0.51177 0.0
H380 H 0.14964 0.45209 0.61438 0.0
H381 H 0.23991 0.55807 0.55704 0.0
H382 H 0.23659 0.53811 0.46968 0.0
H383 H 0.21752 0.54886 0.47431 0.0
H384 H 0.2066 0.4851 0.24501 0.0
H385 H 0.15959 0.50913 0.26785 0.0
H386 H 0.20762 0.47285 0.4752 0.0
H387 H 0.23102 0.50071 0.45894 0.0
H388 H 0.22413 0.47963 0.37201 0.0
H389 H 0.1516 0.50465 0.50023 0.0
H390 H 0.15256 0.52189 0.40569 0.0
H391 H 0.1754 0.53238 0.48675 0.0
C392 C 0.76381 0.68766 0.68427 0.0
C393 C 0.77501 0.68065 0.74474 0.0
C394 C 0.76616 0.68679 0.58932 0.0
C395 C 0.77981 0.67839 0.55312 0.0
C396 C 0.7907 0.67074 0.6139 0.0
C397 C 0.78831 0.67211 0.70876 0.0
C398 C 0.75439 0.69535 0.52768 0.0
C399 C 0.80514 0.66136 0.57871 0.0
C400 C 0.77017 0.65888 0.3048 0.0
C401 C 0.7882 0.67719 0.26041 0.0
C402 C 0.76736 0.65893 0.39981 0.0
C403 C 0.78283 0.67789 0.45188 0.0
C404 C 0.80099 0.69653 0.40671 0.0
C405 C 0.80353 0.69588 0.31162 0.0
C406 C 0.7479 0.63861 0.44452 0.0
C407 C 0.81769 0.71722 0.45886 0.0
H408 H 0.75354 0.69435 0.71124 0.0
H409 H 0.79711 0.66675 0.75481 0.0
H410 H 0.76709 0.70957 0.48579 0.0
H411 H 0.743 0.68181 0.4802 0.0
H412 H 0.74428 0.70124 0.56624 0.0
H413 H 0.81165 0.65518 0.63437 0.0
H414 H 0.79522 0.6472 0.53105 0.0
H415 H 0.81974 0.6746 0.54015 0.0
H416 H 0.75837 0.64437 0.26504 0.0
H417 H 0.81749 0.71002 0.27719 0.0
H418 H 0.73681 0.6437 0.48028 0.0
H419 H 0.75443 0.63153 0.49641 0.0
H420 H 0.73753 0.62512 0.39477 0.0
H421 H 0.80866 0.7246 0.49544 0.0
H422 H 0.83069 0.73038 0.41386 0.0
H423 H 0.82634 0.71247 0.51081 0.0
C424 C 0.60486 0.07119 0.68065 0.0
C425 C 0.60027 0.0846 0.73934 0.0
C426 C 0.60667 0.07489 0.58572 0.0
C427 C 0.60292 0.09186 0.54779 0.0
C428 C 0.59806 0.10531 0.60711 0.0
C429 C 0.59721 0.1018 0.70192 0.0
C430 C 0.61273 0.06069 0.52603 0.0
C431 C 0.59326 0.12313 0.57037 0.0
C432 C 0.62536 0.11594 0.31046 0.0
C433 C 0.60653 0.10292 0.25499 0.0
C434 C 0.62456 0.11222 0.40511 0.0
C435 C 0.60416 0.09561 0.4464 0.0
C436 C 0.58497 0.08265 0.39052 0.0
C437 C 0.58653 0.08616 0.29545 0.0
C438 C 0.64568 0.12589 0.46076 0.0
C439 C 0.56267 0.06528 0.4313 0.0
H440 H 0.6073 0.05792 0.70921 0.0
H441 H 0.59342 0.11209 0.7467 0.0
H442 H 0.59867 0.05051 0.47842 0.0
H443 H 0.62783 0.07179 0.48424 0.0
H444 H 0.61631 0.04906 0.56615 0.0
H445 H 0.58908 0.13168 0.6251 0.0
H446 H 0.60814 0.13609 0.53226 0.0
H447 H 0.5789 0.11532 0.52195 0.0
H448 H 0.64095 0.12874 0.27935 0.0
H449 H 0.57194 0.07611 0.25296 0.0
H450 H 0.64988 0.11441 0.49861 0.0
H451 H 0.64279 0.13615 0.51182 0.0
H452 H 0.66044 0.1374 0.41806 0.0
H453 H 0.56457 0.05188 0.46572 0.0
H454 H 0.54913 0.05725 0.37936 0.0
H455 H 0.55726 0.07333 0.48368 0.0
C456 C 0.8362 0.99089 0.66579 0.0
C457 C 0.85143 1.00783 0.60681 0.0
C458 C 0.83954 0.99269 0.7608 0.0
C459 C 0.85824 1.01222 0.79836 0.0
C460 C 0.87369 0.02937 0.73879 0.0
C461 C 0.87028 0.02682 0.64397 0.0
C462 C 0.823 0.97368 0.82107 0.0
C463 C 0.89359 0.05069 0.77526 0.0
C464 C 0.85444 0.02637 0.04801 0.0
C465 C 0.8686 0.01985 0.0909 0.0
C466 C 0.85109 0.02421 0.95298 0.0
C467 C 0.86167 1.01471 0.89971 0.0
C468 C 0.87565 1.00771 0.94351 0.0
C469 C 0.87918 1.01065 0.03815 0.0
C470 C 0.83648 0.03238 0.9094 0.0
C471 C 0.88677 0.99694 0.89047 0.0
H472 H 0.82164 0.97616 0.63749 0.0
H473 H 0.88205 0.04009 0.59897 0.0
H474 H 0.83215 0.96758 0.86445 0.0
H475 H 0.81438 0.97987 0.86716 0.0
H476 H 0.80996 0.9592 0.78131 0.0
H477 H 0.90376 0.06265 0.72024 0.0
H478 H 0.88753 0.05934 0.82197 0.0
H479 H 0.90475 0.04647 0.81519 0.0
H480 H 0.84636 0.0336 0.08853 0.0
H481 H 0.88999 1.00542 0.07136 0.0
H482 H 0.82205 1.01822 0.87376 0.0
H483 H 0.84642 0.04546 0.85756 0.0
H484 H 0.82972 0.03965 0.95982 0.0
H485 H 0.87376 0.98189 0.85337 0.0
H486 H 0.89644 0.99164 0.93493 0.0
H487 H 0.89846 1.00896 0.8389 0.0
C488 C 0.25279 0.82482 0.62638 0.0
C489 C 0.27418 0.83278 0.58692 0.0
C490 C 0.25017 0.82523 0.72135 0.0
C491 C 0.2695 0.8347 0.77837 0.0
C492 C 0.29122 0.84331 0.73826 0.0
C493 C 0.29324 0.84178 0.64331 0.0
C494 C 0.22663 0.81514 0.76071 0.0
C495 C 0.31237 0.85439 0.79551 0.0
C496 C 0.26277 0.855 0.01279 0.0
C497 C 0.26218 0.8384 0.0708 0.0
C498 C 0.26563 0.85425 0.91816 0.0
C499 C 0.26701 0.83594 0.87957 0.0
C500 C 0.26596 0.81886 0.9379 0.0
C501 C 0.26409 0.82059 0.03288 0.0
C502 C 0.26759 0.87332 0.85964 0.0
C503 C 0.26653 0.79862 0.89993 0.0
H504 H 0.23797 0.81757 0.58305 0.0
H505 H 0.30979 0.84798 0.61285 0.0
H506 H 0.22387 0.80201 0.81168 0.0
H507 H 0.22466 0.82835 0.79647 0.0
H508 H 0.21332 0.80739 0.70772 0.0
H509 H 0.328 0.86123 0.75368 0.0
H510 H 0.31288 0.86841 0.83569 0.0
H511 H 0.31229 0.84203 0.84458 0.0
H512 H 0.26165 0.86901 0.04177 0.0
H513 H 0.26371 0.80777 0.07738 0.0
H514 H 0.25346 0.86679 0.81027 0.0
H515 H 0.28355 0.88079 0.81981 0.0
H516 H 0.26735 0.88689 0.90047 0.0
H517 H 0.25304 0.79008 0.84823 0.0
H518 H 0.2642 0.78618 0.95358 0.0
H519 H 0.28293 0.80412 0.86535 0.0
C520 C 0.44248 0.40939 0.64083 0.0
C521 C 0.44865 0.43079 0.60522 0.0
C522 C 0.44129 0.40555 0.73558 0.0
C523 C 0.44624 0.42349 0.79698 0.0
C524 C 0.45205 0.44502 0.76119 0.0
C525 C 0.4532 0.4484 0.66614 0.0
C526 C 0.43504 0.38232 0.76995 0.0
C527 C 0.45738 0.46465 0.82344 0.0
C528 C 0.42466 0.40944 0.04274 0.0
C529 C 0.44401 0.41302 0.08991 0.0
C530 C 0.42514 0.41278 0.94786 0.0
C531 C 0.44547 0.4198 0.89839 0.0
C532 C 0.46508 0.42346 0.94625 0.0
C533 C 0.46412 0.42007 0.04135 0.0
C534 C 0.40385 0.40878 0.90054 0.0
C535 C 0.48711 0.43093 0.8969 0.0
H536 H 0.43895 0.39566 0.5945 0.0
H537 H 0.45799 0.46499 0.63946 0.0
H538 H 0.44906 0.38331 0.81155 0.0
H539 H 0.41993 0.37573 0.81458 0.0
H540 H 0.43142 0.37011 0.71372 0.0
H541 H 0.46117 0.48019 0.78529 0.0
H542 H 0.44289 0.46022 0.86974 0.0
H543 H 0.47216 0.46836 0.86655 0.0
H544 H 0.4091 0.40404 0.08037 0.0
H545 H 0.4791 0.42285 0.07778 0.0
H546 H 0.399 0.39555 0.84768 0.0
H547 H 0.40689 0.42445 0.86557 0.0
H548 H 0.38945 0.40343 0.94848 0.0
H549 H 0.48476 0.41839 0.8438 0.0
H550 H 0.5008 0.43297 0.94352 0.0
H551 H 0.49259 0.44726 0.86198 0.0
C552 C 0.52312 0.26988 0.38065 0.0
C553 C 0.52865 0.25334 0.40382 0.0
C554 C 0.51767 0.27214 0.29204 0.0
C555 C 0.5192 0.25838 0.22439 0.0
C556 C 0.52506 0.24174 0.24676 0.0
C557 C 0.52913 0.23894 0.33784 0.0
C558 C 0.51038 0.28926 0.27097 0.0
C559 C 0.52777 0.22756 0.1744 0.0
C560 C 0.49482 0.25291 0.99103 0.0
C561 C 0.5141 0.26861 0.94357 0.0
C562 C 0.49583 0.25017 0.08461 0.0
C563 C 0.51677 0.26297 0.12931 0.0
C564 C 0.53581 0.27997 0.08277 0.0
C565 C 0.53407 0.28293 0.99021 0.0
C566 C 0.47496 0.23278 0.1343 0.0
C567 C 0.55843 0.2939 0.12905 0.0
H568 H 0.52273 0.28095 0.43235 0.0
H569 H 0.53331 0.22613 0.35701 0.0
H570 H 0.52142 0.3013 0.21803 0.0
H571 H 0.4929 0.28044 0.24365 0.0
H572 H 0.5108 0.2991 0.33186 0.0
H573 H 0.53242 0.21542 0.20344 0.0
H574 H 0.51183 0.21798 0.13551 0.0
H575 H 0.54111 0.23871 0.12542 0.0
H576 H 0.47935 0.24201 0.95435 0.0
H577 H 0.549 0.29506 0.95316 0.0
H578 H 0.47268 0.2399 0.19873 0.0
H579 H 0.4769 0.21806 0.15219 0.0
H580 H 0.45945 0.22669 0.09245 0.0
H581 H 0.55676 0.30306 0.18817 0.0
H582 H 0.5715 0.30647 0.08248 0.0
H583 H 0.56447 0.28259 0.15521 0.0
C584 C 1.01946 0.28077 0.34826 0.0
C585 C 0.03357 0.27595 0.40074 0.0
C586 C 1.01648 0.27532 0.25571 0.0
C587 C 1.02706 0.26392 0.21753 0.0
C588 C 0.04144 0.25919 0.27042 0.0
C589 C 0.04496 0.26579 0.36115 0.0
C590 C 1.00185 0.28143 0.19927 0.0
C591 C 0.05256 0.24657 0.23201 0.0
C592 C 1.00454 0.23134 -0.00138 0.0
C593 C 1.02136 0.24583 0.93828 0.0
C594 C 1.00613 0.23694 0.09108 0.0
C595 C 1.02428 0.25795 0.12084 0.0
C596 C 0.04089 0.27282 0.05914 0.0
C597 C 0.03948 0.26631 0.96887 0.0
C598 C 0.98874 0.22038 0.1569 0.0
C599 C 0.06002 0.29569 0.08815 0.0
H600 H 1.01049 0.28835 0.38 0.0
H601 H 0.05543 0.26154 0.40264 0.0
H602 H 1.01146 0.29148 0.13912 0.0
H603 H 0.98694 0.26586 0.17356 0.0
H604 H 0.99582 0.29131 0.23859 0.0
H605 H 0.06209 0.24302 0.28437 0.0
H606 H 0.03958 0.23029 0.20211 0.0
H607 H 0.06444 0.25656 0.17668 0.0
H608 H 0.99044 0.2157 0.97373 0.0
H609 H 0.0522 0.27776 0.92121 0.0
H610 H 0.97998 0.22826 0.19176 0.0
H611 H 0.99723 0.21578 0.21021 0.0
H612 H 0.97589 0.20467 0.12266 0.0
H613 H 0.05302 0.30583 0.11822 0.0
H614 H 0.07131 0.30535 0.03062 0.0
H615 H 0.0704 0.29369 0.14124 0.0
C616 C 1.00575 0.72804 0.34866 0.0
C617 C 1.00358 0.74452 0.39729 0.0
C618 C 1.00837 0.72955 0.25437 0.0
C619 C 1.00852 0.74781 0.20865 0.0
C620 C 1.00369 0.76293 0.25602 0.0
C621 C 1.00122 0.76107 0.35045 0.0
C622 C 1.01311 0.71291 0.20521 0.0
C623 C 1.00322 0.78228 0.20839 0.0
C624 C 0.04694 0.77131 0.00432 0.0
C625 C 0.03122 0.76207 0.93434 0.0
C626 C 0.03969 0.76662 0.09489 0.0
C627 C 1.01629 0.75257 0.11385 0.0
C628 C 1.00048 0.74308 0.0426 0.0
C629 C 1.00825 0.74781 0.95329 0.0
C630 C 0.05694 0.77685 0.17015 0.0
C631 C 0.97545 0.72817 0.06049 0.0
H632 H 1.00715 0.71493 0.38463 0.0
H633 H 0.99917 0.77363 0.38781 0.0
H634 H 1.00309 0.70693 0.14169 0.0
H635 H 0.03125 0.72139 0.18586 0.0
H636 H 1.00925 0.69802 0.24812 0.0
H637 H 1.02072 0.79526 0.18934 0.0
H638 H 0.9932 0.77643 0.14481 0.0
H639 H 0.996 0.79037 0.25229 0.0
H640 H 0.06467 0.78232 0.98823 0.0
H641 H 0.9963 0.74049 0.89791 0.0
H642 H 0.05625 0.76327 0.21388 0.0
H643 H 0.05299 0.78768 0.21386 0.0
H644 H 0.07445 0.78721 0.14357 0.0
H645 H 0.97238 0.71317 0.1008 0.0
H646 H 0.96547 0.72231 0.99664 0.0
H647 H 0.96906 0.73751 0.10119 0.0
C648 C 0.41396 0.47476 0.25437 0.0
C649 C 0.40666 0.45264 0.28481 0.0
C650 C 0.39819 0.48161 0.22779 0.0
C651 C 0.37448 0.46598 0.23024 0.0
C652 C 0.36717 0.44367 0.26021 0.0
C653 C 0.38312 0.43741 0.28692 0.0
C654 C 0.40691 0.50562 0.19716 0.0
C655 C 0.34232 0.42613 0.26358 0.0
C656 C 0.32861 0.48329 0.24042 0.0
C657 C 0.32059 0.47999 0.15031 0.0
C658 C 0.34663 0.47978 0.26632 0.0
C659 C 0.35708 0.47249 0.20127 0.0
C660 C 0.34927 0.46942 0.11 0.0
C661 C 0.33137 0.47326 0.08578 0.0
C662 C 0.35424 0.48348 0.36419 0.0
C663 C 0.35937 0.4613 0.03806 0.0
H664 H 0.43194 0.48676 0.25174 0.0
H665 H 0.3769 0.42014 0.30838 0.0
H666 H 0.40147 0.50578 0.12624 0.0
H667 H 0.39956 0.51369 0.24032 0.0
H668 H 0.42564 0.51591 0.20045 0.0
H669 H 0.33932 0.40937 0.2868 0.0
H670 H 0.33332 0.43174 0.31038 0.0
H671 H 0.33469 0.42411 0.19521 0.0
H672 H 0.32087 0.48881 0.29115 0.0
H673 H 0.32538 0.47034 0.0162 0.0
H674 H 0.37283 0.49487 0.36794 0.0
H675 H 0.35039 0.46715 0.39535 0.0
H676 H 0.34584 0.49089 0.40509 0.0
H677 H 0.37803 0.47225 0.03656 0.0
H678 H 0.35262 0.46113 0.9692 0.0
H679 H 0.35565 0.44393 0.05472 0.0
C680 C 0.79438 0.83346 0.24201 0.0
C681 C 0.80191 0.82975 0.15787 0.0
C682 C 0.79774 0.855 0.26697 0.0
C683 C 0.80926 0.87377 0.20741 0.0
C684 C 0.81668 0.87009 0.12199 0.0
C685 C 0.81283 0.84831 0.09825 0.0
C686 C 0.78922 0.85773 0.35818 0.0
C687 C 0.82941 0.88941 0.05644 0.0
C688 C 0.80808 0.92956 0.24473 0.0
C689 C 0.82838 0.94298 0.29213 0.0
C690 C 0.80139 0.907 0.21801 0.0
C691 C 0.81539 0.89751 0.23762 0.0
C692 C 0.83576 0.91099 0.2858 0.0
C693 C 0.8418 0.93314 0.31264 0.0
C694 C 0.77937 0.89332 0.16807 0.0
C695 C 0.85158 0.90217 0.30797 0.0
H696 H 0.78564 0.81939 0.28858 0.0
H697 H 0.819 0.84599 0.03349 0.0
H698 H 0.80375 0.86892 0.40217 0.0
H699 H 0.77879 0.86591 0.34965 0.0
H700 H 0.77896 0.84131 0.39362 0.0
H701 H 0.83299 0.88372 0.99081 0.0
H702 H 0.81961 0.89804 0.04263 0.0
H703 H 0.84571 0.90208 0.08726 0.0
H704 H 0.79749 0.93669 0.22788 0.0
H705 H 0.85757 0.94295 0.3489 0.0
H706 H 0.76865 0.87712 0.20417 0.0
H707 H 0.78271 0.88909 0.099 0.0
H708 H 0.76981 0.90248 0.16155 0.0
H709 H 0.84269 0.88666 0.35004 0.0
H710 H 0.86689 0.91474 0.34525 0.0
H711 H 0.85704 0.89752 0.24435 0.0
C712 C 0.43165 0.9655 0.11673 0.0
C713 C 0.45142 0.96488 0.13847 0.0
C714 C 0.40981 0.94747 0.1396 0.0
C715 C 0.40731 0.92821 0.18715 0.0
C716 C 0.4272 0.92754 0.20963 0.0
C717 C 0.44878 0.94562 0.1847 0.0
C718 C 0.38933 0.94909 0.11292 0.0
C719 C 0.42573 0.90786 0.26198 0.0
C720 C 0.35281 0.89412 0.32764 0.0
C721 C 0.33958 0.87498 0.2733 0.0
C722 C 0.37476 0.91108 0.30146 0.0
C723 C 0.38408 0.90941 0.2174 0.0
C724 C 0.371 0.88993 0.16266 0.0
C725 C 0.34909 0.87294 0.19139 0.0
C726 C 0.38783 0.93109 0.3635 0.0
C727 C 0.37986 0.88738 0.072 0.0
H728 H 0.43322 0.98002 0.08044 0.0
H729 H 0.46373 0.94486 0.20345 0.0
H730 H 0.37745 0.93393 0.07327 0.0
H731 H 0.38021 0.9495 0.17479 0.0
H732 H 0.39387 0.96441 0.07173 0.0
H733 H 0.44259 0.90949 0.27275 0.0
H734 H 0.41779 0.90659 0.3293 0.0
H735 H 0.41483 0.89183 0.22526 0.0
H736 H 0.34579 0.89609 0.39095 0.0
H737 H 0.33904 0.85856 0.14777 0.0
H738 H 0.39063 0.94677 0.32932 0.0
H739 H 0.4047 0.9332 0.37846 0.0
H740 H 0.37887 0.92934 0.42882 0.0
H741 H 0.38265 0.90153 0.02659 0.0
H742 H 0.36805 0.87117 0.03808 0.0
H743 H 0.39643 0.8883 0.08087 0.0
C744 C 0.54975 0.12899 0.95119 0.0
C745 C 0.57027 0.13143 0.91876 0.0
C746 C 0.54204 0.14402 0.92307 0.0
C747 C 0.55504 0.16197 0.86086 0.0
C748 C 0.57517 0.16374 0.82536 0.0
C749 C 0.58235 0.14864 0.85413 0.0
C750 C 0.52031 0.1411 0.96207 0.0
C751 C 0.5898 0.18226 0.75906 0.0
C752 C 0.5345 0.1975 0.72895 0.0
C753 C 0.54402 0.21767 0.77946 0.0
C754 C 0.53672 0.17875 0.75705 0.0
C755 C 0.549 0.18008 0.83731 0.0
C756 C 0.55797 0.20021 0.88971 0.0
C757 C 0.55532 0.2185 0.86059 0.0
C758 C 0.52649 0.15775 0.69906 0.0
C759 C 0.57131 0.20289 0.97514 0.0
H760 H 0.54011 0.11589 0.00072 0.0
H761 H 0.59801 0.1507 0.82639 0.0
H762 H 0.52409 0.15541 0.0083 0.0
H763 H 0.50936 0.14136 0.9069 0.0
H764 H 0.51081 0.12507 0.00082 0.0
H765 H 0.60433 0.18072 0.7339 0.0
H766 H 0.57964 0.18196 0.69976 0.0
H767 H 0.59646 0.19897 0.79244 0.0
H768 H 0.52574 0.19653 0.66632 0.0
H769 H 0.56265 0.23382 0.90096 0.0
H770 H 0.517 0.14247 0.74204 0.0
H771 H 0.54015 0.15629 0.66427 0.0
H772 H 0.5149 0.15796 0.64662 0.0
H773 H 0.56164 0.18828 0.0212 0.0
H774 H 0.57556 0.21866 0.01254 0.0
H775 H 0.58729 0.20323 0.95726 0.0
C776 C 0.06512 0.32714 0.8605 0.0
C777 C 0.06555 0.3176 0.77612 0.0
C778 C 0.08306 0.34828 0.88953 0.0
C779 C 0.10228 0.36078 0.83305 0.0
C780 C 0.10321 0.35087 0.74893 0.0
C781 C 0.08496 0.3295 0.72168 0.0
C782 C 0.081 0.35762 0.97987 0.0
C783 C 0.12316 0.36323 0.68588 0.0
C784 C 0.13121 0.42529 0.86006 0.0
C785 C 0.15017 0.43088 0.91544 0.0
C786 C 0.11623 0.40298 0.83116 0.0
C787 C 0.11979 0.38505 0.85771 0.0
C788 C 0.13919 0.39048 0.91177 0.0
C789 C 0.15415 0.41323 0.93953 0.0
C790 C 0.09614 0.39855 0.77344 0.0
C791 C 0.14388 0.37213 0.94192 0.0
H792 H 0.0504 0.31814 0.90395 0.0
H793 H 0.08567 0.3224 0.65662 0.0
H794 H 0.09632 0.36262 0.02152 0.0
H795 H 0.07972 0.37301 0.9686 0.0
H796 H 0.06593 0.34524 0.01907 0.0
H797 H 0.12292 0.3523 0.6294 0.0
H798 H 0.12295 0.37807 0.65632 0.0
H799 H 0.13924 0.36966 0.72391 0.0
H800 H 0.12783 0.43852 0.83889 0.0
H801 H 0.16863 0.41705 0.98172 0.0
H802 H 0.08025 0.38751 0.81105 0.0
H803 H 0.09587 0.38952 0.71027 0.0
H804 H 0.09628 0.41436 0.75439 0.0
H805 H 0.13015 0.36023 0.98781 0.0
H806 H 0.16027 0.37901 0.97825 0.0
H807 H 0.14407 0.36225 0.88229 0.0
C808 C 0.96239 0.75091 0.813 0.0
C809 C 0.96214 0.73848 0.73619 0.0
C810 C 0.94204 0.74748 0.85417 0.0
C811 C 0.92066 0.7317 0.81657 0.0
C812 C 0.92047 0.71986 0.7367 0.0
C813 C 0.941 0.72317 0.69858 0.0
C814 C 0.94343 0.76016 0.94016 0.0
C815 C 0.89843 0.70313 0.69244 0.0
C816 C 0.86633 0.7008 0.96047 0.0
C817 C 0.85423 0.71182 0.93765 0.0
C818 C 0.88819 0.70781 0.92551 0.0
C819 C 0.8985 0.72616 0.86353 0.0
C820 C 0.88671 0.7379 0.84234 0.0
C821 C 0.8649 0.73074 0.88 0.0
C822 C 0.89989 0.69488 0.95248 0.0
C823 C 0.89666 0.75737 0.77623 0.0
H824 H 0.97851 0.7628 0.84309 0.0
H825 H 0.94046 0.7135 0.63917 0.0
H826 H 0.93353 0.76892 0.93284 0.0
H827 H 0.93589 0.74803 -0.00261 0.0
H828 H 0.96114 0.77279 0.9581 0.0
H829 H 0.90105 0.6967 0.62676 0.0
H830 H 0.88874 0.68855 0.7386 0.0
H831 H 0.88791 0.71107 0.68014 0.0
H832 H 0.85839 0.68614 0.00467 0.0
H833 H 0.85572 0.73922 0.8603 0.0
H834 H 0.91739 0.7067 0.97556 0.0
H835 H 0.90111 0.68562 0.89269 0.0
H836 H 0.89076 0.68249 0.00764 0.0
H837 H 0.91423 0.7699 0.796 0.0
H838 H 0.88655 0.76601 0.77233 0.0
H839 H 0.89743 0.75107 0.70746 0.0
C840 C 0.08573 0.6546 0.75068 0.0
C841 C 0.07247 0.65704 0.81801 0.0
C842 C 0.09583 0.64125 0.76558 0.0
C843 C 0.09263 0.62999 0.8499 0.0
C844 C 0.07997 0.63305 0.91932 0.0
C845 C 0.07006 0.64649 0.90258 0.0
C846 C 0.10913 0.63844 0.68957 0.0
C847 C 0.07625 0.62151 0.01039 0.0
C848 C 0.09489 0.57537 0.84997 0.0
C849 C 0.11662 0.58238 0.88408 0.0
C850 C 0.08697 0.59066 0.83883 0.0
C851 C 0.101 0.61365 0.86283 0.0
C852 C 0.12286 0.62086 0.89839 0.0
C853 C 0.13041 0.60517 0.9086 0.0
C854 C 0.06351 0.58216 0.8011 0.0
C855 C 0.13834 0.6452 0.9249 0.0
H856 H 0.08752 0.66242 0.68477 0.0
H857 H 0.06016 0.64853 0.95559 0.0
H858 H 0.12594 0.64205 0.71449 0.0
H859 H 0.1001 0.62068 0.66538 0.0
H860 H 0.11162 0.64972 0.63095 0.0
H861 H 0.06747 0.62692 0.05945 0.0
H862 H 0.0659 0.60293 0.00138 0.0
H863 H 0.09265 0.62512 0.04008 0.0
H864 H 0.08388 0.55776 0.83262 0.0
H865 H 0.14727 0.61083 0.93438 0.0
H866 H 0.06448 0.59146 0.73784 0.0
H867 H 0.05313 0.58536 0.85057 0.0
H868 H 0.05472 0.56379 0.7856 0.0
H869 H 0.14203 0.65626 0.86457 0.0
H870 H 0.15459 0.64802 0.95365 0.0
H871 H 0.12991 0.65051 0.97593 0.0
C872 C 0.70114 0.51612 0.81129 0.0
C873 C 0.70605 0.52437 0.90075 0.0
C874 C 0.68676 0.49299 0.79333 0.0
C875 C 0.67685 0.47758 0.86649 0.0
C876 C 0.68142 0.48583 0.95697 0.0
C877 C 0.696 0.50906 0.97299 0.0
C878 C 0.68257 0.48496 0.69586 0.0
C879 C 0.6711 0.47007 0.03694 0.0
C880 C 0.62573 0.42006 0.80978 0.0
C881 C 0.63563 0.4064 0.80033 0.0
C882 C 0.63879 0.44307 0.83354 0.0
C883 C 0.66237 0.45279 0.84792 0.0
C884 C 0.67235 0.43897 0.8408 0.0
C885 C 0.65889 0.41602 0.81758 0.0
C886 C 0.62743 0.45714 0.84096 0.0
C887 C 0.69738 0.44853 0.85572 0.0
H888 H 0.70905 0.5277 0.75499 0.0
H889 H 0.69949 0.51527 0.0423 0.0
H890 H 0.68891 0.47302 0.68434 0.0
H891 H 0.66416 0.47568 0.68163 0.0
H892 H 0.69101 0.49912 0.64661 0.0
H893 H 0.67561 0.47921 0.10292 0.0
H894 H 0.65241 0.4605 0.03059 0.0
H895 H 0.67692 0.45753 0.03762 0.0
H896 H 0.60786 0.41295 0.79595 0.0
H897 H 0.66669 0.40559 0.81246 0.0
H898 H 0.63406 0.47035 0.78737 0.0
H899 H 0.63135 0.46592 0.90758 0.0
H900 H 0.60877 0.44681 0.83362 0.0
H901 H 0.70709 0.46187 0.80452 0.0
H902 H 0.70243 0.43542 0.85054 0.0
H903 H 0.70229 0.45655 0.92376 0.0
C904 C 0.86793 0.21757 0.88124 0.0
C905 C 0.87491 0.21323 0.79739 0.0
C906 C 0.84486 0.2084 0.90229 0.0
C907 C 0.82825 0.19457 0.8379 0.0
C908 C 0.83515 0.18955 0.75427 0.0
C909 C 0.85835 0.19889 0.73512 0.0
C910 C 0.83829 0.21404 0.99252 0.0
C911 C 0.81805 0.17497 0.68352 0.0
C912 C 0.76676 0.15855 0.91482 0.0
C913 C 0.75758 0.17214 0.88964 0.0
C914 C 0.78969 0.16557 0.8985 0.0
C915 C 0.8038 0.18662 0.85551 0.0
C916 C 0.79457 0.20031 0.82941 0.0
C917 C 0.77166 0.19293 0.84678 0.0
C918 C 0.79887 0.15052 0.92777 0.0
C919 C 0.8089 0.22279 0.78286 0.0
H920 H 0.88057 0.22835 0.93034 0.0
H921 H 0.86352 0.19561 0.66979 0.0
H922 H 0.82992 0.2242 0.98107 0.0
H923 H 0.82594 0.19834 0.02812 0.0
H924 H 0.85311 0.22375 0.03759 0.0
H925 H 0.82602 0.17138 0.62473 0.0
H926 H 0.8052 0.15869 0.71398 0.0
H927 H 0.809 0.18359 0.65814 0.0
H928 H 0.75608 0.14255 0.9486 0.0
H929 H 0.76467 0.20337 0.82553 0.0
H930 H 0.81282 0.1596 0.97714 0.0
H931 H 0.80603 0.14622 0.86827 0.0
H932 H 0.78569 0.13458 0.95967 0.0
H933 H 0.82331 0.23411 0.82712 0.0
H934 H 0.79915 0.23136 0.76638 0.0
H935 H 0.81609 0.22036 0.71893 0.0
C936 C 0.66821 0.07878 0.05193 0.0
C937 C 0.64468 0.064 0.06021 0.0
C938 C 0.68422 0.07253 0.07814 0.0
C939 C 0.67694 0.05067 0.11366 0.0
C940 C 0.65323 0.0355 0.12217 0.0
C941 C 0.63744 0.04235 0.09612 0.0
C942 C 0.70909 0.08959 0.06828 0.0
C943 C 0.64452 1.01196 0.15867 0.0
C944 C 0.72139 0.03145 0.10249 0.0
C945 C 0.73045 0.03582 0.19105 0.0
C946 C 0.70354 0.03533 0.07758 0.0
C947 C 0.69435 0.0441 0.142 0.0
C948 C 0.70324 0.04832 0.23171 0.0
C949 C 0.72092 0.04407 0.25505 0.0
C950 C 0.69471 0.03033 0.98143 0.0
C951 C 0.69451 0.05803 0.30279 0.0
H952 H 0.67439 0.09568 0.02588 0.0
H953 H 0.61946 0.0307 0.1034 0.0
H954 H 0.71758 0.09264 0.13529 0.0
H955 H 0.71726 0.08291 0.02213 0.0
H956 H 0.7121 0.10603 0.04086 0.0
H957 H 0.62574 1.00195 0.15959 0.0
H958 H 0.65102 1.00294 0.11648 0.0
H959 H 0.65083 1.0128 0.22886 0.0
H960 H 0.72816 0.02479 0.05228 0.0
H961 H 0.72774 0.04783 0.32336 0.0
H962 H 0.6985 0.04627 0.9468 0.0
H963 H 0.67605 1.01924 0.98184 0.0
H964 H 0.7023 0.02201 0.94113 0.0
H965 H 0.69835 0.0752 0.28187 0.0
H966 H 0.70214 0.0592 0.37066 0.0
H967 H 0.67586 0.04749 0.30886 0.0
C968 C 0.22507 0.66585 0.16756 0.0
C969 C 0.24701 0.68478 0.17242 0.0
C970 C 0.2213 0.64404 0.14498 0.0
C971 C 0.23983 0.64071 0.12524 0.0
C972 C 0.26201 0.65973 0.12968 0.0
C973 C 0.26531 0.68129 0.15357 0.0
C974 C 0.19734 0.62446 0.14242 0.0
C975 C 0.28234 0.65739 0.1074 0.0
C976 C 0.23103 0.58015 0.13474 0.0
C977 C 0.22579 0.57297 0.044 0.0
C978 C 0.23579 0.60206 0.16208 0.0
C979 C 0.23594 0.61757 0.09701 0.0
C980 C 0.23161 0.61061 0.00468 0.0
C981 C 0.22621 0.58844 0.9799 0.0
C982 C 0.23961 0.60822 0.26153 0.0
C983 C 0.23208 0.62641 0.93187 0.0
H984 H 0.21072 0.66799 0.18287 0.0
H985 H 0.28235 0.69561 0.15559 0.0
H986 H 0.1931 0.61745 0.07256 0.0
H987 H 0.19566 0.61072 0.18774 0.0
H988 H 0.18481 0.62946 0.16369 0.0
H989 H 0.29848 0.67362 0.11455 0.0
H990 H 0.28285 0.64468 0.15275 0.0
H991 H 0.28102 0.65123 0.03657 0.0
H992 H 0.23013 0.5682 0.18539 0.0
H993 H 0.22189 0.58302 0.90988 0.0
H994 H 0.22609 0.61135 0.28701 0.0
H995 H 0.25595 0.62407 0.27105 0.0
H996 H 0.23964 0.5947 0.30349 0.0
H997 H 0.21792 0.62975 0.94266 0.0
H998 H 0.23057 0.61935 0.86246 0.0
H999 H 0.24804 0.64288 0.93585 0.0
C1000 C 0.6938 0.6437 0.04938 0.0
C1001 C 0.71178 0.64008 0.07104 0.0
C1002 C 0.67103 0.62731 0.07088 0.0
C1003 C 0.66603 0.607 0.11726 0.0
C1004 C 0.68434 0.60384 0.14207 0.0
C1005 C 0.70669 0.62011 0.11778 0.0
C1006 C 0.65224 0.63138 0.04108 0.0
C1007 C 0.68034 0.58302 0.19341 0.0
C1008 C 0.60923 0.57097 0.24271 0.0
C1009 C 0.5974 0.55207 0.18511 0.0
C1010 C 0.63117 0.58894 0.22109 0.0
C1011 C 0.64183 0.58873 0.13836 0.0
C1012 C 0.62983 0.57013 0.07862 0.0
C1013 C 0.60813 0.55212 0.10283 0.0
C1014 C 0.6432 0.608 0.28826 0.0
C1015 C 0.64014 0.56901 0.9892 0.0
H1016 H 0.6974 0.65886 0.01233 0.0
H1017 H 0.7204 0.61709 0.13528 0.0
H1018 H 0.64114 0.61806 0.99216 0.0
H1019 H 0.6416 0.63024 0.10022 0.0
H1020 H 0.65874 0.64815 0.00826 0.0
H1021 H 0.6964 0.58377 0.21343 0.0
H1022 H 0.67024 0.58088 0.25567 0.0
H1023 H 0.67051 0.5678 0.15065 0.0
H1024 H 0.6014 0.57189 0.30541 0.0
H1025 H 0.59984 0.5378 0.05739 0.0
H1026 H 0.64813 0.62442 0.2552 0.0
H1027 H 0.65899 0.60866 0.31144 0.0
H1028 H 0.63261 0.60609 0.34878 0.0
H1029 H 0.64612 0.58499 0.95077 0.0
H1030 H 0.62799 0.5547 0.9462 0.0
H1031 H 0.65507 0.56702 0.00191 0.0
C1032 C 0.97482 0.87289 0.61894 0.0
C1033 C 0.98089 0.86288 0.54912 0.0
C1034 C 0.96497 0.88626 0.59953 0.0
C1035 C 0.96109 0.8898 0.50797 0.0
C1036 C 0.96655 0.87921 0.4373 0.0
C1037 C 0.97634 0.86588 0.45868 0.0
C1038 C 0.95927 0.89707 0.67705 0.0
C1039 C 0.96279 0.88259 0.33878 0.0
C1040 C 0.92163 0.91318 0.45953 0.0
C1041 C 0.937 0.93635 0.44795 0.0
C1042 C 0.92916 0.8978 0.47865 0.0
C1043 C 0.95265 0.9057 0.48602 0.0
C1044 C 0.96823 0.92901 0.47366 0.0
C1045 C 0.96025 0.94399 0.45526 0.0
C1046 C 0.91199 0.87311 0.49148 0.0
C1047 C 0.99342 0.9382 0.48086 0.0
H1048 H 0.97794 0.87041 0.68908 0.0
H1049 H 0.98117 0.85845 0.40414 0.0
H1050 H 0.96987 0.91573 0.67247 0.0
H1051 H 0.94135 0.89284 0.67247 0.0
H1052 H 0.96206 0.89159 0.74455 0.0
H1053 H 0.9665 0.87202 0.29227 0.0
H1054 H 0.94505 0.87847 0.32812 0.0
H1055 H 0.97384 0.9006 0.31994 0.0
H1056 H 0.90366 0.907 0.45306 0.0
H1057 H 0.97231 0.96187 0.44835 0.0
H1058 H 0.91372 0.86755 0.56041 0.0
H1059 H 0.91511 0.86274 0.44175 0.0
H1060 H 0.89435 0.86961 0.48303 0.0
H1061 H 0.99767 0.93503 0.55006 0.0
H1062 H 1.00334 0.95665 0.46703 0.0
H1063 H 0.99877 0.92937 0.43203 0.0
C1064 C 0.42756 0.09113 0.59135 0.0
C1065 C 0.42035 0.10606 0.56156 0.0
C1066 C 0.4151 0.06787 0.57101 0.0
C1067 C 0.39491 0.05924 0.51964 0.0
C1068 C 0.38793 0.07433 0.48717 0.0
C1069 C 0.4007 0.09746 0.50832 0.0
C1070 C 0.4232 0.05243 0.60678 0.0
C1071 C 0.36661 0.06594 0.43174 0.0
C1072 C 0.36807 1.00126 0.40584 0.0
C1073 C 0.3503 0.98793 0.46598 0.0
C1074 C 0.38314 0.02429 0.42361 0.0
C1075 C 0.3804 0.03437 0.50334 0.0
C1076 C 0.36288 0.02087 0.56544 0.0
C1077 C 0.3481 0.99791 0.54606 0.0
C1078 C 0.40168 0.03797 0.35596 0.0
C1079 C 0.35928 0.03086 0.6512 0.0
H1080 H 0.44258 0.0975 0.63312 0.0
H1081 H 0.39519 0.10885 0.48345 0.0
H1082 H 0.41088 0.04055 0.65719 0.0
H1083 H 0.42425 0.04211 0.5507 0.0
H1084 H 0.44003 0.06192 0.63986 0.0
H1085 H 0.36396 0.07993 0.40856 0.0
H1086 H 0.36727 0.05658 0.37121 0.0
H1087 H 0.35176 0.054 0.47289 0.0
H1088 H 0.37015 0.99368 0.34444 0.0
H1089 H 0.33429 0.98793 0.59247 0.0
H1090 H 0.41831 0.04671 0.39069 0.0
H1091 H 0.39884 0.05121 0.32555 0.0
H1092 H 0.40247 0.02737 0.30029 0.0
H1093 H 0.37517 0.03945 0.69111 0.0
H1094 H 0.34572 1.01789 0.69493 0.0
H1095 H 0.35465 0.04381 0.63329 0.0
C1096 C 0.18578 0.31958 0.49795 0.0
C1097 C 0.17511 0.29953 0.54908 0.0
C1098 C 0.20894 0.3299 0.47567 0.0
C1099 C 0.22179 0.32001 0.50534 0.0
C1100 C 0.21117 0.29998 0.55807 0.0
C1101 C 0.18807 0.29005 0.5793 0.0
C1102 C 0.21959 0.35124 0.41939 0.0
C1103 C 0.22421 0.2889 0.59166 0.0
C1104 C 0.2757 0.33115 0.38291 0.0
C1105 C 0.29262 0.34618 0.44248 0.0
C1106 C 0.25266 0.32309 0.40098 0.0
C1107 C 0.24625 0.33025 0.48051 0.0
C1108 C 0.26325 0.34603 0.53925 0.0
C1109 C 0.28617 0.35377 0.51965 0.0
C1110 C 0.23513 0.30636 0.33628 0.0
C1111 C 0.2572 0.35414 0.62468 0.0
H1112 H 0.17592 0.32696 0.47372 0.0
H1113 H 0.18014 0.27483 0.62033 0.0
H1114 H 0.23432 0.36488 0.4558 0.0
H1115 H 0.22598 0.34827 0.35439 0.0
H1116 H 0.2075 0.3572 0.40383 0.0
H1117 H 0.21355 0.27353 0.63286 0.0
H1118 H 0.23118 0.2841 0.53301 0.0
H1119 H 0.23873 0.30098 0.63369 0.0
H1120 H 0.28046 0.32546 0.32231 0.0
H1121 H 0.29901 0.36517 0.56676 0.0
H1122 H 0.22345 0.31236 0.31477 0.0
H1123 H 0.22482 0.28991 0.37128 0.0
H1124 H 0.24286 0.30355 0.27468 0.0
H1125 H 0.24551 0.36053 0.60858 0.0
H1126 H 0.27234 0.36775 0.65933 0.0
H1127 H 0.24826 0.3398 0.67269 0.0
C1128 C 0.48694 0.2933 0.5063 0.0
C1129 C 0.503 0.29605 0.57239 0.0
C1130 C 0.48423 0.3115 0.47672 0.0
C1131 C 0.49808 0.33352 0.51268 0.0
C1132 C 0.51481 0.33658 0.5779 0.0
C1133 C 0.51696 0.31789 0.60732 0.0
C1134 C 0.46602 0.30695 0.40805 0.0
C1135 C 0.53027 0.35962 0.61764 0.0
C1136 C 0.49651 0.38186 0.37979 0.0
C1137 C 0.47969 0.38391 0.42706 0.0
C1138 C 0.50344 0.36631 0.40863 0.0
C1139 C 0.49355 0.35254 0.48715 0.0
C1140 C 0.47747 0.35556 0.53725 0.0
C1141 C 0.47077 0.37092 0.50665 0.0
C1142 C 0.52066 0.3639 0.35278 0.0
C1143 C 0.46636 0.34168 0.62129 0.0
H1144 H 0.47611 0.27665 0.47791 0.0
H1145 H 0.52959 0.32039 0.65765 0.0
H1146 H 0.45328 0.31054 0.43889 0.0
H1147 H 0.47342 0.31832 0.34857 0.0
H1148 H 0.45725 0.28918 0.38365 0.0
H1149 H 0.5437 0.35978 0.6608 0.0
H1150 H 0.53837 0.37224 0.5624 0.0
H1151 H 0.52029 0.36502 0.65959 0.0
H1152 H 0.50344 0.39154 0.31795 0.0
H1153 H 0.45788 0.37234 0.54449 0.0
H1154 H 0.51243 0.34713 0.31902 0.0
H1155 H 0.53416 0.36471 0.39731 0.0
H1156 H 0.52852 0.37719 0.29971 0.0
H1157 H 0.45553 0.32367 0.602 0.0
H1158 H 0.45572 0.34734 0.65724 0.0
H1159 H 0.47934 0.34263 0.66924 0.0
C1160 C 0.89519 0.10288 0.39981 0.0
C1161 C 0.89943 0.08543 0.42448 0.0
C1162 C 0.9099 0.1257 0.42755 0.0
C1163 C 0.92936 0.13139 0.48177 0.0
C1164 C 0.93311 0.11365 0.50914 0.0
C1165 C 0.91832 0.09127 0.48066 0.0
C1166 C 0.90494 0.14383 0.39702 0.0
C1167 C 0.95328 0.11835 0.56692 0.0
C1168 C 0.98396 0.1893 0.47649 0.0
C1169 C 0.98389 0.19879 0.56141 0.0
C1170 C 0.96588 0.16817 0.44803 0.0
C1171 C 0.94682 0.15575 0.50538 0.0
C1172 C 0.94616 0.16573 0.58969 0.0
C1173 C 0.9646 0.187 0.61665 0.0
C1174 C 0.96773 0.15871 0.35766 0.0
C1175 C 0.9263 0.15354 0.65327 0.0
H1176 H 0.88075 0.09886 0.35702 0.0
H1177 H 0.92187 0.0782 0.50246 0.0
H1178 H 0.90522 0.1541 0.45606 0.0
H1179 H 0.91827 0.15541 0.349 0.0
H1180 H 0.88827 0.13669 0.36277 0.0
H1181 H 0.95333 0.10266 0.58637 0.0
H1182 H 0.96912 0.12946 0.52913 0.0
H1183 H 0.95347 0.12741 0.62988 0.0
H1184 H 0.99854 0.19824 0.43234 0.0
H1185 H 0.96413 0.19412 0.68199 0.0
H1186 H 0.95205 0.15298 0.31754 0.0
H1187 H 0.96975 0.14375 0.36925 0.0
H1188 H 0.98233 0.17126 0.31677 0.0
H1189 H 0.91015 0.14676 0.61542 0.0
H1190 H 0.92648 0.16473 0.70858 0.0
H1191 H 0.92673 0.13898 0.68448 0.0
C1192 C 0.10998 0.79234 0.63139 0.0
C1193 C 0.08886 0.77723 0.59295 0.0
C1194 C 0.13052 0.79562 0.59369 0.0
C1195 C 0.13039 0.78384 0.51376 0.0
C1196 C 0.10904 0.76812 0.47573 0.0
C1197 C 0.08865 0.76487 0.51595 0.0
C1198 C 0.15253 0.81229 0.63837 0.0
C1199 C 0.10775 0.75529 0.39035 0.0
C1200 C 0.18471 0.81491 0.36995 0.0
C1201 C 0.19684 0.80392 0.39265 0.0
C1202 C 0.16286 0.80784 0.40503 0.0
C1203 C 0.15258 0.78947 0.46695 0.0
C1204 C 0.16444 0.77781 0.48825 0.0
C1205 C 0.18625 0.78502 0.45051 0.0
C1206 C 0.15112 0.82074 0.37823 0.0
C1207 C 0.15459 0.75838 0.55462 0.0
H1208 H 0.11048 0.80195 0.69097 0.0
H1209 H 0.07255 0.7532 0.48512 0.0
H1210 H 0.16303 0.80433 0.65073 0.0
H1211 H 0.16227 0.82691 0.59245 0.0
H1212 H 0.14986 0.81867 0.70408 0.0
H1213 H 0.09006 0.74258 0.37244 0.0
H1214 H 0.11533 0.7673 0.33281 0.0
H1215 H 0.11767 0.74656 0.39853 0.0
H1216 H 0.19262 0.82956 0.32572 0.0
H1217 H 0.19548 0.77661 0.47028 0.0
H1218 H 0.14978 0.82988 0.43821 0.0
H1219 H 0.13366 0.80889 0.35475 0.0
H1220 H 0.16028 0.83322 0.3234 0.0
H1221 H 0.15427 0.7648 0.62364 0.0
H1222 H 0.16455 0.74957 0.55731 0.0
H1223 H 0.13688 0.74598 0.53618 0.0
loop_
_geom_bond_atom_site_label_1
_geom_bond_atom_site_label_2
_geom_bond_distance
_geom_bond_site_symmetry_2
_ccdc_geom_bond_type
Tb0 C2 2.809 . S
Tb0 O20 2.484 . S
Tb0 O21 2.440 . S
Tb0 O22 2.658 . S
Tb0 O23 2.409 1_554 S
Tb0 O24 2.378 . S
Tb0 O28 2.325 . S
Tb0 O31 2.341 . S
Tb1 C11 2.809 . S
Tb1 O22 2.325 . S
Tb1 O25 2.341 . S
Tb1 O26 2.484 . S
Tb1 O27 2.440 . S
Tb1 O28 2.658 . S
Tb1 O29 2.409 . S
Tb1 O30 2.378 . S
C2 Tb0 2.809 . S
C2 C3 1.514 . S
C2 O20 1.248 . S
C2 O21 1.266 . S
C3 C2 1.514 . S
C3 C4 1.359 . S
C3 C8 1.348 . S
C4 C3 1.359 . S
C4 C5 1.380 . S
C4 H32 0.929 . S
C5 C4 1.380 . S
C5 C6 1.347 . S
C5 H33 0.931 . S
C6 C5 1.347 . S
C6 C7 1.369 . S
C7 C6 1.369 . S
C7 C8 1.408 . S
C7 H34 0.930 . S
C8 C3 1.348 . S
C8 C7 1.408 . S
C8 H35 0.930 . S
C9 O22 1.281 1_556 S
C9 O23 1.254 . S
C10 O24 1.236 . S
C10 O25 1.266 . S
C11 Tb1 2.809 . S
C11 C12 1.514 . S
C11 O26 1.248 . S
C11 O27 1.266 . S
C12 C11 1.514 . S
C12 C13 1.359 . S
C12 C17 1.348 . S
C13 C12 1.359 . S
C13 C14 1.380 . S
C13 H36 0.929 1_554 S
C14 C13 1.380 . S
C14 C15 1.347 . S
C14 H37 0.931 1_554 S
C15 C14 1.347 . S
C15 C16 1.369 . S
C16 C15 1.369 . S
C16 C17 1.408 . S
C16 H38 0.930 . S
C17 C12 1.348 . S
C17 C16 1.408 . S
C17 H39 0.930 . S
C18 O28 1.281 . S
C18 O29 1.254 . S
C19 O30 1.236 . S
C19 O31 1.266 . S
O20 Tb0 2.484 . S
O20 C2 1.248 . S
O21 Tb0 2.440 . S
O21 C2 1.266 . S
O22 Tb0 2.658 . S
O22 Tb1 2.325 . S
O22 C9 1.281 1_554 S
O23 Tb0 2.409 1_556 S
O23 C9 1.254 . S
O24 Tb0 2.378 . S
O24 C10 1.236 . S
O25 Tb1 2.341 . S
O25 C10 1.266 . S
O26 Tb1 2.484 . S
O26 C11 1.248 . S
O27 Tb1 2.440 . S
O27 C11 1.266 . S
O28 Tb0 2.325 . S
O28 Tb1 2.658 . S
O28 C18 1.281 . S
O29 Tb1 2.409 . S
O29 C18 1.254 . S
O30 Tb1 2.378 . S
O30 C19 1.236 . S
O31 Tb0 2.341 . S
O31 C19 1.266 . S
H32 C4 0.929 . S
H33 C5 0.931 . S
H34 C7 0.930 . S
H35 C8 0.930 . S
H36 C13 0.929 1_556 S
H37 C14 0.931 1_556 S
H38 C16 0.930 . S
H39 C17 0.930 . S
Tb40 C42 2.809 . S
Tb40 O60 2.484 . S
Tb40 O61 2.440 . S
Tb40 O62 2.658 . S
Tb40 O63 2.409 1_554 S
Tb40 O64 2.378 . S
Tb40 O68 2.325 . S
Tb40 O71 2.341 . S
Tb41 C51 2.809 . S
Tb41 O62 2.325 . S
Tb41 O65 2.341 . S
Tb41 O66 2.484 . S
Tb41 O67 2.440 . S
Tb41 O68 2.658 . S
Tb41 O69 2.409 . S
Tb41 O70 2.378 . S
C42 Tb40 2.809 . S
C42 C43 1.514 . S
C42 O60 1.248 . S
C42 O61 1.266 . S
C43 C42 1.514 . S
C43 C44 1.359 . S
C43 C48 1.348 . S
C44 C43 1.359 . S
C44 C45 1.380 . S
C44 H72 0.929 . S
C45 C44 1.380 . S
C45 C46 1.347 . S
C45 H73 0.931 . S
C46 C45 1.347 . S
C46 C47 1.369 . S
C47 C46 1.369 . S
C47 C48 1.408 . S
C47 H74 0.930 . S
C48 C43 1.348 . S
C48 C47 1.408 . S
C48 H75 0.930 . S
C49 O62 1.281 1_556 S
C49 O63 1.254 . S
C50 O64 1.236 . S
C50 O65 1.266 . S
C51 Tb41 2.809 . S
C51 C52 1.514 . S
C51 O66 1.248 . S
C51 O67 1.266 . S
C52 C51 1.514 . S
C52 C53 1.359 . S
C52 C57 1.348 . S
C53 C52 1.359 . S
C53 C54 1.380 . S
C53 H76 0.929 1_554 S
C54 C53 1.380 . S
C54 C55 1.347 . S
C54 H77 0.931 1_554 S
C55 C54 1.347 . S
C55 C56 1.369 . S
C56 C55 1.369 . S
C56 C57 1.408 . S
C56 H78 0.930 . S
C57 C52 1.348 . S
C57 C56 1.408 . S
C57 H79 0.930 . S
C58 O68 1.281 . S
C58 O69 1.254 . S
C59 O70 1.236 . S
C59 O71 1.266 . S
O60 Tb40 2.484 . S
O60 C42 1.248 . S
O61 Tb40 2.440 . S
O61 C42 1.266 . S
O62 Tb40 2.658 . S
O62 Tb41 2.325 . S
O62 C49 1.281 1_554 S
O63 Tb40 2.409 1_556 S
O63 C49 1.254 . S
O64 Tb40 2.378 . S
O64 C50 1.236 . S
O65 Tb41 2.341 . S
O65 C50 1.266 . S
O66 Tb41 2.484 . S
O66 C51 1.248 . S
O67 Tb41 2.440 . S
O67 C51 1.266 . S
O68 Tb40 2.325 . S
O68 Tb41 2.658 . S
O68 C58 1.281 . S
O69 Tb41 2.409 . S
O69 C58 1.254 . S
O70 Tb41 2.378 . S
O70 C59 1.236 . S
O71 Tb40 2.341 . S
O71 C59 1.266 . S
H72 C44 0.929 . S
H73 C45 0.931 . S
H74 C47 0.930 . S
H75 C48 0.930 . S
H76 C53 0.929 1_556 S
H77 C54 0.931 1_556 S
H78 C56 0.930 . S
H79 C57 0.930 . S
Tb80 C82 2.809 . S
Tb80 O100 2.484 . S
Tb80 O101 2.440 . S
Tb80 O102 2.658 . S
Tb80 O103 2.409 1_554 S
Tb80 O104 2.378 . S
Tb80 O108 2.325 . S
Tb80 O111 2.341 . S
Tb81 C91 2.809 . S
Tb81 O102 2.325 . S
Tb81 O105 2.341 . S
Tb81 O106 2.484 . S
Tb81 O107 2.440 . S
Tb81 O108 2.658 . S
Tb81 O109 2.409 . S
Tb81 O110 2.378 . S
C82 Tb80 2.809 . S
C82 C83 1.514 . S
C82 O100 1.248 . S
C82 O101 1.266 . S
C83 C82 1.514 . S
C83 C84 1.359 . S
C83 C88 1.348 . S
C84 C83 1.359 . S
C84 C85 1.380 . S
C84 H112 0.929 . S
C85 C84 1.380 . S
C85 C86 1.347 . S
C85 H113 0.931 . S
C86 C85 1.347 . S
C86 C87 1.369 . S
C87 C86 1.369 . S
C87 C88 1.408 . S
C87 H114 0.930 . S
C88 C83 1.348 . S
C88 C87 1.408 . S
C88 H115 0.930 . S
C89 O102 1.281 1_556 S
C89 O103 1.254 . S
C90 O104 1.236 . S
C90 O105 1.266 . S
C91 Tb81 2.809 . S
C91 C92 1.514 . S
C91 O106 1.248 . S
C91 O107 1.266 . S
C92 C91 1.514 . S
C92 C93 1.359 . S
C92 C97 1.348 . S
C93 C92 1.359 . S
C93 C94 1.380 . S
C93 H116 0.929 1_554 S
C94 C93 1.380 . S
C94 C95 1.347 . S
C94 H117 0.931 1_554 S
C95 C94 1.347 . S
C95 C96 1.369 . S
C96 C95 1.369 . S
C96 C97 1.408 . S
C96 H118 0.930 . S
C97 C92 1.348 . S
C97 C96 1.408 . S
C97 H119 0.930 . S
C98 O108 1.281 . S
C98 O109 1.254 . S
C99 O110 1.236 . S
C99 O111 1.266 . S
O100 Tb80 2.484 . S
O100 C82 1.248 . S
O101 Tb80 2.440 . S
O101 C82 1.266 . S
O102 Tb80 2.658 . S
O102 Tb81 2.325 . S
O102 C89 1.281 1_554 S
O103 Tb80 2.409 1_556 S
O103 C89 1.254 . S
O104 Tb80 2.378 . S
O104 C90 1.236 . S
O105 Tb81 2.341 . S
O105 C90 1.266 . S
O106 Tb81 2.484 . S
O106 C91 1.248 . S
O107 Tb81 2.440 . S
O107 C91 1.266 . S
O108 Tb80 2.325 . S
O108 Tb81 2.658 . S
O108 C98 1.281 . S
O109 Tb81 2.409 . S
O109 C98 1.254 . S
O110 Tb81 2.378 . S
O110 C99 1.236 . S
O111 Tb80 2.341 . S
O111 C99 1.266 . S
H112 C84 0.929 . S
H113 C85 0.931 . S
H114 C87 0.930 . S
H115 C88 0.930 . S
H116 C93 0.929 1_556 S
H117 C94 0.931 1_556 S
H118 C96 0.930 . S
H119 C97 0.930 . S
Tb120 C122 2.757 1_545 S
Tb120 O140 2.438 1_545 S
Tb120 O141 2.395 1_545 S
Tb120 O142 2.684 . S
Tb120 O143 2.413 . S
Tb120 O144 2.343 1_545 S
Tb120 O148 2.333 1_545 S
Tb120 O151 2.396 . S
Tb121 C131 2.809 1_565 S
Tb121 O142 2.325 1_565 S
Tb121 O145 2.341 . S
Tb121 O146 2.484 1_565 S
Tb121 O147 2.440 1_565 S
Tb121 O148 2.658 . S
Tb121 O149 2.409 . S
Tb121 O150 2.378 1_565 S
C122 Tb120 2.757 1_565 S
C122 C123 1.514 . S
C122 O140 1.248 . S
C122 O141 1.266 . S
C123 C122 1.514 . S
C123 C124 1.359 . S
C123 C128 1.348 . S
C124 C123 1.359 . S
C124 C125 1.380 . S
C124 H152 0.929 . S
C125 C124 1.380 . S
C125 C126 1.347 . S
C125 H153 0.931 . S
C126 C125 1.347 . S
C126 C127 1.369 . S
C127 C126 1.369 . S
C127 C128 1.408 . S
C127 H154 0.930 . S
C128 C123 1.348 . S
C128 C127 1.408 . S
C128 H155 0.930 . S
C129 O142 1.281 . S
C129 O143 1.254 . S
C130 O144 1.236 . S
C130 O145 1.266 . S
C131 Tb121 2.809 1_545 S
C131 C132 1.514 . S
C131 O146 1.248 . S
C131 O147 1.266 . S
C132 C131 1.514 . S
C132 C133 1.359 . S
C132 C137 1.348 . S
C133 C132 1.359 . S
C133 C134 1.380 . S
C133 H156 0.929 . S
C134 C133 1.380 . S
C134 C135 1.347 . S
C134 H157 0.931 . S
C135 C134 1.347 . S
C135 C136 1.369 . S
C136 C135 1.369 . S
C136 C137 1.408 . S
C136 H158 0.930 . S
C137 C132 1.348 . S
C137 C136 1.408 . S
C137 H159 0.930 . S
C138 O148 1.281 . S
C138 O149 1.254 . S
C139 O150 1.236 . S
C139 O151 1.266 . S
O140 Tb120 2.438 1_565 S
O140 C122 1.248 . S
O141 Tb120 2.395 1_565 S
O141 C122 1.266 . S
O142 Tb120 2.684 . S
O142 Tb121 2.325 1_545 S
O142 C129 1.281 . S
O143 Tb120 2.413 . S
O143 C129 1.254 . S
O144 Tb120 2.343 1_565 S
O144 C130 1.236 . S
O145 Tb121 2.341 . S
O145 C130 1.266 . S
O146 Tb121 2.484 1_545 S
O146 C131 1.248 . S
O147 Tb121 2.440 1_545 S
O147 C131 1.266 . S
O148 Tb120 2.333 1_565 S
O148 Tb121 2.658 . S
O148 C138 1.281 . S
O149 Tb121 2.409 . S
O149 C138 1.254 . S
O150 Tb121 2.378 1_545 S
O150 C139 1.236 . S
O151 Tb120 2.396 . S
O151 C139 1.266 . S
H152 C124 0.929 . S
H153 C125 0.931 . S
H154 C127 0.930 . S
H155 C128 0.930 . S
H156 C133 0.929 . S
H157 C134 0.931 . S
H158 C136 0.930 . S
H159 C137 0.930 . S
Tb160 C162 2.809 . S
Tb160 O180 2.484 . S
Tb160 O181 2.440 . S
Tb160 O182 2.658 . S
Tb160 O183 2.409 . S
Tb160 O184 2.378 . S
Tb160 O188 2.325 . S
Tb160 O191 2.341 . S
Tb161 C171 2.809 . S
Tb161 O182 2.325 . S
Tb161 O185 2.341 . S
Tb161 O186 2.484 . S
Tb161 O187 2.440 . S
Tb161 O188 2.658 . S
Tb161 O189 2.409 . S
Tb161 O190 2.378 . S
C162 Tb160 2.809 . S
C162 C163 1.514 . S
C162 O180 1.248 . S
C162 O181 1.266 . S
C163 C162 1.514 . S
C163 C164 1.359 . S
C163 C168 1.348 . S
C164 C163 1.359 . S
C164 C165 1.380 . S
C164 H192 0.929 . S
C165 C164 1.380 . S
C165 C166 1.347 . S
C165 H193 0.931 . S
C166 C165 1.347 . S
C166 C167 1.369 . S
C167 C166 1.369 . S
C167 C168 1.408 . S
C167 H194 0.930 . S
C168 C163 1.348 . S
C168 C167 1.408 . S
C168 H195 0.930 . S
C169 O182 1.281 . S
C169 O183 1.254 . S
C170 O184 1.236 . S
C170 O185 1.266 . S
C171 Tb161 2.809 . S
C171 C172 1.514 . S
C171 O186 1.248 . S
C171 O187 1.266 . S
C172 C171 1.514 . S
C172 C173 1.359 . S
C172 C177 1.348 . S
C173 C172 1.359 . S
C173 C174 1.380 . S
C173 H196 0.929 . S
C174 C173 1.380 . S
C174 C175 1.347 . S
C174 H197 0.931 . S
C175 C174 1.347 . S
C175 C176 1.369 . S
C176 C175 1.369 . S
C176 C177 1.408 . S
C176 H198 0.930 . S
C177 C172 1.348 . S
C177 C176 1.408 . S
C177 H199 0.930 . S
C178 O188 1.281 . S
C178 O189 1.254 . S
C179 O190 1.236 . S
C179 O191 1.266 . S
O180 Tb160 2.484 . S
O180 C162 1.248 . S
O181 Tb160 2.440 . S
O181 C162 1.266 . S
O182 Tb160 2.658 . S
O182 Tb161 2.325 . S
O182 C169 1.281 . S
O183 Tb160 2.409 . S
O183 C169 1.254 . S
O184 Tb160 2.378 . S
O184 C170 1.236 . S
O185 Tb161 2.341 . S
O185 C170 1.266 . S
O186 Tb161 2.484 . S
O186 C171 1.248 . S
O187 Tb161 2.440 . S
O187 C171 1.266 . S
O188 Tb160 2.325 . S
O188 Tb161 2.658 . S
O188 C178 1.281 . S
O189 Tb161 2.409 . S
O189 C178 1.254 . S
O190 Tb161 2.378 . S
O190 C179 1.236 . S
O191 Tb160 2.341 . S
O191 C179 1.266 . S
H192 C164 0.929 . S
H193 C165 0.931 . S
H194 C167 0.930 . S
H195 C168 0.930 . S
H196 C173 0.929 . S
H197 C174 0.931 . S
H198 C176 0.930 . S
H199 C177 0.930 . S
Tb200 C202 2.809 . S
Tb200 O220 2.484 . S
Tb200 O221 2.440 . S
Tb200 O222 2.658 . S
Tb200 O223 2.409 . S
Tb200 O224 2.378 . S
Tb200 O228 2.325 . S
Tb200 O231 2.341 . S
Tb201 C211 2.809 . S
Tb201 O222 2.325 . S
Tb201 O225 2.341 . S
Tb201 O226 2.484 . S
Tb201 O227 2.440 . S
Tb201 O228 2.658 . S
Tb201 O229 2.409 . S
Tb201 O230 2.378 . S
C202 Tb200 2.809 . S
C202 C203 1.514 . S
C202 O220 1.248 . S
C202 O221 1.266 . S
C203 C202 1.514 . S
C203 C204 1.359 . S
C203 C208 1.348 . S
C204 C203 1.359 . S
C204 C205 1.380 . S
C204 H232 0.929 . S
C205 C204 1.380 . S
C205 C206 1.347 . S
C205 H233 0.931 . S
C206 C205 1.347 . S
C206 C207 1.369 . S
C207 C206 1.369 . S
C207 C208 1.408 . S
C207 H234 0.930 . S
C208 C203 1.348 . S
C208 C207 1.408 . S
C208 H235 0.930 . S
C209 O222 1.281 . S
C209 O223 1.254 . S
C210 O224 1.236 . S
C210 O225 1.266 . S
C211 Tb201 2.809 . S
C211 C212 1.514 . S
C211 O226 1.248 . S
C211 O227 1.266 . S
C212 C211 1.514 . S
C212 C213 1.359 . S
C212 C217 1.348 . S
C213 C212 1.359 . S
C213 C214 1.380 . S
C213 H236 0.929 . S
C214 C213 1.380 . S
C214 C215 1.347 . S
C214 H237 0.931 . S
C215 C214 1.347 . S
C215 C216 1.369 . S
C216 C215 1.369 . S
C216 C217 1.408 . S
C216 H238 0.930 . S
C217 C212 1.348 . S
C217 C216 1.408 . S
C217 H239 0.930 . S
C218 O228 1.281 . S
C218 O229 1.254 . S
C219 O230 1.236 . S
C219 O231 1.266 . S
O220 Tb200 2.484 . S
O220 C202 1.248 . S
O221 Tb200 2.440 . S
O221 C202 1.266 . S
O222 Tb200 2.658 . S
O222 Tb201 2.325 . S
O222 C209 1.281 . S
O223 Tb200 2.409 . S
O223 C209 1.254 . S
O224 Tb200 2.378 . S
O224 C210 1.236 . S
O225 Tb201 2.341 . S
O225 C210 1.266 . S
O226 Tb201 2.484 . S
O226 C211 1.248 . S
O227 Tb201 2.440 . S
O227 C211 1.266 . S
O228 Tb200 2.325 . S
O228 Tb201 2.658 . S
O228 C218 1.281 . S
O229 Tb201 2.409 . S
O229 C218 1.254 . S
O230 Tb201 2.378 . S
O230 C219 1.236 . S
O231 Tb200 2.341 . S
O231 C219 1.266 . S
H232 C204 0.929 . S
H233 C205 0.931 . S
H234 C207 0.930 . S
H235 C208 0.930 . S
H236 C213 0.929 . S
H237 C214 0.931 . S
H238 C216 0.930 . S
H239 C217 0.930 . S
Tb240 C242 2.809 . S
Tb240 O260 2.484 . S
Tb240 O261 2.440 . S
Tb240 O262 2.658 . S
Tb240 O263 2.409 . S
Tb240 O264 2.378 . S
Tb240 O268 2.325 . S
Tb240 O271 2.341 . S
Tb241 C251 2.809 . S
Tb241 O262 2.325 . S
Tb241 O265 2.341 . S
Tb241 O266 2.484 . S
Tb241 O267 2.440 . S
Tb241 O268 2.658 . S
Tb241 O269 2.409 . S
Tb241 O270 2.378 . S
C242 Tb240 2.809 . S
C242 C243 1.514 . S
C242 O260 1.248 . S
C242 O261 1.266 . S
C243 C242 1.514 . S
C243 C244 1.359 . S
C243 C248 1.348 . S
C244 C243 1.359 . S
C244 C245 1.380 . S
C244 H272 0.929 . S
C245 C244 1.380 . S
C245 C246 1.347 . S
C245 H273 0.931 . S
C246 C245 1.347 . S
C246 C247 1.369 . S
C247 C246 1.369 . S
C247 C248 1.408 . S
C247 H274 0.930 . S
C248 C243 1.348 . S
C248 C247 1.408 . S
C248 H275 0.930 . S
C249 O262 1.281 . S
C249 O263 1.254 . S
C250 O264 1.236 . S
C250 O265 1.266 . S
C251 Tb241 2.809 . S
C251 C252 1.514 . S
C251 O266 1.248 . S
C251 O267 1.266 . S
C252 C251 1.514 . S
C252 C253 1.359 . S
C252 C257 1.348 . S
C253 C252 1.359 . S
C253 C254 1.380 . S
C253 H276 0.929 . S
C254 C253 1.380 . S
C254 C255 1.347 . S
C254 H277 0.931 . S
C255 C254 1.347 . S
C255 C256 1.369 . S
C256 C255 1.369 . S
C256 C257 1.408 . S
C256 H278 0.930 . S
C257 C252 1.348 . S
C257 C256 1.408 . S
C257 H279 0.930 . S
C258 O268 1.281 . S
C258 O269 1.254 . S
C259 O270 1.236 . S
C259 O271 1.266 . S
O260 Tb240 2.484 . S
O260 C242 1.248 . S
O261 Tb240 2.440 . S
O261 C242 1.266 . S
O262 Tb240 2.658 . S
O262 Tb241 2.325 . S
O262 C249 1.281 . S
O263 Tb240 2.409 . S
O263 C249 1.254 . S
O264 Tb240 2.378 . S
O264 C250 1.236 . S
O265 Tb241 2.341 . S
O265 C250 1.266 . S
O266 Tb241 2.484 . S
O266 C251 1.248 . S
O267 Tb241 2.440 . S
O267 C251 1.266 . S
O268 Tb240 2.325 . S
O268 Tb241 2.658 . S
O268 C258 1.281 . S
O269 Tb241 2.409 . S
O269 C258 1.254 . S
O270 Tb241 2.378 . S
O270 C259 1.236 . S
O271 Tb240 2.341 . S
O271 C259 1.266 . S
H272 C244 0.929 . S
H273 C245 0.931 . S
H274 C247 0.930 . S
H275 C248 0.930 . S
H276 C253 0.929 . S
H277 C254 0.931 . S
H278 C256 0.930 . S
H279 C257 0.930 . S
Tb280 C282 2.809 . S
Tb280 O300 2.484 . S
Tb280 O301 2.440 . S
Tb280 O302 2.658 1_655 S
Tb280 O303 2.409 . S
Tb280 O304 2.378 . S
Tb280 O308 2.325 . S
Tb280 O311 2.341 . S
Tb281 C291 2.809 . S
Tb281 O302 2.325 . S
Tb281 O305 2.341 . S
Tb281 O306 2.484 . S
Tb281 O307 2.440 . S
Tb281 O308 2.658 1_455 S
Tb281 O309 2.409 1_455 S
Tb281 O310 2.378 . S
C282 Tb280 2.809 . S
C282 C283 1.514 . S
C282 O300 1.248 . S
C282 O301 1.266 . S
C283 C282 1.514 . S
C283 C284 1.359 . S
C283 C288 1.348 . S
C284 C283 1.359 . S
C284 C285 1.380 . S
C284 H312 0.929 . S
C285 C284 1.380 . S
C285 C286 1.347 . S
C285 H313 0.931 . S
C286 C285 1.347 . S
C286 C287 1.369 . S
C287 C286 1.369 . S
C287 C288 1.408 . S
C287 H314 0.930 . S
C288 C283 1.348 . S
C288 C287 1.408 . S
C288 H315 0.930 . S
C289 O302 1.281 . S
C289 O303 1.254 1_455 S
C290 O304 1.236 . S
C290 O305 1.266 1_655 S
C291 Tb281 2.809 . S
C291 C292 1.514 . S
C291 O306 1.248 . S
C291 O307 1.266 . S
C292 C291 1.514 . S
C292 C293 1.359 . S
C292 C297 1.348 . S
C293 C292 1.359 . S
C293 C294 1.380 . S
C293 H316 0.929 . S
C294 C293 1.380 . S
C294 C295 1.347 . S
C294 H317 0.931 . S
C295 C294 1.347 . S
C295 C296 1.369 . S
C296 C295 1.369 . S
C296 C297 1.408 . S
C296 H318 0.930 . S
C297 C292 1.348 . S
C297 C296 1.408 . S
C297 H319 0.930 . S
C298 O308 1.281 . S
C298 O309 1.254 . S
C299 O310 1.236 . S
C299 O311 1.266 1_455 S
O300 Tb280 2.484 . S
O300 C282 1.248 . S
O301 Tb280 2.440 . S
O301 C282 1.266 . S
O302 Tb280 2.658 1_455 S
O302 Tb281 2.325 . S
O302 C289 1.281 . S
O303 Tb280 2.409 . S
O303 C289 1.254 1_655 S
O304 Tb280 2.378 . S
O304 C290 1.236 . S
O305 Tb281 2.341 . S
O305 C290 1.266 1_455 S
O306 Tb281 2.484 . S
O306 C291 1.248 . S
O307 Tb281 2.440 . S
O307 C291 1.266 . S
O308 Tb280 2.325 . S
O308 Tb281 2.658 1_655 S
O308 C298 1.281 . S
O309 Tb281 2.409 1_655 S
O309 C298 1.254 . S
O310 Tb281 2.378 . S
O310 C299 1.236 . S
O311 Tb280 2.341 . S
O311 C299 1.266 1_655 S
H312 C284 0.929 . S
H313 C285 0.931 . S
H314 C287 0.930 . S
H315 C288 0.930 . S
H316 C293 0.929 . S
H317 C294 0.931 . S
H318 C296 0.930 . S
H319 C297 0.930 . S
Tb320 C322 2.809 1_655 S
Tb320 O340 2.484 1_655 S
Tb320 O341 2.440 . S
Tb320 O342 2.658 . S
Tb320 O343 2.409 . S
Tb320 O344 2.378 . S
Tb320 O348 2.325 1_655 S
Tb320 O351 2.341 . S
Tb321 C331 2.809 . S
Tb321 O342 2.325 . S
Tb321 O345 2.341 1_655 S
Tb321 O346 2.484 . S
Tb321 O347 2.440 1_655 S
Tb321 O348 2.658 1_655 S
Tb321 O349 2.409 1_655 S
Tb321 O350 2.378 . S
C322 Tb320 2.809 1_455 S
C322 C323 1.514 . S
C322 O340 1.248 . S
C322 O341 1.266 1_455 S
C323 C322 1.514 . S
C323 C324 1.359 . S
C323 C328 1.348 1_455 S
C324 C323 1.359 . S
C324 C325 1.380 . S
C324 H352 0.929 . S
C325 C324 1.380 . S
C325 C326 1.347 . S
C325 H353 0.931 . S
C326 C325 1.347 . S
C326 C327 1.369 . S
C327 C326 1.369 . S
C327 C328 1.408 1_455 S
C327 H354 0.930 1_455 S
C328 C323 1.348 1_655 S
C328 C327 1.408 1_655 S
C328 H355 0.930 . S
C329 O342 1.281 . S
C329 O343 1.254 . S
C330 O344 1.236 1_455 S
C330 O345 1.266 . S
C331 Tb321 2.809 . S
C331 C332 1.514 . S
C331 O346 1.248 . S
C331 O347 1.266 1_655 S
C332 C331 1.514 . S
C332 C333 1.359 . S
C332 C337 1.348 . S
C333 C332 1.359 . S
C333 C334 1.380 . S
C333 H356 0.929 . S
C334 C333 1.380 . S
C334 C335 1.347 . S
C334 H357 0.931 . S
C335 C334 1.347 . S
C335 C336 1.369 . S
C336 C335 1.369 . S
C336 C337 1.408 . S
C336 H358 0.930 . S
C337 C332 1.348 . S
C337 C336 1.408 . S
C337 H359 0.930 1_655 S
C338 O348 1.281 . S
C338 O349 1.254 . S
C339 O350 1.236 . S
C339 O351 1.266 . S
O340 Tb320 2.484 1_455 S
O340 C322 1.248 . S
O341 Tb320 2.440 . S
O341 C322 1.266 1_655 S
O342 Tb320 2.658 . S
O342 Tb321 2.325 . S
O342 C329 1.281 . S
O343 Tb320 2.409 . S
O343 C329 1.254 . S
O344 Tb320 2.378 . S
O344 C330 1.236 1_655 S
O345 Tb321 2.341 1_455 S
O345 C330 1.266 . S
O346 Tb321 2.484 . S
O346 C331 1.248 . S
O347 Tb321 2.440 1_455 S
O347 C331 1.266 1_455 S
O348 Tb320 2.325 1_455 S
O348 Tb321 2.658 1_455 S
O348 C338 1.281 . S
O349 Tb321 2.409 1_455 S
O349 C338 1.254 . S
O350 Tb321 2.378 . S
O350 C339 1.236 . S
O351 Tb320 2.341 . S
O351 C339 1.266 . S
H352 C324 0.929 . S
H353 C325 0.931 . S
H354 C327 0.930 1_655 S
H355 C328 0.930 . S
H356 C333 0.929 . S
H357 C334 0.931 . S
H358 C336 0.930 . S
H359 C337 0.930 1_455 S
C360 C361 1.391 . S
C360 C362 1.394 . S
C360 H376 0.931 . S
C361 C360 1.391 . S
C361 C365 1.376 . S
C362 C360 1.394 . S
C362 C363 1.369 . S
C362 C366 1.531 . S
C363 C362 1.369 . S
C363 C364 1.410 . S
C363 C371 1.503 . S
C364 C363 1.410 . S
C364 C365 1.392 . S
C364 C367 1.511 . S
C365 C361 1.376 . S
C365 C364 1.392 . S
C365 H377 0.929 . S
C366 C362 1.531 . S
C366 H378 0.960 . S
C366 H379 0.962 . S
C366 H380 0.960 . S
C367 C364 1.511 . S
C367 H381 0.961 . S
C367 H382 0.961 . S
C367 H383 0.961 . S
C368 C369 1.370 . S
C368 C370 1.363 . S
C368 H384 0.931 . S
C369 C368 1.370 . S
C369 C373 1.408 . S
C370 C368 1.363 . S
C370 C371 1.370 . S
C370 C374 1.524 . S
C371 C363 1.503 . S
C371 C370 1.370 . S
C371 C372 1.403 . S
C372 C371 1.403 . S
C372 C373 1.404 . S
C372 C375 1.539 . S
C373 C369 1.408 . S
C373 C372 1.404 . S
C373 H385 0.930 . S
C374 C370 1.524 . S
C374 H386 0.956 . S
C374 H387 0.961 . S
C374 H388 0.961 . S
C375 C372 1.539 . S
C375 H389 0.958 . S
C375 H390 0.961 . S
C375 H391 0.960 . S
H376 C360 0.931 . S
H377 C365 0.929 . S
H378 C366 0.960 . S
H379 C366 0.962 . S
H380 C366 0.960 . S
H381 C367 0.961 . S
H382 C367 0.961 . S
H383 C367 0.961 . S
H384 C368 0.931 . S
H385 C373 0.930 . S
H386 C374 0.956 . S
H387 C374 0.961 . S
H388 C374 0.961 . S
H389 C375 0.958 . S
H390 C375 0.961 . S
H391 C375 0.960 . S
C392 C393 1.391 . S
C392 C394 1.394 . S
C392 H408 0.931 . S
C393 C392 1.391 . S
C393 C397 1.376 . S
C394 C392 1.394 . S
C394 C395 1.369 . S
C394 C398 1.531 . S
C395 C394 1.369 . S
C395 C396 1.410 . S
C395 C403 1.503 . S
C396 C395 1.410 . S
C396 C397 1.392 . S
C396 C399 1.511 . S
C397 C393 1.376 . S
C397 C396 1.392 . S
C397 H409 0.929 . S
C398 C394 1.531 . S
C398 H410 0.960 . S
C398 H411 0.962 . S
C398 H412 0.960 . S
C399 C396 1.511 . S
C399 H413 0.961 . S
C399 H414 0.961 . S
C399 H415 0.961 . S
C400 C401 1.370 . S
C400 C402 1.363 . S
C400 H416 0.931 . S
C401 C400 1.370 . S
C401 C405 1.408 . S
C402 C400 1.363 . S
C402 C403 1.370 . S
C402 C406 1.524 . S
C403 C395 1.503 . S
C403 C402 1.370 . S
C403 C404 1.403 . S
C404 C403 1.403 . S
C404 C405 1.404 . S
C404 C407 1.539 . S
C405 C401 1.408 . S
C405 C404 1.404 . S
C405 H417 0.930 . S
C406 C402 1.524 . S
C406 H418 0.956 . S
C406 H419 0.961 . S
C406 H420 0.961 . S
C407 C404 1.539 . S
C407 H421 0.958 . S
C407 H422 0.961 . S
C407 H423 0.960 . S
H408 C392 0.931 . S
H409 C397 0.929 . S
H410 C398 0.960 . S
H411 C398 0.962 . S
H412 C398 0.960 . S
H413 C399 0.961 . S
H414 C399 0.961 . S
H415 C399 0.961 . S
H416 C400 0.931 . S
H417 C405 0.930 . S
H418 C406 0.956 . S
H419 C406 0.961 . S
H420 C406 0.961 . S
H421 C407 0.958 . S
H422 C407 0.961 . S
H423 C407 0.960 . S
C424 C425 1.391 . S
C424 C426 1.394 . S
C424 H440 0.931 . S
C425 C424 1.391 . S
C425 C429 1.376 . S
C426 C424 1.394 . S
C426 C427 1.369 . S
C426 C430 1.531 . S
C427 C426 1.369 . S
C427 C428 1.410 . S
C427 C435 1.503 . S
C428 C427 1.410 . S
C428 C429 1.392 . S
C428 C431 1.511 . S
C429 C425 1.376 . S
C429 C428 1.392 . S
C429 H441 0.929 . S
C430 C426 1.531 . S
C430 H442 0.960 . S
C430 H443 0.962 . S
C430 H444 0.960 . S
C431 C428 1.511 . S
C431 H445 0.961 . S
C431 H446 0.961 . S
C431 H447 0.961 . S
C432 C433 1.370 . S
C432 C434 1.363 . S
C432 H448 0.931 . S
C433 C432 1.370 . S
C433 C437 1.408 . S
C434 C432 1.363 . S
C434 C435 1.370 . S
C434 C438 1.524 . S
C435 C427 1.503 . S
C435 C434 1.370 . S
C435 C436 1.403 . S
C436 C435 1.403 . S
C436 C437 1.404 . S
C436 C439 1.539 . S
C437 C433 1.408 . S
C437 C436 1.404 . S
C437 H449 0.930 . S
C438 C434 1.524 . S
C438 H450 0.956 . S
C438 H451 0.961 . S
C438 H452 0.961 . S
C439 C436 1.539 . S
C439 H453 0.958 . S
C439 H454 0.961 . S
C439 H455 0.960 . S
H440 C424 0.931 . S
H441 C429 0.929 . S
H442 C430 0.960 . S
H443 C430 0.962 . S
H444 C430 0.960 . S
H445 C431 0.961 . S
H446 C431 0.961 . S
H447 C431 0.961 . S
H448 C432 0.931 . S
H449 C437 0.930 . S
H450 C438 0.956 . S
H451 C438 0.961 . S
H452 C438 0.961 . S
H453 C439 0.958 . S
H454 C439 0.961 . S
H455 C439 0.960 . S
C456 C457 1.391 . S
C456 C458 1.394 . S
C456 H472 0.931 . S
C457 C456 1.391 . S
C457 C461 1.376 1_565 S
C458 C456 1.394 . S
C458 C459 1.369 . S
C458 C462 1.531 . S
C459 C458 1.369 . S
C459 C460 1.410 1_565 S
C459 C467 1.503 . S
C460 C459 1.410 1_545 S
C460 C461 1.392 . S
C460 C463 1.511 . S
C461 C457 1.376 1_545 S
C461 C460 1.392 . S
C461 H473 0.929 . S
C462 C458 1.531 . S
C462 H474 0.960 . S
C462 H475 0.962 . S
C462 H476 0.960 . S
C463 C460 1.511 . S
C463 H477 0.961 . S
C463 H478 0.961 . S
C463 H479 0.961 . S
C464 C465 1.370 . S
C464 C466 1.363 . S
C464 H480 0.931 . S
C465 C464 1.370 . S
C465 C469 1.408 1_545 S
C466 C464 1.363 . S
C466 C467 1.370 1_545 S
C466 C470 1.524 . S
C467 C459 1.503 . S
C467 C466 1.370 1_565 S
C467 C468 1.403 . S
C468 C467 1.403 . S
C468 C469 1.404 . S
C468 C471 1.539 . S
C469 C465 1.408 1_565 S
C469 C468 1.404 . S
C469 H481 0.930 . S
C470 C466 1.524 . S
C470 H482 0.956 . S
C470 H483 0.961 . S
C470 H484 0.961 . S
C471 C468 1.539 . S
C471 H485 0.958 . S
C471 H486 0.961 . S
C471 H487 0.960 . S
H472 C456 0.931 . S
H473 C461 0.929 . S
H474 C462 0.960 . S
H475 C462 0.962 . S
H476 C462 0.960 . S
H477 C463 0.961 . S
H478 C463 0.961 . S
H479 C463 0.961 . S
H480 C464 0.931 . S
H481 C469 0.930 . S
H482 C470 0.956 . S
H483 C470 0.961 . S
H484 C470 0.961 . S
H485 C471 0.958 . S
H486 C471 0.961 . S
H487 C471 0.960 . S
C488 C489 1.391 . S
C488 C490 1.394 . S
C488 H504 0.931 . S
C489 C488 1.391 . S
C489 C493 1.376 . S
C490 C488 1.394 . S
C490 C491 1.369 . S
C490 C494 1.531 . S
C491 C490 1.369 . S
C491 C492 1.410 . S
C491 C499 1.503 . S
C492 C491 1.410 . S
C492 C493 1.392 . S
C492 C495 1.511 . S
C493 C489 1.376 . S
C493 C492 1.392 . S
C493 H505 0.929 . S
C494 C490 1.531 . S
C494 H506 0.960 . S
C494 H507 0.962 . S
C494 H508 0.960 . S
C495 C492 1.511 . S
C495 H509 0.961 . S
C495 H510 0.961 . S
C495 H511 0.961 . S
C496 C497 1.370 . S
C496 C498 1.363 . S
C496 H512 0.931 . S
C497 C496 1.370 . S
C497 C501 1.408 . S
C498 C496 1.363 . S
C498 C499 1.370 . S
C498 C502 1.524 . S
C499 C491 1.503 . S
C499 C498 1.370 . S
C499 C500 1.403 . S
C500 C499 1.403 . S
C500 C501 1.404 . S
C500 C503 1.539 . S
C501 C497 1.408 . S
C501 C500 1.404 . S
C501 H513 0.930 . S
C502 C498 1.524 . S
C502 H514 0.956 . S
C502 H515 0.961 . S
C502 H516 0.961 . S
C503 C500 1.539 . S
C503 H517 0.958 . S
C503 H518 0.961 . S
C503 H519 0.960 . S
H504 C488 0.931 . S
H505 C493 0.929 . S
H506 C494 0.960 . S
H507 C494 0.962 . S
H508 C494 0.960 . S
H509 C495 0.961 . S
H510 C495 0.961 . S
H511 C495 0.961 . S
H512 C496 0.931 . S
H513 C501 0.930 . S
H514 C502 0.956 . S
H515 C502 0.961 . S
H516 C502 0.961 . S
H517 C503 0.958 . S
H518 C503 0.961 . S
H519 C503 0.960 . S
C520 C521 1.391 . S
C520 C522 1.394 . S
C520 H536 0.931 . S
C521 C520 1.391 . S
C521 C525 1.376 . S
C522 C520 1.394 . S
C522 C523 1.369 . S
C522 C526 1.531 . S
C523 C522 1.369 . S
C523 C524 1.410 . S
C523 C531 1.503 . S
C524 C523 1.410 . S
C524 C525 1.392 . S
C524 C527 1.511 . S
C525 C521 1.376 . S
C525 C524 1.392 . S
C525 H537 0.929 . S
C526 C522 1.531 . S
C526 H538 0.960 . S
C526 H539 0.962 . S
C526 H540 0.960 . S
C527 C524 1.511 . S
C527 H541 0.961 . S
C527 H542 0.961 . S
C527 H543 0.961 . S
C528 C529 1.370 . S
C528 C530 1.363 . S
C528 H544 0.931 . S
C529 C528 1.370 . S
C529 C533 1.408 . S
C530 C528 1.363 . S
C530 C531 1.370 . S
C530 C534 1.524 . S
C531 C523 1.503 . S
C531 C530 1.370 . S
C531 C532 1.403 . S
C532 C531 1.403 . S
C532 C533 1.404 . S
C532 C535 1.539 . S
C533 C529 1.408 . S
C533 C532 1.404 . S
C533 H545 0.930 . S
C534 C530 1.524 . S
C534 H546 0.956 . S
C534 H547 0.961 . S
C534 H548 0.961 . S
C535 C532 1.539 . S
C535 H549 0.958 . S
C535 H550 0.961 . S
C535 H551 0.960 . S
H536 C520 0.931 . S
H537 C525 0.929 . S
H538 C526 0.960 . S
H539 C526 0.962 . S
H540 C526 0.960 . S
H541 C527 0.961 . S
H542 C527 0.961 . S
H543 C527 0.961 . S
H544 C528 0.931 . S
H545 C533 0.930 . S
H546 C534 0.956 . S
H547 C534 0.961 . S
H548 C534 0.961 . S
H549 C535 0.958 . S
H550 C535 0.961 . S
H551 C535 0.960 . S
C552 C553 1.391 . S
C552 C554 1.394 . S
C552 H568 0.931 . S
C553 C552 1.391 . S
C553 C557 1.376 . S
C554 C552 1.394 . S
C554 C555 1.369 . S
C554 C558 1.531 . S
C555 C554 1.369 . S
C555 C556 1.410 . S
C555 C563 1.503 . S
C556 C555 1.410 . S
C556 C557 1.392 . S
C556 C559 1.511 . S
C557 C553 1.376 . S
C557 C556 1.392 . S
C557 H569 0.929 . S
C558 C554 1.531 . S
C558 H570 0.960 . S
C558 H571 0.962 . S
C558 H572 0.960 . S
C559 C556 1.511 . S
C559 H573 0.961 . S
C559 H574 0.961 . S
C559 H575 0.961 . S
C560 C561 1.370 . S
C560 C562 1.363 1_556 S
C560 H576 0.931 . S
C561 C560 1.370 . S
C561 C565 1.408 . S
C562 C560 1.363 1_554 S
C562 C563 1.370 . S
C562 C566 1.524 . S
C563 C555 1.503 . S
C563 C562 1.370 . S
C563 C564 1.403 . S
C564 C563 1.403 . S
C564 C565 1.404 1_554 S
C564 C567 1.539 . S
C565 C561 1.408 . S
C565 C564 1.404 1_556 S
C565 H577 0.930 . S
C566 C562 1.524 . S
C566 H578 0.956 . S
C566 H579 0.961 . S
C566 H580 0.961 . S
C567 C564 1.539 . S
C567 H581 0.958 . S
C567 H582 0.961 . S
C567 H583 0.960 . S
H568 C552 0.931 . S
H569 C557 0.929 . S
H570 C558 0.960 . S
H571 C558 0.962 . S
H572 C558 0.960 . S
H573 C559 0.961 . S
H574 C559 0.961 . S
H575 C559 0.961 . S
H576 C560 0.931 . S
H577 C565 0.930 . S
H578 C566 0.956 . S
H579 C566 0.961 . S
H580 C566 0.961 . S
H581 C567 0.958 . S
H582 C567 0.961 . S
H583 C567 0.960 . S
C584 C585 1.359 1_655 S
C584 C586 1.398 . S
C584 H600 0.960 . S
C585 C584 1.359 1_455 S
C585 C589 1.376 . S
C586 C584 1.398 . S
C586 C587 1.369 1_655 S
C586 C590 1.531 . S
C587 C586 1.369 1_455 S
C587 C588 1.410 . S
C587 C595 1.503 1_455 S
C588 C587 1.410 . S
C588 C589 1.392 . S
C588 C591 1.511 . S
C589 C585 1.376 . S
C589 C588 1.392 . S
C589 H601 0.929 . S
C590 C586 1.531 . S
C590 H602 0.960 . S
C590 H603 0.962 . S
C590 H604 0.960 . S
C591 C588 1.511 . S
C591 H605 0.961 . S
C591 H606 0.961 . S
C591 H607 0.961 . S
C592 C593 1.370 1_554 S
C592 C594 1.363 . S
C592 H608 0.931 1_554 S
C593 C592 1.370 1_556 S
C593 C597 1.408 1_655 S
C594 C592 1.363 . S
C594 C595 1.370 . S
C594 C598 1.524 . S
C595 C587 1.503 1_655 S
C595 C594 1.370 . S
C595 C596 1.403 1_655 S
C596 C595 1.403 1_455 S
C596 C597 1.404 1_554 S
C596 C599 1.539 . S
C597 C593 1.408 1_455 S
C597 C596 1.404 1_556 S
C597 H609 0.930 . S
C598 C594 1.524 . S
C598 H610 0.956 . S
C598 H611 0.961 . S
C598 H612 0.961 . S
C599 C596 1.539 . S
C599 H613 0.958 . S
C599 H614 0.961 . S
C599 H615 0.960 . S
H600 C584 0.960 . S
H601 C589 0.929 . S
H602 C590 0.960 . S
H603 C590 0.962 . S
H604 C590 0.960 . S
H605 C591 0.961 . S
H606 C591 0.961 . S
H607 C591 0.961 . S
H608 C592 0.931 1_556 S
H609 C597 0.930 . S
H610 C598 0.956 . S
H611 C598 0.961 . S
H612 C598 0.961 . S
H613 C599 0.958 . S
H614 C599 0.961 . S
H615 C599 0.960 . S
C616 C617 1.391 . S
C616 C618 1.397 . S
C616 H632 0.931 1_655 S
C617 C616 1.391 . S
C617 C621 1.376 . S
C618 C616 1.397 . S
C618 C619 1.379 . S
C618 C622 1.517 1_655 S
C619 C618 1.379 . S
C619 C620 1.410 . S
C619 C627 1.503 . S
C620 C619 1.410 . S
C620 C621 1.392 . S
C620 C623 1.511 . S
C621 C617 1.376 . S
C621 C620 1.392 . S
C621 H633 0.929 . S
C622 C618 1.517 1_455 S
C622 H634 0.960 . S
C622 H635 0.962 . S
C622 H636 0.960 . S
C623 C620 1.511 . S
C623 H637 0.961 . S
C623 H638 0.961 . S
C623 H639 0.961 . S
C624 C625 1.370 . S
C624 C626 1.363 1_556 S
C624 H640 0.931 . S
C625 C624 1.370 . S
C625 C629 1.408 1_455 S
C626 C624 1.363 1_554 S
C626 C627 1.370 1_455 S
C626 C630 1.524 . S
C627 C619 1.503 . S
C627 C626 1.370 1_655 S
C627 C628 1.403 . S
C628 C627 1.403 . S
C628 C629 1.404 1_554 S
C628 C631 1.539 . S
C629 C625 1.408 1_655 S
C629 C628 1.404 1_556 S
C629 H641 0.930 . S
C630 C626 1.524 . S
C630 H642 0.956 . S
C630 H643 0.961 . S
C630 H644 0.961 . S
C631 C628 1.539 . S
C631 H645 0.958 . S
C631 H646 0.961 . S
C631 H647 0.960 . S
H632 C616 0.931 1_455 S
H633 C621 0.929 . S
H634 C622 0.960 . S
H635 C622 0.962 . S
H636 C622 0.960 . S
H637 C623 0.961 . S
H638 C623 0.961 . S
H639 C623 0.961 . S
H640 C624 0.931 . S
H641 C629 0.930 . S
H642 C630 0.956 . S
H643 C630 0.961 . S
H644 C630 0.961 . S
H645 C631 0.958 . S
H646 C631 0.961 . S
H647 C631 0.960 . S
C648 C649 1.391 . S
C648 C650 1.394 . S
C648 H664 0.931 . S
C649 C648 1.391 . S
C649 C653 1.376 . S
C650 C648 1.394 . S
C650 C651 1.369 . S
C650 C654 1.531 . S
C651 C650 1.369 . S
C651 C652 1.410 . S
C651 C659 1.503 . S
C652 C651 1.410 . S
C652 C653 1.392 . S
C652 C655 1.511 . S
C653 C649 1.376 . S
C653 C652 1.392 . S
C653 H665 0.929 . S
C654 C650 1.531 . S
C654 H666 0.960 . S
C654 H667 0.962 . S
C654 H668 0.960 . S
C655 C652 1.511 . S
C655 H669 0.961 . S
C655 H670 0.961 . S
C655 H671 0.961 . S
C656 C657 1.370 . S
C656 C658 1.363 . S
C656 H672 0.931 . S
C657 C656 1.370 . S
C657 C661 1.408 . S
C658 C656 1.363 . S
C658 C659 1.370 . S
C658 C662 1.524 . S
C659 C651 1.503 . S
C659 C658 1.370 . S
C659 C660 1.403 . S
C660 C659 1.403 . S
C660 C661 1.404 . S
C660 C663 1.539 . S
C661 C657 1.408 . S
C661 C660 1.404 . S
C661 H673 0.930 . S
C662 C658 1.524 . S
C662 H674 0.956 . S
C662 H675 0.961 . S
C662 H676 0.961 . S
C663 C660 1.539 . S
C663 H677 0.958 . S
C663 H678 0.961 1_554 S
C663 H679 0.960 . S
H664 C648 0.931 . S
H665 C653 0.929 . S
H666 C654 0.960 . S
H667 C654 0.962 . S
H668 C654 0.960 . S
H669 C655 0.961 . S
H670 C655 0.961 . S
H671 C655 0.961 . S
H672 C656 0.931 . S
H673 C661 0.930 . S
H674 C662 0.956 . S
H675 C662 0.961 . S
H676 C662 0.961 . S
H677 C663 0.958 . S
H678 C663 0.961 1_556 S
H679 C663 0.960 . S
C680 C681 1.391 . S
C680 C682 1.394 . S
C680 H696 0.931 . S
C681 C680 1.391 . S
C681 C685 1.376 . S
C682 C680 1.394 . S
C682 C683 1.369 . S
C682 C686 1.531 . S
C683 C682 1.369 . S
C683 C684 1.410 . S
C683 C691 1.503 . S
C684 C683 1.410 . S
C684 C685 1.392 . S
C684 C687 1.511 . S
C685 C681 1.376 . S
C685 C684 1.392 . S
C685 H697 0.929 . S
C686 C682 1.531 . S
C686 H698 0.960 . S
C686 H699 0.962 . S
C686 H700 0.960 . S
C687 C684 1.511 . S
C687 H701 0.961 . S
C687 H702 0.961 . S
C687 H703 0.961 . S
C688 C689 1.370 . S
C688 C690 1.363 . S
C688 H704 0.931 . S
C689 C688 1.370 . S
C689 C693 1.408 . S
C690 C688 1.363 . S
C690 C691 1.370 . S
C690 C694 1.524 . S
C691 C683 1.503 . S
C691 C690 1.370 . S
C691 C692 1.403 . S
C692 C691 1.403 . S
C692 C693 1.404 . S
C692 C695 1.539 . S
C693 C689 1.408 . S
C693 C692 1.404 . S
C693 H705 0.930 . S
C694 C690 1.524 . S
C694 H706 0.956 . S
C694 H707 0.961 . S
C694 H708 0.961 . S
C695 C692 1.539 . S
C695 H709 0.958 . S
C695 H710 0.961 . S
C695 H711 0.960 . S
H696 C680 0.931 . S
H697 C685 0.929 . S
H698 C686 0.960 . S
H699 C686 0.962 . S
H700 C686 0.960 . S
H701 C687 0.961 . S
H702 C687 0.961 . S
H703 C687 0.961 . S
H704 C688 0.931 . S
H705 C693 0.930 . S
H706 C694 0.956 . S
H707 C694 0.961 . S
H708 C694 0.961 . S
H709 C695 0.958 . S
H710 C695 0.961 . S
H711 C695 0.960 . S
C712 C713 1.391 . S
C712 C714 1.394 . S
C712 H728 0.931 1_565 S
C713 C712 1.391 . S
C713 C717 1.376 . S
C714 C712 1.394 . S
C714 C715 1.369 . S
C714 C718 1.531 . S
C715 C714 1.369 . S
C715 C716 1.410 . S
C715 C723 1.503 . S
C716 C715 1.410 . S
C716 C717 1.392 . S
C716 C719 1.511 . S
C717 C713 1.376 . S
C717 C716 1.392 . S
C717 H729 0.929 . S
C718 C714 1.531 . S
C718 H730 0.960 . S
C718 H731 0.962 . S
C718 H732 0.960 . S
C719 C716 1.511 . S
C719 H733 0.961 . S
C719 H734 0.961 . S
C719 H735 0.961 . S
C720 C721 1.370 . S
C720 C722 1.363 . S
C720 H736 0.931 . S
C721 C720 1.370 . S
C721 C725 1.408 . S
C722 C720 1.363 . S
C722 C723 1.370 . S
C722 C726 1.524 . S
C723 C715 1.503 . S
C723 C722 1.370 . S
C723 C724 1.403 . S
C724 C723 1.403 . S
C724 C725 1.404 . S
C724 C727 1.539 . S
C725 C721 1.408 . S
C725 C724 1.404 . S
C725 H737 0.930 . S
C726 C722 1.524 . S
C726 H738 0.956 . S
C726 H739 0.961 . S
C726 H740 0.961 . S
C727 C724 1.539 . S
C727 H741 0.958 1_554 S
C727 H742 0.961 1_554 S
C727 H743 0.960 . S
H728 C712 0.931 1_545 S
H729 C717 0.929 . S
H730 C718 0.960 . S
H731 C718 0.962 . S
H732 C718 0.960 . S
H733 C719 0.961 . S
H734 C719 0.961 . S
H735 C719 0.961 . S
H736 C720 0.931 . S
H737 C725 0.930 . S
H738 C726 0.956 . S
H739 C726 0.961 . S
H740 C726 0.961 . S
H741 C727 0.958 1_556 S
H742 C727 0.961 1_556 S
H743 C727 0.960 . S
C744 C745 1.391 . S
C744 C746 1.394 . S
C744 H760 0.931 . S
C745 C744 1.391 . S
C745 C749 1.376 1_554 S
C746 C744 1.394 . S
C746 C747 1.369 1_554 S
C746 C750 1.531 . S
C747 C746 1.369 1_556 S
C747 C748 1.410 . S
C747 C755 1.503 . S
C748 C747 1.410 . S
C748 C749 1.392 . S
C748 C751 1.511 . S
C749 C745 1.376 1_556 S
C749 C748 1.392 . S
C749 H761 0.929 . S
C750 C746 1.531 . S
C750 H762 0.960 . S
C750 H763 0.962 . S
C750 H764 0.960 . S
C751 C748 1.511 . S
C751 H765 0.961 . S
C751 H766 0.961 . S
C751 H767 0.961 . S
C752 C753 1.370 . S
C752 C754 1.363 . S
C752 H768 0.931 . S
C753 C752 1.370 . S
C753 C757 1.408 . S
C754 C752 1.363 . S
C754 C755 1.370 . S
C754 C758 1.524 . S
C755 C747 1.503 . S
C755 C754 1.370 . S
C755 C756 1.403 . S
C756 C755 1.403 . S
C756 C757 1.404 . S
C756 C759 1.539 . S
C757 C753 1.408 . S
C757 C756 1.404 . S
C757 H769 0.930 . S
C758 C754 1.524 . S
C758 H770 0.956 . S
C758 H771 0.961 . S
C758 H772 0.961 . S
C759 C756 1.539 . S
C759 H773 0.958 1_556 S
C759 H774 0.961 . S
C759 H775 0.960 1_556 S
H760 C744 0.931 . S
H761 C749 0.929 . S
H762 C750 0.960 . S
H763 C750 0.962 . S
H764 C750 0.960 . S
H765 C751 0.961 . S
H766 C751 0.961 . S
H767 C751 0.961 . S
H768 C752 0.931 . S
H769 C757 0.930 . S
H770 C758 0.956 . S
H771 C758 0.961 . S
H772 C758 0.961 . S
H773 C759 0.958 1_554 S
H774 C759 0.961 . S
H775 C759 0.960 1_554 S
C776 C777 1.391 . S
C776 C778 1.394 . S
C776 H792 0.931 . S
C777 C776 1.391 . S
C777 C781 1.376 . S
C778 C776 1.394 . S
C778 C779 1.369 . S
C778 C782 1.531 1_556 S
C779 C778 1.369 . S
C779 C780 1.410 . S
C779 C787 1.503 . S
C780 C779 1.410 . S
C780 C781 1.392 . S
C780 C783 1.511 . S
C781 C777 1.376 . S
C781 C780 1.392 . S
C781 H793 0.929 . S
C782 C778 1.531 1_554 S
C782 H794 0.960 . S
C782 H795 0.962 . S
C782 H796 0.960 . S
C783 C780 1.511 . S
C783 H797 0.961 . S
C783 H798 0.961 . S
C783 H799 0.961 . S
C784 C785 1.370 1_556 S
C784 C786 1.363 . S
C784 H800 0.931 . S
C785 C784 1.370 1_554 S
C785 C789 1.408 . S
C786 C784 1.363 . S
C786 C787 1.370 . S
C786 C790 1.524 . S
C787 C779 1.503 . S
C787 C786 1.370 . S
C787 C788 1.403 1_556 S
C788 C787 1.403 1_554 S
C788 C789 1.404 . S
C788 C791 1.539 . S
C789 C785 1.408 . S
C789 C788 1.404 . S
C789 H801 0.930 . S
C790 C786 1.524 . S
C790 H802 0.956 . S
C790 H803 0.961 . S
C790 H804 0.961 . S
C791 C788 1.539 . S
C791 H805 0.958 . S
C791 H806 0.961 . S
C791 H807 0.960 1_554 S
H792 C776 0.931 . S
H793 C781 0.929 . S
H794 C782 0.960 . S
H795 C782 0.962 . S
H796 C782 0.960 . S
H797 C783 0.961 . S
H798 C783 0.961 . S
H799 C783 0.961 . S
H800 C784 0.931 . S
H801 C789 0.930 . S
H802 C790 0.956 . S
H803 C790 0.961 . S
H804 C790 0.961 . S
H805 C791 0.958 . S
H806 C791 0.961 . S
H807 C791 0.960 1_556 S
C808 C809 1.391 . S
C808 C810 1.394 . S
C808 H824 0.931 . S
C809 C808 1.391 . S
C809 C813 1.376 . S
C810 C808 1.394 . S
C810 C811 1.369 . S
C810 C814 1.531 1_556 S
C811 C810 1.369 . S
C811 C812 1.410 . S
C811 C819 1.503 . S
C812 C811 1.410 . S
C812 C813 1.392 . S
C812 C815 1.511 . S
C813 C809 1.376 . S
C813 C812 1.392 . S
C813 H825 0.929 . S
C814 C810 1.531 1_554 S
C814 H826 0.960 . S
C814 H827 0.962 . S
C814 H828 0.960 . S
C815 C812 1.511 . S
C815 H829 0.961 . S
C815 H830 0.961 . S
C815 H831 0.961 . S
C816 C817 1.370 . S
C816 C818 1.363 1_554 S
C816 H832 0.931 . S
C817 C816 1.370 . S
C817 C821 1.408 . S
C818 C816 1.363 1_556 S
C818 C819 1.370 . S
C818 C822 1.524 . S
C819 C811 1.503 . S
C819 C818 1.370 . S
C819 C820 1.403 . S
C820 C819 1.403 . S
C820 C821 1.404 1_556 S
C820 C823 1.539 . S
C821 C817 1.408 . S
C821 C820 1.404 1_554 S
C821 H833 0.930 . S
C822 C818 1.524 . S
C822 H834 0.956 . S
C822 H835 0.961 . S
C822 H836 0.961 . S
C823 C820 1.539 . S
C823 H837 0.958 1_556 S
C823 H838 0.961 . S
C823 H839 0.960 . S
H824 C808 0.931 . S
H825 C813 0.929 . S
H826 C814 0.960 . S
H827 C814 0.962 . S
H828 C814 0.960 . S
H829 C815 0.961 . S
H830 C815 0.961 . S
H831 C815 0.961 . S
H832 C816 0.931 . S
H833 C821 0.930 . S
H834 C822 0.956 . S
H835 C822 0.961 . S
H836 C822 0.961 . S
H837 C823 0.958 1_554 S
H838 C823 0.961 . S
H839 C823 0.960 . S
C840 C841 1.391 . S
C840 C842 1.394 . S
C840 H856 0.931 . S
C841 C840 1.391 . S
C841 C845 1.376 1_556 S
C842 C840 1.394 . S
C842 C843 1.369 1_556 S
C842 C846 1.531 . S
C843 C842 1.369 1_554 S
C843 C844 1.410 . S
C843 C851 1.503 . S
C844 C843 1.410 . S
C844 C845 1.392 . S
C844 C847 1.511 . S
C845 C841 1.376 1_554 S
C845 C844 1.392 . S
C845 H857 0.929 . S
C846 C842 1.531 . S
C846 H858 0.960 . S
C846 H859 0.962 . S
C846 H860 0.960 . S
C847 C844 1.511 . S
C847 H861 0.927 1_455 S
C847 H862 0.961 . S
C847 H863 0.961 . S
C848 C849 1.370 1_556 S
C848 C850 1.363 . S
C848 H864 0.931 . S
C849 C848 1.370 1_554 S
C849 C853 1.408 . S
C850 C848 1.363 . S
C850 C851 1.370 1_556 S
C850 C854 1.524 . S
C851 C843 1.503 . S
C851 C850 1.370 1_554 S
C851 C852 1.403 . S
C852 C851 1.403 . S
C852 C853 1.404 . S
C852 C855 1.539 . S
C853 C849 1.408 . S
C853 C852 1.404 . S
C853 H865 0.930 . S
C854 C850 1.524 . S
C854 H866 0.956 . S
C854 H867 0.961 . S
C854 H868 0.961 . S
C855 C852 1.539 . S
C855 H869 0.958 . S
C855 H870 0.961 . S
C855 H871 0.960 . S
H856 C840 0.931 . S
H857 C845 0.929 . S
H858 C846 0.960 . S
H859 C846 0.962 . S
H860 C846 0.960 . S
H861 C847 0.927 1_655 S
H862 C847 0.961 . S
H863 C847 0.961 . S
H864 C848 0.931 . S
H865 C853 0.930 . S
H866 C854 0.956 . S
H867 C854 0.961 . S
H868 C854 0.961 . S
H869 C855 0.958 . S
H870 C855 0.961 . S
H871 C855 0.960 . S
C872 C873 1.391 1_556 S
C872 C874 1.394 . S
C872 H888 0.931 . S
C873 C872 1.391 1_554 S
C873 C877 1.376 . S
C874 C872 1.394 . S
C874 C875 1.369 1_556 S
C874 C878 1.531 . S
C875 C874 1.369 1_554 S
C875 C876 1.410 . S
C875 C883 1.503 . S
C876 C875 1.410 . S
C876 C877 1.392 . S
C876 C879 1.511 . S
C877 C873 1.376 . S
C877 C876 1.392 . S
C877 H889 0.929 . S
C878 C874 1.531 . S
C878 H890 0.960 . S
C878 H891 0.962 . S
C878 H892 0.960 . S
C879 C876 1.511 . S
C879 H893 0.961 . S
C879 H894 0.961 . S
C879 H895 0.961 . S
C880 C881 1.370 . S
C880 C882 1.363 . S
C880 H896 0.931 . S
C881 C880 1.370 . S
C881 C885 1.408 1_556 S
C882 C880 1.363 . S
C882 C883 1.370 1_556 S
C882 C886 1.524 . S
C883 C875 1.503 . S
C883 C882 1.370 1_554 S
C883 C884 1.403 . S
C884 C883 1.403 . S
C884 C885 1.404 . S
C884 C887 1.539 . S
C885 C881 1.408 1_554 S
C885 C884 1.404 . S
C885 H897 0.930 . S
C886 C882 1.524 . S
C886 H898 0.956 . S
C886 H899 0.961 . S
C886 H900 0.961 . S
C887 C884 1.539 . S
C887 H901 0.958 . S
C887 H902 0.961 . S
C887 H903 0.960 . S
H888 C872 0.931 . S
H889 C877 0.929 . S
H890 C878 0.960 . S
H891 C878 0.962 . S
H892 C878 0.960 . S
H893 C879 0.961 . S
H894 C879 0.961 . S
H895 C879 0.961 . S
H896 C880 0.931 . S
H897 C885 0.930 . S
H898 C886 0.956 . S
H899 C886 0.961 . S
H900 C886 0.961 . S
H901 C887 0.958 . S
H902 C887 0.961 . S
H903 C887 0.960 . S
C904 C905 1.391 1_554 S
C904 C906 1.394 . S
C904 H920 0.931 . S
C905 C904 1.391 1_556 S
C905 C909 1.376 . S
C906 C904 1.394 . S
C906 C907 1.369 1_554 S
C906 C910 1.531 . S
C907 C906 1.369 1_556 S
C907 C908 1.410 . S
C907 C915 1.503 1_556 S
C908 C907 1.410 . S
C908 C909 1.392 . S
C908 C911 1.511 . S
C909 C905 1.376 . S
C909 C908 1.392 . S
C909 H921 0.929 . S
C910 C906 1.531 . S
C910 H922 0.960 . S
C910 H923 0.962 . S
C910 H924 0.960 . S
C911 C908 1.511 . S
C911 H925 0.961 . S
C911 H926 0.961 . S
C911 H927 0.961 . S
C912 C913 1.370 . S
C912 C914 1.363 . S
C912 H928 0.931 . S
C913 C912 1.370 . S
C913 C917 1.408 . S
C914 C912 1.363 . S
C914 C915 1.370 . S
C914 C918 1.524 . S
C915 C907 1.503 1_554 S
C915 C914 1.370 . S
C915 C916 1.403 . S
C916 C915 1.403 . S
C916 C917 1.404 . S
C916 C919 1.539 1_554 S
C917 C913 1.408 . S
C917 C916 1.404 . S
C917 H929 0.930 . S
C918 C914 1.524 . S
C918 H930 0.956 . S
C918 H931 0.961 1_554 S
C918 H932 0.961 . S
C919 C916 1.539 1_556 S
C919 H933 0.958 1_556 S
C919 H934 0.961 . S
C919 H935 0.960 . S
H920 C904 0.931 . S
H921 C909 0.929 . S
H922 C910 0.960 . S
H923 C910 0.962 . S
H924 C910 0.960 . S
H925 C911 0.961 . S
H926 C911 0.961 . S
H927 C911 0.961 . S
H928 C912 0.931 . S
H929 C917 0.930 . S
H930 C918 0.956 . S
H931 C918 0.961 1_556 S
H932 C918 0.961 . S
H933 C919 0.958 1_554 S
H934 C919 0.961 . S
H935 C919 0.960 . S
C936 C937 1.391 . S
C936 C938 1.394 . S
C936 H952 0.931 . S
C937 C936 1.391 . S
C937 C941 1.376 . S
C938 C936 1.394 . S
C938 C939 1.369 . S
C938 C942 1.531 . S
C939 C938 1.369 . S
C939 C940 1.410 . S
C939 C947 1.503 . S
C940 C939 1.410 . S
C940 C941 1.392 . S
C940 C943 1.511 . S
C941 C937 1.376 . S
C941 C940 1.392 . S
C941 H953 0.929 . S
C942 C938 1.531 . S
C942 H954 0.960 . S
C942 H955 0.962 . S
C942 H956 0.960 . S
C943 C940 1.511 . S
C943 H957 0.961 . S
C943 H958 0.961 . S
C943 H959 0.961 . S
C944 C945 1.370 . S
C944 C946 1.363 . S
C944 H960 0.931 . S
C945 C944 1.370 . S
C945 C949 1.408 . S
C946 C944 1.363 . S
C946 C947 1.370 . S
C946 C950 1.524 1_554 S
C947 C939 1.503 . S
C947 C946 1.370 . S
C947 C948 1.403 . S
C948 C947 1.403 . S
C948 C949 1.404 . S
C948 C951 1.539 . S
C949 C945 1.408 . S
C949 C948 1.404 . S
C949 H961 0.930 . S
C950 C946 1.524 1_556 S
C950 H962 0.956 . S
C950 H963 0.961 1_556 S
C950 H964 0.961 . S
C951 C948 1.539 . S
C951 H965 0.958 . S
C951 H966 0.961 . S
C951 H967 0.960 . S
H952 C936 0.931 . S
H953 C941 0.929 . S
H954 C942 0.960 . S
H955 C942 0.962 . S
H956 C942 0.960 . S
H957 C943 0.961 . S
H958 C943 0.961 . S
H959 C943 0.961 . S
H960 C944 0.931 . S
H961 C949 0.930 . S
H962 C950 0.956 . S
H963 C950 0.961 1_554 S
H964 C950 0.961 . S
H965 C951 0.958 . S
H966 C951 0.961 . S
H967 C951 0.960 . S
C968 C969 1.391 . S
C968 C970 1.394 . S
C968 H984 0.931 . S
C969 C968 1.391 . S
C969 C973 1.376 . S
C970 C968 1.394 . S
C970 C971 1.369 . S
C970 C974 1.531 . S
C971 C970 1.369 . S
C971 C972 1.410 . S
C971 C979 1.503 . S
C972 C971 1.410 . S
C972 C973 1.392 . S
C972 C975 1.511 . S
C973 C969 1.376 . S
C973 C972 1.392 . S
C973 H985 0.929 . S
C974 C970 1.531 . S
C974 H986 0.960 . S
C974 H987 0.962 . S
C974 H988 0.960 1_554 S
C975 C972 1.511 . S
C975 H989 0.961 . S
C975 H990 0.961 . S
C975 H991 0.961 . S
C976 C977 1.370 . S
C976 C978 1.363 . S
C976 H992 0.931 . S
C977 C976 1.370 . S
C977 C981 1.408 . S
C978 C976 1.363 . S
C978 C979 1.370 . S
C978 C982 1.524 . S
C979 C971 1.503 . S
C979 C978 1.370 . S
C979 C980 1.403 . S
C980 C979 1.403 . S
C980 C981 1.404 . S
C980 C983 1.539 1_554 S
C981 C977 1.408 . S
C981 C980 1.404 . S
C981 H993 0.930 . S
C982 C978 1.524 . S
C982 H994 0.956 . S
C982 H995 0.961 . S
C982 H996 0.961 . S
C983 C980 1.539 1_556 S
C983 H997 0.958 . S
C983 H998 0.961 . S
C983 H999 0.960 1_556 S
H984 C968 0.931 . S
H985 C973 0.929 . S
H986 C974 0.960 . S
H987 C974 0.962 . S
H988 C974 0.960 1_556 S
H989 C975 0.961 . S
H990 C975 0.961 . S
H991 C975 0.961 . S
H992 C976 0.931 . S
H993 C981 0.930 . S
H994 C982 0.956 . S
H995 C982 0.961 . S
H996 C982 0.961 . S
H997 C983 0.958 . S
H998 C983 0.961 . S
H999 C983 0.960 1_554 S
C1000 C1001 1.391 . S
C1000 C1002 1.394 . S
C1000 H1016 0.931 . S
C1001 C1000 1.391 . S
C1001 C1005 1.376 . S
C1002 C1000 1.394 . S
C1002 C1003 1.369 . S
C1002 C1006 1.531 . S
C1003 C1002 1.369 . S
C1003 C1004 1.410 . S
C1003 C1011 1.503 . S
C1004 C1003 1.410 . S
C1004 C1005 1.392 . S
C1004 C1007 1.511 . S
C1005 C1001 1.376 . S
C1005 C1004 1.392 . S
C1005 H1017 0.929 . S
C1006 C1002 1.531 . S
C1006 H1018 0.962 . S
C1006 H1019 0.962 . S
C1006 H1020 0.960 1_554 S
C1007 C1004 1.511 . S
C1007 H1021 0.961 . S
C1007 H1022 0.961 . S
C1007 H1023 0.961 . S
C1008 C1009 1.370 . S
C1008 C1010 1.363 . S
C1008 H1024 0.931 . S
C1009 C1008 1.370 . S
C1009 C1013 1.408 . S
C1010 C1008 1.363 . S
C1010 C1011 1.370 . S
C1010 C1014 1.524 . S
C1011 C1003 1.503 . S
C1011 C1010 1.370 . S
C1011 C1012 1.403 . S
C1012 C1011 1.403 . S
C1012 C1013 1.404 . S
C1012 C1015 1.539 1_554 S
C1013 C1009 1.408 . S
C1013 C1012 1.404 . S
C1013 H1025 0.930 . S
C1014 C1010 1.524 . S
C1014 H1026 0.956 . S
C1014 H1027 0.961 . S
C1014 H1028 0.961 . S
C1015 C1012 1.539 1_556 S
C1015 H1029 0.958 . S
C1015 H1030 0.961 . S
C1015 H1031 0.960 1_556 S
H1016 C1000 0.931 . S
H1017 C1005 0.929 . S
H1018 C1006 0.962 . S
H1019 C1006 0.962 . S
H1020 C1006 0.960 1_556 S
H1021 C1007 0.961 . S
H1022 C1007 0.961 . S
H1023 C1007 0.961 . S
H1024 C1008 0.931 . S
H1025 C1013 0.930 . S
H1026 C1014 0.956 . S
H1027 C1014 0.961 . S
H1028 C1014 0.961 . S
H1029 C1015 0.958 . S
H1030 C1015 0.961 . S
H1031 C1015 0.960 1_554 S
C1032 C1033 1.391 . S
C1032 C1034 1.394 . S
C1032 H1048 0.931 . S
C1033 C1032 1.391 . S
C1033 C1037 1.376 . S
C1034 C1032 1.394 . S
C1034 C1035 1.369 . S
C1034 C1038 1.531 . S
C1035 C1034 1.369 . S
C1035 C1036 1.410 . S
C1035 C1043 1.503 . S
C1036 C1035 1.410 . S
C1036 C1037 1.392 . S
C1036 C1039 1.511 . S
C1037 C1033 1.376 . S
C1037 C1036 1.392 . S
C1037 H1049 0.929 . S
C1038 C1034 1.531 . S
C1038 H1050 0.960 . S
C1038 H1051 0.962 . S
C1038 H1052 0.960 . S
C1039 C1036 1.511 . S
C1039 H1053 0.961 . S
C1039 H1054 0.961 . S
C1039 H1055 0.961 . S
C1040 C1041 1.370 . S
C1040 C1042 1.363 . S
C1040 H1056 0.931 . S
C1041 C1040 1.370 . S
C1041 C1045 1.408 . S
C1042 C1040 1.363 . S
C1042 C1043 1.370 . S
C1042 C1046 1.524 . S
C1043 C1035 1.503 . S
C1043 C1042 1.370 . S
C1043 C1044 1.403 . S
C1044 C1043 1.403 . S
C1044 C1045 1.404 . S
C1044 C1047 1.539 . S
C1045 C1041 1.408 . S
C1045 C1044 1.404 . S
C1045 H1057 0.930 . S
C1046 C1042 1.524 . S
C1046 H1058 0.956 . S
C1046 H1059 0.961 . S
C1046 H1060 0.961 . S
C1047 C1044 1.539 . S
C1047 H1061 0.958 . S
C1047 H1062 0.961 . S
C1047 H1063 0.960 . S
H1048 C1032 0.931 . S
H1049 C1037 0.929 . S
H1050 C1038 0.960 . S
H1051 C1038 0.962 . S
H1052 C1038 0.960 . S
H1053 C1039 0.961 . S
H1054 C1039 0.961 . S
H1055 C1039 0.961 . S
H1056 C1040 0.931 . S
H1057 C1045 0.930 . S
H1058 C1046 0.956 . S
H1059 C1046 0.961 . S
H1060 C1046 0.961 . S
H1061 C1047 0.958 . S
H1062 C1047 0.961 . S
H1063 C1047 0.960 . S
C1064 C1065 1.391 . S
C1064 C1066 1.394 . S
C1064 H1080 0.931 . S
C1065 C1064 1.391 . S
C1065 C1069 1.376 . S
C1066 C1064 1.394 . S
C1066 C1067 1.369 . S
C1066 C1070 1.531 . S
C1067 C1066 1.369 . S
C1067 C1068 1.410 . S
C1067 C1075 1.503 . S
C1068 C1067 1.410 . S
C1068 C1069 1.392 . S
C1068 C1071 1.511 . S
C1069 C1065 1.376 . S
C1069 C1068 1.392 . S
C1069 H1081 0.929 . S
C1070 C1066 1.531 . S
C1070 H1082 0.960 . S
C1070 H1083 0.962 . S
C1070 H1084 0.960 . S
C1071 C1068 1.511 . S
C1071 H1085 0.961 . S
C1071 H1086 0.961 . S
C1071 H1087 0.961 . S
C1072 C1073 1.370 1_545 S
C1072 C1074 1.363 . S
C1072 H1088 0.931 1_545 S
C1073 C1072 1.370 1_565 S
C1073 C1077 1.408 1_565 S
C1074 C1072 1.363 . S
C1074 C1075 1.370 . S
C1074 C1078 1.524 . S
C1075 C1067 1.503 . S
C1075 C1074 1.370 . S
C1075 C1076 1.403 . S
C1076 C1075 1.403 . S
C1076 C1077 1.404 . S
C1076 C1079 1.539 . S
C1077 C1073 1.408 1_545 S
C1077 C1076 1.404 . S
C1077 H1089 0.930 1_545 S
C1078 C1074 1.524 . S
C1078 H1090 0.956 . S
C1078 H1091 0.961 . S
C1078 H1092 0.961 . S
C1079 C1076 1.539 . S
C1079 H1093 0.958 . S
C1079 H1094 0.961 . S
C1079 H1095 0.960 . S
H1080 C1064 0.931 . S
H1081 C1069 0.929 . S
H1082 C1070 0.960 . S
H1083 C1070 0.962 . S
H1084 C1070 0.960 . S
H1085 C1071 0.961 . S
H1086 C1071 0.961 . S
H1087 C1071 0.961 . S
H1088 C1072 0.931 1_565 S
H1089 C1077 0.930 1_565 S
H1090 C1078 0.956 . S
H1091 C1078 0.961 . S
H1092 C1078 0.961 . S
H1093 C1079 0.958 . S
H1094 C1079 0.961 . S
H1095 C1079 0.960 . S
C1096 C1097 1.391 . S
C1096 C1098 1.394 . S
C1096 H1112 0.931 . S
C1097 C1096 1.391 . S
C1097 C1101 1.376 . S
C1098 C1096 1.394 . S
C1098 C1099 1.369 . S
C1098 C1102 1.531 . S
C1099 C1098 1.369 . S
C1099 C1100 1.410 . S
C1099 C1107 1.503 . S
C1100 C1099 1.410 . S
C1100 C1101 1.392 . S
C1100 C1103 1.511 . S
C1101 C1097 1.376 . S
C1101 C1100 1.392 . S
C1101 H1113 0.929 . S
C1102 C1098 1.531 . S
C1102 H1114 0.960 . S
C1102 H1115 0.962 . S
C1102 H1116 0.960 . S
C1103 C1100 1.511 . S
C1103 H1117 0.961 . S
C1103 H1118 0.961 . S
C1103 H1119 0.961 . S
C1104 C1105 1.370 . S
C1104 C1106 1.363 . S
C1104 H1120 0.931 . S
C1105 C1104 1.370 . S
C1105 C1109 1.408 . S
C1106 C1104 1.363 . S
C1106 C1107 1.370 . S
C1106 C1110 1.524 . S
C1107 C1099 1.503 . S
C1107 C1106 1.370 . S
C1107 C1108 1.403 . S
C1108 C1107 1.403 . S
C1108 C1109 1.404 . S
C1108 C1111 1.539 . S
C1109 C1105 1.408 . S
C1109 C1108 1.404 . S
C1109 H1121 0.930 . S
C1110 C1106 1.524 . S
C1110 H1122 0.956 . S
C1110 H1123 0.961 . S
C1110 H1124 0.961 . S
C1111 C1108 1.539 . S
C1111 H1125 0.958 . S
C1111 H1126 0.961 . S
C1111 H1127 0.960 . S
H1112 C1096 0.931 . S
H1113 C1101 0.929 . S
H1114 C1102 0.960 . S
H1115 C1102 0.962 . S
H1116 C1102 0.960 . S
H1117 C1103 0.961 . S
H1118 C1103 0.961 . S
H1119 C1103 0.961 . S
H1120 C1104 0.931 . S
H1121 C1109 0.930 . S
H1122 C1110 0.956 . S
H1123 C1110 0.961 . S
H1124 C1110 0.961 . S
H1125 C1111 0.958 . S
H1126 C1111 0.961 . S
H1127 C1111 0.960 . S
C1128 C1129 1.391 . S
C1128 C1130 1.394 . S
C1128 H1144 0.931 . S
C1129 C1128 1.391 . S
C1129 C1133 1.376 . S
C1130 C1128 1.394 . S
C1130 C1131 1.369 . S
C1130 C1134 1.531 . S
C1131 C1130 1.369 . S
C1131 C1132 1.410 . S
C1131 C1139 1.503 . S
C1132 C1131 1.410 . S
C1132 C1133 1.392 . S
C1132 C1135 1.511 . S
C1133 C1129 1.376 . S
C1133 C1132 1.392 . S
C1133 H1145 0.929 . S
C1134 C1130 1.531 . S
C1134 H1146 0.960 . S
C1134 H1147 0.962 . S
C1134 H1148 0.960 . S
C1135 C1132 1.511 . S
C1135 H1149 0.961 . S
C1135 H1150 0.961 . S
C1135 H1151 0.961 . S
C1136 C1137 1.370 . S
C1136 C1138 1.363 . S
C1136 H1152 0.931 . S
C1137 C1136 1.370 . S
C1137 C1141 1.408 . S
C1138 C1136 1.363 . S
C1138 C1139 1.370 . S
C1138 C1142 1.524 . S
C1139 C1131 1.503 . S
C1139 C1138 1.370 . S
C1139 C1140 1.403 . S
C1140 C1139 1.403 . S
C1140 C1141 1.404 . S
C1140 C1143 1.539 . S
C1141 C1137 1.408 . S
C1141 C1140 1.404 . S
C1141 H1153 0.930 . S
C1142 C1138 1.524 . S
C1142 H1154 0.956 . S
C1142 H1155 0.961 . S
C1142 H1156 0.961 . S
C1143 C1140 1.539 . S
C1143 H1157 0.958 . S
C1143 H1158 0.961 . S
C1143 H1159 0.960 . S
H1144 C1128 0.931 . S
H1145 C1133 0.929 . S
H1146 C1134 0.960 . S
H1147 C1134 0.962 . S
H1148 C1134 0.960 . S
H1149 C1135 0.961 . S
H1150 C1135 0.961 . S
H1151 C1135 0.961 . S
H1152 C1136 0.931 . S
H1153 C1141 0.930 . S
H1154 C1142 0.956 . S
H1155 C1142 0.961 . S
H1156 C1142 0.961 . S
H1157 C1143 0.958 . S
H1158 C1143 0.961 . S
H1159 C1143 0.960 . S
C1160 C1161 1.391 . S
C1160 C1162 1.394 . S
C1160 H1176 0.931 . S
C1161 C1160 1.391 . S
C1161 C1165 1.376 . S
C1162 C1160 1.394 . S
C1162 C1163 1.369 . S
C1162 C1166 1.531 . S
C1163 C1162 1.369 . S
C1163 C1164 1.410 . S
C1163 C1171 1.503 . S
C1164 C1163 1.410 . S
C1164 C1165 1.392 . S
C1164 C1167 1.511 . S
C1165 C1161 1.376 . S
C1165 C1164 1.392 . S
C1165 H1177 0.929 . S
C1166 C1162 1.531 . S
C1166 H1178 0.960 . S
C1166 H1179 0.962 . S
C1166 H1180 0.960 . S
C1167 C1164 1.511 . S
C1167 H1181 0.961 . S
C1167 H1182 0.961 . S
C1167 H1183 0.961 . S
C1168 C1169 1.370 . S
C1168 C1170 1.363 . S
C1168 H1184 0.931 . S
C1169 C1168 1.370 . S
C1169 C1173 1.408 . S
C1170 C1168 1.363 . S
C1170 C1171 1.370 . S
C1170 C1174 1.524 . S
C1171 C1163 1.503 . S
C1171 C1170 1.370 . S
C1171 C1172 1.403 . S
C1172 C1171 1.403 . S
C1172 C1173 1.404 . S
C1172 C1175 1.539 . S
C1173 C1169 1.408 . S
C1173 C1172 1.404 . S
C1173 H1185 0.930 . S
C1174 C1170 1.524 . S
C1174 H1186 0.956 . S
C1174 H1187 0.961 . S
C1174 H1188 0.961 . S
C1175 C1172 1.539 . S
C1175 H1189 0.958 . S
C1175 H1190 0.961 . S
C1175 H1191 0.960 . S
H1176 C1160 0.931 . S
H1177 C1165 0.929 . S
H1178 C1166 0.960 . S
H1179 C1166 0.962 . S
H1180 C1166 0.960 . S
H1181 C1167 0.961 . S
H1182 C1167 0.961 . S
H1183 C1167 0.961 . S
H1184 C1168 0.931 . S
H1185 C1173 0.930 . S
H1186 C1174 0.956 . S
H1187 C1174 0.961 . S
H1188 C1174 0.961 . S
H1189 C1175 0.958 . S
H1190 C1175 0.961 . S
H1191 C1175 0.960 . S
C1192 C1193 1.391 . S
C1192 C1194 1.394 . S
C1192 H1208 0.931 . S
C1193 C1192 1.391 . S
C1193 C1197 1.376 . S
C1194 C1192 1.394 . S
C1194 C1195 1.369 . S
C1194 C1198 1.531 . S
C1195 C1194 1.369 . S
C1195 C1196 1.410 . S
C1195 C1203 1.503 . S
C1196 C1195 1.410 . S
C1196 C1197 1.392 . S
C1196 C1199 1.511 . S
C1197 C1193 1.376 . S
C1197 C1196 1.392 . S
C1197 H1209 0.929 . S
C1198 C1194 1.531 . S
C1198 H1210 0.960 . S
C1198 H1211 0.962 . S
C1198 H1212 0.960 . S
C1199 C1196 1.511 . S
C1199 H1213 0.961 . S
C1199 H1214 0.961 . S
C1199 H1215 0.961 . S
C1200 C1201 1.370 . S
C1200 C1202 1.363 . S
C1200 H1216 0.931 . S
C1201 C1200 1.370 . S
C1201 C1205 1.408 . S
C1202 C1200 1.363 . S
C1202 C1203 1.370 . S
C1202 C1206 1.524 . S
C1203 C1195 1.503 . S
C1203 C1202 1.370 . S
C1203 C1204 1.403 . S
C1204 C1203 1.403 . S
C1204 C1205 1.404 . S
C1204 C1207 1.539 . S
C1205 C1201 1.408 . S
C1205 C1204 1.404 . S
C1205 H1217 0.930 . S
C1206 C1202 1.524 . S
C1206 H1218 0.956 . S
C1206 H1219 0.961 . S
C1206 H1220 0.961 . S
C1207 C1204 1.539 . S
C1207 H1221 0.958 . S
C1207 H1222 0.961 . S
C1207 H1223 0.960 . S
H1208 C1192 0.931 . S
H1209 C1197 0.929 . S
H1210 C1198 0.960 . S
H1211 C1198 0.962 . S
H1212 C1198 0.960 . S
H1213 C1199 0.961 . S
H1214 C1199 0.961 . S
H1215 C1199 0.961 . S
H1216 C1200 0.931 . S
H1217 C1205 0.930 . S
H1218 C1206 0.956 . S
H1219 C1206 0.961 . S
H1220 C1206 0.961 . S
H1221 C1207 0.958 . S
H1222 C1207 0.961 . S
H1223 C1207 0.960 . S
C361 C9 1.383 . S
C369 C18 1.349 . S
C393 C49 1.345 . S
C401 C58 1.363 . S
C425 C89 1.330 . S
C433 C98 1.370 . S
C457 C138 1.375 . S
C465 C129 1.351 1_556 S
C489 C178 1.330 . S
C497 C169 1.371 1_556 S
C521 C218 1.345 . S
C529 C209 1.366 1_556 S
C553 C259 1.252 . S
C561 C250 1.294 . S
C585 C299 1.328 . S
C593 C290 1.266 . S
C617 C339 1.299 . S
C625 C330 1.274 . S
C649 C210 2.606 . S
C657 C6 2.555 . S
C681 C46 2.570 . S
C689 C130 2.609 . S
C713 C86 2.545 1_565 S
C721 C170 2.611 . S
C745 C90 2.176 . S
C753 C249 2.305 . S
C777 C289 2.311 . S
C785 C10 2.185 . S
C809 C329 2.315 . S
C817 C50 2.181 . S
C841 C326 1.046 . S
C849 C15 1.030 . S
C873 C55 1.049 . S
C881 C246 1.034 . S
C905 C286 1.018 . S
C913 C95 1.037 . S
C937 C99 2.598 . S
C945 C135 2.558 . S
C969 C175 2.548 . S
C977 C19 2.616 . S
C1001 C59 2.604 . S
C1009 C215 2.566 . S
C1033 C335 1.028 . S
C1041 C126 1.039 . S
C1065 C255 1.008 . S
C1073 C166 1.035 . S
C1097 C295 1.004 . S
C1105 C206 1.027 . S
C1129 C258 2.317 . S
C1137 C219 2.169 . S
C1161 C139 2.181 . S
C1169 C298 2.316 . S
C1193 C338 2.319 . S
C1201 C179 2.178 . S
