# Generated by pormake.
# Topology uou, (4)-cn, num edge types: 1
# Building blocks:
#     Node 0, Type 0, BuildingBlock: CEKHIL_clean_sbu_0, # of connection points: 4
#     Node 1, Type 0, BuildingBlock: CEKHIL_clean_sbu_0, # of connection points: 4
#     Node 2, Type 0, BuildingBlock: CEKHIL_clean_sbu_0, # of connection points: 4
#     Node 3, Type 0, BuildingBlock: CEKHIL_clean_sbu_0, # of connection points: 4
#     Node 4, Type 0, BuildingBlock: CEKHIL_clean_sbu_0, # of connection points: 4
#     Node 5, Type 0, BuildingBlock: CEKHIL_clean_sbu_0, # of connection points: 4
#     Node 6, Type 0, BuildingBlock: CEKHIL_clean_sbu_0, # of connection points: 4
#     Node 7, Type 0, BuildingBlock: CEKHIL_clean_sbu_0, # of connection points: 4
#     Node 8, Type 0, BuildingBlock: CEKHIL_clean_sbu_0, # of connection points: 4
#     Node 9, Type 0, BuildingBlock: CEKHIL_clean_sbu_0, # of connection points: 4
#     Node 10, Type 0, BuildingBlock: CEKHIL_clean_sbu_0, # of connection points: 4
#     Node 11, Type 0, BuildingBlock: CEKHIL_clean_sbu_0, # of connection points: 4
#     Node 12, Type 0, BuildingBlock: CEKHIL_clean_sbu_0, # of connection points: 4
#     Node 13, Type 0, BuildingBlock: CEKHIL_clean_sbu_0, # of connection points: 4
#     Node 14, Type 0, BuildingBlock: CEKHIL_clean_sbu_0, # of connection points: 4
#     Node 15, Type 0, BuildingBlock: CEKHIL_clean_sbu_0, # of connection points: 4
#     Edge 16, Type (0, 0), BuildingBlock: EZIPEK_clean_linker_0, # of connection points: 2
#     Edge 17, Type (0, 0), BuildingBlock: EZIPEK_clean_linker_0, # of connection points: 2
#     Edge 18, Type (0, 0), BuildingBlock: EZIPEK_clean_linker_0, # of connection points: 2
#     Edge 19, Type (0, 0), BuildingBlock: EZIPEK_clean_linker_0, # of connection points: 2
#     Edge 20, Type (0, 0), BuildingBlock: EZIPEK_clean_linker_0, # of connection points: 2
#     Edge 21, Type (0, 0), BuildingBlock: EZIPEK_clean_linker_0, # of connection points: 2
#     Edge 22, Type (0, 0), BuildingBlock: EZIPEK_clean_linker_0, # of connection points: 2
#     Edge 23, Type (0, 0), BuildingBlock: EZIPEK_clean_linker_0, # of connection points: 2
#     Edge 24, Type (0, 0), BuildingBlock: EZIPEK_clean_linker_0, # of connection points: 2
#     Edge 25, Type (0, 0), BuildingBlock: EZIPEK_clean_linker_0, # of connection points: 2
#     Edge 26, Type (0, 0), BuildingBlock: EZIPEK_clean_linker_0, # of connection points: 2
#     Edge 27, Type (0, 0), BuildingBlock: EZIPEK_clean_linker_0, # of connection points: 2
#     Edge 28, Type (0, 0), BuildingBlock: EZIPEK_clean_linker_0, # of connection points: 2
#     Edge 29, Type (0, 0), BuildingBlock: EZIPEK_clean_linker_0, # of connection points: 2
#     Edge 30, Type (0, 0), BuildingBlock: EZIPEK_clean_linker_0, # of connection points: 2
#     Edge 31, Type (0, 0), BuildingBlock: EZIPEK_clean_linker_0, # of connection points: 2
#     Edge 32, Type (0, 0), BuildingBlock: EZIPEK_clean_linker_0, # of connection points: 2
#     Edge 33, Type (0, 0), BuildingBlock: EZIPEK_clean_linker_0, # of connection points: 2
#     Edge 34, Type (0, 0), BuildingBlock: EZIPEK_clean_linker_0, # of connection points: 2
#     Edge 35, Type (0, 0), BuildingBlock: EZIPEK_clean_linker_0, # of connection points: 2
#     Edge 36, Type (0, 0), BuildingBlock: EZIPEK_clean_linker_0, # of connection points: 2
#     Edge 37, Type (0, 0), BuildingBlock: EZIPEK_clean_linker_0, # of connection points: 2
#     Edge 38, Type (0, 0), BuildingBlock: EZIPEK_clean_linker_0, # of connection points: 2
#     Edge 39, Type (0, 0), BuildingBlock: EZIPEK_clean_linker_0, # of connection points: 2
#     Edge 40, Type (0, 0), BuildingBlock: EZIPEK_clean_linker_0, # of connection points: 2
#     Edge 41, Type (0, 0), BuildingBlock: EZIPEK_clean_linker_0, # of connection points: 2
#     Edge 42, Type (0, 0), BuildingBlock: EZIPEK_clean_linker_0, # of connection points: 2
#     Edge 43, Type (0, 0), BuildingBlock: EZIPEK_clean_linker_0, # of connection points: 2
#     Edge 44, Type (0, 0), BuildingBlock: EZIPEK_clean_linker_0, # of connection points: 2
#     Edge 45, Type (0, 0), BuildingBlock: EZIPEK_clean_linker_0, # of connection points: 2
#     Edge 46, Type (0, 0), BuildingBlock: EZIPEK_clean_linker_0, # of connection points: 2
#     Edge 47, Type (0, 0), BuildingBlock: EZIPEK_clean_linker_0, # of connection points: 2
# Relax obj value: 0.039
# Max RMSD: 0.066
# Mean RMSD: 0.066
data_MOF--net-uou--node1-CEKHIL_clean_sbu_0--edge1-EZIPEK_clean_linker_0
_symmetry_space_group_name_H-M    P1
_symmetry_Int_Tables_number       1
_symmetry_cell_setting            triclinic
loop_
_symmetry_equiv_pos_as_xyz
'x, y, z'
_cell_length_a     27.457494
_cell_length_b     29.586476
_cell_length_c     38.626517
_cell_angle_alpha  89.973994
_cell_angle_beta   89.962113
_cell_angle_gamma 90.002509
loop_
_atom_site_label
_atom_site_type_symbol
_atom_site_fract_x
_atom_site_fract_y
_atom_site_fract_z
_atom_type_partial_charge
Co0 Co 0.08523 0.06817 0.12599 0.0
O1 O 0.12214 0.0126 0.13091 0.0
O2 O 0.15265 0.07748 0.11259 0.0
C3 C 0.04674 0.06464 0.17822 0.0
O4 O 0.06166 0.13338 0.11931 0.0
Co5 Co 0.97354 0.06957 0.12261 0.0
O6 O 0.97992 0.1361 0.11887 0.0
C7 C 0.02731 0.03732 0.06274 0.0
C8 C 0.15989 0.03531 0.12043 0.0
C9 C 0.02125 0.15536 0.11746 0.0
O10 O 0.06729 0.05117 0.07665 0.0
O11 O 0.98629 0.03763 0.07823 0.0
O12 O 0.09101 0.07977 0.17561 0.0
O13 O 0.02848 0.04828 0.15 0.0
Co14 Co 0.43261 0.93488 0.13093 0.0
O15 O 0.38983 0.98676 0.13366 0.0
O16 O 0.36851 0.92 0.11281 0.0
C17 C 0.46256 0.93987 0.18515 0.0
O18 O 0.46555 0.87279 0.12604 0.0
Co19 Co 0.54509 0.94601 0.13714 0.0
O20 O 0.54666 0.87932 0.13315 0.0
C21 C 0.49637 0.9719 0.07264 0.0
C22 C 0.3561 0.96114 0.12076 0.0
C23 C 0.50868 0.85544 0.12824 0.0
O24 O 0.45611 0.95445 0.08346 0.0
O25 O 0.53471 0.97543 0.09116 0.0
O26 O 0.42027 0.92161 0.17963 0.0
O27 O 0.48271 0.95872 0.15857 0.0
Co28 Co 0.59142 0.93086 0.37266 0.0
O29 O 0.63165 0.98402 0.36608 0.0
O30 O 0.65673 0.92014 0.38998 0.0
C31 C 0.5585 0.93126 0.31879 0.0
O32 O 0.56331 0.86827 0.38265 0.0
Co33 Co 0.47868 0.93324 0.36842 0.0
O34 O 0.4828 0.86654 0.37225 0.0
C35 C 0.52788 0.96718 0.4308 0.0
C36 C 0.66687 0.96094 0.37987 0.0
C37 C 0.52257 0.84701 0.38024 0.0
O38 O 0.56936 0.95321 0.41949 0.0
O39 O 0.48842 0.96573 0.4133 0.0
O40 O 0.60124 0.91377 0.32411 0.0
O41 O 0.53853 0.95057 0.34518 0.0
Co42 Co 0.93593 0.07009 0.3722 0.0
O43 O 0.89975 0.01403 0.36855 0.0
O44 O 0.87022 0.07776 0.38983 0.0
C45 C 0.96668 0.06683 0.31763 0.0
O46 O 0.95978 0.1353 0.37862 0.0
Co47 Co 0.04852 0.07553 0.36528 0.0
O48 O 0.03751 0.14156 0.36097 0.0
C49 C 1.00397 0.03958 0.42932 0.0
C50 C 0.86271 0.03596 0.38101 0.0
C51 C 0.99753 0.15919 0.37081 0.0
O52 O 0.96133 0.05212 0.41927 0.0
O53 O 0.04236 0.04267 0.41065 0.0
O54 O 0.92297 0.08188 0.3234 0.0
O55 O 0.98931 0.05222 0.34471 0.0
Co56 Co 0.93506 0.94092 0.8661 0.0
O57 O 0.89458 0.99427 0.86401 0.0
O58 O 0.8713 0.9289 0.8862 0.0
C59 C 0.96212 0.9429 0.81099 0.0
O60 O 0.96611 0.87815 0.87084 0.0
Co61 Co 0.04749 0.94984 0.85652 0.0
O62 O 0.04715 0.88333 0.86232 0.0
C63 C 1.00311 0.97806 0.9218 0.0
C64 C 0.86017 0.97028 0.8779 0.0
C65 C 1.00886 0.86018 0.86811 0.0
O66 O 0.96215 0.96052 0.91254 0.0
O67 O 0.04015 0.98134 0.90193 0.0
O68 O 0.91928 0.92671 0.81797 0.0
O69 O 0.9842 0.96225 0.83652 0.0
Co70 Co 0.58581 0.06674 0.8732 0.0
O71 O 0.62851 0.01474 0.87131 0.0
O72 O 0.64988 0.08189 0.89132 0.0
C73 C 0.5566 0.06054 0.81885 0.0
O74 O 0.55277 0.12893 0.87708 0.0
Co75 Co 0.47337 0.05532 0.86645 0.0
O76 O 0.47187 0.12214 0.86878 0.0
C77 C 0.52156 0.03098 0.93155 0.0
C78 C 0.6623 0.0406 0.88383 0.0
C79 C 0.5097 0.14617 0.87386 0.0
O80 O 0.56185 0.04834 0.92076 0.0
O81 O 0.48345 0.02685 0.91284 0.0
O82 O 0.59877 0.0789 0.82448 0.0
O83 O 0.53601 0.04232 0.84553 0.0
Co84 Co 0.4362 0.06518 0.62849 0.0
O85 O 0.39737 0.01131 0.63563 0.0
O86 O 0.37087 0.07396 0.61061 0.0
C87 C 0.46818 0.06705 0.68258 0.0
O88 O 0.46276 0.12821 0.61784 0.0
Co89 Co 0.54873 0.06518 0.63322 0.0
O90 O 0.54366 0.13135 0.62655 0.0
C91 C 0.50141 0.02986 0.57067 0.0
C92 C 0.36166 0.03325 0.6214 0.0
C93 C 0.50329 0.15003 0.61897 0.0
O94 O 0.45933 0.04206 0.5821 0.0
O95 O 0.54083 0.03314 0.58805 0.0
O96 O 0.4251 0.08334 0.67658 0.0
O97 O 0.48917 0.04733 0.65674 0.0
Co98 Co 0.09105 0.92653 0.62421 0.0
O99 O 0.1299 0.98024 0.63178 0.0
O100 O 0.15709 0.91723 0.60774 0.0
C101 C 0.0572 0.92599 0.67763 0.0
O102 O 0.06436 0.86336 0.61364 0.0
Co103 Co 0.97858 0.926 0.62726 0.0
O104 O 0.9855 0.85933 0.62877 0.0
C105 C 0.02813 0.96344 0.56591 0.0
C106 C 0.16614 0.95794 0.61858 0.0
C107 C 0.02516 0.84064 0.61943 0.0
O108 O 0.06969 0.94988 0.57741 0.0
O109 O 0.98824 0.95988 0.58282 0.0
O110 O 0.10023 0.90899 0.67264 0.0
O111 O 0.03726 0.9451 0.65113 0.0
Co112 Co 0.58977 0.57114 0.12311 0.0
O113 O 0.6264 0.51527 0.12625 0.0
O114 O 0.6556 0.57967 0.10593 0.0
C115 C 0.55813 0.5666 0.17726 0.0
O116 O 0.56531 0.63628 0.11735 0.0
Co117 Co 0.4767 0.57556 0.12977 0.0
O118 O 0.48751 0.64149 0.13513 0.0
C119 C 0.5226 0.54036 0.06589 0.0
C120 C 0.66338 0.53771 0.11422 0.0
C121 C 0.52732 0.65966 0.12547 0.0
O122 O 0.5649 0.55402 0.07582 0.0
O123 O 0.4842 0.54249 0.08466 0.0
O124 O 0.60196 0.58184 0.17217 0.0
O125 O 0.53618 0.55243 0.14983 0.0
Co126 Co 0.9354 0.43407 0.12227 0.0
O127 O 0.89476 0.48693 0.12902 0.0
O128 O 0.87038 0.42336 0.10436 0.0
C129 C 0.9673 0.43361 0.17656 0.0
O130 O 0.964 0.37164 0.11209 0.0
Co131 Co 0.04767 0.43698 0.12712 0.0
O132 O 0.04382 0.37008 0.12473 0.0
C133 C 0.99931 0.47277 0.06497 0.0
C134 C 0.85984 0.46392 0.1148 0.0
C135 C 1.00452 0.35033 0.11591 0.0
O136 O 0.95804 0.45743 0.0757 0.0
O137 O 0.03842 0.47146 0.08293 0.0
O138 O 0.9248 0.41607 0.17056 0.0
O139 O 0.98767 0.45358 0.15056 0.0
Co140 Co 0.08812 0.43573 0.36676 0.0
O141 O 0.12998 0.4883 0.36358 0.0
O142 O 0.15302 0.42213 0.38439 0.0
C143 C 0.05794 0.44028 0.31241 0.0
O144 O 0.0563 0.37311 0.37182 0.0
Co145 Co 0.97562 0.44541 0.36089 0.0
O146 O 0.97512 0.37868 0.3646 0.0
C147 C 0.02375 0.4709 0.42573 0.0
C148 C 0.16471 0.4633 0.37587 0.0
C149 C 0.01342 0.35523 0.36947 0.0
O150 O 0.06453 0.45484 0.41451 0.0
O151 O 0.98525 0.47385 0.40732 0.0
O152 O 0.10036 0.42242 0.31806 0.0
O153 O 0.0375 0.45889 0.33899 0.0
Co154 Co 0.43725 0.56733 0.36841 0.0
O155 O 0.39929 0.51241 0.36265 0.0
O156 O 0.37046 0.57675 0.38332 0.0
C157 C 0.47421 0.56576 0.3156 0.0
O158 O 0.46203 0.63179 0.37641 0.0
Co159 Co 0.54937 0.56701 0.36981 0.0
O160 O 0.54386 0.63315 0.37704 0.0
C161 C 0.49683 0.53181 0.42902 0.0
C162 C 0.36241 0.53503 0.37462 0.0
C163 C 0.50286 0.65291 0.37901 0.0
O164 O 0.45681 0.54804 0.41682 0.0
O165 O 0.537 0.53149 0.41249 0.0
O166 O 0.43021 0.58128 0.31916 0.0
O167 O 0.49291 0.54796 0.34312 0.0
Co168 Co 0.42977 0.43094 0.87248 0.0
O169 O 0.39311 0.48667 0.86768 0.0
O170 O 0.36356 0.42296 0.88907 0.0
C171 C 0.46279 0.43382 0.81873 0.0
O172 O 0.45389 0.36591 0.87995 0.0
Co173 Co 0.54278 0.42548 0.86743 0.0
O174 O 0.53192 0.3595 0.86301 0.0
C175 C 0.49571 0.4618 0.93055 0.0
C176 C 0.35606 0.46468 0.88006 0.0
C177 C 0.49181 0.34195 0.87269 0.0
O178 O 0.45327 0.44981 0.91973 0.0
O179 O 0.53486 0.45775 0.91281 0.0
O180 O 0.41896 0.41845 0.82356 0.0
O181 O 0.48418 0.44884 0.84612 0.0
Co182 Co 0.08808 0.577 0.86828 0.0
O183 O 0.12575 0.52207 0.86296 0.0
O184 O 0.15373 0.58546 0.8858 0.0
C185 C 0.05631 0.57635 0.81409 0.0
O186 O 0.06269 0.64109 0.87692 0.0
Co187 Co 0.97578 0.57974 0.8631 0.0
O188 O 0.98406 0.64624 0.86144 0.0
C189 C 0.02188 0.54506 0.92669 0.0
C190 C 0.16213 0.54405 0.8763 0.0
C191 C 0.02396 0.66435 0.8709 0.0
O192 O 0.06428 0.55637 0.91526 0.0
O193 O 0.98263 0.54896 0.9091 0.0
O194 O 0.09967 0.59231 0.81959 0.0
O195 O 0.03483 0.55867 0.84061 0.0
Co196 Co 0.9308 0.56548 0.62583 0.0
O197 O 0.888 0.51364 0.62988 0.0
O198 O 0.86642 0.57951 0.60763 0.0
C199 C 0.96105 0.56298 0.68027 0.0
O200 O 0.96345 0.62748 0.61971 0.0
Co201 Co 0.04314 0.55442 0.63181 0.0
O202 O 0.04463 0.62093 0.62628 0.0
C203 C 0.99485 0.52741 0.56753 0.0
C204 C 0.85402 0.53876 0.6167 0.0
C205 C 1.00662 0.64479 0.6214 0.0
O206 O 0.95435 0.54444 0.57847 0.0
O207 O 0.03329 0.52452 0.58599 0.0
O208 O 0.9186 0.5806 0.6743 0.0
O209 O 0.98108 0.5429 0.65415 0.0
Co210 Co 0.58321 0.43143 0.6275 0.0
O211 O 0.61996 0.48719 0.63251 0.0
O212 O 0.65001 0.42317 0.61226 0.0
C213 C 0.54688 0.433 0.68052 0.0
O214 O 0.56014 0.36626 0.62015 0.0
Co215 Co 0.47104 0.42846 0.62702 0.0
O216 O 0.47842 0.36263 0.61906 0.0
C217 C 0.52161 0.46497 0.56727 0.0
C218 C 0.65736 0.46511 0.62065 0.0
C219 C 0.52005 0.34402 0.61732 0.0
O220 O 0.56238 0.44994 0.57916 0.0
O221 O 0.48168 0.46402 0.5841 0.0
O222 O 0.59126 0.41845 0.67687 0.0
O223 O 0.52731 0.4498 0.65295 0.0
C224 C 0.27482 0.97264 0.14893 0.0
C225 C 0.30467 0.97695 0.11914 0.0
C226 C 0.23745 0.01476 0.08856 0.0
C227 C 0.20959 0.01478 0.11963 0.0
N228 N 0.20622 0.00185 0.1813 0.0
N229 N 0.31706 0.00621 0.06165 0.0
C230 C 0.22934 0.99563 0.15031 0.0
C231 C 0.28672 0.99919 0.0892 0.0
N232 N 0.28971 0.94616 0.17594 0.0
N233 N 0.21626 0.02798 0.05819 0.0
H234 H 0.35268 0.99393 0.06088 0.0
H235 H 0.30811 0.02664 0.04064 0.0
H236 H 0.18018 0.03882 0.05664 0.0
H237 H 0.23291 0.0245 0.03412 0.0
H238 H 0.26729 0.93773 0.19672 0.0
H239 H 0.32294 0.92911 0.17605 0.0
H240 H 0.22138 0.99284 0.20503 0.0
H241 H 0.17417 0.0204 0.18382 0.0
C242 C 0.73731 0.99594 0.41221 0.0
C243 C 0.71745 0.97895 0.38089 0.0
C244 C 0.79135 0.00181 0.34963 0.0
C245 C 0.81291 0.01577 0.38135 0.0
N246 N 0.80945 0.02036 0.44357 0.0
N247 N 0.72844 0.95815 0.32108 0.0
C248 C 0.78665 0.01136 0.41289 0.0
C249 C 0.74536 0.97968 0.35 0.0
N250 N 0.70859 0.99842 0.44107 0.0
N251 N 0.81356 0.01178 0.31886 0.0
H252 H 0.6947 0.94205 0.3201 0.0
H253 H 0.74952 0.95279 0.29903 0.0
H254 H 0.84682 0.02852 0.31712 0.0
H255 H 0.79696 0.0073 0.29487 0.0
H256 H 0.71888 0.01494 0.46369 0.0
H257 H 0.67277 0.98661 0.44158 0.0
H258 H 0.7942 0.01347 0.46768 0.0
H259 H 0.84548 0.03141 0.44498 0.0
C260 C 0.78773 0.0084 0.85075 0.0
C261 C 0.80937 0.9883 0.88045 0.0
C262 C 0.7333 0.00139 0.9129 0.0
C263 C 0.71398 0.02533 0.88418 0.0
N264 N 0.72681 0.05966 0.82829 0.0
N265 N 0.80549 0.97222 0.94163 0.0
C266 C 0.74256 0.03145 0.85397 0.0
C267 C 0.78284 0.98642 0.91208 0.0
N268 N 0.80865 0.0031 0.81887 0.0
N269 N 0.70412 0.99242 0.94074 0.0
H270 H 0.84181 0.96197 0.94218 0.0
H271 H 0.78968 0.97431 0.96609 0.0
H272 H 0.66841 0.00427 0.94258 0.0
H273 H 0.71416 0.97086 0.96082 0.0
H274 H 0.79178 0.01294 0.79592 0.0
H275 H 0.84018 0.98427 0.81471 0.0
H276 H 0.74851 0.06919 0.80739 0.0
H277 H 0.69391 0.07714 0.82956 0.0
C278 C 0.23974 0.98508 0.65103 0.0
C279 C 0.21641 0.97682 0.61883 0.0
C280 C 0.28996 0.00236 0.58805 0.0
C281 C 0.31162 0.01397 0.62022 0.0
N282 N 0.30425 0.02357 0.68202 0.0
N283 N 0.21621 0.98277 0.55664 0.0
C284 C 0.28573 0.00723 0.65163 0.0
C285 C 0.24074 0.98675 0.58727 0.0
N286 N 0.21884 0.97011 0.68107 0.0
N287 N 0.317 0.00489 0.55838 0.0
H288 H 0.18035 0.97127 0.55514 0.0
H289 H 0.22988 0.99403 0.53302 0.0
H290 H 0.3529 0.01646 0.55801 0.0
H291 H 0.30535 0.99237 0.5346 0.0
H292 H 0.23657 0.97035 0.70489 0.0
H293 H 0.18532 0.95363 0.68188 0.0
H294 H 0.28461 0.02456 0.70507 0.0
H295 H 0.33782 0.03987 0.6837 0.0
C296 C 0.78971 0.50032 0.08296 0.0
C297 C 0.8091 0.48158 0.11385 0.0
C298 C 0.73447 0.50225 0.14513 0.0
C299 C 0.71334 0.51781 0.1137 0.0
N300 N 0.71786 0.52557 0.05168 0.0
N301 N 0.79706 0.45721 0.17279 0.0
C302 C 0.74022 0.51529 0.08229 0.0
C303 C 0.78058 0.48032 0.14445 0.0
N304 N 0.819 0.50482 0.05454 0.0
N305 N 0.71181 0.51056 0.17602 0.0
H306 H 0.83086 0.4412 0.17354 0.0
H307 H 0.77556 0.45047 0.19441 0.0
H308 H 0.67857 0.5273 0.17803 0.0
H309 H 0.72807 0.50479 0.19997 0.0
H310 H 0.80898 0.52269 0.03244 0.0
H311 H 0.85493 0.49334 0.05399 0.0
H312 H 0.73369 0.52009 0.02755 0.0
H313 H 0.68166 0.53613 0.05024 0.0
C314 C 0.28491 0.51375 0.34426 0.0
C315 C 0.31239 0.5154 0.37531 0.0
C316 C 0.24262 0.48391 0.4075 0.0
C317 C 0.21624 0.47971 0.37601 0.0
N318 N 0.21618 0.48193 0.31352 0.0
N319 N 0.32081 0.49646 0.43561 0.0
C320 C 0.23847 0.49231 0.34415 0.0
C321 C 0.2922 0.49882 0.40672 0.0
N322 N 0.3026 0.53385 0.31494 0.0
N323 N 0.21968 0.47542 0.43823 0.0
H324 H 0.35682 0.50775 0.43599 0.0
H325 H 0.31025 0.48038 0.45838 0.0
H326 H 0.18364 0.46442 0.43971 0.0
H327 H 0.23495 0.4824 0.4623 0.0
H328 H 0.2819 0.53879 0.29268 0.0
H329 H 0.33684 0.54901 0.31366 0.0
H330 H 0.23288 0.48553 0.28947 0.0
H331 H 0.18268 0.46555 0.3121 0.0
C332 C 0.23383 0.50761 0.84689 0.0
C333 C 0.21191 0.52386 0.87781 0.0
C334 C 0.28645 0.50448 0.9101 0.0
C335 C 0.30625 0.48458 0.87979 0.0
N336 N 0.29537 0.45992 0.82079 0.0
N337 N 0.21421 0.53168 0.93993 0.0
C338 C 0.27888 0.48399 0.84863 0.0
C339 C 0.23745 0.52082 0.90975 0.0
N340 N 0.21294 0.51675 0.81551 0.0
N341 N 0.3148 0.50853 0.939 0.0
H342 H 0.17826 0.54302 0.94073 0.0
H343 H 0.22898 0.52583 0.96434 0.0
H344 H 0.35032 0.49606 0.94027 0.0
H345 H 0.30456 0.52706 0.96073 0.0
H346 H 0.22997 0.51018 0.79195 0.0
H347 H 0.18075 0.53507 0.81278 0.0
H348 H 0.27441 0.4538 0.79882 0.0
H349 H 0.32835 0.44254 0.82082 0.0
C350 C 0.73305 0.48687 0.58694 0.0
C351 C 0.70692 0.48597 0.61877 0.0
C352 C 0.77413 0.52677 0.64692 0.0
C353 C 0.80237 0.52315 0.61626 0.0
N354 N 0.81116 0.49585 0.55793 0.0
N355 N 0.70693 0.49731 0.68066 0.0
C356 C 0.78248 0.50212 0.58645 0.0
C357 C 0.7285 0.5041 0.64917 0.0
N358 N 0.71006 0.47479 0.55697 0.0
N359 N 0.7906 0.55249 0.67386 0.0
H360 H 0.67464 0.47926 0.68377 0.0
H361 H 0.72351 0.50541 0.70409 0.0
H362 H 0.8238 0.56953 0.67325 0.0
H363 H 0.76938 0.56045 0.69538 0.0
H364 H 0.72536 0.47894 0.53251 0.0
H365 H 0.67382 0.46425 0.55626 0.0
H366 H 0.80083 0.47626 0.53679 0.0
H367 H 0.84684 0.50787 0.55639 0.0
C368 C 0.97306 0.09681 0.2568 0.0
C369 C 0.98787 0.06471 0.28196 0.0
C370 C 0.04194 0.03072 0.23822 0.0
C371 C 0.02248 0.06006 0.21265 0.0
N372 N 0.95375 0.10628 0.19677 0.0
N373 N 0.02604 0.9918 0.29209 0.0
C374 C 0.9831 0.0885 0.22157 0.0
C375 C 0.01972 0.02901 0.27161 0.0
N376 N 0.95163 0.13652 0.26625 0.0
N377 N 0.08049 0.00342 0.23044 0.0
H378 H 1.00672 0.98628 0.31488 0.0
H379 H 0.04572 0.96351 0.28419 0.0
H380 H 0.09447 1.00042 0.20544 0.0
H381 H 0.09975 0.98548 0.2492 0.0
H382 H 0.94334 0.16188 0.24842 0.0
H383 H 0.94877 0.14659 0.29194 0.0
H384 H 0.92247 0.12483 0.20257 0.0
H385 H 0.95738 0.09727 0.17104 0.0
C386 C 0.5064 0.97724 0.23458 0.0
C387 C 0.48715 0.93734 0.21933 0.0
C388 C 0.51276 0.89357 0.27012 0.0
C389 C 0.53555 0.93263 0.28395 0.0
N390 N 0.56143 0.00988 0.27681 0.0
N391 N 0.47758 0.85604 0.22048 0.0
C392 C 0.53454 0.97396 0.2654 0.0
C393 C 0.49162 0.89511 0.23658 0.0
N394 N 0.49547 0.01859 0.22079 0.0
N395 N 0.51029 0.85511 0.28945 0.0
H396 H 0.46292 0.85496 0.19568 0.0
H397 H 0.48483 0.82389 0.23013 0.0
H398 H 0.52776 0.85234 0.31305 0.0
H399 H 0.48857 0.82738 0.28339 0.0
H400 H 0.50408 0.04904 0.23284 0.0
H401 H 0.47336 0.02276 0.19909 0.0
H402 H 0.56659 0.03925 0.26239 0.0
H403 H 0.58226 0.00886 0.29938 0.0
C404 C 0.03312 0.9716 0.72931 0.0
C405 C 0.0348 0.92904 0.71252 0.0
C406 C 0.98937 0.89459 0.76066 0.0
C407 C 0.98523 0.93794 0.7764 0.0
N408 N 0.99363 0.01894 0.77203 0.0
N409 N 0.01338 0.85028 0.7106 0.0
C410 C 1.00468 0.97678 0.75979 0.0
C411 C 0.01256 0.89059 0.72778 0.0
N412 N 0.06007 0.00684 0.71669 0.0
N413 N 0.97298 0.85696 0.77768 0.0
H414 H 0.03399 0.84537 0.6884 0.0
H415 H 0.99252 0.82226 0.7173 0.0
H416 H 0.95667 0.8578 0.80196 0.0
H417 H 0.97881 0.824 0.7693 0.0
H418 H 0.06483 0.03718 0.72991 0.0
H419 H 0.08151 0.00436 0.69447 0.0
H420 H 1.00229 0.04864 0.75893 0.0
H421 H 0.97132 0.0244 0.79348 0.0
C422 C 0.51357 0.10455 0.73143 0.0
C423 C 0.48952 0.066 0.71791 0.0
C424 C 0.51275 0.02267 0.76947 0.0
C425 C 0.53286 0.06246 0.78435 0.0
N426 N 0.54476 0.14347 0.78167 0.0
N427 N 0.45868 0.99053 0.7264 0.0
C428 C 0.53127 0.10401 0.76592 0.0
C429 C 0.48678 0.02571 0.73769 0.0
N430 N 0.52079 0.14144 0.71096 0.0
N431 N 0.52094 0.9815 0.78448 0.0
H432 H 0.43963 0.99127 0.70304 0.0
H433 H 0.45087 0.96229 0.74153 0.0
H434 H 0.54161 0.97731 0.80687 0.0
H435 H 0.51158 0.95097 0.77284 0.0
H436 H 0.54345 0.16836 0.71745 0.0
H437 H 0.50703 0.14322 0.6861 0.0
H438 H 0.53921 0.17525 0.77079 0.0
H439 H 0.55656 0.14538 0.80721 0.0
C440 C 0.50177 0.53081 0.22221 0.0
C441 C 0.53516 0.56552 0.21233 0.0
C442 C 0.53804 0.59011 0.27242 0.0
C443 C 0.49784 0.56233 0.28092 0.0
N444 N 0.4379 0.50797 0.26195 0.0
N445 N 0.57134 0.63734 0.22793 0.0
C446 C 0.47812 0.5336 0.25505 0.0
C447 C 0.5493 0.5979 0.23736 0.0
N448 N 0.49516 0.49352 0.2019 0.0
N449 N 0.56705 0.60779 0.29742 0.0
H450 H 0.57497 0.64706 0.20221 0.0
H451 H 0.57923 0.66289 0.24568 0.0
H452 H 0.5624 0.59947 0.32315 0.0
H453 H 0.59885 0.62573 0.29189 0.0
H454 H 0.47429 0.46589 0.20965 0.0
H455 H 0.51521 0.48721 0.17956 0.0
H456 H 0.41906 0.49041 0.24278 0.0
H457 H 0.42175 0.5064 0.28637 0.0
C458 C 0.03041 0.39632 0.26015 0.0
C459 C 0.0342 0.43831 0.27783 0.0
C460 C 0.98956 0.47578 0.2307 0.0
C461 C 0.98912 0.43465 0.21186 0.0
N462 N 0.01331 0.3568 0.20679 0.0
N463 N 0.02642 0.5196 0.2767 0.0
C464 C 1.01069 0.39522 0.22613 0.0
C465 C 0.016 0.47848 0.26233 0.0
N466 N 0.04382 0.35707 0.27629 0.0
N467 N 0.96361 0.51203 0.2188 0.0
H468 H 0.04723 0.52337 0.29907 0.0
H469 H 0.01874 0.55025 0.26462 0.0
H470 H 0.94405 0.51146 0.19565 0.0
H471 H 0.95789 0.54125 0.23326 0.0
H472 H 0.03708 0.32501 0.26633 0.0
H473 H 0.0575 0.35574 0.30138 0.0
H474 H 0.03437 0.32876 0.21317 0.0
H475 H 0.99648 0.35422 0.18294 0.0
C476 C 0.54092 0.46755 0.7402 0.0
C477 C 0.52336 0.43636 0.71524 0.0
C478 C 0.47425 0.4 0.75979 0.0
C479 C 0.48623 0.43429 0.78386 0.0
N480 N 0.52189 0.50852 0.79265 0.0
N481 N 0.45792 0.38574 0.70003 0.0
C482 C 0.5174 0.47028 0.77309 0.0
C483 C 0.48531 0.40652 0.72455 0.0
N484 N 0.5789 0.49551 0.73231 0.0
N485 N 0.4544 0.36009 0.77044 0.0
H486 H 0.4624 0.39291 0.67407 0.0
H487 H 0.4274 0.36619 0.70596 0.0
H488 H 0.45086 0.35182 0.79647 0.0
H489 H 0.44824 0.33315 0.75357 0.0
H490 H 0.59667 0.51511 0.75082 0.0
H491 H 0.59427 0.49721 0.70765 0.0
H492 H 0.5408 0.53703 0.78426 0.0
H493 H 0.50203 0.5143 0.81517 0.0
C494 C 0.03201 0.53177 0.76176 0.0
C495 C 0.03447 0.57406 0.7789 0.0
C496 C 0.99071 0.61004 0.7306 0.0
C497 C 0.98555 0.56698 0.71452 0.0
N498 N 0.99225 0.48576 0.71833 0.0
N499 N 0.01569 0.65337 0.78088 0.0
C500 C 1.00402 0.52755 0.73095 0.0
C501 C 0.01366 0.61318 0.7636 0.0
N502 N 0.05771 0.4958 0.77446 0.0
N503 N 0.97542 0.64821 0.71377 0.0
H504 H 0.03657 0.65759 0.80299 0.0
H505 H 0.99577 0.682 0.7743 0.0
H506 H 0.95975 0.64803 0.68928 0.0
H507 H 0.98172 0.68095 0.72245 0.0
H508 H 0.06202 0.4655 0.76111 0.0
H509 H 0.07859 0.49756 0.79698 0.0
H510 H 1.00005 0.45574 0.73125 0.0
H511 H 0.97023 0.48094 0.69666 0.0
C512 C 0.99479 0.22836 0.14308 0.0
C513 C 0.02145 0.20564 0.11705 0.0
C514 C 0.03759 0.2787 0.08909 0.0
C515 C 1.00547 0.30014 0.11297 0.0
N516 N 0.94256 0.29104 0.15664 0.0
N517 N 0.06458 0.20842 0.06273 0.0
C518 C 0.98034 0.27365 0.13788 0.0
C519 C 0.04211 0.23059 0.08931 0.0
N520 N 0.98594 0.20744 0.17393 0.0
N521 N 0.06359 0.30425 0.06614 0.0
H522 H 0.06984 0.17356 0.06268 0.0
H523 H 0.07535 0.22414 0.03985 0.0
H524 H 0.05844 0.33896 0.06344 0.0
H525 H 0.09172 0.2914 0.05096 0.0
H526 H 0.96996 0.22374 0.195 0.0
H527 H 1.00121 0.17614 0.17983 0.0
H528 H 0.92095 0.27117 0.17282 0.0
H529 H 0.92944 0.32377 0.15361 0.0
C530 C 0.54692 0.78253 0.1493 0.0
C531 C 0.51513 0.80524 0.12583 0.0
C532 C 0.49428 0.73183 0.09975 0.0
C533 C 0.5281 0.70992 0.12201 0.0
N534 N 0.59782 0.71733 0.15967 0.0
N535 N 0.46892 0.80185 0.07263 0.0
C536 C 0.55814 0.73617 0.144 0.0
C537 C 0.49155 0.77999 0.09934 0.0
N538 N 0.56452 0.80418 0.17796 0.0
N539 N 0.46502 0.70667 0.0786 0.0
H540 H 0.46794 0.8369 0.07031 0.0
H541 H 0.45552 0.78535 0.05082 0.0
H542 H 0.46916 0.67187 0.07549 0.0
H543 H 0.4353 0.72005 0.06535 0.0
H544 H 0.58294 0.78743 0.19775 0.0
H545 H 0.55641 0.83754 0.18417 0.0
H546 H 0.62343 0.73627 0.1733 0.0
H547 H 0.60845 0.68398 0.15577 0.0
C548 C 0.52773 0.72563 0.35256 0.0
C549 C 0.50356 0.70304 0.37984 0.0
C550 C 0.49203 0.77586 0.4091 0.0
C551 C 0.5218 0.79699 0.38357 0.0
N552 N 0.5803 0.78727 0.33705 0.0
N553 N 0.46672 0.70549 0.43639 0.0
C554 C 0.54385 0.77042 0.35736 0.0
C555 C 0.48662 0.72781 0.40886 0.0
N556 N 0.53255 0.70515 0.32112 0.0
N557 N 0.46915 0.80163 0.43352 0.0
H558 H 0.46119 0.67062 0.43645 0.0
H559 H 0.45845 0.72106 0.45984 0.0
H560 H 0.47499 0.83634 0.43586 0.0
H561 H 0.44283 0.789 0.45036 0.0
H562 H 0.54675 0.72149 0.29943 0.0
H563 H 0.51558 0.67443 0.31578 0.0
H564 H 0.59958 0.76726 0.31955 0.0
H565 H 0.59488 0.81947 0.3401 0.0
C566 C 0.97658 0.28211 0.34762 0.0
C567 C 1.00761 0.30492 0.37154 0.0
C568 C 0.029 0.23146 0.39739 0.0
C569 C 0.99605 0.20939 0.37457 0.0
N570 N 0.92719 0.21625 0.33609 0.0
N571 N 0.05279 0.30154 0.42516 0.0
C572 C 0.9661 0.23551 0.35242 0.0
C573 C 0.03103 0.27966 0.39811 0.0
N574 N 0.95897 0.30398 0.31905 0.0
N575 N 0.05805 0.20636 0.41874 0.0
H576 H 0.05305 0.3366 0.42769 0.0
H577 H 0.0661 0.285 0.44698 0.0
H578 H 0.05435 0.17146 0.42153 0.0
H579 H 0.08718 0.21994 0.43253 0.0
H580 H 0.94129 0.28728 0.2989 0.0
H581 H 0.96631 0.33763 0.31328 0.0
H582 H 0.90149 0.23495 0.32235 0.0
H583 H 0.91719 0.18264 0.33951 0.0
C584 C 0.9927 0.73699 0.89681 0.0
C585 C 0.02532 0.71453 0.87395 0.0
C586 C 0.04464 0.78682 0.84625 0.0
C587 C 0.0144 0.80999 0.87046 0.0
N588 N 0.96987 0.80736 0.92444 0.0
N589 N 0.09288 0.72062 0.83388 0.0
C590 C 0.99115 0.78515 0.89734 0.0
C591 C 0.05488 0.74023 0.85112 0.0
N592 N 0.96334 0.71234 0.91827 0.0
N593 N 0.06146 0.80826 0.81722 0.0
H594 H 0.10193 0.68661 0.83592 0.0
H595 H 0.11863 0.73924 0.82009 0.0
H596 H 0.05415 0.84187 0.8113 0.0
H597 H 0.0783 0.79125 0.79684 0.0
H598 H 0.93444 0.72634 0.93208 0.0
H599 H 0.96632 0.67739 0.92099 0.0
H600 H 0.95688 0.79105 0.94649 0.0
H601 H 0.96965 0.84242 0.92675 0.0
C602 C 0.52338 0.27045 0.90047 0.0
C603 C 0.49055 0.29183 0.87715 0.0
C604 C 0.47242 0.21848 0.85082 0.0
C605 C 0.50314 0.19639 0.87532 0.0
N606 N 0.54662 0.20112 0.92957 0.0
N607 N 0.42216 0.2835 0.83841 0.0
C608 C 0.52561 0.22231 0.90189 0.0
C609 C 0.46119 0.26501 0.85511 0.0
N610 N 0.55217 0.29609 0.92158 0.0
N611 N 0.45591 0.19603 0.8222 0.0
H612 H 0.4115 0.31698 0.84162 0.0
H613 H 0.39702 0.26425 0.8246 0.0
H614 H 0.46422 0.16248 0.81674 0.0
H615 H 0.43827 0.21223 0.80179 0.0
H616 H 0.58112 0.28285 0.93576 0.0
H617 H 0.54856 0.33107 0.92369 0.0
H618 H 0.55929 0.21827 0.95132 0.0
H619 H 0.54669 0.16613 0.93269 0.0
C620 C 0.48451 0.2265 0.64267 0.0
C621 C 0.50316 0.19991 0.61519 0.0
C622 C 0.53491 0.26892 0.58755 0.0
C623 C 0.52095 0.29393 0.61724 0.0
N624 N 0.49926 0.29256 0.67749 0.0
N625 N 0.54958 0.19487 0.56229 0.0
C626 C 0.50054 0.27154 0.64608 0.0
C627 C 0.5296 0.22087 0.58783 0.0
N628 N 0.45131 0.2093 0.66547 0.0
N629 N 0.55224 0.29105 0.55908 0.0
H630 H 0.54373 0.16009 0.56064 0.0
H631 H 0.57356 0.20736 0.54372 0.0
H632 H 0.55862 0.32578 0.55895 0.0
H633 H 0.55805 0.27546 0.53527 0.0
H634 H 0.43418 0.22913 0.68419 0.0
H635 H 0.43698 0.17685 0.66347 0.0
H636 H 0.48798 0.27649 0.70015 0.0
H637 H 0.51629 0.32363 0.68143 0.0
C638 C 0.05465 0.76411 0.63893 0.0
C639 C 0.02563 0.79041 0.61617 0.0
C640 C 0.98973 0.72051 0.59272 0.0
C641 C 0.01301 0.69501 0.61923 0.0
N642 N 0.0612 0.69528 0.67192 0.0
N643 N 0.96441 0.79407 0.57152 0.0
C644 C 0.04402 0.71747 0.64334 0.0
C645 C 0.9927 0.76867 0.59318 0.0
N646 N 0.09252 0.78327 0.6566 0.0
N647 N 0.96696 0.69882 0.566 0.0
H648 H 0.96894 0.82886 0.56848 0.0
H649 H 0.93508 0.78098 0.55769 0.0
H650 H 0.96504 0.6638 0.56398 0.0
H651 H 0.95398 0.7153 0.54405 0.0
H652 H 0.11825 0.76433 0.67012 0.0
H653 H 0.10141 0.81738 0.65531 0.0
H654 H 0.07833 0.7117 0.69244 0.0
H655 H 0.05408 0.66152 0.67739 0.0
C656 C 0.01161 0.03994 0.96542 0.0
C657 C 1.00946 0.99307 0.95798 0.0
C658 C 0.02296 0.97499 0.01919 0.0
C659 C 0.02715 0.02183 0.02639 0.0
N660 N 0.03262 0.09885 0.0065 0.0
N661 N 0.02147 0.91574 0.9758 0.0
C662 C 0.02389 0.0543 -0.00055 0.0
C663 C 0.01741 0.96045 0.98434 0.0
N664 N 1.00006 0.0706 0.94021 0.0
N665 N 0.02348 0.9445 0.04581 0.0
H666 H 0.01753 0.90388 0.95055 0.0
H667 H 0.03236 0.89075 0.99311 0.0
H668 H 0.0305 0.9537 0.07141 0.0
H669 H 0.0145 0.91052 0.04294 0.0
H670 H 0.99589 0.10506 0.94468 0.0
H671 H 0.99086 0.06115 0.91502 0.0
H672 H 0.03592 0.12371 0.98758 0.0
H673 H 0.04027 0.11057 0.03133 0.0
C674 C 0.52876 0.97151 0.97717 0.0
C675 C 0.51751 0.01671 0.96806 0.0
C676 C 0.49202 0.03275 0.02772 0.0
C677 C 0.50024 0.98675 0.03624 0.0
N678 N 0.52111 0.91085 0.01918 0.0
N679 N 0.48448 0.08973 0.98275 0.0
C680 C 0.51709 0.95566 0.01094 0.0
C681 C 0.49807 0.04723 0.99284 0.0
N682 N 0.55159 0.94416 0.95367 0.0
N683 N 0.47953 0.06268 0.0532 0.0
H684 H 0.49028 0.10211 0.95779 0.0
H685 H 0.46509 0.11202 -0.00162 0.0
H686 H 0.47272 0.05281 0.07869 0.0
H687 H 0.47851 0.09755 0.04975 0.0
H688 H 0.56534 0.9123 0.95957 0.0
H689 H 0.56017 0.95469 0.92861 0.0
H690 H 0.528 0.88553 0.00115 0.0
H691 H 0.51415 0.89834 0.04394 0.0
C692 C 0.50354 0.04453 0.50698 0.0
C693 C 0.50571 0.01318 0.5348 0.0
C694 C 0.52342 0.95154 0.49429 0.0
C695 C 0.52411 0.98337 0.4668 0.0
N696 N 0.52208 0.06033 0.44668 0.0
N697 N 0.52201 0.93816 0.55627 0.0
C698 C 0.51603 0.02995 0.47305 0.0
C699 C 0.51702 0.96703 0.52883 0.0
N700 N 0.4894 0.08816 0.51304 0.0
N701 N 0.52691 0.90635 0.48718 0.0
H702 H 0.51433 0.94752 0.58173 0.0
H703 H 0.53609 0.90561 0.55419 0.0
H704 H 0.53306 0.89375 0.46235 0.0
H705 H 0.52077 0.88102 0.50537 0.0
H706 H 0.48188 0.11139 0.49352 0.0
H707 H 0.48191 0.10068 0.53769 0.0
H708 H 0.52175 0.09522 0.45002 0.0
H709 H 0.53152 0.05065 0.42158 0.0
C710 C 0.02586 0.95464 0.50149 0.0
C711 C 0.02528 0.98345 0.53086 0.0
C712 C 0.01243 0.04952 0.49344 0.0
C713 C 1.00954 0.0203 0.46442 0.0
N714 N 1.00725 0.94518 0.44045 0.0
N715 N 0.01431 0.05732 0.55601 0.0
C716 C 0.01476 0.97286 0.46832 0.0
C717 C 0.01748 0.03066 0.52716 0.0
N718 N 0.03718 0.90989 0.50537 0.0
N719 N 0.01192 0.09533 0.48856 0.0
H720 H 0.02081 0.04522 0.58095 0.0
H721 H 1.00287 0.09085 0.55557 0.0
H722 H 1.00714 0.11026 0.46432 0.0
H723 H 0.01933 0.11869 0.50798 0.0
H724 H 0.04355 0.88805 0.48475 0.0
H725 H 0.04353 0.89492 0.5294 0.0
H726 H 1.00524 0.91013 0.44208 0.0
H727 H 0.99921 0.95742 0.41577 0.0
C728 C 0.5368 0.47778 0.02346 0.0
C729 C 0.51722 0.52114 0.03077 0.0
C730 C 0.48324 0.52575 0.97208 0.0
C731 C 0.50032 0.48131 0.96558 0.0
N732 N 0.53611 0.41194 0.98601 0.0
N733 N 0.46868 0.58546 0.01386 0.0
C734 C 0.52532 0.45652 0.9915 0.0
C735 C 0.48934 0.54478 0.00561 0.0
N736 N 0.56636 0.45691 0.04706 0.0
N737 N 0.46315 0.55042 0.94573 0.0
H738 H 0.47552 0.60226 0.03708 0.0
H739 H 0.44295 0.60174 -0.00148 0.0
H740 H 0.45743 0.5374 0.92097 0.0
H741 H 0.45498 0.58467 0.94749 0.0
H742 H 0.58654 0.42798 0.04166 0.0
H743 H 0.5734 0.47003 0.07159 0.0
H744 H 0.54967 0.39044 0.00503 0.0
H745 H 0.5275 0.39515 0.96308 0.0
C746 C 0.03154 0.46631 0.0044 0.0
C747 C 1.00324 0.49042 0.02914 0.0
C748 C 0.99176 0.55225 0.98766 0.0
C749 C 0.01748 0.52696 0.9623 0.0
N750 N 0.05622 0.45773 0.94439 0.0
N751 N 0.95106 0.55327 0.04345 0.0
C752 C 0.03613 0.48347 0.97013 0.0
C753 C 0.9815 0.53239 0.02043 0.0
N754 N 0.05403 0.4269 0.01372 0.0
N755 N 0.97917 0.59611 0.98088 0.0
H756 H 0.94462 0.54105 0.06835 0.0
H757 H 0.92951 0.58103 0.03717 0.0
H758 H 0.98693 0.61198 0.95741 0.0
H759 H 0.96497 0.61807 -0.00066 0.0
H760 H 0.08023 0.41079 -0.00134 0.0
H761 H 0.04827 0.41116 0.0375 0.0
H762 H 0.06544 0.42383 0.94727 0.0
H763 H 0.0606 0.46925 0.91905 0.0
C764 C 0.01314 0.54535 0.50551 0.0
C765 C 0.99932 0.51302 0.53089 0.0
C766 C 1.0029 0.45266 0.48735 0.0
C767 C 0.01931 0.48461 0.46248 0.0
N768 N 0.04586 0.55976 0.44802 0.0
N769 N 0.98628 0.4356 0.54777 0.0
C770 C 0.02603 0.53057 0.47162 0.0
C771 C 0.99568 0.46653 0.5223 0.0
N772 N 0.01344 0.59026 0.51385 0.0
N773 N 0.99296 0.40931 0.47726 0.0
H774 H 0.97845 0.44481 0.57325 0.0
H775 H 0.98886 0.40081 0.54428 0.0
H776 H 0.99938 0.39758 0.45221 0.0
H777 H 0.97574 0.38559 0.49295 0.0
H778 H 0.01787 0.61615 0.49588 0.0
H779 H 1.00605 0.60203 0.53873 0.0
H780 H 0.0563 0.59271 0.45377 0.0
H781 H 0.05538 0.54993 0.42297 0.0
C782 C 0.5172 0.52963 0.52597 0.0
C783 C 0.51887 0.48229 0.53161 0.0
C784 C 0.49685 0.46826 0.47111 0.0
C785 C 0.49861 0.51539 0.46493 0.0
N786 N 0.5151 0.59123 0.48452 0.0
N787 N 0.51553 0.40604 0.50984 0.0
C788 C 0.50987 0.54625 0.49187 0.0
C789 C 0.5103 0.45141 0.50419 0.0
N790 N 0.5218 0.55856 0.5534 0.0
N791 N 0.48115 0.4399 0.44549 0.0
H792 H 0.5242 0.39261 0.53402 0.0
H793 H 0.51478 0.38185 0.4903 0.0
H794 H 0.47083 0.45147 0.42103 0.0
H795 H 0.47452 0.40559 0.44906 0.0
H796 H 0.51506 0.59312 0.55189 0.0
H797 H 0.53001 0.5476 0.57841 0.0
H798 H 0.52875 0.61484 0.50196 0.0
H799 H 0.50826 0.60481 0.46007 0.0
loop_
_geom_bond_atom_site_label_1
_geom_bond_atom_site_label_2
_geom_bond_distance
_geom_bond_site_symmetry_2
_ccdc_geom_bond_type
Co0 O1 2.216 . S
Co0 O2 2.091 . S
Co0 O4 2.004 . S
Co0 O10 2.021 . S
Co0 O12 2.137 . S
Co0 O13 2.244 . S
O1 Co0 2.216 . S
O1 C8 1.247 . S
O2 Co0 2.091 . S
O2 C8 1.261 . S
C3 O12 1.247 . S
C3 O13 1.272 . S
O4 Co0 2.004 . S
O4 C9 1.259 . S
Co5 O6 2.061 . S
Co5 O11 2.052 . S
Co5 O13 2.135 1_655 S
O6 Co5 2.061 . S
O6 C9 1.235 1_655 S
C7 O10 1.238 . S
C7 O11 1.241 1_455 S
C8 O1 1.247 . S
C8 O2 1.261 . S
C9 O4 1.259 . S
C9 O6 1.235 1_455 S
O10 Co0 2.021 . S
O10 C7 1.238 . S
O11 Co5 2.052 . S
O11 C7 1.241 1_655 S
O12 Co0 2.137 . S
O12 C3 1.247 . S
O13 Co0 2.244 . S
O13 C3 1.272 . S
O13 Co5 2.135 1_455 S
Co14 O15 2.216 . S
Co14 O16 2.091 . S
Co14 O18 2.004 . S
Co14 O24 2.021 . S
Co14 O26 2.137 . S
Co14 O27 2.244 . S
O15 Co14 2.216 . S
O15 C22 1.247 . S
O16 Co14 2.091 . S
O16 C22 1.261 . S
C17 O26 1.247 . S
C17 O27 1.272 . S
O18 Co14 2.004 . S
O18 C23 1.259 . S
Co19 O20 2.061 . S
Co19 O25 2.052 . S
Co19 O27 2.135 . S
O20 Co19 2.061 . S
O20 C23 1.235 . S
C21 O24 1.238 . S
C21 O25 1.241 . S
C22 O15 1.247 . S
C22 O16 1.261 . S
C23 O18 1.259 . S
C23 O20 1.235 . S
O24 Co14 2.021 . S
O24 C21 1.238 . S
O25 Co19 2.052 . S
O25 C21 1.241 . S
O26 Co14 2.137 . S
O26 C17 1.247 . S
O27 Co14 2.244 . S
O27 C17 1.272 . S
O27 Co19 2.135 . S
Co28 O29 2.216 . S
Co28 O30 2.091 . S
Co28 O32 2.004 . S
Co28 O38 2.021 . S
Co28 O40 2.137 . S
Co28 O41 2.244 . S
O29 Co28 2.216 . S
O29 C36 1.247 . S
O30 Co28 2.091 . S
O30 C36 1.261 . S
C31 O40 1.247 . S
C31 O41 1.272 . S
O32 Co28 2.004 . S
O32 C37 1.259 . S
Co33 O34 2.061 . S
Co33 O39 2.052 . S
Co33 O41 2.135 . S
O34 Co33 2.061 . S
O34 C37 1.235 . S
C35 O38 1.238 . S
C35 O39 1.241 . S
C36 O29 1.247 . S
C36 O30 1.261 . S
C37 O32 1.259 . S
C37 O34 1.235 . S
O38 Co28 2.021 . S
O38 C35 1.238 . S
O39 Co33 2.052 . S
O39 C35 1.241 . S
O40 Co28 2.137 . S
O40 C31 1.247 . S
O41 Co28 2.244 . S
O41 C31 1.272 . S
O41 Co33 2.135 . S
Co42 O43 2.216 . S
Co42 O44 2.091 . S
Co42 O46 2.004 . S
Co42 O52 2.021 . S
Co42 O54 2.137 . S
Co42 O55 2.244 . S
O43 Co42 2.216 . S
O43 C50 1.247 . S
O44 Co42 2.091 . S
O44 C50 1.261 . S
C45 O54 1.247 . S
C45 O55 1.272 . S
O46 Co42 2.004 . S
O46 C51 1.259 . S
Co47 O48 2.061 . S
Co47 O53 2.052 . S
Co47 O55 2.135 1_455 S
O48 Co47 2.061 . S
O48 C51 1.235 1_455 S
C49 O52 1.238 . S
C49 O53 1.241 1_655 S
C50 O43 1.247 . S
C50 O44 1.261 . S
C51 O46 1.259 . S
C51 O48 1.235 1_655 S
O52 Co42 2.021 . S
O52 C49 1.238 . S
O53 Co47 2.052 . S
O53 C49 1.241 1_455 S
O54 Co42 2.137 . S
O54 C45 1.247 . S
O55 Co42 2.244 . S
O55 C45 1.272 . S
O55 Co47 2.135 1_655 S
Co56 O57 2.216 . S
Co56 O58 2.091 . S
Co56 O60 2.004 . S
Co56 O66 2.021 . S
Co56 O68 2.137 . S
Co56 O69 2.244 . S
O57 Co56 2.216 . S
O57 C64 1.247 . S
O58 Co56 2.091 . S
O58 C64 1.261 . S
C59 O68 1.247 . S
C59 O69 1.272 . S
O60 Co56 2.004 . S
O60 C65 1.259 . S
Co61 O62 2.061 . S
Co61 O67 2.052 . S
Co61 O69 2.135 1_455 S
O62 Co61 2.061 . S
O62 C65 1.235 1_455 S
C63 O66 1.238 . S
C63 O67 1.241 1_655 S
C64 O57 1.247 . S
C64 O58 1.261 . S
C65 O60 1.259 . S
C65 O62 1.235 1_655 S
O66 Co56 2.021 . S
O66 C63 1.238 . S
O67 Co61 2.052 . S
O67 C63 1.241 1_455 S
O68 Co56 2.137 . S
O68 C59 1.247 . S
O69 Co56 2.244 . S
O69 C59 1.272 . S
O69 Co61 2.135 1_655 S
Co70 O71 2.216 . S
Co70 O72 2.091 . S
Co70 O74 2.004 . S
Co70 O80 2.021 . S
Co70 O82 2.137 . S
Co70 O83 2.244 . S
O71 Co70 2.216 . S
O71 C78 1.247 . S
O72 Co70 2.091 . S
O72 C78 1.261 . S
C73 O82 1.247 . S
C73 O83 1.272 . S
O74 Co70 2.004 . S
O74 C79 1.259 . S
Co75 O76 2.061 . S
Co75 O81 2.052 . S
Co75 O83 2.135 . S
O76 Co75 2.061 . S
O76 C79 1.235 . S
C77 O80 1.238 . S
C77 O81 1.241 . S
C78 O71 1.247 . S
C78 O72 1.261 . S
C79 O74 1.259 . S
C79 O76 1.235 . S
O80 Co70 2.021 . S
O80 C77 1.238 . S
O81 Co75 2.052 . S
O81 C77 1.241 . S
O82 Co70 2.137 . S
O82 C73 1.247 . S
O83 Co70 2.244 . S
O83 C73 1.272 . S
O83 Co75 2.135 . S
Co84 O85 2.216 . S
Co84 O86 2.091 . S
Co84 O88 2.004 . S
Co84 O94 2.021 . S
Co84 O96 2.137 . S
Co84 O97 2.244 . S
O85 Co84 2.216 . S
O85 C92 1.247 . S
O86 Co84 2.091 . S
O86 C92 1.261 . S
C87 O96 1.247 . S
C87 O97 1.272 . S
O88 Co84 2.004 . S
O88 C93 1.259 . S
Co89 O90 2.061 . S
Co89 O95 2.052 . S
Co89 O97 2.135 . S
O90 Co89 2.061 . S
O90 C93 1.235 . S
C91 O94 1.238 . S
C91 O95 1.241 . S
C92 O85 1.247 . S
C92 O86 1.261 . S
C93 O88 1.259 . S
C93 O90 1.235 . S
O94 Co84 2.021 . S
O94 C91 1.238 . S
O95 Co89 2.052 . S
O95 C91 1.241 . S
O96 Co84 2.137 . S
O96 C87 1.247 . S
O97 Co84 2.244 . S
O97 C87 1.272 . S
O97 Co89 2.135 . S
Co98 O99 2.216 . S
Co98 O100 2.091 . S
Co98 O102 2.004 . S
Co98 O108 2.021 . S
Co98 O110 2.137 . S
Co98 O111 2.244 . S
O99 Co98 2.216 . S
O99 C106 1.247 . S
O100 Co98 2.091 . S
O100 C106 1.261 . S
C101 O110 1.247 . S
C101 O111 1.272 . S
O102 Co98 2.004 . S
O102 C107 1.259 . S
Co103 O104 2.061 . S
Co103 O109 2.052 . S
Co103 O111 2.135 1_655 S
O104 Co103 2.061 . S
O104 C107 1.235 1_655 S
C105 O108 1.238 . S
C105 O109 1.241 1_455 S
C106 O99 1.247 . S
C106 O100 1.261 . S
C107 O102 1.259 . S
C107 O104 1.235 1_455 S
O108 Co98 2.021 . S
O108 C105 1.238 . S
O109 Co103 2.052 . S
O109 C105 1.241 1_655 S
O110 Co98 2.137 . S
O110 C101 1.247 . S
O111 Co98 2.244 . S
O111 C101 1.272 . S
O111 Co103 2.135 1_455 S
Co112 O113 2.216 . S
Co112 O114 2.091 . S
Co112 O116 2.004 . S
Co112 O122 2.021 . S
Co112 O124 2.137 . S
Co112 O125 2.244 . S
O113 Co112 2.216 . S
O113 C120 1.247 . S
O114 Co112 2.091 . S
O114 C120 1.261 . S
C115 O124 1.247 . S
C115 O125 1.272 . S
O116 Co112 2.004 . S
O116 C121 1.259 . S
Co117 O118 2.061 . S
Co117 O123 2.052 . S
Co117 O125 2.135 . S
O118 Co117 2.061 . S
O118 C121 1.235 . S
C119 O122 1.238 . S
C119 O123 1.241 . S
C120 O113 1.247 . S
C120 O114 1.261 . S
C121 O116 1.259 . S
C121 O118 1.235 . S
O122 Co112 2.021 . S
O122 C119 1.238 . S
O123 Co117 2.052 . S
O123 C119 1.241 . S
O124 Co112 2.137 . S
O124 C115 1.247 . S
O125 Co112 2.244 . S
O125 C115 1.272 . S
O125 Co117 2.135 . S
Co126 O127 2.216 . S
Co126 O128 2.091 . S
Co126 O130 2.004 . S
Co126 O136 2.021 . S
Co126 O138 2.137 . S
Co126 O139 2.244 . S
O127 Co126 2.216 . S
O127 C134 1.247 . S
O128 Co126 2.091 . S
O128 C134 1.261 . S
C129 O138 1.247 . S
C129 O139 1.272 . S
O130 Co126 2.004 . S
O130 C135 1.259 . S
Co131 O132 2.061 . S
Co131 O137 2.052 . S
Co131 O139 2.135 1_455 S
O132 Co131 2.061 . S
O132 C135 1.235 1_455 S
C133 O136 1.238 . S
C133 O137 1.241 1_655 S
C134 O127 1.247 . S
C134 O128 1.261 . S
C135 O130 1.259 . S
C135 O132 1.235 1_655 S
O136 Co126 2.021 . S
O136 C133 1.238 . S
O137 Co131 2.052 . S
O137 C133 1.241 1_455 S
O138 Co126 2.137 . S
O138 C129 1.247 . S
O139 Co126 2.244 . S
O139 C129 1.272 . S
O139 Co131 2.135 1_655 S
Co140 O141 2.216 . S
Co140 O142 2.091 . S
Co140 O144 2.004 . S
Co140 O150 2.021 . S
Co140 O152 2.137 . S
Co140 O153 2.244 . S
O141 Co140 2.216 . S
O141 C148 1.247 . S
O142 Co140 2.091 . S
O142 C148 1.261 . S
C143 O152 1.247 . S
C143 O153 1.272 . S
O144 Co140 2.004 . S
O144 C149 1.259 . S
Co145 O146 2.061 . S
Co145 O151 2.052 . S
Co145 O153 2.135 1_655 S
O146 Co145 2.061 . S
O146 C149 1.235 1_655 S
C147 O150 1.238 . S
C147 O151 1.241 1_455 S
C148 O141 1.247 . S
C148 O142 1.261 . S
C149 O144 1.259 . S
C149 O146 1.235 1_455 S
O150 Co140 2.021 . S
O150 C147 1.238 . S
O151 Co145 2.052 . S
O151 C147 1.241 1_655 S
O152 Co140 2.137 . S
O152 C143 1.247 . S
O153 Co140 2.244 . S
O153 C143 1.272 . S
O153 Co145 2.135 1_455 S
Co154 O155 2.216 . S
Co154 O156 2.091 . S
Co154 O158 2.004 . S
Co154 O164 2.021 . S
Co154 O166 2.137 . S
Co154 O167 2.244 . S
O155 Co154 2.216 . S
O155 C162 1.247 . S
O156 Co154 2.091 . S
O156 C162 1.261 . S
C157 O166 1.247 . S
C157 O167 1.272 . S
O158 Co154 2.004 . S
O158 C163 1.259 . S
Co159 O160 2.061 . S
Co159 O165 2.052 . S
Co159 O167 2.135 . S
O160 Co159 2.061 . S
O160 C163 1.235 . S
C161 O164 1.238 . S
C161 O165 1.241 . S
C162 O155 1.247 . S
C162 O156 1.261 . S
C163 O158 1.259 . S
C163 O160 1.235 . S
O164 Co154 2.021 . S
O164 C161 1.238 . S
O165 Co159 2.052 . S
O165 C161 1.241 . S
O166 Co154 2.137 . S
O166 C157 1.247 . S
O167 Co154 2.244 . S
O167 C157 1.272 . S
O167 Co159 2.135 . S
Co168 O169 2.216 . S
Co168 O170 2.091 . S
Co168 O172 2.004 . S
Co168 O178 2.021 . S
Co168 O180 2.137 . S
Co168 O181 2.244 . S
O169 Co168 2.216 . S
O169 C176 1.247 . S
O170 Co168 2.091 . S
O170 C176 1.261 . S
C171 O180 1.247 . S
C171 O181 1.272 . S
O172 Co168 2.004 . S
O172 C177 1.259 . S
Co173 O174 2.061 . S
Co173 O179 2.052 . S
Co173 O181 2.135 . S
O174 Co173 2.061 . S
O174 C177 1.235 . S
C175 O178 1.238 . S
C175 O179 1.241 . S
C176 O169 1.247 . S
C176 O170 1.261 . S
C177 O172 1.259 . S
C177 O174 1.235 . S
O178 Co168 2.021 . S
O178 C175 1.238 . S
O179 Co173 2.052 . S
O179 C175 1.241 . S
O180 Co168 2.137 . S
O180 C171 1.247 . S
O181 Co168 2.244 . S
O181 C171 1.272 . S
O181 Co173 2.135 . S
Co182 O183 2.216 . S
Co182 O184 2.091 . S
Co182 O186 2.004 . S
Co182 O192 2.021 . S
Co182 O194 2.137 . S
Co182 O195 2.244 . S
O183 Co182 2.216 . S
O183 C190 1.247 . S
O184 Co182 2.091 . S
O184 C190 1.261 . S
C185 O194 1.247 . S
C185 O195 1.272 . S
O186 Co182 2.004 . S
O186 C191 1.259 . S
Co187 O188 2.061 . S
Co187 O193 2.052 . S
Co187 O195 2.135 1_655 S
O188 Co187 2.061 . S
O188 C191 1.235 1_655 S
C189 O192 1.238 . S
C189 O193 1.241 1_455 S
C190 O183 1.247 . S
C190 O184 1.261 . S
C191 O186 1.259 . S
C191 O188 1.235 1_455 S
O192 Co182 2.021 . S
O192 C189 1.238 . S
O193 Co187 2.052 . S
O193 C189 1.241 1_655 S
O194 Co182 2.137 . S
O194 C185 1.247 . S
O195 Co182 2.244 . S
O195 C185 1.272 . S
O195 Co187 2.135 1_455 S
Co196 O197 2.216 . S
Co196 O198 2.091 . S
Co196 O200 2.004 . S
Co196 O206 2.021 . S
Co196 O208 2.137 . S
Co196 O209 2.244 . S
O197 Co196 2.216 . S
O197 C204 1.247 . S
O198 Co196 2.091 . S
O198 C204 1.261 . S
C199 O208 1.247 . S
C199 O209 1.272 . S
O200 Co196 2.004 . S
O200 C205 1.259 . S
Co201 O202 2.061 . S
Co201 O207 2.052 . S
Co201 O209 2.135 1_455 S
O202 Co201 2.061 . S
O202 C205 1.235 1_455 S
C203 O206 1.238 . S
C203 O207 1.241 1_655 S
C204 O197 1.247 . S
C204 O198 1.261 . S
C205 O200 1.259 . S
C205 O202 1.235 1_655 S
O206 Co196 2.021 . S
O206 C203 1.238 . S
O207 Co201 2.052 . S
O207 C203 1.241 1_455 S
O208 Co196 2.137 . S
O208 C199 1.247 . S
O209 Co196 2.244 . S
O209 C199 1.272 . S
O209 Co201 2.135 1_655 S
Co210 O211 2.216 . S
Co210 O212 2.091 . S
Co210 O214 2.004 . S
Co210 O220 2.021 . S
Co210 O222 2.137 . S
Co210 O223 2.244 . S
O211 Co210 2.216 . S
O211 C218 1.247 . S
O212 Co210 2.091 . S
O212 C218 1.261 . S
C213 O222 1.247 . S
C213 O223 1.272 . S
O214 Co210 2.004 . S
O214 C219 1.259 . S
Co215 O216 2.061 . S
Co215 O221 2.052 . S
Co215 O223 2.135 . S
O216 Co215 2.061 . S
O216 C219 1.235 . S
C217 O220 1.238 . S
C217 O221 1.241 . S
C218 O211 1.247 . S
C218 O212 1.261 . S
C219 O214 1.259 . S
C219 O216 1.235 . S
O220 Co210 2.021 . S
O220 C217 1.238 . S
O221 Co215 2.052 . S
O221 C217 1.241 . S
O222 Co210 2.137 . S
O222 C213 1.247 . S
O223 Co210 2.244 . S
O223 C213 1.272 . S
O223 Co215 2.135 . S
C224 C225 1.363 . S
C224 C230 1.379 . S
C224 N232 1.356 . S
C225 C224 1.363 . S
C225 C231 1.363 1_565 S
C226 C227 1.363 . S
C226 C231 1.379 . S
C226 N233 1.356 . S
C227 C226 1.363 . S
C227 C230 1.363 1_545 S
N228 C230 1.356 . S
N228 H240 0.984 . S
N228 H241 0.985 . S
N229 C231 1.356 . S
N229 H234 0.984 . S
N229 H235 0.985 . S
C230 C224 1.379 . S
C230 C227 1.363 1_565 S
C230 N228 1.356 . S
C231 C225 1.363 1_545 S
C231 C226 1.379 . S
C231 N229 1.356 . S
N232 C224 1.356 . S
N232 H238 0.984 . S
N232 H239 0.984 . S
N233 C226 1.356 . S
N233 H236 0.984 . S
N233 H237 0.985 . S
H234 N229 0.984 . S
H235 N229 0.985 . S
H236 N233 0.984 . S
H237 N233 0.985 . S
H238 N232 0.984 . S
H239 N232 0.984 . S
H240 N228 0.984 . S
H241 N228 0.985 . S
C242 C243 1.363 1_545 S
C242 C248 1.379 . S
C242 N250 1.356 . S
C243 C242 1.363 1_565 S
C243 C249 1.363 . S
C244 C245 1.363 1_565 S
C244 C249 1.379 . S
C244 N251 1.356 . S
C245 C244 1.363 1_545 S
C245 C248 1.363 . S
N246 C248 1.356 . S
N246 H258 0.984 . S
N246 H259 0.985 . S
N247 C249 1.356 . S
N247 H252 0.984 . S
N247 H253 0.985 . S
C248 C242 1.379 . S
C248 C245 1.363 . S
C248 N246 1.356 . S
C249 C243 1.363 . S
C249 C244 1.379 . S
C249 N247 1.356 . S
N250 C242 1.356 . S
N250 H256 0.984 . S
N250 H257 0.984 . S
N251 C244 1.356 . S
N251 H254 0.984 . S
N251 H255 0.985 . S
H252 N247 0.984 . S
H253 N247 0.985 . S
H254 N251 0.984 . S
H255 N251 0.985 . S
H256 N250 0.984 . S
H257 N250 0.984 . S
H258 N246 0.984 . S
H259 N246 0.985 . S
C260 C261 1.363 1_545 S
C260 C266 1.379 . S
C260 N268 1.356 . S
C261 C260 1.363 1_565 S
C261 C267 1.363 . S
C262 C263 1.363 1_565 S
C262 C267 1.379 . S
C262 N269 1.356 . S
C263 C262 1.363 1_545 S
C263 C266 1.363 . S
N264 C266 1.356 . S
N264 H276 0.984 . S
N264 H277 0.985 . S
N265 C267 1.356 . S
N265 H270 0.984 . S
N265 H271 0.985 . S
C266 C260 1.379 . S
C266 C263 1.363 . S
C266 N264 1.356 . S
C267 C261 1.363 . S
C267 C262 1.379 . S
C267 N265 1.356 . S
N268 C260 1.356 . S
N268 H274 0.984 . S
N268 H275 0.984 . S
N269 C262 1.356 . S
N269 H272 0.984 . S
N269 H273 0.985 . S
H270 N265 0.984 . S
H271 N265 0.985 . S
H272 N269 0.984 . S
H273 N269 0.985 . S
H274 N268 0.984 . S
H275 N268 0.984 . S
H276 N264 0.984 . S
H277 N264 0.985 . S
C278 C279 1.363 1_545 S
C278 C284 1.379 . S
C278 N286 1.356 . S
C279 C278 1.363 1_565 S
C279 C285 1.363 . S
C280 C281 1.363 1_565 S
C280 C285 1.379 . S
C280 N287 1.356 . S
C281 C280 1.363 1_545 S
C281 C284 1.363 . S
N282 C284 1.356 . S
N282 H294 0.984 . S
N282 H295 0.985 . S
N283 C285 1.356 . S
N283 H288 0.984 . S
N283 H289 0.985 . S
C284 C278 1.379 . S
C284 C281 1.363 . S
C284 N282 1.356 . S
C285 C279 1.363 . S
C285 C280 1.379 . S
C285 N283 1.356 . S
N286 C278 1.356 . S
N286 H292 0.984 . S
N286 H293 0.984 . S
N287 C280 1.356 . S
N287 H290 0.984 . S
N287 H291 0.985 . S
H288 N283 0.984 . S
H289 N283 0.985 . S
H290 N287 0.984 . S
H291 N287 0.985 . S
H292 N286 0.984 . S
H293 N286 0.984 . S
H294 N282 0.984 . S
H295 N282 0.985 . S
C296 C297 1.363 . S
C296 C302 1.379 . S
C296 N304 1.356 . S
C297 C296 1.363 . S
C297 C303 1.363 . S
C298 C299 1.363 . S
C298 C303 1.379 . S
C298 N305 1.356 . S
C299 C298 1.363 . S
C299 C302 1.363 . S
N300 C302 1.356 . S
N300 H312 0.984 . S
N300 H313 0.985 . S
N301 C303 1.356 . S
N301 H306 0.984 . S
N301 H307 0.985 . S
C302 C296 1.379 . S
C302 C299 1.363 . S
C302 N300 1.356 . S
C303 C297 1.363 . S
C303 C298 1.379 . S
C303 N301 1.356 . S
N304 C296 1.356 . S
N304 H310 0.984 . S
N304 H311 0.984 . S
N305 C298 1.356 . S
N305 H308 0.984 . S
N305 H309 0.985 . S
H306 N301 0.984 . S
H307 N301 0.985 . S
H308 N305 0.984 . S
H309 N305 0.985 . S
H310 N304 0.984 . S
H311 N304 0.984 . S
H312 N300 0.984 . S
H313 N300 0.985 . S
C314 C315 1.363 . S
C314 C320 1.379 . S
C314 N322 1.356 . S
C315 C314 1.363 . S
C315 C321 1.363 . S
C316 C317 1.363 . S
C316 C321 1.379 . S
C316 N323 1.356 . S
C317 C316 1.363 . S
C317 C320 1.363 . S
N318 C320 1.356 . S
N318 H330 0.984 . S
N318 H331 0.985 . S
N319 C321 1.356 . S
N319 H324 0.984 . S
N319 H325 0.985 . S
C320 C314 1.379 . S
C320 C317 1.363 . S
C320 N318 1.356 . S
C321 C315 1.363 . S
C321 C316 1.379 . S
C321 N319 1.356 . S
N322 C314 1.356 . S
N322 H328 0.984 . S
N322 H329 0.984 . S
N323 C316 1.356 . S
N323 H326 0.984 . S
N323 H327 0.985 . S
H324 N319 0.984 . S
H325 N319 0.985 . S
H326 N323 0.984 . S
H327 N323 0.985 . S
H328 N322 0.984 . S
H329 N322 0.984 . S
H330 N318 0.984 . S
H331 N318 0.985 . S
C332 C333 1.363 . S
C332 C338 1.379 . S
C332 N340 1.356 . S
C333 C332 1.363 . S
C333 C339 1.363 . S
C334 C335 1.363 . S
C334 C339 1.379 . S
C334 N341 1.356 . S
C335 C334 1.363 . S
C335 C338 1.363 . S
N336 C338 1.356 . S
N336 H348 0.984 . S
N336 H349 0.985 . S
N337 C339 1.356 . S
N337 H342 0.984 . S
N337 H343 0.985 . S
C338 C332 1.379 . S
C338 C335 1.363 . S
C338 N336 1.356 . S
C339 C333 1.363 . S
C339 C334 1.379 . S
C339 N337 1.356 . S
N340 C332 1.356 . S
N340 H346 0.984 . S
N340 H347 0.984 . S
N341 C334 1.356 . S
N341 H344 0.984 . S
N341 H345 0.985 . S
H342 N337 0.984 . S
H343 N337 0.985 . S
H344 N341 0.984 . S
H345 N341 0.985 . S
H346 N340 0.984 . S
H347 N340 0.984 . S
H348 N336 0.984 . S
H349 N336 0.985 . S
C350 C351 1.363 . S
C350 C356 1.379 . S
C350 N358 1.356 . S
C351 C350 1.363 . S
C351 C357 1.363 . S
C352 C353 1.363 . S
C352 C357 1.379 . S
C352 N359 1.356 . S
C353 C352 1.363 . S
C353 C356 1.363 . S
N354 C356 1.356 . S
N354 H366 0.984 . S
N354 H367 0.985 . S
N355 C357 1.356 . S
N355 H360 0.984 . S
N355 H361 0.985 . S
C356 C350 1.379 . S
C356 C353 1.363 . S
C356 N354 1.356 . S
C357 C351 1.363 . S
C357 C352 1.379 . S
C357 N355 1.356 . S
N358 C350 1.356 . S
N358 H364 0.984 . S
N358 H365 0.984 . S
N359 C352 1.356 . S
N359 H362 0.984 . S
N359 H363 0.985 . S
H360 N355 0.984 . S
H361 N355 0.985 . S
H362 N359 0.984 . S
H363 N359 0.985 . S
H364 N358 0.984 . S
H365 N358 0.984 . S
H366 N354 0.984 . S
H367 N354 0.985 . S
C368 C369 1.363 . S
C368 C374 1.379 . S
C368 N376 1.356 . S
C369 C368 1.363 . S
C369 C375 1.363 1_655 S
C370 C371 1.363 . S
C370 C375 1.379 . S
C370 N377 1.356 1_545 S
C371 C370 1.363 . S
C371 C374 1.363 1_455 S
N372 C374 1.356 . S
N372 H384 0.984 . S
N372 H385 0.985 . S
N373 C375 1.356 1_565 S
N373 H378 0.984 1_565 S
N373 H379 0.985 . S
C374 C368 1.379 . S
C374 C371 1.363 1_655 S
C374 N372 1.356 . S
C375 C369 1.363 1_455 S
C375 C370 1.379 . S
C375 N373 1.356 1_545 S
N376 C368 1.356 . S
N376 H382 0.984 . S
N376 H383 0.984 . S
N377 C370 1.356 1_565 S
N377 H380 0.984 1_565 S
N377 H381 0.985 . S
H378 N373 0.984 1_545 S
H379 N373 0.985 . S
H380 N377 0.984 1_545 S
H381 N377 0.985 . S
H382 N376 0.984 . S
H383 N376 0.984 . S
H384 N372 0.984 . S
H385 N372 0.985 . S
C386 C387 1.363 . S
C386 C392 1.379 . S
C386 N394 1.356 1_565 S
C387 C386 1.363 . S
C387 C393 1.363 . S
C388 C389 1.363 . S
C388 C393 1.379 . S
C388 N395 1.356 . S
C389 C388 1.363 . S
C389 C392 1.363 . S
N390 C392 1.356 1_545 S
N390 H402 0.984 . S
N390 H403 0.985 1_545 S
N391 C393 1.356 . S
N391 H396 0.984 . S
N391 H397 0.985 . S
C392 C386 1.379 . S
C392 C389 1.363 . S
C392 N390 1.356 1_565 S
C393 C387 1.363 . S
C393 C388 1.379 . S
C393 N391 1.356 . S
N394 C386 1.356 1_545 S
N394 H400 0.984 . S
N394 H401 0.984 1_545 S
N395 C388 1.356 . S
N395 H398 0.984 . S
N395 H399 0.985 . S
H396 N391 0.984 . S
H397 N391 0.985 . S
H398 N395 0.984 . S
H399 N395 0.985 . S
H400 N394 0.984 . S
H401 N394 0.984 1_565 S
H402 N390 0.984 . S
H403 N390 0.985 1_565 S
C404 C405 1.363 . S
C404 C410 1.379 . S
C404 N412 1.356 1_565 S
C405 C404 1.363 . S
C405 C411 1.363 1_455 S
C406 C407 1.363 . S
C406 C411 1.379 . S
C406 N413 1.356 . S
C407 C406 1.363 . S
C407 C410 1.363 1_655 S
N408 C410 1.356 1_545 S
N408 H420 0.984 . S
N408 H421 0.985 1_545 S
N409 C411 1.356 . S
N409 H414 0.984 . S
N409 H415 0.985 . S
C410 C404 1.379 . S
C410 C407 1.363 1_455 S
C410 N408 1.356 1_565 S
C411 C405 1.363 1_655 S
C411 C406 1.379 . S
C411 N409 1.356 . S
N412 C404 1.356 1_545 S
N412 H418 0.984 . S
N412 H419 0.984 1_545 S
N413 C406 1.356 . S
N413 H416 0.984 . S
N413 H417 0.985 . S
H414 N409 0.984 . S
H415 N409 0.985 . S
H416 N413 0.984 . S
H417 N413 0.985 . S
H418 N412 0.984 . S
H419 N412 0.984 1_565 S
H420 N408 0.984 . S
H421 N408 0.985 1_565 S
C422 C423 1.363 . S
C422 C428 1.379 . S
C422 N430 1.356 . S
C423 C422 1.363 . S
C423 C429 1.363 . S
C424 C425 1.363 . S
C424 C429 1.379 . S
C424 N431 1.356 1_545 S
C425 C424 1.363 . S
C425 C428 1.363 . S
N426 C428 1.356 . S
N426 H438 0.984 . S
N426 H439 0.985 . S
N427 C429 1.356 1_565 S
N427 H432 0.984 1_565 S
N427 H433 0.985 . S
C428 C422 1.379 . S
C428 C425 1.363 . S
C428 N426 1.356 . S
C429 C423 1.363 . S
C429 C424 1.379 . S
C429 N427 1.356 1_545 S
N430 C422 1.356 . S
N430 H436 0.984 . S
N430 H437 0.984 . S
N431 C424 1.356 1_565 S
N431 H434 0.984 1_565 S
N431 H435 0.985 . S
H432 N427 0.984 1_545 S
H433 N427 0.985 . S
H434 N431 0.984 1_545 S
H435 N431 0.985 . S
H436 N430 0.984 . S
H437 N430 0.984 . S
H438 N426 0.984 . S
H439 N426 0.985 . S
C440 C441 1.363 . S
C440 C446 1.379 . S
C440 N448 1.356 . S
C441 C440 1.363 . S
C441 C447 1.363 . S
C442 C443 1.363 . S
C442 C447 1.379 . S
C442 N449 1.356 . S
C443 C442 1.363 . S
C443 C446 1.363 . S
N444 C446 1.356 . S
N444 H456 0.984 . S
N444 H457 0.985 . S
N445 C447 1.356 . S
N445 H450 0.984 . S
N445 H451 0.985 . S
C446 C440 1.379 . S
C446 C443 1.363 . S
C446 N444 1.356 . S
C447 C441 1.363 . S
C447 C442 1.379 . S
C447 N445 1.356 . S
N448 C440 1.356 . S
N448 H454 0.984 . S
N448 H455 0.984 . S
N449 C442 1.356 . S
N449 H452 0.984 . S
N449 H453 0.985 . S
H450 N445 0.984 . S
H451 N445 0.985 . S
H452 N449 0.984 . S
H453 N449 0.985 . S
H454 N448 0.984 . S
H455 N448 0.984 . S
H456 N444 0.984 . S
H457 N444 0.985 . S
C458 C459 1.363 . S
C458 C464 1.379 . S
C458 N466 1.356 . S
C459 C458 1.363 . S
C459 C465 1.363 1_455 S
C460 C461 1.363 . S
C460 C465 1.379 . S
C460 N467 1.356 . S
C461 C460 1.363 . S
C461 C464 1.363 1_655 S
N462 C464 1.356 . S
N462 H474 0.984 . S
N462 H475 0.985 . S
N463 C465 1.356 . S
N463 H468 0.984 . S
N463 H469 0.985 . S
C464 C458 1.379 . S
C464 C461 1.363 1_455 S
C464 N462 1.356 . S
C465 C459 1.363 1_655 S
C465 C460 1.379 . S
C465 N463 1.356 . S
N466 C458 1.356 . S
N466 H472 0.984 . S
N466 H473 0.984 . S
N467 C460 1.356 . S
N467 H470 0.984 . S
N467 H471 0.985 . S
H468 N463 0.984 . S
H469 N463 0.985 . S
H470 N467 0.984 . S
H471 N467 0.985 . S
H472 N466 0.984 . S
H473 N466 0.984 . S
H474 N462 0.984 . S
H475 N462 0.985 . S
C476 C477 1.363 . S
C476 C482 1.379 . S
C476 N484 1.356 . S
C477 C476 1.363 . S
C477 C483 1.363 . S
C478 C479 1.363 . S
C478 C483 1.379 . S
C478 N485 1.356 . S
C479 C478 1.363 . S
C479 C482 1.363 . S
N480 C482 1.356 . S
N480 H492 0.984 . S
N480 H493 0.985 . S
N481 C483 1.356 . S
N481 H486 0.984 . S
N481 H487 0.985 . S
C482 C476 1.379 . S
C482 C479 1.363 . S
C482 N480 1.356 . S
C483 C477 1.363 . S
C483 C478 1.379 . S
C483 N481 1.356 . S
N484 C476 1.356 . S
N484 H490 0.984 . S
N484 H491 0.984 . S
N485 C478 1.356 . S
N485 H488 0.984 . S
N485 H489 0.985 . S
H486 N481 0.984 . S
H487 N481 0.985 . S
H488 N485 0.984 . S
H489 N485 0.985 . S
H490 N484 0.984 . S
H491 N484 0.984 . S
H492 N480 0.984 . S
H493 N480 0.985 . S
C494 C495 1.363 . S
C494 C500 1.379 . S
C494 N502 1.356 . S
C495 C494 1.363 . S
C495 C501 1.363 1_455 S
C496 C497 1.363 . S
C496 C501 1.379 . S
C496 N503 1.356 . S
C497 C496 1.363 . S
C497 C500 1.363 1_655 S
N498 C500 1.356 . S
N498 H510 0.984 . S
N498 H511 0.985 . S
N499 C501 1.356 . S
N499 H504 0.984 . S
N499 H505 0.985 . S
C500 C494 1.379 . S
C500 C497 1.363 1_455 S
C500 N498 1.356 . S
C501 C495 1.363 1_655 S
C501 C496 1.379 . S
C501 N499 1.356 . S
N502 C494 1.356 . S
N502 H508 0.984 . S
N502 H509 0.984 . S
N503 C496 1.356 . S
N503 H506 0.984 . S
N503 H507 0.985 . S
H504 N499 0.984 . S
H505 N499 0.985 . S
H506 N503 0.984 . S
H507 N503 0.985 . S
H508 N502 0.984 . S
H509 N502 0.984 . S
H510 N498 0.984 . S
H511 N498 0.985 . S
C512 C513 1.363 1_655 S
C512 C518 1.379 . S
C512 N520 1.356 . S
C513 C512 1.363 1_455 S
C513 C519 1.363 . S
C514 C515 1.363 1_455 S
C514 C519 1.379 . S
C514 N521 1.356 . S
C515 C514 1.363 1_655 S
C515 C518 1.363 . S
N516 C518 1.356 . S
N516 H528 0.984 . S
N516 H529 0.985 . S
N517 C519 1.356 . S
N517 H522 0.984 . S
N517 H523 0.985 . S
C518 C512 1.379 . S
C518 C515 1.363 . S
C518 N516 1.356 . S
C519 C513 1.363 . S
C519 C514 1.379 . S
C519 N517 1.356 . S
N520 C512 1.356 . S
N520 H526 0.984 . S
N520 H527 0.984 . S
N521 C514 1.356 . S
N521 H524 0.984 . S
N521 H525 0.985 . S
H522 N517 0.984 . S
H523 N517 0.985 . S
H524 N521 0.984 . S
H525 N521 0.985 . S
H526 N520 0.984 . S
H527 N520 0.984 . S
H528 N516 0.984 . S
H529 N516 0.985 . S
C530 C531 1.363 . S
C530 C536 1.379 . S
C530 N538 1.356 . S
C531 C530 1.363 . S
C531 C537 1.363 . S
C532 C533 1.363 . S
C532 C537 1.379 . S
C532 N539 1.356 . S
C533 C532 1.363 . S
C533 C536 1.363 . S
N534 C536 1.356 . S
N534 H546 0.984 . S
N534 H547 0.985 . S
N535 C537 1.356 . S
N535 H540 0.984 . S
N535 H541 0.985 . S
C536 C530 1.379 . S
C536 C533 1.363 . S
C536 N534 1.356 . S
C537 C531 1.363 . S
C537 C532 1.379 . S
C537 N535 1.356 . S
N538 C530 1.356 . S
N538 H544 0.984 . S
N538 H545 0.984 . S
N539 C532 1.356 . S
N539 H542 0.984 . S
N539 H543 0.985 . S
H540 N535 0.984 . S
H541 N535 0.985 . S
H542 N539 0.984 . S
H543 N539 0.985 . S
H544 N538 0.984 . S
H545 N538 0.984 . S
H546 N534 0.984 . S
H547 N534 0.985 . S
C548 C549 1.363 . S
C548 C554 1.379 . S
C548 N556 1.356 . S
C549 C548 1.363 . S
C549 C555 1.363 . S
C550 C551 1.363 . S
C550 C555 1.379 . S
C550 N557 1.356 . S
C551 C550 1.363 . S
C551 C554 1.363 . S
N552 C554 1.356 . S
N552 H564 0.984 . S
N552 H565 0.985 . S
N553 C555 1.356 . S
N553 H558 0.984 . S
N553 H559 0.985 . S
C554 C548 1.379 . S
C554 C551 1.363 . S
C554 N552 1.356 . S
C555 C549 1.363 . S
C555 C550 1.379 . S
C555 N553 1.356 . S
N556 C548 1.356 . S
N556 H562 0.984 . S
N556 H563 0.984 . S
N557 C550 1.356 . S
N557 H560 0.984 . S
N557 H561 0.985 . S
H558 N553 0.984 . S
H559 N553 0.985 . S
H560 N557 0.984 . S
H561 N557 0.985 . S
H562 N556 0.984 . S
H563 N556 0.984 . S
H564 N552 0.984 . S
H565 N552 0.985 . S
C566 C567 1.363 1_655 S
C566 C572 1.379 . S
C566 N574 1.356 . S
C567 C566 1.363 1_455 S
C567 C573 1.363 . S
C568 C569 1.363 1_455 S
C568 C573 1.379 . S
C568 N575 1.356 . S
C569 C568 1.363 1_655 S
C569 C572 1.363 . S
N570 C572 1.356 . S
N570 H582 0.984 . S
N570 H583 0.985 . S
N571 C573 1.356 . S
N571 H576 0.984 . S
N571 H577 0.985 . S
C572 C566 1.379 . S
C572 C569 1.363 . S
C572 N570 1.356 . S
C573 C567 1.363 . S
C573 C568 1.379 . S
C573 N571 1.356 . S
N574 C566 1.356 . S
N574 H580 0.984 . S
N574 H581 0.984 . S
N575 C568 1.356 . S
N575 H578 0.984 . S
N575 H579 0.985 . S
H576 N571 0.984 . S
H577 N571 0.985 . S
H578 N575 0.984 . S
H579 N575 0.985 . S
H580 N574 0.984 . S
H581 N574 0.984 . S
H582 N570 0.984 . S
H583 N570 0.985 . S
C584 C585 1.363 1_655 S
C584 C590 1.379 . S
C584 N592 1.356 . S
C585 C584 1.363 1_455 S
C585 C591 1.363 . S
C586 C587 1.363 1_455 S
C586 C591 1.379 . S
C586 N593 1.356 . S
C587 C586 1.363 1_655 S
C587 C590 1.363 . S
N588 C590 1.356 . S
N588 H600 0.984 . S
N588 H601 0.985 . S
N589 C591 1.356 . S
N589 H594 0.984 . S
N589 H595 0.985 . S
C590 C584 1.379 . S
C590 C587 1.363 . S
C590 N588 1.356 . S
C591 C585 1.363 . S
C591 C586 1.379 . S
C591 N589 1.356 . S
N592 C584 1.356 . S
N592 H598 0.984 . S
N592 H599 0.984 . S
N593 C586 1.356 . S
N593 H596 0.984 . S
N593 H597 0.985 . S
H594 N589 0.984 . S
H595 N589 0.985 . S
H596 N593 0.984 . S
H597 N593 0.985 . S
H598 N592 0.984 . S
H599 N592 0.984 . S
H600 N588 0.984 . S
H601 N588 0.985 . S
C602 C603 1.363 . S
C602 C608 1.379 . S
C602 N610 1.356 . S
C603 C602 1.363 . S
C603 C609 1.363 . S
C604 C605 1.363 . S
C604 C609 1.379 . S
C604 N611 1.356 . S
C605 C604 1.363 . S
C605 C608 1.363 . S
N606 C608 1.356 . S
N606 H618 0.984 . S
N606 H619 0.985 . S
N607 C609 1.356 . S
N607 H612 0.984 . S
N607 H613 0.985 . S
C608 C602 1.379 . S
C608 C605 1.363 . S
C608 N606 1.356 . S
C609 C603 1.363 . S
C609 C604 1.379 . S
C609 N607 1.356 . S
N610 C602 1.356 . S
N610 H616 0.984 . S
N610 H617 0.984 . S
N611 C604 1.356 . S
N611 H614 0.984 . S
N611 H615 0.985 . S
H612 N607 0.984 . S
H613 N607 0.985 . S
H614 N611 0.984 . S
H615 N611 0.985 . S
H616 N610 0.984 . S
H617 N610 0.984 . S
H618 N606 0.984 . S
H619 N606 0.985 . S
C620 C621 1.363 . S
C620 C626 1.379 . S
C620 N628 1.356 . S
C621 C620 1.363 . S
C621 C627 1.363 . S
C622 C623 1.363 . S
C622 C627 1.379 . S
C622 N629 1.356 . S
C623 C622 1.363 . S
C623 C626 1.363 . S
N624 C626 1.356 . S
N624 H636 0.984 . S
N624 H637 0.985 . S
N625 C627 1.356 . S
N625 H630 0.984 . S
N625 H631 0.985 . S
C626 C620 1.379 . S
C626 C623 1.363 . S
C626 N624 1.356 . S
C627 C621 1.363 . S
C627 C622 1.379 . S
C627 N625 1.356 . S
N628 C620 1.356 . S
N628 H634 0.984 . S
N628 H635 0.984 . S
N629 C622 1.356 . S
N629 H632 0.984 . S
N629 H633 0.985 . S
H630 N625 0.984 . S
H631 N625 0.985 . S
H632 N629 0.984 . S
H633 N629 0.985 . S
H634 N628 0.984 . S
H635 N628 0.984 . S
H636 N624 0.984 . S
H637 N624 0.985 . S
C638 C639 1.363 . S
C638 C644 1.379 . S
C638 N646 1.356 . S
C639 C638 1.363 . S
C639 C645 1.363 1_455 S
C640 C641 1.363 . S
C640 C645 1.379 . S
C640 N647 1.356 . S
C641 C640 1.363 . S
C641 C644 1.363 1_655 S
N642 C644 1.356 . S
N642 H654 0.984 . S
N642 H655 0.985 . S
N643 C645 1.356 . S
N643 H648 0.984 . S
N643 H649 0.985 . S
C644 C638 1.379 . S
C644 C641 1.363 1_455 S
C644 N642 1.356 . S
C645 C639 1.363 1_655 S
C645 C640 1.379 . S
C645 N643 1.356 . S
N646 C638 1.356 . S
N646 H652 0.984 . S
N646 H653 0.984 . S
N647 C640 1.356 . S
N647 H650 0.984 . S
N647 H651 0.985 . S
H648 N643 0.984 . S
H649 N643 0.985 . S
H650 N647 0.984 . S
H651 N647 0.985 . S
H652 N646 0.984 . S
H653 N646 0.984 . S
H654 N642 0.984 . S
H655 N642 0.985 . S
C656 C657 1.363 1_445 S
C656 C662 1.379 1_556 S
C656 N664 1.356 . S
C657 C656 1.363 1_665 S
C657 C663 1.363 . S
C658 C659 1.363 1_665 S
C658 C663 1.379 1_554 S
C658 N665 1.356 . S
C659 C658 1.363 1_445 S
C659 C662 1.363 . S
N660 C662 1.356 . S
N660 H672 0.976 1_554 S
N660 H673 0.985 . S
N661 C663 1.356 . S
N661 H666 0.984 . S
N661 H667 0.976 1_556 S
C662 C656 1.379 1_554 S
C662 C659 1.363 . S
C662 N660 1.356 . S
C663 C657 1.363 . S
C663 C658 1.379 1_556 S
C663 N661 1.356 . S
N664 C656 1.356 . S
N664 H670 0.984 . S
N664 H671 0.984 . S
N665 C658 1.356 . S
N665 H668 0.984 . S
N665 H669 0.985 . S
H666 N661 0.984 . S
H667 N661 0.976 1_554 S
H668 N665 0.984 . S
H669 N665 0.985 . S
H670 N664 0.984 . S
H671 N664 0.984 . S
H672 N660 0.976 1_556 S
H673 N660 0.985 . S
C674 C675 1.363 1_565 S
C674 C680 1.379 1_556 S
C674 N682 1.356 . S
C675 C674 1.363 1_545 S
C675 C681 1.363 . S
C676 C677 1.363 1_545 S
C676 C681 1.379 1_554 S
C676 N683 1.356 . S
C677 C676 1.363 1_565 S
C677 C680 1.363 . S
N678 C680 1.356 . S
N678 H690 0.972 1_554 S
N678 H691 0.985 . S
N679 C681 1.356 . S
N679 H684 0.984 . S
N679 H685 0.972 1_556 S
C680 C674 1.379 1_554 S
C680 C677 1.363 . S
C680 N678 1.356 . S
C681 C675 1.363 . S
C681 C676 1.379 1_556 S
C681 N679 1.356 . S
N682 C674 1.356 . S
N682 H688 0.984 . S
N682 H689 0.984 . S
N683 C676 1.356 . S
N683 H686 0.984 . S
N683 H687 0.985 . S
H684 N679 0.984 . S
H685 N679 0.972 1_554 S
H686 N683 0.984 . S
H687 N683 0.985 . S
H688 N682 0.984 . S
H689 N682 0.984 . S
H690 N678 0.972 1_556 S
H691 N678 0.985 . S
C692 C693 1.363 . S
C692 C698 1.379 . S
C692 N700 1.356 . S
C693 C692 1.363 . S
C693 C699 1.363 1_545 S
C694 C695 1.363 . S
C694 C699 1.379 . S
C694 N701 1.356 . S
C695 C694 1.363 . S
C695 C698 1.363 1_565 S
N696 C698 1.356 . S
N696 H708 0.984 . S
N696 H709 0.985 . S
N697 C699 1.356 . S
N697 H702 0.984 . S
N697 H703 0.985 . S
C698 C692 1.379 . S
C698 C695 1.363 1_545 S
C698 N696 1.356 . S
C699 C693 1.363 1_565 S
C699 C694 1.379 . S
C699 N697 1.356 . S
N700 C692 1.356 . S
N700 H706 0.984 . S
N700 H707 0.984 . S
N701 C694 1.356 . S
N701 H704 0.984 . S
N701 H705 0.985 . S
H702 N697 0.984 . S
H703 N697 0.985 . S
H704 N701 0.984 . S
H705 N701 0.985 . S
H706 N700 0.984 . S
H707 N700 0.984 . S
H708 N696 0.984 . S
H709 N696 0.985 . S
C710 C711 1.363 . S
C710 C716 1.379 . S
C710 N718 1.356 . S
C711 C710 1.363 . S
C711 C717 1.363 1_465 S
C712 C713 1.363 . S
C712 C717 1.379 . S
C712 N719 1.356 . S
C713 C712 1.363 . S
C713 C716 1.363 1_645 S
N714 C716 1.356 . S
N714 H726 0.984 . S
N714 H727 0.985 1_565 S
N715 C717 1.356 . S
N715 H720 0.984 1_545 S
N715 H721 0.985 . S
C716 C710 1.379 . S
C716 C713 1.363 1_465 S
C716 N714 1.356 . S
C717 C711 1.363 1_645 S
C717 C712 1.379 . S
C717 N715 1.356 . S
N718 C710 1.356 . S
N718 H724 0.984 . S
N718 H725 0.984 . S
N719 C712 1.356 . S
N719 H722 0.984 . S
N719 H723 0.985 . S
H720 N715 0.984 1_565 S
H721 N715 0.985 . S
H722 N719 0.984 . S
H723 N719 0.985 . S
H724 N718 0.984 . S
H725 N718 0.984 . S
H726 N714 0.984 . S
H727 N714 0.985 1_545 S
C728 C729 1.363 . S
C728 C734 1.379 1_554 S
C728 N736 1.356 . S
C729 C728 1.363 . S
C729 C735 1.363 . S
C730 C731 1.363 . S
C730 C735 1.379 1_556 S
C730 N737 1.356 . S
C731 C730 1.363 . S
C731 C734 1.363 . S
N732 C734 1.356 . S
N732 H744 0.984 . S
N732 H745 0.985 . S
N733 C735 1.356 . S
N733 H738 0.984 . S
N733 H739 0.985 . S
C734 C728 1.379 1_556 S
C734 C731 1.363 . S
C734 N732 1.356 . S
C735 C729 1.363 . S
C735 C730 1.379 1_554 S
C735 N733 1.356 . S
N736 C728 1.356 . S
N736 H742 0.984 . S
N736 H743 0.984 . S
N737 C730 1.356 . S
N737 H740 0.984 . S
N737 H741 0.985 . S
H738 N733 0.984 . S
H739 N733 0.985 . S
H740 N737 0.984 . S
H741 N737 0.985 . S
H742 N736 0.984 . S
H743 N736 0.984 . S
H744 N732 0.984 . S
H745 N732 0.985 . S
C746 C747 1.363 1_455 S
C746 C752 1.379 1_554 S
C746 N754 1.356 . S
C747 C746 1.363 1_655 S
C747 C753 1.363 . S
C748 C749 1.363 1_655 S
C748 C753 1.379 1_556 S
C748 N755 1.356 . S
C749 C748 1.363 1_455 S
C749 C752 1.363 . S
N750 C752 1.356 . S
N750 H762 0.984 . S
N750 H763 0.985 . S
N751 C753 1.356 . S
N751 H756 0.984 . S
N751 H757 0.985 . S
C752 C746 1.379 1_556 S
C752 C749 1.363 . S
C752 N750 1.356 . S
C753 C747 1.363 . S
C753 C748 1.379 1_554 S
C753 N751 1.356 . S
N754 C746 1.356 . S
N754 H760 0.984 . S
N754 H761 0.984 . S
N755 C748 1.356 . S
N755 H758 0.984 . S
N755 H759 0.985 . S
H756 N751 0.984 . S
H757 N751 0.985 . S
H758 N755 0.984 . S
H759 N755 0.985 . S
H760 N754 0.984 . S
H761 N754 0.984 . S
H762 N750 0.984 . S
H763 N750 0.985 . S
C764 C765 1.363 . S
C764 C770 1.379 . S
C764 N772 1.356 . S
C765 C764 1.363 . S
C765 C771 1.363 1_655 S
C766 C767 1.363 . S
C766 C771 1.379 . S
C766 N773 1.356 . S
C767 C766 1.363 . S
C767 C770 1.363 1_455 S
N768 C770 1.356 . S
N768 H780 0.984 . S
N768 H781 0.985 . S
N769 C771 1.356 . S
N769 H774 0.984 . S
N769 H775 0.985 . S
C770 C764 1.379 . S
C770 C767 1.363 1_655 S
C770 N768 1.356 . S
C771 C765 1.363 1_455 S
C771 C766 1.379 . S
C771 N769 1.356 . S
N772 C764 1.356 . S
N772 H778 0.984 . S
N772 H779 0.984 . S
N773 C766 1.356 . S
N773 H776 0.984 . S
N773 H777 0.985 . S
H774 N769 0.984 . S
H775 N769 0.985 . S
H776 N773 0.984 . S
H777 N773 0.985 . S
H778 N772 0.984 . S
H779 N772 0.984 . S
H780 N768 0.984 . S
H781 N768 0.985 . S
C782 C783 1.363 . S
C782 C788 1.379 . S
C782 N790 1.356 . S
C783 C782 1.363 . S
C783 C789 1.363 . S
C784 C785 1.363 . S
C784 C789 1.379 . S
C784 N791 1.356 . S
C785 C784 1.363 . S
C785 C788 1.363 . S
N786 C788 1.356 . S
N786 H798 0.984 . S
N786 H799 0.985 . S
N787 C789 1.356 . S
N787 H792 0.984 . S
N787 H793 0.985 . S
C788 C782 1.379 . S
C788 C785 1.363 . S
C788 N786 1.356 . S
C789 C783 1.363 . S
C789 C784 1.379 . S
C789 N787 1.356 . S
N790 C782 1.356 . S
N790 H796 0.984 . S
N790 H797 0.984 . S
N791 C784 1.356 . S
N791 H794 0.984 . S
N791 H795 0.985 . S
H792 N787 0.984 . S
H793 N787 0.985 . S
H794 N791 0.984 . S
H795 N791 0.985 . S
H796 N790 0.984 . S
H797 N790 0.984 . S
H798 N786 0.984 . S
H799 N786 0.985 . S
C225 C22 1.507 . S
C227 C8 1.507 . S
C243 C36 1.507 . S
C245 C50 1.507 . S
C261 C64 1.507 . S
C263 C78 1.507 . S
C279 C106 1.507 . S
C281 C92 1.507 . S
C297 C134 1.507 . S
C299 C120 1.507 . S
C315 C162 1.507 . S
C317 C148 1.507 . S
C333 C190 1.507 . S
C335 C176 1.507 . S
C351 C218 1.507 . S
C353 C204 1.507 . S
C369 C45 1.440 . S
C371 C3 1.440 . S
C387 C17 1.440 . S
C389 C31 1.440 . S
C405 C101 1.440 . S
C407 C59 1.440 . S
C423 C87 1.440 . S
C425 C73 1.440 . S
C441 C115 1.440 . S
C443 C157 1.440 . S
C459 C143 1.440 . S
C461 C129 1.440 . S
C477 C213 1.440 . S
C479 C171 1.440 . S
C495 C185 1.440 . S
C497 C199 1.440 . S
C513 C9 1.499 . S
C515 C135 1.499 . S
C531 C23 1.499 . S
C533 C121 1.499 . S
C549 C163 1.499 . S
C551 C37 1.499 . S
C567 C149 1.499 . S
C569 C51 1.499 . S
C585 C191 1.499 . S
C587 C65 1.499 . S
C603 C177 1.499 . S
C605 C79 1.499 . S
C621 C93 1.499 . S
C623 C219 1.499 . S
C639 C107 1.499 . S
C641 C205 1.499 . S
C657 C63 1.388 . S
C659 C7 1.388 . S
C675 C77 1.388 . S
C677 C21 1.388 . S
C693 C91 1.388 . S
C695 C35 1.388 . S
C711 C105 1.388 . S
C713 C49 1.388 . S
C729 C119 1.388 . S
C731 C175 1.388 . S
C747 C133 1.388 . S
C749 C189 1.388 . S
C765 C203 1.388 . S
C767 C147 1.388 . S
C783 C217 1.388 . S
C785 C161 1.388 . S
