# Generated by pormake.
# Topology xfi, (7)-cn, num edge types: 1
# Building blocks:
#     Node 0, Type 0, BuildingBlock: HICVOG_clean_sbu_0, # of connection points: 7
#     Node 1, Type 0, BuildingBlock: HICVOG_clean_sbu_0, # of connection points: 7
#     Node 2, Type 0, BuildingBlock: HICVOG_clean_sbu_0, # of connection points: 7
#     Node 3, Type 0, BuildingBlock: HICVOG_clean_sbu_0, # of connection points: 7
#     Node 4, Type 0, BuildingBlock: HICVOG_clean_sbu_0, # of connection points: 7
#     Node 5, Type 0, BuildingBlock: HICVOG_clean_sbu_0, # of connection points: 7
#     Node 6, Type 0, BuildingBlock: HICVOG_clean_sbu_0, # of connection points: 7
#     Node 7, Type 0, BuildingBlock: HICVOG_clean_sbu_0, # of connection points: 7
#     Node 8, Type 0, BuildingBlock: HICVOG_clean_sbu_0, # of connection points: 7
#     Node 9, Type 0, BuildingBlock: HICVOG_clean_sbu_0, # of connection points: 7
#     Node 10, Type 0, BuildingBlock: HICVOG_clean_sbu_0, # of connection points: 7
#     Node 11, Type 0, BuildingBlock: HICVOG_clean_sbu_0, # of connection points: 7
#     Node 12, Type 0, BuildingBlock: HICVOG_clean_sbu_0, # of connection points: 7
#     Node 13, Type 0, BuildingBlock: HICVOG_clean_sbu_0, # of connection points: 7
#     Node 14, Type 0, BuildingBlock: HICVOG_clean_sbu_0, # of connection points: 7
#     Node 15, Type 0, BuildingBlock: HICVOG_clean_sbu_0, # of connection points: 7
#     Edge 16, Type (0, 0), BuildingBlock: XIVTED_clean_linker_0, # of connection points: 2
#     Edge 17, Type (0, 0), BuildingBlock: XIVTED_clean_linker_0, # of connection points: 2
#     Edge 18, Type (0, 0), BuildingBlock: XIVTED_clean_linker_0, # of connection points: 2
#     Edge 19, Type (0, 0), BuildingBlock: XIVTED_clean_linker_0, # of connection points: 2
#     Edge 20, Type (0, 0), BuildingBlock: XIVTED_clean_linker_0, # of connection points: 2
#     Edge 21, Type (0, 0), BuildingBlock: XIVTED_clean_linker_0, # of connection points: 2
#     Edge 22, Type (0, 0), BuildingBlock: XIVTED_clean_linker_0, # of connection points: 2
#     Edge 23, Type (0, 0), BuildingBlock: XIVTED_clean_linker_0, # of connection points: 2
#     Edge 24, Type (0, 0), BuildingBlock: XIVTED_clean_linker_0, # of connection points: 2
#     Edge 25, Type (0, 0), BuildingBlock: XIVTED_clean_linker_0, # of connection points: 2
#     Edge 26, Type (0, 0), BuildingBlock: XIVTED_clean_linker_0, # of connection points: 2
#     Edge 27, Type (0, 0), BuildingBlock: XIVTED_clean_linker_0, # of connection points: 2
#     Edge 28, Type (0, 0), BuildingBlock: XIVTED_clean_linker_0, # of connection points: 2
#     Edge 29, Type (0, 0), BuildingBlock: XIVTED_clean_linker_0, # of connection points: 2
#     Edge 30, Type (0, 0), BuildingBlock: XIVTED_clean_linker_0, # of connection points: 2
#     Edge 31, Type (0, 0), BuildingBlock: XIVTED_clean_linker_0, # of connection points: 2
#     Edge 32, Type (0, 0), BuildingBlock: XIVTED_clean_linker_0, # of connection points: 2
#     Edge 33, Type (0, 0), BuildingBlock: XIVTED_clean_linker_0, # of connection points: 2
#     Edge 34, Type (0, 0), BuildingBlock: XIVTED_clean_linker_0, # of connection points: 2
#     Edge 35, Type (0, 0), BuildingBlock: XIVTED_clean_linker_0, # of connection points: 2
#     Edge 36, Type (0, 0), BuildingBlock: XIVTED_clean_linker_0, # of connection points: 2
#     Edge 37, Type (0, 0), BuildingBlock: XIVTED_clean_linker_0, # of connection points: 2
#     Edge 38, Type (0, 0), BuildingBlock: XIVTED_clean_linker_0, # of connection points: 2
#     Edge 39, Type (0, 0), BuildingBlock: XIVTED_clean_linker_0, # of connection points: 2
#     Edge 40, Type (0, 0), BuildingBlock: XIVTED_clean_linker_0, # of connection points: 2
#     Edge 41, Type (0, 0), BuildingBlock: XIVTED_clean_linker_0, # of connection points: 2
#     Edge 42, Type (0, 0), BuildingBlock: XIVTED_clean_linker_0, # of connection points: 2
#     Edge 43, Type (0, 0), BuildingBlock: XIVTED_clean_linker_0, # of connection points: 2
#     Edge 44, Type (0, 0), BuildingBlock: XIVTED_clean_linker_0, # of connection points: 2
#     Edge 45, Type (0, 0), BuildingBlock: XIVTED_clean_linker_0, # of connection points: 2
#     Edge 46, Type (0, 0), BuildingBlock: XIVTED_clean_linker_0, # of connection points: 2
#     Edge 47, Type (0, 0), BuildingBlock: XIVTED_clean_linker_0, # of connection points: 2
#     Edge 48, Type (0, 0), BuildingBlock: XIVTED_clean_linker_0, # of connection points: 2
#     Edge 49, Type (0, 0), BuildingBlock: XIVTED_clean_linker_0, # of connection points: 2
#     Edge 50, Type (0, 0), BuildingBlock: XIVTED_clean_linker_0, # of connection points: 2
#     Edge 51, Type (0, 0), BuildingBlock: XIVTED_clean_linker_0, # of connection points: 2
#     Edge 52, Type (0, 0), BuildingBlock: XIVTED_clean_linker_0, # of connection points: 2
#     Edge 53, Type (0, 0), BuildingBlock: XIVTED_clean_linker_0, # of connection points: 2
#     Edge 54, Type (0, 0), BuildingBlock: XIVTED_clean_linker_0, # of connection points: 2
#     Edge 55, Type (0, 0), BuildingBlock: XIVTED_clean_linker_0, # of connection points: 2
#     Edge 56, Type (0, 0), BuildingBlock: XIVTED_clean_linker_0, # of connection points: 2
#     Edge 57, Type (0, 0), BuildingBlock: XIVTED_clean_linker_0, # of connection points: 2
#     Edge 58, Type (0, 0), BuildingBlock: XIVTED_clean_linker_0, # of connection points: 2
#     Edge 59, Type (0, 0), BuildingBlock: XIVTED_clean_linker_0, # of connection points: 2
#     Edge 60, Type (0, 0), BuildingBlock: XIVTED_clean_linker_0, # of connection points: 2
#     Edge 61, Type (0, 0), BuildingBlock: XIVTED_clean_linker_0, # of connection points: 2
#     Edge 62, Type (0, 0), BuildingBlock: XIVTED_clean_linker_0, # of connection points: 2
#     Edge 63, Type (0, 0), BuildingBlock: XIVTED_clean_linker_0, # of connection points: 2
#     Edge 64, Type (0, 0), BuildingBlock: XIVTED_clean_linker_0, # of connection points: 2
#     Edge 65, Type (0, 0), BuildingBlock: XIVTED_clean_linker_0, # of connection points: 2
#     Edge 66, Type (0, 0), BuildingBlock: XIVTED_clean_linker_0, # of connection points: 2
#     Edge 67, Type (0, 0), BuildingBlock: XIVTED_clean_linker_0, # of connection points: 2
#     Edge 68, Type (0, 0), BuildingBlock: XIVTED_clean_linker_0, # of connection points: 2
#     Edge 69, Type (0, 0), BuildingBlock: XIVTED_clean_linker_0, # of connection points: 2
#     Edge 70, Type (0, 0), BuildingBlock: XIVTED_clean_linker_0, # of connection points: 2
#     Edge 71, Type (0, 0), BuildingBlock: XIVTED_clean_linker_0, # of connection points: 2
# Relax obj value: 0.158
# Max RMSD: 0.209
# Mean RMSD: 0.209
data_MOF--net-xfi--node1-HICVOG_clean_sbu_0--edge1-XIVTED_clean_linker_0
_symmetry_space_group_name_H-M    P1
_symmetry_Int_Tables_number       1
_symmetry_cell_setting            triclinic
loop_
_symmetry_equiv_pos_as_xyz
'x, y, z'
_cell_length_a     65.7906
_cell_length_b     65.775662
_cell_length_c     17.795291
_cell_angle_alpha  89.97838
_cell_angle_beta   90.010449
_cell_angle_gamma 90.047277
loop_
_atom_site_label
_atom_site_type_symbol
_atom_site_fract_x
_atom_site_fract_y
_atom_site_fract_z
_atom_type_partial_charge
Zn0 Zn 0.34327 0.12802 0.08862 0.0
C1 C 0.30784 0.08387 0.17868 0.0
N2 N 0.29504 0.08989 0.12447 0.0
C3 C 0.30628 0.1032 0.08538 0.0
N4 N 0.32512 0.10552 0.11442 0.0
N5 N 0.32605 0.09329 0.17373 0.0
C6 C 0.34703 0.10213 0.37502 0.0
O7 O 0.34838 0.11866 0.33385 0.0
O8 O 0.34336 0.13114 0.97442 0.0
Zn9 Zn 0.35006 0.0843 0.22796 0.0
N10 N 0.33263 0.15185 0.14073 0.0
C11 C 0.31324 0.16349 0.24523 0.0
C12 C 0.32026 0.14775 0.20018 0.0
C13 C 0.33828 0.17134 0.12456 0.0
N14 N 0.31897 0.18281 0.22972 0.0
C15 C 0.33131 0.18736 0.17068 0.0
O16 O 0.37528 0.10037 0.20505 0.0
C17 C 0.38326 0.11455 0.16645 0.0
O18 O 0.37278 0.12521 0.12105 0.0
H19 H 0.31617 0.13232 0.21393 0.0
H20 H 0.34853 0.17418 0.07819 0.0
C21 C 0.36213 0.0408 0.23029 0.0
C22 C 0.36731 0.02275 0.19196 0.0
C23 C 0.35867 0.03843 0.07607 0.0
C24 C 0.35391 0.05629 0.11373 0.0
N25 N 0.35572 0.05723 0.18976 0.0
N26 N 0.36539 0.02222 0.1158 0.0
H27 H 0.36387 0.04201 0.2906 0.0
C28 C 0.35253 0.11717 0.93819 0.0
O29 O 0.36163 0.1027 0.97643 0.0
O30 O 0.34675 0.0849 0.34216 0.0
H31 H 0.34912 0.06951 0.08235 0.0
H32 H 0.30349 0.16037 0.29282 0.0
H33 H 0.35736 0.03754 0.01556 0.0
Zn34 Zn 0.08399 0.67404 0.78251 0.0
C35 C 0.10265 0.71784 0.92523 0.0
N36 N 0.08945 0.72909 0.88574 0.0
C37 C 0.08354 0.71632 0.83129 0.0
N38 N 0.09292 0.6981 0.83661 0.0
N39 N 0.10503 0.69903 0.89617 0.0
C40 C 0.11535 0.67285 0.07202 0.0
O41 O 0.1006 0.66468 0.03237 0.0
O42 O 0.08483 0.67729 0.66829 0.0
Zn43 Zn 0.12755 0.6811 0.92275 0.0
N44 N 0.05684 0.66837 0.82019 0.0
C45 C 0.03781 0.66575 0.93347 0.0
C46 C 0.05571 0.67049 0.89607 0.0
C47 C 0.04055 0.66166 0.77956 0.0
N48 N 0.02173 0.65874 0.89366 0.0
C49 C 0.02244 0.6565 0.81765 0.0
O50 O 0.12491 0.65154 0.8904 0.0
C51 C 0.11425 0.64101 0.84512 0.0
O52 O 0.10007 0.64894 0.8064 0.0
H53 H 0.06883 0.67551 0.92758 0.0
H54 H 0.0419 0.65968 0.71939 0.0
C55 C 0.17095 0.68608 0.88746 0.0
C56 C 0.18706 0.69332 0.84226 0.0
C57 C 0.16338 0.71218 0.76963 0.0
C58 C 0.14756 0.70488 0.81373 0.0
N59 N 0.15151 0.69199 0.8718 0.0
N60 N 0.18264 0.70619 0.78462 0.0
H61 H 0.17367 0.67543 0.93269 0.0
C62 C 0.10215 0.67682 0.63616 0.0
O63 O 0.11853 0.67525 0.67805 0.0
O64 O 0.13012 0.68114 0.03714 0.0
H65 H 0.13218 0.7092 0.80029 0.0
H66 H 0.03677 0.66729 0.99387 0.0
H67 H 0.16037 0.72235 0.72316 0.0
Zn68 Zn 0.68148 0.89683 0.09132 0.0
C69 C 0.71654 0.94141 0.17993 0.0
N70 N 0.72913 0.93566 0.12469 0.0
C71 C 0.71792 0.9222 0.0863 0.0
N72 N 0.69932 0.91949 0.11682 0.0
N73 N 0.69848 0.93166 0.1762 0.0
C74 C 0.67787 0.92289 0.37774 0.0
O75 O 0.67647 0.90632 0.33683 0.0
O76 O 0.68151 0.89401 0.97713 0.0
Zn77 Zn 0.67449 0.94043 0.23064 0.0
N78 N 0.69262 0.873 0.14206 0.0
C79 C 0.71413 0.86087 0.23993 0.0
C80 C 0.70659 0.87677 0.19675 0.0
C81 C 0.68582 0.85372 0.12896 0.0
N82 N 0.70732 0.84174 0.22731 0.0
C83 C 0.69335 0.83753 0.17305 0.0
O84 O 0.64944 0.92398 0.20857 0.0
C85 C 0.6415 0.90973 0.1702 0.0
O86 O 0.65197 0.89921 0.1243 0.0
H87 H 0.71164 0.89206 0.20818 0.0
H88 H 0.67433 0.85122 0.08649 0.0
C89 C 0.66188 0.98376 0.2318 0.0
C90 C 0.65633 1.00162 0.19295 0.0
C91 C 0.66492 0.98579 0.07739 0.0
C92 C 0.67005 0.96811 0.11557 0.0
N93 N 0.66842 0.96733 0.19168 0.0
N94 N 0.65804 1.00199 0.11673 0.0
H95 H 0.6603 0.98269 0.29221 0.0
C96 C 0.67315 0.90854 0.94119 0.0
O97 O 0.66477 0.92337 0.97969 0.0
O98 O 0.67806 0.94008 0.34462 0.0
H99 H 0.67497 0.95488 0.08453 0.0
H100 H 0.72517 0.86371 0.28374 0.0
H101 H 0.66607 0.98655 0.01681 0.0
Zn102 Zn 0.93932 0.34862 0.78332 0.0
C103 C 0.92036 0.30475 0.92559 0.0
N104 N 0.93361 0.29352 0.88637 0.0
C105 C 0.93965 0.30634 0.83225 0.0
N106 N 0.93029 0.32457 0.83736 0.0
N107 N 0.9181 0.32364 0.89672 0.0
C108 C 0.90668 0.35117 0.07302 0.0
O109 O 0.92113 0.36029 0.03474 0.0
O110 O 0.93883 0.34531 0.66917 0.0
Zn111 Zn 0.89564 0.34177 0.92265 0.0
N112 N 0.96634 0.35431 0.82191 0.0
C113 C 0.98506 0.35723 0.93581 0.0
C114 C 0.96723 0.35248 0.89794 0.0
C115 C 0.9828 0.36073 0.78157 0.0
N116 N 1.00131 0.36396 0.89626 0.0
C117 C 1.00083 0.3659 0.82011 0.0
O118 O 0.89831 0.37128 0.8896 0.0
C119 C 0.90897 0.38178 0.84419 0.0
O120 O 0.9232 0.37382 0.80586 0.0
H121 H 0.95398 0.34767 0.92916 0.0
H122 H 0.98163 0.36248 0.72125 0.0
C123 C 0.85232 0.337 0.88745 0.0
C124 C 0.83611 0.32973 0.84284 0.0
C125 C 0.8596 0.31058 0.77047 0.0
C126 C 0.87551 0.31789 0.81407 0.0
N127 N 0.87169 0.33093 0.87175 0.0
N128 N 0.84039 0.31669 0.7856 0.0
H129 H 0.84974 0.34778 0.93233 0.0
C130 C 0.92162 0.34551 0.63618 0.0
O131 O 0.90506 0.34674 0.67725 0.0
O132 O 0.8927 0.34197 0.03686 0.0
H133 H 0.89086 0.31345 0.80063 0.0
H134 H 0.98592 0.35591 0.99632 0.0
H135 H 0.86249 0.30028 0.72431 0.0
Zn136 Zn 0.34206 0.39595 0.17298 0.0
C137 C 0.30738 0.44038 0.08177 0.0
N138 N 0.29455 0.43478 0.1365 0.0
C139 C 0.30563 0.4215 0.17633 0.0
N140 N 0.3244 0.41878 0.14715 0.0
N141 N 0.32546 0.43075 0.08721 0.0
C142 C 0.34646 0.42178 0.88612 0.0
O143 O 0.34768 0.40521 0.92718 0.0
O144 O 0.34216 0.39294 0.28708 0.0
Zn145 Zn 0.34963 0.43937 0.03318 0.0
N146 N 0.33079 0.37221 0.12187 0.0
C147 C 0.30988 0.36047 0.02155 0.0
C148 C 0.31741 0.37623 0.06542 0.0
C149 C 0.33696 0.35278 0.13611 0.0
N150 N 0.31611 0.34121 0.03519 0.0
C151 C 0.32946 0.33673 0.09122 0.0
O152 O 0.37452 0.42281 0.0558 0.0
C153 C 0.38225 0.40852 0.09446 0.0
O154 O 0.3716 0.39811 0.14017 0.0
H155 H 0.31287 0.39162 0.0531 0.0
H156 H 0.348 0.35002 0.18002 0.0
C157 C 0.36206 0.48278 0.03153 0.0
C158 C 0.36765 0.50067 0.07018 0.0
C159 C 0.35976 0.48462 0.18614 0.0
C160 C 0.35458 0.46693 0.14812 0.0
N161 N 0.35584 0.46625 0.07191 0.0
N162 N 0.36629 0.50094 0.14652 0.0
H163 H 0.36333 0.48177 0.97101 0.0
C164 C 0.35159 0.40678 0.32319 0.0
O165 O 0.36093 0.42108 0.28488 0.0
O166 O 0.3463 0.43899 0.91909 0.0
H167 H 0.3499 0.45362 0.17928 0.0
H168 H 0.29932 0.36353 0.97633 0.0
H169 H 0.3589 0.48531 0.2468 0.0
Zn170 Zn 0.39572 0.68089 0.84101 0.0
C171 C 0.44001 0.71614 0.93095 0.0
N172 N 0.43415 0.7289 0.87636 0.0
C173 C 0.42084 0.71769 0.83719 0.0
N174 N 0.41836 0.69889 0.86658 0.0
N175 N 0.43052 0.69796 0.92604 0.0
C176 C 0.42144 0.67662 0.12755 0.0
O177 O 0.40492 0.67507 0.08642 0.0
O178 O 0.39262 0.68083 0.72689 0.0
Zn179 Zn 0.43936 0.67388 0.98051 0.0
N180 N 0.37192 0.69174 0.89288 0.0
C181 C 0.36029 0.7117 0.9959 0.0
C182 C 0.37601 0.70447 0.95125 0.0
C183 C 0.35244 0.68592 0.87741 0.0
N184 N 0.34098 0.70581 0.98107 0.0
C185 C 0.33642 0.6931 0.92311 0.0
O186 O 0.42319 0.64876 0.9573 0.0
C187 C 0.40897 0.64082 0.91881 0.0
O188 O 0.39832 0.65134 0.87345 0.0
H189 H 0.39144 0.70871 0.96447 0.0
H190 H 0.34961 0.67539 0.83192 0.0
C191 C 0.48266 0.6613 0.98425 0.0
C192 C 0.50073 0.65584 0.94662 0.0
C193 C 0.48559 0.66487 0.8302 0.0
C194 C 0.4677 0.66992 0.86716 0.0
N195 N 0.46647 0.66803 0.94311 0.0
N196 N 0.50154 0.65781 0.87053 0.0
H197 H 0.48124 0.6595 0.04448 0.0
C198 C 0.40672 0.67182 0.69079 0.0
O199 O 0.42129 0.66293 0.72915 0.0
O200 O 0.43865 0.67712 0.09467 0.0
H201 H 0.45466 0.67496 0.83528 0.0
H202 H 0.36341 0.72174 0.04264 0.0
H203 H 0.4867 0.66622 0.76975 0.0
Zn204 Zn 0.68099 0.62787 0.17512 0.0
C205 C 0.71607 0.58534 0.07304 0.0
N206 N 0.72947 0.5913 0.12525 0.0
C207 C 0.71852 0.60412 0.16739 0.0
N208 N 0.69923 0.60614 0.14226 0.0
N209 N 0.69776 0.59432 0.08202 0.0
C210 C 0.67324 0.6063 0.88996 0.0
O211 O 0.66974 0.62117 0.93752 0.0
O212 O 0.68161 0.62808 0.28996 0.0
Zn213 Zn 0.67336 0.58556 0.02993 0.0
N214 N 0.69127 0.65275 0.12789 0.0
C215 C 0.71097 0.66595 0.02656 0.0
C216 C 0.70414 0.64961 0.06907 0.0
C217 C 0.68487 0.67191 0.14559 0.0
N218 N 0.7045 0.6849 0.04362 0.0
C219 C 0.69161 0.68853 0.10186 0.0
O220 O 0.64813 0.60095 0.05886 0.0
C221 C 0.64044 0.61481 0.09972 0.0
O222 O 0.65129 0.62527 0.14461 0.0
H223 H 0.70877 0.63448 0.05351 0.0
H224 H 0.67419 0.67407 0.19102 0.0
C225 C 0.66155 0.54191 0.02233 0.0
C226 C 0.65711 0.52339 0.05889 0.0
C227 C 0.6677 0.53769 0.1749 0.0
C228 C 0.6717 0.55603 0.13917 0.0
N229 N 0.66858 0.55789 0.06393 0.0
N230 N 0.66035 0.52194 0.13424 0.0
H231 H 0.65875 0.54382 0.96282 0.0
C232 C 0.67172 0.63901 0.33621 0.0
O233 O 0.65976 0.65343 0.31068 0.0
O234 O 0.67588 0.58842 0.9159 0.0
H235 H 0.67691 0.5689 0.17162 0.0
H236 H 0.72112 0.66356 0.97956 0.0
H237 H 0.67005 0.53608 0.23477 0.0
Zn238 Zn 0.62715 0.3437 0.83582 0.0
C239 C 0.58299 0.30856 0.92685 0.0
N240 N 0.58885 0.29571 0.8726 0.0
C241 C 0.60212 0.30689 0.83306 0.0
N242 N 0.60458 0.32573 0.8619 0.0
N243 N 0.59248 0.32673 0.92147 0.0
C244 C 0.60139 0.34736 0.12234 0.0
O245 O 0.61794 0.34849 0.08122 0.0
O246 O 0.63024 0.34371 0.7217 0.0
Zn247 Zn 0.58363 0.35079 0.9754 0.0
N248 N 0.65096 0.33293 0.88769 0.0
C249 C 0.66271 0.31321 0.99121 0.0
C250 C 0.64692 0.32042 0.94679 0.0
C251 C 0.67044 0.33856 0.8713 0.0
N252 N 0.68202 0.31889 0.97539 0.0
C253 C 0.68653 0.33139 0.9167 0.0
O254 O 0.59979 0.37597 0.95232 0.0
C255 C 0.61395 0.38383 0.91326 0.0
O256 O 0.62448 0.37323 0.86786 0.0
H257 H 0.6315 0.31633 0.96068 0.0
H258 H 0.6732 0.34893 0.82521 0.0
C259 C 0.5402 0.36298 0.97739 0.0
C260 C 0.52224 0.36834 0.93888 0.0
C261 C 0.53797 0.35983 0.82304 0.0
C262 C 0.55576 0.35489 0.86087 0.0
N263 N 0.55663 0.35657 0.93696 0.0
N264 N 0.52177 0.36658 0.86268 0.0
H265 H 0.54135 0.3646 0.03776 0.0
C266 C 0.61637 0.353 0.68537 0.0
O267 O 0.60199 0.36226 0.72348 0.0
O268 O 0.58416 0.34736 0.08945 0.0
H269 H 0.56899 0.3501 0.82959 0.0
H270 H 0.65965 0.30333 0.03851 0.0
H271 H 0.53713 0.35865 0.76249 0.0
Zn272 Zn 0.84322 0.62676 0.58429 0.0
C273 C 0.80779 0.58222 0.67167 0.0
N274 N 0.79542 0.58803 0.61582 0.0
C275 C 0.80678 0.6015 0.57808 0.0
N276 N 0.82527 0.60415 0.60952 0.0
N277 N 0.8259 0.59194 0.66888 0.0
C278 C 0.84615 0.60149 0.87082 0.0
O279 O 0.84752 0.61787 0.8288 0.0
O280 O 0.84331 0.62957 0.46992 0.0
Zn281 Zn 0.84975 0.58322 0.72483 0.0
N282 N 0.83228 0.65061 0.6357 0.0
C283 C 0.81181 0.66228 0.73731 0.0
C284 C 0.819 0.64657 0.69248 0.0
C285 C 0.83863 0.67002 0.62188 0.0
N286 N 0.81826 0.68151 0.72423 0.0
C287 C 0.83148 0.686 0.6678 0.0
O288 O 0.87496 0.59943 0.70238 0.0
C289 C 0.88303 0.61357 0.66372 0.0
O290 O 0.87267 0.62411 0.61754 0.0
H291 H 0.81431 0.6312 0.70442 0.0
H292 H 0.84955 0.67282 0.57762 0.0
C293 C 0.86205 0.53973 0.72904 0.0
C294 C 0.8675 0.52166 0.69131 0.0
C295 C 0.85927 0.53715 0.57467 0.0
C296 C 0.85425 0.55502 0.61173 0.0
N297 N 0.85573 0.55607 0.68784 0.0
N298 N 0.86591 0.52103 0.61507 0.0
H299 H 0.86352 0.54102 0.78942 0.0
C300 C 0.85161 0.61486 0.43481 0.0
O301 O 0.85978 0.60008 0.47424 0.0
O302 O 0.84603 0.58415 0.83884 0.0
H303 H 0.84951 0.56817 0.57984 0.0
H304 H 0.80136 0.6592 0.78284 0.0
H305 H 0.85823 0.53617 0.51411 0.0
Zn306 Zn 0.58462 0.17416 0.28199 0.0
C307 C 0.60215 0.21819 0.42549 0.0
N308 N 0.58878 0.22921 0.38593 0.0
C309 C 0.58321 0.21639 0.33113 0.0
N310 N 0.59296 0.19837 0.33631 0.0
N311 N 0.60497 0.19948 0.39609 0.0
C312 C 0.61585 0.17336 0.57184 0.0
O313 O 0.60135 0.16476 0.53225 0.0
O314 O 0.5853 0.17751 0.16791 0.0
Zn315 Zn 0.62785 0.18206 0.42263 0.0
N316 N 0.55768 0.16781 0.31991 0.0
C317 C 0.53914 0.16384 0.43376 0.0
C318 C 0.55685 0.16911 0.39609 0.0
C319 C 0.54125 0.16147 0.2792 0.0
N320 N 0.52293 0.1572 0.39382 0.0
C321 C 0.52333 0.15581 0.3175 0.0
O322 O 0.6259 0.1525 0.39004 0.0
C323 C 0.61558 0.14175 0.34438 0.0
O324 O 0.60127 0.14936 0.30543 0.0
H325 H 0.57007 0.1739 0.42751 0.0
H326 H 0.54237 0.16018 0.21872 0.0
C327 C 0.67101 0.18712 0.38611 0.0
C328 C 0.68711 0.19481 0.34192 0.0
C329 C 0.66353 0.21506 0.27415 0.0
C330 C 0.64772 0.20733 0.31728 0.0
N331 N 0.65164 0.19353 0.37246 0.0
N332 N 0.68274 0.20859 0.28718 0.0
H333 H 0.67369 0.17576 0.42896 0.0
C334 C 0.60262 0.17744 0.13577 0.0
O335 O 0.61903 0.17624 0.17765 0.0
O336 O 0.63036 0.18209 0.53695 0.0
H337 H 0.63237 0.21207 0.30538 0.0
H338 H 0.53834 0.16473 0.49439 0.0
H339 H 0.66056 0.22595 0.22995 0.0
Zn340 Zn 0.18052 0.39625 0.58839 0.0
C341 C 0.2151 0.44113 0.6777 0.0
N342 N 0.22778 0.43554 0.6225 0.0
C343 C 0.21671 0.422 0.58384 0.0
N344 N 0.19812 0.41909 0.61419 0.0
N345 N 0.19715 0.4312 0.6737 0.0
C346 C 0.17697 0.42148 0.87502 0.0
O347 O 0.17587 0.40507 0.83313 0.0
O348 O 0.18051 0.3936 0.47406 0.0
Zn349 Zn 0.17317 0.43956 0.72895 0.0
N350 N 0.19191 0.37251 0.63906 0.0
C351 C 0.21302 0.36083 0.7389 0.0
C352 C 0.20539 0.37657 0.69516 0.0
C353 C 0.18574 0.35306 0.62501 0.0
N354 N 0.20678 0.34155 0.72548 0.0
C355 C 0.19333 0.33704 0.66979 0.0
O356 O 0.1483 0.42297 0.70623 0.0
C357 C 0.14044 0.40872 0.66762 0.0
O358 O 0.15097 0.39833 0.6215 0.0
H359 H 0.20995 0.39197 0.70734 0.0
H360 H 0.17463 0.35027 0.58137 0.0
C361 C 0.16065 0.48295 0.73226 0.0
C362 C 0.15497 0.5009 0.69419 0.0
C363 C 0.16269 0.48513 0.57764 0.0
C364 C 0.16796 0.46738 0.61509 0.0
N365 N 0.16683 0.46652 0.6913 0.0
N366 N 0.1562 0.50133 0.61783 0.0
H367 H 0.15949 0.48182 0.79278 0.0
C368 C 0.17192 0.40816 0.43898 0.0
O369 O 0.16342 0.42274 0.4784 0.0
O370 O 0.17682 0.43882 0.84292 0.0
H371 H 0.17263 0.45416 0.58347 0.0
H372 H 0.22366 0.36391 0.78384 0.0
H373 H 0.16345 0.48595 0.51699 0.0
Zn374 Zn 0.44011 0.85007 0.28473 0.0
C375 C 0.42146 0.80626 0.42774 0.0
N376 N 0.4348 0.79508 0.38871 0.0
C377 C 0.44076 0.80788 0.33438 0.0
N378 N 0.43126 0.82604 0.33923 0.0
N379 N 0.41905 0.82508 0.39853 0.0
C380 C 0.40746 0.85225 0.57437 0.0
O381 O 0.42197 0.86126 0.53605 0.0
O382 O 0.43963 0.84662 0.17059 0.0
Zn383 Zn 0.39643 0.84306 0.42403 0.0
N384 N 0.46708 0.85603 0.32334 0.0
C385 C 0.4856 0.85946 0.4375 0.0
C386 C 0.46785 0.85449 0.39947 0.0
C387 C 0.48358 0.86236 0.28305 0.0
N388 N 0.50188 0.86609 0.39799 0.0
C389 C 0.50153 0.86775 0.32173 0.0
O390 O 0.399 0.87259 0.39107 0.0
C391 C 0.40957 0.88308 0.34536 0.0
O392 O 0.42381 0.87514 0.307 0.0
H393 H 0.45456 0.84975 0.43062 0.0
H394 H 0.48251 0.86387 0.22261 0.0
C395 C 0.35317 0.83807 0.38734 0.0
C396 C 0.33716 0.83088 0.34161 0.0
C397 C 0.36096 0.81198 0.26977 0.0
C398 C 0.37669 0.81923 0.31443 0.0
N399 N 0.37263 0.83212 0.37234 0.0
N400 N 0.34168 0.81801 0.28411 0.0
H401 H 0.35036 0.84872 0.43246 0.0
C402 C 0.42242 0.84679 0.1376 0.0
O403 O 0.40587 0.84808 0.17867 0.0
O404 O 0.39339 0.84317 0.53823 0.0
H405 H 0.3921 0.81488 0.30154 0.0
H406 H 0.48635 0.85837 0.4981 0.0
H407 H 0.36406 0.80182 0.22339 0.0
Zn408 Zn 0.85063 0.93766 0.53212 0.0
C409 C 0.80684 0.92113 0.67853 0.0
N410 N 0.79593 0.93451 0.63855 0.0
C411 C 0.80873 0.93975 0.58329 0.0
N412 N 0.82664 0.92982 0.58857 0.0
N413 N 0.8255 0.91799 0.64889 0.0
C414 C 0.85658 0.90712 0.82048 0.0
O415 O 0.86743 0.91868 0.77552 0.0
O416 O 0.84634 0.93649 0.41859 0.0
Zn417 Zn 0.84283 0.895 0.67658 0.0
N418 N 0.85782 0.96451 0.56891 0.0
C419 C 0.86379 0.98256 0.68264 0.0
C420 C 0.85779 0.96503 0.64527 0.0
C421 C 0.86357 0.98108 0.52772 0.0
N422 N 0.86989 0.99888 0.64217 0.0
C423 C 0.87001 0.9988 0.56565 0.0
O424 O 0.87206 0.89578 0.6384 0.0
C425 C 0.88267 0.90591 0.59166 0.0
O426 O 0.87506 0.92045 0.55394 0.0
H427 H 0.85343 0.9517 0.67697 0.0
H428 H 0.86382 0.98024 0.46701 0.0
C429 C 0.83739 0.85149 0.64483 0.0
C430 C 0.8288 0.83513 0.60439 0.0
C431 C 0.80598 0.85804 0.54537 0.0
C432 C 0.81465 0.87415 0.58441 0.0
N433 N 0.83017 0.87071 0.63343 0.0
N434 N 0.8133 0.83903 0.55585 0.0
H435 H 0.85007 0.84913 0.68259 0.0
C436 C 0.86152 0.9382 0.37471 0.0
O437 O 0.87943 0.94229 0.40369 0.0
O438 O 0.84442 0.89425 0.79129 0.0
H439 H 0.80924 0.88934 0.57383 0.0
H440 H 0.86392 0.9831 0.7434 0.0
H441 H 0.79371 0.86065 0.50607 0.0
Zn442 Zn 0.89572 0.17953 0.33818 0.0
C443 C 0.93973 0.21508 0.42813 0.0
N444 N 0.93365 0.22782 0.3738 0.0
C445 C 0.92037 0.21651 0.33489 0.0
N446 N 0.91812 0.19769 0.36415 0.0
N447 N 0.93039 0.19681 0.42329 0.0
C448 C 0.9216 0.17494 0.62443 0.0
O449 O 0.90511 0.17299 0.5834 0.0
O450 O 0.89267 0.17976 0.22398 0.0
Zn451 Zn 0.93949 0.17274 0.47717 0.0
N452 N 0.8719 0.18998 0.39089 0.0
C453 C 0.86036 0.20885 0.49683 0.0
C454 C 0.87606 0.20198 0.45129 0.0
C455 C 0.85238 0.18455 0.37423 0.0
N456 N 0.84102 0.20333 0.48083 0.0
C457 C 0.8364 0.19135 0.42085 0.0
O458 O 0.9236 0.14744 0.45331 0.0
C459 C 0.90946 0.13943 0.4146 0.0
O460 O 0.89868 0.14994 0.36962 0.0
H461 H 0.89152 0.20589 0.46539 0.0
H462 H 0.84949 0.17458 0.32706 0.0
C463 C 0.98305 0.16101 0.48017 0.0
C464 C 1.0012 0.156 0.44217 0.0
C465 C 0.98565 0.16465 0.32606 0.0
C466 C 0.9677 0.16924 0.3634 0.0
N467 N 0.96665 0.16733 0.43937 0.0
N468 N 1.00184 0.158 0.36606 0.0
H469 H 0.98176 0.1592 0.54043 0.0
C470 C 0.9073 0.17158 0.18809 0.0
O471 O 0.92224 0.16342 0.2267 0.0
O472 O 0.93879 0.17582 0.59143 0.0
H473 H 0.9545 0.17399 0.33182 0.0
H474 H 0.86353 0.21831 0.54516 0.0
H475 H 0.98663 0.16603 0.26559 0.0
Zn476 Zn 0.17424 0.08469 0.53376 0.0
C477 C 0.21798 0.10356 0.67661 0.0
N478 N 0.22927 0.09034 0.63746 0.0
C479 C 0.21654 0.08433 0.58303 0.0
N480 N 0.19829 0.09366 0.58799 0.0
N481 N 0.19916 0.10584 0.6474 0.0
C482 C 0.1728 0.11609 0.82313 0.0
O483 O 0.16465 0.10133 0.7835 0.0
O484 O 0.1774 0.08551 0.41947 0.0
Zn485 Zn 0.18108 0.12825 0.67384 0.0
N486 N 0.16859 0.05757 0.57168 0.0
C487 C 0.1657 0.03867 0.68524 0.0
C488 C 0.17054 0.05653 0.64765 0.0
C489 C 0.16199 0.04122 0.53113 0.0
N490 N 0.15877 0.02255 0.64551 0.0
C491 C 0.15674 0.02318 0.56942 0.0
O492 O 0.15152 0.12553 0.64139 0.0
C493 C 0.14107 0.11486 0.59587 0.0
O494 O 0.14909 0.10072 0.55725 0.0
H495 H 0.17549 0.06969 0.67906 0.0
H496 H 0.16014 0.04249 0.47087 0.0
C497 C 0.18581 0.17164 0.63826 0.0
C498 C 0.19286 0.18776 0.59274 0.0
C499 C 0.21179 0.16417 0.52006 0.0
C500 C 0.20466 0.14833 0.56447 0.0
N501 N 0.19183 0.15223 0.6227 0.0
N502 N 0.20568 0.1834 0.53493 0.0
H503 H 0.1752 0.17432 0.68363 0.0
C504 C 0.17681 0.10283 0.38731 0.0
O505 O 0.17519 0.1192 0.4292 0.0
O506 O 0.1811 0.13086 0.78824 0.0
H507 H 0.20906 0.13296 0.55111 0.0
H508 H 0.16711 0.03772 0.74571 0.0
H509 H 0.22191 0.1612 0.47344 0.0
Zn510 Zn 0.12852 0.843 0.33597 0.0
C511 C 0.08386 0.80841 0.42686 0.0
N512 N 0.08943 0.79559 0.37209 0.0
C513 C 0.10284 0.80663 0.33266 0.0
N514 N 0.10568 0.82535 0.36211 0.0
N515 N 0.09368 0.82641 0.42194 0.0
C516 C 0.10322 0.84655 0.62281 0.0
O517 O 0.11963 0.84729 0.5808 0.0
O518 O 0.13125 0.84325 0.22163 0.0
Zn519 Zn 0.08525 0.85049 0.47671 0.0
N520 N 0.15231 0.83164 0.38649 0.0
C521 C 0.16403 0.81062 0.48654 0.0
C522 C 0.14828 0.8182 0.44277 0.0
C523 C 0.17175 0.83781 0.37228 0.0
N524 N 0.18329 0.81687 0.473 0.0
C525 C 0.18778 0.83027 0.41712 0.0
O526 O 0.10187 0.87539 0.45414 0.0
C527 C 0.11614 0.88313 0.41532 0.0
O528 O 0.12646 0.8725 0.36934 0.0
H529 H 0.13289 0.81365 0.45509 0.0
H530 H 0.17454 0.84889 0.32851 0.0
C531 C 0.04163 0.86247 0.47847 0.0
C532 C 0.02383 0.86816 0.4395 0.0
C533 C 0.04035 0.86139 0.32356 0.0
C534 C 0.05795 0.85613 0.36191 0.0
N535 N 0.05837 0.85679 0.43825 0.0
N536 N 0.02384 0.86743 0.36305 0.0
H537 H 0.04239 0.86326 0.53915 0.0
C538 C 0.11736 0.85281 0.18632 0.0
O539 O 0.10327 0.86218 0.2255 0.0
O540 O 0.08588 0.84695 0.5908 0.0
H541 H 0.07141 0.85183 0.33093 0.0
H542 H 0.16096 0.80002 0.53164 0.0
H543 H 0.03988 0.86101 0.26281 0.0
H544 H 0.33636 0.14468 0.83739 0.0
H545 H 0.35175 0.07185 0.48018 0.0
H546 H 0.36516 0.08584 0.84894 0.0
H547 H 0.34052 0.13624 0.45992 0.0
H548 H 0.35231 0.07556 0.61723 0.0
H549 H 0.33371 0.14085 0.70038 0.0
C550 C 0.3422 0.13102 0.81123 0.0
C551 C 0.35117 0.11566 0.85489 0.0
C552 C 0.34968 0.08887 0.58275 0.0
C553 C 0.34791 0.11104 0.69832 0.0
C554 C 0.34927 0.08674 0.50448 0.0
C555 C 0.34621 0.10377 0.45831 0.0
C556 C 0.34677 0.10813 0.61535 0.0
C557 C 0.34309 0.1227 0.49318 0.0
C558 C 0.34066 0.12883 0.73305 0.0
C559 C 0.35829 0.09818 0.81778 0.0
N560 N 0.34343 0.12437 0.56944 0.0
N561 N 0.35645 0.09634 0.74197 0.0
H562 H 0.13671 0.68266 0.55317 0.0
H563 H 0.08277 0.66198 0.15827 0.0
H564 H 0.07213 0.67322 0.52926 0.0
H565 H 0.14351 0.68634 0.1759 0.0
H566 H 0.07931 0.66418 0.29443 0.0
H567 H 0.14009 0.68256 0.41627 0.0
C568 C 0.1232 0.68062 0.51918 0.0
C569 C 0.10409 0.67785 0.55299 0.0
C570 C 0.0934 0.66907 0.26868 0.0
C571 C 0.10793 0.67756 0.39574 0.0
C572 C 0.09546 0.66773 0.19074 0.0
C573 C 0.11354 0.67387 0.15528 0.0
C574 C 0.10959 0.67644 0.31223 0.0
C575 C 0.12934 0.68134 0.2007 0.0
C576 C 0.12517 0.68061 0.44091 0.0
C577 C 0.08715 0.67539 0.50583 0.0
N578 N 0.12704 0.68232 0.2768 0.0
N579 N 0.0895 0.67514 0.42976 0.0
H580 H 0.68755 0.8802 0.84005 0.0
H581 H 0.67409 0.95341 0.4824 0.0
H582 H 0.66207 0.94055 0.85231 0.0
H583 H 0.68365 0.88872 0.46314 0.0
H584 H 0.67372 0.94988 0.6195 0.0
H585 H 0.68995 0.88383 0.70295 0.0
C586 C 0.6824 0.89416 0.81402 0.0
C587 C 0.67443 0.91001 0.8579 0.0
C588 C 0.67594 0.93646 0.58523 0.0
C589 C 0.67741 0.91438 0.70119 0.0
C590 C 0.67624 0.93849 0.50692 0.0
C591 C 0.67878 0.92133 0.46102 0.0
C592 C 0.67841 0.91717 0.61813 0.0
C593 C 0.6815 0.90237 0.49617 0.0
C594 C 0.6838 0.89624 0.73578 0.0
C595 C 0.66816 0.92784 0.82096 0.0
N596 N 0.68125 0.9008 0.57246 0.0
N597 N 0.66983 0.92955 0.74505 0.0
H598 H 0.95192 0.35042 0.53128 0.0
H599 H 0.8792 0.3349 0.17368 0.0
H600 H 0.88756 0.33888 0.55103 0.0
H601 H 0.938 0.36388 0.16238 0.0
H602 H 0.88303 0.33222 0.31066 0.0
H603 H 0.94825 0.35104 0.3942 0.0
C604 C 0.93705 0.34788 0.50686 0.0
C605 C 0.92001 0.34472 0.55289 0.0
C606 C 0.89504 0.33922 0.27806 0.0
C607 C 0.9157 0.34535 0.39584 0.0
C608 C 0.89285 0.34078 0.19989 0.0
C609 C 0.9082 0.34981 0.15631 0.0
C610 C 0.91281 0.3465 0.31286 0.0
C611 C 0.92566 0.35696 0.19348 0.0
C612 C 0.93494 0.34832 0.42858 0.0
C613 C 0.90111 0.34153 0.51788 0.0
N614 N 0.92751 0.3551 0.2693 0.0
N615 N 0.89946 0.3419 0.44161 0.0
H616 H 0.35131 0.45208 0.78116 0.0
H617 H 0.33505 0.37947 0.42391 0.0
H618 H 0.33955 0.38776 0.80117 0.0
H619 H 0.3646 0.43799 0.41236 0.0
H620 H 0.33244 0.38334 0.56087 0.0
H621 H 0.35174 0.44842 0.64408 0.0
C622 C 0.34869 0.43722 0.7568 0.0
C623 C 0.34553 0.42019 0.80288 0.0
C624 C 0.33955 0.39528 0.52821 0.0
C625 C 0.34593 0.41589 0.64587 0.0
C626 C 0.34107 0.39307 0.45007 0.0
C627 C 0.35024 0.40833 0.40644 0.0
C628 C 0.34701 0.41299 0.56293 0.0
C629 C 0.35757 0.42573 0.44352 0.0
C630 C 0.34902 0.43512 0.67853 0.0
C631 C 0.3422 0.40129 0.76796 0.0
N632 N 0.35575 0.4276 0.51932 0.0
N633 N 0.34248 0.39965 0.6917 0.0
H634 H 0.45185 0.67277 0.23258 0.0
H635 H 0.37884 0.68721 0.58978 0.0
H636 H 0.38723 0.68253 0.21249 0.0
H637 H 0.43833 0.65981 0.60178 0.0
H638 H 0.38257 0.68969 0.45269 0.0
H639 H 0.44822 0.67241 0.36965 0.0
C640 C 0.43692 0.67496 0.25692 0.0
C641 C 0.41981 0.67754 0.2108 0.0
C642 C 0.39476 0.68309 0.48548 0.0
C643 C 0.41554 0.67722 0.36785 0.0
C644 C 0.39263 0.68165 0.5637 0.0
C645 C 0.4082 0.67311 0.60749 0.0
C646 C 0.4127 0.67619 0.45086 0.0
C647 C 0.42583 0.66634 0.5705 0.0
C648 C 0.43484 0.67467 0.3352 0.0
C649 C 0.40083 0.68033 0.24571 0.0
N650 N 0.4276 0.66808 0.49464 0.0
N651 N 0.39921 0.68011 0.32199 0.0
H652 H 0.68337 0.58053 0.77343 0.0
H653 H 0.66088 0.66382 0.45345 0.0
H654 H 0.66474 0.64218 0.81937 0.0
H655 H 0.68431 0.60397 0.40609 0.0
H656 H 0.66191 0.65593 0.58785 0.0
H657 H 0.68373 0.58855 0.63866 0.0
C658 C 0.67935 0.59572 0.75529 0.0
C659 C 0.67394 0.61066 0.80798 0.0
C660 C 0.66698 0.64455 0.54809 0.0
C661 C 0.6743 0.61996 0.65377 0.0
C662 C 0.66636 0.64906 0.47125 0.0
C663 C 0.67279 0.63466 0.41817 0.0
C664 C 0.6739 0.62541 0.57236 0.0
C665 C 0.67968 0.61574 0.44477 0.0
C666 C 0.67959 0.60031 0.67833 0.0
C667 C 0.66899 0.63013 0.78105 0.0
N668 N 0.68 0.61165 0.51978 0.0
N669 N 0.66922 0.63417 0.70611 0.0
H670 H 0.6437 0.33644 0.58494 0.0
H671 H 0.57115 0.35248 0.22726 0.0
H672 H 0.5852 0.36593 0.59585 0.0
H673 H 0.63538 0.34041 0.20743 0.0
H674 H 0.57484 0.35306 0.3643 0.0
H675 H 0.63987 0.33373 0.44796 0.0
C676 C 0.63012 0.34242 0.55864 0.0
C677 C 0.61485 0.3516 0.6021 0.0
C678 C 0.58811 0.35023 0.32992 0.0
C679 C 0.61023 0.34826 0.44559 0.0
C680 C 0.586 0.34982 0.25166 0.0
C681 C 0.603 0.34652 0.20561 0.0
C682 C 0.60733 0.34711 0.36264 0.0
C683 C 0.62187 0.34316 0.2406 0.0
C684 C 0.62792 0.34084 0.48048 0.0
C685 C 0.59747 0.35889 0.56484 0.0
N686 N 0.62353 0.34352 0.31686 0.0
N687 N 0.59562 0.35701 0.48905 0.0
H688 H 0.83999 0.636 0.95382 0.0
H689 H 0.86268 0.58247 0.3481 0.0
H690 H 0.85047 0.57158 0.97778 0.0
H691 H 0.83763 0.64292 0.33136 0.0
H692 H 0.8601 0.57897 0.21206 0.0
H693 H 0.84051 0.63945 0.0907 0.0
C694 C 0.84234 0.62254 0.98782 0.0
C695 C 0.84527 0.60346 0.95401 0.0
C696 C 0.85515 0.59301 0.23797 0.0
C697 C 0.84606 0.60739 0.11123 0.0
C698 C 0.85671 0.59509 0.31585 0.0
C699 C 0.85048 0.6131 0.35153 0.0
C700 C 0.84746 0.6091 0.19468 0.0
C701 C 0.84272 0.62881 0.30638 0.0
C702 C 0.8426 0.62455 0.06608 0.0
C703 C 0.84814 0.58658 1.00119 0.0
N704 N 0.84152 0.62649 0.23032 0.0
N705 N 0.84862 0.58898 0.07723 0.0
H706 H 0.63701 0.18413 0.05271 0.0
H707 H 0.58363 0.16158 0.65827 0.0
H708 H 0.57269 0.17301 0.02903 0.0
H709 H 0.64363 0.18774 0.67544 0.0
H710 H 0.58013 0.16381 0.79442 0.0
H711 H 0.64038 0.18399 0.91582 0.0
C712 C 0.62356 0.18171 0.01877 0.0
C713 C 0.60453 0.17848 0.05263 0.0
C714 C 0.59406 0.16909 0.76856 0.0
C715 C 0.60836 0.17814 0.89542 0.0
C716 C 0.59615 0.16773 0.69064 0.0
C717 C 0.61403 0.17437 0.65508 0.0
C718 C 0.61004 0.17698 0.81196 0.0
C719 C 0.62962 0.18234 0.70034 0.0
C720 C 0.62551 0.18167 0.94051 0.0
C721 C 0.58765 0.17555 0.00554 0.0
N722 N 0.6273 0.18333 0.77642 0.0
N723 N 0.58999 0.17529 0.92948 0.0
H724 H 0.1602 0.44033 0.35219 0.0
H725 H 0.18378 0.38713 0.95824 0.0
H726 H 0.18644 0.38039 0.33567 0.0
H727 H 0.17212 0.45136 0.98172 0.0
H728 H 0.18336 0.38372 0.09514 0.0
H729 H 0.16266 0.44385 0.2161 0.0
C730 C 0.16641 0.42783 0.31998 0.0
C731 C 0.17301 0.40995 0.35572 0.0
C732 C 0.18099 0.39857 0.0704 0.0
C733 C 0.17589 0.41398 0.19887 0.0
C734 C 0.18119 0.40055 0.99214 0.0
C735 C 0.1779 0.41957 0.9582 0.0
C736 C 0.17723 0.41568 0.11543 0.0
C737 C 0.17473 0.4364 1.00525 0.0
C738 C 0.1679 0.42992 0.24208 0.0
C739 C 0.18107 0.39439 0.31064 0.0
N740 N 0.17432 0.43403 0.0813 0.0
N741 N 0.18219 0.39672 0.23458 0.0
H742 H 0.37982 0.83634 0.67525 0.0
H743 H 0.45274 0.8515 0.0326 0.0
H744 H 0.43893 0.86466 0.66353 0.0
H745 H 0.38833 0.84028 0.05253 0.0
H746 H 0.44906 0.85206 0.89552 0.0
H747 H 0.38364 0.83372 0.81226 0.0
C748 C 0.39354 0.84208 0.70138 0.0
C749 C 0.40898 0.85091 0.65767 0.0
C750 C 0.43574 0.84943 0.92994 0.0
C751 C 0.41359 0.84767 0.81425 0.0
C752 C 0.43785 0.84902 0.00822 0.0
C753 C 0.42081 0.84596 0.05431 0.0
C754 C 0.41648 0.84654 0.89725 0.0
C755 C 0.40188 0.84284 0.01935 0.0
C756 C 0.39572 0.84055 0.77956 0.0
C757 C 0.42653 0.85789 0.69473 0.0
N758 N 0.40023 0.84319 0.94308 0.0
N759 N 0.42836 0.85607 0.77056 0.0
H760 H 0.8291 0.92165 0.29746 0.0
H761 H 0.88397 0.93022 0.89722 0.0
H762 H 0.88972 0.94519 0.26516 0.0
H763 H 0.83128 0.89225 0.9321 0.0
H764 H 0.88453 0.93795 0.03092 0.0
H765 H 0.82763 0.91325 0.16293 0.0
C766 C 0.84203 0.92518 0.26213 0.0
C767 C 0.85959 0.93413 0.29283 0.0
C768 C 0.87285 0.92787 0.00963 0.0
C769 C 0.85798 0.92454 0.13906 0.0
C770 C 0.87252 0.92342 0.93303 0.0
C771 C 0.85752 0.91057 0.90301 0.0
C772 C 0.85797 0.91963 0.05726 0.0
C773 C 0.84312 0.90224 0.95267 0.0
C774 C 0.84122 0.92026 0.18547 0.0
C775 C 0.8759 0.93827 0.24429 0.0
N776 N 0.84361 0.90701 0.02731 0.0
N777 N 0.87467 0.93349 0.17012 0.0
H778 H 0.95219 0.17261 0.72944 0.0
H779 H 0.87859 0.18499 0.08633 0.0
H780 H 0.88721 0.17967 0.70941 0.0
H781 H 0.9396 0.16122 0.09971 0.0
H782 H 0.88215 0.18705 0.94907 0.0
H783 H 0.94864 0.17264 0.86654 0.0
C784 C 0.93719 0.17428 0.75378 0.0
C785 C 0.91997 0.176 0.70768 0.0
C786 C 0.89472 0.18135 0.9822 0.0
C787 C 0.91579 0.17611 0.86479 0.0
C788 C 0.89269 0.18016 0.06053 0.0
C789 C 0.90874 0.17275 0.10476 0.0
C790 C 0.91303 0.17534 0.9479 0.0
C791 C 0.92674 0.16687 0.0681 0.0
C792 C 0.93516 0.17421 0.8321 0.0
C793 C 0.90091 0.17814 0.74261 0.0
N794 N 0.9284 0.16834 0.99213 0.0
N795 N 0.89933 0.17815 0.81891 0.0
H796 H 0.162 0.08348 0.90939 0.0
H797 H 0.18245 0.13745 0.30432 0.0
H798 H 0.18621 0.14429 0.92703 0.0
H799 H 0.17335 0.0728 0.2804 0.0
H800 H 0.18233 0.14084 0.16743 0.0
H801 H 0.1642 0.08001 0.04557 0.0
C802 C 0.16771 0.09618 0.94187 0.0
C803 C 0.17381 0.11428 0.90641 0.0
C804 C 0.18045 0.12591 0.19206 0.0
C805 C 0.17639 0.11033 0.06337 0.0
C806 C 0.18047 0.12393 0.27033 0.0
C807 C 0.17781 0.10479 0.30414 0.0
C808 C 0.1775 0.10866 0.14688 0.0
C809 C 0.17544 0.08785 0.25697 0.0
C810 C 0.16906 0.09412 0.01981 0.0
C811 C 0.18124 0.1301 0.95183 0.0
N812 N 0.17518 0.0902 0.1809 0.0
N813 N 0.18222 0.1278 0.02794 0.0
H814 H 0.13732 0.83848 0.70582 0.0
H815 H 0.08602 0.86641 0.09905 0.0
H816 H 0.0737 0.85295 0.7297 0.0
H817 H 0.14407 0.83619 0.08355 0.0
H818 H 0.08223 0.86361 0.96314 0.0
H819 H 0.1409 0.83919 0.84267 0.0
C820 C 0.12406 0.84174 0.73981 0.0
C821 C 0.10517 0.84574 0.706 0.0
C822 C 0.0958 0.85757 0.98932 0.0
C823 C 0.10927 0.84678 0.86312 0.0
C824 C 0.09807 0.85926 0.0671 0.0
C825 C 0.11549 0.85164 0.10308 0.0
C826 C 0.11114 0.84836 0.94645 0.0
C827 C 0.13045 0.84239 0.05832 0.0
C828 C 0.12614 0.84211 0.81803 0.0
C829 C 0.08854 0.84977 0.75314 0.0
N830 N 0.12798 0.8411 0.98235 0.0
N831 N 0.09102 0.85035 0.82913 0.0
H832 H 0.43051 0.91028 0.25899 0.0
H833 H 0.35436 1.00385 0.32262 0.0
H834 H 0.37847 0.90612 0.40614 0.0
H835 H 0.39882 0.99978 0.14529 0.0
H836 H 0.36599 0.97061 0.37039 0.0
H837 H 0.42209 0.94554 0.23356 0.0
C838 C 0.41732 0.91677 0.28632 0.0
C839 C 0.40507 0.90503 0.33422 0.0
C840 C 0.37331 0.97717 0.32158 0.0
C841 C 0.39525 0.94577 0.30485 0.0
C842 C 0.36681 0.99617 0.29478 0.0
C843 C 0.37563 1.00451 0.22983 0.0
C844 C 0.38885 0.96669 0.28349 0.0
C845 C 0.39151 0.99383 0.19521 0.0
C846 C 0.4125 0.937 0.27167 0.0
C847 C 0.38828 0.91452 0.36843 0.0
N848 N 0.39754 0.97554 0.22227 0.0
N849 N 0.38378 0.93432 0.35269 0.0
H850 H 0.90999 0.59296 0.75216 0.0
H851 H 1.00378 0.66886 0.68579 0.0
H852 H 0.9063 0.64431 0.60145 0.0
H853 H 0.99948 0.62506 0.86543 0.0
H854 H 0.97064 0.65696 0.63799 0.0
H855 H 0.94525 0.60144 0.77782 0.0
C856 C 0.91659 0.60601 0.72409 0.0
C857 C 0.90498 0.61805 0.67511 0.0
C858 C 0.97713 0.64983 0.68731 0.0
C859 C 0.9457 0.62794 0.7047 0.0
C860 C 0.99608 0.65648 0.71413 0.0
C861 C 1.00431 0.64794 0.77974 0.0
C862 C 0.96659 0.63442 0.72606 0.0
C863 C 0.9936 0.63216 0.81499 0.0
C864 C 0.93681 0.61085 0.73886 0.0
C865 C 0.91459 0.63466 0.64 0.0
N866 N 0.97535 0.62598 0.78791 0.0
N867 N 0.93437 0.6392 0.65587 0.0
H868 H 0.64679 0.11935 0.40746 0.0
H869 H 0.62327 0.02281 0.1502 0.0
H870 H 0.59527 0.114 0.25834 0.0
H871 H 0.67048 0.02215 0.31813 0.0
H872 H 0.61189 0.05564 0.19667 0.0
H873 H 0.65512 0.08358 0.38249 0.0
C874 C 0.63715 0.11068 0.36997 0.0
C875 C 0.6204 0.11984 0.33441 0.0
C876 C 0.6246 0.04833 0.22428 0.0
C877 C 0.62985 0.07894 0.30578 0.0
C878 C 0.63107 0.02953 0.19775 0.0
C879 C 0.64782 0.01979 0.23037 0.0
C880 C 0.63517 0.05781 0.28322 0.0
C881 C 0.65739 0.02914 0.29187 0.0
C882 C 0.64191 0.09025 0.35588 0.0
C883 C 0.60844 0.10777 0.2866 0.0
N884 N 0.6511 0.04782 0.31577 0.0
N885 N 0.61347 0.08809 0.27347 0.0
H886 H 0.11318 0.42946 0.75402 0.0
H887 H 0.01979 0.353 0.68958 0.0
H888 H 0.11753 0.37747 0.60674 0.0
H889 H 0.02378 0.39742 0.86712 0.0
H890 H 0.05305 0.36472 0.6421 0.0
H891 H 0.07795 0.42087 0.77926 0.0
C892 C 0.10674 0.41624 0.72665 0.0
C893 C 0.11853 0.40406 0.67875 0.0
C894 C 0.04646 0.37201 0.6909 0.0
C895 C 0.07782 0.39404 0.7079 0.0
C896 C 0.02746 0.36546 0.71753 0.0
C897 C 0.01909 0.37425 0.78245 0.0
C898 C 0.05692 0.38756 0.72912 0.0
C899 C 0.02975 0.39014 0.81723 0.0
C900 C 0.08653 0.41133 0.74118 0.0
C901 C 0.1091 0.38723 0.64445 0.0
N902 N 0.04805 0.39621 0.79032 0.0
N903 N 0.08932 0.38263 0.66009 0.0
H904 H 0.35393 0.51991 0.94128 0.0
H905 H 0.43032 0.6135 1.00309 0.0
H906 H 0.39945 0.52355 0.11514 0.0
H907 H 0.3777 0.6178 0.85882 0.0
H908 H 0.42208 0.57814 0.02779 0.0
H909 H 0.36531 0.55328 0.89379 0.0
C910 C 0.36656 0.52752 0.96839 0.0
C911 C 0.37575 0.51902 0.03233 0.0
C912 C 0.41233 0.58674 0.99046 0.0
C913 C 0.38869 0.557 0.97899 0.0
C914 C 0.41703 0.60702 0.97625 0.0
C915 C 0.40457 0.61883 0.92939 0.0
C916 C 0.39496 0.57798 0.95793 0.0
C917 C 0.38768 0.60934 0.89572 0.0
C918 C 0.37292 0.5466 0.94176 0.0
C919 C 0.39185 0.52962 0.06604 0.0
N920 N 0.38327 0.5895 0.91107 0.0
N921 N 0.39773 0.54799 0.03918 0.0
H922 H 0.52163 0.62243 0.90557 0.0
H923 H 0.61803 0.64594 0.16323 0.0
H924 H 0.52101 0.66988 0.0725 0.0
H925 H 0.61242 0.59391 0.01677 0.0
H926 H 0.58222 0.6542 0.13856 0.0
H927 H 0.55421 0.61075 0.95366 0.0
C928 C 0.5283 0.63021 0.95328 0.0
C929 C 0.51865 0.64712 0.98514 0.0
C930 C 0.58883 0.64087 0.11255 0.0
C931 C 0.55639 0.63414 0.03979 0.0
C932 C 0.60927 0.63615 0.12653 0.0
C933 C 0.6184 0.6193 0.09143 0.0
C934 C 0.57746 0.6287 0.06299 0.0
C935 C 0.60623 0.60716 0.0446 0.0
C936 C 0.54695 0.62357 0.98073 0.0
C937 C 0.52792 0.65667 0.04683 0.0
N938 N 0.58654 0.61218 0.03146 0.0
N939 N 0.54648 0.65022 0.07158 0.0
H940 H 0.66955 0.50441 0.92822 0.0
H941 H 0.59298 0.41136 0.99792 0.0
H942 H 0.6248 0.50149 0.10476 0.0
H943 H 0.64485 0.40669 0.85021 0.0
H944 H 0.60126 0.44684 0.02021 0.0
H945 H 0.65745 0.4712 0.88151 0.0
C946 C 0.65688 0.497 0.9559 0.0
C947 C 0.64813 0.5056 0.02039 0.0
C948 C 0.61083 0.43814 0.98263 0.0
C949 C 0.63442 0.46783 0.96821 0.0
C950 C 0.60611 0.41779 0.96984 0.0
C951 C 0.61836 0.40585 0.92275 0.0
C952 C 0.628 0.44681 0.94842 0.0
C953 C 0.63504 0.41525 0.8874 0.0
C954 C 0.65012 0.47802 0.92978 0.0
C955 C 0.632 0.49531 0.05504 0.0
N956 N 0.63948 0.43515 0.9014 0.0
N957 N 0.62574 0.477 0.02876 0.0
H958 H 0.50068 0.40116 0.89611 0.0
H959 H 0.40488 0.37734 0.15674 0.0
H960 H 0.50207 0.35418 0.06493 0.0
H961 H 0.40976 0.42898 0.00787 0.0
H962 H 0.44062 0.36914 0.13059 0.0
H963 H 0.46789 0.41239 0.94351 0.0
C964 C 0.49413 0.39337 0.94403 0.0
C965 C 0.50406 0.37674 0.97665 0.0
C966 C 0.43386 0.38235 0.1043 0.0
C967 C 0.4661 0.38921 0.03061 0.0
C968 C 0.41345 0.38703 0.11907 0.0
C969 C 0.40416 0.40378 0.08392 0.0
C970 C 0.44501 0.39447 0.05391 0.0
C971 C 0.41609 0.41581 0.03585 0.0
C972 C 0.47536 0.39976 0.9711 0.0
C973 C 0.49493 0.36719 0.03865 0.0
N974 N 0.43574 0.41084 0.02204 0.0
N975 N 0.47627 0.37339 0.0631 0.0
H976 H 0.85374 0.5025 0.82027 0.0
H977 H 0.93034 0.40911 0.75982 0.0
H978 H 0.89961 0.4991 0.64778 0.0
H979 H 0.87769 0.40478 0.90388 0.0
H980 H 0.92213 0.44446 0.73504 0.0
H981 H 0.86517 0.4692 0.86823 0.0
C982 C 0.86646 0.49496 0.79362 0.0
C983 C 0.87574 0.50349 0.7299 0.0
C984 C 0.91236 0.43587 0.77234 0.0
C985 C 0.88873 0.4656 0.7837 0.0
C986 C 0.91705 0.41558 0.7866 0.0
C987 C 0.90457 0.40377 0.83343 0.0
C988 C 0.89499 0.44461 0.80481 0.0
C989 C 0.88768 0.41324 0.867 0.0
C990 C 0.87286 0.47592 0.8205 0.0
C991 C 0.89196 0.49299 0.69673 0.0
N992 N 0.88329 0.43308 0.85162 0.0
N993 N 0.89787 0.47466 0.72379 0.0
H994 H 0.41056 0.09312 0.2506 0.0
H995 H 0.50409 0.16959 0.18879 0.0
H996 H 0.40632 0.14575 0.10625 0.0
H997 H 0.50068 0.12377 0.36165 0.0
H998 H 0.47075 0.15818 0.14123 0.0
H999 H 0.44595 0.10128 0.27499 0.0
C1000 C 0.41707 0.10639 0.22368 0.0
C1001 C 0.40527 0.11889 0.17689 0.0
C1002 C 0.47748 0.1505 0.18897 0.0
C1003 C 0.44614 0.1284 0.20506 0.0
C1004 C 0.49654 0.15689 0.21563 0.0
C1005 C 0.50508 0.14762 0.27933 0.0
C1006 C 0.46714 0.13465 0.22596 0.0
C1007 C 0.49456 0.13142 0.31273 0.0
C1008 C 0.43736 0.11105 0.23771 0.0
C1009 C 0.41477 0.13575 0.14311 0.0
N1010 N 0.4762 0.12553 0.28587 0.0
N1011 N 0.43463 0.14012 0.15828 0.0
H1012 H 0.16922 0.52023 0.822 0.0
H1013 H 0.09252 0.61356 0.76274 0.0
H1014 H 0.12275 0.52342 0.65156 0.0
H1015 H 0.14566 0.61808 0.90432 0.0
H1016 H 0.10057 0.57815 0.73867 0.0
H1017 H 0.15797 0.55359 0.8698 0.0
C1018 C 0.1564 0.52774 0.79577 0.0
C1019 C 0.1469 0.51914 0.73265 0.0
C1020 C 0.11048 0.5868 0.77528 0.0
C1021 C 0.13412 0.55709 0.78628 0.0
C1022 C 0.10588 0.60711 0.78912 0.0
C1023 C 0.11855 0.61899 0.835 0.0
C1024 C 0.12795 0.57809 0.8072 0.0
C1025 C 0.13552 0.60956 0.86816 0.0
C1026 C 0.15011 0.54681 0.82256 0.0
C1027 C 0.13057 0.52959 0.70001 0.0
N1028 N 0.13983 0.58969 0.85315 0.0
N1029 N 0.12477 0.54796 0.72697 0.0
H1030 H 0.52066 0.85448 0.19203 0.0
H1031 H 0.61433 0.93063 0.25655 0.0
H1032 H 0.52446 0.89937 0.36798 0.0
H1033 H 0.61845 0.8786 0.1094 0.0
H1034 H 0.57903 0.92224 0.28155 0.0
H1035 H 0.55402 0.86599 0.14487 0.0
C1036 C 0.52831 0.867 0.21969 0.0
C1037 C 0.51986 0.87598 0.28409 0.0
C1038 C 0.58757 0.91265 0.24354 0.0
C1039 C 0.55781 0.88906 0.23115 0.0
C1040 C 0.60782 0.91744 0.22915 0.0
C1041 C 0.61956 0.90519 0.18134 0.0
C1042 C 0.57878 0.89541 0.2102 0.0
C1043 C 0.61005 0.88841 0.14703 0.0
C1044 C 0.54737 0.87344 0.19324 0.0
C1045 C 0.53049 0.89194 0.3185 0.0
N1046 N 0.59024 0.88392 0.16252 0.0
N1047 N 0.54885 0.8979 0.2918 0.0
H1048 H 0.85451 0.0186 0.4407 0.0
H1049 H 0.93166 0.11193 0.49495 0.0
H1050 H 0.90276 0.02115 0.60445 0.0
H1051 H 0.87785 0.11645 0.35692 0.0
H1052 H 0.92381 0.07644 0.51885 0.0
H1053 H 0.86538 0.05209 0.39274 0.0
C1054 C 0.86761 0.026 0.46541 0.0
C1055 C 0.87773 0.01717 0.52677 0.0
C1056 C 0.9137 0.08511 0.48305 0.0
C1057 C 0.89009 0.05529 0.47295 0.0
C1058 C 0.91819 0.10547 0.46932 0.0
C1059 C 0.90529 0.11737 0.42447 0.0
C1060 C 0.8961 0.07638 0.45212 0.0
C1061 C 0.88818 0.10792 0.39224 0.0
C1062 C 0.8737 0.04514 0.43853 0.0
C1063 C 0.89443 0.02749 0.55744 0.0
N1064 N 0.88398 0.088 0.40717 0.0
N1065 N 0.90001 0.04594 0.53048 0.0
H1066 H 0.11393 0.09348 0.51084 0.0
H1067 H 0.01994 0.16921 0.57272 0.0
H1068 H 0.11786 0.14592 0.65613 0.0
H1069 H 0.02431 0.12452 0.39629 0.0
H1070 H 0.05323 0.15782 0.62086 0.0
H1071 H 0.07859 0.1016 0.4856 0.0
C1072 C 0.10737 0.1067 0.53781 0.0
C1073 C 0.11907 0.11916 0.5851 0.0
C1074 C 0.04672 0.15039 0.57219 0.0
C1075 C 0.07825 0.12862 0.55594 0.0
C1076 C 0.02769 0.15675 0.54518 0.0
C1077 C 0.01944 0.1478 0.48036 0.0
C1078 C 0.0573 0.13485 0.53444 0.0
C1079 C 0.0302 0.13192 0.4461 0.0
C1080 C 0.0871 0.11134 0.52328 0.0
C1081 C 0.10949 0.13595 0.6189 0.0
N1082 N 0.04852 0.12603 0.47336 0.0
N1083 N 0.08966 0.14029 0.60325 0.0
H1084 H 0.12379 1.00178 0.6123 0.0
H1085 H 0.1472 0.90579 0.35226 0.0
H1086 H 0.1707 1.00297 0.44332 0.0
H1087 H 0.09589 0.91063 0.50248 0.0
H1088 H 0.15545 0.94156 0.37793 0.0
H1089 H 0.11243 0.96897 0.56527 0.0
C1090 C 0.13153 0.99519 0.56439 0.0
C1091 C 0.14818 1.00507 0.53162 0.0
C1092 C 0.1423 0.93478 0.40464 0.0
C1093 C 0.13557 0.96707 0.47815 0.0
C1094 C 0.13759 0.91435 0.39016 0.0
C1095 C 0.12092 0.90504 0.42579 0.0
C1096 C 0.13028 0.94594 0.45522 0.0
C1097 C 0.109 0.91698 0.47412 0.0
C1098 C 0.12507 0.9764 0.53755 0.0
C1099 C 0.15767 0.99587 0.46968 0.0
N1100 N 0.11399 0.93666 0.48763 0.0
N1101 N 0.15141 0.9772 0.44548 0.0
H1102 H 1.00232 0.90138 0.40105 0.0
H1103 H 0.90516 0.8742 0.6514 0.0
H1104 H 1.00287 0.85207 0.56061 0.0
H1105 H 0.91021 0.92654 0.50598 0.0
H1106 H 0.94103 0.86627 0.62592 0.0
H1107 H 0.96907 0.91161 0.44684 0.0
C1108 C 0.99548 0.89286 0.44665 0.0
C1109 C 1.00533 0.87588 0.4771 0.0
C1110 C 0.93425 0.87955 0.60012 0.0
C1111 C 0.9668 0.88721 0.52911 0.0
C1112 C 0.91377 0.88407 0.61447 0.0
C1113 C 0.9045 0.90097 0.58021 0.0
C1114 C 0.9455 0.89202 0.55119 0.0
C1115 C 0.91649 0.91323 0.53316 0.0
C1116 C 0.97643 0.89867 0.47277 0.0
C1117 C 0.9958 0.86537 0.53613 0.0
N1118 N 0.93621 0.90846 0.51993 0.0
N1119 N 0.97688 0.87105 0.55968 0.0
H1120 H 0.33688 0.2165 0.27689 0.0
H1121 H 0.33321 0.30767 0.98358 0.0
H1122 H 0.33765 0.20774 0.03659 0.0
H1123 H 0.33869 0.31639 0.22308 0.0
H1124 H 0.33825 0.27126 1.00123 0.0
H1125 H 0.34102 0.25297 0.25786 0.0
C1126 C 0.33816 0.22223 0.22 0.0
C1127 C 0.33681 0.209 0.15824 0.0
C1128 C 0.33863 0.28113 0.0499 0.0
C1129 C 0.34134 0.25095 0.13599 0.0
C1130 C 0.33571 0.30195 0.03993 0.0
C1131 C 0.33542 0.31515 0.10197 0.0
C1132 C 0.34102 0.27328 0.12266 0.0
C1133 C 0.33893 0.30687 0.17352 0.0
C1134 C 0.34056 0.24309 0.20923 0.0
C1135 C 0.33875 0.2173 0.08591 0.0
N1136 N 0.34132 0.28643 0.18196 0.0
N1137 N 0.34065 0.23778 0.07678 0.0
H1138 H 0.30724 0.68849 0.02987 0.0
H1139 H 0.21621 0.68857 0.7356 0.0
H1140 H 0.31607 0.68547 0.78984 0.0
H1141 H 0.20732 0.68558 0.9756 0.0
H1142 H 0.25263 0.684 0.7543 0.0
H1143 H 0.27079 0.68401 0.01126 0.0
C1144 C 0.30153 0.68665 0.97316 0.0
C1145 C 0.31479 0.68747 0.91131 0.0
C1146 C 0.24273 0.68406 0.80291 0.0
C1147 C 0.27286 0.6825 0.88953 0.0
C1148 C 0.2219 0.68671 0.79233 0.0
C1149 C 0.20864 0.68757 0.85415 0.0
C1150 C 0.25054 0.68252 0.87604 0.0
C1151 C 0.21689 0.68488 0.92623 0.0
C1152 C 0.28069 0.68405 0.96264 0.0
C1153 C 0.30651 0.6848 0.83925 0.0
N1154 N 0.23734 0.68274 0.93522 0.0
N1155 N 0.28605 0.6827 0.83033 0.0
H1156 H 0.68464 0.7079 0.23733 0.0
H1157 H 0.68158 0.81774 0.04278 0.0
H1158 H 0.68485 0.71786 0.99764 0.0
H1159 H 0.69089 0.80814 0.28032 0.0
H1160 H 0.67568 0.78126 0.02766 0.0
H1161 H 0.67984 0.74453 0.25612 0.0
C1162 C 0.68322 0.7177 0.18869 0.0
C1163 C 0.68531 0.70984 0.11581 0.0
C1164 C 0.67875 0.78719 0.08327 0.0
C1165 C 0.68008 0.75172 0.13681 0.0
C1166 C 0.68197 0.80809 0.09203 0.0
C1167 C 0.68687 0.81606 0.16291 0.0
C1168 C 0.68043 0.77418 0.14575 0.0
C1169 C 0.68743 0.80264 0.22442 0.0
C1170 C 0.68064 0.73863 0.1994 0.0
C1171 C 0.68359 0.72331 0.05486 0.0
N1172 N 0.68443 0.78239 0.21435 0.0
N1173 N 0.68124 0.74356 0.06671 0.0
H1174 H 0.70639 0.33897 0.78235 0.0
H1175 H 0.8164 0.33883 0.97616 0.0
H1176 H 0.71621 0.33556 0.02188 0.0
H1177 H 0.8065 0.33347 0.73716 0.0
H1178 H 0.77984 0.34397 0.99338 0.0
H1179 H 0.74304 0.34329 0.76453 0.0
C1180 C 0.71615 0.33954 0.83129 0.0
C1181 C 0.70817 0.33679 0.90375 0.0
C1182 C 0.78573 0.34191 0.93707 0.0
C1183 C 0.75019 0.34143 0.88366 0.0
C1184 C 0.80665 0.33914 0.92716 0.0
C1185 C 0.81456 0.3356 0.85509 0.0
C1186 C 0.77265 0.34118 0.87454 0.0
C1187 C 0.80105 0.33588 0.79387 0.0
C1188 C 0.73712 0.34184 0.82105 0.0
C1189 C 0.72169 0.33737 0.96491 0.0
N1190 N 0.7808 0.33846 0.80501 0.0
N1191 N 0.74199 0.33949 0.95348 0.0
H1192 H 0.83188 0.80701 0.49349 0.0
H1193 H 0.83741 0.71426 0.77691 0.0
H1194 H 0.84105 0.81451 0.73187 0.0
H1195 H 0.8389 0.707 0.53604 0.0
H1196 H 0.84212 0.75081 0.76123 0.0
H1197 H 0.83784 0.77059 0.50697 0.0
C1198 C 0.83545 0.801 0.54864 0.0
C1199 C 0.83585 0.81381 0.61173 0.0
C1200 C 0.84175 0.74123 0.71176 0.0
C1201 C 0.8424 0.77195 0.62781 0.0
C1202 C 0.83902 0.72034 0.72062 0.0
C1203 C 0.83764 0.70753 0.65767 0.0
C1204 C 0.84278 0.74954 0.63924 0.0
C1205 C 0.83998 0.71624 0.58618 0.0
C1206 C 0.83888 0.78019 0.55625 0.0
C1207 C 0.84069 0.80523 0.68167 0.0
N1208 N 0.84213 0.73675 0.5789 0.0
N1209 N 0.84346 0.78478 0.68801 0.0
H1210 H 0.71613 0.19155 0.2339 0.0
H1211 H 0.80725 0.18527 0.52659 0.0
H1212 H 0.70738 0.18453 0.47285 0.0
H1213 H 0.81599 0.18598 0.28629 0.0
H1214 H 0.77076 0.18151 0.50727 0.0
H1215 H 0.75249 0.18609 0.251 0.0
C1216 C 0.72183 0.18862 0.28999 0.0
C1217 C 0.70864 0.18861 0.35207 0.0
C1218 C 0.78064 0.1822 0.45867 0.0
C1219 C 0.75045 0.18253 0.37215 0.0
C1220 C 0.80151 0.18439 0.46962 0.0
C1221 C 0.81474 0.18606 0.40797 0.0
C1222 C 0.77278 0.18195 0.3854 0.0
C1223 C 0.80643 0.18463 0.3355 0.0
C1224 C 0.74263 0.18546 0.29964 0.0
C1225 C 0.71689 0.18455 0.42326 0.0
N1226 N 0.78595 0.18293 0.32625 0.0
N1227 N 0.73731 0.18193 0.43144 0.0
H1228 H 0.18945 0.30808 0.77779 0.0
H1229 H 0.18734 0.21671 0.4858 0.0
H1230 H 0.18426 0.3166 0.5381 0.0
H1231 H 0.18561 0.20811 0.72612 0.0
H1232 H 0.1827 0.25314 0.5041 0.0
H1233 H 0.18457 0.27163 0.76053 0.0
C1234 C 0.18704 0.3023 0.72147 0.0
C1235 C 0.18738 0.31546 0.65926 0.0
C1236 C 0.18304 0.2433 0.55288 0.0
C1237 C 0.18198 0.27354 0.63901 0.0
C1238 C 0.18573 0.22247 0.54253 0.0
C1239 C 0.18698 0.2093 0.60454 0.0
C1240 C 0.18188 0.2512 0.62596 0.0
C1241 C 0.18461 0.21762 0.67663 0.0
C1242 C 0.18421 0.28146 0.71173 0.0
C1243 C 0.18399 0.30711 0.58776 0.0
N1244 N 0.18245 0.23808 0.68538 0.0
N1245 N 0.1817 0.28665 0.57953 0.0
H1246 H 0.30826 0.83591 0.23411 0.0
H1247 H 0.21666 0.83445 0.52519 0.0
H1248 H 0.31663 0.8384 0.47444 0.0
H1249 H 0.20829 0.83907 0.28529 0.0
H1250 H 0.25312 0.8393 0.50808 0.0
H1251 H 0.2718 0.84048 0.25179 0.0
C1252 C 0.30245 0.83766 0.29069 0.0
C1253 C 0.31556 0.83666 0.3529 0.0
C1254 C 0.24332 0.83955 0.45918 0.0
C1255 C 0.27364 0.84169 0.37363 0.0
C1256 C 0.22247 0.83674 0.46885 0.0
C1257 C 0.20936 0.83624 0.40655 0.0
C1258 C 0.25128 0.8416 0.38645 0.0
C1259 C 0.21775 0.83947 0.33501 0.0
C1260 C 0.2816 0.84031 0.3007 0.0
C1261 C 0.30717 0.83921 0.42479 0.0
N1262 N 0.23822 0.84174 0.32686 0.0
N1263 N 0.2867 0.84134 0.4332 0.0
H1264 H 0.28566 0.04908 0.18385 0.0
H1265 H 0.21487 0.09824 0.44122 0.0
H1266 H 0.30862 0.0979 0.3205 0.0
H1267 H 0.23992 0.05034 0.5772 0.0
H1268 H 0.23857 0.08949 0.34091 0.0
H1269 H 0.2605 0.04131 0.28232 0.0
C1270 C 0.28628 0.05727 0.23661 0.0
C1271 C 0.29977 0.07366 0.24565 0.0
C1272 C 0.23814 0.08023 0.39129 0.0
C1273 C 0.27103 0.06521 0.35617 0.0
C1274 C 0.2242 0.08484 0.44759 0.0
C1275 C 0.22469 0.07431 0.51583 0.0
C1276 C 0.25301 0.06543 0.40446 0.0
C1277 C 0.23878 0.05841 0.52432 0.0
C1278 C 0.27186 0.05294 0.29208 0.0
C1279 C 0.2994 0.08444 0.31337 0.0
N1280 N 0.25283 0.05474 0.46987 0.0
N1281 N 0.28494 0.0803 0.36554 0.0
H1282 H 0.09858 0.71504 0.69121 0.0
H1283 H 0.04843 0.78728 0.4355 0.0
H1284 H 0.0493 0.73932 0.82216 0.0
H1285 H 0.09928 0.80816 0.56656 0.0
H1286 H 0.04086 0.76194 0.53372 0.0
H1287 H 0.09069 0.73915 0.59117 0.0
C1288 C 0.08511 0.72432 0.69639 0.0
C1289 C 0.07396 0.7245 0.76327 0.0
C1290 C 0.05297 0.77286 0.54236 0.0
C1291 C 0.06594 0.75318 0.6522 0.0
C1292 C 0.05718 0.78739 0.48709 0.0
C1293 C 0.07405 0.80035 0.4946 0.0
C1294 C 0.06592 0.77132 0.60445 0.0
C1295 C 0.08552 0.79932 0.56069 0.0
C1296 C 0.08098 0.73848 0.64032 0.0
C1297 C 0.05787 0.73843 0.77031 0.0
N1298 N 0.08152 0.78472 0.61245 0.0
N1299 N 0.05459 0.75264 0.71602 0.0
H1300 H 0.81035 0.92528 0.44167 0.0
H1301 H 0.73889 0.9761 0.18632 0.0
H1302 H 0.78609 0.97416 0.57525 0.0
H1303 H 0.71628 0.92663 0.32075 0.0
H1304 H 0.76458 0.98315 0.28372 0.0
H1305 H 0.7864 0.93385 0.34166 0.0
C1306 C 0.80105 0.93875 0.44772 0.0
C1307 C 0.80077 0.94958 0.51537 0.0
C1308 C 0.75323 0.97149 0.29322 0.0
C1309 C 0.77244 0.95841 0.404 0.0
C1310 C 0.7385 0.96759 0.23843 0.0
C1311 C 0.72495 0.95123 0.2471 0.0
C1312 C 0.75434 0.95879 0.35613 0.0
C1313 C 0.72559 0.94004 0.31393 0.0
C1314 C 0.78704 0.9433 0.3915 0.0
C1315 C 0.78701 0.9658 0.52294 0.0
N1316 N 0.74037 0.94374 0.36532 0.0
N1317 N 0.77294 0.96944 0.46852 0.0
H1318 H 0.97449 0.2843 0.82778 0.0
H1319 H 0.92611 0.2131 0.57029 0.0
H1320 H 0.92581 0.30706 0.69011 0.0
H1321 H 0.97351 0.23883 0.43357 0.0
H1322 H 0.93479 0.23682 0.67067 0.0
H1323 H 0.98246 0.25918 0.72948 0.0
C1324 C 0.96637 0.28489 0.77484 0.0
C1325 C 0.94996 0.29832 0.76546 0.0
C1326 C 0.94396 0.23654 0.62009 0.0
C1327 C 0.95866 0.26962 0.65508 0.0
C1328 C 0.9394 0.22259 0.56374 0.0
C1329 C 0.9498 0.22326 0.49526 0.0
C1330 C 0.95858 0.25161 0.60674 0.0
C1331 C 0.96554 0.23754 0.4866 0.0
C1332 C 0.97082 0.27049 0.71947 0.0
C1333 C 0.93928 0.2979 0.69751 0.0
N1334 N 0.96914 0.25161 0.5411 0.0
N1335 N 0.94354 0.28347 0.6454 0.0
H1336 H 0.30832 0.42505 0.94211 0.0
H1337 H 0.23677 0.47626 0.686 0.0
H1338 H 0.28498 0.47501 0.07189 0.0
H1339 H 0.21527 0.42572 0.81746 0.0
H1340 H 0.26228 0.48348 0.78394 0.0
H1341 H 0.28431 0.43318 0.84202 0.0
C1342 C 0.29927 0.43869 0.947 0.0
C1343 C 0.29932 0.44997 0.01357 0.0
C1344 C 0.2512 0.47152 0.79271 0.0
C1345 C 0.27076 0.4583 0.90246 0.0
C1346 C 0.23657 0.46752 0.73761 0.0
C1347 C 0.22338 0.45083 0.74531 0.0
C1348 C 0.25261 0.45856 0.85481 0.0
C1349 C 0.22429 0.43936 0.81143 0.0
C1350 C 0.28517 0.44297 0.8909 0.0
C1351 C 0.28569 0.46633 0.02027 0.0
N1352 N 0.23899 0.44316 0.86301 0.0
N1353 N 0.27152 0.46977 0.96596 0.0
H1354 H 0.47566 0.78593 0.32843 0.0
H1355 H 0.42582 0.71469 0.07235 0.0
H1356 H 0.42634 0.80837 0.19309 0.0
H1357 H 0.47422 0.73927 0.93747 0.0
H1358 H 0.43446 0.73855 0.17233 0.0
H1359 H 0.48323 0.76063 0.23031 0.0
C1360 C 0.4673 0.7864 0.27598 0.0
C1361 C 0.45083 0.79978 0.26724 0.0
C1362 C 0.44384 0.73799 0.12229 0.0
C1363 C 0.45903 0.77085 0.15722 0.0
C1364 C 0.43928 0.72396 0.0662 0.0
C1365 C 0.44998 0.72429 0.99832 0.0
C1366 C 0.45878 0.75275 0.1093 0.0
C1367 C 0.46601 0.73826 0.99009 0.0
C1368 C 0.47151 0.77189 0.22073 0.0
C1369 C 0.43984 0.79922 0.19997 0.0
N1370 N 0.46964 0.75239 0.04434 0.0
N1371 N 0.44387 0.78467 0.14807 0.0
H1372 H 0.71357 0.59867 0.93016 0.0
H1373 H 0.78488 0.54789 0.6758 0.0
H1374 H 0.73807 0.55058 0.0668 0.0
H1375 H 0.808 0.59647 0.81335 0.0
H1376 H 0.75886 0.54091 0.77201 0.0
H1377 H 0.73709 0.58939 0.82974 0.0
C1378 C 0.72275 0.58517 0.93679 0.0
C1379 C 0.72327 0.57481 0.00544 0.0
C1380 C 0.77038 0.55234 0.78244 0.0
C1381 C 0.75123 0.56521 0.89369 0.0
C1382 C 0.78531 0.5562 0.72834 0.0
C1383 C 0.79911 0.5723 0.73822 0.0
C1384 C 0.76937 0.56478 0.84604 0.0
C1385 C 0.7985 0.58323 0.8056 0.0
C1386 C 0.73656 0.58022 0.88033 0.0
C1387 C 0.73697 0.55858 0.01375 0.0
N1388 N 0.78358 0.57954 0.85642 0.0
N1389 N 0.7509 0.5546 0.9592 0.0
H1390 H 0.54778 0.28708 0.9352 0.0
H1391 H 0.59869 0.21554 0.19167 0.0
H1392 H 0.59821 0.30869 0.06688 0.0
H1393 H 0.54861 0.23883 0.32097 0.0
H1394 H 0.59074 0.23969 0.09182 0.0
H1395 H 0.54045 0.26168 0.03342 0.0
C1396 C 0.55647 0.28733 0.98691 0.0
C1397 C 0.57317 0.3005 0.99457 0.0
C1398 C 0.58089 0.23879 0.14054 0.0
C1399 C 0.56533 0.27138 0.10439 0.0
C1400 C 0.58506 0.22461 0.19648 0.0
C1401 C 0.57369 0.22451 0.26287 0.0
C1402 C 0.56556 0.25322 0.15205 0.0
C1403 C 0.55736 0.23816 0.26948 0.0
C1404 C 0.5524 0.27276 0.04218 0.0
C1405 C 0.58458 0.29966 0.06084 0.0
N1406 N 0.55401 0.25239 0.21532 0.0
N1407 N 0.58073 0.285 0.11257 0.0
H1408 H 0.31505 0.1005 0.93713 0.0
H1409 H 0.24777 0.13149 0.66342 0.0
H1410 H 0.27451 0.12897 0.09459 0.0
H1411 H 0.21116 0.09985 0.82617 0.0
H1412 H 0.27187 0.14056 0.76365 0.0
H1413 H 0.29299 0.11136 0.83403 0.0
C1414 C 0.30229 0.1103 0.94937 0.0
C1415 C 0.2972 0.1149 0.02372 0.0
C1416 C 0.25799 0.13253 0.77771 0.0
C1417 C 0.27082 0.12551 0.90753 0.0
C1418 C 0.2442 0.12752 0.72104 0.0
C1419 C 0.22711 0.11553 0.73738 0.0
C1420 C 0.25451 0.12555 0.85097 0.0
C1421 C 0.22353 0.10999 0.81213 0.0
C1422 C 0.28945 0.11613 0.8908 0.0
C1423 C 0.27921 0.12574 0.03749 0.0
N1424 N 0.23722 0.11493 0.86633 0.0
N1425 N 0.2663 0.13014 0.9801 0.0
H1426 H 0.13061 0.7476 0.91147 0.0
H1427 H 0.10031 0.81534 0.18425 0.0
H1428 H 0.09898 0.71119 0.07488 0.0
H1429 H 0.12821 0.77456 0.34245 0.0
H1430 H 0.11102 0.7931 0.08149 0.0
H1431 H 0.13984 0.77173 0.01137 0.0
C1432 C 0.12666 0.74408 0.96916 0.0
C1433 C 0.11463 0.72705 0.9858 0.0
C1434 C 0.11569 0.78953 0.13837 0.0
C1435 C 0.12482 0.75448 0.09899 0.0
C1436 C 0.10994 0.80246 0.19674 0.0
C1437 C 0.11442 0.79734 0.27117 0.0
C1438 C 0.12489 0.77082 0.15538 0.0
C1439 C 0.12506 0.77926 0.28527 0.0
C1440 C 0.13177 0.75789 0.02564 0.0
C1441 C 0.10913 0.72353 0.06062 0.0
N1442 N 0.1294 0.76628 0.22805 0.0
N1443 N 0.11416 0.73724 0.11464 0.0
H1444 H 0.81641 0.92198 0.82696 0.0
H1445 H 0.74753 0.89414 0.10016 0.0
H1446 H 0.77371 0.89722 0.66833 0.0
H1447 H 0.71128 0.92588 0.93668 0.0
H1448 H 0.77158 0.88475 1.00023 0.0
H1449 H 0.7938 0.91189 0.92975 0.0
C1450 C 0.80293 0.91321 0.81422 0.0
C1451 C 0.79731 0.90957 0.73966 0.0
C1452 C 0.75782 0.89293 0.98597 0.0
C1453 C 0.77067 0.89953 0.8557 0.0
C1454 C 0.74404 0.8981 0.04246 0.0
C1455 C 0.72707 0.91018 0.02578 0.0
C1456 C 0.75444 0.89988 0.91259 0.0
C1457 C 0.72359 0.91571 0.95097 0.0
C1458 C 0.78985 0.90775 0.87267 0.0
C1459 C 0.77872 0.8998 0.72552 0.0
N1460 N 0.73726 0.91061 0.89695 0.0
N1461 N 0.76575 0.89565 0.7829 0.0
H1462 H 0.92311 0.31362 0.07377 0.0
H1463 H 0.89242 0.24625 0.34808 0.0
H1464 H 0.89465 0.27289 0.91677 0.0
H1465 H 0.92407 0.20972 0.18535 0.0
H1466 H 0.88328 0.27031 0.24781 0.0
H1467 H 0.91238 0.29155 0.17709 0.0
C1468 C 0.91333 0.30081 0.06168 0.0
C1469 C 0.9087 0.29567 0.98739 0.0
C1470 C 0.89133 0.25646 0.23376 0.0
C1471 C 0.89824 0.26928 0.10382 0.0
C1472 C 0.89637 0.24268 0.29046 0.0
C1473 C 0.90837 0.22562 0.27413 0.0
C1474 C 0.89828 0.25298 0.16048 0.0
C1475 C 0.91391 0.22206 0.19938 0.0
C1476 C 0.90758 0.28796 0.12037 0.0
C1477 C 0.8979 0.27763 0.97381 0.0
N1478 N 0.90893 0.23573 0.14515 0.0
N1479 N 0.89358 0.26471 0.03131 0.0
H1480 H 0.3144 0.42427 0.32461 0.0
H1481 H 0.24668 0.39435 0.59846 0.0
H1482 H 0.27357 0.39605 0.16732 0.0
H1483 H 0.2101 0.42536 0.43401 0.0
H1484 H 0.27088 0.3851 0.4989 0.0
H1485 H 0.2922 0.4137 0.42776 0.0
C1486 C 0.30152 0.4146 0.31243 0.0
C1487 C 0.29638 0.40999 0.23813 0.0
C1488 C 0.25701 0.39305 0.48435 0.0
C1489 C 0.26989 0.39968 0.35432 0.0
C1490 C 0.24315 0.39816 0.54065 0.0
C1491 C 0.22605 0.41002 0.5236 0.0
C1492 C 0.25356 0.3998 0.41078 0.0
C1493 C 0.22252 0.41535 0.44862 0.0
C1494 C 0.28861 0.40892 0.37102 0.0
C1495 C 0.27829 0.39929 0.22439 0.0
N1496 N 0.23627 0.4103 0.39478 0.0
N1497 N 0.26534 0.39503 0.28179 0.0
H1498 H 0.42386 0.70923 0.68871 0.0
H1499 H 0.4241 0.81465 0.57641 0.0
H1500 H 0.39477 0.74919 0.84669 0.0
H1501 H 0.39543 0.77469 0.41715 0.0
H1502 H 0.41337 0.79214 0.67846 0.0
H1503 H 0.41345 0.73172 0.58617 0.0
C1504 C 0.41406 0.72198 0.70111 0.0
C1505 C 0.40919 0.72681 0.77548 0.0
C1506 C 0.4086 0.78878 0.62152 0.0
C1507 C 0.39922 0.75371 0.66014 0.0
C1508 C 0.41433 0.80189 0.56357 0.0
C1509 C 0.40968 0.79707 0.489 0.0
C1510 C 0.39932 0.77015 0.60386 0.0
C1511 C 0.39877 0.77915 0.47444 0.0
C1512 C 0.40851 0.73508 0.6429 0.0
C1513 C 0.39826 0.74473 0.78955 0.0
N1514 N 0.39446 0.76598 0.53116 0.0
N1515 N 0.39414 0.75788 0.73263 0.0
H1516 H 0.70936 0.60165 0.31507 0.0
H1517 H 0.77759 0.63003 0.59109 0.0
H1518 H 0.75148 0.62847 0.15937 0.0
H1519 H 0.81344 0.5975 0.42865 0.0
H1520 H 0.75377 0.63968 0.49064 0.0
H1521 H 0.73169 0.61148 0.41924 0.0
C1522 C 0.72261 0.61087 0.30357 0.0
C1523 C 0.72807 0.61528 0.22948 0.0
C1524 C 0.76742 0.63129 0.47672 0.0
C1525 C 0.7546 0.62479 0.34649 0.0
C1526 C 0.78107 0.62596 0.5335 0.0
C1527 C 0.79786 0.61358 0.51725 0.0
C1528 C 0.77078 0.62424 0.40349 0.0
C1529 C 0.8013 0.6079 0.44259 0.0
C1530 C 0.73556 0.61613 0.3626 0.0
C1531 C 0.74653 0.62538 0.21629 0.0
N1532 N 0.78778 0.61319 0.38827 0.0
N1533 N 0.75947 0.62926 0.27409 0.0
H1534 H 0.5993 0.31565 0.68487 0.0
H1535 H 0.62962 0.24837 0.41097 0.0
H1536 H 0.62783 0.27507 0.84223 0.0
H1537 H 0.59884 0.21152 0.57529 0.0
H1538 H 0.63886 0.27255 0.51068 0.0
H1539 H 0.61011 0.2936 0.58174 0.0
C1540 C 0.60909 0.30287 0.69707 0.0
C1541 C 0.61373 0.29776 0.77137 0.0
C1542 C 0.63096 0.25862 0.52515 0.0
C1543 C 0.62429 0.27141 0.6552 0.0
C1544 C 0.62585 0.24479 0.46877 0.0
C1545 C 0.61406 0.22762 0.48576 0.0
C1546 C 0.62426 0.25509 0.59873 0.0
C1547 C 0.60879 0.224 0.56074 0.0
C1548 C 0.6149 0.29004 0.63849 0.0
C1549 C 0.62457 0.27977 0.78514 0.0
N1550 N 0.61382 0.23774 0.61466 0.0
N1551 N 0.62895 0.26687 0.72774 0.0
loop_
_geom_bond_atom_site_label_1
_geom_bond_atom_site_label_2
_geom_bond_distance
_geom_bond_site_symmetry_2
_ccdc_geom_bond_type
Zn0 N4 2.020 . S
Zn0 O8 2.019 1_554 S
Zn0 N10 2.119 . S
Zn0 O18 1.975 . S
C1 N2 1.334 . S
C1 N5 1.336 . S
N2 C1 1.334 . S
N2 C3 1.334 . S
C3 N2 1.334 . S
C3 N4 1.336 . S
N4 Zn0 2.020 . S
N4 C3 1.336 . S
N4 N5 1.354 . S
N5 C1 1.336 . S
N5 N4 1.354 . S
N5 Zn9 2.020 . S
C6 O7 1.244 . S
C6 O30 1.257 . S
O7 C6 1.244 . S
O8 Zn0 2.019 1_556 S
O8 C28 1.257 . S
Zn9 N5 2.020 . S
Zn9 O16 1.975 . S
Zn9 N25 2.119 . S
Zn9 O30 2.019 . S
N10 Zn0 2.119 . S
N10 C12 1.334 . S
N10 C13 1.328 . S
C11 C12 1.391 . S
C11 N14 1.329 . S
C11 H32 0.930 . S
C12 N10 1.334 . S
C12 C11 1.391 . S
C12 H19 0.930 . S
C13 N10 1.328 . S
C13 C15 1.392 . S
C13 H20 0.930 . S
N14 C11 1.329 . S
N14 C15 1.331 . S
C15 C13 1.392 . S
C15 N14 1.331 . S
O16 Zn9 1.975 . S
O16 C17 1.252 . S
C17 O16 1.252 . S
C17 O18 1.252 . S
O18 Zn0 1.975 . S
O18 C17 1.252 . S
H19 C12 0.930 . S
H20 C13 0.930 . S
C21 C22 1.392 . S
C21 N25 1.328 . S
C21 H27 0.930 . S
C22 C21 1.392 . S
C22 N26 1.331 . S
C23 C24 1.391 . S
C23 N26 1.329 . S
C23 H33 0.930 . S
C24 C23 1.391 . S
C24 N25 1.334 . S
C24 H31 0.930 . S
N25 Zn9 2.119 . S
N25 C21 1.328 . S
N25 C24 1.334 . S
N26 C22 1.331 . S
N26 C23 1.329 . S
H27 C21 0.930 . S
C28 O8 1.257 . S
C28 O29 1.244 . S
O29 C28 1.244 . S
O30 C6 1.257 . S
O30 Zn9 2.019 . S
H31 C24 0.930 . S
H32 C11 0.930 . S
H33 C23 0.930 . S
Zn34 N38 2.020 . S
Zn34 O42 2.019 . S
Zn34 N44 2.119 . S
Zn34 O52 1.975 . S
C35 N36 1.334 . S
C35 N39 1.336 . S
N36 C35 1.334 . S
N36 C37 1.334 . S
C37 N36 1.334 . S
C37 N38 1.336 . S
N38 Zn34 2.020 . S
N38 C37 1.336 . S
N38 N39 1.354 . S
N39 C35 1.336 . S
N39 N38 1.354 . S
N39 Zn43 2.020 . S
C40 O41 1.244 . S
C40 O64 1.257 . S
O41 C40 1.244 . S
O42 Zn34 2.019 . S
O42 C62 1.257 . S
Zn43 N39 2.020 . S
Zn43 O50 1.975 . S
Zn43 N59 2.119 . S
Zn43 O64 2.019 1_556 S
N44 Zn34 2.119 . S
N44 C46 1.334 . S
N44 C47 1.328 . S
C45 C46 1.391 . S
C45 N48 1.329 . S
C45 H66 0.930 . S
C46 N44 1.334 . S
C46 C45 1.391 . S
C46 H53 0.930 . S
C47 N44 1.328 . S
C47 C49 1.392 . S
C47 H54 0.930 . S
N48 C45 1.329 . S
N48 C49 1.331 . S
C49 C47 1.392 . S
C49 N48 1.331 . S
O50 Zn43 1.975 . S
O50 C51 1.252 . S
C51 O50 1.252 . S
C51 O52 1.252 . S
O52 Zn34 1.975 . S
O52 C51 1.252 . S
H53 C46 0.930 . S
H54 C47 0.930 . S
C55 C56 1.392 . S
C55 N59 1.328 . S
C55 H61 0.930 . S
C56 C55 1.392 . S
C56 N60 1.331 . S
C57 C58 1.391 . S
C57 N60 1.329 . S
C57 H67 0.930 . S
C58 C57 1.391 . S
C58 N59 1.334 . S
C58 H65 0.930 . S
N59 Zn43 2.119 . S
N59 C55 1.328 . S
N59 C58 1.334 . S
N60 C56 1.331 . S
N60 C57 1.329 . S
H61 C55 0.930 . S
C62 O42 1.257 . S
C62 O63 1.244 . S
O63 C62 1.244 . S
O64 C40 1.257 . S
O64 Zn43 2.019 1_554 S
H65 C58 0.930 . S
H66 C45 0.930 . S
H67 C57 0.930 . S
Zn68 N72 2.020 . S
Zn68 O76 2.019 1_554 S
Zn68 N78 2.119 . S
Zn68 O86 1.975 . S
C69 N70 1.334 . S
C69 N73 1.336 . S
N70 C69 1.334 . S
N70 C71 1.334 . S
C71 N70 1.334 . S
C71 N72 1.336 . S
N72 Zn68 2.020 . S
N72 C71 1.336 . S
N72 N73 1.354 . S
N73 C69 1.336 . S
N73 N72 1.354 . S
N73 Zn77 2.020 . S
C74 O75 1.244 . S
C74 O98 1.257 . S
O75 C74 1.244 . S
O76 Zn68 2.019 1_556 S
O76 C96 1.257 . S
Zn77 N73 2.020 . S
Zn77 O84 1.975 . S
Zn77 N93 2.119 . S
Zn77 O98 2.019 . S
N78 Zn68 2.119 . S
N78 C80 1.334 . S
N78 C81 1.328 . S
C79 C80 1.391 . S
C79 N82 1.329 . S
C79 H100 0.930 . S
C80 N78 1.334 . S
C80 C79 1.391 . S
C80 H87 0.930 . S
C81 N78 1.328 . S
C81 C83 1.392 . S
C81 H88 0.930 . S
N82 C79 1.329 . S
N82 C83 1.331 . S
C83 C81 1.392 . S
C83 N82 1.331 . S
O84 Zn77 1.975 . S
O84 C85 1.252 . S
C85 O84 1.252 . S
C85 O86 1.252 . S
O86 Zn68 1.975 . S
O86 C85 1.252 . S
H87 C80 0.930 . S
H88 C81 0.930 . S
C89 C90 1.392 . S
C89 N93 1.328 . S
C89 H95 0.930 . S
C90 C89 1.392 . S
C90 N94 1.331 . S
C91 C92 1.391 . S
C91 N94 1.329 . S
C91 H101 0.930 . S
C92 C91 1.391 . S
C92 N93 1.334 . S
C92 H99 0.930 . S
N93 Zn77 2.119 . S
N93 C89 1.328 . S
N93 C92 1.334 . S
N94 C90 1.331 . S
N94 C91 1.329 . S
H95 C89 0.930 . S
C96 O76 1.257 . S
C96 O97 1.244 . S
O97 C96 1.244 . S
O98 C74 1.257 . S
O98 Zn77 2.019 . S
H99 C92 0.930 . S
H100 C79 0.930 . S
H101 C91 0.930 . S
Zn102 N106 2.020 . S
Zn102 O110 2.019 . S
Zn102 N112 2.119 . S
Zn102 O120 1.975 . S
C103 N104 1.334 . S
C103 N107 1.336 . S
N104 C103 1.334 . S
N104 C105 1.334 . S
C105 N104 1.334 . S
C105 N106 1.336 . S
N106 Zn102 2.020 . S
N106 C105 1.336 . S
N106 N107 1.354 . S
N107 C103 1.336 . S
N107 N106 1.354 . S
N107 Zn111 2.020 . S
C108 O109 1.244 . S
C108 O132 1.257 . S
O109 C108 1.244 . S
O110 Zn102 2.019 . S
O110 C130 1.257 . S
Zn111 N107 2.020 . S
Zn111 O118 1.975 . S
Zn111 N127 2.119 . S
Zn111 O132 2.019 1_556 S
N112 Zn102 2.119 . S
N112 C114 1.334 . S
N112 C115 1.328 . S
C113 C114 1.391 . S
C113 N116 1.329 . S
C113 H134 0.930 . S
C114 N112 1.334 . S
C114 C113 1.391 . S
C114 H121 0.930 . S
C115 N112 1.328 . S
C115 C117 1.392 . S
C115 H122 0.930 . S
N116 C113 1.329 . S
N116 C117 1.331 . S
C117 C115 1.392 . S
C117 N116 1.331 . S
O118 Zn111 1.975 . S
O118 C119 1.252 . S
C119 O118 1.252 . S
C119 O120 1.252 . S
O120 Zn102 1.975 . S
O120 C119 1.252 . S
H121 C114 0.930 . S
H122 C115 0.930 . S
C123 C124 1.392 . S
C123 N127 1.328 . S
C123 H129 0.930 . S
C124 C123 1.392 . S
C124 N128 1.331 . S
C125 C126 1.391 . S
C125 N128 1.329 . S
C125 H135 0.930 . S
C126 C125 1.391 . S
C126 N127 1.334 . S
C126 H133 0.930 . S
N127 Zn111 2.119 . S
N127 C123 1.328 . S
N127 C126 1.334 . S
N128 C124 1.331 . S
N128 C125 1.329 . S
H129 C123 0.930 . S
C130 O110 1.257 . S
C130 O131 1.244 . S
O131 C130 1.244 . S
O132 C108 1.257 . S
O132 Zn111 2.019 1_554 S
H133 C126 0.930 . S
H134 C113 0.930 . S
H135 C125 0.930 . S
Zn136 N140 2.020 . S
Zn136 O144 2.019 . S
Zn136 N146 2.119 . S
Zn136 O154 1.975 . S
C137 N138 1.334 . S
C137 N141 1.336 . S
N138 C137 1.334 . S
N138 C139 1.334 . S
C139 N138 1.334 . S
C139 N140 1.336 . S
N140 Zn136 2.020 . S
N140 C139 1.336 . S
N140 N141 1.354 . S
N141 C137 1.336 . S
N141 N140 1.354 . S
N141 Zn145 2.020 1_554 S
C142 O143 1.244 . S
C142 O166 1.257 . S
O143 C142 1.244 . S
O144 Zn136 2.019 . S
O144 C164 1.257 . S
Zn145 N141 2.020 1_556 S
Zn145 O152 1.975 1_556 S
Zn145 N161 2.119 1_556 S
Zn145 O166 2.019 . S
N146 Zn136 2.119 . S
N146 C148 1.334 . S
N146 C149 1.328 . S
C147 C148 1.391 . S
C147 N150 1.329 . S
C147 H168 0.930 1_554 S
C148 N146 1.334 . S
C148 C147 1.391 . S
C148 H155 0.930 . S
C149 N146 1.328 . S
C149 C151 1.392 . S
C149 H156 0.930 . S
N150 C147 1.329 . S
N150 C151 1.331 . S
C151 C149 1.392 . S
C151 N150 1.331 . S
O152 Zn145 1.975 1_554 S
O152 C153 1.252 . S
C153 O152 1.252 . S
C153 O154 1.252 . S
O154 Zn136 1.975 . S
O154 C153 1.252 . S
H155 C148 0.930 . S
H156 C149 0.930 . S
C157 C158 1.392 . S
C157 N161 1.328 1_556 S
C157 H163 0.930 . S
C158 C157 1.392 . S
C158 N162 1.331 1_556 S
C159 C160 1.391 . S
C159 N162 1.329 . S
C159 H169 0.930 . S
C160 C159 1.391 . S
C160 N161 1.334 . S
C160 H167 0.930 . S
N161 Zn145 2.119 1_554 S
N161 C157 1.328 1_554 S
N161 C160 1.334 . S
N162 C158 1.331 1_554 S
N162 C159 1.329 . S
H163 C157 0.930 . S
C164 O144 1.257 . S
C164 O165 1.244 . S
O165 C164 1.244 . S
O166 C142 1.257 . S
O166 Zn145 2.019 . S
H167 C160 0.930 . S
H168 C147 0.930 1_556 S
H169 C159 0.930 . S
Zn170 N174 2.020 . S
Zn170 O178 2.019 . S
Zn170 N180 2.119 . S
Zn170 O188 1.975 . S
C171 N172 1.334 . S
C171 N175 1.336 . S
N172 C171 1.334 . S
N172 C173 1.334 . S
C173 N172 1.334 . S
C173 N174 1.336 . S
N174 Zn170 2.020 . S
N174 C173 1.336 . S
N174 N175 1.354 . S
N175 C171 1.336 . S
N175 N174 1.354 . S
N175 Zn179 2.020 1_556 S
C176 O177 1.244 . S
C176 O200 1.257 . S
O177 C176 1.244 . S
O178 Zn170 2.019 . S
O178 C198 1.257 . S
Zn179 N175 2.020 1_554 S
Zn179 O186 1.975 1_554 S
Zn179 N195 2.119 1_554 S
Zn179 O200 2.019 . S
N180 Zn170 2.119 . S
N180 C182 1.334 . S
N180 C183 1.328 . S
C181 C182 1.391 . S
C181 N184 1.329 . S
C181 H202 0.930 1_556 S
C182 N180 1.334 . S
C182 C181 1.391 . S
C182 H189 0.930 . S
C183 N180 1.328 . S
C183 C185 1.392 . S
C183 H190 0.930 . S
N184 C181 1.329 . S
N184 C185 1.331 . S
C185 C183 1.392 . S
C185 N184 1.331 . S
O186 Zn179 1.975 1_556 S
O186 C187 1.252 . S
C187 O186 1.252 . S
C187 O188 1.252 . S
O188 Zn170 1.975 . S
O188 C187 1.252 . S
H189 C182 0.930 . S
H190 C183 0.930 . S
C191 C192 1.392 . S
C191 N195 1.328 1_554 S
C191 H197 0.930 . S
C192 C191 1.392 . S
C192 N196 1.331 1_554 S
C193 C194 1.391 . S
C193 N196 1.329 . S
C193 H203 0.930 . S
C194 C193 1.391 . S
C194 N195 1.334 . S
C194 H201 0.930 . S
N195 Zn179 2.119 1_556 S
N195 C191 1.328 1_556 S
N195 C194 1.334 . S
N196 C192 1.331 1_556 S
N196 C193 1.329 . S
H197 C191 0.930 . S
C198 O178 1.257 . S
C198 O199 1.244 . S
O199 C198 1.244 . S
O200 C176 1.257 . S
O200 Zn179 2.019 . S
H201 C194 0.930 . S
H202 C181 0.930 1_554 S
H203 C193 0.930 . S
Zn204 N208 2.020 . S
Zn204 O212 2.019 . S
Zn204 N214 2.119 . S
Zn204 O222 1.975 . S
C205 N206 1.334 . S
C205 N209 1.336 . S
N206 C205 1.334 . S
N206 C207 1.334 . S
C207 N206 1.334 . S
C207 N208 1.336 . S
N208 Zn204 2.020 . S
N208 C207 1.336 . S
N208 N209 1.354 . S
N209 C205 1.336 . S
N209 N208 1.354 . S
N209 Zn213 2.020 1_554 S
C210 O211 1.244 . S
C210 O234 1.257 . S
O211 C210 1.244 . S
O212 Zn204 2.019 . S
O212 C232 1.257 . S
Zn213 N209 2.020 1_556 S
Zn213 O220 1.975 1_556 S
Zn213 N229 2.119 1_556 S
Zn213 O234 2.019 . S
N214 Zn204 2.119 . S
N214 C216 1.334 . S
N214 C217 1.328 . S
C215 C216 1.391 . S
C215 N218 1.329 . S
C215 H236 0.930 1_554 S
C216 N214 1.334 . S
C216 C215 1.391 . S
C216 H223 0.930 . S
C217 N214 1.328 . S
C217 C219 1.392 . S
C217 H224 0.930 . S
N218 C215 1.329 . S
N218 C219 1.331 . S
C219 C217 1.392 . S
C219 N218 1.331 . S
O220 Zn213 1.975 1_554 S
O220 C221 1.252 . S
C221 O220 1.252 . S
C221 O222 1.252 . S
O222 Zn204 1.975 . S
O222 C221 1.252 . S
H223 C216 0.930 . S
H224 C217 0.930 . S
C225 C226 1.392 . S
C225 N229 1.328 1_556 S
C225 H231 0.930 . S
C226 C225 1.392 . S
C226 N230 1.331 1_556 S
C227 C228 1.391 . S
C227 N230 1.329 . S
C227 H237 0.930 . S
C228 C227 1.391 . S
C228 N229 1.334 . S
C228 H235 0.930 . S
N229 Zn213 2.119 1_554 S
N229 C225 1.328 1_554 S
N229 C228 1.334 . S
N230 C226 1.331 1_554 S
N230 C227 1.329 . S
H231 C225 0.930 . S
C232 O212 1.257 . S
C232 O233 1.244 . S
O233 C232 1.244 . S
O234 C210 1.257 . S
O234 Zn213 2.019 . S
H235 C228 0.930 . S
H236 C215 0.930 1_556 S
H237 C227 0.930 . S
Zn238 N242 2.020 . S
Zn238 O246 2.019 . S
Zn238 N248 2.119 . S
Zn238 O256 1.975 . S
C239 N240 1.334 . S
C239 N243 1.336 . S
N240 C239 1.334 . S
N240 C241 1.334 . S
C241 N240 1.334 . S
C241 N242 1.336 . S
N242 Zn238 2.020 . S
N242 C241 1.336 . S
N242 N243 1.354 . S
N243 C239 1.336 . S
N243 N242 1.354 . S
N243 Zn247 2.020 1_556 S
C244 O245 1.244 . S
C244 O268 1.257 . S
O245 C244 1.244 . S
O246 Zn238 2.019 . S
O246 C266 1.257 . S
Zn247 N243 2.020 1_554 S
Zn247 O254 1.975 1_554 S
Zn247 N263 2.119 1_554 S
Zn247 O268 2.019 . S
N248 Zn238 2.119 . S
N248 C250 1.334 . S
N248 C251 1.328 . S
C249 C250 1.391 . S
C249 N252 1.329 . S
C249 H270 0.930 1_556 S
C250 N248 1.334 . S
C250 C249 1.391 . S
C250 H257 0.930 . S
C251 N248 1.328 . S
C251 C253 1.392 . S
C251 H258 0.930 . S
N252 C249 1.329 . S
N252 C253 1.331 . S
C253 C251 1.392 . S
C253 N252 1.331 . S
O254 Zn247 1.975 1_556 S
O254 C255 1.252 . S
C255 O254 1.252 . S
C255 O256 1.252 . S
O256 Zn238 1.975 . S
O256 C255 1.252 . S
H257 C250 0.930 . S
H258 C251 0.930 . S
C259 C260 1.392 . S
C259 N263 1.328 1_554 S
C259 H265 0.930 . S
C260 C259 1.392 . S
C260 N264 1.331 1_554 S
C261 C262 1.391 . S
C261 N264 1.329 . S
C261 H271 0.930 . S
C262 C261 1.391 . S
C262 N263 1.334 . S
C262 H269 0.930 . S
N263 Zn247 2.119 1_556 S
N263 C259 1.328 1_556 S
N263 C262 1.334 . S
N264 C260 1.331 1_556 S
N264 C261 1.329 . S
H265 C259 0.930 . S
C266 O246 1.257 . S
C266 O267 1.244 . S
O267 C266 1.244 . S
O268 C244 1.257 . S
O268 Zn247 2.019 . S
H269 C262 0.930 . S
H270 C249 0.930 1_554 S
H271 C261 0.930 . S
Zn272 N276 2.020 . S
Zn272 O280 2.019 . S
Zn272 N282 2.119 . S
Zn272 O290 1.975 . S
C273 N274 1.334 . S
C273 N277 1.336 . S
N274 C273 1.334 . S
N274 C275 1.334 . S
C275 N274 1.334 . S
C275 N276 1.336 . S
N276 Zn272 2.020 . S
N276 C275 1.336 . S
N276 N277 1.354 . S
N277 C273 1.336 . S
N277 N276 1.354 . S
N277 Zn281 2.020 . S
C278 O279 1.244 . S
C278 O302 1.257 . S
O279 C278 1.244 . S
O280 Zn272 2.019 . S
O280 C300 1.257 . S
Zn281 N277 2.020 . S
Zn281 O288 1.975 . S
Zn281 N297 2.119 . S
Zn281 O302 2.019 . S
N282 Zn272 2.119 . S
N282 C284 1.334 . S
N282 C285 1.328 . S
C283 C284 1.391 . S
C283 N286 1.329 . S
C283 H304 0.930 . S
C284 N282 1.334 . S
C284 C283 1.391 . S
C284 H291 0.930 . S
C285 N282 1.328 . S
C285 C287 1.392 . S
C285 H292 0.930 . S
N286 C283 1.329 . S
N286 C287 1.331 . S
C287 C285 1.392 . S
C287 N286 1.331 . S
O288 Zn281 1.975 . S
O288 C289 1.252 . S
C289 O288 1.252 . S
C289 O290 1.252 . S
O290 Zn272 1.975 . S
O290 C289 1.252 . S
H291 C284 0.930 . S
H292 C285 0.930 . S
C293 C294 1.392 . S
C293 N297 1.328 . S
C293 H299 0.930 . S
C294 C293 1.392 . S
C294 N298 1.331 . S
C295 C296 1.391 . S
C295 N298 1.329 . S
C295 H305 0.930 . S
C296 C295 1.391 . S
C296 N297 1.334 . S
C296 H303 0.930 . S
N297 Zn281 2.119 . S
N297 C293 1.328 . S
N297 C296 1.334 . S
N298 C294 1.331 . S
N298 C295 1.329 . S
H299 C293 0.930 . S
C300 O280 1.257 . S
C300 O301 1.244 . S
O301 C300 1.244 . S
O302 C278 1.257 . S
O302 Zn281 2.019 . S
H303 C296 0.930 . S
H304 C283 0.930 . S
H305 C295 0.930 . S
Zn306 N310 2.020 . S
Zn306 O314 2.019 . S
Zn306 N316 2.119 . S
Zn306 O324 1.975 . S
C307 N308 1.334 . S
C307 N311 1.336 . S
N308 C307 1.334 . S
N308 C309 1.334 . S
C309 N308 1.334 . S
C309 N310 1.336 . S
N310 Zn306 2.020 . S
N310 C309 1.336 . S
N310 N311 1.354 . S
N311 C307 1.336 . S
N311 N310 1.354 . S
N311 Zn315 2.020 . S
C312 O313 1.244 . S
C312 O336 1.257 . S
O313 C312 1.244 . S
O314 Zn306 2.019 . S
O314 C334 1.257 . S
Zn315 N311 2.020 . S
Zn315 O322 1.975 . S
Zn315 N331 2.119 . S
Zn315 O336 2.019 . S
N316 Zn306 2.119 . S
N316 C318 1.334 . S
N316 C319 1.328 . S
C317 C318 1.391 . S
C317 N320 1.329 . S
C317 H338 0.930 . S
C318 N316 1.334 . S
C318 C317 1.391 . S
C318 H325 0.930 . S
C319 N316 1.328 . S
C319 C321 1.392 . S
C319 H326 0.930 . S
N320 C317 1.329 . S
N320 C321 1.331 . S
C321 C319 1.392 . S
C321 N320 1.331 . S
O322 Zn315 1.975 . S
O322 C323 1.252 . S
C323 O322 1.252 . S
C323 O324 1.252 . S
O324 Zn306 1.975 . S
O324 C323 1.252 . S
H325 C318 0.930 . S
H326 C319 0.930 . S
C327 C328 1.392 . S
C327 N331 1.328 . S
C327 H333 0.930 . S
C328 C327 1.392 . S
C328 N332 1.331 . S
C329 C330 1.391 . S
C329 N332 1.329 . S
C329 H339 0.930 . S
C330 C329 1.391 . S
C330 N331 1.334 . S
C330 H337 0.930 . S
N331 Zn315 2.119 . S
N331 C327 1.328 . S
N331 C330 1.334 . S
N332 C328 1.331 . S
N332 C329 1.329 . S
H333 C327 0.930 . S
C334 O314 1.257 . S
C334 O335 1.244 . S
O335 C334 1.244 . S
O336 C312 1.257 . S
O336 Zn315 2.019 . S
H337 C330 0.930 . S
H338 C317 0.930 . S
H339 C329 0.930 . S
Zn340 N344 2.020 . S
Zn340 O348 2.019 . S
Zn340 N350 2.119 . S
Zn340 O358 1.975 . S
C341 N342 1.334 . S
C341 N345 1.336 . S
N342 C341 1.334 . S
N342 C343 1.334 . S
C343 N342 1.334 . S
C343 N344 1.336 . S
N344 Zn340 2.020 . S
N344 C343 1.336 . S
N344 N345 1.354 . S
N345 C341 1.336 . S
N345 N344 1.354 . S
N345 Zn349 2.020 . S
C346 O347 1.244 . S
C346 O370 1.257 . S
O347 C346 1.244 . S
O348 Zn340 2.019 . S
O348 C368 1.257 . S
Zn349 N345 2.020 . S
Zn349 O356 1.975 . S
Zn349 N365 2.119 . S
Zn349 O370 2.019 . S
N350 Zn340 2.119 . S
N350 C352 1.334 . S
N350 C353 1.328 . S
C351 C352 1.391 . S
C351 N354 1.329 . S
C351 H372 0.930 . S
C352 N350 1.334 . S
C352 C351 1.391 . S
C352 H359 0.930 . S
C353 N350 1.328 . S
C353 C355 1.392 . S
C353 H360 0.930 . S
N354 C351 1.329 . S
N354 C355 1.331 . S
C355 C353 1.392 . S
C355 N354 1.331 . S
O356 Zn349 1.975 . S
O356 C357 1.252 . S
C357 O356 1.252 . S
C357 O358 1.252 . S
O358 Zn340 1.975 . S
O358 C357 1.252 . S
H359 C352 0.930 . S
H360 C353 0.930 . S
C361 C362 1.392 . S
C361 N365 1.328 . S
C361 H367 0.930 . S
C362 C361 1.392 . S
C362 N366 1.331 . S
C363 C364 1.391 . S
C363 N366 1.329 . S
C363 H373 0.930 . S
C364 C363 1.391 . S
C364 N365 1.334 . S
C364 H371 0.930 . S
N365 Zn349 2.119 . S
N365 C361 1.328 . S
N365 C364 1.334 . S
N366 C362 1.331 . S
N366 C363 1.329 . S
H367 C361 0.930 . S
C368 O348 1.257 . S
C368 O369 1.244 . S
O369 C368 1.244 . S
O370 C346 1.257 . S
O370 Zn349 2.019 . S
H371 C364 0.930 . S
H372 C351 0.930 . S
H373 C363 0.930 . S
Zn374 N378 2.020 . S
Zn374 O382 2.019 . S
Zn374 N384 2.119 . S
Zn374 O392 1.975 . S
C375 N376 1.334 . S
C375 N379 1.336 . S
N376 C375 1.334 . S
N376 C377 1.334 . S
C377 N376 1.334 . S
C377 N378 1.336 . S
N378 Zn374 2.020 . S
N378 C377 1.336 . S
N378 N379 1.354 . S
N379 C375 1.336 . S
N379 N378 1.354 . S
N379 Zn383 2.020 . S
C380 O381 1.244 . S
C380 O404 1.257 . S
O381 C380 1.244 . S
O382 Zn374 2.019 . S
O382 C402 1.257 . S
Zn383 N379 2.020 . S
Zn383 O390 1.975 . S
Zn383 N399 2.119 . S
Zn383 O404 2.019 . S
N384 Zn374 2.119 . S
N384 C386 1.334 . S
N384 C387 1.328 . S
C385 C386 1.391 . S
C385 N388 1.329 . S
C385 H406 0.930 . S
C386 N384 1.334 . S
C386 C385 1.391 . S
C386 H393 0.930 . S
C387 N384 1.328 . S
C387 C389 1.392 . S
C387 H394 0.930 . S
N388 C385 1.329 . S
N388 C389 1.331 . S
C389 C387 1.392 . S
C389 N388 1.331 . S
O390 Zn383 1.975 . S
O390 C391 1.252 . S
C391 O390 1.252 . S
C391 O392 1.252 . S
O392 Zn374 1.975 . S
O392 C391 1.252 . S
H393 C386 0.930 . S
H394 C387 0.930 . S
C395 C396 1.392 . S
C395 N399 1.328 . S
C395 H401 0.930 . S
C396 C395 1.392 . S
C396 N400 1.331 . S
C397 C398 1.391 . S
C397 N400 1.329 . S
C397 H407 0.930 . S
C398 C397 1.391 . S
C398 N399 1.334 . S
C398 H405 0.930 . S
N399 Zn383 2.119 . S
N399 C395 1.328 . S
N399 C398 1.334 . S
N400 C396 1.331 . S
N400 C397 1.329 . S
H401 C395 0.930 . S
C402 O382 1.257 . S
C402 O403 1.244 . S
O403 C402 1.244 . S
O404 C380 1.257 . S
O404 Zn383 2.019 . S
H405 C398 0.930 . S
H406 C385 0.930 . S
H407 C397 0.930 . S
Zn408 N412 2.020 . S
Zn408 O416 2.019 . S
Zn408 N418 2.119 . S
Zn408 O426 1.975 . S
C409 N410 1.334 . S
C409 N413 1.336 . S
N410 C409 1.334 . S
N410 C411 1.334 . S
C411 N410 1.334 . S
C411 N412 1.336 . S
N412 Zn408 2.020 . S
N412 C411 1.336 . S
N412 N413 1.354 . S
N413 C409 1.336 . S
N413 N412 1.354 . S
N413 Zn417 2.020 . S
C414 O415 1.244 . S
C414 O438 1.257 . S
O415 C414 1.244 . S
O416 Zn408 2.019 . S
O416 C436 1.257 . S
Zn417 N413 2.020 . S
Zn417 O424 1.975 . S
Zn417 N433 2.119 . S
Zn417 O438 2.019 . S
N418 Zn408 2.119 . S
N418 C420 1.334 . S
N418 C421 1.328 . S
C419 C420 1.391 . S
C419 N422 1.329 . S
C419 H440 0.930 . S
C420 N418 1.334 . S
C420 C419 1.391 . S
C420 H427 0.930 . S
C421 N418 1.328 . S
C421 C423 1.392 . S
C421 H428 0.930 . S
N422 C419 1.329 . S
N422 C423 1.331 . S
C423 C421 1.392 . S
C423 N422 1.331 . S
O424 Zn417 1.975 . S
O424 C425 1.252 . S
C425 O424 1.252 . S
C425 O426 1.252 . S
O426 Zn408 1.975 . S
O426 C425 1.252 . S
H427 C420 0.930 . S
H428 C421 0.930 . S
C429 C430 1.392 . S
C429 N433 1.328 . S
C429 H435 0.930 . S
C430 C429 1.392 . S
C430 N434 1.331 . S
C431 C432 1.391 . S
C431 N434 1.329 . S
C431 H441 0.930 . S
C432 C431 1.391 . S
C432 N433 1.334 . S
C432 H439 0.930 . S
N433 Zn417 2.119 . S
N433 C429 1.328 . S
N433 C432 1.334 . S
N434 C430 1.331 . S
N434 C431 1.329 . S
H435 C429 0.930 . S
C436 O416 1.257 . S
C436 O437 1.244 . S
O437 C436 1.244 . S
O438 C414 1.257 . S
O438 Zn417 2.019 . S
H439 C432 0.930 . S
H440 C419 0.930 . S
H441 C431 0.930 . S
Zn442 N446 2.020 . S
Zn442 O450 2.019 . S
Zn442 N452 2.119 . S
Zn442 O460 1.975 . S
C443 N444 1.334 . S
C443 N447 1.336 . S
N444 C443 1.334 . S
N444 C445 1.334 . S
C445 N444 1.334 . S
C445 N446 1.336 . S
N446 Zn442 2.020 . S
N446 C445 1.336 . S
N446 N447 1.354 . S
N447 C443 1.336 . S
N447 N446 1.354 . S
N447 Zn451 2.020 . S
C448 O449 1.244 . S
C448 O472 1.257 . S
O449 C448 1.244 . S
O450 Zn442 2.019 . S
O450 C470 1.257 . S
Zn451 N447 2.020 . S
Zn451 O458 1.975 . S
Zn451 N467 2.119 . S
Zn451 O472 2.019 . S
N452 Zn442 2.119 . S
N452 C454 1.334 . S
N452 C455 1.328 . S
C453 C454 1.391 . S
C453 N456 1.329 . S
C453 H474 0.930 . S
C454 N452 1.334 . S
C454 C453 1.391 . S
C454 H461 0.930 . S
C455 N452 1.328 . S
C455 C457 1.392 . S
C455 H462 0.930 . S
N456 C453 1.329 . S
N456 C457 1.331 . S
C457 C455 1.392 . S
C457 N456 1.331 . S
O458 Zn451 1.975 . S
O458 C459 1.252 . S
C459 O458 1.252 . S
C459 O460 1.252 . S
O460 Zn442 1.975 . S
O460 C459 1.252 . S
H461 C454 0.930 . S
H462 C455 0.930 . S
C463 C464 1.392 . S
C463 N467 1.328 . S
C463 H469 0.930 . S
C464 C463 1.392 . S
C464 N468 1.331 . S
C465 C466 1.391 . S
C465 N468 1.329 . S
C465 H475 0.930 . S
C466 C465 1.391 . S
C466 N467 1.334 . S
C466 H473 0.930 . S
N467 Zn451 2.119 . S
N467 C463 1.328 . S
N467 C466 1.334 . S
N468 C464 1.331 . S
N468 C465 1.329 . S
H469 C463 0.930 . S
C470 O450 1.257 . S
C470 O471 1.244 . S
O471 C470 1.244 . S
O472 C448 1.257 . S
O472 Zn451 2.019 . S
H473 C466 0.930 . S
H474 C453 0.930 . S
H475 C465 0.930 . S
Zn476 N480 2.020 . S
Zn476 O484 2.019 . S
Zn476 N486 2.119 . S
Zn476 O494 1.975 . S
C477 N478 1.334 . S
C477 N481 1.336 . S
N478 C477 1.334 . S
N478 C479 1.334 . S
C479 N478 1.334 . S
C479 N480 1.336 . S
N480 Zn476 2.020 . S
N480 C479 1.336 . S
N480 N481 1.354 . S
N481 C477 1.336 . S
N481 N480 1.354 . S
N481 Zn485 2.020 . S
C482 O483 1.244 . S
C482 O506 1.257 . S
O483 C482 1.244 . S
O484 Zn476 2.019 . S
O484 C504 1.257 . S
Zn485 N481 2.020 . S
Zn485 O492 1.975 . S
Zn485 N501 2.119 . S
Zn485 O506 2.019 . S
N486 Zn476 2.119 . S
N486 C488 1.334 . S
N486 C489 1.328 . S
C487 C488 1.391 . S
C487 N490 1.329 . S
C487 H508 0.930 . S
C488 N486 1.334 . S
C488 C487 1.391 . S
C488 H495 0.930 . S
C489 N486 1.328 . S
C489 C491 1.392 . S
C489 H496 0.930 . S
N490 C487 1.329 . S
N490 C491 1.331 . S
C491 C489 1.392 . S
C491 N490 1.331 . S
O492 Zn485 1.975 . S
O492 C493 1.252 . S
C493 O492 1.252 . S
C493 O494 1.252 . S
O494 Zn476 1.975 . S
O494 C493 1.252 . S
H495 C488 0.930 . S
H496 C489 0.930 . S
C497 C498 1.392 . S
C497 N501 1.328 . S
C497 H503 0.930 . S
C498 C497 1.392 . S
C498 N502 1.331 . S
C499 C500 1.391 . S
C499 N502 1.329 . S
C499 H509 0.930 . S
C500 C499 1.391 . S
C500 N501 1.334 . S
C500 H507 0.930 . S
N501 Zn485 2.119 . S
N501 C497 1.328 . S
N501 C500 1.334 . S
N502 C498 1.331 . S
N502 C499 1.329 . S
H503 C497 0.930 . S
C504 O484 1.257 . S
C504 O505 1.244 . S
O505 C504 1.244 . S
O506 C482 1.257 . S
O506 Zn485 2.019 . S
H507 C500 0.930 . S
H508 C487 0.930 . S
H509 C499 0.930 . S
Zn510 N514 2.020 . S
Zn510 O518 2.019 . S
Zn510 N520 2.119 . S
Zn510 O528 1.975 . S
C511 N512 1.334 . S
C511 N515 1.336 . S
N512 C511 1.334 . S
N512 C513 1.334 . S
C513 N512 1.334 . S
C513 N514 1.336 . S
N514 Zn510 2.020 . S
N514 C513 1.336 . S
N514 N515 1.354 . S
N515 C511 1.336 . S
N515 N514 1.354 . S
N515 Zn519 2.020 . S
C516 O517 1.244 . S
C516 O540 1.257 . S
O517 C516 1.244 . S
O518 Zn510 2.019 . S
O518 C538 1.257 . S
Zn519 N515 2.020 . S
Zn519 O526 1.975 . S
Zn519 N535 2.119 . S
Zn519 O540 2.019 . S
N520 Zn510 2.119 . S
N520 C522 1.334 . S
N520 C523 1.328 . S
C521 C522 1.391 . S
C521 N524 1.329 . S
C521 H542 0.930 . S
C522 N520 1.334 . S
C522 C521 1.391 . S
C522 H529 0.930 . S
C523 N520 1.328 . S
C523 C525 1.392 . S
C523 H530 0.930 . S
N524 C521 1.329 . S
N524 C525 1.331 . S
C525 C523 1.392 . S
C525 N524 1.331 . S
O526 Zn519 1.975 . S
O526 C527 1.252 . S
C527 O526 1.252 . S
C527 O528 1.252 . S
O528 Zn510 1.975 . S
O528 C527 1.252 . S
H529 C522 0.930 . S
H530 C523 0.930 . S
C531 C532 1.392 . S
C531 N535 1.328 . S
C531 H537 0.930 . S
C532 C531 1.392 . S
C532 N536 1.331 . S
C533 C534 1.391 . S
C533 N536 1.329 . S
C533 H543 0.930 . S
C534 C533 1.391 . S
C534 N535 1.334 . S
C534 H541 0.930 . S
N535 Zn519 2.119 . S
N535 C531 1.328 . S
N535 C534 1.334 . S
N536 C532 1.331 . S
N536 C533 1.329 . S
H537 C531 0.930 . S
C538 O518 1.257 . S
C538 O539 1.244 . S
O539 C538 1.244 . S
O540 C516 1.257 . S
O540 Zn519 2.019 . S
H541 C534 0.930 . S
H542 C521 0.930 . S
H543 C533 0.930 . S
H544 C550 0.930 . S
H545 C554 0.930 . S
H546 C559 0.929 . S
H547 C557 0.929 . S
H548 C552 0.929 . S
H549 C558 0.929 . S
C550 H544 0.930 . S
C550 C551 1.367 . S
C550 C558 1.378 . S
C551 C550 1.367 . S
C551 C559 1.433 . S
C552 H548 0.929 . S
C552 C554 1.378 . S
C552 C556 1.350 . S
C553 C556 1.463 . S
C553 C558 1.350 . S
C553 N561 1.427 . S
C554 H545 0.930 . S
C554 C552 1.378 . S
C554 C555 1.367 . S
C555 C554 1.367 . S
C555 C557 1.433 . S
C556 C552 1.350 . S
C556 C553 1.463 . S
C556 N560 1.427 . S
C557 H547 0.929 . S
C557 C555 1.433 . S
C557 N560 1.384 . S
C558 H549 0.929 . S
C558 C550 1.378 . S
C558 C553 1.350 . S
C559 H546 0.929 . S
C559 C551 1.433 . S
C559 N561 1.384 . S
N560 C556 1.427 . S
N560 C557 1.384 . S
N561 C553 1.427 . S
N561 C559 1.384 . S
H562 C568 0.930 . S
H563 C572 0.930 . S
H564 C577 0.929 . S
H565 C575 0.929 . S
H566 C570 0.929 . S
H567 C576 0.929 . S
C568 H562 0.930 . S
C568 C569 1.367 . S
C568 C576 1.378 . S
C569 C568 1.367 . S
C569 C577 1.433 . S
C570 H566 0.929 . S
C570 C572 1.378 . S
C570 C574 1.350 . S
C571 C574 1.463 . S
C571 C576 1.350 . S
C571 N579 1.427 . S
C572 H563 0.930 . S
C572 C570 1.378 . S
C572 C573 1.367 . S
C573 C572 1.367 . S
C573 C575 1.433 . S
C574 C570 1.350 . S
C574 C571 1.463 . S
C574 N578 1.427 . S
C575 H565 0.929 . S
C575 C573 1.433 . S
C575 N578 1.384 . S
C576 H567 0.929 . S
C576 C568 1.378 . S
C576 C571 1.350 . S
C577 H564 0.929 . S
C577 C569 1.433 . S
C577 N579 1.384 . S
N578 C574 1.427 . S
N578 C575 1.384 . S
N579 C571 1.427 . S
N579 C577 1.384 . S
H580 C586 0.930 . S
H581 C590 0.930 . S
H582 C595 0.929 . S
H583 C593 0.929 . S
H584 C588 0.929 . S
H585 C594 0.929 . S
C586 H580 0.930 . S
C586 C587 1.367 . S
C586 C594 1.378 . S
C587 C586 1.367 . S
C587 C595 1.433 . S
C588 H584 0.929 . S
C588 C590 1.378 . S
C588 C592 1.350 . S
C589 C592 1.463 . S
C589 C594 1.350 . S
C589 N597 1.427 . S
C590 H581 0.930 . S
C590 C588 1.378 . S
C590 C591 1.367 . S
C591 C590 1.367 . S
C591 C593 1.433 . S
C592 C588 1.350 . S
C592 C589 1.463 . S
C592 N596 1.427 . S
C593 H583 0.929 . S
C593 C591 1.433 . S
C593 N596 1.384 . S
C594 H585 0.929 . S
C594 C586 1.378 . S
C594 C589 1.350 . S
C595 H582 0.929 . S
C595 C587 1.433 . S
C595 N597 1.384 . S
N596 C592 1.427 . S
N596 C593 1.384 . S
N597 C589 1.427 . S
N597 C595 1.384 . S
H598 C604 0.930 . S
H599 C608 0.930 . S
H600 C613 0.929 . S
H601 C611 0.929 . S
H602 C606 0.929 . S
H603 C612 0.929 . S
C604 H598 0.930 . S
C604 C605 1.367 . S
C604 C612 1.378 . S
C605 C604 1.367 . S
C605 C613 1.433 . S
C606 H602 0.929 . S
C606 C608 1.378 . S
C606 C610 1.350 . S
C607 C610 1.463 . S
C607 C612 1.350 . S
C607 N615 1.427 . S
C608 H599 0.930 . S
C608 C606 1.378 . S
C608 C609 1.367 . S
C609 C608 1.367 . S
C609 C611 1.433 . S
C610 C606 1.350 . S
C610 C607 1.463 . S
C610 N614 1.427 . S
C611 H601 0.929 . S
C611 C609 1.433 . S
C611 N614 1.384 . S
C612 H603 0.929 . S
C612 C604 1.378 . S
C612 C607 1.350 . S
C613 H600 0.929 . S
C613 C605 1.433 . S
C613 N615 1.384 . S
N614 C610 1.427 . S
N614 C611 1.384 . S
N615 C607 1.427 . S
N615 C613 1.384 . S
H616 C622 0.930 . S
H617 C626 0.930 . S
H618 C631 0.929 . S
H619 C629 0.929 . S
H620 C624 0.929 . S
H621 C630 0.929 . S
C622 H616 0.930 . S
C622 C623 1.367 . S
C622 C630 1.378 . S
C623 C622 1.367 . S
C623 C631 1.433 . S
C624 H620 0.929 . S
C624 C626 1.378 . S
C624 C628 1.350 . S
C625 C628 1.463 . S
C625 C630 1.350 . S
C625 N633 1.427 . S
C626 H617 0.930 . S
C626 C624 1.378 . S
C626 C627 1.367 . S
C627 C626 1.367 . S
C627 C629 1.433 . S
C628 C624 1.350 . S
C628 C625 1.463 . S
C628 N632 1.427 . S
C629 H619 0.929 . S
C629 C627 1.433 . S
C629 N632 1.384 . S
C630 H621 0.929 . S
C630 C622 1.378 . S
C630 C625 1.350 . S
C631 H618 0.929 . S
C631 C623 1.433 . S
C631 N633 1.384 . S
N632 C628 1.427 . S
N632 C629 1.384 . S
N633 C625 1.427 . S
N633 C631 1.384 . S
H634 C640 0.930 . S
H635 C644 0.930 . S
H636 C649 0.929 . S
H637 C647 0.929 . S
H638 C642 0.929 . S
H639 C648 0.929 . S
C640 H634 0.930 . S
C640 C641 1.367 . S
C640 C648 1.378 . S
C641 C640 1.367 . S
C641 C649 1.433 . S
C642 H638 0.929 . S
C642 C644 1.378 . S
C642 C646 1.350 . S
C643 C646 1.463 . S
C643 C648 1.350 . S
C643 N651 1.427 . S
C644 H635 0.930 . S
C644 C642 1.378 . S
C644 C645 1.367 . S
C645 C644 1.367 . S
C645 C647 1.433 . S
C646 C642 1.350 . S
C646 C643 1.463 . S
C646 N650 1.427 . S
C647 H637 0.929 . S
C647 C645 1.433 . S
C647 N650 1.384 . S
C648 H639 0.929 . S
C648 C640 1.378 . S
C648 C643 1.350 . S
C649 H636 0.929 . S
C649 C641 1.433 . S
C649 N651 1.384 . S
N650 C646 1.427 . S
N650 C647 1.384 . S
N651 C643 1.427 . S
N651 C649 1.384 . S
H652 C658 0.930 . S
H653 C662 0.930 . S
H654 C667 0.929 . S
H655 C665 0.929 . S
H656 C660 0.929 . S
H657 C666 0.929 . S
C658 H652 0.930 . S
C658 C659 1.367 . S
C658 C666 1.378 . S
C659 C658 1.367 . S
C659 C667 1.433 . S
C660 H656 0.929 . S
C660 C662 1.378 . S
C660 C664 1.350 . S
C661 C664 1.463 . S
C661 C666 1.350 . S
C661 N669 1.427 . S
C662 H653 0.930 . S
C662 C660 1.378 . S
C662 C663 1.367 . S
C663 C662 1.367 . S
C663 C665 1.433 . S
C664 C660 1.350 . S
C664 C661 1.463 . S
C664 N668 1.427 . S
C665 H655 0.929 . S
C665 C663 1.433 . S
C665 N668 1.384 . S
C666 H657 0.929 . S
C666 C658 1.378 . S
C666 C661 1.350 . S
C667 H654 0.929 . S
C667 C659 1.433 . S
C667 N669 1.384 . S
N668 C664 1.427 . S
N668 C665 1.384 . S
N669 C661 1.427 . S
N669 C667 1.384 . S
H670 C676 0.930 . S
H671 C680 0.930 . S
H672 C685 0.929 . S
H673 C683 0.929 . S
H674 C678 0.929 . S
H675 C684 0.929 . S
C676 H670 0.930 . S
C676 C677 1.367 . S
C676 C684 1.378 . S
C677 C676 1.367 . S
C677 C685 1.433 . S
C678 H674 0.929 . S
C678 C680 1.378 . S
C678 C682 1.350 . S
C679 C682 1.463 . S
C679 C684 1.350 . S
C679 N687 1.427 . S
C680 H671 0.930 . S
C680 C678 1.378 . S
C680 C681 1.367 . S
C681 C680 1.367 . S
C681 C683 1.433 . S
C682 C678 1.350 . S
C682 C679 1.463 . S
C682 N686 1.427 . S
C683 H673 0.929 . S
C683 C681 1.433 . S
C683 N686 1.384 . S
C684 H675 0.929 . S
C684 C676 1.378 . S
C684 C679 1.350 . S
C685 H672 0.929 . S
C685 C677 1.433 . S
C685 N687 1.384 . S
N686 C682 1.427 . S
N686 C683 1.384 . S
N687 C679 1.427 . S
N687 C685 1.384 . S
H688 C694 0.930 1_556 S
H689 C698 0.930 . S
H690 C703 0.929 . S
H691 C701 0.929 . S
H692 C696 0.929 . S
H693 C702 0.929 . S
C694 H688 0.930 1_554 S
C694 C695 1.367 1_554 S
C694 C702 1.378 . S
C695 C694 1.367 1_556 S
C695 C703 1.433 1_556 S
C696 H692 0.929 . S
C696 C698 1.378 . S
C696 C700 1.350 . S
C697 C700 1.463 . S
C697 C702 1.350 . S
C697 N705 1.427 . S
C698 H689 0.930 . S
C698 C696 1.378 . S
C698 C699 1.367 . S
C699 C698 1.367 . S
C699 C701 1.433 . S
C700 C696 1.350 . S
C700 C697 1.463 . S
C700 N704 1.427 . S
C701 H691 0.929 . S
C701 C699 1.433 . S
C701 N704 1.384 . S
C702 H693 0.929 . S
C702 C694 1.378 . S
C702 C697 1.350 . S
C703 H690 0.929 . S
C703 C695 1.433 1_554 S
C703 N705 1.384 . S
N704 C700 1.427 . S
N704 C701 1.384 . S
N705 C697 1.427 . S
N705 C703 1.384 . S
H706 C712 0.930 1_554 S
H707 C716 0.930 . S
H708 C721 0.929 . S
H709 C719 0.929 . S
H710 C714 0.929 . S
H711 C720 0.929 . S
C712 H706 0.930 1_556 S
C712 C713 1.367 1_556 S
C712 C720 1.378 . S
C713 C712 1.367 1_554 S
C713 C721 1.433 1_554 S
C714 H710 0.929 . S
C714 C716 1.378 . S
C714 C718 1.350 . S
C715 C718 1.463 . S
C715 C720 1.350 . S
C715 N723 1.427 . S
C716 H707 0.930 . S
C716 C714 1.378 . S
C716 C717 1.367 . S
C717 C716 1.367 . S
C717 C719 1.433 . S
C718 C714 1.350 . S
C718 C715 1.463 . S
C718 N722 1.427 . S
C719 H709 0.929 . S
C719 C717 1.433 . S
C719 N722 1.384 . S
C720 H711 0.929 . S
C720 C712 1.378 . S
C720 C715 1.350 . S
C721 H708 0.929 . S
C721 C713 1.433 1_556 S
C721 N723 1.384 . S
N722 C718 1.427 . S
N722 C719 1.384 . S
N723 C715 1.427 . S
N723 C721 1.384 . S
H724 C730 0.930 . S
H725 C734 0.930 1_556 S
H726 C739 0.929 . S
H727 C737 0.929 . S
H728 C732 0.929 . S
H729 C738 0.929 . S
C730 H724 0.930 . S
C730 C731 1.367 . S
C730 C738 1.378 . S
C731 C730 1.367 . S
C731 C739 1.433 . S
C732 H728 0.929 . S
C732 C734 1.378 . S
C732 C736 1.350 . S
C733 C736 1.463 . S
C733 C738 1.350 . S
C733 N741 1.427 . S
C734 H725 0.930 1_554 S
C734 C732 1.378 . S
C734 C735 1.367 1_554 S
C735 C734 1.367 1_556 S
C735 C737 1.433 1_556 S
C736 C732 1.350 . S
C736 C733 1.463 . S
C736 N740 1.427 . S
C737 H727 0.929 . S
C737 C735 1.433 1_554 S
C737 N740 1.384 . S
C738 H729 0.929 . S
C738 C730 1.378 . S
C738 C733 1.350 . S
C739 H726 0.929 . S
C739 C731 1.433 . S
C739 N741 1.384 . S
N740 C736 1.427 . S
N740 C737 1.384 . S
N741 C733 1.427 . S
N741 C739 1.384 . S
H742 C748 0.930 . S
H743 C752 0.930 . S
H744 C757 0.929 . S
H745 C755 0.929 1_554 S
H746 C750 0.929 . S
H747 C756 0.929 . S
C748 H742 0.930 . S
C748 C749 1.367 . S
C748 C756 1.378 . S
C749 C748 1.367 . S
C749 C757 1.433 . S
C750 H746 0.929 . S
C750 C752 1.378 . S
C750 C754 1.350 . S
C751 C754 1.463 . S
C751 C756 1.350 . S
C751 N759 1.427 . S
C752 H743 0.930 . S
C752 C750 1.378 . S
C752 C753 1.367 1_556 S
C753 C752 1.367 1_554 S
C753 C755 1.433 1_554 S
C754 C750 1.350 . S
C754 C751 1.463 . S
C754 N758 1.427 . S
C755 H745 0.929 1_556 S
C755 C753 1.433 1_556 S
C755 N758 1.384 . S
C756 H747 0.929 . S
C756 C748 1.378 . S
C756 C751 1.350 . S
C757 H744 0.929 . S
C757 C749 1.433 . S
C757 N759 1.384 . S
N758 C754 1.427 . S
N758 C755 1.384 . S
N759 C751 1.427 . S
N759 C757 1.384 . S
H760 C766 0.930 . S
H761 C770 0.930 . S
H762 C775 0.929 . S
H763 C773 0.929 . S
H764 C768 0.920 1_554 S
H765 C774 0.929 . S
C766 H760 0.930 . S
C766 C767 1.367 . S
C766 C774 1.378 . S
C767 C766 1.367 . S
C767 C775 1.433 . S
C768 H764 0.920 1_556 S
C768 C770 1.393 . S
C768 C772 1.343 1_556 S
C769 C772 1.463 . S
C769 C774 1.350 . S
C769 N777 1.427 . S
C770 H761 0.930 . S
C770 C768 1.393 . S
C770 C771 1.367 . S
C771 C770 1.367 . S
C771 C773 1.433 . S
C772 C768 1.343 1_554 S
C772 C769 1.463 . S
C772 N776 1.427 1_554 S
C773 H763 0.929 . S
C773 C771 1.433 . S
C773 N776 1.384 . S
C774 H765 0.929 . S
C774 C766 1.378 . S
C774 C769 1.350 . S
C775 H762 0.929 . S
C775 C767 1.433 . S
C775 N777 1.384 . S
N776 C772 1.427 1_556 S
N776 C773 1.384 . S
N777 C769 1.427 . S
N777 C775 1.384 . S
H778 C784 0.930 . S
H779 C788 0.930 . S
H780 C793 0.929 . S
H781 C791 0.929 . S
H782 C786 0.929 1_556 S
H783 C792 0.929 . S
C784 H778 0.930 . S
C784 C785 1.367 . S
C784 C792 1.378 . S
C785 C784 1.367 . S
C785 C793 1.433 . S
C786 H782 0.929 1_554 S
C786 C788 1.378 . S
C786 C790 1.350 1_554 S
C787 C790 1.463 . S
C787 C792 1.350 . S
C787 N795 1.427 . S
C788 H779 0.930 . S
C788 C786 1.378 . S
C788 C789 1.367 . S
C789 C788 1.367 . S
C789 C791 1.433 . S
C790 C786 1.350 1_556 S
C790 C787 1.463 . S
C790 N794 1.427 1_556 S
C791 H781 0.929 . S
C791 C789 1.433 . S
C791 N794 1.384 . S
C792 H783 0.929 . S
C792 C784 1.378 . S
C792 C787 1.350 . S
C793 H780 0.929 . S
C793 C785 1.433 . S
C793 N795 1.384 . S
N794 C790 1.427 1_554 S
N794 C791 1.384 . S
N795 C787 1.427 . S
N795 C793 1.384 . S
H796 C802 0.930 . S
H797 C806 0.930 . S
H798 C811 0.929 . S
H799 C809 0.929 . S
H800 C804 0.929 . S
H801 C810 0.929 1_554 S
C802 H796 0.930 . S
C802 C803 1.367 . S
C802 C810 1.378 . S
C803 C802 1.367 . S
C803 C811 1.433 . S
C804 H800 0.929 . S
C804 C806 1.378 . S
C804 C808 1.350 . S
C805 C808 1.463 . S
C805 C810 1.350 1_554 S
C805 N813 1.427 . S
C806 H797 0.930 . S
C806 C804 1.378 . S
C806 C807 1.367 . S
C807 C806 1.367 . S
C807 C809 1.433 . S
C808 C804 1.350 . S
C808 C805 1.463 . S
C808 N812 1.427 . S
C809 H799 0.929 . S
C809 C807 1.433 . S
C809 N812 1.384 . S
C810 H801 0.929 1_556 S
C810 C802 1.378 . S
C810 C805 1.350 1_556 S
C811 H798 0.929 . S
C811 C803 1.433 . S
C811 N813 1.384 1_556 S
N812 C808 1.427 . S
N812 C809 1.384 . S
N813 C805 1.427 . S
N813 C811 1.384 1_554 S
H814 C820 0.930 . S
H815 C824 0.930 . S
H816 C829 0.929 . S
H817 C827 0.929 . S
H818 C822 0.929 1_556 S
H819 C828 0.929 . S
C820 H814 0.930 . S
C820 C821 1.367 . S
C820 C828 1.378 . S
C821 C820 1.367 . S
C821 C829 1.433 . S
C822 H818 0.929 1_554 S
C822 C824 1.378 . S
C822 C826 1.350 1_554 S
C823 C826 1.463 . S
C823 C828 1.350 . S
C823 N831 1.427 . S
C824 H815 0.930 . S
C824 C822 1.378 . S
C824 C825 1.367 . S
C825 C824 1.367 . S
C825 C827 1.433 . S
C826 C822 1.350 1_556 S
C826 C823 1.463 . S
C826 N830 1.427 1_556 S
C827 H817 0.929 . S
C827 C825 1.433 . S
C827 N830 1.384 . S
C828 H819 0.929 . S
C828 C820 1.378 . S
C828 C823 1.350 . S
C829 H816 0.929 . S
C829 C821 1.433 . S
C829 N831 1.384 . S
N830 C826 1.427 1_554 S
N830 C827 1.384 . S
N831 C823 1.427 . S
N831 C829 1.384 . S
H832 C838 0.930 . S
H833 C842 0.930 1_545 S
H834 C847 0.929 . S
H835 C845 0.929 . S
H836 C840 0.929 . S
H837 C846 0.929 . S
C838 H832 0.930 . S
C838 C839 1.367 . S
C838 C846 1.378 . S
C839 C838 1.367 . S
C839 C847 1.433 . S
C840 H836 0.929 . S
C840 C842 1.378 . S
C840 C844 1.350 . S
C841 C844 1.463 . S
C841 C846 1.350 . S
C841 N849 1.427 . S
C842 H833 0.930 1_565 S
C842 C840 1.378 . S
C842 C843 1.367 1_565 S
C843 C842 1.367 1_545 S
C843 C845 1.433 1_545 S
C844 C840 1.350 . S
C844 C841 1.463 . S
C844 N848 1.427 . S
C845 H835 0.929 . S
C845 C843 1.433 1_565 S
C845 N848 1.384 . S
C846 H837 0.929 . S
C846 C838 1.378 . S
C846 C841 1.350 . S
C847 H834 0.929 . S
C847 C839 1.433 . S
C847 N849 1.384 . S
N848 C844 1.427 . S
N848 C845 1.384 . S
N849 C841 1.427 . S
N849 C847 1.384 . S
H850 C856 0.930 . S
H851 C860 0.930 1_455 S
H852 C865 0.929 . S
H853 C863 0.929 . S
H854 C858 0.929 . S
H855 C864 0.929 . S
C856 H850 0.930 . S
C856 C857 1.367 . S
C856 C864 1.378 . S
C857 C856 1.367 . S
C857 C865 1.433 . S
C858 H854 0.929 . S
C858 C860 1.378 . S
C858 C862 1.350 . S
C859 C862 1.463 . S
C859 C864 1.350 . S
C859 N867 1.427 . S
C860 H851 0.930 1_655 S
C860 C858 1.378 . S
C860 C861 1.367 1_655 S
C861 C860 1.367 1_455 S
C861 C863 1.433 1_455 S
C862 C858 1.350 . S
C862 C859 1.463 . S
C862 N866 1.427 . S
C863 H853 0.929 . S
C863 C861 1.433 1_655 S
C863 N866 1.384 . S
C864 H855 0.929 . S
C864 C856 1.378 . S
C864 C859 1.350 . S
C865 H852 0.929 . S
C865 C857 1.433 . S
C865 N867 1.384 . S
N866 C862 1.427 . S
N866 C863 1.384 . S
N867 C859 1.427 . S
N867 C865 1.384 . S
H868 C874 0.930 . S
H869 C878 0.936 . S
H870 C883 0.929 . S
H871 C881 0.931 . S
H872 C876 0.929 . S
H873 C882 0.929 . S
C874 H868 0.930 . S
C874 C875 1.367 . S
C874 C882 1.378 . S
C875 C874 1.367 . S
C875 C883 1.433 . S
C876 H872 0.929 . S
C876 C878 1.378 . S
C876 C880 1.350 . S
C877 C880 1.463 . S
C877 C882 1.350 . S
C877 N885 1.427 . S
C878 H869 0.936 . S
C878 C876 1.378 . S
C878 C879 1.367 1_545 S
C879 C878 1.367 1_565 S
C879 C881 1.433 1_565 S
C880 C876 1.350 . S
C880 C877 1.463 . S
C880 N884 1.427 . S
C881 H871 0.931 . S
C881 C879 1.433 1_545 S
C881 N884 1.384 . S
C882 H873 0.929 . S
C882 C874 1.378 . S
C882 C877 1.350 . S
C883 H870 0.929 . S
C883 C875 1.433 . S
C883 N885 1.384 . S
N884 C880 1.427 . S
N884 C881 1.384 . S
N885 C877 1.427 . S
N885 C883 1.384 . S
H886 C892 0.930 . S
H887 C896 0.930 . S
H888 C901 0.929 . S
H889 C899 0.929 1_655 S
H890 C894 0.929 . S
H891 C900 0.929 . S
C892 H886 0.930 . S
C892 C893 1.367 . S
C892 C900 1.378 . S
C893 C892 1.367 . S
C893 C901 1.433 . S
C894 H890 0.929 . S
C894 C896 1.378 . S
C894 C898 1.350 . S
C895 C898 1.463 . S
C895 C900 1.350 . S
C895 N903 1.427 . S
C896 H887 0.930 . S
C896 C894 1.378 . S
C896 C897 1.367 1_455 S
C897 C896 1.367 1_655 S
C897 C899 1.433 1_655 S
C898 C894 1.350 . S
C898 C895 1.463 . S
C898 N902 1.427 . S
C899 H889 0.929 1_455 S
C899 C897 1.433 1_455 S
C899 N902 1.384 . S
C900 H891 0.929 . S
C900 C892 1.378 . S
C900 C895 1.350 . S
C901 H888 0.929 . S
C901 C893 1.433 . S
C901 N903 1.384 . S
N902 C898 1.427 . S
N902 C899 1.384 . S
N903 C895 1.427 . S
N903 C901 1.384 . S
H904 C910 0.930 . S
H905 C914 0.930 1_554 S
H906 C919 0.929 . S
H907 C917 0.929 . S
H908 C912 0.929 1_554 S
H909 C918 0.929 . S
C910 H904 0.930 . S
C910 C911 1.367 . S
C910 C918 1.378 . S
C911 C910 1.367 . S
C911 C919 1.433 1_556 S
C912 H908 0.929 1_556 S
C912 C914 1.378 . S
C912 C916 1.350 . S
C913 C916 1.463 . S
C913 C918 1.350 . S
C913 N921 1.427 1_556 S
C914 H905 0.930 1_556 S
C914 C912 1.378 . S
C914 C915 1.367 . S
C915 C914 1.367 . S
C915 C917 1.433 . S
C916 C912 1.350 . S
C916 C913 1.463 . S
C916 N920 1.427 . S
C917 H907 0.929 . S
C917 C915 1.433 . S
C917 N920 1.384 . S
C918 H909 0.929 . S
C918 C910 1.378 . S
C918 C913 1.350 . S
C919 H906 0.929 . S
C919 C911 1.433 1_554 S
C919 N921 1.384 . S
N920 C916 1.427 . S
N920 C917 1.384 . S
N921 C913 1.427 1_554 S
N921 C919 1.384 . S
H922 C928 0.930 . S
H923 C932 0.930 . S
H924 C937 0.929 . S
H925 C935 0.929 1_556 S
H926 C930 0.929 . S
H927 C936 0.929 . S
C928 H922 0.930 . S
C928 C929 1.367 1_556 S
C928 C936 1.378 . S
C929 C928 1.367 1_554 S
C929 C937 1.433 . S
C930 H926 0.929 . S
C930 C932 1.378 . S
C930 C934 1.350 . S
C931 C934 1.463 . S
C931 C936 1.350 1_554 S
C931 N939 1.427 . S
C932 H923 0.930 . S
C932 C930 1.378 . S
C932 C933 1.367 . S
C933 C932 1.367 . S
C933 C935 1.433 . S
C934 C930 1.350 . S
C934 C931 1.463 . S
C934 N938 1.427 . S
C935 H925 0.929 1_554 S
C935 C933 1.433 . S
C935 N938 1.384 . S
C936 H927 0.929 . S
C936 C928 1.378 . S
C936 C931 1.350 1_556 S
C937 H924 0.929 . S
C937 C929 1.433 . S
C937 N939 1.384 . S
N938 C934 1.427 . S
N938 C935 1.384 . S
N939 C931 1.427 . S
N939 C937 1.384 . S
H940 C946 0.930 . S
H941 C950 0.930 . S
H942 C955 0.929 . S
H943 C953 0.929 . S
H944 C948 0.929 . S
H945 C954 0.929 . S
C946 H940 0.930 . S
C946 C947 1.367 . S
C946 C954 1.378 . S
C947 C946 1.367 . S
C947 C955 1.433 1_556 S
C948 H944 0.929 . S
C948 C950 1.378 . S
C948 C952 1.350 1_554 S
C949 C952 1.463 . S
C949 C954 1.350 . S
C949 N957 1.427 1_556 S
C950 H941 0.930 . S
C950 C948 1.378 . S
C950 C951 1.367 1_554 S
C951 C950 1.367 1_556 S
C951 C953 1.433 . S
C952 C948 1.350 1_556 S
C952 C949 1.463 . S
C952 N956 1.427 . S
C953 H943 0.929 . S
C953 C951 1.433 . S
C953 N956 1.384 . S
C954 H945 0.929 . S
C954 C946 1.378 . S
C954 C949 1.350 . S
C955 H942 0.929 . S
C955 C947 1.433 1_554 S
C955 N957 1.384 . S
N956 C952 1.427 . S
N956 C953 1.384 . S
N957 C949 1.427 1_554 S
N957 C955 1.384 . S
H958 C964 0.930 . S
H959 C968 0.930 . S
H960 C973 0.929 . S
H961 C971 0.929 . S
H962 C966 0.929 . S
H963 C972 0.929 . S
C964 H958 0.930 . S
C964 C965 1.367 1_556 S
C964 C972 1.378 . S
C965 C964 1.367 1_554 S
C965 C973 1.433 . S
C966 H962 0.929 . S
C966 C968 1.378 . S
C966 C970 1.350 . S
C967 C970 1.463 . S
C967 C972 1.350 1_554 S
C967 N975 1.427 . S
C968 H959 0.930 . S
C968 C966 1.378 . S
C968 C969 1.367 . S
C969 C968 1.367 . S
C969 C971 1.433 1_554 S
C970 C966 1.350 . S
C970 C967 1.463 . S
C970 N974 1.427 1_554 S
C971 H961 0.929 . S
C971 C969 1.433 1_556 S
C971 N974 1.384 . S
C972 H963 0.929 . S
C972 C964 1.378 . S
C972 C967 1.350 1_556 S
C973 H960 0.929 . S
C973 C965 1.433 . S
C973 N975 1.384 . S
N974 C970 1.427 1_556 S
N974 C971 1.384 . S
N975 C967 1.427 . S
N975 C973 1.384 . S
H976 C982 0.930 . S
H977 C986 0.930 . S
H978 C991 0.929 . S
H979 C989 0.929 . S
H980 C984 0.929 . S
H981 C990 0.929 . S
C982 H976 0.930 . S
C982 C983 1.367 . S
C982 C990 1.378 . S
C983 C982 1.367 . S
C983 C991 1.433 . S
C984 H980 0.929 . S
C984 C986 1.378 . S
C984 C988 1.350 . S
C985 C988 1.463 . S
C985 C990 1.350 . S
C985 N993 1.427 . S
C986 H977 0.930 . S
C986 C984 1.378 . S
C986 C987 1.367 . S
C987 C986 1.367 . S
C987 C989 1.433 . S
C988 C984 1.350 . S
C988 C985 1.463 . S
C988 N992 1.427 . S
C989 H979 0.929 . S
C989 C987 1.433 . S
C989 N992 1.384 . S
C990 H981 0.929 . S
C990 C982 1.378 . S
C990 C985 1.350 . S
C991 H978 0.929 . S
C991 C983 1.433 . S
C991 N993 1.384 . S
N992 C988 1.427 . S
N992 C989 1.384 . S
N993 C985 1.427 . S
N993 C991 1.384 . S
H994 C1000 0.930 . S
H995 C1004 0.930 . S
H996 C1009 0.929 . S
H997 C1007 0.929 . S
H998 C1002 0.929 . S
H999 C1008 0.929 . S
C1000 H994 0.930 . S
C1000 C1001 1.367 . S
C1000 C1008 1.378 . S
C1001 C1000 1.367 . S
C1001 C1009 1.433 . S
C1002 H998 0.929 . S
C1002 C1004 1.378 . S
C1002 C1006 1.350 . S
C1003 C1006 1.463 . S
C1003 C1008 1.350 . S
C1003 N1011 1.427 . S
C1004 H995 0.930 . S
C1004 C1002 1.378 . S
C1004 C1005 1.367 . S
C1005 C1004 1.367 . S
C1005 C1007 1.433 . S
C1006 C1002 1.350 . S
C1006 C1003 1.463 . S
C1006 N1010 1.427 . S
C1007 H997 0.929 . S
C1007 C1005 1.433 . S
C1007 N1010 1.384 . S
C1008 H999 0.929 . S
C1008 C1000 1.378 . S
C1008 C1003 1.350 . S
C1009 H996 0.929 . S
C1009 C1001 1.433 . S
C1009 N1011 1.384 . S
N1010 C1006 1.427 . S
N1010 C1007 1.384 . S
N1011 C1003 1.427 . S
N1011 C1009 1.384 . S
H1012 C1018 0.930 . S
H1013 C1022 0.930 . S
H1014 C1027 0.929 . S
H1015 C1025 0.929 . S
H1016 C1020 0.929 . S
H1017 C1026 0.929 . S
C1018 H1012 0.930 . S
C1018 C1019 1.367 . S
C1018 C1026 1.378 . S
C1019 C1018 1.367 . S
C1019 C1027 1.433 . S
C1020 H1016 0.929 . S
C1020 C1022 1.378 . S
C1020 C1024 1.350 . S
C1021 C1024 1.463 . S
C1021 C1026 1.350 . S
C1021 N1029 1.427 . S
C1022 H1013 0.930 . S
C1022 C1020 1.378 . S
C1022 C1023 1.367 . S
C1023 C1022 1.367 . S
C1023 C1025 1.433 . S
C1024 C1020 1.350 . S
C1024 C1021 1.463 . S
C1024 N1028 1.427 . S
C1025 H1015 0.929 . S
C1025 C1023 1.433 . S
C1025 N1028 1.384 . S
C1026 H1017 0.929 . S
C1026 C1018 1.378 . S
C1026 C1021 1.350 . S
C1027 H1014 0.929 . S
C1027 C1019 1.433 . S
C1027 N1029 1.384 . S
N1028 C1024 1.427 . S
N1028 C1025 1.384 . S
N1029 C1021 1.427 . S
N1029 C1027 1.384 . S
H1030 C1036 0.930 . S
H1031 C1040 0.930 . S
H1032 C1045 0.929 . S
H1033 C1043 0.929 . S
H1034 C1038 0.929 . S
H1035 C1044 0.929 . S
C1036 H1030 0.930 . S
C1036 C1037 1.367 . S
C1036 C1044 1.378 . S
C1037 C1036 1.367 . S
C1037 C1045 1.433 . S
C1038 H1034 0.929 . S
C1038 C1040 1.378 . S
C1038 C1042 1.350 . S
C1039 C1042 1.463 . S
C1039 C1044 1.350 . S
C1039 N1047 1.427 . S
C1040 H1031 0.930 . S
C1040 C1038 1.378 . S
C1040 C1041 1.367 . S
C1041 C1040 1.367 . S
C1041 C1043 1.433 . S
C1042 C1038 1.350 . S
C1042 C1039 1.463 . S
C1042 N1046 1.427 . S
C1043 H1033 0.929 . S
C1043 C1041 1.433 . S
C1043 N1046 1.384 . S
C1044 H1035 0.929 . S
C1044 C1036 1.378 . S
C1044 C1039 1.350 . S
C1045 H1032 0.929 . S
C1045 C1037 1.433 . S
C1045 N1047 1.384 . S
N1046 C1042 1.427 . S
N1046 C1043 1.384 . S
N1047 C1039 1.427 . S
N1047 C1045 1.384 . S
H1048 C1054 0.930 . S
H1049 C1058 0.930 . S
H1050 C1063 0.901 1_565 S
H1051 C1061 0.929 . S
H1052 C1056 0.929 . S
H1053 C1062 0.929 . S
C1054 H1048 0.930 . S
C1054 C1055 1.367 1_545 S
C1054 C1062 1.378 . S
C1055 C1054 1.367 1_565 S
C1055 C1063 1.433 1_565 S
C1056 H1052 0.929 . S
C1056 C1058 1.378 . S
C1056 C1060 1.350 . S
C1057 C1060 1.463 . S
C1057 C1062 1.350 . S
C1057 N1065 1.427 . S
C1058 H1049 0.930 . S
C1058 C1056 1.378 . S
C1058 C1059 1.367 . S
C1059 C1058 1.367 . S
C1059 C1061 1.433 . S
C1060 C1056 1.350 . S
C1060 C1057 1.463 . S
C1060 N1064 1.427 . S
C1061 H1051 0.929 . S
C1061 C1059 1.433 . S
C1061 N1064 1.384 . S
C1062 H1053 0.929 . S
C1062 C1054 1.378 . S
C1062 C1057 1.350 . S
C1063 H1050 0.901 1_545 S
C1063 C1055 1.433 1_545 S
C1063 N1065 1.384 . S
N1064 C1060 1.427 . S
N1064 C1061 1.384 . S
N1065 C1057 1.427 . S
N1065 C1063 1.384 . S
H1066 C1072 0.930 . S
H1067 C1076 0.930 . S
H1068 C1081 0.929 . S
H1069 C1079 0.903 1_655 S
H1070 C1074 0.929 . S
H1071 C1080 0.929 . S
C1072 H1066 0.930 . S
C1072 C1073 1.367 . S
C1072 C1080 1.378 . S
C1073 C1072 1.367 . S
C1073 C1081 1.433 . S
C1074 H1070 0.929 . S
C1074 C1076 1.378 . S
C1074 C1078 1.350 . S
C1075 C1078 1.463 . S
C1075 C1080 1.350 . S
C1075 N1083 1.427 . S
C1076 H1067 0.930 . S
C1076 C1074 1.378 . S
C1076 C1077 1.367 1_455 S
C1077 C1076 1.367 1_655 S
C1077 C1079 1.433 1_655 S
C1078 C1074 1.350 . S
C1078 C1075 1.463 . S
C1078 N1082 1.427 . S
C1079 H1069 0.903 1_455 S
C1079 C1077 1.433 1_455 S
C1079 N1082 1.384 . S
C1080 H1071 0.929 . S
C1080 C1072 1.378 . S
C1080 C1075 1.350 . S
C1081 H1068 0.929 . S
C1081 C1073 1.433 . S
C1081 N1083 1.384 . S
N1082 C1078 1.427 . S
N1082 C1079 1.384 . S
N1083 C1075 1.427 . S
N1083 C1081 1.384 . S
H1084 C1090 0.930 . S
H1085 C1094 0.930 . S
H1086 C1099 0.929 1_545 S
H1087 C1097 0.929 . S
H1088 C1092 0.929 . S
H1089 C1098 0.929 . S
C1090 H1084 0.930 . S
C1090 C1091 1.367 1_565 S
C1090 C1098 1.378 . S
C1091 C1090 1.367 1_545 S
C1091 C1099 1.433 1_545 S
C1092 H1088 0.929 . S
C1092 C1094 1.378 . S
C1092 C1096 1.350 . S
C1093 C1096 1.463 . S
C1093 C1098 1.350 . S
C1093 N1101 1.427 . S
C1094 H1085 0.930 . S
C1094 C1092 1.378 . S
C1094 C1095 1.367 . S
C1095 C1094 1.367 . S
C1095 C1097 1.433 . S
C1096 C1092 1.350 . S
C1096 C1093 1.463 . S
C1096 N1100 1.427 . S
C1097 H1087 0.929 . S
C1097 C1095 1.433 . S
C1097 N1100 1.384 . S
C1098 H1089 0.929 . S
C1098 C1090 1.378 . S
C1098 C1093 1.350 . S
C1099 H1086 0.929 1_565 S
C1099 C1091 1.433 1_565 S
C1099 N1101 1.384 . S
N1100 C1096 1.427 . S
N1100 C1097 1.384 . S
N1101 C1093 1.427 . S
N1101 C1099 1.384 . S
H1102 C1108 0.930 1_455 S
H1103 C1112 0.930 . S
H1104 C1117 0.929 . S
H1105 C1115 0.929 . S
H1106 C1110 0.929 . S
H1107 C1116 0.929 . S
C1108 H1102 0.930 1_655 S
C1108 C1109 1.367 1_655 S
C1108 C1116 1.378 . S
C1109 C1108 1.367 1_455 S
C1109 C1117 1.433 1_455 S
C1110 H1106 0.929 . S
C1110 C1112 1.378 . S
C1110 C1114 1.350 . S
C1111 C1114 1.463 . S
C1111 C1116 1.350 . S
C1111 N1119 1.427 . S
C1112 H1103 0.930 . S
C1112 C1110 1.378 . S
C1112 C1113 1.367 . S
C1113 C1112 1.367 . S
C1113 C1115 1.433 . S
C1114 C1110 1.350 . S
C1114 C1111 1.463 . S
C1114 N1118 1.427 . S
C1115 H1105 0.929 . S
C1115 C1113 1.433 . S
C1115 N1118 1.384 . S
C1116 H1107 0.929 . S
C1116 C1108 1.378 . S
C1116 C1111 1.350 . S
C1117 H1104 0.929 . S
C1117 C1109 1.433 1_655 S
C1117 N1119 1.384 . S
N1118 C1114 1.427 . S
N1118 C1115 1.384 . S
N1119 C1111 1.427 . S
N1119 C1117 1.384 . S
H1120 C1126 0.930 . S
H1121 C1130 0.930 . S
H1122 C1135 0.929 . S
H1123 C1133 0.929 . S
H1124 C1128 0.929 . S
H1125 C1134 0.929 . S
C1126 H1120 0.930 . S
C1126 C1127 1.367 . S
C1126 C1134 1.378 . S
C1127 C1126 1.367 . S
C1127 C1135 1.433 . S
C1128 H1124 0.929 . S
C1128 C1130 1.378 . S
C1128 C1132 1.350 . S
C1129 C1132 1.463 . S
C1129 C1134 1.350 . S
C1129 N1137 1.427 . S
C1130 H1121 0.930 . S
C1130 C1128 1.378 . S
C1130 C1131 1.367 . S
C1131 C1130 1.367 . S
C1131 C1133 1.433 . S
C1132 C1128 1.350 . S
C1132 C1129 1.463 . S
C1132 N1136 1.427 . S
C1133 H1123 0.929 . S
C1133 C1131 1.433 . S
C1133 N1136 1.384 . S
C1134 H1125 0.929 . S
C1134 C1126 1.378 . S
C1134 C1129 1.350 . S
C1135 H1122 0.929 . S
C1135 C1127 1.433 . S
C1135 N1137 1.384 . S
N1136 C1132 1.427 . S
N1136 C1133 1.384 . S
N1137 C1129 1.427 . S
N1137 C1135 1.384 . S
H1138 C1144 0.930 . S
H1139 C1148 0.930 . S
H1140 C1153 0.929 . S
H1141 C1151 0.929 . S
H1142 C1146 0.929 . S
H1143 C1152 0.929 . S
C1144 H1138 0.930 . S
C1144 C1145 1.367 . S
C1144 C1152 1.378 . S
C1145 C1144 1.367 . S
C1145 C1153 1.433 . S
C1146 H1142 0.929 . S
C1146 C1148 1.378 . S
C1146 C1150 1.350 . S
C1147 C1150 1.463 . S
C1147 C1152 1.350 . S
C1147 N1155 1.427 . S
C1148 H1139 0.930 . S
C1148 C1146 1.378 . S
C1148 C1149 1.367 . S
C1149 C1148 1.367 . S
C1149 C1151 1.433 . S
C1150 C1146 1.350 . S
C1150 C1147 1.463 . S
C1150 N1154 1.427 . S
C1151 H1141 0.929 . S
C1151 C1149 1.433 . S
C1151 N1154 1.384 . S
C1152 H1143 0.929 . S
C1152 C1144 1.378 . S
C1152 C1147 1.350 . S
C1153 H1140 0.929 . S
C1153 C1145 1.433 . S
C1153 N1155 1.384 . S
N1154 C1150 1.427 . S
N1154 C1151 1.384 . S
N1155 C1147 1.427 . S
N1155 C1153 1.384 . S
H1156 C1162 0.930 . S
H1157 C1166 0.930 1_556 S
H1158 C1171 0.929 . S
H1159 C1169 0.929 . S
H1160 C1164 0.929 . S
H1161 C1170 0.929 . S
C1162 H1156 0.930 . S
C1162 C1163 1.367 . S
C1162 C1170 1.378 . S
C1163 C1162 1.367 . S
C1163 C1171 1.433 . S
C1164 H1160 0.929 . S
C1164 C1166 1.378 . S
C1164 C1168 1.350 . S
C1165 C1168 1.463 . S
C1165 C1170 1.350 . S
C1165 N1173 1.427 . S
C1166 H1157 0.930 1_554 S
C1166 C1164 1.378 . S
C1166 C1167 1.367 . S
C1167 C1166 1.367 . S
C1167 C1169 1.433 . S
C1168 C1164 1.350 . S
C1168 C1165 1.463 . S
C1168 N1172 1.427 . S
C1169 H1159 0.929 . S
C1169 C1167 1.433 . S
C1169 N1172 1.384 . S
C1170 H1161 0.929 . S
C1170 C1162 1.378 . S
C1170 C1165 1.350 . S
C1171 H1158 0.929 . S
C1171 C1163 1.433 . S
C1171 N1173 1.384 . S
N1172 C1168 1.427 . S
N1172 C1169 1.384 . S
N1173 C1165 1.427 . S
N1173 C1171 1.384 . S
H1174 C1180 0.930 . S
H1175 C1184 0.930 . S
H1176 C1189 0.929 . S
H1177 C1187 0.929 . S
H1178 C1182 0.929 . S
H1179 C1188 0.929 . S
C1180 H1174 0.930 . S
C1180 C1181 1.367 . S
C1180 C1188 1.378 . S
C1181 C1180 1.367 . S
C1181 C1189 1.433 . S
C1182 H1178 0.929 . S
C1182 C1184 1.378 . S
C1182 C1186 1.350 . S
C1183 C1186 1.463 . S
C1183 C1188 1.350 . S
C1183 N1191 1.427 . S
C1184 H1175 0.930 . S
C1184 C1182 1.378 . S
C1184 C1185 1.367 . S
C1185 C1184 1.367 . S
C1185 C1187 1.433 . S
C1186 C1182 1.350 . S
C1186 C1183 1.463 . S
C1186 N1190 1.427 . S
C1187 H1177 0.929 . S
C1187 C1185 1.433 . S
C1187 N1190 1.384 . S
C1188 H1179 0.929 . S
C1188 C1180 1.378 . S
C1188 C1183 1.350 . S
C1189 H1176 0.929 . S
C1189 C1181 1.433 . S
C1189 N1191 1.384 . S
N1190 C1186 1.427 . S
N1190 C1187 1.384 . S
N1191 C1183 1.427 . S
N1191 C1189 1.384 . S
H1192 C1198 0.930 . S
H1193 C1202 0.930 . S
H1194 C1207 0.929 . S
H1195 C1205 0.929 . S
H1196 C1200 0.929 . S
H1197 C1206 0.929 . S
C1198 H1192 0.930 . S
C1198 C1199 1.367 . S
C1198 C1206 1.378 . S
C1199 C1198 1.367 . S
C1199 C1207 1.433 . S
C1200 H1196 0.929 . S
C1200 C1202 1.378 . S
C1200 C1204 1.350 . S
C1201 C1204 1.463 . S
C1201 C1206 1.350 . S
C1201 N1209 1.427 . S
C1202 H1193 0.930 . S
C1202 C1200 1.378 . S
C1202 C1203 1.367 . S
C1203 C1202 1.367 . S
C1203 C1205 1.433 . S
C1204 C1200 1.350 . S
C1204 C1201 1.463 . S
C1204 N1208 1.427 . S
C1205 H1195 0.929 . S
C1205 C1203 1.433 . S
C1205 N1208 1.384 . S
C1206 H1197 0.929 . S
C1206 C1198 1.378 . S
C1206 C1201 1.350 . S
C1207 H1194 0.929 . S
C1207 C1199 1.433 . S
C1207 N1209 1.384 . S
N1208 C1204 1.427 . S
N1208 C1205 1.384 . S
N1209 C1201 1.427 . S
N1209 C1207 1.384 . S
H1210 C1216 0.930 . S
H1211 C1220 0.930 . S
H1212 C1225 0.929 . S
H1213 C1223 0.929 . S
H1214 C1218 0.929 . S
H1215 C1224 0.929 . S
C1216 H1210 0.930 . S
C1216 C1217 1.367 . S
C1216 C1224 1.378 . S
C1217 C1216 1.367 . S
C1217 C1225 1.433 . S
C1218 H1214 0.929 . S
C1218 C1220 1.378 . S
C1218 C1222 1.350 . S
C1219 C1222 1.463 . S
C1219 C1224 1.350 . S
C1219 N1227 1.427 . S
C1220 H1211 0.930 . S
C1220 C1218 1.378 . S
C1220 C1221 1.367 . S
C1221 C1220 1.367 . S
C1221 C1223 1.433 . S
C1222 C1218 1.350 . S
C1222 C1219 1.463 . S
C1222 N1226 1.427 . S
C1223 H1213 0.929 . S
C1223 C1221 1.433 . S
C1223 N1226 1.384 . S
C1224 H1215 0.929 . S
C1224 C1216 1.378 . S
C1224 C1219 1.350 . S
C1225 H1212 0.929 . S
C1225 C1217 1.433 . S
C1225 N1227 1.384 . S
N1226 C1222 1.427 . S
N1226 C1223 1.384 . S
N1227 C1219 1.427 . S
N1227 C1225 1.384 . S
H1228 C1234 0.930 . S
H1229 C1238 0.930 . S
H1230 C1243 0.929 . S
H1231 C1241 0.929 . S
H1232 C1236 0.929 . S
H1233 C1242 0.929 . S
C1234 H1228 0.930 . S
C1234 C1235 1.367 . S
C1234 C1242 1.378 . S
C1235 C1234 1.367 . S
C1235 C1243 1.433 . S
C1236 H1232 0.929 . S
C1236 C1238 1.378 . S
C1236 C1240 1.350 . S
C1237 C1240 1.463 . S
C1237 C1242 1.350 . S
C1237 N1245 1.427 . S
C1238 H1229 0.930 . S
C1238 C1236 1.378 . S
C1238 C1239 1.367 . S
C1239 C1238 1.367 . S
C1239 C1241 1.433 . S
C1240 C1236 1.350 . S
C1240 C1237 1.463 . S
C1240 N1244 1.427 . S
C1241 H1231 0.929 . S
C1241 C1239 1.433 . S
C1241 N1244 1.384 . S
C1242 H1233 0.929 . S
C1242 C1234 1.378 . S
C1242 C1237 1.350 . S
C1243 H1230 0.929 . S
C1243 C1235 1.433 . S
C1243 N1245 1.384 . S
N1244 C1240 1.427 . S
N1244 C1241 1.384 . S
N1245 C1237 1.427 . S
N1245 C1243 1.384 . S
H1246 C1252 0.930 . S
H1247 C1256 0.930 . S
H1248 C1261 0.929 . S
H1249 C1259 0.929 . S
H1250 C1254 0.929 . S
H1251 C1260 0.929 . S
C1252 H1246 0.930 . S
C1252 C1253 1.367 . S
C1252 C1260 1.378 . S
C1253 C1252 1.367 . S
C1253 C1261 1.433 . S
C1254 H1250 0.929 . S
C1254 C1256 1.378 . S
C1254 C1258 1.350 . S
C1255 C1258 1.463 . S
C1255 C1260 1.350 . S
C1255 N1263 1.427 . S
C1256 H1247 0.930 . S
C1256 C1254 1.378 . S
C1256 C1257 1.367 . S
C1257 C1256 1.367 . S
C1257 C1259 1.433 . S
C1258 C1254 1.350 . S
C1258 C1255 1.463 . S
C1258 N1262 1.427 . S
C1259 H1249 0.929 . S
C1259 C1257 1.433 . S
C1259 N1262 1.384 . S
C1260 H1251 0.929 . S
C1260 C1252 1.378 . S
C1260 C1255 1.350 . S
C1261 H1248 0.929 . S
C1261 C1253 1.433 . S
C1261 N1263 1.384 . S
N1262 C1258 1.427 . S
N1262 C1259 1.384 . S
N1263 C1255 1.427 . S
N1263 C1261 1.384 . S
H1264 C1270 0.930 . S
H1265 C1274 0.930 . S
H1266 C1279 0.929 . S
H1267 C1277 0.929 . S
H1268 C1272 0.929 . S
H1269 C1278 0.929 . S
C1270 H1264 0.930 . S
C1270 C1271 1.367 . S
C1270 C1278 1.378 . S
C1271 C1270 1.367 . S
C1271 C1279 1.433 . S
C1272 H1268 0.929 . S
C1272 C1274 1.378 . S
C1272 C1276 1.350 . S
C1273 C1276 1.463 . S
C1273 C1278 1.350 . S
C1273 N1281 1.427 . S
C1274 H1265 0.930 . S
C1274 C1272 1.378 . S
C1274 C1275 1.367 . S
C1275 C1274 1.367 . S
C1275 C1277 1.433 . S
C1276 C1272 1.350 . S
C1276 C1273 1.463 . S
C1276 N1280 1.427 . S
C1277 H1267 0.929 . S
C1277 C1275 1.433 . S
C1277 N1280 1.384 . S
C1278 H1269 0.929 . S
C1278 C1270 1.378 . S
C1278 C1273 1.350 . S
C1279 H1266 0.929 . S
C1279 C1271 1.433 . S
C1279 N1281 1.384 . S
N1280 C1276 1.427 . S
N1280 C1277 1.384 . S
N1281 C1273 1.427 . S
N1281 C1279 1.384 . S
H1282 C1288 0.930 . S
H1283 C1292 0.930 . S
H1284 C1297 0.929 . S
H1285 C1295 0.929 . S
H1286 C1290 0.929 . S
H1287 C1296 0.929 . S
C1288 H1282 0.930 . S
C1288 C1289 1.367 . S
C1288 C1296 1.378 . S
C1289 C1288 1.367 . S
C1289 C1297 1.433 . S
C1290 H1286 0.929 . S
C1290 C1292 1.378 . S
C1290 C1294 1.350 . S
C1291 C1294 1.463 . S
C1291 C1296 1.350 . S
C1291 N1299 1.427 . S
C1292 H1283 0.930 . S
C1292 C1290 1.378 . S
C1292 C1293 1.367 . S
C1293 C1292 1.367 . S
C1293 C1295 1.433 . S
C1294 C1290 1.350 . S
C1294 C1291 1.463 . S
C1294 N1298 1.427 . S
C1295 H1285 0.929 . S
C1295 C1293 1.433 . S
C1295 N1298 1.384 . S
C1296 H1287 0.929 . S
C1296 C1288 1.378 . S
C1296 C1291 1.350 . S
C1297 H1284 0.929 . S
C1297 C1289 1.433 . S
C1297 N1299 1.384 . S
N1298 C1294 1.427 . S
N1298 C1295 1.384 . S
N1299 C1291 1.427 . S
N1299 C1297 1.384 . S
H1300 C1306 0.930 . S
H1301 C1310 0.930 . S
H1302 C1315 0.929 . S
H1303 C1313 0.929 . S
H1304 C1308 0.929 . S
H1305 C1314 0.929 . S
C1306 H1300 0.930 . S
C1306 C1307 1.367 . S
C1306 C1314 1.378 . S
C1307 C1306 1.367 . S
C1307 C1315 1.433 . S
C1308 H1304 0.929 . S
C1308 C1310 1.378 . S
C1308 C1312 1.350 . S
C1309 C1312 1.463 . S
C1309 C1314 1.350 . S
C1309 N1317 1.427 . S
C1310 H1301 0.930 . S
C1310 C1308 1.378 . S
C1310 C1311 1.367 . S
C1311 C1310 1.367 . S
C1311 C1313 1.433 . S
C1312 C1308 1.350 . S
C1312 C1309 1.463 . S
C1312 N1316 1.427 . S
C1313 H1303 0.929 . S
C1313 C1311 1.433 . S
C1313 N1316 1.384 . S
C1314 H1305 0.929 . S
C1314 C1306 1.378 . S
C1314 C1309 1.350 . S
C1315 H1302 0.929 . S
C1315 C1307 1.433 . S
C1315 N1317 1.384 . S
N1316 C1312 1.427 . S
N1316 C1313 1.384 . S
N1317 C1309 1.427 . S
N1317 C1315 1.384 . S
H1318 C1324 0.930 . S
H1319 C1328 0.930 . S
H1320 C1333 0.929 . S
H1321 C1331 0.929 . S
H1322 C1326 0.929 . S
H1323 C1332 0.929 . S
C1324 H1318 0.930 . S
C1324 C1325 1.367 . S
C1324 C1332 1.378 . S
C1325 C1324 1.367 . S
C1325 C1333 1.433 . S
C1326 H1322 0.929 . S
C1326 C1328 1.378 . S
C1326 C1330 1.350 . S
C1327 C1330 1.463 . S
C1327 C1332 1.350 . S
C1327 N1335 1.427 . S
C1328 H1319 0.930 . S
C1328 C1326 1.378 . S
C1328 C1329 1.367 . S
C1329 C1328 1.367 . S
C1329 C1331 1.433 . S
C1330 C1326 1.350 . S
C1330 C1327 1.463 . S
C1330 N1334 1.427 . S
C1331 H1321 0.929 . S
C1331 C1329 1.433 . S
C1331 N1334 1.384 . S
C1332 H1323 0.929 . S
C1332 C1324 1.378 . S
C1332 C1327 1.350 . S
C1333 H1320 0.929 . S
C1333 C1325 1.433 . S
C1333 N1335 1.384 . S
N1334 C1330 1.427 . S
N1334 C1331 1.384 . S
N1335 C1327 1.427 . S
N1335 C1333 1.384 . S
H1336 C1342 0.930 1_554 S
H1337 C1346 0.930 . S
H1338 C1351 0.929 . S
H1339 C1349 0.929 . S
H1340 C1344 0.929 . S
H1341 C1350 0.929 . S
C1342 H1336 0.930 1_556 S
C1342 C1343 1.367 . S
C1342 C1350 1.378 . S
C1343 C1342 1.367 . S
C1343 C1351 1.433 . S
C1344 H1340 0.929 . S
C1344 C1346 1.378 . S
C1344 C1348 1.350 . S
C1345 C1348 1.463 . S
C1345 C1350 1.350 . S
C1345 N1353 1.427 . S
C1346 H1337 0.930 . S
C1346 C1344 1.378 . S
C1346 C1347 1.367 . S
C1347 C1346 1.367 . S
C1347 C1349 1.433 . S
C1348 C1344 1.350 . S
C1348 C1345 1.463 . S
C1348 N1352 1.427 . S
C1349 H1339 0.929 . S
C1349 C1347 1.433 . S
C1349 N1352 1.384 . S
C1350 H1341 0.929 . S
C1350 C1342 1.378 . S
C1350 C1345 1.350 . S
C1351 H1338 0.929 . S
C1351 C1343 1.433 . S
C1351 N1353 1.384 . S
N1352 C1348 1.427 . S
N1352 C1349 1.384 . S
N1353 C1345 1.427 . S
N1353 C1351 1.384 . S
H1354 C1360 0.930 . S
H1355 C1364 0.930 . S
H1356 C1369 0.929 . S
H1357 C1367 0.929 1_556 S
H1358 C1362 0.929 . S
H1359 C1368 0.929 . S
C1360 H1354 0.930 . S
C1360 C1361 1.367 . S
C1360 C1368 1.378 . S
C1361 C1360 1.367 . S
C1361 C1369 1.433 . S
C1362 H1358 0.929 . S
C1362 C1364 1.378 . S
C1362 C1366 1.350 . S
C1363 C1366 1.463 . S
C1363 C1368 1.350 . S
C1363 N1371 1.427 . S
C1364 H1355 0.930 . S
C1364 C1362 1.378 . S
C1364 C1365 1.367 . S
C1365 C1364 1.367 . S
C1365 C1367 1.433 . S
C1366 C1362 1.350 . S
C1366 C1363 1.463 . S
C1366 N1370 1.427 . S
C1367 H1357 0.929 1_554 S
C1367 C1365 1.433 . S
C1367 N1370 1.384 . S
C1368 H1359 0.929 . S
C1368 C1360 1.378 . S
C1368 C1363 1.350 . S
C1369 H1356 0.929 . S
C1369 C1361 1.433 . S
C1369 N1371 1.384 . S
N1370 C1366 1.427 . S
N1370 C1367 1.384 . S
N1371 C1363 1.427 . S
N1371 C1369 1.384 . S
H1372 C1378 0.930 . S
H1373 C1382 0.930 . S
H1374 C1387 0.929 . S
H1375 C1385 0.929 . S
H1376 C1380 0.929 . S
H1377 C1386 0.929 . S
C1378 H1372 0.930 . S
C1378 C1379 1.367 1_554 S
C1378 C1386 1.378 1_554 S
C1379 C1378 1.367 1_556 S
C1379 C1387 1.433 . S
C1380 H1376 0.929 . S
C1380 C1382 1.378 . S
C1380 C1384 1.350 . S
C1381 C1384 1.463 . S
C1381 C1386 1.350 . S
C1381 N1389 1.427 . S
C1382 H1373 0.930 . S
C1382 C1380 1.378 . S
C1382 C1383 1.367 . S
C1383 C1382 1.367 . S
C1383 C1385 1.433 . S
C1384 C1380 1.350 . S
C1384 C1381 1.463 . S
C1384 N1388 1.427 . S
C1385 H1375 0.929 . S
C1385 C1383 1.433 . S
C1385 N1388 1.384 . S
C1386 H1377 0.929 . S
C1386 C1378 1.378 1_556 S
C1386 C1381 1.350 . S
C1387 H1374 0.929 . S
C1387 C1379 1.433 . S
C1387 N1389 1.384 . S
N1388 C1384 1.427 . S
N1388 C1385 1.384 . S
N1389 C1381 1.427 . S
N1389 C1387 1.384 . S
H1390 C1396 0.930 . S
H1391 C1400 0.930 . S
H1392 C1405 0.929 . S
H1393 C1403 0.929 . S
H1394 C1398 0.929 . S
H1395 C1404 0.929 . S
C1396 H1390 0.930 . S
C1396 C1397 1.367 . S
C1396 C1404 1.378 . S
C1397 C1396 1.367 . S
C1397 C1405 1.433 1_554 S
C1398 H1394 0.929 . S
C1398 C1400 1.378 . S
C1398 C1402 1.350 . S
C1399 C1402 1.463 . S
C1399 C1404 1.350 . S
C1399 N1407 1.427 . S
C1400 H1391 0.930 . S
C1400 C1398 1.378 . S
C1400 C1401 1.367 . S
C1401 C1400 1.367 . S
C1401 C1403 1.433 . S
C1402 C1398 1.350 . S
C1402 C1399 1.463 . S
C1402 N1406 1.427 . S
C1403 H1393 0.929 . S
C1403 C1401 1.433 . S
C1403 N1406 1.384 . S
C1404 H1395 0.929 . S
C1404 C1396 1.378 . S
C1404 C1399 1.350 . S
C1405 H1392 0.929 . S
C1405 C1397 1.433 1_556 S
C1405 N1407 1.384 1_556 S
N1406 C1402 1.427 . S
N1406 C1403 1.384 . S
N1407 C1399 1.427 . S
N1407 C1405 1.384 1_554 S
H1408 C1414 0.930 1_554 S
H1409 C1418 0.930 . S
H1410 C1423 0.929 1_554 S
H1411 C1421 0.929 . S
H1412 C1416 0.929 . S
H1413 C1422 0.929 . S
C1414 H1408 0.930 1_556 S
C1414 C1415 1.367 1_556 S
C1414 C1422 1.378 . S
C1415 C1414 1.367 1_554 S
C1415 C1423 1.433 1_554 S
C1416 H1412 0.929 . S
C1416 C1418 1.378 . S
C1416 C1420 1.350 . S
C1417 C1420 1.463 . S
C1417 C1422 1.350 . S
C1417 N1425 1.427 . S
C1418 H1409 0.930 . S
C1418 C1416 1.378 . S
C1418 C1419 1.367 . S
C1419 C1418 1.367 . S
C1419 C1421 1.433 . S
C1420 C1416 1.350 . S
C1420 C1417 1.463 . S
C1420 N1424 1.427 . S
C1421 H1411 0.929 . S
C1421 C1419 1.433 . S
C1421 N1424 1.384 . S
C1422 H1413 0.929 . S
C1422 C1414 1.378 . S
C1422 C1417 1.350 . S
C1423 H1410 0.929 1_556 S
C1423 C1415 1.433 1_556 S
C1423 N1425 1.384 . S
N1424 C1420 1.427 . S
N1424 C1421 1.384 . S
N1425 C1417 1.427 . S
N1425 C1423 1.384 . S
H1426 C1432 0.930 . S
H1427 C1436 0.930 . S
H1428 C1441 0.929 . S
H1429 C1439 0.929 . S
H1430 C1434 0.929 . S
H1431 C1440 0.929 . S
C1432 H1426 0.930 . S
C1432 C1433 1.367 1_554 S
C1432 C1440 1.378 . S
C1433 C1432 1.367 1_556 S
C1433 C1441 1.433 . S
C1434 H1430 0.929 . S
C1434 C1436 1.378 . S
C1434 C1438 1.350 . S
C1435 C1438 1.463 . S
C1435 C1440 1.350 . S
C1435 N1443 1.427 . S
C1436 H1427 0.930 . S
C1436 C1434 1.378 . S
C1436 C1437 1.367 . S
C1437 C1436 1.367 . S
C1437 C1439 1.433 . S
C1438 C1434 1.350 . S
C1438 C1435 1.463 . S
C1438 N1442 1.427 . S
C1439 H1429 0.929 . S
C1439 C1437 1.433 . S
C1439 N1442 1.384 . S
C1440 H1431 0.929 . S
C1440 C1432 1.378 . S
C1440 C1435 1.350 . S
C1441 H1428 0.929 . S
C1441 C1433 1.433 . S
C1441 N1443 1.384 1_556 S
N1442 C1438 1.427 . S
N1442 C1439 1.384 . S
N1443 C1435 1.427 . S
N1443 C1441 1.384 1_554 S
H1444 C1450 0.930 . S
H1445 C1454 0.930 . S
H1446 C1459 0.929 . S
H1447 C1457 0.929 . S
H1448 C1452 0.929 . S
H1449 C1458 0.929 . S
C1450 H1444 0.930 . S
C1450 C1451 1.367 . S
C1450 C1458 1.378 . S
C1451 C1450 1.367 . S
C1451 C1459 1.433 . S
C1452 H1448 0.929 . S
C1452 C1454 1.378 . S
C1452 C1456 1.350 . S
C1453 C1456 1.463 . S
C1453 C1458 1.350 . S
C1453 N1461 1.427 . S
C1454 H1445 0.930 . S
C1454 C1452 1.378 . S
C1454 C1455 1.367 1_556 S
C1455 C1454 1.367 1_554 S
C1455 C1457 1.433 . S
C1456 C1452 1.350 . S
C1456 C1453 1.463 . S
C1456 N1460 1.427 . S
C1457 H1447 0.929 . S
C1457 C1455 1.433 . S
C1457 N1460 1.384 1_554 S
C1458 H1449 0.929 . S
C1458 C1450 1.378 . S
C1458 C1453 1.350 . S
C1459 H1446 0.929 . S
C1459 C1451 1.433 . S
C1459 N1461 1.384 . S
N1460 C1456 1.427 . S
N1460 C1457 1.384 1_556 S
N1461 C1453 1.427 . S
N1461 C1459 1.384 . S
H1462 C1468 0.930 1_556 S
H1463 C1472 0.930 . S
H1464 C1477 0.929 . S
H1465 C1475 0.929 . S
H1466 C1470 0.929 . S
H1467 C1476 0.929 . S
C1468 H1462 0.930 1_554 S
C1468 C1469 1.367 1_554 S
C1468 C1476 1.378 . S
C1469 C1468 1.367 1_556 S
C1469 C1477 1.433 1_556 S
C1470 H1466 0.929 . S
C1470 C1472 1.378 . S
C1470 C1474 1.350 . S
C1471 C1474 1.463 . S
C1471 C1476 1.350 . S
C1471 N1479 1.427 . S
C1472 H1463 0.930 . S
C1472 C1470 1.378 . S
C1472 C1473 1.367 . S
C1473 C1472 1.367 . S
C1473 C1475 1.433 . S
C1474 C1470 1.350 . S
C1474 C1471 1.463 . S
C1474 N1478 1.427 . S
C1475 H1465 0.929 . S
C1475 C1473 1.433 . S
C1475 N1478 1.384 . S
C1476 H1467 0.929 . S
C1476 C1468 1.378 . S
C1476 C1471 1.350 . S
C1477 H1464 0.929 . S
C1477 C1469 1.433 1_554 S
C1477 N1479 1.384 . S
N1478 C1474 1.427 . S
N1478 C1475 1.384 . S
N1479 C1471 1.427 . S
N1479 C1477 1.384 . S
H1480 C1486 0.930 . S
H1481 C1490 0.930 . S
H1482 C1495 0.929 . S
H1483 C1493 0.929 . S
H1484 C1488 0.929 . S
H1485 C1494 0.929 . S
C1486 H1480 0.930 . S
C1486 C1487 1.367 . S
C1486 C1494 1.378 . S
C1487 C1486 1.367 . S
C1487 C1495 1.433 . S
C1488 H1484 0.929 . S
C1488 C1490 1.378 . S
C1488 C1492 1.350 . S
C1489 C1492 1.463 . S
C1489 C1494 1.350 . S
C1489 N1497 1.427 . S
C1490 H1481 0.930 . S
C1490 C1488 1.378 . S
C1490 C1491 1.367 . S
C1491 C1490 1.367 . S
C1491 C1493 1.433 . S
C1492 C1488 1.350 . S
C1492 C1489 1.463 . S
C1492 N1496 1.427 . S
C1493 H1483 0.929 . S
C1493 C1491 1.433 . S
C1493 N1496 1.384 . S
C1494 H1485 0.929 . S
C1494 C1486 1.378 . S
C1494 C1489 1.350 . S
C1495 H1482 0.929 . S
C1495 C1487 1.433 . S
C1495 N1497 1.384 . S
N1496 C1492 1.427 . S
N1496 C1493 1.384 . S
N1497 C1489 1.427 . S
N1497 C1495 1.384 . S
H1498 C1504 0.930 . S
H1499 C1508 0.930 . S
H1500 C1513 0.929 . S
H1501 C1511 0.929 . S
H1502 C1506 0.929 . S
H1503 C1512 0.929 . S
C1504 H1498 0.930 . S
C1504 C1505 1.367 . S
C1504 C1512 1.378 . S
C1505 C1504 1.367 . S
C1505 C1513 1.433 . S
C1506 H1502 0.929 . S
C1506 C1508 1.378 . S
C1506 C1510 1.350 . S
C1507 C1510 1.463 . S
C1507 C1512 1.350 . S
C1507 N1515 1.427 . S
C1508 H1499 0.930 . S
C1508 C1506 1.378 . S
C1508 C1509 1.367 . S
C1509 C1508 1.367 . S
C1509 C1511 1.433 . S
C1510 C1506 1.350 . S
C1510 C1507 1.463 . S
C1510 N1514 1.427 . S
C1511 H1501 0.929 . S
C1511 C1509 1.433 . S
C1511 N1514 1.384 . S
C1512 H1503 0.929 . S
C1512 C1504 1.378 . S
C1512 C1507 1.350 . S
C1513 H1500 0.929 . S
C1513 C1505 1.433 . S
C1513 N1515 1.384 . S
N1514 C1510 1.427 . S
N1514 C1511 1.384 . S
N1515 C1507 1.427 . S
N1515 C1513 1.384 . S
H1516 C1522 0.930 . S
H1517 C1526 0.930 . S
H1518 C1531 0.929 . S
H1519 C1529 0.929 . S
H1520 C1524 0.929 . S
H1521 C1530 0.929 . S
C1522 H1516 0.930 . S
C1522 C1523 1.367 . S
C1522 C1530 1.378 . S
C1523 C1522 1.367 . S
C1523 C1531 1.433 . S
C1524 H1520 0.929 . S
C1524 C1526 1.378 . S
C1524 C1528 1.350 . S
C1525 C1528 1.463 . S
C1525 C1530 1.350 . S
C1525 N1533 1.427 . S
C1526 H1517 0.930 . S
C1526 C1524 1.378 . S
C1526 C1527 1.367 . S
C1527 C1526 1.367 . S
C1527 C1529 1.433 . S
C1528 C1524 1.350 . S
C1528 C1525 1.463 . S
C1528 N1532 1.427 . S
C1529 H1519 0.929 . S
C1529 C1527 1.433 . S
C1529 N1532 1.384 . S
C1530 H1521 0.929 . S
C1530 C1522 1.378 . S
C1530 C1525 1.350 . S
C1531 H1518 0.929 . S
C1531 C1523 1.433 . S
C1531 N1533 1.384 . S
N1532 C1528 1.427 . S
N1532 C1529 1.384 . S
N1533 C1525 1.427 . S
N1533 C1531 1.384 . S
H1534 C1540 0.930 . S
H1535 C1544 0.930 . S
H1536 C1549 0.929 . S
H1537 C1547 0.929 . S
H1538 C1542 0.929 . S
H1539 C1548 0.929 . S
C1540 H1534 0.930 . S
C1540 C1541 1.367 . S
C1540 C1548 1.378 . S
C1541 C1540 1.367 . S
C1541 C1549 1.433 . S
C1542 H1538 0.929 . S
C1542 C1544 1.378 . S
C1542 C1546 1.350 . S
C1543 C1546 1.463 . S
C1543 C1548 1.350 . S
C1543 N1551 1.427 . S
C1544 H1535 0.930 . S
C1544 C1542 1.378 . S
C1544 C1545 1.367 . S
C1545 C1544 1.367 . S
C1545 C1547 1.433 . S
C1546 C1542 1.350 . S
C1546 C1543 1.463 . S
C1546 N1550 1.427 . S
C1547 H1537 0.929 . S
C1547 C1545 1.433 . S
C1547 N1550 1.384 . S
C1548 H1539 0.929 . S
C1548 C1540 1.378 . S
C1548 C1543 1.350 . S
C1549 H1536 0.929 . S
C1549 C1541 1.433 . S
C1549 N1551 1.384 . S
N1550 C1546 1.427 . S
N1550 C1547 1.384 . S
N1551 C1543 1.427 . S
N1551 C1549 1.384 . S
C551 C28 1.369 . S
C555 C6 1.378 . S
C569 C62 1.376 . S
C573 C40 1.368 . S
C587 C96 1.369 . S
C591 C74 1.378 . S
C605 C130 1.377 . S
C609 C108 1.363 . S
C623 C142 1.378 . S
C627 C164 1.370 . S
C641 C176 1.378 . S
C645 C198 1.369 . S
C659 C210 1.377 . S
C663 C232 1.369 . S
C677 C266 1.369 . S
C681 C244 1.378 . S
C695 C278 1.376 . S
C699 C300 1.367 . S
C713 C334 1.375 . S
C717 C312 1.364 . S
C731 C368 1.362 . S
C735 C346 1.375 . S
C749 C380 1.370 . S
C753 C402 1.378 . S
C767 C436 1.377 . S
C771 C414 1.369 . S
C785 C448 1.377 . S
C789 C470 1.364 . S
C803 C482 1.361 . S
C807 C504 1.375 . S
C821 C516 1.376 . S
C825 C538 1.367 . S
C839 C391 1.636 . S
C843 C22 1.536 . S
C857 C289 1.636 . S
C861 C49 1.538 . S
C875 C323 1.636 . S
C879 C90 1.521 . S
C893 C357 1.638 . S
C897 C117 1.540 . S
C911 C158 1.539 . S
C915 C187 1.638 . S
C929 C192 1.524 . S
C933 C221 1.638 . S
C947 C226 1.540 . S
C951 C255 1.638 . S
C965 C260 1.523 . S
C969 C153 1.637 . S
C983 C294 1.540 . S
C987 C119 1.638 . S
C1001 C17 1.638 . S
C1005 C321 1.538 . S
C1019 C362 1.537 . S
C1023 C51 1.636 . S
C1037 C389 1.538 . S
C1041 C85 1.636 . S
C1055 C423 1.540 . S
C1059 C459 1.638 . S
C1073 C493 1.638 . S
C1077 C464 1.540 . S
C1091 C491 1.524 . S
C1095 C527 1.637 . S
C1109 C532 1.522 . S
C1113 C425 1.635 . S
C1127 C15 1.525 . S
C1131 C151 1.525 . S
C1145 C185 1.528 . S
C1149 C56 1.528 . S
C1163 C219 1.543 . S
C1167 C83 1.543 . S
C1181 C253 1.539 . S
C1185 C124 1.539 . S
C1199 C430 1.522 . S
C1203 C287 1.522 . S
C1217 C328 1.529 . S
C1221 C457 1.529 . S
C1235 C355 1.524 . S
C1239 C498 1.524 . S
C1253 C396 1.527 . S
C1257 C525 1.527 . S
C1271 C1 1.372 . S
C1275 C479 1.357 . S
C1289 C37 1.351 . S
C1293 C511 1.359 . S
C1307 C411 1.351 . S
C1311 C69 1.361 . S
C1325 C105 1.372 . S
C1329 C443 1.369 . S
C1343 C137 1.351 1_556 S
C1347 C341 1.361 . S
C1361 C377 1.374 . S
C1365 C171 1.362 1_554 S
C1379 C205 1.351 1_556 S
C1383 C273 1.358 . S
C1397 C239 1.373 1_554 S
C1401 C309 1.369 . S
C1415 C3 2.318 . S
C1419 C477 2.325 . S
C1433 C35 2.327 . S
C1437 C513 2.322 . S
C1451 C409 2.319 . S
C1455 C71 2.326 . S
C1469 C103 2.317 . S
C1473 C445 2.325 . S
C1487 C139 2.320 . S
C1491 C343 2.327 . S
C1505 C173 2.326 . S
C1509 C375 2.324 . S
C1523 C207 2.318 . S
C1527 C275 2.326 . S
C1541 C241 2.316 . S
C1545 C307 2.321 . S
