# Generated by pormake.
# Topology uol, (4)-cn, num edge types: 1
# Building blocks:
#     Node 0, Type 0, BuildingBlock: KOZSID_clean_sbu_0, # of connection points: 4
#     Node 1, Type 0, BuildingBlock: KOZSID_clean_sbu_0, # of connection points: 4
#     Node 2, Type 0, BuildingBlock: KOZSID_clean_sbu_0, # of connection points: 4
#     Node 3, Type 0, BuildingBlock: KOZSID_clean_sbu_0, # of connection points: 4
#     Node 4, Type 0, BuildingBlock: KOZSID_clean_sbu_0, # of connection points: 4
#     Node 5, Type 0, BuildingBlock: KOZSID_clean_sbu_0, # of connection points: 4
#     Node 6, Type 0, BuildingBlock: KOZSID_clean_sbu_0, # of connection points: 4
#     Node 7, Type 0, BuildingBlock: KOZSID_clean_sbu_0, # of connection points: 4
#     Node 8, Type 0, BuildingBlock: KOZSID_clean_sbu_0, # of connection points: 4
#     Node 9, Type 0, BuildingBlock: KOZSID_clean_sbu_0, # of connection points: 4
#     Node 10, Type 0, BuildingBlock: KOZSID_clean_sbu_0, # of connection points: 4
#     Node 11, Type 0, BuildingBlock: KOZSID_clean_sbu_0, # of connection points: 4
#     Edge 12, Type (0, 0), BuildingBlock: XIVTED_clean_linker_0, # of connection points: 2
#     Edge 13, Type (0, 0), BuildingBlock: XIVTED_clean_linker_0, # of connection points: 2
#     Edge 14, Type (0, 0), BuildingBlock: XIVTED_clean_linker_0, # of connection points: 2
#     Edge 15, Type (0, 0), BuildingBlock: XIVTED_clean_linker_0, # of connection points: 2
#     Edge 16, Type (0, 0), BuildingBlock: XIVTED_clean_linker_0, # of connection points: 2
#     Edge 17, Type (0, 0), BuildingBlock: XIVTED_clean_linker_0, # of connection points: 2
#     Edge 18, Type (0, 0), BuildingBlock: XIVTED_clean_linker_0, # of connection points: 2
#     Edge 19, Type (0, 0), BuildingBlock: XIVTED_clean_linker_0, # of connection points: 2
#     Edge 20, Type (0, 0), BuildingBlock: XIVTED_clean_linker_0, # of connection points: 2
#     Edge 21, Type (0, 0), BuildingBlock: XIVTED_clean_linker_0, # of connection points: 2
#     Edge 22, Type (0, 0), BuildingBlock: XIVTED_clean_linker_0, # of connection points: 2
#     Edge 23, Type (0, 0), BuildingBlock: XIVTED_clean_linker_0, # of connection points: 2
#     Edge 24, Type (0, 0), BuildingBlock: XIVTED_clean_linker_0, # of connection points: 2
#     Edge 25, Type (0, 0), BuildingBlock: XIVTED_clean_linker_0, # of connection points: 2
#     Edge 26, Type (0, 0), BuildingBlock: XIVTED_clean_linker_0, # of connection points: 2
#     Edge 27, Type (0, 0), BuildingBlock: XIVTED_clean_linker_0, # of connection points: 2
#     Edge 28, Type (0, 0), BuildingBlock: XIVTED_clean_linker_0, # of connection points: 2
#     Edge 29, Type (0, 0), BuildingBlock: XIVTED_clean_linker_0, # of connection points: 2
#     Edge 30, Type (0, 0), BuildingBlock: XIVTED_clean_linker_0, # of connection points: 2
#     Edge 31, Type (0, 0), BuildingBlock: XIVTED_clean_linker_0, # of connection points: 2
#     Edge 32, Type (0, 0), BuildingBlock: XIVTED_clean_linker_0, # of connection points: 2
#     Edge 33, Type (0, 0), BuildingBlock: XIVTED_clean_linker_0, # of connection points: 2
#     Edge 34, Type (0, 0), BuildingBlock: XIVTED_clean_linker_0, # of connection points: 2
#     Edge 35, Type (0, 0), BuildingBlock: XIVTED_clean_linker_0, # of connection points: 2
# Relax obj value: 0.144
# Max RMSD: 0.328
# Mean RMSD: 0.313
data_MOF--net-uol--node1-KOZSID_clean_sbu_0--edge1-XIVTED_clean_linker_0
_symmetry_space_group_name_H-M    P1
_symmetry_Int_Tables_number       1
_symmetry_cell_setting            triclinic
loop_
_symmetry_equiv_pos_as_xyz
'x, y, z'
_cell_length_a     41.687332
_cell_length_b     44.424385
_cell_length_c     67.63043
_cell_angle_alpha  90.050529
_cell_angle_beta   89.968626
_cell_angle_gamma 117.97712
loop_
_atom_site_label
_atom_site_type_symbol
_atom_site_fract_x
_atom_site_fract_y
_atom_site_fract_z
_atom_type_partial_charge
C0 C 0.1762 0.33336 0.08408 0.0
C1 C 0.16808 0.32178 0.06474 0.0
C2 C 0.13206 0.31264 0.0619 0.0
C3 C 0.12033 0.31929 0.07957 0.0
N4 N 0.14679 0.33214 0.09324 0.0
Co5 Co 0.14187 0.34518 0.12061 0.0
N6 N 0.08839 0.31598 0.12022 0.0
C7 C 0.06791 0.30346 0.10387 0.0
C8 C 0.03169 0.28395 0.108 0.0
C9 C 0.02911 0.28459 0.12817 0.0
C10 C 0.06403 0.30487 0.13528 0.0
N11 N 0.13674 0.35868 0.14793 0.0
C12 C 0.10826 0.34456 0.16068 0.0
C13 C 0.11603 0.36341 0.17803 0.0
C14 C 0.15037 0.39027 0.1759 0.0
C15 C 0.16171 0.38649 0.15742 0.0
N16 N 0.19536 0.37386 0.12074 0.0
C17 C 0.21434 0.39973 0.13321 0.0
C18 C 0.25123 0.41331 0.13041 0.0
C19 C 0.25545 0.3947 0.11526 0.0
C20 C 0.2208 0.37081 0.10957 0.0
N21 N 0.13608 0.38418 0.11045 0.0
C22 C 0.13396 0.4449 0.09975 0.0
C23 C 0.15949 0.43632 0.09138 0.0
C24 C 0.15992 0.40595 0.09678 0.0
C25 C 0.10865 0.4215 0.11305 0.0
C26 C 0.11017 0.39155 0.11817 0.0
N27 N 0.1489 0.30725 0.131 0.0
C28 C 0.18206 0.28943 0.15319 0.0
C29 C 0.16961 0.25816 0.14338 0.0
C30 C 0.14542 0.25159 0.12748 0.0
C31 C 0.13512 0.27632 0.12167 0.0
C32 C 0.17151 0.31333 0.14685 0.0
H33 H 0.11693 0.27086 0.10926 0.0
H34 H 0.18311 0.33748 0.15437 0.0
H35 H 0.18027 0.40052 0.09023 0.0
H36 H 0.09095 0.37487 0.12891 0.0
C37 C 0.08406 0.30691 0.08526 0.0
C38 C 0.21217 0.34627 0.09317 0.0
C39 C 0.07248 0.31559 0.15608 0.0
C40 C 0.19703 0.40514 0.14967 0.0
H41 H 0.18615 0.31975 0.05394 0.0
H42 H 0.11592 0.30071 0.0489 0.0
H43 H 1.00985 0.27018 0.09763 0.0
H44 H 1.00421 0.27195 0.13659 0.0
H45 H 0.09849 0.35858 0.19073 0.0
H46 H 0.16554 0.4097 0.18676 0.0
H47 H 0.27259 0.433 0.13908 0.0
H48 H 0.28102 0.3981 0.10933 0.0
H49 H 0.1792 0.45303 0.08074 0.0
H50 H 0.08846 0.42676 0.12006 0.0
H51 H 0.20121 0.2962 0.16529 0.0
H52 H 0.1347 0.22768 0.11952 0.0
C53 C 0.70767 0.15115 0.29136 0.0
C54 C 0.69551 0.17405 0.2972 0.0
C55 C 0.71995 0.19547 0.31066 0.0
C56 C 0.74584 0.18484 0.31216 0.0
N57 N 0.73954 0.15803 0.30046 0.0
Co58 Co 0.77269 0.13727 0.29726 0.0
N59 N 0.80138 0.16098 0.32138 0.0
C60 C 0.79808 0.18516 0.33189 0.0
C61 C 0.82016 0.19601 0.34819 0.0
C62 C 0.83943 0.17823 0.34774 0.0
C63 C 0.82825 0.15775 0.33098 0.0
N64 N 0.80678 0.11764 0.29362 0.0
C65 C 0.83616 0.12172 0.30442 0.0
C66 C 0.85457 0.10651 0.29514 0.0
C67 C 0.83664 0.09296 0.27782 0.0
C68 C 0.80841 0.10068 0.27743 0.0
N69 N 0.74221 0.11232 0.27384 0.0
C70 C 0.75093 0.09511 0.2603 0.0
C71 C 0.7244 0.07911 0.24634 0.0
C72 C 0.69723 0.08686 0.25122 0.0
C73 C 0.70885 0.10762 0.26783 0.0
N74 N 0.80594 0.17589 0.27989 0.0
C75 C 0.86139 0.21411 0.25226 0.0
C76 C 0.82467 0.19742 0.24654 0.0
C77 C 0.79736 0.17893 0.26062 0.0
C78 C 0.86885 0.21476 0.27241 0.0
C79 C 0.84113 0.19602 0.28579 0.0
N80 N 0.74127 0.09822 0.31431 0.0
C81 C 0.71783 0.03833 0.32177 0.0
C82 C 0.70867 0.04301 0.34104 0.0
C83 C 0.71446 0.07581 0.34627 0.0
C84 C 0.73024 0.10285 0.33264 0.0
C85 C 0.73399 0.06598 0.30878 0.0
H86 H 0.73458 0.12768 0.33724 0.0
H87 H 0.7419 0.06121 0.29451 0.0
H88 H 0.76969 0.16587 0.25551 0.0
H89 H 0.84948 0.1969 0.30072 0.0
C90 C 0.77317 0.19618 0.32636 0.0
C91 C 0.68854 0.12406 0.2767 0.0
C92 C 0.84957 0.1424 0.32245 0.0
C93 C 0.78228 0.09149 0.2625 0.0
H94 H 0.67146 0.17528 0.29229 0.0
H95 H 0.71839 0.21569 0.31884 0.0
H96 H 0.82248 0.21504 0.3589 0.0
H97 H 0.86104 0.18163 0.35782 0.0
H98 H 0.879 0.10608 0.30012 0.0
H99 H 0.84361 0.07944 0.26672 0.0
H100 H 0.72434 0.06292 0.23436 0.0
H101 H 0.67184 0.07819 0.24337 0.0
H102 H 0.81717 0.19709 0.23119 0.0
H103 H 0.89644 0.22875 0.27787 0.0
H104 H 0.71412 1.01365 0.31692 0.0
H105 H 0.70718 0.08068 0.36086 0.0
C106 C 0.66467 0.82254 0.424 0.0
C107 C 0.6798 0.82564 0.40535 0.0
C108 C 0.69226 0.80202 0.40435 0.0
C109 C 0.68416 0.78591 0.42239 0.0
N110 N 0.66736 0.79796 0.43458 0.0
Co111 Co 0.65202 0.78295 0.4621 0.0
N112 N 0.68615 0.76367 0.46443 0.0
C113 C 0.70158 0.75566 0.44922 0.0
C114 C 0.72388 0.74249 0.45529 0.0
C115 C 0.72206 0.74193 0.47556 0.0
C116 C 0.69853 0.75471 0.48075 0.0
N117 N 0.63631 0.76754 0.48956 0.0
C118 C 0.65257 0.75795 0.50381 0.0
C119 C 0.63149 0.74808 0.52081 0.0
C120 C 0.60096 0.75149 0.5169 0.0
C121 C 0.60499 0.76316 0.49777 0.0
N122 N 0.61838 0.80267 0.4596 0.0
C123 C 0.58906 0.79496 0.47093 0.0
C124 C 0.57192 0.81391 0.46603 0.0
C125 C 0.59185 0.83471 0.45071 0.0
C126 C 0.62015 0.82733 0.44714 0.0
N127 N 0.61371 0.73855 0.45233 0.0
C128 C 0.55465 0.67541 0.44107 0.0
C129 C 0.56131 0.70599 0.43161 0.0
C130 C 0.59094 0.73706 0.43733 0.0
C131 C 0.57904 0.67732 0.45594 0.0
C132 C 0.60811 0.70886 0.46133 0.0
N133 N 0.68941 0.8271 0.47206 0.0
C134 C 0.70494 0.87578 0.49314 0.0
C135 C 0.73933 0.89318 0.48444 0.0
C136 C 0.74853 0.87635 0.46965 0.0
C137 C 0.72334 0.84317 0.46384 0.0
C138 C 0.6805 0.84308 0.48672 0.0
H139 H 0.73099 0.83081 0.4524 0.0
H140 H 0.6539 0.83115 0.49332 0.0
H141 H 0.59502 0.76004 0.42984 0.0
H142 H 0.62555 0.7092 0.47318 0.0
C143 C 0.69877 0.76554 0.42987 0.0
C144 C 0.64709 0.84242 0.43118 0.0
C145 C 0.68619 0.75527 0.50108 0.0
C146 C 0.58348 0.77552 0.48823 0.0
H147 H 0.68208 0.84336 0.3938 0.0
H148 H 0.70737 0.79852 0.39234 0.0
H149 H 0.74038 0.73516 0.44614 0.0
H150 H 0.73611 0.73278 0.48534 0.0
H151 H 0.63739 0.73906 0.53449 0.0
H152 H 0.57909 0.74704 0.52704 0.0
H153 H 0.54885 0.81394 0.47336 0.0
H154 H 0.58636 0.85323 0.4431 0.0
H155 H 0.54378 0.70601 0.41981 0.0
H156 H 0.57515 0.6547 0.46388 0.0
H157 H 0.69632 0.8878 0.5044 0.0
H158 H 0.77494 0.88871 0.46261 0.0
C159 C 0.86151 0.69748 0.58498 0.0
C160 C 0.86976 0.70969 0.56577 0.0
C161 C 0.90579 0.71886 0.56288 0.0
C162 C 0.9174 0.71162 0.58039 0.0
N163 N 0.89087 0.69841 0.59401 0.0
Co164 Co 0.89561 0.6844 0.62113 0.0
N165 N 0.94906 0.71359 0.62087 0.0
C166 C 0.96969 0.7262 0.60458 0.0
C167 C 1.00598 0.74507 0.60881 0.0
C168 C 1.00839 0.74394 0.62898 0.0
C169 C 0.97329 0.7242 0.63597 0.0
N170 N 0.90066 0.66997 0.6482 0.0
C171 C 0.92904 0.68387 0.66102 0.0
C172 C 0.92133 0.66456 0.67815 0.0
C173 C 0.8871 0.63758 0.67581 0.0
C174 C 0.87577 0.6418 0.65741 0.0
N175 N 0.84217 0.65567 0.62115 0.0
C176 C 0.82319 0.62933 0.63331 0.0
C177 C 0.78632 0.61566 0.63043 0.0
C178 C 0.78212 0.63471 0.61555 0.0
C179 C 0.81677 0.65894 0.6101 0.0
N180 N 0.9014 0.64573 0.61034 0.0
C181 C 0.90287 0.58499 0.5989 0.0
C182 C 0.87772 0.59417 0.59068 0.0
C183 C 0.8776 0.62454 0.59644 0.0
C184 C 0.92824 0.60788 0.6124 0.0
C185 C 0.92705 0.63787 0.61788 0.0
N186 N 0.88849 0.72193 0.63216 0.0
C187 C 0.85497 0.73876 0.65476 0.0
C188 C 0.86728 0.77033 0.64535 0.0
C189 C 0.89162 0.77756 0.62944 0.0
C190 C 0.90217 0.75316 0.62322 0.0
C191 C 0.86578 0.71521 0.64803 0.0
H192 H 0.92044 0.75912 0.61081 0.0
H193 H 0.85424 0.69082 0.65526 0.0
H194 H 0.85747 0.63038 0.59002 0.0
H195 H 0.94626 0.65413 0.62876 0.0
C196 C 0.95365 0.72346 0.58601 0.0
C197 C 0.82543 0.68402 0.59402 0.0
C198 C 0.96449 0.71343 0.65668 0.0
C199 C 0.84047 0.62335 0.64959 0.0
H200 H 0.85175 0.71201 0.55507 0.0
H201 H 0.92197 0.73109 0.54994 0.0
H202 H 0.02799 0.75868 0.59851 0.0
H203 H 0.03324 0.75576 0.6375 0.0
H204 H 0.9388 0.66925 0.69087 0.0
H205 H 0.87194 0.61784 0.68649 0.0
H206 H 0.76494 0.59556 0.63887 0.0
H207 H 0.75656 0.63135 0.60962 0.0
H208 H 0.85801 0.57791 0.57989 0.0
H209 H 0.94818 0.60216 0.61929 0.0
H210 H 0.83573 0.73146 0.66685 0.0
H211 H 0.90226 0.80173 0.62178 0.0
C212 C 0.3276 0.8797 0.79157 0.0
C213 C 0.33798 0.85529 0.79682 0.0
C214 C 0.31207 0.83324 0.80947 0.0
C215 C 0.28719 0.8451 0.81113 0.0
N216 N 0.29556 0.87328 0.80034 0.0
Co217 Co 0.26481 0.89664 0.79789 0.0
N218 N 0.23505 0.87262 0.82164 0.0
C219 C 0.23528 0.84579 0.83079 0.0
C220 C 0.21239 0.83423 0.84671 0.0
C221 C 0.19588 0.85446 0.84748 0.0
C222 C 0.20962 0.87739 0.83186 0.0
N223 N 0.2337 0.91948 0.79512 0.0
C224 C 0.2066 0.91843 0.80682 0.0
C225 C 0.19091 0.93694 0.79849 0.0
C226 C 0.20792 0.9491 0.78076 0.0
C227 C 0.23313 0.93757 0.77926 0.0
N228 N 0.29569 0.92094 0.77449 0.0
C229 C 0.28774 0.93875 0.76102 0.0
C230 C 0.31442 0.95413 0.74707 0.0
C231 C 0.34083 0.94531 0.75189 0.0
C232 C 0.32865 0.92456 0.76847 0.0
N233 N 0.2299 0.85976 0.7803 0.0
C234 C 0.17584 0.82172 0.75202 0.0
C235 C 0.21294 0.83401 0.7477 0.0
C236 C 0.23955 0.85276 0.76212 0.0
C237 C 0.16672 0.82595 0.77129 0.0
C238 C 0.19368 0.8447 0.78498 0.0
N239 N 0.29797 0.9342 0.81532 0.0
C240 C 0.32501 0.99428 0.82319 0.0
C241 C 0.33122 0.98822 0.84279 0.0
C242 C 0.32243 0.95457 0.84796 0.0
C243 C 0.3064 0.9281 0.83396 0.0
C244 C 0.30844 0.96719 0.80984 0.0
H245 H 0.29947 0.90254 0.83852 0.0
H246 H 0.3025 0.97305 0.79535 0.0
H247 H 0.2678 0.86291 0.75815 0.0
H248 H 0.18425 0.84842 0.79895 0.0
C249 C 0.2589 0.83349 0.82477 0.0
C250 C 0.34808 0.90732 0.77742 0.0
C251 C 0.19204 0.89736 0.82469 0.0
C252 C 0.25807 0.94487 0.76385 0.0
H253 H 0.36169 0.8534 0.79196 0.0
H254 H 0.31199 0.81174 0.81702 0.0
H255 H 0.20792 0.81332 0.85647 0.0
H256 H 0.17468 0.85122 0.85778 0.0
H257 H 0.16869 0.94037 0.80438 0.0
H258 H 0.20248 0.96445 0.77021 0.0
H259 H 0.31533 0.97098 0.73528 0.0
H260 H 0.36621 0.95352 0.74409 0.0
H261 H 0.22141 0.83075 0.73307 0.0
H262 H 0.13855 0.81596 0.77567 0.0
H263 H 0.3311 0.01964 0.81837 0.0
H264 H 0.32736 0.9486 0.86281 0.0
C265 C 0.37558 0.20974 0.92397 0.0
C266 C 0.35923 0.20501 0.90556 0.0
C267 C 0.3455 0.22769 0.9044 0.0
C268 C 0.35423 0.24495 0.92209 0.0
N269 N 0.37262 0.23453 0.9342 0.0
Co270 Co 0.38953 0.25165 0.96122 0.0
N271 N 0.35401 0.26924 0.96385 0.0
C272 C 0.33704 0.2757 0.94879 0.0
C273 C 0.31425 0.28822 0.95506 0.0
C274 C 0.31735 0.28996 0.97528 0.0
C275 C 0.34198 0.27838 0.98026 0.0
N276 N 0.40678 0.26922 0.98819 0.0
C277 C 0.39072 0.27885 1.00256 0.0
C278 C 0.41293 0.29047 0.01909 0.0
C279 C 0.44399 0.28822 0.01472 0.0
C280 C 0.43912 0.2754 0.99582 0.0
N281 N 0.42457 0.23355 0.95842 0.0
C282 C 0.4549 0.24306 0.96916 0.0
C283 C 0.4729 0.22487 0.96422 0.0
C284 C 0.45244 0.20267 0.94951 0.0
C285 C 0.42301 0.20853 0.94629 0.0
N286 N 0.42595 0.29599 0.95032 0.0
C287 C 0.48462 0.35895 0.93846 0.0
C288 C 0.47777 0.32818 0.92915 0.0
C289 C 0.44833 0.29721 0.93515 0.0
C290 C 0.46028 0.35738 0.95329 0.0
C291 C 0.43137 0.32591 0.95897 0.0
N292 N 0.35427 0.20755 0.97231 0.0
C293 C 0.34384 0.16013 0.99334 0.0
C294 C 0.30962 0.14021 0.98488 0.0
C295 C 0.29721 0.15563 0.97081 0.0
C296 C 0.31995 0.18942 0.96477 0.0
C297 C 0.36559 0.19337 0.98686 0.0
H298 H 0.31036 0.20043 0.95349 0.0
H299 H 0.39231 0.20708 0.99315 0.0
H300 H 0.44429 0.27407 0.92787 0.0
H301 H 0.41412 0.32577 0.97089 0.0
C302 C 0.33904 0.26494 0.92952 0.0
C303 C 0.39483 0.19142 0.93113 0.0
C304 C 0.35582 0.2794 1.00038 0.0
C305 C 0.46093 0.2635 0.9861 0.0
H306 H 0.35711 0.18687 0.89428 0.0
H307 H 0.32928 0.22985 0.89254 0.0
H308 H 0.29666 0.2944 0.94608 0.0
H309 H 0.30349 0.29916 0.9852 0.0
H310 H 0.40738 0.29978 0.03278 0.0
H311 H 0.46679 0.29411 0.02445 0.0
H312 H 0.49693 0.22624 0.97117 0.0
H313 H 0.45831 0.1842 0.94211 0.0
H314 H 0.49516 0.32789 0.91734 0.0
H315 H 0.46424 0.38017 0.96107 0.0
H316 H 0.35433 0.14984 0.00465 0.0
H317 H 0.27086 0.14134 0.96392 0.0
C318 C 0.57477 0.881 0.71798 0.0
C319 C 0.53986 0.85739 0.71234 0.0
C320 C 0.5433 0.83531 0.69955 0.0
C321 C 0.5799 0.8463 0.6982 0.0
N322 N 0.60008 0.87403 0.70931 0.0
Co323 Co 0.65406 0.89553 0.71255 0.0
N324 N 0.65957 0.87087 0.68901 0.0
C325 C 0.63224 0.84516 0.67928 0.0
C326 C 0.64353 0.83301 0.6636 0.0
C327 C 0.68049 0.85167 0.66359 0.0
C328 C 0.68981 0.87429 0.67939 0.0
N329 N 0.70772 0.91603 0.71628 0.0
C330 C 0.73357 0.91329 0.70526 0.0
C331 C 0.7674 0.9302 0.71421 0.0
C332 C 0.76249 0.94312 0.73165 0.0
C333 C 0.72609 0.93359 0.73236 0.0
N334 N 0.64793 0.92111 0.73547 0.0
C335 C 0.67358 0.93879 0.74903 0.0
C336 C 0.66263 0.95495 0.76268 0.0
C337 C 0.62769 0.94678 0.75759 0.0
C338 C 0.61895 0.92561 0.74117 0.0
N339 N 0.64928 0.85793 0.73046 0.0
C340 C 0.66158 0.81805 0.7591 0.0
C341 C 0.64104 0.83473 0.76367 0.0
C342 C 0.63429 0.85367 0.74899 0.0
C343 C 0.67321 0.81957 0.73964 0.0
C344 C 0.6672 0.83963 0.72578 0.0
N345 N 0.66123 0.93365 0.69484 0.0
C346 C 0.69977 0.99244 0.68576 0.0
C347 C 0.68511 0.98667 0.66671 0.0
C348 C 0.6563 0.95433 0.66242 0.0
C349 C 0.64481 0.92814 0.67668 0.0
C350 C 0.68715 0.96597 0.69959 0.0
H351 H 0.62385 0.90312 0.67266 0.0
H352 H 0.69994 0.97151 0.71384 0.0
H353 H 0.61836 0.86605 0.75307 0.0
H354 H 0.67943 0.84149 0.71166 0.0
C355 C 0.59627 0.83411 0.68474 0.0
C356 C 0.58221 0.90849 0.73229 0.0
C357 C 0.72703 0.89267 0.68721 0.0
C358 C 0.70874 0.94278 0.74708 0.0
H359 H 0.51439 0.85599 0.71704 0.0
H360 H 0.52171 0.81427 0.69175 0.0
H361 H 0.62691 0.81265 0.65355 0.0
H362 H 0.69844 0.84757 0.65369 0.0
H363 H 0.79285 0.93228 0.70887 0.0
H364 H 0.78304 0.95783 0.74248 0.0
H365 H 0.6785 0.97152 0.7746 0.0
H366 H 0.61068 0.9554 0.7652 0.0
H367 H 0.63083 0.83366 0.77852 0.0
H368 H 0.68909 0.80706 0.73538 0.0
H369 H 0.7217 0.01716 0.6898 0.0
H370 H 0.64401 0.94884 0.64787 0.0
C371 C 0.85939 0.69728 0.92354 0.0
C372 C 0.86193 0.70838 0.94294 0.0
C373 C 0.83441 0.71675 0.94559 0.0
C374 C 0.81662 0.71016 0.92775 0.0
N375 N 0.83122 0.69814 0.91415 0.0
Co376 Co 0.81407 0.68524 0.88667 0.0
N377 N 0.7892 0.71389 0.8869 0.0
C378 C 0.7794 0.72483 0.90329 0.0
C379 C 0.76048 0.74233 0.89921 0.0
C380 C 0.75783 0.74211 0.87902 0.0
C381 C 0.77555 0.72451 0.8718 0.0
N382 N 0.79618 0.67191 0.8592 0.0
C383 C 0.78245 0.6863 0.84622 0.0
C384 C 0.77403 0.66873 0.82838 0.0
C385 C 0.78163 0.64198 0.8306 0.0
C386 C 0.79465 0.64474 0.84952 0.0
N387 N 0.83944 0.65704 0.88675 0.0
C388 C 0.83333 0.63147 0.87419 0.0
C389 C 0.85688 0.61823 0.87719 0.0
C390 C 0.87905 0.63674 0.89256 0.0
C391 C 0.86768 0.66024 0.89818 0.0
N392 N 0.76928 0.64582 0.89652 0.0
C393 C 0.70639 0.58515 0.90729 0.0
C394 C 0.74042 0.59392 0.91581 0.0
C395 C 0.77126 0.62426 0.91036 0.0
C396 C 0.70462 0.60824 0.89371 0.0
C397 C 0.73611 0.63815 0.88854 0.0
N398 N 0.85907 0.72362 0.87658 0.0
C399 C 0.91056 0.74218 0.85466 0.0
C400 C 0.92889 0.77337 0.86459 0.0
C401 C 0.91083 0.77949 0.88046 0.0
C402 C 0.87577 0.75444 0.88607 0.0
C403 C 0.87611 0.71794 0.86082 0.0
H404 H 0.86264 0.75957 0.89842 0.0
H405 H 0.86402 0.6939 0.8532 0.0
H406 H 0.79695 0.62988 0.91707 0.0
H407 H 0.73365 0.6546 0.87762 0.0
C408 C 0.7918 0.72139 0.92198 0.0
C409 C 0.88293 0.68466 0.91469 0.0
C410 C 0.77487 0.71494 0.85087 0.0
C411 C 0.8114 0.62631 0.85744 0.0
H412 H 0.88169 0.71041 0.95394 0.0
H413 H 0.82926 0.72796 0.95863 0.0
H414 H 0.75013 0.75416 0.90964 0.0
H415 H 0.74344 0.75275 0.87067 0.0
H416 H 0.7635 0.67446 0.81511 0.0
H417 H 0.7793 0.62357 0.81945 0.0
H418 H 0.85922 0.59891 0.86847 0.0
H419 H 0.90128 0.6336 0.89863 0.0
H420 H 0.74333 0.57743 0.92664 0.0
H421 H 0.67925 0.60279 0.88655 0.0
H422 H 0.9233 0.73575 0.84257 0.0
H423 H 0.92368 0.80331 0.88852 0.0
C424 C 0.18091 0.82157 0.08527 0.0
C425 C 0.16918 0.82616 0.10368 0.0
C426 C 0.13278 0.80344 0.10478 0.0
C427 C 0.12435 0.78633 0.08703 0.0
N428 N 0.15325 0.79687 0.07497 0.0
Co429 Co 0.15326 0.78019 0.04786 0.0
N430 N 0.10021 0.76277 0.04515 0.0
C431 C 0.07664 0.75614 0.06017 0.0
C432 C 0.04141 0.74382 0.05383 0.0
C433 C 0.04297 0.74239 0.0336 0.0
C434 C 0.07921 0.75392 0.02869 0.0
N435 N 0.1532 0.76307 0.02079 0.0
C436 C 0.12767 0.75375 0.00637 0.0
C437 C 0.13836 0.74232 0.98979 0.0
C438 C 0.17157 0.74438 0.99418 0.0
C439 C 0.17937 0.75691 0.01315 0.0
N440 N 0.20633 0.79812 0.05075 0.0
C441 C 0.22724 0.78873 0.03998 0.0
C442 C 0.2634 0.80696 0.04496 0.0
C443 C 0.26502 0.82908 0.05971 0.0
C444 C 0.22969 0.82313 0.0629 0.0
N445 N 0.14509 0.73562 0.0585 0.0
C446 C 0.1403 0.67233 0.07002 0.0
C447 C 0.16425 0.7029 0.07949 0.0
C448 C 0.16603 0.73404 0.07365 0.0
C449 C 0.11778 0.67427 0.05518 0.0
C450 C 0.12058 0.7059 0.04967 0.0
N451 N 0.16237 0.82453 0.03703 0.0
C452 C 0.20021 0.87246 0.01655 0.0
C453 C 0.18602 0.89233 0.02518 0.0
C454 C 0.15776 0.87669 0.03899 0.0
C455 C 0.14625 0.84266 0.04469 0.0
C456 C 0.18818 0.83895 0.02264 0.0
H457 H 0.12541 0.83146 0.05584 0.0
H458 H 0.20112 0.82524 0.01624 0.0
H459 H 0.18516 0.75704 0.08106 0.0
H460 H 0.10363 0.70631 0.03775 0.0
C461 C 0.08923 0.76656 0.0795 0.0
C462 C 0.21845 0.84011 0.07807 0.0
C463 C 0.09223 0.7532 0.00857 0.0
C464 C 0.21297 0.76855 0.02294 0.0
H465 H 0.1851 0.84427 0.11499 0.0
H466 H 0.1143 0.80123 0.11661 0.0
H467 H 1.01757 0.73758 0.06277 0.0
H468 H 0.02001 0.73344 0.02363 0.0
H469 H 0.12358 0.73321 0.97607 0.0
H470 H 0.18851 0.73855 0.98442 0.0
H471 H 0.28613 0.80572 0.03799 0.0
H472 H 0.28929 0.84756 0.06714 0.0
H473 H 0.18176 0.7029 0.09131 0.0
H474 H 0.09893 0.65165 0.04727 0.0
H475 H 0.22139 0.88303 0.00545 0.0
H476 H 0.1458 0.891 0.04597 0.0
C477 C 0.46209 0.15012 0.21741 0.0
C478 C 0.49696 0.17413 0.21197 0.0
C479 C 0.49335 0.19655 0.19955 0.0
C480 C 0.4567 0.18531 0.1982 0.0
N481 N 0.43668 0.15713 0.20896 0.0
Co482 Co 0.38268 0.13484 0.21198 0.0
N483 N 0.377 0.1598 0.18869 0.0
C484 C 0.40419 0.18645 0.17948 0.0
C485 C 0.39286 0.19884 0.16396 0.0
C486 C 0.35601 0.17933 0.16351 0.0
C487 C 0.34677 0.15598 0.17891 0.0
N488 N 0.32889 0.11314 0.21533 0.0
C489 C 0.30285 0.11499 0.20403 0.0
C490 C 0.26881 0.09698 0.21263 0.0
C491 C 0.27377 0.08431 0.23014 0.0
C492 C 0.3104 0.09504 0.23123 0.0
N493 N 0.38908 0.10953 0.23491 0.0
C494 C 0.36351 0.09186 0.24852 0.0
C495 C 0.37467 0.07585 0.26214 0.0
C496 C 0.40962 0.08416 0.25697 0.0
C497 C 0.41817 0.10524 0.24055 0.0
N498 N 0.3865 0.17183 0.23005 0.0
C499 C 0.37597 0.21247 0.25889 0.0
C500 C 0.39816 0.19722 0.26276 0.0
C501 C 0.40388 0.17779 0.24797 0.0
C502 C 0.36134 0.20885 0.23998 0.0
C503 C 0.36653 0.18839 0.22602 0.0
N504 N 0.37668 0.09723 0.19412 0.0
C505 C 0.34338 0.03716 0.18631 0.0
C506 C 0.3559 0.04305 0.16676 0.0
C507 C 0.38063 0.07668 0.16148 0.0
C508 C 0.39105 0.10325 0.17543 0.0
C509 C 0.35387 0.06431 0.19959 0.0
H510 H 0.40976 0.12878 0.17085 0.0
H511 H 0.34204 0.05852 0.21408 0.0
H512 H 0.42109 0.16645 0.25144 0.0
H513 H 0.35229 0.18484 0.21239 0.0
C514 C 0.44017 0.19779 0.18504 0.0
C515 C 0.45476 0.12238 0.2315 0.0
C516 C 0.30933 0.1362 0.18624 0.0
C517 C 0.328 0.08677 0.24623 0.0
H518 H 0.52249 0.1756 0.2166 0.0
H519 H 0.51488 0.21799 0.19199 0.0
H520 H 0.40938 0.21978 0.15424 0.0
H521 H 0.33804 0.18326 0.15357 0.0
H522 H 0.24321 0.09416 0.20707 0.0
H523 H 0.25312 0.06907 0.24079 0.0
H524 H 0.35883 0.05906 0.27397 0.0
H525 H 0.42669 0.07553 0.2645 0.0
H526 H 0.4105 0.19983 0.27718 0.0
H527 H 0.34401 0.22012 0.23632 0.0
H528 H 0.32411 1.01182 0.19118 0.0
H529 H 0.39159 0.08252 0.14664 0.0
C530 C 0.18198 0.33473 0.42449 0.0
C531 C 0.17849 0.32284 0.44375 0.0
C532 C 0.20567 0.31407 0.44655 0.0
C533 C 0.22422 0.32121 0.42893 0.0
N534 N 0.2104 0.33395 0.41533 0.0
Co535 Co 0.22882 0.34781 0.38812 0.0
N536 N 0.25323 0.31878 0.38829 0.0
C537 C 0.26214 0.30703 0.40463 0.0
C538 C 0.28088 0.28935 0.40052 0.0
C539 C 0.28431 0.29031 0.38035 0.0
C540 C 0.26722 0.30848 0.37319 0.0
N541 N 0.24821 0.36227 0.361 0.0
C542 C 0.26215 0.34811 0.34797 0.0
C543 C 0.27163 0.36647 0.33042 0.0
C544 C 0.26447 0.39345 0.33289 0.0
C545 C 0.25064 0.39004 0.35167 0.0
N546 N 0.20376 0.37626 0.38822 0.0
C547 C 0.21063 0.40236 0.37596 0.0
C548 C 0.18718 0.41575 0.37888 0.0
C549 C 0.16426 0.39676 0.39389 0.0
C550 C 0.1751 0.37284 0.39937 0.0
N551 N 0.27328 0.38661 0.39876 0.0
C552 C 0.33554 0.4474 0.40999 0.0
C553 C 0.30127 0.43832 0.41828 0.0
C554 C 0.27075 0.40791 0.41262 0.0
C555 C 0.33793 0.42444 0.39651 0.0
C556 C 0.30673 0.39444 0.39112 0.0
N557 N 0.18406 0.31015 0.37723 0.0
C558 C 0.1337 0.29414 0.35484 0.0
C559 C 0.11261 0.26426 0.36549 0.0
C560 C 0.1294 0.25639 0.38127 0.0
C561 C 0.16531 0.27959 0.3868 0.0
C562 C 0.16876 0.31661 0.36098 0.0
H563 H 0.17718 0.27361 0.3994 0.0
H564 H 0.18252 0.34025 0.35308 0.0
H565 H 0.24482 0.40211 0.41909 0.0
H566 H 0.30962 0.37816 0.38023 0.0
C567 C 0.24904 0.30988 0.42326 0.0
C568 C 0.15903 0.34789 0.41555 0.0
C569 C 0.26874 0.31881 0.35236 0.0
C570 C 0.23354 0.40822 0.35955 0.0
H571 H 0.1583 0.32052 0.45456 0.0
H572 H 0.2101 0.30223 0.45952 0.0
H573 H 0.29057 0.27692 0.4109 0.0
H574 H 0.29877 0.27972 0.37198 0.0
H575 H 0.28247 0.36106 0.31715 0.0
H576 H 0.26748 0.41237 0.32195 0.0
H577 H 0.18549 0.43557 0.37038 0.0
H578 H 0.14196 0.39991 0.39987 0.0
H579 H 0.29791 0.45467 0.42905 0.0
H580 H 0.36354 0.43012 0.38955 0.0
H581 H 0.12273 0.30099 0.34211 0.0
H582 H 0.11445 0.23341 0.38986 0.0
C583 C 0.85601 0.20987 0.58461 0.0
C584 C 0.86702 0.2078 0.60369 0.0
C585 C 0.90291 0.23184 0.60509 0.0
C586 C 0.91172 0.24734 0.58688 0.0
N587 N 0.88354 0.23455 0.57424 0.0
Co588 Co 0.88419 0.24929 0.54663 0.0
N589 N 0.93771 0.26893 0.54498 0.0
C590 C 0.96051 0.27737 0.56051 0.0
C591 C 0.99625 0.29076 0.55491 0.0
C592 C 0.99587 0.29105 0.53462 0.0
C593 C 0.95978 0.27792 0.52892 0.0
N594 N 0.88496 0.26453 0.51902 0.0
C595 C 0.91143 0.27421 0.5051 0.0
C596 C 0.90078 0.28382 0.48782 0.0
C597 C 0.86657 0.28012 0.49119 0.0
C598 C 0.85821 0.26856 0.51032 0.0
N599 N 0.83063 0.22907 0.5485 0.0
C600 C 0.8093 0.23612 0.53655 0.0
C601 C 0.77301 0.21598 0.54052 0.0
C602 C 0.77168 0.19509 0.55589 0.0
C603 C 0.80737 0.20382 0.56061 0.0
N604 N 0.88947 0.29361 0.55607 0.0
C605 C 0.89322 0.35672 0.56716 0.0
C606 C 0.86881 0.32605 0.57637 0.0
C607 C 0.86752 0.29499 0.57072 0.0
C608 C 0.91622 0.35488 0.55256 0.0
C609 C 0.91389 0.32336 0.54725 0.0
N610 N 0.87824 0.20521 0.53699 0.0
C611 C 0.84632 0.15649 0.51577 0.0
C612 C 0.86263 0.13903 0.5251 0.0
C613 C 0.88777 0.15586 0.54027 0.0
C614 C 0.89554 0.18911 0.54582 0.0
C615 C 0.85426 0.1892 0.52196 0.0
H616 H 0.91486 0.2015 0.55755 0.0
H617 H 0.83999 0.20109 0.51489 0.0
H618 H 0.84829 0.27195 0.57804 0.0
H619 H 0.93148 0.3231 0.53564 0.0
C620 C 0.947 0.26788 0.57978 0.0
C621 C 0.81907 0.18904 0.57693 0.0
C622 C 0.94772 0.27714 0.50839 0.0
C623 C 0.82385 0.25565 0.51935 0.0
H624 H 0.85092 0.1905 0.61528 0.0
H625 H 0.92087 0.2361 0.61752 0.0
H626 H 1.0197 0.29848 0.5644 0.0
H627 H 1.01952 0.30031 0.52514 0.0
H628 H 0.91623 0.2928 0.47428 0.0
H629 H 0.8494 0.28421 0.48071 0.0
H630 H 0.75016 0.21496 0.53241 0.0
H631 H 0.7472 0.1754 0.56246 0.0
H632 H 0.85081 0.32595 0.58794 0.0
H633 H 0.93531 0.37756 0.5448 0.0
H634 H 0.82636 0.14445 0.50419 0.0
H635 H 0.90125 0.14343 0.54781 0.0
H636 H 0.1977 0.6601 0.07927 0.0
H637 H 0.07571 0.45788 0.09467 0.0
H638 H 0.08127 0.60781 0.07216 0.0
H639 H 0.19287 0.50852 0.09426 0.0
H640 H 0.07701 0.51263 0.08795 0.0
H641 H 0.19617 0.60544 0.08646 0.0
C642 C 0.17172 0.63724 0.07937 0.0
C643 C 0.13955 0.63894 0.07507 0.0
C644 C 0.10245 0.51179 0.08929 0.0
C645 C 0.13769 0.57561 0.0832 0.0
C646 C 0.10176 0.48044 0.09324 0.0
C647 C 0.13423 0.47821 0.09506 0.0
C648 C 0.13588 0.54155 0.08726 0.0
C649 C 0.16707 0.5086 0.09275 0.0
C650 C 0.17092 0.60588 0.08335 0.0
C651 C 0.10687 0.60802 0.07515 0.0
N652 N 0.16702 0.53881 0.08908 0.0
N653 N 0.10679 0.57785 0.07917 0.0
H654 H 0.66843 0.13222 0.23874 0.0
H655 H 0.48296 0.13 0.26944 0.0
H656 H 0.62523 0.10474 0.29765 0.0
H657 H 0.50022 0.1054 0.21011 0.0
H658 H 0.53732 0.12625 0.28018 0.0
H659 H 0.61009 0.12783 0.22782 0.0
C660 C 0.64646 0.12451 0.24931 0.0
C661 C 0.65172 0.11808 0.2691 0.0
C662 C 0.52897 0.12122 0.26486 0.0
C663 C 0.58502 0.11468 0.25683 0.0
C664 C 0.49765 0.12303 0.25873 0.0
C665 C 0.48619 0.11711 0.23888 0.0
C666 C 0.55002 0.11453 0.25098 0.0
C667 C 0.50759 0.10968 0.22559 0.0
C668 C 0.61319 0.12232 0.24309 0.0
C669 C 0.62241 0.10953 0.28222 0.0
N670 N 0.53847 0.10897 0.23179 0.0
N671 N 0.5907 0.10848 0.27594 0.0
H672 H 0.48492 0.66278 0.43168 0.0
H673 H 0.4069 0.46101 0.41527 0.0
H674 H 0.54981 0.61121 0.4387 0.0
H675 H 0.33932 0.51058 0.41581 0.0
H676 H 0.45983 0.51595 0.42234 0.0
H677 H 0.43217 0.60795 0.42419 0.0
C678 C 0.48828 0.64005 0.43151 0.0
C679 C 0.52221 0.64198 0.43588 0.0
C680 C 0.43343 0.51483 0.42095 0.0
C681 C 0.46126 0.5785 0.42739 0.0
C682 C 0.40308 0.48339 0.4168 0.0
C683 C 0.36824 0.48081 0.41491 0.0
C684 C 0.42932 0.54434 0.42312 0.0
C685 C 0.36533 0.51095 0.41736 0.0
C686 C 0.45794 0.60859 0.42736 0.0
C687 C 0.52433 0.61123 0.43568 0.0
N688 N 0.39531 0.54127 0.42123 0.0
N689 N 0.49447 0.58098 0.43149 0.0
H690 H 0.96049 0.57111 0.59366 0.0
H691 H 0.83612 0.36968 0.5761 0.0
H692 H 0.84337 0.52196 0.5928 0.0
H693 H 0.95276 0.42074 0.57004 0.0
H694 H 0.8384 0.42456 0.58374 0.0
H695 H 0.9583 0.51615 0.58639 0.0
C696 C 0.93426 0.54883 0.59202 0.0
C697 C 0.90207 0.55155 0.59388 0.0
C698 C 0.86352 0.4238 0.58075 0.0
C699 C 0.89939 0.48796 0.58543 0.0
C700 C 0.86229 0.3923 0.57651 0.0
C701 C 0.89429 0.39021 0.57237 0.0
C702 C 0.89705 0.45377 0.58103 0.0
C703 C 0.92726 0.42085 0.57287 0.0
C704 C 0.93306 0.51736 0.58775 0.0
C705 C 0.86898 0.52151 0.59128 0.0
N706 N 0.92776 0.45113 0.57713 0.0
N707 N 0.86853 0.49116 0.58729 0.0
H708 H 0.55402 0.90058 0.77031 0.0
H709 H 0.36908 0.90005 0.73944 0.0
H710 H 0.53688 0.92601 0.71119 0.0
H711 H 0.41033 0.92388 0.79889 0.0
H712 H 0.42743 0.90429 0.72871 0.0
H713 H 0.49946 0.90397 0.78119 0.0
C714 C 0.53931 0.90763 0.75967 0.0
C715 C 0.55083 0.91381 0.73983 0.0
C716 C 0.42393 0.90903 0.74406 0.0
C717 C 0.48679 0.91605 0.75209 0.0
C718 C 0.39064 0.90696 0.75019 0.0
C719 C 0.38484 0.91257 0.77006 0.0
C720 C 0.45162 0.9157 0.75796 0.0
C721 C 0.41358 0.91985 0.78339 0.0
C722 C 0.50786 0.90923 0.76588 0.0
C723 C 0.52946 0.92146 0.72666 0.0
N724 N 0.44535 0.92088 0.77718 0.0
N725 N 0.4985 0.92199 0.73292 0.0
H726 H 0.55409 0.37062 0.92923 0.0
H727 H 0.63523 0.57253 0.91209 0.0
H728 H 0.49052 0.42359 0.93587 0.0
H729 H 0.7014 0.52157 0.91351 0.0
H730 H 0.58163 0.51809 0.91918 0.0
H731 H 0.60739 0.42498 0.9217 0.0
C732 C 0.55112 0.39356 0.92896 0.0
C733 C 0.51738 0.39215 0.93322 0.0
C734 C 0.60788 0.51879 0.91798 0.0
C735 C 0.57903 0.45513 0.92469 0.0
C736 C 0.63861 0.54995 0.91382 0.0
C737 C 0.67326 0.55201 0.91217 0.0
C738 C 0.61139 0.48902 0.92039 0.0
C739 C 0.67557 0.52162 0.91486 0.0
C740 C 0.5818 0.42476 0.92478 0.0
C741 C 0.51582 0.42317 0.93292 0.0
N742 N 0.64522 0.49157 0.91873 0.0
N743 N 0.546 0.45316 0.9287 0.0
H744 H 0.2843 0.17165 0.20885 0.0
H745 H 0.1889 0.21815 0.11986 0.0
H746 H 0.27358 0.12848 0.15067 0.0
H747 H 0.18228 0.24265 0.18097 0.0
H748 H 0.21801 0.18386 0.1304 0.0
H749 H 0.24563 0.19665 0.19873 0.0
C750 C 0.27328 0.16702 0.194 0.0
C751 C 0.28209 0.14789 0.1806 0.0
C752 C 0.20988 0.19652 0.1415 0.0
C753 C 0.23824 0.17719 0.16864 0.0
C754 C 0.193 0.21596 0.1355 0.0
C755 C 0.18334 0.23376 0.14949 0.0
C756 C 0.21733 0.19489 0.16165 0.0
C757 C 0.18986 0.23011 0.16955 0.0
C758 C 0.25131 0.18143 0.18817 0.0
C759 C 0.26738 0.14304 0.16145 0.0
N760 N 0.20662 0.21146 0.17495 0.0
N761 N 0.24652 0.15788 0.15597 0.0
H762 H 0.9021 0.20755 0.31598 0.0
H763 H 0.06937 0.19359 0.3652 0.0
H764 H 0.88708 0.11294 0.34138 0.0
H765 H 0.06487 0.28737 0.35479 0.0
H766 H 1.0053 0.16159 0.3546 0.0
H767 H 0.9649 0.23492 0.32682 0.0
C768 C 0.91211 0.19238 0.32371 0.0
C769 C 0.88914 0.15786 0.32777 0.0
C770 C 1.01853 0.18918 0.35467 0.0
C771 C 0.96184 0.18943 0.34059 0.0
C772 C 0.05505 0.20748 0.36079 0.0
C773 C 0.07308 0.24338 0.36051 0.0
C774 C 1.00002 0.20693 0.34818 0.0
C775 C 0.05286 0.25984 0.35469 0.0
C776 C 0.9481 0.20814 0.33006 0.0
C777 C 0.90392 0.13962 0.33794 0.0
N778 N 1.01785 0.24161 0.34867 0.0
N779 N 0.93938 0.15561 0.34405 0.0
H780 H 0.84622 0.08411 0.54941 0.0
H781 H 0.7802 0.94799 0.46052 0.0
H782 H 0.85348 0.11167 0.48782 0.0
H783 H 0.7549 0.9205 0.52184 0.0
H784 H 0.81564 1.00786 0.4704 0.0
H785 H 0.8214 0.0241 0.5397 0.0
C786 C 0.84317 0.07762 0.53384 0.0
C787 C 0.85176 0.10301 0.51943 0.0
C788 C 0.80258 0.98869 0.48171 0.0
C789 C 0.82302 0.03423 0.50818 0.0
C790 C 0.78256 0.95445 0.47608 0.0
C791 C 0.76431 0.92912 0.49034 0.0
C792 C 0.80467 0.99778 0.50179 0.0
C793 C 0.76807 0.93917 0.5103 0.0
C794 C 0.82872 0.04331 0.5283 0.0
C795 C 0.84681 0.09295 0.49946 0.0
N796 N 0.78765 0.97262 0.51541 0.0
N797 N 0.83268 0.05944 0.49445 0.0
H798 H 0.85401 0.78423 0.68322 0.0
H799 H 0.76392 0.90232 0.65192 0.0
H800 H 0.84808 0.8112 0.62256 0.0
H801 H 0.75013 0.85469 0.70892 0.0
H802 H 0.80237 0.87655 0.64166 0.0
H803 H 0.82399 0.81735 0.69355 0.0
C804 C 0.84651 0.79718 0.67202 0.0
C805 C 0.85328 0.79434 0.65189 0.0
C806 C 0.79122 0.87201 0.65647 0.0
C807 C 0.81888 0.833 0.66381 0.0
C808 C 0.76944 0.88682 0.66234 0.0
C809 C 0.75387 0.88064 0.68129 0.0
C810 C 0.79777 0.85111 0.66973 0.0
C811 C 0.76175 0.86027 0.69422 0.0
C812 C 0.82939 0.81623 0.67798 0.0
C813 C 0.84363 0.81263 0.63822 0.0
N814 N 0.78299 0.84624 0.6882 0.0
N815 N 0.82673 0.83093 0.6444 0.0
H816 H 0.95677 0.79011 0.82704 0.0
H817 H 0.16445 0.90502 0.86043 0.0
H818 H 0.98825 0.81305 0.88819 0.0
H819 H 0.13117 0.86255 0.80217 0.0
H820 H 0.10006 0.87918 0.87037 0.0
H821 H 0.02007 0.82423 0.81728 0.0
C822 C 0.97695 0.80243 0.83847 0.0
C823 C 0.96693 0.79815 0.85855 0.0
C824 C 0.10685 0.87581 0.85537 0.0
C825 C 0.04018 0.83786 0.84732 0.0
C826 C 0.14354 0.89067 0.84968 0.0
C827 C 0.15317 0.88584 0.83048 0.0
C828 C 0.07953 0.85627 0.84167 0.0
C829 C 0.12503 0.86698 0.81711 0.0
C830 C 1.01323 0.82204 0.83285 0.0
C831 C 0.9945 0.8156 0.87256 0.0
N832 N 0.08968 0.85287 0.82296 0.0
N833 N 0.02983 0.83442 0.8667 0.0
H834 H 0.25799 0.93713 0.02213 0.0
H835 H 0.23551 0.10078 0.99143 0.0
H836 H 0.15257 0.93252 0.01766 0.0
H837 H 0.33595 0.09498 0.9901 0.0
H838 H 0.20365 0.04054 1.00181 0.0
H839 H 0.28615 0.99648 0.01209 0.0
C840 C 0.24066 0.94859 0.01892 0.0
C841 C 0.20274 0.92948 0.02042 0.0
C842 C 0.23267 0.05259 0.99924 0.0
C843 C 0.23516 0.99834 0.00896 0.0
C844 C 0.25084 0.0869 0.99322 0.0
C845 C 0.28865 0.10328 0.99017 0.0
C846 C 0.25246 0.03457 1.00216 0.0
C847 C 0.30703 0.08393 0.99275 0.0
C848 C 0.25683 0.98268 0.01322 0.0
C849 C 0.18189 0.94623 0.01664 0.0
N850 N 0.28887 0.05091 0.99862 0.0
N851 N 0.19835 0.97968 0.01097 0.0
H852 H 0.20922 0.28399 0.09044 0.0
H853 H 0.37628 0.34384 0.01418 0.0
H854 H 0.27481 0.38847 0.07284 0.0
H855 H 0.29801 0.23897 0.02381 0.0
H856 H 0.34522 0.36119 0.03918 0.0
H857 H 0.24713 0.2676 0.06995 0.0
C858 C 0.23222 0.30359 0.08261 0.0
C859 C 0.23935 0.33773 0.08368 0.0
C860 C 0.33502 0.33435 0.03601 0.0
C861 C 0.28252 0.31912 0.05975 0.0
C862 C 0.35287 0.32448 0.02185 0.0
C863 C 0.33983 0.28993 0.01713 0.0
C864 C 0.30384 0.30947 0.04557 0.0
C865 C 0.30906 0.26583 0.02719 0.0
C866 C 0.25369 0.29422 0.07079 0.0
C867 C 0.26897 0.36203 0.07288 0.0
N868 N 0.29212 0.27602 0.04089 0.0
N869 N 0.28936 0.35226 0.06134 0.0
H870 H 0.92481 0.20993 0.25282 0.0
H871 H 1.01472 0.32914 0.1581 0.0
H872 H 0.86872 0.25241 0.21839 0.0
H873 H 0.06183 0.27379 0.18794 0.0
H874 H 0.96298 0.30479 0.1811 0.0
H875 H 0.97633 0.23587 0.2303 0.0
C876 C 0.92333 0.22492 0.24057 0.0
C877 C 0.89225 0.22919 0.23773 0.0
C878 C 0.9846 0.29797 0.18268 0.0
C879 C 0.9518 0.25907 0.21151 0.0
C880 C 1.01417 0.31195 0.1696 0.0
C881 C 0.04237 0.30315 0.17103 0.0
C882 C 0.98332 0.27524 0.1975 0.0
C883 C 0.04057 0.28107 0.18629 0.0
C884 C 0.95285 0.23963 0.22761 0.0
C885 C 0.89192 0.2483 0.22122 0.0
N886 N 1.01157 0.26783 0.19886 0.0
N887 N 0.92126 0.26266 0.20883 0.0
H888 H 0.65914 0.97571 0.33483 0.0
H889 H 0.69169 0.90961 0.43961 0.0
H890 H 0.72678 0.04382 0.3804 0.0
H891 H 0.61339 0.84456 0.39684 0.0
H892 H 0.7038 0.95937 0.41886 0.0
H893 H 0.64118 0.92786 0.35767 0.0
C894 C 0.67016 0.98069 0.34967 0.0
C895 C 0.69473 1.01404 0.35557 0.0
C896 C 0.68367 0.93429 0.41408 0.0
C897 C 0.67417 0.95887 0.38203 0.0
C898 C 0.67667 0.90596 0.42597 0.0
C899 C 0.65141 0.87307 0.41993 0.0
C900 C 0.66548 0.92966 0.39589 0.0
C901 C 0.63295 0.86957 0.40203 0.0
C902 C 0.65976 0.95327 0.36278 0.0
C903 C 0.7076 0.01872 0.37517 0.0
N904 N 0.64053 0.8974 0.39061 0.0
N905 N 0.69747 0.99151 0.38758 0.0
H906 H 0.76471 0.6413 0.57266 0.0
H907 H 0.73708 0.79527 0.52821 0.0
H908 H 0.82588 0.74539 0.59204 0.0
H909 H 0.67142 0.69044 0.51134 0.0
H910 H 0.76688 0.77708 0.55343 0.0
H911 H 0.72688 0.65782 0.55216 0.0
C912 C 0.76942 0.66743 0.57305 0.0
C913 C 0.7979 0.69188 0.58441 0.0
C914 C 0.74573 0.75794 0.54437 0.0
C915 C 0.75568 0.71138 0.56037 0.0
C916 C 0.7287 0.76837 0.53003 0.0
C917 C 0.70186 0.7443 0.51775 0.0
C918 C 0.73597 0.72313 0.54637 0.0
C919 C 0.69203 0.70974 0.52058 0.0
C920 C 0.74813 0.67699 0.56116 0.0
C921 C 0.8038 0.72569 0.58373 0.0
N922 N 0.70922 0.70021 0.53446 0.0
N923 N 0.78309 0.73446 0.57186 0.0
H924 H 0.12012 0.83657 0.74604 0.0
H925 H 1.01672 0.69351 0.66322 0.0
H926 H 0.16356 0.77243 0.72334 0.0
H927 H 0.98076 0.76446 0.68364 0.0
H928 H 0.0693 0.71988 0.68567 0.0
H929 H 0.06865 0.80928 0.72365 0.0
C930 C 0.11886 0.81665 0.73631 0.0
C931 C 0.14624 0.80662 0.73681 0.0
C932 C 0.04985 0.72959 0.68536 0.0
C933 C 0.08665 0.77493 0.71079 0.0
C934 C 1.01975 0.7144 0.67266 0.0
C935 C 0.99432 0.72674 0.67174 0.0
C936 C 0.05456 0.75736 0.69726 0.0
C937 C 0.99961 0.75406 0.68404 0.0
C938 C 0.08934 0.80107 0.72345 0.0
C939 C 0.14322 0.78107 0.7235 0.0
N940 N 0.02906 0.76842 0.69624 0.0
N941 N 0.11387 0.76596 0.71114 0.0
H942 H 0.43482 0.18792 0.89989 0.0
H943 H 0.30825 0.98702 0.88118 0.0
H944 H 0.34411 0.12506 0.93707 0.0
H945 H 0.38468 0.05475 0.83838 0.0
H946 H 0.32655 0.03525 0.90405 0.0
H947 H 0.42238 0.13772 0.8795 0.0
C948 C 0.4127 0.16334 0.90394 0.0
C949 C 0.39071 0.16045 0.92028 0.0
C950 C 0.33949 0.03952 0.8897 0.0
C951 C 0.37585 0.10288 0.8969 0.0
C952 C 0.32926 1.01188 0.87667 0.0
C953 C 0.34478 0.01666 0.8577 0.0
C954 C 0.36578 0.07232 0.88391 0.0
C955 C 0.37157 0.04975 0.8527 0.0
C956 C 0.4054 0.13473 0.89224 0.0
C957 C 0.36191 0.12819 0.9247 0.0
N958 N 0.38112 0.07616 0.86564 0.0
N959 N 0.35529 0.10071 0.9131 0.0
H960 H 0.70151 0.84628 0.79256 0.0
H961 H 0.71157 0.68012 0.8294 0.0
H962 H 0.65115 0.75227 0.75969 0.0
H963 H 0.79847 0.78134 0.83982 0.0
H964 H 0.6823 0.70419 0.80757 0.0
H965 H 0.72942 0.82097 0.81456 0.0
C966 C 0.69567 0.82007 0.79026 0.0
C967 C 0.67368 0.80125 0.77438 0.0
C968 C 0.70797 0.72109 0.81446 0.0
C969 C 0.70571 0.77218 0.79941 0.0
C970 C 0.72494 0.70733 0.82674 0.0
C971 C 0.75818 0.72864 0.83598 0.0
C972 C 0.72363 0.75658 0.8119 0.0
C973 C 0.77325 0.76393 0.83271 0.0
C974 C 0.71195 0.80578 0.80265 0.0
C975 C 0.66771 0.76759 0.77183 0.0
N976 N 0.7558 0.77679 0.8211 0.0
N977 N 0.68344 0.75409 0.78423 0.0
H978 H 0.90174 0.64154 0.93514 0.0
H979 H 0.07785 0.79467 0.98441 0.0
H980 H 0.9424 0.74672 0.91858 0.0
H981 H 0.04604 0.68896 0.99526 0.0
H982 H 0.02999 0.77756 0.95919 0.0
H983 H 0.95576 0.65776 0.95587 0.0
C984 C 0.92259 0.66791 0.93541 0.0
C985 C 0.91804 0.69272 0.92474 0.0
C986 C 0.03365 0.75803 0.96689 0.0
C987 C 0.97934 0.71181 0.94911 0.0
C988 C 0.06105 0.76785 0.98122 0.0
C989 C 0.06601 0.74319 0.99172 0.0
C990 C 1.01066 0.72318 0.96319 0.0
C991 C 0.04322 0.70872 0.98729 0.0
C992 C 0.95326 0.67727 0.94744 0.0
C993 C 0.94518 0.72676 0.92634 0.0
N994 N 1.01642 0.69973 0.97348 0.0
N995 N 0.97446 0.73531 0.93834 0.0
H996 H 0.23531 0.90624 0.07033 0.0
H997 H 0.34447 0.97729 0.17191 0.0
H998 H 0.26014 0.84489 0.11042 0.0
H999 H 0.33403 0.04269 0.12816 0.0
H1000 H 0.31524 0.92914 0.14915 0.0
H1001 H 0.27282 0.95689 0.09049 0.0
C1002 C 0.24925 0.90364 0.08322 0.0
C1003 C 0.24505 0.87152 0.08864 0.0
C1004 C 0.31955 0.95403 0.14441 0.0
C1005 C 0.28732 0.92911 0.11209 0.0
C1006 C 0.3362 0.98162 0.15747 0.0
C1007 C 0.34168 1.01427 0.15207 0.0
C1008 C 0.30775 0.95873 0.12574 0.0
C1009 C 0.33068 0.01816 0.13298 0.0
C1010 C 0.27051 0.93247 0.09478 0.0
C1011 C 0.26309 0.86931 0.10564 0.0
N1012 N 0.31398 0.99076 0.12063 0.0
N1013 N 0.28317 0.89759 0.11681 0.0
H1014 H 0.33796 0.18526 0.29294 0.0
H1015 H 0.33242 0.35281 0.33104 0.0
H1016 H 0.38744 0.27853 0.25945 0.0
H1017 H 0.24363 0.25241 0.34093 0.0
H1018 H 0.36047 0.32806 0.30879 0.0
H1019 H 0.31175 0.21149 0.31549 0.0
C1020 C 0.344 0.21152 0.29063 0.0
C1021 C 0.36523 0.22988 0.27444 0.0
C1022 C 0.33465 0.31151 0.31567 0.0
C1023 C 0.33518 0.25998 0.30007 0.0
C1024 C 0.31838 0.32566 0.32817 0.0
C1025 C 0.28493 0.30479 0.33736 0.0
C1026 C 0.31811 0.27604 0.31285 0.0
C1027 C 0.26903 0.2695 0.33386 0.0
C1028 C 0.32869 0.22633 0.30333 0.0
C1029 C 0.3715 0.26361 0.27185 0.0
N1030 N 0.28583 0.25623 0.32204 0.0
N1031 N 0.35674 0.27763 0.28456 0.0
H1032 H 0.14108 0.39068 0.43694 0.0
H1033 H 0.9586 0.23711 0.48123 0.0
H1034 H 0.09828 0.28641 0.41792 0.0
H1035 H 0.999 0.34185 0.49863 0.0
H1036 H 1.00696 0.25511 0.4562 0.0
H1037 H 0.08687 0.37427 0.45756 0.0
C1038 C 0.11973 0.36451 0.43667 0.0
C1039 C 0.12375 0.34 0.42536 0.0
C1040 C 1.00517 0.27426 0.46536 0.0
C1041 C 0.06214 0.32063 0.44953 0.0
C1042 C 0.97751 0.26394 0.47959 0.0
C1043 C 0.97498 0.28804 0.49198 0.0
C1044 C 0.03062 0.30899 0.46353 0.0
C1045 C 1.00016 0.32252 0.48935 0.0
C1046 C 0.08895 0.35502 0.44863 0.0
C1047 C 0.09591 0.30616 0.42619 0.0
N1048 N 0.02702 0.33194 0.47554 0.0
N1049 N 0.06647 0.29746 0.43811 0.0
H1050 H 0.75379 1.01331 0.65213 0.0
H1051 H 0.75439 0.17141 0.59685 0.0
H1052 H 0.65562 0.02211 0.64668 0.0
H1053 H 0.82944 0.13348 0.58217 0.0
H1054 H 0.71899 0.11986 0.61667 0.0
H1055 H 0.78371 0.06022 0.62852 0.0
C1056 C 0.73848 0.02505 0.64583 0.0
C1057 C 0.70213 1.01369 0.6513 0.0
C1058 C 0.74283 0.12254 0.60882 0.0
C1059 C 0.73649 0.06808 0.62447 0.0
C1060 C 0.76282 0.15179 0.59728 0.0
C1061 C 0.79438 0.15634 0.58729 0.0
C1062 C 0.75504 0.09807 0.61091 0.0
C1063 C 0.80503 0.13082 0.58937 0.0
C1064 C 0.75554 0.0518 0.63232 0.0
C1065 C 0.6836 0.02993 0.64274 0.0
N1066 N 0.78569 0.10307 0.60103 0.0
N1067 N 0.70108 0.05656 0.62994 0.0
loop_
_geom_bond_atom_site_label_1
_geom_bond_atom_site_label_2
_geom_bond_distance
_geom_bond_site_symmetry_2
_ccdc_geom_bond_type
C0 C1 1.443 . S
C0 N4 1.376 . S
C0 C38 1.389 . S
C1 C0 1.443 . S
C1 C2 1.340 . S
C1 H41 0.951 . S
C2 C1 1.340 . S
C2 C3 1.439 . S
C2 H42 0.950 . S
C3 C2 1.439 . S
C3 N4 1.374 . S
C3 C37 1.395 . S
N4 C0 1.376 . S
N4 C3 1.374 . S
N4 Co5 2.008 . S
Co5 N4 2.008 . S
Co5 N6 1.995 . S
Co5 N11 2.008 . S
Co5 N16 1.995 . S
Co5 N21 2.282 . S
Co5 N27 2.282 . S
N6 Co5 1.995 . S
N6 C7 1.376 . S
N6 C10 1.383 . S
C7 N6 1.376 . S
C7 C8 1.446 . S
C7 C37 1.391 . S
C8 C7 1.446 . S
C8 C9 1.339 . S
C8 H43 0.949 . S
C9 C8 1.339 . S
C9 C10 1.439 . S
C9 H44 0.950 . S
C10 N6 1.383 . S
C10 C9 1.439 . S
C10 C39 1.392 . S
N11 Co5 2.008 . S
N11 C12 1.376 . S
N11 C15 1.374 . S
C12 N11 1.376 . S
C12 C13 1.443 . S
C12 C39 1.389 . S
C13 C12 1.443 . S
C13 C14 1.340 . S
C13 H45 0.951 . S
C14 C13 1.340 . S
C14 C15 1.439 . S
C14 H46 0.950 . S
C15 N11 1.374 . S
C15 C14 1.439 . S
C15 C40 1.395 . S
N16 Co5 1.995 . S
N16 C17 1.376 . S
N16 C20 1.383 . S
C17 N16 1.376 . S
C17 C18 1.446 . S
C17 C40 1.391 . S
C18 C17 1.446 . S
C18 C19 1.339 . S
C18 H47 0.949 . S
C19 C18 1.339 . S
C19 C20 1.439 . S
C19 H48 0.950 . S
C20 N16 1.383 . S
C20 C19 1.439 . S
C20 C38 1.392 . S
N21 Co5 2.282 . S
N21 C24 1.332 . S
N21 C26 1.332 . S
C22 C23 1.386 . S
C22 C25 1.388 . S
C23 C22 1.386 . S
C23 C24 1.382 . S
C23 H49 0.950 . S
C24 N21 1.332 . S
C24 C23 1.382 . S
C24 H35 0.952 . S
C25 C22 1.388 . S
C25 C26 1.382 . S
C25 H50 0.950 . S
C26 N21 1.332 . S
C26 C25 1.382 . S
C26 H36 0.948 . S
N27 Co5 2.282 . S
N27 C31 1.332 . S
N27 C32 1.332 . S
C28 C29 1.388 . S
C28 C32 1.382 . S
C28 H51 0.950 . S
C29 C28 1.388 . S
C29 C30 1.386 . S
C30 C29 1.386 . S
C30 C31 1.382 . S
C30 H52 0.950 . S
C31 N27 1.332 . S
C31 C30 1.382 . S
C31 H33 0.952 . S
C32 N27 1.332 . S
C32 C28 1.382 . S
C32 H34 0.948 . S
H33 C31 0.952 . S
H34 C32 0.948 . S
H35 C24 0.952 . S
H36 C26 0.948 . S
C37 C3 1.395 . S
C37 C7 1.391 . S
C38 C0 1.389 . S
C38 C20 1.392 . S
C39 C10 1.392 . S
C39 C12 1.389 . S
C40 C15 1.395 . S
C40 C17 1.391 . S
H41 C1 0.951 . S
H42 C2 0.950 . S
H43 C8 0.949 . S
H44 C9 0.950 . S
H45 C13 0.951 . S
H46 C14 0.950 . S
H47 C18 0.949 . S
H48 C19 0.950 . S
H49 C23 0.950 . S
H50 C25 0.950 . S
H51 C28 0.950 . S
H52 C30 0.950 . S
C53 C54 1.443 . S
C53 N57 1.376 . S
C53 C91 1.389 . S
C54 C53 1.443 . S
C54 C55 1.340 . S
C54 H94 0.951 . S
C55 C54 1.340 . S
C55 C56 1.439 . S
C55 H95 0.950 . S
C56 C55 1.439 . S
C56 N57 1.374 . S
C56 C90 1.395 . S
N57 C53 1.376 . S
N57 C56 1.374 . S
N57 Co58 2.008 . S
Co58 N57 2.008 . S
Co58 N59 1.995 . S
Co58 N64 2.008 . S
Co58 N69 1.995 . S
Co58 N74 2.282 . S
Co58 N80 2.282 . S
N59 Co58 1.995 . S
N59 C60 1.376 . S
N59 C63 1.383 . S
C60 N59 1.376 . S
C60 C61 1.446 . S
C60 C90 1.391 . S
C61 C60 1.446 . S
C61 C62 1.339 . S
C61 H96 0.949 . S
C62 C61 1.339 . S
C62 C63 1.439 . S
C62 H97 0.950 . S
C63 N59 1.383 . S
C63 C62 1.439 . S
C63 C92 1.392 . S
N64 Co58 2.008 . S
N64 C65 1.376 . S
N64 C68 1.374 . S
C65 N64 1.376 . S
C65 C66 1.443 . S
C65 C92 1.389 . S
C66 C65 1.443 . S
C66 C67 1.340 . S
C66 H98 0.951 . S
C67 C66 1.340 . S
C67 C68 1.439 . S
C67 H99 0.950 . S
C68 N64 1.374 . S
C68 C67 1.439 . S
C68 C93 1.395 . S
N69 Co58 1.995 . S
N69 C70 1.376 . S
N69 C73 1.383 . S
C70 N69 1.376 . S
C70 C71 1.446 . S
C70 C93 1.391 . S
C71 C70 1.446 . S
C71 C72 1.339 . S
C71 H100 0.949 . S
C72 C71 1.339 . S
C72 C73 1.439 . S
C72 H101 0.950 . S
C73 N69 1.383 . S
C73 C72 1.439 . S
C73 C91 1.392 . S
N74 Co58 2.282 . S
N74 C77 1.332 . S
N74 C79 1.332 . S
C75 C76 1.386 . S
C75 C78 1.388 . S
C76 C75 1.386 . S
C76 C77 1.382 . S
C76 H102 0.950 . S
C77 N74 1.332 . S
C77 C76 1.382 . S
C77 H88 0.952 . S
C78 C75 1.388 . S
C78 C79 1.382 . S
C78 H103 0.950 . S
C79 N74 1.332 . S
C79 C78 1.382 . S
C79 H89 0.948 . S
N80 Co58 2.282 . S
N80 C84 1.332 . S
N80 C85 1.332 . S
C81 C82 1.388 . S
C81 C85 1.382 . S
C81 H104 0.950 . S
C82 C81 1.388 . S
C82 C83 1.386 . S
C83 C82 1.386 . S
C83 C84 1.382 . S
C83 H105 0.950 . S
C84 N80 1.332 . S
C84 C83 1.382 . S
C84 H86 0.952 . S
C85 N80 1.332 . S
C85 C81 1.382 . S
C85 H87 0.948 . S
H86 C84 0.952 . S
H87 C85 0.948 . S
H88 C77 0.952 . S
H89 C79 0.948 . S
C90 C56 1.395 . S
C90 C60 1.391 . S
C91 C53 1.389 . S
C91 C73 1.392 . S
C92 C63 1.392 . S
C92 C65 1.389 . S
C93 C68 1.395 . S
C93 C70 1.391 . S
H94 C54 0.951 . S
H95 C55 0.950 . S
H96 C61 0.949 . S
H97 C62 0.950 . S
H98 C66 0.951 . S
H99 C67 0.950 . S
H100 C71 0.949 . S
H101 C72 0.950 . S
H102 C76 0.950 . S
H103 C78 0.950 . S
H104 C81 0.950 . S
H105 C83 0.950 . S
C106 C107 1.443 . S
C106 N110 1.376 . S
C106 C144 1.389 . S
C107 C106 1.443 . S
C107 C108 1.340 . S
C107 H147 0.951 . S
C108 C107 1.340 . S
C108 C109 1.439 . S
C108 H148 0.950 . S
C109 C108 1.439 . S
C109 N110 1.374 . S
C109 C143 1.395 . S
N110 C106 1.376 . S
N110 C109 1.374 . S
N110 Co111 2.008 . S
Co111 N110 2.008 . S
Co111 N112 1.995 . S
Co111 N117 2.008 . S
Co111 N122 1.995 . S
Co111 N127 2.282 . S
Co111 N133 2.282 . S
N112 Co111 1.995 . S
N112 C113 1.376 . S
N112 C116 1.383 . S
C113 N112 1.376 . S
C113 C114 1.446 . S
C113 C143 1.391 . S
C114 C113 1.446 . S
C114 C115 1.339 . S
C114 H149 0.949 . S
C115 C114 1.339 . S
C115 C116 1.439 . S
C115 H150 0.950 . S
C116 N112 1.383 . S
C116 C115 1.439 . S
C116 C145 1.392 . S
N117 Co111 2.008 . S
N117 C118 1.376 . S
N117 C121 1.374 . S
C118 N117 1.376 . S
C118 C119 1.443 . S
C118 C145 1.389 . S
C119 C118 1.443 . S
C119 C120 1.340 . S
C119 H151 0.951 . S
C120 C119 1.340 . S
C120 C121 1.439 . S
C120 H152 0.950 . S
C121 N117 1.374 . S
C121 C120 1.439 . S
C121 C146 1.395 . S
N122 Co111 1.995 . S
N122 C123 1.376 . S
N122 C126 1.383 . S
C123 N122 1.376 . S
C123 C124 1.446 . S
C123 C146 1.391 . S
C124 C123 1.446 . S
C124 C125 1.339 . S
C124 H153 0.949 . S
C125 C124 1.339 . S
C125 C126 1.439 . S
C125 H154 0.950 . S
C126 N122 1.383 . S
C126 C125 1.439 . S
C126 C144 1.392 . S
N127 Co111 2.282 . S
N127 C130 1.332 . S
N127 C132 1.332 . S
C128 C129 1.386 . S
C128 C131 1.388 . S
C129 C128 1.386 . S
C129 C130 1.382 . S
C129 H155 0.950 . S
C130 N127 1.332 . S
C130 C129 1.382 . S
C130 H141 0.952 . S
C131 C128 1.388 . S
C131 C132 1.382 . S
C131 H156 0.950 . S
C132 N127 1.332 . S
C132 C131 1.382 . S
C132 H142 0.948 . S
N133 Co111 2.282 . S
N133 C137 1.332 . S
N133 C138 1.332 . S
C134 C135 1.388 . S
C134 C138 1.382 . S
C134 H157 0.950 . S
C135 C134 1.388 . S
C135 C136 1.386 . S
C136 C135 1.386 . S
C136 C137 1.382 . S
C136 H158 0.950 . S
C137 N133 1.332 . S
C137 C136 1.382 . S
C137 H139 0.952 . S
C138 N133 1.332 . S
C138 C134 1.382 . S
C138 H140 0.948 . S
H139 C137 0.952 . S
H140 C138 0.948 . S
H141 C130 0.952 . S
H142 C132 0.948 . S
C143 C109 1.395 . S
C143 C113 1.391 . S
C144 C106 1.389 . S
C144 C126 1.392 . S
C145 C116 1.392 . S
C145 C118 1.389 . S
C146 C121 1.395 . S
C146 C123 1.391 . S
H147 C107 0.951 . S
H148 C108 0.950 . S
H149 C114 0.949 . S
H150 C115 0.950 . S
H151 C119 0.951 . S
H152 C120 0.950 . S
H153 C124 0.949 . S
H154 C125 0.950 . S
H155 C129 0.950 . S
H156 C131 0.950 . S
H157 C134 0.950 . S
H158 C136 0.950 . S
C159 C160 1.443 . S
C159 N163 1.376 . S
C159 C197 1.389 . S
C160 C159 1.443 . S
C160 C161 1.340 . S
C160 H200 0.951 . S
C161 C160 1.340 . S
C161 C162 1.439 . S
C161 H201 0.950 . S
C162 C161 1.439 . S
C162 N163 1.374 . S
C162 C196 1.395 . S
N163 C159 1.376 . S
N163 C162 1.374 . S
N163 Co164 2.008 . S
Co164 N163 2.008 . S
Co164 N165 1.995 . S
Co164 N170 2.008 . S
Co164 N175 1.995 . S
Co164 N180 2.282 . S
Co164 N186 2.282 . S
N165 Co164 1.995 . S
N165 C166 1.376 . S
N165 C169 1.383 . S
C166 N165 1.376 . S
C166 C167 1.446 . S
C166 C196 1.391 . S
C167 C166 1.446 . S
C167 C168 1.339 . S
C167 H202 0.949 . S
C168 C167 1.339 . S
C168 C169 1.439 . S
C168 H203 0.950 . S
C169 N165 1.383 . S
C169 C168 1.439 . S
C169 C198 1.392 . S
N170 Co164 2.008 . S
N170 C171 1.376 . S
N170 C174 1.374 . S
C171 N170 1.376 . S
C171 C172 1.443 . S
C171 C198 1.389 . S
C172 C171 1.443 . S
C172 C173 1.340 . S
C172 H204 0.951 . S
C173 C172 1.340 . S
C173 C174 1.439 . S
C173 H205 0.950 . S
C174 N170 1.374 . S
C174 C173 1.439 . S
C174 C199 1.395 . S
N175 Co164 1.995 . S
N175 C176 1.376 . S
N175 C179 1.383 . S
C176 N175 1.376 . S
C176 C177 1.446 . S
C176 C199 1.391 . S
C177 C176 1.446 . S
C177 C178 1.339 . S
C177 H206 0.949 . S
C178 C177 1.339 . S
C178 C179 1.439 . S
C178 H207 0.950 . S
C179 N175 1.383 . S
C179 C178 1.439 . S
C179 C197 1.392 . S
N180 Co164 2.282 . S
N180 C183 1.332 . S
N180 C185 1.332 . S
C181 C182 1.386 . S
C181 C184 1.388 . S
C182 C181 1.386 . S
C182 C183 1.382 . S
C182 H208 0.950 . S
C183 N180 1.332 . S
C183 C182 1.382 . S
C183 H194 0.952 . S
C184 C181 1.388 . S
C184 C185 1.382 . S
C184 H209 0.950 . S
C185 N180 1.332 . S
C185 C184 1.382 . S
C185 H195 0.948 . S
N186 Co164 2.282 . S
N186 C190 1.332 . S
N186 C191 1.332 . S
C187 C188 1.388 . S
C187 C191 1.382 . S
C187 H210 0.950 . S
C188 C187 1.388 . S
C188 C189 1.386 . S
C189 C188 1.386 . S
C189 C190 1.382 . S
C189 H211 0.950 . S
C190 N186 1.332 . S
C190 C189 1.382 . S
C190 H192 0.952 . S
C191 N186 1.332 . S
C191 C187 1.382 . S
C191 H193 0.948 . S
H192 C190 0.952 . S
H193 C191 0.948 . S
H194 C183 0.952 . S
H195 C185 0.948 . S
C196 C162 1.395 . S
C196 C166 1.391 . S
C197 C159 1.389 . S
C197 C179 1.392 . S
C198 C169 1.392 . S
C198 C171 1.389 . S
C199 C174 1.395 . S
C199 C176 1.391 . S
H200 C160 0.951 . S
H201 C161 0.950 . S
H202 C167 0.949 . S
H203 C168 0.950 . S
H204 C172 0.951 . S
H205 C173 0.950 . S
H206 C177 0.949 . S
H207 C178 0.950 . S
H208 C182 0.950 . S
H209 C184 0.950 . S
H210 C187 0.950 . S
H211 C189 0.950 . S
C212 C213 1.443 . S
C212 N216 1.376 . S
C212 C250 1.389 . S
C213 C212 1.443 . S
C213 C214 1.340 . S
C213 H253 0.951 . S
C214 C213 1.340 . S
C214 C215 1.439 . S
C214 H254 0.950 . S
C215 C214 1.439 . S
C215 N216 1.374 . S
C215 C249 1.395 . S
N216 C212 1.376 . S
N216 C215 1.374 . S
N216 Co217 2.008 . S
Co217 N216 2.008 . S
Co217 N218 1.995 . S
Co217 N223 2.008 . S
Co217 N228 1.995 . S
Co217 N233 2.282 . S
Co217 N239 2.282 . S
N218 Co217 1.995 . S
N218 C219 1.376 . S
N218 C222 1.383 . S
C219 N218 1.376 . S
C219 C220 1.446 . S
C219 C249 1.391 . S
C220 C219 1.446 . S
C220 C221 1.339 . S
C220 H255 0.949 . S
C221 C220 1.339 . S
C221 C222 1.439 . S
C221 H256 0.950 . S
C222 N218 1.383 . S
C222 C221 1.439 . S
C222 C251 1.392 . S
N223 Co217 2.008 . S
N223 C224 1.376 . S
N223 C227 1.374 . S
C224 N223 1.376 . S
C224 C225 1.443 . S
C224 C251 1.389 . S
C225 C224 1.443 . S
C225 C226 1.340 . S
C225 H257 0.951 . S
C226 C225 1.340 . S
C226 C227 1.439 . S
C226 H258 0.950 . S
C227 N223 1.374 . S
C227 C226 1.439 . S
C227 C252 1.395 . S
N228 Co217 1.995 . S
N228 C229 1.376 . S
N228 C232 1.383 . S
C229 N228 1.376 . S
C229 C230 1.446 . S
C229 C252 1.391 . S
C230 C229 1.446 . S
C230 C231 1.339 . S
C230 H259 0.949 . S
C231 C230 1.339 . S
C231 C232 1.439 . S
C231 H260 0.950 . S
C232 N228 1.383 . S
C232 C231 1.439 . S
C232 C250 1.392 . S
N233 Co217 2.282 . S
N233 C236 1.332 . S
N233 C238 1.332 . S
C234 C235 1.386 . S
C234 C237 1.388 . S
C235 C234 1.386 . S
C235 C236 1.382 . S
C235 H261 0.950 . S
C236 N233 1.332 . S
C236 C235 1.382 . S
C236 H247 0.952 . S
C237 C234 1.388 . S
C237 C238 1.382 . S
C237 H262 0.950 . S
C238 N233 1.332 . S
C238 C237 1.382 . S
C238 H248 0.948 . S
N239 Co217 2.282 . S
N239 C243 1.332 . S
N239 C244 1.332 . S
C240 C241 1.388 . S
C240 C244 1.382 . S
C240 H263 0.950 . S
C241 C240 1.388 . S
C241 C242 1.386 . S
C242 C241 1.386 . S
C242 C243 1.382 . S
C242 H264 0.950 . S
C243 N239 1.332 . S
C243 C242 1.382 . S
C243 H245 0.952 . S
C244 N239 1.332 . S
C244 C240 1.382 . S
C244 H246 0.948 . S
H245 C243 0.952 . S
H246 C244 0.948 . S
H247 C236 0.952 . S
H248 C238 0.948 . S
C249 C215 1.395 . S
C249 C219 1.391 . S
C250 C212 1.389 . S
C250 C232 1.392 . S
C251 C222 1.392 . S
C251 C224 1.389 . S
C252 C227 1.395 . S
C252 C229 1.391 . S
H253 C213 0.951 . S
H254 C214 0.950 . S
H255 C220 0.949 . S
H256 C221 0.950 . S
H257 C225 0.951 . S
H258 C226 0.950 . S
H259 C230 0.949 . S
H260 C231 0.950 . S
H261 C235 0.950 . S
H262 C237 0.950 . S
H263 C240 0.950 . S
H264 C242 0.950 . S
C265 C266 1.443 . S
C265 N269 1.376 . S
C265 C303 1.389 . S
C266 C265 1.443 . S
C266 C267 1.340 . S
C266 H306 0.951 . S
C267 C266 1.340 . S
C267 C268 1.439 . S
C267 H307 0.950 . S
C268 C267 1.439 . S
C268 N269 1.374 . S
C268 C302 1.395 . S
N269 C265 1.376 . S
N269 C268 1.374 . S
N269 Co270 2.008 . S
Co270 N269 2.008 . S
Co270 N271 1.995 . S
Co270 N276 2.008 . S
Co270 N281 1.995 . S
Co270 N286 2.282 . S
Co270 N292 2.282 . S
N271 Co270 1.995 . S
N271 C272 1.376 . S
N271 C275 1.383 . S
C272 N271 1.376 . S
C272 C273 1.446 . S
C272 C302 1.391 . S
C273 C272 1.446 . S
C273 C274 1.339 . S
C273 H308 0.949 . S
C274 C273 1.339 . S
C274 C275 1.439 . S
C274 H309 0.950 . S
C275 N271 1.383 . S
C275 C274 1.439 . S
C275 C304 1.392 . S
N276 Co270 2.008 . S
N276 C277 1.376 . S
N276 C280 1.374 . S
C277 N276 1.376 . S
C277 C278 1.443 . S
C277 C304 1.389 . S
C278 C277 1.443 . S
C278 C279 1.340 . S
C278 H310 0.995 . S
C279 C278 1.340 . S
C279 C280 1.439 . S
C279 H311 0.950 . S
C280 N276 1.374 . S
C280 C279 1.439 . S
C280 C305 1.395 . S
N281 Co270 1.995 . S
N281 C282 1.376 . S
N281 C285 1.383 . S
C282 N281 1.376 . S
C282 C283 1.446 . S
C282 C305 1.391 . S
C283 C282 1.446 . S
C283 C284 1.339 . S
C283 H312 0.949 . S
C284 C283 1.339 . S
C284 C285 1.439 . S
C284 H313 0.950 . S
C285 N281 1.383 . S
C285 C284 1.439 . S
C285 C303 1.392 . S
N286 Co270 2.282 . S
N286 C289 1.332 . S
N286 C291 1.332 . S
C287 C288 1.386 . S
C287 C290 1.388 . S
C288 C287 1.386 . S
C288 C289 1.382 . S
C288 H314 0.950 . S
C289 N286 1.332 . S
C289 C288 1.382 . S
C289 H300 0.952 . S
C290 C287 1.388 . S
C290 C291 1.382 . S
C290 H315 0.950 . S
C291 N286 1.332 . S
C291 C290 1.382 . S
C291 H301 0.948 . S
N292 Co270 2.282 . S
N292 C296 1.332 . S
N292 C297 1.332 . S
C293 C294 1.388 . S
C293 C297 1.382 . S
C293 H316 0.950 . S
C294 C293 1.388 . S
C294 C295 1.386 . S
C295 C294 1.386 . S
C295 C296 1.382 . S
C295 H317 0.950 . S
C296 N292 1.332 . S
C296 C295 1.382 . S
C296 H298 0.952 . S
C297 N292 1.332 . S
C297 C293 1.382 . S
C297 H299 0.948 . S
H298 C296 0.952 . S
H299 C297 0.948 . S
H300 C289 0.952 . S
H301 C291 0.948 . S
C302 C268 1.395 . S
C302 C272 1.391 . S
C303 C265 1.389 . S
C303 C285 1.392 . S
C304 C275 1.392 . S
C304 C277 1.389 . S
C305 C280 1.395 . S
C305 C282 1.391 . S
H306 C266 0.951 . S
H307 C267 0.950 . S
H308 C273 0.949 . S
H309 C274 0.950 . S
H310 C278 0.995 . S
H311 C279 0.950 . S
H312 C283 0.949 . S
H313 C284 0.950 . S
H314 C288 0.950 . S
H315 C290 0.950 . S
H316 C293 0.950 . S
H317 C295 0.950 . S
C318 C319 1.443 . S
C318 N322 1.376 . S
C318 C356 1.389 . S
C319 C318 1.443 . S
C319 C320 1.340 . S
C319 H359 0.951 . S
C320 C319 1.340 . S
C320 C321 1.439 . S
C320 H360 0.950 . S
C321 C320 1.439 . S
C321 N322 1.374 . S
C321 C355 1.395 . S
N322 C318 1.376 . S
N322 C321 1.374 . S
N322 Co323 2.008 . S
Co323 N322 2.008 . S
Co323 N324 1.995 . S
Co323 N329 2.008 . S
Co323 N334 1.995 . S
Co323 N339 2.282 . S
Co323 N345 2.282 . S
N324 Co323 1.995 . S
N324 C325 1.376 . S
N324 C328 1.383 . S
C325 N324 1.376 . S
C325 C326 1.446 . S
C325 C355 1.391 . S
C326 C325 1.446 . S
C326 C327 1.339 . S
C326 H361 0.949 . S
C327 C326 1.339 . S
C327 C328 1.439 . S
C327 H362 0.950 . S
C328 N324 1.383 . S
C328 C327 1.439 . S
C328 C357 1.392 . S
N329 Co323 2.008 . S
N329 C330 1.376 . S
N329 C333 1.374 . S
C330 N329 1.376 . S
C330 C331 1.443 . S
C330 C357 1.389 . S
C331 C330 1.443 . S
C331 C332 1.340 . S
C331 H363 0.951 . S
C332 C331 1.340 . S
C332 C333 1.439 . S
C332 H364 0.950 . S
C333 N329 1.374 . S
C333 C332 1.439 . S
C333 C358 1.395 . S
N334 Co323 1.995 . S
N334 C335 1.376 . S
N334 C338 1.383 . S
C335 N334 1.376 . S
C335 C336 1.446 . S
C335 C358 1.391 . S
C336 C335 1.446 . S
C336 C337 1.339 . S
C336 H365 0.949 . S
C337 C336 1.339 . S
C337 C338 1.439 . S
C337 H366 0.950 . S
C338 N334 1.383 . S
C338 C337 1.439 . S
C338 C356 1.392 . S
N339 Co323 2.282 . S
N339 C342 1.332 . S
N339 C344 1.332 . S
C340 C341 1.386 . S
C340 C343 1.388 . S
C341 C340 1.386 . S
C341 C342 1.382 . S
C341 H367 0.950 . S
C342 N339 1.332 . S
C342 C341 1.382 . S
C342 H353 0.952 . S
C343 C340 1.388 . S
C343 C344 1.382 . S
C343 H368 0.950 . S
C344 N339 1.332 . S
C344 C343 1.382 . S
C344 H354 0.948 . S
N345 Co323 2.282 . S
N345 C349 1.332 . S
N345 C350 1.332 . S
C346 C347 1.388 . S
C346 C350 1.382 . S
C346 H369 0.950 . S
C347 C346 1.388 . S
C347 C348 1.386 . S
C348 C347 1.386 . S
C348 C349 1.382 . S
C348 H370 0.950 . S
C349 N345 1.332 . S
C349 C348 1.382 . S
C349 H351 0.952 . S
C350 N345 1.332 . S
C350 C346 1.382 . S
C350 H352 0.948 . S
H351 C349 0.952 . S
H352 C350 0.948 . S
H353 C342 0.952 . S
H354 C344 0.948 . S
C355 C321 1.395 . S
C355 C325 1.391 . S
C356 C318 1.389 . S
C356 C338 1.392 . S
C357 C328 1.392 . S
C357 C330 1.389 . S
C358 C333 1.395 . S
C358 C335 1.391 . S
H359 C319 0.951 . S
H360 C320 0.950 . S
H361 C326 0.949 . S
H362 C327 0.950 . S
H363 C331 0.951 . S
H364 C332 0.950 . S
H365 C336 0.949 . S
H366 C337 0.950 . S
H367 C341 0.950 . S
H368 C343 0.950 . S
H369 C346 0.950 . S
H370 C348 0.950 . S
C371 C372 1.443 . S
C371 N375 1.376 . S
C371 C409 1.389 . S
C372 C371 1.443 . S
C372 C373 1.340 . S
C372 H412 0.951 . S
C373 C372 1.340 . S
C373 C374 1.439 . S
C373 H413 0.950 . S
C374 C373 1.439 . S
C374 N375 1.374 . S
C374 C408 1.395 . S
N375 C371 1.376 . S
N375 C374 1.374 . S
N375 Co376 2.008 . S
Co376 N375 2.008 . S
Co376 N377 1.995 . S
Co376 N382 2.008 . S
Co376 N387 1.995 . S
Co376 N392 2.282 . S
Co376 N398 2.282 . S
N377 Co376 1.995 . S
N377 C378 1.376 . S
N377 C381 1.383 . S
C378 N377 1.376 . S
C378 C379 1.446 . S
C378 C408 1.391 . S
C379 C378 1.446 . S
C379 C380 1.339 . S
C379 H414 0.949 . S
C380 C379 1.339 . S
C380 C381 1.439 . S
C380 H415 0.950 . S
C381 N377 1.383 . S
C381 C380 1.439 . S
C381 C410 1.392 . S
N382 Co376 2.008 . S
N382 C383 1.376 . S
N382 C386 1.374 . S
C383 N382 1.376 . S
C383 C384 1.443 . S
C383 C410 1.389 . S
C384 C383 1.443 . S
C384 C385 1.340 . S
C384 H416 0.951 . S
C385 C384 1.340 . S
C385 C386 1.439 . S
C385 H417 0.950 . S
C386 N382 1.374 . S
C386 C385 1.439 . S
C386 C411 1.395 . S
N387 Co376 1.995 . S
N387 C388 1.376 . S
N387 C391 1.383 . S
C388 N387 1.376 . S
C388 C389 1.446 . S
C388 C411 1.391 . S
C389 C388 1.446 . S
C389 C390 1.339 . S
C389 H418 0.949 . S
C390 C389 1.339 . S
C390 C391 1.439 . S
C390 H419 0.950 . S
C391 N387 1.383 . S
C391 C390 1.439 . S
C391 C409 1.392 . S
N392 Co376 2.282 . S
N392 C395 1.332 . S
N392 C397 1.332 . S
C393 C394 1.386 . S
C393 C396 1.388 . S
C394 C393 1.386 . S
C394 C395 1.382 . S
C394 H420 0.950 . S
C395 N392 1.332 . S
C395 C394 1.382 . S
C395 H406 0.952 . S
C396 C393 1.388 . S
C396 C397 1.382 . S
C396 H421 0.950 . S
C397 N392 1.332 . S
C397 C396 1.382 . S
C397 H407 0.948 . S
N398 Co376 2.282 . S
N398 C402 1.332 . S
N398 C403 1.332 . S
C399 C400 1.388 . S
C399 C403 1.382 . S
C399 H422 0.950 . S
C400 C399 1.388 . S
C400 C401 1.386 . S
C401 C400 1.386 . S
C401 C402 1.382 . S
C401 H423 0.950 . S
C402 N398 1.332 . S
C402 C401 1.382 . S
C402 H404 0.952 . S
C403 N398 1.332 . S
C403 C399 1.382 . S
C403 H405 0.948 . S
H404 C402 0.952 . S
H405 C403 0.948 . S
H406 C395 0.952 . S
H407 C397 0.948 . S
C408 C374 1.395 . S
C408 C378 1.391 . S
C409 C371 1.389 . S
C409 C391 1.392 . S
C410 C381 1.392 . S
C410 C383 1.389 . S
C411 C386 1.395 . S
C411 C388 1.391 . S
H412 C372 0.951 . S
H413 C373 0.950 . S
H414 C379 0.949 . S
H415 C380 0.950 . S
H416 C384 0.951 . S
H417 C385 0.950 . S
H418 C389 0.949 . S
H419 C390 0.950 . S
H420 C394 0.950 . S
H421 C396 0.950 . S
H422 C399 0.950 . S
H423 C401 0.950 . S
C424 C425 1.443 . S
C424 N428 1.376 . S
C424 C462 1.389 . S
C425 C424 1.443 . S
C425 C426 1.340 . S
C425 H465 0.951 . S
C426 C425 1.340 . S
C426 C427 1.439 . S
C426 H466 0.950 . S
C427 C426 1.439 . S
C427 N428 1.374 . S
C427 C461 1.395 . S
N428 C424 1.376 . S
N428 C427 1.374 . S
N428 Co429 2.008 . S
Co429 N428 2.008 . S
Co429 N430 1.995 . S
Co429 N435 2.008 . S
Co429 N440 1.995 . S
Co429 N445 2.282 . S
Co429 N451 2.282 . S
N430 Co429 1.995 . S
N430 C431 1.376 . S
N430 C434 1.383 . S
C431 N430 1.376 . S
C431 C432 1.446 . S
C431 C461 1.391 . S
C432 C431 1.446 . S
C432 C433 1.339 . S
C432 H467 0.949 . S
C433 C432 1.339 . S
C433 C434 1.439 . S
C433 H468 0.950 . S
C434 N430 1.383 . S
C434 C433 1.439 . S
C434 C463 1.392 . S
N435 Co429 2.008 . S
N435 C436 1.376 . S
N435 C439 1.374 . S
C436 N435 1.376 . S
C436 C437 1.443 . S
C436 C463 1.389 . S
C437 C436 1.443 . S
C437 C438 1.340 . S
C437 H469 0.995 . S
C438 C437 1.340 . S
C438 C439 1.439 . S
C438 H470 0.950 . S
C439 N435 1.374 . S
C439 C438 1.439 . S
C439 C464 1.395 . S
N440 Co429 1.995 . S
N440 C441 1.376 . S
N440 C444 1.383 . S
C441 N440 1.376 . S
C441 C442 1.446 . S
C441 C464 1.391 . S
C442 C441 1.446 . S
C442 C443 1.339 . S
C442 H471 0.949 . S
C443 C442 1.339 . S
C443 C444 1.439 . S
C443 H472 0.950 . S
C444 N440 1.383 . S
C444 C443 1.439 . S
C444 C462 1.392 . S
N445 Co429 2.282 . S
N445 C448 1.332 . S
N445 C450 1.332 . S
C446 C447 1.386 . S
C446 C449 1.388 . S
C447 C446 1.386 . S
C447 C448 1.382 . S
C447 H473 0.950 . S
C448 N445 1.332 . S
C448 C447 1.382 . S
C448 H459 0.952 . S
C449 C446 1.388 . S
C449 C450 1.382 . S
C449 H474 0.950 . S
C450 N445 1.332 . S
C450 C449 1.382 . S
C450 H460 0.948 . S
N451 Co429 2.282 . S
N451 C455 1.332 . S
N451 C456 1.332 . S
C452 C453 1.388 . S
C452 C456 1.382 . S
C452 H475 0.950 . S
C453 C452 1.388 . S
C453 C454 1.386 . S
C454 C453 1.386 . S
C454 C455 1.382 . S
C454 H476 0.950 . S
C455 N451 1.332 . S
C455 C454 1.382 . S
C455 H457 0.952 . S
C456 N451 1.332 . S
C456 C452 1.382 . S
C456 H458 0.948 . S
H457 C455 0.952 . S
H458 C456 0.948 . S
H459 C448 0.952 . S
H460 C450 0.948 . S
C461 C427 1.395 . S
C461 C431 1.391 . S
C462 C424 1.389 . S
C462 C444 1.392 . S
C463 C434 1.392 . S
C463 C436 1.389 . S
C464 C439 1.395 . S
C464 C441 1.391 . S
H465 C425 0.951 . S
H466 C426 0.950 . S
H467 C432 0.949 . S
H468 C433 0.950 . S
H469 C437 0.995 . S
H470 C438 0.950 . S
H471 C442 0.949 . S
H472 C443 0.950 . S
H473 C447 0.950 . S
H474 C449 0.950 . S
H475 C452 0.950 . S
H476 C454 0.950 . S
C477 C478 1.443 . S
C477 N481 1.376 . S
C477 C515 1.389 . S
C478 C477 1.443 . S
C478 C479 1.340 . S
C478 H518 0.951 . S
C479 C478 1.340 . S
C479 C480 1.439 . S
C479 H519 0.950 . S
C480 C479 1.439 . S
C480 N481 1.374 . S
C480 C514 1.395 . S
N481 C477 1.376 . S
N481 C480 1.374 . S
N481 Co482 2.008 . S
Co482 N481 2.008 . S
Co482 N483 1.995 . S
Co482 N488 2.008 . S
Co482 N493 1.995 . S
Co482 N498 2.282 . S
Co482 N504 2.282 . S
N483 Co482 1.995 . S
N483 C484 1.376 . S
N483 C487 1.383 . S
C484 N483 1.376 . S
C484 C485 1.446 . S
C484 C514 1.391 . S
C485 C484 1.446 . S
C485 C486 1.339 . S
C485 H520 0.949 . S
C486 C485 1.339 . S
C486 C487 1.439 . S
C486 H521 0.950 . S
C487 N483 1.383 . S
C487 C486 1.439 . S
C487 C516 1.392 . S
N488 Co482 2.008 . S
N488 C489 1.376 . S
N488 C492 1.374 . S
C489 N488 1.376 . S
C489 C490 1.443 . S
C489 C516 1.389 . S
C490 C489 1.443 . S
C490 C491 1.340 . S
C490 H522 0.951 . S
C491 C490 1.340 . S
C491 C492 1.439 . S
C491 H523 0.950 . S
C492 N488 1.374 . S
C492 C491 1.439 . S
C492 C517 1.395 . S
N493 Co482 1.995 . S
N493 C494 1.376 . S
N493 C497 1.383 . S
C494 N493 1.376 . S
C494 C495 1.446 . S
C494 C517 1.391 . S
C495 C494 1.446 . S
C495 C496 1.339 . S
C495 H524 0.949 . S
C496 C495 1.339 . S
C496 C497 1.439 . S
C496 H525 0.950 . S
C497 N493 1.383 . S
C497 C496 1.439 . S
C497 C515 1.392 . S
N498 Co482 2.282 . S
N498 C501 1.332 . S
N498 C503 1.332 . S
C499 C500 1.386 . S
C499 C502 1.388 . S
C500 C499 1.386 . S
C500 C501 1.382 . S
C500 H526 0.950 . S
C501 N498 1.332 . S
C501 C500 1.382 . S
C501 H512 0.952 . S
C502 C499 1.388 . S
C502 C503 1.382 . S
C502 H527 0.950 . S
C503 N498 1.332 . S
C503 C502 1.382 . S
C503 H513 0.948 . S
N504 Co482 2.282 . S
N504 C508 1.332 . S
N504 C509 1.332 . S
C505 C506 1.388 . S
C505 C509 1.382 . S
C505 H528 0.950 . S
C506 C505 1.388 . S
C506 C507 1.386 . S
C507 C506 1.386 . S
C507 C508 1.382 . S
C507 H529 0.950 . S
C508 N504 1.332 . S
C508 C507 1.382 . S
C508 H510 0.952 . S
C509 N504 1.332 . S
C509 C505 1.382 . S
C509 H511 0.948 . S
H510 C508 0.952 . S
H511 C509 0.948 . S
H512 C501 0.952 . S
H513 C503 0.948 . S
C514 C480 1.395 . S
C514 C484 1.391 . S
C515 C477 1.389 . S
C515 C497 1.392 . S
C516 C487 1.392 . S
C516 C489 1.389 . S
C517 C492 1.395 . S
C517 C494 1.391 . S
H518 C478 0.951 . S
H519 C479 0.950 . S
H520 C485 0.949 . S
H521 C486 0.950 . S
H522 C490 0.951 . S
H523 C491 0.950 . S
H524 C495 0.949 . S
H525 C496 0.950 . S
H526 C500 0.950 . S
H527 C502 0.950 . S
H528 C505 0.950 . S
H529 C507 0.950 . S
C530 C531 1.443 . S
C530 N534 1.376 . S
C530 C568 1.389 . S
C531 C530 1.443 . S
C531 C532 1.340 . S
C531 H571 0.951 . S
C532 C531 1.340 . S
C532 C533 1.439 . S
C532 H572 0.950 . S
C533 C532 1.439 . S
C533 N534 1.374 . S
C533 C567 1.395 . S
N534 C530 1.376 . S
N534 C533 1.374 . S
N534 Co535 2.008 . S
Co535 N534 2.008 . S
Co535 N536 1.995 . S
Co535 N541 2.008 . S
Co535 N546 1.995 . S
Co535 N551 2.282 . S
Co535 N557 2.282 . S
N536 Co535 1.995 . S
N536 C537 1.376 . S
N536 C540 1.383 . S
C537 N536 1.376 . S
C537 C538 1.446 . S
C537 C567 1.391 . S
C538 C537 1.446 . S
C538 C539 1.339 . S
C538 H573 0.949 . S
C539 C538 1.339 . S
C539 C540 1.439 . S
C539 H574 0.950 . S
C540 N536 1.383 . S
C540 C539 1.439 . S
C540 C569 1.392 . S
N541 Co535 2.008 . S
N541 C542 1.376 . S
N541 C545 1.374 . S
C542 N541 1.376 . S
C542 C543 1.443 . S
C542 C569 1.389 . S
C543 C542 1.443 . S
C543 C544 1.340 . S
C543 H575 0.951 . S
C544 C543 1.340 . S
C544 C545 1.439 . S
C544 H576 0.950 . S
C545 N541 1.374 . S
C545 C544 1.439 . S
C545 C570 1.395 . S
N546 Co535 1.995 . S
N546 C547 1.376 . S
N546 C550 1.383 . S
C547 N546 1.376 . S
C547 C548 1.446 . S
C547 C570 1.391 . S
C548 C547 1.446 . S
C548 C549 1.339 . S
C548 H577 0.949 . S
C549 C548 1.339 . S
C549 C550 1.439 . S
C549 H578 0.950 . S
C550 N546 1.383 . S
C550 C549 1.439 . S
C550 C568 1.392 . S
N551 Co535 2.282 . S
N551 C554 1.332 . S
N551 C556 1.332 . S
C552 C553 1.386 . S
C552 C555 1.388 . S
C553 C552 1.386 . S
C553 C554 1.382 . S
C553 H579 0.950 . S
C554 N551 1.332 . S
C554 C553 1.382 . S
C554 H565 0.952 . S
C555 C552 1.388 . S
C555 C556 1.382 . S
C555 H580 0.950 . S
C556 N551 1.332 . S
C556 C555 1.382 . S
C556 H566 0.948 . S
N557 Co535 2.282 . S
N557 C561 1.332 . S
N557 C562 1.332 . S
C558 C559 1.388 . S
C558 C562 1.382 . S
C558 H581 0.950 . S
C559 C558 1.388 . S
C559 C560 1.386 . S
C560 C559 1.386 . S
C560 C561 1.382 . S
C560 H582 0.950 . S
C561 N557 1.332 . S
C561 C560 1.382 . S
C561 H563 0.952 . S
C562 N557 1.332 . S
C562 C558 1.382 . S
C562 H564 0.948 . S
H563 C561 0.952 . S
H564 C562 0.948 . S
H565 C554 0.952 . S
H566 C556 0.948 . S
C567 C533 1.395 . S
C567 C537 1.391 . S
C568 C530 1.389 . S
C568 C550 1.392 . S
C569 C540 1.392 . S
C569 C542 1.389 . S
C570 C545 1.395 . S
C570 C547 1.391 . S
H571 C531 0.951 . S
H572 C532 0.950 . S
H573 C538 0.949 . S
H574 C539 0.950 . S
H575 C543 0.951 . S
H576 C544 0.950 . S
H577 C548 0.949 . S
H578 C549 0.950 . S
H579 C553 0.950 . S
H580 C555 0.950 . S
H581 C558 0.950 . S
H582 C560 0.950 . S
C583 C584 1.443 . S
C583 N587 1.376 . S
C583 C621 1.389 . S
C584 C583 1.443 . S
C584 C585 1.340 . S
C584 H624 0.951 . S
C585 C584 1.340 . S
C585 C586 1.439 . S
C585 H625 0.950 . S
C586 C585 1.439 . S
C586 N587 1.374 . S
C586 C620 1.395 . S
N587 C583 1.376 . S
N587 C586 1.374 . S
N587 Co588 2.008 . S
Co588 N587 2.008 . S
Co588 N589 1.995 . S
Co588 N594 2.008 . S
Co588 N599 1.995 . S
Co588 N604 2.282 . S
Co588 N610 2.282 . S
N589 Co588 1.995 . S
N589 C590 1.376 . S
N589 C593 1.383 . S
C590 N589 1.376 . S
C590 C591 1.446 . S
C590 C620 1.391 . S
C591 C590 1.446 . S
C591 C592 1.339 . S
C591 H626 0.949 . S
C592 C591 1.339 . S
C592 C593 1.439 . S
C592 H627 0.950 . S
C593 N589 1.383 . S
C593 C592 1.439 . S
C593 C622 1.392 . S
N594 Co588 2.008 . S
N594 C595 1.376 . S
N594 C598 1.374 . S
C595 N594 1.376 . S
C595 C596 1.443 . S
C595 C622 1.389 . S
C596 C595 1.443 . S
C596 C597 1.340 . S
C596 H628 0.951 . S
C597 C596 1.340 . S
C597 C598 1.439 . S
C597 H629 0.950 . S
C598 N594 1.374 . S
C598 C597 1.439 . S
C598 C623 1.395 . S
N599 Co588 1.995 . S
N599 C600 1.376 . S
N599 C603 1.383 . S
C600 N599 1.376 . S
C600 C601 1.446 . S
C600 C623 1.391 . S
C601 C600 1.446 . S
C601 C602 1.339 . S
C601 H630 0.949 . S
C602 C601 1.339 . S
C602 C603 1.439 . S
C602 H631 0.950 . S
C603 N599 1.383 . S
C603 C602 1.439 . S
C603 C621 1.392 . S
N604 Co588 2.282 . S
N604 C607 1.332 . S
N604 C609 1.332 . S
C605 C606 1.386 . S
C605 C608 1.388 . S
C606 C605 1.386 . S
C606 C607 1.382 . S
C606 H632 0.950 . S
C607 N604 1.332 . S
C607 C606 1.382 . S
C607 H618 0.952 . S
C608 C605 1.388 . S
C608 C609 1.382 . S
C608 H633 0.950 . S
C609 N604 1.332 . S
C609 C608 1.382 . S
C609 H619 0.948 . S
N610 Co588 2.282 . S
N610 C614 1.332 . S
N610 C615 1.332 . S
C611 C612 1.388 . S
C611 C615 1.382 . S
C611 H634 0.950 . S
C612 C611 1.388 . S
C612 C613 1.386 . S
C613 C612 1.386 . S
C613 C614 1.382 . S
C613 H635 0.950 . S
C614 N610 1.332 . S
C614 C613 1.382 . S
C614 H616 0.952 . S
C615 N610 1.332 . S
C615 C611 1.382 . S
C615 H617 0.948 . S
H616 C614 0.952 . S
H617 C615 0.948 . S
H618 C607 0.952 . S
H619 C609 0.948 . S
C620 C586 1.395 . S
C620 C590 1.391 . S
C621 C583 1.389 . S
C621 C603 1.392 . S
C622 C593 1.392 . S
C622 C595 1.389 . S
C623 C598 1.395 . S
C623 C600 1.391 . S
H624 C584 0.951 . S
H625 C585 0.950 . S
H626 C591 0.949 . S
H627 C592 0.950 . S
H628 C596 0.951 . S
H629 C597 0.950 . S
H630 C601 0.949 . S
H631 C602 0.950 . S
H632 C606 0.950 . S
H633 C608 0.950 . S
H634 C611 0.950 . S
H635 C613 0.950 . S
H636 C642 0.930 . S
H637 C646 0.930 . S
H638 C651 0.929 . S
H639 C649 0.929 . S
H640 C644 0.929 . S
H641 C650 0.929 . S
C642 H636 0.930 . S
C642 C643 1.367 . S
C642 C650 1.378 . S
C643 C642 1.367 . S
C643 C651 1.433 . S
C644 H640 0.929 . S
C644 C646 1.378 . S
C644 C648 1.350 . S
C645 C648 1.463 . S
C645 C650 1.350 . S
C645 N653 1.427 . S
C646 H637 0.930 . S
C646 C644 1.378 . S
C646 C647 1.367 . S
C647 C646 1.367 . S
C647 C649 1.433 . S
C648 C644 1.350 . S
C648 C645 1.463 . S
C648 N652 1.427 . S
C649 H639 0.929 . S
C649 C647 1.433 . S
C649 N652 1.384 . S
C650 H641 0.929 . S
C650 C642 1.378 . S
C650 C645 1.350 . S
C651 H638 0.929 . S
C651 C643 1.433 . S
C651 N653 1.384 . S
N652 C648 1.427 . S
N652 C649 1.384 . S
N653 C645 1.427 . S
N653 C651 1.384 . S
H654 C660 0.930 . S
H655 C664 0.930 . S
H656 C669 0.929 . S
H657 C667 0.929 . S
H658 C662 0.929 . S
H659 C668 0.929 . S
C660 H654 0.930 . S
C660 C661 1.367 . S
C660 C668 1.378 . S
C661 C660 1.367 . S
C661 C669 1.433 . S
C662 H658 0.929 . S
C662 C664 1.378 . S
C662 C666 1.350 . S
C663 C666 1.463 . S
C663 C668 1.350 . S
C663 N671 1.427 . S
C664 H655 0.930 . S
C664 C662 1.378 . S
C664 C665 1.367 . S
C665 C664 1.367 . S
C665 C667 1.433 . S
C666 C662 1.350 . S
C666 C663 1.463 . S
C666 N670 1.427 . S
C667 H657 0.929 . S
C667 C665 1.433 . S
C667 N670 1.384 . S
C668 H659 0.929 . S
C668 C660 1.378 . S
C668 C663 1.350 . S
C669 H656 0.929 . S
C669 C661 1.433 . S
C669 N671 1.384 . S
N670 C666 1.427 . S
N670 C667 1.384 . S
N671 C663 1.427 . S
N671 C669 1.384 . S
H672 C678 0.930 . S
H673 C682 0.930 . S
H674 C687 0.929 . S
H675 C685 0.929 . S
H676 C680 0.929 . S
H677 C686 0.929 . S
C678 H672 0.930 . S
C678 C679 1.367 . S
C678 C686 1.378 . S
C679 C678 1.367 . S
C679 C687 1.433 . S
C680 H676 0.929 . S
C680 C682 1.378 . S
C680 C684 1.350 . S
C681 C684 1.463 . S
C681 C686 1.350 . S
C681 N689 1.427 . S
C682 H673 0.930 . S
C682 C680 1.378 . S
C682 C683 1.367 . S
C683 C682 1.367 . S
C683 C685 1.433 . S
C684 C680 1.350 . S
C684 C681 1.463 . S
C684 N688 1.427 . S
C685 H675 0.929 . S
C685 C683 1.433 . S
C685 N688 1.384 . S
C686 H677 0.929 . S
C686 C678 1.378 . S
C686 C681 1.350 . S
C687 H674 0.929 . S
C687 C679 1.433 . S
C687 N689 1.384 . S
N688 C684 1.427 . S
N688 C685 1.384 . S
N689 C681 1.427 . S
N689 C687 1.384 . S
H690 C696 0.930 . S
H691 C700 0.930 . S
H692 C705 0.929 . S
H693 C703 0.929 . S
H694 C698 0.929 . S
H695 C704 0.929 . S
C696 H690 0.930 . S
C696 C697 1.367 . S
C696 C704 1.378 . S
C697 C696 1.367 . S
C697 C705 1.433 . S
C698 H694 0.929 . S
C698 C700 1.378 . S
C698 C702 1.350 . S
C699 C702 1.463 . S
C699 C704 1.350 . S
C699 N707 1.427 . S
C700 H691 0.930 . S
C700 C698 1.378 . S
C700 C701 1.367 . S
C701 C700 1.367 . S
C701 C703 1.433 . S
C702 C698 1.350 . S
C702 C699 1.463 . S
C702 N706 1.427 . S
C703 H693 0.929 . S
C703 C701 1.433 . S
C703 N706 1.384 . S
C704 H695 0.929 . S
C704 C696 1.378 . S
C704 C699 1.350 . S
C705 H692 0.929 . S
C705 C697 1.433 . S
C705 N707 1.384 . S
N706 C702 1.427 . S
N706 C703 1.384 . S
N707 C699 1.427 . S
N707 C705 1.384 . S
H708 C714 0.930 . S
H709 C718 0.930 . S
H710 C723 0.929 . S
H711 C721 0.929 . S
H712 C716 0.929 . S
H713 C722 0.929 . S
C714 H708 0.930 . S
C714 C715 1.367 . S
C714 C722 1.378 . S
C715 C714 1.367 . S
C715 C723 1.433 . S
C716 H712 0.929 . S
C716 C718 1.378 . S
C716 C720 1.350 . S
C717 C720 1.463 . S
C717 C722 1.350 . S
C717 N725 1.427 . S
C718 H709 0.930 . S
C718 C716 1.378 . S
C718 C719 1.367 . S
C719 C718 1.367 . S
C719 C721 1.433 . S
C720 C716 1.350 . S
C720 C717 1.463 . S
C720 N724 1.427 . S
C721 H711 0.929 . S
C721 C719 1.433 . S
C721 N724 1.384 . S
C722 H713 0.929 . S
C722 C714 1.378 . S
C722 C717 1.350 . S
C723 H710 0.929 . S
C723 C715 1.433 . S
C723 N725 1.384 . S
N724 C720 1.427 . S
N724 C721 1.384 . S
N725 C717 1.427 . S
N725 C723 1.384 . S
H726 C732 0.930 . S
H727 C736 0.930 . S
H728 C741 0.929 . S
H729 C739 0.929 . S
H730 C734 0.929 . S
H731 C740 0.929 . S
C732 H726 0.930 . S
C732 C733 1.367 . S
C732 C740 1.378 . S
C733 C732 1.367 . S
C733 C741 1.433 . S
C734 H730 0.929 . S
C734 C736 1.378 . S
C734 C738 1.350 . S
C735 C738 1.463 . S
C735 C740 1.350 . S
C735 N743 1.427 . S
C736 H727 0.930 . S
C736 C734 1.378 . S
C736 C737 1.367 . S
C737 C736 1.367 . S
C737 C739 1.433 . S
C738 C734 1.350 . S
C738 C735 1.463 . S
C738 N742 1.427 . S
C739 H729 0.929 . S
C739 C737 1.433 . S
C739 N742 1.384 . S
C740 H731 0.929 . S
C740 C732 1.378 . S
C740 C735 1.350 . S
C741 H728 0.929 . S
C741 C733 1.433 . S
C741 N743 1.384 . S
N742 C738 1.427 . S
N742 C739 1.384 . S
N743 C735 1.427 . S
N743 C741 1.384 . S
H744 C750 0.930 . S
H745 C754 0.930 . S
H746 C759 0.929 . S
H747 C757 0.929 . S
H748 C752 0.929 . S
H749 C758 0.929 . S
C750 H744 0.930 . S
C750 C751 1.367 . S
C750 C758 1.378 . S
C751 C750 1.367 . S
C751 C759 1.433 . S
C752 H748 0.929 . S
C752 C754 1.378 . S
C752 C756 1.350 . S
C753 C756 1.463 . S
C753 C758 1.350 . S
C753 N761 1.427 . S
C754 H745 0.930 . S
C754 C752 1.378 . S
C754 C755 1.367 . S
C755 C754 1.367 . S
C755 C757 1.433 . S
C756 C752 1.350 . S
C756 C753 1.463 . S
C756 N760 1.427 . S
C757 H747 0.929 . S
C757 C755 1.433 . S
C757 N760 1.384 . S
C758 H749 0.929 . S
C758 C750 1.378 . S
C758 C753 1.350 . S
C759 H746 0.929 . S
C759 C751 1.433 . S
C759 N761 1.384 . S
N760 C756 1.427 . S
N760 C757 1.384 . S
N761 C753 1.427 . S
N761 C759 1.384 . S
H762 C768 0.930 . S
H763 C772 0.930 . S
H764 C777 0.929 . S
H765 C775 0.929 . S
H766 C770 0.929 . S
H767 C776 0.929 . S
C768 H762 0.930 . S
C768 C769 1.367 . S
C768 C776 1.378 . S
C769 C768 1.367 . S
C769 C777 1.433 . S
C770 H766 0.929 . S
C770 C772 1.378 1_655 S
C770 C774 1.350 . S
C771 C774 1.463 . S
C771 C776 1.350 . S
C771 N779 1.427 . S
C772 H763 0.930 . S
C772 C770 1.378 1_455 S
C772 C773 1.367 . S
C773 C772 1.367 . S
C773 C775 1.433 . S
C774 C770 1.350 . S
C774 C771 1.463 . S
C774 N778 1.427 . S
C775 H765 0.929 . S
C775 C773 1.433 . S
C775 N778 1.384 1_455 S
C776 H767 0.929 . S
C776 C768 1.378 . S
C776 C771 1.350 . S
C777 H764 0.929 . S
C777 C769 1.433 . S
C777 N779 1.384 . S
N778 C774 1.427 . S
N778 C775 1.384 1_655 S
N779 C771 1.427 . S
N779 C777 1.384 . S
H780 C786 0.930 . S
H781 C790 0.930 . S
H782 C795 0.929 . S
H783 C793 0.929 . S
H784 C788 0.929 1_545 S
H785 C794 0.929 1_565 S
C786 H780 0.930 . S
C786 C787 1.367 . S
C786 C794 1.378 . S
C787 C786 1.367 . S
C787 C795 1.433 . S
C788 H784 0.929 1_565 S
C788 C790 1.378 . S
C788 C792 1.350 . S
C789 C792 1.463 1_545 S
C789 C794 1.350 . S
C789 N797 1.427 . S
C790 H781 0.930 . S
C790 C788 1.378 . S
C790 C791 1.367 . S
C791 C790 1.367 . S
C791 C793 1.433 . S
C792 C788 1.350 . S
C792 C789 1.463 1_565 S
C792 N796 1.427 . S
C793 H783 0.929 . S
C793 C791 1.433 . S
C793 N796 1.384 . S
C794 H785 0.929 1_545 S
C794 C786 1.378 . S
C794 C789 1.350 . S
C795 H782 0.929 . S
C795 C787 1.433 . S
C795 N797 1.384 . S
N796 C792 1.427 . S
N796 C793 1.384 . S
N797 C789 1.427 . S
N797 C795 1.384 . S
H798 C804 0.930 . S
H799 C808 0.930 . S
H800 C813 0.929 . S
H801 C811 0.929 . S
H802 C806 0.929 . S
H803 C812 0.929 . S
C804 H798 0.930 . S
C804 C805 1.367 . S
C804 C812 1.378 . S
C805 C804 1.367 . S
C805 C813 1.433 . S
C806 H802 0.929 . S
C806 C808 1.378 . S
C806 C810 1.350 . S
C807 C810 1.463 . S
C807 C812 1.350 . S
C807 N815 1.427 . S
C808 H799 0.930 . S
C808 C806 1.378 . S
C808 C809 1.367 . S
C809 C808 1.367 . S
C809 C811 1.433 . S
C810 C806 1.350 . S
C810 C807 1.463 . S
C810 N814 1.427 . S
C811 H801 0.929 . S
C811 C809 1.433 . S
C811 N814 1.384 . S
C812 H803 0.929 . S
C812 C804 1.378 . S
C812 C807 1.350 . S
C813 H800 0.929 . S
C813 C805 1.433 . S
C813 N815 1.384 . S
N814 C810 1.427 . S
N814 C811 1.384 . S
N815 C807 1.427 . S
N815 C813 1.384 . S
H816 C822 0.930 . S
H817 C826 0.930 . S
H818 C831 0.929 . S
H819 C829 0.929 . S
H820 C824 0.929 . S
H821 C830 0.929 . S
C822 H816 0.930 . S
C822 C823 1.367 . S
C822 C830 1.378 1_655 S
C823 C822 1.367 . S
C823 C831 1.433 . S
C824 H820 0.929 . S
C824 C826 1.378 . S
C824 C828 1.350 . S
C825 C828 1.463 . S
C825 C830 1.350 . S
C825 N833 1.427 . S
C826 H817 0.930 . S
C826 C824 1.378 . S
C826 C827 1.367 . S
C827 C826 1.367 . S
C827 C829 1.433 . S
C828 C824 1.350 . S
C828 C825 1.463 . S
C828 N832 1.427 . S
C829 H819 0.929 . S
C829 C827 1.433 . S
C829 N832 1.384 . S
C830 H821 0.929 . S
C830 C822 1.378 1_455 S
C830 C825 1.350 . S
C831 H818 0.929 . S
C831 C823 1.433 . S
C831 N833 1.384 1_655 S
N832 C828 1.427 . S
N832 C829 1.384 . S
N833 C825 1.427 . S
N833 C831 1.384 1_455 S
H834 C840 0.930 . S
H835 C844 0.930 . S
H836 C849 0.929 . S
H837 C847 0.929 . S
H838 C842 0.929 . S
H839 C848 0.929 . S
C840 H834 0.930 . S
C840 C841 1.367 . S
C840 C848 1.378 . S
C841 C840 1.367 . S
C841 C849 1.433 . S
C842 H838 0.929 . S
C842 C844 1.378 . S
C842 C846 1.350 . S
C843 C846 1.463 1_564 S
C843 C848 1.350 . S
C843 N851 1.427 . S
C844 H835 0.930 . S
C844 C842 1.378 . S
C844 C845 1.367 . S
C845 C844 1.367 . S
C845 C847 1.433 . S
C846 C842 1.350 . S
C846 C843 1.463 1_546 S
C846 N850 1.427 . S
C847 H837 0.929 . S
C847 C845 1.433 . S
C847 N850 1.384 . S
C848 H839 0.929 . S
C848 C840 1.378 . S
C848 C843 1.350 . S
C849 H836 0.929 . S
C849 C841 1.433 . S
C849 N851 1.384 . S
N850 C846 1.427 . S
N850 C847 1.384 . S
N851 C843 1.427 . S
N851 C849 1.384 . S
H852 C858 0.930 . S
H853 C862 0.930 . S
H854 C867 0.929 . S
H855 C865 0.929 . S
H856 C860 0.929 . S
H857 C866 0.929 . S
C858 H852 0.930 . S
C858 C859 1.367 . S
C858 C866 1.378 . S
C859 C858 1.367 . S
C859 C867 1.433 . S
C860 H856 0.929 . S
C860 C862 1.378 1_554 S
C860 C864 1.350 . S
C861 C864 1.463 . S
C861 C866 1.350 . S
C861 N869 1.427 . S
C862 H853 0.930 . S
C862 C860 1.378 1_556 S
C862 C863 1.367 . S
C863 C862 1.367 . S
C863 C865 1.433 . S
C864 C860 1.350 . S
C864 C861 1.463 . S
C864 N868 1.427 . S
C865 H855 0.929 . S
C865 C863 1.433 . S
C865 N868 1.384 1_556 S
C866 H857 0.929 . S
C866 C858 1.378 . S
C866 C861 1.350 . S
C867 H854 0.929 . S
C867 C859 1.433 . S
C867 N869 1.384 . S
N868 C864 1.427 . S
N868 C865 1.384 1_554 S
N869 C861 1.427 . S
N869 C867 1.384 . S
H870 C876 0.930 . S
H871 C880 0.930 . S
H872 C885 0.929 . S
H873 C883 0.929 . S
H874 C878 0.929 1_655 S
H875 C884 0.929 . S
C876 H870 0.930 . S
C876 C877 1.367 . S
C876 C884 1.378 . S
C877 C876 1.367 . S
C877 C885 1.433 . S
C878 H874 0.929 1_455 S
C878 C880 1.378 . S
C878 C882 1.350 . S
C879 C882 1.463 1_655 S
C879 C884 1.350 . S
C879 N887 1.427 . S
C880 H871 0.930 . S
C880 C878 1.378 . S
C880 C881 1.367 . S
C881 C880 1.367 . S
C881 C883 1.433 . S
C882 C878 1.350 . S
C882 C879 1.463 1_455 S
C882 N886 1.427 . S
C883 H873 0.929 . S
C883 C881 1.433 . S
C883 N886 1.384 . S
C884 H875 0.929 . S
C884 C876 1.378 . S
C884 C879 1.350 . S
C885 H872 0.929 . S
C885 C877 1.433 . S
C885 N887 1.384 . S
N886 C882 1.427 . S
N886 C883 1.384 . S
N887 C879 1.427 . S
N887 C885 1.384 . S
H888 C894 0.930 . S
H889 C898 0.930 . S
H890 C903 0.929 . S
H891 C901 0.929 . S
H892 C896 0.929 . S
H893 C902 0.929 . S
C894 H888 0.930 . S
C894 C895 1.367 . S
C894 C902 1.378 1_545 S
C895 C894 1.367 . S
C895 C903 1.433 . S
C896 H892 0.929 . S
C896 C898 1.378 . S
C896 C900 1.350 . S
C897 C900 1.463 . S
C897 C902 1.350 . S
C897 N905 1.427 . S
C898 H889 0.930 . S
C898 C896 1.378 . S
C898 C899 1.367 . S
C899 C898 1.367 . S
C899 C901 1.433 . S
C900 C896 1.350 . S
C900 C897 1.463 . S
C900 N904 1.427 . S
C901 H891 0.929 . S
C901 C899 1.433 . S
C901 N904 1.384 . S
C902 H893 0.929 . S
C902 C894 1.378 1_565 S
C902 C897 1.350 . S
C903 H890 0.929 . S
C903 C895 1.433 . S
C903 N905 1.384 1_545 S
N904 C900 1.427 . S
N904 C901 1.384 . S
N905 C897 1.427 . S
N905 C903 1.384 1_565 S
H906 C912 0.930 . S
H907 C916 0.930 . S
H908 C921 0.929 . S
H909 C919 0.929 . S
H910 C914 0.929 . S
H911 C920 0.929 . S
C912 H906 0.930 . S
C912 C913 1.367 . S
C912 C920 1.378 . S
C913 C912 1.367 . S
C913 C921 1.433 . S
C914 H910 0.929 . S
C914 C916 1.378 . S
C914 C918 1.350 . S
C915 C918 1.463 . S
C915 C920 1.350 . S
C915 N923 1.427 . S
C916 H907 0.930 . S
C916 C914 1.378 . S
C916 C917 1.367 . S
C917 C916 1.367 . S
C917 C919 1.433 . S
C918 C914 1.350 . S
C918 C915 1.463 . S
C918 N922 1.427 . S
C919 H909 0.929 . S
C919 C917 1.433 . S
C919 N922 1.384 . S
C920 H911 0.929 . S
C920 C912 1.378 . S
C920 C915 1.350 . S
C921 H908 0.929 . S
C921 C913 1.433 . S
C921 N923 1.384 . S
N922 C918 1.427 . S
N922 C919 1.384 . S
N923 C915 1.427 . S
N923 C921 1.384 . S
H924 C930 0.930 . S
H925 C934 0.930 . S
H926 C939 0.929 . S
H927 C937 0.929 . S
H928 C932 0.929 1_455 S
H929 C938 0.929 . S
C930 H924 0.930 . S
C930 C931 1.367 . S
C930 C938 1.378 . S
C931 C930 1.367 . S
C931 C939 1.433 . S
C932 H928 0.929 1_655 S
C932 C934 1.378 . S
C932 C936 1.350 . S
C933 C936 1.463 1_455 S
C933 C938 1.350 . S
C933 N941 1.427 . S
C934 H925 0.930 . S
C934 C932 1.378 . S
C934 C935 1.367 . S
C935 C934 1.367 . S
C935 C937 1.433 . S
C936 C932 1.350 . S
C936 C933 1.463 1_655 S
C936 N940 1.427 . S
C937 H927 0.929 . S
C937 C935 1.433 . S
C937 N940 1.384 . S
C938 H929 0.929 . S
C938 C930 1.378 . S
C938 C933 1.350 . S
C939 H926 0.929 . S
C939 C931 1.433 . S
C939 N941 1.384 . S
N940 C936 1.427 . S
N940 C937 1.384 . S
N941 C933 1.427 . S
N941 C939 1.384 . S
H942 C948 0.930 . S
H943 C952 0.930 . S
H944 C957 0.929 . S
H945 C955 0.929 . S
H946 C950 0.928 . S
H947 C956 0.929 . S
C948 H942 0.930 . S
C948 C949 1.367 . S
C948 C956 1.378 . S
C949 C948 1.367 . S
C949 C957 1.433 . S
C950 H946 0.928 . S
C950 C952 1.378 . S
C950 C954 1.350 1_565 S
C951 C954 1.463 . S
C951 C956 1.350 . S
C951 N959 1.427 . S
C952 H943 0.930 . S
C952 C950 1.378 . S
C952 C953 1.367 . S
C953 C952 1.367 . S
C953 C955 1.433 1_565 S
C954 C950 1.350 1_545 S
C954 C951 1.463 . S
C954 N958 1.427 . S
C955 H945 0.929 . S
C955 C953 1.433 1_545 S
C955 N958 1.384 . S
C956 H947 0.929 . S
C956 C948 1.378 . S
C956 C951 1.350 . S
C957 H944 0.929 . S
C957 C949 1.433 . S
C957 N959 1.384 . S
N958 C954 1.427 . S
N958 C955 1.384 . S
N959 C951 1.427 . S
N959 C957 1.384 . S
H960 C966 0.930 . S
H961 C970 0.930 . S
H962 C975 0.929 . S
H963 C973 0.929 . S
H964 C968 0.929 . S
H965 C974 0.929 . S
C966 H960 0.930 . S
C966 C967 1.367 . S
C966 C974 1.378 . S
C967 C966 1.367 . S
C967 C975 1.433 . S
C968 H964 0.929 . S
C968 C970 1.378 . S
C968 C972 1.350 . S
C969 C972 1.463 . S
C969 C974 1.350 . S
C969 N977 1.427 . S
C970 H961 0.930 . S
C970 C968 1.378 . S
C970 C971 1.367 . S
C971 C970 1.367 . S
C971 C973 1.433 . S
C972 C968 1.350 . S
C972 C969 1.463 . S
C972 N976 1.427 . S
C973 H963 0.929 . S
C973 C971 1.433 . S
C973 N976 1.384 . S
C974 H965 0.929 . S
C974 C966 1.378 . S
C974 C969 1.350 . S
C975 H962 0.929 . S
C975 C967 1.433 . S
C975 N977 1.384 . S
N976 C972 1.427 . S
N976 C973 1.384 . S
N977 C969 1.427 . S
N977 C975 1.384 . S
H978 C984 0.930 . S
H979 C988 0.930 . S
H980 C993 0.929 . S
H981 C991 0.929 . S
H982 C986 0.929 . S
H983 C992 0.929 . S
C984 H978 0.930 . S
C984 C985 1.367 . S
C984 C992 1.378 . S
C985 C984 1.367 . S
C985 C993 1.433 . S
C986 H982 0.929 . S
C986 C988 1.378 . S
C986 C990 1.350 . S
C987 C990 1.463 1_655 S
C987 C992 1.350 . S
C987 N995 1.427 . S
C988 H979 0.930 . S
C988 C986 1.378 . S
C988 C989 1.367 1_556 S
C989 C988 1.367 1_554 S
C989 C991 1.433 . S
C990 C986 1.350 . S
C990 C987 1.463 1_455 S
C990 N994 1.427 1_556 S
C991 H981 0.929 . S
C991 C989 1.433 . S
C991 N994 1.384 . S
C992 H983 0.929 . S
C992 C984 1.378 . S
C992 C987 1.350 . S
C993 H980 0.929 . S
C993 C985 1.433 . S
C993 N995 1.384 . S
N994 C990 1.427 1_554 S
N994 C991 1.384 . S
N995 C987 1.427 . S
N995 C993 1.384 . S
H996 C1002 0.930 . S
H997 C1006 0.936 . S
H998 C1011 0.929 . S
H999 C1009 0.929 . S
H1000 C1004 0.929 . S
H1001 C1010 0.929 . S
C1002 H996 0.930 . S
C1002 C1003 1.367 . S
C1002 C1010 1.378 . S
C1003 C1002 1.367 . S
C1003 C1011 1.433 . S
C1004 H1000 0.929 . S
C1004 C1006 1.359 1_565 S
C1004 C1008 1.350 . S
C1005 C1008 1.463 . S
C1005 C1010 1.350 . S
C1005 N1013 1.427 . S
C1006 H997 0.936 . S
C1006 C1004 1.359 1_545 S
C1006 C1007 1.380 . S
C1007 C1006 1.380 . S
C1007 C1009 1.433 . S
C1008 C1004 1.350 . S
C1008 C1005 1.463 . S
C1008 N1012 1.427 . S
C1009 H999 0.929 . S
C1009 C1007 1.433 . S
C1009 N1012 1.384 1_545 S
C1010 H1001 0.929 . S
C1010 C1002 1.378 . S
C1010 C1005 1.350 . S
C1011 H998 0.929 . S
C1011 C1003 1.433 . S
C1011 N1013 1.384 . S
N1012 C1008 1.427 . S
N1012 C1009 1.384 1_565 S
N1013 C1005 1.427 . S
N1013 C1011 1.384 . S
H1014 C1020 0.930 . S
H1015 C1024 0.930 . S
H1016 C1029 0.929 . S
H1017 C1027 0.929 . S
H1018 C1022 0.929 . S
H1019 C1028 0.929 . S
C1020 H1014 0.930 . S
C1020 C1021 1.367 . S
C1020 C1028 1.378 . S
C1021 C1020 1.367 . S
C1021 C1029 1.433 . S
C1022 H1018 0.929 . S
C1022 C1024 1.378 . S
C1022 C1026 1.350 . S
C1023 C1026 1.463 . S
C1023 C1028 1.350 . S
C1023 N1031 1.427 . S
C1024 H1015 0.930 . S
C1024 C1022 1.378 . S
C1024 C1025 1.367 . S
C1025 C1024 1.367 . S
C1025 C1027 1.433 . S
C1026 C1022 1.350 . S
C1026 C1023 1.463 . S
C1026 N1030 1.427 . S
C1027 H1017 0.929 . S
C1027 C1025 1.433 . S
C1027 N1030 1.384 . S
C1028 H1019 0.929 . S
C1028 C1020 1.378 . S
C1028 C1023 1.350 . S
C1029 H1016 0.929 . S
C1029 C1021 1.433 . S
C1029 N1031 1.384 . S
N1030 C1026 1.427 . S
N1030 C1027 1.384 . S
N1031 C1023 1.427 . S
N1031 C1029 1.384 . S
H1032 C1038 0.930 . S
H1033 C1042 0.930 . S
H1034 C1047 0.929 . S
H1035 C1045 0.929 . S
H1036 C1040 0.929 . S
H1037 C1046 0.929 . S
C1038 H1032 0.930 . S
C1038 C1039 1.367 . S
C1038 C1046 1.378 . S
C1039 C1038 1.367 . S
C1039 C1047 1.433 . S
C1040 H1036 0.929 . S
C1040 C1042 1.378 . S
C1040 C1044 1.350 . S
C1041 C1044 1.463 1_455 S
C1041 C1046 1.350 . S
C1041 N1049 1.427 . S
C1042 H1033 0.930 . S
C1042 C1040 1.378 . S
C1042 C1043 1.367 . S
C1043 C1042 1.367 . S
C1043 C1045 1.433 . S
C1044 C1040 1.350 . S
C1044 C1041 1.463 1_655 S
C1044 N1048 1.427 . S
C1045 H1035 0.929 . S
C1045 C1043 1.433 . S
C1045 N1048 1.384 . S
C1046 H1037 0.929 . S
C1046 C1038 1.378 . S
C1046 C1041 1.350 . S
C1047 H1034 0.929 . S
C1047 C1039 1.433 . S
C1047 N1049 1.384 . S
N1048 C1044 1.427 . S
N1048 C1045 1.384 . S
N1049 C1041 1.427 . S
N1049 C1047 1.384 . S
H1050 C1056 0.930 . S
H1051 C1060 0.930 . S
H1052 C1065 0.929 . S
H1053 C1063 0.929 . S
H1054 C1058 0.929 . S
H1055 C1064 0.929 . S
C1056 H1050 0.930 . S
C1056 C1057 1.367 . S
C1056 C1064 1.378 1_565 S
C1057 C1056 1.367 . S
C1057 C1065 1.433 . S
C1058 H1054 0.929 . S
C1058 C1060 1.378 . S
C1058 C1062 1.350 . S
C1059 C1062 1.463 . S
C1059 C1064 1.350 . S
C1059 N1067 1.427 . S
C1060 H1051 0.930 . S
C1060 C1058 1.378 . S
C1060 C1061 1.367 . S
C1061 C1060 1.367 . S
C1061 C1063 1.433 . S
C1062 C1058 1.350 . S
C1062 C1059 1.463 . S
C1062 N1066 1.427 . S
C1063 H1053 0.929 . S
C1063 C1061 1.433 . S
C1063 N1066 1.384 . S
C1064 H1055 0.929 . S
C1064 C1056 1.378 1_545 S
C1064 C1059 1.350 . S
C1065 H1052 0.929 . S
C1065 C1057 1.433 . S
C1065 N1067 1.384 1_565 S
N1066 C1062 1.427 . S
N1066 C1063 1.384 . S
N1067 C1059 1.427 . S
N1067 C1065 1.384 1_545 S
C643 C446 1.757 . S
C647 C22 1.762 . S
C661 C91 1.743 . S
C665 C515 1.741 . S
C679 C128 1.757 . S
C683 C552 1.763 . S
C697 C181 1.767 . S
C701 C605 1.761 . S
C715 C356 1.743 . S
C719 C250 1.741 . S
C733 C287 1.760 . S
C737 C393 1.767 . S
C751 C516 1.475 . S
C755 C29 1.464 . S
C769 C92 1.469 . S
C773 C559 1.462 . S
C787 C612 1.349 . S
C791 C135 1.354 . S
C805 C188 1.453 . S
C809 C357 1.465 . S
C823 C400 1.452 . S
C827 C251 1.469 . S
C841 C453 1.346 . S
C845 C294 1.352 . S
C859 C38 2.176 . S
C863 C304 2.171 . S
C877 C75 2.353 . S
C881 C39 2.363 . S
C895 C82 2.211 . S
C899 C144 2.297 . S
C913 C197 2.183 . S
C917 C145 2.165 . S
C931 C234 2.353 . S
C935 C198 2.363 . S
C949 C303 2.299 . S
C953 C241 2.216 . S
C967 C340 2.352 . S
C971 C410 2.369 . S
C985 C409 2.182 . S
C989 C463 2.166 . S
C1003 C462 2.296 . S
C1007 C506 2.212 . S
C1021 C499 2.355 . S
C1025 C569 2.369 . S
C1039 C568 2.182 . S
C1043 C622 2.166 . S
C1057 C347 2.210 . S
C1061 C621 2.298 . S
