# Generated by pormake.
# Topology upb, (4)-cn, num edge types: 1
# Building blocks:
#     Node 0, Type 0, BuildingBlock: ICAMEG_clean_sbu_1, # of connection points: 4
#     Node 1, Type 0, BuildingBlock: ICAMEG_clean_sbu_1, # of connection points: 4
#     Node 2, Type 0, BuildingBlock: ICAMEG_clean_sbu_1, # of connection points: 4
#     Node 3, Type 0, BuildingBlock: ICAMEG_clean_sbu_1, # of connection points: 4
#     Node 4, Type 0, BuildingBlock: ICAMEG_clean_sbu_1, # of connection points: 4
#     Node 5, Type 0, BuildingBlock: ICAMEG_clean_sbu_1, # of connection points: 4
#     Node 6, Type 0, BuildingBlock: ICAMEG_clean_sbu_1, # of connection points: 4
#     Node 7, Type 0, BuildingBlock: ICAMEG_clean_sbu_1, # of connection points: 4
#     Node 8, Type 0, BuildingBlock: ICAMEG_clean_sbu_1, # of connection points: 4
#     Node 9, Type 0, BuildingBlock: ICAMEG_clean_sbu_1, # of connection points: 4
#     Node 10, Type 0, BuildingBlock: ICAMEG_clean_sbu_1, # of connection points: 4
#     Node 11, Type 0, BuildingBlock: ICAMEG_clean_sbu_1, # of connection points: 4
#     Node 12, Type 0, BuildingBlock: ICAMEG_clean_sbu_1, # of connection points: 4
#     Node 13, Type 0, BuildingBlock: ICAMEG_clean_sbu_1, # of connection points: 4
#     Node 14, Type 0, BuildingBlock: ICAMEG_clean_sbu_1, # of connection points: 4
#     Node 15, Type 0, BuildingBlock: ICAMEG_clean_sbu_1, # of connection points: 4
#     Edge 16, Type (0, 0), BuildingBlock: ZUJKAS_clean_linker_0, # of connection points: 2
#     Edge 17, Type (0, 0), BuildingBlock: ZUJKAS_clean_linker_0, # of connection points: 2
#     Edge 18, Type (0, 0), BuildingBlock: ZUJKAS_clean_linker_0, # of connection points: 2
#     Edge 19, Type (0, 0), BuildingBlock: ZUJKAS_clean_linker_0, # of connection points: 2
#     Edge 20, Type (0, 0), BuildingBlock: ZUJKAS_clean_linker_0, # of connection points: 2
#     Edge 21, Type (0, 0), BuildingBlock: ZUJKAS_clean_linker_0, # of connection points: 2
#     Edge 22, Type (0, 0), BuildingBlock: ZUJKAS_clean_linker_0, # of connection points: 2
#     Edge 23, Type (0, 0), BuildingBlock: ZUJKAS_clean_linker_0, # of connection points: 2
#     Edge 24, Type (0, 0), BuildingBlock: ZUJKAS_clean_linker_0, # of connection points: 2
#     Edge 25, Type (0, 0), BuildingBlock: ZUJKAS_clean_linker_0, # of connection points: 2
#     Edge 26, Type (0, 0), BuildingBlock: ZUJKAS_clean_linker_0, # of connection points: 2
#     Edge 27, Type (0, 0), BuildingBlock: ZUJKAS_clean_linker_0, # of connection points: 2
#     Edge 28, Type (0, 0), BuildingBlock: ZUJKAS_clean_linker_0, # of connection points: 2
#     Edge 29, Type (0, 0), BuildingBlock: ZUJKAS_clean_linker_0, # of connection points: 2
#     Edge 30, Type (0, 0), BuildingBlock: ZUJKAS_clean_linker_0, # of connection points: 2
#     Edge 31, Type (0, 0), BuildingBlock: ZUJKAS_clean_linker_0, # of connection points: 2
#     Edge 32, Type (0, 0), BuildingBlock: ZUJKAS_clean_linker_0, # of connection points: 2
#     Edge 33, Type (0, 0), BuildingBlock: ZUJKAS_clean_linker_0, # of connection points: 2
#     Edge 34, Type (0, 0), BuildingBlock: ZUJKAS_clean_linker_0, # of connection points: 2
#     Edge 35, Type (0, 0), BuildingBlock: ZUJKAS_clean_linker_0, # of connection points: 2
#     Edge 36, Type (0, 0), BuildingBlock: ZUJKAS_clean_linker_0, # of connection points: 2
#     Edge 37, Type (0, 0), BuildingBlock: ZUJKAS_clean_linker_0, # of connection points: 2
#     Edge 38, Type (0, 0), BuildingBlock: ZUJKAS_clean_linker_0, # of connection points: 2
#     Edge 39, Type (0, 0), BuildingBlock: ZUJKAS_clean_linker_0, # of connection points: 2
#     Edge 40, Type (0, 0), BuildingBlock: ZUJKAS_clean_linker_0, # of connection points: 2
#     Edge 41, Type (0, 0), BuildingBlock: ZUJKAS_clean_linker_0, # of connection points: 2
#     Edge 42, Type (0, 0), BuildingBlock: ZUJKAS_clean_linker_0, # of connection points: 2
#     Edge 43, Type (0, 0), BuildingBlock: ZUJKAS_clean_linker_0, # of connection points: 2
#     Edge 44, Type (0, 0), BuildingBlock: ZUJKAS_clean_linker_0, # of connection points: 2
#     Edge 45, Type (0, 0), BuildingBlock: ZUJKAS_clean_linker_0, # of connection points: 2
#     Edge 46, Type (0, 0), BuildingBlock: ZUJKAS_clean_linker_0, # of connection points: 2
#     Edge 47, Type (0, 0), BuildingBlock: ZUJKAS_clean_linker_0, # of connection points: 2
# Relax obj value: 0.193
# Max RMSD: 0.052
# Mean RMSD: 0.052
data_MOF--net-upb--node1-ICAMEG_clean_sbu_1--edge1-ZUJKAS_clean_linker_0
_symmetry_space_group_name_H-M    P1
_symmetry_Int_Tables_number       1
_symmetry_cell_setting            triclinic
loop_
_symmetry_equiv_pos_as_xyz
'x, y, z'
_cell_length_a     63.742348
_cell_length_b     63.757166
_cell_length_c     31.584703
_cell_angle_alpha  89.988947
_cell_angle_beta   89.991069
_cell_angle_gamma 89.971189
loop_
_atom_site_label
_atom_site_type_symbol
_atom_site_fract_x
_atom_site_fract_y
_atom_site_fract_z
_atom_type_partial_charge
Co0 Co 0.06824 0.19224 0.25632 0.0
Co1 Co 0.05152 0.23801 0.20842 0.0
O2 O 0.07258 0.21634 0.21946 0.0
C3 C 0.07962 0.16572 0.18085 0.0
O4 O 0.06148 0.16954 0.16276 0.0
C5 C 0.0876 0.26022 0.24427 0.0
O6 O 0.0877 0.24554 0.27337 0.0
O7 O 0.04454 0.2408 0.26985 0.0
O8 O 0.05254 0.20953 0.29798 0.0
H9 H 0.98096 0.27266 0.22033 0.0
H10 H 0.1113 0.20287 0.22794 0.0
O11 O 0.08446 0.17425 0.21597 0.0
H12 H 0.1136 0.20606 0.38386 0.0
H13 H 0.08994 0.12527 0.32872 0.0
H14 H 0.03223 0.17549 0.30527 0.0
H15 H 0.0809 0.19648 0.34693 0.0
H16 H 0.09525 0.15652 0.284 0.0
O17 O 0.07372 0.26005 0.21523 0.0
H18 H 0.0074 0.24524 0.23433 0.0
H19 H 0.05178 0.27757 0.15821 0.0
H20 H 0.0263 0.14454 0.35055 0.0
H21 H 0.1444 0.21228 0.26363 0.0
H22 H 0.05528 0.11916 0.3625 0.0
H23 H 0.14566 0.21401 0.34214 0.0
O24 O 0.04141 0.18555 0.2273 0.0
H25 H 0.0999 0.23333 0.08311 0.0
H26 H 0.02607 0.23349 0.12972 0.0
H27 H 0.03424 0.22958 0.05381 0.0
H28 H 0.07139 0.22954 0.03006 0.0
H29 H 0.09102 0.237 0.15877 0.0
H30 H 0.02589 0.30544 0.14366 0.0
H31 H 0.99016 0.30303 0.17469 0.0
O32 O 0.02917 0.21618 0.20167 0.0
C33 C 0.04494 0.22794 0.30076 0.0
C34 C 0.99645 0.27385 0.20652 0.0
C35 C 0.02168 0.29227 0.16354 0.0
N36 N 0.03103 0.25974 0.19684 0.0
C37 C 0.01146 0.25835 0.21424 0.0
C38 C 0.03628 0.27647 0.17196 0.0
C39 C 0.00163 0.2909 0.18095 0.0
C40 C 0.11179 0.20335 0.26213 0.0
N41 N 0.09421 0.19903 0.28531 0.0
C42 C 0.13055 0.20877 0.28216 0.0
C43 C 0.13124 0.20978 0.32621 0.0
C44 C 0.11325 0.20534 0.34963 0.0
C45 C 0.09476 0.19998 0.32853 0.0
C46 C 0.0772 0.13624 0.32383 0.0
C47 C 0.04496 0.1646 0.31056 0.0
C48 C 0.0801 0.15394 0.29847 0.0
N49 N 0.06411 0.16791 0.29229 0.0
C50 C 0.04149 0.14706 0.33612 0.0
C51 C 0.05775 0.13282 0.34278 0.0
C52 C 0.02736 0.19653 0.20884 0.0
C53 C 0.08365 0.23336 0.09306 0.0
C54 C 0.04227 0.23338 0.11966 0.0
C55 C 0.0468 0.23123 0.07662 0.0
C56 C 0.06765 0.23122 0.06331 0.0
N57 N 0.05805 0.23553 0.14863 0.0
C58 C 0.07852 0.2355 0.13584 0.0
Co59 Co 0.81444 0.05856 0.2722 0.0
Co60 Co 0.77143 0.04862 0.20956 0.0
O61 O 0.79234 0.06771 0.23357 0.0
C62 C 0.83847 0.08181 0.20658 0.0
O63 O 0.82843 0.07128 0.17716 0.0
C64 C 0.74676 0.08193 0.24997 0.0
O65 O 0.7593 0.07982 0.28262 0.0
O66 O 0.76435 0.03748 0.26668 0.0
O67 O 0.79525 0.0382 0.30059 0.0
H68 H 0.73504 0.97943 0.18987 0.0
H69 H 0.80505 0.10394 0.26497 0.0
O70 O 0.83437 0.07875 0.24553 0.0
H71 H 0.79257 0.08628 0.41488 0.0
H72 H 0.87635 0.06937 0.3688 0.0
H73 H 0.82929 0.01728 0.30333 0.0
H74 H 0.80474 0.05926 0.36475 0.0
H75 H 0.84769 0.08066 0.32151 0.0
O76 O 0.74936 0.07065 0.21709 0.0
H77 H 0.76159 0.00346 0.2195 0.0
H78 H 0.73598 0.05409 0.14902 0.0
H79 H 0.85765 0.00532 0.35066 0.0
H80 H 0.79311 0.13152 0.31418 0.0
H81 H 0.88142 0.03146 0.38377 0.0
H82 H 0.78669 0.12272 0.38969 0.0
O83 O 0.82332 0.03662 0.23153 0.0
H84 H 0.78558 0.10577 0.10384 0.0
H85 H 0.7813 0.02931 0.12579 0.0
H86 H 0.79075 0.04307 0.05535 0.0
H87 H 0.79291 0.08156 0.04401 0.0
H88 H 0.77635 0.09132 0.17388 0.0
H89 H 0.70903 0.03067 0.11891 0.0
H90 H 0.70852 0.99303 0.13919 0.0
O91 O 0.7931 0.02611 0.20165 0.0
C92 C 0.77602 0.03291 0.29807 0.0
C93 C 0.73515 0.99579 0.18067 0.0
C94 C 0.72054 0.02455 0.14089 0.0
N95 N 0.75044 0.03009 0.18569 0.0
C96 C 0.75018 0.00944 0.19724 0.0
C97 C 0.7358 0.03774 0.1581 0.0
C98 C 0.72026 0.00343 0.15227 0.0
C99 C 0.80254 0.10006 0.29789 0.0
N100 N 0.80566 0.08003 0.31197 0.0
C101 C 0.79568 0.11571 0.32556 0.0
C102 C 0.79204 0.11076 0.36791 0.0
C103 C 0.79531 0.09031 0.38206 0.0
C104 C 0.80215 0.07505 0.35348 0.0
C105 C 0.86607 0.05784 0.35465 0.0
C106 C 0.83949 0.02876 0.31784 0.0
C107 C 0.84984 0.06413 0.32779 0.0
N108 N 0.83673 0.04965 0.30997 0.0
C109 C 0.85555 0.02189 0.34451 0.0
C110 C 0.8689 0.03656 0.36304 0.0
C111 C 0.81275 0.02407 0.20847 0.0
C112 C 0.78464 0.08897 0.10836 0.0
C113 C 0.78227 0.04608 0.12115 0.0
C114 C 0.78758 0.05378 0.08116 0.0
C115 C 0.78877 0.07538 0.07482 0.0
N116 N 0.77819 0.05951 0.15386 0.0
C117 C 0.77934 0.0807 0.1479 0.0
Co118 Co 0.92695 0.80657 0.25554 0.0
Co119 Co 0.94736 0.76331 0.20405 0.0
O120 O 0.92465 0.78304 0.21646 0.0
C121 C 0.91385 0.83015 0.17809 0.0
O122 O 0.9305 0.82342 0.15774 0.0
C123 C 0.9133 0.73777 0.23848 0.0
O124 O 0.91195 0.75214 0.26807 0.0
O125 O 0.95452 0.75995 0.26516 0.0
O126 O 0.94333 0.78943 0.29653 0.0
H127 H 0.02039 0.73407 0.21424 0.0
H128 H 0.8851 0.79368 0.22403 0.0
O129 O 0.91021 0.82435 0.21595 0.0
H130 H 0.88116 0.78695 0.37937 0.0
H131 H 0.90001 0.87025 0.33264 0.0
H132 H 0.96121 0.82455 0.30757 0.0
H133 H 0.91352 0.79959 0.34506 0.0
H134 H 0.89731 0.83977 0.28491 0.0
O135 O 0.92703 0.73944 0.20932 0.0
H136 H 0.99187 0.75908 0.22992 0.0
H137 H 0.95028 0.72483 0.15089 0.0
H138 H 0.96455 0.85476 0.35588 0.0
H139 H 0.85235 0.78119 0.25707 0.0
H140 H 0.9338 0.87786 0.36866 0.0
H141 H 0.85026 0.77766 0.33527 0.0
O142 O 0.95345 0.81585 0.22801 0.0
H143 H 0.89887 0.76622 0.07875 0.0
H144 H 0.97239 0.77156 0.12608 0.0
H145 H 0.96398 0.77619 0.05043 0.0
H146 H 0.92699 0.77347 0.02632 0.0
H147 H 0.90796 0.76186 0.15417 0.0
H148 H 0.97829 0.69934 0.13462 0.0
H149 H 0.01367 0.70394 0.16627 0.0
O150 O 0.96785 0.78693 0.19912 0.0
C151 C 0.95259 0.77174 0.2975 0.0
C152 C 0.00506 0.73194 0.20014 0.0
C153 C 0.98143 0.71243 0.1555 0.0
N154 N 0.96951 0.7435 0.19104 0.0
C155 C 0.98888 0.74608 0.20879 0.0
C156 C 0.96562 0.72688 0.16489 0.0
C157 C 0.00127 0.71502 0.17326 0.0
C158 C 0.88424 0.79241 0.25811 0.0
N159 N 0.90119 0.79742 0.28258 0.0
C160 C 0.86568 0.78524 0.27663 0.0
C161 C 0.86454 0.78323 0.3205 0.0
C162 C 0.88187 0.78842 0.34526 0.0
C163 C 0.90018 0.79552 0.32564 0.0
C164 C 0.91351 0.86027 0.32742 0.0
C165 C 0.94772 0.83444 0.31322 0.0
C166 C 0.91208 0.84301 0.30036 0.0
N167 N 0.92904 0.83029 0.29375 0.0
C168 C 0.94972 0.85156 0.3405 0.0
C169 C 0.93247 0.86453 0.34762 0.0
C170 C 0.9682 0.80644 0.20828 0.0
C171 C 0.91505 0.76738 0.08885 0.0
C172 C 0.95625 0.77042 0.11585 0.0
C173 C 0.95159 0.77301 0.07296 0.0
C174 C 0.93083 0.77147 0.05946 0.0
N175 N 0.94069 0.76634 0.14446 0.0
C176 C 0.9203 0.76486 0.13149 0.0
Co177 Co 0.18323 0.93271 0.26581 0.0
Co178 Co 0.22797 0.94955 0.21447 0.0
O179 O 0.20696 0.9282 0.228 0.0
C180 C 0.15859 0.91863 0.19017 0.0
O181 O 0.16487 0.93502 0.16845 0.0
C182 C 0.25176 0.9146 0.25081 0.0
O183 O 0.23753 0.91445 0.28084 0.0
O184 O 0.23159 0.95725 0.27529 0.0
O185 O 0.20071 0.94951 0.3054 0.0
H186 H 0.2613 0.02087 0.22095 0.0
H187 H 0.19458 0.88946 0.24008 0.0
O188 O 0.16507 0.91551 0.22776 0.0
H189 H 0.19981 0.89007 0.39585 0.0
H190 H 0.1176 0.91109 0.34311 0.0
H191 H 0.16631 0.96926 0.31278 0.0
H192 H 0.18881 0.92178 0.35708 0.0
H193 H 0.14848 0.90552 0.29743 0.0
O194 O 0.25062 0.92797 0.22089 0.0
H195 H 0.2347 0.99406 0.23798 0.0
H196 H 0.26666 0.94955 0.16151 0.0
H197 H 0.13574 0.97545 0.35901 0.0
H198 H 0.20544 0.85731 0.27764 0.0
H199 H 0.11112 0.94624 0.3744 0.0
H200 H 0.2082 0.85752 0.35608 0.0
O201 O 0.17541 0.95874 0.23487 0.0
H202 H 0.22242 0.89967 0.0918 0.0
H203 H 0.22146 0.97399 0.13501 0.0
H204 H 0.21652 0.96486 0.05979 0.0
H205 H 0.21704 0.92747 0.03775 0.0
H206 H 0.22713 0.9095 0.16675 0.0
H207 H 0.29371 0.97581 0.14392 0.0
H208 H 0.29107 0.0118 0.1736 0.0
O209 O 0.20561 0.97133 0.20809 0.0
C210 C 0.21913 0.95718 0.30685 0.0
C211 C 0.26259 0.00527 0.20772 0.0
C212 C 0.2808 0.97997 0.16453 0.0
N213 N 0.24905 0.97033 0.20048 0.0
C214 C 0.24755 0.99005 0.21715 0.0
C215 C 0.26546 0.96515 0.17467 0.0
C216 C 0.2793 0.00016 0.18118 0.0
C217 C 0.19553 0.8896 0.27425 0.0
N218 N 0.19101 0.90747 0.29635 0.0
C219 C 0.20177 0.87138 0.29533 0.0
C220 C 0.20335 0.87152 0.33933 0.0
C221 C 0.19866 0.88978 0.36167 0.0
C222 C 0.1925 0.90771 0.33952 0.0
C223 C 0.12824 0.92392 0.33674 0.0
C224 C 0.15576 0.95642 0.31961 0.0
C225 C 0.14574 0.92088 0.31083 0.0
N226 N 0.15928 0.93701 0.30273 0.0
C227 C 0.13844 0.96004 0.3457 0.0
C228 C 0.12462 0.94365 0.35428 0.0
C229 C 0.18595 0.97277 0.21538 0.0
C230 C 0.22222 0.91603 0.101 0.0
C231 C 0.22163 0.95768 0.12569 0.0
C232 C 0.21887 0.95261 0.08304 0.0
C233 C 0.21917 0.93163 0.07069 0.0
N234 N 0.22468 0.94229 0.1552 0.0
C235 C 0.22494 0.92168 0.14336 0.0
Co236 Co 0.0674 0.81147 0.73238 0.0
Co237 Co 0.05222 0.76754 0.7887 0.0
O238 O 0.07296 0.78862 0.77186 0.0
C239 C 0.08328 0.83548 0.80692 0.0
O240 O 0.06958 0.82611 0.83154 0.0
C241 C 0.08696 0.74369 0.75146 0.0
O242 O 0.0865 0.75747 0.72063 0.0
O243 O 0.04318 0.7627 0.72888 0.0
O244 O 0.05058 0.79279 0.69541 0.0
H245 H 0.98126 0.73328 0.79114 0.0
H246 H 0.1112 0.80179 0.75695 0.0
O247 O 0.08442 0.83092 0.76779 0.0
H248 H 0.10902 0.79315 0.60187 0.0
H249 H 0.0864 0.8755 0.64719 0.0
H250 H 0.0298 0.82646 0.68619 0.0
H251 H 0.07745 0.80417 0.64114 0.0
H252 H 0.09332 0.846 0.69575 0.0
O253 O 0.07398 0.74505 0.78203 0.0
H254 H 0.0073 0.75988 0.76983 0.0
H255 H 0.05393 0.7298 0.84426 0.0
H256 H 0.02224 0.85565 0.63725 0.0
H257 H 0.14322 0.79097 0.71888 0.0
H258 H 0.05066 0.88042 0.61746 0.0
H259 H 0.14222 0.78649 0.6408 0.0
O260 O 0.04164 0.81939 0.76414 0.0
H261 H 0.10471 0.77614 0.90611 0.0
H262 H 0.02948 0.77499 0.86987 0.0
H263 H 0.0402 0.78149 0.94372 0.0
H264 H 0.07806 0.78205 0.96226 0.0
H265 H 0.09329 0.76986 0.83257 0.0
H266 H 0.02845 0.70275 0.8661 0.0
H267 H 0.9918 0.70445 0.83962 0.0
O268 O 0.03026 0.78974 0.79538 0.0
C269 C 0.04278 0.77444 0.6962 0.0
C270 C 0.99717 0.7324 0.803 0.0
C271 C 0.02366 0.71525 0.84502 0.0
N272 N 0.03205 0.74647 0.80605 0.0
C273 C 0.01196 0.74746 0.79114 0.0
C274 C 0.03803 0.73058 0.83248 0.0
C275 C 0.0031 0.71622 0.83017 0.0
C276 C 0.11071 0.80009 0.72292 0.0
N277 N 0.09248 0.80365 0.7013 0.0
C278 C 0.12886 0.79388 0.70156 0.0
C279 C 0.12828 0.79133 0.65775 0.0
C280 C 0.10965 0.79504 0.6359 0.0
C281 C 0.0918 0.80121 0.65832 0.0
C282 C 0.0739 0.86479 0.65552 0.0
C283 C 0.04228 0.8371 0.67753 0.0
C284 C 0.07771 0.84808 0.68307 0.0
N285 N 0.06201 0.83443 0.69357 0.0
C286 C 0.03789 0.85363 0.64989 0.0
C287 C 0.05384 0.86754 0.63884 0.0
C288 C 0.02824 0.80912 0.7859 0.0
C289 C 0.08816 0.77589 0.89845 0.0
C290 C 0.04598 0.7753 0.87764 0.0
C291 C 0.05196 0.77893 0.91954 0.0
C292 C 0.0732 0.77923 0.92993 0.0
N293 N 0.06074 0.77199 0.84697 0.0
C294 C 0.0816 0.77228 0.85689 0.0
Co295 Co 0.18491 0.06819 0.74952 0.0
Co296 Co 0.22922 0.05142 0.80295 0.0
O297 O 0.2084 0.07272 0.7879 0.0
C298 C 0.16084 0.08201 0.82602 0.0
O299 O 0.16832 0.06621 0.848 0.0
C300 C 0.25312 0.08525 0.76284 0.0
O301 O 0.23855 0.08515 0.73354 0.0
O302 O 0.2324 0.042 0.74287 0.0
O303 O 0.20286 0.05195 0.70999 0.0
H304 H 0.26126 0.97941 0.80335 0.0
H305 H 0.19582 0.11126 0.77712 0.0
O306 O 0.16633 0.08485 0.78771 0.0
H307 H 0.20146 0.11229 0.62142 0.0
H308 H 0.1195 0.08969 0.67126 0.0
H309 H 0.16896 0.03195 0.70031 0.0
H310 H 0.19059 0.08012 0.65876 0.0
H311 H 0.14989 0.09518 0.71829 0.0
O312 O 0.25216 0.07242 0.7937 0.0
H313 H 0.23497 0.00621 0.78427 0.0
H314 H 0.26834 0.05213 0.85458 0.0
H315 H 0.13891 0.02585 0.65271 0.0
H316 H 0.20655 0.14385 0.74104 0.0
H317 H 0.11391 0.05485 0.63795 0.0
H318 H 0.20952 0.14447 0.66264 0.0
O319 O 0.17718 0.04176 0.77943 0.0
H320 H 0.22479 0.10462 0.91999 0.0
H321 H 0.22344 0.02925 0.88525 0.0
H322 H 0.219 0.04044 0.95947 0.0
H323 H 0.21971 0.07838 0.97724 0.0
H324 H 0.22895 0.09272 0.84615 0.0
H325 H 0.2951 0.02587 0.87412 0.0
H326 H 0.29159 0.98919 0.84859 0.0
O327 O 0.20649 0.03033 0.81213 0.0
C328 C 0.22068 0.04294 0.71021 0.0
C329 C 0.26292 0.99532 0.81478 0.0
C330 C 0.28194 0.02141 0.85445 0.0
N331 N 0.25005 0.03065 0.81857 0.0
C332 C 0.24806 0.01054 0.8042 0.0
C333 C 0.26677 0.03622 0.8432 0.0
C334 C 0.27995 0.00083 0.84013 0.0
C335 C 0.19687 0.11147 0.74296 0.0
N336 N 0.19255 0.0938 0.72008 0.0
C337 C 0.20303 0.12995 0.72272 0.0
C338 C 0.20473 0.13027 0.67874 0.0
C339 C 0.20023 0.11222 0.6556 0.0
C340 C 0.19414 0.09402 0.67692 0.0
C341 C 0.13031 0.07695 0.67738 0.0
C342 C 0.15824 0.04469 0.69381 0.0
C343 C 0.14751 0.07994 0.70408 0.0
N344 N 0.16127 0.06393 0.71183 0.0
C345 C 0.14121 0.04112 0.66693 0.0
C346 C 0.12718 0.0574 0.65869 0.0
C347 C 0.18719 0.02844 0.80197 0.0
C348 C 0.22447 0.08804 0.91266 0.0
C349 C 0.22362 0.04578 0.89271 0.0
C350 C 0.22118 0.05202 0.93481 0.0
C351 C 0.2216 0.07331 0.94476 0.0
N352 N 0.22644 0.06031 0.86142 0.0
C353 C 0.22687 0.08121 0.87092 0.0
Co354 Co 0.93585 0.18982 0.73766 0.0
Co355 Co 0.94856 0.23332 0.79659 0.0
O356 O 0.92833 0.21295 0.77493 0.0
C357 C 0.91282 0.16805 0.80649 0.0
O358 O 0.92448 0.17801 0.83424 0.0
C359 C 0.91611 0.25858 0.75488 0.0
O360 O 0.9187 0.24612 0.72223 0.0
O361 O 0.95973 0.23877 0.73864 0.0
O362 O 0.95671 0.20744 0.70688 0.0
H363 H 0.01942 0.26695 0.81176 0.0
H364 H 0.89115 0.20176 0.74675 0.0
O365 O 0.91514 0.17144 0.76705 0.0
H366 H 0.90719 0.21056 0.59504 0.0
H367 H 0.92055 0.12688 0.64648 0.0
H368 H 0.97588 0.17233 0.70545 0.0
H369 H 0.93427 0.19779 0.6445 0.0
H370 H 0.91142 0.15686 0.69228 0.0
O371 O 0.92719 0.25602 0.78807 0.0
H372 H 0.99407 0.24095 0.78481 0.0
H373 H 0.94503 0.27013 0.85424 0.0
H374 H 0.98572 0.14263 0.65951 0.0
H375 H 0.86354 0.2144 0.6983 0.0
H376 H 0.95794 0.11966 0.62968 0.0
H377 H 0.87153 0.21895 0.62188 0.0
O378 O 0.95794 0.18067 0.77775 0.0
H379 H 0.89175 0.22367 0.90519 0.0
H380 H 0.96813 0.22418 0.88038 0.0
H381 H 0.95461 0.21666 0.95194 0.0
H382 H 0.91616 0.2164 0.96472 0.0
H383 H 0.90594 0.23095 0.83403 0.0
H384 H 0.96981 0.29657 0.88167 0.0
H385 H 0.00732 0.29501 0.86056 0.0
O386 O 0.97018 0.21079 0.80544 0.0
C387 C 0.96335 0.22627 0.70802 0.0
C388 C 0.00313 0.26775 0.82131 0.0
C389 C 0.97528 0.2844 0.8605 0.0
N390 N 0.96815 0.25393 0.81826 0.0
C391 C 0.98872 0.25304 0.80625 0.0
C392 C 0.96132 0.26942 0.8448 0.0
C393 C 0.99633 0.28351 0.84865 0.0
C394 C 0.89466 0.20347 0.71345 0.0
N395 N 0.91426 0.19895 0.69846 0.0
C396 C 0.879 0.21073 0.6862 0.0
C397 C 0.88351 0.21331 0.64334 0.0
C398 C 0.90352 0.20862 0.62827 0.0
C399 C 0.9188 0.20144 0.65645 0.0
C400 C 0.9328 0.13681 0.65919 0.0
C401 C 0.9637 0.1625 0.69233 0.0
C402 C 0.92772 0.15379 0.68519 0.0
N403 N 0.9431 0.16645 0.70116 0.0
C404 C 0.96937 0.14566 0.66645 0.0
C405 C 0.95377 0.13277 0.64977 0.0
C406 C 0.97121 0.19096 0.7997 0.0
C407 C 0.90854 0.22379 0.90004 0.0
C408 C 0.95138 0.22404 0.88565 0.0
C409 C 0.94381 0.21981 0.92626 0.0
C410 C 0.92224 0.21969 0.93342 0.0
N411 N 0.93784 0.22809 0.85309 0.0
C412 C 0.91667 0.22798 0.85985 0.0
Co413 Co 0.81175 0.94296 0.72957 0.0
Co414 Co 0.76877 0.94977 0.79401 0.0
O415 O 0.79062 0.93229 0.76865 0.0
C416 C 0.83761 0.92115 0.79425 0.0
O417 O 0.82723 0.93117 0.82395 0.0
C418 C 0.74567 0.91558 0.75266 0.0
O419 O 0.75704 0.91957 0.71897 0.0
O420 O 0.76054 0.96112 0.7375 0.0
O421 O 0.79112 0.96213 0.70229 0.0
H422 H 0.72831 0.01632 0.81837 0.0
H423 H 0.80515 0.89708 0.73661 0.0
O424 O 0.8331 0.92399 0.75542 0.0
H425 H 0.79037 0.91435 0.58736 0.0
H426 H 0.87349 0.93619 0.63101 0.0
H427 H 0.82358 0.98514 0.69795 0.0
H428 H 0.80141 0.9419 0.63736 0.0
H429 H 0.84603 0.92309 0.67926 0.0
O430 O 0.74823 0.92632 0.78628 0.0
H431 H 0.75608 0.99436 0.78675 0.0
H432 H 0.73413 0.94136 0.8551 0.0
H433 H 0.85069 0.99889 0.64964 0.0
H434 H 0.79435 0.86899 0.68755 0.0
H435 H 0.87589 0.97434 0.61581 0.0
H436 H 0.78679 0.87758 0.61237 0.0
O437 O 0.81945 0.96542 0.77005 0.0
H438 H 0.78763 0.89255 0.89661 0.0
H439 H 0.77779 0.96873 0.87847 0.0
H440 H 0.78872 0.95488 0.94795 0.0
H441 H 0.79369 0.91652 0.95737 0.0
H442 H 0.77688 0.9071 0.82756 0.0
H443 H 0.706 0.96269 0.88717 0.0
H444 H 0.70303 0.00048 0.86897 0.0
O445 O 0.78902 0.97351 0.80223 0.0
C446 C 0.77172 0.96654 0.7059 0.0
C447 C 0.72949 -0.00011 0.82665 0.0
C448 C 0.71695 0.96978 0.86522 0.0
N449 N 0.74681 0.96666 0.81933 0.0
C450 C 0.74521 0.9874 0.80894 0.0
C451 C 0.73287 0.95777 0.84689 0.0
C452 C 0.71529 0.99099 0.85501 0.0
C453 C 0.80213 0.90089 0.70383 0.0
N454 N 0.80401 0.92109 0.68985 0.0
C455 C 0.79592 0.88494 0.67624 0.0
C456 C 0.79165 0.88978 0.63408 0.0
C457 C 0.79364 0.9104 0.62004 0.0
C458 C 0.79986 0.92595 0.64853 0.0
C459 C 0.86257 0.94704 0.6455 0.0
C460 C 0.8344 0.97434 0.68313 0.0
C461 C 0.84702 0.93972 0.67291 0.0
N462 N 0.83312 0.95332 0.69115 0.0
C463 C 0.84976 0.98223 0.6559 0.0
C464 C 0.86391 0.96845 0.63697 0.0
C465 C 0.80834 0.97707 0.79404 0.0
C466 C 0.78548 0.90929 0.89292 0.0
C467 C 0.78 0.95204 0.88226 0.0
C468 C 0.78614 0.94428 0.92171 0.0
C469 C 0.7889 0.92275 0.92699 0.0
N470 N 0.77666 0.93873 0.84901 0.0
C471 C 0.77933 0.91761 0.85394 0.0
Co472 Co 0.56877 0.68613 0.76569 0.0
Co473 Co 0.55464 0.72976 0.70743 0.0
O474 O 0.57494 0.70865 0.72591 0.0
C475 C 0.5855 0.66275 0.69146 0.0
O476 O 0.57258 0.67308 0.66666 0.0
C477 C 0.58895 0.75381 0.74576 0.0
O478 O 0.58752 0.74073 0.77771 0.0
O479 O 0.54502 0.73516 0.76673 0.0
O480 O 0.55186 0.7053 0.80161 0.0
H481 H 0.48417 0.76494 0.70089 0.0
H482 H 0.61283 0.69535 0.74227 0.0
O483 O 0.58584 0.66632 0.73108 0.0
H484 H 0.60946 0.7049 0.89705 0.0
H485 H 0.58647 0.62242 0.85296 0.0
H486 H 0.53071 0.67196 0.8114 0.0
H487 H 0.57816 0.69381 0.85705 0.0
H488 H 0.59401 0.65148 0.8037 0.0
O489 O 0.57665 0.75194 0.71417 0.0
H490 H 0.50965 0.73817 0.72418 0.0
H491 H 0.55741 0.76698 0.65064 0.0
H492 H 0.52252 0.64322 0.86102 0.0
H493 H 0.64458 0.70628 0.78108 0.0
H494 H 0.55052 0.6182 0.8821 0.0
H495 H 0.64298 0.71121 0.85902 0.0
O496 O 0.54315 0.67829 0.73335 0.0
H497 H 0.60826 0.71933 0.59268 0.0
H498 H 0.53268 0.72198 0.62554 0.0
H499 H 0.5441 0.7146 0.55244 0.0
H500 H 0.58215 0.71327 0.53561 0.0
H501 H 0.59614 0.72649 0.66543 0.0
H502 H 0.5325 0.79417 0.62682 0.0
H503 H 0.49557 0.7932 0.65186 0.0
O504 O 0.53249 0.70781 0.7006 0.0
C505 C 0.54424 0.72373 0.79985 0.0
C506 C 0.5002 0.7655 0.68965 0.0
C507 C 0.52734 0.78192 0.64813 0.0
N508 N 0.53493 0.75094 0.68852 0.0
C509 C 0.51468 0.75035 0.70264 0.0
C510 C 0.54138 0.76652 0.6618 0.0
C511 C 0.50661 0.78136 0.66218 0.0
C512 C 0.61207 0.69725 0.77624 0.0
N513 N 0.59367 0.69389 0.79737 0.0
C514 C 0.63007 0.70353 0.79802 0.0
C515 C 0.62916 0.70633 0.84174 0.0
C516 C 0.61035 0.7028 0.86309 0.0
C517 C 0.59266 0.69657 0.84026 0.0
C518 C 0.57414 0.63324 0.84407 0.0
C519 C 0.543 0.6612 0.82062 0.0
C520 C 0.57831 0.64969 0.8161 0.0
N521 N 0.56284 0.66348 0.80491 0.0
C522 C 0.53826 0.64493 0.84863 0.0
C523 C 0.55397 0.63089 0.86042 0.0
C524 C 0.53009 0.68856 0.71075 0.0
C525 C 0.59164 0.71991 0.5996 0.0
C526 C 0.54926 0.72134 0.61851 0.0
C527 C 0.55563 0.71721 0.57703 0.0
C528 C 0.57698 0.71648 0.5676 0.0
N529 N 0.56373 0.7247 0.6497 0.0
C530 C 0.58468 0.72402 0.6407 0.0
Co531 Co 0.31283 0.55974 0.76901 0.0
Co532 Co 0.26929 0.54873 0.70874 0.0
O533 O 0.29037 0.56823 0.73073 0.0
C534 C 0.33685 0.5818 0.70164 0.0
O535 O 0.32726 0.57037 0.67298 0.0
C536 C 0.24517 0.58269 0.74818 0.0
O537 O 0.25783 0.58064 0.78067 0.0
O538 O 0.26278 0.53836 0.76678 0.0
O539 O 0.29408 0.53962 0.79905 0.0
H540 H 0.23289 0.47922 0.69435 0.0
H541 H 0.30312 0.60497 0.75992 0.0
O542 O 0.33238 0.57974 0.74069 0.0
H543 H 0.29181 0.589 0.91098 0.0
H544 H 0.37543 0.57223 0.86292 0.0
H545 H 0.32826 0.51898 0.80171 0.0
H546 H 0.30385 0.56148 0.86182 0.0
H547 H 0.34634 0.58269 0.81597 0.0
O548 O 0.2473 0.57094 0.71584 0.0
H549 H 0.25967 0.50369 0.72156 0.0
H550 H 0.2332 0.55332 0.6495 0.0
H551 H 0.35706 0.50783 0.84879 0.0
H552 H 0.29135 0.63305 0.80814 0.0
H553 H 0.38088 0.53456 0.87975 0.0
H554 H 0.28551 0.6251 0.88422 0.0
O555 O 0.32144 0.53738 0.72911 0.0
H556 H 0.28239 0.60432 0.59913 0.0
H557 H 0.27831 0.52821 0.62578 0.0
H558 H 0.28703 0.54094 0.55417 0.0
H559 H 0.28908 0.57925 0.54047 0.0
H560 H 0.27387 0.59091 0.67036 0.0
H561 H 0.20601 0.52945 0.6218 0.0
H562 H 0.20581 0.49209 0.6441 0.0
O563 O 0.29098 0.52613 0.70125 0.0
C564 C 0.27486 0.5342 0.79778 0.0
C565 C 0.23286 0.49545 0.68429 0.0
C566 C 0.21775 0.52365 0.64361 0.0
N567 N 0.2481 0.52984 0.68682 0.0
C568 C 0.24801 0.50935 0.69948 0.0
C569 C 0.23315 0.5371 0.65946 0.0
C570 C 0.21765 0.50269 0.65612 0.0
C571 C 0.30088 0.60147 0.79309 0.0
N572 N 0.30423 0.58163 0.80802 0.0
C573 C 0.29411 0.6174 0.82021 0.0
C574 C 0.2908 0.61291 0.86287 0.0
C575 C 0.29431 0.59266 0.8779 0.0
C576 C 0.30106 0.57712 0.84986 0.0
C577 C 0.36512 0.56044 0.84971 0.0
C578 C 0.33848 0.53071 0.81528 0.0
C579 C 0.34864 0.56627 0.82304 0.0
N580 N 0.3355 0.55147 0.80642 0.0
C581 C 0.3548 0.5243 0.84182 0.0
C582 C 0.36817 0.5393 0.85914 0.0
C583 C 0.31076 0.52445 0.70716 0.0
C584 C 0.28149 0.58759 0.60468 0.0
C585 C 0.27923 0.54491 0.6201 0.0
C586 C 0.28413 0.55202 0.57946 0.0
C587 C 0.28527 0.57352 0.57179 0.0
N588 N 0.27549 0.55882 0.65217 0.0
C589 C 0.2766 0.57991 0.6449 0.0
Co590 Co 0.43182 0.31105 0.75462 0.0
Co591 Co 0.44845 0.26596 0.70406 0.0
O592 O 0.42721 0.28707 0.71761 0.0
C593 C 0.41769 0.33419 0.67721 0.0
O594 O 0.43369 0.32684 0.65563 0.0
C595 C 0.41401 0.24273 0.74354 0.0
O596 O 0.41423 0.25739 0.77268 0.0
O597 O 0.45709 0.26315 0.76458 0.0
O598 O 0.4484 0.29374 0.79489 0.0
H599 H 0.52002 0.23298 0.70807 0.0
H600 H 0.38857 0.29978 0.72869 0.0
O601 O 0.41487 0.32899 0.7157 0.0
H602 H 0.38859 0.29598 0.88463 0.0
H603 H 0.41038 0.37747 0.82931 0.0
H604 H 0.46829 0.32798 0.8018 0.0
H605 H 0.42054 0.30635 0.84591 0.0
H606 H 0.40479 0.34631 0.78449 0.0
O607 O 0.42704 0.24336 0.71296 0.0
H608 H 0.49334 0.25973 0.72517 0.0
H609 H 0.44784 0.22656 0.65338 0.0
H610 H 0.47451 0.35883 0.84722 0.0
H611 H 0.35621 0.28954 0.76617 0.0
H612 H 0.44543 0.38384 0.86119 0.0
H613 H 0.35612 0.2875 0.8447 0.0
O614 O 0.45804 0.31844 0.72376 0.0
H615 H 0.39674 0.26991 0.58424 0.0
H616 H 0.47168 0.27131 0.62281 0.0
H617 H 0.46143 0.27528 0.54795 0.0
H618 H 0.42371 0.27454 0.52824 0.0
H619 H 0.40769 0.26618 0.65877 0.0
H620 H 0.47398 0.19935 0.63578 0.0
H621 H 0.51038 0.20253 0.66306 0.0
O622 O 0.46999 0.28831 0.69532 0.0
C623 C 0.45671 0.27559 0.79617 0.0
C624 C 0.50423 0.23146 0.69588 0.0
C625 C 0.47837 0.21257 0.65535 0.0
N626 N 0.46913 0.24477 0.69001 0.0
C627 C 0.48908 0.24658 0.70535 0.0
C628 C 0.46364 0.22799 0.6655 0.0
C629 C 0.4988 0.21436 0.67066 0.0
C630 C 0.38859 0.29914 0.76289 0.0
N631 N 0.40642 0.30372 0.78508 0.0
C632 C 0.37024 0.29325 0.78393 0.0
C633 C 0.37021 0.29208 0.82799 0.0
C634 C 0.38843 0.29681 0.85041 0.0
C635 C 0.4065 0.30262 0.8283 0.0
C636 C 0.42317 0.36666 0.82355 0.0
C637 C 0.45552 0.33871 0.80802 0.0
C638 C 0.42011 0.349 0.79812 0.0
N639 N 0.43616 0.33525 0.79081 0.0
C640 C 0.45915 0.35618 0.83364 0.0
C641 C 0.44283 0.37022 0.84143 0.0
C642 C 0.47173 0.30788 0.70327 0.0
C643 C 0.41322 0.27022 0.59241 0.0
C644 C 0.45524 0.27107 0.61451 0.0
C645 C 0.44953 0.27327 0.57205 0.0
C646 C 0.42836 0.27284 0.56102 0.0
N647 N 0.4403 0.26845 0.64511 0.0
C648 C 0.41952 0.26805 0.63454 0.0
Co649 Co 0.68653 0.43979 0.76259 0.0
Co650 Co 0.72984 0.44816 0.69964 0.0
O651 O 0.70841 0.42994 0.72426 0.0
C652 C 0.66197 0.41778 0.69635 0.0
O653 O 0.67217 0.42854 0.66748 0.0
C654 C 0.75384 0.41493 0.74232 0.0
O655 O 0.74189 0.41839 0.77542 0.0
O656 O 0.73702 0.45996 0.75635 0.0
O657 O 0.70627 0.45945 0.79104 0.0
H658 H 0.76792 0.51615 0.67628 0.0
H659 H 0.69468 0.39417 0.75504 0.0
O660 O 0.66611 0.42028 0.73545 0.0
H661 H 0.70735 0.41118 0.90518 0.0
H662 H 0.62401 0.4306 0.85826 0.0
H663 H 0.67306 0.4814 0.79455 0.0
H664 H 0.69595 0.43861 0.85518 0.0
H665 H 0.65236 0.41861 0.81091 0.0
O666 O 0.75122 0.42556 0.70856 0.0
H667 H 0.74068 0.49321 0.7069 0.0
H668 H 0.76543 0.44093 0.64018 0.0
H669 H 0.64504 0.49406 0.84199 0.0
H670 H 0.70586 0.36619 0.80409 0.0
H671 H 0.62027 0.46857 0.87421 0.0
H672 H 0.71236 0.37466 0.87971 0.0
O673 O 0.6785 0.46221 0.72221 0.0
H674 H 0.71424 0.38996 0.59715 0.0
H675 H 0.7211 0.4665 0.61447 0.0
H676 H 0.71145 0.45204 0.54475 0.0
H677 H 0.70799 0.41349 0.53575 0.0
H678 H 0.72369 0.40512 0.66642 0.0
H679 H 0.79306 0.46325 0.60914 0.0
H680 H 0.79435 0.50117 0.62702 0.0
O681 O 0.70874 0.47106 0.69015 0.0
C682 C 0.72546 0.46472 0.78783 0.0
C683 C 0.76748 0.49966 0.66814 0.0
C684 C 0.78161 0.46997 0.6305 0.0
N685 N 0.75139 0.46581 0.67506 0.0
C686 C 0.75206 0.48662 0.68528 0.0
C687 C 0.76597 0.4574 0.64825 0.0
C688 C 0.78232 0.49124 0.64054 0.0
C689 C 0.69724 0.39791 0.78801 0.0
N690 N 0.69457 0.41797 0.80225 0.0
C691 C 0.70367 0.38203 0.81559 0.0
C692 C 0.70734 0.3868 0.85801 0.0
C693 C 0.70455 0.40729 0.87231 0.0
C694 C 0.69813 0.42277 0.84382 0.0
C695 C 0.63473 0.44186 0.84449 0.0
C696 C 0.66243 0.47021 0.80868 0.0
C697 C 0.65079 0.43517 0.8176 0.0
N698 N 0.66445 0.44928 0.80027 0.0
C699 C 0.64655 0.47747 0.83541 0.0
C700 C 0.63265 0.46316 0.85344 0.0
C701 C 0.6893 0.47405 0.69803 0.0
C702 C 0.71573 0.40678 0.60066 0.0
C703 C 0.71954 0.44973 0.61086 0.0
C704 C 0.71413 0.44162 0.57127 0.0
C705 C 0.7122 0.41999 0.56623 0.0
N706 N 0.72299 0.43667 0.64447 0.0
C707 C 0.72115 0.41545 0.63977 0.0
Co708 Co 0.56821 0.30717 0.24569 0.0
Co709 Co 0.54971 0.26222 0.29417 0.0
O710 O 0.57148 0.28315 0.28322 0.0
C711 C 0.57935 0.33237 0.32292 0.0
O712 O 0.56152 0.3275 0.34121 0.0
C713 C 0.58501 0.23884 0.25815 0.0
O714 O 0.58573 0.25368 0.22943 0.0
O715 O 0.54256 0.25971 0.23279 0.0
O716 O 0.55281 0.29002 0.20338 0.0
H717 H 0.47799 0.23011 0.28229 0.0
H718 H 0.61048 0.29555 0.27712 0.0
O719 O 0.58412 0.32499 0.28672 0.0
H720 H 0.61538 0.29188 0.12148 0.0
H721 H 0.59242 0.37333 0.17354 0.0
H722 H 0.53339 0.3244 0.19402 0.0
H723 H 0.58234 0.30244 0.15604 0.0
H724 H 0.59637 0.3422 0.21922 0.0
O725 O 0.57111 0.23939 0.28715 0.0
H726 H 0.50534 0.25661 0.26839 0.0
H727 H 0.54862 0.22262 0.3442 0.0
H728 H 0.52883 0.35523 0.14775 0.0
H729 H 0.64391 0.28513 0.24385 0.0
H730 H 0.55848 0.37996 0.13729 0.0
H731 H 0.64648 0.28315 0.16549 0.0
O732 O 0.54109 0.31468 0.273 0.0
H733 H 0.59829 0.26497 0.41935 0.0
H734 H 0.52448 0.26761 0.37293 0.0
H735 H 0.53282 0.2711 0.44885 0.0
H736 H 0.56996 0.26973 0.4725 0.0
H737 H 0.58925 0.26173 0.34369 0.0
H738 H 0.5218 0.19565 0.35864 0.0
H739 H 0.48616 0.19936 0.32771 0.0
O740 O 0.5282 0.28482 0.30096 0.0
C741 C 0.54412 0.27209 0.20123 0.0
C742 C 0.49343 0.22835 0.29606 0.0
C743 C 0.51804 0.20899 0.33886 0.0
N744 N 0.52848 0.24123 0.30574 0.0
C745 C 0.50896 0.24333 0.2884 0.0
C746 C 0.53317 0.22428 0.3305 0.0
C747 C 0.49804 0.21109 0.32151 0.0
C748 C 0.61154 0.29494 0.24298 0.0
N749 N 0.59449 0.29966 0.21855 0.0
C750 C 0.63049 0.28895 0.22433 0.0
C751 C 0.63191 0.28781 0.18037 0.0
C752 C 0.61446 0.29268 0.15566 0.0
C753 C 0.59577 0.2986 0.17541 0.0
C754 C 0.5794 0.36264 0.17778 0.0
C755 C 0.54641 0.33501 0.18939 0.0
C756 C 0.58152 0.34501 0.20368 0.0
N757 N 0.56517 0.3314 0.20903 0.0
C758 C 0.54372 0.35247 0.16326 0.0
C759 C 0.56035 0.36635 0.15744 0.0
C760 C 0.52682 0.30436 0.29233 0.0
C761 C 0.58205 0.26555 0.40944 0.0
C762 C 0.54068 0.2671 0.38295 0.0
C763 C 0.54531 0.26903 0.42599 0.0
C764 C 0.56614 0.26824 0.43925 0.0
N765 N 0.55636 0.2644 0.35393 0.0
C766 C 0.57683 0.26366 0.36666 0.0
Co767 Co 0.68742 0.55986 0.23206 0.0
Co768 Co 0.73076 0.54473 0.28966 0.0
O769 O 0.71071 0.56583 0.27015 0.0
C770 C 0.66358 0.57992 0.30272 0.0
O771 O 0.66974 0.56507 0.32871 0.0
C772 C 0.75639 0.57713 0.24925 0.0
O773 O 0.74289 0.57623 0.21796 0.0
O774 O 0.73554 0.53444 0.23087 0.0
O775 O 0.70471 0.53985 0.19832 0.0
H776 H 0.76231 0.47265 0.29923 0.0
H777 H 0.69998 0.60402 0.24704 0.0
O778 O 0.66954 0.58007 0.26426 0.0
H779 H 0.70811 0.59295 0.09339 0.0
H780 H 0.62432 0.57917 0.14441 0.0
H781 H 0.66941 0.52133 0.19415 0.0
H782 H 0.69523 0.56444 0.13928 0.0
H783 H 0.65458 0.58626 0.19092 0.0
O784 O 0.7541 0.56538 0.28157 0.0
H785 H 0.73687 0.49922 0.27481 0.0
H786 H 0.76816 0.54619 0.34617 0.0
H787 H 0.63941 0.51355 0.14741 0.0
H788 H 0.71269 0.63303 0.2022 0.0
H789 H 0.61662 0.5426 0.12222 0.0
H790 H 0.71692 0.62755 0.12482 0.0
O791 O 0.67803 0.53643 0.26886 0.0
H792 H 0.72357 0.59998 0.40213 0.0
H793 H 0.72179 0.52407 0.37247 0.0
H794 H 0.71528 0.53664 0.44514 0.0
H795 H 0.71619 0.57485 0.46036 0.0
H796 H 0.72983 0.58673 0.32983 0.0
H797 H 0.79406 0.52018 0.37106 0.0
H798 H 0.79115 0.4831 0.3477 0.0
O799 O 0.70771 0.52376 0.29776 0.0
C800 C 0.72325 0.53241 0.19933 0.0
C801 C 0.7637 0.48875 0.30973 0.0
C802 C 0.78153 0.51543 0.35001 0.0
N803 N 0.75094 0.52417 0.30934 0.0
C804 C 0.74931 0.50384 0.29612 0.0
C805 C 0.76686 0.5301 0.33574 0.0
C806 C 0.77989 0.49463 0.3369 0.0
C807 C 0.70154 0.6016 0.21331 0.0
N808 N 0.69678 0.58259 0.1958 0.0
C809 C 0.70884 0.61805 0.18811 0.0
C810 C 0.71124 0.61495 0.14471 0.0
C811 C 0.70632 0.59554 0.12706 0.0
C812 C 0.69908 0.57943 0.15324 0.0
C813 C 0.63417 0.56639 0.15507 0.0
C814 C 0.65966 0.53407 0.18305 0.0
C815 C 0.65131 0.5703 0.18146 0.0
N816 N 0.66387 0.55424 0.19487 0.0
C817 C 0.64265 0.52956 0.15671 0.0
C818 C 0.62986 0.54586 0.14263 0.0
C819 C 0.688 0.52282 0.29065 0.0
C820 C 0.72318 0.5833 0.39592 0.0
C821 C 0.72215 0.54073 0.37882 0.0
C822 C 0.7185 0.54775 0.42005 0.0
C823 C 0.71902 0.56919 0.42857 0.0
N824 N 0.72628 0.55466 0.34699 0.0
C825 C 0.72678 0.5757 0.35508 0.0
Co826 Co 0.43129 0.68742 0.23259 0.0
Co827 Co 0.44671 0.73196 0.28715 0.0
O828 O 0.4262 0.71008 0.27299 0.0
C829 C 0.4176 0.66522 0.31123 0.0
O830 O 0.42616 0.67978 0.33494 0.0
C831 C 0.41036 0.75455 0.25286 0.0
O832 O 0.40986 0.74013 0.22325 0.0
O833 O 0.45417 0.73665 0.22646 0.0
O834 O 0.44488 0.70721 0.19256 0.0
H835 H 0.51654 0.76835 0.28125 0.0
H836 H 0.38845 0.6943 0.266 0.0
O837 O 0.41787 0.66655 0.27105 0.0
H838 H 0.38228 0.70275 0.11131 0.0
H839 H 0.41268 0.62214 0.15103 0.0
H840 H 0.46739 0.67501 0.17907 0.0
H841 H 0.41629 0.69381 0.14387 0.0
H842 H 0.40615 0.65113 0.20103 0.0
O843 O 0.42427 0.75383 0.28178 0.0
H844 H 0.49083 0.74083 0.26341 0.0
H845 H 0.44526 0.77 0.34189 0.0
H846 H 0.47452 0.64637 0.12854 0.0
H847 H 0.35407 0.70306 0.23475 0.0
H848 H 0.44704 0.61968 0.11426 0.0
H849 H 0.35086 0.70743 0.15687 0.0
O850 O 0.45877 0.68108 0.25933 0.0
H851 H 0.39732 0.72393 0.41012 0.0
H852 H 0.47154 0.72522 0.36604 0.0
H853 H 0.46274 0.7193 0.44114 0.0
H854 H 0.4254 0.71868 0.46361 0.0
H855 H 0.40682 0.72959 0.33526 0.0
H856 H 0.47042 0.79795 0.36031 0.0
H857 H 0.50638 0.79718 0.33003 0.0
O858 O 0.46943 0.71048 0.29232 0.0
C859 C 0.45284 0.72551 0.19307 0.0
C860 C 0.50095 0.76882 0.29476 0.0
C861 C 0.47505 0.78545 0.33909 0.0
N862 N 0.46664 0.75372 0.30187 0.0
C863 C 0.48635 0.75325 0.28488 0.0
C864 C 0.46086 0.76961 0.32848 0.0
C865 C 0.49522 0.785 0.3221 0.0
C866 C 0.38712 0.69596 0.23205 0.0
N867 N 0.40434 0.69348 0.20679 0.0
C868 C 0.36764 0.70101 0.21455 0.0
C869 C 0.36585 0.70349 0.17086 0.0
C870 C 0.38348 0.70088 0.14528 0.0
C871 C 0.40272 0.69588 0.16391 0.0
C872 C 0.42476 0.63371 0.1569 0.0
C873 C 0.45531 0.66353 0.17278 0.0
C874 C 0.42116 0.65014 0.18523 0.0
N875 N 0.43632 0.66485 0.19266 0.0
C876 C 0.45946 0.64732 0.14424 0.0
C877 C 0.44404 0.63234 0.13628 0.0
C878 C 0.47209 0.69143 0.28105 0.0
C879 C 0.41365 0.72423 0.40073 0.0
C880 C 0.45525 0.72487 0.37553 0.0
C881 C 0.45036 0.72158 0.41812 0.0
C882 C 0.42941 0.72125 0.43072 0.0
N883 N 0.4397 0.72781 0.34632 0.0
C884 C 0.41912 0.72751 0.35842 0.0
Co885 Co 0.31413 0.44551 0.23432 0.0
Co886 Co 0.27076 0.45299 0.29743 0.0
O887 O 0.29242 0.43506 0.27246 0.0
C888 C 0.3391 0.42233 0.29867 0.0
O889 O 0.32887 0.43226 0.32871 0.0
C890 C 0.24751 0.41919 0.25518 0.0
O891 O 0.25986 0.42234 0.22255 0.0
O892 O 0.26325 0.46464 0.24083 0.0
O893 O 0.2942 0.46545 0.20709 0.0
H894 H 0.23177 0.52046 0.32121 0.0
H895 H 0.30656 0.3997 0.23916 0.0
O896 O 0.3348 0.42574 0.25993 0.0
H897 H 0.29298 0.41887 0.09038 0.0
H898 H 0.37632 0.43813 0.13709 0.0
H899 H 0.32732 0.48767 0.20499 0.0
H900 H 0.3043 0.44564 0.14182 0.0
H901 H 0.34819 0.42526 0.184 0.0
O902 O 0.2496 0.43018 0.2886 0.0
H903 H 0.25925 0.49789 0.2903 0.0
H904 H 0.23542 0.44528 0.35725 0.0
H905 H 0.35512 0.50121 0.15806 0.0
H906 H 0.29556 0.37236 0.18857 0.0
H907 H 0.37986 0.47636 0.12373 0.0
H908 H 0.28859 0.38191 0.11364 0.0
O909 O 0.3221 0.46732 0.27598 0.0
H910 H 0.28741 0.39495 0.39969 0.0
H911 H 0.27953 0.47142 0.3825 0.0
H912 H 0.2896 0.45705 0.45208 0.0
H913 H 0.29357 0.41854 0.46102 0.0
H914 H 0.27754 0.41003 0.33055 0.0
H915 H 0.20755 0.46721 0.38858 0.0
H916 H 0.20567 0.50511 0.37072 0.0
O917 O 0.29155 0.47619 0.3068 0.0
C918 C 0.2748 0.47003 0.20978 0.0
C919 C 0.23247 0.50398 0.32934 0.0
C920 C 0.21886 0.47409 0.36711 0.0
N921 N 0.24903 0.47035 0.32225 0.0
C922 C 0.24803 0.49115 0.31204 0.0
C923 C 0.23464 0.46174 0.3492 0.0
C924 C 0.21781 0.49536 0.35709 0.0
C925 C 0.30383 0.40392 0.20648 0.0
N926 N 0.30615 0.42423 0.19347 0.0
C927 C 0.2975 0.38839 0.17803 0.0
C928 C 0.29354 0.39377 0.136 0.0
C929 C 0.29599 0.41451 0.12294 0.0
C930 C 0.30234 0.42962 0.15227 0.0
C931 C 0.36561 0.44911 0.1518 0.0
C932 C 0.33795 0.47675 0.18996 0.0
C933 C 0.34968 0.44192 0.17845 0.0
N934 N 0.33603 0.45569 0.19696 0.0
C935 C 0.35369 0.48452 0.16351 0.0
C936 C 0.36758 0.47057 0.1443 0.0
C937 C 0.31108 0.47915 0.29978 0.0
C938 C 0.28568 0.41176 0.39621 0.0
C939 C 0.2813 0.45466 0.38608 0.0
C940 C 0.28695 0.44661 0.42559 0.0
C941 C 0.28916 0.425 0.4306 0.0
N942 N 0.2779 0.44157 0.35251 0.0
C943 C 0.28003 0.42037 0.35718 0.0
H944 H 0.12086 0.15958 0.19838 0.0
H945 H 0.14056 0.12707 0.18976 0.0
H946 H 0.08836 0.09958 0.12301 0.0
H947 H 0.06855 0.13229 0.13105 0.0
H948 H 0.12351 0.09154 0.22826 0.0
H949 H 0.14038 0.07709 0.05803 0.0
H950 H 0.13478 0.10293 0.07876 0.0
H951 H 0.11386 0.08456 0.07043 0.0
C952 C 0.1138 0.14686 0.18066 0.0
C953 C 0.09307 0.14839 0.16579 0.0
C954 C 0.12509 0.1283 0.17575 0.0
C955 C 0.11591 0.11092 0.15586 0.0
C956 C 0.09584 0.11291 0.13796 0.0
H957 H 0.14423 0.98228 0.22408 0.0
H958 H 0.12666 0.01507 0.20543 0.0
C959 C 0.08452 0.1316 0.14264 0.0
C960 C 0.1259 0.09008 0.1603 0.0
H961 H 0.14702 0.04893 0.10568 0.0
C962 C 0.12871 0.08225 0.20144 0.0
C963 C 0.13264 0.07806 0.12526 0.0
C964 C 0.13046 0.08608 0.08057 0.0
C965 C 0.13806 0.06271 0.2086 0.0
C966 C 0.14448 0.05048 0.17361 0.0
C967 C 0.14186 0.05831 0.13237 0.0
C968 C 0.15449 0.02978 0.17987 0.0
C969 C 0.14131 0.05546 0.25364 0.0
C970 C 0.17579 0.02703 0.17043 0.0
C971 C 0.18593 0.00831 0.18104 0.0
C972 C 0.17489 0.99199 0.20123 0.0
C973 C 0.15329 0.99455 0.20896 0.0
C974 C 0.14319 0.01326 0.19829 0.0
H975 H 0.13969 0.06853 0.27666 0.0
H976 H 0.12939 0.04339 0.26152 0.0
H977 H 0.15707 0.04828 0.25756 0.0
H978 H 0.18475 0.03964 0.15622 0.0
H979 H 0.20253 0.00688 0.17435 0.0
H980 H 0.99568 0.21192 0.15867 0.0
H981 H 0.9624 0.19491 0.14129 0.0
H982 H 0.98079 0.14062 0.21389 0.0
H983 H 0.0143 0.15709 0.23017 0.0
H984 H 0.9613 0.12959 0.1409 0.0
H985 H 0.91497 0.19063 0.22535 0.0
H986 H 0.93094 0.2 0.18251 0.0
H987 H 0.94315 0.1892 0.22896 0.0
C988 C 0.99273 0.19629 0.17069 0.0
C989 C 0.00763 0.18596 0.19615 0.0
C990 C 0.97363 0.18664 0.16087 0.0
C991 C 0.96894 0.16666 0.17695 0.0
C992 C 0.98405 0.15607 0.20118 0.0
H993 H 0.8622 0.10479 0.26095 0.0
H994 H 0.89229 0.12663 0.24482 0.0
C995 C 0.00321 0.16557 0.21059 0.0
C996 C 0.94803 0.15693 0.17055 0.0
H997 H 0.89644 0.16207 0.19763 0.0
C998 C 0.94704 0.13677 0.15277 0.0
C999 C 0.92947 0.16637 0.18616 0.0
C1000 C 0.92959 0.18766 0.20713 0.0
C1001 C 0.92822 0.12531 0.15223 0.0
C1002 C 0.90981 0.13451 0.16905 0.0
C1003 C 0.91057 0.15512 0.18458 0.0
C1004 C 0.89057 0.12205 0.17702 0.0
C1005 C 0.92852 0.10301 0.1362 0.0
C1006 C 0.87929 0.11241 0.14412 0.0
C1007 C 0.86199 0.0996 0.15333 0.0
C1008 C 0.85569 0.09641 0.19554 0.0
C1009 C 0.86663 0.10674 0.22808 0.0
C1010 C 0.88386 0.11935 0.21892 0.0
H1011 H 0.94474 0.09718 0.13092 0.0
H1012 H 0.92056 0.09239 0.15895 0.0
H1013 H 0.91997 0.10218 0.10566 0.0
H1014 H 0.88397 0.11462 0.11147 0.0
H1015 H 0.85379 0.09198 0.12753 0.0
H1016 H 0.79528 0.98994 0.16912 0.0
H1017 H 0.81294 0.95743 0.14873 0.0
H1018 H 0.87241 0.98368 0.18625 0.0
H1019 H 0.85495 0.0161 0.20754 0.0
H1020 H 0.84784 0.94641 0.09404 0.0
H1021 H 0.86374 0.9328 0.26505 0.0
H1022 H 0.84573 0.95266 0.24682 0.0
H1023 H 0.87354 0.95716 0.24448 0.0
C1024 C 0.81216 0.98894 0.17256 0.0
C1025 C 0.82364 0.0055 0.19078 0.0
C1026 C 0.82222 0.97037 0.16066 0.0
C1027 C 0.8439 0.96809 0.1666 0.0
C1028 C 0.8556 0.98507 0.18203 0.0
H1029 H 0.92553 0.8608 0.12197 0.0
H1030 H 0.90719 0.89419 0.11043 0.0
C1031 C 0.84557 0.00357 0.19424 0.0
C1032 C 0.85386 0.94731 0.16113 0.0
H1033 H 0.87718 0.90798 0.21713 0.0
C1034 C 0.85434 0.93798 0.12082 0.0
C1035 C 0.86205 0.9363 0.19632 0.0
C1036 C 0.86113 0.9451 0.24069 0.0
C1037 C 0.86295 0.91786 0.11486 0.0
C1038 C 0.87123 0.90701 0.15008 0.0
C1039 C 0.8708 0.91641 0.1902 0.0
C1040 C 0.87988 0.88554 0.1472 0.0
C1041 C 0.86276 0.90811 0.07141 0.0
C1042 C 0.87025 0.86946 0.17037 0.0
C1043 C 0.8807 0.85058 0.17727 0.0
C1044 C 0.90098 0.84743 0.16105 0.0
C1045 C 0.90985 0.86278 0.1346 0.0
C1046 C 0.89939 0.88184 0.12795 0.0
H1047 H 0.85307 0.91725 0.04871 0.0
H1048 H 0.87904 0.90732 0.05907 0.0
H1049 H 0.85664 0.89182 0.07305 0.0
H1050 H 0.85521 0.87205 0.18552 0.0
H1051 H 0.87344 0.83895 0.19757 0.0
H1052 H 0.97351 0.84901 0.21276 0.0
H1053 H 0.00492 0.86913 0.19531 0.0
H1054 H 0.03667 0.81219 0.15875 0.0
H1055 H 0.00523 0.79196 0.17514 0.0
H1056 H 0.04194 0.86523 0.23387 0.0
H1057 H 0.05276 0.85075 0.06242 0.0
H1058 H 0.02852 0.84494 0.08963 0.0
H1059 H 0.05023 0.82692 0.09219 0.0
C1060 C 0.98707 0.84076 0.20051 0.0
C1061 C 0.98684 0.81883 0.19554 0.0
C1062 C 0.005 0.85231 0.19041 0.0
C1063 C 0.02305 0.84222 0.17511 0.0
C1064 C 0.02277 0.8204 0.16943 0.0
H1065 H 0.14951 0.87893 0.21475 0.0
H1066 H 0.11653 0.86027 0.204 0.0
C1067 C 0.0048 0.80882 0.17926 0.0
C1068 C 0.04278 0.8542 0.16941 0.0
H1069 H 0.08278 0.86415 0.10007 0.0
C1070 C 0.05069 0.8652 0.2044 0.0
C1071 C 0.05415 0.8543 0.13086 0.0
C1072 C 0.04588 0.84377 0.09151 0.0
C1073 C 0.06998 0.87564 0.20244 0.0
C1074 C 0.08186 0.87479 0.16468 0.0
C1075 C 0.07369 0.86451 0.12909 0.0
C1076 C 0.10314 0.8839 0.16298 0.0
C1077 C 0.07767 0.8873 0.24105 0.0
C1078 C 0.10689 0.90279 0.14146 0.0
C1079 C 0.12588 0.91348 0.14731 0.0
C1080 C 0.14115 0.90541 0.17499 0.0
C1081 C 0.13794 0.88563 0.19356 0.0
C1082 C 0.11912 0.87495 0.18749 0.0
H1083 H 0.06477 0.8905 0.26382 0.0
H1084 H 0.0897 0.87769 0.25744 0.0
H1085 H 0.08503 0.90244 0.23195 0.0
H1086 H 0.09468 0.90988 0.12237 0.0
H1087 H 0.12792 0.92872 0.1327 0.0
H1088 H 0.08088 0.85629 0.88345 0.0
H1089 H 0.09984 0.88839 0.9034 0.0
H1090 H 0.13317 0.88671 0.78452 0.0
H1091 H 0.11515 0.85467 0.76528 0.0
H1092 H 0.15851 0.89818 0.84793 0.0
H1093 H 0.08455 0.94471 0.85263 0.0
H1094 H 0.08649 0.92312 0.889 0.0
H1095 H 0.08529 0.91816 0.83306 0.0
C1096 C 0.09252 0.86262 0.86199 0.0
C1097 C 0.09626 0.8531 0.82251 0.0
C1098 C 0.1032 0.88104 0.87324 0.0
C1099 C 0.11759 0.8902 0.84503 0.0
C1100 C 0.12208 0.88002 0.80676 0.0
H1101 H 0.1522 0.01075 0.76722 0.0
H1102 H 0.13555 0.97772 0.78702 0.0
C1103 C 0.11163 0.8617 0.7957 0.0
C1104 C 0.12737 0.91094 0.85307 0.0
H1105 H 0.11612 0.96329 0.85551 0.0
C1106 C 0.1493 0.91245 0.85034 0.0
C1107 C 0.11525 0.92949 0.8559 0.0
C1108 C 0.09159 0.92895 0.85754 0.0
C1109 C 0.15937 0.93195 0.84728 0.0
C1110 C 0.1472 0.95053 0.84872 0.0
C1111 C 0.12539 0.94903 0.85435 0.0
C1112 C 0.15642 0.97144 0.83966 0.0
C1113 C 0.18275 0.93231 0.83941 0.0
C1114 C 0.17338 0.97921 0.86324 0.0
C1115 C 0.18324 0.99788 0.85135 0.0
C1116 C 0.17594 0.00944 0.81637 0.0
C1117 C 0.15824 0.00222 0.79427 0.0
C1118 C 0.14866 0.98335 0.80565 0.0
H1119 H 0.18878 0.91674 0.82928 0.0
H1120 H 0.18685 0.94398 0.81468 0.0
H1121 H 0.19096 0.93668 0.86909 0.0
H1122 H 0.17925 0.97064 0.89037 0.0
H1123 H 0.19665 0.00317 0.86943 0.0
H1124 H 0.13155 0.07168 0.8862 0.0
H1125 H 0.09823 0.09009 0.89903 0.0
H1126 H 0.11754 0.13959 0.81465 0.0
H1127 H 0.15058 0.12139 0.80145 0.0
H1128 H 0.08679 0.13935 0.91769 0.0
H1129 H 0.06462 0.10374 0.76317 0.0
H1130 H 0.08489 0.09286 0.79655 0.0
H1131 H 0.09004 0.11593 0.76575 0.0
C1132 C 0.12896 0.08683 0.87157 0.0
C1133 C 0.14349 0.095 0.84242 0.0
C1134 C 0.10995 0.09729 0.8789 0.0
C1135 C 0.10549 0.11606 0.85748 0.0
C1136 C 0.12076 0.12509 0.83137 0.0
H1137 H 0.00791 0.20701 0.83119 0.0
H1138 H 0.03911 0.18749 0.85272 0.0
C1139 C 0.13958 0.11464 0.8238 0.0
C1140 C 0.08399 0.12465 0.85665 0.0
H1141 H 0.04224 0.13002 0.79023 0.0
C1142 C 0.07685 0.13715 0.89019 0.0
C1143 C 0.07107 0.12148 0.82089 0.0
C1144 C 0.07789 0.10766 0.78456 0.0
C1145 C 0.05724 0.14727 0.88809 0.0
C1146 C 0.04481 0.14502 0.85118 0.0
C1147 C 0.05174 0.13181 0.81849 0.0
C1148 C 0.02505 0.15686 0.84429 0.0
C1149 C 0.05009 0.16025 0.92529 0.0
C1150 C 0.00677 0.14619 0.83211 0.0
C1151 C 0.98906 0.15729 0.81893 0.0
C1152 C 0.98922 0.17934 0.81778 0.0
C1153 C 0.00723 0.19004 0.8318 0.0
C1154 C 0.02504 0.17889 0.84455 0.0
H1155 H 0.0575 0.15482 0.95519 0.0
H1156 H 0.0548 0.17681 0.9202 0.0
H1157 H 0.03278 0.15968 0.92901 0.0
H1158 H 0.00643 0.1292 0.8315 0.0
H1159 H 0.9754 0.14854 0.80869 0.0
H1160 H 0.90621 0.15227 0.88665 0.0
H1161 H 0.88476 0.12168 0.90573 0.0
H1162 H 0.86587 0.11508 0.77525 0.0
H1163 H 0.88647 0.14562 0.75631 0.0
H1164 H 0.83347 0.10821 0.82936 0.0
H1165 H 0.90397 0.06243 0.87802 0.0
H1166 H 0.89882 0.08638 0.90619 0.0
H1167 H 0.90609 0.08733 0.85128 0.0
C1168 C 0.89724 0.14444 0.86222 0.0
C1169 C 0.89829 0.15122 0.81987 0.0
C1170 C 0.88511 0.12689 0.87312 0.0
C1171 C 0.87403 0.11587 0.84176 0.0
C1172 C 0.87432 0.12329 0.79998 0.0
H1173 H 0.84617 0.99416 0.77268 0.0
H1174 H 0.86056 0.02766 0.79525 0.0
C1175 C 0.88623 0.14076 0.78916 0.0
C1176 C 0.86303 0.09587 0.85075 0.0
H1177 H 0.8725 0.04407 0.87038 0.0
C1178 C 0.84184 0.09421 0.83916 0.0
C1179 C 0.87408 0.07767 0.86343 0.0
C1180 C 0.89702 0.07836 0.87523 0.0
C1181 C 0.83182 0.07466 0.8367 0.0
C1182 C 0.84317 0.05632 0.84746 0.0
C1183 C 0.86388 0.05817 0.86214 0.0
C1184 C 0.83499 0.03508 0.83782 0.0
C1185 C 0.80974 0.07374 0.81945 0.0
C1186 C 0.81603 0.02782 0.85501 0.0
C1187 C 0.80752 0.00871 0.84158 0.0
C1188 C 0.81804 0.99637 0.8113 0.0
C1189 C 0.83757 0.00323 0.79592 0.0
C1190 C 0.84589 0.02239 0.80892 0.0
H1191 H 0.80479 0.08887 0.80514 0.0
H1192 H 0.80832 0.06128 0.79506 0.0
H1193 H 0.79871 0.07003 0.84556 0.0
H1194 H 0.80759 0.03711 0.8781 0.0
H1195 H 0.79254 0.00383 0.8544 0.0
H1196 H 0.85443 0.91244 0.87274 0.0
H1197 H 0.88553 0.89092 0.88799 0.0
H1198 H 0.89227 0.87754 0.75481 0.0
H1199 H 0.86132 0.89837 0.73947 0.0
H1200 H 0.89762 0.8426 0.80472 0.0
H1201 H 0.94576 0.90964 0.86255 0.0
H1202 H 0.92138 0.90475 0.88943 0.0
H1203 H 0.92116 0.91345 0.83538 0.0
C1204 C 0.86249 0.90478 0.84681 0.0
C1205 C 0.85549 0.90729 0.80486 0.0
C1206 C 0.8803 0.8926 0.85555 0.0
C1207 C 0.89136 0.88288 0.82244 0.0
C1208 C 0.884 0.88492 0.78084 0.0
H1209 H 0.01441 0.84792 0.76157 0.0
H1210 H 0.98114 0.86463 0.77924 0.0
C1211 C 0.86629 0.89694 0.77213 0.0
C1212 C 0.91098 0.87096 0.82986 0.0
H1213 H 0.96286 0.87741 0.85335 0.0
C1214 C 0.91185 0.85005 0.81604 0.0
C1215 C 0.9295 0.88083 0.84439 0.0
C1216 C 0.92959 0.90344 0.85857 0.0
C1217 C 0.93092 0.83911 0.81402 0.0
C1218 C 0.94957 0.8492 0.8273 0.0
C1219 C 0.94853 0.86973 0.84329 0.0
C1220 C 0.97049 0.83962 0.82032 0.0
C1221 C 0.93107 0.81736 0.79508 0.0
C1222 C 0.9758 0.82022 0.83834 0.0
C1223 C 0.99474 0.81044 0.82784 0.0
C1224 C 0.00888 0.82008 0.79964 0.0
C1225 C 0.00391 0.83999 0.78328 0.0
C1226 C 0.9849 0.84962 0.79346 0.0
H1227 H 0.91617 0.81369 0.77842 0.0
H1228 H 0.94422 0.81557 0.77229 0.0
H1229 H 0.93319 0.80564 0.82069 0.0
H1230 H 0.96512 0.81244 0.85989 0.0
H1231 H 0.99813 0.79521 0.84137 0.0
H1232 H 0.61625 0.64204 0.73366 0.0
H1233 H 0.63613 0.6118 0.71045 0.0
H1234 H 0.60599 0.61449 0.58826 0.0
H1235 H 0.58534 0.64492 0.61191 0.0
H1236 H 0.60472 0.57563 0.62047 0.0
H1237 H 0.68576 0.60398 0.63466 0.0
H1238 H 0.67209 0.60989 0.68273 0.0
H1239 H 0.66365 0.62171 0.63366 0.0
C1240 C 0.61395 0.63648 0.7016 0.0
C1241 C 0.59909 0.64586 0.67469 0.0
C1242 C 0.62558 0.61926 0.68816 0.0
C1243 C 0.62292 0.61111 0.64729 0.0
C1244 C 0.60846 0.6207 0.61979 0.0
H1245 H 0.70421 0.50044 0.63619 0.0
H1246 H 0.68783 0.53254 0.60964 0.0
C1247 C 0.59671 0.63806 0.63332 0.0
C1248 C 0.6337 0.59127 0.636 0.0
H1249 H 0.68053 0.56652 0.65072 0.0
C1250 C 0.62142 0.57371 0.62586 0.0
C1251 C 0.65557 0.58874 0.64168 0.0
C1252 C 0.67001 0.60719 0.64827 0.0
C1253 C 0.63006 0.55345 0.62572 0.0
C1254 C 0.65135 0.5507 0.6373 0.0
C1255 C 0.66407 0.56847 0.64292 0.0
C1256 C 0.66008 0.52986 0.6488 0.0
C1257 C 0.61608 0.5352 0.61448 0.0
C1258 C 0.64996 0.51759 0.67957 0.0
C1259 C 0.65913 0.49914 0.69441 0.0
C1260 C 0.67891 0.49272 0.67953 0.0
C1261 C 0.68896 0.50488 0.64833 0.0
C1262 C 0.6796 0.52324 0.63306 0.0
H1263 H 0.60426 0.5399 0.59042 0.0
H1264 H 0.62523 0.52173 0.60199 0.0
H1265 H 0.6074 0.53008 0.64312 0.0
H1266 H 0.63528 0.52269 0.69344 0.0
H1267 H 0.651 0.49032 0.7187 0.0
H1268 H 0.50159 0.70166 0.65125 0.0
H1269 H 0.46833 0.68507 0.63243 0.0
H1270 H 0.48083 0.63516 0.72114 0.0
H1271 H 0.51442 0.65115 0.73899 0.0
H1272 H 0.4635 0.62039 0.64887 0.0
H1273 H 0.41768 0.68859 0.70824 0.0
H1274 H 0.43572 0.69441 0.66623 0.0
H1275 H 0.44551 0.6861 0.71692 0.0
C1276 C 0.49737 0.68704 0.66649 0.0
C1277 C 0.51064 0.67784 0.69693 0.0
C1278 C 0.47827 0.67765 0.65584 0.0
C1279 C 0.47188 0.65912 0.67602 0.0
C1280 C 0.48542 0.6495 0.70523 0.0
H1281 H 0.35819 0.60818 0.75366 0.0
H1282 H 0.38976 0.62795 0.7381 0.0
C1283 C 0.50462 0.65871 0.71549 0.0
C1284 C 0.45075 0.65008 0.66857 0.0
H1285 H 0.39858 0.65964 0.68373 0.0
C1286 C 0.44925 0.62901 0.65597 0.0
C1287 C 0.43221 0.6614 0.67799 0.0
C1288 C 0.43275 0.68381 0.69343 0.0
C1289 C 0.42984 0.61863 0.65457 0.0
C1290 C 0.41137 0.62981 0.66506 0.0
C1291 C 0.41276 0.65117 0.67544 0.0
C1292 C 0.39106 0.61901 0.67205 0.0
C1293 C 0.42943 0.59549 0.64452 0.0
C1294 C 0.38089 0.60777 0.63975 0.0
C1295 C 0.36274 0.59616 0.64869 0.0
C1296 C 0.35448 0.59577 0.69 0.0
C1297 C 0.36418 0.60792 0.72157 0.0
C1298 C 0.38225 0.61935 0.7127 0.0
H1299 H 0.4454 0.5885 0.6443 0.0
H1300 H 0.4197 0.58689 0.66796 0.0
H1301 H 0.42239 0.59312 0.61276 0.0
H1302 H 0.38719 0.60766 0.60791 0.0
H1303 H 0.35554 0.58707 0.62362 0.0
H1304 H 0.353 0.51921 0.69737 0.0
H1305 H 0.37148 0.48781 0.67374 0.0
H1306 H 0.3123 0.45653 0.65378 0.0
H1307 H 0.29364 0.48813 0.67613 0.0
H1308 H 0.37006 0.45191 0.71465 0.0
H1309 H 0.34388 0.43782 0.55004 0.0
H1310 H 0.33974 0.46254 0.57673 0.0
H1311 H 0.32224 0.44084 0.58584 0.0
C1312 C 0.34388 0.50578 0.68729 0.0
C1313 C 0.32183 0.50612 0.68899 0.0
C1314 C 0.35448 0.48786 0.67361 0.0
C1315 C 0.3433 0.46987 0.66152 0.0
C1316 C 0.32128 0.47037 0.66189 0.0
H1317 H 0.37782 0.34358 0.69991 0.0
H1318 H 0.35934 0.37648 0.68679 0.0
C1319 C 0.31062 0.4884 0.67511 0.0
C1320 C 0.35468 0.4499 0.65401 0.0
H1321 H 0.35944 0.40827 0.58632 0.0
C1322 C 0.36798 0.4426 0.68622 0.0
C1323 C 0.35201 0.43771 0.61689 0.0
C1324 C 0.33885 0.44523 0.58023 0.0
C1325 C 0.37807 0.42317 0.68306 0.0
C1326 C 0.37459 0.41055 0.64701 0.0
C1327 C 0.3619 0.41801 0.61402 0.0
C1328 C 0.38316 0.38907 0.64526 0.0
C1329 C 0.39202 0.41596 0.71889 0.0
C1330 C 0.40218 0.38496 0.62448 0.0
C1331 C 0.41279 0.36604 0.63175 0.0
C1332 C 0.40452 0.35126 0.66024 0.0
C1333 C 0.38462 0.35478 0.67805 0.0
C1334 C 0.374 0.37351 0.6705 0.0
H1335 H 0.39587 0.42893 0.74106 0.0
H1336 H 0.38391 0.40343 0.73699 0.0
H1337 H 0.40686 0.40928 0.70635 0.0
H1338 H 0.40949 0.39692 0.60509 0.0
H1339 H 0.42815 0.36376 0.61779 0.0
H1340 H 0.64023 0.39173 0.74846 0.0
H1341 H 0.60964 0.37069 0.73166 0.0
H1342 H 0.61333 0.39019 0.6011 0.0
H1343 H 0.6441 0.41186 0.6179 0.0
H1344 H 0.57378 0.3944 0.63365 0.0
H1345 H 0.60361 0.31537 0.67085 0.0
H1346 H 0.60875 0.33293 0.7139 0.0
H1347 H 0.62085 0.33752 0.66314 0.0
C1348 C 0.63478 0.39144 0.71598 0.0
C1349 C 0.64461 0.40355 0.68451 0.0
C1350 C 0.61734 0.3792 0.70636 0.0
C1351 C 0.60942 0.37855 0.66499 0.0
C1352 C 0.61934 0.39033 0.63317 0.0
H1353 H 0.50203 0.29319 0.64921 0.0
H1354 H 0.53474 0.3104 0.62901 0.0
C1355 C 0.63691 0.40266 0.6428 0.0
C1356 C 0.58977 0.36687 0.65659 0.0
H1357 H 0.56594 0.32028 0.67862 0.0
C1358 C 0.57213 0.37805 0.64252 0.0
C1359 C 0.58768 0.34542 0.66723 0.0
C1360 C 0.60632 0.33208 0.67915 0.0
C1361 C 0.55215 0.36879 0.64207 0.0
C1362 C 0.54974 0.34801 0.65709 0.0
C1363 C 0.56765 0.33635 0.66787 0.0
C1364 C 0.52884 0.3386 0.66526 0.0
C1365 C 0.5338 0.38154 0.62628 0.0
C1366 C 0.51456 0.34872 0.69228 0.0
C1367 C 0.49574 0.33902 0.7036 0.0
C1368 C 0.49095 0.31879 0.68874 0.0
C1369 C 0.50517 0.30877 0.66127 0.0
C1370 C 0.5239 0.31859 0.64962 0.0
H1371 H 0.5389 0.3931 0.60204 0.0
H1372 H 0.52143 0.37141 0.61237 0.0
H1373 H 0.52694 0.39045 0.65309 0.0
H1374 H 0.51828 0.36386 0.70588 0.0
H1375 H 0.48527 0.34715 0.72508 0.0
H1376 H 0.70337 0.4891 0.33484 0.0
H1377 H 0.68458 0.45712 0.35436 0.0
H1378 H 0.62733 0.48292 0.30367 0.0
H1379 H 0.64591 0.51489 0.28354 0.0
H1380 H 0.64608 0.44856 0.40387 0.0
H1381 H 0.64021 0.42932 0.23245 0.0
H1382 H 0.65773 0.44922 0.25237 0.0
H1383 H 0.63018 0.45461 0.24739 0.0
C1384 C 0.68673 0.48813 0.32825 0.0
C1385 C 0.67624 0.50447 0.30696 0.0
C1386 C 0.67601 0.46987 0.33968 0.0
C1387 C 0.65467 0.46763 0.33002 0.0
C1388 C 0.64388 0.48432 0.31099 0.0
H1389 H 0.56748 0.36535 0.37314 0.0
H1390 H 0.58715 0.39802 0.38323 0.0
C1391 C 0.65456 0.50257 0.29946 0.0
C1392 C 0.64423 0.44714 0.33585 0.0
H1393 H 0.62343 0.40641 0.28004 0.0
C1394 C 0.64108 0.43928 0.37692 0.0
C1395 C 0.63802 0.43505 0.30051 0.0
C1396 C 0.64182 0.44232 0.25564 0.0
C1397 C 0.63161 0.41962 0.3835 0.0
C1398 C 0.62517 0.40771 0.34809 0.0
C1399 C 0.62842 0.4156 0.30714 0.0
C1400 C 0.6152 0.38684 0.35186 0.0
C1401 C 0.62887 0.41153 0.428 0.0
C1402 C 0.62471 0.36957 0.33218 0.0
C1403 C 0.61349 0.35107 0.32605 0.0
C1404 C 0.59255 0.34949 0.33957 0.0
C1405 C 0.58364 0.3661 0.36266 0.0
C1406 C 0.59487 0.38476 0.3685 0.0
H1407 H 0.63839 0.42055 0.45115 0.0
H1408 H 0.61212 0.41289 0.4372 0.0
H1409 H 0.63332 0.39471 0.42994 0.0
H1410 H 0.64038 0.37087 0.31912 0.0
H1411 H 0.6208 0.33846 0.30838 0.0
H1412 H 0.50703 0.7088 0.31788 0.0
H1413 H 0.54074 0.6917 0.33158 0.0
H1414 H 0.51578 0.63313 0.28568 0.0
H1415 H 0.48221 0.65002 0.27114 0.0
H1416 H 0.55295 0.65598 0.38052 0.0
H1417 H 0.5663 0.64466 0.20839 0.0
H1418 H 0.54608 0.66171 0.22876 0.0
H1419 H 0.54202 0.63381 0.22702 0.0
C1420 C 0.50864 0.69224 0.31093 0.0
C1421 C 0.49197 0.68087 0.29277 0.0
C1422 C 0.5279 0.6825 0.31895 0.0
C1423 C 0.53081 0.66126 0.309 0.0
C1424 C 0.51394 0.64964 0.29285 0.0
H1425 H 0.63216 0.57466 0.36083 0.0
H1426 H 0.60086 0.59669 0.36844 0.0
C1427 C 0.49475 0.65935 0.28459 0.0
C1428 C 0.55178 0.65148 0.31299 0.0
H1429 H 0.5899 0.62753 0.25481 0.0
C1430 C 0.56115 0.64985 0.3531 0.0
C1431 C 0.56254 0.64383 0.27703 0.0
C1432 C 0.55385 0.64624 0.23281 0.0
C1433 C 0.58086 0.64024 0.35828 0.0
C1434 C 0.59122 0.63187 0.32244 0.0
C1435 C 0.58194 0.6339 0.28233 0.0
C1436 C 0.6116 0.6207 0.32503 0.0
C1437 C 0.59049 0.63937 0.40184 0.0
C1438 C 0.6282 0.62704 0.2988 0.0
C1439 C 0.64582 0.61433 0.29385 0.0
C1440 C 0.64731 0.59511 0.31538 0.0
C1441 C 0.63148 0.5895 0.34418 0.0
C1442 C 0.61362 0.60212 0.34865 0.0
H1443 H 0.58383 0.6516 0.42298 0.0
H1444 H 0.58714 0.62384 0.41622 0.0
H1445 H 0.60778 0.6414 0.40036 0.0
H1446 H 0.62701 0.64133 0.28034 0.0
H1447 H 0.65786 0.61908 0.2716 0.0
H1448 H 0.39424 0.66218 0.38417 0.0
H1449 H 0.3746 0.63104 0.40855 0.0
H1450 H 0.40009 0.59521 0.30479 0.0
H1451 H 0.41906 0.62601 0.27993 0.0
H1452 H 0.34539 0.6078 0.34241 0.0
H1453 H 0.40596 0.55858 0.41996 0.0
H1454 H 0.40709 0.58695 0.41917 0.0
H1455 H 0.41452 0.57218 0.37311 0.0
C1456 C 0.39588 0.6475 0.36721 0.0
C1457 C 0.40801 0.64643 0.33012 0.0
C1458 C 0.38469 0.62982 0.38107 0.0
C1459 C 0.38611 0.61087 0.35858 0.0
C1460 C 0.399 0.60965 0.32277 0.0
H1461 H 0.35044 0.49408 0.28369 0.0
H1462 H 0.36635 0.52617 0.31009 0.0
C1463 C 0.40973 0.62727 0.30851 0.0
C1464 C 0.37262 0.59272 0.36854 0.0
H1465 H 0.37664 0.54042 0.38923 0.0
C1466 C 0.35186 0.59314 0.354 0.0
C1467 C 0.38129 0.57374 0.3834 0.0
C1468 C 0.40341 0.57276 0.40016 0.0
C1469 C 0.34017 0.57458 0.34996 0.0
C1470 C 0.34944 0.55525 0.36184 0.0
C1471 C 0.36958 0.55521 0.37996 0.0
C1472 C 0.34001 0.53487 0.34966 0.0
C1473 C 0.31879 0.57564 0.3295 0.0
C1474 C 0.32002 0.52883 0.36374 0.0
C1475 C 0.31068 0.51053 0.34817 0.0
C1476 C 0.32133 0.49779 0.31872 0.0
C1477 C 0.34172 0.50347 0.30621 0.0
C1478 C 0.35091 0.52182 0.32143 0.0
H1479 H 0.31547 0.59134 0.31577 0.0
H1480 H 0.31741 0.56375 0.30397 0.0
H1481 H 0.30657 0.57227 0.35358 0.0
H1482 H 0.3115 0.53845 0.38617 0.0
H1483 H 0.29502 0.50654 0.35876 0.0
H1484 H 0.35527 0.41196 0.37692 0.0
H1485 H 0.38564 0.38928 0.39142 0.0
H1486 H 0.39275 0.37785 0.25758 0.0
H1487 H 0.36252 0.3998 0.24296 0.0
H1488 H 0.39673 0.34202 0.3048 0.0
H1489 H 0.44658 0.4063 0.36906 0.0
H1490 H 0.42191 0.40175 0.39508 0.0
H1491 H 0.42226 0.4114 0.34168 0.0
C1492 C 0.36326 0.40448 0.35069 0.0
C1493 C 0.35656 0.40785 0.30878 0.0
C1494 C 0.38066 0.39164 0.359 0.0
C1495 C 0.39162 0.38212 0.3255 0.0
C1496 C 0.38456 0.38505 0.28391 0.0
H1497 H 0.51457 0.34383 0.26899 0.0
H1498 H 0.48152 0.36135 0.28509 0.0
C1499 C 0.36726 0.39772 0.27562 0.0
C1500 C 0.41079 0.36942 0.33258 0.0
H1501 H 0.4626 0.37359 0.35865 0.0
C1502 C 0.41108 0.34877 0.31722 0.0
C1503 C 0.42949 0.37838 0.34851 0.0
C1504 C 0.43024 0.40071 0.36431 0.0
C1505 C 0.42978 0.33719 0.31516 0.0
C1506 C 0.44862 0.34635 0.33 0.0
C1507 C 0.44812 0.36662 0.34739 0.0
C1508 C 0.46926 0.33608 0.32358 0.0
C1509 C 0.42937 0.31581 0.29462 0.0
C1510 C 0.47355 0.3162 0.34058 0.0
C1511 C 0.49236 0.30597 0.33094 0.0
C1512 C 0.50739 0.31559 0.30466 0.0
C1513 C 0.50338 0.3359 0.28921 0.0
C1514 C 0.48449 0.34599 0.29851 0.0
H1515 H 0.4146 0.31305 0.27679 0.0
H1516 H 0.44279 0.31388 0.27252 0.0
H1517 H 0.43061 0.30357 0.31945 0.0
H1518 H 0.46222 0.30846 0.36078 0.0
H1519 H 0.495 0.29044 0.34375 0.0
H1520 H 0.08622 0.29916 0.20834 0.0
H1521 H 0.11362 0.32603 0.20958 0.0
H1522 H 0.15393 0.28416 0.27979 0.0
H1523 H 0.1262 0.25777 0.28062 0.0
H1524 H 0.15613 0.32094 0.31246 0.0
H1525 H 0.16494 0.33015 0.13927 0.0
H1526 H 0.1386 0.33547 0.15593 0.0
H1527 H 0.14936 0.30951 0.16233 0.0
C1528 C 0.10097 0.29572 0.22393 0.0
C1529 C 0.10412 0.2764 0.24433 0.0
C1530 C 0.11669 0.311 0.2243 0.0
C1531 C 0.13607 0.30698 0.24392 0.0
C1532 C 0.13917 0.28764 0.26431 0.0
H1533 H 0.24692 0.38444 0.2049 0.0
H1534 H 0.22039 0.35673 0.20337 0.0
C1535 C 0.12331 0.27256 0.26477 0.0
C1536 C 0.15286 0.32312 0.24469 0.0
H1537 H 0.18119 0.35638 0.18219 0.0
C1538 C 0.16172 0.32856 0.28389 0.0
C1539 C 0.16047 0.33283 0.20739 0.0
C1540 C 0.15301 0.32652 0.16385 0.0
C1541 C 0.17773 0.34357 0.28695 0.0
C1542 C 0.18447 0.35415 0.24994 0.0
C1543 C 0.17583 0.3485 0.21065 0.0
C1544 C 0.20058 0.37096 0.25116 0.0
C1545 C 0.18757 0.34744 0.32972 0.0
C1546 C 0.19819 0.38832 0.27811 0.0
C1547 C 0.21356 0.40391 0.2797 0.0
C1548 C 0.23129 0.40275 0.2534 0.0
C1549 C 0.23339 0.38573 0.2255 0.0
C1550 C 0.21823 0.3699 0.22459 0.0
H1551 H 0.18583 0.3336 0.35081 0.0
H1552 H 0.20452 0.35117 0.32684 0.0
H1553 H 0.17954 0.36085 0.34522 0.0
H1554 H 0.18438 0.3899 0.29782 0.0
H1555 H 0.2114 0.41702 0.30107 0.0
H1556 H 0.74399 0.11703 0.2989 0.0
H1557 H 0.71546 0.14266 0.30048 0.0
H1558 H 0.68159 0.10648 0.20738 0.0
H1559 H 0.71058 0.08142 0.20408 0.0
H1560 H 0.6794 0.14554 0.18786 0.0
H1561 H 0.66033 0.139 0.35805 0.0
H1562 H 0.6872 0.14628 0.35044 0.0
H1563 H 0.67807 0.12112 0.33209 0.0
C1564 C 0.7304 0.11453 0.27893 0.0
C1565 C 0.72943 0.09723 0.25148 0.0
C1566 C 0.71402 0.12908 0.28012 0.0
C1567 C 0.6961 0.12625 0.25485 0.0
C1568 C 0.69518 0.10896 0.22735 0.0
H1569 H 0.58219 0.19998 0.29418 0.0
H1570 H 0.60831 0.17181 0.29164 0.0
C1571 C 0.71175 0.09465 0.22547 0.0
C1572 C 0.67871 0.14175 0.25566 0.0
H1573 H 0.64607 0.16877 0.32176 0.0
C1574 C 0.67198 0.15046 0.21714 0.0
C1575 C 0.66869 0.1479 0.29372 0.0
C1576 C 0.67379 0.1379 0.3358 0.0
C1577 C 0.65588 0.16544 0.21567 0.0
C1578 C 0.64684 0.1726 0.25399 0.0
C1579 C 0.6532 0.16353 0.29242 0.0
C1580 C 0.63089 0.18956 0.25498 0.0
C1581 C 0.64852 0.17307 0.17292 0.0
C1582 C 0.63498 0.20899 0.23574 0.0
C1583 C 0.61993 0.22489 0.23639 0.0
C1584 C 0.60074 0.22189 0.25738 0.0
C1585 C 0.59686 0.20269 0.27771 0.0
C1586 C 0.61177 0.18661 0.2763 0.0
H1587 H 0.65157 0.16122 0.14787 0.0
H1588 H 0.63149 0.17672 0.1731 0.0
H1589 H 0.65728 0.18748 0.16431 0.0
H1590 H 0.64989 0.21195 0.22044 0.0
H1591 H 0.62349 0.23967 0.22104 0.0
H1592 H 0.7591 0.61258 0.20161 0.0
H1593 H 0.78797 0.63768 0.19923 0.0
H1594 H 0.82275 0.59994 0.28843 0.0
H1595 H 0.7934 0.57529 0.29252 0.0
H1596 H 0.82547 0.63882 0.30979 0.0
H1597 H 0.84235 0.63433 0.13861 0.0
H1598 H 0.81551 0.64142 0.14739 0.0
H1599 H 0.82493 0.61614 0.16458 0.0
C1600 C 0.77296 0.60957 0.2205 0.0
C1601 C 0.77407 0.59196 0.24711 0.0
C1602 C 0.78955 0.62383 0.21883 0.0
C1603 C 0.8078 0.62044 0.24279 0.0
C1604 C 0.8089 0.60282 0.26942 0.0
H1605 H 0.91812 0.6996 0.2003 0.0
H1606 H 0.89395 0.66975 0.20307 0.0
C1607 C 0.79213 0.58876 0.27176 0.0
C1608 C 0.82521 0.63586 0.24181 0.0
H1609 H 0.85595 0.66459 0.17501 0.0
C1610 C 0.83232 0.64425 0.28032 0.0
C1611 C 0.83452 0.64265 0.20347 0.0
C1612 C 0.82909 0.63297 0.16127 0.0
C1613 C 0.84789 0.65975 0.28148 0.0
C1614 C 0.85599 0.66772 0.24295 0.0
C1615 C 0.84949 0.65877 0.20453 0.0
C1616 C 0.87081 0.68564 0.24175 0.0
C1617 C 0.85561 0.66721 0.32408 0.0
C1618 C 0.86569 0.70458 0.26193 0.0
C1619 C 0.87961 0.72144 0.26106 0.0
C1620 C 0.89867 0.71989 0.23895 0.0
C1621 C 0.90353 0.70118 0.21762 0.0
C1622 C 0.88975 0.68415 0.2192 0.0
H1623 H 0.85367 0.65487 0.34862 0.0
H1624 H 0.8724 0.67179 0.3229 0.0
H1625 H 0.84623 0.681 0.33414 0.0
H1626 H 0.85085 0.7064 0.27819 0.0
H1627 H 0.8753 0.7358 0.27722 0.0
H1628 H 0.25276 0.87754 0.29363 0.0
H1629 H 0.28078 0.85141 0.29379 0.0
H1630 H 0.31758 0.89053 0.21061 0.0
H1631 H 0.28917 0.91635 0.20885 0.0
H1632 H 0.3191 0.85157 0.18516 0.0
H1633 H 0.33475 0.8526 0.35731 0.0
H1634 H 0.30787 0.84643 0.34639 0.0
H1635 H 0.31815 0.87177 0.332 0.0
C1636 C 0.26688 0.88063 0.27557 0.0
C1637 C 0.26886 0.89903 0.25143 0.0
C1638 C 0.28295 0.86575 0.27594 0.0
C1639 C 0.30151 0.86923 0.25306 0.0
C1640 C 0.30346 0.88757 0.22873 0.0
H1641 H 0.41308 0.79255 0.29216 0.0
H1642 H 0.38748 0.82113 0.29034 0.0
C1643 C 0.28723 0.90231 0.22776 0.0
C1644 C 0.31857 0.8534 0.25327 0.0
H1645 H 0.34915 0.82368 0.31862 0.0
C1646 C 0.32581 0.84561 0.21434 0.0
C1647 C 0.32762 0.84589 0.2913 0.0
C1648 C 0.32186 0.85478 0.33405 0.0
C1649 C 0.34149 0.83019 0.2124 0.0
C1650 C 0.34959 0.82176 0.25051 0.0
C1651 C 0.34272 0.82991 0.2894 0.0
C1652 C 0.36522 0.80451 0.25086 0.0
C1653 C 0.34941 0.82343 0.16947 0.0
C1654 C 0.36113 0.78557 0.22973 0.0
C1655 C 0.37589 0.76938 0.2301 0.0
C1656 C 0.39478 0.77164 0.25255 0.0
C1657 C 0.39864 0.79038 0.2746 0.0
C1658 C 0.38403 0.80671 0.27357 0.0
H1659 H 0.34693 0.83587 0.14534 0.0
H1660 H 0.36638 0.81951 0.17042 0.0
H1661 H 0.34061 0.80934 0.15903 0.0
H1662 H 0.34645 0.78322 0.21319 0.0
H1663 H 0.37237 0.75498 0.21333 0.0
H1664 H 0.20856 0.58332 0.70355 0.0
H1665 H 0.18136 0.61038 0.70481 0.0
H1666 H 0.21813 0.64636 0.79365 0.0
H1667 H 0.24479 0.61878 0.79426 0.0
H1668 H 0.17939 0.64717 0.81667 0.0
H1669 H 0.18159 0.66504 0.64537 0.0
H1670 H 0.1754 0.63803 0.65478 0.0
H1671 H 0.20065 0.64819 0.67027 0.0
C1672 C 0.21082 0.59703 0.72327 0.0
C1673 C 0.22879 0.59902 0.74867 0.0
C1674 C 0.19536 0.61258 0.72371 0.0
C1675 C 0.19791 0.6307 0.7485 0.0
C1676 C 0.21583 0.63259 0.77411 0.0
H1677 H 0.12477 0.74414 0.7115 0.0
H1678 H 0.15183 0.71698 0.71271 0.0
C1679 C 0.23106 0.61683 0.77443 0.0
C1680 C 0.18172 0.64748 0.74861 0.0
H1681 H 0.1528 0.67927 0.68413 0.0
C1682 C 0.17369 0.6543 0.78768 0.0
C1683 C 0.17451 0.65706 0.71086 0.0
C1684 C 0.18366 0.65186 0.66803 0.0
C1685 C 0.15858 0.67026 0.79008 0.0
C1686 C 0.15057 0.67906 0.75221 0.0
C1687 C 0.15872 0.67236 0.71316 0.0
C1688 C 0.13411 0.69558 0.75222 0.0
C1689 C 0.1519 0.6779 0.83327 0.0
C1690 C 0.11503 0.69257 0.77368 0.0
C1691 C 0.09975 0.7083 0.77384 0.0
C1692 C 0.103 0.72703 0.75139 0.0
C1693 C 0.12183 0.72981 0.72898 0.0
C1694 C 0.13729 0.7143 0.72964 0.0
H1695 H 0.16413 0.67469 0.85751 0.0
H1696 H 0.1486 0.695 0.83311 0.0
H1697 H 0.13746 0.66948 0.84305 0.0
H1698 H 0.11188 0.67801 0.79012 0.0
H1699 H 0.08525 0.70566 0.79095 0.0
H1700 H 0.41523 0.20434 0.70532 0.0
H1701 H 0.38872 0.17665 0.70894 0.0
H1702 H 0.35012 0.21606 0.78822 0.0
H1703 H 0.37698 0.24334 0.78636 0.0
H1704 H 0.35048 0.17791 0.81789 0.0
H1705 H 0.33477 0.17386 0.64563 0.0
H1706 H 0.36175 0.1688 0.65799 0.0
H1707 H 0.35066 0.19423 0.66881 0.0
C1708 C 0.40106 0.20707 0.72345 0.0
C1709 C 0.39811 0.22599 0.74545 0.0
C1710 C 0.38586 0.19131 0.72524 0.0
C1711 C 0.36721 0.19444 0.74808 0.0
C1712 C 0.36435 0.2133 0.77028 0.0
H1713 H 0.25343 0.12202 0.71908 0.0
H1714 H 0.28129 0.14829 0.71698 0.0
C1715 C 0.3797 0.22889 0.76918 0.0
C1716 C 0.35079 0.17798 0.74968 0.0
H1717 H 0.31962 0.14702 0.68801 0.0
C1718 C 0.34366 0.17122 0.78948 0.0
C1719 C 0.34168 0.16947 0.71261 0.0
C1720 C 0.34744 0.17712 0.66888 0.0
C1721 C 0.32771 0.1562 0.79328 0.0
C1722 C 0.3192 0.14707 0.75622 0.0
C1723 C 0.32631 0.15385 0.71642 0.0
C1724 C 0.30241 0.13099 0.75784 0.0
C1725 C 0.31972 0.15083 0.83696 0.0
C1726 C 0.30508 0.11241 0.78114 0.0
C1727 C 0.289 0.09755 0.78306 0.0
C1728 C 0.27021 0.10078 0.76073 0.0
C1729 C 0.26778 0.1191 0.73652 0.0
C1730 C 0.28369 0.13411 0.73528 0.0
H1731 H 0.32311 0.16354 0.86001 0.0
H1732 H 0.30254 0.14796 0.83674 0.0
H1733 H 0.32769 0.13641 0.84834 0.0
H1734 H 0.31962 0.10934 0.79773 0.0
H1735 H 0.29137 0.08344 0.80156 0.0
H1736 H 0.88717 0.26569 0.69272 0.0
H1737 H 0.85987 0.29263 0.69128 0.0
H1738 H 0.8805 0.31542 0.81286 0.0
H1739 H 0.90799 0.28861 0.81457 0.0
H1740 H 0.82718 0.29891 0.75207 0.0
H1741 H 0.87936 0.36833 0.73633 0.0
H1742 H 0.88815 0.34196 0.72531 0.0
H1743 H 0.88564 0.35079 0.77906 0.0
C1744 C 0.88602 0.27651 0.71905 0.0
C1745 C 0.89984 0.2751 0.75366 0.0
C1746 C 0.87037 0.29184 0.71821 0.0
C1747 C 0.86835 0.30612 0.75173 0.0
C1748 C 0.88204 0.30473 0.78639 0.0
H1749 H 0.762 0.38733 0.80663 0.0
H1750 H 0.78963 0.36069 0.80935 0.0
C1751 C 0.89767 0.28936 0.78736 0.0
C1752 C 0.85162 0.32219 0.75075 0.0
H1753 H 0.84318 0.37503 0.74696 0.0
C1754 C 0.83064 0.31556 0.75095 0.0
C1755 C 0.85626 0.34385 0.7489 0.0
C1756 C 0.87856 0.35175 0.74702 0.0
C1757 C 0.8141 0.33009 0.74974 0.0
C1758 C 0.81874 0.35176 0.74871 0.0
C1759 C 0.83973 0.35838 0.74809 0.0
C1760 C 0.80201 0.36783 0.74722 0.0
C1761 C 0.79181 0.32215 0.74883 0.0
C1762 C 0.80009 0.38086 0.71167 0.0
C1763 C 0.78438 0.3961 0.71 0.0
C1764 C 0.77041 0.39871 0.74408 0.0
C1765 C 0.77249 0.38571 0.77983 0.0
C1766 C 0.78818 0.37041 0.78138 0.0
H1767 H 0.79102 0.30524 0.74051 0.0
H1768 H 0.78466 0.32422 0.78059 0.0
H1769 H 0.78227 0.33117 0.7257 0.0
H1770 H 0.81068 0.37912 0.68507 0.0
H1771 H 0.78325 0.40589 0.68205 0.0
H1772 H 0.71793 0.90479 0.81494 0.0
H1773 H 0.69169 0.87685 0.81319 0.0
H1774 H 0.71109 0.86032 0.68673 0.0
H1775 H 0.73755 0.88811 0.6882 0.0
H1776 H 0.6583 0.87198 0.7547 0.0
H1777 H 0.71319 0.80423 0.75245 0.0
H1778 H 0.72131 0.83034 0.76735 0.0
H1779 H 0.71786 0.82376 0.7125 0.0
C1780 C 0.7167 0.89517 0.78678 0.0
C1781 C 0.72986 0.89864 0.75171 0.0
C1782 C 0.70168 0.87925 0.78585 0.0
C1783 C 0.69964 0.86642 0.75004 0.0
C1784 C 0.71267 0.86986 0.71491 0.0
H1785 H 0.5949 0.78496 0.6874 0.0
H1786 H 0.62169 0.81242 0.6883 0.0
C1787 C 0.72768 0.88582 0.71575 0.0
C1788 C 0.68355 0.84972 0.74921 0.0
H1789 H 0.67708 0.79667 0.74297 0.0
C1790 C 0.66237 0.85551 0.75216 0.0
C1791 C 0.689 0.82827 0.74634 0.0
C1792 C 0.71157 0.82117 0.74484 0.0
C1793 C 0.6464 0.84038 0.75185 0.0
C1794 C 0.65182 0.81895 0.74802 0.0
C1795 C 0.67302 0.81314 0.74556 0.0
C1796 C 0.6357 0.80229 0.74725 0.0
C1797 C 0.62389 0.84738 0.75636 0.0
C1798 C 0.63501 0.78728 0.77968 0.0
C1799 C 0.61977 0.77155 0.77925 0.0
C1800 C 0.60504 0.77049 0.74619 0.0
C1801 C 0.60595 0.78542 0.71344 0.0
C1802 C 0.62117 0.80117 0.71398 0.0
H1803 H 0.62273 0.86367 0.76867 0.0
H1804 H 0.61617 0.84691 0.72488 0.0
H1805 H 0.61513 0.83677 0.77791 0.0
H1806 H 0.64618 0.78785 0.80551 0.0
H1807 H 0.6196 0.76021 0.8048 0.0
H1808 H 0.04183 0.20409 0.37207 0.0
H1809 H 0.02976 0.21458 0.44173 0.0
H1810 H 0.01781 0.27717 0.39598 0.0
H1811 H 0.02987 0.26675 0.32507 0.0
H1812 H 0.04675 0.2479 0.49313 0.0
H1813 H 0.96197 0.25849 0.45464 0.0
H1814 H 0.97922 0.24375 0.42042 0.0
H1815 H 0.98131 0.27176 0.42285 0.0
C1816 C 0.03663 0.22012 0.37642 0.0
C1817 C 0.03687 0.23458 0.34275 0.0
C1818 C 0.02977 0.22609 0.41646 0.0
C1819 C 0.02289 0.24662 0.424 0.0
C1820 C 0.02293 0.26119 0.39066 0.0
H1821 H 0.96619 0.26651 0.67733 0.0
H1822 H 0.98245 0.27761 0.61019 0.0
C1823 C 0.02985 0.25521 0.35024 0.0
C1824 C 0.01579 0.25218 0.4672 0.0
H1825 H 0.97127 0.25715 0.52645 0.0
C1826 C 0.03032 0.25049 0.50042 0.0
C1827 C 0.99438 0.25568 0.47656 0.0
C1828 C 0.97819 0.25748 0.44193 0.0
C1829 C 0.02378 0.25063 0.54279 0.0
C1830 C 0.00218 0.25234 0.55205 0.0
C1831 C 0.98784 0.25584 0.51908 0.0
C1832 C 0.99392 0.24667 0.59427 0.0
C1833 C 0.03985 0.24768 0.57731 0.0
C1834 C 0.9951 0.22569 0.6073 0.0
C1835 C 0.98573 0.21932 0.64499 0.0
C1836 C 0.97508 0.23383 0.67067 0.0
C1837 C 0.97447 0.25504 0.65832 0.0
C1838 C 0.98364 0.26137 0.62003 0.0
H1839 H 0.05573 0.25258 0.56669 0.0
H1840 H 0.03553 0.25674 0.60605 0.0
H1841 H 0.04057 0.23083 0.58603 0.0
H1842 H 0.00275 0.21407 0.58757 0.0
H1843 H 0.98652 0.2029 0.65363 0.0
H1844 H 0.78886 0.99659 0.65644 0.0
H1845 H 0.77639 0.00843 0.5875 0.0
H1846 H 0.7206 0.97084 0.60181 0.0
H1847 H 0.73302 0.95904 0.67167 0.0
H1848 H 0.74541 0.96221 0.52808 0.0
H1849 H 0.72928 0.0471 0.54272 0.0
H1850 H 0.75338 0.03968 0.56805 0.0
H1851 H 0.7289 0.02949 0.58763 0.0
C1852 C 0.77362 0.99136 0.64551 0.0
C1853 C 0.76186 0.97697 0.66933 0.0
C1854 C 0.76645 0.99822 0.60621 0.0
C1855 C 0.74747 0.99068 0.58974 0.0
C1856 C 0.73517 0.97701 0.61426 0.0
H1857 H 0.73533 0.03447 0.32593 0.0
H1858 H 0.72195 0.02177 0.39431 0.0
C1859 C 0.74221 0.97039 0.65414 0.0
C1860 C 0.74247 0.99485 0.54475 0.0
H1861 H 0.74095 0.03504 0.47353 0.0
C1862 C 0.74374 0.97807 0.5161 0.0
C1863 C 0.74013 0.0155 0.52916 0.0
C1864 C 0.73763 0.03396 0.55856 0.0
C1865 C 0.74478 0.98163 0.4723 0.0
C1866 C 0.7446 0.00245 0.457 0.0
C1867 C 0.74126 0.01907 0.48536 0.0
C1868 C 0.75129 0.00755 0.41332 0.0
C1869 C 0.74726 0.96317 0.44288 0.0
C1870 C 0.7721 0.00357 0.40139 0.0
C1871 C 0.7798 0.01095 0.36287 0.0
C1872 C 0.76679 0.02237 0.33533 0.0
C1873 C 0.74564 0.02552 0.34636 0.0
C1874 C 0.738 0.01836 0.38539 0.0
H1875 H 0.74066 0.94865 0.45703 0.0
H1876 H 0.73945 0.96616 0.41203 0.0
H1877 H 0.76421 0.96047 0.4369 0.0
H1878 H 0.78271 0.99558 0.42281 0.0
H1879 H 0.79617 0.0083 0.35528 0.0
H1880 H 0.02261 0.73675 0.68152 0.0
H1881 H 0.00732 0.72461 0.61428 0.0
H1882 H 0.02632 0.78227 0.55424 0.0
H1883 H 0.04129 0.79452 0.62015 0.0
H1884 H 0.97532 0.74573 0.56509 0.0
H1885 H 0.0486 0.73622 0.47373 0.0
H1886 H 0.04805 0.73637 0.53098 0.0
H1887 H 0.04805 0.76066 0.50187 0.0
C1888 C 0.02362 0.74676 0.65388 0.0
C1889 C 0.03337 0.76655 0.65631 0.0
C1890 C 0.01493 0.73978 0.61556 0.0
C1891 C 0.01616 0.75236 0.57915 0.0
C1892 C 0.0257 0.77209 0.58169 0.0
H1893 H 0.95 0.79185 0.3736 0.0
H1894 H 0.96391 0.78065 0.44142 0.0
C1895 C 0.03418 0.77911 0.61968 0.0
C1896 C 0.00646 0.74601 0.53859 0.0
H1897 H 0.01746 0.74519 0.43294 0.0
C1898 C 0.98452 0.74495 0.53623 0.0
C1899 C 0.01847 0.74461 0.50106 0.0
C1900 C 0.04212 0.74429 0.50203 0.0
C1901 C 0.97425 0.74468 0.49691 0.0
C1902 C 0.98628 0.74582 0.45931 0.0
C1903 C 0.00822 0.74465 0.46177 0.0
C1904 C 0.97666 0.75138 0.41811 0.0
C1905 C 0.9506 0.7442 0.49605 0.0
C1906 C 0.97971 0.73891 0.38199 0.0
C1907 C 0.9718 0.74535 0.34267 0.0
C1908 C 0.96095 0.76451 0.33882 0.0
C1909 C 0.95809 0.77693 0.3752 0.0
C1910 C 0.96588 0.77045 0.41426 0.0
H1911 H 0.94427 0.73583 0.52413 0.0
H1912 H 0.94454 0.76052 0.49693 0.0
H1913 H 0.94466 0.73648 0.46691 0.0
H1914 H 0.98828 0.72428 0.3842 0.0
H1915 H 0.97436 0.73544 0.31531 0.0
H1916 H 0.25605 0.019 0.6953 0.0
H1917 H 0.2674 0.00398 0.62728 0.0
H1918 H 0.21344 0.03126 0.56612 0.0
H1919 H 0.20192 0.04595 0.63292 0.0
H1920 H 0.24311 0.97588 0.57503 0.0
H1921 H 0.26305 0.04868 0.48914 0.0
H1922 H 0.2621 0.04725 0.5463 0.0
H1923 H 0.23838 0.05079 0.51619 0.0
C1924 C 0.2467 0.02191 0.66726 0.0
C1925 C 0.22812 0.03383 0.66967 0.0
C1926 C 0.25324 0.01337 0.62849 0.0
C1927 C 0.2415 0.01694 0.59158 0.0
C1928 C 0.22302 0.02877 0.59402 0.0
H1929 H 0.19689 0.9594 0.38048 0.0
H1930 H 0.20851 0.97212 0.4489 0.0
C1931 C 0.21639 0.03707 0.63249 0.0
C1932 C 0.24714 0.00717 0.55064 0.0
H1933 H 0.251 0.01948 0.4458 0.0
C1934 C 0.2455 0.98532 0.54686 0.0
C1935 C 0.25061 0.01945 0.51401 0.0
C1936 C 0.25387 0.04284 0.51662 0.0
C1937 C 0.24508 0.97569 0.50692 0.0
C1938 C 0.24607 0.9883 0.47009 0.0
C1939 C 0.24992 0.00986 0.47404 0.0
C1940 C 0.23987 0.98 0.42813 0.0
C1941 C 0.24244 0.95222 0.50446 0.0
C1942 C 0.25346 0.98085 0.39319 0.0
C1943 C 0.24682 0.97357 0.35348 0.0
C1944 C 0.22639 0.96558 0.34814 0.0
C1945 C 0.21279 0.9652 0.38325 0.0
C1946 C 0.21946 0.97234 0.42265 0.0
H1947 H 0.24913 0.9444 0.53286 0.0
H1948 H 0.22547 0.9484 0.5032 0.0
H1949 H 0.25008 0.94571 0.47571 0.0
H1950 H 0.26919 0.98703 0.3967 0.0
H1951 H 0.25767 0.97417 0.32712 0.0
H1952 H 0.52459 0.76189 0.81247 0.0
H1953 H 0.50915 0.77502 0.87882 0.0
H1954 H 0.52683 0.71766 0.94171 0.0
H1955 H 0.54195 0.70445 0.87667 0.0
H1956 H 0.47656 0.75545 0.9277 0.0
H1957 H 0.54911 0.76369 0.02156 0.0
H1958 H 0.54914 0.76299 0.96432 0.0
H1959 H 0.54838 0.73899 0.9944 0.0
C1960 C 0.52528 0.75216 0.84054 0.0
C1961 C 0.53469 0.73217 0.83917 0.0
C1962 C 0.51651 0.75971 0.87837 0.0
C1963 C 0.51734 0.7475 0.91535 0.0
C1964 C 0.52654 0.72757 0.91384 0.0
H1965 H 0.44975 0.70754 0.115 0.0
H1966 H 0.46369 0.7202 0.04841 0.0
C1967 C 0.53509 0.71999 0.87634 0.0
C1968 C 0.50743 0.7544 0.95537 0.0
H1969 H 0.51744 0.75498 0.06142 0.0
C1970 C 0.48551 0.75605 0.9569 0.0
C1971 C 0.51911 0.75564 0.99336 0.0
C1972 C 0.54277 0.75547 0.99331 0.0
C1973 C 0.47488 0.75654 0.99581 0.0
C1974 C 0.48651 0.75501 0.03387 0.0
C1975 C 0.50849 0.75579 0.03225 0.0
C1976 C 0.47645 0.7489 0.07434 0.0
C1977 C 0.45124 0.7575 0.99577 0.0
C1978 C 0.4794 0.7606 0.11154 0.0
C1979 C 0.47143 0.75331 0.15024 0.0
C1980 C 0.46068 0.73404 0.15233 0.0
C1981 C 0.45777 0.7225 0.11481 0.0
C1982 C 0.46558 0.72983 0.07641 0.0
H1983 H 0.44538 0.76638 0.96791 0.0
H1984 H 0.44486 0.74134 0.99368 0.0
H1985 H 0.44514 0.76495 0.02508 0.0
H1986 H 0.48805 0.77521 0.11071 0.0
H1987 H 0.47404 0.76254 0.17853 0.0
H1988 H 0.23414 0.53437 0.8263 0.0
H1989 H 0.22173 0.52263 0.89616 0.0
H1990 H 0.28382 0.50005 0.92554 0.0
H1991 H 0.29627 0.51164 0.85648 0.0
H1992 H 0.24809 0.47288 0.95127 0.0
H1993 H 0.24301 0.55624 0.00401 0.0
H1994 H 0.22977 0.54831 0.95622 0.0
H1995 H 0.25788 0.54888 0.95768 0.0
C1996 C 0.24498 0.52646 0.84733 0.0
C1997 C 0.26621 0.52406 0.83608 0.0
C1998 C 0.2379 0.51989 0.88722 0.0
C1999 C 0.25193 0.51067 0.91601 0.0
C2000 C 0.27276 0.50714 0.90374 0.0
H2001 H 0.29393 0.49672 0.15533 0.0
H2002 H 0.2813 0.50788 0.08607 0.0
C2003 C 0.27986 0.51383 0.86429 0.0
C2004 C 0.24593 0.50623 0.96035 0.0
H2005 H 0.24321 0.53035 0.05668 0.0
C2006 C 0.2463 0.48535 0.97434 0.0
C2007 C 0.24381 0.52263 0.99018 0.0
C2008 C 0.24363 0.54533 0.97662 0.0
C2009 C 0.24609 0.4805 0.01769 0.0
C2010 C 0.24541 0.49699 0.04762 0.0
C2011 C 0.24354 0.51778 0.03355 0.0
C2012 C 0.25087 0.49321 0.0925 0.0
C2013 C 0.24843 0.45792 0.03131 0.0
C2014 C 0.23759 0.48196 0.11972 0.0
C2015 C 0.24475 0.47566 0.15973 0.0
C2016 C 0.26535 0.48038 0.17258 0.0
C2017 C 0.27804 0.49277 0.14619 0.0
C2018 C 0.27082 0.4992 0.10665 0.0
H2019 H 0.25 0.44709 0.00394 0.0
H2020 H 0.26245 0.45614 0.05188 0.0
H2021 H 0.2345 0.45315 0.05005 0.0
H2022 H 0.22209 0.47729 0.10932 0.0
H2023 H 0.23471 0.466 0.17935 0.0
H2024 H 0.52185 0.23634 0.18131 0.0
H2025 H 0.50777 0.22643 0.11171 0.0
H2026 H 0.53335 0.28303 0.05774 0.0
H2027 H 0.54732 0.29303 0.1262 0.0
H2028 H 0.47905 0.2496 0.06302 0.0
H2029 H 0.55272 0.23795 0.97408 0.0
H2030 H 0.55171 0.23775 0.03128 0.0
H2031 H 0.553 0.26221 0.00283 0.0
C2032 C 0.52464 0.24656 0.1545 0.0
C2033 C 0.53584 0.26544 0.15944 0.0
C2034 C 0.51663 0.24084 0.1148 0.0
C2035 C 0.51995 0.25376 0.07942 0.0
C2036 C 0.53111 0.27253 0.08434 0.0
H2037 H 0.45702 0.29714 0.87078 0.0
H2038 H 0.47118 0.28609 0.93849 0.0
C2039 C 0.53897 0.2783 0.12377 0.0
C2040 C 0.51044 0.24893 0.03777 0.0
H2041 H 0.52235 0.2485 0.93242 0.0
C2042 C 0.4885 0.24876 0.0345 0.0
C2043 C 0.52276 0.24746 0.00061 0.0
C2044 C 0.54636 0.24612 0.00238 0.0
C2045 C 0.4786 0.24916 0.99483 0.0
C2046 C 0.491 0.25001 0.95772 0.0
C2047 C 0.51287 0.24816 0.96093 0.0
C2048 C 0.48183 0.25581 0.91628 0.0
C2049 C 0.45496 0.24966 0.99303 0.0
C2050 C 0.48364 0.24266 0.88083 0.0
C2051 C 0.4755 0.24895 0.84159 0.0
C2052 C 0.46568 0.26863 0.83718 0.0
C2053 C 0.46426 0.28181 0.87283 0.0
C2054 C 0.47224 0.27547 0.91181 0.0
H2055 H 0.44796 0.24198 0.02128 0.0
H2056 H 0.44959 0.26622 0.99257 0.0
H2057 H 0.44902 0.24177 0.96408 0.0
H2058 H 0.49128 0.22754 0.88359 0.0
H2059 H 0.47697 0.23846 0.81478 0.0
H2060 H 0.70701 0.49418 0.83692 0.0
H2061 H 0.71873 0.50642 0.90618 0.0
H2062 H 0.77568 0.47043 0.89336 0.0
H2063 H 0.76409 0.45832 0.82315 0.0
H2064 H 0.749 0.46143 0.96715 0.0
H2065 H 0.76613 0.5462 0.95044 0.0
H2066 H 0.74261 0.53812 0.92368 0.0
H2067 H 0.76756 0.52805 0.9065 0.0
C2068 C 0.72233 0.4894 0.84827 0.0
C2069 C 0.7347 0.47539 0.82474 0.0
C2070 C 0.72905 0.49646 0.88775 0.0
C2071 C 0.74814 0.48947 0.90467 0.0
C2072 C 0.761 0.47617 0.88052 0.0
H2073 H 0.76378 0.53015 0.1706 0.0
H2074 H 0.77553 0.51756 0.10089 0.0
C2075 C 0.75443 0.46937 0.84046 0.0
C2076 C 0.75281 0.49388 0.94968 0.0
H2077 H 0.75517 0.53447 0.01986 0.0
C2078 C 0.75102 0.47732 0.97875 0.0
C2079 C 0.75548 0.51458 0.96467 0.0
C2080 C 0.75826 0.53276 0.93468 0.0
C2081 C 0.75 0.48119 0.02244 0.0
C2082 C 0.75084 0.50209 0.03716 0.0
C2083 C 0.75446 0.51845 0.00838 0.0
C2084 C 0.74468 0.50754 0.08091 0.0
C2085 C 0.7468 0.46308 0.05244 0.0
C2086 C 0.72353 0.5059 0.09257 0.0
C2087 C 0.71677 0.51325 0.13182 0.0
C2088 C 0.73107 0.52223 0.16038 0.0
C2089 C 0.75245 0.5231 0.14937 0.0
C2090 C 0.75917 0.51602 0.10961 0.0
H2091 H 0.75171 0.44797 0.038 0.0
H2092 H 0.75573 0.46554 0.08223 0.0
H2093 H 0.72991 0.46195 0.06064 0.0
H2094 H 0.71209 0.49961 0.0706 0.0
H2095 H 0.70021 0.51235 0.13939 0.0
loop_
_geom_bond_atom_site_label_1
_geom_bond_atom_site_label_2
_geom_bond_distance
_geom_bond_site_symmetry_2
_ccdc_geom_bond_type
Co0 O2 2.143 . S
Co0 O8 2.074 . S
Co0 O11 2.093 . S
Co0 O24 2.097 . S
Co0 N41 2.151 . S
Co0 N49 2.214 . S
Co1 O2 2.160 . S
Co1 O7 2.058 . S
Co1 O17 2.057 . S
Co1 O32 2.037 . S
Co1 N36 2.145 . S
Co1 N57 2.257 . S
O2 Co0 2.143 . S
O2 Co1 2.160 . S
C3 O4 1.278 . S
C3 O11 1.224 . S
O4 C3 1.278 . S
C5 O6 1.245 . S
C5 O17 1.232 . S
O6 C5 1.245 . S
O7 Co1 2.058 . S
O7 C33 1.269 . S
O8 Co0 2.074 . S
O8 C33 1.257 . S
H9 C34 0.930 . S
H10 C40 0.930 . S
O11 Co0 2.093 . S
O11 C3 1.224 . S
H12 C44 0.929 . S
H13 C46 0.930 . S
H14 C47 0.930 . S
H15 C45 0.929 . S
H16 C48 0.928 . S
O17 Co1 2.057 . S
O17 C5 1.232 . S
H18 C37 0.929 1_655 S
H19 C38 0.929 . S
H20 C50 0.931 1_655 S
H21 C42 0.929 . S
H22 C51 0.930 . S
H23 C43 0.931 . S
O24 Co0 2.097 . S
O24 C52 1.214 . S
H25 C53 0.929 . S
H26 C54 0.929 . S
H27 C55 0.930 . S
H28 C56 0.929 . S
H29 C58 0.930 . S
H30 C35 0.930 . S
H31 C39 0.930 . S
O32 Co1 2.037 . S
O32 C52 1.234 . S
C33 O7 1.269 . S
C33 O8 1.257 . S
C34 H9 0.930 . S
C34 C37 1.388 1_655 S
C34 C39 1.418 . S
C35 H30 0.930 . S
C35 C38 1.404 . S
C35 C39 1.353 1_455 S
N36 Co1 2.145 . S
N36 C37 1.397 . S
N36 C38 1.334 . S
C37 H18 0.929 1_455 S
C37 C34 1.388 1_455 S
C37 N36 1.397 . S
C38 H19 0.929 . S
C38 C35 1.404 . S
C38 N36 1.334 . S
C39 H31 0.930 . S
C39 C34 1.418 . S
C39 C35 1.353 1_655 S
C40 H10 0.930 . S
C40 N41 1.330 . S
C40 C42 1.446 . S
N41 Co0 2.151 . S
N41 C40 1.330 . S
N41 C45 1.418 . S
C42 H21 0.929 . S
C42 C40 1.446 . S
C42 C43 1.332 . S
C43 H23 0.931 . S
C43 C42 1.332 . S
C43 C44 1.267 . S
C44 H12 0.929 . S
C44 C43 1.267 . S
C44 C45 1.251 . S
C45 H15 0.929 . S
C45 N41 1.418 . S
C45 C44 1.251 . S
C46 H13 0.930 . S
C46 C48 1.406 . S
C46 C51 1.261 . S
C47 H14 0.930 . S
C47 N49 1.325 . S
C47 C50 1.357 . S
C48 H16 0.928 . S
C48 C46 1.406 . S
C48 N49 1.261 . S
N49 Co0 2.214 . S
N49 C47 1.325 . S
N49 C48 1.261 . S
C50 H20 0.931 1_455 S
C50 C47 1.357 . S
C50 C51 1.312 . S
C51 H22 0.930 . S
C51 C46 1.261 . S
C51 C50 1.312 . S
C52 O24 1.214 . S
C52 O32 1.234 . S
C53 H25 0.929 . S
C53 C56 1.391 . S
C53 C58 1.391 . S
C54 H26 0.929 . S
C54 C55 1.390 . S
C54 N57 1.391 . S
C55 H27 0.930 . S
C55 C54 1.390 . S
C55 C56 1.392 . S
C56 H28 0.929 . S
C56 C53 1.391 . S
C56 C55 1.392 . S
N57 Co1 2.257 . S
N57 C54 1.391 . S
N57 C58 1.388 . S
C58 H29 0.930 . S
C58 C53 1.391 . S
C58 N57 1.388 . S
Co59 O61 2.143 . S
Co59 O67 2.074 . S
Co59 O70 2.093 . S
Co59 O83 2.097 . S
Co59 N100 2.151 . S
Co59 N108 2.214 . S
Co60 O61 2.160 . S
Co60 O66 2.058 . S
Co60 O76 2.057 . S
Co60 O91 2.037 . S
Co60 N95 2.145 . S
Co60 N116 2.257 . S
O61 Co59 2.143 . S
O61 Co60 2.160 . S
C62 O63 1.278 . S
C62 O70 1.224 . S
O63 C62 1.278 . S
C64 O65 1.245 . S
C64 O76 1.232 . S
O65 C64 1.245 . S
O66 Co60 2.058 . S
O66 C92 1.269 . S
O67 Co59 2.074 . S
O67 C92 1.257 . S
H68 C93 0.930 . S
H69 C99 0.930 . S
O70 Co59 2.093 . S
O70 C62 1.224 . S
H71 C103 0.929 . S
H72 C105 0.930 . S
H73 C106 0.930 . S
H74 C104 0.929 . S
H75 C107 0.928 . S
O76 Co60 2.057 . S
O76 C64 1.232 . S
H77 C96 0.929 1_565 S
H78 C97 0.929 . S
H79 C109 0.931 1_565 S
H80 C101 0.929 . S
H81 C110 0.930 . S
H82 C102 0.931 . S
O83 Co59 2.097 . S
O83 C111 1.214 . S
H84 C112 0.929 . S
H85 C113 0.929 . S
H86 C114 0.930 . S
H87 C115 0.929 . S
H88 C117 0.930 . S
H89 C94 0.930 . S
H90 C98 0.930 . S
O91 Co60 2.037 . S
O91 C111 1.234 . S
C92 O66 1.269 . S
C92 O67 1.257 . S
C93 H68 0.930 . S
C93 C96 1.388 1_565 S
C93 C98 1.418 . S
C94 H89 0.930 . S
C94 C97 1.404 . S
C94 C98 1.353 1_545 S
N95 Co60 2.145 . S
N95 C96 1.397 . S
N95 C97 1.334 . S
C96 H77 0.929 1_545 S
C96 C93 1.388 1_545 S
C96 N95 1.397 . S
C97 H78 0.929 . S
C97 C94 1.404 . S
C97 N95 1.334 . S
C98 H90 0.930 . S
C98 C93 1.418 . S
C98 C94 1.353 1_565 S
C99 H69 0.930 . S
C99 N100 1.330 . S
C99 C101 1.446 . S
N100 Co59 2.151 . S
N100 C99 1.330 . S
N100 C104 1.418 . S
C101 H80 0.929 . S
C101 C99 1.446 . S
C101 C102 1.332 . S
C102 H82 0.931 . S
C102 C101 1.332 . S
C102 C103 1.267 . S
C103 H71 0.929 . S
C103 C102 1.267 . S
C103 C104 1.251 . S
C104 H74 0.929 . S
C104 N100 1.418 . S
C104 C103 1.251 . S
C105 H72 0.930 . S
C105 C107 1.406 . S
C105 C110 1.261 . S
C106 H73 0.930 . S
C106 N108 1.325 . S
C106 C109 1.357 . S
C107 H75 0.928 . S
C107 C105 1.406 . S
C107 N108 1.261 . S
N108 Co59 2.214 . S
N108 C106 1.325 . S
N108 C107 1.261 . S
C109 H79 0.931 1_545 S
C109 C106 1.357 . S
C109 C110 1.312 . S
C110 H81 0.930 . S
C110 C105 1.261 . S
C110 C109 1.312 . S
C111 O83 1.214 . S
C111 O91 1.234 . S
C112 H84 0.929 . S
C112 C115 1.391 . S
C112 C117 1.391 . S
C113 H85 0.929 . S
C113 C114 1.390 . S
C113 N116 1.391 . S
C114 H86 0.930 . S
C114 C113 1.390 . S
C114 C115 1.392 . S
C115 H87 0.929 . S
C115 C112 1.391 . S
C115 C114 1.392 . S
N116 Co60 2.257 . S
N116 C113 1.391 . S
N116 C117 1.388 . S
C117 H88 0.930 . S
C117 C112 1.391 . S
C117 N116 1.388 . S
Co118 O120 2.143 . S
Co118 O126 2.074 . S
Co118 O129 2.093 . S
Co118 O142 2.097 . S
Co118 N159 2.151 . S
Co118 N167 2.214 . S
Co119 O120 2.160 . S
Co119 O125 2.058 . S
Co119 O135 2.057 . S
Co119 O150 2.037 . S
Co119 N154 2.145 . S
Co119 N175 2.257 . S
O120 Co118 2.143 . S
O120 Co119 2.160 . S
C121 O122 1.278 . S
C121 O129 1.224 . S
O122 C121 1.278 . S
C123 O124 1.245 . S
C123 O135 1.232 . S
O124 C123 1.245 . S
O125 Co119 2.058 . S
O125 C151 1.269 . S
O126 Co118 2.074 . S
O126 C151 1.257 . S
H127 C152 0.930 . S
H128 C158 0.930 . S
O129 Co118 2.093 . S
O129 C121 1.224 . S
H130 C162 0.929 . S
H131 C164 0.930 . S
H132 C165 0.930 . S
H133 C163 0.929 . S
H134 C166 0.928 . S
O135 Co119 2.057 . S
O135 C123 1.232 . S
H136 C155 0.929 1_455 S
H137 C156 0.929 . S
H138 C168 0.931 1_455 S
H139 C160 0.929 . S
H140 C169 0.930 . S
H141 C161 0.931 . S
O142 Co118 2.097 . S
O142 C170 1.214 . S
H143 C171 0.929 . S
H144 C172 0.929 . S
H145 C173 0.930 . S
H146 C174 0.929 . S
H147 C176 0.930 . S
H148 C153 0.930 . S
H149 C157 0.930 . S
O150 Co119 2.037 . S
O150 C170 1.234 . S
C151 O125 1.269 . S
C151 O126 1.257 . S
C152 H127 0.930 . S
C152 C155 1.388 1_455 S
C152 C157 1.418 . S
C153 H148 0.930 . S
C153 C156 1.404 . S
C153 C157 1.353 1_655 S
N154 Co119 2.145 . S
N154 C155 1.397 . S
N154 C156 1.334 . S
C155 H136 0.929 1_655 S
C155 C152 1.388 1_655 S
C155 N154 1.397 . S
C156 H137 0.929 . S
C156 C153 1.404 . S
C156 N154 1.334 . S
C157 H149 0.930 . S
C157 C152 1.418 . S
C157 C153 1.353 1_455 S
C158 H128 0.930 . S
C158 N159 1.330 . S
C158 C160 1.446 . S
N159 Co118 2.151 . S
N159 C158 1.330 . S
N159 C163 1.418 . S
C160 H139 0.929 . S
C160 C158 1.446 . S
C160 C161 1.332 . S
C161 H141 0.931 . S
C161 C160 1.332 . S
C161 C162 1.267 . S
C162 H130 0.929 . S
C162 C161 1.267 . S
C162 C163 1.251 . S
C163 H133 0.929 . S
C163 N159 1.418 . S
C163 C162 1.251 . S
C164 H131 0.930 . S
C164 C166 1.406 . S
C164 C169 1.261 . S
C165 H132 0.930 . S
C165 N167 1.325 . S
C165 C168 1.357 . S
C166 H134 0.928 . S
C166 C164 1.406 . S
C166 N167 1.261 . S
N167 Co118 2.214 . S
N167 C165 1.325 . S
N167 C166 1.261 . S
C168 H138 0.931 1_655 S
C168 C165 1.357 . S
C168 C169 1.312 . S
C169 H140 0.930 . S
C169 C164 1.261 . S
C169 C168 1.312 . S
C170 O142 1.214 . S
C170 O150 1.234 . S
C171 H143 0.929 . S
C171 C174 1.391 . S
C171 C176 1.391 . S
C172 H144 0.929 . S
C172 C173 1.390 . S
C172 N175 1.391 . S
C173 H145 0.930 . S
C173 C172 1.390 . S
C173 C174 1.392 . S
C174 H146 0.929 . S
C174 C171 1.391 . S
C174 C173 1.392 . S
N175 Co119 2.257 . S
N175 C172 1.391 . S
N175 C176 1.388 . S
C176 H147 0.930 . S
C176 C171 1.391 . S
C176 N175 1.388 . S
Co177 O179 2.143 . S
Co177 O185 2.074 . S
Co177 O188 2.093 . S
Co177 O201 2.097 . S
Co177 N218 2.151 . S
Co177 N226 2.214 . S
Co178 O179 2.160 . S
Co178 O184 2.058 . S
Co178 O194 2.057 . S
Co178 O209 2.037 . S
Co178 N213 2.145 . S
Co178 N234 2.257 . S
O179 Co177 2.143 . S
O179 Co178 2.160 . S
C180 O181 1.278 . S
C180 O188 1.224 . S
O181 C180 1.278 . S
C182 O183 1.245 . S
C182 O194 1.232 . S
O183 C182 1.245 . S
O184 Co178 2.058 . S
O184 C210 1.269 . S
O185 Co177 2.074 . S
O185 C210 1.257 . S
H186 C211 0.930 . S
H187 C217 0.930 . S
O188 Co177 2.093 . S
O188 C180 1.224 . S
H189 C221 0.929 . S
H190 C223 0.930 . S
H191 C224 0.930 . S
H192 C222 0.929 . S
H193 C225 0.928 . S
O194 Co178 2.057 . S
O194 C182 1.232 . S
H195 C214 0.929 1_545 S
H196 C215 0.929 . S
H197 C227 0.931 1_545 S
H198 C219 0.929 . S
H199 C228 0.930 . S
H200 C220 0.931 . S
O201 Co177 2.097 . S
O201 C229 1.214 . S
H202 C230 0.929 . S
H203 C231 0.929 . S
H204 C232 0.930 . S
H205 C233 0.929 . S
H206 C235 0.930 . S
H207 C212 0.930 . S
H208 C216 0.930 . S
O209 Co178 2.037 . S
O209 C229 1.234 . S
C210 O184 1.269 . S
C210 O185 1.257 . S
C211 H186 0.930 . S
C211 C214 1.388 1_545 S
C211 C216 1.418 . S
C212 H207 0.930 . S
C212 C215 1.404 . S
C212 C216 1.353 1_565 S
N213 Co178 2.145 . S
N213 C214 1.397 . S
N213 C215 1.334 . S
C214 H195 0.929 1_565 S
C214 C211 1.388 1_565 S
C214 N213 1.397 . S
C215 H196 0.929 . S
C215 C212 1.404 . S
C215 N213 1.334 . S
C216 H208 0.930 . S
C216 C211 1.418 . S
C216 C212 1.353 1_545 S
C217 H187 0.930 . S
C217 N218 1.330 . S
C217 C219 1.446 . S
N218 Co177 2.151 . S
N218 C217 1.330 . S
N218 C222 1.418 . S
C219 H198 0.929 . S
C219 C217 1.446 . S
C219 C220 1.332 . S
C220 H200 0.931 . S
C220 C219 1.332 . S
C220 C221 1.267 . S
C221 H189 0.929 . S
C221 C220 1.267 . S
C221 C222 1.251 . S
C222 H192 0.929 . S
C222 N218 1.418 . S
C222 C221 1.251 . S
C223 H190 0.930 . S
C223 C225 1.406 . S
C223 C228 1.261 . S
C224 H191 0.930 . S
C224 N226 1.325 . S
C224 C227 1.357 . S
C225 H193 0.928 . S
C225 C223 1.406 . S
C225 N226 1.261 . S
N226 Co177 2.214 . S
N226 C224 1.325 . S
N226 C225 1.261 . S
C227 H197 0.931 1_565 S
C227 C224 1.357 . S
C227 C228 1.312 . S
C228 H199 0.930 . S
C228 C223 1.261 . S
C228 C227 1.312 . S
C229 O201 1.214 . S
C229 O209 1.234 . S
C230 H202 0.929 . S
C230 C233 1.391 . S
C230 C235 1.391 . S
C231 H203 0.929 . S
C231 C232 1.390 . S
C231 N234 1.391 . S
C232 H204 0.930 . S
C232 C231 1.390 . S
C232 C233 1.392 . S
C233 H205 0.929 . S
C233 C230 1.391 . S
C233 C232 1.392 . S
N234 Co178 2.257 . S
N234 C231 1.391 . S
N234 C235 1.388 . S
C235 H206 0.930 . S
C235 C230 1.391 . S
C235 N234 1.388 . S
Co236 O238 2.143 . S
Co236 O244 2.074 . S
Co236 O247 2.093 . S
Co236 O260 2.097 . S
Co236 N277 2.151 . S
Co236 N285 2.214 . S
Co237 O238 2.160 . S
Co237 O243 2.058 . S
Co237 O253 2.057 . S
Co237 O268 2.037 . S
Co237 N272 2.145 . S
Co237 N293 2.257 . S
O238 Co236 2.143 . S
O238 Co237 2.160 . S
C239 O240 1.278 . S
C239 O247 1.224 . S
O240 C239 1.278 . S
C241 O242 1.245 . S
C241 O253 1.232 . S
O242 C241 1.245 . S
O243 Co237 2.058 . S
O243 C269 1.269 . S
O244 Co236 2.074 . S
O244 C269 1.257 . S
H245 C270 0.930 . S
H246 C276 0.930 . S
O247 Co236 2.093 . S
O247 C239 1.224 . S
H248 C280 0.929 . S
H249 C282 0.930 . S
H250 C283 0.930 . S
H251 C281 0.929 . S
H252 C284 0.928 . S
O253 Co237 2.057 . S
O253 C241 1.232 . S
H254 C273 0.929 1_655 S
H255 C274 0.929 . S
H256 C286 0.931 1_655 S
H257 C278 0.929 . S
H258 C287 0.930 . S
H259 C279 0.931 . S
O260 Co236 2.097 . S
O260 C288 1.214 . S
H261 C289 0.929 . S
H262 C290 0.929 . S
H263 C291 0.930 . S
H264 C292 0.929 . S
H265 C294 0.930 . S
H266 C271 0.930 . S
H267 C275 0.930 . S
O268 Co237 2.037 . S
O268 C288 1.234 . S
C269 O243 1.269 . S
C269 O244 1.257 . S
C270 H245 0.930 . S
C270 C273 1.388 1_655 S
C270 C275 1.418 . S
C271 H266 0.930 . S
C271 C274 1.404 . S
C271 C275 1.353 1_455 S
N272 Co237 2.145 . S
N272 C273 1.397 . S
N272 C274 1.334 . S
C273 H254 0.929 1_455 S
C273 C270 1.388 1_455 S
C273 N272 1.397 . S
C274 H255 0.929 . S
C274 C271 1.404 . S
C274 N272 1.334 . S
C275 H267 0.930 . S
C275 C270 1.418 . S
C275 C271 1.353 1_655 S
C276 H246 0.930 . S
C276 N277 1.330 . S
C276 C278 1.446 . S
N277 Co236 2.151 . S
N277 C276 1.330 . S
N277 C281 1.418 . S
C278 H257 0.929 . S
C278 C276 1.446 . S
C278 C279 1.332 . S
C279 H259 0.931 . S
C279 C278 1.332 . S
C279 C280 1.267 . S
C280 H248 0.929 . S
C280 C279 1.267 . S
C280 C281 1.251 . S
C281 H251 0.929 . S
C281 N277 1.418 . S
C281 C280 1.251 . S
C282 H249 0.930 . S
C282 C284 1.406 . S
C282 C287 1.261 . S
C283 H250 0.930 . S
C283 N285 1.325 . S
C283 C286 1.357 . S
C284 H252 0.928 . S
C284 C282 1.406 . S
C284 N285 1.261 . S
N285 Co236 2.214 . S
N285 C283 1.325 . S
N285 C284 1.261 . S
C286 H256 0.931 1_455 S
C286 C283 1.357 . S
C286 C287 1.312 . S
C287 H258 0.930 . S
C287 C282 1.261 . S
C287 C286 1.312 . S
C288 O260 1.214 . S
C288 O268 1.234 . S
C289 H261 0.929 . S
C289 C292 1.391 . S
C289 C294 1.391 . S
C290 H262 0.929 . S
C290 C291 1.390 . S
C290 N293 1.391 . S
C291 H263 0.930 . S
C291 C290 1.390 . S
C291 C292 1.392 . S
C292 H264 0.929 . S
C292 C289 1.391 . S
C292 C291 1.392 . S
N293 Co237 2.257 . S
N293 C290 1.391 . S
N293 C294 1.388 . S
C294 H265 0.930 . S
C294 C289 1.391 . S
C294 N293 1.388 . S
Co295 O297 2.143 . S
Co295 O303 2.074 . S
Co295 O306 2.093 . S
Co295 O319 2.097 . S
Co295 N336 2.151 . S
Co295 N344 2.214 . S
Co296 O297 2.160 . S
Co296 O302 2.058 . S
Co296 O312 2.057 . S
Co296 O327 2.037 . S
Co296 N331 2.145 . S
Co296 N352 2.257 . S
O297 Co295 2.143 . S
O297 Co296 2.160 . S
C298 O299 1.278 . S
C298 O306 1.224 . S
O299 C298 1.278 . S
C300 O301 1.245 . S
C300 O312 1.232 . S
O301 C300 1.245 . S
O302 Co296 2.058 . S
O302 C328 1.269 . S
O303 Co295 2.074 . S
O303 C328 1.257 . S
H304 C329 0.930 . S
H305 C335 0.930 . S
O306 Co295 2.093 . S
O306 C298 1.224 . S
H307 C339 0.929 . S
H308 C341 0.930 . S
H309 C342 0.930 . S
H310 C340 0.929 . S
H311 C343 0.928 . S
O312 Co296 2.057 . S
O312 C300 1.232 . S
H313 C332 0.929 1_565 S
H314 C333 0.929 . S
H315 C345 0.931 1_565 S
H316 C337 0.929 . S
H317 C346 0.930 . S
H318 C338 0.931 . S
O319 Co295 2.097 . S
O319 C347 1.214 . S
H320 C348 0.929 . S
H321 C349 0.929 . S
H322 C350 0.930 . S
H323 C351 0.929 . S
H324 C353 0.930 . S
H325 C330 0.930 . S
H326 C334 0.930 . S
O327 Co296 2.037 . S
O327 C347 1.234 . S
C328 O302 1.269 . S
C328 O303 1.257 . S
C329 H304 0.930 . S
C329 C332 1.388 1_565 S
C329 C334 1.418 . S
C330 H325 0.930 . S
C330 C333 1.404 . S
C330 C334 1.353 1_545 S
N331 Co296 2.145 . S
N331 C332 1.397 . S
N331 C333 1.334 . S
C332 H313 0.929 1_545 S
C332 C329 1.388 1_545 S
C332 N331 1.397 . S
C333 H314 0.929 . S
C333 C330 1.404 . S
C333 N331 1.334 . S
C334 H326 0.930 . S
C334 C329 1.418 . S
C334 C330 1.353 1_565 S
C335 H305 0.930 . S
C335 N336 1.330 . S
C335 C337 1.446 . S
N336 Co295 2.151 . S
N336 C335 1.330 . S
N336 C340 1.418 . S
C337 H316 0.929 . S
C337 C335 1.446 . S
C337 C338 1.332 . S
C338 H318 0.931 . S
C338 C337 1.332 . S
C338 C339 1.267 . S
C339 H307 0.929 . S
C339 C338 1.267 . S
C339 C340 1.251 . S
C340 H310 0.929 . S
C340 N336 1.418 . S
C340 C339 1.251 . S
C341 H308 0.930 . S
C341 C343 1.406 . S
C341 C346 1.261 . S
C342 H309 0.930 . S
C342 N344 1.325 . S
C342 C345 1.357 . S
C343 H311 0.928 . S
C343 C341 1.406 . S
C343 N344 1.261 . S
N344 Co295 2.214 . S
N344 C342 1.325 . S
N344 C343 1.261 . S
C345 H315 0.931 1_545 S
C345 C342 1.357 . S
C345 C346 1.312 . S
C346 H317 0.930 . S
C346 C341 1.261 . S
C346 C345 1.312 . S
C347 O319 1.214 . S
C347 O327 1.234 . S
C348 H320 0.929 . S
C348 C351 1.391 . S
C348 C353 1.391 . S
C349 H321 0.929 . S
C349 C350 1.390 . S
C349 N352 1.391 . S
C350 H322 0.930 . S
C350 C349 1.390 . S
C350 C351 1.392 . S
C351 H323 0.929 . S
C351 C348 1.391 . S
C351 C350 1.392 . S
N352 Co296 2.257 . S
N352 C349 1.391 . S
N352 C353 1.388 . S
C353 H324 0.930 . S
C353 C348 1.391 . S
C353 N352 1.388 . S
Co354 O356 2.143 . S
Co354 O362 2.074 . S
Co354 O365 2.093 . S
Co354 O378 2.097 . S
Co354 N395 2.151 . S
Co354 N403 2.214 . S
Co355 O356 2.160 . S
Co355 O361 2.058 . S
Co355 O371 2.057 . S
Co355 O386 2.037 . S
Co355 N390 2.145 . S
Co355 N411 2.257 . S
O356 Co354 2.143 . S
O356 Co355 2.160 . S
C357 O358 1.278 . S
C357 O365 1.224 . S
O358 C357 1.278 . S
C359 O360 1.245 . S
C359 O371 1.232 . S
O360 C359 1.245 . S
O361 Co355 2.058 . S
O361 C387 1.269 . S
O362 Co354 2.074 . S
O362 C387 1.257 . S
H363 C388 0.930 . S
H364 C394 0.930 . S
O365 Co354 2.093 . S
O365 C357 1.224 . S
H366 C398 0.929 . S
H367 C400 0.930 . S
H368 C401 0.930 . S
H369 C399 0.929 . S
H370 C402 0.928 . S
O371 Co355 2.057 . S
O371 C359 1.232 . S
H372 C391 0.929 1_455 S
H373 C392 0.929 . S
H374 C404 0.931 1_455 S
H375 C396 0.929 . S
H376 C405 0.930 . S
H377 C397 0.931 . S
O378 Co354 2.097 . S
O378 C406 1.214 . S
H379 C407 0.929 . S
H380 C408 0.929 . S
H381 C409 0.930 . S
H382 C410 0.929 . S
H383 C412 0.930 . S
H384 C389 0.930 . S
H385 C393 0.930 . S
O386 Co355 2.037 . S
O386 C406 1.234 . S
C387 O361 1.269 . S
C387 O362 1.257 . S
C388 H363 0.930 . S
C388 C391 1.388 1_455 S
C388 C393 1.418 . S
C389 H384 0.930 . S
C389 C392 1.404 . S
C389 C393 1.353 1_655 S
N390 Co355 2.145 . S
N390 C391 1.397 . S
N390 C392 1.334 . S
C391 H372 0.929 1_655 S
C391 C388 1.388 1_655 S
C391 N390 1.397 . S
C392 H373 0.929 . S
C392 C389 1.404 . S
C392 N390 1.334 . S
C393 H385 0.930 . S
C393 C388 1.418 . S
C393 C389 1.353 1_455 S
C394 H364 0.930 . S
C394 N395 1.330 . S
C394 C396 1.446 . S
N395 Co354 2.151 . S
N395 C394 1.330 . S
N395 C399 1.418 . S
C396 H375 0.929 . S
C396 C394 1.446 . S
C396 C397 1.332 . S
C397 H377 0.931 . S
C397 C396 1.332 . S
C397 C398 1.267 . S
C398 H366 0.929 . S
C398 C397 1.267 . S
C398 C399 1.251 . S
C399 H369 0.929 . S
C399 N395 1.418 . S
C399 C398 1.251 . S
C400 H367 0.930 . S
C400 C402 1.406 . S
C400 C405 1.261 . S
C401 H368 0.930 . S
C401 N403 1.325 . S
C401 C404 1.357 . S
C402 H370 0.928 . S
C402 C400 1.406 . S
C402 N403 1.261 . S
N403 Co354 2.214 . S
N403 C401 1.325 . S
N403 C402 1.261 . S
C404 H374 0.931 1_655 S
C404 C401 1.357 . S
C404 C405 1.312 . S
C405 H376 0.930 . S
C405 C400 1.261 . S
C405 C404 1.312 . S
C406 O378 1.214 . S
C406 O386 1.234 . S
C407 H379 0.929 . S
C407 C410 1.391 . S
C407 C412 1.391 . S
C408 H380 0.929 . S
C408 C409 1.390 . S
C408 N411 1.391 . S
C409 H381 0.930 . S
C409 C408 1.390 . S
C409 C410 1.392 . S
C410 H382 0.929 . S
C410 C407 1.391 . S
C410 C409 1.392 . S
N411 Co355 2.257 . S
N411 C408 1.391 . S
N411 C412 1.388 . S
C412 H383 0.930 . S
C412 C407 1.391 . S
C412 N411 1.388 . S
Co413 O415 2.143 . S
Co413 O421 2.074 . S
Co413 O424 2.093 . S
Co413 O437 2.097 . S
Co413 N454 2.151 . S
Co413 N462 2.214 . S
Co414 O415 2.160 . S
Co414 O420 2.058 . S
Co414 O430 2.057 . S
Co414 O445 2.037 . S
Co414 N449 2.145 . S
Co414 N470 2.257 . S
O415 Co413 2.143 . S
O415 Co414 2.160 . S
C416 O417 1.278 . S
C416 O424 1.224 . S
O417 C416 1.278 . S
C418 O419 1.245 . S
C418 O430 1.232 . S
O419 C418 1.245 . S
O420 Co414 2.058 . S
O420 C446 1.269 . S
O421 Co413 2.074 . S
O421 C446 1.257 . S
H422 C447 0.930 . S
H423 C453 0.930 . S
O424 Co413 2.093 . S
O424 C416 1.224 . S
H425 C457 0.929 . S
H426 C459 0.930 . S
H427 C460 0.930 . S
H428 C458 0.929 . S
H429 C461 0.928 . S
O430 Co414 2.057 . S
O430 C418 1.232 . S
H431 C450 0.929 1_545 S
H432 C451 0.929 . S
H433 C463 0.931 1_545 S
H434 C455 0.929 . S
H435 C464 0.930 . S
H436 C456 0.931 . S
O437 Co413 2.097 . S
O437 C465 1.214 . S
H438 C466 0.929 . S
H439 C467 0.929 . S
H440 C468 0.930 . S
H441 C469 0.929 . S
H442 C471 0.930 . S
H443 C448 0.930 . S
H444 C452 0.930 . S
O445 Co414 2.037 . S
O445 C465 1.234 . S
C446 O420 1.269 . S
C446 O421 1.257 . S
C447 H422 0.930 . S
C447 C450 1.388 1_545 S
C447 C452 1.418 . S
C448 H443 0.930 . S
C448 C451 1.404 . S
C448 C452 1.353 1_565 S
N449 Co414 2.145 . S
N449 C450 1.397 . S
N449 C451 1.334 . S
C450 H431 0.929 1_565 S
C450 C447 1.388 1_565 S
C450 N449 1.397 . S
C451 H432 0.929 . S
C451 C448 1.404 . S
C451 N449 1.334 . S
C452 H444 0.930 . S
C452 C447 1.418 . S
C452 C448 1.353 1_545 S
C453 H423 0.930 . S
C453 N454 1.330 . S
C453 C455 1.446 . S
N454 Co413 2.151 . S
N454 C453 1.330 . S
N454 C458 1.418 . S
C455 H434 0.929 . S
C455 C453 1.446 . S
C455 C456 1.332 . S
C456 H436 0.931 . S
C456 C455 1.332 . S
C456 C457 1.267 . S
C457 H425 0.929 . S
C457 C456 1.267 . S
C457 C458 1.251 . S
C458 H428 0.929 . S
C458 N454 1.418 . S
C458 C457 1.251 . S
C459 H426 0.930 . S
C459 C461 1.406 . S
C459 C464 1.261 . S
C460 H427 0.930 . S
C460 N462 1.325 . S
C460 C463 1.357 . S
C461 H429 0.928 . S
C461 C459 1.406 . S
C461 N462 1.261 . S
N462 Co413 2.214 . S
N462 C460 1.325 . S
N462 C461 1.261 . S
C463 H433 0.931 1_565 S
C463 C460 1.357 . S
C463 C464 1.312 . S
C464 H435 0.930 . S
C464 C459 1.261 . S
C464 C463 1.312 . S
C465 O437 1.214 . S
C465 O445 1.234 . S
C466 H438 0.929 . S
C466 C469 1.391 . S
C466 C471 1.391 . S
C467 H439 0.929 . S
C467 C468 1.390 . S
C467 N470 1.391 . S
C468 H440 0.930 . S
C468 C467 1.390 . S
C468 C469 1.392 . S
C469 H441 0.929 . S
C469 C466 1.391 . S
C469 C468 1.392 . S
N470 Co414 2.257 . S
N470 C467 1.391 . S
N470 C471 1.388 . S
C471 H442 0.930 . S
C471 C466 1.391 . S
C471 N470 1.388 . S
Co472 O474 2.143 . S
Co472 O480 2.074 . S
Co472 O483 2.093 . S
Co472 O496 2.097 . S
Co472 N513 2.151 . S
Co472 N521 2.214 . S
Co473 O474 2.160 . S
Co473 O479 2.058 . S
Co473 O489 2.057 . S
Co473 O504 2.037 . S
Co473 N508 2.145 . S
Co473 N529 2.257 . S
O474 Co472 2.143 . S
O474 Co473 2.160 . S
C475 O476 1.278 . S
C475 O483 1.224 . S
O476 C475 1.278 . S
C477 O478 1.245 . S
C477 O489 1.232 . S
O478 C477 1.245 . S
O479 Co473 2.058 . S
O479 C505 1.269 . S
O480 Co472 2.074 . S
O480 C505 1.257 . S
H481 C506 0.930 . S
H482 C512 0.930 . S
O483 Co472 2.093 . S
O483 C475 1.224 . S
H484 C516 0.929 . S
H485 C518 0.930 . S
H486 C519 0.930 . S
H487 C517 0.929 . S
H488 C520 0.928 . S
O489 Co473 2.057 . S
O489 C477 1.232 . S
H490 C509 0.929 . S
H491 C510 0.929 . S
H492 C522 0.931 . S
H493 C514 0.929 . S
H494 C523 0.930 . S
H495 C515 0.931 . S
O496 Co472 2.097 . S
O496 C524 1.214 . S
H497 C525 0.929 . S
H498 C526 0.929 . S
H499 C527 0.930 . S
H500 C528 0.929 . S
H501 C530 0.930 . S
H502 C507 0.930 . S
H503 C511 0.930 . S
O504 Co473 2.037 . S
O504 C524 1.234 . S
C505 O479 1.269 . S
C505 O480 1.257 . S
C506 H481 0.930 . S
C506 C509 1.388 . S
C506 C511 1.418 . S
C507 H502 0.930 . S
C507 C510 1.404 . S
C507 C511 1.353 . S
N508 Co473 2.145 . S
N508 C509 1.397 . S
N508 C510 1.334 . S
C509 H490 0.929 . S
C509 C506 1.388 . S
C509 N508 1.397 . S
C510 H491 0.929 . S
C510 C507 1.404 . S
C510 N508 1.334 . S
C511 H503 0.930 . S
C511 C506 1.418 . S
C511 C507 1.353 . S
C512 H482 0.930 . S
C512 N513 1.330 . S
C512 C514 1.446 . S
N513 Co472 2.151 . S
N513 C512 1.330 . S
N513 C517 1.418 . S
C514 H493 0.929 . S
C514 C512 1.446 . S
C514 C515 1.332 . S
C515 H495 0.931 . S
C515 C514 1.332 . S
C515 C516 1.267 . S
C516 H484 0.929 . S
C516 C515 1.267 . S
C516 C517 1.251 . S
C517 H487 0.929 . S
C517 N513 1.418 . S
C517 C516 1.251 . S
C518 H485 0.930 . S
C518 C520 1.406 . S
C518 C523 1.261 . S
C519 H486 0.930 . S
C519 N521 1.325 . S
C519 C522 1.357 . S
C520 H488 0.928 . S
C520 C518 1.406 . S
C520 N521 1.261 . S
N521 Co472 2.214 . S
N521 C519 1.325 . S
N521 C520 1.261 . S
C522 H492 0.931 . S
C522 C519 1.357 . S
C522 C523 1.312 . S
C523 H494 0.930 . S
C523 C518 1.261 . S
C523 C522 1.312 . S
C524 O496 1.214 . S
C524 O504 1.234 . S
C525 H497 0.929 . S
C525 C528 1.391 . S
C525 C530 1.391 . S
C526 H498 0.929 . S
C526 C527 1.390 . S
C526 N529 1.391 . S
C527 H499 0.930 . S
C527 C526 1.390 . S
C527 C528 1.392 . S
C528 H500 0.929 . S
C528 C525 1.391 . S
C528 C527 1.392 . S
N529 Co473 2.257 . S
N529 C526 1.391 . S
N529 C530 1.388 . S
C530 H501 0.930 . S
C530 C525 1.391 . S
C530 N529 1.388 . S
Co531 O533 2.143 . S
Co531 O539 2.074 . S
Co531 O542 2.093 . S
Co531 O555 2.097 . S
Co531 N572 2.151 . S
Co531 N580 2.214 . S
Co532 O533 2.160 . S
Co532 O538 2.058 . S
Co532 O548 2.057 . S
Co532 O563 2.037 . S
Co532 N567 2.145 . S
Co532 N588 2.257 . S
O533 Co531 2.143 . S
O533 Co532 2.160 . S
C534 O535 1.278 . S
C534 O542 1.224 . S
O535 C534 1.278 . S
C536 O537 1.245 . S
C536 O548 1.232 . S
O537 C536 1.245 . S
O538 Co532 2.058 . S
O538 C564 1.269 . S
O539 Co531 2.074 . S
O539 C564 1.257 . S
H540 C565 0.930 . S
H541 C571 0.930 . S
O542 Co531 2.093 . S
O542 C534 1.224 . S
H543 C575 0.929 . S
H544 C577 0.930 . S
H545 C578 0.930 . S
H546 C576 0.929 . S
H547 C579 0.928 . S
O548 Co532 2.057 . S
O548 C536 1.232 . S
H549 C568 0.929 . S
H550 C569 0.929 . S
H551 C581 0.931 . S
H552 C573 0.929 . S
H553 C582 0.930 . S
H554 C574 0.931 . S
O555 Co531 2.097 . S
O555 C583 1.214 . S
H556 C584 0.929 . S
H557 C585 0.929 . S
H558 C586 0.930 . S
H559 C587 0.929 . S
H560 C589 0.930 . S
H561 C566 0.930 . S
H562 C570 0.930 . S
O563 Co532 2.037 . S
O563 C583 1.234 . S
C564 O538 1.269 . S
C564 O539 1.257 . S
C565 H540 0.930 . S
C565 C568 1.388 . S
C565 C570 1.418 . S
C566 H561 0.930 . S
C566 C569 1.404 . S
C566 C570 1.353 . S
N567 Co532 2.145 . S
N567 C568 1.397 . S
N567 C569 1.334 . S
C568 H549 0.929 . S
C568 C565 1.388 . S
C568 N567 1.397 . S
C569 H550 0.929 . S
C569 C566 1.404 . S
C569 N567 1.334 . S
C570 H562 0.930 . S
C570 C565 1.418 . S
C570 C566 1.353 . S
C571 H541 0.930 . S
C571 N572 1.330 . S
C571 C573 1.446 . S
N572 Co531 2.151 . S
N572 C571 1.330 . S
N572 C576 1.418 . S
C573 H552 0.929 . S
C573 C571 1.446 . S
C573 C574 1.332 . S
C574 H554 0.931 . S
C574 C573 1.332 . S
C574 C575 1.267 . S
C575 H543 0.929 . S
C575 C574 1.267 . S
C575 C576 1.251 . S
C576 H546 0.929 . S
C576 N572 1.418 . S
C576 C575 1.251 . S
C577 H544 0.930 . S
C577 C579 1.406 . S
C577 C582 1.261 . S
C578 H545 0.930 . S
C578 N580 1.325 . S
C578 C581 1.357 . S
C579 H547 0.928 . S
C579 C577 1.406 . S
C579 N580 1.261 . S
N580 Co531 2.214 . S
N580 C578 1.325 . S
N580 C579 1.261 . S
C581 H551 0.931 . S
C581 C578 1.357 . S
C581 C582 1.312 . S
C582 H553 0.930 . S
C582 C577 1.261 . S
C582 C581 1.312 . S
C583 O555 1.214 . S
C583 O563 1.234 . S
C584 H556 0.929 . S
C584 C587 1.391 . S
C584 C589 1.391 . S
C585 H557 0.929 . S
C585 C586 1.390 . S
C585 N588 1.391 . S
C586 H558 0.930 . S
C586 C585 1.390 . S
C586 C587 1.392 . S
C587 H559 0.929 . S
C587 C584 1.391 . S
C587 C586 1.392 . S
N588 Co532 2.257 . S
N588 C585 1.391 . S
N588 C589 1.388 . S
C589 H560 0.930 . S
C589 C584 1.391 . S
C589 N588 1.388 . S
Co590 O592 2.143 . S
Co590 O598 2.074 . S
Co590 O601 2.093 . S
Co590 O614 2.097 . S
Co590 N631 2.151 . S
Co590 N639 2.214 . S
Co591 O592 2.160 . S
Co591 O597 2.058 . S
Co591 O607 2.057 . S
Co591 O622 2.037 . S
Co591 N626 2.145 . S
Co591 N647 2.257 . S
O592 Co590 2.143 . S
O592 Co591 2.160 . S
C593 O594 1.278 . S
C593 O601 1.224 . S
O594 C593 1.278 . S
C595 O596 1.245 . S
C595 O607 1.232 . S
O596 C595 1.245 . S
O597 Co591 2.058 . S
O597 C623 1.269 . S
O598 Co590 2.074 . S
O598 C623 1.257 . S
H599 C624 0.930 . S
H600 C630 0.930 . S
O601 Co590 2.093 . S
O601 C593 1.224 . S
H602 C634 0.929 . S
H603 C636 0.930 . S
H604 C637 0.930 . S
H605 C635 0.929 . S
H606 C638 0.928 . S
O607 Co591 2.057 . S
O607 C595 1.232 . S
H608 C627 0.929 . S
H609 C628 0.929 . S
H610 C640 0.931 . S
H611 C632 0.929 . S
H612 C641 0.930 . S
H613 C633 0.931 . S
O614 Co590 2.097 . S
O614 C642 1.214 . S
H615 C643 0.929 . S
H616 C644 0.929 . S
H617 C645 0.930 . S
H618 C646 0.929 . S
H619 C648 0.930 . S
H620 C625 0.930 . S
H621 C629 0.930 . S
O622 Co591 2.037 . S
O622 C642 1.234 . S
C623 O597 1.269 . S
C623 O598 1.257 . S
C624 H599 0.930 . S
C624 C627 1.388 . S
C624 C629 1.418 . S
C625 H620 0.930 . S
C625 C628 1.404 . S
C625 C629 1.353 . S
N626 Co591 2.145 . S
N626 C627 1.397 . S
N626 C628 1.334 . S
C627 H608 0.929 . S
C627 C624 1.388 . S
C627 N626 1.397 . S
C628 H609 0.929 . S
C628 C625 1.404 . S
C628 N626 1.334 . S
C629 H621 0.930 . S
C629 C624 1.418 . S
C629 C625 1.353 . S
C630 H600 0.930 . S
C630 N631 1.330 . S
C630 C632 1.446 . S
N631 Co590 2.151 . S
N631 C630 1.330 . S
N631 C635 1.418 . S
C632 H611 0.929 . S
C632 C630 1.446 . S
C632 C633 1.332 . S
C633 H613 0.931 . S
C633 C632 1.332 . S
C633 C634 1.267 . S
C634 H602 0.929 . S
C634 C633 1.267 . S
C634 C635 1.251 . S
C635 H605 0.929 . S
C635 N631 1.418 . S
C635 C634 1.251 . S
C636 H603 0.930 . S
C636 C638 1.406 . S
C636 C641 1.261 . S
C637 H604 0.930 . S
C637 N639 1.325 . S
C637 C640 1.357 . S
C638 H606 0.928 . S
C638 C636 1.406 . S
C638 N639 1.261 . S
N639 Co590 2.214 . S
N639 C637 1.325 . S
N639 C638 1.261 . S
C640 H610 0.931 . S
C640 C637 1.357 . S
C640 C641 1.312 . S
C641 H612 0.930 . S
C641 C636 1.261 . S
C641 C640 1.312 . S
C642 O614 1.214 . S
C642 O622 1.234 . S
C643 H615 0.929 . S
C643 C646 1.391 . S
C643 C648 1.391 . S
C644 H616 0.929 . S
C644 C645 1.390 . S
C644 N647 1.391 . S
C645 H617 0.930 . S
C645 C644 1.390 . S
C645 C646 1.392 . S
C646 H618 0.929 . S
C646 C643 1.391 . S
C646 C645 1.392 . S
N647 Co591 2.257 . S
N647 C644 1.391 . S
N647 C648 1.388 . S
C648 H619 0.930 . S
C648 C643 1.391 . S
C648 N647 1.388 . S
Co649 O651 2.143 . S
Co649 O657 2.074 . S
Co649 O660 2.093 . S
Co649 O673 2.097 . S
Co649 N690 2.151 . S
Co649 N698 2.214 . S
Co650 O651 2.160 . S
Co650 O656 2.058 . S
Co650 O666 2.057 . S
Co650 O681 2.037 . S
Co650 N685 2.145 . S
Co650 N706 2.257 . S
O651 Co649 2.143 . S
O651 Co650 2.160 . S
C652 O653 1.278 . S
C652 O660 1.224 . S
O653 C652 1.278 . S
C654 O655 1.245 . S
C654 O666 1.232 . S
O655 C654 1.245 . S
O656 Co650 2.058 . S
O656 C682 1.269 . S
O657 Co649 2.074 . S
O657 C682 1.257 . S
H658 C683 0.930 . S
H659 C689 0.930 . S
O660 Co649 2.093 . S
O660 C652 1.224 . S
H661 C693 0.929 . S
H662 C695 0.930 . S
H663 C696 0.930 . S
H664 C694 0.929 . S
H665 C697 0.928 . S
O666 Co650 2.057 . S
O666 C654 1.232 . S
H667 C686 0.929 . S
H668 C687 0.929 . S
H669 C699 0.931 . S
H670 C691 0.929 . S
H671 C700 0.930 . S
H672 C692 0.931 . S
O673 Co649 2.097 . S
O673 C701 1.214 . S
H674 C702 0.929 . S
H675 C703 0.929 . S
H676 C704 0.930 . S
H677 C705 0.929 . S
H678 C707 0.930 . S
H679 C684 0.930 . S
H680 C688 0.930 . S
O681 Co650 2.037 . S
O681 C701 1.234 . S
C682 O656 1.269 . S
C682 O657 1.257 . S
C683 H658 0.930 . S
C683 C686 1.388 . S
C683 C688 1.418 . S
C684 H679 0.930 . S
C684 C687 1.404 . S
C684 C688 1.353 . S
N685 Co650 2.145 . S
N685 C686 1.397 . S
N685 C687 1.334 . S
C686 H667 0.929 . S
C686 C683 1.388 . S
C686 N685 1.397 . S
C687 H668 0.929 . S
C687 C684 1.404 . S
C687 N685 1.334 . S
C688 H680 0.930 . S
C688 C683 1.418 . S
C688 C684 1.353 . S
C689 H659 0.930 . S
C689 N690 1.330 . S
C689 C691 1.446 . S
N690 Co649 2.151 . S
N690 C689 1.330 . S
N690 C694 1.418 . S
C691 H670 0.929 . S
C691 C689 1.446 . S
C691 C692 1.332 . S
C692 H672 0.931 . S
C692 C691 1.332 . S
C692 C693 1.267 . S
C693 H661 0.929 . S
C693 C692 1.267 . S
C693 C694 1.251 . S
C694 H664 0.929 . S
C694 N690 1.418 . S
C694 C693 1.251 . S
C695 H662 0.930 . S
C695 C697 1.406 . S
C695 C700 1.261 . S
C696 H663 0.930 . S
C696 N698 1.325 . S
C696 C699 1.357 . S
C697 H665 0.928 . S
C697 C695 1.406 . S
C697 N698 1.261 . S
N698 Co649 2.214 . S
N698 C696 1.325 . S
N698 C697 1.261 . S
C699 H669 0.931 . S
C699 C696 1.357 . S
C699 C700 1.312 . S
C700 H671 0.930 . S
C700 C695 1.261 . S
C700 C699 1.312 . S
C701 O673 1.214 . S
C701 O681 1.234 . S
C702 H674 0.929 . S
C702 C705 1.391 . S
C702 C707 1.391 . S
C703 H675 0.929 . S
C703 C704 1.390 . S
C703 N706 1.391 . S
C704 H676 0.930 . S
C704 C703 1.390 . S
C704 C705 1.392 . S
C705 H677 0.929 . S
C705 C702 1.391 . S
C705 C704 1.392 . S
N706 Co650 2.257 . S
N706 C703 1.391 . S
N706 C707 1.388 . S
C707 H678 0.930 . S
C707 C702 1.391 . S
C707 N706 1.388 . S
Co708 O710 2.143 . S
Co708 O716 2.074 . S
Co708 O719 2.093 . S
Co708 O732 2.097 . S
Co708 N749 2.151 . S
Co708 N757 2.214 . S
Co709 O710 2.160 . S
Co709 O715 2.058 . S
Co709 O725 2.057 . S
Co709 O740 2.037 . S
Co709 N744 2.145 . S
Co709 N765 2.257 . S
O710 Co708 2.143 . S
O710 Co709 2.160 . S
C711 O712 1.278 . S
C711 O719 1.224 . S
O712 C711 1.278 . S
C713 O714 1.245 . S
C713 O725 1.232 . S
O714 C713 1.245 . S
O715 Co709 2.058 . S
O715 C741 1.269 . S
O716 Co708 2.074 . S
O716 C741 1.257 . S
H717 C742 0.930 . S
H718 C748 0.930 . S
O719 Co708 2.093 . S
O719 C711 1.224 . S
H720 C752 0.929 . S
H721 C754 0.930 . S
H722 C755 0.930 . S
H723 C753 0.929 . S
H724 C756 0.928 . S
O725 Co709 2.057 . S
O725 C713 1.232 . S
H726 C745 0.929 . S
H727 C746 0.929 . S
H728 C758 0.931 . S
H729 C750 0.929 . S
H730 C759 0.930 . S
H731 C751 0.931 . S
O732 Co708 2.097 . S
O732 C760 1.214 . S
H733 C761 0.929 . S
H734 C762 0.929 . S
H735 C763 0.930 . S
H736 C764 0.929 . S
H737 C766 0.930 . S
H738 C743 0.930 . S
H739 C747 0.930 . S
O740 Co709 2.037 . S
O740 C760 1.234 . S
C741 O715 1.269 . S
C741 O716 1.257 . S
C742 H717 0.930 . S
C742 C745 1.388 . S
C742 C747 1.418 . S
C743 H738 0.930 . S
C743 C746 1.404 . S
C743 C747 1.353 . S
N744 Co709 2.145 . S
N744 C745 1.397 . S
N744 C746 1.334 . S
C745 H726 0.929 . S
C745 C742 1.388 . S
C745 N744 1.397 . S
C746 H727 0.929 . S
C746 C743 1.404 . S
C746 N744 1.334 . S
C747 H739 0.930 . S
C747 C742 1.418 . S
C747 C743 1.353 . S
C748 H718 0.930 . S
C748 N749 1.330 . S
C748 C750 1.446 . S
N749 Co708 2.151 . S
N749 C748 1.330 . S
N749 C753 1.418 . S
C750 H729 0.929 . S
C750 C748 1.446 . S
C750 C751 1.332 . S
C751 H731 0.931 . S
C751 C750 1.332 . S
C751 C752 1.267 . S
C752 H720 0.929 . S
C752 C751 1.267 . S
C752 C753 1.251 . S
C753 H723 0.929 . S
C753 N749 1.418 . S
C753 C752 1.251 . S
C754 H721 0.930 . S
C754 C756 1.406 . S
C754 C759 1.261 . S
C755 H722 0.930 . S
C755 N757 1.325 . S
C755 C758 1.357 . S
C756 H724 0.928 . S
C756 C754 1.406 . S
C756 N757 1.261 . S
N757 Co708 2.214 . S
N757 C755 1.325 . S
N757 C756 1.261 . S
C758 H728 0.931 . S
C758 C755 1.357 . S
C758 C759 1.312 . S
C759 H730 0.930 . S
C759 C754 1.261 . S
C759 C758 1.312 . S
C760 O732 1.214 . S
C760 O740 1.234 . S
C761 H733 0.929 . S
C761 C764 1.391 . S
C761 C766 1.391 . S
C762 H734 0.929 . S
C762 C763 1.390 . S
C762 N765 1.391 . S
C763 H735 0.930 . S
C763 C762 1.390 . S
C763 C764 1.392 . S
C764 H736 0.929 . S
C764 C761 1.391 . S
C764 C763 1.392 . S
N765 Co709 2.257 . S
N765 C762 1.391 . S
N765 C766 1.388 . S
C766 H737 0.930 . S
C766 C761 1.391 . S
C766 N765 1.388 . S
Co767 O769 2.143 . S
Co767 O775 2.074 . S
Co767 O778 2.093 . S
Co767 O791 2.097 . S
Co767 N808 2.151 . S
Co767 N816 2.214 . S
Co768 O769 2.160 . S
Co768 O774 2.058 . S
Co768 O784 2.057 . S
Co768 O799 2.037 . S
Co768 N803 2.145 . S
Co768 N824 2.257 . S
O769 Co767 2.143 . S
O769 Co768 2.160 . S
C770 O771 1.278 . S
C770 O778 1.224 . S
O771 C770 1.278 . S
C772 O773 1.245 . S
C772 O784 1.232 . S
O773 C772 1.245 . S
O774 Co768 2.058 . S
O774 C800 1.269 . S
O775 Co767 2.074 . S
O775 C800 1.257 . S
H776 C801 0.930 . S
H777 C807 0.930 . S
O778 Co767 2.093 . S
O778 C770 1.224 . S
H779 C811 0.929 . S
H780 C813 0.930 . S
H781 C814 0.930 . S
H782 C812 0.929 . S
H783 C815 0.928 . S
O784 Co768 2.057 . S
O784 C772 1.232 . S
H785 C804 0.929 . S
H786 C805 0.929 . S
H787 C817 0.931 . S
H788 C809 0.929 . S
H789 C818 0.930 . S
H790 C810 0.931 . S
O791 Co767 2.097 . S
O791 C819 1.214 . S
H792 C820 0.929 . S
H793 C821 0.929 . S
H794 C822 0.930 . S
H795 C823 0.929 . S
H796 C825 0.930 . S
H797 C802 0.930 . S
H798 C806 0.930 . S
O799 Co768 2.037 . S
O799 C819 1.234 . S
C800 O774 1.269 . S
C800 O775 1.257 . S
C801 H776 0.930 . S
C801 C804 1.388 . S
C801 C806 1.418 . S
C802 H797 0.930 . S
C802 C805 1.404 . S
C802 C806 1.353 . S
N803 Co768 2.145 . S
N803 C804 1.397 . S
N803 C805 1.334 . S
C804 H785 0.929 . S
C804 C801 1.388 . S
C804 N803 1.397 . S
C805 H786 0.929 . S
C805 C802 1.404 . S
C805 N803 1.334 . S
C806 H798 0.930 . S
C806 C801 1.418 . S
C806 C802 1.353 . S
C807 H777 0.930 . S
C807 N808 1.330 . S
C807 C809 1.446 . S
N808 Co767 2.151 . S
N808 C807 1.330 . S
N808 C812 1.418 . S
C809 H788 0.929 . S
C809 C807 1.446 . S
C809 C810 1.332 . S
C810 H790 0.931 . S
C810 C809 1.332 . S
C810 C811 1.267 . S
C811 H779 0.929 . S
C811 C810 1.267 . S
C811 C812 1.251 . S
C812 H782 0.929 . S
C812 N808 1.418 . S
C812 C811 1.251 . S
C813 H780 0.930 . S
C813 C815 1.406 . S
C813 C818 1.261 . S
C814 H781 0.930 . S
C814 N816 1.325 . S
C814 C817 1.357 . S
C815 H783 0.928 . S
C815 C813 1.406 . S
C815 N816 1.261 . S
N816 Co767 2.214 . S
N816 C814 1.325 . S
N816 C815 1.261 . S
C817 H787 0.931 . S
C817 C814 1.357 . S
C817 C818 1.312 . S
C818 H789 0.930 . S
C818 C813 1.261 . S
C818 C817 1.312 . S
C819 O791 1.214 . S
C819 O799 1.234 . S
C820 H792 0.929 . S
C820 C823 1.391 . S
C820 C825 1.391 . S
C821 H793 0.929 . S
C821 C822 1.390 . S
C821 N824 1.391 . S
C822 H794 0.930 . S
C822 C821 1.390 . S
C822 C823 1.392 . S
C823 H795 0.929 . S
C823 C820 1.391 . S
C823 C822 1.392 . S
N824 Co768 2.257 . S
N824 C821 1.391 . S
N824 C825 1.388 . S
C825 H796 0.930 . S
C825 C820 1.391 . S
C825 N824 1.388 . S
Co826 O828 2.143 . S
Co826 O834 2.074 . S
Co826 O837 2.093 . S
Co826 O850 2.097 . S
Co826 N867 2.151 . S
Co826 N875 2.214 . S
Co827 O828 2.160 . S
Co827 O833 2.058 . S
Co827 O843 2.057 . S
Co827 O858 2.037 . S
Co827 N862 2.145 . S
Co827 N883 2.257 . S
O828 Co826 2.143 . S
O828 Co827 2.160 . S
C829 O830 1.278 . S
C829 O837 1.224 . S
O830 C829 1.278 . S
C831 O832 1.245 . S
C831 O843 1.232 . S
O832 C831 1.245 . S
O833 Co827 2.058 . S
O833 C859 1.269 . S
O834 Co826 2.074 . S
O834 C859 1.257 . S
H835 C860 0.930 . S
H836 C866 0.930 . S
O837 Co826 2.093 . S
O837 C829 1.224 . S
H838 C870 0.929 . S
H839 C872 0.930 . S
H840 C873 0.930 . S
H841 C871 0.929 . S
H842 C874 0.928 . S
O843 Co827 2.057 . S
O843 C831 1.232 . S
H844 C863 0.929 . S
H845 C864 0.929 . S
H846 C876 0.931 . S
H847 C868 0.929 . S
H848 C877 0.930 . S
H849 C869 0.931 . S
O850 Co826 2.097 . S
O850 C878 1.214 . S
H851 C879 0.929 . S
H852 C880 0.929 . S
H853 C881 0.930 . S
H854 C882 0.929 . S
H855 C884 0.930 . S
H856 C861 0.930 . S
H857 C865 0.930 . S
O858 Co827 2.037 . S
O858 C878 1.234 . S
C859 O833 1.269 . S
C859 O834 1.257 . S
C860 H835 0.930 . S
C860 C863 1.388 . S
C860 C865 1.418 . S
C861 H856 0.930 . S
C861 C864 1.404 . S
C861 C865 1.353 . S
N862 Co827 2.145 . S
N862 C863 1.397 . S
N862 C864 1.334 . S
C863 H844 0.929 . S
C863 C860 1.388 . S
C863 N862 1.397 . S
C864 H845 0.929 . S
C864 C861 1.404 . S
C864 N862 1.334 . S
C865 H857 0.930 . S
C865 C860 1.418 . S
C865 C861 1.353 . S
C866 H836 0.930 . S
C866 N867 1.330 . S
C866 C868 1.446 . S
N867 Co826 2.151 . S
N867 C866 1.330 . S
N867 C871 1.418 . S
C868 H847 0.929 . S
C868 C866 1.446 . S
C868 C869 1.332 . S
C869 H849 0.931 . S
C869 C868 1.332 . S
C869 C870 1.267 . S
C870 H838 0.929 . S
C870 C869 1.267 . S
C870 C871 1.251 . S
C871 H841 0.929 . S
C871 N867 1.418 . S
C871 C870 1.251 . S
C872 H839 0.930 . S
C872 C874 1.406 . S
C872 C877 1.261 . S
C873 H840 0.930 . S
C873 N875 1.325 . S
C873 C876 1.357 . S
C874 H842 0.928 . S
C874 C872 1.406 . S
C874 N875 1.261 . S
N875 Co826 2.214 . S
N875 C873 1.325 . S
N875 C874 1.261 . S
C876 H846 0.931 . S
C876 C873 1.357 . S
C876 C877 1.312 . S
C877 H848 0.930 . S
C877 C872 1.261 . S
C877 C876 1.312 . S
C878 O850 1.214 . S
C878 O858 1.234 . S
C879 H851 0.929 . S
C879 C882 1.391 . S
C879 C884 1.391 . S
C880 H852 0.929 . S
C880 C881 1.390 . S
C880 N883 1.391 . S
C881 H853 0.930 . S
C881 C880 1.390 . S
C881 C882 1.392 . S
C882 H854 0.929 . S
C882 C879 1.391 . S
C882 C881 1.392 . S
N883 Co827 2.257 . S
N883 C880 1.391 . S
N883 C884 1.388 . S
C884 H855 0.930 . S
C884 C879 1.391 . S
C884 N883 1.388 . S
Co885 O887 2.143 . S
Co885 O893 2.074 . S
Co885 O896 2.093 . S
Co885 O909 2.097 . S
Co885 N926 2.151 . S
Co885 N934 2.214 . S
Co886 O887 2.160 . S
Co886 O892 2.058 . S
Co886 O902 2.057 . S
Co886 O917 2.037 . S
Co886 N921 2.145 . S
Co886 N942 2.257 . S
O887 Co885 2.143 . S
O887 Co886 2.160 . S
C888 O889 1.278 . S
C888 O896 1.224 . S
O889 C888 1.278 . S
C890 O891 1.245 . S
C890 O902 1.232 . S
O891 C890 1.245 . S
O892 Co886 2.058 . S
O892 C918 1.269 . S
O893 Co885 2.074 . S
O893 C918 1.257 . S
H894 C919 0.930 . S
H895 C925 0.930 . S
O896 Co885 2.093 . S
O896 C888 1.224 . S
H897 C929 0.929 . S
H898 C931 0.930 . S
H899 C932 0.930 . S
H900 C930 0.929 . S
H901 C933 0.928 . S
O902 Co886 2.057 . S
O902 C890 1.232 . S
H903 C922 0.929 . S
H904 C923 0.929 . S
H905 C935 0.931 . S
H906 C927 0.929 . S
H907 C936 0.930 . S
H908 C928 0.931 . S
O909 Co885 2.097 . S
O909 C937 1.214 . S
H910 C938 0.929 . S
H911 C939 0.929 . S
H912 C940 0.930 . S
H913 C941 0.929 . S
H914 C943 0.930 . S
H915 C920 0.930 . S
H916 C924 0.930 . S
O917 Co886 2.037 . S
O917 C937 1.234 . S
C918 O892 1.269 . S
C918 O893 1.257 . S
C919 H894 0.930 . S
C919 C922 1.388 . S
C919 C924 1.418 . S
C920 H915 0.930 . S
C920 C923 1.404 . S
C920 C924 1.353 . S
N921 Co886 2.145 . S
N921 C922 1.397 . S
N921 C923 1.334 . S
C922 H903 0.929 . S
C922 C919 1.388 . S
C922 N921 1.397 . S
C923 H904 0.929 . S
C923 C920 1.404 . S
C923 N921 1.334 . S
C924 H916 0.930 . S
C924 C919 1.418 . S
C924 C920 1.353 . S
C925 H895 0.930 . S
C925 N926 1.330 . S
C925 C927 1.446 . S
N926 Co885 2.151 . S
N926 C925 1.330 . S
N926 C930 1.418 . S
C927 H906 0.929 . S
C927 C925 1.446 . S
C927 C928 1.332 . S
C928 H908 0.931 . S
C928 C927 1.332 . S
C928 C929 1.267 . S
C929 H897 0.929 . S
C929 C928 1.267 . S
C929 C930 1.251 . S
C930 H900 0.929 . S
C930 N926 1.418 . S
C930 C929 1.251 . S
C931 H898 0.930 . S
C931 C933 1.406 . S
C931 C936 1.261 . S
C932 H899 0.930 . S
C932 N934 1.325 . S
C932 C935 1.357 . S
C933 H901 0.928 . S
C933 C931 1.406 . S
C933 N934 1.261 . S
N934 Co885 2.214 . S
N934 C932 1.325 . S
N934 C933 1.261 . S
C935 H905 0.931 . S
C935 C932 1.357 . S
C935 C936 1.312 . S
C936 H907 0.930 . S
C936 C931 1.261 . S
C936 C935 1.312 . S
C937 O909 1.214 . S
C937 O917 1.234 . S
C938 H910 0.929 . S
C938 C941 1.391 . S
C938 C943 1.391 . S
C939 H911 0.929 . S
C939 C940 1.390 . S
C939 N942 1.391 . S
C940 H912 0.930 . S
C940 C939 1.390 . S
C940 C941 1.392 . S
C941 H913 0.929 . S
C941 C938 1.391 . S
C941 C940 1.392 . S
N942 Co886 2.257 . S
N942 C939 1.391 . S
N942 C943 1.388 . S
C943 H914 0.930 . S
C943 C938 1.391 . S
C943 N942 1.388 . S
H944 C952 0.929 . S
H945 C954 0.930 . S
H946 C956 0.930 . S
H947 C959 0.929 . S
H948 C962 0.930 . S
H949 C964 0.960 . S
H950 C964 0.960 . S
H951 C964 0.960 . S
C952 H944 0.929 . S
C952 C953 1.377 . S
C952 C954 1.384 . S
C953 C952 1.377 . S
C953 C959 1.390 . S
C954 H945 0.930 . S
C954 C952 1.384 . S
C954 C955 1.372 . S
C955 C954 1.372 . S
C955 C956 1.400 . S
C955 C960 1.490 . S
C956 H946 0.930 . S
C956 C955 1.400 . S
C956 C959 1.386 . S
H957 C973 0.930 . S
H958 C974 0.931 . S
C959 H947 0.929 . S
C959 C953 1.390 . S
C959 C956 1.386 . S
C960 C955 1.490 . S
C960 C962 1.395 . S
C960 C963 1.403 . S
H961 C967 0.930 . S
C962 H948 0.930 . S
C962 C960 1.395 . S
C962 C965 1.403 . S
C963 C960 1.403 . S
C963 C964 1.524 . S
C963 C967 1.400 . S
C964 H949 0.960 . S
C964 H950 0.960 . S
C964 H951 0.960 . S
C964 C963 1.524 . S
C965 C962 1.403 . S
C965 C966 1.392 . S
C965 C969 1.495 . S
C966 C965 1.392 . S
C966 C967 1.385 . S
C966 C968 1.478 . S
C967 H961 0.930 . S
C967 C963 1.400 . S
C967 C966 1.385 . S
C968 C966 1.478 . S
C968 C970 1.381 . S
C968 C974 1.383 . S
C969 C965 1.495 . S
C969 H975 0.959 . S
C969 H976 0.961 . S
C969 H977 0.960 . S
C970 C968 1.381 . S
C970 C971 1.394 . S
C970 H978 0.930 . S
C971 C970 1.394 . S
C971 C972 1.383 . S
C971 H979 0.929 . S
C972 C971 1.383 . S
C972 C973 1.377 . S
C973 H957 0.930 . S
C973 C972 1.377 . S
C973 C974 1.379 . S
C974 H958 0.931 . S
C974 C968 1.383 . S
C974 C973 1.379 . S
H975 C969 0.959 . S
H976 C969 0.961 . S
H977 C969 0.960 . S
H978 C970 0.930 . S
H979 C971 0.929 . S
H980 C988 0.929 . S
H981 C990 0.930 . S
H982 C992 0.930 . S
H983 C995 0.929 1_455 S
H984 C998 0.930 . S
H985 C1000 0.960 . S
H986 C1000 0.960 . S
H987 C1000 0.960 . S
C988 H980 0.929 . S
C988 C989 1.377 . S
C988 C990 1.384 . S
C989 C988 1.377 . S
C989 C995 1.390 . S
C990 H981 0.930 . S
C990 C988 1.384 . S
C990 C991 1.372 . S
C991 C990 1.372 . S
C991 C992 1.400 . S
C991 C996 1.490 . S
C992 H982 0.930 . S
C992 C991 1.400 . S
C992 C995 1.386 . S
H993 C1009 0.930 . S
H994 C1010 0.931 . S
C995 H983 0.929 1_655 S
C995 C989 1.390 . S
C995 C992 1.386 . S
C996 C991 1.490 . S
C996 C998 1.395 . S
C996 C999 1.403 . S
H997 C1003 0.930 . S
C998 H984 0.930 . S
C998 C996 1.395 . S
C998 C1001 1.403 . S
C999 C996 1.403 . S
C999 C1000 1.524 . S
C999 C1003 1.400 . S
C1000 H985 0.960 . S
C1000 H986 0.960 . S
C1000 H987 0.960 . S
C1000 C999 1.524 . S
C1001 C998 1.403 . S
C1001 C1002 1.392 . S
C1001 C1005 1.495 . S
C1002 C1001 1.392 . S
C1002 C1003 1.385 . S
C1002 C1004 1.478 . S
C1003 H997 0.930 . S
C1003 C999 1.400 . S
C1003 C1002 1.385 . S
C1004 C1002 1.478 . S
C1004 C1006 1.381 . S
C1004 C1010 1.383 . S
C1005 C1001 1.495 . S
C1005 H1011 0.959 . S
C1005 H1012 0.961 . S
C1005 H1013 0.960 . S
C1006 C1004 1.381 . S
C1006 C1007 1.394 . S
C1006 H1014 0.930 . S
C1007 C1006 1.394 . S
C1007 C1008 1.383 . S
C1007 H1015 0.929 . S
C1008 C1007 1.383 . S
C1008 C1009 1.377 . S
C1009 H993 0.930 . S
C1009 C1008 1.377 . S
C1009 C1010 1.379 . S
C1010 H994 0.931 . S
C1010 C1004 1.383 . S
C1010 C1009 1.379 . S
H1011 C1005 0.959 . S
H1012 C1005 0.961 . S
H1013 C1005 0.960 . S
H1014 C1006 0.930 . S
H1015 C1007 0.929 . S
H1016 C1024 0.929 . S
H1017 C1026 0.930 . S
H1018 C1028 0.930 . S
H1019 C1031 0.902 1_545 S
H1020 C1034 0.930 . S
H1021 C1036 0.960 . S
H1022 C1036 0.960 . S
H1023 C1036 0.960 . S
C1024 H1016 0.929 . S
C1024 C1025 1.377 . S
C1024 C1026 1.384 . S
C1025 C1024 1.377 . S
C1025 C1031 1.390 . S
C1026 H1017 0.930 . S
C1026 C1024 1.384 . S
C1026 C1027 1.372 . S
C1027 C1026 1.372 . S
C1027 C1028 1.400 . S
C1027 C1032 1.490 . S
C1028 H1018 0.930 . S
C1028 C1027 1.400 . S
C1028 C1031 1.386 . S
H1029 C1045 0.930 . S
H1030 C1046 0.931 . S
C1031 H1019 0.902 1_565 S
C1031 C1025 1.390 . S
C1031 C1028 1.386 . S
C1032 C1027 1.490 . S
C1032 C1034 1.395 . S
C1032 C1035 1.403 . S
H1033 C1039 0.930 . S
C1034 H1020 0.930 . S
C1034 C1032 1.395 . S
C1034 C1037 1.403 . S
C1035 C1032 1.403 . S
C1035 C1036 1.524 . S
C1035 C1039 1.400 . S
C1036 H1021 0.960 . S
C1036 H1022 0.960 . S
C1036 H1023 0.960 . S
C1036 C1035 1.524 . S
C1037 C1034 1.403 . S
C1037 C1038 1.392 . S
C1037 C1041 1.495 . S
C1038 C1037 1.392 . S
C1038 C1039 1.385 . S
C1038 C1040 1.478 . S
C1039 H1033 0.930 . S
C1039 C1035 1.400 . S
C1039 C1038 1.385 . S
C1040 C1038 1.478 . S
C1040 C1042 1.381 . S
C1040 C1046 1.383 . S
C1041 C1037 1.495 . S
C1041 H1047 0.959 . S
C1041 H1048 0.961 . S
C1041 H1049 0.960 . S
C1042 C1040 1.381 . S
C1042 C1043 1.394 . S
C1042 H1050 0.930 . S
C1043 C1042 1.394 . S
C1043 C1044 1.383 . S
C1043 H1051 0.929 . S
C1044 C1043 1.383 . S
C1044 C1045 1.377 . S
C1045 H1029 0.930 . S
C1045 C1044 1.377 . S
C1045 C1046 1.379 . S
C1046 H1030 0.931 . S
C1046 C1040 1.383 . S
C1046 C1045 1.379 . S
H1047 C1041 0.959 . S
H1048 C1041 0.961 . S
H1049 C1041 0.960 . S
H1050 C1042 0.930 . S
H1051 C1043 0.929 . S
H1052 C1060 0.929 . S
H1053 C1062 0.930 . S
H1054 C1064 0.930 . S
H1055 C1067 0.929 . S
H1056 C1070 0.930 . S
H1057 C1072 0.960 . S
H1058 C1072 0.960 . S
H1059 C1072 0.960 . S
C1060 H1052 0.929 . S
C1060 C1061 1.377 . S
C1060 C1062 1.384 . S
C1061 C1060 1.377 . S
C1061 C1067 1.390 . S
C1062 H1053 0.930 . S
C1062 C1060 1.384 . S
C1062 C1063 1.372 . S
C1063 C1062 1.372 . S
C1063 C1064 1.400 . S
C1063 C1068 1.490 . S
C1064 H1054 0.930 . S
C1064 C1063 1.400 . S
C1064 C1067 1.386 . S
H1065 C1081 0.930 . S
H1066 C1082 0.931 . S
C1067 H1055 0.929 . S
C1067 C1061 1.390 . S
C1067 C1064 1.386 . S
C1068 C1063 1.490 . S
C1068 C1070 1.395 . S
C1068 C1071 1.403 . S
H1069 C1075 0.930 . S
C1070 H1056 0.930 . S
C1070 C1068 1.395 . S
C1070 C1073 1.403 . S
C1071 C1068 1.403 . S
C1071 C1072 1.524 . S
C1071 C1075 1.400 . S
C1072 H1057 0.960 . S
C1072 H1058 0.960 . S
C1072 H1059 0.960 . S
C1072 C1071 1.524 . S
C1073 C1070 1.403 . S
C1073 C1074 1.392 . S
C1073 C1077 1.495 . S
C1074 C1073 1.392 . S
C1074 C1075 1.385 . S
C1074 C1076 1.478 . S
C1075 H1069 0.930 . S
C1075 C1071 1.400 . S
C1075 C1074 1.385 . S
C1076 C1074 1.478 . S
C1076 C1078 1.381 . S
C1076 C1082 1.383 . S
C1077 C1073 1.495 . S
C1077 H1083 0.959 . S
C1077 H1084 0.961 . S
C1077 H1085 0.960 . S
C1078 C1076 1.381 . S
C1078 C1079 1.394 . S
C1078 H1086 0.930 . S
C1079 C1078 1.394 . S
C1079 C1080 1.383 . S
C1079 H1087 0.929 . S
C1080 C1079 1.383 . S
C1080 C1081 1.377 . S
C1081 H1065 0.930 . S
C1081 C1080 1.377 . S
C1081 C1082 1.379 . S
C1082 H1066 0.931 . S
C1082 C1076 1.383 . S
C1082 C1081 1.379 . S
H1083 C1077 0.959 . S
H1084 C1077 0.961 . S
H1085 C1077 0.960 . S
H1086 C1078 0.930 . S
H1087 C1079 0.929 . S
H1088 C1096 0.929 . S
H1089 C1098 0.930 . S
H1090 C1100 0.930 . S
H1091 C1103 0.929 . S
H1092 C1106 0.930 . S
H1093 C1108 0.960 . S
H1094 C1108 0.960 . S
H1095 C1108 0.960 . S
C1096 H1088 0.929 . S
C1096 C1097 1.377 . S
C1096 C1098 1.384 . S
C1097 C1096 1.377 . S
C1097 C1103 1.390 . S
C1098 H1089 0.930 . S
C1098 C1096 1.384 . S
C1098 C1099 1.372 . S
C1099 C1098 1.372 . S
C1099 C1100 1.400 . S
C1099 C1104 1.490 . S
C1100 H1090 0.930 . S
C1100 C1099 1.400 . S
C1100 C1103 1.386 . S
H1101 C1117 0.928 . S
H1102 C1118 0.931 . S
C1103 H1091 0.929 . S
C1103 C1097 1.390 . S
C1103 C1100 1.386 . S
C1104 C1099 1.490 . S
C1104 C1106 1.395 . S
C1104 C1107 1.403 . S
H1105 C1111 0.930 . S
C1106 H1092 0.930 . S
C1106 C1104 1.395 . S
C1106 C1109 1.403 . S
C1107 C1104 1.403 . S
C1107 C1108 1.524 . S
C1107 C1111 1.400 . S
C1108 H1093 0.960 . S
C1108 H1094 0.960 . S
C1108 H1095 0.960 . S
C1108 C1107 1.524 . S
C1109 C1106 1.403 . S
C1109 C1110 1.392 . S
C1109 C1113 1.495 . S
C1110 C1109 1.392 . S
C1110 C1111 1.385 . S
C1110 C1112 1.478 . S
C1111 H1105 0.930 . S
C1111 C1107 1.400 . S
C1111 C1110 1.385 . S
C1112 C1110 1.478 . S
C1112 C1114 1.381 . S
C1112 C1118 1.383 . S
C1113 C1109 1.495 . S
C1113 H1119 0.959 . S
C1113 H1120 0.961 . S
C1113 H1121 0.960 . S
C1114 C1112 1.381 . S
C1114 C1115 1.394 . S
C1114 H1122 0.930 . S
C1115 C1114 1.394 . S
C1115 C1116 1.383 . S
C1115 H1123 0.929 . S
C1116 C1115 1.383 . S
C1116 C1117 1.377 . S
C1117 H1101 0.928 . S
C1117 C1116 1.377 . S
C1117 C1118 1.379 . S
C1118 H1102 0.931 . S
C1118 C1112 1.383 . S
C1118 C1117 1.379 . S
H1119 C1113 0.959 . S
H1120 C1113 0.961 . S
H1121 C1113 0.960 . S
H1122 C1114 0.930 . S
H1123 C1115 0.929 . S
H1124 C1132 0.929 . S
H1125 C1134 0.930 . S
H1126 C1136 0.930 . S
H1127 C1139 0.929 . S
H1128 C1142 0.930 . S
H1129 C1144 0.960 . S
H1130 C1144 0.960 . S
H1131 C1144 0.960 . S
C1132 H1124 0.929 . S
C1132 C1133 1.377 . S
C1132 C1134 1.384 . S
C1133 C1132 1.377 . S
C1133 C1139 1.390 . S
C1134 H1125 0.930 . S
C1134 C1132 1.384 . S
C1134 C1135 1.372 . S
C1135 C1134 1.372 . S
C1135 C1136 1.400 . S
C1135 C1140 1.490 . S
C1136 H1126 0.930 . S
C1136 C1135 1.400 . S
C1136 C1139 1.386 . S
H1137 C1153 0.930 . S
H1138 C1154 0.931 . S
C1139 H1127 0.929 . S
C1139 C1133 1.390 . S
C1139 C1136 1.386 . S
C1140 C1135 1.490 . S
C1140 C1142 1.395 . S
C1140 C1143 1.403 . S
H1141 C1147 0.930 . S
C1142 H1128 0.930 . S
C1142 C1140 1.395 . S
C1142 C1145 1.403 . S
C1143 C1140 1.403 . S
C1143 C1144 1.524 . S
C1143 C1147 1.400 . S
C1144 H1129 0.960 . S
C1144 H1130 0.960 . S
C1144 H1131 0.960 . S
C1144 C1143 1.524 . S
C1145 C1142 1.403 . S
C1145 C1146 1.392 . S
C1145 C1149 1.495 . S
C1146 C1145 1.392 . S
C1146 C1147 1.385 . S
C1146 C1148 1.478 . S
C1147 H1141 0.930 . S
C1147 C1143 1.400 . S
C1147 C1146 1.385 . S
C1148 C1146 1.478 . S
C1148 C1150 1.381 . S
C1148 C1154 1.383 . S
C1149 C1145 1.495 . S
C1149 H1155 0.959 . S
C1149 H1156 0.961 . S
C1149 H1157 0.960 . S
C1150 C1148 1.381 . S
C1150 C1151 1.394 . S
C1150 H1158 0.930 . S
C1151 C1150 1.394 . S
C1151 C1152 1.383 . S
C1151 H1159 0.929 . S
C1152 C1151 1.383 . S
C1152 C1153 1.377 . S
C1153 H1137 0.930 . S
C1153 C1152 1.377 . S
C1153 C1154 1.379 . S
C1154 H1138 0.931 . S
C1154 C1148 1.383 . S
C1154 C1153 1.379 . S
H1155 C1149 0.959 . S
H1156 C1149 0.961 . S
H1157 C1149 0.960 . S
H1158 C1150 0.930 . S
H1159 C1151 0.929 . S
H1160 C1168 0.929 . S
H1161 C1170 0.930 . S
H1162 C1172 0.930 . S
H1163 C1175 0.929 . S
H1164 C1178 0.930 . S
H1165 C1180 0.960 . S
H1166 C1180 0.960 . S
H1167 C1180 0.960 . S
C1168 H1160 0.929 . S
C1168 C1169 1.377 . S
C1168 C1170 1.384 . S
C1169 C1168 1.377 . S
C1169 C1175 1.390 . S
C1170 H1161 0.930 . S
C1170 C1168 1.384 . S
C1170 C1171 1.372 . S
C1171 C1170 1.372 . S
C1171 C1172 1.400 . S
C1171 C1176 1.490 . S
C1172 H1162 0.930 . S
C1172 C1171 1.400 . S
C1172 C1175 1.386 . S
H1173 C1189 0.967 . S
H1174 C1190 0.931 . S
C1175 H1163 0.929 . S
C1175 C1169 1.390 . S
C1175 C1172 1.386 . S
C1176 C1171 1.490 . S
C1176 C1178 1.395 . S
C1176 C1179 1.403 . S
H1177 C1183 0.930 . S
C1178 H1164 0.930 . S
C1178 C1176 1.395 . S
C1178 C1181 1.403 . S
C1179 C1176 1.403 . S
C1179 C1180 1.524 . S
C1179 C1183 1.400 . S
C1180 H1165 0.960 . S
C1180 H1166 0.960 . S
C1180 H1167 0.960 . S
C1180 C1179 1.524 . S
C1181 C1178 1.403 . S
C1181 C1182 1.392 . S
C1181 C1185 1.495 . S
C1182 C1181 1.392 . S
C1182 C1183 1.385 . S
C1182 C1184 1.478 . S
C1183 H1177 0.930 . S
C1183 C1179 1.400 . S
C1183 C1182 1.385 . S
C1184 C1182 1.478 . S
C1184 C1186 1.381 . S
C1184 C1190 1.383 . S
C1185 C1181 1.495 . S
C1185 H1191 0.959 . S
C1185 H1192 0.961 . S
C1185 H1193 0.960 . S
C1186 C1184 1.381 . S
C1186 C1187 1.394 . S
C1186 H1194 0.930 . S
C1187 C1186 1.394 . S
C1187 C1188 1.383 . S
C1187 H1195 0.929 . S
C1188 C1187 1.383 . S
C1188 C1189 1.377 . S
C1189 H1173 0.967 . S
C1189 C1188 1.377 . S
C1189 C1190 1.379 . S
C1190 H1174 0.931 . S
C1190 C1184 1.383 . S
C1190 C1189 1.379 . S
H1191 C1185 0.959 . S
H1192 C1185 0.961 . S
H1193 C1185 0.960 . S
H1194 C1186 0.930 . S
H1195 C1187 0.929 . S
H1196 C1204 0.929 . S
H1197 C1206 0.930 . S
H1198 C1208 0.930 . S
H1199 C1211 0.929 . S
H1200 C1214 0.930 . S
H1201 C1216 0.960 . S
H1202 C1216 0.960 . S
H1203 C1216 0.960 . S
C1204 H1196 0.929 . S
C1204 C1205 1.377 . S
C1204 C1206 1.384 . S
C1205 C1204 1.377 . S
C1205 C1211 1.390 . S
C1206 H1197 0.930 . S
C1206 C1204 1.384 . S
C1206 C1207 1.372 . S
C1207 C1206 1.372 . S
C1207 C1208 1.400 . S
C1207 C1212 1.490 . S
C1208 H1198 0.930 . S
C1208 C1207 1.400 . S
C1208 C1211 1.386 . S
H1209 C1225 0.933 1_455 S
H1210 C1226 0.931 . S
C1211 H1199 0.929 . S
C1211 C1205 1.390 . S
C1211 C1208 1.386 . S
C1212 C1207 1.490 . S
C1212 C1214 1.395 . S
C1212 C1215 1.403 . S
H1213 C1219 0.930 . S
C1214 H1200 0.930 . S
C1214 C1212 1.395 . S
C1214 C1217 1.403 . S
C1215 C1212 1.403 . S
C1215 C1216 1.524 . S
C1215 C1219 1.400 . S
C1216 H1201 0.960 . S
C1216 H1202 0.960 . S
C1216 H1203 0.960 . S
C1216 C1215 1.524 . S
C1217 C1214 1.403 . S
C1217 C1218 1.392 . S
C1217 C1221 1.495 . S
C1218 C1217 1.392 . S
C1218 C1219 1.385 . S
C1218 C1220 1.478 . S
C1219 H1213 0.930 . S
C1219 C1215 1.400 . S
C1219 C1218 1.385 . S
C1220 C1218 1.478 . S
C1220 C1222 1.381 . S
C1220 C1226 1.383 . S
C1221 C1217 1.495 . S
C1221 H1227 0.959 . S
C1221 H1228 0.961 . S
C1221 H1229 0.960 . S
C1222 C1220 1.381 . S
C1222 C1223 1.394 . S
C1222 H1230 0.930 . S
C1223 C1222 1.394 . S
C1223 C1224 1.383 . S
C1223 H1231 0.929 . S
C1224 C1223 1.383 . S
C1224 C1225 1.377 . S
C1225 H1209 0.933 1_655 S
C1225 C1224 1.377 . S
C1225 C1226 1.379 . S
C1226 H1210 0.931 . S
C1226 C1220 1.383 . S
C1226 C1225 1.379 . S
H1227 C1221 0.959 . S
H1228 C1221 0.961 . S
H1229 C1221 0.960 . S
H1230 C1222 0.930 . S
H1231 C1223 0.929 . S
H1232 C1240 0.929 . S
H1233 C1242 0.930 . S
H1234 C1244 0.930 . S
H1235 C1247 0.929 . S
H1236 C1250 0.930 . S
H1237 C1252 0.960 . S
H1238 C1252 0.960 . S
H1239 C1252 0.960 . S
C1240 H1232 0.929 . S
C1240 C1241 1.377 . S
C1240 C1242 1.384 . S
C1241 C1240 1.377 . S
C1241 C1247 1.390 . S
C1242 H1233 0.930 . S
C1242 C1240 1.384 . S
C1242 C1243 1.372 . S
C1243 C1242 1.372 . S
C1243 C1244 1.400 . S
C1243 C1248 1.490 . S
C1244 H1234 0.930 . S
C1244 C1243 1.400 . S
C1244 C1247 1.386 . S
H1245 C1261 0.930 . S
H1246 C1262 0.931 . S
C1247 H1235 0.929 . S
C1247 C1241 1.390 . S
C1247 C1244 1.386 . S
C1248 C1243 1.490 . S
C1248 C1250 1.395 . S
C1248 C1251 1.403 . S
H1249 C1255 0.930 . S
C1250 H1236 0.930 . S
C1250 C1248 1.395 . S
C1250 C1253 1.403 . S
C1251 C1248 1.403 . S
C1251 C1252 1.524 . S
C1251 C1255 1.400 . S
C1252 H1237 0.960 . S
C1252 H1238 0.960 . S
C1252 H1239 0.960 . S
C1252 C1251 1.524 . S
C1253 C1250 1.403 . S
C1253 C1254 1.392 . S
C1253 C1257 1.495 . S
C1254 C1253 1.392 . S
C1254 C1255 1.385 . S
C1254 C1256 1.478 . S
C1255 H1249 0.930 . S
C1255 C1251 1.400 . S
C1255 C1254 1.385 . S
C1256 C1254 1.478 . S
C1256 C1258 1.381 . S
C1256 C1262 1.383 . S
C1257 C1253 1.495 . S
C1257 H1263 0.959 . S
C1257 H1264 0.961 . S
C1257 H1265 0.960 . S
C1258 C1256 1.381 . S
C1258 C1259 1.394 . S
C1258 H1266 0.930 . S
C1259 C1258 1.394 . S
C1259 C1260 1.383 . S
C1259 H1267 0.929 . S
C1260 C1259 1.383 . S
C1260 C1261 1.377 . S
C1261 H1245 0.930 . S
C1261 C1260 1.377 . S
C1261 C1262 1.379 . S
C1262 H1246 0.931 . S
C1262 C1256 1.383 . S
C1262 C1261 1.379 . S
H1263 C1257 0.959 . S
H1264 C1257 0.961 . S
H1265 C1257 0.960 . S
H1266 C1258 0.930 . S
H1267 C1259 0.929 . S
H1268 C1276 0.929 . S
H1269 C1278 0.930 . S
H1270 C1280 0.930 . S
H1271 C1283 0.929 . S
H1272 C1286 0.930 . S
H1273 C1288 0.960 . S
H1274 C1288 0.960 . S
H1275 C1288 0.960 . S
C1276 H1268 0.929 . S
C1276 C1277 1.377 . S
C1276 C1278 1.384 . S
C1277 C1276 1.377 . S
C1277 C1283 1.390 . S
C1278 H1269 0.930 . S
C1278 C1276 1.384 . S
C1278 C1279 1.372 . S
C1279 C1278 1.372 . S
C1279 C1280 1.400 . S
C1279 C1284 1.490 . S
C1280 H1270 0.930 . S
C1280 C1279 1.400 . S
C1280 C1283 1.386 . S
H1281 C1297 0.930 . S
H1282 C1298 0.931 . S
C1283 H1271 0.929 . S
C1283 C1277 1.390 . S
C1283 C1280 1.386 . S
C1284 C1279 1.490 . S
C1284 C1286 1.395 . S
C1284 C1287 1.403 . S
H1285 C1291 0.930 . S
C1286 H1272 0.930 . S
C1286 C1284 1.395 . S
C1286 C1289 1.403 . S
C1287 C1284 1.403 . S
C1287 C1288 1.524 . S
C1287 C1291 1.400 . S
C1288 H1273 0.960 . S
C1288 H1274 0.960 . S
C1288 H1275 0.960 . S
C1288 C1287 1.524 . S
C1289 C1286 1.403 . S
C1289 C1290 1.392 . S
C1289 C1293 1.495 . S
C1290 C1289 1.392 . S
C1290 C1291 1.385 . S
C1290 C1292 1.478 . S
C1291 H1285 0.930 . S
C1291 C1287 1.400 . S
C1291 C1290 1.385 . S
C1292 C1290 1.478 . S
C1292 C1294 1.381 . S
C1292 C1298 1.383 . S
C1293 C1289 1.495 . S
C1293 H1299 0.959 . S
C1293 H1300 0.961 . S
C1293 H1301 0.960 . S
C1294 C1292 1.381 . S
C1294 C1295 1.394 . S
C1294 H1302 0.930 . S
C1295 C1294 1.394 . S
C1295 C1296 1.383 . S
C1295 H1303 0.929 . S
C1296 C1295 1.383 . S
C1296 C1297 1.377 . S
C1297 H1281 0.930 . S
C1297 C1296 1.377 . S
C1297 C1298 1.379 . S
C1298 H1282 0.931 . S
C1298 C1292 1.383 . S
C1298 C1297 1.379 . S
H1299 C1293 0.959 . S
H1300 C1293 0.961 . S
H1301 C1293 0.960 . S
H1302 C1294 0.930 . S
H1303 C1295 0.929 . S
H1304 C1312 0.929 . S
H1305 C1314 0.930 . S
H1306 C1316 0.930 . S
H1307 C1319 0.929 . S
H1308 C1322 0.930 . S
H1309 C1324 0.960 . S
H1310 C1324 0.960 . S
H1311 C1324 0.960 . S
C1312 H1304 0.929 . S
C1312 C1313 1.377 . S
C1312 C1314 1.384 . S
C1313 C1312 1.377 . S
C1313 C1319 1.390 . S
C1314 H1305 0.930 . S
C1314 C1312 1.384 . S
C1314 C1315 1.372 . S
C1315 C1314 1.372 . S
C1315 C1316 1.400 . S
C1315 C1320 1.490 . S
C1316 H1306 0.930 . S
C1316 C1315 1.400 . S
C1316 C1319 1.386 . S
H1317 C1333 0.930 . S
H1318 C1334 0.931 . S
C1319 H1307 0.929 . S
C1319 C1313 1.390 . S
C1319 C1316 1.386 . S
C1320 C1315 1.490 . S
C1320 C1322 1.395 . S
C1320 C1323 1.403 . S
H1321 C1327 0.930 . S
C1322 H1308 0.930 . S
C1322 C1320 1.395 . S
C1322 C1325 1.403 . S
C1323 C1320 1.403 . S
C1323 C1324 1.524 . S
C1323 C1327 1.400 . S
C1324 H1309 0.960 . S
C1324 H1310 0.960 . S
C1324 H1311 0.960 . S
C1324 C1323 1.524 . S
C1325 C1322 1.403 . S
C1325 C1326 1.392 . S
C1325 C1329 1.495 . S
C1326 C1325 1.392 . S
C1326 C1327 1.385 . S
C1326 C1328 1.478 . S
C1327 H1321 0.930 . S
C1327 C1323 1.400 . S
C1327 C1326 1.385 . S
C1328 C1326 1.478 . S
C1328 C1330 1.381 . S
C1328 C1334 1.383 . S
C1329 C1325 1.495 . S
C1329 H1335 0.959 . S
C1329 H1336 0.961 . S
C1329 H1337 0.960 . S
C1330 C1328 1.381 . S
C1330 C1331 1.394 . S
C1330 H1338 0.930 . S
C1331 C1330 1.394 . S
C1331 C1332 1.383 . S
C1331 H1339 0.929 . S
C1332 C1331 1.383 . S
C1332 C1333 1.377 . S
C1333 H1317 0.930 . S
C1333 C1332 1.377 . S
C1333 C1334 1.379 . S
C1334 H1318 0.931 . S
C1334 C1328 1.383 . S
C1334 C1333 1.379 . S
H1335 C1329 0.959 . S
H1336 C1329 0.961 . S
H1337 C1329 0.960 . S
H1338 C1330 0.930 . S
H1339 C1331 0.929 . S
H1340 C1348 0.929 . S
H1341 C1350 0.930 . S
H1342 C1352 0.930 . S
H1343 C1355 0.929 . S
H1344 C1358 0.930 . S
H1345 C1360 0.960 . S
H1346 C1360 0.960 . S
H1347 C1360 0.960 . S
C1348 H1340 0.929 . S
C1348 C1349 1.377 . S
C1348 C1350 1.384 . S
C1349 C1348 1.377 . S
C1349 C1355 1.390 . S
C1350 H1341 0.930 . S
C1350 C1348 1.384 . S
C1350 C1351 1.372 . S
C1351 C1350 1.372 . S
C1351 C1352 1.400 . S
C1351 C1356 1.490 . S
C1352 H1342 0.930 . S
C1352 C1351 1.400 . S
C1352 C1355 1.386 . S
H1353 C1369 0.930 . S
H1354 C1370 0.931 . S
C1355 H1343 0.929 . S
C1355 C1349 1.390 . S
C1355 C1352 1.386 . S
C1356 C1351 1.490 . S
C1356 C1358 1.395 . S
C1356 C1359 1.403 . S
H1357 C1363 0.930 . S
C1358 H1344 0.930 . S
C1358 C1356 1.395 . S
C1358 C1361 1.403 . S
C1359 C1356 1.403 . S
C1359 C1360 1.524 . S
C1359 C1363 1.400 . S
C1360 H1345 0.960 . S
C1360 H1346 0.960 . S
C1360 H1347 0.960 . S
C1360 C1359 1.524 . S
C1361 C1358 1.403 . S
C1361 C1362 1.392 . S
C1361 C1365 1.495 . S
C1362 C1361 1.392 . S
C1362 C1363 1.385 . S
C1362 C1364 1.478 . S
C1363 H1357 0.930 . S
C1363 C1359 1.400 . S
C1363 C1362 1.385 . S
C1364 C1362 1.478 . S
C1364 C1366 1.381 . S
C1364 C1370 1.383 . S
C1365 C1361 1.495 . S
C1365 H1371 0.959 . S
C1365 H1372 0.961 . S
C1365 H1373 0.960 . S
C1366 C1364 1.381 . S
C1366 C1367 1.394 . S
C1366 H1374 0.930 . S
C1367 C1366 1.394 . S
C1367 C1368 1.383 . S
C1367 H1375 0.929 . S
C1368 C1367 1.383 . S
C1368 C1369 1.377 . S
C1369 H1353 0.930 . S
C1369 C1368 1.377 . S
C1369 C1370 1.379 . S
C1370 H1354 0.931 . S
C1370 C1364 1.383 . S
C1370 C1369 1.379 . S
H1371 C1365 0.959 . S
H1372 C1365 0.961 . S
H1373 C1365 0.960 . S
H1374 C1366 0.930 . S
H1375 C1367 0.929 . S
H1376 C1384 0.929 . S
H1377 C1386 0.930 . S
H1378 C1388 0.930 . S
H1379 C1391 0.929 . S
H1380 C1394 0.930 . S
H1381 C1396 0.960 . S
H1382 C1396 0.960 . S
H1383 C1396 0.960 . S
C1384 H1376 0.929 . S
C1384 C1385 1.377 . S
C1384 C1386 1.384 . S
C1385 C1384 1.377 . S
C1385 C1391 1.390 . S
C1386 H1377 0.930 . S
C1386 C1384 1.384 . S
C1386 C1387 1.372 . S
C1387 C1386 1.372 . S
C1387 C1388 1.400 . S
C1387 C1392 1.490 . S
C1388 H1378 0.930 . S
C1388 C1387 1.400 . S
C1388 C1391 1.386 . S
H1389 C1405 0.930 . S
H1390 C1406 0.931 . S
C1391 H1379 0.929 . S
C1391 C1385 1.390 . S
C1391 C1388 1.386 . S
C1392 C1387 1.490 . S
C1392 C1394 1.395 . S
C1392 C1395 1.403 . S
H1393 C1399 0.930 . S
C1394 H1380 0.930 . S
C1394 C1392 1.395 . S
C1394 C1397 1.403 . S
C1395 C1392 1.403 . S
C1395 C1396 1.524 . S
C1395 C1399 1.400 . S
C1396 H1381 0.960 . S
C1396 H1382 0.960 . S
C1396 H1383 0.960 . S
C1396 C1395 1.524 . S
C1397 C1394 1.403 . S
C1397 C1398 1.392 . S
C1397 C1401 1.495 . S
C1398 C1397 1.392 . S
C1398 C1399 1.385 . S
C1398 C1400 1.478 . S
C1399 H1393 0.930 . S
C1399 C1395 1.400 . S
C1399 C1398 1.385 . S
C1400 C1398 1.478 . S
C1400 C1402 1.381 . S
C1400 C1406 1.383 . S
C1401 C1397 1.495 . S
C1401 H1407 0.959 . S
C1401 H1408 0.961 . S
C1401 H1409 0.960 . S
C1402 C1400 1.381 . S
C1402 C1403 1.394 . S
C1402 H1410 0.930 . S
C1403 C1402 1.394 . S
C1403 C1404 1.383 . S
C1403 H1411 0.929 . S
C1404 C1403 1.383 . S
C1404 C1405 1.377 . S
C1405 H1389 0.930 . S
C1405 C1404 1.377 . S
C1405 C1406 1.379 . S
C1406 H1390 0.931 . S
C1406 C1400 1.383 . S
C1406 C1405 1.379 . S
H1407 C1401 0.959 . S
H1408 C1401 0.961 . S
H1409 C1401 0.960 . S
H1410 C1402 0.930 . S
H1411 C1403 0.929 . S
H1412 C1420 0.929 . S
H1413 C1422 0.930 . S
H1414 C1424 0.930 . S
H1415 C1427 0.929 . S
H1416 C1430 0.930 . S
H1417 C1432 0.960 . S
H1418 C1432 0.960 . S
H1419 C1432 0.960 . S
C1420 H1412 0.929 . S
C1420 C1421 1.377 . S
C1420 C1422 1.384 . S
C1421 C1420 1.377 . S
C1421 C1427 1.390 . S
C1422 H1413 0.930 . S
C1422 C1420 1.384 . S
C1422 C1423 1.372 . S
C1423 C1422 1.372 . S
C1423 C1424 1.400 . S
C1423 C1428 1.490 . S
C1424 H1414 0.930 . S
C1424 C1423 1.400 . S
C1424 C1427 1.386 . S
H1425 C1441 0.930 . S
H1426 C1442 0.931 . S
C1427 H1415 0.929 . S
C1427 C1421 1.390 . S
C1427 C1424 1.386 . S
C1428 C1423 1.490 . S
C1428 C1430 1.395 . S
C1428 C1431 1.403 . S
H1429 C1435 0.930 . S
C1430 H1416 0.930 . S
C1430 C1428 1.395 . S
C1430 C1433 1.403 . S
C1431 C1428 1.403 . S
C1431 C1432 1.524 . S
C1431 C1435 1.400 . S
C1432 H1417 0.960 . S
C1432 H1418 0.960 . S
C1432 H1419 0.960 . S
C1432 C1431 1.524 . S
C1433 C1430 1.403 . S
C1433 C1434 1.392 . S
C1433 C1437 1.495 . S
C1434 C1433 1.392 . S
C1434 C1435 1.385 . S
C1434 C1436 1.478 . S
C1435 H1429 0.930 . S
C1435 C1431 1.400 . S
C1435 C1434 1.385 . S
C1436 C1434 1.478 . S
C1436 C1438 1.381 . S
C1436 C1442 1.383 . S
C1437 C1433 1.495 . S
C1437 H1443 0.959 . S
C1437 H1444 0.961 . S
C1437 H1445 0.960 . S
C1438 C1436 1.381 . S
C1438 C1439 1.394 . S
C1438 H1446 0.930 . S
C1439 C1438 1.394 . S
C1439 C1440 1.383 . S
C1439 H1447 0.929 . S
C1440 C1439 1.383 . S
C1440 C1441 1.377 . S
C1441 H1425 0.930 . S
C1441 C1440 1.377 . S
C1441 C1442 1.379 . S
C1442 H1426 0.931 . S
C1442 C1436 1.383 . S
C1442 C1441 1.379 . S
H1443 C1437 0.959 . S
H1444 C1437 0.961 . S
H1445 C1437 0.960 . S
H1446 C1438 0.930 . S
H1447 C1439 0.929 . S
H1448 C1456 0.929 . S
H1449 C1458 0.930 . S
H1450 C1460 0.930 . S
H1451 C1463 0.929 . S
H1452 C1466 0.930 . S
H1453 C1468 0.960 . S
H1454 C1468 0.960 . S
H1455 C1468 0.960 . S
C1456 H1448 0.929 . S
C1456 C1457 1.377 . S
C1456 C1458 1.384 . S
C1457 C1456 1.377 . S
C1457 C1463 1.390 . S
C1458 H1449 0.930 . S
C1458 C1456 1.384 . S
C1458 C1459 1.372 . S
C1459 C1458 1.372 . S
C1459 C1460 1.400 . S
C1459 C1464 1.490 . S
C1460 H1450 0.930 . S
C1460 C1459 1.400 . S
C1460 C1463 1.386 . S
H1461 C1477 0.930 . S
H1462 C1478 0.931 . S
C1463 H1451 0.929 . S
C1463 C1457 1.390 . S
C1463 C1460 1.386 . S
C1464 C1459 1.490 . S
C1464 C1466 1.395 . S
C1464 C1467 1.403 . S
H1465 C1471 0.930 . S
C1466 H1452 0.930 . S
C1466 C1464 1.395 . S
C1466 C1469 1.403 . S
C1467 C1464 1.403 . S
C1467 C1468 1.524 . S
C1467 C1471 1.400 . S
C1468 H1453 0.960 . S
C1468 H1454 0.960 . S
C1468 H1455 0.960 . S
C1468 C1467 1.524 . S
C1469 C1466 1.403 . S
C1469 C1470 1.392 . S
C1469 C1473 1.495 . S
C1470 C1469 1.392 . S
C1470 C1471 1.385 . S
C1470 C1472 1.478 . S
C1471 H1465 0.930 . S
C1471 C1467 1.400 . S
C1471 C1470 1.385 . S
C1472 C1470 1.478 . S
C1472 C1474 1.381 . S
C1472 C1478 1.383 . S
C1473 C1469 1.495 . S
C1473 H1479 0.959 . S
C1473 H1480 0.961 . S
C1473 H1481 0.960 . S
C1474 C1472 1.381 . S
C1474 C1475 1.394 . S
C1474 H1482 0.930 . S
C1475 C1474 1.394 . S
C1475 C1476 1.383 . S
C1475 H1483 0.929 . S
C1476 C1475 1.383 . S
C1476 C1477 1.377 . S
C1477 H1461 0.930 . S
C1477 C1476 1.377 . S
C1477 C1478 1.379 . S
C1478 H1462 0.931 . S
C1478 C1472 1.383 . S
C1478 C1477 1.379 . S
H1479 C1473 0.959 . S
H1480 C1473 0.961 . S
H1481 C1473 0.960 . S
H1482 C1474 0.930 . S
H1483 C1475 0.929 . S
H1484 C1492 0.929 . S
H1485 C1494 0.930 . S
H1486 C1496 0.930 . S
H1487 C1499 0.929 . S
H1488 C1502 0.930 . S
H1489 C1504 0.960 . S
H1490 C1504 0.960 . S
H1491 C1504 0.960 . S
C1492 H1484 0.929 . S
C1492 C1493 1.377 . S
C1492 C1494 1.384 . S
C1493 C1492 1.377 . S
C1493 C1499 1.390 . S
C1494 H1485 0.930 . S
C1494 C1492 1.384 . S
C1494 C1495 1.372 . S
C1495 C1494 1.372 . S
C1495 C1496 1.400 . S
C1495 C1500 1.490 . S
C1496 H1486 0.930 . S
C1496 C1495 1.400 . S
C1496 C1499 1.386 . S
H1497 C1513 0.930 . S
H1498 C1514 0.931 . S
C1499 H1487 0.929 . S
C1499 C1493 1.390 . S
C1499 C1496 1.386 . S
C1500 C1495 1.490 . S
C1500 C1502 1.395 . S
C1500 C1503 1.403 . S
H1501 C1507 0.930 . S
C1502 H1488 0.930 . S
C1502 C1500 1.395 . S
C1502 C1505 1.403 . S
C1503 C1500 1.403 . S
C1503 C1504 1.524 . S
C1503 C1507 1.400 . S
C1504 H1489 0.960 . S
C1504 H1490 0.960 . S
C1504 H1491 0.960 . S
C1504 C1503 1.524 . S
C1505 C1502 1.403 . S
C1505 C1506 1.392 . S
C1505 C1509 1.495 . S
C1506 C1505 1.392 . S
C1506 C1507 1.385 . S
C1506 C1508 1.478 . S
C1507 H1501 0.930 . S
C1507 C1503 1.400 . S
C1507 C1506 1.385 . S
C1508 C1506 1.478 . S
C1508 C1510 1.381 . S
C1508 C1514 1.383 . S
C1509 C1505 1.495 . S
C1509 H1515 0.959 . S
C1509 H1516 0.961 . S
C1509 H1517 0.960 . S
C1510 C1508 1.381 . S
C1510 C1511 1.394 . S
C1510 H1518 0.930 . S
C1511 C1510 1.394 . S
C1511 C1512 1.383 . S
C1511 H1519 0.929 . S
C1512 C1511 1.383 . S
C1512 C1513 1.377 . S
C1513 H1497 0.930 . S
C1513 C1512 1.377 . S
C1513 C1514 1.379 . S
C1514 H1498 0.931 . S
C1514 C1508 1.383 . S
C1514 C1513 1.379 . S
H1515 C1509 0.959 . S
H1516 C1509 0.961 . S
H1517 C1509 0.960 . S
H1518 C1510 0.930 . S
H1519 C1511 0.929 . S
H1520 C1528 0.929 . S
H1521 C1530 0.930 . S
H1522 C1532 0.930 . S
H1523 C1535 0.929 . S
H1524 C1538 0.930 . S
H1525 C1540 0.960 . S
H1526 C1540 0.960 . S
H1527 C1540 0.960 . S
C1528 H1520 0.929 . S
C1528 C1529 1.377 . S
C1528 C1530 1.384 . S
C1529 C1528 1.377 . S
C1529 C1535 1.390 . S
C1530 H1521 0.930 . S
C1530 C1528 1.384 . S
C1530 C1531 1.372 . S
C1531 C1530 1.372 . S
C1531 C1532 1.400 . S
C1531 C1536 1.490 . S
C1532 H1522 0.930 . S
C1532 C1531 1.400 . S
C1532 C1535 1.386 . S
H1533 C1549 0.930 . S
H1534 C1550 0.931 . S
C1535 H1523 0.929 . S
C1535 C1529 1.390 . S
C1535 C1532 1.386 . S
C1536 C1531 1.490 . S
C1536 C1538 1.395 . S
C1536 C1539 1.403 . S
H1537 C1543 0.930 . S
C1538 H1524 0.930 . S
C1538 C1536 1.395 . S
C1538 C1541 1.403 . S
C1539 C1536 1.403 . S
C1539 C1540 1.524 . S
C1539 C1543 1.400 . S
C1540 H1525 0.960 . S
C1540 H1526 0.960 . S
C1540 H1527 0.960 . S
C1540 C1539 1.524 . S
C1541 C1538 1.403 . S
C1541 C1542 1.392 . S
C1541 C1545 1.495 . S
C1542 C1541 1.392 . S
C1542 C1543 1.385 . S
C1542 C1544 1.478 . S
C1543 H1537 0.930 . S
C1543 C1539 1.400 . S
C1543 C1542 1.385 . S
C1544 C1542 1.478 . S
C1544 C1546 1.381 . S
C1544 C1550 1.383 . S
C1545 C1541 1.495 . S
C1545 H1551 0.959 . S
C1545 H1552 0.961 . S
C1545 H1553 0.960 . S
C1546 C1544 1.381 . S
C1546 C1547 1.394 . S
C1546 H1554 0.930 . S
C1547 C1546 1.394 . S
C1547 C1548 1.383 . S
C1547 H1555 0.929 . S
C1548 C1547 1.383 . S
C1548 C1549 1.377 . S
C1549 H1533 0.930 . S
C1549 C1548 1.377 . S
C1549 C1550 1.379 . S
C1550 H1534 0.931 . S
C1550 C1544 1.383 . S
C1550 C1549 1.379 . S
H1551 C1545 0.959 . S
H1552 C1545 0.961 . S
H1553 C1545 0.960 . S
H1554 C1546 0.930 . S
H1555 C1547 0.929 . S
H1556 C1564 0.929 . S
H1557 C1566 0.930 . S
H1558 C1568 0.930 . S
H1559 C1571 0.929 . S
H1560 C1574 0.930 . S
H1561 C1576 0.960 . S
H1562 C1576 0.960 . S
H1563 C1576 0.960 . S
C1564 H1556 0.929 . S
C1564 C1565 1.377 . S
C1564 C1566 1.384 . S
C1565 C1564 1.377 . S
C1565 C1571 1.390 . S
C1566 H1557 0.930 . S
C1566 C1564 1.384 . S
C1566 C1567 1.372 . S
C1567 C1566 1.372 . S
C1567 C1568 1.400 . S
C1567 C1572 1.490 . S
C1568 H1558 0.930 . S
C1568 C1567 1.400 . S
C1568 C1571 1.386 . S
H1569 C1585 0.930 . S
H1570 C1586 0.931 . S
C1571 H1559 0.929 . S
C1571 C1565 1.390 . S
C1571 C1568 1.386 . S
C1572 C1567 1.490 . S
C1572 C1574 1.395 . S
C1572 C1575 1.403 . S
H1573 C1579 0.930 . S
C1574 H1560 0.930 . S
C1574 C1572 1.395 . S
C1574 C1577 1.403 . S
C1575 C1572 1.403 . S
C1575 C1576 1.524 . S
C1575 C1579 1.400 . S
C1576 H1561 0.960 . S
C1576 H1562 0.960 . S
C1576 H1563 0.960 . S
C1576 C1575 1.524 . S
C1577 C1574 1.403 . S
C1577 C1578 1.392 . S
C1577 C1581 1.495 . S
C1578 C1577 1.392 . S
C1578 C1579 1.385 . S
C1578 C1580 1.478 . S
C1579 H1573 0.930 . S
C1579 C1575 1.400 . S
C1579 C1578 1.385 . S
C1580 C1578 1.478 . S
C1580 C1582 1.381 . S
C1580 C1586 1.383 . S
C1581 C1577 1.495 . S
C1581 H1587 0.959 . S
C1581 H1588 0.961 . S
C1581 H1589 0.960 . S
C1582 C1580 1.381 . S
C1582 C1583 1.394 . S
C1582 H1590 0.930 . S
C1583 C1582 1.394 . S
C1583 C1584 1.383 . S
C1583 H1591 0.929 . S
C1584 C1583 1.383 . S
C1584 C1585 1.377 . S
C1585 H1569 0.930 . S
C1585 C1584 1.377 . S
C1585 C1586 1.379 . S
C1586 H1570 0.931 . S
C1586 C1580 1.383 . S
C1586 C1585 1.379 . S
H1587 C1581 0.959 . S
H1588 C1581 0.961 . S
H1589 C1581 0.960 . S
H1590 C1582 0.930 . S
H1591 C1583 0.929 . S
H1592 C1600 0.929 . S
H1593 C1602 0.930 . S
H1594 C1604 0.930 . S
H1595 C1607 0.929 . S
H1596 C1610 0.930 . S
H1597 C1612 0.960 . S
H1598 C1612 0.960 . S
H1599 C1612 0.960 . S
C1600 H1592 0.929 . S
C1600 C1601 1.377 . S
C1600 C1602 1.384 . S
C1601 C1600 1.377 . S
C1601 C1607 1.390 . S
C1602 H1593 0.930 . S
C1602 C1600 1.384 . S
C1602 C1603 1.372 . S
C1603 C1602 1.372 . S
C1603 C1604 1.400 . S
C1603 C1608 1.490 . S
C1604 H1594 0.930 . S
C1604 C1603 1.400 . S
C1604 C1607 1.386 . S
H1605 C1621 0.930 . S
H1606 C1622 0.931 . S
C1607 H1595 0.929 . S
C1607 C1601 1.390 . S
C1607 C1604 1.386 . S
C1608 C1603 1.490 . S
C1608 C1610 1.395 . S
C1608 C1611 1.403 . S
H1609 C1615 0.930 . S
C1610 H1596 0.930 . S
C1610 C1608 1.395 . S
C1610 C1613 1.403 . S
C1611 C1608 1.403 . S
C1611 C1612 1.524 . S
C1611 C1615 1.400 . S
C1612 H1597 0.960 . S
C1612 H1598 0.960 . S
C1612 H1599 0.960 . S
C1612 C1611 1.524 . S
C1613 C1610 1.403 . S
C1613 C1614 1.392 . S
C1613 C1617 1.495 . S
C1614 C1613 1.392 . S
C1614 C1615 1.385 . S
C1614 C1616 1.478 . S
C1615 H1609 0.930 . S
C1615 C1611 1.400 . S
C1615 C1614 1.385 . S
C1616 C1614 1.478 . S
C1616 C1618 1.381 . S
C1616 C1622 1.383 . S
C1617 C1613 1.495 . S
C1617 H1623 0.959 . S
C1617 H1624 0.961 . S
C1617 H1625 0.960 . S
C1618 C1616 1.381 . S
C1618 C1619 1.394 . S
C1618 H1626 0.930 . S
C1619 C1618 1.394 . S
C1619 C1620 1.383 . S
C1619 H1627 0.929 . S
C1620 C1619 1.383 . S
C1620 C1621 1.377 . S
C1621 H1605 0.930 . S
C1621 C1620 1.377 . S
C1621 C1622 1.379 . S
C1622 H1606 0.931 . S
C1622 C1616 1.383 . S
C1622 C1621 1.379 . S
H1623 C1617 0.959 . S
H1624 C1617 0.961 . S
H1625 C1617 0.960 . S
H1626 C1618 0.930 . S
H1627 C1619 0.929 . S
H1628 C1636 0.929 . S
H1629 C1638 0.930 . S
H1630 C1640 0.930 . S
H1631 C1643 0.929 . S
H1632 C1646 0.930 . S
H1633 C1648 0.960 . S
H1634 C1648 0.960 . S
H1635 C1648 0.960 . S
C1636 H1628 0.929 . S
C1636 C1637 1.377 . S
C1636 C1638 1.384 . S
C1637 C1636 1.377 . S
C1637 C1643 1.390 . S
C1638 H1629 0.930 . S
C1638 C1636 1.384 . S
C1638 C1639 1.372 . S
C1639 C1638 1.372 . S
C1639 C1640 1.400 . S
C1639 C1644 1.490 . S
C1640 H1630 0.930 . S
C1640 C1639 1.400 . S
C1640 C1643 1.386 . S
H1641 C1657 0.930 . S
H1642 C1658 0.931 . S
C1643 H1631 0.929 . S
C1643 C1637 1.390 . S
C1643 C1640 1.386 . S
C1644 C1639 1.490 . S
C1644 C1646 1.395 . S
C1644 C1647 1.403 . S
H1645 C1651 0.930 . S
C1646 H1632 0.930 . S
C1646 C1644 1.395 . S
C1646 C1649 1.403 . S
C1647 C1644 1.403 . S
C1647 C1648 1.524 . S
C1647 C1651 1.400 . S
C1648 H1633 0.960 . S
C1648 H1634 0.960 . S
C1648 H1635 0.960 . S
C1648 C1647 1.524 . S
C1649 C1646 1.403 . S
C1649 C1650 1.392 . S
C1649 C1653 1.495 . S
C1650 C1649 1.392 . S
C1650 C1651 1.385 . S
C1650 C1652 1.478 . S
C1651 H1645 0.930 . S
C1651 C1647 1.400 . S
C1651 C1650 1.385 . S
C1652 C1650 1.478 . S
C1652 C1654 1.381 . S
C1652 C1658 1.383 . S
C1653 C1649 1.495 . S
C1653 H1659 0.959 . S
C1653 H1660 0.961 . S
C1653 H1661 0.960 . S
C1654 C1652 1.381 . S
C1654 C1655 1.394 . S
C1654 H1662 0.930 . S
C1655 C1654 1.394 . S
C1655 C1656 1.383 . S
C1655 H1663 0.929 . S
C1656 C1655 1.383 . S
C1656 C1657 1.377 . S
C1657 H1641 0.930 . S
C1657 C1656 1.377 . S
C1657 C1658 1.379 . S
C1658 H1642 0.931 . S
C1658 C1652 1.383 . S
C1658 C1657 1.379 . S
H1659 C1653 0.959 . S
H1660 C1653 0.961 . S
H1661 C1653 0.960 . S
H1662 C1654 0.930 . S
H1663 C1655 0.929 . S
H1664 C1672 0.929 . S
H1665 C1674 0.930 . S
H1666 C1676 0.930 . S
H1667 C1679 0.929 . S
H1668 C1682 0.930 . S
H1669 C1684 0.960 . S
H1670 C1684 0.960 . S
H1671 C1684 0.960 . S
C1672 H1664 0.929 . S
C1672 C1673 1.377 . S
C1672 C1674 1.384 . S
C1673 C1672 1.377 . S
C1673 C1679 1.390 . S
C1674 H1665 0.930 . S
C1674 C1672 1.384 . S
C1674 C1675 1.372 . S
C1675 C1674 1.372 . S
C1675 C1676 1.400 . S
C1675 C1680 1.490 . S
C1676 H1666 0.930 . S
C1676 C1675 1.400 . S
C1676 C1679 1.386 . S
H1677 C1693 0.930 . S
H1678 C1694 0.931 . S
C1679 H1667 0.929 . S
C1679 C1673 1.390 . S
C1679 C1676 1.386 . S
C1680 C1675 1.490 . S
C1680 C1682 1.395 . S
C1680 C1683 1.403 . S
H1681 C1687 0.930 . S
C1682 H1668 0.930 . S
C1682 C1680 1.395 . S
C1682 C1685 1.403 . S
C1683 C1680 1.403 . S
C1683 C1684 1.524 . S
C1683 C1687 1.400 . S
C1684 H1669 0.960 . S
C1684 H1670 0.960 . S
C1684 H1671 0.960 . S
C1684 C1683 1.524 . S
C1685 C1682 1.403 . S
C1685 C1686 1.392 . S
C1685 C1689 1.495 . S
C1686 C1685 1.392 . S
C1686 C1687 1.385 . S
C1686 C1688 1.478 . S
C1687 H1681 0.930 . S
C1687 C1683 1.400 . S
C1687 C1686 1.385 . S
C1688 C1686 1.478 . S
C1688 C1690 1.381 . S
C1688 C1694 1.383 . S
C1689 C1685 1.495 . S
C1689 H1695 0.959 . S
C1689 H1696 0.961 . S
C1689 H1697 0.960 . S
C1690 C1688 1.381 . S
C1690 C1691 1.394 . S
C1690 H1698 0.930 . S
C1691 C1690 1.394 . S
C1691 C1692 1.383 . S
C1691 H1699 0.929 . S
C1692 C1691 1.383 . S
C1692 C1693 1.377 . S
C1693 H1677 0.930 . S
C1693 C1692 1.377 . S
C1693 C1694 1.379 . S
C1694 H1678 0.931 . S
C1694 C1688 1.383 . S
C1694 C1693 1.379 . S
H1695 C1689 0.959 . S
H1696 C1689 0.961 . S
H1697 C1689 0.960 . S
H1698 C1690 0.930 . S
H1699 C1691 0.929 . S
H1700 C1708 0.929 . S
H1701 C1710 0.930 . S
H1702 C1712 0.930 . S
H1703 C1715 0.929 . S
H1704 C1718 0.930 . S
H1705 C1720 0.960 . S
H1706 C1720 0.960 . S
H1707 C1720 0.960 . S
C1708 H1700 0.929 . S
C1708 C1709 1.377 . S
C1708 C1710 1.384 . S
C1709 C1708 1.377 . S
C1709 C1715 1.390 . S
C1710 H1701 0.930 . S
C1710 C1708 1.384 . S
C1710 C1711 1.372 . S
C1711 C1710 1.372 . S
C1711 C1712 1.400 . S
C1711 C1716 1.490 . S
C1712 H1702 0.930 . S
C1712 C1711 1.400 . S
C1712 C1715 1.386 . S
H1713 C1729 0.930 . S
H1714 C1730 0.931 . S
C1715 H1703 0.929 . S
C1715 C1709 1.390 . S
C1715 C1712 1.386 . S
C1716 C1711 1.490 . S
C1716 C1718 1.395 . S
C1716 C1719 1.403 . S
H1717 C1723 0.930 . S
C1718 H1704 0.930 . S
C1718 C1716 1.395 . S
C1718 C1721 1.403 . S
C1719 C1716 1.403 . S
C1719 C1720 1.524 . S
C1719 C1723 1.400 . S
C1720 H1705 0.960 . S
C1720 H1706 0.960 . S
C1720 H1707 0.960 . S
C1720 C1719 1.524 . S
C1721 C1718 1.403 . S
C1721 C1722 1.392 . S
C1721 C1725 1.495 . S
C1722 C1721 1.392 . S
C1722 C1723 1.385 . S
C1722 C1724 1.478 . S
C1723 H1717 0.930 . S
C1723 C1719 1.400 . S
C1723 C1722 1.385 . S
C1724 C1722 1.478 . S
C1724 C1726 1.381 . S
C1724 C1730 1.383 . S
C1725 C1721 1.495 . S
C1725 H1731 0.959 . S
C1725 H1732 0.961 . S
C1725 H1733 0.960 . S
C1726 C1724 1.381 . S
C1726 C1727 1.394 . S
C1726 H1734 0.930 . S
C1727 C1726 1.394 . S
C1727 C1728 1.383 . S
C1727 H1735 0.929 . S
C1728 C1727 1.383 . S
C1728 C1729 1.377 . S
C1729 H1713 0.930 . S
C1729 C1728 1.377 . S
C1729 C1730 1.379 . S
C1730 H1714 0.931 . S
C1730 C1724 1.383 . S
C1730 C1729 1.379 . S
H1731 C1725 0.959 . S
H1732 C1725 0.961 . S
H1733 C1725 0.960 . S
H1734 C1726 0.930 . S
H1735 C1727 0.929 . S
H1736 C1744 0.929 . S
H1737 C1746 0.930 . S
H1738 C1748 0.930 . S
H1739 C1751 0.929 . S
H1740 C1754 0.930 . S
H1741 C1756 0.960 . S
H1742 C1756 0.960 . S
H1743 C1756 0.960 . S
C1744 H1736 0.929 . S
C1744 C1745 1.377 . S
C1744 C1746 1.384 . S
C1745 C1744 1.377 . S
C1745 C1751 1.390 . S
C1746 H1737 0.930 . S
C1746 C1744 1.384 . S
C1746 C1747 1.372 . S
C1747 C1746 1.372 . S
C1747 C1748 1.400 . S
C1747 C1752 1.490 . S
C1748 H1738 0.930 . S
C1748 C1747 1.400 . S
C1748 C1751 1.386 . S
H1749 C1765 0.930 . S
H1750 C1766 0.931 . S
C1751 H1739 0.929 . S
C1751 C1745 1.390 . S
C1751 C1748 1.386 . S
C1752 C1747 1.490 . S
C1752 C1754 1.395 . S
C1752 C1755 1.403 . S
H1753 C1759 0.930 . S
C1754 H1740 0.930 . S
C1754 C1752 1.395 . S
C1754 C1757 1.403 . S
C1755 C1752 1.403 . S
C1755 C1756 1.524 . S
C1755 C1759 1.400 . S
C1756 H1741 0.960 . S
C1756 H1742 0.960 . S
C1756 H1743 0.960 . S
C1756 C1755 1.524 . S
C1757 C1754 1.403 . S
C1757 C1758 1.392 . S
C1757 C1761 1.495 . S
C1758 C1757 1.392 . S
C1758 C1759 1.385 . S
C1758 C1760 1.478 . S
C1759 H1753 0.930 . S
C1759 C1755 1.400 . S
C1759 C1758 1.385 . S
C1760 C1758 1.478 . S
C1760 C1762 1.381 . S
C1760 C1766 1.383 . S
C1761 C1757 1.495 . S
C1761 H1767 0.959 . S
C1761 H1768 0.961 . S
C1761 H1769 0.960 . S
C1762 C1760 1.381 . S
C1762 C1763 1.394 . S
C1762 H1770 0.930 . S
C1763 C1762 1.394 . S
C1763 C1764 1.383 . S
C1763 H1771 0.929 . S
C1764 C1763 1.383 . S
C1764 C1765 1.377 . S
C1765 H1749 0.930 . S
C1765 C1764 1.377 . S
C1765 C1766 1.379 . S
C1766 H1750 0.931 . S
C1766 C1760 1.383 . S
C1766 C1765 1.379 . S
H1767 C1761 0.959 . S
H1768 C1761 0.961 . S
H1769 C1761 0.960 . S
H1770 C1762 0.930 . S
H1771 C1763 0.929 . S
H1772 C1780 0.929 . S
H1773 C1782 0.930 . S
H1774 C1784 0.930 . S
H1775 C1787 0.929 . S
H1776 C1790 0.930 . S
H1777 C1792 0.960 . S
H1778 C1792 0.960 . S
H1779 C1792 0.960 . S
C1780 H1772 0.929 . S
C1780 C1781 1.377 . S
C1780 C1782 1.384 . S
C1781 C1780 1.377 . S
C1781 C1787 1.390 . S
C1782 H1773 0.930 . S
C1782 C1780 1.384 . S
C1782 C1783 1.372 . S
C1783 C1782 1.372 . S
C1783 C1784 1.400 . S
C1783 C1788 1.490 . S
C1784 H1774 0.930 . S
C1784 C1783 1.400 . S
C1784 C1787 1.386 . S
H1785 C1801 0.930 . S
H1786 C1802 0.931 . S
C1787 H1775 0.929 . S
C1787 C1781 1.390 . S
C1787 C1784 1.386 . S
C1788 C1783 1.490 . S
C1788 C1790 1.395 . S
C1788 C1791 1.403 . S
H1789 C1795 0.930 . S
C1790 H1776 0.930 . S
C1790 C1788 1.395 . S
C1790 C1793 1.403 . S
C1791 C1788 1.403 . S
C1791 C1792 1.524 . S
C1791 C1795 1.400 . S
C1792 H1777 0.960 . S
C1792 H1778 0.960 . S
C1792 H1779 0.960 . S
C1792 C1791 1.524 . S
C1793 C1790 1.403 . S
C1793 C1794 1.392 . S
C1793 C1797 1.495 . S
C1794 C1793 1.392 . S
C1794 C1795 1.385 . S
C1794 C1796 1.478 . S
C1795 H1789 0.930 . S
C1795 C1791 1.400 . S
C1795 C1794 1.385 . S
C1796 C1794 1.478 . S
C1796 C1798 1.381 . S
C1796 C1802 1.383 . S
C1797 C1793 1.495 . S
C1797 H1803 0.959 . S
C1797 H1804 0.961 . S
C1797 H1805 0.960 . S
C1798 C1796 1.381 . S
C1798 C1799 1.394 . S
C1798 H1806 0.930 . S
C1799 C1798 1.394 . S
C1799 C1800 1.383 . S
C1799 H1807 0.929 . S
C1800 C1799 1.383 . S
C1800 C1801 1.377 . S
C1801 H1785 0.930 . S
C1801 C1800 1.377 . S
C1801 C1802 1.379 . S
C1802 H1786 0.931 . S
C1802 C1796 1.383 . S
C1802 C1801 1.379 . S
H1803 C1797 0.959 . S
H1804 C1797 0.961 . S
H1805 C1797 0.960 . S
H1806 C1798 0.930 . S
H1807 C1799 0.929 . S
H1808 C1816 0.929 . S
H1809 C1818 0.930 . S
H1810 C1820 0.930 1_655 S
H1811 C1823 0.929 1_655 S
H1812 C1826 0.930 . S
H1813 C1828 0.960 . S
H1814 C1828 0.960 . S
H1815 C1828 0.960 . S
C1816 H1808 0.929 . S
C1816 C1817 1.377 . S
C1816 C1818 1.384 . S
C1817 C1816 1.377 . S
C1817 C1823 1.390 . S
C1818 H1809 0.930 . S
C1818 C1816 1.384 . S
C1818 C1819 1.372 . S
C1819 C1818 1.372 . S
C1819 C1820 1.400 . S
C1819 C1824 1.490 . S
C1820 H1810 0.930 1_455 S
C1820 C1819 1.400 . S
C1820 C1823 1.386 . S
H1821 C1837 0.930 . S
H1822 C1838 0.931 . S
C1823 H1811 0.929 1_455 S
C1823 C1817 1.390 . S
C1823 C1820 1.386 . S
C1824 C1819 1.490 . S
C1824 C1826 1.395 . S
C1824 C1827 1.403 1_455 S
H1825 C1831 0.930 . S
C1826 H1812 0.930 . S
C1826 C1824 1.395 . S
C1826 C1829 1.403 . S
C1827 C1824 1.403 1_655 S
C1827 C1828 1.524 . S
C1827 C1831 1.400 . S
C1828 H1813 0.960 . S
C1828 H1814 0.960 . S
C1828 H1815 0.960 . S
C1828 C1827 1.524 . S
C1829 C1826 1.403 . S
C1829 C1830 1.392 1_455 S
C1829 C1833 1.495 . S
C1830 C1829 1.392 1_655 S
C1830 C1831 1.385 . S
C1830 C1832 1.478 . S
C1831 H1825 0.930 . S
C1831 C1827 1.400 . S
C1831 C1830 1.385 . S
C1832 C1830 1.478 . S
C1832 C1834 1.364 1_655 S
C1832 C1838 1.383 . S
C1833 C1829 1.495 . S
C1833 H1839 0.959 . S
C1833 H1840 0.961 . S
C1833 H1841 0.960 . S
C1834 C1832 1.364 1_455 S
C1834 C1835 1.382 1_455 S
C1834 H1842 0.961 . S
C1835 C1834 1.382 1_655 S
C1835 C1836 1.383 . S
C1835 H1843 0.932 1_655 S
C1836 C1835 1.383 . S
C1836 C1837 1.377 . S
C1837 H1821 0.930 . S
C1837 C1836 1.377 . S
C1837 C1838 1.379 . S
C1838 H1822 0.931 . S
C1838 C1832 1.383 . S
C1838 C1837 1.379 . S
H1839 C1833 0.959 . S
H1840 C1833 0.961 . S
H1841 C1833 0.960 . S
H1842 C1834 0.961 . S
H1843 C1835 0.932 1_455 S
H1844 C1852 0.929 . S
H1845 C1854 0.930 1_545 S
H1846 C1856 0.930 . S
H1847 C1859 0.929 . S
H1848 C1862 0.930 . S
H1849 C1864 0.960 . S
H1850 C1864 0.960 . S
H1851 C1864 0.960 1_565 S
C1852 H1844 0.929 . S
C1852 C1853 1.377 . S
C1852 C1854 1.384 . S
C1853 C1852 1.377 . S
C1853 C1859 1.390 . S
C1854 H1845 0.930 1_565 S
C1854 C1852 1.384 . S
C1854 C1855 1.372 . S
C1855 C1854 1.372 . S
C1855 C1856 1.400 . S
C1855 C1860 1.490 . S
C1856 H1846 0.930 . S
C1856 C1855 1.400 . S
C1856 C1859 1.386 . S
H1857 C1873 0.930 . S
H1858 C1874 0.931 1_565 S
C1859 H1847 0.929 . S
C1859 C1853 1.390 . S
C1859 C1856 1.386 . S
C1860 C1855 1.490 . S
C1860 C1862 1.395 . S
C1860 C1863 1.403 1_565 S
H1861 C1867 0.930 . S
C1862 H1848 0.930 . S
C1862 C1860 1.395 . S
C1862 C1865 1.403 . S
C1863 C1860 1.403 1_545 S
C1863 C1864 1.524 . S
C1863 C1867 1.400 . S
C1864 H1849 0.960 . S
C1864 H1850 0.960 . S
C1864 H1851 0.960 1_545 S
C1864 C1863 1.524 . S
C1865 C1862 1.403 . S
C1865 C1866 1.392 1_565 S
C1865 C1869 1.495 . S
C1866 C1865 1.392 1_545 S
C1866 C1867 1.385 . S
C1866 C1868 1.478 . S
C1867 H1861 0.930 . S
C1867 C1863 1.400 . S
C1867 C1866 1.385 . S
C1868 C1866 1.478 . S
C1868 C1870 1.381 . S
C1868 C1874 1.383 . S
C1869 C1865 1.495 . S
C1869 H1875 0.959 . S
C1869 H1876 0.961 . S
C1869 H1877 0.960 1_565 S
C1870 C1868 1.381 . S
C1870 C1871 1.394 . S
C1870 H1878 0.930 . S
C1871 C1870 1.394 . S
C1871 C1872 1.383 . S
C1871 H1879 0.929 . S
C1872 C1871 1.383 . S
C1872 C1873 1.377 . S
C1873 H1857 0.930 . S
C1873 C1872 1.377 . S
C1873 C1874 1.379 . S
C1874 H1858 0.931 1_545 S
C1874 C1868 1.383 . S
C1874 C1873 1.379 . S
H1875 C1869 0.959 . S
H1876 C1869 0.961 . S
H1877 C1869 0.960 1_545 S
H1878 C1870 0.930 . S
H1879 C1871 0.929 . S
H1880 C1888 0.929 . S
H1881 C1890 0.930 . S
H1882 C1892 0.930 1_655 S
H1883 C1895 0.929 . S
H1884 C1898 0.930 . S
H1885 C1900 0.960 . S
H1886 C1900 0.960 . S
H1887 C1900 0.960 . S
C1888 H1880 0.929 . S
C1888 C1889 1.377 . S
C1888 C1890 1.384 . S
C1889 C1888 1.377 . S
C1889 C1895 1.390 . S
C1890 H1881 0.930 . S
C1890 C1888 1.384 . S
C1890 C1891 1.372 . S
C1891 C1890 1.372 . S
C1891 C1892 1.400 . S
C1891 C1896 1.490 . S
C1892 H1882 0.930 1_455 S
C1892 C1891 1.400 . S
C1892 C1895 1.386 . S
H1893 C1909 0.930 . S
H1894 C1910 0.931 . S
C1895 H1883 0.929 . S
C1895 C1889 1.390 . S
C1895 C1892 1.386 . S
C1896 C1891 1.490 . S
C1896 C1898 1.395 1_455 S
C1896 C1899 1.403 . S
H1897 C1903 0.930 . S
C1898 H1884 0.930 . S
C1898 C1896 1.395 1_655 S
C1898 C1901 1.403 . S
C1899 C1896 1.403 . S
C1899 C1900 1.524 . S
C1899 C1903 1.400 . S
C1900 H1885 0.960 . S
C1900 H1886 0.960 . S
C1900 H1887 0.960 . S
C1900 C1899 1.524 . S
C1901 C1898 1.403 . S
C1901 C1902 1.392 . S
C1901 C1905 1.495 . S
C1902 C1901 1.392 . S
C1902 C1903 1.385 1_655 S
C1902 C1904 1.478 . S
C1903 H1897 0.930 . S
C1903 C1899 1.400 . S
C1903 C1902 1.385 1_455 S
C1904 C1902 1.478 . S
C1904 C1906 1.381 . S
C1904 C1910 1.383 . S
C1905 C1901 1.495 . S
C1905 H1911 0.959 . S
C1905 H1912 0.961 . S
C1905 H1913 0.960 . S
C1906 C1904 1.381 . S
C1906 C1907 1.394 . S
C1906 H1914 0.930 1_655 S
C1907 C1906 1.394 . S
C1907 C1908 1.383 . S
C1907 H1915 0.929 . S
C1908 C1907 1.383 . S
C1908 C1909 1.377 . S
C1909 H1893 0.930 . S
C1909 C1908 1.377 . S
C1909 C1910 1.379 . S
C1910 H1894 0.931 . S
C1910 C1904 1.383 . S
C1910 C1909 1.379 . S
H1911 C1905 0.959 . S
H1912 C1905 0.961 . S
H1913 C1905 0.960 . S
H1914 C1906 0.930 1_455 S
H1915 C1907 0.929 . S
H1916 C1924 0.935 . S
H1917 C1926 0.930 1_565 S
H1918 C1928 0.930 . S
H1919 C1931 0.929 . S
H1920 C1934 0.930 . S
H1921 C1936 0.960 . S
H1922 C1936 0.960 . S
H1923 C1936 0.960 1_545 S
C1924 H1916 0.935 . S
C1924 C1925 1.377 . S
C1924 C1926 1.384 . S
C1925 C1924 1.377 . S
C1925 C1931 1.390 . S
C1926 H1917 0.930 1_545 S
C1926 C1924 1.384 . S
C1926 C1927 1.372 . S
C1927 C1926 1.372 . S
C1927 C1928 1.400 . S
C1927 C1932 1.490 . S
C1928 H1918 0.930 . S
C1928 C1927 1.400 . S
C1928 C1931 1.386 . S
H1929 C1945 0.930 1_545 S
H1930 C1946 0.920 1_545 S
C1931 H1919 0.929 . S
C1931 C1925 1.390 . S
C1931 C1928 1.386 . S
C1932 C1927 1.490 . S
C1932 C1934 1.395 . S
C1932 C1935 1.392 1_545 S
H1933 C1939 0.930 . S
C1934 H1920 0.930 . S
C1934 C1932 1.395 . S
C1934 C1937 1.394 1_545 S
C1935 C1932 1.392 1_565 S
C1935 C1936 1.526 . S
C1935 C1939 1.411 . S
C1936 H1921 0.960 . S
C1936 H1922 0.960 . S
C1936 H1923 0.960 1_565 S
C1936 C1935 1.526 . S
C1937 C1934 1.394 1_565 S
C1937 C1938 1.403 . S
C1937 C1941 1.495 . S
C1938 C1937 1.403 . S
C1938 C1939 1.385 . S
C1938 C1940 1.478 . S
C1939 H1933 0.930 . S
C1939 C1935 1.411 . S
C1939 C1938 1.385 . S
C1940 C1938 1.478 . S
C1940 C1942 1.381 . S
C1940 C1946 1.390 . S
C1941 C1937 1.495 . S
C1941 H1947 0.956 1_565 S
C1941 H1948 0.954 1_565 S
C1941 H1949 0.970 . S
C1942 C1940 1.381 . S
C1942 C1943 1.394 . S
C1942 H1950 0.930 . S
C1943 C1942 1.394 . S
C1943 C1944 1.383 . S
C1943 H1951 0.929 . S
C1944 C1943 1.383 . S
C1944 C1945 1.377 . S
C1945 H1929 0.930 1_565 S
C1945 C1944 1.377 . S
C1945 C1946 1.383 . S
C1946 H1930 0.920 1_565 S
C1946 C1940 1.390 . S
C1946 C1945 1.383 . S
H1947 C1941 0.956 1_545 S
H1948 C1941 0.954 1_545 S
H1949 C1941 0.970 . S
H1950 C1942 0.930 . S
H1951 C1943 0.929 . S
H1952 C1960 0.929 . S
H1953 C1962 0.930 . S
H1954 C1964 0.930 . S
H1955 C1967 0.929 . S
H1956 C1970 0.930 . S
H1957 C1972 0.960 1_554 S
H1958 C1972 0.960 . S
H1959 C1972 0.960 . S
C1960 H1952 0.929 . S
C1960 C1961 1.377 . S
C1960 C1962 1.384 . S
C1961 C1960 1.377 . S
C1961 C1967 1.390 . S
C1962 H1953 0.930 . S
C1962 C1960 1.384 . S
C1962 C1963 1.372 . S
C1963 C1962 1.372 . S
C1963 C1964 1.400 . S
C1963 C1968 1.490 . S
C1964 H1954 0.930 . S
C1964 C1963 1.400 . S
C1964 C1967 1.386 . S
H1965 C1981 0.930 . S
H1966 C1982 0.931 . S
C1967 H1955 0.929 . S
C1967 C1961 1.390 . S
C1967 C1964 1.386 . S
C1968 C1963 1.490 . S
C1968 C1970 1.395 . S
C1968 C1971 1.403 . S
H1969 C1975 0.930 . S
C1970 H1956 0.930 . S
C1970 C1968 1.395 . S
C1970 C1973 1.403 1_556 S
C1971 C1968 1.403 . S
C1971 C1972 1.524 . S
C1971 C1975 1.400 1_556 S
C1972 H1957 0.960 1_556 S
C1972 H1958 0.960 . S
C1972 H1959 0.960 . S
C1972 C1971 1.524 . S
C1973 C1970 1.403 1_554 S
C1973 C1974 1.392 . S
C1973 C1977 1.495 . S
C1974 C1973 1.392 . S
C1974 C1975 1.385 . S
C1974 C1976 1.478 . S
C1975 H1969 0.930 . S
C1975 C1971 1.400 1_554 S
C1975 C1974 1.385 . S
C1976 C1974 1.478 . S
C1976 C1978 1.381 . S
C1976 C1982 1.383 . S
C1977 C1973 1.495 . S
C1977 H1983 0.959 1_554 S
C1977 H1984 0.961 . S
C1977 H1985 0.960 . S
C1978 C1976 1.381 . S
C1978 C1979 1.394 . S
C1978 H1986 0.930 . S
C1979 C1978 1.394 . S
C1979 C1980 1.383 . S
C1979 H1987 0.929 . S
C1980 C1979 1.383 . S
C1980 C1981 1.377 . S
C1981 H1965 0.930 . S
C1981 C1980 1.377 . S
C1981 C1982 1.379 . S
C1982 H1966 0.931 . S
C1982 C1976 1.383 . S
C1982 C1981 1.379 . S
H1983 C1977 0.959 1_556 S
H1984 C1977 0.961 . S
H1985 C1977 0.960 . S
H1986 C1978 0.930 . S
H1987 C1979 0.929 . S
H1988 C1996 0.929 . S
H1989 C1998 0.930 . S
H1990 C2000 0.930 . S
H1991 C2003 0.929 . S
H1992 C2006 0.930 . S
H1993 C2008 0.960 1_554 S
H1994 C2008 0.960 . S
H1995 C2008 0.960 . S
C1996 H1988 0.929 . S
C1996 C1997 1.377 . S
C1996 C1998 1.384 . S
C1997 C1996 1.377 . S
C1997 C2003 1.390 . S
C1998 H1989 0.930 . S
C1998 C1996 1.384 . S
C1998 C1999 1.372 . S
C1999 C1998 1.372 . S
C1999 C2000 1.400 . S
C1999 C2004 1.490 . S
C2000 H1990 0.930 . S
C2000 C1999 1.400 . S
C2000 C2003 1.386 . S
H2001 C2017 0.930 . S
H2002 C2018 0.931 . S
C2003 H1991 0.929 . S
C2003 C1997 1.390 . S
C2003 C2000 1.386 . S
C2004 C1999 1.490 . S
C2004 C2006 1.395 . S
C2004 C2007 1.403 . S
H2005 C2011 0.930 . S
C2006 H1992 0.930 . S
C2006 C2004 1.395 . S
C2006 C2009 1.403 1_556 S
C2007 C2004 1.403 . S
C2007 C2008 1.524 . S
C2007 C2011 1.400 1_556 S
C2008 H1993 0.960 1_556 S
C2008 H1994 0.960 . S
C2008 H1995 0.960 . S
C2008 C2007 1.524 . S
C2009 C2006 1.403 1_554 S
C2009 C2010 1.392 . S
C2009 C2013 1.495 . S
C2010 C2009 1.392 . S
C2010 C2011 1.385 . S
C2010 C2012 1.478 . S
C2011 H2005 0.930 . S
C2011 C2007 1.400 1_554 S
C2011 C2010 1.385 . S
C2012 C2010 1.478 . S
C2012 C2014 1.381 . S
C2012 C2018 1.383 . S
C2013 C2009 1.495 . S
C2013 H2019 0.959 1_554 S
C2013 H2020 0.961 . S
C2013 H2021 0.960 . S
C2014 C2012 1.381 . S
C2014 C2015 1.394 . S
C2014 H2022 0.930 . S
C2015 C2014 1.394 . S
C2015 C2016 1.383 . S
C2015 H2023 0.929 . S
C2016 C2015 1.383 . S
C2016 C2017 1.377 . S
C2017 H2001 0.930 . S
C2017 C2016 1.377 . S
C2017 C2018 1.379 . S
C2018 H2002 0.931 . S
C2018 C2012 1.383 . S
C2018 C2017 1.379 . S
H2019 C2013 0.959 1_556 S
H2020 C2013 0.961 . S
H2021 C2013 0.960 . S
H2022 C2014 0.930 . S
H2023 C2015 0.929 . S
H2024 C2032 0.929 . S
H2025 C2034 0.930 . S
H2026 C2036 0.930 . S
H2027 C2039 0.929 . S
H2028 C2042 0.930 . S
H2029 C2044 0.960 1_556 S
H2030 C2044 0.960 . S
H2031 C2044 0.960 . S
C2032 H2024 0.929 . S
C2032 C2033 1.377 . S
C2032 C2034 1.384 . S
C2033 C2032 1.377 . S
C2033 C2039 1.390 . S
C2034 H2025 0.930 . S
C2034 C2032 1.384 . S
C2034 C2035 1.372 . S
C2035 C2034 1.372 . S
C2035 C2036 1.400 . S
C2035 C2040 1.490 . S
C2036 H2026 0.930 . S
C2036 C2035 1.400 . S
C2036 C2039 1.386 . S
H2037 C2053 0.930 . S
H2038 C2054 0.931 . S
C2039 H2027 0.929 . S
C2039 C2033 1.390 . S
C2039 C2036 1.386 . S
C2040 C2035 1.490 . S
C2040 C2042 1.395 . S
C2040 C2043 1.403 . S
H2041 C2047 0.930 . S
C2042 H2028 0.930 . S
C2042 C2040 1.395 . S
C2042 C2045 1.403 1_554 S
C2043 C2040 1.403 . S
C2043 C2044 1.524 . S
C2043 C2047 1.400 1_554 S
C2044 H2029 0.960 1_554 S
C2044 H2030 0.960 . S
C2044 H2031 0.960 . S
C2044 C2043 1.524 . S
C2045 C2042 1.403 1_556 S
C2045 C2046 1.392 . S
C2045 C2049 1.495 . S
C2046 C2045 1.392 . S
C2046 C2047 1.385 . S
C2046 C2048 1.478 . S
C2047 H2041 0.930 . S
C2047 C2043 1.400 1_556 S
C2047 C2046 1.385 . S
C2048 C2046 1.478 . S
C2048 C2050 1.381 . S
C2048 C2054 1.383 . S
C2049 C2045 1.495 . S
C2049 H2055 0.959 1_556 S
C2049 H2056 0.961 . S
C2049 H2057 0.960 . S
C2050 C2048 1.381 . S
C2050 C2051 1.394 . S
C2050 H2058 0.930 . S
C2051 C2050 1.394 . S
C2051 C2052 1.383 . S
C2051 H2059 0.929 . S
C2052 C2051 1.383 . S
C2052 C2053 1.377 . S
C2053 H2037 0.930 . S
C2053 C2052 1.377 . S
C2053 C2054 1.379 . S
C2054 H2038 0.931 . S
C2054 C2048 1.383 . S
C2054 C2053 1.379 . S
H2055 C2049 0.959 1_554 S
H2056 C2049 0.961 . S
H2057 C2049 0.960 . S
H2058 C2050 0.930 . S
H2059 C2051 0.929 . S
H2060 C2068 0.929 . S
H2061 C2070 0.930 . S
H2062 C2072 0.930 . S
H2063 C2075 0.929 . S
H2064 C2078 0.930 . S
H2065 C2080 0.960 . S
H2066 C2080 0.960 . S
H2067 C2080 0.960 . S
C2068 H2060 0.929 . S
C2068 C2069 1.377 . S
C2068 C2070 1.384 . S
C2069 C2068 1.377 . S
C2069 C2075 1.390 . S
C2070 H2061 0.930 . S
C2070 C2068 1.384 . S
C2070 C2071 1.372 . S
C2071 C2070 1.372 . S
C2071 C2072 1.400 . S
C2071 C2076 1.490 . S
C2072 H2062 0.930 . S
C2072 C2071 1.400 . S
C2072 C2075 1.386 . S
H2073 C2089 0.930 . S
H2074 C2090 0.931 . S
C2075 H2063 0.929 . S
C2075 C2069 1.390 . S
C2075 C2072 1.386 . S
C2076 C2071 1.490 . S
C2076 C2078 1.395 . S
C2076 C2079 1.403 . S
H2077 C2083 0.930 . S
C2078 H2064 0.930 . S
C2078 C2076 1.395 . S
C2078 C2081 1.403 1_556 S
C2079 C2076 1.403 . S
C2079 C2080 1.524 . S
C2079 C2083 1.400 1_556 S
C2080 H2065 0.960 . S
C2080 H2066 0.960 . S
C2080 H2067 0.960 . S
C2080 C2079 1.524 . S
C2081 C2078 1.403 1_554 S
C2081 C2082 1.392 . S
C2081 C2085 1.495 . S
C2082 C2081 1.392 . S
C2082 C2083 1.385 . S
C2082 C2084 1.478 . S
C2083 H2077 0.930 . S
C2083 C2079 1.400 1_554 S
C2083 C2082 1.385 . S
C2084 C2082 1.478 . S
C2084 C2086 1.381 . S
C2084 C2090 1.383 . S
C2085 C2081 1.495 . S
C2085 H2091 0.959 . S
C2085 H2092 0.961 . S
C2085 H2093 0.960 . S
C2086 C2084 1.381 . S
C2086 C2087 1.394 . S
C2086 H2094 0.930 . S
C2087 C2086 1.394 . S
C2087 C2088 1.383 . S
C2087 H2095 0.929 . S
C2088 C2087 1.383 . S
C2088 C2089 1.377 . S
C2089 H2073 0.930 . S
C2089 C2088 1.377 . S
C2089 C2090 1.379 . S
C2090 H2074 0.931 . S
C2090 C2084 1.383 . S
C2090 C2089 1.379 . S
H2091 C2085 0.959 . S
H2092 C2085 0.961 . S
H2093 C2085 0.960 . S
H2094 C2086 0.930 . S
H2095 C2087 0.929 . S
C953 C3 1.609 . S
C972 C229 1.616 1_545 S
C989 C52 1.631 1_655 S
C1008 C62 1.625 . S
C1025 C111 1.629 1_565 S
C1044 C121 1.623 . S
C1061 C170 1.635 1_455 S
C1080 C180 1.597 . S
C1097 C239 1.612 . S
C1116 C347 1.633 1_565 S
C1133 C298 1.610 . S
C1152 C406 1.639 1_455 S
C1169 C357 1.612 . S
C1188 C465 1.634 1_545 S
C1205 C416 1.612 . S
C1224 C288 1.633 1_655 S
C1241 C475 1.606 . S
C1260 C701 1.624 . S
C1277 C524 1.634 . S
C1296 C534 1.601 . S
C1313 C583 1.634 . S
C1332 C593 1.590 . S
C1349 C652 1.606 . S
C1368 C642 1.625 . S
C1385 C819 1.629 . S
C1404 C711 1.622 . S
C1421 C878 1.629 . S
C1440 C770 1.622 . S
C1457 C829 1.613 . S
C1476 C937 1.629 . S
C1493 C888 1.614 . S
C1512 C760 1.622 . S
C1529 C5 1.345 . S
C1548 C890 1.345 . S
C1565 C64 1.336 . S
C1584 C713 1.329 . S
C1601 C772 1.336 . S
C1620 C123 1.326 . S
C1637 C182 1.335 . S
C1656 C831 1.313 . S
C1673 C536 1.346 . S
C1692 C241 1.355 . S
C1709 C595 1.344 . S
C1728 C300 1.364 . S
C1745 C359 1.340 . S
C1764 C654 1.351 . S
C1781 C418 1.345 . S
C1800 C477 1.348 . S
C1817 C33 1.673 . S
C1836 C387 1.684 . S
C1853 C446 1.677 . S
C1872 C92 1.664 . S
C1889 C269 1.674 . S
C1908 C151 1.680 . S
C1925 C328 1.678 . S
C1944 C210 1.662 . S
C1961 C505 1.678 . S
C1980 C859 1.658 . S
C1997 C564 1.677 . S
C2016 C918 1.664 . S
C2033 C741 1.678 . S
C2052 C623 1.662 . S
C2069 C682 1.674 . S
C2088 C800 1.680 . S
