# Generated by pormake.
# Topology wfu, (7)-cn, num edge types: 1
# Building blocks:
#     Node 0, Type 0, BuildingBlock: NUHQUE_clean_sbu_2, # of connection points: 7
#     Node 1, Type 0, BuildingBlock: NUHQUE_clean_sbu_2, # of connection points: 7
#     Node 2, Type 0, BuildingBlock: NUHQUE_clean_sbu_2, # of connection points: 7
#     Node 3, Type 0, BuildingBlock: NUHQUE_clean_sbu_2, # of connection points: 7
#     Node 4, Type 0, BuildingBlock: NUHQUE_clean_sbu_2, # of connection points: 7
#     Node 5, Type 0, BuildingBlock: NUHQUE_clean_sbu_2, # of connection points: 7
#     Node 6, Type 0, BuildingBlock: NUHQUE_clean_sbu_2, # of connection points: 7
#     Node 7, Type 0, BuildingBlock: NUHQUE_clean_sbu_2, # of connection points: 7
#     Edge 8, Type (0, 0), BuildingBlock: MIFKUJ_clean_linker_0, # of connection points: 2
#     Edge 9, Type (0, 0), BuildingBlock: MIFKUJ_clean_linker_0, # of connection points: 2
#     Edge 10, Type (0, 0), BuildingBlock: MIFKUJ_clean_linker_0, # of connection points: 2
#     Edge 11, Type (0, 0), BuildingBlock: MIFKUJ_clean_linker_0, # of connection points: 2
#     Edge 12, Type (0, 0), BuildingBlock: MIFKUJ_clean_linker_0, # of connection points: 2
#     Edge 13, Type (0, 0), BuildingBlock: MIFKUJ_clean_linker_0, # of connection points: 2
#     Edge 14, Type (0, 0), BuildingBlock: MIFKUJ_clean_linker_0, # of connection points: 2
#     Edge 15, Type (0, 0), BuildingBlock: MIFKUJ_clean_linker_0, # of connection points: 2
#     Edge 16, Type (0, 0), BuildingBlock: MIFKUJ_clean_linker_0, # of connection points: 2
#     Edge 17, Type (0, 0), BuildingBlock: MIFKUJ_clean_linker_0, # of connection points: 2
#     Edge 18, Type (0, 0), BuildingBlock: MIFKUJ_clean_linker_0, # of connection points: 2
#     Edge 19, Type (0, 0), BuildingBlock: MIFKUJ_clean_linker_0, # of connection points: 2
#     Edge 20, Type (0, 0), BuildingBlock: MIFKUJ_clean_linker_0, # of connection points: 2
#     Edge 21, Type (0, 0), BuildingBlock: MIFKUJ_clean_linker_0, # of connection points: 2
#     Edge 22, Type (0, 0), BuildingBlock: MIFKUJ_clean_linker_0, # of connection points: 2
#     Edge 23, Type (0, 0), BuildingBlock: MIFKUJ_clean_linker_0, # of connection points: 2
#     Edge 24, Type (0, 0), BuildingBlock: MIFKUJ_clean_linker_0, # of connection points: 2
#     Edge 25, Type (0, 0), BuildingBlock: MIFKUJ_clean_linker_0, # of connection points: 2
#     Edge 26, Type (0, 0), BuildingBlock: MIFKUJ_clean_linker_0, # of connection points: 2
#     Edge 27, Type (0, 0), BuildingBlock: MIFKUJ_clean_linker_0, # of connection points: 2
#     Edge 28, Type (0, 0), BuildingBlock: MIFKUJ_clean_linker_0, # of connection points: 2
#     Edge 29, Type (0, 0), BuildingBlock: MIFKUJ_clean_linker_0, # of connection points: 2
#     Edge 30, Type (0, 0), BuildingBlock: MIFKUJ_clean_linker_0, # of connection points: 2
#     Edge 31, Type (0, 0), BuildingBlock: MIFKUJ_clean_linker_0, # of connection points: 2
#     Edge 32, Type (0, 0), BuildingBlock: MIFKUJ_clean_linker_0, # of connection points: 2
#     Edge 33, Type (0, 0), BuildingBlock: MIFKUJ_clean_linker_0, # of connection points: 2
#     Edge 34, Type (0, 0), BuildingBlock: MIFKUJ_clean_linker_0, # of connection points: 2
#     Edge 35, Type (0, 0), BuildingBlock: MIFKUJ_clean_linker_0, # of connection points: 2
# Relax obj value: 0.189
# Max RMSD: 0.200
# Mean RMSD: 0.200
data_MOF--net-wfu--node1-NUHQUE_clean_sbu_2--edge1-MIFKUJ_clean_linker_0
_symmetry_space_group_name_H-M    P1
_symmetry_Int_Tables_number       1
_symmetry_cell_setting            triclinic
loop_
_symmetry_equiv_pos_as_xyz
'x, y, z'
_cell_length_a     46.479355
_cell_length_b     46.497216
_cell_length_c     39.415248
_cell_angle_alpha  90.022794
_cell_angle_beta   89.919404
_cell_angle_gamma 90.012434
loop_
_atom_site_label
_atom_site_type_symbol
_atom_site_fract_x
_atom_site_fract_y
_atom_site_fract_z
_atom_type_partial_charge
O0 O 0.29255 0.45906 0.19503 0.0
Tb1 Tb 0.31411 0.42241 0.17117 0.0
Eu2 Eu 0.34511 0.3615 0.22787 0.0
C3 C 0.30461 0.47584 0.21792 0.0
O4 O 0.32962 0.46867 0.23079 0.0
C5 C 0.37492 0.42526 0.2127 0.0
O6 O 0.37982 0.3321 0.20825 0.0
C7 C 0.32083 0.34269 0.28344 0.0
C8 C 0.40713 0.33902 0.21077 0.0
O9 O 0.41446 0.36055 0.23046 0.0
C10 C 0.30014 0.35852 0.16681 0.0
C11 C 0.30424 0.31878 0.29928 0.0
C12 C 0.29383 0.32192 0.33291 0.0
C13 C 0.27973 0.29895 0.3494 0.0
C14 C 0.27534 0.27328 0.33163 0.0
C15 C 0.28517 0.26975 0.29826 0.0
C16 C 0.3 0.29242 0.28218 0.0
O17 O 0.35848 0.43173 0.18637 0.0
O18 O 0.36978 0.40376 0.23403 0.0
O19 O 0.29258 0.44009 0.1266 0.0
O20 O 0.33282 0.41938 0.12016 0.0
C21 C 0.31209 0.43274 0.10466 0.0
O22 O 0.32311 0.34661 0.17996 0.0
O23 O 0.29056 0.38271 0.17976 0.0
O24 O 0.34775 0.33733 0.27507 0.0
O25 O 0.30753 0.3594 0.26139 0.0
H26 H 0.29745 0.34184 0.34653 0.0
H27 H 0.26442 0.25557 0.34417 0.0
H28 H 0.30812 0.2896 0.2566 0.0
O29 O 0.4588 0.7064 0.80149 0.0
Tb30 Tb 0.42917 0.69464 0.84201 0.0
Eu31 Eu 0.3666 0.67771 0.78677 0.0
C32 C 0.48145 0.68975 0.79716 0.0
O33 O 0.48224 0.66513 0.81348 0.0
C34 C 0.42066 0.63831 0.80228 0.0
O35 O 0.34639 0.64077 0.81546 0.0
C36 C 0.34091 0.69162 0.73015 0.0
C37 C 0.35147 0.63952 0.84828 0.0
O38 O 0.36677 0.66008 0.86222 0.0
C39 C 0.36599 0.72356 0.85223 0.0
C40 C 0.31673 0.70907 0.71616 0.0
C41 C 0.31948 0.72239 0.6839 0.0
C42 C 0.29647 0.73837 0.66983 0.0
C43 C 0.27076 0.74043 0.68838 0.0
C44 C 0.26751 0.72724 0.72005 0.0
C45 C 0.29045 0.71151 0.73393 0.0
O46 O 0.4198 0.64961 0.8327 0.0
O47 O 0.40722 0.65125 0.77711 0.0
O48 O 0.46007 0.71557 0.87585 0.0
O49 O 0.44596 0.67341 0.88744 0.0
C50 C 0.46238 0.69443 0.89713 0.0
O51 O 0.35243 0.70897 0.82822 0.0
O52 O 0.39406 0.72278 0.85711 0.0
O53 O 0.33409 0.66892 0.74847 0.0
O54 O 0.36349 0.70553 0.74204 0.0
H55 H 0.33945 0.72033 0.66989 0.0
H56 H 0.25249 0.75169 0.67761 0.0
H57 H 0.28778 0.70119 0.75839 0.0
O58 O 0.71047 0.5525 0.19796 0.0
Tb59 Tb 0.69942 0.59004 0.16766 0.0
Eu60 Eu 0.67468 0.64866 0.2306 0.0
C61 C 0.69502 0.52899 0.19413 0.0
O62 O 0.67231 0.52996 0.17439 0.0
C63 C 0.64139 0.59027 0.2089 0.0
O64 O 0.63994 0.6774 0.21041 0.0
C65 C 0.69712 0.66758 0.28693 0.0
C66 C 0.61304 0.66888 0.20878 0.0
O67 O 0.60509 0.64593 0.22577 0.0
C68 C 0.71914 0.65241 0.16861 0.0
C69 C 0.71233 0.69265 0.30184 0.0
C70 C 0.72232 0.6912 0.33572 0.0
C71 C 0.73534 0.7153 0.35111 0.0
C72 C 0.73906 0.74035 0.33195 0.0
C73 C 0.72958 0.74213 0.29832 0.0
C74 C 0.71592 0.71835 0.28327 0.0
O75 O 0.65333 0.59114 0.17853 0.0
O76 O 0.65203 0.6051 0.23469 0.0
O77 O 0.72251 0.5662 0.12848 0.0
O78 O 0.68757 0.5928 0.1139 0.0
C79 C 0.70735 0.57527 0.103 0.0
O80 O 0.69789 0.6655 0.18416 0.0
O81 O 0.72676 0.6266 0.17852 0.0
O82 O 0.67 0.67152 0.27845 0.0
O83 O 0.71143 0.6516 0.26495 0.0
H84 H 0.71923 0.6717 0.35032 0.0
H85 H 0.7494 0.75887 0.34341 0.0
H86 H 0.70821 0.7198 0.25739 0.0
O87 O 0.54751 0.28513 0.80693 0.0
Tb88 Tb 0.5792 0.30837 0.83736 0.0
Eu89 Eu 0.64028 0.33868 0.78548 0.0
C90 C 0.53177 0.29735 0.78318 0.0
O91 O 0.53805 0.32347 0.77311 0.0
C92 C 0.57734 0.36816 0.79597 0.0
O93 O 0.66014 0.37806 0.809 0.0
C94 C 0.66536 0.31934 0.73074 0.0
C95 C 0.64824 0.38583 0.83789 0.0
O96 O 0.62669 0.37038 0.84942 0.0
C97 C 0.64319 0.29324 0.84737 0.0
C98 C 0.69029 0.30384 0.71558 0.0
C99 C 0.68771 0.29213 0.68248 0.0
C100 C 0.71187 0.28039 0.66577 0.0
C101 C 0.73826 0.27994 0.68269 0.0
C102 C 0.7414 0.29141 0.71536 0.0
C103 C 0.71727 0.30307 0.73205 0.0
O104 O 0.57129 0.35324 0.82356 0.0
O105 O 0.59772 0.3608 0.77422 0.0
O106 O 0.54986 0.29105 0.87551 0.0
O107 O 0.58205 0.32056 0.89104 0.0
C108 C 0.5606 0.30478 0.90122 0.0
O109 O 0.65475 0.31607 0.83325 0.0
O110 O 0.61865 0.28299 0.83598 0.0
O111 O 0.6702 0.34502 0.74369 0.0
O112 O 0.64603 0.30441 0.74785 0.0
H113 H 0.6673 0.29322 0.66928 0.0
H114 H 0.75685 0.27073 0.66999 0.0
H115 H 0.71969 0.31244 0.75706 0.0
O116 O 0.79925 0.05382 0.31331 0.0
Tb117 Tb 0.81175 0.08965 0.34589 0.0
Eu118 Eu 0.83752 0.14788 0.28584 0.0
C119 C 0.81435 0.02992 0.31547 0.0
O120 O 0.83708 0.02974 0.33517 0.0
C121 C 0.87046 0.0894 0.3067 0.0
O122 O 0.87417 0.17451 0.30602 0.0
C123 C 0.81558 0.16724 0.22926 0.0
C124 C 0.90091 0.1661 0.30175 0.0
O125 O 0.90632 0.14512 0.28041 0.0
C126 C 0.79116 0.15164 0.34658 0.0
C127 C 0.79936 0.19163 0.21407 0.0
C128 C 0.7892 0.1896 0.18021 0.0
C129 C 0.77529 0.21318 0.16472 0.0
C130 C 0.771 0.23825 0.18361 0.0
C131 C 0.78059 0.24058 0.21712 0.0
C132 C 0.79504 0.21738 0.23236 0.0
O133 O 0.85805 0.09049 0.33673 0.0
O134 O 0.86038 0.10448 0.28084 0.0
O135 O 0.79389 0.06035 0.38363 0.0
O136 O 0.81898 0.09569 0.40043 0.0
C137 C 0.80435 0.07329 0.41007 0.0
O138 O 0.81362 0.16389 0.33234 0.0
O139 O 0.78329 0.1258 0.33688 0.0
O140 O 0.8421 0.17255 0.23919 0.0
O141 O 0.80158 0.14997 0.2501 0.0
H142 H 0.79278 0.1701 0.16573 0.0
H143 H 0.7602 0.25642 0.17191 0.0
H144 H 0.80285 0.21934 0.25815 0.0
O145 O 0.04781 0.2101 0.69903 0.0
Tb146 Tb 0.08437 0.19968 0.6666 0.0
Eu147 Eu 0.14323 0.17672 0.72746 0.0
C148 C 0.02309 0.19762 0.69195 0.0
O149 O 0.02259 0.17833 0.66758 0.0
C150 C 0.08499 0.14279 0.70913 0.0
O151 O 0.16655 0.13939 0.70343 0.0
C152 C 0.16574 0.1944 0.78447 0.0
C153 C 0.16285 0.13614 0.67057 0.0
O154 O 0.14544 0.15372 0.65455 0.0
C155 C 0.14646 0.22335 0.66596 0.0
C156 C 0.19128 0.20897 0.79942 0.0
C157 C 0.18975 0.22025 0.83281 0.0
C158 C 0.21461 0.23107 0.84891 0.0
C159 C 0.24069 0.23092 0.83114 0.0
C160 C 0.24266 0.22009 0.79804 0.0
C161 C 0.21783 0.20941 0.782 0.0
O162 O 0.08619 0.15391 0.67847 0.0
O163 O 0.09997 0.15406 0.73435 0.0
O164 O 0.05746 0.21865 0.62701 0.0
O165 O 0.08636 0.18515 0.61379 0.0
C166 C 0.06676 0.20257 0.60236 0.0
O167 O 0.15984 0.20307 0.68304 0.0
O168 O 0.11966 0.22999 0.67314 0.0
O169 O 0.16992 0.16857 0.77167 0.0
O170 O 0.14767 0.21005 0.76647 0.0
H171 H 0.16958 0.2196 0.84663 0.0
H172 H 0.25986 0.23933 0.84335 0.0
H173 H 0.21939 0.20051 0.75664 0.0
O174 O 0.21152 0.95875 0.31037 0.0
Tb175 Tb 0.19716 0.92346 0.34274 0.0
Eu176 Eu 0.16721 0.86427 0.28705 0.0
C177 C 0.19825 0.98367 0.31331 0.0
O178 O 0.17603 0.98538 0.3338 0.0
C179 C 0.13777 0.92511 0.30347 0.0
O180 O 0.12511 0.84583 0.30492 0.0
C181 C 0.18647 0.8412 0.231 0.0
C182 C 0.12407 0.82164 0.32209 0.0
O183 O 0.14744 0.80589 0.3246 0.0
C184 C 0.21329 0.85993 0.34785 0.0
C185 C 0.20264 0.81713 0.21492 0.0
C186 C 0.21442 0.82096 0.18205 0.0
C187 C 0.22812 0.79798 0.16516 0.0
C188 C 0.22952 0.77117 0.18107 0.0
C189 C 0.21748 0.7667 0.21325 0.0
C190 C 0.20442 0.78983 0.23048 0.0
O191 O 0.15097 0.92622 0.33299 0.0
O192 O 0.14711 0.90837 0.2787 0.0
O193 O 0.21868 0.94883 0.38197 0.0
O194 O 0.18365 0.92201 0.39586 0.0
C195 C 0.20255 0.94031 0.40697 0.0
O196 O 0.18983 0.84877 0.33468 0.0
O197 O 0.22293 0.88471 0.33655 0.0
O198 O 0.16128 0.83512 0.24448 0.0
O199 O 0.20093 0.86074 0.24826 0.0
H200 H 0.21273 0.84166 0.16956 0.0
H201 H 0.2397 0.75332 0.16793 0.0
H202 H 0.19489 0.78635 0.25525 0.0
O203 O 0.95771 0.79927 0.71187 0.0
Tb204 Tb 0.92486 0.81505 0.67706 0.0
Eu205 Eu 0.86357 0.84182 0.73074 0.0
C206 C 0.98243 0.81305 0.71336 0.0
O207 O 0.98525 0.83699 0.69608 0.0
C208 C 0.92377 0.87412 0.71751 0.0
O209 O 0.84401 0.8823 0.70941 0.0
C210 C 0.8388 0.82168 0.78535 0.0
C211 C 0.84987 0.88765 0.67736 0.0
O212 O 0.86645 0.86967 0.66065 0.0
C213 C 0.86193 0.79521 0.66946 0.0
C214 C 0.8151 0.80286 0.79788 0.0
C215 C 0.81702 0.79055 0.8307 0.0
C216 C 0.79497 0.77251 0.84319 0.0
C217 C 0.77102 0.76719 0.82268 0.0
C218 C 0.76826 0.77977 0.79059 0.0
C219 C 0.7903 0.79768 0.77812 0.0
O220 O 0.92624 0.86111 0.68795 0.0
O221 O 0.90606 0.8646 0.74125 0.0
O222 O 0.95524 0.79668 0.6406 0.0
O223 O 0.92473 0.82725 0.62337 0.0
C224 C 0.94614 0.81093 0.6144 0.0
O225 O 0.84937 0.81742 0.68386 0.0
O226 O 0.88754 0.78679 0.67943 0.0
O227 O 0.83155 0.84615 0.77087 0.0
O228 O 0.86091 0.80909 0.77049 0.0
H229 H 0.83566 0.79489 0.8464 0.0
H230 H 0.75365 0.75389 0.83236 0.0
H231 H 0.78816 0.80746 0.7533 0.0
H232 H 0.25609 0.37976 0.12693 0.0
H233 H 0.23683 0.35905 0.0743 0.0
H234 H 0.29499 0.28728 0.08387 0.0
H235 H 0.31434 0.3078 0.13598 0.0
H236 H 0.29633 0.30745 0.02098 0.0
H237 H 0.22175 0.28086 0.10001 0.0
H238 H 0.18454 0.2898 0.14341 0.0
H239 H 0.13892 0.34446 0.07411 0.0
H240 H 0.17607 0.33609 0.0304 0.0
H241 H 0.24588 0.20958 0.90108 0.0
H242 H 0.25537 0.23195 0.95606 0.0
H243 H 0.19551 0.29983 0.93227 0.0
H244 H 0.18561 0.27698 0.87701 0.0
H245 H 0.19332 0.28574 1.00031 0.0
H246 H 0.26655 0.3094 0.91989 0.0
H247 H 0.30382 0.30011 0.87672 0.0
H248 H 0.35275 0.25154 0.94903 0.0
H249 H 0.31548 0.26001 0.99252 0.0
C250 C 0.26456 0.35942 0.11801 0.0
C251 C 0.28677 0.34548 0.13591 0.0
C252 C 0.25348 0.34754 0.08787 0.0
C253 C 0.26429 0.32142 0.07497 0.0
C254 C 0.28625 0.30744 0.09304 0.0
C255 C 0.29727 0.31923 0.12305 0.0
C256 C 0.25366 0.30887 0.0422 0.0
C257 C 0.27382 0.30244 0.01671 0.0
C258 C 0.22418 0.30307 0.03589 0.0
C259 C 0.20184 0.30811 0.06209 0.0
C260 C 0.20391 0.29497 0.09413 0.0
C261 C 0.1828 0.29989 0.11876 0.0
C262 C 0.15943 0.31776 0.11156 0.0
C263 C 0.15706 0.33067 0.07967 0.0
C264 C 0.17812 0.32583 0.05495 0.0
C265 C 0.23419 0.22889 0.90792 0.0
C266 C 0.21496 0.2415 0.88474 0.0
C267 C 0.23981 0.24184 0.93927 0.0
C268 C 0.22671 0.26802 0.94818 0.0
C269 C 0.20604 0.27974 0.92601 0.0
C270 C 0.20026 0.26661 0.89451 0.0
C271 C 0.23613 0.28372 0.97952 0.0
C272 C 0.21579 0.29087 1.00459 0.0
C273 C 0.26552 0.29022 0.98553 0.0
C274 C 0.28804 0.28512 0.9594 0.0
C275 C 0.28512 0.29651 0.92652 0.0
C276 C 0.30626 0.2914 0.90198 0.0
C277 C 0.33058 0.27517 0.91007 0.0
C278 C 0.33385 0.26405 0.94276 0.0
C279 C 0.31273 0.269 0.96738 0.0
H280 H 0.34692 0.27127 0.89102 0.0
H281 H 0.14311 0.32155 0.13066 0.0
H282 H 0.30665 0.72842 0.85857 0.0
H283 H 0.27973 0.74686 0.90779 0.0
H284 H 0.35933 0.77103 0.9558 0.0
H285 H 0.3862 0.75361 0.90704 0.0
H286 H 0.32167 0.7326 0.99451 0.0
H287 H 0.32012 0.82135 0.93021 0.0
H288 H 0.30827 0.85132 0.8806 0.0
H289 H 0.21844 0.83355 0.8949 0.0
H290 H 0.2298 0.80286 0.94416 0.0
H291 H 0.28458 0.79745 0.14756 0.0
H292 H 0.30496 0.7902 0.09089 0.0
H293 H 0.21973 0.79335 0.04782 0.0
H294 H 0.19947 0.80162 0.10471 0.0
H295 H 0.25579 0.81613 1.00398 0.0
H296 H 0.25387 0.72899 0.06599 0.0
H297 H 0.26226 0.69443 0.11237 0.0
H298 H 0.35354 0.70389 0.09985 0.0
H299 H 0.34574 0.73896 0.05383 0.0
C300 C 0.31842 0.73831 0.87919 0.0
C301 C 0.34876 0.73928 0.87857 0.0
C302 C 0.30296 0.74877 0.90741 0.0
C303 C 0.31753 0.76014 0.93567 0.0
C304 C 0.3476 0.76225 0.93443 0.0
C305 C 0.36295 0.75227 0.90625 0.0
C306 C 0.30213 0.76778 0.96775 0.0
C307 C 0.30751 0.75107 0.99669 0.0
C308 C 0.28266 0.79111 0.97027 0.0
C309 C 0.27586 0.80945 0.94059 0.0
C310 C 0.29787 0.82348 0.92251 0.0
C311 C 0.29123 0.84065 0.89448 0.0
C312 C 0.26263 0.84419 0.88448 0.0
C313 C 0.24059 0.83064 0.90256 0.0
C314 C 0.24712 0.81335 0.93053 0.0
C315 C 0.27033 0.79753 0.12583 0.0
C316 C 0.24051 0.8005 0.13045 0.0
C317 C 0.28192 0.79297 0.09344 0.0
C318 C 0.2639 0.79046 0.0649 0.0
C319 C 0.23418 0.79506 0.06927 0.0
C320 C 0.22259 0.79998 0.10175 0.0
C321 C 0.27603 0.78141 0.03121 0.0
C322 C 0.26991 0.79764 1.00193 0.0
C323 C 0.29438 0.75714 0.02807 0.0
C324 C 0.2992 0.7368 0.05658 0.0
C325 C 0.27574 0.72397 0.07337 0.0
C326 C 0.28039 0.70423 0.09954 0.0
C327 C 0.30841 0.69688 0.10892 0.0
C328 C 0.33185 0.70953 0.09246 0.0
C329 C 0.32732 0.72937 0.06635 0.0
H330 H 0.31198 0.68135 0.1289 0.0
H331 H 0.25752 0.85753 0.86281 0.0
H332 H 0.80007 0.80022 0.90437 0.0
H333 H 0.79064 0.78021 0.96087 0.0
H334 H 0.78 0.69589 0.9168 0.0
H335 H 0.78834 0.71614 0.8604 0.0
H336 H 0.73911 0.7027 0.95825 0.0
H337 H 0.84063 0.71768 0.96854 0.0
H338 H 0.88628 0.74466 0.96646 0.0
H339 H 0.85442 0.80353 0.04159 0.0
H340 H 0.80842 0.77709 0.04381 0.0
H341 H 0.74756 0.62517 0.11663 0.0
H342 H 0.76369 0.64596 0.06265 0.0
H343 H 0.73577 0.72976 0.09575 0.0
H344 H 0.71863 0.70899 0.14933 0.0
H345 H 0.79673 0.72275 0.06147 0.0
H346 H 0.69341 0.70865 0.04595 0.0
H347 H 0.64953 0.67889 0.04996 0.0
H348 H 0.68829 0.61491 0.98612 0.0
H349 H 0.73252 0.6443 0.98189 0.0
C350 C 0.79648 0.77731 0.90693 0.0
C351 C 0.79528 0.75973 0.87796 0.0
C352 C 0.79099 0.7658 0.9393 0.0
C353 C 0.78474 0.73632 0.94353 0.0
C354 C 0.7846 0.71865 0.91456 0.0
C355 C 0.78967 0.7302 0.88227 0.0
C356 C 0.77698 0.72407 0.97764 0.0
C357 C 0.75207 0.70691 0.98057 0.0
C358 C 0.79335 0.72963 0.00734 0.0
C359 C 0.82098 0.74557 1.00609 0.0
C360 C 0.84328 0.7365 0.98443 0.0
C361 C 0.86923 0.75168 0.98326 0.0
C362 C 0.87322 0.77584 1.00381 0.0
C363 C 0.85128 0.78483 0.02565 0.0
C364 C 0.82528 0.76975 0.0269 0.0
C365 C 0.74506 0.64806 0.1126 0.0
C366 C 0.73173 0.66538 0.13735 0.0
C367 C 0.75428 0.65991 0.08169 0.0
C368 C 0.75097 0.68943 0.07518 0.0
C369 C 0.73863 0.70696 0.10028 0.0
C370 C 0.7288 0.69502 0.13087 0.0
C371 C 0.75919 0.7017 0.04159 0.0
C372 C 0.78402 0.71872 0.0389 0.0
C373 C 0.74302 0.69582 0.01206 0.0
C374 C 0.71625 0.67854 0.01372 0.0
C375 C 0.69258 0.68819 0.03283 0.0
C376 C 0.66766 0.67144 0.0351 0.0
C377 C 0.66618 0.64501 0.01832 0.0
C378 C 0.68951 0.63541 0.999 0.0
C379 C 0.71446 0.65212 0.99659 0.0
H380 H 0.64701 0.63193 0.02036 0.0
H381 H 0.89332 0.78756 1.00287 0.0
H382 H 0.79512 0.24707 0.11391 0.0
H383 H 0.77237 0.25653 0.05913 0.0
H384 H 0.7088 0.19133 0.0802 0.0
H385 H 0.73206 0.18153 0.13514 0.0
H386 H 0.72247 0.19105 0.01366 0.0
H387 H 0.69528 0.2627 0.09403 0.0
H388 H 0.70134 0.30092 0.13683 0.0
H389 H 0.74571 0.35325 0.06388 0.0
H390 H 0.74066 0.31505 0.02089 0.0
H391 H 0.62482 0.2481 0.88761 0.0
H392 H 0.64681 0.23034 0.94017 0.0
H393 H 0.71541 0.29209 0.92929 0.0
H394 H 0.69366 0.30993 0.87717 0.0
H395 H 0.69542 0.29266 0.99252 0.0
H396 H 0.72516 0.21903 0.91357 0.0
H397 H 0.7175 0.18117 0.87068 0.0
H398 H 0.66583 0.13345 0.94138 0.0
H399 H 0.6729 0.17122 0.98457 0.0
C400 C 0.77678 0.23418 0.10641 0.0
C401 C 0.76554 0.21336 0.12868 0.0
C402 C 0.76352 0.23985 0.07525 0.0
C403 C 0.73835 0.2252 0.06568 0.0
C404 C 0.72807 0.2031 0.08697 0.0
C405 C 0.74149 0.1973 0.11825 0.0
C406 C 0.72233 0.23394 0.03429 0.0
C407 C 0.71621 0.21322 0.00931 0.0
C408 C 0.71427 0.26295 0.02818 0.0
C409 C 0.71784 0.2858 0.05427 0.0
C410 C 0.70665 0.28219 0.0872 0.0
C411 C 0.70989 0.30388 0.11151 0.0
C412 C 0.724 0.32945 0.10311 0.0
C413 C 0.73489 0.33339 0.07039 0.0
C414 C 0.73188 0.3117 0.04606 0.0
C415 C 0.64479 0.25764 0.89614 0.0
C416 C 0.65746 0.28038 0.87782 0.0
C417 C 0.65739 0.24744 0.92629 0.0
C418 C 0.68298 0.2597 0.93883 0.0
C419 C 0.69572 0.2822 0.92036 0.0
C420 C 0.68324 0.29232 0.89031 0.0
C421 C 0.69622 0.24993 0.97157 0.0
C422 C 0.70166 0.27049 0.99692 0.0
C423 C 0.7035 0.22083 0.97806 0.0
C424 C 0.6993 0.19809 0.95216 0.0
C425 C 0.71198 0.20057 0.91988 0.0
C426 C 0.70778 0.17911 0.89553 0.0
C427 C 0.69112 0.15496 0.90326 0.0
C428 C 0.67869 0.15219 0.9354 0.0
C429 C 0.6828 0.1736 0.95983 0.0
H430 H 0.68789 0.13837 0.88438 0.0
H431 H 0.72646 0.34622 0.12193 0.0
H432 H 0.80296 0.20447 0.37399 0.0
H433 H 0.78475 0.22505 0.42678 0.0
H434 H 0.73135 0.15038 0.44226 0.0
H435 H 0.74943 0.12956 0.38911 0.0
H436 H 0.70272 0.20027 0.45973 0.0
H437 H 0.79312 0.15655 0.48554 0.0
H438 H 0.84487 0.1463 0.47837 0.0
H439 H 0.86471 0.23536 0.49471 0.0
H440 H 0.81309 0.24628 0.50159 0.0
H441 H 0.68191 0.23468 0.63861 0.0
H442 H 0.69037 0.21187 0.58305 0.0
H443 H 0.75063 0.27907 0.55754 0.0
H444 H 0.74245 0.30144 0.61281 0.0
H445 H 0.77443 0.22844 0.54668 0.0
H446 H 0.68335 0.27211 0.51863 0.0
H447 H 0.63155 0.28191 0.52571 0.0
H448 H 0.6129 0.19198 0.5143 0.0
H449 H 0.66466 0.18159 0.50758 0.0
C450 C 0.78715 0.19243 0.38836 0.0
C451 C 0.77779 0.16524 0.37716 0.0
C452 C 0.77681 0.20423 0.41874 0.0
C453 C 0.75693 0.18916 0.43893 0.0
C454 C 0.7467 0.16246 0.42726 0.0
C455 C 0.75709 0.15057 0.39679 0.0
C456 C 0.74772 0.20101 0.47259 0.0
C457 C 0.71837 0.20605 0.47896 0.0
C458 C 0.76805 0.20884 0.49772 0.0
C459 C 0.79917 0.20229 0.49381 0.0
C460 C 0.80849 0.174 0.48737 0.0
C461 C 0.8378 0.16805 0.48339 0.0
C462 C 0.85803 0.19016 0.48598 0.0
C463 C 0.84901 0.21826 0.49267 0.0
C464 C 0.81973 0.22434 0.49666 0.0
C465 C 0.69625 0.24497 0.62065 0.0
C466 C 0.71134 0.26997 0.62994 0.0
C467 C 0.70125 0.23185 0.58893 0.0
C468 C 0.72131 0.2436 0.5659 0.0
C469 C 0.73524 0.26935 0.57474 0.0
C470 C 0.73035 0.28231 0.60626 0.0
C471 C 0.72943 0.22849 0.53361 0.0
C472 C 0.7587 0.22263 0.52756 0.0
C473 C 0.70899 0.21982 0.50895 0.0
C474 C 0.6779 0.22604 0.51299 0.0
C475 C 0.66823 0.25439 0.51792 0.0
C476 C 0.63887 0.26006 0.52181 0.0
C477 C 0.61895 0.23757 0.52056 0.0
C478 C 0.62835 0.20937 0.51533 0.0
C479 C 0.65769 0.20358 0.51145 0.0
H480 H 0.59623 0.24201 0.52357 0.0
H481 H 0.88069 0.1855 0.48292 0.0
H482 H 0.1999 0.21109 0.64031 0.0
H483 H 0.22276 0.23044 0.58958 0.0
H484 H 0.15029 0.28675 0.57376 0.0
H485 H 0.12678 0.26675 0.62423 0.0
H486 H 0.16479 0.26416 0.51567 0.0
H487 H 0.21845 0.31155 0.60238 0.0
H488 H 0.24691 0.31519 0.65497 0.0
H489 H 0.31234 0.26136 0.61151 0.0
H490 H 0.28409 0.25707 0.55879 0.0
H491 H 0.23764 0.33291 0.37778 0.0
H492 H 0.21573 0.32733 0.43436 0.0
H493 H 0.27712 0.26081 0.45809 0.0
H494 H 0.29881 0.26634 0.40182 0.0
H495 H 0.267 0.29491 0.51342 0.0
H496 H 0.21022 0.24251 0.43098 0.0
H497 H 0.18202 0.23813 0.37825 0.0
H498 H 0.12319 0.30257 0.41403 0.0
H499 H 0.15103 0.30727 0.46707 0.0
C500 C 0.18889 0.22789 0.62642 0.0
C501 C 0.16151 0.2375 0.6368 0.0
C502 C 0.20212 0.23907 0.59728 0.0
C503 C 0.18863 0.26054 0.57782 0.0
C504 C 0.16134 0.27034 0.58823 0.0
C505 C 0.14796 0.25898 0.61733 0.0
C506 C 0.20258 0.2718 0.54605 0.0
C507 C 0.18696 0.27145 0.51548 0.0
C508 C 0.23174 0.28095 0.54521 0.0
C509 C 0.24903 0.28383 0.57669 0.0
C510 C 0.23884 0.30036 0.60409 0.0
C511 C 0.25494 0.30255 0.63392 0.0
C512 C 0.28139 0.28846 0.63661 0.0
C513 C 0.29184 0.27225 0.6094 0.0
C514 C 0.27581 0.26997 0.57951 0.0
C515 C 0.24688 0.3177 0.39549 0.0
C516 C 0.27008 0.30023 0.38551 0.0
C517 C 0.23419 0.31427 0.4277 0.0
C518 C 0.24451 0.29337 0.45055 0.0
C519 C 0.26869 0.27708 0.44113 0.0
C520 C 0.28115 0.2803 0.40896 0.0
C521 C 0.22927 0.28696 0.48327 0.0
C522 C 0.24469 0.28809 0.51391 0.0
C523 C 0.19995 0.27861 0.48425 0.0
C524 C 0.18283 0.27543 0.45279 0.0
C525 C 0.1913 0.25579 0.42755 0.0
C526 C 0.17535 0.2532 0.39766 0.0
C527 C 0.15082 0.27007 0.39281 0.0
C528 C 0.14216 0.28949 0.41788 0.0
C529 C 0.15796 0.29207 0.4479 0.0
H530 H 0.13851 0.26807 0.36964 0.0
H531 H 0.2938 0.29014 0.65975 0.0
H532 H 0.18993 0.81937 0.39001 0.0
H533 H 0.21015 0.79922 0.44187 0.0
H534 H 0.28825 0.84752 0.42559 0.0
H535 H 0.26727 0.86909 0.37465 0.0
H536 H 0.24937 0.7667 0.45957 0.0
H537 H 0.32318 0.86178 0.49402 0.0
H538 H 0.32467 0.91472 0.48866 0.0
H539 H 0.23237 0.91741 0.48769 0.0
H540 H 0.23037 0.8647 0.49207 0.0
H541 H 0.31873 0.71708 0.60954 0.0
H542 H 0.31262 0.73732 0.55242 0.0
H543 H 0.26883 0.81063 0.59539 0.0
H544 H 0.2766 0.79158 0.652 0.0
H545 H 0.2952 0.82943 0.54568 0.0
H546 H 0.23349 0.74722 0.55956 0.0
H547 H 0.22185 0.69632 0.57068 0.0
H548 H 0.27359 0.67069 0.48553 0.0
H549 H 0.2858 0.72146 0.47417 0.0
C550 C 0.21146 0.82572 0.39738 0.0
C551 C 0.22687 0.84602 0.37807 0.0
C552 C 0.22311 0.81405 0.42719 0.0
C553 C 0.25074 0.82199 0.43846 0.0
C554 C 0.2666 0.84151 0.41842 0.0
C555 C 0.25467 0.85368 0.38895 0.0
C556 C 0.26248 0.81006 0.47124 0.0
C557 C 0.25949 0.78051 0.47825 0.0
C558 C 0.27549 0.82771 0.49628 0.0
C559 C 0.27666 0.85936 0.49285 0.0
C560 C 0.30324 0.87375 0.49234 0.0
C561 C 0.30416 0.9037 0.48922 0.0
C562 C 0.27862 0.91944 0.48707 0.0
C563 C 0.25213 0.90526 0.48829 0.0
C564 C 0.25109 0.87535 0.49103 0.0
C565 C 0.30852 0.73788 0.60682 0.0
C566 C 0.29774 0.75239 0.6355 0.0
C567 C 0.3046 0.7493 0.57401 0.0
C568 C 0.28942 0.77526 0.56909 0.0
C569 C 0.28038 0.79053 0.59798 0.0
C570 C 0.28466 0.77941 0.63057 0.0
C571 C 0.28153 0.78618 0.53433 0.0
C572 C 0.28541 0.81552 0.52684 0.0
C573 C 0.26811 0.76856 0.50953 0.0
C574 C 0.26084 0.73806 0.51629 0.0
C575 C 0.24253 0.7307 0.54337 0.0
C576 C 0.23582 0.70189 0.54969 0.0
C577 C 0.24705 0.68028 0.52889 0.0
C578 C 0.26497 0.68745 0.50167 0.0
C579 C 0.27179 0.71623 0.49527 0.0
H580 H 0.24182 0.65798 0.53382 0.0
H581 H 0.27934 0.94265 0.48505 0.0
H582 H 0.88047 0.74845 0.63221 0.0
H583 H 0.85847 0.72794 0.5812 0.0
H584 H 0.7899 0.79023 0.58759 0.0
H585 H 0.81121 0.81016 0.63892 0.0
H586 H 0.76765 0.74194 0.56995 0.0
H587 H 0.8492 0.79617 0.52896 0.0
H588 H 0.90011 0.81019 0.52392 0.0
H589 H 0.92245 0.72392 0.49518 0.0
H590 H 0.87148 0.70943 0.49989 0.0
H591 H 0.71988 0.75351 0.39994 0.0
H592 H 0.74052 0.75952 0.45647 0.0
H593 H 0.79389 0.68487 0.44047 0.0
H594 H 0.7731 0.67883 0.38339 0.0
H595 H 0.82476 0.73206 0.4642 0.0
H596 H 0.73985 0.68124 0.49666 0.0
H597 H 0.68789 0.67062 0.49794 0.0
H598 H 0.67113 0.75367 0.54133 0.0
H599 H 0.72297 0.76497 0.53986 0.0
C600 C 0.86054 0.75759 0.62298 0.0
C601 C 0.84767 0.78099 0.6399 0.0
C602 C 0.84807 0.74598 0.59353 0.0
C603 C 0.82263 0.75773 0.57995 0.0
C604 C 0.80946 0.78064 0.59732 0.0
C605 C 0.82176 0.79208 0.62683 0.0
C606 C 0.80972 0.74662 0.54759 0.0
C607 C 0.78018 0.74 0.54683 0.0
C608 C 0.82597 0.7432 0.51735 0.0
C609 C 0.85664 0.75165 0.51521 0.0
C610 C 0.86502 0.78014 0.52188 0.0
C611 C 0.89389 0.78818 0.51901 0.0
C612 C 0.91458 0.7679 0.50949 0.0
C613 C 0.90641 0.73957 0.50267 0.0
C614 C 0.87753 0.73145 0.50534 0.0
C615 C 0.73563 0.73804 0.4087 0.0
C616 C 0.74474 0.71559 0.38729 0.0
C617 C 0.74741 0.74147 0.44109 0.0
C618 C 0.76869 0.72258 0.45298 0.0
C619 C 0.77743 0.69968 0.43195 0.0
C620 C 0.76538 0.69606 0.39949 0.0
C621 C 0.78269 0.72798 0.48654 0.0
C622 C 0.81237 0.73356 0.48749 0.0
C623 C 0.76651 0.73078 0.51685 0.0
C624 C 0.73531 0.72402 0.51794 0.0
C625 C 0.72507 0.69733 0.50625 0.0
C626 C 0.69564 0.69117 0.50704 0.0
C627 C 0.67621 0.71148 0.51965 0.0
C628 C 0.6862 0.73797 0.53156 0.0
C629 C 0.71561 0.74424 0.5308 0.0
H630 H 0.65343 0.70667 0.52025 0.0
H631 H 0.93691 0.77413 0.50719 0.0
H632 H 0.51603 0.27233 0.92389 0.0
H633 H 0.49352 0.27352 0.97994 0.0
H634 H 0.55508 0.33723 0.01259 0.0
H635 H 0.57802 0.33576 0.95645 0.0
H636 H 0.54475 0.2976 0.06212 0.0
H637 H 0.48865 0.35746 0.9885 0.0
H638 H 0.46056 0.36958 0.93743 0.0
H639 H 0.39979 0.30298 0.96123 0.0
H640 H 0.42775 0.29017 0.0122 0.0
H641 H 0.46224 0.35714 0.1988 0.0
H642 H 0.49209 0.34562 0.14965 0.0
H643 H 0.42879 0.28404 0.11606 0.0
H644 H 0.39856 0.29579 0.16485 0.0
H645 H 0.44082 0.32144 0.06742 0.0
H646 H 0.49643 0.26329 0.14332 0.0
H647 H 0.52456 0.25256 0.19477 0.0
H648 H 0.58613 0.31744 0.16747 0.0
H649 H 0.55815 0.32885 0.11608 0.0
C650 C 0.52492 0.2864 0.94311 0.0
C651 C 0.54861 0.30411 0.93585 0.0
C652 C 0.51199 0.28714 0.97508 0.0
C653 C 0.52234 0.30579 1.00028 0.0
C654 C 0.5467 0.32274 0.99347 0.0
C655 C 0.55973 0.32195 0.96143 0.0
C656 C 0.50699 0.30834 0.03318 0.0
C657 C 0.52209 0.3031 0.06338 0.0
C658 C 0.47731 0.31503 0.03471 0.0
C659 C 0.46049 0.32265 1.00399 0.0
C660 C 0.46944 0.34522 0.98269 0.0
C661 C 0.45352 0.35225 0.95379 0.0
C662 C 0.42846 0.33701 0.94604 0.0
C663 C 0.41923 0.31474 0.96723 0.0
C664 C 0.43511 0.30759 0.99614 0.0
C665 C 0.45498 0.3406 0.18146 0.0
C666 C 0.42788 0.32757 0.18561 0.0
C667 C 0.47214 0.33399 0.15334 0.0
C668 C 0.46267 0.314 0.12908 0.0
C669 C 0.43647 0.29964 0.13436 0.0
C670 C 0.41925 0.30631 0.16237 0.0
C671 C 0.47844 0.31037 0.09654 0.0
C672 C 0.46342 0.31565 0.06629 0.0
C673 C 0.50818 0.3039 0.09507 0.0
C674 C 0.52503 0.2971 0.12599 0.0
C675 C 0.51583 0.27545 0.14843 0.0
C676 C 0.53178 0.26921 0.17756 0.0
C677 C 0.55708 0.28436 0.18443 0.0
C678 C 0.56652 0.30574 0.16214 0.0
C679 C 0.55063 0.31208 0.13299 0.0
H680 H 0.56939 0.27949 0.20699 0.0
H681 H 0.41615 0.3425 0.92367 0.0
H682 H 0.35941 0.44153 0.06522 0.0
H683 H 0.36154 0.47003 0.01306 0.0
H684 H 0.26884 0.47554 0.0122 0.0
H685 H 0.26683 0.44848 0.06539 0.0
H686 H 0.34465 0.47316 0.95004 0.0
H687 H 0.24794 0.54236 0.99437 0.0
H688 H 0.22255 0.55491 0.04741 0.0
H689 H 0.29943 0.53862 0.10454 0.0
H690 H 0.32535 0.52639 0.05181 0.0
H691 H 0.32799 0.58775 0.82811 0.0
H692 H 0.31647 0.54637 0.86462 0.0
H693 H 0.34382 0.59464 0.95238 0.0
H694 H 0.35471 0.63567 0.91667 0.0
H695 H 0.29657 0.56744 0.96645 0.0
H696 H 0.3873 0.54545 0.91483 0.0
H697 H 0.42039 0.53767 0.86674 0.0
H698 H 0.36913 0.46633 0.83312 0.0
H699 H 0.33539 0.47405 0.8807 0.0
C700 C 0.33949 0.44827 0.0534 0.0
C701 C 0.31299 0.44335 0.0695 0.0
C702 C 0.34071 0.46448 0.02353 0.0
C703 C 0.31539 0.47559 0.00915 0.0
C704 C 0.28871 0.46785 0.0233 0.0
C705 C 0.28755 0.45232 0.0536 0.0
C706 C 0.31712 0.4983 0.98264 0.0
C707 C 0.33387 0.49366 0.95341 0.0
C708 C 0.30374 0.52541 0.9874 0.0
C709 C 0.28843 0.53309 0.0192 0.0
C710 C 0.25941 0.54154 0.01825 0.0
C711 C 0.24495 0.5486 0.04825 0.0
C712 C 0.25934 0.54745 0.07934 0.0
C713 C 0.28828 0.53939 0.08047 0.0
C714 C 0.30286 0.53239 0.05054 0.0
C715 C 0.33118 0.58954 0.85524 0.0
C716 C 0.34231 0.61494 0.86948 0.0
C717 C 0.32478 0.56587 0.87602 0.0
C718 C 0.32945 0.56737 0.91123 0.0
C719 C 0.33992 0.59298 0.92535 0.0
C720 C 0.34626 0.61643 0.90479 0.0
C721 C 0.32417 0.54243 0.9339 0.0
C722 C 0.30676 0.5467 0.96256 0.0
C723 C 0.33809 0.51561 0.92934 0.0
C724 C 0.35858 0.51059 0.90103 0.0
C725 C 0.38295 0.52825 0.89702 0.0
C726 C 0.40184 0.52384 0.86987 0.0
C727 C 0.39678 0.50161 0.84678 0.0
C728 C 0.37294 0.48361 0.85095 0.0
C729 C 0.35392 0.488 0.878 0.0
H730 H 0.41135 0.4983 0.8257 0.0
H731 H 0.24809 0.55287 0.10254 0.0
H732 H 0.48548 0.741 0.92864 0.0
H733 H 0.51228 0.74179 0.98225 0.0
H734 H 0.50593 0.64943 0.9887 0.0
H735 H 0.47837 0.64857 0.93559 0.0
H736 H 0.48989 0.71665 0.04684 0.0
H737 H 0.57727 0.63117 0.02059 0.0
H738 H 0.60643 0.61229 0.9732 0.0
H739 H 0.598 0.6927 0.92064 0.0
H740 H 0.56909 0.71217 0.96786 0.0
H741 H 0.55727 0.65431 0.19409 0.0
H742 H 0.53115 0.66534 0.14179 0.0
H743 H 0.60166 0.7184 0.108 0.0
H744 H 0.62764 0.70812 0.16027 0.0
H745 H 0.58732 0.67515 0.06241 0.0
H746 H 0.54048 0.74958 0.12661 0.0
H747 H 0.51301 0.76952 0.17474 0.0
H748 H 0.44214 0.71365 0.15153 0.0
H749 H 0.46936 0.69307 0.10354 0.0
C750 C 0.48995 0.72088 0.94145 0.0
C751 C 0.47985 0.69473 0.92821 0.0
C752 C 0.50516 0.72138 0.97199 0.0
C753 C 0.51107 0.69567 0.9892 0.0
C754 C 0.50163 0.66945 0.97559 0.0
C755 C 0.48589 0.669 0.94541 0.0
C756 C 0.52596 0.69632 0.02224 0.0
C757 C 0.51122 0.70765 0.05032 0.0
C758 C 0.55379 0.68467 0.02649 0.0
C759 C 0.57064 0.67298 0.99759 0.0
C760 C 0.58158 0.6448 0.99888 0.0
C761 C 0.59808 0.634 0.97205 0.0
C762 C 0.60397 0.65125 0.94387 0.0
C763 C 0.5933 0.67931 0.94242 0.0
C764 C 0.57676 0.69021 0.96916 0.0
C765 C 0.56688 0.66897 0.17597 0.0
C766 C 0.59463 0.68016 0.18126 0.0
C767 C 0.55197 0.67515 0.14606 0.0
C768 C 0.56467 0.6924 0.12096 0.0
C769 C 0.5916 0.7049 0.12703 0.0
C770 C 0.60634 0.69908 0.15704 0.0
C771 C 0.55116 0.69525 0.08719 0.0
C772 C 0.56604 0.68431 0.05897 0.0
C773 C 0.52348 0.70725 0.08283 0.0
C774 C 0.50707 0.71961 0.11165 0.0
C775 C 0.51914 0.74137 0.13194 0.0
C776 C 0.50359 0.75282 0.15917 0.0
C777 C 0.47588 0.74281 0.16624 0.0
C778 C 0.46362 0.72137 0.14605 0.0
C779 C 0.47909 0.70982 0.11881 0.0
H780 H 0.46387 0.75172 0.18732 0.0
H781 H 0.61687 0.64289 0.92321 0.0
H782 H 0.69532 0.42061 0.82605 0.0
H783 H 0.71448 0.45808 0.86404 0.0
H784 H 0.64486 0.44259 0.9341 0.0
H785 H 0.62571 0.40569 0.89683 0.0
H786 H 0.68867 0.50952 0.89341 0.0
H787 H 0.67496 0.43793 0.01344 0.0
H788 H 0.67603 0.38649 0.02865 0.0
H789 H 0.73024 0.36883 0.9429 0.0
H790 H 0.73006 0.42023 0.92754 0.0
H791 H 0.66981 0.58234 0.05046 0.0
H792 H 0.66997 0.55618 0.99655 0.0
H793 H 0.7509 0.51679 0.02333 0.0
H794 H 0.75044 0.54243 0.07746 0.0
H795 H 0.71327 0.47751 0.00988 0.0
H796 H 0.7464 0.5604 0.95053 0.0
H797 H 0.74846 0.61123 0.93278 0.0
H798 H 0.66142 0.60623 0.89693 0.0
H799 H 0.65896 0.55523 0.91412 0.0
C800 C 0.68402 0.42545 0.84941 0.0
C801 C 0.6592 0.40998 0.85859 0.0
C802 C 0.69492 0.44684 0.87098 0.0
C803 C 0.68124 0.45275 0.90201 0.0
C804 C 0.65592 0.43808 0.91047 0.0
C805 C 0.64503 0.41695 0.88905 0.0
C806 C 0.69362 0.47321 0.92677 0.0
C807 C 0.69436 0.50261 0.91881 0.0
C808 C 0.70153 0.46398 0.95966 0.0
C809 C 0.70224 0.43299 0.96912 0.0
C810 C 0.68727 0.42313 0.99792 0.0
C811 C 0.68772 0.39397 1.00658 0.0
C812 C 0.7031 0.37441 0.98669 0.0
C813 C 0.71823 0.384 0.95821 0.0
C814 C 0.71794 0.41315 0.94949 0.0
C815 C 0.68795 0.56865 0.0444 0.0
C816 C 0.70993 0.56408 0.06818 0.0
C817 C 0.68815 0.55383 0.01349 0.0
C818 C 0.71049 0.53449 1.00583 0.0
C819 C 0.73343 0.53154 0.02869 0.0
C820 C 0.73313 0.54616 0.05962 0.0
C821 C 0.70758 0.51413 0.97701 0.0
C822 C 0.70829 0.48458 0.98433 0.0
C823 C 0.7014 0.52326 0.94355 0.0
C824 C 0.70248 0.55404 0.93374 0.0
C825 C 0.72766 0.57018 0.939 0.0
C826 C 0.72895 0.59896 0.92886 0.0
C827 C 0.70509 0.61195 0.91373 0.0
C828 C 0.67991 0.59612 0.90856 0.0
C829 C 0.67861 0.56723 0.91833 0.0
H830 H 0.70608 0.6343 0.90615 0.0
H831 H 0.70329 0.35183 0.99333 0.0
H832 H 0.95115 0.1387 0.31671 0.0
H833 H 0.98289 0.14806 0.36482 0.0
H834 H 0.93247 0.2225 0.3916 0.0
H835 H 0.90011 0.213 0.34376 0.0
H836 H 0.99618 0.22852 0.39778 0.0
H837 H 0.91642 0.17031 0.43324 0.0
H838 H 0.88242 0.12974 0.42918 0.0
H839 H 0.95238 0.06993 0.43807 0.0
H840 H 0.98688 0.11022 0.44173 0.0
H841 H 0.028 0.23976 0.57506 0.0
H842 H 1.00393 0.23589 0.51996 0.0
H843 H 0.05222 0.15891 0.49784 0.0
H844 H 0.07689 0.16312 0.55267 0.0
H845 H 0.99072 0.15436 0.48821 0.0
H846 H 0.07017 0.21479 0.45748 0.0
H847 H 0.10219 0.25658 0.46449 0.0
H848 H 0.03091 0.31371 0.44847 0.0
H849 H 0.99827 0.27219 0.44221 0.0
C850 C 0.94716 0.15749 0.33229 0.0
C851 C 0.92305 0.17509 0.3265 0.0
C852 C 0.96527 0.16271 0.35985 0.0
C853 C 0.95985 0.18583 0.3818 0.0
C854 C 0.93697 0.20457 0.37485 0.0
C855 C 0.91852 0.19909 0.34757 0.0
C856 C 0.97653 0.18878 0.41357 0.0
C857 C 0.99484 0.21249 0.41771 0.0
C858 C 0.97491 0.16762 0.4393 0.0
C859 C 0.95428 0.14329 0.43729 0.0
C860 C 0.92459 0.14851 0.43399 0.0
C861 C 0.90522 0.12557 0.43184 0.0
C862 C 0.91525 0.09728 0.4332 0.0
C863 C 0.94466 0.09187 0.43689 0.0
C864 C 0.96414 0.11475 0.43905 0.0
C865 C 0.03374 0.22224 0.55824 0.0
C866 C 0.05423 0.20169 0.56804 0.0
C867 C 0.01997 0.22004 0.52685 0.0
C868 C 0.02628 0.19709 0.50492 0.0
C869 C 0.04702 0.17672 0.51449 0.0
C870 C 0.06113 0.17919 0.54568 0.0
C871 C 0.01058 0.19404 0.47243 0.0
C872 C 0.99229 0.1703 0.4682 0.0
C873 C 0.01204 0.21533 0.44683 0.0
C874 C 0.03171 0.24036 0.44972 0.0
C875 C 0.06126 0.23626 0.45571 0.0
C876 C 0.07954 0.25991 0.45953 0.0
C877 C 0.06859 0.2878 0.45699 0.0
C878 C 0.03935 0.29209 0.45048 0.0
C879 C 0.02095 0.2685 0.44681 0.0
H880 H 0.08275 0.3061 0.46004 0.0
H881 H 0.90022 0.07956 0.43148 0.0
H882 H 0.18104 0.13899 0.60581 0.0
H883 H 0.1942 0.09891 0.56906 0.0
H884 H 0.18799 0.04067 0.65394 0.0
H885 H 0.17539 0.08123 0.69132 0.0
H886 H 0.23079 0.02461 0.60533 0.0
H887 H 0.13281 0.05372 0.61077 0.0
H888 H 0.09168 0.08696 0.60807 0.0
H889 H 0.10799 0.10156 0.50227 0.0
H890 H 0.15001 0.06931 0.5046 0.0
H891 H 0.16326 0.93216 0.45727 0.0
H892 H 0.16094 0.95712 0.51198 0.0
H893 H 0.24049 1.00079 0.48897 0.0
H894 H 0.24268 0.97625 0.43401 0.0
H895 H 0.15708 0.01633 0.51482 0.0
H896 H 0.27481 0.01289 0.56396 0.0
H897 H 0.31462 0.97808 0.56936 0.0
H898 H 0.25418 0.90825 0.56926 0.0
H899 H 0.21404 0.9426 0.56358 0.0
C900 C 0.18322 0.11775 0.61684 0.0
C901 C 0.17675 0.11298 0.65117 0.0
C902 C 0.19082 0.09492 0.59586 0.0
C903 C 0.19141 0.06681 0.60867 0.0
C904 C 0.18753 0.06226 0.64363 0.0
C905 C 0.18029 0.08534 0.66489 0.0
C906 C 0.19181 0.04238 0.58462 0.0
C907 C 0.21469 0.02273 0.58556 0.0
C908 C 0.1702 0.03953 0.55946 0.0
C909 C 0.14477 0.05903 0.55793 0.0
C910 C 0.12789 0.06421 0.58698 0.0
C911 C 0.10443 0.08297 0.58554 0.0
C912 C 0.09716 0.09626 0.55499 0.0
C913 C 0.11359 0.09115 0.52591 0.0
C914 C 0.13731 0.07269 0.52732 0.0
C915 C 0.18048 0.94673 0.46416 0.0
C916 C 0.20305 0.95249 0.44143 0.0
C917 C 0.17917 0.96087 0.49541 0.0
C918 C 0.20063 0.98062 0.50457 0.0
C919 C 0.22392 0.98534 0.48255 0.0
C920 C 0.22503 0.97151 0.45109 0.0
C921 C 0.19671 0.99936 0.53458 0.0
C922 C 0.17306 0.01804 0.53476 0.0
C923 C 0.21736 1.00111 0.5608 0.0
C924 C 0.24146 0.98033 0.56319 0.0
C925 C 0.27003 0.99011 0.56507 0.0
C926 C 0.29265 0.97045 0.56812 0.0
C927 C 0.28692 0.94098 0.56971 0.0
C928 C 0.25857 0.93109 0.56807 0.0
C929 C 0.23591 0.95062 0.56464 0.0
H930 H 0.30445 0.9258 0.5721 0.0
H931 H 0.07873 0.11043 0.55382 0.0
H932 H 0.11826 0.77911 0.36952 0.0
H933 H 0.08102 0.77521 0.41291 0.0
H934 H 0.03579 0.84685 0.36834 0.0
H935 H 0.0733 0.85127 0.32519 0.0
H936 H 0.0437 0.85576 0.4332 0.0
H937 H 0.00727 0.7778 0.36795 0.0
H938 H 0.00893 0.73244 0.33561 0.0
H939 H 0.03722 0.68733 0.42455 0.0
H940 H 0.03612 0.7325 0.45733 0.0
H941 H 0.93441 0.84558 0.56035 0.0
H942 H 0.95863 0.846 0.50505 0.0
H943 H 0.0132 0.77618 0.53754 0.0
H944 H 0.98873 0.77541 0.59252 0.0
H945 H 0.99478 0.76755 0.47416 0.0
H946 H 0.0354 0.84684 0.53741 0.0
H947 H 0.03503 0.89268 0.56888 0.0
H948 H 0.99949 0.93575 0.48218 0.0
H949 H 0.99917 0.89006 0.45037 0.0
C950 C 0.10006 0.79362 0.36843 0.0
C951 C 0.09888 0.81563 0.34402 0.0
C952 C 0.07868 0.7913 0.39323 0.0
C953 C 0.05551 0.8107 0.39388 0.0
C954 C 0.05348 0.83168 0.3684 0.0
C955 C 0.07491 0.8341 0.34366 0.0
C956 C 0.03529 0.81099 0.42312 0.0
C957 C 0.03247 0.83661 0.44171 0.0
C958 C 0.02115 0.78587 0.43466 0.0
C959 C 0.02181 0.75862 0.41505 0.0
C960 C 0.01406 0.75826 0.38056 0.0
C961 C 0.01486 0.73256 0.36216 0.0
C962 C 0.02323 0.70703 0.378 0.0
C963 C 0.03075 0.70713 0.4123 0.0
C964 C 0.03001 0.73277 0.43082 0.0
C965 C 0.95145 0.83022 0.55553 0.0
C966 C 0.95969 0.81042 0.58057 0.0
C967 C 0.96538 0.8306 0.52404 0.0
C968 C 0.98795 0.81132 0.51727 0.0
C969 C 0.99583 0.79122 0.54217 0.0
C970 C 0.98189 0.79083 0.57358 0.0
C971 C 1.00371 0.81215 0.48449 0.0
C972 C 0.00568 0.78677 0.46529 0.0
C973 C 0.01707 0.83752 0.47232 0.0
C974 C 0.01682 0.8649 0.4917 0.0
C975 C 0.02716 0.866 0.5252 0.0
C976 C 0.02714 0.89199 0.54307 0.0
C977 C 0.01712 0.91709 0.5276 0.0
C978 C 0.00713 0.91627 0.49419 0.0
C979 C 0.00703 0.89034 0.47624 0.0
H980 H 0.01719 0.93719 0.54145 0.0
H981 H 0.02383 0.68716 0.3637 0.0
H982 H 0.82056 0.09993 0.46896 0.0
H983 H 0.82095 0.079 0.52619 0.0
H984 H 0.78566 1.00013 0.48593 0.0
H985 H 0.78409 0.02138 0.42955 0.0
H986 H 0.76302 0.00898 0.54426 0.0
H987 H 0.8612 0.01257 0.49977 0.0
H988 H 0.90415 0.03772 0.47789 0.0
H989 H 0.90893 0.08758 0.56944 0.0
H990 H 0.86585 0.06282 0.59174 0.0
H991 H 0.83332 0.88941 0.61202 0.0
H992 H 0.81829 0.93126 0.57922 0.0
H993 H 0.82608 0.98472 0.66816 0.0
H994 H 0.84048 0.94225 0.70174 0.0
H995 H 0.85817 1.00088 0.60028 0.0
H996 H 0.7652 0.98273 0.64823 0.0
H997 H 0.72471 0.95204 0.66624 0.0
H998 H 0.71246 0.92409 0.56343 0.0
H999 H 0.75316 0.95428 0.54486 0.0
C1000 C 0.81255 0.07829 0.47263 0.0
C1001 C 0.8025 0.06215 0.44495 0.0
C1002 C 0.81287 0.0663 0.50523 0.0
C1003 C 0.80375 0.03778 0.51038 0.0
C1004 C 0.79273 0.02218 0.48277 0.0
C1005 C 0.79196 0.03429 0.45046 0.0
C1006 C 0.80722 0.02303 0.5436 0.0
C1007 C 0.78378 0.00743 0.55665 0.0
C1008 C 0.83412 0.02151 0.56044 0.0
C1009 C 0.86014 0.03614 0.54722 0.0
C1010 C 0.87134 0.02901 0.51513 0.0
C1011 C 0.8957 0.04318 0.50267 0.0
C1012 C 0.90917 0.06434 0.52219 0.0
C1013 C 0.89841 0.07125 0.5543 0.0
C1014 C 0.87405 0.05715 0.56688 0.0
C1015 C 0.83144 0.90999 0.62475 0.0
C1016 C 0.83799 0.91269 0.65935 0.0
C1017 C 0.82283 0.93383 0.60601 0.0
C1018 C 0.82109 0.96096 0.62132 0.0
C1019 C 0.82723 0.96384 0.65604 0.0
C1020 C 0.83526 0.93966 0.67514 0.0
C1021 C 0.81432 0.98604 0.59975 0.0
C1022 C 0.83714 1.00343 0.58875 0.0
C1023 C 0.78708 0.98868 0.58424 0.0
C1024 C 0.76231 0.97075 0.59519 0.0
C1025 C 0.75399 0.96991 0.62949 0.0
C1026 C 0.73098 0.95262 0.63979 0.0
C1027 C 0.71603 0.93612 0.616 0.0
C1028 C 0.72404 0.93692 0.58183 0.0
C1029 C 0.74704 0.95416 0.5714 0.0
H1030 H 0.69823 0.92272 0.62403 0.0
H1031 H 0.928 0.07531 0.51249 0.0
H1032 H 0.42569 0.41233 0.24611 0.0
H1033 H 0.46986 0.44065 0.24795 0.0
H1034 H 0.42703 0.5098 0.19528 0.0
H1035 H 0.38378 0.48048 0.19079 0.0
H1036 H 0.47442 0.50871 0.17033 0.0
H1037 H 0.44793 0.50869 0.28684 0.0
H1038 H 0.43383 0.48849 0.34227 0.0
H1039 H 0.51347 0.44192 0.34732 0.0
H1040 H 0.5279 0.46157 0.2917 0.0
H1041 H 0.60183 0.59155 0.26157 0.0
H1042 H 0.55589 0.56573 0.26545 0.0
H1043 H 0.57422 0.52328 0.17054 0.0
H1044 H 0.61875 0.55031 0.16542 0.0
H1045 H 0.53733 0.515 0.27152 0.0
H1046 H 0.51637 0.50664 0.1259 0.0
H1047 H 0.52632 0.5347 0.07408 0.0
H1048 H 0.53325 0.61184 0.13336 0.0
H1049 H 0.52287 0.58439 0.18546 0.0
C1050 C 0.42564 0.43349 0.23482 0.0
C1051 C 0.40106 0.44374 0.21786 0.0
C1052 C 0.45101 0.45001 0.23626 0.0
C1053 C 0.45223 0.47786 0.22208 0.0
C1054 C 0.42725 0.48843 0.20619 0.0
C1055 C 0.40225 0.47159 0.20381 0.0
C1056 C 0.47956 0.49554 0.22244 0.0
C1057 C 0.48798 0.51002 0.19264 0.0
C1058 C 0.49743 0.49826 0.25152 0.0
C1059 C 0.48887 0.4864 0.28496 0.0
C1060 C 0.46235 0.49399 0.29967 0.0
C1061 C 0.45431 0.48266 0.33114 0.0
C1062 C 0.47271 0.46387 0.34826 0.0
C1063 C 0.49923 0.45644 0.334 0.0
C1064 C 0.50736 0.46769 0.30252 0.0
C1065 C 0.59601 0.5768 0.24145 0.0
C1066 C 0.6141 0.57335 0.21302 0.0
C1067 C 0.56967 0.56188 0.24376 0.0
C1068 C 0.56088 0.54281 0.21793 0.0
C1069 C 0.57966 0.53844 0.19037 0.0
C1070 C 0.60551 0.55381 0.18765 0.0
C1071 C 0.53216 0.52771 0.21936 0.0
C1072 C 0.52358 0.51371 0.24937 0.0
C1073 C 0.51341 0.52655 0.19097 0.0
C1074 C 0.5191 0.54336 0.15963 0.0
C1075 C 0.51985 0.52962 0.12786 0.0
C1076 C 0.52558 0.54543 0.09844 0.0
C1077 C 0.53048 0.57503 0.10044 0.0
C1078 C 0.52951 0.58892 0.13186 0.0
C1079 C 0.52371 0.57324 0.16134 0.0
H1080 H 0.53498 0.58722 0.07765 0.0
H1081 H 0.46645 0.45512 0.37262 0.0
H1082 H 0.4555 0.61155 0.84792 0.0
H1083 H 0.48095 0.56621 0.84253 0.0
H1084 H 0.4462 0.55492 0.74197 0.0
H1085 H 0.42114 0.60132 0.74688 0.0
H1086 H 0.46643 0.51462 0.83831 0.0
H1087 H 0.49153 0.51301 0.69397 0.0
H1088 H 0.50087 0.54744 0.64759 0.0
H1089 H 0.53009 0.61015 0.71977 0.0
H1090 H 0.52133 0.57598 0.76647 0.0
H1091 H 0.51996 0.37612 0.80706 0.0
H1092 H 0.49228 0.42058 0.80257 0.0
H1093 H 0.56863 0.46567 0.76992 0.0
H1094 H 0.59587 0.42047 0.77206 0.0
H1095 H 0.52768 0.48931 0.73965 0.0
H1096 H 0.53988 0.46618 0.85685 0.0
H1097 H 0.53768 0.43619 0.9084 0.0
H1098 H 0.44578 0.43065 0.8993 0.0
H1099 H 0.44751 0.46025 0.84739 0.0
C1100 C 0.45322 0.5996 0.82448 0.0
C1101 C 0.4362 0.61035 0.79777 0.0
C1102 C 0.46781 0.57341 0.8215 0.0
C1103 C 0.46584 0.55684 0.79179 0.0
C1104 C 0.44864 0.56734 0.76503 0.0
C1105 C 0.43417 0.59389 0.76788 0.0
C1106 C 0.48174 0.52869 0.78945 0.0
C1107 C 0.47965 0.50912 0.81656 0.0
C1108 C 0.49981 0.52146 0.76168 0.0
C1109 C 0.50542 0.54204 0.73371 0.0
C1110 C 0.50002 0.53411 0.69991 0.0
C1111 C 0.50522 0.55359 0.67357 0.0
C1112 C 0.51596 0.581 0.68074 0.0
C1113 C 0.52166 0.58896 0.71425 0.0
C1114 C 0.51656 0.56955 0.74066 0.0
C1115 C 0.53075 0.39543 0.79843 0.0
C1116 C 0.56014 0.39474 0.78996 0.0
C1117 C 0.51494 0.42105 0.79621 0.0
C1118 C 0.52834 0.44707 0.78694 0.0
C1119 C 0.55756 0.44615 0.7773 0.0
C1120 C 0.57321 0.42024 0.77852 0.0
C1121 C 0.51219 0.47517 0.78845 0.0
C1122 C 0.51423 0.49471 0.76123 0.0
C1123 C 0.495 0.483 0.81683 0.0
C1124 C 0.49385 0.46526 0.8481 0.0
C1125 C 0.51923 0.45844 0.86575 0.0
C1126 C 0.51806 0.44151 0.89503 0.0
C1127 C 0.49161 0.43148 0.90708 0.0
C1128 C 0.46626 0.43842 0.88992 0.0
C1129 C 0.46731 0.4553 0.86059 0.0
H1130 H 0.49076 0.41838 0.92975 0.0
H1131 H 0.51993 0.59605 0.66032 0.0
H1132 H 0.91322 0.09217 0.2576 0.0
H1133 H 0.95808 0.06488 0.25528 0.0
H1134 H 0.93122 0.01613 0.34309 0.0
H1135 H 0.88892 0.04616 0.34826 0.0
H1136 H 0.98028 0.01954 0.35175 0.0
H1137 H 0.93407 0.99164 0.2496 0.0
H1138 H 0.90976 0.99724 0.1944 0.0
H1139 H 0.98474 0.03878 0.15364 0.0
H1140 H 0.00938 0.03372 0.20873 0.0
H1141 H 0.09163 0.91492 0.26079 0.0
H1142 H 0.04543 0.94054 0.2593 0.0
H1143 H 0.07689 1.00005 0.33466 0.0
H1144 H 0.12163 0.97332 0.33811 0.0
H1145 H 0.02416 0.98737 0.24359 0.0
H1146 H 0.02802 0.02761 0.38472 0.0
H1147 H 0.04419 0.00991 0.44055 0.0
H1148 H 0.04006 0.92286 0.40449 0.0
H1149 H 0.02364 0.94 0.34856 0.0
C1150 C 0.91703 0.07581 0.27659 0.0
C1151 C 0.89713 0.07147 0.30305 0.0
C1152 C 0.94267 0.05969 0.27493 0.0
C1153 C 0.94843 0.03754 0.29852 0.0
C1154 C 0.92808 0.03297 0.3245 0.0
C1155 C 0.90333 0.05002 0.32716 0.0
C1156 C 0.97575 0.01976 0.29724 0.0
C1157 C 0.98953 0.01249 0.32791 0.0
C1158 C 0.98815 0.00943 0.26653 0.0
C1159 C 0.97345 0.01256 0.23338 0.0
C1160 C 0.9453 1.00213 0.22892 0.0
C1161 C 0.93147 0.00518 0.19765 0.0
C1162 C 0.94567 0.01842 0.17056 0.0
C1163 C 0.97375 0.02857 0.17466 0.0
C1164 C 0.98767 0.02559 0.20589 0.0
C1165 C 0.08864 0.9335 0.27699 0.0
C1166 C 0.11049 0.94192 0.29963 0.0
C1167 C 0.06214 0.94824 0.27612 0.0
C1168 C 0.05697 0.97207 0.29748 0.0
C1169 C 0.07947 0.98124 0.31875 0.0
C1170 C 0.10547 0.96607 0.32035 0.0
C1171 C 0.02829 0.9873 0.298 0.0
C1172 C 0.01451 0.99425 0.2673 0.0
C1173 C 0.01466 0.99555 0.32878 0.0
C1174 C 0.0249 0.98515 0.3623 0.0
C1175 C 0.03054 1.0047 0.38871 0.0
C1176 C 0.03976 0.99476 0.42036 0.0
C1177 C 0.04326 0.96529 0.42601 0.0
C1178 C 0.03749 0.94569 0.40002 0.0
C1179 C 0.02829 0.95551 0.36831 0.0
H1180 H 0.05036 0.95765 0.45054 0.0
H1181 H 0.93493 0.02077 0.14637 0.0
H1182 H 0.08961 0.1011 0.75913 0.0
H1183 H 0.06263 0.05581 0.76366 0.0
H1184 H 0.01268 0.07956 0.67584 0.0
H1185 H 0.04077 0.1233 0.66992 0.0
H1186 H 0.01344 0.03763 0.77569 0.0
H1187 H 0.98731 0.03193 0.63277 0.0
H1188 H 0.01017 0.03795 0.57658 0.0
H1189 H 0.09301 0.02153 0.62062 0.0
H1190 H 0.0708 0.01677 0.6771 0.0
H1191 H 0.91108 0.92122 0.75812 0.0
H1192 H 0.93688 0.9673 0.76061 0.0
H1193 H 1.00094 0.93373 0.69174 0.0
H1194 H 0.97387 0.88953 0.68665 0.0
H1195 H 0.9928 0.9812 0.67191 0.0
H1196 H 0.00924 0.94837 0.78557 0.0
H1197 H 0.99606 0.93128 0.84277 0.0
H1198 H 0.9489 0.00922 0.86079 0.0
H1199 H 0.96153 0.02662 0.80353 0.0
C1200 C 0.07292 0.09657 0.74076 0.0
C1201 C 0.0676 0.11593 0.71403 0.0
C1202 C 0.05737 0.07058 0.74337 0.0
C1203 C 0.03581 0.06344 0.7196 0.0
C1204 C 0.02981 0.0835 0.69382 0.0
C1205 C 0.04574 0.10896 0.69072 0.0
C1206 C 0.01954 0.03533 0.72152 0.0
C1207 C 0.0091 0.02524 0.75296 0.0
C1208 C 0.01389 0.01844 0.69229 0.0
C1209 C 0.02748 0.02443 0.6591 0.0
C1210 C 0.01046 0.03016 0.63045 0.0
C1211 C 0.02332 0.03346 0.59859 0.0
C1212 C 0.05309 0.03045 0.59504 0.0
C1213 C 0.07007 0.02448 0.62342 0.0
C1214 C 0.0574 0.02178 0.65542 0.0
C1215 C 0.9308 0.92369 0.74377 0.0
C1216 C 0.94048 0.90134 0.72248 0.0
C1217 C 0.94576 0.9501 0.74535 0.0
C1218 C 0.97134 0.95443 0.72662 0.0
C1219 C 0.98127 0.93159 0.70629 0.0
C1220 C 0.96586 0.90586 0.70375 0.0
C1221 C 0.98725 0.9828 0.72619 0.0
C1222 C 0.99723 0.9933 0.69485 0.0
C1223 C 0.99372 0.99904 0.75578 0.0
C1224 C 0.98607 0.98865 0.79016 0.0
C1225 C 0.99589 0.96176 0.80166 0.0
C1226 C 0.98855 0.95204 0.83409 0.0
C1227 C 0.97158 0.96911 0.85536 0.0
C1228 C 0.96199 0.99599 0.84426 0.0
C1229 C 0.96925 0.00581 0.81184 0.0
H1230 H 0.96592 0.96155 0.88046 0.0
H1231 H 0.06298 0.03256 0.57029 0.0
H1232 H 0.25315 0.99448 0.2904 0.0
H1233 H 0.27314 0.04128 0.27349 0.0
H1234 H 0.18941 0.08001 0.28507 0.0
H1235 H 0.16945 0.03361 0.30204 0.0
H1236 H 0.21872 0.10183 0.22938 0.0
H1237 H 0.2357 0.08306 0.34862 0.0
H1238 H 0.2546 0.05512 0.39687 0.0
H1239 H 0.34028 0.06289 0.357 0.0
H1240 H 0.32178 0.09054 0.30821 0.0
H1241 H 0.23377 0.24531 0.28385 0.0
H1242 H 0.22452 0.1947 0.27137 0.0
H1243 H 0.31589 0.17893 0.26579 0.0
H1244 H 0.32512 0.22993 0.27854 0.0
H1245 H 0.29038 0.14267 0.30917 0.0
H1246 H 0.27321 0.1705 0.19531 0.0
H1247 H 0.25322 0.19963 0.14872 0.0
H1248 H 0.16755 0.17601 0.1786 0.0
H1249 H 0.18698 0.14708 0.22571 0.0
C1250 C 0.23892 0.01285 0.28862 0.0
C1251 C 0.20976 0.01039 0.29778 0.0
C1252 C 0.25038 0.03961 0.27911 0.0
C1253 C 0.23282 0.06425 0.2783 0.0
C1254 C 0.20339 0.06137 0.28546 0.0
C1255 C 0.19203 0.03481 0.29531 0.0
C1256 C 0.24519 0.09349 0.27304 0.0
C1257 C 0.23442 0.1108 0.24676 0.0
C1258 C 0.26617 0.10502 0.29522 0.0
C1259 C 0.27732 0.0885 0.32456 0.0
C1260 C 0.25853 0.07858 0.35 0.0
C1261 C 0.26918 0.06284 0.37746 0.0
C1262 C 0.29861 0.05714 0.37993 0.0
C1263 C 0.31748 0.06725 0.355 0.0
C1264 C 0.30693 0.08295 0.32743 0.0
C1265 C 0.25183 0.23124 0.27871 0.0
C1266 C 0.28013 0.24153 0.28177 0.0
C1267 C 0.24656 0.20227 0.2716 0.0
C1268 C 0.26949 0.18288 0.26745 0.0
C1269 C 0.29784 0.19346 0.26875 0.0
C1270 C 0.30312 0.22261 0.27567 0.0
C1271 C 0.26356 0.15137 0.26581 0.0
C1272 C 0.27535 0.1336 0.29105 0.0
C1273 C 0.24344 0.13952 0.2427 0.0
C1274 C 0.23159 0.15671 0.2142 0.0
C1275 C 0.2501 0.17165 0.1921 0.0
C1276 C 0.23886 0.18812 0.16557 0.0
C1277 C 0.20914 0.1897 0.16073 0.0
C1278 C 0.19058 0.17476 0.18237 0.0
C1279 C 0.2017 0.15828 0.20897 0.0
H1280 H 0.20048 0.20248 0.14019 0.0
H1281 H 0.30682 0.04497 0.40123 0.0
H1282 H 0.24301 0.77534 0.74587 0.0
H1283 H 0.19211 0.78242 0.75929 0.0
H1284 H 0.17635 0.69207 0.7426 0.0
H1285 H 0.22758 0.68503 0.72922 0.0
H1286 H 0.14155 0.72512 0.7044 0.0
H1287 H 0.16603 0.72079 0.82072 0.0
H1288 H 0.19321 0.73137 0.87289 0.0
H1289 H 0.16952 0.8204 0.86575 0.0
H1290 H 0.14262 0.8105 0.81316 0.0
H1291 H 0.99293 0.756 0.72632 0.0
H1292 H 0.03937 0.73436 0.7414 0.0
H1293 H 0.07693 0.81887 0.7497 0.0
H1294 H 0.03084 0.84053 0.7344 0.0
H1295 H 0.09784 0.78027 0.79913 0.0
H1296 H 0.08235 0.78541 0.67764 0.0
H1297 H 0.05547 0.77563 0.62497 0.0
H1298 H 0.06311 0.68479 0.64233 0.0
H1299 H 0.08963 0.69407 0.69547 0.0
C1300 C 0.22885 0.75683 0.74641 0.0
C1301 C 0.23917 0.72959 0.73701 0.0
C1302 C 0.19974 0.76086 0.754 0.0
C1303 C 0.18031 0.73776 0.75209 0.0
C1304 C 0.19092 0.71018 0.74439 0.0
C1305 C 0.22019 0.7061 0.73709 0.0
C1306 C 0.14878 0.74335 0.75396 0.0
C1307 C 0.13185 0.73645 0.72559 0.0
C1308 C 0.13615 0.75872 0.78122 0.0
C1309 C 0.15241 0.7649 0.81281 0.0
C1310 C 0.16681 0.74269 0.83008 0.0
C1311 C 0.18215 0.74856 0.85976 0.0
C1312 C 0.18312 0.77654 0.8726 0.0
C1313 C 0.16877 0.79873 0.85576 0.0
C1314 C 0.15343 0.79299 0.82602 0.0
C1315 C 0.01089 0.76996 0.73224 0.0
C1316 C 0.0083 0.79996 0.72894 0.0
C1317 C 0.03744 0.75757 0.74072 0.0
C1318 C 0.0617 0.77501 0.74638 0.0
C1319 C 0.05854 0.805 0.74549 0.0
C1320 C 0.03219 0.81734 0.7366 0.0
C1321 C 0.09098 0.76235 0.74945 0.0
C1322 C 0.10746 0.76818 0.77849 0.0
C1323 C 0.1033 0.74604 0.72281 0.0
C1324 C 0.08761 0.74043 0.69074 0.0
C1325 C 0.07807 0.76335 0.67038 0.0
C1326 C 0.06294 0.75791 0.64042 0.0
C1327 C 0.0575 0.72961 0.63037 0.0
C1328 C 0.06727 0.7067 0.65021 0.0
C1329 C 0.08235 0.71203 0.68025 0.0
H1330 H 0.04579 0.72543 0.60717 0.0
H1331 H 0.19492 0.78099 0.89566 0.0
H1332 H 0.77999 0.7631 0.2749 0.0
H1333 H 0.79102 0.81384 0.26484 0.0
H1334 H 0.70111 0.83493 0.2751 0.0
H1335 H 0.69003 0.78389 0.28509 0.0
H1336 H 0.73504 0.87202 0.22682 0.0
H1337 H 0.7333 0.83897 0.34283 0.0
H1338 H 0.745 0.80491 0.38873 0.0
H1339 H 0.8352 0.81869 0.37153 0.0
H1340 H 0.82399 0.8527 0.32529 0.0
H1341 H 0.75989 0.01558 0.29377 0.0
H1342 H 0.74241 0.96731 0.27908 0.0
H1343 H 0.82855 0.93392 0.28942 0.0
H1344 H 0.84589 0.98168 0.30463 0.0
H1345 H 0.79254 0.90345 0.32618 0.0
H1346 H 0.79357 0.93928 0.21141 0.0
H1347 H 0.78095 0.97271 0.16522 0.0
H1348 H 0.69129 0.95421 0.18001 0.0
H1349 H 0.70336 0.92094 0.22662 0.0
C1350 C 0.76245 0.77838 0.2733 0.0
C1351 C 0.73416 0.76968 0.28041 0.0
C1352 C 0.76876 0.80737 0.26777 0.0
C1353 C 0.74692 0.82818 0.26959 0.0
C1354 C 0.71823 0.8192 0.2734 0.0
C1355 C 0.7119 0.79007 0.27894 0.0
C1356 C 0.75482 0.85895 0.27367 0.0
C1357 C 0.74734 0.87908 0.24866 0.0
C1358 C 0.77094 0.86806 0.30212 0.0
C1359 C 0.77781 0.84817 0.33043 0.0
C1360 C 0.75563 0.83462 0.34873 0.0
C1361 C 0.76216 0.81537 0.37484 0.0
C1362 C 0.79082 0.80955 0.38296 0.0
C1363 C 0.813 0.82317 0.36516 0.0
C1364 C 0.80657 0.8425 0.33906 0.0
C1365 C 0.77516 0.99804 0.29215 0.0
C1366 C 0.80423 1.0024 0.30062 0.0
C1367 C 0.76516 0.97043 0.28374 0.0
C1368 C 0.78414 0.94685 0.28325 0.0
C1369 C 0.81342 0.95164 0.28989 0.0
C1370 C 0.82333 0.97903 0.29851 0.0
C1371 C 0.77351 0.9168 0.27885 0.0
C1372 C 0.78029 0.89666 0.30417 0.0
C1373 C 0.75663 0.90791 0.25078 0.0
C1374 C 0.74936 0.92785 0.22274 0.0
C1375 C 0.77115 0.94253 0.20501 0.0
C1376 C 0.7641 0.96141 0.17871 0.0
C1377 C 0.73533 0.96565 0.16975 0.0
C1378 C 0.71356 0.95094 0.18701 0.0
C1379 C 0.7205 0.93205 0.21335 0.0
H1380 H 0.72992 0.98028 0.14938 0.0
H1381 H 0.79583 0.79453 0.40309 0.0
H1382 H 0.96901 0.18242 0.67299 0.0
H1383 H 0.92361 0.20174 0.69303 0.0
H1384 H 0.9686 0.25364 0.76669 0.0
H1385 H 0.01472 0.23515 0.74536 0.0
H1386 H 0.89374 0.2013 0.74616 0.0
H1387 H 0.9305 0.3155 0.78113 0.0
H1388 H 0.96932 0.34994 0.76762 0.0
H1389 H 0.97972 0.31131 0.66938 0.0
H1390 H 0.94079 0.2769 0.6822 0.0
H1391 H 0.75993 0.26727 0.77517 0.0
H1392 H 0.81018 0.25624 0.7898 0.0
H1393 H 0.83876 0.3029 0.70127 0.0
H1394 H 0.78917 0.31492 0.68783 0.0
H1395 H 0.87849 0.30683 0.74485 0.0
H1396 H 0.82117 0.22781 0.70094 0.0
H1397 H 0.78086 0.19329 0.70204 0.0
H1398 H 0.80984 0.16092 0.79815 0.0
H1399 H 0.85016 0.19554 0.79774 0.0
C1400 C 0.9694 0.19781 0.69363 0.0
C1401 C 0.99561 0.20743 0.70734 0.0
C1402 C 0.94326 0.20879 0.70524 0.0
C1403 C 0.94245 0.22947 0.73121 0.0
C1404 C 0.96855 0.23814 0.74618 0.0
C1405 C 0.99492 0.22744 0.73411 0.0
C1406 C 0.91424 0.24264 0.74076 0.0
C1407 C 0.89056 0.22442 0.74632 0.0
C1408 C 0.90974 0.2728 0.74085 0.0
C1409 C 0.93307 0.29341 0.73284 0.0
C1410 C 0.94109 0.3144 0.75666 0.0
C1411 C 0.96309 0.33391 0.74912 0.0
C1412 C 0.97706 0.33273 0.71773 0.0
C1413 C 0.96898 0.31212 0.69374 0.0
C1414 C 0.94697 0.2926 0.70114 0.0
C1415 C 0.77711 0.27612 0.75978 0.0
C1416 C 0.77075 0.29163 0.73017 0.0
C1417 C 0.8058 0.26954 0.76787 0.0
C1418 C 0.82837 0.27798 0.74609 0.0
C1419 C 0.82196 0.29592 0.71847 0.0
C1420 C 0.79352 0.30275 0.7107 0.0
C1421 C 0.85788 0.26545 0.74872 0.0
C1422 C 0.88183 0.28375 0.74571 0.0
C1423 C 0.86249 0.23531 0.74929 0.0
C1424 C 0.83839 0.21446 0.74953 0.0
C1425 C 0.81882 0.21342 0.72238 0.0
C1426 C 0.796 0.19385 0.72287 0.0
C1427 C 0.79273 0.17499 0.7502 0.0
C1428 C 0.81235 0.1756 0.77705 0.0
C1429 C 0.83518 0.1952 0.77671 0.0
H1430 H 0.77505 0.15984 0.75054 0.0
H1431 H 0.9941 0.34784 0.71194 0.0
H1432 H 0.81899 0.28364 0.22887 0.0
H1433 H 0.80645 0.33452 0.23707 0.0
H1434 H 0.71721 0.31103 0.24872 0.0
H1435 H 0.72975 0.26039 0.24052 0.0
H1436 H 0.7285 0.34703 0.19381 0.0
H1437 H 0.75212 0.34183 0.31325 0.0
H1438 H 0.78421 0.33189 0.36161 0.0
H1439 H 0.84486 0.39394 0.32415 0.0
H1440 H 0.81331 0.40397 0.27529 0.0
H1441 H 0.66269 0.48106 0.20452 0.0
H1442 H 0.67943 0.43283 0.21875 0.0
H1443 H 0.76649 0.46444 0.22618 0.0
H1444 H 0.74956 0.51317 0.21313 0.0
H1445 H 0.75928 0.42478 0.27192 0.0
H1446 H 0.74125 0.42953 0.15355 0.0
H1447 H 0.71522 0.4381 0.10001 0.0
H1448 H 0.65118 0.37618 0.12887 0.0
H1449 H 0.6766 0.36751 0.1828 0.0
C1450 C 0.79697 0.28931 0.235 0.0
C1451 C 0.77535 0.26821 0.23455 0.0
C1452 C 0.78977 0.31836 0.23942 0.0
C1453 C 0.76086 0.32657 0.24332 0.0
C1454 C 0.73964 0.30517 0.24578 0.0
C1455 C 0.74683 0.27625 0.24145 0.0
C1456 C 0.75205 0.35709 0.23926 0.0
C1457 C 0.73474 0.36397 0.21129 0.0
C1458 C 0.76161 0.37936 0.26093 0.0
C1459 C 0.78046 0.37346 0.29044 0.0
C1460 C 0.77241 0.35319 0.31516 0.0
C1461 C 0.79048 0.34757 0.3427 0.0
C1462 C 0.81659 0.36222 0.34591 0.0
C1463 C 0.82464 0.38258 0.32162 0.0
C1464 C 0.80666 0.38827 0.29402 0.0
C1465 C 0.68536 0.47784 0.20966 0.0
C1466 C 0.70485 0.50087 0.20744 0.0
C1467 C 0.69496 0.45018 0.21757 0.0
C1468 C 0.72438 0.44473 0.22263 0.0
C1469 C 0.74372 0.468 0.22217 0.0
C1470 C 0.73402 0.49586 0.21475 0.0
C1471 C 0.73485 0.41463 0.227 0.0
C1472 C 0.75274 0.40785 0.25464 0.0
C1473 C 0.72651 0.39238 0.20444 0.0
C1474 C 0.71065 0.39816 0.17246 0.0
C1475 C 0.72143 0.41799 0.14867 0.0
C1476 C 0.70683 0.4228 0.1182 0.0
C1477 C 0.68151 0.40778 0.11111 0.0
C1478 C 0.67074 0.38788 0.13445 0.0
C1479 C 0.68523 0.38301 0.16498 0.0
H1480 H 0.67025 0.41153 0.08751 0.0
H1481 H 0.83055 0.35784 0.36724 0.0
H1482 H 0.50555 0.24958 0.8095 0.0
H1483 H 0.45725 0.23196 0.79748 0.0
H1484 H 0.44734 0.29661 0.71987 0.0
H1485 H 0.49545 0.31497 0.73257 0.0
H1486 H 0.40246 0.29732 0.75801 0.0
H1487 H 0.45201 0.22229 0.7011 0.0
H1488 H 0.48804 0.18402 0.69285 0.0
H1489 H 0.45184 0.13651 0.77598 0.0
H1490 H 0.41583 0.17469 0.78507 0.0
H1491 H 0.25981 0.24559 0.73855 0.0
H1492 H 0.30979 0.25349 0.71998 0.0
H1493 H 0.34007 0.20221 0.80389 0.0
H1494 H 0.29051 0.19403 0.82195 0.0
H1495 H 0.37415 0.19475 0.74883 0.0
H1496 H 0.33117 0.27564 0.81073 0.0
H1497 H 0.29461 0.31374 0.81748 0.0
H1498 H 0.31904 0.34996 0.72151 0.0
H1499 H 0.35535 0.31176 0.71385 0.0
C1500 C 0.49337 0.25972 0.78939 0.0
C1501 C 0.50443 0.28374 0.77205 0.0
C1502 C 0.46568 0.24951 0.7824 0.0
C1503 C 0.44856 0.26272 0.75748 0.0
C1504 C 0.46003 0.28601 0.73921 0.0
C1505 C 0.48763 0.29642 0.74642 0.0
C1506 C 0.41795 0.25381 0.75275 0.0
C1507 C 0.39639 0.27492 0.75514 0.0
C1508 C 0.40975 0.22459 0.7493 0.0
C1509 C 0.4313 0.20147 0.74387 0.0
C1510 C 0.45184 0.20378 0.71777 0.0
C1511 C 0.47225 0.18208 0.71292 0.0
C1512 C 0.47226 0.15787 0.73391 0.0
C1513 C 0.45181 0.15528 0.75974 0.0
C1514 C 0.43136 0.17692 0.76472 0.0
C1515 C 0.27717 0.23527 0.75223 0.0
C1516 C 0.27143 0.21938 0.78177 0.0
C1517 C 0.30569 0.23995 0.74182 0.0
C1518 C 0.32875 0.22886 0.76092 0.0
C1519 C 0.32275 0.21104 0.78876 0.0
C1520 C 0.29442 0.20642 0.79913 0.0
C1521 C 0.35899 0.23816 0.75492 0.0
C1522 C 0.38041 0.21716 0.75075 0.0
C1523 C 0.36713 0.26748 0.75651 0.0
C1524 C 0.34576 0.29073 0.76157 0.0
C1525 C 0.32865 0.29167 0.79101 0.0
C1526 C 0.30799 0.31327 0.79501 0.0
C1527 C 0.30452 0.33424 0.76997 0.0
C1528 C 0.32174 0.33369 0.74088 0.0
C1529 C 0.34234 0.31208 0.73668 0.0
H1530 H 0.28851 0.35093 0.77312 0.0
H1531 H 0.48809 0.1411 0.73012 0.0
H1532 H 0.24683 0.74672 0.26861 0.0
H1533 H 0.25748 0.696 0.28134 0.0
H1534 H 0.20162 0.66959 0.19973 0.0
H1535 H 0.1909 0.71996 0.18732 0.0
H1536 H 0.19926 0.63156 0.25238 0.0
H1537 H 0.27173 0.68208 0.18718 0.0
H1538 H 0.30716 0.72087 0.17861 0.0
H1539 H 0.3556 0.69092 0.26424 0.0
H1540 H 0.3198 0.65264 0.27424 0.0
H1541 H 0.25728 0.50113 0.18921 0.0
H1542 H 0.23904 0.5497 0.19878 0.0
H1543 H 0.30431 0.56377 0.2747 0.0
H1544 H 0.32308 0.51535 0.26473 0.0
H1545 H 0.30217 0.60814 0.23341 0.0
H1546 H 0.23205 0.55513 0.29611 0.0
H1547 H 0.19589 0.51725 0.30608 0.0
H1548 H 0.14372 0.55114 0.22566 0.0
H1549 H 0.17977 0.589 0.21488 0.0
C1550 C 0.23607 0.72997 0.25433 0.0
C1551 C 0.21803 0.7371 0.22707 0.0
C1552 C 0.24231 0.70105 0.26138 0.0
C1553 C 0.23071 0.67897 0.24111 0.0
C1554 C 0.21085 0.68616 0.2157 0.0
C1555 C 0.20471 0.71493 0.20863 0.0
C1556 C 0.24152 0.64887 0.2433 0.0
C1557 C 0.22175 0.6264 0.2482 0.0
C1558 C 0.27097 0.64212 0.23836 0.0
C1559 C 0.29286 0.6647 0.23175 0.0
C1560 C 0.28978 0.6839 0.2044 0.0
C1561 C 0.30992 0.70582 0.19928 0.0
C1562 C 0.33363 0.70832 0.22082 0.0
C1563 C 0.3372 0.68897 0.2476 0.0
C1564 C 0.31693 0.66723 0.25309 0.0
C1565 C 0.26754 0.51436 0.20831 0.0
C1566 C 0.29163 0.50422 0.22626 0.0
C1567 C 0.257 0.54219 0.21384 0.0
C1568 C 0.27006 0.56044 0.23776 0.0
C1569 C 0.29381 0.55016 0.25614 0.0
C1570 C 0.30445 0.52238 0.2505 0.0
C1571 C 0.25987 0.59066 0.24224 0.0
C1572 C 0.27976 0.61319 0.23827 0.0
C1573 C 0.23054 0.59744 0.24803 0.0
C1574 C 0.20873 0.57479 0.25453 0.0
C1575 C 0.21296 0.55439 0.28039 0.0
C1576 C 0.19247 0.53294 0.28622 0.0
C1577 C 0.16755 0.53175 0.26648 0.0
C1578 C 0.16304 0.55207 0.24092 0.0
C1579 C 0.18348 0.57356 0.23497 0.0
H1580 H 0.15171 0.51512 0.27102 0.0
H1581 H 0.34925 0.72524 0.21674 0.0
H1582 H 0.49678 0.74582 0.78413 0.0
H1583 H 0.54517 0.76356 0.77076 0.0
H1584 H 0.57562 0.6762 0.76255 0.0
H1585 H 0.52759 0.65844 0.77627 0.0
H1586 H 0.60758 0.7059 0.8059 0.0
H1587 H 0.57144 0.72174 0.69304 0.0
H1588 H 0.53808 0.74122 0.65024 0.0
H1589 H 0.55814 0.82723 0.6821 0.0
H1590 H 0.59135 0.80824 0.72542 0.0
H1591 H 0.74976 0.72945 0.76379 0.0
H1592 H 0.69968 0.71663 0.7521 0.0
H1593 H 0.67437 0.80485 0.76793 0.0
H1594 H 0.72474 0.81777 0.77917 0.0
H1595 H 0.63956 0.77673 0.71959 0.0
H1596 H 0.67425 0.76193 0.83256 0.0
H1597 H 0.70728 0.74369 0.87646 0.0
H1598 H 0.68847 0.65686 0.84672 0.0
H1599 H 0.65582 0.67461 0.80208 0.0
C1600 C 0.51359 0.73041 0.7785 0.0
C1601 C 0.50837 0.70072 0.78149 0.0
C1602 C 0.54131 0.74059 0.77091 0.0
C1603 C 0.56419 0.72123 0.76581 0.0
C1604 C 0.55845 0.69159 0.76663 0.0
C1605 C 0.5309 0.68145 0.77435 0.0
C1606 C 0.59452 0.73151 0.76306 0.0
C1607 C 0.6146 0.72099 0.78659 0.0
C1608 C 0.60358 0.7521 0.73878 0.0
C1609 C 0.58367 0.76355 0.7127 0.0
C1610 C 0.56856 0.7448 0.69111 0.0
C1611 C 0.54972 0.75575 0.66672 0.0
C1612 C 0.54594 0.78544 0.66351 0.0
C1613 C 0.56106 0.80424 0.68464 0.0
C1614 C 0.57992 0.79339 0.70909 0.0
C1615 C 0.73368 0.74631 0.76318 0.0
C1616 C 0.74105 0.77461 0.77211 0.0
C1617 C 0.70504 0.73895 0.75684 0.0
C1618 C 0.68318 0.75966 0.75985 0.0
C1619 C 0.69085 0.78851 0.76552 0.0
C1620 C 0.71964 0.79593 0.77172 0.0
C1621 C 0.65254 0.75046 0.76183 0.0
C1622 C 0.63246 0.76141 0.73859 0.0
C1623 C 0.64328 0.7304 0.78662 0.0
C1624 C 0.66282 0.71964 0.81365 0.0
C1625 C 0.67736 0.73896 0.83513 0.0
C1626 C 0.69599 0.7287 0.86019 0.0
C1627 C 0.70004 0.69914 0.86432 0.0
C1628 C 0.68538 0.67977 0.84344 0.0
C1629 C 0.66682 0.68991 0.81823 0.0
H1630 H 0.71447 0.69125 0.88374 0.0
H1631 H 0.53134 0.79388 0.64461 0.0
loop_
_geom_bond_atom_site_label_1
_geom_bond_atom_site_label_2
_geom_bond_distance
_geom_bond_site_symmetry_2
_ccdc_geom_bond_type
O0 Tb1 2.292 . S
O0 C3 1.255 . S
Tb1 O0 2.292 . S
Tb1 O17 2.326 . S
Tb1 O19 2.500 . S
Tb1 O20 2.473 . S
Tb1 O23 2.324 . S
Eu2 O6 2.292 . S
Eu2 C7 2.852 . S
Eu2 O18 2.324 . S
Eu2 O22 2.326 . S
Eu2 O24 2.500 . S
Eu2 O25 2.473 . S
C3 O0 1.255 . S
C3 O4 1.247 . S
O4 C3 1.247 . S
C5 O17 1.242 . S
C5 O18 1.258 . S
O6 Eu2 2.292 . S
O6 C8 1.255 . S
C7 Eu2 2.852 . S
C7 C11 1.503 . S
C7 O24 1.273 . S
C7 O25 1.257 . S
C8 O6 1.255 . S
C8 O9 1.247 . S
O9 C8 1.247 . S
C10 O22 1.242 . S
C10 O23 1.258 . S
C11 C7 1.503 . S
C11 C12 1.379 . S
C11 C16 1.392 . S
C12 C11 1.379 . S
C12 C13 1.404 . S
C12 H26 0.929 . S
C13 C12 1.404 . S
C13 C14 1.389 . S
C14 C13 1.389 . S
C14 C15 1.399 . S
C14 H27 0.931 . S
C15 C14 1.399 . S
C15 C16 1.390 . S
C16 C11 1.392 . S
C16 C15 1.390 . S
C16 H28 0.929 . S
O17 Tb1 2.326 . S
O17 C5 1.242 . S
O18 Eu2 2.324 . S
O18 C5 1.258 . S
O19 Tb1 2.500 . S
O19 C21 1.273 . S
O20 Tb1 2.473 . S
O20 C21 1.257 . S
C21 O19 1.273 . S
C21 O20 1.257 . S
O22 Eu2 2.326 . S
O22 C10 1.242 . S
O23 Tb1 2.324 . S
O23 C10 1.258 . S
O24 Eu2 2.500 . S
O24 C7 1.273 . S
O25 Eu2 2.473 . S
O25 C7 1.257 . S
H26 C12 0.929 . S
H27 C14 0.931 . S
H28 C16 0.929 . S
O29 Tb30 2.292 . S
O29 C32 1.255 . S
Tb30 O29 2.292 . S
Tb30 O46 2.326 . S
Tb30 O48 2.500 . S
Tb30 O49 2.473 . S
Tb30 O52 2.324 . S
Eu31 O35 2.292 . S
Eu31 C36 2.852 . S
Eu31 O47 2.324 . S
Eu31 O51 2.326 . S
Eu31 O53 2.500 . S
Eu31 O54 2.473 . S
C32 O29 1.255 . S
C32 O33 1.247 . S
O33 C32 1.247 . S
C34 O46 1.242 . S
C34 O47 1.258 . S
O35 Eu31 2.292 . S
O35 C37 1.255 . S
C36 Eu31 2.852 . S
C36 C40 1.503 . S
C36 O53 1.273 . S
C36 O54 1.257 . S
C37 O35 1.255 . S
C37 O38 1.247 . S
O38 C37 1.247 . S
C39 O51 1.242 . S
C39 O52 1.258 . S
C40 C36 1.503 . S
C40 C41 1.379 . S
C40 C45 1.392 . S
C41 C40 1.379 . S
C41 C42 1.404 . S
C41 H55 0.929 . S
C42 C41 1.404 . S
C42 C43 1.389 . S
C43 C42 1.389 . S
C43 C44 1.399 . S
C43 H56 0.931 . S
C44 C43 1.399 . S
C44 C45 1.390 . S
C45 C40 1.392 . S
C45 C44 1.390 . S
C45 H57 0.929 . S
O46 Tb30 2.326 . S
O46 C34 1.242 . S
O47 Eu31 2.324 . S
O47 C34 1.258 . S
O48 Tb30 2.500 . S
O48 C50 1.273 . S
O49 Tb30 2.473 . S
O49 C50 1.257 . S
C50 O48 1.273 . S
C50 O49 1.257 . S
O51 Eu31 2.326 . S
O51 C39 1.242 . S
O52 Tb30 2.324 . S
O52 C39 1.258 . S
O53 Eu31 2.500 . S
O53 C36 1.273 . S
O54 Eu31 2.473 . S
O54 C36 1.257 . S
H55 C41 0.929 . S
H56 C43 0.931 . S
H57 C45 0.929 . S
O58 Tb59 2.292 . S
O58 C61 1.255 . S
Tb59 O58 2.292 . S
Tb59 O75 2.326 . S
Tb59 O77 2.500 . S
Tb59 O78 2.473 . S
Tb59 O81 2.324 . S
Eu60 O64 2.292 . S
Eu60 C65 2.852 . S
Eu60 O76 2.324 . S
Eu60 O80 2.326 . S
Eu60 O82 2.500 . S
Eu60 O83 2.473 . S
C61 O58 1.255 . S
C61 O62 1.247 . S
O62 C61 1.247 . S
C63 O75 1.242 . S
C63 O76 1.258 . S
O64 Eu60 2.292 . S
O64 C66 1.255 . S
C65 Eu60 2.852 . S
C65 C69 1.503 . S
C65 O82 1.273 . S
C65 O83 1.257 . S
C66 O64 1.255 . S
C66 O67 1.247 . S
O67 C66 1.247 . S
C68 O80 1.242 . S
C68 O81 1.258 . S
C69 C65 1.503 . S
C69 C70 1.379 . S
C69 C74 1.392 . S
C70 C69 1.379 . S
C70 C71 1.404 . S
C70 H84 0.929 . S
C71 C70 1.404 . S
C71 C72 1.389 . S
C72 C71 1.389 . S
C72 C73 1.399 . S
C72 H85 0.931 . S
C73 C72 1.399 . S
C73 C74 1.390 . S
C74 C69 1.392 . S
C74 C73 1.390 . S
C74 H86 0.929 . S
O75 Tb59 2.326 . S
O75 C63 1.242 . S
O76 Eu60 2.324 . S
O76 C63 1.258 . S
O77 Tb59 2.500 . S
O77 C79 1.273 . S
O78 Tb59 2.473 . S
O78 C79 1.257 . S
C79 O77 1.273 . S
C79 O78 1.257 . S
O80 Eu60 2.326 . S
O80 C68 1.242 . S
O81 Tb59 2.324 . S
O81 C68 1.258 . S
O82 Eu60 2.500 . S
O82 C65 1.273 . S
O83 Eu60 2.473 . S
O83 C65 1.257 . S
H84 C70 0.929 . S
H85 C72 0.931 . S
H86 C74 0.929 . S
O87 Tb88 2.292 . S
O87 C90 1.255 . S
Tb88 O87 2.292 . S
Tb88 O104 2.326 . S
Tb88 O106 2.500 . S
Tb88 O107 2.473 . S
Tb88 O110 2.324 . S
Eu89 O93 2.292 . S
Eu89 C94 2.852 . S
Eu89 O105 2.324 . S
Eu89 O109 2.326 . S
Eu89 O111 2.500 . S
Eu89 O112 2.473 . S
C90 O87 1.255 . S
C90 O91 1.247 . S
O91 C90 1.247 . S
C92 O104 1.242 . S
C92 O105 1.258 . S
O93 Eu89 2.292 . S
O93 C95 1.255 . S
C94 Eu89 2.852 . S
C94 C98 1.503 . S
C94 O111 1.273 . S
C94 O112 1.257 . S
C95 O93 1.255 . S
C95 O96 1.247 . S
O96 C95 1.247 . S
C97 O109 1.242 . S
C97 O110 1.258 . S
C98 C94 1.503 . S
C98 C99 1.379 . S
C98 C103 1.392 . S
C99 C98 1.379 . S
C99 C100 1.404 . S
C99 H113 0.929 . S
C100 C99 1.404 . S
C100 C101 1.389 . S
C101 C100 1.389 . S
C101 C102 1.399 . S
C101 H114 0.931 . S
C102 C101 1.399 . S
C102 C103 1.390 . S
C103 C98 1.392 . S
C103 C102 1.390 . S
C103 H115 0.929 . S
O104 Tb88 2.326 . S
O104 C92 1.242 . S
O105 Eu89 2.324 . S
O105 C92 1.258 . S
O106 Tb88 2.500 . S
O106 C108 1.273 . S
O107 Tb88 2.473 . S
O107 C108 1.257 . S
C108 O106 1.273 . S
C108 O107 1.257 . S
O109 Eu89 2.326 . S
O109 C97 1.242 . S
O110 Tb88 2.324 . S
O110 C97 1.258 . S
O111 Eu89 2.500 . S
O111 C94 1.273 . S
O112 Eu89 2.473 . S
O112 C94 1.257 . S
H113 C99 0.929 . S
H114 C101 0.931 . S
H115 C103 0.929 . S
O116 Tb117 2.292 . S
O116 C119 1.255 . S
Tb117 O116 2.292 . S
Tb117 O133 2.326 . S
Tb117 O135 2.500 . S
Tb117 O136 2.473 . S
Tb117 O139 2.324 . S
Eu118 O122 2.292 . S
Eu118 C123 2.852 . S
Eu118 O134 2.324 . S
Eu118 O138 2.326 . S
Eu118 O140 2.500 . S
Eu118 O141 2.473 . S
C119 O116 1.255 . S
C119 O120 1.247 . S
O120 C119 1.247 . S
C121 O133 1.242 . S
C121 O134 1.258 . S
O122 Eu118 2.292 . S
O122 C124 1.255 . S
C123 Eu118 2.852 . S
C123 C127 1.503 . S
C123 O140 1.273 . S
C123 O141 1.257 . S
C124 O122 1.255 . S
C124 O125 1.247 . S
O125 C124 1.247 . S
C126 O138 1.242 . S
C126 O139 1.258 . S
C127 C123 1.503 . S
C127 C128 1.379 . S
C127 C132 1.392 . S
C128 C127 1.379 . S
C128 C129 1.404 . S
C128 H142 0.929 . S
C129 C128 1.404 . S
C129 C130 1.389 . S
C130 C129 1.389 . S
C130 C131 1.399 . S
C130 H143 0.931 . S
C131 C130 1.399 . S
C131 C132 1.390 . S
C132 C127 1.392 . S
C132 C131 1.390 . S
C132 H144 0.929 . S
O133 Tb117 2.326 . S
O133 C121 1.242 . S
O134 Eu118 2.324 . S
O134 C121 1.258 . S
O135 Tb117 2.500 . S
O135 C137 1.273 . S
O136 Tb117 2.473 . S
O136 C137 1.257 . S
C137 O135 1.273 . S
C137 O136 1.257 . S
O138 Eu118 2.326 . S
O138 C126 1.242 . S
O139 Tb117 2.324 . S
O139 C126 1.258 . S
O140 Eu118 2.500 . S
O140 C123 1.273 . S
O141 Eu118 2.473 . S
O141 C123 1.257 . S
H142 C128 0.929 . S
H143 C130 0.931 . S
H144 C132 0.929 . S
O145 Tb146 2.292 . S
O145 C148 1.255 . S
Tb146 O145 2.292 . S
Tb146 O162 2.326 . S
Tb146 O164 2.500 . S
Tb146 O165 2.473 . S
Tb146 O168 2.324 . S
Eu147 O151 2.292 . S
Eu147 C152 2.852 . S
Eu147 O163 2.324 . S
Eu147 O167 2.326 . S
Eu147 O169 2.500 . S
Eu147 O170 2.473 . S
C148 O145 1.255 . S
C148 O149 1.247 . S
O149 C148 1.247 . S
C150 O162 1.242 . S
C150 O163 1.258 . S
O151 Eu147 2.292 . S
O151 C153 1.255 . S
C152 Eu147 2.852 . S
C152 C156 1.503 . S
C152 O169 1.273 . S
C152 O170 1.257 . S
C153 O151 1.255 . S
C153 O154 1.247 . S
O154 C153 1.247 . S
C155 O167 1.242 . S
C155 O168 1.258 . S
C156 C152 1.503 . S
C156 C157 1.379 . S
C156 C161 1.392 . S
C157 C156 1.379 . S
C157 C158 1.404 . S
C157 H171 0.929 . S
C158 C157 1.404 . S
C158 C159 1.389 . S
C159 C158 1.389 . S
C159 C160 1.399 . S
C159 H172 0.931 . S
C160 C159 1.399 . S
C160 C161 1.390 . S
C161 C156 1.392 . S
C161 C160 1.390 . S
C161 H173 0.929 . S
O162 Tb146 2.326 . S
O162 C150 1.242 . S
O163 Eu147 2.324 . S
O163 C150 1.258 . S
O164 Tb146 2.500 . S
O164 C166 1.273 . S
O165 Tb146 2.473 . S
O165 C166 1.257 . S
C166 O164 1.273 . S
C166 O165 1.257 . S
O167 Eu147 2.326 . S
O167 C155 1.242 . S
O168 Tb146 2.324 . S
O168 C155 1.258 . S
O169 Eu147 2.500 . S
O169 C152 1.273 . S
O170 Eu147 2.473 . S
O170 C152 1.257 . S
H171 C157 0.929 . S
H172 C159 0.931 . S
H173 C161 0.929 . S
O174 Tb175 2.292 . S
O174 C177 1.255 . S
Tb175 O174 2.292 . S
Tb175 O191 2.326 . S
Tb175 O193 2.500 . S
Tb175 O194 2.473 . S
Tb175 O197 2.324 . S
Eu176 O180 2.292 . S
Eu176 C181 2.852 . S
Eu176 O192 2.324 . S
Eu176 O196 2.326 . S
Eu176 O198 2.500 . S
Eu176 O199 2.473 . S
C177 O174 1.255 . S
C177 O178 1.247 . S
O178 C177 1.247 . S
C179 O191 1.242 . S
C179 O192 1.258 . S
O180 Eu176 2.292 . S
O180 C182 1.255 . S
C181 Eu176 2.852 . S
C181 C185 1.503 . S
C181 O198 1.273 . S
C181 O199 1.257 . S
C182 O180 1.255 . S
C182 O183 1.247 . S
O183 C182 1.247 . S
C184 O196 1.242 . S
C184 O197 1.258 . S
C185 C181 1.503 . S
C185 C186 1.379 . S
C185 C190 1.392 . S
C186 C185 1.379 . S
C186 C187 1.404 . S
C186 H200 0.929 . S
C187 C186 1.404 . S
C187 C188 1.389 . S
C188 C187 1.389 . S
C188 C189 1.399 . S
C188 H201 0.931 . S
C189 C188 1.399 . S
C189 C190 1.390 . S
C190 C185 1.392 . S
C190 C189 1.390 . S
C190 H202 0.929 . S
O191 Tb175 2.326 . S
O191 C179 1.242 . S
O192 Eu176 2.324 . S
O192 C179 1.258 . S
O193 Tb175 2.500 . S
O193 C195 1.273 . S
O194 Tb175 2.473 . S
O194 C195 1.257 . S
C195 O193 1.273 . S
C195 O194 1.257 . S
O196 Eu176 2.326 . S
O196 C184 1.242 . S
O197 Tb175 2.324 . S
O197 C184 1.258 . S
O198 Eu176 2.500 . S
O198 C181 1.273 . S
O199 Eu176 2.473 . S
O199 C181 1.257 . S
H200 C186 0.929 . S
H201 C188 0.931 . S
H202 C190 0.929 . S
O203 Tb204 2.292 . S
O203 C206 1.255 . S
Tb204 O203 2.292 . S
Tb204 O220 2.326 . S
Tb204 O222 2.500 . S
Tb204 O223 2.473 . S
Tb204 O226 2.324 . S
Eu205 O209 2.292 . S
Eu205 C210 2.852 . S
Eu205 O221 2.324 . S
Eu205 O225 2.326 . S
Eu205 O227 2.500 . S
Eu205 O228 2.473 . S
C206 O203 1.255 . S
C206 O207 1.247 . S
O207 C206 1.247 . S
C208 O220 1.242 . S
C208 O221 1.258 . S
O209 Eu205 2.292 . S
O209 C211 1.255 . S
C210 Eu205 2.852 . S
C210 C214 1.503 . S
C210 O227 1.273 . S
C210 O228 1.257 . S
C211 O209 1.255 . S
C211 O212 1.247 . S
O212 C211 1.247 . S
C213 O225 1.242 . S
C213 O226 1.258 . S
C214 C210 1.503 . S
C214 C215 1.379 . S
C214 C219 1.392 . S
C215 C214 1.379 . S
C215 C216 1.404 . S
C215 H229 0.929 . S
C216 C215 1.404 . S
C216 C217 1.389 . S
C217 C216 1.389 . S
C217 C218 1.399 . S
C217 H230 0.931 . S
C218 C217 1.399 . S
C218 C219 1.390 . S
C219 C214 1.392 . S
C219 C218 1.390 . S
C219 H231 0.929 . S
O220 Tb204 2.326 . S
O220 C208 1.242 . S
O221 Eu205 2.324 . S
O221 C208 1.258 . S
O222 Tb204 2.500 . S
O222 C224 1.273 . S
O223 Tb204 2.473 . S
O223 C224 1.257 . S
C224 O222 1.273 . S
C224 O223 1.257 . S
O225 Eu205 2.326 . S
O225 C213 1.242 . S
O226 Tb204 2.324 . S
O226 C213 1.258 . S
O227 Eu205 2.500 . S
O227 C210 1.273 . S
O228 Eu205 2.473 . S
O228 C210 1.257 . S
H229 C215 0.929 . S
H230 C217 0.931 . S
H231 C219 0.929 . S
H232 C250 0.951 . S
H233 C252 0.951 1_556 S
H234 C254 0.950 . S
H235 C255 0.950 . S
H236 C257 0.950 . S
H237 C260 0.950 1_554 S
H238 C261 0.950 . S
H239 C263 0.950 . S
H240 C264 0.950 . S
H241 C265 0.951 . S
H242 C267 0.951 . S
H243 C269 0.950 . S
H244 C270 0.950 . S
H245 C272 0.950 . S
H246 C275 0.950 . S
H247 C276 0.950 . S
H248 C278 0.950 . S
H249 C279 0.950 . S
C250 H232 0.951 . S
C250 C251 1.366 . S
C250 C252 1.388 . S
C251 C250 1.366 . S
C251 C255 1.385 . S
C252 H233 0.951 1_554 S
C252 C250 1.388 . S
C252 C253 1.365 1_554 S
C253 C252 1.365 1_556 S
C253 C254 1.410 1_556 S
C253 C256 1.504 . S
C254 H234 0.950 . S
C254 C253 1.410 1_554 S
C254 C255 1.374 . S
C255 H235 0.950 . S
C255 C251 1.385 . S
C255 C254 1.374 . S
C256 C253 1.504 . S
C256 C257 1.373 . S
C256 C258 1.389 . S
C257 H236 0.950 . S
C257 C256 1.373 . S
C257 C273 1.377 . S
C258 C256 1.389 . S
C258 C259 1.524 . S
C258 C272 1.377 . S
C259 C258 1.524 . S
C259 C260 1.397 . S
C259 C264 1.363 . S
C260 H237 0.950 1_556 S
C260 C259 1.397 . S
C260 C261 1.334 1_556 S
C261 H238 0.950 . S
C261 C260 1.334 1_554 S
C261 C262 1.287 1_554 S
C262 C261 1.287 1_556 S
C262 C263 1.524 . S
C262 H281 0.913 1_556 S
C263 H239 0.950 . S
C263 C262 1.524 . S
C263 C264 1.415 . S
C264 H240 0.950 . S
C264 C259 1.363 . S
C264 C263 1.415 . S
C265 H241 0.951 . S
C265 C266 1.366 . S
C265 C267 1.388 . S
C266 C265 1.366 . S
C266 C270 1.385 . S
C267 H242 0.951 . S
C267 C265 1.388 . S
C267 C268 1.366 . S
C268 C267 1.366 . S
C268 C269 1.414 . S
C268 C271 1.499 . S
C269 H243 0.950 . S
C269 C268 1.414 . S
C269 C270 1.374 . S
C270 H244 0.950 . S
C270 C266 1.385 . S
C270 C269 1.374 . S
C271 C268 1.499 . S
C271 C272 1.373 . S
C271 C273 1.389 . S
C272 H245 0.950 . S
C272 C258 1.377 . S
C272 C271 1.373 . S
C273 C257 1.377 . S
C273 C271 1.389 . S
C273 C274 1.524 . S
C274 C273 1.524 . S
C274 C275 1.397 . S
C274 C279 1.363 . S
C275 H246 0.950 . S
C275 C274 1.397 . S
C275 C276 1.334 . S
C276 H247 0.950 . S
C276 C275 1.334 . S
C276 C277 1.287 . S
C277 C276 1.287 . S
C277 C278 1.524 . S
C277 H280 0.999 . S
C278 H248 0.950 . S
C278 C277 1.524 . S
C278 C279 1.415 . S
C279 H249 0.950 . S
C279 C274 1.363 . S
C279 C278 1.415 . S
H280 C277 0.999 . S
H281 C262 0.913 1_554 S
H282 C300 0.951 . S
H283 C302 0.951 . S
H284 C304 0.950 1_554 S
H285 C305 0.950 . S
H286 C307 0.950 . S
H287 C310 0.950 . S
H288 C311 0.950 . S
H289 C313 0.950 . S
H290 C314 0.950 . S
H291 C315 0.951 . S
H292 C317 0.951 . S
H293 C319 0.950 . S
H294 C320 0.950 . S
H295 C322 0.950 . S
H296 C325 0.950 . S
H297 C326 0.950 . S
H298 C328 0.950 . S
H299 C329 0.950 . S
C300 H282 0.951 . S
C300 C301 1.366 . S
C300 C302 1.388 . S
C301 C300 1.366 . S
C301 C305 1.385 . S
C302 H283 0.951 . S
C302 C300 1.388 . S
C302 C303 1.356 1_556 S
C303 C302 1.356 1_554 S
C303 C304 1.412 1_554 S
C303 C306 1.509 . S
C304 H284 0.950 1_556 S
C304 C303 1.412 1_556 S
C304 C305 1.374 . S
C305 H285 0.950 . S
C305 C301 1.385 . S
C305 C304 1.374 . S
C306 C303 1.509 . S
C306 C307 1.373 . S
C306 C308 1.389 . S
C307 H286 0.950 . S
C307 C306 1.373 . S
C307 C323 1.377 . S
C308 C306 1.389 . S
C308 C309 1.524 . S
C308 C322 1.377 . S
C309 C308 1.524 . S
C309 C310 1.397 1_554 S
C309 C314 1.363 . S
C310 H287 0.950 . S
C310 C309 1.397 1_556 S
C310 C311 1.334 . S
C311 H288 0.950 . S
C311 C310 1.334 . S
C311 C312 1.287 . S
C312 C311 1.287 . S
C312 C313 1.524 . S
C312 H331 0.913 . S
C313 H289 0.950 . S
C313 C312 1.524 . S
C313 C314 1.415 1_556 S
C314 H290 0.950 . S
C314 C309 1.363 . S
C314 C313 1.415 1_554 S
C315 H291 0.951 . S
C315 C316 1.366 . S
C315 C317 1.388 . S
C316 C315 1.366 . S
C316 C320 1.385 . S
C317 H292 0.951 . S
C317 C315 1.388 . S
C317 C318 1.366 . S
C318 C317 1.366 . S
C318 C319 1.414 . S
C318 C321 1.499 . S
C319 H293 0.950 . S
C319 C318 1.414 . S
C319 C320 1.374 . S
C320 H294 0.950 . S
C320 C316 1.385 . S
C320 C319 1.374 . S
C321 C318 1.499 . S
C321 C322 1.373 . S
C321 C323 1.389 . S
C322 H295 0.950 . S
C322 C308 1.377 . S
C322 C321 1.373 . S
C323 C307 1.377 . S
C323 C321 1.389 . S
C323 C324 1.524 . S
C324 C323 1.524 . S
C324 C325 1.397 . S
C324 C329 1.363 . S
C325 H296 0.950 . S
C325 C324 1.397 . S
C325 C326 1.334 . S
C326 H297 0.950 . S
C326 C325 1.334 . S
C326 C327 1.287 . S
C327 C326 1.287 . S
C327 C328 1.524 . S
C327 H330 0.999 . S
C328 H298 0.950 . S
C328 C327 1.524 . S
C328 C329 1.415 . S
C329 H299 0.950 . S
C329 C324 1.363 . S
C329 C328 1.415 . S
H330 C327 0.999 . S
H331 C312 0.913 . S
H332 C350 0.951 . S
H333 C352 0.951 . S
H334 C354 0.950 . S
H335 C355 0.950 . S
H336 C357 0.950 . S
H337 C360 0.950 . S
H338 C361 0.950 . S
H339 C363 0.950 . S
H340 C364 0.950 . S
H341 C365 0.951 . S
H342 C367 0.951 1_556 S
H343 C369 0.950 . S
H344 C370 0.950 . S
H345 C372 0.950 . S
H346 C375 0.950 . S
H347 C376 0.950 . S
H348 C378 0.950 . S
H349 C379 0.950 . S
C350 H332 0.951 . S
C350 C351 1.366 . S
C350 C352 1.388 . S
C351 C350 1.366 . S
C351 C355 1.385 . S
C352 H333 0.951 . S
C352 C350 1.388 . S
C352 C353 1.366 . S
C353 C352 1.366 . S
C353 C354 1.414 . S
C353 C356 1.499 . S
C354 H334 0.950 . S
C354 C353 1.414 . S
C354 C355 1.374 . S
C355 H335 0.950 . S
C355 C351 1.385 . S
C355 C354 1.374 . S
C356 C353 1.499 . S
C356 C357 1.373 . S
C356 C358 1.389 . S
C357 H336 0.950 . S
C357 C356 1.373 . S
C357 C373 1.377 . S
C358 C356 1.389 . S
C358 C359 1.524 . S
C358 C372 1.377 . S
C359 C358 1.524 . S
C359 C360 1.397 . S
C359 C364 1.363 . S
C360 H337 0.950 . S
C360 C359 1.397 . S
C360 C361 1.334 . S
C361 H338 0.950 . S
C361 C360 1.334 . S
C361 C362 1.287 . S
C362 C361 1.287 . S
C362 C363 1.524 . S
C362 H381 0.913 . S
C363 H339 0.950 . S
C363 C362 1.524 . S
C363 C364 1.415 . S
C364 H340 0.950 . S
C364 C359 1.363 . S
C364 C363 1.415 . S
C365 H341 0.951 . S
C365 C366 1.366 . S
C365 C367 1.388 . S
C366 C365 1.366 . S
C366 C370 1.385 . S
C367 H342 0.951 1_554 S
C367 C365 1.388 . S
C367 C368 1.366 1_554 S
C368 C367 1.366 1_556 S
C368 C369 1.414 1_556 S
C368 C371 1.499 . S
C369 H343 0.950 . S
C369 C368 1.414 1_554 S
C369 C370 1.374 . S
C370 H344 0.950 . S
C370 C366 1.385 . S
C370 C369 1.374 . S
C371 C368 1.499 . S
C371 C372 1.373 . S
C371 C373 1.389 . S
C372 H345 0.950 . S
C372 C358 1.377 . S
C372 C371 1.373 . S
C373 C357 1.377 . S
C373 C371 1.389 . S
C373 C374 1.524 . S
C374 C373 1.524 . S
C374 C375 1.397 . S
C374 C379 1.363 . S
C375 H346 0.950 . S
C375 C374 1.397 . S
C375 C376 1.334 . S
C376 H347 0.950 . S
C376 C375 1.334 . S
C376 C377 1.287 . S
C377 C376 1.287 . S
C377 C378 1.524 . S
C377 H380 0.999 . S
C378 H348 0.950 . S
C378 C377 1.524 . S
C378 C379 1.415 . S
C379 H349 0.950 . S
C379 C374 1.363 . S
C379 C378 1.415 . S
H380 C377 0.999 . S
H381 C362 0.913 . S
H382 C400 0.951 . S
H383 C402 0.951 . S
H384 C404 0.950 . S
H385 C405 0.950 . S
H386 C407 0.950 . S
H387 C410 0.950 . S
H388 C411 0.950 . S
H389 C413 0.950 . S
H390 C414 0.950 . S
H391 C415 0.951 . S
H392 C417 0.951 1_554 S
H393 C419 0.950 . S
H394 C420 0.950 . S
H395 C422 0.950 . S
H396 C425 0.950 1_556 S
H397 C426 0.950 . S
H398 C428 0.950 . S
H399 C429 0.950 . S
C400 H382 0.951 . S
C400 C401 1.366 . S
C400 C402 1.388 . S
C401 C400 1.366 . S
C401 C405 1.385 . S
C402 H383 0.951 . S
C402 C400 1.388 . S
C402 C403 1.366 . S
C403 C402 1.366 . S
C403 C404 1.414 . S
C403 C406 1.499 . S
C404 H384 0.950 . S
C404 C403 1.414 . S
C404 C405 1.374 . S
C405 H385 0.950 . S
C405 C401 1.385 . S
C405 C404 1.374 . S
C406 C403 1.499 . S
C406 C407 1.373 . S
C406 C408 1.389 . S
C407 H386 0.950 . S
C407 C406 1.373 . S
C407 C423 1.377 . S
C408 C406 1.389 . S
C408 C409 1.524 . S
C408 C422 1.377 . S
C409 C408 1.524 . S
C409 C410 1.397 . S
C409 C414 1.363 . S
C410 H387 0.950 . S
C410 C409 1.397 . S
C410 C411 1.334 . S
C411 H388 0.950 . S
C411 C410 1.334 . S
C411 C412 1.287 . S
C412 C411 1.287 . S
C412 C413 1.524 . S
C412 H431 0.913 . S
C413 H389 0.950 . S
C413 C412 1.524 . S
C413 C414 1.415 . S
C414 H390 0.950 . S
C414 C409 1.363 . S
C414 C413 1.415 . S
C415 H391 0.951 . S
C415 C416 1.366 . S
C415 C417 1.388 . S
C416 C415 1.366 . S
C416 C420 1.385 . S
C417 H392 0.951 1_556 S
C417 C415 1.388 . S
C417 C418 1.364 1_556 S
C418 C417 1.364 1_554 S
C418 C419 1.408 1_554 S
C418 C421 1.506 . S
C419 H393 0.950 . S
C419 C418 1.408 1_556 S
C419 C420 1.374 . S
C420 H394 0.950 . S
C420 C416 1.385 . S
C420 C419 1.374 . S
C421 C418 1.506 . S
C421 C422 1.373 . S
C421 C423 1.389 . S
C422 H395 0.950 . S
C422 C408 1.377 . S
C422 C421 1.373 . S
C423 C407 1.377 . S
C423 C421 1.389 . S
C423 C424 1.524 . S
C424 C423 1.524 . S
C424 C425 1.397 . S
C424 C429 1.363 . S
C425 H396 0.950 1_554 S
C425 C424 1.397 . S
C425 C426 1.334 1_554 S
C426 H397 0.950 . S
C426 C425 1.334 1_556 S
C426 C427 1.287 1_556 S
C427 C426 1.287 1_554 S
C427 C428 1.524 . S
C427 H430 1.002 . S
C428 H398 0.950 . S
C428 C427 1.524 . S
C428 C429 1.415 . S
C429 H399 0.950 . S
C429 C424 1.363 . S
C429 C428 1.415 . S
H430 C427 1.002 . S
H431 C412 0.913 . S
H432 C450 0.951 . S
H433 C452 0.951 . S
H434 C454 0.950 . S
H435 C455 0.950 . S
H436 C457 0.950 . S
H437 C460 0.950 . S
H438 C461 0.950 . S
H439 C463 0.950 . S
H440 C464 0.950 . S
H441 C465 0.951 . S
H442 C467 0.951 . S
H443 C469 0.950 . S
H444 C470 0.950 . S
H445 C472 0.950 . S
H446 C475 0.950 . S
H447 C476 0.950 . S
H448 C478 0.950 . S
H449 C479 0.950 . S
C450 H432 0.951 . S
C450 C451 1.366 . S
C450 C452 1.388 . S
C451 C450 1.366 . S
C451 C455 1.385 . S
C452 H433 0.951 . S
C452 C450 1.388 . S
C452 C453 1.366 . S
C453 C452 1.366 . S
C453 C454 1.414 . S
C453 C456 1.499 . S
C454 H434 0.950 . S
C454 C453 1.414 . S
C454 C455 1.374 . S
C455 H435 0.950 . S
C455 C451 1.385 . S
C455 C454 1.374 . S
C456 C453 1.499 . S
C456 C457 1.373 . S
C456 C458 1.389 . S
C457 H436 0.950 . S
C457 C456 1.373 . S
C457 C473 1.377 . S
C458 C456 1.389 . S
C458 C459 1.524 . S
C458 C472 1.377 . S
C459 C458 1.524 . S
C459 C460 1.397 . S
C459 C464 1.363 . S
C460 H437 0.950 . S
C460 C459 1.397 . S
C460 C461 1.334 . S
C461 H438 0.950 . S
C461 C460 1.334 . S
C461 C462 1.287 . S
C462 C461 1.287 . S
C462 C463 1.524 . S
C462 H481 0.913 . S
C463 H439 0.950 . S
C463 C462 1.524 . S
C463 C464 1.415 . S
C464 H440 0.950 . S
C464 C459 1.363 . S
C464 C463 1.415 . S
C465 H441 0.951 . S
C465 C466 1.366 . S
C465 C467 1.388 . S
C466 C465 1.366 . S
C466 C470 1.385 . S
C467 H442 0.951 . S
C467 C465 1.388 . S
C467 C468 1.366 . S
C468 C467 1.366 . S
C468 C469 1.414 . S
C468 C471 1.499 . S
C469 H443 0.950 . S
C469 C468 1.414 . S
C469 C470 1.374 . S
C470 H444 0.950 . S
C470 C466 1.385 . S
C470 C469 1.374 . S
C471 C468 1.499 . S
C471 C472 1.373 . S
C471 C473 1.389 . S
C472 H445 0.950 . S
C472 C458 1.377 . S
C472 C471 1.373 . S
C473 C457 1.377 . S
C473 C471 1.389 . S
C473 C474 1.524 . S
C474 C473 1.524 . S
C474 C475 1.397 . S
C474 C479 1.363 . S
C475 H446 0.950 . S
C475 C474 1.397 . S
C475 C476 1.334 . S
C476 H447 0.950 . S
C476 C475 1.334 . S
C476 C477 1.287 . S
C477 C476 1.287 . S
C477 C478 1.524 . S
C477 H480 0.999 . S
C478 H448 0.950 . S
C478 C477 1.524 . S
C478 C479 1.415 . S
C479 H449 0.950 . S
C479 C474 1.363 . S
C479 C478 1.415 . S
H480 C477 0.999 . S
H481 C462 0.913 . S
H482 C500 0.951 . S
H483 C502 0.951 . S
H484 C504 0.950 . S
H485 C505 0.950 . S
H486 C507 0.950 . S
H487 C510 0.950 . S
H488 C511 0.950 . S
H489 C513 0.950 . S
H490 C514 0.950 . S
H491 C515 0.951 . S
H492 C517 0.951 . S
H493 C519 0.950 . S
H494 C520 0.950 . S
H495 C522 0.950 . S
H496 C525 0.950 . S
H497 C526 0.950 . S
H498 C528 0.950 . S
H499 C529 0.950 . S
C500 H482 0.951 . S
C500 C501 1.366 . S
C500 C502 1.388 . S
C501 C500 1.366 . S
C501 C505 1.385 . S
C502 H483 0.951 . S
C502 C500 1.388 . S
C502 C503 1.366 . S
C503 C502 1.366 . S
C503 C504 1.414 . S
C503 C506 1.499 . S
C504 H484 0.950 . S
C504 C503 1.414 . S
C504 C505 1.374 . S
C505 H485 0.950 . S
C505 C501 1.385 . S
C505 C504 1.374 . S
C506 C503 1.499 . S
C506 C507 1.373 . S
C506 C508 1.389 . S
C507 H486 0.950 . S
C507 C506 1.373 . S
C507 C523 1.377 . S
C508 C506 1.389 . S
C508 C509 1.524 . S
C508 C522 1.377 . S
C509 C508 1.524 . S
C509 C510 1.397 . S
C509 C514 1.363 . S
C510 H487 0.950 . S
C510 C509 1.397 . S
C510 C511 1.334 . S
C511 H488 0.950 . S
C511 C510 1.334 . S
C511 C512 1.287 . S
C512 C511 1.287 . S
C512 C513 1.524 . S
C512 H531 0.913 . S
C513 H489 0.950 . S
C513 C512 1.524 . S
C513 C514 1.415 . S
C514 H490 0.950 . S
C514 C509 1.363 . S
C514 C513 1.415 . S
C515 H491 0.951 . S
C515 C516 1.366 . S
C515 C517 1.388 . S
C516 C515 1.366 . S
C516 C520 1.385 . S
C517 H492 0.951 . S
C517 C515 1.388 . S
C517 C518 1.366 . S
C518 C517 1.366 . S
C518 C519 1.414 . S
C518 C521 1.499 . S
C519 H493 0.950 . S
C519 C518 1.414 . S
C519 C520 1.374 . S
C520 H494 0.950 . S
C520 C516 1.385 . S
C520 C519 1.374 . S
C521 C518 1.499 . S
C521 C522 1.373 . S
C521 C523 1.389 . S
C522 H495 0.950 . S
C522 C508 1.377 . S
C522 C521 1.373 . S
C523 C507 1.377 . S
C523 C521 1.389 . S
C523 C524 1.524 . S
C524 C523 1.524 . S
C524 C525 1.397 . S
C524 C529 1.363 . S
C525 H496 0.950 . S
C525 C524 1.397 . S
C525 C526 1.334 . S
C526 H497 0.950 . S
C526 C525 1.334 . S
C526 C527 1.287 . S
C527 C526 1.287 . S
C527 C528 1.524 . S
C527 H530 0.999 . S
C528 H498 0.950 . S
C528 C527 1.524 . S
C528 C529 1.415 . S
C529 H499 0.950 . S
C529 C524 1.363 . S
C529 C528 1.415 . S
H530 C527 0.999 . S
H531 C512 0.913 . S
H532 C550 0.951 . S
H533 C552 0.951 . S
H534 C554 0.950 . S
H535 C555 0.950 . S
H536 C557 0.950 . S
H537 C560 0.950 . S
H538 C561 0.950 . S
H539 C563 0.950 . S
H540 C564 0.950 . S
H541 C565 0.951 . S
H542 C567 0.951 . S
H543 C569 0.950 . S
H544 C570 0.950 . S
H545 C572 0.950 . S
H546 C575 0.950 . S
H547 C576 0.950 . S
H548 C578 0.950 . S
H549 C579 0.950 . S
C550 H532 0.951 . S
C550 C551 1.366 . S
C550 C552 1.388 . S
C551 C550 1.366 . S
C551 C555 1.385 . S
C552 H533 0.951 . S
C552 C550 1.388 . S
C552 C553 1.366 . S
C553 C552 1.366 . S
C553 C554 1.414 . S
C553 C556 1.499 . S
C554 H534 0.950 . S
C554 C553 1.414 . S
C554 C555 1.374 . S
C555 H535 0.950 . S
C555 C551 1.385 . S
C555 C554 1.374 . S
C556 C553 1.499 . S
C556 C557 1.373 . S
C556 C558 1.389 . S
C557 H536 0.950 . S
C557 C556 1.373 . S
C557 C573 1.377 . S
C558 C556 1.389 . S
C558 C559 1.524 . S
C558 C572 1.377 . S
C559 C558 1.524 . S
C559 C560 1.397 . S
C559 C564 1.363 . S
C560 H537 0.950 . S
C560 C559 1.397 . S
C560 C561 1.334 . S
C561 H538 0.950 . S
C561 C560 1.334 . S
C561 C562 1.287 . S
C562 C561 1.287 . S
C562 C563 1.524 . S
C562 H581 0.913 . S
C563 H539 0.950 . S
C563 C562 1.524 . S
C563 C564 1.415 . S
C564 H540 0.950 . S
C564 C559 1.363 . S
C564 C563 1.415 . S
C565 H541 0.951 . S
C565 C566 1.366 . S
C565 C567 1.388 . S
C566 C565 1.366 . S
C566 C570 1.385 . S
C567 H542 0.951 . S
C567 C565 1.388 . S
C567 C568 1.366 . S
C568 C567 1.366 . S
C568 C569 1.414 . S
C568 C571 1.499 . S
C569 H543 0.950 . S
C569 C568 1.414 . S
C569 C570 1.374 . S
C570 H544 0.950 . S
C570 C566 1.385 . S
C570 C569 1.374 . S
C571 C568 1.499 . S
C571 C572 1.373 . S
C571 C573 1.389 . S
C572 H545 0.950 . S
C572 C558 1.377 . S
C572 C571 1.373 . S
C573 C557 1.377 . S
C573 C571 1.389 . S
C573 C574 1.524 . S
C574 C573 1.524 . S
C574 C575 1.397 . S
C574 C579 1.363 . S
C575 H546 0.950 . S
C575 C574 1.397 . S
C575 C576 1.334 . S
C576 H547 0.950 . S
C576 C575 1.334 . S
C576 C577 1.287 . S
C577 C576 1.287 . S
C577 C578 1.524 . S
C577 H580 0.999 . S
C578 H548 0.950 . S
C578 C577 1.524 . S
C578 C579 1.415 . S
C579 H549 0.950 . S
C579 C574 1.363 . S
C579 C578 1.415 . S
H580 C577 0.999 . S
H581 C562 0.913 . S
H582 C600 0.951 . S
H583 C602 0.951 . S
H584 C604 0.950 . S
H585 C605 0.950 . S
H586 C607 0.950 . S
H587 C610 0.950 . S
H588 C611 0.950 . S
H589 C613 0.950 . S
H590 C614 0.950 . S
H591 C615 0.951 . S
H592 C617 0.951 . S
H593 C619 0.950 . S
H594 C620 0.950 . S
H595 C622 0.950 . S
H596 C625 0.950 . S
H597 C626 0.950 . S
H598 C628 0.950 . S
H599 C629 0.950 . S
C600 H582 0.951 . S
C600 C601 1.366 . S
C600 C602 1.388 . S
C601 C600 1.366 . S
C601 C605 1.385 . S
C602 H583 0.951 . S
C602 C600 1.388 . S
C602 C603 1.366 . S
C603 C602 1.366 . S
C603 C604 1.414 . S
C603 C606 1.499 . S
C604 H584 0.950 . S
C604 C603 1.414 . S
C604 C605 1.374 . S
C605 H585 0.950 . S
C605 C601 1.385 . S
C605 C604 1.374 . S
C606 C603 1.499 . S
C606 C607 1.373 . S
C606 C608 1.389 . S
C607 H586 0.950 . S
C607 C606 1.373 . S
C607 C623 1.377 . S
C608 C606 1.389 . S
C608 C609 1.524 . S
C608 C622 1.377 . S
C609 C608 1.524 . S
C609 C610 1.397 . S
C609 C614 1.363 . S
C610 H587 0.950 . S
C610 C609 1.397 . S
C610 C611 1.334 . S
C611 H588 0.950 . S
C611 C610 1.334 . S
C611 C612 1.287 . S
C612 C611 1.287 . S
C612 C613 1.524 . S
C612 H631 0.913 . S
C613 H589 0.950 . S
C613 C612 1.524 . S
C613 C614 1.415 . S
C614 H590 0.950 . S
C614 C609 1.363 . S
C614 C613 1.415 . S
C615 H591 0.951 . S
C615 C616 1.366 . S
C615 C617 1.388 . S
C616 C615 1.366 . S
C616 C620 1.385 . S
C617 H592 0.951 . S
C617 C615 1.388 . S
C617 C618 1.366 . S
C618 C617 1.366 . S
C618 C619 1.414 . S
C618 C621 1.499 . S
C619 H593 0.950 . S
C619 C618 1.414 . S
C619 C620 1.374 . S
C620 H594 0.950 . S
C620 C616 1.385 . S
C620 C619 1.374 . S
C621 C618 1.499 . S
C621 C622 1.373 . S
C621 C623 1.389 . S
C622 H595 0.950 . S
C622 C608 1.377 . S
C622 C621 1.373 . S
C623 C607 1.377 . S
C623 C621 1.389 . S
C623 C624 1.524 . S
C624 C623 1.524 . S
C624 C625 1.397 . S
C624 C629 1.363 . S
C625 H596 0.950 . S
C625 C624 1.397 . S
C625 C626 1.334 . S
C626 H597 0.950 . S
C626 C625 1.334 . S
C626 C627 1.287 . S
C627 C626 1.287 . S
C627 C628 1.524 . S
C627 H630 0.999 . S
C628 H598 0.950 . S
C628 C627 1.524 . S
C628 C629 1.415 . S
C629 H599 0.950 . S
C629 C624 1.363 . S
C629 C628 1.415 . S
H630 C627 0.999 . S
H631 C612 0.913 . S
H632 C650 0.951 . S
H633 C652 0.951 . S
H634 C654 0.950 . S
H635 C655 0.950 . S
H636 C657 0.950 . S
H637 C660 0.950 . S
H638 C661 0.950 . S
H639 C663 0.950 . S
H640 C664 0.950 . S
H641 C665 0.951 . S
H642 C667 0.951 . S
H643 C669 0.950 . S
H644 C670 0.950 . S
H645 C672 0.950 . S
H646 C675 0.950 . S
H647 C676 0.950 . S
H648 C678 0.950 . S
H649 C679 0.950 . S
C650 H632 0.951 . S
C650 C651 1.366 . S
C650 C652 1.388 . S
C651 C650 1.366 . S
C651 C655 1.385 . S
C652 H633 0.951 . S
C652 C650 1.388 . S
C652 C653 1.366 . S
C653 C652 1.366 . S
C653 C654 1.414 . S
C653 C656 1.499 . S
C654 H634 0.950 . S
C654 C653 1.414 . S
C654 C655 1.374 . S
C655 H635 0.950 . S
C655 C651 1.385 . S
C655 C654 1.374 . S
C656 C653 1.499 . S
C656 C657 1.373 1_556 S
C656 C658 1.389 . S
C657 H636 0.950 . S
C657 C656 1.373 1_554 S
C657 C673 1.377 . S
C658 C656 1.389 . S
C658 C659 1.524 . S
C658 C672 1.377 . S
C659 C658 1.524 . S
C659 C660 1.397 . S
C659 C664 1.363 . S
C660 H637 0.950 . S
C660 C659 1.397 . S
C660 C661 1.334 . S
C661 H638 0.950 . S
C661 C660 1.334 . S
C661 C662 1.287 . S
C662 C661 1.287 . S
C662 C663 1.524 . S
C662 H681 0.913 . S
C663 H639 0.950 . S
C663 C662 1.524 . S
C663 C664 1.415 . S
C664 H640 0.950 . S
C664 C659 1.363 . S
C664 C663 1.415 . S
C665 H641 0.951 . S
C665 C666 1.366 . S
C665 C667 1.388 . S
C666 C665 1.366 . S
C666 C670 1.385 . S
C667 H642 0.951 . S
C667 C665 1.388 . S
C667 C668 1.366 . S
C668 C667 1.366 . S
C668 C669 1.414 . S
C668 C671 1.499 . S
C669 H643 0.950 . S
C669 C668 1.414 . S
C669 C670 1.374 . S
C670 H644 0.950 . S
C670 C666 1.385 . S
C670 C669 1.374 . S
C671 C668 1.499 . S
C671 C672 1.373 1_554 S
C671 C673 1.389 . S
C672 H645 0.950 . S
C672 C658 1.377 . S
C672 C671 1.373 1_556 S
C673 C657 1.377 . S
C673 C671 1.389 . S
C673 C674 1.524 . S
C674 C673 1.524 . S
C674 C675 1.397 . S
C674 C679 1.363 . S
C675 H646 0.950 . S
C675 C674 1.397 . S
C675 C676 1.334 . S
C676 H647 0.950 . S
C676 C675 1.334 . S
C676 C677 1.287 . S
C677 C676 1.287 . S
C677 C678 1.524 . S
C677 H680 0.999 . S
C678 H648 0.950 . S
C678 C677 1.524 . S
C678 C679 1.415 . S
C679 H649 0.950 . S
C679 C674 1.363 . S
C679 C678 1.415 . S
H680 C677 0.999 . S
H681 C662 0.913 . S
H682 C700 0.951 . S
H683 C702 0.951 . S
H684 C704 0.950 . S
H685 C705 0.950 . S
H686 C707 0.950 . S
H687 C710 0.950 . S
H688 C711 0.950 . S
H689 C713 0.950 . S
H690 C714 0.950 . S
H691 C715 0.951 . S
H692 C717 0.951 . S
H693 C719 0.950 . S
H694 C720 0.950 . S
H695 C722 0.950 . S
H696 C725 0.950 . S
H697 C726 0.950 . S
H698 C728 0.950 . S
H699 C729 0.950 . S
C700 H682 0.951 . S
C700 C701 1.366 . S
C700 C702 1.388 . S
C701 C700 1.366 . S
C701 C705 1.385 . S
C702 H683 0.951 . S
C702 C700 1.388 . S
C702 C703 1.366 . S
C703 C702 1.366 . S
C703 C704 1.414 . S
C703 C706 1.499 . S
C704 H684 0.950 . S
C704 C703 1.414 . S
C704 C705 1.374 . S
C705 H685 0.950 . S
C705 C701 1.385 . S
C705 C704 1.374 . S
C706 C703 1.499 . S
C706 C707 1.373 1_554 S
C706 C708 1.389 . S
C707 H686 0.950 . S
C707 C706 1.373 1_556 S
C707 C723 1.377 . S
C708 C706 1.389 . S
C708 C709 1.524 . S
C708 C722 1.377 . S
C709 C708 1.524 . S
C709 C710 1.397 . S
C709 C714 1.363 . S
C710 H687 0.950 . S
C710 C709 1.397 . S
C710 C711 1.334 . S
C711 H688 0.950 . S
C711 C710 1.334 . S
C711 C712 1.287 . S
C712 C711 1.287 . S
C712 C713 1.524 . S
C712 H731 0.913 . S
C713 H689 0.950 . S
C713 C712 1.524 . S
C713 C714 1.415 . S
C714 H690 0.950 . S
C714 C709 1.363 . S
C714 C713 1.415 . S
C715 H691 0.951 . S
C715 C716 1.366 . S
C715 C717 1.388 . S
C716 C715 1.366 . S
C716 C720 1.385 . S
C717 H692 0.951 . S
C717 C715 1.388 . S
C717 C718 1.366 . S
C718 C717 1.366 . S
C718 C719 1.414 . S
C718 C721 1.499 . S
C719 H693 0.950 . S
C719 C718 1.414 . S
C719 C720 1.374 . S
C720 H694 0.950 . S
C720 C716 1.385 . S
C720 C719 1.374 . S
C721 C718 1.499 . S
C721 C722 1.373 1_556 S
C721 C723 1.389 . S
C722 H695 0.950 . S
C722 C708 1.377 . S
C722 C721 1.373 1_554 S
C723 C707 1.377 . S
C723 C721 1.389 . S
C723 C724 1.524 . S
C724 C723 1.524 . S
C724 C725 1.397 . S
C724 C729 1.363 . S
C725 H696 0.950 . S
C725 C724 1.397 . S
C725 C726 1.334 . S
C726 H697 0.950 . S
C726 C725 1.334 . S
C726 C727 1.287 . S
C727 C726 1.287 . S
C727 C728 1.524 . S
C727 H730 0.999 . S
C728 H698 0.950 . S
C728 C727 1.524 . S
C728 C729 1.415 . S
C729 H699 0.950 . S
C729 C724 1.363 . S
C729 C728 1.415 . S
H730 C727 0.999 . S
H731 C712 0.913 . S
H732 C750 0.951 . S
H733 C752 0.951 . S
H734 C754 0.950 . S
H735 C755 0.950 . S
H736 C757 0.950 1_554 S
H737 C760 0.950 . S
H738 C761 0.950 . S
H739 C763 0.950 . S
H740 C764 0.950 . S
H741 C765 0.951 . S
H742 C767 0.951 . S
H743 C769 0.950 1_556 S
H744 C770 0.950 . S
H745 C772 0.950 . S
H746 C775 0.950 . S
H747 C776 0.950 . S
H748 C778 0.950 . S
H749 C779 0.950 . S
C750 H732 0.951 . S
C750 C751 1.366 . S
C750 C752 1.388 . S
C751 C750 1.366 . S
C751 C755 1.385 . S
C752 H733 0.951 . S
C752 C750 1.388 . S
C752 C753 1.366 . S
C753 C752 1.366 . S
C753 C754 1.414 . S
C753 C756 1.499 . S
C754 H734 0.950 . S
C754 C753 1.414 . S
C754 C755 1.374 . S
C755 H735 0.950 . S
C755 C751 1.385 . S
C755 C754 1.374 . S
C756 C753 1.499 . S
C756 C757 1.375 . S
C756 C758 1.389 . S
C757 H736 0.950 1_556 S
C757 C756 1.375 . S
C757 C773 1.375 1_556 S
C758 C756 1.389 . S
C758 C759 1.524 . S
C758 C772 1.377 . S
C759 C758 1.524 . S
C759 C760 1.397 . S
C759 C764 1.363 . S
C760 H737 0.950 . S
C760 C759 1.397 . S
C760 C761 1.334 . S
C761 H738 0.950 . S
C761 C760 1.334 . S
C761 C762 1.287 . S
C762 C761 1.287 . S
C762 C763 1.524 . S
C762 H781 0.913 . S
C763 H739 0.950 . S
C763 C762 1.524 . S
C763 C764 1.415 . S
C764 H740 0.950 . S
C764 C759 1.363 . S
C764 C763 1.415 . S
C765 H741 0.951 . S
C765 C766 1.366 . S
C765 C767 1.388 . S
C766 C765 1.366 . S
C766 C770 1.385 . S
C767 H742 0.951 . S
C767 C765 1.388 . S
C767 C768 1.366 . S
C768 C767 1.366 . S
C768 C769 1.414 . S
C768 C771 1.499 . S
C769 H743 0.950 1_554 S
C769 C768 1.414 . S
C769 C770 1.374 . S
C770 H744 0.950 . S
C770 C766 1.385 . S
C770 C769 1.374 . S
C771 C768 1.499 . S
C771 C772 1.373 1_554 S
C771 C773 1.389 . S
C772 H745 0.950 . S
C772 C758 1.377 . S
C772 C771 1.373 1_556 S
C773 C757 1.375 1_554 S
C773 C771 1.389 . S
C773 C774 1.524 . S
C774 C773 1.524 . S
C774 C775 1.397 . S
C774 C779 1.363 . S
C775 H746 0.950 . S
C775 C774 1.397 . S
C775 C776 1.334 . S
C776 H747 0.950 . S
C776 C775 1.334 . S
C776 C777 1.287 . S
C777 C776 1.287 . S
C777 C778 1.524 . S
C777 H780 0.999 . S
C778 H748 0.950 . S
C778 C777 1.524 . S
C778 C779 1.415 . S
C779 H749 0.950 . S
C779 C774 1.363 . S
C779 C778 1.415 . S
H780 C777 0.999 . S
H781 C762 0.913 . S
H782 C800 0.951 . S
H783 C802 0.951 . S
H784 C804 0.950 . S
H785 C805 0.950 . S
H786 C807 0.950 . S
H787 C810 0.950 . S
H788 C811 0.950 . S
H789 C813 0.950 . S
H790 C814 0.950 . S
H791 C815 0.951 . S
H792 C817 0.951 . S
H793 C819 0.950 . S
H794 C820 0.950 . S
H795 C822 0.950 . S
H796 C825 0.950 . S
H797 C826 0.950 . S
H798 C828 0.950 . S
H799 C829 0.950 . S
C800 H782 0.951 . S
C800 C801 1.366 . S
C800 C802 1.388 . S
C801 C800 1.366 . S
C801 C805 1.385 . S
C802 H783 0.951 . S
C802 C800 1.388 . S
C802 C803 1.366 . S
C803 C802 1.366 . S
C803 C804 1.414 . S
C803 C806 1.499 . S
C804 H784 0.950 . S
C804 C803 1.414 . S
C804 C805 1.374 . S
C805 H785 0.950 . S
C805 C801 1.385 . S
C805 C804 1.374 . S
C806 C803 1.499 . S
C806 C807 1.373 . S
C806 C808 1.389 1_556 S
C807 H786 0.950 . S
C807 C806 1.373 . S
C807 C823 1.377 . S
C808 C806 1.389 1_554 S
C808 C809 1.524 . S
C808 C822 1.377 . S
C809 C808 1.524 . S
C809 C810 1.397 . S
C809 C814 1.363 . S
C810 H787 0.950 . S
C810 C809 1.397 . S
C810 C811 1.334 . S
C811 H788 0.950 . S
C811 C810 1.334 . S
C811 C812 1.287 . S
C812 C811 1.287 . S
C812 C813 1.524 . S
C812 H831 0.913 . S
C813 H789 0.950 . S
C813 C812 1.524 . S
C813 C814 1.415 . S
C814 H790 0.950 . S
C814 C809 1.363 . S
C814 C813 1.415 . S
C815 H791 0.951 . S
C815 C816 1.366 . S
C815 C817 1.388 . S
C816 C815 1.366 . S
C816 C820 1.385 . S
C817 H792 0.951 . S
C817 C815 1.388 . S
C817 C818 1.366 . S
C818 C817 1.366 . S
C818 C819 1.414 . S
C818 C821 1.499 . S
C819 H793 0.950 . S
C819 C818 1.414 . S
C819 C820 1.374 . S
C820 H794 0.950 . S
C820 C816 1.385 . S
C820 C819 1.374 . S
C821 C818 1.499 . S
C821 C822 1.373 . S
C821 C823 1.389 1_554 S
C822 H795 0.950 . S
C822 C808 1.377 . S
C822 C821 1.373 . S
C823 C807 1.377 . S
C823 C821 1.389 1_556 S
C823 C824 1.524 . S
C824 C823 1.524 . S
C824 C825 1.397 . S
C824 C829 1.363 . S
C825 H796 0.950 . S
C825 C824 1.397 . S
C825 C826 1.334 . S
C826 H797 0.950 . S
C826 C825 1.334 . S
C826 C827 1.287 . S
C827 C826 1.287 . S
C827 C828 1.524 . S
C827 H830 0.999 . S
C828 H798 0.950 . S
C828 C827 1.524 . S
C828 C829 1.415 . S
C829 H799 0.950 . S
C829 C824 1.363 . S
C829 C828 1.415 . S
H830 C827 0.999 . S
H831 C812 0.913 . S
H832 C850 0.951 . S
H833 C852 0.951 . S
H834 C854 0.950 . S
H835 C855 0.950 . S
H836 C857 0.950 . S
H837 C860 0.950 . S
H838 C861 0.950 . S
H839 C863 0.950 . S
H840 C864 0.950 . S
H841 C865 0.951 . S
H842 C867 0.951 . S
H843 C869 0.950 . S
H844 C870 0.950 . S
H845 C872 0.950 . S
H846 C875 0.950 . S
H847 C876 0.950 . S
H848 C878 0.950 . S
H849 C879 0.950 . S
C850 H832 0.951 . S
C850 C851 1.366 . S
C850 C852 1.388 . S
C851 C850 1.366 . S
C851 C855 1.385 . S
C852 H833 0.951 . S
C852 C850 1.388 . S
C852 C853 1.366 . S
C853 C852 1.366 . S
C853 C854 1.414 . S
C853 C856 1.499 . S
C854 H834 0.950 . S
C854 C853 1.414 . S
C854 C855 1.374 . S
C855 H835 0.950 . S
C855 C851 1.385 . S
C855 C854 1.374 . S
C856 C853 1.499 . S
C856 C857 1.373 . S
C856 C858 1.389 . S
C857 H836 0.950 . S
C857 C856 1.373 . S
C857 C873 1.377 . S
C858 C856 1.389 . S
C858 C859 1.524 . S
C858 C872 1.377 . S
C859 C858 1.524 . S
C859 C860 1.397 . S
C859 C864 1.363 . S
C860 H837 0.950 . S
C860 C859 1.397 . S
C860 C861 1.334 . S
C861 H838 0.950 . S
C861 C860 1.334 . S
C861 C862 1.287 . S
C862 C861 1.287 . S
C862 C863 1.524 . S
C862 H881 0.913 . S
C863 H839 0.950 . S
C863 C862 1.524 . S
C863 C864 1.415 . S
C864 H840 0.950 . S
C864 C859 1.363 . S
C864 C863 1.415 . S
C865 H841 0.951 . S
C865 C866 1.366 . S
C865 C867 1.388 1_455 S
C866 C865 1.366 . S
C866 C870 1.385 . S
C867 H842 0.951 . S
C867 C865 1.388 1_655 S
C867 C868 1.366 . S
C868 C867 1.366 . S
C868 C869 1.414 . S
C868 C871 1.499 . S
C869 H843 0.950 . S
C869 C868 1.414 . S
C869 C870 1.374 1_655 S
C870 H844 0.950 . S
C870 C866 1.385 . S
C870 C869 1.374 1_455 S
C871 C868 1.499 . S
C871 C872 1.373 . S
C871 C873 1.389 . S
C872 H845 0.950 . S
C872 C858 1.377 . S
C872 C871 1.373 . S
C873 C857 1.377 . S
C873 C871 1.389 . S
C873 C874 1.524 . S
C874 C873 1.524 . S
C874 C875 1.397 . S
C874 C879 1.363 . S
C875 H846 0.950 . S
C875 C874 1.397 . S
C875 C876 1.334 1_655 S
C876 H847 0.950 . S
C876 C875 1.334 1_455 S
C876 C877 1.292 . S
C877 C876 1.292 . S
C877 C878 1.511 1_455 S
C877 H880 1.008 . S
C878 H848 0.950 . S
C878 C877 1.511 1_655 S
C878 C879 1.415 . S
C879 H849 0.950 . S
C879 C874 1.363 . S
C879 C878 1.415 . S
H880 C877 1.008 . S
H881 C862 0.913 . S
H882 C900 0.951 . S
H883 C902 0.951 . S
H884 C904 0.950 . S
H885 C905 0.950 . S
H886 C907 0.950 . S
H887 C910 0.950 . S
H888 C911 0.950 . S
H889 C913 0.950 . S
H890 C914 0.950 . S
H891 C915 0.951 . S
H892 C917 0.951 . S
H893 C919 0.950 . S
H894 C920 0.950 . S
H895 C922 0.950 . S
H896 C925 0.950 . S
H897 C926 0.950 . S
H898 C928 0.950 . S
H899 C929 0.950 . S
C900 H882 0.951 . S
C900 C901 1.366 . S
C900 C902 1.388 . S
C901 C900 1.366 . S
C901 C905 1.385 . S
C902 H883 0.951 . S
C902 C900 1.388 . S
C902 C903 1.366 . S
C903 C902 1.366 . S
C903 C904 1.414 . S
C903 C906 1.499 . S
C904 H884 0.950 . S
C904 C903 1.414 . S
C904 C905 1.374 . S
C905 H885 0.950 . S
C905 C901 1.385 . S
C905 C904 1.374 . S
C906 C903 1.499 . S
C906 C907 1.373 . S
C906 C908 1.389 . S
C907 H886 0.950 . S
C907 C906 1.373 . S
C907 C923 1.377 . S
C908 C906 1.389 . S
C908 C909 1.524 . S
C908 C922 1.377 . S
C909 C908 1.524 . S
C909 C910 1.397 . S
C909 C914 1.363 . S
C910 H887 0.950 . S
C910 C909 1.397 . S
C910 C911 1.334 . S
C911 H888 0.950 . S
C911 C910 1.334 . S
C911 C912 1.287 . S
C912 C911 1.287 . S
C912 C913 1.524 . S
C912 H931 0.913 . S
C913 H889 0.950 . S
C913 C912 1.524 . S
C913 C914 1.415 . S
C914 H890 0.950 . S
C914 C909 1.363 . S
C914 C913 1.415 . S
C915 H891 0.951 . S
C915 C916 1.366 . S
C915 C917 1.388 . S
C916 C915 1.366 . S
C916 C920 1.385 . S
C917 H892 0.951 . S
C917 C915 1.388 . S
C917 C918 1.366 1_565 S
C918 C917 1.366 1_545 S
C918 C919 1.414 . S
C918 C921 1.499 . S
C919 H893 0.950 . S
C919 C918 1.414 . S
C919 C920 1.374 1_545 S
C920 H894 0.950 . S
C920 C916 1.385 . S
C920 C919 1.374 1_565 S
C921 C918 1.499 . S
C921 C922 1.373 . S
C921 C923 1.389 . S
C922 H895 0.950 . S
C922 C908 1.377 . S
C922 C921 1.373 . S
C923 C907 1.377 . S
C923 C921 1.389 . S
C923 C924 1.524 . S
C924 C923 1.524 . S
C924 C925 1.397 . S
C924 C929 1.363 . S
C925 H896 0.950 . S
C925 C924 1.397 . S
C925 C926 1.334 . S
C926 H897 0.950 . S
C926 C925 1.334 . S
C926 C927 1.287 . S
C927 C926 1.287 . S
C927 C928 1.524 . S
C927 H930 0.999 . S
C928 H898 0.950 . S
C928 C927 1.524 . S
C928 C929 1.415 . S
C929 H899 0.950 . S
C929 C924 1.363 . S
C929 C928 1.415 . S
H930 C927 0.999 . S
H931 C912 0.913 . S
H932 C950 0.951 . S
H933 C952 0.951 . S
H934 C954 0.950 . S
H935 C955 0.950 . S
H936 C957 0.950 . S
H937 C960 0.950 . S
H938 C961 0.950 . S
H939 C963 0.950 . S
H940 C964 0.950 . S
H941 C965 0.951 . S
H942 C967 0.951 . S
H943 C969 0.950 . S
H944 C970 0.950 . S
H945 C972 0.950 . S
H946 C975 0.950 . S
H947 C976 0.950 . S
H948 C978 0.950 . S
H949 C979 0.950 . S
C950 H932 0.951 . S
C950 C951 1.366 . S
C950 C952 1.388 . S
C951 C950 1.366 . S
C951 C955 1.385 . S
C952 H933 0.951 . S
C952 C950 1.388 . S
C952 C953 1.366 . S
C953 C952 1.366 . S
C953 C954 1.414 . S
C953 C956 1.499 . S
C954 H934 0.950 . S
C954 C953 1.414 . S
C954 C955 1.374 . S
C955 H935 0.950 . S
C955 C951 1.385 . S
C955 C954 1.374 . S
C956 C953 1.499 . S
C956 C957 1.373 . S
C956 C958 1.389 . S
C957 H936 0.950 . S
C957 C956 1.373 . S
C957 C973 1.377 . S
C958 C956 1.389 . S
C958 C959 1.524 . S
C958 C972 1.377 . S
C959 C958 1.524 . S
C959 C960 1.397 . S
C959 C964 1.363 . S
C960 H937 0.950 . S
C960 C959 1.397 . S
C960 C961 1.334 . S
C961 H938 0.950 . S
C961 C960 1.334 . S
C961 C962 1.287 . S
C962 C961 1.287 . S
C962 C963 1.524 . S
C962 H981 0.913 . S
C963 H939 0.950 . S
C963 C962 1.524 . S
C963 C964 1.415 . S
C964 H940 0.950 . S
C964 C959 1.363 . S
C964 C963 1.415 . S
C965 H941 0.951 . S
C965 C966 1.366 . S
C965 C967 1.388 1_655 S
C966 C965 1.366 . S
C966 C970 1.385 . S
C967 H942 0.951 . S
C967 C965 1.388 1_455 S
C967 C968 1.366 . S
C968 C967 1.366 . S
C968 C969 1.414 . S
C968 C971 1.499 . S
C969 H943 0.950 . S
C969 C968 1.414 . S
C969 C970 1.374 1_455 S
C970 H944 0.950 . S
C970 C966 1.385 . S
C970 C969 1.374 1_655 S
C971 C968 1.499 . S
C971 C972 1.373 . S
C971 C973 1.389 . S
C972 H945 0.950 . S
C972 C958 1.377 . S
C972 C971 1.373 . S
C973 C957 1.377 . S
C973 C971 1.389 . S
C973 C974 1.524 . S
C974 C973 1.524 . S
C974 C975 1.397 . S
C974 C979 1.363 . S
C975 H946 0.950 . S
C975 C974 1.397 . S
C975 C976 1.334 . S
C976 H947 0.950 . S
C976 C975 1.334 . S
C976 C977 1.287 . S
C977 C976 1.287 . S
C977 C978 1.524 . S
C977 H980 0.999 . S
C978 H948 0.950 . S
C978 C977 1.524 . S
C978 C979 1.415 . S
C979 H949 0.950 . S
C979 C974 1.363 . S
C979 C978 1.415 . S
H980 C977 0.999 . S
H981 C962 0.913 . S
H982 C1000 0.951 . S
H983 C1002 0.951 . S
H984 C1004 0.950 . S
H985 C1005 0.950 . S
H986 C1007 0.950 . S
H987 C1010 0.950 . S
H988 C1011 0.950 . S
H989 C1013 0.950 . S
H990 C1014 0.950 . S
H991 C1015 0.951 . S
H992 C1017 0.951 . S
H993 C1019 0.950 . S
H994 C1020 0.950 . S
H995 C1022 0.950 . S
H996 C1025 0.950 . S
H997 C1026 0.950 . S
H998 C1028 0.950 . S
H999 C1029 0.950 . S
C1000 H982 0.951 . S
C1000 C1001 1.366 . S
C1000 C1002 1.388 . S
C1001 C1000 1.366 . S
C1001 C1005 1.385 . S
C1002 H983 0.951 . S
C1002 C1000 1.388 . S
C1002 C1003 1.366 1_545 S
C1003 C1002 1.366 1_565 S
C1003 C1004 1.414 . S
C1003 C1006 1.499 . S
C1004 H984 0.950 . S
C1004 C1003 1.414 . S
C1004 C1005 1.374 1_565 S
C1005 H985 0.950 . S
C1005 C1001 1.385 . S
C1005 C1004 1.374 1_545 S
C1006 C1003 1.499 . S
C1006 C1007 1.373 . S
C1006 C1008 1.389 . S
C1007 H986 0.950 . S
C1007 C1006 1.373 . S
C1007 C1023 1.377 . S
C1008 C1006 1.389 . S
C1008 C1009 1.524 . S
C1008 C1022 1.377 . S
C1009 C1008 1.524 . S
C1009 C1010 1.397 . S
C1009 C1014 1.363 . S
C1010 H987 0.950 . S
C1010 C1009 1.397 . S
C1010 C1011 1.334 1_565 S
C1011 H988 0.950 . S
C1011 C1010 1.334 1_545 S
C1011 C1012 1.287 . S
C1012 C1011 1.287 . S
C1012 C1013 1.524 . S
C1012 H1031 0.913 . S
C1013 H989 0.950 . S
C1013 C1012 1.524 . S
C1013 C1014 1.415 1_545 S
C1014 H990 0.950 . S
C1014 C1009 1.363 . S
C1014 C1013 1.415 1_565 S
C1015 H991 0.951 . S
C1015 C1016 1.366 . S
C1015 C1017 1.388 . S
C1016 C1015 1.366 . S
C1016 C1020 1.385 . S
C1017 H992 0.951 . S
C1017 C1015 1.388 . S
C1017 C1018 1.366 . S
C1018 C1017 1.366 . S
C1018 C1019 1.414 . S
C1018 C1021 1.499 . S
C1019 H993 0.950 . S
C1019 C1018 1.414 . S
C1019 C1020 1.374 . S
C1020 H994 0.950 . S
C1020 C1016 1.385 . S
C1020 C1019 1.374 . S
C1021 C1018 1.499 . S
C1021 C1022 1.373 . S
C1021 C1023 1.389 . S
C1022 H995 0.950 . S
C1022 C1008 1.377 . S
C1022 C1021 1.373 . S
C1023 C1007 1.377 . S
C1023 C1021 1.389 . S
C1023 C1024 1.524 . S
C1024 C1023 1.524 . S
C1024 C1025 1.397 . S
C1024 C1029 1.363 . S
C1025 H996 0.950 . S
C1025 C1024 1.397 . S
C1025 C1026 1.334 . S
C1026 H997 0.950 . S
C1026 C1025 1.334 . S
C1026 C1027 1.287 . S
C1027 C1026 1.287 . S
C1027 C1028 1.524 . S
C1027 H1030 0.999 . S
C1028 H998 0.950 . S
C1028 C1027 1.524 . S
C1028 C1029 1.415 . S
C1029 H999 0.950 . S
C1029 C1024 1.363 . S
C1029 C1028 1.415 . S
H1030 C1027 0.999 . S
H1031 C1012 0.913 . S
H1032 C1050 0.951 . S
H1033 C1052 0.951 . S
H1034 C1054 0.950 . S
H1035 C1055 0.950 . S
H1036 C1057 0.950 . S
H1037 C1060 0.950 . S
H1038 C1061 0.950 . S
H1039 C1063 0.950 . S
H1040 C1064 0.950 . S
H1041 C1065 0.951 . S
H1042 C1067 0.951 . S
H1043 C1069 0.950 . S
H1044 C1070 0.950 . S
H1045 C1072 0.950 . S
H1046 C1075 0.950 . S
H1047 C1076 0.950 . S
H1048 C1078 0.950 . S
H1049 C1079 0.950 . S
C1050 H1032 0.951 . S
C1050 C1051 1.366 . S
C1050 C1052 1.388 . S
C1051 C1050 1.366 . S
C1051 C1055 1.385 . S
C1052 H1033 0.951 . S
C1052 C1050 1.388 . S
C1052 C1053 1.366 . S
C1053 C1052 1.366 . S
C1053 C1054 1.414 . S
C1053 C1056 1.499 . S
C1054 H1034 0.950 . S
C1054 C1053 1.414 . S
C1054 C1055 1.374 . S
C1055 H1035 0.950 . S
C1055 C1051 1.385 . S
C1055 C1054 1.374 . S
C1056 C1053 1.499 . S
C1056 C1057 1.373 . S
C1056 C1058 1.389 . S
C1057 H1036 0.950 . S
C1057 C1056 1.373 . S
C1057 C1073 1.377 . S
C1058 C1056 1.389 . S
C1058 C1059 1.524 . S
C1058 C1072 1.377 . S
C1059 C1058 1.524 . S
C1059 C1060 1.397 . S
C1059 C1064 1.363 . S
C1060 H1037 0.950 . S
C1060 C1059 1.397 . S
C1060 C1061 1.334 . S
C1061 H1038 0.950 . S
C1061 C1060 1.334 . S
C1061 C1062 1.287 . S
C1062 C1061 1.287 . S
C1062 C1063 1.524 . S
C1062 H1081 0.913 . S
C1063 H1039 0.950 . S
C1063 C1062 1.524 . S
C1063 C1064 1.415 . S
C1064 H1040 0.950 . S
C1064 C1059 1.363 . S
C1064 C1063 1.415 . S
C1065 H1041 0.951 . S
C1065 C1066 1.366 . S
C1065 C1067 1.388 . S
C1066 C1065 1.366 . S
C1066 C1070 1.385 . S
C1067 H1042 0.951 . S
C1067 C1065 1.388 . S
C1067 C1068 1.366 . S
C1068 C1067 1.366 . S
C1068 C1069 1.414 . S
C1068 C1071 1.499 . S
C1069 H1043 0.950 . S
C1069 C1068 1.414 . S
C1069 C1070 1.374 . S
C1070 H1044 0.950 . S
C1070 C1066 1.385 . S
C1070 C1069 1.374 . S
C1071 C1068 1.499 . S
C1071 C1072 1.373 . S
C1071 C1073 1.389 . S
C1072 H1045 0.950 . S
C1072 C1058 1.377 . S
C1072 C1071 1.373 . S
C1073 C1057 1.377 . S
C1073 C1071 1.389 . S
C1073 C1074 1.524 . S
C1074 C1073 1.524 . S
C1074 C1075 1.397 . S
C1074 C1079 1.363 . S
C1075 H1046 0.950 . S
C1075 C1074 1.397 . S
C1075 C1076 1.334 . S
C1076 H1047 0.950 . S
C1076 C1075 1.334 . S
C1076 C1077 1.287 . S
C1077 C1076 1.287 . S
C1077 C1078 1.524 . S
C1077 H1080 0.999 . S
C1078 H1048 0.950 . S
C1078 C1077 1.524 . S
C1078 C1079 1.415 . S
C1079 H1049 0.950 . S
C1079 C1074 1.363 . S
C1079 C1078 1.415 . S
H1080 C1077 0.999 . S
H1081 C1062 0.913 . S
H1082 C1100 0.951 . S
H1083 C1102 0.951 . S
H1084 C1104 0.950 . S
H1085 C1105 0.950 . S
H1086 C1107 0.950 . S
H1087 C1110 0.950 . S
H1088 C1111 0.950 . S
H1089 C1113 0.950 . S
H1090 C1114 0.950 . S
H1091 C1115 0.951 . S
H1092 C1117 0.951 . S
H1093 C1119 0.950 . S
H1094 C1120 0.950 . S
H1095 C1122 0.950 . S
H1096 C1125 0.950 . S
H1097 C1126 0.950 . S
H1098 C1128 0.950 . S
H1099 C1129 0.950 . S
C1100 H1082 0.951 . S
C1100 C1101 1.366 . S
C1100 C1102 1.388 . S
C1101 C1100 1.366 . S
C1101 C1105 1.385 . S
C1102 H1083 0.951 . S
C1102 C1100 1.388 . S
C1102 C1103 1.366 . S
C1103 C1102 1.366 . S
C1103 C1104 1.414 . S
C1103 C1106 1.499 . S
C1104 H1084 0.950 . S
C1104 C1103 1.414 . S
C1104 C1105 1.374 . S
C1105 H1085 0.950 . S
C1105 C1101 1.385 . S
C1105 C1104 1.374 . S
C1106 C1103 1.499 . S
C1106 C1107 1.373 . S
C1106 C1108 1.389 . S
C1107 H1086 0.950 . S
C1107 C1106 1.373 . S
C1107 C1123 1.377 . S
C1108 C1106 1.389 . S
C1108 C1109 1.524 . S
C1108 C1122 1.377 . S
C1109 C1108 1.524 . S
C1109 C1110 1.397 . S
C1109 C1114 1.363 . S
C1110 H1087 0.950 . S
C1110 C1109 1.397 . S
C1110 C1111 1.334 . S
C1111 H1088 0.950 . S
C1111 C1110 1.334 . S
C1111 C1112 1.287 . S
C1112 C1111 1.287 . S
C1112 C1113 1.524 . S
C1112 H1131 0.913 . S
C1113 H1089 0.950 . S
C1113 C1112 1.524 . S
C1113 C1114 1.415 . S
C1114 H1090 0.950 . S
C1114 C1109 1.363 . S
C1114 C1113 1.415 . S
C1115 H1091 0.951 . S
C1115 C1116 1.366 . S
C1115 C1117 1.388 . S
C1116 C1115 1.366 . S
C1116 C1120 1.385 . S
C1117 H1092 0.951 . S
C1117 C1115 1.388 . S
C1117 C1118 1.366 . S
C1118 C1117 1.366 . S
C1118 C1119 1.414 . S
C1118 C1121 1.499 . S
C1119 H1093 0.950 . S
C1119 C1118 1.414 . S
C1119 C1120 1.374 . S
C1120 H1094 0.950 . S
C1120 C1116 1.385 . S
C1120 C1119 1.374 . S
C1121 C1118 1.499 . S
C1121 C1122 1.373 . S
C1121 C1123 1.389 . S
C1122 H1095 0.950 . S
C1122 C1108 1.377 . S
C1122 C1121 1.373 . S
C1123 C1107 1.377 . S
C1123 C1121 1.389 . S
C1123 C1124 1.524 . S
C1124 C1123 1.524 . S
C1124 C1125 1.397 . S
C1124 C1129 1.363 . S
C1125 H1096 0.950 . S
C1125 C1124 1.397 . S
C1125 C1126 1.334 . S
C1126 H1097 0.950 . S
C1126 C1125 1.334 . S
C1126 C1127 1.287 . S
C1127 C1126 1.287 . S
C1127 C1128 1.524 . S
C1127 H1130 0.999 . S
C1128 H1098 0.950 . S
C1128 C1127 1.524 . S
C1128 C1129 1.415 . S
C1129 H1099 0.950 . S
C1129 C1124 1.363 . S
C1129 C1128 1.415 . S
H1130 C1127 0.999 . S
H1131 C1112 0.913 . S
H1132 C1150 0.951 . S
H1133 C1152 0.951 . S
H1134 C1154 0.950 . S
H1135 C1155 0.950 1_565 S
H1136 C1157 0.950 . S
H1137 C1160 0.950 . S
H1138 C1161 0.950 . S
H1139 C1163 0.938 1_455 S
H1140 C1164 0.950 1_455 S
H1141 C1165 0.951 . S
H1142 C1167 0.951 . S
H1143 C1169 0.950 . S
H1144 C1170 0.950 1_545 S
H1145 C1172 0.950 . S
H1146 C1175 0.950 . S
H1147 C1176 0.950 . S
H1148 C1178 0.938 1_655 S
H1149 C1179 0.950 1_655 S
C1150 H1132 0.951 . S
C1150 C1151 1.366 . S
C1150 C1152 1.388 . S
C1151 C1150 1.366 . S
C1151 C1155 1.385 . S
C1152 H1133 0.951 . S
C1152 C1150 1.388 . S
C1152 C1153 1.366 . S
C1153 C1152 1.366 . S
C1153 C1154 1.414 1_545 S
C1153 C1156 1.499 . S
C1154 H1134 0.950 . S
C1154 C1153 1.414 1_565 S
C1154 C1155 1.374 1_565 S
C1155 H1135 0.950 1_545 S
C1155 C1151 1.385 . S
C1155 C1154 1.374 1_545 S
C1156 C1153 1.499 . S
C1156 C1157 1.373 1_545 S
C1156 C1158 1.389 . S
C1157 H1136 0.950 . S
C1157 C1156 1.373 1_565 S
C1157 C1173 1.377 1_655 S
C1158 C1156 1.389 . S
C1158 C1159 1.524 . S
C1158 C1172 1.377 1_655 S
C1159 C1158 1.524 . S
C1159 C1160 1.397 . S
C1159 C1164 1.363 . S
C1160 H1137 0.950 . S
C1160 C1159 1.397 . S
C1160 C1161 1.334 . S
C1161 H1138 0.950 . S
C1161 C1160 1.334 . S
C1161 C1162 1.287 . S
C1162 C1161 1.287 . S
C1162 C1163 1.524 . S
C1162 H1181 0.913 . S
C1163 H1139 0.938 1_655 S
C1163 C1162 1.524 . S
C1163 C1164 1.415 . S
C1164 H1140 0.950 1_655 S
C1164 C1159 1.363 . S
C1164 C1163 1.415 . S
C1165 H1141 0.951 . S
C1165 C1166 1.366 . S
C1165 C1167 1.388 . S
C1166 C1165 1.366 . S
C1166 C1170 1.385 . S
C1167 H1142 0.951 . S
C1167 C1165 1.388 . S
C1167 C1168 1.366 . S
C1168 C1167 1.366 . S
C1168 C1169 1.414 1_565 S
C1168 C1171 1.499 . S
C1169 H1143 0.950 . S
C1169 C1168 1.414 1_545 S
C1169 C1170 1.374 1_545 S
C1170 H1144 0.950 1_565 S
C1170 C1166 1.385 . S
C1170 C1169 1.374 1_565 S
C1171 C1168 1.499 . S
C1171 C1172 1.373 1_565 S
C1171 C1173 1.389 . S
C1172 H1145 0.950 . S
C1172 C1158 1.377 1_455 S
C1172 C1171 1.373 1_545 S
C1173 C1157 1.377 1_455 S
C1173 C1171 1.389 . S
C1173 C1174 1.524 . S
C1174 C1173 1.524 . S
C1174 C1175 1.397 . S
C1174 C1179 1.363 . S
C1175 H1146 0.950 . S
C1175 C1174 1.397 . S
C1175 C1176 1.334 . S
C1176 H1147 0.950 . S
C1176 C1175 1.334 . S
C1176 C1177 1.287 . S
C1177 C1176 1.287 . S
C1177 C1178 1.524 . S
C1177 H1180 0.999 . S
C1178 H1148 0.938 1_455 S
C1178 C1177 1.524 . S
C1178 C1179 1.415 . S
C1179 H1149 0.950 1_455 S
C1179 C1174 1.363 . S
C1179 C1178 1.415 . S
H1180 C1177 0.999 . S
H1181 C1162 0.913 . S
H1182 C1200 0.951 . S
H1183 C1202 0.951 . S
H1184 C1204 0.977 . S
H1185 C1205 0.950 1_655 S
H1186 C1207 0.950 . S
H1187 C1210 0.950 . S
H1188 C1211 0.950 . S
H1189 C1213 0.950 1_565 S
H1190 C1214 0.950 . S
H1191 C1215 0.951 . S
H1192 C1217 0.951 . S
H1193 C1219 0.977 . S
H1194 C1220 0.950 1_455 S
H1195 C1222 0.950 . S
H1196 C1225 0.950 . S
H1197 C1226 0.950 . S
H1198 C1228 0.950 1_545 S
H1199 C1229 0.950 . S
C1200 H1182 0.951 . S
C1200 C1201 1.366 . S
C1200 C1202 1.388 . S
C1201 C1200 1.366 . S
C1201 C1205 1.385 . S
C1202 H1183 0.951 . S
C1202 C1200 1.388 . S
C1202 C1203 1.366 . S
C1203 C1202 1.366 . S
C1203 C1204 1.396 1_455 S
C1203 C1206 1.499 . S
C1204 H1184 0.977 . S
C1204 C1203 1.396 1_655 S
C1204 C1205 1.366 1_655 S
C1205 H1185 0.950 1_455 S
C1205 C1201 1.385 . S
C1205 C1204 1.366 1_455 S
C1206 C1203 1.499 . S
C1206 C1207 1.373 1_455 S
C1206 C1208 1.389 . S
C1207 H1186 0.950 . S
C1207 C1206 1.373 1_655 S
C1207 C1223 1.377 1_545 S
C1208 C1206 1.389 . S
C1208 C1209 1.524 . S
C1208 C1222 1.377 1_545 S
C1209 C1208 1.524 . S
C1209 C1210 1.397 . S
C1209 C1214 1.363 1_545 S
C1210 H1187 0.950 . S
C1210 C1209 1.397 . S
C1210 C1211 1.334 . S
C1211 H1188 0.950 . S
C1211 C1210 1.334 . S
C1211 C1212 1.287 . S
C1212 C1211 1.287 . S
C1212 C1213 1.524 . S
C1212 H1231 0.913 . S
C1213 H1189 0.950 1_545 S
C1213 C1212 1.524 . S
C1213 C1214 1.415 1_545 S
C1214 H1190 0.950 . S
C1214 C1209 1.363 1_565 S
C1214 C1213 1.415 1_565 S
C1215 H1191 0.951 . S
C1215 C1216 1.366 . S
C1215 C1217 1.388 . S
C1216 C1215 1.366 . S
C1216 C1220 1.385 . S
C1217 H1192 0.951 . S
C1217 C1215 1.388 . S
C1217 C1218 1.366 . S
C1218 C1217 1.366 . S
C1218 C1219 1.396 1_655 S
C1218 C1221 1.499 . S
C1219 H1193 0.977 . S
C1219 C1218 1.396 1_455 S
C1219 C1220 1.366 1_455 S
C1220 H1194 0.950 1_655 S
C1220 C1216 1.385 . S
C1220 C1219 1.366 1_655 S
C1221 C1218 1.499 . S
C1221 C1222 1.373 1_655 S
C1221 C1223 1.389 . S
C1222 H1195 0.950 . S
C1222 C1208 1.377 1_565 S
C1222 C1221 1.373 1_455 S
C1223 C1207 1.377 1_565 S
C1223 C1221 1.389 . S
C1223 C1224 1.524 . S
C1224 C1223 1.524 . S
C1224 C1225 1.397 . S
C1224 C1229 1.363 1_565 S
C1225 H1196 0.950 . S
C1225 C1224 1.397 . S
C1225 C1226 1.334 . S
C1226 H1197 0.950 . S
C1226 C1225 1.334 . S
C1226 C1227 1.287 . S
C1227 C1226 1.287 . S
C1227 C1228 1.524 . S
C1227 H1230 0.999 . S
C1228 H1198 0.950 1_565 S
C1228 C1227 1.524 . S
C1228 C1229 1.415 1_565 S
C1229 H1199 0.950 . S
C1229 C1224 1.363 1_545 S
C1229 C1228 1.415 1_545 S
H1230 C1227 0.999 . S
H1231 C1212 0.913 . S
H1232 C1250 0.951 . S
H1233 C1252 0.951 . S
H1234 C1254 0.950 . S
H1235 C1255 0.950 . S
H1236 C1257 0.950 . S
H1237 C1260 0.950 . S
H1238 C1261 0.950 . S
H1239 C1263 0.950 . S
H1240 C1264 0.950 . S
H1241 C1265 0.951 . S
H1242 C1267 0.951 . S
H1243 C1269 0.950 . S
H1244 C1270 0.950 . S
H1245 C1272 0.950 . S
H1246 C1275 0.950 . S
H1247 C1276 0.950 . S
H1248 C1278 0.950 . S
H1249 C1279 0.950 . S
C1250 H1232 0.951 . S
C1250 C1251 1.366 . S
C1250 C1252 1.388 . S
C1251 C1250 1.366 . S
C1251 C1255 1.385 . S
C1252 H1233 0.951 . S
C1252 C1250 1.388 . S
C1252 C1253 1.366 . S
C1253 C1252 1.366 . S
C1253 C1254 1.414 . S
C1253 C1256 1.499 . S
C1254 H1234 0.950 . S
C1254 C1253 1.414 . S
C1254 C1255 1.374 . S
C1255 H1235 0.950 . S
C1255 C1251 1.385 . S
C1255 C1254 1.374 . S
C1256 C1253 1.499 . S
C1256 C1257 1.373 . S
C1256 C1258 1.389 . S
C1257 H1236 0.950 . S
C1257 C1256 1.373 . S
C1257 C1273 1.377 . S
C1258 C1256 1.389 . S
C1258 C1259 1.524 . S
C1258 C1272 1.377 . S
C1259 C1258 1.524 . S
C1259 C1260 1.397 . S
C1259 C1264 1.363 . S
C1260 H1237 0.950 . S
C1260 C1259 1.397 . S
C1260 C1261 1.334 . S
C1261 H1238 0.950 . S
C1261 C1260 1.334 . S
C1261 C1262 1.287 . S
C1262 C1261 1.287 . S
C1262 C1263 1.524 . S
C1262 H1281 0.913 . S
C1263 H1239 0.950 . S
C1263 C1262 1.524 . S
C1263 C1264 1.415 . S
C1264 H1240 0.950 . S
C1264 C1259 1.363 . S
C1264 C1263 1.415 . S
C1265 H1241 0.951 . S
C1265 C1266 1.366 . S
C1265 C1267 1.388 . S
C1266 C1265 1.366 . S
C1266 C1270 1.385 . S
C1267 H1242 0.951 . S
C1267 C1265 1.388 . S
C1267 C1268 1.366 . S
C1268 C1267 1.366 . S
C1268 C1269 1.414 . S
C1268 C1271 1.499 . S
C1269 H1243 0.950 . S
C1269 C1268 1.414 . S
C1269 C1270 1.374 . S
C1270 H1244 0.950 . S
C1270 C1266 1.385 . S
C1270 C1269 1.374 . S
C1271 C1268 1.499 . S
C1271 C1272 1.373 . S
C1271 C1273 1.389 . S
C1272 H1245 0.950 . S
C1272 C1258 1.377 . S
C1272 C1271 1.373 . S
C1273 C1257 1.377 . S
C1273 C1271 1.389 . S
C1273 C1274 1.524 . S
C1274 C1273 1.524 . S
C1274 C1275 1.397 . S
C1274 C1279 1.363 . S
C1275 H1246 0.950 . S
C1275 C1274 1.397 . S
C1275 C1276 1.334 . S
C1276 H1247 0.950 . S
C1276 C1275 1.334 . S
C1276 C1277 1.287 . S
C1277 C1276 1.287 . S
C1277 C1278 1.524 . S
C1277 H1280 0.999 . S
C1278 H1248 0.950 . S
C1278 C1277 1.524 . S
C1278 C1279 1.415 . S
C1279 H1249 0.950 . S
C1279 C1274 1.363 . S
C1279 C1278 1.415 . S
H1280 C1277 0.999 . S
H1281 C1262 0.913 . S
H1282 C1300 0.951 . S
H1283 C1302 0.951 . S
H1284 C1304 0.950 . S
H1285 C1305 0.950 . S
H1286 C1307 0.950 . S
H1287 C1310 0.950 . S
H1288 C1311 0.950 . S
H1289 C1313 0.950 . S
H1290 C1314 0.950 . S
H1291 C1315 0.951 . S
H1292 C1317 0.951 . S
H1293 C1319 0.950 . S
H1294 C1320 0.950 . S
H1295 C1322 0.950 . S
H1296 C1325 0.950 . S
H1297 C1326 0.950 . S
H1298 C1328 0.950 . S
H1299 C1329 0.950 . S
C1300 H1282 0.951 . S
C1300 C1301 1.366 . S
C1300 C1302 1.388 . S
C1301 C1300 1.366 . S
C1301 C1305 1.385 . S
C1302 H1283 0.951 . S
C1302 C1300 1.388 . S
C1302 C1303 1.366 . S
C1303 C1302 1.366 . S
C1303 C1304 1.414 . S
C1303 C1306 1.499 . S
C1304 H1284 0.950 . S
C1304 C1303 1.414 . S
C1304 C1305 1.374 . S
C1305 H1285 0.950 . S
C1305 C1301 1.385 . S
C1305 C1304 1.374 . S
C1306 C1303 1.499 . S
C1306 C1307 1.373 . S
C1306 C1308 1.389 . S
C1307 H1286 0.950 . S
C1307 C1306 1.373 . S
C1307 C1323 1.377 . S
C1308 C1306 1.389 . S
C1308 C1309 1.524 . S
C1308 C1322 1.377 . S
C1309 C1308 1.524 . S
C1309 C1310 1.397 . S
C1309 C1314 1.363 . S
C1310 H1287 0.950 . S
C1310 C1309 1.397 . S
C1310 C1311 1.334 . S
C1311 H1288 0.950 . S
C1311 C1310 1.334 . S
C1311 C1312 1.287 . S
C1312 C1311 1.287 . S
C1312 C1313 1.524 . S
C1312 H1331 0.913 . S
C1313 H1289 0.950 . S
C1313 C1312 1.524 . S
C1313 C1314 1.415 . S
C1314 H1290 0.950 . S
C1314 C1309 1.363 . S
C1314 C1313 1.415 . S
C1315 H1291 0.951 . S
C1315 C1316 1.366 . S
C1315 C1317 1.388 . S
C1316 C1315 1.366 . S
C1316 C1320 1.385 . S
C1317 H1292 0.951 . S
C1317 C1315 1.388 . S
C1317 C1318 1.366 . S
C1318 C1317 1.366 . S
C1318 C1319 1.414 . S
C1318 C1321 1.499 . S
C1319 H1293 0.950 . S
C1319 C1318 1.414 . S
C1319 C1320 1.374 . S
C1320 H1294 0.950 . S
C1320 C1316 1.385 . S
C1320 C1319 1.374 . S
C1321 C1318 1.499 . S
C1321 C1322 1.373 . S
C1321 C1323 1.389 . S
C1322 H1295 0.950 . S
C1322 C1308 1.377 . S
C1322 C1321 1.373 . S
C1323 C1307 1.377 . S
C1323 C1321 1.389 . S
C1323 C1324 1.524 . S
C1324 C1323 1.524 . S
C1324 C1325 1.397 . S
C1324 C1329 1.363 . S
C1325 H1296 0.950 . S
C1325 C1324 1.397 . S
C1325 C1326 1.334 . S
C1326 H1297 0.950 . S
C1326 C1325 1.334 . S
C1326 C1327 1.287 . S
C1327 C1326 1.287 . S
C1327 C1328 1.524 . S
C1327 H1330 0.999 . S
C1328 H1298 0.950 . S
C1328 C1327 1.524 . S
C1328 C1329 1.415 . S
C1329 H1299 0.950 . S
C1329 C1324 1.363 . S
C1329 C1328 1.415 . S
H1330 C1327 0.999 . S
H1331 C1312 0.913 . S
H1332 C1350 0.951 . S
H1333 C1352 0.951 . S
H1334 C1354 0.950 . S
H1335 C1355 0.950 . S
H1336 C1357 0.950 . S
H1337 C1360 0.950 . S
H1338 C1361 0.950 . S
H1339 C1363 0.950 . S
H1340 C1364 0.950 . S
H1341 C1365 0.951 . S
H1342 C1367 0.951 . S
H1343 C1369 0.950 . S
H1344 C1370 0.950 . S
H1345 C1372 0.950 . S
H1346 C1375 0.950 . S
H1347 C1376 0.950 . S
H1348 C1378 0.950 . S
H1349 C1379 0.950 . S
C1350 H1332 0.951 . S
C1350 C1351 1.366 . S
C1350 C1352 1.388 . S
C1351 C1350 1.366 . S
C1351 C1355 1.385 . S
C1352 H1333 0.951 . S
C1352 C1350 1.388 . S
C1352 C1353 1.366 . S
C1353 C1352 1.366 . S
C1353 C1354 1.414 . S
C1353 C1356 1.499 . S
C1354 H1334 0.950 . S
C1354 C1353 1.414 . S
C1354 C1355 1.374 . S
C1355 H1335 0.950 . S
C1355 C1351 1.385 . S
C1355 C1354 1.374 . S
C1356 C1353 1.499 . S
C1356 C1357 1.373 . S
C1356 C1358 1.389 . S
C1357 H1336 0.950 . S
C1357 C1356 1.373 . S
C1357 C1373 1.377 . S
C1358 C1356 1.389 . S
C1358 C1359 1.524 . S
C1358 C1372 1.377 . S
C1359 C1358 1.524 . S
C1359 C1360 1.397 . S
C1359 C1364 1.363 . S
C1360 H1337 0.950 . S
C1360 C1359 1.397 . S
C1360 C1361 1.334 . S
C1361 H1338 0.950 . S
C1361 C1360 1.334 . S
C1361 C1362 1.287 . S
C1362 C1361 1.287 . S
C1362 C1363 1.524 . S
C1362 H1381 0.913 . S
C1363 H1339 0.950 . S
C1363 C1362 1.524 . S
C1363 C1364 1.415 . S
C1364 H1340 0.950 . S
C1364 C1359 1.363 . S
C1364 C1363 1.415 . S
C1365 H1341 0.951 . S
C1365 C1366 1.366 . S
C1365 C1367 1.388 . S
C1366 C1365 1.366 . S
C1366 C1370 1.385 . S
C1367 H1342 0.951 . S
C1367 C1365 1.388 . S
C1367 C1368 1.366 . S
C1368 C1367 1.366 . S
C1368 C1369 1.414 . S
C1368 C1371 1.499 . S
C1369 H1343 0.950 . S
C1369 C1368 1.414 . S
C1369 C1370 1.374 . S
C1370 H1344 0.950 . S
C1370 C1366 1.385 . S
C1370 C1369 1.374 . S
C1371 C1368 1.499 . S
C1371 C1372 1.373 . S
C1371 C1373 1.389 . S
C1372 H1345 0.950 . S
C1372 C1358 1.377 . S
C1372 C1371 1.373 . S
C1373 C1357 1.377 . S
C1373 C1371 1.389 . S
C1373 C1374 1.524 . S
C1374 C1373 1.524 . S
C1374 C1375 1.397 . S
C1374 C1379 1.363 . S
C1375 H1346 0.950 . S
C1375 C1374 1.397 . S
C1375 C1376 1.334 . S
C1376 H1347 0.950 . S
C1376 C1375 1.334 . S
C1376 C1377 1.287 . S
C1377 C1376 1.287 . S
C1377 C1378 1.524 . S
C1377 H1380 0.999 . S
C1378 H1348 0.950 . S
C1378 C1377 1.524 . S
C1378 C1379 1.415 . S
C1379 H1349 0.950 . S
C1379 C1374 1.363 . S
C1379 C1378 1.415 . S
H1380 C1377 0.999 . S
H1381 C1362 0.913 . S
H1382 C1400 0.951 . S
H1383 C1402 0.951 . S
H1384 C1404 0.950 . S
H1385 C1405 0.950 . S
H1386 C1407 0.950 . S
H1387 C1410 0.950 . S
H1388 C1411 0.950 . S
H1389 C1413 0.950 . S
H1390 C1414 0.950 . S
H1391 C1415 0.951 . S
H1392 C1417 0.951 . S
H1393 C1419 0.950 . S
H1394 C1420 0.950 . S
H1395 C1422 0.950 . S
H1396 C1425 0.950 . S
H1397 C1426 0.950 . S
H1398 C1428 0.950 . S
H1399 C1429 0.950 . S
C1400 H1382 0.951 . S
C1400 C1401 1.366 . S
C1400 C1402 1.388 . S
C1401 C1400 1.366 . S
C1401 C1405 1.385 . S
C1402 H1383 0.951 . S
C1402 C1400 1.388 . S
C1402 C1403 1.366 . S
C1403 C1402 1.366 . S
C1403 C1404 1.414 . S
C1403 C1406 1.499 . S
C1404 H1384 0.950 . S
C1404 C1403 1.414 . S
C1404 C1405 1.374 . S
C1405 H1385 0.950 . S
C1405 C1401 1.385 . S
C1405 C1404 1.374 . S
C1406 C1403 1.499 . S
C1406 C1407 1.373 . S
C1406 C1408 1.389 . S
C1407 H1386 0.950 . S
C1407 C1406 1.373 . S
C1407 C1423 1.377 . S
C1408 C1406 1.389 . S
C1408 C1409 1.524 . S
C1408 C1422 1.377 . S
C1409 C1408 1.524 . S
C1409 C1410 1.397 . S
C1409 C1414 1.363 . S
C1410 H1387 0.950 . S
C1410 C1409 1.397 . S
C1410 C1411 1.334 . S
C1411 H1388 0.950 . S
C1411 C1410 1.334 . S
C1411 C1412 1.287 . S
C1412 C1411 1.287 . S
C1412 C1413 1.524 . S
C1412 H1431 0.913 . S
C1413 H1389 0.950 . S
C1413 C1412 1.524 . S
C1413 C1414 1.415 . S
C1414 H1390 0.950 . S
C1414 C1409 1.363 . S
C1414 C1413 1.415 . S
C1415 H1391 0.951 . S
C1415 C1416 1.366 . S
C1415 C1417 1.388 . S
C1416 C1415 1.366 . S
C1416 C1420 1.385 . S
C1417 H1392 0.951 . S
C1417 C1415 1.388 . S
C1417 C1418 1.366 . S
C1418 C1417 1.366 . S
C1418 C1419 1.414 . S
C1418 C1421 1.499 . S
C1419 H1393 0.950 . S
C1419 C1418 1.414 . S
C1419 C1420 1.374 . S
C1420 H1394 0.950 . S
C1420 C1416 1.385 . S
C1420 C1419 1.374 . S
C1421 C1418 1.499 . S
C1421 C1422 1.373 . S
C1421 C1423 1.389 . S
C1422 H1395 0.950 . S
C1422 C1408 1.377 . S
C1422 C1421 1.373 . S
C1423 C1407 1.377 . S
C1423 C1421 1.389 . S
C1423 C1424 1.524 . S
C1424 C1423 1.524 . S
C1424 C1425 1.397 . S
C1424 C1429 1.363 . S
C1425 H1396 0.950 . S
C1425 C1424 1.397 . S
C1425 C1426 1.334 . S
C1426 H1397 0.950 . S
C1426 C1425 1.334 . S
C1426 C1427 1.287 . S
C1427 C1426 1.287 . S
C1427 C1428 1.524 . S
C1427 H1430 0.999 . S
C1428 H1398 0.950 . S
C1428 C1427 1.524 . S
C1428 C1429 1.415 . S
C1429 H1399 0.950 . S
C1429 C1424 1.363 . S
C1429 C1428 1.415 . S
H1430 C1427 0.999 . S
H1431 C1412 0.913 . S
H1432 C1450 0.951 . S
H1433 C1452 0.951 . S
H1434 C1454 0.950 . S
H1435 C1455 0.950 . S
H1436 C1457 0.950 . S
H1437 C1460 0.950 . S
H1438 C1461 0.950 . S
H1439 C1463 0.950 . S
H1440 C1464 0.950 . S
H1441 C1465 0.951 . S
H1442 C1467 0.951 . S
H1443 C1469 0.950 . S
H1444 C1470 0.950 . S
H1445 C1472 0.950 . S
H1446 C1475 0.950 . S
H1447 C1476 0.950 . S
H1448 C1478 0.950 . S
H1449 C1479 0.950 . S
C1450 H1432 0.951 . S
C1450 C1451 1.366 . S
C1450 C1452 1.388 . S
C1451 C1450 1.366 . S
C1451 C1455 1.385 . S
C1452 H1433 0.951 . S
C1452 C1450 1.388 . S
C1452 C1453 1.366 . S
C1453 C1452 1.366 . S
C1453 C1454 1.414 . S
C1453 C1456 1.499 . S
C1454 H1434 0.950 . S
C1454 C1453 1.414 . S
C1454 C1455 1.374 . S
C1455 H1435 0.950 . S
C1455 C1451 1.385 . S
C1455 C1454 1.374 . S
C1456 C1453 1.499 . S
C1456 C1457 1.373 . S
C1456 C1458 1.389 . S
C1457 H1436 0.950 . S
C1457 C1456 1.373 . S
C1457 C1473 1.377 . S
C1458 C1456 1.389 . S
C1458 C1459 1.524 . S
C1458 C1472 1.377 . S
C1459 C1458 1.524 . S
C1459 C1460 1.397 . S
C1459 C1464 1.363 . S
C1460 H1437 0.950 . S
C1460 C1459 1.397 . S
C1460 C1461 1.334 . S
C1461 H1438 0.950 . S
C1461 C1460 1.334 . S
C1461 C1462 1.287 . S
C1462 C1461 1.287 . S
C1462 C1463 1.524 . S
C1462 H1481 0.913 . S
C1463 H1439 0.950 . S
C1463 C1462 1.524 . S
C1463 C1464 1.415 . S
C1464 H1440 0.950 . S
C1464 C1459 1.363 . S
C1464 C1463 1.415 . S
C1465 H1441 0.951 . S
C1465 C1466 1.366 . S
C1465 C1467 1.388 . S
C1466 C1465 1.366 . S
C1466 C1470 1.385 . S
C1467 H1442 0.951 . S
C1467 C1465 1.388 . S
C1467 C1468 1.366 . S
C1468 C1467 1.366 . S
C1468 C1469 1.414 . S
C1468 C1471 1.499 . S
C1469 H1443 0.950 . S
C1469 C1468 1.414 . S
C1469 C1470 1.374 . S
C1470 H1444 0.950 . S
C1470 C1466 1.385 . S
C1470 C1469 1.374 . S
C1471 C1468 1.499 . S
C1471 C1472 1.373 . S
C1471 C1473 1.389 . S
C1472 H1445 0.950 . S
C1472 C1458 1.377 . S
C1472 C1471 1.373 . S
C1473 C1457 1.377 . S
C1473 C1471 1.389 . S
C1473 C1474 1.524 . S
C1474 C1473 1.524 . S
C1474 C1475 1.397 . S
C1474 C1479 1.363 . S
C1475 H1446 0.950 . S
C1475 C1474 1.397 . S
C1475 C1476 1.334 . S
C1476 H1447 0.950 . S
C1476 C1475 1.334 . S
C1476 C1477 1.287 . S
C1477 C1476 1.287 . S
C1477 C1478 1.524 . S
C1477 H1480 0.999 . S
C1478 H1448 0.950 . S
C1478 C1477 1.524 . S
C1478 C1479 1.415 . S
C1479 H1449 0.950 . S
C1479 C1474 1.363 . S
C1479 C1478 1.415 . S
H1480 C1477 0.999 . S
H1481 C1462 0.913 . S
H1482 C1500 0.951 . S
H1483 C1502 0.951 . S
H1484 C1504 0.950 . S
H1485 C1505 0.950 . S
H1486 C1507 0.950 . S
H1487 C1510 0.950 . S
H1488 C1511 0.950 . S
H1489 C1513 0.950 . S
H1490 C1514 0.950 . S
H1491 C1515 0.951 . S
H1492 C1517 0.951 . S
H1493 C1519 0.950 . S
H1494 C1520 0.950 . S
H1495 C1522 0.950 . S
H1496 C1525 0.950 . S
H1497 C1526 0.950 . S
H1498 C1528 0.950 . S
H1499 C1529 0.950 . S
C1500 H1482 0.951 . S
C1500 C1501 1.366 . S
C1500 C1502 1.388 . S
C1501 C1500 1.366 . S
C1501 C1505 1.385 . S
C1502 H1483 0.951 . S
C1502 C1500 1.388 . S
C1502 C1503 1.366 . S
C1503 C1502 1.366 . S
C1503 C1504 1.414 . S
C1503 C1506 1.499 . S
C1504 H1484 0.950 . S
C1504 C1503 1.414 . S
C1504 C1505 1.374 . S
C1505 H1485 0.950 . S
C1505 C1501 1.385 . S
C1505 C1504 1.374 . S
C1506 C1503 1.499 . S
C1506 C1507 1.373 . S
C1506 C1508 1.389 . S
C1507 H1486 0.950 . S
C1507 C1506 1.373 . S
C1507 C1523 1.377 . S
C1508 C1506 1.389 . S
C1508 C1509 1.524 . S
C1508 C1522 1.377 . S
C1509 C1508 1.524 . S
C1509 C1510 1.397 . S
C1509 C1514 1.363 . S
C1510 H1487 0.950 . S
C1510 C1509 1.397 . S
C1510 C1511 1.334 . S
C1511 H1488 0.950 . S
C1511 C1510 1.334 . S
C1511 C1512 1.287 . S
C1512 C1511 1.287 . S
C1512 C1513 1.524 . S
C1512 H1531 0.913 . S
C1513 H1489 0.950 . S
C1513 C1512 1.524 . S
C1513 C1514 1.415 . S
C1514 H1490 0.950 . S
C1514 C1509 1.363 . S
C1514 C1513 1.415 . S
C1515 H1491 0.951 . S
C1515 C1516 1.366 . S
C1515 C1517 1.388 . S
C1516 C1515 1.366 . S
C1516 C1520 1.385 . S
C1517 H1492 0.951 . S
C1517 C1515 1.388 . S
C1517 C1518 1.366 . S
C1518 C1517 1.366 . S
C1518 C1519 1.414 . S
C1518 C1521 1.499 . S
C1519 H1493 0.950 . S
C1519 C1518 1.414 . S
C1519 C1520 1.374 . S
C1520 H1494 0.950 . S
C1520 C1516 1.385 . S
C1520 C1519 1.374 . S
C1521 C1518 1.499 . S
C1521 C1522 1.373 . S
C1521 C1523 1.389 . S
C1522 H1495 0.950 . S
C1522 C1508 1.377 . S
C1522 C1521 1.373 . S
C1523 C1507 1.377 . S
C1523 C1521 1.389 . S
C1523 C1524 1.524 . S
C1524 C1523 1.524 . S
C1524 C1525 1.397 . S
C1524 C1529 1.363 . S
C1525 H1496 0.950 . S
C1525 C1524 1.397 . S
C1525 C1526 1.334 . S
C1526 H1497 0.950 . S
C1526 C1525 1.334 . S
C1526 C1527 1.287 . S
C1527 C1526 1.287 . S
C1527 C1528 1.524 . S
C1527 H1530 0.999 . S
C1528 H1498 0.950 . S
C1528 C1527 1.524 . S
C1528 C1529 1.415 . S
C1529 H1499 0.950 . S
C1529 C1524 1.363 . S
C1529 C1528 1.415 . S
H1530 C1527 0.999 . S
H1531 C1512 0.913 . S
H1532 C1550 0.951 . S
H1533 C1552 0.951 . S
H1534 C1554 0.950 . S
H1535 C1555 0.950 . S
H1536 C1557 0.950 . S
H1537 C1560 0.950 . S
H1538 C1561 0.950 . S
H1539 C1563 0.950 . S
H1540 C1564 0.950 . S
H1541 C1565 0.951 . S
H1542 C1567 0.951 . S
H1543 C1569 0.950 . S
H1544 C1570 0.950 . S
H1545 C1572 0.950 . S
H1546 C1575 0.950 . S
H1547 C1576 0.950 . S
H1548 C1578 0.950 . S
H1549 C1579 0.950 . S
C1550 H1532 0.951 . S
C1550 C1551 1.366 . S
C1550 C1552 1.388 . S
C1551 C1550 1.366 . S
C1551 C1555 1.385 . S
C1552 H1533 0.951 . S
C1552 C1550 1.388 . S
C1552 C1553 1.366 . S
C1553 C1552 1.366 . S
C1553 C1554 1.414 . S
C1553 C1556 1.499 . S
C1554 H1534 0.950 . S
C1554 C1553 1.414 . S
C1554 C1555 1.374 . S
C1555 H1535 0.950 . S
C1555 C1551 1.385 . S
C1555 C1554 1.374 . S
C1556 C1553 1.499 . S
C1556 C1557 1.373 . S
C1556 C1558 1.389 . S
C1557 H1536 0.950 . S
C1557 C1556 1.373 . S
C1557 C1573 1.377 . S
C1558 C1556 1.389 . S
C1558 C1559 1.524 . S
C1558 C1572 1.377 . S
C1559 C1558 1.524 . S
C1559 C1560 1.397 . S
C1559 C1564 1.363 . S
C1560 H1537 0.950 . S
C1560 C1559 1.397 . S
C1560 C1561 1.334 . S
C1561 H1538 0.950 . S
C1561 C1560 1.334 . S
C1561 C1562 1.287 . S
C1562 C1561 1.287 . S
C1562 C1563 1.524 . S
C1562 H1581 0.913 . S
C1563 H1539 0.950 . S
C1563 C1562 1.524 . S
C1563 C1564 1.415 . S
C1564 H1540 0.950 . S
C1564 C1559 1.363 . S
C1564 C1563 1.415 . S
C1565 H1541 0.951 . S
C1565 C1566 1.366 . S
C1565 C1567 1.388 . S
C1566 C1565 1.366 . S
C1566 C1570 1.385 . S
C1567 H1542 0.951 . S
C1567 C1565 1.388 . S
C1567 C1568 1.366 . S
C1568 C1567 1.366 . S
C1568 C1569 1.414 . S
C1568 C1571 1.499 . S
C1569 H1543 0.950 . S
C1569 C1568 1.414 . S
C1569 C1570 1.374 . S
C1570 H1544 0.950 . S
C1570 C1566 1.385 . S
C1570 C1569 1.374 . S
C1571 C1568 1.499 . S
C1571 C1572 1.373 . S
C1571 C1573 1.389 . S
C1572 H1545 0.950 . S
C1572 C1558 1.377 . S
C1572 C1571 1.373 . S
C1573 C1557 1.377 . S
C1573 C1571 1.389 . S
C1573 C1574 1.524 . S
C1574 C1573 1.524 . S
C1574 C1575 1.397 . S
C1574 C1579 1.363 . S
C1575 H1546 0.950 . S
C1575 C1574 1.397 . S
C1575 C1576 1.334 . S
C1576 H1547 0.950 . S
C1576 C1575 1.334 . S
C1576 C1577 1.287 . S
C1577 C1576 1.287 . S
C1577 C1578 1.524 . S
C1577 H1580 0.999 . S
C1578 H1548 0.950 . S
C1578 C1577 1.524 . S
C1578 C1579 1.415 . S
C1579 H1549 0.950 . S
C1579 C1574 1.363 . S
C1579 C1578 1.415 . S
H1580 C1577 0.999 . S
H1581 C1562 0.913 . S
H1582 C1600 0.951 . S
H1583 C1602 0.951 . S
H1584 C1604 0.950 . S
H1585 C1605 0.950 . S
H1586 C1607 0.950 . S
H1587 C1610 0.950 . S
H1588 C1611 0.950 . S
H1589 C1613 0.950 . S
H1590 C1614 0.950 . S
H1591 C1615 0.951 . S
H1592 C1617 0.951 . S
H1593 C1619 0.950 . S
H1594 C1620 0.950 . S
H1595 C1622 0.950 . S
H1596 C1625 0.950 . S
H1597 C1626 0.950 . S
H1598 C1628 0.950 . S
H1599 C1629 0.950 . S
C1600 H1582 0.951 . S
C1600 C1601 1.366 . S
C1600 C1602 1.388 . S
C1601 C1600 1.366 . S
C1601 C1605 1.385 . S
C1602 H1583 0.951 . S
C1602 C1600 1.388 . S
C1602 C1603 1.366 . S
C1603 C1602 1.366 . S
C1603 C1604 1.414 . S
C1603 C1606 1.499 . S
C1604 H1584 0.950 . S
C1604 C1603 1.414 . S
C1604 C1605 1.374 . S
C1605 H1585 0.950 . S
C1605 C1601 1.385 . S
C1605 C1604 1.374 . S
C1606 C1603 1.499 . S
C1606 C1607 1.373 . S
C1606 C1608 1.389 . S
C1607 H1586 0.950 . S
C1607 C1606 1.373 . S
C1607 C1623 1.377 . S
C1608 C1606 1.389 . S
C1608 C1609 1.524 . S
C1608 C1622 1.377 . S
C1609 C1608 1.524 . S
C1609 C1610 1.397 . S
C1609 C1614 1.363 . S
C1610 H1587 0.950 . S
C1610 C1609 1.397 . S
C1610 C1611 1.334 . S
C1611 H1588 0.950 . S
C1611 C1610 1.334 . S
C1611 C1612 1.287 . S
C1612 C1611 1.287 . S
C1612 C1613 1.524 . S
C1612 H1631 0.913 . S
C1613 H1589 0.950 . S
C1613 C1612 1.524 . S
C1613 C1614 1.415 . S
C1614 H1590 0.950 . S
C1614 C1609 1.363 . S
C1614 C1613 1.415 . S
C1615 H1591 0.951 . S
C1615 C1616 1.366 . S
C1615 C1617 1.388 . S
C1616 C1615 1.366 . S
C1616 C1620 1.385 . S
C1617 H1592 0.951 . S
C1617 C1615 1.388 . S
C1617 C1618 1.366 . S
C1618 C1617 1.366 . S
C1618 C1619 1.414 . S
C1618 C1621 1.499 . S
C1619 H1593 0.950 . S
C1619 C1618 1.414 . S
C1619 C1620 1.374 . S
C1620 H1594 0.950 . S
C1620 C1616 1.385 . S
C1620 C1619 1.374 . S
C1621 C1618 1.499 . S
C1621 C1622 1.373 . S
C1621 C1623 1.389 . S
C1622 H1595 0.950 . S
C1622 C1608 1.377 . S
C1622 C1621 1.373 . S
C1623 C1607 1.377 . S
C1623 C1621 1.389 . S
C1623 C1624 1.524 . S
C1624 C1623 1.524 . S
C1624 C1625 1.397 . S
C1624 C1629 1.363 . S
C1625 H1596 0.950 . S
C1625 C1624 1.397 . S
C1625 C1626 1.334 . S
C1626 H1597 0.950 . S
C1626 C1625 1.334 . S
C1626 C1627 1.287 . S
C1627 C1626 1.287 . S
C1627 C1628 1.524 . S
C1627 H1630 0.999 . S
C1628 H1598 0.950 . S
C1628 C1627 1.524 . S
C1628 C1629 1.415 . S
C1629 H1599 0.950 . S
C1629 C1624 1.363 . S
C1629 C1628 1.415 . S
H1630 C1627 0.999 . S
H1631 C1612 0.913 . S
C251 C10 2.386 . S
C266 C158 2.246 . S
C301 C39 2.386 . S
C316 C187 2.245 . S
C351 C216 2.245 . S
C366 C68 2.387 . S
C401 C129 2.246 . S
C416 C97 2.386 . S
C451 C126 2.387 . S
C466 C100 2.245 . S
C501 C155 2.386 . S
C516 C13 2.245 . S
C551 C184 2.387 . S
C566 C42 2.245 . S
C601 C213 2.387 . S
C616 C71 2.245 . S
C651 C108 0.509 . S
C666 C8 0.813 . S
C701 C21 0.511 . S
C716 C37 0.815 . S
C751 C50 0.508 . S
C766 C66 0.813 . S
C801 C95 0.814 . S
C816 C79 0.510 . S
C851 C124 0.815 . S
C866 C166 0.511 . S
C901 C153 0.816 . S
C916 C195 0.512 . S
C951 C182 0.814 . S
C966 C224 0.510 . S
C1001 C137 0.508 . S
C1016 C211 0.812 . S
C1051 C5 2.761 . S
C1066 C63 2.762 . S
C1101 C34 2.761 . S
C1116 C92 2.761 . S
C1151 C121 2.761 . S
C1166 C179 2.762 . S
C1201 C150 2.762 . S
C1216 C208 2.761 . S
C1251 C177 1.559 1_545 S
C1266 C15 1.548 . S
C1301 C44 1.548 . S
C1316 C206 1.559 1_455 S
C1351 C73 1.548 . S
C1366 C119 1.558 1_565 S
C1401 C148 1.559 1_655 S
C1416 C102 1.548 . S
C1451 C131 1.548 . S
C1466 C61 1.558 . S
C1501 C90 1.559 . S
C1516 C160 1.548 . S
C1551 C189 1.548 . S
C1566 C3 1.559 . S
C1601 C32 1.558 . S
C1616 C218 1.548 . S
