# Generated by pormake.
# Topology wiu, (6)-cn, num edge types: 1
# Building blocks:
#     Node 0, Type 0, BuildingBlock: JUFBIX_clean_sbu_0, # of connection points: 6
#     Node 1, Type 0, BuildingBlock: JUFBIX_clean_sbu_0, # of connection points: 6
#     Node 2, Type 0, BuildingBlock: JUFBIX_clean_sbu_0, # of connection points: 6
#     Node 3, Type 0, BuildingBlock: JUFBIX_clean_sbu_0, # of connection points: 6
#     Node 4, Type 0, BuildingBlock: JUFBIX_clean_sbu_0, # of connection points: 6
#     Node 5, Type 0, BuildingBlock: JUFBIX_clean_sbu_0, # of connection points: 6
#     Node 6, Type 0, BuildingBlock: JUFBIX_clean_sbu_0, # of connection points: 6
#     Node 7, Type 0, BuildingBlock: JUFBIX_clean_sbu_0, # of connection points: 6
#     Node 8, Type 0, BuildingBlock: JUFBIX_clean_sbu_0, # of connection points: 6
#     Node 9, Type 0, BuildingBlock: JUFBIX_clean_sbu_0, # of connection points: 6
#     Node 10, Type 0, BuildingBlock: JUFBIX_clean_sbu_0, # of connection points: 6
#     Node 11, Type 0, BuildingBlock: JUFBIX_clean_sbu_0, # of connection points: 6
#     Node 12, Type 0, BuildingBlock: JUFBIX_clean_sbu_0, # of connection points: 6
#     Node 13, Type 0, BuildingBlock: JUFBIX_clean_sbu_0, # of connection points: 6
#     Node 14, Type 0, BuildingBlock: JUFBIX_clean_sbu_0, # of connection points: 6
#     Node 15, Type 0, BuildingBlock: JUFBIX_clean_sbu_0, # of connection points: 6
#     Edge 16, Type (0, 0), BuildingBlock: ZUJKAS_clean_linker_0, # of connection points: 2
#     Edge 17, Type (0, 0), BuildingBlock: ZUJKAS_clean_linker_0, # of connection points: 2
#     Edge 18, Type (0, 0), BuildingBlock: ZUJKAS_clean_linker_0, # of connection points: 2
#     Edge 19, Type (0, 0), BuildingBlock: ZUJKAS_clean_linker_0, # of connection points: 2
#     Edge 20, Type (0, 0), BuildingBlock: ZUJKAS_clean_linker_0, # of connection points: 2
#     Edge 21, Type (0, 0), BuildingBlock: ZUJKAS_clean_linker_0, # of connection points: 2
#     Edge 22, Type (0, 0), BuildingBlock: ZUJKAS_clean_linker_0, # of connection points: 2
#     Edge 23, Type (0, 0), BuildingBlock: ZUJKAS_clean_linker_0, # of connection points: 2
#     Edge 24, Type (0, 0), BuildingBlock: ZUJKAS_clean_linker_0, # of connection points: 2
#     Edge 25, Type (0, 0), BuildingBlock: ZUJKAS_clean_linker_0, # of connection points: 2
#     Edge 26, Type (0, 0), BuildingBlock: ZUJKAS_clean_linker_0, # of connection points: 2
#     Edge 27, Type (0, 0), BuildingBlock: ZUJKAS_clean_linker_0, # of connection points: 2
#     Edge 28, Type (0, 0), BuildingBlock: ZUJKAS_clean_linker_0, # of connection points: 2
#     Edge 29, Type (0, 0), BuildingBlock: ZUJKAS_clean_linker_0, # of connection points: 2
#     Edge 30, Type (0, 0), BuildingBlock: ZUJKAS_clean_linker_0, # of connection points: 2
#     Edge 31, Type (0, 0), BuildingBlock: ZUJKAS_clean_linker_0, # of connection points: 2
#     Edge 32, Type (0, 0), BuildingBlock: ZUJKAS_clean_linker_0, # of connection points: 2
#     Edge 33, Type (0, 0), BuildingBlock: ZUJKAS_clean_linker_0, # of connection points: 2
#     Edge 34, Type (0, 0), BuildingBlock: ZUJKAS_clean_linker_0, # of connection points: 2
#     Edge 35, Type (0, 0), BuildingBlock: ZUJKAS_clean_linker_0, # of connection points: 2
#     Edge 36, Type (0, 0), BuildingBlock: ZUJKAS_clean_linker_0, # of connection points: 2
#     Edge 37, Type (0, 0), BuildingBlock: ZUJKAS_clean_linker_0, # of connection points: 2
#     Edge 38, Type (0, 0), BuildingBlock: ZUJKAS_clean_linker_0, # of connection points: 2
#     Edge 39, Type (0, 0), BuildingBlock: ZUJKAS_clean_linker_0, # of connection points: 2
#     Edge 40, Type (0, 0), BuildingBlock: ZUJKAS_clean_linker_0, # of connection points: 2
#     Edge 41, Type (0, 0), BuildingBlock: ZUJKAS_clean_linker_0, # of connection points: 2
#     Edge 42, Type (0, 0), BuildingBlock: ZUJKAS_clean_linker_0, # of connection points: 2
#     Edge 43, Type (0, 0), BuildingBlock: ZUJKAS_clean_linker_0, # of connection points: 2
#     Edge 44, Type (0, 0), BuildingBlock: ZUJKAS_clean_linker_0, # of connection points: 2
#     Edge 45, Type (0, 0), BuildingBlock: ZUJKAS_clean_linker_0, # of connection points: 2
#     Edge 46, Type (0, 0), BuildingBlock: ZUJKAS_clean_linker_0, # of connection points: 2
#     Edge 47, Type (0, 0), BuildingBlock: ZUJKAS_clean_linker_0, # of connection points: 2
#     Edge 48, Type (0, 0), BuildingBlock: ZUJKAS_clean_linker_0, # of connection points: 2
#     Edge 49, Type (0, 0), BuildingBlock: ZUJKAS_clean_linker_0, # of connection points: 2
#     Edge 50, Type (0, 0), BuildingBlock: ZUJKAS_clean_linker_0, # of connection points: 2
#     Edge 51, Type (0, 0), BuildingBlock: ZUJKAS_clean_linker_0, # of connection points: 2
#     Edge 52, Type (0, 0), BuildingBlock: ZUJKAS_clean_linker_0, # of connection points: 2
#     Edge 53, Type (0, 0), BuildingBlock: ZUJKAS_clean_linker_0, # of connection points: 2
#     Edge 54, Type (0, 0), BuildingBlock: ZUJKAS_clean_linker_0, # of connection points: 2
#     Edge 55, Type (0, 0), BuildingBlock: ZUJKAS_clean_linker_0, # of connection points: 2
#     Edge 56, Type (0, 0), BuildingBlock: ZUJKAS_clean_linker_0, # of connection points: 2
#     Edge 57, Type (0, 0), BuildingBlock: ZUJKAS_clean_linker_0, # of connection points: 2
#     Edge 58, Type (0, 0), BuildingBlock: ZUJKAS_clean_linker_0, # of connection points: 2
#     Edge 59, Type (0, 0), BuildingBlock: ZUJKAS_clean_linker_0, # of connection points: 2
#     Edge 60, Type (0, 0), BuildingBlock: ZUJKAS_clean_linker_0, # of connection points: 2
#     Edge 61, Type (0, 0), BuildingBlock: ZUJKAS_clean_linker_0, # of connection points: 2
#     Edge 62, Type (0, 0), BuildingBlock: ZUJKAS_clean_linker_0, # of connection points: 2
#     Edge 63, Type (0, 0), BuildingBlock: ZUJKAS_clean_linker_0, # of connection points: 2
# Relax obj value: 0.337
# Max RMSD: 0.258
# Mean RMSD: 0.248
data_MOF--net-wiu--node1-JUFBIX_clean_sbu_0--edge1-ZUJKAS_clean_linker_0
_symmetry_space_group_name_H-M    P1
_symmetry_Int_Tables_number       1
_symmetry_cell_setting            triclinic
loop_
_symmetry_equiv_pos_as_xyz
'x, y, z'
_cell_length_a     37.199847
_cell_length_b     37.905872
_cell_length_c     83.637557
_cell_angle_alpha  94.236092
_cell_angle_beta   85.400463
_cell_angle_gamma 93.972982
loop_
_atom_site_label
_atom_site_type_symbol
_atom_site_fract_x
_atom_site_fract_y
_atom_site_fract_z
_atom_type_partial_charge
Co0 Co 0.32005 0.14131 0.06154 0.0
C1 C 0.28576 0.09908 0.08573 0.0
Co2 Co 0.35339 0.13419 0.08137 0.0
C3 C 0.29912 0.14993 0.02965 0.0
C4 C 0.254 0.14809 0.04721 0.0
N5 N 0.29012 0.1459 0.04538 0.0
N6 N 0.27004 0.15484 0.02158 0.0
C7 C 0.24158 0.15346 0.03262 0.0
H8 H 0.32665 0.15035 0.02436 0.0
H9 H 0.23779 0.14652 0.05849 0.0
C10 C 0.38602 0.17631 0.05762 0.0
N11 N 0.38355 0.13047 0.09756 0.0
C12 C 0.38566 0.10319 0.10684 0.0
C13 C 0.40871 0.15522 0.10257 0.0
N14 N 0.41116 0.1099 0.11752 0.0
C15 C 0.42578 0.14267 0.11472 0.0
C16 C 0.36764 0.08608 0.05495 0.0
O17 O 0.3558 0.17222 0.05153 0.0
O18 O 0.39001 0.16208 0.07055 0.0
O19 O 0.37338 0.09325 0.06971 0.0
O20 O 0.34276 0.10186 0.0492 0.0
O21 O 0.31535 0.10589 0.09234 0.0
H22 H 0.41414 0.18097 0.0978 0.0
H23 H 0.36813 0.07928 0.10595 0.0
O24 O 0.28329 0.11002 0.07185 0.0
O25 O 0.29961 0.18185 0.07356 0.0
O26 O 0.33519 0.17609 0.09264 0.0
C27 C 0.31169 0.19342 0.08692 0.0
H28 H 0.21369 0.15616 0.03038 0.0
H29 H 0.44714 0.15698 0.12102 0.0
Co30 Co 0.63101 0.56746 0.30492 0.0
C31 C 0.67619 0.54536 0.32714 0.0
Co32 Co 0.63864 0.60579 0.32554 0.0
C33 C 0.62981 0.53534 0.27237 0.0
C34 C 0.61312 0.49894 0.29031 0.0
N35 N 0.62433 0.53306 0.28841 0.0
N36 N 0.62252 0.50389 0.26417 0.0
C37 C 0.61182 0.48104 0.27549 0.0
H38 H 0.63979 0.55945 0.2669 0.0
H39 H 0.60667 0.4876 0.30176 0.0
C40 C 0.59278 0.62551 0.30354 0.0
N41 N 0.6455 0.63981 0.34212 0.0
C42 C 0.65428 0.63452 0.35702 0.0
C43 C 0.64655 0.67536 0.34154 0.0
N44 N 0.66133 0.66525 0.36568 0.0
C45 C 0.65615 0.69111 0.35607 0.0
C46 C 0.68629 0.62028 0.29851 0.0
O47 O 0.59912 0.59578 0.29631 0.0
O48 O 0.60715 0.6348 0.3166 0.0
O49 O 0.67832 0.6285 0.31332 0.0
O50 O 0.67075 0.59206 0.29218 0.0
O51 O 0.67001 0.57522 0.33444 0.0
H52 H 0.64211 0.68898 0.33102 0.0
H53 H 0.65626 0.60857 0.36135 0.0
O54 O 0.66331 0.53778 0.3136 0.0
O55 O 0.59022 0.54537 0.31769 0.0
O56 O 0.5983 0.58464 0.33776 0.0
C57 C 0.58006 0.55805 0.33175 0.0
H58 H 0.60363 0.45327 0.27331 0.0
H59 H 0.66071 0.71926 0.35906 0.0
Co60 Co 0.26363 0.88018 0.57476 0.0
C61 C 0.20156 0.86559 0.56077 0.0
Co62 Co 0.24179 0.93044 0.56807 0.0
C63 C 0.27696 0.81585 0.59129 0.0
C64 C 0.32025 0.83269 0.57464 0.0
N65 N 0.28688 0.84078 0.58061 0.0
N66 N 0.30296 0.79264 0.59217 0.0
C67 C 0.33 0.80339 0.58153 0.0
H68 H 0.25147 0.81527 0.5985 0.0
H69 H 0.33687 0.84745 0.5659 0.0
C70 C 0.30628 0.94418 0.58173 0.0
N71 N 0.21647 0.96839 0.56145 0.0
C72 C 0.19455 0.96631 0.54905 0.0
C73 C 0.20983 0.9998 0.56937 0.0
N74 N 0.17391 0.99452 0.54911 0.0
C75 C 0.18401 1.01583 0.56186 0.0
C76 C 0.2202 0.91219 0.5992 0.0
O77 O 0.30264 0.91051 0.58164 0.0
O78 O 0.28154 0.96098 0.57632 0.0
O79 O 0.21669 0.93395 0.58862 0.0
O80 O 0.23979 0.886 0.5957 0.0
O81 O 0.20446 0.89902 0.56021 0.0
H82 H 0.22129 1.00945 0.58048 0.0
H83 H 0.19286 0.94375 0.54042 0.0
O84 O 0.22464 0.85025 0.5677 0.0
O85 O 0.28684 0.87579 0.55345 0.0
O86 O 0.26709 0.92644 0.54782 0.0
C87 C 0.28503 0.89954 0.54358 0.0
H88 H 0.3553 0.79107 0.57875 0.0
H89 H 0.1721 0.04038 0.5661 0.0
Co90 Co 0.87132 0.46627 0.81744 0.0
C91 C 0.82132 0.50041 0.83927 0.0
Co92 Co 0.8478 0.43304 0.83639 0.0
C93 C 0.89479 0.4897 0.78618 0.0
C94 C 0.90491 0.52942 0.80513 0.0
N95 N 0.89082 0.496 0.80225 0.0
N96 N 0.91093 0.51785 0.77894 0.0
C97 C 0.9174 0.5429 0.7908 0.0
H98 H 0.88606 0.46493 0.77993 0.0
H99 H 0.90568 0.54324 0.8169 0.0
C100 C 0.89773 0.40095 0.81439 0.0
N101 N 0.82896 0.40334 0.85186 0.0
C102 C 0.82909 0.40963 0.86791 0.0
C103 C 0.81629 0.36926 0.84963 0.0
N104 N 0.81758 0.38071 0.87582 0.0
C105 C 0.80934 0.35523 0.86436 0.0
C106 C 0.81297 0.42105 0.80784 0.0
O107 O 0.90108 0.43106 0.80863 0.0
O108 O 0.87656 0.39632 0.82687 0.0
O109 O 0.81064 0.41481 0.82266 0.0
O110 O 0.83534 0.44599 0.80322 0.0
O111 O 0.81887 0.47113 0.84601 0.0
H112 H 0.81374 0.35509 0.83802 0.0
H113 H 0.83941 0.4344 0.87364 0.0
O114 O 0.84112 0.50261 0.82624 0.0
O115 O 0.90835 0.48428 0.83127 0.0
O116 O 0.88607 0.44954 0.84974 0.0
C117 C 0.91047 0.47223 0.84491 0.0
H118 H 0.92919 0.56944 0.78918 0.0
H119 H 0.79981 0.3282 0.86644 0.0
Co120 Co 0.67895 0.89888 0.9216 0.0
C121 C 0.6471 0.8567 0.94554 0.0
Co122 Co 0.7125 0.89229 0.94138 0.0
C123 C 0.64595 0.93012 0.89646 0.0
C124 C 0.62351 0.87772 0.90043 0.0
N125 N 0.64836 0.90265 0.90559 0.0
N126 N 0.62066 0.92329 0.88573 0.0
C127 C 0.60639 0.89032 0.88829 0.0
H128 H 0.66327 0.9542 0.89737 0.0
H129 H 0.61844 0.85178 0.90505 0.0
C130 C 0.74609 0.93476 0.91721 0.0
N131 N 0.74324 0.88764 0.95714 0.0
C132 C 0.73597 0.88684 0.97316 0.0
C133 C 0.77869 0.88194 0.95453 0.0
N134 N 0.76548 0.88049 0.98061 0.0
C135 C 0.79242 0.8775 0.96893 0.0
C136 C 0.72088 0.84015 0.91584 0.0
O137 O 0.71659 0.92769 0.91055 0.0
O138 O 0.74869 0.92363 0.93103 0.0
O139 O 0.73273 0.85185 0.92921 0.0
O140 O 0.69727 0.85725 0.91008 0.0
O141 O 0.67734 0.86137 0.9516 0.0
H142 H 0.79347 0.88057 0.94285 0.0
H143 H 0.70936 0.88985 0.97916 0.0
O144 O 0.64281 0.87051 0.93252 0.0
O145 O 0.65881 0.93957 0.93348 0.0
O146 O 0.69 0.93159 0.95389 0.0
C147 C 0.6648 0.94701 0.94819 0.0
H148 H 0.58533 0.87602 0.88178 0.0
H149 H 0.82011 0.8726 0.97068 0.0
Co150 Co 0.3956 0.43012 0.68116 0.0
C151 C 0.44207 0.40871 0.70229 0.0
Co152 Co 0.40541 0.46846 0.70157 0.0
C153 C 0.37684 0.40303 0.64989 0.0
C154 C 0.3845 0.36112 0.6648 0.0
N155 N 0.38659 0.39678 0.66452 0.0
N156 N 0.36815 0.37285 0.64113 0.0
C157 C 0.37329 0.3463 0.65036 0.0
H158 H 0.37531 0.42929 0.64583 0.0
H159 H 0.38929 0.34684 0.67508 0.0
C160 C 0.35972 0.49227 0.68024 0.0
N161 N 0.41432 0.50199 0.71821 0.0
C162 C 0.4085 0.49896 0.73419 0.0
C163 C 0.42845 0.53547 0.71673 0.0
N164 N 0.41871 0.52913 0.74268 0.0
C165 C 0.43138 0.55214 0.73176 0.0
C166 C 0.4551 0.4764 0.67434 0.0
O167 O 0.36505 0.46239 0.67278 0.0
O168 O 0.37322 0.49932 0.69368 0.0
O169 O 0.44566 0.48994 0.68833 0.0
O170 O 0.43618 0.44989 0.66868 0.0
O171 O 0.43733 0.43888 0.70942 0.0
H172 H 0.43573 0.54728 0.70544 0.0
H173 H 0.39712 0.47511 0.73953 0.0
O174 O 0.42626 0.39955 0.68958 0.0
O175 O 0.35573 0.40863 0.69369 0.0
O176 O 0.36607 0.4445 0.71472 0.0
C177 C 0.34919 0.41685 0.7086 0.0
H178 H 0.3676 0.31836 0.64722 0.0
H179 H 0.44096 0.57939 0.73447 0.0
Co180 Co 0.79712 0.10669 0.43853 0.0
C181 C 0.73671 0.0921 0.42183 0.0
Co182 Co 0.77574 0.15676 0.43131 0.0
C183 C 0.85635 0.07117 0.45055 0.0
C184 C 0.80818 0.0371 0.45051 0.0
N185 N 0.82187 0.06895 0.44589 0.0
N186 N 0.86447 0.04261 0.45814 0.0
C187 C 0.83411 0.02093 0.45791 0.0
H188 H 0.87508 0.09393 0.44886 0.0
H189 H 0.78049 0.02708 0.44941 0.0
C190 C 0.834 0.17202 0.44804 0.0
N191 N 0.75322 0.19612 0.42495 0.0
C192 C 0.76532 0.22233 0.41522 0.0
C193 C 0.71918 0.20407 0.43003 0.0
N194 N 0.74027 0.24638 0.41437 0.0
C195 C 0.71135 0.23484 0.42371 0.0
C196 C 0.74869 0.13511 0.46155 0.0
O197 O 0.83136 0.13857 0.44828 0.0
O198 O 0.81233 0.18726 0.44027 0.0
O199 O 0.74828 0.15929 0.45177 0.0
O200 O 0.76787 0.10887 0.45781 0.0
O201 O 0.73925 0.12586 0.42236 0.0
H202 H 0.701 0.18846 0.43788 0.0
H203 H 0.79212 0.22412 0.40913 0.0
O204 O 0.76012 0.07575 0.42842 0.0
O205 O 0.82626 0.10496 0.41891 0.0
O206 O 0.80374 0.15278 0.41132 0.0
C207 C 0.82435 0.12721 0.40836 0.0
H208 H 0.83007 0.99595 0.46348 0.0
H209 H 0.68607 0.24761 0.42568 0.0
Co210 Co 0.19073 0.60015 0.16861 0.0
C211 C 0.14011 0.63141 0.19054 0.0
Co212 Co 0.16789 0.56684 0.18764 0.0
C213 C 0.20876 0.62399 0.13713 0.0
C214 C 0.22108 0.6644 0.15547 0.0
N215 N 0.20902 0.63014 0.15317 0.0
N216 N 0.21957 0.65315 0.12928 0.0
C217 C 0.22751 0.67866 0.14077 0.0
H218 H 0.19875 0.59913 0.13137 0.0
H219 H 0.22346 0.67852 0.16709 0.0
C220 C 0.21811 0.53328 0.16565 0.0
N221 N 0.14895 0.53682 0.2028 0.0
C222 C 0.14467 0.54306 0.21887 0.0
C223 C 0.1354 0.50323 0.19986 0.0
N224 N 0.1288 0.5147 0.22604 0.0
C225 C 0.12288 0.48958 0.21415 0.0
C226 C 0.12856 0.56017 0.16015 0.0
O227 O 0.22022 0.56259 0.15894 0.0
O228 O 0.19859 0.53091 0.17875 0.0
O229 O 0.13089 0.5483 0.17382 0.0
O230 O 0.15271 0.58304 0.15527 0.0
O231 O 0.13756 0.60151 0.19648 0.0
H232 H 0.13494 0.48944 0.18807 0.0
H233 H 0.15289 0.56794 0.22516 0.0
O234 O 0.16125 0.63626 0.17809 0.0
O235 O 0.22771 0.61899 0.18232 0.0
O236 O 0.20378 0.5877 0.20186 0.0
C237 C 0.22578 0.61286 0.19714 0.0
H238 H 0.23638 0.70587 0.13874 0.0
H239 H 0.11139 0.46292 0.21572 0.0
Co240 Co 0.82089 0.64451 0.56205 0.0
C241 C 0.78817 0.59878 0.58527 0.0
Co242 Co 0.85426 0.63621 0.5817 0.0
C243 C 0.79422 0.65421 0.53116 0.0
C244 C 0.75393 0.65874 0.55087 0.0
N245 N 0.78881 0.65173 0.54718 0.0
N246 N 0.7641 0.66298 0.52481 0.0
C247 C 0.73871 0.66574 0.53716 0.0
H248 H 0.81996 0.65084 0.5244 0.0
H249 H 0.74061 0.65948 0.56286 0.0
C250 C 0.88424 0.68327 0.55914 0.0
N251 N 0.88647 0.62938 0.59658 0.0
C252 C 0.87973 0.62104 0.61194 0.0
C253 C 0.92271 0.62955 0.5938 0.0
N254 N 0.91034 0.61583 0.61886 0.0
C255 C 0.93745 0.62138 0.60747 0.0
C256 C 0.86832 0.59114 0.55351 0.0
O257 O 0.85537 0.6762 0.5522 0.0
O258 O 0.88856 0.66891 0.57202 0.0
O259 O 0.87515 0.59856 0.56809 0.0
O260 O 0.84228 0.60611 0.54824 0.0
O261 O 0.81824 0.60366 0.59164 0.0
H262 H 0.9375 0.6345 0.58243 0.0
H263 H 0.85276 0.61765 0.61772 0.0
O264 O 0.78507 0.61265 0.5721 0.0
O265 O 0.80193 0.684 0.5756 0.0
O266 O 0.83507 0.6747 0.59512 0.0
C267 C 0.81242 0.69325 0.58952 0.0
H268 H 0.7111 0.67233 0.5363 0.0
H269 H 0.96592 0.61943 0.60881 0.0
Co270 Co 0.13427 0.0711 0.80642 0.0
C271 C 0.17756 0.04787 0.82924 0.0
Co272 Co 0.14109 0.10863 0.82746 0.0
C273 C 0.13373 0.04109 0.77342 0.0
C274 C 0.12139 1.00262 0.79087 0.0
N275 N 0.12947 0.03751 0.78941 0.0
N276 N 0.12857 1.0097 0.76485 0.0
C277 C 0.1208 0.98551 0.77585 0.0
H278 H 0.14051 0.06622 0.76821 0.0
H279 H 0.11686 0.99028 0.80218 0.0
C280 C 0.0973 0.1297 0.80474 0.0
N281 N 0.14576 0.14169 0.84472 0.0
C282 C 0.17309 0.14619 0.85448 0.0
C283 C 0.1219 0.16534 0.85076 0.0
N284 N 0.16717 0.17138 0.86651 0.0
C285 C 0.13498 0.18363 0.86411 0.0
C286 C 0.19035 0.12423 0.80135 0.0
O287 O 0.10311 0.09981 0.79755 0.0
O288 O 0.11122 0.13849 0.81796 0.0
O289 O 0.18201 0.13186 0.81621 0.0
O290 O 0.17477 0.09645 0.79466 0.0
O291 O 0.1709 0.07733 0.83679 0.0
H292 H 0.09616 0.16849 0.84604 0.0
H293 H 0.19622 0.13017 0.85316 0.0
O294 O 0.16579 0.04116 0.81542 0.0
O295 O 0.09275 0.04812 0.81816 0.0
O296 O 0.09945 0.08674 0.83861 0.0
C297 C 0.0817 0.0603 0.83218 0.0
H298 H 0.11614 0.95724 0.77328 0.0
H299 H 0.12132 0.20381 0.87163 0.0
Co300 Co 0.76132 0.38064 0.07486 0.0
C301 C 0.69926 0.36652 0.06063 0.0
Co302 Co 0.74011 0.43089 0.0679 0.0
C303 C 0.77194 0.31433 0.09034 0.0
C304 C 0.81862 0.33492 0.07656 0.0
N305 N 0.78387 0.34118 0.08095 0.0
N306 N 0.79795 0.29152 0.0918 0.0
C307 C 0.82727 0.30475 0.08312 0.0
H308 H 0.74473 0.31157 0.09593 0.0
H309 H 0.83685 0.35162 0.06921 0.0
C310 C 0.80438 0.44441 0.08179 0.0
N311 N 0.71546 0.46909 0.06118 0.0
C312 C 0.69361 0.46738 0.04878 0.0
C313 C 0.70867 0.5002 0.06934 0.0
N314 N 0.67274 0.4955 0.04908 0.0
C315 C 0.68274 0.51638 0.06199 0.0
C316 C 0.71744 0.41281 0.09893 0.0
O317 O 0.80037 0.4108 0.08196 0.0
O318 O 0.77995 0.46117 0.07614 0.0
O319 O 0.71456 0.43479 0.08838 0.0
O320 O 0.73699 0.38659 0.09555 0.0
O321 O 0.70254 0.39991 0.06 0.0
H322 H 0.71991 0.50939 0.08055 0.0
H323 H 0.69198 0.44499 0.04005 0.0
O324 O 0.7222 0.351 0.06758 0.0
O325 O 0.7852 0.3758 0.05385 0.0
O326 O 0.76584 0.42628 0.04769 0.0
C327 C 0.78382 0.39921 0.04379 0.0
H328 H 0.85361 0.29397 0.08189 0.0
H329 H 0.67062 0.54064 0.0665 0.0
Co330 Co 0.37381 0.96797 0.31416 0.0
C331 C 0.32427 1.00183 0.33622 0.0
Co332 Co 0.35299 0.93531 0.33382 0.0
C333 C 0.39516 0.98513 0.28199 0.0
C334 C 0.39918 0.03088 0.2985 0.0
N335 N 0.39018 0.9958 0.29768 0.0
N336 N 0.40678 1.01214 0.27286 0.0
C337 C 0.40934 0.04104 0.28325 0.0
H338 H 0.39033 0.95791 0.27742 0.0
H339 H 0.39795 0.048 0.30944 0.0
C340 C 0.40276 0.90362 0.3118 0.0
N341 N 0.33695 0.90676 0.35024 0.0
C342 C 0.33895 0.91415 0.36617 0.0
C343 C 0.32423 0.87258 0.34874 0.0
N344 N 0.32842 0.88584 0.37468 0.0
C345 C 0.31895 0.85965 0.36374 0.0
C346 C 0.31581 0.91947 0.30625 0.0
O347 O 0.40443 0.93321 0.30564 0.0
O348 O 0.38243 0.899 0.32452 0.0
O349 O 0.31495 0.9143 0.32115 0.0
O350 O 0.33703 0.94465 0.30101 0.0
O351 O 0.32347 0.97301 0.34327 0.0
H352 H 0.32023 0.85764 0.33742 0.0
H353 H 0.34957 0.93938 0.37134 0.0
O354 O 0.34275 1.00385 0.32282 0.0
O355 O 0.41174 0.9892 0.32697 0.0
O356 O 0.39209 0.95465 0.34602 0.0
C357 C 0.41531 0.97795 0.3407 0.0
H358 H 0.41703 0.06783 0.28008 0.0
H359 H 0.30941 0.8329 0.36633 0.0
Co360 Co 0.18131 0.39513 0.42332 0.0
C361 C 0.15203 0.3488 0.44621 0.0
Co362 Co 0.2151 0.38861 0.44303 0.0
C363 C 0.15634 0.40898 0.39281 0.0
C364 C 0.11298 0.3996 0.41068 0.0
N365 N 0.14931 0.40059 0.40815 0.0
N366 N 0.12584 0.41349 0.38568 0.0
C367 C 0.09848 0.40737 0.39689 0.0
H368 H 0.1834 0.41307 0.38722 0.0
H369 H 0.09794 0.39453 0.42198 0.0
C370 C 0.24705 0.43381 0.41954 0.0
N371 N 0.24669 0.38297 0.45828 0.0
C372 C 0.24005 0.38152 0.4743 0.0
C373 C 0.28205 0.37721 0.45532 0.0
N374 N 0.26987 0.37474 0.48142 0.0
C375 C 0.29637 0.3721 0.46952 0.0
C376 C 0.2246 0.33879 0.41611 0.0
O377 O 0.21711 0.42754 0.41315 0.0
O378 O 0.25051 0.42091 0.4329 0.0
O379 O 0.23532 0.34905 0.4299 0.0
O380 O 0.20127 0.35639 0.41042 0.0
O381 O 0.181 0.35658 0.45299 0.0
H382 H 0.29638 0.37634 0.44353 0.0
H383 H 0.21366 0.38442 0.48054 0.0
O384 O 0.14725 0.36254 0.43323 0.0
O385 O 0.15961 0.4331 0.43643 0.0
O386 O 0.19255 0.427 0.45641 0.0
C387 C 0.16628 0.44126 0.45097 0.0
H388 H 0.07003 0.40881 0.39536 0.0
H389 H 0.32417 0.36708 0.471 0.0
Co390 Co 0.89267 0.93259 0.1806 0.0
C391 C 0.94005 0.90985 0.20127 0.0
Co392 Co 0.90248 0.96884 0.20176 0.0
C393 C 0.87392 0.90747 0.14906 0.0
C394 C 0.88296 0.86459 0.16319 0.0
N395 N 0.88421 0.90031 0.16349 0.0
N396 N 0.86566 0.87779 0.13988 0.0
C397 C 0.87167 0.85064 0.14862 0.0
H398 H 0.87166 0.93403 0.14548 0.0
H399 H 0.88834 0.84963 0.17316 0.0
C400 C 0.85585 0.99386 0.18081 0.0
N401 N 0.91063 1.00164 0.21877 0.0
C402 C 0.9079 0.99763 0.23474 0.0
C403 C 0.91986 0.03636 0.21738 0.0
N404 N 0.91509 0.02858 0.24336 0.0
C405 C 0.92264 0.05294 0.23241 0.0
C406 C 0.95158 0.98026 0.17452 0.0
O407 O 0.86048 0.96419 0.17307 0.0
O408 O 0.87036 1.00025 0.19405 0.0
O409 O 0.94307 0.99121 0.18904 0.0
O410 O 0.93209 0.95498 0.16816 0.0
O411 O 0.93418 0.9388 0.20931 0.0
H412 H 0.92356 0.04901 0.20614 0.0
H413 H 0.9006 0.97253 0.23989 0.0
O414 O 0.925 0.90234 0.18821 0.0
O415 O 0.85396 0.90882 0.19305 0.0
O416 O 0.86294 0.944 0.21446 0.0
C417 C 0.84687 0.91623 0.208 0.0
H418 H 0.86649 0.82282 0.14507 0.0
H419 H 0.92847 0.08103 0.23506 0.0
Co420 Co 0.29655 0.60564 0.93798 0.0
C421 C 0.23311 0.59061 0.92356 0.0
Co422 Co 0.27411 0.65531 0.93103 0.0
C423 C 0.34418 0.57006 0.95699 0.0
C424 C 0.32897 0.53687 0.93657 0.0
N425 N 0.32207 0.568 0.94468 0.0
N426 N 0.36526 0.5421 0.95669 0.0
C427 C 0.35519 0.52099 0.94387 0.0
H428 H 0.3458 0.59252 0.96568 0.0
H429 H 0.31753 0.52742 0.92543 0.0
C430 C 0.33511 0.67093 0.94588 0.0
N431 N 0.25059 0.69409 0.92492 0.0
C432 C 0.26196 0.72104 0.9155 0.0
C433 C 0.21534 0.69899 0.92885 0.0
N434 N 0.23495 0.74217 0.91334 0.0
C435 C 0.20574 0.72823 0.92184 0.0
C436 C 0.25102 0.6356 0.96184 0.0
O437 O 0.33277 0.6375 0.94638 0.0
O438 O 0.31215 0.68589 0.93869 0.0
O439 O 0.24946 0.65914 0.95187 0.0
O440 O 0.26983 0.60907 0.958 0.0
O441 O 0.23617 0.62426 0.92359 0.0
H442 H 0.19744 0.68193 0.93618 0.0
H443 H 0.28918 0.72445 0.90997 0.0
O444 O 0.2579 0.57443 0.92925 0.0
O445 O 0.32313 0.60299 0.91768 0.0
O446 O 0.29913 0.65036 0.91049 0.0
C447 C 0.31976 0.62497 0.90719 0.0
H448 H 0.36738 0.49675 0.93939 0.0
H449 H 0.17914 0.73846 0.92295 0.0
Co450 Co 0.68989 0.09919 0.67088 0.0
C451 C 0.64075 0.13292 0.69243 0.0
Co452 Co 0.66713 0.06734 0.69055 0.0
C453 C 0.70535 0.11954 0.63845 0.0
C454 C 0.72134 0.16082 0.65579 0.0
N455 N 0.70758 0.12696 0.65438 0.0
N456 N 0.71662 0.14757 0.62988 0.0
C457 C 0.7269 0.17356 0.64075 0.0
H458 H 0.69383 0.09464 0.63334 0.0
H459 H 0.72562 0.17578 0.66707 0.0
C460 C 0.71627 0.03161 0.66902 0.0
N461 N 0.64893 0.0403 0.70705 0.0
C462 C 0.64317 0.05145 0.72265 0.0
C463 C 0.63836 1.00555 0.70627 0.0
N464 N 0.62943 0.02506 0.73174 0.0
C465 C 0.6264 0.99606 0.72144 0.0
C466 C 0.62661 0.05844 0.66371 0.0
O467 O 0.71851 0.06043 0.6619 0.0
O468 O 0.69693 0.03017 0.68223 0.0
O469 O 0.62904 0.04739 0.67757 0.0
O470 O 0.65092 0.08075 0.65842 0.0
O471 O 0.63783 0.10345 0.69873 0.0
H472 H 0.63952 0.98822 0.69539 0.0
H473 H 0.64876 0.07859 0.72718 0.0
O474 O 0.66139 0.13664 0.67973 0.0
O475 O 0.72777 0.11931 0.68384 0.0
O476 O 0.70405 0.08935 0.70385 0.0
C477 C 0.72607 0.11408 0.69876 0.0
H478 H 0.73698 0.20012 0.63809 0.0
H479 H 0.61701 0.96967 0.72464 0.0
H480 H 0.38652 0.22339 0.03412 0.0
H481 H 0.43986 0.25651 0.02195 0.0
H482 H 0.50844 0.20363 0.05052 0.0
H483 H 0.45612 0.17111 0.06261 0.0
H484 H 0.48451 0.30156 0.04078 0.0
H485 H 0.5658 0.20134 0.00687 0.0
H486 H 0.51752 0.19436 0.01128 0.0
H487 H 0.54844 0.18542 0.0258 0.0
C488 C 0.41312 0.21862 0.03757 0.0
C489 C 0.41725 0.19513 0.04944 0.0
C490 C 0.44343 0.23726 0.03055 0.0
C491 C 0.47805 0.2318 0.03507 0.0
C492 C 0.48207 0.20746 0.04651 0.0
H493 H 0.66951 0.30022 0.0664 0.0
H494 H 0.61675 0.26993 0.05439 0.0
C495 C 0.45204 0.18933 0.05363 0.0
C496 C 0.50976 0.25511 0.03024 0.0
H497 H 0.60036 0.24929 0.02196 0.0
C498 C 0.50975 0.29074 0.03604 0.0
C499 C 0.54242 0.24083 0.02391 0.0
C500 C 0.54343 0.20343 0.01646 0.0
C501 C 0.54226 0.31106 0.03781 0.0
C502 C 0.57527 0.29523 0.03331 0.0
C503 C 0.57498 0.26104 0.02567 0.0
C504 C 0.60969 0.31156 0.03872 0.0
C505 C 0.54106 0.34794 0.04594 0.0
C506 C 0.6235 0.34438 0.03354 0.0
C507 C 0.65307 0.36185 0.04056 0.0
C508 C 0.66958 0.34654 0.05269 0.0
C509 C 0.65706 0.31269 0.05718 0.0
C510 C 0.62714 0.29537 0.05027 0.0
H511 H 0.51327 0.35428 0.0506 0.0
H512 H 0.55872 0.35099 0.05612 0.0
H513 H 0.55113 0.36766 0.03721 0.0
H514 H 0.61081 0.35692 0.02442 0.0
H515 H 0.66278 0.38751 0.03655 0.0
H516 H 0.57006 0.68798 0.31715 0.0
H517 H 0.5361 0.73027 0.30507 0.0
H518 H 0.53197 0.6616 0.26168 0.0
H519 H 0.56604 0.61847 0.27378 0.0
H520 H 0.55868 0.76113 0.27289 0.0
H521 H 0.42377 0.68754 0.27773 0.0
H522 H 0.45759 0.67692 0.29059 0.0
H523 H 0.46384 0.66655 0.26932 0.0
C524 C 0.56189 0.68169 0.30507 0.0
C525 C 0.57063 0.64995 0.29642 0.0
C526 C 0.54266 0.70592 0.29816 0.0
C527 C 0.53193 0.69896 0.28249 0.0
C528 C 0.54018 0.66723 0.27378 0.0
H529 H 0.43081 0.8992 0.28066 0.0
H530 H 0.4584 0.84844 0.26597 0.0
C531 C 0.55945 0.64273 0.28074 0.0
C532 C 0.51146 0.72556 0.27593 0.0
H533 H 0.42494 0.75022 0.28023 0.0
C534 C 0.52937 0.75879 0.27372 0.0
C535 C 0.4734 0.72186 0.27679 0.0
C536 C 0.45328 0.68631 0.27867 0.0
C537 C 0.51018 0.78946 0.27509 0.0
C538 C 0.47228 0.78618 0.27839 0.0
C539 C 0.4541 0.75246 0.27794 0.0
C540 C 0.45287 0.81597 0.28634 0.0
C541 C 0.53092 0.82514 0.2751 0.0
C542 C 0.44019 0.81412 0.30255 0.0
C543 C 0.42428 0.8428 0.31093 0.0
C544 C 0.42115 0.87394 0.30326 0.0
C545 C 0.43357 0.87569 0.28696 0.0
C546 C 0.44912 0.84674 0.27851 0.0
H547 H 0.56059 0.82278 0.27322 0.0
H548 H 0.52241 0.84029 0.26535 0.0
H549 H 0.52503 0.84062 0.2867 0.0
H550 H 0.4432 0.79058 0.30881 0.0
H551 H 0.41467 0.84067 0.32342 0.0
H552 H 0.17087 0.79989 0.56695 0.0
H553 H 0.11816 0.76986 0.55492 0.0
H554 H 0.1152 0.8552 0.5237 0.0
H555 H 0.16712 0.88551 0.5359 0.0
H556 H 0.05306 0.84491 0.54017 0.0
H557 H 0.09388 0.71508 0.51375 0.0
H558 H 0.10839 0.72213 0.53372 0.0
H559 H 0.12653 0.75116 0.51849 0.0
C560 C 0.1593 0.81184 0.55733 0.0
C561 C 0.17245 0.84531 0.5526 0.0
C562 C 0.12953 0.7945 0.5503 0.0
C563 C 0.11312 0.8101 0.53823 0.0
C564 C 0.12757 0.84265 0.53292 0.0
H565 H 0.89994 0.69631 0.52753 0.0
H566 H 0.95299 0.73142 0.51627 0.0
C567 C 0.15695 0.86011 0.54005 0.0
C568 C 0.0776 0.79549 0.53329 0.0
H569 H 0.03074 0.71648 0.52567 0.0
C570 C 0.0483 0.8171 0.53638 0.0
C571 C 0.07134 0.75947 0.52801 0.0
C572 C 0.10186 0.73582 0.52313 0.0
C573 C 1.01276 0.80252 0.53636 0.0
C574 C 1.00669 0.76563 0.5333 0.0
C575 C 0.03571 0.74481 0.52819 0.0
C576 C 0.97289 0.74749 0.53947 0.0
C577 C 0.98202 0.82596 0.54116 0.0
C578 C 0.96699 0.74529 0.55613 0.0
C579 C 0.93748 0.72508 0.56249 0.0
C580 C 0.91319 0.70706 0.55229 0.0
C581 C 0.91831 0.71027 0.5356 0.0
C582 C 0.94843 0.73012 0.52918 0.0
H583 H 0.98965 0.85395 0.53859 0.0
H584 H 0.95771 0.8166 0.53477 0.0
H585 H 0.97489 0.82509 0.55428 0.0
H586 H 0.98596 0.75835 0.56418 0.0
H587 H 0.93401 0.72309 0.57539 0.0
H588 H 0.06078 0.11859 0.77744 0.0
H589 H 0.02601 0.16137 0.76552 0.0
H590 H 0.0518 0.23961 0.80372 0.0
H591 H 0.08634 0.19761 0.81557 0.0
H592 H 0.96618 0.19388 0.78046 0.0
H593 H 0.07215 0.29565 0.7638 0.0
H594 H 0.08196 0.25038 0.7663 0.0
H595 H 0.07896 0.28229 0.78338 0.0
C596 C 0.05918 0.14505 0.7832 0.0
C597 C 0.07617 0.1548 0.79746 0.0
C598 C 0.03956 0.16939 0.77632 0.0
C599 C 0.03728 0.20381 0.78351 0.0
C600 C 0.05426 0.21347 0.7977 0.0
H601 H 0.90348 0.33537 0.82481 0.0
H602 H 0.93161 0.28539 0.81006 0.0
C603 C 0.07358 0.18927 0.8046 0.0
C604 C 1.014 0.2291 0.77763 0.0
H605 H 1.01441 0.3184 0.77622 0.0
C606 C 0.97659 0.22093 0.77884 0.0
C607 C 0.02753 0.264 0.77485 0.0
C608 C 0.06743 0.27342 0.77181 0.0
C609 C 0.95254 0.24798 0.78007 0.0
C610 C 0.96663 0.28361 0.78044 0.0
C611 C 1.0036 0.29111 0.77646 0.0
C612 C 0.94569 0.31261 0.78828 0.0
C613 C 0.91254 0.23828 0.78227 0.0
C614 C 0.94536 0.34489 0.78115 0.0
C615 C 0.93019 0.37383 0.78976 0.0
C616 C 0.91513 0.37088 0.80563 0.0
C617 C 0.915 0.33841 0.81264 0.0
C618 C 0.93045 0.30964 0.80408 0.0
H619 H 0.90537 0.21402 0.77461 0.0
H620 H 0.90526 0.23228 0.79496 0.0
H621 H 0.89628 0.26002 0.77927 0.0
H622 H 0.95743 0.34785 0.76906 0.0
H623 H 0.93018 0.39846 0.78397 0.0
H624 H 0.57694 0.85877 0.93976 0.0
H625 H 0.52487 0.82828 0.9531 0.0
H626 H 0.59392 0.78238 0.98393 0.0
H627 H 0.64702 0.81352 0.97054 0.0
H628 H 0.54784 0.73375 0.96681 0.0
H629 H 0.4694 0.84031 0.99732 0.0
H630 H 0.48703 0.85254 0.97778 0.0
H631 H 0.51776 0.84556 0.99269 0.0
C632 C 0.58122 0.84246 0.94946 0.0
C633 C 0.61606 0.83818 0.95401 0.0
C634 C 0.55132 0.82553 0.95727 0.0
C635 C 0.55553 0.8039 0.96977 0.0
C636 C 0.59022 0.79963 0.97451 0.0
H637 H 0.36806 0.65217 0.97144 0.0
H638 H 0.41939 0.68316 0.98397 0.0
C639 C 0.62039 0.81709 0.96678 0.0
C640 C 0.52378 0.78201 0.97575 0.0
H641 H 0.43359 0.79073 0.98388 0.0
C642 C 0.52293 0.74567 0.97122 0.0
C643 C 0.49162 0.79775 0.98169 0.0
C644 C 0.49161 0.83617 0.98781 0.0
C645 C 0.48997 0.72577 0.97013 0.0
C646 C 0.45742 0.74286 0.97402 0.0
C647 C 0.45861 0.77797 0.98062 0.0
C648 C 0.42285 0.72692 0.96861 0.0
C649 C 0.49024 0.68783 0.96318 0.0
C650 C 0.40677 0.74224 0.95637 0.0
C651 C 0.37722 0.72474 0.94927 0.0
C652 C 0.36376 0.69155 0.95422 0.0
C653 C 0.37865 0.67728 0.96708 0.0
C654 C 0.40781 0.69497 0.97432 0.0
H655 H 0.51789 0.68011 0.95901 0.0
H656 H 0.47913 0.6698 0.97248 0.0
H657 H 0.47301 0.68373 0.95287 0.0
H658 H 0.41811 0.76699 0.95184 0.0
H659 H 0.36598 0.73638 0.93947 0.0
H660 H 0.61667 0.14039 0.72399 0.0
H661 H 0.58947 0.19186 0.73823 0.0
H662 H 0.59913 0.24533 0.69412 0.0
H663 H 0.62746 0.19456 0.67996 0.0
H664 H 0.61731 0.28931 0.72136 0.0
H665 H 0.48539 0.21174 0.73206 0.0
H666 H 0.52503 0.19713 0.7399 0.0
H667 H 0.52109 0.19416 0.71858 0.0
C668 C 0.61282 0.16313 0.71733 0.0
C669 C 0.62341 0.16337 0.70079 0.0
C670 C 0.59752 0.19249 0.72551 0.0
C671 C 0.59206 0.22211 0.71718 0.0
C672 C 0.60336 0.22266 0.70076 0.0
H673 H 0.45982 0.34409 0.68915 0.0
H674 H 0.49654 0.30257 0.70019 0.0
C675 C 0.61915 0.19359 0.69264 0.0
C676 C 0.57181 0.25166 0.72483 0.0
H677 H 0.48441 0.27307 0.7321 0.0
C678 C 0.58839 0.28598 0.72432 0.0
C679 C 0.53427 0.24694 0.72898 0.0
C680 C 0.51517 0.21059 0.72992 0.0
C681 C 0.5676 0.31559 0.72552 0.0
C682 C 0.52963 0.31031 0.72747 0.0
C683 C 0.51363 0.27664 0.73044 0.0
C684 C 0.50656 0.33588 0.72175 0.0
C685 C 0.58586 0.35161 0.7227 0.0
C686 C 0.50036 0.36836 0.73025 0.0
C687 C 0.47952 0.39241 0.72387 0.0
C688 C 0.46469 0.38403 0.70897 0.0
C689 C 0.4709 0.35133 0.70062 0.0
C690 C 0.49168 0.32752 0.70695 0.0
H691 H 0.6158 0.3513 0.72186 0.0
H692 H 0.57748 0.36097 0.71137 0.0
H693 H 0.5774 0.37097 0.73266 0.0
H694 H 0.51164 0.37507 0.74171 0.0
H695 H 0.47492 0.41741 0.73061 0.0
H696 H 0.13821 0.33625 0.47797 0.0
H697 H 0.08569 0.30163 0.48996 0.0
H698 H 0.04945 0.27417 0.44265 0.0
H699 H 0.10093 0.30892 0.43071 0.0
H700 H 1.00841 0.31688 0.48265 0.0
H701 H 0.04534 0.17886 0.46736 0.0
H702 H 0.07855 0.2155 0.47034 0.0
H703 H 0.05825 0.20772 0.45148 0.0
C704 C 0.11926 0.32226 0.47017 0.0
C705 C 0.12337 0.32519 0.45345 0.0
C706 C 0.08943 0.30267 0.47702 0.0
C707 C 0.06418 0.28526 0.46712 0.0
C708 C 0.06905 0.28719 0.45041 0.0
H709 H 0.86321 0.23906 0.4435 0.0
H710 H 0.91652 0.26771 0.45545 0.0
C711 C 0.09829 0.30713 0.44363 0.0
C712 C 0.03058 0.2675 0.4738 0.0
H713 H 0.98176 0.18944 0.46734 0.0
C714 C 1.00258 0.28873 0.47993 0.0
C715 C 0.02339 0.23081 0.47052 0.0
C716 C 0.05308 0.20679 0.46471 0.0
C717 C 0.96663 0.27483 0.48093 0.0
C718 C 0.95897 0.23915 0.47543 0.0
C719 C 0.98752 0.217 0.47132 0.0
C720 C 0.92255 0.22571 0.47112 0.0
C721 C 0.93718 0.29897 0.48692 0.0
C722 C 0.90819 0.19272 0.47597 0.0
C723 C 0.87835 0.17603 0.46887 0.0
C724 C 0.8623 0.19211 0.45684 0.0
C725 C 0.87512 0.22616 0.45275 0.0
C726 C 0.9053 0.2427 0.45973 0.0
H727 H 0.9467 0.31872 0.4964 0.0
H728 H 0.92987 0.31385 0.47684 0.0
H729 H 0.91263 0.28386 0.49184 0.0
H730 H 0.9212 0.17907 0.48464 0.0
H731 H 0.86862 0.14995 0.47244 0.0
H732 H 0.10947 0.63545 0.22128 0.0
H733 H 0.07945 0.68557 0.23535 0.0
H734 H 0.09825 0.74373 0.19269 0.0
H735 H 0.12914 0.69435 0.17874 0.0
H736 H 0.11165 0.78464 0.22146 0.0
H737 H 0.97795 0.70778 0.22555 0.0
H738 H 1.01535 0.6915 0.23452 0.0
H739 H 1.01568 0.69118 0.21304 0.0
C740 C 0.10705 0.65893 0.21491 0.0
C741 C 0.12107 0.66093 0.19883 0.0
C742 C 0.09009 0.6875 0.22299 0.0
C743 C 0.08653 0.71811 0.21501 0.0
C744 C 0.10103 0.72031 0.19907 0.0
H745 H 0.96109 0.84814 0.18606 0.0
H746 H 0.99626 0.8044 0.19647 0.0
C747 C 0.11833 0.69203 0.19106 0.0
C748 C 0.0654 0.74723 0.22245 0.0
H749 H 0.97791 0.76938 0.22702 0.0
C750 C 0.08244 0.78144 0.2233 0.0
C751 C 0.0274 0.74264 0.22508 0.0
C752 C 1.00779 0.70639 0.22449 0.0
C753 C 0.06212 0.81138 0.22445 0.0
C754 C 0.02413 0.80652 0.22496 0.0
C755 C 1.00718 0.77263 0.22648 0.0
C756 C 1.00265 0.83365 0.21941 0.0
C757 C 0.08127 0.84757 0.22316 0.0
C758 C 0.99511 0.86463 0.22888 0.0
C759 C 0.97518 0.88995 0.22288 0.0
C760 C 0.96257 0.88432 0.2074 0.0
C761 C 0.97041 0.85324 0.19801 0.0
C762 C 0.99032 0.82817 0.20397 0.0
H763 H 0.11105 0.84681 0.22331 0.0
H764 H 0.07518 0.85864 0.21182 0.0
H765 H 0.07139 0.86581 0.2333 0.0
H766 H 1.00446 0.8691 0.24085 0.0
H767 H 0.96929 0.91365 0.23042 0.0
H768 H 0.37249 0.07627 0.02173 0.0
H769 H 0.42219 0.05263 0.00396 0.0
H770 H 0.47613 0.0294 0.04528 0.0
H771 H 0.42644 0.05245 0.06305 0.0
H772 H 0.49262 0.07574 1.00064 0.0
H773 H 0.48744 0.93788 0.01861 0.0
H774 H 0.45138 0.96678 0.02439 0.0
H775 H 0.49137 0.97 0.03533 0.0
C776 C 0.3944 0.06525 0.02709 0.0
C777 C 0.39471 0.06593 0.04398 0.0
C778 C 0.4232 0.05197 0.01684 0.0
C779 C 0.45327 0.03859 0.02307 0.0
C780 C 0.45324 0.03859 0.03993 0.0
H781 H 0.66012 0.9569 0.98142 0.0
H782 H 0.61043 0.98044 0.99923 0.0
C783 C 0.42453 0.05192 0.05018 0.0
C784 C 0.48525 0.02643 0.01205 0.0
H785 H 0.53987 0.95715 1.00258 0.0
C786 C 0.50267 0.04967 1.00104 0.0
C787 C 0.49911 0.99249 0.01241 0.0
C788 C 0.48118 0.9652 0.0232 0.0
C789 C 0.53337 0.0404 0.99081 0.0
C790 C 0.54722 1.00646 0.99117 0.0
C791 C 0.52981 0.98322 1.00218 0.0
C792 C 0.57917 0.99431 0.98014 0.0
C793 C 0.55128 0.06768 0.98001 0.0
C794 C 0.5791 0.99424 0.96328 0.0
C795 C 0.6078 0.98096 0.95302 0.0
C796 C 0.63772 0.96709 0.95919 0.0
C797 C 0.63813 0.96782 0.97608 0.0
C798 C 0.60933 0.98104 0.98635 0.0
H799 H 0.545 0.095 0.98459 0.0
H800 H 0.58108 0.06612 0.97883 0.0
H801 H 0.54111 0.06284 0.96788 0.0
H802 H 0.55615 1.00335 0.95795 0.0
H803 H 0.60582 0.98039 0.94015 0.0
H804 H 0.69454 0.62363 0.26529 0.0
H805 H 0.72197 0.67301 0.25 0.0
H806 H 0.75236 0.72907 0.29407 0.0
H807 H 0.72576 0.67997 0.30925 0.0
H808 H 0.70424 0.74174 0.25114 0.0
H809 H 0.84562 0.74295 0.26717 0.0
H810 H 0.81321 0.70639 0.27109 0.0
H811 H 0.81416 0.74575 0.28454 0.0
C812 C 0.70796 0.646 0.2717 0.0
C813 C 0.70824 0.64714 0.2886 0.0
C814 C 0.72341 0.67458 0.26292 0.0
C815 C 0.73996 0.70511 0.2707 0.0
C816 C 0.74079 0.70587 0.28753 0.0
H817 H 0.83903 0.91219 0.24118 0.0
H818 H 0.81175 0.86255 0.25632 0.0
C819 C 0.72535 0.67749 0.29628 0.0
C820 C 0.7546 0.73681 0.2615 0.0
H821 H 0.8294 0.79399 0.25506 0.0
C822 C 0.73174 0.75287 0.25193 0.0
C823 C 0.79044 0.7521 0.26246 0.0
C824 C 0.8174 0.73573 0.27174 0.0
C825 C 0.74321 0.78363 0.24373 0.0
C826 C 0.77905 0.79894 0.2447 0.0
C827 C 0.80191 0.78285 0.25426 0.0
C828 C 0.79365 0.83074 0.23556 0.0
C829 C 0.71624 0.8 0.23447 0.0
C830 C 0.79273 0.83024 0.21875 0.0
C831 C 0.80809 0.85878 0.21007 0.0
C832 C 0.82522 0.88903 0.21783 0.0
C833 C 0.82562 0.88989 0.23471 0.0
C834 C 0.81025 0.86116 0.24341 0.0
H835 H 0.68802 0.79274 0.23903 0.0
H836 H 0.72039 0.82935 0.23513 0.0
H837 H 0.7195 0.79003 0.22166 0.0
H838 H 0.78115 0.80713 0.21216 0.0
H839 H 0.80757 0.85651 0.19711 0.0
H840 H 0.14537 0.0563 0.54303 0.0
H841 H 0.09397 0.0637 0.52729 0.0
H842 H 0.08344 0.9509 0.51609 0.0
H843 H 0.13426 0.94319 0.53206 0.0
H844 H 0.08242 0.04737 0.49512 0.0
H845 H 0.98065 0.97048 0.53288 0.0
H846 H 0.02481 0.98458 0.53936 0.0
H847 H 0.01918 0.94649 0.52544 0.0
C848 C 0.1321 0.03294 0.53733 0.0
C849 C 0.14436 0.99908 0.53903 0.0
C850 C 0.10261 0.03726 0.5282 0.0
C851 C 0.08399 1.00789 0.5206 0.0
C852 C 0.09655 0.9741 0.52202 0.0
H853 H 0.89147 0.98052 0.46475 0.0
H854 H 0.94478 0.97268 0.47919 0.0
C855 C 0.12617 0.96975 0.53107 0.0
C856 C 0.05183 1.01271 0.51114 0.0
H857 H 0.96159 0.98891 0.50867 0.0
C858 C 0.05599 0.03464 0.49815 0.0
C859 C 1.01706 0.99614 0.51488 0.0
C860 C 1.00991 0.97335 0.52898 0.0
C861 C 0.02702 0.03983 0.48873 0.0
C862 C 0.99209 0.02352 0.49255 0.0
C863 C 0.98801 1.00156 0.50555 0.0
C864 C 0.95958 0.02867 0.48329 0.0
C865 C 0.03467 0.06194 0.47442 0.0
C866 C 0.94917 0.06275 0.48069 0.0
C867 C 0.91865 0.06731 0.47224 0.0
C868 C 0.89698 0.03793 0.46632 0.0
C869 C 0.90715 1.00386 0.4691 0.0
C870 C 0.93787 0.99933 0.47742 0.0
H871 H 0.06371 0.06256 0.47005 0.0
H872 H 1.01836 0.0517 0.46433 0.0
H873 H 0.02793 0.08962 0.47798 0.0
H874 H 0.96426 0.08608 0.48545 0.0
H875 H 0.91156 0.094 0.47074 0.0
H876 H 0.76705 0.36228 0.81354 0.0
H877 H 0.75335 0.31111 0.7949 0.0
H878 H 0.81207 0.36433 0.75618 0.0
H879 H 0.82625 0.4155 0.77479 0.0
H880 H 0.7186 0.29943 0.76691 0.0
H881 H 0.863 0.27263 0.75378 0.0
H882 H 0.84783 0.30344 0.77 0.0
H883 H 0.85257 0.31642 0.74965 0.0
C884 C 0.77649 0.36357 0.80099 0.0
C885 C 0.79772 0.39351 0.7958 0.0
C886 C 0.76878 0.33397 0.7903 0.0
C887 C 0.78233 0.33304 0.77407 0.0
C888 C 0.80194 0.36363 0.76866 0.0
H889 H 0.77101 0.17321 0.69227 0.0
H890 H 0.78504 0.22507 0.71052 0.0
C891 C 0.80958 0.39332 0.77934 0.0
C892 C 0.7765 0.29999 0.76302 0.0
H893 H 0.82096 0.23738 0.73863 0.0
C894 C 0.74107 0.28588 0.76079 0.0
C895 C 0.8056 0.28183 0.75492 0.0
C896 C 0.8444 0.29406 0.75728 0.0
C897 C 0.73399 0.25503 0.75061 0.0
C898 C 0.76308 0.23683 0.74254 0.0
C899 C 0.79851 0.25097 0.74473 0.0
C900 C 0.75719 0.2035 0.73169 0.0
C901 C 0.69519 0.24275 0.74824 0.0
C902 C 0.73813 0.17297 0.73742 0.0
C903 C 0.73039 0.14291 0.72699 0.0
C904 C 0.74152 0.1423 0.71044 0.0
C905 C 0.76217 0.17225 0.70489 0.0
C906 C 0.77005 0.20223 0.71536 0.0
H907 H 0.67659 0.26424 0.75162 0.0
H908 H 0.69181 0.23314 0.73554 0.0
H909 H 0.68697 0.22054 0.75595 0.0
H910 H 0.72849 0.17259 0.74998 0.0
H911 H 0.71417 0.12075 0.73181 0.0
H912 H 0.34144 0.41507 0.7419 0.0
H913 H 0.31536 0.36588 0.75766 0.0
H914 H 0.2834 0.30824 0.71422 0.0
H915 H 0.30937 0.3568 0.6985 0.0
H916 H 0.24661 0.33076 0.76196 0.0
H917 H 0.34244 0.23646 0.73237 0.0
H918 H 0.34853 0.28359 0.73029 0.0
H919 H 0.31722 0.25673 0.7185 0.0
C920 C 0.32826 0.39224 0.73571 0.0
C921 C 0.32766 0.39033 0.71881 0.0
C922 C 0.31351 0.36385 0.74476 0.0
C923 C 0.29803 0.33252 0.73721 0.0
C924 C 0.29592 0.33138 0.72045 0.0
H925 H 0.20098 0.12673 0.76821 0.0
H926 H 0.22731 0.17652 0.75298 0.0
C927 C 0.31052 0.35963 0.71143 0.0
C928 C 0.28452 0.30096 0.74666 0.0
H929 H 0.29404 0.212 0.74922 0.0
C930 C 0.25723 0.3049 0.75921 0.0
C931 C 0.29796 0.26679 0.74319 0.0
C932 C 0.32838 0.26057 0.73047 0.0
C933 C 0.24263 0.27594 0.76799 0.0
C934 C 0.2561 0.24175 0.76454 0.0
C935 C 0.28343 0.23786 0.752 0.0
C936 C 0.24227 0.20998 0.77381 0.0
C937 C 0.21195 0.28213 0.7806 0.0
C938 C 0.24295 0.21094 0.79065 0.0
C939 C 0.22809 0.18233 0.79939 0.0
C940 C 0.21224 0.15142 0.79164 0.0
C941 C 0.21314 0.14971 0.7747 0.0
C942 C 0.22805 0.17847 0.76593 0.0
H943 H 0.1978 0.3061 0.77856 0.0
H944 H 0.1919 0.25903 0.78076 0.0
H945 H 0.22287 0.28626 0.7926 0.0
H946 H 0.25458 0.23418 0.79714 0.0
H947 H 0.22806 0.18497 0.81238 0.0
H948 H 0.32589 0.91268 0.27311 0.0
H949 H 0.31043 0.86086 0.25507 0.0
H950 H 0.2573 0.80801 0.29518 0.0
H951 H 0.27232 0.85977 0.31322 0.0
H952 H 0.33206 0.79351 0.25529 0.0
H953 H 0.18263 0.78709 0.26277 0.0
H954 H 0.20996 0.82569 0.26951 0.0
H955 H 0.20329 0.78788 0.28147 0.0
C956 C 0.30996 0.89052 0.27808 0.0
C957 C 0.29995 0.89107 0.29474 0.0
C958 C 0.30142 0.86053 0.2677 0.0
C959 C 0.28226 0.83014 0.27356 0.0
C960 C 0.27136 0.83105 0.29011 0.0
H961 H 0.21377 0.61867 0.23029 0.0
H962 H 0.22923 0.66973 0.2488 0.0
C963 C 0.28 0.86094 0.3005 0.0
C964 C 0.27556 0.79703 0.26259 0.0
H965 H 0.20929 0.73688 0.24925 0.0
C966 C 0.30513 0.78135 0.25394 0.0
C967 C 0.24055 0.78049 0.26073 0.0
C968 C 0.20724 0.79628 0.26898 0.0
C969 C 0.30084 0.74982 0.24386 0.0
C970 C 0.2658 0.73335 0.24194 0.0
C971 C 0.23624 0.749 0.25063 0.0
C972 C 0.25907 0.70055 0.23077 0.0
C973 C 0.33424 0.73396 0.23573 0.0
C974 C 0.2709 0.69992 0.21432 0.0
C975 C 0.26237 0.67044 0.20369 0.0
C976 C 0.24148 0.64046 0.20907 0.0
C977 C 0.23046 0.6407 0.22563 0.0
C978 C 0.23898 0.67028 0.23626 0.0
H979 H 0.35858 0.74252 0.24225 0.0
H980 H 0.33121 0.70455 0.23488 0.0
H981 H 0.33894 0.74306 0.22339 0.0
H982 H 0.28562 0.72289 0.20949 0.0
H983 H 0.27087 0.67188 0.19105 0.0
H984 H 0.10927 0.47628 0.44236 0.0
H985 H 0.0599 0.50141 0.45958 0.0
H986 H 0.11013 0.47582 0.50155 0.0
H987 H 0.16009 0.45102 0.4843 0.0
H988 H 1.01038 0.47031 0.47971 0.0
H989 H 0.08528 0.57521 0.51556 0.0
H990 H 0.10578 0.55257 0.49776 0.0
H991 H 0.10172 0.53213 0.51663 0.0
C992 C 0.11043 0.47665 0.45527 0.0
C993 C 0.13939 0.46188 0.46181 0.0
C994 C 0.08177 0.4909 0.46518 0.0
C995 C 0.08085 0.49112 0.48205 0.0
C996 C 0.1101 0.47699 0.48866 0.0
H997 H 0.92491 0.55517 0.56182 0.0
H998 H 0.97413 0.53029 0.54445 0.0
C999 C 0.13892 0.46273 0.47872 0.0
C1000 C 0.04859 0.50457 0.49249 0.0
H1001 H 0.02375 0.56252 0.52437 0.0
C1002 C 1.01347 0.49064 0.48941 0.0
C1003 C 0.0519 0.53114 0.50529 0.0
C1004 C 0.08814 0.54892 0.50895 0.0
C1005 C 0.98224 0.50175 0.49877 0.0
C1006 C 0.98556 0.52826 0.51158 0.0
C1007 C 0.02068 0.54221 0.51466 0.0
C1008 C 0.95334 0.54156 0.52208 0.0
C1009 C 0.94597 0.48408 0.4951 0.0
C1010 C 0.92421 0.55613 0.51558 0.0
C1011 C 0.89547 0.57032 0.52561 0.0
C1012 C 0.89496 0.57058 0.54251 0.0
C1013 C 0.92377 0.55528 0.54893 0.0
C1014 C 0.95236 0.54117 0.53893 0.0
H1015 H 0.94875 0.45796 0.48831 0.0
H1016 H 0.92846 0.48011 0.50629 0.0
H1017 H 0.93226 0.50114 0.48758 0.0
H1018 H 0.92422 0.55771 0.50271 0.0
H1019 H 0.87442 0.58242 0.52012 0.0
H1020 H 0.6406 0.55676 0.04509 0.0
H1021 H 0.58854 0.56401 0.02983 0.0
H1022 H 0.58485 0.45287 0.01456 0.0
H1023 H 0.63601 0.44509 0.0302 0.0
H1024 H 0.5769 0.55491 0.99842 0.0
H1025 H 0.48122 0.46158 0.03081 0.0
H1026 H 0.52468 0.47606 0.03793 0.0
H1027 H 0.52111 0.44143 0.0221 0.0
C1028 C 0.62867 0.53365 0.03864 0.0
C1029 C 0.64291 0.5002 0.03917 0.0
C1030 C 0.59878 0.53793 0.02978 0.0
C1031 C 0.5818 0.50894 0.02118 0.0
C1032 C 0.59648 0.47568 0.02134 0.0
H1033 H 0.39755 0.48103 0.96083 0.0
H1034 H 0.44967 0.47409 0.97608 0.0
C1035 C 0.62638 0.47134 0.03021 0.0
C1036 C 0.54926 0.51372 0.01196 0.0
H1037 H 0.46126 0.48343 0.00738 0.0
C1038 C 0.5516 0.53934 1.00048 0.0
C1039 C 0.51589 0.49356 0.01446 0.0
C1040 C 0.51033 0.46686 0.02709 0.0
C1041 C 0.52227 0.54478 0.99133 0.0
C1042 C 0.4889 0.52461 0.99383 0.0
C1043 C 0.48656 0.49901 0.00532 0.0
C1044 C 0.45638 0.52926 0.98457 0.0
C1045 C 0.52784 0.57147 0.9787 0.0
C1046 C 0.44168 0.5625 0.98431 0.0
C1047 C 0.41174 0.56666 0.97543 0.0
C1048 C 0.3952 0.53764 0.96658 0.0
C1049 C 0.40949 0.50424 0.9672 0.0
C1050 C 0.43942 0.50014 0.97606 0.0
H1051 H 0.55696 0.57676 0.97499 0.0
H1052 H 0.51352 0.56225 0.96786 0.0
H1053 H 0.51705 0.5969 0.98368 0.0
H1054 H 0.45331 0.58541 0.99103 0.0
H1055 H 0.40207 0.59289 0.97535 0.0
H1056 H 0.26287 0.23857 0.07801 0.0
H1057 H 0.24904 0.2972 0.09051 0.0
H1058 H 0.32238 0.28574 0.12686 0.0
H1059 H 0.3365 0.2274 0.11443 0.0
H1060 H 0.22052 0.31868 0.12114 0.0
H1061 H 0.35841 0.38156 0.11029 0.0
H1062 H 0.34422 0.33945 0.10048 0.0
H1063 H 0.35711 0.34184 0.12082 0.0
C1064 C 0.27596 0.24841 0.08871 0.0
C1065 C 0.30091 0.22805 0.09513 0.0
C1066 C 0.26806 0.28207 0.09585 0.0
C1067 C 0.28516 0.29647 0.1095 0.0
C1068 C 0.3094 0.27582 0.11615 0.0
H1069 H 0.21843 0.46817 0.1777 0.0
H1070 H 0.23547 0.4124 0.16366 0.0
C1071 C 0.3172 0.24216 0.10907 0.0
C1072 C 0.27733 0.33274 0.11692 0.0
H1073 H 0.31715 0.41444 0.12778 0.0
C1074 C 0.24168 0.3396 0.12251 0.0
C1075 C 0.30471 0.3605 0.11857 0.0
C1076 C 0.34321 0.3557 0.11209 0.0
C1077 C 0.23289 0.37277 0.13006 0.0
C1078 C 0.26049 0.40005 0.13229 0.0
C1079 C 0.29597 0.39359 0.12627 0.0
C1080 C 0.25293 0.43503 0.14113 0.0
C1081 C 0.19392 0.37842 0.13548 0.0
C1082 C 0.25849 0.46703 0.13346 0.0
C1083 C 0.24887 0.49938 0.14155 0.0
C1084 C 0.23374 0.5005 0.15757 0.0
C1085 C 0.22986 0.46858 0.16539 0.0
C1086 C 0.23935 0.43642 0.15731 0.0
H1087 H 0.17518 0.35899 0.12921 0.0
H1088 H 0.18952 0.37504 0.14858 0.0
H1089 H 0.18696 0.4056 0.13332 0.0
H1090 H 0.26917 0.46682 0.12102 0.0
H1091 H 0.25211 0.52325 0.13508 0.0
H1092 H 0.54888 0.58334 0.3608 0.0
H1093 H 0.49201 0.56276 0.37488 0.0
H1094 H 0.47641 0.48065 0.33718 0.0
H1095 H 0.53354 0.5011 0.32296 0.0
H1096 H 0.42167 0.55816 0.36451 0.0
H1097 H 0.46161 0.42578 0.37809 0.0
H1098 H 0.49421 0.46055 0.37184 0.0
H1099 H 0.46817 0.43528 0.35728 0.0
C1100 C 0.53362 0.56068 0.35551 0.0
C1101 C 0.54618 0.54382 0.34071 0.0
C1102 C 0.50087 0.54901 0.36359 0.0
C1103 C 0.47977 0.5199 0.35724 0.0
C1104 C 0.49227 0.50282 0.34252 0.0
H1105 H 0.25261 0.4601 0.38937 0.0
H1106 H 0.30767 0.48202 0.37401 0.0
C1107 C 0.52502 0.51462 0.33435 0.0
C1108 C 0.44458 0.50801 0.36597 0.0
H1109 H 0.40069 0.43835 0.38489 0.0
C1110 C 0.41708 0.53191 0.36891 0.0
C1111 C 0.43845 0.47389 0.37193 0.0
C1112 C 0.4672 0.4474 0.36978 0.0
C1113 C 0.38387 0.52262 0.37748 0.0
C1114 C 0.3776 0.48835 0.38327 0.0
C1115 C 0.40517 0.46454 0.3804 0.0
C1116 C 0.3433 0.47705 0.39284 0.0
C1117 C 0.35607 0.54992 0.38062 0.0
C1118 C 0.34456 0.46693 0.4086 0.0
C1119 C 0.3131 0.45459 0.41745 0.0
C1120 C 0.27931 0.45162 0.41075 0.0
C1121 C 0.27792 0.46237 0.39504 0.0
C1122 C 0.30951 0.47493 0.38621 0.0
H1123 H 0.3679 0.5771 0.3786 0.0
H1124 H 0.33428 0.54367 0.37234 0.0
H1125 H 0.34366 0.54958 0.39314 0.0
H1126 H 0.37011 0.46822 0.41406 0.0
H1127 H 0.31553 0.44638 0.42943 0.0
H1128 H 0.24546 0.7587 0.60869 0.0
H1129 H 0.24712 0.70854 0.62555 0.0
H1130 H 0.3624 0.70798 0.61512 0.0
H1131 H 0.36144 0.75849 0.59918 0.0
H1132 H 0.26713 0.64146 0.61914 0.0
H1133 H 0.35712 0.70804 0.66291 0.0
H1134 H 0.33658 0.73211 0.64861 0.0
H1135 H 0.37761 0.71018 0.64285 0.0
C1136 C 0.27126 0.74829 0.61015 0.0
C1137 C 0.30326 0.76314 0.6024 0.0
C1138 C 0.27214 0.71933 0.61974 0.0
C1139 C 0.30502 0.70464 0.62192 0.0
C1140 C 0.33676 0.71915 0.61406 0.0
H1141 H 0.34781 0.49496 0.6484 0.0
H1142 H 0.33034 0.5456 0.63501 0.0
C1143 C 0.33599 0.74804 0.60463 0.0
C1144 C 0.30662 0.67377 0.63206 0.0
H1145 H 0.35313 0.64437 0.66161 0.0
C1146 C 0.28561 0.64225 0.62857 0.0
C1147 C 0.33013 0.67466 0.64464 0.0
C1148 C 0.35131 0.70821 0.65009 0.0
C1149 C 0.28857 0.61146 0.6368 0.0
C1150 C 0.31403 0.61166 0.64859 0.0
C1151 C 0.33393 0.64365 0.65248 0.0
C1152 C 0.3212 0.57921 0.65686 0.0
C1153 C 0.26397 0.57921 0.63284 0.0
C1154 C 0.32249 0.58077 0.67369 0.0
C1155 C 0.33325 0.55195 0.68136 0.0
C1156 C 0.34276 0.52054 0.67245 0.0
C1157 C 0.34014 0.51843 0.6557 0.0
C1158 C 0.32992 0.5475 0.648 0.0
H1159 H 0.23847 0.58678 0.62834 0.0
H1160 H 0.27765 0.56218 0.62318 0.0
H1161 H 0.25712 0.56348 0.64347 0.0
H1162 H 0.31601 0.60474 0.6809 0.0
H1163 H 0.33511 0.55467 0.69425 0.0
H1164 H 0.92584 0.44765 0.87354 0.0
H1165 H 0.98027 0.46114 0.88807 0.0
H1166 H 0.02214 0.53284 0.85239 0.0
H1167 H 0.96808 0.51907 0.83766 0.0
H1168 H 0.07368 0.48885 0.85991 0.0
H1169 H 1.00652 0.55023 0.91579 0.0
H1170 H 0.98884 0.50622 0.91009 0.0
H1171 H 0.98391 0.54171 0.89748 0.0
C1172 C 0.94644 0.46657 0.86885 0.0
C1173 C 0.94233 0.48242 0.85444 0.0
C1174 C 0.97761 0.47433 0.87721 0.0
C1175 C 1.00534 0.49833 0.87146 0.0
C1176 C 1.00122 0.51426 0.85712 0.0
H1177 H 0.17318 0.62112 0.91633 0.0
H1178 H 0.11982 0.59402 0.90448 0.0
C1179 C 0.97012 0.50649 0.84873 0.0
C1180 C 0.03877 0.50671 0.88024 0.0
H1181 H 0.06904 0.5433 0.91572 0.0
C1182 C 0.07265 0.50054 0.87216 0.0
C1183 C 0.03758 0.52209 0.89622 0.0
C1184 C 1.00234 0.53078 0.9054 0.0
C1185 C 0.10518 0.50987 0.87947 0.0
C1186 C 0.10397 0.52546 0.89541 0.0
C1187 C 0.07007 0.53095 0.90359 0.0
C1188 C 0.1372 0.54058 0.90305 0.0
C1189 C 0.14066 0.50442 0.86985 0.0
C1190 C 0.16514 0.51958 0.90646 0.0
C1191 C 0.19634 0.53521 0.91339 0.0
C1192 C 0.20011 0.57211 0.91695 0.0
C1193 C 0.17168 0.59266 0.9137 0.0
C1194 C 0.14082 0.57717 0.90693 0.0
H1195 H 0.13702 0.49737 0.85692 0.0
H1196 H 0.15899 0.52874 0.87088 0.0
H1197 H 0.15401 0.48261 0.87467 0.0
H1198 H 0.16282 0.49117 0.9038 0.0
H1199 H 0.21757 0.51857 0.91574 0.0
H1200 H 0.821 0.56513 0.82686 0.0
H1201 H 0.8027 0.62092 0.84044 0.0
H1202 H 0.76805 0.56736 0.88323 0.0
H1203 H 0.78634 0.51087 0.86962 0.0
H1204 H 0.71967 0.61851 0.87578 0.0
H1205 H 0.8607 0.67641 0.87503 0.0
H1206 H 0.84732 0.65963 0.8556 0.0
H1207 H 0.84984 0.62957 0.87107 0.0
C1208 C 0.80914 0.5649 0.83912 0.0
C1209 C 0.80533 0.53321 0.84711 0.0
C1210 C 0.79892 0.59708 0.84693 0.0
C1211 C 0.78466 0.59874 0.86301 0.0
C1212 C 0.77924 0.56695 0.87086 0.0
H1213 H 0.77038 0.79613 0.92495 0.0
H1214 H 0.78523 0.73763 0.91269 0.0
C1215 C 0.78958 0.53457 0.86303 0.0
C1216 C 0.77622 0.63378 0.87157 0.0
H1217 H 0.81444 0.71607 0.88245 0.0
C1218 C 0.74044 0.63976 0.8773 0.0
C1219 C 0.80327 0.66159 0.8738 0.0
C1220 C 0.84251 0.65651 0.8687 0.0
C1221 C 0.7309 0.67286 0.88473 0.0
C1222 C 0.75774 0.70112 0.88638 0.0
C1223 C 0.79368 0.69476 0.88106 0.0
C1224 C 0.74915 0.73733 0.89363 0.0
C1225 C 0.69214 0.67711 0.89094 0.0
C1226 C 0.72456 0.75738 0.88686 0.0
C1227 C 0.71613 0.791 0.89381 0.0
C1228 C 0.73216 0.80563 0.90772 0.0
C1229 C 0.75746 0.78587 0.91426 0.0
C1230 C 0.76596 0.75228 0.90726 0.0
H1231 H 0.67734 0.65108 0.8928 0.0
H1232 H 0.69052 0.69364 0.90247 0.0
H1233 H 0.67824 0.69042 0.88203 0.0
H1234 H 0.7118 0.74704 0.87614 0.0
H1235 H 0.69659 0.8053 0.88837 0.0
H1236 H 0.49332 0.54141 0.67753 0.0
H1237 H 0.54946 0.56116 0.6623 0.0
H1238 H 0.55166 0.45873 0.63623 0.0
H1239 H 0.49482 0.43989 0.6506 0.0
H1240 H 0.61489 0.54387 0.65971 0.0
H1241 H 0.56763 0.5159 0.59898 0.0
H1242 H 0.53723 0.51328 0.61678 0.0
H1243 H 0.56365 0.47634 0.60959 0.0
C1244 C 0.50555 0.52332 0.66837 0.0
C1245 C 0.48906 0.48926 0.66512 0.0
C1246 C 0.53784 0.53457 0.65968 0.0
C1247 C 0.5548 0.51191 0.64767 0.0
C1248 C 0.53879 0.47749 0.64484 0.0
H1249 H 0.78351 0.55698 0.61132 0.0
H1250 H 0.72849 0.53411 0.6264 0.0
C1251 C 0.50619 0.46658 0.65322 0.0
C1252 C 0.58943 0.5238 0.63836 0.0
H1253 H 0.6314 0.525 0.6004 0.0
C1254 C 0.6183 0.53997 0.64672 0.0
C1255 C 0.59427 0.51945 0.62132 0.0
C1256 C 0.56389 0.50567 0.61116 0.0
C1257 C 0.65146 0.55152 0.63867 0.0
C1258 C 0.65691 0.54545 0.6217 0.0
C1259 C 0.62794 0.5294 0.61338 0.0
C1260 C 0.69125 0.55738 0.61216 0.0
C1261 C 0.67965 0.57128 0.64851 0.0
C1262 C 0.68935 0.57637 0.59845 0.0
C1263 C 0.72073 0.58819 0.58946 0.0
C1264 C 0.75531 0.58196 0.59396 0.0
C1265 C 0.75743 0.5624 0.60749 0.0
C1266 C 0.72581 0.54976 0.61631 0.0
H1267 H 0.66738 0.58337 0.65999 0.0
H1268 H 0.69921 0.55247 0.65156 0.0
H1269 H 0.69458 0.59263 0.64181 0.0
H1270 H 0.66342 0.58279 0.5948 0.0
H1271 H 0.71776 0.60337 0.57922 0.0
H1272 H 0.71898 0.31058 0.42557 0.0
H1273 H 0.71534 0.36261 0.41029 0.0
H1274 H 0.76089 0.30578 0.36771 0.0
H1275 H 0.76605 0.25394 0.38335 0.0
H1276 H 0.78568 0.37362 0.36824 0.0
H1277 H 0.63758 0.3716 0.38131 0.0
H1278 H 0.66042 0.37624 0.39946 0.0
H1279 H 0.66372 0.33634 0.38643 0.0
C1280 C 0.72856 0.30935 0.41298 0.0
C1281 C 0.74252 0.27811 0.40563 0.0
C1282 C 0.72614 0.33901 0.40418 0.0
C1283 C 0.73657 0.33798 0.38763 0.0
C1284 C 0.75222 0.30731 0.3804 0.0
H1285 H 0.69839 0.48118 0.31402 0.0
H1286 H 0.71679 0.43186 0.32822 0.0
C1287 C 0.75531 0.2777 0.38933 0.0
C1288 C 0.73031 0.36858 0.37797 0.0
H1289 H 0.66556 0.42366 0.37008 0.0
C1290 C 0.75933 0.38433 0.36857 0.0
C1291 C 0.69583 0.38263 0.37815 0.0
C1292 C 0.66257 0.36558 0.38673 0.0
C1293 C 0.75502 0.4141 0.35985 0.0
C1294 C 0.72091 0.42874 0.36056 0.0
C1295 C 0.69185 0.4128 0.36973 0.0
C1296 C 0.71437 0.46016 0.35164 0.0
C1297 C 0.78701 0.43019 0.3501 0.0
C1298 C 0.70739 0.4928 0.36001 0.0
C1299 C 0.69726 0.52128 0.3519 0.0
C1300 C 0.69324 0.51759 0.33523 0.0
C1301 C 0.70138 0.48516 0.32682 0.0
C1302 C 0.71192 0.45684 0.33492 0.0
H1303 H 0.81265 0.41871 0.35236 0.0
H1304 H 0.78271 0.42546 0.33711 0.0
H1305 H 0.78966 0.45932 0.35288 0.0
H1306 H 0.70888 0.49595 0.37292 0.0
H1307 H 0.69093 0.54564 0.35883 0.0
H1308 H 0.86394 0.41269 0.08862 0.0
H1309 H 0.91781 0.43872 0.10046 0.0
H1310 H 0.87654 0.54243 0.10157 0.0
H1311 H 0.82133 0.51613 0.08967 0.0
H1312 H 0.96948 0.48864 0.08954 0.0
H1313 H 0.90195 0.53522 0.14832 0.0
H1314 H 0.8795 0.50455 0.13423 0.0
H1315 H 0.88541 0.55077 0.13065 0.0
C1316 C 0.86597 0.44112 0.09133 0.0
C1317 C 0.83787 0.46224 0.08824 0.0
C1318 C 0.8971 0.456 0.0981 0.0
C1319 C 0.90132 0.4925 0.10212 0.0
C1320 C 0.87375 0.51406 0.09881 0.0
H1321 H 0.11318 0.58403 0.13138 0.0
H1322 H 0.0587 0.57031 0.11693 0.0
C1323 C 0.8423 0.49907 0.0919 0.0
C1324 C 0.93473 0.50699 0.10982 0.0
H1325 H 0.96534 0.54348 0.14528 0.0
C1326 C 0.96856 0.50104 0.10167 0.0
C1327 C 0.93366 0.52264 0.12575 0.0
C1328 C 0.89827 0.52853 0.13537 0.0
C1329 C 1.0011 0.5096 0.10903 0.0
C1330 C 1.00007 0.52515 0.12498 0.0
C1331 C 0.96627 0.53168 0.13306 0.0
C1332 C 0.03359 0.53353 0.13371 0.0
C1333 C 0.03624 0.5005 0.09987 0.0
C1334 C 0.03771 0.5179 0.14813 0.0
C1335 C 0.06887 0.5258 0.15648 0.0
C1336 C 0.09669 0.5497 0.15066 0.0
C1337 C 0.09256 0.56523 0.13617 0.0
C1338 C 0.06136 0.55734 0.12784 0.0
H1339 H 0.03187 0.48087 0.08955 0.0
H1340 H 0.04989 0.52487 0.09505 0.0
H1341 H 0.05462 0.48962 0.10782 0.0
H1342 H 1.01676 0.49948 0.15295 0.0
H1343 H 0.07091 0.51347 0.16762 0.0
H1344 H 0.83595 0.72483 0.61781 0.0
H1345 H 0.82082 0.78219 0.63118 0.0
H1346 H 0.74893 0.79635 0.59458 0.0
H1347 H 0.76377 0.73895 0.58117 0.0
H1348 H 0.8304 0.84989 0.61918 0.0
H1349 H 0.68546 0.81658 0.63618 0.0
H1350 H 0.71692 0.78311 0.62998 0.0
H1351 H 0.69878 0.80762 0.61523 0.0
C1352 C 0.81655 0.73988 0.61268 0.0
C1353 C 0.80093 0.72691 0.59842 0.0
C1354 C 0.80807 0.77288 0.62032 0.0
C1355 C 0.78344 0.79372 0.61404 0.0
C1356 C 0.76754 0.78071 0.59988 0.0
H1357 H 0.75206 0.02069 0.63893 0.0
H1358 H 0.77008 0.96412 0.62545 0.0
C1359 C 0.77614 0.74778 0.59218 0.0
C1360 C 0.77507 0.82928 0.62209 0.0
H1361 H 0.70622 0.87683 0.64031 0.0
C1362 C 0.80323 0.85575 0.62379 0.0
C1363 C 0.7397 0.83708 0.62828 0.0
C1364 C 0.70847 0.80957 0.62749 0.0
C1365 C 0.79696 0.88963 0.63131 0.0
C1366 C 0.76148 0.89761 0.63725 0.0
C1367 C 0.7334 0.87102 0.63568 0.0
C1368 C 0.75293 0.93281 0.64565 0.0
C1369 C 0.82857 0.91635 0.63316 0.0
C1370 C 0.73729 0.93445 0.66152 0.0
C1371 C 0.72708 0.96674 0.66926 0.0
C1372 C 0.73191 0.99849 0.66133 0.0
C1373 C 0.74828 0.997 0.64552 0.0
C1374 C 0.75863 0.96456 0.63778 0.0
H1375 H 0.85479 0.90368 0.63147 0.0
H1376 H 0.8285 0.93603 0.62398 0.0
H1377 H 0.82658 0.9308 0.64521 0.0
H1378 H 0.73252 0.91053 0.66791 0.0
H1379 H 0.71442 0.96656 0.68138 0.0
H1380 H 0.75684 0.9471 0.88503 0.0
H1381 H 0.81316 0.96764 0.87027 0.0
H1382 H 0.86544 0.98222 0.91466 0.0
H1383 H 0.80979 0.96064 0.92935 0.0
H1384 H 0.85608 0.02693 0.87034 0.0
H1385 H 0.93513 0.92087 0.88916 0.0
H1386 H 0.88671 0.92058 0.89295 0.0
H1387 H 0.91584 0.9469 0.90604 0.0
C1388 C 0.78023 0.95496 0.89169 0.0
C1389 C 0.77864 0.95191 0.90842 0.0
C1390 C 0.81259 0.96664 0.88319 0.0
C1391 C 0.84422 0.97563 0.89119 0.0
C1392 C 0.84205 0.97434 0.90802 0.0
H1393 H 0.05504 0.07637 0.86322 0.0
H1394 H 0.9977 0.05501 0.87679 0.0
C1395 C 0.80991 0.96234 0.91648 0.0
C1396 C 0.87936 0.98613 0.88201 0.0
H1397 H 0.96889 0.96821 0.87634 0.0
C1398 C 0.88059 1.01383 0.8716 0.0
C1399 C 0.91168 0.96901 0.8834 0.0
C1400 C 0.91228 0.93746 0.89335 0.0
C1401 C 0.91306 0.02535 0.86303 0.0
C1402 C 0.94537 1.00893 0.86485 0.0
C1403 C 0.94419 0.98098 0.87502 0.0
C1404 C 0.98073 0.02104 0.85653 0.0
C1405 C 0.91297 0.0554 0.8522 0.0
C1406 C 0.99069 1.00873 0.84062 0.0
C1407 C 0.02377 0.0207 0.8328 0.0
C1408 C 0.04758 0.04545 0.8407 0.0
C1409 C 0.03756 0.05735 0.85671 0.0
C1410 C 1.00467 0.04519 0.86452 0.0
H1411 H 0.88589 0.06611 0.85233 0.0
H1412 H 0.9327 0.07714 0.85601 0.0
H1413 H 0.92166 0.04605 0.83968 0.0
H1414 H 0.97272 0.99003 0.8342 0.0
H1415 H 0.03037 1.01103 0.82048 0.0
H1416 H 0.84584 0.0616 0.19347 0.0
H1417 H 0.82751 0.11146 0.17976 0.0
H1418 H 0.81101 0.04242 0.13732 0.0
H1419 H 0.82894 0.99224 0.15102 0.0
H1420 H 0.86303 0.13768 0.15309 0.0
H1421 H 0.72129 0.09896 0.14037 0.0
H1422 H 0.74458 0.07752 0.15474 0.0
H1423 H 0.75216 0.06568 0.13357 0.0
C1424 C 0.83748 0.05672 0.18135 0.0
C1425 C 0.8388 0.02268 0.17341 0.0
C1426 C 0.82713 0.08542 0.17348 0.0
C1427 C 0.81754 0.08089 0.1575 0.0
C1428 C 0.81754 0.04667 0.14973 0.0
H1429 H 0.83901 0.23484 0.08597 0.0
H1430 H 0.84123 0.18494 0.10253 0.0
C1431 C 0.82793 0.0179 0.1576 0.0
C1432 C 0.81084 0.11242 0.14859 0.0
H1433 H 0.75021 0.14724 0.12629 0.0
C1434 C 0.83819 0.13981 0.14737 0.0
C1435 C 0.77835 0.11561 0.14117 0.0
C1436 C 0.74724 0.08806 0.14263 0.0
C1437 C 0.83446 0.16952 0.13862 0.0
C1438 C 0.80261 0.17204 0.13068 0.0
C1439 C 0.77473 0.14527 0.13227 0.0
C1440 C 0.79889 0.20155 0.12011 0.0
C1441 C 0.8648 0.19806 0.13792 0.0
C1442 C 0.77347 0.22721 0.12413 0.0
C1443 C 0.77225 0.25629 0.11465 0.0
C1444 C 0.79639 0.26019 0.10092 0.0
C1445 C 0.82063 0.23346 0.09664 0.0
C1446 C 0.82187 0.20467 0.10609 0.0
H1447 H 0.88307 0.19672 0.14771 0.0
H1448 H 0.88106 0.19461 0.12626 0.0
H1449 H 0.85404 0.22479 0.13878 0.0
H1450 H 0.7553 0.22532 0.13486 0.0
H1451 H 0.75328 0.27624 0.11837 0.0
H1452 H 0.7045 0.11622 0.39729 0.0
H1453 H 0.65135 0.09109 0.38431 0.0
H1454 H 0.64599 1.00149 0.41345 0.0
H1455 H 0.70014 0.02669 0.42661 0.0
H1456 H 0.63872 0.02067 0.36727 0.0
H1457 H 0.54365 0.0463 0.42112 0.0
H1458 H 0.58788 0.06908 0.41896 0.0
H1459 H 0.58356 0.02344 0.42351 0.0
C1460 C 0.69232 0.09098 0.40093 0.0
C1461 C 0.7066 0.07357 0.41309 0.0
C1462 C 0.66184 0.07663 0.39343 0.0
C1463 C 0.64429 0.04462 0.39798 0.0
C1464 C 0.65887 0.02645 0.40984 0.0
H1465 H 0.43459 0.95227 0.36838 0.0
H1466 H 0.4899 0.96663 0.38208 0.0
C1467 C 0.68995 0.0407 0.41726 0.0
C1468 C 0.61043 0.03133 0.39038 0.0
H1469 H 0.51834 0.02433 0.39725 0.0
C1470 C 0.6124 0.02113 0.37385 0.0
C1471 C 0.57604 0.03198 0.39892 0.0
C1472 C 0.57228 0.04342 0.4166 0.0
C1473 C 0.58109 1.01171 0.36566 0.0
C1474 C 0.5465 1.01363 0.37406 0.0
C1475 C 0.54463 0.02307 0.3907 0.0
C1476 C 0.51206 1.00588 0.36586 0.0
C1477 C 0.58556 0.99925 0.3481 0.0
C1478 C 0.50519 0.02373 0.35234 0.0
C1479 C 0.47352 1.01535 0.34436 0.0
C1480 C 0.44758 0.98929 0.34984 0.0
C1481 C 0.45387 0.97246 0.36375 0.0
C1482 C 0.48563 0.98064 0.37163 0.0
H1483 H 0.61248 0.98859 0.3449 0.0
H1484 H 0.56441 0.97837 0.34492 0.0
H1485 H 0.58343 0.022 0.34068 0.0
H1486 H 0.52441 0.04413 0.34788 0.0
H1487 H 0.46957 0.02905 0.33378 0.0
H1488 H 0.20168 0.30633 0.3879 0.0
H1489 H 0.21697 0.24873 0.37495 0.0
H1490 H 0.28892 0.23609 0.41172 0.0
H1491 H 0.27387 0.29389 0.42476 0.0
H1492 H 0.31865 0.21638 0.38079 0.0
H1493 H 0.18121 0.15175 0.39085 0.0
H1494 H 0.18251 0.19207 0.38075 0.0
H1495 H 0.19497 0.19347 0.40113 0.0
C1496 C 0.22095 0.29149 0.39323 0.0
C1497 C 0.23643 0.30498 0.40746 0.0
C1498 C 0.22944 0.25826 0.38585 0.0
C1499 C 0.2536 0.23747 0.39248 0.0
C1500 C 0.26998 0.25133 0.40639 0.0
H1501 H 0.29041 1.01186 0.36678 0.0
H1502 H 0.27246 0.06809 0.38072 0.0
C1503 C 0.26138 0.28453 0.41384 0.0
C1504 C 0.26196 0.20154 0.38483 0.0
H1505 H 0.22335 0.11953 0.37363 0.0
C1506 C 0.29778 0.19523 0.37929 0.0
C1507 C 0.23496 0.17351 0.383 0.0
C1508 C 0.1963 0.17778 0.38937 0.0
C1509 C 0.3071 0.16229 0.37166 0.0
C1510 C 0.27989 0.13468 0.36931 0.0
C1511 C 0.24422 0.14063 0.37524 0.0
C1512 C 0.28807 0.0998 0.36053 0.0
C1513 C 0.3462 0.1572 0.36629 0.0
C1514 C 0.30166 0.09842 0.34435 0.0
C1515 C 0.31164 0.06634 0.33633 0.0
C1516 C 0.30831 0.03452 0.34422 0.0
C1517 C 0.29326 0.03565 0.36025 0.0
C1518 C 0.28311 0.06789 0.36828 0.0
H1519 H 0.36464 0.17701 0.37252 0.0
H1520 H 0.35358 0.13021 0.36855 0.0
H1521 H 0.35057 0.16038 0.35318 0.0
H1522 H 0.30513 0.12238 0.33794 0.0
H1523 H 0.32302 0.06675 0.324 0.0
H1524 H 1.00852 0.0226 0.18603 0.0
H1525 H 0.06531 0.04214 0.17121 0.0
H1526 H 0.02778 0.99019 0.12753 0.0
H1527 H 0.97129 0.97015 0.14224 0.0
H1528 H 0.11554 0.99114 0.14997 0.0
H1529 H 0.06299 0.09801 0.11797 0.0
H1530 H 0.04163 0.08376 0.13679 0.0
H1531 H 0.03658 0.05639 0.11859 0.0
C1532 C 1.01215 1.01559 0.17324 0.0
C1533 C 0.98505 0.99482 0.16537 0.0
C1534 C 0.04478 0.02667 0.16478 0.0
C1535 C 0.05095 0.01777 0.1482 0.0
C1536 C 0.02373 0.9976 0.14027 0.0
H1537 H 0.2208 0.07463 0.07416 0.0
H1538 H 0.16556 0.05322 0.08931 0.0
C1539 C 0.99134 0.98615 0.14874 0.0
C1540 C 0.08602 0.02879 0.13921 0.0
H1541 H 0.12345 0.08473 0.1112 0.0
C1542 C 0.11735 1.01172 0.14154 0.0
C1543 C 0.08843 0.05531 0.12805 0.0
C1544 C 0.05577 0.07471 0.12516 0.0
C1545 C 0.15072 0.01996 0.13286 0.0
C1546 C 0.1534 0.04699 0.12183 0.0
C1547 C 0.12188 0.06407 0.11958 0.0
C1548 C 0.1883 0.05797 0.11246 0.0
C1549 C 0.18236 0.99857 0.13523 0.0
C1550 C 0.22016 0.06775 0.1202 0.0
C1551 C 0.25215 0.07943 0.11145 0.0
C1552 C 0.25314 0.0824 0.09473 0.0
C1553 C 0.22133 0.07249 0.08698 0.0
C1554 C 0.1895 0.06039 0.0957 0.0
H1555 H 0.17326 0.97219 0.13959 0.0
H1556 H 0.19974 0.99452 0.1239 0.0
H1557 H 0.19889 1.0128 0.14444 0.0
H1558 H 0.22013 0.06736 0.13313 0.0
H1559 H 0.2758 0.08738 0.11793 0.0
H1560 H 0.18883 0.97992 0.81729 0.0
H1561 H 0.20622 0.93084 0.83174 0.0
H1562 H 0.22105 1.0018 0.87373 0.0
H1563 H 0.2028 0.05107 0.85944 0.0
H1564 H 0.26516 0.91529 0.84675 0.0
H1565 H 0.14732 0.92838 0.8914 0.0
H1566 H 0.15246 0.95222 0.8734 0.0
H1567 H 0.17726 0.9675 0.89045 0.0
C1568 C 0.19626 0.98533 0.82954 0.0
C1569 C 0.19407 0.01958 0.83721 0.0
C1570 C 0.20622 0.95709 0.83781 0.0
C1571 C 0.21422 0.96224 0.85399 0.0
C1572 C 0.21414 0.99682 0.8614 0.0
H1573 H 0.2913 0.79046 0.90699 0.0
H1574 H 0.28978 0.84465 0.89262 0.0
C1575 C 0.204 0.02511 0.85314 0.0
C1576 C 0.22071 0.93109 0.86319 0.0
H1577 H 0.18708 0.88459 0.89524 0.0
C1578 C 0.24821 0.90869 0.85741 0.0
C1579 C 0.19832 0.92201 0.87699 0.0
C1580 C 0.16697 0.94354 0.88338 0.0
C1581 C 0.25374 0.87757 0.86495 0.0
C1582 C 0.23153 0.86872 0.87883 0.0
C1583 C 0.20433 0.89135 0.88469 0.0
C1584 C 0.23403 0.835 0.88689 0.0
C1585 C 0.28242 0.85378 0.85761 0.0
C1586 C 0.20336 0.81143 0.88859 0.0
C1587 C 0.20415 0.78076 0.89685 0.0
C1588 C 0.23563 0.77263 0.90375 0.0
C1589 C 0.26673 0.79572 0.90173 0.0
C1590 C 0.26587 0.82672 0.89348 0.0
H1591 H 0.2911 0.85976 0.84502 0.0
H1592 H 0.30644 0.85776 0.86474 0.0
H1593 H 0.27256 0.82547 0.85773 0.0
H1594 H 0.17852 0.8169 0.88357 0.0
H1595 H 0.17986 0.76339 0.89788 0.0
H1596 H 0.56887 1.01144 0.67116 0.0
H1597 H 0.51507 0.99695 0.65621 0.0
H1598 H 0.55712 0.06838 0.62044 0.0
H1599 H 0.61116 0.08229 0.63505 0.0
H1600 H 0.463 0.03856 0.64826 0.0
H1601 H 0.5328 0.98039 0.59244 0.0
H1602 H 0.55507 0.9896 0.61081 0.0
H1603 H 0.54962 0.02472 0.59803 0.0
C1604 C 0.56689 0.02374 0.66001 0.0
C1605 C 0.59467 0.04779 0.65427 0.0
C1606 C 0.53595 1.01559 0.6515 0.0
C1607 C 0.53202 0.03117 0.63702 0.0
C1608 C 0.55966 0.0553 0.63134 0.0
H1609 H 0.32135 1.01523 0.5917 0.0
H1610 H 0.37566 0.04079 0.60457 0.0
C1611 C 0.59063 0.06333 0.63978 0.0
C1612 C 0.49896 0.02245 0.62799 0.0
H1613 H 0.47065 0.98904 0.59164 0.0
C1614 C 0.46469 0.02781 0.63586 0.0
C1615 C 0.50094 1.00825 0.6118 0.0
C1616 C 0.53653 1.00006 0.6028 0.0
C1617 C 0.43259 0.01907 0.62811 0.0
C1618 C 0.43464 1.00509 0.6119 0.0
C1619 C 0.46893 1.0002 0.60398 0.0
C1620 C 0.40185 0.99125 0.60352 0.0
C1621 C 0.39672 0.02357 0.63754 0.0
C1622 C 0.3988 0.95534 0.59817 0.0
C1623 C 0.36826 0.94094 0.59079 0.0
C1624 C 0.33954 0.96194 0.58842 0.0
C1625 C 0.34285 0.99828 0.59333 0.0
C1626 C 0.37376 1.01281 0.60083 0.0
H1627 H 0.39968 0.02817 0.65066 0.0
H1628 H 0.38416 0.04673 0.63348 0.0
H1629 H 0.37804 0.99981 0.63548 0.0
H1630 H 0.41992 0.93806 0.59999 0.0
H1631 H 0.36709 0.91291 0.5871 0.0
H1632 H 0.21926 0.18812 0.00795 0.0
H1633 H 0.21636 0.19661 0.97956 0.0
H1634 H 0.31747 0.14757 0.9687 0.0
H1635 H 0.31979 0.13735 0.99712 0.0
H1636 H 0.26292 0.23279 0.95793 0.0
H1637 H 0.24968 0.0882 0.93996 0.0
H1638 H 0.24525 0.10508 0.96071 0.0
H1639 H 0.28914 0.10368 0.95011 0.0
C1640 C 0.24072 0.1787 0.99957 0.0
C1641 C 0.26945 0.16148 0.00485 0.0
C1642 C 0.23924 0.184 0.98334 0.0
C1643 C 0.26646 0.17233 0.97202 0.0
C1644 C 0.29589 0.15626 0.97723 0.0
H1645 H 0.23802 0.15981 0.86861 0.0
H1646 H 0.27041 0.16476 0.89304 0.0
C1647 C 0.2973 0.15073 0.99351 0.0
C1648 C 0.26265 0.17583 0.95476 0.0
H1649 H 0.24388 0.12731 0.92009 0.0
C1650 C 0.25931 0.20977 0.94957 0.0
C1651 C 0.25815 0.14575 0.94387 0.0
C1652 C 0.26045 0.10856 0.94889 0.0
C1653 C 0.24985 0.21431 0.93399 0.0
C1654 C 0.24337 0.18411 0.92345 0.0
C1655 C 0.24895 0.15038 0.92827 0.0
C1656 C 0.22627 0.18623 0.90824 0.0
C1657 C 0.24581 0.25124 0.9291 0.0
C1658 C 0.19089 0.19702 0.90871 0.0
C1659 C 0.17206 0.19368 0.89486 0.0
C1660 C 0.18821 0.17934 0.88025 0.0
C1661 C 0.2244 0.17024 0.87968 0.0
C1662 C 0.24314 0.17335 0.8936 0.0
H1663 H 0.26214 0.27131 0.93627 0.0
H1664 H 0.25406 0.25346 0.91614 0.0
H1665 H 0.21704 0.25751 0.93123 0.0
H1666 H 0.17714 0.20632 0.91998 0.0
H1667 H 0.14423 0.20064 0.8959 0.0
H1668 H 0.72753 0.37856 0.12568 0.0
H1669 H 0.70496 0.39445 0.15339 0.0
H1670 H 0.64698 0.47794 0.1371 0.0
H1671 H 0.66953 0.46253 0.10934 0.0
H1672 H 0.71776 0.47165 0.16752 0.0
H1673 H 0.57458 0.41687 0.16936 0.0
H1674 H 0.60946 0.39806 0.15569 0.0
H1675 H 0.59287 0.43978 0.15208 0.0
C1676 C 0.70952 0.39994 0.12794 0.0
C1677 C 0.70044 0.41941 0.11534 0.0
C1678 C 0.69674 0.40898 0.14376 0.0
C1679 C 0.67434 0.43724 0.14717 0.0
C1680 C 0.66408 0.45588 0.13461 0.0
H1681 H 0.62588 0.55003 0.24053 0.0
H1682 H 0.63686 0.53587 0.21159 0.0
C1683 C 0.67705 0.44707 0.11879 0.0
C1684 C 0.66409 0.44898 0.164 0.0
H1685 H 0.59407 0.44801 0.19295 0.0
C1686 C 0.6907 0.4667 0.1731 0.0
C1687 C 0.62876 0.44238 0.17107 0.0
C1688 C 0.59961 0.42311 0.16165 0.0
C1689 C 0.68293 0.4778 0.18928 0.0
C1690 C 0.64769 0.47093 0.19642 0.0
C1691 C 0.62097 0.45341 0.1873 0.0
C1692 C 0.63904 0.47957 0.2137 0.0
C1693 C 0.71254 0.496 0.19879 0.0
C1694 C 0.63642 0.4525 0.2243 0.0
C1695 C 0.63071 0.46046 0.2408 0.0
C1696 C 0.62717 0.4957 0.24703 0.0
C1697 C 0.62902 0.52271 0.23624 0.0
C1698 C 0.63501 0.51469 0.2197 0.0
H1699 H 0.73927 0.49641 0.19184 0.0
H1700 H 0.70596 0.52375 0.20233 0.0
H1701 H 0.71447 0.48246 0.21 0.0
H1702 H 0.63972 0.42526 0.21981 0.0
H1703 H 0.63001 0.43895 0.24864 0.0
H1704 H 0.29212 0.94852 0.5212 0.0
H1705 H 0.31029 0.93907 0.49265 0.0
H1706 H 0.33195 0.83107 0.49938 0.0
H1707 H 0.31345 0.84018 0.52815 0.0
H1708 H 0.37545 0.91441 0.47541 0.0
H1709 H 0.25275 0.82413 0.46651 0.0
H1710 H 0.25732 0.85266 0.48457 0.0
H1711 H 0.28217 0.81354 0.48128 0.0
C1712 C 0.30117 0.92284 0.51669 0.0
C1713 C 0.30094 0.89495 0.52688 0.0
C1714 C 0.31166 0.91755 0.50038 0.0
C1715 C 0.32196 0.88428 0.49393 0.0
C1716 C 0.32363 0.85682 0.50416 0.0
H1717 H 0.33701 0.82693 0.39021 0.0
H1718 H 0.34014 0.82334 0.41914 0.0
C1719 C 0.31322 0.86212 0.52057 0.0
C1720 C 0.32821 0.87822 0.47632 0.0
H1721 H 0.28798 0.84047 0.44343 0.0
C1722 C 0.3567 0.89783 0.46839 0.0
C1723 C 0.30364 0.85654 0.46726 0.0
C1724 C 0.27207 0.8356 0.47525 0.0
C1725 C 0.36061 0.89721 0.45156 0.0
C1726 C 0.33493 0.87701 0.44253 0.0
C1727 C 0.30751 0.85603 0.45043 0.0
C1728 C 0.33434 0.87929 0.42499 0.0
C1729 C 0.39186 0.91862 0.44362 0.0
C1730 C 0.32937 0.91183 0.41877 0.0
C1731 C 0.32729 0.91394 0.40229 0.0
C1732 C 0.32987 0.88347 0.39172 0.0
C1733 C 0.33449 0.85082 0.39803 0.0
C1734 C 0.3366 0.84874 0.41453 0.0
H1735 H 0.41464 0.9232 0.4515 0.0
H1736 H 0.40183 0.90523 0.43201 0.0
H1737 H 0.38282 0.94488 0.4412 0.0
H1738 H 0.32651 0.93554 0.42671 0.0
H1739 H 0.32308 0.93934 0.39787 0.0
H1740 H 0.96538 0.58207 0.62914 0.0
H1741 H 0.96997 0.56277 0.65599 0.0
H1742 H 0.86601 0.60265 0.67125 0.0
H1743 H 0.86196 0.62378 0.64468 0.0
H1744 H 0.9165 0.62197 0.69245 0.0
H1745 H 0.91603 0.4775 0.67551 0.0
H1746 H 0.95079 0.50354 0.66475 0.0
H1747 H 0.90411 0.5091 0.66202 0.0
C1748 C 0.94362 0.58714 0.63821 0.0
C1749 C 0.91321 0.60446 0.6347 0.0
C1750 C 0.94609 0.57558 0.65349 0.0
C1751 C 0.91801 0.58068 0.66545 0.0
C1752 C 0.8878 0.59819 0.66208 0.0
H1753 H 0.86895 0.48943 0.75583 0.0
H1754 H 0.87447 0.50293 0.72757 0.0
C1755 C 0.88543 0.61003 0.64685 0.0
C1756 C 0.92051 0.56888 0.68168 0.0
H1757 H 0.92737 0.49588 0.70249 0.0
C1758 C 0.91889 0.59442 0.69467 0.0
C1759 C 0.92331 0.53285 0.68445 0.0
C1760 C 0.92332 0.50408 0.67097 0.0
C1761 C 0.91974 0.5849 0.71046 0.0
C1762 C 0.92336 0.549 0.71322 0.0
C1763 C 0.9251 0.52343 0.70023 0.0
C1764 C 0.92304 0.53734 0.72963 0.0
C1765 C 0.91553 0.6132 0.72405 0.0
C1766 C 0.94932 0.55121 0.73989 0.0
C1767 C 0.94602 0.54379 0.75603 0.0
C1768 C 0.91675 0.52196 0.76202 0.0
C1769 C 0.89183 0.50622 0.75147 0.0
C1770 C 0.89491 0.51396 0.73537 0.0
H1771 H 0.90426 0.63725 0.72011 0.0
H1772 H 0.89757 0.60318 0.7342 0.0
H1773 H 0.9424 0.62115 0.72852 0.0
H1774 H 0.97169 0.56864 0.73553 0.0
H1775 H 0.96592 0.55564 0.76391 0.0
H1776 H 0.82021 0.92309 0.13023 0.0
H1777 H 0.7943 0.9208 0.10424 0.0
H1778 H 0.8494 0.82606 0.08916 0.0
H1779 H 0.87502 0.828 0.11534 0.0
H1780 H 0.83079 0.92569 0.07551 0.0
H1781 H 0.74857 0.79815 0.07599 0.0
H1782 H 0.7666 0.81968 0.09388 0.0
H1783 H 0.79476 0.7936 0.07978 0.0
C1784 C 0.8268 0.90178 0.12137 0.0
C1785 C 0.84982 0.87582 0.12472 0.0
C1786 C 0.81177 0.90035 0.1066 0.0
C1787 C 0.8195 0.87298 0.09488 0.0
C1788 C 0.84232 0.84688 0.0982 0.0
H1789 H 0.80893 0.83866 0.99394 0.0
H1790 H 0.81714 0.83657 0.02255 0.0
C1791 C 0.85711 0.84811 0.11308 0.0
C1792 C 0.80591 0.87342 0.07878 0.0
H1793 H 0.76042 0.82321 0.0504 0.0
C1794 C 0.81494 0.9035 0.07011 0.0
C1795 C 0.78516 0.84444 0.07182 0.0
C1796 C 0.77288 0.8123 0.08092 0.0
C1797 C 0.80494 0.90487 0.0544 0.0
C1798 C 0.7853 0.87546 0.04727 0.0
C1799 C 0.7755 0.84567 0.05601 0.0
C1800 C 0.77725 0.87433 0.0303 0.0
C1801 C 0.81655 0.93717 0.04529 0.0
C1802 C 0.75158 0.89578 0.02535 0.0
C1803 C 0.74688 0.89709 0.009 0.0
C1804 C 0.76803 0.87715 0.99746 0.0
C1805 C 0.79278 0.85478 1.00257 0.0
C1806 C 0.79726 0.8533 0.01887 0.0
H1807 H 0.83529 0.95595 0.05192 0.0
H1808 H 0.83006 0.92919 0.03337 0.0
H1809 H 0.79238 0.95127 0.04317 0.0
H1810 H 0.73588 0.91211 0.0341 0.0
H1811 H 0.72773 0.91462 0.00537 0.0
H1812 H 0.3008 0.65022 0.87962 0.0
H1813 H 0.32434 0.63388 0.85217 0.0
H1814 H 0.40252 0.57125 0.87042 0.0
H1815 H 0.37787 0.58613 0.89791 0.0
H1816 H 0.38693 0.64211 0.83556 0.0
H1817 H 0.35365 0.49839 0.84116 0.0
H1818 H 0.33911 0.53153 0.85642 0.0
H1819 H 0.3845 0.51735 0.85532 0.0
C1820 C 0.32321 0.6332 0.87779 0.0
C1821 C 0.33723 0.61907 0.89086 0.0
C1822 C 0.33662 0.62386 0.8621 0.0
C1823 C 0.36457 0.6006 0.85923 0.0
C1824 C 0.38015 0.58827 0.87233 0.0
H1825 H 0.46507 0.56761 0.76124 0.0
H1826 H 0.45553 0.58379 0.79012 0.0
C1827 C 0.36626 0.59704 0.88802 0.0
C1828 C 0.37641 0.58857 0.8425 0.0
H1829 H 0.38499 0.51478 0.81687 0.0
C1830 C 0.38657 0.61427 0.83146 0.0
C1831 C 0.37537 0.55222 0.83714 0.0
C1832 C 0.36223 0.52329 0.84808 0.0
C1833 C 0.39518 0.6047 0.81516 0.0
C1834 C 0.39504 0.56832 0.80988 0.0
C1835 C 0.38543 0.54262 0.82097 0.0
C1836 C 0.40257 0.55634 0.79275 0.0
C1837 C 0.40277 0.63376 0.8037 0.0
C1838 C 0.37694 0.53391 0.78486 0.0
C1839 C 0.38284 0.52391 0.76852 0.0
C1840 C 0.41425 0.53655 0.75976 0.0
C1841 C 0.4404 0.55806 0.76775 0.0
C1842 C 0.43485 0.56747 0.78417 0.0
H1843 H 0.39174 0.65906 0.80878 0.0
H1844 H 0.43242 0.63862 0.80138 0.0
H1845 H 0.39098 0.62628 0.79205 0.0
H1846 H 0.35191 0.52486 0.79125 0.0
H1847 H 0.36224 0.50746 0.76257 0.0
H1848 H 0.72082 0.09423 0.60658 0.0
H1849 H 0.71583 0.09827 0.57781 0.0
H1850 H 0.702 0.21037 0.58586 0.0
H1851 H 0.70691 0.20654 0.61465 0.0
H1852 H 0.6586 0.12195 0.56187 0.0
H1853 H 0.7864 0.20519 0.55125 0.0
H1854 H 0.77589 0.18229 0.56937 0.0
H1855 H 0.75458 0.22231 0.56669 0.0
C1856 C 0.71659 0.1197 0.60224 0.0
C1857 C 0.71453 0.15009 0.61289 0.0
C1858 C 0.71378 0.12198 0.58581 0.0
C1859 C 0.70891 0.15467 0.57972 0.0
C1860 C 0.70642 0.18501 0.5903 0.0
H1861 H 0.7239 0.19535 0.47756 0.0
H1862 H 0.70543 0.20344 0.50634 0.0
C1863 C 0.70937 0.18279 0.60673 0.0
C1864 C 0.70685 0.1568 0.56224 0.0
H1865 H 0.75279 0.1892 0.52895 0.0
C1866 C 0.67899 0.13691 0.55467 0.0
C1867 C 0.73333 0.17659 0.55293 0.0
C1868 C 0.76443 0.19763 0.5604 0.0
C1869 C 0.67751 0.13545 0.53792 0.0
C1870 C 0.70484 0.15401 0.52856 0.0
C1871 C 0.73175 0.17517 0.5362 0.0
C1872 C 0.70899 0.14835 0.51085 0.0
C1873 C 0.64708 0.11358 0.53037 0.0
C1874 C 0.71631 0.11461 0.50385 0.0
C1875 C 0.72699 0.10996 0.48752 0.0
C1876 C 0.73064 0.13902 0.47788 0.0
C1877 C 0.72117 0.17245 0.48468 0.0
C1878 C 0.71071 0.17713 0.50111 0.0
H1879 H 0.62281 0.11101 0.53896 0.0
H1880 H 0.63949 0.12536 0.51944 0.0
H1881 H 0.65587 0.08653 0.52684 0.0
H1882 H 0.71586 0.09219 0.5112 0.0
H1883 H 0.73405 0.08387 0.48262 0.0
H1884 H 0.17506 0.40659 0.36014 0.0
H1885 H 0.17174 0.42849 0.33365 0.0
H1886 H 0.06692 0.46695 0.34844 0.0
H1887 H 0.07075 0.44683 0.37521 0.0
H1888 H 0.1221 0.40929 0.31203 0.0
H1889 H 0.12084 0.55333 0.32977 0.0
H1890 H 0.13265 0.52144 0.34314 0.0
H1891 H 0.08603 0.52669 0.34018 0.0
C1892 C 0.15154 0.42017 0.35787 0.0
C1893 C 0.12329 0.42512 0.36986 0.0
C1894 C 0.14959 0.43246 0.3427 0.0
C1895 C 0.11936 0.44981 0.33924 0.0
C1896 C 0.09082 0.45428 0.35103 0.0
H1897 H 0.07364 0.47664 0.24078 0.0
H1898 H 0.06734 0.46333 0.26912 0.0
C1899 C 0.09285 0.44224 0.36625 0.0
C1900 C 0.11731 0.46207 0.32306 0.0
H1901 H 0.11046 0.5356 0.30261 0.0
C1902 C 0.11955 0.43689 0.30994 0.0
C1903 C 0.11432 0.49816 0.32047 0.0
C1904 C 0.11366 0.52655 0.33411 0.0
C1905 C 0.11907 0.44683 0.2942 0.0
C1906 C 0.11519 0.48278 0.29162 0.0
C1907 C 0.1129 0.50801 0.30473 0.0
C1908 C 0.11569 0.49482 0.27528 0.0
C1909 C 0.1239 0.41893 0.28048 0.0
C1910 C 0.14378 0.51845 0.26971 0.0
C1911 C 0.14715 0.52637 0.25363 0.0
C1912 C 0.12257 0.51055 0.24294 0.0
C1913 C 0.09329 0.48854 0.24877 0.0
C1914 C 0.08969 0.48095 0.26488 0.0
H1915 H 0.13533 0.39489 0.28435 0.0
H1916 H 0.09723 0.41082 0.27584 0.0
H1917 H 0.14199 0.42939 0.27047 0.0
H1918 H 0.164 0.52948 0.27762 0.0
H1919 H 0.17002 0.54331 0.24939 0.0
H1920 H 0.64902 0.71777 0.38871 0.0
H1921 H 0.67179 0.72359 0.41561 0.0
H1922 H 0.7276 0.62775 0.40465 0.0
H1923 H 0.70527 0.62193 0.37783 0.0
H1924 H 0.65881 0.66535 0.43813 0.0
H1925 H 0.80402 0.7045 0.42359 0.0
H1926 H 0.7692 0.71201 0.41056 0.0
H1927 H 0.78454 0.66834 0.41126 0.0
C1928 C 0.66647 0.69824 0.39202 0.0
C1929 C 0.67518 0.66929 0.38128 0.0
C1930 C 0.67938 0.70156 0.40732 0.0
C1931 C 0.70162 0.67629 0.41192 0.0
C1932 C 0.71082 0.6477 0.40116 0.0
H1933 H 0.79371 0.6274 0.49838 0.0
H1934 H 0.78008 0.63315 0.47048 0.0
C1935 C 0.69768 0.6442 0.38596 0.0
C1936 C 0.71305 0.67812 0.42841 0.0
H1937 H 0.78707 0.68898 0.45025 0.0
C1938 C 0.68676 0.67088 0.44086 0.0
C1939 C 0.7496 0.68483 0.43172 0.0
C1940 C 0.77857 0.69311 0.41862 0.0
C1941 C 0.69619 0.66937 0.45665 0.0
C1942 C 0.73277 0.67635 0.46005 0.0
C1943 C 0.75907 0.68382 0.44757 0.0
C1944 C 0.74407 0.67544 0.4765 0.0
C1945 C 0.66707 0.65912 0.46941 0.0
C1946 C 0.72935 0.69817 0.48892 0.0
C1947 C 0.73676 0.69464 0.50476 0.0
C1948 C 0.75953 0.66877 0.50838 0.0
C1949 C 0.77608 0.64751 0.49583 0.0
C1950 C 0.76829 0.65075 0.47996 0.0
H1951 H 0.64301 0.64543 0.46408 0.0
H1952 H 0.67726 0.64147 0.47781 0.0
H1953 H 0.65822 0.68339 0.47644 0.0
H1954 H 0.71138 0.71803 0.48641 0.0
H1955 H 0.72436 0.71185 0.51422 0.0
H1956 H 0.18086 0.96799 0.6107 0.0
H1957 H 0.16143 0.98441 0.63865 0.0
H1958 H 0.20362 0.88966 0.65329 0.0
H1959 H 0.22391 0.87325 0.62531 0.0
H1960 H 0.1161 0.95184 0.66158 0.0
H1961 H 0.25694 0.96862 0.67972 0.0
H1962 H 0.24646 0.96344 0.65895 0.0
H1963 H 0.24497 0.9254 0.67068 0.0
C1964 C 0.18575 0.95039 0.61982 0.0
C1965 C 0.20432 0.91947 0.6158 0.0
C1966 C 0.17459 0.95986 0.6358 0.0
C1967 C 0.18176 0.93864 0.64805 0.0
C1968 C 0.19858 0.90681 0.64402 0.0
H1969 H 0.09695 0.95481 0.74736 0.0
H1970 H 0.10844 0.93937 0.71869 0.0
C1971 C 0.20992 0.89735 0.62803 0.0
C1972 C 0.17272 0.95063 0.66506 0.0
H1973 H 0.21022 0.97374 0.70058 0.0
C1974 C 0.13664 0.95667 0.67012 0.0
C1975 C 0.19972 0.95766 0.67607 0.0
C1976 C 0.23925 0.95381 0.67109 0.0
C1977 C 0.12671 0.9689 0.68601 0.0
C1978 C 0.15353 0.9746 0.69716 0.0
C1979 C 0.18968 0.96916 0.69202 0.0
C1980 C 0.14472 0.98536 0.71434 0.0
C1981 C 0.08772 0.97613 0.69062 0.0
C1982 C 0.16164 1.01616 0.72148 0.0
C1983 C 0.15558 0.02479 0.73798 0.0
C1984 C 0.13265 1.00261 0.74765 0.0
C1985 C 0.11513 0.97223 0.74034 0.0
C1986 C 0.12128 0.96359 0.72388 0.0
H1987 H 0.07321 0.98082 0.67994 0.0
H1988 H 0.07392 0.95276 0.69626 0.0
H1989 H 0.08553 0.9995 0.69938 0.0
H1990 H 0.18003 0.0332 0.71433 0.0
H1991 H 0.1698 0.04815 0.74322 0.0
H1992 H 0.8287 0.32132 0.89045 0.0
H1993 H 0.83307 0.31647 0.91926 0.0
H1994 H 0.81304 0.42714 0.92831 0.0
H1995 H 0.80853 0.43216 0.8996 0.0
H1996 H 0.87313 0.40531 0.94343 0.0
H1997 H 0.74847 0.31736 0.95434 0.0
H1998 H 0.78084 0.30268 0.93854 0.0
H1999 H 0.75699 0.34145 0.93645 0.0
C2000 C 0.82468 0.34446 0.89861 0.0
C2001 C 0.81817 0.37713 0.89278 0.0
C2002 C 0.82734 0.34167 0.91503 0.0
C2003 C 0.82321 0.37141 0.92585 0.0
C2004 C 0.81647 0.40394 0.92009 0.0
H2005 H 0.79417 0.44766 0.02118 0.0
H2006 H 0.81245 0.43666 0.99273 0.0
C2007 C 0.81393 0.40678 0.90371 0.0
C2008 C 0.82585 0.36911 0.94324 0.0
H2009 H 0.78028 0.33731 0.97671 0.0
C2010 C 0.85314 0.39007 0.95071 0.0
C2011 C 0.79993 0.3489 0.95262 0.0
C2012 C 0.76971 0.32644 0.94517 0.0
C2013 C 0.85423 0.39261 0.96746 0.0
C2014 C 0.82708 0.37405 0.9769 0.0
C2015 C 0.80109 0.35143 0.96938 0.0
C2016 C 0.82195 0.38142 0.99447 0.0
C2017 C 0.8838 0.41589 0.97495 0.0
C2018 C 0.82145 0.354 0.00487 0.0
C2019 C 0.81096 0.3602 0.0212 0.0
C2020 C 0.80024 0.39379 0.02724 0.0
C2021 C 0.80221 0.42149 0.01688 0.0
C2022 C 0.81294 0.41533 1.00064 0.0
H2023 H 0.90824 0.41864 0.96648 0.0
H2024 H 0.87409 0.44275 0.97806 0.0
H2025 H 0.89142 0.40517 0.98613 0.0
H2026 H 0.82801 0.32757 1.00025 0.0
H2027 H 0.8096 0.33833 0.02891 0.0
H2028 H 0.44693 0.0597 0.25505 0.0
H2029 H 0.45268 0.06019 0.22585 0.0
H2030 H 0.38874 0.96103 0.22203 0.0
H2031 H 0.38113 0.96114 0.25122 0.0
H2032 H 0.47931 1.01304 0.20121 0.0
H2033 H 0.33157 0.02679 0.19902 0.0
H2034 H 0.35334 0.03181 0.21762 0.0
H2035 H 0.34413 0.98843 0.20811 0.0
C2036 C 0.43385 0.03808 0.24807 0.0
C2037 C 0.41302 1.01075 0.2556 0.0
C2038 C 0.43755 0.03818 0.23135 0.0
C2039 C 0.42067 1.01091 0.22183 0.0
C2040 C 0.40146 0.98262 0.22921 0.0
H2041 H 0.38998 0.04014 0.12089 0.0
H2042 H 0.39611 1.00673 0.14426 0.0
C2043 C 0.39744 0.98263 0.24594 0.0
C2044 C 0.42129 1.0138 0.2043 0.0
H2045 H 0.36768 0.03134 0.17501 0.0
C2046 C 0.45487 1.01645 0.19539 0.0
C2047 C 0.38929 0.01797 0.19674 0.0
C2048 C 0.35252 1.01638 0.20583 0.0
C2049 C 0.45745 0.02508 0.17931 0.0
C2050 C 0.42568 0.03143 0.1721 0.0
C2051 C 0.39195 0.02632 0.18063 0.0
C2052 C 0.42691 0.04891 0.15687 0.0
C2053 C 0.4942 0.02861 0.17035 0.0
C2054 C 0.44236 0.08356 0.15623 0.0
C2055 C 0.43834 0.10305 0.14309 0.0
C2056 C 0.41865 0.08832 0.13024 0.0
C2057 C 0.40466 0.05283 0.13061 0.0
C2058 C 0.40846 0.03343 0.14389 0.0
H2059 H 0.51356 1.01198 0.17528 0.0
H2060 H 0.49269 0.02096 0.15734 0.0
H2061 H 0.50498 0.05663 0.17169 0.0
H2062 H 0.45595 0.09628 0.16632 0.0
H2063 H 0.44935 0.13019 0.14349 0.0
H2064 H 0.32338 0.41765 0.63068 0.0
H2065 H 0.29864 0.41434 0.60441 0.0
H2066 H 0.35353 0.31883 0.5907 0.0
H2067 H 0.3779 0.32177 0.61719 0.0
H2068 H 0.33701 0.41806 0.57607 0.0
H2069 H 0.25343 0.2912 0.57649 0.0
H2070 H 0.27061 0.31312 0.59449 0.0
H2071 H 0.29929 0.28663 0.58081 0.0
C2072 C 0.33012 0.39593 0.62207 0.0
C2073 C 0.35276 0.37008 0.62586 0.0
C2074 C 0.31577 0.39392 0.60713 0.0
C2075 C 0.32386 0.3661 0.59571 0.0
C2076 C 0.3462 0.34002 0.59951 0.0
H2077 H 0.31423 0.33284 0.49419 0.0
H2078 H 0.32321 0.32995 0.52271 0.0
C2079 C 0.36029 0.34181 0.61456 0.0
C2080 C 0.31127 0.36615 0.57942 0.0
H2081 H 0.2659 0.3161 0.55095 0.0
C2082 C 0.32106 0.39596 0.57065 0.0
C2083 C 0.29044 0.33726 0.57243 0.0
C2084 C 0.2775 0.30539 0.5816 0.0
C2085 C 0.31148 0.39725 0.55489 0.0
C2086 C 0.29153 0.36803 0.54778 0.0
C2087 C 0.28121 0.3384 0.55655 0.0
C2088 C 0.28312 0.36723 0.53088 0.0
C2089 C 0.32361 0.42936 0.54572 0.0
C2090 C 0.25714 0.3887 0.52622 0.0
C2091 C 0.25203 0.39048 0.50996 0.0
C2092 C 0.27304 0.37098 0.49819 0.0
C2093 C 0.29816 0.34861 0.503 0.0
C2094 C 0.30307 0.34667 0.51924 0.0
H2095 H 0.34254 0.44793 0.55234 0.0
H2096 H 0.33708 0.42111 0.53383 0.0
H2097 H 0.29968 0.44376 0.54354 0.0
H2098 H 0.24155 0.4047 0.53515 0.0
H2099 H 0.23263 0.40803 0.50656 0.0
H2100 H 0.82401 0.16708 0.38234 0.0
H2101 H 0.846 0.15072 0.3546 0.0
H2102 H 0.88652 0.05571 0.3698 0.0
H2103 H 0.86544 0.07211 0.39756 0.0
H2104 H 0.93241 0.08709 0.34652 0.0
H2105 H 0.79117 0.07166 0.32883 0.0
H2106 H 0.8038 0.11497 0.33759 0.0
H2107 H 0.80197 0.07725 0.34954 0.0
C2108 C 0.83816 0.14301 0.37983 0.0
C2109 C 0.84256 0.12067 0.39213 0.0
C2110 C 0.85047 0.13359 0.36396 0.0
C2111 C 0.86706 0.10157 0.36012 0.0
C2112 C 0.87352 0.08039 0.3725 0.0
H2113 H 0.87436 0.99071 0.26537 0.0
H2114 H 0.86594 1.00571 0.29429 0.0
C2115 C 0.86141 0.08984 0.38837 0.0
C2116 C 0.8758 0.08903 0.34316 0.0
H2117 H 0.83749 0.06554 0.30788 0.0
C2118 C 0.9117 0.08234 0.33805 0.0
C2119 C 0.84856 0.08205 0.33227 0.0
C2120 C 0.80916 0.08649 0.33733 0.0
C2121 C 0.92123 0.06955 0.32219 0.0
C2122 C 0.89418 0.06394 0.31114 0.0
C2123 C 0.85821 0.07002 0.31636 0.0
C2124 C 0.90249 0.05268 0.29398 0.0
C2125 C 0.96001 0.06164 0.31751 0.0
C2126 C 0.92614 0.07385 0.28424 0.0
C2127 C 0.93128 0.06515 0.26775 0.0
C2128 C 0.91249 0.03534 0.26059 0.0
C2129 C 0.88952 1.01363 0.27046 0.0
C2130 C 0.8845 0.02229 0.28699 0.0
H2131 H 0.97451 0.05681 0.32818 0.0
H2132 H 0.96174 0.03813 0.30881 0.0
H2133 H 0.97415 0.08475 0.31179 0.0
H2134 H 0.93979 0.09777 0.2893 0.0
H2135 H 0.94954 0.08218 0.26057 0.0
H2136 H 0.22956 0.60235 0.10532 0.0
H2137 H 0.2237 0.60745 0.07671 0.0
H2138 H 0.20019 0.71717 0.08629 0.0
H2139 H 0.20596 0.71223 0.115 0.0
H2140 H 0.16202 0.62749 0.06215 0.0
H2141 H 0.28369 0.71914 0.05071 0.0
H2142 H 0.27668 0.69473 0.06855 0.0
H2143 H 0.2513 0.73263 0.06673 0.0
C2144 C 0.22314 0.62754 0.10134 0.0
C2145 C 0.21832 0.6569 0.11237 0.0
C2146 C 0.21981 0.63042 0.08502 0.0
C2147 C 0.21167 0.66271 0.07945 0.0
C2148 C 0.20698 0.69218 0.09038 0.0
H2149 H 0.22267 0.69543 0.97653 0.0
H2150 H 0.20352 0.70581 0.00511 0.0
C2151 C 0.21045 0.68934 0.10673 0.0
C2152 C 0.20824 0.66504 0.06213 0.0
H2153 H 0.25192 0.69798 0.02851 0.0
C2154 C 0.18132 0.64328 0.05479 0.0
C2155 C 0.23326 0.68598 0.05266 0.0
C2156 C 0.26306 0.70933 0.05997 0.0
C2157 C 0.17985 0.6406 0.03806 0.0
C2158 C 0.20622 0.65986 0.02853 0.0
C2159 C 0.23171 0.68331 0.03593 0.0
C2160 C 0.21132 0.65238 0.01098 0.0
C2161 C 0.1508 0.61639 0.0307 0.0
C2162 C 0.22148 0.61878 0.00487 0.0
C2163 C 0.23265 0.61283 0.98866 0.0
C2164 C 0.23391 0.64046 0.97829 0.0
C2165 C 0.22191 0.67363 0.98425 0.0
C2166 C 0.21097 0.67962 1.00054 0.0
H2167 H 0.12656 0.61306 0.03925 0.0
H2168 H 0.14261 0.62667 0.01953 0.0
H2169 H 0.16131 0.58984 0.02762 0.0
H2170 H 0.22263 0.59762 0.01281 0.0
H2171 H 0.24167 0.58699 0.98441 0.0
H2172 H 0.59075 0.90121 0.85787 0.0
H2173 H 0.58466 0.93627 0.83521 0.0
H2174 H 0.62876 0.0294 0.86138 0.0
H2175 H 0.63426 0.99461 0.88449 0.0
H2176 H 0.54996 1.00443 0.8323 0.0
H2177 H 0.69998 1.00932 0.82027 0.0
H2178 H 0.67652 0.97785 0.83324 0.0
H2179 H 0.68109 0.02386 0.83995 0.0
C2180 C 0.59837 0.92926 0.85909 0.0
C2181 C 0.61345 0.9449 0.87301 0.0
C2182 C 0.59488 0.94927 0.84606 0.0
C2183 C 0.60652 0.98523 0.84664 0.0
C2184 C 0.61992 1.00153 0.86073 0.0
H2185 H 0.65648 0.07438 0.75368 0.0
H2186 H 0.64612 0.07511 0.78283 0.0
C2187 C 0.62329 0.98152 0.87385 0.0
C2188 C 0.60789 1.00406 0.83179 0.0
H2189 H 0.66616 0.02518 0.79992 0.0
C2190 C 0.57535 1.00981 0.82532 0.0
C2191 C 0.64111 1.01124 0.82285 0.0
C2192 C 0.67678 1.00523 0.82931 0.0
C2193 C 0.57509 0.02071 0.80967 0.0
C2194 C 0.60817 0.02496 0.80022 0.0
C2195 C 0.64081 0.02174 0.80716 0.0
C2196 C 0.60966 0.0281 0.78266 0.0
C2197 C 0.53935 0.02656 0.80329 0.0
C2198 C 0.59234 1.0016 0.77286 0.0
C2199 C 0.5979 1.00126 0.75617 0.0
C2200 C 0.62137 0.02712 0.74892 0.0
C2201 C 0.63792 0.05423 0.75878 0.0
C2202 C 0.63213 0.05468 0.77548 0.0
H2203 H 0.51965 0.0358 0.81314 0.0
H2204 H 0.5424 0.04627 0.79401 0.0
H2205 H 0.52789 1.00109 0.79783 0.0
H2206 H 0.57566 0.98025 0.77812 0.0
H2207 H 0.58431 0.98031 0.74899 0.0
loop_
_geom_bond_atom_site_label_1
_geom_bond_atom_site_label_2
_geom_bond_distance
_geom_bond_site_symmetry_2
_ccdc_geom_bond_type
Co0 N5 2.057 . S
Co0 O17 2.021 . S
Co0 O20 2.062 . S
Co0 O24 2.117 . S
Co0 O25 2.020 . S
C1 O21 1.259 . S
C1 O24 1.258 . S
Co2 N11 2.057 . S
Co2 O18 2.117 . S
Co2 O19 2.020 . S
Co2 O21 2.021 . S
Co2 O26 2.062 . S
C3 N5 1.316 . S
C3 N6 1.347 . S
C3 H8 0.931 . S
C4 N5 1.375 . S
C4 C7 1.350 . S
C4 H9 0.930 . S
N5 Co0 2.057 . S
N5 C3 1.316 . S
N5 C4 1.375 . S
N6 C3 1.347 . S
N6 C7 1.373 . S
C7 C4 1.350 . S
C7 N6 1.373 . S
C7 H28 0.931 . S
H8 C3 0.931 . S
H9 C4 0.930 . S
C10 O17 1.259 . S
C10 O18 1.258 . S
N11 Co2 2.057 . S
N11 C12 1.316 . S
N11 C13 1.375 . S
C12 N11 1.316 . S
C12 N14 1.347 . S
C12 H23 0.931 . S
C13 N11 1.375 . S
C13 C15 1.350 . S
C13 H22 0.930 . S
N14 C12 1.347 . S
N14 C15 1.373 . S
C15 C13 1.350 . S
C15 N14 1.373 . S
C15 H29 0.931 . S
C16 O19 1.256 . S
C16 O20 1.255 . S
O17 Co0 2.021 . S
O17 C10 1.259 . S
O18 Co2 2.117 . S
O18 C10 1.258 . S
O19 Co2 2.020 . S
O19 C16 1.256 . S
O20 Co0 2.062 . S
O20 C16 1.255 . S
O21 C1 1.259 . S
O21 Co2 2.021 . S
H22 C13 0.930 . S
H23 C12 0.931 . S
O24 Co0 2.117 . S
O24 C1 1.258 . S
O25 Co0 2.020 . S
O25 C27 1.256 . S
O26 Co2 2.062 . S
O26 C27 1.255 . S
C27 O25 1.256 . S
C27 O26 1.255 . S
H28 C7 0.931 . S
H29 C15 0.931 . S
Co30 N35 2.057 . S
Co30 O47 2.021 . S
Co30 O50 2.062 . S
Co30 O54 2.117 . S
Co30 O55 2.020 . S
C31 O51 1.259 . S
C31 O54 1.258 . S
Co32 N41 2.057 . S
Co32 O48 2.117 . S
Co32 O49 2.020 . S
Co32 O51 2.021 . S
Co32 O56 2.062 . S
C33 N35 1.316 . S
C33 N36 1.347 . S
C33 H38 0.931 . S
C34 N35 1.375 . S
C34 C37 1.350 . S
C34 H39 0.930 . S
N35 Co30 2.057 . S
N35 C33 1.316 . S
N35 C34 1.375 . S
N36 C33 1.347 . S
N36 C37 1.373 . S
C37 C34 1.350 . S
C37 N36 1.373 . S
C37 H58 0.931 . S
H38 C33 0.931 . S
H39 C34 0.930 . S
C40 O47 1.259 . S
C40 O48 1.258 . S
N41 Co32 2.057 . S
N41 C42 1.316 . S
N41 C43 1.375 . S
C42 N41 1.316 . S
C42 N44 1.347 . S
C42 H53 0.931 . S
C43 N41 1.375 . S
C43 C45 1.350 . S
C43 H52 0.930 . S
N44 C42 1.347 . S
N44 C45 1.373 . S
C45 C43 1.350 . S
C45 N44 1.373 . S
C45 H59 0.931 . S
C46 O49 1.256 . S
C46 O50 1.255 . S
O47 Co30 2.021 . S
O47 C40 1.259 . S
O48 Co32 2.117 . S
O48 C40 1.258 . S
O49 Co32 2.020 . S
O49 C46 1.256 . S
O50 Co30 2.062 . S
O50 C46 1.255 . S
O51 C31 1.259 . S
O51 Co32 2.021 . S
H52 C43 0.930 . S
H53 C42 0.931 . S
O54 Co30 2.117 . S
O54 C31 1.258 . S
O55 Co30 2.020 . S
O55 C57 1.256 . S
O56 Co32 2.062 . S
O56 C57 1.255 . S
C57 O55 1.256 . S
C57 O56 1.255 . S
H58 C37 0.931 . S
H59 C45 0.931 . S
Co60 N65 2.057 . S
Co60 O77 2.021 . S
Co60 O80 2.062 . S
Co60 O84 2.117 . S
Co60 O85 2.020 . S
C61 O81 1.259 . S
C61 O84 1.258 . S
Co62 N71 2.057 . S
Co62 O78 2.117 . S
Co62 O79 2.020 . S
Co62 O81 2.021 . S
Co62 O86 2.062 . S
C63 N65 1.316 . S
C63 N66 1.347 . S
C63 H68 0.931 . S
C64 N65 1.375 . S
C64 C67 1.350 . S
C64 H69 0.930 . S
N65 Co60 2.057 . S
N65 C63 1.316 . S
N65 C64 1.375 . S
N66 C63 1.347 . S
N66 C67 1.373 . S
C67 C64 1.350 . S
C67 N66 1.373 . S
C67 H88 0.931 . S
H68 C63 0.931 . S
H69 C64 0.930 . S
C70 O77 1.259 . S
C70 O78 1.258 . S
N71 Co62 2.057 . S
N71 C72 1.316 . S
N71 C73 1.375 . S
C72 N71 1.316 . S
C72 N74 1.347 . S
C72 H83 0.931 . S
C73 N71 1.375 . S
C73 C75 1.350 . S
C73 H82 0.930 . S
N74 C72 1.347 . S
N74 C75 1.373 . S
C75 C73 1.350 . S
C75 N74 1.373 . S
C75 H89 0.931 . S
C76 O79 1.256 . S
C76 O80 1.255 . S
O77 Co60 2.021 . S
O77 C70 1.259 . S
O78 Co62 2.117 . S
O78 C70 1.258 . S
O79 Co62 2.020 . S
O79 C76 1.256 . S
O80 Co60 2.062 . S
O80 C76 1.255 . S
O81 C61 1.259 . S
O81 Co62 2.021 . S
H82 C73 0.930 . S
H83 C72 0.931 . S
O84 Co60 2.117 . S
O84 C61 1.258 . S
O85 Co60 2.020 . S
O85 C87 1.256 . S
O86 Co62 2.062 . S
O86 C87 1.255 . S
C87 O85 1.256 . S
C87 O86 1.255 . S
H88 C67 0.931 . S
H89 C75 0.931 . S
Co90 N95 2.057 . S
Co90 O107 2.021 . S
Co90 O110 2.062 . S
Co90 O114 2.117 . S
Co90 O115 2.020 . S
C91 O111 1.259 . S
C91 O114 1.258 . S
Co92 N101 2.057 . S
Co92 O108 2.117 . S
Co92 O109 2.020 . S
Co92 O111 2.021 . S
Co92 O116 2.062 . S
C93 N95 1.316 . S
C93 N96 1.347 . S
C93 H98 0.931 . S
C94 N95 1.375 . S
C94 C97 1.350 . S
C94 H99 0.930 . S
N95 Co90 2.057 . S
N95 C93 1.316 . S
N95 C94 1.375 . S
N96 C93 1.347 . S
N96 C97 1.373 . S
C97 C94 1.350 . S
C97 N96 1.373 . S
C97 H118 0.931 . S
H98 C93 0.931 . S
H99 C94 0.930 . S
C100 O107 1.259 . S
C100 O108 1.258 . S
N101 Co92 2.057 . S
N101 C102 1.316 . S
N101 C103 1.375 . S
C102 N101 1.316 . S
C102 N104 1.347 . S
C102 H113 0.931 . S
C103 N101 1.375 . S
C103 C105 1.350 . S
C103 H112 0.930 . S
N104 C102 1.347 . S
N104 C105 1.373 . S
C105 C103 1.350 . S
C105 N104 1.373 . S
C105 H119 0.931 . S
C106 O109 1.256 . S
C106 O110 1.255 . S
O107 Co90 2.021 . S
O107 C100 1.259 . S
O108 Co92 2.117 . S
O108 C100 1.258 . S
O109 Co92 2.020 . S
O109 C106 1.256 . S
O110 Co90 2.062 . S
O110 C106 1.255 . S
O111 C91 1.259 . S
O111 Co92 2.021 . S
H112 C103 0.930 . S
H113 C102 0.931 . S
O114 Co90 2.117 . S
O114 C91 1.258 . S
O115 Co90 2.020 . S
O115 C117 1.256 . S
O116 Co92 2.062 . S
O116 C117 1.255 . S
C117 O115 1.256 . S
C117 O116 1.255 . S
H118 C97 0.931 . S
H119 C105 0.931 . S
Co120 N125 2.057 . S
Co120 O137 2.021 . S
Co120 O140 2.062 . S
Co120 O144 2.117 . S
Co120 O145 2.020 . S
C121 O141 1.259 . S
C121 O144 1.258 . S
Co122 N131 2.057 . S
Co122 O138 2.117 . S
Co122 O139 2.020 . S
Co122 O141 2.021 . S
Co122 O146 2.062 . S
C123 N125 1.316 . S
C123 N126 1.347 . S
C123 H128 0.931 . S
C124 N125 1.375 . S
C124 C127 1.350 . S
C124 H129 0.930 . S
N125 Co120 2.057 . S
N125 C123 1.316 . S
N125 C124 1.375 . S
N126 C123 1.347 . S
N126 C127 1.373 . S
C127 C124 1.350 . S
C127 N126 1.373 . S
C127 H148 0.931 . S
H128 C123 0.931 . S
H129 C124 0.930 . S
C130 O137 1.259 . S
C130 O138 1.258 . S
N131 Co122 2.057 . S
N131 C132 1.316 . S
N131 C133 1.375 . S
C132 N131 1.316 . S
C132 N134 1.347 . S
C132 H143 0.931 . S
C133 N131 1.375 . S
C133 C135 1.350 . S
C133 H142 0.930 . S
N134 C132 1.347 . S
N134 C135 1.373 . S
C135 C133 1.350 . S
C135 N134 1.373 . S
C135 H149 0.931 . S
C136 O139 1.256 . S
C136 O140 1.255 . S
O137 Co120 2.021 . S
O137 C130 1.259 . S
O138 Co122 2.117 . S
O138 C130 1.258 . S
O139 Co122 2.020 . S
O139 C136 1.256 . S
O140 Co120 2.062 . S
O140 C136 1.255 . S
O141 C121 1.259 . S
O141 Co122 2.021 . S
H142 C133 0.930 . S
H143 C132 0.931 . S
O144 Co120 2.117 . S
O144 C121 1.258 . S
O145 Co120 2.020 . S
O145 C147 1.256 . S
O146 Co122 2.062 . S
O146 C147 1.255 . S
C147 O145 1.256 . S
C147 O146 1.255 . S
H148 C127 0.931 . S
H149 C135 0.931 . S
Co150 N155 2.057 . S
Co150 O167 2.021 . S
Co150 O170 2.062 . S
Co150 O174 2.117 . S
Co150 O175 2.020 . S
C151 O171 1.259 . S
C151 O174 1.258 . S
Co152 N161 2.057 . S
Co152 O168 2.117 . S
Co152 O169 2.020 . S
Co152 O171 2.021 . S
Co152 O176 2.062 . S
C153 N155 1.316 . S
C153 N156 1.347 . S
C153 H158 0.931 . S
C154 N155 1.375 . S
C154 C157 1.350 . S
C154 H159 0.930 . S
N155 Co150 2.057 . S
N155 C153 1.316 . S
N155 C154 1.375 . S
N156 C153 1.347 . S
N156 C157 1.373 . S
C157 C154 1.350 . S
C157 N156 1.373 . S
C157 H178 0.931 . S
H158 C153 0.931 . S
H159 C154 0.930 . S
C160 O167 1.259 . S
C160 O168 1.258 . S
N161 Co152 2.057 . S
N161 C162 1.316 . S
N161 C163 1.375 . S
C162 N161 1.316 . S
C162 N164 1.347 . S
C162 H173 0.931 . S
C163 N161 1.375 . S
C163 C165 1.350 . S
C163 H172 0.930 . S
N164 C162 1.347 . S
N164 C165 1.373 . S
C165 C163 1.350 . S
C165 N164 1.373 . S
C165 H179 0.931 . S
C166 O169 1.256 . S
C166 O170 1.255 . S
O167 Co150 2.021 . S
O167 C160 1.259 . S
O168 Co152 2.117 . S
O168 C160 1.258 . S
O169 Co152 2.020 . S
O169 C166 1.256 . S
O170 Co150 2.062 . S
O170 C166 1.255 . S
O171 C151 1.259 . S
O171 Co152 2.021 . S
H172 C163 0.930 . S
H173 C162 0.931 . S
O174 Co150 2.117 . S
O174 C151 1.258 . S
O175 Co150 2.020 . S
O175 C177 1.256 . S
O176 Co152 2.062 . S
O176 C177 1.255 . S
C177 O175 1.256 . S
C177 O176 1.255 . S
H178 C157 0.931 . S
H179 C165 0.931 . S
Co180 N185 2.057 . S
Co180 O197 2.021 . S
Co180 O200 2.062 . S
Co180 O204 2.117 . S
Co180 O205 2.020 . S
C181 O201 1.259 . S
C181 O204 1.258 . S
Co182 N191 2.057 . S
Co182 O198 2.117 . S
Co182 O199 2.020 . S
Co182 O201 2.021 . S
Co182 O206 2.062 . S
C183 N185 1.316 . S
C183 N186 1.347 . S
C183 H188 0.931 . S
C184 N185 1.375 . S
C184 C187 1.350 . S
C184 H189 0.930 . S
N185 Co180 2.057 . S
N185 C183 1.316 . S
N185 C184 1.375 . S
N186 C183 1.347 . S
N186 C187 1.373 . S
C187 C184 1.350 . S
C187 N186 1.373 . S
C187 H208 0.931 . S
H188 C183 0.931 . S
H189 C184 0.930 . S
C190 O197 1.259 . S
C190 O198 1.258 . S
N191 Co182 2.057 . S
N191 C192 1.316 . S
N191 C193 1.375 . S
C192 N191 1.316 . S
C192 N194 1.347 . S
C192 H203 0.931 . S
C193 N191 1.375 . S
C193 C195 1.350 . S
C193 H202 0.930 . S
N194 C192 1.347 . S
N194 C195 1.373 . S
C195 C193 1.350 . S
C195 N194 1.373 . S
C195 H209 0.931 . S
C196 O199 1.256 . S
C196 O200 1.255 . S
O197 Co180 2.021 . S
O197 C190 1.259 . S
O198 Co182 2.117 . S
O198 C190 1.258 . S
O199 Co182 2.020 . S
O199 C196 1.256 . S
O200 Co180 2.062 . S
O200 C196 1.255 . S
O201 C181 1.259 . S
O201 Co182 2.021 . S
H202 C193 0.930 . S
H203 C192 0.931 . S
O204 Co180 2.117 . S
O204 C181 1.258 . S
O205 Co180 2.020 . S
O205 C207 1.256 . S
O206 Co182 2.062 . S
O206 C207 1.255 . S
C207 O205 1.256 . S
C207 O206 1.255 . S
H208 C187 0.931 . S
H209 C195 0.931 . S
Co210 N215 2.057 . S
Co210 O227 2.021 . S
Co210 O230 2.062 . S
Co210 O234 2.117 . S
Co210 O235 2.020 . S
C211 O231 1.259 . S
C211 O234 1.258 . S
Co212 N221 2.057 . S
Co212 O228 2.117 . S
Co212 O229 2.020 . S
Co212 O231 2.021 . S
Co212 O236 2.062 . S
C213 N215 1.316 . S
C213 N216 1.347 . S
C213 H218 0.931 . S
C214 N215 1.375 . S
C214 C217 1.350 . S
C214 H219 0.930 . S
N215 Co210 2.057 . S
N215 C213 1.316 . S
N215 C214 1.375 . S
N216 C213 1.347 . S
N216 C217 1.373 . S
C217 C214 1.350 . S
C217 N216 1.373 . S
C217 H238 0.931 . S
H218 C213 0.931 . S
H219 C214 0.930 . S
C220 O227 1.259 . S
C220 O228 1.258 . S
N221 Co212 2.057 . S
N221 C222 1.316 . S
N221 C223 1.375 . S
C222 N221 1.316 . S
C222 N224 1.347 . S
C222 H233 0.931 . S
C223 N221 1.375 . S
C223 C225 1.350 . S
C223 H232 0.930 . S
N224 C222 1.347 . S
N224 C225 1.373 . S
C225 C223 1.350 . S
C225 N224 1.373 . S
C225 H239 0.931 . S
C226 O229 1.256 . S
C226 O230 1.255 . S
O227 Co210 2.021 . S
O227 C220 1.259 . S
O228 Co212 2.117 . S
O228 C220 1.258 . S
O229 Co212 2.020 . S
O229 C226 1.256 . S
O230 Co210 2.062 . S
O230 C226 1.255 . S
O231 C211 1.259 . S
O231 Co212 2.021 . S
H232 C223 0.930 . S
H233 C222 0.931 . S
O234 Co210 2.117 . S
O234 C211 1.258 . S
O235 Co210 2.020 . S
O235 C237 1.256 . S
O236 Co212 2.062 . S
O236 C237 1.255 . S
C237 O235 1.256 . S
C237 O236 1.255 . S
H238 C217 0.931 . S
H239 C225 0.931 . S
Co240 N245 2.057 . S
Co240 O257 2.021 . S
Co240 O260 2.062 . S
Co240 O264 2.117 . S
Co240 O265 2.020 . S
C241 O261 1.259 . S
C241 O264 1.258 . S
Co242 N251 2.057 . S
Co242 O258 2.117 . S
Co242 O259 2.020 . S
Co242 O261 2.021 . S
Co242 O266 2.062 . S
C243 N245 1.316 . S
C243 N246 1.347 . S
C243 H248 0.931 . S
C244 N245 1.375 . S
C244 C247 1.350 . S
C244 H249 0.930 . S
N245 Co240 2.057 . S
N245 C243 1.316 . S
N245 C244 1.375 . S
N246 C243 1.347 . S
N246 C247 1.373 . S
C247 C244 1.350 . S
C247 N246 1.373 . S
C247 H268 0.931 . S
H248 C243 0.931 . S
H249 C244 0.930 . S
C250 O257 1.259 . S
C250 O258 1.258 . S
N251 Co242 2.057 . S
N251 C252 1.316 . S
N251 C253 1.375 . S
C252 N251 1.316 . S
C252 N254 1.347 . S
C252 H263 0.931 . S
C253 N251 1.375 . S
C253 C255 1.350 . S
C253 H262 0.930 . S
N254 C252 1.347 . S
N254 C255 1.373 . S
C255 C253 1.350 . S
C255 N254 1.373 . S
C255 H269 0.931 . S
C256 O259 1.256 . S
C256 O260 1.255 . S
O257 Co240 2.021 . S
O257 C250 1.259 . S
O258 Co242 2.117 . S
O258 C250 1.258 . S
O259 Co242 2.020 . S
O259 C256 1.256 . S
O260 Co240 2.062 . S
O260 C256 1.255 . S
O261 C241 1.259 . S
O261 Co242 2.021 . S
H262 C253 0.930 . S
H263 C252 0.931 . S
O264 Co240 2.117 . S
O264 C241 1.258 . S
O265 Co240 2.020 . S
O265 C267 1.256 . S
O266 Co242 2.062 . S
O266 C267 1.255 . S
C267 O265 1.256 . S
C267 O266 1.255 . S
H268 C247 0.931 . S
H269 C255 0.931 . S
Co270 N275 2.057 . S
Co270 O287 2.021 . S
Co270 O290 2.062 . S
Co270 O294 2.117 . S
Co270 O295 2.020 . S
C271 O291 1.259 . S
C271 O294 1.258 . S
Co272 N281 2.057 . S
Co272 O288 2.117 . S
Co272 O289 2.020 . S
Co272 O291 2.021 . S
Co272 O296 2.062 . S
C273 N275 1.316 . S
C273 N276 1.347 . S
C273 H278 0.931 . S
C274 N275 1.375 . S
C274 C277 1.350 . S
C274 H279 0.930 1_545 S
N275 Co270 2.057 . S
N275 C273 1.316 . S
N275 C274 1.375 . S
N276 C273 1.347 . S
N276 C277 1.373 . S
C277 C274 1.350 . S
C277 N276 1.373 . S
C277 H298 0.931 1_545 S
H278 C273 0.931 . S
H279 C274 0.930 1_565 S
C280 O287 1.259 . S
C280 O288 1.258 . S
N281 Co272 2.057 . S
N281 C282 1.316 . S
N281 C283 1.375 . S
C282 N281 1.316 . S
C282 N284 1.347 . S
C282 H293 0.931 . S
C283 N281 1.375 . S
C283 C285 1.350 . S
C283 H292 0.930 . S
N284 C282 1.347 . S
N284 C285 1.373 . S
C285 C283 1.350 . S
C285 N284 1.373 . S
C285 H299 0.931 . S
C286 O289 1.256 . S
C286 O290 1.255 . S
O287 Co270 2.021 . S
O287 C280 1.259 . S
O288 Co272 2.117 . S
O288 C280 1.258 . S
O289 Co272 2.020 . S
O289 C286 1.256 . S
O290 Co270 2.062 . S
O290 C286 1.255 . S
O291 C271 1.259 . S
O291 Co272 2.021 . S
H292 C283 0.930 . S
H293 C282 0.931 . S
O294 Co270 2.117 . S
O294 C271 1.258 . S
O295 Co270 2.020 . S
O295 C297 1.256 . S
O296 Co272 2.062 . S
O296 C297 1.255 . S
C297 O295 1.256 . S
C297 O296 1.255 . S
H298 C277 0.931 1_565 S
H299 C285 0.931 . S
Co300 N305 2.057 . S
Co300 O317 2.021 . S
Co300 O320 2.062 . S
Co300 O324 2.117 . S
Co300 O325 2.020 . S
C301 O321 1.259 . S
C301 O324 1.258 . S
Co302 N311 2.057 . S
Co302 O318 2.117 . S
Co302 O319 2.020 . S
Co302 O321 2.021 . S
Co302 O326 2.062 . S
C303 N305 1.316 . S
C303 N306 1.347 . S
C303 H308 0.931 . S
C304 N305 1.375 . S
C304 C307 1.350 . S
C304 H309 0.930 . S
N305 Co300 2.057 . S
N305 C303 1.316 . S
N305 C304 1.375 . S
N306 C303 1.347 . S
N306 C307 1.373 . S
C307 C304 1.350 . S
C307 N306 1.373 . S
C307 H328 0.931 . S
H308 C303 0.931 . S
H309 C304 0.930 . S
C310 O317 1.259 . S
C310 O318 1.258 . S
N311 Co302 2.057 . S
N311 C312 1.316 . S
N311 C313 1.375 . S
C312 N311 1.316 . S
C312 N314 1.347 . S
C312 H323 0.931 . S
C313 N311 1.375 . S
C313 C315 1.350 . S
C313 H322 0.930 . S
N314 C312 1.347 . S
N314 C315 1.373 . S
C315 C313 1.350 . S
C315 N314 1.373 . S
C315 H329 0.931 . S
C316 O319 1.256 . S
C316 O320 1.255 . S
O317 Co300 2.021 . S
O317 C310 1.259 . S
O318 Co302 2.117 . S
O318 C310 1.258 . S
O319 Co302 2.020 . S
O319 C316 1.256 . S
O320 Co300 2.062 . S
O320 C316 1.255 . S
O321 C301 1.259 . S
O321 Co302 2.021 . S
H322 C313 0.930 . S
H323 C312 0.931 . S
O324 Co300 2.117 . S
O324 C301 1.258 . S
O325 Co300 2.020 . S
O325 C327 1.256 . S
O326 Co302 2.062 . S
O326 C327 1.255 . S
C327 O325 1.256 . S
C327 O326 1.255 . S
H328 C307 0.931 . S
H329 C315 0.931 . S
Co330 N335 2.057 . S
Co330 O347 2.021 . S
Co330 O350 2.062 . S
Co330 O354 2.117 . S
Co330 O355 2.020 . S
C331 O351 1.259 . S
C331 O354 1.258 . S
Co332 N341 2.057 . S
Co332 O348 2.117 . S
Co332 O349 2.020 . S
Co332 O351 2.021 . S
Co332 O356 2.062 . S
C333 N335 1.316 . S
C333 N336 1.347 . S
C333 H338 0.931 . S
C334 N335 1.375 . S
C334 C337 1.350 . S
C334 H339 0.930 1_565 S
N335 Co330 2.057 . S
N335 C333 1.316 . S
N335 C334 1.375 . S
N336 C333 1.347 . S
N336 C337 1.373 . S
C337 C334 1.350 . S
C337 N336 1.373 . S
C337 H358 0.931 1_565 S
H338 C333 0.931 . S
H339 C334 0.930 1_545 S
C340 O347 1.259 . S
C340 O348 1.258 . S
N341 Co332 2.057 . S
N341 C342 1.316 . S
N341 C343 1.375 . S
C342 N341 1.316 . S
C342 N344 1.347 . S
C342 H353 0.931 . S
C343 N341 1.375 . S
C343 C345 1.350 . S
C343 H352 0.930 . S
N344 C342 1.347 . S
N344 C345 1.373 . S
C345 C343 1.350 . S
C345 N344 1.373 . S
C345 H359 0.931 . S
C346 O349 1.256 . S
C346 O350 1.255 . S
O347 Co330 2.021 . S
O347 C340 1.259 . S
O348 Co332 2.117 . S
O348 C340 1.258 . S
O349 Co332 2.020 . S
O349 C346 1.256 . S
O350 Co330 2.062 . S
O350 C346 1.255 . S
O351 C331 1.259 . S
O351 Co332 2.021 . S
H352 C343 0.930 . S
H353 C342 0.931 . S
O354 Co330 2.117 . S
O354 C331 1.258 . S
O355 Co330 2.020 . S
O355 C357 1.256 . S
O356 Co332 2.062 . S
O356 C357 1.255 . S
C357 O355 1.256 . S
C357 O356 1.255 . S
H358 C337 0.931 1_545 S
H359 C345 0.931 . S
Co360 N365 2.057 . S
Co360 O377 2.021 . S
Co360 O380 2.062 . S
Co360 O384 2.117 . S
Co360 O385 2.020 . S
C361 O381 1.259 . S
C361 O384 1.258 . S
Co362 N371 2.057 . S
Co362 O378 2.117 . S
Co362 O379 2.020 . S
Co362 O381 2.021 . S
Co362 O386 2.062 . S
C363 N365 1.316 . S
C363 N366 1.347 . S
C363 H368 0.931 . S
C364 N365 1.375 . S
C364 C367 1.350 . S
C364 H369 0.930 . S
N365 Co360 2.057 . S
N365 C363 1.316 . S
N365 C364 1.375 . S
N366 C363 1.347 . S
N366 C367 1.373 . S
C367 C364 1.350 . S
C367 N366 1.373 . S
C367 H388 0.931 . S
H368 C363 0.931 . S
H369 C364 0.930 . S
C370 O377 1.259 . S
C370 O378 1.258 . S
N371 Co362 2.057 . S
N371 C372 1.316 . S
N371 C373 1.375 . S
C372 N371 1.316 . S
C372 N374 1.347 . S
C372 H383 0.931 . S
C373 N371 1.375 . S
C373 C375 1.350 . S
C373 H382 0.930 . S
N374 C372 1.347 . S
N374 C375 1.373 . S
C375 C373 1.350 . S
C375 N374 1.373 . S
C375 H389 0.931 . S
C376 O379 1.256 . S
C376 O380 1.255 . S
O377 Co360 2.021 . S
O377 C370 1.259 . S
O378 Co362 2.117 . S
O378 C370 1.258 . S
O379 Co362 2.020 . S
O379 C376 1.256 . S
O380 Co360 2.062 . S
O380 C376 1.255 . S
O381 C361 1.259 . S
O381 Co362 2.021 . S
H382 C373 0.930 . S
H383 C372 0.931 . S
O384 Co360 2.117 . S
O384 C361 1.258 . S
O385 Co360 2.020 . S
O385 C387 1.256 . S
O386 Co362 2.062 . S
O386 C387 1.255 . S
C387 O385 1.256 . S
C387 O386 1.255 . S
H388 C367 0.931 . S
H389 C375 0.931 . S
Co390 N395 2.057 . S
Co390 O407 2.021 . S
Co390 O410 2.062 . S
Co390 O414 2.117 . S
Co390 O415 2.020 . S
C391 O411 1.259 . S
C391 O414 1.258 . S
Co392 N401 2.057 . S
Co392 O408 2.117 . S
Co392 O409 2.020 . S
Co392 O411 2.021 . S
Co392 O416 2.062 . S
C393 N395 1.316 . S
C393 N396 1.347 . S
C393 H398 0.931 . S
C394 N395 1.375 . S
C394 C397 1.350 . S
C394 H399 0.930 . S
N395 Co390 2.057 . S
N395 C393 1.316 . S
N395 C394 1.375 . S
N396 C393 1.347 . S
N396 C397 1.373 . S
C397 C394 1.350 . S
C397 N396 1.373 . S
C397 H418 0.931 . S
H398 C393 0.931 . S
H399 C394 0.930 . S
C400 O407 1.259 . S
C400 O408 1.258 . S
N401 Co392 2.057 . S
N401 C402 1.316 . S
N401 C403 1.375 . S
C402 N401 1.316 . S
C402 N404 1.347 . S
C402 H413 0.931 . S
C403 N401 1.375 . S
C403 C405 1.350 . S
C403 H412 0.930 1_565 S
N404 C402 1.347 . S
N404 C405 1.373 . S
C405 C403 1.350 . S
C405 N404 1.373 . S
C405 H419 0.931 1_565 S
C406 O409 1.256 . S
C406 O410 1.255 . S
O407 Co390 2.021 . S
O407 C400 1.259 . S
O408 Co392 2.117 . S
O408 C400 1.258 . S
O409 Co392 2.020 . S
O409 C406 1.256 . S
O410 Co390 2.062 . S
O410 C406 1.255 . S
O411 C391 1.259 . S
O411 Co392 2.021 . S
H412 C403 0.930 1_545 S
H413 C402 0.931 . S
O414 Co390 2.117 . S
O414 C391 1.258 . S
O415 Co390 2.020 . S
O415 C417 1.256 . S
O416 Co392 2.062 . S
O416 C417 1.255 . S
C417 O415 1.256 . S
C417 O416 1.255 . S
H418 C397 0.931 . S
H419 C405 0.931 1_545 S
Co420 N425 2.057 . S
Co420 O437 2.021 . S
Co420 O440 2.062 . S
Co420 O444 2.117 . S
Co420 O445 2.020 . S
C421 O441 1.259 . S
C421 O444 1.258 . S
Co422 N431 2.057 . S
Co422 O438 2.117 . S
Co422 O439 2.020 . S
Co422 O441 2.021 . S
Co422 O446 2.062 . S
C423 N425 1.316 . S
C423 N426 1.347 . S
C423 H428 0.931 . S
C424 N425 1.375 . S
C424 C427 1.350 . S
C424 H429 0.930 . S
N425 Co420 2.057 . S
N425 C423 1.316 . S
N425 C424 1.375 . S
N426 C423 1.347 . S
N426 C427 1.373 . S
C427 C424 1.350 . S
C427 N426 1.373 . S
C427 H448 0.931 . S
H428 C423 0.931 . S
H429 C424 0.930 . S
C430 O437 1.259 . S
C430 O438 1.258 . S
N431 Co422 2.057 . S
N431 C432 1.316 . S
N431 C433 1.375 . S
C432 N431 1.316 . S
C432 N434 1.347 . S
C432 H443 0.931 . S
C433 N431 1.375 . S
C433 C435 1.350 . S
C433 H442 0.930 . S
N434 C432 1.347 . S
N434 C435 1.373 . S
C435 C433 1.350 . S
C435 N434 1.373 . S
C435 H449 0.931 . S
C436 O439 1.256 . S
C436 O440 1.255 . S
O437 Co420 2.021 . S
O437 C430 1.259 . S
O438 Co422 2.117 . S
O438 C430 1.258 . S
O439 Co422 2.020 . S
O439 C436 1.256 . S
O440 Co420 2.062 . S
O440 C436 1.255 . S
O441 C421 1.259 . S
O441 Co422 2.021 . S
H442 C433 0.930 . S
H443 C432 0.931 . S
O444 Co420 2.117 . S
O444 C421 1.258 . S
O445 Co420 2.020 . S
O445 C447 1.256 . S
O446 Co422 2.062 . S
O446 C447 1.255 . S
C447 O445 1.256 . S
C447 O446 1.255 . S
H448 C427 0.931 . S
H449 C435 0.931 . S
Co450 N455 2.057 . S
Co450 O467 2.021 . S
Co450 O470 2.062 . S
Co450 O474 2.117 . S
Co450 O475 2.020 . S
C451 O471 1.259 . S
C451 O474 1.258 . S
Co452 N461 2.057 . S
Co452 O468 2.117 . S
Co452 O469 2.020 . S
Co452 O471 2.021 . S
Co452 O476 2.062 . S
C453 N455 1.316 . S
C453 N456 1.347 . S
C453 H458 0.931 . S
C454 N455 1.375 . S
C454 C457 1.350 . S
C454 H459 0.930 . S
N455 Co450 2.057 . S
N455 C453 1.316 . S
N455 C454 1.375 . S
N456 C453 1.347 . S
N456 C457 1.373 . S
C457 C454 1.350 . S
C457 N456 1.373 . S
C457 H478 0.931 . S
H458 C453 0.931 . S
H459 C454 0.930 . S
C460 O467 1.259 . S
C460 O468 1.258 . S
N461 Co452 2.057 . S
N461 C462 1.316 . S
N461 C463 1.375 . S
C462 N461 1.316 . S
C462 N464 1.347 . S
C462 H473 0.931 . S
C463 N461 1.375 . S
C463 C465 1.350 . S
C463 H472 0.930 1_545 S
N464 C462 1.347 . S
N464 C465 1.373 . S
C465 C463 1.350 . S
C465 N464 1.373 . S
C465 H479 0.931 1_545 S
C466 O469 1.256 . S
C466 O470 1.255 . S
O467 Co450 2.021 . S
O467 C460 1.259 . S
O468 Co452 2.117 . S
O468 C460 1.258 . S
O469 Co452 2.020 . S
O469 C466 1.256 . S
O470 Co450 2.062 . S
O470 C466 1.255 . S
O471 C451 1.259 . S
O471 Co452 2.021 . S
H472 C463 0.930 1_565 S
H473 C462 0.931 . S
O474 Co450 2.117 . S
O474 C451 1.258 . S
O475 Co450 2.020 . S
O475 C477 1.256 . S
O476 Co452 2.062 . S
O476 C477 1.255 . S
C477 O475 1.256 . S
C477 O476 1.255 . S
H478 C457 0.931 . S
H479 C465 0.931 1_565 S
H480 C488 0.929 . S
H481 C490 0.930 . S
H482 C492 0.930 . S
H483 C495 0.929 . S
H484 C498 0.930 . S
H485 C500 0.960 . S
H486 C500 0.960 . S
H487 C500 0.960 . S
C488 H480 0.929 . S
C488 C489 1.377 . S
C488 C490 1.384 . S
C489 C488 1.377 . S
C489 C495 1.390 . S
C490 H481 0.930 . S
C490 C488 1.384 . S
C490 C491 1.372 . S
C491 C490 1.372 . S
C491 C492 1.400 . S
C491 C496 1.490 . S
C492 H482 0.930 . S
C492 C491 1.400 . S
C492 C495 1.386 . S
H493 C509 0.930 . S
H494 C510 0.931 . S
C495 H483 0.929 . S
C495 C489 1.390 . S
C495 C492 1.386 . S
C496 C491 1.490 . S
C496 C498 1.395 . S
C496 C499 1.403 . S
H497 C503 0.930 . S
C498 H484 0.930 . S
C498 C496 1.395 . S
C498 C501 1.403 . S
C499 C496 1.403 . S
C499 C500 1.524 . S
C499 C503 1.400 . S
C500 H485 0.960 . S
C500 H486 0.960 . S
C500 H487 0.960 . S
C500 C499 1.524 . S
C501 C498 1.403 . S
C501 C502 1.392 . S
C501 C505 1.495 . S
C502 C501 1.392 . S
C502 C503 1.385 . S
C502 C504 1.478 . S
C503 H497 0.930 . S
C503 C499 1.400 . S
C503 C502 1.385 . S
C504 C502 1.478 . S
C504 C506 1.381 . S
C504 C510 1.383 . S
C505 C501 1.495 . S
C505 H511 0.959 . S
C505 H512 0.961 . S
C505 H513 0.960 . S
C506 C504 1.381 . S
C506 C507 1.394 . S
C506 H514 0.930 . S
C507 C506 1.394 . S
C507 C508 1.383 . S
C507 H515 0.929 . S
C508 C507 1.383 . S
C508 C509 1.377 . S
C509 H493 0.930 . S
C509 C508 1.377 . S
C509 C510 1.379 . S
C510 H494 0.931 . S
C510 C504 1.383 . S
C510 C509 1.379 . S
H511 C505 0.959 . S
H512 C505 0.961 . S
H513 C505 0.960 . S
H514 C506 0.930 . S
H515 C507 0.929 . S
H516 C524 0.929 . S
H517 C526 0.930 . S
H518 C528 0.930 . S
H519 C531 0.929 . S
H520 C534 0.930 . S
H521 C536 0.960 . S
H522 C536 0.960 . S
H523 C536 0.960 . S
C524 H516 0.929 . S
C524 C525 1.377 . S
C524 C526 1.384 . S
C525 C524 1.377 . S
C525 C531 1.390 . S
C526 H517 0.930 . S
C526 C524 1.384 . S
C526 C527 1.372 . S
C527 C526 1.372 . S
C527 C528 1.400 . S
C527 C532 1.490 . S
C528 H518 0.930 . S
C528 C527 1.400 . S
C528 C531 1.386 . S
H529 C545 0.930 . S
H530 C546 0.931 . S
C531 H519 0.929 . S
C531 C525 1.390 . S
C531 C528 1.386 . S
C532 C527 1.490 . S
C532 C534 1.395 . S
C532 C535 1.403 . S
H533 C539 0.930 . S
C534 H520 0.930 . S
C534 C532 1.395 . S
C534 C537 1.403 . S
C535 C532 1.403 . S
C535 C536 1.524 . S
C535 C539 1.400 . S
C536 H521 0.960 . S
C536 H522 0.960 . S
C536 H523 0.960 . S
C536 C535 1.524 . S
C537 C534 1.403 . S
C537 C538 1.392 . S
C537 C541 1.495 . S
C538 C537 1.392 . S
C538 C539 1.385 . S
C538 C540 1.478 . S
C539 H533 0.930 . S
C539 C535 1.400 . S
C539 C538 1.385 . S
C540 C538 1.478 . S
C540 C542 1.381 . S
C540 C546 1.383 . S
C541 C537 1.495 . S
C541 H547 0.959 . S
C541 H548 0.961 . S
C541 H549 0.960 . S
C542 C540 1.381 . S
C542 C543 1.394 . S
C542 H550 0.930 . S
C543 C542 1.394 . S
C543 C544 1.383 . S
C543 H551 0.929 . S
C544 C543 1.383 . S
C544 C545 1.377 . S
C545 H529 0.930 . S
C545 C544 1.377 . S
C545 C546 1.379 . S
C546 H530 0.931 . S
C546 C540 1.383 . S
C546 C545 1.379 . S
H547 C541 0.959 . S
H548 C541 0.961 . S
H549 C541 0.960 . S
H550 C542 0.930 . S
H551 C543 0.929 . S
H552 C560 0.929 . S
H553 C562 0.930 . S
H554 C564 0.930 . S
H555 C567 0.929 . S
H556 C570 0.930 . S
H557 C572 0.960 . S
H558 C572 0.960 . S
H559 C572 0.960 . S
C560 H552 0.929 . S
C560 C561 1.377 . S
C560 C562 1.384 . S
C561 C560 1.377 . S
C561 C567 1.390 . S
C562 H553 0.930 . S
C562 C560 1.384 . S
C562 C563 1.372 . S
C563 C562 1.372 . S
C563 C564 1.400 . S
C563 C568 1.490 . S
C564 H554 0.930 . S
C564 C563 1.400 . S
C564 C567 1.386 . S
H565 C581 0.930 . S
H566 C582 0.931 . S
C567 H555 0.929 . S
C567 C561 1.390 . S
C567 C564 1.386 . S
C568 C563 1.490 . S
C568 C570 1.395 . S
C568 C571 1.403 . S
H569 C575 0.931 . S
C570 H556 0.930 . S
C570 C568 1.395 . S
C570 C573 1.403 1_455 S
C571 C568 1.403 . S
C571 C572 1.524 . S
C571 C575 1.395 1_455 S
C572 H557 0.960 . S
C572 H558 0.960 . S
C572 H559 0.960 . S
C572 C571 1.524 . S
C573 C570 1.403 1_655 S
C573 C574 1.392 . S
C573 C577 1.495 . S
C574 C573 1.392 . S
C574 C575 1.389 . S
C574 C576 1.478 . S
C575 H569 0.931 . S
C575 C571 1.395 1_655 S
C575 C574 1.389 . S
C576 C574 1.478 . S
C576 C578 1.381 . S
C576 C582 1.383 . S
C577 C573 1.495 . S
C577 H583 0.959 . S
C577 H584 0.961 . S
C577 H585 0.960 . S
C578 C576 1.381 . S
C578 C579 1.394 . S
C578 H586 0.930 . S
C579 C578 1.394 . S
C579 C580 1.383 . S
C579 H587 0.929 . S
C580 C579 1.383 . S
C580 C581 1.377 . S
C581 H565 0.930 . S
C581 C580 1.377 . S
C581 C582 1.379 . S
C582 H566 0.931 . S
C582 C576 1.383 . S
C582 C581 1.379 . S
H583 C577 0.959 . S
H584 C577 0.961 . S
H585 C577 0.960 . S
H586 C578 0.930 . S
H587 C579 0.929 . S
H588 C596 0.929 . S
H589 C598 0.930 . S
H590 C600 0.930 . S
H591 C603 0.929 . S
H592 C606 0.930 . S
H593 C608 0.960 . S
H594 C608 0.960 . S
H595 C608 0.960 . S
C596 H588 0.929 . S
C596 C597 1.377 . S
C596 C598 1.384 . S
C597 C596 1.377 . S
C597 C603 1.390 . S
C598 H589 0.930 . S
C598 C596 1.384 . S
C598 C599 1.372 . S
C599 C598 1.372 . S
C599 C600 1.400 . S
C599 C604 1.490 . S
C600 H590 0.930 . S
C600 C599 1.400 . S
C600 C603 1.386 . S
H601 C617 0.930 . S
H602 C618 0.931 . S
C603 H591 0.929 . S
C603 C597 1.390 . S
C603 C600 1.386 . S
C604 C599 1.490 . S
C604 C606 1.395 1_455 S
C604 C607 1.403 . S
H605 C611 0.930 . S
C606 H592 0.930 . S
C606 C604 1.395 1_655 S
C606 C609 1.403 . S
C607 C604 1.403 . S
C607 C608 1.524 . S
C607 C611 1.400 1_455 S
C608 H593 0.960 . S
C608 H594 0.960 . S
C608 H595 0.960 . S
C608 C607 1.524 . S
C609 C606 1.403 . S
C609 C610 1.392 . S
C609 C613 1.495 . S
C610 C609 1.392 . S
C610 C611 1.385 . S
C610 C612 1.478 . S
C611 H605 0.930 . S
C611 C607 1.400 1_655 S
C611 C610 1.385 . S
C612 C610 1.478 . S
C612 C614 1.381 . S
C612 C618 1.383 . S
C613 C609 1.495 . S
C613 H619 0.959 . S
C613 H620 0.961 . S
C613 H621 0.960 . S
C614 C612 1.381 . S
C614 C615 1.394 . S
C614 H622 0.930 . S
C615 C614 1.394 . S
C615 C616 1.383 . S
C615 H623 0.929 . S
C616 C615 1.383 . S
C616 C617 1.377 . S
C617 H601 0.930 . S
C617 C616 1.377 . S
C617 C618 1.379 . S
C618 H602 0.931 . S
C618 C612 1.383 . S
C618 C617 1.379 . S
H619 C613 0.959 . S
H620 C613 0.961 . S
H621 C613 0.960 . S
H622 C614 0.930 . S
H623 C615 0.929 . S
H624 C632 0.929 . S
H625 C634 0.930 . S
H626 C636 0.930 . S
H627 C639 0.929 . S
H628 C642 0.930 . S
H629 C644 0.960 . S
H630 C644 0.960 . S
H631 C644 0.960 . S
C632 H624 0.929 . S
C632 C633 1.377 . S
C632 C634 1.384 . S
C633 C632 1.377 . S
C633 C639 1.390 . S
C634 H625 0.930 . S
C634 C632 1.384 . S
C634 C635 1.372 . S
C635 C634 1.372 . S
C635 C636 1.400 . S
C635 C640 1.490 . S
C636 H626 0.930 . S
C636 C635 1.400 . S
C636 C639 1.386 . S
H637 C653 0.930 . S
H638 C654 0.931 . S
C639 H627 0.929 . S
C639 C633 1.390 . S
C639 C636 1.386 . S
C640 C635 1.490 . S
C640 C642 1.395 . S
C640 C643 1.403 . S
H641 C647 0.930 . S
C642 H628 0.930 . S
C642 C640 1.395 . S
C642 C645 1.403 . S
C643 C640 1.403 . S
C643 C644 1.524 . S
C643 C647 1.400 . S
C644 H629 0.960 . S
C644 H630 0.960 . S
C644 H631 0.960 . S
C644 C643 1.524 . S
C645 C642 1.403 . S
C645 C646 1.392 . S
C645 C649 1.495 . S
C646 C645 1.392 . S
C646 C647 1.385 . S
C646 C648 1.478 . S
C647 H641 0.930 . S
C647 C643 1.400 . S
C647 C646 1.385 . S
C648 C646 1.478 . S
C648 C650 1.381 . S
C648 C654 1.383 . S
C649 C645 1.495 . S
C649 H655 0.959 . S
C649 H656 0.961 . S
C649 H657 0.960 . S
C650 C648 1.381 . S
C650 C651 1.394 . S
C650 H658 0.930 . S
C651 C650 1.394 . S
C651 C652 1.383 . S
C651 H659 0.929 . S
C652 C651 1.383 . S
C652 C653 1.377 . S
C653 H637 0.930 . S
C653 C652 1.377 . S
C653 C654 1.379 . S
C654 H638 0.931 . S
C654 C648 1.383 . S
C654 C653 1.379 . S
H655 C649 0.959 . S
H656 C649 0.961 . S
H657 C649 0.960 . S
H658 C650 0.930 . S
H659 C651 0.929 . S
H660 C668 0.929 . S
H661 C670 0.930 . S
H662 C672 0.930 . S
H663 C675 0.929 . S
H664 C678 0.930 . S
H665 C680 0.960 . S
H666 C680 0.960 . S
H667 C680 0.960 . S
C668 H660 0.929 . S
C668 C669 1.377 . S
C668 C670 1.384 . S
C669 C668 1.377 . S
C669 C675 1.390 . S
C670 H661 0.930 . S
C670 C668 1.384 . S
C670 C671 1.372 . S
C671 C670 1.372 . S
C671 C672 1.400 . S
C671 C676 1.490 . S
C672 H662 0.930 . S
C672 C671 1.400 . S
C672 C675 1.386 . S
H673 C689 0.930 . S
H674 C690 0.931 . S
C675 H663 0.929 . S
C675 C669 1.390 . S
C675 C672 1.386 . S
C676 C671 1.490 . S
C676 C678 1.395 . S
C676 C679 1.403 . S
H677 C683 0.930 . S
C678 H664 0.930 . S
C678 C676 1.395 . S
C678 C681 1.403 . S
C679 C676 1.403 . S
C679 C680 1.524 . S
C679 C683 1.400 . S
C680 H665 0.960 . S
C680 H666 0.960 . S
C680 H667 0.960 . S
C680 C679 1.524 . S
C681 C678 1.403 . S
C681 C682 1.392 . S
C681 C685 1.495 . S
C682 C681 1.392 . S
C682 C683 1.385 . S
C682 C684 1.478 . S
C683 H677 0.930 . S
C683 C679 1.400 . S
C683 C682 1.385 . S
C684 C682 1.478 . S
C684 C686 1.381 . S
C684 C690 1.383 . S
C685 C681 1.495 . S
C685 H691 0.959 . S
C685 H692 0.961 . S
C685 H693 0.960 . S
C686 C684 1.381 . S
C686 C687 1.394 . S
C686 H694 0.930 . S
C687 C686 1.394 . S
C687 C688 1.383 . S
C687 H695 0.929 . S
C688 C687 1.383 . S
C688 C689 1.377 . S
C689 H673 0.930 . S
C689 C688 1.377 . S
C689 C690 1.379 . S
C690 H674 0.931 . S
C690 C684 1.383 . S
C690 C689 1.379 . S
H691 C685 0.959 . S
H692 C685 0.961 . S
H693 C685 0.960 . S
H694 C686 0.930 . S
H695 C687 0.929 . S
H696 C704 0.929 . S
H697 C706 0.930 . S
H698 C708 0.930 . S
H699 C711 0.929 . S
H700 C714 0.930 . S
H701 C716 0.960 . S
H702 C716 0.960 . S
H703 C716 0.960 . S
C704 H696 0.929 . S
C704 C705 1.377 . S
C704 C706 1.384 . S
C705 C704 1.377 . S
C705 C711 1.390 . S
C706 H697 0.930 . S
C706 C704 1.384 . S
C706 C707 1.372 . S
C707 C706 1.372 . S
C707 C708 1.400 . S
C707 C712 1.490 . S
C708 H698 0.930 . S
C708 C707 1.400 . S
C708 C711 1.386 . S
H709 C725 0.930 . S
H710 C726 0.931 . S
C711 H699 0.929 . S
C711 C705 1.390 . S
C711 C708 1.386 . S
C712 C707 1.490 . S
C712 C714 1.395 . S
C712 C715 1.403 . S
H713 C719 0.930 . S
C714 H700 0.930 . S
C714 C712 1.395 . S
C714 C717 1.403 1_455 S
C715 C712 1.403 . S
C715 C716 1.524 . S
C715 C719 1.400 1_455 S
C716 H701 0.960 . S
C716 H702 0.960 . S
C716 H703 0.960 . S
C716 C715 1.524 . S
C717 C714 1.403 1_655 S
C717 C718 1.392 . S
C717 C721 1.495 . S
C718 C717 1.392 . S
C718 C719 1.385 . S
C718 C720 1.478 . S
C719 H713 0.930 . S
C719 C715 1.400 1_655 S
C719 C718 1.385 . S
C720 C718 1.478 . S
C720 C722 1.381 . S
C720 C726 1.383 . S
C721 C717 1.495 . S
C721 H727 0.959 . S
C721 H728 0.961 . S
C721 H729 0.960 . S
C722 C720 1.381 . S
C722 C723 1.394 . S
C722 H730 0.930 . S
C723 C722 1.394 . S
C723 C724 1.383 . S
C723 H731 0.929 . S
C724 C723 1.383 . S
C724 C725 1.377 . S
C725 H709 0.930 . S
C725 C724 1.377 . S
C725 C726 1.379 . S
C726 H710 0.931 . S
C726 C720 1.383 . S
C726 C725 1.379 . S
H727 C721 0.959 . S
H728 C721 0.961 . S
H729 C721 0.960 . S
H730 C722 0.930 . S
H731 C723 0.929 . S
H732 C740 0.929 . S
H733 C742 0.930 . S
H734 C744 0.930 . S
H735 C747 0.929 . S
H736 C750 0.930 . S
H737 C752 0.960 . S
H738 C752 0.960 . S
H739 C752 0.960 . S
C740 H732 0.929 . S
C740 C741 1.377 . S
C740 C742 1.384 . S
C741 C740 1.377 . S
C741 C747 1.390 . S
C742 H733 0.930 . S
C742 C740 1.384 . S
C742 C743 1.372 . S
C743 C742 1.372 . S
C743 C744 1.400 . S
C743 C748 1.490 . S
C744 H734 0.930 . S
C744 C743 1.400 . S
C744 C747 1.386 . S
H745 C761 0.930 . S
H746 C762 0.931 . S
C747 H735 0.929 . S
C747 C741 1.390 . S
C747 C744 1.386 . S
C748 C743 1.490 . S
C748 C750 1.395 . S
C748 C751 1.403 1_455 S
H749 C755 0.930 . S
C750 H736 0.930 . S
C750 C748 1.395 . S
C750 C753 1.403 . S
C751 C748 1.403 1_655 S
C751 C752 1.524 . S
C751 C755 1.400 . S
C752 H737 0.960 . S
C752 H738 0.960 . S
C752 H739 0.960 . S
C752 C751 1.524 . S
C753 C750 1.403 . S
C753 C754 1.392 1_455 S
C753 C757 1.495 . S
C754 C753 1.392 1_655 S
C754 C755 1.385 . S
C754 C756 1.478 . S
C755 H749 0.930 . S
C755 C751 1.400 . S
C755 C754 1.385 . S
C756 C754 1.478 . S
C756 C758 1.381 . S
C756 C762 1.383 . S
C757 C753 1.495 . S
C757 H763 0.959 . S
C757 H764 0.961 . S
C757 H765 0.960 . S
C758 C756 1.381 . S
C758 C759 1.394 . S
C758 H766 0.930 . S
C759 C758 1.394 . S
C759 C760 1.383 . S
C759 H767 0.929 . S
C760 C759 1.383 . S
C760 C761 1.377 . S
C761 H745 0.930 . S
C761 C760 1.377 . S
C761 C762 1.379 . S
C762 H746 0.931 . S
C762 C756 1.383 . S
C762 C761 1.379 . S
H763 C757 0.959 . S
H764 C757 0.961 . S
H765 C757 0.960 . S
H766 C758 0.930 . S
H767 C759 0.929 . S
H768 C776 0.929 . S
H769 C778 0.930 . S
H770 C780 0.930 . S
H771 C783 0.929 . S
H772 C786 0.930 . S
H773 C788 0.960 . S
H774 C788 0.960 . S
H775 C788 0.960 . S
C776 H768 0.929 . S
C776 C777 1.377 . S
C776 C778 1.384 . S
C777 C776 1.377 . S
C777 C783 1.390 . S
C778 H769 0.930 . S
C778 C776 1.384 . S
C778 C779 1.372 . S
C779 C778 1.372 . S
C779 C780 1.400 . S
C779 C784 1.490 . S
C780 H770 0.930 . S
C780 C779 1.400 . S
C780 C783 1.386 . S
H781 C797 0.930 . S
H782 C798 0.931 . S
C783 H771 0.929 . S
C783 C777 1.390 . S
C783 C780 1.386 . S
C784 C779 1.490 . S
C784 C786 1.395 1_554 S
C784 C787 1.403 1_545 S
H785 C791 0.930 . S
C786 H772 0.930 . S
C786 C784 1.395 1_556 S
C786 C789 1.403 . S
C787 C784 1.403 1_565 S
C787 C788 1.524 . S
C787 C791 1.400 . S
C788 H773 0.960 . S
C788 H774 0.960 . S
C788 H775 0.960 . S
C788 C787 1.524 . S
C789 C786 1.403 . S
C789 C790 1.392 1_545 S
C789 C793 1.495 . S
C790 C789 1.392 1_565 S
C790 C791 1.385 1_556 S
C790 C792 1.478 . S
C791 H785 0.930 . S
C791 C787 1.400 . S
C791 C790 1.385 1_554 S
C792 C790 1.478 . S
C792 C794 1.381 . S
C792 C798 1.383 . S
C793 C789 1.495 . S
C793 H799 0.959 . S
C793 H800 0.961 . S
C793 H801 0.960 . S
C794 C792 1.381 . S
C794 C795 1.394 . S
C794 H802 0.930 . S
C795 C794 1.394 . S
C795 C796 1.383 . S
C795 H803 0.929 . S
C796 C795 1.383 . S
C796 C797 1.377 . S
C797 H781 0.930 . S
C797 C796 1.377 . S
C797 C798 1.379 . S
C798 H782 0.931 . S
C798 C792 1.383 . S
C798 C797 1.379 . S
H799 C793 0.959 . S
H800 C793 0.961 . S
H801 C793 0.960 . S
H802 C794 0.930 . S
H803 C795 0.929 . S
H804 C812 0.929 . S
H805 C814 0.930 . S
H806 C816 0.930 . S
H807 C819 0.929 . S
H808 C822 0.930 . S
H809 C824 0.960 . S
H810 C824 0.960 . S
H811 C824 0.960 . S
C812 H804 0.929 . S
C812 C813 1.377 . S
C812 C814 1.384 . S
C813 C812 1.377 . S
C813 C819 1.390 . S
C814 H805 0.930 . S
C814 C812 1.384 . S
C814 C815 1.372 . S
C815 C814 1.372 . S
C815 C816 1.400 . S
C815 C820 1.490 . S
C816 H806 0.930 . S
C816 C815 1.400 . S
C816 C819 1.386 . S
H817 C833 0.930 . S
H818 C834 0.931 . S
C819 H807 0.929 . S
C819 C813 1.390 . S
C819 C816 1.386 . S
C820 C815 1.490 . S
C820 C822 1.395 . S
C820 C823 1.403 . S
H821 C827 0.930 . S
C822 H808 0.930 . S
C822 C820 1.395 . S
C822 C825 1.403 . S
C823 C820 1.403 . S
C823 C824 1.524 . S
C823 C827 1.400 . S
C824 H809 0.960 . S
C824 H810 0.960 . S
C824 H811 0.960 . S
C824 C823 1.524 . S
C825 C822 1.403 . S
C825 C826 1.392 . S
C825 C829 1.495 . S
C826 C825 1.392 . S
C826 C827 1.385 . S
C826 C828 1.478 . S
C827 H821 0.930 . S
C827 C823 1.400 . S
C827 C826 1.385 . S
C828 C826 1.478 . S
C828 C830 1.381 . S
C828 C834 1.383 . S
C829 C825 1.495 . S
C829 H835 0.959 . S
C829 H836 0.961 . S
C829 H837 0.960 . S
C830 C828 1.381 . S
C830 C831 1.394 . S
C830 H838 0.930 . S
C831 C830 1.394 . S
C831 C832 1.383 . S
C831 H839 0.929 . S
C832 C831 1.383 . S
C832 C833 1.377 . S
C833 H817 0.930 . S
C833 C832 1.377 . S
C833 C834 1.379 . S
C834 H818 0.931 . S
C834 C828 1.383 . S
C834 C833 1.379 . S
H835 C829 0.959 . S
H836 C829 0.961 . S
H837 C829 0.960 . S
H838 C830 0.930 . S
H839 C831 0.929 . S
H840 C848 0.929 1_545 S
H841 C850 0.930 . S
H842 C852 0.930 . S
H843 C855 0.929 . S
H844 C858 0.930 . S
H845 C860 0.960 . S
H846 C860 0.960 . S
H847 C860 0.960 1_565 S
C848 H840 0.929 1_565 S
C848 C849 1.377 . S
C848 C850 1.384 1_565 S
C849 C848 1.377 . S
C849 C855 1.390 . S
C850 H841 0.930 . S
C850 C848 1.384 1_545 S
C850 C851 1.372 1_545 S
C851 C850 1.372 1_565 S
C851 C852 1.400 . S
C851 C856 1.490 . S
C852 H842 0.930 . S
C852 C851 1.400 . S
C852 C855 1.386 . S
H853 C869 0.930 1_565 S
H854 C870 0.931 . S
C855 H843 0.929 . S
C855 C849 1.390 . S
C855 C852 1.386 . S
C856 C851 1.490 . S
C856 C858 1.395 . S
C856 C859 1.403 1_465 S
H857 C863 0.930 . S
C858 H844 0.930 . S
C858 C856 1.395 . S
C858 C861 1.403 . S
C859 C856 1.403 1_645 S
C859 C860 1.524 . S
C859 C863 1.400 . S
C860 H845 0.960 . S
C860 H846 0.960 . S
C860 H847 0.960 1_545 S
C860 C859 1.524 . S
C861 C858 1.403 . S
C861 C862 1.392 1_465 S
C861 C865 1.495 . S
C862 C861 1.392 1_645 S
C862 C863 1.385 . S
C862 C864 1.478 . S
C863 H857 0.930 . S
C863 C859 1.400 . S
C863 C862 1.385 . S
C864 C862 1.478 . S
C864 C866 1.381 . S
C864 C870 1.383 1_545 S
C865 C861 1.495 . S
C865 H871 0.959 . S
C865 H872 0.961 . S
C865 H873 0.960 1_565 S
C866 C864 1.381 . S
C866 C867 1.394 . S
C866 H874 0.930 . S
C867 C866 1.394 . S
C867 C868 1.383 . S
C867 H875 0.929 . S
C868 C867 1.383 . S
C868 C869 1.377 . S
C869 H853 0.930 1_545 S
C869 C868 1.377 . S
C869 C870 1.379 1_545 S
C870 H854 0.931 . S
C870 C864 1.383 1_565 S
C870 C869 1.379 1_565 S
H871 C865 0.959 . S
H872 C865 0.961 . S
H873 C865 0.960 1_545 S
H874 C866 0.930 . S
H875 C867 0.929 . S
H876 C884 0.929 . S
H877 C886 0.930 . S
H878 C888 0.930 . S
H879 C891 0.929 . S
H880 C894 0.930 . S
H881 C896 0.960 . S
H882 C896 0.960 . S
H883 C896 0.960 . S
C884 H876 0.929 . S
C884 C885 1.377 . S
C884 C886 1.384 . S
C885 C884 1.377 . S
C885 C891 1.390 . S
C886 H877 0.930 . S
C886 C884 1.384 . S
C886 C887 1.372 . S
C887 C886 1.372 . S
C887 C888 1.400 . S
C887 C892 1.490 . S
C888 H878 0.930 . S
C888 C887 1.400 . S
C888 C891 1.386 . S
H889 C905 0.930 . S
H890 C906 0.931 . S
C891 H879 0.929 . S
C891 C885 1.390 . S
C891 C888 1.386 . S
C892 C887 1.490 . S
C892 C894 1.395 . S
C892 C895 1.403 . S
H893 C899 0.930 . S
C894 H880 0.930 . S
C894 C892 1.395 . S
C894 C897 1.403 . S
C895 C892 1.403 . S
C895 C896 1.524 . S
C895 C899 1.400 . S
C896 H881 0.960 . S
C896 H882 0.960 . S
C896 H883 0.960 . S
C896 C895 1.524 . S
C897 C894 1.403 . S
C897 C898 1.392 . S
C897 C901 1.495 . S
C898 C897 1.392 . S
C898 C899 1.385 . S
C898 C900 1.478 . S
C899 H893 0.930 . S
C899 C895 1.400 . S
C899 C898 1.385 . S
C900 C898 1.478 . S
C900 C902 1.381 . S
C900 C906 1.383 . S
C901 C897 1.495 . S
C901 H907 0.959 . S
C901 H908 0.961 . S
C901 H909 0.960 . S
C902 C900 1.381 . S
C902 C903 1.394 . S
C902 H910 0.930 . S
C903 C902 1.394 . S
C903 C904 1.383 . S
C903 H911 0.929 . S
C904 C903 1.383 . S
C904 C905 1.377 . S
C905 H889 0.930 . S
C905 C904 1.377 . S
C905 C906 1.379 . S
C906 H890 0.931 . S
C906 C900 1.383 . S
C906 C905 1.379 . S
H907 C901 0.959 . S
H908 C901 0.961 . S
H909 C901 0.960 . S
H910 C902 0.930 . S
H911 C903 0.929 . S
H912 C920 0.929 . S
H913 C922 0.930 . S
H914 C924 0.930 . S
H915 C927 0.929 . S
H916 C930 0.930 . S
H917 C932 0.960 . S
H918 C932 0.960 . S
H919 C932 0.960 . S
C920 H912 0.929 . S
C920 C921 1.377 . S
C920 C922 1.384 . S
C921 C920 1.377 . S
C921 C927 1.390 . S
C922 H913 0.930 . S
C922 C920 1.384 . S
C922 C923 1.372 . S
C923 C922 1.372 . S
C923 C924 1.400 . S
C923 C928 1.490 . S
C924 H914 0.930 . S
C924 C923 1.400 . S
C924 C927 1.386 . S
H925 C941 0.930 . S
H926 C942 0.931 . S
C927 H915 0.929 . S
C927 C921 1.390 . S
C927 C924 1.386 . S
C928 C923 1.490 . S
C928 C930 1.395 . S
C928 C931 1.403 . S
H929 C935 0.930 . S
C930 H916 0.930 . S
C930 C928 1.395 . S
C930 C933 1.403 . S
C931 C928 1.403 . S
C931 C932 1.524 . S
C931 C935 1.400 . S
C932 H917 0.960 . S
C932 H918 0.960 . S
C932 H919 0.960 . S
C932 C931 1.524 . S
C933 C930 1.403 . S
C933 C934 1.392 . S
C933 C937 1.495 . S
C934 C933 1.392 . S
C934 C935 1.385 . S
C934 C936 1.478 . S
C935 H929 0.930 . S
C935 C931 1.400 . S
C935 C934 1.385 . S
C936 C934 1.478 . S
C936 C938 1.381 . S
C936 C942 1.383 . S
C937 C933 1.495 . S
C937 H943 0.959 . S
C937 H944 0.961 . S
C937 H945 0.960 . S
C938 C936 1.381 . S
C938 C939 1.394 . S
C938 H946 0.930 . S
C939 C938 1.394 . S
C939 C940 1.383 . S
C939 H947 0.929 . S
C940 C939 1.383 . S
C940 C941 1.377 . S
C941 H925 0.930 . S
C941 C940 1.377 . S
C941 C942 1.379 . S
C942 H926 0.931 . S
C942 C936 1.383 . S
C942 C941 1.379 . S
H943 C937 0.959 . S
H944 C937 0.961 . S
H945 C937 0.960 . S
H946 C938 0.930 . S
H947 C939 0.929 . S
H948 C956 0.929 . S
H949 C958 0.930 . S
H950 C960 0.930 . S
H951 C963 0.929 . S
H952 C966 0.930 . S
H953 C968 0.960 . S
H954 C968 0.960 . S
H955 C968 0.960 . S
C956 H948 0.929 . S
C956 C957 1.377 . S
C956 C958 1.384 . S
C957 C956 1.377 . S
C957 C963 1.390 . S
C958 H949 0.930 . S
C958 C956 1.384 . S
C958 C959 1.372 . S
C959 C958 1.372 . S
C959 C960 1.400 . S
C959 C964 1.490 . S
C960 H950 0.930 . S
C960 C959 1.400 . S
C960 C963 1.386 . S
H961 C977 0.930 . S
H962 C978 0.931 . S
C963 H951 0.929 . S
C963 C957 1.390 . S
C963 C960 1.386 . S
C964 C959 1.490 . S
C964 C966 1.395 . S
C964 C967 1.403 . S
H965 C971 0.930 . S
C966 H952 0.930 . S
C966 C964 1.395 . S
C966 C969 1.403 . S
C967 C964 1.403 . S
C967 C968 1.524 . S
C967 C971 1.400 . S
C968 H953 0.960 . S
C968 H954 0.960 . S
C968 H955 0.960 . S
C968 C967 1.524 . S
C969 C966 1.403 . S
C969 C970 1.392 . S
C969 C973 1.495 . S
C970 C969 1.392 . S
C970 C971 1.385 . S
C970 C972 1.478 . S
C971 H965 0.930 . S
C971 C967 1.400 . S
C971 C970 1.385 . S
C972 C970 1.478 . S
C972 C974 1.381 . S
C972 C978 1.383 . S
C973 C969 1.495 . S
C973 H979 0.959 . S
C973 H980 0.961 . S
C973 H981 0.960 . S
C974 C972 1.381 . S
C974 C975 1.394 . S
C974 H982 0.930 . S
C975 C974 1.394 . S
C975 C976 1.383 . S
C975 H983 0.929 . S
C976 C975 1.383 . S
C976 C977 1.377 . S
C977 H961 0.930 . S
C977 C976 1.377 . S
C977 C978 1.379 . S
C978 H962 0.931 . S
C978 C972 1.383 . S
C978 C977 1.379 . S
H979 C973 0.959 . S
H980 C973 0.961 . S
H981 C973 0.960 . S
H982 C974 0.930 . S
H983 C975 0.929 . S
H984 C992 0.929 . S
H985 C994 0.930 . S
H986 C996 0.930 . S
H987 C999 0.929 . S
H988 C1002 0.930 . S
H989 C1004 0.960 . S
H990 C1004 0.960 . S
H991 C1004 0.960 . S
C992 H984 0.929 . S
C992 C993 1.377 . S
C992 C994 1.384 . S
C993 C992 1.377 . S
C993 C999 1.390 . S
C994 H985 0.930 . S
C994 C992 1.384 . S
C994 C995 1.372 . S
C995 C994 1.372 . S
C995 C996 1.400 . S
C995 C1000 1.490 . S
C996 H986 0.930 . S
C996 C995 1.400 . S
C996 C999 1.386 . S
H997 C1013 0.930 . S
H998 C1014 0.931 . S
C999 H987 0.929 . S
C999 C993 1.390 . S
C999 C996 1.386 . S
C1000 C995 1.490 . S
C1000 C1002 1.395 1_455 S
C1000 C1003 1.403 . S
H1001 C1007 0.932 . S
C1002 H988 0.930 . S
C1002 C1000 1.395 1_655 S
C1002 C1005 1.403 . S
C1003 C1000 1.403 . S
C1003 C1004 1.524 . S
C1003 C1007 1.415 . S
C1004 H989 0.960 . S
C1004 H990 0.960 . S
C1004 H991 0.960 . S
C1004 C1003 1.524 . S
C1005 C1002 1.403 . S
C1005 C1006 1.392 . S
C1005 C1009 1.495 . S
C1006 C1005 1.392 . S
C1006 C1007 1.368 1_655 S
C1006 C1008 1.478 . S
C1007 H1001 0.932 . S
C1007 C1003 1.415 . S
C1007 C1006 1.368 1_455 S
C1008 C1006 1.478 . S
C1008 C1010 1.381 . S
C1008 C1014 1.383 . S
C1009 C1005 1.495 . S
C1009 H1015 0.959 . S
C1009 H1016 0.961 . S
C1009 H1017 0.960 . S
C1010 C1008 1.381 . S
C1010 C1011 1.394 . S
C1010 H1018 0.930 . S
C1011 C1010 1.394 . S
C1011 C1012 1.383 . S
C1011 H1019 0.929 . S
C1012 C1011 1.383 . S
C1012 C1013 1.377 . S
C1013 H997 0.930 . S
C1013 C1012 1.377 . S
C1013 C1014 1.379 . S
C1014 H998 0.931 . S
C1014 C1008 1.383 . S
C1014 C1013 1.379 . S
H1015 C1009 0.959 . S
H1016 C1009 0.961 . S
H1017 C1009 0.960 . S
H1018 C1010 0.930 . S
H1019 C1011 0.929 . S
H1020 C1028 0.929 . S
H1021 C1030 0.930 . S
H1022 C1032 0.930 . S
H1023 C1035 0.929 . S
H1024 C1038 0.930 . S
H1025 C1040 0.960 . S
H1026 C1040 0.960 . S
H1027 C1040 0.960 . S
C1028 H1020 0.929 . S
C1028 C1029 1.377 . S
C1028 C1030 1.384 . S
C1029 C1028 1.377 . S
C1029 C1035 1.390 . S
C1030 H1021 0.930 . S
C1030 C1028 1.384 . S
C1030 C1031 1.372 . S
C1031 C1030 1.372 . S
C1031 C1032 1.400 . S
C1031 C1036 1.490 . S
C1032 H1022 0.930 . S
C1032 C1031 1.400 . S
C1032 C1035 1.386 . S
H1033 C1049 0.930 . S
H1034 C1050 0.931 . S
C1035 H1023 0.929 . S
C1035 C1029 1.390 . S
C1035 C1032 1.386 . S
C1036 C1031 1.490 . S
C1036 C1038 1.352 1_554 S
C1036 C1039 1.403 . S
H1037 C1043 0.930 . S
C1038 H1024 0.930 . S
C1038 C1036 1.352 1_556 S
C1038 C1041 1.449 . S
C1039 C1036 1.403 . S
C1039 C1040 1.524 . S
C1039 C1043 1.384 1_554 S
C1040 H1025 0.960 . S
C1040 H1026 0.960 . S
C1040 H1027 0.960 . S
C1040 C1039 1.524 . S
C1041 C1038 1.449 . S
C1041 C1042 1.392 . S
C1041 C1045 1.495 . S
C1042 C1041 1.392 . S
C1042 C1043 1.401 . S
C1042 C1044 1.478 . S
C1043 H1037 0.930 . S
C1043 C1039 1.384 1_556 S
C1043 C1042 1.401 . S
C1044 C1042 1.478 . S
C1044 C1046 1.381 . S
C1044 C1050 1.383 . S
C1045 C1041 1.495 . S
C1045 H1051 0.959 . S
C1045 H1052 0.961 . S
C1045 H1053 0.960 . S
C1046 C1044 1.381 . S
C1046 C1047 1.394 . S
C1046 H1054 0.930 . S
C1047 C1046 1.394 . S
C1047 C1048 1.383 . S
C1047 H1055 0.929 . S
C1048 C1047 1.383 . S
C1048 C1049 1.377 . S
C1049 H1033 0.930 . S
C1049 C1048 1.377 . S
C1049 C1050 1.379 . S
C1050 H1034 0.931 . S
C1050 C1044 1.383 . S
C1050 C1049 1.379 . S
H1051 C1045 0.959 . S
H1052 C1045 0.961 . S
H1053 C1045 0.960 . S
H1054 C1046 0.930 . S
H1055 C1047 0.929 . S
H1056 C1064 0.929 . S
H1057 C1066 0.930 . S
H1058 C1068 0.930 . S
H1059 C1071 0.929 . S
H1060 C1074 0.930 . S
H1061 C1076 0.960 . S
H1062 C1076 0.960 . S
H1063 C1076 0.960 . S
C1064 H1056 0.929 . S
C1064 C1065 1.377 . S
C1064 C1066 1.384 . S
C1065 C1064 1.377 . S
C1065 C1071 1.390 . S
C1066 H1057 0.930 . S
C1066 C1064 1.384 . S
C1066 C1067 1.372 . S
C1067 C1066 1.372 . S
C1067 C1068 1.400 . S
C1067 C1072 1.490 . S
C1068 H1058 0.930 . S
C1068 C1067 1.400 . S
C1068 C1071 1.386 . S
H1069 C1085 0.930 . S
H1070 C1086 0.931 . S
C1071 H1059 0.929 . S
C1071 C1065 1.390 . S
C1071 C1068 1.386 . S
C1072 C1067 1.490 . S
C1072 C1074 1.395 . S
C1072 C1075 1.403 . S
H1073 C1079 0.930 . S
C1074 H1060 0.930 . S
C1074 C1072 1.395 . S
C1074 C1077 1.403 . S
C1075 C1072 1.403 . S
C1075 C1076 1.524 . S
C1075 C1079 1.400 . S
C1076 H1061 0.960 . S
C1076 H1062 0.960 . S
C1076 H1063 0.960 . S
C1076 C1075 1.524 . S
C1077 C1074 1.403 . S
C1077 C1078 1.392 . S
C1077 C1081 1.495 . S
C1078 C1077 1.392 . S
C1078 C1079 1.385 . S
C1078 C1080 1.478 . S
C1079 H1073 0.930 . S
C1079 C1075 1.400 . S
C1079 C1078 1.385 . S
C1080 C1078 1.478 . S
C1080 C1082 1.381 . S
C1080 C1086 1.383 . S
C1081 C1077 1.495 . S
C1081 H1087 0.959 . S
C1081 H1088 0.961 . S
C1081 H1089 0.960 . S
C1082 C1080 1.381 . S
C1082 C1083 1.394 . S
C1082 H1090 0.930 . S
C1083 C1082 1.394 . S
C1083 C1084 1.383 . S
C1083 H1091 0.929 . S
C1084 C1083 1.383 . S
C1084 C1085 1.377 . S
C1085 H1069 0.930 . S
C1085 C1084 1.377 . S
C1085 C1086 1.379 . S
C1086 H1070 0.931 . S
C1086 C1080 1.383 . S
C1086 C1085 1.379 . S
H1087 C1081 0.959 . S
H1088 C1081 0.961 . S
H1089 C1081 0.960 . S
H1090 C1082 0.930 . S
H1091 C1083 0.929 . S
H1092 C1100 0.929 . S
H1093 C1102 0.930 . S
H1094 C1104 0.930 . S
H1095 C1107 0.929 . S
H1096 C1110 0.930 . S
H1097 C1112 0.960 . S
H1098 C1112 0.960 . S
H1099 C1112 0.960 . S
C1100 H1092 0.929 . S
C1100 C1101 1.377 . S
C1100 C1102 1.384 . S
C1101 C1100 1.377 . S
C1101 C1107 1.390 . S
C1102 H1093 0.930 . S
C1102 C1100 1.384 . S
C1102 C1103 1.372 . S
C1103 C1102 1.372 . S
C1103 C1104 1.400 . S
C1103 C1108 1.490 . S
C1104 H1094 0.930 . S
C1104 C1103 1.400 . S
C1104 C1107 1.386 . S
H1105 C1121 0.930 . S
H1106 C1122 0.931 . S
C1107 H1095 0.929 . S
C1107 C1101 1.390 . S
C1107 C1104 1.386 . S
C1108 C1103 1.490 . S
C1108 C1110 1.395 . S
C1108 C1111 1.403 . S
H1109 C1115 0.930 . S
C1110 H1096 0.930 . S
C1110 C1108 1.395 . S
C1110 C1113 1.403 . S
C1111 C1108 1.403 . S
C1111 C1112 1.524 . S
C1111 C1115 1.400 . S
C1112 H1097 0.960 . S
C1112 H1098 0.960 . S
C1112 H1099 0.960 . S
C1112 C1111 1.524 . S
C1113 C1110 1.403 . S
C1113 C1114 1.392 . S
C1113 C1117 1.495 . S
C1114 C1113 1.392 . S
C1114 C1115 1.385 . S
C1114 C1116 1.478 . S
C1115 H1109 0.930 . S
C1115 C1111 1.400 . S
C1115 C1114 1.385 . S
C1116 C1114 1.478 . S
C1116 C1118 1.381 . S
C1116 C1122 1.383 . S
C1117 C1113 1.495 . S
C1117 H1123 0.959 . S
C1117 H1124 0.961 . S
C1117 H1125 0.960 . S
C1118 C1116 1.381 . S
C1118 C1119 1.394 . S
C1118 H1126 0.930 . S
C1119 C1118 1.394 . S
C1119 C1120 1.383 . S
C1119 H1127 0.929 . S
C1120 C1119 1.383 . S
C1120 C1121 1.377 . S
C1121 H1105 0.930 . S
C1121 C1120 1.377 . S
C1121 C1122 1.379 . S
C1122 H1106 0.931 . S
C1122 C1116 1.383 . S
C1122 C1121 1.379 . S
H1123 C1117 0.959 . S
H1124 C1117 0.961 . S
H1125 C1117 0.960 . S
H1126 C1118 0.930 . S
H1127 C1119 0.929 . S
H1128 C1136 0.929 . S
H1129 C1138 0.930 . S
H1130 C1140 0.930 . S
H1131 C1143 0.929 . S
H1132 C1146 0.930 . S
H1133 C1148 0.960 . S
H1134 C1148 0.960 . S
H1135 C1148 0.960 . S
C1136 H1128 0.929 . S
C1136 C1137 1.377 . S
C1136 C1138 1.384 . S
C1137 C1136 1.377 . S
C1137 C1143 1.390 . S
C1138 H1129 0.930 . S
C1138 C1136 1.384 . S
C1138 C1139 1.372 . S
C1139 C1138 1.372 . S
C1139 C1140 1.400 . S
C1139 C1144 1.490 . S
C1140 H1130 0.930 . S
C1140 C1139 1.400 . S
C1140 C1143 1.386 . S
H1141 C1157 0.930 . S
H1142 C1158 0.931 . S
C1143 H1131 0.929 . S
C1143 C1137 1.390 . S
C1143 C1140 1.386 . S
C1144 C1139 1.490 . S
C1144 C1146 1.395 . S
C1144 C1147 1.403 . S
H1145 C1151 0.930 . S
C1146 H1132 0.930 . S
C1146 C1144 1.395 . S
C1146 C1149 1.403 . S
C1147 C1144 1.403 . S
C1147 C1148 1.524 . S
C1147 C1151 1.400 . S
C1148 H1133 0.960 . S
C1148 H1134 0.960 . S
C1148 H1135 0.960 . S
C1148 C1147 1.524 . S
C1149 C1146 1.403 . S
C1149 C1150 1.392 . S
C1149 C1153 1.495 . S
C1150 C1149 1.392 . S
C1150 C1151 1.385 . S
C1150 C1152 1.478 . S
C1151 H1145 0.930 . S
C1151 C1147 1.400 . S
C1151 C1150 1.385 . S
C1152 C1150 1.478 . S
C1152 C1154 1.381 . S
C1152 C1158 1.383 . S
C1153 C1149 1.495 . S
C1153 H1159 0.959 . S
C1153 H1160 0.961 . S
C1153 H1161 0.960 . S
C1154 C1152 1.381 . S
C1154 C1155 1.394 . S
C1154 H1162 0.930 . S
C1155 C1154 1.394 . S
C1155 C1156 1.383 . S
C1155 H1163 0.929 . S
C1156 C1155 1.383 . S
C1156 C1157 1.377 . S
C1157 H1141 0.930 . S
C1157 C1156 1.377 . S
C1157 C1158 1.379 . S
C1158 H1142 0.931 . S
C1158 C1152 1.383 . S
C1158 C1157 1.379 . S
H1159 C1153 0.959 . S
H1160 C1153 0.961 . S
H1161 C1153 0.960 . S
H1162 C1154 0.930 . S
H1163 C1155 0.929 . S
H1164 C1172 0.930 . S
H1165 C1174 0.930 . S
H1166 C1176 0.930 . S
H1167 C1179 0.929 . S
H1168 C1182 0.930 . S
H1169 C1184 0.960 . S
H1170 C1184 0.960 . S
H1171 C1184 0.960 . S
C1172 H1164 0.930 . S
C1172 C1173 1.382 . S
C1172 C1174 1.379 1_655 S
C1173 C1172 1.382 . S
C1173 C1179 1.390 . S
C1174 H1165 0.930 . S
C1174 C1172 1.379 1_455 S
C1174 C1175 1.372 . S
C1175 C1174 1.372 . S
C1175 C1176 1.400 . S
C1175 C1180 1.490 . S
C1176 H1166 0.930 . S
C1176 C1175 1.400 . S
C1176 C1179 1.386 1_455 S
H1177 C1193 0.930 . S
H1178 C1194 0.931 . S
C1179 H1167 0.929 . S
C1179 C1173 1.390 . S
C1179 C1176 1.386 1_655 S
C1180 C1175 1.490 . S
C1180 C1182 1.395 . S
C1180 C1183 1.403 . S
H1181 C1187 0.930 . S
C1182 H1168 0.930 . S
C1182 C1180 1.395 . S
C1182 C1185 1.403 . S
C1183 C1180 1.403 . S
C1183 C1184 1.524 . S
C1183 C1187 1.400 . S
C1184 H1169 0.960 . S
C1184 H1170 0.960 . S
C1184 H1171 0.960 . S
C1184 C1183 1.524 . S
C1185 C1182 1.403 . S
C1185 C1186 1.392 . S
C1185 C1189 1.495 . S
C1186 C1185 1.392 . S
C1186 C1187 1.385 . S
C1186 C1188 1.478 . S
C1187 H1181 0.930 . S
C1187 C1183 1.400 . S
C1187 C1186 1.385 . S
C1188 C1186 1.478 . S
C1188 C1190 1.381 . S
C1188 C1194 1.383 . S
C1189 C1185 1.495 . S
C1189 H1195 0.959 . S
C1189 H1196 0.961 . S
C1189 H1197 0.960 . S
C1190 C1188 1.381 . S
C1190 C1191 1.394 . S
C1190 H1198 0.930 . S
C1191 C1190 1.394 . S
C1191 C1192 1.383 . S
C1191 H1199 0.929 . S
C1192 C1191 1.383 . S
C1192 C1193 1.377 . S
C1193 H1177 0.930 . S
C1193 C1192 1.377 . S
C1193 C1194 1.379 . S
C1194 H1178 0.931 . S
C1194 C1188 1.383 . S
C1194 C1193 1.379 . S
H1195 C1189 0.959 . S
H1196 C1189 0.961 . S
H1197 C1189 0.960 . S
H1198 C1190 0.930 . S
H1199 C1191 0.929 . S
H1200 C1208 0.929 . S
H1201 C1210 0.930 . S
H1202 C1212 0.930 . S
H1203 C1215 0.929 . S
H1204 C1218 0.930 . S
H1205 C1220 0.960 . S
H1206 C1220 0.960 . S
H1207 C1220 0.960 . S
C1208 H1200 0.929 . S
C1208 C1209 1.377 . S
C1208 C1210 1.384 . S
C1209 C1208 1.377 . S
C1209 C1215 1.390 . S
C1210 H1201 0.930 . S
C1210 C1208 1.384 . S
C1210 C1211 1.372 . S
C1211 C1210 1.372 . S
C1211 C1212 1.400 . S
C1211 C1216 1.490 . S
C1212 H1202 0.930 . S
C1212 C1211 1.400 . S
C1212 C1215 1.386 . S
H1213 C1229 0.930 . S
H1214 C1230 0.931 . S
C1215 H1203 0.929 . S
C1215 C1209 1.390 . S
C1215 C1212 1.386 . S
C1216 C1211 1.490 . S
C1216 C1218 1.395 . S
C1216 C1219 1.403 . S
H1217 C1223 0.930 . S
C1218 H1204 0.930 . S
C1218 C1216 1.395 . S
C1218 C1221 1.403 . S
C1219 C1216 1.403 . S
C1219 C1220 1.524 . S
C1219 C1223 1.400 . S
C1220 H1205 0.960 . S
C1220 H1206 0.960 . S
C1220 H1207 0.960 . S
C1220 C1219 1.524 . S
C1221 C1218 1.403 . S
C1221 C1222 1.392 . S
C1221 C1225 1.495 . S
C1222 C1221 1.392 . S
C1222 C1223 1.385 . S
C1222 C1224 1.478 . S
C1223 H1217 0.930 . S
C1223 C1219 1.400 . S
C1223 C1222 1.385 . S
C1224 C1222 1.478 . S
C1224 C1226 1.381 . S
C1224 C1230 1.383 . S
C1225 C1221 1.495 . S
C1225 H1231 0.959 . S
C1225 H1232 0.961 . S
C1225 H1233 0.960 . S
C1226 C1224 1.381 . S
C1226 C1227 1.394 . S
C1226 H1234 0.930 . S
C1227 C1226 1.394 . S
C1227 C1228 1.383 . S
C1227 H1235 0.929 . S
C1228 C1227 1.383 . S
C1228 C1229 1.377 . S
C1229 H1213 0.930 . S
C1229 C1228 1.377 . S
C1229 C1230 1.379 . S
C1230 H1214 0.931 . S
C1230 C1224 1.383 . S
C1230 C1229 1.379 . S
H1231 C1225 0.959 . S
H1232 C1225 0.961 . S
H1233 C1225 0.960 . S
H1234 C1226 0.930 . S
H1235 C1227 0.929 . S
H1236 C1244 0.929 . S
H1237 C1246 0.930 . S
H1238 C1248 0.930 . S
H1239 C1251 0.929 . S
H1240 C1254 0.930 . S
H1241 C1256 0.960 . S
H1242 C1256 0.960 . S
H1243 C1256 0.960 . S
C1244 H1236 0.929 . S
C1244 C1245 1.377 . S
C1244 C1246 1.384 . S
C1245 C1244 1.377 . S
C1245 C1251 1.390 . S
C1246 H1237 0.930 . S
C1246 C1244 1.384 . S
C1246 C1247 1.372 . S
C1247 C1246 1.372 . S
C1247 C1248 1.400 . S
C1247 C1252 1.490 . S
C1248 H1238 0.930 . S
C1248 C1247 1.400 . S
C1248 C1251 1.386 . S
H1249 C1265 0.930 . S
H1250 C1266 0.931 . S
C1251 H1239 0.929 . S
C1251 C1245 1.390 . S
C1251 C1248 1.386 . S
C1252 C1247 1.490 . S
C1252 C1254 1.395 . S
C1252 C1255 1.403 . S
H1253 C1259 0.930 . S
C1254 H1240 0.930 . S
C1254 C1252 1.395 . S
C1254 C1257 1.403 . S
C1255 C1252 1.403 . S
C1255 C1256 1.524 . S
C1255 C1259 1.400 . S
C1256 H1241 0.960 . S
C1256 H1242 0.960 . S
C1256 H1243 0.960 . S
C1256 C1255 1.524 . S
C1257 C1254 1.403 . S
C1257 C1258 1.392 . S
C1257 C1261 1.495 . S
C1258 C1257 1.392 . S
C1258 C1259 1.385 . S
C1258 C1260 1.478 . S
C1259 H1253 0.930 . S
C1259 C1255 1.400 . S
C1259 C1258 1.385 . S
C1260 C1258 1.478 . S
C1260 C1262 1.381 . S
C1260 C1266 1.383 . S
C1261 C1257 1.495 . S
C1261 H1267 0.959 . S
C1261 H1268 0.961 . S
C1261 H1269 0.960 . S
C1262 C1260 1.381 . S
C1262 C1263 1.394 . S
C1262 H1270 0.930 . S
C1263 C1262 1.394 . S
C1263 C1264 1.383 . S
C1263 H1271 0.929 . S
C1264 C1263 1.383 . S
C1264 C1265 1.377 . S
C1265 H1249 0.930 . S
C1265 C1264 1.377 . S
C1265 C1266 1.379 . S
C1266 H1250 0.931 . S
C1266 C1260 1.383 . S
C1266 C1265 1.379 . S
H1267 C1261 0.959 . S
H1268 C1261 0.961 . S
H1269 C1261 0.960 . S
H1270 C1262 0.930 . S
H1271 C1263 0.929 . S
H1272 C1280 0.929 . S
H1273 C1282 0.930 . S
H1274 C1284 0.930 . S
H1275 C1287 0.929 . S
H1276 C1290 0.930 . S
H1277 C1292 0.960 . S
H1278 C1292 0.960 . S
H1279 C1292 0.960 . S
C1280 H1272 0.929 . S
C1280 C1281 1.377 . S
C1280 C1282 1.384 . S
C1281 C1280 1.377 . S
C1281 C1287 1.390 . S
C1282 H1273 0.930 . S
C1282 C1280 1.384 . S
C1282 C1283 1.372 . S
C1283 C1282 1.372 . S
C1283 C1284 1.400 . S
C1283 C1288 1.490 . S
C1284 H1274 0.930 . S
C1284 C1283 1.400 . S
C1284 C1287 1.386 . S
H1285 C1301 0.930 . S
H1286 C1302 0.931 . S
C1287 H1275 0.929 . S
C1287 C1281 1.390 . S
C1287 C1284 1.386 . S
C1288 C1283 1.490 . S
C1288 C1290 1.395 . S
C1288 C1291 1.403 . S
H1289 C1295 0.930 . S
C1290 H1276 0.930 . S
C1290 C1288 1.395 . S
C1290 C1293 1.403 . S
C1291 C1288 1.403 . S
C1291 C1292 1.524 . S
C1291 C1295 1.400 . S
C1292 H1277 0.960 . S
C1292 H1278 0.960 . S
C1292 H1279 0.960 . S
C1292 C1291 1.524 . S
C1293 C1290 1.403 . S
C1293 C1294 1.392 . S
C1293 C1297 1.495 . S
C1294 C1293 1.392 . S
C1294 C1295 1.385 . S
C1294 C1296 1.478 . S
C1295 H1289 0.930 . S
C1295 C1291 1.400 . S
C1295 C1294 1.385 . S
C1296 C1294 1.478 . S
C1296 C1298 1.381 . S
C1296 C1302 1.383 . S
C1297 C1293 1.495 . S
C1297 H1303 0.959 . S
C1297 H1304 0.961 . S
C1297 H1305 0.960 . S
C1298 C1296 1.381 . S
C1298 C1299 1.394 . S
C1298 H1306 0.930 . S
C1299 C1298 1.394 . S
C1299 C1300 1.383 . S
C1299 H1307 0.929 . S
C1300 C1299 1.383 . S
C1300 C1301 1.377 . S
C1301 H1285 0.930 . S
C1301 C1300 1.377 . S
C1301 C1302 1.379 . S
C1302 H1286 0.931 . S
C1302 C1296 1.383 . S
C1302 C1301 1.379 . S
H1303 C1297 0.959 . S
H1304 C1297 0.961 . S
H1305 C1297 0.960 . S
H1306 C1298 0.930 . S
H1307 C1299 0.929 . S
H1308 C1316 0.929 . S
H1309 C1318 0.930 . S
H1310 C1320 0.930 . S
H1311 C1323 0.929 . S
H1312 C1326 0.930 . S
H1313 C1328 0.960 . S
H1314 C1328 0.960 . S
H1315 C1328 0.960 . S
C1316 H1308 0.929 . S
C1316 C1317 1.377 . S
C1316 C1318 1.384 . S
C1317 C1316 1.377 . S
C1317 C1323 1.390 . S
C1318 H1309 0.930 . S
C1318 C1316 1.384 . S
C1318 C1319 1.372 . S
C1319 C1318 1.372 . S
C1319 C1320 1.400 . S
C1319 C1324 1.490 . S
C1320 H1310 0.930 . S
C1320 C1319 1.400 . S
C1320 C1323 1.386 . S
H1321 C1337 0.931 . S
H1322 C1338 0.931 . S
C1323 H1311 0.929 . S
C1323 C1317 1.390 . S
C1323 C1320 1.386 . S
C1324 C1319 1.490 . S
C1324 C1326 1.395 . S
C1324 C1327 1.403 . S
H1325 C1331 0.930 . S
C1326 H1312 0.930 . S
C1326 C1324 1.395 . S
C1326 C1329 1.403 . S
C1327 C1324 1.403 . S
C1327 C1328 1.524 . S
C1327 C1331 1.400 . S
C1328 H1313 0.960 . S
C1328 H1314 0.960 . S
C1328 H1315 0.960 . S
C1328 C1327 1.524 . S
C1329 C1326 1.403 . S
C1329 C1330 1.392 . S
C1329 C1333 1.495 . S
C1330 C1329 1.392 . S
C1330 C1331 1.385 . S
C1330 C1332 1.478 . S
C1331 H1325 0.930 . S
C1331 C1327 1.400 . S
C1331 C1330 1.385 . S
C1332 C1330 1.478 . S
C1332 C1334 1.381 . S
C1332 C1338 1.383 . S
C1333 C1329 1.495 . S
C1333 H1339 0.959 . S
C1333 H1340 0.961 . S
C1333 H1341 0.960 . S
C1334 C1332 1.381 . S
C1334 C1335 1.394 1_655 S
C1334 H1342 0.930 . S
C1335 C1334 1.394 1_455 S
C1335 C1336 1.383 . S
C1335 H1343 0.929 . S
C1336 C1335 1.383 . S
C1336 C1337 1.392 . S
C1337 H1321 0.931 . S
C1337 C1336 1.392 . S
C1337 C1338 1.363 1_455 S
C1338 H1322 0.931 . S
C1338 C1332 1.383 . S
C1338 C1337 1.363 1_655 S
H1339 C1333 0.959 . S
H1340 C1333 0.961 . S
H1341 C1333 0.960 . S
H1342 C1334 0.930 . S
H1343 C1335 0.929 . S
H1344 C1352 0.929 . S
H1345 C1354 0.930 . S
H1346 C1356 0.930 . S
H1347 C1359 0.929 . S
H1348 C1362 0.930 . S
H1349 C1364 0.960 . S
H1350 C1364 0.960 . S
H1351 C1364 0.960 . S
C1352 H1344 0.929 . S
C1352 C1353 1.377 . S
C1352 C1354 1.384 . S
C1353 C1352 1.377 . S
C1353 C1359 1.390 . S
C1354 H1345 0.930 . S
C1354 C1352 1.384 . S
C1354 C1355 1.372 . S
C1355 C1354 1.372 . S
C1355 C1356 1.400 . S
C1355 C1360 1.490 . S
C1356 H1346 0.930 . S
C1356 C1355 1.400 . S
C1356 C1359 1.386 . S
H1357 C1373 0.930 . S
H1358 C1374 0.931 . S
C1359 H1347 0.929 . S
C1359 C1353 1.390 . S
C1359 C1356 1.386 . S
C1360 C1355 1.490 . S
C1360 C1362 1.395 . S
C1360 C1363 1.403 . S
H1361 C1367 0.930 . S
C1362 H1348 0.930 . S
C1362 C1360 1.395 . S
C1362 C1365 1.403 . S
C1363 C1360 1.403 . S
C1363 C1364 1.524 . S
C1363 C1367 1.400 . S
C1364 H1349 0.960 . S
C1364 H1350 0.960 . S
C1364 H1351 0.960 . S
C1364 C1363 1.524 . S
C1365 C1362 1.403 . S
C1365 C1366 1.392 . S
C1365 C1369 1.495 . S
C1366 C1365 1.392 . S
C1366 C1367 1.385 . S
C1366 C1368 1.478 . S
C1367 H1361 0.930 . S
C1367 C1363 1.400 . S
C1367 C1366 1.385 . S
C1368 C1366 1.478 . S
C1368 C1370 1.381 . S
C1368 C1374 1.383 . S
C1369 C1365 1.495 . S
C1369 H1375 0.959 . S
C1369 H1376 0.961 . S
C1369 H1377 0.960 . S
C1370 C1368 1.381 . S
C1370 C1371 1.394 . S
C1370 H1378 0.930 . S
C1371 C1370 1.394 . S
C1371 C1372 1.383 . S
C1371 H1379 0.929 . S
C1372 C1371 1.383 . S
C1372 C1373 1.377 . S
C1373 H1357 0.930 . S
C1373 C1372 1.377 . S
C1373 C1374 1.379 . S
C1374 H1358 0.931 . S
C1374 C1368 1.383 . S
C1374 C1373 1.379 . S
H1375 C1369 0.959 . S
H1376 C1369 0.961 . S
H1377 C1369 0.960 . S
H1378 C1370 0.930 . S
H1379 C1371 0.929 . S
H1380 C1388 0.929 . S
H1381 C1390 0.930 . S
H1382 C1392 0.930 . S
H1383 C1395 0.929 . S
H1384 C1398 0.930 . S
H1385 C1400 0.960 . S
H1386 C1400 0.960 . S
H1387 C1400 0.960 . S
C1388 H1380 0.929 . S
C1388 C1389 1.377 . S
C1388 C1390 1.384 . S
C1389 C1388 1.377 . S
C1389 C1395 1.390 . S
C1390 H1381 0.930 . S
C1390 C1388 1.384 . S
C1390 C1391 1.372 . S
C1391 C1390 1.372 . S
C1391 C1392 1.400 . S
C1391 C1396 1.490 . S
C1392 H1382 0.930 . S
C1392 C1391 1.400 . S
C1392 C1395 1.386 . S
H1393 C1409 0.930 1_455 S
H1394 C1410 0.931 . S
C1395 H1383 0.929 . S
C1395 C1389 1.390 . S
C1395 C1392 1.386 . S
C1396 C1391 1.490 . S
C1396 C1398 1.395 . S
C1396 C1399 1.403 . S
H1397 C1403 0.930 . S
C1398 H1384 0.930 . S
C1398 C1396 1.395 . S
C1398 C1401 1.403 . S
C1399 C1396 1.403 . S
C1399 C1400 1.524 . S
C1399 C1403 1.400 . S
C1400 H1385 0.960 . S
C1400 H1386 0.960 . S
C1400 H1387 0.960 . S
C1400 C1399 1.524 . S
C1401 C1398 1.403 . S
C1401 C1402 1.392 . S
C1401 C1405 1.495 1_565 S
C1402 C1401 1.392 . S
C1402 C1403 1.385 . S
C1402 C1404 1.478 1_565 S
C1403 H1397 0.930 . S
C1403 C1399 1.400 . S
C1403 C1402 1.385 . S
C1404 C1402 1.478 1_545 S
C1404 C1406 1.381 1_545 S
C1404 C1410 1.383 . S
C1405 C1401 1.495 1_545 S
C1405 H1411 0.959 . S
C1405 H1412 0.961 . S
C1405 H1413 0.960 . S
C1406 C1404 1.381 1_565 S
C1406 C1407 1.394 1_565 S
C1406 H1414 0.930 . S
C1407 C1406 1.394 1_545 S
C1407 C1408 1.383 1_655 S
C1407 H1415 0.929 . S
C1408 C1407 1.383 1_455 S
C1408 C1409 1.377 1_455 S
C1409 H1393 0.930 1_655 S
C1409 C1408 1.377 1_655 S
C1409 C1410 1.379 . S
C1410 H1394 0.931 . S
C1410 C1404 1.383 . S
C1410 C1409 1.379 . S
H1411 C1405 0.959 . S
H1412 C1405 0.961 . S
H1413 C1405 0.960 . S
H1414 C1406 0.930 . S
H1415 C1407 0.929 . S
H1416 C1424 0.929 . S
H1417 C1426 0.930 . S
H1418 C1428 0.930 . S
H1419 C1431 0.929 . S
H1420 C1434 0.930 . S
H1421 C1436 0.960 . S
H1422 C1436 0.960 . S
H1423 C1436 0.960 . S
C1424 H1416 0.929 . S
C1424 C1425 1.377 1_545 S
C1424 C1426 1.384 . S
C1425 C1424 1.377 1_565 S
C1425 C1431 1.390 . S
C1426 H1417 0.930 . S
C1426 C1424 1.384 . S
C1426 C1427 1.372 . S
C1427 C1426 1.372 . S
C1427 C1428 1.400 . S
C1427 C1432 1.490 . S
C1428 H1418 0.930 . S
C1428 C1427 1.400 . S
C1428 C1431 1.386 1_545 S
H1429 C1445 0.930 . S
H1430 C1446 0.931 . S
C1431 H1419 0.929 . S
C1431 C1425 1.390 . S
C1431 C1428 1.386 1_565 S
C1432 C1427 1.490 . S
C1432 C1434 1.395 . S
C1432 C1435 1.403 . S
H1433 C1439 0.930 . S
C1434 H1420 0.930 . S
C1434 C1432 1.395 . S
C1434 C1437 1.403 . S
C1435 C1432 1.403 . S
C1435 C1436 1.524 . S
C1435 C1439 1.400 . S
C1436 H1421 0.960 . S
C1436 H1422 0.960 . S
C1436 H1423 0.960 . S
C1436 C1435 1.524 . S
C1437 C1434 1.403 . S
C1437 C1438 1.392 . S
C1437 C1441 1.495 . S
C1438 C1437 1.392 . S
C1438 C1439 1.385 . S
C1438 C1440 1.478 . S
C1439 H1433 0.930 . S
C1439 C1435 1.400 . S
C1439 C1438 1.385 . S
C1440 C1438 1.478 . S
C1440 C1442 1.381 . S
C1440 C1446 1.383 . S
C1441 C1437 1.495 . S
C1441 H1447 0.959 . S
C1441 H1448 0.961 . S
C1441 H1449 0.960 . S
C1442 C1440 1.381 . S
C1442 C1443 1.394 . S
C1442 H1450 0.930 . S
C1443 C1442 1.394 . S
C1443 C1444 1.383 . S
C1443 H1451 0.929 . S
C1444 C1443 1.383 . S
C1444 C1445 1.377 . S
C1445 H1429 0.930 . S
C1445 C1444 1.377 . S
C1445 C1446 1.379 . S
C1446 H1430 0.931 . S
C1446 C1440 1.383 . S
C1446 C1445 1.379 . S
H1447 C1441 0.959 . S
H1448 C1441 0.961 . S
H1449 C1441 0.960 . S
H1450 C1442 0.930 . S
H1451 C1443 0.929 . S
H1452 C1460 0.929 . S
H1453 C1462 0.930 . S
H1454 C1464 0.930 . S
H1455 C1467 0.929 . S
H1456 C1470 0.930 . S
H1457 C1472 0.960 . S
H1458 C1472 0.960 . S
H1459 C1472 0.960 . S
C1460 H1452 0.929 . S
C1460 C1461 1.377 . S
C1460 C1462 1.384 . S
C1461 C1460 1.377 . S
C1461 C1467 1.390 . S
C1462 H1453 0.930 . S
C1462 C1460 1.384 . S
C1462 C1463 1.372 . S
C1463 C1462 1.372 . S
C1463 C1464 1.400 . S
C1463 C1468 1.490 . S
C1464 H1454 0.930 . S
C1464 C1463 1.400 . S
C1464 C1467 1.386 . S
H1465 C1481 0.930 . S
H1466 C1482 0.931 . S
C1467 H1455 0.929 . S
C1467 C1461 1.390 . S
C1467 C1464 1.386 . S
C1468 C1463 1.490 . S
C1468 C1470 1.395 . S
C1468 C1471 1.403 . S
H1469 C1475 0.930 . S
C1470 H1456 0.930 . S
C1470 C1468 1.395 . S
C1470 C1473 1.403 . S
C1471 C1468 1.403 . S
C1471 C1472 1.524 . S
C1471 C1475 1.400 . S
C1472 H1457 0.960 . S
C1472 H1458 0.960 . S
C1472 H1459 0.960 . S
C1472 C1471 1.524 . S
C1473 C1470 1.403 . S
C1473 C1474 1.392 . S
C1473 C1477 1.495 1_545 S
C1474 C1473 1.392 . S
C1474 C1475 1.385 . S
C1474 C1476 1.481 . S
C1475 H1469 0.930 . S
C1475 C1471 1.400 . S
C1475 C1474 1.385 . S
C1476 C1474 1.481 . S
C1476 C1478 1.383 . S
C1476 C1482 1.377 1_545 S
C1477 C1473 1.495 1_565 S
C1477 H1483 0.959 . S
C1477 H1484 0.961 . S
C1477 H1485 0.960 . S
C1478 C1476 1.383 . S
C1478 C1479 1.394 1_545 S
C1478 H1486 0.930 . S
C1479 C1478 1.394 1_565 S
C1479 C1480 1.383 . S
C1479 H1487 0.929 . S
C1480 C1479 1.383 . S
C1480 C1481 1.377 . S
C1481 H1465 0.930 . S
C1481 C1480 1.377 . S
C1481 C1482 1.379 . S
C1482 H1466 0.931 . S
C1482 C1476 1.377 1_565 S
C1482 C1481 1.379 . S
H1483 C1477 0.959 . S
H1484 C1477 0.961 . S
H1485 C1477 0.960 . S
H1486 C1478 0.930 . S
H1487 C1479 0.929 . S
H1488 C1496 0.929 . S
H1489 C1498 0.930 . S
H1490 C1500 0.930 . S
H1491 C1503 0.929 . S
H1492 C1506 0.930 . S
H1493 C1508 0.960 . S
H1494 C1508 0.960 . S
H1495 C1508 0.960 . S
C1496 H1488 0.929 . S
C1496 C1497 1.377 . S
C1496 C1498 1.384 . S
C1497 C1496 1.377 . S
C1497 C1503 1.390 . S
C1498 H1489 0.930 . S
C1498 C1496 1.384 . S
C1498 C1499 1.372 . S
C1499 C1498 1.372 . S
C1499 C1500 1.400 . S
C1499 C1504 1.490 . S
C1500 H1490 0.930 . S
C1500 C1499 1.400 . S
C1500 C1503 1.386 . S
H1501 C1517 0.935 . S
H1502 C1518 0.931 . S
C1503 H1491 0.929 . S
C1503 C1497 1.390 . S
C1503 C1500 1.386 . S
C1504 C1499 1.490 . S
C1504 C1506 1.395 . S
C1504 C1507 1.403 . S
H1505 C1511 0.930 . S
C1506 H1492 0.930 . S
C1506 C1504 1.395 . S
C1506 C1509 1.403 . S
C1507 C1504 1.403 . S
C1507 C1508 1.524 . S
C1507 C1511 1.400 . S
C1508 H1493 0.960 . S
C1508 H1494 0.960 . S
C1508 H1495 0.960 . S
C1508 C1507 1.524 . S
C1509 C1506 1.403 . S
C1509 C1510 1.392 . S
C1509 C1513 1.495 . S
C1510 C1509 1.392 . S
C1510 C1511 1.385 . S
C1510 C1512 1.478 . S
C1511 H1505 0.930 . S
C1511 C1507 1.400 . S
C1511 C1510 1.385 . S
C1512 C1510 1.478 . S
C1512 C1514 1.381 . S
C1512 C1518 1.383 . S
C1513 C1509 1.495 . S
C1513 H1519 0.959 . S
C1513 H1520 0.961 . S
C1513 H1521 0.960 . S
C1514 C1512 1.381 . S
C1514 C1515 1.394 . S
C1514 H1522 0.930 . S
C1515 C1514 1.394 . S
C1515 C1516 1.383 . S
C1515 H1523 0.929 . S
C1516 C1515 1.383 . S
C1516 C1517 1.377 . S
C1517 H1501 0.935 . S
C1517 C1516 1.377 . S
C1517 C1518 1.379 . S
C1518 H1502 0.931 . S
C1518 C1512 1.383 . S
C1518 C1517 1.379 . S
H1519 C1513 0.959 . S
H1520 C1513 0.961 . S
H1521 C1513 0.960 . S
H1522 C1514 0.930 . S
H1523 C1515 0.929 . S
H1524 C1532 0.924 1_545 S
H1525 C1534 0.930 . S
H1526 C1536 0.930 . S
H1527 C1539 0.929 1_655 S
H1528 C1542 0.918 1_565 S
H1529 C1544 0.960 . S
H1530 C1544 0.960 . S
H1531 C1544 0.960 . S
C1532 H1524 0.924 1_565 S
C1532 C1533 1.377 1_455 S
C1532 C1534 1.384 1_565 S
C1533 C1532 1.377 1_655 S
C1533 C1539 1.390 1_655 S
C1534 H1525 0.930 . S
C1534 C1532 1.384 1_545 S
C1534 C1535 1.379 . S
C1535 C1534 1.379 . S
C1535 C1536 1.379 1_545 S
C1535 C1540 1.503 . S
C1536 H1526 0.930 . S
C1536 C1535 1.379 1_565 S
C1536 C1539 1.386 . S
H1537 C1553 0.930 . S
H1538 C1554 0.931 . S
C1539 H1527 0.929 1_455 S
C1539 C1533 1.390 1_455 S
C1539 C1536 1.386 . S
C1540 C1535 1.503 . S
C1540 C1542 1.395 . S
C1540 C1543 1.403 . S
H1541 C1547 0.930 . S
C1542 H1528 0.918 1_545 S
C1542 C1540 1.395 . S
C1542 C1545 1.403 . S
C1543 C1540 1.403 . S
C1543 C1544 1.524 . S
C1543 C1547 1.400 . S
C1544 H1529 0.960 . S
C1544 H1530 0.960 . S
C1544 H1531 0.960 . S
C1544 C1543 1.524 . S
C1545 C1542 1.403 . S
C1545 C1546 1.392 . S
C1545 C1549 1.495 . S
C1546 C1545 1.392 . S
C1546 C1547 1.385 . S
C1546 C1548 1.478 . S
C1547 H1541 0.930 . S
C1547 C1543 1.400 . S
C1547 C1546 1.385 . S
C1548 C1546 1.478 . S
C1548 C1550 1.381 . S
C1548 C1554 1.383 . S
C1549 C1545 1.495 . S
C1549 H1555 0.959 . S
C1549 H1556 0.961 . S
C1549 H1557 0.960 . S
C1550 C1548 1.381 . S
C1550 C1551 1.394 . S
C1550 H1558 0.930 . S
C1551 C1550 1.394 . S
C1551 C1552 1.383 . S
C1551 H1559 0.929 . S
C1552 C1551 1.383 . S
C1552 C1553 1.377 . S
C1553 H1537 0.930 . S
C1553 C1552 1.377 . S
C1553 C1554 1.379 . S
C1554 H1538 0.931 . S
C1554 C1548 1.383 . S
C1554 C1553 1.379 . S
H1555 C1549 0.959 . S
H1556 C1549 0.961 . S
H1557 C1549 0.960 . S
H1558 C1550 0.930 . S
H1559 C1551 0.929 . S
H1560 C1568 0.929 . S
H1561 C1570 0.930 . S
H1562 C1572 0.930 . S
H1563 C1575 0.929 . S
H1564 C1578 0.930 . S
H1565 C1580 0.960 . S
H1566 C1580 0.960 . S
H1567 C1580 0.960 . S
C1568 H1560 0.929 . S
C1568 C1569 1.377 1_565 S
C1568 C1570 1.384 . S
C1569 C1568 1.377 1_545 S
C1569 C1575 1.390 . S
C1570 H1561 0.930 . S
C1570 C1568 1.384 . S
C1570 C1571 1.372 . S
C1571 C1570 1.372 . S
C1571 C1572 1.400 . S
C1571 C1576 1.490 . S
C1572 H1562 0.930 . S
C1572 C1571 1.400 . S
C1572 C1575 1.386 1_565 S
H1573 C1589 0.930 . S
H1574 C1590 0.931 . S
C1575 H1563 0.929 . S
C1575 C1569 1.390 . S
C1575 C1572 1.386 1_545 S
C1576 C1571 1.490 . S
C1576 C1578 1.395 . S
C1576 C1579 1.403 . S
H1577 C1583 0.930 . S
C1578 H1564 0.930 . S
C1578 C1576 1.395 . S
C1578 C1581 1.403 . S
C1579 C1576 1.403 . S
C1579 C1580 1.524 . S
C1579 C1583 1.400 . S
C1580 H1565 0.960 . S
C1580 H1566 0.960 . S
C1580 H1567 0.960 . S
C1580 C1579 1.524 . S
C1581 C1578 1.403 . S
C1581 C1582 1.392 . S
C1581 C1585 1.495 . S
C1582 C1581 1.392 . S
C1582 C1583 1.385 . S
C1582 C1584 1.478 . S
C1583 H1577 0.930 . S
C1583 C1579 1.400 . S
C1583 C1582 1.385 . S
C1584 C1582 1.478 . S
C1584 C1586 1.381 . S
C1584 C1590 1.383 . S
C1585 C1581 1.495 . S
C1585 H1591 0.959 . S
C1585 H1592 0.961 . S
C1585 H1593 0.960 . S
C1586 C1584 1.381 . S
C1586 C1587 1.394 . S
C1586 H1594 0.930 . S
C1587 C1586 1.394 . S
C1587 C1588 1.383 . S
C1587 H1595 0.929 . S
C1588 C1587 1.383 . S
C1588 C1589 1.377 . S
C1589 H1573 0.930 . S
C1589 C1588 1.377 . S
C1589 C1590 1.379 . S
C1590 H1574 0.931 . S
C1590 C1584 1.383 . S
C1590 C1589 1.379 . S
H1591 C1585 0.959 . S
H1592 C1585 0.961 . S
H1593 C1585 0.960 . S
H1594 C1586 0.930 . S
H1595 C1587 0.929 . S
H1596 C1604 0.929 . S
H1597 C1606 0.930 . S
H1598 C1608 0.930 . S
H1599 C1611 0.929 . S
H1600 C1614 0.930 . S
H1601 C1616 0.960 . S
H1602 C1616 0.960 1_565 S
H1603 C1616 0.960 . S
C1604 H1596 0.929 . S
C1604 C1605 1.377 1_565 S
C1604 C1606 1.384 . S
C1605 C1604 1.377 1_545 S
C1605 C1611 1.390 . S
C1606 H1597 0.930 . S
C1606 C1604 1.384 . S
C1606 C1607 1.372 . S
C1607 C1606 1.372 . S
C1607 C1608 1.400 1_565 S
C1607 C1612 1.490 . S
C1608 H1598 0.930 . S
C1608 C1607 1.400 1_545 S
C1608 C1611 1.386 . S
H1609 C1625 0.930 . S
H1610 C1626 0.931 . S
C1611 H1599 0.929 . S
C1611 C1605 1.390 . S
C1611 C1608 1.386 . S
C1612 C1607 1.490 . S
C1612 C1614 1.395 . S
C1612 C1615 1.403 . S
H1613 C1619 0.930 . S
C1614 H1600 0.930 . S
C1614 C1612 1.395 . S
C1614 C1617 1.403 . S
C1615 C1612 1.403 . S
C1615 C1616 1.524 1_565 S
C1615 C1619 1.400 . S
C1616 H1601 0.960 . S
C1616 H1602 0.960 1_545 S
C1616 H1603 0.960 . S
C1616 C1615 1.524 1_545 S
C1617 C1614 1.403 . S
C1617 C1618 1.392 . S
C1617 C1621 1.495 . S
C1618 C1617 1.392 . S
C1618 C1619 1.385 . S
C1618 C1620 1.478 . S
C1619 H1613 0.930 . S
C1619 C1615 1.400 . S
C1619 C1618 1.385 . S
C1620 C1618 1.478 . S
C1620 C1622 1.381 . S
C1620 C1626 1.383 . S
C1621 C1617 1.495 . S
C1621 H1627 0.959 . S
C1621 H1628 0.961 . S
C1621 H1629 0.960 . S
C1622 C1620 1.381 . S
C1622 C1623 1.394 . S
C1622 H1630 0.930 . S
C1623 C1622 1.394 . S
C1623 C1624 1.383 . S
C1623 H1631 0.929 . S
C1624 C1623 1.383 . S
C1624 C1625 1.377 . S
C1625 H1609 0.930 . S
C1625 C1624 1.377 . S
C1625 C1626 1.379 . S
C1626 H1610 0.931 . S
C1626 C1620 1.383 . S
C1626 C1625 1.379 . S
H1627 C1621 0.959 . S
H1628 C1621 0.961 . S
H1629 C1621 0.960 . S
H1630 C1622 0.930 . S
H1631 C1623 0.929 . S
H1632 C1640 0.929 . S
H1633 C1642 0.930 . S
H1634 C1644 0.930 . S
H1635 C1647 0.929 . S
H1636 C1650 0.930 . S
H1637 C1652 0.960 . S
H1638 C1652 0.960 . S
H1639 C1652 0.960 . S
C1640 H1632 0.929 . S
C1640 C1641 1.377 . S
C1640 C1642 1.384 1_554 S
C1641 C1640 1.377 . S
C1641 C1647 1.390 1_554 S
C1642 H1633 0.930 . S
C1642 C1640 1.384 1_556 S
C1642 C1643 1.372 . S
C1643 C1642 1.372 . S
C1643 C1644 1.400 . S
C1643 C1648 1.490 . S
C1644 H1634 0.930 . S
C1644 C1643 1.400 . S
C1644 C1647 1.386 . S
H1645 C1661 0.930 . S
H1646 C1662 0.931 . S
C1647 H1635 0.929 . S
C1647 C1641 1.390 1_556 S
C1647 C1644 1.386 . S
C1648 C1643 1.490 . S
C1648 C1650 1.395 . S
C1648 C1651 1.403 . S
H1649 C1655 0.930 . S
C1650 H1636 0.930 . S
C1650 C1648 1.395 . S
C1650 C1653 1.403 . S
C1651 C1648 1.403 . S
C1651 C1652 1.524 . S
C1651 C1655 1.400 . S
C1652 H1637 0.960 . S
C1652 H1638 0.960 . S
C1652 H1639 0.960 . S
C1652 C1651 1.524 . S
C1653 C1650 1.403 . S
C1653 C1654 1.392 . S
C1653 C1657 1.495 . S
C1654 C1653 1.392 . S
C1654 C1655 1.385 . S
C1654 C1656 1.478 . S
C1655 H1649 0.930 . S
C1655 C1651 1.400 . S
C1655 C1654 1.385 . S
C1656 C1654 1.478 . S
C1656 C1658 1.381 . S
C1656 C1662 1.383 . S
C1657 C1653 1.495 . S
C1657 H1663 0.959 . S
C1657 H1664 0.961 . S
C1657 H1665 0.960 . S
C1658 C1656 1.381 . S
C1658 C1659 1.394 . S
C1658 H1666 0.930 . S
C1659 C1658 1.394 . S
C1659 C1660 1.383 . S
C1659 H1667 0.929 . S
C1660 C1659 1.383 . S
C1660 C1661 1.377 . S
C1661 H1645 0.930 . S
C1661 C1660 1.377 . S
C1661 C1662 1.379 . S
C1662 H1646 0.931 . S
C1662 C1656 1.383 . S
C1662 C1661 1.379 . S
H1663 C1657 0.959 . S
H1664 C1657 0.961 . S
H1665 C1657 0.960 . S
H1666 C1658 0.930 . S
H1667 C1659 0.929 . S
H1668 C1676 0.929 . S
H1669 C1678 0.930 . S
H1670 C1680 0.930 . S
H1671 C1683 0.929 . S
H1672 C1686 0.930 . S
H1673 C1688 0.960 . S
H1674 C1688 0.960 . S
H1675 C1688 0.960 . S
C1676 H1668 0.929 . S
C1676 C1677 1.377 . S
C1676 C1678 1.384 . S
C1677 C1676 1.377 . S
C1677 C1683 1.390 . S
C1678 H1669 0.930 . S
C1678 C1676 1.384 . S
C1678 C1679 1.372 . S
C1679 C1678 1.372 . S
C1679 C1680 1.400 . S
C1679 C1684 1.490 . S
C1680 H1670 0.930 . S
C1680 C1679 1.400 . S
C1680 C1683 1.386 . S
H1681 C1697 0.930 . S
H1682 C1698 0.931 . S
C1683 H1671 0.929 . S
C1683 C1677 1.390 . S
C1683 C1680 1.386 . S
C1684 C1679 1.490 . S
C1684 C1686 1.395 . S
C1684 C1687 1.403 . S
H1685 C1691 0.930 . S
C1686 H1672 0.930 . S
C1686 C1684 1.395 . S
C1686 C1689 1.403 . S
C1687 C1684 1.403 . S
C1687 C1688 1.524 . S
C1687 C1691 1.400 . S
C1688 H1673 0.960 . S
C1688 H1674 0.960 . S
C1688 H1675 0.960 . S
C1688 C1687 1.524 . S
C1689 C1686 1.403 . S
C1689 C1690 1.392 . S
C1689 C1693 1.495 . S
C1690 C1689 1.392 . S
C1690 C1691 1.385 . S
C1690 C1692 1.478 . S
C1691 H1685 0.930 . S
C1691 C1687 1.400 . S
C1691 C1690 1.385 . S
C1692 C1690 1.478 . S
C1692 C1694 1.381 . S
C1692 C1698 1.383 . S
C1693 C1689 1.495 . S
C1693 H1699 0.959 . S
C1693 H1700 0.961 . S
C1693 H1701 0.960 . S
C1694 C1692 1.381 . S
C1694 C1695 1.394 . S
C1694 H1702 0.930 . S
C1695 C1694 1.394 . S
C1695 C1696 1.383 . S
C1695 H1703 0.929 . S
C1696 C1695 1.383 . S
C1696 C1697 1.377 . S
C1697 H1681 0.930 . S
C1697 C1696 1.377 . S
C1697 C1698 1.379 . S
C1698 H1682 0.931 . S
C1698 C1692 1.383 . S
C1698 C1697 1.379 . S
H1699 C1693 0.959 . S
H1700 C1693 0.961 . S
H1701 C1693 0.960 . S
H1702 C1694 0.930 . S
H1703 C1695 0.929 . S
H1704 C1712 0.929 . S
H1705 C1714 0.930 . S
H1706 C1716 0.930 . S
H1707 C1719 0.929 . S
H1708 C1722 0.930 . S
H1709 C1724 0.960 . S
H1710 C1724 0.960 . S
H1711 C1724 0.960 . S
C1712 H1704 0.929 . S
C1712 C1713 1.377 . S
C1712 C1714 1.384 . S
C1713 C1712 1.377 . S
C1713 C1719 1.390 . S
C1714 H1705 0.930 . S
C1714 C1712 1.384 . S
C1714 C1715 1.372 . S
C1715 C1714 1.372 . S
C1715 C1716 1.400 . S
C1715 C1720 1.490 . S
C1716 H1706 0.930 . S
C1716 C1715 1.400 . S
C1716 C1719 1.386 . S
H1717 C1733 0.930 . S
H1718 C1734 0.931 . S
C1719 H1707 0.929 . S
C1719 C1713 1.390 . S
C1719 C1716 1.386 . S
C1720 C1715 1.490 . S
C1720 C1722 1.395 . S
C1720 C1723 1.403 . S
H1721 C1727 0.930 . S
C1722 H1708 0.930 . S
C1722 C1720 1.395 . S
C1722 C1725 1.403 . S
C1723 C1720 1.403 . S
C1723 C1724 1.524 . S
C1723 C1727 1.400 . S
C1724 H1709 0.960 . S
C1724 H1710 0.960 . S
C1724 H1711 0.960 . S
C1724 C1723 1.524 . S
C1725 C1722 1.403 . S
C1725 C1726 1.392 . S
C1725 C1729 1.495 . S
C1726 C1725 1.392 . S
C1726 C1727 1.385 . S
C1726 C1728 1.478 . S
C1727 H1721 0.930 . S
C1727 C1723 1.400 . S
C1727 C1726 1.385 . S
C1728 C1726 1.478 . S
C1728 C1730 1.381 . S
C1728 C1734 1.383 . S
C1729 C1725 1.495 . S
C1729 H1735 0.959 . S
C1729 H1736 0.961 . S
C1729 H1737 0.960 . S
C1730 C1728 1.381 . S
C1730 C1731 1.394 . S
C1730 H1738 0.930 . S
C1731 C1730 1.394 . S
C1731 C1732 1.383 . S
C1731 H1739 0.929 . S
C1732 C1731 1.383 . S
C1732 C1733 1.377 . S
C1733 H1717 0.930 . S
C1733 C1732 1.377 . S
C1733 C1734 1.379 . S
C1734 H1718 0.931 . S
C1734 C1728 1.383 . S
C1734 C1733 1.379 . S
H1735 C1729 0.959 . S
H1736 C1729 0.961 . S
H1737 C1729 0.960 . S
H1738 C1730 0.930 . S
H1739 C1731 0.929 . S
H1740 C1748 0.929 . S
H1741 C1750 0.930 . S
H1742 C1752 0.930 . S
H1743 C1755 0.929 . S
H1744 C1758 0.930 . S
H1745 C1760 0.960 . S
H1746 C1760 0.960 . S
H1747 C1760 0.960 . S
C1748 H1740 0.929 . S
C1748 C1749 1.377 . S
C1748 C1750 1.384 . S
C1749 C1748 1.377 . S
C1749 C1755 1.390 . S
C1750 H1741 0.930 . S
C1750 C1748 1.384 . S
C1750 C1751 1.372 . S
C1751 C1750 1.372 . S
C1751 C1752 1.400 . S
C1751 C1756 1.490 . S
C1752 H1742 0.930 . S
C1752 C1751 1.400 . S
C1752 C1755 1.386 . S
H1753 C1769 0.930 . S
H1754 C1770 0.931 . S
C1755 H1743 0.929 . S
C1755 C1749 1.390 . S
C1755 C1752 1.386 . S
C1756 C1751 1.490 . S
C1756 C1758 1.395 . S
C1756 C1759 1.403 . S
H1757 C1763 0.930 . S
C1758 H1744 0.930 . S
C1758 C1756 1.395 . S
C1758 C1761 1.403 . S
C1759 C1756 1.403 . S
C1759 C1760 1.524 . S
C1759 C1763 1.400 . S
C1760 H1745 0.960 . S
C1760 H1746 0.960 . S
C1760 H1747 0.960 . S
C1760 C1759 1.524 . S
C1761 C1758 1.403 . S
C1761 C1762 1.392 . S
C1761 C1765 1.495 . S
C1762 C1761 1.392 . S
C1762 C1763 1.385 . S
C1762 C1764 1.478 . S
C1763 H1757 0.930 . S
C1763 C1759 1.400 . S
C1763 C1762 1.385 . S
C1764 C1762 1.478 . S
C1764 C1766 1.381 . S
C1764 C1770 1.383 . S
C1765 C1761 1.495 . S
C1765 H1771 0.959 . S
C1765 H1772 0.961 . S
C1765 H1773 0.960 . S
C1766 C1764 1.381 . S
C1766 C1767 1.394 . S
C1766 H1774 0.930 . S
C1767 C1766 1.394 . S
C1767 C1768 1.383 . S
C1767 H1775 0.929 . S
C1768 C1767 1.383 . S
C1768 C1769 1.377 . S
C1769 H1753 0.930 . S
C1769 C1768 1.377 . S
C1769 C1770 1.379 . S
C1770 H1754 0.931 . S
C1770 C1764 1.383 . S
C1770 C1769 1.379 . S
H1771 C1765 0.959 . S
H1772 C1765 0.961 . S
H1773 C1765 0.960 . S
H1774 C1766 0.930 . S
H1775 C1767 0.929 . S
H1776 C1784 0.929 . S
H1777 C1786 0.930 . S
H1778 C1788 0.930 . S
H1779 C1791 0.929 . S
H1780 C1794 0.930 . S
H1781 C1796 0.960 . S
H1782 C1796 0.960 . S
H1783 C1796 0.960 . S
C1784 H1776 0.929 . S
C1784 C1785 1.377 . S
C1784 C1786 1.384 . S
C1785 C1784 1.377 . S
C1785 C1791 1.390 . S
C1786 H1777 0.930 . S
C1786 C1784 1.384 . S
C1786 C1787 1.372 . S
C1787 C1786 1.372 . S
C1787 C1788 1.400 . S
C1787 C1792 1.490 . S
C1788 H1778 0.930 . S
C1788 C1787 1.400 . S
C1788 C1791 1.386 . S
H1789 C1805 0.930 1_556 S
H1790 C1806 0.931 . S
C1791 H1779 0.929 . S
C1791 C1785 1.390 . S
C1791 C1788 1.386 . S
C1792 C1787 1.490 . S
C1792 C1794 1.395 . S
C1792 C1795 1.403 . S
H1793 C1799 0.930 . S
C1794 H1780 0.930 . S
C1794 C1792 1.395 . S
C1794 C1797 1.403 . S
C1795 C1792 1.403 . S
C1795 C1796 1.524 . S
C1795 C1799 1.400 . S
C1796 H1781 0.960 . S
C1796 H1782 0.960 . S
C1796 H1783 0.960 . S
C1796 C1795 1.524 . S
C1797 C1794 1.403 . S
C1797 C1798 1.392 . S
C1797 C1801 1.495 . S
C1798 C1797 1.392 . S
C1798 C1799 1.385 . S
C1798 C1800 1.478 . S
C1799 H1793 0.930 . S
C1799 C1795 1.400 . S
C1799 C1798 1.385 . S
C1800 C1798 1.478 . S
C1800 C1802 1.381 . S
C1800 C1806 1.383 . S
C1801 C1797 1.495 . S
C1801 H1807 0.959 . S
C1801 H1808 0.961 . S
C1801 H1809 0.960 . S
C1802 C1800 1.381 . S
C1802 C1803 1.394 . S
C1802 H1810 0.930 . S
C1803 C1802 1.394 . S
C1803 C1804 1.383 1_554 S
C1803 H1811 0.902 1_554 S
C1804 C1803 1.383 1_556 S
C1804 C1805 1.377 1_556 S
C1805 H1789 0.930 1_554 S
C1805 C1804 1.377 1_554 S
C1805 C1806 1.379 . S
C1806 H1790 0.931 . S
C1806 C1800 1.383 . S
C1806 C1805 1.379 . S
H1807 C1801 0.959 . S
H1808 C1801 0.961 . S
H1809 C1801 0.960 . S
H1810 C1802 0.930 . S
H1811 C1803 0.902 1_556 S
H1812 C1820 0.929 . S
H1813 C1822 0.930 . S
H1814 C1824 0.930 . S
H1815 C1827 0.929 . S
H1816 C1830 0.930 . S
H1817 C1832 0.960 . S
H1818 C1832 0.960 . S
H1819 C1832 0.960 . S
C1820 H1812 0.929 . S
C1820 C1821 1.377 . S
C1820 C1822 1.384 . S
C1821 C1820 1.377 . S
C1821 C1827 1.390 . S
C1822 H1813 0.930 . S
C1822 C1820 1.384 . S
C1822 C1823 1.372 . S
C1823 C1822 1.372 . S
C1823 C1824 1.400 . S
C1823 C1828 1.490 . S
C1824 H1814 0.930 . S
C1824 C1823 1.400 . S
C1824 C1827 1.386 . S
H1825 C1841 0.930 . S
H1826 C1842 0.931 . S
C1827 H1815 0.929 . S
C1827 C1821 1.390 . S
C1827 C1824 1.386 . S
C1828 C1823 1.490 . S
C1828 C1830 1.395 . S
C1828 C1831 1.403 . S
H1829 C1835 0.930 . S
C1830 H1816 0.930 . S
C1830 C1828 1.395 . S
C1830 C1833 1.403 . S
C1831 C1828 1.403 . S
C1831 C1832 1.524 . S
C1831 C1835 1.400 . S
C1832 H1817 0.960 . S
C1832 H1818 0.960 . S
C1832 H1819 0.960 . S
C1832 C1831 1.524 . S
C1833 C1830 1.403 . S
C1833 C1834 1.392 . S
C1833 C1837 1.495 . S
C1834 C1833 1.392 . S
C1834 C1835 1.385 . S
C1834 C1836 1.478 . S
C1835 H1829 0.930 . S
C1835 C1831 1.400 . S
C1835 C1834 1.385 . S
C1836 C1834 1.478 . S
C1836 C1838 1.381 . S
C1836 C1842 1.383 . S
C1837 C1833 1.495 . S
C1837 H1843 0.959 . S
C1837 H1844 0.961 . S
C1837 H1845 0.960 . S
C1838 C1836 1.381 . S
C1838 C1839 1.394 . S
C1838 H1846 0.930 . S
C1839 C1838 1.394 . S
C1839 C1840 1.383 . S
C1839 H1847 0.929 . S
C1840 C1839 1.383 . S
C1840 C1841 1.377 . S
C1841 H1825 0.930 . S
C1841 C1840 1.377 . S
C1841 C1842 1.379 . S
C1842 H1826 0.931 . S
C1842 C1836 1.383 . S
C1842 C1841 1.379 . S
H1843 C1837 0.959 . S
H1844 C1837 0.961 . S
H1845 C1837 0.960 . S
H1846 C1838 0.930 . S
H1847 C1839 0.929 . S
H1848 C1856 0.929 . S
H1849 C1858 0.930 . S
H1850 C1860 0.930 . S
H1851 C1863 0.929 . S
H1852 C1866 0.930 . S
H1853 C1868 0.960 . S
H1854 C1868 0.960 . S
H1855 C1868 0.960 . S
C1856 H1848 0.929 . S
C1856 C1857 1.377 . S
C1856 C1858 1.384 . S
C1857 C1856 1.377 . S
C1857 C1863 1.390 . S
C1858 H1849 0.930 . S
C1858 C1856 1.384 . S
C1858 C1859 1.372 . S
C1859 C1858 1.372 . S
C1859 C1860 1.400 . S
C1859 C1864 1.490 . S
C1860 H1850 0.930 . S
C1860 C1859 1.400 . S
C1860 C1863 1.386 . S
H1861 C1877 0.930 . S
H1862 C1878 0.931 . S
C1863 H1851 0.929 . S
C1863 C1857 1.390 . S
C1863 C1860 1.386 . S
C1864 C1859 1.490 . S
C1864 C1866 1.395 . S
C1864 C1867 1.403 . S
H1865 C1871 0.930 . S
C1866 H1852 0.930 . S
C1866 C1864 1.395 . S
C1866 C1869 1.403 . S
C1867 C1864 1.403 . S
C1867 C1868 1.524 . S
C1867 C1871 1.400 . S
C1868 H1853 0.960 . S
C1868 H1854 0.960 . S
C1868 H1855 0.960 . S
C1868 C1867 1.524 . S
C1869 C1866 1.403 . S
C1869 C1870 1.392 . S
C1869 C1873 1.495 . S
C1870 C1869 1.392 . S
C1870 C1871 1.385 . S
C1870 C1872 1.478 . S
C1871 H1865 0.930 . S
C1871 C1867 1.400 . S
C1871 C1870 1.385 . S
C1872 C1870 1.478 . S
C1872 C1874 1.381 . S
C1872 C1878 1.383 . S
C1873 C1869 1.495 . S
C1873 H1879 0.959 . S
C1873 H1880 0.961 . S
C1873 H1881 0.960 . S
C1874 C1872 1.381 . S
C1874 C1875 1.394 . S
C1874 H1882 0.930 . S
C1875 C1874 1.394 . S
C1875 C1876 1.383 . S
C1875 H1883 0.929 . S
C1876 C1875 1.383 . S
C1876 C1877 1.377 . S
C1877 H1861 0.930 . S
C1877 C1876 1.377 . S
C1877 C1878 1.379 . S
C1878 H1862 0.931 . S
C1878 C1872 1.383 . S
C1878 C1877 1.379 . S
H1879 C1873 0.959 . S
H1880 C1873 0.961 . S
H1881 C1873 0.960 . S
H1882 C1874 0.930 . S
H1883 C1875 0.929 . S
H1884 C1892 0.929 . S
H1885 C1894 0.930 . S
H1886 C1896 0.930 . S
H1887 C1899 0.929 . S
H1888 C1902 0.930 . S
H1889 C1904 0.960 . S
H1890 C1904 0.960 . S
H1891 C1904 0.960 . S
C1892 H1884 0.929 . S
C1892 C1893 1.377 . S
C1892 C1894 1.384 . S
C1893 C1892 1.377 . S
C1893 C1899 1.390 . S
C1894 H1885 0.930 . S
C1894 C1892 1.384 . S
C1894 C1895 1.372 . S
C1895 C1894 1.372 . S
C1895 C1896 1.400 . S
C1895 C1900 1.490 . S
C1896 H1886 0.930 . S
C1896 C1895 1.400 . S
C1896 C1899 1.386 . S
H1897 C1913 0.930 . S
H1898 C1914 0.931 . S
C1899 H1887 0.929 . S
C1899 C1893 1.390 . S
C1899 C1896 1.386 . S
C1900 C1895 1.490 . S
C1900 C1902 1.395 . S
C1900 C1903 1.403 . S
H1901 C1907 0.930 . S
C1902 H1888 0.930 . S
C1902 C1900 1.395 . S
C1902 C1905 1.403 . S
C1903 C1900 1.403 . S
C1903 C1904 1.524 . S
C1903 C1907 1.400 . S
C1904 H1889 0.960 . S
C1904 H1890 0.960 . S
C1904 H1891 0.960 . S
C1904 C1903 1.524 . S
C1905 C1902 1.403 . S
C1905 C1906 1.392 . S
C1905 C1909 1.495 . S
C1906 C1905 1.392 . S
C1906 C1907 1.385 . S
C1906 C1908 1.478 . S
C1907 H1901 0.930 . S
C1907 C1903 1.400 . S
C1907 C1906 1.385 . S
C1908 C1906 1.478 . S
C1908 C1910 1.381 . S
C1908 C1914 1.383 . S
C1909 C1905 1.495 . S
C1909 H1915 0.959 . S
C1909 H1916 0.961 . S
C1909 H1917 0.960 . S
C1910 C1908 1.381 . S
C1910 C1911 1.394 . S
C1910 H1918 0.930 . S
C1911 C1910 1.394 . S
C1911 C1912 1.383 . S
C1911 H1919 0.929 . S
C1912 C1911 1.383 . S
C1912 C1913 1.377 . S
C1913 H1897 0.930 . S
C1913 C1912 1.377 . S
C1913 C1914 1.379 . S
C1914 H1898 0.931 . S
C1914 C1908 1.383 . S
C1914 C1913 1.379 . S
H1915 C1909 0.959 . S
H1916 C1909 0.961 . S
H1917 C1909 0.960 . S
H1918 C1910 0.930 . S
H1919 C1911 0.929 . S
H1920 C1928 0.929 . S
H1921 C1930 0.930 . S
H1922 C1932 0.930 . S
H1923 C1935 0.929 . S
H1924 C1938 0.930 . S
H1925 C1940 0.960 . S
H1926 C1940 0.960 . S
H1927 C1940 0.960 . S
C1928 H1920 0.929 . S
C1928 C1929 1.377 . S
C1928 C1930 1.384 . S
C1929 C1928 1.377 . S
C1929 C1935 1.390 . S
C1930 H1921 0.930 . S
C1930 C1928 1.384 . S
C1930 C1931 1.372 . S
C1931 C1930 1.372 . S
C1931 C1932 1.400 . S
C1931 C1936 1.490 . S
C1932 H1922 0.930 . S
C1932 C1931 1.400 . S
C1932 C1935 1.386 . S
H1933 C1949 0.930 . S
H1934 C1950 0.931 . S
C1935 H1923 0.929 . S
C1935 C1929 1.390 . S
C1935 C1932 1.386 . S
C1936 C1931 1.490 . S
C1936 C1938 1.395 . S
C1936 C1939 1.403 . S
H1937 C1943 0.930 . S
C1938 H1924 0.930 . S
C1938 C1936 1.395 . S
C1938 C1941 1.403 . S
C1939 C1936 1.403 . S
C1939 C1940 1.524 . S
C1939 C1943 1.400 . S
C1940 H1925 0.960 . S
C1940 H1926 0.960 . S
C1940 H1927 0.960 . S
C1940 C1939 1.524 . S
C1941 C1938 1.403 . S
C1941 C1942 1.392 . S
C1941 C1945 1.495 . S
C1942 C1941 1.392 . S
C1942 C1943 1.385 . S
C1942 C1944 1.478 . S
C1943 H1937 0.930 . S
C1943 C1939 1.400 . S
C1943 C1942 1.385 . S
C1944 C1942 1.478 . S
C1944 C1946 1.381 . S
C1944 C1950 1.383 . S
C1945 C1941 1.495 . S
C1945 H1951 0.959 . S
C1945 H1952 0.961 . S
C1945 H1953 0.960 . S
C1946 C1944 1.381 . S
C1946 C1947 1.394 . S
C1946 H1954 0.930 . S
C1947 C1946 1.394 . S
C1947 C1948 1.383 . S
C1947 H1955 0.929 . S
C1948 C1947 1.383 . S
C1948 C1949 1.377 . S
C1949 H1933 0.930 . S
C1949 C1948 1.377 . S
C1949 C1950 1.379 . S
C1950 H1934 0.931 . S
C1950 C1944 1.383 . S
C1950 C1949 1.379 . S
H1951 C1945 0.959 . S
H1952 C1945 0.961 . S
H1953 C1945 0.960 . S
H1954 C1946 0.930 . S
H1955 C1947 0.929 . S
H1956 C1964 0.929 . S
H1957 C1966 0.930 . S
H1958 C1968 0.930 . S
H1959 C1971 0.929 . S
H1960 C1974 0.930 . S
H1961 C1976 0.960 . S
H1962 C1976 0.960 . S
H1963 C1976 0.960 . S
C1964 H1956 0.929 . S
C1964 C1965 1.377 . S
C1964 C1966 1.384 . S
C1965 C1964 1.377 . S
C1965 C1971 1.390 . S
C1966 H1957 0.930 . S
C1966 C1964 1.384 . S
C1966 C1967 1.372 . S
C1967 C1966 1.372 . S
C1967 C1968 1.400 . S
C1967 C1972 1.490 . S
C1968 H1958 0.930 . S
C1968 C1967 1.400 . S
C1968 C1971 1.386 . S
H1969 C1985 0.930 . S
H1970 C1986 0.931 . S
C1971 H1959 0.929 . S
C1971 C1965 1.390 . S
C1971 C1968 1.386 . S
C1972 C1967 1.490 . S
C1972 C1974 1.395 . S
C1972 C1975 1.403 . S
H1973 C1979 0.930 . S
C1974 H1960 0.930 . S
C1974 C1972 1.395 . S
C1974 C1977 1.403 . S
C1975 C1972 1.403 . S
C1975 C1976 1.524 . S
C1975 C1979 1.400 . S
C1976 H1961 0.960 . S
C1976 H1962 0.960 . S
C1976 H1963 0.960 . S
C1976 C1975 1.524 . S
C1977 C1974 1.403 . S
C1977 C1978 1.392 . S
C1977 C1981 1.495 1_565 S
C1978 C1977 1.392 . S
C1978 C1979 1.385 . S
C1978 C1980 1.478 . S
C1979 H1973 0.930 . S
C1979 C1975 1.400 . S
C1979 C1978 1.385 . S
C1980 C1978 1.478 . S
C1980 C1982 1.381 1_565 S
C1980 C1986 1.383 . S
C1981 C1977 1.495 1_545 S
C1981 H1987 0.959 . S
C1981 H1988 0.961 . S
C1981 H1989 0.960 . S
C1982 C1980 1.381 1_545 S
C1982 C1983 1.394 . S
C1982 H1990 0.930 . S
C1983 C1982 1.394 . S
C1983 C1984 1.383 . S
C1983 H1991 0.929 . S
C1984 C1983 1.383 . S
C1984 C1985 1.377 1_545 S
C1985 H1969 0.930 . S
C1985 C1984 1.377 1_565 S
C1985 C1986 1.379 . S
C1986 H1970 0.931 . S
C1986 C1980 1.383 . S
C1986 C1985 1.379 . S
H1987 C1981 0.959 . S
H1988 C1981 0.961 . S
H1989 C1981 0.960 . S
H1990 C1982 0.930 . S
H1991 C1983 0.929 . S
H1992 C2000 0.929 . S
H1993 C2002 0.930 . S
H1994 C2004 0.930 . S
H1995 C2007 0.929 . S
H1996 C2010 0.930 . S
H1997 C2012 0.960 . S
H1998 C2012 0.960 . S
H1999 C2012 0.960 . S
C2000 H1992 0.929 . S
C2000 C2001 1.377 . S
C2000 C2002 1.384 . S
C2001 C2000 1.377 . S
C2001 C2007 1.390 . S
C2002 H1993 0.930 . S
C2002 C2000 1.384 . S
C2002 C2003 1.372 . S
C2003 C2002 1.372 . S
C2003 C2004 1.400 . S
C2003 C2008 1.490 . S
C2004 H1994 0.930 . S
C2004 C2003 1.400 . S
C2004 C2007 1.386 . S
H2005 C2021 0.930 . S
H2006 C2022 0.931 . S
C2007 H1995 0.929 . S
C2007 C2001 1.390 . S
C2007 C2004 1.386 . S
C2008 C2003 1.490 . S
C2008 C2010 1.395 . S
C2008 C2011 1.403 . S
H2009 C2015 0.930 . S
C2010 H1996 0.930 . S
C2010 C2008 1.395 . S
C2010 C2013 1.403 . S
C2011 C2008 1.403 . S
C2011 C2012 1.524 . S
C2011 C2015 1.400 . S
C2012 H1997 0.960 . S
C2012 H1998 0.960 . S
C2012 H1999 0.960 . S
C2012 C2011 1.524 . S
C2013 C2010 1.403 . S
C2013 C2014 1.392 . S
C2013 C2017 1.547 . S
C2014 C2013 1.392 . S
C2014 C2015 1.385 . S
C2014 C2016 1.478 1_556 S
C2015 H2009 0.930 . S
C2015 C2011 1.400 . S
C2015 C2014 1.385 . S
C2016 C2014 1.478 1_554 S
C2016 C2018 1.381 . S
C2016 C2022 1.383 . S
C2017 C2013 1.547 . S
C2017 H2023 0.983 . S
C2017 H2024 0.924 1_556 S
C2017 H2025 0.926 1_556 S
C2018 C2016 1.381 . S
C2018 C2019 1.394 . S
C2018 H2026 0.930 . S
C2019 C2018 1.394 . S
C2019 C2020 1.383 . S
C2019 H2027 0.929 . S
C2020 C2019 1.383 . S
C2020 C2021 1.377 . S
C2021 H2005 0.930 . S
C2021 C2020 1.377 . S
C2021 C2022 1.379 . S
C2022 H2006 0.931 . S
C2022 C2016 1.383 . S
C2022 C2021 1.379 . S
H2023 C2017 0.983 . S
H2024 C2017 0.924 1_554 S
H2025 C2017 0.926 1_554 S
H2026 C2018 0.930 . S
H2027 C2019 0.929 . S
H2028 C2036 0.929 . S
H2029 C2038 0.930 . S
H2030 C2040 0.930 . S
H2031 C2043 0.929 . S
H2032 C2046 0.930 . S
H2033 C2048 0.960 . S
H2034 C2048 0.960 . S
H2035 C2048 0.960 . S
C2036 H2028 0.929 . S
C2036 C2037 1.377 1_545 S
C2036 C2038 1.384 . S
C2037 C2036 1.377 1_565 S
C2037 C2043 1.390 . S
C2038 H2029 0.930 . S
C2038 C2036 1.384 . S
C2038 C2039 1.372 . S
C2039 C2038 1.372 . S
C2039 C2040 1.400 1_545 S
C2039 C2044 1.490 . S
C2040 H2030 0.930 . S
C2040 C2039 1.400 1_565 S
C2040 C2043 1.386 . S
H2041 C2057 0.930 . S
H2042 C2058 0.931 . S
C2043 H2031 0.929 . S
C2043 C2037 1.390 . S
C2043 C2040 1.386 . S
C2044 C2039 1.490 . S
C2044 C2046 1.395 . S
C2044 C2047 1.403 . S
H2045 C2051 0.930 . S
C2046 H2032 0.930 . S
C2046 C2044 1.395 . S
C2046 C2049 1.403 . S
C2047 C2044 1.403 . S
C2047 C2048 1.524 . S
C2047 C2051 1.400 . S
C2048 H2033 0.960 . S
C2048 H2034 0.960 . S
C2048 H2035 0.960 . S
C2048 C2047 1.524 . S
C2049 C2046 1.403 . S
C2049 C2050 1.392 . S
C2049 C2053 1.495 . S
C2050 C2049 1.392 . S
C2050 C2051 1.385 . S
C2050 C2052 1.478 . S
C2051 H2045 0.930 . S
C2051 C2047 1.400 . S
C2051 C2050 1.385 . S
C2052 C2050 1.478 . S
C2052 C2054 1.381 . S
C2052 C2058 1.383 . S
C2053 C2049 1.495 . S
C2053 H2059 0.959 . S
C2053 H2060 0.961 . S
C2053 H2061 0.960 . S
C2054 C2052 1.381 . S
C2054 C2055 1.394 . S
C2054 H2062 0.930 . S
C2055 C2054 1.394 . S
C2055 C2056 1.383 . S
C2055 H2063 0.929 . S
C2056 C2055 1.383 . S
C2056 C2057 1.377 . S
C2057 H2041 0.930 . S
C2057 C2056 1.377 . S
C2057 C2058 1.379 . S
C2058 H2042 0.931 . S
C2058 C2052 1.383 . S
C2058 C2057 1.379 . S
H2059 C2053 0.959 . S
H2060 C2053 0.961 . S
H2061 C2053 0.960 . S
H2062 C2054 0.930 . S
H2063 C2055 0.929 . S
H2064 C2072 0.929 . S
H2065 C2074 0.930 . S
H2066 C2076 0.930 . S
H2067 C2079 0.929 . S
H2068 C2082 0.930 . S
H2069 C2084 0.960 . S
H2070 C2084 0.960 . S
H2071 C2084 0.960 . S
C2072 H2064 0.929 . S
C2072 C2073 1.377 . S
C2072 C2074 1.384 . S
C2073 C2072 1.377 . S
C2073 C2079 1.390 . S
C2074 H2065 0.930 . S
C2074 C2072 1.384 . S
C2074 C2075 1.372 . S
C2075 C2074 1.372 . S
C2075 C2076 1.400 . S
C2075 C2080 1.490 . S
C2076 H2066 0.930 . S
C2076 C2075 1.400 . S
C2076 C2079 1.386 . S
H2077 C2093 0.930 . S
H2078 C2094 0.931 . S
C2079 H2067 0.929 . S
C2079 C2073 1.390 . S
C2079 C2076 1.386 . S
C2080 C2075 1.490 . S
C2080 C2082 1.395 . S
C2080 C2083 1.403 . S
H2081 C2087 0.930 . S
C2082 H2068 0.930 . S
C2082 C2080 1.395 . S
C2082 C2085 1.403 . S
C2083 C2080 1.403 . S
C2083 C2084 1.524 . S
C2083 C2087 1.400 . S
C2084 H2069 0.960 . S
C2084 H2070 0.960 . S
C2084 H2071 0.960 . S
C2084 C2083 1.524 . S
C2085 C2082 1.403 . S
C2085 C2086 1.392 . S
C2085 C2089 1.495 . S
C2086 C2085 1.392 . S
C2086 C2087 1.385 . S
C2086 C2088 1.478 . S
C2087 H2081 0.930 . S
C2087 C2083 1.400 . S
C2087 C2086 1.385 . S
C2088 C2086 1.478 . S
C2088 C2090 1.381 . S
C2088 C2094 1.383 . S
C2089 C2085 1.495 . S
C2089 H2095 0.959 . S
C2089 H2096 0.961 . S
C2089 H2097 0.960 . S
C2090 C2088 1.381 . S
C2090 C2091 1.394 . S
C2090 H2098 0.930 . S
C2091 C2090 1.394 . S
C2091 C2092 1.383 . S
C2091 H2099 0.929 . S
C2092 C2091 1.383 . S
C2092 C2093 1.377 . S
C2093 H2077 0.930 . S
C2093 C2092 1.377 . S
C2093 C2094 1.379 . S
C2094 H2078 0.931 . S
C2094 C2088 1.383 . S
C2094 C2093 1.379 . S
H2095 C2089 0.959 . S
H2096 C2089 0.961 . S
H2097 C2089 0.960 . S
H2098 C2090 0.930 . S
H2099 C2091 0.929 . S
H2100 C2108 0.929 . S
H2101 C2110 0.930 . S
H2102 C2112 0.930 . S
H2103 C2115 0.929 . S
H2104 C2118 0.930 . S
H2105 C2120 0.960 . S
H2106 C2120 0.960 . S
H2107 C2120 0.960 . S
C2108 H2100 0.929 . S
C2108 C2109 1.377 . S
C2108 C2110 1.384 . S
C2109 C2108 1.377 . S
C2109 C2115 1.390 . S
C2110 H2101 0.930 . S
C2110 C2108 1.384 . S
C2110 C2111 1.372 . S
C2111 C2110 1.372 . S
C2111 C2112 1.400 . S
C2111 C2116 1.490 . S
C2112 H2102 0.930 . S
C2112 C2111 1.400 . S
C2112 C2115 1.386 . S
H2113 C2129 0.930 . S
H2114 C2130 0.931 . S
C2115 H2103 0.929 . S
C2115 C2109 1.390 . S
C2115 C2112 1.386 . S
C2116 C2111 1.490 . S
C2116 C2118 1.395 . S
C2116 C2119 1.403 . S
H2117 C2123 0.930 . S
C2118 H2104 0.930 . S
C2118 C2116 1.395 . S
C2118 C2121 1.403 . S
C2119 C2116 1.403 . S
C2119 C2120 1.524 . S
C2119 C2123 1.400 . S
C2120 H2105 0.960 . S
C2120 H2106 0.960 . S
C2120 H2107 0.960 . S
C2120 C2119 1.524 . S
C2121 C2118 1.403 . S
C2121 C2122 1.392 . S
C2121 C2125 1.495 . S
C2122 C2121 1.392 . S
C2122 C2123 1.385 . S
C2122 C2124 1.478 . S
C2123 H2117 0.930 . S
C2123 C2119 1.400 . S
C2123 C2122 1.385 . S
C2124 C2122 1.478 . S
C2124 C2126 1.381 . S
C2124 C2130 1.383 1_545 S
C2125 C2121 1.495 . S
C2125 H2131 0.959 . S
C2125 H2132 0.961 . S
C2125 H2133 0.960 . S
C2126 C2124 1.381 . S
C2126 C2127 1.394 . S
C2126 H2134 0.930 . S
C2127 C2126 1.394 . S
C2127 C2128 1.383 1_545 S
C2127 H2135 0.929 . S
C2128 C2127 1.383 1_565 S
C2128 C2129 1.377 . S
C2129 H2113 0.930 . S
C2129 C2128 1.377 . S
C2129 C2130 1.379 . S
C2130 H2114 0.931 . S
C2130 C2124 1.383 1_565 S
C2130 C2129 1.379 . S
H2131 C2125 0.959 . S
H2132 C2125 0.961 . S
H2133 C2125 0.960 . S
H2134 C2126 0.930 . S
H2135 C2127 0.929 . S
H2136 C2144 0.929 . S
H2137 C2146 0.930 . S
H2138 C2148 0.930 . S
H2139 C2151 0.929 . S
H2140 C2154 0.930 . S
H2141 C2156 0.960 . S
H2142 C2156 0.960 . S
H2143 C2156 0.960 . S
C2144 H2136 0.929 . S
C2144 C2145 1.377 . S
C2144 C2146 1.384 . S
C2145 C2144 1.377 . S
C2145 C2151 1.390 . S
C2146 H2137 0.930 . S
C2146 C2144 1.384 . S
C2146 C2147 1.372 . S
C2147 C2146 1.372 . S
C2147 C2148 1.400 . S
C2147 C2152 1.490 . S
C2148 H2138 0.930 . S
C2148 C2147 1.400 . S
C2148 C2151 1.386 . S
H2149 C2165 0.930 . S
H2150 C2166 0.931 . S
C2151 H2139 0.929 . S
C2151 C2145 1.390 . S
C2151 C2148 1.386 . S
C2152 C2147 1.490 . S
C2152 C2154 1.395 . S
C2152 C2155 1.403 . S
H2153 C2159 0.930 . S
C2154 H2140 0.930 . S
C2154 C2152 1.395 . S
C2154 C2157 1.403 . S
C2155 C2152 1.403 . S
C2155 C2156 1.524 . S
C2155 C2159 1.400 . S
C2156 H2141 0.960 . S
C2156 H2142 0.960 . S
C2156 H2143 0.960 . S
C2156 C2155 1.524 . S
C2157 C2154 1.403 . S
C2157 C2158 1.392 . S
C2157 C2161 1.501 . S
C2158 C2157 1.392 . S
C2158 C2159 1.385 . S
C2158 C2160 1.478 1_554 S
C2159 H2153 0.930 . S
C2159 C2155 1.400 . S
C2159 C2158 1.385 . S
C2160 C2158 1.478 1_556 S
C2160 C2162 1.381 . S
C2160 C2166 1.383 . S
C2161 C2157 1.501 . S
C2161 H2167 0.962 . S
C2161 H2168 0.956 1_554 S
C2161 H2169 0.956 1_554 S
C2162 C2160 1.381 . S
C2162 C2163 1.394 . S
C2162 H2170 0.930 . S
C2163 C2162 1.394 . S
C2163 C2164 1.383 . S
C2163 H2171 0.929 . S
C2164 C2163 1.383 . S
C2164 C2165 1.377 . S
C2165 H2149 0.930 . S
C2165 C2164 1.377 . S
C2165 C2166 1.379 . S
C2166 H2150 0.931 . S
C2166 C2160 1.383 . S
C2166 C2165 1.379 . S
H2167 C2161 0.962 . S
H2168 C2161 0.956 1_556 S
H2169 C2161 0.956 1_556 S
H2170 C2162 0.930 . S
H2171 C2163 0.929 . S
H2172 C2180 0.929 . S
H2173 C2182 0.930 . S
H2174 C2184 0.930 . S
H2175 C2187 0.929 . S
H2176 C2190 0.930 . S
H2177 C2192 0.960 . S
H2178 C2192 0.960 . S
H2179 C2192 0.960 . S
C2180 H2172 0.929 . S
C2180 C2181 1.377 . S
C2180 C2182 1.384 . S
C2181 C2180 1.377 . S
C2181 C2187 1.390 . S
C2182 H2173 0.930 . S
C2182 C2180 1.384 . S
C2182 C2183 1.372 . S
C2183 C2182 1.372 . S
C2183 C2184 1.400 . S
C2183 C2188 1.490 . S
C2184 H2174 0.930 . S
C2184 C2183 1.400 . S
C2184 C2187 1.386 . S
H2185 C2201 0.930 . S
H2186 C2202 0.931 . S
C2187 H2175 0.929 . S
C2187 C2181 1.390 . S
C2187 C2184 1.386 . S
C2188 C2183 1.490 . S
C2188 C2190 1.395 . S
C2188 C2191 1.403 . S
H2189 C2195 0.930 . S
C2190 H2176 0.930 . S
C2190 C2188 1.395 . S
C2190 C2193 1.403 . S
C2191 C2188 1.403 . S
C2191 C2192 1.524 . S
C2191 C2195 1.400 . S
C2192 H2177 0.960 . S
C2192 H2178 0.960 . S
C2192 H2179 0.960 . S
C2192 C2191 1.524 . S
C2193 C2190 1.403 . S
C2193 C2194 1.392 . S
C2193 C2197 1.495 . S
C2194 C2193 1.392 . S
C2194 C2195 1.385 . S
C2194 C2196 1.478 . S
C2195 H2189 0.930 . S
C2195 C2191 1.400 . S
C2195 C2194 1.385 . S
C2196 C2194 1.478 . S
C2196 C2198 1.381 . S
C2196 C2202 1.383 1_565 S
C2197 C2193 1.495 . S
C2197 H2203 0.959 . S
C2197 H2204 0.961 . S
C2197 H2205 0.960 . S
C2198 C2196 1.381 . S
C2198 C2199 1.394 . S
C2198 H2206 0.930 . S
C2199 C2198 1.394 . S
C2199 C2200 1.383 1_565 S
C2199 H2207 0.929 . S
C2200 C2199 1.383 1_545 S
C2200 C2201 1.377 . S
C2201 H2185 0.930 . S
C2201 C2200 1.377 . S
C2201 C2202 1.379 . S
C2202 H2186 0.931 . S
C2202 C2196 1.383 1_545 S
C2202 C2201 1.379 . S
H2203 C2197 0.959 . S
H2204 C2197 0.961 . S
H2205 C2197 0.960 . S
H2206 C2198 0.930 . S
H2207 C2199 0.929 . S
C489 C10 0.663 . S
C508 C301 0.713 . S
C525 C40 0.323 . S
C544 C340 0.346 . S
C561 C61 0.736 . S
C580 C250 0.682 . S
C597 C280 0.329 . S
C616 C100 0.350 . S
C633 C121 0.659 . S
C652 C430 0.719 . S
C669 C451 0.320 . S
C688 C151 0.331 . S
C705 C361 0.660 . S
C724 C190 0.763 . S
C741 C211 0.319 . S
C760 C391 0.346 . S
C777 C16 2.552 . S
C796 C147 2.554 . S
C813 C46 2.231 . S
C832 C417 2.239 . S
C849 N74 1.712 . S
C868 N186 1.708 . S
C885 C106 2.690 . S
C904 C477 2.673 . S
C921 C177 2.227 . S
C940 C286 2.221 . S
C957 C346 2.694 . S
C976 C237 2.686 . S
C993 C387 2.551 . S
C1012 C256 2.557 . S
C1029 N314 1.711 . S
C1048 N426 1.703 . S
C1065 C27 1.903 . S
C1084 C220 1.893 . S
C1101 C57 1.740 . S
C1120 C370 1.695 . S
C1137 N66 1.223 . S
C1156 C160 1.218 . S
C1173 C117 1.708 . S
C1192 C421 1.676 . S
C1209 C91 1.897 . S
C1228 C136 1.895 . S
C1245 C166 1.741 . S
C1264 C241 1.686 . S
C1281 N194 1.215 . S
C1300 C31 1.248 . S
C1317 C310 1.675 . S
C1336 C226 1.708 . S
C1353 C267 1.905 . S
C1372 C460 1.887 1_565 S
C1389 C130 1.705 . S
C1408 C297 1.735 . S
C1425 C400 1.233 . S
C1444 N306 1.247 . S
C1461 C181 1.674 . S
C1480 C357 1.699 . S
C1497 C376 1.905 . S
C1516 C331 1.889 1_545 S
C1533 C406 1.741 . S
C1552 C1 1.691 . S
C1569 C271 1.227 . S
C1588 N434 1.233 . S
C1605 C466 1.708 . S
C1624 C70 1.661 . S
C1641 N6 1.142 . S
C1660 N284 1.211 . S
C1677 C316 1.481 . S
C1696 N36 1.359 . S
C1713 C87 1.463 . S
C1732 N344 1.470 . S
C1749 N254 1.182 . S
C1768 N96 1.101 . S
C1785 N396 1.208 . S
C1804 N134 1.099 . S
C1821 C447 1.475 . S
C1840 N164 1.332 . S
C1857 N456 1.453 . S
C1876 C196 1.441 . S
C1893 N366 1.195 . S
C1912 N224 1.110 . S
C1929 N44 1.206 . S
C1948 N246 1.103 . S
C1965 C76 1.477 . S
C1984 N276 1.409 . S
C2001 N104 1.454 . S
C2020 C327 1.447 . S
C2037 N336 1.121 . S
C2056 N14 1.161 . S
C2073 N156 1.206 . S
C2092 N374 1.105 . S
C2109 C207 1.481 . S
C2128 N404 1.403 . S
C2145 N216 1.457 . S
C2164 C436 1.444 . S
C2181 N126 1.196 . S
C2200 N464 1.147 . S
