# Generated by pormake.
# Topology ilc, (8)-cn, num edge types: 1
# Building blocks:
#     Node 0, Type 0, BuildingBlock: XADDAJ01_clean_sbu_3, # of connection points: 8
#     Node 1, Type 0, BuildingBlock: XADDAJ01_clean_sbu_3, # of connection points: 8
#     Node 2, Type 0, BuildingBlock: XADDAJ01_clean_sbu_3, # of connection points: 8
#     Edge 3, Type (0, 0), BuildingBlock: XUDNAN_clean_linker_2, # of connection points: 2
#     Edge 4, Type (0, 0), BuildingBlock: XUDNAN_clean_linker_2, # of connection points: 2
#     Edge 5, Type (0, 0), BuildingBlock: XUDNAN_clean_linker_2, # of connection points: 2
#     Edge 6, Type (0, 0), BuildingBlock: XUDNAN_clean_linker_2, # of connection points: 2
#     Edge 7, Type (0, 0), BuildingBlock: XUDNAN_clean_linker_2, # of connection points: 2
#     Edge 8, Type (0, 0), BuildingBlock: XUDNAN_clean_linker_2, # of connection points: 2
#     Edge 9, Type (0, 0), BuildingBlock: XUDNAN_clean_linker_2, # of connection points: 2
#     Edge 10, Type (0, 0), BuildingBlock: XUDNAN_clean_linker_2, # of connection points: 2
#     Edge 11, Type (0, 0), BuildingBlock: XUDNAN_clean_linker_2, # of connection points: 2
#     Edge 12, Type (0, 0), BuildingBlock: XUDNAN_clean_linker_2, # of connection points: 2
#     Edge 13, Type (0, 0), BuildingBlock: XUDNAN_clean_linker_2, # of connection points: 2
#     Edge 14, Type (0, 0), BuildingBlock: XUDNAN_clean_linker_2, # of connection points: 2
# Relax obj value: 0.163
# Max RMSD: 0.201
# Mean RMSD: 0.201
data_MOF--net-ilc--node1-XADDAJ01_clean_sbu_3--edge1-XUDNAN_clean_linker_2
_symmetry_space_group_name_H-M    P1
_symmetry_Int_Tables_number       1
_symmetry_cell_setting            triclinic
loop_
_symmetry_equiv_pos_as_xyz
'x, y, z'
_cell_length_a     21.887375
_cell_length_b     30.467223
_cell_length_c     19.295343
_cell_angle_alpha  101.12105
_cell_angle_beta   74.538644
_cell_angle_gamma 141.34396
loop_
_atom_site_label
_atom_site_type_symbol
_atom_site_fract_x
_atom_site_fract_y
_atom_site_fract_z
_atom_type_partial_charge
C0 C 0.14847 0.99179 0.17674 0.0
C1 C 0.19788 0.04211 0.22995 0.0
C2 C 0.25452 0.04966 0.26493 0.0
C3 C 0.26978 1.01198 0.23926 0.0
C4 C 0.20833 0.95414 0.19576 0.0
C5 C 0.14826 0.94447 0.16316 0.0
O6 O 0.93097 0.98611 0.08682 0.0
Tb7 Tb 0.07185 0.0529 0.11791 0.0
Tb8 Tb 0.88962 0.93732 0.94213 0.0
O9 O 0.08923 0.1169 0.20679 0.0
O10 O 0.80183 0.88167 0.04518 0.0
O11 O 0.164 0.04716 0.09246 0.0
C12 C 0.87857 1.00701 0.91059 0.0
O13 O 1.01894 0.96833 0.16416 0.0
O14 O 1.03044 0.99651 0.96739 0.0
O15 O 0.1528 0.10447 1.01039 0.0
C16 C 0.10124 0.99055 0.13316 0.0
C17 C 0.89005 0.84328 0.8473 0.0
O18 O 0.91882 0.84644 0.90168 0.0
C19 C 0.8464 0.9185 0.10027 0.0
C20 C 0.11348 0.06429 0.95429 0.0
O21 O 0.87477 0.87768 0.8497 0.0
C22 C 0.90741 0.03763 0.84091 0.0
C23 C 0.87925 0.06502 0.75174 0.0
C24 C 0.85318 0.04094 0.82146 0.0
C25 C 0.98738 0.05947 0.79087 0.0
C26 C 1.01089 0.08067 0.72069 0.0
C27 C 0.95629 0.08329 0.70195 0.0
C28 C 0.1734 0.18188 0.22001 0.0
O29 O 0.25857 0.2123 0.18086 0.0
O30 O 0.80343 0.93792 0.91485 0.0
O31 O 0.95277 0.03493 0.93684 0.0
H32 H 0.18776 0.07246 0.24557 0.0
H33 H 0.31882 0.02053 0.26169 0.0
H34 H 0.10268 0.90112 0.12736 0.0
H35 H 0.79133 0.02445 0.85953 0.0
H36 H 1.02987 0.05802 0.80637 0.0
H37 H 0.97122 0.09768 0.64748 0.0
C38 C 0.7766 0.32157 0.48091 0.0
C39 C 0.71003 0.30551 0.54235 0.0
C40 C 0.66813 0.25828 0.59483 0.0
C41 C 0.68875 0.22396 0.58408 0.0
C42 C 0.75714 0.24044 0.5243 0.0
C43 C 0.80166 0.28957 0.47189 0.0
O44 O 0.61406 0.34886 0.47571 0.0
Tb45 Tb 0.76511 0.41897 0.41591 0.0
Tb46 Tb 0.60443 0.29443 0.30991 0.0
O47 O 0.81638 0.50555 0.48324 0.0
O48 O 0.54959 0.25054 0.41776 0.0
O49 O 0.86029 0.43284 0.45432 0.0
C50 C 0.54355 0.33303 0.28774 0.0
O51 O 0.75702 0.34492 0.38588 0.0
O52 O 0.75747 0.36844 0.25033 0.0
O53 O 0.8241 0.46684 0.31121 0.0
C54 C 0.81808 0.37219 0.42821 0.0
C55 C 0.57241 0.17843 0.25002 0.0
O56 O 0.59702 0.18964 0.31183 0.0
C57 C 0.54958 0.28091 0.47651 0.0
C58 C 0.82485 0.4372 0.25232 0.0
O59 O 0.56519 0.21443 0.2346 0.0
C60 C 0.56487 0.36252 0.22057 0.0
C61 C 0.5732 0.42654 0.15046 0.0
C62 C 0.5523 0.40126 0.21774 0.0
C63 C 0.59606 0.34872 0.1567 0.0
C64 C 0.612 0.37085 0.09056 0.0
C65 C 0.6038 0.4115 0.0879 0.0
C66 C 0.78594 0.52758 0.47408 0.0
O67 O 0.73344 0.49851 0.42362 0.0
O68 O 0.49133 0.26724 0.28372 0.0
O69 O 0.62085 0.37302 0.31834 0.0
H70 H 0.69503 0.3329 0.55142 0.0
H71 H 0.65952 0.18946 0.62629 0.0
H72 H 0.85598 0.3036 0.42591 0.0
H73 H 0.52571 0.41066 0.26656 0.0
H74 H 0.60351 0.31761 0.15804 0.0
H75 H 0.61347 0.42692 0.03604 0.0
C76 C 0.57619 0.74022 0.84636 0.0
C77 C 0.58081 0.77597 0.90673 0.0
C78 C 0.59596 0.77271 0.97017 0.0
C79 C 0.61977 0.74157 0.97083 0.0
C80 C 0.60862 0.7011 0.91334 0.0
C81 C 0.58707 0.70069 0.85014 0.0
O82 O 0.34482 0.71148 0.7552 0.0
Tb83 Tb 0.50043 0.78765 0.76314 0.0
Tb84 Tb 0.26952 0.61995 0.61978 0.0
O85 O 0.53348 0.85883 0.84971 0.0
O86 O 0.22029 0.59502 0.73443 0.0
O87 O 0.60862 0.79735 0.75119 0.0
C88 C 0.20582 0.65346 0.58728 0.0
O89 O 0.45307 0.70215 0.79805 0.0
O90 O 0.42343 0.70484 0.63528 0.0
O91 O 0.55404 0.82021 0.64996 0.0
C92 C 0.54482 0.73683 0.78496 0.0
C93 C 0.27865 0.526 0.53755 0.0
O94 O 0.3635 0.572 0.55982 0.0
C95 C 0.27035 0.64618 0.78056 0.0
C96 C 0.4986 0.76847 0.60568 0.0
O97 O 0.22492 0.53374 0.55451 0.0
C98 C 0.15394 0.63014 0.52913 0.0
C99 C 0.1216 0.65549 0.4411 0.0
C100 C 0.14997 0.66952 0.50733 0.0
C101 C 0.13317 0.57942 0.4834 0.0
C102 C 0.12904 0.57897 0.4124 0.0
C103 C 0.09981 0.60334 0.39779 0.0
C104 C 0.52695 0.89857 0.85074 0.0
O105 O 0.50499 0.90005 0.79485 0.0
O106 O 0.15521 0.60463 0.63589 0.0
O107 O 0.29825 0.6892 0.56519 0.0
H108 H 0.55985 0.79865 0.90729 0.0
H109 H 0.62621 0.73645 0.02181 0.0
H110 H 0.57407 0.66746 0.80615 0.0
H111 H 0.17694 0.71422 0.53807 0.0
H112 H 0.15027 0.55683 0.49542 0.0
H113 H 0.09086 0.5993 0.3433 0.0
H114 H 0.13292 0.17096 0.60152 0.0
H115 H 0.05242 1.01483 0.71048 0.0
H116 H 0.15793 0.02356 0.61265 0.0
H117 H 0.09329 0.09383 0.4437 0.0
H118 H 0.1916 0.17155 0.38619 0.0
H119 H 0.14103 0.17471 0.47403 0.0
H120 H 0.31746 0.27817 0.50574 0.0
H121 H 0.36824 0.27529 0.417 0.0
H122 H 0.3913 0.26898 0.49536 0.0
H123 H 0.2397 0.02861 0.50081 0.0
H124 H 0.26045 1.00847 0.3753 0.0
H125 H 0.28381 0.15503 0.32446 0.0
C126 C 0.13939 0.13987 0.60575 0.0
C127 C 0.08545 0.09339 0.66523 0.0
C128 C 0.09563 0.05325 0.66779 0.0
C129 C 0.15593 0.05785 0.61202 0.0
C130 C 0.20659 0.10308 0.55389 0.0
C131 C 0.19818 0.14284 0.54954 0.0
C132 C 0.24008 0.17341 0.47403 0.0
C133 C 0.16179 0.15199 0.4427 0.0
C134 C 0.33495 0.25373 0.47298 0.0
C135 C 0.26438 0.13889 0.43566 0.0
C136 C 0.24977 0.10221 0.48405 0.0
C137 C 0.25417 0.05858 0.46229 0.0
C138 C 0.26732 0.04812 0.38933 0.0
C139 C 0.27452 0.08031 0.33783 0.0
C140 C 0.27853 0.1294 0.36165 0.0
H141 H 0.7501 0.37302 0.67081 0.0
H142 H 0.49876 0.14515 0.68427 0.0
H143 H 0.46305 0.1497 0.81672 0.0
H144 H 0.83561 0.39524 0.81452 0.0
H145 H 0.87762 0.47397 0.84616 0.0
H146 H 0.87318 0.4532 0.75258 0.0
H147 H 0.75407 0.45484 0.75481 0.0
H148 H 0.77253 0.48398 0.84565 0.0
H149 H 0.64856 0.40877 0.82785 0.0
H150 H 0.46681 0.1797 0.94655 0.0
H151 H 0.48804 0.23295 0.06567 0.0
H152 H 0.74431 0.44108 0.96516 0.0
C153 C 0.68473 0.32406 0.70125 0.0
C154 C 0.62628 0.2587 0.66791 0.0
C155 C 0.54356 0.19562 0.70947 0.0
C156 C 0.52365 0.19779 0.78441 0.0
C157 C 0.58801 0.26339 0.81596 0.0
C158 C 0.66523 0.32539 0.77566 0.0
C159 C 0.72713 0.38902 0.82228 0.0
C160 C 0.8347 0.4302 0.8081 0.0
C161 C 0.7253 0.43683 0.81191 0.0
C162 C 0.67132 0.35307 0.89547 0.0
C163 C 0.59218 0.28065 0.89065 0.0
C164 C 0.52823 0.23627 0.95119 0.0
C165 C 0.5417 0.26692 0.01849 0.0
C166 C 0.61798 0.34093 0.02388 0.0
C167 C 0.68596 0.38439 0.962 0.0
H168 H 0.39994 0.6641 1.01037 0.0
H169 H 0.66708 0.86518 0.08241 0.0
H170 H 0.5765 0.82716 0.20891 0.0
H171 H 0.22209 0.64024 0.14559 0.0
H172 H 0.13165 0.54653 0.15138 0.0
H173 H 0.21844 0.59442 0.06854 0.0
H174 H 0.27311 0.54427 0.06961 0.0
H175 H 0.19109 0.49934 0.15459 0.0
H176 H 0.32244 0.56067 0.14506 0.0
H177 H 0.46342 0.76179 0.3243 0.0
H178 H 0.32347 0.68881 0.42425 0.0
H179 H 0.12551 0.53058 0.276 0.0
C180 C 0.43807 0.70119 0.05273 0.0
C181 C 0.54041 0.76693 0.03793 0.0
C182 C 0.58927 0.814 0.09379 0.0
C183 C 0.53856 0.7926 0.1653 0.0
C184 C 0.44004 0.72435 0.17845 0.0
C185 C 0.38933 0.68033 0.12375 0.0
C186 C 0.28375 0.60979 0.15194 0.0
C187 C 0.20942 0.59697 0.12806 0.0
C188 C 0.26668 0.55002 0.12891 0.0
C189 C 0.28178 0.62119 0.23161 0.0
C190 C 0.37384 0.68684 0.24536 0.0
C191 C 0.39117 0.71019 0.31445 0.0
C192 C 0.31067 0.66738 0.37108 0.0
C193 C 0.21295 0.60315 0.35802 0.0
C194 C 0.19937 0.57834 0.28754 0.0
H195 H 1.00772 0.66514 0.43323 0.0
H196 H 0.29912 0.76245 0.3585 0.0
H197 H 0.3415 0.83595 0.27107 0.0
H198 H 0.96669 0.66307 0.26283 0.0
H199 H 0.90917 0.68557 0.30029 0.0
H200 H 0.90148 0.63908 0.35479 0.0
H201 H 0.9834 0.73896 0.45084 0.0
H202 H 0.98247 0.78003 0.39608 0.0
H203 H 0.09708 0.8287 0.42007 0.0
H204 H 0.35173 0.89701 0.19049 0.0
H205 H 0.3447 0.96212 0.14191 0.0
H206 H 0.04937 0.82908 0.26904 0.0
C207 C 0.08101 0.70315 0.39953 0.0
C208 C 0.1509 0.70915 0.40316 0.0
C209 C 0.24559 0.75839 0.35735 0.0
C210 C 0.26962 0.79941 0.30676 0.0
C211 C 0.19832 0.791 0.30282 0.0
C212 C 0.10711 0.74573 0.34928 0.0
C213 C 0.04721 0.75088 0.33685 0.0
C214 C 0.95037 0.68046 0.31225 0.0
C215 C 1.02624 0.77613 0.40494 0.0
C216 C 0.11916 0.80624 0.27651 0.0
C217 C 0.20498 0.82742 0.25672 0.0
C218 C 0.28479 0.8807 0.20516 0.0
C219 C 0.27965 0.91659 0.17668 0.0
C220 C 0.19551 0.89917 0.1997 0.0
C221 C 0.11271 0.84139 0.24808 0.0
H222 H 0.38834 0.51152 0.46258 0.0
H223 H 0.08927 0.40368 0.51362 0.0
H224 H 1.02919 0.30185 0.44436 0.0
H225 H 0.37824 0.45412 0.27961 0.0
H226 H 0.45218 0.44709 0.28166 0.0
H227 H 0.46807 0.50877 0.33803 0.0
H228 H 0.435 0.45115 0.44826 0.0
H229 H 0.41518 0.38778 0.39142 0.0
H230 H 0.32005 0.35843 0.4672 0.0
H231 H 1.00095 0.21071 0.37137 0.0
H232 H 1.00892 0.14244 0.2882 0.0
H233 H 0.32871 0.312 0.27638 0.0
C234 C 0.31007 0.4663 0.45955 0.0
C235 C 0.24329 0.46542 0.49432 0.0
C236 C 0.14187 0.40571 0.48771 0.0
C237 C 0.10693 0.3474 0.44872 0.0
C238 C 0.17456 0.34983 0.41549 0.0
C239 C 0.27428 0.40812 0.4196 0.0
C240 C 0.33236 0.39888 0.37526 0.0
C241 C 0.41237 0.45558 0.31505 0.0
C242 C 0.37838 0.39909 0.42342 0.0
C243 C 0.2499 0.32655 0.34502 0.0
C244 C 0.15921 0.29876 0.37016 0.0
C245 C 0.0717 0.23224 0.35094 0.0
C246 C 0.0771 0.19371 0.30365 0.0
C247 C 0.1696 0.22188 0.27487 0.0
C248 C 0.25697 0.28908 0.29677 0.0
H249 H 0.66403 0.89424 0.52794 0.0
H250 H 0.41107 0.66887 0.50284 0.0
H251 H 0.48174 0.68336 0.37434 0.0
H252 H 0.68229 0.93944 0.35393 0.0
H253 H 0.81638 1.01555 0.33819 0.0
H254 H 0.74619 0.98733 0.42886 0.0
H255 H 0.84789 0.981 0.45836 0.0
H256 H 0.91699 1.00792 0.36734 0.0
H257 H 0.85131 0.92722 0.40494 0.0
H258 H 0.5823 0.72046 0.25057 0.0
H259 H 0.6932 0.77918 0.1335 0.0
H260 H 0.87779 0.98263 0.23269 0.0
C261 C 0.62269 0.84806 0.49512 0.0
C262 C 0.53229 0.7799 0.52616 0.0
C263 C 0.48086 0.72116 0.48106 0.0
C264 C 0.52077 0.72895 0.40783 0.0
C265 C 0.61137 0.79627 0.37951 0.0
C266 C 0.66069 0.85513 0.42108 0.0
C267 C 0.75515 0.92167 0.37583 0.0
C268 C 0.74963 0.96877 0.37409 0.0
C269 C 0.84832 0.96179 0.40328 0.0
C270 C 0.75112 0.8907 0.30258 0.0
C271 C 0.66798 0.81816 0.30657 0.0
C272 C 0.64738 0.77723 0.24669 0.0
C273 C 0.71119 0.81119 0.18032 0.0
C274 C 0.79425 0.88554 0.17362 0.0
C275 C 0.81567 0.92577 0.23611 0.0
H276 H 0.89881 0.2964 0.59174 0.0
H277 H 0.67207 0.11529 0.4734 0.0
H278 H 0.67233 0.04674 0.52435 0.0
H279 H 1.03223 0.26296 0.58621 0.0
H280 H 0.05237 0.29155 0.67708 0.0
H281 H 0.04775 0.32994 0.62195 0.0
H282 H 0.90902 0.29708 0.71787 0.0
H283 H 0.9104 0.25731 0.7743 0.0
H284 H 0.79598 0.20678 0.74819 0.0
H285 H 0.68165 0.99382 0.60197 0.0
H286 H 0.72212 0.96768 0.68258 0.0
H287 H 0.93576 0.18204 0.75457 0.0
C288 C 0.85392 0.24369 0.57319 0.0
C289 C 0.78811 0.21175 0.52657 0.0
C290 C 0.72576 0.14133 0.50672 0.0
C291 C 0.72415 0.10173 0.53656 0.0
C292 C 0.78486 0.13336 0.58655 0.0
C293 C 0.85048 0.20337 0.60332 0.0
C294 C 0.90225 0.22359 0.66255 0.0
C295 C 1.01533 0.2803 0.63525 0.0
C296 C 0.87792 0.2476 0.72965 0.0
C297 C 0.85505 0.15405 0.67705 0.0
C298 C 0.7871 0.10243 0.63303 0.0
C299 C 0.7347 0.03394 0.63663 0.0
C300 C 0.75653 1.01907 0.68352 0.0
C301 C 0.82937 0.07223 0.7264 0.0
C302 C 0.87706 0.1399 0.72434 0.0
H303 H 0.85984 0.58299 0.60113 0.0
H304 H 0.74889 0.59035 0.45329 0.0
H305 H 0.76715 0.67275 0.53126 0.0
H306 H 0.7346 0.58607 0.76264 0.0
H307 H 0.83488 0.64059 0.81099 0.0
H308 H 0.81777 0.5841 0.74213 0.0
H309 H 0.99967 0.69141 0.67655 0.0
H310 H 1.01708 0.74808 0.74538 0.0
H311 H 0.04074 0.76662 0.65231 0.0
H312 H 0.79274 0.7517 0.62463 0.0
H313 H 0.82397 0.82327 0.72988 0.0
H314 H 0.91528 0.76512 0.82157 0.0
C315 C 0.84046 0.60259 0.58495 0.0
C316 C 0.80346 0.58035 0.5207 0.0
C317 C 0.77749 0.60644 0.50202 0.0
C318 C 0.78757 0.65342 0.54601 0.0
C319 C 0.82323 0.67382 0.60906 0.0
C320 C 0.84914 0.64934 0.62891 0.0
C321 C 0.88242 0.67836 0.7011 0.0
C322 C 0.81327 0.61871 0.75752 0.0
C323 C 0.99147 0.72383 0.69335 0.0
C324 C 0.87101 0.72277 0.71828 0.0
C325 C 0.83704 0.71935 0.66413 0.0
C326 C 0.81973 0.75509 0.66737 0.0
C327 C 0.83778 0.7957 0.72751 0.0
C328 C 0.87265 0.80031 0.78399 0.0
C329 C 0.88919 0.76306 0.77917 0.0
H330 H 0.50636 0.3198 0.60323 0.0
H331 H 0.44799 0.15092 0.50752 0.0
H332 H 0.33556 0.08072 0.62009 0.0
H333 H 0.49986 0.29149 0.78658 0.0
H334 H 0.44672 0.31624 0.83014 0.0
H335 H 0.52733 0.35393 0.74301 0.0
H336 H 0.38658 0.31032 0.69541 0.0
H337 H 0.30606 0.27089 0.7822 0.0
H338 H 0.26659 0.21832 0.70334 0.0
H339 H 0.21565 0.02344 0.73567 0.0
H340 H 0.11213 0.98737 0.85599 0.0
H341 H 0.25382 0.19489 0.88522 0.0
C342 C 0.46999 0.26806 0.60608 0.0
C343 C 0.48395 0.24005 0.54558 0.0
C344 C 0.43664 0.17283 0.55218 0.0
C345 C 0.37319 0.13274 0.6162 0.0
C346 C 0.35846 0.16079 0.67383 0.0
C347 C 0.40667 0.22733 0.67015 0.0
C348 C 0.37798 0.24473 0.74092 0.0
C349 C 0.46841 0.30528 0.77729 0.0
C350 C 0.33156 0.2621 0.72976 0.0
C351 C 0.30203 0.17604 0.78337 0.0
C352 C 0.29255 0.12868 0.74319 0.0
C353 C 0.22393 0.06051 0.76826 0.0
C354 C 0.16461 0.04033 0.83663 0.0
C355 C 0.17473 0.08823 0.88041 0.0
C356 C 0.24489 0.15729 0.85333 0.0
H357 H 0.70829 0.56577 0.12352 0.0
H358 H 0.39564 0.36191 0.14023 0.0
H359 H 0.37343 0.40849 0.07198 0.0
H360 H 0.67523 0.67209 0.13606 0.0
H361 H 0.79064 0.73798 0.07378 0.0
H362 H 0.77641 0.68996 0.1322 0.0
H363 H 0.82578 0.65432 0.01992 0.0
H364 H 0.83474 0.69879 0.96068 0.0
H365 H 0.75301 0.60672 0.94988 0.0
H366 H 0.39174 0.47343 0.98634 0.0
H367 H 0.43874 0.5593 0.91666 0.0
H368 H 0.73819 0.72188 0.95885 0.0
C369 C 0.63414 0.53223 0.11629 0.0
C370 C 0.55286 0.46076 0.13914 0.0
C371 C 0.45785 0.41733 0.1255 0.0
C372 C 0.44513 0.44309 0.08553 0.0
C373 C 0.5281 0.51268 0.05998 0.0
C374 C 0.62004 0.55743 0.07709 0.0
C375 C 0.69757 0.62961 0.04199 0.0
C376 C 0.73728 0.68572 0.09941 0.0
C377 C 0.7828 0.64843 0.99006 0.0
C378 C 0.63553 0.61805 1.00126 0.0
C379 C 0.53829 0.55003 1.0115 0.0
C380 C 0.46756 0.52696 0.9785 0.0
C381 C 0.4954 0.57573 0.93769 0.0
C382 C 0.5928 0.64694 0.93073 0.0
C383 C 0.66419 0.66748 0.96134 0.0
H384 H 0.53484 0.9958 0.8709 0.0
H385 H 0.54186 0.88876 0.98167 0.0
H386 H 0.55091 0.94698 0.0937 0.0
H387 H 0.70916 0.16171 0.9648 0.0
H388 H 0.64483 0.17787 0.96822 0.0
H389 H 0.64003 0.1285 0.8958 0.0
H390 H 0.44863 0.02745 0.92643 0.0
H391 H 0.45089 0.07428 1.00105 0.0
H392 H 0.38435 0.98737 0.01512 0.0
H393 H 0.55525 1.01342 0.19437 0.0
H394 H 0.56257 0.08877 0.27778 0.0
H395 H 0.55583 0.15714 0.10517 0.0
C396 C 0.53869 0.98484 0.91867 0.0
C397 C 0.53748 0.93732 0.91707 0.0
C398 C 0.54292 0.92481 0.98095 0.0
C399 C 0.54784 0.9576 0.04514 0.0
C400 C 0.54816 1.00352 0.04503 0.0
C401 C 0.54451 1.01779 0.98353 0.0
C402 C 0.54696 0.07016 0.99876 0.0
C403 C 0.64083 0.13861 0.95426 0.0
C404 C 0.45206 0.03788 0.98456 0.0
C405 C 0.55111 0.08214 0.07864 0.0
C406 C 0.55199 0.04311 0.10373 0.0
C407 C 0.55536 0.04462 0.17524 0.0
C408 C 0.55922 0.08766 0.22239 0.0
C409 C 0.56017 0.12941 0.19846 0.0
C410 C 0.55497 0.12587 0.12542 0.0
H411 H 0.11435 0.51665 0.84842 0.0
H412 H 0.3239 0.73883 0.88863 0.0
H413 H 0.23232 0.70979 0.01383 0.0
H414 H 0.89542 0.45447 0.95119 0.0
H415 H 0.8413 0.37637 0.98373 0.0
H416 H 0.92591 0.41591 0.89851 0.0
H417 H 1.03616 0.4238 0.94345 0.0
H418 H 0.95165 0.38505 0.02882 0.0
H419 H 0.08192 0.46872 0.02543 0.0
H420 H 0.11017 0.65539 0.13274 0.0
H421 H 0.97875 0.58108 0.23921 0.0
H422 H 0.85027 0.39468 0.12069 0.0
C423 C 0.14195 0.55937 0.88373 0.0
C424 C 0.22627 0.63012 0.85847 0.0
C425 C 0.25984 0.68432 0.90666 0.0
C426 C 0.20767 0.66827 0.97772 0.0
C427 C 0.12238 0.59779 0.99986 0.0
C428 C 0.09102 0.5443 0.95474 0.0
C429 C 0.99815 0.47293 0.99205 0.0
C430 C 0.91002 0.42724 0.95402 0.0
C431 C 1.01824 0.43547 0.9978 0.0
C432 C 0.98164 0.49453 0.06502 0.0
C433 C 0.05345 0.56669 0.06836 0.0
C434 C 0.05335 0.59881 0.13049 0.0
C435 C 0.97832 0.55607 0.19077 0.0
C436 C 0.9039 0.4819 0.18841 0.0
C437 C 0.90598 0.45111 0.12443 0.0
loop_
_geom_bond_atom_site_label_1
_geom_bond_atom_site_label_2
_geom_bond_distance
_geom_bond_site_symmetry_2
_ccdc_geom_bond_type
C0 C1 1.386 . S
C0 C5 1.384 1_545 S
C0 C16 1.497 . S
C1 C0 1.386 . S
C1 C2 1.393 1_545 S
C1 H32 0.932 . S
C2 C1 1.393 1_565 S
C2 C3 1.387 . S
C3 C2 1.387 . S
C3 C4 1.392 . S
C3 H33 0.930 . S
C4 C3 1.392 . S
C4 C5 1.402 . S
C5 C0 1.384 1_565 S
C5 C4 1.402 . S
C5 H34 0.930 . S
O6 Tb7 2.288 1_655 S
O6 C19 1.257 1_545 S
Tb7 O6 2.288 1_455 S
Tb7 O9 2.303 . S
Tb7 O11 2.430 . S
Tb7 O13 2.459 . S
Tb7 O15 2.301 1_554 S
Tb7 C16 2.808 . S
Tb8 O10 2.301 1_556 S
Tb8 C12 2.808 . S
Tb8 O14 2.288 1_655 S
Tb8 O21 2.303 . S
Tb8 O30 2.430 . S
Tb8 O31 2.459 . S
O9 Tb7 2.303 . S
O9 C28 1.255 . S
O10 Tb8 2.301 1_554 S
O10 C19 1.237 . S
O11 Tb7 2.430 . S
O11 C16 1.248 . S
C12 Tb8 2.808 . S
C12 C22 1.497 . S
C12 O30 1.248 . S
C12 O31 1.260 . S
O13 Tb7 2.459 . S
O13 C16 1.260 . S
O14 Tb8 2.288 1_455 S
O14 C20 1.257 1_565 S
O15 Tb7 2.301 1_556 S
O15 C20 1.237 . S
C16 C0 1.497 . S
C16 Tb7 2.808 . S
C16 O11 1.248 . S
C16 O13 1.260 . S
C17 O18 1.255 . S
C17 O21 1.255 . S
O18 C17 1.255 . S
C19 O6 1.257 1_565 S
C19 O10 1.237 . S
C20 O14 1.257 1_545 S
C20 O15 1.237 . S
O21 Tb8 2.303 . S
O21 C17 1.255 . S
C22 C12 1.497 . S
C22 C24 1.384 1_565 S
C22 C25 1.386 . S
C23 C24 1.402 . S
C23 C27 1.392 . S
C24 C22 1.384 1_545 S
C24 C23 1.402 . S
C24 H35 0.930 . S
C25 C22 1.386 . S
C25 C26 1.393 1_565 S
C25 H36 0.932 . S
C26 C25 1.393 1_545 S
C26 C27 1.387 . S
C27 C23 1.392 . S
C27 C26 1.387 . S
C27 H37 0.930 . S
C28 O9 1.255 . S
C28 O29 1.255 . S
O29 C28 1.255 . S
O30 Tb8 2.430 . S
O30 C12 1.248 . S
O31 Tb8 2.459 . S
O31 C12 1.260 . S
H32 C1 0.932 . S
H33 C3 0.930 . S
H34 C5 0.930 . S
H35 C24 0.930 . S
H36 C25 0.932 . S
H37 C27 0.930 . S
C38 C39 1.386 . S
C38 C43 1.384 . S
C38 C54 1.497 . S
C39 C38 1.386 . S
C39 C40 1.393 . S
C39 H70 0.932 . S
C40 C39 1.393 . S
C40 C41 1.387 . S
C41 C40 1.387 . S
C41 C42 1.392 . S
C41 H71 0.930 . S
C42 C41 1.392 . S
C42 C43 1.402 . S
C43 C38 1.384 . S
C43 C42 1.402 . S
C43 H72 0.930 . S
O44 Tb45 2.288 . S
O44 C57 1.257 . S
Tb45 O44 2.288 . S
Tb45 O47 2.303 . S
Tb45 O49 2.430 . S
Tb45 O51 2.459 . S
Tb45 O53 2.301 . S
Tb45 C54 2.808 . S
Tb46 O48 2.301 . S
Tb46 C50 2.808 . S
Tb46 O52 2.288 . S
Tb46 O59 2.303 . S
Tb46 O68 2.430 . S
Tb46 O69 2.459 . S
O47 Tb45 2.303 . S
O47 C66 1.255 . S
O48 Tb46 2.301 . S
O48 C57 1.237 . S
O49 Tb45 2.430 . S
O49 C54 1.248 . S
C50 Tb46 2.808 . S
C50 C60 1.497 . S
C50 O68 1.248 . S
C50 O69 1.260 . S
O51 Tb45 2.459 . S
O51 C54 1.260 . S
O52 Tb46 2.288 . S
O52 C58 1.257 . S
O53 Tb45 2.301 . S
O53 C58 1.237 . S
C54 C38 1.497 . S
C54 Tb45 2.808 . S
C54 O49 1.248 . S
C54 O51 1.260 . S
C55 O56 1.255 . S
C55 O59 1.255 . S
O56 C55 1.255 . S
C57 O44 1.257 . S
C57 O48 1.237 . S
C58 O52 1.257 . S
C58 O53 1.237 . S
O59 Tb46 2.303 . S
O59 C55 1.255 . S
C60 C50 1.497 . S
C60 C62 1.384 . S
C60 C63 1.386 . S
C61 C62 1.402 . S
C61 C65 1.392 . S
C62 C60 1.384 . S
C62 C61 1.402 . S
C62 H73 0.930 . S
C63 C60 1.386 . S
C63 C64 1.393 . S
C63 H74 0.932 . S
C64 C63 1.393 . S
C64 C65 1.387 . S
C65 C61 1.392 . S
C65 C64 1.387 . S
C65 H75 0.930 . S
C66 O47 1.255 . S
C66 O67 1.255 . S
O67 C66 1.255 . S
O68 Tb46 2.430 . S
O68 C50 1.248 . S
O69 Tb46 2.459 . S
O69 C50 1.260 . S
H70 C39 0.932 . S
H71 C41 0.930 . S
H72 C43 0.930 . S
H73 C62 0.930 . S
H74 C63 0.932 . S
H75 C65 0.930 . S
C76 C77 1.386 . S
C76 C81 1.384 . S
C76 C92 1.497 . S
C77 C76 1.386 . S
C77 C78 1.393 . S
C77 H108 0.932 . S
C78 C77 1.393 . S
C78 C79 1.387 . S
C79 C78 1.387 . S
C79 C80 1.392 . S
C79 H109 0.930 . S
C80 C79 1.392 . S
C80 C81 1.402 . S
C81 C76 1.384 . S
C81 C80 1.402 . S
C81 H110 0.930 . S
O82 Tb83 2.288 . S
O82 C95 1.257 . S
Tb83 O82 2.288 . S
Tb83 O85 2.303 . S
Tb83 O87 2.430 . S
Tb83 O89 2.459 . S
Tb83 O91 2.301 . S
Tb83 C92 2.808 . S
Tb84 O86 2.301 . S
Tb84 C88 2.808 . S
Tb84 O90 2.288 . S
Tb84 O97 2.303 . S
Tb84 O106 2.430 . S
Tb84 O107 2.459 . S
O85 Tb83 2.303 . S
O85 C104 1.255 . S
O86 Tb84 2.301 . S
O86 C95 1.237 . S
O87 Tb83 2.430 . S
O87 C92 1.248 . S
C88 Tb84 2.808 . S
C88 C98 1.497 . S
C88 O106 1.248 . S
C88 O107 1.260 . S
O89 Tb83 2.459 . S
O89 C92 1.260 . S
O90 Tb84 2.288 . S
O90 C96 1.257 . S
O91 Tb83 2.301 . S
O91 C96 1.237 . S
C92 C76 1.497 . S
C92 Tb83 2.808 . S
C92 O87 1.248 . S
C92 O89 1.260 . S
C93 O94 1.255 . S
C93 O97 1.255 . S
O94 C93 1.255 . S
C95 O82 1.257 . S
C95 O86 1.237 . S
C96 O90 1.257 . S
C96 O91 1.237 . S
O97 Tb84 2.303 . S
O97 C93 1.255 . S
C98 C88 1.497 . S
C98 C100 1.384 . S
C98 C101 1.386 . S
C99 C100 1.402 . S
C99 C103 1.392 . S
C100 C98 1.384 . S
C100 C99 1.402 . S
C100 H111 0.930 . S
C101 C98 1.386 . S
C101 C102 1.393 . S
C101 H112 0.932 . S
C102 C101 1.393 . S
C102 C103 1.387 . S
C103 C99 1.392 . S
C103 C102 1.387 . S
C103 H113 0.930 . S
C104 O85 1.255 . S
C104 O105 1.255 . S
O105 C104 1.255 . S
O106 Tb84 2.430 . S
O106 C88 1.248 . S
O107 Tb84 2.459 . S
O107 C88 1.260 . S
H108 C77 0.932 . S
H109 C79 0.930 . S
H110 C81 0.930 . S
H111 C100 0.930 . S
H112 C101 0.932 . S
H113 C103 0.930 . S
H114 C126 0.930 . S
H115 C128 0.930 . S
H116 C129 0.930 . S
H117 C133 0.959 1_655 S
H118 C133 0.959 . S
H119 C133 0.961 . S
H120 C134 0.960 . S
H121 C134 0.961 . S
H122 C134 0.959 . S
H123 C137 0.929 1_655 S
H124 C138 0.931 . S
H125 C140 0.930 . S
C126 H114 0.930 . S
C126 C127 1.399 . S
C126 C131 1.399 . S
C127 C126 1.399 . S
C127 C128 1.376 1_545 S
C128 H115 0.930 . S
C128 C127 1.376 1_565 S
C128 C129 1.388 . S
C129 H116 0.930 . S
C129 C128 1.388 . S
C129 C130 1.390 . S
C130 C129 1.390 . S
C130 C131 1.394 1_565 S
C130 C136 1.465 1_655 S
C131 C126 1.399 . S
C131 C130 1.394 1_545 S
C131 C132 1.516 1_655 S
C132 C131 1.516 1_455 S
C132 C133 1.502 . S
C132 C134 1.561 . S
C132 C135 1.526 . S
C133 H117 0.959 1_455 S
C133 H118 0.959 . S
C133 H119 0.961 . S
C133 C132 1.502 . S
C134 H120 0.960 . S
C134 H121 0.961 . S
C134 H122 0.959 . S
C134 C132 1.561 . S
C135 C132 1.526 . S
C135 C136 1.396 1_545 S
C135 C140 1.390 . S
C136 C130 1.465 1_455 S
C136 C135 1.396 1_565 S
C136 C137 1.399 . S
C137 H123 0.929 1_455 S
C137 C136 1.399 . S
C137 C138 1.385 . S
C138 H124 0.931 . S
C138 C137 1.385 . S
C138 C139 1.389 . S
C139 C138 1.389 . S
C139 C140 1.387 1_565 S
C140 H125 0.930 . S
C140 C135 1.390 . S
C140 C139 1.387 1_545 S
H141 C153 0.930 . S
H142 C155 0.930 . S
H143 C156 0.930 . S
H144 C160 0.959 . S
H145 C160 0.959 . S
H146 C160 0.961 . S
H147 C161 0.960 . S
H148 C161 0.961 . S
H149 C161 0.959 . S
H150 C164 0.929 . S
H151 C165 0.931 . S
H152 C167 0.930 . S
C153 H141 0.930 . S
C153 C154 1.399 . S
C153 C158 1.399 . S
C154 C153 1.399 . S
C154 C155 1.376 . S
C155 H142 0.930 . S
C155 C154 1.376 . S
C155 C156 1.388 . S
C156 H143 0.930 . S
C156 C155 1.388 . S
C156 C157 1.390 . S
C157 C156 1.390 . S
C157 C158 1.394 . S
C157 C163 1.465 . S
C158 C153 1.399 . S
C158 C157 1.394 . S
C158 C159 1.516 . S
C159 C158 1.516 . S
C159 C160 1.502 . S
C159 C161 1.561 . S
C159 C162 1.526 . S
C160 H144 0.959 . S
C160 H145 0.959 . S
C160 H146 0.961 . S
C160 C159 1.502 . S
C161 H147 0.960 . S
C161 H148 0.961 . S
C161 H149 0.959 . S
C161 C159 1.561 . S
C162 C159 1.526 . S
C162 C163 1.396 . S
C162 C167 1.390 . S
C163 C157 1.465 . S
C163 C162 1.396 . S
C163 C164 1.399 . S
C164 H150 0.929 . S
C164 C163 1.399 . S
C164 C165 1.385 . S
C165 H151 0.931 . S
C165 C164 1.385 . S
C165 C166 1.389 . S
C166 C165 1.389 . S
C166 C167 1.387 . S
C167 H152 0.930 . S
C167 C162 1.390 . S
C167 C166 1.387 . S
H168 C180 0.930 . S
H169 C182 0.930 . S
H170 C183 0.930 . S
H171 C187 0.959 . S
H172 C187 0.959 . S
H173 C187 0.961 . S
H174 C188 0.960 . S
H175 C188 0.961 . S
H176 C188 0.959 . S
H177 C191 0.929 . S
H178 C192 0.931 . S
H179 C194 0.930 . S
C180 H168 0.930 . S
C180 C181 1.399 . S
C180 C185 1.399 . S
C181 C180 1.399 . S
C181 C182 1.376 . S
C182 H169 0.930 . S
C182 C181 1.376 . S
C182 C183 1.388 . S
C183 H170 0.930 . S
C183 C182 1.388 . S
C183 C184 1.390 . S
C184 C183 1.390 . S
C184 C185 1.394 . S
C184 C190 1.465 . S
C185 C180 1.399 . S
C185 C184 1.394 . S
C185 C186 1.516 . S
C186 C185 1.516 . S
C186 C187 1.502 . S
C186 C188 1.561 . S
C186 C189 1.526 . S
C187 H171 0.959 . S
C187 H172 0.959 . S
C187 H173 0.961 . S
C187 C186 1.502 . S
C188 H174 0.960 . S
C188 H175 0.961 . S
C188 H176 0.959 . S
C188 C186 1.561 . S
C189 C186 1.526 . S
C189 C190 1.396 . S
C189 C194 1.390 . S
C190 C184 1.465 . S
C190 C189 1.396 . S
C190 C191 1.399 . S
C191 H177 0.929 . S
C191 C190 1.399 . S
C191 C192 1.385 . S
C192 H178 0.931 . S
C192 C191 1.385 . S
C192 C193 1.389 . S
C193 C192 1.389 . S
C193 C194 1.387 . S
C194 H179 0.930 . S
C194 C189 1.390 . S
C194 C193 1.387 . S
H195 C207 0.930 . S
H196 C209 0.930 . S
H197 C210 0.930 . S
H198 C214 0.959 . S
H199 C214 0.959 . S
H200 C214 0.961 . S
H201 C215 0.960 1_655 S
H202 C215 0.961 1_655 S
H203 C215 0.959 . S
H204 C218 0.929 . S
H205 C219 0.931 . S
H206 C221 0.930 . S
C207 H195 0.930 . S
C207 C208 1.399 . S
C207 C212 1.399 . S
C208 C207 1.399 . S
C208 C209 1.376 . S
C209 H196 0.930 . S
C209 C208 1.376 . S
C209 C210 1.388 . S
C210 H197 0.930 . S
C210 C209 1.388 . S
C210 C211 1.390 . S
C211 C210 1.390 . S
C211 C212 1.394 . S
C211 C217 1.465 . S
C212 C207 1.399 . S
C212 C211 1.394 . S
C212 C213 1.516 . S
C213 C212 1.516 . S
C213 C214 1.502 1_455 S
C213 C215 1.561 . S
C213 C216 1.526 . S
C214 H198 0.959 . S
C214 H199 0.959 . S
C214 H200 0.961 . S
C214 C213 1.502 1_655 S
C215 H201 0.960 1_455 S
C215 H202 0.961 1_455 S
C215 H203 0.959 . S
C215 C213 1.561 . S
C216 C213 1.526 . S
C216 C217 1.396 . S
C216 C221 1.390 . S
C217 C211 1.465 . S
C217 C216 1.396 . S
C217 C218 1.399 . S
C218 H204 0.929 . S
C218 C217 1.399 . S
C218 C219 1.385 . S
C219 H205 0.931 . S
C219 C218 1.385 . S
C219 C220 1.389 . S
C220 C219 1.389 . S
C220 C221 1.387 . S
C221 H206 0.930 . S
C221 C216 1.390 . S
C221 C220 1.387 . S
H222 C234 0.930 . S
H223 C236 0.930 . S
H224 C237 0.930 . S
H225 C241 0.959 . S
H226 C241 0.959 . S
H227 C241 0.961 . S
H228 C242 0.960 . S
H229 C242 0.961 . S
H230 C242 0.959 . S
H231 C245 0.929 1_655 S
H232 C246 0.929 1_655 S
H233 C248 0.930 . S
C234 H222 0.930 . S
C234 C235 1.399 . S
C234 C239 1.399 . S
C235 C234 1.399 . S
C235 C236 1.376 . S
C236 H223 0.930 . S
C236 C235 1.376 . S
C236 C237 1.388 . S
C237 H224 0.930 . S
C237 C236 1.388 . S
C237 C238 1.390 . S
C238 C237 1.390 . S
C238 C239 1.394 . S
C238 C244 1.465 . S
C239 C234 1.399 . S
C239 C238 1.394 . S
C239 C240 1.516 . S
C240 C239 1.516 . S
C240 C241 1.502 . S
C240 C242 1.561 . S
C240 C243 1.526 . S
C241 H225 0.959 . S
C241 H226 0.959 . S
C241 H227 0.961 . S
C241 C240 1.502 . S
C242 H228 0.960 . S
C242 H229 0.961 . S
C242 H230 0.959 . S
C242 C240 1.561 . S
C243 C240 1.526 . S
C243 C244 1.396 . S
C243 C248 1.390 . S
C244 C238 1.465 . S
C244 C243 1.396 . S
C244 C245 1.399 . S
C245 H231 0.929 1_455 S
C245 C244 1.399 . S
C245 C246 1.384 . S
C246 H232 0.929 1_455 S
C246 C245 1.384 . S
C246 C247 1.392 . S
C247 C246 1.392 . S
C247 C248 1.387 . S
C248 H233 0.930 . S
C248 C243 1.390 . S
C248 C247 1.387 . S
H249 C261 0.930 . S
H250 C263 0.930 . S
H251 C264 0.930 . S
H252 C268 0.959 . S
H253 C268 0.959 . S
H254 C268 0.961 . S
H255 C269 0.960 . S
H256 C269 0.945 1_545 S
H257 C269 0.959 . S
H258 C272 0.929 . S
H259 C273 0.931 . S
H260 C275 0.930 . S
C261 H249 0.930 . S
C261 C262 1.399 . S
C261 C266 1.399 . S
C262 C261 1.399 . S
C262 C263 1.376 . S
C263 H250 0.930 . S
C263 C262 1.376 . S
C263 C264 1.388 . S
C264 H251 0.930 . S
C264 C263 1.388 . S
C264 C265 1.390 . S
C265 C264 1.390 . S
C265 C266 1.394 . S
C265 C271 1.465 . S
C266 C261 1.399 . S
C266 C265 1.394 . S
C266 C267 1.516 . S
C267 C266 1.516 . S
C267 C268 1.502 . S
C267 C269 1.561 . S
C267 C270 1.526 . S
C268 H252 0.959 . S
C268 H253 0.959 . S
C268 H254 0.961 . S
C268 C267 1.502 . S
C269 H255 0.960 . S
C269 H256 0.945 1_565 S
C269 H257 0.959 . S
C269 C267 1.561 . S
C270 C267 1.526 . S
C270 C271 1.396 . S
C270 C275 1.390 . S
C271 C265 1.465 . S
C271 C270 1.396 . S
C271 C272 1.399 . S
C272 H258 0.929 . S
C272 C271 1.399 . S
C272 C273 1.385 . S
C273 H259 0.931 . S
C273 C272 1.385 . S
C273 C274 1.389 . S
C274 C273 1.389 . S
C274 C275 1.387 . S
C275 H260 0.930 . S
C275 C270 1.390 . S
C275 C274 1.387 . S
H276 C288 0.930 . S
H277 C290 0.930 . S
H278 C291 0.930 . S
H279 C295 0.959 . S
H280 C295 0.959 . S
H281 C295 0.961 . S
H282 C296 0.960 . S
H283 C296 0.961 . S
H284 C296 0.959 . S
H285 C299 0.929 . S
H286 C300 0.931 . S
H287 C302 0.930 . S
C288 H276 0.930 . S
C288 C289 1.399 . S
C288 C293 1.399 . S
C289 C288 1.399 . S
C289 C290 1.376 . S
C290 H277 0.930 . S
C290 C289 1.376 . S
C290 C291 1.388 . S
C291 H278 0.930 . S
C291 C290 1.388 . S
C291 C292 1.390 . S
C292 C291 1.390 . S
C292 C293 1.394 . S
C292 C298 1.465 . S
C293 C288 1.399 . S
C293 C292 1.394 . S
C293 C294 1.516 . S
C294 C293 1.516 . S
C294 C295 1.502 1_655 S
C294 C296 1.561 . S
C294 C297 1.526 . S
C295 H279 0.959 . S
C295 H280 0.959 . S
C295 H281 0.961 . S
C295 C294 1.502 1_455 S
C296 H282 0.960 . S
C296 H283 0.961 . S
C296 H284 0.959 . S
C296 C294 1.561 . S
C297 C294 1.526 . S
C297 C298 1.396 . S
C297 C302 1.390 . S
C298 C292 1.465 . S
C298 C297 1.396 . S
C298 C299 1.399 . S
C299 H285 0.929 . S
C299 C298 1.399 . S
C299 C300 1.385 . S
C300 H286 0.931 . S
C300 C299 1.385 . S
C300 C301 1.389 . S
C301 C300 1.389 . S
C301 C302 1.387 . S
C302 H287 0.930 . S
C302 C297 1.390 . S
C302 C301 1.387 . S
H303 C315 0.930 . S
H304 C317 0.930 . S
H305 C318 0.930 . S
H306 C322 0.959 . S
H307 C322 0.959 . S
H308 C322 0.961 . S
H309 C323 0.960 . S
H310 C323 0.961 . S
H311 C323 0.959 . S
H312 C326 0.929 . S
H313 C327 0.931 . S
H314 C329 0.930 . S
C315 H303 0.930 . S
C315 C316 1.399 . S
C315 C320 1.399 . S
C316 C315 1.399 . S
C316 C317 1.376 . S
C317 H304 0.930 . S
C317 C316 1.376 . S
C317 C318 1.388 . S
C318 H305 0.930 . S
C318 C317 1.388 . S
C318 C319 1.390 . S
C319 C318 1.390 . S
C319 C320 1.394 . S
C319 C325 1.465 . S
C320 C315 1.399 . S
C320 C319 1.394 . S
C320 C321 1.516 . S
C321 C320 1.516 . S
C321 C322 1.502 . S
C321 C323 1.561 . S
C321 C324 1.526 . S
C322 H306 0.959 . S
C322 H307 0.959 . S
C322 H308 0.961 . S
C322 C321 1.502 . S
C323 H309 0.960 . S
C323 H310 0.961 . S
C323 H311 0.959 . S
C323 C321 1.561 . S
C324 C321 1.526 . S
C324 C325 1.396 . S
C324 C329 1.390 . S
C325 C319 1.465 . S
C325 C324 1.396 . S
C325 C326 1.399 . S
C326 H312 0.929 . S
C326 C325 1.399 . S
C326 C327 1.385 . S
C327 H313 0.931 . S
C327 C326 1.385 . S
C327 C328 1.389 . S
C328 C327 1.389 . S
C328 C329 1.387 . S
C329 H314 0.930 . S
C329 C324 1.390 . S
C329 C328 1.387 . S
H330 C342 0.930 . S
H331 C344 0.930 . S
H332 C345 0.930 . S
H333 C349 0.959 . S
H334 C349 0.959 . S
H335 C349 0.961 . S
H336 C350 0.960 . S
H337 C350 0.961 . S
H338 C350 0.959 . S
H339 C353 0.929 . S
H340 C354 0.931 1_565 S
H341 C356 0.930 . S
C342 H330 0.930 . S
C342 C343 1.399 . S
C342 C347 1.399 . S
C343 C342 1.399 . S
C343 C344 1.376 . S
C344 H331 0.930 . S
C344 C343 1.376 . S
C344 C345 1.388 . S
C345 H332 0.930 . S
C345 C344 1.388 . S
C345 C346 1.390 . S
C346 C345 1.390 . S
C346 C347 1.394 . S
C346 C352 1.465 . S
C347 C342 1.399 . S
C347 C346 1.394 . S
C347 C348 1.516 . S
C348 C347 1.516 . S
C348 C349 1.502 . S
C348 C350 1.561 . S
C348 C351 1.526 . S
C349 H333 0.959 . S
C349 H334 0.959 . S
C349 H335 0.961 . S
C349 C348 1.502 . S
C350 H336 0.960 . S
C350 H337 0.961 . S
C350 H338 0.959 . S
C350 C348 1.561 . S
C351 C348 1.526 . S
C351 C352 1.396 . S
C351 C356 1.390 . S
C352 C346 1.465 . S
C352 C351 1.396 . S
C352 C353 1.399 . S
C353 H339 0.929 . S
C353 C352 1.399 . S
C353 C354 1.385 . S
C354 H340 0.931 1_545 S
C354 C353 1.385 . S
C354 C355 1.389 . S
C355 C354 1.389 . S
C355 C356 1.387 . S
C356 H341 0.930 . S
C356 C351 1.390 . S
C356 C355 1.387 . S
H357 C369 0.930 . S
H358 C371 0.930 . S
H359 C372 0.930 . S
H360 C376 0.959 . S
H361 C376 0.959 . S
H362 C376 0.961 . S
H363 C377 0.960 . S
H364 C377 0.961 . S
H365 C377 0.959 . S
H366 C380 0.929 . S
H367 C381 0.931 . S
H368 C383 0.930 . S
C369 H357 0.930 . S
C369 C370 1.399 . S
C369 C374 1.399 . S
C370 C369 1.399 . S
C370 C371 1.376 . S
C371 H358 0.930 . S
C371 C370 1.376 . S
C371 C372 1.388 1_554 S
C372 H359 0.930 . S
C372 C371 1.388 1_556 S
C372 C373 1.390 . S
C373 C372 1.390 . S
C373 C374 1.394 1_556 S
C373 C379 1.465 . S
C374 C369 1.399 . S
C374 C373 1.394 1_554 S
C374 C375 1.516 . S
C375 C374 1.516 . S
C375 C376 1.502 . S
C375 C377 1.561 . S
C375 C378 1.526 1_554 S
C376 H360 0.959 . S
C376 H361 0.959 . S
C376 H362 0.961 . S
C376 C375 1.502 . S
C377 H363 0.960 . S
C377 H364 0.961 . S
C377 H365 0.959 . S
C377 C375 1.561 . S
C378 C375 1.526 1_556 S
C378 C379 1.396 . S
C378 C383 1.390 . S
C379 C373 1.465 . S
C379 C378 1.396 . S
C379 C380 1.399 . S
C380 H366 0.929 . S
C380 C379 1.399 . S
C380 C381 1.385 . S
C381 H367 0.931 . S
C381 C380 1.385 . S
C381 C382 1.389 . S
C382 C381 1.389 . S
C382 C383 1.387 . S
C383 H368 0.930 . S
C383 C378 1.390 . S
C383 C382 1.387 . S
H384 C396 0.930 . S
H385 C398 0.930 . S
H386 C399 0.930 1_554 S
H387 C403 0.959 . S
H388 C403 0.959 . S
H389 C403 0.961 . S
H390 C404 0.960 . S
H391 C404 0.961 1_544 S
H392 C404 0.959 1_554 S
H393 C407 0.929 1_565 S
H394 C408 0.931 . S
H395 C410 0.930 . S
C396 H384 0.930 . S
C396 C397 1.399 . S
C396 C401 1.399 . S
C397 C396 1.399 . S
C397 C398 1.376 . S
C398 H385 0.930 . S
C398 C397 1.376 . S
C398 C399 1.388 . S
C399 H386 0.930 1_556 S
C399 C398 1.388 . S
C399 C400 1.390 . S
C400 C399 1.390 . S
C400 C401 1.394 . S
C400 C406 1.465 1_566 S
C401 C396 1.399 . S
C401 C400 1.394 . S
C401 C402 1.516 1_565 S
C402 C401 1.516 1_545 S
C402 C403 1.502 . S
C402 C404 1.561 1_545 S
C402 C405 1.526 1_556 S
C403 H387 0.959 . S
C403 H388 0.959 . S
C403 H389 0.961 . S
C403 C402 1.502 . S
C404 H390 0.960 . S
C404 H391 0.961 1_566 S
C404 H392 0.959 1_556 S
C404 C402 1.561 1_565 S
C405 C402 1.526 1_554 S
C405 C406 1.396 . S
C405 C410 1.390 . S
C406 C400 1.465 1_544 S
C406 C405 1.396 . S
C406 C407 1.399 . S
C407 H393 0.929 1_545 S
C407 C406 1.399 . S
C407 C408 1.385 . S
C408 H394 0.931 . S
C408 C407 1.385 . S
C408 C409 1.389 . S
C409 C408 1.389 . S
C409 C410 1.387 . S
C410 H395 0.930 . S
C410 C405 1.390 . S
C410 C409 1.387 . S
H411 C423 0.930 . S
H412 C425 0.930 . S
H413 C426 0.930 . S
H414 C430 0.959 . S
H415 C430 0.959 . S
H416 C430 0.961 . S
H417 C431 0.960 . S
H418 C431 0.961 . S
H419 C431 0.959 1_455 S
H420 C434 0.929 . S
H421 C435 0.931 . S
H422 C437 0.930 . S
C423 H411 0.930 . S
C423 C424 1.399 . S
C423 C428 1.399 . S
C424 C423 1.399 . S
C424 C425 1.376 . S
C425 H412 0.930 . S
C425 C424 1.376 . S
C425 C426 1.388 . S
C426 H413 0.930 . S
C426 C425 1.388 . S
C426 C427 1.390 . S
C427 C426 1.390 . S
C427 C428 1.394 . S
C427 C433 1.465 1_556 S
C428 C423 1.399 . S
C428 C427 1.394 . S
C428 C429 1.516 1_455 S
C429 C428 1.516 1_655 S
C429 C430 1.502 . S
C429 C431 1.561 . S
C429 C432 1.526 1_556 S
C430 H414 0.959 . S
C430 H415 0.959 . S
C430 H416 0.961 . S
C430 C429 1.502 . S
C431 H417 0.960 . S
C431 H418 0.961 . S
C431 H419 0.959 1_655 S
C431 C429 1.561 . S
C432 C429 1.526 1_554 S
C432 C433 1.396 1_655 S
C432 C437 1.390 . S
C433 C427 1.465 1_554 S
C433 C432 1.396 1_455 S
C433 C434 1.399 . S
C434 H420 0.929 . S
C434 C433 1.399 . S
C434 C435 1.385 1_455 S
C435 H421 0.931 . S
C435 C434 1.385 1_655 S
C435 C436 1.389 . S
C436 C435 1.389 . S
C436 C437 1.387 . S
C437 H422 0.930 . S
C437 C432 1.390 . S
C437 C436 1.387 . S
C127 C26 0.699 . S
C139 C2 0.773 . S
C154 C40 0.686 . S
C166 C64 0.788 1_556 S
C181 C78 0.797 1_554 S
C193 C102 0.708 . S
C208 C99 2.420 . S
C220 C4 2.397 . S
C235 C93 1.264 . S
C247 C28 1.349 . S
C262 C96 1.601 . S
C274 C19 1.563 . S
C289 C42 2.417 . S
C301 C23 2.378 . S
C316 C66 1.266 . S
C328 C17 1.327 . S
C343 C57 1.569 . S
C355 C20 1.599 . S
C370 C61 2.367 . S
C382 C80 2.441 . S
C397 C104 1.324 . S
C409 C55 1.301 . S
C424 C95 1.584 . S
C436 C58 1.573 . S
