# Generated by pormake.
# Topology vda, (6)-cn, num edge types: 1
# Building blocks:
#     Node 0, Type 0, BuildingBlock: MIDCAF_clean_sbu_0, # of connection points: 6
#     Node 1, Type 0, BuildingBlock: MIDCAF_clean_sbu_0, # of connection points: 6
#     Node 2, Type 0, BuildingBlock: MIDCAF_clean_sbu_0, # of connection points: 6
#     Node 3, Type 0, BuildingBlock: MIDCAF_clean_sbu_0, # of connection points: 6
#     Node 4, Type 0, BuildingBlock: MIDCAF_clean_sbu_0, # of connection points: 6
#     Node 5, Type 0, BuildingBlock: MIDCAF_clean_sbu_0, # of connection points: 6
#     Node 6, Type 0, BuildingBlock: MIDCAF_clean_sbu_0, # of connection points: 6
#     Node 7, Type 0, BuildingBlock: MIDCAF_clean_sbu_0, # of connection points: 6
#     Node 8, Type 0, BuildingBlock: MIDCAF_clean_sbu_0, # of connection points: 6
#     Node 9, Type 0, BuildingBlock: MIDCAF_clean_sbu_0, # of connection points: 6
#     Node 10, Type 0, BuildingBlock: MIDCAF_clean_sbu_0, # of connection points: 6
#     Node 11, Type 0, BuildingBlock: MIDCAF_clean_sbu_0, # of connection points: 6
#     Node 12, Type 0, BuildingBlock: MIDCAF_clean_sbu_0, # of connection points: 6
#     Node 13, Type 0, BuildingBlock: MIDCAF_clean_sbu_0, # of connection points: 6
#     Node 14, Type 0, BuildingBlock: MIDCAF_clean_sbu_0, # of connection points: 6
#     Node 15, Type 0, BuildingBlock: MIDCAF_clean_sbu_0, # of connection points: 6
#     Node 16, Type 0, BuildingBlock: MIDCAF_clean_sbu_0, # of connection points: 6
#     Node 17, Type 0, BuildingBlock: MIDCAF_clean_sbu_0, # of connection points: 6
#     Node 18, Type 0, BuildingBlock: MIDCAF_clean_sbu_0, # of connection points: 6
#     Node 19, Type 0, BuildingBlock: MIDCAF_clean_sbu_0, # of connection points: 6
#     Node 20, Type 0, BuildingBlock: MIDCAF_clean_sbu_0, # of connection points: 6
#     Node 21, Type 0, BuildingBlock: MIDCAF_clean_sbu_0, # of connection points: 6
#     Node 22, Type 0, BuildingBlock: MIDCAF_clean_sbu_0, # of connection points: 6
#     Node 23, Type 0, BuildingBlock: MIDCAF_clean_sbu_0, # of connection points: 6
#     Node 24, Type 0, BuildingBlock: MIDCAF_clean_sbu_0, # of connection points: 6
#     Node 25, Type 0, BuildingBlock: MIDCAF_clean_sbu_0, # of connection points: 6
#     Node 26, Type 0, BuildingBlock: MIDCAF_clean_sbu_0, # of connection points: 6
#     Node 27, Type 0, BuildingBlock: MIDCAF_clean_sbu_0, # of connection points: 6
#     Node 28, Type 0, BuildingBlock: MIDCAF_clean_sbu_0, # of connection points: 6
#     Node 29, Type 0, BuildingBlock: MIDCAF_clean_sbu_0, # of connection points: 6
#     Node 30, Type 0, BuildingBlock: MIDCAF_clean_sbu_0, # of connection points: 6
#     Node 31, Type 0, BuildingBlock: MIDCAF_clean_sbu_0, # of connection points: 6
#     Edge 32, Type (0, 0), BuildingBlock: AJUNOK_clean_linker_0, # of connection points: 2
#     Edge 33, Type (0, 0), BuildingBlock: AJUNOK_clean_linker_0, # of connection points: 2
#     Edge 34, Type (0, 0), BuildingBlock: AJUNOK_clean_linker_0, # of connection points: 2
#     Edge 35, Type (0, 0), BuildingBlock: AJUNOK_clean_linker_0, # of connection points: 2
#     Edge 36, Type (0, 0), BuildingBlock: AJUNOK_clean_linker_0, # of connection points: 2
#     Edge 37, Type (0, 0), BuildingBlock: AJUNOK_clean_linker_0, # of connection points: 2
#     Edge 38, Type (0, 0), BuildingBlock: AJUNOK_clean_linker_0, # of connection points: 2
#     Edge 39, Type (0, 0), BuildingBlock: AJUNOK_clean_linker_0, # of connection points: 2
#     Edge 40, Type (0, 0), BuildingBlock: AJUNOK_clean_linker_0, # of connection points: 2
#     Edge 41, Type (0, 0), BuildingBlock: AJUNOK_clean_linker_0, # of connection points: 2
#     Edge 42, Type (0, 0), BuildingBlock: AJUNOK_clean_linker_0, # of connection points: 2
#     Edge 43, Type (0, 0), BuildingBlock: AJUNOK_clean_linker_0, # of connection points: 2
#     Edge 44, Type (0, 0), BuildingBlock: AJUNOK_clean_linker_0, # of connection points: 2
#     Edge 45, Type (0, 0), BuildingBlock: AJUNOK_clean_linker_0, # of connection points: 2
#     Edge 46, Type (0, 0), BuildingBlock: AJUNOK_clean_linker_0, # of connection points: 2
#     Edge 47, Type (0, 0), BuildingBlock: AJUNOK_clean_linker_0, # of connection points: 2
#     Edge 48, Type (0, 0), BuildingBlock: AJUNOK_clean_linker_0, # of connection points: 2
#     Edge 49, Type (0, 0), BuildingBlock: AJUNOK_clean_linker_0, # of connection points: 2
#     Edge 50, Type (0, 0), BuildingBlock: AJUNOK_clean_linker_0, # of connection points: 2
#     Edge 51, Type (0, 0), BuildingBlock: AJUNOK_clean_linker_0, # of connection points: 2
#     Edge 52, Type (0, 0), BuildingBlock: AJUNOK_clean_linker_0, # of connection points: 2
#     Edge 53, Type (0, 0), BuildingBlock: AJUNOK_clean_linker_0, # of connection points: 2
#     Edge 54, Type (0, 0), BuildingBlock: AJUNOK_clean_linker_0, # of connection points: 2
#     Edge 55, Type (0, 0), BuildingBlock: AJUNOK_clean_linker_0, # of connection points: 2
#     Edge 56, Type (0, 0), BuildingBlock: AJUNOK_clean_linker_0, # of connection points: 2
#     Edge 57, Type (0, 0), BuildingBlock: AJUNOK_clean_linker_0, # of connection points: 2
#     Edge 58, Type (0, 0), BuildingBlock: AJUNOK_clean_linker_0, # of connection points: 2
#     Edge 59, Type (0, 0), BuildingBlock: AJUNOK_clean_linker_0, # of connection points: 2
#     Edge 60, Type (0, 0), BuildingBlock: AJUNOK_clean_linker_0, # of connection points: 2
#     Edge 61, Type (0, 0), BuildingBlock: AJUNOK_clean_linker_0, # of connection points: 2
#     Edge 62, Type (0, 0), BuildingBlock: AJUNOK_clean_linker_0, # of connection points: 2
#     Edge 63, Type (0, 0), BuildingBlock: AJUNOK_clean_linker_0, # of connection points: 2
#     Edge 64, Type (0, 0), BuildingBlock: AJUNOK_clean_linker_0, # of connection points: 2
#     Edge 65, Type (0, 0), BuildingBlock: AJUNOK_clean_linker_0, # of connection points: 2
#     Edge 66, Type (0, 0), BuildingBlock: AJUNOK_clean_linker_0, # of connection points: 2
#     Edge 67, Type (0, 0), BuildingBlock: AJUNOK_clean_linker_0, # of connection points: 2
#     Edge 68, Type (0, 0), BuildingBlock: AJUNOK_clean_linker_0, # of connection points: 2
#     Edge 69, Type (0, 0), BuildingBlock: AJUNOK_clean_linker_0, # of connection points: 2
#     Edge 70, Type (0, 0), BuildingBlock: AJUNOK_clean_linker_0, # of connection points: 2
#     Edge 71, Type (0, 0), BuildingBlock: AJUNOK_clean_linker_0, # of connection points: 2
#     Edge 72, Type (0, 0), BuildingBlock: AJUNOK_clean_linker_0, # of connection points: 2
#     Edge 73, Type (0, 0), BuildingBlock: AJUNOK_clean_linker_0, # of connection points: 2
#     Edge 74, Type (0, 0), BuildingBlock: AJUNOK_clean_linker_0, # of connection points: 2
#     Edge 75, Type (0, 0), BuildingBlock: AJUNOK_clean_linker_0, # of connection points: 2
#     Edge 76, Type (0, 0), BuildingBlock: AJUNOK_clean_linker_0, # of connection points: 2
#     Edge 77, Type (0, 0), BuildingBlock: AJUNOK_clean_linker_0, # of connection points: 2
#     Edge 78, Type (0, 0), BuildingBlock: AJUNOK_clean_linker_0, # of connection points: 2
#     Edge 79, Type (0, 0), BuildingBlock: AJUNOK_clean_linker_0, # of connection points: 2
#     Edge 80, Type (0, 0), BuildingBlock: AJUNOK_clean_linker_0, # of connection points: 2
#     Edge 81, Type (0, 0), BuildingBlock: AJUNOK_clean_linker_0, # of connection points: 2
#     Edge 82, Type (0, 0), BuildingBlock: AJUNOK_clean_linker_0, # of connection points: 2
#     Edge 83, Type (0, 0), BuildingBlock: AJUNOK_clean_linker_0, # of connection points: 2
#     Edge 84, Type (0, 0), BuildingBlock: AJUNOK_clean_linker_0, # of connection points: 2
#     Edge 85, Type (0, 0), BuildingBlock: AJUNOK_clean_linker_0, # of connection points: 2
#     Edge 86, Type (0, 0), BuildingBlock: AJUNOK_clean_linker_0, # of connection points: 2
#     Edge 87, Type (0, 0), BuildingBlock: AJUNOK_clean_linker_0, # of connection points: 2
#     Edge 88, Type (0, 0), BuildingBlock: AJUNOK_clean_linker_0, # of connection points: 2
#     Edge 89, Type (0, 0), BuildingBlock: AJUNOK_clean_linker_0, # of connection points: 2
#     Edge 90, Type (0, 0), BuildingBlock: AJUNOK_clean_linker_0, # of connection points: 2
#     Edge 91, Type (0, 0), BuildingBlock: AJUNOK_clean_linker_0, # of connection points: 2
#     Edge 92, Type (0, 0), BuildingBlock: AJUNOK_clean_linker_0, # of connection points: 2
#     Edge 93, Type (0, 0), BuildingBlock: AJUNOK_clean_linker_0, # of connection points: 2
#     Edge 94, Type (0, 0), BuildingBlock: AJUNOK_clean_linker_0, # of connection points: 2
#     Edge 95, Type (0, 0), BuildingBlock: AJUNOK_clean_linker_0, # of connection points: 2
#     Edge 96, Type (0, 0), BuildingBlock: AJUNOK_clean_linker_0, # of connection points: 2
#     Edge 97, Type (0, 0), BuildingBlock: AJUNOK_clean_linker_0, # of connection points: 2
#     Edge 98, Type (0, 0), BuildingBlock: AJUNOK_clean_linker_0, # of connection points: 2
#     Edge 99, Type (0, 0), BuildingBlock: AJUNOK_clean_linker_0, # of connection points: 2
#     Edge 100, Type (0, 0), BuildingBlock: AJUNOK_clean_linker_0, # of connection points: 2
#     Edge 101, Type (0, 0), BuildingBlock: AJUNOK_clean_linker_0, # of connection points: 2
#     Edge 102, Type (0, 0), BuildingBlock: AJUNOK_clean_linker_0, # of connection points: 2
#     Edge 103, Type (0, 0), BuildingBlock: AJUNOK_clean_linker_0, # of connection points: 2
#     Edge 104, Type (0, 0), BuildingBlock: AJUNOK_clean_linker_0, # of connection points: 2
#     Edge 105, Type (0, 0), BuildingBlock: AJUNOK_clean_linker_0, # of connection points: 2
#     Edge 106, Type (0, 0), BuildingBlock: AJUNOK_clean_linker_0, # of connection points: 2
#     Edge 107, Type (0, 0), BuildingBlock: AJUNOK_clean_linker_0, # of connection points: 2
#     Edge 108, Type (0, 0), BuildingBlock: AJUNOK_clean_linker_0, # of connection points: 2
#     Edge 109, Type (0, 0), BuildingBlock: AJUNOK_clean_linker_0, # of connection points: 2
#     Edge 110, Type (0, 0), BuildingBlock: AJUNOK_clean_linker_0, # of connection points: 2
#     Edge 111, Type (0, 0), BuildingBlock: AJUNOK_clean_linker_0, # of connection points: 2
#     Edge 112, Type (0, 0), BuildingBlock: AJUNOK_clean_linker_0, # of connection points: 2
#     Edge 113, Type (0, 0), BuildingBlock: AJUNOK_clean_linker_0, # of connection points: 2
#     Edge 114, Type (0, 0), BuildingBlock: AJUNOK_clean_linker_0, # of connection points: 2
#     Edge 115, Type (0, 0), BuildingBlock: AJUNOK_clean_linker_0, # of connection points: 2
#     Edge 116, Type (0, 0), BuildingBlock: AJUNOK_clean_linker_0, # of connection points: 2
#     Edge 117, Type (0, 0), BuildingBlock: AJUNOK_clean_linker_0, # of connection points: 2
#     Edge 118, Type (0, 0), BuildingBlock: AJUNOK_clean_linker_0, # of connection points: 2
#     Edge 119, Type (0, 0), BuildingBlock: AJUNOK_clean_linker_0, # of connection points: 2
#     Edge 120, Type (0, 0), BuildingBlock: AJUNOK_clean_linker_0, # of connection points: 2
#     Edge 121, Type (0, 0), BuildingBlock: AJUNOK_clean_linker_0, # of connection points: 2
#     Edge 122, Type (0, 0), BuildingBlock: AJUNOK_clean_linker_0, # of connection points: 2
#     Edge 123, Type (0, 0), BuildingBlock: AJUNOK_clean_linker_0, # of connection points: 2
#     Edge 124, Type (0, 0), BuildingBlock: AJUNOK_clean_linker_0, # of connection points: 2
#     Edge 125, Type (0, 0), BuildingBlock: AJUNOK_clean_linker_0, # of connection points: 2
#     Edge 126, Type (0, 0), BuildingBlock: AJUNOK_clean_linker_0, # of connection points: 2
#     Edge 127, Type (0, 0), BuildingBlock: AJUNOK_clean_linker_0, # of connection points: 2
# Relax obj value: 0.516
# Max RMSD: 0.254
# Mean RMSD: 0.254
data_MOF--net-vda--node1-MIDCAF_clean_sbu_0--edge1-AJUNOK_clean_linker_0
_symmetry_space_group_name_H-M    P1
_symmetry_Int_Tables_number       1
_symmetry_cell_setting            triclinic
loop_
_symmetry_equiv_pos_as_xyz
'x, y, z'
_cell_length_a     35.098487
_cell_length_b     23.536519
_cell_length_c     45.661467
_cell_angle_alpha  89.780104
_cell_angle_beta   89.999113
_cell_angle_gamma 89.879989
loop_
_atom_site_label
_atom_site_type_symbol
_atom_site_fract_x
_atom_site_fract_y
_atom_site_fract_z
_atom_type_partial_charge
Zn0 Zn 0.31278 0.06266 0.03894 0.0
Zn1 Zn 0.39316 0.15645 0.98056 0.0
Zn2 Zn 0.3582 0.10056 0.00933 0.0
C3 C 0.40433 0.21602 0.02469 0.0
C4 C 0.36738 0.08308 0.94259 0.0
O5 O 0.36527 0.0071 0.00237 0.0
O6 O 0.31089 0.98394 0.02292 0.0
C7 C 0.3694 0.09694 0.07684 0.0
O8 O 0.39699 0.16449 0.03287 0.0
O9 O 0.39181 0.2323 1.00008 0.0
O10 O 0.36516 0.13672 0.94351 0.0
O11 O 0.37137 0.05566 0.96685 0.0
O12 O 0.34014 0.06609 0.07626 0.0
O13 O 0.38063 0.12165 0.05319 0.0
O14 O 0.30264 0.12679 0.99224 0.0
O15 O 0.26905 0.115 0.03193 0.0
C16 C 0.27042 0.12925 0.00528 0.0
O17 O 0.39766 0.0392 0.9942 0.0
O18 O 0.44104 0.1063 0.99089 0.0
C19 C 0.34098 0.9687 0.00994 0.0
C20 C 0.4329 0.05439 0.99486 0.0
Zn21 Zn 0.87353 0.0333 0.98234 0.0
Zn22 Zn 0.92423 0.16732 0.04177 0.0
Zn23 Zn 0.90028 0.10462 0.0104 0.0
C24 C 0.98669 0.12511 0.02438 0.0
C25 C 0.87394 0.1175 0.07613 0.0
O26 O 0.85329 0.14602 0.98553 0.0
O27 O 0.81898 0.06851 0.98022 0.0
C28 C 0.89847 0.10479 0.94333 0.0
O29 O 0.96302 0.11362 0.00397 0.0
O30 O 0.97348 0.12665 0.05004 0.0
O31 O 0.88492 0.16806 0.0729 0.0
O32 O 0.87914 0.08221 0.055 0.0
O33 O 0.90434 0.052 0.94658 0.0
O34 O 0.88976 0.1348 0.96575 0.0
O35 O 0.86605 0.03524 0.03455 0.0
O36 O 0.87789 0.96223 0.00623 0.0
C37 C 0.86165 0.98178 0.02882 0.0
O38 O 0.88076 0.18761 0.99348 0.0
O39 O 0.92656 0.23523 0.0155 0.0
C40 C 0.82101 0.12221 0.97925 0.0
C41 C 0.89958 0.23409 0.99728 0.0
Zn42 Zn 0.41915 0.11798 0.28497 0.0
Zn43 Zn 0.32969 0.20787 0.23579 0.0
Zn44 Zn 0.37223 0.16093 0.2629 0.0
C45 C 0.28378 0.15385 0.2694 0.0
C46 C 0.37457 0.15727 0.19606 0.0
O47 O 0.41999 0.22105 0.26525 0.0
O48 O 0.46266 0.15224 0.26425 0.0
C49 C 0.37137 0.14272 0.32683 0.0
O50 O 0.31448 0.16022 0.28445 0.0
O51 O 0.28692 0.15287 0.24186 0.0
O52 O 0.35988 0.20595 0.1988 0.0
O53 O 0.37648 0.12453 0.21871 0.0
O54 O 0.40573 0.15439 0.32198 0.0
O55 O 0.34936 0.13198 0.30505 0.0
O56 O 0.39593 0.08547 0.2379 0.0
O57 O 0.40723 0.03625 0.27772 0.0
C58 C 0.40615 0.03824 0.2501 0.0
O59 O 0.3874 0.25144 0.26705 0.0
O60 O 0.32847 0.27927 0.25981 0.0
C61 C 0.45474 0.20435 0.26194 0.0
C62 C 0.36145 0.29011 0.26922 0.0
Zn63 Zn 0.95567 0.10945 0.23907 0.0
Zn64 Zn 0.84898 0.15889 0.28861 0.0
Zn65 Zn 0.90132 0.13513 0.26403 0.0
C66 C 0.86909 0.25984 0.27258 0.0
C67 C 0.88768 0.09052 0.32665 0.0
O68 O 0.88665 0.05203 0.24613 0.0
O69 O 0.94642 0.0241 0.24906 0.0
C70 C 0.90479 0.11199 0.19658 0.0
O71 O 0.88529 0.22512 0.2549 0.0
O72 O 0.85802 0.24099 0.29704 0.0
O73 O 0.85367 0.10188 0.32005 0.0
O74 O 0.91439 0.10665 0.30921 0.0
O75 O 0.93833 0.13142 0.1984 0.0
O76 O 0.8867 0.0994 0.22023 0.0
O77 O 0.95181 0.11282 0.29289 0.0
O78 O 0.99434 0.15052 0.26366 0.0
C79 C 0.98665 0.12768 0.2881 0.0
O80 O 0.85402 0.08502 0.24466 0.0
O81 O 0.80782 0.14051 0.26069 0.0
C82 C 0.91135 0.01135 0.24839 0.0
C83 C 0.8183 0.09847 0.24562 0.0
Zn84 Zn 0.58922 0.79473 0.02965 0.0
Zn85 Zn 0.67904 0.90552 0.98497 0.0
Zn86 Zn 0.63448 0.85387 0.00683 0.0
C87 C 0.72353 0.86619 0.02346 0.0
C88 C 0.64947 0.84447 0.94122 0.0
O89 O 0.58325 0.90318 0.00732 0.0
O90 O 0.5422 0.83359 0.01498 0.0
C91 C 0.63415 0.83144 0.07408 0.0
O92 O 0.68938 0.86441 0.03423 0.0
O93 O 0.72711 0.86676 0.996 0.0
O94 O 0.66001 0.89509 0.9448 0.0
O95 O 0.6433 0.81272 0.96377 0.0
O96 O 0.60104 0.81326 0.0696 0.0
O97 O 0.65651 0.84234 0.05233 0.0
O98 O 0.61419 0.77713 0.98029 0.0
O99 O 0.60146 0.71721 0.01569 0.0
C100 C 0.60245 0.72762 0.98862 0.0
O101 O 0.61198 0.94097 1.00098 0.0
O102 O 0.66844 0.98038 0.00381 0.0
C103 C 0.54886 0.88489 0.00866 0.0
C104 C 0.63271 0.98552 0.00392 0.0
Zn105 Zn 0.17181 0.89266 0.02501 0.0
Zn106 Zn 0.02653 0.81516 0.95965 0.0
Zn107 Zn 0.11348 0.87598 0.01006 0.0
C108 C 0.03534 0.86579 0.01927 0.0
C109 C 0.09498 0.89457 0.95233 0.0
O110 O 0.14669 0.79886 0.0084 0.0
O111 O 0.20148 0.84093 0.99986 0.0
C112 C 0.13106 0.8845 0.07383 0.0
O113 O 0.06199 0.87885 0.03696 0.0
O114 O 0.0432 0.87056 0.99221 0.0
O115 O 0.06519 0.87765 0.96548 0.0
O116 O 0.11893 0.92 0.96861 0.0
O117 O 0.16167 0.86321 0.06451 0.0
O118 O 0.10575 0.90119 0.05535 0.0
O119 O 0.13659 0.95561 0.98707 0.0
O120 O 0.17724 0.97606 0.02193 0.0
C121 C 0.15918 0.99151 0.99945 0.0
O122 O 0.10449 0.78537 0.99741 0.0
O123 O 0.05717 0.74505 0.97064 0.0
C124 C 0.18205 0.796 1.00168 0.0
C125 C 0.08784 0.74177 0.98582 0.0
Zn126 Zn 0.61228 0.88216 0.73304 0.0
Zn127 Zn 0.72834 0.85566 0.77723 0.0
Zn128 Zn 0.66943 0.87241 0.75355 0.0
C129 C 0.75238 0.86664 0.72675 0.0
C130 C 0.67857 0.85552 0.821 0.0
O131 O 0.62865 0.81303 0.77362 0.0
O132 O 0.57584 0.86021 0.76433 0.0
C133 C 0.65284 0.82572 0.69184 0.0
O134 O 0.71758 0.85027 0.72431 0.0
O135 O 0.76075 0.89836 0.74819 0.0
O136 O 0.71045 0.87997 0.81762 0.0
O137 O 0.66018 0.83878 0.79827 0.0
O138 O 0.61918 0.82546 0.70151 0.0
O139 O 0.67927 0.84713 0.70784 0.0
O140 O 0.6502 0.96192 0.76009 0.0
O141 O 0.61324 0.96308 0.72148 0.0
C142 C 0.62867 0.98956 0.74226 0.0
O143 O 0.66449 0.78908 0.77605 0.0
O144 O 0.72545 0.76849 0.77099 0.0
C145 C 0.59212 0.81768 0.77555 0.0
C146 C 0.69164 0.75174 0.77501 0.0
Zn147 Zn 0.19319 0.81451 0.74503 0.0
Zn148 Zn 0.09868 0.90919 0.78529 0.0
Zn149 Zn 0.14582 0.86525 0.76442 0.0
C150 C 0.06036 0.84654 0.75174 0.0
C151 C 0.12904 0.86793 0.83152 0.0
O152 O 0.19163 0.92727 0.76167 0.0
O153 O 0.23585 0.86077 0.76173 0.0
C154 C 0.15026 0.83565 0.69792 0.0
O155 O 0.0918 0.85683 0.73814 0.0
O156 O 0.06186 0.8453 0.77929 0.0
O157 O 0.1187 0.91764 0.82495 0.0
O158 O 0.13753 0.83294 0.81076 0.0
O159 O 0.18487 0.82899 0.70401 0.0
O160 O 0.12614 0.8409 0.7192 0.0
O161 O 0.17064 0.79762 0.79498 0.0
O162 O 0.18046 0.73698 0.75991 0.0
C163 C 0.18154 0.74768 0.78688 0.0
O164 O 0.15769 0.95713 0.76108 0.0
O165 O 0.09671 0.97862 0.76019 0.0
C166 C 0.22691 0.91275 0.76337 0.0
C167 C 0.13082 0.99326 0.75576 0.0
Zn168 Zn 0.31982 0.56741 0.51604 0.0
Zn169 Zn 0.37276 0.70697 0.45881 0.0
Zn170 Zn 0.35213 0.62796 0.48897 0.0
C171 C 0.37779 0.75621 0.50644 0.0
C172 C 0.31961 0.65372 0.42586 0.0
O173 O 0.37994 0.54446 0.48415 0.0
O174 O 0.32477 0.50162 0.48881 0.0
C175 C 0.36663 0.61668 0.55494 0.0
O176 O 0.37819 0.70267 0.51271 0.0
O177 O 0.35874 0.77179 0.48435 0.0
O178 O 0.34589 0.68959 0.42282 0.0
O179 O 0.31201 0.63345 0.45148 0.0
O180 O 0.35506 0.56714 0.54967 0.0
O181 O 0.36187 0.65545 0.53517 0.0
O182 O 0.28994 0.62297 0.47619 0.0
O183 O 0.26909 0.6046 0.52043 0.0
C184 C 0.26185 0.61731 0.49417 0.0
O185 O 0.40012 0.59194 0.4695 0.0
O186 O 0.42634 0.67561 0.4611 0.0
C187 C 0.35963 0.49921 0.48212 0.0
C188 C 0.42903 0.62209 0.46258 0.0
Zn189 Zn 0.77435 0.61049 0.44378 0.0
Zn190 Zn 0.91578 0.71074 0.5103 0.0
Zn191 Zn 0.8689 0.66031 0.48972 0.0
C192 C 0.95629 0.66801 0.47008 0.0
C193 C 0.88126 0.65186 0.55469 0.0
O194 O 0.81543 0.70727 0.48144 0.0
O195 O 0.76145 0.69198 0.45531 0.0
C196 C 0.85901 0.62107 0.43404 0.0
O197 O 0.92154 0.66708 0.46087 0.0
O198 O 0.96192 0.66859 0.49735 0.0
O199 O 0.89614 0.69985 0.55039 0.0
O200 O 0.87419 0.6196 0.53266 0.0
O201 O 0.83123 0.60852 0.45037 0.0
O202 O 0.88903 0.6382 0.44698 0.0
O203 O 0.84936 0.58301 0.51464 0.0
O204 O 0.81108 0.59144 0.47808 0.0
C205 C 0.81925 0.56556 0.50171 0.0
O206 O 0.84815 0.74635 0.4962 0.0
O207 O 0.90433 0.7865 0.49209 0.0
C208 C 0.78235 0.72279 0.4719 0.0
C209 C 0.86855 0.79113 0.49309 0.0
Zn210 Zn 0.43426 0.55454 0.76594 0.0
Zn211 Zn 0.35019 0.68847 0.73042 0.0
Zn212 Zn 0.39852 0.63023 0.74685 0.0
C213 C 0.30874 0.63813 0.76769 0.0
C214 C 0.38231 0.64576 0.68009 0.0
O215 O 0.44802 0.67082 0.7612 0.0
O216 O 0.48472 0.59452 0.75969 0.0
C217 C 0.39498 0.58806 0.81172 0.0
O218 O 0.34394 0.62867 0.77451 0.0
O219 O 0.30111 0.65299 0.7418 0.0
O220 O 0.36481 0.68922 0.68897 0.0
O221 O 0.39416 0.60904 0.69914 0.0
O222 O 0.42371 0.55778 0.8068 0.0
O223 O 0.37505 0.6076 0.79015 0.0
O224 O 0.42346 0.56334 0.71495 0.0
O225 O 0.4153 0.48897 0.74277 0.0
C226 C 0.42762 0.50919 0.71903 0.0
O227 O 0.42181 0.71552 0.75186 0.0
O228 O 0.36549 0.75663 0.75361 0.0
C229 C 0.48072 0.64739 0.76394 0.0
C230 C 0.40109 0.75942 0.75716 0.0
Zn231 Zn 0.94671 0.5434 0.71583 0.0
Zn232 Zn 0.87806 0.72866 0.78919 0.0
Zn233 Zn 0.90102 0.58534 0.74357 0.0
C234 C 0.87852 0.71301 0.72569 0.0
C235 C 0.91795 0.63324 0.8139 0.0
O236 O 0.87943 0.50048 0.74135 0.0
O237 O 0.93621 0.46626 0.7318 0.0
C238 C 0.90267 0.59127 0.67458 0.0
O239 O 0.87614 0.65954 0.71944 0.0
O240 O 0.90036 0.72781 0.74655 0.0
O241 O 0.91209 0.68563 0.81912 0.0
O242 O 0.91175 0.61433 0.788 0.0
O243 O 0.92703 0.55213 0.67629 0.0
O244 O 0.89212 0.61696 0.69806 0.0
O245 O 0.95764 0.58471 0.76564 0.0
O246 O 0.99419 0.58312 0.72695 0.0
C247 C 0.99098 0.58742 0.75435 0.0
O248 O 0.8672 0.63539 0.76977 0.0
O249 O 0.825 0.68707 0.79166 0.0
C250 C 0.90148 0.45796 0.7378 0.0
C251 C 0.83316 0.64122 0.77855 0.0
Zn252 Zn 0.67307 0.40575 0.46254 0.0
Zn253 Zn 0.55914 0.36964 0.51769 0.0
Zn254 Zn 0.61555 0.38806 0.49508 0.0
C255 C 0.56609 0.28147 0.47986 0.0
C256 C 0.60929 0.37488 0.56274 0.0
O257 O 0.6116 0.47465 0.47558 0.0
O258 O 0.67197 0.49362 0.46661 0.0
C259 C 0.606 0.40097 0.43134 0.0
O260 O 0.6008 0.29883 0.48169 0.0
O261 O 0.54005 0.31082 0.49125 0.0
O262 O 0.57873 0.34926 0.55675 0.0
O263 O 0.62844 0.39814 0.54188 0.0
O264 O 0.63604 0.37094 0.43283 0.0
O265 O 0.59536 0.42841 0.45434 0.0
O266 O 0.66724 0.41138 0.51945 0.0
O267 O 0.70724 0.36553 0.49168 0.0
C268 C 0.70184 0.39794 0.5134 0.0
O269 O 0.57362 0.45261 0.48083 0.0
O270 O 0.53076 0.44043 0.51582 0.0
C271 C 0.63854 0.5113 0.47165 0.0
C272 C 0.54263 0.46768 0.49391 0.0
Zn273 Zn 0.12198 0.44273 0.53879 0.0
Zn274 Zn 0.04777 0.38223 0.46737 0.0
Zn275 Zn 0.1011 0.37142 0.50219 0.0
C276 C 0.01183 0.39579 0.51468 0.0
C277 C 0.11152 0.38453 0.43435 0.0
O278 O 0.14749 0.3351 0.52408 0.0
O279 O 0.1775 0.41611 0.52736 0.0
C280 C 0.10292 0.35075 0.56967 0.0
O281 O 0.04234 0.36795 0.52048 0.0
O282 O 0.01209 0.42812 0.49246 0.0
O283 O 0.08177 0.41494 0.43549 0.0
O284 O 0.12041 0.35397 0.45668 0.0
O285 O 0.09284 0.40233 0.57066 0.0
O286 O 0.11478 0.3308 0.54517 0.0
O287 O 0.1243 0.45368 0.48686 0.0
O288 O 0.10414 0.51424 0.51943 0.0
C289 C 0.12199 0.50507 0.49584 0.0
O290 O 0.1038 0.30187 0.47378 0.0
O291 O 0.04211 0.29312 0.47037 0.0
C292 C 0.17864 0.36303 0.52315 0.0
C293 C 0.07469 0.26995 0.47126 0.0
Zn294 Zn 0.68741 0.35287 0.28763 0.0
Zn295 Zn 0.62369 0.44916 0.21823 0.0
Zn296 Zn 0.65635 0.39828 0.25073 0.0
C297 C 0.61761 0.52317 0.25501 0.0
C298 C 0.63915 0.36546 0.18436 0.0
O299 O 0.64633 0.30554 0.2406 0.0
O300 O 0.69239 0.27595 0.26962 0.0
C301 C 0.62459 0.40006 0.31423 0.0
O302 O 0.62081 0.47421 0.26784 0.0
O303 O 0.63352 0.52905 0.23034 0.0
O304 O 0.64059 0.41854 0.18024 0.0
O305 O 0.64042 0.34583 0.21077 0.0
O306 O 0.64746 0.35923 0.31763 0.0
O307 O 0.62564 0.42925 0.29034 0.0
O308 O 0.71941 0.40333 0.24545 0.0
O309 O 0.73539 0.39775 0.29151 0.0
C310 C 0.7455 0.40367 0.26514 0.0
O311 O 0.61344 0.33838 0.23927 0.0
O312 O 0.57388 0.41028 0.23409 0.0
C313 C 0.66765 0.26463 0.25043 0.0
C314 C 0.57914 0.35822 0.24011 0.0
Zn315 Zn 0.0621 0.43426 0.27742 0.0
Zn316 Zn 0.14867 0.34808 0.21688 0.0
Zn317 Zn 0.10969 0.39766 0.24669 0.0
C318 C 0.15108 0.27744 0.25903 0.0
C319 C 0.12248 0.42955 0.18264 0.0
O320 O 0.11807 0.48886 0.24 0.0
O321 O 0.06546 0.51503 0.26276 0.0
C322 C 0.11656 0.38869 0.31494 0.0
O323 O 0.14385 0.32726 0.26946 0.0
O324 O 0.14341 0.26876 0.23237 0.0
O325 O 0.12108 0.37602 0.1807 0.0
O326 O 0.12646 0.45148 0.20821 0.0
O327 O 0.08709 0.4194 0.31523 0.0
O328 O 0.1297 0.37006 0.2905 0.0
O329 O 0.05348 0.38239 0.2271 0.0
O330 O 0.01685 0.38882 0.26556 0.0
C331 C 0.02006 0.38145 0.23831 0.0
O332 O 0.15305 0.46094 0.23645 0.0
O333 O 0.1967 0.39513 0.23063 0.0
C334 C 0.09445 0.52812 0.24773 0.0
C335 C 0.18854 0.44638 0.23658 0.0
Zn336 Zn 0.79311 0.12019 0.54416 0.0
Zn337 Zn 0.86945 0.21036 0.47902 0.0
Zn338 Zn 0.83473 0.15403 0.50738 0.0
C339 C 0.87128 0.27832 0.51858 0.0
C340 C 0.85796 0.12972 0.44172 0.0
O341 O 0.84665 0.06456 0.49975 0.0
O342 O 0.80146 0.03894 0.53071 0.0
C343 C 0.84983 0.16742 0.57629 0.0
O344 O 0.86739 0.22753 0.52896 0.0
O345 O 0.85736 0.28839 0.49353 0.0
O346 O 0.85479 0.18311 0.43957 0.0
O347 O 0.85526 0.10644 0.46725 0.0
O348 O 0.81895 0.14151 0.58062 0.0
O349 O 0.86031 0.17965 0.54999 0.0
O350 O 0.77398 0.15552 0.49364 0.0
O351 O 0.74234 0.15251 0.53483 0.0
C352 C 0.742 0.15363 0.5072 0.0
O353 O 0.88002 0.09794 0.49529 0.0
O354 O 0.91897 0.17094 0.49581 0.0
C355 C 0.82652 0.02542 0.51203 0.0
C356 C 0.91406 0.1178 0.4983 0.0
Zn357 Zn 0.31811 0.09887 0.48771 0.0
Zn358 Zn 0.4266 0.17834 0.5304 0.0
Zn359 Zn 0.37193 0.14088 0.50935 0.0
C360 C 0.45984 0.11767 0.49489 0.0
C361 C 0.38053 0.14824 0.5757 0.0
O362 O 0.33294 0.21207 0.50384 0.0
O363 O 0.2866 0.16745 0.48116 0.0
C364 C 0.37005 0.07948 0.4474 0.0
O365 O 0.42675 0.12791 0.48362 0.0
O366 O 0.4612 0.11217 0.52239 0.0
O367 O 0.4029 0.1879 0.5689 0.0
O368 O 0.37019 0.11281 0.55571 0.0
O369 O 0.3378 0.06051 0.45407 0.0
O370 O 0.38948 0.10732 0.46651 0.0
O371 O 0.34389 0.07537 0.54157 0.0
O372 O 0.2957 0.0467 0.51434 0.0
C373 C 0.31392 0.0438 0.53793 0.0
O374 O 0.3699 0.23435 0.5053 0.0
O375 O 0.43186 0.24953 0.5066 0.0
C376 C 0.29947 0.2123 0.49247 0.0
C377 C 0.39873 0.2672 0.50075 0.0
Zn378 Zn 0.95089 0.09096 0.78074 0.0
Zn379 Zn 0.83629 0.10882 0.73017 0.0
Zn380 Zn 0.89448 0.10538 0.75615 0.0
C381 C 0.81007 0.0951 0.77886 0.0
C382 C 0.89111 0.12014 0.68964 0.0
O383 O 0.93161 0.17167 0.73803 0.0
O384 O 0.98518 0.13695 0.7563 0.0
C385 C 0.90196 0.13442 0.82221 0.0
O386 O 0.84243 0.11903 0.7834 0.0
O387 O 0.80931 0.05767 0.759 0.0
O388 O 0.8645 0.08436 0.69289 0.0
O389 O 0.90365 0.14546 0.71259 0.0
O390 O 0.93703 0.12595 0.81816 0.0
O391 O 0.8783 0.1247 0.80139 0.0
O392 O 0.91547 0.01969 0.74316 0.0
O393 O 0.95765 0.00799 0.77819 0.0
C394 C 0.94065 0.98879 0.75603 0.0
O395 O 0.89335 0.18921 0.73559 0.0
O396 O 0.83082 0.19659 0.73785 0.0
C397 C 0.9681 0.17312 0.74066 0.0
C398 C 0.86305 0.22057 0.73696 0.0
Zn399 Zn 0.39298 0.1729 0.79254 0.0
Zn400 Zn 0.45874 0.08021 0.72678 0.0
Zn401 Zn 0.42527 0.1213 0.76103 0.0
C402 C 0.51056 0.14273 0.74782 0.0
C403 C 0.39709 0.11183 0.69679 0.0
O404 O 0.38364 0.05885 0.77339 0.0
O405 O 0.34322 0.12942 0.7785 0.0
C406 C 0.41481 0.09127 0.82724 0.0
O407 O 0.4864 0.13429 0.76831 0.0
O408 O 0.4981 0.14113 0.7219 0.0
O409 O 0.4193 0.06977 0.6967 0.0
O410 O 0.39748 0.14557 0.71896 0.0
O411 O 0.41909 0.14442 0.82911 0.0
O412 O 0.41007 0.0699 0.8016 0.0
O413 O 0.38995 0.19223 0.7406 0.0
O414 O 0.40157 0.25094 0.77647 0.0
C415 C 0.38724 0.2427 0.75145 0.0
O416 O 0.41843 0.0292 0.77023 0.0
O417 O 0.4727 0.00983 0.7484 0.0
C418 C 0.34893 0.07735 0.77271 0.0
C419 C 0.44485 0.99304 0.76359 0.0
Zn420 Zn 0.06491 0.84834 0.52731 0.0
Zn421 Zn 0.16219 0.95457 0.48476 0.0
Zn422 Zn 0.11432 0.90637 0.50848 0.0
C423 C 0.19175 0.94515 0.53904 0.0
C424 C 0.1563 0.8717 0.44916 0.0
O425 O 0.06746 0.96375 0.51421 0.0
O426 O 0.0222 0.89898 0.51494 0.0
C427 C 0.10969 0.86184 0.57452 0.0
O428 O 0.16577 0.90609 0.53936 0.0
O429 O 0.19286 0.97961 0.51793 0.0
O430 O 0.18502 0.89676 0.45938 0.0
O431 O 0.12529 0.87086 0.46423 0.0
O432 O 0.07539 0.85097 0.56891 0.0
O433 O 0.13228 0.8772 0.55353 0.0
O434 O 0.09303 0.83802 0.4767 0.0
O435 O 0.07103 0.77422 0.50743 0.0
C436 C 0.07806 0.78864 0.48139 0.0
O437 O 0.09711 0.99653 0.50062 0.0
O438 O 0.13537 0.0167 0.46389 0.0
C439 C 0.03204 0.95055 0.51414 0.0
C440 C 0.10754 0.0302 0.47981 0.0
Zn441 Zn 0.62224 0.94957 0.53578 0.0
Zn442 Zn 0.52112 0.81358 0.44466 0.0
Zn443 Zn 0.60256 0.87121 0.5053 0.0
C444 C 0.52264 0.86935 0.50505 0.0
C445 C 0.59491 0.88917 0.44409 0.0
O446 O 0.65443 0.8465 0.52498 0.0
O447 O 0.67791 0.93271 0.52151 0.0
C448 C 0.62016 0.86717 0.57432 0.0
O449 O 0.54683 0.88157 0.52468 0.0
O450 O 0.53556 0.86555 0.47914 0.0
O451 O 0.56463 0.86781 0.45461 0.0
O452 O 0.61847 0.90834 0.46301 0.0
O453 O 0.60865 0.91811 0.57536 0.0
O454 O 0.62533 0.84381 0.54919 0.0
O455 O 0.62359 0.95456 0.484 0.0
O456 O 0.59429 0.01138 0.51442 0.0
C457 C 0.61615 0.00579 0.49252 0.0
O458 O 0.59267 0.78603 0.48442 0.0
O459 O 0.55192 0.74136 0.45412 0.0
C460 C 0.6831 0.87956 0.52159 0.0
C461 C 0.58179 0.74143 0.47033 0.0
Zn462 Zn 0.19378 0.83328 0.27123 0.0
Zn463 Zn 0.1009 0.95858 0.24469 0.0
Zn464 Zn 0.14527 0.89096 0.25815 0.0
C465 C 0.11756 0.00698 0.28999 0.0
C466 C 0.13903 0.9435 0.19541 0.0
O467 O 0.12581 0.80262 0.25443 0.0
O468 O 0.18224 0.7642 0.24741 0.0
C469 C 0.16562 0.86995 0.32301 0.0
O470 O 0.12467 0.9535 0.29377 0.0
O471 O 0.12185 0.02664 0.2646 0.0
O472 O 0.10653 0.9595 0.20341 0.0
O473 O 0.16281 0.92359 0.21452 0.0
O474 O 0.18137 0.82643 0.31256 0.0
O475 O 0.15275 0.90871 0.30555 0.0
O476 O 0.19731 0.89882 0.22804 0.0
O477 O 0.23938 0.87867 0.26191 0.0
C478 C 0.23252 0.89345 0.23592 0.0
O479 O 0.0964 0.8434 0.2485 0.0
O480 O 0.05518 0.91211 0.2575 0.0
C481 C 0.14643 0.7595 0.2475 0.0
C482 C 0.06202 0.86056 0.25156 0.0
Zn483 Zn 0.58148 0.95905 0.27245 0.0
Zn484 Zn 0.69561 0.8019 0.20566 0.0
Zn485 Zn 0.61912 0.89914 0.2508 0.0
C486 C 0.65772 0.79825 0.2677 0.0
C487 C 0.61609 0.84174 0.19773 0.0
O488 O 0.64614 0.98334 0.24671 0.0
O489 O 0.59017 0.02489 0.24558 0.0
C490 C 0.61286 0.91144 0.31865 0.0
O491 O 0.6348 0.82857 0.28268 0.0
O492 O 0.66114 0.81349 0.24125 0.0
O493 O 0.64058 0.82074 0.21484 0.0
O494 O 0.59112 0.87342 0.2098 0.0
O495 O 0.60536 0.96204 0.31155 0.0
O496 O 0.61474 0.87349 0.29831 0.0
O497 O 0.5622 0.90287 0.22748 0.0
O498 O 0.53293 0.91634 0.26913 0.0
C499 C 0.5308 0.90709 0.24201 0.0
O500 O 0.67538 0.92834 0.23399 0.0
O501 O 0.72 0.8802 0.20763 0.0
C502 C 0.6257 0.02788 0.24175 0.0
C503 C 0.70787 0.92518 0.22046 0.0
Zn504 Zn 0.83377 0.54652 0.02152 0.0
Zn505 Zn 0.90772 0.6526 0.96579 0.0
Zn506 Zn 0.87161 0.59455 0.99238 0.0
C507 C 0.91047 0.71477 0.00932 0.0
C508 C 0.88661 0.58118 0.92681 0.0
O509 O 0.88274 0.50436 0.98051 0.0
O510 O 0.82655 0.47817 0.99672 0.0
C511 C 0.88906 0.5787 0.05835 0.0
O512 O 0.90526 0.66288 0.01793 0.0
O513 O 0.89958 0.72802 0.98387 0.0
O514 O 0.88016 0.63372 0.92881 0.0
O515 O 0.89158 0.55292 0.95062 0.0
O516 O 0.86847 0.53551 0.05482 0.0
O517 O 0.89197 0.61464 0.03711 0.0
O518 O 0.80992 0.60439 0.98115 0.0
O519 O 0.78905 0.59894 0.02591 0.0
C520 C 0.78177 0.60602 0.99907 0.0
O521 O 0.91592 0.5351 0.98018 0.0
O522 O 0.95708 0.60518 0.97831 0.0
C523 C 0.857 0.46561 0.98349 0.0
C524 C 0.95068 0.55258 0.98216 0.0
Zn525 Zn 0.33791 0.55685 0.9747 0.0
Zn526 Zn 0.42905 0.63394 0.02555 0.0
Zn527 Zn 0.38117 0.60278 0.99919 0.0
C528 C 0.4681 0.61075 0.9817 0.0
C529 C 0.37133 0.63275 0.06333 0.0
O530 O 0.32678 0.64644 0.00765 0.0
O531 O 0.29084 0.57213 0.99692 0.0
C532 C 0.37145 0.62147 0.93357 0.0
O533 O 0.43441 0.62548 0.97313 0.0
O534 O 0.47127 0.58934 0.00702 0.0
O535 O 0.40484 0.61293 0.06395 0.0
O536 O 0.35635 0.6453 0.03844 0.0
O537 O 0.33882 0.60261 0.93933 0.0
O538 O 0.39718 0.62001 0.95361 0.0
O539 O 0.3753 0.51483 0.01625 0.0
O540 O 0.36116 0.47951 0.97375 0.0
C541 C 0.36816 0.47116 1.00051 0.0
O542 O 0.35915 0.68707 0.01193 0.0
O543 O 0.41842 0.71664 0.00987 0.0
C544 C 0.29367 0.62271 0.00577 0.0
C545 C 0.38317 0.72838 0.00868 0.0
Zn546 Zn 0.91216 0.59827 0.26857 0.0
Zn547 Zn 0.81956 0.69108 0.21634 0.0
Zn548 Zn 0.86597 0.64506 0.24429 0.0
C549 C 0.77588 0.6482 0.25612 0.0
C550 C 0.86585 0.633 0.17742 0.0
O551 O 0.91258 0.70182 0.25092 0.0
O552 O 0.95752 0.63599 0.25057 0.0
C553 C 0.86227 0.63134 0.31 0.0
O554 O 0.80944 0.64843 0.26758 0.0
O555 O 0.77329 0.64801 0.22852 0.0
O556 O 0.8455 0.67714 0.17855 0.0
O557 O 0.8717 0.60409 0.20106 0.0
O558 O 0.89778 0.62831 0.30648 0.0
O559 O 0.84008 0.6274 0.28762 0.0
O560 O 0.88938 0.56595 0.22103 0.0
O561 O 0.90103 0.51721 0.261 0.0
C562 C 0.89951 0.51877 0.23346 0.0
O563 O 0.88275 0.73533 0.24033 0.0
O564 O 0.82553 0.77011 0.2319 0.0
C565 C 0.94789 0.68771 0.24998 0.0
C566 C 0.86015 0.77822 0.23809 0.0
Zn567 Zn 0.34801 0.71409 0.26917 0.0
Zn568 Zn 0.42367 0.59514 0.22037 0.0
Zn569 Zn 0.38746 0.65156 0.24945 0.0
C570 C 0.47848 0.645 0.24594 0.0
C571 C 0.36965 0.63555 0.18294 0.0
O572 O 0.34001 0.59623 0.25705 0.0
O573 O 0.30225 0.66925 0.24904 0.0
C574 C 0.34828 0.64641 0.31259 0.0
O575 O 0.44887 0.65005 0.2622 0.0
O576 O 0.47357 0.63635 0.21891 0.0
O577 O 0.38974 0.59135 0.18562 0.0
O578 O 0.36842 0.67136 0.20414 0.0
O579 O 0.3522 0.69964 0.31117 0.0
O580 O 0.35682 0.61619 0.29 0.0
O581 O 0.36229 0.72257 0.21988 0.0
O582 O 0.36716 0.78827 0.25314 0.0
C583 C 0.35903 0.77546 0.2271 0.0
O584 O 0.37166 0.56605 0.2665 0.0
O585 O 0.42363 0.52856 0.24767 0.0
C586 C 0.30728 0.6157 0.24896 0.0
C587 C 0.39538 0.52403 0.26464 0.0
Zn588 Zn 0.13541 0.34674 0.04215 0.0
Zn589 Zn 0.1964 0.43856 0.97106 0.0
Zn590 Zn 0.15665 0.39375 0.0037 0.0
C591 C 0.24434 0.3671 1.00139 0.0
C592 C 0.1381 0.39277 0.93663 0.0
O593 O 0.09959 0.38019 0.98772 0.0
O594 O 0.08375 0.39155 0.03373 0.0
C595 C 0.1602 0.43472 0.06729 0.0
O596 O 0.21261 0.35561 0.01395 0.0
O597 O 0.24483 0.40133 0.98007 0.0
O598 O 0.16913 0.41953 0.93504 0.0
O599 O 0.12596 0.37495 0.96174 0.0
O600 O 0.17209 0.3842 0.07004 0.0
O601 O 0.14619 0.44972 0.04239 0.0
O602 O 0.11817 0.31921 0.98998 0.0
O603 O 0.14325 0.268 0.02465 0.0
C604 C 0.12052 0.27069 0.0032 0.0
O605 O 0.1466 0.4828 0.01323 0.0
O606 O 0.18866 0.5184 0.98243 0.0
C607 C 0.07532 0.398 0.0069 0.0
C608 C 0.1621 0.52571 1.00063 0.0
Zn609 Zn 0.56744 0.32921 0.97699 0.0
Zn610 Zn 0.68054 0.35436 0.02423 0.0
Zn611 Zn 0.62462 0.33786 1.00132 0.0
C612 C 0.66395 0.45854 0.00302 0.0
C613 C 0.63558 0.30718 0.06725 0.0
O614 O 0.62826 0.25219 0.98456 0.0
O615 O 0.56572 0.24358 0.98696 0.0
C616 C 0.6183 0.31638 0.93461 0.0
O617 O 0.642 0.42563 0.98834 0.0
O618 O 0.68071 0.43884 0.0253 0.0
O619 O 0.67039 0.31243 0.06096 0.0
O620 O 0.6105 0.31942 0.04764 0.0
O621 O 0.58895 0.34747 0.93722 0.0
O622 O 0.63443 0.29667 0.95786 0.0
O623 O 0.57282 0.3242 0.0296 0.0
O624 O 0.53415 0.37658 0.00317 0.0
C625 C 0.53923 0.34526 0.02554 0.0
O626 O 0.66551 0.27451 0.98138 0.0
O627 O 0.71711 0.31819 0.99692 0.0
C628 C 0.59834 0.22075 0.98775 0.0
C629 C 0.70224 0.27938 0.98176 0.0
Zn630 Zn 0.20166 0.30843 0.78379 0.0
Zn631 Zn 0.13699 0.42224 0.72331 0.0
Zn632 Zn 0.16364 0.35902 0.75267 0.0
C633 C 0.1295 0.48193 0.76673 0.0
C634 C 0.15481 0.34548 0.68466 0.0
O635 O 0.14798 0.27157 0.74171 0.0
O636 O 0.19953 0.23474 0.76193 0.0
C637 C 0.14283 0.3497 0.81884 0.0
O638 O 0.13053 0.4294 0.77503 0.0
O639 O 0.14722 0.49522 0.74355 0.0
O640 O 0.16225 0.398 0.68553 0.0
O641 O 0.14838 0.31957 0.70908 0.0
O642 O 0.16829 0.31177 0.81883 0.0
O643 O 0.1383 0.38076 0.79581 0.0
O644 O 0.22325 0.37112 0.73982 0.0
O645 O 0.25024 0.35263 0.78183 0.0
C646 C 0.25351 0.36706 0.7553 0.0
O647 O 0.11838 0.30997 0.7336 0.0
O648 O 0.08295 0.38689 0.73218 0.0
C649 C 0.16961 0.22845 0.74692 0.0
C650 C 0.08499 0.33318 0.73312 0.0
Zn651 Zn 0.59808 0.42364 0.78471 0.0
Zn652 Zn 0.70995 0.36019 0.72565 0.0
Zn653 Zn 0.65299 0.3885 0.754 0.0
C654 C 0.70333 0.27009 0.7619 0.0
C655 C 0.65351 0.37995 0.68484 0.0
O656 O 0.66409 0.47737 0.76756 0.0
O657 O 0.61158 0.5052 0.7899 0.0
C658 C 0.63058 0.33376 0.81575 0.0
O659 O 0.67842 0.30491 0.77287 0.0
O660 O 0.71906 0.2819 0.73786 0.0
O661 O 0.68908 0.37447 0.68697 0.0
O662 O 0.63247 0.38025 0.70804 0.0
O663 O 0.60602 0.37265 0.81792 0.0
O664 O 0.65066 0.32891 0.7922 0.0
O665 O 0.59884 0.39739 0.72506 0.0
O666 O 0.55464 0.40973 0.75888 0.0
C667 C 0.56338 0.40473 0.73224 0.0
O668 O 0.69792 0.45328 0.75864 0.0
O669 O 0.74858 0.41463 0.73799 0.0
C670 C 0.64417 0.51672 0.77992 0.0
C671 C 0.73373 0.45434 0.75244 0.0
C672 C 0.39032 0.82875 0.99038 0.0
C673 C 0.37063 0.78865 0.00768 0.0
C674 C 0.37993 0.88664 0.99026 0.0
C675 C 0.34971 0.9067 0.00772 0.0
H676 H 0.41405 0.81528 0.97692 0.0
H677 H 0.3961 0.91595 0.97681 0.0
S678 S 0.2928 0.81969 0.05999 0.0
N679 N 0.32163 0.77364 0.04419 0.0
N680 N 0.30228 0.8815 0.04458 0.0
C681 C 0.33022 0.86674 0.0254 0.0
C682 C 0.34063 0.80803 0.02525 0.0
C683 C 0.83948 0.36436 0.9901 0.0
C684 C 0.86512 0.40459 0.97838 0.0
C685 C 0.85017 0.30786 0.99426 0.0
C686 C 0.88608 0.28851 0.98554 0.0
H687 H 0.81196 0.37723 0.99855 0.0
H688 H 0.83109 0.28003 0.00622 0.0
S689 S 0.96117 0.37269 0.9486 0.0
N690 N 0.92638 0.41874 0.95439 0.0
N691 N 0.94606 0.31134 0.96187 0.0
C692 C 0.91087 0.32656 0.97148 0.0
C693 C 0.90027 0.38475 0.96761 0.0
C694 C 0.41671 0.42596 0.2764 0.0
C695 C 0.38743 0.46707 0.27697 0.0
C696 C 0.40841 0.36794 0.27734 0.0
C697 C 0.37059 0.34905 0.27803 0.0
H698 H 0.44606 0.43844 0.27286 0.0
H699 H 0.43156 0.33806 0.27525 0.0
S700 S 0.28564 0.43897 0.2926 0.0
N701 N 0.32075 0.48479 0.28815 0.0
N702 N 0.30482 0.37542 0.28831 0.0
C703 C 0.34178 0.38951 0.28347 0.0
C704 C 0.35035 0.44876 0.28334 0.0
C705 C 0.90954 0.85361 0.23117 0.0
C706 C 0.87405 0.83669 0.24244 0.0
C707 C 0.92196 0.91007 0.2337 0.0
C708 C 0.89905 0.95141 0.24732 0.0
H709 H 0.92734 0.82344 0.21963 0.0
H710 H 0.94919 0.92168 0.22425 0.0
S711 S 0.80635 0.92638 0.28407 0.0
N712 N 0.81779 0.86425 0.26989 0.0
N713 N 0.84125 0.96996 0.27501 0.0
C714 C 0.86417 0.93439 0.25958 0.0
C715 C 0.85158 0.87713 0.25697 0.0
C716 C 0.59594 0.0616 0.97885 0.0
C717 C 0.61629 0.04287 0.00362 0.0
C718 C 0.58832 0.11949 0.97437 0.0
C719 C 0.60217 0.16008 0.99404 0.0
H720 H 0.58871 0.03216 0.96163 0.0
H721 H 0.57377 0.13278 0.95456 0.0
S722 S 0.65467 0.13289 0.063 0.0
N723 N 0.64774 0.06915 0.04894 0.0
N724 N 0.6347 0.17824 0.03994 0.0
C725 C 0.62111 0.14188 0.01942 0.0
C726 C 0.62802 0.08307 0.02432 0.0
C727 C 0.12188 0.67097 0.01742 0.0
C728 C 0.10486 0.68541 0.99039 0.0
C729 C 0.13974 0.61811 0.02148 0.0
C730 C 0.14114 0.57905 0.99846 0.0
H731 H 0.1216 0.70081 0.03542 0.0
H732 H 0.15326 0.60842 0.04223 0.0
S733 S 0.10013 0.59546 0.92409 0.0
N734 N 0.08964 0.65547 0.94088 0.0
N735 N 0.12359 0.55678 0.94835 0.0
C736 C 0.12357 0.59248 0.97171 0.0
C737 C 0.10518 0.64556 0.9677 0.0
C738 C 0.69703 0.65145 0.759 0.0
C739 C 0.68306 0.69117 0.77916 0.0
C740 C 0.68425 0.59513 0.75947 0.0
C741 C 0.65839 0.57592 0.7809 0.0
H742 H 0.7163 0.66469 0.74175 0.0
H743 H 0.69381 0.56699 0.74229 0.0
S744 S 0.61501 0.66367 0.83957 0.0
N745 N 0.64266 0.70816 0.82138 0.0
N746 N 0.62 0.60154 0.82329 0.0
C747 C 0.64512 0.61519 0.80174 0.0
C748 C 0.6574 0.67288 0.80078 0.0
C749 C 0.12111 0.15317 0.75206 0.0
C750 C 0.15677 0.17017 0.74136 0.0
C751 C 0.11225 0.09551 0.75512 0.0
C752 C 0.13891 0.05296 0.74778 0.0
H753 H 0.10098 0.18445 0.76007 0.0
H754 H 0.08514 0.08445 0.76493 0.0
S755 S 0.23293 0.07626 0.71283 0.0
N756 N 0.21671 0.14076 0.71971 0.0
N757 N 0.19958 0.03216 0.72443 0.0
C758 C 0.17327 0.06958 0.73462 0.0
C759 C 0.18236 0.12832 0.73174 0.0
C760 C 0.41621 0.36998 0.50228 0.0
C761 C 0.39344 0.32636 0.49059 0.0
C762 C 0.40796 0.42732 0.49651 0.0
C763 C 0.37668 0.44249 0.47893 0.0
H764 H 0.43898 0.35995 0.51747 0.0
H765 H 0.42402 0.45971 0.50792 0.0
S766 S 0.31526 0.34449 0.43679 0.0
N767 N 0.34392 0.30223 0.45562 0.0
N768 N 0.32738 0.40994 0.44573 0.0
C769 C 0.35638 0.39929 0.46471 0.0
C770 C 0.36498 0.34112 0.47035 0.0
C771 C 0.84975 0.94701 0.47942 0.0
C772 C 0.83362 0.96445 0.50612 0.0
C773 C 0.85927 0.88986 0.47455 0.0
C774 C 0.8521 0.84822 0.49597 0.0
H775 H 0.85583 0.97786 0.46244 0.0
H776 H 0.87317 0.87836 0.45423 0.0
S777 S 0.81153 0.87139 0.56981 0.0
N778 N 0.8112 0.93489 0.55434 0.0
N779 N 0.82911 0.82788 0.54494 0.0
C780 C 0.83514 0.86463 0.52238 0.0
C781 C 0.82571 0.92267 0.52747 0.0
C782 C 0.40779 0.91077 0.7835 0.0
C783 C 0.43975 0.93105 0.76817 0.0
C784 C 0.39692 0.85365 0.78158 0.0
C785 C 0.41791 0.81475 0.76461 0.0
H786 H 0.38955 0.93982 0.7954 0.0
H787 H 0.37071 0.84054 0.79214 0.0
S788 S 0.50577 0.84434 0.72254 0.0
N789 N 0.49434 0.90573 0.73756 0.0
N790 N 0.4733 0.79895 0.73403 0.0
C791 C 0.45155 0.83315 0.75123 0.0
C792 C 0.4627 0.89122 0.75305 0.0
C793 C 0.89591 0.30405 0.71656 0.0
C794 C 0.86694 0.2825 0.73451 0.0
C795 C 0.90581 0.36122 0.71745 0.0
C796 C 0.88708 0.3993 0.7363 0.0
H797 H 0.91208 0.27606 0.70241 0.0
H798 H 0.92902 0.37537 0.70359 0.0
S799 S 0.80794 0.36433 0.7869 0.0
N800 N 0.81836 0.30336 0.77089 0.0
N801 N 0.83692 0.41209 0.77242 0.0
C802 C 0.85663 0.37908 0.75334 0.0
C803 C 0.84654 0.32026 0.75246 0.0
C804 C 0.6019 0.59089 0.49367 0.0
C805 C 0.62936 0.57277 0.47327 0.0
C806 C 0.58821 0.64684 0.49376 0.0
C807 C 0.60228 0.68719 0.47392 0.0
H808 H 0.59042 0.56118 0.50947 0.0
H809 H 0.56552 0.65809 0.50878 0.0
S810 S 0.67867 0.66457 0.41917 0.0
N811 N 0.6735 0.60176 0.43502 0.0
N812 N 0.64771 0.7074 0.43519 0.0
C813 C 0.63176 0.67108 0.45483 0.0
C814 C 0.64562 0.6138 0.45467 0.0
C815 C 0.1199 0.12981 0.49109 0.0
C816 C 0.09516 0.08958 0.47913 0.0
C817 C 0.1126 0.18771 0.48822 0.0
C818 C 0.08011 0.20783 0.47332 0.0
H819 H 0.14563 0.11636 0.50232 0.0
H820 H 0.13274 0.21694 0.49793 0.0
S821 S 0.00626 0.11882 0.43805 0.0
N822 N 0.03712 0.0725 0.45161 0.0
N823 N 0.02242 0.18246 0.44688 0.0
C824 C 0.05452 0.16785 0.46173 0.0
C825 C 0.06237 0.10834 0.46437 0.0
C826 C 0.67915 0.16161 0.26037 0.0
C827 C 0.66069 0.20368 0.24336 0.0
C828 C 0.66932 0.10421 0.25834 0.0
C829 C 0.64206 0.08546 0.2382 0.0
H830 H 0.69968 0.17323 0.277 0.0
H831 H 0.6808 0.07532 0.27452 0.0
S832 S 0.58635 0.17682 0.18735 0.0
N833 N 0.61395 0.22178 0.20512 0.0
N834 N 0.59702 0.11308 0.20029 0.0
C835 C 0.62447 0.12642 0.22007 0.0
C836 C 0.63365 0.18551 0.2227 0.0
C837 C 0.09842 0.6864 0.26061 0.0
C838 C 0.12919 0.70331 0.24303 0.0
C839 C 0.08561 0.63019 0.26041 0.0
C840 C 0.10329 0.58885 0.24274 0.0
H841 H 0.08541 0.71603 0.27574 0.0
H842 H 0.06308 0.61859 0.27549 0.0
S843 S 0.18042 0.61488 0.18876 0.0
N844 N 0.17384 0.67682 0.20486 0.0
N845 N 0.14939 0.57123 0.20397 0.0
C846 C 0.13201 0.60655 0.22329 0.0
C847 C 0.14521 0.66373 0.22369 0.0
C848 C 0.41549 0.05045 0.9066 0.0
C849 C 0.37679 0.05816 0.9138 0.0
C850 C 0.42799 0.05328 0.87729 0.0
C851 C 0.40203 0.06199 0.85422 0.0
H852 H 0.43672 0.04925 0.92383 0.0
H853 H 0.45833 0.05426 0.87295 0.0
S854 S 0.29741 0.07772 0.86135 0.0
N855 N 0.31271 0.07082 0.89535 0.0
N856 N 0.33564 0.07205 0.84049 0.0
C857 C 0.363 0.06308 0.86103 0.0
C858 C 0.35049 0.06224 0.8908 0.0
C859 C 0.91512 0.17557 0.87082 0.0
C860 C 0.89001 0.14512 0.85255 0.0
C861 C 0.91569 0.16638 0.90114 0.0
C862 C 0.89122 0.1264 0.91377 0.0
H863 H 0.93702 0.20228 0.8613 0.0
H864 H 0.93746 0.18671 0.91424 0.0
S865 S 0.81391 0.04708 0.87688 0.0
N866 N 0.83536 0.08215 0.85018 0.0
N867 N 0.83645 0.06476 0.90727 0.0
C868 C 0.86278 0.1015 0.89641 0.0
C869 C 0.86198 0.11123 0.86564 0.0
C870 C 0.38328 0.14735 0.40754 0.0
C871 C 0.3744 0.09148 0.41597 0.0
C872 C 0.37775 0.16589 0.37879 0.0
C873 C 0.36243 0.12971 0.35738 0.0
H874 H 0.39291 0.17797 0.42352 0.0
H875 H 0.38683 0.20844 0.37293 0.0
S876 S 0.33009 0.98171 0.36875 0.0
N877 N 0.34654 1.00143 0.40106 0.0
N878 N 0.33599 0.03691 0.34676 0.0
C879 C 0.35161 0.07473 0.36566 0.0
C880 C 0.35783 0.05539 0.39493 0.0
C881 C 0.91721 0.11108 0.37426 0.0
C882 C 0.89414 0.07495 0.3576 0.0
C883 C 0.90743 0.12379 0.40328 0.0
C884 C 0.87493 0.09978 0.41659 0.0
H885 H 0.93928 0.13605 0.36376 0.0
H886 H 0.92313 0.15695 0.41439 0.0
S887 S 0.81307 0.98895 0.38507 0.0
N888 N 0.84343 0.00464 0.35859 0.0
N889 N 0.82516 0.02896 0.41323 0.0
C890 C 0.85579 0.05645 0.40187 0.0
C891 C 0.86574 0.04344 0.37232 0.0
C892 C 0.61719 0.88933 0.14827 0.0
C893 C 0.62404 0.84125 0.16584 0.0
C894 C 0.62672 0.88936 0.11832 0.0
C895 C 0.64346 0.84148 0.10495 0.0
H896 H 0.60389 0.92672 0.15756 0.0
H897 H 0.61815 0.92542 0.10501 0.0
S898 S 0.66805 0.70574 0.1415 0.0
N899 N 0.64969 0.74516 0.16782 0.0
N900 N 0.66723 0.74574 0.11171 0.0
C901 C 0.652 0.79442 0.12261 0.0
C902 C 0.64225 0.79411 0.15296 0.0
C903 C 0.158 0.88318 0.15367 0.0
C904 C 0.1435 0.93501 0.16374 0.0
C905 C 0.15176 0.8658 0.12482 0.0
C906 C 0.13043 0.89936 0.10505 0.0
H907 H 0.17225 0.85435 0.16856 0.0
H908 H 0.16371 0.82552 0.1179 0.0
S909 S 0.08812 0.04041 0.12028 0.0
N910 N 0.10826 0.02113 0.15147 0.0
N911 N 0.09642 0.98802 0.09717 0.0
C912 C 0.1163 0.95172 0.11467 0.0
C913 C 0.12309 0.96979 0.14395 0.0
C914 C 0.61836 0.79895 0.61615 0.0
C915 C 0.63714 0.84227 0.60087 0.0
C916 C 0.62835 0.78636 0.64522 0.0
C917 C 0.65701 0.81737 0.65988 0.0
H918 H 0.59381 0.77828 0.60657 0.0
H919 H 0.61062 0.75676 0.65728 0.0
S920 S 0.72106 0.92395 0.62598 0.0
N921 N 0.69051 0.90768 0.59982 0.0
N922 N 0.70921 0.88439 0.65452 0.0
C923 C 0.67947 0.85479 0.64324 0.0
C924 C 0.66922 0.86763 0.61371 0.0
C925 C 0.09376 0.86167 0.6279 0.0
C926 C 0.1216 0.85687 0.60561 0.0
C927 C 0.10278 0.85384 0.65759 0.0
C928 C 0.14005 0.84064 0.66629 0.0
H929 H 0.06448 0.87174 0.62239 0.0
H930 H 0.08043 0.85847 0.67376 0.0
S931 S 0.22335 0.82135 0.61626 0.0
N932 N 0.18759 0.83686 0.5942 0.0
N933 N 0.20527 0.82204 0.64962 0.0
C934 C 0.16824 0.83541 0.64405 0.0
C935 C 0.1589 0.84373 0.61387 0.0
C936 C 0.29663 0.65595 0.34882 0.0
C937 C 0.32793 0.62406 0.3385 0.0
C938 C 0.28701 0.65639 0.3786 0.0
C939 C 0.30825 0.62462 0.39883 0.0
H940 H 0.28266 0.68637 0.33449 0.0
H941 H 0.26693 0.68804 0.38626 0.0
S942 S 0.38422 0.52036 0.38144 0.0
N943 N 0.37377 0.54986 0.34951 0.0
N944 N 0.35496 0.54933 0.40554 0.0
C945 C 0.33427 0.5842 0.38783 0.0
C946 C 0.34463 0.58452 0.35752 0.0
C947 C 0.8727 0.67239 0.38766 0.0
C948 C 0.85357 0.62843 0.40224 0.0
C949 C 0.87028 0.67807 0.35728 0.0
C950 C 0.84937 0.63926 0.34028 0.0
H951 H 0.89065 0.7016 0.39966 0.0
H952 H 0.88766 0.71021 0.34672 0.0
S953 S 0.78987 0.52153 0.36834 0.0
N954 N 0.80905 0.54966 0.39798 0.0
N955 N 0.80585 0.55938 0.34037 0.0
C956 C 0.82752 0.59807 0.3547 0.0
C957 C 0.82947 0.59272 0.38587 0.0
C958 C 0.35345 0.62111 0.85274 0.0
C959 C 0.38965 0.6083 0.84188 0.0
C960 C 0.34851 0.63298 0.88248 0.0
C961 C 0.37956 0.63153 0.90229 0.0
H962 H 0.32866 0.61855 0.83871 0.0
H963 H 0.31963 0.63875 0.89035 0.0
S964 S 0.48139 0.61766 0.8825 0.0
N965 N 0.45814 0.60881 0.85144 0.0
N966 N 0.44832 0.62848 0.90756 0.0
C967 C 0.41631 0.62602 0.8909 0.0
C968 C 0.42145 0.61463 0.8606 0.0
C969 C 0.88289 0.56784 0.84655 0.0
C970 C 0.91763 0.59425 0.83926 0.0
C971 C 0.87453 0.55284 0.87569 0.0
C972 C 0.90107 0.56237 0.89816 0.0
H973 H 0.86022 0.56559 0.83049 0.0
H974 H 0.84563 0.54056 0.88111 0.0
S975 S 0.99908 0.61799 0.88904 0.0
N976 N 0.98066 0.6209 0.85577 0.0
N977 N 0.96582 0.58987 0.91016 0.0
C978 C 0.93787 0.58041 0.89019 0.0
C979 C 0.94592 0.59744 0.86078 0.0
C980 C 0.60804 0.35222 0.64539 0.0
C981 C 0.63814 0.38626 0.65499 0.0
C982 C 0.59924 0.34885 0.61547 0.0
C983 C 0.62009 0.37962 0.59411 0.0
H984 H 0.59253 0.32592 0.66082 0.0
H985 H 0.57626 0.32088 0.60907 0.0
S986 S 0.69859 0.48053 0.60913 0.0
N987 N 0.6867 0.45521 0.64163 0.0
N988 N 0.66998 0.4491 0.58555 0.0
C989 C 0.64906 0.41588 0.60382 0.0
C990 C 0.65803 0.41924 0.63422 0.0
C991 C 0.16379 0.31022 0.63344 0.0
C992 C 0.13928 0.32401 0.65672 0.0
C993 C 0.15036 0.30966 0.60433 0.0
C994 C 0.11215 0.32344 0.59786 0.0
H995 H 0.19403 0.305 0.63742 0.0
H996 H 0.17088 0.30504 0.58676 0.0
S997 S 0.03606 0.35771 0.65076 0.0
N998 N 0.07473 0.3493 0.67082 0.0
N999 N 0.04941 0.34411 0.61689 0.0
C1000 C 0.0868 0.33107 0.6211 0.0
C1001 C 0.10047 0.33298 0.65038 0.0
C1002 C 0.65704 0.2933 0.14709 0.0
C1003 C 0.62964 0.32983 0.15895 0.0
C1004 C 0.65525 0.27784 0.11745 0.0
C1005 C 0.6264 0.29938 0.09876 0.0
H1006 H 0.68198 0.28168 0.15977 0.0
H1007 H 0.67904 0.25435 0.10838 0.0
S1008 S 0.54215 0.38252 0.12224 0.0
N1009 N 0.56835 0.37609 0.15213 0.0
N1010 N 0.56532 0.3479 0.09635 0.0
C1011 C 0.5958 0.32833 0.1117 0.0
C1012 C 0.59754 0.34375 0.14188 0.0
C1013 C 0.10192 0.46141 0.13332 0.0
C1014 C 0.13006 0.46114 0.15525 0.0
C1015 C 0.11185 0.46387 0.10349 0.0
C1016 C 0.15031 0.46435 0.09473 0.0
H1017 H 0.07248 0.45316 0.13908 0.0
H1018 H 0.08963 0.45726 0.08739 0.0
S1019 S 0.23405 0.47546 0.14362 0.0
N1020 N 0.19731 0.47165 0.16616 0.0
N1021 N 0.21602 0.47397 0.11021 0.0
C1022 C 0.1782 0.47138 0.11643 0.0
C1023 C 0.16803 0.47024 0.14674 0.0
C1024 C 0.52068 0.96632 0.98209 0.0
C1025 C 0.51755 0.92472 0.00404 0.0
C1026 C 0.49358 0.00956 0.97945 0.0
C1027 C 0.46216 0.01103 0.99832 0.0
H1028 H 0.54412 0.96489 0.96677 0.0
H1029 H 0.49681 0.0412 0.96233 0.0
S1030 S 0.44044 0.91083 0.05892 0.0
N1031 N 0.48051 0.88675 0.04457 0.0
N1032 N 0.42901 0.96771 0.03951 0.0
C1033 C 0.45815 0.96877 0.0199 0.0
C1034 C 0.4859 0.92522 0.02268 0.0
C1035 C 0.79537 0.21484 0.96179 0.0
C1036 C 0.78877 0.15779 0.96916 0.0
C1037 C 0.76567 0.25443 0.96202 0.0
C1038 C 0.72817 0.23744 0.96822 0.0
H1039 H 0.824 0.22959 0.95776 0.0
H1040 H 0.77261 0.29908 0.95978 0.0
S1041 S 0.69451 0.08879 0.97011 0.0
N1042 N 0.74132 0.08312 0.97072 0.0
N1043 N 0.68466 0.1574 0.96915 0.0
C1044 C 0.72037 0.17897 0.96849 0.0
C1045 C 0.75097 0.13882 0.9693 0.0
C1046 C 0.4813 0.29129 0.2382 0.0
C1047 C 0.48586 0.24473 0.2572 0.0
C1048 C 0.51149 0.32886 0.233 0.0
C1049 C 0.54716 0.32007 0.24628 0.0
H1050 H 0.4544 0.29831 0.22709 0.0
H1051 H 0.50716 0.36415 0.21806 0.0
S1052 S 0.5727 0.20623 0.2992 0.0
N1053 N 0.52802 0.19314 0.29024 0.0
N1054 N 0.58467 0.26351 0.28044 0.0
C1055 C 0.55182 0.27403 0.26558 0.0
C1056 C 0.52119 0.2362 0.27097 0.0
C1057 C 0.7333 0.00379 0.24996 0.0
C1058 C 0.7348 0.97235 0.22402 0.0
C1059 C 0.75917 0.04698 0.25546 0.0
C1060 C 0.78922 0.0581 0.23606 0.0
H1061 H 0.7131 0.99313 0.26699 0.0
H1062 H 0.75698 0.06936 0.2761 0.0
S1063 S 0.80903 0.98341 0.16645 0.0
N1064 N 0.76961 0.95363 0.17892 0.0
N1065 N 0.82096 0.03183 0.19086 0.0
C1066 C 0.79236 0.0255 0.21054 0.0
C1067 C 0.76466 0.98301 0.2042 0.0
C1068 C 0.22297 0.73228 0.03035 0.0
C1069 C 0.20269 0.74262 0.00434 0.0
C1070 C 0.25129 0.69049 0.03156 0.0
C1071 C 0.2592 0.65743 0.00692 0.0
H1072 H 0.2185 0.75912 0.04928 0.0
H1073 H 0.2681 0.68564 0.05131 0.0
S1074 S 0.20981 0.66282 0.93511 0.0
N1075 N 0.18955 0.71372 0.95451 0.0
N1076 N 0.24175 0.63295 0.9569 0.0
C1077 C 0.23656 0.66389 0.98166 0.0
C1078 C 0.20841 0.7073 0.98029 0.0
C1079 C 0.53467 0.77054 0.79494 0.0
C1080 C 0.56933 0.76675 0.77991 0.0
C1081 C 0.50683 0.72894 0.79122 0.0
C1082 C 0.51299 0.68281 0.77226 0.0
H1083 H 0.52802 0.80777 0.80788 0.0
H1084 H 0.4795 0.73464 0.80187 0.0
S1085 S 0.59913 0.6533 0.72845 0.0
N1086 N 0.60833 0.71336 0.74551 0.0
N1087 N 0.5567 0.63345 0.74011 0.0
C1088 C 0.54852 0.67626 0.75897 0.0
C1089 C 0.57659 0.71898 0.7623 0.0
C1090 C 0.28149 0.04696 0.7823 0.0
C1091 C 0.31704 0.03724 0.7689 0.0
C1092 C 0.25214 0.0066 0.78048 0.0
C1093 C 0.25739 0.95571 0.76494 0.0
H1094 H 0.27656 0.08536 0.79472 0.0
H1095 H 0.2254 0.015 0.79151 0.0
S1096 S 0.34243 0.91548 0.72133 0.0
N1097 N 0.35381 0.97678 0.73637 0.0
N1098 N 0.29909 0.90096 0.73316 0.0
C1099 C 0.29214 0.94693 0.75033 0.0
C1100 C 0.32181 0.98783 0.75215 0.0
C1101 C 0.51081 0.52257 0.45467 0.0
C1102 C 0.52145 0.51718 0.48419 0.0
C1103 C 0.4825 0.56145 0.44653 0.0
C1104 C 0.46589 0.59669 0.46765 0.0
H1105 H 0.52184 0.49337 0.43843 0.0
H1106 H 0.47177 0.56122 0.42428 0.0
S1107 S 0.48831 0.6039 0.54671 0.0
N1108 N 0.51624 0.5533 0.53384 0.0
N1109 N 0.46431 0.62813 0.51818 0.0
C1110 C 0.47913 0.59533 0.49652 0.0
C1111 C 0.50677 0.55491 0.50495 0.0
C1112 C 0.75259 0.81846 0.47022 0.0
C1113 C 0.76478 0.77107 0.4863 0.0
C1114 C 0.7302 0.86015 0.4836 0.0
C1115 C 0.71893 0.8541 0.51298 0.0
H1116 H 0.75867 0.82171 0.44701 0.0
H1117 H 0.71821 0.89361 0.47011 0.0
S1118 S 0.74701 0.7403 0.56472 0.0
N1119 N 0.76782 0.72318 0.53352 0.0
N1120 N 0.72407 0.80039 0.55823 0.0
C1121 C 0.73339 0.8091 0.52966 0.0
C1122 C 0.7567 0.7675 0.51632 0.0
C1123 C 0.8063 0.57015 0.74483 0.0
C1124 C 0.8047 0.59774 0.77197 0.0
C1125 C 0.78299 0.52389 0.73885 0.0
C1126 C 0.7572 0.50359 0.75984 0.0
H1127 H 0.82605 0.5838 0.7281 0.0
H1128 H 0.78525 0.50377 0.71761 0.0
S1129 S 0.74234 0.56047 0.83455 0.0
N1130 N 0.7752 0.60219 0.82006 0.0
N1131 N 0.73167 0.51339 0.80908 0.0
C1132 C 0.75498 0.53086 0.78709 0.0
C1133 C 0.77854 0.57872 0.79304 0.0
C1134 C 0.23864 0.26044 0.48092 0.0
C1135 C 0.27358 0.26126 0.49593 0.0
C1136 C 0.20881 0.29578 0.48929 0.0
C1137 C 0.21292 0.33407 0.51256 0.0
H1138 H 0.23335 0.22975 0.46377 0.0
H1139 H 0.18178 0.29151 0.47809 0.0
S1140 S 0.30056 0.36108 0.55521 0.0
N1141 N 0.31224 0.30913 0.53269 0.0
N1142 N 0.25571 0.37706 0.54777 0.0
C1143 C 0.24868 0.33989 0.52576 0.0
C1144 C 0.27923 0.30312 0.51751 0.0
C1145 C 0.25326 0.48518 0.22473 0.0
C1146 C 0.21843 0.49029 0.23972 0.0
C1147 C 0.28142 0.52717 0.2271 0.0
C1148 C 0.2756 0.57581 0.24435 0.0
H1149 H 0.25885 0.44849 0.21114 0.0
H1150 H 0.30816 0.52126 0.21563 0.0
S1151 S 0.1915 0.6064 0.2906 0.0
N1152 N 0.18132 0.54554 0.27453 0.0
N1153 N 0.23371 0.62528 0.27796 0.0
C1154 C 0.24114 0.5814 0.25955 0.0
C1155 C 0.21272 0.5383 0.25754 0.0
C1156 C 0.96948 0.98152 0.49528 0.0
C1157 C 1.0031 0.9948 0.5103 0.0
C1158 C 0.94159 0.02261 0.49066 0.0
C1159 C 0.94606 0.07818 0.50114 0.0
H1160 H 0.96478 0.93923 0.4867 0.0
H1161 H 0.91636 0.01072 0.47866 0.0
S1162 S 0.02923 0.13458 0.54151 0.0
N1163 N 0.03977 0.06719 0.53563 0.0
N1164 N 0.98698 0.14511 0.52647 0.0
C1165 C 0.97985 0.09251 0.51569 0.0
C1166 C 0.00841 0.05047 0.52052 0.0
C1167 C 0.01639 0.31257 0.74137 0.0
C1168 C 0.05125 0.29785 0.72836 0.0
C1169 C 0.98633 0.27362 0.74199 0.0
C1170 C 0.99042 0.2199 0.72908 0.0
H1171 H 0.01345 0.35217 0.7532 0.0
H1172 H 0.96143 0.28331 0.7551 0.0
S1173 S 0.07204 0.16727 0.68578 0.0
N1174 N 0.0855 0.2303 0.69762 0.0
N1175 N 0.02858 0.15774 0.69869 0.0
C1176 C 0.02329 0.20762 0.71308 0.0
C1177 C 0.05398 0.24654 0.71277 0.0
C1178 C 0.97309 0.77839 0.26822 0.0
C1179 C 0.97653 0.73203 0.24915 0.0
C1180 C 1.00023 0.82154 0.26815 0.0
C1181 C 0.0314 0.81913 0.24905 0.0
H1182 H 0.94958 0.78083 0.28357 0.0
H1183 H 0.99741 0.85587 0.28367 0.0
S1184 S 0.04971 0.71048 0.19202 0.0
N1185 N 0.01107 0.68811 0.20914 0.0
N1186 N 0.06189 0.77035 0.20829 0.0
C1187 C 0.03408 0.77422 0.22892 0.0
C1188 C 0.00671 0.73004 0.22926 0.0
C1189 C 0.01537 0.51248 0.97087 0.0
C1190 C 0.98166 0.51124 0.98745 0.0
C1191 C 0.04455 0.4726 0.97591 0.0
C1192 C 0.04147 0.43157 0.99833 0.0
H1193 H 0.01916 0.54425 0.9539 0.0
H1194 H 0.07038 0.47546 0.96304 0.0
S1195 S 0.95862 0.41021 0.04741 0.0
N1196 N 0.94627 0.46446 0.02639 0.0
N1197 N 1.00177 0.39142 0.03667 0.0
C1198 C 0.00778 0.42974 0.01483 0.0
C1199 C 0.97773 0.46919 0.0092 0.0
C1200 C 0.39198 0.1795 0.14428 0.0
C1201 C 0.38542 0.13833 0.1663 0.0
C1202 C 0.39215 0.1649 0.11452 0.0
C1203 C 0.3857 0.10864 0.10595 0.0
H1204 H 0.39417 0.22405 0.14992 0.0
H1205 H 0.3934 0.19852 0.09827 0.0
S1206 S 0.37569 0.98319 0.15487 0.0
N1207 N 0.37835 0.0378 0.17735 0.0
N1208 N 0.37982 0.01012 0.12157 0.0
C1209 C 0.38409 0.06622 0.12779 0.0
C1210 C 0.38358 0.08109 0.15801 0.0
C1211 C 0.90639 0.06332 0.14822 0.0
C1212 C 0.88823 0.10126 0.16742 0.0
C1213 C 0.89646 0.06132 0.11842 0.0
C1214 C 0.8689 0.09856 0.10676 0.0
H1215 H 0.93 0.03755 0.1559 0.0
H1216 H 0.91363 0.03542 0.10393 0.0
S1217 S 0.80913 0.1992 0.14901 0.0
N1218 N 0.8378 0.1707 0.17376 0.0
N1219 N 0.8202 0.1689 0.11752 0.0
C1220 C 0.84812 0.13264 0.12638 0.0
C1221 C 0.85772 0.13382 0.15678 0.0
C1222 C 0.63106 0.85705 0.86165 0.0
C1223 C 0.66613 0.8383 0.85052 0.0
C1224 C 0.62254 0.85074 0.89155 0.0
C1225 C 0.64839 0.8242 0.91088 0.0
H1226 H 0.61164 0.88084 0.8478 0.0
H1227 H 0.59734 0.87158 0.90012 0.0
S1228 S 0.73993 0.75661 0.89069 0.0
N1229 N 0.72391 0.78418 0.8597 0.0
N1230 N 0.70746 0.77143 0.91576 0.0
C1231 C 0.68127 0.7993 0.89912 0.0
C1232 C 0.69034 0.80675 0.86891 0.0
C1233 C 0.07645 0.86211 0.90207 0.0
C1234 C 0.10525 0.87505 0.92234 0.0
C1235 C 0.08522 0.85087 0.87262 0.0
C1236 C 0.1231 0.85145 0.86237 0.0
H1237 H 0.04678 0.86433 0.9085 0.0
H1238 H 0.06192 0.84679 0.85719 0.0
S1239 S 0.20939 0.86928 0.90786 0.0
N1240 N 0.17371 0.87725 0.93111 0.0
N1241 N 0.18975 0.85753 0.87557 0.0
C1242 C 0.15227 0.85864 0.88293 0.0
C1243 C 0.14346 0.87014 0.91297 0.0
C1244 C 0.37538 0.68551 0.62928 0.0
C1245 C 0.38624 0.63945 0.64764 0.0
C1246 C 0.37242 0.67988 0.59875 0.0
C1247 C 0.38023 0.62791 0.58523 0.0
H1248 H 0.36729 0.72602 0.63861 0.0
H1249 H 0.36145 0.71525 0.58603 0.0
S1250 S 0.41761 0.49776 0.62197 0.0
N1251 N 0.41025 0.54274 0.64906 0.0
N1252 N 0.40539 0.53204 0.59176 0.0
C1253 C 0.39471 0.58317 0.60286 0.0
C1254 C 0.39754 0.5889 0.63401 0.0
C1255 C 0.88431 0.57766 0.59347 0.0
C1256 C 0.87588 0.63357 0.58523 0.0
C1257 C 0.89031 0.56391 0.62294 0.0
C1258 C 0.88793 0.60553 0.64512 0.0
H1259 H 0.88926 0.54545 0.577 0.0
H1260 H 0.89892 0.52082 0.62818 0.0
S1261 S 0.85819 0.75541 0.6349 0.0
N1262 N 0.85883 0.7287 0.60152 0.0
N1263 N 0.87074 0.70276 0.6569 0.0
C1264 C 0.87552 0.66011 0.63733 0.0
C1265 C 0.86936 0.67415 0.60732 0.0
C1266 C 0.58291 0.3683 0.35424 0.0
C1267 C 0.60063 0.41416 0.33979 0.0
C1268 C 0.57873 0.36778 0.38477 0.0
C1269 C 0.59125 0.41365 0.40176 0.0
H1270 H 0.57721 0.32937 0.34242 0.0
H1271 H 0.57003 0.32859 0.39534 0.0
S1272 S 0.62947 0.54993 0.37364 0.0
N1273 N 0.6236 0.51084 0.34401 0.0
N1274 N 0.61447 0.51076 0.40145 0.0
C1275 C 0.60298 0.46334 0.38713 0.0
C1276 C 0.60784 0.4635 0.35598 0.0
C1277 C 0.14249 0.42508 0.39047 0.0
C1278 C 0.12982 0.37672 0.40562 0.0
C1279 C 0.14525 0.42513 0.35988 0.0
C1280 C 0.13451 0.37729 0.34346 0.0
H1281 H 0.14652 0.46474 0.40204 0.0
H1282 H 0.15095 0.46512 0.34887 0.0
S1283 S 0.10645 0.23701 0.37317 0.0
N1284 N 0.11272 0.27695 0.40248 0.0
N1285 N 0.11661 0.27784 0.3447 0.0
C1286 C 0.12655 0.32663 0.35851 0.0
C1287 C 0.12436 0.32624 0.38979 0.0
C1288 C 0.86271 0.2077 0.62508 0.0
C1289 C 0.87518 0.17385 0.60169 0.0
C1290 C 0.87293 0.19445 0.65402 0.0
C1291 C 0.89522 0.14624 0.66044 0.0
H1292 H 0.84157 0.24055 0.62133 0.0
H1293 H 0.85953 0.21801 0.67157 0.0
S1294 S 0.94053 0.05046 0.60653 0.0
N1295 N 0.91601 0.09611 0.58637 0.0
N1296 N 0.93387 0.06967 0.64096 0.0
C1297 C 0.91124 0.11598 0.63708 0.0
C1298 C 0.90166 0.13042 0.60757 0.0
C1299 C 0.36479 0.08814 0.61953 0.0
C1300 C 0.37069 0.14198 0.60712 0.0
C1301 C 0.36828 0.08005 0.64991 0.0
C1302 C 0.3782 0.12532 0.66868 0.0
H1303 H 0.36104 0.05136 0.60565 0.0
H1304 H 0.36689 0.03704 0.65841 0.0
S1305 S 0.38819 0.27652 0.64725 0.0
N1306 N 0.37839 0.24324 0.61642 0.0
N1307 N 0.38895 0.22679 0.6728 0.0
C1308 C 0.37983 0.18019 0.65681 0.0
C1309 C 0.37501 0.18876 0.62613 0.0
C1310 C 0.12883 0.88634 0.36946 0.0
C1311 C 0.16315 0.87283 0.35525 0.0
C1312 C 0.12538 0.88049 0.40007 0.0
C1313 C 0.15623 0.86129 0.41731 0.0
H1314 H 0.10446 0.90062 0.35689 0.0
H1315 H 0.09903 0.89365 0.4104 0.0
S1316 S 0.25184 0.81952 0.39036 0.0
N1317 N 0.22822 0.83844 0.36061 0.0
N1318 N 0.22167 0.82778 0.41775 0.0
C1319 C 0.1903 0.84666 0.40315 0.0
C1320 C 0.19381 0.85253 0.37225 0.0
C1321 C 0.62172 0.93696 0.39994 0.0
C1322 C 0.60359 0.88951 0.41227 0.0
C1323 C 0.62722 0.94143 0.36963 0.0
C1324 C 0.61527 0.89827 0.35038 0.0
H1325 H 0.62987 0.97236 0.4136 0.0
H1326 H 0.63945 0.98033 0.36106 0.0
S1327 S 0.57161 0.76129 0.37204 0.0
N1328 N 0.57743 0.79563 0.4032 0.0
N1329 N 0.58805 0.80393 0.34617 0.0
C1330 C 0.59961 0.84875 0.36256 0.0
C1331 C 0.59351 0.84454 0.39352 0.0
C1332 C 0.89636 0.64903 0.09836 0.0
C1333 C 0.89914 0.59254 0.08898 0.0
C1334 C 0.88828 0.66144 0.12771 0.0
C1335 C 0.88275 0.61792 0.14869 0.0
H1336 H 0.89645 0.68355 0.08259 0.0
H1337 H 0.88387 0.70553 0.13356 0.0
S1338 S 0.89639 0.46385 0.1363 0.0
N1339 N 0.90383 0.49332 0.10393 0.0
N1340 N 0.88676 0.5168 0.15874 0.0
C1341 C 0.89013 0.56183 0.14027 0.0
C1342 C 0.89902 0.54919 0.11048 0.0
C1343 C 0.33758 0.60129 0.1382 0.0
C1344 C 0.35328 0.64721 0.15374 0.0
C1345 C 0.33756 0.60062 0.10751 0.0
C1346 C 0.35314 0.6459 0.09148 0.0
H1347 H 0.32926 0.56298 0.14978 0.0
H1348 H 0.32958 0.56174 0.09645 0.0
S1349 S 0.39015 0.78086 0.1216 0.0
N1350 N 0.37855 0.74302 0.15081 0.0
N1351 N 0.37895 0.7414 0.09302 0.0
C1352 C 0.36409 0.69506 0.10665 0.0
C1353 C 0.36392 0.69592 0.13794 0.0
C1354 C 0.11816 0.42701 0.8878 0.0
C1355 C 0.11885 0.38206 0.90843 0.0
C1356 C 0.12043 0.41661 0.85756 0.0
C1357 C 0.12344 0.36082 0.84713 0.0
H1358 H 0.12081 0.47051 0.89521 0.0
H1359 H 0.12457 0.45226 0.84282 0.0
S1360 S 0.11478 0.22884 0.89151 0.0
N1361 N 0.11411 0.28045 0.91592 0.0
N1362 N 0.11776 0.26031 0.85917 0.0
C1363 C 0.1178 0.31583 0.86724 0.0
C1364 C 0.1155 0.32658 0.89798 0.0
C1365 C 0.60246 0.27426 0.88659 0.0
C1366 C 0.62999 0.29886 0.90491 0.0
C1367 C 0.60666 0.27503 0.85607 0.0
C1368 C 0.6382 0.30142 0.84282 0.0
H1369 H 0.57582 0.25921 0.89575 0.0
H1370 H 0.58269 0.26193 0.84276 0.0
S1371 S 0.7216 0.36178 0.88143 0.0
N1372 N 0.69272 0.34146 0.90807 0.0
N1373 N 0.70029 0.34414 0.85049 0.0
C1374 C 0.66823 0.31913 0.86103 0.0
C1375 C 0.66407 0.31795 0.89224 0.0
C1376 C 0.16939 0.09457 0.00244 0.0
C1377 C 0.17195 0.04484 0.98554 0.0
C1378 C 0.20002 0.13288 0.00378 0.0
C1379 C 0.23431 0.12155 0.98877 0.0
H1380 H 0.14653 0.09911 0.01822 0.0
H1381 H 0.19935 0.16536 0.02053 0.0
S1382 S 0.24876 0.00835 0.93368 0.0
N1383 N 0.20595 0.99594 0.94712 0.0
N1384 N 0.26389 0.06669 0.94991 0.0
C1385 C 0.23336 0.07938 0.96697 0.0
C1386 C 0.20194 0.0409 0.96541 0.0
C1387 C 0.07433 0.19283 0.98591 0.0
C1388 C 0.08568 0.23446 0.00628 0.0
C1389 C 0.04276 0.15648 0.99167 0.0
C1390 C 0.02198 0.15983 0.01823 0.0
H1391 H 0.09009 0.18787 0.96569 0.0
H1392 H 0.03472 0.12545 0.97536 0.0
S1393 S 0.03916 0.26539 0.07753 0.0
N1394 N 0.07256 0.27839 0.05312 0.0
N1395 N 0.01457 0.21211 0.06397 0.0
C1396 C 0.03317 0.20231 0.0383 0.0
C1397 C 0.06457 0.23892 0.03233 0.0
C1398 C 0.21343 0.14804 0.26522 0.0
C1399 C 0.24513 0.16909 0.28066 0.0
C1400 C 0.18005 0.18047 0.26191 0.0
C1401 C 0.17686 0.23541 0.27392 0.0
H1402 H 0.21622 0.10956 0.25243 0.0
H1403 H 0.15837 0.16491 0.24709 0.0
S1404 S 0.24539 0.29955 0.32601 0.0
N1405 N 0.26668 0.24056 0.31516 0.0
N1406 N 0.2039 0.30161 0.30895 0.0
C1407 C 0.20535 0.25209 0.29385 0.0
C1408 C 0.23951 0.21878 0.29727 0.0
C1409 C 0.05515 0.12989 0.30304 0.0
C1410 C 0.01943 0.10284 0.30482 0.0
C1411 C 0.08934 0.09878 0.30507 0.0
C1412 C 0.08921 0.03903 0.308 0.0
H1413 H 0.05673 0.17417 0.29656 0.0
H1414 H 0.11564 0.12045 0.29963 0.0
S1415 S 1.00398 0.95167 0.32452 0.0
N1416 N 0.9866 0.01586 0.31834 0.0
N1417 N 0.0507 0.95715 0.32113 0.0
C1418 C 0.05417 0.01354 0.31538 0.0
C1419 C 0.01923 0.04549 0.31379 0.0
C1420 C 0.79271 0.85899 0.03471 0.0
C1421 C 0.75766 0.88632 0.03998 0.0
C1422 C 0.82747 0.88883 0.03549 0.0
C1423 C 0.82891 0.94778 0.04106 0.0
H1424 H 0.79293 0.81572 0.02668 0.0
H1425 H 0.85293 0.86668 0.02857 0.0
S1426 S 0.74589 0.03699 0.06184 0.0
N1427 N 0.72729 0.97372 0.05571 0.0
N1428 N 0.79225 0.02996 0.05677 0.0
C1429 C 0.79464 0.97387 0.0501 0.0
C1430 C 0.75917 0.94313 0.04961 0.0
C1431 C 0.9654 0.85067 0.01828 0.0
C1432 C 1.0013 0.83186 0.02787 0.0
C1433 C 0.93427 0.81344 0.0164 0.0
C1434 C 0.93763 0.75523 0.02354 0.0
H1435 H 0.96209 0.89352 0.00987 0.0
H1436 H 0.90841 0.82924 0.00632 0.0
S1437 S 0.02477 0.68577 0.05279 0.0
N1438 N 0.03766 0.75253 0.04747 0.0
N1439 N 0.97936 0.68209 0.04338 0.0
C1440 C 0.97251 0.73697 0.03571 0.0
C1441 C 1.00433 0.77532 0.03787 0.0
C1442 C 0.80911 0.73229 0.71493 0.0
C1443 C 0.84681 0.75225 0.71726 0.0
C1444 C 0.77803 0.77027 0.71386 0.0
C1445 C 0.78351 0.82961 0.7153 0.0
H1446 H 0.80329 0.6872 0.71614 0.0
H1447 H 0.74954 0.75275 0.71466 0.0
S1448 S 0.87646 0.90291 0.71155 0.0
N1449 N 0.88788 0.83488 0.71383 0.0
N1450 N 0.8295 0.9059 0.7122 0.0
C1451 C 0.82107 0.84971 0.71377 0.0
C1452 C 0.85267 0.81119 0.71481 0.0
C1453 C 0.98819 0.9474 0.72223 0.0
C1454 C 0.95841 0.93818 0.74243 0.0
C1455 C 0.01978 0.9103 0.72081 0.0
C1456 C 0.02237 0.86259 0.73947 0.0
H1457 H 0.98984 0.98753 0.71058 0.0
H1458 H 0.04439 0.92379 0.70831 0.0
S1459 S 0.94702 0.81199 0.79009 0.0
N1460 N 0.93026 0.87267 0.77713 0.0
N1461 N 0.98802 0.80126 0.77323 0.0
C1462 C 0.98948 0.84783 0.75556 0.0
C1463 C 0.95803 0.88636 0.75763 0.0
C1464 C 0.21562 0.55999 0.46585 0.0
C1465 C 0.22245 0.60689 0.48412 0.0
C1466 C 0.18074 0.53061 0.46696 0.0
C1467 C 0.15151 0.54724 0.48639 0.0
H1468 H 0.23879 0.54175 0.45329 0.0
H1469 H 0.17828 0.49145 0.45472 0.0
S1470 S 0.15224 0.67739 0.5324 0.0
N1471 N 0.19503 0.67553 0.51741 0.0
N1472 N 0.12939 0.62164 0.51941 0.0
C1473 C 0.15635 0.59906 0.50148 0.0
C1474 C 0.19186 0.62855 0.50037 0.0
C1475 C 0.02017 0.78448 0.45116 0.0
C1476 C 0.05512 0.75885 0.45887 0.0
C1477 C 0.98686 0.75168 0.44794 0.0
C1478 C 0.9876 0.69237 0.45231 0.0
H1479 H 0.01711 0.83024 0.45247 0.0
H1480 H 0.95976 0.77375 0.44691 0.0
S1481 S 0.07413 0.60428 0.4586 0.0
N1482 N 0.09023 0.67011 0.46062 0.0
N1483 N 0.02757 0.6089 0.45444 0.0
C1484 C 0.02339 0.66617 0.45354 0.0
C1485 C 0.05724 0.69936 0.45692 0.0
C1486 C 0.28101 0.71316 0.79885 0.0
C1487 C 0.28051 0.65578 0.79009 0.0
C1488 C 0.24701 0.74232 0.80556 0.0
C1489 C 0.21139 0.71529 0.803 0.0
H1490 H 0.30693 0.73771 0.79654 0.0
H1491 H 0.2483 0.78809 0.80778 0.0
S1492 S 0.1976 0.56022 0.79503 0.0
N1493 N 0.24358 0.56928 0.78909 0.0
N1494 N 0.17975 0.6238 0.80205 0.0
C1495 C 0.21184 0.65566 0.8006 0.0
C1496 C 0.24637 0.62603 0.79363 0.0
C1497 C 0.0652 0.49812 0.78966 0.0
C1498 C 0.0982 0.52089 0.77645 0.0
C1499 C 0.02968 0.52593 0.78719 0.0
C1500 C 0.02614 0.57738 0.77155 0.0
H1501 H 0.06569 0.45555 0.79876 0.0
H1502 H 1.00434 0.50326 0.79404 0.0
S1503 S 0.10488 0.66275 0.74062 0.0
N1504 N 0.12574 0.60442 0.75291 0.0
N1505 N 0.05933 0.65594 0.74882 0.0
C1506 C 0.05965 0.60478 0.76274 0.0
C1507 C 0.09565 0.57667 0.76501 0.0
C1508 C 0.77165 0.42311 0.51456 0.0
C1509 C 0.73348 0.43861 0.52058 0.0
C1510 C 0.80059 0.46424 0.51132 0.0
C1511 C 0.79261 0.52251 0.51393 0.0
H1512 H 0.77867 0.37915 0.51007 0.0
H1513 H 0.82864 0.45067 0.5044 0.0
S1514 S 0.69938 0.58645 0.533 0.0
N1515 N 0.69093 0.51749 0.5321 0.0
N1516 N 0.74511 0.59366 0.52546 0.0
C1517 C 0.75558 0.53844 0.52215 0.0
C1518 C 0.72616 0.49682 0.52581 0.0
C1519 C 0.94046 0.39999 0.51391 0.0
C1520 C 0.97386 0.37674 0.52628 0.0
C1521 C 0.90558 0.37105 0.5151 0.0
C1522 C 0.90218 0.31755 0.52886 0.0
H1523 H 0.94183 0.43827 0.5007 0.0
H1524 H 0.88207 0.38819 0.50251 0.0
S1525 S 0.97713 0.24943 0.57452 0.0
N1526 N 0.99863 0.30494 0.55974 0.0
N1527 N 0.93294 0.25065 0.56208 0.0
C1528 C 0.93368 0.29853 0.54543 0.0
C1529 C 0.96952 0.32807 0.54411 0.0
C1530 C 0.79306 0.34696 0.23647 0.0
C1531 C 0.7858 0.38797 0.25826 0.0
C1532 C 0.8248 0.31014 0.23844 0.0
C1533 C 0.85023 0.31297 0.2623 0.0
H1534 H 0.77171 0.33825 0.21996 0.0
H1535 H 0.82648 0.27481 0.22334 0.0
S1536 S 0.85035 0.42361 0.31979 0.0
N1537 N 0.81187 0.43771 0.3002 0.0
N1538 N 0.87054 0.36785 0.30429 0.0
C1539 C 0.84629 0.35901 0.28157 0.0
C1540 C 0.81444 0.39686 0.27935 0.0
C1541 C 0.91847 0.41795 0.22859 0.0
C1542 C 0.92198 0.47413 0.21829 0.0
C1543 C 0.95014 0.38137 0.2301 0.0
C1544 C 0.98639 0.3995 0.22081 0.0
H1545 H 0.89251 0.40523 0.23941 0.0
H1546 H 0.94732 0.34202 0.24231 0.0
S1547 S 0.0081 0.53654 0.18408 0.0
N1548 N 0.96259 0.54156 0.1929 0.0
N1549 N 0.02167 0.47234 0.19449 0.0
C1550 C 0.98845 0.4514 0.20534 0.0
C1551 C 0.9563 0.48905 0.20439 0.0
C1552 C 0.67159 0.14114 0.50649 0.0
C1553 C 0.70689 0.13095 0.49292 0.0
C1554 C 0.64106 0.10316 0.50354 0.0
C1555 C 0.64382 0.05333 0.48656 0.0
H1556 H 0.66882 0.17545 0.52212 0.0
H1557 H 0.61656 0.10988 0.51742 0.0
S1558 S 0.72811 0.01219 0.4421 0.0
N1559 N 0.74134 0.07135 0.4585 0.0
N1560 N 0.68378 1.0005 0.45263 0.0
C1561 C 0.67758 0.04606 0.47015 0.0
C1562 C 0.70898 0.08487 0.47328 0.0
C1563 C 0.52984 0.13934 0.49735 0.0
C1564 C 0.49583 0.13927 0.48063 0.0
C1565 C 0.55797 0.18125 0.49328 0.0
C1566 C 0.55431 0.22324 0.4716 0.0
H1567 H 0.53242 0.11207 0.51642 0.0
H1568 H 0.57934 0.18638 0.51014 0.0
S1569 S 0.47825 0.23017 0.41543 0.0
N1570 N 0.46555 0.17658 0.43673 0.0
N1571 N 0.51894 0.25383 0.42879 0.0
C1572 C 0.52428 0.21706 0.45143 0.0
C1573 C 0.49505 0.17524 0.4559 0.0
C1574 C 0.74739 0.22288 0.79754 0.0
C1575 C 0.71778 0.21793 0.77682 0.0
C1576 C 0.77528 0.17974 0.80096 0.0
C1577 C 0.77436 0.12955 0.78405 0.0
H1578 H 0.75164 0.26293 0.80866 0.0
H1579 H 0.79956 0.18821 0.81492 0.0
S1580 S 0.70043 0.09374 0.72933 0.0
N1581 N 0.6878 0.15724 0.74106 0.0
N1582 N 0.73781 0.07516 0.74881 0.0
C1583 C 0.74208 0.12153 0.7661 0.0
C1584 C 0.71449 0.16592 0.7621 0.0
C1585 C 0.59278 0.05521 0.77508 0.0
C1586 C 0.61253 0.04651 0.74862 0.0
C1587 C 0.56247 0.09459 0.77671 0.0
C1588 C 0.55152 0.12716 0.75205 0.0
H1589 H 0.59725 0.0264 0.79333 0.0
H1590 H 0.54481 0.0942 0.79616 0.0
S1591 S 0.60153 0.13168 0.68055 0.0
N1592 N 0.6228 0.08009 0.6989 0.0
N1593 N 0.56977 0.15865 0.70325 0.0
C1594 C 0.5758 0.12605 0.72749 0.0
C1595 C 0.60503 0.08408 0.72528 0.0
C1596 C 0.22882 1.00173 0.57407 0.0
C1597 C 0.22428 0.94917 0.55973 0.0
C1598 C 0.26441 0.02958 0.57464 0.0
C1599 C 0.29633 0.00626 0.56029 0.0
H1600 H 0.20378 0.02587 0.58027 0.0
H1601 H 0.26486 0.07386 0.58107 0.0
S1602 S 0.3026 0.86018 0.53091 0.0
N1603 N 0.25724 0.86761 0.53979 0.0
N1604 N 0.3237 0.91989 0.54066 0.0
C1605 C 0.29391 0.94845 0.55266 0.0
C1606 C 0.25777 0.92001 0.55214 0.0
C1607 C 0.44306 0.76951 0.5289 0.0
C1608 C 0.41079 0.79329 0.51496 0.0
C1609 C 0.47906 0.79616 0.52747 0.0
C1610 C 0.484 0.84778 0.51226 0.0
H1611 H 0.44117 0.72812 0.53916 0.0
H1612 H 0.50356 0.77438 0.53663 0.0
S1613 S 0.4079 0.93466 0.47808 0.0
N1614 N 0.38568 0.87738 0.49012 0.0
N1615 N 0.4531 0.92593 0.48708 0.0
C1616 C 0.45157 0.87471 0.50089 0.0
C1617 C 0.41498 0.84816 0.50258 0.0
C1618 C 0.3334 0.87331 0.21981 0.0
C1619 C 0.33261 0.81557 0.21162 0.0
C1620 C 0.29975 0.90571 0.22169 0.0
C1621 C 0.26408 0.88174 0.21508 0.0
H1622 H 0.35908 0.89099 0.22901 0.0
H1623 H 0.30104 0.94636 0.23271 0.0
S1624 S 0.24908 0.74105 0.18071 0.0
N1625 N 0.29512 0.74242 0.18795 0.0
N1626 N 0.23199 0.80302 0.19143 0.0
C1627 C 0.26433 0.82875 0.20078 0.0
C1628 C 0.29865 0.79558 0.19904 0.0
C1629 C 0.46078 0.90299 0.24293 0.0
C1630 C 0.49376 0.92208 0.22839 0.0
C1631 C 0.42893 0.93856 0.24623 0.0
C1632 C 0.42833 0.99387 0.23437 0.0
H1633 H 0.46185 0.86417 0.25575 0.0
H1634 H 0.40682 0.92541 0.26134 0.0
S1635 S 0.50322 0.05742 0.18734 0.0
N1636 N 0.52064 0.99468 0.19672 0.0
N1637 N 0.4605 0.06113 0.20239 0.0
C1638 C 0.45833 0.00931 0.21548 0.0
C1639 C 0.49104 0.97316 0.21239 0.0
C1640 C 0.7068 0.51003 0.96899 0.0
C1641 C 0.67928 0.51296 0.99142 0.0
C1642 C 0.73784 0.54808 0.96809 0.0
C1643 C 0.74238 0.5903 0.98967 0.0
H1644 H 0.70746 0.47345 0.95465 0.0
H1645 H 0.76087 0.5391 0.95299 0.0
S1646 S 0.67188 0.6263 0.04722 0.0
N1647 N 0.65409 0.56923 0.03134 0.0
N1648 N 0.71163 0.64111 0.0294 0.0
C1649 C 0.71157 0.59945 0.00887 0.0
C1650 C 0.68025 0.56057 0.00988 0.0
C1651 C 0.53852 0.60538 0.9746 0.0
C1652 C 0.50394 0.63366 0.96838 0.0
C1653 C 0.57333 0.63486 0.97586 0.0
C1654 C 0.57513 0.69383 0.97074 0.0
H1655 H 0.53807 0.56161 0.98205 0.0
H1656 H 0.598 0.61279 0.98459 0.0
S1657 S 0.49477 0.78482 0.94608 0.0
N1658 N 0.4752 0.72188 0.95148 0.0
N1659 N 0.54064 0.7767 0.95304 0.0
C1660 C 0.54201 0.72043 0.95974 0.0
C1661 C 0.50633 0.69053 0.95883 0.0
C1662 C 0.67567 0.69771 0.263 0.0
C1663 C 0.68019 0.74893 0.27831 0.0
C1664 C 0.70567 0.65858 0.26026 0.0
C1665 C 0.74185 0.66979 0.27225 0.0
H1666 H 0.65031 0.69121 0.25002 0.0
H1667 H 0.70193 0.62317 0.24544 0.0
S1668 S 0.76547 0.79125 0.32056 0.0
N1669 N 0.72103 0.80361 0.31035 0.0
N1670 N 0.77783 0.73045 0.30522 0.0
C1671 C 0.74496 0.71672 0.29126 0.0
C1672 C 0.7141 0.75654 0.29411 0.0
C1673 C 0.58362 0.61511 0.24523 0.0
C1674 C 0.58662 0.5651 0.26236 0.0
C1675 C 0.5494 0.64593 0.24302 0.0
C1676 C 0.51648 0.62891 0.25816 0.0
H1677 H 0.60671 0.62747 0.23087 0.0
H1678 H 0.54775 0.68029 0.2272 0.0
S1679 S 0.50997 0.50717 0.30987 0.0
N1680 N 0.55423 0.50455 0.29767 0.0
N1681 N 0.49028 0.56316 0.294 0.0
C1682 C 0.52008 0.58308 0.278 0.0
C1683 C 0.55499 0.55104 0.27999 0.0
C1684 C 0.32583 0.42452 0.03702 0.0
C1685 C 0.35116 0.41867 0.01326 0.0
C1686 C 0.29166 0.39311 0.038 0.0
C1687 C 0.28188 0.35619 0.01496 0.0
H1688 H 0.32892 0.45979 0.05202 0.0
H1689 H 0.26996 0.40632 0.05346 0.0
S1690 S 0.34579 0.30875 0.95554 0.0
N1691 N 0.36997 0.35915 0.97237 0.0
N1692 N 0.30578 0.3013 0.97419 0.0
C1693 C 0.31121 0.33988 0.99585 0.0
C1694 C 0.3459 0.37148 0.9948 0.0
C1695 C 0.46865 0.34239 0.03392 0.0
C1696 C 0.50461 0.31684 0.03821 0.0
C1697 C 0.43497 0.31008 0.03381 0.0
C1698 C 0.43552 0.25076 0.03798 0.0
H1699 H 0.46678 0.38679 0.02772 0.0
H1700 H 0.40871 0.33096 0.02763 0.0
S1701 S 0.52086 0.16491 0.05706 0.0
N1702 N 0.53759 0.22986 0.05241 0.0
N1703 N 0.47438 0.16945 0.05181 0.0
C1704 C 0.47047 0.22594 0.04633 0.0
C1705 C 0.50496 0.25893 0.04655 0.0
C1706 C 0.35778 0.33944 0.75438 0.0
C1707 C 0.35867 0.28548 0.74088 0.0
C1708 C 0.32422 0.37211 0.75525 0.0
C1709 C 0.2907 0.3534 0.74156 0.0
H1710 H 0.38182 0.3537 0.76728 0.0
H1711 H 0.3234 0.40905 0.76934 0.0
S1712 S 0.28075 0.22431 0.69604 0.0
N1713 N 0.32433 0.22007 0.70939 0.0
N1714 N 0.26294 0.28454 0.70844 0.0
C1715 C 0.29317 0.30483 0.72376 0.0
C1716 C 0.32672 0.26998 0.72406 0.0
C1717 C 0.49722 0.38913 0.71533 0.0
C1718 C 0.53191 0.41811 0.71123 0.0
C1719 C 0.46187 0.41693 0.71209 0.0
C1720 C 0.45956 0.47555 0.70533 0.0
H1721 H 0.49741 0.347 0.725 0.0
H1722 H 0.43654 0.3943 0.71902 0.0
S1723 S 0.54107 0.56349 0.68053 0.0
N1724 N 0.56101 0.50314 0.69114 0.0
N1725 N 0.49474 0.5559 0.68565 0.0
C1726 C 0.4935 0.50162 0.69574 0.0
C1727 C 0.52962 0.4728 0.69865 0.0
loop_
_geom_bond_atom_site_label_1
_geom_bond_atom_site_label_2
_geom_bond_distance
_geom_bond_site_symmetry_2
_ccdc_geom_bond_type
Zn0 O6 1.920 1_545 S
Zn0 O12 1.898 . S
Zn0 O15 1.905 . S
Zn1 O9 1.905 . S
Zn1 O10 1.898 . S
Zn1 O18 1.920 . S
Zn2 O5 2.080 . S
Zn2 O8 2.112 1_554 S
Zn2 O11 2.120 1_554 S
Zn2 O13 2.120 . S
Zn2 O14 2.114 . S
Zn2 O17 2.080 . S
C3 O8 1.168 . S
C3 O9 1.182 . S
C4 O10 1.167 . S
C4 O11 1.299 . S
O5 Zn2 2.080 . S
O5 C19 1.305 1_545 S
O6 Zn0 1.920 1_565 S
O6 C19 1.234 . S
C7 O12 1.167 . S
C7 O13 1.299 . S
O8 Zn2 2.112 1_556 S
O8 C3 1.168 . S
O9 Zn1 1.905 . S
O9 C3 1.182 . S
O10 Zn1 1.898 . S
O10 C4 1.167 . S
O11 Zn2 2.120 1_556 S
O11 C4 1.299 . S
O12 Zn0 1.898 . S
O12 C7 1.167 . S
O13 Zn2 2.120 . S
O13 C7 1.299 . S
O14 Zn2 2.114 . S
O14 C16 1.166 . S
O15 Zn0 1.905 . S
O15 C16 1.182 . S
C16 O14 1.166 . S
C16 O15 1.182 . S
O17 Zn2 2.080 . S
O17 C20 1.305 1_554 S
O18 Zn1 1.920 . S
O18 C20 1.234 . S
C19 O5 1.305 1_565 S
C19 O6 1.234 . S
C20 O17 1.305 1_556 S
C20 O18 1.234 . S
Zn21 O27 1.920 . S
Zn21 O33 1.898 . S
Zn21 O36 1.905 . S
Zn22 O30 1.905 . S
Zn22 O31 1.898 . S
Zn22 O39 1.920 . S
Zn23 O26 2.080 . S
Zn23 O29 2.114 . S
Zn23 O32 2.120 . S
Zn23 O34 2.120 1_554 S
Zn23 O35 2.112 1_554 S
Zn23 O38 2.080 . S
C24 O29 1.166 . S
C24 O30 1.182 . S
C25 O31 1.167 . S
C25 O32 1.299 . S
O26 Zn23 2.080 . S
O26 C40 1.305 1_554 S
O27 Zn21 1.920 . S
O27 C40 1.234 . S
C28 O33 1.167 . S
C28 O34 1.299 . S
O29 Zn23 2.114 . S
O29 C24 1.166 . S
O30 Zn22 1.905 . S
O30 C24 1.182 . S
O31 Zn22 1.898 . S
O31 C25 1.167 . S
O32 Zn23 2.120 . S
O32 C25 1.299 . S
O33 Zn21 1.898 . S
O33 C28 1.167 . S
O34 Zn23 2.120 1_556 S
O34 C28 1.299 . S
O35 Zn23 2.112 1_556 S
O35 C37 1.168 . S
O36 Zn21 1.905 . S
O36 C37 1.182 . S
C37 O35 1.168 . S
C37 O36 1.182 . S
O38 Zn23 2.080 . S
O38 C41 1.305 . S
O39 Zn22 1.920 . S
O39 C41 1.234 . S
C40 O26 1.305 1_556 S
C40 O27 1.234 . S
C41 O38 1.305 . S
C41 O39 1.234 . S
Zn42 O48 1.920 . S
Zn42 O54 1.898 . S
Zn42 O57 1.905 . S
Zn43 O51 1.905 . S
Zn43 O52 1.898 . S
Zn43 O60 1.920 . S
Zn44 O47 2.080 . S
Zn44 O50 2.114 . S
Zn44 O53 2.120 . S
Zn44 O55 2.120 . S
Zn44 O56 2.114 . S
Zn44 O59 2.080 . S
C45 O50 1.166 . S
C45 O51 1.182 . S
C46 O52 1.167 . S
C46 O53 1.299 . S
O47 Zn44 2.080 . S
O47 C61 1.305 . S
O48 Zn42 1.920 . S
O48 C61 1.234 . S
C49 O54 1.167 . S
C49 O55 1.299 . S
O50 Zn44 2.114 . S
O50 C45 1.166 . S
O51 Zn43 1.905 . S
O51 C45 1.182 . S
O52 Zn43 1.898 . S
O52 C46 1.167 . S
O53 Zn44 2.120 . S
O53 C46 1.299 . S
O54 Zn42 1.898 . S
O54 C49 1.167 . S
O55 Zn44 2.120 . S
O55 C49 1.299 . S
O56 Zn44 2.114 . S
O56 C58 1.166 . S
O57 Zn42 1.905 . S
O57 C58 1.182 . S
C58 O56 1.166 . S
C58 O57 1.182 . S
O59 Zn44 2.080 . S
O59 C62 1.305 . S
O60 Zn43 1.920 . S
O60 C62 1.234 . S
C61 O47 1.305 . S
C61 O48 1.234 . S
C62 O59 1.305 . S
C62 O60 1.234 . S
Zn63 O69 1.920 1_545 S
Zn63 O75 1.898 . S
Zn63 O78 1.905 . S
Zn64 O72 1.905 . S
Zn64 O73 1.898 . S
Zn64 O81 1.920 . S
Zn65 O68 2.080 . S
Zn65 O71 2.114 . S
Zn65 O74 2.120 . S
Zn65 O76 2.120 . S
Zn65 O77 2.114 . S
Zn65 O80 2.080 . S
C66 O71 1.166 . S
C66 O72 1.182 . S
C67 O73 1.167 . S
C67 O74 1.299 . S
O68 Zn65 2.080 . S
O68 C82 1.305 1_545 S
O69 Zn63 1.920 1_565 S
O69 C82 1.234 . S
C70 O75 1.167 . S
C70 O76 1.299 . S
O71 Zn65 2.114 . S
O71 C66 1.166 . S
O72 Zn64 1.905 . S
O72 C66 1.182 . S
O73 Zn64 1.898 . S
O73 C67 1.167 . S
O74 Zn65 2.120 . S
O74 C67 1.299 . S
O75 Zn63 1.898 . S
O75 C70 1.167 . S
O76 Zn65 2.120 . S
O76 C70 1.299 . S
O77 Zn65 2.114 . S
O77 C79 1.166 . S
O78 Zn63 1.905 . S
O78 C79 1.182 . S
C79 O77 1.166 . S
C79 O78 1.182 . S
O80 Zn65 2.080 . S
O80 C83 1.305 . S
O81 Zn64 1.920 . S
O81 C83 1.234 . S
C82 O68 1.305 1_565 S
C82 O69 1.234 . S
C83 O80 1.305 . S
C83 O81 1.234 . S
Zn84 O90 1.920 . S
Zn84 O96 1.898 . S
Zn84 O99 1.905 . S
Zn85 O93 1.905 . S
Zn85 O94 1.898 . S
Zn85 O102 1.920 1_565 S
Zn86 O89 2.080 . S
Zn86 O92 2.114 . S
Zn86 O95 2.120 . S
Zn86 O97 2.120 1_556 S
Zn86 O98 2.112 1_556 S
Zn86 O101 2.080 . S
C87 O92 1.166 . S
C87 O93 1.182 . S
C88 O94 1.167 . S
C88 O95 1.299 . S
O89 Zn86 2.080 . S
O89 C103 1.305 1_556 S
O90 Zn84 1.920 . S
O90 C103 1.234 . S
C91 O96 1.167 . S
C91 O97 1.299 . S
O92 Zn86 2.114 . S
O92 C87 1.166 . S
O93 Zn85 1.905 . S
O93 C87 1.182 . S
O94 Zn85 1.898 . S
O94 C88 1.167 . S
O95 Zn86 2.120 . S
O95 C88 1.299 . S
O96 Zn84 1.898 . S
O96 C91 1.167 . S
O97 Zn86 2.120 1_554 S
O97 C91 1.299 . S
O98 Zn86 2.112 1_554 S
O98 C100 1.168 . S
O99 Zn84 1.905 . S
O99 C100 1.182 . S
C100 O98 1.168 . S
C100 O99 1.182 . S
O101 Zn86 2.080 . S
O101 C104 1.305 1_565 S
O102 Zn85 1.920 1_545 S
O102 C104 1.234 . S
C103 O89 1.305 1_554 S
C103 O90 1.234 . S
C104 O101 1.305 1_545 S
C104 O102 1.234 . S
Zn105 O111 1.920 . S
Zn105 O117 1.898 . S
Zn105 O120 1.905 . S
Zn106 O114 1.905 . S
Zn106 O115 1.898 . S
Zn106 O123 1.920 . S
Zn107 O110 2.080 . S
Zn107 O113 2.114 . S
Zn107 O116 2.120 . S
Zn107 O118 2.120 1_556 S
Zn107 O119 2.112 1_556 S
Zn107 O122 2.080 . S
C108 O113 1.166 . S
C108 O114 1.182 . S
C109 O115 1.167 . S
C109 O116 1.299 . S
O110 Zn107 2.080 . S
O110 C124 1.305 1_556 S
O111 Zn105 1.920 . S
O111 C124 1.234 . S
C112 O117 1.167 . S
C112 O118 1.299 . S
O113 Zn107 2.114 . S
O113 C108 1.166 . S
O114 Zn106 1.905 . S
O114 C108 1.182 . S
O115 Zn106 1.898 . S
O115 C109 1.167 . S
O116 Zn107 2.120 . S
O116 C109 1.299 . S
O117 Zn105 1.898 . S
O117 C112 1.167 . S
O118 Zn107 2.120 1_554 S
O118 C112 1.299 . S
O119 Zn107 2.112 1_554 S
O119 C121 1.168 . S
O120 Zn105 1.905 . S
O120 C121 1.182 . S
C121 O119 1.168 . S
C121 O120 1.182 . S
O122 Zn107 2.080 . S
O122 C125 1.305 . S
O123 Zn106 1.920 . S
O123 C125 1.234 . S
C124 O110 1.305 1_554 S
C124 O111 1.234 . S
C125 O122 1.305 . S
C125 O123 1.234 . S
Zn126 O132 1.920 . S
Zn126 O138 1.898 . S
Zn126 O141 1.905 . S
Zn127 O135 1.905 . S
Zn127 O136 1.898 . S
Zn127 O144 1.920 . S
Zn128 O131 2.080 . S
Zn128 O134 2.114 . S
Zn128 O137 2.120 . S
Zn128 O139 2.120 . S
Zn128 O140 2.114 . S
Zn128 O143 2.080 . S
C129 O134 1.166 . S
C129 O135 1.182 . S
C130 O136 1.167 . S
C130 O137 1.299 . S
O131 Zn128 2.080 . S
O131 C145 1.305 . S
O132 Zn126 1.920 . S
O132 C145 1.234 . S
C133 O138 1.167 . S
C133 O139 1.299 . S
O134 Zn128 2.114 . S
O134 C129 1.166 . S
O135 Zn127 1.905 . S
O135 C129 1.182 . S
O136 Zn127 1.898 . S
O136 C130 1.167 . S
O137 Zn128 2.120 . S
O137 C130 1.299 . S
O138 Zn126 1.898 . S
O138 C133 1.167 . S
O139 Zn128 2.120 . S
O139 C133 1.299 . S
O140 Zn128 2.114 . S
O140 C142 1.166 . S
O141 Zn126 1.905 . S
O141 C142 1.182 . S
C142 O140 1.166 . S
C142 O141 1.182 . S
O143 Zn128 2.080 . S
O143 C146 1.305 . S
O144 Zn127 1.920 . S
O144 C146 1.234 . S
C145 O131 1.305 . S
C145 O132 1.234 . S
C146 O143 1.305 . S
C146 O144 1.234 . S
Zn147 O153 1.920 . S
Zn147 O159 1.898 . S
Zn147 O162 1.905 . S
Zn148 O156 1.905 . S
Zn148 O157 1.898 . S
Zn148 O165 1.920 1_565 S
Zn149 O152 2.080 . S
Zn149 O155 2.114 . S
Zn149 O158 2.120 . S
Zn149 O160 2.120 . S
Zn149 O161 2.114 . S
Zn149 O164 2.080 . S
C150 O155 1.166 . S
C150 O156 1.182 . S
C151 O157 1.167 . S
C151 O158 1.299 . S
O152 Zn149 2.080 . S
O152 C166 1.305 . S
O153 Zn147 1.920 . S
O153 C166 1.234 . S
C154 O159 1.167 . S
C154 O160 1.299 . S
O155 Zn149 2.114 . S
O155 C150 1.166 . S
O156 Zn148 1.905 . S
O156 C150 1.182 . S
O157 Zn148 1.898 . S
O157 C151 1.167 . S
O158 Zn149 2.120 . S
O158 C151 1.299 . S
O159 Zn147 1.898 . S
O159 C154 1.167 . S
O160 Zn149 2.120 . S
O160 C154 1.299 . S
O161 Zn149 2.114 . S
O161 C163 1.166 . S
O162 Zn147 1.905 . S
O162 C163 1.182 . S
C163 O161 1.166 . S
C163 O162 1.182 . S
O164 Zn149 2.080 . S
O164 C167 1.305 1_565 S
O165 Zn148 1.920 1_545 S
O165 C167 1.234 . S
C166 O152 1.305 . S
C166 O153 1.234 . S
C167 O164 1.305 1_545 S
C167 O165 1.234 . S
Zn168 O174 1.920 . S
Zn168 O180 1.898 . S
Zn168 O183 1.905 . S
Zn169 O177 1.905 . S
Zn169 O178 1.898 . S
Zn169 O186 1.920 . S
Zn170 O173 2.080 . S
Zn170 O176 2.114 . S
Zn170 O179 2.120 . S
Zn170 O181 2.120 . S
Zn170 O182 2.114 . S
Zn170 O185 2.080 . S
C171 O176 1.166 . S
C171 O177 1.182 . S
C172 O178 1.167 . S
C172 O179 1.299 . S
O173 Zn170 2.080 . S
O173 C187 1.305 . S
O174 Zn168 1.920 . S
O174 C187 1.234 . S
C175 O180 1.167 . S
C175 O181 1.299 . S
O176 Zn170 2.114 . S
O176 C171 1.166 . S
O177 Zn169 1.905 . S
O177 C171 1.182 . S
O178 Zn169 1.898 . S
O178 C172 1.167 . S
O179 Zn170 2.120 . S
O179 C172 1.299 . S
O180 Zn168 1.898 . S
O180 C175 1.167 . S
O181 Zn170 2.120 . S
O181 C175 1.299 . S
O182 Zn170 2.114 . S
O182 C184 1.166 . S
O183 Zn168 1.905 . S
O183 C184 1.182 . S
C184 O182 1.166 . S
C184 O183 1.182 . S
O185 Zn170 2.080 . S
O185 C188 1.305 . S
O186 Zn169 1.920 . S
O186 C188 1.234 . S
C187 O173 1.305 . S
C187 O174 1.234 . S
C188 O185 1.305 . S
C188 O186 1.234 . S
Zn189 O195 1.920 . S
Zn189 O201 1.898 . S
Zn189 O204 1.905 . S
Zn190 O198 1.905 . S
Zn190 O199 1.898 . S
Zn190 O207 1.920 . S
Zn191 O194 2.080 . S
Zn191 O197 2.114 . S
Zn191 O200 2.120 . S
Zn191 O202 2.120 . S
Zn191 O203 2.114 . S
Zn191 O206 2.080 . S
C192 O197 1.166 . S
C192 O198 1.182 . S
C193 O199 1.167 . S
C193 O200 1.299 . S
O194 Zn191 2.080 . S
O194 C208 1.305 . S
O195 Zn189 1.920 . S
O195 C208 1.234 . S
C196 O201 1.167 . S
C196 O202 1.299 . S
O197 Zn191 2.114 . S
O197 C192 1.166 . S
O198 Zn190 1.905 . S
O198 C192 1.182 . S
O199 Zn190 1.898 . S
O199 C193 1.167 . S
O200 Zn191 2.120 . S
O200 C193 1.299 . S
O201 Zn189 1.898 . S
O201 C196 1.167 . S
O202 Zn191 2.120 . S
O202 C196 1.299 . S
O203 Zn191 2.114 . S
O203 C205 1.166 . S
O204 Zn189 1.905 . S
O204 C205 1.182 . S
C205 O203 1.166 . S
C205 O204 1.182 . S
O206 Zn191 2.080 . S
O206 C209 1.305 . S
O207 Zn190 1.920 . S
O207 C209 1.234 . S
C208 O194 1.305 . S
C208 O195 1.234 . S
C209 O206 1.305 . S
C209 O207 1.234 . S
Zn210 O216 1.920 . S
Zn210 O222 1.898 . S
Zn210 O225 1.905 . S
Zn211 O219 1.905 . S
Zn211 O220 1.898 . S
Zn211 O228 1.920 . S
Zn212 O215 2.080 . S
Zn212 O218 2.114 . S
Zn212 O221 2.120 . S
Zn212 O223 2.120 . S
Zn212 O224 2.114 . S
Zn212 O227 2.080 . S
C213 O218 1.166 . S
C213 O219 1.182 . S
C214 O220 1.167 . S
C214 O221 1.299 . S
O215 Zn212 2.080 . S
O215 C229 1.305 . S
O216 Zn210 1.920 . S
O216 C229 1.234 . S
C217 O222 1.167 . S
C217 O223 1.299 . S
O218 Zn212 2.114 . S
O218 C213 1.166 . S
O219 Zn211 1.905 . S
O219 C213 1.182 . S
O220 Zn211 1.898 . S
O220 C214 1.167 . S
O221 Zn212 2.120 . S
O221 C214 1.299 . S
O222 Zn210 1.898 . S
O222 C217 1.167 . S
O223 Zn212 2.120 . S
O223 C217 1.299 . S
O224 Zn212 2.114 . S
O224 C226 1.166 . S
O225 Zn210 1.905 . S
O225 C226 1.182 . S
C226 O224 1.166 . S
C226 O225 1.182 . S
O227 Zn212 2.080 . S
O227 C230 1.305 . S
O228 Zn211 1.920 . S
O228 C230 1.234 . S
C229 O215 1.305 . S
C229 O216 1.234 . S
C230 O227 1.305 . S
C230 O228 1.234 . S
Zn231 O237 1.920 . S
Zn231 O243 1.898 . S
Zn231 O246 1.905 . S
Zn232 O240 1.905 . S
Zn232 O241 1.898 . S
Zn232 O249 1.920 . S
Zn233 O236 2.080 . S
Zn233 O239 2.114 . S
Zn233 O242 2.120 . S
Zn233 O244 2.120 . S
Zn233 O245 2.114 . S
Zn233 O248 2.080 . S
C234 O239 1.166 . S
C234 O240 1.182 . S
C235 O241 1.167 . S
C235 O242 1.299 . S
O236 Zn233 2.080 . S
O236 C250 1.305 . S
O237 Zn231 1.920 . S
O237 C250 1.234 . S
C238 O243 1.167 . S
C238 O244 1.299 . S
O239 Zn233 2.114 . S
O239 C234 1.166 . S
O240 Zn232 1.905 . S
O240 C234 1.182 . S
O241 Zn232 1.898 . S
O241 C235 1.167 . S
O242 Zn233 2.120 . S
O242 C235 1.299 . S
O243 Zn231 1.898 . S
O243 C238 1.167 . S
O244 Zn233 2.120 . S
O244 C238 1.299 . S
O245 Zn233 2.114 . S
O245 C247 1.166 . S
O246 Zn231 1.905 . S
O246 C247 1.182 . S
C247 O245 1.166 . S
C247 O246 1.182 . S
O248 Zn233 2.080 . S
O248 C251 1.305 . S
O249 Zn232 1.920 . S
O249 C251 1.234 . S
C250 O236 1.305 . S
C250 O237 1.234 . S
C251 O248 1.305 . S
C251 O249 1.234 . S
Zn252 O258 1.920 . S
Zn252 O264 1.898 . S
Zn252 O267 1.905 . S
Zn253 O261 1.905 . S
Zn253 O262 1.898 . S
Zn253 O270 1.920 . S
Zn254 O257 2.080 . S
Zn254 O260 2.114 . S
Zn254 O263 2.120 . S
Zn254 O265 2.120 . S
Zn254 O266 2.114 . S
Zn254 O269 2.080 . S
C255 O260 1.166 . S
C255 O261 1.182 . S
C256 O262 1.167 . S
C256 O263 1.299 . S
O257 Zn254 2.080 . S
O257 C271 1.305 . S
O258 Zn252 1.920 . S
O258 C271 1.234 . S
C259 O264 1.167 . S
C259 O265 1.299 . S
O260 Zn254 2.114 . S
O260 C255 1.166 . S
O261 Zn253 1.905 . S
O261 C255 1.182 . S
O262 Zn253 1.898 . S
O262 C256 1.167 . S
O263 Zn254 2.120 . S
O263 C256 1.299 . S
O264 Zn252 1.898 . S
O264 C259 1.167 . S
O265 Zn254 2.120 . S
O265 C259 1.299 . S
O266 Zn254 2.114 . S
O266 C268 1.166 . S
O267 Zn252 1.905 . S
O267 C268 1.182 . S
C268 O266 1.166 . S
C268 O267 1.182 . S
O269 Zn254 2.080 . S
O269 C272 1.305 . S
O270 Zn253 1.920 . S
O270 C272 1.234 . S
C271 O257 1.305 . S
C271 O258 1.234 . S
C272 O269 1.305 . S
C272 O270 1.234 . S
Zn273 O279 1.920 . S
Zn273 O285 1.898 . S
Zn273 O288 1.905 . S
Zn274 O282 1.905 . S
Zn274 O283 1.898 . S
Zn274 O291 1.920 . S
Zn275 O278 2.080 . S
Zn275 O281 2.114 . S
Zn275 O284 2.120 . S
Zn275 O286 2.120 . S
Zn275 O287 2.114 . S
Zn275 O290 2.080 . S
C276 O281 1.166 . S
C276 O282 1.182 . S
C277 O283 1.167 . S
C277 O284 1.299 . S
O278 Zn275 2.080 . S
O278 C292 1.305 . S
O279 Zn273 1.920 . S
O279 C292 1.234 . S
C280 O285 1.167 . S
C280 O286 1.299 . S
O281 Zn275 2.114 . S
O281 C276 1.166 . S
O282 Zn274 1.905 . S
O282 C276 1.182 . S
O283 Zn274 1.898 . S
O283 C277 1.167 . S
O284 Zn275 2.120 . S
O284 C277 1.299 . S
O285 Zn273 1.898 . S
O285 C280 1.167 . S
O286 Zn275 2.120 . S
O286 C280 1.299 . S
O287 Zn275 2.114 . S
O287 C289 1.166 . S
O288 Zn273 1.905 . S
O288 C289 1.182 . S
C289 O287 1.166 . S
C289 O288 1.182 . S
O290 Zn275 2.080 . S
O290 C293 1.305 . S
O291 Zn274 1.920 . S
O291 C293 1.234 . S
C292 O278 1.305 . S
C292 O279 1.234 . S
C293 O290 1.305 . S
C293 O291 1.234 . S
Zn294 O300 1.920 . S
Zn294 O306 1.898 . S
Zn294 O309 1.905 . S
Zn295 O303 1.905 . S
Zn295 O304 1.898 . S
Zn295 O312 1.920 . S
Zn296 O299 2.080 . S
Zn296 O302 2.114 . S
Zn296 O305 2.120 . S
Zn296 O307 2.120 . S
Zn296 O308 2.114 . S
Zn296 O311 2.080 . S
C297 O302 1.166 . S
C297 O303 1.182 . S
C298 O304 1.167 . S
C298 O305 1.299 . S
O299 Zn296 2.080 . S
O299 C313 1.305 . S
O300 Zn294 1.920 . S
O300 C313 1.234 . S
C301 O306 1.167 . S
C301 O307 1.299 . S
O302 Zn296 2.114 . S
O302 C297 1.166 . S
O303 Zn295 1.905 . S
O303 C297 1.182 . S
O304 Zn295 1.898 . S
O304 C298 1.167 . S
O305 Zn296 2.120 . S
O305 C298 1.299 . S
O306 Zn294 1.898 . S
O306 C301 1.167 . S
O307 Zn296 2.120 . S
O307 C301 1.299 . S
O308 Zn296 2.114 . S
O308 C310 1.166 . S
O309 Zn294 1.905 . S
O309 C310 1.182 . S
C310 O308 1.166 . S
C310 O309 1.182 . S
O311 Zn296 2.080 . S
O311 C314 1.305 . S
O312 Zn295 1.920 . S
O312 C314 1.234 . S
C313 O299 1.305 . S
C313 O300 1.234 . S
C314 O311 1.305 . S
C314 O312 1.234 . S
Zn315 O321 1.920 . S
Zn315 O327 1.898 . S
Zn315 O330 1.905 . S
Zn316 O324 1.905 . S
Zn316 O325 1.898 . S
Zn316 O333 1.920 . S
Zn317 O320 2.080 . S
Zn317 O323 2.114 . S
Zn317 O326 2.120 . S
Zn317 O328 2.120 . S
Zn317 O329 2.114 . S
Zn317 O332 2.080 . S
C318 O323 1.166 . S
C318 O324 1.182 . S
C319 O325 1.167 . S
C319 O326 1.299 . S
O320 Zn317 2.080 . S
O320 C334 1.305 . S
O321 Zn315 1.920 . S
O321 C334 1.234 . S
C322 O327 1.167 . S
C322 O328 1.299 . S
O323 Zn317 2.114 . S
O323 C318 1.166 . S
O324 Zn316 1.905 . S
O324 C318 1.182 . S
O325 Zn316 1.898 . S
O325 C319 1.167 . S
O326 Zn317 2.120 . S
O326 C319 1.299 . S
O327 Zn315 1.898 . S
O327 C322 1.167 . S
O328 Zn317 2.120 . S
O328 C322 1.299 . S
O329 Zn317 2.114 . S
O329 C331 1.166 . S
O330 Zn315 1.905 . S
O330 C331 1.182 . S
C331 O329 1.166 . S
C331 O330 1.182 . S
O332 Zn317 2.080 . S
O332 C335 1.305 . S
O333 Zn316 1.920 . S
O333 C335 1.234 . S
C334 O320 1.305 . S
C334 O321 1.234 . S
C335 O332 1.305 . S
C335 O333 1.234 . S
Zn336 O342 1.920 1_545 S
Zn336 O348 1.898 . S
Zn336 O351 1.905 . S
Zn337 O345 1.905 . S
Zn337 O346 1.898 . S
Zn337 O354 1.920 . S
Zn338 O341 2.080 . S
Zn338 O344 2.114 . S
Zn338 O347 2.120 . S
Zn338 O349 2.120 . S
Zn338 O350 2.114 . S
Zn338 O353 2.080 . S
C339 O344 1.166 . S
C339 O345 1.182 . S
C340 O346 1.167 . S
C340 O347 1.299 . S
O341 Zn338 2.080 . S
O341 C355 1.305 1_545 S
O342 Zn336 1.920 1_565 S
O342 C355 1.234 . S
C343 O348 1.167 . S
C343 O349 1.299 . S
O344 Zn338 2.114 . S
O344 C339 1.166 . S
O345 Zn337 1.905 . S
O345 C339 1.182 . S
O346 Zn337 1.898 . S
O346 C340 1.167 . S
O347 Zn338 2.120 . S
O347 C340 1.299 . S
O348 Zn336 1.898 . S
O348 C343 1.167 . S
O349 Zn338 2.120 . S
O349 C343 1.299 . S
O350 Zn338 2.114 . S
O350 C352 1.166 . S
O351 Zn336 1.905 . S
O351 C352 1.182 . S
C352 O350 1.166 . S
C352 O351 1.182 . S
O353 Zn338 2.080 . S
O353 C356 1.305 . S
O354 Zn337 1.920 . S
O354 C356 1.234 . S
C355 O341 1.305 1_565 S
C355 O342 1.234 . S
C356 O353 1.305 . S
C356 O354 1.234 . S
Zn357 O363 1.920 . S
Zn357 O369 1.898 . S
Zn357 O372 1.905 . S
Zn358 O366 1.905 . S
Zn358 O367 1.898 . S
Zn358 O375 1.920 . S
Zn359 O362 2.080 . S
Zn359 O365 2.114 . S
Zn359 O368 2.120 . S
Zn359 O370 2.120 . S
Zn359 O371 2.114 . S
Zn359 O374 2.080 . S
C360 O365 1.166 . S
C360 O366 1.182 . S
C361 O367 1.167 . S
C361 O368 1.299 . S
O362 Zn359 2.080 . S
O362 C376 1.305 . S
O363 Zn357 1.920 . S
O363 C376 1.234 . S
C364 O369 1.167 . S
C364 O370 1.299 . S
O365 Zn359 2.114 . S
O365 C360 1.166 . S
O366 Zn358 1.905 . S
O366 C360 1.182 . S
O367 Zn358 1.898 . S
O367 C361 1.167 . S
O368 Zn359 2.120 . S
O368 C361 1.299 . S
O369 Zn357 1.898 . S
O369 C364 1.167 . S
O370 Zn359 2.120 . S
O370 C364 1.299 . S
O371 Zn359 2.114 . S
O371 C373 1.166 . S
O372 Zn357 1.905 . S
O372 C373 1.182 . S
C373 O371 1.166 . S
C373 O372 1.182 . S
O374 Zn359 2.080 . S
O374 C377 1.305 . S
O375 Zn358 1.920 . S
O375 C377 1.234 . S
C376 O362 1.305 . S
C376 O363 1.234 . S
C377 O374 1.305 . S
C377 O375 1.234 . S
Zn378 O384 1.920 . S
Zn378 O390 1.898 . S
Zn378 O393 1.905 . S
Zn379 O387 1.905 . S
Zn379 O388 1.898 . S
Zn379 O396 1.920 . S
Zn380 O383 2.080 . S
Zn380 O386 2.114 . S
Zn380 O389 2.120 . S
Zn380 O391 2.120 . S
Zn380 O392 2.114 . S
Zn380 O395 2.080 . S
C381 O386 1.166 . S
C381 O387 1.182 . S
C382 O388 1.167 . S
C382 O389 1.299 . S
O383 Zn380 2.080 . S
O383 C397 1.305 . S
O384 Zn378 1.920 . S
O384 C397 1.234 . S
C385 O390 1.167 . S
C385 O391 1.299 . S
O386 Zn380 2.114 . S
O386 C381 1.166 . S
O387 Zn379 1.905 . S
O387 C381 1.182 . S
O388 Zn379 1.898 . S
O388 C382 1.167 . S
O389 Zn380 2.120 . S
O389 C382 1.299 . S
O390 Zn378 1.898 . S
O390 C385 1.167 . S
O391 Zn380 2.120 . S
O391 C385 1.299 . S
O392 Zn380 2.114 . S
O392 C394 1.166 . S
O393 Zn378 1.905 . S
O393 C394 1.182 . S
C394 O392 1.166 . S
C394 O393 1.182 . S
O395 Zn380 2.080 . S
O395 C398 1.305 . S
O396 Zn379 1.920 . S
O396 C398 1.234 . S
C397 O383 1.305 . S
C397 O384 1.234 . S
C398 O395 1.305 . S
C398 O396 1.234 . S
Zn399 O405 1.920 . S
Zn399 O411 1.898 . S
Zn399 O414 1.905 . S
Zn400 O408 1.905 . S
Zn400 O409 1.898 . S
Zn400 O417 1.920 1_545 S
Zn401 O404 2.080 . S
Zn401 O407 2.114 . S
Zn401 O410 2.120 . S
Zn401 O412 2.120 . S
Zn401 O413 2.114 . S
Zn401 O416 2.080 . S
C402 O407 1.166 . S
C402 O408 1.182 . S
C403 O409 1.167 . S
C403 O410 1.299 . S
O404 Zn401 2.080 . S
O404 C418 1.305 . S
O405 Zn399 1.920 . S
O405 C418 1.234 . S
C406 O411 1.167 . S
C406 O412 1.299 . S
O407 Zn401 2.114 . S
O407 C402 1.166 . S
O408 Zn400 1.905 . S
O408 C402 1.182 . S
O409 Zn400 1.898 . S
O409 C403 1.167 . S
O410 Zn401 2.120 . S
O410 C403 1.299 . S
O411 Zn399 1.898 . S
O411 C406 1.167 . S
O412 Zn401 2.120 . S
O412 C406 1.299 . S
O413 Zn401 2.114 . S
O413 C415 1.166 . S
O414 Zn399 1.905 . S
O414 C415 1.182 . S
C415 O413 1.166 . S
C415 O414 1.182 . S
O416 Zn401 2.080 . S
O416 C419 1.305 1_545 S
O417 Zn400 1.920 1_565 S
O417 C419 1.234 . S
C418 O404 1.305 . S
C418 O405 1.234 . S
C419 O416 1.305 1_565 S
C419 O417 1.234 . S
Zn420 O426 1.920 . S
Zn420 O432 1.898 . S
Zn420 O435 1.905 . S
Zn421 O429 1.905 . S
Zn421 O430 1.898 . S
Zn421 O438 1.920 1_565 S
Zn422 O425 2.080 . S
Zn422 O428 2.114 . S
Zn422 O431 2.120 . S
Zn422 O433 2.120 . S
Zn422 O434 2.114 . S
Zn422 O437 2.080 . S
C423 O428 1.166 . S
C423 O429 1.182 . S
C424 O430 1.167 . S
C424 O431 1.299 . S
O425 Zn422 2.080 . S
O425 C439 1.305 . S
O426 Zn420 1.920 . S
O426 C439 1.234 . S
C427 O432 1.167 . S
C427 O433 1.299 . S
O428 Zn422 2.114 . S
O428 C423 1.166 . S
O429 Zn421 1.905 . S
O429 C423 1.182 . S
O430 Zn421 1.898 . S
O430 C424 1.167 . S
O431 Zn422 2.120 . S
O431 C424 1.299 . S
O432 Zn420 1.898 . S
O432 C427 1.167 . S
O433 Zn422 2.120 . S
O433 C427 1.299 . S
O434 Zn422 2.114 . S
O434 C436 1.166 . S
O435 Zn420 1.905 . S
O435 C436 1.182 . S
C436 O434 1.166 . S
C436 O435 1.182 . S
O437 Zn422 2.080 . S
O437 C440 1.305 1_565 S
O438 Zn421 1.920 1_545 S
O438 C440 1.234 . S
C439 O425 1.305 . S
C439 O426 1.234 . S
C440 O437 1.305 1_545 S
C440 O438 1.234 . S
Zn441 O447 1.920 . S
Zn441 O453 1.898 . S
Zn441 O456 1.905 . S
Zn442 O450 1.905 . S
Zn442 O451 1.898 . S
Zn442 O459 1.920 . S
Zn443 O446 2.080 . S
Zn443 O449 2.114 . S
Zn443 O452 2.120 . S
Zn443 O454 2.120 . S
Zn443 O455 2.114 . S
Zn443 O458 2.080 . S
C444 O449 1.166 . S
C444 O450 1.182 . S
C445 O451 1.167 . S
C445 O452 1.299 . S
O446 Zn443 2.080 . S
O446 C460 1.305 . S
O447 Zn441 1.920 . S
O447 C460 1.234 . S
C448 O453 1.167 . S
C448 O454 1.299 . S
O449 Zn443 2.114 . S
O449 C444 1.166 . S
O450 Zn442 1.905 . S
O450 C444 1.182 . S
O451 Zn442 1.898 . S
O451 C445 1.167 . S
O452 Zn443 2.120 . S
O452 C445 1.299 . S
O453 Zn441 1.898 . S
O453 C448 1.167 . S
O454 Zn443 2.120 . S
O454 C448 1.299 . S
O455 Zn443 2.114 . S
O455 C457 1.166 . S
O456 Zn441 1.905 . S
O456 C457 1.182 . S
C457 O455 1.166 . S
C457 O456 1.182 . S
O458 Zn443 2.080 . S
O458 C461 1.305 . S
O459 Zn442 1.920 . S
O459 C461 1.234 . S
C460 O446 1.305 . S
C460 O447 1.234 . S
C461 O458 1.305 . S
C461 O459 1.234 . S
Zn462 O468 1.920 . S
Zn462 O474 1.898 . S
Zn462 O477 1.905 . S
Zn463 O471 1.905 . S
Zn463 O472 1.898 . S
Zn463 O480 1.920 . S
Zn464 O467 2.080 . S
Zn464 O470 2.114 . S
Zn464 O473 2.120 . S
Zn464 O475 2.120 . S
Zn464 O476 2.114 . S
Zn464 O479 2.080 . S
C465 O470 1.166 . S
C465 O471 1.182 . S
C466 O472 1.167 . S
C466 O473 1.299 . S
O467 Zn464 2.080 . S
O467 C481 1.305 . S
O468 Zn462 1.920 . S
O468 C481 1.234 . S
C469 O474 1.167 . S
C469 O475 1.299 . S
O470 Zn464 2.114 . S
O470 C465 1.166 . S
O471 Zn463 1.905 . S
O471 C465 1.182 . S
O472 Zn463 1.898 . S
O472 C466 1.167 . S
O473 Zn464 2.120 . S
O473 C466 1.299 . S
O474 Zn462 1.898 . S
O474 C469 1.167 . S
O475 Zn464 2.120 . S
O475 C469 1.299 . S
O476 Zn464 2.114 . S
O476 C478 1.166 . S
O477 Zn462 1.905 . S
O477 C478 1.182 . S
C478 O476 1.166 . S
C478 O477 1.182 . S
O479 Zn464 2.080 . S
O479 C482 1.305 . S
O480 Zn463 1.920 . S
O480 C482 1.234 . S
C481 O467 1.305 . S
C481 O468 1.234 . S
C482 O479 1.305 . S
C482 O480 1.234 . S
Zn483 O489 1.920 1_565 S
Zn483 O495 1.898 . S
Zn483 O498 1.905 . S
Zn484 O492 1.905 . S
Zn484 O493 1.898 . S
Zn484 O501 1.920 . S
Zn485 O488 2.080 . S
Zn485 O491 2.114 . S
Zn485 O494 2.120 . S
Zn485 O496 2.120 . S
Zn485 O497 2.114 . S
Zn485 O500 2.080 . S
C486 O491 1.166 . S
C486 O492 1.182 . S
C487 O493 1.167 . S
C487 O494 1.299 . S
O488 Zn485 2.080 . S
O488 C502 1.305 1_565 S
O489 Zn483 1.920 1_545 S
O489 C502 1.234 . S
C490 O495 1.167 . S
C490 O496 1.299 . S
O491 Zn485 2.114 . S
O491 C486 1.166 . S
O492 Zn484 1.905 . S
O492 C486 1.182 . S
O493 Zn484 1.898 . S
O493 C487 1.167 . S
O494 Zn485 2.120 . S
O494 C487 1.299 . S
O495 Zn483 1.898 . S
O495 C490 1.167 . S
O496 Zn485 2.120 . S
O496 C490 1.299 . S
O497 Zn485 2.114 . S
O497 C499 1.166 . S
O498 Zn483 1.905 . S
O498 C499 1.182 . S
C499 O497 1.166 . S
C499 O498 1.182 . S
O500 Zn485 2.080 . S
O500 C503 1.305 . S
O501 Zn484 1.920 . S
O501 C503 1.234 . S
C502 O488 1.305 1_545 S
C502 O489 1.234 . S
C503 O500 1.305 . S
C503 O501 1.234 . S
Zn504 O510 1.920 . S
Zn504 O516 1.898 . S
Zn504 O519 1.905 . S
Zn505 O513 1.905 . S
Zn505 O514 1.898 . S
Zn505 O522 1.920 . S
Zn506 O509 2.080 . S
Zn506 O512 2.112 1_554 S
Zn506 O515 2.120 1_554 S
Zn506 O517 2.120 . S
Zn506 O518 2.114 . S
Zn506 O521 2.080 . S
C507 O512 1.168 . S
C507 O513 1.182 . S
C508 O514 1.167 . S
C508 O515 1.299 . S
O509 Zn506 2.080 . S
O509 C523 1.305 . S
O510 Zn504 1.920 . S
O510 C523 1.234 . S
C511 O516 1.167 . S
C511 O517 1.299 . S
O512 Zn506 2.112 1_556 S
O512 C507 1.168 . S
O513 Zn505 1.905 . S
O513 C507 1.182 . S
O514 Zn505 1.898 . S
O514 C508 1.167 . S
O515 Zn506 2.120 1_556 S
O515 C508 1.299 . S
O516 Zn504 1.898 . S
O516 C511 1.167 . S
O517 Zn506 2.120 . S
O517 C511 1.299 . S
O518 Zn506 2.114 . S
O518 C520 1.166 . S
O519 Zn504 1.905 . S
O519 C520 1.182 . S
C520 O518 1.166 . S
C520 O519 1.182 . S
O521 Zn506 2.080 . S
O521 C524 1.305 1_554 S
O522 Zn505 1.920 . S
O522 C524 1.234 . S
C523 O509 1.305 . S
C523 O510 1.234 . S
C524 O521 1.305 1_556 S
C524 O522 1.234 . S
Zn525 O531 1.920 . S
Zn525 O537 1.898 . S
Zn525 O540 1.905 . S
Zn526 O534 1.905 . S
Zn526 O535 1.898 . S
Zn526 O543 1.920 . S
Zn527 O530 2.080 . S
Zn527 O533 2.114 . S
Zn527 O536 2.120 . S
Zn527 O538 2.120 1_554 S
Zn527 O539 2.112 1_554 S
Zn527 O542 2.080 . S
C528 O533 1.166 . S
C528 O534 1.182 . S
C529 O535 1.167 . S
C529 O536 1.299 . S
O530 Zn527 2.080 . S
O530 C544 1.305 1_554 S
O531 Zn525 1.920 . S
O531 C544 1.234 . S
C532 O537 1.167 . S
C532 O538 1.299 . S
O533 Zn527 2.114 . S
O533 C528 1.166 . S
O534 Zn526 1.905 . S
O534 C528 1.182 . S
O535 Zn526 1.898 . S
O535 C529 1.167 . S
O536 Zn527 2.120 . S
O536 C529 1.299 . S
O537 Zn525 1.898 . S
O537 C532 1.167 . S
O538 Zn527 2.120 1_556 S
O538 C532 1.299 . S
O539 Zn527 2.112 1_556 S
O539 C541 1.168 . S
O540 Zn525 1.905 . S
O540 C541 1.182 . S
C541 O539 1.168 . S
C541 O540 1.182 . S
O542 Zn527 2.080 . S
O542 C545 1.305 . S
O543 Zn526 1.920 . S
O543 C545 1.234 . S
C544 O530 1.305 1_556 S
C544 O531 1.234 . S
C545 O542 1.305 . S
C545 O543 1.234 . S
Zn546 O552 1.920 . S
Zn546 O558 1.898 . S
Zn546 O561 1.905 . S
Zn547 O555 1.905 . S
Zn547 O556 1.898 . S
Zn547 O564 1.920 . S
Zn548 O551 2.080 . S
Zn548 O554 2.114 . S
Zn548 O557 2.120 . S
Zn548 O559 2.120 . S
Zn548 O560 2.114 . S
Zn548 O563 2.080 . S
C549 O554 1.166 . S
C549 O555 1.182 . S
C550 O556 1.167 . S
C550 O557 1.299 . S
O551 Zn548 2.080 . S
O551 C565 1.305 . S
O552 Zn546 1.920 . S
O552 C565 1.234 . S
C553 O558 1.167 . S
C553 O559 1.299 . S
O554 Zn548 2.114 . S
O554 C549 1.166 . S
O555 Zn547 1.905 . S
O555 C549 1.182 . S
O556 Zn547 1.898 . S
O556 C550 1.167 . S
O557 Zn548 2.120 . S
O557 C550 1.299 . S
O558 Zn546 1.898 . S
O558 C553 1.167 . S
O559 Zn548 2.120 . S
O559 C553 1.299 . S
O560 Zn548 2.114 . S
O560 C562 1.166 . S
O561 Zn546 1.905 . S
O561 C562 1.182 . S
C562 O560 1.166 . S
C562 O561 1.182 . S
O563 Zn548 2.080 . S
O563 C566 1.305 . S
O564 Zn547 1.920 . S
O564 C566 1.234 . S
C565 O551 1.305 . S
C565 O552 1.234 . S
C566 O563 1.305 . S
C566 O564 1.234 . S
Zn567 O573 1.920 . S
Zn567 O579 1.898 . S
Zn567 O582 1.905 . S
Zn568 O576 1.905 . S
Zn568 O577 1.898 . S
Zn568 O585 1.920 . S
Zn569 O572 2.080 . S
Zn569 O575 2.114 . S
Zn569 O578 2.120 . S
Zn569 O580 2.120 . S
Zn569 O581 2.114 . S
Zn569 O584 2.080 . S
C570 O575 1.166 . S
C570 O576 1.182 . S
C571 O577 1.167 . S
C571 O578 1.299 . S
O572 Zn569 2.080 . S
O572 C586 1.305 . S
O573 Zn567 1.920 . S
O573 C586 1.234 . S
C574 O579 1.167 . S
C574 O580 1.299 . S
O575 Zn569 2.114 . S
O575 C570 1.166 . S
O576 Zn568 1.905 . S
O576 C570 1.182 . S
O577 Zn568 1.898 . S
O577 C571 1.167 . S
O578 Zn569 2.120 . S
O578 C571 1.299 . S
O579 Zn567 1.898 . S
O579 C574 1.167 . S
O580 Zn569 2.120 . S
O580 C574 1.299 . S
O581 Zn569 2.114 . S
O581 C583 1.166 . S
O582 Zn567 1.905 . S
O582 C583 1.182 . S
C583 O581 1.166 . S
C583 O582 1.182 . S
O584 Zn569 2.080 . S
O584 C587 1.305 . S
O585 Zn568 1.920 . S
O585 C587 1.234 . S
C586 O572 1.305 . S
C586 O573 1.234 . S
C587 O584 1.305 . S
C587 O585 1.234 . S
Zn588 O594 1.920 . S
Zn588 O600 1.898 . S
Zn588 O603 1.905 . S
Zn589 O597 1.905 . S
Zn589 O598 1.898 . S
Zn589 O606 1.920 . S
Zn590 O593 2.080 . S
Zn590 O596 2.114 . S
Zn590 O599 2.120 . S
Zn590 O601 2.120 1_556 S
Zn590 O602 2.112 1_556 S
Zn590 O605 2.080 . S
C591 O596 1.166 . S
C591 O597 1.182 . S
C592 O598 1.167 . S
C592 O599 1.299 . S
O593 Zn590 2.080 . S
O593 C607 1.305 1_556 S
O594 Zn588 1.920 . S
O594 C607 1.234 . S
C595 O600 1.167 . S
C595 O601 1.299 . S
O596 Zn590 2.114 . S
O596 C591 1.166 . S
O597 Zn589 1.905 . S
O597 C591 1.182 . S
O598 Zn589 1.898 . S
O598 C592 1.167 . S
O599 Zn590 2.120 . S
O599 C592 1.299 . S
O600 Zn588 1.898 . S
O600 C595 1.167 . S
O601 Zn590 2.120 1_554 S
O601 C595 1.299 . S
O602 Zn590 2.112 1_554 S
O602 C604 1.168 . S
O603 Zn588 1.905 . S
O603 C604 1.182 . S
C604 O602 1.168 . S
C604 O603 1.182 . S
O605 Zn590 2.080 . S
O605 C608 1.305 . S
O606 Zn589 1.920 . S
O606 C608 1.234 . S
C607 O593 1.305 1_554 S
C607 O594 1.234 . S
C608 O605 1.305 . S
C608 O606 1.234 . S
Zn609 O615 1.920 . S
Zn609 O621 1.898 . S
Zn609 O624 1.905 . S
Zn610 O618 1.905 . S
Zn610 O619 1.898 . S
Zn610 O627 1.920 . S
Zn611 O614 2.080 . S
Zn611 O617 2.112 1_556 S
Zn611 O620 2.120 1_556 S
Zn611 O622 2.120 . S
Zn611 O623 2.114 . S
Zn611 O626 2.080 . S
C612 O617 1.168 . S
C612 O618 1.182 . S
C613 O619 1.167 . S
C613 O620 1.299 . S
O614 Zn611 2.080 . S
O614 C628 1.305 . S
O615 Zn609 1.920 . S
O615 C628 1.234 . S
C616 O621 1.167 . S
C616 O622 1.299 . S
O617 Zn611 2.112 1_554 S
O617 C612 1.168 . S
O618 Zn610 1.905 . S
O618 C612 1.182 . S
O619 Zn610 1.898 . S
O619 C613 1.167 . S
O620 Zn611 2.120 1_554 S
O620 C613 1.299 . S
O621 Zn609 1.898 . S
O621 C616 1.167 . S
O622 Zn611 2.120 . S
O622 C616 1.299 . S
O623 Zn611 2.114 . S
O623 C625 1.166 . S
O624 Zn609 1.905 . S
O624 C625 1.182 . S
C625 O623 1.166 . S
C625 O624 1.182 . S
O626 Zn611 2.080 . S
O626 C629 1.305 1_556 S
O627 Zn610 1.920 . S
O627 C629 1.234 . S
C628 O614 1.305 . S
C628 O615 1.234 . S
C629 O626 1.305 1_554 S
C629 O627 1.234 . S
Zn630 O636 1.920 . S
Zn630 O642 1.898 . S
Zn630 O645 1.905 . S
Zn631 O639 1.905 . S
Zn631 O640 1.898 . S
Zn631 O648 1.920 . S
Zn632 O635 2.080 . S
Zn632 O638 2.114 . S
Zn632 O641 2.120 . S
Zn632 O643 2.120 . S
Zn632 O644 2.114 . S
Zn632 O647 2.080 . S
C633 O638 1.166 . S
C633 O639 1.182 . S
C634 O640 1.167 . S
C634 O641 1.299 . S
O635 Zn632 2.080 . S
O635 C649 1.305 . S
O636 Zn630 1.920 . S
O636 C649 1.234 . S
C637 O642 1.167 . S
C637 O643 1.299 . S
O638 Zn632 2.114 . S
O638 C633 1.166 . S
O639 Zn631 1.905 . S
O639 C633 1.182 . S
O640 Zn631 1.898 . S
O640 C634 1.167 . S
O641 Zn632 2.120 . S
O641 C634 1.299 . S
O642 Zn630 1.898 . S
O642 C637 1.167 . S
O643 Zn632 2.120 . S
O643 C637 1.299 . S
O644 Zn632 2.114 . S
O644 C646 1.166 . S
O645 Zn630 1.905 . S
O645 C646 1.182 . S
C646 O644 1.166 . S
C646 O645 1.182 . S
O647 Zn632 2.080 . S
O647 C650 1.305 . S
O648 Zn631 1.920 . S
O648 C650 1.234 . S
C649 O635 1.305 . S
C649 O636 1.234 . S
C650 O647 1.305 . S
C650 O648 1.234 . S
Zn651 O657 1.920 . S
Zn651 O663 1.898 . S
Zn651 O666 1.905 . S
Zn652 O660 1.905 . S
Zn652 O661 1.898 . S
Zn652 O669 1.920 . S
Zn653 O656 2.080 . S
Zn653 O659 2.114 . S
Zn653 O662 2.120 . S
Zn653 O664 2.120 . S
Zn653 O665 2.114 . S
Zn653 O668 2.080 . S
C654 O659 1.166 . S
C654 O660 1.182 . S
C655 O661 1.167 . S
C655 O662 1.299 . S
O656 Zn653 2.080 . S
O656 C670 1.305 . S
O657 Zn651 1.920 . S
O657 C670 1.234 . S
C658 O663 1.167 . S
C658 O664 1.299 . S
O659 Zn653 2.114 . S
O659 C654 1.166 . S
O660 Zn652 1.905 . S
O660 C654 1.182 . S
O661 Zn652 1.898 . S
O661 C655 1.167 . S
O662 Zn653 2.120 . S
O662 C655 1.299 . S
O663 Zn651 1.898 . S
O663 C658 1.167 . S
O664 Zn653 2.120 . S
O664 C658 1.299 . S
O665 Zn653 2.114 . S
O665 C667 1.166 . S
O666 Zn651 1.905 . S
O666 C667 1.182 . S
C667 O665 1.166 . S
C667 O666 1.182 . S
O668 Zn653 2.080 . S
O668 C671 1.305 . S
O669 Zn652 1.920 . S
O669 C671 1.234 . S
C670 O656 1.305 . S
C670 O657 1.234 . S
C671 O668 1.305 . S
C671 O669 1.234 . S
C672 C673 1.369 . S
C672 C674 1.419 . S
C672 H676 0.930 1_554 S
C673 C672 1.369 . S
C673 C682 1.429 . S
C674 C672 1.419 . S
C674 C675 1.363 . S
C674 H677 0.929 1_554 S
C675 C674 1.363 . S
C675 C681 1.428 . S
H676 C672 0.930 1_556 S
H677 C674 0.929 1_556 S
S678 N679 1.613 . S
S678 N680 1.610 . S
N679 S678 1.613 . S
N679 C682 1.350 . S
N680 S678 1.610 . S
N680 C681 1.351 . S
C681 C675 1.428 . S
C681 N680 1.351 . S
C681 C682 1.434 . S
C682 C673 1.429 . S
C682 N679 1.350 . S
C682 C681 1.434 . S
C683 C684 1.369 . S
C683 C685 1.419 . S
C683 H687 0.930 . S
C684 C683 1.369 . S
C684 C693 1.429 . S
C685 C683 1.419 . S
C685 C686 1.363 . S
C685 H688 0.929 . S
C686 C685 1.363 . S
C686 C692 1.428 . S
H687 C683 0.930 . S
H688 C685 0.929 . S
S689 N690 1.613 . S
S689 N691 1.610 . S
N690 S689 1.613 . S
N690 C693 1.350 . S
N691 S689 1.610 . S
N691 C692 1.351 . S
C692 C686 1.428 . S
C692 N691 1.351 . S
C692 C693 1.434 . S
C693 C684 1.429 . S
C693 N690 1.350 . S
C693 C692 1.434 . S
C694 C695 1.369 . S
C694 C696 1.419 . S
C694 H698 0.930 . S
C695 C694 1.369 . S
C695 C704 1.429 . S
C696 C694 1.419 . S
C696 C697 1.363 . S
C696 H699 0.929 . S
C697 C696 1.363 . S
C697 C703 1.428 . S
H698 C694 0.930 . S
H699 C696 0.929 . S
S700 N701 1.613 . S
S700 N702 1.610 . S
N701 S700 1.613 . S
N701 C704 1.350 . S
N702 S700 1.610 . S
N702 C703 1.351 . S
C703 C697 1.428 . S
C703 N702 1.351 . S
C703 C704 1.434 . S
C704 C695 1.429 . S
C704 N701 1.350 . S
C704 C703 1.434 . S
C705 C706 1.369 . S
C705 C707 1.419 . S
C705 H709 0.930 . S
C706 C705 1.369 . S
C706 C715 1.429 . S
C707 C705 1.419 . S
C707 C708 1.363 . S
C707 H710 0.929 . S
C708 C707 1.363 . S
C708 C714 1.428 . S
H709 C705 0.930 . S
H710 C707 0.929 . S
S711 N712 1.613 . S
S711 N713 1.610 . S
N712 S711 1.613 . S
N712 C715 1.350 . S
N713 S711 1.610 . S
N713 C714 1.351 . S
C714 C708 1.428 . S
C714 N713 1.351 . S
C714 C715 1.434 . S
C715 C706 1.429 . S
C715 N712 1.350 . S
C715 C714 1.434 . S
C716 C717 1.369 . S
C716 C718 1.419 . S
C716 H720 0.930 . S
C717 C716 1.369 . S
C717 C726 1.429 1_556 S
C718 C716 1.419 . S
C718 C719 1.363 . S
C718 H721 0.929 . S
C719 C718 1.363 . S
C719 C725 1.428 1_556 S
H720 C716 0.930 . S
H721 C718 0.929 . S
S722 N723 1.613 . S
S722 N724 1.610 . S
N723 S722 1.613 . S
N723 C726 1.350 . S
N724 S722 1.610 . S
N724 C725 1.351 . S
C725 C719 1.428 1_554 S
C725 N724 1.351 . S
C725 C726 1.434 . S
C726 C717 1.429 1_554 S
C726 N723 1.350 . S
C726 C725 1.434 . S
C727 C728 1.369 . S
C727 C729 1.419 . S
C727 H731 0.930 . S
C728 C727 1.369 . S
C728 C737 1.429 . S
C729 C727 1.419 . S
C729 C730 1.363 . S
C729 H732 0.929 . S
C730 C729 1.363 . S
C730 C736 1.428 . S
H731 C727 0.930 . S
H732 C729 0.929 . S
S733 N734 1.613 . S
S733 N735 1.610 . S
N734 S733 1.613 . S
N734 C737 1.350 . S
N735 S733 1.610 . S
N735 C736 1.351 . S
C736 C730 1.428 . S
C736 N735 1.351 . S
C736 C737 1.434 . S
C737 C728 1.429 . S
C737 N734 1.350 . S
C737 C736 1.434 . S
C738 C739 1.369 . S
C738 C740 1.419 . S
C738 H742 0.930 . S
C739 C738 1.369 . S
C739 C748 1.429 . S
C740 C738 1.419 . S
C740 C741 1.363 . S
C740 H743 0.929 . S
C741 C740 1.363 . S
C741 C747 1.428 . S
H742 C738 0.930 . S
H743 C740 0.929 . S
S744 N745 1.613 . S
S744 N746 1.610 . S
N745 S744 1.613 . S
N745 C748 1.350 . S
N746 S744 1.610 . S
N746 C747 1.351 . S
C747 C741 1.428 . S
C747 N746 1.351 . S
C747 C748 1.434 . S
C748 C739 1.429 . S
C748 N745 1.350 . S
C748 C747 1.434 . S
C749 C750 1.369 . S
C749 C751 1.419 . S
C749 H753 0.930 . S
C750 C749 1.369 . S
C750 C759 1.429 . S
C751 C749 1.419 . S
C751 C752 1.363 . S
C751 H754 0.929 . S
C752 C751 1.363 . S
C752 C758 1.428 . S
H753 C749 0.930 . S
H754 C751 0.929 . S
S755 N756 1.613 . S
S755 N757 1.610 . S
N756 S755 1.613 . S
N756 C759 1.350 . S
N757 S755 1.610 . S
N757 C758 1.351 . S
C758 C752 1.428 . S
C758 N757 1.351 . S
C758 C759 1.434 . S
C759 C750 1.429 . S
C759 N756 1.350 . S
C759 C758 1.434 . S
C760 C761 1.369 . S
C760 C762 1.419 . S
C760 H764 0.930 . S
C761 C760 1.369 . S
C761 C770 1.429 . S
C762 C760 1.419 . S
C762 C763 1.363 . S
C762 H765 0.929 . S
C763 C762 1.363 . S
C763 C769 1.428 . S
H764 C760 0.930 . S
H765 C762 0.929 . S
S766 N767 1.613 . S
S766 N768 1.610 . S
N767 S766 1.613 . S
N767 C770 1.350 . S
N768 S766 1.610 . S
N768 C769 1.351 . S
C769 C763 1.428 . S
C769 N768 1.351 . S
C769 C770 1.434 . S
C770 C761 1.429 . S
C770 N767 1.350 . S
C770 C769 1.434 . S
C771 C772 1.369 . S
C771 C773 1.419 . S
C771 H775 0.930 . S
C772 C771 1.369 . S
C772 C781 1.429 . S
C773 C771 1.419 . S
C773 C774 1.363 . S
C773 H776 0.929 . S
C774 C773 1.363 . S
C774 C780 1.428 . S
H775 C771 0.930 . S
H776 C773 0.929 . S
S777 N778 1.613 . S
S777 N779 1.610 . S
N778 S777 1.613 . S
N778 C781 1.350 . S
N779 S777 1.610 . S
N779 C780 1.351 . S
C780 C774 1.428 . S
C780 N779 1.351 . S
C780 C781 1.434 . S
C781 C772 1.429 . S
C781 N778 1.350 . S
C781 C780 1.434 . S
C782 C783 1.369 . S
C782 C784 1.419 . S
C782 H786 0.930 . S
C783 C782 1.369 . S
C783 C792 1.429 . S
C784 C782 1.419 . S
C784 C785 1.363 . S
C784 H787 0.929 . S
C785 C784 1.363 . S
C785 C791 1.428 . S
H786 C782 0.930 . S
H787 C784 0.929 . S
S788 N789 1.613 . S
S788 N790 1.610 . S
N789 S788 1.613 . S
N789 C792 1.350 . S
N790 S788 1.610 . S
N790 C791 1.351 . S
C791 C785 1.428 . S
C791 N790 1.351 . S
C791 C792 1.434 . S
C792 C783 1.429 . S
C792 N789 1.350 . S
C792 C791 1.434 . S
C793 C794 1.369 . S
C793 C795 1.419 . S
C793 H797 0.930 . S
C794 C793 1.369 . S
C794 C803 1.429 . S
C795 C793 1.419 . S
C795 C796 1.363 . S
C795 H798 0.929 . S
C796 C795 1.363 . S
C796 C802 1.428 . S
H797 C793 0.930 . S
H798 C795 0.929 . S
S799 N800 1.613 . S
S799 N801 1.610 . S
N800 S799 1.613 . S
N800 C803 1.350 . S
N801 S799 1.610 . S
N801 C802 1.351 . S
C802 C796 1.428 . S
C802 N801 1.351 . S
C802 C803 1.434 . S
C803 C794 1.429 . S
C803 N800 1.350 . S
C803 C802 1.434 . S
C804 C805 1.369 . S
C804 C806 1.419 . S
C804 H808 0.930 . S
C805 C804 1.369 . S
C805 C814 1.429 . S
C806 C804 1.419 . S
C806 C807 1.363 . S
C806 H809 0.929 . S
C807 C806 1.363 . S
C807 C813 1.428 . S
H808 C804 0.930 . S
H809 C806 0.929 . S
S810 N811 1.613 . S
S810 N812 1.610 . S
N811 S810 1.613 . S
N811 C814 1.350 . S
N812 S810 1.610 . S
N812 C813 1.351 . S
C813 C807 1.428 . S
C813 N812 1.351 . S
C813 C814 1.434 . S
C814 C805 1.429 . S
C814 N811 1.350 . S
C814 C813 1.434 . S
C815 C816 1.369 . S
C815 C817 1.419 . S
C815 H819 0.930 . S
C816 C815 1.369 . S
C816 C825 1.429 . S
C817 C815 1.419 . S
C817 C818 1.363 . S
C817 H820 0.929 . S
C818 C817 1.363 . S
C818 C824 1.428 . S
H819 C815 0.930 . S
H820 C817 0.929 . S
S821 N822 1.613 . S
S821 N823 1.610 . S
N822 S821 1.613 . S
N822 C825 1.350 . S
N823 S821 1.610 . S
N823 C824 1.351 . S
C824 C818 1.428 . S
C824 N823 1.351 . S
C824 C825 1.434 . S
C825 C816 1.429 . S
C825 N822 1.350 . S
C825 C824 1.434 . S
C826 C827 1.369 . S
C826 C828 1.419 . S
C826 H830 0.930 . S
C827 C826 1.369 . S
C827 C836 1.429 . S
C828 C826 1.419 . S
C828 C829 1.363 . S
C828 H831 0.929 . S
C829 C828 1.363 . S
C829 C835 1.428 . S
H830 C826 0.930 . S
H831 C828 0.929 . S
S832 N833 1.613 . S
S832 N834 1.610 . S
N833 S832 1.613 . S
N833 C836 1.350 . S
N834 S832 1.610 . S
N834 C835 1.351 . S
C835 C829 1.428 . S
C835 N834 1.351 . S
C835 C836 1.434 . S
C836 C827 1.429 . S
C836 N833 1.350 . S
C836 C835 1.434 . S
C837 C838 1.369 . S
C837 C839 1.419 . S
C837 H841 0.930 . S
C838 C837 1.369 . S
C838 C847 1.429 . S
C839 C837 1.419 . S
C839 C840 1.363 . S
C839 H842 0.929 . S
C840 C839 1.363 . S
C840 C846 1.428 . S
H841 C837 0.930 . S
H842 C839 0.929 . S
S843 N844 1.613 . S
S843 N845 1.610 . S
N844 S843 1.613 . S
N844 C847 1.350 . S
N845 S843 1.610 . S
N845 C846 1.351 . S
C846 C840 1.428 . S
C846 N845 1.351 . S
C846 C847 1.434 . S
C847 C838 1.429 . S
C847 N844 1.350 . S
C847 C846 1.434 . S
C848 C849 1.369 . S
C848 C850 1.419 . S
C848 H852 0.930 . S
C849 C848 1.369 . S
C849 C858 1.429 . S
C850 C848 1.419 . S
C850 C851 1.363 . S
C850 H853 0.929 . S
C851 C850 1.363 . S
C851 C857 1.428 . S
H852 C848 0.930 . S
H853 C850 0.929 . S
S854 N855 1.613 . S
S854 N856 1.610 . S
N855 S854 1.613 . S
N855 C858 1.350 . S
N856 S854 1.610 . S
N856 C857 1.351 . S
C857 C851 1.428 . S
C857 N856 1.351 . S
C857 C858 1.434 . S
C858 C849 1.429 . S
C858 N855 1.350 . S
C858 C857 1.434 . S
C859 C860 1.369 . S
C859 C861 1.419 . S
C859 H863 0.930 . S
C860 C859 1.369 . S
C860 C869 1.429 . S
C861 C859 1.419 . S
C861 C862 1.363 . S
C861 H864 0.929 . S
C862 C861 1.363 . S
C862 C868 1.428 . S
H863 C859 0.930 . S
H864 C861 0.929 . S
S865 N866 1.613 . S
S865 N867 1.610 . S
N866 S865 1.613 . S
N866 C869 1.350 . S
N867 S865 1.610 . S
N867 C868 1.351 . S
C868 C862 1.428 . S
C868 N867 1.351 . S
C868 C869 1.434 . S
C869 C860 1.429 . S
C869 N866 1.350 . S
C869 C868 1.434 . S
C870 C871 1.369 . S
C870 C872 1.419 . S
C870 H874 0.930 . S
C871 C870 1.369 . S
C871 C880 1.429 . S
C872 C870 1.419 . S
C872 C873 1.363 . S
C872 H875 0.929 . S
C873 C872 1.363 . S
C873 C879 1.428 . S
H874 C870 0.930 . S
H875 C872 0.929 . S
S876 N877 1.613 . S
S876 N878 1.610 . S
N877 S876 1.613 . S
N877 C880 1.350 . S
N878 S876 1.610 . S
N878 C879 1.351 . S
C879 C873 1.428 . S
C879 N878 1.351 . S
C879 C880 1.434 . S
C880 C871 1.429 . S
C880 N877 1.350 . S
C880 C879 1.434 . S
C881 C882 1.369 . S
C881 C883 1.419 . S
C881 H885 0.930 . S
C882 C881 1.369 . S
C882 C891 1.429 . S
C883 C881 1.419 . S
C883 C884 1.363 . S
C883 H886 0.929 . S
C884 C883 1.363 . S
C884 C890 1.428 . S
H885 C881 0.930 . S
H886 C883 0.929 . S
S887 N888 1.613 . S
S887 N889 1.610 . S
N888 S887 1.613 . S
N888 C891 1.350 . S
N889 S887 1.610 . S
N889 C890 1.351 . S
C890 C884 1.428 . S
C890 N889 1.351 . S
C890 C891 1.434 . S
C891 C882 1.429 . S
C891 N888 1.350 . S
C891 C890 1.434 . S
C892 C893 1.369 . S
C892 C894 1.419 . S
C892 H896 0.930 . S
C893 C892 1.369 . S
C893 C902 1.429 . S
C894 C892 1.419 . S
C894 C895 1.363 . S
C894 H897 0.929 . S
C895 C894 1.363 . S
C895 C901 1.428 . S
H896 C892 0.930 . S
H897 C894 0.929 . S
S898 N899 1.613 . S
S898 N900 1.610 . S
N899 S898 1.613 . S
N899 C902 1.350 . S
N900 S898 1.610 . S
N900 C901 1.351 . S
C901 C895 1.428 . S
C901 N900 1.351 . S
C901 C902 1.434 . S
C902 C893 1.429 . S
C902 N899 1.350 . S
C902 C901 1.434 . S
C903 C904 1.369 . S
C903 C905 1.419 . S
C903 H907 0.930 . S
C904 C903 1.369 . S
C904 C913 1.429 . S
C905 C903 1.419 . S
C905 C906 1.363 . S
C905 H908 0.929 . S
C906 C905 1.363 . S
C906 C912 1.428 . S
H907 C903 0.930 . S
H908 C905 0.929 . S
S909 N910 1.613 1_545 S
S909 N911 1.610 1_545 S
N910 S909 1.613 1_565 S
N910 C913 1.350 . S
N911 S909 1.610 1_565 S
N911 C912 1.351 . S
C912 C906 1.428 . S
C912 N911 1.351 . S
C912 C913 1.434 . S
C913 C904 1.429 . S
C913 N910 1.350 . S
C913 C912 1.434 . S
C914 C915 1.369 . S
C914 C916 1.419 . S
C914 H918 0.930 . S
C915 C914 1.369 . S
C915 C924 1.429 . S
C916 C914 1.419 . S
C916 C917 1.363 . S
C916 H919 0.929 . S
C917 C916 1.363 . S
C917 C923 1.428 . S
H918 C914 0.930 . S
H919 C916 0.929 . S
S920 N921 1.613 . S
S920 N922 1.610 . S
N921 S920 1.613 . S
N921 C924 1.350 . S
N922 S920 1.610 . S
N922 C923 1.351 . S
C923 C917 1.428 . S
C923 N922 1.351 . S
C923 C924 1.434 . S
C924 C915 1.429 . S
C924 N921 1.350 . S
C924 C923 1.434 . S
C925 C926 1.369 . S
C925 C927 1.419 . S
C925 H929 0.930 . S
C926 C925 1.369 . S
C926 C935 1.429 . S
C927 C925 1.419 . S
C927 C928 1.363 . S
C927 H930 0.929 . S
C928 C927 1.363 . S
C928 C934 1.428 . S
H929 C925 0.930 . S
H930 C927 0.929 . S
S931 N932 1.613 . S
S931 N933 1.610 . S
N932 S931 1.613 . S
N932 C935 1.350 . S
N933 S931 1.610 . S
N933 C934 1.351 . S
C934 C928 1.428 . S
C934 N933 1.351 . S
C934 C935 1.434 . S
C935 C926 1.429 . S
C935 N932 1.350 . S
C935 C934 1.434 . S
C936 C937 1.369 . S
C936 C938 1.419 . S
C936 H940 0.930 . S
C937 C936 1.369 . S
C937 C946 1.429 . S
C938 C936 1.419 . S
C938 C939 1.363 . S
C938 H941 0.929 . S
C939 C938 1.363 . S
C939 C945 1.428 . S
H940 C936 0.930 . S
H941 C938 0.929 . S
S942 N943 1.613 . S
S942 N944 1.610 . S
N943 S942 1.613 . S
N943 C946 1.350 . S
N944 S942 1.610 . S
N944 C945 1.351 . S
C945 C939 1.428 . S
C945 N944 1.351 . S
C945 C946 1.434 . S
C946 C937 1.429 . S
C946 N943 1.350 . S
C946 C945 1.434 . S
C947 C948 1.369 . S
C947 C949 1.419 . S
C947 H951 0.930 . S
C948 C947 1.369 . S
C948 C957 1.429 . S
C949 C947 1.419 . S
C949 C950 1.363 . S
C949 H952 0.929 . S
C950 C949 1.363 . S
C950 C956 1.428 . S
H951 C947 0.930 . S
H952 C949 0.929 . S
S953 N954 1.613 . S
S953 N955 1.610 . S
N954 S953 1.613 . S
N954 C957 1.350 . S
N955 S953 1.610 . S
N955 C956 1.351 . S
C956 C950 1.428 . S
C956 N955 1.351 . S
C956 C957 1.434 . S
C957 C948 1.429 . S
C957 N954 1.350 . S
C957 C956 1.434 . S
C958 C959 1.369 . S
C958 C960 1.419 . S
C958 H962 0.930 . S
C959 C958 1.369 . S
C959 C968 1.429 . S
C960 C958 1.419 . S
C960 C961 1.363 . S
C960 H963 0.929 . S
C961 C960 1.363 . S
C961 C967 1.428 . S
H962 C958 0.930 . S
H963 C960 0.929 . S
S964 N965 1.613 . S
S964 N966 1.610 . S
N965 S964 1.613 . S
N965 C968 1.350 . S
N966 S964 1.610 . S
N966 C967 1.351 . S
C967 C961 1.428 . S
C967 N966 1.351 . S
C967 C968 1.434 . S
C968 C959 1.429 . S
C968 N965 1.350 . S
C968 C967 1.434 . S
C969 C970 1.369 . S
C969 C971 1.419 . S
C969 H973 0.930 . S
C970 C969 1.369 . S
C970 C979 1.429 . S
C971 C969 1.419 . S
C971 C972 1.363 . S
C971 H974 0.929 . S
C972 C971 1.363 . S
C972 C978 1.428 . S
H973 C969 0.930 . S
H974 C971 0.929 . S
S975 N976 1.613 . S
S975 N977 1.610 . S
N976 S975 1.613 . S
N976 C979 1.350 . S
N977 S975 1.610 . S
N977 C978 1.351 . S
C978 C972 1.428 . S
C978 N977 1.351 . S
C978 C979 1.434 . S
C979 C970 1.429 . S
C979 N976 1.350 . S
C979 C978 1.434 . S
C980 C981 1.369 . S
C980 C982 1.419 . S
C980 H984 0.930 . S
C981 C980 1.369 . S
C981 C990 1.429 . S
C982 C980 1.419 . S
C982 C983 1.363 . S
C982 H985 0.929 . S
C983 C982 1.363 . S
C983 C989 1.428 . S
H984 C980 0.930 . S
H985 C982 0.929 . S
S986 N987 1.613 . S
S986 N988 1.610 . S
N987 S986 1.613 . S
N987 C990 1.350 . S
N988 S986 1.610 . S
N988 C989 1.351 . S
C989 C983 1.428 . S
C989 N988 1.351 . S
C989 C990 1.434 . S
C990 C981 1.429 . S
C990 N987 1.350 . S
C990 C989 1.434 . S
C991 C992 1.369 . S
C991 C993 1.419 . S
C991 H995 0.930 . S
C992 C991 1.369 . S
C992 C1001 1.429 . S
C993 C991 1.419 . S
C993 C994 1.363 . S
C993 H996 0.929 . S
C994 C993 1.363 . S
C994 C1000 1.428 . S
H995 C991 0.930 . S
H996 C993 0.929 . S
S997 N998 1.613 . S
S997 N999 1.610 . S
N998 S997 1.613 . S
N998 C1001 1.350 . S
N999 S997 1.610 . S
N999 C1000 1.351 . S
C1000 C994 1.428 . S
C1000 N999 1.351 . S
C1000 C1001 1.434 . S
C1001 C992 1.429 . S
C1001 N998 1.350 . S
C1001 C1000 1.434 . S
C1002 C1003 1.369 . S
C1002 C1004 1.419 . S
C1002 H1006 0.930 . S
C1003 C1002 1.369 . S
C1003 C1012 1.429 . S
C1004 C1002 1.419 . S
C1004 C1005 1.363 . S
C1004 H1007 0.929 . S
C1005 C1004 1.363 . S
C1005 C1011 1.428 . S
H1006 C1002 0.930 . S
H1007 C1004 0.929 . S
S1008 N1009 1.613 . S
S1008 N1010 1.610 . S
N1009 S1008 1.613 . S
N1009 C1012 1.350 . S
N1010 S1008 1.610 . S
N1010 C1011 1.351 . S
C1011 C1005 1.428 . S
C1011 N1010 1.351 . S
C1011 C1012 1.434 . S
C1012 C1003 1.429 . S
C1012 N1009 1.350 . S
C1012 C1011 1.434 . S
C1013 C1014 1.369 . S
C1013 C1015 1.419 . S
C1013 H1017 0.930 . S
C1014 C1013 1.369 . S
C1014 C1023 1.429 . S
C1015 C1013 1.419 . S
C1015 C1016 1.363 . S
C1015 H1018 0.929 . S
C1016 C1015 1.363 . S
C1016 C1022 1.428 . S
H1017 C1013 0.930 . S
H1018 C1015 0.929 . S
S1019 N1020 1.613 . S
S1019 N1021 1.610 . S
N1020 S1019 1.613 . S
N1020 C1023 1.350 . S
N1021 S1019 1.610 . S
N1021 C1022 1.351 . S
C1022 C1016 1.428 . S
C1022 N1021 1.351 . S
C1022 C1023 1.434 . S
C1023 C1014 1.429 . S
C1023 N1020 1.350 . S
C1023 C1022 1.434 . S
C1024 C1025 1.369 1_556 S
C1024 C1026 1.419 1_565 S
C1024 H1028 0.930 . S
C1025 C1024 1.369 1_554 S
C1025 C1034 1.429 . S
C1026 C1024 1.419 1_545 S
C1026 C1027 1.363 . S
C1026 H1029 0.929 . S
C1027 C1026 1.363 . S
C1027 C1033 1.428 1_556 S
H1028 C1024 0.930 . S
H1029 C1026 0.929 . S
S1030 N1031 1.613 . S
S1030 N1032 1.610 1_565 S
N1031 S1030 1.613 . S
N1031 C1034 1.350 . S
N1032 S1030 1.610 1_545 S
N1032 C1033 1.351 . S
C1033 C1027 1.428 1_554 S
C1033 N1032 1.351 . S
C1033 C1034 1.434 1_545 S
C1034 C1025 1.429 . S
C1034 N1031 1.350 . S
C1034 C1033 1.434 1_565 S
C1035 C1036 1.369 1_554 S
C1035 C1037 1.419 . S
C1035 H1039 0.930 . S
C1036 C1035 1.369 1_556 S
C1036 C1045 1.429 . S
C1037 C1035 1.419 . S
C1037 C1038 1.363 . S
C1037 H1040 0.929 . S
C1038 C1037 1.363 . S
C1038 C1044 1.428 1_554 S
H1039 C1035 0.930 . S
H1040 C1037 0.929 . S
S1041 N1042 1.613 . S
S1041 N1043 1.610 . S
N1042 S1041 1.613 . S
N1042 C1045 1.350 . S
N1043 S1041 1.610 . S
N1043 C1044 1.351 . S
C1044 C1038 1.428 1_556 S
C1044 N1043 1.351 . S
C1044 C1045 1.434 . S
C1045 C1036 1.429 . S
C1045 N1042 1.350 . S
C1045 C1044 1.434 . S
C1046 C1047 1.369 . S
C1046 C1048 1.419 . S
C1046 H1050 0.930 . S
C1047 C1046 1.369 . S
C1047 C1056 1.429 . S
C1048 C1046 1.419 . S
C1048 C1049 1.363 . S
C1048 H1051 0.929 . S
C1049 C1048 1.363 . S
C1049 C1055 1.428 . S
H1050 C1046 0.930 . S
H1051 C1048 0.929 . S
S1052 N1053 1.613 . S
S1052 N1054 1.610 . S
N1053 S1052 1.613 . S
N1053 C1056 1.350 . S
N1054 S1052 1.610 . S
N1054 C1055 1.351 . S
C1055 C1049 1.428 . S
C1055 N1054 1.351 . S
C1055 C1056 1.434 . S
C1056 C1047 1.429 . S
C1056 N1053 1.350 . S
C1056 C1055 1.434 . S
C1057 C1058 1.369 . S
C1057 C1059 1.419 . S
C1057 H1061 0.930 . S
C1058 C1057 1.369 . S
C1058 C1067 1.429 1_565 S
C1059 C1057 1.419 . S
C1059 C1060 1.363 1_565 S
C1059 H1062 0.929 . S
C1060 C1059 1.363 1_545 S
C1060 C1066 1.428 . S
H1061 C1057 0.930 . S
H1062 C1059 0.929 . S
S1063 N1064 1.613 . S
S1063 N1065 1.610 . S
N1064 S1063 1.613 . S
N1064 C1067 1.350 . S
N1065 S1063 1.610 . S
N1065 C1066 1.351 . S
C1066 C1060 1.428 . S
C1066 N1065 1.351 . S
C1066 C1067 1.434 . S
C1067 C1058 1.429 1_545 S
C1067 N1064 1.350 . S
C1067 C1066 1.434 . S
C1068 C1069 1.369 . S
C1068 C1070 1.419 . S
C1068 H1072 0.930 . S
C1069 C1068 1.369 . S
C1069 C1078 1.429 1_554 S
C1070 C1068 1.419 . S
C1070 C1071 1.363 1_554 S
C1070 H1073 0.929 . S
C1071 C1070 1.363 1_556 S
C1071 C1077 1.428 . S
H1072 C1068 0.930 . S
H1073 C1070 0.929 . S
S1074 N1075 1.613 . S
S1074 N1076 1.610 . S
N1075 S1074 1.613 . S
N1075 C1078 1.350 . S
N1076 S1074 1.610 . S
N1076 C1077 1.351 . S
C1077 C1071 1.428 . S
C1077 N1076 1.351 . S
C1077 C1078 1.434 . S
C1078 C1069 1.429 1_556 S
C1078 N1075 1.350 . S
C1078 C1077 1.434 . S
C1079 C1080 1.369 . S
C1079 C1081 1.419 . S
C1079 H1083 0.930 . S
C1080 C1079 1.369 . S
C1080 C1089 1.429 . S
C1081 C1079 1.419 . S
C1081 C1082 1.363 . S
C1081 H1084 0.929 . S
C1082 C1081 1.363 . S
C1082 C1088 1.428 . S
H1083 C1079 0.930 . S
H1084 C1081 0.929 . S
S1085 N1086 1.613 . S
S1085 N1087 1.610 . S
N1086 S1085 1.613 . S
N1086 C1089 1.350 . S
N1087 S1085 1.610 . S
N1087 C1088 1.351 . S
C1088 C1082 1.428 . S
C1088 N1087 1.351 . S
C1088 C1089 1.434 . S
C1089 C1080 1.429 . S
C1089 N1086 1.350 . S
C1089 C1088 1.434 . S
C1090 C1091 1.369 . S
C1090 C1092 1.419 . S
C1090 H1094 0.930 . S
C1091 C1090 1.369 . S
C1091 C1100 1.429 1_545 S
C1092 C1090 1.419 . S
C1092 C1093 1.363 1_545 S
C1092 H1095 0.929 . S
C1093 C1092 1.363 1_565 S
C1093 C1099 1.428 . S
H1094 C1090 0.930 . S
H1095 C1092 0.929 . S
S1096 N1097 1.613 . S
S1096 N1098 1.610 . S
N1097 S1096 1.613 . S
N1097 C1100 1.350 . S
N1098 S1096 1.610 . S
N1098 C1099 1.351 . S
C1099 C1093 1.428 . S
C1099 N1098 1.351 . S
C1099 C1100 1.434 . S
C1100 C1091 1.429 1_565 S
C1100 N1097 1.350 . S
C1100 C1099 1.434 . S
C1101 C1102 1.369 . S
C1101 C1103 1.419 . S
C1101 H1105 0.930 . S
C1102 C1101 1.369 . S
C1102 C1111 1.429 . S
C1103 C1101 1.419 . S
C1103 C1104 1.363 . S
C1103 H1106 0.929 . S
C1104 C1103 1.363 . S
C1104 C1110 1.428 . S
H1105 C1101 0.930 . S
H1106 C1103 0.929 . S
S1107 N1108 1.613 . S
S1107 N1109 1.610 . S
N1108 S1107 1.613 . S
N1108 C1111 1.350 . S
N1109 S1107 1.610 . S
N1109 C1110 1.351 . S
C1110 C1104 1.428 . S
C1110 N1109 1.351 . S
C1110 C1111 1.434 . S
C1111 C1102 1.429 . S
C1111 N1108 1.350 . S
C1111 C1110 1.434 . S
C1112 C1113 1.369 . S
C1112 C1114 1.419 . S
C1112 H1116 0.930 . S
C1113 C1112 1.369 . S
C1113 C1122 1.429 . S
C1114 C1112 1.419 . S
C1114 C1115 1.363 . S
C1114 H1117 0.929 . S
C1115 C1114 1.363 . S
C1115 C1121 1.428 . S
H1116 C1112 0.930 . S
H1117 C1114 0.929 . S
S1118 N1119 1.613 . S
S1118 N1120 1.610 . S
N1119 S1118 1.613 . S
N1119 C1122 1.350 . S
N1120 S1118 1.610 . S
N1120 C1121 1.351 . S
C1121 C1115 1.428 . S
C1121 N1120 1.351 . S
C1121 C1122 1.434 . S
C1122 C1113 1.429 . S
C1122 N1119 1.350 . S
C1122 C1121 1.434 . S
C1123 C1124 1.369 . S
C1123 C1125 1.419 . S
C1123 H1127 0.930 . S
C1124 C1123 1.369 . S
C1124 C1133 1.429 . S
C1125 C1123 1.419 . S
C1125 C1126 1.363 . S
C1125 H1128 0.929 . S
C1126 C1125 1.363 . S
C1126 C1132 1.428 . S
H1127 C1123 0.930 . S
H1128 C1125 0.929 . S
S1129 N1130 1.613 . S
S1129 N1131 1.610 . S
N1130 S1129 1.613 . S
N1130 C1133 1.350 . S
N1131 S1129 1.610 . S
N1131 C1132 1.351 . S
C1132 C1126 1.428 . S
C1132 N1131 1.351 . S
C1132 C1133 1.434 . S
C1133 C1124 1.429 . S
C1133 N1130 1.350 . S
C1133 C1132 1.434 . S
C1134 C1135 1.369 . S
C1134 C1136 1.419 . S
C1134 H1138 0.930 . S
C1135 C1134 1.369 . S
C1135 C1144 1.429 . S
C1136 C1134 1.419 . S
C1136 C1137 1.363 . S
C1136 H1139 0.929 . S
C1137 C1136 1.363 . S
C1137 C1143 1.428 . S
H1138 C1134 0.930 . S
H1139 C1136 0.929 . S
S1140 N1141 1.613 . S
S1140 N1142 1.610 . S
N1141 S1140 1.613 . S
N1141 C1144 1.350 . S
N1142 S1140 1.610 . S
N1142 C1143 1.351 . S
C1143 C1137 1.428 . S
C1143 N1142 1.351 . S
C1143 C1144 1.434 . S
C1144 C1135 1.429 . S
C1144 N1141 1.350 . S
C1144 C1143 1.434 . S
C1145 C1146 1.369 . S
C1145 C1147 1.419 . S
C1145 H1149 0.930 . S
C1146 C1145 1.369 . S
C1146 C1155 1.429 . S
C1147 C1145 1.419 . S
C1147 C1148 1.363 . S
C1147 H1150 0.929 . S
C1148 C1147 1.363 . S
C1148 C1154 1.428 . S
H1149 C1145 0.930 . S
H1150 C1147 0.929 . S
S1151 N1152 1.613 . S
S1151 N1153 1.610 . S
N1152 S1151 1.613 . S
N1152 C1155 1.350 . S
N1153 S1151 1.610 . S
N1153 C1154 1.351 . S
C1154 C1148 1.428 . S
C1154 N1153 1.351 . S
C1154 C1155 1.434 . S
C1155 C1146 1.429 . S
C1155 N1152 1.350 . S
C1155 C1154 1.434 . S
C1156 C1157 1.369 1_655 S
C1156 C1158 1.419 . S
C1156 H1160 0.930 . S
C1157 C1156 1.369 1_455 S
C1157 C1166 1.429 1_565 S
C1158 C1156 1.419 . S
C1158 C1159 1.363 1_565 S
C1158 H1161 0.929 . S
C1159 C1158 1.363 1_545 S
C1159 C1165 1.428 1_655 S
H1160 C1156 0.930 . S
H1161 C1158 0.929 . S
S1162 N1163 1.613 . S
S1162 N1164 1.610 . S
N1163 S1162 1.613 . S
N1163 C1166 1.350 . S
N1164 S1162 1.610 . S
N1164 C1165 1.351 . S
C1165 C1159 1.428 1_455 S
C1165 N1164 1.351 . S
C1165 C1166 1.434 . S
C1166 C1157 1.429 1_545 S
C1166 N1163 1.350 . S
C1166 C1165 1.434 . S
C1167 C1168 1.369 . S
C1167 C1169 1.419 1_455 S
C1167 H1171 0.930 . S
C1168 C1167 1.369 . S
C1168 C1177 1.429 . S
C1169 C1167 1.419 1_655 S
C1169 C1170 1.363 . S
C1169 H1172 0.929 . S
C1170 C1169 1.363 . S
C1170 C1176 1.428 . S
H1171 C1167 0.930 . S
H1172 C1169 0.929 . S
S1173 N1174 1.613 1_655 S
S1173 N1175 1.610 . S
N1174 S1173 1.613 1_455 S
N1174 C1177 1.350 . S
N1175 S1173 1.610 . S
N1175 C1176 1.351 . S
C1176 C1170 1.428 . S
C1176 N1175 1.351 . S
C1176 C1177 1.434 1_655 S
C1177 C1168 1.429 . S
C1177 N1174 1.350 . S
C1177 C1176 1.434 1_455 S
C1178 C1179 1.369 . S
C1178 C1180 1.419 . S
C1178 H1182 0.930 . S
C1179 C1178 1.369 . S
C1179 C1188 1.429 1_655 S
C1180 C1178 1.419 . S
C1180 C1181 1.363 1_655 S
C1180 H1183 0.929 . S
C1181 C1180 1.363 1_455 S
C1181 C1187 1.428 . S
H1182 C1178 0.930 . S
H1183 C1180 0.929 . S
S1184 N1185 1.613 . S
S1184 N1186 1.610 . S
N1185 S1184 1.613 . S
N1185 C1188 1.350 . S
N1186 S1184 1.610 . S
N1186 C1187 1.351 . S
C1187 C1181 1.428 . S
C1187 N1186 1.351 . S
C1187 C1188 1.434 . S
C1188 C1179 1.429 1_455 S
C1188 N1185 1.350 . S
C1188 C1187 1.434 . S
C1189 C1190 1.369 . S
C1189 C1191 1.419 1_655 S
C1189 H1193 0.930 . S
C1190 C1189 1.369 . S
C1190 C1199 1.447 1_556 S
C1191 C1189 1.419 1_455 S
C1191 C1192 1.363 1_556 S
C1191 H1194 0.929 . S
C1192 C1191 1.363 1_554 S
C1192 C1198 1.428 . S
H1193 C1189 0.930 . S
H1194 C1191 0.929 . S
S1195 N1196 1.613 . S
S1195 N1197 1.610 . S
N1196 S1195 1.613 . S
N1196 C1199 1.348 1_455 S
N1197 S1195 1.610 . S
N1197 C1198 1.351 . S
C1198 C1192 1.428 . S
C1198 N1197 1.351 . S
C1198 C1199 1.416 1_455 S
C1199 C1190 1.447 1_554 S
C1199 N1196 1.348 1_655 S
C1199 C1198 1.416 1_655 S
C1200 C1201 1.369 . S
C1200 C1202 1.419 . S
C1200 H1204 0.930 . S
C1201 C1200 1.369 . S
C1201 C1210 1.429 . S
C1202 C1200 1.419 . S
C1202 C1203 1.363 . S
C1202 H1205 0.929 . S
C1203 C1202 1.363 . S
C1203 C1209 1.428 . S
H1204 C1200 0.930 . S
H1205 C1202 0.929 . S
S1206 N1207 1.613 1_565 S
S1206 N1208 1.610 1_565 S
N1207 S1206 1.613 1_545 S
N1207 C1210 1.350 . S
N1208 S1206 1.610 1_545 S
N1208 C1209 1.351 . S
C1209 C1203 1.428 . S
C1209 N1208 1.351 . S
C1209 C1210 1.434 . S
C1210 C1201 1.429 . S
C1210 N1207 1.350 . S
C1210 C1209 1.434 . S
C1211 C1212 1.369 . S
C1211 C1213 1.419 . S
C1211 H1215 0.930 . S
C1212 C1211 1.369 . S
C1212 C1221 1.429 . S
C1213 C1211 1.419 . S
C1213 C1214 1.363 . S
C1213 H1216 0.929 . S
C1214 C1213 1.363 . S
C1214 C1220 1.428 . S
H1215 C1211 0.930 . S
H1216 C1213 0.929 . S
S1217 N1218 1.613 . S
S1217 N1219 1.610 . S
N1218 S1217 1.613 . S
N1218 C1221 1.350 . S
N1219 S1217 1.610 . S
N1219 C1220 1.351 . S
C1220 C1214 1.428 . S
C1220 N1219 1.351 . S
C1220 C1221 1.434 . S
C1221 C1212 1.429 . S
C1221 N1218 1.350 . S
C1221 C1220 1.434 . S
C1222 C1223 1.369 . S
C1222 C1224 1.419 . S
C1222 H1226 0.930 . S
C1223 C1222 1.369 . S
C1223 C1232 1.429 . S
C1224 C1222 1.419 . S
C1224 C1225 1.363 . S
C1224 H1227 0.929 . S
C1225 C1224 1.363 . S
C1225 C1231 1.428 . S
H1226 C1222 0.930 . S
H1227 C1224 0.929 . S
S1228 N1229 1.613 . S
S1228 N1230 1.610 . S
N1229 S1228 1.613 . S
N1229 C1232 1.350 . S
N1230 S1228 1.610 . S
N1230 C1231 1.351 . S
C1231 C1225 1.428 . S
C1231 N1230 1.351 . S
C1231 C1232 1.434 . S
C1232 C1223 1.429 . S
C1232 N1229 1.350 . S
C1232 C1231 1.434 . S
C1233 C1234 1.369 . S
C1233 C1235 1.419 . S
C1233 H1237 0.930 . S
C1234 C1233 1.369 . S
C1234 C1243 1.429 . S
C1235 C1233 1.419 . S
C1235 C1236 1.363 . S
C1235 H1238 0.929 . S
C1236 C1235 1.363 . S
C1236 C1242 1.428 . S
H1237 C1233 0.930 . S
H1238 C1235 0.929 . S
S1239 N1240 1.613 . S
S1239 N1241 1.610 . S
N1240 S1239 1.613 . S
N1240 C1243 1.350 . S
N1241 S1239 1.610 . S
N1241 C1242 1.351 . S
C1242 C1236 1.428 . S
C1242 N1241 1.351 . S
C1242 C1243 1.434 . S
C1243 C1234 1.429 . S
C1243 N1240 1.350 . S
C1243 C1242 1.434 . S
C1244 C1245 1.369 . S
C1244 C1246 1.419 . S
C1244 H1248 0.930 . S
C1245 C1244 1.369 . S
C1245 C1254 1.429 . S
C1246 C1244 1.419 . S
C1246 C1247 1.363 . S
C1246 H1249 0.929 . S
C1247 C1246 1.363 . S
C1247 C1253 1.428 . S
H1248 C1244 0.930 . S
H1249 C1246 0.929 . S
S1250 N1251 1.613 . S
S1250 N1252 1.610 . S
N1251 S1250 1.613 . S
N1251 C1254 1.350 . S
N1252 S1250 1.610 . S
N1252 C1253 1.351 . S
C1253 C1247 1.428 . S
C1253 N1252 1.351 . S
C1253 C1254 1.434 . S
C1254 C1245 1.429 . S
C1254 N1251 1.350 . S
C1254 C1253 1.434 . S
C1255 C1256 1.369 . S
C1255 C1257 1.419 . S
C1255 H1259 0.930 . S
C1256 C1255 1.369 . S
C1256 C1265 1.429 . S
C1257 C1255 1.419 . S
C1257 C1258 1.363 . S
C1257 H1260 0.929 . S
C1258 C1257 1.363 . S
C1258 C1264 1.428 . S
H1259 C1255 0.930 . S
H1260 C1257 0.929 . S
S1261 N1262 1.613 . S
S1261 N1263 1.610 . S
N1262 S1261 1.613 . S
N1262 C1265 1.350 . S
N1263 S1261 1.610 . S
N1263 C1264 1.351 . S
C1264 C1258 1.428 . S
C1264 N1263 1.351 . S
C1264 C1265 1.434 . S
C1265 C1256 1.429 . S
C1265 N1262 1.350 . S
C1265 C1264 1.434 . S
C1266 C1267 1.369 . S
C1266 C1268 1.419 . S
C1266 H1270 0.930 . S
C1267 C1266 1.369 . S
C1267 C1276 1.429 . S
C1268 C1266 1.419 . S
C1268 C1269 1.363 . S
C1268 H1271 0.929 . S
C1269 C1268 1.363 . S
C1269 C1275 1.428 . S
H1270 C1266 0.930 . S
H1271 C1268 0.929 . S
S1272 N1273 1.613 . S
S1272 N1274 1.610 . S
N1273 S1272 1.613 . S
N1273 C1276 1.350 . S
N1274 S1272 1.610 . S
N1274 C1275 1.351 . S
C1275 C1269 1.428 . S
C1275 N1274 1.351 . S
C1275 C1276 1.434 . S
C1276 C1267 1.429 . S
C1276 N1273 1.350 . S
C1276 C1275 1.434 . S
C1277 C1278 1.369 . S
C1277 C1279 1.419 . S
C1277 H1281 0.930 . S
C1278 C1277 1.369 . S
C1278 C1287 1.429 . S
C1279 C1277 1.419 . S
C1279 C1280 1.363 . S
C1279 H1282 0.929 . S
C1280 C1279 1.363 . S
C1280 C1286 1.428 . S
H1281 C1277 0.930 . S
H1282 C1279 0.929 . S
S1283 N1284 1.613 . S
S1283 N1285 1.610 . S
N1284 S1283 1.613 . S
N1284 C1287 1.350 . S
N1285 S1283 1.610 . S
N1285 C1286 1.351 . S
C1286 C1280 1.428 . S
C1286 N1285 1.351 . S
C1286 C1287 1.434 . S
C1287 C1278 1.429 . S
C1287 N1284 1.350 . S
C1287 C1286 1.434 . S
C1288 C1289 1.369 . S
C1288 C1290 1.419 . S
C1288 H1292 0.930 . S
C1289 C1288 1.369 . S
C1289 C1298 1.429 . S
C1290 C1288 1.419 . S
C1290 C1291 1.363 . S
C1290 H1293 0.929 . S
C1291 C1290 1.363 . S
C1291 C1297 1.428 . S
H1292 C1288 0.930 . S
H1293 C1290 0.929 . S
S1294 N1295 1.613 . S
S1294 N1296 1.610 . S
N1295 S1294 1.613 . S
N1295 C1298 1.350 . S
N1296 S1294 1.610 . S
N1296 C1297 1.351 . S
C1297 C1291 1.428 . S
C1297 N1296 1.351 . S
C1297 C1298 1.434 . S
C1298 C1289 1.429 . S
C1298 N1295 1.350 . S
C1298 C1297 1.434 . S
C1299 C1300 1.369 . S
C1299 C1301 1.419 . S
C1299 H1303 0.930 . S
C1300 C1299 1.369 . S
C1300 C1309 1.429 . S
C1301 C1299 1.419 . S
C1301 C1302 1.363 . S
C1301 H1304 0.929 . S
C1302 C1301 1.363 . S
C1302 C1308 1.428 . S
H1303 C1299 0.930 . S
H1304 C1301 0.929 . S
S1305 N1306 1.613 . S
S1305 N1307 1.610 . S
N1306 S1305 1.613 . S
N1306 C1309 1.350 . S
N1307 S1305 1.610 . S
N1307 C1308 1.351 . S
C1308 C1302 1.428 . S
C1308 N1307 1.351 . S
C1308 C1309 1.434 . S
C1309 C1300 1.429 . S
C1309 N1306 1.350 . S
C1309 C1308 1.434 . S
C1310 C1311 1.369 . S
C1310 C1312 1.419 . S
C1310 H1314 0.930 . S
C1311 C1310 1.369 . S
C1311 C1320 1.429 . S
C1312 C1310 1.419 . S
C1312 C1313 1.363 . S
C1312 H1315 0.929 . S
C1313 C1312 1.363 . S
C1313 C1319 1.428 . S
H1314 C1310 0.930 . S
H1315 C1312 0.929 . S
S1316 N1317 1.613 . S
S1316 N1318 1.610 . S
N1317 S1316 1.613 . S
N1317 C1320 1.350 . S
N1318 S1316 1.610 . S
N1318 C1319 1.351 . S
C1319 C1313 1.428 . S
C1319 N1318 1.351 . S
C1319 C1320 1.434 . S
C1320 C1311 1.429 . S
C1320 N1317 1.350 . S
C1320 C1319 1.434 . S
C1321 C1322 1.369 . S
C1321 C1323 1.419 . S
C1321 H1325 0.930 . S
C1322 C1321 1.369 . S
C1322 C1331 1.429 . S
C1323 C1321 1.419 . S
C1323 C1324 1.363 . S
C1323 H1326 0.929 . S
C1324 C1323 1.363 . S
C1324 C1330 1.428 . S
H1325 C1321 0.930 . S
H1326 C1323 0.929 . S
S1327 N1328 1.613 . S
S1327 N1329 1.610 . S
N1328 S1327 1.613 . S
N1328 C1331 1.350 . S
N1329 S1327 1.610 . S
N1329 C1330 1.351 . S
C1330 C1324 1.428 . S
C1330 N1329 1.351 . S
C1330 C1331 1.434 . S
C1331 C1322 1.429 . S
C1331 N1328 1.350 . S
C1331 C1330 1.434 . S
C1332 C1333 1.369 . S
C1332 C1334 1.419 . S
C1332 H1336 0.930 . S
C1333 C1332 1.369 . S
C1333 C1342 1.429 . S
C1334 C1332 1.419 . S
C1334 C1335 1.363 . S
C1334 H1337 0.929 . S
C1335 C1334 1.363 . S
C1335 C1341 1.428 . S
H1336 C1332 0.930 . S
H1337 C1334 0.929 . S
S1338 N1339 1.613 . S
S1338 N1340 1.610 . S
N1339 S1338 1.613 . S
N1339 C1342 1.350 . S
N1340 S1338 1.610 . S
N1340 C1341 1.351 . S
C1341 C1335 1.428 . S
C1341 N1340 1.351 . S
C1341 C1342 1.434 . S
C1342 C1333 1.429 . S
C1342 N1339 1.350 . S
C1342 C1341 1.434 . S
C1343 C1344 1.369 . S
C1343 C1345 1.419 . S
C1343 H1347 0.930 . S
C1344 C1343 1.369 . S
C1344 C1353 1.429 . S
C1345 C1343 1.419 . S
C1345 C1346 1.363 . S
C1345 H1348 0.929 . S
C1346 C1345 1.363 . S
C1346 C1352 1.428 . S
H1347 C1343 0.930 . S
H1348 C1345 0.929 . S
S1349 N1350 1.613 . S
S1349 N1351 1.610 . S
N1350 S1349 1.613 . S
N1350 C1353 1.350 . S
N1351 S1349 1.610 . S
N1351 C1352 1.351 . S
C1352 C1346 1.428 . S
C1352 N1351 1.351 . S
C1352 C1353 1.434 . S
C1353 C1344 1.429 . S
C1353 N1350 1.350 . S
C1353 C1352 1.434 . S
C1354 C1355 1.369 . S
C1354 C1356 1.419 . S
C1354 H1358 0.930 . S
C1355 C1354 1.369 . S
C1355 C1364 1.429 . S
C1356 C1354 1.419 . S
C1356 C1357 1.363 . S
C1356 H1359 0.929 . S
C1357 C1356 1.363 . S
C1357 C1363 1.428 . S
H1358 C1354 0.930 . S
H1359 C1356 0.929 . S
S1360 N1361 1.613 . S
S1360 N1362 1.610 . S
N1361 S1360 1.613 . S
N1361 C1364 1.350 . S
N1362 S1360 1.610 . S
N1362 C1363 1.351 . S
C1363 C1357 1.428 . S
C1363 N1362 1.351 . S
C1363 C1364 1.434 . S
C1364 C1355 1.429 . S
C1364 N1361 1.350 . S
C1364 C1363 1.434 . S
C1365 C1366 1.369 . S
C1365 C1367 1.419 . S
C1365 H1369 0.930 . S
C1366 C1365 1.369 . S
C1366 C1375 1.429 . S
C1367 C1365 1.419 . S
C1367 C1368 1.363 . S
C1367 H1370 0.929 . S
C1368 C1367 1.363 . S
C1368 C1374 1.428 . S
H1369 C1365 0.930 . S
H1370 C1367 0.929 . S
S1371 N1372 1.613 . S
S1371 N1373 1.610 . S
N1372 S1371 1.613 . S
N1372 C1375 1.350 . S
N1373 S1371 1.610 . S
N1373 C1374 1.351 . S
C1374 C1368 1.428 . S
C1374 N1373 1.351 . S
C1374 C1375 1.434 . S
C1375 C1366 1.429 . S
C1375 N1372 1.350 . S
C1375 C1374 1.434 . S
C1376 C1377 1.369 . S
C1376 C1378 1.419 . S
C1376 H1380 0.930 . S
C1377 C1376 1.369 . S
C1377 C1386 1.429 1_556 S
C1378 C1376 1.419 . S
C1378 C1379 1.363 . S
C1378 H1381 0.929 . S
C1379 C1378 1.363 . S
C1379 C1385 1.428 1_556 S
H1380 C1376 0.930 . S
H1381 C1378 0.929 . S
S1382 N1383 1.613 . S
S1382 N1384 1.610 1_565 S
N1383 S1382 1.613 . S
N1383 C1386 1.350 1_565 S
N1384 S1382 1.610 1_545 S
N1384 C1385 1.351 . S
C1385 C1379 1.428 1_554 S
C1385 N1384 1.351 . S
C1385 C1386 1.434 . S
C1386 C1377 1.429 1_554 S
C1386 N1383 1.350 1_545 S
C1386 C1385 1.434 . S
C1387 C1388 1.369 . S
C1387 C1389 1.419 . S
C1387 H1391 0.930 . S
C1388 C1387 1.369 . S
C1388 C1397 1.427 . S
C1389 C1387 1.419 . S
C1389 C1390 1.363 . S
C1389 H1392 0.929 . S
C1390 C1389 1.363 . S
C1390 C1396 1.429 1_556 S
H1391 C1387 0.930 . S
H1392 C1389 0.929 . S
S1393 N1394 1.613 1_655 S
S1393 N1395 1.610 . S
N1394 S1393 1.613 1_455 S
N1394 C1397 1.351 1_554 S
N1395 S1393 1.610 . S
N1395 C1396 1.331 1_655 S
C1396 C1390 1.429 1_554 S
C1396 N1395 1.331 1_455 S
C1396 C1397 1.455 1_554 S
C1397 C1388 1.427 . S
C1397 N1394 1.351 1_556 S
C1397 C1396 1.455 1_556 S
C1398 C1399 1.369 . S
C1398 C1400 1.419 . S
C1398 H1402 0.930 . S
C1399 C1398 1.369 . S
C1399 C1408 1.429 . S
C1400 C1398 1.419 . S
C1400 C1401 1.363 . S
C1400 H1403 0.929 . S
C1401 C1400 1.363 . S
C1401 C1407 1.428 . S
H1402 C1398 0.930 . S
H1403 C1400 0.929 . S
S1404 N1405 1.613 . S
S1404 N1406 1.610 . S
N1405 S1404 1.613 . S
N1405 C1408 1.350 . S
N1406 S1404 1.610 . S
N1406 C1407 1.351 . S
C1407 C1401 1.428 . S
C1407 N1406 1.351 . S
C1407 C1408 1.434 . S
C1408 C1399 1.429 . S
C1408 N1405 1.350 . S
C1408 C1407 1.434 . S
C1409 C1410 1.369 . S
C1409 C1411 1.419 . S
C1409 H1413 0.930 . S
C1410 C1409 1.369 . S
C1410 C1419 1.429 . S
C1411 C1409 1.419 . S
C1411 C1412 1.363 . S
C1411 H1414 0.929 . S
C1412 C1411 1.363 . S
C1412 C1418 1.428 . S
H1413 C1409 0.930 . S
H1414 C1411 0.929 . S
S1415 N1416 1.613 1_455 S
S1415 N1417 1.610 . S
N1416 S1415 1.613 1_655 S
N1416 C1419 1.350 1_655 S
N1417 S1415 1.610 . S
N1417 C1418 1.351 . S
C1418 C1412 1.428 . S
C1418 N1417 1.351 . S
C1418 C1419 1.434 . S
C1419 C1410 1.429 . S
C1419 N1416 1.350 1_455 S
C1419 C1418 1.434 . S
C1420 C1421 1.369 . S
C1420 C1422 1.419 . S
C1420 H1424 0.930 . S
C1421 C1420 1.369 . S
C1421 C1430 1.429 1_554 S
C1422 C1420 1.419 . S
C1422 C1423 1.363 . S
C1422 H1425 0.929 . S
C1423 C1422 1.363 . S
C1423 C1429 1.428 1_554 S
H1424 C1420 0.930 . S
H1425 C1422 0.929 . S
S1426 N1427 1.613 1_545 S
S1426 N1428 1.610 . S
N1427 S1426 1.613 1_565 S
N1427 C1430 1.350 . S
N1428 S1426 1.610 . S
N1428 C1429 1.351 1_545 S
C1429 C1423 1.428 1_556 S
C1429 N1428 1.351 1_565 S
C1429 C1430 1.434 . S
C1430 C1421 1.429 1_556 S
C1430 N1427 1.350 . S
C1430 C1429 1.434 . S
C1431 C1432 1.369 . S
C1431 C1433 1.419 . S
C1431 H1435 0.930 . S
C1432 C1431 1.369 . S
C1432 C1441 1.429 1_554 S
C1433 C1431 1.419 . S
C1433 C1434 1.363 . S
C1433 H1436 0.929 . S
C1434 C1433 1.363 . S
C1434 C1440 1.428 1_554 S
H1435 C1431 0.930 . S
H1436 C1433 0.929 . S
S1437 N1438 1.613 . S
S1437 N1439 1.610 1_455 S
N1438 S1437 1.613 . S
N1438 C1441 1.350 1_455 S
N1439 S1437 1.610 1_655 S
N1439 C1440 1.351 . S
C1440 C1434 1.428 1_556 S
C1440 N1439 1.351 . S
C1440 C1441 1.434 . S
C1441 C1432 1.429 1_556 S
C1441 N1438 1.350 1_655 S
C1441 C1440 1.434 . S
C1442 C1443 1.369 . S
C1442 C1444 1.419 . S
C1442 H1446 0.930 . S
C1443 C1442 1.369 . S
C1443 C1452 1.429 . S
C1444 C1442 1.419 . S
C1444 C1445 1.363 . S
C1444 H1447 0.929 . S
C1445 C1444 1.363 . S
C1445 C1451 1.428 . S
H1446 C1442 0.930 . S
H1447 C1444 0.929 . S
S1448 N1449 1.613 . S
S1448 N1450 1.610 . S
N1449 S1448 1.613 . S
N1449 C1452 1.350 . S
N1450 S1448 1.610 . S
N1450 C1451 1.351 . S
C1451 C1445 1.428 . S
C1451 N1450 1.351 . S
C1451 C1452 1.434 . S
C1452 C1443 1.429 . S
C1452 N1449 1.350 . S
C1452 C1451 1.434 . S
C1453 C1454 1.369 . S
C1453 C1455 1.419 . S
C1453 H1457 0.930 . S
C1454 C1453 1.369 . S
C1454 C1463 1.429 . S
C1455 C1453 1.419 . S
C1455 C1456 1.363 . S
C1455 H1458 0.929 . S
C1456 C1455 1.363 . S
C1456 C1462 1.428 . S
H1457 C1453 0.930 . S
H1458 C1455 0.929 . S
S1459 N1460 1.613 . S
S1459 N1461 1.610 . S
N1460 S1459 1.613 . S
N1460 C1463 1.350 . S
N1461 S1459 1.610 . S
N1461 C1462 1.351 . S
C1462 C1456 1.428 . S
C1462 N1461 1.351 . S
C1462 C1463 1.434 . S
C1463 C1454 1.429 . S
C1463 N1460 1.350 . S
C1463 C1462 1.434 . S
C1464 C1465 1.369 . S
C1464 C1466 1.419 . S
C1464 H1468 0.930 . S
C1465 C1464 1.369 . S
C1465 C1474 1.429 . S
C1466 C1464 1.419 . S
C1466 C1467 1.363 . S
C1466 H1469 0.929 . S
C1467 C1466 1.363 . S
C1467 C1473 1.428 . S
H1468 C1464 0.930 . S
H1469 C1466 0.929 . S
S1470 N1471 1.613 . S
S1470 N1472 1.610 . S
N1471 S1470 1.613 . S
N1471 C1474 1.350 . S
N1472 S1470 1.610 . S
N1472 C1473 1.351 . S
C1473 C1467 1.428 . S
C1473 N1472 1.351 . S
C1473 C1474 1.434 . S
C1474 C1465 1.429 . S
C1474 N1471 1.350 . S
C1474 C1473 1.434 . S
C1475 C1476 1.369 . S
C1475 C1477 1.419 . S
C1475 H1479 0.930 . S
C1476 C1475 1.369 . S
C1476 C1485 1.429 . S
C1477 C1475 1.419 . S
C1477 C1478 1.363 . S
C1477 H1480 0.929 1_455 S
C1478 C1477 1.363 . S
C1478 C1484 1.428 . S
H1479 C1475 0.930 . S
H1480 C1477 0.929 1_655 S
S1481 N1482 1.613 . S
S1481 N1483 1.610 . S
N1482 S1481 1.613 . S
N1482 C1485 1.350 . S
N1483 S1481 1.610 . S
N1483 C1484 1.351 . S
C1484 C1478 1.428 . S
C1484 N1483 1.351 . S
C1484 C1485 1.434 . S
C1485 C1476 1.429 . S
C1485 N1482 1.350 . S
C1485 C1484 1.434 . S
C1486 C1487 1.369 . S
C1486 C1488 1.419 . S
C1486 H1490 0.930 . S
C1487 C1486 1.369 . S
C1487 C1496 1.429 . S
C1488 C1486 1.419 . S
C1488 C1489 1.363 . S
C1488 H1491 0.929 . S
C1489 C1488 1.363 . S
C1489 C1495 1.428 . S
H1490 C1486 0.930 . S
H1491 C1488 0.929 . S
S1492 N1493 1.613 . S
S1492 N1494 1.610 . S
N1493 S1492 1.613 . S
N1493 C1496 1.350 . S
N1494 S1492 1.610 . S
N1494 C1495 1.351 . S
C1495 C1489 1.428 . S
C1495 N1494 1.351 . S
C1495 C1496 1.434 . S
C1496 C1487 1.429 . S
C1496 N1493 1.350 . S
C1496 C1495 1.434 . S
C1497 C1498 1.369 . S
C1497 C1499 1.419 . S
C1497 H1501 0.930 . S
C1498 C1497 1.369 . S
C1498 C1507 1.429 . S
C1499 C1497 1.419 . S
C1499 C1500 1.363 . S
C1499 H1502 0.929 1_455 S
C1500 C1499 1.363 . S
C1500 C1506 1.428 . S
H1501 C1497 0.930 . S
H1502 C1499 0.929 1_655 S
S1503 N1504 1.613 . S
S1503 N1505 1.610 . S
N1504 S1503 1.613 . S
N1504 C1507 1.350 . S
N1505 S1503 1.610 . S
N1505 C1506 1.351 . S
C1506 C1500 1.428 . S
C1506 N1505 1.351 . S
C1506 C1507 1.434 . S
C1507 C1498 1.429 . S
C1507 N1504 1.350 . S
C1507 C1506 1.434 . S
C1508 C1509 1.369 . S
C1508 C1510 1.419 . S
C1508 H1512 0.930 . S
C1509 C1508 1.369 . S
C1509 C1518 1.429 . S
C1510 C1508 1.419 . S
C1510 C1511 1.363 . S
C1510 H1513 0.929 . S
C1511 C1510 1.363 . S
C1511 C1517 1.428 . S
H1512 C1508 0.930 . S
H1513 C1510 0.929 . S
S1514 N1515 1.613 . S
S1514 N1516 1.610 . S
N1515 S1514 1.613 . S
N1515 C1518 1.350 . S
N1516 S1514 1.610 . S
N1516 C1517 1.351 . S
C1517 C1511 1.428 . S
C1517 N1516 1.351 . S
C1517 C1518 1.434 . S
C1518 C1509 1.429 . S
C1518 N1515 1.350 . S
C1518 C1517 1.434 . S
C1519 C1520 1.369 . S
C1519 C1521 1.419 . S
C1519 H1523 0.930 . S
C1520 C1519 1.369 . S
C1520 C1529 1.428 1_655 S
C1521 C1519 1.419 . S
C1521 C1522 1.363 . S
C1521 H1524 0.929 . S
C1522 C1521 1.363 . S
C1522 C1528 1.428 . S
H1523 C1519 0.930 . S
H1524 C1521 0.929 . S
S1525 N1526 1.613 . S
S1525 N1527 1.610 1_455 S
N1526 S1525 1.613 . S
N1526 C1529 1.363 . S
N1527 S1525 1.610 1_655 S
N1527 C1528 1.351 . S
C1528 C1522 1.428 . S
C1528 N1527 1.351 . S
C1528 C1529 1.421 1_655 S
C1529 C1520 1.428 1_455 S
C1529 N1526 1.363 . S
C1529 C1528 1.421 1_455 S
C1530 C1531 1.369 . S
C1530 C1532 1.419 . S
C1530 H1534 0.930 . S
C1531 C1530 1.369 . S
C1531 C1540 1.429 . S
C1532 C1530 1.419 . S
C1532 C1533 1.363 . S
C1532 H1535 0.929 . S
C1533 C1532 1.363 . S
C1533 C1539 1.428 . S
H1534 C1530 0.930 . S
H1535 C1532 0.929 . S
S1536 N1537 1.613 . S
S1536 N1538 1.610 . S
N1537 S1536 1.613 . S
N1537 C1540 1.350 . S
N1538 S1536 1.610 . S
N1538 C1539 1.351 . S
C1539 C1533 1.428 . S
C1539 N1538 1.351 . S
C1539 C1540 1.434 . S
C1540 C1531 1.429 . S
C1540 N1537 1.350 . S
C1540 C1539 1.434 . S
C1541 C1542 1.369 . S
C1541 C1543 1.419 . S
C1541 H1545 0.930 . S
C1542 C1541 1.369 . S
C1542 C1551 1.429 . S
C1543 C1541 1.419 . S
C1543 C1544 1.363 . S
C1543 H1546 0.929 . S
C1544 C1543 1.363 . S
C1544 C1550 1.428 . S
H1545 C1541 0.930 . S
H1546 C1543 0.929 . S
S1547 N1548 1.613 1_455 S
S1547 N1549 1.610 . S
N1548 S1547 1.613 1_655 S
N1548 C1551 1.350 . S
N1549 S1547 1.610 . S
N1549 C1550 1.351 1_455 S
C1550 C1544 1.428 . S
C1550 N1549 1.351 1_655 S
C1550 C1551 1.434 . S
C1551 C1542 1.429 . S
C1551 N1548 1.350 . S
C1551 C1550 1.434 . S
C1552 C1553 1.369 . S
C1552 C1554 1.419 . S
C1552 H1556 0.930 . S
C1553 C1552 1.369 . S
C1553 C1562 1.429 . S
C1554 C1552 1.419 . S
C1554 C1555 1.363 . S
C1554 H1557 0.929 . S
C1555 C1554 1.363 . S
C1555 C1561 1.428 1_545 S
H1556 C1552 0.930 . S
H1557 C1554 0.929 . S
S1558 N1559 1.613 1_565 S
S1558 N1560 1.610 . S
N1559 S1558 1.613 1_545 S
N1559 C1562 1.350 . S
N1560 S1558 1.610 . S
N1560 C1561 1.351 . S
C1561 C1555 1.428 1_565 S
C1561 N1560 1.351 . S
C1561 C1562 1.434 1_565 S
C1562 C1553 1.429 . S
C1562 N1559 1.350 . S
C1562 C1561 1.434 1_545 S
C1563 C1564 1.369 . S
C1563 C1565 1.419 . S
C1563 H1567 0.930 . S
C1564 C1563 1.369 . S
C1564 C1573 1.429 . S
C1565 C1563 1.419 . S
C1565 C1566 1.363 . S
C1565 H1568 0.929 . S
C1566 C1565 1.363 . S
C1566 C1572 1.428 . S
H1567 C1563 0.930 . S
H1568 C1565 0.929 . S
S1569 N1570 1.613 . S
S1569 N1571 1.610 . S
N1570 S1569 1.613 . S
N1570 C1573 1.350 . S
N1571 S1569 1.610 . S
N1571 C1572 1.351 . S
C1572 C1566 1.428 . S
C1572 N1571 1.351 . S
C1572 C1573 1.434 . S
C1573 C1564 1.429 . S
C1573 N1570 1.350 . S
C1573 C1572 1.434 . S
C1574 C1575 1.369 . S
C1574 C1576 1.419 . S
C1574 H1578 0.930 . S
C1575 C1574 1.369 . S
C1575 C1584 1.429 . S
C1576 C1574 1.419 . S
C1576 C1577 1.363 . S
C1576 H1579 0.929 . S
C1577 C1576 1.363 . S
C1577 C1583 1.428 . S
H1578 C1574 0.930 . S
H1579 C1576 0.929 . S
S1580 N1581 1.613 . S
S1580 N1582 1.610 . S
N1581 S1580 1.613 . S
N1581 C1584 1.350 . S
N1582 S1580 1.610 . S
N1582 C1583 1.351 . S
C1583 C1577 1.428 . S
C1583 N1582 1.351 . S
C1583 C1584 1.434 . S
C1584 C1575 1.429 . S
C1584 N1581 1.350 . S
C1584 C1583 1.434 . S
C1585 C1586 1.369 . S
C1585 C1587 1.419 . S
C1585 H1589 0.930 . S
C1586 C1585 1.369 . S
C1586 C1595 1.429 . S
C1587 C1585 1.419 . S
C1587 C1588 1.363 . S
C1587 H1590 0.929 . S
C1588 C1587 1.363 . S
C1588 C1594 1.428 . S
H1589 C1585 0.930 . S
H1590 C1587 0.929 . S
S1591 N1592 1.613 . S
S1591 N1593 1.610 . S
N1592 S1591 1.613 . S
N1592 C1595 1.350 . S
N1593 S1591 1.610 . S
N1593 C1594 1.351 . S
C1594 C1588 1.428 . S
C1594 N1593 1.351 . S
C1594 C1595 1.434 . S
C1595 C1586 1.429 . S
C1595 N1592 1.350 . S
C1595 C1594 1.434 . S
C1596 C1597 1.369 . S
C1596 C1598 1.427 . S
C1596 H1600 0.930 . S
C1597 C1596 1.369 . S
C1597 C1606 1.429 . S
C1598 C1596 1.427 . S
C1598 C1599 1.368 . S
C1598 H1601 0.915 1_565 S
C1599 C1598 1.368 . S
C1599 C1605 1.428 . S
H1600 C1596 0.930 . S
H1601 C1598 0.915 1_545 S
S1602 N1603 1.613 . S
S1602 N1604 1.610 . S
N1603 S1602 1.613 . S
N1603 C1606 1.350 . S
N1604 S1602 1.610 . S
N1604 C1605 1.351 . S
C1605 C1599 1.428 . S
C1605 N1604 1.351 . S
C1605 C1606 1.434 . S
C1606 C1597 1.429 . S
C1606 N1603 1.350 . S
C1606 C1605 1.434 . S
C1607 C1608 1.369 . S
C1607 C1609 1.419 . S
C1607 H1611 0.930 . S
C1608 C1607 1.369 . S
C1608 C1617 1.429 . S
C1609 C1607 1.419 . S
C1609 C1610 1.363 . S
C1609 H1612 0.929 . S
C1610 C1609 1.363 . S
C1610 C1616 1.428 . S
H1611 C1607 0.930 . S
H1612 C1609 0.929 . S
S1613 N1614 1.613 . S
S1613 N1615 1.610 . S
N1614 S1613 1.613 . S
N1614 C1617 1.350 . S
N1615 S1613 1.610 . S
N1615 C1616 1.351 . S
C1616 C1610 1.428 . S
C1616 N1615 1.351 . S
C1616 C1617 1.434 . S
C1617 C1608 1.429 . S
C1617 N1614 1.350 . S
C1617 C1616 1.434 . S
C1618 C1619 1.369 . S
C1618 C1620 1.419 . S
C1618 H1622 0.930 . S
C1619 C1618 1.369 . S
C1619 C1628 1.429 . S
C1620 C1618 1.419 . S
C1620 C1621 1.363 . S
C1620 H1623 0.929 . S
C1621 C1620 1.363 . S
C1621 C1627 1.428 . S
H1622 C1618 0.930 . S
H1623 C1620 0.929 . S
S1624 N1625 1.613 . S
S1624 N1626 1.610 . S
N1625 S1624 1.613 . S
N1625 C1628 1.350 . S
N1626 S1624 1.610 . S
N1626 C1627 1.351 . S
C1627 C1621 1.428 . S
C1627 N1626 1.351 . S
C1627 C1628 1.434 . S
C1628 C1619 1.429 . S
C1628 N1625 1.350 . S
C1628 C1627 1.434 . S
C1629 C1630 1.369 . S
C1629 C1631 1.419 . S
C1629 H1633 0.930 . S
C1630 C1629 1.369 . S
C1630 C1639 1.429 . S
C1631 C1629 1.419 . S
C1631 C1632 1.363 . S
C1631 H1634 0.929 . S
C1632 C1631 1.363 . S
C1632 C1638 1.428 1_565 S
H1633 C1629 0.930 . S
H1634 C1631 0.929 . S
S1635 N1636 1.613 1_545 S
S1635 N1637 1.610 . S
N1636 S1635 1.613 1_565 S
N1636 C1639 1.350 . S
N1637 S1635 1.610 . S
N1637 C1638 1.351 . S
C1638 C1632 1.428 1_545 S
C1638 N1637 1.351 . S
C1638 C1639 1.434 1_545 S
C1639 C1630 1.429 . S
C1639 N1636 1.350 . S
C1639 C1638 1.434 1_565 S
C1640 C1641 1.369 . S
C1640 C1642 1.419 . S
C1640 H1644 0.930 . S
C1641 C1640 1.369 . S
C1641 C1650 1.429 1_556 S
C1642 C1640 1.419 . S
C1642 C1643 1.363 . S
C1642 H1645 0.929 . S
C1643 C1642 1.363 . S
C1643 C1649 1.428 1_556 S
H1644 C1640 0.930 . S
H1645 C1642 0.929 . S
S1646 N1647 1.613 . S
S1646 N1648 1.610 . S
N1647 S1646 1.613 . S
N1647 C1650 1.350 . S
N1648 S1646 1.610 . S
N1648 C1649 1.351 . S
C1649 C1643 1.428 1_554 S
C1649 N1648 1.351 . S
C1649 C1650 1.434 . S
C1650 C1641 1.429 1_554 S
C1650 N1647 1.350 . S
C1650 C1649 1.434 . S
C1651 C1652 1.369 1_554 S
C1651 C1653 1.419 . S
C1651 H1655 0.930 . S
C1652 C1651 1.369 1_556 S
C1652 C1661 1.429 . S
C1653 C1651 1.419 . S
C1653 C1654 1.363 1_554 S
C1653 H1656 0.929 . S
C1654 C1653 1.363 1_556 S
C1654 C1660 1.428 . S
H1655 C1651 0.930 . S
H1656 C1653 0.929 . S
S1657 N1658 1.613 . S
S1657 N1659 1.610 . S
N1658 S1657 1.613 . S
N1658 C1661 1.350 . S
N1659 S1657 1.610 . S
N1659 C1660 1.351 . S
C1660 C1654 1.428 . S
C1660 N1659 1.351 . S
C1660 C1661 1.434 . S
C1661 C1652 1.429 . S
C1661 N1658 1.350 . S
C1661 C1660 1.434 . S
C1662 C1663 1.369 . S
C1662 C1664 1.419 . S
C1662 H1666 0.930 . S
C1663 C1662 1.369 . S
C1663 C1672 1.429 . S
C1664 C1662 1.419 . S
C1664 C1665 1.363 . S
C1664 H1667 0.929 . S
C1665 C1664 1.363 . S
C1665 C1671 1.428 . S
H1666 C1662 0.930 . S
H1667 C1664 0.929 . S
S1668 N1669 1.613 . S
S1668 N1670 1.610 . S
N1669 S1668 1.613 . S
N1669 C1672 1.350 . S
N1670 S1668 1.610 . S
N1670 C1671 1.351 . S
C1671 C1665 1.428 . S
C1671 N1670 1.351 . S
C1671 C1672 1.434 . S
C1672 C1663 1.429 . S
C1672 N1669 1.350 . S
C1672 C1671 1.434 . S
C1673 C1674 1.369 . S
C1673 C1675 1.419 . S
C1673 H1677 0.930 . S
C1674 C1673 1.369 . S
C1674 C1683 1.429 . S
C1675 C1673 1.419 . S
C1675 C1676 1.363 . S
C1675 H1678 0.929 . S
C1676 C1675 1.363 . S
C1676 C1682 1.428 . S
H1677 C1673 0.930 . S
H1678 C1675 0.929 . S
S1679 N1680 1.613 . S
S1679 N1681 1.610 . S
N1680 S1679 1.613 . S
N1680 C1683 1.350 . S
N1681 S1679 1.610 . S
N1681 C1682 1.351 . S
C1682 C1676 1.428 . S
C1682 N1681 1.351 . S
C1682 C1683 1.434 . S
C1683 C1674 1.429 . S
C1683 N1680 1.350 . S
C1683 C1682 1.434 . S
C1684 C1685 1.369 . S
C1684 C1686 1.419 . S
C1684 H1688 0.930 . S
C1685 C1684 1.369 . S
C1685 C1694 1.429 1_554 S
C1686 C1684 1.419 . S
C1686 C1687 1.363 . S
C1686 H1689 0.929 . S
C1687 C1686 1.363 . S
C1687 C1693 1.428 1_554 S
H1688 C1684 0.930 . S
H1689 C1686 0.929 . S
S1690 N1691 1.613 . S
S1690 N1692 1.610 . S
N1691 S1690 1.613 . S
N1691 C1694 1.350 . S
N1692 S1690 1.610 . S
N1692 C1693 1.351 . S
C1693 C1687 1.428 1_556 S
C1693 N1692 1.351 . S
C1693 C1694 1.434 . S
C1694 C1685 1.429 1_556 S
C1694 N1691 1.350 . S
C1694 C1693 1.434 . S
C1695 C1696 1.369 . S
C1695 C1697 1.419 . S
C1695 H1699 0.930 . S
C1696 C1695 1.369 . S
C1696 C1705 1.429 . S
C1697 C1695 1.419 . S
C1697 C1698 1.363 . S
C1697 H1700 0.929 . S
C1698 C1697 1.363 . S
C1698 C1704 1.428 . S
H1699 C1695 0.930 . S
H1700 C1697 0.929 . S
S1701 N1702 1.613 . S
S1701 N1703 1.610 . S
N1702 S1701 1.613 . S
N1702 C1705 1.350 . S
N1703 S1701 1.610 . S
N1703 C1704 1.351 . S
C1704 C1698 1.428 . S
C1704 N1703 1.351 . S
C1704 C1705 1.434 . S
C1705 C1696 1.429 . S
C1705 N1702 1.350 . S
C1705 C1704 1.434 . S
C1706 C1707 1.369 . S
C1706 C1708 1.419 . S
C1706 H1710 0.930 . S
C1707 C1706 1.369 . S
C1707 C1716 1.429 . S
C1708 C1706 1.419 . S
C1708 C1709 1.363 . S
C1708 H1711 0.929 . S
C1709 C1708 1.363 . S
C1709 C1715 1.428 . S
H1710 C1706 0.930 . S
H1711 C1708 0.929 . S
S1712 N1713 1.613 . S
S1712 N1714 1.610 . S
N1713 S1712 1.613 . S
N1713 C1716 1.350 . S
N1714 S1712 1.610 . S
N1714 C1715 1.351 . S
C1715 C1709 1.428 . S
C1715 N1714 1.351 . S
C1715 C1716 1.434 . S
C1716 C1707 1.429 . S
C1716 N1713 1.350 . S
C1716 C1715 1.434 . S
C1717 C1718 1.369 . S
C1717 C1719 1.419 . S
C1717 H1721 0.930 . S
C1718 C1717 1.369 . S
C1718 C1727 1.429 . S
C1719 C1717 1.419 . S
C1719 C1720 1.363 . S
C1719 H1722 0.929 . S
C1720 C1719 1.363 . S
C1720 C1726 1.428 . S
H1721 C1717 0.930 . S
H1722 C1719 0.929 . S
S1723 N1724 1.613 . S
S1723 N1725 1.610 . S
N1724 S1723 1.613 . S
N1724 C1727 1.350 . S
N1725 S1723 1.610 . S
N1725 C1726 1.351 . S
C1726 C1720 1.428 . S
C1726 N1725 1.351 . S
C1726 C1727 1.434 . S
C1727 C1718 1.429 . S
C1727 N1724 1.350 . S
C1727 C1726 1.434 . S
C673 C545 1.148 . S
C675 C19 1.140 . S
C684 C523 1.149 . S
C686 C41 1.141 . S
C695 C587 1.149 . S
C697 C62 1.143 . S
C706 C566 1.139 . S
C708 C82 1.147 . S
C717 C104 1.145 . S
C719 C628 1.148 . S
C728 C125 1.139 . S
C730 C608 1.147 . S
C739 C146 1.138 . S
C741 C670 1.143 . S
C750 C649 1.148 . S
C752 C167 1.145 . S
C761 C377 1.149 . S
C763 C187 1.144 . S
C772 C355 1.138 . S
C774 C209 1.145 . S
C783 C419 1.138 . S
C785 C230 1.146 . S
C794 C398 1.138 . S
C796 C250 1.146 . S
C805 C271 1.138 . S
C807 C461 1.146 . S
C816 C440 1.141 . S
C818 C293 1.140 . S
C827 C313 1.149 . S
C829 C502 1.141 . S
C838 C481 1.143 . S
C840 C334 1.148 . S
C849 C4 1.356 . S
C851 C406 1.344 . S
C860 C385 1.358 . S
C862 C28 1.342 . S
C871 C364 1.343 . S
C873 C49 1.351 . S
C882 C67 1.340 . S
C884 C340 1.354 . S
C893 C487 1.340 . S
C895 C91 1.355 . S
C904 C466 1.345 . S
C906 C112 1.349 . S
C915 C448 1.339 . S
C917 C133 1.355 . S
C926 C427 1.351 . S
C928 C154 1.344 . S
C937 C574 1.345 . S
C939 C172 1.353 . S
C948 C196 1.346 . S
C950 C553 1.349 . S
C959 C217 1.341 . S
C961 C532 1.353 . S
C970 C235 1.344 . S
C972 C508 1.350 . S
C981 C655 1.353 . S
C983 C256 1.348 . S
C992 C634 1.343 . S
C994 C280 1.355 . S
C1003 C298 1.349 . S
C1005 C613 1.351 . S
C1014 C319 1.344 . S
C1016 C595 1.355 . S
C1025 C103 0.975 . S
C1027 C20 0.984 . S
C1036 C40 0.975 . S
C1038 C629 0.984 . S
C1047 C61 0.977 . S
C1049 C314 0.983 . S
C1058 C503 0.982 . S
C1060 C83 0.978 . S
C1069 C124 0.985 . S
C1071 C544 0.977 . S
C1080 C145 0.981 . S
C1082 C229 0.979 . S
C1091 C418 0.984 . S
C1093 C166 0.977 . S
C1102 C272 0.976 . S
C1104 C188 0.984 . S
C1113 C208 0.975 . S
C1115 C460 0.984 . S
C1124 C251 0.976 . S
C1126 C671 0.983 . S
C1135 C376 0.980 . S
C1137 C292 0.980 . S
C1146 C335 0.983 . S
C1148 C586 0.978 . S
C1157 C439 0.983 . S
C1159 C356 0.977 . S
C1168 C650 0.977 . S
C1170 C397 0.982 . S
C1179 C565 0.975 . S
C1181 C482 0.984 . S
C1190 C524 0.977 . S
C1192 C607 0.982 . S
C1201 C46 1.254 . S
C1203 C7 1.240 . S
C1212 C70 1.254 . S
C1214 C25 1.246 . S
C1223 C130 1.236 . S
C1225 C88 1.248 . S
C1234 C109 1.255 . S
C1236 C151 1.241 . S
C1245 C214 1.254 . S
C1247 C175 1.240 . S
C1256 C193 1.242 . S
C1258 C238 1.253 . S
C1267 C301 1.254 . S
C1269 C259 1.240 . S
C1278 C277 1.239 . S
C1280 C322 1.252 . S
C1289 C343 1.240 . S
C1291 C382 1.253 . S
C1300 C361 1.237 . S
C1302 C403 1.252 . S
C1311 C469 1.238 . S
C1313 C424 1.244 . S
C1322 C445 1.237 . S
C1324 C490 1.250 . S
C1333 C511 1.237 . S
C1335 C550 1.251 . S
C1344 C571 1.252 . S
C1346 C529 1.239 . S
C1355 C592 1.253 . S
C1357 C637 1.240 . S
C1366 C616 1.253 . S
C1368 C658 1.240 . S
C1377 C121 1.476 1_546 S
C1379 C16 1.450 1_556 S
C1388 C604 1.476 1_556 S
C1390 C24 1.450 1_456 S
C1399 C45 1.452 . S
C1401 C318 1.480 . S
C1410 C79 1.464 1_455 S
C1412 C465 1.489 1_545 S
C1421 C87 1.448 1_554 S
C1423 C37 1.478 1_564 S
C1432 C108 1.448 1_654 S
C1434 C507 1.478 1_554 S
C1443 C234 1.485 . S
C1445 C129 1.458 . S
C1454 C394 1.476 1_565 S
C1456 C150 1.451 1_655 S
C1465 C184 1.462 . S
C1467 C289 1.488 . S
C1476 C436 1.492 . S
C1478 C192 1.463 1_455 S
C1487 C213 1.460 . S
C1489 C163 1.487 . S
C1498 C633 1.490 . S
C1500 C247 1.461 1_455 S
C1509 C268 1.448 . S
C1511 C205 1.478 . S
C1520 C276 1.449 1_655 S
C1522 C339 1.478 . S
C1531 C310 1.453 . S
C1533 C66 1.481 . S
C1542 C562 1.485 . S
C1544 C331 1.457 1_655 S
C1553 C352 1.455 . S
C1555 C457 1.482 1_545 S
C1564 C360 1.463 . S
C1566 C255 1.488 . S
C1575 C654 1.476 . S
C1577 C381 1.450 . S
C1586 C142 1.483 1_545 S
C1588 C402 1.455 . S
C1597 C423 1.465 . S
C1599 C373 1.490 1_565 S
C1608 C171 1.492 . S
C1610 C444 1.463 . S
C1619 C583 1.481 . S
C1621 C478 1.454 . S
C1630 C499 1.448 . S
C1632 C58 1.478 1_565 S
C1641 C612 1.482 1_556 S
C1643 C520 1.455 1_556 S
C1652 C528 1.461 1_556 S
C1654 C100 1.486 1_556 S
C1663 C486 1.475 . S
C1665 C549 1.450 . S
C1674 C297 1.481 . S
C1676 C570 1.455 . S
C1685 C541 1.481 1_554 S
C1687 C591 1.455 1_554 S
C1696 C625 1.450 1_554 S
C1698 C3 1.479 1_554 S
C1707 C415 1.481 . S
C1709 C646 1.455 . S
C1718 C667 1.449 . S
C1720 C226 1.478 . S
