# Generated by pormake.
# Topology reo, (8)-cn, num edge types: 1
# Building blocks:
#     Node 0, Type 0, BuildingBlock: EBIMEJ_clean_sbu_0, # of connection points: 8
#     Node 1, Type 0, BuildingBlock: EBIMEJ_clean_sbu_0, # of connection points: 8
#     Node 2, Type 0, BuildingBlock: EBIMEJ_clean_sbu_0, # of connection points: 8
#     Edge 3, Type (0, 0), BuildingBlock: XIVTED_clean_linker_0, # of connection points: 2
#     Edge 4, Type (0, 0), BuildingBlock: XIVTED_clean_linker_0, # of connection points: 2
#     Edge 5, Type (0, 0), BuildingBlock: XIVTED_clean_linker_0, # of connection points: 2
#     Edge 6, Type (0, 0), BuildingBlock: XIVTED_clean_linker_0, # of connection points: 2
#     Edge 7, Type (0, 0), BuildingBlock: XIVTED_clean_linker_0, # of connection points: 2
#     Edge 8, Type (0, 0), BuildingBlock: XIVTED_clean_linker_0, # of connection points: 2
#     Edge 9, Type (0, 0), BuildingBlock: XIVTED_clean_linker_0, # of connection points: 2
#     Edge 10, Type (0, 0), BuildingBlock: XIVTED_clean_linker_0, # of connection points: 2
#     Edge 11, Type (0, 0), BuildingBlock: XIVTED_clean_linker_0, # of connection points: 2
#     Edge 12, Type (0, 0), BuildingBlock: XIVTED_clean_linker_0, # of connection points: 2
#     Edge 13, Type (0, 0), BuildingBlock: XIVTED_clean_linker_0, # of connection points: 2
#     Edge 14, Type (0, 0), BuildingBlock: XIVTED_clean_linker_0, # of connection points: 2
# Relax obj value: 0.145
# Max RMSD: 0.257
# Mean RMSD: 0.248
data_MOF--net-reo--node1-EBIMEJ_clean_sbu_0--edge1-XIVTED_clean_linker_0
_symmetry_space_group_name_H-M    P1
_symmetry_Int_Tables_number       1
_symmetry_cell_setting            triclinic
loop_
_symmetry_equiv_pos_as_xyz
'x, y, z'
_cell_length_a     24.43636
_cell_length_b     24.658704
_cell_length_c     24.914126
_cell_angle_alpha  91.712302
_cell_angle_beta   90.969848
_cell_angle_gamma 101.13233
loop_
_atom_site_label
_atom_site_type_symbol
_atom_site_fract_x
_atom_site_fract_y
_atom_site_fract_z
_atom_type_partial_charge
Co0 Co 1.00499 1.02034 0.39469 0.0
Co1 Co 0.01444 0.08259 0.50913 0.0
Co2 Co 1.01029 0.95838 0.50263 0.0
H3 H 0.99911 0.99707 0.45715 0.0
O4 O 0.97621 1.01825 0.46595 0.0
H5 H 0.02541 0.04393 0.55448 0.0
O6 O 0.04845 0.02276 0.54596 0.0
Co7 Co 0.01831 1.02116 0.61685 0.0
O8 O 0.01906 0.10221 0.63618 0.0
O9 O 0.04909 0.14466 0.56047 0.0
O10 O 0.98956 0.93882 0.62374 0.0
O11 O 0.03056 0.90374 0.55455 0.0
O12 O 0.97781 0.05067 0.32553 0.0
O13 O 0.92231 1.00051 0.37461 0.0
O14 O 0.93642 1.01162 0.60402 0.0
O15 O 0.94066 0.07947 0.54611 0.0
C16 C 0.97672 0.89501 0.40061 0.0
C17 C 0.0174 0.14228 0.41098 0.0
C18 C 0.09644 1.01265 0.67691 0.0
C19 C 0.11005 0.9968 0.43302 0.0
C20 C 0.0382 0.14602 0.61073 0.0
C21 C 1.00808 0.89894 0.60098 0.0
C22 C 0.92789 0.02856 0.33325 0.0
C23 C 0.91344 0.04486 0.57793 0.0
O24 O 0.99333 0.93848 0.37386 0.0
O25 O 0.97451 0.89599 0.45213 0.0
O26 O 0.99455 0.13739 0.4572 0.0
O27 O 0.03597 0.10234 0.38843 0.0
O28 O 0.04651 0.99169 0.68594 0.0
O29 O 0.10156 0.0398 0.63495 0.0
O30 O 0.08679 0.03081 0.40837 0.0
O31 O 0.0832 0.96126 0.46423 0.0
Co32 Co 0.6176 0.04836 0.95637 0.0
Co33 Co 0.49969 0.07954 0.99434 0.0
Co34 Co 0.52478 0.96569 0.01537 0.0
H35 H 0.5584 1.01142 0.98018 0.0
O36 O 0.53743 0.02522 0.95842 0.0
H37 H 0.46605 0.03399 0.0297 0.0
O38 O 0.48701 1.02001 0.05128 0.0
Co39 Co 0.40681 0.99773 0.0542 0.0
O40 O 0.37577 0.06663 0.04176 0.0
O41 O 0.45293 0.12998 0.0282 0.0
O42 O 0.40335 0.91542 0.05477 0.0
O43 O 0.49259 0.90495 0.06388 0.0
O44 O 0.67237 0.09124 0.9038 0.0
O45 O 0.62327 1.01526 0.88053 0.0
O46 O 0.38706 0.97657 0.97741 0.0
O47 O 0.43755 0.05113 0.94103 0.0
C48 C 0.62531 0.92977 0.97508 0.0
C49 C 0.5843 0.15886 0.94338 0.0
C50 C 0.36581 0.99302 0.14441 0.0
C51 C 0.62423 0.03788 0.07291 0.0
C52 C 0.40047 0.11683 0.0373 0.0
C53 C 0.43986 0.88675 0.06665 0.0
C54 C 0.65939 0.0554 0.86657 0.0
C55 C 0.39998 1.00711 0.93763 0.0
O56 O 0.64909 0.98027 0.97078 0.0
O57 O 0.57246 0.91564 0.98198 0.0
O58 O 0.53161 0.14022 0.94565 0.0
O59 O 0.62091 0.13057 0.95592 0.0
O60 O 0.40069 0.03334 0.12884 0.0
O61 O 0.35358 0.95558 0.10854 0.0
O62 O 0.63754 0.06861 0.03333 0.0
O63 O 0.58639 0.9941 0.06919 0.0
Co64 Co 0.98495 0.62964 0.00901 0.0
Co65 Co 0.99621 0.51256 0.06542 0.0
Co66 Co 0.02758 0.53054 0.94876 0.0
H67 H 0.99793 0.56832 0.98587 0.0
O68 O 0.97086 0.54915 1.0029 0.0
H69 H 0.02633 0.47514 0.02824 0.0
O70 O 0.05342 0.49442 0.01137 0.0
Co71 Co 0.03902 0.41388 1.00429 0.0
O72 O 0.02962 0.39113 0.0816 0.0
O73 O 0.01933 0.46892 0.1263 0.0
O74 O 0.03368 0.40729 0.92286 0.0
O75 O 0.07105 0.49271 0.89707 0.0
O76 O 0.96134 0.70554 0.01008 0.0
O77 O 0.90153 0.63372 0.99959 0.0
O78 O 0.95878 0.4043 0.97995 0.0
O79 O 0.92938 0.45237 0.04717 0.0
C80 C 0.99895 0.62464 0.88845 0.0
C81 C 0.95605 0.60133 0.12437 0.0
C82 C 0.11413 0.35847 0.0109 0.0
C83 C 0.10475 0.62511 0.00582 0.0
C84 C 0.02642 0.41863 0.12531 0.0
C85 C 0.05654 0.4404 0.88753 0.0
C86 C 0.91025 0.68554 1.00339 0.0
C87 C 0.91958 0.41863 0.00652 0.0
O88 O 0.99708 0.65273 0.93207 0.0
O89 O 1.00417 0.57379 0.88773 0.0
O90 O 0.95094 0.54876 0.11701 0.0
O91 O 0.97669 0.63623 0.08963 0.0
O92 O 0.06365 0.34052 0.02034 0.0
O93 O 0.1221 0.40802 0.99768 0.0
O94 O 0.06565 0.63989 0.03221 0.0
O95 O 0.09483 0.59048 0.96588 0.0
H96 H 0.09582 0.34811 0.1442 0.0
H97 H 0.95136 0.22294 0.41089 0.0
H98 H 0.9689 0.42085 0.22037 0.0
H99 H 0.09744 0.17915 0.34013 0.0
H100 H 0.95741 0.29898 0.34727 0.0
H101 H 0.0977 0.2893 0.22025 0.0
C102 C 0.06868 0.35213 0.17746 0.0
C103 C 0.03218 0.3895 0.17586 0.0
C104 C 0.98847 0.27307 0.3464 0.0
C105 C 0.03311 0.32073 0.26372 0.0
C106 C 0.9852 0.2299 0.38287 0.0
C107 C 0.02364 0.1942 0.3806 0.0
C108 C 0.03049 0.28032 0.30772 0.0
C109 C 0.06637 0.20496 0.34313 0.0
C110 C 0.06967 0.31836 0.2211 0.0
C111 C 0.99798 0.39284 0.22025 0.0
N112 N 0.06828 0.24641 0.30827 0.0
N113 N 0.99867 0.35827 0.26217 0.0
H114 H 0.92901 0.09968 0.25145 0.0
H115 H 0.6135 0.98119 0.16634 0.0
H116 H 0.8194 0.97815 0.34095 0.0
H117 H 0.71688 0.11878 0.09065 0.0
H118 H 0.68428 0.98726 0.23758 0.0
H119 H 0.84901 0.11324 0.19687 0.0
C120 C 0.88805 0.07583 0.25944 0.0
C121 C 0.88061 0.03718 0.29997 0.0
C122 C 0.69108 1.01661 0.20575 0.0
C123 C 0.7892 0.05263 0.23844 0.0
C124 C 0.65062 1.01323 0.16512 0.0
C125 C 0.65997 0.04853 0.12173 0.0
C126 C 0.74129 0.05514 0.2025 0.0
C127 C 0.70837 0.0899 0.12274 0.0
C128 C 0.84236 0.08388 0.2287 0.0
C129 C 0.82677 1.00793 0.30953 0.0
N130 N 0.74773 0.0914 0.16197 0.0
N131 N 0.78307 1.0159 0.2786 0.0
H132 H 0.9191 0.88083 0.30621 0.0
H133 H 0.99526 0.59155 0.22706 0.0
H134 H 0.9957 0.79051 0.42189 0.0
H135 H 0.8839 0.67057 0.13517 0.0
H136 H 0.98982 0.65658 0.30308 0.0
H137 H 0.90063 0.79913 0.24677 0.0
C138 C 0.93141 0.84333 0.31937 0.0
C139 C 0.95903 0.84248 0.369 0.0
C140 C 0.96523 0.65852 0.26687 0.0
C141 C 0.93889 0.74821 0.30026 0.0
C142 C 0.96784 0.62102 0.22377 0.0
C143 C 0.93959 0.62557 0.17507 0.0
C144 C 0.93453 0.70084 0.26065 0.0
C145 C 0.90601 0.66551 0.17219 0.0
C146 C 0.92076 0.79648 0.28539 0.0
C147 C 0.97399 0.7927 0.38402 0.0
N148 N 0.90498 0.70186 0.21396 0.0
N149 N 0.96458 0.74768 0.34934 0.0
H150 H 0.3768 0.07562 0.2213 0.0
H151 H 0.14686 0.90255 0.40535 0.0
H152 H 0.29893 0.90503 0.18914 0.0
H153 H 0.19703 0.08008 0.41459 0.0
H154 H 0.22318 0.89796 0.34383 0.0
H155 H 0.32984 0.07302 0.30737 0.0
C156 C 0.35027 0.03744 0.2327 0.0
C157 C 0.34104 0.99067 0.19794 0.0
C158 C 0.21849 0.93779 0.36059 0.0
C159 C 0.28761 0.98724 0.29628 0.0
C160 C 0.1755 0.94032 0.3963 0.0
C161 C 0.16564 0.9918 0.41449 0.0
C162 C 0.25159 0.98709 0.34348 0.0
C163 C 0.20324 0.03964 0.40095 0.0
C164 C 0.3236 0.03593 0.28182 0.0
C165 C 0.30653 0.94218 0.21462 0.0
N166 N 0.24407 0.03623 0.36551 0.0
N167 N 0.28064 0.94184 0.26248 0.0
H168 H 0.07499 0.81904 0.60223 0.0
H169 H 0.9304 0.69584 0.86935 0.0
H170 H 0.9272 0.86141 0.67069 0.0
H171 H 0.05613 0.62129 0.79331 0.0
H172 H 0.92856 0.75403 0.79276 0.0
H173 H 0.069 0.74344 0.66639 0.0
C174 C 0.04078 0.81182 0.62983 0.0
C175 C 1.00185 0.84703 0.63134 0.0
C176 C 0.95632 0.7247 0.79207 0.0
C177 C 0.9951 0.7615 0.70487 0.0
C178 C 0.95729 0.69131 0.83601 0.0
C179 C 0.9934 0.65359 0.83777 0.0
C180 C 0.99255 0.7216 0.74931 0.0
C181 C 0.02733 0.64958 0.7933 0.0
C182 C 0.03755 0.76893 0.66661 0.0
C183 C 0.95865 0.83598 0.6683 0.0
N184 N 0.02669 0.6838 0.75108 0.0
N185 N 0.95682 0.79486 0.70351 0.0
H186 H 0.41075 0.06217 0.84321 0.0
H187 H 0.09534 0.94355 0.76032 0.0
H188 H 0.30769 0.92564 0.9207 0.0
H189 H 0.20552 0.06012 0.66628 0.0
H190 H 0.17545 0.93025 0.81479 0.0
H191 H 0.34031 0.05426 0.77137 0.0
C192 C 0.37377 0.03 0.84473 0.0
C193 C 0.36437 0.99557 0.88877 0.0
C194 C 0.18222 0.95842 0.78197 0.0
C195 C 0.28349 0.98682 0.80731 0.0
C196 C 0.13647 0.96634 0.75127 0.0
C197 C 0.14401 1.00369 0.7096 0.0
C198 C 0.23558 0.98854 0.77109 0.0
C199 C 0.19807 0.0315 0.69867 0.0
C200 C 0.33353 0.02553 0.80374 0.0
C201 C 0.31621 0.95391 0.88811 0.0
N202 N 0.24185 0.02379 0.72967 0.0
N203 N 0.27704 0.9514 0.84854 0.0
H204 H 0.96501 0.39374 0.83023 0.0
H205 H 0.11902 0.2418 0.60695 0.0
H206 H 0.14425 0.42922 0.82207 0.0
H207 H 0.96513 0.17169 0.68248 0.0
H208 H 0.12502 0.32632 0.66487 0.0
H209 H 0.96035 0.33058 0.75236 0.0
C210 C 1.00338 0.38951 0.81076 0.0
C211 C 0.05505 0.41678 0.8323 0.0
C212 C 0.08984 0.29244 0.66812 0.0
C213 C 0.0502 0.34312 0.74398 0.0
C214 C 0.08628 0.24451 0.63509 0.0
C215 C 0.04179 0.19959 0.64041 0.0
C216 C 0.04774 0.29563 0.70524 0.0
C217 C 1.00048 0.20504 0.67747 0.0
C218 C 1.00075 0.35305 0.76667 0.0
C219 C 0.10362 0.40927 0.80614 0.0
N220 N 1.00441 0.25198 0.70821 0.0
N221 N 0.10014 0.37238 0.76355 0.0
H222 H 0.7304 0.14323 0.82625 0.0
H223 H 0.82398 0.96326 0.59305 0.0
H224 H 0.64567 0.97642 0.78588 0.0
H225 H 0.87993 0.13987 0.60825 0.0
H226 H 0.7481 0.97015 0.65378 0.0
H227 H 0.77767 0.14607 0.74032 0.0
C228 C 0.72141 0.1074 0.799 0.0
C229 C 0.68474 0.05926 0.81329 0.0
C230 C 0.77586 1.00771 0.64273 0.0
C231 C 0.73846 0.06214 0.71509 0.0
C232 C 0.8188 1.00377 0.60764 0.0
C233 C 0.85807 0.05104 0.59596 0.0
C234 C 0.77332 0.05912 0.66739 0.0
C235 C 0.85016 0.10253 0.61617 0.0
C236 C 0.74807 0.10914 0.74981 0.0
C237 C 0.67408 1.01417 0.77648 0.0
N238 N 0.80946 0.10509 0.65216 0.0
N239 N 0.70142 1.01643 0.72935 0.0
H240 H 0.10311 0.25323 0.04483 0.0
H241 H 0.42143 0.22497 1.00233 0.0
H242 H 0.22625 0.38872 0.99021 0.0
H243 H 0.29635 0.10482 0.07737 0.0
H244 H 0.35373 0.28723 0.9974 0.0
H245 H 0.17555 0.19874 0.05489 0.0
C246 C 0.14553 0.27154 0.03493 0.0
C247 C 0.15857 0.32554 0.0166 0.0
C248 C 0.34153 0.24735 0.01528 0.0
C249 C 0.24253 0.2632 0.02822 0.0
C250 C 0.38025 0.21197 0.01842 0.0
C251 C 0.36463 0.15929 0.03996 0.0
C252 C 0.28697 0.2297 0.03369 0.0
C253 C 0.31046 0.14463 0.05988 0.0
C254 C 0.1871 0.24044 0.04085 0.0
C255 C 0.21442 0.34713 1.00444 0.0
N256 N 0.27384 0.17926 0.0559 0.0
N257 N 0.25441 0.31584 0.01032 0.0
H258 H 0.20138 0.6212 0.95132 0.0
H259 H 0.38086 0.84599 0.15191 0.0
H260 H 0.14173 0.68516 0.09774 0.0
H261 H 0.44002 0.79846 0.99917 0.0
H262 H 0.30372 0.76678 0.14425 0.0
H263 H 0.29637 0.66838 0.97725 0.0
C264 C 0.20823 0.64468 0.98908 0.0
C265 C 0.16322 0.64998 0.02189 0.0
C266 C 0.33452 0.77231 0.11313 0.0
C267 C 0.27188 0.70341 0.05209 0.0
C268 C 0.37932 0.81692 0.11814 0.0
C269 C 0.41689 0.82848 0.07623 0.0
C270 C 0.3268 0.73966 0.06536 0.0
C271 C 0.41215 0.79049 0.03259 0.0
C272 C 0.26251 0.67144 1.00394 0.0
C273 C 0.17481 0.6806 0.07061 0.0
N274 N 0.36692 0.74853 0.0275 0.0
N275 N 0.22774 0.70639 0.08393 0.0
H276 H 0.64353 0.19948 0.85825 0.0
H277 H 0.82269 0.42252 0.06051 0.0
H278 H 0.58351 0.24725 0.0105 0.0
H279 H 0.88297 0.35948 0.91396 0.0
H280 H 0.72774 0.37599 0.03381 0.0
H281 H 0.72104 0.27829 0.86646 0.0
C282 C 0.64494 0.22857 0.89198 0.0
C283 C 0.60704 0.21713 0.93365 0.0
C284 C 0.76173 0.37298 0.00726 0.0
C285 C 0.69752 0.30549 0.94514 0.0
C286 C 0.81599 0.39936 0.02257 0.0
C287 C 0.86116 0.39413 0.98996 0.0
C288 C 0.75251 0.3414 0.95887 0.0
C289 C 0.84975 0.36396 0.94096 0.0
C290 C 0.68996 0.27293 0.89733 0.0
C291 C 0.61163 0.25512 0.97727 0.0
N292 N 0.79681 0.33848 0.92722 0.0
N293 N 0.65706 0.29683 0.98269 0.0
H294 H 0.92385 0.79755 0.00945 0.0
H295 H 0.59957 0.81477 0.98415 0.0
H296 H 0.79651 0.65026 0.98948 0.0
H297 H 0.73827 0.95141 0.96965 0.0
H298 H 0.66703 0.75219 0.99137 0.0
H299 H 0.85245 0.85355 1.00225 0.0
C300 C 0.88073 0.77696 1.00349 0.0
C301 C 0.86623 0.7192 0.99979 0.0
C302 C 0.68223 0.79594 0.98639 0.0
C303 C 0.78346 0.78334 0.99128 0.0
C304 C 0.64379 0.83162 0.98214 0.0
C305 C 0.66287 0.88867 0.97614 0.0
C306 C 0.73992 0.81777 0.98526 0.0
C307 C 0.72088 0.90801 0.97405 0.0
C308 C 0.83979 0.80898 0.99925 0.0
C309 C 0.80947 0.6948 0.99235 0.0
N310 N 0.75684 0.87292 0.97885 0.0
N311 N 0.77002 0.72698 0.98831 0.0
loop_
_geom_bond_atom_site_label_1
_geom_bond_atom_site_label_2
_geom_bond_distance
_geom_bond_site_symmetry_2
_ccdc_geom_bond_type
Co0 H3 2.400 . S
Co0 O4 2.009 . S
Co0 O12 2.114 1_565 S
Co0 O13 2.315 . S
Co0 O24 2.053 . S
Co0 O27 2.094 1_565 S
Co0 O30 2.122 1_665 S
Co1 O4 2.126 1_545 S
Co1 H5 2.388 1_655 S
Co1 O6 2.053 1_655 S
Co1 O9 2.047 1_655 S
Co1 O15 2.113 . S
Co1 O26 2.063 . S
Co2 H3 2.388 1_455 S
Co2 O4 2.053 1_455 S
Co2 O6 2.126 1_565 S
Co2 O11 2.063 . S
Co2 O25 2.047 1_455 S
Co2 O31 2.113 . S
H3 Co0 2.400 . S
H3 Co2 2.388 1_655 S
H3 O4 0.760 . S
O4 Co0 2.009 . S
O4 Co1 2.126 1_565 S
O4 Co2 2.053 1_655 S
O4 H3 0.760 . S
H5 Co1 2.388 1_455 S
H5 O6 0.760 . S
H5 Co7 2.400 . S
O6 Co1 2.053 1_455 S
O6 Co2 2.126 1_545 S
O6 H5 0.760 . S
O6 Co7 2.009 . S
Co7 H5 2.400 . S
Co7 O6 2.009 . S
Co7 O8 2.053 . S
Co7 O10 2.094 1_545 S
Co7 O14 2.122 1_445 S
Co7 O28 2.114 1_545 S
Co7 O29 2.315 . S
O8 Co7 2.053 . S
O8 C20 1.259 . S
O9 Co1 2.047 1_455 S
O9 C20 1.257 . S
O10 Co7 2.094 1_565 S
O10 C21 1.253 . S
O11 Co2 2.063 . S
O11 C21 1.268 . S
O12 Co0 2.114 1_545 S
O12 C22 1.287 1_545 S
O13 Co0 2.315 . S
O13 C22 1.255 . S
O14 Co7 2.122 1_665 S
O14 C23 1.272 1_565 S
O15 Co1 2.113 . S
O15 C23 1.245 . S
C16 O24 1.259 . S
C16 O25 1.257 . S
C17 O26 1.268 . S
C17 O27 1.253 . S
C18 O28 1.281 1_545 S
C18 O29 1.252 . S
C19 O30 1.272 1_565 S
C19 O31 1.245 . S
C20 O8 1.259 . S
C20 O9 1.257 . S
C21 O10 1.253 . S
C21 O11 1.268 . S
C22 O12 1.287 1_565 S
C22 O13 1.255 . S
C23 O14 1.272 1_545 S
C23 O15 1.245 . S
O24 Co0 2.053 . S
O24 C16 1.259 . S
O25 Co2 2.047 1_655 S
O25 C16 1.257 . S
O26 Co1 2.063 . S
O26 C17 1.268 . S
O27 Co0 2.094 1_545 S
O27 C17 1.253 . S
O28 Co7 2.114 1_565 S
O28 C18 1.281 1_565 S
O29 Co7 2.315 . S
O29 C18 1.252 . S
O30 Co0 2.122 1_445 S
O30 C19 1.272 1_545 S
O31 Co2 2.113 . S
O31 C19 1.245 . S
Co32 H35 2.400 1_545 S
Co32 O36 2.011 1_545 S
Co32 O44 2.115 . S
Co32 O45 2.315 . S
Co32 O56 2.053 1_545 S
Co32 O59 2.094 . S
Co32 O62 2.122 1_556 S
Co33 O36 2.112 1_545 S
Co33 H37 2.388 1_556 S
Co33 O38 2.068 1_556 S
Co33 O41 2.047 1_556 S
Co33 O47 2.113 . S
Co33 O58 2.063 . S
Co34 H35 2.388 1_554 S
Co34 O36 2.064 1_554 S
Co34 O38 2.108 1_565 S
Co34 O43 2.063 . S
Co34 O57 2.047 1_554 S
Co34 O63 2.113 . S
H35 Co32 2.400 1_565 S
H35 Co34 2.388 1_556 S
H35 O36 0.761 . S
O36 Co32 2.011 1_565 S
O36 Co33 2.112 1_565 S
O36 Co34 2.064 1_556 S
O36 H35 0.761 . S
H37 Co33 2.388 1_554 S
H37 O38 0.762 . S
H37 Co39 2.400 1_545 S
O38 Co33 2.068 1_554 S
O38 Co34 2.108 1_545 S
O38 H37 0.762 . S
O38 Co39 2.012 1_545 S
Co39 H37 2.400 1_565 S
Co39 O38 2.012 1_565 S
Co39 O40 2.053 1_565 S
Co39 O42 2.094 . S
Co39 O46 2.122 1_554 S
Co39 O60 2.115 . S
Co39 O61 2.315 . S
O40 Co39 2.053 1_545 S
O40 C52 1.259 . S
O41 Co33 2.047 1_554 S
O41 C52 1.257 . S
O42 Co39 2.094 . S
O42 C53 1.253 . S
O43 Co34 2.063 . S
O43 C53 1.268 . S
O44 Co32 2.115 . S
O44 C54 1.281 . S
O45 Co32 2.315 . S
O45 C54 1.252 . S
O46 Co39 2.122 1_556 S
O46 C55 1.272 1_565 S
O47 Co33 2.113 . S
O47 C55 1.245 . S
C48 O56 1.259 . S
C48 O57 1.257 . S
C49 O58 1.268 . S
C49 O59 1.253 . S
C50 O60 1.281 . S
C50 O61 1.252 . S
C51 O62 1.272 1_565 S
C51 O63 1.245 . S
C52 O40 1.259 . S
C52 O41 1.257 . S
C53 O42 1.253 . S
C53 O43 1.268 . S
C54 O44 1.281 . S
C54 O45 1.252 . S
C55 O46 1.272 1_545 S
C55 O47 1.245 . S
O56 Co32 2.053 1_565 S
O56 C48 1.259 . S
O57 Co34 2.047 1_556 S
O57 C48 1.257 . S
O58 Co33 2.063 . S
O58 C49 1.268 . S
O59 Co32 2.094 . S
O59 C49 1.253 . S
O60 Co39 2.115 . S
O60 C50 1.281 . S
O61 Co39 2.315 . S
O61 C50 1.252 . S
O62 Co32 2.122 1_554 S
O62 C51 1.272 1_545 S
O63 Co34 2.113 . S
O63 C51 1.245 . S
Co64 H67 2.399 1_554 S
Co64 O68 2.009 1_554 S
Co64 O76 2.116 . S
Co64 O77 2.317 . S
Co64 O88 2.033 1_554 S
Co64 O91 2.114 . S
Co64 O94 2.123 1_655 S
Co65 O68 2.126 1_554 S
Co65 H69 2.388 1_655 S
Co65 O70 2.053 1_655 S
Co65 O73 2.047 1_655 S
Co65 O79 2.113 . S
Co65 O90 2.063 . S
Co66 H67 2.388 1_455 S
Co66 O68 2.053 1_455 S
Co66 O70 2.126 1_556 S
Co66 O75 2.063 . S
Co66 O89 2.047 1_455 S
Co66 O95 2.113 . S
H67 Co64 2.399 1_556 S
H67 Co66 2.388 1_655 S
H67 O68 0.760 . S
O68 Co64 2.009 1_556 S
O68 Co65 2.126 1_556 S
O68 Co66 2.053 1_655 S
O68 H67 0.760 . S
H69 Co65 2.388 1_455 S
H69 O70 0.760 . S
H69 Co71 2.400 1_554 S
O70 Co65 2.053 1_455 S
O70 Co66 2.126 1_554 S
O70 H69 0.760 . S
O70 Co71 2.009 1_554 S
Co71 H69 2.400 1_556 S
Co71 O70 2.009 1_556 S
Co71 O72 2.038 1_556 S
Co71 O74 2.108 . S
Co71 O78 2.123 1_455 S
Co71 O92 2.116 . S
Co71 O93 2.316 . S
O72 Co71 2.038 1_554 S
O72 C84 1.259 . S
O73 Co65 2.047 1_455 S
O73 C84 1.257 . S
O74 Co71 2.108 . S
O74 C85 1.253 . S
O75 Co66 2.063 . S
O75 C85 1.268 . S
O76 Co64 2.116 . S
O76 C86 1.281 . S
O77 Co64 2.317 . S
O77 C86 1.252 . S
O78 Co71 2.123 1_655 S
O78 C87 1.272 1_556 S
O79 Co65 2.113 . S
O79 C87 1.245 . S
C80 O88 1.259 . S
C80 O89 1.257 . S
C81 O90 1.268 . S
C81 O91 1.253 . S
C82 O92 1.281 . S
C82 O93 1.252 . S
C83 O94 1.272 1_556 S
C83 O95 1.245 . S
C84 O72 1.259 . S
C84 O73 1.257 . S
C85 O74 1.253 . S
C85 O75 1.268 . S
C86 O76 1.281 . S
C86 O77 1.252 . S
C87 O78 1.272 1_554 S
C87 O79 1.245 . S
O88 Co64 2.033 1_556 S
O88 C80 1.259 . S
O89 Co66 2.047 1_655 S
O89 C80 1.257 . S
O90 Co65 2.063 . S
O90 C81 1.268 . S
O91 Co64 2.114 . S
O91 C81 1.253 . S
O92 Co71 2.116 . S
O92 C82 1.281 . S
O93 Co71 2.316 . S
O93 C82 1.252 . S
O94 Co64 2.123 1_455 S
O94 C83 1.272 1_554 S
O95 Co66 2.113 . S
O95 C83 1.245 . S
H96 C102 0.930 . S
H97 C106 0.930 . S
H98 C111 0.929 . S
H99 C109 0.929 . S
H100 C104 0.929 . S
H101 C110 0.929 . S
C102 H96 0.930 . S
C102 C103 1.367 . S
C102 C110 1.378 . S
C103 C102 1.367 . S
C103 C111 1.433 1_455 S
C104 H100 0.929 . S
C104 C106 1.378 . S
C104 C108 1.350 . S
C105 C108 1.463 . S
C105 C110 1.350 1_655 S
C105 N113 1.427 . S
C106 H97 0.930 . S
C106 C104 1.378 . S
C106 C107 1.367 . S
C107 C106 1.367 . S
C107 C109 1.433 1_655 S
C108 C104 1.350 . S
C108 C105 1.463 . S
C108 N112 1.427 1_655 S
C109 H99 0.929 . S
C109 C107 1.433 1_455 S
C109 N112 1.384 . S
C110 H101 0.929 . S
C110 C102 1.378 . S
C110 C105 1.350 1_455 S
C111 H98 0.929 . S
C111 C103 1.433 1_655 S
C111 N113 1.384 . S
N112 C108 1.427 1_455 S
N112 C109 1.384 . S
N113 C105 1.427 . S
N113 C111 1.384 . S
H114 C120 0.930 . S
H115 C124 0.930 . S
H116 C129 0.929 . S
H117 C127 0.929 . S
H118 C122 0.929 . S
H119 C128 0.929 . S
C120 H114 0.930 . S
C120 C121 1.367 . S
C120 C128 1.378 . S
C121 C120 1.367 . S
C121 C129 1.433 1_545 S
C122 H118 0.929 . S
C122 C124 1.378 . S
C122 C126 1.350 . S
C123 C126 1.463 . S
C123 C128 1.350 1_565 S
C123 N131 1.427 . S
C124 H115 0.930 . S
C124 C122 1.378 . S
C124 C125 1.367 . S
C125 C124 1.367 . S
C125 C127 1.433 1_565 S
C126 C122 1.350 . S
C126 C123 1.463 . S
C126 N130 1.427 1_565 S
C127 H117 0.929 . S
C127 C125 1.433 1_545 S
C127 N130 1.384 . S
C128 H119 0.929 . S
C128 C120 1.378 . S
C128 C123 1.350 1_545 S
C129 H116 0.929 . S
C129 C121 1.433 1_565 S
C129 N131 1.384 . S
N130 C126 1.427 1_545 S
N130 C127 1.384 . S
N131 C123 1.427 . S
N131 C129 1.384 . S
H132 C138 0.930 . S
H133 C142 0.930 . S
H134 C147 0.929 . S
H135 C145 0.929 . S
H136 C140 0.929 . S
H137 C146 0.929 . S
C138 H132 0.930 . S
C138 C139 1.367 . S
C138 C146 1.378 . S
C139 C138 1.367 . S
C139 C147 1.433 . S
C140 H136 0.929 . S
C140 C142 1.378 . S
C140 C144 1.350 . S
C141 C144 1.463 . S
C141 C146 1.350 . S
C141 N149 1.427 . S
C142 H133 0.930 . S
C142 C140 1.378 . S
C142 C143 1.367 . S
C143 C142 1.367 . S
C143 C145 1.433 . S
C144 C140 1.350 . S
C144 C141 1.463 . S
C144 N148 1.427 . S
C145 H135 0.929 . S
C145 C143 1.433 . S
C145 N148 1.384 . S
C146 H137 0.929 . S
C146 C138 1.378 . S
C146 C141 1.350 . S
C147 H134 0.929 . S
C147 C139 1.433 . S
C147 N149 1.384 . S
N148 C144 1.427 . S
N148 C145 1.384 . S
N149 C141 1.427 . S
N149 C147 1.384 . S
H150 C156 0.930 . S
H151 C160 0.930 . S
H152 C165 0.929 . S
H153 C163 0.929 . S
H154 C158 0.929 . S
H155 C164 0.929 . S
C156 H150 0.930 . S
C156 C157 1.367 1_545 S
C156 C164 1.378 . S
C157 C156 1.367 1_565 S
C157 C165 1.433 . S
C158 H154 0.929 . S
C158 C160 1.378 . S
C158 C162 1.350 . S
C159 C162 1.463 . S
C159 C164 1.350 1_565 S
C159 N167 1.427 . S
C160 H151 0.930 . S
C160 C158 1.378 . S
C160 C161 1.367 . S
C161 C160 1.367 . S
C161 C163 1.433 1_565 S
C162 C158 1.350 . S
C162 C159 1.463 . S
C162 N166 1.427 1_565 S
C163 H153 0.929 . S
C163 C161 1.433 1_545 S
C163 N166 1.384 . S
C164 H155 0.929 . S
C164 C156 1.378 . S
C164 C159 1.350 1_545 S
C165 H152 0.929 . S
C165 C157 1.433 . S
C165 N167 1.384 . S
N166 C162 1.427 1_545 S
N166 C163 1.384 . S
N167 C159 1.427 . S
N167 C165 1.384 . S
H168 C174 0.930 . S
H169 C178 0.930 . S
H170 C183 0.929 1_655 S
H171 C181 0.929 . S
H172 C176 0.929 . S
H173 C182 0.929 . S
C174 H168 0.930 . S
C174 C175 1.367 . S
C174 C182 1.378 . S
C175 C174 1.367 . S
C175 C183 1.433 . S
C176 H172 0.929 . S
C176 C178 1.378 . S
C176 C180 1.350 1_655 S
C177 C180 1.463 . S
C177 C182 1.350 . S
C177 N185 1.427 . S
C178 H169 0.930 . S
C178 C176 1.378 . S
C178 C179 1.367 . S
C179 C178 1.367 . S
C179 C181 1.433 1_655 S
C180 C176 1.350 1_455 S
C180 C177 1.463 . S
C180 N184 1.427 . S
C181 H171 0.929 . S
C181 C179 1.433 1_455 S
C181 N184 1.384 . S
C182 H173 0.929 . S
C182 C174 1.378 . S
C182 C177 1.350 . S
C183 H170 0.929 1_455 S
C183 C175 1.433 . S
C183 N185 1.384 . S
N184 C180 1.427 . S
N184 C181 1.384 . S
N185 C177 1.427 . S
N185 C183 1.384 . S
H186 C192 0.930 . S
H187 C196 0.930 . S
H188 C201 0.929 . S
H189 C199 0.929 . S
H190 C194 0.929 . S
H191 C200 0.929 . S
C192 H186 0.930 . S
C192 C193 1.367 . S
C192 C200 1.378 . S
C193 C192 1.367 . S
C193 C201 1.433 1_545 S
C194 H190 0.929 . S
C194 C196 1.378 . S
C194 C198 1.350 1_565 S
C195 C198 1.463 . S
C195 C200 1.350 . S
C195 N203 1.427 1_545 S
C196 H187 0.930 . S
C196 C194 1.378 . S
C196 C197 1.367 . S
C197 C196 1.367 . S
C197 C199 1.433 1_565 S
C198 C194 1.350 1_545 S
C198 C195 1.463 . S
C198 N202 1.427 . S
C199 H189 0.929 . S
C199 C197 1.433 1_545 S
C199 N202 1.384 . S
C200 H191 0.929 . S
C200 C192 1.378 . S
C200 C195 1.350 . S
C201 H188 0.929 . S
C201 C193 1.433 1_565 S
C201 N203 1.384 . S
N202 C198 1.427 . S
N202 C199 1.384 . S
N203 C195 1.427 1_565 S
N203 C201 1.384 . S
H204 C210 0.930 1_655 S
H205 C214 0.930 . S
H206 C219 0.929 . S
H207 C217 0.929 1_655 S
H208 C212 0.929 . S
H209 C218 0.929 1_655 S
C210 H204 0.930 1_455 S
C210 C211 1.367 . S
C210 C218 1.378 . S
C211 C210 1.367 . S
C211 C219 1.433 . S
C212 H208 0.929 . S
C212 C214 1.378 . S
C212 C216 1.350 . S
C213 C216 1.463 . S
C213 C218 1.350 . S
C213 N221 1.427 . S
C214 H205 0.930 . S
C214 C212 1.378 . S
C214 C215 1.367 . S
C215 C214 1.367 . S
C215 C217 1.433 . S
C216 C212 1.350 . S
C216 C213 1.463 . S
C216 N220 1.427 . S
C217 H207 0.929 1_455 S
C217 C215 1.433 . S
C217 N220 1.384 . S
C218 H209 0.929 1_455 S
C218 C210 1.378 . S
C218 C213 1.350 . S
C219 H206 0.929 . S
C219 C211 1.433 . S
C219 N221 1.384 . S
N220 C216 1.427 . S
N220 C217 1.384 . S
N221 C213 1.427 . S
N221 C219 1.384 . S
H222 C228 0.930 . S
H223 C232 0.930 . S
H224 C237 0.929 . S
H225 C235 0.929 . S
H226 C230 0.929 . S
H227 C236 0.929 . S
C228 H222 0.930 . S
C228 C229 1.367 . S
C228 C236 1.378 . S
C229 C228 1.367 . S
C229 C237 1.433 1_545 S
C230 H226 0.929 . S
C230 C232 1.378 . S
C230 C234 1.350 1_565 S
C231 C234 1.463 . S
C231 C236 1.350 . S
C231 N239 1.427 1_545 S
C232 H223 0.930 . S
C232 C230 1.378 . S
C232 C233 1.367 1_565 S
C233 C232 1.367 1_545 S
C233 C235 1.433 . S
C234 C230 1.350 1_545 S
C234 C231 1.463 . S
C234 N238 1.427 . S
C235 H225 0.929 . S
C235 C233 1.433 . S
C235 N238 1.384 . S
C236 H227 0.929 . S
C236 C228 1.378 . S
C236 C231 1.350 . S
C237 H224 0.929 . S
C237 C229 1.433 1_565 S
C237 N239 1.384 . S
N238 C234 1.427 . S
N238 C235 1.384 . S
N239 C231 1.427 1_565 S
N239 C237 1.384 . S
H240 C246 0.930 . S
H241 C250 0.930 . S
H242 C255 0.929 . S
H243 C253 0.929 . S
H244 C248 0.929 . S
H245 C254 0.929 . S
C246 H240 0.930 . S
C246 C247 1.367 . S
C246 C254 1.378 . S
C247 C246 1.367 . S
C247 C255 1.433 . S
C248 H244 0.929 . S
C248 C250 1.378 . S
C248 C252 1.350 . S
C249 C252 1.463 1_556 S
C249 C254 1.350 . S
C249 N257 1.427 1_556 S
C250 H241 0.930 . S
C250 C248 1.378 . S
C250 C251 1.367 . S
C251 C250 1.367 . S
C251 C253 1.433 . S
C252 C248 1.350 . S
C252 C249 1.463 1_554 S
C252 N256 1.427 . S
C253 H243 0.929 . S
C253 C251 1.433 . S
C253 N256 1.384 . S
C254 H245 0.929 . S
C254 C246 1.378 . S
C254 C249 1.350 . S
C255 H242 0.929 . S
C255 C247 1.433 . S
C255 N257 1.383 1_556 S
N256 C252 1.427 . S
N256 C253 1.384 . S
N257 C249 1.427 1_554 S
N257 C255 1.383 1_554 S
H258 C264 0.930 . S
H259 C268 0.930 . S
H260 C273 0.929 . S
H261 C271 0.929 1_556 S
H262 C266 0.929 . S
H263 C272 0.929 . S
C264 H258 0.930 . S
C264 C265 1.367 . S
C264 C272 1.378 . S
C265 C264 1.367 . S
C265 C273 1.433 1_556 S
C266 H262 0.929 . S
C266 C268 1.378 . S
C266 C270 1.350 . S
C267 C270 1.463 . S
C267 C272 1.350 1_554 S
C267 N275 1.427 . S
C268 H259 0.930 . S
C268 C266 1.378 . S
C268 C269 1.367 . S
C269 C268 1.367 . S
C269 C271 1.433 . S
C270 C266 1.350 . S
C270 C267 1.463 . S
C270 N274 1.427 1_554 S
C271 H261 0.929 1_554 S
C271 C269 1.433 . S
C271 N274 1.384 1_554 S
C272 H263 0.929 . S
C272 C264 1.378 . S
C272 C267 1.350 1_556 S
C273 H260 0.929 . S
C273 C265 1.433 1_554 S
C273 N275 1.384 . S
N274 C270 1.427 1_556 S
N274 C271 1.384 1_556 S
N275 C267 1.427 . S
N275 C273 1.384 . S
H276 C282 0.930 . S
H277 C286 0.930 . S
H278 C291 0.929 1_554 S
H279 C289 0.929 . S
H280 C284 0.929 . S
H281 C290 0.929 . S
C282 H276 0.930 . S
C282 C283 1.367 . S
C282 C290 1.378 . S
C283 C282 1.367 . S
C283 C291 1.433 . S
C284 H280 0.929 . S
C284 C286 1.378 . S
C284 C288 1.350 1_554 S
C285 C288 1.463 . S
C285 C290 1.350 . S
C285 N293 1.427 1_556 S
C286 H277 0.930 . S
C286 C284 1.378 . S
C286 C287 1.367 . S
C287 C286 1.367 . S
C287 C289 1.433 1_554 S
C288 C284 1.350 1_556 S
C288 C285 1.463 . S
C288 N292 1.427 . S
C289 H279 0.929 . S
C289 C287 1.433 1_556 S
C289 N292 1.384 . S
C290 H281 0.929 . S
C290 C282 1.378 . S
C290 C285 1.350 . S
C291 H278 0.929 1_556 S
C291 C283 1.433 . S
C291 N293 1.384 1_556 S
N292 C288 1.427 . S
N292 C289 1.384 . S
N293 C285 1.427 1_554 S
N293 C291 1.384 1_554 S
H294 C300 0.930 . S
H295 C304 0.930 . S
H296 C309 0.929 . S
H297 C307 0.929 . S
H298 C302 0.929 . S
H299 C308 0.929 . S
C300 H294 0.930 . S
C300 C301 1.367 . S
C300 C308 1.378 . S
C301 C300 1.367 . S
C301 C309 1.433 1_554 S
C302 H298 0.929 . S
C302 C304 1.378 . S
C302 C306 1.350 . S
C303 C306 1.463 1_554 S
C303 C308 1.350 . S
C303 N311 1.427 1_554 S
C304 H295 0.930 . S
C304 C302 1.378 . S
C304 C305 1.367 . S
C305 C304 1.367 . S
C305 C307 1.433 1_556 S
C306 C302 1.350 . S
C306 C303 1.463 1_556 S
C306 N310 1.427 1_556 S
C307 H297 0.929 . S
C307 C305 1.433 1_554 S
C307 N310 1.384 . S
C308 H299 0.929 . S
C308 C300 1.378 . S
C308 C303 1.350 . S
C309 H296 0.929 . S
C309 C301 1.433 1_556 S
C309 N311 1.384 . S
N310 C306 1.427 1_554 S
N310 C307 1.384 . S
N311 C303 1.427 1_556 S
N311 C309 1.384 . S
C103 C84 2.088 . S
C107 C17 2.021 . S
C121 C22 1.036 1_545 S
C125 C51 1.012 . S
C139 C16 1.578 . S
C143 C81 1.543 . S
C157 C50 1.529 . S
C161 C19 1.483 . S
C175 C21 2.025 . S
C179 C80 2.090 . S
C193 C55 1.009 . S
C197 C18 1.043 1_565 S
C211 C85 1.530 . S
C215 C20 1.583 . S
C229 C54 1.540 . S
C233 C23 1.494 . S
C247 C82 2.014 . S
C251 C52 2.003 . S
C265 C83 1.065 . S
C269 C53 1.044 . S
C283 C49 1.042 . S
C287 C87 1.067 . S
C301 C86 2.015 . S
C305 C48 2.008 . S
