# Generated by pormake.
# Topology dia, (4)-cn, num edge types: 1
# Building blocks:
#     Node 0, Type 0, BuildingBlock: ICAMEG_clean_sbu_1, # of connection points: 4
#     Node 1, Type 0, BuildingBlock: ICAMEG_clean_sbu_1, # of connection points: 4
#     Node 2, Type 0, BuildingBlock: ICAMEG_clean_sbu_1, # of connection points: 4
#     Node 3, Type 0, BuildingBlock: ICAMEG_clean_sbu_1, # of connection points: 4
#     Node 4, Type 0, BuildingBlock: ICAMEG_clean_sbu_1, # of connection points: 4
#     Node 5, Type 0, BuildingBlock: ICAMEG_clean_sbu_1, # of connection points: 4
#     Node 6, Type 0, BuildingBlock: ICAMEG_clean_sbu_1, # of connection points: 4
#     Node 7, Type 0, BuildingBlock: ICAMEG_clean_sbu_1, # of connection points: 4
#     Edge 8, Type (0, 0), BuildingBlock: ZUJKAS_clean_linker_0, # of connection points: 2
#     Edge 9, Type (0, 0), BuildingBlock: ZUJKAS_clean_linker_0, # of connection points: 2
#     Edge 10, Type (0, 0), BuildingBlock: ZUJKAS_clean_linker_0, # of connection points: 2
#     Edge 11, Type (0, 0), BuildingBlock: ZUJKAS_clean_linker_0, # of connection points: 2
#     Edge 12, Type (0, 0), BuildingBlock: ZUJKAS_clean_linker_0, # of connection points: 2
#     Edge 13, Type (0, 0), BuildingBlock: ZUJKAS_clean_linker_0, # of connection points: 2
#     Edge 14, Type (0, 0), BuildingBlock: ZUJKAS_clean_linker_0, # of connection points: 2
#     Edge 15, Type (0, 0), BuildingBlock: ZUJKAS_clean_linker_0, # of connection points: 2
#     Edge 16, Type (0, 0), BuildingBlock: ZUJKAS_clean_linker_0, # of connection points: 2
#     Edge 17, Type (0, 0), BuildingBlock: ZUJKAS_clean_linker_0, # of connection points: 2
#     Edge 18, Type (0, 0), BuildingBlock: ZUJKAS_clean_linker_0, # of connection points: 2
#     Edge 19, Type (0, 0), BuildingBlock: ZUJKAS_clean_linker_0, # of connection points: 2
#     Edge 20, Type (0, 0), BuildingBlock: ZUJKAS_clean_linker_0, # of connection points: 2
#     Edge 21, Type (0, 0), BuildingBlock: ZUJKAS_clean_linker_0, # of connection points: 2
#     Edge 22, Type (0, 0), BuildingBlock: ZUJKAS_clean_linker_0, # of connection points: 2
#     Edge 23, Type (0, 0), BuildingBlock: ZUJKAS_clean_linker_0, # of connection points: 2
# Relax obj value: 0.181
# Max RMSD: 0.230
# Mean RMSD: 0.230
data_MOF--net-dia--node1-ICAMEG_clean_sbu_1--edge1-ZUJKAS_clean_linker_0
_symmetry_space_group_name_H-M    P1
_symmetry_Int_Tables_number       1
_symmetry_cell_setting            triclinic
loop_
_symmetry_equiv_pos_as_xyz
'x, y, z'
_cell_length_a     42.324163
_cell_length_b     42.256976
_cell_length_c     54.331916
_cell_angle_alpha  89.980962
_cell_angle_beta   90.000418
_cell_angle_gamma 101.54755
loop_
_atom_site_label
_atom_site_type_symbol
_atom_site_fract_x
_atom_site_fract_y
_atom_site_fract_z
_atom_type_partial_charge
Co0 Co 0.17078 0.11684 0.63368 0.0
Co1 Co 0.09854 0.14086 0.63353 0.0
O2 O 0.13458 0.12875 0.65167 0.0
C3 C 0.15705 0.06434 0.67189 0.0
O4 O 0.12594 0.06095 0.66798 0.0
C5 C 0.11209 0.19159 0.673 0.0
O6 O 0.14321 0.193 0.67069 0.0
O7 O 0.12907 0.17591 0.61645 0.0
O8 O 0.16691 0.14804 0.60643 0.0
H9 H 0.04312 0.17181 0.55804 0.0
H10 H 0.17999 0.13685 0.68581 0.0
O11 O 0.17701 0.08565 0.66023 0.0
H12 H 0.26132 0.21419 0.63962 0.0
H13 H 0.28045 0.08858 0.62543 0.0
H14 H 0.18221 0.10238 0.58142 0.0
H15 H 0.22463 0.17026 0.61806 0.0
H16 H 0.23556 0.10476 0.64784 0.0
O17 O 0.09207 0.17188 0.66011 0.0
H18 H 0.08741 0.1557 0.58125 0.0
H19 H 0.0338 0.15309 0.64758 0.0
H20 H 0.22664 0.08647 0.55826 0.0
H21 H 0.21653 0.18019 0.70816 0.0
H22 H 0.2762 0.07944 0.58029 0.0
H23 H 0.25748 0.2193 0.68501 0.0
O24 O 0.14028 0.0819 0.6163 0.0
H25 H 0.05269 0.07613 0.70738 0.0
H26 H 0.04489 0.08763 0.61738 0.0
H27 H 0.00826 0.04321 0.6385 0.0
H28 H 0.01196 0.03729 0.68384 0.0
H29 H 0.08912 0.12003 0.68546 0.0
H30 H 0.98906 0.16947 0.62511 0.0
H31 H 0.9935 0.17882 0.57999 0.0
O32 O 0.1028 0.1102 0.60608 0.0
C33 C 0.15351 0.17236 0.60383 0.0
C34 C 0.04086 0.16773 0.57769 0.0
C35 C 0.01054 0.16645 0.61533 0.0
N36 N 0.06315 0.15326 0.61572 0.0
C37 C 0.06584 0.15852 0.59092 0.0
C38 C 0.036 0.15725 0.62796 0.0
C39 C 0.01304 0.17168 0.59002 0.0
C40 C 0.19795 0.15361 0.67565 0.0
N41 N 0.20019 0.15098 0.65068 0.0
C42 C 0.21848 0.17817 0.68839 0.0
C43 C 0.24142 0.20014 0.67538 0.0
C44 C 0.24357 0.1973 0.64991 0.0
C45 C 0.22263 0.17245 0.63779 0.0
C46 C 0.25898 0.09157 0.61562 0.0
C47 C 0.20374 0.09949 0.59113 0.0
C48 C 0.23343 0.10063 0.62823 0.0
N49 N 0.2063 0.1046 0.61594 0.0
C50 C 0.2288 0.09042 0.57792 0.0
C51 C 0.25659 0.08646 0.59029 0.0
C52 C 0.11613 0.08588 0.60352 0.0
C53 C 0.05078 0.07851 0.68763 0.0
C54 C 0.04677 0.08515 0.6371 0.0
C55 C 0.02589 0.05999 0.64897 0.0
C56 C 0.02797 0.0567 0.67441 0.0
N57 N 0.06906 0.10647 0.65021 0.0
C58 C 0.07126 0.10338 0.67514 0.0
Co59 Co 0.89564 0.3404 0.8876 0.0
Co60 Co 0.8719 0.4132 0.88794 0.0
O61 O 0.88385 0.37697 0.86991 0.0
C62 C 0.94763 0.35518 0.84904 0.0
O63 O 0.94892 0.38631 0.85152 0.0
C64 C 0.81889 0.39905 0.85026 0.0
O65 O 0.81534 0.36794 0.8545 0.0
O66 O 0.8373 0.38287 0.90588 0.0
O67 O 0.86396 0.34349 0.9144 0.0
H68 H 0.84217 0.46963 0.96333 0.0
H69 H 0.87666 0.33307 0.83518 0.0
O70 O 0.92759 0.33491 0.8615 0.0
H71 H 0.7988 0.24975 0.87917 0.0
H72 H 0.92413 0.23055 0.89475 0.0
H73 H 0.9088 0.32758 0.93988 0.0
H74 H 0.84228 0.28567 0.90174 0.0
H75 H 0.90841 0.27604 0.87273 0.0
O76 O 0.84042 0.41913 0.86159 0.0
H77 H 0.85793 0.42499 0.94025 0.0
H78 H 0.85964 0.47795 0.87363 0.0
H79 H 0.92426 0.28253 0.96265 0.0
H80 H 0.83371 0.29742 0.81182 0.0
H81 H 0.93204 0.23357 0.94006 0.0
H82 H 0.79436 0.25545 0.83387 0.0
O83 O 0.93004 0.37042 0.90592 0.0
H84 H 0.93405 0.45843 0.81279 0.0
H85 H 0.92539 0.46731 0.90293 0.0
H86 H 0.96892 0.50391 0.8809 0.0
H87 H 0.9734 0.49967 0.83548 0.0
H88 H 0.89112 0.42201 0.83561 0.0
H89 H 0.84363 0.52304 0.89596 0.0
H90 H 0.83491 0.51909 0.94116 0.0
O91 O 0.90324 0.40955 0.9149 0.0
C92 C 0.84041 0.35767 0.91782 0.0
C93 C 0.84595 0.47166 0.94364 0.0
C94 C 0.84674 0.50161 0.90583 0.0
N95 N 0.85981 0.44888 0.90563 0.0
C96 C 0.85493 0.44648 0.93047 0.0
C97 C 0.8557 0.47595 0.89327 0.0
C98 C 0.84186 0.49939 0.93119 0.0
C99 C 0.85977 0.31469 0.84485 0.0
N100 N 0.86204 0.31141 0.86977 0.0
C101 C 0.83545 0.29464 0.83155 0.0
C102 C 0.81334 0.27113 0.84393 0.0
C103 C 0.81581 0.26794 0.86936 0.0
C104 C 0.84043 0.28843 0.88205 0.0
C105 C 0.92077 0.25174 0.90481 0.0
C106 C 0.912 0.30631 0.92992 0.0
C107 C 0.91195 0.27761 0.89243 0.0
N108 N 0.90752 0.3044 0.90502 0.0
C109 C 0.92082 0.2809 0.94291 0.0
C110 C 0.9252 0.25344 0.93023 0.0
C111 C 0.92682 0.39534 0.91815 0.0
C112 C 0.93231 0.46056 0.83257 0.0
C113 C 0.9273 0.46514 0.88319 0.0
C114 C 0.95193 0.48603 0.8708 0.0
C115 C 0.95441 0.48366 0.84532 0.0
N116 N 0.9057 0.44255 0.87056 0.0
C117 C 0.90798 0.44009 0.84558 0.0
Co118 Co 0.66603 0.11573 0.13556 0.0
Co119 Co 0.59655 0.14597 0.13527 0.0
O120 O 0.63112 0.13078 0.15258 0.0
C121 C 0.66513 0.05266 0.16009 0.0
O122 O 0.66117 0.03929 0.13819 0.0
C123 C 0.598 0.2092 0.15957 0.0
O124 O 0.60285 0.22246 0.13768 0.0
O125 O 0.62893 0.17725 0.11617 0.0
O126 O 0.66736 0.14877 0.10888 0.0
H127 H 0.5413 0.1807 0.06106 0.0
H128 H 0.67283 0.13369 0.18833 0.0
O129 O 0.6658 0.08285 0.16247 0.0
H130 H 0.76382 0.20469 0.14672 0.0
H131 H 0.77119 0.07719 0.13083 0.0
H132 H 0.67919 0.10111 0.08369 0.0
H133 H 0.72522 0.16468 0.12307 0.0
H134 H 0.72736 0.09713 0.15186 0.0
O135 O 0.59641 0.17886 0.16211 0.0
H136 H 0.58424 0.1607 0.08324 0.0
H137 H 0.53516 0.16484 0.15099 0.0
H138 H 0.72254 0.0813 0.06191 0.0
H139 H 0.71114 0.17309 0.21275 0.0
H140 H 0.76896 0.06918 0.08552 0.0
H141 H 0.75701 0.20898 0.19192 0.0
O142 O 0.63397 0.08443 0.1161 0.0
H143 H 0.54981 0.08855 0.212 0.0
H144 H 0.53771 0.09699 0.12211 0.0
H145 H 0.49857 0.05699 0.14537 0.0
H146 H 0.50439 0.05268 0.19068 0.0
H147 H 0.58865 0.12798 0.18798 0.0
H148 H 0.49174 0.18498 0.12955 0.0
H149 H 0.49463 0.19299 0.08425 0.0
O150 O 0.59573 0.11309 0.10859 0.0
C151 C 0.65419 0.17298 0.1049 0.0
C152 C 0.53974 0.17727 0.0808 0.0
C153 C 0.51193 0.17968 0.11924 0.0
N154 N 0.56217 0.16152 0.11836 0.0
C155 C 0.56397 0.16592 0.09345 0.0
C156 C 0.53659 0.16828 0.13127 0.0
C157 C 0.51357 0.18417 0.09382 0.0
C158 C 0.69286 0.14905 0.17916 0.0
N159 N 0.69685 0.14673 0.15431 0.0
C160 C 0.71442 0.1714 0.19307 0.0
C161 C 0.74012 0.19155 0.18137 0.0
C162 C 0.74395 0.18917 0.15601 0.0
C163 C 0.72193 0.16654 0.1427 0.0
C164 C 0.75111 0.08241 0.12033 0.0
C165 C 0.69934 0.09595 0.09408 0.0
C166 C 0.72622 0.09369 0.13214 0.0
N167 N 0.70076 0.10033 0.119 0.0
C168 C 0.7238 0.08472 0.08165 0.0
C169 C 0.74984 0.07792 0.09491 0.0
C170 C 0.60895 0.08893 0.10456 0.0
C171 C 0.54696 0.09026 0.19228 0.0
C172 C 0.54055 0.09515 0.14179 0.0
C173 C 0.51824 0.07251 0.15488 0.0
C174 C 0.52151 0.07012 0.1803 0.0
N175 N 0.56536 0.11496 0.15369 0.0
C176 C 0.56882 0.11262 0.17859 0.0
Co177 Co 0.89802 0.84673 0.38374 0.0
Co178 Co 0.86981 0.91644 0.39122 0.0
O179 O 0.88516 0.88508 0.37011 0.0
C180 C 0.96132 0.84877 0.35972 0.0
O181 O 0.97372 0.84997 0.38194 0.0
C182 C 0.82053 0.90447 0.35123 0.0
O183 O 0.8187 0.87332 0.35421 0.0
O184 O 0.83591 0.88163 0.40522 0.0
O185 O 0.86449 0.84282 0.41042 0.0
H186 H 0.83145 0.95698 0.47053 0.0
H187 H 0.88193 0.8482 0.33074 0.0
O188 O 0.93145 0.84932 0.35695 0.0
H189 H 0.80565 0.75468 0.36462 0.0
H190 H 0.93133 0.73878 0.37919 0.0
H191 H 0.91046 0.82523 0.43408 0.0
H192 H 0.84635 0.78792 0.3913 0.0
H193 H 0.91419 0.78678 0.36216 0.0
O194 O 0.83961 0.92459 0.36454 0.0
H195 H 0.85201 0.91835 0.44394 0.0
H196 H 0.85324 0.98095 0.38261 0.0
H197 H 0.92743 0.77759 0.45189 0.0
H198 H 0.84186 0.81533 0.30332 0.0
H199 H 0.93801 0.73395 0.42437 0.0
H200 H 0.80329 0.76825 0.32026 0.0
O201 O 0.92978 0.8749 0.4055 0.0
H202 H 0.93563 0.97738 0.32302 0.0
H203 H 0.91888 0.96991 0.41282 0.0
H204 H 0.9621 0.01222 0.39587 0.0
H205 H 0.97062 0.01623 0.35065 0.0
H206 H 0.89289 0.9352 0.34078 0.0
H207 H 0.83247 0.02016 0.40851 0.0
H208 H 0.82154 0.00832 0.45283 0.0
O209 O 0.89982 0.90982 0.41849 0.0
C210 C 0.83988 0.8552 0.4149 0.0
C211 C 0.8362 0.96245 0.45126 0.0
C212 C 0.83673 0.99789 0.41644 0.0
N213 N 0.85399 0.94746 0.41177 0.0
C214 C 0.84791 0.9407 0.43612 0.0
C215 C 0.84841 0.97556 0.40185 0.0
C216 C 0.83061 0.99124 0.44131 0.0
C217 C 0.86545 0.82755 0.33819 0.0
N218 N 0.86661 0.81993 0.36258 0.0
C219 C 0.84272 0.80911 0.3226 0.0
C220 C 0.82105 0.78273 0.33212 0.0
C221 C 0.82234 0.77512 0.35702 0.0
C222 C 0.84538 0.79412 0.37206 0.0
C223 C 0.92677 0.75762 0.39138 0.0
C224 C 0.91496 0.80632 0.42199 0.0
C225 C 0.91708 0.78486 0.38184 0.0
N226 N 0.91128 0.80877 0.39713 0.0
C227 C 0.92458 0.7794 0.43218 0.0
C228 C 0.93051 0.75493 0.41673 0.0
C229 C 0.92434 0.89665 0.42024 0.0
C230 C 0.9321 0.97593 0.34275 0.0
C231 C 0.92252 0.97139 0.39313 0.0
C232 C 0.94698 0.99546 0.38364 0.0
C233 C 0.95174 0.9977 0.35827 0.0
N234 N 0.90327 0.9502 0.37778 0.0
C235 C 0.90788 0.95216 0.3529 0.0
Co236 Co 0.16195 0.61193 0.13764 0.0
Co237 Co 0.09143 0.63967 0.1315 0.0
O238 O 0.1241 0.62522 0.1518 0.0
C239 C 0.16005 0.5486 0.16179 0.0
O240 O 0.15877 0.53607 0.13961 0.0
C241 C 0.10667 0.69146 0.16959 0.0
O242 O 0.13751 0.6922 0.16612 0.0
O243 O 0.12524 0.67242 0.11499 0.0
O244 O 0.16542 0.64529 0.11097 0.0
H245 H 0.04529 0.67284 0.0526 0.0
H246 H 0.16161 0.62824 0.19068 0.0
O247 O 0.15966 0.57855 0.16449 0.0
H248 H 0.25443 0.7043 0.1557 0.0
H249 H 0.26956 0.57809 0.14107 0.0
H250 H 0.18232 0.59901 0.0871 0.0
H251 H 0.22064 0.66347 0.12943 0.0
H252 H 0.22211 0.59561 0.15859 0.0
O253 O 0.08566 0.67202 0.15728 0.0
H254 H 0.08562 0.65375 0.07843 0.0
H255 H 0.02803 0.65766 0.14195 0.0
H256 H 0.22938 0.5816 0.0688 0.0
H257 H 0.19505 0.66843 0.2177 0.0
H258 H 0.27342 0.57101 0.09586 0.0
H259 H 0.24178 0.7069 0.20021 0.0
O260 O 0.13351 0.58005 0.11609 0.0
H261 H 0.03589 0.57947 0.2043 0.0
H262 H 0.03566 0.58984 0.11391 0.0
H263 H 0.9945 0.54842 0.13407 0.0
H264 H 0.99436 0.54311 0.17961 0.0
H265 H 0.07685 0.62036 0.18334 0.0
H266 H 0.9872 0.67705 0.11684 0.0
H267 H 0.99566 0.68464 0.07181 0.0
O268 O 0.09542 0.6074 0.1053 0.0
C269 C 0.15204 0.66899 0.1057 0.0
C270 C 0.04129 0.66955 0.07219 0.0
C271 C 0.00871 0.67195 0.10825 0.0
N272 N 0.0591 0.65441 0.11164 0.0
C273 C 0.06401 0.65867 0.0869 0.0
C274 C 0.03196 0.66106 0.12239 0.0
C275 C 0.01346 0.67619 0.08299 0.0
C276 C 0.18211 0.64467 0.18298 0.0
N277 N 0.18921 0.64339 0.15851 0.0
C278 C 0.20087 0.66747 0.19835 0.0
C279 C 0.22705 0.68909 0.18851 0.0
C280 C 0.23414 0.68766 0.16354 0.0
C281 C 0.21482 0.66456 0.14873 0.0
C282 C 0.25054 0.58266 0.12909 0.0
C283 C 0.20142 0.59451 0.09899 0.0
C284 C 0.22362 0.59258 0.1389 0.0
N285 N 0.1995 0.59841 0.12386 0.0
C286 C 0.228 0.58464 0.08852 0.0
C287 C 0.25269 0.57869 0.10372 0.0
C288 C 0.1097 0.58372 0.10274 0.0
C289 C 0.03566 0.58158 0.18445 0.0
C290 C 0.0359 0.58756 0.13371 0.0
C291 C 0.01246 0.56412 0.14503 0.0
C292 C 0.01238 0.56117 0.17058 0.0
N293 N 0.0586 0.60757 0.14745 0.0
C294 C 0.05874 0.60474 0.17249 0.0
Co295 Co 0.39223 0.34383 0.38813 0.0
Co296 Co 0.3682 0.41603 0.38898 0.0
O297 O 0.38003 0.38015 0.37066 0.0
C298 C 0.44363 0.35881 0.34951 0.0
O299 O 0.44767 0.38967 0.35481 0.0
C300 C 0.316 0.40126 0.35126 0.0
O301 O 0.31263 0.37045 0.35658 0.0
O302 O 0.3336 0.38531 0.40641 0.0
O303 O 0.36164 0.34731 0.41582 0.0
H304 H 0.3383 0.47161 0.46473 0.0
H305 H 0.37087 0.33559 0.33622 0.0
O306 O 0.42265 0.33826 0.36096 0.0
H307 H 0.29503 0.25312 0.38263 0.0
H308 H 0.42111 0.23413 0.39465 0.0
H309 H 0.40763 0.33157 0.44007 0.0
H310 H 0.33949 0.28944 0.40389 0.0
H311 H 0.40441 0.2794 0.37301 0.0
O312 O 0.3371 0.42208 0.36238 0.0
H313 H 0.35417 0.42725 0.44139 0.0
H314 H 0.35544 0.48064 0.37502 0.0
H315 H 0.42406 0.28673 0.46248 0.0
H316 H 0.32694 0.29948 0.31416 0.0
H317 H 0.43092 0.23757 0.43973 0.0
H318 H 0.28858 0.25795 0.33742 0.0
O319 O 0.42733 0.37426 0.4054 0.0
H320 H 0.43192 0.46216 0.31473 0.0
H321 H 0.42138 0.46987 0.40482 0.0
H322 H 0.46545 0.50665 0.38347 0.0
H323 H 0.47088 0.50299 0.33809 0.0
H324 H 0.38838 0.42558 0.33686 0.0
H325 H 0.3393 0.52547 0.39762 0.0
H326 H 0.33074 0.52116 0.44283 0.0
O327 O 0.39927 0.41181 0.41616 0.0
C328 C 0.3374 0.3607 0.4188 0.0
C329 C 0.34202 0.4738 0.44505 0.0
C330 C 0.34254 0.50401 0.40738 0.0
N331 N 0.3559 0.45141 0.40689 0.0
C332 C 0.35108 0.44879 0.43173 0.0
C333 C 0.35159 0.47851 0.39467 0.0
C334 C 0.33776 0.50159 0.43274 0.0
C335 C 0.35445 0.31737 0.34643 0.0
N336 N 0.35782 0.31458 0.37129 0.0
C337 C 0.32955 0.29708 0.33385 0.0
C338 C 0.30801 0.27382 0.34692 0.0
C339 C 0.3116 0.27111 0.37229 0.0
C340 C 0.33677 0.29183 0.38424 0.0
C341 C 0.41818 0.25541 0.40477 0.0
C342 C 0.41043 0.31021 0.43005 0.0
C343 C 0.40883 0.28117 0.3926 0.0
N344 N 0.40493 0.30806 0.40528 0.0
C345 C 0.4198 0.28492 0.44284 0.0
C346 C 0.42367 0.25735 0.43006 0.0
C347 C 0.42356 0.39835 0.41839 0.0
C348 C 0.42974 0.46405 0.3345 0.0
C349 C 0.42364 0.46802 0.38508 0.0
C350 C 0.44861 0.48898 0.37309 0.0
C351 C 0.45163 0.48693 0.34762 0.0
N352 N 0.40225 0.44567 0.37207 0.0
C353 C 0.40507 0.4435 0.34711 0.0
Co354 Co 0.39762 0.8412 0.88824 0.0
Co355 Co 0.36752 0.91106 0.88716 0.0
O356 O 0.38215 0.87548 0.86985 0.0
C357 C 0.44502 0.85643 0.84593 0.0
O358 O 0.43973 0.88585 0.84384 0.0
C359 C 0.32027 0.89457 0.84457 0.0
O360 O 0.32924 0.86713 0.84024 0.0
O361 O 0.33589 0.87941 0.90652 0.0
O362 O 0.36568 0.84268 0.91524 0.0
H363 H 0.33669 0.96758 0.96213 0.0
H364 H 0.37874 0.82923 0.83602 0.0
O365 O 0.43027 0.83722 0.86214 0.0
H366 H 0.30719 0.7437 0.8828 0.0
H367 H 0.43593 0.73635 0.89775 0.0
H368 H 0.41286 0.83199 0.9407 0.0
H369 H 0.34803 0.78413 0.90416 0.0
H370 H 0.4158 0.7786 0.87478 0.0
O371 O 0.33314 0.913 0.86192 0.0
H372 H 0.3554 0.92417 0.93955 0.0
H373 H 0.34809 0.97242 0.8718 0.0
H374 H 0.43272 0.79017 0.9644 0.0
H375 H 0.33857 0.78896 0.81385 0.0
H376 H 0.4444 0.74193 0.9429 0.0
H377 H 0.30234 0.74587 0.83729 0.0
O378 O 0.43032 0.87416 0.90559 0.0
H379 H 0.42314 0.95746 0.80959 0.0
H380 H 0.41711 0.96973 0.89959 0.0
H381 H 0.4566 0.00871 0.87584 0.0
H382 H 0.4597 1.00283 0.83047 0.0
H383 H 0.38444 0.91868 0.83412 0.0
H384 H 0.32904 0.01619 0.89364 0.0
H385 H 0.32335 0.01401 0.93914 0.0
O386 O 0.40106 0.91168 0.91331 0.0
C387 C 0.34104 0.85522 0.91878 0.0
C388 C 0.33915 0.96885 0.9423 0.0
C389 C 0.33483 0.99611 0.90386 0.0
N390 N 0.35305 0.94582 0.9044 0.0
C391 C 0.34981 0.94437 0.92942 0.0
C392 C 0.34556 0.9712 0.89159 0.0
C393 C 0.33165 0.99488 0.92939 0.0
C394 C 0.36328 0.81039 0.84632 0.0
N395 N 0.36576 0.8091 0.87135 0.0
C396 C 0.34048 0.78773 0.83368 0.0
C397 C 0.32013 0.76359 0.84685 0.0
C398 C 0.32281 0.76239 0.87238 0.0
C399 C 0.34588 0.78547 0.88439 0.0
C400 C 0.43088 0.75724 0.90733 0.0
C401 C 0.41774 0.811 0.93122 0.0
C402 C 0.41954 0.78129 0.89441 0.0
N403 N 0.41297 0.80768 0.90641 0.0
C404 C 0.42904 0.78743 0.94474 0.0
C405 C 0.43562 0.76038 0.93266 0.0
C406 C 0.42579 0.89929 0.91693 0.0
C407 C 0.42195 0.96036 0.82934 0.0
C408 C 0.41847 0.96679 0.8799 0.0
C409 C 0.4408 0.98905 0.86652 0.0
C410 C 0.4425 0.98577 0.84107 0.0
N411 N 0.39832 0.94195 0.86827 0.0
C412 C 0.39992 0.93856 0.84332 0.0
Co413 Co 0.66879 0.61257 0.63634 0.0
Co414 Co 0.59802 0.63945 0.63082 0.0
O415 O 0.63082 0.62503 0.65142 0.0
C416 C 0.65146 0.56552 0.67917 0.0
O417 O 0.62444 0.57514 0.68374 0.0
C418 C 0.60857 0.68946 0.6708 0.0
O419 O 0.63987 0.69183 0.66876 0.0
O420 O 0.63149 0.67431 0.61631 0.0
O421 O 0.67023 0.64615 0.60998 0.0
H422 H 0.5541 0.67623 0.55221 0.0
H423 H 0.66981 0.63053 0.68928 0.0
O424 O 0.66996 0.57818 0.66178 0.0
H425 H 0.76171 0.7053 0.65202 0.0
H426 H 0.77674 0.57939 0.63589 0.0
H427 H 0.68741 0.60188 0.58487 0.0
H428 H 0.72698 0.66398 0.62673 0.0
H429 H 0.72982 0.59588 0.65515 0.0
O430 O 0.58935 0.66957 0.65743 0.0
H431 H 0.59426 0.65719 0.5782 0.0
H432 H 0.53265 0.65336 0.64032 0.0
H433 H 0.73403 0.58576 0.56485 0.0
H434 H 0.70414 0.67119 0.7153 0.0
H435 H 0.77912 0.57438 0.59041 0.0
H436 H 0.75047 0.70903 0.69668 0.0
O437 O 0.64004 0.57991 0.61573 0.0
H438 H 0.53943 0.57372 0.70005 0.0
H439 H 0.5459 0.58812 0.61 0.0
H440 H 0.50517 0.54403 0.62763 0.0
H441 H 0.50167 0.53666 0.67298 0.0
H442 H 0.58012 0.61727 0.6816 0.0
H443 H 0.49192 0.67258 0.61503 0.0
H444 H 0.50249 0.68406 0.57061 0.0
O445 O 0.60478 0.60975 0.60333 0.0
C446 C 0.6575 0.67061 0.60592 0.0
C447 C 0.54919 0.67125 0.57153 0.0
C448 C 0.51431 0.66925 0.60679 0.0
N449 N 0.56579 0.65405 0.61075 0.0
C450 C 0.57182 0.66041 0.58634 0.0
C451 C 0.53751 0.65845 0.62104 0.0
C452 C 0.52025 0.67567 0.58187 0.0
C453 C 0.69015 0.64652 0.68108 0.0
N454 N 0.69657 0.64449 0.65656 0.0
C455 C 0.70941 0.66968 0.69589 0.0
C456 C 0.73536 0.69095 0.68543 0.0
C457 C 0.74167 0.68888 0.66037 0.0
C458 C 0.72186 0.66544 0.64614 0.0
C459 C 0.75726 0.58433 0.62455 0.0
C460 C 0.707 0.59713 0.59612 0.0
C461 C 0.73058 0.5936 0.63535 0.0
N462 N 0.70595 0.60004 0.62114 0.0
C463 C 0.73331 0.58794 0.58468 0.0
C464 C 0.75859 0.58153 0.59903 0.0
C465 C 0.61788 0.5852 0.60137 0.0
C466 C 0.5407 0.5767 0.68026 0.0
C467 C 0.54475 0.58492 0.62974 0.0
C468 C 0.52152 0.55999 0.63962 0.0
C469 C 0.51954 0.55589 0.66506 0.0
N470 N 0.56547 0.6052 0.64477 0.0
C471 C 0.56362 0.60137 0.66972 0.0
H472 H 0.34325 0.31555 0.45345 0.0
H473 H 0.30427 0.29181 0.48454 0.0
H474 H 0.23849 0.35072 0.45954 0.0
H475 H 0.27776 0.37518 0.4281 0.0
H476 H 0.27007 0.33103 0.52262 0.0
H477 H 0.19308 0.24712 0.45745 0.0
H478 H 0.2354 0.26177 0.45121 0.0
H479 H 0.20789 0.28882 0.44915 0.0
C480 C 0.3206 0.3237 0.45447 0.0
C481 C 0.31365 0.34727 0.43812 0.0
C482 C 0.29838 0.31011 0.47237 0.0
C483 C 0.26858 0.31951 0.47428 0.0
C484 C 0.26144 0.3432 0.45828 0.0
H485 H 0.13797 0.23168 0.5948 0.0
H486 H 0.16137 0.27132 0.56328 0.0
C487 C 0.28389 0.35712 0.44037 0.0
C488 C 0.24504 0.3034 0.49275 0.0
H489 H 0.18375 0.23792 0.4998 0.0
C490 C 0.25061 0.31121 0.51768 0.0
C491 C 0.21998 0.27738 0.48614 0.0
C492 C 0.21349 0.26802 0.45956 0.0
C493 C 0.23258 0.2927 0.53629 0.0
C494 C 0.20854 0.26574 0.5297 0.0
C495 C 0.20205 0.25879 0.50473 0.0
C496 C 0.1932 0.24199 0.54836 0.0
C497 C 0.2406 0.30075 0.56289 0.0
C498 C 0.20323 0.21244 0.5502 0.0
C499 C 0.1902 0.18999 0.56814 0.0
C500 C 0.16657 0.19644 0.5846 0.0
C501 C 0.15613 0.22595 0.58246 0.0
C502 C 0.16946 0.24862 0.56451 0.0
H503 H 0.26095 0.32173 0.56494 0.0
H504 H 0.21914 0.30639 0.57234 0.0
H505 H 0.24699 0.27957 0.57232 0.0
H506 H 0.22155 0.20692 0.53791 0.0
H507 H 0.19881 0.16755 0.56908 0.0
H508 H 0.69605 0.52927 0.66849 0.0
H509 H 0.71926 0.49454 0.69606 0.0
H510 H 0.65748 0.5147 0.75471 0.0
H511 H 0.63323 0.54874 0.72679 0.0
H512 H 0.75352 0.51269 0.73501 0.0
H513 H 0.649 0.4193 0.76389 0.0
H514 H 0.64696 0.4463 0.73845 0.0
H515 H 0.64287 0.45944 0.76961 0.0
C516 C 0.68695 0.5259 0.68715 0.0
C517 C 0.66277 0.54183 0.69545 0.0
C518 C 0.70029 0.50599 0.70292 0.0
C519 C 0.69004 0.50164 0.7275 0.0
C520 C 0.66533 0.51693 0.73572 0.0
H521 H 0.81092 0.4611 0.8458 0.0
H522 H 0.77861 0.48344 0.81594 0.0
C523 C 0.65158 0.53657 0.71977 0.0
C524 C 0.7074 0.48361 0.74481 0.0
H525 H 0.69719 0.4234 0.78798 0.0
C526 C 0.74112 0.49297 0.74638 0.0
C527 C 0.69146 0.45753 0.75951 0.0
C528 C 0.65562 0.44481 0.75763 0.0
C529 C 0.75918 0.47764 0.76251 0.0
C530 C 0.74311 0.45279 0.77819 0.0
C531 C 0.70949 0.4427 0.77619 0.0
C532 C 0.76087 0.43811 0.79734 0.0
C533 C 0.79544 0.48816 0.76241 0.0
C534 C 0.76062 0.40477 0.79763 0.0
C535 C 0.77898 0.39168 0.81504 0.0
C536 C 0.79791 0.41178 0.8324 0.0
C537 C 0.79716 0.44493 0.83246 0.0
C538 C 0.77871 0.45784 0.81531 0.0
H539 H 0.80433 0.49941 0.74458 0.0
H540 H 0.80279 0.50645 0.77706 0.0
H541 H 0.80739 0.46748 0.76594 0.0
H542 H 0.74682 0.38902 0.78405 0.0
H543 H 0.77889 0.36604 0.81457 0.0
H544 H 0.62907 0.03419 0.08844 0.0
H545 H 0.60544 0.99746 0.05525 0.0
H546 H 0.53295 0.05444 0.04352 0.0
H547 H 0.5561 0.09107 0.07622 0.0
H548 H 0.53996 0.96081 0.04992 0.0
H549 H 0.57351 0.04979 0.97483 0.0
H550 H 0.59218 0.05484 1.00486 0.0
H551 H 0.55342 0.06512 0.99991 0.0
C552 C 0.60807 0.03888 0.07881 0.0
C553 C 0.59465 0.06577 0.08502 0.0
C554 C 0.59462 0.01785 0.05986 0.0
C555 C 0.56777 0.02354 0.04666 0.0
C556 C 0.55404 0.04994 0.05314 0.0
H557 H 0.42411 0.95368 0.94358 0.0
H558 H 0.46252 0.98016 0.97398 0.0
C559 C 0.56731 0.07081 0.072 0.0
C560 C 0.55349 1.00208 0.02618 0.0
H561 H 0.53111 1.00431 0.96592 0.0
C562 C 0.53857 0.97001 0.0314 0.0
C563 C 0.55188 0.01411 1.00201 0.0
C564 C 0.56888 0.04776 0.99495 0.0
C565 C 0.52022 0.95038 0.01345 0.0
C566 C 0.51706 0.96315 0.9897 0.0
C567 C 0.53345 0.99461 0.98417 0.0
C568 C 0.49403 0.94588 0.97124 0.0
C569 C 0.50279 0.91684 0.02033 0.0
C570 C 0.499 0.91769 0.95945 0.0
C571 C 0.47696 0.90234 0.94175 0.0
C572 C 0.44961 0.91498 0.93558 0.0
C573 C 0.44487 0.94319 0.94762 0.0
C574 C 0.46684 0.95846 0.9651 0.0
H575 H 0.50496 0.91179 0.04026 0.0
H576 H 0.47683 0.91356 0.01553 0.0
H577 H 0.513 0.89882 1.00972 0.0
H578 H 0.52003 0.90776 0.96377 0.0
H579 H 0.48137 0.88066 0.93292 0.0
H580 H 0.93947 0.82873 0.31369 0.0
H581 H 0.96925 0.80761 0.28107 0.0
H582 H 0.05588 0.82897 0.32485 0.0
H583 H 0.02609 0.84939 0.35785 0.0
H584 H 0.02209 0.83253 0.25317 0.0
H585 H 0.04807 0.73346 0.31217 0.0
H586 H 0.02007 0.75837 0.32117 0.0
H587 H 0.06278 0.77315 0.32433 0.0
C588 C 0.96495 0.82932 0.3163 0.0
C589 C 0.98031 0.8405 0.33853 0.0
C590 C 0.98195 0.81716 0.29762 0.0
C591 C 0.01464 0.81596 0.30072 0.0
C592 C 0.03047 0.82879 0.3223 0.0
H593 H 0.14214 0.7278 0.20587 0.0
H594 H 0.12247 0.7609 0.23735 0.0
C595 C 0.01344 0.84072 0.34108 0.0
C596 C 0.03172 0.80034 0.28168 0.0
H597 H 0.07052 0.7377 0.27224 0.0
C598 C 0.03277 0.81188 0.25738 0.0
C599 C 0.04565 0.77329 0.28712 0.0
C600 C 0.0439 0.75859 0.31254 0.0
C601 C 0.04719 0.79707 0.23842 0.0
C602 C 0.06071 0.76984 0.24384 0.0
C603 C 0.06033 0.75872 0.26818 0.0
C604 C 0.07321 0.75113 0.22423 0.0
C605 C 0.04778 0.8106 0.2127 0.0
C606 C 0.05201 0.73449 0.2066 0.0
C607 C 0.06306 0.71547 0.18879 0.0
C608 C 0.09564 0.71267 0.18816 0.0
C609 C 0.11697 0.72958 0.20575 0.0
C610 C 0.10576 0.74845 0.22375 0.0
H611 H 0.04417 0.83593 0.21269 0.0
H612 H 0.07098 0.80977 0.2034 0.0
H613 H 0.02804 0.7958 0.20178 0.0
H614 H 0.0267 0.73576 0.20687 0.0
H615 H 0.04592 0.70281 0.17558 0.0
H616 H 0.30338 0.87558 0.7971 0.0
H617 H 0.27132 0.90106 0.76829 0.0
H618 H 0.25315 0.9656 0.82567 0.0
H619 H 0.28577 0.94107 0.85418 0.0
H620 H 0.209 0.9112 0.76664 0.0
H621 H 0.2951 0.02834 0.77369 0.0
H622 H 0.30369 0.99149 0.78624 0.0
H623 H 0.27849 0.01375 0.80288 0.0
C624 C 0.29226 0.89497 0.80362 0.0
C625 C 0.29752 0.90659 0.82784 0.0
C626 C 0.27395 0.90954 0.78713 0.0
C627 C 0.26046 0.93581 0.79462 0.0
C628 C 0.26406 0.94602 0.81922 0.0
H629 H 0.12485 0.02577 0.70869 0.0
H630 H 0.14795 0.99315 0.73864 0.0
C631 C 0.28261 0.93183 0.83556 0.0
C632 C 0.24397 0.95361 0.77658 0.0
H633 H 0.24647 0.02862 0.75222 0.0
C634 C 0.2172 0.93686 0.76342 0.0
C635 C 0.25493 0.98704 0.77209 0.0
C636 C 0.28481 0.00616 0.78427 0.0
C637 C 0.20097 0.95267 0.74609 0.0
C638 C 0.21139 0.98631 0.74218 0.0
C639 C 0.23821 1.00293 0.75533 0.0
C640 C 0.19631 0.00469 0.7236 0.0
C641 C 0.17343 0.93302 0.73167 0.0
C642 C 0.21574 0.02253 0.70544 0.0
C643 C 0.20278 0.04153 0.68871 0.0
C644 C 0.16991 0.04315 0.68954 0.0
C645 C 0.15021 0.0249 0.70746 0.0
C646 C 0.16336 0.00606 0.72448 0.0
H647 H 0.17404 0.90686 0.73202 0.0
H648 H 0.15027 0.93611 0.73993 0.0
H649 H 0.17396 0.94113 0.7122 0.0
H650 H 0.24117 0.02192 0.70428 0.0
H651 H 0.21868 0.05499 0.67507 0.0
H652 H 0.98302 0.37551 0.93126 0.0
H653 H 0.02121 0.39822 0.96394 0.0
H654 H 0.96226 0.46731 0.98149 0.0
H655 H 0.92443 0.44524 0.9494 0.0
H656 H 0.0552 0.46643 0.96992 0.0
H657 H 0.9743 0.42263 0.0481 0.0
H658 H 0.96854 0.40495 0.01773 0.0
H659 H 0.95497 0.44172 0.02453 0.0
C660 C 0.9782 0.39549 0.94213 0.0
C661 C 0.95051 0.4084 0.93767 0.0
C662 C 1.00004 0.40843 0.96076 0.0
C663 C 0.99426 0.43412 0.97536 0.0
C664 C 0.9669 0.44713 0.97074 0.0
H665 H 0.05976 0.58415 0.071 0.0
H666 H 0.03691 0.54339 0.04091 0.0
C667 C 0.94531 0.43446 0.95222 0.0
C668 C 0.01668 0.44837 0.99524 0.0
H669 H 0.01656 0.46903 0.05599 0.0
C670 C 0.04723 0.46628 0.9889 0.0
C671 C 1.00623 0.44809 0.01999 0.0
C672 C 0.97433 0.42805 0.02808 0.0
C673 C 0.06652 0.48588 1.00636 0.0
C674 C 0.05489 0.48741 0.03062 0.0
C675 C 0.02535 0.46785 0.03732 0.0
C676 C 0.07062 0.51233 0.04828 0.0
C677 C 0.0982 0.50652 0.99853 0.0
C678 C 0.09738 0.5084 0.06234 0.0
C679 C 0.11063 0.53177 0.07984 0.0
C680 C 0.09721 0.55936 0.08351 0.0
C681 C 0.07073 0.56325 0.06892 0.0
C682 C 0.05757 0.53996 0.05162 0.0
H683 H 0.10435 0.50191 0.97916 0.0
H684 H 0.09707 0.53243 1.0005 0.0
H685 H 0.1178 0.5018 1.01071 0.0
H686 H 0.10769 0.48711 0.06001 0.0
H687 H 0.13105 0.52802 0.09065 0.0
H688 H 0.48449 0.39427 0.31547 0.0
H689 H 0.51425 0.37334 0.28236 0.0
H690 H 0.47701 0.27604 0.30704 0.0
H691 H 0.44704 0.29642 0.33954 0.0
H692 H 0.56106 0.33481 0.28322 0.0
H693 H 0.45138 0.27141 0.23497 0.0
H694 H 0.45012 0.30103 0.25868 0.0
H695 H 0.45171 0.26005 0.26676 0.0
C696 C 0.48268 0.36843 0.31381 0.0
C697 C 0.46304 0.34705 0.33001 0.0
C698 C 0.49971 0.35651 0.2949 0.0
C699 C 0.4973 0.32307 0.29189 0.0
C700 C 0.47858 0.30187 0.30856 0.0
H701 H 0.57331 0.18688 0.20432 0.0
H702 H 0.55174 0.2172 0.23639 0.0
C703 C 0.46151 0.31365 0.32725 0.0
C704 C 0.51409 0.30986 0.27141 0.0
H705 H 0.50085 0.25582 0.22391 0.0
C706 C 0.54791 0.31788 0.27004 0.0
C707 C 0.4969 0.28787 0.2541 0.0
C708 C 0.46051 0.27983 0.2535 0.0
C709 C 0.56499 0.30341 0.25248 0.0
C710 C 0.54777 0.28045 0.23593 0.0
C711 C 0.51399 0.27316 0.23685 0.0
C712 C 0.56417 0.26318 0.21769 0.0
C713 C 0.60132 0.31186 0.25215 0.0
C714 C 0.57866 0.2791 0.19666 0.0
C715 C 0.59088 0.2618 0.17818 0.0
C716 C 0.5889 0.22826 0.18043 0.0
C717 C 0.57541 0.21267 0.20199 0.0
C718 C 0.56299 0.22994 0.22034 0.0
H719 H 0.61124 0.32716 0.26807 0.0
H720 H 0.61137 0.28951 0.2523 0.0
H721 H 0.60953 0.32517 0.23495 0.0
H722 H 0.57951 0.3047 0.19417 0.0
H723 H 0.60106 0.27457 0.16182 0.0
H724 H 0.78645 0.87522 0.43333 0.0
H725 H 0.74878 0.84839 0.46475 0.0
H726 H 0.80199 0.77164 0.46963 0.0
H727 H 0.83935 0.7978 0.43827 0.0
H728 H 0.73495 0.74983 0.46663 0.0
H729 H 0.76799 0.84404 0.53894 0.0
H730 H 0.75598 0.85731 0.50956 0.0
H731 H 0.79268 0.84239 0.51206 0.0
C732 C 0.79006 0.85256 0.44101 0.0
C733 C 0.81603 0.83874 0.43321 0.0
C734 C 0.76862 0.83739 0.45911 0.0
C735 C 0.77281 0.80822 0.46976 0.0
C736 C 0.79833 0.79417 0.46171 0.0
H737 H 0.71287 0.66993 0.58037 0.0
H738 H 0.73654 0.7055 0.54722 0.0
C739 C 0.81972 0.80924 0.44373 0.0
C740 C 0.75081 0.79184 0.48925 0.0
H741 H 0.73 0.79739 0.5497 0.0
C742 C 0.73357 0.7604 0.4847 0.0
C743 C 0.74891 0.80571 0.51279 0.0
C744 C 0.76749 0.83913 0.51884 0.0
C745 C 0.71537 0.74208 0.50325 0.0
C746 C 0.71468 0.75537 0.52707 0.0
C747 C 0.73061 0.78732 0.53139 0.0
C748 C 0.70043 0.73513 0.54815 0.0
C749 C 0.69762 0.70828 0.4974 0.0
C750 C 0.67264 0.74055 0.56021 0.0
C751 C 0.65882 0.72007 0.57938 0.0
C752 C 0.67279 0.69405 0.58688 0.0
C753 C 0.70123 0.68952 0.57514 0.0
C754 C 0.71483 0.7098 0.55605 0.0
H755 H 0.69347 0.70478 0.4773 0.0
H756 H 0.71222 0.69075 0.50372 0.0
H757 H 0.67401 0.70271 0.50703 0.0
H758 H 0.66129 0.76014 0.55444 0.0
H759 H 0.63696 0.72429 0.58799 0.0
H760 H 0.15869 0.48361 0.16383 0.0
H761 H 0.17797 0.45345 0.19717 0.0
H762 H 0.20038 0.54049 0.2406 0.0
H763 H 0.18036 0.57055 0.2077 0.0
H764 H 0.23771 0.46217 0.2146 0.0
H765 H 0.15689 0.47822 0.29152 0.0
H766 H 0.14845 0.48763 0.26009 0.0
H767 H 0.17597 0.5162 0.27845 0.0
C768 C 0.16711 0.4962 0.18068 0.0
C769 C 0.16783 0.52949 0.1831 0.0
C770 C 0.17821 0.47893 0.19972 0.0
C771 C 0.19029 0.49452 0.2216 0.0
C772 C 0.1904 0.52763 0.22424 0.0
H773 H 0.31056 0.46329 0.34153 0.0
H774 H 0.27784 0.48247 0.31004 0.0
C775 C 0.17905 0.54487 0.2053 0.0
C776 C 0.20519 0.4769 0.24074 0.0
H777 H 0.20642 0.46203 0.30257 0.0
C778 C 0.23047 0.46168 0.23376 0.0
C779 C 0.19579 0.47617 0.2658 0.0
C780 C 0.16756 0.49014 0.27437 0.0
C781 C 0.24741 0.44702 0.25123 0.0
C782 C 0.23879 0.44742 0.27634 0.0
C783 C 0.21302 0.46185 0.28329 0.0
C784 C 0.25769 0.43497 0.2958 0.0
C785 C 0.27528 0.4323 0.24292 0.0
C786 C 0.25698 0.40175 0.29841 0.0
C787 C 0.27563 0.39057 0.31657 0.0
C788 C 0.29544 0.41248 0.33231 0.0
C789 C 0.29576 0.4457 0.32969 0.0
C790 C 0.27698 0.45676 0.31173 0.0
H791 H 0.28148 0.43755 0.22327 0.0
H792 H 0.29692 0.44148 0.25435 0.0
H793 H 0.26892 0.4057 0.24533 0.0
H794 H 0.24205 0.38452 0.28637 0.0
H795 H 0.27481 0.36486 0.31809 0.0
H796 H 0.84138 0.30558 0.94718 0.0
H797 H 0.80385 0.2832 0.97937 0.0
H798 H 0.748 0.35621 0.96569 0.0
H799 H 0.78581 0.37915 0.93284 0.0
H800 H 0.78826 0.31723 0.02236 0.0
H801 H 0.68128 0.26781 0.96412 0.0
H802 H 0.72149 0.27759 0.95141 0.0
H803 H 0.70119 0.30932 0.95994 0.0
C804 C 0.82113 0.31704 0.95076 0.0
C805 C 0.81668 0.34425 0.93723 0.0
C806 C 0.79967 0.30413 0.9693 0.0
C807 C 0.77306 0.31789 0.97485 0.0
C808 C 0.76824 0.34502 0.96149 0.0
H809 H 0.63262 0.22635 0.08772 0.0
H810 H 0.65879 0.26602 0.05723 0.0
C811 C 0.78991 0.35813 0.94279 0.0
C812 C 0.75119 0.30358 0.99505 0.0
H813 H 0.67847 0.25359 1.00602 0.0
C814 C 0.76402 0.30383 0.01889 0.0
C815 C 0.71954 0.28619 0.9905 0.0
C816 C 0.70488 0.28492 0.96513 0.0
C817 C 0.74668 0.28589 0.03801 0.0
C818 C 0.71587 0.26687 0.0331 0.0
C819 C 0.70216 0.26814 1.00967 0.0
C820 C 0.69936 0.24295 0.05126 0.0
C821 C 0.76191 0.28658 0.06316 0.0
C822 C 0.71323 0.2166 0.05763 0.0
C823 C 0.69841 0.19392 0.07485 0.0
C824 C 0.6693 0.19706 0.08623 0.0
C825 C 0.65514 0.2233 0.07952 0.0
C826 C 0.66999 0.24596 0.06207 0.0
H827 H 0.78093 0.30861 0.06577 0.0
H828 H 0.74354 0.28559 0.07788 0.0
H829 H 0.77328 0.26523 0.06521 0.0
H830 H 0.73562 0.21355 0.04919 0.0
H831 H 0.70995 0.17396 0.07926 0.0
H832 H 0.81309 0.96658 0.34464 0.0
H833 H 0.7825 0.98772 0.31275 0.0
H834 H 0.75388 0.89221 0.28197 0.0
H835 H 0.78401 0.87059 0.31433 0.0
H836 H 0.79181 0.9879 0.26372 0.0
H837 H 0.66816 0.9208 0.28507 0.0
H838 H 0.70149 0.92231 0.30605 0.0
H839 H 0.69699 0.89556 0.28 0.0
C840 C 0.80011 0.94992 0.33124 0.0
C841 C 0.80097 0.91681 0.33212 0.0
C842 C 0.7826 0.9621 0.31297 0.0
C843 C 0.7655 0.94157 0.29509 0.0
C844 C 0.76624 0.90846 0.29588 0.0
H845 H 0.6679 0.98836 0.16193 0.0
H846 H 0.69057 0.96006 0.19486 0.0
C847 C 0.78365 0.89615 0.31431 0.0
C848 C 0.74834 0.95541 0.27509 0.0
H849 H 0.67438 0.95273 0.24876 0.0
C850 C 0.76612 0.98021 0.26052 0.0
C851 C 0.7148 0.94533 0.2708 0.0
C852 C 0.69412 0.91975 0.28642 0.0
C853 C 0.75137 0.9952 0.24191 0.0
C854 C 0.71785 0.98538 0.23781 0.0
C855 C 0.70007 0.96023 0.25201 0.0
C856 C 0.70103 1.00148 0.21902 0.0
C857 C 0.77182 0.02135 0.2266 0.0
C858 C 0.6985 0.03386 0.22203 0.0
C859 C 0.68544 0.05007 0.20333 0.0
C860 C 0.6747 0.03422 0.18118 0.0
C861 C 0.676 1.00134 0.17869 0.0
C862 C 0.68894 0.98509 0.19749 0.0
H863 H 0.79796 0.02137 0.22851 0.0
H864 H 0.76512 0.01839 0.20685 0.0
H865 H 0.76764 0.04524 0.2327 0.0
H866 H 0.70739 0.04684 0.23863 0.0
H867 H 0.68482 0.07534 0.20595 0.0
H868 H 0.99006 0.91337 0.41829 0.0
H869 H 0.02613 0.93978 0.4508 0.0
H870 H 0.94529 0.92963 0.5007 0.0
H871 H 0.90916 0.90544 0.46774 0.0
H872 H 0.9752 0.98678 0.50288 0.0
H873 H 0.06847 0.91261 0.50949 0.0
H874 H 0.06576 0.92704 0.47872 0.0
H875 H 0.03188 0.89972 0.49208 0.0
C876 C 0.98026 0.91626 0.43639 0.0
C877 C 0.94695 0.90742 0.44061 0.0
C878 C 1.0009 0.93114 0.45506 0.0
C879 C 0.98867 0.93642 0.47848 0.0
C880 C 0.95547 0.926 0.48287 0.0
H881 H 0.10636 0.01973 0.60525 0.0
H882 H 0.07638 0.98165 0.5751 0.0
C883 C 0.9348 0.91206 0.46407 0.0
C884 C 0.00942 0.95582 0.49757 0.0
H885 H 0.08194 0.96577 0.52744 0.0
C886 C 0.99834 0.98178 0.50839 0.0
C887 C 0.03955 0.94934 0.50518 0.0
C888 C 0.05192 0.92043 0.49594 0.0
C889 C 0.0165 1.00159 0.52614 0.0
C890 C 0.04756 0.99651 0.5325 0.0
C891 C 0.05843 0.9701 0.52223 0.0
C892 C 0.06894 0.01878 0.5495 0.0
C893 C 1.00178 0.02745 0.53818 0.0
C894 C 0.07594 0.05209 0.54467 0.0
C895 C 0.09231 0.07368 0.56198 0.0
C896 C 0.10306 0.06241 0.58415 0.0
C897 C 0.09834 0.02896 0.58825 0.0
C898 C 0.08119 0.00727 0.57107 0.0
H899 H 0.97501 0.02115 0.53768 0.0
H900 H 0.00953 0.03132 0.55765 0.0
H901 H 0.00938 0.0505 0.52801 0.0
H902 H 0.06779 0.06153 0.5278 0.0
H903 H 0.09606 0.09936 0.55822 0.0
H904 H 0.96643 0.29754 0.85174 0.0
H905 H 0.99929 0.27438 0.82275 0.0
H906 H 0.00999 0.36002 0.77774 0.0
H907 H 0.97793 0.38402 0.80751 0.0
H908 H 0.98585 0.25779 0.77778 0.0
H909 H 0.10107 0.34713 0.77738 0.0
H910 H 0.07004 0.34786 0.80002 0.0
H911 H 0.06707 0.36473 0.76988 0.0
C912 C 0.97604 0.31168 0.83582 0.0
C913 C 0.96946 0.34261 0.83189 0.0
C914 C 0.99491 0.29837 0.81922 0.0
C915 C 0.00747 0.31543 0.79805 0.0
C916 C 1.00131 0.3466 0.79419 0.0
H917 H 0.05536 0.212 0.66982 0.0
H918 H 0.03191 0.24395 0.69946 0.0
C919 C 0.98278 0.36024 0.81112 0.0
C920 C 0.02481 0.29926 0.77943 0.0
H921 H 0.09444 0.3068 0.74597 0.0
C922 C 0.00968 0.26854 0.77097 0.0
C923 C 0.05613 0.31292 0.77069 0.0
C924 C 0.07469 0.34482 0.78014 0.0
C925 C 0.02471 0.25122 0.75409 0.0
C926 C 0.05537 0.26545 0.74445 0.0
C927 C 0.07078 0.29602 0.75308 0.0
C928 C 0.07147 0.24887 0.72535 0.0
C929 C 0.00774 0.21742 0.74728 0.0
C930 C 0.10251 0.24256 0.72921 0.0
C931 C 0.11642 0.22481 0.71187 0.0
C932 C 0.09934 0.21283 0.69054 0.0
C933 C 0.06888 0.22031 0.68631 0.0
C934 C 0.05534 0.23848 0.70333 0.0
H935 H 0.99047 0.20653 0.76182 0.0
H936 H 0.99379 0.21831 0.73009 0.0
H937 H 0.02519 0.20137 0.74424 0.0
H938 H 0.11559 0.25057 0.74595 0.0
H939 H 0.13997 0.21952 0.71557 0.0
H940 H 0.54705 0.69974 0.6721 0.0
H941 H 0.52338 0.73212 0.70116 0.0
H942 H 0.61438 0.75741 0.73922 0.0
H943 H 0.63869 0.72561 0.7095 0.0
H944 H 0.51446 0.72384 0.74853 0.0
H945 H 0.59116 0.84486 0.73351 0.0
H946 H 0.59181 0.81131 0.71311 0.0
H947 H 0.61374 0.81471 0.74168 0.0
C948 C 0.56222 0.71233 0.68652 0.0
C949 C 0.59484 0.71002 0.68843 0.0
C950 C 0.54858 0.73092 0.70317 0.0
C951 C 0.56707 0.74764 0.7223 0.0
C952 C 0.59973 0.74545 0.7243 0.0
H953 H 0.47506 0.80598 0.85313 0.0
H954 H 0.50651 0.7816 0.82368 0.0
C955 C 0.61356 0.72705 0.7074 0.0
C956 C 0.55134 0.76568 0.74073 0.0
H957 H 0.55518 0.83956 0.76768 0.0
C958 C 0.52339 0.74918 0.75263 0.0
C959 C 0.56259 0.79891 0.7459 0.0
C960 C 0.59127 0.81861 0.73271 0.0
C961 C 0.50653 0.76473 0.76953 0.0
C962 C 0.51846 0.7976 0.77546 0.0
C963 C 0.54622 0.8143 0.76339 0.0
C964 C 0.50226 0.81482 0.79411 0.0
C965 C 0.47557 0.74584 0.78035 0.0
C966 C 0.49091 0.84288 0.78787 0.0
C967 C 0.47333 0.85739 0.80496 0.0
C968 C 0.46665 0.84391 0.82852 0.0
C969 C 0.4793 0.81668 0.83501 0.0
C970 C 0.49718 0.80257 0.81811 0.0
H971 H 0.46482 0.72501 0.76852 0.0
H972 H 0.4807 0.73613 0.79858 0.0
H973 H 0.45749 0.76132 0.78287 0.0
H974 H 0.49474 0.85297 0.76953 0.0
H975 H 0.46396 0.87834 0.79942 0.0
H976 H 0.21065 0.67122 0.08389 0.0
H977 H 0.2379 0.70995 0.05387 0.0
H978 H 0.15869 0.76006 0.05548 0.0
H979 H 0.13083 0.72112 0.08581 0.0
H980 H 0.18098 0.74714 1.00684 0.0
H981 H 0.28154 0.80484 0.0672 0.0
H982 H 0.27523 0.76155 0.06722 0.0
H983 H 0.24441 0.78111 0.07912 0.0
C984 C 0.19894 0.69054 0.07812 0.0
C985 C 0.16856 0.69312 0.08756 0.0
C986 C 0.2147 0.71278 0.06095 0.0
C987 C 0.2006 0.73821 0.05274 0.0
C988 C 0.17011 0.74076 0.06175 0.0
H989 H 0.28445 0.87296 0.9333 0.0
H990 H 0.24751 0.84855 0.96612 0.0
C991 C 0.15428 0.71851 0.07912 0.0
C992 C 0.21775 0.76136 0.03427 0.0
H993 H 0.29006 0.81205 0.02373 0.0
C994 C 0.20455 0.76188 1.01059 0.0
C995 C 0.24843 0.78064 0.03927 0.0
C996 C 0.26314 0.78232 0.06465 0.0
C997 C 0.22218 0.77957 0.99137 0.0
C998 C 0.25359 0.79746 0.9961 0.0
C999 C 0.26603 0.79822 0.02009 0.0
C1000 C 0.27533 0.81273 0.97608 0.0
C1001 C 0.2079 0.77752 0.96584 0.0
C1002 C 0.30337 0.80103 0.97105 0.0
C1003 C 0.32445 0.81486 0.95249 0.0
C1004 C 0.31811 0.84093 0.93846 0.0
C1005 C 0.29002 0.85283 0.94362 0.0
C1006 C 0.26881 0.83884 0.9623 0.0
H1007 H 0.18535 0.7589 0.96453 0.0
H1008 H 0.20225 0.80123 0.96081 0.0
H1009 H 0.22548 0.77185 0.95218 0.0
H1010 H 0.30892 0.78096 0.98146 0.0
H1011 H 0.3458 0.805 0.94924 0.0
H1012 H 0.41111 0.41967 0.46358 0.0
H1013 H 0.4497 0.44695 0.49386 0.0
H1014 H 0.52836 0.43524 0.44648 0.0
H1015 H 0.48948 0.40624 0.41647 0.0
H1016 H 0.54394 0.42894 0.49407 0.0
H1017 H 0.49322 0.53897 0.48408 0.0
H1018 H 0.46289 0.5054 0.49378 0.0
H1019 H 0.48173 0.50458 0.46408 0.0
C1020 C 0.43666 0.42257 0.45975 0.0
C1021 C 0.44737 0.41121 0.43759 0.0
C1022 C 0.4587 0.43837 0.47699 0.0
C1023 C 0.49193 0.44417 0.47211 0.0
C1024 C 0.50282 0.43136 0.45054 0.0
H1025 H 0.61062 0.60073 0.55377 0.0
H1026 H 0.58546 0.56518 0.52076 0.0
C1027 C 0.48066 0.41478 0.43344 0.0
C1028 C 0.51485 0.46484 0.4891 0.0
H1029 H 0.52741 0.53739 0.51877 0.0
C1030 C 0.54059 0.45281 0.49931 0.0
C1031 C 0.51104 0.49634 0.49551 0.0
C1032 C 0.48595 0.51221 0.48356 0.0
C1033 C 0.56192 0.47101 0.51635 0.0
C1034 C 0.55671 0.50164 0.524 0.0
C1035 C 0.53143 0.51386 0.51323 0.0
C1036 C 0.57676 0.52176 0.54307 0.0
C1037 C 0.59005 0.45738 0.52557 0.0
C1038 C 0.58131 0.50924 0.56655 0.0
C1039 C 0.59671 0.5295 0.58525 0.0
C1040 C 0.60686 0.56273 0.58097 0.0
C1041 C 0.60302 0.57512 0.55745 0.0
C1042 C 0.58853 0.5548 0.53863 0.0
H1043 H 0.59708 0.44032 0.51204 0.0
H1044 H 0.61136 0.47678 0.52938 0.0
H1045 H 0.58301 0.44375 0.54284 0.0
H1046 H 0.57166 0.48415 0.57081 0.0
H1047 H 0.59893 0.51958 0.60341 0.0
loop_
_geom_bond_atom_site_label_1
_geom_bond_atom_site_label_2
_geom_bond_distance
_geom_bond_site_symmetry_2
_ccdc_geom_bond_type
Co0 O2 2.143 . S
Co0 O8 2.074 . S
Co0 O11 2.093 . S
Co0 O24 2.097 . S
Co0 N41 2.151 . S
Co0 N49 2.214 . S
Co1 O2 2.160 . S
Co1 O7 2.058 . S
Co1 O17 2.057 . S
Co1 O32 2.037 . S
Co1 N36 2.145 . S
Co1 N57 2.257 . S
O2 Co0 2.143 . S
O2 Co1 2.160 . S
C3 O4 1.278 . S
C3 O11 1.224 . S
O4 C3 1.278 . S
C5 O6 1.245 . S
C5 O17 1.232 . S
O6 C5 1.245 . S
O7 Co1 2.058 . S
O7 C33 1.269 . S
O8 Co0 2.074 . S
O8 C33 1.257 . S
H9 C34 0.930 . S
H10 C40 0.930 . S
O11 Co0 2.093 . S
O11 C3 1.224 . S
H12 C44 0.929 . S
H13 C46 0.930 . S
H14 C47 0.930 . S
H15 C45 0.929 . S
H16 C48 0.928 . S
O17 Co1 2.057 . S
O17 C5 1.232 . S
H18 C37 0.929 . S
H19 C38 0.929 . S
H20 C50 0.931 . S
H21 C42 0.929 . S
H22 C51 0.930 . S
H23 C43 0.931 . S
O24 Co0 2.097 . S
O24 C52 1.214 . S
H25 C53 0.929 . S
H26 C54 0.929 . S
H27 C55 0.930 1_655 S
H28 C56 0.917 1_655 S
H29 C58 0.930 . S
H30 C35 0.930 1_655 S
H31 C39 0.930 . S
O32 Co1 2.037 . S
O32 C52 1.234 . S
C33 O7 1.269 . S
C33 O8 1.257 . S
C34 H9 0.930 . S
C34 C37 1.388 . S
C34 C39 1.418 1_455 S
C35 H30 0.930 1_455 S
C35 C38 1.404 . S
C35 C39 1.353 1_455 S
N36 Co1 2.145 . S
N36 C37 1.397 . S
N36 C38 1.334 . S
C37 H18 0.929 . S
C37 C34 1.388 . S
C37 N36 1.397 . S
C38 H19 0.929 . S
C38 C35 1.404 . S
C38 N36 1.334 . S
C39 H31 0.930 . S
C39 C34 1.418 1_655 S
C39 C35 1.353 1_655 S
C40 H10 0.930 . S
C40 N41 1.330 . S
C40 C42 1.446 . S
N41 Co0 2.151 . S
N41 C40 1.330 . S
N41 C45 1.418 . S
C42 H21 0.929 . S
C42 C40 1.446 . S
C42 C43 1.332 . S
C43 H23 0.931 . S
C43 C42 1.332 . S
C43 C44 1.267 . S
C44 H12 0.929 . S
C44 C43 1.267 . S
C44 C45 1.251 . S
C45 H15 0.929 . S
C45 N41 1.418 . S
C45 C44 1.251 . S
C46 H13 0.930 . S
C46 C48 1.406 . S
C46 C51 1.261 . S
C47 H14 0.930 . S
C47 N49 1.325 . S
C47 C50 1.357 . S
C48 H16 0.928 . S
C48 C46 1.406 . S
C48 N49 1.261 . S
N49 Co0 2.214 . S
N49 C47 1.325 . S
N49 C48 1.261 . S
C50 H20 0.931 . S
C50 C47 1.357 . S
C50 C51 1.312 . S
C51 H22 0.930 . S
C51 C46 1.261 . S
C51 C50 1.312 . S
C52 O24 1.214 . S
C52 O32 1.234 . S
C53 H25 0.929 . S
C53 C56 1.391 . S
C53 C58 1.391 . S
C54 H26 0.929 . S
C54 C55 1.390 . S
C54 N57 1.391 . S
C55 H27 0.930 1_455 S
C55 C54 1.390 . S
C55 C56 1.392 . S
C56 H28 0.917 1_455 S
C56 C53 1.391 . S
C56 C55 1.392 . S
N57 Co1 2.257 . S
N57 C54 1.391 . S
N57 C58 1.388 . S
C58 H29 0.930 . S
C58 C53 1.391 . S
C58 N57 1.388 . S
Co59 O61 2.143 . S
Co59 O67 2.074 . S
Co59 O70 2.093 . S
Co59 O83 2.097 . S
Co59 N100 2.151 . S
Co59 N108 2.214 . S
Co60 O61 2.160 . S
Co60 O66 2.058 . S
Co60 O76 2.057 . S
Co60 O91 2.037 . S
Co60 N95 2.145 . S
Co60 N116 2.257 . S
O61 Co59 2.143 . S
O61 Co60 2.160 . S
C62 O63 1.278 . S
C62 O70 1.224 . S
O63 C62 1.278 . S
C64 O65 1.245 . S
C64 O76 1.232 . S
O65 C64 1.245 . S
O66 Co60 2.058 . S
O66 C92 1.269 . S
O67 Co59 2.074 . S
O67 C92 1.257 . S
H68 C93 0.930 . S
H69 C99 0.930 . S
O70 Co59 2.093 . S
O70 C62 1.224 . S
H71 C103 0.929 . S
H72 C105 0.930 . S
H73 C106 0.930 . S
H74 C104 0.929 . S
H75 C107 0.928 . S
O76 Co60 2.057 . S
O76 C64 1.232 . S
H77 C96 0.929 . S
H78 C97 0.929 . S
H79 C109 0.931 . S
H80 C101 0.929 . S
H81 C110 0.930 . S
H82 C102 0.931 . S
O83 Co59 2.097 . S
O83 C111 1.214 . S
H84 C112 0.929 . S
H85 C113 0.929 . S
H86 C114 0.930 . S
H87 C115 0.929 . S
H88 C117 0.930 . S
H89 C94 0.930 . S
H90 C98 0.930 . S
O91 Co60 2.037 . S
O91 C111 1.234 . S
C92 O66 1.269 . S
C92 O67 1.257 . S
C93 H68 0.930 . S
C93 C96 1.388 . S
C93 C98 1.418 . S
C94 H89 0.930 . S
C94 C97 1.404 . S
C94 C98 1.353 . S
N95 Co60 2.145 . S
N95 C96 1.397 . S
N95 C97 1.334 . S
C96 H77 0.929 . S
C96 C93 1.388 . S
C96 N95 1.397 . S
C97 H78 0.929 . S
C97 C94 1.404 . S
C97 N95 1.334 . S
C98 H90 0.930 . S
C98 C93 1.418 . S
C98 C94 1.353 . S
C99 H69 0.930 . S
C99 N100 1.330 . S
C99 C101 1.446 . S
N100 Co59 2.151 . S
N100 C99 1.330 . S
N100 C104 1.418 . S
C101 H80 0.929 . S
C101 C99 1.446 . S
C101 C102 1.332 . S
C102 H82 0.931 . S
C102 C101 1.332 . S
C102 C103 1.267 . S
C103 H71 0.929 . S
C103 C102 1.267 . S
C103 C104 1.251 . S
C104 H74 0.929 . S
C104 N100 1.418 . S
C104 C103 1.251 . S
C105 H72 0.930 . S
C105 C107 1.406 . S
C105 C110 1.261 . S
C106 H73 0.930 . S
C106 N108 1.325 . S
C106 C109 1.357 . S
C107 H75 0.928 . S
C107 C105 1.406 . S
C107 N108 1.261 . S
N108 Co59 2.214 . S
N108 C106 1.325 . S
N108 C107 1.261 . S
C109 H79 0.931 . S
C109 C106 1.357 . S
C109 C110 1.312 . S
C110 H81 0.930 . S
C110 C105 1.261 . S
C110 C109 1.312 . S
C111 O83 1.214 . S
C111 O91 1.234 . S
C112 H84 0.929 . S
C112 C115 1.391 . S
C112 C117 1.391 . S
C113 H85 0.929 . S
C113 C114 1.390 . S
C113 N116 1.391 . S
C114 H86 0.930 . S
C114 C113 1.390 . S
C114 C115 1.392 . S
C115 H87 0.929 . S
C115 C112 1.391 . S
C115 C114 1.392 . S
N116 Co60 2.257 . S
N116 C113 1.391 . S
N116 C117 1.388 . S
C117 H88 0.930 . S
C117 C112 1.391 . S
C117 N116 1.388 . S
Co118 O120 2.143 . S
Co118 O126 2.074 . S
Co118 O129 2.093 . S
Co118 O142 2.097 . S
Co118 N159 2.151 . S
Co118 N167 2.214 . S
Co119 O120 2.160 . S
Co119 O125 2.058 . S
Co119 O135 2.057 . S
Co119 O150 2.037 . S
Co119 N154 2.145 . S
Co119 N175 2.257 . S
O120 Co118 2.143 . S
O120 Co119 2.160 . S
C121 O122 1.278 . S
C121 O129 1.224 . S
O122 C121 1.278 . S
C123 O124 1.245 . S
C123 O135 1.232 . S
O124 C123 1.245 . S
O125 Co119 2.058 . S
O125 C151 1.269 . S
O126 Co118 2.074 . S
O126 C151 1.257 . S
H127 C152 0.930 . S
H128 C158 0.930 . S
O129 Co118 2.093 . S
O129 C121 1.224 . S
H130 C162 0.929 . S
H131 C164 0.930 . S
H132 C165 0.930 . S
H133 C163 0.929 . S
H134 C166 0.928 . S
O135 Co119 2.057 . S
O135 C123 1.232 . S
H136 C155 0.929 . S
H137 C156 0.929 . S
H138 C168 0.931 . S
H139 C160 0.929 . S
H140 C169 0.930 . S
H141 C161 0.931 . S
O142 Co118 2.097 . S
O142 C170 1.214 . S
H143 C171 0.929 . S
H144 C172 0.929 . S
H145 C173 0.930 . S
H146 C174 0.929 . S
H147 C176 0.930 . S
H148 C153 0.930 . S
H149 C157 0.930 . S
O150 Co119 2.037 . S
O150 C170 1.234 . S
C151 O125 1.269 . S
C151 O126 1.257 . S
C152 H127 0.930 . S
C152 C155 1.388 . S
C152 C157 1.418 . S
C153 H148 0.930 . S
C153 C156 1.404 . S
C153 C157 1.353 . S
N154 Co119 2.145 . S
N154 C155 1.397 . S
N154 C156 1.334 . S
C155 H136 0.929 . S
C155 C152 1.388 . S
C155 N154 1.397 . S
C156 H137 0.929 . S
C156 C153 1.404 . S
C156 N154 1.334 . S
C157 H149 0.930 . S
C157 C152 1.418 . S
C157 C153 1.353 . S
C158 H128 0.930 . S
C158 N159 1.330 . S
C158 C160 1.446 . S
N159 Co118 2.151 . S
N159 C158 1.330 . S
N159 C163 1.418 . S
C160 H139 0.929 . S
C160 C158 1.446 . S
C160 C161 1.332 . S
C161 H141 0.931 . S
C161 C160 1.332 . S
C161 C162 1.267 . S
C162 H130 0.929 . S
C162 C161 1.267 . S
C162 C163 1.251 . S
C163 H133 0.929 . S
C163 N159 1.418 . S
C163 C162 1.251 . S
C164 H131 0.930 . S
C164 C166 1.406 . S
C164 C169 1.261 . S
C165 H132 0.930 . S
C165 N167 1.325 . S
C165 C168 1.357 . S
C166 H134 0.928 . S
C166 C164 1.406 . S
C166 N167 1.261 . S
N167 Co118 2.214 . S
N167 C165 1.325 . S
N167 C166 1.261 . S
C168 H138 0.931 . S
C168 C165 1.357 . S
C168 C169 1.312 . S
C169 H140 0.930 . S
C169 C164 1.261 . S
C169 C168 1.312 . S
C170 O142 1.214 . S
C170 O150 1.234 . S
C171 H143 0.929 . S
C171 C174 1.391 . S
C171 C176 1.391 . S
C172 H144 0.929 . S
C172 C173 1.390 . S
C172 N175 1.391 . S
C173 H145 0.930 . S
C173 C172 1.390 . S
C173 C174 1.392 . S
C174 H146 0.929 . S
C174 C171 1.391 . S
C174 C173 1.392 . S
N175 Co119 2.257 . S
N175 C172 1.391 . S
N175 C176 1.388 . S
C176 H147 0.930 . S
C176 C171 1.391 . S
C176 N175 1.388 . S
Co177 O179 2.143 . S
Co177 O185 2.074 . S
Co177 O188 2.093 . S
Co177 O201 2.097 . S
Co177 N218 2.151 . S
Co177 N226 2.214 . S
Co178 O179 2.160 . S
Co178 O184 2.058 . S
Co178 O194 2.057 . S
Co178 O209 2.037 . S
Co178 N213 2.145 . S
Co178 N234 2.257 . S
O179 Co177 2.143 . S
O179 Co178 2.160 . S
C180 O181 1.278 . S
C180 O188 1.224 . S
O181 C180 1.278 . S
C182 O183 1.245 . S
C182 O194 1.232 . S
O183 C182 1.245 . S
O184 Co178 2.058 . S
O184 C210 1.269 . S
O185 Co177 2.074 . S
O185 C210 1.257 . S
H186 C211 0.930 . S
H187 C217 0.930 . S
O188 Co177 2.093 . S
O188 C180 1.224 . S
H189 C221 0.929 . S
H190 C223 0.930 . S
H191 C224 0.930 . S
H192 C222 0.929 . S
H193 C225 0.928 . S
O194 Co178 2.057 . S
O194 C182 1.232 . S
H195 C214 0.929 . S
H196 C215 0.929 . S
H197 C227 0.931 . S
H198 C219 0.929 . S
H199 C228 0.930 . S
H200 C220 0.931 . S
O201 Co177 2.097 . S
O201 C229 1.214 . S
H202 C230 0.929 . S
H203 C231 0.929 . S
H204 C232 0.930 1_545 S
H205 C233 0.917 1_545 S
H206 C235 0.930 . S
H207 C212 0.930 1_545 S
H208 C216 0.930 . S
O209 Co178 2.037 . S
O209 C229 1.234 . S
C210 O184 1.269 . S
C210 O185 1.257 . S
C211 H186 0.930 . S
C211 C214 1.388 . S
C211 C216 1.418 1_565 S
C212 H207 0.930 1_565 S
C212 C215 1.404 . S
C212 C216 1.353 1_565 S
N213 Co178 2.145 . S
N213 C214 1.397 . S
N213 C215 1.334 . S
C214 H195 0.929 . S
C214 C211 1.388 . S
C214 N213 1.397 . S
C215 H196 0.929 . S
C215 C212 1.404 . S
C215 N213 1.334 . S
C216 H208 0.930 . S
C216 C211 1.418 1_545 S
C216 C212 1.353 1_545 S
C217 H187 0.930 . S
C217 N218 1.330 . S
C217 C219 1.446 . S
N218 Co177 2.151 . S
N218 C217 1.330 . S
N218 C222 1.418 . S
C219 H198 0.929 . S
C219 C217 1.446 . S
C219 C220 1.332 . S
C220 H200 0.931 . S
C220 C219 1.332 . S
C220 C221 1.267 . S
C221 H189 0.929 . S
C221 C220 1.267 . S
C221 C222 1.251 . S
C222 H192 0.929 . S
C222 N218 1.418 . S
C222 C221 1.251 . S
C223 H190 0.930 . S
C223 C225 1.406 . S
C223 C228 1.261 . S
C224 H191 0.930 . S
C224 N226 1.325 . S
C224 C227 1.357 . S
C225 H193 0.928 . S
C225 C223 1.406 . S
C225 N226 1.261 . S
N226 Co177 2.214 . S
N226 C224 1.325 . S
N226 C225 1.261 . S
C227 H197 0.931 . S
C227 C224 1.357 . S
C227 C228 1.312 . S
C228 H199 0.930 . S
C228 C223 1.261 . S
C228 C227 1.312 . S
C229 O201 1.214 . S
C229 O209 1.234 . S
C230 H202 0.929 . S
C230 C233 1.391 . S
C230 C235 1.391 . S
C231 H203 0.929 . S
C231 C232 1.390 . S
C231 N234 1.391 . S
C232 H204 0.930 1_565 S
C232 C231 1.390 . S
C232 C233 1.392 . S
C233 H205 0.917 1_565 S
C233 C230 1.391 . S
C233 C232 1.392 . S
N234 Co178 2.257 . S
N234 C231 1.391 . S
N234 C235 1.388 . S
C235 H206 0.930 . S
C235 C230 1.391 . S
C235 N234 1.388 . S
Co236 O238 2.143 . S
Co236 O244 2.074 . S
Co236 O247 2.093 . S
Co236 O260 2.097 . S
Co236 N277 2.151 . S
Co236 N285 2.214 . S
Co237 O238 2.160 . S
Co237 O243 2.058 . S
Co237 O253 2.057 . S
Co237 O268 2.037 . S
Co237 N272 2.145 . S
Co237 N293 2.257 . S
O238 Co236 2.143 . S
O238 Co237 2.160 . S
C239 O240 1.278 . S
C239 O247 1.224 . S
O240 C239 1.278 . S
C241 O242 1.245 . S
C241 O253 1.232 . S
O242 C241 1.245 . S
O243 Co237 2.058 . S
O243 C269 1.269 . S
O244 Co236 2.074 . S
O244 C269 1.257 . S
H245 C270 0.930 . S
H246 C276 0.930 . S
O247 Co236 2.093 . S
O247 C239 1.224 . S
H248 C280 0.929 . S
H249 C282 0.930 . S
H250 C283 0.930 . S
H251 C281 0.929 . S
H252 C284 0.928 . S
O253 Co237 2.057 . S
O253 C241 1.232 . S
H254 C273 0.929 . S
H255 C274 0.929 . S
H256 C286 0.931 . S
H257 C278 0.929 . S
H258 C287 0.930 . S
H259 C279 0.931 . S
O260 Co236 2.097 . S
O260 C288 1.214 . S
H261 C289 0.929 . S
H262 C290 0.929 . S
H263 C291 0.930 1_655 S
H264 C292 0.917 1_655 S
H265 C294 0.930 . S
H266 C271 0.930 1_655 S
H267 C275 0.930 . S
O268 Co237 2.037 . S
O268 C288 1.234 . S
C269 O243 1.269 . S
C269 O244 1.257 . S
C270 H245 0.930 . S
C270 C273 1.388 . S
C270 C275 1.418 1_455 S
C271 H266 0.930 1_455 S
C271 C274 1.404 . S
C271 C275 1.353 1_455 S
N272 Co237 2.145 . S
N272 C273 1.397 . S
N272 C274 1.334 . S
C273 H254 0.929 . S
C273 C270 1.388 . S
C273 N272 1.397 . S
C274 H255 0.929 . S
C274 C271 1.404 . S
C274 N272 1.334 . S
C275 H267 0.930 . S
C275 C270 1.418 1_655 S
C275 C271 1.353 1_655 S
C276 H246 0.930 . S
C276 N277 1.330 . S
C276 C278 1.446 . S
N277 Co236 2.151 . S
N277 C276 1.330 . S
N277 C281 1.418 . S
C278 H257 0.929 . S
C278 C276 1.446 . S
C278 C279 1.332 . S
C279 H259 0.931 . S
C279 C278 1.332 . S
C279 C280 1.267 . S
C280 H248 0.929 . S
C280 C279 1.267 . S
C280 C281 1.251 . S
C281 H251 0.929 . S
C281 N277 1.418 . S
C281 C280 1.251 . S
C282 H249 0.930 . S
C282 C284 1.406 . S
C282 C287 1.261 . S
C283 H250 0.930 . S
C283 N285 1.325 . S
C283 C286 1.357 . S
C284 H252 0.928 . S
C284 C282 1.406 . S
C284 N285 1.261 . S
N285 Co236 2.214 . S
N285 C283 1.325 . S
N285 C284 1.261 . S
C286 H256 0.931 . S
C286 C283 1.357 . S
C286 C287 1.312 . S
C287 H258 0.930 . S
C287 C282 1.261 . S
C287 C286 1.312 . S
C288 O260 1.214 . S
C288 O268 1.234 . S
C289 H261 0.929 . S
C289 C292 1.391 . S
C289 C294 1.391 . S
C290 H262 0.929 . S
C290 C291 1.390 . S
C290 N293 1.391 . S
C291 H263 0.930 1_455 S
C291 C290 1.390 . S
C291 C292 1.392 . S
C292 H264 0.917 1_455 S
C292 C289 1.391 . S
C292 C291 1.392 . S
N293 Co237 2.257 . S
N293 C290 1.391 . S
N293 C294 1.388 . S
C294 H265 0.930 . S
C294 C289 1.391 . S
C294 N293 1.388 . S
Co295 O297 2.143 . S
Co295 O303 2.074 . S
Co295 O306 2.093 . S
Co295 O319 2.097 . S
Co295 N336 2.151 . S
Co295 N344 2.214 . S
Co296 O297 2.160 . S
Co296 O302 2.058 . S
Co296 O312 2.057 . S
Co296 O327 2.037 . S
Co296 N331 2.145 . S
Co296 N352 2.257 . S
O297 Co295 2.143 . S
O297 Co296 2.160 . S
C298 O299 1.278 . S
C298 O306 1.224 . S
O299 C298 1.278 . S
C300 O301 1.245 . S
C300 O312 1.232 . S
O301 C300 1.245 . S
O302 Co296 2.058 . S
O302 C328 1.269 . S
O303 Co295 2.074 . S
O303 C328 1.257 . S
H304 C329 0.930 . S
H305 C335 0.930 . S
O306 Co295 2.093 . S
O306 C298 1.224 . S
H307 C339 0.929 . S
H308 C341 0.930 . S
H309 C342 0.930 . S
H310 C340 0.929 . S
H311 C343 0.928 . S
O312 Co296 2.057 . S
O312 C300 1.232 . S
H313 C332 0.929 . S
H314 C333 0.929 . S
H315 C345 0.931 . S
H316 C337 0.929 . S
H317 C346 0.930 . S
H318 C338 0.931 . S
O319 Co295 2.097 . S
O319 C347 1.214 . S
H320 C348 0.929 . S
H321 C349 0.929 . S
H322 C350 0.930 . S
H323 C351 0.929 . S
H324 C353 0.930 . S
H325 C330 0.930 . S
H326 C334 0.930 . S
O327 Co296 2.037 . S
O327 C347 1.234 . S
C328 O302 1.269 . S
C328 O303 1.257 . S
C329 H304 0.930 . S
C329 C332 1.388 . S
C329 C334 1.418 . S
C330 H325 0.930 . S
C330 C333 1.404 . S
C330 C334 1.353 . S
N331 Co296 2.145 . S
N331 C332 1.397 . S
N331 C333 1.334 . S
C332 H313 0.929 . S
C332 C329 1.388 . S
C332 N331 1.397 . S
C333 H314 0.929 . S
C333 C330 1.404 . S
C333 N331 1.334 . S
C334 H326 0.930 . S
C334 C329 1.418 . S
C334 C330 1.353 . S
C335 H305 0.930 . S
C335 N336 1.330 . S
C335 C337 1.446 . S
N336 Co295 2.151 . S
N336 C335 1.330 . S
N336 C340 1.418 . S
C337 H316 0.929 . S
C337 C335 1.446 . S
C337 C338 1.332 . S
C338 H318 0.931 . S
C338 C337 1.332 . S
C338 C339 1.267 . S
C339 H307 0.929 . S
C339 C338 1.267 . S
C339 C340 1.251 . S
C340 H310 0.929 . S
C340 N336 1.418 . S
C340 C339 1.251 . S
C341 H308 0.930 . S
C341 C343 1.406 . S
C341 C346 1.261 . S
C342 H309 0.930 . S
C342 N344 1.325 . S
C342 C345 1.357 . S
C343 H311 0.928 . S
C343 C341 1.406 . S
C343 N344 1.261 . S
N344 Co295 2.214 . S
N344 C342 1.325 . S
N344 C343 1.261 . S
C345 H315 0.931 . S
C345 C342 1.357 . S
C345 C346 1.312 . S
C346 H317 0.930 . S
C346 C341 1.261 . S
C346 C345 1.312 . S
C347 O319 1.214 . S
C347 O327 1.234 . S
C348 H320 0.929 . S
C348 C351 1.391 . S
C348 C353 1.391 . S
C349 H321 0.929 . S
C349 C350 1.390 . S
C349 N352 1.391 . S
C350 H322 0.930 . S
C350 C349 1.390 . S
C350 C351 1.392 . S
C351 H323 0.929 . S
C351 C348 1.391 . S
C351 C350 1.392 . S
N352 Co296 2.257 . S
N352 C349 1.391 . S
N352 C353 1.388 . S
C353 H324 0.930 . S
C353 C348 1.391 . S
C353 N352 1.388 . S
Co354 O356 2.143 . S
Co354 O362 2.074 . S
Co354 O365 2.093 . S
Co354 O378 2.097 . S
Co354 N395 2.151 . S
Co354 N403 2.214 . S
Co355 O356 2.160 . S
Co355 O361 2.058 . S
Co355 O371 2.057 . S
Co355 O386 2.037 . S
Co355 N390 2.145 . S
Co355 N411 2.257 . S
O356 Co354 2.143 . S
O356 Co355 2.160 . S
C357 O358 1.278 . S
C357 O365 1.224 . S
O358 C357 1.278 . S
C359 O360 1.245 . S
C359 O371 1.232 . S
O360 C359 1.245 . S
O361 Co355 2.058 . S
O361 C387 1.269 . S
O362 Co354 2.074 . S
O362 C387 1.257 . S
H363 C388 0.930 . S
H364 C394 0.930 . S
O365 Co354 2.093 . S
O365 C357 1.224 . S
H366 C398 0.929 . S
H367 C400 0.930 . S
H368 C401 0.930 . S
H369 C399 0.929 . S
H370 C402 0.928 . S
O371 Co355 2.057 . S
O371 C359 1.232 . S
H372 C391 0.929 . S
H373 C392 0.929 . S
H374 C404 0.931 . S
H375 C396 0.929 . S
H376 C405 0.930 . S
H377 C397 0.931 . S
O378 Co354 2.097 . S
O378 C406 1.214 . S
H379 C407 0.929 . S
H380 C408 0.929 . S
H381 C409 0.930 1_545 S
H382 C410 0.917 1_545 S
H383 C412 0.930 . S
H384 C389 0.930 1_545 S
H385 C393 0.930 . S
O386 Co355 2.037 . S
O386 C406 1.234 . S
C387 O361 1.269 . S
C387 O362 1.257 . S
C388 H363 0.930 . S
C388 C391 1.388 . S
C388 C393 1.418 1_565 S
C389 H384 0.930 1_565 S
C389 C392 1.404 . S
C389 C393 1.353 1_565 S
N390 Co355 2.145 . S
N390 C391 1.397 . S
N390 C392 1.334 . S
C391 H372 0.929 . S
C391 C388 1.388 . S
C391 N390 1.397 . S
C392 H373 0.929 . S
C392 C389 1.404 . S
C392 N390 1.334 . S
C393 H385 0.930 . S
C393 C388 1.418 1_545 S
C393 C389 1.353 1_545 S
C394 H364 0.930 . S
C394 N395 1.330 . S
C394 C396 1.446 . S
N395 Co354 2.151 . S
N395 C394 1.330 . S
N395 C399 1.418 . S
C396 H375 0.929 . S
C396 C394 1.446 . S
C396 C397 1.332 . S
C397 H377 0.931 . S
C397 C396 1.332 . S
C397 C398 1.267 . S
C398 H366 0.929 . S
C398 C397 1.267 . S
C398 C399 1.251 . S
C399 H369 0.929 . S
C399 N395 1.418 . S
C399 C398 1.251 . S
C400 H367 0.930 . S
C400 C402 1.406 . S
C400 C405 1.261 . S
C401 H368 0.930 . S
C401 N403 1.325 . S
C401 C404 1.357 . S
C402 H370 0.928 . S
C402 C400 1.406 . S
C402 N403 1.261 . S
N403 Co354 2.214 . S
N403 C401 1.325 . S
N403 C402 1.261 . S
C404 H374 0.931 . S
C404 C401 1.357 . S
C404 C405 1.312 . S
C405 H376 0.930 . S
C405 C400 1.261 . S
C405 C404 1.312 . S
C406 O378 1.214 . S
C406 O386 1.234 . S
C407 H379 0.929 . S
C407 C410 1.391 . S
C407 C412 1.391 . S
C408 H380 0.929 . S
C408 C409 1.390 . S
C408 N411 1.391 . S
C409 H381 0.930 1_565 S
C409 C408 1.390 . S
C409 C410 1.392 . S
C410 H382 0.917 1_565 S
C410 C407 1.391 . S
C410 C409 1.392 . S
N411 Co355 2.257 . S
N411 C408 1.391 . S
N411 C412 1.388 . S
C412 H383 0.930 . S
C412 C407 1.391 . S
C412 N411 1.388 . S
Co413 O415 2.143 . S
Co413 O421 2.074 . S
Co413 O424 2.093 . S
Co413 O437 2.097 . S
Co413 N454 2.151 . S
Co413 N462 2.214 . S
Co414 O415 2.160 . S
Co414 O420 2.058 . S
Co414 O430 2.057 . S
Co414 O445 2.037 . S
Co414 N449 2.145 . S
Co414 N470 2.257 . S
O415 Co413 2.143 . S
O415 Co414 2.160 . S
C416 O417 1.278 . S
C416 O424 1.224 . S
O417 C416 1.278 . S
C418 O419 1.245 . S
C418 O430 1.232 . S
O419 C418 1.245 . S
O420 Co414 2.058 . S
O420 C446 1.269 . S
O421 Co413 2.074 . S
O421 C446 1.257 . S
H422 C447 0.930 . S
H423 C453 0.930 . S
O424 Co413 2.093 . S
O424 C416 1.224 . S
H425 C457 0.929 . S
H426 C459 0.930 . S
H427 C460 0.930 . S
H428 C458 0.929 . S
H429 C461 0.928 . S
O430 Co414 2.057 . S
O430 C418 1.232 . S
H431 C450 0.929 . S
H432 C451 0.929 . S
H433 C463 0.931 . S
H434 C455 0.929 . S
H435 C464 0.930 . S
H436 C456 0.931 . S
O437 Co413 2.097 . S
O437 C465 1.214 . S
H438 C466 0.929 . S
H439 C467 0.929 . S
H440 C468 0.930 . S
H441 C469 0.929 . S
H442 C471 0.930 . S
H443 C448 0.930 . S
H444 C452 0.930 . S
O445 Co414 2.037 . S
O445 C465 1.234 . S
C446 O420 1.269 . S
C446 O421 1.257 . S
C447 H422 0.930 . S
C447 C450 1.388 . S
C447 C452 1.418 . S
C448 H443 0.930 . S
C448 C451 1.404 . S
C448 C452 1.353 . S
N449 Co414 2.145 . S
N449 C450 1.397 . S
N449 C451 1.334 . S
C450 H431 0.929 . S
C450 C447 1.388 . S
C450 N449 1.397 . S
C451 H432 0.929 . S
C451 C448 1.404 . S
C451 N449 1.334 . S
C452 H444 0.930 . S
C452 C447 1.418 . S
C452 C448 1.353 . S
C453 H423 0.930 . S
C453 N454 1.330 . S
C453 C455 1.446 . S
N454 Co413 2.151 . S
N454 C453 1.330 . S
N454 C458 1.418 . S
C455 H434 0.929 . S
C455 C453 1.446 . S
C455 C456 1.332 . S
C456 H436 0.931 . S
C456 C455 1.332 . S
C456 C457 1.267 . S
C457 H425 0.929 . S
C457 C456 1.267 . S
C457 C458 1.251 . S
C458 H428 0.929 . S
C458 N454 1.418 . S
C458 C457 1.251 . S
C459 H426 0.930 . S
C459 C461 1.406 . S
C459 C464 1.261 . S
C460 H427 0.930 . S
C460 N462 1.325 . S
C460 C463 1.357 . S
C461 H429 0.928 . S
C461 C459 1.406 . S
C461 N462 1.261 . S
N462 Co413 2.214 . S
N462 C460 1.325 . S
N462 C461 1.261 . S
C463 H433 0.931 . S
C463 C460 1.357 . S
C463 C464 1.312 . S
C464 H435 0.930 . S
C464 C459 1.261 . S
C464 C463 1.312 . S
C465 O437 1.214 . S
C465 O445 1.234 . S
C466 H438 0.929 . S
C466 C469 1.391 . S
C466 C471 1.391 . S
C467 H439 0.929 . S
C467 C468 1.390 . S
C467 N470 1.391 . S
C468 H440 0.930 . S
C468 C467 1.390 . S
C468 C469 1.392 . S
C469 H441 0.929 . S
C469 C466 1.391 . S
C469 C468 1.392 . S
N470 Co414 2.257 . S
N470 C467 1.391 . S
N470 C471 1.388 . S
C471 H442 0.930 . S
C471 C466 1.391 . S
C471 N470 1.388 . S
H472 C480 0.929 . S
H473 C482 0.930 . S
H474 C484 0.930 . S
H475 C487 0.929 . S
H476 C490 0.930 . S
H477 C492 0.960 . S
H478 C492 0.960 . S
H479 C492 0.960 . S
C480 H472 0.929 . S
C480 C481 1.377 . S
C480 C482 1.384 . S
C481 C480 1.377 . S
C481 C487 1.390 . S
C482 H473 0.930 . S
C482 C480 1.384 . S
C482 C483 1.372 . S
C483 C482 1.372 . S
C483 C484 1.400 . S
C483 C488 1.490 . S
C484 H474 0.930 . S
C484 C483 1.400 . S
C484 C487 1.386 . S
H485 C501 0.930 . S
H486 C502 0.931 . S
C487 H475 0.929 . S
C487 C481 1.390 . S
C487 C484 1.386 . S
C488 C483 1.490 . S
C488 C490 1.395 . S
C488 C491 1.403 . S
H489 C495 0.930 . S
C490 H476 0.930 . S
C490 C488 1.395 . S
C490 C493 1.403 . S
C491 C488 1.403 . S
C491 C492 1.524 . S
C491 C495 1.400 . S
C492 H477 0.960 . S
C492 H478 0.960 . S
C492 H479 0.960 . S
C492 C491 1.524 . S
C493 C490 1.403 . S
C493 C494 1.392 . S
C493 C497 1.495 . S
C494 C493 1.392 . S
C494 C495 1.385 . S
C494 C496 1.478 . S
C495 H489 0.930 . S
C495 C491 1.400 . S
C495 C494 1.385 . S
C496 C494 1.478 . S
C496 C498 1.381 . S
C496 C502 1.383 . S
C497 C493 1.495 . S
C497 H503 0.959 . S
C497 H504 0.961 . S
C497 H505 0.960 . S
C498 C496 1.381 . S
C498 C499 1.394 . S
C498 H506 0.930 . S
C499 C498 1.394 . S
C499 C500 1.383 . S
C499 H507 0.929 . S
C500 C499 1.383 . S
C500 C501 1.377 . S
C501 H485 0.930 . S
C501 C500 1.377 . S
C501 C502 1.379 . S
C502 H486 0.931 . S
C502 C496 1.383 . S
C502 C501 1.379 . S
H503 C497 0.959 . S
H504 C497 0.961 . S
H505 C497 0.960 . S
H506 C498 0.930 . S
H507 C499 0.929 . S
H508 C516 0.929 . S
H509 C518 0.930 . S
H510 C520 0.930 . S
H511 C523 0.929 . S
H512 C526 0.930 . S
H513 C528 0.960 . S
H514 C528 0.960 . S
H515 C528 0.960 . S
C516 H508 0.929 . S
C516 C517 1.377 . S
C516 C518 1.384 . S
C517 C516 1.377 . S
C517 C523 1.390 . S
C518 H509 0.930 . S
C518 C516 1.384 . S
C518 C519 1.372 . S
C519 C518 1.372 . S
C519 C520 1.400 . S
C519 C524 1.490 . S
C520 H510 0.930 . S
C520 C519 1.400 . S
C520 C523 1.386 . S
H521 C537 0.930 . S
H522 C538 0.931 . S
C523 H511 0.929 . S
C523 C517 1.390 . S
C523 C520 1.386 . S
C524 C519 1.490 . S
C524 C526 1.395 . S
C524 C527 1.403 . S
H525 C531 0.930 . S
C526 H512 0.930 . S
C526 C524 1.395 . S
C526 C529 1.403 . S
C527 C524 1.403 . S
C527 C528 1.524 . S
C527 C531 1.400 . S
C528 H513 0.960 . S
C528 H514 0.960 . S
C528 H515 0.960 . S
C528 C527 1.524 . S
C529 C526 1.403 . S
C529 C530 1.392 . S
C529 C533 1.495 . S
C530 C529 1.392 . S
C530 C531 1.385 . S
C530 C532 1.478 . S
C531 H525 0.930 . S
C531 C527 1.400 . S
C531 C530 1.385 . S
C532 C530 1.478 . S
C532 C534 1.381 . S
C532 C538 1.383 . S
C533 C529 1.495 . S
C533 H539 0.959 . S
C533 H540 0.961 . S
C533 H541 0.960 . S
C534 C532 1.381 . S
C534 C535 1.394 . S
C534 H542 0.930 . S
C535 C534 1.394 . S
C535 C536 1.383 . S
C535 H543 0.929 . S
C536 C535 1.383 . S
C536 C537 1.377 . S
C537 H521 0.930 . S
C537 C536 1.377 . S
C537 C538 1.379 . S
C538 H522 0.931 . S
C538 C532 1.383 . S
C538 C537 1.379 . S
H539 C533 0.959 . S
H540 C533 0.961 . S
H541 C533 0.960 . S
H542 C534 0.930 . S
H543 C535 0.929 . S
H544 C552 0.929 . S
H545 C554 0.930 . S
H546 C556 0.930 . S
H547 C559 0.929 . S
H548 C562 0.930 . S
H549 C564 0.960 1_556 S
H550 C564 0.953 1_556 S
H551 C564 0.960 . S
C552 H544 0.929 . S
C552 C553 1.377 . S
C552 C554 1.384 . S
C553 C552 1.377 . S
C553 C559 1.390 . S
C554 H545 0.930 . S
C554 C552 1.384 . S
C554 C555 1.372 . S
C555 C554 1.372 . S
C555 C556 1.400 . S
C555 C560 1.490 . S
C556 H546 0.930 . S
C556 C555 1.400 . S
C556 C559 1.386 . S
H557 C573 0.930 . S
H558 C574 0.931 . S
C559 H547 0.929 . S
C559 C553 1.390 . S
C559 C556 1.386 . S
C560 C555 1.490 . S
C560 C562 1.395 1_545 S
C560 C563 1.403 . S
H561 C567 0.930 1_545 S
C562 H548 0.930 . S
C562 C560 1.395 1_565 S
C562 C565 1.403 1_554 S
C563 C560 1.403 . S
C563 C564 1.524 . S
C563 C567 1.400 1_544 S
C564 H549 0.960 1_554 S
C564 H550 0.953 1_554 S
C564 H551 0.960 . S
C564 C563 1.524 . S
C565 C562 1.403 1_556 S
C565 C566 1.392 . S
C565 C569 1.495 . S
C566 C565 1.392 . S
C566 C567 1.385 . S
C566 C568 1.478 . S
C567 H561 0.930 1_565 S
C567 C563 1.400 1_566 S
C567 C566 1.385 . S
C568 C566 1.478 . S
C568 C570 1.381 . S
C568 C574 1.383 . S
C569 C565 1.495 . S
C569 H575 0.959 1_556 S
C569 H576 0.967 . S
C569 H577 0.960 . S
C570 C568 1.381 . S
C570 C571 1.394 . S
C570 H578 0.930 . S
C571 C570 1.394 . S
C571 C572 1.383 . S
C571 H579 0.929 . S
C572 C571 1.383 . S
C572 C573 1.377 . S
C573 H557 0.930 . S
C573 C572 1.377 . S
C573 C574 1.379 . S
C574 H558 0.931 . S
C574 C568 1.383 . S
C574 C573 1.379 . S
H575 C569 0.959 1_554 S
H576 C569 0.967 . S
H577 C569 0.960 . S
H578 C570 0.930 . S
H579 C571 0.929 . S
H580 C588 0.929 . S
H581 C590 0.930 . S
H582 C592 0.930 1_455 S
H583 C595 0.929 . S
H584 C598 0.930 . S
H585 C600 0.960 . S
H586 C600 0.960 . S
H587 C600 0.960 . S
C588 H580 0.929 . S
C588 C589 1.377 . S
C588 C590 1.384 . S
C589 C588 1.377 . S
C589 C595 1.390 . S
C590 H581 0.930 . S
C590 C588 1.384 . S
C590 C591 1.372 . S
C591 C590 1.372 . S
C591 C592 1.400 . S
C591 C596 1.490 . S
C592 H582 0.930 1_655 S
C592 C591 1.400 . S
C592 C595 1.386 . S
H593 C609 0.930 . S
H594 C610 0.931 . S
C595 H583 0.929 . S
C595 C589 1.390 . S
C595 C592 1.386 . S
C596 C591 1.490 . S
C596 C598 1.395 . S
C596 C599 1.403 1_655 S
H597 C603 0.930 . S
C598 H584 0.930 . S
C598 C596 1.395 . S
C598 C601 1.403 1_655 S
C599 C596 1.403 1_455 S
C599 C600 1.524 . S
C599 C603 1.400 . S
C600 H585 0.960 . S
C600 H586 0.960 . S
C600 H587 0.960 . S
C600 C599 1.524 . S
C601 C598 1.403 1_455 S
C601 C602 1.392 . S
C601 C605 1.495 1_455 S
C602 C601 1.392 . S
C602 C603 1.385 . S
C602 C604 1.478 . S
C603 H597 0.930 . S
C603 C599 1.400 . S
C603 C602 1.385 . S
C604 C602 1.478 . S
C604 C606 1.381 . S
C604 C610 1.383 . S
C605 C601 1.495 1_655 S
C605 H611 0.959 . S
C605 H612 0.961 1_655 S
C605 H613 0.960 . S
C606 C604 1.381 . S
C606 C607 1.394 . S
C606 H614 0.930 . S
C607 C606 1.394 . S
C607 C608 1.383 . S
C607 H615 0.929 . S
C608 C607 1.383 . S
C608 C609 1.377 . S
C609 H593 0.930 . S
C609 C608 1.377 . S
C609 C610 1.379 . S
C610 H594 0.931 . S
C610 C604 1.383 . S
C610 C609 1.379 . S
H611 C605 0.959 . S
H612 C605 0.961 1_455 S
H613 C605 0.960 . S
H614 C606 0.930 . S
H615 C607 0.929 . S
H616 C624 0.929 . S
H617 C626 0.930 . S
H618 C628 0.930 . S
H619 C631 0.929 . S
H620 C634 0.930 . S
H621 C636 0.960 . S
H622 C636 0.960 . S
H623 C636 0.960 . S
C624 H616 0.929 . S
C624 C625 1.377 . S
C624 C626 1.384 . S
C625 C624 1.377 . S
C625 C631 1.390 . S
C626 H617 0.930 . S
C626 C624 1.384 . S
C626 C627 1.372 . S
C627 C626 1.372 . S
C627 C628 1.400 . S
C627 C632 1.490 . S
C628 H618 0.930 . S
C628 C627 1.400 . S
C628 C631 1.386 . S
H629 C645 0.930 . S
H630 C646 0.931 . S
C631 H619 0.929 . S
C631 C625 1.390 . S
C631 C628 1.386 . S
C632 C627 1.490 . S
C632 C634 1.395 . S
C632 C635 1.403 . S
H633 C639 0.930 . S
C634 H620 0.930 . S
C634 C632 1.395 . S
C634 C637 1.403 . S
C635 C632 1.403 . S
C635 C636 1.524 1_565 S
C635 C639 1.400 1_565 S
C636 H621 0.960 . S
C636 H622 0.960 . S
C636 H623 0.960 . S
C636 C635 1.524 1_545 S
C637 C634 1.403 . S
C637 C638 1.392 . S
C637 C641 1.495 . S
C638 C637 1.392 . S
C638 C639 1.385 1_565 S
C638 C640 1.478 1_565 S
C639 H633 0.930 . S
C639 C635 1.400 1_545 S
C639 C638 1.385 1_545 S
C640 C638 1.478 1_545 S
C640 C642 1.381 . S
C640 C646 1.383 . S
C641 C637 1.495 . S
C641 H647 0.959 . S
C641 H648 0.961 . S
C641 H649 0.960 . S
C642 C640 1.381 . S
C642 C643 1.394 . S
C642 H650 0.930 . S
C643 C642 1.394 . S
C643 C644 1.383 . S
C643 H651 0.929 . S
C644 C643 1.383 . S
C644 C645 1.377 . S
C645 H629 0.930 . S
C645 C644 1.377 . S
C645 C646 1.379 . S
C646 H630 0.931 . S
C646 C640 1.383 . S
C646 C645 1.379 . S
H647 C641 0.959 . S
H648 C641 0.961 . S
H649 C641 0.960 . S
H650 C642 0.930 . S
H651 C643 0.929 . S
H652 C660 0.929 . S
H653 C662 0.930 . S
H654 C664 0.930 . S
H655 C667 0.929 . S
H656 C670 0.930 . S
H657 C672 0.960 . S
H658 C672 0.960 . S
H659 C672 0.960 . S
C660 H652 0.929 . S
C660 C661 1.377 . S
C660 C662 1.384 . S
C661 C660 1.377 . S
C661 C667 1.390 . S
C662 H653 0.930 . S
C662 C660 1.384 . S
C662 C663 1.372 . S
C663 C662 1.372 . S
C663 C664 1.400 . S
C663 C668 1.490 . S
C664 H654 0.930 . S
C664 C663 1.400 . S
C664 C667 1.386 . S
H665 C681 0.930 . S
H666 C682 0.931 . S
C667 H655 0.929 . S
C667 C661 1.390 . S
C667 C664 1.386 . S
C668 C663 1.490 . S
C668 C670 1.395 1_655 S
C668 C671 1.403 . S
H669 C675 0.930 . S
C670 H656 0.930 . S
C670 C668 1.395 1_455 S
C670 C673 1.403 1_556 S
C671 C668 1.403 . S
C671 C672 1.524 . S
C671 C675 1.400 1_656 S
C672 H657 0.960 . S
C672 H658 0.960 . S
C672 H659 0.960 . S
C672 C671 1.524 . S
C673 C670 1.403 1_554 S
C673 C674 1.392 . S
C673 C677 1.495 . S
C674 C673 1.392 . S
C674 C675 1.385 . S
C674 C676 1.478 . S
C675 H669 0.930 . S
C675 C671 1.400 1_454 S
C675 C674 1.385 . S
C676 C674 1.478 . S
C676 C678 1.381 . S
C676 C682 1.383 . S
C677 C673 1.495 . S
C677 H683 0.959 . S
C677 H684 0.961 . S
C677 H685 0.960 . S
C678 C676 1.381 . S
C678 C679 1.394 . S
C678 H686 0.930 . S
C679 C678 1.394 . S
C679 C680 1.383 . S
C679 H687 0.929 . S
C680 C679 1.383 . S
C680 C681 1.377 . S
C681 H665 0.930 . S
C681 C680 1.377 . S
C681 C682 1.379 . S
C682 H666 0.931 . S
C682 C676 1.383 . S
C682 C681 1.379 . S
H683 C677 0.959 . S
H684 C677 0.961 . S
H685 C677 0.960 . S
H686 C678 0.930 . S
H687 C679 0.929 . S
H688 C696 0.929 . S
H689 C698 0.930 . S
H690 C700 0.930 . S
H691 C703 0.929 . S
H692 C706 0.930 . S
H693 C708 0.960 . S
H694 C708 0.960 . S
H695 C708 0.960 . S
C696 H688 0.929 . S
C696 C697 1.377 . S
C696 C698 1.384 . S
C697 C696 1.377 . S
C697 C703 1.390 . S
C698 H689 0.930 . S
C698 C696 1.384 . S
C698 C699 1.372 . S
C699 C698 1.372 . S
C699 C700 1.400 . S
C699 C704 1.490 . S
C700 H690 0.930 . S
C700 C699 1.400 . S
C700 C703 1.386 . S
H701 C717 0.930 . S
H702 C718 0.931 . S
C703 H691 0.929 . S
C703 C697 1.390 . S
C703 C700 1.386 . S
C704 C699 1.490 . S
C704 C706 1.395 . S
C704 C707 1.403 . S
H705 C711 0.930 . S
C706 H692 0.930 . S
C706 C704 1.395 . S
C706 C709 1.403 . S
C707 C704 1.403 . S
C707 C708 1.524 . S
C707 C711 1.400 . S
C708 H693 0.960 . S
C708 H694 0.960 . S
C708 H695 0.960 . S
C708 C707 1.524 . S
C709 C706 1.403 . S
C709 C710 1.392 . S
C709 C713 1.495 . S
C710 C709 1.392 . S
C710 C711 1.385 . S
C710 C712 1.478 . S
C711 H705 0.930 . S
C711 C707 1.400 . S
C711 C710 1.385 . S
C712 C710 1.478 . S
C712 C714 1.381 . S
C712 C718 1.383 . S
C713 C709 1.495 . S
C713 H719 0.959 . S
C713 H720 0.961 . S
C713 H721 0.960 . S
C714 C712 1.381 . S
C714 C715 1.394 . S
C714 H722 0.930 . S
C715 C714 1.394 . S
C715 C716 1.383 . S
C715 H723 0.929 . S
C716 C715 1.383 . S
C716 C717 1.377 . S
C717 H701 0.930 . S
C717 C716 1.377 . S
C717 C718 1.379 . S
C718 H702 0.931 . S
C718 C712 1.383 . S
C718 C717 1.379 . S
H719 C713 0.959 . S
H720 C713 0.961 . S
H721 C713 0.960 . S
H722 C714 0.930 . S
H723 C715 0.929 . S
H724 C732 0.929 . S
H725 C734 0.930 . S
H726 C736 0.930 . S
H727 C739 0.929 . S
H728 C742 0.930 . S
H729 C744 0.960 . S
H730 C744 0.960 . S
H731 C744 0.960 . S
C732 H724 0.929 . S
C732 C733 1.377 . S
C732 C734 1.384 . S
C733 C732 1.377 . S
C733 C739 1.390 . S
C734 H725 0.930 . S
C734 C732 1.384 . S
C734 C735 1.372 . S
C735 C734 1.372 . S
C735 C736 1.400 . S
C735 C740 1.490 . S
C736 H726 0.930 . S
C736 C735 1.400 . S
C736 C739 1.386 . S
H737 C753 0.930 . S
H738 C754 0.931 . S
C739 H727 0.929 . S
C739 C733 1.390 . S
C739 C736 1.386 . S
C740 C735 1.490 . S
C740 C742 1.395 . S
C740 C743 1.403 . S
H741 C747 0.930 . S
C742 H728 0.930 . S
C742 C740 1.395 . S
C742 C745 1.403 . S
C743 C740 1.403 . S
C743 C744 1.524 . S
C743 C747 1.400 . S
C744 H729 0.960 . S
C744 H730 0.960 . S
C744 H731 0.960 . S
C744 C743 1.524 . S
C745 C742 1.403 . S
C745 C746 1.392 . S
C745 C749 1.495 . S
C746 C745 1.392 . S
C746 C747 1.385 . S
C746 C748 1.478 . S
C747 H741 0.930 . S
C747 C743 1.400 . S
C747 C746 1.385 . S
C748 C746 1.478 . S
C748 C750 1.381 . S
C748 C754 1.383 . S
C749 C745 1.495 . S
C749 H755 0.959 . S
C749 H756 0.961 . S
C749 H757 0.960 . S
C750 C748 1.381 . S
C750 C751 1.394 . S
C750 H758 0.930 . S
C751 C750 1.394 . S
C751 C752 1.383 . S
C751 H759 0.929 . S
C752 C751 1.383 . S
C752 C753 1.377 . S
C753 H737 0.930 . S
C753 C752 1.377 . S
C753 C754 1.379 . S
C754 H738 0.931 . S
C754 C748 1.383 . S
C754 C753 1.379 . S
H755 C749 0.959 . S
H756 C749 0.961 . S
H757 C749 0.960 . S
H758 C750 0.930 . S
H759 C751 0.929 . S
H760 C768 0.929 . S
H761 C770 0.930 . S
H762 C772 0.930 . S
H763 C775 0.929 . S
H764 C778 0.930 . S
H765 C780 0.960 . S
H766 C780 0.960 . S
H767 C780 0.960 . S
C768 H760 0.929 . S
C768 C769 1.377 . S
C768 C770 1.384 . S
C769 C768 1.377 . S
C769 C775 1.390 . S
C770 H761 0.930 . S
C770 C768 1.384 . S
C770 C771 1.372 . S
C771 C770 1.372 . S
C771 C772 1.400 . S
C771 C776 1.490 . S
C772 H762 0.930 . S
C772 C771 1.400 . S
C772 C775 1.386 . S
H773 C789 0.930 . S
H774 C790 0.931 . S
C775 H763 0.929 . S
C775 C769 1.390 . S
C775 C772 1.386 . S
C776 C771 1.490 . S
C776 C778 1.395 . S
C776 C779 1.403 . S
H777 C783 0.930 . S
C778 H764 0.930 . S
C778 C776 1.395 . S
C778 C781 1.403 . S
C779 C776 1.403 . S
C779 C780 1.524 . S
C779 C783 1.400 . S
C780 H765 0.960 . S
C780 H766 0.960 . S
C780 H767 0.960 . S
C780 C779 1.524 . S
C781 C778 1.403 . S
C781 C782 1.392 . S
C781 C785 1.495 . S
C782 C781 1.392 . S
C782 C783 1.385 . S
C782 C784 1.478 . S
C783 H777 0.930 . S
C783 C779 1.400 . S
C783 C782 1.385 . S
C784 C782 1.478 . S
C784 C786 1.381 . S
C784 C790 1.383 . S
C785 C781 1.495 . S
C785 H791 0.959 . S
C785 H792 0.961 . S
C785 H793 0.960 . S
C786 C784 1.381 . S
C786 C787 1.394 . S
C786 H794 0.930 . S
C787 C786 1.394 . S
C787 C788 1.383 . S
C787 H795 0.929 . S
C788 C787 1.383 . S
C788 C789 1.377 . S
C789 H773 0.930 . S
C789 C788 1.377 . S
C789 C790 1.379 . S
C790 H774 0.931 . S
C790 C784 1.383 . S
C790 C789 1.379 . S
H791 C785 0.959 . S
H792 C785 0.961 . S
H793 C785 0.960 . S
H794 C786 0.930 . S
H795 C787 0.929 . S
H796 C804 0.929 . S
H797 C806 0.930 . S
H798 C808 0.930 . S
H799 C811 0.929 . S
H800 C814 0.930 . S
H801 C816 0.960 . S
H802 C816 0.960 . S
H803 C816 0.960 . S
C804 H796 0.929 . S
C804 C805 1.377 . S
C804 C806 1.384 . S
C805 C804 1.377 . S
C805 C811 1.390 . S
C806 H797 0.930 . S
C806 C804 1.384 . S
C806 C807 1.372 . S
C807 C806 1.372 . S
C807 C808 1.400 . S
C807 C812 1.490 . S
C808 H798 0.930 . S
C808 C807 1.400 . S
C808 C811 1.386 . S
H809 C825 0.930 . S
H810 C826 0.931 . S
C811 H799 0.929 . S
C811 C805 1.390 . S
C811 C808 1.386 . S
C812 C807 1.490 . S
C812 C814 1.395 1_556 S
C812 C815 1.403 . S
H813 C819 0.930 . S
C814 H800 0.930 . S
C814 C812 1.395 1_554 S
C814 C817 1.403 . S
C815 C812 1.403 . S
C815 C816 1.524 . S
C815 C819 1.367 1_556 S
C816 H801 0.960 . S
C816 H802 0.960 . S
C816 H803 0.960 . S
C816 C815 1.524 . S
C817 C814 1.403 . S
C817 C818 1.392 . S
C817 C821 1.495 . S
C818 C817 1.392 . S
C818 C819 1.419 . S
C818 C820 1.478 . S
C819 H813 0.930 . S
C819 C815 1.367 1_554 S
C819 C818 1.419 . S
C820 C818 1.478 . S
C820 C822 1.381 . S
C820 C826 1.383 . S
C821 C817 1.495 . S
C821 H827 0.959 . S
C821 H828 0.961 . S
C821 H829 0.960 . S
C822 C820 1.381 . S
C822 C823 1.394 . S
C822 H830 0.930 . S
C823 C822 1.394 . S
C823 C824 1.383 . S
C823 H831 0.929 . S
C824 C823 1.383 . S
C824 C825 1.377 . S
C825 H809 0.930 . S
C825 C824 1.377 . S
C825 C826 1.379 . S
C826 H810 0.931 . S
C826 C820 1.383 . S
C826 C825 1.379 . S
H827 C821 0.959 . S
H828 C821 0.961 . S
H829 C821 0.960 . S
H830 C822 0.930 . S
H831 C823 0.929 . S
H832 C840 0.929 . S
H833 C842 0.930 . S
H834 C844 0.930 . S
H835 C847 0.929 . S
H836 C850 0.930 . S
H837 C852 0.960 . S
H838 C852 0.960 . S
H839 C852 0.960 . S
C840 H832 0.929 . S
C840 C841 1.377 . S
C840 C842 1.384 . S
C841 C840 1.377 . S
C841 C847 1.390 . S
C842 H833 0.930 . S
C842 C840 1.384 . S
C842 C843 1.372 . S
C843 C842 1.372 . S
C843 C844 1.400 . S
C843 C848 1.490 . S
C844 H834 0.930 . S
C844 C843 1.400 . S
C844 C847 1.386 . S
H845 C861 0.930 . S
H846 C862 0.931 1_565 S
C847 H835 0.929 . S
C847 C841 1.390 . S
C847 C844 1.386 . S
C848 C843 1.490 . S
C848 C850 1.395 . S
C848 C851 1.403 . S
H849 C855 0.930 . S
C850 H836 0.930 . S
C850 C848 1.395 . S
C850 C853 1.403 1_565 S
C851 C848 1.403 . S
C851 C852 1.524 . S
C851 C855 1.400 . S
C852 H837 0.960 . S
C852 H838 0.960 . S
C852 H839 0.960 . S
C852 C851 1.524 . S
C853 C850 1.403 1_545 S
C853 C854 1.392 . S
C853 C857 1.495 . S
C854 C853 1.392 . S
C854 C855 1.385 1_545 S
C854 C856 1.478 . S
C855 H849 0.930 . S
C855 C851 1.400 . S
C855 C854 1.385 1_565 S
C856 C854 1.478 . S
C856 C858 1.381 . S
C856 C862 1.383 . S
C857 C853 1.495 . S
C857 H863 0.959 . S
C857 H864 0.961 . S
C857 H865 0.960 . S
C858 C856 1.381 . S
C858 C859 1.394 . S
C858 H866 0.930 . S
C859 C858 1.394 . S
C859 C860 1.383 . S
C859 H867 0.929 . S
C860 C859 1.383 . S
C860 C861 1.377 . S
C861 H845 0.930 . S
C861 C860 1.377 . S
C861 C862 1.379 . S
C862 H846 0.931 1_545 S
C862 C856 1.383 . S
C862 C861 1.379 . S
H863 C857 0.959 . S
H864 C857 0.961 . S
H865 C857 0.960 . S
H866 C858 0.930 . S
H867 C859 0.929 . S
H868 C876 0.929 . S
H869 C878 0.930 . S
H870 C880 0.930 . S
H871 C883 0.929 . S
H872 C886 0.946 . S
H873 C888 0.960 . S
H874 C888 0.960 . S
H875 C888 0.960 . S
C876 H868 0.929 . S
C876 C877 1.377 . S
C876 C878 1.384 . S
C877 C876 1.377 . S
C877 C883 1.390 . S
C878 H869 0.930 . S
C878 C876 1.384 . S
C878 C879 1.372 . S
C879 C878 1.372 . S
C879 C880 1.400 . S
C879 C884 1.490 . S
C880 H870 0.930 . S
C880 C879 1.400 . S
C880 C883 1.386 . S
H881 C897 0.930 . S
H882 C898 0.931 1_565 S
C883 H871 0.929 . S
C883 C877 1.390 . S
C883 C880 1.386 . S
C884 C879 1.490 . S
C884 C886 1.362 1_565 S
C884 C887 1.403 1_655 S
H885 C891 0.930 . S
C886 H872 0.946 . S
C886 C884 1.362 1_545 S
C886 C889 1.421 1_655 S
C887 C884 1.403 1_455 S
C887 C888 1.524 . S
C887 C891 1.400 . S
C888 H873 0.960 . S
C888 H874 0.960 . S
C888 H875 0.960 . S
C888 C887 1.524 . S
C889 C886 1.421 1_455 S
C889 C890 1.392 . S
C889 C893 1.495 1_455 S
C890 C889 1.392 . S
C890 C891 1.385 1_545 S
C890 C892 1.478 . S
C891 H885 0.930 . S
C891 C887 1.400 . S
C891 C890 1.385 1_565 S
C892 C890 1.478 . S
C892 C894 1.381 . S
C892 C898 1.383 . S
C893 C889 1.495 1_655 S
C893 H899 0.959 . S
C893 H900 0.961 . S
C893 H901 0.960 1_655 S
C894 C892 1.381 . S
C894 C895 1.394 . S
C894 H902 0.930 . S
C895 C894 1.394 . S
C895 C896 1.383 . S
C895 H903 0.929 . S
C896 C895 1.383 . S
C896 C897 1.377 . S
C897 H881 0.930 . S
C897 C896 1.377 . S
C897 C898 1.379 . S
C898 H882 0.931 1_545 S
C898 C892 1.383 . S
C898 C897 1.379 . S
H899 C893 0.959 . S
H900 C893 0.961 . S
H901 C893 0.960 1_455 S
H902 C894 0.930 . S
H903 C895 0.929 . S
H904 C912 0.929 . S
H905 C914 0.930 . S
H906 C916 0.930 1_455 S
H907 C919 0.929 . S
H908 C922 0.930 . S
H909 C924 0.960 . S
H910 C924 0.960 . S
H911 C924 0.960 . S
C912 H904 0.929 . S
C912 C913 1.377 . S
C912 C914 1.384 . S
C913 C912 1.377 . S
C913 C919 1.390 . S
C914 H905 0.930 . S
C914 C912 1.384 . S
C914 C915 1.372 . S
C915 C914 1.372 . S
C915 C916 1.400 . S
C915 C920 1.490 . S
C916 H906 0.930 1_655 S
C916 C915 1.400 . S
C916 C919 1.386 . S
H917 C933 0.930 . S
H918 C934 0.931 . S
C919 H907 0.929 . S
C919 C913 1.390 . S
C919 C916 1.386 . S
C920 C915 1.490 . S
C920 C922 1.395 . S
C920 C923 1.403 1_655 S
H921 C927 0.930 . S
C922 H908 0.930 . S
C922 C920 1.395 . S
C922 C925 1.403 . S
C923 C920 1.403 1_455 S
C923 C924 1.524 . S
C923 C927 1.400 . S
C924 H909 0.960 . S
C924 H910 0.960 . S
C924 H911 0.960 . S
C924 C923 1.524 . S
C925 C922 1.403 . S
C925 C926 1.392 1_655 S
C925 C929 1.495 . S
C926 C925 1.392 1_455 S
C926 C927 1.385 . S
C926 C928 1.478 . S
C927 H921 0.930 . S
C927 C923 1.400 . S
C927 C926 1.385 . S
C928 C926 1.478 . S
C928 C930 1.381 . S
C928 C934 1.383 . S
C929 C925 1.495 . S
C929 H935 0.959 . S
C929 H936 0.961 . S
C929 H937 0.960 . S
C930 C928 1.381 . S
C930 C931 1.394 . S
C930 H938 0.930 . S
C931 C930 1.394 . S
C931 C932 1.383 . S
C931 H939 0.929 . S
C932 C931 1.383 . S
C932 C933 1.377 . S
C933 H917 0.930 . S
C933 C932 1.377 . S
C933 C934 1.379 . S
C934 H918 0.931 . S
C934 C928 1.383 . S
C934 C933 1.379 . S
H935 C929 0.959 . S
H936 C929 0.961 . S
H937 C929 0.960 . S
H938 C930 0.930 . S
H939 C931 0.929 . S
H940 C948 0.929 . S
H941 C950 0.930 . S
H942 C952 0.930 . S
H943 C955 0.929 . S
H944 C958 0.930 . S
H945 C960 0.960 . S
H946 C960 0.960 . S
H947 C960 0.960 . S
C948 H940 0.929 . S
C948 C949 1.377 . S
C948 C950 1.384 . S
C949 C948 1.377 . S
C949 C955 1.390 . S
C950 H941 0.930 . S
C950 C948 1.384 . S
C950 C951 1.372 . S
C951 C950 1.372 . S
C951 C952 1.400 . S
C951 C956 1.490 . S
C952 H942 0.930 . S
C952 C951 1.400 . S
C952 C955 1.386 . S
H953 C969 0.930 . S
H954 C970 0.931 . S
C955 H943 0.929 . S
C955 C949 1.390 . S
C955 C952 1.386 . S
C956 C951 1.490 . S
C956 C958 1.395 . S
C956 C959 1.403 . S
H957 C963 0.930 . S
C958 H944 0.930 . S
C958 C956 1.395 . S
C958 C961 1.403 . S
C959 C956 1.403 . S
C959 C960 1.524 . S
C959 C963 1.400 . S
C960 H945 0.960 . S
C960 H946 0.960 . S
C960 H947 0.960 . S
C960 C959 1.524 . S
C961 C958 1.403 . S
C961 C962 1.392 . S
C961 C965 1.495 . S
C962 C961 1.392 . S
C962 C963 1.385 . S
C962 C964 1.478 . S
C963 H957 0.930 . S
C963 C959 1.400 . S
C963 C962 1.385 . S
C964 C962 1.478 . S
C964 C966 1.381 . S
C964 C970 1.383 . S
C965 C961 1.495 . S
C965 H971 0.959 . S
C965 H972 0.961 . S
C965 H973 0.960 . S
C966 C964 1.381 . S
C966 C967 1.394 . S
C966 H974 0.930 . S
C967 C966 1.394 . S
C967 C968 1.383 . S
C967 H975 0.929 . S
C968 C967 1.383 . S
C968 C969 1.377 . S
C969 H953 0.930 . S
C969 C968 1.377 . S
C969 C970 1.379 . S
C970 H954 0.931 . S
C970 C964 1.383 . S
C970 C969 1.379 . S
H971 C965 0.959 . S
H972 C965 0.961 . S
H973 C965 0.960 . S
H974 C966 0.930 . S
H975 C967 0.929 . S
H976 C984 0.929 . S
H977 C986 0.930 . S
H978 C988 0.930 . S
H979 C991 0.929 . S
H980 C994 0.930 . S
H981 C996 0.960 . S
H982 C996 0.960 . S
H983 C996 0.960 . S
C984 H976 0.929 . S
C984 C985 1.377 . S
C984 C986 1.384 . S
C985 C984 1.377 . S
C985 C991 1.390 . S
C986 H977 0.930 . S
C986 C984 1.384 . S
C986 C987 1.372 . S
C987 C986 1.372 . S
C987 C988 1.400 . S
C987 C992 1.490 . S
C988 H978 0.930 . S
C988 C987 1.400 . S
C988 C991 1.386 . S
H989 C1005 0.930 . S
H990 C1006 0.931 . S
C991 H979 0.929 . S
C991 C985 1.390 . S
C991 C988 1.386 . S
C992 C987 1.490 . S
C992 C994 1.395 1_554 S
C992 C995 1.403 . S
H993 C999 0.930 . S
C994 H980 0.930 . S
C994 C992 1.395 1_556 S
C994 C997 1.403 . S
C995 C992 1.403 . S
C995 C996 1.524 . S
C995 C999 1.400 . S
C996 H981 0.960 . S
C996 H982 0.960 . S
C996 H983 0.960 . S
C996 C995 1.524 . S
C997 C994 1.403 . S
C997 C998 1.392 . S
C997 C1001 1.495 . S
C998 C997 1.392 . S
C998 C999 1.385 1_556 S
C998 C1000 1.478 . S
C999 H993 0.930 . S
C999 C995 1.400 . S
C999 C998 1.385 1_554 S
C1000 C998 1.478 . S
C1000 C1002 1.381 . S
C1000 C1006 1.383 . S
C1001 C997 1.495 . S
C1001 H1007 0.959 . S
C1001 H1008 0.961 . S
C1001 H1009 0.960 . S
C1002 C1000 1.381 . S
C1002 C1003 1.394 . S
C1002 H1010 0.930 . S
C1003 C1002 1.394 . S
C1003 C1004 1.383 . S
C1003 H1011 0.929 . S
C1004 C1003 1.383 . S
C1004 C1005 1.377 . S
C1005 H989 0.930 . S
C1005 C1004 1.377 . S
C1005 C1006 1.379 . S
C1006 H990 0.931 . S
C1006 C1000 1.383 . S
C1006 C1005 1.379 . S
H1007 C1001 0.959 . S
H1008 C1001 0.961 . S
H1009 C1001 0.960 . S
H1010 C1002 0.930 . S
H1011 C1003 0.929 . S
H1012 C1020 0.929 . S
H1013 C1022 0.930 . S
H1014 C1024 0.930 . S
H1015 C1027 0.929 . S
H1016 C1030 0.930 . S
H1017 C1032 0.960 . S
H1018 C1032 0.960 . S
H1019 C1032 0.960 . S
C1020 H1012 0.929 . S
C1020 C1021 1.377 . S
C1020 C1022 1.384 . S
C1021 C1020 1.377 . S
C1021 C1027 1.390 . S
C1022 H1013 0.930 . S
C1022 C1020 1.384 . S
C1022 C1023 1.372 . S
C1023 C1022 1.372 . S
C1023 C1024 1.400 . S
C1023 C1028 1.490 . S
C1024 H1014 0.930 . S
C1024 C1023 1.400 . S
C1024 C1027 1.386 . S
H1025 C1041 0.930 . S
H1026 C1042 0.931 . S
C1027 H1015 0.929 . S
C1027 C1021 1.390 . S
C1027 C1024 1.386 . S
C1028 C1023 1.490 . S
C1028 C1030 1.395 . S
C1028 C1031 1.403 . S
H1029 C1035 0.930 . S
C1030 H1016 0.930 . S
C1030 C1028 1.395 . S
C1030 C1033 1.403 . S
C1031 C1028 1.403 . S
C1031 C1032 1.524 . S
C1031 C1035 1.400 . S
C1032 H1017 0.960 . S
C1032 H1018 0.960 . S
C1032 H1019 0.960 . S
C1032 C1031 1.524 . S
C1033 C1030 1.403 . S
C1033 C1034 1.392 . S
C1033 C1037 1.495 . S
C1034 C1033 1.392 . S
C1034 C1035 1.385 . S
C1034 C1036 1.478 . S
C1035 H1029 0.930 . S
C1035 C1031 1.400 . S
C1035 C1034 1.385 . S
C1036 C1034 1.478 . S
C1036 C1038 1.381 . S
C1036 C1042 1.383 . S
C1037 C1033 1.495 . S
C1037 H1043 0.959 . S
C1037 H1044 0.961 . S
C1037 H1045 0.960 . S
C1038 C1036 1.381 . S
C1038 C1039 1.394 . S
C1038 H1046 0.930 . S
C1039 C1038 1.394 . S
C1039 C1040 1.383 . S
C1039 H1047 0.929 . S
C1040 C1039 1.383 . S
C1040 C1041 1.377 . S
C1041 H1025 0.930 . S
C1041 C1040 1.377 . S
C1041 C1042 1.379 . S
C1042 H1026 0.931 . S
C1042 C1036 1.383 . S
C1042 C1041 1.379 . S
H1043 C1037 0.959 . S
H1044 C1037 0.961 . S
H1045 C1037 0.960 . S
H1046 C1038 0.930 . S
H1047 C1039 0.929 . S
C481 C328 1.589 . S
C500 C33 1.594 . S
C517 C416 1.585 . S
C536 C64 1.585 . S
C553 C170 1.593 . S
C572 C406 1.599 . S
C589 C180 1.583 . S
C608 C241 1.583 . S
C625 C359 1.590 . S
C644 C3 1.577 . S
C661 C111 1.592 . S
C680 C288 1.598 . S
C697 C298 1.588 . S
C716 C123 1.595 . S
C733 C210 1.593 . S
C752 C446 1.583 . S
C769 C239 1.587 . S
C788 C300 1.594 . S
C805 C92 1.590 . S
C824 C151 1.583 . S
C841 C182 1.590 . S
C860 C121 1.571 . S
C877 C229 1.593 . S
C896 C52 1.579 . S
C913 C62 1.583 . S
C932 C5 1.580 . S
C949 C418 1.590 . S
C968 C357 1.573 . S
C985 C269 1.589 . S
C1004 C387 1.592 . S
C1021 C347 1.592 . S
C1040 C465 1.597 . S
