# Generated by pormake.
# Topology ukp, (4)-cn, num edge types: 1
# Building blocks:
#     Node 0, Type 0, BuildingBlock: ESEHIV_clean_sbu_0, # of connection points: 4
#     Node 1, Type 0, BuildingBlock: ESEHIV_clean_sbu_0, # of connection points: 4
#     Node 2, Type 0, BuildingBlock: ESEHIV_clean_sbu_0, # of connection points: 4
#     Node 3, Type 0, BuildingBlock: ESEHIV_clean_sbu_0, # of connection points: 4
#     Node 4, Type 0, BuildingBlock: ESEHIV_clean_sbu_0, # of connection points: 4
#     Node 5, Type 0, BuildingBlock: ESEHIV_clean_sbu_0, # of connection points: 4
#     Node 6, Type 0, BuildingBlock: ESEHIV_clean_sbu_0, # of connection points: 4
#     Node 7, Type 0, BuildingBlock: ESEHIV_clean_sbu_0, # of connection points: 4
#     Node 8, Type 0, BuildingBlock: ESEHIV_clean_sbu_0, # of connection points: 4
#     Node 9, Type 0, BuildingBlock: ESEHIV_clean_sbu_0, # of connection points: 4
#     Node 10, Type 0, BuildingBlock: ESEHIV_clean_sbu_0, # of connection points: 4
#     Node 11, Type 0, BuildingBlock: ESEHIV_clean_sbu_0, # of connection points: 4
#     Node 12, Type 0, BuildingBlock: ESEHIV_clean_sbu_0, # of connection points: 4
#     Node 13, Type 0, BuildingBlock: ESEHIV_clean_sbu_0, # of connection points: 4
#     Node 14, Type 0, BuildingBlock: ESEHIV_clean_sbu_0, # of connection points: 4
#     Node 15, Type 0, BuildingBlock: ESEHIV_clean_sbu_0, # of connection points: 4
#     Node 16, Type 0, BuildingBlock: ESEHIV_clean_sbu_0, # of connection points: 4
#     Node 17, Type 0, BuildingBlock: ESEHIV_clean_sbu_0, # of connection points: 4
#     Node 18, Type 0, BuildingBlock: ESEHIV_clean_sbu_0, # of connection points: 4
#     Node 19, Type 0, BuildingBlock: ESEHIV_clean_sbu_0, # of connection points: 4
#     Node 20, Type 0, BuildingBlock: ESEHIV_clean_sbu_0, # of connection points: 4
#     Node 21, Type 0, BuildingBlock: ESEHIV_clean_sbu_0, # of connection points: 4
#     Node 22, Type 0, BuildingBlock: ESEHIV_clean_sbu_0, # of connection points: 4
#     Node 23, Type 0, BuildingBlock: ESEHIV_clean_sbu_0, # of connection points: 4
#     Node 24, Type 0, BuildingBlock: ESEHIV_clean_sbu_0, # of connection points: 4
#     Node 25, Type 0, BuildingBlock: ESEHIV_clean_sbu_0, # of connection points: 4
#     Node 26, Type 0, BuildingBlock: ESEHIV_clean_sbu_0, # of connection points: 4
#     Node 27, Type 0, BuildingBlock: ESEHIV_clean_sbu_0, # of connection points: 4
#     Node 28, Type 0, BuildingBlock: ESEHIV_clean_sbu_0, # of connection points: 4
#     Node 29, Type 0, BuildingBlock: ESEHIV_clean_sbu_0, # of connection points: 4
#     Node 30, Type 0, BuildingBlock: ESEHIV_clean_sbu_0, # of connection points: 4
#     Node 31, Type 0, BuildingBlock: ESEHIV_clean_sbu_0, # of connection points: 4
#     Node 32, Type 0, BuildingBlock: ESEHIV_clean_sbu_0, # of connection points: 4
#     Node 33, Type 0, BuildingBlock: ESEHIV_clean_sbu_0, # of connection points: 4
#     Node 34, Type 0, BuildingBlock: ESEHIV_clean_sbu_0, # of connection points: 4
#     Node 35, Type 0, BuildingBlock: ESEHIV_clean_sbu_0, # of connection points: 4
#     Node 36, Type 0, BuildingBlock: ESEHIV_clean_sbu_0, # of connection points: 4
#     Node 37, Type 0, BuildingBlock: ESEHIV_clean_sbu_0, # of connection points: 4
#     Node 38, Type 0, BuildingBlock: ESEHIV_clean_sbu_0, # of connection points: 4
#     Node 39, Type 0, BuildingBlock: ESEHIV_clean_sbu_0, # of connection points: 4
#     Node 40, Type 0, BuildingBlock: ESEHIV_clean_sbu_0, # of connection points: 4
#     Node 41, Type 0, BuildingBlock: ESEHIV_clean_sbu_0, # of connection points: 4
#     Node 42, Type 0, BuildingBlock: ESEHIV_clean_sbu_0, # of connection points: 4
#     Node 43, Type 0, BuildingBlock: ESEHIV_clean_sbu_0, # of connection points: 4
#     Node 44, Type 0, BuildingBlock: ESEHIV_clean_sbu_0, # of connection points: 4
#     Node 45, Type 0, BuildingBlock: ESEHIV_clean_sbu_0, # of connection points: 4
#     Node 46, Type 0, BuildingBlock: ESEHIV_clean_sbu_0, # of connection points: 4
#     Node 47, Type 0, BuildingBlock: ESEHIV_clean_sbu_0, # of connection points: 4
#     Edge 48, Type (0, 0), None
#     Edge 49, Type (0, 0), None
#     Edge 50, Type (0, 0), None
#     Edge 51, Type (0, 0), None
#     Edge 52, Type (0, 0), None
#     Edge 53, Type (0, 0), None
#     Edge 54, Type (0, 0), None
#     Edge 55, Type (0, 0), None
#     Edge 56, Type (0, 0), None
#     Edge 57, Type (0, 0), None
#     Edge 58, Type (0, 0), None
#     Edge 59, Type (0, 0), None
#     Edge 60, Type (0, 0), None
#     Edge 61, Type (0, 0), None
#     Edge 62, Type (0, 0), None
#     Edge 63, Type (0, 0), None
#     Edge 64, Type (0, 0), None
#     Edge 65, Type (0, 0), None
#     Edge 66, Type (0, 0), None
#     Edge 67, Type (0, 0), None
#     Edge 68, Type (0, 0), None
#     Edge 69, Type (0, 0), None
#     Edge 70, Type (0, 0), None
#     Edge 71, Type (0, 0), None
#     Edge 72, Type (0, 0), None
#     Edge 73, Type (0, 0), None
#     Edge 74, Type (0, 0), None
#     Edge 75, Type (0, 0), None
#     Edge 76, Type (0, 0), None
#     Edge 77, Type (0, 0), None
#     Edge 78, Type (0, 0), None
#     Edge 79, Type (0, 0), None
#     Edge 80, Type (0, 0), None
#     Edge 81, Type (0, 0), None
#     Edge 82, Type (0, 0), None
#     Edge 83, Type (0, 0), None
#     Edge 84, Type (0, 0), None
#     Edge 85, Type (0, 0), None
#     Edge 86, Type (0, 0), None
#     Edge 87, Type (0, 0), None
#     Edge 88, Type (0, 0), None
#     Edge 89, Type (0, 0), None
#     Edge 90, Type (0, 0), None
#     Edge 91, Type (0, 0), None
#     Edge 92, Type (0, 0), None
#     Edge 93, Type (0, 0), None
#     Edge 94, Type (0, 0), None
#     Edge 95, Type (0, 0), None
#     Edge 96, Type (0, 0), None
#     Edge 97, Type (0, 0), None
#     Edge 98, Type (0, 0), None
#     Edge 99, Type (0, 0), None
#     Edge 100, Type (0, 0), None
#     Edge 101, Type (0, 0), None
#     Edge 102, Type (0, 0), None
#     Edge 103, Type (0, 0), None
#     Edge 104, Type (0, 0), None
#     Edge 105, Type (0, 0), None
#     Edge 106, Type (0, 0), None
#     Edge 107, Type (0, 0), None
#     Edge 108, Type (0, 0), None
#     Edge 109, Type (0, 0), None
#     Edge 110, Type (0, 0), None
#     Edge 111, Type (0, 0), None
#     Edge 112, Type (0, 0), None
#     Edge 113, Type (0, 0), None
#     Edge 114, Type (0, 0), None
#     Edge 115, Type (0, 0), None
#     Edge 116, Type (0, 0), None
#     Edge 117, Type (0, 0), None
#     Edge 118, Type (0, 0), None
#     Edge 119, Type (0, 0), None
#     Edge 120, Type (0, 0), None
#     Edge 121, Type (0, 0), None
#     Edge 122, Type (0, 0), None
#     Edge 123, Type (0, 0), None
#     Edge 124, Type (0, 0), None
#     Edge 125, Type (0, 0), None
#     Edge 126, Type (0, 0), None
#     Edge 127, Type (0, 0), None
#     Edge 128, Type (0, 0), None
#     Edge 129, Type (0, 0), None
#     Edge 130, Type (0, 0), None
#     Edge 131, Type (0, 0), None
#     Edge 132, Type (0, 0), None
#     Edge 133, Type (0, 0), None
#     Edge 134, Type (0, 0), None
#     Edge 135, Type (0, 0), None
#     Edge 136, Type (0, 0), None
#     Edge 137, Type (0, 0), None
#     Edge 138, Type (0, 0), None
#     Edge 139, Type (0, 0), None
#     Edge 140, Type (0, 0), None
#     Edge 141, Type (0, 0), None
#     Edge 142, Type (0, 0), None
#     Edge 143, Type (0, 0), None
# Relax obj value: 0.067
# Max RMSD: 0.150
# Mean RMSD: 0.150
data_MOF--net-ukp--node1-ESEHIV_clean_sbu_0--edge1-none
_symmetry_space_group_name_H-M    P1
_symmetry_Int_Tables_number       1
_symmetry_cell_setting            triclinic
loop_
_symmetry_equiv_pos_as_xyz
'x, y, z'
_cell_length_a     33.486749
_cell_length_b     33.522959
_cell_length_c     33.687383
_cell_angle_alpha  90.199477
_cell_angle_beta   90.476674
_cell_angle_gamma 89.62892
loop_
_atom_site_label
_atom_site_type_symbol
_atom_site_fract_x
_atom_site_fract_y
_atom_site_fract_z
_atom_type_partial_charge
Cu0 Cu 0.24834 0.32367 0.41333 0.0
N1 N 0.24012 0.36275 0.37324 0.0
N2 N 0.26146 0.40006 0.32252 0.0
C3 C 0.25527 0.36262 0.33617 0.0
C4 C 0.24704 0.4247 0.35065 0.0
C5 C 0.23332 0.40165 0.38145 0.0
O6 O 0.29353 0.28778 0.4003 0.0
C7 C 0.27854 0.38387 0.46522 0.0
O8 O 0.30639 0.38866 0.4385 0.0
H9 H 0.26671 0.33594 0.3219 0.0
H10 H 0.22314 0.41284 0.40976 0.0
N11 N 0.20315 0.2923 0.42239 0.0
N12 N 0.16251 0.25099 0.45458 0.0
C13 C 0.20007 0.26505 0.45161 0.0
C14 C 0.16624 0.29552 0.40643 0.0
C15 C 0.14099 0.26998 0.42629 0.0
C16 C 0.32296 0.29997 0.37996 0.0
O17 O 0.3258 0.33821 0.37229 0.0
H18 H 0.22445 0.25725 0.47144 0.0
H19 H 0.15793 0.31614 0.38311 0.0
O20 O 0.25516 0.35422 0.46225 0.0
H21 H 0.2487 0.45695 0.35018 0.0
H22 H 0.10929 0.26651 0.42103 0.0
Cu23 Cu 0.99497 0.9975 0.67814 0.0
N24 N 0.95753 0.99836 0.63598 0.0
N25 N 0.91206 1.02683 0.59559 0.0
C26 C 0.94187 0.0328 0.62199 0.0
C27 C 0.90842 0.98681 0.59275 0.0
C28 C 0.93636 0.96927 0.61806 0.0
O29 O 1.02476 0.04724 0.67289 0.0
C30 C 0.92887 1.00781 0.72757 0.0
O31 O 0.92288 0.03968 0.7058 0.0
H32 H 0.95187 0.06196 0.63158 0.0
H33 H 0.94027 0.93773 0.62365 0.0
N34 N 0.03301 0.95599 0.6789 0.0
N35 N 0.06513 0.90357 0.70511 0.0
C36 C 1.02917 0.92018 0.69669 0.0
C37 C 0.07281 0.96159 0.67605 0.0
C38 C 0.09275 0.92925 0.69227 0.0
C39 C 0.03625 0.05533 0.63766 0.0
O40 O 1.02925 1.02955 0.609 0.0
H41 H 1.00095 0.90828 0.7065 0.0
H42 H 0.08651 0.98885 0.66605 0.0
O43 O 0.96246 0.99018 0.72526 0.0
H44 H 0.88724 0.97135 0.57383 0.0
H45 H 0.12472 0.92554 0.69572 0.0
Cu46 Cu 0.31492 0.72829 0.92021 0.0
N47 N 0.33442 0.69273 0.88218 0.0
N48 N 0.32529 0.65691 0.82702 0.0
C49 C 0.3241 0.69365 0.84351 0.0
C50 C 0.33818 0.63217 0.8558 0.0
C51 C 0.34434 0.65447 0.88968 0.0
O52 O 0.28178 0.76666 0.89054 0.0
C53 C 0.26841 0.66365 0.94654 0.0
O54 O 0.25092 0.666 0.91156 0.0
H55 H 0.30996 0.71928 0.82967 0.0
H56 H 0.34994 0.64268 0.91894 0.0
N57 N 0.35754 0.75401 0.94567 0.0
N58 N 0.39317 0.79184 0.98739 0.0
C59 C 0.35613 0.78153 0.975 0.0
C60 C 0.39663 0.7467 0.93967 0.0
C61 C 0.41876 0.77002 0.96536 0.0
C62 C 0.24506 0.77529 0.89549 0.0
O63 O 0.22623 0.76041 0.92611 0.0
H64 H 0.32864 0.79322 0.98721 0.0
H65 H 0.40821 0.72534 0.91848 0.0
O66 O 0.28905 0.69326 0.95854 0.0
H67 H 0.33967 0.60001 0.85335 0.0
H68 H 0.45098 0.77041 0.96792 0.0
Cu69 Cu 0.57917 0.05751 0.19081 0.0
N70 N 0.60917 0.06214 0.14486 0.0
N71 N 0.65085 0.041 0.09784 0.0
C72 C 0.63658 0.03457 0.13448 0.0
C73 C 0.6325 0.07471 0.08507 0.0
C74 C 0.60685 0.08788 0.11439 0.0
O75 O 0.54523 1.01055 0.18523 0.0
C76 C 0.62425 0.07719 0.26137 0.0
O77 O 0.592 0.09432 0.27549 0.0
H78 H 0.64333 1.00847 0.15226 0.0
H79 H 0.5864 0.11294 0.1127 0.0
N80 N 0.54337 0.09988 0.19912 0.0
N81 N 0.516 0.15434 0.22593 0.0
C82 C 0.55025 0.1365 0.21413 0.0
C83 C 0.5034 0.09527 0.2005 0.0
C84 C 0.48639 0.1288 0.2172 0.0
C85 C 0.53122 1.00164 0.15091 0.0
O86 O 0.54314 1.02157 0.11975 0.0
H87 H 0.57985 0.14817 0.21956 0.0
H88 H 0.4879 0.06812 0.19272 0.0
O89 O 0.62161 0.05481 0.23094 0.0
H90 H 0.63562 0.08759 0.05582 0.0
H91 H 0.45521 0.13303 0.22438 0.0
Cu92 Cu 0.26246 0.73624 0.13085 0.0
N93 N 0.25831 0.69148 0.16357 0.0
N94 N 0.28023 0.64014 0.20012 0.0
C95 C 0.28951 0.66736 0.17233 0.0
C96 C 0.24144 0.64706 0.2087 0.0
C97 C 0.22807 0.67891 0.18629 0.0
O98 O 0.28671 0.77764 0.16418 0.0
C99 C 0.28968 0.68988 0.0636 0.0
O100 O 0.31681 0.68139 0.03706 0.0
H101 H 0.3192 0.67172 0.16068 0.0
H102 H 0.19913 0.69314 0.18821 0.0
N103 N 0.21461 0.75636 0.10931 0.0
N104 N 0.17526 0.79255 0.06934 0.0
C105 C 0.21302 0.78529 0.08162 0.0
C106 C 0.17644 0.74507 0.11461 0.0
C107 C 0.15201 0.76738 0.08987 0.0
C108 C 0.32254 0.78955 0.16073 0.0
O109 O 0.34376 0.77672 0.13055 0.0
H110 H 0.23918 0.79999 0.07021 0.0
H111 H 0.16696 0.72153 0.13411 0.0
O112 O 0.29593 0.7195 0.08684 0.0
H113 H 0.22471 0.63206 0.23157 0.0
H114 H 0.11993 0.76485 0.0869 0.0
Cu115 Cu 0.55222 1.00601 0.40187 0.0
N116 N 0.59259 0.99189 0.43857 0.0
N117 N 0.6353 1.0118 0.4862 0.0
C118 C 0.59671 1.01008 0.47411 0.0
C119 C 0.65642 0.99291 0.45788 0.0
C120 C 0.62993 0.98014 0.42884 0.0
O121 O 0.52269 0.04998 0.42713 0.0
C122 C 0.61217 0.03761 0.35447 0.0
O123 O 0.61644 0.06256 0.38434 0.0
H124 H 0.57268 1.02656 0.48811 0.0
H125 H 0.63805 0.9675 0.40043 0.0
N126 N 0.51557 0.96559 0.39006 0.0
N127 N 0.48814 0.91322 0.3595 0.0
C128 C 0.52247 0.92999 0.3725 0.0
C129 C 0.47565 0.97108 0.38792 0.0
C130 C 0.45857 0.93875 0.36898 0.0
C131 C 0.52124 0.08704 0.41894 0.0
O132 O 0.53882 0.10013 0.38684 0.0
H133 H 0.552 0.918 0.36697 0.0
H134 H 0.46028 0.99793 0.39732 0.0
O135 O 0.58115 1.01606 0.35303 0.0
H136 H 0.68867 0.9904 0.45715 0.0
H137 H 0.42728 0.93477 0.36184 0.0
Cu138 Cu 0.30764 0.33583 0.62852 0.0
N139 N 0.30627 0.36877 0.67344 0.0
N140 N 0.27876 0.41104 0.71704 0.0
C141 C 0.27611 0.39461 0.68052 0.0
C142 C 0.31263 0.39574 0.73319 0.0
C143 C 0.32965 0.3697 0.70609 0.0
O144 O 0.25949 0.30434 0.62738 0.0
C145 C 0.32575 0.36651 0.55196 0.0
O146 O 0.33227 0.32964 0.54032 0.0
H147 H 0.25101 0.39869 0.66041 0.0
H148 H 0.35584 0.35119 0.7107 0.0
N149 N 0.3508 0.29998 0.62584 0.0
N150 N 0.40569 0.27156 0.60107 0.0
C151 C 0.38712 0.3063 0.61006 0.0
C152 C 0.34694 0.25994 0.62713 0.0
C153 C 0.38076 0.24227 0.61166 0.0
C154 C 0.24505 0.29277 0.66021 0.0
O155 O 0.26266 0.30298 0.69368 0.0
H156 H 0.39799 0.33544 0.6018 0.0
H157 H 0.31999 0.24468 0.63563 0.0
O158 O 0.31053 0.37326 0.58565 0.0
H159 H 0.3231 0.40114 0.76322 0.0
H160 H 0.38588 0.21071 0.60687 0.0
Cu161 Cu 0.99478 0.06382 0.86508 0.0
N162 N 0.95916 0.0678 0.90808 0.0
N163 N 0.93072 0.04497 0.96303 0.0
C164 C 0.96545 0.0524 0.94451 0.0
C165 C 0.90158 0.05853 0.93895 0.0
C166 C 0.91917 0.07299 0.90546 0.0
O167 O 0.0341 1.02173 0.87381 0.0
C168 C 0.93068 0.04109 0.81462 0.0
O169 O 0.92252 1.01386 0.84125 0.0
H170 H 0.99436 0.04192 0.95488 0.0
H171 H 0.90283 0.08211 0.87957 0.0
N172 N 1.02385 0.1099 0.85844 0.0
N173 N 0.06373 0.15116 0.82627 0.0
C174 C 0.05177 0.11324 0.8303 0.0
C175 C 1.018 0.14692 0.87297 0.0
C176 C 0.04271 0.17273 0.85289 0.0
C177 C 1.02467 0.99031 0.89226 0.0
O178 O 0.98682 0.98348 0.8995 0.0
H179 H 0.06059 0.08889 0.81104 0.0
H180 H 0.99557 0.15491 0.89456 0.0
O181 O 0.9642 0.05852 0.8162 0.0
H182 H 0.86981 0.05569 0.944 0.0
H183 H 0.04349 0.20485 0.85605 0.0
Cu184 Cu 0.46061 0.27177 0.32157 0.0
N185 N 0.40862 0.25667 0.33619 0.0
N186 N 0.35124 0.27438 0.36561 0.0
C187 C 0.37965 0.28451 0.33958 0.0
C188 C 0.36091 0.2372 0.37761 0.0
C189 C 0.39694 0.22667 0.36 0.0
O190 O 0.45375 0.31793 0.28643 0.0
C191 C 0.47425 0.29077 0.40269 0.0
O192 O 0.44075 0.31096 0.39891 0.0
H193 H 0.38087 0.31339 0.32593 0.0
H194 H 0.41533 0.20112 0.36759 0.0
N195 N 0.48994 0.2361 0.29037 0.0
N196 N 0.51293 0.18923 0.24923 0.0
C197 C 0.48122 0.20208 0.27066 0.0
C198 C 0.52784 0.24461 0.28052 0.0
C199 C 0.54224 0.21576 0.25543 0.0
C200 C 0.43862 0.35176 0.29497 0.0
O201 O 0.43684 0.36293 0.33236 0.0
H202 H 0.45258 0.18741 0.27182 0.0
H203 H 0.54364 0.27083 0.29016 0.0
O204 O 0.49041 0.27608 0.37181 0.0
H205 H 0.34561 0.22073 0.40045 0.0
H206 H 0.57162 0.21473 0.24236 0.0
Cu207 Cu 0.05951 0.18464 0.55395 0.0
N208 N 0.0674 0.14565 0.59369 0.0
N209 N 0.05258 0.09113 0.62869 0.0
C210 C 0.05315 0.10817 0.59234 0.0
C211 C 0.06782 0.11836 0.65389 0.0
C212 C 0.07765 0.15162 0.63211 0.0
O213 O 1.01884 0.16464 0.51704 0.0
C214 C 0.03308 0.23708 0.61492 0.0
O215 O 1.01015 0.20812 0.62735 0.0
H216 H 0.03987 0.09515 0.56593 0.0
H217 H 0.08853 0.17924 0.64429 0.0
N218 N 0.10633 0.19443 0.52548 0.0
N219 N 0.148 0.22467 0.48383 0.0
C220 C 0.10949 0.21885 0.49386 0.0
C221 C 0.14412 0.18467 0.53572 0.0
C222 C 0.16998 0.20329 0.51001 0.0
C223 C 0.98133 0.16696 0.52264 0.0
O224 O 0.9679 0.18799 0.55275 0.0
H225 H 0.08422 0.23365 0.47997 0.0
H226 H 0.15233 0.16679 0.56122 0.0
O227 O 0.04727 0.23518 0.58003 0.0
H228 H 0.07061 0.1149 0.68574 0.0
H229 H 0.20225 0.20213 0.51128 0.0
Cu230 Cu 0.1226 0.79188 0.80765 0.0
N231 N 0.17212 0.80964 0.82684 0.0
N232 N 0.2244 0.79541 0.86657 0.0
C233 C 0.18431 0.79917 0.86376 0.0
C234 C 0.23823 0.80642 0.83068 0.0
C235 C 0.20589 0.81473 0.80611 0.0
O236 O 0.13419 0.74087 0.78154 0.0
C237 C 0.05867 0.81376 0.85906 0.0
O238 O 0.0417 0.82846 0.82705 0.0
H239 H 0.164 0.78803 0.88592 0.0
H240 H 0.2069 0.81861 0.77428 0.0
N241 N 0.0972 0.82191 0.76725 0.0
N242 N 0.07219 0.86752 0.72552 0.0
C243 C 0.10051 0.85965 0.7535 0.0
C244 C 0.06645 0.806 0.74656 0.0
C245 C 0.05065 0.83413 0.72124 0.0
C246 C 0.16212 0.71734 0.79264 0.0
O247 O 0.17714 0.72088 0.8286 0.0
H248 H 0.12205 0.88104 0.76446 0.0
H249 H 0.0555 0.77603 0.75065 0.0
O250 O 0.08965 0.79174 0.85572 0.0
H251 H 0.26905 0.80405 0.82139 0.0
H252 H 1.02542 0.83049 0.70128 0.0
Cu253 Cu 0.48486 0.86974 0.09075 0.0
N254 N 0.47632 0.91813 0.11787 0.0
N255 N 0.50489 0.97136 0.14597 0.0
C256 C 0.49803 0.95121 0.11184 0.0
C257 C 0.48438 0.9521 0.17415 0.0
C258 C 0.466 0.91979 0.15651 0.0
O259 O 0.52901 0.87708 0.05241 0.0
C260 C 0.51262 0.83831 0.16401 0.0
O261 O 0.53834 0.86759 0.16215 0.0
H262 H 0.51323 0.95728 0.08431 0.0
H263 H 0.45095 0.89614 0.17208 0.0
N264 N 0.43995 0.85388 0.06148 0.0
N265 N 0.4034 0.81905 1.01796 0.0
C266 C 0.44059 0.82847 0.0304 0.0
C267 C 0.40101 0.86058 0.06902 0.0
C268 C 0.37824 0.83912 0.04202 0.0
C269 C 0.56167 0.89501 0.06049 0.0
O270 O 0.57033 0.90325 0.0977 0.0
H271 H 0.46779 0.81636 1.01805 0.0
H272 H 0.38998 0.87873 0.09323 0.0
O273 O 0.49123 0.83041 0.13355 0.0
H274 H 0.48464 0.95939 0.2055 0.0
H275 H 0.34599 0.83764 0.04091 0.0
Cu276 Cu 0.43803 0.80099 0.25497 0.0
N277 N 0.39032 0.82203 0.23424 0.0
N278 N 0.34058 0.8099 0.19107 0.0
C279 C 0.38038 0.81354 0.19624 0.0
C280 C 0.32453 0.81956 0.22653 0.0
C281 C 0.35536 0.82676 0.25322 0.0
O282 O 0.42453 0.74989 0.28018 0.0
C283 C 0.50107 0.82402 0.20369 0.0
O284 O 0.51307 0.84498 0.2344 0.0
H285 H 0.40201 0.80285 0.17491 0.0
H286 H 0.35249 0.8289 0.28512 0.0
N287 N 0.46274 0.83071 0.29569 0.0
N288 N 0.48431 0.87714 0.33821 0.0
C289 C 0.45634 0.86771 0.31051 0.0
C290 C 0.49522 0.81671 0.31526 0.0
C291 C 0.50886 0.84541 0.3412 0.0
C292 C 0.39351 0.72969 0.27123 0.0
O293 O 0.37348 0.7382 0.23868 0.0
H294 H 0.4327 0.88751 0.30052 0.0
H295 H 0.50872 0.78776 0.31006 0.0
O296 O 0.47278 0.79907 0.20794 0.0
H297 H 0.29331 0.81654 0.23402 0.0
H298 H 0.53464 0.84324 0.36068 0.0
Cu299 Cu 0.51684 0.22 0.49686 0.0
N300 N 0.498 0.17004 0.48033 0.0
N301 N 0.50525 0.11326 0.44568 0.0
C302 C 0.50846 0.15341 0.44529 0.0
C303 C 0.49038 0.10444 0.48176 0.0
C304 C 0.48627 0.1395 0.50316 0.0
O305 O 0.56821 0.20892 0.52314 0.0
C306 C 0.48618 0.27717 0.44277 0.0
O307 O 0.46089 0.2836 0.47163 0.0
H308 H 0.52311 0.16992 0.42203 0.0
H309 H 0.4794 0.14199 0.5344 0.0
N310 N 0.48734 0.24535 0.53712 0.0
N311 N 0.44164 0.26714 0.58 0.0
C312 C 0.45113 0.23854 0.55312 0.0
C313 C 0.50077 0.27877 0.55507 0.0
C314 C 0.47252 0.2925 0.58127 0.0
C315 C 0.59195 0.18104 0.51259 0.0
O316 O 0.58869 0.16596 0.47669 0.0
H317 H 0.43177 0.21428 0.54437 0.0
H318 H 0.52909 0.29262 0.5488 0.0
O319 O 0.51556 0.25322 0.44848 0.0
H320 H 0.48629 0.07461 0.4932 0.0
H321 H 0.47433 0.3189 0.59973 0.0
Cu322 Cu 0.10616 0.25009 0.71376 0.0
N323 N 0.15227 0.24966 0.68263 0.0
N324 N 0.21074 0.27172 0.66104 0.0
C325 C 0.18681 0.26737 0.69267 0.0
C326 C 0.19158 0.25462 0.63018 0.0
C327 C 0.15578 0.24033 0.64378 0.0
O328 O 0.10852 0.29422 0.75177 0.0
C329 C 0.05653 0.2595 0.6445 0.0
O330 O 0.08342 0.28489 0.63223 0.0
H331 H 0.19268 0.28005 0.72174 0.0
H332 H 0.13295 0.22665 0.62565 0.0
N333 N 0.10558 0.20547 0.74577 0.0
N334 N 0.08676 0.16595 0.79483 0.0
C335 C 0.08434 0.20278 0.77932 0.0
C336 C 0.12208 0.16924 0.73988 0.0
C337 C 0.11026 0.1445 0.77025 0.0
C338 C 0.12407 0.3279 0.74455 0.0
O339 O 0.13126 0.3377 0.70754 0.0
H340 H 0.06587 0.2267 0.79081 0.0
H341 H 0.1401 0.16108 0.71458 0.0
O342 O 0.05884 0.24598 0.67974 0.0
H343 H 0.2021 0.25362 0.59987 0.0
H344 H 0.11725 0.11309 0.77327 0.0
Cu345 Cu 0.07722 0.86694 0.96958 0.0
N346 N 0.07985 0.91541 0.94229 0.0
N347 N 0.05323 0.96567 0.90745 0.0
C348 C 0.04669 0.93663 0.93384 0.0
C349 C 0.09264 0.96404 0.89963 0.0
C350 C 0.10895 0.93228 0.92069 0.0
O351 O 0.03693 0.87592 1.01078 0.0
C352 C 0.04911 0.83278 0.89741 0.0
O353 O 1.02398 0.86293 0.89738 0.0
H354 H 1.01767 0.93004 0.94551 0.0
H355 H 0.13918 0.92106 0.91852 0.0
N356 N 0.12382 0.8534 0.99734 0.0
N357 N 0.16275 0.82005 0.03999 0.0
C358 C 0.12551 0.82466 1.02518 0.0
C359 C 0.16133 0.86736 0.99446 0.0
C360 C 0.18557 0.84672 1.02086 0.0
C361 C 0.99958 0.88149 1.00573 0.0
O362 O 0.98298 0.87167 0.97164 0.0
H363 H 0.09995 0.80732 0.03398 0.0
H364 H 0.17054 0.8907 0.97457 0.0
O365 O 0.07034 0.82608 0.92827 0.0
H366 H 0.10801 0.98289 0.87873 0.0
H367 H 0.21725 0.85103 1.02552 0.0
Cu368 Cu 0.33328 0.45413 0.24116 0.0
N369 N 0.36878 0.41069 0.24073 0.0
N370 N 0.4167 0.37159 0.26689 0.0
C371 C 0.39039 0.40146 0.27345 0.0
C372 C 0.41193 0.36191 0.22816 0.0
C373 C 0.38263 0.38645 0.21194 0.0
O374 O 0.29783 0.44526 0.28636 0.0
C375 C 0.3761 0.52464 0.21964 0.0
O376 O 0.34539 0.53461 0.19739 0.0
H377 H 0.38616 0.41602 0.30188 0.0
H378 H 0.3726 0.38666 0.1814 0.0
N379 N 0.30026 0.46258 0.19627 0.0
N380 N 0.2579 0.49654 0.15692 0.0
C381 C 0.27275 0.49222 0.19405 0.0
C382 C 0.30177 0.44687 0.15942 0.0
C383 C 0.27567 0.46785 0.13502 0.0
C384 C 0.2837 0.41008 0.29039 0.0
O385 O 0.29347 0.38242 0.26442 0.0
H386 H 0.26642 0.51229 0.21846 0.0
H387 H 0.322 0.42348 0.15022 0.0
O388 O 0.37258 0.49679 0.24499 0.0
H389 H 0.42801 0.33845 0.21279 0.0
H390 H 0.27177 0.46365 0.10337 0.0
Cu391 Cu 0.83484 0.1147 0.82242 0.0
N392 N 0.87219 0.15764 0.82772 0.0
N393 N 0.90401 0.21151 0.80422 0.0
C394 C 0.86817 0.19463 0.81196 0.0
C395 C 0.93163 0.18556 0.81748 0.0
C396 C 0.91214 0.15298 0.83229 0.0
O397 O 0.79812 0.12588 0.77881 0.0
C398 C 0.89754 0.0636 0.7963 0.0
O399 O 0.90586 0.09191 0.7709 0.0
H400 H 0.83986 0.20667 0.80165 0.0
H401 H 0.92714 0.12601 0.84097 0.0
N402 N 0.80248 0.10452 0.86654 0.0
N403 N 0.75721 0.07217 0.90282 0.0
C404 C 0.77337 0.07673 0.86652 0.0
C405 C 0.80487 0.11786 0.90423 0.0
C406 C 0.77687 0.09797 0.92675 0.0
C407 C 0.81042 0.14379 0.74819 0.0
O408 O 0.84897 0.14871 0.7435 0.0
H409 H 0.76533 0.05927 0.84062 0.0
H410 H 0.82632 0.13949 0.91486 0.0
O411 O 0.86515 0.06557 0.81555 0.0
H412 H 0.9636 0.18884 0.81446 0.0
H413 H 0.77219 0.10152 0.9583 0.0
Cu414 Cu 0.19974 0.60278 0.05389 0.0
N415 N 0.15724 0.63999 0.05584 0.0
N416 N 0.11223 0.68449 0.03333 0.0
C417 C 0.14771 0.66638 1.02691 0.0
C418 C 0.09997 0.67065 0.0688 0.0
C419 C 0.12754 0.64295 0.08236 0.0
O420 O 0.18384 0.56102 1.01536 0.0
C421 C 0.25351 0.66466 0.06656 0.0
O422 O 0.22592 0.67384 0.09232 0.0
H423 H 0.16556 0.67092 1.00072 0.0
H424 H 0.12475 0.62457 0.10847 0.0
N425 N 0.20877 0.57491 0.10157 0.0
N426 N 0.23442 0.52885 0.14268 0.0
C427 C 0.22987 0.54052 0.10455 0.0
C428 C 0.19982 0.58523 0.13917 0.0
C429 C 0.21567 0.55685 0.16467 0.0
C430 C 0.16545 0.56863 0.98293 0.0
O431 O 0.16565 0.60519 0.96925 0.0
H432 H 0.24291 0.52535 0.07935 0.0
H433 H 0.18406 0.61213 0.14761 0.0
O434 O 0.24821 0.63393 0.04457 0.0
H435 H 0.07156 0.67752 0.08243 0.0
H436 H 0.21435 0.55738 0.19674 0.0
Cu437 Cu 0.69689 0.95899 0.30493 0.0
N438 N 0.68198 0.90601 0.31486 0.0
N439 N 0.65257 0.84959 0.29401 0.0
C440 C 0.64906 0.8896 0.29809 0.0
C441 C 0.68806 0.84021 0.31112 0.0
C442 C 0.70626 0.87507 0.32356 0.0
O443 O 0.72355 0.95747 0.25318 0.0
C444 C 0.64852 1.02412 0.33385 0.0
O445 O 0.68245 0.04016 0.34479 0.0
H446 H 0.62585 0.90725 0.28385 0.0
H447 H 0.73684 0.87796 0.33372 0.0
N448 N 0.73827 0.98066 0.33592 0.0
N449 N 0.78134 1.0048 0.3806 0.0
C450 C 0.75345 0.97651 0.37303 0.0
C451 C 0.75775 1.01187 0.32036 0.0
C452 C 0.78399 1.02709 0.34777 0.0
C453 C 0.72002 0.92912 0.2281 0.0
O454 O 0.6868 0.90861 0.22673 0.0
H455 H 0.74338 0.95469 0.39427 0.0
H456 H 0.75094 1.02413 0.29151 0.0
O457 O 0.6486 0.9922 0.31288 0.0
H458 H 0.70176 0.81086 0.31095 0.0
H459 H 0.80314 0.05269 0.34421 0.0
Cu460 Cu 0.88634 0.9775 0.05164 0.0
N461 N 0.93199 0.94521 0.05618 0.0
N462 N 0.97845 0.90305 0.03294 0.0
C463 C 0.94177 0.91899 1.02737 0.0
C464 C 0.99197 0.9191 0.06735 0.0
C465 C 0.96312 0.94515 0.08171 0.0
O466 O 0.89185 1.00766 1.00359 0.0
C467 C 0.80788 0.94637 0.06114 0.0
O468 O 0.7956 0.98319 0.06688 0.0
H469 H 0.92345 0.91418 1.00116 0.0
H470 H 0.96565 0.9643 0.10751 0.0
N471 N 0.87673 1.01598 0.09112 0.0
N472 N 0.84267 0.04718 0.13874 0.0
C473 C 0.85718 1.01181 0.12572 0.0
C474 C 0.87483 0.05542 0.08301 0.0
C475 C 0.85377 0.07478 0.11238 0.0
C476 C 0.92583 1.02258 0.99588 0.0
O477 O 0.9565 1.01502 1.01928 0.0
H478 H 0.85072 0.98333 0.1392 0.0
H479 H 0.88528 0.06889 0.05594 0.0
O480 O 0.84335 0.93965 0.04995 0.0
H481 H 1.02141 0.91417 0.08003 0.0
H482 H 0.8464 0.10623 0.11385 0.0
Cu483 Cu 0.25856 0.60413 0.74189 0.0
N484 N 0.22276 0.64766 0.74065 0.0
N485 N 0.17952 0.6919 0.76622 0.0
C486 C 0.21109 0.66776 0.77339 0.0
C487 C 0.17091 0.68716 0.72728 0.0
C488 C 0.19747 0.65953 0.71165 0.0
O489 O 0.29372 0.61158 0.78717 0.0
C490 C 0.19126 0.55878 0.7611 0.0
O491 O 0.18374 0.58717 0.78691 0.0
H492 H 0.22453 0.66345 0.80243 0.0
H493 H 0.19736 0.64785 0.68172 0.0
N494 N 0.29063 0.59733 0.69708 0.0
N495 N 0.33502 0.56704 0.65778 0.0
C496 C 0.31961 0.56932 0.6946 0.0
C497 C 0.28763 0.61332 0.66052 0.0
C498 C 0.31508 0.59457 0.63607 0.0
C499 C 0.30789 0.64648 0.79208 0.0
O500 O 0.30021 0.67399 0.76532 0.0
H501 H 0.32771 0.54974 0.71886 0.0
H502 H 0.26604 0.63583 0.65185 0.0
O503 O 0.22514 0.55733 0.74435 0.0
H504 H 0.14704 0.70229 0.71137 0.0
H505 H 0.31912 0.59995 0.60472 0.0
Cu506 Cu 0.19772 0.46518 0.51175 0.0
N507 N 0.14493 0.448 0.50325 0.0
N508 N 0.09015 0.41569 0.52327 0.0
C509 C 0.13031 0.41431 0.51952 0.0
C510 C 0.07884 0.4506 0.50649 0.0
C511 C 0.11269 0.47059 0.49455 0.0
O512 O 0.19787 0.49179 0.56321 0.0
C513 C 0.26553 0.41871 0.48873 0.0
O514 O 0.28329 0.45304 0.48336 0.0
H515 H 0.14922 0.39188 0.53333 0.0
H516 H 0.11393 0.50113 0.48442 0.0
N517 N 0.21559 0.50594 0.47807 0.0
N518 N 0.23969 0.54132 0.42774 0.0
C519 C 0.21758 0.50935 0.43817 0.0
C520 C 0.23688 0.5369 0.49256 0.0
C521 C 0.2519 0.55867 0.46165 0.0
C522 C 0.1719 0.48511 0.58964 0.0
O523 O 0.15422 0.45033 0.59068 0.0
H524 H 0.20494 0.48806 0.41746 0.0
H525 H 0.24265 0.5423 0.52374 0.0
O526 O 0.23144 0.41799 0.50518 0.0
H527 H 0.04877 0.46268 0.50651 0.0
H528 H 0.27066 0.58477 0.46381 0.0
Cu529 Cu 0.34962 0.5818 0.99144 0.0
N530 N 0.39367 0.61642 0.99342 0.0
N531 N 0.43418 0.66211 1.02105 0.0
C532 C 0.40401 0.63631 1.02692 0.0
C533 C 0.44307 0.65853 0.98212 0.0
C534 C 0.41805 0.63038 0.96516 0.0
O535 O 0.35673 0.54699 0.03741 0.0
C536 C 0.27914 0.62337 0.96146 0.0
O537 O 0.27207 0.59269 0.93824 0.0
H538 H 0.38993 0.63135 0.0553 0.0
H539 H 0.41775 0.62093 0.93447 0.0
N540 N 0.34416 0.54616 0.94879 0.0
N541 N 0.31349 0.49881 0.91313 0.0
C542 C 0.31557 0.51796 0.9483 0.0
C543 C 0.36152 0.54408 0.91293 0.0
C544 C 0.34237 0.51497 0.89064 0.0
C545 C 0.39124 0.53038 0.04016 0.0
O546 O 0.4182 0.53845 1.01328 0.0
H547 H 0.29497 0.51366 0.97246 0.0
H548 H 0.38509 0.56345 0.90304 0.0
O549 O 0.30518 0.62017 0.98923 0.0
H550 H 0.46671 0.67428 0.96716 0.0
H551 H 0.34823 0.5075 0.85995 0.0
Cu552 Cu 0.75529 0.81009 0.94875 0.0
N553 N 0.7572 0.84822 0.90795 0.0
N554 N 0.78543 0.89186 0.8667 0.0
C555 C 0.79123 0.86 0.89044 0.0
C556 C 0.74621 0.90094 0.86957 0.0
C557 C 0.7289 0.87406 0.89531 0.0
O558 O 0.8026 0.77661 0.94389 0.0
C559 C 0.75591 0.87708 0.99896 0.0
O560 O 0.78321 0.89184 0.97554 0.0
H561 H 0.81997 0.84591 0.89568 0.0
H562 H 0.6982 0.87415 0.90508 0.0
N563 N 0.71154 0.77572 0.94704 0.0
N564 N 0.65558 0.7498 0.97092 0.0
C565 C 0.67535 0.78364 0.96251 0.0
C566 C 0.7142 0.73551 0.94563 0.0
C567 C 0.6796 0.71937 0.96047 0.0
C568 C 0.80768 0.76276 0.90894 0.0
O569 O 0.78099 0.77108 0.88129 0.0
H570 H 0.6655 0.8132 0.97123 0.0
H571 H 0.74089 0.71895 0.93806 0.0
O572 O 0.74852 0.83993 0.99761 0.0
H573 H 0.73114 0.9251 0.85418 0.0
H574 H 0.67341 0.68809 0.9651 0.0
Cu575 Cu 0.47742 0.4956 0.16302 0.0
N576 N 0.4395 0.48487 0.1222 0.0
N577 N 0.40152 0.50727 0.07182 0.0
C578 C 0.43914 0.49959 0.08493 0.0
C579 C 0.37722 0.49355 0.10012 0.0
C580 C 0.40067 0.47881 0.13059 0.0
O581 O 0.51477 0.53862 0.14834 0.0
C582 C 0.41621 0.53513 0.20539 0.0
O583 O 0.41849 0.56173 0.17706 0.0
H584 H 0.46574 0.50994 0.07018 0.0
H585 H 0.38994 0.46891 0.15902 0.0
N586 N 0.5073 0.44979 0.17654 0.0
N587 N 0.55316 0.41041 0.20564 0.0
C588 C 0.54081 0.44837 0.19915 0.0
C589 C 0.49821 0.41144 0.16873 0.0
C590 C 0.52647 0.38702 0.18664 0.0
C591 C 0.50511 0.56689 0.1248 0.0
O592 O 0.46783 0.57051 0.11307 0.0
H593 H 0.55508 0.47459 0.21137 0.0
H594 H 0.47222 0.40188 0.15204 0.0
O595 O 0.44391 0.50902 0.20861 0.0
H596 H 0.34507 0.49668 0.1 0.0
H597 H 0.52674 0.35475 0.18642 0.0
Cu598 Cu 0.80887 0.2373 0.43869 0.0
N599 N 0.81423 0.19879 0.39907 0.0
N600 N 0.79148 0.1565 0.35299 0.0
C601 C 0.78302 0.17696 0.38634 0.0
C602 C 0.82997 0.16496 0.34488 0.0
C603 C 0.84392 0.19134 0.37338 0.0
O604 O 0.78304 0.28248 0.41238 0.0
C605 C 0.77531 0.18021 0.49381 0.0
O606 O 0.7443 0.1685 0.51401 0.0
H607 H 0.75373 0.17853 0.39964 0.0
H608 H 0.87266 0.20587 0.37388 0.0
N609 N 0.85611 0.25449 0.46334 0.0
N610 N 0.89565 0.29152 0.5022 0.0
C611 C 0.85817 0.28585 0.4884 0.0
C612 C 0.89362 0.23977 0.46138 0.0
C613 C 0.91822 0.26267 0.48542 0.0
C614 C 0.74561 0.28099 0.40572 0.0
O615 O 0.72507 0.25179 0.42135 0.0
H616 H 0.83261 0.30407 0.49619 0.0
H617 H 0.90248 0.21412 0.44391 0.0
O618 O 0.77345 0.21453 0.4776 0.0
H619 H 0.84603 0.15491 0.31889 0.0
H620 H 0.94993 0.25831 0.4902 0.0
Cu621 Cu 0.08648 0.55548 0.69875 0.0
N622 N 0.11882 0.5496 0.65409 0.0
N623 N 0.15799 0.51557 0.61247 0.0
C624 C 0.12697 0.51387 0.63755 0.0
C625 C 0.16975 0.55401 0.61271 0.0
C626 C 0.14567 0.57492 0.63882 0.0
O627 O 0.04599 0.51395 0.69678 0.0
C628 C 0.15773 0.53888 0.74126 0.0
O629 O 0.16522 0.5125 0.71347 0.0
H630 H 0.11157 0.4867 0.64528 0.0
H631 H 0.14877 0.60581 0.64741 0.0
N632 N 0.05933 0.60405 0.70256 0.0
N633 N 1.01667 0.64679 0.73067 0.0
C634 C 1.02555 0.60818 0.72355 0.0
C635 C 0.07231 0.64144 0.69615 0.0
C636 C 0.04586 0.66808 0.71353 0.0
C637 C 1.02875 0.50914 0.66317 0.0
O638 O 0.0386 0.53242 0.63355 0.0
H639 H 1.00975 0.58322 0.73607 0.0
H640 H 0.10034 0.64873 0.68237 0.0
O641 O 0.12314 0.55472 0.74359 0.0
H642 H 0.19424 0.56598 0.59576 0.0
H643 H 0.049 0.70015 0.71515 0.0
Cu644 Cu 0.77057 0.22372 0.62312 0.0
N645 N 0.76284 0.19723 0.67097 0.0
N646 N 0.78432 0.16085 0.72223 0.0
C647 C 0.79423 0.18666 0.69368 0.0
C648 C 0.74455 0.15565 0.71857 0.0
C649 C 0.73142 0.17762 0.68612 0.0
O650 O 0.80814 0.26694 0.63639 0.0
C651 C 0.79926 0.14688 0.59595 0.0
O652 O 0.82511 0.14576 0.6254 0.0
H653 H 0.82439 0.19629 0.68823 0.0
H654 H 0.70175 0.17734 0.67332 0.0
N655 N 0.72429 0.24858 0.60293 0.0
N656 N 0.68527 0.28388 0.56165 0.0
C657 C 0.72218 0.26874 0.56832 0.0
C658 C 0.68742 0.25119 0.61852 0.0
C659 C 0.66318 0.27291 0.59302 0.0
C660 C 0.84534 0.26309 0.64366 0.0
O661 O 0.8635 0.22982 0.63326 0.0
H662 H 0.74728 0.27227 0.54866 0.0
H663 H 0.67875 0.23868 0.64664 0.0
O664 O 0.78345 0.18027 0.58596 0.0
H665 H 0.72678 0.13589 0.73651 0.0
H666 H 0.63204 0.28032 0.59748 0.0
Cu667 Cu 0.05161 0.51859 0.88757 0.0
N668 N 0.09257 0.5162 0.92639 0.0
N669 N 0.14163 0.54082 0.96505 0.0
C670 C 0.11439 0.54846 0.93634 0.0
C671 C 0.13675 0.50194 0.97409 0.0
C672 C 0.10657 0.48671 0.9499 0.0
O673 O 1.01619 0.56209 0.90483 0.0
C674 C 0.11499 0.52372 0.83157 0.0
O675 O 0.13489 0.54876 0.85409 0.0
H676 H 0.10968 0.57753 0.92328 0.0
H677 H 0.09531 0.45654 0.94992 0.0
N678 N 1.01823 0.47384 0.88265 0.0
N679 N 0.99251 0.42102 0.85095 0.0
C680 C 1.02631 0.43963 0.86284 0.0
C681 C 0.97793 0.47623 0.88326 0.0
C682 C 0.96194 0.44362 0.86373 0.0
C683 C 1.02352 0.59926 0.90399 0.0
O684 O 0.05413 0.61194 0.88349 0.0
H685 H 0.05607 0.43031 0.85443 0.0
H686 H 0.96126 0.50169 0.89415 0.0
O687 O 0.07728 0.52072 0.83567 0.0
H688 H 0.15332 0.48587 0.99675 0.0
H689 H 0.93065 0.43757 0.85836 0.0
Cu690 Cu 0.79949 0.84317 0.1245 0.0
N691 N 0.79032 0.87699 0.16842 0.0
N692 N 0.75228 0.91618 0.20709 0.0
C693 C 0.75336 0.88432 0.18259 0.0
C694 C 0.79014 0.92977 0.20857 0.0
C695 C 0.81349 0.90574 0.18431 0.0
O696 O 0.7561 0.80532 0.12296 0.0
C697 C 0.78677 0.91334 0.07978 0.0
O698 O 0.75714 0.92115 0.10387 0.0
H699 H 0.72722 0.86763 0.17357 0.0
H700 H 0.84459 0.91018 0.17722 0.0
N701 N 0.84633 0.81172 0.12398 0.0
N702 N 0.89836 0.78385 0.09303 0.0
C703 C 0.87772 0.8179 0.09987 0.0
C704 C 0.84808 0.77234 0.13264 0.0
C705 C 0.88019 0.75507 0.11355 0.0
C706 C 0.74998 0.78856 0.15627 0.0
O707 O 0.77271 0.79798 0.18686 0.0
H708 H 0.88307 0.84572 0.08463 0.0
H709 H 0.82561 0.75619 0.14866 0.0
O710 O 0.80338 0.87905 0.08 0.0
H711 H 0.80015 0.95529 0.22564 0.0
H712 H 0.88861 0.72384 0.11349 0.0
Cu713 Cu 0.49881 0.56059 0.37167 0.0
N714 N 0.46433 0.56361 0.41556 0.0
N715 N 0.43725 0.54168 0.47167 0.0
C716 C 0.47152 0.54991 0.45254 0.0
C717 C 0.40747 0.55342 0.44724 0.0
C718 C 0.42429 0.56734 0.41296 0.0
O719 O 0.5376 0.51679 0.37662 0.0
C720 C 0.43367 0.542 0.31872 0.0
O721 O 0.42513 0.51214 0.34227 0.0
H722 H 0.50091 0.54088 0.46293 0.0
H723 H 0.40803 0.57547 0.38651 0.0
N724 N 0.52844 0.60662 0.36708 0.0
N725 N 0.56833 0.6484 0.33549 0.0
C726 C 0.55821 0.61007 0.34089 0.0
C727 C 0.51941 0.64402 0.37881 0.0
C728 C 0.54419 0.67011 0.35922 0.0
C729 C 0.53085 0.48692 0.39866 0.0
O730 O 0.49461 0.48146 0.41212 0.0
H731 H 0.56936 0.58533 0.3234 0.0
H732 H 0.49453 0.65193 0.39762 0.0
O733 O 0.46647 0.56037 0.3234 0.0
H734 H 0.37588 0.54933 0.45248 0.0
H735 H 0.54275 0.70234 0.3604 0.0
Cu736 Cu 0.93282 0.74431 0.82532 0.0
N737 N 0.8947 0.72806 0.8619 0.0
N738 N 0.84182 0.74348 0.89878 0.0
C739 C 0.85703 0.74207 0.86185 0.0
C740 C 0.87028 0.72839 0.92299 0.0
C741 C 0.90272 0.71823 0.89996 0.0
O742 O 0.90441 0.78151 0.78976 0.0
C743 C 0.96459 0.78964 0.88676 0.0
O744 O 0.93143 0.81007 0.88108 0.0
H745 H 0.84341 0.75652 0.83635 0.0
H746 H 0.93182 0.70926 0.91094 0.0
N747 N 0.95111 0.70039 0.79637 0.0
N748 N 0.98634 0.66106 0.75605 0.0
C749 C 0.98244 0.69811 0.7715 0.0
C750 C 0.93488 0.66375 0.79645 0.0
C751 C 0.95661 0.63932 0.77162 0.0
C752 C 0.91196 0.81785 0.78202 0.0
O753 O 0.94485 0.83391 0.79617 0.0
H754 H 1.00208 0.72279 0.7654 0.0
H755 H 0.90909 0.65539 0.81358 0.0
O756 O 0.97514 0.76491 0.85998 0.0
H757 H 0.86878 0.72728 0.95507 0.0
H758 H 0.95104 0.60811 0.7657 0.0
Cu759 Cu 0.53814 0.70376 0.06982 0.0
N760 N 0.55221 0.65131 0.08457 0.0
N761 N 0.53223 0.59418 0.11236 0.0
C762 C 0.52491 0.62202 0.08449 0.0
C763 C 0.56742 0.6043 0.1291 0.0
C764 C 0.57929 0.64009 0.11236 0.0
O765 O 0.48777 0.69934 0.03972 0.0
C766 C 0.55978 0.76683 0.12433 0.0
O767 O 0.57045 0.78658 0.09267 0.0
H768 H 0.4983 0.62234 0.06641 0.0
H769 H 0.60319 0.65878 0.1232 0.0
N770 N 0.57124 0.72779 0.03221 0.0
N771 N 0.61905 0.74719 0.99108 0.0
C772 C 0.60829 0.71995 1.01853 0.0
C773 C 0.55861 0.76028 1.01201 0.0
C774 C 0.58823 0.77271 0.98709 0.0
C775 C 0.45538 0.68237 0.04944 0.0
O776 O 0.44774 0.6768 0.08723 0.0
H777 H 0.62703 0.69561 1.0288 0.0
H778 H 0.52977 0.7744 1.01585 0.0
O779 O 0.54074 0.73413 0.12026 0.0
H780 H 0.58102 0.58974 0.15453 0.0
H781 H 0.58726 0.79819 0.96744 0.0
Cu782 Cu 0.63971 0.3139 0.29895 0.0
N783 N 0.68395 0.32383 0.33173 0.0
N784 N 0.72783 0.30562 0.37872 0.0
C785 C 0.69075 0.30088 0.36377 0.0
C786 C 0.74476 0.33404 0.35618 0.0
C787 C 0.71745 0.34531 0.32701 0.0
O788 O 0.65211 0.26732 0.2644 0.0
C789 C 0.56887 0.32536 0.3449 0.0
O790 O 0.55567 0.34782 0.31577 0.0
H791 H 0.67017 0.27813 0.37336 0.0
H792 H 0.72288 0.3651 0.30238 0.0
N793 N 0.62394 0.35857 0.26854 0.0
N794 N 0.58549 0.39769 0.23002 0.0
C795 C 0.5948 0.35979 0.2405 0.0
C796 C 0.6335 0.39696 0.27551 0.0
C797 C 0.60991 0.42119 0.25174 0.0
C798 C 0.68724 0.25191 0.26281 0.0
O799 O 0.71605 0.26746 0.28429 0.0
H800 H 0.5789 0.33365 0.2303 0.0
H801 H 0.65443 0.4068 0.29807 0.0
O802 O 0.59969 0.30358 0.33971 0.0
H803 H 0.77544 0.3438 0.3587 0.0
H804 H 0.60945 0.45345 0.25199 0.0
Cu805 Cu 0.993 0.38045 0.59194 0.0
N806 N 0.98064 0.42422 0.62436 0.0
N807 N 1.00425 0.47773 0.65625 0.0
C808 C 0.99943 0.45938 0.62082 0.0
C809 C 0.98632 0.45425 0.68303 0.0
C810 C 0.971 0.4216 0.66309 0.0
O811 O 1.0307 0.40071 0.55241 0.0
C812 C 0.03231 0.34941 0.65953 0.0
O813 O 0.05353 0.38218 0.6579 0.0
H814 H 1.01497 0.46802 0.59415 0.0
H815 H 0.95892 0.39523 0.67683 0.0
N816 N 0.94767 0.36062 0.566 0.0
N817 N 0.90847 0.32181 0.52862 0.0
C818 C 0.94626 0.3294 0.54062 0.0
C819 C 0.90956 0.37287 0.57027 0.0
C820 C 0.88521 0.34899 0.54712 0.0
C821 C 0.06726 0.3918 0.54667 0.0
O822 O 0.08367 0.36234 0.56677 0.0
H823 H 0.97231 0.31257 0.5315 0.0
H824 H 0.90013 0.39716 0.58929 0.0
O825 O 1.01083 0.33981 0.62962 0.0
H826 H 0.98673 0.45888 0.71487 0.0
H827 H 0.85306 0.35126 0.54449 0.0
Cu828 Cu 0.95531 0.30441 0.74335 0.0
N829 N 0.90924 0.31261 0.71224 0.0
N830 N 0.86457 0.29014 0.66747 0.0
C831 C 0.90109 0.28523 0.68389 0.0
C832 C 0.84931 0.32297 0.68547 0.0
C833 C 0.87704 0.33684 0.71319 0.0
O834 O 0.94569 0.25326 0.76981 0.0
C835 C 1.02191 0.33352 0.69899 0.0
O836 O 1.02982 0.35584 0.73008 0.0
H837 H 0.92066 0.26014 0.67773 0.0
H838 H 0.87293 0.36112 0.73403 0.0
N839 N 0.97207 0.33792 0.78553 0.0
N840 N 0.99 0.38496 0.82937 0.0
C841 C 0.96425 0.37513 0.79953 0.0
C842 C 1.00301 0.32458 0.80789 0.0
C843 C 1.0144 0.35349 0.83448 0.0
C844 C 0.91091 0.24557 0.78354 0.0
O845 O 0.88143 0.27084 0.77728 0.0
H846 H 0.94161 0.39489 0.78738 0.0
H847 H 1.01735 0.29584 0.80393 0.0
O848 O 0.99612 0.30574 0.70173 0.0
H849 H 0.81942 0.33465 0.6808 0.0
H850 H 0.03872 0.35172 0.85579 0.0
Cu851 Cu 1.00653 0.72879 0.98584 0.0
N852 N 0.99165 0.67904 0.96575 0.0
N853 N 1.00312 0.62491 0.92819 0.0
C854 C 1.01232 0.66336 0.93519 0.0
C855 C 0.97456 0.61616 0.95491 0.0
C856 C 0.96764 0.6497 0.97828 0.0
O857 O 0.05484 0.71701 1.01656 0.0
C858 C 0.97749 0.78287 0.92834 0.0
O859 O 0.95161 0.7914 0.95615 0.0
H860 H 0.03591 0.67923 0.92028 0.0
H861 H 0.94837 0.65173 1.00382 0.0
N862 N 0.97502 0.75514 1.02399 0.0
N863 N 0.93158 0.7793 0.06801 0.0
C864 C 0.93981 0.74904 0.04242 0.0
C865 C 0.9891 0.78943 0.03954 0.0
C866 C 0.96224 0.80472 0.06619 0.0
C867 C 0.08947 0.7052 1.0065 0.0
O868 O 0.10024 0.70732 0.96914 0.0
H869 H 0.92069 0.72364 0.03707 0.0
H870 H 1.01756 0.80218 0.03193 0.0
O871 O 1.00753 0.76061 0.93684 0.0
H872 H 0.96144 0.58703 0.95895 0.0
H873 H 0.9653 0.83171 0.08364 0.0
Cu874 Cu 0.62334 0.74732 0.22716 0.0
N875 N 0.66551 0.73955 0.19227 0.0
N876 N 0.71836 0.76438 0.16172 0.0
C877 C 0.70059 0.75811 0.19684 0.0
C878 C 0.69459 0.74773 0.13394 0.0
C879 C 0.66217 0.73175 0.15306 0.0
O880 O 0.64106 0.7894 0.26417 0.0
C881 C 0.57923 0.7773 0.16262 0.0
O882 O 0.6075 0.8043 0.16255 0.0
H883 H 0.70988 0.77196 0.2245 0.0
H884 H 0.63579 0.71997 0.13873 0.0
N885 N 0.61588 0.70217 0.25757 0.0
N886 N 0.59268 0.66279 0.30484 0.0
C887 C 0.59199 0.69974 0.28934 0.0
C888 C 0.63228 0.66571 0.25292 0.0
C889 C 0.61781 0.6411 0.28214 0.0
C890 C 0.62988 0.8253 0.27026 0.0
O891 O 0.59901 0.8397 0.2506 0.0
H892 H 0.57377 0.72422 0.30004 0.0
H893 H 0.65287 0.65756 0.22964 0.0
O894 O 0.57667 0.75417 0.19237 0.0
H895 H 0.69897 0.74931 0.10216 0.0
H896 H 0.62471 0.60977 0.28598 0.0
Cu897 Cu 0.58572 0.35774 0.46146 0.0
N898 N 0.58948 0.4093 0.44005 0.0
N899 N 0.56078 0.46171 0.41002 0.0
C900 C 0.55805 0.43451 0.43905 0.0
C901 C 0.59667 0.45541 0.39321 0.0
C902 C 0.614 0.42235 0.41132 0.0
O903 O 0.54494 0.36052 0.50294 0.0
C904 C 0.55661 0.33575 0.3855 0.0
O905 O 0.53247 0.36636 0.38999 0.0
H906 H 0.53224 0.43178 0.45758 0.0
H907 H 0.64047 0.40665 0.40147 0.0
N908 N 0.6329 0.34032 0.48646 0.0
N909 N 0.67252 0.30721 0.52891 0.0
C910 C 0.63493 0.31974 0.5208 0.0
C911 C 0.67045 0.34054 0.47239 0.0
C912 C 0.6951 0.32017 0.49864 0.0
C913 C 0.50867 0.37053 0.49689 0.0
O914 O 0.49415 0.36932 0.46058 0.0
H915 H 0.60914 0.31302 0.53864 0.0
H916 H 0.67908 0.35348 0.44439 0.0
O917 O 0.57709 0.32338 0.41513 0.0
H918 H 0.60777 0.47094 0.36746 0.0
H919 H 0.72677 0.31471 0.49526 0.0
Cu920 Cu 0.8314 0.94643 0.76923 0.0
N921 N 0.84745 0.89604 0.75054 0.0
N922 N 0.88384 0.84098 0.76326 0.0
C923 C 0.8837 0.88119 0.76092 0.0
C924 C 0.84676 0.82987 0.7518 0.0
C925 C 0.82429 0.8639 0.74437 0.0
O926 O 0.80303 0.93636 0.81865 0.0
C927 C 0.89379 0.9833 0.73573 0.0
O928 O 0.87416 0.96861 0.70517 0.0
H929 H 0.90743 0.89968 0.77272 0.0
H930 H 0.79225 0.86513 0.74016 0.0
N931 N 0.79591 0.97802 0.73897 0.0
N932 N 0.75244 1.00657 0.69695 0.0
C933 C 0.77164 0.97225 0.70718 0.0
C934 C 0.79131 1.01684 0.74864 0.0
C935 C 0.76484 0.03456 0.72279 0.0
C936 C 0.81303 0.9085 0.84241 0.0
O937 O 0.84882 0.89249 0.8398 0.0
H938 H 0.76876 0.94411 0.69162 0.0
H939 H 0.8066 1.03135 0.77302 0.0
O940 O 0.88047 0.97735 0.77061 0.0
H941 H 0.83539 0.79973 0.75295 0.0
H942 H 0.7555 0.06549 0.7229 0.0
Cu943 Cu 0.32258 0.59637 0.30363 0.0
N944 N 0.34584 0.64649 0.31497 0.0
N945 N 0.38038 0.70002 0.29534 0.0
C946 C 0.34878 0.67619 0.2882 0.0
C947 C 0.39683 0.6866 0.32943 0.0
C948 C 0.37543 0.65364 0.34145 0.0
O949 O 0.29409 0.60111 0.25322 0.0
C950 C 0.40105 0.56388 0.2987 0.0
O951 O 0.40921 0.59684 0.27952 0.0
H952 H 0.32965 0.67908 0.26247 0.0
H953 H 0.38325 0.63421 0.36574 0.0
N954 N 0.28219 0.58015 0.33824 0.0
N955 N 0.24934 0.55383 0.38911 0.0
C956 C 0.28253 0.57351 0.37775 0.0
C957 C 0.24773 0.56404 0.32484 0.0
C958 C 0.2274 0.54774 0.35614 0.0
C959 C 0.3064 0.61758 0.22174 0.0
O960 O 0.34502 0.62082 0.21591 0.0
H961 H 0.30727 0.58093 0.39724 0.0
H962 H 0.23884 0.56253 0.29394 0.0
O963 O 0.365 0.55636 0.30764 0.0
H964 H 0.42359 0.69825 0.34338 0.0
H965 H 0.19921 0.53216 0.35477 0.0
Cu966 Cu 0.69767 0.07802 0.56727 0.0
N967 N 0.65726 0.11723 0.56705 0.0
N968 N 0.61655 0.16314 0.53978 0.0
C969 C 0.64022 0.1311 0.53332 0.0
C970 C 0.61935 0.17043 0.57917 0.0
C971 C 0.64478 0.14217 0.59588 0.0
O972 O 0.68559 0.04393 0.52101 0.0
C973 C 0.77851 0.10942 0.58482 0.0
O974 O 0.78954 0.07562 0.60126 0.0
H975 H 0.64544 0.11805 0.50436 0.0
H976 H 0.65421 0.14053 0.62662 0.0
N977 N 0.69944 0.04366 0.61148 0.0
N978 N 0.72655 1.01325 0.6643 0.0
C979 C 0.71994 0.0485 0.64581 0.0
C980 C 0.69219 1.00412 0.60918 0.0
C981 C 0.70894 0.98526 0.64166 0.0
C982 C 0.64911 0.03283 0.51807 0.0
O983 O 0.62382 0.04411 0.54562 0.0
H984 H 0.73306 0.07651 0.65497 0.0
H985 H 0.67891 0.98932 0.58382 0.0
O986 O 0.74516 0.11188 0.56646 0.0
H987 H 0.60392 0.19414 0.59481 0.0
H988 H 0.71017 0.95345 0.64691 0.0
Cu989 Cu 0.20856 0.44179 0.81229 0.0
N990 N 0.17568 0.3967 0.80633 0.0
N991 N 0.13855 0.35078 0.7749 0.0
C992 C 0.1607 0.38393 0.77123 0.0
C993 C 0.13877 0.34252 0.81411 0.0
C994 C 0.1617 0.37098 0.83346 0.0
O995 O 0.25158 0.4362 0.77359 0.0
C996 C 0.13701 0.48978 0.81398 0.0
O997 O 0.11767 0.45689 0.80552 0.0
H998 H 0.16619 0.39831 0.74329 0.0
H999 H 0.16815 0.37242 0.86493 0.0
N1000 N 0.23736 0.445 0.85999 0.0
N1001 N 0.28284 0.47264 0.90044 0.0
C1002 C 0.27247 0.46448 0.86253 0.0
C1003 C 0.22505 0.44077 0.89769 0.0
C1004 C 0.25322 0.4577 0.92282 0.0
C1005 C 0.24941 0.43176 0.73612 0.0
O1006 O 0.21634 0.44147 0.71722 0.0
H1007 H 0.288 0.47577 0.83692 0.0
H1008 H 0.19621 0.4294 0.90614 0.0
O1009 O 0.17518 0.4899 0.81367 0.0
H1010 H 0.12454 0.31709 0.82766 0.0
H1011 H 0.25067 0.46109 0.95465 0.0
Cu1012 Cu 0.39839 0.46516 0.55615 0.0
N1013 N 0.44355 0.43148 0.55371 0.0
N1014 N 0.48788 0.3898 0.52585 0.0
C1015 C 0.45495 0.41251 0.52028 0.0
C1016 C 0.49825 0.39507 0.56429 0.0
C1017 C 0.47057 0.42052 0.58155 0.0
O1018 O 0.40041 0.50237 0.51251 0.0
C1019 C 0.34822 0.39915 0.53426 0.0
O1020 O 0.37209 0.39176 0.50447 0.0
H1021 H 0.44057 0.41708 0.49174 0.0
H1022 H 0.47073 0.43078 0.61197 0.0
N1023 N 0.39289 0.49522 0.60281 0.0
N1024 N 0.36278 0.5383 0.64386 0.0
C1025 C 0.36925 0.52788 0.60569 0.0
C1026 C 0.40142 0.48463 0.6405 0.0
C1027 C 0.38303 0.51132 0.66595 0.0
C1028 C 0.43365 0.5187 0.50449 0.0
O1029 O 0.46536 0.50989 0.52606 0.0
H1030 H 0.35453 0.5416 0.58044 0.0
H1031 H 0.41715 0.45772 0.64904 0.0
O1032 O 0.3522 0.43087 0.55476 0.0
H1033 H 0.52423 0.38203 0.5787 0.0
H1034 H 0.38272 0.50956 0.69801 0.0
Cu1035 Cu 0.74321 0.11126 0.24856 0.0
N1036 N 0.72333 0.15909 0.2268 0.0
N1037 N 0.69491 0.21814 0.2414 0.0
C1038 C 0.72713 0.19405 0.24637 0.0
C1039 C 0.67045 0.19852 0.21623 0.0
C1040 C 0.68816 0.16223 0.20709 0.0
O1041 O 0.77535 0.12618 0.2947 0.0
C1042 C 0.66365 0.09358 0.27226 0.0
O1043 O 0.66484 0.12886 0.28917 0.0
H1044 H 0.75013 0.19914 0.26856 0.0
H1045 H 0.6736 0.13768 0.19202 0.0
N1046 N 0.78024 0.08176 0.21829 0.0
N1047 N 0.82079 0.05396 0.17361 0.0
C1048 C 0.79088 0.08073 0.17963 0.0
C1049 C 0.80534 0.05583 0.23646 0.0
C1050 C 0.82985 0.03821 0.20906 0.0
C1051 C 0.76473 0.13753 0.32904 0.0
O1052 O 0.72705 0.13544 0.33917 0.0
H1053 H 0.77767 0.09935 0.15678 0.0
H1054 H 0.80731 0.05163 0.26808 0.0
O1055 O 0.69541 0.07888 0.2572 0.0
H1056 H 0.64069 0.20817 0.20766 0.0
H1057 H 0.85396 1.01732 0.2149 0.0
Cu1058 Cu 0.68097 0.97624 1.00001 0.0
N1059 N 0.63371 0.94528 1.00195 0.0
N1060 N 0.58534 0.90964 0.03108 0.0
C1061 C 0.61683 0.93405 0.03644 0.0
C1062 C 0.58169 0.90534 0.99135 0.0
C1063 C 0.61181 0.92712 0.97345 0.0
O1064 O 0.67364 1.01893 0.0384 0.0
C1065 C 0.7247 0.90394 1.01426 0.0
O1066 O 0.69088 0.88865 1.02605 0.0
H1067 H 0.62769 0.94326 0.06524 0.0
H1068 H 0.61755 0.92904 0.94198 0.0
N1069 N 0.69229 1.00309 0.95252 0.0
N1070 N 0.72821 0.04376 0.91413 0.0
C1071 C 0.71687 0.03493 0.95145 0.0
C1072 C 0.68816 0.99128 0.91444 0.0
C1073 C 0.71015 1.01649 0.8906 0.0
C1074 C 0.67222 1.0145 0.07574 0.0
O1075 O 0.68518 0.981 0.09156 0.0
H1076 H 0.72838 0.04944 0.97786 0.0
H1077 H 0.67263 0.96468 0.90492 0.0
O1078 O 0.72705 0.9412 1.00735 0.0
H1079 H 0.55919 0.88764 0.97635 0.0
H1080 H 0.71412 1.01359 0.85888 0.0
Cu1081 Cu 0.85472 0.07999 0.50079 0.0
N1082 N 0.90198 0.10666 0.48761 0.0
N1083 N 0.95585 0.14386 0.50084 0.0
C1084 C 0.91674 0.13805 0.50808 0.0
C1085 C 0.96571 0.11626 0.47325 0.0
C1086 C 0.93245 0.09317 0.46536 0.0
O1087 O 0.86797 0.04652 0.54698 0.0
C1088 C 0.80994 0.1528 0.48903 0.0
O1089 O 0.84009 0.16318 0.46696 0.0
H1090 H 0.90009 0.15373 0.5308 0.0
H1091 H 0.93155 0.06637 0.44741 0.0
N1092 N 0.83834 0.04181 0.46337 0.0
N1093 N 0.80329 1.0112 0.41583 0.0
C1094 C 0.81697 0.04655 0.42962 0.0
C1095 C 0.83803 1.00218 0.47057 0.0
C1096 C 0.81636 0.98315 0.44121 0.0
C1097 C 0.8928 0.05577 0.57428 0.0
O1098 O 0.90318 0.0932 0.57878 0.0
H1099 H 0.81003 0.07526 0.41654 0.0
H1100 H 0.85126 0.98816 0.49642 0.0
O1101 O 0.81105 0.11916 0.50687 0.0
H1102 H 0.99552 0.11092 0.46212 0.0
H1103 H 0.81058 0.95151 0.43869 0.0
loop_
_geom_bond_atom_site_label_1
_geom_bond_atom_site_label_2
_geom_bond_distance
_geom_bond_site_symmetry_2
_ccdc_geom_bond_type
Cu0 N1 1.999 . S
Cu0 O6 1.974 . S
Cu0 N11 1.985 . S
Cu0 O20 1.959 . S
N1 Cu0 1.999 . S
N1 C3 1.263 . S
N1 C5 1.389 . S
N2 C3 1.358 . S
N2 C4 1.400 . S
C3 N1 1.263 . S
C3 N2 1.358 . S
C3 H9 0.930 . S
C4 N2 1.400 . S
C4 C5 1.351 . S
C4 H21 0.930 . S
C5 N1 1.389 . S
C5 C4 1.351 . S
C5 H10 0.930 . S
O6 Cu0 1.974 . S
O6 C16 1.282 . S
C7 O8 1.261 . S
C7 O20 1.251 . S
O8 C7 1.261 . S
H9 C3 0.930 . S
H10 C5 0.930 . S
N11 Cu0 1.985 . S
N11 C13 1.335 . S
N11 C14 1.390 . S
N12 C13 1.345 . S
N12 C15 1.336 . S
C13 N11 1.335 . S
C13 N12 1.345 . S
C13 H18 0.930 . S
C14 N11 1.390 . S
C14 C15 1.346 . S
C14 H19 0.930 . S
C15 N12 1.336 . S
C15 C14 1.346 . S
C15 H22 0.929 . S
C16 O6 1.282 . S
C16 O17 1.216 . S
O17 C16 1.216 . S
H18 C13 0.930 . S
H19 C14 0.930 . S
O20 Cu0 1.959 . S
O20 C7 1.251 . S
H21 C4 0.930 . S
H22 C15 0.929 . S
Cu23 N24 1.999 . S
Cu23 O29 1.974 . S
Cu23 N34 1.985 . S
Cu23 O43 1.959 . S
N24 Cu23 1.999 . S
N24 C26 1.263 . S
N24 C28 1.389 . S
N25 C26 1.358 . S
N25 C27 1.400 . S
C26 N24 1.263 . S
C26 N25 1.358 . S
C26 H32 0.930 1_565 S
C27 N25 1.400 . S
C27 C28 1.351 . S
C27 H44 0.930 . S
C28 N24 1.389 . S
C28 C27 1.351 . S
C28 H33 0.930 . S
O29 Cu23 1.974 . S
O29 C39 1.282 1_565 S
C30 O31 1.261 . S
C30 O43 1.251 . S
O31 C30 1.261 . S
H32 C26 0.930 1_545 S
H33 C28 0.930 . S
N34 Cu23 1.985 . S
N34 C36 1.335 . S
N34 C37 1.390 1_655 S
N35 C36 1.345 1_455 S
N35 C38 1.336 . S
C36 N34 1.335 . S
C36 N35 1.345 1_655 S
C36 H41 0.930 . S
C37 N34 1.390 1_455 S
C37 C38 1.346 . S
C37 H42 0.930 . S
C38 N35 1.336 . S
C38 C37 1.346 . S
C38 H45 0.929 . S
C39 O29 1.282 1_545 S
C39 O40 1.216 . S
O40 C39 1.216 . S
H41 C36 0.930 . S
H42 C37 0.930 . S
O43 Cu23 1.959 . S
O43 C30 1.251 . S
H44 C27 0.930 . S
H45 C38 0.929 . S
Cu46 N47 1.999 . S
Cu46 O52 1.974 . S
Cu46 N57 1.985 . S
Cu46 O66 1.959 . S
N47 Cu46 1.999 . S
N47 C49 1.263 . S
N47 C51 1.389 . S
N48 C49 1.358 . S
N48 C50 1.400 . S
C49 N47 1.263 . S
C49 N48 1.358 . S
C49 H55 0.930 . S
C50 N48 1.400 . S
C50 C51 1.351 . S
C50 H67 0.930 . S
C51 N47 1.389 . S
C51 C50 1.351 . S
C51 H56 0.930 . S
O52 Cu46 1.974 . S
O52 C62 1.282 . S
C53 O54 1.261 . S
C53 O66 1.251 . S
O54 C53 1.261 . S
H55 C49 0.930 . S
H56 C51 0.930 . S
N57 Cu46 1.985 . S
N57 C59 1.335 . S
N57 C60 1.390 . S
N58 C59 1.345 . S
N58 C61 1.336 . S
C59 N57 1.335 . S
C59 N58 1.345 . S
C59 H64 0.930 . S
C60 N57 1.390 . S
C60 C61 1.346 . S
C60 H65 0.930 . S
C61 N58 1.336 . S
C61 C60 1.346 . S
C61 H68 0.929 . S
C62 O52 1.282 . S
C62 O63 1.216 . S
O63 C62 1.216 . S
H64 C59 0.930 . S
H65 C60 0.930 . S
O66 Cu46 1.959 . S
O66 C53 1.251 . S
H67 C50 0.930 . S
H68 C61 0.929 . S
Cu69 N70 1.999 . S
Cu69 O75 1.974 . S
Cu69 N80 1.985 . S
Cu69 O89 1.959 . S
N70 Cu69 1.999 . S
N70 C72 1.263 . S
N70 C74 1.389 . S
N71 C72 1.358 . S
N71 C73 1.400 . S
C72 N70 1.263 . S
C72 N71 1.358 . S
C72 H78 0.930 1_545 S
C73 N71 1.400 . S
C73 C74 1.351 . S
C73 H90 0.930 . S
C74 N70 1.389 . S
C74 C73 1.351 . S
C74 H79 0.930 . S
O75 Cu69 1.974 . S
O75 C85 1.282 1_545 S
C76 O77 1.261 . S
C76 O89 1.251 . S
O77 C76 1.261 . S
H78 C72 0.930 1_565 S
H79 C74 0.930 . S
N80 Cu69 1.985 . S
N80 C82 1.335 . S
N80 C83 1.390 . S
N81 C82 1.345 . S
N81 C84 1.336 . S
C82 N80 1.335 . S
C82 N81 1.345 . S
C82 H87 0.930 . S
C83 N80 1.390 . S
C83 C84 1.346 . S
C83 H88 0.930 . S
C84 N81 1.336 . S
C84 C83 1.346 . S
C84 H91 0.929 . S
C85 O75 1.282 1_565 S
C85 O86 1.216 . S
O86 C85 1.216 . S
H87 C82 0.930 . S
H88 C83 0.930 . S
O89 Cu69 1.959 . S
O89 C76 1.251 . S
H90 C73 0.930 . S
H91 C84 0.929 . S
Cu92 N93 1.999 . S
Cu92 O98 1.974 . S
Cu92 N103 1.985 . S
Cu92 O112 1.959 . S
N93 Cu92 1.999 . S
N93 C95 1.263 . S
N93 C97 1.389 . S
N94 C95 1.358 . S
N94 C96 1.400 . S
C95 N93 1.263 . S
C95 N94 1.358 . S
C95 H101 0.930 . S
C96 N94 1.400 . S
C96 C97 1.351 . S
C96 H113 0.930 . S
C97 N93 1.389 . S
C97 C96 1.351 . S
C97 H102 0.930 . S
O98 Cu92 1.974 . S
O98 C108 1.282 . S
C99 O100 1.261 . S
C99 O112 1.251 . S
O100 C99 1.261 . S
H101 C95 0.930 . S
H102 C97 0.930 . S
N103 Cu92 1.985 . S
N103 C105 1.335 . S
N103 C106 1.390 . S
N104 C105 1.345 . S
N104 C107 1.336 . S
C105 N103 1.335 . S
C105 N104 1.345 . S
C105 H110 0.930 . S
C106 N103 1.390 . S
C106 C107 1.346 . S
C106 H111 0.930 . S
C107 N104 1.336 . S
C107 C106 1.346 . S
C107 H114 0.929 . S
C108 O98 1.282 . S
C108 O109 1.216 . S
O109 C108 1.216 . S
H110 C105 0.930 . S
H111 C106 0.930 . S
O112 Cu92 1.959 . S
O112 C99 1.251 . S
H113 C96 0.930 . S
H114 C107 0.929 . S
Cu115 N116 1.999 . S
Cu115 O121 1.974 . S
Cu115 N126 1.985 . S
Cu115 O135 1.959 . S
N116 Cu115 1.999 . S
N116 C118 1.263 . S
N116 C120 1.389 . S
N117 C118 1.358 . S
N117 C119 1.400 . S
C118 N116 1.263 . S
C118 N117 1.358 . S
C118 H124 0.930 1_565 S
C119 N117 1.400 . S
C119 C120 1.351 . S
C119 H136 0.930 . S
C120 N116 1.389 . S
C120 C119 1.351 . S
C120 H125 0.930 . S
O121 Cu115 1.974 . S
O121 C131 1.282 1_565 S
C122 O123 1.261 . S
C122 O135 1.251 . S
O123 C122 1.261 . S
H124 C118 0.930 1_545 S
H125 C120 0.930 . S
N126 Cu115 1.985 . S
N126 C128 1.335 . S
N126 C129 1.390 . S
N127 C128 1.345 . S
N127 C130 1.336 . S
C128 N126 1.335 . S
C128 N127 1.345 . S
C128 H133 0.930 . S
C129 N126 1.390 . S
C129 C130 1.346 . S
C129 H134 0.930 . S
C130 N127 1.336 . S
C130 C129 1.346 . S
C130 H137 0.929 . S
C131 O121 1.282 1_545 S
C131 O132 1.216 . S
O132 C131 1.216 . S
H133 C128 0.930 . S
H134 C129 0.930 . S
O135 Cu115 1.959 . S
O135 C122 1.251 . S
H136 C119 0.930 . S
H137 C130 0.929 . S
Cu138 N139 1.999 . S
Cu138 O144 1.974 . S
Cu138 N149 1.985 . S
Cu138 O158 1.959 . S
N139 Cu138 1.999 . S
N139 C141 1.263 . S
N139 C143 1.389 . S
N140 C141 1.358 . S
N140 C142 1.400 . S
C141 N139 1.263 . S
C141 N140 1.358 . S
C141 H147 0.930 . S
C142 N140 1.400 . S
C142 C143 1.351 . S
C142 H159 0.930 . S
C143 N139 1.389 . S
C143 C142 1.351 . S
C143 H148 0.930 . S
O144 Cu138 1.974 . S
O144 C154 1.282 . S
C145 O146 1.261 . S
C145 O158 1.251 . S
O146 C145 1.261 . S
H147 C141 0.930 . S
H148 C143 0.930 . S
N149 Cu138 1.985 . S
N149 C151 1.335 . S
N149 C152 1.390 . S
N150 C151 1.345 . S
N150 C153 1.336 . S
C151 N149 1.335 . S
C151 N150 1.345 . S
C151 H156 0.930 . S
C152 N149 1.390 . S
C152 C153 1.346 . S
C152 H157 0.930 . S
C153 N150 1.336 . S
C153 C152 1.346 . S
C153 H160 0.929 . S
C154 O144 1.282 . S
C154 O155 1.216 . S
O155 C154 1.216 . S
H156 C151 0.930 . S
H157 C152 0.930 . S
O158 Cu138 1.959 . S
O158 C145 1.251 . S
H159 C142 0.930 . S
H160 C153 0.929 . S
Cu161 N162 1.999 . S
Cu161 O167 1.974 . S
Cu161 N172 1.985 . S
Cu161 O181 1.959 . S
N162 Cu161 1.999 . S
N162 C164 1.263 . S
N162 C166 1.389 . S
N163 C164 1.358 . S
N163 C165 1.400 . S
C164 N162 1.263 . S
C164 N163 1.358 . S
C164 H170 0.930 1_545 S
C165 N163 1.400 . S
C165 C166 1.351 . S
C165 H182 0.930 . S
C166 N162 1.389 . S
C166 C165 1.351 . S
C166 H171 0.930 . S
O167 Cu161 1.974 . S
O167 C177 1.282 1_545 S
C168 O169 1.261 . S
C168 O181 1.251 . S
O169 C168 1.261 . S
H170 C164 0.930 1_565 S
H171 C166 0.930 . S
N172 Cu161 1.985 . S
N172 C174 1.335 . S
N172 C175 1.390 1_655 S
N173 C174 1.345 1_455 S
N173 C176 1.336 . S
C174 N172 1.335 . S
C174 N173 1.345 1_655 S
C174 H179 0.930 . S
C175 N172 1.390 1_455 S
C175 C176 1.346 . S
C175 H180 0.930 . S
C176 N173 1.336 . S
C176 C175 1.346 . S
C176 H183 0.929 . S
C177 O167 1.282 1_565 S
C177 O178 1.216 . S
O178 C177 1.216 . S
H179 C174 0.930 . S
H180 C175 0.930 . S
O181 Cu161 1.959 . S
O181 C168 1.251 . S
H182 C165 0.930 . S
H183 C176 0.929 . S
Cu184 N185 1.999 . S
Cu184 O190 1.974 . S
Cu184 N195 1.985 . S
Cu184 O204 1.959 . S
N185 Cu184 1.999 . S
N185 C187 1.263 . S
N185 C189 1.389 . S
N186 C187 1.358 . S
N186 C188 1.400 . S
C187 N185 1.263 . S
C187 N186 1.358 . S
C187 H193 0.930 . S
C188 N186 1.400 . S
C188 C189 1.351 . S
C188 H205 0.930 . S
C189 N185 1.389 . S
C189 C188 1.351 . S
C189 H194 0.930 . S
O190 Cu184 1.974 . S
O190 C200 1.282 . S
C191 O192 1.261 . S
C191 O204 1.251 . S
O192 C191 1.261 . S
H193 C187 0.930 . S
H194 C189 0.930 . S
N195 Cu184 1.985 . S
N195 C197 1.335 . S
N195 C198 1.390 . S
N196 C197 1.345 . S
N196 C199 1.336 . S
C197 N195 1.335 . S
C197 N196 1.345 . S
C197 H202 0.930 . S
C198 N195 1.390 . S
C198 C199 1.346 . S
C198 H203 0.930 . S
C199 N196 1.336 . S
C199 C198 1.346 . S
C199 H206 0.929 . S
C200 O190 1.282 . S
C200 O201 1.216 . S
O201 C200 1.216 . S
H202 C197 0.930 . S
H203 C198 0.930 . S
O204 Cu184 1.959 . S
O204 C191 1.251 . S
H205 C188 0.930 . S
H206 C199 0.929 . S
Cu207 N208 1.999 . S
Cu207 O213 1.974 . S
Cu207 N218 1.985 . S
Cu207 O227 1.959 . S
N208 Cu207 1.999 . S
N208 C210 1.263 . S
N208 C212 1.389 . S
N209 C210 1.358 . S
N209 C211 1.400 . S
C210 N208 1.263 . S
C210 N209 1.358 . S
C210 H216 0.930 1_455 S
C211 N209 1.400 . S
C211 C212 1.351 . S
C211 H228 0.930 . S
C212 N208 1.389 . S
C212 C211 1.351 . S
C212 H217 0.930 . S
O213 Cu207 1.974 . S
O213 C223 1.282 1_455 S
C214 O215 1.261 . S
C214 O227 1.251 . S
O215 C214 1.261 . S
H216 C210 0.930 1_655 S
H217 C212 0.930 . S
N218 Cu207 1.985 . S
N218 C220 1.335 . S
N218 C221 1.390 . S
N219 C220 1.345 . S
N219 C222 1.336 . S
C220 N218 1.335 . S
C220 N219 1.345 . S
C220 H225 0.930 . S
C221 N218 1.390 . S
C221 C222 1.346 . S
C221 H226 0.930 . S
C222 N219 1.336 . S
C222 C221 1.346 . S
C222 H229 0.929 . S
C223 O213 1.282 1_655 S
C223 O224 1.216 . S
O224 C223 1.216 . S
H225 C220 0.930 . S
H226 C221 0.930 . S
O227 Cu207 1.959 . S
O227 C214 1.251 . S
H228 C211 0.930 . S
H229 C222 0.929 . S
Cu230 N231 1.999 . S
Cu230 O236 1.974 . S
Cu230 N241 1.985 . S
Cu230 O250 1.959 . S
N231 Cu230 1.999 . S
N231 C233 1.263 . S
N231 C235 1.389 . S
N232 C233 1.358 . S
N232 C234 1.400 . S
C233 N231 1.263 . S
C233 N232 1.358 . S
C233 H239 0.930 . S
C234 N232 1.400 . S
C234 C235 1.351 . S
C234 H251 0.930 . S
C235 N231 1.389 . S
C235 C234 1.351 . S
C235 H240 0.930 . S
O236 Cu230 1.974 . S
O236 C246 1.282 . S
C237 O238 1.261 . S
C237 O250 1.251 . S
O238 C237 1.261 . S
H239 C233 0.930 . S
H240 C235 0.930 . S
N241 Cu230 1.985 . S
N241 C243 1.335 . S
N241 C244 1.390 . S
N242 C243 1.345 . S
N242 C245 1.336 . S
C243 N241 1.335 . S
C243 N242 1.345 . S
C243 H248 0.930 . S
C244 N241 1.390 . S
C244 C245 1.346 . S
C244 H249 0.930 . S
C245 N242 1.336 . S
C245 C244 1.346 . S
C245 H252 0.929 . S
C246 O236 1.282 . S
C246 O247 1.216 . S
O247 C246 1.216 . S
H248 C243 0.930 . S
H249 C244 0.930 . S
O250 Cu230 1.959 . S
O250 C237 1.251 . S
H251 C234 0.930 . S
H252 C245 0.929 . S
Cu253 N254 1.999 . S
Cu253 O259 1.974 . S
Cu253 N264 1.985 . S
Cu253 O273 1.959 . S
N254 Cu253 1.999 . S
N254 C256 1.263 . S
N254 C258 1.389 . S
N255 C256 1.358 . S
N255 C257 1.400 . S
C256 N254 1.263 . S
C256 N255 1.358 . S
C256 H262 0.930 . S
C257 N255 1.400 . S
C257 C258 1.351 . S
C257 H274 0.930 . S
C258 N254 1.389 . S
C258 C257 1.351 . S
C258 H263 0.930 . S
O259 Cu253 1.974 . S
O259 C269 1.282 . S
C260 O261 1.261 . S
C260 O273 1.251 . S
O261 C260 1.261 . S
H262 C256 0.930 . S
H263 C258 0.930 . S
N264 Cu253 1.985 . S
N264 C266 1.335 . S
N264 C267 1.390 1_554 S
N265 C266 1.345 1_556 S
N265 C268 1.336 . S
C266 N264 1.335 . S
C266 N265 1.345 1_554 S
C266 H271 0.930 . S
C267 N264 1.390 1_556 S
C267 C268 1.346 . S
C267 H272 0.930 . S
C268 N265 1.336 . S
C268 C267 1.346 . S
C268 H275 0.929 . S
C269 O259 1.282 . S
C269 O270 1.216 . S
O270 C269 1.216 . S
H271 C266 0.930 . S
H272 C267 0.930 . S
O273 Cu253 1.959 . S
O273 C260 1.251 . S
H274 C257 0.930 . S
H275 C268 0.929 . S
Cu276 N277 1.999 . S
Cu276 O282 1.974 . S
Cu276 N287 1.985 . S
Cu276 O296 1.959 . S
N277 Cu276 1.999 . S
N277 C279 1.263 . S
N277 C281 1.389 . S
N278 C279 1.358 . S
N278 C280 1.400 . S
C279 N277 1.263 . S
C279 N278 1.358 . S
C279 H285 0.930 . S
C280 N278 1.400 . S
C280 C281 1.351 . S
C280 H297 0.930 . S
C281 N277 1.389 . S
C281 C280 1.351 . S
C281 H286 0.930 . S
O282 Cu276 1.974 . S
O282 C292 1.282 . S
C283 O284 1.261 . S
C283 O296 1.251 . S
O284 C283 1.261 . S
H285 C279 0.930 . S
H286 C281 0.930 . S
N287 Cu276 1.985 . S
N287 C289 1.335 . S
N287 C290 1.390 . S
N288 C289 1.345 . S
N288 C291 1.336 . S
C289 N287 1.335 . S
C289 N288 1.345 . S
C289 H294 0.930 . S
C290 N287 1.390 . S
C290 C291 1.346 . S
C290 H295 0.930 . S
C291 N288 1.336 . S
C291 C290 1.346 . S
C291 H298 0.929 . S
C292 O282 1.282 . S
C292 O293 1.216 . S
O293 C292 1.216 . S
H294 C289 0.930 . S
H295 C290 0.930 . S
O296 Cu276 1.959 . S
O296 C283 1.251 . S
H297 C280 0.930 . S
H298 C291 0.929 . S
Cu299 N300 1.999 . S
Cu299 O305 1.974 . S
Cu299 N310 1.985 . S
Cu299 O319 1.959 . S
N300 Cu299 1.999 . S
N300 C302 1.263 . S
N300 C304 1.389 . S
N301 C302 1.358 . S
N301 C303 1.400 . S
C302 N300 1.263 . S
C302 N301 1.358 . S
C302 H308 0.930 . S
C303 N301 1.400 . S
C303 C304 1.351 . S
C303 H320 0.930 . S
C304 N300 1.389 . S
C304 C303 1.351 . S
C304 H309 0.930 . S
O305 Cu299 1.974 . S
O305 C315 1.282 . S
C306 O307 1.261 . S
C306 O319 1.251 . S
O307 C306 1.261 . S
H308 C302 0.930 . S
H309 C304 0.930 . S
N310 Cu299 1.985 . S
N310 C312 1.335 . S
N310 C313 1.390 . S
N311 C312 1.345 . S
N311 C314 1.336 . S
C312 N310 1.335 . S
C312 N311 1.345 . S
C312 H317 0.930 . S
C313 N310 1.390 . S
C313 C314 1.346 . S
C313 H318 0.930 . S
C314 N311 1.336 . S
C314 C313 1.346 . S
C314 H321 0.929 . S
C315 O305 1.282 . S
C315 O316 1.216 . S
O316 C315 1.216 . S
H317 C312 0.930 . S
H318 C313 0.930 . S
O319 Cu299 1.959 . S
O319 C306 1.251 . S
H320 C303 0.930 . S
H321 C314 0.929 . S
Cu322 N323 1.999 . S
Cu322 O328 1.974 . S
Cu322 N333 1.985 . S
Cu322 O342 1.959 . S
N323 Cu322 1.999 . S
N323 C325 1.263 . S
N323 C327 1.389 . S
N324 C325 1.358 . S
N324 C326 1.400 . S
C325 N323 1.263 . S
C325 N324 1.358 . S
C325 H331 0.930 . S
C326 N324 1.400 . S
C326 C327 1.351 . S
C326 H343 0.930 . S
C327 N323 1.389 . S
C327 C326 1.351 . S
C327 H332 0.930 . S
O328 Cu322 1.974 . S
O328 C338 1.282 . S
C329 O330 1.261 . S
C329 O342 1.251 . S
O330 C329 1.261 . S
H331 C325 0.930 . S
H332 C327 0.930 . S
N333 Cu322 1.985 . S
N333 C335 1.335 . S
N333 C336 1.390 . S
N334 C335 1.345 . S
N334 C337 1.336 . S
C335 N333 1.335 . S
C335 N334 1.345 . S
C335 H340 0.930 . S
C336 N333 1.390 . S
C336 C337 1.346 . S
C336 H341 0.930 . S
C337 N334 1.336 . S
C337 C336 1.346 . S
C337 H344 0.929 . S
C338 O328 1.282 . S
C338 O339 1.216 . S
O339 C338 1.216 . S
H340 C335 0.930 . S
H341 C336 0.930 . S
O342 Cu322 1.959 . S
O342 C329 1.251 . S
H343 C326 0.930 . S
H344 C337 0.929 . S
Cu345 N346 1.999 . S
Cu345 O351 1.974 . S
Cu345 N356 1.985 . S
Cu345 O365 1.959 . S
N346 Cu345 1.999 . S
N346 C348 1.263 . S
N346 C350 1.389 . S
N347 C348 1.358 . S
N347 C349 1.400 . S
C348 N346 1.263 . S
C348 N347 1.358 . S
C348 H354 0.930 1_455 S
C349 N347 1.400 . S
C349 C350 1.351 . S
C349 H366 0.930 . S
C350 N346 1.389 . S
C350 C349 1.351 . S
C350 H355 0.930 . S
O351 Cu345 1.974 . S
O351 C361 1.282 1_455 S
C352 O353 1.261 . S
C352 O365 1.251 . S
O353 C352 1.261 . S
H354 C348 0.930 1_655 S
H355 C350 0.930 . S
N356 Cu345 1.985 . S
N356 C358 1.335 . S
N356 C359 1.390 1_556 S
N357 C358 1.345 1_554 S
N357 C360 1.336 . S
C358 N356 1.335 . S
C358 N357 1.345 1_556 S
C358 H363 0.930 . S
C359 N356 1.390 1_554 S
C359 C360 1.346 . S
C359 H364 0.930 . S
C360 N357 1.336 . S
C360 C359 1.346 . S
C360 H367 0.929 . S
C361 O351 1.282 1_655 S
C361 O362 1.216 . S
O362 C361 1.216 . S
H363 C358 0.930 . S
H364 C359 0.930 . S
O365 Cu345 1.959 . S
O365 C352 1.251 . S
H366 C349 0.930 . S
H367 C360 0.929 . S
Cu368 N369 1.999 . S
Cu368 O374 1.974 . S
Cu368 N379 1.985 . S
Cu368 O388 1.959 . S
N369 Cu368 1.999 . S
N369 C371 1.263 . S
N369 C373 1.389 . S
N370 C371 1.358 . S
N370 C372 1.400 . S
C371 N369 1.263 . S
C371 N370 1.358 . S
C371 H377 0.930 . S
C372 N370 1.400 . S
C372 C373 1.351 . S
C372 H389 0.930 . S
C373 N369 1.389 . S
C373 C372 1.351 . S
C373 H378 0.930 . S
O374 Cu368 1.974 . S
O374 C384 1.282 . S
C375 O376 1.261 . S
C375 O388 1.251 . S
O376 C375 1.261 . S
H377 C371 0.930 . S
H378 C373 0.930 . S
N379 Cu368 1.985 . S
N379 C381 1.335 . S
N379 C382 1.390 . S
N380 C381 1.345 . S
N380 C383 1.336 . S
C381 N379 1.335 . S
C381 N380 1.345 . S
C381 H386 0.930 . S
C382 N379 1.390 . S
C382 C383 1.346 . S
C382 H387 0.930 . S
C383 N380 1.336 . S
C383 C382 1.346 . S
C383 H390 0.929 . S
C384 O374 1.282 . S
C384 O385 1.216 . S
O385 C384 1.216 . S
H386 C381 0.930 . S
H387 C382 0.930 . S
O388 Cu368 1.959 . S
O388 C375 1.251 . S
H389 C372 0.930 . S
H390 C383 0.929 . S
Cu391 N392 1.999 . S
Cu391 O397 1.974 . S
Cu391 N402 1.985 . S
Cu391 O411 1.959 . S
N392 Cu391 1.999 . S
N392 C394 1.263 . S
N392 C396 1.389 . S
N393 C394 1.358 . S
N393 C395 1.400 . S
C394 N392 1.263 . S
C394 N393 1.358 . S
C394 H400 0.930 . S
C395 N393 1.400 . S
C395 C396 1.351 . S
C395 H412 0.930 . S
C396 N392 1.389 . S
C396 C395 1.351 . S
C396 H401 0.930 . S
O397 Cu391 1.974 . S
O397 C407 1.282 . S
C398 O399 1.261 . S
C398 O411 1.251 . S
O399 C398 1.261 . S
H400 C394 0.930 . S
H401 C396 0.930 . S
N402 Cu391 1.985 . S
N402 C404 1.335 . S
N402 C405 1.390 . S
N403 C404 1.345 . S
N403 C406 1.336 . S
C404 N402 1.335 . S
C404 N403 1.345 . S
C404 H409 0.930 . S
C405 N402 1.390 . S
C405 C406 1.346 . S
C405 H410 0.930 . S
C406 N403 1.336 . S
C406 C405 1.346 . S
C406 H413 0.929 . S
C407 O397 1.282 . S
C407 O408 1.216 . S
O408 C407 1.216 . S
H409 C404 0.930 . S
H410 C405 0.930 . S
O411 Cu391 1.959 . S
O411 C398 1.251 . S
H412 C395 0.930 . S
H413 C406 0.929 . S
Cu414 N415 1.999 . S
Cu414 O420 1.974 . S
Cu414 N425 1.985 . S
Cu414 O434 1.959 . S
N415 Cu414 1.999 . S
N415 C417 1.263 . S
N415 C419 1.389 . S
N416 C417 1.358 . S
N416 C418 1.400 . S
C417 N415 1.263 . S
C417 N416 1.358 . S
C417 H423 0.930 1_554 S
C418 N416 1.400 . S
C418 C419 1.351 . S
C418 H435 0.930 . S
C419 N415 1.389 . S
C419 C418 1.351 . S
C419 H424 0.930 . S
O420 Cu414 1.974 . S
O420 C430 1.282 1_554 S
C421 O422 1.261 . S
C421 O434 1.251 . S
O422 C421 1.261 . S
H423 C417 0.930 1_556 S
H424 C419 0.930 . S
N425 Cu414 1.985 . S
N425 C427 1.335 . S
N425 C428 1.390 . S
N426 C427 1.345 . S
N426 C429 1.336 . S
C427 N425 1.335 . S
C427 N426 1.345 . S
C427 H432 0.930 . S
C428 N425 1.390 . S
C428 C429 1.346 . S
C428 H433 0.930 . S
C429 N426 1.336 . S
C429 C428 1.346 . S
C429 H436 0.929 . S
C430 O420 1.282 1_556 S
C430 O431 1.216 . S
O431 C430 1.216 . S
H432 C427 0.930 . S
H433 C428 0.930 . S
O434 Cu414 1.959 . S
O434 C421 1.251 . S
H435 C418 0.930 . S
H436 C429 0.929 . S
Cu437 N438 1.999 . S
Cu437 O443 1.974 . S
Cu437 N448 1.985 . S
Cu437 O457 1.959 . S
N438 Cu437 1.999 . S
N438 C440 1.263 . S
N438 C442 1.389 . S
N439 C440 1.358 . S
N439 C441 1.400 . S
C440 N438 1.263 . S
C440 N439 1.358 . S
C440 H446 0.930 . S
C441 N439 1.400 . S
C441 C442 1.351 . S
C441 H458 0.930 . S
C442 N438 1.389 . S
C442 C441 1.351 . S
C442 H447 0.930 . S
O443 Cu437 1.974 . S
O443 C453 1.282 . S
C444 O445 1.261 . S
C444 O457 1.251 . S
O445 C444 1.261 . S
H446 C440 0.930 . S
H447 C442 0.930 . S
N448 Cu437 1.985 . S
N448 C450 1.335 . S
N448 C451 1.390 . S
N449 C450 1.345 . S
N449 C452 1.336 . S
C450 N448 1.335 . S
C450 N449 1.345 . S
C450 H455 0.930 . S
C451 N448 1.390 . S
C451 C452 1.346 . S
C451 H456 0.930 . S
C452 N449 1.336 . S
C452 C451 1.346 . S
C452 H459 0.929 . S
C453 O443 1.282 . S
C453 O454 1.216 . S
O454 C453 1.216 . S
H455 C450 0.930 . S
H456 C451 0.930 . S
O457 Cu437 1.959 . S
O457 C444 1.251 . S
H458 C441 0.930 . S
H459 C452 0.929 . S
Cu460 N461 1.999 . S
Cu460 O466 1.974 . S
Cu460 N471 1.985 . S
Cu460 O480 1.959 . S
N461 Cu460 1.999 . S
N461 C463 1.263 . S
N461 C465 1.389 . S
N462 C463 1.358 . S
N462 C464 1.400 . S
C463 N461 1.263 . S
C463 N462 1.358 . S
C463 H469 0.930 1_554 S
C464 N462 1.400 . S
C464 C465 1.351 . S
C464 H481 0.930 . S
C465 N461 1.389 . S
C465 C464 1.351 . S
C465 H470 0.930 . S
O466 Cu460 1.974 . S
O466 C476 1.282 1_554 S
C467 O468 1.261 . S
C467 O480 1.251 . S
O468 C467 1.261 . S
H469 C463 0.930 1_556 S
H470 C465 0.930 . S
N471 Cu460 1.985 . S
N471 C473 1.335 . S
N471 C474 1.390 1_565 S
N472 C473 1.345 1_545 S
N472 C475 1.336 . S
C473 N471 1.335 . S
C473 N472 1.345 1_565 S
C473 H478 0.930 . S
C474 N471 1.390 1_545 S
C474 C475 1.346 . S
C474 H479 0.930 . S
C475 N472 1.336 . S
C475 C474 1.346 . S
C475 H482 0.929 . S
C476 O466 1.282 1_556 S
C476 O477 1.216 . S
O477 C476 1.216 . S
H478 C473 0.930 . S
H479 C474 0.930 . S
O480 Cu460 1.959 . S
O480 C467 1.251 . S
H481 C464 0.930 . S
H482 C475 0.929 . S
Cu483 N484 1.999 . S
Cu483 O489 1.974 . S
Cu483 N494 1.985 . S
Cu483 O503 1.959 . S
N484 Cu483 1.999 . S
N484 C486 1.263 . S
N484 C488 1.389 . S
N485 C486 1.358 . S
N485 C487 1.400 . S
C486 N484 1.263 . S
C486 N485 1.358 . S
C486 H492 0.930 . S
C487 N485 1.400 . S
C487 C488 1.351 . S
C487 H504 0.930 . S
C488 N484 1.389 . S
C488 C487 1.351 . S
C488 H493 0.930 . S
O489 Cu483 1.974 . S
O489 C499 1.282 . S
C490 O491 1.261 . S
C490 O503 1.251 . S
O491 C490 1.261 . S
H492 C486 0.930 . S
H493 C488 0.930 . S
N494 Cu483 1.985 . S
N494 C496 1.335 . S
N494 C497 1.390 . S
N495 C496 1.345 . S
N495 C498 1.336 . S
C496 N494 1.335 . S
C496 N495 1.345 . S
C496 H501 0.930 . S
C497 N494 1.390 . S
C497 C498 1.346 . S
C497 H502 0.930 . S
C498 N495 1.336 . S
C498 C497 1.346 . S
C498 H505 0.929 . S
C499 O489 1.282 . S
C499 O500 1.216 . S
O500 C499 1.216 . S
H501 C496 0.930 . S
H502 C497 0.930 . S
O503 Cu483 1.959 . S
O503 C490 1.251 . S
H504 C487 0.930 . S
H505 C498 0.929 . S
Cu506 N507 1.999 . S
Cu506 O512 1.974 . S
Cu506 N517 1.985 . S
Cu506 O526 1.959 . S
N507 Cu506 1.999 . S
N507 C509 1.263 . S
N507 C511 1.389 . S
N508 C509 1.358 . S
N508 C510 1.400 . S
C509 N507 1.263 . S
C509 N508 1.358 . S
C509 H515 0.930 . S
C510 N508 1.400 . S
C510 C511 1.351 . S
C510 H527 0.930 . S
C511 N507 1.389 . S
C511 C510 1.351 . S
C511 H516 0.930 . S
O512 Cu506 1.974 . S
O512 C522 1.282 . S
C513 O514 1.261 . S
C513 O526 1.251 . S
O514 C513 1.261 . S
H515 C509 0.930 . S
H516 C511 0.930 . S
N517 Cu506 1.985 . S
N517 C519 1.335 . S
N517 C520 1.390 . S
N518 C519 1.345 . S
N518 C521 1.336 . S
C519 N517 1.335 . S
C519 N518 1.345 . S
C519 H524 0.930 . S
C520 N517 1.390 . S
C520 C521 1.346 . S
C520 H525 0.930 . S
C521 N518 1.336 . S
C521 C520 1.346 . S
C521 H528 0.929 . S
C522 O512 1.282 . S
C522 O523 1.216 . S
O523 C522 1.216 . S
H524 C519 0.930 . S
H525 C520 0.930 . S
O526 Cu506 1.959 . S
O526 C513 1.251 . S
H527 C510 0.930 . S
H528 C521 0.929 . S
Cu529 N530 1.999 . S
Cu529 O535 1.974 . S
Cu529 N540 1.985 . S
Cu529 O549 1.959 . S
N530 Cu529 1.999 . S
N530 C532 1.263 . S
N530 C534 1.389 . S
N531 C532 1.358 . S
N531 C533 1.400 . S
C532 N530 1.263 . S
C532 N531 1.358 . S
C532 H538 0.930 1_556 S
C533 N531 1.400 . S
C533 C534 1.351 . S
C533 H550 0.930 . S
C534 N530 1.389 . S
C534 C533 1.351 . S
C534 H539 0.930 . S
O535 Cu529 1.974 . S
O535 C545 1.282 1_556 S
C536 O537 1.261 . S
C536 O549 1.251 . S
O537 C536 1.261 . S
H538 C532 0.930 1_554 S
H539 C534 0.930 . S
N540 Cu529 1.985 . S
N540 C542 1.335 . S
N540 C543 1.390 . S
N541 C542 1.345 . S
N541 C544 1.336 . S
C542 N540 1.335 . S
C542 N541 1.345 . S
C542 H547 0.930 . S
C543 N540 1.390 . S
C543 C544 1.346 . S
C543 H548 0.930 . S
C544 N541 1.336 . S
C544 C543 1.346 . S
C544 H551 0.929 . S
C545 O535 1.282 1_554 S
C545 O546 1.216 . S
O546 C545 1.216 . S
H547 C542 0.930 . S
H548 C543 0.930 . S
O549 Cu529 1.959 . S
O549 C536 1.251 . S
H550 C533 0.930 . S
H551 C544 0.929 . S
Cu552 N553 1.999 . S
Cu552 O558 1.974 . S
Cu552 N563 1.985 . S
Cu552 O572 1.959 . S
N553 Cu552 1.999 . S
N553 C555 1.263 . S
N553 C557 1.389 . S
N554 C555 1.358 . S
N554 C556 1.400 . S
C555 N553 1.263 . S
C555 N554 1.358 . S
C555 H561 0.930 . S
C556 N554 1.400 . S
C556 C557 1.351 . S
C556 H573 0.930 . S
C557 N553 1.389 . S
C557 C556 1.351 . S
C557 H562 0.930 . S
O558 Cu552 1.974 . S
O558 C568 1.282 . S
C559 O560 1.261 . S
C559 O572 1.251 . S
O560 C559 1.261 . S
H561 C555 0.930 . S
H562 C557 0.930 . S
N563 Cu552 1.985 . S
N563 C565 1.335 . S
N563 C566 1.390 . S
N564 C565 1.345 . S
N564 C567 1.336 . S
C565 N563 1.335 . S
C565 N564 1.345 . S
C565 H570 0.930 . S
C566 N563 1.390 . S
C566 C567 1.346 . S
C566 H571 0.930 . S
C567 N564 1.336 . S
C567 C566 1.346 . S
C567 H574 0.929 . S
C568 O558 1.282 . S
C568 O569 1.216 . S
O569 C568 1.216 . S
H570 C565 0.930 . S
H571 C566 0.930 . S
O572 Cu552 1.959 . S
O572 C559 1.251 . S
H573 C556 0.930 . S
H574 C567 0.929 . S
Cu575 N576 1.999 . S
Cu575 O581 1.974 . S
Cu575 N586 1.985 . S
Cu575 O595 1.959 . S
N576 Cu575 1.999 . S
N576 C578 1.263 . S
N576 C580 1.389 . S
N577 C578 1.358 . S
N577 C579 1.400 . S
C578 N576 1.263 . S
C578 N577 1.358 . S
C578 H584 0.930 . S
C579 N577 1.400 . S
C579 C580 1.351 . S
C579 H596 0.930 . S
C580 N576 1.389 . S
C580 C579 1.351 . S
C580 H585 0.930 . S
O581 Cu575 1.974 . S
O581 C591 1.282 . S
C582 O583 1.261 . S
C582 O595 1.251 . S
O583 C582 1.261 . S
H584 C578 0.930 . S
H585 C580 0.930 . S
N586 Cu575 1.985 . S
N586 C588 1.335 . S
N586 C589 1.390 . S
N587 C588 1.345 . S
N587 C590 1.336 . S
C588 N586 1.335 . S
C588 N587 1.345 . S
C588 H593 0.930 . S
C589 N586 1.390 . S
C589 C590 1.346 . S
C589 H594 0.930 . S
C590 N587 1.336 . S
C590 C589 1.346 . S
C590 H597 0.929 . S
C591 O581 1.282 . S
C591 O592 1.216 . S
O592 C591 1.216 . S
H593 C588 0.930 . S
H594 C589 0.930 . S
O595 Cu575 1.959 . S
O595 C582 1.251 . S
H596 C579 0.930 . S
H597 C590 0.929 . S
Cu598 N599 1.999 . S
Cu598 O604 1.974 . S
Cu598 N609 1.985 . S
Cu598 O618 1.959 . S
N599 Cu598 1.999 . S
N599 C601 1.263 . S
N599 C603 1.389 . S
N600 C601 1.358 . S
N600 C602 1.400 . S
C601 N599 1.263 . S
C601 N600 1.358 . S
C601 H607 0.930 . S
C602 N600 1.400 . S
C602 C603 1.351 . S
C602 H619 0.930 . S
C603 N599 1.389 . S
C603 C602 1.351 . S
C603 H608 0.930 . S
O604 Cu598 1.974 . S
O604 C614 1.282 . S
C605 O606 1.261 . S
C605 O618 1.251 . S
O606 C605 1.261 . S
H607 C601 0.930 . S
H608 C603 0.930 . S
N609 Cu598 1.985 . S
N609 C611 1.335 . S
N609 C612 1.390 . S
N610 C611 1.345 . S
N610 C613 1.336 . S
C611 N609 1.335 . S
C611 N610 1.345 . S
C611 H616 0.930 . S
C612 N609 1.390 . S
C612 C613 1.346 . S
C612 H617 0.930 . S
C613 N610 1.336 . S
C613 C612 1.346 . S
C613 H620 0.929 . S
C614 O604 1.282 . S
C614 O615 1.216 . S
O615 C614 1.216 . S
H616 C611 0.930 . S
H617 C612 0.930 . S
O618 Cu598 1.959 . S
O618 C605 1.251 . S
H619 C602 0.930 . S
H620 C613 0.929 . S
Cu621 N622 1.999 . S
Cu621 O627 1.974 . S
Cu621 N632 1.985 . S
Cu621 O641 1.959 . S
N622 Cu621 1.999 . S
N622 C624 1.263 . S
N622 C626 1.389 . S
N623 C624 1.358 . S
N623 C625 1.400 . S
C624 N622 1.263 . S
C624 N623 1.358 . S
C624 H630 0.930 . S
C625 N623 1.400 . S
C625 C626 1.351 . S
C625 H642 0.930 . S
C626 N622 1.389 . S
C626 C625 1.351 . S
C626 H631 0.930 . S
O627 Cu621 1.974 . S
O627 C637 1.282 . S
C628 O629 1.261 . S
C628 O641 1.251 . S
O629 C628 1.261 . S
H630 C624 0.930 . S
H631 C626 0.930 . S
N632 Cu621 1.985 . S
N632 C634 1.335 . S
N632 C635 1.390 1_455 S
N633 C634 1.345 1_655 S
N633 C636 1.336 . S
C634 N632 1.335 . S
C634 N633 1.345 1_455 S
C634 H639 0.930 . S
C635 N632 1.390 1_655 S
C635 C636 1.346 . S
C635 H640 0.930 . S
C636 N633 1.336 . S
C636 C635 1.346 . S
C636 H643 0.929 . S
C637 O627 1.282 . S
C637 O638 1.216 . S
O638 C637 1.216 . S
H639 C634 0.930 . S
H640 C635 0.930 . S
O641 Cu621 1.959 . S
O641 C628 1.251 . S
H642 C625 0.930 . S
H643 C636 0.929 . S
Cu644 N645 1.999 . S
Cu644 O650 1.974 . S
Cu644 N655 1.985 . S
Cu644 O664 1.959 . S
N645 Cu644 1.999 . S
N645 C647 1.263 . S
N645 C649 1.389 . S
N646 C647 1.358 . S
N646 C648 1.400 . S
C647 N645 1.263 . S
C647 N646 1.358 . S
C647 H653 0.930 . S
C648 N646 1.400 . S
C648 C649 1.351 . S
C648 H665 0.930 . S
C649 N645 1.389 . S
C649 C648 1.351 . S
C649 H654 0.930 . S
O650 Cu644 1.974 . S
O650 C660 1.282 . S
C651 O652 1.261 . S
C651 O664 1.251 . S
O652 C651 1.261 . S
H653 C647 0.930 . S
H654 C649 0.930 . S
N655 Cu644 1.985 . S
N655 C657 1.335 . S
N655 C658 1.390 . S
N656 C657 1.345 . S
N656 C659 1.336 . S
C657 N655 1.335 . S
C657 N656 1.345 . S
C657 H662 0.930 . S
C658 N655 1.390 . S
C658 C659 1.346 . S
C658 H663 0.930 . S
C659 N656 1.336 . S
C659 C658 1.346 . S
C659 H666 0.929 . S
C660 O650 1.282 . S
C660 O661 1.216 . S
O661 C660 1.216 . S
H662 C657 0.930 . S
H663 C658 0.930 . S
O664 Cu644 1.959 . S
O664 C651 1.251 . S
H665 C648 0.930 . S
H666 C659 0.929 . S
Cu667 N668 1.999 . S
Cu667 O673 1.974 . S
Cu667 N678 1.985 . S
Cu667 O687 1.959 . S
N668 Cu667 1.999 . S
N668 C670 1.263 . S
N668 C672 1.389 . S
N669 C670 1.358 . S
N669 C671 1.400 . S
C670 N668 1.263 . S
C670 N669 1.358 . S
C670 H676 0.930 . S
C671 N669 1.400 . S
C671 C672 1.351 . S
C671 H688 0.930 . S
C672 N668 1.389 . S
C672 C671 1.351 . S
C672 H677 0.930 . S
O673 Cu667 1.974 . S
O673 C683 1.282 . S
C674 O675 1.261 . S
C674 O687 1.251 . S
O675 C674 1.261 . S
H676 C670 0.930 . S
H677 C672 0.930 . S
N678 Cu667 1.985 . S
N678 C680 1.335 . S
N678 C681 1.390 1_455 S
N679 C680 1.345 1_655 S
N679 C682 1.336 . S
C680 N678 1.335 . S
C680 N679 1.345 1_455 S
C680 H685 0.930 . S
C681 N678 1.390 1_655 S
C681 C682 1.346 . S
C681 H686 0.930 . S
C682 N679 1.336 . S
C682 C681 1.346 . S
C682 H689 0.929 . S
C683 O673 1.282 . S
C683 O684 1.216 . S
O684 C683 1.216 . S
H685 C680 0.930 . S
H686 C681 0.930 . S
O687 Cu667 1.959 . S
O687 C674 1.251 . S
H688 C671 0.930 . S
H689 C682 0.929 . S
Cu690 N691 1.999 . S
Cu690 O696 1.974 . S
Cu690 N701 1.985 . S
Cu690 O710 1.959 . S
N691 Cu690 1.999 . S
N691 C693 1.263 . S
N691 C695 1.389 . S
N692 C693 1.358 . S
N692 C694 1.400 . S
C693 N691 1.263 . S
C693 N692 1.358 . S
C693 H699 0.930 . S
C694 N692 1.400 . S
C694 C695 1.351 . S
C694 H711 0.930 . S
C695 N691 1.389 . S
C695 C694 1.351 . S
C695 H700 0.930 . S
O696 Cu690 1.974 . S
O696 C706 1.282 . S
C697 O698 1.261 . S
C697 O710 1.251 . S
O698 C697 1.261 . S
H699 C693 0.930 . S
H700 C695 0.930 . S
N701 Cu690 1.985 . S
N701 C703 1.335 . S
N701 C704 1.390 . S
N702 C703 1.345 . S
N702 C705 1.336 . S
C703 N701 1.335 . S
C703 N702 1.345 . S
C703 H708 0.930 . S
C704 N701 1.390 . S
C704 C705 1.346 . S
C704 H709 0.930 . S
C705 N702 1.336 . S
C705 C704 1.346 . S
C705 H712 0.929 . S
C706 O696 1.282 . S
C706 O707 1.216 . S
O707 C706 1.216 . S
H708 C703 0.930 . S
H709 C704 0.930 . S
O710 Cu690 1.959 . S
O710 C697 1.251 . S
H711 C694 0.930 . S
H712 C705 0.929 . S
Cu713 N714 1.999 . S
Cu713 O719 1.974 . S
Cu713 N724 1.985 . S
Cu713 O733 1.959 . S
N714 Cu713 1.999 . S
N714 C716 1.263 . S
N714 C718 1.389 . S
N715 C716 1.358 . S
N715 C717 1.400 . S
C716 N714 1.263 . S
C716 N715 1.358 . S
C716 H722 0.930 . S
C717 N715 1.400 . S
C717 C718 1.351 . S
C717 H734 0.930 . S
C718 N714 1.389 . S
C718 C717 1.351 . S
C718 H723 0.930 . S
O719 Cu713 1.974 . S
O719 C729 1.282 . S
C720 O721 1.261 . S
C720 O733 1.251 . S
O721 C720 1.261 . S
H722 C716 0.930 . S
H723 C718 0.930 . S
N724 Cu713 1.985 . S
N724 C726 1.335 . S
N724 C727 1.390 . S
N725 C726 1.345 . S
N725 C728 1.336 . S
C726 N724 1.335 . S
C726 N725 1.345 . S
C726 H731 0.930 . S
C727 N724 1.390 . S
C727 C728 1.346 . S
C727 H732 0.930 . S
C728 N725 1.336 . S
C728 C727 1.346 . S
C728 H735 0.929 . S
C729 O719 1.282 . S
C729 O730 1.216 . S
O730 C729 1.216 . S
H731 C726 0.930 . S
H732 C727 0.930 . S
O733 Cu713 1.959 . S
O733 C720 1.251 . S
H734 C717 0.930 . S
H735 C728 0.929 . S
Cu736 N737 1.999 . S
Cu736 O742 1.974 . S
Cu736 N747 1.985 . S
Cu736 O756 1.959 . S
N737 Cu736 1.999 . S
N737 C739 1.263 . S
N737 C741 1.389 . S
N738 C739 1.358 . S
N738 C740 1.400 . S
C739 N737 1.263 . S
C739 N738 1.358 . S
C739 H745 0.930 . S
C740 N738 1.400 . S
C740 C741 1.351 . S
C740 H757 0.930 . S
C741 N737 1.389 . S
C741 C740 1.351 . S
C741 H746 0.930 . S
O742 Cu736 1.974 . S
O742 C752 1.282 . S
C743 O744 1.261 . S
C743 O756 1.251 . S
O744 C743 1.261 . S
H745 C739 0.930 . S
H746 C741 0.930 . S
N747 Cu736 1.985 . S
N747 C749 1.335 . S
N747 C750 1.390 . S
N748 C749 1.345 . S
N748 C751 1.336 . S
C749 N747 1.335 . S
C749 N748 1.345 . S
C749 H754 0.930 . S
C750 N747 1.390 . S
C750 C751 1.346 . S
C750 H755 0.930 . S
C751 N748 1.336 . S
C751 C750 1.346 . S
C751 H758 0.929 . S
C752 O742 1.282 . S
C752 O753 1.216 . S
O753 C752 1.216 . S
H754 C749 0.930 . S
H755 C750 0.930 . S
O756 Cu736 1.959 . S
O756 C743 1.251 . S
H757 C740 0.930 . S
H758 C751 0.929 . S
Cu759 N760 1.999 . S
Cu759 O765 1.974 . S
Cu759 N770 1.985 . S
Cu759 O779 1.959 . S
N760 Cu759 1.999 . S
N760 C762 1.263 . S
N760 C764 1.389 . S
N761 C762 1.358 . S
N761 C763 1.400 . S
C762 N760 1.263 . S
C762 N761 1.358 . S
C762 H768 0.930 . S
C763 N761 1.400 . S
C763 C764 1.351 . S
C763 H780 0.930 . S
C764 N760 1.389 . S
C764 C763 1.351 . S
C764 H769 0.930 . S
O765 Cu759 1.974 . S
O765 C775 1.282 . S
C766 O767 1.261 . S
C766 O779 1.251 . S
O767 C766 1.261 . S
H768 C762 0.930 . S
H769 C764 0.930 . S
N770 Cu759 1.985 . S
N770 C772 1.335 . S
N770 C773 1.390 1_554 S
N771 C772 1.345 1_556 S
N771 C774 1.336 . S
C772 N770 1.335 . S
C772 N771 1.345 1_554 S
C772 H777 0.930 . S
C773 N770 1.390 1_556 S
C773 C774 1.346 . S
C773 H778 0.930 . S
C774 N771 1.336 . S
C774 C773 1.346 . S
C774 H781 0.929 . S
C775 O765 1.282 . S
C775 O776 1.216 . S
O776 C775 1.216 . S
H777 C772 0.930 . S
H778 C773 0.930 . S
O779 Cu759 1.959 . S
O779 C766 1.251 . S
H780 C763 0.930 . S
H781 C774 0.929 . S
Cu782 N783 1.999 . S
Cu782 O788 1.974 . S
Cu782 N793 1.985 . S
Cu782 O802 1.959 . S
N783 Cu782 1.999 . S
N783 C785 1.263 . S
N783 C787 1.389 . S
N784 C785 1.358 . S
N784 C786 1.400 . S
C785 N783 1.263 . S
C785 N784 1.358 . S
C785 H791 0.930 . S
C786 N784 1.400 . S
C786 C787 1.351 . S
C786 H803 0.930 . S
C787 N783 1.389 . S
C787 C786 1.351 . S
C787 H792 0.930 . S
O788 Cu782 1.974 . S
O788 C798 1.282 . S
C789 O790 1.261 . S
C789 O802 1.251 . S
O790 C789 1.261 . S
H791 C785 0.930 . S
H792 C787 0.930 . S
N793 Cu782 1.985 . S
N793 C795 1.335 . S
N793 C796 1.390 . S
N794 C795 1.345 . S
N794 C797 1.336 . S
C795 N793 1.335 . S
C795 N794 1.345 . S
C795 H800 0.930 . S
C796 N793 1.390 . S
C796 C797 1.346 . S
C796 H801 0.930 . S
C797 N794 1.336 . S
C797 C796 1.346 . S
C797 H804 0.929 . S
C798 O788 1.282 . S
C798 O799 1.216 . S
O799 C798 1.216 . S
H800 C795 0.930 . S
H801 C796 0.930 . S
O802 Cu782 1.959 . S
O802 C789 1.251 . S
H803 C786 0.930 . S
H804 C797 0.929 . S
Cu805 N806 1.999 . S
Cu805 O811 1.974 . S
Cu805 N816 1.985 . S
Cu805 O825 1.959 . S
N806 Cu805 1.999 . S
N806 C808 1.263 . S
N806 C810 1.389 . S
N807 C808 1.358 . S
N807 C809 1.400 . S
C808 N806 1.263 . S
C808 N807 1.358 . S
C808 H814 0.930 1_655 S
C809 N807 1.400 . S
C809 C810 1.351 . S
C809 H826 0.930 . S
C810 N806 1.389 . S
C810 C809 1.351 . S
C810 H815 0.930 . S
O811 Cu805 1.974 . S
O811 C821 1.282 1_655 S
C812 O813 1.261 . S
C812 O825 1.251 . S
O813 C812 1.261 . S
H814 C808 0.930 1_455 S
H815 C810 0.930 . S
N816 Cu805 1.985 . S
N816 C818 1.335 . S
N816 C819 1.390 . S
N817 C818 1.345 . S
N817 C820 1.336 . S
C818 N816 1.335 . S
C818 N817 1.345 . S
C818 H823 0.930 . S
C819 N816 1.390 . S
C819 C820 1.346 . S
C819 H824 0.930 . S
C820 N817 1.336 . S
C820 C819 1.346 . S
C820 H827 0.929 . S
C821 O811 1.282 1_455 S
C821 O822 1.216 . S
O822 C821 1.216 . S
H823 C818 0.930 . S
H824 C819 0.930 . S
O825 Cu805 1.959 . S
O825 C812 1.251 . S
H826 C809 0.930 . S
H827 C820 0.929 . S
Cu828 N829 1.999 . S
Cu828 O834 1.974 . S
Cu828 N839 1.985 . S
Cu828 O848 1.959 . S
N829 Cu828 1.999 . S
N829 C831 1.263 . S
N829 C833 1.389 . S
N830 C831 1.358 . S
N830 C832 1.400 . S
C831 N829 1.263 . S
C831 N830 1.358 . S
C831 H837 0.930 . S
C832 N830 1.400 . S
C832 C833 1.351 . S
C832 H849 0.930 . S
C833 N829 1.389 . S
C833 C832 1.351 . S
C833 H838 0.930 . S
O834 Cu828 1.974 . S
O834 C844 1.282 . S
C835 O836 1.261 . S
C835 O848 1.251 . S
O836 C835 1.261 . S
H837 C831 0.930 . S
H838 C833 0.930 . S
N839 Cu828 1.985 . S
N839 C841 1.335 . S
N839 C842 1.390 . S
N840 C841 1.345 . S
N840 C843 1.336 . S
C841 N839 1.335 . S
C841 N840 1.345 . S
C841 H846 0.930 . S
C842 N839 1.390 . S
C842 C843 1.346 . S
C842 H847 0.930 . S
C843 N840 1.336 . S
C843 C842 1.346 . S
C843 H850 0.929 . S
C844 O834 1.282 . S
C844 O845 1.216 . S
O845 C844 1.216 . S
H846 C841 0.930 . S
H847 C842 0.930 . S
O848 Cu828 1.959 . S
O848 C835 1.251 . S
H849 C832 0.930 . S
H850 C843 0.929 . S
Cu851 N852 1.999 . S
Cu851 O857 1.974 . S
Cu851 N862 1.985 . S
Cu851 O871 1.959 . S
N852 Cu851 1.999 . S
N852 C854 1.263 . S
N852 C856 1.389 . S
N853 C854 1.358 . S
N853 C855 1.400 . S
C854 N852 1.263 . S
C854 N853 1.358 . S
C854 H860 0.930 1_655 S
C855 N853 1.400 . S
C855 C856 1.351 . S
C855 H872 0.930 . S
C856 N852 1.389 . S
C856 C855 1.351 . S
C856 H861 0.930 . S
O857 Cu851 1.974 . S
O857 C867 1.282 1_655 S
C858 O859 1.261 . S
C858 O871 1.251 . S
O859 C858 1.261 . S
H860 C854 0.930 1_455 S
H861 C856 0.930 . S
N862 Cu851 1.985 . S
N862 C864 1.335 . S
N862 C865 1.390 1_556 S
N863 C864 1.345 1_554 S
N863 C866 1.336 . S
C864 N862 1.335 . S
C864 N863 1.345 1_556 S
C864 H869 0.930 . S
C865 N862 1.390 1_554 S
C865 C866 1.346 . S
C865 H870 0.930 . S
C866 N863 1.336 . S
C866 C865 1.346 . S
C866 H873 0.929 . S
C867 O857 1.282 1_455 S
C867 O868 1.216 . S
O868 C867 1.216 . S
H869 C864 0.930 . S
H870 C865 0.930 . S
O871 Cu851 1.959 . S
O871 C858 1.251 . S
H872 C855 0.930 . S
H873 C866 0.929 . S
Cu874 N875 1.999 . S
Cu874 O880 1.974 . S
Cu874 N885 1.985 . S
Cu874 O894 1.959 . S
N875 Cu874 1.999 . S
N875 C877 1.263 . S
N875 C879 1.389 . S
N876 C877 1.358 . S
N876 C878 1.400 . S
C877 N875 1.263 . S
C877 N876 1.358 . S
C877 H883 0.930 . S
C878 N876 1.400 . S
C878 C879 1.351 . S
C878 H895 0.930 . S
C879 N875 1.389 . S
C879 C878 1.351 . S
C879 H884 0.930 . S
O880 Cu874 1.974 . S
O880 C890 1.282 . S
C881 O882 1.261 . S
C881 O894 1.251 . S
O882 C881 1.261 . S
H883 C877 0.930 . S
H884 C879 0.930 . S
N885 Cu874 1.985 . S
N885 C887 1.335 . S
N885 C888 1.390 . S
N886 C887 1.345 . S
N886 C889 1.336 . S
C887 N885 1.335 . S
C887 N886 1.345 . S
C887 H892 0.930 . S
C888 N885 1.390 . S
C888 C889 1.346 . S
C888 H893 0.930 . S
C889 N886 1.336 . S
C889 C888 1.346 . S
C889 H896 0.929 . S
C890 O880 1.282 . S
C890 O891 1.216 . S
O891 C890 1.216 . S
H892 C887 0.930 . S
H893 C888 0.930 . S
O894 Cu874 1.959 . S
O894 C881 1.251 . S
H895 C878 0.930 . S
H896 C889 0.929 . S
Cu897 N898 1.999 . S
Cu897 O903 1.974 . S
Cu897 N908 1.985 . S
Cu897 O917 1.959 . S
N898 Cu897 1.999 . S
N898 C900 1.263 . S
N898 C902 1.389 . S
N899 C900 1.358 . S
N899 C901 1.400 . S
C900 N898 1.263 . S
C900 N899 1.358 . S
C900 H906 0.930 . S
C901 N899 1.400 . S
C901 C902 1.351 . S
C901 H918 0.930 . S
C902 N898 1.389 . S
C902 C901 1.351 . S
C902 H907 0.930 . S
O903 Cu897 1.974 . S
O903 C913 1.282 . S
C904 O905 1.261 . S
C904 O917 1.251 . S
O905 C904 1.261 . S
H906 C900 0.930 . S
H907 C902 0.930 . S
N908 Cu897 1.985 . S
N908 C910 1.335 . S
N908 C911 1.390 . S
N909 C910 1.345 . S
N909 C912 1.336 . S
C910 N908 1.335 . S
C910 N909 1.345 . S
C910 H915 0.930 . S
C911 N908 1.390 . S
C911 C912 1.346 . S
C911 H916 0.930 . S
C912 N909 1.336 . S
C912 C911 1.346 . S
C912 H919 0.929 . S
C913 O903 1.282 . S
C913 O914 1.216 . S
O914 C913 1.216 . S
H915 C910 0.930 . S
H916 C911 0.930 . S
O917 Cu897 1.959 . S
O917 C904 1.251 . S
H918 C901 0.930 . S
H919 C912 0.929 . S
Cu920 N921 1.999 . S
Cu920 O926 1.974 . S
Cu920 N931 1.985 . S
Cu920 O940 1.959 . S
N921 Cu920 1.999 . S
N921 C923 1.263 . S
N921 C925 1.389 . S
N922 C923 1.358 . S
N922 C924 1.400 . S
C923 N921 1.263 . S
C923 N922 1.358 . S
C923 H929 0.930 . S
C924 N922 1.400 . S
C924 C925 1.351 . S
C924 H941 0.930 . S
C925 N921 1.389 . S
C925 C924 1.351 . S
C925 H930 0.930 . S
O926 Cu920 1.974 . S
O926 C936 1.282 . S
C927 O928 1.261 . S
C927 O940 1.251 . S
O928 C927 1.261 . S
H929 C923 0.930 . S
H930 C925 0.930 . S
N931 Cu920 1.985 . S
N931 C933 1.335 . S
N931 C934 1.390 . S
N932 C933 1.345 . S
N932 C935 1.336 . S
C933 N931 1.335 . S
C933 N932 1.345 . S
C933 H938 0.930 . S
C934 N931 1.390 . S
C934 C935 1.346 . S
C934 H939 0.930 . S
C935 N932 1.336 . S
C935 C934 1.346 . S
C935 H942 0.929 . S
C936 O926 1.282 . S
C936 O937 1.216 . S
O937 C936 1.216 . S
H938 C933 0.930 . S
H939 C934 0.930 . S
O940 Cu920 1.959 . S
O940 C927 1.251 . S
H941 C924 0.930 . S
H942 C935 0.929 . S
Cu943 N944 1.999 . S
Cu943 O949 1.974 . S
Cu943 N954 1.985 . S
Cu943 O963 1.959 . S
N944 Cu943 1.999 . S
N944 C946 1.263 . S
N944 C948 1.389 . S
N945 C946 1.358 . S
N945 C947 1.400 . S
C946 N944 1.263 . S
C946 N945 1.358 . S
C946 H952 0.930 . S
C947 N945 1.400 . S
C947 C948 1.351 . S
C947 H964 0.930 . S
C948 N944 1.389 . S
C948 C947 1.351 . S
C948 H953 0.930 . S
O949 Cu943 1.974 . S
O949 C959 1.282 . S
C950 O951 1.261 . S
C950 O963 1.251 . S
O951 C950 1.261 . S
H952 C946 0.930 . S
H953 C948 0.930 . S
N954 Cu943 1.985 . S
N954 C956 1.335 . S
N954 C957 1.390 . S
N955 C956 1.345 . S
N955 C958 1.336 . S
C956 N954 1.335 . S
C956 N955 1.345 . S
C956 H961 0.930 . S
C957 N954 1.390 . S
C957 C958 1.346 . S
C957 H962 0.930 . S
C958 N955 1.336 . S
C958 C957 1.346 . S
C958 H965 0.929 . S
C959 O949 1.282 . S
C959 O960 1.216 . S
O960 C959 1.216 . S
H961 C956 0.930 . S
H962 C957 0.930 . S
O963 Cu943 1.959 . S
O963 C950 1.251 . S
H964 C947 0.930 . S
H965 C958 0.929 . S
Cu966 N967 1.999 . S
Cu966 O972 1.974 . S
Cu966 N977 1.985 . S
Cu966 O986 1.959 . S
N967 Cu966 1.999 . S
N967 C969 1.263 . S
N967 C971 1.389 . S
N968 C969 1.358 . S
N968 C970 1.400 . S
C969 N967 1.263 . S
C969 N968 1.358 . S
C969 H975 0.930 . S
C970 N968 1.400 . S
C970 C971 1.351 . S
C970 H987 0.930 . S
C971 N967 1.389 . S
C971 C970 1.351 . S
C971 H976 0.930 . S
O972 Cu966 1.974 . S
O972 C982 1.282 . S
C973 O974 1.261 . S
C973 O986 1.251 . S
O974 C973 1.261 . S
H975 C969 0.930 . S
H976 C971 0.930 . S
N977 Cu966 1.985 . S
N977 C979 1.335 . S
N977 C980 1.390 1_545 S
N978 C979 1.345 1_565 S
N978 C981 1.336 . S
C979 N977 1.335 . S
C979 N978 1.345 1_545 S
C979 H984 0.930 . S
C980 N977 1.390 1_565 S
C980 C981 1.346 . S
C980 H985 0.930 . S
C981 N978 1.336 . S
C981 C980 1.346 . S
C981 H988 0.929 . S
C982 O972 1.282 . S
C982 O983 1.216 . S
O983 C982 1.216 . S
H984 C979 0.930 . S
H985 C980 0.930 . S
O986 Cu966 1.959 . S
O986 C973 1.251 . S
H987 C970 0.930 . S
H988 C981 0.929 . S
Cu989 N990 1.999 . S
Cu989 O995 1.974 . S
Cu989 N1000 1.985 . S
Cu989 O1009 1.959 . S
N990 Cu989 1.999 . S
N990 C992 1.263 . S
N990 C994 1.389 . S
N991 C992 1.358 . S
N991 C993 1.400 . S
C992 N990 1.263 . S
C992 N991 1.358 . S
C992 H998 0.930 . S
C993 N991 1.400 . S
C993 C994 1.351 . S
C993 H1010 0.930 . S
C994 N990 1.389 . S
C994 C993 1.351 . S
C994 H999 0.930 . S
O995 Cu989 1.974 . S
O995 C1005 1.282 . S
C996 O997 1.261 . S
C996 O1009 1.251 . S
O997 C996 1.261 . S
H998 C992 0.930 . S
H999 C994 0.930 . S
N1000 Cu989 1.985 . S
N1000 C1002 1.335 . S
N1000 C1003 1.390 . S
N1001 C1002 1.345 . S
N1001 C1004 1.336 . S
C1002 N1000 1.335 . S
C1002 N1001 1.345 . S
C1002 H1007 0.930 . S
C1003 N1000 1.390 . S
C1003 C1004 1.346 . S
C1003 H1008 0.930 . S
C1004 N1001 1.336 . S
C1004 C1003 1.346 . S
C1004 H1011 0.929 . S
C1005 O995 1.282 . S
C1005 O1006 1.216 . S
O1006 C1005 1.216 . S
H1007 C1002 0.930 . S
H1008 C1003 0.930 . S
O1009 Cu989 1.959 . S
O1009 C996 1.251 . S
H1010 C993 0.930 . S
H1011 C1004 0.929 . S
Cu1012 N1013 1.999 . S
Cu1012 O1018 1.974 . S
Cu1012 N1023 1.985 . S
Cu1012 O1032 1.959 . S
N1013 Cu1012 1.999 . S
N1013 C1015 1.263 . S
N1013 C1017 1.389 . S
N1014 C1015 1.358 . S
N1014 C1016 1.400 . S
C1015 N1013 1.263 . S
C1015 N1014 1.358 . S
C1015 H1021 0.930 . S
C1016 N1014 1.400 . S
C1016 C1017 1.351 . S
C1016 H1033 0.930 . S
C1017 N1013 1.389 . S
C1017 C1016 1.351 . S
C1017 H1022 0.930 . S
O1018 Cu1012 1.974 . S
O1018 C1028 1.282 . S
C1019 O1020 1.261 . S
C1019 O1032 1.251 . S
O1020 C1019 1.261 . S
H1021 C1015 0.930 . S
H1022 C1017 0.930 . S
N1023 Cu1012 1.985 . S
N1023 C1025 1.335 . S
N1023 C1026 1.390 . S
N1024 C1025 1.345 . S
N1024 C1027 1.336 . S
C1025 N1023 1.335 . S
C1025 N1024 1.345 . S
C1025 H1030 0.930 . S
C1026 N1023 1.390 . S
C1026 C1027 1.346 . S
C1026 H1031 0.930 . S
C1027 N1024 1.336 . S
C1027 C1026 1.346 . S
C1027 H1034 0.929 . S
C1028 O1018 1.282 . S
C1028 O1029 1.216 . S
O1029 C1028 1.216 . S
H1030 C1025 0.930 . S
H1031 C1026 0.930 . S
O1032 Cu1012 1.959 . S
O1032 C1019 1.251 . S
H1033 C1016 0.930 . S
H1034 C1027 0.929 . S
Cu1035 N1036 1.999 . S
Cu1035 O1041 1.974 . S
Cu1035 N1046 1.985 . S
Cu1035 O1055 1.959 . S
N1036 Cu1035 1.999 . S
N1036 C1038 1.263 . S
N1036 C1040 1.389 . S
N1037 C1038 1.358 . S
N1037 C1039 1.400 . S
C1038 N1036 1.263 . S
C1038 N1037 1.358 . S
C1038 H1044 0.930 . S
C1039 N1037 1.400 . S
C1039 C1040 1.351 . S
C1039 H1056 0.930 . S
C1040 N1036 1.389 . S
C1040 C1039 1.351 . S
C1040 H1045 0.930 . S
O1041 Cu1035 1.974 . S
O1041 C1051 1.282 . S
C1042 O1043 1.261 . S
C1042 O1055 1.251 . S
O1043 C1042 1.261 . S
H1044 C1038 0.930 . S
H1045 C1040 0.930 . S
N1046 Cu1035 1.985 . S
N1046 C1048 1.335 . S
N1046 C1049 1.390 . S
N1047 C1048 1.345 . S
N1047 C1050 1.336 . S
C1048 N1046 1.335 . S
C1048 N1047 1.345 . S
C1048 H1053 0.930 . S
C1049 N1046 1.390 . S
C1049 C1050 1.346 . S
C1049 H1054 0.930 . S
C1050 N1047 1.336 . S
C1050 C1049 1.346 . S
C1050 H1057 0.929 . S
C1051 O1041 1.282 . S
C1051 O1052 1.216 . S
O1052 C1051 1.216 . S
H1053 C1048 0.930 . S
H1054 C1049 0.930 . S
O1055 Cu1035 1.959 . S
O1055 C1042 1.251 . S
H1056 C1039 0.930 . S
H1057 C1050 0.929 . S
Cu1058 N1059 1.999 . S
Cu1058 O1064 1.974 . S
Cu1058 N1069 1.985 . S
Cu1058 O1078 1.959 . S
N1059 Cu1058 1.999 . S
N1059 C1061 1.263 . S
N1059 C1063 1.389 . S
N1060 C1061 1.358 . S
N1060 C1062 1.400 . S
C1061 N1059 1.263 . S
C1061 N1060 1.358 . S
C1061 H1067 0.930 1_556 S
C1062 N1060 1.400 . S
C1062 C1063 1.351 . S
C1062 H1079 0.930 . S
C1063 N1059 1.389 . S
C1063 C1062 1.351 . S
C1063 H1068 0.930 . S
O1064 Cu1058 1.974 . S
O1064 C1074 1.282 1_556 S
C1065 O1066 1.261 . S
C1065 O1078 1.251 . S
O1066 C1065 1.261 . S
H1067 C1061 0.930 1_554 S
H1068 C1063 0.930 . S
N1069 Cu1058 1.985 . S
N1069 C1071 1.335 . S
N1069 C1072 1.390 1_565 S
N1070 C1071 1.345 1_545 S
N1070 C1073 1.336 . S
C1071 N1069 1.335 . S
C1071 N1070 1.345 1_565 S
C1071 H1076 0.930 . S
C1072 N1069 1.390 1_545 S
C1072 C1073 1.346 . S
C1072 H1077 0.930 . S
C1073 N1070 1.336 . S
C1073 C1072 1.346 . S
C1073 H1080 0.929 . S
C1074 O1064 1.282 1_554 S
C1074 O1075 1.216 . S
O1075 C1074 1.216 . S
H1076 C1071 0.930 . S
H1077 C1072 0.930 . S
O1078 Cu1058 1.959 . S
O1078 C1065 1.251 . S
H1079 C1062 0.930 . S
H1080 C1073 0.929 . S
Cu1081 N1082 1.999 . S
Cu1081 O1087 1.974 . S
Cu1081 N1092 1.985 . S
Cu1081 O1101 1.959 . S
N1082 Cu1081 1.999 . S
N1082 C1084 1.263 . S
N1082 C1086 1.389 . S
N1083 C1084 1.358 . S
N1083 C1085 1.400 . S
C1084 N1082 1.263 . S
C1084 N1083 1.358 . S
C1084 H1090 0.930 . S
C1085 N1083 1.400 . S
C1085 C1086 1.351 . S
C1085 H1102 0.930 . S
C1086 N1082 1.389 . S
C1086 C1085 1.351 . S
C1086 H1091 0.930 . S
O1087 Cu1081 1.974 . S
O1087 C1097 1.282 . S
C1088 O1089 1.261 . S
C1088 O1101 1.251 . S
O1089 C1088 1.261 . S
H1090 C1084 0.930 . S
H1091 C1086 0.930 . S
N1092 Cu1081 1.985 . S
N1092 C1094 1.335 . S
N1092 C1095 1.390 1_545 S
N1093 C1094 1.345 1_565 S
N1093 C1096 1.336 . S
C1094 N1092 1.335 . S
C1094 N1093 1.345 1_545 S
C1094 H1099 0.930 . S
C1095 N1092 1.390 1_565 S
C1095 C1096 1.346 . S
C1095 H1100 0.930 . S
C1096 N1093 1.336 . S
C1096 C1095 1.346 . S
C1096 H1103 0.929 . S
C1097 O1087 1.282 . S
C1097 O1098 1.216 . S
O1098 C1097 1.216 . S
H1099 C1094 0.930 . S
H1100 C1095 0.930 . S
O1101 Cu1081 1.959 . S
O1101 C1088 1.251 . S
H1102 C1085 0.930 . S
H1103 C1096 0.929 . S
N219 N12 1.881 . S
N242 N35 1.881 . S
N265 N58 1.881 . S
N196 N81 1.881 . S
N104 N357 1.881 . S
N127 N288 1.881 . S
N150 N311 1.881 . S
N334 N173 1.881 . S
N380 N426 1.881 . S
N403 N1070 1.881 . S
N449 N1093 1.881 . S
N472 N1047 1.881 . S
N495 N1024 1.881 . S
N955 N518 1.881 . S
N541 N1001 1.881 . S
N771 N564 1.881 . S
N794 N587 1.881 . S
N817 N610 1.881 . S
N748 N633 1.881 . S
N909 N656 1.881 . S
N840 N679 1.881 . S
N702 N863 1.881 . S
N725 N886 1.881 . S
N932 N978 1.881 . S
C384 N2 1.146 . S
C1097 N25 1.146 1_545 S
N48 C499 1.146 . S
C1074 N71 1.146 1_565 S
N94 C959 1.146 . S
C982 N117 1.146 1_545 S
N140 C1005 1.146 . S
C476 N163 1.146 1_565 S
N186 C16 1.146 . S
C39 N209 1.146 1_655 S
N232 C62 1.146 . S
C85 N255 1.146 . S
N278 C108 1.146 . S
C131 N301 1.146 . S
N324 C154 1.146 . S
N347 C177 1.146 1_455 S
N370 C200 1.146 . S
N393 C844 1.146 . S
C867 N416 1.146 1_556 S
C890 N439 1.146 . S
C361 N462 1.146 1_556 S
N485 C246 1.146 . S
C821 N508 1.146 . S
N531 C775 1.146 1_556 S
N554 C936 1.146 . S
N577 C545 1.146 . S
N600 C1051 1.146 . S
N623 C522 1.146 . S
N646 C407 1.146 . S
N669 C430 1.146 . S
C453 N692 1.146 . S
C1028 N715 1.146 . S
C568 N738 1.146 . S
C591 N761 1.146 . S
N784 C614 1.146 . S
C637 N807 1.146 1_455 S
N830 C660 1.146 . S
N853 C683 1.146 1_655 S
N876 C706 1.146 . S
C729 N899 1.146 . S
N922 C752 1.146 . S
N945 C292 1.146 . S
C315 N968 1.146 . S
N991 C338 1.146 . S
N1014 C913 1.146 . S
C798 N1037 1.146 . S
C269 N1060 1.146 1_554 S
C223 N1083 1.146 . S
C513 C7 1.651 . S
C30 C927 1.650 . S
C53 C536 1.650 . S
C1042 C76 1.651 . S
C99 C421 1.651 . S
C444 C122 1.650 . S
C1019 C145 1.651 . S
C168 C398 1.651 . S
C306 C191 1.651 . S
C214 C329 1.651 . S
C352 C237 1.651 . S
C260 C283 1.651 . S
C582 C375 1.651 . S
C467 C697 1.651 . S
C490 C628 1.651 . S
C1065 C559 1.650 . S
C605 C1088 1.651 . S
C651 C973 1.651 . S
C674 C996 1.651 . S
C950 C720 1.651 . S
C858 C743 1.650 . S
C766 C881 1.651 . S
C789 C904 1.651 . S
C835 C812 1.650 . S
