# Generated by pormake.
# Topology uou, (4)-cn, num edge types: 1
# Building blocks:
#     Node 0, Type 0, BuildingBlock: UXUYUI_clean_sbu_0, # of connection points: 4
#     Node 1, Type 0, BuildingBlock: UXUYUI_clean_sbu_0, # of connection points: 4
#     Node 2, Type 0, BuildingBlock: UXUYUI_clean_sbu_0, # of connection points: 4
#     Node 3, Type 0, BuildingBlock: UXUYUI_clean_sbu_0, # of connection points: 4
#     Node 4, Type 0, BuildingBlock: UXUYUI_clean_sbu_0, # of connection points: 4
#     Node 5, Type 0, BuildingBlock: UXUYUI_clean_sbu_0, # of connection points: 4
#     Node 6, Type 0, BuildingBlock: UXUYUI_clean_sbu_0, # of connection points: 4
#     Node 7, Type 0, BuildingBlock: UXUYUI_clean_sbu_0, # of connection points: 4
#     Node 8, Type 0, BuildingBlock: UXUYUI_clean_sbu_0, # of connection points: 4
#     Node 9, Type 0, BuildingBlock: UXUYUI_clean_sbu_0, # of connection points: 4
#     Node 10, Type 0, BuildingBlock: UXUYUI_clean_sbu_0, # of connection points: 4
#     Node 11, Type 0, BuildingBlock: UXUYUI_clean_sbu_0, # of connection points: 4
#     Node 12, Type 0, BuildingBlock: UXUYUI_clean_sbu_0, # of connection points: 4
#     Node 13, Type 0, BuildingBlock: UXUYUI_clean_sbu_0, # of connection points: 4
#     Node 14, Type 0, BuildingBlock: UXUYUI_clean_sbu_0, # of connection points: 4
#     Node 15, Type 0, BuildingBlock: UXUYUI_clean_sbu_0, # of connection points: 4
#     Edge 16, Type (0, 0), BuildingBlock: MIFKUJ_clean_linker_0, # of connection points: 2
#     Edge 17, Type (0, 0), BuildingBlock: MIFKUJ_clean_linker_0, # of connection points: 2
#     Edge 18, Type (0, 0), BuildingBlock: MIFKUJ_clean_linker_0, # of connection points: 2
#     Edge 19, Type (0, 0), BuildingBlock: MIFKUJ_clean_linker_0, # of connection points: 2
#     Edge 20, Type (0, 0), BuildingBlock: MIFKUJ_clean_linker_0, # of connection points: 2
#     Edge 21, Type (0, 0), BuildingBlock: MIFKUJ_clean_linker_0, # of connection points: 2
#     Edge 22, Type (0, 0), BuildingBlock: MIFKUJ_clean_linker_0, # of connection points: 2
#     Edge 23, Type (0, 0), BuildingBlock: MIFKUJ_clean_linker_0, # of connection points: 2
#     Edge 24, Type (0, 0), BuildingBlock: MIFKUJ_clean_linker_0, # of connection points: 2
#     Edge 25, Type (0, 0), BuildingBlock: MIFKUJ_clean_linker_0, # of connection points: 2
#     Edge 26, Type (0, 0), BuildingBlock: MIFKUJ_clean_linker_0, # of connection points: 2
#     Edge 27, Type (0, 0), BuildingBlock: MIFKUJ_clean_linker_0, # of connection points: 2
#     Edge 28, Type (0, 0), BuildingBlock: MIFKUJ_clean_linker_0, # of connection points: 2
#     Edge 29, Type (0, 0), BuildingBlock: MIFKUJ_clean_linker_0, # of connection points: 2
#     Edge 30, Type (0, 0), BuildingBlock: MIFKUJ_clean_linker_0, # of connection points: 2
#     Edge 31, Type (0, 0), BuildingBlock: MIFKUJ_clean_linker_0, # of connection points: 2
#     Edge 32, Type (0, 0), BuildingBlock: MIFKUJ_clean_linker_0, # of connection points: 2
#     Edge 33, Type (0, 0), BuildingBlock: MIFKUJ_clean_linker_0, # of connection points: 2
#     Edge 34, Type (0, 0), BuildingBlock: MIFKUJ_clean_linker_0, # of connection points: 2
#     Edge 35, Type (0, 0), BuildingBlock: MIFKUJ_clean_linker_0, # of connection points: 2
#     Edge 36, Type (0, 0), BuildingBlock: MIFKUJ_clean_linker_0, # of connection points: 2
#     Edge 37, Type (0, 0), BuildingBlock: MIFKUJ_clean_linker_0, # of connection points: 2
#     Edge 38, Type (0, 0), BuildingBlock: MIFKUJ_clean_linker_0, # of connection points: 2
#     Edge 39, Type (0, 0), BuildingBlock: MIFKUJ_clean_linker_0, # of connection points: 2
#     Edge 40, Type (0, 0), BuildingBlock: MIFKUJ_clean_linker_0, # of connection points: 2
#     Edge 41, Type (0, 0), BuildingBlock: MIFKUJ_clean_linker_0, # of connection points: 2
#     Edge 42, Type (0, 0), BuildingBlock: MIFKUJ_clean_linker_0, # of connection points: 2
#     Edge 43, Type (0, 0), BuildingBlock: MIFKUJ_clean_linker_0, # of connection points: 2
#     Edge 44, Type (0, 0), BuildingBlock: MIFKUJ_clean_linker_0, # of connection points: 2
#     Edge 45, Type (0, 0), BuildingBlock: MIFKUJ_clean_linker_0, # of connection points: 2
#     Edge 46, Type (0, 0), BuildingBlock: MIFKUJ_clean_linker_0, # of connection points: 2
#     Edge 47, Type (0, 0), BuildingBlock: MIFKUJ_clean_linker_0, # of connection points: 2
# Relax obj value: 0.194
# Max RMSD: 0.198
# Mean RMSD: 0.197
data_MOF--net-uou--node1-UXUYUI_clean_sbu_0--edge1-MIFKUJ_clean_linker_0
_symmetry_space_group_name_H-M    P1
_symmetry_Int_Tables_number       1
_symmetry_cell_setting            triclinic
loop_
_symmetry_equiv_pos_as_xyz
'x, y, z'
_cell_length_a     68.460655
_cell_length_b     66.331076
_cell_length_c     93.529786
_cell_angle_alpha  89.994063
_cell_angle_beta   90.036518
_cell_angle_gamma 90.001381
loop_
_atom_site_label
_atom_site_type_symbol
_atom_site_fract_x
_atom_site_fract_y
_atom_site_fract_z
_atom_type_partial_charge
Li0 Li 0.05625 0.05627 0.10854 0.0
Li1 Li 0.08688 0.06267 0.12023 0.0
Li2 Li 0.05703 0.05484 0.13428 0.0
Li3 Li 0.06059 0.08744 0.12111 0.0
C4 C 0.07171 0.01743 0.11998 0.0
N5 N 0.07273 0.97583 0.11848 0.0
C6 C 0.08784 0.00766 0.11398 0.0
C7 C 0.05619 0.00602 0.12534 0.0
C8 C 0.08806 0.98663 0.11329 0.0
C9 C 0.05695 0.98501 0.12445 0.0
C10 C 0.08488 0.07478 0.09161 0.0
C11 C 0.09952 0.08709 0.06985 0.0
N12 N 0.10453 0.06789 0.06629 0.0
C13 C 0.09013 0.05517 0.08771 0.0
C14 C 0.08955 0.09087 0.0826 0.0
C15 C 0.10007 0.052 0.07488 0.0
C16 C 0.0383 0.05935 0.08199 0.0
N17 N 0.04467 0.04549 0.09163 0.0
C18 C 0.03425 0.01853 0.07654 0.0
C19 C 0.04283 0.02539 0.08916 0.0
C20 C 0.02746 0.03251 0.06643 0.0
C21 C 0.0295 0.05317 0.06928 0.0
H22 H 0.04006 0.07525 0.08421 0.0
H23 H 0.04793 0.01463 0.09693 0.0
C24 C 0.1197 0.04411 0.1307 0.0
N25 N 0.11405 0.05745 0.12049 0.0
C26 C 0.13894 0.03733 0.13125 0.0
C27 C 0.14641 0.05867 0.11102 0.0
C28 C 0.12701 0.06521 0.11096 0.0
C29 C 0.15251 0.04422 0.12109 0.0
H30 H 0.10905 0.03838 0.13822 0.0
H31 H 0.12225 0.07607 0.1031 0.0
C32 C 0.02042 0.06634 0.11519 0.0
N33 N 0.98626 0.06034 0.1 0.0
C34 C 0.01115 0.08257 0.1085 0.0
C35 C 0.01217 0.0471 0.1143 0.0
C36 C 0.99392 0.07923 0.10084 0.0
C37 C 0.99495 0.04436 0.10652 0.0
C38 C 0.09014 0.09081 0.14191 0.0
C39 C 0.09468 0.0925 0.15642 0.0
C40 C 0.09949 0.10326 0.13198 0.0
C41 C 0.10848 0.10675 0.16079 0.0
C42 C 0.1132 0.11731 0.13678 0.0
N43 N 0.11738 0.11875 0.15096 0.0
C44 C 0.06142 0.03725 0.16124 0.0
C45 C 0.0287 0.03898 0.153 0.0
C46 C 0.05532 0.02866 0.17411 0.0
N47 N 0.04808 0.04235 0.15111 0.0
C48 C 0.02198 0.0302 0.16561 0.0
C49 C 0.03532 0.0252 0.17649 0.0
H50 H 0.07675 0.04023 0.1594 0.0
H51 H 0.01843 0.04328 0.14478 0.0
C52 C 0.04904 0.12401 0.10889 0.0
N53 N 0.05406 0.11515 0.12147 0.0
C54 C 0.04224 0.14384 0.1087 0.0
C55 C 0.04696 0.14538 0.13432 0.0
C56 C 0.05326 0.12536 0.13405 0.0
C57 C 0.04103 0.15467 0.12156 0.0
H58 H 0.04973 0.11541 0.09907 0.0
H59 H 0.0571 0.11783 0.14392 0.0
O60 O 0.07137 0.03801 0.12088 0.0
O61 O 0.07503 0.07832 0.10408 0.0
O62 O 0.03756 0.06925 0.12245 0.0
O63 O 0.07674 0.07684 0.13749 0.0
H64 H 0.1001 0.01622 0.10991 0.0
H65 H 0.04364 0.01327 0.13007 0.0
H66 H 0.10042 0.97888 0.10864 0.0
H67 H 0.045 0.97601 0.1285 0.0
H68 H 0.10326 0.09941 0.06279 0.0
H69 H 0.08653 0.04255 0.0945 0.0
H70 H 0.08553 0.10614 0.08546 0.0
H71 H 0.10422 0.0369 0.07174 0.0
H72 H 0.03278 0.00246 0.07477 0.0
H73 H 0.02466 0.06442 0.06167 0.0
H74 H 0.14304 0.0266 0.13944 0.0
H75 H 0.15631 0.06436 0.10295 0.0
H76 H 0.01719 0.09758 0.10916 0.0
H77 H 0.0192 0.03433 0.11931 0.0
H78 H 0.98665 0.09164 0.09555 0.0
H79 H 0.98854 0.02951 0.10561 0.0
H80 H 0.0876 0.0829 0.16422 0.0
H81 H 0.09621 0.10212 0.1207 0.0
H82 H 0.11214 0.10825 0.17199 0.0
H83 H 0.12054 0.12706 0.12922 0.0
H84 H 0.06611 0.02538 0.18225 0.0
H85 H 0.00647 0.02754 0.16686 0.0
H86 H 0.03782 0.1506 0.09867 0.0
H87 H 0.04603 0.15328 0.14443 0.0
Li88 Li 0.43518 0.91224 0.12375 0.0
Li89 Li 0.43975 0.94352 0.13671 0.0
Li90 Li 0.40989 0.93778 0.12261 0.0
Li91 Li 0.44109 0.94374 0.11073 0.0
C92 C 0.42301 0.91235 0.15227 0.0
N93 N 0.43127 0.89172 0.17722 0.0
C94 C 0.4419 0.90529 0.1549 0.0
C95 C 0.4083 0.90888 0.16232 0.0
C96 C 0.44579 0.89491 0.16757 0.0
C97 C 0.41277 0.89843 0.17488 0.0
C98 C 0.47786 0.93405 0.1261 0.0
C99 C 0.50474 0.95751 0.12491 0.0
N100 N 0.51684 0.94315 0.13032 0.0
C101 C 0.49063 0.91945 0.1315 0.0
C102 C 0.48501 0.95317 0.12266 0.0
C103 C 0.51026 0.92437 0.13362 0.0
C104 C 0.4583 0.87967 0.11656 0.0
N105 N 0.4414 0.88441 0.12337 0.0
C106 C 0.43662 0.85003 0.13013 0.0
C107 C 0.43037 0.8701 0.12994 0.0
C108 C 0.45441 0.84485 0.12361 0.0
C109 C 0.46518 0.85991 0.11662 0.0
H110 H 0.46663 0.89138 0.11131 0.0
H111 H 0.41698 0.87432 0.13528 0.0
C112 C 0.43867 0.97119 0.15935 0.0
N113 N 0.44936 0.95593 0.15361 0.0
C114 C 0.44508 0.98099 0.17171 0.0
C115 C 0.47322 0.95897 0.17208 0.0
C116 C 0.46624 0.94959 0.15978 0.0
C117 C 0.46263 0.97493 0.17818 0.0
H118 H 0.42517 0.97578 0.15428 0.0
H119 H 0.47419 0.93706 0.15533 0.0
C120 C 0.40864 0.90812 0.10163 0.0
N121 N 0.38299 0.87895 0.09202 0.0
C122 C 0.40823 0.90287 0.08717 0.0
C123 C 0.39599 0.89856 0.11121 0.0
C124 C 0.39515 0.88808 0.08252 0.0
C125 C 0.38314 0.88384 0.10614 0.0
C126 C 0.4283 0.98227 0.12137 0.0
C127 C 0.41342 0.99303 0.11454 0.0
C128 C 0.44482 0.99251 0.12631 0.0
C129 C 0.41555 0.01376 0.11243 0.0
C130 C 0.4464 0.01325 0.12402 0.0
N131 N 0.43187 0.02336 0.11716 0.0
C132 C 0.37132 0.94248 0.13285 0.0
C133 C 0.37636 0.95094 0.10848 0.0
C134 C 0.35195 0.94901 0.13208 0.0
N135 N 0.38306 0.94383 0.12118 0.0
C136 C 0.3572 0.95788 0.10728 0.0
C137 C 0.34485 0.95721 0.11924 0.0
H138 H 0.37717 0.9369 0.14283 0.0
H139 H 0.38614 0.95185 0.09942 0.0
C140 C 0.4692 0.94474 0.0892 0.0
N141 N 0.4531 0.95442 0.09419 0.0
C142 C 0.4783 0.95129 0.0767 0.0
C143 C 0.4539 0.9775 0.07462 0.0
C144 C 0.44525 0.9704 0.08715 0.0
C145 C 0.47059 0.96783 0.06923 0.0
H146 H 0.47485 0.93177 0.09485 0.0
H147 H 0.43204 0.97734 0.09104 0.0
O148 O 0.41879 0.92258 0.13993 0.0
O149 O 0.45858 0.92943 0.12398 0.0
O150 O 0.42142 0.92254 0.1063 0.0
O151 O 0.42631 0.96196 0.12362 0.0
H152 H 0.45344 0.90771 0.14724 0.0
H153 H 0.39358 0.9142 0.16045 0.0
H154 H 0.46036 0.88936 0.16973 0.0
H155 H 0.40152 0.89565 0.18276 0.0
H156 H 0.51044 0.97226 0.1223 0.0
H157 H 0.4854 0.90452 0.13416 0.0
H158 H 0.47552 0.96446 0.11809 0.0
H159 H 0.52025 0.91327 0.13789 0.0
H160 H 0.42796 0.83882 0.13567 0.0
H161 H 0.47882 0.85645 0.11129 0.0
H162 H 0.43649 0.99321 0.1761 0.0
H163 H 0.48655 0.95347 0.17695 0.0
H164 H 0.41793 0.91015 0.07963 0.0
H165 H 0.39607 0.90241 0.12244 0.0
H166 H 0.39468 0.88386 0.07135 0.0
H167 H 0.3733 0.87631 0.11343 0.0
H168 H 0.40041 0.98544 0.1108 0.0
H169 H 0.45621 0.98463 0.13203 0.0
H170 H 0.40421 0.02223 0.10706 0.0
H171 H 0.45914 0.02134 0.12776 0.0
H172 H 0.34289 0.94841 0.14156 0.0
H173 H 0.35216 0.96396 0.09718 0.0
H174 H 0.49118 0.94346 0.07292 0.0
H175 H 0.44724 0.99001 0.069 0.0
Li176 Li 0.58311 0.9456 0.37124 0.0
Li177 Li 0.55367 0.94921 0.38477 0.0
Li178 Li 0.55735 0.92053 0.3697 0.0
Li179 Li 0.55199 0.9548 0.35938 0.0
C180 C 0.58472 0.9294 0.39852 0.0
N181 N 0.6076 0.93356 0.42269 0.0
C182 C 0.58971 0.94857 0.40352 0.0
C183 C 0.59135 0.91234 0.40581 0.0
C184 C 0.60128 0.95037 0.41575 0.0
C185 C 0.60292 0.91475 0.41801 0.0
C186 C 0.56577 0.99013 0.37627 0.0
C187 C 0.54799 0.0215 0.37525 0.0
N188 N 0.56325 0.03101 0.38167 0.0
C189 C 0.58135 0.00026 0.38274 0.0
C190 C 0.54901 0.00086 0.37238 0.0
C191 C 0.57976 0.02091 0.38543 0.0
C192 C 0.61488 0.96805 0.36282 0.0
N193 N 0.61011 0.9512 0.37027 0.0
C194 C 0.64348 0.94576 0.37661 0.0
C195 C 0.62391 0.93981 0.3769 0.0
C196 C 0.64878 0.96351 0.36936 0.0
C197 C 0.63421 0.97452 0.36221 0.0
H198 H 0.60355 0.97665 0.35754 0.0
H199 H 0.61973 0.92632 0.38261 0.0
C200 C 0.54127 0.94172 0.41269 0.0
N201 N 0.5434 0.95684 0.40299 0.0
C202 C 0.53481 0.94589 0.42651 0.0
C203 C 0.53253 0.9811 0.42007 0.0
C204 C 0.53889 0.97622 0.40636 0.0
C205 C 0.53062 0.96586 0.43038 0.0
H206 H 0.54482 0.92639 0.40972 0.0
H207 H 0.5403 0.98796 0.39852 0.0
C208 C 0.58467 0.92091 0.34737 0.0
N209 N 0.61109 0.8949 0.33482 0.0
C210 C 0.588 0.92173 0.33265 0.0
C211 C 0.59478 0.90688 0.35573 0.0
C212 C 0.60141 0.90844 0.3265 0.0
C213 C 0.60808 0.89386 0.34918 0.0
C214 C 0.51762 0.93951 0.37908 0.0
C215 C 0.51182 0.92324 0.38757 0.0
C216 C 0.50672 0.95731 0.37919 0.0
C217 C 0.49531 0.92519 0.39623 0.0
C218 C 0.49031 0.95867 0.38801 0.0
N219 N 0.485 0.94272 0.39629 0.0
C220 C 0.55132 0.88087 0.37899 0.0
C221 C 0.54619 0.88599 0.35417 0.0
C222 C 0.54565 0.86075 0.37779 0.0
N223 N 0.55132 0.893 0.36729 0.0
C224 C 0.54047 0.86593 0.35246 0.0
C225 C 0.53995 0.85307 0.36441 0.0
H226 H 0.55526 0.88701 0.38931 0.0
H227 H 0.54628 0.89608 0.34508 0.0
C228 C 0.55184 0.98447 0.33803 0.0
N229 N 0.5414 0.96915 0.34389 0.0
C230 C 0.54508 0.99414 0.32574 0.0
C231 C 0.51691 0.97212 0.32589 0.0
C232 C 0.52411 0.96304 0.33826 0.0
C233 C 0.5276 0.98768 0.31931 0.0
H234 H 0.56564 0.98886 0.34274 0.0
H235 H 0.51628 0.95064 0.34312 0.0
O236 O 0.5734 0.92717 0.38655 0.0
O237 O 0.56726 0.96998 0.3733 0.0
O238 O 0.57162 0.93388 0.35352 0.0
O239 O 0.53403 0.93808 0.37083 0.0
H240 H 0.58463 0.96191 0.39807 0.0
H241 H 0.58765 0.89738 0.40206 0.0
H242 H 0.60522 0.96512 0.41974 0.0
H243 H 0.60817 0.90168 0.42375 0.0
H244 H 0.53506 0.02995 0.37237 0.0
H245 H 0.59457 0.9923 0.38563 0.0
H246 H 0.53683 0.99332 0.36734 0.0
H247 H 0.59168 0.02892 0.39048 0.0
H248 H 0.65422 0.93688 0.38231 0.0
H249 H 0.6377 0.98804 0.35624 0.0
H250 H 0.5336 0.93373 0.43419 0.0
H251 H 0.52913 0.99665 0.4226 0.0
H252 H 0.58029 0.93253 0.32605 0.0
H253 H 0.59241 0.90602 0.36714 0.0
H254 H 0.60414 0.90889 0.31511 0.0
H255 H 0.616 0.88293 0.35551 0.0
H256 H 0.52011 0.90936 0.3876 0.0
H257 H 0.51096 0.96998 0.37261 0.0
H258 H 0.49073 0.91279 0.40295 0.0
H259 H 0.4818 0.97241 0.38828 0.0
H260 H 0.54516 0.85149 0.38732 0.0
H261 H 0.53641 0.86059 0.34193 0.0
H262 H 0.5537 0.00619 0.32114 0.0
H263 H 0.50359 0.96632 0.32118 0.0
Li264 Li 0.9417 0.05162 0.38481 0.0
Li265 Li 0.91168 0.05558 0.37216 0.0
Li266 Li 0.94311 0.05084 0.35964 0.0
Li267 Li 0.93716 0.08294 0.37157 0.0
C268 C 0.93027 0.01346 0.37844 0.0
N269 N 0.93304 0.97638 0.39174 0.0
C270 C 0.91351 0.004 0.38372 0.0
C271 C 0.94842 0.00401 0.37985 0.0
C272 C 0.91522 0.98526 0.39042 0.0
C273 C 0.94952 0.98528 0.38664 0.0
C274 C 0.91807 0.07138 0.40231 0.0
C275 C 0.92532 0.08184 0.42643 0.0
N276 N 0.91286 0.06755 0.43149 0.0
C277 C 0.90531 0.05681 0.40774 0.0
C278 C 0.92811 0.08405 0.41172 0.0
C279 C 0.90287 0.05513 0.42252 0.0
C280 C 0.96998 0.05076 0.40645 0.0
N281 N 0.95299 0.04199 0.4022 0.0
C282 C 0.95177 0.02234 0.42357 0.0
C283 C 0.94376 0.02814 0.41052 0.0
C284 C 0.96919 0.03127 0.42826 0.0
C285 C 0.97835 0.04567 0.41958 0.0
H286 H 0.97682 0.06204 0.39977 0.0
H287 H 0.9299 0.02195 0.40728 0.0
C288 C 0.87965 0.03487 0.36169 0.0
N289 N 0.88479 0.04972 0.37095 0.0
C290 C 0.86027 0.02857 0.36079 0.0
C291 C 0.85174 0.05354 0.37857 0.0
C292 C 0.87132 0.05939 0.37911 0.0
C293 C 0.84608 0.0377 0.36948 0.0
H294 H 0.89073 0.02765 0.35524 0.0
H295 H 0.87585 0.07134 0.38624 0.0
C296 C 0.97766 0.06492 0.36533 0.0
N297 N 0.01166 0.06233 0.34956 0.0
C298 C 0.98252 0.08017 0.35565 0.0
C299 C 0.99017 0.04847 0.36711 0.0
C300 C -0.00024 0.07855 0.34775 0.0
C301 C 0.00727 0.0474 0.359 0.0
C302 C 0.90787 0.0824 0.34962 0.0
C303 C 0.90373 0.08135 0.33501 0.0
C304 C 0.89672 0.09495 0.35843 0.0
C305 C 0.88857 0.09304 0.32941 0.0
C306 C 0.88168 0.10639 0.35242 0.0
N307 N 0.87795 0.10521 0.33816 0.0
C308 C 0.95901 0.02028 0.34151 0.0
C309 C 0.95644 0.05319 0.33177 0.0
C310 C 0.9662 0.01288 0.32856 0.0
N311 N 0.95427 0.0401 0.34281 0.0
C312 C 0.96356 0.04648 0.31867 0.0
C313 C 0.96831 0.02603 0.31689 0.0
H314 H 0.95687 0.01015 0.35039 0.0
H315 H 0.95244 0.06885 0.33314 0.0
C316 C 0.95517 0.1177 0.38154 0.0
N317 N 0.94348 0.11083 0.37084 0.0
C318 C 0.96229 0.1374 0.38126 0.0
C319 C 0.94524 0.14266 0.35893 0.0
C320 C 0.93856 0.1228 0.35959 0.0
C321 C 0.95743 0.15011 0.36979 0.0
H322 H 0.95947 0.10762 0.39006 0.0
H323 H 0.93005 0.11682 0.35086 0.0
O324 O 0.92884 0.03176 0.37177 0.0
O325 O 0.92091 0.073 0.38787 0.0
O326 O 0.96062 0.06595 0.3729 0.0
O327 O 0.9224 0.07075 0.35529 0.0
H328 H 0.89936 0.01112 0.38278 0.0
H329 H 0.96154 0.01117 0.37592 0.0
H330 H 0.90239 0.9778 0.39461 0.0
H331 H 0.96348 0.97786 0.38789 0.0
H332 H 0.93307 0.09148 0.43384 0.0
H333 H 0.89772 0.04659 0.40065 0.0
H334 H 0.93803 0.09539 0.40773 0.0
H335 H 0.89315 0.04382 0.42687 0.0
H336 H 0.94411 0.01147 0.43015 0.0
H337 H 0.99179 0.05289 0.42292 0.0
H338 H 0.85648 0.0166 0.35342 0.0
H339 H 0.8413 0.06092 0.38551 0.0
H340 H 0.97296 0.09297 0.35411 0.0
H341 H 0.98668 0.03663 0.37464 0.0
H342 H 0.00364 0.09016 0.34014 0.0
H343 H 0.01705 0.0347 0.3602 0.0
H344 H 0.91214 0.07158 0.32808 0.0
H345 H 0.89968 0.09588 0.36977 0.0
H346 H 0.88522 0.09242 0.31812 0.0
H347 H 0.87296 0.11619 0.35911 0.0
H348 H 0.96954 0.99698 0.32757 0.0
H349 H 0.96526 0.05718 0.31002 0.0
H350 H 0.97166 0.14256 0.38984 0.0
H351 H 0.94152 0.15185 0.34974 0.0
Li352 Li 0.93496 0.91464 0.87011 0.0
Li353 Li 0.93845 0.94464 0.88418 0.0
Li354 Li 0.90961 0.94023 0.87034 0.0
Li355 Li 0.94142 0.94766 0.8586 0.0
C356 C 0.92195 0.91115 0.89802 0.0
N357 N 0.92932 0.88657 0.92126 0.0
C358 C 0.94117 0.90681 0.90201 0.0
C359 C 0.90647 0.90301 0.90586 0.0
C360 C 0.9446 0.89436 0.91379 0.0
C361 C 0.9105 0.89061 0.91757 0.0
C362 C 0.97767 0.93434 0.87351 0.0
C363 C 0.0071 0.95412 0.87137 0.0
N364 N 0.01756 0.93857 0.87697 0.0
C365 C 0.98874 0.9185 0.87913 0.0
C366 C 0.98694 0.95225 0.86949 0.0
C367 C 0.00887 0.92097 0.88085 0.0
C368 C 0.95749 0.88302 0.86025 0.0
N369 N 0.94147 0.88701 0.86832 0.0
C370 C 0.93806 0.85217 0.87426 0.0
C371 C 0.93147 0.87208 0.87506 0.0
C372 C 0.955 0.84768 0.86639 0.0
C373 C 0.96455 0.86338 0.85913 0.0
H374 H 0.965 0.89522 0.8549 0.0
H375 H 0.91864 0.87564 0.88128 0.0
C376 C 0.93333 0.95607 0.91269 0.0
N377 N 0.94708 0.95499 0.90222 0.0
C378 C 0.93828 0.96295 0.9263 0.0
C379 C 0.97144 0.96771 0.91812 0.0
C380 C 0.96581 0.96087 0.90464 0.0
C381 C 0.95762 0.96867 0.92917 0.0
H382 H 0.91848 0.95148 0.91045 0.0
H383 H 0.97643 0.96032 0.8962 0.0
C384 C 0.90893 0.91292 0.84749 0.0
N385 N 0.88365 0.88496 0.83578 0.0
C386 C 0.90849 0.90988 0.83272 0.0
C387 C 0.89652 0.90174 0.85633 0.0
C388 C 0.8956 0.89567 0.827 0.0
C389 C 0.88385 0.88767 0.8502 0.0
C390 C 0.92698 0.9816 0.8798 0.0
C391 C 0.91171 0.98639 0.88911 0.0
C392 C 0.94368 0.9937 0.87946 0.0
C393 C 0.91353 0.00311 0.89809 0.0
C394 C 0.94495 0.01028 0.88862 0.0
N395 N 0.92999 0.01459 0.89768 0.0
C396 C 0.8716 0.94421 0.88126 0.0
C397 C 0.87513 0.95245 0.85672 0.0
C398 C 0.85206 0.95016 0.88101 0.0
N399 N 0.88267 0.94569 0.86927 0.0
C400 C 0.85565 0.95853 0.85597 0.0
C401 C 0.84393 0.95773 0.86829 0.0
H402 H 0.87816 0.93903 0.89113 0.0
H403 H 0.88441 0.95353 0.84739 0.0
C404 C 0.9677 0.94881 0.83608 0.0
N405 N 0.95382 0.95982 0.84289 0.0
C406 C 0.97726 0.9567 0.8242 0.0
C407 C 0.95785 0.98703 0.82644 0.0
C408 C 0.94878 0.97861 0.83842 0.0
C409 C 0.97228 0.97599 0.81919 0.0
H410 H 0.97123 0.93384 0.83988 0.0
H411 H 0.9376 0.98693 0.84407 0.0
O412 O 0.91814 0.92324 0.88649 0.0
O413 O 0.95799 0.932 0.87147 0.0
O414 O 0.92154 0.92673 0.85321 0.0
O415 O 0.9257 0.96496 0.87123 0.0
H416 H 0.9533 0.91304 0.89614 0.0
H417 H 0.8915 0.90619 0.90289 0.0
H418 H 0.95941 0.8909 0.917 0.0
H419 H 0.89866 0.88418 0.92373 0.0
H420 H 0.01444 0.96794 0.86838 0.0
H421 H 0.98189 0.90441 0.88211 0.0
H422 H 0.97867 0.96467 0.86511 0.0
H423 H 0.0176 0.90885 0.88523 0.0
H424 H 0.93031 0.84056 0.88009 0.0
H425 H 0.97743 0.86056 0.85271 0.0
H426 H 0.92722 0.96337 0.93456 0.0
H427 H 0.98644 0.97232 0.91986 0.0
H428 H 0.91803 0.91841 0.82575 0.0
H429 H 0.89664 0.90386 0.86778 0.0
H430 H 0.8951 0.89316 0.81558 0.0
H431 H 0.87417 0.87891 0.8569 0.0
H432 H 0.8987 0.97715 0.88951 0.0
H433 H 0.95558 0.99023 0.87226 0.0
H434 H 0.9019 0.00692 0.90543 0.0
H435 H 0.95784 0.01971 0.88854 0.0
H436 H 0.84364 0.94956 0.8908 0.0
H437 H 0.84991 0.96403 0.84591 0.0
H438 H 0.98806 0.94757 0.81875 0.0
H439 H 0.95365 0.00195 0.82289 0.0
Li440 Li 0.55658 0.08383 0.8699 0.0
Li441 Li 0.55449 0.05531 0.88557 0.0
Li442 Li 0.58462 0.05965 0.87198 0.0
Li443 Li 0.55448 0.04894 0.86083 0.0
C444 C 0.57105 0.08524 0.90031 0.0
N445 N 0.56559 0.09835 0.92809 0.0
C446 C 0.55542 0.09796 0.90366 0.0
C447 C 0.58391 0.07922 0.91111 0.0
C448 C 0.55293 0.10445 0.91775 0.0
C449 C 0.58089 0.08598 0.92508 0.0
C450 C 0.51725 0.06351 0.87842 0.0
C451 C 0.49139 0.0441 0.88926 0.0
N452 N 0.48193 0.06148 0.89265 0.0
C453 C 0.50724 0.08119 0.88198 0.0
C454 C 0.50924 0.04481 0.88204 0.0
C455 C 0.48941 0.07984 0.88918 0.0
C456 C 0.53449 0.11405 0.85679 0.0
N457 N 0.54936 0.11088 0.86615 0.0
C458 C 0.55145 0.14609 0.87119 0.0
C459 C 0.55826 0.12643 0.87301 0.0
C460 C 0.53549 0.14978 0.86208 0.0
C461 C 0.5273 0.13347 0.85457 0.0
H462 H 0.52788 0.10136 0.85137 0.0
H463 H 0.57025 0.12347 0.88024 0.0
C464 C 0.55472 0.02962 0.90924 0.0
N465 N 0.54578 0.04628 0.90389 0.0
C466 C 0.55001 0.02254 0.92285 0.0
C467 C 0.52699 0.04996 0.92524 0.0
C468 C 0.5322 0.05652 0.91162 0.0
C469 C 0.53599 0.03279 0.93105 0.0
H470 H 0.56578 0.02199 0.90302 0.0
H471 H 0.52551 0.06994 0.90734 0.0
C472 C 0.58342 0.08522 0.84782 0.0
N473 N 0.6054 0.11484 0.83469 0.0
C474 C 0.58299 0.08734 0.83296 0.0
C475 C 0.59497 0.09822 0.85602 0.0
C476 C 0.59423 0.10238 0.82652 0.0
C477 C 0.60599 0.11308 0.84917 0.0
C478 C 0.56993 0.01589 0.86992 0.0
C479 C 0.58459 0.01016 0.86036 0.0
C480 C 0.55499 0.00235 0.87331 0.0
C481 C 0.58395 0.99097 0.85422 0.0
C482 C 0.55488 0.9833 0.86695 0.0
N483 N 0.56922 0.97806 0.8576 0.0
C484 C 0.61979 0.04792 0.88432 0.0
C485 C 0.6227 0.05612 0.85975 0.0
C486 C 0.63922 0.04167 0.88479 0.0
N487 N 0.61196 0.05499 0.87195 0.0
C488 C 0.64222 0.05002 0.85973 0.0
C489 C 0.65064 0.04243 0.87233 0.0
H490 H 0.61069 0.04638 0.89368 0.0
H491 H 0.61596 0.0609 0.84988 0.0
C492 C 0.52724 0.02449 0.84551 0.0
N493 N 0.54524 0.03313 0.84539 0.0
C494 C 0.52041 0.01424 0.83347 0.0
C495 C 0.55098 0.02155 0.82161 0.0
C496 C 0.55723 0.03157 0.83388 0.0
C497 C 0.53219 0.01304 0.8212 0.0
H498 H 0.51801 0.02596 0.85479 0.0
H499 H 0.57147 0.03861 0.83412 0.0
O500 O 0.57357 0.07853 0.88658 0.0
O501 O 0.53464 0.06455 0.87125 0.0
O502 O 0.57228 0.07071 0.85425 0.0
O503 O 0.56999 0.0348 0.87573 0.0
H504 H 0.54502 0.1024 0.89555 0.0
H505 H 0.59608 0.06942 0.90876 0.0
H506 H 0.54082 0.11418 0.92049 0.0
H507 H 0.59071 0.08138 0.93354 0.0
H508 H 0.4851 0.02973 0.89221 0.0
H509 H 0.51321 0.0958 0.87933 0.0
H510 H 0.51689 0.031 0.87955 0.0
H511 H 0.48155 0.09339 0.89205 0.0
H512 H 0.55815 0.15812 0.87729 0.0
H513 H 0.51527 0.13564 0.8472 0.0
H514 H 0.55755 0.00944 0.92701 0.0
H515 H 0.51597 0.05821 0.93112 0.0
H516 H 0.57403 0.07746 0.82647 0.0
H517 H 0.59548 0.09684 0.86753 0.0
H518 H 0.59405 0.10418 0.81502 0.0
H519 H 0.615 0.12322 0.85538 0.0
H520 H 0.59619 0.0205 0.85756 0.0
H521 H 0.54357 0.00655 0.88072 0.0
H522 H 0.59513 0.98637 0.84673 0.0
H523 H 0.54336 0.97269 0.86942 0.0
H524 H 0.64513 0.03595 0.89474 0.0
H525 H 0.65035 0.05043 0.8498 0.0
H526 H 0.50588 0.00777 0.83363 0.0
H527 H 0.56043 0.02135 0.81233 0.0
Li528 Li 0.41174 0.0578 0.62319 0.0
Li529 Li 0.44085 0.05379 0.63707 0.0
Li530 Li 0.43521 0.08459 0.62413 0.0
Li531 Li 0.44275 0.05411 0.61159 0.0
C532 C 0.409 0.06833 0.65204 0.0
N533 N 0.38775 0.05744 0.67594 0.0
C534 C 0.40224 0.04856 0.65359 0.0
C535 C 0.40494 0.08256 0.66264 0.0
C536 C 0.39153 0.04335 0.66574 0.0
C537 C 0.39417 0.07676 0.67465 0.0
C538 C 0.43953 0.01644 0.62378 0.0
C539 C 0.46998 0.99833 0.62567 0.0
N540 N 0.46021 0.98066 0.62387 0.0
C541 C 0.4298 0.9981 0.62196 0.0
C542 C 0.4598 0.01658 0.62567 0.0
C543 C 0.44051 0.98018 0.62204 0.0
C544 C 0.38227 0.03373 0.61288 0.0
N545 N 0.38524 0.05018 0.62123 0.0
C546 C 0.35121 0.0522 0.62661 0.0
C547 C 0.37021 0.05968 0.62792 0.0
C548 C 0.34779 0.03483 0.61836 0.0
C549 C 0.36358 0.02575 0.61129 0.0
H550 H 0.39453 0.02666 0.60759 0.0
H551 H 0.37302 0.07279 0.63448 0.0
C552 C 0.46595 0.05402 0.66045 0.0
N553 N 0.45157 0.04313 0.65411 0.0
C554 C 0.47412 0.04753 0.6733 0.0
C555 C 0.45256 0.01865 0.67282 0.0
C556 C 0.4449 0.02565 0.65991 0.0
C557 C 0.46725 0.02975 0.67976 0.0
H558 H 0.47093 0.06787 0.65555 0.0
H559 H 0.43343 0.01727 0.65464 0.0
C560 C 0.40771 0.08678 0.60233 0.0
N561 N 0.37902 0.11299 0.59303 0.0
C562 C 0.40371 0.08866 0.58774 0.0
C563 C 0.39713 0.09823 0.6122 0.0
C564 C 0.38915 0.102 0.58325 0.0
C565 C 0.38268 0.11139 0.60728 0.0
C566 C 0.47424 0.07902 0.61809 0.0
C567 C 0.47091 0.08663 0.60436 0.0
C568 C 0.49236 0.08206 0.62463 0.0
C569 C 0.48578 0.09719 0.59741 0.0
C570 C 0.50687 0.09271 0.61732 0.0
N571 N 0.5033 0.09999 0.60398 0.0
C572 C 0.44408 0.12091 0.63778 0.0
C573 C 0.44091 0.12398 0.61263 0.0
C574 C 0.44998 0.141 0.63887 0.0
N575 N 0.43992 0.1128 0.62479 0.0
C576 C 0.4468 0.1441 0.61321 0.0
C577 C 0.45173 0.1528 0.62645 0.0
H578 H 0.44333 0.11157 0.64724 0.0
H579 H 0.43781 0.11709 0.6024 0.0
C580 C 0.44202 0.03769 0.58451 0.0
N581 N 0.45445 0.04239 0.59532 0.0
C582 C 0.4491 0.029 0.57199 0.0
C583 C 0.48167 0.03002 0.58203 0.0
C584 C 0.47392 0.03857 0.59442 0.0
C585 C 0.46918 0.02519 0.57062 0.0
H586 H 0.42659 0.04083 0.58563 0.0
H587 H 0.48343 0.0422 0.60329 0.0
O588 O 0.41961 0.07388 0.64029 0.0
O589 O 0.42914 0.03407 0.6237 0.0
O590 O 0.42191 0.07369 0.6068 0.0
O591 O 0.4599 0.06877 0.62524 0.0
H592 H 0.40519 0.03732 0.64551 0.0
H593 H 0.41007 0.09792 0.6616 0.0
H594 H 0.38622 0.02811 0.66707 0.0
H595 H 0.39093 0.08762 0.68294 0.0
H596 H 0.48566 0.99822 0.62712 0.0
H597 H 0.41411 0.99773 0.62052 0.0
H598 H 0.46762 0.03057 0.62715 0.0
H599 H 0.43316 0.96588 0.62064 0.0
H600 H 0.33944 0.05958 0.63231 0.0
H601 H 0.36154 0.01257 0.60462 0.0
H602 H 0.48563 0.0564 0.67815 0.0
H603 H 0.44666 0.00501 0.67749 0.0
H604 H 0.41178 0.07989 0.57997 0.0
H605 H 0.40001 0.09706 0.62352 0.0
H606 H 0.38589 0.1036 0.57199 0.0
H607 H 0.37438 0.12035 0.6148 0.0
H608 H 0.45703 0.08443 0.59909 0.0
H609 H 0.49519 0.07627 0.63525 0.0
H610 H 0.48339 0.10317 0.58679 0.0
H611 H 0.52096 0.09518 0.62226 0.0
H612 H 0.45338 0.14713 0.64931 0.0
H613 H 0.44822 0.1525 0.60334 0.0
H614 H 0.43904 0.0257 0.56336 0.0
H615 H 0.49722 0.02713 0.58141 0.0
Li616 Li 0.06028 0.9501 0.63596 0.0
Li617 Li 0.08792 0.93988 0.62224 0.0
Li618 Li 0.05561 0.94632 0.61132 0.0
Li619 Li 0.05978 0.91615 0.62581 0.0
C620 C 0.07625 0.98444 0.62573 0.0
N621 N 0.08191 0.02306 0.63603 0.0
C622 C 0.09466 0.99041 0.63064 0.0
C623 C 0.06079 0.9982 0.62591 0.0
C624 C 0.09721 0.00998 0.63584 0.0
C625 C 0.06392 0.01762 0.63121 0.0
C626 C 0.08007 0.929 0.65465 0.0
C627 C 0.0655 0.92612 0.67805 0.0
N628 N 0.08185 0.93431 0.68394 0.0
C629 C 0.09672 0.93741 0.66094 0.0
C630 C 0.06434 0.92328 0.66327 0.0
C631 C 0.09734 0.93993 0.67576 0.0
C632 C 0.03406 0.96343 0.65716 0.0
N633 N 0.05268 0.96545 0.65237 0.0
C634 C 0.06098 0.98586 0.67253 0.0
C635 C 0.06605 0.97656 0.6597 0.0
C636 C 0.04208 0.98335 0.67807 0.0
C637 C 0.02842 0.97225 0.67005 0.0
H638 H 0.02381 0.95416 0.65132 0.0
H639 H 0.08092 0.97745 0.65597 0.0
C640 C 0.11979 0.95519 0.60793 0.0
N641 N 0.11492 0.94254 0.61877 0.0
C642 C 0.13924 0.96041 0.60566 0.0
C643 C 0.14842 0.93849 0.62521 0.0
C644 C 0.12872 0.93369 0.62712 0.0
C645 C 0.1538 0.95246 0.61461 0.0
H646 H 0.10842 0.96186 0.60144 0.0
H647 H 0.12439 0.92346 0.63553 0.0
C648 C 0.02021 0.93905 0.6212 0.0
N649 N 0.98375 0.94554 0.60938 0.0
C650 C 0.00918 0.92281 0.61616 0.0
C651 C 0.01255 0.95855 0.62045 0.0
C652 C 0.99081 0.9264 0.61017 0.0
C653 C 0.99414 0.96154 0.61437 0.0
C654 C 0.08497 0.9081 0.60281 0.0
C655 C 0.08604 0.90403 0.58818 0.0
C656 C 0.09574 0.8964 0.61244 0.0
C657 C 0.09792 0.88829 0.5834 0.0
C658 C 0.10744 0.8808 0.60723 0.0
N659 N 0.10828 0.8771 0.59294 0.0
C660 C 0.04781 0.97509 0.59008 0.0
C661 C 0.03267 0.94337 0.58639 0.0
C662 C 0.04049 0.98221 0.57712 0.0
N663 N 0.0438 0.95599 0.59441 0.0
C664 C 0.02484 0.94994 0.57343 0.0
C665 C 0.02892 0.96954 0.56854 0.0
H666 H 0.05715 0.98461 0.59648 0.0
H667 H 0.03013 0.92808 0.58996 0.0
C668 C 0.05214 0.87819 0.6394 0.0
N669 N 0.05209 0.88864 0.62689 0.0
C670 C 0.04517 0.85839 0.63982 0.0
C671 C 0.03908 0.86024 0.61439 0.0
C672 C 0.04592 0.88004 0.61449 0.0
C673 C 0.03841 0.84926 0.62721 0.0
H674 H 0.05742 0.88521 0.64906 0.0
H675 H 0.04595 0.88875 0.60472 0.0
O676 O 0.07349 0.96537 0.6205 0.0
O677 O 0.07902 0.92679 0.64011 0.0
O678 O 0.03833 0.93588 0.62695 0.0
O679 O 0.07335 0.92344 0.60761 0.0
H680 H 0.10679 0.97999 0.63068 0.0
H681 H 0.04652 0.99395 0.62199 0.0
H682 H 0.11134 0.01475 0.63977 0.0
H683 H 0.05205 0.02838 0.63147 0.0
H684 H 0.05335 0.92197 0.68483 0.0
H685 H 0.10889 0.94227 0.65444 0.0
H686 H 0.05112 0.91727 0.65857 0.0
H687 H 0.11009 0.94651 0.68076 0.0
H688 H 0.07198 0.99438 0.67826 0.0
H689 H 0.01381 0.96948 0.67402 0.0
H690 H 0.1428 0.97095 0.5972 0.0
H691 H 0.1592 0.93206 0.63237 0.0
H692 H 0.01475 0.90759 0.61682 0.0
H693 H 0.02076 0.97124 0.6245 0.0
H694 H 0.98217 0.91398 0.60614 0.0
H695 H 0.98809 0.97657 0.61363 0.0
H696 H 0.07776 0.91295 0.58061 0.0
H697 H 0.09506 0.89928 0.6238 0.0
H698 H 0.09889 0.88496 0.57209 0.0
H699 H 0.11585 0.87163 0.61455 0.0
H700 H 0.04443 0.99725 0.57366 0.0
H701 H 0.01585 0.9397 0.56727 0.0
H702 H 0.04507 0.8503 0.64988 0.0
H703 H 0.03382 0.85379 0.60447 0.0
Li704 Li 0.5569 0.57818 0.12538 0.0
Li705 Li 0.55356 0.5461 0.13691 0.0
Li706 Li 0.58228 0.55336 0.12314 0.0
Li707 Li 0.55153 0.54816 0.11151 0.0
C708 C 0.58742 0.58073 0.14496 0.0
N709 N 0.61549 0.60831 0.15323 0.0
C710 C 0.59348 0.58168 0.15921 0.0
C711 C 0.59565 0.59381 0.1349 0.0
C712 C 0.60768 0.59573 0.16319 0.0
C713 C 0.60982 0.60764 0.1393 0.0
C714 C 0.51966 0.56888 0.13421 0.0
C715 C 0.4863 0.57875 0.13864 0.0
N716 N 0.49168 0.58614 0.15163 0.0
C717 C 0.52486 0.57657 0.14761 0.0
C718 C 0.50024 0.56998 0.12969 0.0
C719 C 0.5105 0.58523 0.15625 0.0
C720 C 0.54119 0.61298 0.11401 0.0
N721 N 0.54994 0.60583 0.12602 0.0
C722 C 0.54481 0.63718 0.13802 0.0
C723 C 0.55191 0.61743 0.13792 0.0
C724 C 0.53536 0.64483 0.12583 0.0
C725 C 0.53373 0.63253 0.11368 0.0
H726 H 0.53964 0.60327 0.10478 0.0
H727 H 0.55849 0.61122 0.14746 0.0
C728 C 0.55943 0.52688 0.16281 0.0
N729 N 0.54517 0.53211 0.15343 0.0
C730 C 0.5547 0.51721 0.17558 0.0
C731 C 0.52068 0.5181 0.16863 0.0
C732 C 0.52611 0.52755 0.15591 0.0
C733 C 0.53504 0.51306 0.17878 0.0
H734 H 0.5745 0.53046 0.16041 0.0
H735 H 0.51508 0.53157 0.14815 0.0
C736 C 0.57945 0.56693 0.09477 0.0
N737 N 0.59698 0.56072 0.06853 0.0
C738 C 0.58784 0.54826 0.09153 0.0
C739 C 0.57997 0.58242 0.08466 0.0
C740 C 0.59663 0.54542 0.07822 0.0
C741 C 0.5889 0.57899 0.07145 0.0
C742 C 0.55748 0.50997 0.12268 0.0
C743 C 0.5686 0.49231 0.12273 0.0
C744 C 0.53709 0.50873 0.12248 0.0
C745 C 0.55913 0.47365 0.12259 0.0
C746 C 0.52817 0.48979 0.12235 0.0
N747 N 0.53928 0.47279 0.12241 0.0
C748 C 0.61529 0.53148 0.12974 0.0
C749 C 0.6223 0.55965 0.11499 0.0
C750 C 0.63477 0.52545 0.12938 0.0
N751 N 0.60944 0.54814 0.12248 0.0
C752 C 0.64197 0.55412 0.1143 0.0
C753 C 0.64837 0.53666 0.12143 0.0
H754 H 0.60471 0.52277 0.1357 0.0
H755 H 0.61723 0.57288 0.10934 0.0
C756 C 0.52334 0.54855 0.08993 0.0
N757 N 0.53926 0.53843 0.09479 0.0
C758 C 0.51447 0.54286 0.07712 0.0
C759 C 0.53852 0.51638 0.07465 0.0
C760 C 0.54679 0.52246 0.08757 0.0
C761 C 0.52222 0.52673 0.06919 0.0
H762 H 0.51775 0.56124 0.09593 0.0
H763 H 0.55951 0.51471 0.09167 0.0
O764 O 0.57359 0.56693 0.14099 0.0
O765 O 0.53343 0.56051 0.12542 0.0
O766 O 0.5706 0.57013 0.10768 0.0
O767 O 0.56666 0.5283 0.12283 0.0
H768 H 0.58725 0.57163 0.16712 0.0
H769 H 0.59114 0.59338 0.12384 0.0
H770 H 0.6125 0.59663 0.17418 0.0
H771 H 0.6163 0.61785 0.13163 0.0
H772 H 0.47122 0.57971 0.13527 0.0
H773 H 0.53978 0.57587 0.15134 0.0
H774 H 0.49598 0.56412 0.11934 0.0
H775 H 0.51432 0.59124 0.16664 0.0
H776 H 0.54613 0.64613 0.14765 0.0
H777 H 0.52667 0.63795 0.10405 0.0
H778 H 0.56631 0.51324 0.18292 0.0
H779 H 0.50533 0.5154 0.17067 0.0
H780 H 0.58757 0.53607 0.0992 0.0
H781 H 0.5735 0.59695 0.087 0.0
H782 H 0.60317 0.53105 0.07558 0.0
H783 H 0.5894 0.59086 0.06352 0.0
H784 H 0.5844 0.49302 0.12286 0.0
H785 H 0.5282 0.52218 0.12239 0.0
H786 H 0.56756 0.45986 0.12263 0.0
H787 H 0.51241 0.48861 0.1222 0.0
H788 H 0.63913 0.51213 0.13528 0.0
H789 H 0.65192 0.56312 0.10796 0.0
H790 H 0.50176 0.55109 0.07345 0.0
H791 H 0.54521 0.50409 0.06882 0.0
Li792 Li 0.93605 0.41982 0.12515 0.0
Li793 Li 0.93972 0.45095 0.13791 0.0
Li794 Li 0.91197 0.44612 0.12256 0.0
Li795 Li 0.94383 0.45054 0.11261 0.0
C796 C 0.90368 0.41773 0.14322 0.0
N797 N 0.87348 0.3915 0.14937 0.0
C798 C 0.89671 0.41601 0.1572 0.0
C799 C 0.89526 0.40614 0.13235 0.0
C800 C 0.88144 0.40264 0.1601 0.0
C801 C 0.88002 0.39296 0.13568 0.0
C802 C 0.97285 0.42686 0.13591 0.0
C803 C 0.00542 0.4156 0.14162 0.0
N804 N 0.99856 0.40705 0.15385 0.0
C805 C 0.9661 0.41794 0.14853 0.0
C806 C 0.99265 0.42566 0.13241 0.0
C807 C 0.97934 0.40801 0.15745 0.0
C808 C 0.95486 0.38635 0.11468 0.0
N809 N 0.94226 0.39188 0.12519 0.0
C810 C 0.94337 0.35881 0.13532 0.0
C811 C 0.93647 0.37864 0.13547 0.0
C812 C 0.95674 0.35289 0.12476 0.0
C813 C 0.96244 0.36685 0.11432 0.0
H814 H 0.95945 0.39734 0.10682 0.0
H815 H 0.92702 0.38353 0.14402 0.0
C816 C 0.93187 0.46955 0.16363 0.0
N817 N 0.94697 0.4634 0.1553 0.0
C818 C 0.93543 0.47815 0.17697 0.0
C819 C 0.97008 0.47431 0.17277 0.0
C820 C 0.96584 0.46607 0.1594 0.0
C821 C 0.95475 0.48021 0.18187 0.0
H822 H 0.91702 0.46752 0.15993 0.0
H823 H 0.9776 0.46146 0.15243 0.0
C824 C 0.91689 0.43403 0.09396 0.0
N825 N 0.90286 0.44268 0.06695 0.0
C826 C 0.90972 0.45327 0.09083 0.0
C827 C 0.91696 0.41921 0.08335 0.0
C828 C 0.90268 0.45734 0.07711 0.0
C829 C 0.90979 0.42387 0.06976 0.0
C830 C 0.93864 0.48816 0.12497 0.0
C831 C 0.92834 0.50633 0.12529 0.0
C832 C 0.95904 0.48835 0.1258 0.0
C833 C 0.93863 0.52446 0.12641 0.0
C834 C 0.96879 0.50679 0.12692 0.0
N835 N 0.95847 0.5243 0.1272 0.0
C836 C 0.87948 0.46876 0.12892 0.0
C837 C 0.87241 0.44266 0.11238 0.0
C838 C 0.86025 0.47555 0.12836 0.0
N839 N 0.88518 0.45274 0.12093 0.0
C840 C 0.85298 0.44898 0.11146 0.0
C841 C 0.84674 0.46575 0.11944 0.0
H842 H 0.88998 0.47631 0.13572 0.0
H843 H 0.87734 0.42988 0.10618 0.0
C844 C 0.97121 0.44831 0.09065 0.0
N845 N 0.95735 0.46042 0.09648 0.0
C846 C 0.9796 0.45327 0.07752 0.0
C847 C 0.95969 0.4834 0.07694 0.0
C848 C 0.95171 0.47786 0.09007 0.0
C849 C 0.9735 0.47079 0.07036 0.0
H850 H 0.97512 0.43436 0.09593 0.0
H851 H 0.94042 0.48705 0.09483 0.0
O852 O 0.91846 0.43097 0.14027 0.0
O853 O 0.96021 0.43642 0.12682 0.0
O854 O 0.92427 0.42973 0.10722 0.0
O855 O 0.92865 0.47034 0.12396 0.0
H856 H 0.90303 0.42494 0.16572 0.0
H857 H 0.90047 0.4072 0.12147 0.0
H858 H 0.87591 0.40115 0.17088 0.0
H859 H 0.87339 0.38389 0.12738 0.0
H860 H 0.02079 0.41456 0.13904 0.0
H861 H 0.95085 0.41864 0.15143 0.0
H862 H 0.99807 0.43241 0.12264 0.0
H863 H 0.97432 0.40104 0.16724 0.0
H864 H 0.9389 0.34844 0.14364 0.0
H865 H 0.97276 0.36273 0.10603 0.0
H866 H 0.92314 0.48289 0.18343 0.0
H867 H 0.98519 0.47539 0.17609 0.0
H868 H 0.90968 0.46499 0.09887 0.0
H869 H 0.92258 0.40428 0.0856 0.0
H870 H 0.89711 0.47216 0.07454 0.0
H871 H 0.90976 0.41255 0.06144 0.0
H872 H 0.91255 0.50643 0.12467 0.0
H873 H 0.9673 0.47448 0.12556 0.0
H874 H 0.93084 0.53864 0.12667 0.0
H875 H 0.98456 0.50716 0.12757 0.0
H876 H 0.85599 0.48827 0.13492 0.0
H877 H 0.84308 0.44107 0.10439 0.0
H878 H 0.99002 0.44302 0.07273 0.0
H879 H 0.95474 0.49712 0.07182 0.0
Li880 Li 0.05927 0.44362 0.3856 0.0
Li881 Li 0.08768 0.43896 0.37127 0.0
Li882 Li 0.05764 0.44862 0.35907 0.0
Li883 Li 0.06295 0.415 0.36887 0.0
C884 C 0.08627 0.47863 0.37429 0.0
N885 N 0.11633 0.5064 0.37529 0.0
C886 C 0.09154 0.48753 0.38728 0.0
C887 C 0.09627 0.48389 0.3618 0.0
C888 C 0.10676 0.50155 0.38756 0.0
C889 C 0.11145 0.49793 0.36254 0.0
C890 C 0.09345 0.41704 0.39503 0.0
C891 C 0.12364 0.39946 0.39966 0.0
N892 N 0.12542 0.40949 0.41227 0.0
C893 C 0.0955 0.42707 0.40809 0.0
C894 C 0.10754 0.40299 0.39083 0.0
C895 C 0.1118 0.42308 0.41664 0.0
C896 C 0.04288 0.4373 0.41258 0.0
N897 N 0.04781 0.45174 0.40294 0.0
C898 C 0.03555 0.47762 0.41819 0.0
C899 C 0.04421 0.47157 0.4054 0.0
C900 C 0.03053 0.46308 0.42848 0.0
C901 C 0.03422 0.44266 0.42552 0.0
H902 H 0.04582 0.42163 0.41021 0.0
H903 H 0.04795 0.48267 0.39739 0.0
C904 C 0.12482 0.44091 0.35825 0.0
N905 N 0.11531 0.44345 0.37088 0.0
C906 C 0.1444 0.44646 0.35694 0.0
C907 C 0.1442 0.45662 0.38176 0.0
C908 C 0.12462 0.45099 0.38256 0.0
C909 C 0.15424 0.45468 0.36876 0.0
H910 H 0.11702 0.43525 0.34904 0.0
H911 H 0.11665 0.45357 0.39233 0.0
C912 C 0.02203 0.44101 0.37346 0.0
N913 N 0.98565 0.45801 0.37761 0.0
C914 C 0.0056 0.42871 0.37493 0.0
C915 C 0.01999 0.46196 0.37409 0.0
C916 C 0.98732 0.43759 0.37702 0.0
C917 C 0.00146 0.47026 0.3762 0.0
C918 C 0.07931 0.41286 0.34379 0.0
C919 C 0.06773 0.41177 0.33151 0.0
C920 C 0.0928 0.39758 0.34665 0.0
C921 C 0.06957 0.39516 0.32243 0.0
C922 C 0.0942 0.3812 0.33732 0.0
N923 N 0.08263 0.38033 0.32551 0.0
C924 C 0.04928 0.48211 0.34076 0.0
C925 C 0.0299 0.45277 0.33775 0.0
C926 C 0.03943 0.49173 0.32959 0.0
N927 N 0.04457 0.46286 0.3444 0.0
C928 C 0.01959 0.46183 0.32664 0.0
C929 C 0.02445 0.48149 0.32235 0.0
H930 H 0.06069 0.48996 0.34645 0.0
H931 H 0.02641 0.43753 0.34097 0.0
C932 C 0.0627 0.37317 0.37486 0.0
N933 N 0.05544 0.3878 0.3662 0.0
C934 C 0.05586 0.35341 0.37372 0.0
C935 C 0.03451 0.36413 0.35456 0.0
C936 C 0.04164 0.3837 0.35617 0.0
C937 C 0.0414 0.3487 0.36357 0.0
H938 H 0.07339 0.37697 0.38294 0.0
H939 H 0.03594 0.39574 0.34958 0.0
O940 O 0.07164 0.46459 0.37384 0.0
O941 O 0.07753 0.42066 0.38656 0.0
O942 O 0.04001 0.43248 0.37144 0.0
O943 O 0.07749 0.42881 0.35297 0.0
H944 H 0.08417 0.48343 0.39708 0.0
H945 H 0.09264 0.47685 0.35171 0.0
H946 H 0.11105 0.50849 0.39754 0.0
H947 H 0.11943 0.50199 0.35298 0.0
H948 H 0.13471 0.38871 0.39649 0.0
H949 H 0.0848 0.43803 0.41152 0.0
H950 H 0.10609 0.39493 0.38084 0.0
H951 H 0.11364 0.43084 0.42672 0.0
H952 H 0.03263 0.49348 0.41993 0.0
H953 H 0.03075 0.431 0.43321 0.0
H954 H 0.15168 0.44466 0.34674 0.0
H955 H 0.15112 0.46327 0.39104 0.0
H956 H 0.00697 0.41246 0.37445 0.0
H957 H 0.03255 0.47172 0.37297 0.0
H958 H 0.97446 0.42826 0.37817 0.0
H959 H -0.00033 0.48645 0.37673 0.0
H960 H 0.05739 0.42357 0.32902 0.0
H961 H 0.10203 0.39832 0.35602 0.0
H962 H 0.06061 0.39405 0.31293 0.0
H963 H 0.10448 0.36919 0.33947 0.0
H964 H 0.04348 0.50695 0.32662 0.0
H965 H 0.00835 0.45329 0.32118 0.0
H966 H 0.06135 0.34214 0.38107 0.0
H967 H 0.02357 0.36119 0.34647 0.0
Li968 Li 0.44062 0.556 0.38225 0.0
Li969 Li 0.41099 0.56151 0.3683 0.0
Li970 Li 0.44276 0.55243 0.35679 0.0
Li971 Li 0.43778 0.58628 0.36635 0.0
C972 C 0.42629 0.51915 0.37808 0.0
N973 N 0.426 0.4849 0.3949 0.0
C974 C 0.40899 0.51281 0.38461 0.0
C975 C 0.44338 0.50792 0.37994 0.0
C976 C 0.40916 0.49549 0.39311 0.0
C977 C 0.44295 0.4907 0.38854 0.0
C978 C 0.40955 0.59126 0.39071 0.0
C979 C 0.3895 0.62114 0.39181 0.0
N980 N 0.38448 0.61645 0.40548 0.0
C981 C 0.40442 0.58691 0.40485 0.0
C982 C 0.40222 0.60866 0.3842 0.0
C983 C 0.39163 0.59975 0.4121 0.0
C984 C 0.46904 0.54875 0.40348 0.0
N985 N 0.44977 0.54703 0.40024 0.0
C986 C 0.44287 0.53365 0.42338 0.0
C987 C 0.43669 0.53969 0.40984 0.0
C988 C 0.46267 0.53541 0.42712 0.0
C989 C 0.47586 0.54297 0.41693 0.0
H990 H 0.47905 0.55493 0.3957 0.0
H991 H 0.42142 0.53869 0.40701 0.0
C992 C 0.37575 0.55083 0.35521 0.0
N993 N 0.38374 0.55671 0.36785 0.0
C994 C 0.35628 0.54467 0.3546 0.0
C995 C 0.35358 0.55102 0.37998 0.0
C996 C 0.37308 0.55707 0.38009 0.0
C997 C 0.34504 0.54436 0.36716 0.0
H998 H 0.38472 0.55029 0.34571 0.0
H999 H 0.37992 0.56119 0.39007 0.0
C1000 C 0.47837 0.56565 0.36331 0.0
N1001 N 0.51422 0.56037 0.35027 0.0
C1002 C 0.48658 0.58121 0.35522 0.0
C1003 C 0.48852 0.54751 0.36493 0.0
C1004 C 0.5047 0.57822 0.34868 0.0
C1005 C 0.50658 0.5451 0.3582 0.0
C1006 C 0.41387 0.58541 0.34127 0.0
C1007 C 0.42084 0.5875 0.3273 0.0
C1008 C 0.3971 0.59586 0.34545 0.0
C1009 C 0.41117 0.60041 0.31785 0.0
C1010 C 0.38783 0.60862 0.33569 0.0
N1011 N 0.39502 0.61064 0.32221 0.0
C1012 C 0.45248 0.51781 0.34036 0.0
C1013 C 0.46374 0.54912 0.33131 0.0
C1014 C 0.46049 0.50762 0.32867 0.0
N1015 N 0.45427 0.53817 0.34142 0.0
C1016 C 0.47207 0.53958 0.31954 0.0
C1017 C 0.47044 0.51857 0.31809 0.0
H1018 H 0.44463 0.50952 0.34847 0.0
H1019 H 0.46461 0.56532 0.3323 0.0
C1020 C 0.44971 0.6232 0.37722 0.0
N1021 N 0.44491 0.61383 0.36479 0.0
C1022 C 0.4567 0.64294 0.37708 0.0
C1023 C 0.45355 0.64311 0.35133 0.0
C1024 C 0.44664 0.62332 0.35197 0.0
C1025 C 0.4589 0.65308 0.36399 0.0
H1026 H 0.44841 0.61516 0.38724 0.0
H1027 H 0.44332 0.61537 0.34221 0.0
O1028 O 0.42647 0.53621 0.36985 0.0
O1029 O 0.4222 0.5789 0.38352 0.0
O1030 O 0.46052 0.56819 0.36963 0.0
O1031 O 0.42315 0.57273 0.35062 0.0
H1032 H 0.3956 0.52121 0.3832 0.0
H1033 H 0.45684 0.51251 0.37487 0.0
H1034 H 0.3959 0.49047 0.39829 0.0
H1035 H 0.4561 0.48195 0.39015 0.0
H1036 H 0.3837 0.63462 0.38687 0.0
H1037 H 0.41014 0.57369 0.41015 0.0
H1038 H 0.4065 0.61269 0.37347 0.0
H1039 H 0.38743 0.59645 0.423 0.0
H1040 H 0.43224 0.52767 0.43083 0.0
H1041 H 0.4912 0.54488 0.41943 0.0
H1042 H 0.35038 0.53936 0.34454 0.0
H1043 H 0.3454 0.55113 0.38989 0.0
H1044 H 0.479 0.59538 0.35391 0.0
H1045 H 0.48249 0.53539 0.37126 0.0
H1046 H 0.51116 0.59009 0.34231 0.0
H1047 H 0.51453 0.53109 0.35929 0.0
H1048 H 0.43363 0.57933 0.3238 0.0
H1049 H 0.39112 0.59397 0.35604 0.0
H1050 H 0.41649 0.60228 0.30704 0.0
H1051 H 0.37487 0.61683 0.33881 0.0
H1052 H 0.45891 0.49142 0.3279 0.0
H1053 H 0.47925 0.54864 0.31147 0.0
H1054 H 0.46047 0.65014 0.3871 0.0
H1055 H 0.45533 0.65027 0.341 0.0
Li1056 Li 0.43839 0.44744 0.88386 0.0
Li1057 Li 0.43478 0.41667 0.86976 0.0
Li1058 Li 0.44199 0.44893 0.8582 0.0
Li1059 Li 0.40997 0.44187 0.86854 0.0
C1060 C 0.47678 0.43535 0.86723 0.0
N1061 N 0.51411 0.43882 0.85629 0.0
C1062 C 0.48552 0.41897 0.86034 0.0
C1063 C 0.48708 0.45343 0.86866 0.0
C1064 C 0.5044 0.42104 0.85486 0.0
C1065 C 0.50592 0.4549 0.86302 0.0
C1066 C 0.41608 0.40933 0.89338 0.0
C1067 C 0.4023 0.37623 0.8968 0.0
N1068 N 0.41383 0.37364 0.90851 0.0
C1069 C 0.42774 0.4064 0.90548 0.0
C1070 C 0.40318 0.3942 0.88903 0.0
C1071 C 0.42639 0.38823 0.91297 0.0
C1072 C 0.43378 0.46653 0.91053 0.0
N1073 N 0.44695 0.45777 0.90162 0.0
C1074 C 0.4723 0.46158 0.91893 0.0
C1075 C 0.4659 0.45513 0.90554 0.0
C1076 C 0.45907 0.47091 0.92826 0.0
C1077 C 0.43963 0.47354 0.92392 0.0
H1078 H 0.41865 0.46773 0.90734 0.0
H1079 H 0.47593 0.44763 0.89839 0.0
C1080 C 0.4332 0.37627 0.85962 0.0
N1081 N 0.44106 0.38886 0.86953 0.0
C1082 C 0.43926 0.35618 0.8589 0.0
C1083 C 0.46116 0.36246 0.87872 0.0
C1084 C 0.45464 0.38236 0.87907 0.0
C1085 C 0.45365 0.34916 0.8684 0.0
H1086 H 0.42261 0.38194 0.85205 0.0
H1087 H 0.46073 0.39282 0.88675 0.0
C1088 C 0.42531 0.48439 0.87739 0.0
N1089 N 0.4241 0.52004 0.89264 0.0
C1090 C 0.40784 0.49081 0.88364 0.0
C1091 C 0.44212 0.49619 0.87878 0.0
C1092 C 0.40754 0.50886 0.89132 0.0
C1093 C 0.44123 0.51413 0.88658 0.0
C1094 C 0.4082 0.42726 0.84259 0.0
C1095 C 0.40808 0.44054 0.83099 0.0
C1096 C 0.39272 0.41376 0.84444 0.0
C1097 C 0.39234 0.44022 0.82148 0.0
C1098 C 0.37724 0.41393 0.8347 0.0
N1099 N 0.37737 0.42705 0.82352 0.0
C1100 C 0.46615 0.44978 0.83405 0.0
C1101 C 0.45251 0.4815 0.84022 0.0
C1102 C 0.47566 0.45826 0.82235 0.0
N1103 N 0.4551 0.46149 0.84279 0.0
C1104 C 0.46138 0.49052 0.82839 0.0
C1105 C 0.47318 0.4788 0.81941 0.0
H1106 H 0.46728 0.43377 0.83602 0.0
H1107 H 0.44323 0.49032 0.84715 0.0
C1108 C 0.3701 0.43982 0.87624 0.0
N1109 N 0.38309 0.44798 0.86691 0.0
C1110 C 0.35072 0.44633 0.87628 0.0
C1111 C 0.3584 0.46906 0.85686 0.0
C1112 C 0.37764 0.46221 0.85725 0.0
C1113 C 0.34473 0.46141 0.86666 0.0
H1114 H 0.37498 0.42886 0.88401 0.0
H1115 H 0.38842 0.46871 0.85018 0.0
O1116 O 0.45823 0.4337 0.87254 0.0
O1117 O 0.4175 0.42682 0.88571 0.0
O1118 O 0.42596 0.46667 0.86993 0.0
O1119 O 0.42332 0.42755 0.85214 0.0
H1120 H 0.47774 0.4049 0.85905 0.0
H1121 H 0.48057 0.46621 0.87401 0.0
H1122 H 0.5113 0.40853 0.84942 0.0
H1123 H 0.51402 0.46884 0.86399 0.0
H1124 H 0.39248 0.36433 0.8935 0.0
H1125 H 0.43784 0.41793 0.90897 0.0
H1126 H 0.39412 0.39621 0.87966 0.0
H1127 H 0.43539 0.3857 0.92232 0.0
H1128 H 0.4874 0.45926 0.92199 0.0
H1129 H 0.42896 0.48036 0.93098 0.0
H1130 H 0.43326 0.34647 0.8507 0.0
H1131 H 0.47211 0.35759 0.88633 0.0
H1132 H 0.3947 0.48185 0.88271 0.0
H1133 H 0.45571 0.49151 0.87394 0.0
H1134 H 0.39415 0.51396 0.89628 0.0
H1135 H 0.45415 0.52336 0.8878 0.0
H1136 H 0.41993 0.45109 0.8294 0.0
H1137 H 0.39256 0.40345 0.8534 0.0
H1138 H 0.39201 0.45047 0.81249 0.0
H1139 H 0.3651 0.40367 0.83606 0.0
H1140 H 0.48433 0.44875 0.81539 0.0
H1141 H 0.45899 0.50637 0.82621 0.0
H1142 H 0.34077 0.44024 0.88417 0.0
H1143 H 0.35439 0.48052 0.84916 0.0
Li1144 Li 0.05306 0.54964 0.88559 0.0
Li1145 Li 0.05652 0.58058 0.87345 0.0
Li1146 Li 0.0581 0.54838 0.86069 0.0
Li1147 Li 0.08556 0.55815 0.87675 0.0
C1148 C 0.01735 0.55699 0.87555 0.0
N1149 N 0.98031 0.54951 0.886 0.0
C1150 C 0.00605 0.57278 0.88099 0.0
C1151 C 0.00975 0.53744 0.8753 0.0
C1152 C 0.98737 0.56868 0.88624 0.0
C1153 C 0.99102 0.53395 0.88068 0.0
C1154 C 0.06576 0.57531 0.90538 0.0
C1155 C 0.07051 0.56562 0.93 0.0
N1156 N 0.05625 0.57874 0.93399 0.0
C1157 C 0.05118 0.58873 0.90973 0.0
C1158 C 0.07558 0.56373 0.91559 0.0
C1159 C 0.0466 0.59025 0.92425 0.0
C1160 C 0.049 0.51841 0.90555 0.0
N1161 N 0.0412 0.53639 0.90152 0.0
C1162 C 0.02038 0.53662 0.922 0.0
C1163 C 0.02698 0.54544 0.90938 0.0
C1164 C 0.02857 0.51836 0.92663 0.0
C1165 C 0.04283 0.50905 0.91811 0.0
H1166 H 0.06051 0.51166 0.89927 0.0
H1167 H 0.02137 0.55997 0.90624 0.0
C1168 C 0.03386 0.61185 0.86213 0.0
N1169 N 0.04845 0.60779 0.87155 0.0
C1170 C 0.02684 0.63146 0.86063 0.0
C1171 C 0.05037 0.64245 0.87828 0.0
C1172 C 0.05697 0.6226 0.87942 0.0
C1173 C 0.03494 0.64705 0.8689 0.0
H1174 H 0.02756 0.59976 0.85589 0.0
H1175 H 0.0687 0.6189 0.88672 0.0
C1176 C 0.07476 0.51438 0.8687 0.0
N1177 N 0.0809 0.47879 0.85404 0.0
C1178 C 0.0929 0.51046 0.86244 0.0
C1179 C 0.05981 0.50012 0.86762 0.0
C1180 C 0.0957 0.49239 0.85504 0.0
C1181 C 0.06317 0.48224 0.86012 0.0
C1182 C 0.07724 0.58783 0.85032 0.0
C1183 C 0.06534 0.58905 0.8382 0.0
C1184 C 0.0893 0.60405 0.85394 0.0
C1185 C 0.0657 0.60654 0.82989 0.0
C1186 C 0.08922 0.62129 0.84536 0.0
N1187 N 0.07752 0.62217 0.83361 0.0
C1188 C 0.03466 0.5318 0.83862 0.0
C1189 C 0.06881 0.53194 0.83442 0.0
C1190 C 0.0312 0.52433 0.8249 0.0
N1191 N 0.05321 0.53563 0.84299 0.0
C1192 C 0.06605 0.52435 0.82068 0.0
C1193 C 0.04702 0.52087 0.81563 0.0
H1194 H 0.02251 0.53528 0.84556 0.0
H1195 H 0.08337 0.53548 0.83813 0.0
C1196 C 0.11889 0.54253 0.88969 0.0
N1197 N 0.11272 0.55523 0.87924 0.0
C1198 C 0.13851 0.53704 0.89056 0.0
C1199 C 0.14511 0.55816 0.87004 0.0
C1200 C 0.12534 0.56327 0.86959 0.0
C1201 C 0.15183 0.54451 0.88043 0.0
H1202 H 0.1084 0.53588 0.89692 0.0
H1203 H 0.11989 0.57284 0.86112 0.0
O1204 O 0.03563 0.56073 0.87027 0.0
O1205 O 0.07025 0.57339 0.89119 0.0
O1206 O 0.07161 0.53211 0.8758 0.0
O1207 O 0.07663 0.57111 0.85885 0.0
H1208 H 0.01172 0.58798 0.88134 0.0
H1209 H 0.01826 0.52507 0.87109 0.0
H1210 H 0.97851 0.58072 0.89056 0.0
H1211 H 0.985 0.51887 0.88063 0.0
H1212 H 0.07788 0.55663 0.938 0.0
H1213 H 0.04322 0.59761 0.90198 0.0
H1214 H 0.08683 0.55322 0.91242 0.0
H1215 H 0.03526 0.60048 0.92775 0.0
H1216 H 0.00964 0.54453 0.92839 0.0
H1217 H 0.04943 0.49489 0.92127 0.0
H1218 H 0.01519 0.63438 0.85307 0.0
H1219 H 0.05695 0.65396 0.88494 0.0
H1220 H 0.10463 0.52134 0.8631 0.0
H1221 H 0.04574 0.50285 0.8725 0.0
H1222 H 0.10962 0.48921 0.85007 0.0
H1223 H 0.0517 0.47112 0.85915 0.0
H1224 H 0.05576 0.57672 0.83534 0.0
H1225 H 0.0984 0.60344 0.8634 0.0
H1226 H 0.05652 0.60773 0.82051 0.0
H1227 H 0.09839 0.63401 0.84807 0.0
H1228 H 0.01627 0.52225 0.82137 0.0
H1229 H 0.07867 0.52174 0.81395 0.0
H1230 H 0.14309 0.52659 0.8988 0.0
H1231 H 0.15481 0.564 0.86188 0.0
Li1232 Li 0.91121 0.55681 0.6239 0.0
Li1233 Li 0.94337 0.55155 0.63464 0.0
Li1234 Li 0.93591 0.58327 0.62318 0.0
Li1235 Li 0.93998 0.55195 0.60966 0.0
C1236 C 0.91458 0.56664 0.65301 0.0
N1237 N 0.8975 0.55602 0.6787 0.0
C1238 C 0.9112 0.54634 0.65625 0.0
C1239 C 0.9093 0.58151 0.66286 0.0
C1240 C 0.90255 0.54129 0.66929 0.0
C1241 C 0.90066 0.57584 0.67578 0.0
C1242 C 0.9306 0.51453 0.61615 0.0
C1243 C 0.95198 0.4889 0.60664 0.0
N1244 N 0.93622 0.47891 0.60134 0.0
C1245 C 0.9146 0.50382 0.6108 0.0
C1246 C 0.94942 0.50683 0.61424 0.0
C1247 C 0.91774 0.48592 0.60328 0.0
C1248 C 0.8775 0.54296 0.61139 0.0
N1249 N 0.8839 0.5514 0.62377 0.0
C1250 C 0.85194 0.54906 0.63391 0.0
C1251 C 0.87146 0.5551 0.6348 0.0
C1252 C 0.84527 0.53922 0.62154 0.0
C1253 C 0.85821 0.53655 0.61008 0.0
H1254 H 0.88759 0.54078 0.60264 0.0
H1255 H 0.87662 0.56246 0.64437 0.0
C1256 C 0.96428 0.55395 0.66005 0.0
N1257 N 0.95694 0.54053 0.65049 0.0
C1258 C 0.97486 0.54723 0.67182 0.0
C1259 C 0.96922 0.51287 0.66417 0.0
C1260 C 0.959 0.5203 0.65236 0.0
C1261 C 0.97747 0.52647 0.67394 0.0
H1262 H 0.9619 0.56991 0.65848 0.0
H1263 H 0.95262 0.50996 0.64476 0.0
C1264 C 0.90547 0.58673 0.60391 0.0
N1265 N 0.87702 0.6147 0.59718 0.0
C1266 C 0.90033 0.59011 0.58965 0.0
C1267 C 0.89612 0.59755 0.61476 0.0
C1268 C 0.88592 0.60432 0.58646 0.0
C1269 C 0.88178 0.61163 0.61113 0.0
C1270 C 0.97759 0.56755 0.62738 0.0
C1271 C 0.98333 0.58501 0.63463 0.0
C1272 C 0.99015 0.55093 0.62708 0.0
C1273 C 0.00131 0.58539 0.6417 0.0
C1274 C 0.00799 0.55188 0.63431 0.0
N1275 N 0.01315 0.56894 0.64143 0.0
C1276 C 0.94073 0.62181 0.63559 0.0
C1277 C 0.94501 0.62037 0.61046 0.0
C1278 C 0.94644 0.64202 0.63578 0.0
N1279 N 0.9405 0.6114 0.62308 0.0
C1280 C 0.95062 0.64059 0.61013 0.0
C1281 C 0.95182 0.6516 0.62295 0.0
H1282 H 0.93733 0.61416 0.64548 0.0
H1283 H 0.94471 0.61163 0.60069 0.0
C1284 C 0.93469 0.53474 0.58267 0.0
N1285 N 0.94844 0.54146 0.59199 0.0
C1286 C 0.94024 0.52713 0.56938 0.0
C1287 C 0.97398 0.53358 0.5756 0.0
C1288 C 0.96777 0.54105 0.58877 0.0
C1289 C 0.96012 0.5266 0.56568 0.0
H1290 H 0.9194 0.53542 0.58556 0.0
H1291 H 0.97833 0.54663 0.59638 0.0
O1292 O 0.9233 0.57206 0.64042 0.0
O1293 O 0.92786 0.53233 0.62332 0.0
O1294 O 0.9195 0.57276 0.60713 0.0
O1295 O 0.95985 0.56678 0.62059 0.0
H1296 H 0.91512 0.53458 0.64881 0.0
H1297 H 0.91181 0.59728 0.66054 0.0
H1298 H 0.89984 0.52566 0.67192 0.0
H1299 H 0.89648 0.5872 0.68349 0.0
H1300 H 0.9665 0.48293 0.60496 0.0
H1301 H 0.89989 0.50912 0.61253 0.0
H1302 H 0.96192 0.51472 0.61847 0.0
H1303 H 0.90548 0.47755 0.59903 0.0
H1304 H 0.84235 0.55149 0.64295 0.0
H1305 H 0.8535 0.52942 0.60024 0.0
H1306 H 0.98065 0.55813 0.67934 0.0
H1307 H 0.97082 0.49675 0.6656 0.0
H1308 H 0.90741 0.5818 0.58114 0.0
H1309 H 0.89983 0.59512 0.62586 0.0
H1310 H 0.88179 0.6071 0.57547 0.0
H1311 H 0.87442 0.62011 0.61941 0.0
H1312 H 0.97399 0.59809 0.63493 0.0
H1313 H 0.9862 0.53738 0.62139 0.0
H1314 H 0.00583 0.59876 0.64744 0.0
H1315 H 0.01774 0.53905 0.63425 0.0
H1316 H 0.94739 0.64977 0.64594 0.0
H1317 H 0.95429 0.64741 0.59996 0.0
H1318 H 0.92907 0.52214 0.56198 0.0
H1319 H 0.98946 0.53323 0.57323 0.0
Li1320 Li 0.55669 0.44947 0.63429 0.0
Li1321 Li 0.58461 0.44217 0.6198 0.0
Li1322 Li 0.55352 0.44886 0.60879 0.0
Li1323 Li 0.55867 0.41787 0.6215 0.0
C1324 C 0.56081 0.48616 0.62058 0.0
N1325 N 0.54344 0.52376 0.62107 0.0
C1326 C 0.5722 0.50354 0.61926 0.0
C1327 C 0.54057 0.48791 0.62218 0.0
C1328 C 0.56315 0.52241 0.61953 0.0
C1329 C 0.53207 0.50705 0.62239 0.0
C1330 C 0.5875 0.43145 0.64871 0.0
C1331 C 0.60208 0.42133 0.67107 0.0
N1332 N 0.61075 0.43972 0.67215 0.0
C1333 C 0.59657 0.45024 0.65004 0.0
C1334 C 0.59028 0.41686 0.6593 0.0
C1335 C 0.60826 0.45413 0.66197 0.0
C1336 C 0.53335 0.45312 0.65874 0.0
N1337 N 0.54832 0.46182 0.65149 0.0
C1338 C 0.55247 0.48651 0.66982 0.0
C1339 C 0.55771 0.47838 0.65663 0.0
C1340 C 0.5373 0.47762 0.67768 0.0
C1341 C 0.52748 0.4609 0.67191 0.0
H1342 H 0.52629 0.43987 0.65442 0.0
H1343 H 0.56954 0.48505 0.65063 0.0
C1344 C 0.61621 0.46401 0.6102 0.0
N1345 N 0.6117 0.44701 0.61757 0.0
C1346 C 0.63551 0.4705 0.60928 0.0
C1347 C 0.64535 0.44129 0.62299 0.0
C1348 C 0.62577 0.43541 0.62372 0.0
C1349 C 0.65031 0.4593 0.61596 0.0
H1350 H 0.60468 0.47282 0.60534 0.0
H1351 H 0.62174 0.422 0.6296 0.0
C1352 C 0.51987 0.42741 0.61679 0.0
N1353 N 0.48776 0.40923 0.60436 0.0
C1354 C 0.52132 0.41893 0.60315 0.0
C1355 C 0.50209 0.42666 0.6241 0.0
C1356 C 0.50492 0.4098 0.59705 0.0
C1357 C 0.48602 0.41741 0.61763 0.0
C1358 C 0.58492 0.41285 0.59897 0.0
C1359 C 0.58822 0.41089 0.5843 0.0
C1360 C 0.59464 0.40014 0.60854 0.0
C1361 C 0.60123 0.39619 0.57942 0.0
C1362 C 0.60754 0.38563 0.60324 0.0
N1363 N 0.61053 0.38397 0.58892 0.0
C1364 C 0.55565 0.46589 0.58208 0.0
C1365 C 0.52315 0.46502 0.59078 0.0
C1366 C 0.54938 0.47416 0.56918 0.0
N1367 N 0.54253 0.46123 0.59244 0.0
C1368 C 0.51617 0.47294 0.57793 0.0
C1369 C 0.52934 0.47739 0.56681 0.0
H1370 H 0.57101 0.46297 0.58384 0.0
H1371 H 0.51304 0.46155 0.59931 0.0
C1372 C 0.54774 0.38188 0.63525 0.0
N1373 N 0.55154 0.39015 0.62225 0.0
C1374 C 0.54068 0.36216 0.63624 0.0
C1375 C 0.54181 0.35982 0.61045 0.0
C1376 C 0.54896 0.3795 0.60997 0.0
C1377 C 0.53735 0.351 0.62371 0.0
H1378 H 0.54973 0.39081 0.64482 0.0
H1379 H 0.55198 0.38644 0.59975 0.0
O1380 O 0.56959 0.46761 0.62037 0.0
O1381 O 0.57595 0.42719 0.63716 0.0
O1382 O 0.53573 0.43626 0.62311 0.0
O1383 O 0.57221 0.42722 0.60383 0.0
H1384 H 0.5879 0.50246 0.61808 0.0
H1385 H 0.53148 0.47469 0.62329 0.0
H1386 H 0.5718 0.53599 0.61852 0.0
H1387 H 0.51644 0.50861 0.62361 0.0
H1388 H 0.60435 0.41018 0.67935 0.0
H1389 H 0.59465 0.46171 0.64196 0.0
H1390 H 0.58337 0.40223 0.65842 0.0
H1391 H 0.61535 0.46861 0.66313 0.0
H1392 H 0.5603 0.49948 0.67391 0.0
H1393 H 0.51587 0.45348 0.67776 0.0
H1394 H 0.63879 0.48431 0.60357 0.0
H1395 H 0.65636 0.43232 0.62835 0.0
H1396 H 0.53492 0.41944 0.5973 0.0
H1397 H 0.50072 0.43317 0.63466 0.0
H1398 H 0.50585 0.40317 0.58651 0.0
H1399 H 0.47216 0.41672 0.62317 0.0
H1400 H 0.58079 0.42063 0.57677 0.0
H1401 H 0.59226 0.40137 0.61993 0.0
H1402 H 0.60392 0.39449 0.56809 0.0
H1403 H 0.61515 0.37569 0.61052 0.0
H1404 H 0.56017 0.47786 0.56114 0.0
H1405 H 0.50059 0.47502 0.57661 0.0
H1406 H 0.53724 0.35597 0.64665 0.0
H1407 H 0.53965 0.35165 0.60056 0.0
H1408 H 0.31063 0.94054 0.12851 0.0
H1409 H 0.27799 0.95582 0.12798 0.0
H1410 H 0.30191 0.00912 0.10821 0.0
H1411 H 0.33452 0.9939 0.10865 0.0
H1412 H 0.27704 0.01672 0.13204 0.0
H1413 H 0.27756 0.97923 0.088 0.0
H1414 H 0.28187 0.94889 0.0731 0.0
H1415 H 0.23682 0.91858 0.09671 0.0
H1416 H 0.23244 0.94865 0.1119 0.0
H1417 H 0.18691 0.06385 0.11501 0.0
H1418 H 0.21968 0.0494 0.11382 0.0
H1419 H 0.19655 0.99125 0.1257 0.0
H1420 H 0.16368 0.00524 0.12605 0.0
H1421 H 0.22167 0.98661 0.10527 0.0
H1422 H 0.22139 0.02238 0.14982 0.0
H1423 H 0.21708 0.05168 0.16573 0.0
H1424 H 0.2614 0.08395 0.14269 0.0
H1425 H 0.26579 0.05492 0.12651 0.0
C1426 C 0.30887 0.95549 0.12403 0.0
C1427 C 0.32502 0.96602 0.11856 0.0
C1428 C 0.29028 0.96415 0.12369 0.0
C1429 C 0.28761 0.98354 0.118 0.0
C1430 C 0.30372 0.99413 0.11261 0.0
C1431 C 0.32226 0.98538 0.11278 0.0
C1432 C 0.26802 0.9929 0.11788 0.0
C1433 C 0.26496 0.01035 0.12604 0.0
C1434 C 0.25224 0.9842 0.11033 0.0
C1435 C 0.25481 0.96613 0.10118 0.0
C1436 C 0.26869 0.96603 0.0901 0.0
C1437 C 0.27113 0.9489 0.08159 0.0
C1438 C 0.25967 0.9318 0.08399 0.0
C1439 C 0.24571 0.93182 0.09488 0.0
C1440 C 0.24323 0.94892 0.10344 0.0
C1441 C 0.18875 0.04794 0.11723 0.0
C1442 C 0.17262 0.03576 0.12072 0.0
C1443 C 0.20755 0.03975 0.11671 0.0
C1444 C 0.21063 0.01929 0.11988 0.0
C1445 C 0.19455 0.00709 0.12327 0.0
C1446 C 0.17577 0.0152 0.12364 0.0
C1447 C 0.23054 0.01045 0.11954 0.0
C1448 C 0.2337 0.99308 0.11127 0.0
C1449 C 0.24636 0.01908 0.12715 0.0
C1450 C 0.24377 0.03656 0.13686 0.0
C1451 C 0.23011 0.03579 0.14808 0.0
C1452 C 0.22767 0.05233 0.15716 0.0
C1453 C 0.23892 0.06969 0.1552 0.0
C1454 C 0.25267 0.07051 0.14418 0.0
C1455 C 0.25515 0.05401 0.13506 0.0
H1456 H 0.23702 0.08249 0.16224 0.0
H1457 H 0.26157 0.91855 0.07738 0.0
H1458 H 0.66144 0.00233 0.37235 0.0
H1459 H 0.69502 0.01463 0.37218 0.0
H1460 H 0.71609 0.9538 0.36696 0.0
H1461 H 0.68242 0.94133 0.36688 0.0
H1462 H 0.73653 0.97512 0.38746 0.0
H1463 H 0.71555 0.98447 0.3389 0.0
H1464 H 0.69364 0.99647 0.31977 0.0
H1465 H 0.70261 0.05765 0.33326 0.0
H1466 H 0.72436 0.04599 0.35261 0.0
H1467 H 0.83368 0.9986 0.36838 0.0
H1468 H 0.80016 0.98616 0.36832 0.0
H1469 H 0.77872 0.04722 0.37096 0.0
H1470 H 0.8123 0.05987 0.37046 0.0
H1471 H 0.75837 0.02571 0.35178 0.0
H1472 H 0.77912 0.01684 0.40027 0.0
H1473 H 0.80074 0.00523 0.4197 0.0
H1474 H 0.79191 0.94377 0.40681 0.0
H1475 H 0.77045 0.95503 0.38717 0.0
C1476 C 0.67318 0.99156 0.371 0.0
C1477 C 0.66924 0.97085 0.3695 0.0
C1478 C 0.69236 0.99862 0.37096 0.0
C1479 C 0.70799 0.98514 0.3694 0.0
C1480 C 0.70419 0.96443 0.36817 0.0
C1481 C 0.68497 0.95733 0.36817 0.0
C1482 C 0.72829 0.99273 0.36908 0.0
C1483 C 0.74142 0.98596 0.37954 0.0
C1484 C 0.73443 0.00727 0.35897 0.0
C1485 C 0.72144 0.01433 0.34729 0.0
C1486 C 0.71273 0.00047 0.33786 0.0
C1487 C 0.70036 0.00722 0.32696 0.0
C1488 C 0.69669 0.02781 0.32532 0.0
C1489 C 0.70544 0.04171 0.33455 0.0
C1490 C 0.7178 0.03504 0.34548 0.0
C1491 C 0.82185 0.00942 0.36877 0.0
C1492 C 0.82566 0.03024 0.3694 0.0
C1493 C 0.80269 0.00226 0.3689 0.0
C1494 C 0.78697 0.01575 0.36983 0.0
C1495 C 0.79067 0.03655 0.37031 0.0
C1496 C 0.80986 0.04374 0.37013 0.0
C1497 C 0.76665 0.00812 0.37017 0.0
C1498 C 0.75351 0.01487 0.35971 0.0
C1499 C 0.76047 0.99363 0.38033 0.0
C1500 C 0.77333 0.9868 0.39216 0.0
C1501 C 0.78191 0.00086 0.40151 0.0
C1502 C 0.79412 0.99434 0.41257 0.0
C1503 C 0.79774 0.97378 0.41446 0.0
C1504 C 0.78912 0.95969 0.40532 0.0
C1505 C 0.77692 0.96613 0.39423 0.0
H1506 H 0.80719 0.96876 0.42304 0.0
H1507 H 0.68711 0.033 0.31688 0.0
H1508 H 0.83075 0.99192 0.85515 0.0
H1509 H 0.79779 0.00593 0.85562 0.0
H1510 H 0.77853 0.9563 0.88188 0.0
H1511 H 0.81139 0.94179 0.88107 0.0
H1512 H 0.75227 0.96502 0.8611 0.0
H1513 H 0.78809 0.00157 0.89675 0.0
H1514 H 0.81533 0.02196 0.90615 0.0
H1515 H 0.80193 0.06905 0.8762 0.0
H1516 H 0.77477 0.0488 0.86647 0.0
H1517 H 0.66379 0.00803 0.88522 0.0
H1518 H 0.69667 0.99385 0.88449 0.0
H1519 H 0.71579 0.0434 0.8581 0.0
H1520 H 0.683 0.05808 0.85916 0.0
H1521 H 0.74211 0.03471 0.87892 0.0
H1522 H 0.7061 0.99802 0.84336 0.0
H1523 H 0.67878 0.97755 0.83414 0.0
H1524 H 0.69247 0.93064 0.86416 0.0
H1525 H 0.71971 0.95096 0.8737 0.0
C1526 C 0.81945 0.9838 0.86085 0.0
C1527 C 0.82369 0.96574 0.86809 0.0
C1528 C 0.80067 0.99195 0.86123 0.0
C1529 C 0.7858 0.9823 0.86896 0.0
C1530 C 0.78984 0.96403 0.87592 0.0
C1531 C 0.80864 0.95585 0.87553 0.0
C1532 C 0.7661 0.99142 0.86989 0.0
C1533 C 0.75 0.98015 0.86517 0.0
C1534 C 0.76324 0.01133 0.87492 0.0
C1535 C 0.77951 0.02358 0.88079 0.0
C1536 C 0.79104 0.0162 0.89209 0.0
C1537 C 0.80645 0.02775 0.89749 0.0
C1538 C 0.81039 0.04677 0.89175 0.0
C1539 C 0.79888 0.0543 0.88062 0.0
C1540 C 0.78347 0.0428 0.87517 0.0
C1541 C 0.67504 0.01609 0.87943 0.0
C1542 C 0.67079 0.0342 0.87225 0.0
C1543 C 0.69377 0.00784 0.87889 0.0
C1544 C 0.70858 0.01743 0.87108 0.0
C1545 C 0.70453 0.03572 0.86413 0.0
C1546 C 0.68577 0.044 0.86467 0.0
C1547 C 0.72828 0.00832 0.87011 0.0
C1548 C 0.74438 0.01958 0.87483 0.0
C1549 C 0.73114 0.98839 0.86511 0.0
C1550 C 0.71483 0.97609 0.85933 0.0
C1551 C 0.70319 0.9834 0.84807 0.0
C1552 C 0.68774 0.97182 0.84278 0.0
C1553 C 0.68386 0.95283 0.84859 0.0
C1554 C 0.69547 0.94536 0.85968 0.0
C1555 C 0.71093 0.9569 0.86503 0.0
H1556 H 0.67189 0.94388 0.84447 0.0
H1557 H 0.82232 0.05569 0.89595 0.0
H1558 H 0.1877 0.93049 0.61607 0.0
H1559 H 0.22124 0.94336 0.61557 0.0
H1560 H 0.19935 0.00394 0.6105 0.0
H1561 H 0.16593 0.99123 0.61095 0.0
H1562 H 0.22995 0.99759 0.59335 0.0
H1563 H 0.21447 0.98653 0.64299 0.0
H1564 H 0.2037 0.96652 0.66377 0.0
H1565 H 0.25134 0.92538 0.65739 0.0
H1566 H 0.26223 0.94501 0.63644 0.0
H1567 H 0.31282 0.05434 0.61492 0.0
H1568 H 0.28026 0.03922 0.61334 0.0
H1569 H 0.30557 0.97997 0.61773 0.0
H1570 H 0.33804 0.99498 0.61972 0.0
H1571 H 0.2739 0.98429 0.63449 0.0
H1572 H 0.2903 0.99656 0.58541 0.0
H1573 H 0.30096 0.01688 0.56476 0.0
H1574 H 0.25162 0.05609 0.57018 0.0
H1575 H 0.2408 0.03617 0.59099 0.0
C1576 C 0.19007 0.94654 0.61484 0.0
C1577 C 0.17419 0.95984 0.61355 0.0
C1578 C 0.20921 0.95387 0.61455 0.0
C1579 C 0.21276 0.97463 0.61314 0.0
C1580 C 0.19694 0.98786 0.61153 0.0
C1581 C 0.17785 0.98055 0.61176 0.0
C1582 C 0.2329 0.98277 0.61373 0.0
C1583 C 0.23951 0.99484 0.6024 0.0
C1584 C 0.24549 0.97884 0.62542 0.0
C1585 C 0.23904 0.96711 0.63806 0.0
C1586 C 0.22256 0.97313 0.64596 0.0
C1587 C 0.21645 0.96187 0.65777 0.0
C1588 C 0.2268 0.94466 0.66187 0.0
C1589 C 0.24332 0.9387 0.65419 0.0
C1590 C 0.24948 0.94989 0.64235 0.0
C1591 C 0.31142 0.0381 0.61565 0.0
C1592 C 0.328 0.02584 0.61737 0.0
C1593 C 0.29285 0.02948 0.61461 0.0
C1594 C 0.29055 0.00846 0.61524 0.0
C1595 C 0.30704 0.99622 0.61714 0.0
C1596 C 0.32559 0.00481 0.61816 0.0
C1597 C 0.27092 0.99921 0.61414 0.0
C1598 C 0.2644 0.98695 0.62539 0.0
C1599 C 0.25841 0.00301 0.6024 0.0
C1600 C 0.26484 0.01498 0.58985 0.0
C1601 C 0.2818 0.00961 0.58227 0.0
C1602 C 0.28786 0.02104 0.57052 0.0
C1603 C 0.277 0.03779 0.56618 0.0
C1604 C 0.26003 0.04313 0.57356 0.0
C1605 C 0.25392 0.03176 0.58533 0.0
H1606 H 0.28171 0.04662 0.55708 0.0
H1607 H 0.22205 0.93596 0.67102 0.0
H1608 H 0.83417 0.50482 0.11838 0.0
H1609 H 0.80054 0.51707 0.11801 0.0
H1610 H 0.77943 0.4558 0.11772 0.0
H1611 H 0.8131 0.44337 0.11831 0.0
H1612 H 0.75985 0.48022 0.09856 0.0
H1613 H 0.77864 0.48174 0.14806 0.0
H1614 H 0.79962 0.49071 0.16854 0.0
H1615 H 0.79075 0.55361 0.15984 0.0
H1616 H 0.76993 0.54501 0.13917 0.0
H1617 H 0.6618 0.49811 0.11835 0.0
H1618 H 0.69563 0.48673 0.11724 0.0
H1619 H 0.71545 0.54831 0.12044 0.0
H1620 H 0.68156 0.55979 0.12216 0.0
H1621 H 0.736 0.52428 0.13772 0.0
H1622 H 0.71662 0.52301 0.08855 0.0
H1623 H 0.69575 0.5142 0.06798 0.0
H1624 H 0.70578 0.45125 0.07578 0.0
H1625 H 0.7265 0.45967 0.09653 0.0
C1626 C 0.82239 0.49393 0.11835 0.0
C1627 C 0.82631 0.47311 0.11852 0.0
C1628 C 0.80319 0.50096 0.11808 0.0
C1629 C 0.78753 0.48733 0.11801 0.0
C1630 C 0.79135 0.46655 0.11777 0.0
C1631 C 0.81058 0.45949 0.11807 0.0
C1632 C 0.76718 0.4948 0.11841 0.0
C1633 C 0.75453 0.48965 0.10719 0.0
C1634 C 0.76046 0.50752 0.12951 0.0
C1635 C 0.77289 0.51273 0.14198 0.0
C1636 C 0.78129 0.49748 0.15045 0.0
C1637 C 0.79313 0.5025 0.1621 0.0
C1638 C 0.79655 0.52272 0.16547 0.0
C1639 C 0.7881 0.53796 0.15721 0.0
C1640 C 0.77627 0.53302 0.14553 0.0
C1641 C 0.67334 0.50924 0.11895 0.0
C1642 C 0.66898 0.52987 0.12039 0.0
C1643 C 0.69268 0.50272 0.11814 0.0
C1644 C 0.70805 0.51669 0.11857 0.0
C1645 C 0.70379 0.53729 0.12002 0.0
C1646 C 0.68442 0.54384 0.12089 0.0
C1647 C 0.72859 0.5097 0.11785 0.0
C1648 C 0.74129 0.51492 0.12903 0.0
C1649 C 0.73536 0.49709 0.10669 0.0
C1650 C 0.72297 0.49198 0.09417 0.0
C1651 C 0.71426 0.50728 0.08595 0.0
C1652 C 0.70247 0.50236 0.07424 0.0
C1653 C 0.6994 0.48218 0.0706 0.0
C1654 C 0.70815 0.46688 0.07863 0.0
C1655 C 0.71993 0.47172 0.09035 0.0
H1656 H 0.69028 0.4784 0.06153 0.0
H1657 H 0.80572 0.52657 0.17449 0.0
H1658 H 0.3163 0.55006 0.34714 0.0
H1659 H 0.28391 0.53446 0.3465 0.0
H1660 H 0.29607 0.50415 0.38634 0.0
H1661 H 0.32862 0.51914 0.38683 0.0
H1662 H 0.2804 0.47878 0.36715 0.0
H1663 H 0.26619 0.54492 0.38529 0.0
H1664 H 0.26641 0.58209 0.38527 0.0
H1665 H 0.23506 0.58259 0.34549 0.0
H1666 H 0.23489 0.54539 0.34517 0.0
H1667 H 0.18455 0.44972 0.38745 0.0
H1668 H 0.21718 0.46461 0.38598 0.0
H1669 H 0.20219 0.49192 0.34557 0.0
H1670 H 0.16939 0.47741 0.34712 0.0
H1671 H 0.21926 0.51866 0.36381 0.0
H1672 H 0.23238 0.45219 0.34633 0.0
H1673 H 0.23195 0.41503 0.34675 0.0
H1674 H 0.26519 0.41515 0.3857 0.0
H1675 H 0.26559 0.45234 0.38562 0.0
C1676 C 0.31207 0.54004 0.35574 0.0
C1677 C 0.32499 0.5359 0.36707 0.0
C1678 C 0.29352 0.53126 0.35541 0.0
C1679 C 0.28755 0.51827 0.36643 0.0
C1680 C 0.30039 0.51416 0.37775 0.0
C1681 C 0.31891 0.52292 0.37809 0.0
C1682 C 0.26805 0.50862 0.36607 0.0
C1683 C 0.26701 0.4875 0.36658 0.0
C1684 C 0.25065 0.52001 0.36496 0.0
C1685 C 0.25072 0.54237 0.36513 0.0
C1686 C 0.2595 0.55295 0.37647 0.0
C1687 C 0.25958 0.57403 0.37654 0.0
C1688 C 0.2508 0.5847 0.36537 0.0
C1689 C 0.24188 0.57431 0.35413 0.0
C1690 C 0.24177 0.55323 0.354 0.0
C1691 C 0.18825 0.45885 0.37824 0.0
C1692 C 0.17446 0.46236 0.36738 0.0
C1693 C 0.20691 0.46723 0.37736 0.0
C1694 C 0.21212 0.47924 0.36561 0.0
C1695 C 0.19845 0.48264 0.3547 0.0
C1696 C 0.1798 0.47419 0.35554 0.0
C1697 C 0.23161 0.48884 0.365 0.0
C1698 C 0.23265 0.50994 0.36429 0.0
C1699 C 0.24902 0.47744 0.36598 0.0
C1700 C 0.24886 0.45506 0.36603 0.0
C1701 C 0.23947 0.4443 0.35505 0.0
C1702 C 0.23925 0.42323 0.35521 0.0
C1703 C 0.2485 0.41273 0.36626 0.0
C1704 C 0.25802 0.42329 0.37715 0.0
C1705 C 0.25826 0.44437 0.37705 0.0
H1706 H 0.24832 0.39642 0.36637 0.0
H1707 H 0.25088 0.60102 0.36544 0.0
H1708 H 0.16411 0.50575 0.88418 0.0
H1709 H 0.19728 0.49265 0.8824 0.0
H1710 H 0.21877 0.55248 0.87347 0.0
H1711 H 0.18548 0.5658 0.87534 0.0
H1712 H 0.23347 0.52503 0.85504 0.0
H1713 H 0.22693 0.53104 0.90573 0.0
H1714 H 0.21132 0.52637 0.92925 0.0
H1715 H 0.21587 0.46212 0.92472 0.0
H1716 H 0.23127 0.4664 0.90108 0.0
H1717 H 0.334 0.50095 0.86413 0.0
H1718 H 0.30133 0.51532 0.86631 0.0
H1719 H 0.27758 0.45601 0.87372 0.0
H1720 H 0.31023 0.44139 0.87128 0.0
H1721 H 0.26447 0.48401 0.89319 0.0
H1722 H 0.27051 0.47825 0.84222 0.0
H1723 H 0.28625 0.48315 0.81878 0.0
H1724 H 0.28284 0.54736 0.82402 0.0
H1725 H 0.26732 0.54284 0.84761 0.0
C1726 C 0.17592 0.51622 0.88211 0.0
C1727 C 0.17218 0.53686 0.88002 0.0
C1728 C 0.19487 0.50868 0.88104 0.0
C1729 C 0.21051 0.52162 0.87795 0.0
C1730 C 0.20688 0.54224 0.87587 0.0
C1731 C 0.18788 0.54982 0.87692 0.0
C1732 C 0.23052 0.51342 0.87645 0.0
C1733 C 0.24039 0.51634 0.86347 0.0
C1734 C 0.23932 0.50169 0.88733 0.0
C1735 C 0.2301 0.49905 0.90157 0.0
C1736 C 0.22446 0.51591 0.9097 0.0
C1737 C 0.21568 0.51333 0.92306 0.0
C1738 C 0.21256 0.49396 0.92846 0.0
C1739 C 0.21828 0.47712 0.92052 0.0
C1740 C 0.22705 0.47962 0.90714 0.0
C1741 C 0.3218 0.49088 0.86595 0.0
C1742 C 0.32472 0.46998 0.86744 0.0
C1743 C 0.30315 0.49915 0.86727 0.0
C1744 C 0.28705 0.4867 0.87008 0.0
C1745 C 0.28986 0.46586 0.87157 0.0
C1746 C 0.30852 0.45755 0.87021 0.0
C1747 C 0.26735 0.49555 0.87177 0.0
C1748 C 0.25755 0.49275 0.88479 0.0
C1749 C 0.25865 0.50744 0.86095 0.0
C1750 C 0.26793 0.5102 0.84675 0.0
C1751 C 0.27327 0.49341 0.83843 0.0
C1752 C 0.28212 0.49612 0.82511 0.0
C1753 C 0.28559 0.51556 0.81993 0.0
C1754 C 0.28017 0.53232 0.82806 0.0
C1755 C 0.27133 0.52969 0.8414 0.0
H1756 H 0.29245 0.51762 0.80961 0.0
H1757 H 0.20576 0.49199 0.93881 0.0
H1758 H 0.66223 0.49753 0.62181 0.0
H1759 H 0.69554 0.51058 0.62227 0.0
H1760 H 0.71759 0.45168 0.61113 0.0
H1761 H 0.68414 0.43844 0.61091 0.0
H1762 H 0.73918 0.46782 0.63152 0.0
H1763 H 0.71518 0.49019 0.5863 0.0
H1764 H 0.69221 0.50642 0.56956 0.0
H1765 H 0.70035 0.56314 0.59088 0.0
H1766 H 0.72317 0.54717 0.60788 0.0
H1767 H 0.83407 0.50209 0.61223 0.0
H1768 H 0.80097 0.48832 0.61105 0.0
H1769 H 0.778 0.54396 0.62797 0.0
H1770 H 0.81117 0.55792 0.6291 0.0
H1771 H 0.75736 0.52902 0.60404 0.0
H1772 H 0.78144 0.50547 0.64947 0.0
H1773 H 0.80493 0.48859 0.66548 0.0
H1774 H 0.79723 0.43311 0.6425 0.0
H1775 H 0.77389 0.44975 0.62621 0.0
C1776 C 0.67417 0.4874 0.61933 0.0
C1777 C 0.67061 0.46702 0.61618 0.0
C1778 C 0.69319 0.49488 0.61959 0.0
C1779 C 0.70904 0.4822 0.61648 0.0
C1780 C 0.70557 0.46175 0.61352 0.0
C1781 C 0.68649 0.4542 0.61339 0.0
C1782 C 0.72923 0.49031 0.61656 0.0
C1783 C 0.74322 0.48101 0.62533 0.0
C1784 C 0.73442 0.50775 0.60869 0.0
C1785 C 0.72075 0.51743 0.59845 0.0
C1786 C 0.71196 0.50609 0.58749 0.0
C1787 C 0.69898 0.51525 0.57794 0.0
C1788 C 0.69479 0.53579 0.57918 0.0
C1789 C 0.7036 0.54722 0.58994 0.0
C1790 C 0.71657 0.53813 0.59953 0.0
C1791 C 0.82195 0.51144 0.6156 0.0
C1792 C 0.82515 0.53108 0.62074 0.0
C1793 C 0.80309 0.50351 0.61501 0.0
C1794 C 0.78711 0.51509 0.61951 0.0
C1795 C 0.7902 0.5348 0.62448 0.0
C1796 C 0.80911 0.54269 0.62519 0.0
C1797 C 0.76716 0.50658 0.61903 0.0
C1798 C 0.75326 0.5158 0.61018 0.0
C1799 C 0.76211 0.48896 0.6267 0.0
C1800 C 0.77607 0.47891 0.63653 0.0
C1801 C 0.78488 0.48971 0.64775 0.0
C1802 C 0.79814 0.48018 0.6569 0.0
C1803 C 0.80261 0.45981 0.65499 0.0
C1804 C 0.79378 0.4489 0.64396 0.0
C1805 C 0.78052 0.45837 0.63477 0.0
H1806 H 0.81288 0.45245 0.66208 0.0
H1807 H 0.68474 0.54285 0.57178 0.0
H1808 H 0.99792 0.99933 0.31115 0.0
H1809 H 0.00992 0.98889 0.28758 0.0
H1810 H 0.9659 0.02577 0.26739 0.0
H1811 H 0.95349 0.03564 0.29076 0.0
H1812 H 0.97033 0.99078 0.25335 0.0
H1813 H 0.01265 0.04311 0.27326 0.0
H1814 H 0.03523 0.05689 0.29136 0.0
H1815 H 0.07412 0.00694 0.28482 0.0
H1816 H 0.05162 0.99275 0.2668 0.0
H1817 H 0.00257 0.0368 0.19097 0.0
H1818 H 0.99198 0.02626 0.2146 0.0
H1819 H 0.04181 0.98678 0.21803 0.0
H1820 H 0.05232 0.99681 0.19401 0.0
H1821 H 0.0377 0.01227 0.24114 0.0
H1822 H 0.99811 0.96561 0.21614 0.0
H1823 H 0.97542 0.95366 0.19751 0.0
H1824 H 0.93115 0.99393 0.21301 0.0
H1825 H 0.95365 0.00637 0.23161 0.0
C1826 C 0.99062 0.00491 0.30167 0.0
C1827 C 0.97495 0.01854 0.30278 0.0
C1828 C 0.99754 0.99901 0.28823 0.0
C1829 C 0.98893 0.00673 0.27575 0.0
C1830 C 0.97277 0.01963 0.27688 0.0
C1831 C 0.96585 0.02547 0.29025 0.0
C1832 C 0.99737 0.0028 0.26145 0.0
C1833 C 0.98508 0.99539 0.25066 0.0
C1834 C 0.01683 0.00818 0.25807 0.0
C1835 C 0.03036 0.01675 0.26885 0.0
C1836 C 0.02595 0.035 0.27577 0.0
C1837 C 0.03874 0.0429 0.28599 0.0
C1838 C 0.05606 0.03276 0.28928 0.0
C1839 C 0.06067 0.01475 0.2823 0.0
C1840 C 0.04791 0.00677 0.27208 0.0
C1841 C 0.01105 0.02545 0.19651 0.0
C1842 C 0.02829 0.01762 0.19053 0.0
C1843 C 0.00497 0.01946 0.21007 0.0
C1844 C 0.01599 0.00556 0.21798 0.0
C1845 C 0.03307 0.99746 0.21203 0.0
C1846 C 0.03911 0.00333 0.19837 0.0
C1847 C 0.01035 0.00114 0.23291 0.0
C1848 C 0.02317 0.00698 0.24385 0.0
C1849 C 0.99132 0.99446 0.23639 0.0
C1850 C 0.97763 0.98697 0.22527 0.0
C1851 C 0.98358 0.97202 0.21553 0.0
C1852 C 0.97074 0.96514 0.20498 0.0
C1853 C 0.95186 0.97304 0.20407 0.0
C1854 C 0.94577 0.98781 0.21374 0.0
C1855 C 0.95856 0.99475 0.22431 0.0
H1856 H 0.94194 0.96769 0.19589 0.0
H1857 H 0.06595 0.0389 0.29719 0.0
H1858 H 0.44115 0.9848 0.20178 0.0
H1859 H 0.45347 0.99595 0.22501 0.0
H1860 H 0.51209 0.99734 0.20813 0.0
H1861 H 0.49986 0.98623 0.18487 0.0
H1862 H 0.50954 0.97421 0.23134 0.0
H1863 H 0.48944 0.04067 0.2185 0.0
H1864 H 0.4669 0.06692 0.20978 0.0
H1865 H 0.42798 0.05487 0.24474 0.0
H1866 H 0.45015 0.02833 0.25356 0.0
H1867 H 0.55105 0.99767 0.2967 0.0
H1868 H 0.541 0.00482 0.27227 0.0
H1869 H 0.48051 0.00138 0.28487 0.0
H1870 H 0.49042 0.99527 0.30961 0.0
H1871 H 0.4861 0.02895 0.26317 0.0
H1872 H 0.50306 0.95987 0.27369 0.0
H1873 H 0.52454 0.93276 0.28256 0.0
H1874 H 0.56809 0.94896 0.2516 0.0
H1875 H 0.54696 0.9764 0.2427 0.0
C1876 C 0.45659 0.98801 0.20292 0.0
C1877 C 0.46959 0.98444 0.19157 0.0
C1878 C 0.4636 0.99442 0.21619 0.0
C1879 C 0.48369 0.99752 0.21827 0.0
C1880 C 0.49654 0.99499 0.20674 0.0
C1881 C 0.48956 0.98854 0.1935 0.0
C1882 C 0.49152 0.00078 0.23284 0.0
C1883 C 0.50476 0.98649 0.23817 0.0
C1884 C 0.48478 0.01641 0.24188 0.0
C1885 C 0.47141 0.03238 0.23663 0.0
C1886 C 0.476 0.04349 0.22427 0.0
C1887 C 0.4633 0.05845 0.21932 0.0
C1888 C 0.446 0.06254 0.22668 0.0
C1889 C 0.44138 0.05169 0.23903 0.0
C1890 C 0.45402 0.0367 0.24402 0.0
C1891 C 0.5356 0.99916 0.29446 0.0
C1892 C 0.52153 0.99554 0.30511 0.0
C1893 C 0.52989 0.00312 0.28042 0.0
C1894 C 0.51003 0.00318 0.27673 0.0
C1895 C 0.49592 0.00125 0.2875 0.0
C1896 C 0.50162 0.99749 0.30159 0.0
C1897 C 0.5041 0.00244 0.26153 0.0
C1898 C 0.49113 0.01699 0.25618 0.0
C1899 C 0.51091 0.98694 0.25241 0.0
C1900 C 0.52354 0.97032 0.25764 0.0
C1901 C 0.51728 0.95774 0.26885 0.0
C1902 C 0.52938 0.94231 0.27387 0.0
C1903 C 0.54769 0.93918 0.26767 0.0
C1904 C 0.55392 0.95144 0.25641 0.0
C1905 C 0.54189 0.96692 0.25137 0.0
H1906 H 0.55704 0.92722 0.27158 0.0
H1907 H 0.43619 0.07413 0.22284 0.0
H1908 H 0.06573 0.9833 0.70165 0.0
H1909 H 0.05645 0.98991 0.7263 0.0
H1910 H 0.9979 0.00439 0.71273 0.0
H1911 H 0.00735 0.99894 0.68781 0.0
H1912 H 0.00931 0.02721 0.73598 0.0
H1913 H 0.0087 0.95723 0.72189 0.0
H1914 H 0.02329 0.92652 0.71157 0.0
H1915 H 0.06787 0.92711 0.74389 0.0
H1916 H 0.05373 0.95806 0.75424 0.0
H1917 H 0.95433 0.99382 0.79641 0.0
H1918 H 0.96891 0.0022 0.7733 0.0
H1919 H 0.02551 0.98418 0.78912 0.0
H1920 H 0.01094 0.97559 0.8122 0.0
H1921 H 0.01701 0.96525 0.76518 0.0
H1922 H 0.01504 0.03386 0.78087 0.0
H1923 H 8e-05 0.06465 0.79076 0.0
H1924 H 0.95957 0.06649 0.75572 0.0
H1925 H 0.97411 0.03554 0.74571 0.0
C1926 C 0.05106 0.9886 0.70377 0.0
C1927 C 0.03721 0.99035 0.69272 0.0
C1928 C 0.04575 0.99221 0.71793 0.0
C1929 C 0.0264 0.99721 0.72134 0.0
C1930 C 0.01288 0.00041 0.7103 0.0
C1931 C 0.01825 0.99703 0.69609 0.0
C1932 C 0.01976 0.9966 0.73638 0.0
C1933 C 0.01087 0.01367 0.74238 0.0
C1934 C 0.02205 0.97898 0.74474 0.0
C1935 C 0.03027 0.96007 0.73875 0.0
C1936 C 0.02167 0.95087 0.72674 0.0
C1937 C 0.02986 0.93342 0.72089 0.0
C1938 C 0.04653 0.9249 0.72704 0.0
C1939 C 0.05498 0.93375 0.73911 0.0
C1940 C 0.04688 0.95124 0.74498 0.0
C1941 C 0.96996 0.99214 0.79506 0.0
C1942 C 0.9815 0.9839 0.80603 0.0
C1943 C 0.97828 0.99697 0.78186 0.0
C1944 C 0.99832 0.99387 0.7795 0.0
C1945 C 0.01001 0.98663 0.79071 0.0
C1946 C 0.00168 0.98167 0.80385 0.0
C1947 C 0.00662 0.99594 0.76495 0.0
C1948 C 0.01569 0.97897 0.75894 0.0
C1949 C 0.00434 0.01362 0.75663 0.0
C1950 C 0.99558 0.03227 0.7626 0.0
C1951 C 0.00284 0.04073 0.77533 0.0
C1952 C 0.99446 0.05823 0.78094 0.0
C1953 C 0.97886 0.0675 0.77389 0.0
C1954 C 0.97165 0.05929 0.76118 0.0
C1955 C 0.97998 0.04178 0.75552 0.0
H1956 H 0.97239 0.08105 0.77825 0.0
H1957 H 0.05286 0.9114 0.72248 0.0
H1958 H 0.47539 0.99132 0.68902 0.0
H1959 H 0.48718 0.98108 0.71269 0.0
H1960 H 0.48817 0.04335 0.72597 0.0
H1961 H 0.47605 0.05364 0.7026 0.0
H1962 H 0.52153 0.02337 0.73347 0.0
H1963 H 0.45133 0.01361 0.73567 0.0
H1964 H 0.42002 0.99885 0.72786 0.0
H1965 H 0.44219 0.93938 0.736 0.0
H1966 H 0.47374 0.95381 0.74368 0.0
H1967 H 0.49569 0.01877 0.81019 0.0
H1968 H 0.48505 0.01234 0.78578 0.0
H1969 H 0.54018 0.98373 0.77654 0.0
H1970 H 0.55092 0.98987 0.80113 0.0
H1971 H 0.48123 0.98124 0.76593 0.0
H1972 H 0.55619 0.00557 0.74541 0.0
H1973 H 0.58588 0.0229 0.75402 0.0
H1974 H 0.55137 0.0575 0.78346 0.0
H1975 H 0.52148 0.04062 0.77485 0.0
C1976 C 0.47801 0.00281 0.69702 0.0
C1977 C 0.47485 0.02332 0.6939 0.0
C1978 C 0.48481 0.99693 0.7105 0.0
C1979 C 0.48854 0.01147 0.72104 0.0
C1980 C 0.48555 0.03191 0.71792 0.0
C1981 C 0.4787 0.03778 0.70452 0.0
C1982 C 0.49528 0.00568 0.73548 0.0
C1983 C 0.51286 0.0139 0.74049 0.0
C1984 C 0.48391 0.9934 0.74464 0.0
C1985 C 0.46496 0.98476 0.74007 0.0
C1986 C 0.44958 0.99738 0.73567 0.0
C1987 C 0.43178 0.98908 0.73129 0.0
C1988 C 0.42914 0.96819 0.73139 0.0
C1989 C 0.44427 0.95556 0.7359 0.0
C1990 C 0.46211 0.96378 0.74027 0.0
C1991 C 0.50531 0.01043 0.80317 0.0
C1992 C 0.52429 0.00513 0.80753 0.0
C1993 C 0.49918 0.00675 0.78919 0.0
C1994 C 0.51194 0.99784 0.77933 0.0
C1995 C 0.53021 0.99083 0.78399 0.0
C1996 C 0.53636 0.99448 0.79799 0.0
C1997 C 0.50735 0.99912 0.76391 0.0
C1998 C 0.49019 0.99014 0.75874 0.0
C1999 C 0.51891 0.01101 0.75463 0.0
C2000 C 0.53669 0.02166 0.75961 0.0
C2001 C 0.55496 0.01694 0.75368 0.0
C2002 C 0.57181 0.02668 0.75855 0.0
C2003 C 0.57052 0.04123 0.76932 0.0
C2004 C 0.55236 0.04618 0.77516 0.0
C2005 C 0.53547 0.03654 0.77028 0.0
H2006 H 0.58359 0.04871 0.77311 0.0
H2007 H 0.41535 0.96179 0.728 0.0
H2008 H 0.55124 0.52195 0.20472 0.0
H2009 H 0.54039 0.51109 0.22821 0.0
H2010 H 0.49474 0.4755 0.20889 0.0
H2011 H 0.5059 0.48588 0.18512 0.0
H2012 H 0.48105 0.50125 0.22924 0.0
H2013 H 0.53024 0.45146 0.22654 0.0
H2014 H 0.56284 0.4373 0.22165 0.0
H2015 H 0.58785 0.47551 0.25387 0.0
H2016 H 0.55546 0.49015 0.25882 0.0
H2017 H 0.45268 0.48998 0.30147 0.0
H2018 H 0.46368 0.47751 0.27817 0.0
H2019 H 0.51647 0.51262 0.2821 0.0
H2020 H 0.50581 0.52469 0.30548 0.0
H2021 H 0.52332 0.47672 0.2687 0.0
H2022 H 0.4765 0.53212 0.26598 0.0
H2023 H 0.44452 0.54804 0.27049 0.0
H2024 H 0.4158 0.50006 0.24793 0.0
H2025 H 0.44763 0.48372 0.24346 0.0
C2026 C 0.53927 0.51132 0.20536 0.0
C2027 C 0.52946 0.5048 0.19298 0.0
C2028 C 0.53306 0.50513 0.21885 0.0
C2029 C 0.51689 0.49231 0.22029 0.0
C2030 C 0.50731 0.48533 0.20799 0.0
C2031 C 0.51362 0.49141 0.19444 0.0
C2032 C 0.50892 0.48826 0.23471 0.0
C2033 C 0.49007 0.49527 0.2378 0.0
C2034 C 0.52081 0.48075 0.24588 0.0
C2035 C 0.54038 0.47196 0.24302 0.0
C2036 C 0.5427 0.45695 0.23252 0.0
C2037 C 0.56115 0.44882 0.22975 0.0
C2038 C 0.57741 0.45551 0.23744 0.0
C2039 C 0.57524 0.47033 0.24793 0.0
C2040 C 0.55682 0.47852 0.25074 0.0
C2041 C 0.46687 0.49458 0.29753 0.0
C2042 C 0.47829 0.50854 0.30517 0.0
C2043 C 0.47309 0.48751 0.28421 0.0
C2044 C 0.49075 0.49437 0.27834 0.0
C2045 C 0.50277 0.50716 0.28642 0.0
C2046 C 0.49658 0.51421 0.2997 0.0
C2047 C 0.4958 0.49039 0.26322 0.0
C2048 C 0.51409 0.48196 0.26003 0.0
C2049 C 0.48347 0.49672 0.25193 0.0
C2050 C 0.46437 0.50657 0.25456 0.0
C2051 C 0.46334 0.52489 0.26208 0.0
C2052 C 0.44526 0.534 0.26461 0.0
C2053 C 0.42813 0.52503 0.25954 0.0
C2054 C 0.42907 0.50696 0.25188 0.0
C2055 C 0.44712 0.49776 0.24935 0.0
H2056 H 0.41415 0.5321 0.2615 0.0
H2057 H 0.59168 0.44919 0.23527 0.0
H2058 H 0.98549 0.48184 0.31624 0.0
H2059 H 0.97045 0.48973 0.29319 0.0
H2060 H 0.02635 0.50889 0.27686 0.0
H2061 H 0.04151 0.50102 0.2999 0.0
H2062 H 0.99346 0.5308 0.2652 0.0
H2063 H 0.01615 0.46245 0.27295 0.0
H2064 H 0.0182 0.43078 0.28668 0.0
H2065 H 0.95611 0.42308 0.28313 0.0
H2066 H 0.95365 0.45494 0.2696 0.0
H2067 H 0.9854 0.50339 0.19153 0.0
H2068 H 0.99418 0.51042 0.21633 0.0
H2069 H 0.94169 0.48056 0.23059 0.0
H2070 H 0.9335 0.47228 0.206 0.0
H2071 H 0.9714 0.46611 0.24396 0.0
H2072 H 0.94895 0.53289 0.23373 0.0
H2073 H 0.94694 0.56489 0.22039 0.0
H2074 H 0.0078 0.57591 0.22829 0.0
H2075 H 0.01026 0.54383 0.24151 0.0
C2076 C 0.99447 0.48817 0.30784 0.0
C2077 C 0.01471 0.49046 0.30974 0.0
C2078 C 0.98586 0.4928 0.29473 0.0
C2079 C 0.99739 0.49958 0.28331 0.0
C2080 C 0.01724 0.5037 0.28558 0.0
C2081 C 0.02587 0.49915 0.29873 0.0
C2082 C 0.98956 0.49897 0.26859 0.0
C2083 C 0.98868 0.51671 0.26047 0.0
C2084 C 0.98318 0.48057 0.26257 0.0
C2085 C 0.98469 0.46117 0.2704 0.0
C2086 C 0.00292 0.45406 0.27518 0.0
C2087 C 0.00416 0.43608 0.28292 0.0
C2088 C 0.98729 0.42495 0.28581 0.0
C2089 C 0.96916 0.43174 0.28091 0.0
C2090 C 0.96783 0.44976 0.2732 0.0
C2091 C 0.9757 0.49833 0.19993 0.0
C2092 C 0.95882 0.48708 0.19672 0.0
C2093 C 0.98059 0.50266 0.21411 0.0
C2094 C 0.96853 0.49613 0.22533 0.0
C2095 C 0.95121 0.48577 0.2221 0.0
C2096 C 0.94645 0.48121 0.20798 0.0
C2097 C 0.97492 0.49805 0.24042 0.0
C2098 C 0.9758 0.48038 0.24864 0.0
C2099 C 0.98126 0.51653 0.24644 0.0
C2100 C 0.97982 0.53586 0.23852 0.0
C2101 C 0.96195 0.54205 0.23253 0.0
C2102 C 0.96072 0.56022 0.22501 0.0
C2103 C 0.97724 0.5724 0.22347 0.0
C2104 C 0.99501 0.56645 0.22948 0.0
C2105 C 0.99633 0.54829 0.23701 0.0
H2106 H 0.97625 0.58646 0.21764 0.0
H2107 H 0.98827 0.41103 0.29181 0.0
H2108 H 0.50121 0.48518 0.68889 0.0
H2109 H 0.49335 0.49345 0.71377 0.0
H2110 H 0.55474 0.49417 0.72415 0.0
H2111 H 0.56269 0.48592 0.6993 0.0
H2112 H 0.53213 0.46815 0.741 0.0
H2113 H 0.53137 0.53691 0.72549 0.0
H2114 H 0.52188 0.56539 0.71004 0.0
H2115 H 0.46167 0.55658 0.72123 0.0
H2116 H 0.47075 0.52784 0.73659 0.0
H2117 H 0.51169 0.48269 0.81311 0.0
H2118 H 0.52581 0.49103 0.78977 0.0
H2119 H 0.46787 0.50063 0.77278 0.0
H2120 H 0.45391 0.49335 0.79633 0.0
H2121 H 0.49237 0.52484 0.75974 0.0
H2122 H 0.49096 0.45406 0.77123 0.0
H2123 H 0.49815 0.424 0.78583 0.0
H2124 H 0.55968 0.43447 0.78087 0.0
H2125 H 0.55283 0.4648 0.76641 0.0
C2126 C 0.51301 0.48739 0.69646 0.0
C2127 C 0.53254 0.48486 0.69222 0.0
C2128 C 0.50852 0.49226 0.7106 0.0
C2129 C 0.52349 0.49452 0.72073 0.0
C2130 C 0.54302 0.49261 0.71644 0.0
C2131 C 0.54753 0.48797 0.70226 0.0
C2132 C 0.51863 0.49662 0.73605 0.0
C2133 C 0.52383 0.48078 0.7452 0.0
C2134 C 0.50726 0.51278 0.74132 0.0
C2135 C 0.50174 0.53011 0.73212 0.0
C2136 C 0.51609 0.54093 0.72457 0.0
C2137 C 0.51078 0.55715 0.71585 0.0
C2138 C 0.49118 0.56277 0.71464 0.0
C2139 C 0.47685 0.5522 0.72217 0.0
C2140 C 0.48207 0.53596 0.73091 0.0
C2141 C 0.5021 0.48717 0.80445 0.0
C2142 C 0.4818 0.48733 0.80635 0.0
C2143 C 0.51011 0.49183 0.79114 0.0
C2144 C 0.49785 0.49594 0.77944 0.0
C2145 C 0.47761 0.49746 0.78163 0.0
C2146 C 0.46964 0.49326 0.79504 0.0
C2147 C 0.50577 0.49629 0.76469 0.0
C2148 C 0.50102 0.51244 0.75562 0.0
C2149 C 0.51723 0.48017 0.75934 0.0
C2150 C 0.52138 0.46181 0.76788 0.0
C2151 C 0.50602 0.45001 0.77332 0.0
C2152 C 0.51003 0.43293 0.78157 0.0
C2153 C 0.52936 0.42736 0.78431 0.0
C2154 C 0.54471 0.43883 0.77876 0.0
C2155 C 0.54078 0.45597 0.77054 0.0
H2156 H 0.53244 0.41413 0.7907 0.0
H2157 H 0.48711 0.57533 0.70788 0.0
H2158 H 0.01985 0.49471 0.80449 0.0
H2159 H 0.01136 0.49017 0.77926 0.0
H2160 H 0.05792 0.53054 0.76719 0.0
H2161 H 0.06601 0.53574 0.79227 0.0
H2162 H 0.02362 0.54186 0.75615 0.0
H2163 H 0.06033 0.48034 0.75964 0.0
H2164 H 0.06924 0.44731 0.76982 0.0
H2165 H 0.01174 0.42484 0.7607 0.0
H2166 H 0.0024 0.45784 0.75064 0.0
H2167 H 0.0135 0.53819 0.68273 0.0
H2168 H 0.0289 0.53106 0.70579 0.0
H2169 H 0.98075 0.4922 0.71705 0.0
H2170 H 0.96549 0.49897 0.69378 0.0
H2171 H 0.01608 0.47864 0.72831 0.0
H2172 H 0.97865 0.53987 0.72643 0.0
H2173 H 0.96889 0.57269 0.71631 0.0
H2174 H 0.0268 0.5956 0.72318 0.0
H2175 H 0.03701 0.56277 0.73312 0.0
C2176 C 0.02838 0.50248 0.79645 0.0
C2177 C 0.04354 0.51567 0.80041 0.0
C2178 C 0.02364 0.49969 0.78204 0.0
C2179 C 0.03406 0.50998 0.77137 0.0
C2180 C 0.04973 0.52243 0.77527 0.0
C2181 C 0.05444 0.52525 0.78963 0.0
C2182 C 0.02739 0.5096 0.75632 0.0
C2183 C 0.02233 0.52805 0.75 0.0
C2184 C 0.02501 0.49151 0.74849 0.0
C2185 C 0.03061 0.47164 0.75451 0.0
C2186 C 0.04953 0.46842 0.75992 0.0
C2187 C 0.05467 0.44968 0.76565 0.0
C2188 C 0.04105 0.434 0.76594 0.0
C2189 C 0.02227 0.43701 0.76048 0.0
C2190 C 0.01705 0.45572 0.75475 0.0
C2191 C 0.00644 0.52779 0.69003 0.0
C2192 C 0.98823 0.51934 0.68665 0.0
C2193 C 0.01524 0.5237 0.70314 0.0
C2194 C 0.00575 0.51143 0.7132 0.0
C2195 C 0.98827 0.50173 0.70942 0.0
C2196 C 0.97956 0.50564 0.69618 0.0
C2197 C 0.01276 0.51092 0.72816 0.0
C2198 C 0.01761 0.4924 0.73448 0.0
C2199 C 0.01483 0.52893 0.73612 0.0
C2200 C 0.00864 0.54881 0.73039 0.0
C2201 C 0.98934 0.55187 0.7257 0.0
C2202 C 0.98372 0.57047 0.72 0.0
C2203 C 0.99723 0.58621 0.71908 0.0
C2204 C 0.01637 0.58339 0.72389 0.0
C2205 C 0.02207 0.56479 0.72956 0.0
H2206 H 0.99286 0.6006 0.71466 0.0
H2207 H 0.04506 0.4195 0.77038 0.0
H2208 H 0.05743 0.18879 0.1325 0.0
H2209 H 0.04327 0.22269 0.13309 0.0
H2210 H 0.99125 0.20021 0.11235 0.0
H2211 H 0.00588 0.1666 0.1111 0.0
H2212 H -0.00098 0.23407 0.10148 0.0
H2213 H 0.99442 0.21109 0.14973 0.0
H2214 H 0.00604 0.19709 0.17264 0.0
H2215 H 0.04488 0.24739 0.17784 0.0
H2216 H 0.03368 0.26156 0.15486 0.0
H2217 H 0.93756 0.31692 0.12391 0.0
H2218 H 0.95215 0.28302 0.12346 0.0
H2219 H 0.00968 0.30926 0.12596 0.0
H2220 H 0.9952 0.34314 0.126 0.0
H2221 H 0.99846 0.27404 0.14632 0.0
H2222 H 0.00153 0.29577 0.09659 0.0
H2223 H 0.98692 0.30906 0.07441 0.0
H2224 H 0.94674 0.25936 0.07333 0.0
H2225 H 0.96094 0.24595 0.09565 0.0
C2226 C 0.043 0.1912 0.12805 0.0
C2227 C 0.0327 0.1752 0.12176 0.0
C2228 C 0.03485 0.2105 0.12847 0.0
C2229 C 0.01599 0.21399 0.12302 0.0
C2230 C 0.0058 0.19796 0.11663 0.0
C2231 C 0.01413 0.17877 0.11592 0.0
C2232 C 0.00693 0.23434 0.12382 0.0
C2233 C -0.00128 0.24263 0.11136 0.0
C2234 C 0.00661 0.24573 0.13666 0.0
C2235 C 0.01335 0.23728 0.1505 0.0
C2236 C 0.00554 0.21909 0.15571 0.0
C2237 C 0.01204 0.21114 0.16871 0.0
C2238 C 0.02622 0.22132 0.17667 0.0
C2239 C 0.03391 0.23951 0.17166 0.0
C2240 C 0.02749 0.24751 0.15865 0.0
C2241 C 0.9533 0.31536 0.12439 0.0
C2242 C 0.96532 0.33249 0.12492 0.0
C2243 C 0.96158 0.2961 0.12412 0.0
C2244 C 0.98194 0.29377 0.12467 0.0
C2245 C 0.99394 0.31085 0.12554 0.0
C2246 C 0.98569 0.3301 0.12549 0.0
C2247 C 0.99076 0.27349 0.12404 0.0
C2248 C -0.00116 0.26531 0.13652 0.0
C2249 C 0.99058 0.26202 0.11133 0.0
C2250 C 0.98214 0.27 0.09788 0.0
C2251 C 0.98945 0.2878 0.09171 0.0
C2252 C 0.98127 0.29532 0.07909 0.0
C2253 C 0.96587 0.2851 0.07249 0.0
C2254 C 0.95865 0.26729 0.07847 0.0
C2255 C 0.96676 0.25971 0.0911 0.0
H2256 H 0.95956 0.29095 0.06272 0.0
H2257 H 0.03123 0.21514 0.18674 0.0
H2258 H 0.43492 0.80963 0.11832 0.0
H2259 H 0.44818 0.77533 0.11897 0.0
H2260 H 0.50436 0.79893 0.1316 0.0
H2261 H 0.49129 0.83317 0.13062 0.0
H2262 H 0.50925 0.77192 0.11185 0.0
H2263 H 0.47275 0.77488 0.15555 0.0
H2264 H 0.44372 0.78057 0.17062 0.0
H2265 H 0.4128 0.7342 0.14794 0.0
H2266 H 0.44157 0.72842 0.1326 0.0
H2267 H 0.55197 0.6798 0.13539 0.0
H2268 H 0.53761 0.71366 0.13524 0.0
H2269 H 0.48496 0.68984 0.11635 0.0
H2270 H 0.49918 0.65596 0.11654 0.0
H2271 H 0.47802 0.71645 0.13912 0.0
H2272 H 0.51548 0.71368 0.09564 0.0
H2273 H 0.54512 0.70805 0.08121 0.0
H2274 H 0.57505 0.75441 0.10461 0.0
H2275 H 0.54566 0.76012 0.11932 0.0
C2276 C 0.45005 0.80742 0.12132 0.0
C2277 C 0.4621 0.82402 0.12439 0.0
C2278 C 0.45761 0.78785 0.12172 0.0
C2279 C 0.47724 0.78452 0.12548 0.0
C2280 C 0.48921 0.80111 0.12862 0.0
C2281 C 0.48174 0.82066 0.12806 0.0
C2282 C 0.48549 0.76382 0.12584 0.0
C2283 C 0.50254 0.75988 0.11799 0.0
C2284 C 0.47654 0.74797 0.13359 0.0
C2285 C 0.45925 0.75136 0.14283 0.0
C2286 C 0.45971 0.766 0.15371 0.0
C2287 C 0.44331 0.76922 0.16231 0.0
C2288 C 0.42641 0.75779 0.16021 0.0
C2289 C 0.42589 0.74306 0.14954 0.0
C2290 C 0.44224 0.7398 0.14089 0.0
C2291 C 0.5373 0.6818 0.13128 0.0
C2292 C 0.52672 0.66531 0.1259 0.0
C2293 C 0.52917 0.70112 0.13114 0.0
C2294 C 0.51029 0.70422 0.12569 0.0
C2295 C 0.49956 0.68773 0.12056 0.0
C2296 C 0.50775 0.66845 0.12058 0.0
C2297 C 0.50177 0.72472 0.12524 0.0
C2298 C 0.48468 0.72856 0.13303 0.0
C2299 C 0.51077 0.74054 0.11755 0.0
C2300 C 0.52843 0.73718 0.10868 0.0
C2301 C 0.52843 0.72255 0.09779 0.0
C2302 C 0.54518 0.71937 0.08954 0.0
C2303 C 0.56197 0.73083 0.09202 0.0
C2304 C 0.56204 0.74553 0.10272 0.0
C2305 C 0.54534 0.74875 0.11101 0.0
H2306 H 0.57492 0.72835 0.08562 0.0
H2307 H 0.41373 0.7603 0.16689 0.0
H2308 H 0.44696 0.68528 0.34787 0.0
H2309 H 0.46133 0.71906 0.34711 0.0
H2310 H 0.50447 0.70098 0.37823 0.0
H2311 H 0.49018 0.66726 0.37905 0.0
H2312 H 0.48964 0.73678 0.38485 0.0
H2313 H 0.51599 0.70571 0.34276 0.0
H2314 H 0.51471 0.68755 0.31977 0.0
H2315 H 0.48064 0.7354 0.30148 0.0
H2316 H 0.48148 0.75373 0.32443 0.0
H2317 H 0.55436 0.81918 0.37741 0.0
H2318 H 0.54096 0.78504 0.37655 0.0
H2319 H 0.496 0.80511 0.34753 0.0
H2320 H 0.50912 0.83936 0.34848 0.0
H2321 H 0.51166 0.76851 0.3396 0.0
H2322 H 0.48538 0.79939 0.38192 0.0
H2323 H 0.48709 0.81749 0.40491 0.0
H2324 H 0.52158 0.76965 0.42278 0.0
H2325 H 0.52033 0.75139 0.39982 0.0
C2326 C 0.45959 0.68849 0.35447 0.0
C2327 C 0.46742 0.67363 0.36354 0.0
C2328 C 0.46779 0.70777 0.35403 0.0
C2329 C 0.4841 0.71247 0.36252 0.0
C2330 C 0.49187 0.69769 0.37162 0.0
C2331 C 0.48363 0.67846 0.37211 0.0
C2332 C 0.49292 0.73288 0.36211 0.0
C2333 C 0.4947 0.74359 0.37498 0.0
C2334 C 0.49912 0.74195 0.34918 0.0
C2335 C 0.49864 0.73099 0.33536 0.0
C2336 C 0.50809 0.71228 0.33387 0.0
C2337 C 0.50747 0.70197 0.32084 0.0
C2338 C 0.49755 0.71029 0.30918 0.0
C2339 C 0.48829 0.72897 0.31052 0.0
C2340 C 0.48885 0.73933 0.32353 0.0
C2341 C 0.54159 0.81636 0.37087 0.0
C2342 C 0.53273 0.83203 0.36309 0.0
C2343 C 0.53399 0.79683 0.37036 0.0
C2344 C 0.51736 0.79263 0.3621 0.0
C2345 C 0.50887 0.80806 0.35395 0.0
C2346 C 0.51643 0.8276 0.35447 0.0
C2347 C 0.50846 0.77229 0.36234 0.0
C2348 C 0.50662 0.76164 0.34945 0.0
C2349 C 0.50226 0.76323 0.37526 0.0
C2350 C 0.50292 0.77412 0.38911 0.0
C2351 C 0.49346 0.7928 0.39072 0.0
C2352 C 0.49433 0.80308 0.40375 0.0
C2353 C 0.50448 0.79475 0.41529 0.0
C2354 C 0.51375 0.77609 0.41383 0.0
C2355 C 0.51295 0.76577 0.40081 0.0
H2356 H 0.50513 0.80273 0.42537 0.0
H2357 H 0.49709 0.70229 0.29911 0.0
H2358 H 0.00319 0.33829 0.35895 0.0
H2359 H 0.98892 0.30464 0.35884 0.0
H2360 H 0.04558 0.27881 0.36737 0.0
H2361 H 0.0602 0.31241 0.36672 0.0
H2362 H 0.02661 0.25656 0.3485 0.0
H2363 H 0.01138 0.28557 0.39412 0.0
H2364 H 0.99843 0.31129 0.41062 0.0
H2365 H 0.94112 0.30388 0.39271 0.0
H2366 H 0.95379 0.2783 0.37595 0.0
H2367 H 0.99503 0.16171 0.37492 0.0
H2368 H 0.00889 0.19558 0.37302 0.0
H2369 H 0.95265 0.21884 0.36034 0.0
H2370 H 0.93859 0.18497 0.36243 0.0
H2371 H 0.97089 0.24234 0.38088 0.0
H2372 H 0.9867 0.21215 0.33567 0.0
H2373 H 0.0002 0.18595 0.3198 0.0
H2374 H 0.05721 0.19505 0.33784 0.0
H2375 H 0.04399 0.22112 0.35398 0.0
C2376 C 0.01272 0.32546 0.36053 0.0
C2377 C 0.03287 0.32811 0.36289 0.0
C2378 C 0.00448 0.30622 0.36065 0.0
C2379 C 0.01612 0.28923 0.36337 0.0
C2380 C 0.0363 0.29173 0.36535 0.0
C2381 C 0.0446 0.31097 0.36511 0.0
C2382 C 0.0072 0.2689 0.36437 0.0
C2383 C 0.01458 0.2534 0.35571 0.0
C2384 C 0.99125 0.26485 0.37358 0.0
C2385 C 0.98358 0.28017 0.38369 0.0
C2386 C 0.99605 0.28953 0.39363 0.0
C2387 C 0.98875 0.30407 0.40304 0.0
C2388 C 0.96898 0.30925 0.40269 0.0
C2389 C 0.95644 0.29987 0.39295 0.0
C2390 C 0.96366 0.28534 0.38351 0.0
C2391 C 0.98558 0.17407 0.37186 0.0
C2392 C 0.96572 0.17072 0.36885 0.0
C2393 C 0.99355 0.19336 0.37065 0.0
C2394 C 0.98182 0.20964 0.36641 0.0
C2395 C 0.96194 0.20642 0.36358 0.0
C2396 C 0.95397 0.18709 0.3647 0.0
C2397 C 0.99033 0.23007 0.36504 0.0
C2398 C 0.98288 0.24556 0.37365 0.0
C2399 C 0.0063 0.23405 0.35587 0.0
C2400 C 0.01431 0.21846 0.34613 0.0
C2401 C 0.00208 0.20845 0.33634 0.0
C2402 C 0.00969 0.19364 0.32728 0.0
C2403 C 0.02954 0.1888 0.32784 0.0
C2404 C 0.04183 0.1988 0.33743 0.0
C2405 C 0.03429 0.21361 0.34653 0.0
H2406 H 0.0354 0.17734 0.32082 0.0
H2407 H 0.96336 0.32051 0.40998 0.0
H2408 H 0.99662 0.65835 0.86703 0.0
H2409 H 0.98337 0.69247 0.86585 0.0
H2410 H 0.04168 0.71693 0.86796 0.0
H2411 H 0.05512 0.68276 0.86897 0.0
H2412 H 0.01682 0.73603 0.88617 0.0
H2413 H 0.01719 0.71678 0.83674 0.0
H2414 H 0.00996 0.69499 0.81605 0.0
H2415 H 0.94846 0.70141 0.82382 0.0
H2416 H 0.95534 0.72303 0.8447 0.0
H2417 H 0.99334 0.83643 0.86802 0.0
H2418 H 0.00678 0.80238 0.86781 0.0
H2419 H 0.94861 0.77778 0.86457 0.0
H2420 H 0.93505 0.81193 0.86422 0.0
H2421 H 0.97347 0.75873 0.84679 0.0
H2422 H 0.97291 0.77759 0.89627 0.0
H2423 H 0.97992 0.79925 0.91707 0.0
H2424 H 0.04148 0.79333 0.90939 0.0
H2425 H 0.03483 0.77185 0.8884 0.0
C2426 C 0.00667 0.67096 0.86704 0.0
C2427 C 0.02695 0.66783 0.86802 0.0
C2428 C -0.00095 0.69046 0.86641 0.0
C2429 C 0.01155 0.70722 0.86668 0.0
C2430 C 0.03179 0.70418 0.86775 0.0
C2431 C 0.03943 0.68466 0.86837 0.0
C2432 C 0.00344 0.72791 0.86614 0.0
C2433 C 0.00758 0.74111 0.87746 0.0
C2434 C 0.99097 0.73431 0.85495 0.0
C2435 C 0.98679 0.72137 0.84237 0.0
C2436 C 0.00213 0.71342 0.83411 0.0
C2437 C 0.99809 0.70112 0.82234 0.0
C2438 C 0.97877 0.69678 0.81865 0.0
C2439 C 0.96343 0.70477 0.82671 0.0
C2440 C 0.96739 0.71706 0.8385 0.0
C2441 C 0.98339 0.82381 0.86708 0.0
C2442 C 0.9631 0.82691 0.86613 0.0
C2443 C 0.9911 0.80434 0.86711 0.0
C2444 C 0.97868 0.78754 0.86637 0.0
C2445 C 0.95845 0.79054 0.86522 0.0
C2446 C 0.95071 0.81005 0.86514 0.0
C2447 C 0.98686 0.76686 0.86682 0.0
C2448 C 0.98273 0.75366 0.85549 0.0
C2449 C -0.00069 0.76044 0.87802 0.0
C2450 C 0.00336 0.77326 0.89068 0.0
C2451 C 0.98794 0.78103 0.89895 0.0
C2452 C 0.99185 0.79325 0.91078 0.0
C2453 C 0.01113 0.7977 0.91453 0.0
C2454 C 0.02655 0.78989 0.90646 0.0
C2455 C 0.02272 0.77767 0.8946 0.0
H2456 H 0.01413 0.80717 0.92369 0.0
H2457 H 0.97567 0.68725 0.80953 0.0
H2458 H 0.49174 0.33725 0.8697 0.0
H2459 H 0.50475 0.3031 0.86752 0.0
H2460 H 0.44637 0.27997 0.86181 0.0
H2461 H 0.43318 0.31416 0.86427 0.0
H2462 H 0.46805 0.2575 0.88084 0.0
H2463 H 0.4757 0.28433 0.83352 0.0
H2464 H 0.48629 0.30924 0.81556 0.0
H2465 H 0.54604 0.30075 0.82817 0.0
H2466 H 0.53578 0.27599 0.84636 0.0
H2467 H 0.49677 0.15978 0.86018 0.0
H2468 H 0.48236 0.19336 0.85974 0.0
H2469 H 0.53983 0.21987 0.86204 0.0
H2470 H 0.55446 0.18627 0.86169 0.0
H2471 H 0.51759 0.24047 0.84405 0.0
H2472 H 0.51053 0.21524 0.89188 0.0
H2473 H 0.50063 0.19087 0.91042 0.0
H2474 H 0.44068 0.19697 0.89762 0.0
H2475 H 0.45026 0.22118 0.87886 0.0
C2476 C 0.48165 0.32488 0.86811 0.0
C2477 C 0.46143 0.32837 0.86718 0.0
C2478 C 0.48912 0.30541 0.86673 0.0
C2479 C 0.47653 0.28906 0.86435 0.0
C2480 C 0.45632 0.29243 0.86358 0.0
C2481 C 0.44883 0.31194 0.8649 0.0
C2482 C 0.48453 0.26843 0.86285 0.0
C2483 C 0.47864 0.25365 0.87266 0.0
C2484 C 0.49873 0.26364 0.85239 0.0
C2485 C 0.50495 0.27843 0.84139 0.0
C2486 C 0.49108 0.28788 0.83254 0.0
C2487 C 0.49703 0.30196 0.8223 0.0
C2488 C 0.51682 0.30661 0.82075 0.0
C2489 C 0.53071 0.29715 0.8294 0.0
C2490 C 0.52484 0.28307 0.83966 0.0
C2491 C 0.50641 0.17272 0.86029 0.0
C2492 C 0.52681 0.17028 0.86103 0.0
C2493 C 0.49811 0.19193 0.86023 0.0
C2494 C 0.51 0.20912 0.86113 0.0
C2495 C 0.53037 0.2068 0.86143 0.0
C2496 C 0.5387 0.18757 0.86137 0.0
C2497 C 0.50117 0.2295 0.86209 0.0
C2498 C 0.50692 0.24425 0.85219 0.0
C2499 C 0.48695 0.23433 0.87255 0.0
C2500 C 0.48114 0.21986 0.88387 0.0
C2501 C 0.49525 0.21127 0.89295 0.0
C2502 C 0.4897 0.1975 0.90351 0.0
C2503 C 0.47005 0.19233 0.90518 0.0
C2504 C 0.4559 0.20096 0.89631 0.0
C2505 C 0.46138 0.21472 0.88571 0.0
H2506 H 0.46577 0.18167 0.91336 0.0
H2507 H 0.52139 0.31751 0.81282 0.0
H2508 H 0.43975 0.18597 0.61128 0.0
H2509 H 0.4542 0.21968 0.61139 0.0
H2510 H 0.49574 0.20071 0.64335 0.0
H2511 H 0.48163 0.16688 0.64315 0.0
H2512 H 0.48039 0.23815 0.64915 0.0
H2513 H 0.50971 0.2037 0.6094 0.0
H2514 H 0.50971 0.18405 0.58702 0.0
H2515 H 0.47832 0.23145 0.56579 0.0
H2516 H 0.47788 0.25127 0.58812 0.0
H2517 H 0.54678 0.32005 0.64182 0.0
H2518 H 0.53201 0.28647 0.64288 0.0
H2519 H 0.49313 0.30246 0.60835 0.0
H2520 H 0.50801 0.3359 0.60713 0.0
H2521 H 0.50738 0.26616 0.60411 0.0
H2522 H 0.47772 0.30064 0.64371 0.0
H2523 H 0.47727 0.32031 0.66608 0.0
H2524 H 0.50871 0.27317 0.68756 0.0
H2525 H 0.50957 0.25333 0.66526 0.0
C2526 C 0.45201 0.18893 0.6183 0.0
C2527 C 0.45957 0.17367 0.62716 0.0
C2528 C 0.4602 0.20822 0.61838 0.0
C2529 C 0.47616 0.21261 0.62728 0.0
C2530 C 0.4834 0.19763 0.63643 0.0
C2531 C 0.47525 0.17832 0.63633 0.0
C2532 C 0.48561 0.23271 0.62679 0.0
C2533 C 0.48651 0.24421 0.63935 0.0
C2534 C 0.49324 0.24071 0.61393 0.0
C2535 C 0.4936 0.22888 0.60047 0.0
C2536 C 0.50267 0.20987 0.59999 0.0
C2537 C 0.50277 0.19871 0.58731 0.0
C2538 C 0.49397 0.20647 0.575 0.0
C2539 C 0.4851 0.22544 0.57534 0.0
C2540 C 0.48494 0.23665 0.588 0.0
C2541 C 0.53502 0.31641 0.63451 0.0
C2542 C 0.52857 0.33058 0.62438 0.0
C2543 C 0.52657 0.29724 0.63514 0.0
C2544 C 0.51129 0.29201 0.6258 0.0
C2545 C 0.50492 0.30613 0.61564 0.0
C2546 C 0.51346 0.32521 0.61493 0.0
C2547 C 0.50206 0.27177 0.62646 0.0
C2548 C 0.50125 0.26018 0.61392 0.0
C2549 C 0.49445 0.26373 0.63934 0.0
C2550 C 0.49388 0.27559 0.65278 0.0
C2551 C 0.48466 0.29454 0.65318 0.0
C2552 C 0.48431 0.30571 0.66585 0.0
C2553 C 0.493 0.29802 0.67823 0.0
C2554 C 0.50201 0.27912 0.67796 0.0
C2555 C 0.50242 0.2679 0.66531 0.0
H2556 H 0.49271 0.30669 0.68803 0.0
H2557 H 0.49407 0.19781 0.5652 0.0
H2558 H 0.04639 0.81817 0.60902 0.0
H2559 H 0.03134 0.78473 0.60862 0.0
H2560 H 0.99614 0.80069 0.64518 0.0
H2561 H 0.01159 0.83396 0.64584 0.0
H2562 H 0.0085 0.76374 0.64805 0.0
H2563 H 0.97761 0.80071 0.61033 0.0
H2564 H 0.9761 0.82158 0.58854 0.0
H2565 H 0.00495 0.77495 0.56472 0.0
H2566 H 0.00688 0.7539 0.58643 0.0
H2567 H 0.93981 0.6837 0.63932 0.0
H2568 H 0.95417 0.71745 0.64033 0.0
H2569 H 0.99568 0.70074 0.60777 0.0
H2570 H 0.98183 0.66688 0.60692 0.0
H2571 H 0.97898 0.73832 0.60306 0.0
H2572 H 0.00992 0.70176 0.64151 0.0
H2573 H 0.01037 0.68115 0.66345 0.0
H2574 H 0.97968 0.72772 0.68606 0.0
H2575 H 0.9788 0.7485 0.66418 0.0
C2576 C 0.03547 0.81449 0.61697 0.0
C2577 C 0.03008 0.82866 0.62742 0.0
C2578 C 0.02682 0.79543 0.61671 0.0
C2579 C 0.01231 0.79031 0.62669 0.0
C2580 C 0.00726 0.80429 0.63735 0.0
C2581 C 0.01611 0.82327 0.63773 0.0
C2582 C 0.0023 0.77046 0.62596 0.0
C2583 C 0.0018 0.75834 0.63826 0.0
C2584 C 0.99378 0.76323 0.61313 0.0
C2585 C 0.99254 0.7758 0.60004 0.0
C2586 C 0.98375 0.79496 0.60047 0.0
C2587 C 0.98281 0.80682 0.58813 0.0
C2588 C 0.99047 0.79962 0.57527 0.0
C2589 C -0.00096 0.78052 0.5747 0.0
C2590 C 5e-05 0.76861 0.58702 0.0
C2591 C 0.95207 0.68715 0.63242 0.0
C2592 C 0.95966 0.67252 0.62305 0.0
C2593 C 0.9602 0.70646 0.63299 0.0
C2594 C 0.97607 0.71151 0.62419 0.0
C2595 C 0.98339 0.69715 0.61461 0.0
C2596 C 0.97536 0.67782 0.61409 0.0
C2597 C 0.98529 0.73168 0.62511 0.0
C2598 C 0.98562 0.74383 0.61284 0.0
C2599 C 0.99348 0.73901 0.63799 0.0
C2600 C 0.99411 0.72659 0.65117 0.0
C2601 C 0.00313 0.70753 0.65113 0.0
C2602 C 0.00349 0.69583 0.66356 0.0
C2603 C 0.99502 0.7031 0.67613 0.0
C2604 C 0.98621 0.7221 0.67631 0.0
C2605 C 0.98579 0.73385 0.6639 0.0
H2606 H 0.99531 0.69402 0.68575 0.0
H2607 H 0.98972 0.80882 0.56572 0.0
H2608 H 0.9385 0.99486 0.94687 0.0
H2609 H 0.94839 0.00563 0.97088 0.0
H2610 H -0.00023 0.96818 0.96807 0.0
H2611 H 0.98985 0.95716 0.94419 0.0
H2612 H 0.98052 0.96443 0.99395 0.0
H2613 H 0.00382 0.01738 0.96288 0.0
H2614 H 0.00039 0.04373 0.94445 0.0
H2615 H 0.95908 0.07517 0.97082 0.0
H2616 H 0.96207 0.04883 0.98933 0.0
H2617 H 0.04068 0.00291 0.0487 0.0
H2618 H 0.02651 0.99194 0.02602 0.0
H2619 H 0.98013 0.03549 0.03083 0.0
H2620 H 0.99441 0.04668 0.05349 0.0
H2621 H 0.99414 0.03639 0.00449 0.0
H2622 H 0.97196 0.98495 0.03623 0.0
H2623 H 0.97488 0.95871 0.05478 0.0
H2624 H 0.01285 0.92441 0.02754 0.0
H2625 H 0.0104 0.95059 0.0089 0.0
C2626 C 0.95183 0.98885 0.95143 0.0
C2627 C 0.96347 0.97525 0.94367 0.0
C2628 C 0.95751 0.99508 0.96508 0.0
C2629 C 0.97486 0.98778 0.97116 0.0
C2630 C 0.98634 0.97399 0.96352 0.0
C2631 C 0.98075 0.96785 0.94986 0.0
C2632 C 0.98122 0.99459 0.98547 0.0
C2633 C 0.98368 0.98012 0.99626 0.0
C2634 C 0.98475 0.01515 0.98852 0.0
C2635 C 0.983 0.03102 0.97742 0.0
C2636 C 0.99388 0.02982 0.9647 0.0
C2637 C 0.99204 0.04477 0.95424 0.0
C2638 C 0.97948 0.06108 0.95644 0.0
C2639 C 0.96878 0.0625 0.96912 0.0
C2640 C 0.97055 0.04758 0.9796 0.0
C2641 C 0.02734 0.00998 0.04499 0.0
C2642 C 0.01859 0.02558 0.05286 0.0
C2643 C 0.01925 0.0037 0.03205 0.0
C2644 C 0.00211 0.01271 0.02684 0.0
C2645 C 0.99335 0.02833 0.03467 0.0
C2646 C 0.00153 0.03472 0.04758 0.0
C2647 C 0.99369 0.00618 0.013 0.0
C2648 C 0.99083 0.0207 0.00228 0.0
C2649 C 0.98967 0.98567 0.01004 0.0
C2650 C 0.99112 0.96982 0.02121 0.0
C2651 C 0.98105 0.97188 0.03423 0.0
C2652 C 0.9826 0.957 0.04476 0.0
C2653 C 0.99408 0.93992 0.04235 0.0
C2654 C 0.00398 0.93766 0.0294 0.0
C2655 C 0.0025 0.9525 0.01884 0.0
H2656 H 0.99526 0.92842 0.05052 0.0
H2657 H 0.97808 0.07264 0.94834 0.0
H2658 H 0.52937 0.05573 0.95485 0.0
H2659 H 0.51987 0.04417 0.97863 0.0
H2660 H 0.52231 0.98245 0.96417 0.0
H2661 H 0.53098 0.99394 0.94017 0.0
H2662 H 0.49003 0.98909 0.97908 0.0
H2663 H 0.55821 0.00244 0.98557 0.0
H2664 H 0.58845 0.02259 0.98455 0.0
H2665 H 0.5631 0.06663 0.0126 0.0
H2666 H 0.53259 0.04688 0.01363 0.0
H2667 H 0.48345 0.94412 0.04733 0.0
H2668 H 0.49656 0.95499 0.02429 0.0
H2669 H 0.49019 0.01718 0.03696 0.0
H2670 H 0.47746 0.0064 0.06021 0.0
H2671 H 0.5252 0.00975 0.02313 0.0
H2672 H 0.45675 0.99672 0.01593 0.0
H2673 H 0.42661 0.97641 0.01698 0.0
H2674 H 0.45291 0.93144 0.99016 0.0
H2675 H 0.48333 0.95135 0.98913 0.0
C2676 C 0.52774 0.0397 0.9567 0.0
C2677 C 0.53088 0.02575 0.94561 0.0
C2678 C 0.52255 0.03311 0.97034 0.0
C2679 C 0.52063 0.01244 0.9732 0.0
C2680 C 0.52381 0.99847 0.96219 0.0
C2681 C 0.52891 0.00505 0.94852 0.0
C2682 C 0.51465 0.00544 0.98757 0.0
C2683 C 0.49792 0.99334 0.98869 0.0
C2684 C 0.52468 0.0114 0.00012 0.0
C2685 C 0.54305 0.02326 -0.00043 0.0
C2686 C 0.55903 0.0165 0.99144 0.0
C2687 C 0.57622 0.02783 0.99087 0.0
C2688 C 0.57768 0.0459 -0.00153 0.0
C2689 C 0.56194 0.05264 0.0067 0.0
C2690 C 0.5447 0.04137 0.00729 0.0
C2691 C 0.48511 0.96011 0.0453 0.0
C2692 C 0.47938 0.97443 0.05554 0.0
C2693 C 0.49246 0.96628 0.0321 0.0
C2694 C 0.49412 0.98687 0.0289 0.0
C2695 C 0.48895 0.00121 0.03924 0.0
C2696 C 0.48155 0.99505 0.05244 0.0
C2697 C 0.50065 0.99341 0.01458 0.0
C2698 C 0.51742 0.00544 0.01349 0.0
C2699 C 0.4907 0.98736 0.00204 0.0
C2700 C 0.47238 0.97543 0.00257 0.0
C2701 C 0.45616 0.98242 0.01035 0.0
C2702 C 0.43902 0.971 0.01093 0.0
C2703 C 0.43787 0.95262 0.00367 0.0
C2704 C 0.45384 0.94566 0.9958 0.0
C2705 C 0.47103 0.95702 0.9952 0.0
H2706 H 0.42458 0.9438 0.00413 0.0
H2707 H 0.591 0.05465 -0.00198 0.0
H2708 H 0.5012 0.03794 0.55585 0.0
H2709 H 0.51261 0.02601 0.53255 0.0
H2710 H 0.46614 0.98211 0.53152 0.0
H2711 H 0.45477 0.99381 0.55493 0.0
H2712 H 0.50228 0.96702 0.52182 0.0
H2713 H 0.45972 0.02375 0.51397 0.0
H2714 H 0.4482 0.0586 0.51755 0.0
H2715 H 0.5031 0.08141 0.50238 0.0
H2716 H 0.51507 0.04666 0.4989 0.0
H2717 H 0.5037 0.94666 0.44709 0.0
H2718 H 0.49407 0.95528 0.47155 0.0
H2719 H 0.53506 0.00474 0.47146 0.0
H2720 H 0.54448 0.99637 0.44698 0.0
H2721 H 0.50145 0.01651 0.48202 0.0
H2722 H 0.54424 0.9602 0.48958 0.0
H2723 H 0.5563 0.92549 0.48622 0.0
H2724 H 0.50204 0.90197 0.50206 0.0
H2725 H 0.48954 0.93656 0.50533 0.0
C2726 C 0.49362 0.02552 0.55076 0.0
C2727 C 0.47704 0.01687 0.55713 0.0
C2728 C 0.50007 0.01882 0.53744 0.0
C2729 C 0.49006 0.00335 0.5303 0.0
C2730 C 0.474 0.99411 0.53688 0.0
C2731 C 0.46746 0.00089 0.55017 0.0
C2732 C 0.49575 0.99755 0.51564 0.0
C2733 C 0.50192 0.97773 0.51305 0.0
C2734 C 0.49558 0.0117 0.50433 0.0
C2735 C 0.48836 0.0326 0.50631 0.0
C2736 C 0.4694 0.03619 0.5115 0.0
C2737 C 0.46277 0.05593 0.5135 0.0
C2738 C 0.47493 0.07221 0.51023 0.0
C2739 C 0.49371 0.06879 0.50492 0.0
C2740 C 0.50042 0.04908 0.50293 0.0
C2741 C 0.51071 0.95928 0.45235 0.0
C2742 C 0.5248 0.97088 0.44517 0.0
C2743 C 0.50525 0.96417 0.46631 0.0
C2744 C 0.51402 0.98052 0.47338 0.0
C2745 C 0.52809 0.99209 0.4662 0.0
C2746 C 0.53342 0.98733 0.45222 0.0
C2747 C 0.50821 0.98595 0.48813 0.0
C2748 C 0.50191 0.00574 0.49075 0.0
C2749 C 0.50837 0.97178 0.49946 0.0
C2750 C 0.51588 0.95097 0.49756 0.0
C2751 C 0.53482 0.94762 0.49224 0.0
C2752 C 0.54175 0.92798 0.49037 0.0
C2753 C 0.52992 0.91154 0.49389 0.0
C2754 C 0.51117 0.91472 0.49932 0.0
C2755 C 0.50416 0.93434 0.5012 0.0
H2756 H 0.53531 0.89634 0.49244 0.0
H2757 H 0.46977 0.08748 0.51178 0.0
H2758 H 0.01631 0.0073 0.56084 0.0
H2759 H 0.00719 0.01902 0.53704 0.0
H2760 H 0.01581 0.95904 0.52032 0.0
H2761 H 0.0262 0.9475 0.54386 0.0
H2762 H 0.03153 0.98494 0.50312 0.0
H2763 H 0.96941 0.97966 0.52649 0.0
H2764 H 0.94501 0.98586 0.54537 0.0
H2765 H 0.94768 0.04947 0.53705 0.0
H2766 H 0.97231 0.04366 0.51824 0.0
H2767 H 0.97638 0.99375 0.4387 0.0
H2768 H 0.98789 0.98485 0.46271 0.0
H2769 H 0.99106 0.04791 0.47374 0.0
H2770 H 0.97974 0.0569 0.44964 0.0
H2771 H 0.97012 0.02241 0.49372 0.0
H2772 H 0.03157 0.02623 0.46909 0.0
H2773 H 0.05481 0.01857 0.44972 0.0
H2774 H 0.05181 0.95555 0.46 0.0
H2775 H 0.0283 0.96281 0.47931 0.0
C2776 C 0.01642 0.99662 0.55209 0.0
C2777 C 0.022 0.97644 0.5543 0.0
C2778 C 0.01096 0.0033 0.53851 0.0
C2779 C 0.01059 0.98986 0.52692 0.0
C2780 C 0.01595 0.96968 0.52912 0.0
C2781 C 0.02165 0.96304 0.54264 0.0
C2782 C 0.00513 0.99688 0.51242 0.0
C2783 C 0.01798 0.99292 0.50106 0.0
C2784 C 0.98767 0.00771 0.50976 0.0
C2785 C 0.97286 0.01124 0.52107 0.0
C2786 C 0.96491 0.99498 0.52877 0.0
C2787 C 0.95102 0.99842 0.53944 0.0
C2788 C 0.94484 0.01805 0.54243 0.0
C2789 C 0.9525 0.03427 0.53473 0.0
C2790 C 0.96642 0.03092 0.52406 0.0
C2791 C 0.97968 0.00567 0.44624 0.0
C2792 C 0.97726 0.02598 0.44239 0.0
C2793 C 0.98628 0.0006 0.45988 0.0
C2794 C 0.99033 0.01575 0.46991 0.0
C2795 C 0.98801 0.03605 0.46609 0.0
C2796 C 0.98169 0.04115 0.45235 0.0
C2797 C 0.99642 0.01025 0.48453 0.0
C2798 C 0.98369 0.01451 0.49587 0.0
C2799 C 0.01384 0.99946 0.48714 0.0
C2800 C 0.02803 0.99505 0.47556 0.0
C2801 C 0.03572 0.01072 0.46714 0.0
C2802 C 0.04898 0.00645 0.45619 0.0
C2803 C 0.05475 0.98658 0.45361 0.0
C2804 C 0.04731 0.97094 0.462 0.0
C2805 C 0.03403 0.97512 0.47296 0.0
H2806 H 0.06501 0.98331 0.44512 0.0
H2807 H 0.93408 0.02068 0.5507 0.0
H2808 H 0.51771 0.48891 0.05782 0.0
H2809 H 0.50634 0.48015 0.03384 0.0
H2810 H 0.4959 0.54295 0.02475 0.0
H2811 H 0.50793 0.55201 0.04849 0.0
H2812 H 0.46515 0.51594 0.01603 0.0
H2813 H 0.53497 0.52424 0.01204 0.0
H2814 H 0.56921 0.51785 0.01886 0.0
H2815 H 0.56195 0.45489 0.00961 0.0
H2816 H 0.52755 0.46086 0.00294 0.0
H2817 H 0.45393 0.50752 0.94091 0.0
H2818 H 0.46409 0.51769 0.96497 0.0
H2819 H 0.48768 0.45817 0.97226 0.0
H2820 H 0.47822 0.44831 0.94802 0.0
H2821 H 0.51175 0.48433 0.98215 0.0
H2822 H 0.44256 0.4747 0.98651 0.0
H2823 H 0.40784 0.47965 0.98041 0.0
H2824 H 0.41293 0.54283 0.9897 0.0
H2825 H 0.44777 0.5383 0.99567 0.0
C2826 C 0.51313 0.5009 0.05071 0.0
C2827 C 0.51388 0.52119 0.05507 0.0
C2828 C 0.50652 0.49584 0.03706 0.0
C2829 C 0.50043 0.51094 0.02756 0.0
C2830 C 0.5005 0.53111 0.03199 0.0
C2831 C 0.50729 0.53622 0.04559 0.0
C2832 C 0.49464 0.5057 0.01282 0.0
C2833 C 0.47534 0.50925 0.00852 0.0
C2834 C 0.5079 0.49655 0.00324 0.0
C2835 C 0.52863 0.49297 0.00713 0.0
C2836 C 0.54063 0.509 0.01158 0.0
C2837 C 0.56007 0.50546 0.01539 0.0
C2838 C 0.56774 0.48597 0.0147 0.0
C2839 C 0.55599 0.46998 0.01015 0.0
C2840 C 0.53652 0.47343 0.00635 0.0
C2841 C 0.46129 0.49667 0.9477 0.0
C2842 C 0.46532 0.47717 0.9427 0.0
C2843 C 0.467 0.50243 0.96144 0.0
C2844 C 0.47636 0.48858 0.97052 0.0
C2845 C 0.48049 0.46912 0.96545 0.0
C2846 C 0.4751 0.46349 0.95163 0.0
C2847 C 0.48209 0.49437 0.98526 0.0
C2848 C 0.50145 0.49099 0.98959 0.0
C2849 C 0.46878 0.50343 0.99492 0.0
C2850 C 0.44782 0.50619 0.9914 0.0
C2851 C 0.43631 0.48967 0.98715 0.0
C2852 C 0.4166 0.4924 0.98373 0.0
C2853 C 0.4082 0.51156 0.98463 0.0
C2854 C 0.41947 0.52801 0.98899 0.0
C2855 C 0.43919 0.52537 0.9924 0.0
H2856 H 0.39294 0.51364 0.98198 0.0
H2857 H 0.5828 0.48326 0.01766 0.0
H2858 H 0.95171 0.48331 0.04766 0.0
H2859 H 0.96256 0.48918 0.02317 0.0
H2860 H 0.02143 0.47315 0.0351 0.0
H2861 H 0.01073 0.4677 0.05982 0.0
H2862 H 0.01998 0.50696 0.01812 0.0
H2863 H 0.99429 0.43988 0.01739 0.0
H2864 H 0.96982 0.41334 0.02182 0.0
H2865 H 0.92901 0.44383 0.99446 0.0
H2866 H 0.95313 0.47073 0.99003 0.0
H2867 H 0.05301 0.50227 0.9467 0.0
H2868 H 0.0447 0.49126 0.97086 0.0
H2869 H 0.9841 0.50526 0.96298 0.0
H2870 H 0.9922 0.51569 0.9386 0.0
H2871 H 0.98826 0.47036 0.97804 0.0
H2872 H 0.01277 0.53836 0.98009 0.0
H2873 H 0.03684 0.56529 0.97563 0.0
H2874 H 0.07945 0.53341 0.00064 0.0
H2875 H 0.05572 0.50611 0.00504 0.0
C2876 C 0.96702 0.48131 0.04514 0.0
C2877 C 0.98039 0.4751 0.05567 0.0
C2878 C 0.97315 0.48445 0.03111 0.0
C2879 C 0.99273 0.48132 0.02731 0.0
C2880 C 0.00623 0.47552 0.03783 0.0
C2881 C 9e-05 0.47233 0.0519 0.0
C2882 C -0.001 0.48417 0.01232 0.0
C2883 C 0.01331 0.49871 0.00937 0.0
C2884 C 0.98998 0.47366 0.00092 0.0
C2885 C 0.97548 0.45742 0.00347 0.0
C2886 C 0.98005 0.44101 0.0124 0.0
C2887 C 0.96624 0.42589 0.0149 0.0
C2888 C 0.94786 0.42692 0.00845 0.0
C2889 C 0.94325 0.44306 -0.00054 0.0
C2890 C 0.95699 0.45824 0.99693 0.0
C2891 C 0.03785 0.50259 0.94999 0.0
C2892 C 0.02325 0.50993 0.94077 0.0
C2893 C 0.03316 0.49647 0.96384 0.0
C2894 C 0.01384 0.49775 0.96875 0.0
C2895 C -0.00089 0.50425 0.95939 0.0
C2896 C 0.00378 0.51035 0.94553 0.0
C2897 C 0.0091 0.49327 0.98384 0.0
C2898 C 0.99506 0.47846 0.98681 0.0
C2899 C 0.01833 0.50357 0.99526 0.0
C2900 C 0.03254 0.52009 0.99276 0.0
C2901 C 0.02732 0.53702 0.98455 0.0
C2902 C 0.0409 0.55236 0.98204 0.0
C2903 C 0.05968 0.55104 0.98782 0.0
C2904 C 0.06491 0.5344 0.99615 0.0
C2905 C 0.0514 0.51899 -0.00134 0.0
H2906 H 0.07017 0.56293 0.98586 0.0
H2907 H 0.93719 0.41519 0.0104 0.0
H2908 H 0.94637 0.4939 0.5509 0.0
H2909 H 0.95636 0.48242 0.52713 0.0
H2910 H 0.99809 0.53105 0.52468 0.0
H2911 H 0.98775 0.54299 0.54817 0.0
H2912 H 0.97769 0.52737 0.50021 0.0
H2913 H 0.01256 0.48319 0.53228 0.0
H2914 H 0.01567 0.4586 0.55193 0.0
H2915 H 0.97907 0.41698 0.52913 0.0
H2916 H 0.97553 0.44145 0.50942 0.0
H2917 H 0.04074 0.49505 0.44526 0.0
H2918 H 0.02644 0.5051 0.46807 0.0
H2919 H 0.98643 0.45494 0.4659 0.0
H2920 H 0.00058 0.44485 0.44295 0.0
H2921 H 0.00324 0.4583 0.49213 0.0
H2922 H 0.9701 0.50164 0.45933 0.0
H2923 H 0.96721 0.52614 0.43962 0.0
H2924 H 0.00043 0.56931 0.46369 0.0
H2925 H 0.00377 0.54495 0.48347 0.0
C2926 C 0.95758 0.50222 0.54524 0.0
C2927 C 0.96634 0.51931 0.55142 0.0
C2928 C 0.96337 0.49555 0.53173 0.0
C2929 C 0.97808 0.50579 0.52422 0.0
C2930 C 0.98674 0.52292 0.53032 0.0
C2931 C 0.98095 0.5296 0.5438 0.0
C2932 C 0.98448 0.49879 0.50996 0.0
C2933 C 0.98346 0.51234 0.49846 0.0
C2934 C 0.99145 0.47898 0.50763 0.0
C2935 C 0.99361 0.46424 0.51945 0.0
C2936 C 0.00505 0.46886 0.53151 0.0
C2937 C 0.00691 0.45493 0.54265 0.0
C2938 C 0.99753 0.43626 0.5418 0.0
C2939 C 0.98631 0.43146 0.52979 0.0
C2940 C 0.98438 0.44535 0.51863 0.0
C2941 C 0.02874 0.4863 0.44954 0.0
C2942 C 0.02173 0.46921 0.44228 0.0
C2943 C 0.02061 0.49203 0.46258 0.0
C2944 C 0.00524 0.48088 0.46857 0.0
C2945 C 0.99829 0.46373 0.46143 0.0
C2946 C 0.00642 0.45797 0.44836 0.0
C2947 C 0.99674 0.487 0.48244 0.0
C2948 C 0.99733 0.47328 0.49385 0.0
C2949 C 0.98937 0.50666 0.4847 0.0
C2950 C 0.98732 0.5214 0.47284 0.0
C2951 C 0.97692 0.5163 0.46038 0.0
C2952 C 0.97518 0.53017 0.4492 0.0
C2953 C 0.98367 0.54925 0.45039 0.0
C2954 C 0.99388 0.55452 0.46278 0.0
C2955 C 0.99568 0.54069 0.47399 0.0
H2956 H 0.9823 0.55998 0.44172 0.0
H2957 H -0.00101 0.4255 0.55043 0.0
H2958 H 0.54402 0.46844 0.54031 0.0
H2959 H 0.53252 0.48037 0.51716 0.0
H2960 H 0.48643 0.5137 0.53779 0.0
H2961 H 0.49841 0.50274 0.56118 0.0
H2962 H 0.47493 0.48771 0.51374 0.0
H2963 H 0.52006 0.54024 0.52608 0.0
H2964 H 0.5516 0.55416 0.53411 0.0
H2965 H 0.58026 0.52718 0.49805 0.0
H2966 H 0.54892 0.51281 0.48993 0.0
H2967 H 0.44432 0.54261 0.45257 0.0
H2968 H 0.45535 0.53335 0.47651 0.0
H2969 H 0.50746 0.50688 0.45866 0.0
H2970 H 0.49638 0.5158 0.4346 0.0
H2971 H 0.51545 0.53046 0.48185 0.0
H2972 H 0.47157 0.47707 0.46972 0.0
H2973 H 0.44067 0.46189 0.4615 0.0
H2974 H 0.41035 0.48886 0.49683 0.0
H2975 H 0.44104 0.50446 0.50514 0.0
C2976 C 0.53169 0.47865 0.54003 0.0
C2977 C 0.52226 0.48473 0.5527 0.0
C2978 C 0.52505 0.4853 0.52675 0.0
C2979 C 0.50872 0.49793 0.52583 0.0
C2980 C 0.49907 0.50389 0.53835 0.0
C2981 C 0.50589 0.49751 0.55169 0.0
C2982 C 0.50163 0.5046 0.5117 0.0
C2983 C 0.48359 0.49735 0.50684 0.0
C2984 C 0.51329 0.51666 0.50263 0.0
C2985 C 0.53217 0.52527 0.50748 0.0
C2986 C 0.53312 0.5371 0.51994 0.0
C2987 C 0.55095 0.54511 0.52449 0.0
C2988 C 0.56793 0.54151 0.51662 0.0
C2989 C 0.5671 0.52993 0.50415 0.0
C2990 C 0.5493 0.52186 0.49956 0.0
C2991 C 0.45801 0.5346 0.4537 0.0
C2992 C 0.46942 0.52983 0.44167 0.0
C2993 C 0.46432 0.5294 0.4674 0.0
C2994 C 0.48213 0.5193 0.46932 0.0
C2995 C 0.49368 0.51472 0.45738 0.0
C2996 C 0.48736 0.51987 0.44366 0.0
C2997 C 0.4887 0.51356 0.48383 0.0
C2998 C 0.5067 0.52093 0.48876 0.0
C2999 C 0.47706 0.50146 0.49293 0.0
C3000 C 0.45857 0.49213 0.48796 0.0
C3001 C 0.45828 0.47992 0.47566 0.0
C3002 C 0.44081 0.47121 0.471 0.0
C3003 C 0.42354 0.47446 0.47862 0.0
C3004 C 0.42373 0.48639 0.49093 0.0
C3005 C 0.44116 0.49516 0.49562 0.0
H3006 H 0.41003 0.46769 0.475 0.0
H3007 H 0.58173 0.54774 0.52016 0.0
loop_
_geom_bond_atom_site_label_1
_geom_bond_atom_site_label_2
_geom_bond_distance
_geom_bond_site_symmetry_2
_ccdc_geom_bond_type
Li0 N17 1.990 . S
Li0 O60 1.956 . S
Li0 O61 1.970 . S
Li0 O62 1.961 . S
Li1 N25 1.990 . S
Li1 O60 1.970 . S
Li1 O61 1.956 . S
Li1 O63 1.961 . S
Li2 N47 1.990 . S
Li2 O60 1.961 . S
Li2 O62 1.956 . S
Li2 O63 1.970 . S
Li3 N53 1.990 . S
Li3 O61 1.961 . S
Li3 O62 1.970 . S
Li3 O63 1.956 . S
C4 C6 1.348 1_545 S
C4 C7 1.356 1_545 S
C4 O60 1.325 . S
N5 C8 1.314 . S
N5 C9 1.279 . S
C6 C4 1.348 1_565 S
C6 C8 1.353 . S
C6 H64 0.929 1_565 S
C7 C4 1.356 1_565 S
C7 C9 1.358 . S
C7 H65 0.915 1_565 S
C8 N5 1.314 . S
C8 C6 1.353 . S
C8 H66 0.930 . S
C9 N5 1.279 . S
C9 C7 1.358 . S
C9 H67 0.930 . S
C10 C13 1.348 . S
C10 C14 1.356 . S
C10 O61 1.325 . S
C11 N12 1.279 . S
C11 C14 1.358 . S
C11 H68 0.930 . S
N12 C11 1.279 . S
N12 C15 1.314 . S
C13 C10 1.348 . S
C13 C15 1.353 . S
C13 H69 0.929 . S
C14 C10 1.356 . S
C14 C11 1.358 . S
C14 H70 0.930 . S
C15 N12 1.314 . S
C15 C13 1.353 . S
C15 H71 0.930 . S
C16 N17 1.314 . S
C16 C21 1.353 . S
C16 H22 0.930 . S
N17 Li0 1.990 . S
N17 C16 1.314 . S
N17 C19 1.279 . S
C18 C19 1.358 1_565 S
C18 C20 1.356 1_565 S
C18 H72 0.930 . S
C19 N17 1.279 . S
C19 C18 1.358 1_545 S
C19 H23 0.957 . S
C20 C18 1.356 1_545 S
C20 C21 1.348 . S
C21 C16 1.353 . S
C21 C20 1.348 . S
C21 H73 0.929 . S
H22 C16 0.930 . S
H23 C19 0.957 . S
C24 N25 1.314 . S
C24 C26 1.353 . S
C24 H30 0.930 . S
N25 Li1 1.990 . S
N25 C24 1.314 . S
N25 C28 1.279 . S
C26 C24 1.353 . S
C26 C29 1.348 . S
C26 H74 0.929 . S
C27 C28 1.358 . S
C27 C29 1.356 . S
C27 H75 0.930 . S
C28 N25 1.279 . S
C28 C27 1.358 . S
C28 H31 0.930 . S
C29 C26 1.348 . S
C29 C27 1.356 . S
H30 C24 0.930 . S
H31 C28 0.930 . S
C32 C34 1.348 . S
C32 C35 1.357 1_455 S
C32 O62 1.325 . S
N33 C36 1.314 . S
N33 C37 1.279 . S
C34 C32 1.348 . S
C34 C36 1.353 1_455 S
C34 H76 0.929 . S
C35 C32 1.357 1_655 S
C35 C37 1.357 . S
C35 H77 0.930 1_655 S
C36 N33 1.314 . S
C36 C34 1.353 1_655 S
C36 H78 0.930 . S
C37 N33 1.279 . S
C37 C35 1.357 . S
C37 H79 0.930 . S
C38 C39 1.348 . S
C38 C40 1.356 . S
C38 O63 1.325 . S
C39 C38 1.348 . S
C39 C41 1.353 . S
C39 H80 0.929 . S
C40 C38 1.356 . S
C40 C42 1.358 . S
C40 H81 0.930 . S
C41 C39 1.353 . S
C41 N43 1.314 . S
C41 H82 0.930 . S
C42 C40 1.358 . S
C42 N43 1.279 . S
C42 H83 0.930 . S
N43 C41 1.314 . S
N43 C42 1.279 . S
C44 C46 1.353 . S
C44 N47 1.314 . S
C44 H50 0.930 . S
C45 N47 1.279 . S
C45 C48 1.358 . S
C45 H51 0.930 . S
C46 C44 1.353 . S
C46 C49 1.348 . S
C46 H84 0.929 . S
N47 Li2 1.990 . S
N47 C44 1.314 . S
N47 C45 1.279 . S
C48 C45 1.358 . S
C48 C49 1.356 . S
C48 H85 0.930 1_455 S
C49 C46 1.348 . S
C49 C48 1.356 . S
H50 C44 0.930 . S
H51 C45 0.930 . S
C52 N53 1.314 . S
C52 C54 1.353 . S
C52 H58 0.930 . S
N53 Li3 1.990 . S
N53 C52 1.314 . S
N53 C56 1.279 . S
C54 C52 1.353 . S
C54 C57 1.348 . S
C54 H86 0.929 . S
C55 C56 1.358 . S
C55 C57 1.356 . S
C55 H87 0.930 . S
C56 N53 1.279 . S
C56 C55 1.358 . S
C56 H59 0.930 . S
C57 C54 1.348 . S
C57 C55 1.356 . S
H58 C52 0.930 . S
H59 C56 0.930 . S
O60 Li0 1.956 . S
O60 Li1 1.970 . S
O60 Li2 1.961 . S
O60 C4 1.325 . S
O61 Li0 1.970 . S
O61 Li1 1.956 . S
O61 Li3 1.961 . S
O61 C10 1.325 . S
O62 Li0 1.961 . S
O62 Li2 1.956 . S
O62 Li3 1.970 . S
O62 C32 1.325 . S
O63 Li1 1.961 . S
O63 Li2 1.970 . S
O63 Li3 1.956 . S
O63 C38 1.325 . S
H64 C6 0.929 1_545 S
H65 C7 0.915 1_545 S
H66 C8 0.930 . S
H67 C9 0.930 . S
H68 C11 0.930 . S
H69 C13 0.929 . S
H70 C14 0.930 . S
H71 C15 0.930 . S
H72 C18 0.930 . S
H73 C21 0.929 . S
H74 C26 0.929 . S
H75 C27 0.930 . S
H76 C34 0.929 . S
H77 C35 0.930 1_455 S
H78 C36 0.930 . S
H79 C37 0.930 . S
H80 C39 0.929 . S
H81 C40 0.930 . S
H82 C41 0.930 . S
H83 C42 0.930 . S
H84 C46 0.929 . S
H85 C48 0.930 1_655 S
H86 C54 0.929 . S
H87 C55 0.930 . S
Li88 N105 1.990 . S
Li88 O148 1.956 . S
Li88 O149 1.970 . S
Li88 O150 1.961 . S
Li89 N113 1.990 . S
Li89 O148 1.970 . S
Li89 O149 1.956 . S
Li89 O151 1.961 . S
Li90 N135 1.990 . S
Li90 O148 1.961 . S
Li90 O150 1.956 . S
Li90 O151 1.970 . S
Li91 N141 1.990 . S
Li91 O149 1.961 . S
Li91 O150 1.970 . S
Li91 O151 1.956 . S
C92 C94 1.348 . S
C92 C95 1.356 . S
C92 O148 1.325 . S
N93 C96 1.314 . S
N93 C97 1.279 . S
C94 C92 1.348 . S
C94 C96 1.353 . S
C94 H152 0.929 . S
C95 C92 1.356 . S
C95 C97 1.358 . S
C95 H153 0.930 . S
C96 N93 1.314 . S
C96 C94 1.353 . S
C96 H154 0.930 . S
C97 N93 1.279 . S
C97 C95 1.358 . S
C97 H155 0.930 . S
C98 C101 1.348 . S
C98 C102 1.356 . S
C98 O149 1.325 . S
C99 N100 1.279 . S
C99 C102 1.358 . S
C99 H156 0.930 . S
N100 C99 1.279 . S
N100 C103 1.314 . S
C101 C98 1.348 . S
C101 C103 1.353 . S
C101 H157 0.929 . S
C102 C98 1.356 . S
C102 C99 1.358 . S
C102 H158 0.930 . S
C103 N100 1.314 . S
C103 C101 1.353 . S
C103 H159 0.930 . S
C104 N105 1.314 . S
C104 C109 1.353 . S
C104 H110 0.930 . S
N105 Li88 1.990 . S
N105 C104 1.314 . S
N105 C107 1.279 . S
C106 C107 1.358 . S
C106 C108 1.356 . S
C106 H160 0.930 . S
C107 N105 1.279 . S
C107 C106 1.358 . S
C107 H111 0.930 . S
C108 C106 1.356 . S
C108 C109 1.348 . S
C109 C104 1.353 . S
C109 C108 1.348 . S
C109 H161 0.929 . S
H110 C104 0.930 . S
H111 C107 0.930 . S
C112 N113 1.314 . S
C112 C114 1.353 . S
C112 H118 0.930 . S
N113 Li89 1.990 . S
N113 C112 1.314 . S
N113 C116 1.279 . S
C114 C112 1.353 . S
C114 C117 1.348 . S
C114 H162 0.929 . S
C115 C116 1.358 . S
C115 C117 1.356 . S
C115 H163 0.930 . S
C116 N113 1.279 . S
C116 C115 1.358 . S
C116 H119 0.930 . S
C117 C114 1.348 . S
C117 C115 1.356 . S
H118 C112 0.930 . S
H119 C116 0.930 . S
C120 C122 1.348 . S
C120 C123 1.356 . S
C120 O150 1.325 . S
N121 C124 1.314 . S
N121 C125 1.279 . S
C122 C120 1.348 . S
C122 C124 1.353 . S
C122 H164 0.929 . S
C123 C120 1.356 . S
C123 C125 1.358 . S
C123 H165 0.930 . S
C124 N121 1.314 . S
C124 C122 1.353 . S
C124 H166 0.930 . S
C125 N121 1.279 . S
C125 C123 1.358 . S
C125 H167 0.930 . S
C126 C127 1.348 1_565 S
C126 C128 1.356 1_565 S
C126 O151 1.325 . S
C127 C126 1.348 1_545 S
C127 C129 1.353 . S
C127 H168 0.929 1_545 S
C128 C126 1.356 1_545 S
C128 C130 1.358 . S
C128 H169 0.915 1_545 S
C129 C127 1.353 . S
C129 N131 1.314 . S
C129 H170 0.930 . S
C130 C128 1.358 . S
C130 N131 1.279 . S
C130 H171 0.930 . S
N131 C129 1.314 . S
N131 C130 1.279 . S
C132 C134 1.353 . S
C132 N135 1.314 . S
C132 H138 0.930 . S
C133 N135 1.279 . S
C133 C136 1.358 . S
C133 H139 0.930 . S
C134 C132 1.353 . S
C134 C137 1.348 . S
C134 H172 0.929 . S
N135 Li90 1.990 . S
N135 C132 1.314 . S
N135 C133 1.279 . S
C136 C133 1.358 . S
C136 C137 1.356 . S
C136 H173 0.930 . S
C137 C134 1.348 . S
C137 C136 1.356 . S
H138 C132 0.930 . S
H139 C133 0.930 . S
C140 N141 1.314 . S
C140 C142 1.353 . S
C140 H146 0.930 . S
N141 Li91 1.990 . S
N141 C140 1.314 . S
N141 C144 1.279 . S
C142 C140 1.353 . S
C142 C145 1.348 . S
C142 H174 0.929 . S
C143 C144 1.358 1_545 S
C143 C145 1.356 1_545 S
C143 H175 0.930 . S
C144 N141 1.279 . S
C144 C143 1.358 1_565 S
C144 H147 0.957 . S
C145 C142 1.348 . S
C145 C143 1.356 1_565 S
H146 C140 0.930 . S
H147 C144 0.957 . S
O148 Li88 1.956 . S
O148 Li89 1.970 . S
O148 Li90 1.961 . S
O148 C92 1.325 . S
O149 Li88 1.970 . S
O149 Li89 1.956 . S
O149 Li91 1.961 . S
O149 C98 1.325 . S
O150 Li88 1.961 . S
O150 Li90 1.956 . S
O150 Li91 1.970 . S
O150 C120 1.325 . S
O151 Li89 1.961 . S
O151 Li90 1.970 . S
O151 Li91 1.956 . S
O151 C126 1.325 . S
H152 C94 0.929 . S
H153 C95 0.930 . S
H154 C96 0.930 . S
H155 C97 0.930 . S
H156 C99 0.930 . S
H157 C101 0.929 . S
H158 C102 0.930 . S
H159 C103 0.930 . S
H160 C106 0.930 . S
H161 C109 0.929 . S
H162 C114 0.929 . S
H163 C115 0.930 . S
H164 C122 0.929 . S
H165 C123 0.930 . S
H166 C124 0.930 . S
H167 C125 0.930 . S
H168 C127 0.929 1_565 S
H169 C128 0.915 1_565 S
H170 C129 0.930 . S
H171 C130 0.930 . S
H172 C134 0.929 . S
H173 C136 0.930 . S
H174 C142 0.929 . S
H175 C143 0.930 . S
Li176 N193 1.990 . S
Li176 O236 1.956 . S
Li176 O237 1.970 . S
Li176 O238 1.961 . S
Li177 N201 1.990 . S
Li177 O236 1.970 . S
Li177 O237 1.956 . S
Li177 O239 1.961 . S
Li178 N223 1.990 . S
Li178 O236 1.961 . S
Li178 O238 1.956 . S
Li178 O239 1.970 . S
Li179 N229 1.990 . S
Li179 O237 1.961 . S
Li179 O238 1.970 . S
Li179 O239 1.956 . S
C180 C182 1.348 . S
C180 C183 1.356 . S
C180 O236 1.325 . S
N181 C184 1.314 . S
N181 C185 1.279 . S
C182 C180 1.348 . S
C182 C184 1.353 . S
C182 H240 0.929 . S
C183 C180 1.356 . S
C183 C185 1.358 . S
C183 H241 0.930 . S
C184 N181 1.314 . S
C184 C182 1.353 . S
C184 H242 0.930 . S
C185 N181 1.279 . S
C185 C183 1.358 . S
C185 H243 0.930 . S
C186 C189 1.348 1_565 S
C186 C190 1.356 1_565 S
C186 O237 1.325 . S
C187 N188 1.279 . S
C187 C190 1.358 . S
C187 H244 0.930 . S
N188 C187 1.279 . S
N188 C191 1.314 . S
C189 C186 1.348 1_545 S
C189 C191 1.353 . S
C189 H245 0.929 1_545 S
C190 C186 1.356 1_545 S
C190 C187 1.358 . S
C190 H246 0.915 1_545 S
C191 N188 1.314 . S
C191 C189 1.353 . S
C191 H247 0.930 . S
C192 N193 1.314 . S
C192 C197 1.353 . S
C192 H198 0.930 . S
N193 Li176 1.990 . S
N193 C192 1.314 . S
N193 C195 1.279 . S
C194 C195 1.358 . S
C194 C196 1.356 . S
C194 H248 0.930 . S
C195 N193 1.279 . S
C195 C194 1.358 . S
C195 H199 0.930 . S
C196 C194 1.356 . S
C196 C197 1.348 . S
C197 C192 1.353 . S
C197 C196 1.348 . S
C197 H249 0.929 . S
H198 C192 0.930 . S
H199 C195 0.930 . S
C200 N201 1.314 . S
C200 C202 1.353 . S
C200 H206 0.930 . S
N201 Li177 1.990 . S
N201 C200 1.314 . S
N201 C204 1.279 . S
C202 C200 1.353 . S
C202 C205 1.348 . S
C202 H250 0.929 . S
C203 C204 1.358 1_545 S
C203 C205 1.356 1_545 S
C203 H251 0.930 . S
C204 N201 1.279 . S
C204 C203 1.358 1_565 S
C204 H207 0.957 . S
C205 C202 1.348 . S
C205 C203 1.356 1_565 S
H206 C200 0.930 . S
H207 C204 0.957 . S
C208 C210 1.348 . S
C208 C211 1.356 . S
C208 O238 1.325 . S
N209 C212 1.314 . S
N209 C213 1.279 . S
C210 C208 1.348 . S
C210 C212 1.353 . S
C210 H252 0.929 . S
C211 C208 1.356 . S
C211 C213 1.358 . S
C211 H253 0.930 . S
C212 N209 1.314 . S
C212 C210 1.353 . S
C212 H254 0.930 . S
C213 N209 1.279 . S
C213 C211 1.358 . S
C213 H255 0.930 . S
C214 C215 1.348 . S
C214 C216 1.356 . S
C214 O239 1.325 . S
C215 C214 1.348 . S
C215 C217 1.353 . S
C215 H256 0.929 . S
C216 C214 1.356 . S
C216 C218 1.358 . S
C216 H257 0.930 . S
C217 C215 1.353 . S
C217 N219 1.314 . S
C217 H258 0.930 . S
C218 C216 1.358 . S
C218 N219 1.279 . S
C218 H259 0.930 . S
N219 C217 1.314 . S
N219 C218 1.279 . S
C220 C222 1.353 . S
C220 N223 1.314 . S
C220 H226 0.930 . S
C221 N223 1.279 . S
C221 C224 1.358 . S
C221 H227 0.930 . S
C222 C220 1.353 . S
C222 C225 1.348 . S
C222 H260 0.929 . S
N223 Li178 1.990 . S
N223 C220 1.314 . S
N223 C221 1.279 . S
C224 C221 1.358 . S
C224 C225 1.356 . S
C224 H261 0.930 . S
C225 C222 1.348 . S
C225 C224 1.356 . S
H226 C220 0.930 . S
H227 C221 0.930 . S
C228 N229 1.314 . S
C228 C230 1.353 . S
C228 H234 0.930 . S
N229 Li179 1.990 . S
N229 C228 1.314 . S
N229 C232 1.279 . S
C230 C228 1.353 . S
C230 C233 1.348 . S
C230 H262 0.929 . S
C231 C232 1.358 . S
C231 C233 1.356 . S
C231 H263 0.930 . S
C232 N229 1.279 . S
C232 C231 1.358 . S
C232 H235 0.930 . S
C233 C230 1.348 . S
C233 C231 1.356 . S
H234 C228 0.930 . S
H235 C232 0.930 . S
O236 Li176 1.956 . S
O236 Li177 1.970 . S
O236 Li178 1.961 . S
O236 C180 1.325 . S
O237 Li176 1.970 . S
O237 Li177 1.956 . S
O237 Li179 1.961 . S
O237 C186 1.325 . S
O238 Li176 1.961 . S
O238 Li178 1.956 . S
O238 Li179 1.970 . S
O238 C208 1.325 . S
O239 Li177 1.961 . S
O239 Li178 1.970 . S
O239 Li179 1.956 . S
O239 C214 1.325 . S
H240 C182 0.929 . S
H241 C183 0.930 . S
H242 C184 0.930 . S
H243 C185 0.930 . S
H244 C187 0.930 . S
H245 C189 0.929 1_565 S
H246 C190 0.915 1_565 S
H247 C191 0.930 . S
H248 C194 0.930 . S
H249 C197 0.929 . S
H250 C202 0.929 . S
H251 C203 0.930 . S
H252 C210 0.929 . S
H253 C211 0.930 . S
H254 C212 0.930 . S
H255 C213 0.930 . S
H256 C215 0.929 . S
H257 C216 0.930 . S
H258 C217 0.930 . S
H259 C218 0.930 . S
H260 C222 0.929 . S
H261 C224 0.930 . S
H262 C230 0.929 . S
H263 C231 0.930 . S
Li264 N281 1.990 . S
Li264 O324 1.956 . S
Li264 O325 1.970 . S
Li264 O326 1.961 . S
Li265 N289 1.990 . S
Li265 O324 1.970 . S
Li265 O325 1.956 . S
Li265 O327 1.961 . S
Li266 N311 1.990 . S
Li266 O324 1.961 . S
Li266 O326 1.956 . S
Li266 O327 1.970 . S
Li267 N317 1.990 . S
Li267 O325 1.961 . S
Li267 O326 1.970 . S
Li267 O327 1.956 . S
C268 C270 1.348 1_545 S
C268 C271 1.356 1_545 S
C268 O324 1.325 . S
N269 C272 1.314 . S
N269 C273 1.279 . S
C270 C268 1.348 1_565 S
C270 C272 1.353 . S
C270 H328 0.929 1_565 S
C271 C268 1.356 1_565 S
C271 C273 1.358 . S
C271 H329 0.916 1_565 S
C272 N269 1.314 . S
C272 C270 1.353 . S
C272 H330 0.930 . S
C273 N269 1.279 . S
C273 C271 1.358 . S
C273 H331 0.930 . S
C274 C277 1.348 . S
C274 C278 1.356 . S
C274 O325 1.325 . S
C275 N276 1.279 . S
C275 C278 1.358 . S
C275 H332 0.930 . S
N276 C275 1.279 . S
N276 C279 1.314 . S
C277 C274 1.348 . S
C277 C279 1.353 . S
C277 H333 0.929 . S
C278 C274 1.356 . S
C278 C275 1.358 . S
C278 H334 0.930 . S
C279 N276 1.314 . S
C279 C277 1.353 . S
C279 H335 0.930 . S
C280 N281 1.314 . S
C280 C285 1.353 . S
C280 H286 0.930 . S
N281 Li264 1.990 . S
N281 C280 1.314 . S
N281 C283 1.279 . S
C282 C283 1.358 1_565 S
C282 C284 1.356 1_565 S
C282 H336 0.930 . S
C283 N281 1.279 . S
C283 C282 1.358 1_545 S
C283 H287 0.957 . S
C284 C282 1.356 1_545 S
C284 C285 1.348 . S
C285 C280 1.353 . S
C285 C284 1.348 . S
C285 H337 0.929 . S
H286 C280 0.930 . S
H287 C283 0.957 . S
C288 N289 1.314 . S
C288 C290 1.353 . S
C288 H294 0.930 . S
N289 Li265 1.990 . S
N289 C288 1.314 . S
N289 C292 1.279 . S
C290 C288 1.353 . S
C290 C293 1.348 . S
C290 H338 0.929 . S
C291 C292 1.358 . S
C291 C293 1.356 . S
C291 H339 0.930 . S
C292 N289 1.279 . S
C292 C291 1.358 . S
C292 H295 0.930 . S
C293 C290 1.348 . S
C293 C291 1.356 . S
H294 C288 0.930 . S
H295 C292 0.930 . S
C296 C298 1.348 . S
C296 C299 1.357 1_655 S
C296 O326 1.325 . S
N297 C300 1.314 . S
N297 C301 1.279 . S
C298 C296 1.348 . S
C298 C300 1.353 1_655 S
C298 H340 0.929 . S
C299 C296 1.357 1_455 S
C299 C301 1.357 . S
C299 H341 0.930 1_455 S
C300 N297 1.314 . S
C300 C298 1.353 1_455 S
C300 H342 0.930 . S
C301 N297 1.279 . S
C301 C299 1.357 . S
C301 H343 0.930 . S
C302 C303 1.348 . S
C302 C304 1.356 . S
C302 O327 1.325 . S
C303 C302 1.348 . S
C303 C305 1.353 . S
C303 H344 0.929 . S
C304 C302 1.356 . S
C304 C306 1.358 . S
C304 H345 0.930 . S
C305 C303 1.353 . S
C305 N307 1.314 . S
C305 H346 0.930 . S
C306 C304 1.358 . S
C306 N307 1.279 . S
C306 H347 0.930 . S
N307 C305 1.314 . S
N307 C306 1.279 . S
C308 C310 1.353 . S
C308 N311 1.314 . S
C308 H314 0.930 . S
C309 N311 1.279 . S
C309 C312 1.358 . S
C309 H315 0.930 . S
C310 C308 1.353 . S
C310 C313 1.348 . S
C310 H348 0.929 . S
N311 Li266 1.990 . S
N311 C308 1.314 . S
N311 C309 1.279 . S
C312 C309 1.358 . S
C312 C313 1.356 . S
C312 H349 0.930 1_655 S
C313 C310 1.348 . S
C313 C312 1.356 . S
H314 C308 0.930 . S
H315 C309 0.930 . S
C316 N317 1.314 . S
C316 C318 1.353 . S
C316 H322 0.930 . S
N317 Li267 1.990 . S
N317 C316 1.314 . S
N317 C320 1.279 . S
C318 C316 1.353 . S
C318 C321 1.348 . S
C318 H350 0.929 . S
C319 C320 1.358 . S
C319 C321 1.356 . S
C319 H351 0.930 . S
C320 N317 1.279 . S
C320 C319 1.358 . S
C320 H323 0.930 . S
C321 C318 1.348 . S
C321 C319 1.356 . S
H322 C316 0.930 . S
H323 C320 0.930 . S
O324 Li264 1.956 . S
O324 Li265 1.970 . S
O324 Li266 1.961 . S
O324 C268 1.325 . S
O325 Li264 1.970 . S
O325 Li265 1.956 . S
O325 Li267 1.961 . S
O325 C274 1.325 . S
O326 Li264 1.961 . S
O326 Li266 1.956 . S
O326 Li267 1.970 . S
O326 C296 1.325 . S
O327 Li265 1.961 . S
O327 Li266 1.970 . S
O327 Li267 1.956 . S
O327 C302 1.325 . S
H328 C270 0.929 1_545 S
H329 C271 0.916 1_545 S
H330 C272 0.930 . S
H331 C273 0.930 . S
H332 C275 0.930 . S
H333 C277 0.929 . S
H334 C278 0.930 . S
H335 C279 0.930 . S
H336 C282 0.930 . S
H337 C285 0.929 . S
H338 C290 0.929 . S
H339 C291 0.930 . S
H340 C298 0.929 . S
H341 C299 0.930 1_655 S
H342 C300 0.930 . S
H343 C301 0.930 . S
H344 C303 0.929 . S
H345 C304 0.930 . S
H346 C305 0.930 . S
H347 C306 0.930 . S
H348 C310 0.929 . S
H349 C312 0.930 1_455 S
H350 C318 0.929 . S
H351 C319 0.930 . S
Li352 N369 1.990 . S
Li352 O412 1.956 . S
Li352 O413 1.970 . S
Li352 O414 1.961 . S
Li353 N377 1.990 . S
Li353 O412 1.970 . S
Li353 O413 1.956 . S
Li353 O415 1.961 . S
Li354 N399 1.990 . S
Li354 O412 1.961 . S
Li354 O414 1.956 . S
Li354 O415 1.970 . S
Li355 N405 1.990 . S
Li355 O413 1.961 . S
Li355 O414 1.970 . S
Li355 O415 1.956 . S
C356 C358 1.348 . S
C356 C359 1.356 . S
C356 O412 1.325 . S
N357 C360 1.314 . S
N357 C361 1.279 . S
C358 C356 1.348 . S
C358 C360 1.353 . S
C358 H416 0.929 . S
C359 C356 1.356 . S
C359 C361 1.358 . S
C359 H417 0.930 . S
C360 N357 1.314 . S
C360 C358 1.353 . S
C360 H418 0.930 . S
C361 N357 1.279 . S
C361 C359 1.358 . S
C361 H419 0.930 . S
C362 C365 1.348 . S
C362 C366 1.362 . S
C362 O413 1.325 . S
C363 N364 1.279 . S
C363 C366 1.350 1_455 S
C363 H420 0.930 . S
N364 C363 1.279 . S
N364 C367 1.314 . S
C365 C362 1.348 . S
C365 C367 1.353 1_655 S
C365 H421 0.929 . S
C366 C362 1.362 . S
C366 C363 1.350 1_655 S
C366 H422 0.932 . S
C367 N364 1.314 . S
C367 C365 1.353 1_455 S
C367 H423 0.930 . S
C368 N369 1.314 . S
C368 C373 1.353 . S
C368 H374 0.930 . S
N369 Li352 1.990 . S
N369 C368 1.314 . S
N369 C371 1.279 . S
C370 C371 1.358 . S
C370 C372 1.356 . S
C370 H424 0.930 . S
C371 N369 1.279 . S
C371 C370 1.358 . S
C371 H375 0.930 . S
C372 C370 1.356 . S
C372 C373 1.348 . S
C373 C368 1.353 . S
C373 C372 1.348 . S
C373 H425 0.929 . S
H374 C368 0.930 . S
H375 C371 0.930 . S
C376 N377 1.314 . S
C376 C378 1.353 . S
C376 H382 0.930 . S
N377 Li353 1.990 . S
N377 C376 1.314 . S
N377 C380 1.279 . S
C378 C376 1.353 . S
C378 C381 1.348 . S
C378 H426 0.929 1_565 S
C379 C380 1.358 . S
C379 C381 1.356 . S
C379 H427 0.930 1_655 S
C380 N377 1.279 . S
C380 C379 1.358 . S
C380 H383 0.930 . S
C381 C378 1.348 . S
C381 C379 1.356 . S
H382 C376 0.930 . S
H383 C380 0.930 . S
C384 C386 1.348 . S
C384 C387 1.356 . S
C384 O414 1.325 . S
N385 C388 1.314 . S
N385 C389 1.279 . S
C386 C384 1.348 . S
C386 C388 1.353 . S
C386 H428 0.929 . S
C387 C384 1.356 . S
C387 C389 1.358 . S
C387 H429 0.930 . S
C388 N385 1.314 . S
C388 C386 1.353 . S
C388 H430 0.930 . S
C389 N385 1.279 . S
C389 C387 1.358 . S
C389 H431 0.930 . S
C390 C391 1.336 1_565 S
C390 C392 1.356 1_565 S
C390 O415 1.325 . S
C391 C390 1.336 1_545 S
C391 C393 1.381 . S
C391 H432 0.914 1_545 S
C392 C390 1.356 1_545 S
C392 C394 1.358 . S
C392 H433 0.939 . S
C393 C391 1.381 . S
C393 N395 1.314 . S
C393 H434 0.930 . S
C394 C392 1.358 . S
C394 N395 1.279 . S
C394 H435 0.930 . S
N395 C393 1.314 . S
N395 C394 1.279 . S
C396 C398 1.353 . S
C396 N399 1.314 . S
C396 H402 0.930 . S
C397 N399 1.279 . S
C397 C400 1.358 . S
C397 H403 0.930 . S
C398 C396 1.353 . S
C398 C401 1.348 . S
C398 H436 0.929 . S
N399 Li354 1.990 . S
N399 C396 1.314 . S
N399 C397 1.279 . S
C400 C397 1.358 . S
C400 C401 1.356 . S
C400 H437 0.930 . S
C401 C398 1.348 . S
C401 C400 1.356 . S
H402 C396 0.930 . S
H403 C397 0.930 . S
C404 N405 1.314 . S
C404 C406 1.353 . S
C404 H410 0.930 . S
N405 Li355 1.990 . S
N405 C404 1.314 . S
N405 C408 1.279 . S
C406 C404 1.353 . S
C406 C409 1.348 . S
C406 H438 0.929 . S
C407 C408 1.358 . S
C407 C409 1.356 . S
C407 H439 0.930 1_565 S
C408 N405 1.279 . S
C408 C407 1.358 . S
C408 H411 0.930 . S
C409 C406 1.348 . S
C409 C407 1.356 . S
H410 C404 0.930 . S
H411 C408 0.930 . S
O412 Li352 1.956 . S
O412 Li353 1.970 . S
O412 Li354 1.961 . S
O412 C356 1.325 . S
O413 Li352 1.970 . S
O413 Li353 1.956 . S
O413 Li355 1.961 . S
O413 C362 1.325 . S
O414 Li352 1.961 . S
O414 Li354 1.956 . S
O414 Li355 1.970 . S
O414 C384 1.325 . S
O415 Li353 1.961 . S
O415 Li354 1.970 . S
O415 Li355 1.956 . S
O415 C390 1.325 . S
H416 C358 0.929 . S
H417 C359 0.930 . S
H418 C360 0.930 . S
H419 C361 0.930 . S
H420 C363 0.930 . S
H421 C365 0.929 . S
H422 C366 0.932 . S
H423 C367 0.930 . S
H424 C370 0.930 . S
H425 C373 0.929 . S
H426 C378 0.929 1_545 S
H427 C379 0.930 1_455 S
H428 C386 0.929 . S
H429 C387 0.930 . S
H430 C388 0.930 . S
H431 C389 0.930 . S
H432 C391 0.914 1_565 S
H433 C392 0.939 . S
H434 C393 0.930 . S
H435 C394 0.930 . S
H436 C398 0.929 . S
H437 C400 0.930 . S
H438 C406 0.929 . S
H439 C407 0.930 1_545 S
Li440 N457 1.990 . S
Li440 O500 1.956 . S
Li440 O501 1.970 . S
Li440 O502 1.961 . S
Li441 N465 1.990 . S
Li441 O500 1.970 . S
Li441 O501 1.956 . S
Li441 O503 1.961 . S
Li442 N487 1.990 . S
Li442 O500 1.961 . S
Li442 O502 1.956 . S
Li442 O503 1.970 . S
Li443 N493 1.990 . S
Li443 O501 1.961 . S
Li443 O502 1.970 . S
Li443 O503 1.956 . S
C444 C446 1.348 . S
C444 C447 1.356 . S
C444 O500 1.325 . S
N445 C448 1.314 . S
N445 C449 1.279 . S
C446 C444 1.348 . S
C446 C448 1.353 . S
C446 H504 0.929 . S
C447 C444 1.356 . S
C447 C449 1.358 . S
C447 H505 0.930 . S
C448 N445 1.314 . S
C448 C446 1.353 . S
C448 H506 0.930 . S
C449 N445 1.279 . S
C449 C447 1.358 . S
C449 H507 0.930 . S
C450 C453 1.348 . S
C450 C454 1.356 . S
C450 O501 1.325 . S
C451 N452 1.279 . S
C451 C454 1.358 . S
C451 H508 0.930 . S
N452 C451 1.279 . S
N452 C455 1.314 . S
C453 C450 1.348 . S
C453 C455 1.353 . S
C453 H509 0.929 . S
C454 C450 1.356 . S
C454 C451 1.358 . S
C454 H510 0.930 . S
C455 N452 1.314 . S
C455 C453 1.353 . S
C455 H511 0.930 . S
C456 N457 1.314 . S
C456 C461 1.353 . S
C456 H462 0.930 . S
N457 Li440 1.990 . S
N457 C456 1.314 . S
N457 C459 1.279 . S
C458 C459 1.358 . S
C458 C460 1.356 . S
C458 H512 0.930 . S
C459 N457 1.279 . S
C459 C458 1.358 . S
C459 H463 0.930 . S
C460 C458 1.356 . S
C460 C461 1.348 . S
C461 C456 1.353 . S
C461 C460 1.348 . S
C461 H513 0.929 . S
H462 C456 0.930 . S
H463 C459 0.930 . S
C464 N465 1.314 . S
C464 C466 1.353 . S
C464 H470 0.930 . S
N465 Li441 1.990 . S
N465 C464 1.314 . S
N465 C468 1.279 . S
C466 C464 1.353 . S
C466 C469 1.348 . S
C466 H514 0.929 1_545 S
C467 C468 1.358 . S
C467 C469 1.356 . S
C467 H515 0.930 . S
C468 N465 1.279 . S
C468 C467 1.358 . S
C468 H471 0.930 . S
C469 C466 1.348 . S
C469 C467 1.356 . S
H470 C464 0.930 . S
H471 C468 0.930 . S
C472 C474 1.348 . S
C472 C475 1.356 . S
C472 O502 1.325 . S
N473 C476 1.314 . S
N473 C477 1.279 . S
C474 C472 1.348 . S
C474 C476 1.353 . S
C474 H516 0.929 . S
C475 C472 1.356 . S
C475 C477 1.358 . S
C475 H517 0.930 . S
C476 N473 1.314 . S
C476 C474 1.353 . S
C476 H518 0.930 . S
C477 N473 1.279 . S
C477 C475 1.358 . S
C477 H519 0.930 . S
C478 C479 1.336 1_545 S
C478 C480 1.356 1_545 S
C478 O503 1.325 . S
C479 C478 1.336 1_565 S
C479 C481 1.381 . S
C479 H520 0.914 1_565 S
C480 C478 1.356 1_565 S
C480 C482 1.358 . S
C480 H521 0.939 . S
C481 C479 1.381 . S
C481 N483 1.314 . S
C481 H522 0.930 . S
C482 C480 1.358 . S
C482 N483 1.279 . S
C482 H523 0.930 . S
N483 C481 1.314 . S
N483 C482 1.279 . S
C484 C486 1.353 . S
C484 N487 1.314 . S
C484 H490 0.930 . S
C485 N487 1.279 . S
C485 C488 1.358 . S
C485 H491 0.930 . S
C486 C484 1.353 . S
C486 C489 1.348 . S
C486 H524 0.929 . S
N487 Li442 1.990 . S
N487 C484 1.314 . S
N487 C485 1.279 . S
C488 C485 1.358 . S
C488 C489 1.356 . S
C488 H525 0.930 . S
C489 C486 1.348 . S
C489 C488 1.356 . S
H490 C484 0.930 . S
H491 C485 0.930 . S
C492 N493 1.314 . S
C492 C494 1.353 . S
C492 H498 0.930 . S
N493 Li443 1.990 . S
N493 C492 1.314 . S
N493 C496 1.279 . S
C494 C492 1.353 . S
C494 C497 1.348 . S
C494 H526 0.929 . S
C495 C496 1.358 . S
C495 C497 1.356 . S
C495 H527 0.930 1_545 S
C496 N493 1.279 . S
C496 C495 1.358 . S
C496 H499 0.930 . S
C497 C494 1.348 . S
C497 C495 1.356 . S
H498 C492 0.930 . S
H499 C496 0.930 . S
O500 Li440 1.956 . S
O500 Li441 1.970 . S
O500 Li442 1.961 . S
O500 C444 1.325 . S
O501 Li440 1.970 . S
O501 Li441 1.956 . S
O501 Li443 1.961 . S
O501 C450 1.325 . S
O502 Li440 1.961 . S
O502 Li442 1.956 . S
O502 Li443 1.970 . S
O502 C472 1.325 . S
O503 Li441 1.961 . S
O503 Li442 1.970 . S
O503 Li443 1.956 . S
O503 C478 1.325 . S
H504 C446 0.929 . S
H505 C447 0.930 . S
H506 C448 0.930 . S
H507 C449 0.930 . S
H508 C451 0.930 . S
H509 C453 0.929 . S
H510 C454 0.930 . S
H511 C455 0.930 . S
H512 C458 0.930 . S
H513 C461 0.929 . S
H514 C466 0.929 1_565 S
H515 C467 0.930 . S
H516 C474 0.929 . S
H517 C475 0.930 . S
H518 C476 0.930 . S
H519 C477 0.930 . S
H520 C479 0.914 1_545 S
H521 C480 0.939 . S
H522 C481 0.930 . S
H523 C482 0.930 . S
H524 C486 0.929 . S
H525 C488 0.930 . S
H526 C494 0.929 . S
H527 C495 0.930 1_565 S
Li528 N545 1.990 . S
Li528 O588 1.956 . S
Li528 O589 1.970 . S
Li528 O590 1.961 . S
Li529 N553 1.990 . S
Li529 O588 1.970 . S
Li529 O589 1.956 . S
Li529 O591 1.961 . S
Li530 N575 1.990 . S
Li530 O588 1.961 . S
Li530 O590 1.956 . S
Li530 O591 1.970 . S
Li531 N581 1.990 . S
Li531 O589 1.961 . S
Li531 O590 1.970 . S
Li531 O591 1.956 . S
C532 C534 1.348 . S
C532 C535 1.356 . S
C532 O588 1.325 . S
N533 C536 1.314 . S
N533 C537 1.279 . S
C534 C532 1.348 . S
C534 C536 1.353 . S
C534 H592 0.929 . S
C535 C532 1.356 . S
C535 C537 1.358 . S
C535 H593 0.930 . S
C536 N533 1.314 . S
C536 C534 1.353 . S
C536 H594 0.930 . S
C537 N533 1.279 . S
C537 C535 1.358 . S
C537 H595 0.930 . S
C538 C541 1.336 1_545 S
C538 C542 1.356 1_545 S
C538 O589 1.325 . S
C539 N540 1.279 . S
C539 C542 1.358 . S
C539 H596 0.930 . S
N540 C539 1.279 . S
N540 C543 1.314 . S
C541 C538 1.336 1_565 S
C541 C543 1.381 . S
C541 H597 0.914 1_565 S
C542 C538 1.356 1_565 S
C542 C539 1.358 . S
C542 H598 0.939 . S
C543 N540 1.314 . S
C543 C541 1.381 . S
C543 H599 0.930 . S
C544 N545 1.314 . S
C544 C549 1.353 . S
C544 H550 0.930 . S
N545 Li528 1.990 . S
N545 C544 1.314 . S
N545 C547 1.279 . S
C546 C547 1.358 . S
C546 C548 1.356 . S
C546 H600 0.930 . S
C547 N545 1.279 . S
C547 C546 1.358 . S
C547 H551 0.930 . S
C548 C546 1.356 . S
C548 C549 1.348 . S
C549 C544 1.353 . S
C549 C548 1.348 . S
C549 H601 0.929 . S
H550 C544 0.930 . S
H551 C547 0.930 . S
C552 N553 1.314 . S
C552 C554 1.353 . S
C552 H558 0.930 . S
N553 Li529 1.990 . S
N553 C552 1.314 . S
N553 C556 1.279 . S
C554 C552 1.353 . S
C554 C557 1.348 . S
C554 H602 0.929 . S
C555 C556 1.358 . S
C555 C557 1.356 . S
C555 H603 0.930 1_545 S
C556 N553 1.279 . S
C556 C555 1.358 . S
C556 H559 0.930 . S
C557 C554 1.348 . S
C557 C555 1.356 . S
H558 C552 0.930 . S
H559 C556 0.930 . S
C560 C562 1.348 . S
C560 C563 1.356 . S
C560 O590 1.325 . S
N561 C564 1.314 . S
N561 C565 1.279 . S
C562 C560 1.348 . S
C562 C564 1.353 . S
C562 H604 0.929 . S
C563 C560 1.356 . S
C563 C565 1.358 . S
C563 H605 0.930 . S
C564 N561 1.314 . S
C564 C562 1.353 . S
C564 H606 0.930 . S
C565 N561 1.279 . S
C565 C563 1.358 . S
C565 H607 0.930 . S
C566 C567 1.348 . S
C566 C568 1.356 . S
C566 O591 1.325 . S
C567 C566 1.348 . S
C567 C569 1.353 . S
C567 H608 0.929 . S
C568 C566 1.356 . S
C568 C570 1.358 . S
C568 H609 0.930 . S
C569 C567 1.353 . S
C569 N571 1.314 . S
C569 H610 0.930 . S
C570 C568 1.358 . S
C570 N571 1.279 . S
C570 H611 0.930 . S
N571 C569 1.314 . S
N571 C570 1.279 . S
C572 C574 1.353 . S
C572 N575 1.314 . S
C572 H578 0.930 . S
C573 N575 1.279 . S
C573 C576 1.358 . S
C573 H579 0.930 . S
C574 C572 1.353 . S
C574 C577 1.348 . S
C574 H612 0.929 . S
N575 Li530 1.990 . S
N575 C572 1.314 . S
N575 C573 1.279 . S
C576 C573 1.358 . S
C576 C577 1.356 . S
C576 H613 0.930 . S
C577 C574 1.348 . S
C577 C576 1.356 . S
H578 C572 0.930 . S
H579 C573 0.930 . S
C580 N581 1.314 . S
C580 C582 1.353 . S
C580 H586 0.930 . S
N581 Li531 1.990 . S
N581 C580 1.314 . S
N581 C584 1.279 . S
C582 C580 1.353 . S
C582 C585 1.348 . S
C582 H614 0.929 1_545 S
C583 C584 1.358 . S
C583 C585 1.356 . S
C583 H615 0.930 . S
C584 N581 1.279 . S
C584 C583 1.358 . S
C584 H587 0.930 . S
C585 C582 1.348 . S
C585 C583 1.356 . S
H586 C580 0.930 . S
H587 C584 0.930 . S
O588 Li528 1.956 . S
O588 Li529 1.970 . S
O588 Li530 1.961 . S
O588 C532 1.325 . S
O589 Li528 1.970 . S
O589 Li529 1.956 . S
O589 Li531 1.961 . S
O589 C538 1.325 . S
O590 Li528 1.961 . S
O590 Li530 1.956 . S
O590 Li531 1.970 . S
O590 C560 1.325 . S
O591 Li529 1.961 . S
O591 Li530 1.970 . S
O591 Li531 1.956 . S
O591 C566 1.325 . S
H592 C534 0.929 . S
H593 C535 0.930 . S
H594 C536 0.930 . S
H595 C537 0.930 . S
H596 C539 0.930 . S
H597 C541 0.914 1_545 S
H598 C542 0.939 . S
H599 C543 0.930 . S
H600 C546 0.930 . S
H601 C549 0.929 . S
H602 C554 0.929 . S
H603 C555 0.930 1_565 S
H604 C562 0.929 . S
H605 C563 0.930 . S
H606 C564 0.930 . S
H607 C565 0.930 . S
H608 C567 0.929 . S
H609 C568 0.930 . S
H610 C569 0.930 . S
H611 C570 0.930 . S
H612 C574 0.929 . S
H613 C576 0.930 . S
H614 C582 0.929 1_565 S
H615 C583 0.930 . S
Li616 N633 1.990 . S
Li616 O676 1.956 . S
Li616 O677 1.970 . S
Li616 O678 1.961 . S
Li617 N641 1.990 . S
Li617 O676 1.970 . S
Li617 O677 1.956 . S
Li617 O679 1.961 . S
Li618 N663 1.990 . S
Li618 O676 1.961 . S
Li618 O678 1.956 . S
Li618 O679 1.970 . S
Li619 N669 1.990 . S
Li619 O677 1.961 . S
Li619 O678 1.970 . S
Li619 O679 1.956 . S
C620 C622 1.336 1_565 S
C620 C623 1.356 1_565 S
C620 O676 1.325 . S
N621 C624 1.314 . S
N621 C625 1.279 . S
C622 C620 1.336 1_545 S
C622 C624 1.381 . S
C622 H680 0.914 1_545 S
C623 C620 1.356 1_545 S
C623 C625 1.358 . S
C623 H681 0.939 . S
C624 N621 1.314 . S
C624 C622 1.381 . S
C624 H682 0.930 . S
C625 N621 1.279 . S
C625 C623 1.358 . S
C625 H683 0.930 . S
C626 C629 1.348 . S
C626 C630 1.356 . S
C626 O677 1.325 . S
C627 N628 1.279 . S
C627 C630 1.358 . S
C627 H684 0.930 . S
N628 C627 1.279 . S
N628 C631 1.314 . S
C629 C626 1.348 . S
C629 C631 1.353 . S
C629 H685 0.929 . S
C630 C626 1.356 . S
C630 C627 1.358 . S
C630 H686 0.930 . S
C631 N628 1.314 . S
C631 C629 1.353 . S
C631 H687 0.930 . S
C632 N633 1.314 . S
C632 C637 1.353 . S
C632 H638 0.930 . S
N633 Li616 1.990 . S
N633 C632 1.314 . S
N633 C635 1.279 . S
C634 C635 1.358 . S
C634 C636 1.356 . S
C634 H688 0.930 1_565 S
C635 N633 1.279 . S
C635 C634 1.358 . S
C635 H639 0.930 . S
C636 C634 1.356 . S
C636 C637 1.348 . S
C637 C632 1.353 . S
C637 C636 1.348 . S
C637 H689 0.929 . S
H638 C632 0.930 . S
H639 C635 0.930 . S
C640 N641 1.314 . S
C640 C642 1.353 . S
C640 H646 0.930 . S
N641 Li617 1.990 . S
N641 C640 1.314 . S
N641 C644 1.279 . S
C642 C640 1.353 . S
C642 C645 1.348 . S
C642 H690 0.929 . S
C643 C644 1.358 . S
C643 C645 1.356 . S
C643 H691 0.930 . S
C644 N641 1.279 . S
C644 C643 1.358 . S
C644 H647 0.930 . S
C645 C642 1.348 . S
C645 C643 1.356 . S
H646 C640 0.930 . S
H647 C644 0.930 . S
C648 C650 1.348 . S
C648 C651 1.362 . S
C648 O678 1.325 . S
N649 C652 1.314 . S
N649 C653 1.279 . S
C650 C648 1.348 . S
C650 C652 1.353 1_455 S
C650 H692 0.929 . S
C651 C648 1.362 . S
C651 C653 1.350 1_455 S
C651 H693 0.932 . S
C652 N649 1.314 . S
C652 C650 1.353 1_655 S
C652 H694 0.930 . S
C653 N649 1.279 . S
C653 C651 1.350 1_655 S
C653 H695 0.930 . S
C654 C655 1.348 . S
C654 C656 1.356 . S
C654 O679 1.325 . S
C655 C654 1.348 . S
C655 C657 1.353 . S
C655 H696 0.929 . S
C656 C654 1.356 . S
C656 C658 1.358 . S
C656 H697 0.930 . S
C657 C655 1.353 . S
C657 N659 1.314 . S
C657 H698 0.930 . S
C658 C656 1.358 . S
C658 N659 1.279 . S
C658 H699 0.930 . S
N659 C657 1.314 . S
N659 C658 1.279 . S
C660 C662 1.353 . S
C660 N663 1.314 . S
C660 H666 0.930 . S
C661 N663 1.279 . S
C661 C664 1.358 . S
C661 H667 0.930 . S
C662 C660 1.353 . S
C662 C665 1.348 . S
C662 H700 0.929 1_565 S
N663 Li618 1.990 . S
N663 C660 1.314 . S
N663 C661 1.279 . S
C664 C661 1.358 . S
C664 C665 1.356 . S
C664 H701 0.930 1_455 S
C665 C662 1.348 . S
C665 C664 1.356 . S
H666 C660 0.930 . S
H667 C661 0.930 . S
C668 N669 1.314 . S
C668 C670 1.353 . S
C668 H674 0.930 . S
N669 Li619 1.990 . S
N669 C668 1.314 . S
N669 C672 1.279 . S
C670 C668 1.353 . S
C670 C673 1.348 . S
C670 H702 0.929 . S
C671 C672 1.358 . S
C671 C673 1.356 . S
C671 H703 0.930 . S
C672 N669 1.279 . S
C672 C671 1.358 . S
C672 H675 0.930 . S
C673 C670 1.348 . S
C673 C671 1.356 . S
H674 C668 0.930 . S
H675 C672 0.930 . S
O676 Li616 1.956 . S
O676 Li617 1.970 . S
O676 Li618 1.961 . S
O676 C620 1.325 . S
O677 Li616 1.970 . S
O677 Li617 1.956 . S
O677 Li619 1.961 . S
O677 C626 1.325 . S
O678 Li616 1.961 . S
O678 Li618 1.956 . S
O678 Li619 1.970 . S
O678 C648 1.325 . S
O679 Li617 1.961 . S
O679 Li618 1.970 . S
O679 Li619 1.956 . S
O679 C654 1.325 . S
H680 C622 0.914 1_565 S
H681 C623 0.939 . S
H682 C624 0.930 . S
H683 C625 0.930 . S
H684 C627 0.930 . S
H685 C629 0.929 . S
H686 C630 0.930 . S
H687 C631 0.930 . S
H688 C634 0.930 1_545 S
H689 C637 0.929 . S
H690 C642 0.929 . S
H691 C643 0.930 . S
H692 C650 0.929 . S
H693 C651 0.932 . S
H694 C652 0.930 . S
H695 C653 0.930 . S
H696 C655 0.929 . S
H697 C656 0.930 . S
H698 C657 0.930 . S
H699 C658 0.930 . S
H700 C662 0.929 1_545 S
H701 C664 0.930 1_655 S
H702 C670 0.929 . S
H703 C671 0.930 . S
Li704 N721 1.990 . S
Li704 O764 1.956 . S
Li704 O765 1.970 . S
Li704 O766 1.961 . S
Li705 N729 1.990 . S
Li705 O764 1.970 . S
Li705 O765 1.956 . S
Li705 O767 1.961 . S
Li706 N751 1.990 . S
Li706 O764 1.961 . S
Li706 O766 1.956 . S
Li706 O767 1.970 . S
Li707 N757 1.990 . S
Li707 O765 1.961 . S
Li707 O766 1.970 . S
Li707 O767 1.956 . S
C708 C710 1.348 . S
C708 C711 1.356 . S
C708 O764 1.325 . S
N709 C712 1.314 . S
N709 C713 1.279 . S
C710 C708 1.348 . S
C710 C712 1.353 . S
C710 H768 0.929 . S
C711 C708 1.356 . S
C711 C713 1.358 . S
C711 H769 0.930 . S
C712 N709 1.314 . S
C712 C710 1.353 . S
C712 H770 0.930 . S
C713 N709 1.279 . S
C713 C711 1.358 . S
C713 H771 0.930 . S
C714 C717 1.348 . S
C714 C718 1.356 . S
C714 O765 1.325 . S
C715 N716 1.279 . S
C715 C718 1.358 . S
C715 H772 0.930 . S
N716 C715 1.279 . S
N716 C719 1.314 . S
C717 C714 1.348 . S
C717 C719 1.353 . S
C717 H773 0.929 . S
C718 C714 1.356 . S
C718 C715 1.358 . S
C718 H774 0.930 . S
C719 N716 1.314 . S
C719 C717 1.353 . S
C719 H775 0.930 . S
C720 N721 1.314 . S
C720 C725 1.353 . S
C720 H726 0.930 . S
N721 Li704 1.990 . S
N721 C720 1.314 . S
N721 C723 1.279 . S
C722 C723 1.358 . S
C722 C724 1.356 . S
C722 H776 0.930 . S
C723 N721 1.279 . S
C723 C722 1.358 . S
C723 H727 0.930 . S
C724 C722 1.356 . S
C724 C725 1.348 . S
C725 C720 1.353 . S
C725 C724 1.348 . S
C725 H777 0.929 . S
H726 C720 0.930 . S
H727 C723 0.930 . S
C728 N729 1.314 . S
C728 C730 1.353 . S
C728 H734 0.930 . S
N729 Li705 1.990 . S
N729 C728 1.314 . S
N729 C732 1.279 . S
C730 C728 1.353 . S
C730 C733 1.348 . S
C730 H778 0.929 . S
C731 C732 1.358 . S
C731 C733 1.356 . S
C731 H779 0.930 . S
C732 N729 1.279 . S
C732 C731 1.358 . S
C732 H735 0.930 . S
C733 C730 1.348 . S
C733 C731 1.356 . S
H734 C728 0.930 . S
H735 C732 0.930 . S
C736 C738 1.348 . S
C736 C739 1.356 . S
C736 O766 1.325 . S
N737 C740 1.314 . S
N737 C741 1.279 . S
C738 C736 1.348 . S
C738 C740 1.353 . S
C738 H780 0.929 . S
C739 C736 1.356 . S
C739 C741 1.358 . S
C739 H781 0.930 . S
C740 N737 1.314 . S
C740 C738 1.353 . S
C740 H782 0.930 . S
C741 N737 1.279 . S
C741 C739 1.358 . S
C741 H783 0.930 . S
C742 C743 1.348 . S
C742 C744 1.356 . S
C742 O767 1.325 . S
C743 C742 1.348 . S
C743 C745 1.353 . S
C743 H784 0.929 . S
C744 C742 1.356 . S
C744 C746 1.358 . S
C744 H785 0.930 . S
C745 C743 1.353 . S
C745 N747 1.314 . S
C745 H786 0.930 . S
C746 C744 1.358 . S
C746 N747 1.279 . S
C746 H787 0.930 . S
N747 C745 1.314 . S
N747 C746 1.279 . S
C748 C750 1.353 . S
C748 N751 1.314 . S
C748 H754 0.930 . S
C749 N751 1.279 . S
C749 C752 1.358 . S
C749 H755 0.930 . S
C750 C748 1.353 . S
C750 C753 1.348 . S
C750 H788 0.929 . S
N751 Li706 1.990 . S
N751 C748 1.314 . S
N751 C749 1.279 . S
C752 C749 1.358 . S
C752 C753 1.356 . S
C752 H789 0.930 . S
C753 C750 1.348 . S
C753 C752 1.356 . S
H754 C748 0.930 . S
H755 C749 0.930 . S
C756 N757 1.314 . S
C756 C758 1.353 . S
C756 H762 0.930 . S
N757 Li707 1.990 . S
N757 C756 1.314 . S
N757 C760 1.279 . S
C758 C756 1.353 . S
C758 C761 1.348 . S
C758 H790 0.929 . S
C759 C760 1.358 . S
C759 C761 1.356 . S
C759 H791 0.930 . S
C760 N757 1.279 . S
C760 C759 1.358 . S
C760 H763 0.930 . S
C761 C758 1.348 . S
C761 C759 1.356 . S
H762 C756 0.930 . S
H763 C760 0.930 . S
O764 Li704 1.956 . S
O764 Li705 1.970 . S
O764 Li706 1.961 . S
O764 C708 1.325 . S
O765 Li704 1.970 . S
O765 Li705 1.956 . S
O765 Li707 1.961 . S
O765 C714 1.325 . S
O766 Li704 1.961 . S
O766 Li706 1.956 . S
O766 Li707 1.970 . S
O766 C736 1.325 . S
O767 Li705 1.961 . S
O767 Li706 1.970 . S
O767 Li707 1.956 . S
O767 C742 1.325 . S
H768 C710 0.929 . S
H769 C711 0.930 . S
H770 C712 0.930 . S
H771 C713 0.930 . S
H772 C715 0.930 . S
H773 C717 0.929 . S
H774 C718 0.930 . S
H775 C719 0.930 . S
H776 C722 0.930 . S
H777 C725 0.929 . S
H778 C730 0.929 . S
H779 C731 0.930 . S
H780 C738 0.929 . S
H781 C739 0.930 . S
H782 C740 0.930 . S
H783 C741 0.930 . S
H784 C743 0.929 . S
H785 C744 0.930 . S
H786 C745 0.930 . S
H787 C746 0.930 . S
H788 C750 0.929 . S
H789 C752 0.930 . S
H790 C758 0.929 . S
H791 C759 0.930 . S
Li792 N809 1.990 . S
Li792 O852 1.956 . S
Li792 O853 1.970 . S
Li792 O854 1.961 . S
Li793 N817 1.990 . S
Li793 O852 1.970 . S
Li793 O853 1.956 . S
Li793 O855 1.961 . S
Li794 N839 1.990 . S
Li794 O852 1.961 . S
Li794 O854 1.956 . S
Li794 O855 1.970 . S
Li795 N845 1.990 . S
Li795 O853 1.961 . S
Li795 O854 1.970 . S
Li795 O855 1.956 . S
C796 C798 1.348 . S
C796 C799 1.356 . S
C796 O852 1.325 . S
N797 C800 1.314 . S
N797 C801 1.279 . S
C798 C796 1.348 . S
C798 C800 1.353 . S
C798 H856 0.929 . S
C799 C796 1.356 . S
C799 C801 1.358 . S
C799 H857 0.930 . S
C800 N797 1.314 . S
C800 C798 1.353 . S
C800 H858 0.930 . S
C801 N797 1.279 . S
C801 C799 1.358 . S
C801 H859 0.930 . S
C802 C805 1.348 . S
C802 C806 1.357 1_655 S
C802 O853 1.325 . S
C803 N804 1.279 . S
C803 C806 1.357 . S
C803 H860 0.930 . S
N804 C803 1.279 . S
N804 C807 1.314 . S
C805 C802 1.348 . S
C805 C807 1.353 1_655 S
C805 H861 0.929 . S
C806 C802 1.357 1_455 S
C806 C803 1.357 . S
C806 H862 0.930 1_455 S
C807 N804 1.314 . S
C807 C805 1.353 1_455 S
C807 H863 0.930 . S
C808 N809 1.314 . S
C808 C813 1.353 . S
C808 H814 0.930 . S
N809 Li792 1.990 . S
N809 C808 1.314 . S
N809 C811 1.279 . S
C810 C811 1.358 . S
C810 C812 1.356 . S
C810 H864 0.930 . S
C811 N809 1.279 . S
C811 C810 1.358 . S
C811 H815 0.930 . S
C812 C810 1.356 . S
C812 C813 1.348 . S
C813 C808 1.353 . S
C813 C812 1.348 . S
C813 H865 0.929 . S
H814 C808 0.930 . S
H815 C811 0.930 . S
C816 N817 1.314 . S
C816 C818 1.353 . S
C816 H822 0.930 . S
N817 Li793 1.990 . S
N817 C816 1.314 . S
N817 C820 1.279 . S
C818 C816 1.353 . S
C818 C821 1.348 . S
C818 H866 0.929 . S
C819 C820 1.358 . S
C819 C821 1.356 . S
C819 H867 0.930 1_655 S
C820 N817 1.279 . S
C820 C819 1.358 . S
C820 H823 0.930 . S
C821 C818 1.348 . S
C821 C819 1.356 . S
H822 C816 0.930 . S
H823 C820 0.930 . S
C824 C826 1.348 . S
C824 C827 1.356 . S
C824 O854 1.325 . S
N825 C828 1.314 . S
N825 C829 1.279 . S
C826 C824 1.348 . S
C826 C828 1.353 . S
C826 H868 0.929 . S
C827 C824 1.356 . S
C827 C829 1.358 . S
C827 H869 0.930 . S
C828 N825 1.314 . S
C828 C826 1.353 . S
C828 H870 0.930 . S
C829 N825 1.279 . S
C829 C827 1.358 . S
C829 H871 0.930 . S
C830 C831 1.348 . S
C830 C832 1.356 . S
C830 O855 1.325 . S
C831 C830 1.348 . S
C831 C833 1.353 . S
C831 H872 0.929 . S
C832 C830 1.356 . S
C832 C834 1.358 . S
C832 H873 0.930 . S
C833 C831 1.353 . S
C833 N835 1.314 . S
C833 H874 0.930 . S
C834 C832 1.358 . S
C834 N835 1.279 . S
C834 H875 0.930 . S
N835 C833 1.314 . S
N835 C834 1.279 . S
C836 C838 1.353 . S
C836 N839 1.314 . S
C836 H842 0.930 . S
C837 N839 1.279 . S
C837 C840 1.358 . S
C837 H843 0.930 . S
C838 C836 1.353 . S
C838 C841 1.348 . S
C838 H876 0.929 . S
N839 Li794 1.990 . S
N839 C836 1.314 . S
N839 C837 1.279 . S
C840 C837 1.358 . S
C840 C841 1.356 . S
C840 H877 0.930 . S
C841 C838 1.348 . S
C841 C840 1.356 . S
H842 C836 0.930 . S
H843 C837 0.930 . S
C844 N845 1.314 . S
C844 C846 1.353 . S
C844 H850 0.930 . S
N845 Li795 1.990 . S
N845 C844 1.314 . S
N845 C848 1.279 . S
C846 C844 1.353 . S
C846 C849 1.348 . S
C846 H878 0.929 . S
C847 C848 1.358 . S
C847 C849 1.356 . S
C847 H879 0.930 . S
C848 N845 1.279 . S
C848 C847 1.358 . S
C848 H851 0.930 . S
C849 C846 1.348 . S
C849 C847 1.356 . S
H850 C844 0.930 . S
H851 C848 0.930 . S
O852 Li792 1.956 . S
O852 Li793 1.970 . S
O852 Li794 1.961 . S
O852 C796 1.325 . S
O853 Li792 1.970 . S
O853 Li793 1.956 . S
O853 Li795 1.961 . S
O853 C802 1.325 . S
O854 Li792 1.961 . S
O854 Li794 1.956 . S
O854 Li795 1.970 . S
O854 C824 1.325 . S
O855 Li793 1.961 . S
O855 Li794 1.970 . S
O855 Li795 1.956 . S
O855 C830 1.325 . S
H856 C798 0.929 . S
H857 C799 0.930 . S
H858 C800 0.930 . S
H859 C801 0.930 . S
H860 C803 0.930 . S
H861 C805 0.929 . S
H862 C806 0.930 1_655 S
H863 C807 0.930 . S
H864 C810 0.930 . S
H865 C813 0.929 . S
H866 C818 0.929 . S
H867 C819 0.930 1_455 S
H868 C826 0.929 . S
H869 C827 0.930 . S
H870 C828 0.930 . S
H871 C829 0.930 . S
H872 C831 0.929 . S
H873 C832 0.930 . S
H874 C833 0.930 . S
H875 C834 0.930 . S
H876 C838 0.929 . S
H877 C840 0.930 . S
H878 C846 0.929 . S
H879 C847 0.930 . S
Li880 N897 1.990 . S
Li880 O940 1.956 . S
Li880 O941 1.970 . S
Li880 O942 1.961 . S
Li881 N905 1.990 . S
Li881 O940 1.970 . S
Li881 O941 1.956 . S
Li881 O943 1.961 . S
Li882 N927 1.990 . S
Li882 O940 1.961 . S
Li882 O942 1.956 . S
Li882 O943 1.970 . S
Li883 N933 1.990 . S
Li883 O941 1.961 . S
Li883 O942 1.970 . S
Li883 O943 1.956 . S
C884 C886 1.348 . S
C884 C887 1.356 . S
C884 O940 1.325 . S
N885 C888 1.314 . S
N885 C889 1.279 . S
C886 C884 1.348 . S
C886 C888 1.353 . S
C886 H944 0.929 . S
C887 C884 1.356 . S
C887 C889 1.358 . S
C887 H945 0.930 . S
C888 N885 1.314 . S
C888 C886 1.353 . S
C888 H946 0.930 . S
C889 N885 1.279 . S
C889 C887 1.358 . S
C889 H947 0.930 . S
C890 C893 1.348 . S
C890 C894 1.356 . S
C890 O941 1.325 . S
C891 N892 1.279 . S
C891 C894 1.358 . S
C891 H948 0.930 . S
N892 C891 1.279 . S
N892 C895 1.314 . S
C893 C890 1.348 . S
C893 C895 1.353 . S
C893 H949 0.929 . S
C894 C890 1.356 . S
C894 C891 1.358 . S
C894 H950 0.930 . S
C895 N892 1.314 . S
C895 C893 1.353 . S
C895 H951 0.930 . S
C896 N897 1.314 . S
C896 C901 1.353 . S
C896 H902 0.930 . S
N897 Li880 1.990 . S
N897 C896 1.314 . S
N897 C899 1.279 . S
C898 C899 1.358 . S
C898 C900 1.356 . S
C898 H952 0.930 . S
C899 N897 1.279 . S
C899 C898 1.358 . S
C899 H903 0.930 . S
C900 C898 1.356 . S
C900 C901 1.348 . S
C901 C896 1.353 . S
C901 C900 1.348 . S
C901 H953 0.929 . S
H902 C896 0.930 . S
H903 C899 0.930 . S
C904 N905 1.314 . S
C904 C906 1.353 . S
C904 H910 0.930 . S
N905 Li881 1.990 . S
N905 C904 1.314 . S
N905 C908 1.279 . S
C906 C904 1.353 . S
C906 C909 1.348 . S
C906 H954 0.929 . S
C907 C908 1.358 . S
C907 C909 1.356 . S
C907 H955 0.930 . S
C908 N905 1.279 . S
C908 C907 1.358 . S
C908 H911 0.930 . S
C909 C906 1.348 . S
C909 C907 1.356 . S
H910 C904 0.930 . S
H911 C908 0.930 . S
C912 C914 1.348 . S
C912 C915 1.357 1_455 S
C912 O942 1.325 . S
N913 C916 1.314 . S
N913 C917 1.279 . S
C914 C912 1.348 . S
C914 C916 1.353 1_455 S
C914 H956 0.929 . S
C915 C912 1.357 1_655 S
C915 C917 1.357 . S
C915 H957 0.930 1_655 S
C916 N913 1.314 . S
C916 C914 1.353 1_655 S
C916 H958 0.930 . S
C917 N913 1.279 . S
C917 C915 1.357 . S
C917 H959 0.930 . S
C918 C919 1.348 . S
C918 C920 1.356 . S
C918 O943 1.325 . S
C919 C918 1.348 . S
C919 C921 1.353 . S
C919 H960 0.929 . S
C920 C918 1.356 . S
C920 C922 1.358 . S
C920 H961 0.930 . S
C921 C919 1.353 . S
C921 N923 1.314 . S
C921 H962 0.930 . S
C922 C920 1.358 . S
C922 N923 1.279 . S
C922 H963 0.930 . S
N923 C921 1.314 . S
N923 C922 1.279 . S
C924 C926 1.353 . S
C924 N927 1.314 . S
C924 H930 0.930 . S
C925 N927 1.279 . S
C925 C928 1.358 . S
C925 H931 0.930 . S
C926 C924 1.353 . S
C926 C929 1.348 . S
C926 H964 0.929 . S
N927 Li882 1.990 . S
N927 C924 1.314 . S
N927 C925 1.279 . S
C928 C925 1.358 . S
C928 C929 1.356 . S
C928 H965 0.930 1_455 S
C929 C926 1.348 . S
C929 C928 1.356 . S
H930 C924 0.930 . S
H931 C925 0.930 . S
C932 N933 1.314 . S
C932 C934 1.353 . S
C932 H938 0.930 . S
N933 Li883 1.990 . S
N933 C932 1.314 . S
N933 C936 1.279 . S
C934 C932 1.353 . S
C934 C937 1.348 . S
C934 H966 0.929 . S
C935 C936 1.358 . S
C935 C937 1.356 . S
C935 H967 0.930 . S
C936 N933 1.279 . S
C936 C935 1.358 . S
C936 H939 0.930 . S
C937 C934 1.348 . S
C937 C935 1.356 . S
H938 C932 0.930 . S
H939 C936 0.930 . S
O940 Li880 1.956 . S
O940 Li881 1.970 . S
O940 Li882 1.961 . S
O940 C884 1.325 . S
O941 Li880 1.970 . S
O941 Li881 1.956 . S
O941 Li883 1.961 . S
O941 C890 1.325 . S
O942 Li880 1.961 . S
O942 Li882 1.956 . S
O942 Li883 1.970 . S
O942 C912 1.325 . S
O943 Li881 1.961 . S
O943 Li882 1.970 . S
O943 Li883 1.956 . S
O943 C918 1.325 . S
H944 C886 0.929 . S
H945 C887 0.930 . S
H946 C888 0.930 . S
H947 C889 0.930 . S
H948 C891 0.930 . S
H949 C893 0.929 . S
H950 C894 0.930 . S
H951 C895 0.930 . S
H952 C898 0.930 . S
H953 C901 0.929 . S
H954 C906 0.929 . S
H955 C907 0.930 . S
H956 C914 0.929 . S
H957 C915 0.930 1_455 S
H958 C916 0.930 . S
H959 C917 0.930 . S
H960 C919 0.929 . S
H961 C920 0.930 . S
H962 C921 0.930 . S
H963 C922 0.930 . S
H964 C926 0.929 . S
H965 C928 0.930 1_655 S
H966 C934 0.929 . S
H967 C935 0.930 . S
Li968 N985 1.990 . S
Li968 O1028 1.956 . S
Li968 O1029 1.970 . S
Li968 O1030 1.961 . S
Li969 N993 1.990 . S
Li969 O1028 1.970 . S
Li969 O1029 1.956 . S
Li969 O1031 1.961 . S
Li970 N1015 1.990 . S
Li970 O1028 1.961 . S
Li970 O1030 1.956 . S
Li970 O1031 1.970 . S
Li971 N1021 1.990 . S
Li971 O1029 1.961 . S
Li971 O1030 1.970 . S
Li971 O1031 1.956 . S
C972 C974 1.348 . S
C972 C975 1.356 . S
C972 O1028 1.325 . S
N973 C976 1.314 . S
N973 C977 1.279 . S
C974 C972 1.348 . S
C974 C976 1.353 . S
C974 H1032 0.929 . S
C975 C972 1.356 . S
C975 C977 1.358 . S
C975 H1033 0.930 . S
C976 N973 1.314 . S
C976 C974 1.353 . S
C976 H1034 0.930 . S
C977 N973 1.279 . S
C977 C975 1.358 . S
C977 H1035 0.930 . S
C978 C981 1.348 . S
C978 C982 1.356 . S
C978 O1029 1.325 . S
C979 N980 1.279 . S
C979 C982 1.358 . S
C979 H1036 0.930 . S
N980 C979 1.279 . S
N980 C983 1.314 . S
C981 C978 1.348 . S
C981 C983 1.353 . S
C981 H1037 0.929 . S
C982 C978 1.356 . S
C982 C979 1.358 . S
C982 H1038 0.930 . S
C983 N980 1.314 . S
C983 C981 1.353 . S
C983 H1039 0.930 . S
C984 N985 1.314 . S
C984 C989 1.353 . S
C984 H990 0.930 . S
N985 Li968 1.990 . S
N985 C984 1.314 . S
N985 C987 1.279 . S
C986 C987 1.358 . S
C986 C988 1.356 . S
C986 H1040 0.930 . S
C987 N985 1.279 . S
C987 C986 1.358 . S
C987 H991 0.930 . S
C988 C986 1.356 . S
C988 C989 1.348 . S
C989 C984 1.353 . S
C989 C988 1.348 . S
C989 H1041 0.929 . S
H990 C984 0.930 . S
H991 C987 0.930 . S
C992 N993 1.314 . S
C992 C994 1.353 . S
C992 H998 0.930 . S
N993 Li969 1.990 . S
N993 C992 1.314 . S
N993 C996 1.279 . S
C994 C992 1.353 . S
C994 C997 1.348 . S
C994 H1042 0.929 . S
C995 C996 1.358 . S
C995 C997 1.356 . S
C995 H1043 0.930 . S
C996 N993 1.279 . S
C996 C995 1.358 . S
C996 H999 0.930 . S
C997 C994 1.348 . S
C997 C995 1.356 . S
H998 C992 0.930 . S
H999 C996 0.930 . S
C1000 C1002 1.348 . S
C1000 C1003 1.356 . S
C1000 O1030 1.325 . S
N1001 C1004 1.314 . S
N1001 C1005 1.279 . S
C1002 C1000 1.348 . S
C1002 C1004 1.353 . S
C1002 H1044 0.929 . S
C1003 C1000 1.356 . S
C1003 C1005 1.358 . S
C1003 H1045 0.930 . S
C1004 N1001 1.314 . S
C1004 C1002 1.353 . S
C1004 H1046 0.930 . S
C1005 N1001 1.279 . S
C1005 C1003 1.358 . S
C1005 H1047 0.930 . S
C1006 C1007 1.348 . S
C1006 C1008 1.356 . S
C1006 O1031 1.325 . S
C1007 C1006 1.348 . S
C1007 C1009 1.353 . S
C1007 H1048 0.929 . S
C1008 C1006 1.356 . S
C1008 C1010 1.358 . S
C1008 H1049 0.930 . S
C1009 C1007 1.353 . S
C1009 N1011 1.314 . S
C1009 H1050 0.930 . S
C1010 C1008 1.358 . S
C1010 N1011 1.279 . S
C1010 H1051 0.930 . S
N1011 C1009 1.314 . S
N1011 C1010 1.279 . S
C1012 C1014 1.353 . S
C1012 N1015 1.314 . S
C1012 H1018 0.930 . S
C1013 N1015 1.279 . S
C1013 C1016 1.358 . S
C1013 H1019 0.930 . S
C1014 C1012 1.353 . S
C1014 C1017 1.348 . S
C1014 H1052 0.929 . S
N1015 Li970 1.990 . S
N1015 C1012 1.314 . S
N1015 C1013 1.279 . S
C1016 C1013 1.358 . S
C1016 C1017 1.356 . S
C1016 H1053 0.930 . S
C1017 C1014 1.348 . S
C1017 C1016 1.356 . S
H1018 C1012 0.930 . S
H1019 C1013 0.930 . S
C1020 N1021 1.314 . S
C1020 C1022 1.353 . S
C1020 H1026 0.930 . S
N1021 Li971 1.990 . S
N1021 C1020 1.314 . S
N1021 C1024 1.279 . S
C1022 C1020 1.353 . S
C1022 C1025 1.348 . S
C1022 H1054 0.929 . S
C1023 C1024 1.358 . S
C1023 C1025 1.356 . S
C1023 H1055 0.930 . S
C1024 N1021 1.279 . S
C1024 C1023 1.358 . S
C1024 H1027 0.930 . S
C1025 C1022 1.348 . S
C1025 C1023 1.356 . S
H1026 C1020 0.930 . S
H1027 C1024 0.930 . S
O1028 Li968 1.956 . S
O1028 Li969 1.970 . S
O1028 Li970 1.961 . S
O1028 C972 1.325 . S
O1029 Li968 1.970 . S
O1029 Li969 1.956 . S
O1029 Li971 1.961 . S
O1029 C978 1.325 . S
O1030 Li968 1.961 . S
O1030 Li970 1.956 . S
O1030 Li971 1.970 . S
O1030 C1000 1.325 . S
O1031 Li969 1.961 . S
O1031 Li970 1.970 . S
O1031 Li971 1.956 . S
O1031 C1006 1.325 . S
H1032 C974 0.929 . S
H1033 C975 0.930 . S
H1034 C976 0.930 . S
H1035 C977 0.930 . S
H1036 C979 0.930 . S
H1037 C981 0.929 . S
H1038 C982 0.930 . S
H1039 C983 0.930 . S
H1040 C986 0.930 . S
H1041 C989 0.929 . S
H1042 C994 0.929 . S
H1043 C995 0.930 . S
H1044 C1002 0.929 . S
H1045 C1003 0.930 . S
H1046 C1004 0.930 . S
H1047 C1005 0.930 . S
H1048 C1007 0.929 . S
H1049 C1008 0.930 . S
H1050 C1009 0.930 . S
H1051 C1010 0.930 . S
H1052 C1014 0.929 . S
H1053 C1016 0.930 . S
H1054 C1022 0.929 . S
H1055 C1023 0.930 . S
Li1056 N1073 1.990 . S
Li1056 O1116 1.956 . S
Li1056 O1117 1.970 . S
Li1056 O1118 1.961 . S
Li1057 N1081 1.990 . S
Li1057 O1116 1.970 . S
Li1057 O1117 1.956 . S
Li1057 O1119 1.961 . S
Li1058 N1103 1.990 . S
Li1058 O1116 1.961 . S
Li1058 O1118 1.956 . S
Li1058 O1119 1.970 . S
Li1059 N1109 1.990 . S
Li1059 O1117 1.961 . S
Li1059 O1118 1.970 . S
Li1059 O1119 1.956 . S
C1060 C1062 1.348 . S
C1060 C1063 1.356 . S
C1060 O1116 1.325 . S
N1061 C1064 1.314 . S
N1061 C1065 1.279 . S
C1062 C1060 1.348 . S
C1062 C1064 1.353 . S
C1062 H1120 0.929 . S
C1063 C1060 1.356 . S
C1063 C1065 1.358 . S
C1063 H1121 0.930 . S
C1064 N1061 1.314 . S
C1064 C1062 1.353 . S
C1064 H1122 0.930 . S
C1065 N1061 1.279 . S
C1065 C1063 1.358 . S
C1065 H1123 0.930 . S
C1066 C1069 1.348 . S
C1066 C1070 1.356 . S
C1066 O1117 1.325 . S
C1067 N1068 1.279 . S
C1067 C1070 1.358 . S
C1067 H1124 0.930 . S
N1068 C1067 1.279 . S
N1068 C1071 1.314 . S
C1069 C1066 1.348 . S
C1069 C1071 1.353 . S
C1069 H1125 0.929 . S
C1070 C1066 1.356 . S
C1070 C1067 1.358 . S
C1070 H1126 0.930 . S
C1071 N1068 1.314 . S
C1071 C1069 1.353 . S
C1071 H1127 0.930 . S
C1072 N1073 1.314 . S
C1072 C1077 1.353 . S
C1072 H1078 0.930 . S
N1073 Li1056 1.990 . S
N1073 C1072 1.314 . S
N1073 C1075 1.279 . S
C1074 C1075 1.358 . S
C1074 C1076 1.356 . S
C1074 H1128 0.930 . S
C1075 N1073 1.279 . S
C1075 C1074 1.358 . S
C1075 H1079 0.930 . S
C1076 C1074 1.356 . S
C1076 C1077 1.348 . S
C1077 C1072 1.353 . S
C1077 C1076 1.348 . S
C1077 H1129 0.929 . S
H1078 C1072 0.930 . S
H1079 C1075 0.930 . S
C1080 N1081 1.314 . S
C1080 C1082 1.353 . S
C1080 H1086 0.930 . S
N1081 Li1057 1.990 . S
N1081 C1080 1.314 . S
N1081 C1084 1.279 . S
C1082 C1080 1.353 . S
C1082 C1085 1.348 . S
C1082 H1130 0.929 . S
C1083 C1084 1.358 . S
C1083 C1085 1.356 . S
C1083 H1131 0.930 . S
C1084 N1081 1.279 . S
C1084 C1083 1.358 . S
C1084 H1087 0.930 . S
C1085 C1082 1.348 . S
C1085 C1083 1.356 . S
H1086 C1080 0.930 . S
H1087 C1084 0.930 . S
C1088 C1090 1.348 . S
C1088 C1091 1.356 . S
C1088 O1118 1.325 . S
N1089 C1092 1.314 . S
N1089 C1093 1.279 . S
C1090 C1088 1.348 . S
C1090 C1092 1.353 . S
C1090 H1132 0.929 . S
C1091 C1088 1.356 . S
C1091 C1093 1.358 . S
C1091 H1133 0.930 . S
C1092 N1089 1.314 . S
C1092 C1090 1.353 . S
C1092 H1134 0.930 . S
C1093 N1089 1.279 . S
C1093 C1091 1.358 . S
C1093 H1135 0.930 . S
C1094 C1095 1.348 . S
C1094 C1096 1.356 . S
C1094 O1119 1.325 . S
C1095 C1094 1.348 . S
C1095 C1097 1.353 . S
C1095 H1136 0.929 . S
C1096 C1094 1.356 . S
C1096 C1098 1.358 . S
C1096 H1137 0.930 . S
C1097 C1095 1.353 . S
C1097 N1099 1.314 . S
C1097 H1138 0.930 . S
C1098 C1096 1.358 . S
C1098 N1099 1.279 . S
C1098 H1139 0.930 . S
N1099 C1097 1.314 . S
N1099 C1098 1.279 . S
C1100 C1102 1.353 . S
C1100 N1103 1.314 . S
C1100 H1106 0.930 . S
C1101 N1103 1.279 . S
C1101 C1104 1.358 . S
C1101 H1107 0.930 . S
C1102 C1100 1.353 . S
C1102 C1105 1.348 . S
C1102 H1140 0.929 . S
N1103 Li1058 1.990 . S
N1103 C1100 1.314 . S
N1103 C1101 1.279 . S
C1104 C1101 1.358 . S
C1104 C1105 1.356 . S
C1104 H1141 0.930 . S
C1105 C1102 1.348 . S
C1105 C1104 1.356 . S
H1106 C1100 0.930 . S
H1107 C1101 0.930 . S
C1108 N1109 1.314 . S
C1108 C1110 1.353 . S
C1108 H1114 0.930 . S
N1109 Li1059 1.990 . S
N1109 C1108 1.314 . S
N1109 C1112 1.279 . S
C1110 C1108 1.353 . S
C1110 C1113 1.348 . S
C1110 H1142 0.929 . S
C1111 C1112 1.358 . S
C1111 C1113 1.356 . S
C1111 H1143 0.930 . S
C1112 N1109 1.279 . S
C1112 C1111 1.358 . S
C1112 H1115 0.930 . S
C1113 C1110 1.348 . S
C1113 C1111 1.356 . S
H1114 C1108 0.930 . S
H1115 C1112 0.930 . S
O1116 Li1056 1.956 . S
O1116 Li1057 1.970 . S
O1116 Li1058 1.961 . S
O1116 C1060 1.325 . S
O1117 Li1056 1.970 . S
O1117 Li1057 1.956 . S
O1117 Li1059 1.961 . S
O1117 C1066 1.325 . S
O1118 Li1056 1.961 . S
O1118 Li1058 1.956 . S
O1118 Li1059 1.970 . S
O1118 C1088 1.325 . S
O1119 Li1057 1.961 . S
O1119 Li1058 1.970 . S
O1119 Li1059 1.956 . S
O1119 C1094 1.325 . S
H1120 C1062 0.929 . S
H1121 C1063 0.930 . S
H1122 C1064 0.930 . S
H1123 C1065 0.930 . S
H1124 C1067 0.930 . S
H1125 C1069 0.929 . S
H1126 C1070 0.930 . S
H1127 C1071 0.930 . S
H1128 C1074 0.930 . S
H1129 C1077 0.929 . S
H1130 C1082 0.929 . S
H1131 C1083 0.930 . S
H1132 C1090 0.929 . S
H1133 C1091 0.930 . S
H1134 C1092 0.930 . S
H1135 C1093 0.930 . S
H1136 C1095 0.929 . S
H1137 C1096 0.930 . S
H1138 C1097 0.930 . S
H1139 C1098 0.930 . S
H1140 C1102 0.929 . S
H1141 C1104 0.930 . S
H1142 C1110 0.929 . S
H1143 C1111 0.930 . S
Li1144 N1161 1.990 . S
Li1144 O1204 1.956 . S
Li1144 O1205 1.970 . S
Li1144 O1206 1.961 . S
Li1145 N1169 1.990 . S
Li1145 O1204 1.970 . S
Li1145 O1205 1.956 . S
Li1145 O1207 1.961 . S
Li1146 N1191 1.990 . S
Li1146 O1204 1.961 . S
Li1146 O1206 1.956 . S
Li1146 O1207 1.970 . S
Li1147 N1197 1.990 . S
Li1147 O1205 1.961 . S
Li1147 O1206 1.970 . S
Li1147 O1207 1.956 . S
C1148 C1150 1.348 . S
C1148 C1151 1.362 . S
C1148 O1204 1.325 . S
N1149 C1152 1.314 . S
N1149 C1153 1.279 . S
C1150 C1148 1.348 . S
C1150 C1152 1.353 1_455 S
C1150 H1208 0.929 . S
C1151 C1148 1.362 . S
C1151 C1153 1.350 1_455 S
C1151 H1209 0.932 . S
C1152 N1149 1.314 . S
C1152 C1150 1.353 1_655 S
C1152 H1210 0.930 . S
C1153 N1149 1.279 . S
C1153 C1151 1.350 1_655 S
C1153 H1211 0.930 . S
C1154 C1157 1.348 . S
C1154 C1158 1.356 . S
C1154 O1205 1.325 . S
C1155 N1156 1.279 . S
C1155 C1158 1.358 . S
C1155 H1212 0.930 . S
N1156 C1155 1.279 . S
N1156 C1159 1.314 . S
C1157 C1154 1.348 . S
C1157 C1159 1.353 . S
C1157 H1213 0.929 . S
C1158 C1154 1.356 . S
C1158 C1155 1.358 . S
C1158 H1214 0.930 . S
C1159 N1156 1.314 . S
C1159 C1157 1.353 . S
C1159 H1215 0.930 . S
C1160 N1161 1.314 . S
C1160 C1165 1.353 . S
C1160 H1166 0.930 . S
N1161 Li1144 1.990 . S
N1161 C1160 1.314 . S
N1161 C1163 1.279 . S
C1162 C1163 1.358 . S
C1162 C1164 1.356 . S
C1162 H1216 0.930 1_455 S
C1163 N1161 1.279 . S
C1163 C1162 1.358 . S
C1163 H1167 0.930 . S
C1164 C1162 1.356 . S
C1164 C1165 1.348 . S
C1165 C1160 1.353 . S
C1165 C1164 1.348 . S
C1165 H1217 0.929 . S
H1166 C1160 0.930 . S
H1167 C1163 0.930 . S
C1168 N1169 1.314 . S
C1168 C1170 1.353 . S
C1168 H1174 0.930 . S
N1169 Li1145 1.990 . S
N1169 C1168 1.314 . S
N1169 C1172 1.279 . S
C1170 C1168 1.353 . S
C1170 C1173 1.348 . S
C1170 H1218 0.929 . S
C1171 C1172 1.358 . S
C1171 C1173 1.356 . S
C1171 H1219 0.930 . S
C1172 N1169 1.279 . S
C1172 C1171 1.358 . S
C1172 H1175 0.930 . S
C1173 C1170 1.348 . S
C1173 C1171 1.356 . S
H1174 C1168 0.930 . S
H1175 C1172 0.930 . S
C1176 C1178 1.348 . S
C1176 C1179 1.356 . S
C1176 O1206 1.325 . S
N1177 C1180 1.314 . S
N1177 C1181 1.279 . S
C1178 C1176 1.348 . S
C1178 C1180 1.353 . S
C1178 H1220 0.929 . S
C1179 C1176 1.356 . S
C1179 C1181 1.358 . S
C1179 H1221 0.930 . S
C1180 N1177 1.314 . S
C1180 C1178 1.353 . S
C1180 H1222 0.930 . S
C1181 N1177 1.279 . S
C1181 C1179 1.358 . S
C1181 H1223 0.930 . S
C1182 C1183 1.348 . S
C1182 C1184 1.356 . S
C1182 O1207 1.325 . S
C1183 C1182 1.348 . S
C1183 C1185 1.353 . S
C1183 H1224 0.929 . S
C1184 C1182 1.356 . S
C1184 C1186 1.358 . S
C1184 H1225 0.930 . S
C1185 C1183 1.353 . S
C1185 N1187 1.314 . S
C1185 H1226 0.930 . S
C1186 C1184 1.358 . S
C1186 N1187 1.279 . S
C1186 H1227 0.930 . S
N1187 C1185 1.314 . S
N1187 C1186 1.279 . S
C1188 C1190 1.353 . S
C1188 N1191 1.314 . S
C1188 H1194 0.930 . S
C1189 N1191 1.279 . S
C1189 C1192 1.358 . S
C1189 H1195 0.930 . S
C1190 C1188 1.353 . S
C1190 C1193 1.348 . S
C1190 H1228 0.929 . S
N1191 Li1146 1.990 . S
N1191 C1188 1.314 . S
N1191 C1189 1.279 . S
C1192 C1189 1.358 . S
C1192 C1193 1.356 . S
C1192 H1229 0.930 . S
C1193 C1190 1.348 . S
C1193 C1192 1.356 . S
H1194 C1188 0.930 . S
H1195 C1189 0.930 . S
C1196 N1197 1.314 . S
C1196 C1198 1.353 . S
C1196 H1202 0.930 . S
N1197 Li1147 1.990 . S
N1197 C1196 1.314 . S
N1197 C1200 1.279 . S
C1198 C1196 1.353 . S
C1198 C1201 1.348 . S
C1198 H1230 0.929 . S
C1199 C1200 1.358 . S
C1199 C1201 1.356 . S
C1199 H1231 0.930 . S
C1200 N1197 1.279 . S
C1200 C1199 1.358 . S
C1200 H1203 0.930 . S
C1201 C1198 1.348 . S
C1201 C1199 1.356 . S
H1202 C1196 0.930 . S
H1203 C1200 0.930 . S
O1204 Li1144 1.956 . S
O1204 Li1145 1.970 . S
O1204 Li1146 1.961 . S
O1204 C1148 1.325 . S
O1205 Li1144 1.970 . S
O1205 Li1145 1.956 . S
O1205 Li1147 1.961 . S
O1205 C1154 1.325 . S
O1206 Li1144 1.961 . S
O1206 Li1146 1.956 . S
O1206 Li1147 1.970 . S
O1206 C1176 1.325 . S
O1207 Li1145 1.961 . S
O1207 Li1146 1.970 . S
O1207 Li1147 1.956 . S
O1207 C1182 1.325 . S
H1208 C1150 0.929 . S
H1209 C1151 0.932 . S
H1210 C1152 0.930 . S
H1211 C1153 0.930 . S
H1212 C1155 0.930 . S
H1213 C1157 0.929 . S
H1214 C1158 0.930 . S
H1215 C1159 0.930 . S
H1216 C1162 0.930 1_655 S
H1217 C1165 0.929 . S
H1218 C1170 0.929 . S
H1219 C1171 0.930 . S
H1220 C1178 0.929 . S
H1221 C1179 0.930 . S
H1222 C1180 0.930 . S
H1223 C1181 0.930 . S
H1224 C1183 0.929 . S
H1225 C1184 0.930 . S
H1226 C1185 0.930 . S
H1227 C1186 0.930 . S
H1228 C1190 0.929 . S
H1229 C1192 0.930 . S
H1230 C1198 0.929 . S
H1231 C1199 0.930 . S
Li1232 N1249 1.990 . S
Li1232 O1292 1.956 . S
Li1232 O1293 1.970 . S
Li1232 O1294 1.961 . S
Li1233 N1257 1.990 . S
Li1233 O1292 1.970 . S
Li1233 O1293 1.956 . S
Li1233 O1295 1.961 . S
Li1234 N1279 1.990 . S
Li1234 O1292 1.961 . S
Li1234 O1294 1.956 . S
Li1234 O1295 1.970 . S
Li1235 N1285 1.990 . S
Li1235 O1293 1.961 . S
Li1235 O1294 1.970 . S
Li1235 O1295 1.956 . S
C1236 C1238 1.348 . S
C1236 C1239 1.356 . S
C1236 O1292 1.325 . S
N1237 C1240 1.314 . S
N1237 C1241 1.279 . S
C1238 C1236 1.348 . S
C1238 C1240 1.353 . S
C1238 H1296 0.929 . S
C1239 C1236 1.356 . S
C1239 C1241 1.358 . S
C1239 H1297 0.930 . S
C1240 N1237 1.314 . S
C1240 C1238 1.353 . S
C1240 H1298 0.930 . S
C1241 N1237 1.279 . S
C1241 C1239 1.358 . S
C1241 H1299 0.930 . S
C1242 C1245 1.348 . S
C1242 C1246 1.356 . S
C1242 O1293 1.325 . S
C1243 N1244 1.279 . S
C1243 C1246 1.358 . S
C1243 H1300 0.930 . S
N1244 C1243 1.279 . S
N1244 C1247 1.314 . S
C1245 C1242 1.348 . S
C1245 C1247 1.353 . S
C1245 H1301 0.929 . S
C1246 C1242 1.356 . S
C1246 C1243 1.358 . S
C1246 H1302 0.930 . S
C1247 N1244 1.314 . S
C1247 C1245 1.353 . S
C1247 H1303 0.930 . S
C1248 N1249 1.314 . S
C1248 C1253 1.353 . S
C1248 H1254 0.930 . S
N1249 Li1232 1.990 . S
N1249 C1248 1.314 . S
N1249 C1251 1.279 . S
C1250 C1251 1.358 . S
C1250 C1252 1.356 . S
C1250 H1304 0.930 . S
C1251 N1249 1.279 . S
C1251 C1250 1.358 . S
C1251 H1255 0.930 . S
C1252 C1250 1.356 . S
C1252 C1253 1.348 . S
C1253 C1248 1.353 . S
C1253 C1252 1.348 . S
C1253 H1305 0.929 . S
H1254 C1248 0.930 . S
H1255 C1251 0.930 . S
C1256 N1257 1.314 . S
C1256 C1258 1.353 . S
C1256 H1262 0.930 . S
N1257 Li1233 1.990 . S
N1257 C1256 1.314 . S
N1257 C1260 1.279 . S
C1258 C1256 1.353 . S
C1258 C1261 1.348 . S
C1258 H1306 0.929 . S
C1259 C1260 1.358 . S
C1259 C1261 1.356 . S
C1259 H1307 0.930 . S
C1260 N1257 1.279 . S
C1260 C1259 1.358 . S
C1260 H1263 0.930 . S
C1261 C1258 1.348 . S
C1261 C1259 1.356 . S
H1262 C1256 0.930 . S
H1263 C1260 0.930 . S
C1264 C1266 1.348 . S
C1264 C1267 1.356 . S
C1264 O1294 1.325 . S
N1265 C1268 1.314 . S
N1265 C1269 1.279 . S
C1266 C1264 1.348 . S
C1266 C1268 1.353 . S
C1266 H1308 0.929 . S
C1267 C1264 1.356 . S
C1267 C1269 1.358 . S
C1267 H1309 0.930 . S
C1268 N1265 1.314 . S
C1268 C1266 1.353 . S
C1268 H1310 0.930 . S
C1269 N1265 1.279 . S
C1269 C1267 1.358 . S
C1269 H1311 0.930 . S
C1270 C1271 1.348 . S
C1270 C1272 1.362 . S
C1270 O1295 1.325 . S
C1271 C1270 1.348 . S
C1271 C1273 1.353 1_655 S
C1271 H1312 0.929 . S
C1272 C1270 1.362 . S
C1272 C1274 1.350 1_655 S
C1272 H1313 0.932 . S
C1273 C1271 1.353 1_455 S
C1273 N1275 1.314 . S
C1273 H1314 0.930 . S
C1274 C1272 1.350 1_455 S
C1274 N1275 1.279 . S
C1274 H1315 0.930 . S
N1275 C1273 1.314 . S
N1275 C1274 1.279 . S
C1276 C1278 1.353 . S
C1276 N1279 1.314 . S
C1276 H1282 0.930 . S
C1277 N1279 1.279 . S
C1277 C1280 1.358 . S
C1277 H1283 0.930 . S
C1278 C1276 1.353 . S
C1278 C1281 1.348 . S
C1278 H1316 0.929 . S
N1279 Li1234 1.990 . S
N1279 C1276 1.314 . S
N1279 C1277 1.279 . S
C1280 C1277 1.358 . S
C1280 C1281 1.356 . S
C1280 H1317 0.930 . S
C1281 C1278 1.348 . S
C1281 C1280 1.356 . S
H1282 C1276 0.930 . S
H1283 C1277 0.930 . S
C1284 N1285 1.314 . S
C1284 C1286 1.353 . S
C1284 H1290 0.930 . S
N1285 Li1235 1.990 . S
N1285 C1284 1.314 . S
N1285 C1288 1.279 . S
C1286 C1284 1.353 . S
C1286 C1289 1.348 . S
C1286 H1318 0.929 . S
C1287 C1288 1.358 . S
C1287 C1289 1.356 . S
C1287 H1319 0.930 1_655 S
C1288 N1285 1.279 . S
C1288 C1287 1.358 . S
C1288 H1291 0.930 . S
C1289 C1286 1.348 . S
C1289 C1287 1.356 . S
H1290 C1284 0.930 . S
H1291 C1288 0.930 . S
O1292 Li1232 1.956 . S
O1292 Li1233 1.970 . S
O1292 Li1234 1.961 . S
O1292 C1236 1.325 . S
O1293 Li1232 1.970 . S
O1293 Li1233 1.956 . S
O1293 Li1235 1.961 . S
O1293 C1242 1.325 . S
O1294 Li1232 1.961 . S
O1294 Li1234 1.956 . S
O1294 Li1235 1.970 . S
O1294 C1264 1.325 . S
O1295 Li1233 1.961 . S
O1295 Li1234 1.970 . S
O1295 Li1235 1.956 . S
O1295 C1270 1.325 . S
H1296 C1238 0.929 . S
H1297 C1239 0.930 . S
H1298 C1240 0.930 . S
H1299 C1241 0.930 . S
H1300 C1243 0.930 . S
H1301 C1245 0.929 . S
H1302 C1246 0.930 . S
H1303 C1247 0.930 . S
H1304 C1250 0.930 . S
H1305 C1253 0.929 . S
H1306 C1258 0.929 . S
H1307 C1259 0.930 . S
H1308 C1266 0.929 . S
H1309 C1267 0.930 . S
H1310 C1268 0.930 . S
H1311 C1269 0.930 . S
H1312 C1271 0.929 . S
H1313 C1272 0.932 . S
H1314 C1273 0.930 . S
H1315 C1274 0.930 . S
H1316 C1278 0.929 . S
H1317 C1280 0.930 . S
H1318 C1286 0.929 . S
H1319 C1287 0.930 1_455 S
Li1320 N1337 1.990 . S
Li1320 O1380 1.956 . S
Li1320 O1381 1.970 . S
Li1320 O1382 1.961 . S
Li1321 N1345 1.990 . S
Li1321 O1380 1.970 . S
Li1321 O1381 1.956 . S
Li1321 O1383 1.961 . S
Li1322 N1367 1.990 . S
Li1322 O1380 1.961 . S
Li1322 O1382 1.956 . S
Li1322 O1383 1.970 . S
Li1323 N1373 1.990 . S
Li1323 O1381 1.961 . S
Li1323 O1382 1.970 . S
Li1323 O1383 1.956 . S
C1324 C1326 1.348 . S
C1324 C1327 1.356 . S
C1324 O1380 1.325 . S
N1325 C1328 1.314 . S
N1325 C1329 1.279 . S
C1326 C1324 1.348 . S
C1326 C1328 1.353 . S
C1326 H1384 0.929 . S
C1327 C1324 1.356 . S
C1327 C1329 1.358 . S
C1327 H1385 0.930 . S
C1328 N1325 1.314 . S
C1328 C1326 1.353 . S
C1328 H1386 0.930 . S
C1329 N1325 1.279 . S
C1329 C1327 1.358 . S
C1329 H1387 0.930 . S
C1330 C1333 1.348 . S
C1330 C1334 1.356 . S
C1330 O1381 1.325 . S
C1331 N1332 1.279 . S
C1331 C1334 1.358 . S
C1331 H1388 0.930 . S
N1332 C1331 1.279 . S
N1332 C1335 1.314 . S
C1333 C1330 1.348 . S
C1333 C1335 1.353 . S
C1333 H1389 0.929 . S
C1334 C1330 1.356 . S
C1334 C1331 1.358 . S
C1334 H1390 0.930 . S
C1335 N1332 1.314 . S
C1335 C1333 1.353 . S
C1335 H1391 0.930 . S
C1336 N1337 1.314 . S
C1336 C1341 1.353 . S
C1336 H1342 0.930 . S
N1337 Li1320 1.990 . S
N1337 C1336 1.314 . S
N1337 C1339 1.279 . S
C1338 C1339 1.358 . S
C1338 C1340 1.356 . S
C1338 H1392 0.930 . S
C1339 N1337 1.279 . S
C1339 C1338 1.358 . S
C1339 H1343 0.930 . S
C1340 C1338 1.356 . S
C1340 C1341 1.348 . S
C1341 C1336 1.353 . S
C1341 C1340 1.348 . S
C1341 H1393 0.929 . S
H1342 C1336 0.930 . S
H1343 C1339 0.930 . S
C1344 N1345 1.314 . S
C1344 C1346 1.353 . S
C1344 H1350 0.930 . S
N1345 Li1321 1.990 . S
N1345 C1344 1.314 . S
N1345 C1348 1.279 . S
C1346 C1344 1.353 . S
C1346 C1349 1.348 . S
C1346 H1394 0.929 . S
C1347 C1348 1.358 . S
C1347 C1349 1.356 . S
C1347 H1395 0.930 . S
C1348 N1345 1.279 . S
C1348 C1347 1.358 . S
C1348 H1351 0.930 . S
C1349 C1346 1.348 . S
C1349 C1347 1.356 . S
H1350 C1344 0.930 . S
H1351 C1348 0.930 . S
C1352 C1354 1.348 . S
C1352 C1355 1.356 . S
C1352 O1382 1.325 . S
N1353 C1356 1.314 . S
N1353 C1357 1.279 . S
C1354 C1352 1.348 . S
C1354 C1356 1.353 . S
C1354 H1396 0.929 . S
C1355 C1352 1.356 . S
C1355 C1357 1.358 . S
C1355 H1397 0.930 . S
C1356 N1353 1.314 . S
C1356 C1354 1.353 . S
C1356 H1398 0.930 . S
C1357 N1353 1.279 . S
C1357 C1355 1.358 . S
C1357 H1399 0.930 . S
C1358 C1359 1.348 . S
C1358 C1360 1.356 . S
C1358 O1383 1.325 . S
C1359 C1358 1.348 . S
C1359 C1361 1.353 . S
C1359 H1400 0.929 . S
C1360 C1358 1.356 . S
C1360 C1362 1.358 . S
C1360 H1401 0.930 . S
C1361 C1359 1.353 . S
C1361 N1363 1.314 . S
C1361 H1402 0.930 . S
C1362 C1360 1.358 . S
C1362 N1363 1.279 . S
C1362 H1403 0.930 . S
N1363 C1361 1.314 . S
N1363 C1362 1.279 . S
C1364 C1366 1.353 . S
C1364 N1367 1.314 . S
C1364 H1370 0.930 . S
C1365 N1367 1.279 . S
C1365 C1368 1.358 . S
C1365 H1371 0.930 . S
C1366 C1364 1.353 . S
C1366 C1369 1.348 . S
C1366 H1404 0.929 . S
N1367 Li1322 1.990 . S
N1367 C1364 1.314 . S
N1367 C1365 1.279 . S
C1368 C1365 1.358 . S
C1368 C1369 1.356 . S
C1368 H1405 0.930 . S
C1369 C1366 1.348 . S
C1369 C1368 1.356 . S
H1370 C1364 0.930 . S
H1371 C1365 0.930 . S
C1372 N1373 1.314 . S
C1372 C1374 1.353 . S
C1372 H1378 0.930 . S
N1373 Li1323 1.990 . S
N1373 C1372 1.314 . S
N1373 C1376 1.279 . S
C1374 C1372 1.353 . S
C1374 C1377 1.348 . S
C1374 H1406 0.929 . S
C1375 C1376 1.358 . S
C1375 C1377 1.356 . S
C1375 H1407 0.930 . S
C1376 N1373 1.279 . S
C1376 C1375 1.358 . S
C1376 H1379 0.930 . S
C1377 C1374 1.348 . S
C1377 C1375 1.356 . S
H1378 C1372 0.930 . S
H1379 C1376 0.930 . S
O1380 Li1320 1.956 . S
O1380 Li1321 1.970 . S
O1380 Li1322 1.961 . S
O1380 C1324 1.325 . S
O1381 Li1320 1.970 . S
O1381 Li1321 1.956 . S
O1381 Li1323 1.961 . S
O1381 C1330 1.325 . S
O1382 Li1320 1.961 . S
O1382 Li1322 1.956 . S
O1382 Li1323 1.970 . S
O1382 C1352 1.325 . S
O1383 Li1321 1.961 . S
O1383 Li1322 1.970 . S
O1383 Li1323 1.956 . S
O1383 C1358 1.325 . S
H1384 C1326 0.929 . S
H1385 C1327 0.930 . S
H1386 C1328 0.930 . S
H1387 C1329 0.930 . S
H1388 C1331 0.930 . S
H1389 C1333 0.929 . S
H1390 C1334 0.930 . S
H1391 C1335 0.930 . S
H1392 C1338 0.930 . S
H1393 C1341 0.929 . S
H1394 C1346 0.929 . S
H1395 C1347 0.930 . S
H1396 C1354 0.929 . S
H1397 C1355 0.930 . S
H1398 C1356 0.930 . S
H1399 C1357 0.930 . S
H1400 C1359 0.929 . S
H1401 C1360 0.930 . S
H1402 C1361 0.930 . S
H1403 C1362 0.930 . S
H1404 C1366 0.929 . S
H1405 C1368 0.930 . S
H1406 C1374 0.929 . S
H1407 C1375 0.930 . S
H1408 C1426 0.951 . S
H1409 C1428 0.951 . S
H1410 C1430 0.933 1_545 S
H1411 C1431 0.950 1_545 S
H1412 C1433 0.950 . S
H1413 C1436 0.950 . S
H1414 C1437 0.950 . S
H1415 C1439 0.950 . S
H1416 C1440 0.950 . S
H1417 C1441 0.951 . S
H1418 C1443 0.951 . S
H1419 C1445 0.933 1_565 S
H1420 C1446 0.950 1_565 S
H1421 C1448 0.950 . S
H1422 C1451 0.950 . S
H1423 C1452 0.950 . S
H1424 C1454 0.950 . S
H1425 C1455 0.950 . S
C1426 H1408 0.951 . S
C1426 C1427 1.366 . S
C1426 C1428 1.388 . S
C1427 C1426 1.366 . S
C1427 C1431 1.385 . S
C1428 H1409 0.951 . S
C1428 C1426 1.388 . S
C1428 C1429 1.366 . S
C1429 C1428 1.366 . S
C1429 C1430 1.426 . S
C1429 C1432 1.499 . S
C1430 H1410 0.933 1_565 S
C1430 C1429 1.426 . S
C1430 C1431 1.380 . S
C1431 H1411 0.950 1_565 S
C1431 C1427 1.385 . S
C1431 C1430 1.380 . S
C1432 C1429 1.499 . S
C1432 C1433 1.373 1_565 S
C1432 C1434 1.389 . S
C1433 H1412 0.950 . S
C1433 C1432 1.373 1_545 S
C1433 C1449 1.377 . S
C1434 C1432 1.389 . S
C1434 C1435 1.524 . S
C1434 C1448 1.377 . S
C1435 C1434 1.524 . S
C1435 C1436 1.397 . S
C1435 C1440 1.363 . S
C1436 H1413 0.950 . S
C1436 C1435 1.397 . S
C1436 C1437 1.334 . S
C1437 H1414 0.950 . S
C1437 C1436 1.334 . S
C1437 C1438 1.287 . S
C1438 C1437 1.287 . S
C1438 C1439 1.524 . S
C1438 H1457 0.913 . S
C1439 H1415 0.950 . S
C1439 C1438 1.524 . S
C1439 C1440 1.415 . S
C1440 H1416 0.950 . S
C1440 C1435 1.363 . S
C1440 C1439 1.415 . S
C1441 H1417 0.951 . S
C1441 C1442 1.366 . S
C1441 C1443 1.388 . S
C1442 C1441 1.366 . S
C1442 C1446 1.385 . S
C1443 H1418 0.951 . S
C1443 C1441 1.388 . S
C1443 C1444 1.366 . S
C1444 C1443 1.366 . S
C1444 C1445 1.426 . S
C1444 C1447 1.499 . S
C1445 H1419 0.933 1_545 S
C1445 C1444 1.426 . S
C1445 C1446 1.380 . S
C1446 H1420 0.950 1_545 S
C1446 C1442 1.385 . S
C1446 C1445 1.380 . S
C1447 C1444 1.499 . S
C1447 C1448 1.373 1_545 S
C1447 C1449 1.389 . S
C1448 H1421 0.950 . S
C1448 C1434 1.377 . S
C1448 C1447 1.373 1_565 S
C1449 C1433 1.377 . S
C1449 C1447 1.389 . S
C1449 C1450 1.524 . S
C1450 C1449 1.524 . S
C1450 C1451 1.397 . S
C1450 C1455 1.363 . S
C1451 H1422 0.950 . S
C1451 C1450 1.397 . S
C1451 C1452 1.334 . S
C1452 H1423 0.950 . S
C1452 C1451 1.334 . S
C1452 C1453 1.287 . S
C1453 C1452 1.287 . S
C1453 C1454 1.524 . S
C1453 H1456 0.999 . S
C1454 H1424 0.950 . S
C1454 C1453 1.524 . S
C1454 C1455 1.415 . S
C1455 H1425 0.950 . S
C1455 C1450 1.363 . S
C1455 C1454 1.415 . S
H1456 C1453 0.999 . S
H1457 C1438 0.913 . S
H1458 C1476 0.951 1_545 S
H1459 C1478 0.904 1_545 S
H1460 C1480 0.950 . S
H1461 C1481 0.950 . S
H1462 C1483 0.950 . S
H1463 C1486 0.950 1_565 S
H1464 C1487 0.950 1_565 S
H1465 C1489 0.950 . S
H1466 C1490 0.950 . S
H1467 C1491 0.951 1_565 S
H1468 C1493 0.904 1_565 S
H1469 C1495 0.950 . S
H1470 C1496 0.950 . S
H1471 C1498 0.950 . S
H1472 C1501 0.950 1_545 S
H1473 C1502 0.950 1_545 S
H1474 C1504 0.950 . S
H1475 C1505 0.950 . S
C1476 H1458 0.951 1_565 S
C1476 C1477 1.366 . S
C1476 C1478 1.404 . S
C1477 C1476 1.366 . S
C1477 C1481 1.385 . S
C1478 H1459 0.904 1_565 S
C1478 C1476 1.404 . S
C1478 C1479 1.397 . S
C1479 C1478 1.397 . S
C1479 C1480 1.414 . S
C1479 C1482 1.499 . S
C1480 H1460 0.950 . S
C1480 C1479 1.414 . S
C1480 C1481 1.374 . S
C1481 H1461 0.950 . S
C1481 C1477 1.385 . S
C1481 C1480 1.374 . S
C1482 C1479 1.499 . S
C1482 C1483 1.373 . S
C1482 C1484 1.389 1_565 S
C1483 H1462 0.950 . S
C1483 C1482 1.373 . S
C1483 C1499 1.377 . S
C1484 C1482 1.389 1_545 S
C1484 C1485 1.524 . S
C1484 C1498 1.377 . S
C1485 C1484 1.524 . S
C1485 C1486 1.397 . S
C1485 C1490 1.363 . S
C1486 H1463 0.950 1_545 S
C1486 C1485 1.397 . S
C1486 C1487 1.334 . S
C1487 H1464 0.950 1_545 S
C1487 C1486 1.334 . S
C1487 C1488 1.287 . S
C1488 C1487 1.287 . S
C1488 C1489 1.524 . S
C1488 H1507 0.913 . S
C1489 H1465 0.950 . S
C1489 C1488 1.524 . S
C1489 C1490 1.415 . S
C1490 H1466 0.950 . S
C1490 C1485 1.363 . S
C1490 C1489 1.415 . S
C1491 H1467 0.951 1_545 S
C1491 C1492 1.366 . S
C1491 C1493 1.404 . S
C1492 C1491 1.366 . S
C1492 C1496 1.385 . S
C1493 H1468 0.904 1_545 S
C1493 C1491 1.404 . S
C1493 C1494 1.397 . S
C1494 C1493 1.397 . S
C1494 C1495 1.414 . S
C1494 C1497 1.499 . S
C1495 H1469 0.950 . S
C1495 C1494 1.414 . S
C1495 C1496 1.374 . S
C1496 H1470 0.950 . S
C1496 C1492 1.385 . S
C1496 C1495 1.374 . S
C1497 C1494 1.499 . S
C1497 C1498 1.373 . S
C1497 C1499 1.389 1_545 S
C1498 H1471 0.950 . S
C1498 C1484 1.377 . S
C1498 C1497 1.373 . S
C1499 C1483 1.377 . S
C1499 C1497 1.389 1_565 S
C1499 C1500 1.524 . S
C1500 C1499 1.524 . S
C1500 C1501 1.397 . S
C1500 C1505 1.363 . S
C1501 H1472 0.950 1_565 S
C1501 C1500 1.397 . S
C1501 C1502 1.334 . S
C1502 H1473 0.950 1_565 S
C1502 C1501 1.334 . S
C1502 C1503 1.287 . S
C1503 C1502 1.287 . S
C1503 C1504 1.524 . S
C1503 H1506 0.999 . S
C1504 H1474 0.950 . S
C1504 C1503 1.524 . S
C1504 C1505 1.415 . S
C1505 H1475 0.950 . S
C1505 C1500 1.363 . S
C1505 C1504 1.415 . S
H1506 C1503 0.999 . S
H1507 C1488 0.913 . S
H1508 C1526 0.941 1_545 S
H1509 C1528 0.951 1_545 S
H1510 C1530 0.950 . S
H1511 C1531 0.950 . S
H1512 C1533 0.950 . S
H1513 C1536 0.995 . S
H1514 C1537 0.950 . S
H1515 C1539 0.950 . S
H1516 C1540 0.950 . S
H1517 C1541 0.941 1_565 S
H1518 C1543 0.951 1_565 S
H1519 C1545 0.950 . S
H1520 C1546 0.950 . S
H1521 C1548 0.950 . S
H1522 C1551 0.995 . S
H1523 C1552 0.950 . S
H1524 C1554 0.950 . S
H1525 C1555 0.950 . S
C1526 H1508 0.941 1_565 S
C1526 C1527 1.366 . S
C1526 C1528 1.388 . S
C1527 C1526 1.366 . S
C1527 C1531 1.385 . S
C1528 H1509 0.951 1_565 S
C1528 C1526 1.388 . S
C1528 C1529 1.366 . S
C1529 C1528 1.366 . S
C1529 C1530 1.414 . S
C1529 C1532 1.499 . S
C1530 H1510 0.950 . S
C1530 C1529 1.414 . S
C1530 C1531 1.374 . S
C1531 H1511 0.950 . S
C1531 C1527 1.385 . S
C1531 C1530 1.374 . S
C1532 C1529 1.499 . S
C1532 C1533 1.373 . S
C1532 C1534 1.389 1_565 S
C1533 H1512 0.950 . S
C1533 C1532 1.373 . S
C1533 C1549 1.377 . S
C1534 C1532 1.389 1_545 S
C1534 C1535 1.524 . S
C1534 C1548 1.377 . S
C1535 C1534 1.524 . S
C1535 C1536 1.397 . S
C1535 C1540 1.363 . S
C1536 H1513 0.995 . S
C1536 C1535 1.397 . S
C1536 C1537 1.334 . S
C1537 H1514 0.950 . S
C1537 C1536 1.334 . S
C1537 C1538 1.287 . S
C1538 C1537 1.287 . S
C1538 C1539 1.524 . S
C1538 H1557 0.913 . S
C1539 H1515 0.950 . S
C1539 C1538 1.524 . S
C1539 C1540 1.415 . S
C1540 H1516 0.950 . S
C1540 C1535 1.363 . S
C1540 C1539 1.415 . S
C1541 H1517 0.941 1_545 S
C1541 C1542 1.366 . S
C1541 C1543 1.388 . S
C1542 C1541 1.366 . S
C1542 C1546 1.385 . S
C1543 H1518 0.951 1_545 S
C1543 C1541 1.388 . S
C1543 C1544 1.366 . S
C1544 C1543 1.366 . S
C1544 C1545 1.414 . S
C1544 C1547 1.499 . S
C1545 H1519 0.950 . S
C1545 C1544 1.414 . S
C1545 C1546 1.374 . S
C1546 H1520 0.950 . S
C1546 C1542 1.385 . S
C1546 C1545 1.374 . S
C1547 C1544 1.499 . S
C1547 C1548 1.373 . S
C1547 C1549 1.389 1_545 S
C1548 H1521 0.950 . S
C1548 C1534 1.377 . S
C1548 C1547 1.373 . S
C1549 C1533 1.377 . S
C1549 C1547 1.389 1_565 S
C1549 C1550 1.524 . S
C1550 C1549 1.524 . S
C1550 C1551 1.397 . S
C1550 C1555 1.363 . S
C1551 H1522 0.995 . S
C1551 C1550 1.397 . S
C1551 C1552 1.334 . S
C1552 H1523 0.950 . S
C1552 C1551 1.334 . S
C1552 C1553 1.287 . S
C1553 C1552 1.287 . S
C1553 C1554 1.524 . S
C1553 H1556 0.999 . S
C1554 H1524 0.950 . S
C1554 C1553 1.524 . S
C1554 C1555 1.415 . S
C1555 H1525 0.950 . S
C1555 C1550 1.363 . S
C1555 C1554 1.415 . S
H1556 C1553 0.999 . S
H1557 C1538 0.913 . S
H1558 C1576 0.951 . S
H1559 C1578 0.951 . S
H1560 C1580 0.931 1_545 S
H1561 C1581 0.950 1_545 S
H1562 C1583 0.950 . S
H1563 C1586 0.950 . S
H1564 C1587 0.950 . S
H1565 C1589 0.950 . S
H1566 C1590 0.950 . S
H1567 C1591 0.951 . S
H1568 C1593 0.951 . S
H1569 C1595 0.931 1_565 S
H1570 C1596 0.950 1_565 S
H1571 C1598 0.950 . S
H1572 C1601 0.950 . S
H1573 C1602 0.950 . S
H1574 C1604 0.950 . S
H1575 C1605 0.950 . S
C1576 H1558 0.951 . S
C1576 C1577 1.366 . S
C1576 C1578 1.388 . S
C1577 C1576 1.366 . S
C1577 C1581 1.385 . S
C1578 H1559 0.951 . S
C1578 C1576 1.388 . S
C1578 C1579 1.366 . S
C1579 C1578 1.366 . S
C1579 C1580 1.427 . S
C1579 C1582 1.499 . S
C1580 H1560 0.931 1_565 S
C1580 C1579 1.427 . S
C1580 C1581 1.381 . S
C1581 H1561 0.950 1_565 S
C1581 C1577 1.385 . S
C1581 C1580 1.381 . S
C1582 C1579 1.499 . S
C1582 C1583 1.373 1_565 S
C1582 C1584 1.389 . S
C1583 H1562 0.950 . S
C1583 C1582 1.373 1_545 S
C1583 C1599 1.377 . S
C1584 C1582 1.389 . S
C1584 C1585 1.524 . S
C1584 C1598 1.377 . S
C1585 C1584 1.524 . S
C1585 C1586 1.397 . S
C1585 C1590 1.363 . S
C1586 H1563 0.950 . S
C1586 C1585 1.397 . S
C1586 C1587 1.334 . S
C1587 H1564 0.950 . S
C1587 C1586 1.334 . S
C1587 C1588 1.287 . S
C1588 C1587 1.287 . S
C1588 C1589 1.524 . S
C1588 H1607 0.913 . S
C1589 H1565 0.950 . S
C1589 C1588 1.524 . S
C1589 C1590 1.415 . S
C1590 H1566 0.950 . S
C1590 C1585 1.363 . S
C1590 C1589 1.415 . S
C1591 H1567 0.951 . S
C1591 C1592 1.366 . S
C1591 C1593 1.388 . S
C1592 C1591 1.366 . S
C1592 C1596 1.385 . S
C1593 H1568 0.951 . S
C1593 C1591 1.388 . S
C1593 C1594 1.366 . S
C1594 C1593 1.366 . S
C1594 C1595 1.427 . S
C1594 C1597 1.499 . S
C1595 H1569 0.931 1_545 S
C1595 C1594 1.427 . S
C1595 C1596 1.381 . S
C1596 H1570 0.950 1_545 S
C1596 C1592 1.385 . S
C1596 C1595 1.381 . S
C1597 C1594 1.499 . S
C1597 C1598 1.373 1_545 S
C1597 C1599 1.389 . S
C1598 H1571 0.950 . S
C1598 C1584 1.377 . S
C1598 C1597 1.373 1_565 S
C1599 C1583 1.377 . S
C1599 C1597 1.389 . S
C1599 C1600 1.524 . S
C1600 C1599 1.524 . S
C1600 C1601 1.397 . S
C1600 C1605 1.363 . S
C1601 H1572 0.950 . S
C1601 C1600 1.397 . S
C1601 C1602 1.334 . S
C1602 H1573 0.950 . S
C1602 C1601 1.334 . S
C1602 C1603 1.287 . S
C1603 C1602 1.287 . S
C1603 C1604 1.524 . S
C1603 H1606 0.999 . S
C1604 H1574 0.950 . S
C1604 C1603 1.524 . S
C1604 C1605 1.415 . S
C1605 H1575 0.950 . S
C1605 C1600 1.363 . S
C1605 C1604 1.415 . S
H1606 C1603 0.999 . S
H1607 C1588 0.913 . S
H1608 C1626 0.951 . S
H1609 C1628 0.951 . S
H1610 C1630 0.950 . S
H1611 C1631 0.950 . S
H1612 C1633 0.950 . S
H1613 C1636 0.950 . S
H1614 C1637 0.950 . S
H1615 C1639 0.950 . S
H1616 C1640 0.950 . S
H1617 C1641 0.951 . S
H1618 C1643 0.951 . S
H1619 C1645 0.950 . S
H1620 C1646 0.950 . S
H1621 C1648 0.950 . S
H1622 C1651 0.950 . S
H1623 C1652 0.950 . S
H1624 C1654 0.950 . S
H1625 C1655 0.950 . S
C1626 H1608 0.951 . S
C1626 C1627 1.366 . S
C1626 C1628 1.388 . S
C1627 C1626 1.366 . S
C1627 C1631 1.385 . S
C1628 H1609 0.951 . S
C1628 C1626 1.388 . S
C1628 C1629 1.366 . S
C1629 C1628 1.366 . S
C1629 C1630 1.414 . S
C1629 C1632 1.499 . S
C1630 H1610 0.950 . S
C1630 C1629 1.414 . S
C1630 C1631 1.374 . S
C1631 H1611 0.950 . S
C1631 C1627 1.385 . S
C1631 C1630 1.374 . S
C1632 C1629 1.499 . S
C1632 C1633 1.373 . S
C1632 C1634 1.389 . S
C1633 H1612 0.950 . S
C1633 C1632 1.373 . S
C1633 C1649 1.377 . S
C1634 C1632 1.389 . S
C1634 C1635 1.524 . S
C1634 C1648 1.377 . S
C1635 C1634 1.524 . S
C1635 C1636 1.397 . S
C1635 C1640 1.363 . S
C1636 H1613 0.950 . S
C1636 C1635 1.397 . S
C1636 C1637 1.334 . S
C1637 H1614 0.950 . S
C1637 C1636 1.334 . S
C1637 C1638 1.287 . S
C1638 C1637 1.287 . S
C1638 C1639 1.524 . S
C1638 H1657 0.913 . S
C1639 H1615 0.950 . S
C1639 C1638 1.524 . S
C1639 C1640 1.415 . S
C1640 H1616 0.950 . S
C1640 C1635 1.363 . S
C1640 C1639 1.415 . S
C1641 H1617 0.951 . S
C1641 C1642 1.366 . S
C1641 C1643 1.388 . S
C1642 C1641 1.366 . S
C1642 C1646 1.385 . S
C1643 H1618 0.951 . S
C1643 C1641 1.388 . S
C1643 C1644 1.366 . S
C1644 C1643 1.366 . S
C1644 C1645 1.414 . S
C1644 C1647 1.499 . S
C1645 H1619 0.950 . S
C1645 C1644 1.414 . S
C1645 C1646 1.374 . S
C1646 H1620 0.950 . S
C1646 C1642 1.385 . S
C1646 C1645 1.374 . S
C1647 C1644 1.499 . S
C1647 C1648 1.373 . S
C1647 C1649 1.389 . S
C1648 H1621 0.950 . S
C1648 C1634 1.377 . S
C1648 C1647 1.373 . S
C1649 C1633 1.377 . S
C1649 C1647 1.389 . S
C1649 C1650 1.524 . S
C1650 C1649 1.524 . S
C1650 C1651 1.397 . S
C1650 C1655 1.363 . S
C1651 H1622 0.950 . S
C1651 C1650 1.397 . S
C1651 C1652 1.334 . S
C1652 H1623 0.950 . S
C1652 C1651 1.334 . S
C1652 C1653 1.287 . S
C1653 C1652 1.287 . S
C1653 C1654 1.524 . S
C1653 H1656 0.999 . S
C1654 H1624 0.950 . S
C1654 C1653 1.524 . S
C1654 C1655 1.415 . S
C1655 H1625 0.950 . S
C1655 C1650 1.363 . S
C1655 C1654 1.415 . S
H1656 C1653 0.999 . S
H1657 C1638 0.913 . S
H1658 C1676 0.951 . S
H1659 C1678 0.951 . S
H1660 C1680 0.950 . S
H1661 C1681 0.950 . S
H1662 C1683 0.950 . S
H1663 C1686 0.950 . S
H1664 C1687 0.950 . S
H1665 C1689 0.950 . S
H1666 C1690 0.950 . S
H1667 C1691 0.951 . S
H1668 C1693 0.951 . S
H1669 C1695 0.950 . S
H1670 C1696 0.950 . S
H1671 C1698 0.950 . S
H1672 C1701 0.950 . S
H1673 C1702 0.950 . S
H1674 C1704 0.950 . S
H1675 C1705 0.950 . S
C1676 H1658 0.951 . S
C1676 C1677 1.366 . S
C1676 C1678 1.388 . S
C1677 C1676 1.366 . S
C1677 C1681 1.385 . S
C1678 H1659 0.951 . S
C1678 C1676 1.388 . S
C1678 C1679 1.366 . S
C1679 C1678 1.366 . S
C1679 C1680 1.414 . S
C1679 C1682 1.499 . S
C1680 H1660 0.950 . S
C1680 C1679 1.414 . S
C1680 C1681 1.374 . S
C1681 H1661 0.950 . S
C1681 C1677 1.385 . S
C1681 C1680 1.374 . S
C1682 C1679 1.499 . S
C1682 C1683 1.373 . S
C1682 C1684 1.389 . S
C1683 H1662 0.950 . S
C1683 C1682 1.373 . S
C1683 C1699 1.377 . S
C1684 C1682 1.389 . S
C1684 C1685 1.524 . S
C1684 C1698 1.377 . S
C1685 C1684 1.524 . S
C1685 C1686 1.397 . S
C1685 C1690 1.363 . S
C1686 H1663 0.950 . S
C1686 C1685 1.397 . S
C1686 C1687 1.334 . S
C1687 H1664 0.950 . S
C1687 C1686 1.334 . S
C1687 C1688 1.287 . S
C1688 C1687 1.287 . S
C1688 C1689 1.524 . S
C1688 H1707 0.913 . S
C1689 H1665 0.950 . S
C1689 C1688 1.524 . S
C1689 C1690 1.415 . S
C1690 H1666 0.950 . S
C1690 C1685 1.363 . S
C1690 C1689 1.415 . S
C1691 H1667 0.951 . S
C1691 C1692 1.366 . S
C1691 C1693 1.388 . S
C1692 C1691 1.366 . S
C1692 C1696 1.385 . S
C1693 H1668 0.951 . S
C1693 C1691 1.388 . S
C1693 C1694 1.366 . S
C1694 C1693 1.366 . S
C1694 C1695 1.414 . S
C1694 C1697 1.499 . S
C1695 H1669 0.950 . S
C1695 C1694 1.414 . S
C1695 C1696 1.374 . S
C1696 H1670 0.950 . S
C1696 C1692 1.385 . S
C1696 C1695 1.374 . S
C1697 C1694 1.499 . S
C1697 C1698 1.373 . S
C1697 C1699 1.389 . S
C1698 H1671 0.950 . S
C1698 C1684 1.377 . S
C1698 C1697 1.373 . S
C1699 C1683 1.377 . S
C1699 C1697 1.389 . S
C1699 C1700 1.524 . S
C1700 C1699 1.524 . S
C1700 C1701 1.397 . S
C1700 C1705 1.363 . S
C1701 H1672 0.950 . S
C1701 C1700 1.397 . S
C1701 C1702 1.334 . S
C1702 H1673 0.950 . S
C1702 C1701 1.334 . S
C1702 C1703 1.287 . S
C1703 C1702 1.287 . S
C1703 C1704 1.524 . S
C1703 H1706 0.999 . S
C1704 H1674 0.950 . S
C1704 C1703 1.524 . S
C1704 C1705 1.415 . S
C1705 H1675 0.950 . S
C1705 C1700 1.363 . S
C1705 C1704 1.415 . S
H1706 C1703 0.999 . S
H1707 C1688 0.913 . S
H1708 C1726 0.951 . S
H1709 C1728 0.951 . S
H1710 C1730 0.950 . S
H1711 C1731 0.950 . S
H1712 C1733 0.950 . S
H1713 C1736 0.950 . S
H1714 C1737 0.950 . S
H1715 C1739 0.950 . S
H1716 C1740 0.950 . S
H1717 C1741 0.951 . S
H1718 C1743 0.951 . S
H1719 C1745 0.950 . S
H1720 C1746 0.950 . S
H1721 C1748 0.950 . S
H1722 C1751 0.950 . S
H1723 C1752 0.950 . S
H1724 C1754 0.950 . S
H1725 C1755 0.950 . S
C1726 H1708 0.951 . S
C1726 C1727 1.366 . S
C1726 C1728 1.388 . S
C1727 C1726 1.366 . S
C1727 C1731 1.385 . S
C1728 H1709 0.951 . S
C1728 C1726 1.388 . S
C1728 C1729 1.366 . S
C1729 C1728 1.366 . S
C1729 C1730 1.414 . S
C1729 C1732 1.499 . S
C1730 H1710 0.950 . S
C1730 C1729 1.414 . S
C1730 C1731 1.374 . S
C1731 H1711 0.950 . S
C1731 C1727 1.385 . S
C1731 C1730 1.374 . S
C1732 C1729 1.499 . S
C1732 C1733 1.373 . S
C1732 C1734 1.389 . S
C1733 H1712 0.950 . S
C1733 C1732 1.373 . S
C1733 C1749 1.377 . S
C1734 C1732 1.389 . S
C1734 C1735 1.524 . S
C1734 C1748 1.377 . S
C1735 C1734 1.524 . S
C1735 C1736 1.397 . S
C1735 C1740 1.363 . S
C1736 H1713 0.950 . S
C1736 C1735 1.397 . S
C1736 C1737 1.334 . S
C1737 H1714 0.950 . S
C1737 C1736 1.334 . S
C1737 C1738 1.287 . S
C1738 C1737 1.287 . S
C1738 C1739 1.524 . S
C1738 H1757 0.913 . S
C1739 H1715 0.950 . S
C1739 C1738 1.524 . S
C1739 C1740 1.415 . S
C1740 H1716 0.950 . S
C1740 C1735 1.363 . S
C1740 C1739 1.415 . S
C1741 H1717 0.951 . S
C1741 C1742 1.366 . S
C1741 C1743 1.388 . S
C1742 C1741 1.366 . S
C1742 C1746 1.385 . S
C1743 H1718 0.951 . S
C1743 C1741 1.388 . S
C1743 C1744 1.366 . S
C1744 C1743 1.366 . S
C1744 C1745 1.414 . S
C1744 C1747 1.499 . S
C1745 H1719 0.950 . S
C1745 C1744 1.414 . S
C1745 C1746 1.374 . S
C1746 H1720 0.950 . S
C1746 C1742 1.385 . S
C1746 C1745 1.374 . S
C1747 C1744 1.499 . S
C1747 C1748 1.373 . S
C1747 C1749 1.389 . S
C1748 H1721 0.950 . S
C1748 C1734 1.377 . S
C1748 C1747 1.373 . S
C1749 C1733 1.377 . S
C1749 C1747 1.389 . S
C1749 C1750 1.524 . S
C1750 C1749 1.524 . S
C1750 C1751 1.397 . S
C1750 C1755 1.363 . S
C1751 H1722 0.950 . S
C1751 C1750 1.397 . S
C1751 C1752 1.334 . S
C1752 H1723 0.950 . S
C1752 C1751 1.334 . S
C1752 C1753 1.287 . S
C1753 C1752 1.287 . S
C1753 C1754 1.524 . S
C1753 H1756 0.999 . S
C1754 H1724 0.950 . S
C1754 C1753 1.524 . S
C1754 C1755 1.415 . S
C1755 H1725 0.950 . S
C1755 C1750 1.363 . S
C1755 C1754 1.415 . S
H1756 C1753 0.999 . S
H1757 C1738 0.913 . S
H1758 C1776 0.951 . S
H1759 C1778 0.951 . S
H1760 C1780 0.950 . S
H1761 C1781 0.950 . S
H1762 C1783 0.950 . S
H1763 C1786 0.950 . S
H1764 C1787 0.950 . S
H1765 C1789 0.950 . S
H1766 C1790 0.950 . S
H1767 C1791 0.951 . S
H1768 C1793 0.951 . S
H1769 C1795 0.950 . S
H1770 C1796 0.950 . S
H1771 C1798 0.950 . S
H1772 C1801 0.950 . S
H1773 C1802 0.950 . S
H1774 C1804 0.950 . S
H1775 C1805 0.950 . S
C1776 H1758 0.951 . S
C1776 C1777 1.366 . S
C1776 C1778 1.388 . S
C1777 C1776 1.366 . S
C1777 C1781 1.385 . S
C1778 H1759 0.951 . S
C1778 C1776 1.388 . S
C1778 C1779 1.366 . S
C1779 C1778 1.366 . S
C1779 C1780 1.414 . S
C1779 C1782 1.499 . S
C1780 H1760 0.950 . S
C1780 C1779 1.414 . S
C1780 C1781 1.374 . S
C1781 H1761 0.950 . S
C1781 C1777 1.385 . S
C1781 C1780 1.374 . S
C1782 C1779 1.499 . S
C1782 C1783 1.373 . S
C1782 C1784 1.389 . S
C1783 H1762 0.950 . S
C1783 C1782 1.373 . S
C1783 C1799 1.377 . S
C1784 C1782 1.389 . S
C1784 C1785 1.524 . S
C1784 C1798 1.377 . S
C1785 C1784 1.524 . S
C1785 C1786 1.397 . S
C1785 C1790 1.363 . S
C1786 H1763 0.950 . S
C1786 C1785 1.397 . S
C1786 C1787 1.334 . S
C1787 H1764 0.950 . S
C1787 C1786 1.334 . S
C1787 C1788 1.287 . S
C1788 C1787 1.287 . S
C1788 C1789 1.524 . S
C1788 H1807 0.913 . S
C1789 H1765 0.950 . S
C1789 C1788 1.524 . S
C1789 C1790 1.415 . S
C1790 H1766 0.950 . S
C1790 C1785 1.363 . S
C1790 C1789 1.415 . S
C1791 H1767 0.951 . S
C1791 C1792 1.366 . S
C1791 C1793 1.388 . S
C1792 C1791 1.366 . S
C1792 C1796 1.385 . S
C1793 H1768 0.951 . S
C1793 C1791 1.388 . S
C1793 C1794 1.366 . S
C1794 C1793 1.366 . S
C1794 C1795 1.414 . S
C1794 C1797 1.499 . S
C1795 H1769 0.950 . S
C1795 C1794 1.414 . S
C1795 C1796 1.374 . S
C1796 H1770 0.950 . S
C1796 C1792 1.385 . S
C1796 C1795 1.374 . S
C1797 C1794 1.499 . S
C1797 C1798 1.373 . S
C1797 C1799 1.389 . S
C1798 H1771 0.950 . S
C1798 C1784 1.377 . S
C1798 C1797 1.373 . S
C1799 C1783 1.377 . S
C1799 C1797 1.389 . S
C1799 C1800 1.524 . S
C1800 C1799 1.524 . S
C1800 C1801 1.397 . S
C1800 C1805 1.363 . S
C1801 H1772 0.950 . S
C1801 C1800 1.397 . S
C1801 C1802 1.334 . S
C1802 H1773 0.950 . S
C1802 C1801 1.334 . S
C1802 C1803 1.287 . S
C1803 C1802 1.287 . S
C1803 C1804 1.524 . S
C1803 H1806 0.999 . S
C1804 H1774 0.950 . S
C1804 C1803 1.524 . S
C1804 C1805 1.415 . S
C1805 H1775 0.950 . S
C1805 C1800 1.363 . S
C1805 C1804 1.415 . S
H1806 C1803 0.999 . S
H1807 C1788 0.913 . S
H1808 C1826 0.951 1_465 S
H1809 C1828 0.958 1_565 S
H1810 C1830 0.950 . S
H1811 C1831 0.950 . S
H1812 C1833 0.950 . S
H1813 C1836 0.950 . S
H1814 C1837 0.950 . S
H1815 C1839 0.950 1_565 S
H1816 C1840 0.950 1_565 S
H1817 C1841 0.951 1_655 S
H1818 C1843 0.958 . S
H1819 C1845 0.950 1_565 S
H1820 C1846 0.950 1_565 S
H1821 C1848 0.950 . S
H1822 C1851 0.950 1_565 S
H1823 C1852 0.950 1_565 S
H1824 C1854 0.950 . S
H1825 C1855 0.950 . S
C1826 H1808 0.951 1_645 S
C1826 C1827 1.366 . S
C1826 C1828 1.385 1_655 S
C1827 C1826 1.366 . S
C1827 C1831 1.385 . S
C1828 H1809 0.958 1_545 S
C1828 C1826 1.385 1_455 S
C1828 C1829 1.361 1_455 S
C1829 C1828 1.361 1_655 S
C1829 C1830 1.414 . S
C1829 C1832 1.499 . S
C1830 H1810 0.950 . S
C1830 C1829 1.414 . S
C1830 C1831 1.374 . S
C1831 H1811 0.950 . S
C1831 C1827 1.385 . S
C1831 C1830 1.374 . S
C1832 C1829 1.499 . S
C1832 C1833 1.373 . S
C1832 C1834 1.389 1_655 S
C1833 H1812 0.950 . S
C1833 C1832 1.373 . S
C1833 C1849 1.377 . S
C1834 C1832 1.389 1_455 S
C1834 C1835 1.524 . S
C1834 C1848 1.377 . S
C1835 C1834 1.524 . S
C1835 C1836 1.397 . S
C1835 C1840 1.363 . S
C1836 H1813 0.950 . S
C1836 C1835 1.397 . S
C1836 C1837 1.334 . S
C1837 H1814 0.950 . S
C1837 C1836 1.334 . S
C1837 C1838 1.287 . S
C1838 C1837 1.287 . S
C1838 C1839 1.524 . S
C1838 H1857 0.913 . S
C1839 H1815 0.950 1_545 S
C1839 C1838 1.524 . S
C1839 C1840 1.415 . S
C1840 H1816 0.950 1_545 S
C1840 C1835 1.363 . S
C1840 C1839 1.415 . S
C1841 H1817 0.951 1_455 S
C1841 C1842 1.366 . S
C1841 C1843 1.385 1_455 S
C1842 C1841 1.366 . S
C1842 C1846 1.385 . S
C1843 H1818 0.958 . S
C1843 C1841 1.385 1_655 S
C1843 C1844 1.361 1_655 S
C1844 C1843 1.361 1_455 S
C1844 C1845 1.414 . S
C1844 C1847 1.499 . S
C1845 H1819 0.950 1_545 S
C1845 C1844 1.414 . S
C1845 C1846 1.374 . S
C1846 H1820 0.950 1_545 S
C1846 C1842 1.385 . S
C1846 C1845 1.374 . S
C1847 C1844 1.499 . S
C1847 C1848 1.373 . S
C1847 C1849 1.389 1_455 S
C1848 H1821 0.950 . S
C1848 C1834 1.377 . S
C1848 C1847 1.373 . S
C1849 C1833 1.377 . S
C1849 C1847 1.389 1_655 S
C1849 C1850 1.524 . S
C1850 C1849 1.524 . S
C1850 C1851 1.397 . S
C1850 C1855 1.363 . S
C1851 H1822 0.950 1_545 S
C1851 C1850 1.397 . S
C1851 C1852 1.334 . S
C1852 H1823 0.950 1_545 S
C1852 C1851 1.334 . S
C1852 C1853 1.287 . S
C1853 C1852 1.287 . S
C1853 C1854 1.524 . S
C1853 H1856 0.999 . S
C1854 H1824 0.950 . S
C1854 C1853 1.524 . S
C1854 C1855 1.415 . S
C1855 H1825 0.950 . S
C1855 C1850 1.363 . S
C1855 C1854 1.415 . S
H1856 C1853 0.999 . S
H1857 C1838 0.913 . S
H1858 C1876 0.951 . S
H1859 C1878 0.951 . S
H1860 C1880 0.950 . S
H1861 C1881 0.950 . S
H1862 C1883 0.950 . S
H1863 C1886 0.950 . S
H1864 C1887 0.950 . S
H1865 C1889 0.950 . S
H1866 C1890 0.950 . S
H1867 C1891 0.951 . S
H1868 C1893 0.951 . S
H1869 C1895 0.950 . S
H1870 C1896 0.950 . S
H1871 C1898 0.950 1_545 S
H1872 C1901 0.950 . S
H1873 C1902 0.950 . S
H1874 C1904 0.950 . S
H1875 C1905 0.950 . S
C1876 H1858 0.951 . S
C1876 C1877 1.366 . S
C1876 C1878 1.388 . S
C1877 C1876 1.366 . S
C1877 C1881 1.385 . S
C1878 H1859 0.951 . S
C1878 C1876 1.388 . S
C1878 C1879 1.366 . S
C1879 C1878 1.366 . S
C1879 C1880 1.414 . S
C1879 C1882 1.499 . S
C1880 H1860 0.950 . S
C1880 C1879 1.414 . S
C1880 C1881 1.374 . S
C1881 H1861 0.950 . S
C1881 C1877 1.385 . S
C1881 C1880 1.374 . S
C1882 C1879 1.499 . S
C1882 C1883 1.373 . S
C1882 C1884 1.389 . S
C1883 H1862 0.950 . S
C1883 C1882 1.373 . S
C1883 C1899 1.377 . S
C1884 C1882 1.389 . S
C1884 C1885 1.524 1_565 S
C1884 C1898 1.377 . S
C1885 C1884 1.524 1_545 S
C1885 C1886 1.397 . S
C1885 C1890 1.363 . S
C1886 H1863 0.950 . S
C1886 C1885 1.397 . S
C1886 C1887 1.334 . S
C1887 H1864 0.950 . S
C1887 C1886 1.334 . S
C1887 C1888 1.287 . S
C1888 C1887 1.287 . S
C1888 C1889 1.524 . S
C1888 H1907 0.913 . S
C1889 H1865 0.950 . S
C1889 C1888 1.524 . S
C1889 C1890 1.415 . S
C1890 H1866 0.950 . S
C1890 C1885 1.363 . S
C1890 C1889 1.415 . S
C1891 H1867 0.951 . S
C1891 C1892 1.366 . S
C1891 C1893 1.388 . S
C1892 C1891 1.366 . S
C1892 C1896 1.385 . S
C1893 H1868 0.951 . S
C1893 C1891 1.388 . S
C1893 C1894 1.366 . S
C1894 C1893 1.366 . S
C1894 C1895 1.414 . S
C1894 C1897 1.499 . S
C1895 H1869 0.950 . S
C1895 C1894 1.414 . S
C1895 C1896 1.374 . S
C1896 H1870 0.950 . S
C1896 C1892 1.385 . S
C1896 C1895 1.374 . S
C1897 C1894 1.499 . S
C1897 C1898 1.373 . S
C1897 C1899 1.389 . S
C1898 H1871 0.950 1_565 S
C1898 C1884 1.377 . S
C1898 C1897 1.373 . S
C1899 C1883 1.377 . S
C1899 C1897 1.389 . S
C1899 C1900 1.524 . S
C1900 C1899 1.524 . S
C1900 C1901 1.397 . S
C1900 C1905 1.363 . S
C1901 H1872 0.950 . S
C1901 C1900 1.397 . S
C1901 C1902 1.334 . S
C1902 H1873 0.950 . S
C1902 C1901 1.334 . S
C1902 C1903 1.287 . S
C1903 C1902 1.287 . S
C1903 C1904 1.524 . S
C1903 H1906 0.999 . S
C1904 H1874 0.950 . S
C1904 C1903 1.524 . S
C1904 C1905 1.415 . S
C1905 H1875 0.950 . S
C1905 C1900 1.363 . S
C1905 C1904 1.415 . S
H1906 C1903 0.999 . S
H1907 C1888 0.913 . S
H1908 C1926 0.951 . S
H1909 C1928 0.951 . S
H1910 C1930 0.950 . S
H1911 C1931 0.950 . S
H1912 C1933 0.950 1_545 S
H1913 C1936 0.950 . S
H1914 C1937 0.950 . S
H1915 C1939 0.950 . S
H1916 C1940 0.950 . S
H1917 C1941 0.951 . S
H1918 C1943 0.951 . S
H1919 C1945 0.950 . S
H1920 C1946 0.950 . S
H1921 C1948 0.950 . S
H1922 C1951 0.950 . S
H1923 C1952 0.950 . S
H1924 C1954 0.950 . S
H1925 C1955 0.950 . S
C1926 H1908 0.951 . S
C1926 C1927 1.366 . S
C1926 C1928 1.388 . S
C1927 C1926 1.366 . S
C1927 C1931 1.385 1_455 S
C1928 H1909 0.951 . S
C1928 C1926 1.388 . S
C1928 C1929 1.366 . S
C1929 C1928 1.366 . S
C1929 C1930 1.414 1_455 S
C1929 C1932 1.499 . S
C1930 H1910 0.950 . S
C1930 C1929 1.414 1_655 S
C1930 C1931 1.374 . S
C1931 H1911 0.950 . S
C1931 C1927 1.385 1_655 S
C1931 C1930 1.374 . S
C1932 C1929 1.499 . S
C1932 C1933 1.373 1_455 S
C1932 C1934 1.389 . S
C1933 H1912 0.950 1_565 S
C1933 C1932 1.373 1_655 S
C1933 C1949 1.377 . S
C1934 C1932 1.389 . S
C1934 C1935 1.524 . S
C1934 C1948 1.377 . S
C1935 C1934 1.524 . S
C1935 C1936 1.397 1_455 S
C1935 C1940 1.363 . S
C1936 H1913 0.950 . S
C1936 C1935 1.397 1_655 S
C1936 C1937 1.334 . S
C1937 H1914 0.950 . S
C1937 C1936 1.334 . S
C1937 C1938 1.287 1_655 S
C1938 C1937 1.287 1_455 S
C1938 C1939 1.524 . S
C1938 H1957 0.913 . S
C1939 H1915 0.950 . S
C1939 C1938 1.524 . S
C1939 C1940 1.415 . S
C1940 H1916 0.950 . S
C1940 C1935 1.363 . S
C1940 C1939 1.415 . S
C1941 H1917 0.951 . S
C1941 C1942 1.366 . S
C1941 C1943 1.388 . S
C1942 C1941 1.366 . S
C1942 C1946 1.385 1_655 S
C1943 H1918 0.951 . S
C1943 C1941 1.388 . S
C1943 C1944 1.366 . S
C1944 C1943 1.366 . S
C1944 C1945 1.414 1_655 S
C1944 C1947 1.499 . S
C1945 H1919 0.950 . S
C1945 C1944 1.414 1_455 S
C1945 C1946 1.374 . S
C1946 H1920 0.950 . S
C1946 C1942 1.385 1_455 S
C1946 C1945 1.374 . S
C1947 C1944 1.499 . S
C1947 C1948 1.373 1_655 S
C1947 C1949 1.389 . S
C1948 H1921 0.950 . S
C1948 C1934 1.377 . S
C1948 C1947 1.373 1_455 S
C1949 C1933 1.377 . S
C1949 C1947 1.389 . S
C1949 C1950 1.524 1_565 S
C1950 C1949 1.524 1_545 S
C1950 C1951 1.397 1_655 S
C1950 C1955 1.363 . S
C1951 H1922 0.950 . S
C1951 C1950 1.397 1_455 S
C1951 C1952 1.334 . S
C1952 H1923 0.950 . S
C1952 C1951 1.334 . S
C1952 C1953 1.287 1_455 S
C1953 C1952 1.287 1_655 S
C1953 C1954 1.524 . S
C1953 H1956 0.999 . S
C1954 H1924 0.950 . S
C1954 C1953 1.524 . S
C1954 C1955 1.415 . S
C1955 H1925 0.950 . S
C1955 C1950 1.363 . S
C1955 C1954 1.415 . S
H1956 C1953 0.999 . S
H1957 C1938 0.913 . S
H1958 C1976 0.951 1_565 S
H1959 C1978 0.951 1_565 S
H1960 C1980 0.950 . S
H1961 C1981 0.950 . S
H1962 C1983 0.950 . S
H1963 C1986 0.950 1_545 S
H1964 C1987 0.950 . S
H1965 C1989 0.950 . S
H1966 C1990 0.950 . S
H1967 C1991 0.951 . S
H1968 C1993 0.951 . S
H1969 C1995 0.950 1_565 S
H1970 C1996 0.950 1_565 S
H1971 C1998 0.950 1_565 S
H1972 C2001 0.950 . S
H1973 C2002 0.950 . S
H1974 C2004 0.950 . S
H1975 C2005 0.950 . S
C1976 H1958 0.951 1_545 S
C1976 C1977 1.366 . S
C1976 C1978 1.388 . S
C1977 C1976 1.366 . S
C1977 C1981 1.385 . S
C1978 H1959 0.951 1_545 S
C1978 C1976 1.388 . S
C1978 C1979 1.366 . S
C1979 C1978 1.366 . S
C1979 C1980 1.414 . S
C1979 C1982 1.499 . S
C1980 H1960 0.950 . S
C1980 C1979 1.414 . S
C1980 C1981 1.374 . S
C1981 H1961 0.950 . S
C1981 C1977 1.385 . S
C1981 C1980 1.374 . S
C1982 C1979 1.499 . S
C1982 C1983 1.373 . S
C1982 C1984 1.389 . S
C1983 H1962 0.950 . S
C1983 C1982 1.373 . S
C1983 C1999 1.377 . S
C1984 C1982 1.389 . S
C1984 C1985 1.524 1_545 S
C1984 C1998 1.377 . S
C1985 C1984 1.524 1_565 S
C1985 C1986 1.397 . S
C1985 C1990 1.363 . S
C1986 H1963 0.950 1_565 S
C1986 C1985 1.397 . S
C1986 C1987 1.334 . S
C1987 H1964 0.950 . S
C1987 C1986 1.334 . S
C1987 C1988 1.287 . S
C1988 C1987 1.287 . S
C1988 C1989 1.524 . S
C1988 H2007 0.913 . S
C1989 H1965 0.950 . S
C1989 C1988 1.524 . S
C1989 C1990 1.415 . S
C1990 H1966 0.950 . S
C1990 C1985 1.363 . S
C1990 C1989 1.415 . S
C1991 H1967 0.951 . S
C1991 C1992 1.366 . S
C1991 C1993 1.388 . S
C1992 C1991 1.366 . S
C1992 C1996 1.385 . S
C1993 H1968 0.951 . S
C1993 C1991 1.388 . S
C1993 C1994 1.366 . S
C1994 C1993 1.366 . S
C1994 C1995 1.414 . S
C1994 C1997 1.499 . S
C1995 H1969 0.950 1_545 S
C1995 C1994 1.414 . S
C1995 C1996 1.374 . S
C1996 H1970 0.950 1_545 S
C1996 C1992 1.385 . S
C1996 C1995 1.374 . S
C1997 C1994 1.499 . S
C1997 C1998 1.373 . S
C1997 C1999 1.389 . S
C1998 H1971 0.950 1_545 S
C1998 C1984 1.377 . S
C1998 C1997 1.373 . S
C1999 C1983 1.377 . S
C1999 C1997 1.389 . S
C1999 C2000 1.524 . S
C2000 C1999 1.524 . S
C2000 C2001 1.397 . S
C2000 C2005 1.363 . S
C2001 H1972 0.950 . S
C2001 C2000 1.397 . S
C2001 C2002 1.334 . S
C2002 H1973 0.950 . S
C2002 C2001 1.334 . S
C2002 C2003 1.287 . S
C2003 C2002 1.287 . S
C2003 C2004 1.524 . S
C2003 H2006 0.999 . S
C2004 H1974 0.950 . S
C2004 C2003 1.524 . S
C2004 C2005 1.415 . S
C2005 H1975 0.950 . S
C2005 C2000 1.363 . S
C2005 C2004 1.415 . S
H2006 C2003 0.999 . S
H2007 C1988 0.913 . S
H2008 C2026 0.951 . S
H2009 C2028 0.951 . S
H2010 C2030 0.950 . S
H2011 C2031 0.950 . S
H2012 C2033 0.950 . S
H2013 C2036 0.950 . S
H2014 C2037 0.950 . S
H2015 C2039 0.950 . S
H2016 C2040 0.950 . S
H2017 C2041 0.951 . S
H2018 C2043 0.951 . S
H2019 C2045 0.950 . S
H2020 C2046 0.950 . S
H2021 C2048 0.950 . S
H2022 C2051 0.950 . S
H2023 C2052 0.950 . S
H2024 C2054 0.950 . S
H2025 C2055 0.950 . S
C2026 H2008 0.951 . S
C2026 C2027 1.366 . S
C2026 C2028 1.388 . S
C2027 C2026 1.366 . S
C2027 C2031 1.385 . S
C2028 H2009 0.951 . S
C2028 C2026 1.388 . S
C2028 C2029 1.366 . S
C2029 C2028 1.366 . S
C2029 C2030 1.414 . S
C2029 C2032 1.499 . S
C2030 H2010 0.950 . S
C2030 C2029 1.414 . S
C2030 C2031 1.374 . S
C2031 H2011 0.950 . S
C2031 C2027 1.385 . S
C2031 C2030 1.374 . S
C2032 C2029 1.499 . S
C2032 C2033 1.373 . S
C2032 C2034 1.389 . S
C2033 H2012 0.950 . S
C2033 C2032 1.373 . S
C2033 C2049 1.377 . S
C2034 C2032 1.389 . S
C2034 C2035 1.524 . S
C2034 C2048 1.377 . S
C2035 C2034 1.524 . S
C2035 C2036 1.397 . S
C2035 C2040 1.363 . S
C2036 H2013 0.950 . S
C2036 C2035 1.397 . S
C2036 C2037 1.334 . S
C2037 H2014 0.950 . S
C2037 C2036 1.334 . S
C2037 C2038 1.287 . S
C2038 C2037 1.287 . S
C2038 C2039 1.524 . S
C2038 H2057 0.913 . S
C2039 H2015 0.950 . S
C2039 C2038 1.524 . S
C2039 C2040 1.415 . S
C2040 H2016 0.950 . S
C2040 C2035 1.363 . S
C2040 C2039 1.415 . S
C2041 H2017 0.951 . S
C2041 C2042 1.366 . S
C2041 C2043 1.388 . S
C2042 C2041 1.366 . S
C2042 C2046 1.385 . S
C2043 H2018 0.951 . S
C2043 C2041 1.388 . S
C2043 C2044 1.366 . S
C2044 C2043 1.366 . S
C2044 C2045 1.414 . S
C2044 C2047 1.499 . S
C2045 H2019 0.950 . S
C2045 C2044 1.414 . S
C2045 C2046 1.374 . S
C2046 H2020 0.950 . S
C2046 C2042 1.385 . S
C2046 C2045 1.374 . S
C2047 C2044 1.499 . S
C2047 C2048 1.373 . S
C2047 C2049 1.389 . S
C2048 H2021 0.950 . S
C2048 C2034 1.377 . S
C2048 C2047 1.373 . S
C2049 C2033 1.377 . S
C2049 C2047 1.389 . S
C2049 C2050 1.524 . S
C2050 C2049 1.524 . S
C2050 C2051 1.397 . S
C2050 C2055 1.363 . S
C2051 H2022 0.950 . S
C2051 C2050 1.397 . S
C2051 C2052 1.334 . S
C2052 H2023 0.950 . S
C2052 C2051 1.334 . S
C2052 C2053 1.287 . S
C2053 C2052 1.287 . S
C2053 C2054 1.524 . S
C2053 H2056 0.999 . S
C2054 H2024 0.950 . S
C2054 C2053 1.524 . S
C2054 C2055 1.415 . S
C2055 H2025 0.950 . S
C2055 C2050 1.363 . S
C2055 C2054 1.415 . S
H2056 C2053 0.999 . S
H2057 C2038 0.913 . S
H2058 C2076 0.951 . S
H2059 C2078 0.951 . S
H2060 C2080 0.950 . S
H2061 C2081 0.950 . S
H2062 C2083 0.950 . S
H2063 C2086 0.950 . S
H2064 C2087 0.950 . S
H2065 C2089 0.950 . S
H2066 C2090 0.950 . S
H2067 C2091 0.951 . S
H2068 C2093 0.951 . S
H2069 C2095 0.950 . S
H2070 C2096 0.950 . S
H2071 C2098 0.950 . S
H2072 C2101 0.950 . S
H2073 C2102 0.950 . S
H2074 C2104 0.950 . S
H2075 C2105 0.950 . S
C2076 H2058 0.951 . S
C2076 C2077 1.366 1_655 S
C2076 C2078 1.388 . S
C2077 C2076 1.366 1_455 S
C2077 C2081 1.385 . S
C2078 H2059 0.951 . S
C2078 C2076 1.388 . S
C2078 C2079 1.366 1_655 S
C2079 C2078 1.366 1_455 S
C2079 C2080 1.414 . S
C2079 C2082 1.499 . S
C2080 H2060 0.950 . S
C2080 C2079 1.414 . S
C2080 C2081 1.374 . S
C2081 H2061 0.950 . S
C2081 C2077 1.385 . S
C2081 C2080 1.374 . S
C2082 C2079 1.499 . S
C2082 C2083 1.373 . S
C2082 C2084 1.389 1_455 S
C2083 H2062 0.950 . S
C2083 C2082 1.373 . S
C2083 C2099 1.377 . S
C2084 C2082 1.389 1_655 S
C2084 C2085 1.524 . S
C2084 C2098 1.377 . S
C2085 C2084 1.524 . S
C2085 C2086 1.397 1_655 S
C2085 C2090 1.363 . S
C2086 H2063 0.950 . S
C2086 C2085 1.397 1_455 S
C2086 C2087 1.334 . S
C2087 H2064 0.950 . S
C2087 C2086 1.334 . S
C2087 C2088 1.289 1_455 S
C2088 C2087 1.289 1_655 S
C2088 C2089 1.521 . S
C2088 H2107 0.913 1_655 S
C2089 H2065 0.950 . S
C2089 C2088 1.521 . S
C2089 C2090 1.415 . S
C2090 H2066 0.950 . S
C2090 C2085 1.363 . S
C2090 C2089 1.415 . S
C2091 H2067 0.951 . S
C2091 C2092 1.366 1_455 S
C2091 C2093 1.388 . S
C2092 C2091 1.366 1_655 S
C2092 C2096 1.385 . S
C2093 H2068 0.951 . S
C2093 C2091 1.388 . S
C2093 C2094 1.366 1_455 S
C2094 C2093 1.366 1_655 S
C2094 C2095 1.414 . S
C2094 C2097 1.499 . S
C2095 H2069 0.950 . S
C2095 C2094 1.414 . S
C2095 C2096 1.374 . S
C2096 H2070 0.950 . S
C2096 C2092 1.385 . S
C2096 C2095 1.374 . S
C2097 C2094 1.499 . S
C2097 C2098 1.373 . S
C2097 C2099 1.389 1_655 S
C2098 H2071 0.950 . S
C2098 C2084 1.377 . S
C2098 C2097 1.373 . S
C2099 C2083 1.377 . S
C2099 C2097 1.389 1_455 S
C2099 C2100 1.524 . S
C2100 C2099 1.524 . S
C2100 C2101 1.397 1_455 S
C2100 C2105 1.363 . S
C2101 H2072 0.950 . S
C2101 C2100 1.397 1_655 S
C2101 C2102 1.334 . S
C2102 H2073 0.950 . S
C2102 C2101 1.334 . S
C2102 C2103 1.289 1_655 S
C2103 C2102 1.289 1_455 S
C2103 C2104 1.521 . S
C2103 H2106 0.999 . S
C2104 H2074 0.950 . S
C2104 C2103 1.521 . S
C2104 C2105 1.415 . S
C2105 H2075 0.950 . S
C2105 C2100 1.363 . S
C2105 C2104 1.415 . S
H2106 C2103 0.999 . S
H2107 C2088 0.913 1_455 S
H2108 C2126 0.951 . S
H2109 C2128 0.951 . S
H2110 C2130 0.950 . S
H2111 C2131 0.950 . S
H2112 C2133 0.950 . S
H2113 C2136 0.950 . S
H2114 C2137 0.950 . S
H2115 C2139 0.950 . S
H2116 C2140 0.950 . S
H2117 C2141 0.951 . S
H2118 C2143 0.951 . S
H2119 C2145 0.950 . S
H2120 C2146 0.950 . S
H2121 C2148 0.950 . S
H2122 C2151 0.950 . S
H2123 C2152 0.950 . S
H2124 C2154 0.950 . S
H2125 C2155 0.950 . S
C2126 H2108 0.951 . S
C2126 C2127 1.366 . S
C2126 C2128 1.388 . S
C2127 C2126 1.366 . S
C2127 C2131 1.385 . S
C2128 H2109 0.951 . S
C2128 C2126 1.388 . S
C2128 C2129 1.366 . S
C2129 C2128 1.366 . S
C2129 C2130 1.414 . S
C2129 C2132 1.499 . S
C2130 H2110 0.950 . S
C2130 C2129 1.414 . S
C2130 C2131 1.374 . S
C2131 H2111 0.950 . S
C2131 C2127 1.385 . S
C2131 C2130 1.374 . S
C2132 C2129 1.499 . S
C2132 C2133 1.373 . S
C2132 C2134 1.389 . S
C2133 H2112 0.950 . S
C2133 C2132 1.373 . S
C2133 C2149 1.377 . S
C2134 C2132 1.389 . S
C2134 C2135 1.524 . S
C2134 C2148 1.377 . S
C2135 C2134 1.524 . S
C2135 C2136 1.397 . S
C2135 C2140 1.363 . S
C2136 H2113 0.950 . S
C2136 C2135 1.397 . S
C2136 C2137 1.334 . S
C2137 H2114 0.950 . S
C2137 C2136 1.334 . S
C2137 C2138 1.287 . S
C2138 C2137 1.287 . S
C2138 C2139 1.524 . S
C2138 H2157 0.913 . S
C2139 H2115 0.950 . S
C2139 C2138 1.524 . S
C2139 C2140 1.415 . S
C2140 H2116 0.950 . S
C2140 C2135 1.363 . S
C2140 C2139 1.415 . S
C2141 H2117 0.951 . S
C2141 C2142 1.366 . S
C2141 C2143 1.388 . S
C2142 C2141 1.366 . S
C2142 C2146 1.385 . S
C2143 H2118 0.951 . S
C2143 C2141 1.388 . S
C2143 C2144 1.366 . S
C2144 C2143 1.366 . S
C2144 C2145 1.414 . S
C2144 C2147 1.499 . S
C2145 H2119 0.950 . S
C2145 C2144 1.414 . S
C2145 C2146 1.374 . S
C2146 H2120 0.950 . S
C2146 C2142 1.385 . S
C2146 C2145 1.374 . S
C2147 C2144 1.499 . S
C2147 C2148 1.373 . S
C2147 C2149 1.389 . S
C2148 H2121 0.950 . S
C2148 C2134 1.377 . S
C2148 C2147 1.373 . S
C2149 C2133 1.377 . S
C2149 C2147 1.389 . S
C2149 C2150 1.524 . S
C2150 C2149 1.524 . S
C2150 C2151 1.397 . S
C2150 C2155 1.363 . S
C2151 H2122 0.950 . S
C2151 C2150 1.397 . S
C2151 C2152 1.334 . S
C2152 H2123 0.950 . S
C2152 C2151 1.334 . S
C2152 C2153 1.287 . S
C2153 C2152 1.287 . S
C2153 C2154 1.524 . S
C2153 H2156 0.999 . S
C2154 H2124 0.950 . S
C2154 C2153 1.524 . S
C2154 C2155 1.415 . S
C2155 H2125 0.950 . S
C2155 C2150 1.363 . S
C2155 C2154 1.415 . S
H2156 C2153 0.999 . S
H2157 C2138 0.913 . S
H2158 C2176 0.929 1_655 S
H2159 C2178 0.951 . S
H2160 C2180 0.950 . S
H2161 C2181 0.950 . S
H2162 C2183 0.950 . S
H2163 C2186 0.950 . S
H2164 C2187 0.950 . S
H2165 C2189 0.950 . S
H2166 C2190 0.950 . S
H2167 C2191 0.929 1_455 S
H2168 C2193 0.951 . S
H2169 C2195 0.950 . S
H2170 C2196 0.950 . S
H2171 C2198 0.950 . S
H2172 C2201 0.950 . S
H2173 C2202 0.950 . S
H2174 C2204 0.950 . S
H2175 C2205 0.950 . S
C2176 H2158 0.929 1_455 S
C2176 C2177 1.396 . S
C2176 C2178 1.382 1_455 S
C2177 C2176 1.396 . S
C2177 C2181 1.385 . S
C2178 H2159 0.951 . S
C2178 C2176 1.382 1_655 S
C2178 C2179 1.366 1_655 S
C2179 C2178 1.366 1_455 S
C2179 C2180 1.414 . S
C2179 C2182 1.499 . S
C2180 H2160 0.950 . S
C2180 C2179 1.414 . S
C2180 C2181 1.374 . S
C2181 H2161 0.950 . S
C2181 C2177 1.385 . S
C2181 C2180 1.374 . S
C2182 C2179 1.499 . S
C2182 C2183 1.373 . S
C2182 C2184 1.389 . S
C2183 H2162 0.950 . S
C2183 C2182 1.373 . S
C2183 C2199 1.377 1_455 S
C2184 C2182 1.389 . S
C2184 C2185 1.524 . S
C2184 C2198 1.377 1_455 S
C2185 C2184 1.524 . S
C2185 C2186 1.397 . S
C2185 C2190 1.363 1_455 S
C2186 H2163 0.950 . S
C2186 C2185 1.397 . S
C2186 C2187 1.334 . S
C2187 H2164 0.950 . S
C2187 C2186 1.334 . S
C2187 C2188 1.287 . S
C2188 C2187 1.287 . S
C2188 C2189 1.524 1_455 S
C2188 H2207 0.913 . S
C2189 H2165 0.950 . S
C2189 C2188 1.524 1_655 S
C2189 C2190 1.415 . S
C2190 H2166 0.950 . S
C2190 C2185 1.363 1_655 S
C2190 C2189 1.415 . S
C2191 H2167 0.929 1_655 S
C2191 C2192 1.396 . S
C2191 C2193 1.382 1_655 S
C2192 C2191 1.396 . S
C2192 C2196 1.385 . S
C2193 H2168 0.951 . S
C2193 C2191 1.382 1_455 S
C2193 C2194 1.366 1_455 S
C2194 C2193 1.366 1_655 S
C2194 C2195 1.414 . S
C2194 C2197 1.499 . S
C2195 H2169 0.950 . S
C2195 C2194 1.414 . S
C2195 C2196 1.374 . S
C2196 H2170 0.950 . S
C2196 C2192 1.385 . S
C2196 C2195 1.374 . S
C2197 C2194 1.499 . S
C2197 C2198 1.373 . S
C2197 C2199 1.389 . S
C2198 H2171 0.950 . S
C2198 C2184 1.377 1_655 S
C2198 C2197 1.373 . S
C2199 C2183 1.377 1_655 S
C2199 C2197 1.389 . S
C2199 C2200 1.524 . S
C2200 C2199 1.524 . S
C2200 C2201 1.397 . S
C2200 C2205 1.363 1_655 S
C2201 H2172 0.950 . S
C2201 C2200 1.397 . S
C2201 C2202 1.334 . S
C2202 H2173 0.950 . S
C2202 C2201 1.334 . S
C2202 C2203 1.287 . S
C2203 C2202 1.287 . S
C2203 C2204 1.524 1_655 S
C2203 H2206 0.999 . S
C2204 H2174 0.950 . S
C2204 C2203 1.524 1_455 S
C2204 C2205 1.415 . S
C2205 H2175 0.950 . S
C2205 C2200 1.363 1_455 S
C2205 C2204 1.415 . S
H2206 C2203 0.999 . S
H2207 C2188 0.913 . S
H2208 C2226 0.951 . S
H2209 C2228 0.951 . S
H2210 C2230 0.950 1_655 S
H2211 C2231 0.950 . S
H2212 C2233 0.950 . S
H2213 C2236 0.950 . S
H2214 C2237 0.950 . S
H2215 C2239 0.950 . S
H2216 C2240 0.950 . S
H2217 C2241 0.951 . S
H2218 C2243 0.951 . S
H2219 C2245 0.950 1_455 S
H2220 C2246 0.950 . S
H2221 C2248 0.950 . S
H2222 C2251 0.950 . S
H2223 C2252 0.950 . S
H2224 C2254 0.950 . S
H2225 C2255 0.950 . S
C2226 H2208 0.951 . S
C2226 C2227 1.366 . S
C2226 C2228 1.388 . S
C2227 C2226 1.366 . S
C2227 C2231 1.385 . S
C2228 H2209 0.951 . S
C2228 C2226 1.388 . S
C2228 C2229 1.366 . S
C2229 C2228 1.366 . S
C2229 C2230 1.414 . S
C2229 C2232 1.499 . S
C2230 H2210 0.950 1_455 S
C2230 C2229 1.414 . S
C2230 C2231 1.374 . S
C2231 H2211 0.950 . S
C2231 C2227 1.385 . S
C2231 C2230 1.374 . S
C2232 C2229 1.499 . S
C2232 C2233 1.373 1_455 S
C2232 C2234 1.389 . S
C2233 H2212 0.950 . S
C2233 C2232 1.373 1_655 S
C2233 C2249 1.377 . S
C2234 C2232 1.389 . S
C2234 C2235 1.524 . S
C2234 C2248 1.377 . S
C2235 C2234 1.524 . S
C2235 C2236 1.397 . S
C2235 C2240 1.363 . S
C2236 H2213 0.950 . S
C2236 C2235 1.397 . S
C2236 C2237 1.334 . S
C2237 H2214 0.950 . S
C2237 C2236 1.334 . S
C2237 C2238 1.287 . S
C2238 C2237 1.287 . S
C2238 C2239 1.524 . S
C2238 H2257 0.913 . S
C2239 H2215 0.950 . S
C2239 C2238 1.524 . S
C2239 C2240 1.415 . S
C2240 H2216 0.950 . S
C2240 C2235 1.363 . S
C2240 C2239 1.415 . S
C2241 H2217 0.951 . S
C2241 C2242 1.366 . S
C2241 C2243 1.388 . S
C2242 C2241 1.366 . S
C2242 C2246 1.385 . S
C2243 H2218 0.951 . S
C2243 C2241 1.388 . S
C2243 C2244 1.366 . S
C2244 C2243 1.366 . S
C2244 C2245 1.414 . S
C2244 C2247 1.499 . S
C2245 H2219 0.950 1_655 S
C2245 C2244 1.414 . S
C2245 C2246 1.374 . S
C2246 H2220 0.950 . S
C2246 C2242 1.385 . S
C2246 C2245 1.374 . S
C2247 C2244 1.499 . S
C2247 C2248 1.373 1_655 S
C2247 C2249 1.389 . S
C2248 H2221 0.950 . S
C2248 C2234 1.377 . S
C2248 C2247 1.373 1_455 S
C2249 C2233 1.377 . S
C2249 C2247 1.389 . S
C2249 C2250 1.524 . S
C2250 C2249 1.524 . S
C2250 C2251 1.397 . S
C2250 C2255 1.363 . S
C2251 H2222 0.950 . S
C2251 C2250 1.397 . S
C2251 C2252 1.334 . S
C2252 H2223 0.950 . S
C2252 C2251 1.334 . S
C2252 C2253 1.287 . S
C2253 C2252 1.287 . S
C2253 C2254 1.524 . S
C2253 H2256 0.999 . S
C2254 H2224 0.950 . S
C2254 C2253 1.524 . S
C2254 C2255 1.415 . S
C2255 H2225 0.950 . S
C2255 C2250 1.363 . S
C2255 C2254 1.415 . S
H2256 C2253 0.999 . S
H2257 C2238 0.913 . S
H2258 C2276 0.951 . S
H2259 C2278 0.951 . S
H2260 C2280 0.950 . S
H2261 C2281 0.950 . S
H2262 C2283 0.950 . S
H2263 C2286 0.950 . S
H2264 C2287 0.950 . S
H2265 C2289 0.950 . S
H2266 C2290 0.950 . S
H2267 C2291 0.951 . S
H2268 C2293 0.951 . S
H2269 C2295 0.950 . S
H2270 C2296 0.950 . S
H2271 C2298 0.950 . S
H2272 C2301 0.950 . S
H2273 C2302 0.950 . S
H2274 C2304 0.950 . S
H2275 C2305 0.950 . S
C2276 H2258 0.951 . S
C2276 C2277 1.366 . S
C2276 C2278 1.388 . S
C2277 C2276 1.366 . S
C2277 C2281 1.385 . S
C2278 H2259 0.951 . S
C2278 C2276 1.388 . S
C2278 C2279 1.366 . S
C2279 C2278 1.366 . S
C2279 C2280 1.414 . S
C2279 C2282 1.499 . S
C2280 H2260 0.950 . S
C2280 C2279 1.414 . S
C2280 C2281 1.374 . S
C2281 H2261 0.950 . S
C2281 C2277 1.385 . S
C2281 C2280 1.374 . S
C2282 C2279 1.499 . S
C2282 C2283 1.373 . S
C2282 C2284 1.389 . S
C2283 H2262 0.950 . S
C2283 C2282 1.373 . S
C2283 C2299 1.377 . S
C2284 C2282 1.389 . S
C2284 C2285 1.524 . S
C2284 C2298 1.377 . S
C2285 C2284 1.524 . S
C2285 C2286 1.397 . S
C2285 C2290 1.363 . S
C2286 H2263 0.950 . S
C2286 C2285 1.397 . S
C2286 C2287 1.334 . S
C2287 H2264 0.950 . S
C2287 C2286 1.334 . S
C2287 C2288 1.287 . S
C2288 C2287 1.287 . S
C2288 C2289 1.524 . S
C2288 H2307 0.913 . S
C2289 H2265 0.950 . S
C2289 C2288 1.524 . S
C2289 C2290 1.415 . S
C2290 H2266 0.950 . S
C2290 C2285 1.363 . S
C2290 C2289 1.415 . S
C2291 H2267 0.951 . S
C2291 C2292 1.366 . S
C2291 C2293 1.388 . S
C2292 C2291 1.366 . S
C2292 C2296 1.385 . S
C2293 H2268 0.951 . S
C2293 C2291 1.388 . S
C2293 C2294 1.366 . S
C2294 C2293 1.366 . S
C2294 C2295 1.414 . S
C2294 C2297 1.499 . S
C2295 H2269 0.950 . S
C2295 C2294 1.414 . S
C2295 C2296 1.374 . S
C2296 H2270 0.950 . S
C2296 C2292 1.385 . S
C2296 C2295 1.374 . S
C2297 C2294 1.499 . S
C2297 C2298 1.373 . S
C2297 C2299 1.389 . S
C2298 H2271 0.950 . S
C2298 C2284 1.377 . S
C2298 C2297 1.373 . S
C2299 C2283 1.377 . S
C2299 C2297 1.389 . S
C2299 C2300 1.524 . S
C2300 C2299 1.524 . S
C2300 C2301 1.397 . S
C2300 C2305 1.363 . S
C2301 H2272 0.950 . S
C2301 C2300 1.397 . S
C2301 C2302 1.334 . S
C2302 H2273 0.950 . S
C2302 C2301 1.334 . S
C2302 C2303 1.287 . S
C2303 C2302 1.287 . S
C2303 C2304 1.524 . S
C2303 H2306 0.999 . S
C2304 H2274 0.950 . S
C2304 C2303 1.524 . S
C2304 C2305 1.415 . S
C2305 H2275 0.950 . S
C2305 C2300 1.363 . S
C2305 C2304 1.415 . S
H2306 C2303 0.999 . S
H2307 C2288 0.913 . S
H2308 C2326 0.951 . S
H2309 C2328 0.951 . S
H2310 C2330 0.950 . S
H2311 C2331 0.950 . S
H2312 C2333 0.950 . S
H2313 C2336 0.950 . S
H2314 C2337 0.950 . S
H2315 C2339 0.950 . S
H2316 C2340 0.950 . S
H2317 C2341 0.951 . S
H2318 C2343 0.951 . S
H2319 C2345 0.950 . S
H2320 C2346 0.950 . S
H2321 C2348 0.950 . S
H2322 C2351 0.950 . S
H2323 C2352 0.950 . S
H2324 C2354 0.950 . S
H2325 C2355 0.950 . S
C2326 H2308 0.951 . S
C2326 C2327 1.366 . S
C2326 C2328 1.388 . S
C2327 C2326 1.366 . S
C2327 C2331 1.385 . S
C2328 H2309 0.951 . S
C2328 C2326 1.388 . S
C2328 C2329 1.366 . S
C2329 C2328 1.366 . S
C2329 C2330 1.414 . S
C2329 C2332 1.499 . S
C2330 H2310 0.950 . S
C2330 C2329 1.414 . S
C2330 C2331 1.374 . S
C2331 H2311 0.950 . S
C2331 C2327 1.385 . S
C2331 C2330 1.374 . S
C2332 C2329 1.499 . S
C2332 C2333 1.373 . S
C2332 C2334 1.389 . S
C2333 H2312 0.950 . S
C2333 C2332 1.373 . S
C2333 C2349 1.377 . S
C2334 C2332 1.389 . S
C2334 C2335 1.524 . S
C2334 C2348 1.377 . S
C2335 C2334 1.524 . S
C2335 C2336 1.397 . S
C2335 C2340 1.363 . S
C2336 H2313 0.950 . S
C2336 C2335 1.397 . S
C2336 C2337 1.334 . S
C2337 H2314 0.950 . S
C2337 C2336 1.334 . S
C2337 C2338 1.287 . S
C2338 C2337 1.287 . S
C2338 C2339 1.524 . S
C2338 H2357 0.913 . S
C2339 H2315 0.950 . S
C2339 C2338 1.524 . S
C2339 C2340 1.415 . S
C2340 H2316 0.950 . S
C2340 C2335 1.363 . S
C2340 C2339 1.415 . S
C2341 H2317 0.951 . S
C2341 C2342 1.366 . S
C2341 C2343 1.388 . S
C2342 C2341 1.366 . S
C2342 C2346 1.385 . S
C2343 H2318 0.951 . S
C2343 C2341 1.388 . S
C2343 C2344 1.366 . S
C2344 C2343 1.366 . S
C2344 C2345 1.414 . S
C2344 C2347 1.499 . S
C2345 H2319 0.950 . S
C2345 C2344 1.414 . S
C2345 C2346 1.374 . S
C2346 H2320 0.950 . S
C2346 C2342 1.385 . S
C2346 C2345 1.374 . S
C2347 C2344 1.499 . S
C2347 C2348 1.373 . S
C2347 C2349 1.389 . S
C2348 H2321 0.950 . S
C2348 C2334 1.377 . S
C2348 C2347 1.373 . S
C2349 C2333 1.377 . S
C2349 C2347 1.389 . S
C2349 C2350 1.524 . S
C2350 C2349 1.524 . S
C2350 C2351 1.397 . S
C2350 C2355 1.363 . S
C2351 H2322 0.950 . S
C2351 C2350 1.397 . S
C2351 C2352 1.334 . S
C2352 H2323 0.950 . S
C2352 C2351 1.334 . S
C2352 C2353 1.287 . S
C2353 C2352 1.287 . S
C2353 C2354 1.524 . S
C2353 H2356 0.999 . S
C2354 H2324 0.950 . S
C2354 C2353 1.524 . S
C2354 C2355 1.415 . S
C2355 H2325 0.950 . S
C2355 C2350 1.363 . S
C2355 C2354 1.415 . S
H2356 C2353 0.999 . S
H2357 C2338 0.913 . S
H2358 C2376 0.951 . S
H2359 C2378 0.951 1_655 S
H2360 C2380 0.950 . S
H2361 C2381 0.950 . S
H2362 C2383 0.950 . S
H2363 C2386 0.906 1_455 S
H2364 C2387 0.950 . S
H2365 C2389 0.950 . S
H2366 C2390 0.950 . S
H2367 C2391 0.951 . S
H2368 C2393 0.951 1_455 S
H2369 C2395 0.950 . S
H2370 C2396 0.950 . S
H2371 C2398 0.950 . S
H2372 C2401 0.906 1_655 S
H2373 C2402 0.950 . S
H2374 C2404 0.950 . S
H2375 C2405 0.950 . S
C2376 H2358 0.951 . S
C2376 C2377 1.366 . S
C2376 C2378 1.388 . S
C2377 C2376 1.366 . S
C2377 C2381 1.385 . S
C2378 H2359 0.951 1_455 S
C2378 C2376 1.388 . S
C2378 C2379 1.366 . S
C2379 C2378 1.366 . S
C2379 C2380 1.414 . S
C2379 C2382 1.499 . S
C2380 H2360 0.950 . S
C2380 C2379 1.414 . S
C2380 C2381 1.374 . S
C2381 H2361 0.950 . S
C2381 C2377 1.385 . S
C2381 C2380 1.374 . S
C2382 C2379 1.499 . S
C2382 C2383 1.373 . S
C2382 C2384 1.389 1_455 S
C2383 H2362 0.950 . S
C2383 C2382 1.373 . S
C2383 C2399 1.377 . S
C2384 C2382 1.389 1_655 S
C2384 C2385 1.524 . S
C2384 C2398 1.377 . S
C2385 C2384 1.524 . S
C2385 C2386 1.397 . S
C2385 C2390 1.363 . S
C2386 H2363 0.906 1_655 S
C2386 C2385 1.397 . S
C2386 C2387 1.334 . S
C2387 H2364 0.950 . S
C2387 C2386 1.334 . S
C2387 C2388 1.287 . S
C2388 C2387 1.287 . S
C2388 C2389 1.524 . S
C2388 H2407 0.913 . S
C2389 H2365 0.950 . S
C2389 C2388 1.524 . S
C2389 C2390 1.415 . S
C2390 H2366 0.950 . S
C2390 C2385 1.363 . S
C2390 C2389 1.415 . S
C2391 H2367 0.951 . S
C2391 C2392 1.366 . S
C2391 C2393 1.388 . S
C2392 C2391 1.366 . S
C2392 C2396 1.385 . S
C2393 H2368 0.951 1_655 S
C2393 C2391 1.388 . S
C2393 C2394 1.366 . S
C2394 C2393 1.366 . S
C2394 C2395 1.414 . S
C2394 C2397 1.499 . S
C2395 H2369 0.950 . S
C2395 C2394 1.414 . S
C2395 C2396 1.374 . S
C2396 H2370 0.950 . S
C2396 C2392 1.385 . S
C2396 C2395 1.374 . S
C2397 C2394 1.499 . S
C2397 C2398 1.373 . S
C2397 C2399 1.389 1_655 S
C2398 H2371 0.950 . S
C2398 C2384 1.377 . S
C2398 C2397 1.373 . S
C2399 C2383 1.377 . S
C2399 C2397 1.389 1_455 S
C2399 C2400 1.524 . S
C2400 C2399 1.524 . S
C2400 C2401 1.397 . S
C2400 C2405 1.363 . S
C2401 H2372 0.906 1_455 S
C2401 C2400 1.397 . S
C2401 C2402 1.334 . S
C2402 H2373 0.950 . S
C2402 C2401 1.334 . S
C2402 C2403 1.287 . S
C2403 C2402 1.287 . S
C2403 C2404 1.524 . S
C2403 H2406 0.999 . S
C2404 H2374 0.950 . S
C2404 C2403 1.524 . S
C2404 C2405 1.415 . S
C2405 H2375 0.950 . S
C2405 C2400 1.363 . S
C2405 C2404 1.415 . S
H2406 C2403 0.999 . S
H2407 C2388 0.913 . S
H2408 C2426 0.951 . S
H2409 C2428 0.951 1_655 S
H2410 C2430 0.950 . S
H2411 C2431 0.950 . S
H2412 C2433 0.950 . S
H2413 C2436 0.895 1_455 S
H2414 C2437 0.950 1_455 S
H2415 C2439 0.950 . S
H2416 C2440 0.950 . S
H2417 C2441 0.951 . S
H2418 C2443 0.951 1_455 S
H2419 C2445 0.950 . S
H2420 C2446 0.950 . S
H2421 C2448 0.950 . S
H2422 C2451 0.895 1_655 S
H2423 C2452 0.950 1_655 S
H2424 C2454 0.950 . S
H2425 C2455 0.950 . S
C2426 H2408 0.951 . S
C2426 C2427 1.366 . S
C2426 C2428 1.388 . S
C2427 C2426 1.366 . S
C2427 C2431 1.385 . S
C2428 H2409 0.951 1_455 S
C2428 C2426 1.388 . S
C2428 C2429 1.366 . S
C2429 C2428 1.366 . S
C2429 C2430 1.414 . S
C2429 C2432 1.499 . S
C2430 H2410 0.950 . S
C2430 C2429 1.414 . S
C2430 C2431 1.374 . S
C2431 H2411 0.950 . S
C2431 C2427 1.385 . S
C2431 C2430 1.374 . S
C2432 C2429 1.499 . S
C2432 C2433 1.373 . S
C2432 C2434 1.389 1_455 S
C2433 H2412 0.950 . S
C2433 C2432 1.373 . S
C2433 C2449 1.377 . S
C2434 C2432 1.389 1_655 S
C2434 C2435 1.524 . S
C2434 C2448 1.377 . S
C2435 C2434 1.524 . S
C2435 C2436 1.435 . S
C2435 C2440 1.363 . S
C2436 H2413 0.895 1_655 S
C2436 C2435 1.435 . S
C2436 C2437 1.351 . S
C2437 H2414 0.950 1_655 S
C2437 C2436 1.351 . S
C2437 C2438 1.287 . S
C2438 C2437 1.287 . S
C2438 C2439 1.524 . S
C2438 H2457 0.913 . S
C2439 H2415 0.950 . S
C2439 C2438 1.524 . S
C2439 C2440 1.415 . S
C2440 H2416 0.950 . S
C2440 C2435 1.363 . S
C2440 C2439 1.415 . S
C2441 H2417 0.951 . S
C2441 C2442 1.366 . S
C2441 C2443 1.388 . S
C2442 C2441 1.366 . S
C2442 C2446 1.385 . S
C2443 H2418 0.951 1_655 S
C2443 C2441 1.388 . S
C2443 C2444 1.366 . S
C2444 C2443 1.366 . S
C2444 C2445 1.414 . S
C2444 C2447 1.499 . S
C2445 H2419 0.950 . S
C2445 C2444 1.414 . S
C2445 C2446 1.374 . S
C2446 H2420 0.950 . S
C2446 C2442 1.385 . S
C2446 C2445 1.374 . S
C2447 C2444 1.499 . S
C2447 C2448 1.373 . S
C2447 C2449 1.389 1_655 S
C2448 H2421 0.950 . S
C2448 C2434 1.377 . S
C2448 C2447 1.373 . S
C2449 C2433 1.377 . S
C2449 C2447 1.389 1_455 S
C2449 C2450 1.524 . S
C2450 C2449 1.524 . S
C2450 C2451 1.435 . S
C2450 C2455 1.363 . S
C2451 H2422 0.895 1_455 S
C2451 C2450 1.435 . S
C2451 C2452 1.351 . S
C2452 H2423 0.950 1_455 S
C2452 C2451 1.351 . S
C2452 C2453 1.287 . S
C2453 C2452 1.287 . S
C2453 C2454 1.524 . S
C2453 H2456 0.999 . S
C2454 H2424 0.950 . S
C2454 C2453 1.524 . S
C2454 C2455 1.415 . S
C2455 H2425 0.950 . S
C2455 C2450 1.363 . S
C2455 C2454 1.415 . S
H2456 C2453 0.999 . S
H2457 C2438 0.913 . S
H2458 C2476 0.951 . S
H2459 C2478 0.951 . S
H2460 C2480 0.950 . S
H2461 C2481 0.950 . S
H2462 C2483 0.950 . S
H2463 C2486 0.950 . S
H2464 C2487 0.950 . S
H2465 C2489 0.950 . S
H2466 C2490 0.950 . S
H2467 C2491 0.951 . S
H2468 C2493 0.951 . S
H2469 C2495 0.950 . S
H2470 C2496 0.950 . S
H2471 C2498 0.950 . S
H2472 C2501 0.950 . S
H2473 C2502 0.950 . S
H2474 C2504 0.950 . S
H2475 C2505 0.950 . S
C2476 H2458 0.951 . S
C2476 C2477 1.366 . S
C2476 C2478 1.388 . S
C2477 C2476 1.366 . S
C2477 C2481 1.385 . S
C2478 H2459 0.951 . S
C2478 C2476 1.388 . S
C2478 C2479 1.366 . S
C2479 C2478 1.366 . S
C2479 C2480 1.414 . S
C2479 C2482 1.499 . S
C2480 H2460 0.950 . S
C2480 C2479 1.414 . S
C2480 C2481 1.374 . S
C2481 H2461 0.950 . S
C2481 C2477 1.385 . S
C2481 C2480 1.374 . S
C2482 C2479 1.499 . S
C2482 C2483 1.373 . S
C2482 C2484 1.389 . S
C2483 H2462 0.950 . S
C2483 C2482 1.373 . S
C2483 C2499 1.377 . S
C2484 C2482 1.389 . S
C2484 C2485 1.524 . S
C2484 C2498 1.377 . S
C2485 C2484 1.524 . S
C2485 C2486 1.397 . S
C2485 C2490 1.363 . S
C2486 H2463 0.950 . S
C2486 C2485 1.397 . S
C2486 C2487 1.334 . S
C2487 H2464 0.950 . S
C2487 C2486 1.334 . S
C2487 C2488 1.287 . S
C2488 C2487 1.287 . S
C2488 C2489 1.524 . S
C2488 H2507 0.913 . S
C2489 H2465 0.950 . S
C2489 C2488 1.524 . S
C2489 C2490 1.415 . S
C2490 H2466 0.950 . S
C2490 C2485 1.363 . S
C2490 C2489 1.415 . S
C2491 H2467 0.951 . S
C2491 C2492 1.366 . S
C2491 C2493 1.388 . S
C2492 C2491 1.366 . S
C2492 C2496 1.385 . S
C2493 H2468 0.951 . S
C2493 C2491 1.388 . S
C2493 C2494 1.366 . S
C2494 C2493 1.366 . S
C2494 C2495 1.414 . S
C2494 C2497 1.499 . S
C2495 H2469 0.950 . S
C2495 C2494 1.414 . S
C2495 C2496 1.374 . S
C2496 H2470 0.950 . S
C2496 C2492 1.385 . S
C2496 C2495 1.374 . S
C2497 C2494 1.499 . S
C2497 C2498 1.373 . S
C2497 C2499 1.389 . S
C2498 H2471 0.950 . S
C2498 C2484 1.377 . S
C2498 C2497 1.373 . S
C2499 C2483 1.377 . S
C2499 C2497 1.389 . S
C2499 C2500 1.524 . S
C2500 C2499 1.524 . S
C2500 C2501 1.397 . S
C2500 C2505 1.363 . S
C2501 H2472 0.950 . S
C2501 C2500 1.397 . S
C2501 C2502 1.334 . S
C2502 H2473 0.950 . S
C2502 C2501 1.334 . S
C2502 C2503 1.287 . S
C2503 C2502 1.287 . S
C2503 C2504 1.524 . S
C2503 H2506 0.999 . S
C2504 H2474 0.950 . S
C2504 C2503 1.524 . S
C2504 C2505 1.415 . S
C2505 H2475 0.950 . S
C2505 C2500 1.363 . S
C2505 C2504 1.415 . S
H2506 C2503 0.999 . S
H2507 C2488 0.913 . S
H2508 C2526 0.951 . S
H2509 C2528 0.951 . S
H2510 C2530 0.950 . S
H2511 C2531 0.950 . S
H2512 C2533 0.950 . S
H2513 C2536 0.950 . S
H2514 C2537 0.950 . S
H2515 C2539 0.950 . S
H2516 C2540 0.950 . S
H2517 C2541 0.951 . S
H2518 C2543 0.951 . S
H2519 C2545 0.950 . S
H2520 C2546 0.950 . S
H2521 C2548 0.950 . S
H2522 C2551 0.950 . S
H2523 C2552 0.950 . S
H2524 C2554 0.950 . S
H2525 C2555 0.950 . S
C2526 H2508 0.951 . S
C2526 C2527 1.366 . S
C2526 C2528 1.388 . S
C2527 C2526 1.366 . S
C2527 C2531 1.385 . S
C2528 H2509 0.951 . S
C2528 C2526 1.388 . S
C2528 C2529 1.366 . S
C2529 C2528 1.366 . S
C2529 C2530 1.414 . S
C2529 C2532 1.499 . S
C2530 H2510 0.950 . S
C2530 C2529 1.414 . S
C2530 C2531 1.374 . S
C2531 H2511 0.950 . S
C2531 C2527 1.385 . S
C2531 C2530 1.374 . S
C2532 C2529 1.499 . S
C2532 C2533 1.373 . S
C2532 C2534 1.389 . S
C2533 H2512 0.950 . S
C2533 C2532 1.373 . S
C2533 C2549 1.377 . S
C2534 C2532 1.389 . S
C2534 C2535 1.524 . S
C2534 C2548 1.377 . S
C2535 C2534 1.524 . S
C2535 C2536 1.397 . S
C2535 C2540 1.363 . S
C2536 H2513 0.950 . S
C2536 C2535 1.397 . S
C2536 C2537 1.334 . S
C2537 H2514 0.950 . S
C2537 C2536 1.334 . S
C2537 C2538 1.287 . S
C2538 C2537 1.287 . S
C2538 C2539 1.524 . S
C2538 H2557 0.913 . S
C2539 H2515 0.950 . S
C2539 C2538 1.524 . S
C2539 C2540 1.415 . S
C2540 H2516 0.950 . S
C2540 C2535 1.363 . S
C2540 C2539 1.415 . S
C2541 H2517 0.951 . S
C2541 C2542 1.366 . S
C2541 C2543 1.388 . S
C2542 C2541 1.366 . S
C2542 C2546 1.385 . S
C2543 H2518 0.951 . S
C2543 C2541 1.388 . S
C2543 C2544 1.366 . S
C2544 C2543 1.366 . S
C2544 C2545 1.414 . S
C2544 C2547 1.499 . S
C2545 H2519 0.950 . S
C2545 C2544 1.414 . S
C2545 C2546 1.374 . S
C2546 H2520 0.950 . S
C2546 C2542 1.385 . S
C2546 C2545 1.374 . S
C2547 C2544 1.499 . S
C2547 C2548 1.373 . S
C2547 C2549 1.389 . S
C2548 H2521 0.950 . S
C2548 C2534 1.377 . S
C2548 C2547 1.373 . S
C2549 C2533 1.377 . S
C2549 C2547 1.389 . S
C2549 C2550 1.524 . S
C2550 C2549 1.524 . S
C2550 C2551 1.397 . S
C2550 C2555 1.363 . S
C2551 H2522 0.950 . S
C2551 C2550 1.397 . S
C2551 C2552 1.334 . S
C2552 H2523 0.950 . S
C2552 C2551 1.334 . S
C2552 C2553 1.287 . S
C2553 C2552 1.287 . S
C2553 C2554 1.524 . S
C2553 H2556 0.999 . S
C2554 H2524 0.950 . S
C2554 C2553 1.524 . S
C2554 C2555 1.415 . S
C2555 H2525 0.950 . S
C2555 C2550 1.363 . S
C2555 C2554 1.415 . S
H2556 C2553 0.999 . S
H2557 C2538 0.913 . S
H2558 C2576 0.951 . S
H2559 C2578 0.951 . S
H2560 C2580 0.950 . S
H2561 C2581 0.950 . S
H2562 C2583 0.950 . S
H2563 C2586 0.950 . S
H2564 C2587 0.950 . S
H2565 C2589 0.950 . S
H2566 C2590 0.950 . S
H2567 C2591 0.951 . S
H2568 C2593 0.951 . S
H2569 C2595 0.950 . S
H2570 C2596 0.950 . S
H2571 C2598 0.950 . S
H2572 C2601 0.950 . S
H2573 C2602 0.950 . S
H2574 C2604 0.950 . S
H2575 C2605 0.950 . S
C2576 H2558 0.951 . S
C2576 C2577 1.366 . S
C2576 C2578 1.388 . S
C2577 C2576 1.366 . S
C2577 C2581 1.385 . S
C2578 H2559 0.951 . S
C2578 C2576 1.388 . S
C2578 C2579 1.366 . S
C2579 C2578 1.366 . S
C2579 C2580 1.414 . S
C2579 C2582 1.499 . S
C2580 H2560 0.950 . S
C2580 C2579 1.414 . S
C2580 C2581 1.374 . S
C2581 H2561 0.950 . S
C2581 C2577 1.385 . S
C2581 C2580 1.374 . S
C2582 C2579 1.499 . S
C2582 C2583 1.373 . S
C2582 C2584 1.389 1_455 S
C2583 H2562 0.950 . S
C2583 C2582 1.373 . S
C2583 C2599 1.377 . S
C2584 C2582 1.389 1_655 S
C2584 C2585 1.524 . S
C2584 C2598 1.377 . S
C2585 C2584 1.524 . S
C2585 C2586 1.397 . S
C2585 C2590 1.363 . S
C2586 H2563 0.950 . S
C2586 C2585 1.397 . S
C2586 C2587 1.334 . S
C2587 H2564 0.950 . S
C2587 C2586 1.334 . S
C2587 C2588 1.287 . S
C2588 C2587 1.287 . S
C2588 C2589 1.524 . S
C2588 H2607 0.913 . S
C2589 H2565 0.950 . S
C2589 C2588 1.524 . S
C2589 C2590 1.415 . S
C2590 H2566 0.950 . S
C2590 C2585 1.363 . S
C2590 C2589 1.415 . S
C2591 H2567 0.951 . S
C2591 C2592 1.366 . S
C2591 C2593 1.388 . S
C2592 C2591 1.366 . S
C2592 C2596 1.385 . S
C2593 H2568 0.951 . S
C2593 C2591 1.388 . S
C2593 C2594 1.366 . S
C2594 C2593 1.366 . S
C2594 C2595 1.414 . S
C2594 C2597 1.499 . S
C2595 H2569 0.950 . S
C2595 C2594 1.414 . S
C2595 C2596 1.374 . S
C2596 H2570 0.950 . S
C2596 C2592 1.385 . S
C2596 C2595 1.374 . S
C2597 C2594 1.499 . S
C2597 C2598 1.373 . S
C2597 C2599 1.389 1_655 S
C2598 H2571 0.950 . S
C2598 C2584 1.377 . S
C2598 C2597 1.373 . S
C2599 C2583 1.377 . S
C2599 C2597 1.389 1_455 S
C2599 C2600 1.524 . S
C2600 C2599 1.524 . S
C2600 C2601 1.397 . S
C2600 C2605 1.363 . S
C2601 H2572 0.950 . S
C2601 C2600 1.397 . S
C2601 C2602 1.334 . S
C2602 H2573 0.950 . S
C2602 C2601 1.334 . S
C2602 C2603 1.287 . S
C2603 C2602 1.287 . S
C2603 C2604 1.524 . S
C2603 H2606 0.999 . S
C2604 H2574 0.950 . S
C2604 C2603 1.524 . S
C2604 C2605 1.415 . S
C2605 H2575 0.950 . S
C2605 C2600 1.363 . S
C2605 C2604 1.415 . S
H2606 C2603 0.999 . S
H2607 C2588 0.913 . S
H2608 C2626 0.951 . S
H2609 C2628 0.951 . S
H2610 C2630 0.950 . S
H2611 C2631 0.950 . S
H2612 C2633 0.950 . S
H2613 C2636 0.950 . S
H2614 C2637 0.950 . S
H2615 C2639 0.950 . S
H2616 C2640 0.950 . S
H2617 C2641 0.951 . S
H2618 C2643 0.951 . S
H2619 C2645 0.950 . S
H2620 C2646 0.950 . S
H2621 C2648 0.950 . S
H2622 C2651 0.950 . S
H2623 C2652 0.950 . S
H2624 C2654 0.950 . S
H2625 C2655 0.950 . S
C2626 H2608 0.951 . S
C2626 C2627 1.366 1_545 S
C2626 C2628 1.388 . S
C2627 C2626 1.366 1_565 S
C2627 C2631 1.385 1_655 S
C2628 H2609 0.951 . S
C2628 C2626 1.388 . S
C2628 C2629 1.349 1_545 S
C2629 C2628 1.349 1_565 S
C2629 C2630 1.434 1_655 S
C2629 C2632 1.498 . S
C2630 H2610 0.950 . S
C2630 C2629 1.434 1_455 S
C2630 C2631 1.374 . S
C2631 H2611 0.950 . S
C2631 C2627 1.385 1_455 S
C2631 C2630 1.374 . S
C2632 C2629 1.498 . S
C2632 C2633 1.378 . S
C2632 C2634 1.386 1_565 S
C2633 H2612 0.950 . S
C2633 C2632 1.378 . S
C2633 C2649 1.376 1_656 S
C2634 C2632 1.386 1_545 S
C2634 C2635 1.524 . S
C2634 C2648 1.376 1_556 S
C2635 C2634 1.524 . S
C2635 C2636 1.397 1_655 S
C2635 C2640 1.363 . S
C2636 H2613 0.950 . S
C2636 C2635 1.397 1_455 S
C2636 C2637 1.334 . S
C2637 H2614 0.950 . S
C2637 C2636 1.334 . S
C2637 C2638 1.287 . S
C2638 C2637 1.287 . S
C2638 C2639 1.524 1_455 S
C2638 H2657 0.913 . S
C2639 H2615 0.950 . S
C2639 C2638 1.524 1_655 S
C2639 C2640 1.415 . S
C2640 H2616 0.950 . S
C2640 C2635 1.363 . S
C2640 C2639 1.415 . S
C2641 H2617 0.951 . S
C2641 C2642 1.366 1_565 S
C2641 C2643 1.388 . S
C2642 C2641 1.366 1_545 S
C2642 C2646 1.385 1_455 S
C2643 H2618 0.951 . S
C2643 C2641 1.388 . S
C2643 C2644 1.346 1_565 S
C2644 C2643 1.346 1_545 S
C2644 C2645 1.438 1_455 S
C2644 C2647 1.498 . S
C2645 H2619 0.950 . S
C2645 C2644 1.438 1_655 S
C2645 C2646 1.374 . S
C2646 H2620 0.950 . S
C2646 C2642 1.385 1_655 S
C2646 C2645 1.374 . S
C2647 C2644 1.498 . S
C2647 C2648 1.383 1_455 S
C2647 C2649 1.380 1_545 S
C2648 H2621 0.950 . S
C2648 C2634 1.376 1_554 S
C2648 C2647 1.383 1_655 S
C2649 C2633 1.376 1_454 S
C2649 C2647 1.380 1_565 S
C2649 C2650 1.524 . S
C2650 C2649 1.524 . S
C2650 C2651 1.397 1_455 S
C2650 C2655 1.363 . S
C2651 H2622 0.950 . S
C2651 C2650 1.397 1_655 S
C2651 C2652 1.334 . S
C2652 H2623 0.950 . S
C2652 C2651 1.334 . S
C2652 C2653 1.287 . S
C2653 C2652 1.287 . S
C2653 C2654 1.524 1_655 S
C2653 H2656 0.999 . S
C2654 H2624 0.950 . S
C2654 C2653 1.524 1_455 S
C2654 C2655 1.415 . S
C2655 H2625 0.950 . S
C2655 C2650 1.363 . S
C2655 C2654 1.415 . S
H2656 C2653 0.999 . S
H2657 C2638 0.913 . S
H2658 C2676 0.951 . S
H2659 C2678 0.951 . S
H2660 C2680 0.950 . S
H2661 C2681 0.950 . S
H2662 C2683 0.950 . S
H2663 C2686 0.950 . S
H2664 C2687 0.950 . S
H2665 C2689 0.950 . S
H2666 C2690 0.950 . S
H2667 C2691 0.951 . S
H2668 C2693 0.951 . S
H2669 C2695 0.950 . S
H2670 C2696 0.950 . S
H2671 C2698 0.950 . S
H2672 C2701 0.950 . S
H2673 C2702 0.950 . S
H2674 C2704 0.950 . S
H2675 C2705 0.950 . S
C2676 H2658 0.951 . S
C2676 C2677 1.366 . S
C2676 C2678 1.388 . S
C2677 C2676 1.366 . S
C2677 C2681 1.385 1_545 S
C2678 H2659 0.951 . S
C2678 C2676 1.388 . S
C2678 C2679 1.366 . S
C2679 C2678 1.366 . S
C2679 C2680 1.414 1_545 S
C2679 C2682 1.499 . S
C2680 H2660 0.950 . S
C2680 C2679 1.414 1_565 S
C2680 C2681 1.374 . S
C2681 H2661 0.950 . S
C2681 C2677 1.385 1_565 S
C2681 C2680 1.374 . S
C2682 C2679 1.499 . S
C2682 C2683 1.364 1_545 S
C2682 C2684 1.398 . S
C2683 H2662 0.950 . S
C2683 C2682 1.364 1_565 S
C2683 C2699 1.377 1_556 S
C2684 C2682 1.398 . S
C2684 C2685 1.524 . S
C2684 C2698 1.377 1_556 S
C2685 C2684 1.524 . S
C2685 C2686 1.397 . S
C2685 C2690 1.363 . S
C2686 H2663 0.950 . S
C2686 C2685 1.397 . S
C2686 C2687 1.334 . S
C2687 H2664 0.950 . S
C2687 C2686 1.334 . S
C2687 C2688 1.287 . S
C2688 C2687 1.287 . S
C2688 C2689 1.524 . S
C2688 H2707 0.913 . S
C2689 H2665 0.950 . S
C2689 C2688 1.524 . S
C2689 C2690 1.415 . S
C2690 H2666 0.950 . S
C2690 C2685 1.363 . S
C2690 C2689 1.415 . S
C2691 H2667 0.951 . S
C2691 C2692 1.366 . S
C2691 C2693 1.388 . S
C2692 C2691 1.366 . S
C2692 C2696 1.385 1_565 S
C2693 H2668 0.951 . S
C2693 C2691 1.388 . S
C2693 C2694 1.366 . S
C2694 C2693 1.366 . S
C2694 C2695 1.414 1_565 S
C2694 C2697 1.500 . S
C2695 H2669 0.950 . S
C2695 C2694 1.414 1_545 S
C2695 C2696 1.374 . S
C2696 H2670 0.950 . S
C2696 C2692 1.385 1_545 S
C2696 C2695 1.374 . S
C2697 C2694 1.500 . S
C2697 C2698 1.359 1_565 S
C2697 C2699 1.403 . S
C2698 H2671 0.950 . S
C2698 C2684 1.377 1_554 S
C2698 C2697 1.359 1_545 S
C2699 C2683 1.377 1_554 S
C2699 C2697 1.403 . S
C2699 C2700 1.524 . S
C2700 C2699 1.524 . S
C2700 C2701 1.397 . S
C2700 C2705 1.363 . S
C2701 H2672 0.950 . S
C2701 C2700 1.397 . S
C2701 C2702 1.334 . S
C2702 H2673 0.950 . S
C2702 C2701 1.334 . S
C2702 C2703 1.287 . S
C2703 C2702 1.287 . S
C2703 C2704 1.524 . S
C2703 H2706 0.999 . S
C2704 H2674 0.950 . S
C2704 C2703 1.524 . S
C2704 C2705 1.415 . S
C2705 H2675 0.950 . S
C2705 C2700 1.363 . S
C2705 C2704 1.415 . S
H2706 C2703 0.999 . S
H2707 C2688 0.913 . S
H2708 C2726 0.951 . S
H2709 C2728 0.951 . S
H2710 C2730 0.950 . S
H2711 C2731 0.950 . S
H2712 C2733 0.950 . S
H2713 C2736 0.950 . S
H2714 C2737 0.950 . S
H2715 C2739 0.950 . S
H2716 C2740 0.950 . S
H2717 C2741 0.951 . S
H2718 C2743 0.951 . S
H2719 C2745 0.950 . S
H2720 C2746 0.950 . S
H2721 C2748 0.950 . S
H2722 C2751 0.950 . S
H2723 C2752 0.950 . S
H2724 C2754 0.950 . S
H2725 C2755 0.950 . S
C2726 H2708 0.951 . S
C2726 C2727 1.366 . S
C2726 C2728 1.388 . S
C2727 C2726 1.366 . S
C2727 C2731 1.385 1_545 S
C2728 H2709 0.951 . S
C2728 C2726 1.388 . S
C2728 C2729 1.366 . S
C2729 C2728 1.366 . S
C2729 C2730 1.414 1_545 S
C2729 C2732 1.502 . S
C2730 H2710 0.950 . S
C2730 C2729 1.414 1_565 S
C2730 C2731 1.374 . S
C2731 H2711 0.950 . S
C2731 C2727 1.385 1_565 S
C2731 C2730 1.374 . S
C2732 C2729 1.502 . S
C2732 C2733 1.329 1_545 S
C2732 C2734 1.431 . S
C2733 H2712 0.950 . S
C2733 C2732 1.329 1_565 S
C2733 C2749 1.377 . S
C2734 C2732 1.431 . S
C2734 C2735 1.524 . S
C2734 C2748 1.377 . S
C2735 C2734 1.524 . S
C2735 C2736 1.397 . S
C2735 C2740 1.363 . S
C2736 H2713 0.950 . S
C2736 C2735 1.397 . S
C2736 C2737 1.334 . S
C2737 H2714 0.950 . S
C2737 C2736 1.334 . S
C2737 C2738 1.287 . S
C2738 C2737 1.287 . S
C2738 C2739 1.524 . S
C2738 H2757 0.913 . S
C2739 H2715 0.950 . S
C2739 C2738 1.524 . S
C2739 C2740 1.415 . S
C2740 H2716 0.950 . S
C2740 C2735 1.363 . S
C2740 C2739 1.415 . S
C2741 H2717 0.951 . S
C2741 C2742 1.366 . S
C2741 C2743 1.388 . S
C2742 C2741 1.366 . S
C2742 C2746 1.385 1_565 S
C2743 H2718 0.951 . S
C2743 C2741 1.388 . S
C2743 C2744 1.366 . S
C2744 C2743 1.366 . S
C2744 C2745 1.414 1_565 S
C2744 C2747 1.503 . S
C2745 H2719 0.950 . S
C2745 C2744 1.414 1_545 S
C2745 C2746 1.374 . S
C2746 H2720 0.950 . S
C2746 C2742 1.385 1_545 S
C2746 C2745 1.374 . S
C2747 C2744 1.503 . S
C2747 C2748 1.323 1_565 S
C2747 C2749 1.437 . S
C2748 H2721 0.950 . S
C2748 C2734 1.377 . S
C2748 C2747 1.323 1_545 S
C2749 C2733 1.377 . S
C2749 C2747 1.437 . S
C2749 C2750 1.524 . S
C2750 C2749 1.524 . S
C2750 C2751 1.397 . S
C2750 C2755 1.363 . S
C2751 H2722 0.950 . S
C2751 C2750 1.397 . S
C2751 C2752 1.334 . S
C2752 H2723 0.950 . S
C2752 C2751 1.334 . S
C2752 C2753 1.287 . S
C2753 C2752 1.287 . S
C2753 C2754 1.524 . S
C2753 H2756 0.999 . S
C2754 H2724 0.950 . S
C2754 C2753 1.524 . S
C2754 C2755 1.415 . S
C2755 H2725 0.950 . S
C2755 C2750 1.363 . S
C2755 C2754 1.415 . S
H2756 C2753 0.999 . S
H2757 C2738 0.913 . S
H2758 C2776 0.951 1_655 S
H2759 C2778 0.951 . S
H2760 C2780 0.950 . S
H2761 C2781 0.950 . S
H2762 C2783 0.950 . S
H2763 C2786 0.950 . S
H2764 C2787 0.950 . S
H2765 C2789 0.950 . S
H2766 C2790 0.950 . S
H2767 C2791 0.951 1_455 S
H2768 C2793 0.951 . S
H2769 C2795 0.950 . S
H2770 C2796 0.950 . S
H2771 C2798 0.950 . S
H2772 C2801 0.950 . S
H2773 C2802 0.950 . S
H2774 C2804 0.950 . S
H2775 C2805 0.950 . S
C2776 H2758 0.951 1_455 S
C2776 C2777 1.366 1_545 S
C2776 C2778 1.388 1_455 S
C2777 C2776 1.366 1_565 S
C2777 C2781 1.385 . S
C2778 H2759 0.951 . S
C2778 C2776 1.388 1_655 S
C2778 C2779 1.366 1_645 S
C2779 C2778 1.366 1_465 S
C2779 C2780 1.414 . S
C2779 C2782 1.499 . S
C2780 H2760 0.950 . S
C2780 C2779 1.414 . S
C2780 C2781 1.374 . S
C2781 H2761 0.950 . S
C2781 C2777 1.385 . S
C2781 C2780 1.374 . S
C2782 C2779 1.499 . S
C2782 C2783 1.373 . S
C2782 C2784 1.389 1_465 S
C2783 H2762 0.950 . S
C2783 C2782 1.373 . S
C2783 C2799 1.377 . S
C2784 C2782 1.389 1_645 S
C2784 C2785 1.524 . S
C2784 C2798 1.377 . S
C2785 C2784 1.524 . S
C2785 C2786 1.397 1_545 S
C2785 C2790 1.363 . S
C2786 H2763 0.950 . S
C2786 C2785 1.397 1_565 S
C2786 C2787 1.334 . S
C2787 H2764 0.950 . S
C2787 C2786 1.334 . S
C2787 C2788 1.287 1_565 S
C2788 C2787 1.287 1_545 S
C2788 C2789 1.524 . S
C2788 H2807 0.913 . S
C2789 H2765 0.950 . S
C2789 C2788 1.524 . S
C2789 C2790 1.415 . S
C2790 H2766 0.950 . S
C2790 C2785 1.363 . S
C2790 C2789 1.415 . S
C2791 H2767 0.951 1_655 S
C2791 C2792 1.366 1_565 S
C2791 C2793 1.388 1_655 S
C2792 C2791 1.366 1_545 S
C2792 C2796 1.385 . S
C2793 H2768 0.951 . S
C2793 C2791 1.388 1_455 S
C2793 C2794 1.366 1_465 S
C2794 C2793 1.366 1_645 S
C2794 C2795 1.414 . S
C2794 C2797 1.499 . S
C2795 H2769 0.950 . S
C2795 C2794 1.414 . S
C2795 C2796 1.374 . S
C2796 H2770 0.950 . S
C2796 C2792 1.385 . S
C2796 C2795 1.374 . S
C2797 C2794 1.499 . S
C2797 C2798 1.373 . S
C2797 C2799 1.389 1_645 S
C2798 H2771 0.950 . S
C2798 C2784 1.377 . S
C2798 C2797 1.373 . S
C2799 C2783 1.377 . S
C2799 C2797 1.389 1_465 S
C2799 C2800 1.524 . S
C2800 C2799 1.524 . S
C2800 C2801 1.397 1_565 S
C2800 C2805 1.363 . S
C2801 H2772 0.950 . S
C2801 C2800 1.397 1_545 S
C2801 C2802 1.334 . S
C2802 H2773 0.950 . S
C2802 C2801 1.334 . S
C2802 C2803 1.243 1_545 S
C2803 C2802 1.243 1_565 S
C2803 C2804 1.573 . S
C2803 H2806 1.003 . S
C2804 H2774 0.950 . S
C2804 C2803 1.573 . S
C2804 C2805 1.415 . S
C2805 H2775 0.950 . S
C2805 C2800 1.363 . S
C2805 C2804 1.415 . S
H2806 C2803 1.003 . S
H2807 C2788 0.913 . S
H2808 C2826 0.951 . S
H2809 C2828 0.951 . S
H2810 C2830 0.950 . S
H2811 C2831 0.950 . S
H2812 C2833 0.950 . S
H2813 C2836 0.950 . S
H2814 C2837 0.950 . S
H2815 C2839 0.950 . S
H2816 C2840 0.950 . S
H2817 C2841 0.951 . S
H2818 C2843 0.951 . S
H2819 C2845 0.950 . S
H2820 C2846 0.950 . S
H2821 C2848 0.950 . S
H2822 C2851 0.950 . S
H2823 C2852 0.950 . S
H2824 C2854 0.950 . S
H2825 C2855 0.950 . S
C2826 H2808 0.951 . S
C2826 C2827 1.366 . S
C2826 C2828 1.388 . S
C2827 C2826 1.366 . S
C2827 C2831 1.385 . S
C2828 H2809 0.951 . S
C2828 C2826 1.388 . S
C2828 C2829 1.366 . S
C2829 C2828 1.366 . S
C2829 C2830 1.414 . S
C2829 C2832 1.499 . S
C2830 H2810 0.950 . S
C2830 C2829 1.414 . S
C2830 C2831 1.374 . S
C2831 H2811 0.950 . S
C2831 C2827 1.385 . S
C2831 C2830 1.374 . S
C2832 C2829 1.499 . S
C2832 C2833 1.373 . S
C2832 C2834 1.389 . S
C2833 H2812 0.950 . S
C2833 C2832 1.373 . S
C2833 C2849 1.377 1_554 S
C2834 C2832 1.389 . S
C2834 C2835 1.524 . S
C2834 C2848 1.377 1_554 S
C2835 C2834 1.524 . S
C2835 C2836 1.397 . S
C2835 C2840 1.363 . S
C2836 H2813 0.950 . S
C2836 C2835 1.397 . S
C2836 C2837 1.334 . S
C2837 H2814 0.950 . S
C2837 C2836 1.334 . S
C2837 C2838 1.287 . S
C2838 C2837 1.287 . S
C2838 C2839 1.524 . S
C2838 H2857 0.913 . S
C2839 H2815 0.950 . S
C2839 C2838 1.524 . S
C2839 C2840 1.415 . S
C2840 H2816 0.950 . S
C2840 C2835 1.363 . S
C2840 C2839 1.415 . S
C2841 H2817 0.951 . S
C2841 C2842 1.366 . S
C2841 C2843 1.388 . S
C2842 C2841 1.366 . S
C2842 C2846 1.385 . S
C2843 H2818 0.951 . S
C2843 C2841 1.388 . S
C2843 C2844 1.366 . S
C2844 C2843 1.366 . S
C2844 C2845 1.414 . S
C2844 C2847 1.499 . S
C2845 H2819 0.950 . S
C2845 C2844 1.414 . S
C2845 C2846 1.374 . S
C2846 H2820 0.950 . S
C2846 C2842 1.385 . S
C2846 C2845 1.374 . S
C2847 C2844 1.499 . S
C2847 C2848 1.373 . S
C2847 C2849 1.389 . S
C2848 H2821 0.950 . S
C2848 C2834 1.377 1_556 S
C2848 C2847 1.373 . S
C2849 C2833 1.377 1_556 S
C2849 C2847 1.389 . S
C2849 C2850 1.524 . S
C2850 C2849 1.524 . S
C2850 C2851 1.397 . S
C2850 C2855 1.363 . S
C2851 H2822 0.950 . S
C2851 C2850 1.397 . S
C2851 C2852 1.334 . S
C2852 H2823 0.950 . S
C2852 C2851 1.334 . S
C2852 C2853 1.287 . S
C2853 C2852 1.287 . S
C2853 C2854 1.524 . S
C2853 H2856 0.999 . S
C2854 H2824 0.950 . S
C2854 C2853 1.524 . S
C2854 C2855 1.415 . S
C2855 H2825 0.950 . S
C2855 C2850 1.363 . S
C2855 C2854 1.415 . S
H2856 C2853 0.999 . S
H2857 C2838 0.913 . S
H2858 C2876 0.951 . S
H2859 C2878 0.951 . S
H2860 C2880 0.950 . S
H2861 C2881 0.950 . S
H2862 C2883 0.950 . S
H2863 C2886 0.950 1_455 S
H2864 C2887 0.950 . S
H2865 C2889 0.950 . S
H2866 C2890 0.950 1_556 S
H2867 C2891 0.951 . S
H2868 C2893 0.951 . S
H2869 C2895 0.950 . S
H2870 C2896 0.950 . S
H2871 C2898 0.950 . S
H2872 C2901 0.950 1_655 S
H2873 C2902 0.950 . S
H2874 C2904 0.950 . S
H2875 C2905 0.950 1_554 S
C2876 H2858 0.951 . S
C2876 C2877 1.366 . S
C2876 C2878 1.388 . S
C2877 C2876 1.366 . S
C2877 C2881 1.385 1_655 S
C2878 H2859 0.951 . S
C2878 C2876 1.388 . S
C2878 C2879 1.366 . S
C2879 C2878 1.366 . S
C2879 C2880 1.414 1_655 S
C2879 C2882 1.499 . S
C2880 H2860 0.950 . S
C2880 C2879 1.414 1_455 S
C2880 C2881 1.374 . S
C2881 H2861 0.950 . S
C2881 C2877 1.385 1_455 S
C2881 C2880 1.374 . S
C2882 C2879 1.499 . S
C2882 C2883 1.373 1_655 S
C2882 C2884 1.389 . S
C2883 H2862 0.950 . S
C2883 C2882 1.373 1_455 S
C2883 C2899 1.377 1_554 S
C2884 C2882 1.389 . S
C2884 C2885 1.524 . S
C2884 C2898 1.377 1_554 S
C2885 C2884 1.524 . S
C2885 C2886 1.397 . S
C2885 C2890 1.363 . S
C2886 H2863 0.950 1_655 S
C2886 C2885 1.397 . S
C2886 C2887 1.334 . S
C2887 H2864 0.950 . S
C2887 C2886 1.334 . S
C2887 C2888 1.287 . S
C2888 C2887 1.287 . S
C2888 C2889 1.524 . S
C2888 H2907 0.913 . S
C2889 H2865 0.950 . S
C2889 C2888 1.524 . S
C2889 C2890 1.415 . S
C2890 H2866 0.950 1_554 S
C2890 C2885 1.363 . S
C2890 C2889 1.415 . S
C2891 H2867 0.951 . S
C2891 C2892 1.366 . S
C2891 C2893 1.388 . S
C2892 C2891 1.366 . S
C2892 C2896 1.385 1_455 S
C2893 H2868 0.951 . S
C2893 C2891 1.388 . S
C2893 C2894 1.366 . S
C2894 C2893 1.366 . S
C2894 C2895 1.414 1_455 S
C2894 C2897 1.499 . S
C2895 H2869 0.950 . S
C2895 C2894 1.414 1_655 S
C2895 C2896 1.374 . S
C2896 H2870 0.950 . S
C2896 C2892 1.385 1_655 S
C2896 C2895 1.374 . S
C2897 C2894 1.499 . S
C2897 C2898 1.373 1_455 S
C2897 C2899 1.389 . S
C2898 H2871 0.950 . S
C2898 C2884 1.377 1_556 S
C2898 C2897 1.373 1_655 S
C2899 C2883 1.377 1_556 S
C2899 C2897 1.389 . S
C2899 C2900 1.524 . S
C2900 C2899 1.524 . S
C2900 C2901 1.397 . S
C2900 C2905 1.363 . S
C2901 H2872 0.950 1_455 S
C2901 C2900 1.397 . S
C2901 C2902 1.334 . S
C2902 H2873 0.950 . S
C2902 C2901 1.334 . S
C2902 C2903 1.287 . S
C2903 C2902 1.287 . S
C2903 C2904 1.524 . S
C2903 H2906 0.999 . S
C2904 H2874 0.950 . S
C2904 C2903 1.524 . S
C2904 C2905 1.415 . S
C2905 H2875 0.950 1_556 S
C2905 C2900 1.363 . S
C2905 C2904 1.415 . S
H2906 C2903 0.999 . S
H2907 C2888 0.913 . S
H2908 C2926 0.951 . S
H2909 C2928 0.951 . S
H2910 C2930 0.950 . S
H2911 C2931 0.951 1_455 S
H2912 C2933 0.950 . S
H2913 C2936 0.950 . S
H2914 C2937 0.950 . S
H2915 C2939 0.957 . S
H2916 C2940 0.942 1_655 S
H2917 C2941 0.951 . S
H2918 C2943 0.951 . S
H2919 C2945 0.950 . S
H2920 C2946 0.955 . S
H2921 C2948 0.950 . S
H2922 C2951 0.950 . S
H2923 C2952 0.950 . S
H2924 C2954 0.966 . S
H2925 C2955 0.927 1_455 S
C2926 H2908 0.951 . S
C2926 C2927 1.366 . S
C2926 C2928 1.388 . S
C2927 C2926 1.366 . S
C2927 C2931 1.383 . S
C2928 H2909 0.951 . S
C2928 C2926 1.388 . S
C2928 C2929 1.366 . S
C2929 C2928 1.366 . S
C2929 C2930 1.414 1_655 S
C2929 C2932 1.499 . S
C2930 H2910 0.950 . S
C2930 C2929 1.414 1_455 S
C2930 C2931 1.374 1_455 S
C2931 H2911 0.951 1_655 S
C2931 C2927 1.383 . S
C2931 C2930 1.374 1_655 S
C2932 C2929 1.499 . S
C2932 C2933 1.373 . S
C2932 C2934 1.389 1_655 S
C2933 H2912 0.950 . S
C2933 C2932 1.373 . S
C2933 C2949 1.377 . S
C2934 C2932 1.389 1_455 S
C2934 C2935 1.524 . S
C2934 C2948 1.377 . S
C2935 C2934 1.524 . S
C2935 C2936 1.397 . S
C2935 C2940 1.368 . S
C2936 H2913 0.950 . S
C2936 C2935 1.397 . S
C2936 C2937 1.334 . S
C2937 H2914 0.950 . S
C2937 C2936 1.334 . S
C2937 C2938 1.287 . S
C2938 C2937 1.287 . S
C2938 C2939 1.524 . S
C2938 H2957 0.913 . S
C2939 H2915 0.957 . S
C2939 C2938 1.524 . S
C2939 C2940 1.418 . S
C2940 H2916 0.942 1_455 S
C2940 C2935 1.368 . S
C2940 C2939 1.418 . S
C2941 H2917 0.951 . S
C2941 C2942 1.366 . S
C2941 C2943 1.388 . S
C2942 C2941 1.366 . S
C2942 C2946 1.378 1_455 S
C2943 H2918 0.951 . S
C2943 C2941 1.388 . S
C2943 C2944 1.366 . S
C2944 C2943 1.366 . S
C2944 C2945 1.414 1_455 S
C2944 C2947 1.499 . S
C2945 H2919 0.950 . S
C2945 C2944 1.414 1_655 S
C2945 C2946 1.376 . S
C2946 H2920 0.955 . S
C2946 C2942 1.378 1_655 S
C2946 C2945 1.376 . S
C2947 C2944 1.499 . S
C2947 C2948 1.373 . S
C2947 C2949 1.389 1_455 S
C2948 H2921 0.950 . S
C2948 C2934 1.377 . S
C2948 C2947 1.373 . S
C2949 C2933 1.377 . S
C2949 C2947 1.389 1_655 S
C2949 C2950 1.524 . S
C2950 C2949 1.524 . S
C2950 C2951 1.397 . S
C2950 C2955 1.377 . S
C2951 H2922 0.950 . S
C2951 C2950 1.397 . S
C2951 C2952 1.334 . S
C2952 H2923 0.950 . S
C2952 C2951 1.334 . S
C2952 C2953 1.287 . S
C2953 C2952 1.287 . S
C2953 C2954 1.524 . S
C2953 H2956 0.999 . S
C2954 H2924 0.966 . S
C2954 C2953 1.524 . S
C2954 C2955 1.425 . S
C2955 H2925 0.927 1_655 S
C2955 C2950 1.377 . S
C2955 C2954 1.425 . S
H2956 C2953 0.999 . S
H2957 C2938 0.913 . S
H2958 C2976 0.951 . S
H2959 C2978 0.951 . S
H2960 C2980 0.950 . S
H2961 C2981 0.950 . S
H2962 C2983 0.950 . S
H2963 C2986 0.950 . S
H2964 C2987 0.950 . S
H2965 C2989 0.950 . S
H2966 C2990 0.950 . S
H2967 C2991 0.951 . S
H2968 C2993 0.951 . S
H2969 C2995 0.950 . S
H2970 C2996 0.950 . S
H2971 C2998 0.950 . S
H2972 C3001 0.950 . S
H2973 C3002 0.950 . S
H2974 C3004 0.950 . S
H2975 C3005 0.950 . S
C2976 H2958 0.951 . S
C2976 C2977 1.366 . S
C2976 C2978 1.388 . S
C2977 C2976 1.366 . S
C2977 C2981 1.385 . S
C2978 H2959 0.951 . S
C2978 C2976 1.388 . S
C2978 C2979 1.366 . S
C2979 C2978 1.366 . S
C2979 C2980 1.414 . S
C2979 C2982 1.499 . S
C2980 H2960 0.950 . S
C2980 C2979 1.414 . S
C2980 C2981 1.374 . S
C2981 H2961 0.950 . S
C2981 C2977 1.385 . S
C2981 C2980 1.374 . S
C2982 C2979 1.499 . S
C2982 C2983 1.373 . S
C2982 C2984 1.389 . S
C2983 H2962 0.950 . S
C2983 C2982 1.373 . S
C2983 C2999 1.377 . S
C2984 C2982 1.389 . S
C2984 C2985 1.524 . S
C2984 C2998 1.377 . S
C2985 C2984 1.524 . S
C2985 C2986 1.397 . S
C2985 C2990 1.363 . S
C2986 H2963 0.950 . S
C2986 C2985 1.397 . S
C2986 C2987 1.334 . S
C2987 H2964 0.950 . S
C2987 C2986 1.334 . S
C2987 C2988 1.287 . S
C2988 C2987 1.287 . S
C2988 C2989 1.524 . S
C2988 H3007 0.913 . S
C2989 H2965 0.950 . S
C2989 C2988 1.524 . S
C2989 C2990 1.415 . S
C2990 H2966 0.950 . S
C2990 C2985 1.363 . S
C2990 C2989 1.415 . S
C2991 H2967 0.951 . S
C2991 C2992 1.366 . S
C2991 C2993 1.388 . S
C2992 C2991 1.366 . S
C2992 C2996 1.385 . S
C2993 H2968 0.951 . S
C2993 C2991 1.388 . S
C2993 C2994 1.366 . S
C2994 C2993 1.366 . S
C2994 C2995 1.414 . S
C2994 C2997 1.499 . S
C2995 H2969 0.950 . S
C2995 C2994 1.414 . S
C2995 C2996 1.374 . S
C2996 H2970 0.950 . S
C2996 C2992 1.385 . S
C2996 C2995 1.374 . S
C2997 C2994 1.499 . S
C2997 C2998 1.373 . S
C2997 C2999 1.389 . S
C2998 H2971 0.950 . S
C2998 C2984 1.377 . S
C2998 C2997 1.373 . S
C2999 C2983 1.377 . S
C2999 C2997 1.389 . S
C2999 C3000 1.524 . S
C3000 C2999 1.524 . S
C3000 C3001 1.397 . S
C3000 C3005 1.363 . S
C3001 H2972 0.950 . S
C3001 C3000 1.397 . S
C3001 C3002 1.334 . S
C3002 H2973 0.950 . S
C3002 C3001 1.334 . S
C3002 C3003 1.287 . S
C3003 C3002 1.287 . S
C3003 C3004 1.524 . S
C3003 H3006 0.999 . S
C3004 H2974 0.950 . S
C3004 C3003 1.524 . S
C3004 C3005 1.415 . S
C3005 H2975 0.950 . S
C3005 C3000 1.363 . S
C3005 C3004 1.415 . S
H3006 C3003 0.999 . S
H3007 C2988 0.913 . S
C1427 C137 1.507 . S
C1442 C29 1.507 . S
C1477 C196 1.507 . S
C1492 C293 1.507 . S
C1527 C401 1.499 . S
C1542 C489 1.499 . S
C1577 C645 1.499 . S
C1592 C548 1.499 . S
C1627 C841 1.507 . S
C1642 C753 1.507 . S
C1677 C997 1.507 . S
C1692 C909 1.507 . S
C1727 C1201 1.499 . S
C1742 C1113 1.499 . S
C1777 C1349 1.499 . S
C1792 C1252 1.499 . S
C1827 C313 0.940 . S
C1842 C49 0.939 . S
C1877 C117 0.939 . S
C1892 C233 0.940 . S
C1927 C636 0.939 . S
C1942 C409 0.938 . S
C1977 C557 0.939 . S
C1992 C497 0.940 . S
C2027 C733 0.939 . S
C2042 C1017 0.940 . S
C2077 C929 0.940 . S
C2092 C821 0.939 . S
C2127 C1340 0.938 . S
C2142 C1105 0.939 . S
C2177 C1193 0.939 . S
C2192 C1261 0.940 . S
C2227 C57 1.663 . S
C2242 C812 1.662 . S
C2277 C108 1.663 . S
C2292 C724 1.662 . S
C2327 C1025 1.663 . S
C2342 C225 1.663 . S
C2377 C937 1.663 . S
C2392 C321 1.663 . S
C2427 C1173 1.664 . S
C2442 C372 1.663 . S
C2477 C1085 1.664 . S
C2492 C460 1.664 . S
C2527 C577 1.663 . S
C2542 C1377 1.664 . S
C2577 C673 1.664 . S
C2592 C1281 1.664 . S
C2627 C381 0.871 . S
C2642 C20 0.871 . S
C2677 C469 0.873 . S
C2692 C145 0.873 . S
C2727 C585 0.873 . S
C2742 C205 0.874 . S
C2777 C665 0.872 . S
C2792 C284 0.872 . S
C2827 C761 0.873 . S
C2842 C1076 0.872 . S
C2877 C849 0.873 . S
C2892 C1164 0.873 . S
C2927 C1289 0.871 . S
C2942 C900 0.872 . S
C2977 C1369 0.871 . S
C2992 C988 0.872 . S
