# Generated by pormake.
# Topology unp, (4)-cn, num edge types: 1
# Building blocks:
#     Node 0, Type 0, BuildingBlock: GALJAG_clean_sbu_0, # of connection points: 4
#     Node 1, Type 0, BuildingBlock: GALJAG_clean_sbu_0, # of connection points: 4
#     Node 2, Type 0, BuildingBlock: GALJAG_clean_sbu_0, # of connection points: 4
#     Node 3, Type 0, BuildingBlock: GALJAG_clean_sbu_0, # of connection points: 4
#     Node 4, Type 0, BuildingBlock: GALJAG_clean_sbu_0, # of connection points: 4
#     Node 5, Type 0, BuildingBlock: GALJAG_clean_sbu_0, # of connection points: 4
#     Node 6, Type 0, BuildingBlock: GALJAG_clean_sbu_0, # of connection points: 4
#     Node 7, Type 0, BuildingBlock: GALJAG_clean_sbu_0, # of connection points: 4
#     Node 8, Type 0, BuildingBlock: GALJAG_clean_sbu_0, # of connection points: 4
#     Node 9, Type 0, BuildingBlock: GALJAG_clean_sbu_0, # of connection points: 4
#     Node 10, Type 0, BuildingBlock: GALJAG_clean_sbu_0, # of connection points: 4
#     Node 11, Type 0, BuildingBlock: GALJAG_clean_sbu_0, # of connection points: 4
#     Node 12, Type 0, BuildingBlock: GALJAG_clean_sbu_0, # of connection points: 4
#     Node 13, Type 0, BuildingBlock: GALJAG_clean_sbu_0, # of connection points: 4
#     Node 14, Type 0, BuildingBlock: GALJAG_clean_sbu_0, # of connection points: 4
#     Node 15, Type 0, BuildingBlock: GALJAG_clean_sbu_0, # of connection points: 4
#     Node 16, Type 0, BuildingBlock: GALJAG_clean_sbu_0, # of connection points: 4
#     Node 17, Type 0, BuildingBlock: GALJAG_clean_sbu_0, # of connection points: 4
#     Edge 18, Type (0, 0), BuildingBlock: CIFDUS_clean_linker_0, # of connection points: 2
#     Edge 19, Type (0, 0), BuildingBlock: CIFDUS_clean_linker_0, # of connection points: 2
#     Edge 20, Type (0, 0), BuildingBlock: CIFDUS_clean_linker_0, # of connection points: 2
#     Edge 21, Type (0, 0), BuildingBlock: CIFDUS_clean_linker_0, # of connection points: 2
#     Edge 22, Type (0, 0), BuildingBlock: CIFDUS_clean_linker_0, # of connection points: 2
#     Edge 23, Type (0, 0), BuildingBlock: CIFDUS_clean_linker_0, # of connection points: 2
#     Edge 24, Type (0, 0), BuildingBlock: CIFDUS_clean_linker_0, # of connection points: 2
#     Edge 25, Type (0, 0), BuildingBlock: CIFDUS_clean_linker_0, # of connection points: 2
#     Edge 26, Type (0, 0), BuildingBlock: CIFDUS_clean_linker_0, # of connection points: 2
#     Edge 27, Type (0, 0), BuildingBlock: CIFDUS_clean_linker_0, # of connection points: 2
#     Edge 28, Type (0, 0), BuildingBlock: CIFDUS_clean_linker_0, # of connection points: 2
#     Edge 29, Type (0, 0), BuildingBlock: CIFDUS_clean_linker_0, # of connection points: 2
#     Edge 30, Type (0, 0), BuildingBlock: CIFDUS_clean_linker_0, # of connection points: 2
#     Edge 31, Type (0, 0), BuildingBlock: CIFDUS_clean_linker_0, # of connection points: 2
#     Edge 32, Type (0, 0), BuildingBlock: CIFDUS_clean_linker_0, # of connection points: 2
#     Edge 33, Type (0, 0), BuildingBlock: CIFDUS_clean_linker_0, # of connection points: 2
#     Edge 34, Type (0, 0), BuildingBlock: CIFDUS_clean_linker_0, # of connection points: 2
#     Edge 35, Type (0, 0), BuildingBlock: CIFDUS_clean_linker_0, # of connection points: 2
#     Edge 36, Type (0, 0), BuildingBlock: CIFDUS_clean_linker_0, # of connection points: 2
#     Edge 37, Type (0, 0), BuildingBlock: CIFDUS_clean_linker_0, # of connection points: 2
#     Edge 38, Type (0, 0), BuildingBlock: CIFDUS_clean_linker_0, # of connection points: 2
#     Edge 39, Type (0, 0), BuildingBlock: CIFDUS_clean_linker_0, # of connection points: 2
#     Edge 40, Type (0, 0), BuildingBlock: CIFDUS_clean_linker_0, # of connection points: 2
#     Edge 41, Type (0, 0), BuildingBlock: CIFDUS_clean_linker_0, # of connection points: 2
#     Edge 42, Type (0, 0), BuildingBlock: CIFDUS_clean_linker_0, # of connection points: 2
#     Edge 43, Type (0, 0), BuildingBlock: CIFDUS_clean_linker_0, # of connection points: 2
#     Edge 44, Type (0, 0), BuildingBlock: CIFDUS_clean_linker_0, # of connection points: 2
#     Edge 45, Type (0, 0), BuildingBlock: CIFDUS_clean_linker_0, # of connection points: 2
#     Edge 46, Type (0, 0), BuildingBlock: CIFDUS_clean_linker_0, # of connection points: 2
#     Edge 47, Type (0, 0), BuildingBlock: CIFDUS_clean_linker_0, # of connection points: 2
#     Edge 48, Type (0, 0), BuildingBlock: CIFDUS_clean_linker_0, # of connection points: 2
#     Edge 49, Type (0, 0), BuildingBlock: CIFDUS_clean_linker_0, # of connection points: 2
#     Edge 50, Type (0, 0), BuildingBlock: CIFDUS_clean_linker_0, # of connection points: 2
#     Edge 51, Type (0, 0), BuildingBlock: CIFDUS_clean_linker_0, # of connection points: 2
#     Edge 52, Type (0, 0), BuildingBlock: CIFDUS_clean_linker_0, # of connection points: 2
#     Edge 53, Type (0, 0), BuildingBlock: CIFDUS_clean_linker_0, # of connection points: 2
# Relax obj value: 0.397
# Max RMSD: 0.140
# Mean RMSD: 0.140
data_MOF--net-unp--node1-GALJAG_clean_sbu_0--edge1-CIFDUS_clean_linker_0
_symmetry_space_group_name_H-M    P1
_symmetry_Int_Tables_number       1
_symmetry_cell_setting            triclinic
loop_
_symmetry_equiv_pos_as_xyz
'x, y, z'
_cell_length_a     43.616594
_cell_length_b     43.671925
_cell_length_c     37.403107
_cell_angle_alpha  90.066155
_cell_angle_beta   89.997464
_cell_angle_gamma 120.03433
loop_
_atom_site_label
_atom_site_type_symbol
_atom_site_fract_x
_atom_site_fract_y
_atom_site_fract_z
_atom_type_partial_charge
In0 In 0.17308 0.15723 0.1703 0.0
O1 O 0.21668 0.2109 0.19239 0.0
O2 O 0.23054 0.17286 0.17635 0.0
C3 C 0.12028 0.16535 0.19772 0.0
C4 C 0.16884 0.1628 0.09921 0.0
C5 C 0.15838 0.09009 0.18109 0.0
O6 O 0.13468 0.15119 0.21522 0.0
O7 O 0.1339 0.17703 0.16753 0.0
O8 O 0.16883 0.10595 0.15167 0.0
O9 O 0.15607 0.10843 0.20598 0.0
C10 C 0.24106 0.20398 0.18663 0.0
O11 O 0.19393 0.18589 0.11774 0.0
O12 O 0.14496 0.13733 0.11674 0.0
In13 In 0.85159 0.02676 0.19689 0.0
O14 O 0.79481 0.01371 0.18753 0.0
O15 O 0.82232 0.04809 0.23056 0.0
C16 C 0.83822 0.96112 0.21346 0.0
C17 C 0.86588 0.03782 0.12653 0.0
C18 C 0.91652 0.07364 0.22305 0.0
O19 O 0.8478 0.98527 0.23659 0.0
O20 O 0.83339 0.96961 0.18264 0.0
O21 O 0.9031 0.08011 0.19636 0.0
O22 O 0.89654 0.04424 0.23759 0.0
C23 C 0.79446 0.03323 0.21202 0.0
O24 O 0.8559 0.05551 0.14489 0.0
O25 O 0.86955 0.01507 0.1439 0.0
In26 In 0.96851 0.82996 0.15976 0.0
O27 O 0.98536 0.86303 0.10862 0.0
O28 O 0.94656 0.80836 0.10477 0.0
C29 C 0.9116 0.83574 0.17861 0.0
C30 C 0.96692 0.76845 0.17417 0.0
C31 C 0.02728 0.88654 0.18643 0.0
O32 O 0.9365 0.84231 0.19997 0.0
O33 O 0.91485 0.82514 0.14832 0.0
O34 O -0.0013 0.87043 0.20364 0.0
O35 O 0.02673 0.87307 0.15643 0.0
C36 C 0.96525 0.83731 0.08868 0.0
O37 O 0.98679 0.78985 0.15086 0.0
O38 O 0.94919 0.77883 0.19169 0.0
In39 In 0.15178 0.15953 0.81833 0.0
O40 O 0.20006 0.21139 0.79836 0.0
O41 O 0.16651 0.21346 0.83832 0.0
C42 C 0.17399 0.11982 0.78447 0.0
C43 C 0.14682 0.14354 0.88825 0.0
C44 C 0.0865 0.13806 0.79157 0.0
O45 O 0.16366 0.13807 0.76748 0.0
O46 O 0.17642 0.12485 0.81782 0.0
O47 O 0.09914 0.11791 0.79519 0.0
O48 O 0.10699 0.16967 0.80093 0.0
C49 C 0.19443 0.2301 0.82034 0.0
O50 O 0.11972 0.13246 0.86873 0.0
O51 O 0.17588 0.16095 0.87212 0.0
In52 In 0.82891 0.99138 0.85026 0.0
O53 O 0.8561 0.98373 0.89869 0.0
O54 O 0.84084 0.0229 0.90185 0.0
C55 C 0.8306 0.93427 0.82559 0.0
C56 C 0.76024 0.97496 0.8488 0.0
C57 C 0.88326 0.04692 0.81662 0.0
O58 O 0.82803 0.93933 0.85843 0.0
O59 O 0.83076 0.95728 0.80505 0.0
O60 O 0.8681 0.05087 0.84348 0.0
O61 O 0.86944 0.01553 0.80564 0.0
C62 C 0.8546 0.00704 0.91735 0.0
O63 O 0.7729 0.96304 0.8713 0.0
O64 O 0.78216 0.99525 0.82582 0.0
In65 In 0.01444 0.86505 0.81149 0.0
O66 O 0.02448 0.89721 0.86304 0.0
O67 O 0.98338 0.84348 0.86283 0.0
C68 C 0.07779 0.92119 0.79461 0.0
C69 C 0.02539 0.81022 0.79989 0.0
C70 C 0.95815 0.86601 0.78224 0.0
O71 O 0.07125 0.90626 0.82478 0.0
O72 O 0.05252 0.90715 0.7725 0.0
O73 O 0.98951 0.89093 0.77873 0.0
O74 O 0.95519 0.83963 0.79892 0.0
C75 C 0.00053 0.8717 0.88045 0.0
O76 O 0.02311 0.8209 0.83038 0.0
O77 O 0.02147 0.82682 0.77437 0.0
In78 In 0.8393 0.46359 0.48134 0.0
O79 O 0.88054 0.51948 0.5011 0.0
O80 O 0.89457 0.49491 0.4601 0.0
C81 C 0.77517 0.44771 0.50544 0.0
C82 C 0.82132 0.45731 0.41199 0.0
C83 C 0.84505 0.41655 0.52311 0.0
O84 O 0.80039 0.47953 0.50504 0.0
O85 O 0.78282 0.42525 0.49384 0.0
O86 O 0.84438 0.41472 0.48936 0.0
O87 O 0.84582 0.44385 0.53553 0.0
C88 C 0.90384 0.52182 0.47931 0.0
O89 O 0.83423 0.43982 0.42582 0.0
O90 O 0.81765 0.47781 0.43311 0.0
In91 In 0.49601 0.31237 0.51608 0.0
O92 O 0.44627 0.31659 0.51105 0.0
O93 O 0.48442 0.349 0.54969 0.0
C94 C 0.47796 0.25293 0.55327 0.0
C95 C 0.49527 0.31171 0.44415 0.0
C96 C 0.56686 0.34414 0.52357 0.0
O97 O 0.49549 0.28336 0.56696 0.0
O98 O 0.46553 0.2527 0.52274 0.0
O99 O 0.54758 0.31225 0.51464 0.0
O100 O 0.55054 0.3609 0.52839 0.0
C101 C 0.45583 0.34094 0.53383 0.0
O102 O 0.5104 0.33991 0.46215 0.0
O103 O 0.48038 0.28371 0.46244 0.0
In104 In 0.65731 0.1801 0.51407 0.0
O105 O 0.64839 0.12398 0.52425 0.0
O106 O 0.61883 0.13173 0.48366 0.0
C107 C 0.71742 0.22409 0.54907 0.0
C108 C 0.68325 0.20955 0.44979 0.0
C109 C 0.6047 0.18324 0.54797 0.0
O110 O 0.71138 0.19438 0.53741 0.0
O111 O 0.69214 0.23007 0.54527 0.0
O112 O 0.61048 0.1886 0.51488 0.0
O113 O 0.62588 0.17657 0.56475 0.0
C114 C 0.62549 0.11044 0.49963 0.0
O115 O 0.65852 0.21186 0.46472 0.0
O116 O 0.69477 0.19288 0.46739 0.0
In117 In 0.82929 0.49695 0.13566 0.0
O118 O 0.7995 0.47695 0.18827 0.0
O119 O 0.84498 0.4719 0.18037 0.0
C120 C 0.76926 0.49672 0.11759 0.0
C121 C 0.88204 0.56542 0.13659 0.0
C122 C 0.83163 0.44457 0.09953 0.0
O123 O 0.78061 0.50058 0.14924 0.0
O124 O 0.78887 0.49401 0.09442 0.0
O125 O 0.80697 0.45143 0.09592 0.0
O126 O 0.85651 0.46577 0.11962 0.0
C127 C 0.82021 0.46745 0.20098 0.0
O128 O 0.8721 0.5481 0.10776 0.0
O129 O 0.86598 0.54807 0.16376 0.0
In130 In 0.51217 0.34671 0.16238 0.0
O131 O 0.50741 0.31947 0.21566 0.0
O132 O 0.51219 0.37049 0.21625 0.0
C133 C 0.53635 0.30363 0.14096 0.0
C134 C 0.44453 0.32447 0.14214 0.0
C135 C 0.56833 0.41033 0.1455 0.0
O136 O 0.51792 0.29785 0.16882 0.0
O137 O 0.54246 0.33102 0.12392 0.0
O138 O 0.54615 0.39098 0.12207 0.0
O139 O 0.56109 0.39819 0.17675 0.0
C140 C 0.50898 0.34451 0.23406 0.0
O141 O 0.46141 0.35038 0.16272 0.0
O142 O 0.46277 0.3122 0.12931 0.0
In143 In 0.69445 0.19815 0.1737 0.0
O144 O 0.67025 0.21448 0.21876 0.0
O145 O 0.7201 0.21847 0.22819 0.0
C146 C 0.7536 0.25034 0.14283 0.0
C147 C 0.69405 0.13587 0.17391 0.0
C148 C 0.63701 0.19786 0.14657 0.0
O149 O 0.75121 0.24393 0.17587 0.0
O150 O 0.72659 0.22938 0.12497 0.0
O151 O 0.66834 0.22066 0.13853 0.0
O152 O 0.63438 0.17363 0.16702 0.0
C153 C 0.69514 0.22207 0.24047 0.0
O154 O 0.68927 0.14959 0.20127 0.0
O155 O 0.69738 0.15265 0.14543 0.0
In156 In 0.49036 0.81608 0.84045 0.0
O157 O 0.53594 0.84053 0.88083 0.0
O158 O 0.53687 0.87257 0.83807 0.0
C159 C 0.4346 0.82536 0.85444 0.0
C160 C 0.48695 0.80699 0.76918 0.0
C161 C 0.4821 0.75275 0.85965 0.0
O162 O 0.44348 0.8082 0.87485 0.0
O163 O 0.45553 0.84013 0.82879 0.0
O164 O 0.46949 0.76834 0.87764 0.0
O165 O 0.49983 0.76966 0.83269 0.0
C166 C 0.55268 0.86971 0.86482 0.0
O167 O 0.51537 0.82756 0.78534 0.0
O168 O 0.46032 0.79009 0.78914 0.0
In169 In 0.16424 0.67271 0.82105 0.0
O170 O 0.11383 0.67082 0.84277 0.0
O171 O 0.14631 0.71127 0.8062 0.0
C172 C 0.15714 0.61445 0.85418 0.0
C173 C 0.16115 0.65415 0.75219 0.0
C174 C 0.22854 0.72359 0.84427 0.0
O175 O 0.16251 0.64162 0.8712 0.0
O176 O 0.15326 0.61603 0.82103 0.0
O177 O 0.20423 0.70318 0.86518 0.0
O178 O 0.22026 0.71889 0.8116 0.0
C179 C 0.11847 0.69708 0.82452 0.0
O180 O 0.19025 0.67342 0.7681 0.0
O181 O 0.13381 0.64364 0.77137 0.0
In182 In 0.30411 0.49287 0.8565 0.0
O183 O 0.31994 0.45061 0.86103 0.0
O184 O 0.2745 0.44253 0.88946 0.0
C185 C 0.36384 0.54933 0.88178 0.0
C186 C 0.30739 0.49289 0.78476 0.0
C187 C 0.24655 0.5003 0.86489 0.0
O188 O 0.33668 0.53202 0.90088 0.0
O189 O 0.36153 0.53667 0.85099 0.0
O190 O 0.24976 0.48308 0.8396 0.0
O191 O 0.27209 0.51325 0.88661 0.0
C192 C 0.29349 0.42988 0.87951 0.0
O193 O 0.31352 0.5202 0.8022 0.0
O194 O 0.29957 0.466 0.80353 0.0
In195 In 0.49343 0.83792 0.48727 0.0
O196 O 0.55028 0.88253 0.4759 0.0
O197 O 0.50809 0.89227 0.46656 0.0
C198 C 0.49676 0.78229 0.45931 0.0
C199 C 0.49942 0.8342 0.55847 0.0
C200 C 0.42771 0.82806 0.47841 0.0
O201 O 0.48497 0.79878 0.44173 0.0
O202 O 0.50894 0.79547 0.48946 0.0
O203 O 0.44419 0.83759 0.50774 0.0
O204 O 0.44453 0.82372 0.45327 0.0
C205 C 0.54103 0.90472 0.46768 0.0
O206 O 0.47246 0.81179 0.54137 0.0
O207 O 0.52302 0.85858 0.53968 0.0
In208 In 0.17339 0.6535 0.47003 0.0
O209 O 0.14961 0.63486 0.52538 0.0
O210 O 0.20575 0.66419 0.52107 0.0
C211 C 0.19119 0.6054 0.44786 0.0
C212 C 0.10811 0.63975 0.45013 0.0
C213 C 0.22441 0.71915 0.45096 0.0
O214 O 0.17108 0.60006 0.47419 0.0
O215 O 0.20125 0.63437 0.43212 0.0
O216 O 0.20992 0.69403 0.42888 0.0
O217 O 0.21068 0.71189 0.48165 0.0
C218 C 0.17911 0.64861 0.54126 0.0
O219 O 0.12556 0.66161 0.47438 0.0
O220 O 0.1244 0.62654 0.43459 0.0
In221 In 0.35789 0.51725 0.50647 0.0
O222 O 0.33623 0.49168 0.56006 0.0
O223 O 0.3549 0.54683 0.55567 0.0
C224 C 0.41308 0.58044 0.4872 0.0
C225 C 0.37824 0.46834 0.49992 0.0
C226 C 0.29783 0.50885 0.4762 0.0
O227 O 0.40819 0.56875 0.51874 0.0
O228 O 0.39044 0.55984 0.46481 0.0
O229 O 0.32759 0.52546 0.46105 0.0
O230 O 0.29814 0.49464 0.50537 0.0
C231 C 0.34168 0.51972 0.57537 0.0
O232 O 0.35298 0.4664 0.48168 0.0
O233 O 0.39383 0.49549 0.51911 0.0
H234 H 0.39808 0.33216 0.18468 0.0
H235 H 0.40367 0.2705 0.09723 0.0
H236 H 0.34096 0.2275 0.10425 0.0
H237 H 0.28642 0.20465 0.13844 0.0
H238 H 0.2785 0.26591 0.22462 0.0
H239 H 0.34071 0.31183 0.21538 0.0
C240 C 0.38532 0.30979 0.16659 0.0
C241 C 0.40551 0.30437 0.14058 0.0
C242 C 0.34929 0.2847 0.17126 0.0
C243 C 0.38871 0.27521 0.11745 0.0
C244 C 0.35295 0.25043 0.12168 0.0
C245 C 0.2984 0.22793 0.15546 0.0
C246 C 0.27848 0.23157 0.1829 0.0
C247 C 0.3334 0.25433 0.14923 0.0
C248 C 0.29374 0.26237 0.20383 0.0
C249 C 0.32912 0.28862 0.19835 0.0
H250 H 0.75417 0.0332 0.15748 0.0
H251 H 0.77559 0.05863 0.26946 0.0
H252 H 0.73974 0.08742 0.26842 0.0
H253 H 0.71056 0.11294 0.23369 0.0
H254 H 0.69654 0.0948 0.11994 0.0
H255 H 0.72083 0.05502 0.12356 0.0
C256 C 0.75018 0.04423 0.18187 0.0
C257 C 0.76735 0.04385 0.21356 0.0
C258 C 0.73127 0.06238 0.18051 0.0
C259 C 0.76255 0.05869 0.24483 0.0
C260 C 0.74224 0.07526 0.24415 0.0
C261 C 0.71206 0.09965 0.2098 0.0
C262 C 0.70194 0.10683 0.17654 0.0
C263 C 0.72768 0.07842 0.21184 0.0
C264 C 0.70429 0.0897 0.14578 0.0
C265 C 0.71829 0.06712 0.14785 0.0
H266 H 0.89889 0.60582 0.19567 0.0
H267 H 0.92103 0.61109 0.08269 0.0
H268 H 0.95544 0.67582 0.08623 0.0
H269 H 0.97194 0.73044 0.11992 0.0
H270 H 0.94326 0.72398 0.23115 0.0
H271 H 0.91909 0.65994 0.2301 0.0
C272 C 0.91168 0.62104 0.17185 0.0
C273 C 0.90717 0.60379 0.13886 0.0
C274 C 0.9301 0.65798 0.17388 0.0
C275 C 0.92398 0.62385 0.10832 0.0
C276 C 0.94353 0.6608 0.11035 0.0
C277 C 0.96123 0.71505 0.14413 0.0
C278 C 0.95935 0.73168 0.17563 0.0
C279 C 0.94578 0.67813 0.14277 0.0
C280 C 0.94493 0.71158 0.20669 0.0
C281 C 0.93098 0.67504 0.206 0.0
H282 H 0.3079 0.39229 0.83171 0.0
H283 H 0.24633 0.38157 0.92603 0.0
H284 H 0.21115 0.31775 0.91633 0.0
H285 H 0.19345 0.26694 0.87733 0.0
H286 H 0.25259 0.27703 0.78129 0.0
H287 H 0.29315 0.33968 0.79506 0.0
C288 C 0.28751 0.3758 0.85075 0.0
C289 C 0.27969 0.39147 0.87964 0.0
C290 C 0.26639 0.33941 0.84404 0.0
C291 C 0.25285 0.36998 0.90376 0.0
C292 C 0.23252 0.33362 0.89797 0.0
C293 C 0.2152 0.2828 0.8593 0.0
C294 C 0.21965 0.26768 0.82791 0.0
C295 C 0.2382 0.31839 0.86747 0.0
C296 C 0.24839 0.28831 0.80532 0.0
C297 C 0.27161 0.32399 0.81331 0.0
H298 H 0.71342 0.93972 0.90121 0.0
H299 H 0.72228 0.98654 0.79748 0.0
H300 H 0.65802 0.96235 0.79609 0.0
H301 H 0.59916 0.92195 0.8213 0.0
H302 H 0.59093 0.87269 0.92355 0.0
H303 H 0.65539 0.90456 0.92904 0.0
C304 C 0.70136 0.94495 0.87842 0.0
C305 C 0.72238 0.96437 0.84921 0.0
C306 C 0.66459 0.93059 0.87764 0.0
C307 C 0.70653 0.97141 0.82013 0.0
C308 C 0.66984 0.95756 0.81934 0.0
C309 C 0.61147 0.91888 0.84519 0.0
C310 C 0.5904 0.89484 0.87192 0.0
C311 C 0.64855 0.9363 0.84753 0.0
C312 C 0.60664 0.89097 0.90262 0.0
C313 C 0.64346 0.90898 0.90563 0.0
H314 H 0.10775 0.73012 0.76965 0.0
H315 H 0.07319 0.69329 0.87707 0.0
H316 H 0.03723 0.72209 0.8772 0.0
H317 H 0.02132 0.76306 0.8489 0.0
H318 H 0.05537 0.799 0.74107 0.0
H319 H 0.08537 0.76439 0.73851 0.0
C320 C 0.09206 0.72817 0.79296 0.0
C321 C 0.09349 0.71036 0.8236 0.0
C322 C 0.07144 0.74449 0.79264 0.0
C323 C 0.07256 0.70717 0.85335 0.0
C324 C 0.05214 0.72366 0.85341 0.0
C325 C 0.03477 0.76276 0.82462 0.0
C326 C 0.03664 0.78384 0.79536 0.0
C327 C 0.05217 0.74314 0.82353 0.0
C328 C 0.05367 0.78297 0.76389 0.0
C329 C 0.07104 0.76345 0.76255 0.0
H330 H 0.94753 0.53829 0.42323 0.0
H331 H 0.94059 0.57439 0.52866 0.0
H332 H 0.00363 0.61954 0.52614 0.0
H333 H 0.06203 0.64229 0.49721 0.0
H334 H 0.06816 0.60292 0.39314 0.0
H335 H 0.0038 0.56595 0.39144 0.0
C336 C 0.95971 0.55634 0.44552 0.0
C337 C 0.9398 0.55269 0.47638 0.0
C338 C 0.99576 0.58157 0.44403 0.0
C339 C 0.95558 0.57661 0.50475 0.0
C340 C 0.99158 0.60229 0.50332 0.0
C341 C 0.04914 0.62638 0.47375 0.0
C342 C 0.06971 0.62503 0.44543 0.0
C343 C 0.01217 0.60417 0.47356 0.0
C344 C 0.05282 0.60418 0.41529 0.0
C345 C 0.01608 0.5829 0.41442 0.0
H346 H 0.41956 0.46203 0.5492 0.0
H347 H 0.35616 0.41064 0.45597 0.0
H348 H 0.37155 0.36389 0.46078 0.0
H349 H 0.40576 0.33982 0.48983 0.0
H350 H 0.46936 0.39234 0.58272 0.0
H351 H 0.45031 0.43618 0.58025 0.0
C352 C 0.40914 0.44066 0.52981 0.0
C353 C 0.38723 0.44001 0.5019 0.0
C354 C 0.41777 0.41395 0.53301 0.0
C355 C 0.3734 0.41184 0.47744 0.0
C356 C 0.38207 0.3851 0.4803 0.0
C357 C 0.41488 0.36046 0.50996 0.0
C358 C 0.43898 0.36291 0.53643 0.0
C359 C 0.40449 0.38608 0.50783 0.0
C360 C 0.45078 0.3899 0.56215 0.0
C361 C 0.44012 0.41511 0.56057 0.0
H362 H 0.64709 0.06217 0.51083 0.0
H363 H 0.56355 0.07487 0.46433 0.0
H364 H 0.53253 0.01324 0.44568 0.0
H365 H 0.52695 0.955 0.44583 0.0
H366 H 0.60943 0.9406 0.49202 0.0
H367 H 0.64364 0.00378 0.50636 0.0
C368 C 0.62207 0.05128 0.4967 0.0
C369 C 0.60737 0.07282 0.48939 0.0
C370 C 0.60445 0.01572 0.4855 0.0
C371 C 0.57529 0.05871 0.47047 0.0
C372 C 0.55755 0.02351 0.45965 0.0
C373 C 0.55276 0.96581 0.45838 0.0
C374 C 0.56557 0.94324 0.46801 0.0
C375 C 0.5717 0.00173 0.4673 0.0
C376 C 0.5991 0.95756 0.48413 0.0
C377 C 0.61845 0.99358 0.49276 0.0
H378 H 0.07594 0.1249 0.25077 0.0
H379 H 0.08709 0.19706 0.1664 0.0
H380 H 0.02452 0.179 0.17152 0.0
H381 H 0.96513 0.135 0.19194 0.0
H382 H 0.95327 0.06033 0.27382 0.0
H383 H 0.01754 0.08745 0.27818 0.0
C384 C 0.0649 0.13743 0.23427 0.0
C385 C 0.08593 0.16184 0.20786 0.0
C386 C 0.02859 0.12604 0.23652 0.0
C387 C 0.07132 0.17792 0.1867 0.0
C388 C 0.03548 0.16746 0.18946 0.0
C389 C 0.97663 0.12524 0.21139 0.0
C390 C 0.95451 0.09533 0.23205 0.0
C391 C 0.01356 0.14031 0.21303 0.0
C392 C 0.96975 0.08316 0.25736 0.0
C393 C 0.00652 0.09853 0.25973 0.0
H394 H 0.81868 0.90611 0.16806 0.0
H395 H 0.86536 0.94531 0.27174 0.0
H396 H 0.88738 0.90378 0.27299 0.0
H397 H 0.90378 0.86584 0.239 0.0
H398 H 0.85924 0.82897 0.13407 0.0
H399 H 0.82555 0.85955 0.13918 0.0
C400 C 0.83275 0.90481 0.1914 0.0
C401 C 0.84108 0.92923 0.21938 0.0
C402 C 0.84628 0.88168 0.19143 0.0
C403 C 0.85888 0.92697 0.24969 0.0
C404 C 0.87177 0.90343 0.25028 0.0
C405 C 0.88594 0.86371 0.21769 0.0
C406 C 0.88462 0.84591 0.18588 0.0
C407 C 0.86729 0.8821 0.22043 0.0
C408 C 0.8611 0.84297 0.15864 0.0
C409 C 0.84192 0.86057 0.16147 0.0
H410 H 0.11595 0.04495 0.23281 0.0
H411 H 0.17043 0.0493 0.13501 0.0
H412 H 0.13834 0.98491 0.13145 0.0
H413 H 0.08804 0.9285 0.15049 0.0
H414 H 0.03094 0.92398 0.24636 0.0
H415 H 0.07117 0.98701 0.25673 0.0
C416 C 0.12143 0.03172 0.21128 0.0
C417 C 0.1451 0.05177 0.18395 0.0
C418 C 0.10208 0.99462 0.20881 0.0
C419 C 0.152 0.03438 0.15616 0.0
C420 C 0.13358 0.99756 0.15403 0.0
C421 C 0.08493 0.94112 0.17412 0.0
C422 C 0.05626 0.92178 0.19729 0.0
C423 C 0.10748 0.97752 0.17934 0.0
C424 C 0.05268 0.93839 0.22794 0.0
C425 C 0.07555 0.9745 0.23379 0.0
H426 H 0.09113 0.96553 0.73834 0.0
H427 H 0.13596 0.95502 0.83724 0.0
H428 H 0.17945 0.01802 0.83648 0.0
H429 H 0.19386 0.07687 0.81608 0.0
H430 H 0.14512 0.08803 0.72045 0.0
H431 H 0.11543 0.02426 0.71057 0.0
C432 C 0.11114 0.97684 0.7591 0.0
C433 C 0.10974 0.95592 0.78833 0.0
C434 C 0.13527 0.0134 0.75919 0.0
C435 C 0.13607 0.97076 0.81481 0.0
C436 C 0.16092 0.00682 0.81444 0.0
C437 C 0.17786 0.0655 0.79229 0.0
C438 C 0.17076 0.08693 0.76969 0.0
C439 C 0.15924 0.02866 0.788 0.0
C440 C 0.15063 0.07205 0.73857 0.0
C441 C 0.13318 0.03544 0.73319 0.0
H442 H 0.04312 0.16211 0.81377 0.0
H443 H 0.046 0.08161 0.74941 0.0
H444 H 0.9815 0.04964 0.74494 0.0
H445 H 0.92495 0.03922 0.76843 0.0
H446 H 0.92158 0.1159 0.83865 0.0
H447 H 0.98536 0.15519 0.83103 0.0
C448 C 0.02957 0.13814 0.7979 0.0
C449 C 0.04905 0.124 0.78212 0.0
C450 C 0.99235 0.11903 0.79689 0.0
C451 C 0.03137 0.09277 0.76194 0.0
C452 C 0.99453 0.07445 0.75949 0.0
C453 C 0.93796 0.06495 0.78131 0.0
C454 C 0.9187 0.07445 0.80446 0.0
C455 C 0.97476 0.08649 0.77823 0.0
C456 C 0.93591 0.10791 0.82086 0.0
C457 C 0.97243 0.13025 0.81672 0.0
H458 H 0.89655 0.83717 0.81855 0.0
H459 H 0.95332 0.90851 0.73216 0.0
H460 H 0.91179 0.93071 0.73289 0.0
H461 H 0.86783 0.93844 0.76637 0.0
H462 H 0.81712 0.87315 0.85844 0.0
H463 H 0.84708 0.83945 0.84698 0.0
C464 C 0.89899 0.85664 0.79905 0.0
C465 C 0.9279 0.87135 0.77542 0.0
C466 C 0.87638 0.87078 0.80117 0.0
C467 C 0.93122 0.89693 0.75061 0.0
C468 C 0.90765 0.90979 0.75123 0.0
C469 C 0.86246 0.91607 0.78319 0.0
C470 C 0.84056 0.90835 0.81333 0.0
C471 C 0.88134 0.89824 0.77763 0.0
C472 C 0.83407 0.87961 0.83519 0.0
C473 C 0.85134 0.8605 0.82875 0.0
H474 H 0.72539 0.38223 0.52334 0.0
H475 H 0.74281 0.48791 0.51106 0.0
H476 H 0.6791 0.4655 0.51915 0.0
H477 H 0.6177 0.4143 0.52309 0.0
H478 H 0.60243 0.30898 0.53232 0.0
H479 H 0.66614 0.33283 0.53206 0.0
C480 C 0.71535 0.4005 0.52279 0.0
C481 C 0.73853 0.43654 0.51616 0.0
C482 C 0.67903 0.38737 0.52656 0.0
C483 C 0.72533 0.45999 0.5161 0.0
C484 C 0.68894 0.44713 0.52046 0.0
C485 C 0.62848 0.39676 0.52551 0.0
C486 C 0.60549 0.35994 0.52724 0.0
C487 C 0.66539 0.41066 0.52469 0.0
C488 C 0.61962 0.33739 0.53044 0.0
C489 C 0.65603 0.35097 0.53037 0.0
H490 H 0.52296 0.2546 0.60469 0.0
H491 H 0.44924 0.18704 0.52407 0.0
H492 H 0.48026 0.15378 0.51985 0.0
H493 H 0.53695 0.15504 0.52716 0.0
H494 H 0.61158 0.22308 0.60654 0.0
H495 H 0.57174 0.24514 0.62323 0.0
C496 C 0.51271 0.23161 0.58736 0.0
C497 C 0.48459 0.22409 0.56379 0.0
C498 C 0.5316 0.21348 0.58401 0.0
C499 C 0.47124 0.19383 0.542 0.0
C500 C 0.48929 0.17506 0.5392 0.0
C501 C 0.54378 0.17375 0.549 0.0
C502 C 0.57711 0.18793 0.56533 0.0
C503 C 0.52092 0.18639 0.55813 0.0
C504 C 0.58591 0.21191 0.59371 0.0
C505 C 0.56326 0.22466 0.60303 0.0
H506 H 0.85155 0.35923 0.50761 0.0
H507 H 0.81151 0.40173 0.58724 0.0
H508 H 0.77148 0.34242 0.60951 0.0
H509 H 0.73732 0.27898 0.59468 0.0
H510 H 0.77757 0.23626 0.51567 0.0
H511 H 0.82864 0.2949 0.50557 0.0
C512 C 0.83518 0.35557 0.53085 0.0
C513 C 0.83371 0.3846 0.54508 0.0
C514 C 0.81179 0.32124 0.54324 0.0
C515 C 0.81286 0.37973 0.57554 0.0
C516 C 0.78962 0.34572 0.58809 0.0
C517 C 0.75821 0.28232 0.57657 0.0
C518 C 0.75348 0.25369 0.55544 0.0
C519 C 0.78719 0.31624 0.57047 0.0
C520 C 0.78068 0.25802 0.53221 0.0
C521 C 0.80967 0.29168 0.52605 0.0
H522 H 0.75132 0.28309 0.08236 0.0
H523 H 0.81851 0.29391 0.17173 0.0
H524 H 0.85622 0.3568 0.1588 0.0
H525 H 0.86075 0.40994 0.13181 0.0
H526 H 0.7885 0.39974 0.04784 0.0
H527 H 0.76286 0.33557 0.04801 0.0
C528 C 0.77496 0.29896 0.09817 0.0
C529 C 0.78186 0.28415 0.1283 0.0
C530 C 0.79535 0.33546 0.09177 0.0
C531 C 0.8125 0.30493 0.14863 0.0
C532 C 0.83394 0.34093 0.14136 0.0
C533 C 0.8404 0.39377 0.11254 0.0
C534 C 0.82613 0.40937 0.0902 0.0
C535 C 0.82432 0.35681 0.11441 0.0
C536 C 0.79967 0.38819 0.06547 0.0
C537 C 0.78478 0.35147 0.06582 0.0
H538 H 0.72883 0.51275 0.15937 0.0
H539 H 0.72836 0.46399 0.05894 0.0
H540 H 0.66412 0.43833 0.05453 0.0
H541 H 0.60757 0.41998 0.08574 0.0
H542 H 0.60895 0.46628 0.18802 0.0
H543 H 0.67319 0.50344 0.18479 0.0
C544 C 0.71477 0.49729 0.13604 0.0
C545 C 0.73308 0.48967 0.10988 0.0
C546 C 0.67786 0.48196 0.13418 0.0
C547 C 0.71474 0.47003 0.07955 0.0
C548 C 0.67796 0.45515 0.07715 0.0
C549 C 0.62186 0.43929 0.10653 0.0
C550 C 0.60375 0.44026 0.13723 0.0
C551 C 0.65906 0.45951 0.1052 0.0
C552 C 0.62248 0.46503 0.16424 0.0
C553 C 0.65923 0.48605 0.16255 0.0
H554 H 0.52193 0.24039 0.16897 0.0
H555 H 0.58649 0.31836 0.09021 0.0
H556 H 0.61965 0.2878 0.07995 0.0
H557 H 0.63596 0.24451 0.1 0.0
H558 H 0.57264 0.1673 0.17979 0.0
H559 H 0.53261 0.19123 0.18217 0.0
C560 C 0.54288 0.25032 0.14916 0.0
C561 C 0.55225 0.28193 0.13089 0.0
C562 C 0.56204 0.23275 0.14357 0.0
C563 C 0.57905 0.29426 0.10489 0.0
C564 C 0.59806 0.27684 0.09903 0.0
C565 C 0.61284 0.23231 0.11719 0.0
C566 C 0.60754 0.20459 0.14008 0.0
C567 C 0.5906 0.24683 0.11914 0.0
C568 C 0.57732 0.18874 0.16195 0.0
C569 C 0.55465 0.20267 0.16362 0.0
H570 H 0.28068 0.77953 0.80872 0.0
H571 H 0.2581 0.72128 0.90748 0.0
H572 H 0.32094 0.75315 0.92302 0.0
H573 H 0.38273 0.79018 0.90361 0.0
H574 H 0.40517 0.84844 0.80479 0.0
H575 H 0.34204 0.82487 0.79479 0.0
C576 C 0.2895 0.77438 0.83396 0.0
C577 C 0.26503 0.74769 0.85659 0.0
C578 C 0.32567 0.79275 0.84268 0.0
C579 C 0.27657 0.74158 0.88949 0.0
C580 C 0.31251 0.7597 0.89834 0.0
C581 C 0.37384 0.79855 0.88045 0.0
C582 C 0.39852 0.82042 0.85464 0.0
C583 C 0.33741 0.78432 0.87447 0.0
C584 C 0.38668 0.83136 0.82494 0.0
C585 C 0.35053 0.81764 0.81901 0.0
H586 H 0.23709 0.54147 0.91319 0.0
H587 H 0.19212 0.47906 0.81781 0.0
H588 H 0.15375 0.50428 0.81035 0.0
H589 H 0.14183 0.55209 0.82428 0.0
H590 H 0.18851 0.61655 0.91801 0.0
H591 H 0.21646 0.58182 0.9334 0.0
C592 C 0.21826 0.53277 0.8913 0.0
C593 C 0.21801 0.5091 0.86563 0.0
C594 C 0.19674 0.54795 0.88674 0.0
C595 C 0.19318 0.49767 0.83765 0.0
C596 C 0.17128 0.51214 0.83329 0.0
C597 C 0.15725 0.55783 0.84867 0.0
C598 C 0.16372 0.5872 0.86958 0.0
C599 C 0.17412 0.53853 0.85667 0.0
C600 C 0.18332 0.59414 0.90135 0.0
C601 C 0.19963 0.57453 0.90996 0.0
H602 H 0.44276 0.71048 0.91447 0.0
H603 H 0.49877 0.71139 0.819 0.0
H604 H 0.4715 0.64718 0.82163 0.0
H605 H 0.42398 0.59075 0.8447 0.0
H606 H 0.36622 0.58953 0.93884 0.0
H607 H 0.40259 0.65378 0.94368 0.0
C608 C 0.44962 0.69668 0.89474 0.0
C609 C 0.47216 0.71555 0.86617 0.0
C610 C 0.43331 0.65965 0.89603 0.0
C611 C 0.48117 0.69742 0.84104 0.0
C612 C 0.46548 0.66067 0.84244 0.0
C613 C 0.42002 0.60444 0.86686 0.0
C614 C 0.39204 0.58553 0.89096 0.0
C615 C 0.44032 0.64144 0.86887 0.0
C616 C 0.38745 0.60353 0.91978 0.0
C617 C 0.40804 0.64033 0.92238 0.0
H618 H 0.5178 0.74246 0.49523 0.0
H619 H 0.45685 0.74058 0.40361 0.0
H620 H 0.4294 0.6762 0.40019 0.0
H621 H 0.41435 0.62029 0.43075 0.0
H622 H 0.47201 0.62318 0.52562 0.0
H623 H 0.50931 0.68717 0.52012 0.0
C624 C 0.49925 0.72808 0.47388 0.0
C625 C 0.4889 0.74615 0.4501 0.0
C626 C 0.48247 0.69108 0.47311 0.0
C627 C 0.46511 0.72724 0.42237 0.0
C628 C 0.44914 0.69037 0.42064 0.0
C629 C 0.43574 0.63488 0.44959 0.0
C630 C 0.44017 0.61722 0.47883 0.0
C631 C 0.45628 0.67191 0.447 0.0
C632 C 0.46787 0.63633 0.50313 0.0
C633 C 0.48915 0.67291 0.50005 0.0
H634 H 0.26576 0.76949 0.49891 0.0
H635 H 0.26422 0.73591 0.39008 0.0
H636 H 0.32868 0.77192 0.38725 0.0
H637 H 0.38536 0.80296 0.4197 0.0
H638 H 0.38634 0.83321 0.52977 0.0
H639 H 0.32236 0.80861 0.52809 0.0
C640 C 0.27941 0.77093 0.47418 0.0
C641 C 0.26031 0.74954 0.445 0.0
C642 C 0.31652 0.79041 0.47328 0.0
C643 C 0.27835 0.75192 0.41305 0.0
C644 C 0.31527 0.7722 0.41154 0.0
C645 C 0.37163 0.80479 0.44307 0.0
C646 C 0.39041 0.81918 0.47502 0.0
C647 C 0.33468 0.78994 0.44214 0.0
C648 C 0.3724 0.82178 0.50498 0.0
C649 C 0.33578 0.80771 0.50406 0.0
H650 H 0.29512 0.5488 0.42211 0.0
H651 H 0.23264 0.47866 0.50726 0.0
H652 H 0.18972 0.49868 0.50165 0.0
H653 H 0.17655 0.54411 0.48062 0.0
H654 H 0.2407 0.61621 0.39747 0.0
H655 H 0.27596 0.58712 0.39386 0.0
C656 C 0.27156 0.53712 0.4387 0.0
C657 C 0.26741 0.51282 0.46551 0.0
C658 C 0.24758 0.54959 0.43612 0.0
C659 C 0.23663 0.49772 0.48665 0.0
C660 C 0.21219 0.50934 0.48364 0.0
C661 C 0.1977 0.55289 0.46111 0.0
C662 C 0.20648 0.58269 0.43988 0.0
C663 C 0.21839 0.53656 0.45975 0.0
C664 C 0.23368 0.59355 0.41443 0.0
C665 C 0.25396 0.57702 0.41243 0.0
H666 H 0.1161 0.11976 0.05361 0.0
H667 H 0.22283 0.20854 0.05688 0.0
H668 H 0.22583 0.20873 0.99185 0.0
H669 H 0.19853 0.18387 0.93437 0.0
H670 H 0.09086 0.09735 0.92961 0.0
H671 H 0.08787 0.09572 0.99514 0.0
C672 C 0.13989 0.13922 0.04 0.0
C673 C 0.16918 0.1641 0.05991 0.0
C674 C 0.14138 0.13934 0.00252 0.0
C675 C 0.19987 0.18924 0.04208 0.0
C676 C 0.20169 0.18926 0.00493 0.0
C677 C 0.1745 0.1644 0.94767 0.0
C678 C 0.14509 0.14048 0.92741 0.0
C679 C 0.17272 0.16435 0.98496 0.0
C680 C 0.11389 0.11585 0.94484 0.0
C681 C 0.11216 0.11503 0.9822 0.0
H682 H 0.85454 0.05616 0.96151 0.0
H683 H 0.87731 0.97075 0.95853 0.0
H684 H 0.88637 0.97513 0.02323 0.0
H685 H 0.88187 -0.00075 0.08116 0.0
H686 H 0.85763 0.08369 0.08396 0.0
H687 H 0.85548 0.08392 0.01876 0.0
C688 C 0.86194 0.03882 0.97497 0.0
C689 C 0.86487 0.01293 0.9554 0.0
C690 C 0.86663 0.04116 0.01215 0.0
C691 C 0.87473 0.9908 0.97309 0.0
C692 C 0.8798 0.99321 0.01008 0.0
C693 C 0.87663 0.01803 0.06746 0.0
C694 C 0.86955 0.04115 0.08731 0.0
C695 C 0.87492 0.01768 0.02998 0.0
C696 C 0.86294 0.06546 0.06925 0.0
C697 C 0.86162 0.06556 0.03198 0.0
H698 H 0.95149 0.81954 0.92178 0.0
H699 H 0.03763 0.92741 0.926 0.0
H700 H 0.0327 0.92722 0.99122 0.0
H701 H 0.00684 0.8946 0.04724 0.0
H702 H 0.92185 0.78613 0.04211 0.0
H703 H 0.92335 0.78842 0.977 0.0
C704 C 0.96895 0.84317 0.93691 0.0
C705 C 0.99503 0.87335 0.91918 0.0
C706 C 0.96634 0.84265 0.97425 0.0
C707 C 0.01737 0.9038 0.93911 0.0
C708 C 0.01465 0.90366 0.97638 0.0
C709 C 0.98844 0.87162 0.03182 0.0
C710 C 0.96446 0.84018 0.04943 0.0
C711 C 0.98971 0.87297 0.99428 0.0
C712 C 0.94071 0.8106 0.02918 0.0
C713 C 0.94154 0.81185 0.99194 0.0
H714 H 0.78351 0.47576 0.25451 0.0
H715 H 0.8538 0.43556 0.23157 0.0
H716 H 0.85742 0.42524 0.29535 0.0
H717 H 0.84516 0.43323 0.35792 0.0
H718 H 0.77871 0.47805 0.38039 0.0
H719 H 0.76884 0.48084 0.31653 0.0
C720 C 0.79912 0.46416 0.26343 0.0
C721 C 0.81842 0.45648 0.23852 0.0
C722 C 0.80203 0.4595 0.30008 0.0
C723 C 0.8388 0.44177 0.25038 0.0
C724 C 0.84096 0.43598 0.2868 0.0
C725 C 0.82814 0.44313 0.34876 0.0
C726 C 0.81281 0.45558 0.37367 0.0
C727 C 0.82341 0.4456 0.31196 0.0
C728 C 0.791 0.46857 0.3616 0.0
C729 C 0.78533 0.47016 0.32513 0.0
H730 H 0.48994 0.28808 0.27745 0.0
H731 H 0.52515 0.39969 0.27868 0.0
H732 H 0.52417 0.39935 0.34394 0.0
H733 H 0.51381 0.36754 0.40054 0.0
H734 H 0.47643 0.25551 0.39972 0.0
H735 H 0.47766 0.25574 0.33432 0.0
C736 C 0.49741 0.31229 0.29207 0.0
C737 C 0.50775 0.34388 0.2734 0.0
C738 C 0.49638 0.31182 0.32956 0.0
C739 C 0.51707 0.37503 0.29253 0.0
C740 C 0.51657 0.37489 0.32981 0.0
C741 C 0.50595 0.34319 0.38602 0.0
C742 C 0.49523 0.31161 0.40479 0.0
C743 C 0.50635 0.34347 0.34857 0.0
C744 C 0.48478 0.28016 0.38574 0.0
C745 C 0.48554 0.28029 0.34841 0.0
H746 H 0.64953 0.22571 0.39857 0.0
H747 H 0.74354 0.21923 0.41853 0.0
H748 H 0.75844 0.228 0.35509 0.0
H749 H 0.74042 0.22911 0.29343 0.0
H750 H 0.64437 0.23155 0.27268 0.0
H751 H 0.63486 0.23334 0.33687 0.0
C752 C 0.67366 0.22702 0.38906 0.0
C753 C 0.69521 0.22146 0.41298 0.0
C754 C 0.68149 0.23097 0.35237 0.0
C755 C 0.72637 0.2231 0.40045 0.0
C756 C 0.73487 0.22804 0.3642 0.0
C757 C 0.71778 0.23073 0.30295 0.0
C758 C 0.69292 0.22976 0.27846 0.0
C759 C 0.71195 0.23069 0.33979 0.0
C760 C 0.66375 0.23199 0.2911 0.0
C761 C 0.65823 0.23288 0.32779 0.0
H762 H 0.45031 0.78786 0.60488 0.0
H763 H 0.55711 0.87615 0.59922 0.0
H764 H 0.56337 0.8739 0.66385 0.0
H765 H 0.53786 0.84836 0.72204 0.0
H766 H 0.43042 0.76146 0.72839 0.0
H767 H 0.42512 0.76141 0.66328 0.0
C768 C 0.47497 0.8065 0.61782 0.0
C769 C 0.50315 0.8322 0.59741 0.0
C770 C 0.47828 0.80527 0.65502 0.0
C771 C 0.53497 0.85622 0.61444 0.0
C772 C 0.5386 0.85493 0.65135 0.0
C773 C 0.5134 0.82919 0.70915 0.0
C774 C 0.48459 0.80495 0.72988 0.0
C775 C 0.51036 0.82975 0.67191 0.0
C776 C 0.45297 0.78039 0.7129 0.0
C777 C 0.4499 0.78041 0.67573 0.0
H778 H 0.12564 0.61767 0.58926 0.0
H779 H 0.23945 0.68033 0.58131 0.0
H780 H 0.24415 0.68565 0.64639 0.0
H781 H 0.2156 0.67594 0.7052 0.0
H782 H 0.10169 0.61413 0.71281 0.0
H783 H 0.09738 0.60484 0.64822 0.0
C784 C 0.15149 0.63219 0.6018 0.0
C785 C 0.18212 0.64877 0.58055 0.0
C786 C 0.15397 0.63544 0.63914 0.0
C787 C 0.21545 0.66739 0.59713 0.0
C788 C 0.21817 0.67053 0.63432 0.0
C789 C 0.18988 0.66016 0.69274 0.0
C790 C 0.15901 0.64596 0.71367 0.0
C791 C 0.18756 0.65519 0.65554 0.0
C792 C 0.12585 0.62548 0.69722 0.0
C793 C 0.12334 0.62019 0.6603 0.0
H794 H 0.31527 0.46485 0.62121 0.0
H795 H 0.35226 0.57668 0.61549 0.0
H796 H 0.34358 0.57815 0.68004 0.0
H797 H 0.32779 0.54781 0.73845 0.0
H798 H 0.29207 0.43612 0.74315 0.0
H799 H 0.29792 0.43446 0.67853 0.0
C800 C 0.32125 0.48953 0.63402 0.0
C801 C 0.33448 0.52062 0.61373 0.0
C802 C 0.31656 0.49022 0.67095 0.0
C803 C 0.34207 0.55239 0.63064 0.0
C804 C 0.33718 0.55325 0.66751 0.0
C805 C 0.32114 0.52313 0.72524 0.0
C806 C 0.30966 0.49219 0.7455 0.0
C807 C 0.32481 0.52237 0.68799 0.0
C808 C 0.30109 0.46034 0.72813 0.0
C809 C 0.30441 0.45933 0.69119 0.0
loop_
_geom_bond_atom_site_label_1
_geom_bond_atom_site_label_2
_geom_bond_distance
_geom_bond_site_symmetry_2
_ccdc_geom_bond_type
In0 O1 2.294 . S
In0 O2 2.326 . S
In0 O6 2.266 . S
In0 O7 2.326 . S
In0 O8 2.266 . S
In0 O9 2.326 . S
In0 O11 2.294 . S
In0 O12 2.326 . S
O1 In0 2.294 . S
O1 C10 1.240 . S
O2 In0 2.326 . S
O2 C10 1.252 . S
C3 O6 1.252 . S
C3 O7 1.260 . S
C4 O11 1.240 . S
C4 O12 1.252 . S
C5 O8 1.252 . S
C5 O9 1.260 . S
O6 In0 2.266 . S
O6 C3 1.252 . S
O7 In0 2.326 . S
O7 C3 1.260 . S
O8 In0 2.266 . S
O8 C5 1.252 . S
O9 In0 2.326 . S
O9 C5 1.260 . S
C10 O1 1.240 . S
C10 O2 1.252 . S
O11 In0 2.294 . S
O11 C4 1.240 . S
O12 In0 2.326 . S
O12 C4 1.252 . S
In13 O14 2.294 . S
In13 O15 2.326 . S
In13 O19 2.266 1_545 S
In13 O20 2.326 1_545 S
In13 O21 2.266 . S
In13 O22 2.326 . S
In13 O24 2.294 . S
In13 O25 2.326 1_545 S
O14 In13 2.294 . S
O14 C23 1.240 . S
O15 In13 2.326 . S
O15 C23 1.252 . S
C16 O19 1.252 . S
C16 O20 1.260 . S
C17 O24 1.240 1_565 S
C17 O25 1.252 . S
C18 O21 1.252 . S
C18 O22 1.260 . S
O19 In13 2.266 1_565 S
O19 C16 1.252 . S
O20 In13 2.326 1_565 S
O20 C16 1.260 . S
O21 In13 2.266 . S
O21 C18 1.252 . S
O22 In13 2.326 . S
O22 C18 1.260 . S
C23 O14 1.240 . S
C23 O15 1.252 . S
O24 In13 2.294 . S
O24 C17 1.240 1_545 S
O25 In13 2.326 1_565 S
O25 C17 1.252 . S
In26 O27 2.294 . S
In26 O28 2.326 1_655 S
In26 O32 2.266 . S
In26 O33 2.326 . S
In26 O34 2.266 1_655 S
In26 O35 2.326 1_655 S
In26 O37 2.294 . S
In26 O38 2.326 . S
O27 In26 2.294 . S
O27 C36 1.240 1_655 S
O28 In26 2.326 1_455 S
O28 C36 1.252 . S
C29 O32 1.252 . S
C29 O33 1.260 . S
C30 O37 1.240 . S
C30 O38 1.252 . S
C31 O34 1.252 . S
C31 O35 1.260 . S
O32 In26 2.266 . S
O32 C29 1.252 . S
O33 In26 2.326 . S
O33 C29 1.260 . S
O34 In26 2.266 1_455 S
O34 C31 1.252 . S
O35 In26 2.326 1_455 S
O35 C31 1.260 . S
C36 O27 1.240 1_455 S
C36 O28 1.252 . S
O37 In26 2.294 . S
O37 C30 1.240 . S
O38 In26 2.326 . S
O38 C30 1.252 . S
In39 O40 2.294 . S
In39 O41 2.326 . S
In39 O45 2.266 . S
In39 O46 2.326 . S
In39 O47 2.266 . S
In39 O48 2.326 . S
In39 O50 2.294 . S
In39 O51 2.326 . S
O40 In39 2.294 . S
O40 C49 1.240 . S
O41 In39 2.326 . S
O41 C49 1.252 . S
C42 O45 1.252 . S
C42 O46 1.260 . S
C43 O50 1.240 . S
C43 O51 1.252 . S
C44 O47 1.252 . S
C44 O48 1.260 . S
O45 In39 2.266 . S
O45 C42 1.252 . S
O46 In39 2.326 . S
O46 C42 1.260 . S
O47 In39 2.266 . S
O47 C44 1.252 . S
O48 In39 2.326 . S
O48 C44 1.260 . S
C49 O40 1.240 . S
C49 O41 1.252 . S
O50 In39 2.294 . S
O50 C43 1.240 . S
O51 In39 2.326 . S
O51 C43 1.252 . S
In52 O53 2.294 . S
In52 O54 2.326 1_565 S
In52 O58 2.266 . S
In52 O59 2.326 . S
In52 O60 2.266 1_565 S
In52 O61 2.326 1_565 S
In52 O63 2.294 . S
In52 O64 2.326 . S
O53 In52 2.294 . S
O53 C62 1.240 1_565 S
O54 In52 2.326 1_545 S
O54 C62 1.252 . S
C55 O58 1.252 . S
C55 O59 1.260 . S
C56 O63 1.240 . S
C56 O64 1.252 . S
C57 O60 1.252 . S
C57 O61 1.260 . S
O58 In52 2.266 . S
O58 C55 1.252 . S
O59 In52 2.326 . S
O59 C55 1.260 . S
O60 In52 2.266 1_545 S
O60 C57 1.252 . S
O61 In52 2.326 1_545 S
O61 C57 1.260 . S
C62 O53 1.240 1_545 S
C62 O54 1.252 . S
O63 In52 2.294 . S
O63 C56 1.240 . S
O64 In52 2.326 . S
O64 C56 1.252 . S
In65 O66 2.294 . S
In65 O67 2.326 1_455 S
In65 O71 2.266 . S
In65 O72 2.326 . S
In65 O73 2.266 1_455 S
In65 O74 2.326 1_455 S
In65 O76 2.294 . S
In65 O77 2.326 . S
O66 In65 2.294 . S
O66 C75 1.240 1_455 S
O67 In65 2.326 1_655 S
O67 C75 1.252 . S
C68 O71 1.252 . S
C68 O72 1.260 . S
C69 O76 1.240 . S
C69 O77 1.252 . S
C70 O73 1.252 . S
C70 O74 1.260 . S
O71 In65 2.266 . S
O71 C68 1.252 . S
O72 In65 2.326 . S
O72 C68 1.260 . S
O73 In65 2.266 1_655 S
O73 C70 1.252 . S
O74 In65 2.326 1_655 S
O74 C70 1.260 . S
C75 O66 1.240 1_655 S
C75 O67 1.252 . S
O76 In65 2.294 . S
O76 C69 1.240 . S
O77 In65 2.326 . S
O77 C69 1.252 . S
In78 O79 2.294 . S
In78 O80 2.326 . S
In78 O84 2.266 . S
In78 O85 2.326 . S
In78 O86 2.266 . S
In78 O87 2.326 . S
In78 O89 2.294 . S
In78 O90 2.326 . S
O79 In78 2.294 . S
O79 C88 1.240 . S
O80 In78 2.326 . S
O80 C88 1.252 . S
C81 O84 1.252 . S
C81 O85 1.260 . S
C82 O89 1.240 . S
C82 O90 1.252 . S
C83 O86 1.252 . S
C83 O87 1.260 . S
O84 In78 2.266 . S
O84 C81 1.252 . S
O85 In78 2.326 . S
O85 C81 1.260 . S
O86 In78 2.266 . S
O86 C83 1.252 . S
O87 In78 2.326 . S
O87 C83 1.260 . S
C88 O79 1.240 . S
C88 O80 1.252 . S
O89 In78 2.294 . S
O89 C82 1.240 . S
O90 In78 2.326 . S
O90 C82 1.252 . S
In91 O92 2.294 . S
In91 O93 2.326 . S
In91 O97 2.266 . S
In91 O98 2.326 . S
In91 O99 2.266 . S
In91 O100 2.326 . S
In91 O102 2.294 . S
In91 O103 2.326 . S
O92 In91 2.294 . S
O92 C101 1.240 . S
O93 In91 2.326 . S
O93 C101 1.252 . S
C94 O97 1.252 . S
C94 O98 1.260 . S
C95 O102 1.240 . S
C95 O103 1.252 . S
C96 O99 1.252 . S
C96 O100 1.260 . S
O97 In91 2.266 . S
O97 C94 1.252 . S
O98 In91 2.326 . S
O98 C94 1.260 . S
O99 In91 2.266 . S
O99 C96 1.252 . S
O100 In91 2.326 . S
O100 C96 1.260 . S
C101 O92 1.240 . S
C101 O93 1.252 . S
O102 In91 2.294 . S
O102 C95 1.240 . S
O103 In91 2.326 . S
O103 C95 1.252 . S
In104 O105 2.294 . S
In104 O106 2.326 . S
In104 O110 2.266 . S
In104 O111 2.326 . S
In104 O112 2.266 . S
In104 O113 2.326 . S
In104 O115 2.294 . S
In104 O116 2.326 . S
O105 In104 2.294 . S
O105 C114 1.240 . S
O106 In104 2.326 . S
O106 C114 1.252 . S
C107 O110 1.252 . S
C107 O111 1.260 . S
C108 O115 1.240 . S
C108 O116 1.252 . S
C109 O112 1.252 . S
C109 O113 1.260 . S
O110 In104 2.266 . S
O110 C107 1.252 . S
O111 In104 2.326 . S
O111 C107 1.260 . S
O112 In104 2.266 . S
O112 C109 1.252 . S
O113 In104 2.326 . S
O113 C109 1.260 . S
C114 O105 1.240 . S
C114 O106 1.252 . S
O115 In104 2.294 . S
O115 C108 1.240 . S
O116 In104 2.326 . S
O116 C108 1.252 . S
In117 O118 2.294 . S
In117 O119 2.326 . S
In117 O123 2.266 . S
In117 O124 2.326 . S
In117 O125 2.266 . S
In117 O126 2.326 . S
In117 O128 2.294 . S
In117 O129 2.326 . S
O118 In117 2.294 . S
O118 C127 1.240 . S
O119 In117 2.326 . S
O119 C127 1.252 . S
C120 O123 1.252 . S
C120 O124 1.260 . S
C121 O128 1.240 . S
C121 O129 1.252 . S
C122 O125 1.252 . S
C122 O126 1.260 . S
O123 In117 2.266 . S
O123 C120 1.252 . S
O124 In117 2.326 . S
O124 C120 1.260 . S
O125 In117 2.266 . S
O125 C122 1.252 . S
O126 In117 2.326 . S
O126 C122 1.260 . S
C127 O118 1.240 . S
C127 O119 1.252 . S
O128 In117 2.294 . S
O128 C121 1.240 . S
O129 In117 2.326 . S
O129 C121 1.252 . S
In130 O131 2.294 . S
In130 O132 2.326 . S
In130 O136 2.266 . S
In130 O137 2.326 . S
In130 O138 2.266 . S
In130 O139 2.326 . S
In130 O141 2.294 . S
In130 O142 2.326 . S
O131 In130 2.294 . S
O131 C140 1.240 . S
O132 In130 2.326 . S
O132 C140 1.252 . S
C133 O136 1.252 . S
C133 O137 1.260 . S
C134 O141 1.240 . S
C134 O142 1.252 . S
C135 O138 1.252 . S
C135 O139 1.260 . S
O136 In130 2.266 . S
O136 C133 1.252 . S
O137 In130 2.326 . S
O137 C133 1.260 . S
O138 In130 2.266 . S
O138 C135 1.252 . S
O139 In130 2.326 . S
O139 C135 1.260 . S
C140 O131 1.240 . S
C140 O132 1.252 . S
O141 In130 2.294 . S
O141 C134 1.240 . S
O142 In130 2.326 . S
O142 C134 1.252 . S
In143 O144 2.294 . S
In143 O145 2.326 . S
In143 O149 2.266 . S
In143 O150 2.326 . S
In143 O151 2.266 . S
In143 O152 2.326 . S
In143 O154 2.294 . S
In143 O155 2.326 . S
O144 In143 2.294 . S
O144 C153 1.240 . S
O145 In143 2.326 . S
O145 C153 1.252 . S
C146 O149 1.252 . S
C146 O150 1.260 . S
C147 O154 1.240 . S
C147 O155 1.252 . S
C148 O151 1.252 . S
C148 O152 1.260 . S
O149 In143 2.266 . S
O149 C146 1.252 . S
O150 In143 2.326 . S
O150 C146 1.260 . S
O151 In143 2.266 . S
O151 C148 1.252 . S
O152 In143 2.326 . S
O152 C148 1.260 . S
C153 O144 1.240 . S
C153 O145 1.252 . S
O154 In143 2.294 . S
O154 C147 1.240 . S
O155 In143 2.326 . S
O155 C147 1.252 . S
In156 O157 2.294 . S
In156 O158 2.326 . S
In156 O162 2.266 . S
In156 O163 2.326 . S
In156 O164 2.266 . S
In156 O165 2.326 . S
In156 O167 2.294 . S
In156 O168 2.326 . S
O157 In156 2.294 . S
O157 C166 1.240 . S
O158 In156 2.326 . S
O158 C166 1.252 . S
C159 O162 1.252 . S
C159 O163 1.260 . S
C160 O167 1.240 . S
C160 O168 1.252 . S
C161 O164 1.252 . S
C161 O165 1.260 . S
O162 In156 2.266 . S
O162 C159 1.252 . S
O163 In156 2.326 . S
O163 C159 1.260 . S
O164 In156 2.266 . S
O164 C161 1.252 . S
O165 In156 2.326 . S
O165 C161 1.260 . S
C166 O157 1.240 . S
C166 O158 1.252 . S
O167 In156 2.294 . S
O167 C160 1.240 . S
O168 In156 2.326 . S
O168 C160 1.252 . S
In169 O170 2.294 . S
In169 O171 2.326 . S
In169 O175 2.266 . S
In169 O176 2.326 . S
In169 O177 2.266 . S
In169 O178 2.326 . S
In169 O180 2.294 . S
In169 O181 2.326 . S
O170 In169 2.294 . S
O170 C179 1.240 . S
O171 In169 2.326 . S
O171 C179 1.252 . S
C172 O175 1.252 . S
C172 O176 1.260 . S
C173 O180 1.240 . S
C173 O181 1.252 . S
C174 O177 1.252 . S
C174 O178 1.260 . S
O175 In169 2.266 . S
O175 C172 1.252 . S
O176 In169 2.326 . S
O176 C172 1.260 . S
O177 In169 2.266 . S
O177 C174 1.252 . S
O178 In169 2.326 . S
O178 C174 1.260 . S
C179 O170 1.240 . S
C179 O171 1.252 . S
O180 In169 2.294 . S
O180 C173 1.240 . S
O181 In169 2.326 . S
O181 C173 1.252 . S
In182 O183 2.294 . S
In182 O184 2.326 . S
In182 O188 2.266 . S
In182 O189 2.326 . S
In182 O190 2.266 . S
In182 O191 2.326 . S
In182 O193 2.294 . S
In182 O194 2.326 . S
O183 In182 2.294 . S
O183 C192 1.240 . S
O184 In182 2.326 . S
O184 C192 1.252 . S
C185 O188 1.252 . S
C185 O189 1.260 . S
C186 O193 1.240 . S
C186 O194 1.252 . S
C187 O190 1.252 . S
C187 O191 1.260 . S
O188 In182 2.266 . S
O188 C185 1.252 . S
O189 In182 2.326 . S
O189 C185 1.260 . S
O190 In182 2.266 . S
O190 C187 1.252 . S
O191 In182 2.326 . S
O191 C187 1.260 . S
C192 O183 1.240 . S
C192 O184 1.252 . S
O193 In182 2.294 . S
O193 C186 1.240 . S
O194 In182 2.326 . S
O194 C186 1.252 . S
In195 O196 2.294 . S
In195 O197 2.326 . S
In195 O201 2.266 . S
In195 O202 2.326 . S
In195 O203 2.266 . S
In195 O204 2.326 . S
In195 O206 2.294 . S
In195 O207 2.326 . S
O196 In195 2.294 . S
O196 C205 1.240 . S
O197 In195 2.326 . S
O197 C205 1.252 . S
C198 O201 1.252 . S
C198 O202 1.260 . S
C199 O206 1.240 . S
C199 O207 1.252 . S
C200 O203 1.252 . S
C200 O204 1.260 . S
O201 In195 2.266 . S
O201 C198 1.252 . S
O202 In195 2.326 . S
O202 C198 1.260 . S
O203 In195 2.266 . S
O203 C200 1.252 . S
O204 In195 2.326 . S
O204 C200 1.260 . S
C205 O196 1.240 . S
C205 O197 1.252 . S
O206 In195 2.294 . S
O206 C199 1.240 . S
O207 In195 2.326 . S
O207 C199 1.252 . S
In208 O209 2.294 . S
In208 O210 2.326 . S
In208 O214 2.266 . S
In208 O215 2.326 . S
In208 O216 2.266 . S
In208 O217 2.326 . S
In208 O219 2.294 . S
In208 O220 2.326 . S
O209 In208 2.294 . S
O209 C218 1.240 . S
O210 In208 2.326 . S
O210 C218 1.252 . S
C211 O214 1.252 . S
C211 O215 1.260 . S
C212 O219 1.240 . S
C212 O220 1.252 . S
C213 O216 1.252 . S
C213 O217 1.260 . S
O214 In208 2.266 . S
O214 C211 1.252 . S
O215 In208 2.326 . S
O215 C211 1.260 . S
O216 In208 2.266 . S
O216 C213 1.252 . S
O217 In208 2.326 . S
O217 C213 1.260 . S
C218 O209 1.240 . S
C218 O210 1.252 . S
O219 In208 2.294 . S
O219 C212 1.240 . S
O220 In208 2.326 . S
O220 C212 1.252 . S
In221 O222 2.294 . S
In221 O223 2.326 . S
In221 O227 2.266 . S
In221 O228 2.326 . S
In221 O229 2.266 . S
In221 O230 2.326 . S
In221 O232 2.294 . S
In221 O233 2.326 . S
O222 In221 2.294 . S
O222 C231 1.240 . S
O223 In221 2.326 . S
O223 C231 1.252 . S
C224 O227 1.252 . S
C224 O228 1.260 . S
C225 O232 1.240 . S
C225 O233 1.252 . S
C226 O229 1.252 . S
C226 O230 1.260 . S
O227 In221 2.266 . S
O227 C224 1.252 . S
O228 In221 2.326 . S
O228 C224 1.260 . S
O229 In221 2.266 . S
O229 C226 1.252 . S
O230 In221 2.326 . S
O230 C226 1.260 . S
C231 O222 1.240 . S
C231 O223 1.252 . S
O232 In221 2.294 . S
O232 C225 1.240 . S
O233 In221 2.326 . S
O233 C225 1.252 . S
H234 C240 0.930 . S
H235 C243 0.930 . S
H236 C244 0.930 . S
H237 C245 0.930 . S
H238 C248 0.930 . S
H239 C249 0.930 . S
C240 H234 0.930 . S
C240 C241 1.355 . S
C240 C242 1.415 . S
C241 C240 1.355 . S
C241 C243 1.419 . S
C242 C240 1.415 . S
C242 C247 1.425 . S
C242 C249 1.409 . S
C243 H235 0.930 . S
C243 C241 1.419 . S
C243 C244 1.362 . S
C244 H236 0.930 . S
C244 C243 1.362 . S
C244 C247 1.409 . S
C245 H237 0.930 . S
C245 C246 1.355 . S
C245 C247 1.415 . S
C246 C245 1.355 . S
C246 C248 1.419 . S
C247 C242 1.425 . S
C247 C244 1.409 . S
C247 C245 1.415 . S
C248 H238 0.930 . S
C248 C246 1.419 . S
C248 C249 1.362 . S
C249 H239 0.930 . S
C249 C242 1.409 . S
C249 C248 1.362 . S
H250 C256 0.930 . S
H251 C259 0.930 . S
H252 C260 0.930 . S
H253 C261 0.930 . S
H254 C264 0.930 . S
H255 C265 0.930 . S
C256 H250 0.930 . S
C256 C257 1.355 . S
C256 C258 1.415 . S
C257 C256 1.355 . S
C257 C259 1.419 . S
C258 C256 1.415 . S
C258 C263 1.425 . S
C258 C265 1.409 . S
C259 H251 0.930 . S
C259 C257 1.419 . S
C259 C260 1.362 . S
C260 H252 0.930 . S
C260 C259 1.362 . S
C260 C263 1.409 . S
C261 H253 0.930 . S
C261 C262 1.355 . S
C261 C263 1.415 . S
C262 C261 1.355 . S
C262 C264 1.419 . S
C263 C258 1.425 . S
C263 C260 1.409 . S
C263 C261 1.415 . S
C264 H254 0.930 . S
C264 C262 1.419 . S
C264 C265 1.362 . S
C265 H255 0.930 . S
C265 C258 1.409 . S
C265 C264 1.362 . S
H266 C272 0.930 . S
H267 C275 0.930 . S
H268 C276 0.930 . S
H269 C277 0.930 . S
H270 C280 0.930 . S
H271 C281 0.930 . S
C272 H266 0.930 . S
C272 C273 1.355 . S
C272 C274 1.415 . S
C273 C272 1.355 . S
C273 C275 1.419 . S
C274 C272 1.415 . S
C274 C279 1.425 . S
C274 C281 1.409 . S
C275 H267 0.930 . S
C275 C273 1.419 . S
C275 C276 1.362 . S
C276 H268 0.930 . S
C276 C275 1.362 . S
C276 C279 1.409 . S
C277 H269 0.930 . S
C277 C278 1.355 . S
C277 C279 1.415 . S
C278 C277 1.355 . S
C278 C280 1.419 . S
C279 C274 1.425 . S
C279 C276 1.409 . S
C279 C277 1.415 . S
C280 H270 0.930 . S
C280 C278 1.419 . S
C280 C281 1.362 . S
C281 H271 0.930 . S
C281 C274 1.409 . S
C281 C280 1.362 . S
H282 C288 0.930 . S
H283 C291 0.930 . S
H284 C292 0.930 . S
H285 C293 0.930 . S
H286 C296 0.930 . S
H287 C297 0.930 . S
C288 H282 0.930 . S
C288 C289 1.355 . S
C288 C290 1.415 . S
C289 C288 1.355 . S
C289 C291 1.419 . S
C290 C288 1.415 . S
C290 C295 1.425 . S
C290 C297 1.409 . S
C291 H283 0.930 . S
C291 C289 1.419 . S
C291 C292 1.362 . S
C292 H284 0.930 . S
C292 C291 1.362 . S
C292 C295 1.409 . S
C293 H285 0.930 . S
C293 C294 1.355 . S
C293 C295 1.415 . S
C294 C293 1.355 . S
C294 C296 1.419 . S
C295 C290 1.425 . S
C295 C292 1.409 . S
C295 C293 1.415 . S
C296 H286 0.930 . S
C296 C294 1.419 . S
C296 C297 1.362 . S
C297 H287 0.930 . S
C297 C290 1.409 . S
C297 C296 1.362 . S
H298 C304 0.930 . S
H299 C307 0.930 . S
H300 C308 0.930 . S
H301 C309 0.930 . S
H302 C312 0.930 . S
H303 C313 0.930 . S
C304 H298 0.930 . S
C304 C305 1.355 . S
C304 C306 1.415 . S
C305 C304 1.355 . S
C305 C307 1.419 . S
C306 C304 1.415 . S
C306 C311 1.425 . S
C306 C313 1.409 . S
C307 H299 0.930 . S
C307 C305 1.419 . S
C307 C308 1.362 . S
C308 H300 0.930 . S
C308 C307 1.362 . S
C308 C311 1.409 . S
C309 H301 0.930 . S
C309 C310 1.355 . S
C309 C311 1.415 . S
C310 C309 1.355 . S
C310 C312 1.419 . S
C311 C306 1.425 . S
C311 C308 1.409 . S
C311 C309 1.415 . S
C312 H302 0.930 . S
C312 C310 1.419 . S
C312 C313 1.362 . S
C313 H303 0.930 . S
C313 C306 1.409 . S
C313 C312 1.362 . S
H314 C320 0.930 . S
H315 C323 0.930 . S
H316 C324 0.930 . S
H317 C325 0.930 . S
H318 C328 0.930 . S
H319 C329 0.930 . S
C320 H314 0.930 . S
C320 C321 1.355 . S
C320 C322 1.415 . S
C321 C320 1.355 . S
C321 C323 1.419 . S
C322 C320 1.415 . S
C322 C327 1.425 . S
C322 C329 1.409 . S
C323 H315 0.930 . S
C323 C321 1.419 . S
C323 C324 1.362 . S
C324 H316 0.930 . S
C324 C323 1.362 . S
C324 C327 1.409 . S
C325 H317 0.930 . S
C325 C326 1.355 . S
C325 C327 1.415 . S
C326 C325 1.355 . S
C326 C328 1.419 . S
C327 C322 1.425 . S
C327 C324 1.409 . S
C327 C325 1.415 . S
C328 H318 0.930 . S
C328 C326 1.419 . S
C328 C329 1.362 . S
C329 H319 0.930 . S
C329 C322 1.409 . S
C329 C328 1.362 . S
H330 C336 0.930 . S
H331 C339 0.930 . S
H332 C340 0.930 1_455 S
H333 C341 0.930 . S
H334 C344 0.930 . S
H335 C345 0.930 . S
C336 H330 0.930 . S
C336 C337 1.355 . S
C336 C338 1.415 . S
C337 C336 1.355 . S
C337 C339 1.419 . S
C338 C336 1.415 . S
C338 C343 1.425 1_655 S
C338 C345 1.409 1_655 S
C339 H331 0.930 . S
C339 C337 1.419 . S
C339 C340 1.362 . S
C340 H332 0.930 1_655 S
C340 C339 1.362 . S
C340 C343 1.409 1_655 S
C341 H333 0.930 . S
C341 C342 1.355 . S
C341 C343 1.415 . S
C342 C341 1.355 . S
C342 C344 1.419 . S
C343 C338 1.425 1_455 S
C343 C340 1.409 1_455 S
C343 C341 1.415 . S
C344 H334 0.930 . S
C344 C342 1.419 . S
C344 C345 1.362 . S
C345 H335 0.930 . S
C345 C338 1.409 1_455 S
C345 C344 1.362 . S
H346 C352 0.930 . S
H347 C355 0.930 . S
H348 C356 0.930 . S
H349 C357 0.930 . S
H350 C360 0.930 . S
H351 C361 0.930 . S
C352 H346 0.930 . S
C352 C353 1.355 . S
C352 C354 1.415 . S
C353 C352 1.355 . S
C353 C355 1.419 . S
C354 C352 1.415 . S
C354 C359 1.425 . S
C354 C361 1.409 . S
C355 H347 0.930 . S
C355 C353 1.419 . S
C355 C356 1.362 . S
C356 H348 0.930 . S
C356 C355 1.362 . S
C356 C359 1.409 . S
C357 H349 0.930 . S
C357 C358 1.355 . S
C357 C359 1.415 . S
C358 C357 1.355 . S
C358 C360 1.419 . S
C359 C354 1.425 . S
C359 C356 1.409 . S
C359 C357 1.415 . S
C360 H350 0.930 . S
C360 C358 1.419 . S
C360 C361 1.362 . S
C361 H351 0.930 . S
C361 C354 1.409 . S
C361 C360 1.362 . S
H362 C368 0.930 . S
H363 C371 0.930 . S
H364 C372 0.930 . S
H365 C373 0.930 . S
H366 C376 0.930 . S
H367 C377 0.930 . S
C368 H362 0.930 . S
C368 C369 1.355 . S
C368 C370 1.415 . S
C369 C368 1.355 . S
C369 C371 1.419 . S
C370 C368 1.415 . S
C370 C375 1.425 . S
C370 C377 1.409 1_545 S
C371 H363 0.930 . S
C371 C369 1.419 . S
C371 C372 1.362 . S
C372 H364 0.930 . S
C372 C371 1.362 . S
C372 C375 1.409 . S
C373 H365 0.930 . S
C373 C374 1.355 . S
C373 C375 1.415 1_565 S
C374 C373 1.355 . S
C374 C376 1.419 . S
C375 C370 1.425 . S
C375 C372 1.409 . S
C375 C373 1.415 1_545 S
C376 H366 0.930 . S
C376 C374 1.419 . S
C376 C377 1.362 . S
C377 H367 0.930 . S
C377 C370 1.409 1_565 S
C377 C376 1.362 . S
H378 C384 0.930 . S
H379 C387 0.930 . S
H380 C388 0.930 . S
H381 C389 0.930 . S
H382 C392 0.930 . S
H383 C393 0.939 . S
C384 H378 0.930 . S
C384 C385 1.355 . S
C384 C386 1.415 . S
C385 C384 1.355 . S
C385 C387 1.419 . S
C386 C384 1.415 . S
C386 C391 1.456 . S
C386 C393 1.409 1_455 S
C387 H379 0.930 . S
C387 C385 1.419 . S
C387 C388 1.362 . S
C388 H380 0.930 . S
C388 C387 1.362 . S
C388 C391 1.416 . S
C389 H381 0.930 . S
C389 C390 1.355 . S
C389 C391 1.379 1_655 S
C390 C389 1.355 . S
C390 C392 1.419 . S
C391 C386 1.456 . S
C391 C388 1.416 . S
C391 C389 1.379 1_455 S
C392 H382 0.930 . S
C392 C390 1.419 . S
C392 C393 1.362 . S
C393 H383 0.939 . S
C393 C386 1.409 1_655 S
C393 C392 1.362 . S
H394 C400 0.930 . S
H395 C403 0.930 . S
H396 C404 0.930 . S
H397 C405 0.930 . S
H398 C408 0.930 . S
H399 C409 0.930 . S
C400 H394 0.930 . S
C400 C401 1.355 . S
C400 C402 1.415 . S
C401 C400 1.355 . S
C401 C403 1.419 . S
C402 C400 1.415 . S
C402 C407 1.425 . S
C402 C409 1.409 . S
C403 H395 0.930 . S
C403 C401 1.419 . S
C403 C404 1.362 . S
C404 H396 0.930 . S
C404 C403 1.362 . S
C404 C407 1.409 . S
C405 H397 0.930 . S
C405 C406 1.355 . S
C405 C407 1.415 . S
C406 C405 1.355 . S
C406 C408 1.419 . S
C407 C402 1.425 . S
C407 C404 1.409 . S
C407 C405 1.415 . S
C408 H398 0.930 . S
C408 C406 1.419 . S
C408 C409 1.362 . S
C409 H399 0.930 . S
C409 C402 1.409 . S
C409 C408 1.362 . S
H410 C416 0.930 . S
H411 C419 0.930 . S
H412 C420 0.930 . S
H413 C421 0.930 . S
H414 C424 0.930 . S
H415 C425 0.930 . S
C416 H410 0.930 . S
C416 C417 1.355 . S
C416 C418 1.415 . S
C417 C416 1.355 . S
C417 C419 1.419 . S
C418 C416 1.415 . S
C418 C423 1.425 1_545 S
C418 C425 1.409 1_545 S
C419 H411 0.930 . S
C419 C417 1.419 . S
C419 C420 1.362 . S
C420 H412 0.930 . S
C420 C419 1.362 . S
C420 C423 1.409 1_545 S
C421 H413 0.930 . S
C421 C422 1.355 . S
C421 C423 1.415 . S
C422 C421 1.355 . S
C422 C424 1.419 . S
C423 C418 1.425 1_565 S
C423 C420 1.409 1_565 S
C423 C421 1.415 . S
C424 H414 0.930 . S
C424 C422 1.419 . S
C424 C425 1.362 . S
C425 H415 0.930 . S
C425 C418 1.409 1_565 S
C425 C424 1.362 . S
H426 C432 0.930 . S
H427 C435 0.930 . S
H428 C436 0.930 . S
H429 C437 0.930 . S
H430 C440 0.930 . S
H431 C441 0.930 . S
C432 H426 0.930 . S
C432 C433 1.355 . S
C432 C434 1.415 1_565 S
C433 C432 1.355 . S
C433 C435 1.419 . S
C434 C432 1.415 1_545 S
C434 C439 1.425 . S
C434 C441 1.409 . S
C435 H427 0.930 . S
C435 C433 1.419 . S
C435 C436 1.362 . S
C436 H428 0.930 . S
C436 C435 1.362 . S
C436 C439 1.409 1_565 S
C437 H429 0.930 . S
C437 C438 1.355 . S
C437 C439 1.415 . S
C438 C437 1.355 . S
C438 C440 1.419 . S
C439 C434 1.425 . S
C439 C436 1.409 1_545 S
C439 C437 1.415 . S
C440 H430 0.930 . S
C440 C438 1.419 . S
C440 C441 1.362 . S
C441 H431 0.930 . S
C441 C434 1.409 . S
C441 C440 1.362 . S
H442 C448 0.930 . S
H443 C451 0.930 . S
H444 C452 0.930 . S
H445 C453 0.930 . S
H446 C456 0.930 . S
H447 C457 0.930 . S
C448 H442 0.930 . S
C448 C449 1.355 . S
C448 C450 1.415 . S
C449 C448 1.355 . S
C449 C451 1.419 . S
C450 C448 1.415 . S
C450 C455 1.425 1_455 S
C450 C457 1.409 1_455 S
C451 H443 0.930 . S
C451 C449 1.419 . S
C451 C452 1.362 . S
C452 H444 0.930 . S
C452 C451 1.362 . S
C452 C455 1.409 1_455 S
C453 H445 0.930 . S
C453 C454 1.355 . S
C453 C455 1.415 . S
C454 C453 1.355 . S
C454 C456 1.419 . S
C455 C450 1.425 1_655 S
C455 C452 1.409 1_655 S
C455 C453 1.415 . S
C456 H446 0.930 . S
C456 C454 1.419 . S
C456 C457 1.362 . S
C457 H447 0.930 . S
C457 C450 1.409 1_655 S
C457 C456 1.362 . S
H458 C464 0.930 . S
H459 C467 0.930 . S
H460 C468 0.930 . S
H461 C469 0.930 . S
H462 C472 0.930 . S
H463 C473 0.930 . S
C464 H458 0.930 . S
C464 C465 1.355 . S
C464 C466 1.415 . S
C465 C464 1.355 . S
C465 C467 1.419 . S
C466 C464 1.415 . S
C466 C471 1.425 . S
C466 C473 1.409 . S
C467 H459 0.930 . S
C467 C465 1.419 . S
C467 C468 1.362 . S
C468 H460 0.930 . S
C468 C467 1.362 . S
C468 C471 1.409 . S
C469 H461 0.930 . S
C469 C470 1.355 . S
C469 C471 1.415 . S
C470 C469 1.355 . S
C470 C472 1.419 . S
C471 C466 1.425 . S
C471 C468 1.409 . S
C471 C469 1.415 . S
C472 H462 0.930 . S
C472 C470 1.419 . S
C472 C473 1.362 . S
C473 H463 0.930 . S
C473 C466 1.409 . S
C473 C472 1.362 . S
H474 C480 0.930 . S
H475 C483 0.930 . S
H476 C484 0.930 . S
H477 C485 0.930 . S
H478 C488 0.930 . S
H479 C489 0.930 . S
C480 H474 0.930 . S
C480 C481 1.355 . S
C480 C482 1.415 . S
C481 C480 1.355 . S
C481 C483 1.419 . S
C482 C480 1.415 . S
C482 C487 1.425 . S
C482 C489 1.409 . S
C483 H475 0.930 . S
C483 C481 1.419 . S
C483 C484 1.362 . S
C484 H476 0.930 . S
C484 C483 1.362 . S
C484 C487 1.409 . S
C485 H477 0.930 . S
C485 C486 1.355 . S
C485 C487 1.415 . S
C486 C485 1.355 . S
C486 C488 1.419 . S
C487 C482 1.425 . S
C487 C484 1.409 . S
C487 C485 1.415 . S
C488 H478 0.930 . S
C488 C486 1.419 . S
C488 C489 1.362 . S
C489 H479 0.930 . S
C489 C482 1.409 . S
C489 C488 1.362 . S
H490 C496 0.930 . S
H491 C499 0.930 . S
H492 C500 0.930 . S
H493 C501 0.930 . S
H494 C504 0.930 . S
H495 C505 0.930 . S
C496 H490 0.930 . S
C496 C497 1.355 . S
C496 C498 1.415 . S
C497 C496 1.355 . S
C497 C499 1.419 . S
C498 C496 1.415 . S
C498 C503 1.425 . S
C498 C505 1.409 . S
C499 H491 0.930 . S
C499 C497 1.419 . S
C499 C500 1.362 . S
C500 H492 0.930 . S
C500 C499 1.362 . S
C500 C503 1.409 . S
C501 H493 0.930 . S
C501 C502 1.355 . S
C501 C503 1.415 . S
C502 C501 1.355 . S
C502 C504 1.419 . S
C503 C498 1.425 . S
C503 C500 1.409 . S
C503 C501 1.415 . S
C504 H494 0.930 . S
C504 C502 1.419 . S
C504 C505 1.362 . S
C505 H495 0.930 . S
C505 C498 1.409 . S
C505 C504 1.362 . S
H506 C512 0.930 . S
H507 C515 0.930 . S
H508 C516 0.930 . S
H509 C517 0.930 . S
H510 C520 0.930 . S
H511 C521 0.930 . S
C512 H506 0.930 . S
C512 C513 1.355 . S
C512 C514 1.415 . S
C513 C512 1.355 . S
C513 C515 1.419 . S
C514 C512 1.415 . S
C514 C519 1.425 . S
C514 C521 1.409 . S
C515 H507 0.930 . S
C515 C513 1.419 . S
C515 C516 1.362 . S
C516 H508 0.930 . S
C516 C515 1.362 . S
C516 C519 1.409 . S
C517 H509 0.930 . S
C517 C518 1.355 . S
C517 C519 1.415 . S
C518 C517 1.355 . S
C518 C520 1.419 . S
C519 C514 1.425 . S
C519 C516 1.409 . S
C519 C517 1.415 . S
C520 H510 0.930 . S
C520 C518 1.419 . S
C520 C521 1.362 . S
C521 H511 0.930 . S
C521 C514 1.409 . S
C521 C520 1.362 . S
H522 C528 0.930 . S
H523 C531 0.930 . S
H524 C532 0.930 . S
H525 C533 0.930 . S
H526 C536 0.930 . S
H527 C537 0.930 . S
C528 H522 0.930 . S
C528 C529 1.355 . S
C528 C530 1.415 . S
C529 C528 1.355 . S
C529 C531 1.419 . S
C530 C528 1.415 . S
C530 C535 1.425 . S
C530 C537 1.409 . S
C531 H523 0.930 . S
C531 C529 1.419 . S
C531 C532 1.362 . S
C532 H524 0.930 . S
C532 C531 1.362 . S
C532 C535 1.409 . S
C533 H525 0.930 . S
C533 C534 1.355 . S
C533 C535 1.415 . S
C534 C533 1.355 . S
C534 C536 1.419 . S
C535 C530 1.425 . S
C535 C532 1.409 . S
C535 C533 1.415 . S
C536 H526 0.930 . S
C536 C534 1.419 . S
C536 C537 1.362 . S
C537 H527 0.930 . S
C537 C530 1.409 . S
C537 C536 1.362 . S
H538 C544 0.930 . S
H539 C547 0.930 . S
H540 C548 0.930 . S
H541 C549 0.930 . S
H542 C552 0.930 . S
H543 C553 0.930 . S
C544 H538 0.930 . S
C544 C545 1.355 . S
C544 C546 1.415 . S
C545 C544 1.355 . S
C545 C547 1.419 . S
C546 C544 1.415 . S
C546 C551 1.425 . S
C546 C553 1.409 . S
C547 H539 0.930 . S
C547 C545 1.419 . S
C547 C548 1.362 . S
C548 H540 0.930 . S
C548 C547 1.362 . S
C548 C551 1.409 . S
C549 H541 0.930 . S
C549 C550 1.355 . S
C549 C551 1.415 . S
C550 C549 1.355 . S
C550 C552 1.419 . S
C551 C546 1.425 . S
C551 C548 1.409 . S
C551 C549 1.415 . S
C552 H542 0.930 . S
C552 C550 1.419 . S
C552 C553 1.362 . S
C553 H543 0.930 . S
C553 C546 1.409 . S
C553 C552 1.362 . S
H554 C560 0.930 . S
H555 C563 0.930 . S
H556 C564 0.930 . S
H557 C565 0.930 . S
H558 C568 0.930 . S
H559 C569 0.930 . S
C560 H554 0.930 . S
C560 C561 1.355 . S
C560 C562 1.415 . S
C561 C560 1.355 . S
C561 C563 1.419 . S
C562 C560 1.415 . S
C562 C567 1.425 . S
C562 C569 1.409 . S
C563 H555 0.930 . S
C563 C561 1.419 . S
C563 C564 1.362 . S
C564 H556 0.930 . S
C564 C563 1.362 . S
C564 C567 1.409 . S
C565 H557 0.930 . S
C565 C566 1.355 . S
C565 C567 1.415 . S
C566 C565 1.355 . S
C566 C568 1.419 . S
C567 C562 1.425 . S
C567 C564 1.409 . S
C567 C565 1.415 . S
C568 H558 0.930 . S
C568 C566 1.419 . S
C568 C569 1.362 . S
C569 H559 0.930 . S
C569 C562 1.409 . S
C569 C568 1.362 . S
H570 C576 0.930 . S
H571 C579 0.930 . S
H572 C580 0.930 . S
H573 C581 0.930 . S
H574 C584 0.930 . S
H575 C585 0.930 . S
C576 H570 0.930 . S
C576 C577 1.355 . S
C576 C578 1.415 . S
C577 C576 1.355 . S
C577 C579 1.419 . S
C578 C576 1.415 . S
C578 C583 1.425 . S
C578 C585 1.409 . S
C579 H571 0.930 . S
C579 C577 1.419 . S
C579 C580 1.362 . S
C580 H572 0.930 . S
C580 C579 1.362 . S
C580 C583 1.409 . S
C581 H573 0.930 . S
C581 C582 1.355 . S
C581 C583 1.415 . S
C582 C581 1.355 . S
C582 C584 1.419 . S
C583 C578 1.425 . S
C583 C580 1.409 . S
C583 C581 1.415 . S
C584 H574 0.930 . S
C584 C582 1.419 . S
C584 C585 1.362 . S
C585 H575 0.930 . S
C585 C578 1.409 . S
C585 C584 1.362 . S
H586 C592 0.930 . S
H587 C595 0.930 . S
H588 C596 0.930 . S
H589 C597 0.930 . S
H590 C600 0.930 . S
H591 C601 0.930 . S
C592 H586 0.930 . S
C592 C593 1.355 . S
C592 C594 1.415 . S
C593 C592 1.355 . S
C593 C595 1.419 . S
C594 C592 1.415 . S
C594 C599 1.425 . S
C594 C601 1.409 . S
C595 H587 0.930 . S
C595 C593 1.419 . S
C595 C596 1.362 . S
C596 H588 0.930 . S
C596 C595 1.362 . S
C596 C599 1.409 . S
C597 H589 0.930 . S
C597 C598 1.355 . S
C597 C599 1.415 . S
C598 C597 1.355 . S
C598 C600 1.419 . S
C599 C594 1.425 . S
C599 C596 1.409 . S
C599 C597 1.415 . S
C600 H590 0.930 . S
C600 C598 1.419 . S
C600 C601 1.362 . S
C601 H591 0.930 . S
C601 C594 1.409 . S
C601 C600 1.362 . S
H602 C608 0.930 . S
H603 C611 0.930 . S
H604 C612 0.930 . S
H605 C613 0.930 . S
H606 C616 0.930 . S
H607 C617 0.930 . S
C608 H602 0.930 . S
C608 C609 1.355 . S
C608 C610 1.415 . S
C609 C608 1.355 . S
C609 C611 1.419 . S
C610 C608 1.415 . S
C610 C615 1.425 . S
C610 C617 1.409 . S
C611 H603 0.930 . S
C611 C609 1.419 . S
C611 C612 1.362 . S
C612 H604 0.930 . S
C612 C611 1.362 . S
C612 C615 1.409 . S
C613 H605 0.930 . S
C613 C614 1.355 . S
C613 C615 1.415 . S
C614 C613 1.355 . S
C614 C616 1.419 . S
C615 C610 1.425 . S
C615 C612 1.409 . S
C615 C613 1.415 . S
C616 H606 0.930 . S
C616 C614 1.419 . S
C616 C617 1.362 . S
C617 H607 0.930 . S
C617 C610 1.409 . S
C617 C616 1.362 . S
H618 C624 0.930 . S
H619 C627 0.930 . S
H620 C628 0.930 . S
H621 C629 0.930 . S
H622 C632 0.930 . S
H623 C633 0.930 . S
C624 H618 0.930 . S
C624 C625 1.355 . S
C624 C626 1.415 . S
C625 C624 1.355 . S
C625 C627 1.419 . S
C626 C624 1.415 . S
C626 C631 1.425 . S
C626 C633 1.409 . S
C627 H619 0.930 . S
C627 C625 1.419 . S
C627 C628 1.362 . S
C628 H620 0.930 . S
C628 C627 1.362 . S
C628 C631 1.409 . S
C629 H621 0.930 . S
C629 C630 1.355 . S
C629 C631 1.415 . S
C630 C629 1.355 . S
C630 C632 1.419 . S
C631 C626 1.425 . S
C631 C628 1.409 . S
C631 C629 1.415 . S
C632 H622 0.930 . S
C632 C630 1.419 . S
C632 C633 1.362 . S
C633 H623 0.930 . S
C633 C626 1.409 . S
C633 C632 1.362 . S
H634 C640 0.930 . S
H635 C643 0.930 . S
H636 C644 0.930 . S
H637 C645 0.930 . S
H638 C648 0.930 . S
H639 C649 0.930 . S
C640 H634 0.930 . S
C640 C641 1.355 . S
C640 C642 1.415 . S
C641 C640 1.355 . S
C641 C643 1.419 . S
C642 C640 1.415 . S
C642 C647 1.425 . S
C642 C649 1.409 . S
C643 H635 0.930 . S
C643 C641 1.419 . S
C643 C644 1.362 . S
C644 H636 0.930 . S
C644 C643 1.362 . S
C644 C647 1.409 . S
C645 H637 0.930 . S
C645 C646 1.355 . S
C645 C647 1.415 . S
C646 C645 1.355 . S
C646 C648 1.419 . S
C647 C642 1.425 . S
C647 C644 1.409 . S
C647 C645 1.415 . S
C648 H638 0.930 . S
C648 C646 1.419 . S
C648 C649 1.362 . S
C649 H639 0.930 . S
C649 C642 1.409 . S
C649 C648 1.362 . S
H650 C656 0.930 . S
H651 C659 0.930 . S
H652 C660 0.930 . S
H653 C661 0.930 . S
H654 C664 0.930 . S
H655 C665 0.930 . S
C656 H650 0.930 . S
C656 C657 1.355 . S
C656 C658 1.415 . S
C657 C656 1.355 . S
C657 C659 1.419 . S
C658 C656 1.415 . S
C658 C663 1.425 . S
C658 C665 1.409 . S
C659 H651 0.930 . S
C659 C657 1.419 . S
C659 C660 1.362 . S
C660 H652 0.930 . S
C660 C659 1.362 . S
C660 C663 1.409 . S
C661 H653 0.930 . S
C661 C662 1.355 . S
C661 C663 1.415 . S
C662 C661 1.355 . S
C662 C664 1.419 . S
C663 C658 1.425 . S
C663 C660 1.409 . S
C663 C661 1.415 . S
C664 H654 0.930 . S
C664 C662 1.419 . S
C664 C665 1.362 . S
C665 H655 0.930 . S
C665 C658 1.409 . S
C665 C664 1.362 . S
H666 C672 0.930 . S
H667 C675 0.930 . S
H668 C676 0.930 . S
H669 C677 0.930 . S
H670 C680 0.930 . S
H671 C681 0.930 . S
C672 H666 0.930 . S
C672 C673 1.355 . S
C672 C674 1.415 . S
C673 C672 1.355 . S
C673 C675 1.419 . S
C674 C672 1.415 . S
C674 C679 1.425 1_554 S
C674 C681 1.409 1_554 S
C675 H667 0.930 . S
C675 C673 1.419 . S
C675 C676 1.362 . S
C676 H668 0.930 . S
C676 C675 1.362 . S
C676 C679 1.409 1_554 S
C677 H669 0.930 . S
C677 C678 1.355 . S
C677 C679 1.415 . S
C678 C677 1.355 . S
C678 C680 1.419 . S
C679 C674 1.425 1_556 S
C679 C676 1.409 1_556 S
C679 C677 1.415 . S
C680 H670 0.930 . S
C680 C678 1.419 . S
C680 C681 1.362 . S
C681 H671 0.930 . S
C681 C674 1.409 1_556 S
C681 C680 1.362 . S
H682 C688 0.930 . S
H683 C691 0.930 . S
H684 C692 0.930 . S
H685 C693 0.930 . S
H686 C696 0.930 . S
H687 C697 0.930 . S
C688 H682 0.930 . S
C688 C689 1.355 . S
C688 C690 1.415 . S
C689 C688 1.355 . S
C689 C691 1.419 1_545 S
C690 C688 1.415 . S
C690 C695 1.425 1_546 S
C690 C697 1.409 1_556 S
C691 H683 0.930 . S
C691 C689 1.419 1_565 S
C691 C692 1.362 . S
C692 H684 0.930 . S
C692 C691 1.362 . S
C692 C695 1.409 1_556 S
C693 H685 0.930 . S
C693 C694 1.361 . S
C693 C695 1.415 . S
C694 C693 1.361 . S
C694 C696 1.411 1_565 S
C695 C690 1.425 1_564 S
C695 C692 1.409 1_554 S
C695 C693 1.415 . S
C696 H686 0.930 . S
C696 C694 1.411 1_545 S
C696 C697 1.362 . S
C697 H687 0.930 . S
C697 C690 1.409 1_554 S
C697 C696 1.362 . S
H698 C704 0.930 . S
H699 C707 0.930 . S
H700 C708 0.930 . S
H701 C709 0.930 . S
H702 C712 0.930 . S
H703 C713 0.930 . S
C704 H698 0.930 . S
C704 C705 1.355 . S
C704 C706 1.415 . S
C705 C704 1.355 . S
C705 C707 1.419 1_655 S
C706 C704 1.415 . S
C706 C711 1.425 1_656 S
C706 C713 1.409 1_556 S
C707 H699 0.930 . S
C707 C705 1.419 1_455 S
C707 C708 1.362 . S
C708 H700 0.930 . S
C708 C707 1.362 . S
C708 C711 1.409 1_556 S
C709 H701 0.930 . S
C709 C710 1.355 . S
C709 C711 1.415 . S
C710 C709 1.355 . S
C710 C712 1.419 1_455 S
C711 C706 1.425 1_454 S
C711 C708 1.409 1_554 S
C711 C709 1.415 . S
C712 H702 0.930 . S
C712 C710 1.419 1_655 S
C712 C713 1.362 . S
C713 H703 0.930 . S
C713 C706 1.409 1_554 S
C713 C712 1.362 . S
H714 C720 0.930 . S
H715 C723 0.930 . S
H716 C724 0.930 . S
H717 C725 0.930 . S
H718 C728 0.930 . S
H719 C729 0.930 . S
C720 H714 0.930 . S
C720 C721 1.355 . S
C720 C722 1.415 . S
C721 C720 1.355 . S
C721 C723 1.419 . S
C722 C720 1.415 . S
C722 C727 1.425 . S
C722 C729 1.409 . S
C723 H715 0.930 . S
C723 C721 1.419 . S
C723 C724 1.362 . S
C724 H716 0.930 . S
C724 C723 1.362 . S
C724 C727 1.409 . S
C725 H717 0.930 . S
C725 C726 1.355 . S
C725 C727 1.415 . S
C726 C725 1.355 . S
C726 C728 1.419 . S
C727 C722 1.425 . S
C727 C724 1.409 . S
C727 C725 1.415 . S
C728 H718 0.930 . S
C728 C726 1.419 . S
C728 C729 1.362 . S
C729 H719 0.930 . S
C729 C722 1.409 . S
C729 C728 1.362 . S
H730 C736 0.930 . S
H731 C739 0.930 . S
H732 C740 0.930 . S
H733 C741 0.930 . S
H734 C744 0.930 . S
H735 C745 0.930 . S
C736 H730 0.930 . S
C736 C737 1.355 . S
C736 C738 1.415 . S
C737 C736 1.355 . S
C737 C739 1.419 . S
C738 C736 1.415 . S
C738 C743 1.425 . S
C738 C745 1.409 . S
C739 H731 0.930 . S
C739 C737 1.419 . S
C739 C740 1.362 . S
C740 H732 0.930 . S
C740 C739 1.362 . S
C740 C743 1.409 . S
C741 H733 0.930 . S
C741 C742 1.355 . S
C741 C743 1.415 . S
C742 C741 1.355 . S
C742 C744 1.419 . S
C743 C738 1.425 . S
C743 C740 1.409 . S
C743 C741 1.415 . S
C744 H734 0.930 . S
C744 C742 1.419 . S
C744 C745 1.362 . S
C745 H735 0.930 . S
C745 C738 1.409 . S
C745 C744 1.362 . S
H746 C752 0.930 . S
H747 C755 0.930 . S
H748 C756 0.930 . S
H749 C757 0.930 . S
H750 C760 0.930 . S
H751 C761 0.930 . S
C752 H746 0.930 . S
C752 C753 1.355 . S
C752 C754 1.415 . S
C753 C752 1.355 . S
C753 C755 1.419 . S
C754 C752 1.415 . S
C754 C759 1.425 . S
C754 C761 1.409 . S
C755 H747 0.930 . S
C755 C753 1.419 . S
C755 C756 1.362 . S
C756 H748 0.930 . S
C756 C755 1.362 . S
C756 C759 1.409 . S
C757 H749 0.930 . S
C757 C758 1.355 . S
C757 C759 1.415 . S
C758 C757 1.355 . S
C758 C760 1.419 . S
C759 C754 1.425 . S
C759 C756 1.409 . S
C759 C757 1.415 . S
C760 H750 0.930 . S
C760 C758 1.419 . S
C760 C761 1.362 . S
C761 H751 0.930 . S
C761 C754 1.409 . S
C761 C760 1.362 . S
H762 C768 0.930 . S
H763 C771 0.930 . S
H764 C772 0.930 . S
H765 C773 0.930 . S
H766 C776 0.930 . S
H767 C777 0.930 . S
C768 H762 0.930 . S
C768 C769 1.355 . S
C768 C770 1.415 . S
C769 C768 1.355 . S
C769 C771 1.419 . S
C770 C768 1.415 . S
C770 C775 1.425 . S
C770 C777 1.409 . S
C771 H763 0.930 . S
C771 C769 1.419 . S
C771 C772 1.362 . S
C772 H764 0.930 . S
C772 C771 1.362 . S
C772 C775 1.409 . S
C773 H765 0.930 . S
C773 C774 1.355 . S
C773 C775 1.415 . S
C774 C773 1.355 . S
C774 C776 1.419 . S
C775 C770 1.425 . S
C775 C772 1.409 . S
C775 C773 1.415 . S
C776 H766 0.930 . S
C776 C774 1.419 . S
C776 C777 1.362 . S
C777 H767 0.930 . S
C777 C770 1.409 . S
C777 C776 1.362 . S
H778 C784 0.930 . S
H779 C787 0.930 . S
H780 C788 0.930 . S
H781 C789 0.930 . S
H782 C792 0.930 . S
H783 C793 0.930 . S
C784 H778 0.930 . S
C784 C785 1.355 . S
C784 C786 1.415 . S
C785 C784 1.355 . S
C785 C787 1.419 . S
C786 C784 1.415 . S
C786 C791 1.425 . S
C786 C793 1.409 . S
C787 H779 0.930 . S
C787 C785 1.419 . S
C787 C788 1.362 . S
C788 H780 0.930 . S
C788 C787 1.362 . S
C788 C791 1.409 . S
C789 H781 0.930 . S
C789 C790 1.355 . S
C789 C791 1.415 . S
C790 C789 1.355 . S
C790 C792 1.419 . S
C791 C786 1.425 . S
C791 C788 1.409 . S
C791 C789 1.415 . S
C792 H782 0.930 . S
C792 C790 1.419 . S
C792 C793 1.362 . S
C793 H783 0.930 . S
C793 C786 1.409 . S
C793 C792 1.362 . S
H794 C800 0.930 . S
H795 C803 0.930 . S
H796 C804 0.930 . S
H797 C805 0.930 . S
H798 C808 0.930 . S
H799 C809 0.930 . S
C800 H794 0.930 . S
C800 C801 1.355 . S
C800 C802 1.415 . S
C801 C800 1.355 . S
C801 C803 1.419 . S
C802 C800 1.415 . S
C802 C807 1.425 . S
C802 C809 1.409 . S
C803 H795 0.930 . S
C803 C801 1.419 . S
C803 C804 1.362 . S
C804 H796 0.930 . S
C804 C803 1.362 . S
C804 C807 1.409 . S
C805 H797 0.930 . S
C805 C806 1.355 . S
C805 C807 1.415 . S
C806 C805 1.355 . S
C806 C808 1.419 . S
C807 C802 1.425 . S
C807 C804 1.409 . S
C807 C805 1.415 . S
C808 H798 0.930 . S
C808 C806 1.419 . S
C808 C809 1.362 . S
C809 H799 0.930 . S
C809 C802 1.409 . S
C809 C808 1.362 . S
C241 C134 1.378 . S
C246 C10 1.393 . S
C257 C23 1.397 . S
C262 C147 1.407 . S
C273 C121 1.404 . S
C278 C30 1.393 . S
C289 C192 1.327 . S
C294 C49 1.339 . S
C305 C56 1.397 . S
C310 C166 1.407 . S
C321 C179 1.398 . S
C326 C69 1.385 . S
C337 C88 1.401 . S
C342 C212 1.389 . S
C353 C225 1.373 . S
C358 C101 1.356 . S
C369 C114 1.325 . S
C374 C205 1.320 . S
C385 C3 1.349 . S
C390 C18 1.337 . S
C401 C16 1.288 . S
C406 C29 1.350 . S
C417 C5 1.317 . S
C422 C31 1.321 . S
C433 C68 1.337 . S
C438 C42 1.297 . S
C449 C44 1.309 . S
C454 C57 1.363 . S
C465 C70 1.318 . S
C470 C55 1.319 . S
C481 C81 1.361 . S
C486 C96 1.320 . S
C497 C94 1.322 . S
C502 C109 1.360 . S
C513 C83 1.355 . S
C518 C107 1.330 . S
C529 C146 1.309 . S
C534 C122 1.334 . S
C545 C120 1.358 . S
C550 C135 1.326 . S
C561 C133 1.318 . S
C566 C148 1.362 . S
C577 C174 1.304 . S
C582 C159 1.360 . S
C593 C187 1.364 . S
C598 C172 1.282 . S
C609 C161 1.363 . S
C614 C185 1.282 . S
C625 C198 1.362 . S
C630 C224 1.306 . S
C641 C213 1.354 . S
C646 C200 1.303 . S
C657 C226 1.358 . S
C662 C211 1.325 . S
C673 C4 1.699 . S
C678 C43 1.723 . S
C689 C62 1.703 . S
C694 C17 1.709 . S
C705 C75 1.703 . S
C710 C36 1.736 . S
C721 C127 1.746 . S
C726 C82 1.733 . S
C737 C140 1.747 . S
C742 C95 1.722 . S
C753 C108 1.730 . S
C758 C153 1.700 . S
C769 C199 1.744 . S
C774 C160 1.711 . S
C785 C218 1.747 . S
C790 C173 1.729 . S
C801 C231 1.727 . S
C806 C186 1.747 . S
