# Generated by pormake.
# Topology fnl, (5)-cn, num edge types: 1
# Building blocks:
#     Node 0, Type 0, BuildingBlock: XOMCOT_clean_sbu_1, # of connection points: 5
#     Node 1, Type 0, BuildingBlock: XOMCOT_clean_sbu_1, # of connection points: 5
#     Node 2, Type 0, BuildingBlock: XOMCOT_clean_sbu_1, # of connection points: 5
#     Node 3, Type 0, BuildingBlock: XOMCOT_clean_sbu_1, # of connection points: 5
#     Node 4, Type 0, BuildingBlock: XOMCOT_clean_sbu_1, # of connection points: 5
#     Node 5, Type 0, BuildingBlock: XOMCOT_clean_sbu_1, # of connection points: 5
#     Node 6, Type 0, BuildingBlock: XOMCOT_clean_sbu_1, # of connection points: 5
#     Node 7, Type 0, BuildingBlock: XOMCOT_clean_sbu_1, # of connection points: 5
#     Node 8, Type 0, BuildingBlock: XOMCOT_clean_sbu_1, # of connection points: 5
#     Node 9, Type 0, BuildingBlock: XOMCOT_clean_sbu_1, # of connection points: 5
#     Node 10, Type 0, BuildingBlock: XOMCOT_clean_sbu_1, # of connection points: 5
#     Node 11, Type 0, BuildingBlock: XOMCOT_clean_sbu_1, # of connection points: 5
#     Node 12, Type 0, BuildingBlock: XOMCOT_clean_sbu_1, # of connection points: 5
#     Node 13, Type 0, BuildingBlock: XOMCOT_clean_sbu_1, # of connection points: 5
#     Node 14, Type 0, BuildingBlock: XOMCOT_clean_sbu_1, # of connection points: 5
#     Node 15, Type 0, BuildingBlock: XOMCOT_clean_sbu_1, # of connection points: 5
#     Edge 16, Type (0, 0), BuildingBlock: AJUNOK_clean_linker_0, # of connection points: 2
#     Edge 17, Type (0, 0), BuildingBlock: AJUNOK_clean_linker_0, # of connection points: 2
#     Edge 18, Type (0, 0), BuildingBlock: AJUNOK_clean_linker_0, # of connection points: 2
#     Edge 19, Type (0, 0), BuildingBlock: AJUNOK_clean_linker_0, # of connection points: 2
#     Edge 20, Type (0, 0), BuildingBlock: AJUNOK_clean_linker_0, # of connection points: 2
#     Edge 21, Type (0, 0), BuildingBlock: AJUNOK_clean_linker_0, # of connection points: 2
#     Edge 22, Type (0, 0), BuildingBlock: AJUNOK_clean_linker_0, # of connection points: 2
#     Edge 23, Type (0, 0), BuildingBlock: AJUNOK_clean_linker_0, # of connection points: 2
#     Edge 24, Type (0, 0), BuildingBlock: AJUNOK_clean_linker_0, # of connection points: 2
#     Edge 25, Type (0, 0), BuildingBlock: AJUNOK_clean_linker_0, # of connection points: 2
#     Edge 26, Type (0, 0), BuildingBlock: AJUNOK_clean_linker_0, # of connection points: 2
#     Edge 27, Type (0, 0), BuildingBlock: AJUNOK_clean_linker_0, # of connection points: 2
#     Edge 28, Type (0, 0), BuildingBlock: AJUNOK_clean_linker_0, # of connection points: 2
#     Edge 29, Type (0, 0), BuildingBlock: AJUNOK_clean_linker_0, # of connection points: 2
#     Edge 30, Type (0, 0), BuildingBlock: AJUNOK_clean_linker_0, # of connection points: 2
#     Edge 31, Type (0, 0), BuildingBlock: AJUNOK_clean_linker_0, # of connection points: 2
#     Edge 32, Type (0, 0), BuildingBlock: AJUNOK_clean_linker_0, # of connection points: 2
#     Edge 33, Type (0, 0), BuildingBlock: AJUNOK_clean_linker_0, # of connection points: 2
#     Edge 34, Type (0, 0), BuildingBlock: AJUNOK_clean_linker_0, # of connection points: 2
#     Edge 35, Type (0, 0), BuildingBlock: AJUNOK_clean_linker_0, # of connection points: 2
#     Edge 36, Type (0, 0), BuildingBlock: AJUNOK_clean_linker_0, # of connection points: 2
#     Edge 37, Type (0, 0), BuildingBlock: AJUNOK_clean_linker_0, # of connection points: 2
#     Edge 38, Type (0, 0), BuildingBlock: AJUNOK_clean_linker_0, # of connection points: 2
#     Edge 39, Type (0, 0), BuildingBlock: AJUNOK_clean_linker_0, # of connection points: 2
#     Edge 40, Type (0, 0), BuildingBlock: AJUNOK_clean_linker_0, # of connection points: 2
#     Edge 41, Type (0, 0), BuildingBlock: AJUNOK_clean_linker_0, # of connection points: 2
#     Edge 42, Type (0, 0), BuildingBlock: AJUNOK_clean_linker_0, # of connection points: 2
#     Edge 43, Type (0, 0), BuildingBlock: AJUNOK_clean_linker_0, # of connection points: 2
#     Edge 44, Type (0, 0), BuildingBlock: AJUNOK_clean_linker_0, # of connection points: 2
#     Edge 45, Type (0, 0), BuildingBlock: AJUNOK_clean_linker_0, # of connection points: 2
#     Edge 46, Type (0, 0), BuildingBlock: AJUNOK_clean_linker_0, # of connection points: 2
#     Edge 47, Type (0, 0), BuildingBlock: AJUNOK_clean_linker_0, # of connection points: 2
#     Edge 48, Type (0, 0), BuildingBlock: AJUNOK_clean_linker_0, # of connection points: 2
#     Edge 49, Type (0, 0), BuildingBlock: AJUNOK_clean_linker_0, # of connection points: 2
#     Edge 50, Type (0, 0), BuildingBlock: AJUNOK_clean_linker_0, # of connection points: 2
#     Edge 51, Type (0, 0), BuildingBlock: AJUNOK_clean_linker_0, # of connection points: 2
#     Edge 52, Type (0, 0), BuildingBlock: AJUNOK_clean_linker_0, # of connection points: 2
#     Edge 53, Type (0, 0), BuildingBlock: AJUNOK_clean_linker_0, # of connection points: 2
#     Edge 54, Type (0, 0), BuildingBlock: AJUNOK_clean_linker_0, # of connection points: 2
#     Edge 55, Type (0, 0), BuildingBlock: AJUNOK_clean_linker_0, # of connection points: 2
# Relax obj value: 0.510
# Max RMSD: 0.268
# Mean RMSD: 0.268
data_MOF--net-fnl--node1-XOMCOT_clean_sbu_1--edge1-AJUNOK_clean_linker_0
_symmetry_space_group_name_H-M    P1
_symmetry_Int_Tables_number       1
_symmetry_cell_setting            triclinic
loop_
_symmetry_equiv_pos_as_xyz
'x, y, z'
_cell_length_a     26.578232
_cell_length_b     26.557197
_cell_length_c     72.540772
_cell_angle_alpha  89.990876
_cell_angle_beta   90.055147
_cell_angle_gamma 90.038644
loop_
_atom_site_label
_atom_site_type_symbol
_atom_site_fract_x
_atom_site_fract_y
_atom_site_fract_z
_atom_type_partial_charge
C0 C 0.99559 0.02776 0.05744 0.0
C1 C 0.98395 0.97751 0.05626 0.0
N2 N 0.01385 0.95234 0.06805 0.0
N3 N 0.03259 0.03426 0.06992 0.0
C4 C 0.04348 0.98744 0.07607 0.0
H5 H 0.97771 0.05801 0.04991 0.0
Co6 Co 0.05343 0.09819 0.07646 0.0
C7 C 0.12366 0.08557 0.10842 0.0
O8 O 0.10634 0.1273 0.11577 0.0
N9 N 0.07271 0.16453 0.08233 0.0
C10 C 0.11525 0.23659 0.08469 0.0
C11 C 0.11913 0.18529 0.08194 0.0
C12 C 0.04152 0.20403 0.085 0.0
N13 N 0.06623 0.24799 0.08677 0.0
O14 O 0.09979 0.09682 0.05632 0.0
H15 H 0.15342 0.16469 0.07921 0.0
H16 H 1.00115 0.20179 0.08436 0.0
O17 O 0.1058 0.0702 0.09297 0.0
C18 C 0.0882 0.12285 0.0422 0.0
O19 O 0.05164 0.15591 0.04357 0.0
N20 N 0.0039 0.09793 0.09488 0.0
C21 C 0.91672 0.08455 0.11558 0.0
C22 C 0.96296 0.06589 0.12183 0.0
C23 C 0.00577 0.07171 0.11106 0.0
C24 C 0.95901 0.11606 0.08858 0.0
C25 C 0.91499 0.11043 0.09882 0.0
H26 H 0.03848 0.05081 0.11514 0.0
H27 H 0.95687 0.13243 0.07494 0.0
H28 H 0.07138 0.97924 0.08653 0.0
H29 H 0.95596 0.9606 0.04734 0.0
H30 H 0.14584 0.26351 0.08466 0.0
H31 H 0.96519 0.04263 0.13408 0.0
H32 H 0.87953 0.12333 0.09317 0.0
C33 C 0.33827 0.8273 0.30546 0.0
C34 C 0.38849 0.81587 0.30413 0.0
N35 N 0.41331 0.8423 0.31709 0.0
N36 N 0.33142 0.8608 0.31916 0.0
C37 C 0.378 0.86974 0.32595 0.0
H38 H 0.30827 0.81165 0.29715 0.0
Co39 Co 0.26739 0.88012 0.3261 0.0
C40 C 0.28001 0.94885 0.35858 0.0
O41 O 0.23831 0.93135 0.36588 0.0
N42 N 0.2009 0.89784 0.3323 0.0
C43 C 0.12814 0.93888 0.33495 0.0
C44 C 0.17937 0.94392 0.33238 0.0
C45 C 0.1619 0.8657 0.33451 0.0
N46 N 0.1174 0.88944 0.33626 0.0
O47 O 0.26781 0.92842 0.30651 0.0
H48 H 0.19935 0.97879 0.32996 0.0
H49 H 0.16518 0.82534 0.33414 0.0
O50 O 0.2952 0.93148 0.34306 0.0
C51 C 0.24162 0.91844 0.29226 0.0
O52 O 0.2086 0.88168 0.29313 0.0
N53 N 0.26861 0.82893 0.34393 0.0
C54 C 0.28302 0.74007 0.36367 0.0
C55 C 0.30022 0.7862 0.37061 0.0
C56 C 0.2938 0.82995 0.36034 0.0
C57 C 0.25186 0.78421 0.33697 0.0
C58 C 0.25808 0.73934 0.3467 0.0
H59 H 0.31332 0.8629 0.36505 0.0
H60 H 0.23585 0.78307 0.32325 0.0
H61 H 0.38583 0.89458 0.33743 0.0
H62 H 0.4056 0.79043 0.29431 0.0
H63 H 0.10079 0.96905 0.33481 0.0
H64 H 0.32264 0.78785 0.38308 0.0
H65 H 0.24616 0.70413 0.34055 0.0
C66 C 0.53289 0.1645 0.55467 0.0
C67 C 0.54281 0.21503 0.55299 0.0
N68 N 0.51612 0.23971 0.5659 0.0
N69 N 0.50027 0.15724 0.56861 0.0
C70 C 0.49048 0.20383 0.57522 0.0
H71 H 0.54892 0.13461 0.54643 0.0
Co72 Co 0.48181 0.0931 0.57585 0.0
C73 C 0.41213 0.10676 0.60805 0.0
O74 O 0.43022 0.06644 0.6162 0.0
N75 N 0.46476 0.02672 0.5824 0.0
C76 C 0.42397 0.95408 0.58599 0.0
C77 C 0.41874 0.0052 0.58317 0.0
C78 C 0.49706 0.98778 0.58438 0.0
N79 N 0.47345 0.94343 0.58687 0.0
O80 O 0.43338 0.09238 0.55634 0.0
H81 H 0.38368 0.02513 0.58116 0.0
H82 H 0.53718 0.99074 0.58268 0.0
O83 O 0.43016 0.1207 0.59249 0.0
C84 C 0.44229 0.06585 0.5421 0.0
O85 O 0.47874 0.0325 0.54279 0.0
N86 N 0.5327 0.09552 0.59376 0.0
C87 C 0.62021 0.10969 0.61431 0.0
C88 C 0.57392 0.12809 0.6206 0.0
C89 C 0.53091 0.12172 0.60994 0.0
C90 C 0.57766 0.07809 0.58731 0.0
C91 C 0.62185 0.08409 0.59748 0.0
H92 H 0.4979 0.14188 0.61416 0.0
H93 H 0.57962 0.06166 0.57369 0.0
H94 H 0.46639 0.21124 0.58692 0.0
H95 H 0.56755 0.23244 0.54299 0.0
H96 H 0.39385 0.92671 0.58679 0.0
H97 H 0.57165 0.15118 0.63289 0.0
H98 H 0.65729 0.07134 0.59179 0.0
C99 C 0.19728 0.35719 0.8049 0.0
C100 C 0.14697 0.36819 0.80348 0.0
N101 N 0.12234 0.34309 0.81684 0.0
N102 N 0.20456 0.32544 0.81912 0.0
C103 C 0.15812 0.31724 0.82616 0.0
H104 H 0.22708 0.37221 0.79637 0.0
Co105 Co 0.26905 0.30766 0.82631 0.0
C106 C 0.25708 0.23895 0.85875 0.0
O107 O 0.29735 0.2588 0.86635 0.0
N108 N 0.33595 0.29148 0.8328 0.0
C109 C 0.40914 0.25141 0.83591 0.0
C110 C 0.35801 0.24566 0.83328 0.0
C111 C 0.37464 0.32418 0.83485 0.0
N112 N 0.4193 0.30099 0.83702 0.0
O113 O 0.27082 0.26019 0.80641 0.0
H114 H 0.33843 0.21043 0.83113 0.0
H115 H 0.37131 0.36435 0.83338 0.0
O116 O 0.24214 0.25488 0.84296 0.0
C117 C 0.29852 0.27113 0.79265 0.0
O118 O 0.3301 0.309 0.79412 0.0
N119 N 0.26591 0.35798 0.84438 0.0
C120 C 0.25203 0.44496 0.86518 0.0
C121 C 0.23276 0.39867 0.87118 0.0
C122 C 0.23892 0.35596 0.86037 0.0
C123 C 0.28375 0.40305 0.83813 0.0
C124 C 0.27804 0.44695 0.84846 0.0
H125 H 0.21803 0.32306 0.86428 0.0
H126 H 0.30036 0.40534 0.82455 0.0
H127 H 0.15086 0.29441 0.83823 0.0
H128 H 0.12969 0.39274 0.79338 0.0
H129 H 0.43684 0.22157 0.83641 0.0
H130 H 0.20918 0.39625 0.88333 0.0
H131 H 0.29131 0.48247 0.84296 0.0
C132 C 0.99187 0.15772 0.95238 0.0
C133 C 0.98095 0.20703 0.95613 0.0
N134 N 0.01272 0.23633 0.94643 0.0
N135 N 0.03008 0.15548 0.94025 0.0
C136 C 0.04205 0.20415 0.93671 0.0
H137 H 0.97304 0.12514 0.95808 0.0
Co138 Co 0.05193 0.09252 0.93273 0.0
C139 C 0.12304 0.10891 0.90143 0.0
O140 O 0.10427 0.06901 0.89319 0.0
N141 N 0.07194 0.02671 0.9261 0.0
C142 C 0.11621 0.9556 0.92419 0.0
C143 C 0.11891 0.00721 0.9262 0.0
C144 C 0.04161 0.98606 0.92421 0.0
N145 N 0.06735 0.94255 0.92302 0.0
O146 O 0.09727 0.09183 0.95325 0.0
H147 H 0.15282 0.02885 0.92853 0.0
H148 H 1.00123 0.98709 0.92518 0.0
O149 O 0.10523 0.12262 0.91709 0.0
C150 C 0.08621 0.06369 0.96689 0.0
O151 O 0.04956 0.03087 0.96503 0.0
N152 N 0.00371 0.09474 0.91389 0.0
C153 C 0.91813 0.11052 0.89246 0.0
C154 C 0.96414 0.13265 0.88767 0.0
C155 C 0.00607 0.12543 0.8988 0.0
C156 C 0.95895 0.07357 0.91887 0.0
C157 C 0.91582 0.08018 0.90819 0.0
H158 H 0.03835 0.14862 0.89606 0.0
H159 H 0.95575 0.05451 0.93199 0.0
H160 H 0.07188 0.21577 0.9275 0.0
H161 H 0.95159 0.22039 0.96523 0.0
H162 H 0.14758 0.92964 0.92423 0.0
H163 H 0.96666 0.15931 0.87639 0.0
H164 H 0.88037 0.06454 0.91283 0.0
C165 C 0.20603 0.83047 0.20616 0.0
C166 C 0.15654 0.81972 0.20972 0.0
N167 N 0.12768 0.84665 0.19805 0.0
N168 N 0.20879 0.86422 0.19237 0.0
C169 C 0.16036 0.87362 0.18764 0.0
H170 H 0.23832 0.81443 0.21308 0.0
Co171 Co 0.27152 0.88423 0.18398 0.0
C172 C 0.25096 0.94823 0.15078 0.0
O173 O 0.28703 0.92466 0.14189 0.0
N174 N 0.33717 0.9028 0.17641 0.0
C175 C 0.40618 0.94386 0.16771 0.0
C176 C 0.35533 0.94786 0.17102 0.0
C177 C 0.3785 0.87319 0.17737 0.0
N178 N 0.42118 0.89658 0.17187 0.0
O179 O 0.274 0.93242 0.20358 0.0
H180 H 0.33326 0.98185 0.16971 0.0
H181 H 0.37793 0.83588 0.1831 0.0
O182 O 0.24085 0.93565 0.16747 0.0
C183 C 0.302 0.92194 0.21732 0.0
O184 O 0.33414 0.88464 0.2158 0.0
N185 N 0.26763 0.83323 0.16603 0.0
C186 C 0.25322 0.74686 0.14487 0.0
C187 C 0.22685 0.79113 0.14091 0.0
C188 C 0.23326 0.8332 0.15202 0.0
C189 C 0.29199 0.78966 0.17052 0.0
C190 C 0.28594 0.7461 0.15995 0.0
H191 H 0.20738 0.86387 0.15006 0.0
H192 H 0.31296 0.78724 0.18322 0.0
H193 H 0.14934 0.89988 0.17697 0.0
H194 H 0.14278 0.79358 0.22 0.0
H195 H 0.42932 0.97403 0.16251 0.0
H196 H 0.19822 0.79197 0.13027 0.0
H197 H 0.30436 0.71154 0.16412 0.0
C198 C 0.52424 0.02823 0.45959 0.0
C199 C 0.53424 0.97848 0.46303 0.0
N200 N 0.51211 0.9505 0.44982 0.0
N201 N 0.49563 0.032 0.44435 0.0
C202 C 0.48868 0.98396 0.43861 0.0
H203 H 0.53753 0.06002 0.46755 0.0
Co204 Co 0.47909 0.09506 0.43529 0.0
C205 C 0.41788 0.07528 0.40118 0.0
O206 O 0.4425 0.1108 0.39235 0.0
N207 N 0.46421 0.16091 0.42697 0.0
C208 C 0.42904 0.23205 0.41704 0.0
C209 C 0.42105 0.1817 0.42077 0.0
C210 C 0.49654 0.20013 0.42793 0.0
N211 N 0.47702 0.24356 0.42143 0.0
O212 O 0.42796 0.09965 0.45378 0.0
H213 H 0.38576 0.16185 0.41925 0.0
H214 H 0.5325 0.1978 0.43463 0.0
O215 O 0.42944 0.06527 0.41797 0.0
C216 C 0.4367 0.12818 0.46754 0.0
O217 O 0.47371 0.16081 0.46638 0.0
N218 N 0.53285 0.08922 0.41865 0.0
C219 C 0.62324 0.07237 0.40027 0.0
C220 C 0.57871 0.04949 0.39425 0.0
C221 C 0.53431 0.05711 0.40395 0.0
C222 C 0.57635 0.11044 0.42499 0.0
C223 C 0.62187 0.10346 0.41579 0.0
H224 H 0.50277 0.03369 0.40039 0.0
H225 H 0.57661 0.12985 0.43807 0.0
H226 H 0.46688 0.9738 0.42657 0.0
H227 H 0.55682 0.96399 0.47427 0.0
H228 H 0.40137 0.25812 0.4117 0.0
H229 H 0.57901 0.02259 0.38302 0.0
H230 H 0.65603 0.11982 0.42133 0.0
C231 C 0.33496 0.36315 0.70346 0.0
C232 C 0.38507 0.37421 0.70555 0.0
N233 N 0.41159 0.34316 0.69459 0.0
N234 N 0.32974 0.32553 0.69117 0.0
C235 C 0.37721 0.31373 0.68602 0.0
H236 H 0.30392 0.38202 0.71017 0.0
Co237 Co 0.26627 0.30541 0.68373 0.0
C238 C 0.2827 0.24186 0.6503 0.0
O239 O 0.24508 0.26528 0.64225 0.0
N240 N 0.20005 0.28669 0.6771 0.0
C241 C 0.13046 0.2453 0.66931 0.0
C242 C 0.18142 0.24127 0.67238 0.0
C243 C 0.15899 0.31658 0.678 0.0
N244 N 0.11593 0.29304 0.67297 0.0
O245 O 0.26595 0.25744 0.70339 0.0
H246 H 0.20336 0.20716 0.67122 0.0
H247 H 0.16014 0.35434 0.68327 0.0
O248 O 0.29505 0.25383 0.66686 0.0
C249 C 0.23976 0.26821 0.71754 0.0
O250 O 0.20719 0.30527 0.71643 0.0
N251 N 0.26843 0.35632 0.66561 0.0
C252 C 0.28328 0.44286 0.6445 0.0
C253 C 0.30842 0.39811 0.64024 0.0
C254 C 0.30189 0.35601 0.65131 0.0
C255 C 0.24497 0.40023 0.6703 0.0
C256 C 0.25123 0.44385 0.65976 0.0
H257 H 0.32737 0.32514 0.64915 0.0
H258 H 0.22494 0.40295 0.68318 0.0
H259 H 0.38631 0.2856 0.67577 0.0
H260 H 0.40093 0.40292 0.71442 0.0
H261 H 0.10701 0.2148 0.66458 0.0
H262 H 0.33657 0.39691 0.62945 0.0
H263 H 0.23373 0.47867 0.66415 0.0
C264 C 0.7019 0.33716 0.70792 0.0
C265 C 0.65196 0.32488 0.70972 0.0
N266 N 0.62615 0.34894 0.69641 0.0
N267 N 0.7076 0.36888 0.69359 0.0
C268 C 0.66059 0.37593 0.6869 0.0
H269 H 0.73258 0.32279 0.7162 0.0
Co270 Co 0.7712 0.3861 0.68541 0.0
C271 C 0.75433 0.44733 0.65118 0.0
O272 O 0.79113 0.42297 0.64302 0.0
N273 N 0.83752 0.40156 0.67795 0.0
C274 C 0.90913 0.43693 0.66866 0.0
C275 C 0.85873 0.44498 0.67217 0.0
C276 C 0.87648 0.36905 0.67896 0.0
N277 N 0.92016 0.38866 0.67279 0.0
O278 O 0.77416 0.43659 0.70422 0.0
H279 H 0.83902 0.48035 0.67066 0.0
H280 H 0.8737 0.33275 0.68539 0.0
O281 O 0.74269 0.43634 0.66788 0.0
C282 C 0.80156 0.42702 0.71821 0.0
O283 O 0.8331 0.38904 0.71732 0.0
N284 N 0.76685 0.33269 0.66838 0.0
C285 C 0.75079 0.24282 0.64942 0.0
C286 C 0.72866 0.28766 0.64338 0.0
C287 C 0.73573 0.33171 0.65338 0.0
C288 C 0.78752 0.28887 0.67469 0.0
C289 C 0.78091 0.24361 0.66521 0.0
H290 H 0.71241 0.36325 0.64979 0.0
H291 H 0.80596 0.28807 0.68795 0.0
H292 H 0.65192 0.39854 0.6749 0.0
H293 H 0.6358 0.30011 0.71999 0.0
H294 H 0.93548 0.46468 0.66355 0.0
H295 H 0.70243 0.28782 0.63193 0.0
H296 H 0.79658 0.20916 0.67078 0.0
C297 C 0.83415 0.85147 0.2101 0.0
C298 C 0.88397 0.86162 0.21331 0.0
N299 N 0.91147 0.83966 0.19996 0.0
N300 N 0.82987 0.82288 0.19487 0.0
C301 C 0.87768 0.81615 0.1889 0.0
H302 H 0.80266 0.8646 0.21822 0.0
Co303 Co 0.76664 0.80588 0.18606 0.0
C304 C 0.78596 0.74333 0.15224 0.0
O305 O 0.7502 0.76742 0.14335 0.0
N306 N 0.70065 0.79053 0.17797 0.0
C307 C 0.62954 0.75475 0.16829 0.0
C308 C 0.67987 0.74702 0.17207 0.0
C309 C 0.66144 0.82287 0.17871 0.0
N310 N 0.61803 0.80294 0.17235 0.0
O311 O 0.76239 0.75546 0.20486 0.0
H312 H 0.69975 0.71169 0.17076 0.0
H313 H 0.66379 0.85923 0.18512 0.0
O314 O 0.79618 0.75556 0.16895 0.0
C315 C 0.73439 0.76508 0.21866 0.0
O316 O 0.7023 0.80251 0.21742 0.0
N317 N 0.7721 0.859 0.1691 0.0
C318 C 0.78824 0.94884 0.15021 0.0
C319 C 0.81099 0.90415 0.14433 0.0
C320 C 0.80373 0.86002 0.15427 0.0
C321 C 0.75097 0.90267 0.17529 0.0
C322 C 0.75757 0.94791 0.16583 0.0
H323 H 0.82707 0.82841 0.15078 0.0
H324 H 0.73193 0.90329 0.18843 0.0
H325 H 0.88746 0.79441 0.17682 0.0
H326 H 0.89886 0.88414 0.2245 0.0
H327 H 0.60351 0.72677 0.16311 0.0
H328 H 0.83757 0.90415 0.133 0.0
H329 H 0.74132 0.98222 0.17126 0.0
C330 C 0.83303 0.33469 0.80576 0.0
C331 C 0.88306 0.32218 0.8047 0.0
N332 N 0.90811 0.34913 0.81744 0.0
N333 N 0.82649 0.36925 0.81914 0.0
C334 C 0.87317 0.37784 0.82595 0.0
H335 H 0.80289 0.31878 0.7976 0.0
Co336 Co 0.76249 0.38917 0.82619 0.0
C337 C 0.77717 0.45732 0.85898 0.0
O338 O 0.73539 0.44109 0.86663 0.0
N339 N 0.69612 0.40736 0.8326 0.0
C340 C 0.62335 0.44841 0.83533 0.0
C341 C 0.6747 0.45347 0.83294 0.0
C342 C 0.65697 0.37525 0.83457 0.0
N343 N 0.61243 0.39893 0.83631 0.0
O344 O 0.76365 0.43855 0.807 0.0
H345 H 0.69478 0.48839 0.83073 0.0
H346 H 0.66019 0.33491 0.83402 0.0
O347 O 0.79117 0.439 0.84346 0.0
C348 C 0.73773 0.42906 0.79264 0.0
O349 O 0.70419 0.39274 0.79337 0.0
N350 N 0.76287 0.33697 0.84346 0.0
C351 C 0.78127 0.2453 0.86069 0.0
C352 C 0.79652 0.29056 0.86891 0.0
C353 C 0.78789 0.336 0.8599 0.0
C354 C 0.74646 0.29324 0.83562 0.0
C355 C 0.75436 0.24698 0.84416 0.0
H356 H 0.80586 0.36888 0.86545 0.0
H357 H 0.72997 0.29407 0.82198 0.0
H358 H 0.8813 0.40315 0.83725 0.0
H359 H 0.89989 0.2955 0.79526 0.0
H360 H 0.59609 0.47865 0.83525 0.0
H361 H 0.81924 0.29051 0.88133 0.0
H362 H 0.74277 0.2127 0.83726 0.0
C363 C 0.70334 0.86215 0.30752 0.0
C364 C 0.65295 0.8727 0.30594 0.0
N365 N 0.62782 0.84353 0.31799 0.0
N366 N 0.71005 0.82672 0.32057 0.0
C367 C 0.66326 0.81585 0.32672 0.0
H368 H 0.73349 0.87955 0.29979 0.0
Co369 Co 0.77383 0.80611 0.3274 0.0
C370 C 0.75912 0.73461 0.35912 0.0
O371 O 0.80051 0.75044 0.36718 0.0
N372 N 0.83987 0.78701 0.33354 0.0
C373 C 0.91191 0.74478 0.33628 0.0
C374 C 0.86059 0.74057 0.33371 0.0
C375 C 0.87941 0.81852 0.33568 0.0
N376 N 0.9234 0.79403 0.33765 0.0
O377 O 0.77254 0.75876 0.30756 0.0
H378 H 0.83999 0.706 0.3314 0.0
H379 H 0.87708 0.85883 0.33443 0.0
O380 O 0.74528 0.75432 0.34381 0.0
C381 C 0.79851 0.76823 0.29323 0.0
O382 O 0.83241 0.80421 0.294 0.0
N383 N 0.77343 0.85614 0.34564 0.0
C384 C 0.75991 0.94362 0.36624 0.0
C385 C 0.74212 0.8972 0.37268 0.0
C386 C 0.74815 0.85418 0.36201 0.0
C387 C 0.79101 0.90111 0.3392 0.0
C388 C 0.7853 0.94528 0.34938 0.0
H389 H 0.72817 0.82114 0.36634 0.0
H390 H 0.80699 0.90316 0.32551 0.0
H391 H 0.65536 0.78927 0.33765 0.0
H392 H 0.63594 0.89939 0.29653 0.0
H393 H 0.93879 0.71419 0.33656 0.0
H394 H 0.71939 0.89486 0.38505 0.0
H395 H 0.7977 0.98079 0.3436 0.0
C396 C 0.50113 0.53002 0.55589 0.0
C397 C 0.489 0.47992 0.55445 0.0
N398 N 0.51658 0.45436 0.56687 0.0
N399 N 0.53608 0.53605 0.56918 0.0
C400 C 0.54525 0.48906 0.57555 0.0
H401 H 0.48494 0.5605 0.54798 0.0
Co402 Co 0.55691 0.59961 0.57634 0.0
C403 C 0.62669 0.58402 0.60857 0.0
O404 O 0.61175 0.62612 0.61634 0.0
N405 N 0.57615 0.66552 0.5828 0.0
C406 C 0.61809 0.73797 0.58504 0.0
C407 C 0.62244 0.68655 0.58266 0.0
C408 C 0.54461 0.70491 0.58508 0.0
N409 N 0.56884 0.74929 0.58651 0.0
O410 O 0.60554 0.59826 0.55694 0.0
H411 H 0.65693 0.66616 0.58005 0.0
H412 H 0.50423 0.70196 0.58489 0.0
O413 O 0.60707 0.57017 0.59325 0.0
C414 C 0.5961 0.62424 0.5426 0.0
O415 O 0.55997 0.65792 0.54333 0.0
N416 N 0.5054 0.59936 0.59393 0.0
C417 C 0.41465 0.58096 0.6118 0.0
C418 C 0.4603 0.56588 0.61974 0.0
C419 C 0.50525 0.57448 0.6104 0.0
C420 C 0.4613 0.61584 0.5864 0.0
C421 C 0.41549 0.6078 0.59525 0.0
H422 H 0.53837 0.55665 0.61578 0.0
H423 H 0.46144 0.63246 0.57278 0.0
H424 H 0.5712 0.48046 0.58661 0.0
H425 H 0.46234 0.46338 0.54492 0.0
H426 H 0.64853 0.76501 0.58455 0.0
H427 H 0.4609 0.54325 0.63217 0.0
H428 H 0.38087 0.61923 0.58856 0.0
C429 C 0.02873 0.66284 0.05516 0.0
C430 C 0.03923 0.7133 0.05362 0.0
N431 N 0.01417 0.73781 0.067 0.0
N432 N 0.99733 0.6555 0.06947 0.0
C433 C 0.98898 0.70192 0.07647 0.0
H434 H 0.04348 0.63308 0.04655 0.0
Co435 Co 0.97867 0.59151 0.07678 0.0
C436 C 0.91261 0.60515 0.10998 0.0
O437 O 0.93035 0.56361 0.11737 0.0
N438 N 0.96145 0.52516 0.08338 0.0
C439 C 0.92083 0.45225 0.08662 0.0
C440 C 0.91547 0.50353 0.08412 0.0
C441 C 0.99381 0.48622 0.08515 0.0
N442 N 0.97036 0.44164 0.08722 0.0
O443 O 0.92864 0.59167 0.0578 0.0
H444 H 0.88038 0.52344 0.08216 0.0
H445 H 0.03407 0.4896 0.08419 0.0
O446 O 0.92903 0.61969 0.09425 0.0
C447 C 0.93793 0.56556 0.04348 0.0
O448 O 0.97461 0.53246 0.04415 0.0
N449 N 0.03149 0.5929 0.09388 0.0
C450 C 0.12299 0.61018 0.11146 0.0
C451 C 0.07777 0.62596 0.1195 0.0
C452 C 0.03251 0.61806 0.11029 0.0
C453 C 0.07524 0.57652 0.08608 0.0
C454 C 0.12141 0.58392 0.09479 0.0
H455 H 0.99988 0.63659 0.11572 0.0
H456 H 0.07449 0.56018 0.07242 0.0
H457 H 0.96621 0.70916 0.08854 0.0
H458 H 0.06309 0.73077 0.04336 0.0
H459 H 0.89075 0.42479 0.08688 0.0
H460 H 0.07777 0.64851 0.13195 0.0
H461 H 0.15572 0.57225 0.08797 0.0
C462 C 0.50627 0.65578 0.45757 0.0
C463 C 0.49513 0.70527 0.46099 0.0
N464 N 0.52062 0.73409 0.44889 0.0
N465 N 0.53883 0.65296 0.44342 0.0
C466 C 0.54712 0.70136 0.43834 0.0
H467 H 0.49121 0.6235 0.4648 0.0
Co468 Co 0.55843 0.59014 0.43498 0.0
C469 C 0.61948 0.60918 0.40116 0.0
O470 O 0.59523 0.57222 0.393 0.0
N471 N 0.57667 0.52442 0.42738 0.0
C472 C 0.61817 0.45566 0.41872 0.0
C473 C 0.62201 0.50644 0.42229 0.0
C474 C 0.54699 0.48305 0.42789 0.0
N475 N 0.57068 0.44053 0.42241 0.0
O476 O 0.6079 0.58817 0.45416 0.0
H477 H 0.65596 0.5287 0.42126 0.0
H478 H 0.50929 0.48342 0.43323 0.0
O479 O 0.60862 0.62059 0.4179 0.0
C480 C 0.59821 0.56029 0.46801 0.0
O481 O 0.56118 0.5277 0.46672 0.0
N482 N 0.50607 0.59358 0.41754 0.0
C483 C 0.41719 0.60924 0.39796 0.0
C484 C 0.4614 0.63439 0.39302 0.0
C485 C 0.50482 0.62747 0.40336 0.0
C486 C 0.46281 0.56984 0.42281 0.0
C487 C 0.41803 0.57638 0.413 0.0
H488 H 0.53557 0.65282 0.40077 0.0
H489 H 0.46177 0.54913 0.4356 0.0
H490 H 0.57219 0.7123 0.4273 0.0
H491 H 0.46965 0.71904 0.47147 0.0
H492 H 0.64857 0.43269 0.41362 0.0
H493 H 0.46129 0.66267 0.38224 0.0
H494 H 0.38385 0.55842 0.41779 0.0
C495 C 0.02607 0.53015 0.95868 0.0
C496 C 0.03607 0.48038 0.962 0.0
N497 N 0.01074 0.45249 0.94957 0.0
N498 N 0.9948 0.53409 0.94416 0.0
C499 C 0.98625 0.48603 0.93871 0.0
H500 H 0.0412 0.56189 0.96622 0.0
Co501 Co 0.97734 0.59781 0.93597 0.0
C502 C 0.91227 0.58404 0.90272 0.0
O503 O 0.93351 0.62369 0.89517 0.0
N504 N 0.96176 0.66444 0.92868 0.0
C505 C 0.92276 0.73821 0.92515 0.0
C506 C 0.91627 0.68699 0.92758 0.0
C507 C 0.99493 0.70288 0.9271 0.0
N508 N 0.97246 0.748 0.92514 0.0
O509 O 0.92771 0.60062 0.95506 0.0
H510 H 0.88069 0.66775 0.92928 0.0
H511 H 0.03505 0.69871 0.92804 0.0
O512 O 0.92643 0.5695 0.91878 0.0
C513 C 0.93729 0.62848 0.96893 0.0
O514 O 0.97461 0.66078 0.96777 0.0
N515 N 0.0297 0.5935 0.91881 0.0
C516 C 0.11964 0.57619 0.90026 0.0
C517 C 0.07412 0.55736 0.89336 0.0
C518 C 0.02979 0.56521 0.90309 0.0
C519 C 0.07391 0.61139 0.92581 0.0
C520 C 0.11926 0.60421 0.91655 0.0
H521 H 0.99717 0.54464 0.89865 0.0
H522 H 0.07427 0.62928 0.93921 0.0
H523 H 0.96263 0.4758 0.92713 0.0
H524 H 0.06086 0.46586 0.97258 0.0
H525 H 0.89331 0.76629 0.92446 0.0
H526 H 0.07339 0.53305 0.88136 0.0
H527 H 0.15393 0.61798 0.92259 0.0
C528 C 0.03832 0.38423 0.07727 0.0
C529 C 0.99433 0.39289 0.08764 0.0
C530 C 0.06247 0.33731 0.07744 0.0
C531 C 0.04346 0.29714 0.08793 0.0
H532 H 0.05368 0.41364 0.0686 0.0
H533 H 0.09537 0.33198 0.06888 0.0
S534 S 0.93224 0.30131 0.11877 0.0
N535 N 0.9347 0.35816 0.10957 0.0
N536 N 0.97996 0.26985 0.10987 0.0
C537 C 1.00017 0.30552 0.09867 0.0
C538 C 0.97559 0.35334 0.0985 0.0
C539 C 0.05959 0.82039 0.32752 0.0
C540 C 0.06859 0.86563 0.33715 0.0
C541 C 0.01257 0.79645 0.32813 0.0
C542 C 0.97261 0.8169 0.33834 0.0
H543 H 0.08881 0.80385 0.31909 0.0
H544 H 0.00702 0.7625 0.32013 0.0
S545 S 0.97772 0.93186 0.36735 0.0
N546 N 0.0344 0.92806 0.35814 0.0
N547 N 0.94594 0.88318 0.35925 0.0
C548 C 0.98133 0.86148 0.34835 0.0
C549 C 0.02926 0.88584 0.34774 0.0
C550 C 0.47574 0.85369 0.57806 0.0
C551 C 0.49692 0.89451 0.58762 0.0
C552 C 0.49959 0.80666 0.5777 0.0
C553 C 0.54548 0.79838 0.587 0.0
H554 H 0.44113 0.8585 0.57038 0.0
H555 H 0.48233 0.77679 0.56976 0.0
S556 S 0.61436 0.89205 0.61532 0.0
N557 N 0.56504 0.92311 0.60741 0.0
N558 N 0.60972 0.83451 0.60684 0.0
C559 C 0.56665 0.8387 0.59687 0.0
C560 C 0.54238 0.88673 0.59719 0.0
C561 C 0.50857 0.30504 0.82766 0.0
C562 C 0.46799 0.32507 0.83765 0.0
C563 C 0.55531 0.32955 0.82722 0.0
C564 C 0.56356 0.37497 0.83684 0.0
H565 H 0.50377 0.27083 0.81974 0.0
H566 H 0.58498 0.31314 0.81897 0.0
S567 S 0.47054 0.44079 0.8663 0.0
N568 N 0.43966 0.39159 0.85816 0.0
N569 N 0.52767 0.43744 0.85744 0.0
C570 C 0.52348 0.39498 0.84712 0.0
C571 C 0.47576 0.37006 0.84752 0.0
C572 C 0.97885 0.83501 0.91311 0.0
C573 C 0.99688 0.79663 0.92472 0.0
C574 C 0.00268 0.88224 0.91237 0.0
C575 C 0.04553 0.89278 0.92314 0.0
H576 H 0.94638 0.82826 0.90443 0.0
H577 H 0.98759 0.91082 0.90326 0.0
S578 S 0.10402 0.8074 0.95742 0.0
N579 N 0.05773 0.774 0.9484 0.0
N580 N 0.10264 0.86229 0.94675 0.0
C581 C 0.06344 0.85506 0.93501 0.0
C582 C 0.03907 0.80714 0.93587 0.0
C583 C 0.47721 0.82152 0.17188 0.0
C584 C 0.47134 0.87441 0.17123 0.0
C585 C 0.52478 0.79869 0.17211 0.0
C586 C 0.56921 0.82734 0.17131 0.0
H587 H 0.44485 0.7969 0.17222 0.0
H588 H 0.52652 0.75811 0.17322 0.0
S589 S 0.5763 0.96684 0.1674 0.0
N590 N 0.51567 0.95466 0.16916 0.0
N591 N 0.60431 0.91152 0.16789 0.0
C592 C 0.56426 0.8801 0.16976 0.0
C593 C 0.51571 0.9036 0.17008 0.0
C594 C 0.47281 0.33686 0.42132 0.0
C595 C 0.50146 0.29243 0.42067 0.0
C596 C 0.49566 0.38447 0.42145 0.0
C597 C 0.54853 0.39036 0.42133 0.0
H598 H 0.4322 0.33509 0.42205 0.0
H599 H 0.47107 0.41684 0.42165 0.0
S600 S 0.64106 0.28548 0.41803 0.0
N601 N 0.58575 0.25741 0.41791 0.0
N602 N 0.62882 0.34611 0.41988 0.0
C603 C 0.57775 0.34602 0.42031 0.0
C604 C 0.55426 0.29744 0.41962 0.0
C605 C 0.01334 0.39197 0.67283 0.0
C606 C 0.96869 0.36377 0.67189 0.0
C607 C 0.06064 0.36866 0.67275 0.0
C608 C 0.06599 0.31569 0.67218 0.0
H609 H 0.012 0.43257 0.6739 0.0
H610 H 0.09314 0.39306 0.67315 0.0
S611 S 0.96014 0.22438 0.66789 0.0
N612 N 0.93275 0.28 0.66831 0.0
N613 N 0.02084 0.2359 0.66991 0.0
C614 C 0.02136 0.28695 0.67086 0.0
C615 C 0.97309 0.31097 0.67036 0.0
C616 C 0.10594 0.14295 0.0093 0.0
C617 C 0.10397 0.10698 0.02353 0.0
C618 C 0.10596 0.12836 0.99071 0.0
C619 C 0.10267 0.07726 0.98572 0.0
H620 H 0.10408 0.18274 0.01255 0.0
H621 H 0.10383 0.15746 0.98026 0.0
S622 S 0.10295 0.9682 0.01765 0.0
N623 N 0.10468 0.01789 0.03132 0.0
N624 N 0.10288 0.99057 0.9964 0.0
C625 C 0.10471 0.04088 0.99978 0.0
C626 C 0.10589 0.05571 0.0187 0.0
C627 C 0.22166 0.93855 0.2595 0.0
C628 C 0.25739 0.93633 0.27381 0.0
C629 C 0.23656 0.94019 0.24095 0.0
C630 C 0.28776 0.93837 0.23609 0.0
H631 H 0.1819 0.93545 0.26261 0.0
H632 H 0.20773 0.93789 0.23041 0.0
S633 S 0.39613 0.93935 0.2683 0.0
N634 N 0.34624 0.93896 0.28185 0.0
N635 N 0.37414 0.94012 0.247 0.0
C636 C 0.32379 0.94053 0.25026 0.0
C637 C 0.30863 0.94005 0.26915 0.0
C638 C 0.42143 0.04634 0.50936 0.0
C639 C 0.42351 0.08174 0.52378 0.0
C640 C 0.41898 0.06174 0.49088 0.0
C641 C 0.41991 0.11316 0.48618 0.0
H642 H 0.42535 0.00653 0.51232 0.0
H643 H 0.4215 0.0332 0.48025 0.0
S644 S 0.41707 0.22067 0.51876 0.0
N645 N 0.41889 0.17038 0.53213 0.0
N646 N 0.4164 0.19923 0.49739 0.0
C647 C 0.41717 0.14875 0.50048 0.0
C648 C 0.41842 0.13307 0.51931 0.0
C649 C 0.2197 0.24914 0.75033 0.0
C650 C 0.25565 0.25161 0.73613 0.0
C651 C 0.23424 0.24932 0.76894 0.0
C652 C 0.28524 0.25333 0.77394 0.0
H653 H 0.17994 0.25071 0.74706 0.0
H654 H 0.20513 0.25129 0.77936 0.0
S655 S 0.39429 0.25392 0.7421 0.0
N656 N 0.34469 0.25159 0.7284 0.0
N657 N 0.37188 0.25387 0.76333 0.0
C658 C 0.32164 0.25145 0.75992 0.0
C659 C 0.30688 0.25004 0.74099 0.0
C660 C 0.71974 0.44851 0.75969 0.0
C661 C 0.75473 0.44619 0.77424 0.0
C662 C 0.73553 0.4487 0.74123 0.0
C663 C 0.78689 0.4453 0.73671 0.0
H664 H 0.67979 0.44644 0.76256 0.0
H665 H 0.70714 0.44642 0.73053 0.0
S666 S 0.89375 0.4458 0.76961 0.0
N667 N 0.84323 0.44736 0.78283 0.0
N668 N 0.87277 0.4458 0.74817 0.0
C669 C 0.82229 0.44757 0.7511 0.0
C670 C 0.80625 0.44856 0.76988 0.0
C671 C 0.80081 0.74609 0.24191 0.0
C672 C 0.74937 0.74835 0.23734 0.0
C673 C 0.81665 0.7479 0.26036 0.0
C674 C 0.78167 0.75063 0.27487 0.0
H675 H 0.82915 0.74791 0.2312 0.0
H676 H 0.85659 0.75065 0.26322 0.0
S677 S 0.64262 0.74848 0.27022 0.0
N678 N 0.66354 0.74733 0.24878 0.0
N679 N 0.6932 0.7487 0.28345 0.0
C680 C 0.73016 0.74721 0.27052 0.0
C681 C 0.71405 0.7466 0.25173 0.0
C682 C 0.61729 0.62673 0.49124 0.0
C683 C 0.61495 0.57528 0.48668 0.0
C684 C 0.616 0.64251 0.5097 0.0
C685 C 0.61358 0.60745 0.52422 0.0
H686 H 0.61516 0.65512 0.48054 0.0
H687 H 0.61331 0.68246 0.51257 0.0
S688 S 0.61534 0.46832 0.51955 0.0
N689 N 0.6161 0.48933 0.49811 0.0
N690 N 0.61549 0.51888 0.53279 0.0
C691 C 0.6168 0.55592 0.51986 0.0
C692 C 0.61697 0.53987 0.50107 0.0
C693 C 0.9174 0.56233 0.99214 0.0
C694 C 0.91981 0.61373 0.98751 0.0
C695 C 0.91816 0.54677 0.01063 0.0
C696 C 0.92007 0.58202 0.0251 0.0
H697 H 0.91999 0.53382 0.9815 0.0
H698 H 0.92102 0.50687 0.01357 0.0
S699 S 0.91756 0.72108 0.02017 0.0
N700 N 0.9178 0.6998 0.99877 0.0
N701 N 0.91716 0.67067 0.0335 0.0
C702 C 0.91662 0.63348 0.02064 0.0
C703 C 0.91708 0.6493 1.00182 0.0
C704 C 0.21935 0.98473 0.12103 0.0
C705 C 0.21865 0.98446 0.14049 0.0
C706 C 0.1886 0.01741 0.11079 0.0
C707 C 0.15658 0.05197 0.11955 0.0
H708 H 0.24333 0.95889 0.11355 0.0
H709 H 0.19018 0.01576 0.09588 0.0
S710 S 0.13966 0.06615 0.17016 0.0
N711 N 0.18225 0.0213 0.16808 0.0
N712 N 0.12521 0.0833 0.14892 0.0
C713 C 0.15557 0.05234 0.139 0.0
C714 C 0.18633 0.01845 0.14943 0.0
C715 C 0.34896 0.01309 0.36107 0.0
C716 C 0.31368 0.98165 0.36977 0.0
C717 C 0.3818 0.04362 0.37135 0.0
C718 C 0.38149 0.0433 0.3908 0.0
H719 H 0.35109 0.01435 0.34616 0.0
H720 H 0.4082 0.06712 0.36391 0.0
S721 S 0.29762 0.96615 0.42036 0.0
N722 N 0.28095 0.95143 0.39911 0.0
N723 N 0.34318 0.00806 0.41834 0.0
C724 C 0.34671 0.01166 0.39969 0.0
C725 C 0.3127 0.98111 0.38922 0.0
C726 C 0.37419 0.13699 0.63777 0.0
C727 C 0.37757 0.14054 0.6184 0.0
C728 C 0.34373 0.16995 0.64801 0.0
C729 C 0.31463 0.20716 0.63927 0.0
H730 H 0.39599 0.10909 0.64518 0.0
H731 H 0.34274 0.16601 0.66287 0.0
S732 S 0.31008 0.23249 0.58888 0.0
N733 N 0.34935 0.18471 0.59094 0.0
N734 N 0.29167 0.24602 0.61003 0.0
C735 C 0.3174 0.21092 0.6199 0.0
C736 C 0.34896 0.17784 0.60952 0.0
C737 C 0.1621 0.13755 0.8717 0.0
C738 C 0.15848 0.1419 0.89105 0.0
C739 C 0.19382 0.1691 0.86135 0.0
C740 C 0.22413 0.20555 0.86994 0.0
H741 H 0.13959 0.11007 0.86436 0.0
H742 H 0.19487 0.16462 0.84651 0.0
S743 S 0.22811 0.23332 0.92015 0.0
N744 N 0.18738 0.18663 0.91829 0.0
N745 N 0.24765 0.2451 0.89898 0.0
C746 C 0.22108 0.21027 0.88928 0.0
C747 C 0.1881 0.17873 0.89978 0.0
C748 C 0.8353 0.15304 0.89436 0.0
C749 C 0.87187 0.12898 0.88347 0.0
C750 C 0.80137 0.18705 0.8865 0.0
C751 C 0.80289 0.19771 0.86754 0.0
H752 H 0.83628 0.14979 0.90924 0.0
H753 H 0.77692 0.20847 0.89551 0.0
S754 S 0.88487 0.13663 0.83274 0.0
N755 N 0.90206 0.11136 0.85257 0.0
N756 N 0.83891 0.17613 0.83772 0.0
C757 C 0.83518 0.16931 0.85625 0.0
C758 C 0.86959 0.13463 0.86426 0.0
C759 C 0.70085 0.15651 0.61311 0.0
C760 C 0.6667 0.12741 0.6234 0.0
C761 C 0.73361 0.19006 0.62189 0.0
C762 C 0.7333 0.19519 0.64117 0.0
H763 H 0.69842 0.15765 0.59821 0.0
H764 H 0.75559 0.21569 0.6135 0.0
S765 S 0.65902 0.1192 0.67427 0.0
N766 N 0.64104 0.09891 0.65378 0.0
N767 N 0.70216 0.16267 0.67035 0.0
C768 C 0.70418 0.16154 0.65163 0.0
C769 C 0.67088 0.12738 0.64269 0.0
C770 C 0.71111 0.02286 0.36445 0.0
C771 C 0.74108 0.99008 0.37501 0.0
C772 C 0.67651 0.05494 0.37295 0.0
C773 C 0.67118 0.05534 0.39221 0.0
H774 H 0.7102 0.01972 0.34956 0.0
H775 H 0.65042 0.0758 0.36437 0.0
S776 S 0.74907 0.98513 0.42593 0.0
N777 N 0.77002 0.96673 0.40559 0.0
N778 N 0.70436 0.02669 0.42165 0.0
C779 C 0.70554 0.02778 0.40293 0.0
C780 C 0.74076 0.99512 0.39427 0.0
C781 C 0.80537 1.00151 0.12267 0.0
C782 C 0.80518 0.99662 0.14195 0.0
C783 C 0.83739 0.03594 0.11402 0.0
C784 C 0.87031 0.06611 0.12444 0.0
H785 H 0.78439 0.9752 0.11421 0.0
H786 H 0.84039 0.03469 0.09913 0.0
S787 S 0.87614 0.07509 0.17531 0.0
N788 N 0.83435 0.03038 0.17125 0.0
N789 N 0.89427 0.0956 0.15488 0.0
C790 C 0.86556 0.0662 0.1437 0.0
C791 C 0.83296 0.03121 0.15252 0.0
C792 C 0.69721 0.52239 0.64852 0.0
C793 C 0.72223 0.48186 0.6401 0.0
C794 C 0.66726 0.55567 0.63817 0.0
C795 C 0.66026 0.5492 0.61902 0.0
H796 H 0.70124 0.52879 0.6632 0.0
H797 H 0.64888 0.58631 0.64534 0.0
S798 S 0.71557 0.44726 0.59051 0.0
N799 N 0.73693 0.43628 0.6115 0.0
N800 N 0.68032 0.49819 0.59219 0.0
C801 C 0.68459 0.50837 0.61049 0.0
C802 C 0.71563 0.47493 0.62098 0.0
C803 C 0.83892 0.5248 0.89964 0.0
C804 C 0.87817 0.55213 0.89137 0.0
C805 C 0.80596 0.49511 0.88902 0.0
C806 C 0.81159 0.49062 0.86974 0.0
H807 H 0.83322 0.52684 0.9144 0.0
H808 H 0.77626 0.47491 0.89608 0.0
S809 S 0.9103 0.55251 0.84152 0.0
N810 N 0.92172 0.57175 0.86276 0.0
N811 N 0.8606 0.51541 0.84295 0.0
C812 C 0.85125 0.51721 0.86136 0.0
C813 C 0.88426 0.54807 0.87212 0.0
C814 C 0.84895 0.6746 0.11232 0.0
C815 C 0.87993 0.63903 0.12112 0.0
C816 C 0.81835 0.70749 0.12251 0.0
C817 C 0.8181 0.70696 0.14196 0.0
H818 H 0.84808 0.67691 0.09741 0.0
H819 H 0.79524 0.7341 0.11501 0.0
S820 S 0.89389 0.62242 0.17176 0.0
N821 N 0.90912 0.60587 0.15054 0.0
N822 N 0.85236 0.66824 0.1696 0.0
C823 C 0.84933 0.67197 0.15095 0.0
C824 C 0.87995 0.63789 0.14057 0.0
C825 C 0.72737 0.69755 0.3888 0.0
C826 C 0.72409 0.70117 0.36944 0.0
C827 C 0.69322 0.66822 0.399 0.0
C828 C 0.655 0.64054 0.39021 0.0
H829 H 0.75602 0.71827 0.39625 0.0
H830 H 0.6971 0.6669 0.41386 0.0
S831 S 0.63016 0.63695 0.33977 0.0
N832 N 0.67924 0.67459 0.34191 0.0
N833 N 0.61568 0.61903 0.3609 0.0
C834 C 0.65151 0.64356 0.37083 0.0
C835 C 0.68582 0.67397 0.3605 0.0
C836 C 0.36597 0.62815 0.37023 0.0
C837 C 0.36964 0.62614 0.38954 0.0
C838 C 0.33222 0.66107 0.36167 0.0
C839 C 0.30152 0.69314 0.37221 0.0
H840 H 0.3928 0.60798 0.36176 0.0
H841 H 0.33435 0.66539 0.34683 0.0
S842 S 0.28949 0.69425 0.42305 0.0
N843 N 0.33424 0.65268 0.41886 0.0
N844 N 0.27033 0.71438 0.40268 0.0
C845 C 0.30029 0.68665 0.39141 0.0
C846 C 0.33455 0.65306 0.40013 0.0
C847 C 0.21372 0.66248 0.14602 0.0
C848 C 0.23746 0.70014 0.13555 0.0
C849 C 0.18056 0.62842 0.13769 0.0
C850 C 0.17059 0.63097 0.11868 0.0
H851 H 0.21631 0.66285 0.16093 0.0
H852 H 0.15897 0.60326 0.14639 0.0
S853 S 0.23164 0.71621 0.08492 0.0
N854 N 0.25569 0.7327 0.10503 0.0
N855 N 0.19297 0.66901 0.08928 0.0
C856 C 0.19911 0.66423 0.1078 0.0
C857 C 0.23276 0.69885 0.1163 0.0
C858 C 0.17292 0.55893 0.87288 0.0
C859 C 0.16701 0.55779 0.89213 0.0
C860 C 0.20638 0.52619 0.86412 0.0
C861 C 0.23469 0.49133 0.87438 0.0
H862 H 0.14802 0.58166 0.86447 0.0
H863 H 0.20577 0.52439 0.8492 0.0
S864 S 0.24127 0.48157 0.92523 0.0
N865 N 0.19828 0.52516 0.92132 0.0
N866 N 0.26202 0.46425 0.90475 0.0
C867 C 0.23414 0.49474 0.89369 0.0
C868 C 0.19999 0.52793 0.90262 0.0
C869 C 0.32387 0.52678 0.64604 0.0
C870 C 0.30001 0.48957 0.63536 0.0
C871 C 0.35733 0.56093 0.63793 0.0
C872 C 0.36748 0.55902 0.61893 0.0
H873 H 0.321 0.52607 0.66093 0.0
H874 H 0.37875 0.58588 0.64678 0.0
S875 S 0.30698 0.47469 0.58469 0.0
N876 N 0.28238 0.45784 0.60465 0.0
N877 N 0.34573 0.52161 0.58935 0.0
C878 C 0.3392 0.52598 0.60787 0.0
C879 C 0.30522 0.49129 0.61613 0.0
C880 C 0.05954 0.87177 0.06841 0.0
C881 C 0.01457 0.89873 0.07065 0.0
C882 C 0.05938 0.81895 0.0679 0.0
C883 C 0.01439 0.79142 0.06995 0.0
H884 H 0.09451 0.89174 0.0661 0.0
H885 H 0.09449 0.79941 0.06546 0.0
S886 S 0.88752 0.84486 0.07799 0.0
N887 N 0.92464 0.89455 0.07622 0.0
N888 N 0.92433 0.79523 0.07546 0.0
C889 C 0.96966 0.81805 0.07322 0.0
C890 C 0.96976 0.87176 0.07348 0.0
C891 C 0.4937 0.8876 0.3204 0.0
C892 C 0.4668 0.84211 0.32004 0.0
C893 C 0.54651 0.88777 0.32039 0.0
C894 C 0.57408 0.84248 0.32039 0.0
H895 H 0.47377 0.92311 0.31975 0.0
H896 H 0.56605 0.92354 0.31995 0.0
S897 S 0.52084 0.71355 0.32118 0.0
N898 N 0.47112 0.75084 0.32093 0.0
N899 N 0.57039 0.75115 0.32109 0.0
C900 C 0.54749 0.79684 0.32103 0.0
C901 C 0.4938 0.79668 0.32078 0.0
C902 C 0.56136 0.32072 0.56757 0.0
C903 C 0.51602 0.29337 0.56873 0.0
C904 C 0.56167 0.37354 0.56807 0.0
C905 C 0.51656 0.40071 0.56938 0.0
H906 H 0.5967 0.30102 0.56586 0.0
H907 H 0.59705 0.39335 0.5665 0.0
S908 S 0.38836 0.3474 0.5741 0.0
N909 N 0.42528 0.29758 0.57238 0.0
N910 N 0.42589 0.39694 0.57306 0.0
C911 C 0.47125 0.37394 0.57127 0.0
C912 C 0.47097 0.3202 0.57105 0.0
C913 C 0.0427 0.3907 0.81828 0.0
C914 C 0.06883 0.34476 0.82001 0.0
C915 C 0.98991 0.39242 0.81867 0.0
C916 C 0.96154 0.34813 0.82045 0.0
H917 H 0.06331 0.42537 0.8161 0.0
H918 H 0.97109 0.42812 0.81655 0.0
S919 S 0.01126 0.21907 0.82702 0.0
N920 N 0.06207 0.25452 0.82494 0.0
N921 N 0.96281 0.25776 0.82534 0.0
C922 C 0.98705 0.30236 0.82304 0.0
C923 C 0.04076 0.30066 0.82295 0.0
C924 C 0.0173 0.31969 0.931 0.0
C925 C 0.01471 0.29058 0.9472 0.0
C926 C 0.01475 0.37272 0.93172 0.0
C927 C 0.01027 0.39818 0.94868 0.0
H928 H 0.0202 0.30128 0.91773 0.0
H929 H 0.01703 0.39398 0.91901 0.0
S930 S 0.00281 0.33906 0.99495 0.0
N931 N 0.00859 0.29122 0.9806 0.0
N932 N 0.00273 0.39001 0.98192 0.0
C933 C 0.00792 0.36929 0.9649 0.0
C934 C 0.01045 0.31575 0.96417 0.0
C935 C 0.04698 0.84226 0.21459 0.0
C936 C 0.07332 0.8467 0.19786 0.0
C937 C 0.99447 0.83942 0.21503 0.0
C938 C 0.96571 0.84066 0.19875 0.0
H939 H 0.06723 0.84119 0.22754 0.0
H940 H 0.97615 0.83579 0.22829 0.0
S941 S 0.01604 0.85224 0.15124 0.0
N942 N 0.06668 0.85206 0.16449 0.0
N943 N 0.96743 0.84746 0.16533 0.0
C944 C 0.99135 0.84518 0.18185 0.0
C945 C 0.04522 0.84829 0.18141 0.0
C946 C 0.51603 0.81543 0.46505 0.0
C947 C 0.5199 0.78847 0.44842 0.0
C948 C 0.51279 0.86797 0.46525 0.0
C949 C 0.51314 0.89616 0.44884 0.0
H950 H 0.5158 0.79568 0.4781 0.0
H951 H 0.50964 0.88673 0.47845 0.0
S952 S 0.52259 0.84407 0.4015 0.0
N953 N 0.5234 0.79391 0.41499 0.0
N954 N 0.51826 0.89321 0.41539 0.0
C955 C 0.51696 0.86989 0.43204 0.0
C956 C 0.52039 0.81599 0.43183 0.0
C957 C 0.54447 0.39083 0.69182 0.0
C958 C 0.5727 0.34641 0.69343 0.0
C959 C 0.49169 0.38932 0.69158 0.0
C960 C 0.46546 0.34329 0.69256 0.0
H961 H 0.56329 0.427 0.69163 0.0
H962 H 0.47111 0.42446 0.691 0.0
S963 S 0.52242 0.21622 0.69505 0.0
N964 N 0.57104 0.25501 0.69469 0.0
N965 N 0.4718 0.2522 0.69404 0.0
C966 C 0.49338 0.29851 0.69317 0.0
C967 C 0.54705 0.30008 0.69369 0.0
loop_
_geom_bond_atom_site_label_1
_geom_bond_atom_site_label_2
_geom_bond_distance
_geom_bond_site_symmetry_2
_ccdc_geom_bond_type
C0 C1 1.351 . S
C0 N3 1.368 1_565 S
C0 H5 0.931 1_465 S
C1 C0 1.351 . S
C1 N2 1.373 . S
C1 H29 0.930 1_455 S
N2 C1 1.373 . S
N2 C4 1.340 . S
N3 C0 1.368 1_545 S
N3 C4 1.321 1_545 S
N3 Co6 2.135 . S
C4 N2 1.340 . S
C4 N3 1.321 1_565 S
C4 H28 0.930 . S
H5 C0 0.931 1_645 S
Co6 N3 2.135 . S
Co6 N9 2.121 . S
Co6 O14 2.055 . S
Co6 O17 2.039 . S
Co6 N20 2.140 1_455 S
C7 O8 1.227 . S
C7 O17 1.265 . S
O8 C7 1.227 . S
N9 Co6 2.121 . S
N9 C11 1.375 . S
N9 C12 1.313 . S
C10 C11 1.338 . S
C10 N13 1.377 . S
C10 H30 0.930 . S
C11 N9 1.375 . S
C11 C10 1.338 . S
C11 H15 0.931 . S
C12 N9 1.313 . S
C12 N13 1.344 . S
C12 H16 0.930 . S
N13 C10 1.377 . S
N13 C12 1.344 . S
O14 Co6 2.055 . S
O14 C18 1.253 . S
H15 C11 0.931 . S
H16 C12 0.930 . S
O17 Co6 2.039 . S
O17 C7 1.265 . S
C18 O14 1.253 . S
C18 O19 1.227 1_455 S
O19 C18 1.227 1_655 S
N20 Co6 2.140 1_655 S
N20 C23 1.346 . S
N20 C24 1.345 . S
C21 C22 1.387 . S
C21 C25 1.391 . S
C22 C21 1.387 . S
C22 C23 1.369 . S
C22 H31 0.929 1_545 S
C23 N20 1.346 . S
C23 C22 1.369 . S
C23 H26 0.928 . S
C24 N20 1.345 . S
C24 C25 1.371 . S
C24 H27 0.931 . S
C25 C21 1.391 . S
C25 C24 1.371 . S
C25 H32 0.930 . S
H26 C23 0.928 . S
H27 C24 0.931 . S
H28 C4 0.930 . S
H29 C1 0.930 1_655 S
H30 C10 0.930 . S
H31 C22 0.929 1_565 S
H32 C25 0.930 . S
C33 C34 1.351 . S
C33 N36 1.368 . S
C33 H38 0.931 . S
C34 C33 1.351 . S
C34 N35 1.373 . S
C34 H62 0.930 . S
N35 C34 1.373 . S
N35 C37 1.340 . S
N36 C33 1.368 . S
N36 C37 1.321 . S
N36 Co39 2.135 . S
C37 N35 1.340 . S
C37 N36 1.321 . S
C37 H61 0.930 . S
H38 C33 0.931 . S
Co39 N36 2.135 . S
Co39 N42 2.121 . S
Co39 O47 2.055 . S
Co39 O50 2.039 . S
Co39 N53 2.140 . S
C40 O41 1.227 . S
C40 O50 1.265 . S
O41 C40 1.227 . S
N42 Co39 2.121 . S
N42 C44 1.375 . S
N42 C45 1.313 . S
C43 C44 1.338 . S
C43 N46 1.377 . S
C43 H63 0.930 . S
C44 N42 1.375 . S
C44 C43 1.338 . S
C44 H48 0.931 . S
C45 N42 1.313 . S
C45 N46 1.344 . S
C45 H49 0.930 . S
N46 C43 1.377 . S
N46 C45 1.344 . S
O47 Co39 2.055 . S
O47 C51 1.253 . S
H48 C44 0.931 . S
H49 C45 0.930 . S
O50 Co39 2.039 . S
O50 C40 1.265 . S
C51 O47 1.253 . S
C51 O52 1.227 . S
O52 C51 1.227 . S
N53 Co39 2.140 . S
N53 C56 1.346 . S
N53 C57 1.345 . S
C54 C55 1.387 . S
C54 C58 1.391 . S
C55 C54 1.387 . S
C55 C56 1.369 . S
C55 H64 0.929 . S
C56 N53 1.346 . S
C56 C55 1.369 . S
C56 H59 0.928 . S
C57 N53 1.345 . S
C57 C58 1.371 . S
C57 H60 0.931 . S
C58 C54 1.391 . S
C58 C57 1.371 . S
C58 H65 0.930 . S
H59 C56 0.928 . S
H60 C57 0.931 . S
H61 C37 0.930 . S
H62 C34 0.930 . S
H63 C43 0.930 . S
H64 C55 0.929 . S
H65 C58 0.930 . S
C66 C67 1.351 . S
C66 N69 1.368 . S
C66 H71 0.931 . S
C67 C66 1.351 . S
C67 N68 1.373 . S
C67 H95 0.930 . S
N68 C67 1.373 . S
N68 C70 1.340 . S
N69 C66 1.368 . S
N69 C70 1.321 . S
N69 Co72 2.135 . S
C70 N68 1.340 . S
C70 N69 1.321 . S
C70 H94 0.930 . S
H71 C66 0.931 . S
Co72 N69 2.135 . S
Co72 N75 2.121 . S
Co72 O80 2.055 . S
Co72 O83 2.039 . S
Co72 N86 2.140 . S
C73 O74 1.227 . S
C73 O83 1.265 . S
O74 C73 1.227 . S
N75 Co72 2.121 . S
N75 C77 1.375 . S
N75 C78 1.313 1_545 S
C76 C77 1.338 1_565 S
C76 N79 1.377 . S
C76 H96 0.930 . S
C77 N75 1.375 . S
C77 C76 1.338 1_545 S
C77 H81 0.931 . S
C78 N75 1.313 1_565 S
C78 N79 1.344 . S
C78 H82 0.930 . S
N79 C76 1.377 . S
N79 C78 1.344 . S
O80 Co72 2.055 . S
O80 C84 1.253 . S
H81 C77 0.931 . S
H82 C78 0.930 . S
O83 Co72 2.039 . S
O83 C73 1.265 . S
C84 O80 1.253 . S
C84 O85 1.227 . S
O85 C84 1.227 . S
N86 Co72 2.140 . S
N86 C89 1.346 . S
N86 C90 1.345 . S
C87 C88 1.387 . S
C87 C91 1.391 . S
C88 C87 1.387 . S
C88 C89 1.369 . S
C88 H97 0.929 . S
C89 N86 1.346 . S
C89 C88 1.369 . S
C89 H92 0.928 . S
C90 N86 1.345 . S
C90 C91 1.371 . S
C90 H93 0.931 . S
C91 C87 1.391 . S
C91 C90 1.371 . S
C91 H98 0.930 . S
H92 C89 0.928 . S
H93 C90 0.931 . S
H94 C70 0.930 . S
H95 C67 0.930 . S
H96 C76 0.930 . S
H97 C88 0.929 . S
H98 C91 0.930 . S
C99 C100 1.351 . S
C99 N102 1.368 . S
C99 H104 0.931 . S
C100 C99 1.351 . S
C100 N101 1.373 . S
C100 H128 0.930 . S
N101 C100 1.373 . S
N101 C103 1.340 . S
N102 C99 1.368 . S
N102 C103 1.321 . S
N102 Co105 2.135 . S
C103 N101 1.340 . S
C103 N102 1.321 . S
C103 H127 0.930 . S
H104 C99 0.931 . S
Co105 N102 2.135 . S
Co105 N108 2.121 . S
Co105 O113 2.055 . S
Co105 O116 2.039 . S
Co105 N119 2.140 . S
C106 O107 1.227 . S
C106 O116 1.265 . S
O107 C106 1.227 . S
N108 Co105 2.121 . S
N108 C110 1.375 . S
N108 C111 1.313 . S
C109 C110 1.338 . S
C109 N112 1.377 . S
C109 H129 0.930 . S
C110 N108 1.375 . S
C110 C109 1.338 . S
C110 H114 0.931 . S
C111 N108 1.313 . S
C111 N112 1.344 . S
C111 H115 0.930 . S
N112 C109 1.377 . S
N112 C111 1.344 . S
O113 Co105 2.055 . S
O113 C117 1.253 . S
H114 C110 0.931 . S
H115 C111 0.930 . S
O116 Co105 2.039 . S
O116 C106 1.265 . S
C117 O113 1.253 . S
C117 O118 1.227 . S
O118 C117 1.227 . S
N119 Co105 2.140 . S
N119 C122 1.346 . S
N119 C123 1.345 . S
C120 C121 1.387 . S
C120 C124 1.391 . S
C121 C120 1.387 . S
C121 C122 1.369 . S
C121 H130 0.929 . S
C122 N119 1.346 . S
C122 C121 1.369 . S
C122 H125 0.928 . S
C123 N119 1.345 . S
C123 C124 1.371 . S
C123 H126 0.931 . S
C124 C120 1.391 . S
C124 C123 1.371 . S
C124 H131 0.930 . S
H125 C122 0.928 . S
H126 C123 0.931 . S
H127 C103 0.930 . S
H128 C100 0.930 . S
H129 C109 0.930 . S
H130 C121 0.929 . S
H131 C124 0.930 . S
C132 C133 1.351 . S
C132 N135 1.368 . S
C132 H137 0.931 1_455 S
C133 C132 1.351 . S
C133 N134 1.373 . S
C133 H161 0.930 1_455 S
N134 C133 1.373 . S
N134 C136 1.340 . S
N135 C132 1.368 . S
N135 C136 1.321 . S
N135 Co138 2.135 . S
C136 N134 1.340 . S
C136 N135 1.321 . S
C136 H160 0.930 . S
H137 C132 0.931 1_655 S
Co138 N135 2.135 . S
Co138 N141 2.121 . S
Co138 O146 2.055 . S
Co138 O149 2.039 . S
Co138 N152 2.140 1_455 S
C139 O140 1.227 . S
C139 O149 1.265 . S
O140 C139 1.227 . S
N141 Co138 2.121 . S
N141 C143 1.375 . S
N141 C144 1.313 1_545 S
C142 C143 1.338 1_565 S
C142 N145 1.377 . S
C142 H162 0.930 . S
C143 N141 1.375 . S
C143 C142 1.338 1_545 S
C143 H147 0.931 . S
C144 N141 1.313 1_565 S
C144 N145 1.344 . S
C144 H148 0.930 . S
N145 C142 1.377 . S
N145 C144 1.344 . S
O146 Co138 2.055 . S
O146 C150 1.253 . S
H147 C143 0.931 . S
H148 C144 0.930 . S
O149 Co138 2.039 . S
O149 C139 1.265 . S
C150 O146 1.253 . S
C150 O151 1.227 1_455 S
O151 C150 1.227 1_655 S
N152 Co138 2.140 1_655 S
N152 C155 1.346 . S
N152 C156 1.345 . S
C153 C154 1.387 . S
C153 C157 1.391 . S
C154 C153 1.387 . S
C154 C155 1.369 . S
C154 H163 0.929 . S
C155 N152 1.346 . S
C155 C154 1.369 . S
C155 H158 0.928 . S
C156 N152 1.345 . S
C156 C157 1.371 . S
C156 H159 0.931 . S
C157 C153 1.391 . S
C157 C156 1.371 . S
C157 H164 0.930 . S
H158 C155 0.928 . S
H159 C156 0.931 . S
H160 C136 0.930 . S
H161 C133 0.930 1_655 S
H162 C142 0.930 . S
H163 C154 0.929 . S
H164 C157 0.930 . S
C165 C166 1.351 . S
C165 N168 1.368 . S
C165 H170 0.931 . S
C166 C165 1.351 . S
C166 N167 1.373 . S
C166 H194 0.930 . S
N167 C166 1.373 . S
N167 C169 1.340 . S
N168 C165 1.368 . S
N168 C169 1.321 . S
N168 Co171 2.135 . S
C169 N167 1.340 . S
C169 N168 1.321 . S
C169 H193 0.930 . S
H170 C165 0.931 . S
Co171 N168 2.135 . S
Co171 N174 2.121 . S
Co171 O179 2.055 . S
Co171 O182 2.039 . S
Co171 N185 2.140 . S
C172 O173 1.227 . S
C172 O182 1.265 . S
O173 C172 1.227 . S
N174 Co171 2.121 . S
N174 C176 1.375 . S
N174 C177 1.313 . S
C175 C176 1.338 . S
C175 N178 1.377 . S
C175 H195 0.930 . S
C176 N174 1.375 . S
C176 C175 1.338 . S
C176 H180 0.931 . S
C177 N174 1.313 . S
C177 N178 1.344 . S
C177 H181 0.930 . S
N178 C175 1.377 . S
N178 C177 1.344 . S
O179 Co171 2.055 . S
O179 C183 1.253 . S
H180 C176 0.931 . S
H181 C177 0.930 . S
O182 Co171 2.039 . S
O182 C172 1.265 . S
C183 O179 1.253 . S
C183 O184 1.227 . S
O184 C183 1.227 . S
N185 Co171 2.140 . S
N185 C188 1.346 . S
N185 C189 1.345 . S
C186 C187 1.387 . S
C186 C190 1.391 . S
C187 C186 1.387 . S
C187 C188 1.369 . S
C187 H196 0.929 . S
C188 N185 1.346 . S
C188 C187 1.369 . S
C188 H191 0.928 . S
C189 N185 1.345 . S
C189 C190 1.371 . S
C189 H192 0.931 . S
C190 C186 1.391 . S
C190 C189 1.371 . S
C190 H197 0.930 . S
H191 C188 0.928 . S
H192 C189 0.931 . S
H193 C169 0.930 . S
H194 C166 0.930 . S
H195 C175 0.930 . S
H196 C187 0.929 . S
H197 C190 0.930 . S
C198 C199 1.351 . S
C198 N201 1.368 1_565 S
C198 H203 0.931 1_565 S
C199 C198 1.351 . S
C199 N200 1.373 . S
C199 H227 0.930 . S
N200 C199 1.373 . S
N200 C202 1.340 . S
N201 C198 1.368 1_545 S
N201 C202 1.321 1_545 S
N201 Co204 2.135 . S
C202 N200 1.340 . S
C202 N201 1.321 1_565 S
C202 H226 0.930 . S
H203 C198 0.931 1_545 S
Co204 N201 2.135 . S
Co204 N207 2.121 . S
Co204 O212 2.055 . S
Co204 O215 2.039 . S
Co204 N218 2.140 . S
C205 O206 1.227 . S
C205 O215 1.265 . S
O206 C205 1.227 . S
N207 Co204 2.121 . S
N207 C209 1.375 . S
N207 C210 1.313 . S
C208 C209 1.338 . S
C208 N211 1.377 . S
C208 H228 0.930 . S
C209 N207 1.375 . S
C209 C208 1.338 . S
C209 H213 0.931 . S
C210 N207 1.313 . S
C210 N211 1.344 . S
C210 H214 0.930 . S
N211 C208 1.377 . S
N211 C210 1.344 . S
O212 Co204 2.055 . S
O212 C216 1.253 . S
H213 C209 0.931 . S
H214 C210 0.930 . S
O215 Co204 2.039 . S
O215 C205 1.265 . S
C216 O212 1.253 . S
C216 O217 1.227 . S
O217 C216 1.227 . S
N218 Co204 2.140 . S
N218 C221 1.346 . S
N218 C222 1.345 . S
C219 C220 1.387 . S
C219 C223 1.391 . S
C220 C219 1.387 . S
C220 C221 1.369 . S
C220 H229 0.929 1_545 S
C221 N218 1.346 . S
C221 C220 1.369 . S
C221 H224 0.928 . S
C222 N218 1.345 . S
C222 C223 1.371 . S
C222 H225 0.931 . S
C223 C219 1.391 . S
C223 C222 1.371 . S
C223 H230 0.930 . S
H224 C221 0.928 . S
H225 C222 0.931 . S
H226 C202 0.930 . S
H227 C199 0.930 . S
H228 C208 0.930 . S
H229 C220 0.929 1_565 S
H230 C223 0.930 . S
C231 C232 1.351 . S
C231 N234 1.368 . S
C231 H236 0.931 . S
C232 C231 1.351 . S
C232 N233 1.373 . S
C232 H260 0.930 . S
N233 C232 1.373 . S
N233 C235 1.340 . S
N234 C231 1.368 . S
N234 C235 1.321 . S
N234 Co237 2.135 . S
C235 N233 1.340 . S
C235 N234 1.321 . S
C235 H259 0.930 . S
H236 C231 0.931 . S
Co237 N234 2.135 . S
Co237 N240 2.121 . S
Co237 O245 2.055 . S
Co237 O248 2.039 . S
Co237 N251 2.140 . S
C238 O239 1.227 . S
C238 O248 1.265 . S
O239 C238 1.227 . S
N240 Co237 2.121 . S
N240 C242 1.375 . S
N240 C243 1.313 . S
C241 C242 1.338 . S
C241 N244 1.377 . S
C241 H261 0.930 . S
C242 N240 1.375 . S
C242 C241 1.338 . S
C242 H246 0.931 . S
C243 N240 1.313 . S
C243 N244 1.344 . S
C243 H247 0.930 . S
N244 C241 1.377 . S
N244 C243 1.344 . S
O245 Co237 2.055 . S
O245 C249 1.253 . S
H246 C242 0.931 . S
H247 C243 0.930 . S
O248 Co237 2.039 . S
O248 C238 1.265 . S
C249 O245 1.253 . S
C249 O250 1.227 . S
O250 C249 1.227 . S
N251 Co237 2.140 . S
N251 C254 1.346 . S
N251 C255 1.345 . S
C252 C253 1.387 . S
C252 C256 1.391 . S
C253 C252 1.387 . S
C253 C254 1.369 . S
C253 H262 0.929 . S
C254 N251 1.346 . S
C254 C253 1.369 . S
C254 H257 0.928 . S
C255 N251 1.345 . S
C255 C256 1.371 . S
C255 H258 0.931 . S
C256 C252 1.391 . S
C256 C255 1.371 . S
C256 H263 0.930 . S
H257 C254 0.928 . S
H258 C255 0.931 . S
H259 C235 0.930 . S
H260 C232 0.930 . S
H261 C241 0.930 . S
H262 C253 0.929 . S
H263 C256 0.930 . S
C264 C265 1.351 . S
C264 N267 1.368 . S
C264 H269 0.931 . S
C265 C264 1.351 . S
C265 N266 1.373 . S
C265 H293 0.930 . S
N266 C265 1.373 . S
N266 C268 1.340 . S
N267 C264 1.368 . S
N267 C268 1.321 . S
N267 Co270 2.135 . S
C268 N266 1.340 . S
C268 N267 1.321 . S
C268 H292 0.930 . S
H269 C264 0.931 . S
Co270 N267 2.135 . S
Co270 N273 2.121 . S
Co270 O278 2.055 . S
Co270 O281 2.039 . S
Co270 N284 2.140 . S
C271 O272 1.227 . S
C271 O281 1.265 . S
O272 C271 1.227 . S
N273 Co270 2.121 . S
N273 C275 1.375 . S
N273 C276 1.313 . S
C274 C275 1.338 . S
C274 N277 1.377 . S
C274 H294 0.930 . S
C275 N273 1.375 . S
C275 C274 1.338 . S
C275 H279 0.931 . S
C276 N273 1.313 . S
C276 N277 1.344 . S
C276 H280 0.930 . S
N277 C274 1.377 . S
N277 C276 1.344 . S
O278 Co270 2.055 . S
O278 C282 1.253 . S
H279 C275 0.931 . S
H280 C276 0.930 . S
O281 Co270 2.039 . S
O281 C271 1.265 . S
C282 O278 1.253 . S
C282 O283 1.227 . S
O283 C282 1.227 . S
N284 Co270 2.140 . S
N284 C287 1.346 . S
N284 C288 1.345 . S
C285 C286 1.387 . S
C285 C289 1.391 . S
C286 C285 1.387 . S
C286 C287 1.369 . S
C286 H295 0.929 . S
C287 N284 1.346 . S
C287 C286 1.369 . S
C287 H290 0.928 . S
C288 N284 1.345 . S
C288 C289 1.371 . S
C288 H291 0.931 . S
C289 C285 1.391 . S
C289 C288 1.371 . S
C289 H296 0.930 . S
H290 C287 0.928 . S
H291 C288 0.931 . S
H292 C268 0.930 . S
H293 C265 0.930 . S
H294 C274 0.930 . S
H295 C286 0.929 . S
H296 C289 0.930 . S
C297 C298 1.351 . S
C297 N300 1.368 . S
C297 H302 0.931 . S
C298 C297 1.351 . S
C298 N299 1.373 . S
C298 H326 0.930 . S
N299 C298 1.373 . S
N299 C301 1.340 . S
N300 C297 1.368 . S
N300 C301 1.321 . S
N300 Co303 2.135 . S
C301 N299 1.340 . S
C301 N300 1.321 . S
C301 H325 0.930 . S
H302 C297 0.931 . S
Co303 N300 2.135 . S
Co303 N306 2.121 . S
Co303 O311 2.055 . S
Co303 O314 2.039 . S
Co303 N317 2.140 . S
C304 O305 1.227 . S
C304 O314 1.265 . S
O305 C304 1.227 . S
N306 Co303 2.121 . S
N306 C308 1.375 . S
N306 C309 1.313 . S
C307 C308 1.338 . S
C307 N310 1.377 . S
C307 H327 0.930 . S
C308 N306 1.375 . S
C308 C307 1.338 . S
C308 H312 0.931 . S
C309 N306 1.313 . S
C309 N310 1.344 . S
C309 H313 0.930 . S
N310 C307 1.377 . S
N310 C309 1.344 . S
O311 Co303 2.055 . S
O311 C315 1.253 . S
H312 C308 0.931 . S
H313 C309 0.930 . S
O314 Co303 2.039 . S
O314 C304 1.265 . S
C315 O311 1.253 . S
C315 O316 1.227 . S
O316 C315 1.227 . S
N317 Co303 2.140 . S
N317 C320 1.346 . S
N317 C321 1.345 . S
C318 C319 1.387 . S
C318 C322 1.391 . S
C319 C318 1.387 . S
C319 C320 1.369 . S
C319 H328 0.929 . S
C320 N317 1.346 . S
C320 C319 1.369 . S
C320 H323 0.928 . S
C321 N317 1.345 . S
C321 C322 1.371 . S
C321 H324 0.931 . S
C322 C318 1.391 . S
C322 C321 1.371 . S
C322 H329 0.930 . S
H323 C320 0.928 . S
H324 C321 0.931 . S
H325 C301 0.930 . S
H326 C298 0.930 . S
H327 C307 0.930 . S
H328 C319 0.929 . S
H329 C322 0.930 . S
C330 C331 1.351 . S
C330 N333 1.368 . S
C330 H335 0.931 . S
C331 C330 1.351 . S
C331 N332 1.373 . S
C331 H359 0.930 . S
N332 C331 1.373 . S
N332 C334 1.340 . S
N333 C330 1.368 . S
N333 C334 1.321 . S
N333 Co336 2.135 . S
C334 N332 1.340 . S
C334 N333 1.321 . S
C334 H358 0.930 . S
H335 C330 0.931 . S
Co336 N333 2.135 . S
Co336 N339 2.121 . S
Co336 O344 2.055 . S
Co336 O347 2.039 . S
Co336 N350 2.140 . S
C337 O338 1.227 . S
C337 O347 1.265 . S
O338 C337 1.227 . S
N339 Co336 2.121 . S
N339 C341 1.375 . S
N339 C342 1.313 . S
C340 C341 1.338 . S
C340 N343 1.377 . S
C340 H360 0.930 . S
C341 N339 1.375 . S
C341 C340 1.338 . S
C341 H345 0.931 . S
C342 N339 1.313 . S
C342 N343 1.344 . S
C342 H346 0.930 . S
N343 C340 1.377 . S
N343 C342 1.344 . S
O344 Co336 2.055 . S
O344 C348 1.253 . S
H345 C341 0.931 . S
H346 C342 0.930 . S
O347 Co336 2.039 . S
O347 C337 1.265 . S
C348 O344 1.253 . S
C348 O349 1.227 . S
O349 C348 1.227 . S
N350 Co336 2.140 . S
N350 C353 1.346 . S
N350 C354 1.345 . S
C351 C352 1.387 . S
C351 C355 1.391 . S
C352 C351 1.387 . S
C352 C353 1.369 . S
C352 H361 0.929 . S
C353 N350 1.346 . S
C353 C352 1.369 . S
C353 H356 0.928 . S
C354 N350 1.345 . S
C354 C355 1.371 . S
C354 H357 0.931 . S
C355 C351 1.391 . S
C355 C354 1.371 . S
C355 H362 0.930 . S
H356 C353 0.928 . S
H357 C354 0.931 . S
H358 C334 0.930 . S
H359 C331 0.930 . S
H360 C340 0.930 . S
H361 C352 0.929 . S
H362 C355 0.930 . S
C363 C364 1.351 . S
C363 N366 1.368 . S
C363 H368 0.931 . S
C364 C363 1.351 . S
C364 N365 1.373 . S
C364 H392 0.930 . S
N365 C364 1.373 . S
N365 C367 1.340 . S
N366 C363 1.368 . S
N366 C367 1.321 . S
N366 Co369 2.135 . S
C367 N365 1.340 . S
C367 N366 1.321 . S
C367 H391 0.930 . S
H368 C363 0.931 . S
Co369 N366 2.135 . S
Co369 N372 2.121 . S
Co369 O377 2.055 . S
Co369 O380 2.039 . S
Co369 N383 2.140 . S
C370 O371 1.227 . S
C370 O380 1.265 . S
O371 C370 1.227 . S
N372 Co369 2.121 . S
N372 C374 1.375 . S
N372 C375 1.313 . S
C373 C374 1.338 . S
C373 N376 1.377 . S
C373 H393 0.930 . S
C374 N372 1.375 . S
C374 C373 1.338 . S
C374 H378 0.931 . S
C375 N372 1.313 . S
C375 N376 1.344 . S
C375 H379 0.930 . S
N376 C373 1.377 . S
N376 C375 1.344 . S
O377 Co369 2.055 . S
O377 C381 1.253 . S
H378 C374 0.931 . S
H379 C375 0.930 . S
O380 Co369 2.039 . S
O380 C370 1.265 . S
C381 O377 1.253 . S
C381 O382 1.227 . S
O382 C381 1.227 . S
N383 Co369 2.140 . S
N383 C386 1.346 . S
N383 C387 1.345 . S
C384 C385 1.387 . S
C384 C388 1.391 . S
C385 C384 1.387 . S
C385 C386 1.369 . S
C385 H394 0.929 . S
C386 N383 1.346 . S
C386 C385 1.369 . S
C386 H389 0.928 . S
C387 N383 1.345 . S
C387 C388 1.371 . S
C387 H390 0.931 . S
C388 C384 1.391 . S
C388 C387 1.371 . S
C388 H395 0.930 . S
H389 C386 0.928 . S
H390 C387 0.931 . S
H391 C367 0.930 . S
H392 C364 0.930 . S
H393 C373 0.930 . S
H394 C385 0.929 . S
H395 C388 0.930 . S
C396 C397 1.351 . S
C396 N399 1.368 . S
C396 H401 0.931 . S
C397 C396 1.351 . S
C397 N398 1.373 . S
C397 H425 0.930 . S
N398 C397 1.373 . S
N398 C400 1.340 . S
N399 C396 1.368 . S
N399 C400 1.321 . S
N399 Co402 2.135 . S
C400 N398 1.340 . S
C400 N399 1.321 . S
C400 H424 0.930 . S
H401 C396 0.931 . S
Co402 N399 2.135 . S
Co402 N405 2.121 . S
Co402 O410 2.055 . S
Co402 O413 2.039 . S
Co402 N416 2.140 . S
C403 O404 1.227 . S
C403 O413 1.265 . S
O404 C403 1.227 . S
N405 Co402 2.121 . S
N405 C407 1.375 . S
N405 C408 1.313 . S
C406 C407 1.338 . S
C406 N409 1.377 . S
C406 H426 0.930 . S
C407 N405 1.375 . S
C407 C406 1.338 . S
C407 H411 0.931 . S
C408 N405 1.313 . S
C408 N409 1.344 . S
C408 H412 0.930 . S
N409 C406 1.377 . S
N409 C408 1.344 . S
O410 Co402 2.055 . S
O410 C414 1.253 . S
H411 C407 0.931 . S
H412 C408 0.930 . S
O413 Co402 2.039 . S
O413 C403 1.265 . S
C414 O410 1.253 . S
C414 O415 1.227 . S
O415 C414 1.227 . S
N416 Co402 2.140 . S
N416 C419 1.346 . S
N416 C420 1.345 . S
C417 C418 1.387 . S
C417 C421 1.391 . S
C418 C417 1.387 . S
C418 C419 1.369 . S
C418 H427 0.929 . S
C419 N416 1.346 . S
C419 C418 1.369 . S
C419 H422 0.928 . S
C420 N416 1.345 . S
C420 C421 1.371 . S
C420 H423 0.931 . S
C421 C417 1.391 . S
C421 C420 1.371 . S
C421 H428 0.930 . S
H422 C419 0.928 . S
H423 C420 0.931 . S
H424 C400 0.930 . S
H425 C397 0.930 . S
H426 C406 0.930 . S
H427 C418 0.929 . S
H428 C421 0.930 . S
C429 C430 1.351 . S
C429 N432 1.368 1_455 S
C429 H434 0.931 . S
C430 C429 1.351 . S
C430 N431 1.373 1_455 S
C430 H458 0.930 . S
N431 C430 1.373 1_655 S
N431 C433 1.340 . S
N432 C429 1.368 1_655 S
N432 C433 1.321 . S
N432 Co435 2.135 . S
C433 N431 1.340 . S
C433 N432 1.321 . S
C433 H457 0.930 . S
H434 C429 0.931 . S
Co435 N432 2.135 . S
Co435 N438 2.121 . S
Co435 O443 2.055 . S
Co435 O446 2.039 . S
Co435 N449 2.140 1_655 S
C436 O437 1.227 . S
C436 O446 1.265 . S
O437 C436 1.227 . S
N438 Co435 2.121 . S
N438 C440 1.375 . S
N438 C441 1.313 . S
C439 C440 1.338 . S
C439 N442 1.377 . S
C439 H459 0.930 . S
C440 N438 1.375 . S
C440 C439 1.338 . S
C440 H444 0.931 . S
C441 N438 1.313 . S
C441 N442 1.344 . S
C441 H445 0.930 . S
N442 C439 1.377 . S
N442 C441 1.344 . S
O443 Co435 2.055 . S
O443 C447 1.253 1_655 S
H444 C440 0.931 . S
H445 C441 0.930 . S
O446 Co435 2.039 . S
O446 C436 1.265 . S
C447 O443 1.253 1_455 S
C447 O448 1.227 . S
O448 C447 1.227 . S
N449 Co435 2.140 1_455 S
N449 C452 1.346 . S
N449 C453 1.345 . S
C450 C451 1.387 . S
C450 C454 1.391 . S
C451 C450 1.387 . S
C451 C452 1.369 . S
C451 H460 0.929 . S
C452 N449 1.346 . S
C452 C451 1.369 . S
C452 H455 0.928 . S
C453 N449 1.345 . S
C453 C454 1.371 . S
C453 H456 0.931 . S
C454 C450 1.391 . S
C454 C453 1.371 . S
C454 H461 0.930 . S
H455 C452 0.928 . S
H456 C453 0.931 . S
H457 C433 0.930 . S
H458 C430 0.930 . S
H459 C439 0.930 . S
H460 C451 0.929 . S
H461 C454 0.930 . S
C462 C463 1.351 . S
C462 N465 1.368 . S
C462 H467 0.931 . S
C463 C462 1.351 . S
C463 N464 1.373 . S
C463 H491 0.930 . S
N464 C463 1.373 . S
N464 C466 1.340 . S
N465 C462 1.368 . S
N465 C466 1.321 . S
N465 Co468 2.135 . S
C466 N464 1.340 . S
C466 N465 1.321 . S
C466 H490 0.930 . S
H467 C462 0.931 . S
Co468 N465 2.135 . S
Co468 N471 2.121 . S
Co468 O476 2.055 . S
Co468 O479 2.039 . S
Co468 N482 2.140 . S
C469 O470 1.227 . S
C469 O479 1.265 . S
O470 C469 1.227 . S
N471 Co468 2.121 . S
N471 C473 1.375 . S
N471 C474 1.313 . S
C472 C473 1.338 . S
C472 N475 1.377 . S
C472 H492 0.930 . S
C473 N471 1.375 . S
C473 C472 1.338 . S
C473 H477 0.931 . S
C474 N471 1.313 . S
C474 N475 1.344 . S
C474 H478 0.930 . S
N475 C472 1.377 . S
N475 C474 1.344 . S
O476 Co468 2.055 . S
O476 C480 1.253 . S
H477 C473 0.931 . S
H478 C474 0.930 . S
O479 Co468 2.039 . S
O479 C469 1.265 . S
C480 O476 1.253 . S
C480 O481 1.227 . S
O481 C480 1.227 . S
N482 Co468 2.140 . S
N482 C485 1.346 . S
N482 C486 1.345 . S
C483 C484 1.387 . S
C483 C487 1.391 . S
C484 C483 1.387 . S
C484 C485 1.369 . S
C484 H493 0.929 . S
C485 N482 1.346 . S
C485 C484 1.369 . S
C485 H488 0.928 . S
C486 N482 1.345 . S
C486 C487 1.371 . S
C486 H489 0.931 . S
C487 C483 1.391 . S
C487 C486 1.371 . S
C487 H494 0.930 . S
H488 C485 0.928 . S
H489 C486 0.931 . S
H490 C466 0.930 . S
H491 C463 0.930 . S
H492 C472 0.930 . S
H493 C484 0.929 . S
H494 C487 0.930 . S
C495 C496 1.351 . S
C495 N498 1.368 1_455 S
C495 H500 0.931 . S
C496 C495 1.351 . S
C496 N497 1.373 1_455 S
C496 H524 0.930 . S
N497 C496 1.373 1_655 S
N497 C499 1.340 . S
N498 C495 1.368 1_655 S
N498 C499 1.321 . S
N498 Co501 2.135 . S
C499 N497 1.340 . S
C499 N498 1.321 . S
C499 H523 0.930 . S
H500 C495 0.931 . S
Co501 N498 2.135 . S
Co501 N504 2.121 . S
Co501 O509 2.055 . S
Co501 O512 2.039 . S
Co501 N515 2.140 1_655 S
C502 O503 1.227 . S
C502 O512 1.265 . S
O503 C502 1.227 . S
N504 Co501 2.121 . S
N504 C506 1.375 . S
N504 C507 1.313 . S
C505 C506 1.338 . S
C505 N508 1.377 . S
C505 H525 0.930 . S
C506 N504 1.375 . S
C506 C505 1.338 . S
C506 H510 0.931 . S
C507 N504 1.313 . S
C507 N508 1.344 . S
C507 H511 0.930 . S
N508 C505 1.377 . S
N508 C507 1.344 . S
O509 Co501 2.055 . S
O509 C513 1.253 1_655 S
H510 C506 0.931 . S
H511 C507 0.930 . S
O512 Co501 2.039 . S
O512 C502 1.265 . S
C513 O509 1.253 1_455 S
C513 O514 1.227 . S
O514 C513 1.227 . S
N515 Co501 2.140 1_455 S
N515 C518 1.346 . S
N515 C519 1.345 . S
C516 C517 1.387 . S
C516 C520 1.391 . S
C517 C516 1.387 . S
C517 C518 1.369 . S
C517 H526 0.929 . S
C518 N515 1.346 . S
C518 C517 1.369 . S
C518 H521 0.928 . S
C519 N515 1.345 . S
C519 C520 1.371 . S
C519 H522 0.931 . S
C520 C516 1.391 . S
C520 C519 1.371 . S
C520 H527 0.930 . S
H521 C518 0.928 . S
H522 C519 0.931 . S
H523 C499 0.930 . S
H524 C496 0.930 . S
H525 C505 0.930 . S
H526 C517 0.929 . S
H527 C520 0.930 . S
C528 C529 1.369 . S
C528 C530 1.419 . S
C528 H532 0.930 . S
C529 C528 1.369 . S
C529 C538 1.429 . S
C530 C528 1.419 . S
C530 C531 1.363 . S
C530 H533 0.929 . S
C531 C530 1.363 . S
C531 C537 1.428 . S
H532 C528 0.930 . S
H533 C530 0.929 . S
S534 N535 1.613 . S
S534 N536 1.610 1_655 S
N535 S534 1.613 . S
N535 C538 1.350 1_655 S
N536 S534 1.610 1_455 S
N536 C537 1.351 . S
C537 C531 1.428 . S
C537 N536 1.351 . S
C537 C538 1.434 . S
C538 C529 1.429 . S
C538 N535 1.350 1_455 S
C538 C537 1.434 . S
C539 C540 1.369 . S
C539 C541 1.419 . S
C539 H543 0.930 . S
C540 C539 1.369 . S
C540 C549 1.429 . S
C541 C539 1.419 . S
C541 C542 1.363 1_455 S
C541 H544 0.929 1_455 S
C542 C541 1.363 1_655 S
C542 C548 1.428 . S
H543 C539 0.930 . S
H544 C541 0.929 1_655 S
S545 N546 1.613 1_655 S
S545 N547 1.610 . S
N546 S545 1.613 1_455 S
N546 C549 1.350 . S
N547 S545 1.610 . S
N547 C548 1.351 . S
C548 C542 1.428 . S
C548 N547 1.351 . S
C548 C549 1.434 1_655 S
C549 C540 1.429 . S
C549 N546 1.350 . S
C549 C548 1.434 1_455 S
C550 C551 1.369 . S
C550 C552 1.419 . S
C550 H554 0.930 . S
C551 C550 1.369 . S
C551 C560 1.429 . S
C552 C550 1.419 . S
C552 C553 1.363 . S
C552 H555 0.929 . S
C553 C552 1.363 . S
C553 C559 1.428 . S
H554 C550 0.930 . S
H555 C552 0.929 . S
S556 N557 1.613 . S
S556 N558 1.610 . S
N557 S556 1.613 . S
N557 C560 1.350 . S
N558 S556 1.610 . S
N558 C559 1.351 . S
C559 C553 1.428 . S
C559 N558 1.351 . S
C559 C560 1.434 . S
C560 C551 1.429 . S
C560 N557 1.350 . S
C560 C559 1.434 . S
C561 C562 1.369 . S
C561 C563 1.419 . S
C561 H565 0.930 . S
C562 C561 1.369 . S
C562 C571 1.429 . S
C563 C561 1.419 . S
C563 C564 1.363 . S
C563 H566 0.929 . S
C564 C563 1.363 . S
C564 C570 1.428 . S
H565 C561 0.930 . S
H566 C563 0.929 . S
S567 N568 1.613 . S
S567 N569 1.610 . S
N568 S567 1.613 . S
N568 C571 1.350 . S
N569 S567 1.610 . S
N569 C570 1.351 . S
C570 C564 1.428 . S
C570 N569 1.351 . S
C570 C571 1.434 . S
C571 C562 1.429 . S
C571 N568 1.350 . S
C571 C570 1.434 . S
C572 C573 1.369 1_655 S
C572 C574 1.419 1_655 S
C572 H576 0.930 . S
C573 C572 1.369 1_455 S
C573 C582 1.429 . S
C574 C572 1.419 1_455 S
C574 C575 1.363 . S
C574 H577 0.928 1_455 S
C575 C574 1.363 . S
C575 C581 1.428 . S
H576 C572 0.930 . S
H577 C574 0.928 1_655 S
S578 N579 1.613 . S
S578 N580 1.610 . S
N579 S578 1.613 . S
N579 C582 1.350 . S
N580 S578 1.610 . S
N580 C581 1.351 . S
C581 C575 1.428 . S
C581 N580 1.351 . S
C581 C582 1.434 . S
C582 C573 1.429 . S
C582 N579 1.350 . S
C582 C581 1.434 . S
C583 C584 1.369 . S
C583 C585 1.419 . S
C583 H587 0.930 . S
C584 C583 1.369 . S
C584 C593 1.429 . S
C585 C583 1.419 . S
C585 C586 1.363 . S
C585 H588 0.929 . S
C586 C585 1.363 . S
C586 C592 1.428 . S
H587 C583 0.930 . S
H588 C585 0.929 . S
S589 N590 1.613 . S
S589 N591 1.610 . S
N590 S589 1.613 . S
N590 C593 1.350 . S
N591 S589 1.610 . S
N591 C592 1.351 . S
C592 C586 1.428 . S
C592 N591 1.351 . S
C592 C593 1.434 . S
C593 C584 1.429 . S
C593 N590 1.350 . S
C593 C592 1.434 . S
C594 C595 1.369 . S
C594 C596 1.419 . S
C594 H598 0.930 . S
C595 C594 1.369 . S
C595 C604 1.429 . S
C596 C594 1.419 . S
C596 C597 1.363 . S
C596 H599 0.929 . S
C597 C596 1.363 . S
C597 C603 1.428 . S
H598 C594 0.930 . S
H599 C596 0.929 . S
S600 N601 1.613 . S
S600 N602 1.610 . S
N601 S600 1.613 . S
N601 C604 1.350 . S
N602 S600 1.610 . S
N602 C603 1.351 . S
C603 C597 1.428 . S
C603 N602 1.351 . S
C603 C604 1.434 . S
C604 C595 1.429 . S
C604 N601 1.350 . S
C604 C603 1.434 . S
C605 C606 1.369 . S
C605 C607 1.419 1_655 S
C605 H609 0.930 . S
C606 C605 1.369 . S
C606 C615 1.429 . S
C607 C605 1.419 1_455 S
C607 C608 1.363 . S
C607 H610 0.929 . S
C608 C607 1.363 . S
C608 C614 1.428 . S
H609 C605 0.930 . S
H610 C607 0.929 . S
S611 N612 1.613 . S
S611 N613 1.610 1_655 S
N612 S611 1.613 . S
N612 C615 1.350 . S
N613 S611 1.610 1_455 S
N613 C614 1.351 . S
C614 C608 1.428 . S
C614 N613 1.351 . S
C614 C615 1.434 1_455 S
C615 C606 1.429 . S
C615 N612 1.350 . S
C615 C614 1.434 1_655 S
C616 C617 1.369 1_655 S
C616 C618 1.419 1_554 S
C616 H620 0.930 . S
C617 C616 1.369 1_455 S
C617 C626 1.429 . S
C618 C616 1.419 1_556 S
C618 C619 1.363 1_655 S
C618 H621 0.929 . S
C619 C618 1.363 1_455 S
C619 C625 1.428 . S
H620 C616 0.930 . S
H621 C618 0.929 . S
S622 N623 1.613 . S
S622 N624 1.610 1_554 S
N623 S622 1.613 . S
N623 C626 1.350 . S
N624 S622 1.610 1_556 S
N624 C625 1.351 . S
C625 C619 1.428 . S
C625 N624 1.351 . S
C625 C626 1.434 1_556 S
C626 C617 1.429 . S
C626 N623 1.350 . S
C626 C625 1.434 1_554 S
C627 C628 1.369 . S
C627 C629 1.419 . S
C627 H631 0.930 . S
C628 C627 1.369 . S
C628 C637 1.429 . S
C629 C627 1.419 . S
C629 C630 1.363 . S
C629 H632 0.929 . S
C630 C629 1.363 . S
C630 C636 1.428 . S
H631 C627 0.930 . S
H632 C629 0.929 . S
S633 N634 1.613 . S
S633 N635 1.610 . S
N634 S633 1.613 . S
N634 C637 1.350 . S
N635 S633 1.610 . S
N635 C636 1.351 . S
C636 C630 1.428 . S
C636 N635 1.351 . S
C636 C637 1.434 . S
C637 C628 1.429 . S
C637 N634 1.350 . S
C637 C636 1.434 . S
C638 C639 1.369 . S
C638 C640 1.419 . S
C638 H642 0.930 . S
C639 C638 1.369 . S
C639 C648 1.429 . S
C640 C638 1.419 . S
C640 C641 1.363 . S
C640 H643 0.929 . S
C641 C640 1.363 . S
C641 C647 1.428 . S
H642 C638 0.930 . S
H643 C640 0.929 . S
S644 N645 1.613 . S
S644 N646 1.610 . S
N645 S644 1.613 . S
N645 C648 1.350 . S
N646 S644 1.610 . S
N646 C647 1.351 . S
C647 C641 1.428 . S
C647 N646 1.351 . S
C647 C648 1.434 . S
C648 C639 1.429 . S
C648 N645 1.350 . S
C648 C647 1.434 . S
C649 C650 1.369 . S
C649 C651 1.419 . S
C649 H653 0.930 . S
C650 C649 1.369 . S
C650 C659 1.429 . S
C651 C649 1.419 . S
C651 C652 1.363 . S
C651 H654 0.929 . S
C652 C651 1.363 . S
C652 C658 1.428 . S
H653 C649 0.930 . S
H654 C651 0.929 . S
S655 N656 1.613 . S
S655 N657 1.610 . S
N656 S655 1.613 . S
N656 C659 1.350 . S
N657 S655 1.610 . S
N657 C658 1.351 . S
C658 C652 1.428 . S
C658 N657 1.351 . S
C658 C659 1.434 . S
C659 C650 1.429 . S
C659 N656 1.350 . S
C659 C658 1.434 . S
C660 C661 1.369 . S
C660 C662 1.419 . S
C660 H664 0.930 . S
C661 C660 1.369 . S
C661 C670 1.429 . S
C662 C660 1.419 . S
C662 C663 1.363 . S
C662 H665 0.929 . S
C663 C662 1.363 . S
C663 C669 1.428 . S
H664 C660 0.930 . S
H665 C662 0.929 . S
S666 N667 1.613 . S
S666 N668 1.610 . S
N667 S666 1.613 . S
N667 C670 1.350 . S
N668 S666 1.610 . S
N668 C669 1.351 . S
C669 C663 1.428 . S
C669 N668 1.351 . S
C669 C670 1.434 . S
C670 C661 1.429 . S
C670 N667 1.350 . S
C670 C669 1.434 . S
C671 C672 1.369 . S
C671 C673 1.419 . S
C671 H675 0.930 . S
C672 C671 1.369 . S
C672 C681 1.429 . S
C673 C671 1.419 . S
C673 C674 1.363 . S
C673 H676 0.929 . S
C674 C673 1.363 . S
C674 C680 1.428 . S
H675 C671 0.930 . S
H676 C673 0.929 . S
S677 N678 1.613 . S
S677 N679 1.610 . S
N678 S677 1.613 . S
N678 C681 1.350 . S
N679 S677 1.610 . S
N679 C680 1.351 . S
C680 C674 1.428 . S
C680 N679 1.351 . S
C680 C681 1.434 . S
C681 C672 1.429 . S
C681 N678 1.350 . S
C681 C680 1.434 . S
C682 C683 1.369 . S
C682 C684 1.419 . S
C682 H686 0.930 . S
C683 C682 1.369 . S
C683 C692 1.429 . S
C684 C682 1.419 . S
C684 C685 1.363 . S
C684 H687 0.929 . S
C685 C684 1.363 . S
C685 C691 1.428 . S
H686 C682 0.930 . S
H687 C684 0.929 . S
S688 N689 1.613 . S
S688 N690 1.610 . S
N689 S688 1.613 . S
N689 C692 1.350 . S
N690 S688 1.610 . S
N690 C691 1.351 . S
C691 C685 1.428 . S
C691 N690 1.351 . S
C691 C692 1.434 . S
C692 C683 1.429 . S
C692 N689 1.350 . S
C692 C691 1.434 . S
C693 C694 1.369 . S
C693 C695 1.419 1_556 S
C693 H697 0.930 . S
C694 C693 1.369 . S
C694 C703 1.429 1_455 S
C695 C693 1.419 1_554 S
C695 C696 1.363 . S
C695 H698 0.929 . S
C696 C695 1.363 . S
C696 C702 1.428 1_455 S
H697 C693 0.930 . S
H698 C695 0.929 . S
S699 N700 1.613 1_554 S
S699 N701 1.610 . S
N700 S699 1.613 1_556 S
N700 C703 1.350 . S
N701 S699 1.610 . S
N701 C702 1.351 . S
C702 C696 1.428 1_655 S
C702 N701 1.351 . S
C702 C703 1.434 1_554 S
C703 C694 1.429 1_655 S
C703 N700 1.350 . S
C703 C702 1.434 1_556 S
C704 C705 1.369 . S
C704 C706 1.419 . S
C704 H708 0.930 . S
C705 C704 1.369 . S
C705 C714 1.429 1_565 S
C706 C704 1.419 . S
C706 C707 1.363 1_565 S
C706 H709 0.929 . S
C707 C706 1.363 1_545 S
C707 C713 1.428 . S
H708 C704 0.930 . S
H709 C706 0.929 . S
S710 N711 1.613 . S
S710 N712 1.610 . S
N711 S710 1.613 . S
N711 C714 1.350 . S
N712 S710 1.610 . S
N712 C713 1.351 . S
C713 C707 1.428 . S
C713 N712 1.351 . S
C713 C714 1.434 . S
C714 C705 1.429 1_545 S
C714 N711 1.350 . S
C714 C713 1.434 . S
C715 C716 1.369 1_545 S
C715 C717 1.419 . S
C715 H719 0.930 . S
C716 C715 1.369 1_565 S
C716 C725 1.429 . S
C717 C715 1.419 . S
C717 C718 1.363 . S
C717 H720 0.929 . S
C718 C717 1.363 . S
C718 C724 1.428 . S
H719 C715 0.930 . S
H720 C717 0.929 . S
S721 N722 1.613 . S
S721 N723 1.610 1_565 S
N722 S721 1.613 . S
N722 C725 1.350 . S
N723 S721 1.610 1_545 S
N723 C724 1.351 . S
C724 C718 1.428 . S
C724 N723 1.351 . S
C724 C725 1.434 1_545 S
C725 C716 1.429 . S
C725 N722 1.350 . S
C725 C724 1.434 1_565 S
C726 C727 1.369 . S
C726 C728 1.419 . S
C726 H730 0.930 . S
C727 C726 1.369 . S
C727 C736 1.429 . S
C728 C726 1.419 . S
C728 C729 1.363 . S
C728 H731 0.929 . S
C729 C728 1.363 . S
C729 C735 1.428 . S
H730 C726 0.930 . S
H731 C728 0.929 . S
S732 N733 1.613 . S
S732 N734 1.610 . S
N733 S732 1.613 . S
N733 C736 1.350 . S
N734 S732 1.610 . S
N734 C735 1.351 . S
C735 C729 1.428 . S
C735 N734 1.351 . S
C735 C736 1.434 . S
C736 C727 1.429 . S
C736 N733 1.350 . S
C736 C735 1.434 . S
C737 C738 1.369 . S
C737 C739 1.419 . S
C737 H741 0.930 . S
C738 C737 1.369 . S
C738 C747 1.429 . S
C739 C737 1.419 . S
C739 C740 1.363 . S
C739 H742 0.929 . S
C740 C739 1.363 . S
C740 C746 1.428 . S
H741 C737 0.930 . S
H742 C739 0.929 . S
S743 N744 1.613 . S
S743 N745 1.610 . S
N744 S743 1.613 . S
N744 C747 1.350 . S
N745 S743 1.610 . S
N745 C746 1.351 . S
C746 C740 1.428 . S
C746 N745 1.351 . S
C746 C747 1.434 . S
C747 C738 1.429 . S
C747 N744 1.350 . S
C747 C746 1.434 . S
C748 C749 1.369 . S
C748 C750 1.419 . S
C748 H752 0.930 . S
C749 C748 1.369 . S
C749 C758 1.429 . S
C750 C748 1.419 . S
C750 C751 1.363 . S
C750 H753 0.929 . S
C751 C750 1.363 . S
C751 C757 1.428 . S
H752 C748 0.930 . S
H753 C750 0.929 . S
S754 N755 1.613 . S
S754 N756 1.610 . S
N755 S754 1.613 . S
N755 C758 1.350 . S
N756 S754 1.610 . S
N756 C757 1.351 . S
C757 C751 1.428 . S
C757 N756 1.351 . S
C757 C758 1.434 . S
C758 C749 1.429 . S
C758 N755 1.350 . S
C758 C757 1.434 . S
C759 C760 1.369 . S
C759 C761 1.419 . S
C759 H763 0.930 . S
C760 C759 1.369 . S
C760 C769 1.429 . S
C761 C759 1.419 . S
C761 C762 1.363 . S
C761 H764 0.929 . S
C762 C761 1.363 . S
C762 C768 1.428 . S
H763 C759 0.930 . S
H764 C761 0.929 . S
S765 N766 1.613 . S
S765 N767 1.610 . S
N766 S765 1.613 . S
N766 C769 1.350 . S
N767 S765 1.610 . S
N767 C768 1.351 . S
C768 C762 1.428 . S
C768 N767 1.351 . S
C768 C769 1.434 . S
C769 C760 1.429 . S
C769 N766 1.350 . S
C769 C768 1.434 . S
C770 C771 1.369 . S
C770 C772 1.419 1_565 S
C770 H774 0.930 . S
C771 C770 1.369 . S
C771 C780 1.429 1_565 S
C772 C770 1.419 1_545 S
C772 C773 1.363 . S
C772 H775 0.929 . S
C773 C772 1.363 . S
C773 C779 1.428 . S
H774 C770 0.930 . S
H775 C772 0.929 . S
S776 N777 1.613 . S
S776 N778 1.610 . S
N777 S776 1.613 . S
N777 C780 1.350 . S
N778 S776 1.610 . S
N778 C779 1.351 . S
C779 C773 1.428 . S
C779 N778 1.351 . S
C779 C780 1.434 . S
C780 C771 1.429 1_545 S
C780 N777 1.350 . S
C780 C779 1.434 . S
C781 C782 1.369 1_545 S
C781 C783 1.419 . S
C781 H785 0.930 . S
C782 C781 1.369 1_565 S
C782 C791 1.429 . S
C783 C781 1.419 . S
C783 C784 1.363 . S
C783 H786 0.929 . S
C784 C783 1.363 . S
C784 C790 1.428 . S
H785 C781 0.930 . S
H786 C783 0.929 . S
S787 N788 1.613 . S
S787 N789 1.610 1_565 S
N788 S787 1.613 . S
N788 C791 1.350 . S
N789 S787 1.610 1_545 S
N789 C790 1.351 . S
C790 C784 1.428 . S
C790 N789 1.351 . S
C790 C791 1.434 1_545 S
C791 C782 1.429 . S
C791 N788 1.350 . S
C791 C790 1.434 1_565 S
C792 C793 1.369 . S
C792 C794 1.419 . S
C792 H796 0.930 . S
C793 C792 1.369 . S
C793 C802 1.429 . S
C794 C792 1.419 . S
C794 C795 1.363 . S
C794 H797 0.929 . S
C795 C794 1.363 . S
C795 C801 1.428 . S
H796 C792 0.930 . S
H797 C794 0.929 . S
S798 N799 1.613 . S
S798 N800 1.610 . S
N799 S798 1.613 . S
N799 C802 1.350 . S
N800 S798 1.610 . S
N800 C801 1.351 . S
C801 C795 1.428 . S
C801 N800 1.351 . S
C801 C802 1.434 . S
C802 C793 1.429 . S
C802 N799 1.350 . S
C802 C801 1.434 . S
C803 C804 1.369 . S
C803 C805 1.419 . S
C803 H807 0.930 . S
C804 C803 1.369 . S
C804 C813 1.429 . S
C805 C803 1.419 . S
C805 C806 1.363 . S
C805 H808 0.929 . S
C806 C805 1.363 . S
C806 C812 1.428 . S
H807 C803 0.930 . S
H808 C805 0.929 . S
S809 N810 1.613 . S
S809 N811 1.610 . S
N810 S809 1.613 . S
N810 C813 1.350 . S
N811 S809 1.610 . S
N811 C812 1.351 . S
C812 C806 1.428 . S
C812 N811 1.351 . S
C812 C813 1.434 . S
C813 C804 1.429 . S
C813 N810 1.350 . S
C813 C812 1.434 . S
C814 C815 1.369 . S
C814 C816 1.419 . S
C814 H818 0.930 . S
C815 C814 1.369 . S
C815 C824 1.429 . S
C816 C814 1.419 . S
C816 C817 1.363 . S
C816 H819 0.929 . S
C817 C816 1.363 . S
C817 C823 1.428 . S
H818 C814 0.930 . S
H819 C816 0.929 . S
S820 N821 1.613 . S
S820 N822 1.610 . S
N821 S820 1.613 . S
N821 C824 1.350 . S
N822 S820 1.610 . S
N822 C823 1.351 . S
C823 C817 1.428 . S
C823 N822 1.351 . S
C823 C824 1.434 . S
C824 C815 1.429 . S
C824 N821 1.350 . S
C824 C823 1.434 . S
C825 C826 1.369 . S
C825 C827 1.419 . S
C825 H829 0.930 . S
C826 C825 1.369 . S
C826 C835 1.429 . S
C827 C825 1.419 . S
C827 C828 1.363 . S
C827 H830 0.929 . S
C828 C827 1.363 . S
C828 C834 1.428 . S
H829 C825 0.930 . S
H830 C827 0.929 . S
S831 N832 1.613 . S
S831 N833 1.610 . S
N832 S831 1.613 . S
N832 C835 1.350 . S
N833 S831 1.610 . S
N833 C834 1.351 . S
C834 C828 1.428 . S
C834 N833 1.351 . S
C834 C835 1.434 . S
C835 C826 1.429 . S
C835 N832 1.350 . S
C835 C834 1.434 . S
C836 C837 1.369 . S
C836 C838 1.419 . S
C836 H840 0.930 . S
C837 C836 1.369 . S
C837 C846 1.429 . S
C838 C836 1.419 . S
C838 C839 1.363 . S
C838 H841 0.929 . S
C839 C838 1.363 . S
C839 C845 1.428 . S
H840 C836 0.930 . S
H841 C838 0.929 . S
S842 N843 1.613 . S
S842 N844 1.610 . S
N843 S842 1.613 . S
N843 C846 1.350 . S
N844 S842 1.610 . S
N844 C845 1.351 . S
C845 C839 1.428 . S
C845 N844 1.351 . S
C845 C846 1.434 . S
C846 C837 1.429 . S
C846 N843 1.350 . S
C846 C845 1.434 . S
C847 C848 1.369 . S
C847 C849 1.419 . S
C847 H851 0.930 . S
C848 C847 1.369 . S
C848 C857 1.429 . S
C849 C847 1.419 . S
C849 C850 1.363 . S
C849 H852 0.929 . S
C850 C849 1.363 . S
C850 C856 1.428 . S
H851 C847 0.930 . S
H852 C849 0.929 . S
S853 N854 1.613 . S
S853 N855 1.610 . S
N854 S853 1.613 . S
N854 C857 1.350 . S
N855 S853 1.610 . S
N855 C856 1.351 . S
C856 C850 1.428 . S
C856 N855 1.351 . S
C856 C857 1.434 . S
C857 C848 1.429 . S
C857 N854 1.350 . S
C857 C856 1.434 . S
C858 C859 1.369 . S
C858 C860 1.419 . S
C858 H862 0.930 . S
C859 C858 1.369 . S
C859 C868 1.429 . S
C860 C858 1.419 . S
C860 C861 1.363 . S
C860 H863 0.929 . S
C861 C860 1.363 . S
C861 C867 1.428 . S
H862 C858 0.930 . S
H863 C860 0.929 . S
S864 N865 1.613 . S
S864 N866 1.610 . S
N865 S864 1.613 . S
N865 C868 1.350 . S
N866 S864 1.610 . S
N866 C867 1.351 . S
C867 C861 1.428 . S
C867 N866 1.351 . S
C867 C868 1.434 . S
C868 C859 1.429 . S
C868 N865 1.350 . S
C868 C867 1.434 . S
C869 C870 1.369 . S
C869 C871 1.419 . S
C869 H873 0.930 . S
C870 C869 1.369 . S
C870 C879 1.429 . S
C871 C869 1.419 . S
C871 C872 1.363 . S
C871 H874 0.929 . S
C872 C871 1.363 . S
C872 C878 1.428 . S
H873 C869 0.930 . S
H874 C871 0.929 . S
S875 N876 1.613 . S
S875 N877 1.610 . S
N876 S875 1.613 . S
N876 C879 1.350 . S
N877 S875 1.610 . S
N877 C878 1.351 . S
C878 C872 1.428 . S
C878 N877 1.351 . S
C878 C879 1.434 . S
C879 C870 1.429 . S
C879 N876 1.350 . S
C879 C878 1.434 . S
C880 C881 1.369 . S
C880 C882 1.419 . S
C880 H884 0.930 . S
C881 C880 1.369 . S
C881 C890 1.429 1_455 S
C882 C880 1.419 . S
C882 C883 1.363 1_455 S
C882 H885 0.929 . S
C883 C882 1.363 1_655 S
C883 C889 1.428 . S
H884 C880 0.930 . S
H885 C882 0.929 . S
S886 N887 1.613 . S
S886 N888 1.610 . S
N887 S886 1.613 . S
N887 C890 1.350 . S
N888 S886 1.610 . S
N888 C889 1.351 . S
C889 C883 1.428 . S
C889 N888 1.351 . S
C889 C890 1.434 . S
C890 C881 1.429 1_655 S
C890 N887 1.350 . S
C890 C889 1.434 . S
C891 C892 1.369 . S
C891 C893 1.419 . S
C891 H895 0.930 . S
C892 C891 1.369 . S
C892 C901 1.429 . S
C893 C891 1.419 . S
C893 C894 1.363 . S
C893 H896 0.929 . S
C894 C893 1.363 . S
C894 C900 1.428 . S
H895 C891 0.930 . S
H896 C893 0.929 . S
S897 N898 1.613 . S
S897 N899 1.610 . S
N898 S897 1.613 . S
N898 C901 1.350 . S
N899 S897 1.610 . S
N899 C900 1.351 . S
C900 C894 1.428 . S
C900 N899 1.351 . S
C900 C901 1.434 . S
C901 C892 1.429 . S
C901 N898 1.350 . S
C901 C900 1.434 . S
C902 C903 1.369 . S
C902 C904 1.419 . S
C902 H906 0.930 . S
C903 C902 1.369 . S
C903 C912 1.429 . S
C904 C902 1.419 . S
C904 C905 1.363 . S
C904 H907 0.929 . S
C905 C904 1.363 . S
C905 C911 1.428 . S
H906 C902 0.930 . S
H907 C904 0.929 . S
S908 N909 1.613 . S
S908 N910 1.610 . S
N909 S908 1.613 . S
N909 C912 1.350 . S
N910 S908 1.610 . S
N910 C911 1.351 . S
C911 C905 1.428 . S
C911 N910 1.351 . S
C911 C912 1.434 . S
C912 C903 1.429 . S
C912 N909 1.350 . S
C912 C911 1.434 . S
C913 C914 1.369 . S
C913 C915 1.419 . S
C913 H917 0.930 . S
C914 C913 1.369 . S
C914 C923 1.429 . S
C915 C913 1.419 . S
C915 C916 1.363 1_455 S
C915 H918 0.929 . S
C916 C915 1.363 1_655 S
C916 C922 1.428 . S
H917 C913 0.930 . S
H918 C915 0.929 . S
S919 N920 1.613 1_655 S
S919 N921 1.610 . S
N920 S919 1.613 1_455 S
N920 C923 1.350 . S
N921 S919 1.610 . S
N921 C922 1.351 . S
C922 C916 1.428 . S
C922 N921 1.351 . S
C922 C923 1.434 1_655 S
C923 C914 1.429 . S
C923 N920 1.350 . S
C923 C922 1.434 1_455 S
C924 C925 1.369 . S
C924 C926 1.412 1_455 S
C924 H928 0.930 . S
C925 C924 1.369 . S
C925 C934 1.429 . S
C926 C924 1.412 1_655 S
C926 C927 1.366 . S
C926 H929 0.933 . S
C927 C926 1.366 . S
C927 C933 1.428 1_655 S
H928 C924 0.930 . S
H929 C926 0.933 . S
S930 N931 1.613 . S
S930 N932 1.610 1_455 S
N931 S930 1.613 . S
N931 C934 1.350 . S
N932 S930 1.610 1_655 S
N932 C933 1.351 1_655 S
C933 C927 1.428 1_455 S
C933 N932 1.351 1_455 S
C933 C934 1.434 . S
C934 C925 1.429 . S
C934 N931 1.350 . S
C934 C933 1.434 . S
C935 C936 1.369 . S
C935 C937 1.419 . S
C935 H939 0.930 . S
C936 C935 1.369 . S
C936 C945 1.429 . S
C937 C935 1.419 . S
C937 C938 1.363 1_455 S
C937 H940 0.929 1_455 S
C938 C937 1.363 1_655 S
C938 C944 1.428 . S
H939 C935 0.930 . S
H940 C937 0.929 1_655 S
S941 N942 1.613 1_655 S
S941 N943 1.610 . S
N942 S941 1.613 1_455 S
N942 C945 1.350 . S
N943 S941 1.610 . S
N943 C944 1.351 . S
C944 C938 1.428 . S
C944 N943 1.351 . S
C944 C945 1.434 1_655 S
C945 C936 1.429 . S
C945 N942 1.350 . S
C945 C944 1.434 1_455 S
C946 C947 1.369 . S
C946 C948 1.419 . S
C946 H950 0.930 . S
C947 C946 1.369 . S
C947 C956 1.429 . S
C948 C946 1.419 . S
C948 C949 1.363 . S
C948 H951 0.929 . S
C949 C948 1.363 . S
C949 C955 1.428 . S
H950 C946 0.930 . S
H951 C948 0.929 . S
S952 N953 1.613 . S
S952 N954 1.610 . S
N953 S952 1.613 . S
N953 C956 1.350 . S
N954 S952 1.610 . S
N954 C955 1.351 . S
C955 C949 1.428 . S
C955 N954 1.351 . S
C955 C956 1.434 . S
C956 C947 1.429 . S
C956 N953 1.350 . S
C956 C955 1.434 . S
C957 C958 1.369 . S
C957 C959 1.419 . S
C957 H961 0.930 . S
C958 C957 1.369 . S
C958 C967 1.429 . S
C959 C957 1.419 . S
C959 C960 1.363 . S
C959 H962 0.929 . S
C960 C959 1.363 . S
C960 C966 1.428 . S
H961 C957 0.930 . S
H962 C959 0.929 . S
S963 N964 1.613 . S
S963 N965 1.610 . S
N964 S963 1.613 . S
N964 C967 1.350 . S
N965 S963 1.610 . S
N965 C966 1.351 . S
C966 C960 1.428 . S
C966 N965 1.351 . S
C966 C967 1.434 . S
C967 C958 1.429 . S
C967 N964 1.350 . S
C967 C966 1.434 . S
C529 N442 1.451 1_455 S
C531 N13 1.451 . S
C540 N46 1.453 . S
C542 N376 1.452 . S
C551 N79 1.451 . S
C553 N409 1.452 . S
C562 N112 1.453 . S
C564 N343 1.454 . S
C573 N508 1.456 1_455 S
C575 N145 1.456 . S
C584 N178 1.451 . S
C586 N310 1.451 . S
C595 N211 1.455 . S
C597 N475 1.455 . S
C606 N277 1.455 . S
C608 N244 1.455 . S
C617 C18 1.689 . S
C619 C150 1.691 . S
C628 C51 1.686 . S
C630 C183 1.693 . S
C639 C84 1.687 . S
C641 C216 1.692 . S
C650 C249 1.688 . S
C652 C117 1.691 . S
C661 C348 1.687 . S
C663 C282 1.691 . S
C672 C315 1.689 . S
C674 C381 1.690 . S
C683 C480 1.693 . S
C685 C414 1.687 . S
C694 C513 1.693 . S
C696 C447 1.687 . S
C705 C172 1.271 . S
C707 C7 1.271 . S
C716 C40 1.271 . S
C718 C205 1.270 . S
C727 C73 1.266 . S
C729 C238 1.267 . S
C738 C139 1.263 . S
C740 C106 1.264 . S
C749 C153 0.656 . S
C751 C351 0.651 . S
C760 C87 0.638 . S
C762 C285 0.639 . S
C771 C384 0.655 . S
C773 C219 0.650 . S
C782 C318 0.639 . S
C784 C21 0.643 . S
C793 C271 1.273 . S
C795 C403 1.271 . S
C804 C502 1.273 . S
C806 C337 1.271 . S
C815 C436 1.263 . S
C817 C304 1.264 . S
C826 C370 1.268 . S
C828 C469 1.268 . S
C837 C483 0.657 . S
C839 C54 0.655 . S
C848 C186 0.641 . S
C850 C450 0.640 . S
C859 C516 0.650 . S
C861 C120 0.652 . S
C870 C252 0.657 . S
C872 C417 0.653 . S
C881 N2 0.880 . S
C883 N431 0.895 . S
C892 N35 0.876 . S
C894 N365 0.892 . S
C903 N68 0.897 . S
C905 N398 0.880 . S
C914 N101 0.887 . S
C916 N332 0.881 . S
C925 N134 0.880 . S
C927 N497 0.886 . S
C936 N167 0.897 . S
C938 N299 0.883 . S
C947 N464 0.896 . S
C949 N200 0.886 . S
C958 N266 0.876 . S
C960 N233 0.889 . S
