# Generated by pormake.
# Topology dia, (4)-cn, num edge types: 1
# Building blocks:
#     Node 0, Type 0, BuildingBlock: NAHDIM_clean_sbu_0, # of connection points: 4
#     Node 1, Type 0, BuildingBlock: NAHDIM_clean_sbu_0, # of connection points: 4
#     Node 2, Type 0, BuildingBlock: NAHDIM_clean_sbu_0, # of connection points: 4
#     Node 3, Type 0, BuildingBlock: NAHDIM_clean_sbu_0, # of connection points: 4
#     Node 4, Type 0, BuildingBlock: NAHDIM_clean_sbu_0, # of connection points: 4
#     Node 5, Type 0, BuildingBlock: NAHDIM_clean_sbu_0, # of connection points: 4
#     Node 6, Type 0, BuildingBlock: NAHDIM_clean_sbu_0, # of connection points: 4
#     Node 7, Type 0, BuildingBlock: NAHDIM_clean_sbu_0, # of connection points: 4
#     Edge 8, Type (0, 0), BuildingBlock: XIVTED_clean_linker_0, # of connection points: 2
#     Edge 9, Type (0, 0), BuildingBlock: XIVTED_clean_linker_0, # of connection points: 2
#     Edge 10, Type (0, 0), BuildingBlock: XIVTED_clean_linker_0, # of connection points: 2
#     Edge 11, Type (0, 0), BuildingBlock: XIVTED_clean_linker_0, # of connection points: 2
#     Edge 12, Type (0, 0), BuildingBlock: XIVTED_clean_linker_0, # of connection points: 2
#     Edge 13, Type (0, 0), BuildingBlock: XIVTED_clean_linker_0, # of connection points: 2
#     Edge 14, Type (0, 0), BuildingBlock: XIVTED_clean_linker_0, # of connection points: 2
#     Edge 15, Type (0, 0), BuildingBlock: XIVTED_clean_linker_0, # of connection points: 2
#     Edge 16, Type (0, 0), BuildingBlock: XIVTED_clean_linker_0, # of connection points: 2
#     Edge 17, Type (0, 0), BuildingBlock: XIVTED_clean_linker_0, # of connection points: 2
#     Edge 18, Type (0, 0), BuildingBlock: XIVTED_clean_linker_0, # of connection points: 2
#     Edge 19, Type (0, 0), BuildingBlock: XIVTED_clean_linker_0, # of connection points: 2
#     Edge 20, Type (0, 0), BuildingBlock: XIVTED_clean_linker_0, # of connection points: 2
#     Edge 21, Type (0, 0), BuildingBlock: XIVTED_clean_linker_0, # of connection points: 2
#     Edge 22, Type (0, 0), BuildingBlock: XIVTED_clean_linker_0, # of connection points: 2
#     Edge 23, Type (0, 0), BuildingBlock: XIVTED_clean_linker_0, # of connection points: 2
# Relax obj value: 0.005
# Max RMSD: 0.034
# Mean RMSD: 0.034
data_MOF--net-dia--node1-NAHDIM_clean_sbu_0--edge1-XIVTED_clean_linker_0
_symmetry_space_group_name_H-M    P1
_symmetry_Int_Tables_number       1
_symmetry_cell_setting            triclinic
loop_
_symmetry_equiv_pos_as_xyz
'x, y, z'
_cell_length_a     37.229103
_cell_length_b     34.758872
_cell_length_c     34.609183
_cell_angle_alpha  88.385099
_cell_angle_beta   93.435696
_cell_angle_gamma 93.654652
loop_
_atom_site_label
_atom_site_type_symbol
_atom_site_fract_x
_atom_site_fract_y
_atom_site_fract_z
_atom_type_partial_charge
C0 C 0.07165 0.14682 0.66999 0.0
O1 O 0.06598 0.10937 0.66627 0.0
O2 O 0.15978 0.09925 0.66303 0.0
Zn3 Zn 0.13105 0.13227 0.62555 0.0
O4 O 0.09975 0.09782 0.58992 0.0
C5 C 0.17475 0.15697 0.56198 0.0
O6 O 0.16202 0.12379 0.54794 0.0
O7 O 0.09882 0.1639 0.65493 0.0
C8 C 0.07881 0.11226 0.56385 0.0
O9 O 0.07808 0.14995 0.56031 0.0
C10 C 0.17868 0.07375 0.65026 0.0
O11 O 0.17906 0.06952 0.6127 0.0
O12 O 0.16511 0.16694 0.59471 0.0
C13 C 0.90122 0.29766 0.81092 0.0
O14 O 0.87141 0.28055 0.82322 0.0
O15 O 0.84725 0.33202 0.88378 0.0
Zn16 Zn 0.87748 0.36535 0.84799 0.0
O17 O 0.9106 0.40308 0.87857 0.0
C18 C 0.82431 0.41852 0.82409 0.0
O19 O 0.82577 0.42435 0.86149 0.0
O20 O 0.90864 0.33307 0.81793 0.0
C21 C 0.90419 0.41486 0.91177 0.0
O22 O 0.87421 0.4026 0.92757 0.0
C23 C 0.86121 0.313 0.91211 0.0
O24 O 0.89646 0.31461 0.91804 0.0
O25 O 0.84441 0.39428 0.81104 0.0
C26 C 0.59659 0.14585 0.18619 0.0
O27 O 0.60113 0.10961 0.19594 0.0
O28 O 0.66653 0.09011 0.15327 0.0
Zn29 Zn 0.6354 0.12602 0.12122 0.0
O30 O 0.59709 0.09537 0.08986 0.0
C31 C 0.69976 0.16595 0.09439 0.0
O32 O 0.71349 0.15311 0.12779 0.0
O33 O 0.60999 0.15993 0.15555 0.0
C34 C 0.60385 0.07685 0.06031 0.0
O35 O 0.63709 0.07777 0.04937 0.0
C36 C 0.65763 0.05459 0.15912 0.0
O37 O 0.62642 0.04016 0.14456 0.0
O38 O 0.66648 0.15843 0.08538 0.0
C39 C 0.93281 0.80807 0.34426 0.0
O40 O 0.92812 0.79835 0.38066 0.0
O41 O 0.85687 0.82983 0.39515 0.0
Zn42 Zn 0.88635 0.86668 0.36202 0.0
O43 O 0.91817 0.90174 0.39665 0.0
C44 C 0.82477 0.8832 0.31068 0.0
O45 O 0.81723 0.84589 0.31452 0.0
O46 O 0.91731 0.83695 0.32936 0.0
C47 C 0.92485 0.93702 0.38743 0.0
O48 O 0.91088 0.95076 0.35452 0.0
C49 C 0.83105 0.84158 0.41313 0.0
O50 O 0.82388 0.8781 0.40983 0.0
O51 O 0.8531 0.89821 0.32795 0.0
C52 C 0.08316 0.64861 0.18756 0.0
O53 O 0.08855 0.61273 0.19812 0.0
O54 O 0.15042 0.5915 0.15696 0.0
Zn55 Zn 0.1216 0.62766 0.1229 0.0
O56 O 0.0848 0.59631 0.09005 0.0
C57 C 0.1851 0.67372 0.10341 0.0
O58 O 0.19385 0.66758 0.14031 0.0
O59 O 0.09534 0.662 0.15605 0.0
C60 C 0.09084 0.58543 0.05643 0.0
O61 O 0.12213 0.59513 0.04211 0.0
C62 C 0.17467 0.57242 0.14353 0.0
O63 O 0.18111 0.57649 0.10668 0.0
O64 O 0.15489 0.65983 0.08927 0.0
C65 C 0.43038 0.29808 0.3307 0.0
O66 O 0.42707 0.29128 0.3679 0.0
O67 O 0.35198 0.32283 0.37888 0.0
Zn68 Zn 0.38334 0.35743 0.34481 0.0
O69 O 0.418 0.39277 0.37626 0.0
C70 C 0.32158 0.39909 0.31768 0.0
O71 O 0.31013 0.38831 0.35173 0.0
O72 O 0.4133 0.32492 0.31386 0.0
C73 C 0.40932 0.42397 0.39044 0.0
O74 O 0.3759 0.43397 0.38547 0.0
C75 C 0.34895 0.32832 0.41469 0.0
O76 O 0.36738 0.35745 0.43131 0.0
O77 O 0.35208 0.38908 0.30829 0.0
C78 C 0.43701 0.81197 0.84566 0.0
O79 O 0.44765 0.82181 0.88109 0.0
O80 O 0.3471 0.82852 0.89641 0.0
Zn81 Zn 0.37959 0.85935 0.8608 0.0
O82 O 0.41542 0.89477 0.89064 0.0
C83 C 0.32354 0.90906 0.83569 0.0
O84 O 0.3168 0.90619 0.87251 0.0
O85 O 0.40765 0.82398 0.83065 0.0
C86 C 0.4085 0.91376 0.91983 0.0
O87 O 0.3758 0.91089 0.93235 0.0
C88 C 0.35786 0.81576 0.9296 0.0
O89 O 0.39179 0.82226 0.94159 0.0
O90 O 0.34928 0.89118 0.82366 0.0
C91 C 0.59768 0.66972 0.6843 0.0
O92 O 0.62933 0.66011 0.69895 0.0
O93 O 0.64863 0.59599 0.65187 0.0
Zn94 Zn 0.61803 0.63021 0.61702 0.0
O95 O 0.58374 0.59854 0.58152 0.0
C96 C 0.68018 0.6587 0.57558 0.0
O97 O 0.69184 0.62473 0.58545 0.0
O98 O 0.58767 0.66041 0.6499 0.0
C99 C 0.5916 0.58657 0.5489 0.0
O100 O 0.62413 0.59439 0.5369 0.0
C101 C 0.65765 0.56299 0.64251 0.0
O102 O 0.64663 0.54951 0.60848 0.0
O103 O 0.64954 0.66732 0.58588 0.0
H104 H 0.33157 0.33555 0.48982 0.0
H105 H 0.19765 0.14595 0.48971 0.0
H106 H 0.30929 0.26328 0.39071 0.0
H107 H 0.21033 0.2251 0.5842 0.0
H108 H 0.24036 0.18724 0.45407 0.0
H109 H 0.28931 0.29397 0.52593 0.0
C110 C 0.31787 0.31089 0.47566 0.0
C111 C 0.32399 0.30292 0.43714 0.0
C112 C 0.23379 0.19563 0.48258 0.0
C113 C 0.27552 0.25519 0.47837 0.0
C114 C 0.2094 0.17203 0.503 0.0
C115 C 0.20036 0.18207 0.54004 0.0
C116 C 0.24944 0.2295 0.49932 0.0
C117 C 0.21646 0.21625 0.55572 0.0
C118 C 0.29367 0.28721 0.49629 0.0
C119 C 0.30539 0.27058 0.42031 0.0
N120 N 0.24026 0.2387 0.5353 0.0
N121 N 0.28204 0.24791 0.44103 0.0
H122 H 0.68948 0.49633 0.62824 0.0
H123 H 0.78294 0.47718 0.84159 0.0
H124 H 0.68016 0.57884 0.71749 0.0
H125 H 0.80882 0.40821 0.74643 0.0
H126 H 0.74179 0.51186 0.79769 0.0
H127 H 0.72979 0.46068 0.67239 0.0
C128 C 0.69582 0.50691 0.65714 0.0
C129 C 0.68145 0.54066 0.66916 0.0
C130 C 0.7565 0.48917 0.78639 0.0
C131 C 0.72754 0.49996 0.71983 0.0
C132 C 0.77997 0.46929 0.81146 0.0
C133 C 0.79941 0.43976 0.79767 0.0
C134 C 0.7522 0.47931 0.74725 0.0
C135 C 0.79446 0.43084 0.75831 0.0
C136 C 0.71892 0.48659 0.68229 0.0
C137 C 0.69067 0.55303 0.70694 0.0
N138 N 0.77128 0.45048 0.7345 0.0
N139 N 0.71308 0.53265 0.73093 0.0
H140 H 0.53274 0.06761 0.07661 0.0
H141 H 0.47907 0.92504 0.90195 0.0
H142 H 0.60829 0.03328 -0.00387 0.0
H143 H 0.4038 0.95839 0.9832 0.0
H144 H 0.52652 0.96525 0.9355 0.0
H145 H 0.48501 0.02855 0.04217 0.0
C146 C 0.53931 0.05191 0.05164 0.0
C147 C 0.57463 0.05372 0.03925 0.0
C148 C 0.49963 0.96382 0.94599 0.0
C149 C 0.51999 0.00884 -0.00032 0.0
C150 C 0.47248 0.94086 0.92683 0.0
C151 C 0.43736 0.93832 0.93979 0.0
C152 C 0.49168 0.98444 0.97839 0.0
C153 C 0.43047 0.95946 0.9722 0.0
C154 C 0.51201 0.02957 0.03199 0.0
C155 C 0.58149 0.03273 0.00673 0.0
N156 N 0.45739 0.98161 0.9904 0.0
N157 N 0.55442 0.01114 0.98809 0.0
H158 H 0.95289 0.82346 0.27017 0.0
H159 H 0.05813 0.6308 0.259 0.0
H160 H 0.96485 0.74134 0.36529 0.0
H161 H 0.06039 0.72103 0.1707 0.0
H162 H 0.02226 0.67002 0.29744 0.0
H163 H 0.99044 0.78539 0.23227 0.0
C164 C 0.9634 0.79744 0.2831 0.0
C165 C 0.95567 0.78556 0.32097 0.0
C166 C 0.03068 0.68131 0.26971 0.0
C167 C 0.99861 0.74182 0.27771 0.0
C168 C 0.05114 0.65889 0.2477 0.0
C169 C 0.06226 0.67261 0.21153 0.0
C170 C 0.02102 0.71766 0.25539 0.0
C171 C 0.05244 0.7093 0.19843 0.0
C172 C 0.98491 0.77576 0.26147 0.0
C173 C 0.9701 0.75163 0.33624 0.0
N174 N 0.03227 0.73048 0.22029 0.0
N175 N 0.99077 0.73091 0.31452 0.0
H176 H 0.27062 0.95589 0.85294 0.0
H177 H 0.22551 0.02025 0.6324 0.0
H178 H 0.3266 0.91713 0.75692 0.0
H179 H 0.18042 0.07104 0.72961 0.0
H180 H 0.26054 0.97984 0.67737 0.0
H181 H 0.23509 -0.00417 0.80796 0.0
C182 C 0.27542 0.95572 0.82239 0.0
C183 C 0.30166 0.93313 0.80869 0.0
C184 C 0.24302 -0.00015 0.68887 0.0
C185 C 0.26101 0.97879 0.75701 0.0
C186 C 0.22295 0.02291 0.66321 0.0
C187 C 0.2 0.04912 0.67725 0.0
C188 C 0.24003 0.00284 0.72892 0.0
C189 C 0.19781 0.0513 0.71748 0.0
C190 C 0.25516 0.97861 0.79673 0.0
C191 C 0.30671 0.93413 0.76879 0.0
N192 N 0.21753 0.02842 0.74189 0.0
N193 N 0.28654 0.95654 0.74436 0.0
H194 H 0.8994 0.44564 0.98315 0.0
H195 H 0.09458 0.55704 0.9838 0.0
H196 H 0.96953 0.44448 0.88828 0.0
H197 H 0.02383 0.5593 0.078 0.0
H198 H 0.0487 0.51667 0.94789 0.0
H199 H 0.94425 0.48822 0.01786 0.0
C200 C 0.92419 0.45439 0.96956 0.0
C201 C 0.93072 0.44138 0.93276 0.0
C202 C 0.04318 0.52605 0.97639 0.0
C203 C 0.98225 0.49012 0.97241 0.0
C204 C 0.06939 0.54911 -0.00307 0.0
C205 C 0.06309 0.56153 0.03402 0.0
C206 C 0.01043 0.51526 -0.00695 0.0
C207 C 0.0299 0.55037 0.04952 0.0
C208 C 0.9498 0.47871 0.98942 0.0
C209 C 0.96333 0.45373 0.91661 0.0
N210 N 1.00486 0.52783 0.029 0.0
N211 N 0.98789 0.47733 0.93656 0.0
H212 H 0.45087 0.31117 0.25652 0.0
H213 H 0.56907 0.1271 0.25633 0.0
H214 H 0.46576 0.23446 0.35569 0.0
H215 H 0.57211 0.21719 0.16791 0.0
H216 H 0.52892 0.16424 0.29189 0.0
H217 H 0.49246 0.27491 0.22198 0.0
C218 C 0.46279 0.28663 0.27101 0.0
C219 C 0.4548 0.27583 0.30908 0.0
C220 C 0.53851 0.17596 0.2648 0.0
C221 C 0.50247 0.23422 0.26967 0.0
C222 C 0.56143 0.15476 0.24446 0.0
C223 C 0.57395 0.16903 0.20905 0.0
C224 C 0.52774 0.21154 0.24947 0.0
C225 C 0.56317 0.20509 0.19511 0.0
C226 C 0.48666 0.26605 0.25131 0.0
C227 C 0.47116 0.24386 0.32641 0.0
N228 N 0.54053 0.22499 0.21525 0.0
N229 N 0.49414 0.22412 0.30654 0.0
H230 H 0.8414 0.76552 0.43014 0.0
H231 H 0.66632 0.73294 0.55348 0.0
H232 H 0.7709 0.8557 0.45104 0.0
H233 H 0.74423 0.64732 0.54405 0.0
H234 H 0.70305 0.77769 0.51415 0.0
H235 H 0.80485 0.72112 0.4699 0.0
C236 C 0.81823 0.77601 0.44308 0.0
C237 C 0.80921 0.81442 0.43725 0.0
C238 C 0.71213 0.74913 0.52074 0.0
C239 C 0.76718 0.76366 0.48279 0.0
C240 C 0.69115 0.72354 0.54316 0.0
C241 C 0.70221 0.6863 0.55209 0.0
C242 C 0.74434 0.73738 0.50697 0.0
C243 C 0.73465 0.67574 0.53794 0.0
C244 C 0.79739 0.75064 0.46584 0.0
C245 C 0.7789 0.82637 0.45479 0.0
N246 N 0.75451 0.70111 0.51603 0.0
N247 N 0.75894 0.80106 0.47671 0.0
H248 H 0.16485 0.5531 0.21959 0.0
H249 H 0.33492 0.42296 0.24343 0.0
H250 H 0.23231 0.53221 0.1261 0.0
H251 H 0.25849 0.43123 0.33141 0.0
H252 H 0.29887 0.46455 0.20063 0.0
H253 H 0.20011 0.51023 0.26166 0.0
C254 C 0.18707 0.5395 0.20788 0.0
C255 C 0.19564 0.54628 0.16923 0.0
C256 C 0.28995 0.45718 0.22926 0.0
C257 C 0.2362 0.49718 0.21733 0.0
C258 C 0.31054 0.43347 0.25375 0.0
C259 C 0.29973 0.4236 0.2911 0.0
C260 C 0.25841 0.47134 0.24227 0.0
C261 C 0.26786 0.43804 0.30286 0.0
C262 C 0.20716 0.51495 0.23192 0.0
C263 C 0.22471 0.52779 0.15567 0.0
N264 N 0.2484 0.46127 0.27858 0.0
N265 N 0.244 0.50417 0.17972 0.0
H266 H 0.88154 0.27392 0.97893 0.0
H267 H 0.67999 0.19912 0.0241 0.0
H268 H 0.78768 0.3009 0.90629 0.0
H269 H 0.7726 0.18282 0.10268 0.0
H270 H 0.71923 0.23449 0.9794 0.0
H271 H 0.8423 0.23812 0.02332 0.0
C272 C 0.85269 0.27225 0.97224 0.0
C273 C 0.83789 0.29048 0.93883 0.0
C274 C 0.73096 0.22322 0.00645 0.0
C275 C 0.79278 0.24954 0.98958 0.0
C276 C 0.70856 0.20301 0.032 0.0
C277 C 0.723 0.18799 0.06724 0.0
C278 C 0.76813 0.22835 0.01609 0.0
C279 C 0.76025 0.19392 0.07589 0.0
C280 C 0.83028 0.25186 -0.00234 0.0
C281 C 0.80029 0.28736 0.93172 0.0
N282 N 0.78151 0.21356 0.05048 0.0
N283 N 0.77906 0.26728 0.95685 0.0
H284 H 0.76036 0.86143 0.27249 0.0
H285 H 0.7236 0.07532 0.19432 0.0
H286 H 0.83287 0.96101 0.29623 0.0
H287 H 0.64832 0.97707 0.17514 0.0
H288 H 0.76445 0.03355 0.23074 0.0
H289 H 0.71954 0.90295 0.23547 0.0
C290 C 0.76775 0.892 0.26986 0.0
C291 C 0.80009 0.90775 0.28751 0.0
C292 C 0.73899 0.02111 0.2186 0.0
C293 C 0.75345 0.95546 0.24523 0.0
C294 C 0.71562 0.04496 0.19779 0.0
C295 C 0.68244 0.02969 0.18165 0.0
C296 C 0.7292 0.98163 0.2233 0.0
C297 C 0.67359 0.99011 0.18709 0.0
C298 C 0.74439 0.91571 0.24876 0.0
C299 C 0.80822 0.94758 0.28315 0.0
N300 N 0.69684 0.96745 0.20742 0.0
N301 N 0.78506 0.97003 0.26247 0.0
H302 H 0.96203 0.91702 0.45496 0.0
H303 H 0.03557 0.13329 0.50098 0.0
H304 H 0.93992 0.01489 0.37965 0.0
H305 H 0.06995 0.03346 0.56683 0.0
H306 H 0.9981 0.09073 0.45786 0.0
H307 H 0.99951 0.95963 0.49795 0.0
C308 C 0.96505 0.94747 0.44744 0.0
C309 C 0.9478 0.9624 0.41362 0.0
C310 C 0.01388 0.07814 0.48172 0.0
C311 C 0.99062 0.01137 0.4628 0.0
C312 C 0.03523 0.10243 0.50641 0.0
C313 C 0.05594 0.08692 0.53756 0.0
C314 C 0.01307 0.03805 0.48835 0.0
C315 C 0.05447 0.0467 0.54314 0.0
C316 C 0.9865 0.97177 0.47199 0.0
C317 C 0.95273 0.0021 0.40537 0.0
N318 N 0.03335 0.02367 0.51882 0.0
N319 N 0.97362 0.02521 0.42983 0.0
H320 H 0.96415 0.32482 0.77977 0.0
H321 H 0.01007 0.11924 0.70343 0.0
H322 H 0.89574 0.2209 0.79368 0.0
H323 H 0.07557 0.22428 0.68426 0.0
H324 H 0.96843 0.15579 0.73747 0.0
H325 H 0.00566 0.28832 0.74551 0.0
C326 C 0.9578 0.29432 0.7756 0.0
C327 C 0.92636 0.27591 0.78966 0.0
C328 C 0.9919 0.17087 0.72582 0.0
C329 C 0.97392 0.23388 0.75044 0.0
C330 C 0.01575 0.15 0.70639 0.0
C331 C 0.04641 0.16871 0.69094 0.0
C332 C 0.99872 0.21079 0.72993 0.0
C333 C 0.0523 0.20864 0.69568 0.0
C334 C 0.98156 0.27349 0.75601 0.0
C335 C 0.91961 0.23632 0.78335 0.0
N336 N 0.02869 0.22833 0.71476 0.0
N337 N 0.94321 0.21663 0.76426 0.0
H338 H 0.53061 0.6939 0.66283 0.0
H339 H 0.50221 0.78397 0.8684 0.0
H340 H 0.60952 0.69241 0.75943 0.0
H341 H 0.42444 0.78815 0.7709 0.0
H342 H 0.54109 0.74879 0.82949 0.0
H343 H 0.49083 0.72722 0.70237 0.0
C344 C 0.53962 0.7006 0.69235 0.0
C345 C 0.57351 0.69036 0.70782 0.0
C346 C 0.51549 0.75732 0.81662 0.0
C347 C 0.52797 0.72847 0.75332 0.0
C348 C 0.49321 0.77737 0.83885 0.0
C349 C 0.46001 0.78912 0.82288 0.0
C350 C 0.50455 0.74891 0.77808 0.0
C351 C 0.44981 0.77972 0.78441 0.0
C352 C 0.51684 0.71961 0.71494 0.0
C353 C 0.58367 0.69978 0.74627 0.0
N354 N 0.47203 0.76024 0.76332 0.0
N355 N 0.561 0.71829 0.76769 0.0
H356 H 0.2539 0.70209 0.12293 0.0
H357 H 0.28677 0.79423 0.91238 0.0
H358 H 0.17457 0.69449 0.02677 0.0
H359 H 0.3702 0.78929 0.00426 0.0
H360 H 0.24454 0.76008 0.95468 0.0
H361 H 0.29604 0.73665 0.08077 0.0
C362 C 0.24528 0.70777 0.09298 0.0
C363 C 0.21062 0.69537 0.07838 0.0
C364 C 0.2721 0.7664 0.96558 0.0
C365 C 0.2588 0.73492 0.02992 0.0
C366 C 0.29625 0.78594 0.94144 0.0
C367 C 0.33213 0.79463 0.95477 0.0
C368 C 0.28381 0.75559 0.00343 0.0
C369 C 0.34283 0.78315 0.99272 0.0
C370 C 0.26942 0.72743 0.06889 0.0
C371 C 0.20101 0.70348 0.03928 0.0
N372 N 0.31876 0.7643 0.01573 0.0
N373 N 0.22496 0.72277 0.01644 0.0
H374 H 0.48258 0.41979 0.39466 0.0
H375 H 0.51898 0.57753 0.55731 0.0
H376 H 0.39804 0.48347 0.43753 0.0
H377 H 0.60228 0.54293 0.48641 0.0
H378 H 0.47444 0.53854 0.5181 0.0
H379 H 0.52715 0.46005 0.43257 0.0
C380 C 0.47338 0.44222 0.41207 0.0
C381 C 0.43653 0.4483 0.41296 0.0
C382 C 0.50245 0.5396 0.51107 0.0
C383 C 0.48736 0.49423 0.45652 0.0
C384 C 0.52791 0.56171 0.5335 0.0
C385 C 0.5644 0.56346 0.5251 0.0
C386 C 0.51361 0.51864 0.48034 0.0
C387 C 0.57441 0.54249 0.49383 0.0
C388 C 0.49885 0.46526 0.43356 0.0
C389 C 0.42618 0.47786 0.43591 0.0
N390 N 0.54917 0.52073 0.4727 0.0
N391 N 0.45146 0.4996 0.45698 0.0
loop_
_geom_bond_atom_site_label_1
_geom_bond_atom_site_label_2
_geom_bond_distance
_geom_bond_site_symmetry_2
_ccdc_geom_bond_type
C0 O1 1.160 . S
C0 O7 1.185 . S
O1 C0 1.160 . S
O2 Zn3 1.899 . S
O2 C10 1.284 . S
Zn3 O2 1.899 . S
Zn3 O4 2.032 . S
Zn3 O7 2.086 . S
Zn3 O12 1.977 . S
O4 Zn3 2.032 . S
O4 C8 1.278 . S
C5 O6 1.203 . S
C5 O12 1.267 . S
O6 C5 1.203 . S
O7 C0 1.185 . S
O7 Zn3 2.086 . S
C8 O4 1.278 . S
C8 O9 1.211 . S
O9 C8 1.211 . S
C10 O2 1.284 . S
C10 O11 1.273 . S
O11 C10 1.273 . S
O12 Zn3 1.977 . S
O12 C5 1.267 . S
C13 O14 1.160 . S
C13 O20 1.185 . S
O14 C13 1.160 . S
O15 Zn16 1.899 . S
O15 C23 1.284 . S
Zn16 O15 1.899 . S
Zn16 O17 2.032 . S
Zn16 O20 2.086 . S
Zn16 O25 1.977 . S
O17 Zn16 2.032 . S
O17 C21 1.278 . S
C18 O19 1.203 . S
C18 O25 1.267 . S
O19 C18 1.203 . S
O20 C13 1.185 . S
O20 Zn16 2.086 . S
C21 O17 1.278 . S
C21 O22 1.211 . S
O22 C21 1.211 . S
C23 O15 1.284 . S
C23 O24 1.273 . S
O24 C23 1.273 . S
O25 Zn16 1.977 . S
O25 C18 1.267 . S
C26 O27 1.160 . S
C26 O33 1.185 . S
O27 C26 1.160 . S
O28 Zn29 1.899 . S
O28 C36 1.284 . S
Zn29 O28 1.899 . S
Zn29 O30 2.032 . S
Zn29 O33 2.086 . S
Zn29 O38 1.977 . S
O30 Zn29 2.032 . S
O30 C34 1.278 . S
C31 O32 1.203 . S
C31 O38 1.267 . S
O32 C31 1.203 . S
O33 C26 1.185 . S
O33 Zn29 2.086 . S
C34 O30 1.278 . S
C34 O35 1.211 . S
O35 C34 1.211 . S
C36 O28 1.284 . S
C36 O37 1.273 . S
O37 C36 1.273 . S
O38 Zn29 1.977 . S
O38 C31 1.267 . S
C39 O40 1.160 . S
C39 O46 1.185 . S
O40 C39 1.160 . S
O41 Zn42 1.899 . S
O41 C49 1.284 . S
Zn42 O41 1.899 . S
Zn42 O43 2.032 . S
Zn42 O46 2.086 . S
Zn42 O51 1.977 . S
O43 Zn42 2.032 . S
O43 C47 1.278 . S
C44 O45 1.203 . S
C44 O51 1.267 . S
O45 C44 1.203 . S
O46 C39 1.185 . S
O46 Zn42 2.086 . S
C47 O43 1.278 . S
C47 O48 1.211 . S
O48 C47 1.211 . S
C49 O41 1.284 . S
C49 O50 1.273 . S
O50 C49 1.273 . S
O51 Zn42 1.977 . S
O51 C44 1.267 . S
C52 O53 1.160 . S
C52 O59 1.185 . S
O53 C52 1.160 . S
O54 Zn55 1.899 . S
O54 C62 1.284 . S
Zn55 O54 1.899 . S
Zn55 O56 2.032 . S
Zn55 O59 2.086 . S
Zn55 O64 1.977 . S
O56 Zn55 2.032 . S
O56 C60 1.278 . S
C57 O58 1.203 . S
C57 O64 1.267 . S
O58 C57 1.203 . S
O59 C52 1.185 . S
O59 Zn55 2.086 . S
C60 O56 1.278 . S
C60 O61 1.211 . S
O61 C60 1.211 . S
C62 O54 1.284 . S
C62 O63 1.273 . S
O63 C62 1.273 . S
O64 Zn55 1.977 . S
O64 C57 1.267 . S
C65 O66 1.160 . S
C65 O72 1.185 . S
O66 C65 1.160 . S
O67 Zn68 1.899 . S
O67 C75 1.284 . S
Zn68 O67 1.899 . S
Zn68 O69 2.032 . S
Zn68 O72 2.086 . S
Zn68 O77 1.977 . S
O69 Zn68 2.032 . S
O69 C73 1.278 . S
C70 O71 1.203 . S
C70 O77 1.267 . S
O71 C70 1.203 . S
O72 C65 1.185 . S
O72 Zn68 2.086 . S
C73 O69 1.278 . S
C73 O74 1.211 . S
O74 C73 1.211 . S
C75 O67 1.284 . S
C75 O76 1.273 . S
O76 C75 1.273 . S
O77 Zn68 1.977 . S
O77 C70 1.267 . S
C78 O79 1.160 . S
C78 O85 1.185 . S
O79 C78 1.160 . S
O80 Zn81 1.899 . S
O80 C88 1.284 . S
Zn81 O80 1.899 . S
Zn81 O82 2.032 . S
Zn81 O85 2.086 . S
Zn81 O90 1.977 . S
O82 Zn81 2.032 . S
O82 C86 1.278 . S
C83 O84 1.203 . S
C83 O90 1.267 . S
O84 C83 1.203 . S
O85 C78 1.185 . S
O85 Zn81 2.086 . S
C86 O82 1.278 . S
C86 O87 1.211 . S
O87 C86 1.211 . S
C88 O80 1.284 . S
C88 O89 1.273 . S
O89 C88 1.273 . S
O90 Zn81 1.977 . S
O90 C83 1.267 . S
C91 O92 1.160 . S
C91 O98 1.185 . S
O92 C91 1.160 . S
O93 Zn94 1.899 . S
O93 C101 1.284 . S
Zn94 O93 1.899 . S
Zn94 O95 2.032 . S
Zn94 O98 2.086 . S
Zn94 O103 1.977 . S
O95 Zn94 2.032 . S
O95 C99 1.278 . S
C96 O97 1.203 . S
C96 O103 1.267 . S
O97 C96 1.203 . S
O98 C91 1.185 . S
O98 Zn94 2.086 . S
C99 O95 1.278 . S
C99 O100 1.211 . S
O100 C99 1.211 . S
C101 O93 1.284 . S
C101 O102 1.273 . S
O102 C101 1.273 . S
O103 Zn94 1.977 . S
O103 C96 1.267 . S
H104 C110 0.930 . S
H105 C114 0.930 . S
H106 C119 0.929 . S
H107 C117 0.929 . S
H108 C112 0.929 . S
H109 C118 0.929 . S
C110 H104 0.930 . S
C110 C111 1.367 . S
C110 C118 1.378 . S
C111 C110 1.367 . S
C111 C119 1.433 . S
C112 H108 0.929 . S
C112 C114 1.378 . S
C112 C116 1.350 . S
C113 C116 1.463 . S
C113 C118 1.350 . S
C113 N121 1.427 . S
C114 H105 0.930 . S
C114 C112 1.378 . S
C114 C115 1.367 . S
C115 C114 1.367 . S
C115 C117 1.433 . S
C116 C112 1.350 . S
C116 C113 1.463 . S
C116 N120 1.427 . S
C117 H107 0.929 . S
C117 C115 1.433 . S
C117 N120 1.384 . S
C118 H109 0.929 . S
C118 C110 1.378 . S
C118 C113 1.350 . S
C119 H106 0.929 . S
C119 C111 1.433 . S
C119 N121 1.384 . S
N120 C116 1.427 . S
N120 C117 1.384 . S
N121 C113 1.427 . S
N121 C119 1.384 . S
H122 C128 0.930 . S
H123 C132 0.930 . S
H124 C137 0.929 . S
H125 C135 0.929 . S
H126 C130 0.929 . S
H127 C136 0.929 . S
C128 H122 0.930 . S
C128 C129 1.367 . S
C128 C136 1.378 . S
C129 C128 1.367 . S
C129 C137 1.433 . S
C130 H126 0.929 . S
C130 C132 1.378 . S
C130 C134 1.350 . S
C131 C134 1.463 . S
C131 C136 1.350 . S
C131 N139 1.427 . S
C132 H123 0.930 . S
C132 C130 1.378 . S
C132 C133 1.367 . S
C133 C132 1.367 . S
C133 C135 1.433 . S
C134 C130 1.350 . S
C134 C131 1.463 . S
C134 N138 1.427 . S
C135 H125 0.929 . S
C135 C133 1.433 . S
C135 N138 1.384 . S
C136 H127 0.929 . S
C136 C128 1.378 . S
C136 C131 1.350 . S
C137 H124 0.929 . S
C137 C129 1.433 . S
C137 N139 1.384 . S
N138 C134 1.427 . S
N138 C135 1.384 . S
N139 C131 1.427 . S
N139 C137 1.384 . S
H140 C146 0.930 . S
H141 C150 0.930 . S
H142 C155 0.929 . S
H143 C153 0.929 . S
H144 C148 0.929 1_545 S
H145 C154 0.929 1_565 S
C146 H140 0.930 . S
C146 C147 1.367 . S
C146 C154 1.378 . S
C147 C146 1.367 . S
C147 C155 1.433 . S
C148 H144 0.929 1_565 S
C148 C150 1.378 . S
C148 C152 1.350 . S
C149 C152 1.463 1_544 S
C149 C154 1.350 . S
C149 N157 1.427 1_554 S
C150 H141 0.930 . S
C150 C148 1.378 . S
C150 C151 1.367 . S
C151 C150 1.367 . S
C151 C153 1.433 . S
C152 C148 1.350 . S
C152 C149 1.463 1_566 S
C152 N156 1.427 1_556 S
C153 H143 0.929 . S
C153 C151 1.433 . S
C153 N156 1.384 1_556 S
C154 H145 0.929 1_545 S
C154 C146 1.378 . S
C154 C149 1.350 . S
C155 H142 0.929 . S
C155 C147 1.433 . S
C155 N157 1.384 1_554 S
N156 C152 1.427 1_554 S
N156 C153 1.384 1_554 S
N157 C149 1.427 1_556 S
N157 C155 1.384 1_556 S
H158 C164 0.930 . S
H159 C168 0.930 . S
H160 C173 0.929 . S
H161 C171 0.929 . S
H162 C166 0.929 . S
H163 C172 0.929 . S
C164 H158 0.930 . S
C164 C165 1.367 . S
C164 C172 1.378 . S
C165 C164 1.367 . S
C165 C173 1.433 . S
C166 H162 0.929 . S
C166 C168 1.378 . S
C166 C170 1.350 . S
C167 C170 1.463 1_655 S
C167 C172 1.350 . S
C167 N175 1.427 . S
C168 H159 0.930 . S
C168 C166 1.378 . S
C168 C169 1.367 . S
C169 C168 1.367 . S
C169 C171 1.433 . S
C170 C166 1.350 . S
C170 C167 1.463 1_455 S
C170 N174 1.427 . S
C171 H161 0.929 . S
C171 C169 1.433 . S
C171 N174 1.384 . S
C172 H163 0.929 . S
C172 C164 1.378 . S
C172 C167 1.350 . S
C173 H160 0.929 . S
C173 C165 1.433 . S
C173 N175 1.384 . S
N174 C170 1.427 . S
N174 C171 1.384 . S
N175 C167 1.427 . S
N175 C173 1.384 . S
H176 C182 0.930 . S
H177 C186 0.930 . S
H178 C191 0.929 . S
H179 C189 0.929 . S
H180 C184 0.929 1_565 S
H181 C190 0.929 . S
C182 H176 0.930 . S
C182 C183 1.367 . S
C182 C190 1.378 1_565 S
C183 C182 1.367 . S
C183 C191 1.433 . S
C184 H180 0.929 1_545 S
C184 C186 1.378 . S
C184 C188 1.350 . S
C185 C188 1.463 1_565 S
C185 C190 1.350 1_565 S
C185 N193 1.427 . S
C186 H177 0.930 . S
C186 C184 1.378 . S
C186 C187 1.367 . S
C187 C186 1.367 . S
C187 C189 1.433 . S
C188 C184 1.350 . S
C188 C185 1.463 1_545 S
C188 N192 1.427 . S
C189 H179 0.929 . S
C189 C187 1.433 . S
C189 N192 1.384 . S
C190 H181 0.929 . S
C190 C182 1.378 1_545 S
C190 C185 1.350 1_545 S
C191 H178 0.929 . S
C191 C183 1.433 . S
C191 N193 1.384 . S
N192 C188 1.427 . S
N192 C189 1.384 . S
N193 C185 1.427 . S
N193 C191 1.384 . S
H194 C200 0.930 . S
H195 C204 0.930 . S
H196 C209 0.929 . S
H197 C207 0.929 . S
H198 C202 0.929 . S
H199 C208 0.929 . S
C200 H194 0.930 . S
C200 C201 1.367 . S
C200 C208 1.378 . S
C201 C200 1.367 . S
C201 C209 1.433 . S
C202 H198 0.929 . S
C202 C204 1.378 . S
C202 C206 1.350 . S
C203 C206 1.463 1_656 S
C203 C208 1.350 . S
C203 N211 1.427 . S
C204 H195 0.930 . S
C204 C202 1.378 . S
C204 C205 1.367 . S
C205 C204 1.367 . S
C205 C207 1.433 . S
C206 C202 1.350 . S
C206 C203 1.463 1_454 S
C206 N210 1.427 . S
C207 H197 0.929 . S
C207 C205 1.433 . S
C207 N210 1.384 . S
C208 H199 0.929 . S
C208 C200 1.378 . S
C208 C203 1.350 . S
C209 H196 0.929 . S
C209 C201 1.433 . S
C209 N211 1.384 . S
N210 C206 1.427 . S
N210 C207 1.384 . S
N211 C203 1.427 . S
N211 C209 1.384 . S
H212 C218 0.930 . S
H213 C222 0.930 . S
H214 C227 0.929 . S
H215 C225 0.929 . S
H216 C220 0.929 . S
H217 C226 0.929 . S
C218 H212 0.930 . S
C218 C219 1.367 . S
C218 C226 1.378 . S
C219 C218 1.367 . S
C219 C227 1.433 . S
C220 H216 0.929 . S
C220 C222 1.378 . S
C220 C224 1.350 . S
C221 C224 1.463 . S
C221 C226 1.350 . S
C221 N229 1.427 . S
C222 H213 0.930 . S
C222 C220 1.378 . S
C222 C223 1.367 . S
C223 C222 1.367 . S
C223 C225 1.433 . S
C224 C220 1.350 . S
C224 C221 1.463 . S
C224 N228 1.427 . S
C225 H215 0.929 . S
C225 C223 1.433 . S
C225 N228 1.384 . S
C226 H217 0.929 . S
C226 C218 1.378 . S
C226 C221 1.350 . S
C227 H214 0.929 . S
C227 C219 1.433 . S
C227 N229 1.384 . S
N228 C224 1.427 . S
N228 C225 1.384 . S
N229 C221 1.427 . S
N229 C227 1.384 . S
H230 C236 0.930 . S
H231 C240 0.930 . S
H232 C245 0.929 . S
H233 C243 0.929 . S
H234 C238 0.929 . S
H235 C244 0.929 . S
C236 H230 0.930 . S
C236 C237 1.367 . S
C236 C244 1.378 . S
C237 C236 1.367 . S
C237 C245 1.433 . S
C238 H234 0.929 . S
C238 C240 1.378 . S
C238 C242 1.350 . S
C239 C242 1.463 . S
C239 C244 1.350 . S
C239 N247 1.427 . S
C240 H231 0.930 . S
C240 C238 1.378 . S
C240 C241 1.367 . S
C241 C240 1.367 . S
C241 C243 1.433 . S
C242 C238 1.350 . S
C242 C239 1.463 . S
C242 N246 1.427 . S
C243 H233 0.929 . S
C243 C241 1.433 . S
C243 N246 1.384 . S
C244 H235 0.929 . S
C244 C236 1.378 . S
C244 C239 1.350 . S
C245 H232 0.929 . S
C245 C237 1.433 . S
C245 N247 1.384 . S
N246 C242 1.427 . S
N246 C243 1.384 . S
N247 C239 1.427 . S
N247 C245 1.384 . S
H248 C254 0.930 . S
H249 C258 0.930 . S
H250 C263 0.929 . S
H251 C261 0.929 . S
H252 C256 0.929 . S
H253 C262 0.929 . S
C254 H248 0.930 . S
C254 C255 1.367 . S
C254 C262 1.378 . S
C255 C254 1.367 . S
C255 C263 1.433 . S
C256 H252 0.929 . S
C256 C258 1.378 . S
C256 C260 1.350 . S
C257 C260 1.463 . S
C257 C262 1.350 . S
C257 N265 1.427 . S
C258 H249 0.930 . S
C258 C256 1.378 . S
C258 C259 1.367 . S
C259 C258 1.367 . S
C259 C261 1.433 . S
C260 C256 1.350 . S
C260 C257 1.463 . S
C260 N264 1.427 . S
C261 H251 0.929 . S
C261 C259 1.433 . S
C261 N264 1.384 . S
C262 H253 0.929 . S
C262 C254 1.378 . S
C262 C257 1.350 . S
C263 H250 0.929 . S
C263 C255 1.433 . S
C263 N265 1.384 . S
N264 C260 1.427 . S
N264 C261 1.384 . S
N265 C257 1.427 . S
N265 C263 1.384 . S
H266 C272 0.930 . S
H267 C276 0.930 . S
H268 C281 0.929 . S
H269 C279 0.929 . S
H270 C274 0.929 . S
H271 C280 0.928 . S
C272 H266 0.930 . S
C272 C273 1.367 . S
C272 C280 1.378 1_556 S
C273 C272 1.367 . S
C273 C281 1.433 . S
C274 H270 0.929 . S
C274 C276 1.378 1_556 S
C274 C278 1.350 1_556 S
C275 C278 1.463 1_556 S
C275 C280 1.350 1_556 S
C275 N283 1.427 . S
C276 H267 0.930 . S
C276 C274 1.378 1_554 S
C276 C277 1.367 . S
C277 C276 1.367 . S
C277 C279 1.433 . S
C278 C274 1.350 1_554 S
C278 C275 1.463 1_554 S
C278 N282 1.427 . S
C279 H269 0.929 . S
C279 C277 1.433 . S
C279 N282 1.384 . S
C280 H271 0.928 . S
C280 C272 1.378 1_554 S
C280 C275 1.350 1_554 S
C281 H268 0.929 . S
C281 C273 1.433 . S
C281 N283 1.384 . S
N282 C278 1.427 . S
N282 C279 1.384 . S
N283 C275 1.427 . S
N283 C281 1.384 . S
H284 C290 0.930 . S
H285 C294 0.930 . S
H286 C299 0.929 . S
H287 C297 0.929 . S
H288 C292 0.929 . S
H289 C298 0.929 . S
C290 H284 0.930 . S
C290 C291 1.367 . S
C290 C298 1.378 . S
C291 C290 1.367 . S
C291 C299 1.433 . S
C292 H288 0.929 . S
C292 C294 1.378 . S
C292 C296 1.350 . S
C293 C296 1.463 1_565 S
C293 C298 1.350 . S
C293 N301 1.427 1_565 S
C294 H285 0.930 . S
C294 C292 1.378 . S
C294 C295 1.367 . S
C295 C294 1.367 . S
C295 C297 1.433 . S
C296 C292 1.350 . S
C296 C293 1.463 1_545 S
C296 N300 1.427 1_545 S
C297 H287 0.929 . S
C297 C295 1.433 . S
C297 N300 1.384 1_545 S
C298 H289 0.929 . S
C298 C290 1.378 . S
C298 C293 1.350 . S
C299 H286 0.929 . S
C299 C291 1.433 . S
C299 N301 1.384 1_565 S
N300 C296 1.427 1_565 S
N300 C297 1.384 1_565 S
N301 C293 1.427 1_545 S
N301 C299 1.384 1_545 S
H302 C308 0.930 . S
H303 C312 0.930 . S
H304 C317 0.929 . S
H305 C315 0.929 . S
H306 C310 0.929 . S
H307 C316 0.929 . S
C308 H302 0.930 . S
C308 C309 1.367 . S
C308 C316 1.378 . S
C309 C308 1.367 . S
C309 C317 1.433 . S
C310 H306 0.929 . S
C310 C312 1.378 . S
C310 C314 1.350 . S
C311 C314 1.463 1_665 S
C311 C316 1.350 . S
C311 N319 1.427 1_565 S
C312 H303 0.930 . S
C312 C310 1.378 . S
C312 C313 1.367 . S
C313 C312 1.367 . S
C313 C315 1.433 . S
C314 C310 1.350 . S
C314 C311 1.463 1_445 S
C314 N318 1.427 1_545 S
C315 H305 0.929 . S
C315 C313 1.433 . S
C315 N318 1.384 1_545 S
C316 H307 0.929 . S
C316 C308 1.378 . S
C316 C311 1.350 . S
C317 H304 0.929 . S
C317 C309 1.433 . S
C317 N319 1.384 1_565 S
N318 C314 1.427 1_565 S
N318 C315 1.384 1_565 S
N319 C311 1.427 1_545 S
N319 C317 1.384 1_545 S
H320 C326 0.930 . S
H321 C330 0.930 . S
H322 C335 0.929 . S
H323 C333 0.929 . S
H324 C328 0.929 1_655 S
H325 C334 0.929 1_455 S
C326 H320 0.930 . S
C326 C327 1.367 . S
C326 C334 1.378 . S
C327 C326 1.367 . S
C327 C335 1.433 . S
C328 H324 0.929 1_455 S
C328 C330 1.378 . S
C328 C332 1.350 . S
C329 C332 1.463 1_655 S
C329 C334 1.350 . S
C329 N337 1.427 . S
C330 H321 0.930 . S
C330 C328 1.378 . S
C330 C331 1.367 . S
C331 C330 1.367 . S
C331 C333 1.433 . S
C332 C328 1.350 . S
C332 C329 1.463 1_455 S
C332 N336 1.427 . S
C333 H323 0.929 . S
C333 C331 1.433 . S
C333 N336 1.384 . S
C334 H325 0.929 1_655 S
C334 C326 1.378 . S
C334 C329 1.350 . S
C335 H322 0.929 . S
C335 C327 1.433 . S
C335 N337 1.384 . S
N336 C332 1.427 . S
N336 C333 1.384 . S
N337 C329 1.427 . S
N337 C335 1.384 . S
H338 C344 0.930 . S
H339 C348 0.930 . S
H340 C353 0.929 . S
H341 C351 0.929 . S
H342 C346 0.929 . S
H343 C352 0.929 . S
C344 H338 0.930 . S
C344 C345 1.367 . S
C344 C352 1.378 . S
C345 C344 1.367 . S
C345 C353 1.433 . S
C346 H342 0.929 . S
C346 C348 1.378 . S
C346 C350 1.350 . S
C347 C350 1.463 . S
C347 C352 1.350 . S
C347 N355 1.427 . S
C348 H339 0.930 . S
C348 C346 1.378 . S
C348 C349 1.367 . S
C349 C348 1.367 . S
C349 C351 1.433 . S
C350 C346 1.350 . S
C350 C347 1.463 . S
C350 N354 1.427 . S
C351 H341 0.929 . S
C351 C349 1.433 . S
C351 N354 1.384 . S
C352 H343 0.929 . S
C352 C344 1.378 . S
C352 C347 1.350 . S
C353 H340 0.929 . S
C353 C345 1.433 . S
C353 N355 1.384 . S
N354 C350 1.427 . S
N354 C351 1.384 . S
N355 C347 1.427 . S
N355 C353 1.384 . S
H356 C362 0.930 . S
H357 C366 0.930 . S
H358 C371 0.929 . S
H359 C369 0.929 . S
H360 C364 0.929 . S
H361 C370 0.929 . S
C362 H356 0.930 . S
C362 C363 1.367 . S
C362 C370 1.378 . S
C363 C362 1.367 . S
C363 C371 1.433 . S
C364 H360 0.929 . S
C364 C366 1.378 . S
C364 C368 1.350 . S
C365 C368 1.463 1_554 S
C365 C370 1.350 . S
C365 N373 1.427 . S
C366 H357 0.930 . S
C366 C364 1.378 . S
C366 C367 1.367 . S
C367 C366 1.367 . S
C367 C369 1.433 . S
C368 C364 1.350 . S
C368 C365 1.463 1_556 S
C368 N372 1.427 . S
C369 H359 0.929 . S
C369 C367 1.433 . S
C369 N372 1.384 . S
C370 H361 0.929 . S
C370 C362 1.378 . S
C370 C365 1.350 . S
C371 H358 0.929 . S
C371 C363 1.433 . S
C371 N373 1.384 . S
N372 C368 1.427 . S
N372 C369 1.384 . S
N373 C365 1.427 . S
N373 C371 1.384 . S
H374 C380 0.930 . S
H375 C384 0.930 . S
H376 C389 0.929 . S
H377 C387 0.929 . S
H378 C382 0.929 . S
H379 C388 0.929 . S
C380 H374 0.930 . S
C380 C381 1.367 . S
C380 C388 1.378 . S
C381 C380 1.367 . S
C381 C389 1.433 . S
C382 H378 0.929 . S
C382 C384 1.378 . S
C382 C386 1.350 . S
C383 C386 1.463 . S
C383 C388 1.350 . S
C383 N391 1.427 . S
C384 H375 0.930 . S
C384 C382 1.378 . S
C384 C385 1.367 . S
C385 C384 1.367 . S
C385 C387 1.433 . S
C386 C382 1.350 . S
C386 C383 1.463 . S
C386 N390 1.427 . S
C387 H377 0.929 . S
C387 C385 1.433 . S
C387 N390 1.384 . S
C388 H379 0.929 . S
C388 C380 1.378 . S
C388 C383 1.350 . S
C389 H376 0.929 . S
C389 C381 1.433 . S
C389 N391 1.384 . S
N390 C386 1.427 . S
N390 C387 1.384 . S
N391 C383 1.427 . S
N391 C389 1.384 . S
C111 C75 1.484 . S
C115 C5 1.474 . S
C129 C101 1.483 . S
C133 C18 1.475 . S
C147 C34 1.478 . S
C151 C86 1.471 . S
C165 C39 1.484 . S
C169 C52 1.476 . S
C183 C83 1.476 . S
C187 C10 1.482 . S
C201 C21 1.468 . S
C205 C60 1.472 . S
C219 C65 1.484 . S
C223 C26 1.476 . S
C237 C49 1.488 . S
C241 C96 1.483 . S
C255 C62 1.488 . S
C259 C70 1.482 . S
C273 C23 1.483 . S
C277 C31 1.481 . S
C291 C44 1.477 . S
C295 C36 1.490 . S
C309 C47 1.477 . S
C313 C8 1.470 . S
C327 C13 1.485 . S
C331 C0 1.479 . S
C345 C91 1.485 . S
C349 C78 1.480 . S
C363 C57 1.474 . S
C367 C88 1.488 . S
C381 C73 1.478 . S
C385 C99 1.471 . S
