# Generated by pormake.
# Topology uog, (4)-cn, num edge types: 1
# Building blocks:
#     Node 0, Type 0, BuildingBlock: CEKHIL_clean_sbu_0, # of connection points: 4
#     Node 1, Type 0, BuildingBlock: CEKHIL_clean_sbu_0, # of connection points: 4
#     Node 2, Type 0, BuildingBlock: CEKHIL_clean_sbu_0, # of connection points: 4
#     Node 3, Type 0, BuildingBlock: CEKHIL_clean_sbu_0, # of connection points: 4
#     Node 4, Type 0, BuildingBlock: CEKHIL_clean_sbu_0, # of connection points: 4
#     Node 5, Type 0, BuildingBlock: CEKHIL_clean_sbu_0, # of connection points: 4
#     Edge 6, Type (0, 0), BuildingBlock: EZIPEK_clean_linker_0, # of connection points: 2
#     Edge 7, Type (0, 0), BuildingBlock: EZIPEK_clean_linker_0, # of connection points: 2
#     Edge 8, Type (0, 0), BuildingBlock: EZIPEK_clean_linker_0, # of connection points: 2
#     Edge 9, Type (0, 0), BuildingBlock: EZIPEK_clean_linker_0, # of connection points: 2
#     Edge 10, Type (0, 0), BuildingBlock: EZIPEK_clean_linker_0, # of connection points: 2
#     Edge 11, Type (0, 0), BuildingBlock: EZIPEK_clean_linker_0, # of connection points: 2
#     Edge 12, Type (0, 0), BuildingBlock: EZIPEK_clean_linker_0, # of connection points: 2
#     Edge 13, Type (0, 0), BuildingBlock: EZIPEK_clean_linker_0, # of connection points: 2
#     Edge 14, Type (0, 0), BuildingBlock: EZIPEK_clean_linker_0, # of connection points: 2
#     Edge 15, Type (0, 0), BuildingBlock: EZIPEK_clean_linker_0, # of connection points: 2
#     Edge 16, Type (0, 0), BuildingBlock: EZIPEK_clean_linker_0, # of connection points: 2
#     Edge 17, Type (0, 0), BuildingBlock: EZIPEK_clean_linker_0, # of connection points: 2
# Relax obj value: 0.070
# Max RMSD: 0.166
# Mean RMSD: 0.166
data_MOF--net-uog--node1-CEKHIL_clean_sbu_0--edge1-EZIPEK_clean_linker_0
_symmetry_space_group_name_H-M    P1
_symmetry_Int_Tables_number       1
_symmetry_cell_setting            triclinic
loop_
_symmetry_equiv_pos_as_xyz
'x, y, z'
_cell_length_a     20.86409
_cell_length_b     20.858657
_cell_length_c     30.595042
_cell_angle_alpha  89.762587
_cell_angle_beta   90.307665
_cell_angle_gamma 119.98409
loop_
_atom_site_label
_atom_site_type_symbol
_atom_site_fract_x
_atom_site_fract_y
_atom_site_fract_z
_atom_type_partial_charge
Co0 Co 0.60586 0.27577 0.15913 0.0
O1 O 0.6287 0.19734 0.15577 0.0
O2 O 0.51901 0.18319 0.14014 0.0
C3 C 0.6564 0.31145 0.2259 0.0
O4 O 0.5635 0.34713 0.16131 0.0
Co5 Co 0.7309 0.43496 0.16293 0.0
O6 O 0.65588 0.45959 0.18133 0.0
C7 C 0.67826 0.36473 0.07729 0.0
C8 C 0.56092 0.15354 0.14437 0.0
C9 C 0.58806 0.41508 0.17342 0.0
O10 O 0.63684 0.30337 0.09691 0.0
O11 O 0.71995 0.425 0.09768 0.0
O12 O 0.58868 0.25915 0.22056 0.0
O13 O 0.69497 0.33885 0.19055 0.0
Co14 Co 0.33532 0.60473 0.50103 0.0
O15 O 0.43895 0.63687 0.50143 0.0
O16 O 0.35455 0.5282 0.47778 0.0
C17 C 0.33425 0.63572 0.57192 0.0
O18 O 0.22162 0.55693 0.49669 0.0
Co19 Co 0.29844 0.72529 0.50932 0.0
O20 O 0.19499 0.6458 0.51445 0.0
C21 C 0.33481 0.69586 0.42296 0.0
C22 C 0.42455 0.57413 0.48563 0.0
C23 C 0.17507 0.57932 0.50476 0.0
O24 O 0.34732 0.64805 0.44128 0.0
O25 O 0.31536 0.73579 0.44434 0.0
O26 O 0.32271 0.57138 0.5604 0.0
O27 O 0.35152 0.68346 0.54019 0.0
Co28 Co 0.71993 0.31837 0.82665 0.0
O29 O 0.79756 0.41985 0.82366 0.0
O30 O 0.81299 0.325 0.80863 0.0
C31 C 0.68183 0.33054 0.89329 0.0
O32 O 0.65062 0.20519 0.82894 0.0
Co33 Co 0.56104 0.28526 0.82758 0.0
O34 O 0.53409 0.18184 0.83878 0.0
C35 C 0.63758 0.31885 0.74389 0.0
C36 C 0.84189 0.39639 0.81284 0.0
C37 C 0.58085 0.16007 0.83531 0.0
O38 O 0.6937 0.32332 0.76401 0.0
O39 O 0.5785 0.30659 0.76341 0.0
O40 O 0.7349 0.31621 0.88834 0.0
O41 O 0.65563 0.34292 0.85762 0.0
Co42 Co 0.42394 0.72376 0.16822 0.0
O43 O 0.40909 0.80732 0.16476 0.0
O44 O 0.511 0.80944 0.14323 0.0
C45 C 0.3846 0.6982 0.23816 0.0
O46 O 0.45735 0.64539 0.16854 0.0
Co47 Co 0.29053 0.57151 0.17915 0.0
O48 O 0.36031 0.5349 0.18718 0.0
C49 C 0.32587 0.63572 0.09152 0.0
C50 C 0.47454 0.84459 0.14849 0.0
C51 C 0.4283 0.57582 0.17821 0.0
O52 O 0.38061 0.69311 0.10838 0.0
O53 O 0.28076 0.57972 0.11422 0.0
O54 O 0.45287 0.74473 0.22866 0.0
O55 O 0.3397 0.67028 0.20505 0.0
Co56 Co 0.70881 0.42665 0.49179 0.0
O57 O 0.61269 0.41765 0.4889 0.0
O58 O 0.7159 0.51719 0.46877 0.0
C59 C 0.69281 0.38177 0.56033 0.0
O60 O 0.81857 0.45449 0.49225 0.0
Co61 Co 0.71758 0.28773 0.49629 0.0
O62 O 0.82468 0.35154 0.50565 0.0
C63 C 0.68727 0.33127 0.41138 0.0
C64 C 0.64429 0.48427 0.47372 0.0
C65 C 0.85556 0.42097 0.49983 0.0
O66 O 0.69577 0.3887 0.43091 0.0
O67 O 0.69309 0.28112 0.43216 0.0
O68 O 0.71751 0.45134 0.55264 0.0
O69 O 0.67338 0.33892 0.52619 0.0
Co70 Co 0.27045 0.69055 0.8384 0.0
O71 O 0.18687 0.5924 0.83604 0.0
O72 O 0.18363 0.69263 0.81574 0.0
C73 C 0.30148 0.67673 0.90731 0.0
O74 O 0.34887 0.80168 0.83798 0.0
Co75 Co 0.42325 0.70675 0.84552 0.0
O76 O 0.4606 0.81347 0.85163 0.0
C77 C 0.35333 0.68136 0.75934 0.0
C78 C 0.14893 0.62095 0.82089 0.0
C79 C 0.41939 0.84121 0.84497 0.0
O80 O 0.2972 0.67924 0.7774 0.0
O81 O 0.40959 0.68938 0.78083 0.0
O82 O 0.25382 0.69796 0.89959 0.0
O83 O 0.3263 0.65947 0.87311 0.0
C84 C 0.51492 0.03232 0.10381 0.0
C85 C 0.53283 0.07245 0.14364 0.0
C86 C 0.53288 0.96893 0.18184 0.0
C87 C 0.50749 0.92574 0.14344 0.0
N88 N 0.46674 0.9123 0.06859 0.0
N89 N 0.54 0.07143 0.22224 0.0
C90 C 0.4964 0.95634 0.10448 0.0
C91 C 0.53663 0.03858 0.18311 0.0
N92 N 0.51733 0.06718 0.06545 0.0
N93 N 0.55373 0.94333 0.21721 0.0
H94 H 0.53816 0.12029 0.22451 0.0
H95 H 0.53585 0.04611 0.25234 0.0
H96 H 0.55254 0.89273 0.21707 0.0
H97 H 0.57918 0.97536 0.24479 0.0
H98 H 0.51231 0.04346 0.03483 0.0
H99 H 0.52858 0.12185 0.06427 0.0
H100 H 0.4497 0.92854 0.04068 0.0
H101 H 0.45598 0.85776 0.06769 0.0
C102 C 0.55373 0.59375 0.50229 0.0
C103 C 0.48618 0.55789 0.4774 0.0
C104 C 0.53078 0.48168 0.44258 0.0
C105 C 0.59869 0.51996 0.46611 0.0
N106 N 0.68347 0.63104 0.5051 0.0
N107 N 0.42788 0.48908 0.41146 0.0
C108 C 0.61334 0.58266 0.49099 0.0
C109 C 0.47974 0.50816 0.44375 0.0
N110 N 0.56081 0.63426 0.53885 0.0
N111 N 0.5143 0.41955 0.4193 0.0
H112 H 0.39429 0.51267 0.40845 0.0
H113 H 0.42526 0.4577 0.38437 0.0
H114 H 0.55133 0.40025 0.41556 0.0
H115 H 0.46207 0.38497 0.40593 0.0
H116 H 0.60559 0.6526 0.56028 0.0
H117 H 0.52009 0.64322 0.55135 0.0
H118 H 0.69753 0.68145 0.51977 0.0
H119 H 0.7292 0.62591 0.49749 0.0
C120 C 0.95649 0.48108 0.85358 0.0
C121 C 0.92266 0.44954 0.81295 0.0
C122 C 0.03738 0.53709 0.77514 0.0
C123 C 0.06802 0.5724 0.81568 0.0
N124 N 0.05101 0.58854 0.89172 0.0
N125 N 0.92679 0.45191 0.73431 0.0
C126 C 0.02551 0.54768 0.8543 0.0
C127 C 0.96195 0.47878 0.77337 0.0
N128 N 0.92397 0.44545 0.89164 0.0
N129 N 0.08094 0.55803 0.73876 0.0
H130 H 0.87264 0.40766 0.73222 0.0
H131 H 0.94968 0.47577 0.70427 0.0
H132 H 0.13511 0.6025 0.73886 0.0
H133 H 0.06476 0.52939 0.70928 0.0
H134 H 0.94925 0.46214 0.92216 0.0
H135 H 0.87525 0.39441 0.89216 0.0
H136 H 0.01941 0.57695 0.91997 0.0
H137 H 0.10101 0.63851 0.89299 0.0
C138 C 0.05668 0.53718 0.46351 0.0
C139 C 0.09409 0.52923 0.50032 0.0
C140 C 0.97569 0.45942 0.53863 0.0
C141 C 0.93782 0.46276 0.50065 0.0
N142 N 0.94107 0.49164 0.42393 0.0
N143 N 0.08943 0.47413 0.57027 0.0
C144 C 0.97795 0.49798 0.4622 0.0
C145 C 0.05344 0.4871 0.53695 0.0
N146 N 0.09643 0.58428 0.43033 0.0
N147 N 0.93775 0.43294 0.57692 0.0
H148 H 0.14643 0.49463 0.57008 0.0
H149 H 0.06237 0.43809 0.59609 0.0
H150 H 0.88133 0.41443 0.57971 0.0
H151 H 0.96305 0.43564 0.60681 0.0
H152 H 0.0725 0.59941 0.40535 0.0
H153 H 0.15408 0.61249 0.42938 0.0
H154 H 0.96741 0.50891 0.39383 0.0
H155 H 0.88351 0.46346 0.42145 0.0
C156 C 0.46061 0.96524 0.87879 0.0
C157 C 0.458 0.92307 0.84193 0.0
C158 C 0.55114 0.03595 0.80447 0.0
C159 C 0.55061 0.07878 0.84025 0.0
N160 N 0.51995 0.08497 0.91517 0.0
N161 N 0.49468 0.91624 0.76838 0.0
C162 C 0.50928 0.04342 0.87849 0.0
C163 C 0.50197 0.95794 0.80449 0.0
N164 N 0.41571 0.93028 0.91371 0.0
N165 N 0.60038 0.06952 0.77124 0.0
H166 H 0.46025 0.85894 0.76753 0.0
H167 H 0.51821 0.93812 0.73816 0.0
H168 H 0.63921 0.12562 0.77124 0.0
H169 H 0.6084 0.04146 0.74577 0.0
H170 H 0.40967 0.95743 0.94043 0.0
H171 H 0.38041 0.87309 0.91496 0.0
H172 H 0.49592 0.06359 0.94534 0.0
H173 H 0.55871 0.14139 0.91643 0.0
C174 C 0.50133 0.52532 0.21544 0.0
C175 C 0.47266 0.53805 0.17625 0.0
C176 C 0.5154 0.46551 0.13519 0.0
C177 C 0.53911 0.44796 0.17478 0.0
N178 N 0.54599 0.45235 0.25337 0.0
N179 N 0.43796 0.50723 0.10062 0.0
C180 C 0.52944 0.47538 0.2152 0.0
C181 C 0.4754 0.50423 0.13665 0.0
N182 N 0.50254 0.56189 0.25269 0.0
N183 N 0.53459 0.44892 0.09596 0.0
H184 H 0.4083 0.53526 0.10026 0.0
H185 H 0.43111 0.47675 0.07234 0.0
H186 H 0.56496 0.42186 0.09343 0.0
H187 H 0.52617 0.46777 0.06609 0.0
H188 H 0.52888 0.56087 0.28145 0.0
H189 H 0.48187 0.59826 0.25387 0.0
H190 H 0.53437 0.46466 0.28423 0.0
H191 H 0.56587 0.4153 0.25414 0.0
C192 C 0.73785 0.40785 0.95855 0.0
C193 C 0.67279 0.35512 0.93689 0.0
C194 C 0.60669 0.32611 0.00626 0.0
C195 C 0.67593 0.36526 0.02877 0.0
N196 N 0.81002 0.43386 0.02438 0.0
N197 N 0.54331 0.26468 0.93932 0.0
C198 C 0.74235 0.40463 0.00448 0.0
C199 C 0.60622 0.31498 0.9604 0.0
N200 N 0.79559 0.46059 0.93496 0.0
N201 N 0.54159 0.30161 0.02817 0.0
H202 H 0.54051 0.25947 0.90543 0.0
H203 H 0.49547 0.22637 0.95553 0.0
H204 H 0.53888 0.3106 0.06138 0.0
H205 H 0.4904 0.27899 0.01254 0.0
H206 H 0.84252 0.50403 0.94941 0.0
H207 H 0.79207 0.46531 0.90119 0.0
H208 H 0.8594 0.45707 0.00691 0.0
H209 H 0.817 0.42719 0.05749 0.0
C210 C 0.31612 0.62929 0.30612 0.0
C211 C 0.35845 0.69686 0.28343 0.0
C212 C 0.38112 0.76598 0.35193 0.0
C213 C 0.33733 0.69854 0.37451 0.0
N214 N 0.24498 0.56852 0.37066 0.0
N215 N 0.40778 0.82918 0.28234 0.0
C216 C 0.29899 0.63095 0.35079 0.0
C217 C 0.38355 0.76519 0.30561 0.0
N218 N 0.2953 0.56351 0.28592 0.0
N219 N 0.42373 0.83013 0.37444 0.0
H220 H 0.40591 0.82999 0.24831 0.0
H221 H 0.42102 0.87957 0.2967 0.0
H222 H 0.42518 0.83311 0.40845 0.0
H223 H 0.4628 0.87903 0.35939 0.0
H224 H 0.27289 0.51321 0.30254 0.0
H225 H 0.30519 0.55982 0.25306 0.0
H226 H 0.21022 0.51997 0.35375 0.0
H227 H 0.22961 0.56732 0.40313 0.0
C228 C 0.66608 0.28566 0.67052 0.0
C229 C 0.64199 0.32689 0.69564 0.0
C230 C 0.62763 0.3818 0.62844 0.0
C231 C 0.66643 0.35317 0.605 0.0
N232 N 0.72714 0.28051 0.60478 0.0
N233 N 0.61106 0.42422 0.6984 0.0
C234 C 0.6864 0.30518 0.62617 0.0
C235 C 0.62516 0.37734 0.67461 0.0
N236 N 0.66704 0.22621 0.68859 0.0
N237 N 0.59138 0.41158 0.60657 0.0
H238 H 0.61219 0.4258 0.73244 0.0
H239 H 0.60598 0.46699 0.68419 0.0
H240 H 0.58793 0.41153 0.57258 0.0
H241 H 0.55726 0.42758 0.62211 0.0
H242 H 0.67775 0.19019 0.67073 0.0
H243 H 0.64874 0.2082 0.72025 0.0
H244 H 0.75084 0.25286 0.62041 0.0
H245 H 0.74156 0.29216 0.57204 0.0
C246 C 0.2429 0.6139 0.97754 0.0
C247 C 0.30825 0.65383 0.95236 0.0
C248 C 0.38133 0.65969 0.01652 0.0
C249 C 0.3176 0.63505 0.04329 0.0
N250 N 0.18826 0.59977 0.04867 0.0
N251 N 0.44169 0.72019 0.9493 0.0
C252 C 0.24819 0.6144 0.02371 0.0
C253 C 0.37814 0.67759 0.97205 0.0
N254 N 0.17582 0.57385 0.95733 0.0
N255 N 0.44446 0.66434 0.03315 0.0
H256 H 0.44179 0.73374 0.91664 0.0
H257 H 0.49393 0.74658 0.96385 0.0
H258 H 0.44874 0.64966 0.06516 0.0
H259 H 0.48978 0.67505 0.01386 0.0
H260 H 0.12726 0.53923 0.97424 0.0
H261 H 0.17052 0.56799 0.92346 0.0
H262 H 0.13874 0.59173 0.03525 0.0
H263 H 0.19002 0.60346 0.08264 0.0
C264 C 0.65931 0.25977 0.34052 0.0
C265 C 0.67757 0.32695 0.36239 0.0
C266 C 0.70813 0.39145 0.29119 0.0
C267 C 0.68827 0.32431 0.27035 0.0
N268 N 0.6715 0.20239 0.27482 0.0
N269 N 0.68883 0.44898 0.35337 0.0
C270 C 0.67278 0.26113 0.29514 0.0
C271 C 0.69453 0.39136 0.33659 0.0
N272 N 0.62043 0.19338 0.36163 0.0
N273 N 0.74044 0.45546 0.26751 0.0
H274 H 0.66362 0.44689 0.38281 0.0
H275 H 0.69586 0.49394 0.33476 0.0
H276 H 0.7535 0.45618 0.23465 0.0
H277 H 0.76311 0.50784 0.28149 0.0
H278 H 0.60098 0.14252 0.34617 0.0
H279 H 0.59714 0.18838 0.39239 0.0
H280 H 0.66728 0.15685 0.29157 0.0
H281 H 0.68309 0.20375 0.24154 0.0
C282 C 0.33412 0.71799 0.6839 0.0
C283 C 0.35203 0.67376 0.71124 0.0
C284 C 0.37681 0.62207 0.64674 0.0
C285 C 0.34652 0.65593 0.61926 0.0
N286 N 0.28474 0.72775 0.61421 0.0
N287 N 0.37211 0.56969 0.71777 0.0
C288 C 0.32231 0.70206 0.63843 0.0
C289 C 0.36818 0.62182 0.69245 0.0
N290 N 0.33034 0.77649 0.7009 0.0
N291 N 0.41671 0.59253 0.62974 0.0
H292 H 0.36247 0.56478 0.75134 0.0
H293 H 0.37646 0.52604 0.70452 0.0
H294 H 0.4293 0.5953 0.59682 0.0
H295 H 0.4452 0.57371 0.64914 0.0
H296 H 0.32508 0.81482 0.68152 0.0
H297 H 0.33995 0.79125 0.73378 0.0
H298 H 0.2588 0.75448 0.62794 0.0
H299 H 0.27341 0.71645 0.58117 0.0
loop_
_geom_bond_atom_site_label_1
_geom_bond_atom_site_label_2
_geom_bond_distance
_geom_bond_site_symmetry_2
_ccdc_geom_bond_type
Co0 O1 2.216 . S
Co0 O2 2.091 . S
Co0 O4 2.004 . S
Co0 O10 2.021 . S
Co0 O12 2.137 . S
Co0 O13 2.244 . S
O1 Co0 2.216 . S
O1 C8 1.247 . S
O2 Co0 2.091 . S
O2 C8 1.261 . S
C3 O12 1.247 . S
C3 O13 1.272 . S
O4 Co0 2.004 . S
O4 C9 1.259 . S
Co5 O6 2.061 . S
Co5 O11 2.052 . S
Co5 O13 2.135 . S
O6 Co5 2.061 . S
O6 C9 1.235 . S
C7 O10 1.238 . S
C7 O11 1.241 . S
C8 O1 1.247 . S
C8 O2 1.261 . S
C9 O4 1.259 . S
C9 O6 1.235 . S
O10 Co0 2.021 . S
O10 C7 1.238 . S
O11 Co5 2.052 . S
O11 C7 1.241 . S
O12 Co0 2.137 . S
O12 C3 1.247 . S
O13 Co0 2.244 . S
O13 C3 1.272 . S
O13 Co5 2.135 . S
Co14 O15 2.216 . S
Co14 O16 2.091 . S
Co14 O18 2.004 . S
Co14 O24 2.021 . S
Co14 O26 2.137 . S
Co14 O27 2.244 . S
O15 Co14 2.216 . S
O15 C22 1.247 . S
O16 Co14 2.091 . S
O16 C22 1.261 . S
C17 O26 1.247 . S
C17 O27 1.272 . S
O18 Co14 2.004 . S
O18 C23 1.259 . S
Co19 O20 2.061 . S
Co19 O25 2.052 . S
Co19 O27 2.135 . S
O20 Co19 2.061 . S
O20 C23 1.235 . S
C21 O24 1.238 . S
C21 O25 1.241 . S
C22 O15 1.247 . S
C22 O16 1.261 . S
C23 O18 1.259 . S
C23 O20 1.235 . S
O24 Co14 2.021 . S
O24 C21 1.238 . S
O25 Co19 2.052 . S
O25 C21 1.241 . S
O26 Co14 2.137 . S
O26 C17 1.247 . S
O27 Co14 2.244 . S
O27 C17 1.272 . S
O27 Co19 2.135 . S
Co28 O29 2.216 . S
Co28 O30 2.091 . S
Co28 O32 2.004 . S
Co28 O38 2.021 . S
Co28 O40 2.137 . S
Co28 O41 2.244 . S
O29 Co28 2.216 . S
O29 C36 1.247 . S
O30 Co28 2.091 . S
O30 C36 1.261 . S
C31 O40 1.247 . S
C31 O41 1.272 . S
O32 Co28 2.004 . S
O32 C37 1.259 . S
Co33 O34 2.061 . S
Co33 O39 2.052 . S
Co33 O41 2.135 . S
O34 Co33 2.061 . S
O34 C37 1.235 . S
C35 O38 1.238 . S
C35 O39 1.241 . S
C36 O29 1.247 . S
C36 O30 1.261 . S
C37 O32 1.259 . S
C37 O34 1.235 . S
O38 Co28 2.021 . S
O38 C35 1.238 . S
O39 Co33 2.052 . S
O39 C35 1.241 . S
O40 Co28 2.137 . S
O40 C31 1.247 . S
O41 Co28 2.244 . S
O41 C31 1.272 . S
O41 Co33 2.135 . S
Co42 O43 2.216 . S
Co42 O44 2.091 . S
Co42 O46 2.004 . S
Co42 O52 2.021 . S
Co42 O54 2.137 . S
Co42 O55 2.244 . S
O43 Co42 2.216 . S
O43 C50 1.247 . S
O44 Co42 2.091 . S
O44 C50 1.261 . S
C45 O54 1.247 . S
C45 O55 1.272 . S
O46 Co42 2.004 . S
O46 C51 1.259 . S
Co47 O48 2.061 . S
Co47 O53 2.052 . S
Co47 O55 2.135 . S
O48 Co47 2.061 . S
O48 C51 1.235 . S
C49 O52 1.238 . S
C49 O53 1.241 . S
C50 O43 1.247 . S
C50 O44 1.261 . S
C51 O46 1.259 . S
C51 O48 1.235 . S
O52 Co42 2.021 . S
O52 C49 1.238 . S
O53 Co47 2.052 . S
O53 C49 1.241 . S
O54 Co42 2.137 . S
O54 C45 1.247 . S
O55 Co42 2.244 . S
O55 C45 1.272 . S
O55 Co47 2.135 . S
Co56 O57 2.216 . S
Co56 O58 2.091 . S
Co56 O60 2.004 . S
Co56 O66 2.021 . S
Co56 O68 2.137 . S
Co56 O69 2.244 . S
O57 Co56 2.216 . S
O57 C64 1.247 . S
O58 Co56 2.091 . S
O58 C64 1.261 . S
C59 O68 1.247 . S
C59 O69 1.272 . S
O60 Co56 2.004 . S
O60 C65 1.259 . S
Co61 O62 2.061 . S
Co61 O67 2.052 . S
Co61 O69 2.135 . S
O62 Co61 2.061 . S
O62 C65 1.235 . S
C63 O66 1.238 . S
C63 O67 1.241 . S
C64 O57 1.247 . S
C64 O58 1.261 . S
C65 O60 1.259 . S
C65 O62 1.235 . S
O66 Co56 2.021 . S
O66 C63 1.238 . S
O67 Co61 2.052 . S
O67 C63 1.241 . S
O68 Co56 2.137 . S
O68 C59 1.247 . S
O69 Co56 2.244 . S
O69 C59 1.272 . S
O69 Co61 2.135 . S
Co70 O71 2.216 . S
Co70 O72 2.091 . S
Co70 O74 2.004 . S
Co70 O80 2.021 . S
Co70 O82 2.137 . S
Co70 O83 2.244 . S
O71 Co70 2.216 . S
O71 C78 1.247 . S
O72 Co70 2.091 . S
O72 C78 1.261 . S
C73 O82 1.247 . S
C73 O83 1.272 . S
O74 Co70 2.004 . S
O74 C79 1.259 . S
Co75 O76 2.061 . S
Co75 O81 2.052 . S
Co75 O83 2.135 . S
O76 Co75 2.061 . S
O76 C79 1.235 . S
C77 O80 1.238 . S
C77 O81 1.241 . S
C78 O71 1.247 . S
C78 O72 1.261 . S
C79 O74 1.259 . S
C79 O76 1.235 . S
O80 Co70 2.021 . S
O80 C77 1.238 . S
O81 Co75 2.052 . S
O81 C77 1.241 . S
O82 Co70 2.137 . S
O82 C73 1.247 . S
O83 Co70 2.244 . S
O83 C73 1.272 . S
O83 Co75 2.135 . S
C84 C85 1.363 . S
C84 C90 1.379 1_545 S
C84 N92 1.356 . S
C85 C84 1.363 . S
C85 C91 1.363 . S
C86 C87 1.363 . S
C86 C91 1.379 1_565 S
C86 N93 1.356 . S
C87 C86 1.363 . S
C87 C90 1.363 . S
N88 C90 1.356 . S
N88 H100 0.984 . S
N88 H101 0.985 . S
N89 C91 1.356 . S
N89 H94 0.984 . S
N89 H95 0.985 . S
C90 C84 1.379 1_565 S
C90 C87 1.363 . S
C90 N88 1.356 . S
C91 C85 1.363 . S
C91 C86 1.379 1_545 S
C91 N89 1.356 . S
N92 C84 1.356 . S
N92 H98 0.984 . S
N92 H99 0.984 . S
N93 C86 1.356 . S
N93 H96 0.984 . S
N93 H97 0.985 . S
H94 N89 0.984 . S
H95 N89 0.985 . S
H96 N93 0.984 . S
H97 N93 0.985 . S
H98 N92 0.984 . S
H99 N92 0.984 . S
H100 N88 0.984 . S
H101 N88 0.985 . S
C102 C103 1.363 . S
C102 C108 1.379 . S
C102 N110 1.356 . S
C103 C102 1.363 . S
C103 C109 1.363 . S
C104 C105 1.363 . S
C104 C109 1.379 . S
C104 N111 1.356 . S
C105 C104 1.363 . S
C105 C108 1.363 . S
N106 C108 1.356 . S
N106 H118 0.984 . S
N106 H119 0.985 . S
N107 C109 1.356 . S
N107 H112 0.984 . S
N107 H113 0.985 . S
C108 C102 1.379 . S
C108 C105 1.363 . S
C108 N106 1.356 . S
C109 C103 1.363 . S
C109 C104 1.379 . S
C109 N107 1.356 . S
N110 C102 1.356 . S
N110 H116 0.984 . S
N110 H117 0.984 . S
N111 C104 1.356 . S
N111 H114 0.984 . S
N111 H115 0.985 . S
H112 N107 0.984 . S
H113 N107 0.985 . S
H114 N111 0.984 . S
H115 N111 0.985 . S
H116 N110 0.984 . S
H117 N110 0.984 . S
H118 N106 0.984 . S
H119 N106 0.985 . S
C120 C121 1.363 . S
C120 C126 1.379 1_655 S
C120 N128 1.356 . S
C121 C120 1.363 . S
C121 C127 1.363 . S
C122 C123 1.363 . S
C122 C127 1.379 1_455 S
C122 N129 1.356 . S
C123 C122 1.363 . S
C123 C126 1.363 . S
N124 C126 1.356 . S
N124 H136 0.984 . S
N124 H137 0.985 . S
N125 C127 1.356 . S
N125 H130 0.984 . S
N125 H131 0.985 . S
C126 C120 1.379 1_455 S
C126 C123 1.363 . S
C126 N124 1.356 . S
C127 C121 1.363 . S
C127 C122 1.379 1_655 S
C127 N125 1.356 . S
N128 C120 1.356 . S
N128 H134 0.984 . S
N128 H135 0.984 . S
N129 C122 1.356 . S
N129 H132 0.984 . S
N129 H133 0.985 . S
H130 N125 0.984 . S
H131 N125 0.985 . S
H132 N129 0.984 . S
H133 N129 0.985 . S
H134 N128 0.984 . S
H135 N128 0.984 . S
H136 N124 0.984 . S
H137 N124 0.985 . S
C138 C139 1.363 . S
C138 C144 1.379 1_455 S
C138 N146 1.356 . S
C139 C138 1.363 . S
C139 C145 1.363 . S
C140 C141 1.363 . S
C140 C145 1.379 1_655 S
C140 N147 1.356 . S
C141 C140 1.363 . S
C141 C144 1.363 . S
N142 C144 1.356 . S
N142 H154 0.984 . S
N142 H155 0.985 . S
N143 C145 1.356 . S
N143 H148 0.984 . S
N143 H149 0.985 . S
C144 C138 1.379 1_655 S
C144 C141 1.363 . S
C144 N142 1.356 . S
C145 C139 1.363 . S
C145 C140 1.379 1_455 S
C145 N143 1.356 . S
N146 C138 1.356 . S
N146 H152 0.984 . S
N146 H153 0.984 . S
N147 C140 1.356 . S
N147 H150 0.984 . S
N147 H151 0.985 . S
H148 N143 0.984 . S
H149 N143 0.985 . S
H150 N147 0.984 . S
H151 N147 0.985 . S
H152 N146 0.984 . S
H153 N146 0.984 . S
H154 N142 0.984 . S
H155 N142 0.985 . S
C156 C157 1.363 . S
C156 C162 1.379 1_565 S
C156 N164 1.356 . S
C157 C156 1.363 . S
C157 C163 1.363 . S
C158 C159 1.363 . S
C158 C163 1.379 1_545 S
C158 N165 1.356 . S
C159 C158 1.363 . S
C159 C162 1.363 . S
N160 C162 1.356 . S
N160 H172 0.984 . S
N160 H173 0.985 . S
N161 C163 1.356 . S
N161 H166 0.984 . S
N161 H167 0.985 . S
C162 C156 1.379 1_545 S
C162 C159 1.363 . S
C162 N160 1.356 . S
C163 C157 1.363 . S
C163 C158 1.379 1_565 S
C163 N161 1.356 . S
N164 C156 1.356 . S
N164 H170 0.984 . S
N164 H171 0.984 . S
N165 C158 1.356 . S
N165 H168 0.984 . S
N165 H169 0.985 . S
H166 N161 0.984 . S
H167 N161 0.985 . S
H168 N165 0.984 . S
H169 N165 0.985 . S
H170 N164 0.984 . S
H171 N164 0.984 . S
H172 N160 0.984 . S
H173 N160 0.985 . S
C174 C175 1.363 . S
C174 C180 1.379 . S
C174 N182 1.356 . S
C175 C174 1.363 . S
C175 C181 1.363 . S
C176 C177 1.363 . S
C176 C181 1.379 . S
C176 N183 1.356 . S
C177 C176 1.363 . S
C177 C180 1.363 . S
N178 C180 1.356 . S
N178 H190 0.984 . S
N178 H191 0.985 . S
N179 C181 1.356 . S
N179 H184 0.984 . S
N179 H185 0.985 . S
C180 C174 1.379 . S
C180 C177 1.363 . S
C180 N178 1.356 . S
C181 C175 1.363 . S
C181 C176 1.379 . S
C181 N179 1.356 . S
N182 C174 1.356 . S
N182 H188 0.984 . S
N182 H189 0.984 . S
N183 C176 1.356 . S
N183 H186 0.984 . S
N183 H187 0.985 . S
H184 N179 0.984 . S
H185 N179 0.985 . S
H186 N183 0.984 . S
H187 N183 0.985 . S
H188 N182 0.984 . S
H189 N182 0.984 . S
H190 N178 0.984 . S
H191 N178 0.985 . S
C192 C193 1.363 . S
C192 C198 1.379 1_556 S
C192 N200 1.356 . S
C193 C192 1.363 . S
C193 C199 1.363 . S
C194 C195 1.363 . S
C194 C199 1.379 1_554 S
C194 N201 1.356 . S
C195 C194 1.363 . S
C195 C198 1.363 . S
N196 C198 1.356 . S
N196 H208 0.984 . S
N196 H209 0.985 . S
N197 C199 1.356 . S
N197 H202 0.984 . S
N197 H203 0.985 . S
C198 C192 1.379 1_554 S
C198 C195 1.363 . S
C198 N196 1.356 . S
C199 C193 1.363 . S
C199 C194 1.379 1_556 S
C199 N197 1.356 . S
N200 C192 1.356 . S
N200 H206 0.984 . S
N200 H207 0.984 . S
N201 C194 1.356 . S
N201 H204 0.984 . S
N201 H205 0.985 . S
H202 N197 0.984 . S
H203 N197 0.985 . S
H204 N201 0.984 . S
H205 N201 0.985 . S
H206 N200 0.984 . S
H207 N200 0.984 . S
H208 N196 0.984 . S
H209 N196 0.985 . S
C210 C211 1.363 . S
C210 C216 1.379 . S
C210 N218 1.356 . S
C211 C210 1.363 . S
C211 C217 1.363 . S
C212 C213 1.363 . S
C212 C217 1.379 . S
C212 N219 1.356 . S
C213 C212 1.363 . S
C213 C216 1.363 . S
N214 C216 1.356 . S
N214 H226 0.984 . S
N214 H227 0.985 . S
N215 C217 1.356 . S
N215 H220 0.984 . S
N215 H221 0.985 . S
C216 C210 1.379 . S
C216 C213 1.363 . S
C216 N214 1.356 . S
C217 C211 1.363 . S
C217 C212 1.379 . S
C217 N215 1.356 . S
N218 C210 1.356 . S
N218 H224 0.984 . S
N218 H225 0.984 . S
N219 C212 1.356 . S
N219 H222 0.984 . S
N219 H223 0.985 . S
H220 N215 0.984 . S
H221 N215 0.985 . S
H222 N219 0.984 . S
H223 N219 0.985 . S
H224 N218 0.984 . S
H225 N218 0.984 . S
H226 N214 0.984 . S
H227 N214 0.985 . S
C228 C229 1.363 . S
C228 C234 1.379 . S
C228 N236 1.356 . S
C229 C228 1.363 . S
C229 C235 1.363 . S
C230 C231 1.363 . S
C230 C235 1.379 . S
C230 N237 1.356 . S
C231 C230 1.363 . S
C231 C234 1.363 . S
N232 C234 1.356 . S
N232 H244 0.984 . S
N232 H245 0.985 . S
N233 C235 1.356 . S
N233 H238 0.984 . S
N233 H239 0.985 . S
C234 C228 1.379 . S
C234 C231 1.363 . S
C234 N232 1.356 . S
C235 C229 1.363 . S
C235 C230 1.379 . S
C235 N233 1.356 . S
N236 C228 1.356 . S
N236 H242 0.984 . S
N236 H243 0.984 . S
N237 C230 1.356 . S
N237 H240 0.984 . S
N237 H241 0.985 . S
H238 N233 0.984 . S
H239 N233 0.985 . S
H240 N237 0.984 . S
H241 N237 0.985 . S
H242 N236 0.984 . S
H243 N236 0.984 . S
H244 N232 0.984 . S
H245 N232 0.985 . S
C246 C247 1.363 . S
C246 C252 1.379 1_556 S
C246 N254 1.356 . S
C247 C246 1.363 . S
C247 C253 1.363 . S
C248 C249 1.363 . S
C248 C253 1.379 1_554 S
C248 N255 1.356 . S
C249 C248 1.363 . S
C249 C252 1.363 . S
N250 C252 1.356 . S
N250 H262 0.984 . S
N250 H263 0.985 . S
N251 C253 1.356 . S
N251 H256 0.984 . S
N251 H257 0.985 . S
C252 C246 1.379 1_554 S
C252 C249 1.363 . S
C252 N250 1.356 . S
C253 C247 1.363 . S
C253 C248 1.379 1_556 S
C253 N251 1.356 . S
N254 C246 1.356 . S
N254 H260 0.984 . S
N254 H261 0.984 . S
N255 C248 1.356 . S
N255 H258 0.984 . S
N255 H259 0.985 . S
H256 N251 0.984 . S
H257 N251 0.985 . S
H258 N255 0.984 . S
H259 N255 0.985 . S
H260 N254 0.984 . S
H261 N254 0.984 . S
H262 N250 0.984 . S
H263 N250 0.985 . S
C264 C265 1.363 . S
C264 C270 1.379 . S
C264 N272 1.356 . S
C265 C264 1.363 . S
C265 C271 1.363 . S
C266 C267 1.363 . S
C266 C271 1.379 . S
C266 N273 1.356 . S
C267 C266 1.363 . S
C267 C270 1.363 . S
N268 C270 1.356 . S
N268 H280 0.984 . S
N268 H281 0.985 . S
N269 C271 1.356 . S
N269 H274 0.984 . S
N269 H275 0.985 . S
C270 C264 1.379 . S
C270 C267 1.363 . S
C270 N268 1.356 . S
C271 C265 1.363 . S
C271 C266 1.379 . S
C271 N269 1.356 . S
N272 C264 1.356 . S
N272 H278 0.984 . S
N272 H279 0.984 . S
N273 C266 1.356 . S
N273 H276 0.984 . S
N273 H277 0.985 . S
H274 N269 0.984 . S
H275 N269 0.985 . S
H276 N273 0.984 . S
H277 N273 0.985 . S
H278 N272 0.984 . S
H279 N272 0.984 . S
H280 N268 0.984 . S
H281 N268 0.985 . S
C282 C283 1.363 . S
C282 C288 1.379 . S
C282 N290 1.356 . S
C283 C282 1.363 . S
C283 C289 1.363 . S
C284 C285 1.363 . S
C284 C289 1.379 . S
C284 N291 1.356 . S
C285 C284 1.363 . S
C285 C288 1.363 . S
N286 C288 1.356 . S
N286 H298 0.984 . S
N286 H299 0.985 . S
N287 C289 1.356 . S
N287 H292 0.984 . S
N287 H293 0.985 . S
C288 C282 1.379 . S
C288 C285 1.363 . S
C288 N286 1.356 . S
C289 C283 1.363 . S
C289 C284 1.379 . S
C289 N287 1.356 . S
N290 C282 1.356 . S
N290 H296 0.984 . S
N290 H297 0.984 . S
N291 C284 1.356 . S
N291 H294 0.984 . S
N291 H295 0.985 . S
H292 N287 0.984 . S
H293 N287 0.985 . S
H294 N291 0.984 . S
H295 N291 0.985 . S
H296 N290 0.984 . S
H297 N290 0.984 . S
H298 N286 0.984 . S
H299 N286 0.985 . S
C85 C8 1.440 . S
C87 C50 1.440 . S
C103 C22 1.440 . S
C105 C64 1.440 . S
C121 C36 1.440 . S
C123 C78 1.440 . S
C139 C23 1.479 . S
C141 C65 1.479 . S
C157 C79 1.479 . S
C159 C37 1.479 . S
C175 C51 1.479 . S
C177 C9 1.479 . S
C193 C31 1.373 . S
C195 C7 1.415 . S
C211 C45 1.373 . S
C213 C21 1.415 . S
C229 C35 1.415 . S
C231 C59 1.373 . S
C247 C73 1.373 . S
C249 C49 1.415 . S
C265 C63 1.415 . S
C267 C3 1.373 . S
C283 C77 1.415 . S
C285 C17 1.373 . S
