# Generated by pormake.
# Topology snp, (6)-cn, num edge types: 1
# Building blocks:
#     Node 0, Type 0, BuildingBlock: KUMBOL_clean_sbu_0, # of connection points: 6
#     Node 1, Type 0, BuildingBlock: KUMBOL_clean_sbu_0, # of connection points: 6
#     Node 2, Type 0, BuildingBlock: KUMBOL_clean_sbu_0, # of connection points: 6
#     Node 3, Type 0, BuildingBlock: KUMBOL_clean_sbu_0, # of connection points: 6
#     Edge 4, Type (0, 0), BuildingBlock: AJUNOK_clean_linker_0, # of connection points: 2
#     Edge 5, Type (0, 0), BuildingBlock: AJUNOK_clean_linker_0, # of connection points: 2
#     Edge 6, Type (0, 0), BuildingBlock: AJUNOK_clean_linker_0, # of connection points: 2
#     Edge 7, Type (0, 0), BuildingBlock: AJUNOK_clean_linker_0, # of connection points: 2
#     Edge 8, Type (0, 0), BuildingBlock: AJUNOK_clean_linker_0, # of connection points: 2
#     Edge 9, Type (0, 0), BuildingBlock: AJUNOK_clean_linker_0, # of connection points: 2
#     Edge 10, Type (0, 0), BuildingBlock: AJUNOK_clean_linker_0, # of connection points: 2
#     Edge 11, Type (0, 0), BuildingBlock: AJUNOK_clean_linker_0, # of connection points: 2
#     Edge 12, Type (0, 0), BuildingBlock: AJUNOK_clean_linker_0, # of connection points: 2
#     Edge 13, Type (0, 0), BuildingBlock: AJUNOK_clean_linker_0, # of connection points: 2
#     Edge 14, Type (0, 0), BuildingBlock: AJUNOK_clean_linker_0, # of connection points: 2
#     Edge 15, Type (0, 0), BuildingBlock: AJUNOK_clean_linker_0, # of connection points: 2
# Relax obj value: 0.255
# Max RMSD: 0.288
# Mean RMSD: 0.255
data_MOF--net-snp--node1-KUMBOL_clean_sbu_0--edge1-AJUNOK_clean_linker_0
_symmetry_space_group_name_H-M    P1
_symmetry_Int_Tables_number       1
_symmetry_cell_setting            triclinic
loop_
_symmetry_equiv_pos_as_xyz
'x, y, z'
_cell_length_a     18.288157
_cell_length_b     19.969476
_cell_length_c     26.387231
_cell_angle_alpha  119.01824
_cell_angle_beta   93.952571
_cell_angle_gamma 97.347543
loop_
_atom_site_label
_atom_site_type_symbol
_atom_site_fract_x
_atom_site_fract_y
_atom_site_fract_z
_atom_type_partial_charge
Gd0 Gd 0.39133 0.04691 0.29684 0.0
Gd1 Gd 0.41239 0.23587 0.2975 0.0
C2 C 0.56336 0.4651 0.43913 0.0
C3 C 0.47821 0.52745 0.50666 0.0
C4 C 0.43692 0.39727 0.42195 0.0
C5 C 0.50661 0.39854 0.40555 0.0
C6 C 0.42144 0.46253 0.47217 0.0
C7 C 0.54917 0.52859 0.49028 0.0
C8 C 0.63125 0.4681 0.41846 0.0
C9 C 0.63943 0.40855 0.36369 0.0
N10 N 0.51708 0.33798 0.35412 0.0
C11 C 0.58056 0.3457 0.33123 0.0
H12 H 0.58565 0.30427 0.28722 0.0
C13 C 0.31232 0.33267 0.40151 0.0
N14 N 0.38322 0.33377 0.38754 0.0
C15 C 0.29463 0.39539 0.45096 0.0
C16 C 0.34926 0.46089 0.48628 0.0
H17 H 0.26802 0.28391 0.37519 0.0
H18 H 0.59183 0.5801 0.51625 0.0
H19 H 0.28315 0.92665 0.1663 0.0
H20 H 0.67593 0.51812 0.44279 0.0
H21 H 0.69002 0.4123 0.34545 0.0
H22 H 0.46744 0.57757 0.54553 0.0
H23 H 0.54198 0.07322 0.39037 0.0
H24 H 0.37463 0.72118 0.07616 0.0
H25 H 0.2786 0.79928 0.0796 0.0
H26 H 0.58202 0.75934 0.2142 0.0
H27 H 0.23855 0.39325 0.46156 0.0
H28 H 0.33531 0.50958 0.52449 0.0
H29 H 0.48747 0.70669 0.12676 0.0
H30 H 0.63304 0.99775 0.39848 0.0
N31 N 0.38393 0.92575 0.21075 0.0
C32 C 0.37787 0.77838 0.11403 0.0
C33 C 0.32363 0.82224 0.11582 0.0
C34 C 0.43466 0.80813 0.16176 0.0
C35 C 0.43672 0.88331 0.20983 0.0
C36 C 0.32689 0.89542 0.16511 0.0
N37 N 0.49202 0.9867 0.30328 0.0
C38 C 0.4916 0.91403 0.25796 0.0
C39 C 0.59396 0.97372 0.3585 0.0
C40 C 0.59461 0.89946 0.31204 0.0
C41 C 0.54202 0.01661 0.35349 0.0
C42 C 0.54353 0.86893 0.26081 0.0
H43 H 0.63435 0.86595 0.31623 0.0
O44 O 0.36947 0.04304 0.37535 0.0
O45 O 0.3805 0.17321 0.34422 0.0
O46 O 0.5262 0.19957 0.30256 0.0
O47 O 0.50399 0.06572 0.2708 0.0
O48 O 0.44588 0.14033 0.38884 0.0
O49 O 0.29749 0.96378 0.29528 0.0
O50 O 0.32573 0.28672 0.27602 0.0
O51 O 0.39093 0.10653 0.24362 0.0
O52 O 0.28615 0.05178 0.24577 0.0
O53 O 0.29158 0.18427 0.28987 0.0
O54 O 0.43755 0.16656 0.20547 0.0
O55 O 0.43061 0.28568 0.24081 0.0
C56 C 0.41214 0.19597 0.39506 0.0
C57 C 0.54207 0.79441 0.213 0.0
C58 C 0.48823 0.76442 0.16328 0.0
C59 C 0.31327 0.98579 0.35082 0.0
C60 C 0.31591 0.92596 0.3693 0.0
C61 C 0.36769 0.87646 0.34854 0.0
C62 C 0.27489 0.92414 0.41306 0.0
C63 C 0.28663 0.8729 0.43499 0.0
C64 C 0.38167 0.82899 0.37163 0.0
C65 C 0.34255 0.82796 0.41477 0.0
C66 C 0.54597 0.12957 0.27719 0.0
C67 C 0.41488 0.09765 0.19701 0.0
C68 C 0.36554 0.30585 0.24465 0.0
C69 C 0.3382 0.346 0.21521 0.0
C70 C 0.28163 0.38968 0.23563 0.0
C71 C 0.37019 0.34297 0.16757 0.0
C72 C 0.34595 0.38335 0.14066 0.0
C73 C 0.25691 0.42932 0.20832 0.0
C74 C 0.28905 0.42636 0.16096 0.0
C75 C 0.25562 0.11271 0.25359 0.0
H76 H 0.39901 0.87591 0.31536 0.0
H77 H 0.23417 0.96157 0.42941 0.0
H78 H 0.42338 0.79269 0.35599 0.0
H79 H 0.35518 0.79033 0.43173 0.0
H80 H 0.25744 0.39421 0.27323 0.0
H81 H 0.41396 0.30948 0.15142 0.0
H82 H 0.21317 0.46275 0.22412 0.0
H83 H 0.26954 0.45733 0.14006 0.0
Gd84 Gd 0.26644 0.3739 0.72127 0.0
Gd85 Gd 0.09647 0.29123 0.61216 0.0
C86 C 0.87779 0.28358 0.68226 0.0
C87 C 0.82535 0.14499 0.62792 0.0
C88 C 0.94513 0.19297 0.61123 0.0
C89 C 0.94083 0.26873 0.65331 0.0
C90 C 0.88666 0.13066 0.59737 0.0
C91 C 0.82094 0.22119 0.67024 0.0
C92 C 0.87286 0.36097 0.72135 0.0
C93 C 0.9285 0.42137 0.72904 0.0
N94 N 0.99648 0.3282 0.66406 0.0
C95 C 0.98955 0.40369 0.6989 0.0
H96 H 0.03214 0.44981 0.70426 0.0
C97 C 0.00721 0.10892 0.53591 0.0
N98 N 0.00488 0.18066 0.58211 0.0
C99 C 0.9506 0.04539 0.52074 0.0
C100 C 0.89055 0.05606 0.55211 0.0
H101 H 0.05342 0.10035 0.51141 0.0
H102 H 0.77245 0.23147 0.69245 0.0
H103 H 0.32469 0.20684 0.63615 0.0
H104 H 0.82542 0.37477 0.74455 0.0
H105 H 0.92432 0.48147 0.75801 0.0
H106 H 0.78021 0.09774 0.61819 0.0
H107 H 0.30985 0.57039 0.79927 0.0
H108 H 0.55345 0.2607 0.62256 0.0
H109 H 0.43963 0.16373 0.59986 0.0
H110 H 0.60913 0.53964 0.731 0.0
H111 H 0.95323 0.98835 0.48481 0.0
H112 H 0.84664 1.00675 0.54008 0.0
H113 H 0.61645 0.40092 0.67231 0.0
H114 H 0.41606 0.67467 0.82341 0.0
N115 N 0.37021 0.32797 0.67605 0.0
C116 C 0.50262 0.28019 0.6381 0.0
C117 C 0.43845 0.22535 0.62499 0.0
C118 C 0.50062 0.35955 0.67158 0.0
C119 C 0.43276 0.3819 0.69035 0.0
C120 C 0.37291 0.25031 0.64531 0.0
N121 N 0.3627 0.47872 0.74117 0.0
C122 C 0.42848 0.45977 0.72295 0.0
C123 C 0.42003 0.61455 0.79427 0.0
C124 C 0.48677 0.59594 0.77336 0.0
C125 C 0.35909 0.55496 0.77906 0.0
C126 C 0.4922 0.51776 0.73832 0.0
H127 H 0.53433 0.64212 0.78601 0.0
O128 O 0.30782 0.43632 0.8147 0.0
O129 O 0.14276 0.33954 0.70629 0.0
O130 O 0.17611 0.39326 0.62303 0.0
O131 O 0.22253 0.47233 0.71838 0.0
O132 O 0.18813 0.43383 0.7852 0.0
O133 O 0.3054 0.31198 0.76271 0.0
O134 O 0.06563 0.24823 0.51919 0.0
O135 O 0.22181 0.3194 0.6236 0.0
O136 O 0.22653 0.24801 0.69484 0.0
O137 O 0.10792 0.20339 0.63788 0.0
O138 O 0.16587 0.20793 0.55927 0.0
O139 O 0.03697 0.35742 0.58369 0.0
C140 C 0.12636 0.38632 0.75576 0.0
C141 C 0.55972 0.49593 0.71957 0.0
C142 C 0.56397 0.41697 0.68638 0.0
C143 C 0.32212 0.37393 0.81433 0.0
C144 C 0.38983 0.38137 0.85082 0.0
C145 C 0.46149 0.39209 0.83705 0.0
C146 C 0.38097 0.37566 0.90068 0.0
C147 C 0.44285 0.38061 0.93742 0.0
C148 C 0.52379 0.39738 0.87368 0.0
C149 C 0.5147 0.39184 0.92389 0.0
C150 C 0.18752 0.46171 0.66957 0.0
C151 C 0.22993 0.25512 0.57972 0.0
C152 C 0.03048 0.30511 0.52813 0.0
C153 C 0.95671 0.28277 0.49211 0.0
C154 C 0.89037 0.27721 0.51478 0.0
C155 C 0.95284 0.26398 0.43317 0.0
C156 C 0.88356 0.238 0.39667 0.0
C157 C 0.8214 0.25179 0.4787 0.0
C158 C 0.81789 0.23142 0.41974 0.0
C159 C 0.16356 0.19707 0.66874 0.0
H160 H 0.46931 0.39623 0.79843 0.0
H161 H 0.32532 0.36808 0.91132 0.0
H162 H 0.57916 0.40567 0.86309 0.0
H163 H 0.56331 0.39572 0.95173 0.0
H164 H 0.89175 0.29177 0.56004 0.0
H165 H 0.00387 0.26705 0.41511 0.0
H166 H 0.77053 0.24685 0.49631 0.0
H167 H 0.76413 0.21008 0.39203 0.0
Gd168 Gd 0.89496 0.95579 0.06225 0.0
Gd169 Gd 0.87234 0.11822 0.03855 0.0
C170 C 0.80822 0.35584 0.14691 0.0
C171 C 0.67528 0.32904 0.11258 0.0
C172 C 0.7473 0.22507 0.07306 0.0
C173 C 0.81098 0.27656 0.10976 0.0
C174 C 0.67879 0.25081 0.07404 0.0
C175 C 0.73989 0.38148 0.14877 0.0
C176 C 0.87467 0.40756 0.17962 0.0
C177 C 0.94182 0.38016 0.17375 0.0
N178 N 0.87633 0.25012 0.10684 0.0
C179 C 0.94162 0.3009 0.13684 0.0
H180 H 0.99386 0.28043 0.1324 0.0
C181 C 0.69177 0.09782 0.99746 0.0
N182 N 0.75265 0.14983 0.03585 0.0
C183 C 0.62256 0.12056 0.99737 0.0
C184 C 0.61595 0.1973 0.03588 0.0
H185 H 0.69578 0.03821 0.96774 0.0
H186 H 0.73668 0.44205 0.17732 0.0
H187 H 0.71399 0.94133 0.99992 0.0
H188 H 0.87498 0.46896 0.20838 0.0
H189 H 0.99376 0.41994 0.19788 0.0
H190 H 0.62312 0.34984 0.11406 0.0
H191 H 0.04696 0.88044 1.0157 0.0
H192 H 0.62472 0.69978 0.88985 0.0
H193 H 0.60802 0.83701 0.93984 0.0
H194 H 0.8418 0.58299 0.86068 0.0
H195 H 0.57434 0.07889 0.96749 0.0
H196 H 0.5623 0.21477 0.03547 0.0
H197 H 0.7125 0.60509 0.86105 0.0
H198 H 0.07895 0.75319 0.95061 0.0
N199 N 0.79049 0.86534 0.99186 0.0
C200 C 0.67153 0.74561 0.91799 0.0
C201 C 0.6619 0.82291 0.94617 0.0
C202 C 0.74277 0.72907 0.92288 0.0
C203 C 0.80202 0.79116 0.95979 0.0
C204 C 0.72247 0.88229 0.98185 0.0
N205 N 0.93023 0.84123 0.99082 0.0
C206 C 0.87456 0.77898 0.95846 0.0
C207 C 0.02112 0.75961 0.952 0.0
C208 C 0.96442 0.69491 0.91909 0.0
C209 C 0.00287 0.83237 0.98811 0.0
C210 C 0.89004 0.70406 0.92179 0.0
H211 H 0.97859 0.63836 0.8916 0.0
O212 O 0.9699 0.91613 0.1061 0.0
O213 O 0.88878 0.08099 0.10587 0.0
O214 O 0.99384 0.13228 0.07737 0.0
O215 O 0.99944 1.0023 0.03896 0.0
O216 O 0.96101 0.05129 0.1489 0.0
O217 O 0.85261 0.91137 0.11624 0.0
O218 O 0.86325 0.11679 0.95529 0.0
O219 O 0.89803 0.99865 1.00021 0.0
O220 O 0.78552 0.99167 0.09338 0.0
O221 O 0.77937 0.10705 0.09163 0.0
O222 O 0.81991 0.01222 0.95046 0.0
O223 O 0.95647 0.19168 1.02209 0.0
C224 C 0.92925 0.10862 0.15544 0.0
C225 C 0.83098 0.64104 0.8885 0.0
C226 C 0.75737 0.65352 0.88903 0.0
C227 C 0.91695 0.89918 0.13103 0.0
C228 C 0.91427 0.83093 0.13862 0.0
C229 C 0.90357 0.75517 0.09084 0.0
C230 C 0.91113 0.84247 0.1952 0.0
C231 C 0.89024 0.77914 0.20426 0.0
C232 C 0.88766 0.69153 0.09955 0.0
C233 C 0.87959 0.7032 0.15549 0.0
C234 C 0.03283 0.07649 0.06901 0.0
C235 C 0.86053 0.96383 0.94993 0.0
C236 C 0.92232 0.1702 0.96997 0.0
C237 C 0.91367 0.23184 0.95439 0.0
C238 C 0.85644 0.27443 0.97425 0.0
C239 C 0.95851 0.24563 0.917 0.0
C240 C 0.94624 0.30264 0.90115 0.0
C241 C 0.84374 0.32951 0.95833 0.0
C242 C 0.88786 0.3434 0.92218 0.0
C243 C 0.75324 0.05288 0.10542 0.0
H244 H 0.90567 0.74519 0.04697 0.0
H245 H 0.92283 0.90156 0.23177 0.0
H246 H 0.87874 0.63292 0.06248 0.0
H247 H 0.86295 0.65259 0.16002 0.0
H248 H 0.82034 0.26407 1.0013 0.0
H249 H 0.00264 0.21286 0.9008 0.0
H250 H 0.79892 0.36141 0.97385 0.0
H251 H 0.87598 0.3862 0.9103 0.0
Gd252 Gd 0.16568 0.8542 0.72206 0.0
Gd253 Gd 0.9776 0.80982 0.63625 0.0
C254 C 0.75041 0.71443 0.66124 0.0
C255 C 0.72741 0.57934 0.58313 0.0
C256 C 0.84183 0.66671 0.59603 0.0
C257 C 0.82008 0.72664 0.64408 0.0
C258 C 0.79548 0.59241 0.56489 0.0
C259 C 0.70467 0.64033 0.63093 0.0
C260 C 0.72848 0.7772 0.70819 0.0
C261 C 0.77565 0.8498 0.73694 0.0
N262 N 0.86611 0.79727 0.67327 0.0
C263 C 0.84446 0.85891 0.7188 0.0
H264 H 0.87972 0.9157 0.74127 0.0
C265 C 0.92921 0.62437 0.53008 0.0
N266 N 0.90818 0.68114 0.57953 0.0
C267 C 0.88535 0.54981 0.49824 0.0
C268 C 0.8185 0.53353 0.51594 0.0
H269 H 0.98087 0.63509 0.51568 0.0
H270 H 0.65137 0.62972 0.64386 0.0
H271 H 0.23557 0.69091 0.63092 0.0
H272 H 0.6754 0.7702 0.72259 0.0
H273 H 0.75922 0.89878 0.77328 0.0
H274 H 0.6914 0.52254 0.55997 0.0
H275 H 0.23618 0.04445 0.82357 0.0
H276 H 0.39301 0.75857 0.54479 0.0
H277 H 0.31838 0.65619 0.55659 0.0
H278 H 0.43792 0.03675 0.65636 0.0
H279 H 0.9032 0.50487 0.45999 0.0
H280 H 0.78462 0.47567 0.49108 0.0
H281 H 0.43617 0.9007 0.5816 0.0
H282 H 0.32491 0.15337 0.83029 0.0
N283 N 0.25585 0.81246 0.6581 0.0
C284 C 0.35538 0.77442 0.57707 0.0
C285 C 0.31321 0.71648 0.58349 0.0
C286 C 0.35169 0.85246 0.61468 0.0
C287 C 0.30147 0.87003 0.65586 0.0
C288 C 0.26484 0.7367 0.62527 0.0
N289 N 0.25653 0.96154 0.73886 0.0
C290 C 0.30179 0.94682 0.69747 0.0
C291 C 0.31816 0.09582 0.79225 0.0
C292 C 0.35927 0.0832 0.74685 0.0
C293 C 0.26812 0.03374 0.78824 0.0
C294 C 0.35319 1.00762 0.69959 0.0
H295 H 0.39805 0.13141 0.75007 0.0
O296 O 0.20355 0.90936 0.81551 0.0
O297 O 0.04313 0.84797 0.72223 0.0
O298 O 0.00112 0.93202 0.71522 0.0
O299 O 0.13003 0.96559 0.74115 0.0
O300 O 0.0958 0.81957 0.77641 0.0
O301 O 0.2327 0.79761 0.75526 0.0
O302 O 0.9698 0.82772 0.56151 0.0
O303 O 0.10208 0.84995 0.64424 0.0
O304 O 0.12285 0.73078 0.65174 0.0
O305 O 0.99436 0.70667 0.64542 0.0
O306 O 0.0467 0.76432 0.56331 0.0
O307 O 0.89562 0.87409 0.62499 0.0
C308 C 0.03157 0.8268 0.75922 0.0
C309 C 0.39929 0.99064 0.65612 0.0
C310 C 0.39841 0.91318 0.61365 0.0
C311 C 0.23855 0.85354 0.80983 0.0
C312 C 0.31037 0.87684 0.84833 0.0
C313 C 0.37848 0.87965 0.8275 0.0
C314 C 0.3102 0.89701 0.90744 0.0
C315 C 0.37756 0.92081 0.94616 0.0
C316 C 0.44551 0.90253 0.86532 0.0
C317 C 0.44526 0.92343 0.92417 0.0
C318 C 0.06404 0.98387 0.73686 0.0
C319 C 0.11018 0.80875 0.59087 0.0
C320 C 0.91275 0.86183 0.57455 0.0
C321 C 0.8529 0.83631 0.52525 0.0
C322 C 0.77734 0.81986 0.5296 0.0
C323 C 0.87253 0.83045 0.47285 0.0
C324 C 0.81758 0.80941 0.42548 0.0
C325 C 0.72234 0.79867 0.48224 0.0
C326 C 0.74221 0.79392 0.4305 0.0
C327 C 0.05994 0.68667 0.64659 0.0
H328 H 0.3798 0.86476 0.78228 0.0
H329 H 0.25736 0.89488 0.92341 0.0
H330 H 0.49803 0.90542 0.84922 0.0
H331 H 0.4982 0.94418 0.95278 0.0
H332 H 0.76076 0.82365 0.5694 0.0
H333 H 0.93071 0.84358 0.46918 0.0
H334 H 0.66414 0.78622 0.48574 0.0
H335 H 0.69896 0.77783 0.39431 0.0
C336 C 0.13746 0.03421 0.10545 0.0
C337 C 0.09919 0.0945 0.11313 0.0
C338 C 0.18234 0.03756 0.15215 0.0
C339 C 0.19549 0.10377 0.20835 0.0
H340 H 0.13216 0.98312 0.06286 0.0
H341 H 0.20955 0.98897 0.14286 0.0
S342 S 0.11792 0.28362 0.25115 0.0
N343 N 0.08363 0.22644 0.18111 0.0
N344 N 0.16895 0.23349 0.26861 0.0
C345 C 0.1606 0.1665 0.2163 0.0
C346 C 0.11373 0.16247 0.16871 0.0
C347 C 0.05721 0.02744 0.66778 0.0
C348 C 0.06835 0.04833 0.72695 0.0
C349 C 0.09501 0.07289 0.64845 0.0
C350 C 0.14321 0.14222 0.68818 0.0
H351 H 0.0261 0.97145 0.63509 0.0
H352 H 0.08636 0.05375 0.60204 0.0
S353 S 0.1813 0.22868 0.84992 0.0
N354 N 0.12523 0.14436 0.82618 0.0
N355 N 0.19372 0.23494 0.79086 0.0
C356 C 0.15193 0.16631 0.74838 0.0
C357 C 0.11391 0.11874 0.76771 0.0
C358 C 0.6604 0.13229 0.16207 0.0
C359 C 0.69815 0.06984 0.14758 0.0
C360 C 0.61392 0.15336 0.20564 0.0
C361 C 0.6061 0.11618 0.23937 0.0
H362 H 0.6652 0.16419 0.13867 0.0
H363 H 0.58071 0.196 0.20988 0.0
S364 S 0.68939 0.94592 0.21705 0.0
N365 N 0.71813 0.96563 0.16719 0.0
N366 N 0.63943 0.01236 0.2537 0.0
C367 C 0.64408 0.05405 0.22558 0.0
C368 C 0.68776 0.02931 0.17883 0.0
C369 C 0.14268 0.51587 0.61032 0.0
C370 C 0.15386 0.52101 0.66544 0.0
C371 C 0.10069 0.56337 0.60135 0.0
C372 C 0.06791 0.61629 0.64696 0.0
H373 H 0.1675 0.47558 0.57404 0.0
H374 H 0.09833 0.5628 0.55996 0.0
S375 S 0.07376 0.64612 0.79716 0.0
N376 N 0.12678 0.5806 0.76545 0.0
N377 N 0.04226 0.66616 0.74681 0.0
C378 C 0.07463 0.61858 0.70101 0.0
C379 C 0.1202 0.57271 0.71109 0.0
C380 C 0.25674 0.184 0.47764 0.0
C381 C 0.27822 0.24885 0.53457 0.0
C382 C 0.2967 0.17372 0.43228 0.0
C383 C 0.36585 0.22108 0.44274 0.0
H384 H 0.20713 0.14084 0.46681 0.0
H385 H 0.2741 0.12609 0.38876 0.0
S386 S 0.43625 0.4111 0.57597 0.0
N387 N 0.35837 0.37666 0.59066 0.0
N388 N 0.4489 0.34229 0.51106 0.0
C389 C 0.38739 0.28786 0.49816 0.0
C390 C 0.34007 0.30492 0.54255 0.0
C391 C 0.03699 0.28788 0.76933 0.0
C392 C 0.07262 0.36525 0.78908 0.0
C393 C 0.99848 0.26698 0.80589 0.0
C394 C 0.99316 0.3228 0.86388 0.0
H395 H 0.03966 0.24245 0.7257 0.0
H396 H 0.97199 0.20682 0.78835 0.0
S397 S 0.07133 0.53448 0.93621 0.0
N398 N 0.09573 0.49835 0.8702 0.0
N399 N 0.02442 0.45975 0.9383 0.0
C400 C 0.02652 0.40064 0.88353 0.0
C401 C 0.06558 0.42164 0.84645 0.0
C402 C 0.8753 0.74553 0.3343 0.0
C403 C 0.83903 0.80508 0.37116 0.0
C404 C 0.89329 0.73891 0.28138 0.0
C405 C 0.87556 0.79156 0.2632 0.0
H406 H 0.88892 0.70316 0.34611 0.0
H407 H 0.92126 0.69191 0.25452 0.0
S408 S 0.78877 0.96426 0.34991 0.0
N409 N 0.79273 0.92205 0.39021 0.0
N410 N 0.82306 0.90901 0.29013 0.0
C411 C 0.84137 0.85327 0.30146 0.0
C412 C 0.82382 0.86003 0.35547 0.0
C413 C 0.33035 1.00359 0.0399 0.0
C414 C 0.37731 0.95091 1.01039 0.0
C415 C 0.33799 0.04441 0.10122 0.0
C416 C 0.39113 0.03307 0.13612 0.0
H417 H 0.29132 0.01839 1.01583 0.0
H418 H 0.30654 0.09076 0.12166 0.0
S419 S 0.52422 0.8974 0.08093 0.0
N420 N 0.47555 0.88502 1.02096 0.0
N421 N 0.49063 0.96379 0.13643 0.0
C422 C 0.43614 0.97799 0.10734 0.0
C423 C 0.42864 0.93611 0.04455 0.0
C424 C 0.96312 0.96966 0.89486 0.0
C425 C 0.89944 0.92556 0.89857 0.0
C426 C 0.00287 0.93764 0.84777 0.0
C427 C 0.98166 0.85959 0.8031 0.0
H428 H 0.98285 0.02957 0.92901 0.0
H429 H 0.05212 0.97367 0.84725 0.0
S430 S 0.82048 0.71832 0.79201 0.0
N431 N 0.81494 0.80056 0.85148 0.0
N432 N 0.8955 0.73749 0.7664 0.0
C433 C 0.91936 0.81398 0.80662 0.0
C434 C 0.87647 0.84785 0.85335 0.0
C435 C 0.2317 0.92038 0.53152 0.0
C436 C 0.23989 0.85975 0.4757 0.0
C437 C 0.19354 0.90467 0.57097 0.0
C438 C 0.16305 0.82769 0.55647 0.0
H439 H 0.25559 0.9801 0.54505 0.0
H440 H 0.18695 0.953 0.61255 0.0
S441 S 0.16646 0.64893 0.41561 0.0
N442 N 0.21069 0.72016 0.40804 0.0
N443 N 0.14301 0.69122 0.48191 0.0
C444 C 0.17122 0.76734 0.50106 0.0
C445 C 0.20844 0.78311 0.46096 0.0
C446 C 0.37651 0.31433 0.98473 0.0
C447 C 0.42993 0.37583 0.99026 0.0
C448 C 0.35141 0.31589 0.03408 0.0
C449 C 0.37885 0.37906 0.09029 0.0
H450 H 0.35175 0.26627 0.94175 0.0
H451 H 0.3084 0.26894 0.02816 0.0
S452 S 0.52293 0.55108 0.12904 0.0
N453 N 0.51252 0.49914 0.05674 0.0
N454 N 0.46514 0.50159 0.14979 0.0
C455 C 0.43472 0.43888 0.09687 0.0
C456 C 0.46059 0.43725 0.04666 0.0
C457 C 0.86959 0.09996 0.23452 0.0
C458 C 0.90023 0.14763 0.21262 0.0
C459 C 0.85938 0.13031 0.29316 0.0
C460 C 0.88099 0.21001 0.33321 0.0
H461 H 0.85795 0.03756 0.20708 0.0
H462 H 0.83907 0.0904 0.30802 0.0
S463 S 0.95325 0.36308 0.29935 0.0
N464 N 0.94356 0.28088 0.23621 0.0
N465 N 0.9262 0.33806 0.34719 0.0
C466 C 0.90711 0.25954 0.31212 0.0
C467 C 0.91637 0.22841 0.25174 0.0
loop_
_geom_bond_atom_site_label_1
_geom_bond_atom_site_label_2
_geom_bond_distance
_geom_bond_site_symmetry_2
_ccdc_geom_bond_type
Gd0 N31 2.661 . S
Gd0 N37 2.601 . S
Gd0 O44 2.545 . S
Gd0 O45 2.606 1_565 S
Gd0 O47 2.429 . S
Gd0 O48 2.545 1_565 S
Gd0 O49 2.412 . S
Gd0 O51 2.362 . S
Gd0 O52 2.324 . S
Gd0 C59 2.828 . S
Gd1 N10 2.661 . S
Gd1 N14 2.601 . S
Gd1 O45 2.362 . S
Gd1 O46 2.324 . S
Gd1 O50 2.545 . S
Gd1 O51 2.606 1_545 S
Gd1 O53 2.429 . S
Gd1 O54 2.545 . S
Gd1 O55 2.412 . S
Gd1 C68 2.828 . S
C2 C5 1.417 . S
C2 C7 1.431 . S
C2 C8 1.412 . S
C3 C6 1.437 . S
C3 C7 1.317 . S
C3 H22 0.929 . S
C4 C5 1.426 . S
C4 C6 1.413 . S
C4 N14 1.359 . S
C5 C2 1.417 . S
C5 C4 1.426 . S
C5 N10 1.350 . S
C6 C3 1.437 . S
C6 C4 1.413 . S
C6 C16 1.391 . S
C7 C2 1.431 . S
C7 C3 1.317 . S
C7 H18 0.930 . S
C8 C2 1.412 . S
C8 C9 1.355 . S
C8 H20 0.930 . S
C9 C8 1.355 . S
C9 C11 1.402 . S
C9 H21 0.930 . S
N10 Gd1 2.661 . S
N10 C5 1.350 . S
N10 C11 1.307 . S
C11 C9 1.402 . S
C11 N10 1.307 . S
C11 H12 0.930 . S
H12 C11 0.930 . S
C13 N14 1.334 . S
C13 C15 1.394 . S
C13 H17 0.930 . S
N14 Gd1 2.601 . S
N14 C4 1.359 . S
N14 C13 1.334 . S
C15 C13 1.394 . S
C15 C16 1.359 . S
C15 H27 0.930 . S
C16 C6 1.391 . S
C16 C15 1.359 . S
C16 H28 0.929 . S
H17 C13 0.930 . S
H18 C7 0.930 . S
H19 C36 0.930 . S
H20 C8 0.930 . S
H21 C9 0.930 . S
H22 C3 0.929 . S
H23 C41 0.930 . S
H24 C32 0.930 1_556 S
H25 C33 0.930 . S
H26 C57 0.926 1_556 S
H27 C15 0.930 . S
H28 C16 0.929 . S
H29 C58 0.930 1_556 S
H30 C39 0.930 . S
N31 Gd0 2.661 . S
N31 C35 1.350 . S
N31 C36 1.307 . S
C32 H24 0.930 1_554 S
C32 C33 1.355 . S
C32 C34 1.412 . S
C33 H25 0.930 . S
C33 C32 1.355 . S
C33 C36 1.402 . S
C34 C32 1.412 . S
C34 C35 1.417 . S
C34 C58 1.431 . S
C35 N31 1.350 . S
C35 C34 1.417 . S
C35 C38 1.426 . S
C36 H19 0.930 . S
C36 N31 1.307 . S
C36 C33 1.402 . S
N37 Gd0 2.601 . S
N37 C38 1.359 . S
N37 C41 1.334 . S
C38 C35 1.426 . S
C38 N37 1.359 . S
C38 C42 1.413 . S
C39 H30 0.930 . S
C39 C40 1.359 . S
C39 C41 1.394 . S
C40 C39 1.359 . S
C40 C42 1.391 . S
C40 H43 0.929 . S
C41 H23 0.930 . S
C41 N37 1.334 . S
C41 C39 1.394 . S
C42 C38 1.413 . S
C42 C40 1.391 . S
C42 C57 1.437 . S
H43 C40 0.929 . S
O44 Gd0 2.545 . S
O44 C59 1.258 . S
O45 Gd0 2.606 1_545 S
O45 Gd1 2.362 . S
O45 C56 1.284 . S
O46 Gd1 2.324 . S
O46 C66 1.254 . S
O47 Gd0 2.429 . S
O47 C66 1.268 1_565 S
O48 Gd0 2.545 1_545 S
O48 C56 1.250 . S
O49 Gd0 2.412 . S
O49 C59 1.252 . S
O50 Gd1 2.545 . S
O50 C68 1.258 . S
O51 Gd0 2.362 . S
O51 Gd1 2.606 1_565 S
O51 C67 1.284 . S
O52 Gd0 2.324 . S
O52 C75 1.254 1_565 S
O53 Gd1 2.429 . S
O53 C75 1.268 . S
O54 Gd1 2.545 . S
O54 C67 1.250 1_545 S
O55 Gd1 2.412 . S
O55 C68 1.252 . S
C56 O45 1.284 . S
C56 O48 1.250 . S
C57 H26 0.926 1_554 S
C57 C42 1.437 . S
C57 C58 1.317 . S
C58 H29 0.930 1_554 S
C58 C34 1.431 . S
C58 C57 1.317 . S
C59 Gd0 2.828 . S
C59 O44 1.258 . S
C59 O49 1.252 . S
C59 C60 1.497 . S
C60 C59 1.497 . S
C60 C61 1.395 . S
C60 C62 1.380 . S
C61 C60 1.395 . S
C61 C64 1.398 . S
C61 H76 0.930 . S
C62 C60 1.380 . S
C62 C63 1.391 . S
C62 H77 0.930 . S
C63 C62 1.391 . S
C63 C65 1.387 . S
C64 C61 1.398 . S
C64 C65 1.380 . S
C64 H78 0.930 . S
C65 C63 1.387 . S
C65 C64 1.380 . S
C65 H79 0.930 . S
C66 O46 1.254 . S
C66 O47 1.268 1_545 S
C67 O51 1.284 . S
C67 O54 1.250 1_565 S
C68 Gd1 2.828 . S
C68 O50 1.258 . S
C68 O55 1.252 . S
C68 C69 1.497 . S
C69 C68 1.497 . S
C69 C70 1.395 . S
C69 C71 1.380 . S
C70 C69 1.395 . S
C70 C73 1.398 . S
C70 H80 0.930 . S
C71 C69 1.380 . S
C71 C72 1.391 . S
C71 H81 0.930 . S
C72 C71 1.391 . S
C72 C74 1.387 . S
C73 C70 1.398 . S
C73 C74 1.380 . S
C73 H82 0.930 . S
C74 C72 1.387 . S
C74 C73 1.380 . S
C74 H83 0.930 . S
C75 O52 1.254 1_545 S
C75 O53 1.268 . S
H76 C61 0.930 . S
H77 C62 0.930 . S
H78 C64 0.930 . S
H79 C65 0.930 . S
H80 C70 0.930 . S
H81 C71 0.930 . S
H82 C73 0.930 . S
H83 C74 0.930 . S
Gd84 N115 2.661 . S
Gd84 N121 2.601 . S
Gd84 O128 2.545 . S
Gd84 O129 2.606 . S
Gd84 O131 2.429 . S
Gd84 O132 2.545 . S
Gd84 O133 2.412 . S
Gd84 O135 2.362 . S
Gd84 O136 2.324 . S
Gd84 C143 2.828 . S
Gd85 N94 2.661 . S
Gd85 N98 2.601 . S
Gd85 O129 2.362 . S
Gd85 O130 2.324 . S
Gd85 O134 2.545 . S
Gd85 O135 2.606 . S
Gd85 O137 2.429 . S
Gd85 O138 2.545 . S
Gd85 O139 2.412 . S
Gd85 C152 2.828 . S
C86 C89 1.417 . S
C86 C91 1.431 . S
C86 C92 1.412 . S
C87 C90 1.437 . S
C87 C91 1.317 . S
C87 H106 0.929 . S
C88 C89 1.426 . S
C88 C90 1.413 . S
C88 N98 1.359 1_655 S
C89 C86 1.417 . S
C89 C88 1.426 . S
C89 N94 1.350 1_655 S
C90 C87 1.437 . S
C90 C88 1.413 . S
C90 C100 1.391 . S
C91 C86 1.431 . S
C91 C87 1.317 . S
C91 H102 0.930 . S
C92 C86 1.412 . S
C92 C93 1.355 . S
C92 H104 0.930 . S
C93 C92 1.355 . S
C93 C95 1.402 1_655 S
C93 H105 0.930 . S
N94 Gd85 2.661 . S
N94 C89 1.350 1_455 S
N94 C95 1.307 . S
C95 C93 1.402 1_455 S
C95 N94 1.307 . S
C95 H96 0.930 . S
H96 C95 0.930 . S
C97 N98 1.334 . S
C97 C99 1.394 1_455 S
C97 H101 0.930 . S
N98 Gd85 2.601 . S
N98 C88 1.359 1_455 S
N98 C97 1.334 . S
C99 C97 1.394 1_655 S
C99 C100 1.359 . S
C99 H111 0.930 . S
C100 C90 1.391 . S
C100 C99 1.359 . S
C100 H112 0.929 . S
H101 C97 0.930 . S
H102 C91 0.930 . S
H103 C120 0.930 . S
H104 C92 0.930 . S
H105 C93 0.930 . S
H106 C87 0.929 . S
H107 C125 0.930 . S
H108 C116 0.930 . S
H109 C117 0.930 . S
H110 C141 0.929 . S
H111 C99 0.930 . S
H112 C100 0.929 . S
H113 C142 0.930 . S
H114 C123 0.930 . S
N115 Gd84 2.661 . S
N115 C119 1.350 . S
N115 C120 1.307 . S
C116 H108 0.930 . S
C116 C117 1.355 . S
C116 C118 1.412 . S
C117 H109 0.930 . S
C117 C116 1.355 . S
C117 C120 1.402 . S
C118 C116 1.412 . S
C118 C119 1.417 . S
C118 C142 1.431 . S
C119 N115 1.350 . S
C119 C118 1.417 . S
C119 C122 1.426 . S
C120 H103 0.930 . S
C120 N115 1.307 . S
C120 C117 1.402 . S
N121 Gd84 2.601 . S
N121 C122 1.359 . S
N121 C125 1.334 . S
C122 C119 1.426 . S
C122 N121 1.359 . S
C122 C126 1.413 . S
C123 H114 0.930 . S
C123 C124 1.359 . S
C123 C125 1.394 . S
C124 C123 1.359 . S
C124 C126 1.391 . S
C124 H127 0.929 . S
C125 H107 0.930 . S
C125 N121 1.334 . S
C125 C123 1.394 . S
C126 C122 1.413 . S
C126 C124 1.391 . S
C126 C141 1.437 . S
H127 C124 0.929 . S
O128 Gd84 2.545 . S
O128 C143 1.258 . S
O129 Gd84 2.606 . S
O129 Gd85 2.362 . S
O129 C140 1.284 . S
O130 Gd85 2.324 . S
O130 C150 1.254 . S
O131 Gd84 2.429 . S
O131 C150 1.268 . S
O132 Gd84 2.545 . S
O132 C140 1.250 . S
O133 Gd84 2.412 . S
O133 C143 1.252 . S
O134 Gd85 2.545 . S
O134 C152 1.258 . S
O135 Gd84 2.362 . S
O135 Gd85 2.606 . S
O135 C151 1.284 . S
O136 Gd84 2.324 . S
O136 C159 1.254 . S
O137 Gd85 2.429 . S
O137 C159 1.268 . S
O138 Gd85 2.545 . S
O138 C151 1.250 . S
O139 Gd85 2.412 . S
O139 C152 1.252 . S
C140 O129 1.284 . S
C140 O132 1.250 . S
C141 H110 0.929 . S
C141 C126 1.437 . S
C141 C142 1.317 . S
C142 H113 0.930 . S
C142 C118 1.431 . S
C142 C141 1.317 . S
C143 Gd84 2.828 . S
C143 O128 1.258 . S
C143 O133 1.252 . S
C143 C144 1.497 . S
C144 C143 1.497 . S
C144 C145 1.395 . S
C144 C146 1.380 . S
C145 C144 1.395 . S
C145 C148 1.398 . S
C145 H160 0.930 . S
C146 C144 1.380 . S
C146 C147 1.391 . S
C146 H161 0.930 . S
C147 C146 1.391 . S
C147 C149 1.387 . S
C148 C145 1.398 . S
C148 C149 1.380 . S
C148 H162 0.930 . S
C149 C147 1.387 . S
C149 C148 1.380 . S
C149 H163 0.930 . S
C150 O130 1.254 . S
C150 O131 1.268 . S
C151 O135 1.284 . S
C151 O138 1.250 . S
C152 Gd85 2.828 . S
C152 O134 1.258 . S
C152 O139 1.252 . S
C152 C153 1.497 . S
C153 C152 1.497 . S
C153 C154 1.395 1_455 S
C153 C155 1.380 . S
C154 C153 1.395 1_655 S
C154 C157 1.398 . S
C154 H164 0.930 . S
C155 C153 1.380 . S
C155 C156 1.391 1_455 S
C155 H165 0.930 . S
C156 C155 1.391 1_655 S
C156 C158 1.387 . S
C157 C154 1.398 . S
C157 C158 1.380 . S
C157 H166 0.930 . S
C158 C156 1.387 . S
C158 C157 1.380 . S
C158 H167 0.930 . S
C159 O136 1.254 . S
C159 O137 1.268 . S
H160 C145 0.930 . S
H161 C146 0.930 . S
H162 C148 0.930 . S
H163 C149 0.930 . S
H164 C154 0.930 . S
H165 C155 0.930 . S
H166 C157 0.930 . S
H167 C158 0.930 . S
Gd168 N199 2.661 1_545 S
Gd168 N205 2.601 1_545 S
Gd168 O212 2.545 1_545 S
Gd168 O213 2.606 . S
Gd168 O215 2.429 1_655 S
Gd168 O216 2.545 . S
Gd168 O217 2.412 1_545 S
Gd168 O219 2.362 . S
Gd168 O220 2.324 . S
Gd168 C227 2.828 1_545 S
Gd169 N178 2.661 . S
Gd169 N182 2.601 . S
Gd169 O213 2.362 . S
Gd169 O214 2.324 1_655 S
Gd169 O218 2.545 . S
Gd169 O219 2.606 . S
Gd169 O221 2.429 . S
Gd169 O222 2.545 1_554 S
Gd169 O223 2.412 . S
Gd169 C236 2.828 . S
C170 C173 1.417 . S
C170 C175 1.432 . S
C170 C176 1.410 1_655 S
C171 C174 1.437 . S
C171 C175 1.317 . S
C171 H190 0.929 . S
C172 C173 1.426 . S
C172 C174 1.413 . S
C172 N182 1.359 . S
C173 C170 1.417 . S
C173 C172 1.426 . S
C173 N178 1.350 . S
C174 C171 1.437 . S
C174 C172 1.413 . S
C174 C184 1.391 . S
C175 C170 1.432 . S
C175 C171 1.317 . S
C175 H186 0.930 . S
C176 C170 1.410 1_455 S
C176 C177 1.355 . S
C176 H188 0.930 . S
C177 C176 1.355 . S
C177 C179 1.402 . S
C177 H189 0.930 . S
N178 Gd169 2.661 . S
N178 C173 1.350 . S
N178 C179 1.307 1_655 S
C179 C177 1.402 . S
C179 N178 1.307 1_455 S
C179 H180 0.930 . S
H180 C179 0.930 . S
C181 N182 1.334 . S
C181 C183 1.394 . S
C181 H185 0.930 . S
N182 Gd169 2.601 . S
N182 C172 1.359 . S
N182 C181 1.334 . S
C183 C181 1.394 . S
C183 C184 1.359 . S
C183 H195 0.930 . S
C184 C174 1.391 . S
C184 C183 1.359 . S
C184 H196 0.929 . S
H185 C181 0.930 . S
H186 C175 0.930 . S
H187 C204 0.930 1_554 S
H188 C176 0.930 . S
H189 C177 0.930 . S
H190 C171 0.929 . S
H191 C209 0.930 . S
H192 C200 0.930 . S
H193 C201 0.930 . S
H194 C225 0.929 . S
H195 C183 0.930 . S
H196 C184 0.929 . S
H197 C226 0.930 . S
H198 C207 0.930 . S
N199 Gd168 2.661 1_565 S
N199 C203 1.350 1_554 S
N199 C204 1.307 1_554 S
C200 H192 0.930 . S
C200 C201 1.355 . S
C200 C202 1.412 . S
C201 H193 0.930 . S
C201 C200 1.355 . S
C201 C204 1.402 . S
C202 C200 1.412 . S
C202 C203 1.417 . S
C202 C226 1.431 . S
C203 N199 1.350 1_556 S
C203 C202 1.417 . S
C203 C206 1.426 . S
C204 H187 0.930 1_556 S
C204 N199 1.307 1_556 S
C204 C201 1.402 . S
N205 Gd168 2.601 1_565 S
N205 C206 1.359 1_554 S
N205 C209 1.334 1_655 S
C206 C203 1.426 . S
C206 N205 1.359 1_556 S
C206 C210 1.413 . S
C207 H198 0.930 . S
C207 C208 1.359 1_554 S
C207 C209 1.394 . S
C208 C207 1.359 1_556 S
C208 C210 1.391 1_455 S
C208 H211 0.929 . S
C209 H191 0.930 . S
C209 N205 1.334 1_455 S
C209 C207 1.394 . S
C210 C206 1.413 . S
C210 C208 1.391 1_655 S
C210 C225 1.437 . S
H211 C208 0.929 . S
O212 Gd168 2.545 1_565 S
O212 C227 1.258 . S
O213 Gd168 2.606 . S
O213 Gd169 2.362 . S
O213 C224 1.284 . S
O214 Gd169 2.324 1_455 S
O214 C234 1.254 . S
O215 Gd168 2.429 1_455 S
O215 C234 1.268 . S
O216 Gd168 2.545 . S
O216 C224 1.250 . S
O217 Gd168 2.412 1_565 S
O217 C227 1.252 . S
O218 Gd169 2.545 . S
O218 C236 1.258 . S
O219 Gd168 2.362 . S
O219 Gd169 2.606 . S
O219 C235 1.284 1_554 S
O220 Gd168 2.324 . S
O220 C243 1.254 . S
O221 Gd169 2.429 . S
O221 C243 1.268 . S
O222 Gd169 2.545 1_556 S
O222 C235 1.250 . S
O223 Gd169 2.412 . S
O223 C236 1.252 . S
C224 O213 1.284 . S
C224 O216 1.250 . S
C225 H194 0.929 . S
C225 C210 1.437 . S
C225 C226 1.317 . S
C226 H197 0.930 . S
C226 C202 1.431 . S
C226 C225 1.317 . S
C227 Gd168 2.828 1_565 S
C227 O212 1.258 . S
C227 O217 1.252 . S
C227 C228 1.497 . S
C228 C227 1.497 . S
C228 C229 1.395 . S
C228 C230 1.380 . S
C229 C228 1.395 . S
C229 C232 1.398 . S
C229 H244 0.930 . S
C230 C228 1.380 . S
C230 C231 1.391 . S
C230 H245 0.930 . S
C231 C230 1.391 . S
C231 C233 1.387 . S
C232 C229 1.398 . S
C232 C233 1.380 . S
C232 H246 0.930 . S
C233 C231 1.387 . S
C233 C232 1.380 . S
C233 H247 0.930 . S
C234 O214 1.254 . S
C234 O215 1.268 . S
C235 O219 1.284 1_556 S
C235 O222 1.250 . S
C236 Gd169 2.828 . S
C236 O218 1.258 . S
C236 O223 1.252 . S
C236 C237 1.497 1_554 S
C237 C236 1.497 1_556 S
C237 C238 1.395 . S
C237 C239 1.380 . S
C238 C237 1.395 . S
C238 C241 1.398 . S
C238 H248 0.930 1_556 S
C239 C237 1.380 . S
C239 C240 1.391 1_655 S
C239 H249 0.930 1_655 S
C240 C239 1.391 1_455 S
C240 C242 1.388 1_455 S
C241 C238 1.398 . S
C241 C242 1.380 . S
C241 H250 0.930 . S
C242 C240 1.388 1_655 S
C242 C241 1.380 . S
C242 H251 0.930 . S
C243 O220 1.254 . S
C243 O221 1.268 . S
H244 C229 0.930 . S
H245 C230 0.930 . S
H246 C232 0.930 . S
H247 C233 0.930 . S
H248 C238 0.930 1_554 S
H249 C239 0.930 1_455 S
H250 C241 0.930 . S
H251 C242 0.930 . S
Gd252 N283 2.661 . S
Gd252 N289 2.601 . S
Gd252 O296 2.545 . S
Gd252 O297 2.606 1_455 S
Gd252 O299 2.429 . S
Gd252 O300 2.545 . S
Gd252 O301 2.412 . S
Gd252 O303 2.362 . S
Gd252 O304 2.324 . S
Gd252 C311 2.828 . S
Gd253 N262 2.661 . S
Gd253 N266 2.601 . S
Gd253 O297 2.362 . S
Gd253 O298 2.324 . S
Gd253 O302 2.545 . S
Gd253 O303 2.606 1_655 S
Gd253 O305 2.429 . S
Gd253 O306 2.545 1_655 S
Gd253 O307 2.412 . S
Gd253 C320 2.828 . S
C254 C257 1.417 . S
C254 C259 1.431 . S
C254 C260 1.412 . S
C255 C258 1.437 . S
C255 C259 1.317 . S
C255 H274 0.929 . S
C256 C257 1.426 . S
C256 C258 1.413 . S
C256 N266 1.359 . S
C257 C254 1.417 . S
C257 C256 1.426 . S
C257 N262 1.350 . S
C258 C255 1.437 . S
C258 C256 1.413 . S
C258 C268 1.391 . S
C259 C254 1.431 . S
C259 C255 1.317 . S
C259 H270 0.930 . S
C260 C254 1.412 . S
C260 C261 1.355 . S
C260 H272 0.930 . S
C261 C260 1.355 . S
C261 C263 1.402 . S
C261 H273 0.930 1_565 S
N262 Gd253 2.661 . S
N262 C257 1.350 . S
N262 C263 1.307 . S
C263 C261 1.402 . S
C263 N262 1.307 . S
C263 H264 0.930 . S
H264 C263 0.930 . S
C265 N266 1.334 . S
C265 C267 1.394 . S
C265 H269 0.930 . S
N266 Gd253 2.601 . S
N266 C256 1.359 . S
N266 C265 1.334 . S
C267 C265 1.394 . S
C267 C268 1.359 . S
C267 H279 0.930 . S
C268 C258 1.391 . S
C268 C267 1.359 . S
C268 H280 0.929 . S
H269 C265 0.930 . S
H270 C259 0.930 . S
H271 C288 0.930 . S
H272 C260 0.930 . S
H273 C261 0.930 1_545 S
H274 C255 0.929 . S
H275 C293 0.930 . S
H276 C284 0.930 . S
H277 C285 0.930 . S
H278 C309 0.929 . S
H279 C267 0.930 . S
H280 C268 0.929 . S
H281 C310 0.930 . S
H282 C291 0.930 . S
N283 Gd252 2.661 . S
N283 C287 1.350 . S
N283 C288 1.307 . S
C284 H276 0.930 . S
C284 C285 1.355 . S
C284 C286 1.412 . S
C285 H277 0.930 . S
C285 C284 1.355 . S
C285 C288 1.402 . S
C286 C284 1.412 . S
C286 C287 1.417 . S
C286 C310 1.431 . S
C287 N283 1.350 . S
C287 C286 1.417 . S
C287 C290 1.426 . S
C288 H271 0.930 . S
C288 N283 1.307 . S
C288 C285 1.402 . S
N289 Gd252 2.601 . S
N289 C290 1.359 . S
N289 C293 1.334 1_565 S
C290 C287 1.426 . S
C290 N289 1.359 . S
C290 C294 1.413 . S
C291 H282 0.930 . S
C291 C292 1.359 . S
C291 C293 1.394 . S
C292 C291 1.359 . S
C292 C294 1.391 1_545 S
C292 H295 0.929 . S
C293 H275 0.930 . S
C293 N289 1.334 1_545 S
C293 C291 1.394 . S
C294 C290 1.413 . S
C294 C292 1.391 1_565 S
C294 C309 1.437 . S
H295 C292 0.929 . S
O296 Gd252 2.545 . S
O296 C311 1.258 . S
O297 Gd252 2.606 1_655 S
O297 Gd253 2.362 . S
O297 C308 1.284 . S
O298 Gd253 2.324 . S
O298 C318 1.254 1_655 S
O299 Gd252 2.429 . S
O299 C318 1.268 . S
O300 Gd252 2.545 . S
O300 C308 1.250 1_455 S
O301 Gd252 2.412 . S
O301 C311 1.252 . S
O302 Gd253 2.545 . S
O302 C320 1.258 . S
O303 Gd252 2.362 . S
O303 Gd253 2.606 1_455 S
O303 C319 1.284 . S
O304 Gd252 2.324 . S
O304 C327 1.254 . S
O305 Gd253 2.429 . S
O305 C327 1.268 1_655 S
O306 Gd253 2.545 1_455 S
O306 C319 1.250 . S
O307 Gd253 2.412 . S
O307 C320 1.252 . S
C308 O297 1.284 . S
C308 O300 1.250 1_655 S
C309 H278 0.929 . S
C309 C294 1.437 . S
C309 C310 1.317 . S
C310 H281 0.930 . S
C310 C286 1.431 . S
C310 C309 1.317 . S
C311 Gd252 2.828 . S
C311 O296 1.258 . S
C311 O301 1.252 . S
C311 C312 1.497 . S
C312 C311 1.497 . S
C312 C313 1.395 . S
C312 C314 1.380 . S
C313 C312 1.395 . S
C313 C316 1.398 . S
C313 H328 0.930 1_565 S
C314 C312 1.380 . S
C314 C315 1.391 . S
C314 H329 0.930 . S
C315 C314 1.391 . S
C315 C317 1.387 . S
C316 C313 1.398 . S
C316 C317 1.380 . S
C316 H330 0.930 1_565 S
C317 C315 1.387 . S
C317 C316 1.380 . S
C317 H331 0.930 . S
C318 O298 1.254 1_455 S
C318 O299 1.268 . S
C319 O303 1.284 . S
C319 O306 1.250 . S
C320 Gd253 2.828 . S
C320 O302 1.258 . S
C320 O307 1.252 . S
C320 C321 1.497 . S
C321 C320 1.497 . S
C321 C322 1.395 . S
C321 C323 1.380 . S
C322 C321 1.395 . S
C322 C325 1.398 . S
C322 H332 0.930 . S
C323 C321 1.380 . S
C323 C324 1.391 . S
C323 H333 0.930 . S
C324 C323 1.391 . S
C324 C326 1.387 . S
C325 C322 1.398 . S
C325 C326 1.380 . S
C325 H334 0.930 . S
C326 C324 1.387 . S
C326 C325 1.380 . S
C326 H335 0.930 . S
C327 O304 1.254 . S
C327 O305 1.268 1_455 S
H328 C313 0.930 1_545 S
H329 C314 0.930 . S
H330 C316 0.930 1_545 S
H331 C317 0.930 . S
H332 C322 0.930 . S
H333 C323 0.930 . S
H334 C325 0.930 . S
H335 C326 0.930 . S
C336 C337 1.369 . S
C336 C338 1.419 1_545 S
C336 H340 0.930 1_545 S
C337 C336 1.369 . S
C337 C346 1.429 . S
C338 C336 1.419 1_565 S
C338 C339 1.363 1_565 S
C338 H341 0.929 . S
C339 C338 1.363 1_545 S
C339 C345 1.428 . S
H340 C336 0.930 1_565 S
H341 C338 0.929 . S
S342 N343 1.613 . S
S342 N344 1.610 . S
N343 S342 1.613 . S
N343 C346 1.350 . S
N344 S342 1.610 . S
N344 C345 1.351 . S
C345 C339 1.428 . S
C345 N344 1.351 . S
C345 C346 1.434 . S
C346 C337 1.429 . S
C346 N343 1.350 . S
C346 C345 1.434 . S
C347 C348 1.369 . S
C347 C349 1.419 . S
C347 H351 0.930 1_545 S
C348 C347 1.369 . S
C348 C357 1.429 . S
C349 C347 1.419 . S
C349 C350 1.363 . S
C349 H352 0.929 . S
C350 C349 1.363 . S
C350 C356 1.428 . S
H351 C347 0.930 1_565 S
H352 C349 0.929 . S
S353 N354 1.613 . S
S353 N355 1.610 . S
N354 S353 1.613 . S
N354 C357 1.350 . S
N355 S353 1.610 . S
N355 C356 1.351 . S
C356 C350 1.428 . S
C356 N355 1.351 . S
C356 C357 1.434 . S
C357 C348 1.429 . S
C357 N354 1.350 . S
C357 C356 1.434 . S
C358 C359 1.369 . S
C358 C360 1.419 . S
C358 H362 0.930 . S
C359 C358 1.369 . S
C359 C368 1.429 . S
C360 C358 1.419 . S
C360 C361 1.363 . S
C360 H363 0.929 . S
C361 C360 1.363 . S
C361 C367 1.428 . S
H362 C358 0.930 . S
H363 C360 0.929 . S
S364 N365 1.613 1_565 S
S364 N366 1.610 . S
N365 S364 1.613 1_545 S
N365 C368 1.350 . S
N366 S364 1.610 . S
N366 C367 1.351 1_565 S
C367 C361 1.428 . S
C367 N366 1.351 1_545 S
C367 C368 1.434 . S
C368 C359 1.429 . S
C368 N365 1.350 . S
C368 C367 1.434 . S
C369 C370 1.369 . S
C369 C371 1.419 . S
C369 H373 0.930 . S
C370 C369 1.369 . S
C370 C379 1.429 . S
C371 C369 1.419 . S
C371 C372 1.363 . S
C371 H374 0.929 . S
C372 C371 1.363 . S
C372 C378 1.428 . S
H373 C369 0.930 . S
H374 C371 0.929 . S
S375 N376 1.613 . S
S375 N377 1.610 . S
N376 S375 1.613 . S
N376 C379 1.350 . S
N377 S375 1.610 . S
N377 C378 1.351 . S
C378 C372 1.428 . S
C378 N377 1.351 . S
C378 C379 1.434 . S
C379 C370 1.429 . S
C379 N376 1.350 . S
C379 C378 1.434 . S
C380 C381 1.369 . S
C380 C382 1.419 . S
C380 H384 0.930 . S
C381 C380 1.369 . S
C381 C390 1.429 . S
C382 C380 1.419 . S
C382 C383 1.363 . S
C382 H385 0.929 . S
C383 C382 1.363 . S
C383 C389 1.428 . S
H384 C380 0.930 . S
H385 C382 0.929 . S
S386 N387 1.613 . S
S386 N388 1.610 . S
N387 S386 1.613 . S
N387 C390 1.350 . S
N388 S386 1.610 . S
N388 C389 1.351 . S
C389 C383 1.428 . S
C389 N388 1.351 . S
C389 C390 1.434 . S
C390 C381 1.429 . S
C390 N387 1.350 . S
C390 C389 1.434 . S
C391 C392 1.369 . S
C391 C393 1.419 . S
C391 H395 0.930 . S
C392 C391 1.369 . S
C392 C401 1.429 . S
C393 C391 1.419 . S
C393 C394 1.363 . S
C393 H396 0.929 . S
C394 C393 1.363 . S
C394 C400 1.428 . S
H395 C391 0.930 . S
H396 C393 0.929 . S
S397 N398 1.613 1_655 S
S397 N399 1.610 . S
N398 S397 1.613 1_455 S
N398 C401 1.350 . S
N399 S397 1.610 . S
N399 C400 1.351 1_655 S
C400 C394 1.428 . S
C400 N399 1.351 1_455 S
C400 C401 1.434 . S
C401 C392 1.429 . S
C401 N398 1.350 . S
C401 C400 1.434 . S
C402 C403 1.369 . S
C402 C404 1.419 . S
C402 H406 0.930 . S
C403 C402 1.369 . S
C403 C412 1.429 . S
C404 C402 1.419 . S
C404 C405 1.363 . S
C404 H407 0.929 . S
C405 C404 1.363 . S
C405 C411 1.428 . S
H406 C402 0.930 . S
H407 C404 0.929 . S
S408 N409 1.613 . S
S408 N410 1.610 . S
N409 S408 1.613 . S
N409 C412 1.350 . S
N410 S408 1.610 . S
N410 C411 1.351 . S
C411 C405 1.428 . S
C411 N410 1.351 . S
C411 C412 1.434 . S
C412 C403 1.429 . S
C412 N409 1.350 . S
C412 C411 1.434 . S
C413 C414 1.369 . S
C413 C415 1.419 1_556 S
C413 H417 0.930 . S
C414 C413 1.369 . S
C414 C423 1.429 . S
C415 C413 1.419 1_554 S
C415 C416 1.363 . S
C415 H418 0.929 1_565 S
C416 C415 1.363 . S
C416 C422 1.428 . S
H417 C413 0.930 . S
H418 C415 0.929 1_545 S
S419 N420 1.613 . S
S419 N421 1.610 1_556 S
N420 S419 1.613 . S
N420 C423 1.350 . S
N421 S419 1.610 1_554 S
N421 C422 1.351 . S
C422 C416 1.428 . S
C422 N421 1.351 . S
C422 C423 1.434 1_554 S
C423 C414 1.429 . S
C423 N420 1.350 . S
C423 C422 1.434 1_556 S
C424 C425 1.369 . S
C424 C426 1.419 . S
C424 H428 0.933 1_565 S
C425 C424 1.369 . S
C425 C434 1.429 . S
C426 C424 1.419 . S
C426 C427 1.363 . S
C426 H429 0.929 1_655 S
C427 C426 1.363 . S
C427 C433 1.428 . S
H428 C424 0.933 1_545 S
H429 C426 0.929 1_455 S
S430 N431 1.613 . S
S430 N432 1.610 . S
N431 S430 1.613 . S
N431 C434 1.350 . S
N432 S430 1.610 . S
N432 C433 1.351 . S
C433 C427 1.428 . S
C433 N432 1.351 . S
C433 C434 1.434 . S
C434 C425 1.429 . S
C434 N431 1.350 . S
C434 C433 1.434 . S
C435 C436 1.369 . S
C435 C437 1.419 . S
C435 H439 0.930 . S
C436 C435 1.369 . S
C436 C445 1.429 . S
C437 C435 1.419 . S
C437 C438 1.363 . S
C437 H440 0.929 . S
C438 C437 1.363 . S
C438 C444 1.428 . S
H439 C435 0.930 . S
H440 C437 0.929 . S
S441 N442 1.613 . S
S441 N443 1.610 . S
N442 S441 1.613 . S
N442 C445 1.350 . S
N443 S441 1.610 . S
N443 C444 1.351 . S
C444 C438 1.428 . S
C444 N443 1.351 . S
C444 C445 1.434 . S
C445 C436 1.429 . S
C445 N442 1.350 . S
C445 C444 1.434 . S
C446 C447 1.369 . S
C446 C448 1.419 . S
C446 H450 0.930 . S
C447 C446 1.369 . S
C447 C456 1.429 . S
C448 C446 1.419 . S
C448 C449 1.363 1_556 S
C448 H451 0.929 . S
C449 C448 1.363 1_554 S
C449 C455 1.428 . S
H450 C446 0.930 . S
H451 C448 0.929 . S
S452 N453 1.613 . S
S452 N454 1.610 . S
N453 S452 1.613 . S
N453 C456 1.350 1_554 S
N454 S452 1.610 . S
N454 C455 1.351 . S
C455 C449 1.428 . S
C455 N454 1.351 . S
C455 C456 1.434 1_554 S
C456 C447 1.429 . S
C456 N453 1.350 1_556 S
C456 C455 1.434 1_556 S
C457 C458 1.369 . S
C457 C459 1.419 . S
C457 H461 0.930 . S
C458 C457 1.369 . S
C458 C467 1.429 . S
C459 C457 1.419 . S
C459 C460 1.363 . S
C459 H462 0.929 . S
C460 C459 1.363 . S
C460 C466 1.428 1_655 S
H461 C457 0.930 . S
H462 C459 0.929 . S
S463 N464 1.613 . S
S463 N465 1.610 . S
N464 S463 1.613 . S
N464 C467 1.350 1_455 S
N465 S463 1.610 . S
N465 C466 1.351 . S
C466 C460 1.428 1_455 S
C466 N465 1.351 . S
C466 C467 1.434 1_455 S
C467 C458 1.429 . S
C467 N464 1.350 1_655 S
C467 C466 1.434 1_655 S
C337 C234 1.408 . S
C339 C75 1.410 . S
C348 C318 1.293 1_545 S
C350 C159 1.293 . S
C359 C243 1.443 . S
C361 C66 1.452 . S
C370 C150 1.551 . S
C372 C327 1.553 . S
C381 C151 1.941 . S
C383 C56 2.116 . S
C392 C140 1.928 . S
C394 C240 1.966 . S
C403 C324 1.178 . S
C405 C231 0.981 . S
C414 C315 0.899 . S
C416 C67 1.018 . S
C425 C235 2.118 1_565 S
C427 C308 1.940 . S
C436 C63 1.971 . S
C438 C319 1.928 . S
C447 C147 1.180 . S
C449 C72 0.963 . S
C458 C224 1.011 . S
C460 C156 0.893 . S
