# Generated by pormake.
# Topology sra, (4)-cn, num edge types: 1
# Building blocks:
#     Node 0, Type 0, BuildingBlock: NAHDIM_clean_sbu_0, # of connection points: 4
#     Node 1, Type 0, BuildingBlock: NAHDIM_clean_sbu_0, # of connection points: 4
#     Node 2, Type 0, BuildingBlock: NAHDIM_clean_sbu_0, # of connection points: 4
#     Node 3, Type 0, BuildingBlock: NAHDIM_clean_sbu_0, # of connection points: 4
#     Node 4, Type 0, BuildingBlock: NAHDIM_clean_sbu_0, # of connection points: 4
#     Node 5, Type 0, BuildingBlock: NAHDIM_clean_sbu_0, # of connection points: 4
#     Node 6, Type 0, BuildingBlock: NAHDIM_clean_sbu_0, # of connection points: 4
#     Node 7, Type 0, BuildingBlock: NAHDIM_clean_sbu_0, # of connection points: 4
#     Edge 8, Type (0, 0), BuildingBlock: CIFDUS_clean_linker_0, # of connection points: 2
#     Edge 9, Type (0, 0), BuildingBlock: CIFDUS_clean_linker_0, # of connection points: 2
#     Edge 10, Type (0, 0), BuildingBlock: CIFDUS_clean_linker_0, # of connection points: 2
#     Edge 11, Type (0, 0), BuildingBlock: CIFDUS_clean_linker_0, # of connection points: 2
#     Edge 12, Type (0, 0), BuildingBlock: CIFDUS_clean_linker_0, # of connection points: 2
#     Edge 13, Type (0, 0), BuildingBlock: CIFDUS_clean_linker_0, # of connection points: 2
#     Edge 14, Type (0, 0), BuildingBlock: CIFDUS_clean_linker_0, # of connection points: 2
#     Edge 15, Type (0, 0), BuildingBlock: CIFDUS_clean_linker_0, # of connection points: 2
#     Edge 16, Type (0, 0), BuildingBlock: CIFDUS_clean_linker_0, # of connection points: 2
#     Edge 17, Type (0, 0), BuildingBlock: CIFDUS_clean_linker_0, # of connection points: 2
#     Edge 18, Type (0, 0), BuildingBlock: CIFDUS_clean_linker_0, # of connection points: 2
#     Edge 19, Type (0, 0), BuildingBlock: CIFDUS_clean_linker_0, # of connection points: 2
#     Edge 20, Type (0, 0), BuildingBlock: CIFDUS_clean_linker_0, # of connection points: 2
#     Edge 21, Type (0, 0), BuildingBlock: CIFDUS_clean_linker_0, # of connection points: 2
#     Edge 22, Type (0, 0), BuildingBlock: CIFDUS_clean_linker_0, # of connection points: 2
#     Edge 23, Type (0, 0), BuildingBlock: CIFDUS_clean_linker_0, # of connection points: 2
# Relax obj value: 0.091
# Max RMSD: 0.091
# Mean RMSD: 0.091
data_MOF--net-sra--node1-NAHDIM_clean_sbu_0--edge1-CIFDUS_clean_linker_0
_symmetry_space_group_name_H-M    P1
_symmetry_Int_Tables_number       1
_symmetry_cell_setting            triclinic
loop_
_symmetry_equiv_pos_as_xyz
'x, y, z'
_cell_length_a     22.047755
_cell_length_b     42.587511
_cell_length_c     36.088712
_cell_angle_alpha  89.84563
_cell_angle_beta   89.99737
_cell_angle_gamma 90.050392
loop_
_atom_site_label
_atom_site_type_symbol
_atom_site_fract_x
_atom_site_fract_y
_atom_site_fract_z
_atom_type_partial_charge
C0 C 0.99244 0.04775 0.0863 0.0
O1 O 0.98813 0.02862 0.1148 0.0
O2 O 0.91696 0.07151 0.16895 0.0
Zn3 Zn 0.98967 0.09173 0.1447 0.0
O4 O 0.06781 0.08071 0.17039 0.0
C5 C 0.9515 0.15184 0.17244 0.0
O6 O 0.92517 0.13412 0.19759 0.0
O7 O 0.99415 0.07715 0.09203 0.0
C8 C 0.07608 0.08575 0.20471 0.0
O9 O 0.03171 0.09748 0.22462 0.0
C10 C 0.91799 0.05052 0.19405 0.0
O11 O 0.97004 0.03955 0.20605 0.0
O12 O 0.98081 0.13884 0.1463 0.0
C13 C 0.00862 0.45174 0.09843 0.0
O14 O 0.98328 0.46776 0.12535 0.0
O15 O 0.09268 0.41079 0.18547 0.0
Zn16 Zn 0.01829 0.40278 0.15434 0.0
O17 O 0.94114 0.41652 0.17988 0.0
C18 C 0.98871 0.3384 0.17002 0.0
O19 O 0.96759 0.35091 0.20064 0.0
O20 O 0.02676 0.42392 0.10469 0.0
C21 C 0.93855 0.42365 0.21403 0.0
O22 O 0.98872 0.42392 0.23366 0.0
C23 C 0.1176 0.4375 0.18954 0.0
O24 O 0.09352 0.46221 0.17344 0.0
O25 O 0.01284 0.35613 0.14576 0.0
C26 C 0.00796 0.9533 0.89582 0.0
O27 O 0.01708 0.97193 0.86727 0.0
O28 O 0.94363 0.91661 0.80815 0.0
Zn29 Zn 0.01592 0.90593 0.83989 0.0
O30 O 0.09389 0.92188 0.81798 0.0
C31 C 0.97553 0.84241 0.85082 0.0
O32 O 0.92298 0.85639 0.85544 0.0
O33 O 0.00528 0.92385 0.89068 0.0
C34 C 0.10784 0.91509 0.78481 0.0
O35 O 0.06933 0.89883 0.76473 0.0
C36 C 0.94051 0.93957 0.78566 0.0
O37 O 0.98706 0.95862 0.78218 0.0
O38 O 0.02215 0.85899 0.844 0.0
C39 C 0.01885 0.54937 0.90921 0.0
O40 O 0.03095 0.53125 0.88074 0.0
O41 O 0.07726 0.58077 0.82263 0.0
Zn42 Zn 0.00412 0.59552 0.85182 0.0
O43 O 0.92373 0.58355 0.82942 0.0
C44 C 0.05279 0.65913 0.85128 0.0
O45 O 0.10522 0.64501 0.84678 0.0
O46 O 0.00694 0.57817 0.90358 0.0
C47 C 0.90752 0.59253 0.79731 0.0
O48 O 0.94576 0.60839 0.77653 0.0
C49 C 0.07726 0.56475 0.79294 0.0
O50 O 0.02564 0.55515 0.7788 0.0
O51 O 0.00493 0.6427 0.85442 0.0
C52 C 0.48482 0.54259 0.59253 0.0
O53 O 0.48892 0.5241 0.62163 0.0
O54 O 0.41144 0.57475 0.67867 0.0
Zn55 Zn 0.48421 0.58941 0.64892 0.0
O56 O 0.56509 0.57787 0.67113 0.0
C57 C 0.50932 0.65141 0.62081 0.0
O58 O 0.5378 0.6357 0.59481 0.0
O59 O 0.48077 0.57203 0.59737 0.0
C60 C 0.58369 0.59099 0.7006 0.0
O61 O 0.54799 0.61069 0.71809 0.0
C62 C 0.41274 0.5639 0.71152 0.0
O63 O 0.46514 0.55979 0.7281 0.0
O64 O 0.48202 0.63644 0.64635 0.0
C65 C 0.5255 0.94607 0.57967 0.0
O66 O 0.4971 0.96222 0.60532 0.0
O67 O 0.5898 0.90925 0.67454 0.0
Zn68 Zn 0.52598 0.89875 0.63655 0.0
O69 O 0.44208 0.9107 0.65319 0.0
C70 C 0.50712 0.83599 0.65879 0.0
O71 O 0.49107 0.85087 0.68909 0.0
O72 O 0.54336 0.9184 0.58707 0.0
C73 C 0.42889 0.92199 0.68471 0.0
O74 O 0.47264 0.92828 0.70827 0.0
C75 C 0.6343 0.92768 0.66906 0.0
O76 O 0.6387 0.94263 0.6373 0.0
O77 O 0.52532 0.85187 0.63106 0.0
C78 C 0.51793 0.44626 0.40409 0.0
O79 O 0.52767 0.46459 0.37537 0.0
O80 O 0.44651 0.39801 0.32126 0.0
Zn81 Zn 0.52427 0.39501 0.35053 0.0
O82 O 0.5969 0.41126 0.32222 0.0
C83 C 0.53208 0.32938 0.33559 0.0
O84 O 0.51831 0.33935 0.30215 0.0
O85 O 0.5152 0.41674 0.39949 0.0
C86 C 0.59865 0.41145 0.287 0.0
O87 O 0.5505 0.4025 0.26836 0.0
C88 C 0.42375 0.42265 0.30702 0.0
O89 O 0.45219 0.44958 0.31059 0.0
O90 O 0.53801 0.34929 0.36147 0.0
C91 C 0.52699 0.03504 0.3848 0.0
O92 O 0.54852 0.01699 0.35844 0.0
O93 O 0.58232 0.05806 0.29736 0.0
Zn94 Zn 0.50951 0.07632 0.32328 0.0
O95 O 0.4309 0.06568 0.29812 0.0
C96 C 0.53141 0.14208 0.34533 0.0
O97 O 0.54376 0.13111 0.37854 0.0
O98 O 0.50719 0.06215 0.37642 0.0
C99 C 0.4217 0.07664 0.26582 0.0
O100 O 0.46504 0.09256 0.24926 0.0
C101 C 0.58189 0.04149 0.26813 0.0
O102 O 0.53007 0.03353 0.25289 0.0
O103 O 0.5169 0.12318 0.31966 0.0
H104 H 0.93239 0.29531 0.21369 0.0
H105 H 0.03697 0.30429 0.11307 0.0
H106 H 0.0332 0.24747 0.10435 0.0
H107 H 0.00235 0.19512 0.12612 0.0
H108 H 0.89754 0.18642 0.22673 0.0
H109 H 0.89911 0.24327 0.23445 0.0
C110 C 0.95433 0.28488 0.18981 0.0
C111 C 0.98516 0.30405 0.16419 0.0
C112 C 0.95195 0.25222 0.18493 0.0
C113 C 0.013 0.29011 0.13328 0.0
C114 C 0.0109 0.2576 0.12827 0.0
C115 C 0.97961 0.20565 0.14966 0.0
C116 C 0.95006 0.18647 0.17585 0.0
C117 C 0.9808 0.23841 0.15403 0.0
C118 C 0.92072 0.20056 0.20614 0.0
C119 C 0.92165 0.2331 0.21064 0.0
H120 H 0.07739 0.80676 0.84429 0.0
H121 H 0.88408 0.80015 0.86201 0.0
H122 H 0.89122 0.743 0.8643 0.0
H123 H 0.95186 0.69494 0.86036 0.0
H124 H 0.14518 0.70141 0.84265 0.0
H125 H 0.13837 0.75863 0.84138 0.0
C126 C 0.03679 0.79285 0.84871 0.0
C127 C 0.98026 0.80777 0.85289 0.0
C128 C 0.04117 0.75997 0.85 0.0
C129 C 0.92818 0.78933 0.85868 0.0
C130 C 0.93219 0.75662 0.85998 0.0
C131 C 0.9926 0.70882 0.8563 0.0
C132 C 0.04894 0.69385 0.85154 0.0
C133 C 0.98839 0.7417 0.85554 0.0
C134 C 0.10121 0.71227 0.84638 0.0
C135 C 0.09738 0.74502 0.84561 0.0
H136 H 0.47223 0.68978 0.67625 0.0
H137 H 0.55171 0.69098 0.56693 0.0
H138 H 0.55764 0.74825 0.56884 0.0
H139 H 0.54136 0.79793 0.60194 0.0
H140 H 0.46358 0.79622 0.71176 0.0
H141 H 0.45608 0.73917 0.70921 0.0
C142 C 0.4906 0.70254 0.65273 0.0
C143 C 0.51139 0.68611 0.62147 0.0
C144 C 0.49442 0.73538 0.65415 0.0
C145 C 0.53544 0.70304 0.59137 0.0
C146 C 0.53887 0.73579 0.59243 0.0
C147 C 0.52273 0.78508 0.62531 0.0
C148 C 0.50308 0.80136 0.65698 0.0
C149 C 0.51872 0.7522 0.62376 0.0
C150 C 0.47915 0.78433 0.68704 0.0
C151 C 0.47474 0.75167 0.68562 0.0
H152 H 0.51755 0.2815 0.28702 0.0
H153 H 0.55911 0.30082 0.40161 0.0
H154 H 0.56423 0.24456 0.41465 0.0
H155 H 0.554 0.1898 0.3938 0.0
H156 H 0.51124 0.17113 0.27914 0.0
H157 H 0.50964 0.2272 0.26598 0.0
C158 C 0.52797 0.27347 0.31484 0.0
C159 C 0.53773 0.29537 0.34328 0.0
C160 C 0.53048 0.24115 0.32221 0.0
C161 C 0.55127 0.28448 0.37917 0.0
C162 C 0.55416 0.25229 0.38669 0.0
C163 C 0.54455 0.19799 0.36592 0.0
C164 C 0.53258 0.17623 0.33759 0.0
C165 C 0.54338 0.2304 0.35847 0.0
C166 C 0.52046 0.1873 0.30157 0.0
C167 C 0.51951 0.2194 0.29395 0.0
H168 H 0.31329 0.0703 0.30041 0.0
H169 H 0.39526 0.07843 0.19227 0.0
H170 H 0.2949 0.07937 0.16348 0.0
H171 H 0.1842 0.08143 0.16944 0.0
H172 H 0.10226 0.0777 0.27794 0.0
H173 H 0.20227 0.0714 0.30628 0.0
C174 C 0.30909 0.07183 0.27051 0.0
C175 C 0.3614 0.07421 0.24843 0.0
C176 C 0.25132 0.07341 0.2543 0.0
C177 C 0.35549 0.07665 0.20979 0.0
C178 C 0.2982 0.07722 0.19335 0.0
C179 C 0.1882 0.07891 0.19926 0.0
C180 C 0.13603 0.08004 0.22159 0.0
C181 C 0.24584 0.07616 0.21538 0.0
C182 C 0.14188 0.07706 0.2602 0.0
C183 C 0.19898 0.07343 0.2764 0.0
H184 H 0.70813 0.42642 0.31731 0.0
H185 H 0.61898 0.41108 0.21236 0.0
H186 H 0.71584 0.41609 0.18022 0.0
H187 H 0.82667 0.42055 0.18232 0.0
H188 H 0.91624 0.4348 0.28734 0.0
H189 H 0.81832 0.43478 0.31888 0.0
C190 C 0.70971 0.4245 0.28736 0.0
C191 C 0.65633 0.41807 0.26736 0.0
C192 C 0.76573 0.42704 0.26903 0.0
C193 C 0.65932 0.41583 0.22854 0.0
C194 C 0.71477 0.41863 0.21009 0.0
C195 C 0.82483 0.424 0.21206 0.0
C196 C 0.87888 0.42737 0.23243 0.0
C197 C 0.76841 0.42357 0.23012 0.0
C198 C 0.87546 0.43198 0.27094 0.0
C199 C 0.81943 0.43189 0.28906 0.0
H200 H 0.14916 0.90699 0.71461 0.0
H201 H 0.20374 0.94035 0.82244 0.0
H202 H 0.30728 0.94781 0.80012 0.0
H203 H 0.38399 0.9409 0.75139 0.0
H204 H 0.32891 0.90716 0.64376 0.0
H205 H 0.22398 0.90413 0.66459 0.0
C206 C 0.18355 0.91614 0.73317 0.0
C207 C 0.16882 0.92274 0.77023 0.0
C208 C 0.24308 0.92021 0.72026 0.0
C209 C 0.21385 0.93491 0.7938 0.0
C210 C 0.27318 0.93913 0.78109 0.0
C211 C 0.34896 0.93322 0.73236 0.0
C212 C 0.36455 0.92395 0.69621 0.0
C213 C 0.28857 0.93125 0.74458 0.0
C214 C 0.31841 0.91425 0.67184 0.0
C215 C 0.25829 0.91243 0.68373 0.0
H216 H 0.62522 0.59113 0.77114 0.0
H217 H 0.68329 0.58142 0.65769 0.0
H218 H 0.78937 0.58019 0.67756 0.0
H219 H 0.86581 0.58529 0.72711 0.0
H220 H 0.80715 0.59095 0.84089 0.0
H221 H 0.70116 0.59009 0.82113 0.0
C222 C 0.6612 0.58846 0.75089 0.0
C223 C 0.64679 0.58668 0.71307 0.0
C224 C 0.72188 0.58715 0.76257 0.0
C225 C 0.69348 0.58278 0.68701 0.0
C226 C 0.75409 0.58223 0.69832 0.0
C227 C 0.8297 0.58605 0.7475 0.0
C228 C 0.84406 0.58849 0.7853 0.0
C229 C 0.76886 0.58492 0.73599 0.0
C230 C 0.79708 0.58902 0.8116 0.0
C231 C 0.73651 0.58868 0.80033 0.0
H232 H 0.73683 0.96349 0.66597 0.0
H233 H 0.64326 0.8956 0.73437 0.0
H234 H 0.72871 0.89439 0.77713 0.0
H235 H 0.83209 0.91012 0.79329 0.0
H236 H 0.92625 0.97811 0.72549 0.0
H237 H 0.8383 0.98183 0.68447 0.0
C238 C 0.73489 0.94863 0.69038 0.0
C239 C 0.68384 0.92947 0.6967 0.0
C240 C 0.78441 0.9479 0.7149 0.0
C241 C 0.68201 0.9105 0.72865 0.0
C242 C 0.73096 0.90971 0.75314 0.0
C243 C 0.83336 0.92588 0.76963 0.0
C244 C 0.8859 0.94358 0.76228 0.0
C245 C 0.78274 0.9279 0.7462 0.0
C246 C 0.88645 0.96414 0.73175 0.0
C247 C 0.83621 0.96624 0.70822 0.0
H248 H 0.29933 0.5556 0.68351 0.0
H249 H 0.39773 0.56333 0.78645 0.0
H250 H 0.30248 0.56291 0.82097 0.0
H251 H 0.19101 0.56414 0.8216 0.0
H252 H 0.09246 0.55414 0.71904 0.0
H253 H 0.18792 0.55142 0.68472 0.0
C254 C 0.29989 0.5569 0.71352 0.0
C255 C 0.35547 0.55983 0.73235 0.0
C256 C 0.24493 0.55639 0.73325 0.0
C257 C 0.35558 0.56107 0.77127 0.0
C258 C 0.3011 0.56098 0.79104 0.0
C259 C 0.1905 0.56111 0.79176 0.0
C260 C 0.13483 0.55969 0.77283 0.0
C261 C 0.2455 0.55925 0.77227 0.0
C262 C 0.13475 0.55531 0.73425 0.0
C263 C 0.18931 0.55388 0.71459 0.0
H264 H 0.69301 0.03324 0.2984 0.0
H265 H 0.59931 0.03831 0.19366 0.0
H266 H 0.69628 0.03926 0.16081 0.0
H267 H 0.80742 0.04469 0.16257 0.0
H268 H 0.90136 0.03695 0.26696 0.0
H269 H 0.80459 0.03067 0.29938 0.0
C270 C 0.694 0.03401 0.26835 0.0
C271 C 0.63942 0.03612 0.24842 0.0
C272 C 0.74981 0.03433 0.2497 0.0
C273 C 0.6409 0.03666 0.20953 0.0
C274 C 0.69628 0.03743 0.19077 0.0
C275 C 0.80654 0.04115 0.19235 0.0
C276 C 0.86098 0.04169 0.21252 0.0
C277 C 0.75094 0.03721 0.21065 0.0
C278 C 0.85979 0.03662 0.25096 0.0
C279 C 0.80454 0.03321 0.26949 0.0
H280 H 0.17968 0.39077 0.22403 0.0
H281 H 0.18313 0.49073 0.20397 0.0
H282 H 0.27796 0.49508 0.23866 0.0
H283 H 0.36063 0.47031 0.27413 0.0
H284 H 0.35637 0.37021 0.29354 0.0
H285 H 0.26122 0.36621 0.25961 0.0
C286 C 0.201 0.41356 0.22727 0.0
C287 C 0.17426 0.44037 0.21136 0.0
C288 C 0.25555 0.41588 0.24709 0.0
C289 C 0.20267 0.46968 0.2159 0.0
C290 C 0.25697 0.4722 0.23571 0.0
C291 C 0.3389 0.44763 0.27095 0.0
C292 C 0.36578 0.42063 0.28638 0.0
C293 C 0.28396 0.44543 0.25132 0.0
C294 C 0.33684 0.39142 0.282 0.0
C295 C 0.28233 0.38907 0.26258 0.0
H296 H 0.98522 0.98674 0.06531 0.0
H297 H 0.00628 0.0806 0.02161 0.0
H298 H 0.01216 0.05968 0.95878 0.0
H299 H 0.01238 0.0147 0.91635 0.0
H300 H 0.99113 0.92092 0.96037 0.0
H301 H 0.98415 0.94196 0.02298 0.0
C302 C 0.99109 0.00267 0.04208 0.0
C303 C 0.99544 0.03517 0.04819 0.0
C304 C 0.99438 0.99051 0.00606 0.0
C305 C 0.00284 0.05545 0.01771 0.0
C306 C 0.00622 0.04352 0.98175 0.0
C307 C 0.00611 -0.00115 0.93961 0.0
C308 C 0.00241 0.96629 0.93363 0.0
C309 C 0.00219 0.01108 0.97562 0.0
C310 C 0.9942 0.9461 0.96413 0.0
C311 C 0.99023 0.95809 -1e-05 0.0
H312 H 0.04643 0.48987 0.93088 0.0
H313 H 0.98536 0.57925 0.97293 0.0
H314 H 0.97727 0.55702 0.03512 0.0
H315 H 0.98551 0.51197 0.0774 0.0
H316 H 0.04754 0.42276 0.03537 0.0
H317 H 0.05724 0.44523 0.97342 0.0
C318 C 0.03149 0.50454 0.95364 0.0
C319 C 0.01634 0.53615 0.94716 0.0
C320 C 0.02694 0.49163 0.98938 0.0
C321 C -0.00269 0.55483 0.97707 0.0
C322 C 0.99255 0.54213 0.01268 0.0
C323 C 0.00117 0.49743 0.05471 0.0
C324 C 0.0155 0.46569 0.06105 0.0
C325 C 0.00688 0.51052 0.01911 0.0
C326 C 0.03612 0.44726 0.03133 0.0
C327 C 0.04167 0.46008 -0.00416 0.0
H328 H 0.50913 0.50794 0.42316 0.0
H329 H 0.50954 0.41434 0.46951 0.0
H330 H 0.49808 0.43587 0.5316 0.0
H331 H 0.48947 0.48112 0.57294 0.0
H332 H 0.48812 0.5748 0.52691 0.0
H333 H 0.49811 0.55331 0.46457 0.0
C334 C 0.50674 0.49225 0.44683 0.0
C335 C 0.51043 0.4596 0.44163 0.0
C336 C 0.49987 0.50476 0.48257 0.0
C337 C 0.50687 0.43959 0.47264 0.0
C338 C 0.50032 0.45186 0.50822 0.0
C339 C 0.49118 0.49687 0.54929 0.0
C340 C 0.48821 0.5295 0.55465 0.0
C341 C 0.49696 0.48439 0.51352 0.0
C342 C 0.49028 0.54955 0.52363 0.0
C343 C 0.49612 0.5373 0.48793 0.0
H344 H 0.48963 0.00332 0.5542 0.0
H345 H 0.58026 0.91821 0.52043 0.0
H346 H 0.58979 0.93858 0.45749 0.0
H347 H 0.56975 0.97972 0.41161 0.0
H348 H 0.47896 0.06485 0.44507 0.0
H349 H 0.47229 0.04525 0.50859 0.0
C350 C 0.51172 0.98927 0.53314 0.0
C351 C 0.53394 0.95923 0.54204 0.0
C352 C 0.51686 0.00105 0.4969 0.0
C353 C 0.56258 0.94138 0.51437 0.0
C354 C 0.56802 0.95299 0.47832 0.0
C355 C 0.5486 0.99405 0.43278 0.0
C356 C 0.52463 0.02363 0.42352 0.0
C357 C 0.54485 0.98265 0.46921 0.0
C358 C 0.49766 0.04194 0.45139 0.0
C359 C 0.4938 0.03075 0.48774 0.0
loop_
_geom_bond_atom_site_label_1
_geom_bond_atom_site_label_2
_geom_bond_distance
_geom_bond_site_symmetry_2
_ccdc_geom_bond_type
C0 O1 1.160 1_455 S
C0 O7 1.185 . S
O1 C0 1.160 1_655 S
O2 Zn3 1.899 1_655 S
O2 C10 1.284 . S
Zn3 O2 1.899 1_455 S
Zn3 O4 2.032 . S
Zn3 O7 2.086 . S
Zn3 O12 1.977 . S
O4 Zn3 2.032 . S
O4 C8 1.278 . S
C5 O6 1.203 1_455 S
C5 O12 1.267 . S
O6 C5 1.203 1_655 S
O7 C0 1.185 . S
O7 Zn3 2.086 . S
C8 O4 1.278 . S
C8 O9 1.211 . S
O9 C8 1.211 . S
C10 O2 1.284 . S
C10 O11 1.273 . S
O11 C10 1.273 . S
O12 Zn3 1.977 . S
O12 C5 1.267 . S
C13 O14 1.160 . S
C13 O20 1.190 . S
O14 C13 1.160 . S
O15 Zn16 1.899 . S
O15 C23 1.284 . S
Zn16 O15 1.899 . S
Zn16 O17 2.032 1_455 S
Zn16 O20 2.089 . S
Zn16 O25 1.977 . S
O17 Zn16 2.032 1_655 S
O17 C21 1.278 . S
C18 O19 1.203 . S
C18 O25 1.267 . S
O19 C18 1.203 . S
O20 C13 1.190 . S
O20 Zn16 2.089 . S
C21 O17 1.278 . S
C21 O22 1.211 . S
O22 C21 1.211 . S
C23 O15 1.284 . S
C23 O24 1.273 . S
O24 C23 1.273 . S
O25 Zn16 1.977 . S
O25 C18 1.267 . S
C26 O27 1.160 1_455 S
C26 O33 1.185 . S
O27 C26 1.160 1_655 S
O28 Zn29 1.899 1_655 S
O28 C36 1.284 . S
Zn29 O28 1.899 1_455 S
Zn29 O30 2.032 . S
Zn29 O33 2.086 . S
Zn29 O38 1.977 . S
O30 Zn29 2.032 . S
O30 C34 1.278 . S
C31 O32 1.203 1_455 S
C31 O38 1.267 . S
O32 C31 1.203 1_655 S
O33 C26 1.185 . S
O33 Zn29 2.086 . S
C34 O30 1.278 . S
C34 O35 1.211 . S
O35 C34 1.211 . S
C36 O28 1.284 . S
C36 O37 1.273 . S
O37 C36 1.273 . S
O38 Zn29 1.977 . S
O38 C31 1.267 . S
C39 O40 1.160 . S
C39 O46 1.190 . S
O40 C39 1.160 . S
O41 Zn42 1.899 . S
O41 C49 1.284 . S
Zn42 O41 1.899 . S
Zn42 O43 2.032 1_455 S
Zn42 O46 2.089 . S
Zn42 O51 1.977 . S
O43 Zn42 2.032 1_655 S
O43 C47 1.278 . S
C44 O45 1.203 . S
C44 O51 1.267 . S
O45 C44 1.203 . S
O46 C39 1.190 . S
O46 Zn42 2.089 . S
C47 O43 1.278 . S
C47 O48 1.211 . S
O48 C47 1.211 . S
C49 O41 1.284 . S
C49 O50 1.273 . S
O50 C49 1.273 . S
O51 Zn42 1.977 . S
O51 C44 1.267 . S
C52 O53 1.160 . S
C52 O59 1.185 . S
O53 C52 1.160 . S
O54 Zn55 1.899 . S
O54 C62 1.284 . S
Zn55 O54 1.899 . S
Zn55 O56 2.032 . S
Zn55 O59 2.086 . S
Zn55 O64 1.977 . S
O56 Zn55 2.032 . S
O56 C60 1.278 . S
C57 O58 1.203 . S
C57 O64 1.267 . S
O58 C57 1.203 . S
O59 C52 1.185 . S
O59 Zn55 2.086 . S
C60 O56 1.278 . S
C60 O61 1.211 . S
O61 C60 1.211 . S
C62 O54 1.284 . S
C62 O63 1.273 . S
O63 C62 1.273 . S
O64 Zn55 1.977 . S
O64 C57 1.267 . S
C65 O66 1.160 . S
C65 O72 1.185 . S
O66 C65 1.160 . S
O67 Zn68 1.899 . S
O67 C75 1.284 . S
Zn68 O67 1.899 . S
Zn68 O69 2.032 . S
Zn68 O72 2.086 . S
Zn68 O77 1.977 . S
O69 Zn68 2.032 . S
O69 C73 1.278 . S
C70 O71 1.203 . S
C70 O77 1.267 . S
O71 C70 1.203 . S
O72 C65 1.185 . S
O72 Zn68 2.086 . S
C73 O69 1.278 . S
C73 O74 1.211 . S
O74 C73 1.211 . S
C75 O67 1.284 . S
C75 O76 1.273 . S
O76 C75 1.273 . S
O77 Zn68 1.977 . S
O77 C70 1.267 . S
C78 O79 1.160 . S
C78 O85 1.185 . S
O79 C78 1.160 . S
O80 Zn81 1.899 . S
O80 C88 1.284 . S
Zn81 O80 1.899 . S
Zn81 O82 2.032 . S
Zn81 O85 2.086 . S
Zn81 O90 1.977 . S
O82 Zn81 2.032 . S
O82 C86 1.278 . S
C83 O84 1.203 . S
C83 O90 1.267 . S
O84 C83 1.203 . S
O85 C78 1.185 . S
O85 Zn81 2.086 . S
C86 O82 1.278 . S
C86 O87 1.211 . S
O87 C86 1.211 . S
C88 O80 1.284 . S
C88 O89 1.273 . S
O89 C88 1.273 . S
O90 Zn81 1.977 . S
O90 C83 1.267 . S
C91 O92 1.160 . S
C91 O98 1.185 . S
O92 C91 1.160 . S
O93 Zn94 1.899 . S
O93 C101 1.284 . S
Zn94 O93 1.899 . S
Zn94 O95 2.032 . S
Zn94 O98 2.086 . S
Zn94 O103 1.977 . S
O95 Zn94 2.032 . S
O95 C99 1.278 . S
C96 O97 1.203 . S
C96 O103 1.267 . S
O97 C96 1.203 . S
O98 C91 1.185 . S
O98 Zn94 2.086 . S
C99 O95 1.278 . S
C99 O100 1.211 . S
O100 C99 1.211 . S
C101 O93 1.284 . S
C101 O102 1.273 . S
O102 C101 1.273 . S
O103 Zn94 1.977 . S
O103 C96 1.267 . S
H104 C110 0.930 . S
H105 C113 0.930 . S
H106 C114 0.930 . S
H107 C115 0.930 . S
H108 C118 0.930 . S
H109 C119 0.930 . S
C110 H104 0.930 . S
C110 C111 1.355 . S
C110 C112 1.415 . S
C111 C110 1.355 . S
C111 C113 1.419 1_455 S
C112 C110 1.415 . S
C112 C117 1.425 . S
C112 C119 1.409 . S
C113 H105 0.930 . S
C113 C111 1.419 1_655 S
C113 C114 1.362 . S
C114 H106 0.930 . S
C114 C113 1.362 . S
C114 C117 1.409 1_655 S
C115 H107 0.930 . S
C115 C116 1.355 1_655 S
C115 C117 1.415 1_655 S
C116 C115 1.355 1_455 S
C116 C118 1.419 . S
C117 C112 1.425 . S
C117 C114 1.409 1_455 S
C117 C115 1.415 1_455 S
C118 H108 0.930 . S
C118 C116 1.419 . S
C118 C119 1.362 . S
C119 H109 0.930 . S
C119 C112 1.409 . S
C119 C118 1.362 . S
H120 C126 0.930 . S
H121 C129 0.930 . S
H122 C130 0.930 . S
H123 C131 0.930 . S
H124 C134 0.930 . S
H125 C135 0.930 . S
C126 H120 0.930 . S
C126 C127 1.355 . S
C126 C128 1.415 . S
C127 C126 1.355 . S
C127 C129 1.419 1_455 S
C128 C126 1.415 . S
C128 C133 1.425 1_455 S
C128 C135 1.409 . S
C129 H121 0.930 . S
C129 C127 1.419 1_655 S
C129 C130 1.362 . S
C130 H122 0.930 . S
C130 C129 1.362 . S
C130 C133 1.409 . S
C131 H123 0.930 . S
C131 C132 1.355 1_655 S
C131 C133 1.415 . S
C132 C131 1.355 1_455 S
C132 C134 1.419 . S
C133 C128 1.425 1_655 S
C133 C130 1.409 . S
C133 C131 1.415 . S
C134 H124 0.930 . S
C134 C132 1.419 . S
C134 C135 1.362 . S
C135 H125 0.930 . S
C135 C128 1.409 . S
C135 C134 1.362 . S
H136 C142 0.930 . S
H137 C145 0.930 . S
H138 C146 0.930 . S
H139 C147 0.930 . S
H140 C150 0.930 . S
H141 C151 0.930 . S
C142 H136 0.930 . S
C142 C143 1.355 . S
C142 C144 1.415 . S
C143 C142 1.355 . S
C143 C145 1.419 . S
C144 C142 1.415 . S
C144 C149 1.425 . S
C144 C151 1.409 . S
C145 H137 0.930 . S
C145 C143 1.419 . S
C145 C146 1.362 . S
C146 H138 0.930 . S
C146 C145 1.362 . S
C146 C149 1.409 . S
C147 H139 0.930 . S
C147 C148 1.355 . S
C147 C149 1.415 . S
C148 C147 1.355 . S
C148 C150 1.419 . S
C149 C144 1.425 . S
C149 C146 1.409 . S
C149 C147 1.415 . S
C150 H140 0.930 . S
C150 C148 1.419 . S
C150 C151 1.362 . S
C151 H141 0.930 . S
C151 C144 1.409 . S
C151 C150 1.362 . S
H152 C158 0.930 . S
H153 C161 0.930 . S
H154 C162 0.930 . S
H155 C163 0.930 . S
H156 C166 0.930 . S
H157 C167 0.930 . S
C158 H152 0.930 . S
C158 C159 1.355 . S
C158 C160 1.415 . S
C159 C158 1.355 . S
C159 C161 1.419 . S
C160 C158 1.415 . S
C160 C165 1.425 . S
C160 C167 1.409 . S
C161 H153 0.930 . S
C161 C159 1.419 . S
C161 C162 1.362 . S
C162 H154 0.930 . S
C162 C161 1.362 . S
C162 C165 1.409 . S
C163 H155 0.930 . S
C163 C164 1.355 . S
C163 C165 1.415 . S
C164 C163 1.355 . S
C164 C166 1.419 . S
C165 C160 1.425 . S
C165 C162 1.409 . S
C165 C163 1.415 . S
C166 H156 0.930 . S
C166 C164 1.419 . S
C166 C167 1.362 . S
C167 H157 0.930 . S
C167 C160 1.409 . S
C167 C166 1.362 . S
H168 C174 0.930 . S
H169 C177 0.930 . S
H170 C178 0.930 . S
H171 C179 0.930 . S
H172 C182 0.930 . S
H173 C183 0.930 . S
C174 H168 0.930 . S
C174 C175 1.355 . S
C174 C176 1.415 . S
C175 C174 1.355 . S
C175 C177 1.419 . S
C176 C174 1.415 . S
C176 C181 1.425 . S
C176 C183 1.409 . S
C177 H169 0.930 . S
C177 C175 1.419 . S
C177 C178 1.362 . S
C178 H170 0.930 . S
C178 C177 1.362 . S
C178 C181 1.409 . S
C179 H171 0.930 . S
C179 C180 1.355 . S
C179 C181 1.415 . S
C180 C179 1.355 . S
C180 C182 1.419 . S
C181 C176 1.425 . S
C181 C178 1.409 . S
C181 C179 1.415 . S
C182 H172 0.930 . S
C182 C180 1.419 . S
C182 C183 1.362 . S
C183 H173 0.930 . S
C183 C176 1.409 . S
C183 C182 1.362 . S
H184 C190 0.930 . S
H185 C193 0.930 . S
H186 C194 0.930 . S
H187 C195 0.930 . S
H188 C198 0.930 . S
H189 C199 0.930 . S
C190 H184 0.930 . S
C190 C191 1.355 . S
C190 C192 1.415 . S
C191 C190 1.355 . S
C191 C193 1.419 . S
C192 C190 1.415 . S
C192 C197 1.425 . S
C192 C199 1.409 . S
C193 H185 0.930 . S
C193 C191 1.419 . S
C193 C194 1.362 . S
C194 H186 0.930 . S
C194 C193 1.362 . S
C194 C197 1.409 . S
C195 H187 0.930 . S
C195 C196 1.355 . S
C195 C197 1.415 . S
C196 C195 1.355 . S
C196 C198 1.419 . S
C197 C192 1.425 . S
C197 C194 1.409 . S
C197 C195 1.415 . S
C198 H188 0.930 . S
C198 C196 1.419 . S
C198 C199 1.362 . S
C199 H189 0.930 . S
C199 C192 1.409 . S
C199 C198 1.362 . S
H200 C206 0.930 . S
H201 C209 0.930 . S
H202 C210 0.930 . S
H203 C211 0.930 . S
H204 C214 0.930 . S
H205 C215 0.930 . S
C206 H200 0.930 . S
C206 C207 1.355 . S
C206 C208 1.415 . S
C207 C206 1.355 . S
C207 C209 1.419 . S
C208 C206 1.415 . S
C208 C213 1.425 . S
C208 C215 1.409 . S
C209 H201 0.930 . S
C209 C207 1.419 . S
C209 C210 1.362 . S
C210 H202 0.930 . S
C210 C209 1.362 . S
C210 C213 1.409 . S
C211 H203 0.930 . S
C211 C212 1.355 . S
C211 C213 1.415 . S
C212 C211 1.355 . S
C212 C214 1.419 . S
C213 C208 1.425 . S
C213 C210 1.409 . S
C213 C211 1.415 . S
C214 H204 0.930 . S
C214 C212 1.419 . S
C214 C215 1.362 . S
C215 H205 0.930 . S
C215 C208 1.409 . S
C215 C214 1.362 . S
H216 C222 0.930 . S
H217 C225 0.930 . S
H218 C226 0.930 . S
H219 C227 0.930 . S
H220 C230 0.930 . S
H221 C231 0.930 . S
C222 H216 0.930 . S
C222 C223 1.355 . S
C222 C224 1.415 . S
C223 C222 1.355 . S
C223 C225 1.419 . S
C224 C222 1.415 . S
C224 C229 1.425 . S
C224 C231 1.409 . S
C225 H217 0.930 . S
C225 C223 1.419 . S
C225 C226 1.362 . S
C226 H218 0.930 . S
C226 C225 1.362 . S
C226 C229 1.409 . S
C227 H219 0.930 . S
C227 C228 1.355 . S
C227 C229 1.415 . S
C228 C227 1.355 . S
C228 C230 1.419 . S
C229 C224 1.425 . S
C229 C226 1.409 . S
C229 C227 1.415 . S
C230 H220 0.930 . S
C230 C228 1.419 . S
C230 C231 1.362 . S
C231 H221 0.930 . S
C231 C224 1.409 . S
C231 C230 1.362 . S
H232 C238 0.930 . S
H233 C241 0.930 . S
H234 C242 0.930 . S
H235 C243 0.930 . S
H236 C246 0.930 . S
H237 C247 0.930 . S
C238 H232 0.930 . S
C238 C239 1.355 . S
C238 C240 1.415 . S
C239 C238 1.355 . S
C239 C241 1.419 . S
C240 C238 1.415 . S
C240 C245 1.425 . S
C240 C247 1.409 . S
C241 H233 0.930 . S
C241 C239 1.419 . S
C241 C242 1.362 . S
C242 H234 0.930 . S
C242 C241 1.362 . S
C242 C245 1.409 . S
C243 H235 0.930 . S
C243 C244 1.355 . S
C243 C245 1.415 . S
C244 C243 1.355 . S
C244 C246 1.419 . S
C245 C240 1.425 . S
C245 C242 1.409 . S
C245 C243 1.415 . S
C246 H236 0.930 . S
C246 C244 1.419 . S
C246 C247 1.362 . S
C247 H237 0.930 . S
C247 C240 1.409 . S
C247 C246 1.362 . S
H248 C254 0.930 . S
H249 C257 0.930 . S
H250 C258 0.930 . S
H251 C259 0.930 . S
H252 C262 0.930 . S
H253 C263 0.930 . S
C254 H248 0.930 . S
C254 C255 1.355 . S
C254 C256 1.415 . S
C255 C254 1.355 . S
C255 C257 1.419 . S
C256 C254 1.415 . S
C256 C261 1.425 . S
C256 C263 1.409 . S
C257 H249 0.930 . S
C257 C255 1.419 . S
C257 C258 1.362 . S
C258 H250 0.930 . S
C258 C257 1.362 . S
C258 C261 1.409 . S
C259 H251 0.930 . S
C259 C260 1.355 . S
C259 C261 1.415 . S
C260 C259 1.355 . S
C260 C262 1.419 . S
C261 C256 1.425 . S
C261 C258 1.409 . S
C261 C259 1.415 . S
C262 H252 0.930 . S
C262 C260 1.419 . S
C262 C263 1.362 . S
C263 H253 0.930 . S
C263 C256 1.409 . S
C263 C262 1.362 . S
H264 C270 0.930 . S
H265 C273 0.930 . S
H266 C274 0.930 . S
H267 C275 0.930 . S
H268 C278 0.930 . S
H269 C279 0.930 . S
C270 H264 0.930 . S
C270 C271 1.355 . S
C270 C272 1.415 . S
C271 C270 1.355 . S
C271 C273 1.419 . S
C272 C270 1.415 . S
C272 C277 1.425 . S
C272 C279 1.409 . S
C273 H265 0.930 . S
C273 C271 1.419 . S
C273 C274 1.362 . S
C274 H266 0.930 . S
C274 C273 1.362 . S
C274 C277 1.409 . S
C275 H267 0.930 . S
C275 C276 1.355 . S
C275 C277 1.415 . S
C276 C275 1.355 . S
C276 C278 1.419 . S
C277 C272 1.425 . S
C277 C274 1.409 . S
C277 C275 1.415 . S
C278 H268 0.930 . S
C278 C276 1.419 . S
C278 C279 1.362 . S
C279 H269 0.930 . S
C279 C272 1.409 . S
C279 C278 1.362 . S
H280 C286 0.930 . S
H281 C289 0.930 . S
H282 C290 0.930 . S
H283 C291 0.930 . S
H284 C294 0.930 . S
H285 C295 0.930 . S
C286 H280 0.930 . S
C286 C287 1.355 . S
C286 C288 1.415 . S
C287 C286 1.355 . S
C287 C289 1.419 . S
C288 C286 1.415 . S
C288 C293 1.425 . S
C288 C295 1.409 . S
C289 H281 0.930 . S
C289 C287 1.419 . S
C289 C290 1.362 . S
C290 H282 0.930 . S
C290 C289 1.362 . S
C290 C293 1.409 . S
C291 H283 0.930 . S
C291 C292 1.355 . S
C291 C293 1.415 . S
C292 C291 1.355 . S
C292 C294 1.419 . S
C293 C288 1.425 . S
C293 C290 1.409 . S
C293 C291 1.415 . S
C294 H284 0.930 . S
C294 C292 1.419 . S
C294 C295 1.362 . S
C295 H285 0.930 . S
C295 C288 1.409 . S
C295 C294 1.362 . S
H296 C302 0.930 1_565 S
H297 C305 0.930 . S
H298 C306 0.930 . S
H299 C307 0.930 1_545 S
H300 C310 0.930 . S
H301 C311 0.930 . S
C302 H296 0.930 1_545 S
C302 C303 1.355 . S
C302 C304 1.415 1_545 S
C303 C302 1.355 . S
C303 C305 1.419 1_455 S
C304 C302 1.415 1_565 S
C304 C309 1.425 1_564 S
C304 C311 1.409 . S
C305 H297 0.930 . S
C305 C303 1.419 1_655 S
C305 C306 1.362 1_554 S
C306 H298 0.930 . S
C306 C305 1.362 1_556 S
C306 C309 1.409 1_655 S
C307 H299 0.930 1_565 S
C307 C308 1.355 1_655 S
C307 C309 1.415 1_665 S
C308 C307 1.355 1_455 S
C308 C310 1.419 . S
C309 C304 1.425 1_546 S
C309 C306 1.409 1_455 S
C309 C307 1.415 1_445 S
C310 H300 0.930 . S
C310 C308 1.419 . S
C310 C311 1.362 1_556 S
C311 H301 0.930 . S
C311 C304 1.409 . S
C311 C310 1.362 1_554 S
H312 C318 0.929 1_655 S
H313 C321 0.930 . S
H314 C322 0.930 . S
H315 C323 0.930 . S
H316 C326 0.930 . S
H317 C327 0.930 . S
C318 H312 0.929 1_455 S
C318 C319 1.355 . S
C318 C320 1.415 . S
C319 C318 1.355 . S
C319 C321 1.419 . S
C320 C318 1.415 . S
C320 C325 1.425 1_556 S
C320 C327 1.409 . S
C321 H313 0.930 . S
C321 C319 1.419 . S
C321 C322 1.362 1_556 S
C322 H314 0.930 . S
C322 C321 1.362 1_554 S
C322 C325 1.409 . S
C323 H315 0.930 . S
C323 C324 1.355 . S
C323 C325 1.415 . S
C324 C323 1.355 . S
C324 C326 1.419 . S
C325 C320 1.425 1_554 S
C325 C322 1.409 . S
C325 C323 1.415 . S
C326 H316 0.930 . S
C326 C324 1.419 . S
C326 C327 1.362 1_554 S
C327 H317 0.930 . S
C327 C320 1.409 . S
C327 C326 1.362 1_556 S
H328 C334 0.930 . S
H329 C337 0.930 . S
H330 C338 0.930 . S
H331 C339 0.930 . S
H332 C342 0.930 . S
H333 C343 0.930 . S
C334 H328 0.930 . S
C334 C335 1.355 . S
C334 C336 1.415 . S
C335 C334 1.355 . S
C335 C337 1.419 . S
C336 C334 1.415 . S
C336 C341 1.425 . S
C336 C343 1.409 . S
C337 H329 0.930 . S
C337 C335 1.419 . S
C337 C338 1.362 . S
C338 H330 0.930 . S
C338 C337 1.362 . S
C338 C341 1.409 . S
C339 H331 0.930 . S
C339 C340 1.355 . S
C339 C341 1.415 . S
C340 C339 1.355 . S
C340 C342 1.419 . S
C341 C336 1.425 . S
C341 C338 1.409 . S
C341 C339 1.415 . S
C342 H332 0.930 . S
C342 C340 1.419 . S
C342 C343 1.362 . S
C343 H333 0.930 . S
C343 C336 1.409 . S
C343 C342 1.362 . S
H344 C350 0.930 1_545 S
H345 C353 0.930 . S
H346 C354 0.930 . S
H347 C355 0.930 1_565 S
H348 C358 0.930 . S
H349 C359 0.930 . S
C350 H344 0.930 1_565 S
C350 C351 1.355 . S
C350 C352 1.415 1_565 S
C351 C350 1.355 . S
C351 C353 1.419 . S
C352 C350 1.415 1_545 S
C352 C357 1.425 1_545 S
C352 C359 1.409 . S
C353 H345 0.930 . S
C353 C351 1.419 . S
C353 C354 1.362 . S
C354 H346 0.930 . S
C354 C353 1.362 . S
C354 C357 1.409 . S
C355 H347 0.930 1_545 S
C355 C356 1.355 . S
C355 C357 1.415 1_545 S
C356 C355 1.355 . S
C356 C358 1.419 . S
C357 C352 1.425 1_565 S
C357 C354 1.409 . S
C357 C355 1.415 1_565 S
C358 H348 0.930 . S
C358 C356 1.419 . S
C358 C359 1.362 . S
C359 H349 0.930 . S
C359 C352 1.409 . S
C359 C358 1.362 . S
C111 C18 1.454 . S
C116 C5 1.391 . S
C127 C31 1.400 . S
C132 C44 1.423 . S
C143 C57 1.421 . S
C148 C70 1.402 . S
C159 C83 1.454 . S
C164 C96 1.402 . S
C175 C99 1.341 . S
C180 C8 1.311 . S
C191 C86 1.346 . S
C196 C21 1.306 . S
C207 C34 1.350 . S
C212 C73 1.302 . S
C223 C60 1.318 . S
C228 C47 1.334 . S
C239 C75 1.434 . S
C244 C36 1.449 . S
C255 C62 1.429 . S
C260 C49 1.430 . S
C271 C101 1.428 . S
C276 C10 1.431 . S
C287 C23 1.445 . S
C292 C88 1.430 . S
C303 C0 1.292 . S
C308 C26 1.310 . S
C319 C39 1.311 . S
C324 C13 1.292 . S
C335 C78 1.309 . S
C340 C52 1.293 . S
C351 C65 1.301 . S
C356 C91 1.302 . S
