# Generated by pormake.
# Topology vmb, (5)-cn, num edge types: 1
# Building blocks:
#     Node 0, Type 0, BuildingBlock: BEQFEK_clean_sbu_0, # of connection points: 5
#     Node 1, Type 0, BuildingBlock: BEQFEK_clean_sbu_0, # of connection points: 5
#     Node 2, Type 0, BuildingBlock: BEQFEK_clean_sbu_0, # of connection points: 5
#     Node 3, Type 0, BuildingBlock: BEQFEK_clean_sbu_0, # of connection points: 5
#     Node 4, Type 0, BuildingBlock: BEQFEK_clean_sbu_0, # of connection points: 5
#     Node 5, Type 0, BuildingBlock: BEQFEK_clean_sbu_0, # of connection points: 5
#     Node 6, Type 0, BuildingBlock: BEQFEK_clean_sbu_0, # of connection points: 5
#     Node 7, Type 0, BuildingBlock: BEQFEK_clean_sbu_0, # of connection points: 5
#     Edge 8, Type (0, 0), BuildingBlock: KIFKEQ_clean_linker_1, # of connection points: 2
#     Edge 9, Type (0, 0), BuildingBlock: KIFKEQ_clean_linker_1, # of connection points: 2
#     Edge 10, Type (0, 0), BuildingBlock: KIFKEQ_clean_linker_1, # of connection points: 2
#     Edge 11, Type (0, 0), BuildingBlock: KIFKEQ_clean_linker_1, # of connection points: 2
#     Edge 12, Type (0, 0), BuildingBlock: KIFKEQ_clean_linker_1, # of connection points: 2
#     Edge 13, Type (0, 0), BuildingBlock: KIFKEQ_clean_linker_1, # of connection points: 2
#     Edge 14, Type (0, 0), BuildingBlock: KIFKEQ_clean_linker_1, # of connection points: 2
#     Edge 15, Type (0, 0), BuildingBlock: KIFKEQ_clean_linker_1, # of connection points: 2
#     Edge 16, Type (0, 0), BuildingBlock: KIFKEQ_clean_linker_1, # of connection points: 2
#     Edge 17, Type (0, 0), BuildingBlock: KIFKEQ_clean_linker_1, # of connection points: 2
#     Edge 18, Type (0, 0), BuildingBlock: KIFKEQ_clean_linker_1, # of connection points: 2
#     Edge 19, Type (0, 0), BuildingBlock: KIFKEQ_clean_linker_1, # of connection points: 2
#     Edge 20, Type (0, 0), BuildingBlock: KIFKEQ_clean_linker_1, # of connection points: 2
#     Edge 21, Type (0, 0), BuildingBlock: KIFKEQ_clean_linker_1, # of connection points: 2
#     Edge 22, Type (0, 0), BuildingBlock: KIFKEQ_clean_linker_1, # of connection points: 2
#     Edge 23, Type (0, 0), BuildingBlock: KIFKEQ_clean_linker_1, # of connection points: 2
#     Edge 24, Type (0, 0), BuildingBlock: KIFKEQ_clean_linker_1, # of connection points: 2
#     Edge 25, Type (0, 0), BuildingBlock: KIFKEQ_clean_linker_1, # of connection points: 2
#     Edge 26, Type (0, 0), BuildingBlock: KIFKEQ_clean_linker_1, # of connection points: 2
#     Edge 27, Type (0, 0), BuildingBlock: KIFKEQ_clean_linker_1, # of connection points: 2
# Relax obj value: 0.032
# Max RMSD: 0.085
# Mean RMSD: 0.085
data_MOF--net-vmb--node1-BEQFEK_clean_sbu_0--edge1-KIFKEQ_clean_linker_1
_symmetry_space_group_name_H-M    P1
_symmetry_Int_Tables_number       1
_symmetry_cell_setting            triclinic
loop_
_symmetry_equiv_pos_as_xyz
'x, y, z'
_cell_length_a     42.028536
_cell_length_b     39.173467
_cell_length_c     30.150738
_cell_angle_alpha  89.990981
_cell_angle_beta   112.96591
_cell_angle_gamma 89.995397
loop_
_atom_site_label
_atom_site_type_symbol
_atom_site_fract_x
_atom_site_fract_y
_atom_site_fract_z
_atom_type_partial_charge
Co0 Co 0.20848 0.06929 0.37126 0.0
Co1 Co 0.28966 0.0655 0.41875 0.0
C2 C 0.24603 0.02353 0.4559 0.0
O3 O 0.21841 0.03595 0.42448 0.0
O4 O 0.27564 0.03195 0.45707 0.0
C5 C 0.13653 0.06499 0.35229 0.0
O6 O 0.14834 0.06112 0.39926 0.0
C7 C 0.35969 0.03726 0.4465 0.0
C8 C 0.3911 0.08431 0.46069 0.0
C9 C 0.39353 0.049 0.46036 0.0
N10 N 0.33866 0.0644 0.4391 0.0
N11 N 0.35761 0.09241 0.44789 0.0
C12 C 0.34672 0.00133 0.43711 0.0
H13 H 0.31885 0.00101 0.41317 0.0
H14 H 0.36163 0.98644 0.42042 0.0
H15 H 0.3497 0.98912 0.47171 0.0
C16 C 0.22214 0.05206 0.2845 0.0
N17 N 0.2331 0.05845 0.33204 0.0
N18 N 0.2671 0.05789 0.35136 0.0
C19 C 0.27889 0.05195 0.31639 0.0
C20 C 0.25082 0.04781 0.27288 0.0
C21 C 0.18488 0.04853 0.25169 0.0
H22 H 0.17121 0.03308 0.26959 0.0
H23 H 0.18174 0.03617 0.21714 0.0
H24 H 0.17279 0.07422 0.24434 0.0
O25 O 0.2212 0.1155 0.40014 0.0
O26 O 0.2783 0.11115 0.43536 0.0
H27 H 0.31935 0.05729 0.28927 0.0
H28 H 0.3286 0.0284 0.33929 0.0
C29 C 0.31623 0.053 0.32372 0.0
H30 H 0.32958 0.07382 0.34897 0.0
H31 H 0.34763 0.11709 0.44468 0.0
O32 O 0.15788 0.0691 0.33229 0.0
C33 C 0.25059 0.12805 0.42597 0.0
Co34 Co 0.80713 0.06966 0.13236 0.0
Co35 Co 0.72578 0.06869 0.08574 0.0
C36 C 0.76833 0.02637 0.04617 0.0
O37 O 0.79646 0.03697 0.07851 0.0
O38 O 0.73911 0.03616 0.04513 0.0
C39 C 0.8793 0.06119 0.1529 0.0
O40 O 0.86778 0.05319 0.10699 0.0
C41 C 0.65564 0.04069 0.05754 0.0
C42 C 0.62441 0.08779 0.04475 0.0
C43 C 0.62184 0.05247 0.04406 0.0
N44 N 0.67676 0.06782 0.06567 0.0
N45 N 0.65792 0.09587 0.05774 0.0
C46 C 0.66852 0.00469 0.06587 0.0
H47 H 0.69641 0.00415 0.08966 0.0
H48 H 0.65366 0.98947 0.08229 0.0
H49 H 0.6654 0.993 0.0309 0.0
C50 C 0.7935 0.05119 0.21877 0.0
N51 N 0.78246 0.05867 0.17152 0.0
N52 N 0.74845 0.05908 0.15258 0.0
C53 C 0.73676 0.05271 0.18754 0.0
C54 C 0.76489 0.04725 0.23063 0.0
C55 C 0.83071 0.0464 0.25103 0.0
H56 H 0.84385 0.03125 0.23208 0.0
H57 H 0.83369 0.03315 0.28493 0.0
H58 H 0.84347 0.07174 0.25972 0.0
O59 O 0.79508 0.11616 0.1043 0.0
O60 O 0.7377 0.11507 0.07236 0.0
H61 H 0.6867 0.07608 0.15638 0.0
H62 H 0.69684 0.05857 0.21557 0.0
C63 C 0.69957 0.05467 0.18078 0.0
H64 H 0.68642 0.03055 0.16443 0.0
H65 H 0.66798 0.12054 0.06162 0.0
O66 O 0.8578 0.06909 0.1714 0.0
C67 C 0.76612 0.13057 0.08119 0.0
Co68 Co 0.80936 0.91956 0.63062 0.0
Co69 Co 0.728 0.91985 0.59107 0.0
C70 C 0.76568 0.96181 0.54456 0.0
O71 O 0.79482 0.95163 0.57509 0.0
O72 O 0.73743 0.95189 0.54672 0.0
C73 C 0.87735 0.94945 0.6668 0.0
O74 O 0.86059 0.97718 0.6459 0.0
C75 C 0.65529 0.94232 0.55846 0.0
C76 C 0.63138 0.8974 0.57753 0.0
C77 C 0.62414 0.92982 0.55776 0.0
N78 N 0.67971 0.91832 0.57774 0.0
N79 N 0.66516 0.89146 0.58865 0.0
C80 C 0.66262 0.97742 0.5453 0.0
H81 H 0.68971 0.98472 0.5675 0.0
H82 H 0.64474 -0.00361 0.55044 0.0
H83 H 0.65914 0.97762 0.50688 0.0
C84 C 0.80033 0.93586 0.7213 0.0
N85 N 0.78749 0.92973 0.67353 0.0
N86 N 0.75354 0.93115 0.65667 0.0
C87 C 0.7437 0.93885 0.69302 0.0
C88 C 0.77299 0.9418 0.73534 0.0
C89 C 0.83793 0.93379 0.75311 0.0
H90 H 0.84977 0.91157 0.74256 0.0
H91 H 0.85107 0.95723 0.74836 0.0
H92 H 0.84201 0.93124 0.7916 0.0
O93 O 0.79756 0.87284 0.60426 0.0
O94 O 0.74026 0.87347 0.57723 0.0
H95 H 0.69344 0.92016 0.68215 0.0
H96 H 0.70545 0.95853 0.71814 0.0
C97 C 0.70704 0.94499 0.68677 0.0
H98 H 0.69381 0.96063 0.65414 0.0
H99 H 0.67847 0.86927 0.60454 0.0
O100 O 0.86047 0.92215 0.66476 0.0
C101 C 0.76843 0.85817 0.5836 0.0
Co102 Co 0.20611 0.92172 0.87379 0.0
Co103 Co 0.28747 0.92229 0.91216 0.0
C104 C 0.24994 0.96497 0.95828 0.0
O105 O 0.22073 0.95458 0.92827 0.0
O106 O 0.27809 0.95487 0.95599 0.0
C107 C 0.13778 0.9509 0.83758 0.0
O108 O 0.15428 0.97895 0.85758 0.0
C109 C 0.35991 0.94534 0.94372 0.0
C110 C 0.38416 0.90043 0.92526 0.0
C111 C 0.39114 0.933 0.94452 0.0
N112 N 0.3357 0.9211 0.92491 0.0
N113 N 0.35045 0.89425 0.91432 0.0
C114 C 0.35233 0.98046 0.95649 0.0
H115 H 0.32528 0.98765 0.93388 0.0
H116 H 0.37027 -0.00054 0.95158 0.0
H117 H 0.35546 0.98073 0.99478 0.0
C118 C 0.21417 0.9366 0.78214 0.0
N119 N 0.22744 0.93119 0.83008 0.0
N120 N 0.26137 0.93261 0.84633 0.0
C121 C 0.27076 0.93954 0.80934 0.0
C122 C 0.24119 0.94202 0.76731 0.0
C123 C 0.17646 0.93434 0.75096 0.0
H124 H 0.16492 0.91214 0.76203 0.0
H125 H 0.16334 0.95777 0.75582 0.0
H126 H 0.17198 0.93166 0.71235 0.0
O127 O 0.21857 0.87547 0.90161 0.0
O128 O 0.27583 0.87611 0.92766 0.0
H129 H 0.32076 0.92035 0.81973 0.0
H130 H 0.30852 0.95816 0.78257 0.0
C131 C 0.30728 0.94528 0.81461 0.0
H132 H 0.32087 0.96135 0.84666 0.0
H133 H 0.33732 0.87189 0.89888 0.0
O134 O 0.15493 0.92369 0.84018 0.0
C135 C 0.24778 0.86094 0.92227 0.0
Co136 Co 0.70522 0.57108 0.36994 0.0
Co137 Co 0.78634 0.56559 0.41155 0.0
C138 C 0.74553 0.52525 0.45425 0.0
O139 O 0.71753 0.53825 0.4245 0.0
O140 O 0.77458 0.53271 0.4527 0.0
C141 C 0.63681 0.54327 0.33143 0.0
O142 O 0.6533 0.51482 0.34958 0.0
C143 C 0.8569 0.53809 0.4405 0.0
C144 C 0.88614 0.58475 0.43952 0.0
C145 C 0.89004 0.54996 0.44872 0.0
N146 N 0.83492 0.56467 0.42723 0.0
N147 N 0.85259 0.59246 0.4269 0.0
C148 C 0.84533 0.50208 0.44165 0.0
H149 H 0.81727 0.49956 0.41954 0.0
H150 H 0.85994 0.48427 0.42797 0.0
H151 H 0.84987 0.49507 0.4793 0.0
C152 C 0.71452 0.55519 0.27939 0.0
N153 N 0.72718 0.56008 0.32742 0.0
N154 N 0.76108 0.55739 0.34475 0.0
C155 C 0.77106 0.5505 0.30826 0.0
C156 C 0.74188 0.54896 0.26554 0.0
C157 C 0.67712 0.55859 0.24723 0.0
H158 H 0.66592 0.58109 0.25822 0.0
H159 H 0.66307 0.53554 0.2511 0.0
H160 H 0.67341 0.56144 0.20892 0.0
O161 O 0.71916 0.61722 0.39755 0.0
O162 O 0.77629 0.61179 0.42915 0.0
H163 H 0.82285 0.56809 0.32703 0.0
H164 H 0.80986 0.5353 0.2811 0.0
C165 C 0.80774 0.54424 0.3147 0.0
H166 H 0.81914 0.52452 0.34272 0.0
H167 H 0.84168 0.6167 0.41784 0.0
O168 O 0.65405 0.5706 0.33546 0.0
C169 C 0.74913 0.62928 0.42158 0.0
Co170 Co 0.30738 0.57218 0.13328 0.0
Co171 Co 0.22595 0.56886 0.0896 0.0
C172 C 0.26651 0.52882 0.04629 0.0
O173 O 0.29458 0.54092 0.07711 0.0
O174 O 0.23734 0.53657 0.04731 0.0
C175 C 0.37603 0.54452 0.16671 0.0
O176 O 0.35984 0.51786 0.1416 0.0
C177 C 0.15409 0.54409 0.05775 0.0
C178 C 0.12769 0.59019 0.06873 0.0
C179 C 0.12223 0.55642 0.05425 0.0
N180 N 0.17734 0.56946 0.07378 0.0
N181 N 0.16128 0.59704 0.07966 0.0
C182 C 0.16298 0.50831 0.04961 0.0
H183 H 0.15979 0.50555 0.01148 0.0
H184 H 0.19029 0.50265 0.07295 0.0
H185 H 0.14563 0.48976 0.05689 0.0
C186 C 0.29643 0.55205 0.22132 0.0
N187 N 0.28443 0.55988 0.17408 0.0
N188 N 0.25044 0.55853 0.15593 0.0
C189 C 0.23971 0.54996 0.19114 0.0
C190 C 0.26846 0.54548 0.23377 0.0
C191 C 0.33401 0.54934 0.25292 0.0
H192 H 0.34652 0.57454 0.25478 0.0
H193 H 0.34647 0.53097 0.23673 0.0
H194 H 0.33826 0.54058 0.28976 0.0
O195 O 0.29475 0.61924 0.10788 0.0
O196 O 0.23758 0.61498 0.07479 0.0
H197 H 0.18965 0.57262 0.16903 0.0
H198 H 0.19948 0.54408 0.21908 0.0
C199 C 0.20255 0.54828 0.18463 0.0
H200 H 0.18953 0.52737 0.15924 0.0
H201 H 0.17347 0.62034 0.09229 0.0
O202 O 0.35854 0.57053 0.16886 0.0
C203 C 0.26514 0.63205 0.08374 0.0
Co204 Co 0.3068 0.4188 0.63212 0.0
Co205 Co 0.22545 0.41972 0.59092 0.0
C206 C 0.26462 0.46116 0.54577 0.0
O207 O 0.2935 0.45116 0.57714 0.0
O208 O 0.23604 0.45124 0.54692 0.0
C209 C 0.37873 0.42715 0.64864 0.0
O210 O 0.3668 0.43267 0.60199 0.0
C211 C 0.15284 0.44282 0.55632 0.0
C212 C 0.12864 0.39933 0.57809 0.0
C213 C 0.12169 0.43119 0.55654 0.0
N214 N 0.17707 0.41886 0.57687 0.0
N215 N 0.16233 0.39282 0.58933 0.0
C216 C 0.16035 0.4772 0.54107 0.0
H217 H 0.18712 0.48509 0.56392 0.0
H218 H 0.14184 0.49661 0.54347 0.0
H219 H 0.15806 0.47573 0.50319 0.0
C220 C 0.29695 0.43587 0.72161 0.0
N221 N 0.28435 0.42937 0.67398 0.0
N222 N 0.25042 0.43111 0.65661 0.0
C223 C 0.24034 0.43938 0.69256 0.0
C224 C 0.26946 0.44241 0.73507 0.0
C225 C 0.33447 0.43361 0.75377 0.0
H226 H 0.34559 0.40992 0.74558 0.0
H227 H 0.34834 0.45564 0.74654 0.0
H228 H 0.33856 0.43348 0.7924 0.0
O229 O 0.29474 0.37227 0.60541 0.0
O230 O 0.23741 0.37308 0.57767 0.0
H231 H 0.1899 0.42135 0.68188 0.0
H232 H 0.20205 0.46016 0.71674 0.0
C233 C 0.20366 0.44603 0.68581 0.0
H234 H 0.19061 0.46124 0.65268 0.0
H235 H 0.1755 0.3709 0.60654 0.0
O236 O 0.35761 0.42087 0.66838 0.0
C237 C 0.2656 0.35768 0.58445 0.0
Co238 Co 0.7077 0.41884 0.87013 0.0
Co239 Co 0.78893 0.42392 0.91485 0.0
C240 C 0.74656 0.46497 0.95463 0.0
O241 O 0.71886 0.45216 0.92388 0.0
O242 O 0.77603 0.4571 0.95474 0.0
C243 C 0.6355 0.42825 0.85042 0.0
O244 O 0.64703 0.43684 0.89611 0.0
C245 C 0.86006 0.45045 0.94312 0.0
C246 C 0.88975 0.40235 0.95481 0.0
C247 C 0.89323 0.43748 0.95697 0.0
N248 N 0.83783 0.4241 0.93286 0.0
N249 N 0.85579 0.39546 0.9398 0.0
C250 C 0.84995 0.48706 0.94308 0.0
H251 H 0.82142 0.48987 0.92741 0.0
H252 H 0.86123 0.50264 0.92213 0.0
H253 H 0.86046 0.49681 0.98062 0.0
C254 C 0.71904 0.43463 0.78154 0.0
N255 N 0.73109 0.42942 0.82943 0.0
N256 N 0.765 0.43192 0.84768 0.0
C257 C 0.77564 0.43887 0.8118 0.0
C258 C 0.74682 0.44085 0.76864 0.0
C259 C 0.68173 0.43163 0.7487 0.0
H260 H 0.67097 0.40767 0.75674 0.0
H261 H 0.66719 0.4533 0.75542 0.0
H262 H 0.67808 0.43154 0.71023 0.0
O263 O 0.72078 0.37274 0.89831 0.0
O264 O 0.77788 0.37791 0.93181 0.0
H265 H 0.82811 0.42203 0.83584 0.0
H266 H 0.81554 0.45123 0.78532 0.0
C267 C 0.81254 0.44498 0.81932 0.0
H268 H 0.82271 0.46662 0.84452 0.0
H269 H 0.84488 0.37111 0.93492 0.0
O270 O 0.65694 0.41955 0.8322 0.0
C271 C 0.75052 0.36056 0.92329 0.0
H272 H 0.19561 0.99194 0.97524 0.0
H273 H 0.30708 0.98402 0.03691 0.0
H274 H 0.19701 0.01621 0.05037 0.0
H275 H 0.30833 0.00862 0.11182 0.0
H276 H 0.28853 -0.00133 0.25231 0.0
H277 H 0.28992 0.98477 0.17422 0.0
H278 H 0.21588 0.06486 0.1079 0.0
H279 H 0.21494 0.07901 0.18658 0.0
C280 C 0.22047 -0.004 0.00442 0.0
C281 C 0.2512 0.98557 1.0002 0.0
C282 C 0.22124 0.01004 0.04745 0.0
C283 C 0.25274 0.01384 0.08722 0.0
C284 C 0.28361 0.0054 0.08203 0.0
C285 C 0.28288 0.99153 0.03894 0.0
C286 C 0.27291 0.01356 0.22112 0.0
C287 C 0.2516 0.03984 0.22533 0.0
C288 C 0.27377 0.00571 0.17645 0.0
C289 C 0.25316 0.02387 0.13493 0.0
C290 C 0.23189 0.0503 0.1392 0.0
C291 C 0.23124 0.05831 0.18408 0.0
H292 H 0.72609 -0.00143 0.24992 0.0
H293 H 0.80208 0.07648 0.31791 0.0
H294 H 0.72491 0.98357 0.3278 0.0
H295 H 0.80126 0.0613 0.39631 0.0
H296 H 0.82031 0.98762 0.52724 0.0
H297 H 0.81909 0.01214 0.45235 0.0
H298 H 0.70764 0.00643 0.39141 0.0
H299 H 0.70874 0.98152 0.46607 0.0
C300 C 0.74229 0.01269 0.28158 0.0
C301 C 0.76421 0.0386 0.27804 0.0
C302 C 0.74155 0.00421 0.32614 0.0
C303 C 0.76287 0.02138 0.36821 0.0
C304 C 0.78473 0.04746 0.3646 0.0
C305 C 0.78529 0.05607 0.31986 0.0
C306 C 0.79548 0.99209 0.49821 0.0
C307 C 0.76464 0.98216 0.50253 0.0
C308 C 0.7948 0.00629 0.45531 0.0
C309 C 0.76329 0.01077 0.41574 0.0
C310 C 0.73236 0.00269 0.421 0.0
C311 C 0.73301 0.98863 0.46395 0.0
H312 H 0.73608 0.91165 0.78158 0.0
H313 H 0.81311 0.98897 0.7989 0.0
H314 H 0.73585 0.92656 0.86032 0.0
H315 H 0.81333 0.00365 0.87777 0.0
H316 H 0.82593 0.00534 0.03251 0.0
H317 H 0.82852 0.98039 0.96007 0.0
H318 H 0.71706 0.97666 0.89494 0.0
H319 H 0.71429 0.00144 0.96756 0.0
C320 C 0.753 0.93179 0.80238 0.0
C321 C 0.77447 0.94934 0.78421 0.0
C322 C 0.75291 0.94027 0.84737 0.0
C323 C 0.77457 0.96625 0.87525 0.0
C324 C 0.7967 0.98317 0.85747 0.0
C325 C 0.79658 0.97484 0.81235 0.0
C326 C 0.80192 -0.00128 0.00313 0.0
C327 C 0.76986 0.00583 0.00572 0.0
C328 C 0.80346 0.9846 0.96148 0.0
C329 C 0.77302 0.97704 0.92157 0.0
C330 C 0.74099 0.98213 0.92518 0.0
C331 C 0.73942 -0.00357 0.96679 0.0
H332 H 0.20131 0.98902 0.70326 0.0
H333 H 0.27669 0.90996 0.72062 0.0
H334 H 0.20055 0.00244 0.62374 0.0
H335 H 0.27619 0.92338 0.64106 0.0
H336 H 0.29911 -0.00418 0.53303 0.0
H337 H 0.29579 0.97141 0.60542 0.0
H338 H 0.18455 0.97994 0.54171 0.0
H339 H 0.18774 0.00475 0.4695 0.0
C340 C 0.21732 0.97421 0.68964 0.0
C341 C 0.23919 0.94864 0.71799 0.0
C342 C 0.21685 0.98178 0.64411 0.0
C343 C 0.23834 0.96396 0.62609 0.0
C344 C 0.25964 0.9378 0.65415 0.0
C345 C 0.25996 0.93015 0.69961 0.0
C346 C 0.27387 0.99191 0.53401 0.0
C347 C 0.24373 0.00271 0.49564 0.0
C348 C 0.27198 0.9778 0.57551 0.0
C349 C 0.23992 0.97422 0.57955 0.0
C350 C 0.20966 0.983 0.54001 0.0
C351 C 0.21153 -0.00299 0.49848 0.0
H352 H 0.77807 0.58005 0.21886 0.0
H353 H 0.70207 0.50178 0.20208 0.0
H354 H 0.7779 0.56566 0.13969 0.0
H355 H 0.70159 0.48743 0.123 0.0
H356 H 0.68861 0.48441 0.96866 0.0
H357 H 0.68579 0.50957 0.04084 0.0
H358 H 0.79711 0.51694 0.10431 0.0
H359 H 0.80006 0.4921 0.03189 0.0
C360 C 0.76131 0.5598 0.19808 0.0
C361 C 0.7403 0.54178 0.21654 0.0
C362 C 0.76118 0.55159 0.15285 0.0
C363 C 0.73975 0.52541 0.12506 0.0
C364 C 0.71803 0.50808 0.14316 0.0
C365 C 0.71834 0.51617 0.18845 0.0
C366 C 0.71251 0.4919 0.9976 0.0
C367 C 0.74461 0.48578 0.99462 0.0
C368 C 0.71086 0.50614 0.03913 0.0
C369 C 0.74123 0.51475 0.07858 0.0
C370 C 0.77321 0.51069 0.07447 0.0
C371 C 0.7749 0.49634 0.03295 0.0
H372 H 0.30097 0.57774 0.32006 0.0
H373 H 0.23653 0.49112 0.25409 0.0
H374 H 0.29953 0.56211 0.39811 0.0
H375 H 0.23447 0.47582 0.33147 0.0
H376 H 0.20902 0.47673 0.46322 0.0
H377 H 0.21004 0.50025 0.38893 0.0
H378 H 0.32058 0.51332 0.45807 0.0
H379 H 0.31976 0.48983 0.53258 0.0
C380 C 0.2867 0.55527 0.32244 0.0
C381 C 0.26879 0.53562 0.28128 0.0
C382 C 0.28575 0.54643 0.3669 0.0
C383 C 0.26654 0.518 0.37069 0.0
C384 C 0.2489 0.49826 0.32944 0.0
C385 C 0.25018 0.50689 0.28527 0.0
C386 C 0.23349 0.48517 0.46298 0.0
C387 C 0.26437 0.48101 0.50377 0.0
C388 C 0.23407 0.49842 0.42028 0.0
C389 C 0.26545 0.50812 0.41756 0.0
C390 C 0.29602 0.50607 0.45915 0.0
C391 C 0.29551 0.49253 0.50179 0.0
H392 H 0.32378 0.50937 0.03069 0.0
H393 H 0.21221 0.50296 0.96889 0.0
H394 H 0.3257 0.48422 0.95798 0.0
H395 H 0.21427 0.47817 0.89588 0.0
H396 H 0.23263 0.41309 0.782 0.0
H397 H 0.23281 0.42874 0.86074 0.0
H398 H 0.30944 0.50627 0.87557 0.0
H399 H 0.30895 0.49068 0.79689 0.0
C400 C 0.29965 0.50221 0.00191 0.0
C401 C 0.26779 0.50859 0.00547 0.0
C402 C 0.30079 0.48799 0.9601 0.0
C403 C 0.27014 0.47969 0.92094 0.0
C404 C 0.23836 0.48418 0.92551 0.0
C405 C 0.23719 0.4985 0.96734 0.0
C406 C 0.24945 0.43347 0.80226 0.0
C407 C 0.27073 0.45078 0.78355 0.0
C408 C 0.24958 0.4424 0.84722 0.0
C409 C 0.2712 0.46867 0.87442 0.0
C410 C 0.29292 0.48553 0.85588 0.0
C411 C 0.29263 0.4767 0.81086 0.0
H412 H 0.70878 0.49017 0.70798 0.0
H413 H 0.78195 0.40987 0.72025 0.0
H414 H 0.70709 0.50487 0.62842 0.0
H415 H 0.78057 0.42463 0.64047 0.0
H416 H 0.80014 0.49731 0.52921 0.0
H417 H 0.7993 0.47285 0.6031 0.0
H418 H 0.68814 0.4823 0.54596 0.0
H419 H 0.68886 0.50714 0.47233 0.0
C420 C 0.72427 0.47551 0.69332 0.0
C421 C 0.74562 0.44906 0.72013 0.0
C422 C 0.72323 0.48378 0.64773 0.0
C423 C 0.74361 0.46581 0.62803 0.0
C424 C 0.7648 0.43911 0.65483 0.0
C425 C 0.76566 0.43071 0.70041 0.0
C426 C 0.77543 0.49362 0.53198 0.0
C427 C 0.74461 0.50467 0.49503 0.0
C428 C 0.77497 0.47949 0.57434 0.0
C429 C 0.7437 0.47615 0.58066 0.0
C430 C 0.71271 0.4852 0.54253 0.0
C431 C 0.71314 0.49924 0.50018 0.0
H432 H 0.57864 0.92738 0.60129 0.0
H433 H 0.59268 0.96994 0.47817 0.0
H434 H 0.52259 0.95533 0.57649 0.0
H435 H 0.53612 -0.00281 0.45225 0.0
H436 H 0.45132 0.07096 0.44954 0.0
H437 H 0.5066 0.04215 0.47233 0.0
H438 H 0.46527 0.95457 0.51908 0.0
H439 H 0.41089 0.98438 0.49958 0.0
C440 C 0.56958 0.94264 0.56873 0.0
C441 C 0.59022 0.94702 0.54211 0.0
C442 C 0.53733 0.95847 0.55426 0.0
C443 C 0.52469 0.97861 0.51231 0.0
C444 C 0.54526 0.98249 0.48528 0.0
C445 C 0.57772 0.96693 0.50012 0.0
C446 C 0.45398 0.04551 0.46464 0.0
C447 C 0.42625 0.0298 0.47173 0.0
C448 C 0.48566 0.02882 0.47729 0.0
C449 C 0.49049 -0.00412 0.49732 0.0
C450 C 0.46266 0.98003 0.50409 0.0
C451 C 0.43103 -0.00309 0.49185 0.0
H452 H 0.42231 0.97309 0.02414 0.0
H453 H 0.43675 0.93093 0.90112 0.0
H454 H 0.47882 0.00043 0.05041 0.0
H455 H 0.49273 0.95905 0.92618 0.0
H456 H 0.60436 0.98818 0.00357 0.0
H457 H 0.54994 0.95838 0.98343 0.0
H458 H 0.50856 0.04542 0.03124 0.0
H459 H 0.56391 0.07416 0.05479 0.0
C460 C 0.43735 0.97021 0.00227 0.0
C461 C 0.42498 0.95036 0.96022 0.0
C462 C 0.46978 0.98583 0.0173 0.0
C463 C 0.49046 0.98211 0.99039 0.0
C464 C 0.47793 0.96207 0.94834 0.0
C465 C 0.44571 0.94614 0.93371 0.0
C466 C 0.58421 0.00058 0.01142 0.0
C467 C 0.58903 0.03329 0.03211 0.0
C468 C 0.55254 0.98372 0.99878 0.0
C469 C 0.52468 -0.0006 0.00566 0.0
C470 C 0.52952 0.03219 0.02619 0.0
C471 C 0.56125 0.04885 0.03927 0.0
H472 H 0.94626 0.56827 0.43091 0.0
H473 H 0.91054 0.49037 0.50201 0.0
H474 H 1.00213 0.54037 0.45721 0.0
H475 H 0.96514 0.46081 0.52442 0.0
H476 H 0.07834 0.43486 0.60332 0.0
H477 H 0.02258 0.46347 0.57732 0.0
H478 H 0.03243 0.49379 0.44522 0.0
H479 H 0.08902 0.46647 0.4728 0.0
C480 C 0.95002 0.54482 0.45138 0.0
C481 C 0.92333 0.53123 0.46316 0.0
C482 C 0.98207 0.52857 0.46606 0.0
C483 C 0.9883 0.49806 0.49268 0.0
C484 C 0.96155 0.48439 0.50434 0.0
C485 C 0.92966 0.501 0.49032 0.0
C486 C 0.06852 0.44781 0.56882 0.0
C487 C 0.08806 0.44889 0.54031 0.0
C488 C 0.03641 0.46398 0.55364 0.0
C489 C 0.02271 0.48098 0.50898 0.0
C490 C 0.04231 0.48163 0.48024 0.0
C491 C 0.07474 0.46594 0.49591 0.0
H492 H 0.07889 0.55697 0.1012 0.0
H493 H 0.09094 0.51528 0.97615 0.0
H494 H 0.02301 0.52802 0.07794 0.0
H495 H 0.03452 0.487 0.95222 0.0
H496 H 0.912 0.48498 0.90587 0.0
H497 H 0.96836 0.51335 0.9295 0.0
H498 H 1.0048 0.45961 0.06519 0.0
H499 H 0.94875 0.43068 0.04107 0.0
C500 C 0.06952 0.54157 0.06878 0.0
C501 C 0.08919 0.538 0.04063 0.0
C502 C 0.03771 0.52504 0.0556 0.0
C503 C 0.02465 0.50545 0.01335 0.0
C504 C 0.04415 0.50209 0.9849 0.0
C505 C 0.0764 0.51798 0.99873 0.0
C506 C 0.93199 0.47963 0.94092 0.0
C507 C 0.92615 0.45615 0.97206 0.0
C508 C 0.96419 0.49551 0.95416 0.0
C509 C 0.99069 0.48856 0.99909 0.0
C510 C 0.98463 0.46541 0.03046 0.0
C511 C 0.95273 0.44895 0.01674 0.0
H512 H 0.08465 0.05088 0.38275 0.0
H513 H 0.10313 0.07758 0.25578 0.0
H514 H 0.02276 0.04921 0.33486 0.0
H515 H 0.04112 0.07703 0.20812 0.0
H516 H 0.93129 0.0389 0.12717 0.0
H517 H 0.99314 0.0392 0.17545 0.0
H518 H 0.97444 0.08515 0.29339 0.0
H519 H 0.91245 0.08374 0.24559 0.0
C520 C 0.0755 0.05663 0.34465 0.0
C521 C 0.09886 0.06436 0.32311 0.0
C522 C 0.03993 0.05588 0.3172 0.0
C523 C 0.02682 0.06304 0.26756 0.0
C524 C 0.05026 0.07087 0.24608 0.0
C525 C 0.08585 0.07141 0.27348 0.0
C526 C 0.94036 0.04902 0.16343 0.0
C527 C 0.91692 0.06133 0.18249 0.0
C528 C 0.9759 0.04941 0.19105 0.0
C529 C 0.98891 0.06232 0.23833 0.0
C530 C 0.96538 0.07457 0.25739 0.0
C531 C 0.92981 0.07396 0.22987 0.0
H532 H 0.09629 0.89887 0.78627 0.0
H533 H 0.09291 0.00297 0.8316 0.0
H534 H 0.03359 0.89885 0.74488 0.0
H535 H 0.03013 0.00268 0.79117 0.0
H536 H 0.92171 0.0017 0.67143 0.0
H537 H 0.98449 0.00208 0.71201 0.0
H538 H 0.98197 0.89895 0.76142 0.0
H539 H 0.91929 0.89828 0.71988 0.0
C540 C 0.08216 0.92171 0.78762 0.0
C541 C 0.09964 0.95092 0.81231 0.0
C542 C 0.04616 0.92164 0.7641 0.0
C543 C 0.02673 0.95073 0.76477 0.0
C544 C 0.04427 0.97997 0.78937 0.0
C545 C 0.08029 0.98008 0.81279 0.0
C546 C 0.93454 0.9791 0.69097 0.0
C547 C 0.91547 0.94992 0.69226 0.0
C548 C 0.97056 0.97939 0.71448 0.0
C549 C 0.98836 0.95053 0.73998 0.0
C550 C 0.9692 0.92143 0.7415 0.0
C551 C 0.9332 0.92111 0.71789 0.0
H552 H 0.42081 0.49456 0.16481 0.0
H553 H 0.41768 0.59405 0.22489 0.0
H554 H 0.48359 0.49456 0.20402 0.0
H555 H 0.48057 0.59371 0.26503 0.0
H556 H 0.59477 0.5969 0.28648 0.0
H557 H 0.53188 0.5972 0.24691 0.0
H558 H 0.5295 0.49071 0.28286 0.0
H559 H 0.59233 0.49021 0.32145 0.0
C560 C 0.43349 0.51637 0.18664 0.0
C561 C 0.41419 0.54433 0.19165 0.0
C562 C 0.46952 0.51628 0.20935 0.0
C563 C 0.48718 0.54413 0.23773 0.0
C564 C 0.46785 0.57205 0.24291 0.0
C565 C 0.43177 0.57215 0.22012 0.0
C566 C 0.58083 0.57354 0.28589 0.0
C567 C 0.59861 0.54352 0.30711 0.0
C568 C 0.54474 0.57377 0.26346 0.0
C569 C 0.52558 0.54399 0.26173 0.0
C570 C 0.54343 0.51398 0.28294 0.0
C571 C 0.57949 0.51375 0.3053 0.0
H572 H 0.60259 0.40719 0.75697 0.0
H573 H 0.58341 0.45046 0.87605 0.0
H574 H 0.54071 0.40705 0.70832 0.0
H575 H 0.52167 0.45127 0.82699 0.0
H576 H 0.41184 0.41286 0.74456 0.0
H577 H 0.47371 0.41316 0.79265 0.0
H578 H 0.49276 0.4444 0.66772 0.0
H579 H 0.43084 0.44314 0.61923 0.0
C580 C 0.58519 0.41686 0.77269 0.0
C581 C 0.59795 0.42869 0.82049 0.0
C582 C 0.5497 0.41699 0.74467 0.0
C583 C 0.52613 0.42911 0.7637 0.0
C584 C 0.53899 0.44122 0.81139 0.0
C585 C 0.57445 0.44094 0.83948 0.0
C586 C 0.42921 0.41979 0.7273 0.0
C587 C 0.41637 0.42791 0.67799 0.0
C588 C 0.46472 0.42018 0.75499 0.0
C589 C 0.48829 0.42885 0.73413 0.0
C590 C 0.47541 0.43712 0.68483 0.0
C591 C 0.43987 0.4366 0.65707 0.0
H592 H 0.21101 0.31345 0.55462 0.0
H593 H 0.31666 0.32399 0.56772 0.0
H594 H 0.20744 0.25797 0.51656 0.0
H595 H 0.31269 0.26929 0.52787 0.0
H596 H 0.30615 0.15581 0.4982 0.0
H597 H 0.30967 0.21014 0.53827 0.0
H598 H 0.20418 0.23246 0.44348 0.0
H599 H 0.20018 0.1771 0.40459 0.0
C600 C 0.23348 0.30391 0.54934 0.0
C601 C 0.26416 0.32305 0.56433 0.0
C602 C 0.23133 0.27224 0.52709 0.0
C603 C 0.25969 0.25917 0.5188 0.0
C604 C 0.29049 0.27824 0.53429 0.0
C605 C 0.29277 0.3097 0.55708 0.0
C606 C 0.2837 0.17233 0.48568 0.0
C607 C 0.25286 0.16212 0.44812 0.0
C608 C 0.28579 0.20364 0.5086 0.0
C609 C 0.25725 0.2258 0.49416 0.0
C610 C 0.2265 0.21579 0.45612 0.0
C611 C 0.22426 0.18418 0.43353 0.0
H612 H 0.80671 0.33321 0.99528 0.0
H613 H 0.70109 0.3107 0.90157 0.0
H614 H 0.81091 0.27864 0.03537 0.0
H615 H 0.70576 0.25528 0.94029 0.0
H616 H 0.71179 0.17487 0.05065 0.0
H617 H 0.70863 0.23036 0.01301 0.0
H618 H 0.81443 0.21924 0.02662 0.0
H619 H 0.81797 0.16436 0.06623 0.0
C620 C 0.7845 0.31638 0.98275 0.0
C621 C 0.75351 0.32634 0.94528 0.0
C622 C 0.78698 0.28495 0.00566 0.0
C623 C 0.75866 0.26249 0.99127 0.0
C624 C 0.72787 0.2722 0.95305 0.0
C625 C 0.72525 0.30386 0.93053 0.0
C626 C 0.73446 0.18442 0.04595 0.0
C627 C 0.76514 0.16525 0.06143 0.0
C628 C 0.73256 0.21612 0.02392 0.0
C629 C 0.76115 0.22922 0.01624 0.0
C630 C 0.79202 0.21021 0.03245 0.0
C631 C 0.79406 0.17868 0.05509 0.0
H632 H 0.80634 0.65646 0.49194 0.0
H633 H 0.69984 0.67912 0.40243 0.0
H634 H 0.81138 0.71067 0.53314 0.0
H635 H 0.70529 0.7342 0.44229 0.0
H636 H 0.7141 0.81374 0.5552 0.0
H637 H 0.71 0.75851 0.51641 0.0
H638 H 0.81448 0.77014 0.52462 0.0
H639 H 0.81901 0.82467 0.56526 0.0
C640 C 0.78411 0.67326 0.48053 0.0
C641 C 0.75264 0.66344 0.44392 0.0
C642 C 0.78706 0.70448 0.50409 0.0
C643 C 0.75873 0.72687 0.49124 0.0
C644 C 0.72745 0.71732 0.45387 0.0
C645 C 0.72438 0.68586 0.43068 0.0
C646 C 0.7363 0.80433 0.54909 0.0
C647 C 0.7669 0.82356 0.56334 0.0
C648 C 0.73384 0.7728 0.52641 0.0
C649 C 0.76178 0.75993 0.51688 0.0
C650 C 0.79258 0.77898 0.53188 0.0
C651 C 0.79518 0.81032 0.55513 0.0
H652 H 0.19762 0.82834 0.94247 0.0
H653 H 0.30217 0.81646 0.95139 0.0
H654 H 0.20214 0.77423 0.98396 0.0
H655 H 0.30624 0.76152 0.99105 0.0
H656 H 0.31553 0.68105 0.10386 0.0
H657 H 0.31095 0.73651 0.06498 0.0
H658 H 0.20435 0.71503 0.97427 0.0
H659 H 0.20848 0.66065 0.0144 0.0
C660 C 0.22138 0.81388 0.95257 0.0
C661 C 0.24952 0.82667 0.94361 0.0
C662 C 0.22398 0.78276 0.97631 0.0
C663 C 0.25461 0.76345 0.99105 0.0
C664 C 0.28251 0.77599 0.98116 0.0
C665 C 0.28006 0.80734 0.95797 0.0
C666 C 0.29107 0.68838 0.07591 0.0
C667 C 0.26238 0.66647 0.06238 0.0
C668 C 0.28849 0.72004 0.05329 0.0
C669 C 0.25729 0.73027 0.01627 0.0
C670 C 0.2286 0.70837 0.00313 0.0
C671 C 0.23105 0.67701 0.02609 0.0
loop_
_geom_bond_atom_site_label_1
_geom_bond_atom_site_label_2
_geom_bond_distance
_geom_bond_site_symmetry_2
_ccdc_geom_bond_type
Co0 O3 1.970 . S
Co0 N17 1.989 . S
Co0 O25 1.967 . S
Co0 O32 1.920 . S
Co1 O4 1.966 . S
Co1 N10 2.022 . S
Co1 N18 1.993 . S
Co1 O26 1.941 . S
C2 O3 1.258 . S
C2 O4 1.263 . S
O3 Co0 1.970 . S
O3 C2 1.258 . S
O4 Co1 1.966 . S
O4 C2 1.263 . S
C5 O6 1.235 . S
C5 O32 1.289 . S
O6 C5 1.235 . S
C7 C9 1.400 . S
C7 N10 1.351 . S
C7 C12 1.501 . S
C8 C9 1.387 . S
C8 N11 1.341 . S
C9 C7 1.400 . S
C9 C8 1.387 . S
N10 Co1 2.022 . S
N10 C7 1.351 . S
N10 N11 1.365 . S
N11 C8 1.341 . S
N11 N10 1.365 . S
N11 H31 0.862 . S
C12 C7 1.501 . S
C12 H13 0.961 . S
C12 H14 0.961 1_545 S
C12 H15 0.960 . S
H13 C12 0.961 . S
H14 C12 0.961 1_565 S
H15 C12 0.960 . S
C16 N17 1.342 . S
C16 C20 1.401 . S
C16 C21 1.499 . S
N17 Co0 1.989 . S
N17 C16 1.342 . S
N17 N18 1.388 . S
N18 Co1 1.993 . S
N18 N17 1.388 . S
N18 C19 1.346 . S
C19 N18 1.346 . S
C19 C20 1.396 . S
C19 C29 1.510 . S
C20 C16 1.401 . S
C20 C19 1.396 . S
C21 C16 1.499 . S
C21 H22 0.959 . S
C21 H23 0.960 . S
C21 H24 0.961 . S
H22 C21 0.959 . S
H23 C21 0.960 . S
H24 C21 0.961 . S
O25 Co0 1.967 . S
O25 C33 1.258 . S
O26 Co1 1.941 . S
O26 C33 1.266 . S
H27 C29 0.959 . S
H28 C29 0.961 . S
C29 C19 1.510 . S
C29 H27 0.959 . S
C29 H28 0.961 . S
C29 H30 0.960 . S
H30 C29 0.960 . S
H31 N11 0.862 . S
O32 Co0 1.920 . S
O32 C5 1.289 . S
C33 O25 1.258 . S
C33 O26 1.266 . S
Co34 O37 1.970 . S
Co34 N51 1.989 . S
Co34 O59 1.967 . S
Co34 O66 1.920 . S
Co35 O38 1.966 . S
Co35 N44 2.022 . S
Co35 N52 1.993 . S
Co35 O60 1.941 . S
C36 O37 1.258 . S
C36 O38 1.263 . S
O37 Co34 1.970 . S
O37 C36 1.258 . S
O38 Co35 1.966 . S
O38 C36 1.263 . S
C39 O40 1.235 . S
C39 O66 1.289 . S
O40 C39 1.235 . S
C41 C43 1.400 . S
C41 N44 1.351 . S
C41 C46 1.501 . S
C42 C43 1.387 . S
C42 N45 1.341 . S
C43 C41 1.400 . S
C43 C42 1.387 . S
N44 Co35 2.022 . S
N44 C41 1.351 . S
N44 N45 1.365 . S
N45 C42 1.341 . S
N45 N44 1.365 . S
N45 H65 0.862 . S
C46 C41 1.501 . S
C46 H47 0.961 . S
C46 H48 0.961 1_545 S
C46 H49 0.960 1_554 S
H47 C46 0.961 . S
H48 C46 0.961 1_565 S
H49 C46 0.960 1_556 S
C50 N51 1.342 . S
C50 C54 1.401 . S
C50 C55 1.499 . S
N51 Co34 1.989 . S
N51 C50 1.342 . S
N51 N52 1.388 . S
N52 Co35 1.993 . S
N52 N51 1.388 . S
N52 C53 1.346 . S
C53 N52 1.346 . S
C53 C54 1.396 . S
C53 C63 1.510 . S
C54 C50 1.401 . S
C54 C53 1.396 . S
C55 C50 1.499 . S
C55 H56 0.959 . S
C55 H57 0.960 . S
C55 H58 0.961 . S
H56 C55 0.959 . S
H57 C55 0.960 . S
H58 C55 0.961 . S
O59 Co34 1.967 . S
O59 C67 1.258 . S
O60 Co35 1.941 . S
O60 C67 1.266 . S
H61 C63 0.959 . S
H62 C63 0.961 . S
C63 C53 1.510 . S
C63 H61 0.959 . S
C63 H62 0.961 . S
C63 H64 0.960 . S
H64 C63 0.960 . S
H65 N45 0.862 . S
O66 Co34 1.920 . S
O66 C39 1.289 . S
C67 O59 1.258 . S
C67 O60 1.266 . S
Co68 O71 1.970 . S
Co68 N85 1.989 . S
Co68 O93 1.967 . S
Co68 O100 1.920 . S
Co69 O72 1.966 . S
Co69 N78 2.022 . S
Co69 N86 1.993 . S
Co69 O94 1.941 . S
C70 O71 1.258 . S
C70 O72 1.263 . S
O71 Co68 1.970 . S
O71 C70 1.258 . S
O72 Co69 1.966 . S
O72 C70 1.263 . S
C73 O74 1.235 . S
C73 O100 1.289 . S
O74 C73 1.235 . S
C75 C77 1.400 . S
C75 N78 1.351 . S
C75 C80 1.501 . S
C76 C77 1.387 . S
C76 N79 1.341 . S
C77 C75 1.400 . S
C77 C76 1.387 . S
N78 Co69 2.022 . S
N78 C75 1.351 . S
N78 N79 1.365 . S
N79 C76 1.341 . S
N79 N78 1.365 . S
N79 H99 0.862 . S
C80 C75 1.501 . S
C80 H81 0.961 . S
C80 H82 0.961 1_565 S
C80 H83 0.960 . S
H81 C80 0.961 . S
H82 C80 0.961 1_545 S
H83 C80 0.960 . S
C84 N85 1.342 . S
C84 C88 1.401 . S
C84 C89 1.499 . S
N85 Co68 1.989 . S
N85 C84 1.342 . S
N85 N86 1.388 . S
N86 Co69 1.993 . S
N86 N85 1.388 . S
N86 C87 1.346 . S
C87 N86 1.346 . S
C87 C88 1.396 . S
C87 C97 1.510 . S
C88 C84 1.401 . S
C88 C87 1.396 . S
C89 C84 1.499 . S
C89 H90 0.959 . S
C89 H91 0.960 . S
C89 H92 0.961 . S
H90 C89 0.959 . S
H91 C89 0.960 . S
H92 C89 0.961 . S
O93 Co68 1.967 . S
O93 C101 1.258 . S
O94 Co69 1.941 . S
O94 C101 1.266 . S
H95 C97 0.959 . S
H96 C97 0.961 . S
C97 C87 1.510 . S
C97 H95 0.959 . S
C97 H96 0.961 . S
C97 H98 0.960 . S
H98 C97 0.960 . S
H99 N79 0.862 . S
O100 Co68 1.920 . S
O100 C73 1.289 . S
C101 O93 1.258 . S
C101 O94 1.266 . S
Co102 O105 1.970 . S
Co102 N119 1.989 . S
Co102 O127 1.967 . S
Co102 O134 1.920 . S
Co103 O106 1.966 . S
Co103 N112 2.022 . S
Co103 N120 1.993 . S
Co103 O128 1.941 . S
C104 O105 1.258 . S
C104 O106 1.263 . S
O105 Co102 1.970 . S
O105 C104 1.258 . S
O106 Co103 1.966 . S
O106 C104 1.263 . S
C107 O108 1.235 . S
C107 O134 1.289 . S
O108 C107 1.235 . S
C109 C111 1.400 . S
C109 N112 1.351 . S
C109 C114 1.501 . S
C110 C111 1.387 . S
C110 N113 1.341 . S
C111 C109 1.400 . S
C111 C110 1.387 . S
N112 Co103 2.022 . S
N112 C109 1.351 . S
N112 N113 1.365 . S
N113 C110 1.341 . S
N113 N112 1.365 . S
N113 H133 0.862 . S
C114 C109 1.501 . S
C114 H115 0.961 . S
C114 H116 0.961 1_565 S
C114 H117 0.960 1_556 S
H115 C114 0.961 . S
H116 C114 0.961 1_545 S
H117 C114 0.960 1_554 S
C118 N119 1.342 . S
C118 C122 1.401 . S
C118 C123 1.499 . S
N119 Co102 1.989 . S
N119 C118 1.342 . S
N119 N120 1.388 . S
N120 Co103 1.993 . S
N120 N119 1.388 . S
N120 C121 1.346 . S
C121 N120 1.346 . S
C121 C122 1.396 . S
C121 C131 1.510 . S
C122 C118 1.401 . S
C122 C121 1.396 . S
C123 C118 1.499 . S
C123 H124 0.959 . S
C123 H125 0.960 . S
C123 H126 0.961 . S
H124 C123 0.959 . S
H125 C123 0.960 . S
H126 C123 0.961 . S
O127 Co102 1.967 . S
O127 C135 1.258 . S
O128 Co103 1.941 . S
O128 C135 1.266 . S
H129 C131 0.959 . S
H130 C131 0.961 . S
C131 C121 1.510 . S
C131 H129 0.959 . S
C131 H130 0.961 . S
C131 H132 0.960 . S
H132 C131 0.960 . S
H133 N113 0.862 . S
O134 Co102 1.920 . S
O134 C107 1.289 . S
C135 O127 1.258 . S
C135 O128 1.266 . S
Co136 O139 1.970 . S
Co136 N153 1.989 . S
Co136 O161 1.967 . S
Co136 O168 1.920 . S
Co137 O140 1.966 . S
Co137 N146 2.022 . S
Co137 N154 1.993 . S
Co137 O162 1.941 . S
C138 O139 1.258 . S
C138 O140 1.263 . S
O139 Co136 1.970 . S
O139 C138 1.258 . S
O140 Co137 1.966 . S
O140 C138 1.263 . S
C141 O142 1.235 . S
C141 O168 1.289 . S
O142 C141 1.235 . S
C143 C145 1.400 . S
C143 N146 1.351 . S
C143 C148 1.501 . S
C144 C145 1.387 . S
C144 N147 1.341 . S
C145 C143 1.400 . S
C145 C144 1.387 . S
N146 Co137 2.022 . S
N146 C143 1.351 . S
N146 N147 1.365 . S
N147 C144 1.341 . S
N147 N146 1.365 . S
N147 H167 0.862 . S
C148 C143 1.501 . S
C148 H149 0.961 . S
C148 H150 0.961 . S
C148 H151 0.960 . S
H149 C148 0.961 . S
H150 C148 0.961 . S
H151 C148 0.960 . S
C152 N153 1.342 . S
C152 C156 1.401 . S
C152 C157 1.499 . S
N153 Co136 1.989 . S
N153 C152 1.342 . S
N153 N154 1.388 . S
N154 Co137 1.993 . S
N154 N153 1.388 . S
N154 C155 1.346 . S
C155 N154 1.346 . S
C155 C156 1.396 . S
C155 C165 1.510 . S
C156 C152 1.401 . S
C156 C155 1.396 . S
C157 C152 1.499 . S
C157 H158 0.959 . S
C157 H159 0.960 . S
C157 H160 0.961 . S
H158 C157 0.959 . S
H159 C157 0.960 . S
H160 C157 0.961 . S
O161 Co136 1.967 . S
O161 C169 1.258 . S
O162 Co137 1.941 . S
O162 C169 1.266 . S
H163 C165 0.959 . S
H164 C165 0.961 . S
C165 C155 1.510 . S
C165 H163 0.959 . S
C165 H164 0.961 . S
C165 H166 0.960 . S
H166 C165 0.960 . S
H167 N147 0.862 . S
O168 Co136 1.920 . S
O168 C141 1.289 . S
C169 O161 1.258 . S
C169 O162 1.266 . S
Co170 O173 1.970 . S
Co170 N187 1.989 . S
Co170 O195 1.967 . S
Co170 O202 1.920 . S
Co171 O174 1.966 . S
Co171 N180 2.022 . S
Co171 N188 1.993 . S
Co171 O196 1.941 . S
C172 O173 1.258 . S
C172 O174 1.263 . S
O173 Co170 1.970 . S
O173 C172 1.258 . S
O174 Co171 1.966 . S
O174 C172 1.263 . S
C175 O176 1.235 . S
C175 O202 1.289 . S
O176 C175 1.235 . S
C177 C179 1.400 . S
C177 N180 1.351 . S
C177 C182 1.501 . S
C178 C179 1.387 . S
C178 N181 1.341 . S
C179 C177 1.400 . S
C179 C178 1.387 . S
N180 Co171 2.022 . S
N180 C177 1.351 . S
N180 N181 1.365 . S
N181 C178 1.341 . S
N181 N180 1.365 . S
N181 H201 0.862 . S
C182 C177 1.501 . S
C182 H183 0.961 . S
C182 H184 0.961 . S
C182 H185 0.960 1_554 S
H183 C182 0.961 . S
H184 C182 0.961 . S
H185 C182 0.960 1_556 S
C186 N187 1.342 . S
C186 C190 1.401 . S
C186 C191 1.499 . S
N187 Co170 1.989 . S
N187 C186 1.342 . S
N187 N188 1.388 . S
N188 Co171 1.993 . S
N188 N187 1.388 . S
N188 C189 1.346 . S
C189 N188 1.346 . S
C189 C190 1.396 . S
C189 C199 1.510 . S
C190 C186 1.401 . S
C190 C189 1.396 . S
C191 C186 1.499 . S
C191 H192 0.959 . S
C191 H193 0.960 . S
C191 H194 0.961 . S
H192 C191 0.959 . S
H193 C191 0.960 . S
H194 C191 0.961 . S
O195 Co170 1.967 . S
O195 C203 1.258 . S
O196 Co171 1.941 . S
O196 C203 1.266 . S
H197 C199 0.959 . S
H198 C199 0.961 . S
C199 C189 1.510 . S
C199 H197 0.959 . S
C199 H198 0.961 . S
C199 H200 0.960 . S
H200 C199 0.960 . S
H201 N181 0.862 . S
O202 Co170 1.920 . S
O202 C175 1.289 . S
C203 O195 1.258 . S
C203 O196 1.266 . S
Co204 O207 1.970 . S
Co204 N221 1.989 . S
Co204 O229 1.967 . S
Co204 O236 1.920 . S
Co205 O208 1.966 . S
Co205 N214 2.022 . S
Co205 N222 1.993 . S
Co205 O230 1.941 . S
C206 O207 1.258 . S
C206 O208 1.263 . S
O207 Co204 1.970 . S
O207 C206 1.258 . S
O208 Co205 1.966 . S
O208 C206 1.263 . S
C209 O210 1.235 . S
C209 O236 1.289 . S
O210 C209 1.235 . S
C211 C213 1.400 . S
C211 N214 1.351 . S
C211 C216 1.501 . S
C212 C213 1.387 . S
C212 N215 1.341 . S
C213 C211 1.400 . S
C213 C212 1.387 . S
N214 Co205 2.022 . S
N214 C211 1.351 . S
N214 N215 1.365 . S
N215 C212 1.341 . S
N215 N214 1.365 . S
N215 H235 0.862 . S
C216 C211 1.501 . S
C216 H217 0.961 . S
C216 H218 0.961 . S
C216 H219 0.960 . S
H217 C216 0.961 . S
H218 C216 0.961 . S
H219 C216 0.960 . S
C220 N221 1.342 . S
C220 C224 1.401 . S
C220 C225 1.499 . S
N221 Co204 1.989 . S
N221 C220 1.342 . S
N221 N222 1.388 . S
N222 Co205 1.993 . S
N222 N221 1.388 . S
N222 C223 1.346 . S
C223 N222 1.346 . S
C223 C224 1.396 . S
C223 C233 1.510 . S
C224 C220 1.401 . S
C224 C223 1.396 . S
C225 C220 1.499 . S
C225 H226 0.959 . S
C225 H227 0.960 . S
C225 H228 0.961 . S
H226 C225 0.959 . S
H227 C225 0.960 . S
H228 C225 0.961 . S
O229 Co204 1.967 . S
O229 C237 1.258 . S
O230 Co205 1.941 . S
O230 C237 1.266 . S
H231 C233 0.959 . S
H232 C233 0.961 . S
C233 C223 1.510 . S
C233 H231 0.959 . S
C233 H232 0.961 . S
C233 H234 0.960 . S
H234 C233 0.960 . S
H235 N215 0.862 . S
O236 Co204 1.920 . S
O236 C209 1.289 . S
C237 O229 1.258 . S
C237 O230 1.266 . S
Co238 O241 1.970 . S
Co238 N255 1.989 . S
Co238 O263 1.967 . S
Co238 O270 1.920 . S
Co239 O242 1.966 . S
Co239 N248 2.022 . S
Co239 N256 1.993 . S
Co239 O264 1.941 . S
C240 O241 1.258 . S
C240 O242 1.263 . S
O241 Co238 1.970 . S
O241 C240 1.258 . S
O242 Co239 1.966 . S
O242 C240 1.263 . S
C243 O244 1.235 . S
C243 O270 1.289 . S
O244 C243 1.235 . S
C245 C247 1.400 . S
C245 N248 1.351 . S
C245 C250 1.501 . S
C246 C247 1.387 . S
C246 N249 1.341 . S
C247 C245 1.400 . S
C247 C246 1.387 . S
N248 Co239 2.022 . S
N248 C245 1.351 . S
N248 N249 1.365 . S
N249 C246 1.341 . S
N249 N248 1.365 . S
N249 H269 0.862 . S
C250 C245 1.501 . S
C250 H251 0.961 . S
C250 H252 0.961 . S
C250 H253 0.960 1_556 S
H251 C250 0.961 . S
H252 C250 0.961 . S
H253 C250 0.960 1_554 S
C254 N255 1.342 . S
C254 C258 1.401 . S
C254 C259 1.499 . S
N255 Co238 1.989 . S
N255 C254 1.342 . S
N255 N256 1.388 . S
N256 Co239 1.993 . S
N256 N255 1.388 . S
N256 C257 1.346 . S
C257 N256 1.346 . S
C257 C258 1.396 . S
C257 C267 1.510 . S
C258 C254 1.401 . S
C258 C257 1.396 . S
C259 C254 1.499 . S
C259 H260 0.959 . S
C259 H261 0.960 . S
C259 H262 0.961 . S
H260 C259 0.959 . S
H261 C259 0.960 . S
H262 C259 0.961 . S
O263 Co238 1.967 . S
O263 C271 1.258 . S
O264 Co239 1.941 . S
O264 C271 1.266 . S
H265 C267 0.959 . S
H266 C267 0.961 . S
C267 C257 1.510 . S
C267 H265 0.959 . S
C267 H266 0.961 . S
C267 H268 0.960 . S
H268 C267 0.960 . S
H269 N249 0.862 . S
O270 Co238 1.920 . S
O270 C243 1.289 . S
C271 O263 1.258 . S
C271 O264 1.266 . S
H272 C280 0.950 1_546 S
H273 C285 0.950 . S
H274 C282 0.950 . S
H275 C284 0.950 . S
H276 C286 0.950 . S
H277 C288 0.950 . S
H278 C290 0.950 . S
H279 C291 0.950 . S
C280 H272 0.950 1_564 S
C280 C281 1.386 . S
C280 C282 1.391 1_565 S
C281 C280 1.386 . S
C281 C285 1.393 . S
C282 H274 0.950 . S
C282 C280 1.391 1_545 S
C282 C283 1.400 1_545 S
C283 C282 1.400 1_565 S
C283 C284 1.398 . S
C283 C289 1.491 1_565 S
C284 H275 0.950 . S
C284 C283 1.398 . S
C284 C285 1.391 . S
C285 H273 0.950 . S
C285 C281 1.393 . S
C285 C284 1.391 . S
C286 H276 0.950 . S
C286 C287 1.386 . S
C286 C288 1.391 1_545 S
C287 C286 1.386 . S
C287 C291 1.393 . S
C288 H277 0.950 . S
C288 C286 1.391 1_565 S
C288 C289 1.400 1_565 S
C289 C283 1.491 1_545 S
C289 C288 1.400 1_545 S
C289 C290 1.398 . S
C290 H278 0.950 . S
C290 C289 1.398 . S
C290 C291 1.391 . S
C291 H279 0.950 . S
C291 C287 1.393 . S
C291 C290 1.391 . S
H292 C300 0.950 1_565 S
H293 C305 0.950 . S
H294 C302 0.950 . S
H295 C304 0.950 . S
H296 C306 0.950 . S
H297 C308 0.950 . S
H298 C310 0.950 . S
H299 C311 0.950 . S
C300 H292 0.950 1_545 S
C300 C301 1.386 . S
C300 C302 1.391 1_545 S
C301 C300 1.386 . S
C301 C305 1.393 . S
C302 H294 0.950 . S
C302 C300 1.391 1_565 S
C302 C303 1.400 1_565 S
C303 C302 1.400 1_545 S
C303 C304 1.398 . S
C303 C309 1.491 1_545 S
C304 H295 0.950 . S
C304 C303 1.398 . S
C304 C305 1.391 . S
C305 H293 0.950 . S
C305 C301 1.393 . S
C305 C304 1.391 . S
C306 H296 0.950 . S
C306 C307 1.386 1_545 S
C306 C308 1.391 . S
C307 C306 1.386 1_565 S
C307 C311 1.393 . S
C308 H297 0.950 . S
C308 C306 1.391 . S
C308 C309 1.400 1_545 S
C309 C303 1.491 1_565 S
C309 C308 1.400 1_565 S
C309 C310 1.398 . S
C310 H298 0.950 . S
C310 C309 1.398 . S
C310 C311 1.391 . S
C311 H299 0.950 . S
C311 C307 1.393 . S
C311 C310 1.391 . S
H312 C320 0.950 . S
H313 C325 0.950 1_545 S
H314 C322 0.950 . S
H315 C324 0.950 . S
H316 C326 0.950 . S
H317 C328 0.950 . S
H318 C330 0.950 . S
H319 C331 0.952 . S
C320 H312 0.950 . S
C320 C321 1.386 . S
C320 C322 1.391 . S
C321 C320 1.386 . S
C321 C325 1.393 . S
C322 H314 0.950 . S
C322 C320 1.391 . S
C322 C323 1.400 . S
C323 C322 1.400 . S
C323 C324 1.398 1_565 S
C323 C329 1.491 1_565 S
C324 H315 0.950 . S
C324 C323 1.398 1_545 S
C324 C325 1.391 1_545 S
C325 H313 0.950 1_565 S
C325 C321 1.393 . S
C325 C324 1.391 1_565 S
C326 H316 0.950 . S
C326 C327 1.386 . S
C326 C328 1.391 . S
C327 C326 1.386 . S
C327 C331 1.389 1_545 S
C328 H317 0.950 . S
C328 C326 1.391 . S
C328 C329 1.400 . S
C329 C323 1.491 1_545 S
C329 C328 1.400 . S
C329 C330 1.398 1_545 S
C330 H318 0.950 . S
C330 C329 1.398 1_565 S
C330 C331 1.392 . S
C331 H319 0.952 . S
C331 C327 1.389 1_565 S
C331 C330 1.392 . S
H332 C340 0.949 1_545 S
H333 C345 0.950 . S
H334 C342 0.950 . S
H335 C344 0.950 . S
H336 C346 0.950 . S
H337 C348 0.950 . S
H338 C350 0.950 . S
H339 C351 0.950 . S
C340 H332 0.949 1_565 S
C340 C341 1.387 . S
C340 C342 1.391 1_565 S
C341 C340 1.387 . S
C341 C345 1.393 . S
C342 H334 0.950 . S
C342 C340 1.391 1_545 S
C342 C343 1.400 1_545 S
C343 C342 1.400 1_565 S
C343 C344 1.398 . S
C343 C349 1.491 1_565 S
C344 H335 0.950 . S
C344 C343 1.398 . S
C344 C345 1.391 . S
C345 H333 0.950 . S
C345 C341 1.393 . S
C345 C344 1.391 . S
C346 H336 0.950 . S
C346 C347 1.386 1_565 S
C346 C348 1.391 . S
C347 C346 1.386 1_545 S
C347 C351 1.393 . S
C348 H337 0.950 . S
C348 C346 1.391 . S
C348 C349 1.400 1_565 S
C349 C343 1.491 1_545 S
C349 C348 1.400 1_545 S
C349 C350 1.398 . S
C350 H338 0.950 . S
C350 C349 1.398 . S
C350 C351 1.391 . S
C351 H339 0.950 . S
C351 C347 1.393 . S
C351 C350 1.391 . S
H352 C360 0.950 . S
H353 C365 0.950 . S
H354 C362 0.950 . S
H355 C364 0.950 . S
H356 C366 0.950 1_556 S
H357 C368 0.950 . S
H358 C370 0.950 . S
H359 C371 0.950 . S
C360 H352 0.950 . S
C360 C361 1.386 . S
C360 C362 1.391 . S
C361 C360 1.386 . S
C361 C365 1.393 . S
C362 H354 0.950 . S
C362 C360 1.391 . S
C362 C363 1.400 . S
C363 C362 1.400 . S
C363 C364 1.398 . S
C363 C369 1.491 . S
C364 H355 0.950 . S
C364 C363 1.398 . S
C364 C365 1.391 . S
C365 H353 0.950 . S
C365 C361 1.393 . S
C365 C364 1.391 . S
C366 H356 0.950 1_554 S
C366 C367 1.386 . S
C366 C368 1.391 . S
C367 C366 1.386 . S
C367 C371 1.393 . S
C368 H357 0.950 . S
C368 C366 1.391 . S
C368 C369 1.400 . S
C369 C363 1.491 . S
C369 C368 1.400 . S
C369 C370 1.398 . S
C370 H358 0.950 . S
C370 C369 1.398 . S
C370 C371 1.391 . S
C371 H359 0.950 . S
C371 C367 1.393 . S
C371 C370 1.391 . S
H372 C380 0.950 . S
H373 C385 0.950 . S
H374 C382 0.950 . S
H375 C384 0.950 . S
H376 C386 0.950 . S
H377 C388 0.950 . S
H378 C390 0.950 . S
H379 C391 0.950 . S
C380 H372 0.950 . S
C380 C381 1.386 . S
C380 C382 1.391 . S
C381 C380 1.386 . S
C381 C385 1.393 . S
C382 H374 0.950 . S
C382 C380 1.391 . S
C382 C383 1.400 . S
C383 C382 1.400 . S
C383 C384 1.398 . S
C383 C389 1.491 . S
C384 H375 0.950 . S
C384 C383 1.398 . S
C384 C385 1.391 . S
C385 H373 0.950 . S
C385 C381 1.393 . S
C385 C384 1.391 . S
C386 H376 0.950 . S
C386 C387 1.386 . S
C386 C388 1.391 . S
C387 C386 1.386 . S
C387 C391 1.393 . S
C388 H377 0.950 . S
C388 C386 1.391 . S
C388 C389 1.400 . S
C389 C383 1.491 . S
C389 C388 1.400 . S
C389 C390 1.398 . S
C390 H378 0.950 . S
C390 C389 1.398 . S
C390 C391 1.391 . S
C391 H379 0.950 . S
C391 C387 1.393 . S
C391 C390 1.391 . S
H392 C400 0.950 . S
H393 C405 0.950 . S
H394 C402 0.950 . S
H395 C404 0.950 . S
H396 C406 0.950 . S
H397 C408 0.950 . S
H398 C410 0.950 . S
H399 C411 0.950 . S
C400 H392 0.950 . S
C400 C401 1.386 . S
C400 C402 1.391 . S
C401 C400 1.386 . S
C401 C405 1.393 . S
C402 H394 0.950 . S
C402 C400 1.391 . S
C402 C403 1.400 . S
C403 C402 1.400 . S
C403 C404 1.398 . S
C403 C409 1.491 . S
C404 H395 0.950 . S
C404 C403 1.398 . S
C404 C405 1.391 . S
C405 H393 0.950 . S
C405 C401 1.393 . S
C405 C404 1.391 . S
C406 H396 0.950 . S
C406 C407 1.386 . S
C406 C408 1.391 . S
C407 C406 1.386 . S
C407 C411 1.393 . S
C408 H397 0.950 . S
C408 C406 1.391 . S
C408 C409 1.400 . S
C409 C403 1.491 . S
C409 C408 1.400 . S
C409 C410 1.398 . S
C410 H398 0.950 . S
C410 C409 1.398 . S
C410 C411 1.391 . S
C411 H399 0.950 . S
C411 C407 1.393 . S
C411 C410 1.391 . S
H412 C420 0.950 . S
H413 C425 0.950 . S
H414 C422 0.950 . S
H415 C424 0.950 . S
H416 C426 0.950 . S
H417 C428 0.950 . S
H418 C430 0.950 . S
H419 C431 0.950 . S
C420 H412 0.950 . S
C420 C421 1.386 . S
C420 C422 1.391 . S
C421 C420 1.386 . S
C421 C425 1.393 . S
C422 H414 0.950 . S
C422 C420 1.391 . S
C422 C423 1.400 . S
C423 C422 1.400 . S
C423 C424 1.398 . S
C423 C429 1.491 . S
C424 H415 0.950 . S
C424 C423 1.398 . S
C424 C425 1.391 . S
C425 H413 0.950 . S
C425 C421 1.393 . S
C425 C424 1.391 . S
C426 H416 0.950 . S
C426 C427 1.386 . S
C426 C428 1.391 . S
C427 C426 1.386 . S
C427 C431 1.393 . S
C428 H417 0.950 . S
C428 C426 1.391 . S
C428 C429 1.400 . S
C429 C423 1.491 . S
C429 C428 1.400 . S
C429 C430 1.398 . S
C430 H418 0.950 . S
C430 C429 1.398 . S
C430 C431 1.391 . S
C431 H419 0.950 . S
C431 C427 1.393 . S
C431 C430 1.391 . S
H432 C440 0.950 . S
H433 C445 0.950 . S
H434 C442 0.950 . S
H435 C444 0.950 . S
H436 C446 0.950 . S
H437 C448 0.950 . S
H438 C450 0.950 . S
H439 C451 0.950 . S
C440 H432 0.950 . S
C440 C441 1.386 . S
C440 C442 1.391 . S
C441 C440 1.386 . S
C441 C445 1.393 1_565 S
C442 H434 0.950 . S
C442 C440 1.391 . S
C442 C443 1.400 . S
C443 C442 1.400 . S
C443 C444 1.398 1_565 S
C443 C449 1.491 1_565 S
C444 H435 0.950 . S
C444 C443 1.398 1_545 S
C444 C445 1.391 . S
C445 H433 0.950 . S
C445 C441 1.393 1_545 S
C445 C444 1.391 . S
C446 H436 0.950 . S
C446 C447 1.386 . S
C446 C448 1.391 . S
C447 C446 1.386 . S
C447 C451 1.393 1_545 S
C448 H437 0.950 . S
C448 C446 1.391 . S
C448 C449 1.400 . S
C449 C443 1.491 1_545 S
C449 C448 1.400 . S
C449 C450 1.398 1_545 S
C450 H438 0.950 . S
C450 C449 1.398 1_565 S
C450 C451 1.391 . S
C451 H439 0.950 . S
C451 C447 1.393 1_565 S
C451 C450 1.391 . S
H452 C460 0.957 . S
H453 C465 0.950 . S
H454 C462 0.950 . S
H455 C464 0.950 . S
H456 C466 0.957 . S
H457 C468 0.950 . S
H458 C470 0.950 . S
H459 C471 0.950 . S
C460 H452 0.957 . S
C460 C461 1.375 1_544 S
C460 C462 1.396 . S
C461 C460 1.375 1_566 S
C461 C465 1.393 . S
C462 H454 0.950 . S
C462 C460 1.396 . S
C462 C463 1.400 1_544 S
C463 C462 1.400 1_566 S
C463 C464 1.398 . S
C463 C469 1.491 1_566 S
C464 H455 0.950 . S
C464 C463 1.398 . S
C464 C465 1.391 . S
C465 H453 0.950 . S
C465 C461 1.393 . S
C465 C464 1.391 . S
C466 H456 0.957 . S
C466 C467 1.375 1_566 S
C466 C468 1.396 . S
C467 C466 1.375 1_544 S
C467 C471 1.393 . S
C468 H457 0.950 . S
C468 C466 1.396 . S
C468 C469 1.400 1_566 S
C469 C463 1.491 1_544 S
C469 C468 1.400 1_544 S
C469 C470 1.398 . S
C470 H458 0.950 . S
C470 C469 1.398 . S
C470 C471 1.391 . S
C471 H459 0.950 . S
C471 C467 1.393 . S
C471 C470 1.391 . S
H472 C480 0.950 . S
H473 C485 0.950 . S
H474 C482 0.950 . S
H475 C484 0.950 . S
H476 C486 0.950 . S
H477 C488 0.950 . S
H478 C490 0.950 . S
H479 C491 0.950 . S
C480 H472 0.950 . S
C480 C481 1.386 . S
C480 C482 1.391 . S
C481 C480 1.386 . S
C481 C485 1.393 . S
C482 H474 0.950 . S
C482 C480 1.391 . S
C482 C483 1.400 . S
C483 C482 1.400 . S
C483 C484 1.398 . S
C483 C489 1.491 1_655 S
C484 H475 0.950 . S
C484 C483 1.398 . S
C484 C485 1.391 . S
C485 H473 0.950 . S
C485 C481 1.393 . S
C485 C484 1.391 . S
C486 H476 0.950 . S
C486 C487 1.386 . S
C486 C488 1.391 . S
C487 C486 1.386 . S
C487 C491 1.393 . S
C488 H477 0.950 . S
C488 C486 1.391 . S
C488 C489 1.400 . S
C489 C483 1.491 1_455 S
C489 C488 1.400 . S
C489 C490 1.398 . S
C490 H478 0.950 . S
C490 C489 1.398 . S
C490 C491 1.391 . S
C491 H479 0.950 . S
C491 C487 1.393 . S
C491 C490 1.391 . S
H492 C500 0.950 . S
H493 C505 0.950 . S
H494 C502 0.950 . S
H495 C504 0.950 . S
H496 C506 0.950 . S
H497 C508 0.950 . S
H498 C510 0.950 . S
H499 C511 0.950 . S
C500 H492 0.950 . S
C500 C501 1.386 . S
C500 C502 1.391 . S
C501 C500 1.386 . S
C501 C505 1.393 1_554 S
C502 H494 0.950 . S
C502 C500 1.391 . S
C502 C503 1.400 . S
C503 C502 1.400 . S
C503 C504 1.398 1_554 S
C503 C509 1.491 1_454 S
C504 H495 0.950 . S
C504 C503 1.398 1_556 S
C504 C505 1.391 . S
C505 H493 0.950 . S
C505 C501 1.393 1_556 S
C505 C504 1.391 . S
C506 H496 0.950 . S
C506 C507 1.386 . S
C506 C508 1.391 . S
C507 C506 1.386 . S
C507 C511 1.393 1_556 S
C508 H497 0.950 . S
C508 C506 1.391 . S
C508 C509 1.400 . S
C509 C503 1.491 1_656 S
C509 C508 1.400 . S
C509 C510 1.398 1_556 S
C510 H498 0.950 . S
C510 C509 1.398 1_554 S
C510 C511 1.391 . S
C511 H499 0.950 . S
C511 C507 1.393 1_554 S
C511 C510 1.391 . S
H512 C520 0.950 . S
H513 C525 0.950 . S
H514 C522 0.950 . S
H515 C524 0.950 . S
H516 C526 0.950 . S
H517 C528 0.950 . S
H518 C530 0.950 . S
H519 C531 0.950 . S
C520 H512 0.950 . S
C520 C521 1.386 . S
C520 C522 1.391 . S
C521 C520 1.386 . S
C521 C525 1.393 . S
C522 H514 0.950 . S
C522 C520 1.391 . S
C522 C523 1.400 . S
C523 C522 1.400 . S
C523 C524 1.398 . S
C523 C529 1.491 1_455 S
C524 H515 0.950 . S
C524 C523 1.398 . S
C524 C525 1.391 . S
C525 H513 0.950 . S
C525 C521 1.393 . S
C525 C524 1.391 . S
C526 H516 0.950 . S
C526 C527 1.386 . S
C526 C528 1.391 . S
C527 C526 1.386 . S
C527 C531 1.393 . S
C528 H517 0.950 . S
C528 C526 1.391 . S
C528 C529 1.400 . S
C529 C523 1.491 1_655 S
C529 C528 1.400 . S
C529 C530 1.398 . S
C530 H518 0.950 . S
C530 C529 1.398 . S
C530 C531 1.391 . S
C531 H519 0.950 . S
C531 C527 1.393 . S
C531 C530 1.391 . S
H532 C540 0.950 . S
H533 C545 0.950 . S
H534 C542 0.950 . S
H535 C544 0.950 . S
H536 C546 0.950 . S
H537 C548 0.950 . S
H538 C550 0.950 . S
H539 C551 0.950 . S
C540 H532 0.950 . S
C540 C541 1.386 . S
C540 C542 1.391 . S
C541 C540 1.386 . S
C541 C545 1.393 . S
C542 H534 0.950 . S
C542 C540 1.391 . S
C542 C543 1.400 . S
C543 C542 1.400 . S
C543 C544 1.398 . S
C543 C549 1.491 1_455 S
C544 H535 0.950 . S
C544 C543 1.398 . S
C544 C545 1.391 . S
C545 H533 0.950 . S
C545 C541 1.393 . S
C545 C544 1.391 . S
C546 H536 0.950 . S
C546 C547 1.386 . S
C546 C548 1.391 . S
C547 C546 1.386 . S
C547 C551 1.393 . S
C548 H537 0.950 . S
C548 C546 1.391 . S
C548 C549 1.400 . S
C549 C543 1.491 1_655 S
C549 C548 1.400 . S
C549 C550 1.398 . S
C550 H538 0.950 . S
C550 C549 1.398 . S
C550 C551 1.391 . S
C551 H539 0.950 . S
C551 C547 1.393 . S
C551 C550 1.391 . S
H552 C560 0.950 . S
H553 C565 0.950 . S
H554 C562 0.950 . S
H555 C564 0.950 . S
H556 C566 0.950 . S
H557 C568 0.950 . S
H558 C570 0.950 . S
H559 C571 0.950 . S
C560 H552 0.950 . S
C560 C561 1.386 . S
C560 C562 1.391 . S
C561 C560 1.386 . S
C561 C565 1.393 . S
C562 H554 0.950 . S
C562 C560 1.391 . S
C562 C563 1.400 . S
C563 C562 1.400 . S
C563 C564 1.398 . S
C563 C569 1.491 . S
C564 H555 0.950 . S
C564 C563 1.398 . S
C564 C565 1.391 . S
C565 H553 0.950 . S
C565 C561 1.393 . S
C565 C564 1.391 . S
C566 H556 0.950 . S
C566 C567 1.386 . S
C566 C568 1.391 . S
C567 C566 1.386 . S
C567 C571 1.393 . S
C568 H557 0.950 . S
C568 C566 1.391 . S
C568 C569 1.400 . S
C569 C563 1.491 . S
C569 C568 1.400 . S
C569 C570 1.398 . S
C570 H558 0.950 . S
C570 C569 1.398 . S
C570 C571 1.391 . S
C571 H559 0.950 . S
C571 C567 1.393 . S
C571 C570 1.391 . S
H572 C580 0.950 . S
H573 C585 0.950 . S
H574 C582 0.950 . S
H575 C584 0.950 . S
H576 C586 0.950 . S
H577 C588 0.950 . S
H578 C590 0.950 . S
H579 C591 0.950 . S
C580 H572 0.950 . S
C580 C581 1.386 . S
C580 C582 1.391 . S
C581 C580 1.386 . S
C581 C585 1.393 . S
C582 H574 0.950 . S
C582 C580 1.391 . S
C582 C583 1.400 . S
C583 C582 1.400 . S
C583 C584 1.398 . S
C583 C589 1.491 . S
C584 H575 0.950 . S
C584 C583 1.398 . S
C584 C585 1.391 . S
C585 H573 0.950 . S
C585 C581 1.393 . S
C585 C584 1.391 . S
C586 H576 0.950 . S
C586 C587 1.386 . S
C586 C588 1.391 . S
C587 C586 1.386 . S
C587 C591 1.393 . S
C588 H577 0.950 . S
C588 C586 1.391 . S
C588 C589 1.400 . S
C589 C583 1.491 . S
C589 C588 1.400 . S
C589 C590 1.398 . S
C590 H578 0.950 . S
C590 C589 1.398 . S
C590 C591 1.391 . S
C591 H579 0.950 . S
C591 C587 1.393 . S
C591 C590 1.391 . S
H592 C600 0.950 . S
H593 C605 0.950 . S
H594 C602 0.950 . S
H595 C604 0.950 . S
H596 C606 0.950 . S
H597 C608 0.950 . S
H598 C610 0.950 . S
H599 C611 0.950 . S
C600 H592 0.950 . S
C600 C601 1.386 . S
C600 C602 1.391 . S
C601 C600 1.386 . S
C601 C605 1.393 . S
C602 H594 0.950 . S
C602 C600 1.391 . S
C602 C603 1.400 . S
C603 C602 1.400 . S
C603 C604 1.398 . S
C603 C609 1.491 . S
C604 H595 0.950 . S
C604 C603 1.398 . S
C604 C605 1.391 . S
C605 H593 0.950 . S
C605 C601 1.393 . S
C605 C604 1.391 . S
C606 H596 0.950 . S
C606 C607 1.386 . S
C606 C608 1.391 . S
C607 C606 1.386 . S
C607 C611 1.393 . S
C608 H597 0.950 . S
C608 C606 1.391 . S
C608 C609 1.400 . S
C609 C603 1.491 . S
C609 C608 1.400 . S
C609 C610 1.398 . S
C610 H598 0.950 . S
C610 C609 1.398 . S
C610 C611 1.391 . S
C611 H599 0.950 . S
C611 C607 1.393 . S
C611 C610 1.391 . S
H612 C620 0.950 . S
H613 C625 0.950 . S
H614 C622 0.950 . S
H615 C624 0.950 . S
H616 C626 0.950 . S
H617 C628 0.950 . S
H618 C630 0.950 . S
H619 C631 0.950 . S
C620 H612 0.950 . S
C620 C621 1.386 . S
C620 C622 1.391 . S
C621 C620 1.386 . S
C621 C625 1.393 . S
C622 H614 0.950 . S
C622 C620 1.391 . S
C622 C623 1.400 . S
C623 C622 1.400 . S
C623 C624 1.398 1_556 S
C623 C629 1.491 1_556 S
C624 H615 0.950 . S
C624 C623 1.398 1_554 S
C624 C625 1.391 1_554 S
C625 H613 0.950 . S
C625 C621 1.393 . S
C625 C624 1.391 1_556 S
C626 H616 0.950 . S
C626 C627 1.386 . S
C626 C628 1.391 . S
C627 C626 1.386 . S
C627 C631 1.393 . S
C628 H617 0.950 . S
C628 C626 1.391 . S
C628 C629 1.400 . S
C629 C623 1.491 1_554 S
C629 C628 1.400 . S
C629 C630 1.398 1_554 S
C630 H618 0.950 . S
C630 C629 1.398 1_556 S
C630 C631 1.391 1_556 S
C631 H619 0.950 . S
C631 C627 1.393 . S
C631 C630 1.391 1_554 S
H632 C640 0.950 . S
H633 C645 0.950 . S
H634 C642 0.950 . S
H635 C644 0.950 . S
H636 C646 0.950 . S
H637 C648 0.950 . S
H638 C650 0.950 . S
H639 C651 0.950 . S
C640 H632 0.950 . S
C640 C641 1.386 . S
C640 C642 1.391 . S
C641 C640 1.386 . S
C641 C645 1.393 . S
C642 H634 0.950 . S
C642 C640 1.391 . S
C642 C643 1.400 . S
C643 C642 1.400 . S
C643 C644 1.398 . S
C643 C649 1.491 . S
C644 H635 0.950 . S
C644 C643 1.398 . S
C644 C645 1.391 . S
C645 H633 0.950 . S
C645 C641 1.393 . S
C645 C644 1.391 . S
C646 H636 0.950 . S
C646 C647 1.386 . S
C646 C648 1.391 . S
C647 C646 1.386 . S
C647 C651 1.393 . S
C648 H637 0.950 . S
C648 C646 1.391 . S
C648 C649 1.400 . S
C649 C643 1.491 . S
C649 C648 1.400 . S
C649 C650 1.398 . S
C650 H638 0.950 . S
C650 C649 1.398 . S
C650 C651 1.391 . S
C651 H639 0.950 . S
C651 C647 1.393 . S
C651 C650 1.391 . S
H652 C660 0.950 . S
H653 C665 0.950 . S
H654 C662 0.950 . S
H655 C664 0.950 1_554 S
H656 C666 0.950 . S
H657 C668 0.950 . S
H658 C670 0.950 1_556 S
H659 C671 0.950 . S
C660 H652 0.950 . S
C660 C661 1.386 . S
C660 C662 1.391 . S
C661 C660 1.386 . S
C661 C665 1.393 . S
C662 H654 0.950 . S
C662 C660 1.391 . S
C662 C663 1.400 . S
C663 C662 1.400 . S
C663 C664 1.398 . S
C663 C669 1.491 1_556 S
C664 H655 0.950 1_556 S
C664 C663 1.398 . S
C664 C665 1.391 . S
C665 H653 0.950 . S
C665 C661 1.393 . S
C665 C664 1.391 . S
C666 H656 0.950 . S
C666 C667 1.386 . S
C666 C668 1.391 . S
C667 C666 1.386 . S
C667 C671 1.393 . S
C668 H657 0.950 . S
C668 C666 1.391 . S
C668 C669 1.400 . S
C669 C663 1.491 1_554 S
C669 C668 1.400 . S
C669 C670 1.398 . S
C670 H658 0.950 1_554 S
C670 C669 1.398 . S
C670 C671 1.391 . S
C671 H659 0.950 . S
C671 C667 1.393 . S
C671 C670 1.391 . S
C281 C104 1.317 1_554 S
C287 C20 1.321 . S
C301 C54 1.315 . S
C307 C70 1.322 . S
C321 C88 1.320 . S
C327 C36 1.319 1_556 S
C341 C122 1.316 . S
C347 C2 1.319 . S
C361 C156 1.313 . S
C367 C240 1.321 1_554 S
C381 C190 1.318 . S
C387 C206 1.317 . S
C401 C172 1.319 1_556 S
C407 C224 1.316 . S
C421 C258 1.316 . S
C427 C138 1.319 . S
C441 C77 1.377 . S
C447 C9 1.377 . S
C461 C111 1.357 . S
C467 C43 1.357 . S
C481 C145 1.354 . S
C487 C213 1.354 . S
C501 C179 1.352 . S
C507 C247 1.352 . S
C521 C5 1.597 . S
C527 C39 1.586 . S
C541 C107 1.593 . S
C547 C73 1.595 . S
C561 C175 1.596 . S
C567 C141 1.592 . S
C581 C243 1.598 . S
C587 C209 1.588 . S
C601 C237 1.557 . S
C607 C33 1.557 . S
C621 C271 1.558 . S
C627 C67 1.558 . S
C641 C169 1.570 . S
C647 C101 1.570 . S
C661 C135 1.570 . S
C667 C203 1.570 . S
