# Generated by pormake.
# Topology sms, (6)-cn, num edge types: 1
# Building blocks:
#     Node 0, Type 0, BuildingBlock: OJICUG_clean_sbu_0, # of connection points: 6
#     Node 1, Type 0, BuildingBlock: OJICUG_clean_sbu_0, # of connection points: 6
#     Node 2, Type 0, BuildingBlock: OJICUG_clean_sbu_0, # of connection points: 6
#     Node 3, Type 0, BuildingBlock: OJICUG_clean_sbu_0, # of connection points: 6
#     Node 4, Type 0, BuildingBlock: OJICUG_clean_sbu_0, # of connection points: 6
#     Node 5, Type 0, BuildingBlock: OJICUG_clean_sbu_0, # of connection points: 6
#     Node 6, Type 0, BuildingBlock: OJICUG_clean_sbu_0, # of connection points: 6
#     Node 7, Type 0, BuildingBlock: OJICUG_clean_sbu_0, # of connection points: 6
#     Node 8, Type 0, BuildingBlock: OJICUG_clean_sbu_0, # of connection points: 6
#     Node 9, Type 0, BuildingBlock: OJICUG_clean_sbu_0, # of connection points: 6
#     Node 10, Type 0, BuildingBlock: OJICUG_clean_sbu_0, # of connection points: 6
#     Node 11, Type 0, BuildingBlock: OJICUG_clean_sbu_0, # of connection points: 6
#     Node 12, Type 0, BuildingBlock: OJICUG_clean_sbu_0, # of connection points: 6
#     Node 13, Type 0, BuildingBlock: OJICUG_clean_sbu_0, # of connection points: 6
#     Node 14, Type 0, BuildingBlock: OJICUG_clean_sbu_0, # of connection points: 6
#     Node 15, Type 0, BuildingBlock: OJICUG_clean_sbu_0, # of connection points: 6
#     Node 16, Type 0, BuildingBlock: OJICUG_clean_sbu_0, # of connection points: 6
#     Node 17, Type 0, BuildingBlock: OJICUG_clean_sbu_0, # of connection points: 6
#     Edge 18, Type (0, 0), BuildingBlock: XIVTED_clean_linker_0, # of connection points: 2
#     Edge 19, Type (0, 0), BuildingBlock: XIVTED_clean_linker_0, # of connection points: 2
#     Edge 20, Type (0, 0), BuildingBlock: XIVTED_clean_linker_0, # of connection points: 2
#     Edge 21, Type (0, 0), BuildingBlock: XIVTED_clean_linker_0, # of connection points: 2
#     Edge 22, Type (0, 0), BuildingBlock: XIVTED_clean_linker_0, # of connection points: 2
#     Edge 23, Type (0, 0), BuildingBlock: XIVTED_clean_linker_0, # of connection points: 2
#     Edge 24, Type (0, 0), BuildingBlock: XIVTED_clean_linker_0, # of connection points: 2
#     Edge 25, Type (0, 0), BuildingBlock: XIVTED_clean_linker_0, # of connection points: 2
#     Edge 26, Type (0, 0), BuildingBlock: XIVTED_clean_linker_0, # of connection points: 2
#     Edge 27, Type (0, 0), BuildingBlock: XIVTED_clean_linker_0, # of connection points: 2
#     Edge 28, Type (0, 0), BuildingBlock: XIVTED_clean_linker_0, # of connection points: 2
#     Edge 29, Type (0, 0), BuildingBlock: XIVTED_clean_linker_0, # of connection points: 2
#     Edge 30, Type (0, 0), BuildingBlock: XIVTED_clean_linker_0, # of connection points: 2
#     Edge 31, Type (0, 0), BuildingBlock: XIVTED_clean_linker_0, # of connection points: 2
#     Edge 32, Type (0, 0), BuildingBlock: XIVTED_clean_linker_0, # of connection points: 2
#     Edge 33, Type (0, 0), BuildingBlock: XIVTED_clean_linker_0, # of connection points: 2
#     Edge 34, Type (0, 0), BuildingBlock: XIVTED_clean_linker_0, # of connection points: 2
#     Edge 35, Type (0, 0), BuildingBlock: XIVTED_clean_linker_0, # of connection points: 2
#     Edge 36, Type (0, 0), BuildingBlock: XIVTED_clean_linker_0, # of connection points: 2
#     Edge 37, Type (0, 0), BuildingBlock: XIVTED_clean_linker_0, # of connection points: 2
#     Edge 38, Type (0, 0), BuildingBlock: XIVTED_clean_linker_0, # of connection points: 2
#     Edge 39, Type (0, 0), BuildingBlock: XIVTED_clean_linker_0, # of connection points: 2
#     Edge 40, Type (0, 0), BuildingBlock: XIVTED_clean_linker_0, # of connection points: 2
#     Edge 41, Type (0, 0), BuildingBlock: XIVTED_clean_linker_0, # of connection points: 2
#     Edge 42, Type (0, 0), BuildingBlock: XIVTED_clean_linker_0, # of connection points: 2
#     Edge 43, Type (0, 0), BuildingBlock: XIVTED_clean_linker_0, # of connection points: 2
#     Edge 44, Type (0, 0), BuildingBlock: XIVTED_clean_linker_0, # of connection points: 2
#     Edge 45, Type (0, 0), BuildingBlock: XIVTED_clean_linker_0, # of connection points: 2
#     Edge 46, Type (0, 0), BuildingBlock: XIVTED_clean_linker_0, # of connection points: 2
#     Edge 47, Type (0, 0), BuildingBlock: XIVTED_clean_linker_0, # of connection points: 2
#     Edge 48, Type (0, 0), BuildingBlock: XIVTED_clean_linker_0, # of connection points: 2
#     Edge 49, Type (0, 0), BuildingBlock: XIVTED_clean_linker_0, # of connection points: 2
#     Edge 50, Type (0, 0), BuildingBlock: XIVTED_clean_linker_0, # of connection points: 2
#     Edge 51, Type (0, 0), BuildingBlock: XIVTED_clean_linker_0, # of connection points: 2
#     Edge 52, Type (0, 0), BuildingBlock: XIVTED_clean_linker_0, # of connection points: 2
#     Edge 53, Type (0, 0), BuildingBlock: XIVTED_clean_linker_0, # of connection points: 2
#     Edge 54, Type (0, 0), BuildingBlock: XIVTED_clean_linker_0, # of connection points: 2
#     Edge 55, Type (0, 0), BuildingBlock: XIVTED_clean_linker_0, # of connection points: 2
#     Edge 56, Type (0, 0), BuildingBlock: XIVTED_clean_linker_0, # of connection points: 2
#     Edge 57, Type (0, 0), BuildingBlock: XIVTED_clean_linker_0, # of connection points: 2
#     Edge 58, Type (0, 0), BuildingBlock: XIVTED_clean_linker_0, # of connection points: 2
#     Edge 59, Type (0, 0), BuildingBlock: XIVTED_clean_linker_0, # of connection points: 2
#     Edge 60, Type (0, 0), BuildingBlock: XIVTED_clean_linker_0, # of connection points: 2
#     Edge 61, Type (0, 0), BuildingBlock: XIVTED_clean_linker_0, # of connection points: 2
#     Edge 62, Type (0, 0), BuildingBlock: XIVTED_clean_linker_0, # of connection points: 2
#     Edge 63, Type (0, 0), BuildingBlock: XIVTED_clean_linker_0, # of connection points: 2
#     Edge 64, Type (0, 0), BuildingBlock: XIVTED_clean_linker_0, # of connection points: 2
#     Edge 65, Type (0, 0), BuildingBlock: XIVTED_clean_linker_0, # of connection points: 2
#     Edge 66, Type (0, 0), BuildingBlock: XIVTED_clean_linker_0, # of connection points: 2
#     Edge 67, Type (0, 0), BuildingBlock: XIVTED_clean_linker_0, # of connection points: 2
#     Edge 68, Type (0, 0), BuildingBlock: XIVTED_clean_linker_0, # of connection points: 2
#     Edge 69, Type (0, 0), BuildingBlock: XIVTED_clean_linker_0, # of connection points: 2
#     Edge 70, Type (0, 0), BuildingBlock: XIVTED_clean_linker_0, # of connection points: 2
#     Edge 71, Type (0, 0), BuildingBlock: XIVTED_clean_linker_0, # of connection points: 2
# Relax obj value: 0.417
# Max RMSD: 0.152
# Mean RMSD: 0.152
data_MOF--net-sms--node1-OJICUG_clean_sbu_0--edge1-XIVTED_clean_linker_0
_symmetry_space_group_name_H-M    P1
_symmetry_Int_Tables_number       1
_symmetry_cell_setting            triclinic
loop_
_symmetry_equiv_pos_as_xyz
'x, y, z'
_cell_length_a     40.354965
_cell_length_b     40.303213
_cell_length_c     56.764053
_cell_angle_alpha  90.041214
_cell_angle_beta   89.94298
_cell_angle_gamma 120.00331
loop_
_atom_site_label
_atom_site_type_symbol
_atom_site_fract_x
_atom_site_fract_y
_atom_site_fract_z
_atom_type_partial_charge
Sc0 Sc 0.20755 0.41499 0.03641 0.0
Sc1 Sc 0.16487 0.32952 0.06993 0.0
Sc2 Sc 0.20744 0.41891 0.09854 0.0
O3 O 0.1933 0.38788 0.06825 0.0
C4 C 0.28214 0.46859 0.06705 0.0
C5 C 0.2241 0.34594 0.02843 0.0
C6 C 0.22366 0.3516 0.11214 0.0
C7 C 0.12385 0.34432 0.02661 0.0
C8 C 0.18321 0.46759 0.06559 0.0
C9 C 0.12368 0.35 0.11021 0.0
O10 O 0.26535 0.45531 0.04744 0.0
O11 O 0.202 0.32558 0.04487 0.0
O12 O 0.22848 0.38501 0.1148 0.0
O13 O 0.15076 0.37811 0.02204 0.0
O14 O 0.18813 0.45665 0.08564 0.0
O15 O 0.12362 0.32706 0.09491 0.0
O16 O 0.18883 0.45495 0.04631 0.0
O17 O 0.12567 0.32395 0.04301 0.0
O18 O 0.1517 0.38354 0.11353 0.0
O19 O 0.22905 0.37878 0.02299 0.0
O20 O 0.26492 0.45791 0.08676 0.0
O21 O 0.20182 0.32819 0.09668 0.0
Sc22 Sc 0.58223 0.78988 0.03841 0.0
Sc23 Sc 0.66825 0.83457 0.07112 0.0
Sc24 Sc 0.57944 0.79027 0.10052 0.0
O25 O 0.60991 0.80485 0.07001 0.0
C26 C 0.52974 0.8136 0.06789 0.0
C27 C 0.65056 0.87472 0.02852 0.0
C28 C 0.6473 0.87479 0.11186 0.0
C29 C 0.6512 0.77398 0.03012 0.0
C30 C 0.52988 0.71517 0.06937 0.0
C31 C 0.64842 0.77608 0.11325 0.0
O32 O 0.54269 0.80854 0.0486 0.0
O33 O 0.67166 0.87426 0.04491 0.0
O34 O 0.61405 0.84637 0.11526 0.0
O35 O 0.6183 0.76881 0.02497 0.0
O36 O 0.54106 0.73229 0.08908 0.0
O37 O 0.67113 0.79797 0.09752 0.0
O38 O 0.54245 0.73216 0.04974 0.0
O39 O 0.67239 0.79717 0.04593 0.0
O40 O 0.61488 0.77065 0.11634 0.0
O41 O 0.61806 0.84615 0.02352 0.0
O42 O 0.54045 0.80831 0.08794 0.0
O43 O 0.67032 0.87528 0.09646 0.0
Sc44 Sc 0.20813 0.79142 0.03782 0.0
Sc45 Sc 0.1684 0.83717 0.07088 0.0
Sc46 Sc 0.20857 0.78844 0.09986 0.0
O47 O 0.19504 0.80559 0.06953 0.0
C48 C 0.18332 0.71483 0.0676 0.0
C49 C 0.12602 0.78037 0.02789 0.0
C50 C 0.12517 0.77571 0.11081 0.0
C51 C 0.2284 0.87834 0.0299 0.0
C52 C 0.28272 0.8124 0.06791 0.0
C53 C 0.22638 0.87227 0.11364 0.0
O54 O 0.19056 0.73336 0.04835 0.0
O55 O 0.13019 0.8056 0.04284 0.0
O56 O 0.15335 0.77075 0.11499 0.0
O57 O 0.22846 0.84817 0.0233 0.0
O58 O 0.26537 0.80447 0.08765 0.0
O59 O 0.20372 0.8736 0.09877 0.0
O60 O 0.2662 0.81039 0.04843 0.0
O61 O 0.20913 0.8791 0.04735 0.0
O62 O 0.23193 0.84406 0.11562 0.0
O63 O 0.15089 0.77029 0.02454 0.0
O64 O 0.18688 0.73055 0.08759 0.0
O65 O 0.12516 0.79755 0.09471 0.0
Sc66 Sc 0.41699 0.20966 0.8681 0.0
Sc67 Sc 0.33145 0.1632 0.90074 0.0
Sc68 Sc 0.42019 0.20963 0.9302 0.0
O69 O 0.38966 0.19427 0.89967 0.0
C70 C 0.47082 0.18739 0.89766 0.0
C71 C 0.34912 0.12556 0.85696 0.0
C72 C 0.35418 0.1232 0.94039 0.0
C73 C 0.34577 0.22295 0.8605 0.0
C74 C 0.46889 0.28468 0.89845 0.0
C75 C 0.35047 0.22126 0.94368 0.0
O76 O 0.4589 0.19389 0.87839 0.0
O77 O 0.32683 0.12546 0.8727 0.0
O78 O 0.38522 0.15337 0.94595 0.0
O79 O 0.3781 0.22707 0.85471 0.0
O80 O 0.4592 0.26712 0.91809 0.0
O81 O 0.32789 0.19573 0.9294 0.0
O82 O 0.45495 0.26807 0.87891 0.0
O83 O 0.32581 0.20219 0.87754 0.0
O84 O 0.3857 0.23147 0.94543 0.0
O85 O 0.38281 0.15328 0.85374 0.0
O86 O 0.45844 0.19048 0.91773 0.0
O87 O 0.33253 0.12212 0.92386 0.0
Sc88 Sc 0.79442 0.21043 0.86893 0.0
Sc89 Sc 0.83173 0.16095 0.90014 0.0
Sc90 Sc 0.79042 0.20717 0.93099 0.0
O91 O 0.80544 0.19288 0.89999 0.0
C92 C 0.81759 0.28392 0.90089 0.0
C93 C 0.87858 0.22292 0.86126 0.0
C94 C 0.87151 0.2176 0.94362 0.0
C95 C 0.77744 0.12667 0.8556 0.0
C96 C 0.71802 0.18692 0.89861 0.0
C97 C 0.76904 0.12007 0.93959 0.0
O98 O 0.81512 0.2683 0.88101 0.0
O99 O 0.87685 0.20059 0.87756 0.0
O100 O 0.84672 0.22806 0.9458 0.0
O101 O 0.7723 0.15505 0.85303 0.0
O102 O 0.73322 0.18884 0.91861 0.0
O103 O 0.78908 0.11912 0.92267 0.0
O104 O 0.73664 0.19442 0.87932 0.0
O105 O 0.79862 0.12496 0.87144 0.0
O106 O 0.7689 0.15035 0.94585 0.0
O107 O 0.85099 0.22822 0.85581 0.0
O108 O 0.80918 0.26528 0.92013 0.0
O109 O 0.86799 0.19202 0.92915 0.0
Sc110 Sc 0.79458 0.5829 0.87186 0.0
Sc111 Sc 0.83333 0.66847 0.90443 0.0
Sc112 Sc 0.79113 0.57975 0.93396 0.0
O113 O 0.80633 0.61025 0.9034 0.0
C114 C 0.71829 0.52942 0.90148 0.0
C115 C 0.77886 0.65094 0.86033 0.0
C116 C 0.77053 0.64563 0.9439 0.0
C117 C 0.87922 0.65427 0.86453 0.0
C118 C 0.81754 0.531 0.90229 0.0
C119 C 0.87201 0.64956 0.94752 0.0
O120 O 0.73678 0.54099 0.88218 0.0
O121 O 0.80102 0.67326 0.87605 0.0
O122 O 0.77022 0.61498 0.94978 0.0
O123 O 0.85102 0.622 0.85858 0.0
O124 O 0.8093 0.54045 0.92191 0.0
O125 O 0.86875 0.67212 0.93339 0.0
O126 O 0.81511 0.5451 0.88276 0.0
O127 O 0.87833 0.67413 0.88162 0.0
O128 O 0.8474 0.61413 0.94905 0.0
O129 O 0.77252 0.61705 0.85731 0.0
O130 O 0.73376 0.54185 0.92152 0.0
O131 O 0.79059 0.66703 0.92713 0.0
Sc132 Sc 0.87636 0.75219 0.37355 0.0
Sc133 Sc 0.83492 0.66614 0.40647 0.0
Sc134 Sc 0.87865 0.75509 0.4357 0.0
O135 O 0.86335 0.72453 0.40523 0.0
C136 C 0.95212 0.80515 0.40342 0.0
C137 C 0.89319 0.68396 0.36409 0.0
C138 C 0.89484 0.68717 0.44786 0.0
C139 C 0.79201 0.68253 0.36484 0.0
C140 C 0.8533 0.80434 0.40414 0.0
C141 C 0.79532 0.68594 0.44805 0.0
O142 O 0.93435 0.79228 0.38405 0.0
O143 O 0.8717 0.66294 0.38057 0.0
O144 O 0.89962 0.72047 0.45103 0.0
O145 O 0.81959 0.7156 0.35971 0.0
O146 O 0.85935 0.79343 0.42388 0.0
O147 O 0.79489 0.66313 0.43252 0.0
O148 O 0.8578 0.79167 0.38456 0.0
O149 O 0.79388 0.66165 0.38091 0.0
O150 O 0.82325 0.71963 0.45116 0.0
O151 O 0.89712 0.71644 0.35894 0.0
O152 O 0.93592 0.7941 0.4234 0.0
O153 O 0.87288 0.66414 0.43228 0.0
Sc154 Sc 0.25145 0.12878 0.37653 0.0
Sc155 Sc 0.33622 0.17224 0.41051 0.0
Sc156 Sc 0.24638 0.12646 0.43863 0.0
O157 O 0.27795 0.14248 0.40854 0.0
C158 C 0.19755 0.15091 0.40614 0.0
C159 C 0.31981 0.21402 0.36827 0.0
C160 C 0.31394 0.21035 0.45182 0.0
C161 C 0.32137 0.11411 0.36839 0.0
C162 C 0.19835 0.05273 0.40601 0.0
C163 C 0.31468 0.11144 0.4515 0.0
O164 O 0.21053 0.1459 0.38681 0.0
O165 O 0.34049 0.21284 0.38468 0.0
O166 O 0.28076 0.18157 0.45475 0.0
O167 O 0.28877 0.10934 0.36275 0.0
O168 O 0.20789 0.06924 0.42598 0.0
O169 O 0.3382 0.1346 0.43654 0.0
O170 O 0.21228 0.07035 0.38672 0.0
O171 O 0.34152 0.13601 0.38498 0.0
O172 O 0.28086 0.10547 0.45411 0.0
O173 O 0.28729 0.18584 0.36284 0.0
O174 O 0.20841 0.14576 0.42616 0.0
O175 O 0.33726 0.21185 0.4363 0.0
Sc176 Sc 0.87452 0.12632 0.37664 0.0
Sc177 Sc 0.83116 0.16877 0.40988 0.0
Sc178 Sc 0.87653 0.12512 0.43879 0.0
O179 O 0.86077 0.14004 0.40841 0.0
C180 C 0.85235 0.05099 0.40691 0.0
C181 C 0.78931 0.10941 0.36815 0.0
C182 C 0.79277 0.10905 0.45157 0.0
C183 C 0.8892 0.21075 0.36747 0.0
C184 C 0.95038 0.15006 0.40652 0.0
C185 C 0.8916 0.2089 0.45085 0.0
O186 O 0.85698 0.06839 0.38742 0.0
O187 O 0.79046 0.13155 0.38442 0.0
O188 O 0.82128 0.10426 0.45454 0.0
O189 O 0.89427 0.18288 0.36234 0.0
O190 O 0.93379 0.14428 0.4264 0.0
O191 O 0.86902 0.20928 0.43548 0.0
O192 O 0.93285 0.14519 0.38706 0.0
O193 O 0.86715 0.20939 0.38387 0.0
O194 O 0.897 0.18076 0.45401 0.0
O195 O 0.81755 0.10513 0.36278 0.0
O196 O 0.85787 0.06764 0.42676 0.0
O197 O 0.79163 0.13106 0.43605 0.0
Sc198 Sc 0.08631 0.54268 0.20644 0.0
Sc199 Sc 0.99745 0.499 0.23564 0.0
Sc200 Sc 0.08336 0.54093 0.2686 0.0
O201 O 0.05576 0.52756 0.23691 0.0
C202 C 0.13551 0.51765 0.23831 0.0
C203 C 0.01751 0.45905 0.19431 0.0
C204 C 0.01358 0.45654 0.27769 0.0
C205 C 0.01845 0.5587 0.19402 0.0
C206 C 0.13625 0.61659 0.23847 0.0
C207 C 0.01523 0.55795 0.27767 0.0
O208 O 0.1247 0.52366 0.21852 0.0
O209 O 0.99463 0.4587 0.20977 0.0
O210 O 0.0466 0.48425 0.28278 0.0
O211 O 0.0517 0.56344 0.19088 0.0
O212 O 0.12365 0.59895 0.25792 0.0
O213 O 0.99413 0.53608 0.26135 0.0
O214 O 0.12501 0.60016 0.21857 0.0
O215 O 0.99548 0.53683 0.20966 0.0
O216 O 0.04772 0.56202 0.28283 0.0
O217 O 0.0511 0.48708 0.19116 0.0
O218 O 0.12272 0.52214 0.25785 0.0
O219 O 0.99287 0.45816 0.26143 0.0
Sc220 Sc 0.45738 0.54446 0.20724 0.0
Sc221 Sc 0.50162 0.50007 0.23663 0.0
Sc222 Sc 0.45955 0.54421 0.26942 0.0
O223 O 0.47284 0.52964 0.23778 0.0
C224 C 0.48238 0.61922 0.23867 0.0
C225 C 0.54069 0.55893 0.19471 0.0
C226 C 0.54427 0.55983 0.27808 0.0
C227 C 0.441 0.46003 0.19574 0.0
C228 C 0.38378 0.52078 0.23948 0.0
C229 C 0.44347 0.45953 0.27907 0.0
O230 O 0.47662 0.60226 0.21891 0.0
O231 O 0.54134 0.53684 0.21035 0.0
O232 O 0.51641 0.56482 0.28333 0.0
O233 O 0.43624 0.4885 0.1923 0.0
O234 O 0.40139 0.52582 0.25892 0.0
O235 O 0.4653 0.46028 0.26275 0.0
O236 O 0.40021 0.52611 0.21957 0.0
O237 O 0.46331 0.45947 0.21124 0.0
O238 O 0.43901 0.48781 0.28408 0.0
O239 O 0.51262 0.56441 0.19162 0.0
O240 O 0.47777 0.60208 0.25826 0.0
O241 O 0.54268 0.53728 0.26194 0.0
Sc242 Sc 0.45572 0.9153 0.20961 0.0
Sc243 Sc 0.5013 0.00392 0.23909 0.0
Sc244 Sc 0.45724 0.91758 0.2718 0.0
O245 O 0.47137 0.94552 0.24019 0.0
C246 C 0.38169 0.86544 0.24157 0.0
C247 C 0.44103 0.98437 0.19815 0.0
C248 C 0.44264 0.98729 0.2812 0.0
C249 C 0.53967 0.9832 0.19719 0.0
C250 C 0.47993 0.86512 0.2411 0.0
C251 C 0.54245 0.98572 0.28081 0.0
O252 O 0.3984 0.87665 0.22176 0.0
O253 O 0.46384 0.00717 0.2135 0.0
O254 O 0.43719 0.95415 0.28621 0.0
O255 O 0.51101 0.95006 0.19393 0.0
O256 O 0.47512 0.87754 0.26071 0.0
O257 O 0.54164 0.00687 0.26455 0.0
O258 O 0.47446 0.87648 0.22133 0.0
O259 O 0.54096 0.00604 0.213 0.0
O260 O 0.514 0.95323 0.28606 0.0
O261 O 0.43525 0.95071 0.19484 0.0
O262 O 0.39905 0.87802 0.26109 0.0
O263 O 0.46515 0.00818 0.26505 0.0
Sc264 Sc 0.54429 0.08788 0.71087 0.0
Sc265 Sc 0.4975 0.99876 0.73992 0.0
Sc266 Sc 0.54441 0.08388 0.77293 0.0
O267 O 0.52886 0.05697 0.74126 0.0
C268 C 0.61929 0.13617 0.74258 0.0
C269 C 0.55467 0.01784 0.69652 0.0
C270 C 0.55792 0.01245 0.77939 0.0
C271 C 0.45755 0.02261 0.7011 0.0
C272 C 0.52186 0.13796 0.74387 0.0
C273 C 0.46078 0.01576 0.78445 0.0
O274 O 0.6018 0.12676 0.72292 0.0
O275 O 0.52878 0.99519 0.71058 0.0
O276 O 0.56186 0.04458 0.78565 0.0
O277 O 0.488 0.05315 0.69521 0.0
O278 O 0.52845 0.12591 0.76307 0.0
O279 O 0.4606 0.99359 0.76859 0.0
O280 O 0.52516 0.12594 0.72372 0.0
O281 O 0.45619 0.00085 0.71765 0.0
O282 O 0.48831 0.04959 0.78753 0.0
O283 O 0.5659 0.05341 0.69534 0.0
O284 O 0.60264 0.12199 0.76207 0.0
O285 O 0.53708 0.99278 0.76229 0.0
Sc286 Sc 0.91508 0.4603 0.71564 0.0
Sc287 Sc 0.00283 0.50124 0.74618 0.0
Sc288 Sc 0.91617 0.46054 0.7778 0.0
O289 O 0.94459 0.47405 0.74655 0.0
C290 C 0.86501 0.48476 0.74742 0.0
C291 C 0.98544 0.54228 0.70373 0.0
C292 C 0.98699 0.54483 0.78701 0.0
C293 C 0.98115 0.44007 0.70554 0.0
C294 C 0.86381 0.38572 0.7468 0.0
C295 C 0.98402 0.44437 0.78921 0.0
O296 O 0.87581 0.47847 0.72768 0.0
O297 O 0.00739 0.53884 0.71825 0.0
O298 O 0.95425 0.51654 0.79206 0.0
O299 O 0.95022 0.4393 0.69994 0.0
O300 O 0.87527 0.403 0.76648 0.0
O301 O 0.00652 0.46677 0.77363 0.0
O302 O 0.8763 0.40246 0.72708 0.0
O303 O 0.00252 0.46022 0.7223 0.0
O304 O 0.95034 0.43844 0.79234 0.0
O305 O 0.95035 0.51714 0.70128 0.0
O306 O 0.87798 0.48071 0.76697 0.0
O307 O 0.00773 0.54462 0.77025 0.0
Sc308 Sc 0.54052 0.45668 0.71567 0.0
Sc309 Sc 0.49964 0.50371 0.74627 0.0
Sc310 Sc 0.54111 0.45848 0.77783 0.0
O311 O 0.5271 0.47286 0.7466 0.0
C312 C 0.51663 0.38265 0.74784 0.0
C313 C 0.45801 0.44422 0.70435 0.0
C314 C 0.4571 0.44505 0.78767 0.0
C315 C 0.55972 0.54256 0.70496 0.0
C316 C 0.6155 0.48043 0.74653 0.0
C317 C 0.5574 0.54286 0.78865 0.0
O318 O 0.52267 0.39949 0.72803 0.0
O319 O 0.46147 0.46967 0.71888 0.0
O320 O 0.48547 0.44067 0.79248 0.0
O321 O 0.56098 0.51251 0.69962 0.0
O322 O 0.59836 0.47488 0.76623 0.0
O323 O 0.53479 0.54273 0.77317 0.0
O324 O 0.59863 0.47603 0.72683 0.0
O325 O 0.53971 0.54391 0.72178 0.0
O326 O 0.56327 0.51507 0.79194 0.0
O327 O 0.48342 0.43467 0.7016 0.0
O328 O 0.52093 0.39993 0.76734 0.0
O329 O 0.45698 0.46579 0.77089 0.0
Sc330 Sc 0.75274 0.87632 0.5452 0.0
Sc331 Sc 0.66378 0.82884 0.57421 0.0
Sc332 Sc 0.74935 0.87448 0.60727 0.0
O333 O 0.72203 0.85992 0.57556 0.0
C334 C 0.80238 0.85201 0.5773 0.0
C335 C 0.68603 0.79239 0.53188 0.0
C336 C 0.68204 0.7882 0.61594 0.0
C337 C 0.68305 0.89009 0.53375 0.0
C338 C 0.80168 0.95027 0.57721 0.0
C339 C 0.67866 0.88695 0.61655 0.0
O340 O 0.79208 0.85861 0.55748 0.0
O341 O 0.66245 0.79092 0.54716 0.0
O342 O 0.71305 0.81795 0.62196 0.0
O343 O 0.71646 0.89545 0.53008 0.0
O344 O 0.78949 0.93236 0.59658 0.0
O345 O 0.65768 0.86219 0.60137 0.0
O346 O 0.79024 0.93403 0.55729 0.0
O347 O 0.66058 0.86768 0.54945 0.0
O348 O 0.71312 0.8957 0.62047 0.0
O349 O 0.71945 0.82094 0.52939 0.0
O350 O 0.78899 0.85575 0.59684 0.0
O351 O 0.66171 0.7876 0.59873 0.0
Sc352 Sc 0.12116 0.87462 0.54527 0.0
Sc353 Sc 0.16924 0.83401 0.57452 0.0
Sc354 Sc 0.12399 0.87476 0.60733 0.0
O355 O 0.13802 0.86109 0.57571 0.0
C356 C 0.14483 0.94923 0.57671 0.0
C357 C 0.20471 0.89169 0.53159 0.0
C358 C 0.21081 0.89529 0.61498 0.0
C359 C 0.10783 0.79084 0.53458 0.0
C360 C 0.04756 0.84938 0.57765 0.0
C361 C 0.11317 0.79254 0.61796 0.0
O362 O 0.13818 0.93194 0.557 0.0
O363 O 0.20612 0.86943 0.54677 0.0
O364 O 0.18111 0.89642 0.62131 0.0
O365 O 0.10269 0.81897 0.53053 0.0
O366 O 0.06573 0.85581 0.59697 0.0
O367 O 0.13735 0.79573 0.60251 0.0
O368 O 0.06358 0.85394 0.55767 0.0
O369 O 0.12991 0.79088 0.55052 0.0
O370 O 0.10398 0.81806 0.62144 0.0
O371 O 0.17645 0.89704 0.52936 0.0
O372 O 0.14161 0.93254 0.59632 0.0
O373 O 0.21094 0.87463 0.59815 0.0
Sc374 Sc 0.12449 0.24821 0.54777 0.0
Sc375 Sc 0.16439 0.33582 0.57829 0.0
Sc376 Sc 0.12375 0.24874 0.6099 0.0
O377 O 0.13754 0.2775 0.57866 0.0
C378 C 0.04964 0.1963 0.57875 0.0
C379 C 0.1073 0.31505 0.5352 0.0
C380 C 0.10335 0.315 0.61895 0.0
C381 C 0.20832 0.31896 0.53805 0.0
C382 C 0.14905 0.19838 0.57915 0.0
C383 C 0.2057 0.31976 0.62119 0.0
O384 O 0.06724 0.20753 0.55917 0.0
O385 O 0.12934 0.33824 0.55065 0.0
O386 O 0.10252 0.28412 0.62487 0.0
O387 O 0.18027 0.2859 0.53344 0.0
O388 O 0.14232 0.20939 0.59869 0.0
O389 O 0.20224 0.34128 0.60628 0.0
O390 O 0.14501 0.21081 0.55941 0.0
O391 O 0.20791 0.34039 0.55432 0.0
O392 O 0.18051 0.28476 0.62412 0.0
O393 O 0.10211 0.28154 0.53246 0.0
O394 O 0.06597 0.20917 0.59854 0.0
O395 O 0.12351 0.33605 0.60207 0.0
H396 H 0.16511 0.66458 0.10454 0.0
H397 H 0.17804 0.50581 0.02683 0.0
H398 H 0.1797 0.67187 0.02898 0.0
H399 H 0.16695 0.50101 0.10262 0.0
H400 H 0.17034 0.56224 0.02666 0.0
H401 H 0.15733 0.60056 0.10348 0.0
C402 C 0.16629 0.65264 0.08767 0.0
C403 C 0.17355 0.67404 0.06685 0.0
C404 C 0.16923 0.5486 0.0433 0.0
C405 C 0.1649 0.6005 0.06556 0.0
C406 C 0.17353 0.51626 0.04342 0.0
C407 C 0.17363 0.49874 0.0648 0.0
C408 C 0.16501 0.56365 0.06471 0.0
C409 C 0.1675 0.51366 0.0857 0.0
C410 C 0.16189 0.616 0.08709 0.0
C411 C 0.17446 0.65671 0.04552 0.0
N412 N 0.1638 0.54537 0.08513 0.0
N413 N 0.17059 0.62118 0.04547 0.0
H414 H 0.49419 0.66821 0.10726 0.0
H415 H 0.32873 0.5041 0.02891 0.0
H416 H 0.49351 0.66927 0.03117 0.0
H417 H 0.32839 0.505 0.10501 0.0
H418 H 0.39284 0.56034 0.02935 0.0
H419 H 0.43759 0.60444 0.10665 0.0
C420 C 0.48246 0.65495 0.0904 0.0
C421 C 0.49855 0.67453 0.06923 0.0
C422 C 0.37886 0.54802 0.04595 0.0
C423 C 0.43332 0.60132 0.06845 0.0
C424 C 0.3422 0.5158 0.04573 0.0
C425 C 0.32276 0.4999 0.06696 0.0
C426 C 0.39631 0.56461 0.06754 0.0
C427 C 0.34196 0.51636 0.08817 0.0
C428 C 0.45002 0.61847 0.09008 0.0
C429 C 0.48204 0.65556 0.04796 0.0
N430 N 0.37744 0.54794 0.08791 0.0
N431 N 0.45017 0.62023 0.04812 0.0
H432 H 0.49683 0.82483 0.02872 0.0
H433 H 0.33322 0.84011 0.03089 0.0
H434 H 0.49103 0.82325 0.10472 0.0
H435 H 0.32503 0.80671 0.10387 0.0
H436 H 0.39759 0.84966 0.0294 0.0
H437 H 0.44066 0.83178 0.02717 0.0
C438 C 0.48415 0.82668 0.04515 0.0
C439 C 0.49866 0.8231 0.06688 0.0
C440 C 0.38178 0.83977 0.0457 0.0
C441 C 0.43399 0.83185 0.06532 0.0
C442 C 0.34494 0.83466 0.04661 0.0
C443 C 0.32328 0.82191 0.06741 0.0
C444 C 0.39699 0.83148 0.06567 0.0
C445 C 0.3404 0.81617 0.08735 0.0
C446 C 0.45194 0.83096 0.04426 0.0
C447 C 0.48084 0.82566 0.08753 0.0
N448 N 0.37602 0.82064 0.0859 0.0
N449 N 0.44925 0.82945 0.08621 0.0
H450 H 0.50951 0.18339 0.8588 0.0
H451 H 0.6679 0.16881 0.93559 0.0
H452 H 0.50508 0.17198 0.93456 0.0
H453 H 0.67584 0.18577 0.86021 0.0
H454 H 0.60436 0.16197 0.9348 0.0
H455 H 0.56623 0.17639 0.85834 0.0
C456 C 0.52014 0.17902 0.87533 0.0
C457 C 0.50255 0.17871 0.89679 0.0
C458 C 0.61985 0.16689 0.91839 0.0
C459 C 0.56783 0.17085 0.89635 0.0
C460 C 0.65622 0.17077 0.91881 0.0
C461 C 0.67764 0.17833 0.89796 0.0
C462 C 0.60461 0.17068 0.89699 0.0
C463 C 0.66065 0.18024 0.87677 0.0
C464 C 0.55265 0.17509 0.87504 0.0
C465 C 0.51772 0.17276 0.9176 0.0
N466 N 0.62534 0.1768 0.87687 0.0
N467 N 0.54959 0.16938 0.91686 0.0
H468 H 0.8328 0.49881 0.86403 0.0
H469 H 0.82626 0.32837 0.93966 0.0
H470 H 0.82408 0.49179 0.93991 0.0
H471 H 0.83092 0.33271 0.86363 0.0
H472 H 0.83408 0.39241 0.94021 0.0
H473 H 0.8407 0.44256 0.86377 0.0
C474 C 0.83297 0.48578 0.88067 0.0
C475 C 0.82728 0.49996 0.90202 0.0
C476 C 0.83375 0.37952 0.92341 0.0
C477 C 0.83613 0.43519 0.90178 0.0
C478 C 0.82933 0.34287 0.92306 0.0
C479 C 0.82742 0.32473 0.90155 0.0
C480 C 0.83616 0.3983 0.90209 0.0
C481 C 0.8319 0.3453 0.88066 0.0
C482 C 0.83742 0.45355 0.88049 0.0
C483 C 0.828 0.48182 0.923 0.0
N484 N 0.83566 0.38076 0.88145 0.0
N485 N 0.83195 0.45025 0.92232 0.0
H486 H 0.66865 0.49653 0.93855 0.0
H487 H 0.50528 0.33034 0.86012 0.0
H488 H 0.67486 0.49089 0.86279 0.0
H489 H 0.50487 0.3317 0.9362 0.0
H490 H 0.56257 0.39378 0.86036 0.0
H491 H 0.60427 0.44107 0.93747 0.0
C492 C 0.65644 0.4839 0.92164 0.0
C493 C 0.6776 0.4983 0.90075 0.0
C494 C 0.54971 0.38034 0.87699 0.0
C495 C 0.60357 0.43438 0.89944 0.0
C496 C 0.51685 0.3441 0.87689 0.0
C497 C 0.50032 0.32527 0.8982 0.0
C498 C 0.56623 0.39801 0.89854 0.0
C499 C 0.51671 0.34479 0.91933 0.0
C500 C 0.61958 0.45212 0.92106 0.0
C501 C 0.65989 0.48072 0.87938 0.0
N502 N 0.54886 0.37986 0.91895 0.0
N503 N 0.62408 0.44952 0.87931 0.0
H504 H 0.83901 0.00292 0.44446 0.0
H505 H 0.8436 0.84055 0.36591 0.0
H506 H 0.84484 0.0062 0.36845 0.0
H507 H 0.84134 0.83957 0.44199 0.0
H508 H 0.8357 0.89681 0.36629 0.0
H509 H 0.8315 0.93901 0.44361 0.0
C510 C 0.83835 0.99013 0.42756 0.0
C511 C 0.84306 0.01036 0.4065 0.0
C512 C 0.83658 0.88406 0.3829 0.0
C513 C 0.83465 0.93696 0.40544 0.0
C514 C 0.84102 0.85182 0.38271 0.0
C515 C 0.84364 0.83542 0.40396 0.0
C516 C 0.83479 0.90016 0.40449 0.0
C517 C 0.83988 0.85134 0.42515 0.0
C518 C 0.83408 0.95356 0.4271 0.0
C519 C 0.84162 0.99196 0.38515 0.0
N520 N 0.83601 0.88296 0.42486 0.0
N521 N 0.83793 0.95652 0.38519 0.0
H522 H 0.99646 0.8397 0.36447 0.0
H523 H 0.17508 0.00403 0.36801 0.0
H524 H 0.00028 0.8429 0.4405 0.0
H525 H 0.15097 0.00828 0.44171 0.0
H526 H 0.12006 0.93983 0.36567 0.0
H527 H 0.05958 0.89602 0.36338 0.0
C528 C 0.01088 0.85184 0.38099 0.0
C529 C 0.99268 0.8365 0.40261 0.0
C530 C 0.12626 0.95469 0.38234 0.0
C531 C 0.06615 0.90144 0.40159 0.0
C532 C 0.15815 0.99146 0.38373 0.0
C533 C 0.16744 0.01201 0.40499 0.0
C534 C 0.10296 0.93841 0.40231 0.0
C535 C 0.14481 0.9938 0.42487 0.0
C536 C 0.04738 0.88417 0.38038 0.0
C537 C 0.01295 0.85372 0.42339 0.0
N538 N 0.11349 0.95829 0.42296 0.0
N539 N 0.04834 0.8854 0.42233 0.0
H540 H 0.16091 0.15805 0.36726 0.0
H541 H 0.99904 0.16634 0.44401 0.0
H542 H 0.16233 0.16464 0.44324 0.0
H543 H 0.99473 0.1557 0.3682 0.0
H544 H 0.06301 0.17428 0.4435 0.0
H545 H 0.10451 0.1656 0.36681 0.0
C546 C 0.1497 0.16151 0.38385 0.0
C547 C 0.16628 0.16021 0.40534 0.0
C548 C 0.04824 0.17055 0.42695 0.0
C549 C 0.1014 0.1687 0.40491 0.0
C550 C 0.01162 0.16604 0.4272 0.0
C551 C 0.99109 0.15984 0.40612 0.0
C552 C 0.06458 0.16871 0.40548 0.0
C553 C 0.00924 0.16012 0.38491 0.0
C554 C 0.11739 0.16575 0.38356 0.0
C555 C 0.15043 0.16505 0.42623 0.0
N556 N 0.04474 0.16405 0.38516 0.0
N557 N 0.11875 0.16873 0.42549 0.0
H558 H 0.33872 0.5118 0.27806 0.0
H559 H 0.16954 0.50372 0.20062 0.0
H560 H 0.33578 0.50779 0.202 0.0
H561 H 0.17327 0.5106 0.2766 0.0
H562 H 0.22619 0.49679 0.20115 0.0
H563 H 0.27434 0.50314 0.27814 0.0
C564 C 0.32447 0.50871 0.26137 0.0
C565 C 0.34307 0.51103 0.23998 0.0
C566 C 0.21443 0.49946 0.21773 0.0
C567 C 0.26921 0.50126 0.23999 0.0
C568 C 0.18197 0.50338 0.21746 0.0
C569 C 0.16673 0.50826 0.23859 0.0
C570 C 0.23204 0.50056 0.23928 0.0
C571 C 0.18406 0.50723 0.25984 0.0
C572 C 0.28766 0.50381 0.26145 0.0
C573 C 0.32289 0.50658 0.21894 0.0
N574 N 0.21598 0.5039 0.25962 0.0
N575 N 0.28727 0.50227 0.21949 0.0
H576 H 0.49451 0.66658 0.20088 0.0
H577 H 0.49003 0.82913 0.27929 0.0
H578 H 0.49101 0.66468 0.27695 0.0
H579 H 0.4914 0.82963 0.20319 0.0
H580 H 0.49838 0.77316 0.27888 0.0
H581 H 0.50149 0.7303 0.20157 0.0
C582 C 0.49561 0.67965 0.21776 0.0
C583 C 0.49167 0.65985 0.23889 0.0
C584 C 0.4972 0.78573 0.26228 0.0
C585 C 0.49943 0.73299 0.23976 0.0
C586 C 0.49248 0.81779 0.26248 0.0
C587 C 0.48952 0.834 0.24124 0.0
C588 C 0.49891 0.76959 0.24068 0.0
C589 C 0.49314 0.81801 0.22004 0.0
C590 C 0.49955 0.7161 0.21812 0.0
C591 C 0.49362 0.67858 0.26019 0.0
N592 N 0.49728 0.78656 0.22031 0.0
N593 N 0.49697 0.71387 0.26006 0.0
H594 H 0.17065 0.66517 0.20106 0.0
H595 H 0.33647 0.82797 0.27986 0.0
H596 H 0.17337 0.66108 0.27704 0.0
H597 H 0.33429 0.83048 0.20382 0.0
H598 H 0.27289 0.77095 0.27945 0.0
H599 H 0.22646 0.72944 0.20208 0.0
C600 C 0.1827 0.67784 0.218 0.0
C601 C 0.16738 0.65731 0.23899 0.0
C602 C 0.28618 0.7842 0.26287 0.0
C603 C 0.2317 0.73114 0.24024 0.0
C604 C 0.32252 0.81689 0.26308 0.0
C605 C 0.34115 0.83396 0.24183 0.0
C606 C 0.26824 0.76832 0.24127 0.0
C607 C 0.32137 0.81822 0.22066 0.0
C608 C 0.21466 0.71463 0.21855 0.0
C609 C 0.18424 0.67556 0.26037 0.0
N610 N 0.28623 0.78616 0.22093 0.0
N611 N 0.21565 0.71123 0.26043 0.0
H612 H 0.50434 0.17083 0.70717 0.0
H613 H 0.51029 0.33811 0.78623 0.0
H614 H 0.51791 0.17667 0.7828 0.0
H615 H 0.50325 0.33463 0.71026 0.0
H616 H 0.50443 0.27475 0.78588 0.0
H617 H 0.49544 0.22632 0.70864 0.0
C618 C 0.50516 0.18352 0.72414 0.0
C619 C 0.51236 0.16914 0.74486 0.0
C620 C 0.50379 0.28771 0.76931 0.0
C621 C 0.50229 0.23313 0.74663 0.0
C622 C 0.50701 0.3239 0.76947 0.0
C623 C 0.50774 0.34212 0.7482 0.0
C624 C 0.50126 0.26948 0.74773 0.0
C625 C 0.50325 0.32204 0.72709 0.0
C626 C 0.50007 0.21531 0.72495 0.0
C627 C 0.51273 0.1868 0.76632 0.0
N628 N 0.50055 0.28705 0.7274 0.0
N629 N 0.50813 0.21803 0.76662 0.0
H630 H 0.66633 0.17337 0.70501 0.0
H631 H 0.82691 0.33919 0.78475 0.0
H632 H 0.66486 0.17129 0.78109 0.0
H633 H 0.8293 0.33908 0.70867 0.0
H634 H 0.77134 0.2746 0.7839 0.0
H635 H 0.72964 0.2305 0.70616 0.0
C636 C 0.67942 0.1846 0.72198 0.0
C637 C 0.65985 0.16759 0.74299 0.0
C638 C 0.78425 0.28858 0.7674 0.0
C639 C 0.7325 0.23348 0.74441 0.0
C640 C 0.81605 0.32554 0.76785 0.0
C641 C 0.83271 0.34497 0.74673 0.0
C642 C 0.76878 0.27087 0.74567 0.0
C643 C 0.81735 0.32552 0.72542 0.0
C644 C 0.71565 0.21734 0.72261 0.0
C645 C 0.6786 0.18346 0.76442 0.0
N646 N 0.78613 0.28978 0.72544 0.0
N647 N 0.71364 0.21571 0.76457 0.0
H648 H 0.82939 0.49515 0.78578 0.0
H649 H 0.66243 0.4926 0.70846 0.0
H650 H 0.82779 0.49411 0.7097 0.0
H651 H 0.66154 0.4893 0.78452 0.0
H652 H 0.72669 0.50108 0.70874 0.0
H653 H 0.77207 0.50113 0.78573 0.0
C654 C 0.81734 0.49664 0.76904 0.0
C655 C 0.83339 0.49367 0.7477 0.0
C656 C 0.71257 0.49881 0.72538 0.0
C657 C 0.76734 0.50026 0.74757 0.0
C658 C 0.67579 0.494 0.72525 0.0
C659 C 0.65615 0.48979 0.74649 0.0
C660 C 0.73001 0.49934 0.7469 0.0
C661 C 0.67528 0.4921 0.76767 0.0
C662 C 0.78447 0.49996 0.76905 0.0
C663 C 0.8164 0.49596 0.72661 0.0
N664 N 0.71093 0.49639 0.76732 0.0
N665 N 0.78419 0.49876 0.72709 0.0
H666 H 0.00339 0.84161 0.61647 0.0
H667 H 0.83526 0.83665 0.53963 0.0
H668 H 0.99874 0.83531 0.54047 0.0
H669 H 0.84029 0.84503 0.61555 0.0
H670 H 0.89074 0.82779 0.54006 0.0
H671 H 0.93961 0.83437 0.61685 0.0
C672 C 0.98886 0.83824 0.59985 0.0
C673 C 0.00686 0.8396 0.57837 0.0
C674 C 0.87954 0.83123 0.55665 0.0
C675 C 0.93371 0.83155 0.57873 0.0
C676 C 0.84778 0.83631 0.55644 0.0
C677 C 0.83324 0.84212 0.57758 0.0
C678 C 0.89717 0.83212 0.57815 0.0
C679 C 0.85058 0.84096 0.59879 0.0
C680 C 0.95239 0.83418 0.6001 0.0
C681 C 0.98632 0.83484 0.55746 0.0
N682 N 0.88184 0.8365 0.59851 0.0
N683 N 0.95107 0.83142 0.55817 0.0
H684 H 0.15807 0.1617 0.61734 0.0
H685 H 0.15649 0.99631 0.53886 0.0
H686 H 0.1609 0.16313 0.54126 0.0
H687 H 0.15473 0.9952 0.61495 0.0
H688 H 0.16549 0.06083 0.53953 0.0
H689 H 0.16453 0.10463 0.6169 0.0
C690 C 0.1605 0.15036 0.60053 0.0
C691 C 0.15842 0.16712 0.57929 0.0
C692 C 0.16346 0.04661 0.55609 0.0
C693 C 0.16553 0.10138 0.5787 0.0
C694 C 0.1583 0.00968 0.55573 0.0
C695 C 0.15436 0.98993 0.57688 0.0
C696 C 0.16453 0.06403 0.57774 0.0
C697 C 0.15731 0.00905 0.59818 0.0
C698 C 0.16412 0.11766 0.60031 0.0
C699 C 0.162 0.15111 0.55809 0.0
N700 N 0.16184 0.04483 0.59805 0.0
N701 N 0.16496 0.11897 0.55834 0.0
H702 H 0.00358 0.16235 0.54035 0.0
H703 H 0.83646 0.9952 0.61599 0.0
H704 H 0.00294 0.15843 0.6164 0.0
H705 H 0.83878 0.99812 0.53991 0.0
H706 H 0.8932 0.05891 0.61657 0.0
H707 H 0.93946 0.10642 0.54004 0.0
C708 C 0.9899 0.14999 0.55702 0.0
C709 C 0.00906 0.165 0.57844 0.0
C710 C 0.88108 0.04576 0.59975 0.0
C711 C 0.93538 0.10058 0.57816 0.0
C712 C 0.84857 0.00933 0.59939 0.0
C713 C 0.83294 0.99089 0.57786 0.0
C714 C 0.89827 0.06397 0.57845 0.0
C715 C 0.8499 0.01093 0.55695 0.0
C716 C 0.95319 0.11797 0.55681 0.0
C717 C 0.98954 0.14779 0.59944 0.0
N718 N 0.88181 0.04616 0.55778 0.0
N719 N 0.95397 0.11632 0.59876 0.0
H720 H 0.05686 0.3364 0.0909 0.0
H721 H 0.00082 0.39057 0.21277 0.0
H722 H 0.11142 0.34371 0.15742 0.0
H723 H 0.01348 0.44888 0.14692 0.0
H724 H 0.00695 0.3407 0.19162 0.0
H725 H 0.00746 0.34374 0.11164 0.0
C726 C 0.05725 0.33758 0.10998 0.0
C727 C 0.08815 0.33997 0.12262 0.0
C728 C 0.00651 0.36347 0.18174 0.0
C729 C 0.03226 0.34799 0.14615 0.0
C730 C 0.00296 0.39177 0.19372 0.0
C731 C 0.00721 0.4238 0.18143 0.0
C732 C 0.01378 0.36734 0.15744 0.0
C733 C 0.01046 0.42461 0.15688 0.0
C734 C 0.02922 0.34183 0.12173 0.0
C735 C 0.088 0.34208 0.1472 0.0
N736 N 0.01426 0.39699 0.14565 0.0
N737 N 0.0607 0.34664 0.15822 0.0
H738 H 0.64958 0.76879 0.16069 0.0
H739 H 0.54985 0.56602 0.14731 0.0
H740 H 0.6679 0.72596 0.09531 0.0
H741 H 0.60972 0.60966 0.21292 0.0
H742 H 0.60037 0.622 0.12703 0.0
H743 H 0.64478 0.71318 0.18108 0.0
C744 C 0.6541 0.74833 0.15086 0.0
C745 C 0.65869 0.75138 0.12641 0.0
C746 C 0.60341 0.6186 0.1457 0.0
C747 C 0.65161 0.68729 0.1492 0.0
C748 C 0.57454 0.58674 0.15721 0.0
C749 C 0.57576 0.5838 0.18169 0.0
C750 C 0.63237 0.6483 0.15903 0.0
C751 C 0.60798 0.6113 0.19395 0.0
C752 C 0.65152 0.71669 0.16245 0.0
C753 C 0.66418 0.72423 0.11426 0.0
N754 N 0.63447 0.64334 0.18261 0.0
N755 N 0.65902 0.69236 0.12566 0.0
H756 H 0.387 0.9962 0.2179 0.0
H757 H 0.2761 0.94249 0.09641 0.0
H758 H 0.43555 0.99225 0.15105 0.0
H759 H 0.23417 0.87918 0.16117 0.0
H760 H 0.33112 0.99289 0.11794 0.0
H761 H 0.32954 0.98724 0.19741 0.0
C762 C 0.38633 0.99552 0.19881 0.0
C763 C 0.41543 0.99443 0.18598 0.0
C764 C 0.30887 0.96879 0.12754 0.0
C765 C 0.35072 0.98459 0.16276 0.0
C766 C 0.27764 0.94016 0.11535 0.0
C767 C 0.25127 0.90674 0.12717 0.0
C768 C 0.31296 0.9639 0.1516 0.0
C769 C 0.25438 0.90453 0.15156 0.0
C770 C 0.35364 0.99034 0.18721 0.0
C771 C 0.41332 0.9929 0.1614 0.0
N772 N 0.28512 0.93261 0.16301 0.0
N773 N 0.38105 0.98738 0.15051 0.0
H774 H 0.3513 0.11478 0.80986 0.0
H775 H 0.45116 0.01905 0.8316 0.0
H776 H 0.32537 0.05619 0.87662 0.0
H777 H 0.39064 0.98996 0.7655 0.0
H778 H 0.39835 0.02303 0.84977 0.0
H779 H 0.3561 0.06212 0.79205 0.0
C780 C 0.34507 0.08998 0.82048 0.0
C781 C 0.33849 0.08973 0.84467 0.0
C782 C 0.39575 0.01404 0.83154 0.0
C783 C 0.34556 0.0307 0.82489 0.0
C784 C 0.42596 0.01197 0.82121 0.0
C785 C 0.42517 0.00475 0.79708 0.0
C786 C 0.3659 0.01087 0.81726 0.0
C787 C 0.39213 0.99588 0.7842 0.0
C788 C 0.34761 0.05987 0.81036 0.0
C789 C 0.33074 0.05724 0.85787 0.0
N790 N 0.36431 0.00076 0.79423 0.0
N791 N 0.33607 0.02956 0.84801 0.0
H792 H 0.01069 0.40064 0.77017 0.0
H793 H 0.94297 0.27226 0.88454 0.0
H794 H 0.98004 0.43066 0.83632 0.0
H795 H 0.89737 0.23474 0.8148 0.0
H796 H 0.99418 0.33214 0.86775 0.0
H797 H 0.00717 0.34412 0.78895 0.0
C798 C 0.00509 0.3963 0.78891 0.0
C799 C 0.99485 0.41954 0.80176 0.0
C800 C 0.97415 0.30985 0.85607 0.0
C801 C 0.99162 0.35613 0.82315 0.0
C802 C 0.94505 0.27577 0.86557 0.0
C803 C 0.91585 0.24924 0.85093 0.0
C804 C 0.97394 0.3167 0.83188 0.0
C805 C 0.91929 0.255 0.82656 0.0
C806 C 0.00315 0.36421 0.79955 0.0
C807 C 0.98748 0.41284 0.82587 0.0
N808 N 0.94754 0.28859 0.81776 0.0
N809 N 0.98544 0.38127 0.83578 0.0
H810 H 0.5705 0.55469 0.83565 0.0
H811 H 0.76553 0.64683 0.81323 0.0
H812 H 0.6036 0.61154 0.76836 0.0
H813 H 0.73539 0.678 0.87914 0.0
H814 H 0.70923 0.64382 0.79507 0.0
H815 H 0.62828 0.60727 0.85309 0.0
C816 C 0.58926 0.57912 0.82482 0.0
C817 C 0.58296 0.57886 0.80061 0.0
C818 C 0.71581 0.65303 0.81324 0.0
C819 C 0.64941 0.63777 0.81998 0.0
C820 C 0.74778 0.65451 0.82357 0.0
C821 C 0.75439 0.66203 0.84766 0.0
C822 C 0.68958 0.65709 0.82749 0.0
C823 C 0.73077 0.67177 0.86048 0.0
C824 C 0.62209 0.60919 0.83473 0.0
C825 C 0.60792 0.61088 0.78714 0.0
N826 N 0.69831 0.66747 0.85047 0.0
N827 N 0.64109 0.6385 0.79682 0.0
H828 H 0.00665 0.61338 0.76721 0.0
H829 H 0.9455 0.67009 0.88587 0.0
H830 H 0.9908 0.5572 0.83423 0.0
H831 H 0.89508 0.66174 0.81768 0.0
H832 H 0.99697 0.66411 0.86696 0.0
H833 H 0.00176 0.665 0.78692 0.0
C834 C 0.00409 0.61296 0.78623 0.0
C835 C 0.99831 0.58094 0.79921 0.0
C836 C 0.97568 0.66556 0.8561 0.0
C837 C 0.99322 0.63946 0.8216 0.0
C838 C 0.94642 0.66901 0.86682 0.0
C839 C 0.91594 0.66562 0.8532 0.0
C840 C 0.97428 0.65921 0.83173 0.0
C841 C 0.91798 0.66387 0.82867 0.0
C842 C 0.00129 0.64231 0.7974 0.0
C843 C 0.99475 0.58131 0.8237 0.0
N844 N 0.9464 0.66002 0.81868 0.0
N845 N 0.99161 0.60989 0.83413 0.0
H846 H 0.34142 0.23335 0.8136 0.0
H847 H 0.44595 0.43444 0.83487 0.0
H848 H 0.32735 0.2718 0.88176 0.0
H849 H 0.3878 0.39769 0.76818 0.0
H850 H 0.39375 0.37778 0.85349 0.0
H851 H 0.34661 0.29094 0.7959 0.0
C852 C 0.33786 0.25328 0.82465 0.0
C853 C 0.3346 0.24844 0.8491 0.0
C854 C 0.39148 0.38282 0.83497 0.0
C855 C 0.3422 0.31485 0.82932 0.0
C856 C 0.42135 0.41509 0.82438 0.0
C857 C 0.42119 0.42009 0.80001 0.0
C858 C 0.36248 0.35472 0.8208 0.0
C859 C 0.38887 0.39442 0.78706 0.0
C860 C 0.3407 0.2861 0.81459 0.0
C861 C 0.33016 0.27491 0.86279 0.0
N862 N 0.36133 0.36188 0.79745 0.0
N863 N 0.33561 0.30791 0.85284 0.0
H864 H 0.56688 0.00357 0.82591 0.0
H865 H 0.76658 0.12212 0.80825 0.0
H866 H 0.60962 0.99957 0.75702 0.0
H867 H 0.73268 0.05414 0.87162 0.0
H868 H 0.71232 0.07016 0.78765 0.0
H869 H 0.62548 0.01093 0.84335 0.0
C870 C 0.58801 0.00255 0.8146 0.0
C871 C 0.58401 0.00154 0.7901 0.0
C872 C 0.71757 0.06586 0.8058 0.0
C873 C 0.65145 0.01178 0.80963 0.0
C874 C 0.74839 0.0956 0.81754 0.0
C875 C 0.75344 0.09235 0.84161 0.0
C876 C 0.69085 0.03371 0.81862 0.0
C877 C 0.72931 0.05759 0.85301 0.0
C878 C 0.62141 0.00668 0.8245 0.0
C879 C 0.61204 1.00052 0.77604 0.0
N880 N 0.69802 0.03 0.84162 0.0
N881 N 0.64546 0.00725 0.78594 0.0
H882 H 0.66013 0.94159 0.09271 0.0
H883 H 0.60807 0.99877 0.21511 0.0
H884 H 0.65327 0.88675 0.1591 0.0
H885 H 0.54887 0.98648 0.14971 0.0
H886 H 0.65679 0.99131 0.19359 0.0
H887 H 0.6525 0.99076 0.11363 0.0
C888 C 0.65895 0.94108 0.1118 0.0
C889 C 0.65686 0.91019 0.12435 0.0
C890 C 0.63408 0.99209 0.18388 0.0
C891 C 0.64855 0.96585 0.14808 0.0
C892 C 0.60645 0.99642 0.19607 0.0
C893 C 0.57448 0.99271 0.18403 0.0
C894 C 0.62966 0.98462 0.1596 0.0
C895 C 0.5731 0.98913 0.15949 0.0
C896 C 0.65452 0.96897 0.12364 0.0
C897 C 0.65472 0.91017 0.14894 0.0
N898 N 0.6001 0.98461 0.14805 0.0
N899 N 0.65005 0.93736 0.16006 0.0
H900 H 0.11302 0.77097 0.15796 0.0
H901 H 0.01663 0.56454 0.14654 0.0
H902 H 0.05817 0.72181 0.0918 0.0
H903 H 0.00058 0.6105 0.21131 0.0
H904 H 0.02144 0.61949 0.12531 0.0
H905 H 0.06341 0.71458 0.17839 0.0
C906 C 0.0895 0.7489 0.1479 0.0
C907 C 0.08955 0.75054 0.12329 0.0
C908 C 0.01529 0.6169 0.14402 0.0
C909 C 0.03407 0.6855 0.14621 0.0
C910 C 0.01267 0.5856 0.15608 0.0
C911 C 0.0086 0.58353 0.18058 0.0
C912 C 0.01569 0.64695 0.15681 0.0
C913 C 0.00384 0.61143 0.19234 0.0
C914 C 0.06117 0.71673 0.1595 0.0
C915 C 0.05888 0.72128 0.11086 0.0
N916 N 0.00889 0.64287 0.18044 0.0
N917 N 0.03297 0.68913 0.1224 0.0
H918 H 0.38772 0.39348 0.2154 0.0
H919 H 0.27498 0.33372 0.09438 0.0
H920 H 0.43381 0.44758 0.14853 0.0
H921 H 0.23117 0.35111 0.15966 0.0
H922 H 0.33131 0.34102 0.11555 0.0
H923 H 0.3303 0.34424 0.19512 0.0
C924 C 0.38651 0.39378 0.19633 0.0
C925 C 0.41494 0.42452 0.18347 0.0
C926 C 0.30843 0.34138 0.12534 0.0
C927 C 0.35032 0.36874 0.16047 0.0
C928 C 0.27639 0.33717 0.11336 0.0
C929 C 0.24901 0.34235 0.12542 0.0
C930 C 0.31237 0.35012 0.14945 0.0
C931 C 0.25208 0.34731 0.14986 0.0
C932 C 0.35386 0.36585 0.18485 0.0
C933 C 0.41213 0.42428 0.15892 0.0
N934 N 0.28363 0.35162 0.1611 0.0
N935 N 0.37996 0.39703 0.14816 0.0
H936 H 0.66251 0.7212 0.54902 0.0
H937 H 0.78518 0.68014 0.4954 0.0
H938 H 0.69065 0.78626 0.48457 0.0
H939 H 0.72738 0.67103 0.42992 0.0
H940 H 0.73481 0.68477 0.51643 0.0
H941 H 0.66964 0.67147 0.52839 0.0
C942 C 0.66846 0.7241 0.53028 0.0
C943 C 0.67678 0.75789 0.51841 0.0
C944 C 0.732 0.67981 0.4976 0.0
C945 C 0.68492 0.70189 0.49507 0.0
C946 C 0.76088 0.67743 0.48564 0.0
C947 C 0.76019 0.67546 0.46105 0.0
C948 C 0.70349 0.68201 0.48464 0.0
C949 C 0.7286 0.67255 0.44898 0.0
C950 C 0.67267 0.69592 0.51862 0.0
C951 C 0.68463 0.76071 0.49427 0.0
N952 N 0.70214 0.67747 0.46083 0.0
N953 N 0.68907 0.73323 0.48341 0.0
H954 H 0.31652 0.10312 0.49879 0.0
H955 H 0.21176 0.90053 0.48415 0.0
H956 H 0.33207 0.06052 0.43252 0.0
H957 H 0.2747 0.94132 0.54906 0.0
H958 H 0.2622 0.95656 0.46383 0.0
H959 H 0.31035 0.0463 0.5184 0.0
C960 C 0.3202 0.08243 0.4886 0.0
C961 C 0.32444 0.08595 0.46414 0.0
C962 C 0.26586 0.9525 0.48231 0.0
C963 C 0.31573 0.02057 0.48602 0.0
C964 C 0.23703 0.92064 0.49386 0.0
C965 C 0.23924 0.91687 0.51819 0.0
C966 C 0.29582 0.98139 0.49553 0.0
C967 C 0.27221 0.9436 0.5302 0.0
C968 C 0.3168 0.05011 0.49973 0.0
C969 C 0.3287 0.05846 0.45149 0.0
N970 N 0.29872 0.97568 0.5189 0.0
N971 N 0.32277 0.026 0.46246 0.0
H972 H 0.05596 0.33267 0.55319 0.0
H973 H 0.94492 0.27584 0.43164 0.0
H974 H 0.10038 0.31684 0.4877 0.0
H975 H 0.89777 0.22076 0.49812 0.0
H976 H 0.00198 0.32479 0.45232 0.0
H977 H 1.0 0.32625 0.532 0.0
C978 C 0.05477 0.32976 0.53418 0.0
C979 C 0.0822 0.32476 0.52204 0.0
C980 C 0.97826 0.30304 0.46242 0.0
C981 C 0.01928 0.31799 0.49798 0.0
C982 C 0.9458 0.27527 0.45071 0.0
C983 C 0.9172 0.24432 0.46334 0.0
C984 C 0.98146 0.29975 0.4868 0.0
C985 C 0.9196 0.24423 0.48791 0.0
C986 C 0.02295 0.32606 0.52218 0.0
C987 C 0.07942 0.32048 0.49756 0.0
N988 N 0.95161 0.2713 0.49889 0.0
N989 N 0.04807 0.31665 0.48629 0.0
H990 H 0.27385 0.3295 0.5577 0.0
H991 H 0.33088 0.27973 0.43458 0.0
H992 H 0.22268 0.3294 0.49112 0.0
H993 H 0.31586 0.2181 0.49936 0.0
H994 H 0.32484 0.32898 0.45661 0.0
H995 H 0.32254 0.32135 0.53671 0.0
C996 C 0.27417 0.32982 0.53861 0.0
C997 C 0.2443 0.32966 0.52597 0.0
C998 C 0.32464 0.30554 0.46607 0.0
C999 C 0.29931 0.32049 0.50215 0.0
C1000 C 0.32813 0.27759 0.45359 0.0
C1001 C 0.32333 0.24489 0.46531 0.0
C1002 C 0.31692 0.30068 0.49032 0.0
C1003 C 0.31932 0.24289 0.48982 0.0
C1004 C 0.30175 0.32502 0.52671 0.0
C1005 C 0.2453 0.32935 0.50134 0.0
N1006 N 0.31568 0.27023 0.50155 0.0
N1007 N 0.27208 0.32414 0.49016 0.0
H1008 H 0.78442 0.10248 0.49902 0.0
H1009 H 0.67746 0.89584 0.48652 0.0
H1010 H 0.72376 0.05682 0.43388 0.0
H1011 H 0.66877 0.94331 0.55269 0.0
H1012 H 0.68428 0.9524 0.46627 0.0
H1013 H 0.73468 0.04664 0.51984 0.0
C1014 C 0.75974 0.08129 0.48932 0.0
C1015 C 0.75803 0.08377 0.46483 0.0
C1016 C 0.67923 0.94982 0.4851 0.0
C1017 C 0.70222 0.01935 0.48813 0.0
C1018 C 0.67536 0.91756 0.4966 0.0
C1019 C 0.67285 0.91537 0.52118 0.0
C1020 C 0.68243 0.98062 0.49849 0.0
C1021 C 0.67069 0.94424 0.53364 0.0
C1022 C 0.73131 0.04949 0.50115 0.0
C1023 C 0.72584 0.05564 0.45285 0.0
N1024 N 0.67694 0.97649 0.52224 0.0
N1025 N 0.69973 0.02374 0.46452 0.0
H1026 H 0.10582 0.77899 0.48752 0.0
H1027 H 0.89817 0.68303 0.49533 0.0
H1028 H 0.05225 0.724 0.55285 0.0
H1029 H 0.94797 0.67081 0.43109 0.0
H1030 H 0.95187 0.68688 0.51743 0.0
H1031 H 0.05036 0.73012 0.46607 0.0
C1032 C 0.08296 0.75555 0.49721 0.0
C1033 C 0.0831 0.75538 0.52184 0.0
C1034 C 0.95043 0.68181 0.49862 0.0
C1035 C 0.0191 0.70077 0.49774 0.0
C1036 C 0.91984 0.67974 0.48606 0.0
C1037 C 0.9192 0.67701 0.4615 0.0
C1038 C 0.98123 0.68301 0.48631 0.0
C1039 C 0.94782 0.67306 0.4501 0.0
C1040 C 0.0513 0.72765 0.48502 0.0
C1041 C 0.05286 0.72486 0.53378 0.0
N1042 N 0.97854 0.67751 0.46253 0.0
N1043 N 0.02129 0.69938 0.52164 0.0
H1044 H 0.29118 0.38372 0.00274 0.0
H1045 H 0.27811 0.18931 0.96025 0.0
H1046 H 0.20334 0.271 0.0247 0.0
H1047 H 0.38558 0.29583 0.95949 0.0
H1048 H 0.24869 0.22103 0.9807 0.0
H1049 H 0.32478 0.35433 0.98314 0.0
C1050 C 0.27889 0.35291 0.00331 0.0
C1051 C 0.24444 0.32977 0.01536 0.0
C1052 C 0.2788 0.23753 0.97626 0.0
C1053 C 0.28243 0.29632 -0.0068 0.0
C1054 C 0.29559 0.21942 0.96457 0.0
C1055 C 0.33431 0.24 0.95824 0.0
C1056 C 0.30064 0.27676 0.98141 0.0
C1057 C 0.35568 0.27895 0.9643 0.0
C1058 C 0.29818 0.33627 -0.00766 0.0
C1059 C 0.22989 0.29004 0.01575 0.0
N1060 N 0.33842 0.2963 0.97541 0.0
N1061 N 0.24885 0.27466 0.00479 0.0
H1062 H 0.7343 0.04797 0.92166 0.0
H1063 H 0.69744 0.94685 0.04484 0.0
H1064 H 0.75004 0.11022 0.98645 0.0
H1065 H 0.63364 0.88515 0.98326 0.0
H1066 H 0.72074 0.00703 0.02345 0.0
H1067 H 0.70028 0.98776 0.94345 0.0
C1068 C 0.73033 0.04889 0.94049 0.0
C1069 C 0.74524 0.08402 0.95238 0.0
C1070 C 0.70143 0.98035 0.01469 0.0
C1071 C 0.70687 0.01541 0.97734 0.0
C1072 C 0.68843 0.94599 0.02677 0.0
C1073 C 0.66395 0.91098 0.01566 0.0
C1074 C 0.69051 0.97968 -0.00881 0.0
C1075 C 0.65262 0.91154 -0.00761 0.0
C1076 C 0.71077 0.01457 0.95285 0.0
C1077 C 0.73898 0.08369 0.97669 0.0
N1078 N 0.66645 0.94542 0.98077 0.0
N1079 N 0.72076 0.04982 0.98848 0.0
H1080 H 0.9099 0.6137 0.96455 0.0
H1081 H 0.07758 0.80748 0.01988 0.0
H1082 H 0.91439 0.72293 0.96238 0.0
H1083 H 0.09084 0.70912 0.00704 0.0
H1084 H 0.01459 0.77385 0.00201 0.0
H1085 H 0.97277 0.64486 0.98409 0.0
C1086 C 0.92385 0.64403 0.96849 0.0
C1087 C 0.90712 0.66587 0.9618 0.0
C1088 C 0.03124 0.75957 0.00295 0.0
C1089 C 0.9785 0.70142 0.98378 0.0
C1090 C 0.06729 0.7788 0.01315 0.0
C1091 C 0.0895 0.76107 0.01492 0.0
C1092 C 0.01695 0.72211 -0.00545 0.0
C1093 C 0.0747 0.7239 0.00583 0.0
C1094 C 0.95976 0.66181 0.97939 0.0
C1095 C 0.92641 0.70509 0.96707 0.0
N1096 N 0.0391 0.70545 -0.00389 0.0
N1097 N 0.96102 0.72156 0.97771 0.0
H1098 H 0.70155 0.75325 0.04678 0.0
H1099 H 0.73199 0.67848 0.92554 0.0
H1100 H 0.6318 0.74145 0.98622 0.0
H1101 H 0.75504 0.64022 -0.00875 0.0
H1102 H 0.69791 0.70485 0.94703 0.0
H1103 H 0.72509 0.71558 0.02646 0.0
C1104 C 0.69128 0.74281 0.02916 0.0
C1105 C 0.66504 0.75084 0.01801 0.0
C1106 C 0.70999 0.69028 0.95673 0.0
C1107 C 0.69183 0.70782 -0.0052 0.0
C1108 C 0.72955 0.6754 0.94452 0.0
C1109 C 0.7465 0.65747 0.95674 0.0
C1110 C 0.70819 0.68803 0.98137 0.0
C1111 C 0.7423 0.65386 0.98126 0.0
C1112 C 0.70443 0.72102 0.01772 0.0
C1113 C 0.65216 0.73605 -0.00462 0.0
N1114 N 0.72405 0.66967 -0.00711 0.0
N1115 N 0.6661 0.71563 0.98436 0.0
H1116 H 0.25861 0.95091 0.04705 0.0
H1117 H 0.31512 0.05089 0.92301 0.0
H1118 H 0.25278 0.88835 0.98395 0.0
H1119 H 0.36575 0.11377 0.98701 0.0
H1120 H 0.28988 0.99096 0.9449 0.0
H1121 H 0.29548 0.01096 0.02549 0.0
C1122 C 0.26513 0.94983 0.02864 0.0
C1123 C 0.25223 0.91459 0.01715 0.0
C1124 C 0.30686 0.01782 0.95412 0.0
C1125 C 0.29429 0.98317 -0.00754 0.0
C1126 C 0.32109 0.05202 0.94169 0.0
C1127 C 0.34222 0.08727 0.95332 0.0
C1128 C 0.31306 0.01886 0.97847 0.0
C1129 C 0.34953 0.08715 0.97744 0.0
C1130 C 0.28644 0.98411 0.01644 0.0
C1131 C 0.26203 0.91488 -0.00658 0.0
N1132 N 0.33439 0.05338 0.98935 0.0
N1133 N 0.28205 0.9487 0.98173 0.0
H1134 H 0.90691 0.29006 0.9628 0.0
H1135 H 0.07758 0.2691 0.01707 0.0
H1136 H 0.91807 0.1895 0.95516 0.0
H1137 H 0.08871 0.37997 0.00511 0.0
H1138 H 0.01571 0.23899 -0.00237 0.0
H1139 H 0.96985 0.32295 0.98219 0.0
C1140 C 0.92235 0.27479 0.96546 0.0
C1141 C 0.90727 0.23699 0.9574 0.0
C1142 C 0.03166 0.26992 -0.00092 0.0
C1143 C 0.97888 0.2743 0.97926 0.0
C1144 C 0.06702 0.28715 0.0102 0.0
C1145 C 0.08826 0.32708 0.0127 0.0
C1146 C 0.01698 0.29264 -0.00942 0.0
C1147 C 0.07327 0.34908 0.00336 0.0
C1148 C 0.95833 0.29367 0.97627 0.0
C1149 C 0.92862 0.21867 0.96101 0.0
N1150 N 0.03821 0.3315 -0.00715 0.0
N1151 N 0.96321 0.23745 0.97169 0.0
H1152 H 0.91521 0.69624 0.31774 0.0
H1153 H 0.02985 0.58274 0.32344 0.0
H1154 H 0.92183 0.64042 0.38097 0.0
H1155 H 0.96991 0.58475 0.26099 0.0
H1156 H 0.00402 0.61807 0.34462 0.0
H1157 H 0.94933 0.66927 0.2963 0.0
C1158 C 0.92414 0.67862 0.3271 0.0
C1159 C 0.91536 0.67006 0.35101 0.0
C1160 C 0.99678 0.61086 0.32624 0.0
C1161 C 0.95464 0.64 0.32693 0.0
C1162 C 0.01151 0.59086 0.31419 0.0
C1163 C 0.00153 0.58046 0.29059 0.0
C1164 C 0.97274 0.62117 0.31439 0.0
C1165 C 0.97776 0.59172 0.27932 0.0
C1166 C 0.94341 0.66322 0.31491 0.0
C1167 C 0.92756 0.64716 0.36242 0.0
N1168 N 0.96421 0.61159 0.29132 0.0
N1169 N 0.94669 0.63296 0.35028 0.0
H1170 H 0.41587 0.38749 0.26211 0.0
H1171 H 0.36511 0.2859 0.38541 0.0
H1172 H 0.42051 0.44939 0.32526 0.0
H1173 H 0.30692 0.22486 0.3223 0.0
H1174 H 0.39116 0.34632 0.3638 0.0
H1175 H 0.38118 0.32731 0.28387 0.0
C1176 C 0.40957 0.38835 0.28059 0.0
C1177 C 0.4213 0.42336 0.29204 0.0
C1178 C 0.37245 0.31971 0.35476 0.0
C1179 C 0.382 0.35485 0.31692 0.0
C1180 C 0.35785 0.28527 0.36698 0.0
C1181 C 0.33415 0.25042 0.35549 0.0
C1182 C 0.36399 0.31917 0.33079 0.0
C1183 C 0.32515 0.25116 0.33173 0.0
C1184 C 0.38955 0.35405 0.2929 0.0
C1185 C 0.41197 0.42293 0.31587 0.0
N1186 N 0.34058 0.28507 0.32001 0.0
N1187 N 0.39329 0.38912 0.32768 0.0
H1188 H 0.61411 0.02901 0.26315 0.0
H1189 H 0.71773 0.08269 0.3857 0.0
H1190 H 0.55347 0.97354 0.32695 0.0
H1191 H 0.77785 0.0846 0.32232 0.0
H1192 H 0.65708 0.04754 0.36454 0.0
H1193 H 0.67465 0.05467 0.28443 0.0
C1194 C 0.6136 0.02224 0.28167 0.0
C1195 C 0.57883 0.99946 0.29344 0.0
C1196 C 0.68353 0.05538 0.35534 0.0
C1197 C 0.64779 0.0289 0.31779 0.0
C1198 C 0.71811 0.07568 0.3673 0.0
C1199 C 0.75278 0.08683 0.35561 0.0
C1200 C 0.68369 0.04696 0.33141 0.0
C1201 C 0.7517 0.07657 0.33191 0.0
C1202 C 0.64811 0.03662 0.2937 0.0
C1203 C 0.57972 0.99106 0.31731 0.0
N1204 N 0.71763 0.05764 0.32043 0.0
N1205 N 0.61374 0.00631 0.32885 0.0
H1206 H 0.36764 0.08892 0.38585 0.0
H1207 H 0.41565 0.03169 0.26349 0.0
H1208 H 0.30856 0.0892 0.32258 0.0
H1209 H 0.42027 0.97662 0.32757 0.0
H1210 H 0.38222 0.05907 0.28475 0.0
H1211 H 0.3934 0.05373 0.36481 0.0
C1212 C 0.36018 0.08163 0.3675 0.0
C1213 C 0.33622 0.09223 0.35582 0.0
C1214 C 0.39031 0.04078 0.2941 0.0
C1215 C 0.36572 0.0523 0.33177 0.0
C1216 C 0.40958 0.02539 0.28207 0.0
C1217 C 0.42093 0.00215 0.2939 0.0
C1218 C 0.38314 0.03362 0.31825 0.0
C1219 C 0.41198 0.99443 0.31786 0.0
C1220 C 0.37461 0.06131 0.35562 0.0
C1221 C 0.32699 0.0816 0.33217 0.0
N1222 N 0.39404 0.01065 0.3294 0.0
N1223 N 0.34221 0.06263 0.32078 0.0
H1224 H 0.96748 0.38465 0.26077 0.0
H1225 H 0.91517 0.2828 0.38425 0.0
H1226 H 0.02567 0.44571 0.32387 0.0
H1227 H 0.91238 0.2213 0.32132 0.0
H1228 H 0.94936 0.34308 0.36243 0.0
H1229 H 0.94051 0.3243 0.28259 0.0
C1230 C 0.97454 0.3853 0.27924 0.0
C1231 C 0.99859 0.42015 0.29064 0.0
C1232 C 0.94145 0.31639 0.35347 0.0
C1233 C 0.96762 0.35144 0.3156 0.0
C1234 C 0.92173 0.28202 0.36581 0.0
C1235 C 0.91074 0.24708 0.35446 0.0
C1236 C 0.94944 0.31572 0.3295 0.0
C1237 C 0.92036 0.24768 0.33067 0.0
C1238 C 0.95939 0.3509 0.29158 0.0
C1239 C 0.00724 0.41941 0.31448 0.0
N1240 N 0.93875 0.28151 0.31883 0.0
N1241 N 0.99128 0.38555 0.32632 0.0
H1242 H 0.72066 0.6361 0.38231 0.0
H1243 H 0.61565 0.58698 0.26021 0.0
H1244 H 0.78007 0.69591 0.31915 0.0
H1245 H 0.556 0.58301 0.32422 0.0
H1246 H 0.67647 0.62116 0.28134 0.0
H1247 H 0.65981 0.61022 0.36129 0.0
C1248 C 0.72085 0.64371 0.36399 0.0
C1249 C 0.75537 0.66788 0.35233 0.0
C1250 C 0.65008 0.61306 0.29069 0.0
C1251 C 0.6861 0.63824 0.32829 0.0
C1252 C 0.61543 0.59336 0.27874 0.0
C1253 C 0.58086 0.58196 0.29061 0.0
C1254 C 0.65007 0.62059 0.31479 0.0
C1255 C 0.5821 0.59132 0.3145 0.0
C1256 C 0.68616 0.62921 0.35211 0.0
C1257 C 0.75404 0.67731 0.32871 0.0
N1258 N 0.61623 0.60965 0.32596 0.0
N1259 N 0.7199 0.66199 0.31732 0.0
H1260 H 0.716 0.9563 0.63976 0.0
H1261 H 0.52117 0.94621 0.6785 0.0
H1262 H 0.60329 0.86427 0.62148 0.0
H1263 H 0.62963 0.05141 0.68194 0.0
H1264 H 0.55223 0.91536 0.65896 0.0
H1265 H 0.68651 0.99093 0.65759 0.0
C1266 C 0.68514 0.94325 0.63969 0.0
C1267 C 0.66206 0.90732 0.62914 0.0
C1268 C 0.56934 0.94529 0.66375 0.0
C1269 C 0.62841 0.94673 0.6492 0.0
C1270 C 0.55157 0.96292 0.67489 0.0
C1271 C 0.57292 0.00135 0.68183 0.0
C1272 C 0.60896 0.96601 0.65977 0.0
C1273 C 0.61219 0.02175 0.67667 0.0
C1274 C 0.6684 0.96316 0.64964 0.0
C1275 C 0.62226 0.89192 0.62931 0.0
N1276 N 0.62916 0.00366 0.66614 0.0
N1277 N 0.60679 0.91165 0.63919 0.0
H1278 H 0.14076 0.7447 0.627 0.0
H1279 H 0.94894 0.57775 0.68391 0.0
H1280 H 0.04275 0.75839 0.6397 0.0
H1281 H 0.06007 0.58806 0.69207 0.0
H1282 H 0.97949 0.63987 0.66338 0.0
H1283 H 0.10831 0.68316 0.647 0.0
C1284 C 0.1124 0.73479 0.63411 0.0
C1285 C 0.09443 0.75671 0.63173 0.0
C1286 C 0.997 0.62834 0.66969 0.0
C1287 C 0.05688 0.68589 0.65448 0.0
C1288 C 0.97961 0.59286 0.68118 0.0
C1289 C 0.00205 0.57783 0.68971 0.0
C1290 C 0.03686 0.64834 0.66647 0.0
C1291 C 0.04169 0.59867 0.68592 0.0
C1292 C 0.0939 0.69964 0.64555 0.0
C1293 C 0.0577 0.74247 0.64135 0.0
N1294 N 0.05776 0.63274 0.67455 0.0
N1295 N 0.03991 0.70768 0.6522 0.0
H1296 H 0.25176 0.39473 0.63205 0.0
H1297 H 0.42285 0.37214 0.68437 0.0
H1298 H 0.24162 0.28365 0.64098 0.0
H1299 H 0.41103 0.47205 0.69377 0.0
H1300 H 0.36004 0.3398 0.66469 0.0
H1301 H 0.31363 0.42411 0.65145 0.0
C1302 C 0.26252 0.37646 0.63823 0.0
C1303 C 0.24152 0.33668 0.63492 0.0
C1304 C 0.3714 0.36881 0.67109 0.0
C1305 C 0.31281 0.37031 0.65702 0.0
C1306 C 0.40727 0.38735 0.68208 0.0
C1307 C 0.4221 0.42479 0.69072 0.0
C1308 C 0.35077 0.38819 0.6685 0.0
C1309 C 0.40064 0.44311 0.68752 0.0
C1310 C 0.29789 0.39327 0.64933 0.0
C1311 C 0.25684 0.31443 0.64338 0.0
N1312 N 0.36621 0.42468 0.67666 0.0
N1313 N 0.29184 0.33161 0.65393 0.0
H1314 H 0.96688 0.41679 0.65937 0.0
H1315 H 0.08022 0.3013 0.66513 0.0
H1316 H 0.02187 0.40825 0.72242 0.0
H1317 H 0.07203 0.35615 0.60187 0.0
H1318 H 0.04438 0.32642 0.68642 0.0
H1319 H 0.99125 0.3803 0.63799 0.0
C1320 C 0.98372 0.40691 0.66873 0.0
C1321 C 0.9929 0.41596 0.69255 0.0
C1322 C 0.05026 0.33262 0.66783 0.0
C1323 C 0.02014 0.37403 0.66849 0.0
C1324 C 0.07055 0.31826 0.65571 0.0
C1325 C 0.07952 0.32719 0.63185 0.0
C1326 C 0.03833 0.35532 0.65583 0.0
C1327 C 0.06625 0.34919 0.62039 0.0
C1328 C 0.99765 0.38626 0.65656 0.0
C1329 C 0.01471 0.40242 0.70393 0.0
N1330 N 0.04633 0.36255 0.6325 0.0
N1331 N 0.02762 0.38214 0.69179 0.0
H1332 H 0.58068 0.55043 0.65836 0.0
H1333 H 0.69647 0.77936 0.66201 0.0
H1334 H 0.5916 0.61554 0.72118 0.0
H1335 H 0.63836 0.71526 0.59968 0.0
H1336 H 0.67139 0.71885 0.68373 0.0
H1337 H 0.61543 0.61079 0.63625 0.0
C1338 C 0.59074 0.57739 0.6675 0.0
C1339 C 0.58291 0.57811 0.6915 0.0
C1340 C 0.6644 0.71818 0.66526 0.0
C1341 C 0.62282 0.64671 0.6666 0.0
C1342 C 0.67872 0.75258 0.65288 0.0
C1343 C 0.66902 0.75226 0.62914 0.0
C1344 C 0.64092 0.68334 0.65364 0.0
C1345 C 0.646 0.71677 0.61809 0.0
C1346 C 0.61036 0.61168 0.65492 0.0
C1347 C 0.59656 0.61376 0.70259 0.0
N1348 N 0.63273 0.68369 0.63044 0.0
N1349 N 0.61588 0.64666 0.69005 0.0
H1350 H 0.28258 0.92364 0.59715 0.0
H1351 H 0.38604 0.98711 0.71952 0.0
H1352 H 0.22235 0.92322 0.66015 0.0
H1353 H 0.44733 0.03236 0.65434 0.0
H1354 H 0.32566 0.96218 0.6983 0.0
H1355 H 0.34325 0.96178 0.61771 0.0
C1356 C 0.28214 0.93161 0.61534 0.0
C1357 C 0.24739 0.91982 0.62712 0.0
C1358 C 0.35228 0.97798 0.68866 0.0
C1359 C 0.31668 0.96338 0.65065 0.0
C1360 C 0.38671 0.99201 0.70072 0.0
C1361 C 0.42159 0.01141 0.68855 0.0
C1362 C 0.35272 0.98262 0.66418 0.0
C1363 C 0.42096 0.01745 0.66429 0.0
C1364 C 0.31678 0.95366 0.62695 0.0
C1365 C 0.2485 0.93153 0.6505 0.0
N1366 N 0.38693 0.00246 0.65277 0.0
N1367 N 0.28266 0.95224 0.66165 0.0
loop_
_geom_bond_atom_site_label_1
_geom_bond_atom_site_label_2
_geom_bond_distance
_geom_bond_site_symmetry_2
_ccdc_geom_bond_type
Sc0 O3 2.025 . S
Sc0 O10 2.105 . S
Sc0 O13 2.105 . S
Sc0 O16 2.105 . S
Sc0 O19 2.105 . S
Sc1 O3 2.025 . S
Sc1 O11 2.105 . S
Sc1 O15 2.105 . S
Sc1 O17 2.105 . S
Sc1 O21 2.105 . S
Sc2 O3 2.025 . S
Sc2 O12 2.105 . S
Sc2 O14 2.105 . S
Sc2 O18 2.105 . S
Sc2 O20 2.105 . S
O3 Sc0 2.025 . S
O3 Sc1 2.025 . S
O3 Sc2 2.025 . S
C4 O10 1.268 . S
C4 O20 1.268 . S
C5 O11 1.268 . S
C5 O19 1.268 . S
C6 O12 1.268 . S
C6 O21 1.268 . S
C7 O13 1.268 . S
C7 O17 1.268 . S
C8 O14 1.268 . S
C8 O16 1.268 . S
C9 O15 1.268 . S
C9 O18 1.268 . S
O10 Sc0 2.105 . S
O10 C4 1.268 . S
O11 Sc1 2.105 . S
O11 C5 1.268 . S
O12 Sc2 2.105 . S
O12 C6 1.268 . S
O13 Sc0 2.105 . S
O13 C7 1.268 . S
O14 Sc2 2.105 . S
O14 C8 1.268 . S
O15 Sc1 2.105 . S
O15 C9 1.268 . S
O16 Sc0 2.105 . S
O16 C8 1.268 . S
O17 Sc1 2.105 . S
O17 C7 1.268 . S
O18 Sc2 2.105 . S
O18 C9 1.268 . S
O19 Sc0 2.105 . S
O19 C5 1.268 . S
O20 Sc2 2.105 . S
O20 C4 1.268 . S
O21 Sc1 2.105 . S
O21 C6 1.268 . S
Sc22 O25 2.025 . S
Sc22 O32 2.105 . S
Sc22 O35 2.105 . S
Sc22 O38 2.105 . S
Sc22 O41 2.105 . S
Sc23 O25 2.025 . S
Sc23 O33 2.105 . S
Sc23 O37 2.105 . S
Sc23 O39 2.105 . S
Sc23 O43 2.105 . S
Sc24 O25 2.025 . S
Sc24 O34 2.105 . S
Sc24 O36 2.105 . S
Sc24 O40 2.105 . S
Sc24 O42 2.105 . S
O25 Sc22 2.025 . S
O25 Sc23 2.025 . S
O25 Sc24 2.025 . S
C26 O32 1.268 . S
C26 O42 1.268 . S
C27 O33 1.268 . S
C27 O41 1.268 . S
C28 O34 1.268 . S
C28 O43 1.268 . S
C29 O35 1.268 . S
C29 O39 1.268 . S
C30 O36 1.268 . S
C30 O38 1.268 . S
C31 O37 1.268 . S
C31 O40 1.268 . S
O32 Sc22 2.105 . S
O32 C26 1.268 . S
O33 Sc23 2.105 . S
O33 C27 1.268 . S
O34 Sc24 2.105 . S
O34 C28 1.268 . S
O35 Sc22 2.105 . S
O35 C29 1.268 . S
O36 Sc24 2.105 . S
O36 C30 1.268 . S
O37 Sc23 2.105 . S
O37 C31 1.268 . S
O38 Sc22 2.105 . S
O38 C30 1.268 . S
O39 Sc23 2.105 . S
O39 C29 1.268 . S
O40 Sc24 2.105 . S
O40 C31 1.268 . S
O41 Sc22 2.105 . S
O41 C27 1.268 . S
O42 Sc24 2.105 . S
O42 C26 1.268 . S
O43 Sc23 2.105 . S
O43 C28 1.268 . S
Sc44 O47 2.025 . S
Sc44 O54 2.105 . S
Sc44 O57 2.105 . S
Sc44 O60 2.105 . S
Sc44 O63 2.105 . S
Sc45 O47 2.025 . S
Sc45 O55 2.105 . S
Sc45 O59 2.105 . S
Sc45 O61 2.105 . S
Sc45 O65 2.105 . S
Sc46 O47 2.025 . S
Sc46 O56 2.105 . S
Sc46 O58 2.105 . S
Sc46 O62 2.105 . S
Sc46 O64 2.105 . S
O47 Sc44 2.025 . S
O47 Sc45 2.025 . S
O47 Sc46 2.025 . S
C48 O54 1.268 . S
C48 O64 1.268 . S
C49 O55 1.268 . S
C49 O63 1.268 . S
C50 O56 1.268 . S
C50 O65 1.268 . S
C51 O57 1.268 . S
C51 O61 1.268 . S
C52 O58 1.268 . S
C52 O60 1.268 . S
C53 O59 1.268 . S
C53 O62 1.268 . S
O54 Sc44 2.105 . S
O54 C48 1.268 . S
O55 Sc45 2.105 . S
O55 C49 1.268 . S
O56 Sc46 2.105 . S
O56 C50 1.268 . S
O57 Sc44 2.105 . S
O57 C51 1.268 . S
O58 Sc46 2.105 . S
O58 C52 1.268 . S
O59 Sc45 2.105 . S
O59 C53 1.268 . S
O60 Sc44 2.105 . S
O60 C52 1.268 . S
O61 Sc45 2.105 . S
O61 C51 1.268 . S
O62 Sc46 2.105 . S
O62 C53 1.268 . S
O63 Sc44 2.105 . S
O63 C49 1.268 . S
O64 Sc46 2.105 . S
O64 C48 1.268 . S
O65 Sc45 2.105 . S
O65 C50 1.268 . S
Sc66 O69 2.025 . S
Sc66 O76 2.105 . S
Sc66 O79 2.105 . S
Sc66 O82 2.105 . S
Sc66 O85 2.105 . S
Sc67 O69 2.025 . S
Sc67 O77 2.105 . S
Sc67 O81 2.105 . S
Sc67 O83 2.105 . S
Sc67 O87 2.105 . S
Sc68 O69 2.025 . S
Sc68 O78 2.105 . S
Sc68 O80 2.105 . S
Sc68 O84 2.105 . S
Sc68 O86 2.105 . S
O69 Sc66 2.025 . S
O69 Sc67 2.025 . S
O69 Sc68 2.025 . S
C70 O76 1.268 . S
C70 O86 1.268 . S
C71 O77 1.268 . S
C71 O85 1.268 . S
C72 O78 1.268 . S
C72 O87 1.268 . S
C73 O79 1.268 . S
C73 O83 1.268 . S
C74 O80 1.268 . S
C74 O82 1.268 . S
C75 O81 1.268 . S
C75 O84 1.268 . S
O76 Sc66 2.105 . S
O76 C70 1.268 . S
O77 Sc67 2.105 . S
O77 C71 1.268 . S
O78 Sc68 2.105 . S
O78 C72 1.268 . S
O79 Sc66 2.105 . S
O79 C73 1.268 . S
O80 Sc68 2.105 . S
O80 C74 1.268 . S
O81 Sc67 2.105 . S
O81 C75 1.268 . S
O82 Sc66 2.105 . S
O82 C74 1.268 . S
O83 Sc67 2.105 . S
O83 C73 1.268 . S
O84 Sc68 2.105 . S
O84 C75 1.268 . S
O85 Sc66 2.105 . S
O85 C71 1.268 . S
O86 Sc68 2.105 . S
O86 C70 1.268 . S
O87 Sc67 2.105 . S
O87 C72 1.268 . S
Sc88 O91 2.025 . S
Sc88 O98 2.105 . S
Sc88 O101 2.105 . S
Sc88 O104 2.105 . S
Sc88 O107 2.105 . S
Sc89 O91 2.025 . S
Sc89 O99 2.105 . S
Sc89 O103 2.105 . S
Sc89 O105 2.105 . S
Sc89 O109 2.105 . S
Sc90 O91 2.025 . S
Sc90 O100 2.105 . S
Sc90 O102 2.105 . S
Sc90 O106 2.105 . S
Sc90 O108 2.105 . S
O91 Sc88 2.025 . S
O91 Sc89 2.025 . S
O91 Sc90 2.025 . S
C92 O98 1.268 . S
C92 O108 1.268 . S
C93 O99 1.268 . S
C93 O107 1.268 . S
C94 O100 1.268 . S
C94 O109 1.268 . S
C95 O101 1.268 . S
C95 O105 1.268 . S
C96 O102 1.268 . S
C96 O104 1.268 . S
C97 O103 1.268 . S
C97 O106 1.268 . S
O98 Sc88 2.105 . S
O98 C92 1.268 . S
O99 Sc89 2.105 . S
O99 C93 1.268 . S
O100 Sc90 2.105 . S
O100 C94 1.268 . S
O101 Sc88 2.105 . S
O101 C95 1.268 . S
O102 Sc90 2.105 . S
O102 C96 1.268 . S
O103 Sc89 2.105 . S
O103 C97 1.268 . S
O104 Sc88 2.105 . S
O104 C96 1.268 . S
O105 Sc89 2.105 . S
O105 C95 1.268 . S
O106 Sc90 2.105 . S
O106 C97 1.268 . S
O107 Sc88 2.105 . S
O107 C93 1.268 . S
O108 Sc90 2.105 . S
O108 C92 1.268 . S
O109 Sc89 2.105 . S
O109 C94 1.268 . S
Sc110 O113 2.025 . S
Sc110 O120 2.105 . S
Sc110 O123 2.105 . S
Sc110 O126 2.105 . S
Sc110 O129 2.105 . S
Sc111 O113 2.025 . S
Sc111 O121 2.105 . S
Sc111 O125 2.105 . S
Sc111 O127 2.105 . S
Sc111 O131 2.105 . S
Sc112 O113 2.025 . S
Sc112 O122 2.105 . S
Sc112 O124 2.105 . S
Sc112 O128 2.105 . S
Sc112 O130 2.105 . S
O113 Sc110 2.025 . S
O113 Sc111 2.025 . S
O113 Sc112 2.025 . S
C114 O120 1.268 . S
C114 O130 1.268 . S
C115 O121 1.268 . S
C115 O129 1.268 . S
C116 O122 1.268 . S
C116 O131 1.268 . S
C117 O123 1.268 . S
C117 O127 1.268 . S
C118 O124 1.268 . S
C118 O126 1.268 . S
C119 O125 1.268 . S
C119 O128 1.268 . S
O120 Sc110 2.105 . S
O120 C114 1.268 . S
O121 Sc111 2.105 . S
O121 C115 1.268 . S
O122 Sc112 2.105 . S
O122 C116 1.268 . S
O123 Sc110 2.105 . S
O123 C117 1.268 . S
O124 Sc112 2.105 . S
O124 C118 1.268 . S
O125 Sc111 2.105 . S
O125 C119 1.268 . S
O126 Sc110 2.105 . S
O126 C118 1.268 . S
O127 Sc111 2.105 . S
O127 C117 1.268 . S
O128 Sc112 2.105 . S
O128 C119 1.268 . S
O129 Sc110 2.105 . S
O129 C115 1.268 . S
O130 Sc112 2.105 . S
O130 C114 1.268 . S
O131 Sc111 2.105 . S
O131 C116 1.268 . S
Sc132 O135 2.025 . S
Sc132 O142 2.105 . S
Sc132 O145 2.105 . S
Sc132 O148 2.105 . S
Sc132 O151 2.105 . S
Sc133 O135 2.025 . S
Sc133 O143 2.105 . S
Sc133 O147 2.105 . S
Sc133 O149 2.105 . S
Sc133 O153 2.105 . S
Sc134 O135 2.025 . S
Sc134 O144 2.105 . S
Sc134 O146 2.105 . S
Sc134 O150 2.105 . S
Sc134 O152 2.105 . S
O135 Sc132 2.025 . S
O135 Sc133 2.025 . S
O135 Sc134 2.025 . S
C136 O142 1.268 . S
C136 O152 1.268 . S
C137 O143 1.268 . S
C137 O151 1.268 . S
C138 O144 1.268 . S
C138 O153 1.268 . S
C139 O145 1.268 . S
C139 O149 1.268 . S
C140 O146 1.268 . S
C140 O148 1.268 . S
C141 O147 1.268 . S
C141 O150 1.268 . S
O142 Sc132 2.105 . S
O142 C136 1.268 . S
O143 Sc133 2.105 . S
O143 C137 1.268 . S
O144 Sc134 2.105 . S
O144 C138 1.268 . S
O145 Sc132 2.105 . S
O145 C139 1.268 . S
O146 Sc134 2.105 . S
O146 C140 1.268 . S
O147 Sc133 2.105 . S
O147 C141 1.268 . S
O148 Sc132 2.105 . S
O148 C140 1.268 . S
O149 Sc133 2.105 . S
O149 C139 1.268 . S
O150 Sc134 2.105 . S
O150 C141 1.268 . S
O151 Sc132 2.105 . S
O151 C137 1.268 . S
O152 Sc134 2.105 . S
O152 C136 1.268 . S
O153 Sc133 2.105 . S
O153 C138 1.268 . S
Sc154 O157 2.025 . S
Sc154 O164 2.105 . S
Sc154 O167 2.105 . S
Sc154 O170 2.105 . S
Sc154 O173 2.105 . S
Sc155 O157 2.025 . S
Sc155 O165 2.105 . S
Sc155 O169 2.105 . S
Sc155 O171 2.105 . S
Sc155 O175 2.105 . S
Sc156 O157 2.025 . S
Sc156 O166 2.105 . S
Sc156 O168 2.105 . S
Sc156 O172 2.105 . S
Sc156 O174 2.105 . S
O157 Sc154 2.025 . S
O157 Sc155 2.025 . S
O157 Sc156 2.025 . S
C158 O164 1.268 . S
C158 O174 1.268 . S
C159 O165 1.268 . S
C159 O173 1.268 . S
C160 O166 1.268 . S
C160 O175 1.268 . S
C161 O167 1.268 . S
C161 O171 1.268 . S
C162 O168 1.268 . S
C162 O170 1.268 . S
C163 O169 1.268 . S
C163 O172 1.268 . S
O164 Sc154 2.105 . S
O164 C158 1.268 . S
O165 Sc155 2.105 . S
O165 C159 1.268 . S
O166 Sc156 2.105 . S
O166 C160 1.268 . S
O167 Sc154 2.105 . S
O167 C161 1.268 . S
O168 Sc156 2.105 . S
O168 C162 1.268 . S
O169 Sc155 2.105 . S
O169 C163 1.268 . S
O170 Sc154 2.105 . S
O170 C162 1.268 . S
O171 Sc155 2.105 . S
O171 C161 1.268 . S
O172 Sc156 2.105 . S
O172 C163 1.268 . S
O173 Sc154 2.105 . S
O173 C159 1.268 . S
O174 Sc156 2.105 . S
O174 C158 1.268 . S
O175 Sc155 2.105 . S
O175 C160 1.268 . S
Sc176 O179 2.025 . S
Sc176 O186 2.105 . S
Sc176 O189 2.105 . S
Sc176 O192 2.105 . S
Sc176 O195 2.105 . S
Sc177 O179 2.025 . S
Sc177 O187 2.105 . S
Sc177 O191 2.105 . S
Sc177 O193 2.105 . S
Sc177 O197 2.105 . S
Sc178 O179 2.025 . S
Sc178 O188 2.105 . S
Sc178 O190 2.105 . S
Sc178 O194 2.105 . S
Sc178 O196 2.105 . S
O179 Sc176 2.025 . S
O179 Sc177 2.025 . S
O179 Sc178 2.025 . S
C180 O186 1.268 . S
C180 O196 1.268 . S
C181 O187 1.268 . S
C181 O195 1.268 . S
C182 O188 1.268 . S
C182 O197 1.268 . S
C183 O189 1.268 . S
C183 O193 1.268 . S
C184 O190 1.268 . S
C184 O192 1.268 . S
C185 O191 1.268 . S
C185 O194 1.268 . S
O186 Sc176 2.105 . S
O186 C180 1.268 . S
O187 Sc177 2.105 . S
O187 C181 1.268 . S
O188 Sc178 2.105 . S
O188 C182 1.268 . S
O189 Sc176 2.105 . S
O189 C183 1.268 . S
O190 Sc178 2.105 . S
O190 C184 1.268 . S
O191 Sc177 2.105 . S
O191 C185 1.268 . S
O192 Sc176 2.105 . S
O192 C184 1.268 . S
O193 Sc177 2.105 . S
O193 C183 1.268 . S
O194 Sc178 2.105 . S
O194 C185 1.268 . S
O195 Sc176 2.105 . S
O195 C181 1.268 . S
O196 Sc178 2.105 . S
O196 C180 1.268 . S
O197 Sc177 2.105 . S
O197 C182 1.268 . S
Sc198 O201 2.025 . S
Sc198 O208 2.105 . S
Sc198 O211 2.105 . S
Sc198 O214 2.105 . S
Sc198 O217 2.105 . S
Sc199 O201 2.025 . S
Sc199 O209 2.105 . S
Sc199 O213 2.105 . S
Sc199 O215 2.105 . S
Sc199 O219 2.105 . S
Sc200 O201 2.025 . S
Sc200 O210 2.105 . S
Sc200 O212 2.105 . S
Sc200 O216 2.105 . S
Sc200 O218 2.105 . S
O201 Sc198 2.025 . S
O201 Sc199 2.025 . S
O201 Sc200 2.025 . S
C202 O208 1.268 . S
C202 O218 1.268 . S
C203 O209 1.268 . S
C203 O217 1.268 . S
C204 O210 1.268 . S
C204 O219 1.268 . S
C205 O211 1.268 . S
C205 O215 1.268 . S
C206 O212 1.268 . S
C206 O214 1.268 . S
C207 O213 1.268 . S
C207 O216 1.268 . S
O208 Sc198 2.105 . S
O208 C202 1.268 . S
O209 Sc199 2.105 . S
O209 C203 1.268 . S
O210 Sc200 2.105 . S
O210 C204 1.268 . S
O211 Sc198 2.105 . S
O211 C205 1.268 . S
O212 Sc200 2.105 . S
O212 C206 1.268 . S
O213 Sc199 2.105 . S
O213 C207 1.268 . S
O214 Sc198 2.105 . S
O214 C206 1.268 . S
O215 Sc199 2.105 . S
O215 C205 1.268 . S
O216 Sc200 2.105 . S
O216 C207 1.268 . S
O217 Sc198 2.105 . S
O217 C203 1.268 . S
O218 Sc200 2.105 . S
O218 C202 1.268 . S
O219 Sc199 2.105 . S
O219 C204 1.268 . S
Sc220 O223 2.025 . S
Sc220 O230 2.105 . S
Sc220 O233 2.105 . S
Sc220 O236 2.105 . S
Sc220 O239 2.105 . S
Sc221 O223 2.025 . S
Sc221 O231 2.105 . S
Sc221 O235 2.105 . S
Sc221 O237 2.105 . S
Sc221 O241 2.105 . S
Sc222 O223 2.025 . S
Sc222 O232 2.105 . S
Sc222 O234 2.105 . S
Sc222 O238 2.105 . S
Sc222 O240 2.105 . S
O223 Sc220 2.025 . S
O223 Sc221 2.025 . S
O223 Sc222 2.025 . S
C224 O230 1.268 . S
C224 O240 1.268 . S
C225 O231 1.268 . S
C225 O239 1.268 . S
C226 O232 1.268 . S
C226 O241 1.268 . S
C227 O233 1.268 . S
C227 O237 1.268 . S
C228 O234 1.268 . S
C228 O236 1.268 . S
C229 O235 1.268 . S
C229 O238 1.268 . S
O230 Sc220 2.105 . S
O230 C224 1.268 . S
O231 Sc221 2.105 . S
O231 C225 1.268 . S
O232 Sc222 2.105 . S
O232 C226 1.268 . S
O233 Sc220 2.105 . S
O233 C227 1.268 . S
O234 Sc222 2.105 . S
O234 C228 1.268 . S
O235 Sc221 2.105 . S
O235 C229 1.268 . S
O236 Sc220 2.105 . S
O236 C228 1.268 . S
O237 Sc221 2.105 . S
O237 C227 1.268 . S
O238 Sc222 2.105 . S
O238 C229 1.268 . S
O239 Sc220 2.105 . S
O239 C225 1.268 . S
O240 Sc222 2.105 . S
O240 C224 1.268 . S
O241 Sc221 2.105 . S
O241 C226 1.268 . S
Sc242 O245 2.025 . S
Sc242 O252 2.105 . S
Sc242 O255 2.105 . S
Sc242 O258 2.105 . S
Sc242 O261 2.105 . S
Sc243 O245 2.025 . S
Sc243 O253 2.105 . S
Sc243 O257 2.105 . S
Sc243 O259 2.105 . S
Sc243 O263 2.105 . S
Sc244 O245 2.025 . S
Sc244 O254 2.105 . S
Sc244 O256 2.105 . S
Sc244 O260 2.105 . S
Sc244 O262 2.105 . S
O245 Sc242 2.025 . S
O245 Sc243 2.025 . S
O245 Sc244 2.025 . S
C246 O252 1.268 . S
C246 O262 1.268 . S
C247 O253 1.268 . S
C247 O261 1.268 . S
C248 O254 1.268 . S
C248 O263 1.268 . S
C249 O255 1.268 . S
C249 O259 1.268 . S
C250 O256 1.268 . S
C250 O258 1.268 . S
C251 O257 1.268 . S
C251 O260 1.268 . S
O252 Sc242 2.105 . S
O252 C246 1.268 . S
O253 Sc243 2.105 . S
O253 C247 1.268 . S
O254 Sc244 2.105 . S
O254 C248 1.268 . S
O255 Sc242 2.105 . S
O255 C249 1.268 . S
O256 Sc244 2.105 . S
O256 C250 1.268 . S
O257 Sc243 2.105 . S
O257 C251 1.268 . S
O258 Sc242 2.105 . S
O258 C250 1.268 . S
O259 Sc243 2.105 . S
O259 C249 1.268 . S
O260 Sc244 2.105 . S
O260 C251 1.268 . S
O261 Sc242 2.105 . S
O261 C247 1.268 . S
O262 Sc244 2.105 . S
O262 C246 1.268 . S
O263 Sc243 2.105 . S
O263 C248 1.268 . S
Sc264 O267 2.025 . S
Sc264 O274 2.105 . S
Sc264 O277 2.105 . S
Sc264 O280 2.105 . S
Sc264 O283 2.105 . S
Sc265 O267 2.025 . S
Sc265 O275 2.105 . S
Sc265 O279 2.105 . S
Sc265 O281 2.105 . S
Sc265 O285 2.105 . S
Sc266 O267 2.025 . S
Sc266 O276 2.105 . S
Sc266 O278 2.105 . S
Sc266 O282 2.105 . S
Sc266 O284 2.105 . S
O267 Sc264 2.025 . S
O267 Sc265 2.025 . S
O267 Sc266 2.025 . S
C268 O274 1.268 . S
C268 O284 1.268 . S
C269 O275 1.268 . S
C269 O283 1.268 . S
C270 O276 1.268 . S
C270 O285 1.268 . S
C271 O277 1.268 . S
C271 O281 1.268 . S
C272 O278 1.268 . S
C272 O280 1.268 . S
C273 O279 1.268 . S
C273 O282 1.268 . S
O274 Sc264 2.105 . S
O274 C268 1.268 . S
O275 Sc265 2.105 . S
O275 C269 1.268 . S
O276 Sc266 2.105 . S
O276 C270 1.268 . S
O277 Sc264 2.105 . S
O277 C271 1.268 . S
O278 Sc266 2.105 . S
O278 C272 1.268 . S
O279 Sc265 2.105 . S
O279 C273 1.268 . S
O280 Sc264 2.105 . S
O280 C272 1.268 . S
O281 Sc265 2.105 . S
O281 C271 1.268 . S
O282 Sc266 2.105 . S
O282 C273 1.268 . S
O283 Sc264 2.105 . S
O283 C269 1.268 . S
O284 Sc266 2.105 . S
O284 C268 1.268 . S
O285 Sc265 2.105 . S
O285 C270 1.268 . S
Sc286 O289 2.025 . S
Sc286 O296 2.105 . S
Sc286 O299 2.105 . S
Sc286 O302 2.105 . S
Sc286 O305 2.105 . S
Sc287 O289 2.025 . S
Sc287 O297 2.105 . S
Sc287 O301 2.105 . S
Sc287 O303 2.105 . S
Sc287 O307 2.105 . S
Sc288 O289 2.025 . S
Sc288 O298 2.105 . S
Sc288 O300 2.105 . S
Sc288 O304 2.105 . S
Sc288 O306 2.105 . S
O289 Sc286 2.025 . S
O289 Sc287 2.025 . S
O289 Sc288 2.025 . S
C290 O296 1.268 . S
C290 O306 1.268 . S
C291 O297 1.268 . S
C291 O305 1.268 . S
C292 O298 1.268 . S
C292 O307 1.268 . S
C293 O299 1.268 . S
C293 O303 1.268 . S
C294 O300 1.268 . S
C294 O302 1.268 . S
C295 O301 1.268 . S
C295 O304 1.268 . S
O296 Sc286 2.105 . S
O296 C290 1.268 . S
O297 Sc287 2.105 . S
O297 C291 1.268 . S
O298 Sc288 2.105 . S
O298 C292 1.268 . S
O299 Sc286 2.105 . S
O299 C293 1.268 . S
O300 Sc288 2.105 . S
O300 C294 1.268 . S
O301 Sc287 2.105 . S
O301 C295 1.268 . S
O302 Sc286 2.105 . S
O302 C294 1.268 . S
O303 Sc287 2.105 . S
O303 C293 1.268 . S
O304 Sc288 2.105 . S
O304 C295 1.268 . S
O305 Sc286 2.105 . S
O305 C291 1.268 . S
O306 Sc288 2.105 . S
O306 C290 1.268 . S
O307 Sc287 2.105 . S
O307 C292 1.268 . S
Sc308 O311 2.025 . S
Sc308 O318 2.105 . S
Sc308 O321 2.105 . S
Sc308 O324 2.105 . S
Sc308 O327 2.105 . S
Sc309 O311 2.025 . S
Sc309 O319 2.105 . S
Sc309 O323 2.105 . S
Sc309 O325 2.105 . S
Sc309 O329 2.105 . S
Sc310 O311 2.025 . S
Sc310 O320 2.105 . S
Sc310 O322 2.105 . S
Sc310 O326 2.105 . S
Sc310 O328 2.105 . S
O311 Sc308 2.025 . S
O311 Sc309 2.025 . S
O311 Sc310 2.025 . S
C312 O318 1.268 . S
C312 O328 1.268 . S
C313 O319 1.268 . S
C313 O327 1.268 . S
C314 O320 1.268 . S
C314 O329 1.268 . S
C315 O321 1.268 . S
C315 O325 1.268 . S
C316 O322 1.268 . S
C316 O324 1.268 . S
C317 O323 1.268 . S
C317 O326 1.268 . S
O318 Sc308 2.105 . S
O318 C312 1.268 . S
O319 Sc309 2.105 . S
O319 C313 1.268 . S
O320 Sc310 2.105 . S
O320 C314 1.268 . S
O321 Sc308 2.105 . S
O321 C315 1.268 . S
O322 Sc310 2.105 . S
O322 C316 1.268 . S
O323 Sc309 2.105 . S
O323 C317 1.268 . S
O324 Sc308 2.105 . S
O324 C316 1.268 . S
O325 Sc309 2.105 . S
O325 C315 1.268 . S
O326 Sc310 2.105 . S
O326 C317 1.268 . S
O327 Sc308 2.105 . S
O327 C313 1.268 . S
O328 Sc310 2.105 . S
O328 C312 1.268 . S
O329 Sc309 2.105 . S
O329 C314 1.268 . S
Sc330 O333 2.025 . S
Sc330 O340 2.105 . S
Sc330 O343 2.105 . S
Sc330 O346 2.105 . S
Sc330 O349 2.105 . S
Sc331 O333 2.025 . S
Sc331 O341 2.105 . S
Sc331 O345 2.105 . S
Sc331 O347 2.105 . S
Sc331 O351 2.105 . S
Sc332 O333 2.025 . S
Sc332 O342 2.105 . S
Sc332 O344 2.105 . S
Sc332 O348 2.105 . S
Sc332 O350 2.105 . S
O333 Sc330 2.025 . S
O333 Sc331 2.025 . S
O333 Sc332 2.025 . S
C334 O340 1.268 . S
C334 O350 1.268 . S
C335 O341 1.268 . S
C335 O349 1.268 . S
C336 O342 1.268 . S
C336 O351 1.268 . S
C337 O343 1.268 . S
C337 O347 1.268 . S
C338 O344 1.268 . S
C338 O346 1.268 . S
C339 O345 1.268 . S
C339 O348 1.268 . S
O340 Sc330 2.105 . S
O340 C334 1.268 . S
O341 Sc331 2.105 . S
O341 C335 1.268 . S
O342 Sc332 2.105 . S
O342 C336 1.268 . S
O343 Sc330 2.105 . S
O343 C337 1.268 . S
O344 Sc332 2.105 . S
O344 C338 1.268 . S
O345 Sc331 2.105 . S
O345 C339 1.268 . S
O346 Sc330 2.105 . S
O346 C338 1.268 . S
O347 Sc331 2.105 . S
O347 C337 1.268 . S
O348 Sc332 2.105 . S
O348 C339 1.268 . S
O349 Sc330 2.105 . S
O349 C335 1.268 . S
O350 Sc332 2.105 . S
O350 C334 1.268 . S
O351 Sc331 2.105 . S
O351 C336 1.268 . S
Sc352 O355 2.025 . S
Sc352 O362 2.105 . S
Sc352 O365 2.105 . S
Sc352 O368 2.105 . S
Sc352 O371 2.105 . S
Sc353 O355 2.025 . S
Sc353 O363 2.105 . S
Sc353 O367 2.105 . S
Sc353 O369 2.105 . S
Sc353 O373 2.105 . S
Sc354 O355 2.025 . S
Sc354 O364 2.105 . S
Sc354 O366 2.105 . S
Sc354 O370 2.105 . S
Sc354 O372 2.105 . S
O355 Sc352 2.025 . S
O355 Sc353 2.025 . S
O355 Sc354 2.025 . S
C356 O362 1.268 . S
C356 O372 1.268 . S
C357 O363 1.268 . S
C357 O371 1.268 . S
C358 O364 1.268 . S
C358 O373 1.268 . S
C359 O365 1.268 . S
C359 O369 1.268 . S
C360 O366 1.268 . S
C360 O368 1.268 . S
C361 O367 1.268 . S
C361 O370 1.268 . S
O362 Sc352 2.105 . S
O362 C356 1.268 . S
O363 Sc353 2.105 . S
O363 C357 1.268 . S
O364 Sc354 2.105 . S
O364 C358 1.268 . S
O365 Sc352 2.105 . S
O365 C359 1.268 . S
O366 Sc354 2.105 . S
O366 C360 1.268 . S
O367 Sc353 2.105 . S
O367 C361 1.268 . S
O368 Sc352 2.105 . S
O368 C360 1.268 . S
O369 Sc353 2.105 . S
O369 C359 1.268 . S
O370 Sc354 2.105 . S
O370 C361 1.268 . S
O371 Sc352 2.105 . S
O371 C357 1.268 . S
O372 Sc354 2.105 . S
O372 C356 1.268 . S
O373 Sc353 2.105 . S
O373 C358 1.268 . S
Sc374 O377 2.025 . S
Sc374 O384 2.105 . S
Sc374 O387 2.105 . S
Sc374 O390 2.105 . S
Sc374 O393 2.105 . S
Sc375 O377 2.025 . S
Sc375 O385 2.105 . S
Sc375 O389 2.105 . S
Sc375 O391 2.105 . S
Sc375 O395 2.105 . S
Sc376 O377 2.025 . S
Sc376 O386 2.105 . S
Sc376 O388 2.105 . S
Sc376 O392 2.105 . S
Sc376 O394 2.105 . S
O377 Sc374 2.025 . S
O377 Sc375 2.025 . S
O377 Sc376 2.025 . S
C378 O384 1.268 . S
C378 O394 1.268 . S
C379 O385 1.268 . S
C379 O393 1.268 . S
C380 O386 1.268 . S
C380 O395 1.268 . S
C381 O387 1.268 . S
C381 O391 1.268 . S
C382 O388 1.268 . S
C382 O390 1.268 . S
C383 O389 1.268 . S
C383 O392 1.268 . S
O384 Sc374 2.105 . S
O384 C378 1.268 . S
O385 Sc375 2.105 . S
O385 C379 1.268 . S
O386 Sc376 2.105 . S
O386 C380 1.268 . S
O387 Sc374 2.105 . S
O387 C381 1.268 . S
O388 Sc376 2.105 . S
O388 C382 1.268 . S
O389 Sc375 2.105 . S
O389 C383 1.268 . S
O390 Sc374 2.105 . S
O390 C382 1.268 . S
O391 Sc375 2.105 . S
O391 C381 1.268 . S
O392 Sc376 2.105 . S
O392 C383 1.268 . S
O393 Sc374 2.105 . S
O393 C379 1.268 . S
O394 Sc376 2.105 . S
O394 C378 1.268 . S
O395 Sc375 2.105 . S
O395 C380 1.268 . S
H396 C402 0.930 . S
H397 C406 0.930 . S
H398 C411 0.929 . S
H399 C409 0.929 . S
H400 C404 0.929 . S
H401 C410 0.929 . S
C402 H396 0.930 . S
C402 C403 1.367 . S
C402 C410 1.378 . S
C403 C402 1.367 . S
C403 C411 1.433 . S
C404 H400 0.929 . S
C404 C406 1.378 . S
C404 C408 1.350 . S
C405 C408 1.463 . S
C405 C410 1.350 . S
C405 N413 1.427 . S
C406 H397 0.930 . S
C406 C404 1.378 . S
C406 C407 1.367 . S
C407 C406 1.367 . S
C407 C409 1.433 . S
C408 C404 1.350 . S
C408 C405 1.463 . S
C408 N412 1.427 . S
C409 H399 0.929 . S
C409 C407 1.433 . S
C409 N412 1.384 . S
C410 H401 0.929 . S
C410 C402 1.378 . S
C410 C405 1.350 . S
C411 H398 0.929 . S
C411 C403 1.433 . S
C411 N413 1.384 . S
N412 C408 1.427 . S
N412 C409 1.384 . S
N413 C405 1.427 . S
N413 C411 1.384 . S
H414 C420 0.930 . S
H415 C424 0.930 . S
H416 C429 0.929 . S
H417 C427 0.929 . S
H418 C422 0.929 . S
H419 C428 0.929 . S
C420 H414 0.930 . S
C420 C421 1.367 . S
C420 C428 1.378 . S
C421 C420 1.367 . S
C421 C429 1.433 . S
C422 H418 0.929 . S
C422 C424 1.378 . S
C422 C426 1.350 . S
C423 C426 1.463 . S
C423 C428 1.350 . S
C423 N431 1.427 . S
C424 H415 0.930 . S
C424 C422 1.378 . S
C424 C425 1.367 . S
C425 C424 1.367 . S
C425 C427 1.433 . S
C426 C422 1.350 . S
C426 C423 1.463 . S
C426 N430 1.427 . S
C427 H417 0.929 . S
C427 C425 1.433 . S
C427 N430 1.384 . S
C428 H419 0.929 . S
C428 C420 1.378 . S
C428 C423 1.350 . S
C429 H416 0.929 . S
C429 C421 1.433 . S
C429 N431 1.384 . S
N430 C426 1.427 . S
N430 C427 1.384 . S
N431 C423 1.427 . S
N431 C429 1.384 . S
H432 C438 0.930 . S
H433 C442 0.930 . S
H434 C447 0.929 . S
H435 C445 0.929 . S
H436 C440 0.929 . S
H437 C446 0.929 . S
C438 H432 0.930 . S
C438 C439 1.367 . S
C438 C446 1.378 . S
C439 C438 1.367 . S
C439 C447 1.433 . S
C440 H436 0.929 . S
C440 C442 1.378 . S
C440 C444 1.350 . S
C441 C444 1.463 . S
C441 C446 1.350 . S
C441 N449 1.427 . S
C442 H433 0.930 . S
C442 C440 1.378 . S
C442 C443 1.367 . S
C443 C442 1.367 . S
C443 C445 1.433 . S
C444 C440 1.350 . S
C444 C441 1.463 . S
C444 N448 1.427 . S
C445 H435 0.929 . S
C445 C443 1.433 . S
C445 N448 1.384 . S
C446 H437 0.929 . S
C446 C438 1.378 . S
C446 C441 1.350 . S
C447 H434 0.929 . S
C447 C439 1.433 . S
C447 N449 1.384 . S
N448 C444 1.427 . S
N448 C445 1.384 . S
N449 C441 1.427 . S
N449 C447 1.384 . S
H450 C456 0.930 . S
H451 C460 0.930 . S
H452 C465 0.929 . S
H453 C463 0.929 . S
H454 C458 0.929 . S
H455 C464 0.929 . S
C456 H450 0.930 . S
C456 C457 1.367 . S
C456 C464 1.378 . S
C457 C456 1.367 . S
C457 C465 1.433 . S
C458 H454 0.929 . S
C458 C460 1.378 . S
C458 C462 1.350 . S
C459 C462 1.463 . S
C459 C464 1.350 . S
C459 N467 1.427 . S
C460 H451 0.930 . S
C460 C458 1.378 . S
C460 C461 1.367 . S
C461 C460 1.367 . S
C461 C463 1.433 . S
C462 C458 1.350 . S
C462 C459 1.463 . S
C462 N466 1.427 . S
C463 H453 0.929 . S
C463 C461 1.433 . S
C463 N466 1.384 . S
C464 H455 0.929 . S
C464 C456 1.378 . S
C464 C459 1.350 . S
C465 H452 0.929 . S
C465 C457 1.433 . S
C465 N467 1.384 . S
N466 C462 1.427 . S
N466 C463 1.384 . S
N467 C459 1.427 . S
N467 C465 1.384 . S
H468 C474 0.930 . S
H469 C478 0.930 . S
H470 C483 0.929 . S
H471 C481 0.929 . S
H472 C476 0.929 . S
H473 C482 0.929 . S
C474 H468 0.930 . S
C474 C475 1.367 . S
C474 C482 1.378 . S
C475 C474 1.367 . S
C475 C483 1.433 . S
C476 H472 0.929 . S
C476 C478 1.378 . S
C476 C480 1.350 . S
C477 C480 1.463 . S
C477 C482 1.350 . S
C477 N485 1.427 . S
C478 H469 0.930 . S
C478 C476 1.378 . S
C478 C479 1.367 . S
C479 C478 1.367 . S
C479 C481 1.433 . S
C480 C476 1.350 . S
C480 C477 1.463 . S
C480 N484 1.427 . S
C481 H471 0.929 . S
C481 C479 1.433 . S
C481 N484 1.384 . S
C482 H473 0.929 . S
C482 C474 1.378 . S
C482 C477 1.350 . S
C483 H470 0.929 . S
C483 C475 1.433 . S
C483 N485 1.384 . S
N484 C480 1.427 . S
N484 C481 1.384 . S
N485 C477 1.427 . S
N485 C483 1.384 . S
H486 C492 0.930 . S
H487 C496 0.930 . S
H488 C501 0.929 . S
H489 C499 0.929 . S
H490 C494 0.929 . S
H491 C500 0.929 . S
C492 H486 0.930 . S
C492 C493 1.367 . S
C492 C500 1.378 . S
C493 C492 1.367 . S
C493 C501 1.433 . S
C494 H490 0.929 . S
C494 C496 1.378 . S
C494 C498 1.350 . S
C495 C498 1.463 . S
C495 C500 1.350 . S
C495 N503 1.427 . S
C496 H487 0.930 . S
C496 C494 1.378 . S
C496 C497 1.367 . S
C497 C496 1.367 . S
C497 C499 1.433 . S
C498 C494 1.350 . S
C498 C495 1.463 . S
C498 N502 1.427 . S
C499 H489 0.929 . S
C499 C497 1.433 . S
C499 N502 1.384 . S
C500 H491 0.929 . S
C500 C492 1.378 . S
C500 C495 1.350 . S
C501 H488 0.929 . S
C501 C493 1.433 . S
C501 N503 1.384 . S
N502 C498 1.427 . S
N502 C499 1.384 . S
N503 C495 1.427 . S
N503 C501 1.384 . S
H504 C510 0.930 . S
H505 C514 0.930 . S
H506 C519 0.929 . S
H507 C517 0.929 . S
H508 C512 0.929 . S
H509 C518 0.929 . S
C510 H504 0.930 . S
C510 C511 1.367 1_565 S
C510 C518 1.378 . S
C511 C510 1.367 1_545 S
C511 C519 1.433 . S
C512 H508 0.929 . S
C512 C514 1.378 . S
C512 C516 1.350 . S
C513 C516 1.463 . S
C513 C518 1.350 . S
C513 N521 1.427 . S
C514 H505 0.930 . S
C514 C512 1.378 . S
C514 C515 1.367 . S
C515 C514 1.367 . S
C515 C517 1.433 . S
C516 C512 1.350 . S
C516 C513 1.463 . S
C516 N520 1.427 . S
C517 H507 0.929 . S
C517 C515 1.433 . S
C517 N520 1.384 . S
C518 H509 0.929 . S
C518 C510 1.378 . S
C518 C513 1.350 . S
C519 H506 0.929 . S
C519 C511 1.433 . S
C519 N521 1.384 1_545 S
N520 C516 1.427 . S
N520 C517 1.384 . S
N521 C513 1.427 . S
N521 C519 1.384 1_565 S
H522 C528 0.930 . S
H523 C532 0.930 . S
H524 C537 0.929 . S
H525 C535 0.929 . S
H526 C530 0.929 . S
H527 C536 0.929 . S
C528 H522 0.930 . S
C528 C529 1.367 . S
C528 C536 1.378 1_655 S
C529 C528 1.367 . S
C529 C537 1.433 1_655 S
C530 H526 0.929 . S
C530 C532 1.378 . S
C530 C534 1.350 . S
C531 C534 1.463 . S
C531 C536 1.350 . S
C531 N539 1.427 . S
C532 H523 0.930 . S
C532 C530 1.378 . S
C532 C533 1.367 1_565 S
C533 C532 1.367 1_545 S
C533 C535 1.433 . S
C534 C530 1.350 . S
C534 C531 1.463 . S
C534 N538 1.427 . S
C535 H525 0.929 . S
C535 C533 1.433 . S
C535 N538 1.384 1_545 S
C536 H527 0.929 . S
C536 C528 1.378 1_455 S
C536 C531 1.350 . S
C537 H524 0.929 . S
C537 C529 1.433 1_455 S
C537 N539 1.384 . S
N538 C534 1.427 . S
N538 C535 1.384 1_565 S
N539 C531 1.427 . S
N539 C537 1.384 . S
H540 C546 0.930 . S
H541 C550 0.930 . S
H542 C555 0.929 . S
H543 C553 0.929 . S
H544 C548 0.929 . S
H545 C554 0.929 . S
C546 H540 0.930 . S
C546 C547 1.367 . S
C546 C554 1.378 . S
C547 C546 1.367 . S
C547 C555 1.433 . S
C548 H544 0.929 . S
C548 C550 1.378 1_455 S
C548 C552 1.350 . S
C549 C552 1.463 . S
C549 C554 1.350 . S
C549 N557 1.427 . S
C550 H541 0.930 . S
C550 C548 1.378 1_655 S
C550 C551 1.367 . S
C551 C550 1.367 . S
C551 C553 1.433 1_655 S
C552 C548 1.350 . S
C552 C549 1.463 . S
C552 N556 1.427 . S
C553 H543 0.929 . S
C553 C551 1.433 1_455 S
C553 N556 1.384 . S
C554 H545 0.929 . S
C554 C546 1.378 . S
C554 C549 1.350 . S
C555 H542 0.929 . S
C555 C547 1.433 . S
C555 N557 1.384 . S
N556 C552 1.427 . S
N556 C553 1.384 . S
N557 C549 1.427 . S
N557 C555 1.384 . S
H558 C564 0.930 . S
H559 C568 0.930 . S
H560 C573 0.929 . S
H561 C571 0.929 . S
H562 C566 0.929 . S
H563 C572 0.929 . S
C564 H558 0.930 . S
C564 C565 1.367 . S
C564 C572 1.378 . S
C565 C564 1.367 . S
C565 C573 1.433 . S
C566 H562 0.929 . S
C566 C568 1.378 . S
C566 C570 1.350 . S
C567 C570 1.463 . S
C567 C572 1.350 . S
C567 N575 1.427 . S
C568 H559 0.930 . S
C568 C566 1.378 . S
C568 C569 1.367 . S
C569 C568 1.367 . S
C569 C571 1.433 . S
C570 C566 1.350 . S
C570 C567 1.463 . S
C570 N574 1.427 . S
C571 H561 0.929 . S
C571 C569 1.433 . S
C571 N574 1.384 . S
C572 H563 0.929 . S
C572 C564 1.378 . S
C572 C567 1.350 . S
C573 H560 0.929 . S
C573 C565 1.433 . S
C573 N575 1.384 . S
N574 C570 1.427 . S
N574 C571 1.384 . S
N575 C567 1.427 . S
N575 C573 1.384 . S
H576 C582 0.930 . S
H577 C586 0.930 . S
H578 C591 0.929 . S
H579 C589 0.929 . S
H580 C584 0.929 . S
H581 C590 0.929 . S
C582 H576 0.930 . S
C582 C583 1.367 . S
C582 C590 1.378 . S
C583 C582 1.367 . S
C583 C591 1.433 . S
C584 H580 0.929 . S
C584 C586 1.378 . S
C584 C588 1.350 . S
C585 C588 1.463 . S
C585 C590 1.350 . S
C585 N593 1.427 . S
C586 H577 0.930 . S
C586 C584 1.378 . S
C586 C587 1.367 . S
C587 C586 1.367 . S
C587 C589 1.433 . S
C588 C584 1.350 . S
C588 C585 1.463 . S
C588 N592 1.427 . S
C589 H579 0.929 . S
C589 C587 1.433 . S
C589 N592 1.384 . S
C590 H581 0.929 . S
C590 C582 1.378 . S
C590 C585 1.350 . S
C591 H578 0.929 . S
C591 C583 1.433 . S
C591 N593 1.384 . S
N592 C588 1.427 . S
N592 C589 1.384 . S
N593 C585 1.427 . S
N593 C591 1.384 . S
H594 C600 0.930 . S
H595 C604 0.930 . S
H596 C609 0.929 . S
H597 C607 0.929 . S
H598 C602 0.929 . S
H599 C608 0.929 . S
C600 H594 0.930 . S
C600 C601 1.367 . S
C600 C608 1.378 . S
C601 C600 1.367 . S
C601 C609 1.433 . S
C602 H598 0.929 . S
C602 C604 1.378 . S
C602 C606 1.350 . S
C603 C606 1.463 . S
C603 C608 1.350 . S
C603 N611 1.427 . S
C604 H595 0.930 . S
C604 C602 1.378 . S
C604 C605 1.367 . S
C605 C604 1.367 . S
C605 C607 1.433 . S
C606 C602 1.350 . S
C606 C603 1.463 . S
C606 N610 1.427 . S
C607 H597 0.929 . S
C607 C605 1.433 . S
C607 N610 1.384 . S
C608 H599 0.929 . S
C608 C600 1.378 . S
C608 C603 1.350 . S
C609 H596 0.929 . S
C609 C601 1.433 . S
C609 N611 1.384 . S
N610 C606 1.427 . S
N610 C607 1.384 . S
N611 C603 1.427 . S
N611 C609 1.384 . S
H612 C618 0.930 . S
H613 C622 0.930 . S
H614 C627 0.929 . S
H615 C625 0.929 . S
H616 C620 0.929 . S
H617 C626 0.929 . S
C618 H612 0.930 . S
C618 C619 1.367 . S
C618 C626 1.378 . S
C619 C618 1.367 . S
C619 C627 1.433 . S
C620 H616 0.929 . S
C620 C622 1.378 . S
C620 C624 1.350 . S
C621 C624 1.463 . S
C621 C626 1.350 . S
C621 N629 1.427 . S
C622 H613 0.930 . S
C622 C620 1.378 . S
C622 C623 1.367 . S
C623 C622 1.367 . S
C623 C625 1.433 . S
C624 C620 1.350 . S
C624 C621 1.463 . S
C624 N628 1.427 . S
C625 H615 0.929 . S
C625 C623 1.433 . S
C625 N628 1.384 . S
C626 H617 0.929 . S
C626 C618 1.378 . S
C626 C621 1.350 . S
C627 H614 0.929 . S
C627 C619 1.433 . S
C627 N629 1.384 . S
N628 C624 1.427 . S
N628 C625 1.384 . S
N629 C621 1.427 . S
N629 C627 1.384 . S
H630 C636 0.930 . S
H631 C640 0.930 . S
H632 C645 0.929 . S
H633 C643 0.929 . S
H634 C638 0.929 . S
H635 C644 0.929 . S
C636 H630 0.930 . S
C636 C637 1.367 . S
C636 C644 1.378 . S
C637 C636 1.367 . S
C637 C645 1.433 . S
C638 H634 0.929 . S
C638 C640 1.378 . S
C638 C642 1.350 . S
C639 C642 1.463 . S
C639 C644 1.350 . S
C639 N647 1.427 . S
C640 H631 0.930 . S
C640 C638 1.378 . S
C640 C641 1.367 . S
C641 C640 1.367 . S
C641 C643 1.433 . S
C642 C638 1.350 . S
C642 C639 1.463 . S
C642 N646 1.427 . S
C643 H633 0.929 . S
C643 C641 1.433 . S
C643 N646 1.384 . S
C644 H635 0.929 . S
C644 C636 1.378 . S
C644 C639 1.350 . S
C645 H632 0.929 . S
C645 C637 1.433 . S
C645 N647 1.384 . S
N646 C642 1.427 . S
N646 C643 1.384 . S
N647 C639 1.427 . S
N647 C645 1.384 . S
H648 C654 0.930 . S
H649 C658 0.930 . S
H650 C663 0.929 . S
H651 C661 0.929 . S
H652 C656 0.929 . S
H653 C662 0.929 . S
C654 H648 0.930 . S
C654 C655 1.367 . S
C654 C662 1.378 . S
C655 C654 1.367 . S
C655 C663 1.433 . S
C656 H652 0.929 . S
C656 C658 1.378 . S
C656 C660 1.350 . S
C657 C660 1.463 . S
C657 C662 1.350 . S
C657 N665 1.427 . S
C658 H649 0.930 . S
C658 C656 1.378 . S
C658 C659 1.367 . S
C659 C658 1.367 . S
C659 C661 1.433 . S
C660 C656 1.350 . S
C660 C657 1.463 . S
C660 N664 1.427 . S
C661 H651 0.929 . S
C661 C659 1.433 . S
C661 N664 1.384 . S
C662 H653 0.929 . S
C662 C654 1.378 . S
C662 C657 1.350 . S
C663 H650 0.929 . S
C663 C655 1.433 . S
C663 N665 1.384 . S
N664 C660 1.427 . S
N664 C661 1.384 . S
N665 C657 1.427 . S
N665 C663 1.384 . S
H666 C672 0.930 . S
H667 C676 0.930 . S
H668 C681 0.929 . S
H669 C679 0.929 . S
H670 C674 0.929 . S
H671 C680 0.929 . S
C672 H666 0.930 . S
C672 C673 1.367 . S
C672 C680 1.378 1_455 S
C673 C672 1.367 . S
C673 C681 1.433 1_455 S
C674 H670 0.929 . S
C674 C676 1.378 . S
C674 C678 1.350 . S
C675 C678 1.463 . S
C675 C680 1.350 . S
C675 N683 1.427 . S
C676 H667 0.930 . S
C676 C674 1.378 . S
C676 C677 1.367 . S
C677 C676 1.367 . S
C677 C679 1.433 . S
C678 C674 1.350 . S
C678 C675 1.463 . S
C678 N682 1.427 . S
C679 H669 0.929 . S
C679 C677 1.433 . S
C679 N682 1.384 . S
C680 H671 0.929 . S
C680 C672 1.378 1_655 S
C680 C675 1.350 . S
C681 H668 0.929 . S
C681 C673 1.433 1_655 S
C681 N683 1.384 . S
N682 C678 1.427 . S
N682 C679 1.384 . S
N683 C675 1.427 . S
N683 C681 1.384 . S
H684 C690 0.930 . S
H685 C694 0.930 . S
H686 C699 0.929 . S
H687 C697 0.929 1_565 S
H688 C692 0.929 . S
H689 C698 0.929 . S
C690 H684 0.930 . S
C690 C691 1.367 . S
C690 C698 1.378 . S
C691 C690 1.367 . S
C691 C699 1.433 . S
C692 H688 0.929 . S
C692 C694 1.378 . S
C692 C696 1.350 . S
C693 C696 1.463 . S
C693 C698 1.350 . S
C693 N701 1.427 . S
C694 H685 0.930 . S
C694 C692 1.378 . S
C694 C695 1.367 1_545 S
C695 C694 1.367 1_565 S
C695 C697 1.433 1_565 S
C696 C692 1.350 . S
C696 C693 1.463 . S
C696 N700 1.427 . S
C697 H687 0.929 1_545 S
C697 C695 1.433 1_545 S
C697 N700 1.384 . S
C698 H689 0.929 . S
C698 C690 1.378 . S
C698 C693 1.350 . S
C699 H686 0.929 . S
C699 C691 1.433 . S
C699 N701 1.384 . S
N700 C696 1.427 . S
N700 C697 1.384 . S
N701 C693 1.427 . S
N701 C699 1.384 . S
H702 C708 0.930 . S
H703 C712 0.930 . S
H704 C717 0.929 . S
H705 C715 0.929 . S
H706 C710 0.929 . S
H707 C716 0.929 . S
C708 H702 0.930 . S
C708 C709 1.367 . S
C708 C716 1.378 1_455 S
C709 C708 1.367 . S
C709 C717 1.433 1_455 S
C710 H706 0.929 . S
C710 C712 1.378 . S
C710 C714 1.350 . S
C711 C714 1.463 . S
C711 C716 1.350 . S
C711 N719 1.427 . S
C712 H703 0.930 . S
C712 C710 1.378 . S
C712 C713 1.367 1_545 S
C713 C712 1.367 1_565 S
C713 C715 1.433 . S
C714 C710 1.350 . S
C714 C711 1.463 . S
C714 N718 1.427 . S
C715 H705 0.929 . S
C715 C713 1.433 . S
C715 N718 1.384 1_565 S
C716 H707 0.929 . S
C716 C708 1.378 1_655 S
C716 C711 1.350 . S
C717 H704 0.929 . S
C717 C709 1.433 1_655 S
C717 N719 1.384 . S
N718 C714 1.427 . S
N718 C715 1.384 1_545 S
N719 C711 1.427 . S
N719 C717 1.384 . S
H720 C726 0.930 . S
H721 C730 0.930 . S
H722 C735 0.929 . S
H723 C733 0.929 . S
H724 C728 0.929 . S
H725 C734 0.929 . S
C726 H720 0.930 . S
C726 C727 1.367 . S
C726 C734 1.378 . S
C727 C726 1.367 . S
C727 C735 1.433 . S
C728 H724 0.929 . S
C728 C730 1.378 . S
C728 C732 1.350 . S
C729 C732 1.463 . S
C729 C734 1.350 . S
C729 N737 1.427 . S
C730 H721 0.930 . S
C730 C728 1.378 . S
C730 C731 1.367 . S
C731 C730 1.367 . S
C731 C733 1.433 . S
C732 C728 1.350 . S
C732 C729 1.463 . S
C732 N736 1.427 . S
C733 H723 0.929 . S
C733 C731 1.433 . S
C733 N736 1.384 . S
C734 H725 0.929 . S
C734 C726 1.378 . S
C734 C729 1.350 . S
C735 H722 0.929 . S
C735 C727 1.433 . S
C735 N737 1.384 . S
N736 C732 1.427 . S
N736 C733 1.384 . S
N737 C729 1.427 . S
N737 C735 1.384 . S
H738 C744 0.930 . S
H739 C748 0.930 . S
H740 C753 0.929 . S
H741 C751 0.929 . S
H742 C746 0.929 . S
H743 C752 0.929 . S
C744 H738 0.930 . S
C744 C745 1.367 . S
C744 C752 1.378 . S
C745 C744 1.367 . S
C745 C753 1.433 . S
C746 H742 0.929 . S
C746 C748 1.378 . S
C746 C750 1.350 . S
C747 C750 1.463 . S
C747 C752 1.350 . S
C747 N755 1.427 . S
C748 H739 0.930 . S
C748 C746 1.378 . S
C748 C749 1.367 . S
C749 C748 1.367 . S
C749 C751 1.433 . S
C750 C746 1.350 . S
C750 C747 1.463 . S
C750 N754 1.427 . S
C751 H741 0.929 . S
C751 C749 1.433 . S
C751 N754 1.384 . S
C752 H743 0.929 . S
C752 C744 1.378 . S
C752 C747 1.350 . S
C753 H740 0.929 . S
C753 C745 1.433 . S
C753 N755 1.384 . S
N754 C750 1.427 . S
N754 C751 1.384 . S
N755 C747 1.427 . S
N755 C753 1.384 . S
H756 C762 0.930 . S
H757 C766 0.930 . S
H758 C771 0.929 . S
H759 C769 0.929 . S
H760 C764 0.929 . S
H761 C770 0.929 . S
C762 H756 0.930 . S
C762 C763 1.367 . S
C762 C770 1.378 . S
C763 C762 1.367 . S
C763 C771 1.433 . S
C764 H760 0.929 . S
C764 C766 1.378 . S
C764 C768 1.350 . S
C765 C768 1.463 . S
C765 C770 1.350 . S
C765 N773 1.427 . S
C766 H757 0.930 . S
C766 C764 1.378 . S
C766 C767 1.367 . S
C767 C766 1.367 . S
C767 C769 1.433 . S
C768 C764 1.350 . S
C768 C765 1.463 . S
C768 N772 1.427 . S
C769 H759 0.929 . S
C769 C767 1.433 . S
C769 N772 1.384 . S
C770 H761 0.929 . S
C770 C762 1.378 . S
C770 C765 1.350 . S
C771 H758 0.929 . S
C771 C763 1.433 . S
C771 N773 1.384 . S
N772 C768 1.427 . S
N772 C769 1.384 . S
N773 C765 1.427 . S
N773 C771 1.384 . S
H774 C780 0.930 . S
H775 C784 0.930 . S
H776 C789 0.929 . S
H777 C787 0.929 . S
H778 C782 0.929 . S
H779 C788 0.929 . S
C780 H774 0.930 . S
C780 C781 1.367 . S
C780 C788 1.378 . S
C781 C780 1.367 . S
C781 C789 1.433 . S
C782 H778 0.929 . S
C782 C784 1.378 . S
C782 C786 1.350 . S
C783 C786 1.463 . S
C783 C788 1.350 . S
C783 N791 1.427 . S
C784 H775 0.930 . S
C784 C782 1.378 . S
C784 C785 1.367 . S
C785 C784 1.367 . S
C785 C787 1.433 . S
C786 C782 1.350 . S
C786 C783 1.463 . S
C786 N790 1.427 . S
C787 H777 0.929 . S
C787 C785 1.433 . S
C787 N790 1.384 . S
C788 H779 0.929 . S
C788 C780 1.378 . S
C788 C783 1.350 . S
C789 H776 0.929 . S
C789 C781 1.433 . S
C789 N791 1.384 . S
N790 C786 1.427 . S
N790 C787 1.384 . S
N791 C783 1.427 . S
N791 C789 1.384 . S
H792 C798 0.930 . S
H793 C802 0.930 . S
H794 C807 0.929 . S
H795 C805 0.929 . S
H796 C800 0.929 . S
H797 C806 0.929 . S
C798 H792 0.930 . S
C798 C799 1.367 . S
C798 C806 1.378 . S
C799 C798 1.367 . S
C799 C807 1.433 . S
C800 H796 0.929 . S
C800 C802 1.378 . S
C800 C804 1.350 . S
C801 C804 1.463 . S
C801 C806 1.350 . S
C801 N809 1.427 . S
C802 H793 0.930 . S
C802 C800 1.378 . S
C802 C803 1.367 . S
C803 C802 1.367 . S
C803 C805 1.433 . S
C804 C800 1.350 . S
C804 C801 1.463 . S
C804 N808 1.427 . S
C805 H795 0.929 . S
C805 C803 1.433 . S
C805 N808 1.384 . S
C806 H797 0.929 . S
C806 C798 1.378 . S
C806 C801 1.350 . S
C807 H794 0.929 . S
C807 C799 1.433 . S
C807 N809 1.384 . S
N808 C804 1.427 . S
N808 C805 1.384 . S
N809 C801 1.427 . S
N809 C807 1.384 . S
H810 C816 0.930 . S
H811 C820 0.930 . S
H812 C825 0.929 . S
H813 C823 0.929 . S
H814 C818 0.929 . S
H815 C824 0.929 . S
C816 H810 0.930 . S
C816 C817 1.367 . S
C816 C824 1.378 . S
C817 C816 1.367 . S
C817 C825 1.433 . S
C818 H814 0.929 . S
C818 C820 1.378 . S
C818 C822 1.350 . S
C819 C822 1.463 . S
C819 C824 1.350 . S
C819 N827 1.427 . S
C820 H811 0.930 . S
C820 C818 1.378 . S
C820 C821 1.367 . S
C821 C820 1.367 . S
C821 C823 1.433 . S
C822 C818 1.350 . S
C822 C819 1.463 . S
C822 N826 1.427 . S
C823 H813 0.929 . S
C823 C821 1.433 . S
C823 N826 1.384 . S
C824 H815 0.929 . S
C824 C816 1.378 . S
C824 C819 1.350 . S
C825 H812 0.929 . S
C825 C817 1.433 . S
C825 N827 1.384 . S
N826 C822 1.427 . S
N826 C823 1.384 . S
N827 C819 1.427 . S
N827 C825 1.384 . S
H828 C834 0.930 . S
H829 C838 0.930 . S
H830 C843 0.929 . S
H831 C841 0.929 . S
H832 C836 0.929 . S
H833 C842 0.929 . S
C834 H828 0.930 . S
C834 C835 1.367 . S
C834 C842 1.378 . S
C835 C834 1.367 . S
C835 C843 1.433 . S
C836 H832 0.929 . S
C836 C838 1.378 . S
C836 C840 1.350 . S
C837 C840 1.463 . S
C837 C842 1.350 . S
C837 N845 1.427 . S
C838 H829 0.930 . S
C838 C836 1.378 . S
C838 C839 1.367 . S
C839 C838 1.367 . S
C839 C841 1.433 . S
C840 C836 1.350 . S
C840 C837 1.463 . S
C840 N844 1.427 . S
C841 H831 0.929 . S
C841 C839 1.433 . S
C841 N844 1.384 . S
C842 H833 0.929 . S
C842 C834 1.378 . S
C842 C837 1.350 . S
C843 H830 0.929 . S
C843 C835 1.433 . S
C843 N845 1.384 . S
N844 C840 1.427 . S
N844 C841 1.384 . S
N845 C837 1.427 . S
N845 C843 1.384 . S
H846 C852 0.930 . S
H847 C856 0.930 . S
H848 C861 0.929 . S
H849 C859 0.929 . S
H850 C854 0.929 . S
H851 C860 0.929 . S
C852 H846 0.930 . S
C852 C853 1.367 . S
C852 C860 1.378 . S
C853 C852 1.367 . S
C853 C861 1.433 . S
C854 H850 0.929 . S
C854 C856 1.378 . S
C854 C858 1.350 . S
C855 C858 1.463 . S
C855 C860 1.350 . S
C855 N863 1.427 . S
C856 H847 0.930 . S
C856 C854 1.378 . S
C856 C857 1.367 . S
C857 C856 1.367 . S
C857 C859 1.433 . S
C858 C854 1.350 . S
C858 C855 1.463 . S
C858 N862 1.427 . S
C859 H849 0.929 . S
C859 C857 1.433 . S
C859 N862 1.384 . S
C860 H851 0.929 . S
C860 C852 1.378 . S
C860 C855 1.350 . S
C861 H848 0.929 . S
C861 C853 1.433 . S
C861 N863 1.384 . S
N862 C858 1.427 . S
N862 C859 1.384 . S
N863 C855 1.427 . S
N863 C861 1.384 . S
H864 C870 0.930 . S
H865 C874 0.930 . S
H866 C879 0.929 . S
H867 C877 0.929 . S
H868 C872 0.929 . S
H869 C878 0.929 . S
C870 H864 0.930 . S
C870 C871 1.367 . S
C870 C878 1.378 . S
C871 C870 1.367 . S
C871 C879 1.433 . S
C872 H868 0.929 . S
C872 C874 1.378 . S
C872 C876 1.350 . S
C873 C876 1.463 . S
C873 C878 1.350 . S
C873 N881 1.427 . S
C874 H865 0.930 . S
C874 C872 1.378 . S
C874 C875 1.367 . S
C875 C874 1.367 . S
C875 C877 1.433 . S
C876 C872 1.350 . S
C876 C873 1.463 . S
C876 N880 1.427 . S
C877 H867 0.929 . S
C877 C875 1.433 . S
C877 N880 1.384 . S
C878 H869 0.929 . S
C878 C870 1.378 . S
C878 C873 1.350 . S
C879 H866 0.929 . S
C879 C871 1.433 . S
C879 N881 1.384 . S
N880 C876 1.427 . S
N880 C877 1.384 . S
N881 C873 1.427 . S
N881 C879 1.384 . S
H882 C888 0.930 . S
H883 C892 0.930 . S
H884 C897 0.929 . S
H885 C895 0.929 . S
H886 C890 0.929 . S
H887 C896 0.929 . S
C888 H882 0.930 . S
C888 C889 1.367 . S
C888 C896 1.378 . S
C889 C888 1.367 . S
C889 C897 1.433 . S
C890 H886 0.929 . S
C890 C892 1.378 . S
C890 C894 1.350 . S
C891 C894 1.463 . S
C891 C896 1.350 . S
C891 N899 1.427 . S
C892 H883 0.930 . S
C892 C890 1.378 . S
C892 C893 1.367 . S
C893 C892 1.367 . S
C893 C895 1.433 . S
C894 C890 1.350 . S
C894 C891 1.463 . S
C894 N898 1.427 . S
C895 H885 0.929 . S
C895 C893 1.433 . S
C895 N898 1.384 . S
C896 H887 0.929 . S
C896 C888 1.378 . S
C896 C891 1.350 . S
C897 H884 0.929 . S
C897 C889 1.433 . S
C897 N899 1.384 . S
N898 C894 1.427 . S
N898 C895 1.384 . S
N899 C891 1.427 . S
N899 C897 1.384 . S
H900 C906 0.930 . S
H901 C910 0.930 . S
H902 C915 0.929 . S
H903 C913 0.929 . S
H904 C908 0.929 . S
H905 C914 0.929 . S
C906 H900 0.930 . S
C906 C907 1.367 . S
C906 C914 1.378 . S
C907 C906 1.367 . S
C907 C915 1.433 . S
C908 H904 0.929 . S
C908 C910 1.378 . S
C908 C912 1.350 . S
C909 C912 1.463 . S
C909 C914 1.350 . S
C909 N917 1.427 . S
C910 H901 0.930 . S
C910 C908 1.378 . S
C910 C911 1.367 . S
C911 C910 1.367 . S
C911 C913 1.433 . S
C912 C908 1.350 . S
C912 C909 1.463 . S
C912 N916 1.427 . S
C913 H903 0.929 . S
C913 C911 1.433 . S
C913 N916 1.384 . S
C914 H905 0.929 . S
C914 C906 1.378 . S
C914 C909 1.350 . S
C915 H902 0.929 . S
C915 C907 1.433 . S
C915 N917 1.384 . S
N916 C912 1.427 . S
N916 C913 1.384 . S
N917 C909 1.427 . S
N917 C915 1.384 . S
H918 C924 0.930 . S
H919 C928 0.930 . S
H920 C933 0.929 . S
H921 C931 0.929 . S
H922 C926 0.929 . S
H923 C932 0.929 . S
C924 H918 0.930 . S
C924 C925 1.367 . S
C924 C932 1.378 . S
C925 C924 1.367 . S
C925 C933 1.433 . S
C926 H922 0.929 . S
C926 C928 1.378 . S
C926 C930 1.350 . S
C927 C930 1.463 . S
C927 C932 1.350 . S
C927 N935 1.427 . S
C928 H919 0.930 . S
C928 C926 1.378 . S
C928 C929 1.367 . S
C929 C928 1.367 . S
C929 C931 1.433 . S
C930 C926 1.350 . S
C930 C927 1.463 . S
C930 N934 1.427 . S
C931 H921 0.929 . S
C931 C929 1.433 . S
C931 N934 1.384 . S
C932 H923 0.929 . S
C932 C924 1.378 . S
C932 C927 1.350 . S
C933 H920 0.929 . S
C933 C925 1.433 . S
C933 N935 1.384 . S
N934 C930 1.427 . S
N934 C931 1.384 . S
N935 C927 1.427 . S
N935 C933 1.384 . S
H936 C942 0.930 . S
H937 C946 0.930 . S
H938 C951 0.929 . S
H939 C949 0.929 . S
H940 C944 0.929 . S
H941 C950 0.929 . S
C942 H936 0.930 . S
C942 C943 1.367 . S
C942 C950 1.378 . S
C943 C942 1.367 . S
C943 C951 1.433 . S
C944 H940 0.929 . S
C944 C946 1.378 . S
C944 C948 1.350 . S
C945 C948 1.463 . S
C945 C950 1.350 . S
C945 N953 1.427 . S
C946 H937 0.930 . S
C946 C944 1.378 . S
C946 C947 1.367 . S
C947 C946 1.367 . S
C947 C949 1.433 . S
C948 C944 1.350 . S
C948 C945 1.463 . S
C948 N952 1.427 . S
C949 H939 0.929 . S
C949 C947 1.433 . S
C949 N952 1.384 . S
C950 H941 0.929 . S
C950 C942 1.378 . S
C950 C945 1.350 . S
C951 H938 0.929 . S
C951 C943 1.433 . S
C951 N953 1.384 . S
N952 C948 1.427 . S
N952 C949 1.384 . S
N953 C945 1.427 . S
N953 C951 1.384 . S
H954 C960 0.930 . S
H955 C964 0.930 . S
H956 C969 0.929 . S
H957 C967 0.929 . S
H958 C962 0.929 . S
H959 C968 0.929 . S
C960 H954 0.930 . S
C960 C961 1.367 . S
C960 C968 1.378 . S
C961 C960 1.367 . S
C961 C969 1.433 . S
C962 H958 0.929 . S
C962 C964 1.378 . S
C962 C966 1.350 . S
C963 C966 1.463 1_545 S
C963 C968 1.350 . S
C963 N971 1.427 1_545 S
C964 H955 0.930 . S
C964 C962 1.378 . S
C964 C965 1.367 . S
C965 C964 1.367 . S
C965 C967 1.433 . S
C966 C962 1.350 . S
C966 C963 1.463 1_565 S
C966 N970 1.427 1_565 S
C967 H957 0.929 . S
C967 C965 1.433 . S
C967 N970 1.384 1_565 S
C968 H959 0.929 . S
C968 C960 1.378 . S
C968 C963 1.350 . S
C969 H956 0.929 . S
C969 C961 1.433 . S
C969 N971 1.384 1_545 S
N970 C966 1.427 1_545 S
N970 C967 1.384 1_545 S
N971 C963 1.427 1_565 S
N971 C969 1.384 1_565 S
H972 C978 0.930 . S
H973 C982 0.930 . S
H974 C987 0.929 . S
H975 C985 0.929 . S
H976 C980 0.929 1_455 S
H977 C986 0.929 1_655 S
C978 H972 0.930 . S
C978 C979 1.367 . S
C978 C986 1.378 . S
C979 C978 1.367 . S
C979 C987 1.433 . S
C980 H976 0.929 1_655 S
C980 C982 1.378 . S
C980 C984 1.350 . S
C981 C984 1.463 1_455 S
C981 C986 1.350 . S
C981 N989 1.427 . S
C982 H973 0.930 . S
C982 C980 1.378 . S
C982 C983 1.367 . S
C983 C982 1.367 . S
C983 C985 1.433 . S
C984 C980 1.350 . S
C984 C981 1.463 1_655 S
C984 N988 1.427 . S
C985 H975 0.929 . S
C985 C983 1.433 . S
C985 N988 1.384 . S
C986 H977 0.929 1_455 S
C986 C978 1.378 . S
C986 C981 1.350 . S
C987 H974 0.929 . S
C987 C979 1.433 . S
C987 N989 1.384 . S
N988 C984 1.427 . S
N988 C985 1.384 . S
N989 C981 1.427 . S
N989 C987 1.384 . S
H990 C996 0.930 . S
H991 C1000 0.930 . S
H992 C1005 0.929 . S
H993 C1003 0.929 . S
H994 C998 0.929 . S
H995 C1004 0.929 . S
C996 H990 0.930 . S
C996 C997 1.367 . S
C996 C1004 1.378 . S
C997 C996 1.367 . S
C997 C1005 1.433 . S
C998 H994 0.929 . S
C998 C1000 1.378 . S
C998 C1002 1.350 . S
C999 C1002 1.463 . S
C999 C1004 1.350 . S
C999 N1007 1.427 . S
C1000 H991 0.930 . S
C1000 C998 1.378 . S
C1000 C1001 1.367 . S
C1001 C1000 1.367 . S
C1001 C1003 1.433 . S
C1002 C998 1.350 . S
C1002 C999 1.463 . S
C1002 N1006 1.427 . S
C1003 H993 0.929 . S
C1003 C1001 1.433 . S
C1003 N1006 1.384 . S
C1004 H995 0.929 . S
C1004 C996 1.378 . S
C1004 C999 1.350 . S
C1005 H992 0.929 . S
C1005 C997 1.433 . S
C1005 N1007 1.384 . S
N1006 C1002 1.427 . S
N1006 C1003 1.384 . S
N1007 C999 1.427 . S
N1007 C1005 1.384 . S
H1008 C1014 0.930 . S
H1009 C1018 0.930 . S
H1010 C1023 0.929 . S
H1011 C1021 0.929 . S
H1012 C1016 0.929 . S
H1013 C1022 0.929 . S
C1014 H1008 0.930 . S
C1014 C1015 1.367 . S
C1014 C1022 1.378 . S
C1015 C1014 1.367 . S
C1015 C1023 1.433 . S
C1016 H1012 0.929 . S
C1016 C1018 1.378 . S
C1016 C1020 1.350 . S
C1017 C1020 1.463 1_545 S
C1017 C1022 1.350 . S
C1017 N1025 1.427 . S
C1018 H1009 0.930 . S
C1018 C1016 1.378 . S
C1018 C1019 1.367 . S
C1019 C1018 1.367 . S
C1019 C1021 1.433 . S
C1020 C1016 1.350 . S
C1020 C1017 1.463 1_565 S
C1020 N1024 1.427 . S
C1021 H1011 0.929 . S
C1021 C1019 1.433 . S
C1021 N1024 1.384 . S
C1022 H1013 0.929 . S
C1022 C1014 1.378 . S
C1022 C1017 1.350 . S
C1023 H1010 0.929 . S
C1023 C1015 1.433 . S
C1023 N1025 1.384 . S
N1024 C1020 1.427 . S
N1024 C1021 1.384 . S
N1025 C1017 1.427 . S
N1025 C1023 1.384 . S
H1026 C1032 0.930 . S
H1027 C1036 0.930 . S
H1028 C1041 0.929 . S
H1029 C1039 0.929 . S
H1030 C1034 0.929 . S
H1031 C1040 0.929 . S
C1032 H1026 0.930 . S
C1032 C1033 1.367 . S
C1032 C1040 1.378 . S
C1033 C1032 1.367 . S
C1033 C1041 1.433 . S
C1034 H1030 0.929 . S
C1034 C1036 1.378 . S
C1034 C1038 1.350 . S
C1035 C1038 1.463 1_455 S
C1035 C1040 1.350 . S
C1035 N1043 1.429 . S
C1036 H1027 0.930 . S
C1036 C1034 1.378 . S
C1036 C1037 1.367 . S
C1037 C1036 1.367 . S
C1037 C1039 1.433 . S
C1038 C1034 1.350 . S
C1038 C1035 1.463 1_655 S
C1038 N1042 1.429 . S
C1039 H1029 0.929 . S
C1039 C1037 1.433 . S
C1039 N1042 1.386 . S
C1040 H1031 0.929 . S
C1040 C1032 1.378 . S
C1040 C1035 1.350 . S
C1041 H1028 0.929 . S
C1041 C1033 1.433 . S
C1041 N1043 1.386 . S
N1042 C1038 1.429 . S
N1042 C1039 1.386 . S
N1043 C1035 1.429 . S
N1043 C1041 1.386 . S
H1044 C1050 0.930 . S
H1045 C1054 0.930 . S
H1046 C1059 0.929 . S
H1047 C1057 0.929 . S
H1048 C1052 0.926 1_554 S
H1049 C1058 0.926 1_556 S
C1050 H1044 0.930 . S
C1050 C1051 1.367 . S
C1050 C1058 1.379 . S
C1051 C1050 1.367 . S
C1051 C1059 1.433 . S
C1052 H1048 0.926 1_556 S
C1052 C1054 1.379 . S
C1052 C1056 1.351 . S
C1053 C1056 1.463 1_554 S
C1053 C1058 1.351 . S
C1053 N1061 1.427 . S
C1054 H1045 0.930 . S
C1054 C1052 1.379 . S
C1054 C1055 1.367 . S
C1055 C1054 1.367 . S
C1055 C1057 1.433 . S
C1056 C1052 1.351 . S
C1056 C1053 1.463 1_556 S
C1056 N1060 1.427 . S
C1057 H1047 0.929 . S
C1057 C1055 1.433 . S
C1057 N1060 1.384 . S
C1058 H1049 0.926 1_554 S
C1058 C1050 1.379 . S
C1058 C1053 1.351 . S
C1059 H1046 0.929 . S
C1059 C1051 1.433 . S
C1059 N1061 1.384 . S
N1060 C1056 1.427 . S
N1060 C1057 1.384 . S
N1061 C1053 1.427 . S
N1061 C1059 1.384 . S
H1062 C1068 0.930 . S
H1063 C1072 0.930 . S
H1064 C1077 0.928 . S
H1065 C1075 0.928 . S
H1066 C1070 0.929 . S
H1067 C1076 0.929 . S
C1068 H1062 0.930 . S
C1068 C1069 1.367 . S
C1068 C1076 1.378 . S
C1069 C1068 1.367 . S
C1069 C1077 1.435 1_556 S
C1070 H1066 0.929 . S
C1070 C1072 1.378 . S
C1070 C1074 1.350 . S
C1071 C1074 1.463 1_546 S
C1071 C1076 1.350 . S
C1071 N1079 1.427 1_556 S
C1072 H1063 0.930 . S
C1072 C1070 1.378 . S
C1072 C1073 1.367 . S
C1073 C1072 1.367 . S
C1073 C1075 1.435 1_554 S
C1074 C1070 1.350 . S
C1074 C1071 1.463 1_564 S
C1074 N1078 1.427 1_554 S
C1075 H1065 0.928 . S
C1075 C1073 1.435 1_556 S
C1075 N1078 1.383 . S
C1076 H1067 0.929 . S
C1076 C1068 1.378 . S
C1076 C1071 1.350 . S
C1077 H1064 0.928 . S
C1077 C1069 1.435 1_554 S
C1077 N1079 1.383 . S
N1078 C1074 1.427 1_556 S
N1078 C1075 1.383 . S
N1079 C1071 1.427 1_554 S
N1079 C1077 1.383 . S
H1080 C1086 0.930 . S
H1081 C1090 0.930 . S
H1082 C1095 0.929 . S
H1083 C1093 0.929 . S
H1084 C1088 0.929 . S
H1085 C1094 0.929 . S
C1086 H1080 0.930 . S
C1086 C1087 1.367 . S
C1086 C1094 1.378 . S
C1087 C1086 1.367 . S
C1087 C1095 1.433 . S
C1088 H1084 0.929 . S
C1088 C1090 1.378 . S
C1088 C1092 1.350 . S
C1089 C1092 1.463 1_656 S
C1089 C1094 1.350 . S
C1089 N1097 1.430 . S
C1090 H1081 0.930 . S
C1090 C1088 1.378 . S
C1090 C1091 1.367 . S
C1091 C1090 1.367 . S
C1091 C1093 1.433 . S
C1092 C1088 1.350 . S
C1092 C1089 1.463 1_454 S
C1092 N1096 1.430 . S
C1093 H1083 0.929 . S
C1093 C1091 1.433 . S
C1093 N1096 1.388 . S
C1094 H1085 0.929 . S
C1094 C1086 1.378 . S
C1094 C1089 1.350 . S
C1095 H1082 0.929 . S
C1095 C1087 1.433 . S
C1095 N1097 1.388 . S
N1096 C1092 1.430 . S
N1096 C1093 1.388 . S
N1097 C1089 1.430 . S
N1097 C1095 1.388 . S
H1098 C1104 0.930 . S
H1099 C1108 0.930 . S
H1100 C1113 0.929 1_556 S
H1101 C1111 0.929 1_554 S
H1102 C1106 0.929 . S
H1103 C1112 0.929 . S
C1104 H1098 0.930 . S
C1104 C1105 1.367 . S
C1104 C1112 1.378 . S
C1105 C1104 1.367 . S
C1105 C1113 1.433 . S
C1106 H1102 0.929 . S
C1106 C1108 1.378 . S
C1106 C1110 1.350 . S
C1107 C1110 1.463 1_554 S
C1107 C1112 1.350 . S
C1107 N1115 1.427 1_554 S
C1108 H1099 0.930 . S
C1108 C1106 1.378 . S
C1108 C1109 1.367 . S
C1109 C1108 1.367 . S
C1109 C1111 1.433 . S
C1110 C1106 1.350 . S
C1110 C1107 1.463 1_556 S
C1110 N1114 1.427 1_556 S
C1111 H1101 0.929 1_556 S
C1111 C1109 1.433 . S
C1111 N1114 1.384 1_556 S
C1112 H1103 0.929 . S
C1112 C1104 1.378 . S
C1112 C1107 1.350 . S
C1113 H1100 0.929 1_554 S
C1113 C1105 1.433 . S
C1113 N1115 1.384 1_554 S
N1114 C1110 1.427 1_554 S
N1114 C1111 1.384 1_554 S
N1115 C1107 1.427 1_556 S
N1115 C1113 1.384 1_556 S
H1116 C1122 0.930 . S
H1117 C1126 0.930 . S
H1118 C1131 0.928 1_556 S
H1119 C1129 0.928 1_554 S
H1120 C1124 0.929 . S
H1121 C1130 0.929 . S
C1122 H1116 0.930 . S
C1122 C1123 1.367 . S
C1122 C1130 1.378 . S
C1123 C1122 1.367 . S
C1123 C1131 1.435 . S
C1124 H1120 0.929 . S
C1124 C1126 1.378 . S
C1124 C1128 1.350 . S
C1125 C1128 1.463 1_564 S
C1125 C1130 1.350 . S
C1125 N1133 1.427 1_554 S
C1126 H1117 0.930 . S
C1126 C1124 1.378 . S
C1126 C1127 1.367 . S
C1127 C1126 1.367 . S
C1127 C1129 1.435 . S
C1128 C1124 1.350 . S
C1128 C1125 1.463 1_546 S
C1128 N1132 1.427 1_556 S
C1129 H1119 0.928 1_556 S
C1129 C1127 1.435 . S
C1129 N1132 1.383 1_556 S
C1130 H1121 0.929 . S
C1130 C1122 1.378 . S
C1130 C1125 1.350 . S
C1131 H1118 0.928 1_554 S
C1131 C1123 1.435 . S
C1131 N1133 1.383 1_554 S
N1132 C1128 1.427 1_554 S
N1132 C1129 1.383 1_554 S
N1133 C1125 1.427 1_556 S
N1133 C1131 1.383 1_556 S
H1134 C1140 0.930 . S
H1135 C1144 0.930 . S
H1136 C1149 0.929 . S
H1137 C1147 0.929 . S
H1138 C1142 0.929 . S
H1139 C1148 0.929 . S
C1140 H1134 0.930 . S
C1140 C1141 1.367 . S
C1140 C1148 1.378 . S
C1141 C1140 1.367 . S
C1141 C1149 1.433 . S
C1142 H1138 0.929 . S
C1142 C1144 1.378 . S
C1142 C1146 1.350 . S
C1143 C1146 1.463 1_656 S
C1143 C1148 1.350 . S
C1143 N1151 1.427 . S
C1144 H1135 0.930 . S
C1144 C1142 1.378 . S
C1144 C1145 1.367 . S
C1145 C1144 1.367 . S
C1145 C1147 1.433 . S
C1146 C1142 1.350 . S
C1146 C1143 1.463 1_454 S
C1146 N1150 1.427 . S
C1147 H1137 0.929 . S
C1147 C1145 1.433 . S
C1147 N1150 1.384 . S
C1148 H1139 0.929 . S
C1148 C1140 1.378 . S
C1148 C1143 1.350 . S
C1149 H1136 0.929 . S
C1149 C1141 1.433 . S
C1149 N1151 1.384 . S
N1150 C1146 1.427 . S
N1150 C1147 1.384 . S
N1151 C1143 1.427 . S
N1151 C1149 1.384 . S
H1152 C1158 0.930 . S
H1153 C1162 0.930 . S
H1154 C1167 0.929 . S
H1155 C1165 0.929 . S
H1156 C1160 0.929 . S
H1157 C1166 0.929 . S
C1158 H1152 0.930 . S
C1158 C1159 1.367 . S
C1158 C1166 1.378 . S
C1159 C1158 1.367 . S
C1159 C1167 1.433 . S
C1160 H1156 0.929 . S
C1160 C1162 1.378 1_655 S
C1160 C1164 1.350 . S
C1161 C1164 1.463 . S
C1161 C1166 1.350 . S
C1161 N1169 1.427 . S
C1162 H1153 0.930 . S
C1162 C1160 1.378 1_455 S
C1162 C1163 1.367 . S
C1163 C1162 1.367 . S
C1163 C1165 1.433 1_455 S
C1164 C1160 1.350 . S
C1164 C1161 1.463 . S
C1164 N1168 1.427 . S
C1165 H1155 0.929 . S
C1165 C1163 1.433 1_655 S
C1165 N1168 1.384 . S
C1166 H1157 0.929 . S
C1166 C1158 1.378 . S
C1166 C1161 1.350 . S
C1167 H1154 0.929 . S
C1167 C1159 1.433 . S
C1167 N1169 1.384 . S
N1168 C1164 1.427 . S
N1168 C1165 1.384 . S
N1169 C1161 1.427 . S
N1169 C1167 1.384 . S
H1170 C1176 0.930 . S
H1171 C1180 0.930 . S
H1172 C1185 0.929 . S
H1173 C1183 0.929 . S
H1174 C1178 0.929 . S
H1175 C1184 0.929 . S
C1176 H1170 0.930 . S
C1176 C1177 1.367 . S
C1176 C1184 1.378 . S
C1177 C1176 1.367 . S
C1177 C1185 1.433 . S
C1178 H1174 0.929 . S
C1178 C1180 1.378 . S
C1178 C1182 1.350 . S
C1179 C1182 1.463 . S
C1179 C1184 1.350 . S
C1179 N1187 1.427 . S
C1180 H1171 0.930 . S
C1180 C1178 1.378 . S
C1180 C1181 1.367 . S
C1181 C1180 1.367 . S
C1181 C1183 1.433 . S
C1182 C1178 1.350 . S
C1182 C1179 1.463 . S
C1182 N1186 1.427 . S
C1183 H1173 0.929 . S
C1183 C1181 1.433 . S
C1183 N1186 1.384 . S
C1184 H1175 0.929 . S
C1184 C1176 1.378 . S
C1184 C1179 1.350 . S
C1185 H1172 0.929 . S
C1185 C1177 1.433 . S
C1185 N1187 1.384 . S
N1186 C1182 1.427 . S
N1186 C1183 1.384 . S
N1187 C1179 1.427 . S
N1187 C1185 1.384 . S
H1188 C1194 0.930 . S
H1189 C1198 0.930 . S
H1190 C1203 0.929 . S
H1191 C1201 0.929 . S
H1192 C1196 0.929 . S
H1193 C1202 0.929 . S
C1194 H1188 0.930 . S
C1194 C1195 1.367 1_545 S
C1194 C1202 1.378 . S
C1195 C1194 1.367 1_565 S
C1195 C1203 1.433 . S
C1196 H1192 0.929 . S
C1196 C1198 1.378 . S
C1196 C1200 1.350 . S
C1197 C1200 1.463 . S
C1197 C1202 1.350 . S
C1197 N1205 1.427 . S
C1198 H1189 0.930 . S
C1198 C1196 1.378 . S
C1198 C1199 1.367 . S
C1199 C1198 1.367 . S
C1199 C1201 1.433 . S
C1200 C1196 1.350 . S
C1200 C1197 1.463 . S
C1200 N1204 1.427 . S
C1201 H1191 0.929 . S
C1201 C1199 1.433 . S
C1201 N1204 1.384 . S
C1202 H1193 0.929 . S
C1202 C1194 1.378 . S
C1202 C1197 1.350 . S
C1203 H1190 0.929 . S
C1203 C1195 1.433 . S
C1203 N1205 1.384 1_565 S
N1204 C1200 1.427 . S
N1204 C1201 1.384 . S
N1205 C1197 1.427 . S
N1205 C1203 1.384 1_545 S
H1206 C1212 0.930 . S
H1207 C1216 0.930 1_565 S
H1208 C1221 0.929 . S
H1209 C1219 0.929 . S
H1210 C1214 0.929 . S
H1211 C1220 0.929 . S
C1212 H1206 0.930 . S
C1212 C1213 1.367 . S
C1212 C1220 1.378 . S
C1213 C1212 1.367 . S
C1213 C1221 1.433 . S
C1214 H1210 0.929 . S
C1214 C1216 1.378 . S
C1214 C1218 1.350 . S
C1215 C1218 1.463 . S
C1215 C1220 1.350 . S
C1215 N1223 1.427 . S
C1216 H1207 0.930 1_545 S
C1216 C1214 1.378 . S
C1216 C1217 1.367 1_545 S
C1217 C1216 1.367 1_565 S
C1217 C1219 1.433 1_565 S
C1218 C1214 1.350 . S
C1218 C1215 1.463 . S
C1218 N1222 1.427 . S
C1219 H1209 0.929 . S
C1219 C1217 1.433 1_545 S
C1219 N1222 1.384 . S
C1220 H1211 0.929 . S
C1220 C1212 1.378 . S
C1220 C1215 1.350 . S
C1221 H1208 0.929 . S
C1221 C1213 1.433 . S
C1221 N1223 1.384 . S
N1222 C1218 1.427 . S
N1222 C1219 1.384 . S
N1223 C1215 1.427 . S
N1223 C1221 1.384 . S
H1224 C1230 0.930 1_455 S
H1225 C1234 0.930 . S
H1226 C1239 0.929 . S
H1227 C1237 0.929 . S
H1228 C1232 0.929 . S
H1229 C1238 0.929 . S
C1230 H1224 0.930 1_655 S
C1230 C1231 1.367 1_655 S
C1230 C1238 1.378 . S
C1231 C1230 1.367 1_455 S
C1231 C1239 1.433 1_455 S
C1232 H1228 0.929 . S
C1232 C1234 1.378 . S
C1232 C1236 1.350 . S
C1233 C1236 1.463 . S
C1233 C1238 1.350 . S
C1233 N1241 1.427 . S
C1234 H1225 0.930 . S
C1234 C1232 1.378 . S
C1234 C1235 1.367 . S
C1235 C1234 1.367 . S
C1235 C1237 1.433 . S
C1236 C1232 1.350 . S
C1236 C1233 1.463 . S
C1236 N1240 1.427 . S
C1237 H1227 0.929 . S
C1237 C1235 1.433 . S
C1237 N1240 1.384 . S
C1238 H1229 0.929 . S
C1238 C1230 1.378 . S
C1238 C1233 1.350 . S
C1239 H1226 0.929 . S
C1239 C1231 1.433 1_655 S
C1239 N1241 1.384 . S
N1240 C1236 1.427 . S
N1240 C1237 1.384 . S
N1241 C1233 1.427 . S
N1241 C1239 1.384 . S
H1242 C1248 0.930 . S
H1243 C1252 0.930 . S
H1244 C1257 0.929 . S
H1245 C1255 0.929 . S
H1246 C1250 0.929 . S
H1247 C1256 0.929 . S
C1248 H1242 0.930 . S
C1248 C1249 1.367 . S
C1248 C1256 1.378 . S
C1249 C1248 1.367 . S
C1249 C1257 1.433 . S
C1250 H1246 0.929 . S
C1250 C1252 1.378 . S
C1250 C1254 1.350 . S
C1251 C1254 1.463 . S
C1251 C1256 1.350 . S
C1251 N1259 1.427 . S
C1252 H1243 0.930 . S
C1252 C1250 1.378 . S
C1252 C1253 1.367 . S
C1253 C1252 1.367 . S
C1253 C1255 1.433 . S
C1254 C1250 1.350 . S
C1254 C1251 1.463 . S
C1254 N1258 1.427 . S
C1255 H1245 0.929 . S
C1255 C1253 1.433 . S
C1255 N1258 1.384 . S
C1256 H1247 0.929 . S
C1256 C1248 1.378 . S
C1256 C1251 1.350 . S
C1257 H1244 0.929 . S
C1257 C1249 1.433 . S
C1257 N1259 1.384 . S
N1258 C1254 1.427 . S
N1258 C1255 1.384 . S
N1259 C1251 1.427 . S
N1259 C1257 1.384 . S
H1260 C1266 0.930 . S
H1261 C1270 0.930 . S
H1262 C1275 0.929 . S
H1263 C1273 0.929 . S
H1264 C1268 0.929 . S
H1265 C1274 0.929 . S
C1266 H1260 0.930 . S
C1266 C1267 1.367 . S
C1266 C1274 1.378 . S
C1267 C1266 1.367 . S
C1267 C1275 1.433 . S
C1268 H1264 0.929 . S
C1268 C1270 1.378 . S
C1268 C1272 1.350 . S
C1269 C1272 1.463 . S
C1269 C1274 1.350 . S
C1269 N1277 1.427 . S
C1270 H1261 0.930 . S
C1270 C1268 1.378 . S
C1270 C1271 1.367 1_565 S
C1271 C1270 1.367 1_545 S
C1271 C1273 1.433 . S
C1272 C1268 1.350 . S
C1272 C1269 1.463 . S
C1272 N1276 1.427 1_565 S
C1273 H1263 0.929 . S
C1273 C1271 1.433 . S
C1273 N1276 1.384 . S
C1274 H1265 0.929 . S
C1274 C1266 1.378 . S
C1274 C1269 1.350 . S
C1275 H1262 0.929 . S
C1275 C1267 1.433 . S
C1275 N1277 1.384 . S
N1276 C1272 1.427 1_545 S
N1276 C1273 1.384 . S
N1277 C1269 1.427 . S
N1277 C1275 1.384 . S
H1278 C1284 0.930 . S
H1279 C1288 0.930 . S
H1280 C1293 0.929 . S
H1281 C1291 0.929 . S
H1282 C1286 0.929 . S
H1283 C1292 0.929 . S
C1284 H1278 0.930 . S
C1284 C1285 1.367 . S
C1284 C1292 1.378 . S
C1285 C1284 1.367 . S
C1285 C1293 1.433 . S
C1286 H1282 0.929 . S
C1286 C1288 1.378 1_455 S
C1286 C1290 1.350 . S
C1287 C1290 1.463 . S
C1287 C1292 1.350 . S
C1287 N1295 1.427 . S
C1288 H1279 0.930 . S
C1288 C1286 1.378 1_655 S
C1288 C1289 1.367 . S
C1289 C1288 1.367 . S
C1289 C1291 1.433 1_655 S
C1290 C1286 1.350 . S
C1290 C1287 1.463 . S
C1290 N1294 1.427 . S
C1291 H1281 0.929 . S
C1291 C1289 1.433 1_455 S
C1291 N1294 1.384 . S
C1292 H1283 0.929 . S
C1292 C1284 1.378 . S
C1292 C1287 1.350 . S
C1293 H1280 0.929 . S
C1293 C1285 1.433 . S
C1293 N1295 1.384 . S
N1294 C1290 1.427 . S
N1294 C1291 1.384 . S
N1295 C1287 1.427 . S
N1295 C1293 1.384 . S
H1296 C1302 0.930 . S
H1297 C1306 0.930 . S
H1298 C1311 0.929 . S
H1299 C1309 0.929 . S
H1300 C1304 0.929 . S
H1301 C1310 0.929 . S
C1302 H1296 0.930 . S
C1302 C1303 1.367 . S
C1302 C1310 1.378 . S
C1303 C1302 1.367 . S
C1303 C1311 1.433 . S
C1304 H1300 0.929 . S
C1304 C1306 1.378 . S
C1304 C1308 1.350 . S
C1305 C1308 1.463 . S
C1305 C1310 1.350 . S
C1305 N1313 1.427 . S
C1306 H1297 0.930 . S
C1306 C1304 1.378 . S
C1306 C1307 1.367 . S
C1307 C1306 1.367 . S
C1307 C1309 1.433 . S
C1308 C1304 1.350 . S
C1308 C1305 1.463 . S
C1308 N1312 1.427 . S
C1309 H1299 0.929 . S
C1309 C1307 1.433 . S
C1309 N1312 1.384 . S
C1310 H1301 0.929 . S
C1310 C1302 1.378 . S
C1310 C1305 1.350 . S
C1311 H1298 0.929 . S
C1311 C1303 1.433 . S
C1311 N1313 1.384 . S
N1312 C1308 1.427 . S
N1312 C1309 1.384 . S
N1313 C1305 1.427 . S
N1313 C1311 1.384 . S
H1314 C1320 0.930 . S
H1315 C1324 0.930 . S
H1316 C1329 0.929 . S
H1317 C1327 0.929 . S
H1318 C1322 0.929 . S
H1319 C1328 0.929 . S
C1320 H1314 0.930 . S
C1320 C1321 1.367 . S
C1320 C1328 1.378 1_655 S
C1321 C1320 1.367 . S
C1321 C1329 1.433 1_655 S
C1322 H1318 0.929 . S
C1322 C1324 1.378 . S
C1322 C1326 1.350 . S
C1323 C1326 1.463 . S
C1323 C1328 1.350 . S
C1323 N1331 1.427 . S
C1324 H1315 0.930 . S
C1324 C1322 1.378 . S
C1324 C1325 1.367 . S
C1325 C1324 1.367 . S
C1325 C1327 1.433 . S
C1326 C1322 1.350 . S
C1326 C1323 1.463 . S
C1326 N1330 1.427 . S
C1327 H1317 0.929 . S
C1327 C1325 1.433 . S
C1327 N1330 1.384 . S
C1328 H1319 0.929 . S
C1328 C1320 1.378 1_455 S
C1328 C1323 1.350 . S
C1329 H1316 0.929 . S
C1329 C1321 1.433 1_455 S
C1329 N1331 1.384 . S
N1330 C1326 1.427 . S
N1330 C1327 1.384 . S
N1331 C1323 1.427 . S
N1331 C1329 1.384 . S
H1332 C1338 0.930 . S
H1333 C1342 0.930 . S
H1334 C1347 0.929 . S
H1335 C1345 0.929 . S
H1336 C1340 0.929 . S
H1337 C1346 0.929 . S
C1338 H1332 0.930 . S
C1338 C1339 1.367 . S
C1338 C1346 1.378 . S
C1339 C1338 1.367 . S
C1339 C1347 1.433 . S
C1340 H1336 0.929 . S
C1340 C1342 1.378 . S
C1340 C1344 1.350 . S
C1341 C1344 1.463 . S
C1341 C1346 1.350 . S
C1341 N1349 1.427 . S
C1342 H1333 0.930 . S
C1342 C1340 1.378 . S
C1342 C1343 1.367 . S
C1343 C1342 1.367 . S
C1343 C1345 1.433 . S
C1344 C1340 1.350 . S
C1344 C1341 1.463 . S
C1344 N1348 1.427 . S
C1345 H1335 0.929 . S
C1345 C1343 1.433 . S
C1345 N1348 1.384 . S
C1346 H1337 0.929 . S
C1346 C1338 1.378 . S
C1346 C1341 1.350 . S
C1347 H1334 0.929 . S
C1347 C1339 1.433 . S
C1347 N1349 1.384 . S
N1348 C1344 1.427 . S
N1348 C1345 1.384 . S
N1349 C1341 1.427 . S
N1349 C1347 1.384 . S
H1350 C1356 0.930 . S
H1351 C1360 0.930 . S
H1352 C1365 0.929 . S
H1353 C1363 0.929 . S
H1354 C1358 0.929 . S
H1355 C1364 0.929 . S
C1356 H1350 0.930 . S
C1356 C1357 1.367 . S
C1356 C1364 1.378 . S
C1357 C1356 1.367 . S
C1357 C1365 1.433 . S
C1358 H1354 0.929 . S
C1358 C1360 1.378 . S
C1358 C1362 1.350 . S
C1359 C1362 1.463 . S
C1359 C1364 1.350 . S
C1359 N1367 1.427 . S
C1360 H1351 0.930 . S
C1360 C1358 1.378 . S
C1360 C1361 1.367 1_565 S
C1361 C1360 1.367 1_545 S
C1361 C1363 1.433 . S
C1362 C1358 1.350 . S
C1362 C1359 1.463 . S
C1362 N1366 1.427 . S
C1363 H1353 0.929 . S
C1363 C1361 1.433 . S
C1363 N1366 1.384 1_545 S
C1364 H1355 0.929 . S
C1364 C1356 1.378 . S
C1364 C1359 1.350 . S
C1365 H1352 0.929 . S
C1365 C1357 1.433 . S
C1365 N1367 1.384 . S
N1366 C1362 1.427 . S
N1366 C1363 1.384 1_565 S
N1367 C1359 1.427 . S
N1367 C1365 1.384 . S
C403 C48 1.213 . S
C407 C8 1.232 . S
C421 C30 1.214 . S
C425 C4 1.231 . S
C439 C26 1.213 . S
C443 C52 1.232 . S
C457 C70 1.221 . S
C461 C96 1.225 . S
C475 C118 1.221 . S
C479 C92 1.224 . S
C493 C114 1.229 . S
C497 C74 1.216 . S
C511 C180 1.228 . S
C515 C140 1.217 . S
C529 C136 1.214 . S
C533 C162 1.232 . S
C547 C158 1.231 . S
C551 C184 1.214 . S
C565 C228 1.213 . S
C569 C202 1.232 . S
C583 C224 1.225 . S
C587 C250 1.220 . S
C601 C206 1.224 . S
C605 C246 1.222 . S
C619 C272 1.228 . S
C623 C312 1.218 . S
C637 C268 1.213 . S
C641 C294 1.232 . S
C655 C290 1.214 . S
C659 C316 1.232 . S
C673 C360 1.215 . S
C677 C334 1.231 . S
C691 C382 1.223 . S
C695 C356 1.223 . S
C709 C378 1.215 . S
C713 C338 1.230 . S
C727 C9 0.988 . S
C731 C203 0.999 . S
C745 C31 0.981 . S
C749 C225 0.987 . S
C763 C247 0.986 . S
C767 C53 1.000 . S
C781 C71 0.990 . S
C785 C273 0.979 . S
C799 C295 1.000 . S
C803 C93 0.986 . S
C817 C317 0.989 . S
C821 C115 0.980 . S
C835 C292 0.996 . S
C839 C117 0.993 . S
C853 C73 0.997 . S
C857 C314 0.977 . S
C871 C270 0.998 . S
C875 C95 0.977 . S
C889 C28 0.999 . S
C893 C249 0.987 . S
C907 C50 0.987 . S
C911 C205 0.981 . S
C925 C227 1.001 . S
C929 C6 0.982 . S
C943 C335 0.978 . S
C947 C141 0.999 . S
C961 C163 0.984 . S
C965 C357 0.984 . S
C979 C379 0.988 . S
C983 C185 0.999 . S
C997 C381 0.995 . S
C1001 C160 0.993 . S
C1015 C182 0.998 . S
C1019 C337 0.977 . S
C1033 C359 0.988 . S
C1037 C138 0.980 . S
C1051 C5 1.311 . S
C1055 C75 1.309 . S
C1069 C97 1.311 . S
C1073 C27 1.312 . S
C1087 C119 1.313 . S
C1091 C49 1.310 . S
C1105 C29 1.311 . S
C1109 C116 1.313 . S
C1123 C51 1.313 . S
C1127 C72 1.311 . S
C1141 C94 1.312 . S
C1145 C7 1.309 . S
C1159 C137 1.309 . S
C1163 C207 1.310 . S
C1177 C229 1.311 . S
C1181 C159 1.313 . S
C1195 C251 1.312 . S
C1199 C181 1.313 . S
C1213 C161 1.311 . S
C1217 C248 1.312 . S
C1231 C204 1.313 . S
C1235 C183 1.312 . S
C1249 C139 1.312 . S
C1253 C226 1.312 . S
C1267 C339 1.312 . S
C1271 C269 1.309 . S
C1285 C361 1.311 . S
C1289 C291 1.313 . S
C1303 C383 1.310 . S
C1307 C313 1.313 . S
C1321 C293 1.309 . S
C1325 C380 1.309 . S
C1339 C315 1.309 . S
C1343 C336 1.310 . S
C1357 C358 1.313 . S
C1361 C271 1.311 . S
