# Generated by pormake.
# Topology ure, (4)-cn, num edge types: 1
# Building blocks:
#     Node 0, Type 0, BuildingBlock: QUQFOY_clean_sbu_3, # of connection points: 4
#     Node 1, Type 0, BuildingBlock: QUQFOY_clean_sbu_3, # of connection points: 4
#     Node 2, Type 0, BuildingBlock: QUQFOY_clean_sbu_3, # of connection points: 4
#     Node 3, Type 0, BuildingBlock: QUQFOY_clean_sbu_3, # of connection points: 4
#     Node 4, Type 0, BuildingBlock: QUQFOY_clean_sbu_3, # of connection points: 4
#     Node 5, Type 0, BuildingBlock: QUQFOY_clean_sbu_3, # of connection points: 4
#     Node 6, Type 0, BuildingBlock: QUQFOY_clean_sbu_3, # of connection points: 4
#     Node 7, Type 0, BuildingBlock: QUQFOY_clean_sbu_3, # of connection points: 4
#     Node 8, Type 0, BuildingBlock: QUQFOY_clean_sbu_3, # of connection points: 4
#     Node 9, Type 0, BuildingBlock: QUQFOY_clean_sbu_3, # of connection points: 4
#     Node 10, Type 0, BuildingBlock: QUQFOY_clean_sbu_3, # of connection points: 4
#     Node 11, Type 0, BuildingBlock: QUQFOY_clean_sbu_3, # of connection points: 4
#     Node 12, Type 0, BuildingBlock: QUQFOY_clean_sbu_3, # of connection points: 4
#     Node 13, Type 0, BuildingBlock: QUQFOY_clean_sbu_3, # of connection points: 4
#     Node 14, Type 0, BuildingBlock: QUQFOY_clean_sbu_3, # of connection points: 4
#     Node 15, Type 0, BuildingBlock: QUQFOY_clean_sbu_3, # of connection points: 4
#     Edge 16, Type (0, 0), BuildingBlock: AJUNOK_clean_linker_0, # of connection points: 2
#     Edge 17, Type (0, 0), BuildingBlock: AJUNOK_clean_linker_0, # of connection points: 2
#     Edge 18, Type (0, 0), BuildingBlock: AJUNOK_clean_linker_0, # of connection points: 2
#     Edge 19, Type (0, 0), BuildingBlock: AJUNOK_clean_linker_0, # of connection points: 2
#     Edge 20, Type (0, 0), BuildingBlock: AJUNOK_clean_linker_0, # of connection points: 2
#     Edge 21, Type (0, 0), BuildingBlock: AJUNOK_clean_linker_0, # of connection points: 2
#     Edge 22, Type (0, 0), BuildingBlock: AJUNOK_clean_linker_0, # of connection points: 2
#     Edge 23, Type (0, 0), BuildingBlock: AJUNOK_clean_linker_0, # of connection points: 2
#     Edge 24, Type (0, 0), BuildingBlock: AJUNOK_clean_linker_0, # of connection points: 2
#     Edge 25, Type (0, 0), BuildingBlock: AJUNOK_clean_linker_0, # of connection points: 2
#     Edge 26, Type (0, 0), BuildingBlock: AJUNOK_clean_linker_0, # of connection points: 2
#     Edge 27, Type (0, 0), BuildingBlock: AJUNOK_clean_linker_0, # of connection points: 2
#     Edge 28, Type (0, 0), BuildingBlock: AJUNOK_clean_linker_0, # of connection points: 2
#     Edge 29, Type (0, 0), BuildingBlock: AJUNOK_clean_linker_0, # of connection points: 2
#     Edge 30, Type (0, 0), BuildingBlock: AJUNOK_clean_linker_0, # of connection points: 2
#     Edge 31, Type (0, 0), BuildingBlock: AJUNOK_clean_linker_0, # of connection points: 2
#     Edge 32, Type (0, 0), BuildingBlock: AJUNOK_clean_linker_0, # of connection points: 2
#     Edge 33, Type (0, 0), BuildingBlock: AJUNOK_clean_linker_0, # of connection points: 2
#     Edge 34, Type (0, 0), BuildingBlock: AJUNOK_clean_linker_0, # of connection points: 2
#     Edge 35, Type (0, 0), BuildingBlock: AJUNOK_clean_linker_0, # of connection points: 2
#     Edge 36, Type (0, 0), BuildingBlock: AJUNOK_clean_linker_0, # of connection points: 2
#     Edge 37, Type (0, 0), BuildingBlock: AJUNOK_clean_linker_0, # of connection points: 2
#     Edge 38, Type (0, 0), BuildingBlock: AJUNOK_clean_linker_0, # of connection points: 2
#     Edge 39, Type (0, 0), BuildingBlock: AJUNOK_clean_linker_0, # of connection points: 2
#     Edge 40, Type (0, 0), BuildingBlock: AJUNOK_clean_linker_0, # of connection points: 2
#     Edge 41, Type (0, 0), BuildingBlock: AJUNOK_clean_linker_0, # of connection points: 2
#     Edge 42, Type (0, 0), BuildingBlock: AJUNOK_clean_linker_0, # of connection points: 2
#     Edge 43, Type (0, 0), BuildingBlock: AJUNOK_clean_linker_0, # of connection points: 2
#     Edge 44, Type (0, 0), BuildingBlock: AJUNOK_clean_linker_0, # of connection points: 2
#     Edge 45, Type (0, 0), BuildingBlock: AJUNOK_clean_linker_0, # of connection points: 2
#     Edge 46, Type (0, 0), BuildingBlock: AJUNOK_clean_linker_0, # of connection points: 2
#     Edge 47, Type (0, 0), BuildingBlock: AJUNOK_clean_linker_0, # of connection points: 2
# Relax obj value: 0.232
# Max RMSD: 0.174
# Mean RMSD: 0.174
data_MOF--net-ure--node1-QUQFOY_clean_sbu_3--edge1-AJUNOK_clean_linker_0
_symmetry_space_group_name_H-M    P1
_symmetry_Int_Tables_number       1
_symmetry_cell_setting            triclinic
loop_
_symmetry_equiv_pos_as_xyz
'x, y, z'
_cell_length_a     25.248883
_cell_length_b     23.813914
_cell_length_c     23.839857
_cell_angle_alpha  90.059629
_cell_angle_beta   90.062867
_cell_angle_gamma 90.467096
loop_
_atom_site_label
_atom_site_type_symbol
_atom_site_fract_x
_atom_site_fract_y
_atom_site_fract_z
_atom_type_partial_charge
C0 C 0.37794 0.25052 0.25971 0.0
O1 O 0.3755 0.2647 0.31097 0.0
Cd2 Cd 0.30126 0.26853 0.3702 0.0
O3 O 0.33643 0.23519 0.2328 0.0
Cd4 Cd 0.24036 0.23118 0.26211 0.0
C5 C 0.24044 0.3693 0.29168 0.0
O6 O 0.25678 0.18252 0.34793 0.0
O7 O 0.19033 0.23735 0.351 0.0
O8 O 0.21916 0.15347 0.19789 0.0
C9 C 0.21954 0.20268 0.37654 0.0
O10 O 0.25991 0.35562 0.33901 0.0
C11 C 0.17325 0.17138 0.18607 0.0
O12 O 0.23292 0.33247 0.25369 0.0
O13 O 0.15957 0.2174 0.20835 0.0
C14 C 0.83855 0.97382 0.4875 0.0
O15 O 0.86141 0.01905 0.4992 0.0
Cd16 Cd 0.87194 0.11035 0.52742 0.0
O17 O 0.86816 0.93549 0.46917 0.0
Cd18 Cd 0.95534 -0.00928 0.48098 0.0
C19 C 0.93139 0.02532 0.62489 0.0
O20 O 0.92597 0.0848 0.45076 0.0
O21 O 0.00937 0.07694 0.46125 0.0
O22 O -0.01502 0.9319 0.40444 0.0
C23 C 0.97069 0.10818 0.44926 0.0
O24 O 0.90704 0.07079 0.61382 0.0
C25 C 0.03024 0.92265 0.42578 0.0
O26 O 0.94857 -0.00727 0.58615 0.0
O27 O 0.03989 0.94294 0.47416 0.0
C28 C 0.0656 0.73184 0.70694 0.0
O29 O 0.05353 0.72746 0.75851 0.0
Cd30 Cd 0.10777 0.72071 0.84058 0.0
O31 O 0.11306 0.74087 0.69181 0.0
Cd32 Cd 0.19466 0.75206 0.74826 0.0
C33 C 0.17194 0.61527 0.77475 0.0
O34 O 0.17549 0.78992 0.84185 0.0
O35 O 0.24606 0.74038 0.83241 0.0
O36 O 0.22369 0.83107 0.69193 0.0
C37 C 0.217 0.76969 0.86412 0.0
O38 O 0.14659 0.62958 0.81863 0.0
C39 C 0.26798 0.8089 0.68017 0.0
O40 O 0.18983 0.6513 0.74013 0.0
O41 O 0.2773 0.76023 0.69931 0.0
C42 C 0.60835 0.06127 0.98386 0.0
O43 O 0.60958 0.03428 0.93824 0.0
Cd44 Cd 0.57913 0.95045 0.98762 0.0
O45 O 0.57121 0.04845 0.0173 0.0
Cd46 Cd 0.49876 0.98166 0.98506 0.0
C47 C 0.51583 0.97956 0.11145 0.0
O48 O 0.52188 0.88975 0.93829 0.0
O49 O 0.47095 0.88851 0.01112 0.0
O50 O 0.47459 0.03542 0.90368 0.0
C51 C 0.49224 0.86185 0.97117 0.0
O52 O 0.55902 0.96302 0.08951 0.0
C53 C 0.42651 0.03985 0.91867 0.0
O54 O 0.47695 -0.00791 0.08053 0.0
O55 O 0.41248 0.01623 0.96403 0.0
C56 C 0.39016 0.73596 0.2565 0.0
O57 O 0.39799 0.70876 0.21143 0.0
Cd58 Cd 0.33818 0.68465 0.13725 0.0
O59 O 0.34437 0.75376 0.26959 0.0
Cd60 Cd 0.25616 0.74085 0.22379 0.0
C61 C 0.2626 0.59679 0.21316 0.0
O62 O 0.28526 0.76682 0.12964 0.0
O63 O 0.2027 0.74573 0.13697 0.0
O64 O 0.2269 0.82534 0.27308 0.0
C65 C 0.24048 0.76245 0.1063 0.0
O66 O 0.2905 0.60118 0.16901 0.0
C67 C 0.18487 0.80283 0.29237 0.0
O68 O 0.25003 0.63975 0.24178 0.0
O69 O 0.1766 0.75169 0.27976 0.0
C70 C 0.61166 0.9773 0.48097 0.0
O71 O 0.59839 0.0265 0.46909 0.0
Cd72 Cd 0.57449 0.11658 0.44736 0.0
O73 O 0.57522 0.94219 0.49127 0.0
Cd74 Cd 0.49019 -0.00221 0.48393 0.0
C75 C 0.51236 0.04008 0.34532 0.0
O76 O 0.51703 0.08905 0.51937 0.0
O77 O 0.4346 0.08285 0.50046 0.0
O78 O 0.4645 0.94552 0.56486 0.0
C79 C 0.47287 0.11297 0.51774 0.0
O80 O 0.5378 0.08431 0.35986 0.0
C81 C 0.42127 0.92743 0.54406 0.0
O82 O 0.49483 0.00451 0.3811 0.0
O83 O 0.41085 0.9408 0.4935 0.0
C84 C 0.08268 0.22862 0.71911 0.0
O85 O 0.08718 0.2459 0.66914 0.0
Cd86 Cd 0.16403 0.27502 0.62402 0.0
O87 O 0.1232 0.2264 0.75093 0.0
Cd88 Cd 0.2182 0.24625 0.7267 0.0
C89 C 0.197 0.38164 0.71456 0.0
O90 O 0.21983 0.19588 0.64043 0.0
O91 O 0.26709 0.2708 0.63851 0.0
O92 O 0.23809 0.16537 0.78172 0.0
C93 C 0.2523 0.22609 0.61385 0.0
O94 O 0.18313 0.36697 0.6653 0.0
C95 C 0.28256 0.18332 0.79894 0.0
O96 O 0.20996 0.34474 0.75038 0.0
O97 O 0.29645 0.23252 0.7842 0.0
C98 C 0.81052 0.00998 0.00958 0.0
O99 O 0.79729 0.96174 -0.00878 0.0
Cd100 Cd 0.85094 0.88628 0.95889 0.0
O101 O 0.85895 0.02458 0.0146 0.0
Cd102 Cd 0.94455 0.97488 -0.00118 0.0
C103 C 0.92028 0.962 0.85941 0.0
O104 O 0.91458 0.88277 0.03121 0.0
O105 O -0.00569 0.88583 -4e-05 0.0
O106 O 0.97689 0.0277 0.07938 0.0
C107 C 0.95713 0.85709 0.02141 0.0
O108 O 0.88923 0.92133 0.87147 0.0
C109 C 0.02107 0.04072 0.05722 0.0
O110 O 0.94262 -0.00905 0.89772 0.0
O111 O 0.02921 0.02378 0.00749 0.0
C112 C 0.86502 0.23188 0.78605 0.0
O113 O 0.84665 0.27977 0.77544 0.0
Cd114 Cd 0.76908 0.23936 0.72638 0.0
O115 O 0.8337 0.19129 0.77772 0.0
Cd116 Cd 0.75002 0.23064 0.72918 0.0
C117 C 0.75185 0.10946 0.72185 0.0
O118 O 0.78027 0.28479 0.6424 0.0
O119 O 0.72337 0.21854 0.62852 0.0
O120 O 0.73348 0.31331 0.78917 0.0
C121 C 0.75114 0.2583 0.60833 0.0
O122 O 0.78734 0.13816 0.69744 0.0
C123 C 0.68403 0.30358 0.79235 0.0
O124 O 0.71638 0.13638 0.74749 0.0
O125 O 0.66642 0.26044 0.76693 0.0
C126 C 0.14189 0.48634 -0.00685 0.0
O127 O 0.1464 0.53597 0.97408 0.0
Cd128 Cd 0.07851 0.60021 0.94876 0.0
O129 O 0.09651 0.46427 0.00243 0.0
Cd130 Cd 0.00357 0.49999 -0.0089 0.0
C131 C 0.02071 0.51527 0.8517 0.0
O132 O 0.02122 0.59239 0.02744 0.0
O133 O 0.94462 0.58443 -0.00999 0.0
O134 O 0.97673 0.44185 0.0701 0.0
C135 C 0.97723 0.61481 0.01709 0.0
O136 O 0.04206 0.56305 0.86067 0.0
C137 C 0.93466 0.42368 0.0467 0.0
O138 O 0.00733 0.48319 0.8918 0.0
O139 O 0.9255 0.44034 -0.00287 0.0
C140 C 0.59936 0.72271 0.2865 0.0
O141 O 0.59989 0.68018 0.25478 0.0
Cd142 Cd 0.64059 0.73648 0.18117 0.0
O143 O 0.63594 0.75879 0.2793 0.0
Cd144 Cd 0.71418 0.73397 0.21542 0.0
C145 C 0.69972 0.85969 0.2196 0.0
O146 O 0.6985 0.69034 0.11984 0.0
O147 O 0.74177 0.76857 0.12261 0.0
O148 O 0.74428 0.64761 0.25922 0.0
C149 C 0.72522 0.72724 0.09382 0.0
O150 O 0.65632 0.83872 0.20156 0.0
C151 C 0.78758 0.66882 0.27684 0.0
O152 O 0.73833 0.828 0.23014 0.0
O153 O 0.79739 0.71945 0.26367 0.0
C154 C 0.12338 0.51342 0.49205 0.0
O155 O 0.13871 0.46286 0.49066 0.0
Cd156 Cd 0.08556 0.38421 0.51135 0.0
O157 O 0.07439 0.52535 0.49329 0.0
Cd158 Cd -0.00878 0.46803 0.48329 0.0
C159 C 0.01631 0.44357 0.62014 0.0
O160 O 0.0181 0.37903 0.44343 0.0
O161 O 0.94219 0.37768 0.48496 0.0
O162 O 0.96664 0.51547 0.39773 0.0
C163 C 0.97723 0.3513 0.45765 0.0
O164 O 0.05054 0.40815 0.60376 0.0
C165 C 0.92525 0.53745 0.41808 0.0
O166 O -0.01022 0.47206 0.58484 0.0
O167 O 0.91408 0.5272 0.46906 0.0
C168 C 0.35466 0.43097 0.98251 0.0
O169 O 0.36044 0.45352 0.93501 0.0
Cd170 Cd 0.38836 0.54019 0.98208 0.0
O171 O 0.38994 0.44296 0.01845 0.0
Cd172 Cd 0.46908 0.50082 0.9873 0.0
C173 C 0.44212 0.51431 0.11185 0.0
O174 O 0.4543 0.59325 0.9375 0.0
O175 O 0.50406 0.59118 0.01138 0.0
O176 O 0.49196 0.44452 0.90715 0.0
C177 C 0.48502 0.61918 0.97108 0.0
O178 O 0.40285 0.53422 0.08508 0.0
C179 C 0.53957 0.43769 0.92292 0.0
O180 O 0.48101 0.49373 0.08553 0.0
O181 O 0.55359 0.45905 0.96953 0.0
C182 C 0.87538 0.71479 0.68555 0.0
O183 O 0.89036 0.73004 0.73416 0.0
Cd184 Cd 0.8413 0.7625 0.81309 0.0
O185 O 0.82657 0.7122 0.67309 0.0
Cd186 Cd 0.74812 0.73504 0.73162 0.0
C187 C 0.77987 0.8702 0.74578 0.0
O188 O 0.76871 0.70087 0.82605 0.0
O189 O 0.70597 0.7615 0.82055 0.0
O190 O 0.70178 0.65037 0.70614 0.0
C191 C 0.73214 0.72755 0.85054 0.0
O192 O 0.80701 0.85418 0.78774 0.0
C193 C 0.66683 0.67462 0.6769 0.0
O194 O 0.75782 0.8351 0.71278 0.0
O195 O 0.66939 0.72778 0.67295 0.0
C196 C 0.59081 0.21376 0.2391 0.0
O197 O 0.58762 0.19391 0.28838 0.0
Cd198 Cd 0.6523 0.19191 0.36061 0.0
O199 O 0.63441 0.23348 0.22043 0.0
Cd200 Cd 0.72672 0.22902 0.25634 0.0
C201 C 0.71362 0.09061 0.28917 0.0
O202 O 0.70563 0.27325 0.34459 0.0
O203 O 0.78444 0.24138 0.33903 0.0
O204 O 0.74549 0.30331 0.18904 0.0
C205 C 0.75036 0.26773 0.36753 0.0
O206 O 0.69259 0.10453 0.33554 0.0
C207 C 0.791 0.28491 0.17629 0.0
O208 O 0.72611 0.12717 0.2525 0.0
O209 O 0.80583 0.23983 0.19968 0.0
C210 C 0.31745 0.51144 0.4934 0.0
O211 O 0.30289 0.46285 0.47711 0.0
Cd212 Cd 0.35442 0.38384 0.44959 0.0
O213 O 0.36611 0.52425 0.49939 0.0
Cd214 Cd 0.44984 0.4722 0.48499 0.0
C215 C 0.4203 0.45675 0.34633 0.0
O216 O 0.42141 0.38173 0.51869 0.0
O217 O 0.50053 0.38353 0.48483 0.0
O218 O 0.48118 0.51337 0.57104 0.0
C219 C 0.46363 0.35559 0.50806 0.0
O220 O 0.38902 0.41716 0.36073 0.0
C221 C 0.52033 0.53863 0.54892 0.0
O222 O 0.44603 0.48465 0.38314 0.0
O223 O 0.52674 0.53314 0.4963 0.0
C224 C 0.08111 0.14351 0.16078 0.0
C225 C 0.13583 0.13881 0.15099 0.0
C226 C 0.0444 0.11135 0.13035 0.0
C227 C 0.06097 0.07431 0.08806 0.0
H228 H 0.06649 0.17137 0.19312 0.0
H229 H 0.00268 0.11587 0.13981 0.0
S230 S 0.19989 0.04763 0.04508 0.0
N231 N 0.20497 0.09451 0.09595 0.0
N232 N 0.13582 0.03513 0.03736 0.0
C233 C 0.11557 0.06989 0.07705 0.0
C234 C 0.15307 0.10182 0.10895 0.0
C235 C 0.05969 0.83857 0.3727 0.0
C236 C 0.07084 0.89227 0.39404 0.0
C237 C 0.09719 0.8098 0.34055 0.0
C238 C 0.14669 0.83432 0.32744 0.0
H239 H 0.02183 0.81857 0.3812 0.0
H240 H 0.08691 0.76826 0.32529 0.0
S241 S 0.19291 0.97651 0.37067 0.0
N242 N 0.13347 0.97003 0.39895 0.0
N243 N 0.20365 0.91692 0.33716 0.0
C244 C 0.1578 0.88866 0.348 0.0
C245 C 0.11992 0.9174 0.38168 0.0
C246 C 0.32981 0.89192 0.56229 0.0
C247 C 0.38338 0.8951 0.57847 0.0
C248 C 0.2923 0.86461 0.596 0.0
C249 C 0.30747 0.83855 0.64617 0.0
H250 H 0.31649 0.91161 0.52388 0.0
H251 H 0.25134 0.86324 0.5824 0.0
S252 S 0.44198 0.83588 0.70846 0.0
N253 N 0.44923 0.87098 0.6492 0.0
N254 N 0.37864 0.8183 0.71155 0.0
C255 C 0.36071 0.84105 0.66286 0.0
C256 C 0.39876 0.86973 0.62923 0.0
C257 C 0.40787 0.12224 0.85874 0.0
C258 C 0.38925 0.07428 0.88692 0.0
C259 C 0.37276 0.15828 0.83169 0.0
C260 C 0.31805 0.14685 0.8311 0.0
H261 H 0.44973 0.13268 0.85857 0.0
H262 H 0.38873 0.19483 0.81039 0.0
S263 S 0.24995 0.02467 0.89656 0.0
N264 N 0.3132 0.01611 0.91172 0.0
N265 N 0.24699 0.08333 0.85988 0.0
C266 C 0.29904 0.09841 0.85845 0.0
C267 C 0.33475 0.06219 0.88665 0.0
C268 C 0.59371 0.32689 0.82641 0.0
C269 C 0.64818 0.34001 0.82457 0.0
C270 C 0.55865 0.35942 0.85765 0.0
C271 C 0.57694 0.40567 0.88876 0.0
H272 H 0.57789 0.29097 0.80385 0.0
H273 H 0.51714 0.34751 0.85843 0.0
S274 S 0.71436 0.4616 0.89369 0.0
N275 N 0.71792 0.40532 0.85339 0.0
N276 N 0.65174 0.46588 0.91303 0.0
C277 C 0.63089 0.42024 0.88645 0.0
C278 C 0.66661 0.38755 0.85405 0.0
C279 C 0.91563 0.3548 0.12274 0.0
C280 C 0.89758 0.38583 0.07646 0.0
C281 C 0.88106 0.32047 0.15344 0.0
C282 C 0.827 0.31704 0.13977 0.0
H283 H 0.95677 0.35721 0.13557 0.0
H284 H 0.89645 0.29796 0.18934 0.0
S285 S 0.75985 0.38765 0.02129 0.0
N286 N 0.82221 0.40877 0.01689 0.0
N287 N 0.75703 0.34542 0.07612 0.0
C288 C 0.80839 0.34705 0.09325 0.0
C289 C 0.84378 0.38111 0.06112 0.0
C290 C 0.85725 0.54569 0.34377 0.0
C291 C 0.89071 0.57183 0.38305 0.0
C292 C 0.82395 0.57751 0.30946 0.0
C293 C 0.82403 0.6365 0.31257 0.0
H294 H 0.85653 0.50034 0.33992 0.0
H295 H 0.7983 0.55576 0.27999 0.0
S296 S 0.9055 0.72448 0.40898 0.0
N297 N 0.92234 0.65926 0.4239 0.0
N298 N 0.86081 0.71971 0.35844 0.0
C299 C 0.85802 0.66309 0.35149 0.0
C300 C 0.89113 0.63051 0.3871 0.0
C301 C 0.58168 0.62027 0.5586 0.0
C302 C 0.55637 0.57349 0.58292 0.0
C303 C 0.6159 0.65436 0.59015 0.0
C304 C 0.6269 0.64171 0.64644 0.0
H305 H 0.57471 0.63084 0.51502 0.0
H306 H 0.63512 0.68979 0.56992 0.0
S307 S 0.5706 0.52438 0.72991 0.0
N308 N 0.54369 0.51705 0.66709 0.0
N309 N 0.60965 0.58022 0.72575 0.0
C310 C 0.60187 0.59524 0.67136 0.0
C311 C 0.56608 0.56131 0.63971 0.0
C312 C 0.21633 0.25772 0.46497 0.0
C313 C 0.22606 0.20638 0.43774 0.0
C314 C 0.22998 0.26557 0.52126 0.0
C315 C 0.2522 0.22178 0.55263 0.0
H316 H 0.19924 0.29264 0.44238 0.0
H317 H 0.22077 0.30533 0.54096 0.0
S318 S 0.28755 0.08033 0.50073 0.0
N319 N 0.26207 0.11227 0.44554 0.0
N320 N 0.28474 0.12614 0.55275 0.0
C321 C 0.26254 0.17052 0.52602 0.0
C322 C 0.25006 0.16298 0.46823 0.0
C323 C 0.93596 0.03331 0.78393 0.0
C324 C 0.92865 0.97692 0.79988 0.0
C325 C 0.93852 0.04849 0.72712 0.0
C326 C 0.93479 0.00784 0.68436 0.0
H327 H 0.93774 0.06616 0.81537 0.0
H328 H 0.94258 0.09243 0.71656 0.0
S329 S 0.91771 0.85473 0.70475 0.0
N330 N 0.92038 0.88027 0.7689 0.0
N331 N 0.92395 0.90895 0.66225 0.0
C332 C 0.92911 0.9513 0.7 0.0
C333 C 0.9263 0.93586 0.75771 0.0
C334 C 0.1957 0.80507 0.9607 0.0
C335 C 0.22467 0.7687 0.92583 0.0
C336 C 0.20086 0.80297 0.01936 0.0
C337 C 0.23521 0.76456 0.0449 0.0
H338 H 0.16878 0.83529 0.94261 0.0
H339 H 0.17815 0.83175 0.04484 0.0
S340 S 0.31664 0.65706 0.9738 0.0
N341 N 0.28713 0.69098 0.92228 0.0
N342 N 0.29625 0.68751 0.03202 0.0
C343 C 0.26389 0.72766 0.0109 0.0
C344 C 0.25878 0.7296 0.95143 0.0
C345 C 0.55038 0.04547 0.24964 0.0
C346 C 0.5097 0.02624 0.28525 0.0
C347 C 0.55292 0.0281 0.19388 0.0
C348 C 0.51375 -0.00727 0.17124 0.0
H349 H 0.58142 0.07303 0.26522 0.0
H350 H 0.58512 0.04353 0.16795 0.0
S351 S 0.39618 0.93496 0.24485 0.0
N352 N 0.42821 0.97156 0.29328 0.0
N353 N 0.43141 0.94149 0.18677 0.0
C354 C 0.47165 0.97489 0.2054 0.0
C355 C 0.46998 -0.00892 0.2629 0.0
C356 C 0.44848 0.2029 0.20377 0.0
C357 C 0.43089 0.25027 0.23356 0.0
C358 C 0.50304 0.19366 0.19629 0.0
C359 C 0.54063 0.23304 0.21581 0.0
H360 H 0.42077 0.16983 0.19241 0.0
H361 H 0.51588 0.15323 0.18076 0.0
S362 S 0.515 0.36604 0.28971 0.0
N363 N 0.45592 0.33766 0.27963 0.0
N364 N 0.55683 0.32359 0.25847 0.0
C365 C 0.52294 0.28398 0.23765 0.0
C366 C 0.46832 0.29164 0.24883 0.0
C367 C 0.93574 0.26105 0.42634 0.0
C368 C 0.97653 0.2895 0.4549 0.0
C369 C 0.93513 0.20217 0.42318 0.0
C370 C 0.97502 0.17001 0.44886 0.0
H371 H 0.90442 0.28439 0.40609 0.0
H372 H 0.90312 0.1816 0.40068 0.0
S373 S 0.08724 0.2247 0.53352 0.0
N374 N 0.05545 0.28118 0.51258 0.0
N375 N 0.05451 0.17101 0.50633 0.0
C376 C 0.01553 0.19811 0.47807 0.0
C377 C 0.01611 0.25782 0.48131 0.0
C378 C 0.94695 0.65309 0.66591 0.0
C379 C 0.91684 0.69797 0.64589 0.0
C380 C 0.00078 0.66119 0.6775 0.0
C381 C 0.02535 0.71309 0.66633 0.0
H382 H 0.92692 0.61762 0.68506 0.0
H383 H 0.02107 0.63046 0.70289 0.0
S384 S 0.97181 0.82208 0.5721 0.0
N385 N 0.92071 0.78017 0.5855 0.0
N386 N 0.02262 0.79641 0.60746 0.0
C387 C -0.00061 0.75024 0.63032 0.0
C388 C 0.94452 0.74146 0.61856 0.0
C389 C 0.48559 0.71111 0.92014 0.0
C390 C 0.4897 0.68085 0.9706 0.0
C391 C 0.48723 0.77008 0.9201 0.0
C392 C 0.49123 0.80019 0.97067 0.0
H393 H 0.48123 0.68911 0.88059 0.0
H394 H 0.48424 0.79222 0.88055 0.0
S395 S 0.50319 0.7408 0.11401 0.0
N396 N 0.49873 0.68559 0.07233 0.0
N397 N 0.50032 0.79586 0.07218 0.0
C398 C 0.49532 0.7704 0.02128 0.0
C399 C 0.49495 0.71077 0.02127 0.0
C400 C 0.52528 0.78867 0.28295 0.0
C401 C 0.54746 0.7407 0.30791 0.0
C402 C 0.47058 0.79189 0.27388 0.0
C403 C 0.43668 0.74836 0.2914 0.0
H404 H 0.5505 0.81945 0.26246 0.0
H405 H 0.45589 0.8246 0.24659 0.0
S406 S 0.47329 0.62657 0.37905 0.0
N407 N 0.53045 0.65732 0.36386 0.0
N408 N 0.42701 0.6648 0.34875 0.0
C409 C 0.45735 0.70615 0.32584 0.0
C410 C 0.51316 0.70208 0.33392 0.0
C411 C 0.42354 0.20239 0.50308 0.0
C412 C 0.46979 0.17488 0.52055 0.0
C413 C 0.4217 0.26106 0.50026 0.0
C414 C 0.4662 0.29419 0.51409 0.0
H415 H 0.38886 0.17853 0.49026 0.0
H416 H 0.38559 0.28054 0.48562 0.0
S417 S 0.5949 0.24335 0.56815 0.0
N418 N 0.55976 0.18573 0.55666 0.0
N419 N 0.55639 0.296 0.54972 0.0
C420 C 0.51219 0.26753 0.53308 0.0
C421 C 0.51389 0.20784 0.53686 0.0
C422 C 0.01504 0.22591 0.79687 0.0
C423 C 0.02859 0.21722 0.74007 0.0
C424 C 0.96156 0.22897 0.81349 0.0
C425 C 0.92093 0.22238 0.77371 0.0
H426 H 0.04565 0.23407 0.82775 0.0
H427 H 0.95207 0.23847 0.85675 0.0
S428 S 0.93522 0.19533 0.62141 0.0
N429 N -0.00366 0.19746 0.64567 0.0
N430 N 0.89707 0.20503 0.67659 0.0
C431 C 0.93406 0.2107 0.71787 0.0
C432 C -0.01233 0.20719 0.70117 0.0
C433 C 0.91891 0.76125 0.00567 0.0
C434 C 0.96048 0.79553 0.02567 0.0
C435 C 0.92377 0.70254 0.00444 0.0
C436 C 0.97 0.67623 0.02409 0.0
H437 H 0.88328 0.77998 -0.0111 0.0
H438 H 0.89161 0.67782 0.98679 0.0
S439 S 0.08649 0.74792 0.08821 0.0
N440 N 0.04696 0.79955 0.06971 0.0
N441 N 0.05571 0.68944 0.06962 0.0
C442 C 0.01047 0.71032 0.04713 0.0
C443 C 0.00586 0.76994 0.04724 0.0
C444 C 0.27037 0.46836 0.30455 0.0
C445 C 0.23689 0.42957 0.27701 0.0
C446 C 0.27849 0.52234 0.28311 0.0
C447 C 0.25085 0.54075 0.23566 0.0
H448 H 0.29339 0.45587 0.34067 0.0
H449 H 0.30755 0.54951 0.3031 0.0
S450 S 0.14934 0.4607 0.15606 0.0
N451 N 0.17101 0.41587 0.20353 0.0
N452 N 0.18293 0.51967 0.16655 0.0
C453 C 0.21385 0.50445 0.21052 0.0
C454 C 0.20719 0.44846 0.23083 0.0
C455 C 0.77936 0.0162 0.68341 0.0
C456 C 0.75556 0.04786 0.7263 0.0
C457 C 0.78555 0.95792 0.68876 0.0
C458 C 0.7706 0.93036 0.73839 0.0
H459 H 0.79368 0.03661 0.64585 0.0
H460 H 0.80378 0.93471 0.65486 0.0
S461 S 0.71074 -0.00579 0.86459 0.0
N462 N 0.71787 0.04689 0.8202 0.0
N463 N 0.73336 0.93837 0.83169 0.0
C464 C 0.74809 0.96153 0.78194 0.0
C465 C 0.73965 0.02012 0.77559 0.0
C466 C 0.28186 0.46755 0.0391 0.0
C467 C 0.29963 0.42526 0.00264 0.0
C468 C 0.22898 0.48387 0.03925 0.0
C469 C 0.19115 0.45619 0.00595 0.0
H470 H 0.30983 0.4936 0.06189 0.0
H471 H 0.2186 0.52173 0.06176 0.0
S472 S 0.21477 0.3331 0.91441 0.0
N473 N 0.2741 0.34988 0.9391 0.0
N474 N 0.17299 0.37783 0.94318 0.0
C475 C 0.20672 0.40833 0.9758 0.0
C476 C 0.26147 0.39319 0.97356 0.0
C477 C 0.67187 -0.00369 0.29163 0.0
C478 C 0.71393 0.03097 0.27361 0.0
C479 C 0.66616 0.94157 0.27147 0.0
C480 C 0.70364 0.919 0.23467 0.0
H481 H 0.64218 0.01205 0.32028 0.0
H482 H 0.63301 0.91627 0.28594 0.0
S483 S 0.82384 -0.00998 0.17935 0.0
N484 N 0.79466 0.03817 0.21831 0.0
N485 N 0.7859 0.93328 0.18353 0.0
C486 C 0.74705 0.95215 0.21801 0.0
C487 C 0.75179 0.00872 0.23682 0.0
C488 C 0.7296 0.03305 0.06142 0.0
C489 C 0.76751 0.04934 0.02154 0.0
C490 C 0.6767 0.04883 0.05562 0.0
C491 C 0.6599 0.07846 0.00778 0.0
H492 H 0.73923 0.00203 0.09288 0.0
H493 H 0.64808 0.02939 0.08344 0.0
S494 S 0.7474 0.14898 0.90453 0.0
N495 N 0.78801 0.1114 0.94362 0.0
N496 N 0.68734 0.13798 0.93016 0.0
C497 C 0.69885 0.10353 0.97381 0.0
C498 C 0.7532 0.08923 0.98111 0.0
C499 C 0.15519 0.53402 0.71251 0.0
C500 C 0.17802 0.55574 0.76158 0.0
C501 C 0.16201 0.47773 0.69769 0.0
C502 C 0.19242 0.44138 0.73114 0.0
H503 H 0.13152 0.56065 0.68567 0.0
H504 H 0.14269 0.46252 0.65999 0.0
S505 S 0.26215 0.48059 0.86265 0.0
N506 N 0.23227 0.53871 0.84327 0.0
N507 N 0.24668 0.43259 0.81519 0.0
C508 C 0.21552 0.46315 0.78049 0.0
C509 C 0.20789 0.52046 0.79578 0.0
C510 C 0.1917 0.54743 0.55447 0.0
C511 C 0.16443 0.55569 0.50373 0.0
C512 C 0.24703 0.54417 0.55494 0.0
C513 C 0.27566 0.55211 0.50514 0.0
H514 H 0.1704 0.53178 0.59057 0.0
H515 H 0.26614 0.52624 0.59143 0.0
S516 S 0.22296 0.60968 0.37264 0.0
N517 N 0.16975 0.59529 0.41039 0.0
N518 N 0.27452 0.59278 0.41182 0.0
C519 C 0.24936 0.57616 0.45933 0.0
C520 C 0.19298 0.57766 0.45853 0.0
C521 C 0.73985 0.67903 0.94301 0.0
C522 C 0.72849 0.72803 0.91243 0.0
C523 C 0.73851 0.67879 0.00189 0.0
C524 C 0.72759 0.72804 0.03204 0.0
H525 H 0.74937 0.64045 0.92124 0.0
H526 H 0.7468 0.64009 0.02396 0.0
S527 S 0.69493 0.8674 0.9722 0.0
N528 N 0.70491 0.82691 0.91697 0.0
N529 N 0.70438 0.82687 0.02743 0.0
C530 C 0.7165 0.77742 0.00208 0.0
C531 C 0.71638 0.77731 0.94226 0.0
C532 C 0.46116 0.51402 0.26896 0.0
C533 C 0.42537 0.47152 0.28605 0.0
C534 C 0.46642 0.52887 0.21231 0.0
C535 C 0.43589 0.50167 0.17126 0.0
H536 H 0.48597 0.53541 0.2993 0.0
H537 H 0.49448 0.56144 0.20057 0.0
S538 S 0.34166 0.38386 0.19092 0.0
N539 N 0.36181 0.39999 0.25487 0.0
N540 N 0.37231 0.42846 0.14909 0.0
C541 C 0.40094 0.4588 0.187 0.0
C542 C 0.39546 0.44353 0.24426 0.0
C543 C 0.78966 0.23653 0.45788 0.0
C544 C 0.75571 0.27307 0.42892 0.0
C545 C 0.78903 0.23355 0.51642 0.0
C546 C 0.75488 0.26735 0.54783 0.0
H547 H 0.81478 0.20775 0.43522 0.0
H548 H 0.81418 0.20333 0.53722 0.0
S549 S 0.66277 0.37457 0.4933 0.0
N550 N 0.68977 0.34686 0.43662 0.0
N551 N 0.68984 0.34191 0.54722 0.0
C552 C 0.72293 0.30633 0.52004 0.0
C553 C 0.72302 0.30901 0.46029 0.0
C554 C -0.01074 0.50827 0.69704 0.0
C555 C 0.01215 0.4571 0.68065 0.0
C556 C -0.00862 0.52678 0.7528 0.0
C557 C 0.01577 0.49429 0.7941 0.0
H558 H 0.97122 0.53511 0.66606 0.0
H559 H 0.9741 0.56678 0.76379 0.0
S560 S 0.07746 0.35539 0.77554 0.0
N561 N 0.05706 0.37252 0.712 0.0
N562 N 0.06053 0.40769 0.81687 0.0
C563 C 0.03656 0.44199 0.77927 0.0
C564 C 0.03489 0.42323 0.72249 0.0
C565 C 0.75179 0.92243 0.47231 0.0
C566 C 0.78038 0.96912 0.49321 0.0
C567 C 0.69593 0.92206 0.47206 0.0
C568 C 0.66783 0.96808 0.49338 0.0
H569 H 0.77252 0.88744 0.45363 0.0
H570 H 0.67494 0.88755 0.45215 0.0
S571 S 0.72316 0.09738 0.55836 0.0
N572 N 0.77511 0.06077 0.53897 0.0
N573 N 0.67176 0.058 0.54142 0.0
C574 C 0.69597 0.01251 0.5184 0.0
C575 C 0.75191 0.0137 0.51743 0.0
loop_
_geom_bond_atom_site_label_1
_geom_bond_atom_site_label_2
_geom_bond_distance
_geom_bond_site_symmetry_2
_ccdc_geom_bond_type
C0 O1 1.306 . S
C0 O3 1.160 . S
O1 C0 1.306 . S
O1 Cd2 2.228 . S
Cd2 O1 2.228 . S
Cd2 O6 2.273 . S
Cd2 O10 2.277 . S
O3 C0 1.160 . S
O3 Cd4 2.203 . S
Cd4 O3 2.203 . S
Cd4 O6 2.411 . S
Cd4 O7 2.333 . S
Cd4 O8 2.352 . S
Cd4 O12 2.277 . S
Cd4 O13 2.356 . S
C5 O10 1.209 . S
C5 O12 1.226 . S
O6 Cd2 2.273 . S
O6 Cd4 2.411 . S
O6 C9 1.320 . S
O7 Cd4 2.333 . S
O7 C9 1.214 . S
O8 Cd4 2.352 . S
O8 C11 1.258 . S
C9 O6 1.320 . S
C9 O7 1.214 . S
O10 Cd2 2.277 . S
O10 C5 1.209 . S
C11 O8 1.258 . S
C11 O13 1.282 . S
O12 Cd4 2.277 . S
O12 C5 1.226 . S
O13 Cd4 2.356 . S
O13 C11 1.282 . S
C14 O15 1.306 1_565 S
C14 O17 1.160 . S
O15 C14 1.306 1_545 S
O15 Cd16 2.228 . S
Cd16 O15 2.228 . S
Cd16 O20 2.273 . S
Cd16 O24 2.277 . S
O17 C14 1.160 . S
O17 Cd18 2.203 1_565 S
Cd18 O17 2.203 1_545 S
Cd18 O20 2.411 . S
Cd18 O21 2.333 1_655 S
Cd18 O22 2.352 1_545 S
Cd18 O26 2.277 1_545 S
Cd18 O27 2.356 1_645 S
C19 O24 1.209 . S
C19 O26 1.226 1_545 S
O20 Cd16 2.273 . S
O20 Cd18 2.411 . S
O20 C23 1.320 1_655 S
O21 Cd18 2.333 1_455 S
O21 C23 1.214 . S
O22 Cd18 2.352 1_565 S
O22 C25 1.258 1_655 S
C23 O20 1.320 1_455 S
C23 O21 1.214 . S
O24 Cd16 2.277 . S
O24 C19 1.209 . S
C25 O22 1.258 1_455 S
C25 O27 1.282 . S
O26 Cd18 2.277 1_565 S
O26 C19 1.226 1_565 S
O27 Cd18 2.356 1_465 S
O27 C25 1.282 . S
C28 O29 1.306 . S
C28 O31 1.160 . S
O29 C28 1.306 . S
O29 Cd30 2.228 . S
Cd30 O29 2.228 . S
Cd30 O34 2.273 . S
Cd30 O38 2.277 . S
O31 C28 1.160 . S
O31 Cd32 2.203 . S
Cd32 O31 2.203 . S
Cd32 O34 2.411 . S
Cd32 O35 2.333 . S
Cd32 O36 2.352 . S
Cd32 O40 2.277 . S
Cd32 O41 2.356 . S
C33 O38 1.209 . S
C33 O40 1.226 . S
O34 Cd30 2.273 . S
O34 Cd32 2.411 . S
O34 C37 1.320 . S
O35 Cd32 2.333 . S
O35 C37 1.214 . S
O36 Cd32 2.352 . S
O36 C39 1.258 . S
C37 O34 1.320 . S
C37 O35 1.214 . S
O38 Cd30 2.277 . S
O38 C33 1.209 . S
C39 O36 1.258 . S
C39 O41 1.282 . S
O40 Cd32 2.277 . S
O40 C33 1.226 . S
O41 Cd32 2.356 . S
O41 C39 1.282 . S
C42 O43 1.306 1_546 S
C42 O45 1.160 . S
O43 C42 1.306 1_564 S
O43 Cd44 2.228 . S
Cd44 O43 2.228 . S
Cd44 O48 2.273 1_554 S
Cd44 O52 2.277 . S
O45 C42 1.160 . S
O45 Cd46 2.203 1_546 S
Cd46 O45 2.203 1_564 S
Cd46 O48 2.411 1_554 S
Cd46 O49 2.333 . S
Cd46 O50 2.352 1_564 S
Cd46 O54 2.277 1_565 S
Cd46 O55 2.356 1_564 S
C47 O52 1.209 . S
C47 O54 1.226 1_565 S
O48 Cd44 2.273 1_556 S
O48 Cd46 2.411 1_556 S
O48 C51 1.320 1_556 S
O49 Cd46 2.333 . S
O49 C51 1.214 . S
O50 Cd46 2.352 1_546 S
O50 C53 1.258 . S
C51 O48 1.320 1_554 S
C51 O49 1.214 . S
O52 Cd44 2.277 . S
O52 C47 1.209 . S
C53 O50 1.258 . S
C53 O55 1.282 . S
O54 Cd46 2.277 1_545 S
O54 C47 1.226 1_545 S
O55 Cd46 2.356 1_546 S
O55 C53 1.282 . S
C56 O57 1.306 . S
C56 O59 1.160 . S
O57 C56 1.306 . S
O57 Cd58 2.228 . S
Cd58 O57 2.228 . S
Cd58 O62 2.273 . S
Cd58 O66 2.277 . S
O59 C56 1.160 . S
O59 Cd60 2.203 . S
Cd60 O59 2.203 . S
Cd60 O62 2.411 . S
Cd60 O63 2.333 . S
Cd60 O64 2.352 . S
Cd60 O68 2.277 . S
Cd60 O69 2.356 . S
C61 O66 1.209 . S
C61 O68 1.226 . S
O62 Cd58 2.273 . S
O62 Cd60 2.411 . S
O62 C65 1.320 . S
O63 Cd60 2.333 . S
O63 C65 1.214 . S
O64 Cd60 2.352 . S
O64 C67 1.258 . S
C65 O62 1.320 . S
C65 O63 1.214 . S
O66 Cd58 2.277 . S
O66 C61 1.209 . S
C67 O64 1.258 . S
C67 O69 1.282 . S
O68 Cd60 2.277 . S
O68 C61 1.226 . S
O69 Cd60 2.356 . S
O69 C67 1.282 . S
C70 O71 1.306 1_565 S
C70 O73 1.160 . S
O71 C70 1.306 1_545 S
O71 Cd72 2.228 . S
Cd72 O71 2.228 . S
Cd72 O76 2.273 . S
Cd72 O80 2.277 . S
O73 C70 1.160 . S
O73 Cd74 2.203 1_565 S
Cd74 O73 2.203 1_545 S
Cd74 O76 2.411 . S
Cd74 O77 2.333 . S
Cd74 O78 2.352 1_545 S
Cd74 O82 2.277 1_545 S
Cd74 O83 2.356 1_545 S
C75 O80 1.209 . S
C75 O82 1.226 1_545 S
O76 Cd72 2.273 . S
O76 Cd74 2.411 . S
O76 C79 1.320 . S
O77 Cd74 2.333 . S
O77 C79 1.214 . S
O78 Cd74 2.352 1_565 S
O78 C81 1.258 . S
C79 O76 1.320 . S
C79 O77 1.214 . S
O80 Cd72 2.277 . S
O80 C75 1.209 . S
C81 O78 1.258 . S
C81 O83 1.282 . S
O82 Cd74 2.277 1_565 S
O82 C75 1.226 1_565 S
O83 Cd74 2.356 1_565 S
O83 C81 1.282 . S
C84 O85 1.306 . S
C84 O87 1.160 . S
O85 C84 1.306 . S
O85 Cd86 2.228 . S
Cd86 O85 2.228 . S
Cd86 O90 2.273 . S
Cd86 O94 2.277 . S
O87 C84 1.160 . S
O87 Cd88 2.203 . S
Cd88 O87 2.203 . S
Cd88 O90 2.411 . S
Cd88 O91 2.333 . S
Cd88 O92 2.352 . S
Cd88 O96 2.277 . S
Cd88 O97 2.356 . S
C89 O94 1.209 . S
C89 O96 1.226 . S
O90 Cd86 2.273 . S
O90 Cd88 2.411 . S
O90 C93 1.320 . S
O91 Cd88 2.333 . S
O91 C93 1.214 . S
O92 Cd88 2.352 . S
O92 C95 1.258 . S
C93 O90 1.320 . S
C93 O91 1.214 . S
O94 Cd86 2.277 . S
O94 C89 1.209 . S
C95 O92 1.258 . S
C95 O97 1.282 . S
O96 Cd88 2.277 . S
O96 C89 1.226 . S
O97 Cd88 2.356 . S
O97 C95 1.282 . S
C98 O99 1.306 1_544 S
C98 O101 1.160 . S
O99 C98 1.306 1_566 S
O99 Cd100 2.228 . S
Cd100 O99 2.228 . S
Cd100 O104 2.273 1_556 S
Cd100 O108 2.277 . S
O101 C98 1.160 . S
O101 Cd102 2.203 1_544 S
Cd102 O101 2.203 1_566 S
Cd102 O104 2.411 1_556 S
Cd102 O105 2.333 1_655 S
Cd102 O106 2.352 1_566 S
Cd102 O110 2.277 1_565 S
Cd102 O111 2.356 1_666 S
C103 O108 1.209 . S
C103 O110 1.226 1_565 S
O104 Cd100 2.273 1_554 S
O104 Cd102 2.411 1_554 S
O104 C107 1.320 1_654 S
O105 Cd102 2.333 1_455 S
O105 C107 1.214 . S
O106 Cd102 2.352 1_544 S
O106 C109 1.258 1_655 S
C107 O104 1.320 1_456 S
C107 O105 1.214 . S
O108 Cd100 2.277 . S
O108 C103 1.209 . S
C109 O106 1.258 1_455 S
C109 O111 1.282 . S
O110 Cd102 2.277 1_545 S
O110 C103 1.226 1_545 S
O111 Cd102 2.356 1_444 S
O111 C109 1.282 . S
C112 O113 1.306 . S
C112 O115 1.160 . S
O113 C112 1.306 . S
O113 Cd114 2.228 . S
Cd114 O113 2.228 . S
Cd114 O118 2.273 . S
Cd114 O122 2.277 . S
O115 C112 1.160 . S
O115 Cd116 2.203 . S
Cd116 O115 2.203 . S
Cd116 O118 2.411 . S
Cd116 O119 2.333 . S
Cd116 O120 2.352 . S
Cd116 O124 2.277 . S
Cd116 O125 2.356 . S
C117 O122 1.209 . S
C117 O124 1.226 . S
O118 Cd114 2.273 . S
O118 Cd116 2.411 . S
O118 C121 1.320 . S
O119 Cd116 2.333 . S
O119 C121 1.214 . S
O120 Cd116 2.352 . S
O120 C123 1.258 . S
C121 O118 1.320 . S
C121 O119 1.214 . S
O122 Cd114 2.277 . S
O122 C117 1.209 . S
C123 O120 1.258 . S
C123 O125 1.282 . S
O124 Cd116 2.277 . S
O124 C117 1.226 . S
O125 Cd116 2.356 . S
O125 C123 1.282 . S
C126 O127 1.306 1_554 S
C126 O129 1.160 . S
O127 C126 1.306 1_556 S
O127 Cd128 2.228 . S
Cd128 O127 2.228 . S
Cd128 O132 2.273 1_556 S
Cd128 O136 2.277 . S
O129 C126 1.160 . S
O129 Cd130 2.203 1_554 S
Cd130 O129 2.203 1_556 S
Cd130 O132 2.411 1_556 S
Cd130 O133 2.333 1_455 S
Cd130 O134 2.352 1_556 S
Cd130 O138 2.277 . S
Cd130 O139 2.356 1_456 S
C131 O136 1.209 . S
C131 O138 1.226 . S
O132 Cd128 2.273 1_554 S
O132 Cd130 2.411 1_554 S
O132 C135 1.320 1_454 S
O133 Cd130 2.333 1_655 S
O133 C135 1.214 . S
O134 Cd130 2.352 1_554 S
O134 C137 1.258 1_455 S
C135 O132 1.320 1_656 S
C135 O133 1.214 . S
O136 Cd128 2.277 . S
O136 C131 1.209 . S
C137 O134 1.258 1_655 S
C137 O139 1.282 . S
O138 Cd130 2.277 . S
O138 C131 1.226 . S
O139 Cd130 2.356 1_654 S
O139 C137 1.282 . S
C140 O141 1.306 . S
C140 O143 1.160 . S
O141 C140 1.306 . S
O141 Cd142 2.228 . S
Cd142 O141 2.228 . S
Cd142 O146 2.273 . S
Cd142 O150 2.277 . S
O143 C140 1.160 . S
O143 Cd144 2.203 . S
Cd144 O143 2.203 . S
Cd144 O146 2.411 . S
Cd144 O147 2.333 . S
Cd144 O148 2.352 . S
Cd144 O152 2.277 . S
Cd144 O153 2.356 . S
C145 O150 1.209 . S
C145 O152 1.226 . S
O146 Cd142 2.273 . S
O146 Cd144 2.411 . S
O146 C149 1.320 . S
O147 Cd144 2.333 . S
O147 C149 1.214 . S
O148 Cd144 2.352 . S
O148 C151 1.258 . S
C149 O146 1.320 . S
C149 O147 1.214 . S
O150 Cd142 2.277 . S
O150 C145 1.209 . S
C151 O148 1.258 . S
C151 O153 1.282 . S
O152 Cd144 2.277 . S
O152 C145 1.226 . S
O153 Cd144 2.356 . S
O153 C151 1.282 . S
C154 O155 1.306 . S
C154 O157 1.160 . S
O155 C154 1.306 . S
O155 Cd156 2.228 . S
Cd156 O155 2.228 . S
Cd156 O160 2.273 . S
Cd156 O164 2.277 . S
O157 C154 1.160 . S
O157 Cd158 2.203 . S
Cd158 O157 2.203 . S
Cd158 O160 2.411 . S
Cd158 O161 2.333 1_455 S
Cd158 O162 2.352 . S
Cd158 O166 2.277 . S
Cd158 O167 2.356 1_455 S
C159 O164 1.209 . S
C159 O166 1.226 . S
O160 Cd156 2.273 . S
O160 Cd158 2.411 . S
O160 C163 1.320 1_455 S
O161 Cd158 2.333 1_655 S
O161 C163 1.214 . S
O162 Cd158 2.352 . S
O162 C165 1.258 1_455 S
C163 O160 1.320 1_655 S
C163 O161 1.214 . S
O164 Cd156 2.277 . S
O164 C159 1.209 . S
C165 O162 1.258 1_655 S
C165 O167 1.282 . S
O166 Cd158 2.277 . S
O166 C159 1.226 . S
O167 Cd158 2.356 1_655 S
O167 C165 1.282 . S
C168 O169 1.306 1_556 S
C168 O171 1.160 . S
O169 C168 1.306 1_554 S
O169 Cd170 2.228 . S
Cd170 O169 2.228 . S
Cd170 O174 2.273 1_554 S
Cd170 O178 2.277 . S
O171 C168 1.160 . S
O171 Cd172 2.203 1_556 S
Cd172 O171 2.203 1_554 S
Cd172 O174 2.411 1_554 S
Cd172 O175 2.333 . S
Cd172 O176 2.352 1_554 S
Cd172 O180 2.277 . S
Cd172 O181 2.356 1_554 S
C173 O178 1.209 . S
C173 O180 1.226 . S
O174 Cd170 2.273 1_556 S
O174 Cd172 2.411 1_556 S
O174 C177 1.320 1_556 S
O175 Cd172 2.333 . S
O175 C177 1.214 . S
O176 Cd172 2.352 1_556 S
O176 C179 1.258 . S
C177 O174 1.320 1_554 S
C177 O175 1.214 . S
O178 Cd170 2.277 . S
O178 C173 1.209 . S
C179 O176 1.258 . S
C179 O181 1.282 . S
O180 Cd172 2.277 . S
O180 C173 1.226 . S
O181 Cd172 2.356 1_556 S
O181 C179 1.282 . S
C182 O183 1.306 . S
C182 O185 1.160 . S
O183 C182 1.306 . S
O183 Cd184 2.228 . S
Cd184 O183 2.228 . S
Cd184 O188 2.273 . S
Cd184 O192 2.277 . S
O185 C182 1.160 . S
O185 Cd186 2.203 . S
Cd186 O185 2.203 . S
Cd186 O188 2.411 . S
Cd186 O189 2.333 . S
Cd186 O190 2.352 . S
Cd186 O194 2.277 . S
Cd186 O195 2.356 . S
C187 O192 1.209 . S
C187 O194 1.226 . S
O188 Cd184 2.273 . S
O188 Cd186 2.411 . S
O188 C191 1.320 . S
O189 Cd186 2.333 . S
O189 C191 1.214 . S
O190 Cd186 2.352 . S
O190 C193 1.258 . S
C191 O188 1.320 . S
C191 O189 1.214 . S
O192 Cd184 2.277 . S
O192 C187 1.209 . S
C193 O190 1.258 . S
C193 O195 1.282 . S
O194 Cd186 2.277 . S
O194 C187 1.226 . S
O195 Cd186 2.356 . S
O195 C193 1.282 . S
C196 O197 1.306 . S
C196 O199 1.160 . S
O197 C196 1.306 . S
O197 Cd198 2.228 . S
Cd198 O197 2.228 . S
Cd198 O202 2.273 . S
Cd198 O206 2.277 . S
O199 C196 1.160 . S
O199 Cd200 2.203 . S
Cd200 O199 2.203 . S
Cd200 O202 2.411 . S
Cd200 O203 2.333 . S
Cd200 O204 2.352 . S
Cd200 O208 2.277 . S
Cd200 O209 2.356 . S
C201 O206 1.209 . S
C201 O208 1.226 . S
O202 Cd198 2.273 . S
O202 Cd200 2.411 . S
O202 C205 1.320 . S
O203 Cd200 2.333 . S
O203 C205 1.214 . S
O204 Cd200 2.352 . S
O204 C207 1.258 . S
C205 O202 1.320 . S
C205 O203 1.214 . S
O206 Cd198 2.277 . S
O206 C201 1.209 . S
C207 O204 1.258 . S
C207 O209 1.282 . S
O208 Cd200 2.277 . S
O208 C201 1.226 . S
O209 Cd200 2.356 . S
O209 C207 1.282 . S
C210 O211 1.306 . S
C210 O213 1.160 . S
O211 C210 1.306 . S
O211 Cd212 2.228 . S
Cd212 O211 2.228 . S
Cd212 O216 2.273 . S
Cd212 O220 2.277 . S
O213 C210 1.160 . S
O213 Cd214 2.203 . S
Cd214 O213 2.203 . S
Cd214 O216 2.411 . S
Cd214 O217 2.333 . S
Cd214 O218 2.352 . S
Cd214 O222 2.277 . S
Cd214 O223 2.356 . S
C215 O220 1.209 . S
C215 O222 1.226 . S
O216 Cd212 2.273 . S
O216 Cd214 2.411 . S
O216 C219 1.320 . S
O217 Cd214 2.333 . S
O217 C219 1.214 . S
O218 Cd214 2.352 . S
O218 C221 1.258 . S
C219 O216 1.320 . S
C219 O217 1.214 . S
O220 Cd212 2.277 . S
O220 C215 1.209 . S
C221 O218 1.258 . S
C221 O223 1.282 . S
O222 Cd214 2.277 . S
O222 C215 1.226 . S
O223 Cd214 2.356 . S
O223 C221 1.282 . S
C224 C225 1.369 . S
C224 C226 1.419 . S
C224 H228 0.930 . S
C225 C224 1.369 . S
C225 C234 1.429 . S
C226 C224 1.419 . S
C226 C227 1.363 . S
C226 H229 0.929 . S
C227 C226 1.363 . S
C227 C233 1.428 . S
H228 C224 0.930 . S
H229 C226 0.929 . S
S230 N231 1.613 . S
S230 N232 1.610 . S
N231 S230 1.613 . S
N231 C234 1.350 . S
N232 S230 1.610 . S
N232 C233 1.351 . S
C233 C227 1.428 . S
C233 N232 1.351 . S
C233 C234 1.434 . S
C234 C225 1.429 . S
C234 N231 1.350 . S
C234 C233 1.434 . S
C235 C236 1.369 . S
C235 C237 1.419 . S
C235 H239 0.930 . S
C236 C235 1.369 . S
C236 C245 1.429 . S
C237 C235 1.419 . S
C237 C238 1.363 . S
C237 H240 0.929 . S
C238 C237 1.363 . S
C238 C244 1.428 . S
H239 C235 0.930 . S
H240 C237 0.929 . S
S241 N242 1.613 . S
S241 N243 1.610 1_545 S
N242 S241 1.613 . S
N242 C245 1.350 1_545 S
N243 S241 1.610 1_565 S
N243 C244 1.351 . S
C244 C238 1.428 . S
C244 N243 1.351 . S
C244 C245 1.434 . S
C245 C236 1.429 . S
C245 N242 1.350 1_565 S
C245 C244 1.434 . S
C246 C247 1.369 . S
C246 C248 1.419 . S
C246 H250 0.930 . S
C247 C246 1.369 . S
C247 C256 1.429 . S
C248 C246 1.419 . S
C248 C249 1.363 . S
C248 H251 0.929 . S
C249 C248 1.363 . S
C249 C255 1.428 . S
H250 C246 0.930 . S
H251 C248 0.929 . S
S252 N253 1.613 . S
S252 N254 1.610 . S
N253 S252 1.613 . S
N253 C256 1.350 . S
N254 S252 1.610 . S
N254 C255 1.351 . S
C255 C249 1.428 . S
C255 N254 1.351 . S
C255 C256 1.434 . S
C256 C247 1.429 . S
C256 N253 1.350 . S
C256 C255 1.434 . S
C257 C258 1.369 . S
C257 C259 1.419 . S
C257 H261 0.930 . S
C258 C257 1.369 . S
C258 C267 1.429 . S
C259 C257 1.419 . S
C259 C260 1.363 . S
C259 H262 0.929 . S
C260 C259 1.363 . S
C260 C266 1.428 . S
H261 C257 0.930 . S
H262 C259 0.929 . S
S263 N264 1.613 . S
S263 N265 1.610 . S
N264 S263 1.613 . S
N264 C267 1.350 . S
N265 S263 1.610 . S
N265 C266 1.351 . S
C266 C260 1.428 . S
C266 N265 1.351 . S
C266 C267 1.434 . S
C267 C258 1.429 . S
C267 N264 1.350 . S
C267 C266 1.434 . S
C268 C269 1.369 . S
C268 C270 1.419 . S
C268 H272 0.930 . S
C269 C268 1.369 . S
C269 C278 1.429 . S
C270 C268 1.419 . S
C270 C271 1.363 . S
C270 H273 0.929 . S
C271 C270 1.363 . S
C271 C277 1.428 . S
H272 C268 0.930 . S
H273 C270 0.929 . S
S274 N275 1.613 . S
S274 N276 1.610 . S
N275 S274 1.613 . S
N275 C278 1.350 . S
N276 S274 1.610 . S
N276 C277 1.351 . S
C277 C271 1.428 . S
C277 N276 1.351 . S
C277 C278 1.434 . S
C278 C269 1.429 . S
C278 N275 1.350 . S
C278 C277 1.434 . S
C279 C280 1.369 . S
C279 C281 1.419 . S
C279 H283 0.930 . S
C280 C279 1.369 . S
C280 C289 1.429 . S
C281 C279 1.419 . S
C281 C282 1.363 . S
C281 H284 0.929 . S
C282 C281 1.363 . S
C282 C288 1.428 . S
H283 C279 0.930 . S
H284 C281 0.929 . S
S285 N286 1.613 . S
S285 N287 1.610 . S
N286 S285 1.613 . S
N286 C289 1.350 . S
N287 S285 1.610 . S
N287 C288 1.351 . S
C288 C282 1.428 . S
C288 N287 1.351 . S
C288 C289 1.434 . S
C289 C280 1.429 . S
C289 N286 1.350 . S
C289 C288 1.434 . S
C290 C291 1.369 . S
C290 C292 1.419 . S
C290 H294 0.930 . S
C291 C290 1.369 . S
C291 C300 1.429 . S
C292 C290 1.419 . S
C292 C293 1.363 . S
C292 H295 0.929 . S
C293 C292 1.363 . S
C293 C299 1.428 . S
H294 C290 0.930 . S
H295 C292 0.929 . S
S296 N297 1.613 . S
S296 N298 1.610 . S
N297 S296 1.613 . S
N297 C300 1.350 . S
N298 S296 1.610 . S
N298 C299 1.351 . S
C299 C293 1.428 . S
C299 N298 1.351 . S
C299 C300 1.434 . S
C300 C291 1.429 . S
C300 N297 1.350 . S
C300 C299 1.434 . S
C301 C302 1.369 . S
C301 C303 1.419 . S
C301 H305 0.930 . S
C302 C301 1.369 . S
C302 C311 1.429 . S
C303 C301 1.419 . S
C303 C304 1.363 . S
C303 H306 0.929 . S
C304 C303 1.363 . S
C304 C310 1.428 . S
H305 C301 0.930 . S
H306 C303 0.929 . S
S307 N308 1.613 . S
S307 N309 1.610 . S
N308 S307 1.613 . S
N308 C311 1.350 . S
N309 S307 1.610 . S
N309 C310 1.351 . S
C310 C304 1.428 . S
C310 N309 1.351 . S
C310 C311 1.434 . S
C311 C302 1.429 . S
C311 N308 1.350 . S
C311 C310 1.434 . S
C312 C313 1.369 . S
C312 C314 1.419 . S
C312 H316 0.930 . S
C313 C312 1.369 . S
C313 C322 1.429 . S
C314 C312 1.419 . S
C314 C315 1.363 . S
C314 H317 0.929 . S
C315 C314 1.363 . S
C315 C321 1.428 . S
H316 C312 0.930 . S
H317 C314 0.929 . S
S318 N319 1.613 . S
S318 N320 1.610 . S
N319 S318 1.613 . S
N319 C322 1.350 . S
N320 S318 1.610 . S
N320 C321 1.351 . S
C321 C315 1.428 . S
C321 N320 1.351 . S
C321 C322 1.434 . S
C322 C313 1.429 . S
C322 N319 1.350 . S
C322 C321 1.434 . S
C323 C324 1.369 1_545 S
C323 C325 1.419 . S
C323 H327 0.930 . S
C324 C323 1.369 1_565 S
C324 C333 1.429 . S
C325 C323 1.419 . S
C325 C326 1.363 . S
C325 H328 0.929 . S
C326 C325 1.363 . S
C326 C332 1.428 1_545 S
H327 C323 0.930 . S
H328 C325 0.929 . S
S329 N330 1.613 . S
S329 N331 1.610 . S
N330 S329 1.613 . S
N330 C333 1.350 . S
N331 S329 1.610 . S
N331 C332 1.351 . S
C332 C326 1.428 1_565 S
C332 N331 1.351 . S
C332 C333 1.434 . S
C333 C324 1.429 . S
C333 N330 1.350 . S
C333 C332 1.434 . S
C334 C335 1.369 . S
C334 C336 1.419 1_556 S
C334 H338 0.930 . S
C335 C334 1.369 . S
C335 C344 1.429 . S
C336 C334 1.419 1_554 S
C336 C337 1.363 . S
C336 H339 0.929 . S
C337 C336 1.363 . S
C337 C343 1.428 . S
H338 C334 0.930 . S
H339 C336 0.929 . S
S340 N341 1.613 1_554 S
S340 N342 1.610 . S
N341 S340 1.613 1_556 S
N341 C344 1.350 . S
N342 S340 1.610 . S
N342 C343 1.351 . S
C343 C337 1.428 . S
C343 N342 1.351 . S
C343 C344 1.434 1_554 S
C344 C335 1.429 . S
C344 N341 1.350 . S
C344 C343 1.434 1_556 S
C345 C346 1.369 . S
C345 C347 1.419 . S
C345 H349 0.930 . S
C346 C345 1.369 . S
C346 C355 1.429 1_545 S
C347 C345 1.419 . S
C347 C348 1.363 1_545 S
C347 H350 0.929 . S
C348 C347 1.363 1_565 S
C348 C354 1.428 . S
H349 C345 0.930 . S
H350 C347 0.929 . S
S351 N352 1.613 . S
S351 N353 1.610 . S
N352 S351 1.613 . S
N352 C355 1.350 . S
N353 S351 1.610 . S
N353 C354 1.351 . S
C354 C348 1.428 . S
C354 N353 1.351 . S
C354 C355 1.434 . S
C355 C346 1.429 1_565 S
C355 N352 1.350 . S
C355 C354 1.434 . S
C356 C357 1.369 . S
C356 C358 1.419 . S
C356 H360 0.930 . S
C357 C356 1.369 . S
C357 C366 1.429 . S
C358 C356 1.419 . S
C358 C359 1.363 . S
C358 H361 0.929 . S
C359 C358 1.363 . S
C359 C365 1.428 . S
H360 C356 0.930 . S
H361 C358 0.929 . S
S362 N363 1.613 . S
S362 N364 1.610 . S
N363 S362 1.613 . S
N363 C366 1.350 . S
N364 S362 1.610 . S
N364 C365 1.351 . S
C365 C359 1.428 . S
C365 N364 1.351 . S
C365 C366 1.434 . S
C366 C357 1.429 . S
C366 N363 1.350 . S
C366 C365 1.434 . S
C367 C368 1.369 . S
C367 C369 1.421 . S
C367 H371 0.930 . S
C368 C367 1.369 . S
C368 C377 1.429 1_655 S
C369 C367 1.421 . S
C369 C370 1.360 1_655 S
C369 H372 0.930 . S
C370 C369 1.360 1_455 S
C370 C376 1.428 . S
H371 C367 0.930 . S
H372 C369 0.930 . S
S373 N374 1.613 . S
S373 N375 1.610 . S
N374 S373 1.613 . S
N374 C377 1.350 . S
N375 S373 1.610 . S
N375 C376 1.351 . S
C376 C370 1.428 . S
C376 N375 1.351 . S
C376 C377 1.434 . S
C377 C368 1.429 1_455 S
C377 N374 1.350 . S
C377 C376 1.434 . S
C378 C379 1.369 . S
C378 C380 1.419 1_655 S
C378 H382 0.930 . S
C379 C378 1.369 . S
C379 C388 1.429 . S
C380 C378 1.419 1_455 S
C380 C381 1.363 . S
C380 H383 0.929 . S
C381 C380 1.363 . S
C381 C387 1.428 . S
H382 C378 0.930 . S
H383 C380 0.929 . S
S384 N385 1.613 . S
S384 N386 1.610 1_655 S
N385 S384 1.613 . S
N385 C388 1.350 . S
N386 S384 1.610 1_455 S
N386 C387 1.351 . S
C387 C381 1.428 . S
C387 N386 1.351 . S
C387 C388 1.434 1_455 S
C388 C379 1.429 . S
C388 N385 1.350 . S
C388 C387 1.434 1_655 S
C389 C390 1.369 1_556 S
C389 C391 1.419 . S
C389 H393 0.930 . S
C390 C389 1.369 1_554 S
C390 C399 1.429 . S
C391 C389 1.419 . S
C391 C392 1.363 1_556 S
C391 H394 0.929 . S
C392 C391 1.363 1_554 S
C392 C398 1.428 . S
H393 C389 0.930 . S
H394 C391 0.929 . S
S395 N396 1.613 . S
S395 N397 1.610 . S
N396 S395 1.613 . S
N396 C399 1.350 . S
N397 S395 1.610 . S
N397 C398 1.351 . S
C398 C392 1.428 . S
C398 N397 1.351 . S
C398 C399 1.434 . S
C399 C390 1.429 . S
C399 N396 1.350 . S
C399 C398 1.434 . S
C400 C401 1.369 . S
C400 C402 1.419 . S
C400 H404 0.930 . S
C401 C400 1.369 . S
C401 C410 1.429 . S
C402 C400 1.419 . S
C402 C403 1.363 . S
C402 H405 0.929 . S
C403 C402 1.363 . S
C403 C409 1.428 . S
H404 C400 0.930 . S
H405 C402 0.929 . S
S406 N407 1.613 . S
S406 N408 1.610 . S
N407 S406 1.613 . S
N407 C410 1.350 . S
N408 S406 1.610 . S
N408 C409 1.351 . S
C409 C403 1.428 . S
C409 N408 1.351 . S
C409 C410 1.434 . S
C410 C401 1.429 . S
C410 N407 1.350 . S
C410 C409 1.434 . S
C411 C412 1.369 . S
C411 C413 1.419 . S
C411 H415 0.930 . S
C412 C411 1.369 . S
C412 C421 1.429 . S
C413 C411 1.419 . S
C413 C414 1.363 . S
C413 H416 0.929 . S
C414 C413 1.363 . S
C414 C420 1.428 . S
H415 C411 0.930 . S
H416 C413 0.929 . S
S417 N418 1.613 . S
S417 N419 1.610 . S
N418 S417 1.613 . S
N418 C421 1.350 . S
N419 S417 1.610 . S
N419 C420 1.351 . S
C420 C414 1.428 . S
C420 N419 1.351 . S
C420 C421 1.434 . S
C421 C412 1.429 . S
C421 N418 1.350 . S
C421 C420 1.434 . S
C422 C423 1.369 . S
C422 C424 1.419 1_455 S
C422 H426 0.930 . S
C423 C422 1.369 . S
C423 C432 1.429 . S
C424 C422 1.419 1_655 S
C424 C425 1.363 . S
C424 H427 0.929 . S
C425 C424 1.363 . S
C425 C431 1.428 . S
H426 C422 0.930 . S
H427 C424 0.929 . S
S428 N429 1.613 1_655 S
S428 N430 1.610 . S
N429 S428 1.613 1_455 S
N429 C432 1.350 . S
N430 S428 1.610 . S
N430 C431 1.351 . S
C431 C425 1.428 . S
C431 N430 1.351 . S
C431 C432 1.434 1_655 S
C432 C423 1.429 . S
C432 N429 1.350 . S
C432 C431 1.434 1_455 S
C433 C434 1.369 1_655 S
C433 C435 1.419 . S
C433 H437 0.930 . S
C434 C433 1.369 1_455 S
C434 C443 1.429 1_556 S
C435 C433 1.419 . S
C435 C436 1.363 . S
C435 H438 0.929 . S
C436 C435 1.363 . S
C436 C442 1.428 1_656 S
H437 C433 0.930 . S
H438 C435 0.929 . S
S439 N440 1.613 . S
S439 N441 1.610 . S
N440 S439 1.613 . S
N440 C443 1.350 . S
N441 S439 1.610 . S
N441 C442 1.351 . S
C442 C436 1.428 1_454 S
C442 N441 1.351 . S
C442 C443 1.434 . S
C443 C434 1.429 1_554 S
C443 N440 1.350 . S
C443 C442 1.434 . S
C444 C445 1.369 . S
C444 C446 1.419 . S
C444 H448 0.930 . S
C445 C444 1.369 . S
C445 C454 1.429 . S
C446 C444 1.419 . S
C446 C447 1.363 . S
C446 H449 0.929 . S
C447 C446 1.363 . S
C447 C453 1.428 . S
H448 C444 0.930 . S
H449 C446 0.929 . S
S450 N451 1.613 . S
S450 N452 1.610 . S
N451 S450 1.613 . S
N451 C454 1.350 . S
N452 S450 1.610 . S
N452 C453 1.351 . S
C453 C447 1.428 . S
C453 N452 1.351 . S
C453 C454 1.434 . S
C454 C445 1.429 . S
C454 N451 1.350 . S
C454 C453 1.434 . S
C455 C456 1.369 . S
C455 C457 1.419 1_545 S
C455 H459 0.930 . S
C456 C455 1.369 . S
C456 C465 1.429 . S
C457 C455 1.419 1_565 S
C457 C458 1.363 . S
C457 H460 0.929 . S
C458 C457 1.363 . S
C458 C464 1.428 . S
H459 C455 0.930 . S
H460 C457 0.929 . S
S461 N462 1.613 . S
S461 N463 1.610 1_545 S
N462 S461 1.613 . S
N462 C465 1.350 . S
N463 S461 1.610 1_565 S
N463 C464 1.351 . S
C464 C458 1.428 . S
C464 N463 1.351 . S
C464 C465 1.434 1_565 S
C465 C456 1.429 . S
C465 N462 1.350 . S
C465 C464 1.434 1_545 S
C466 C467 1.369 1_554 S
C466 C468 1.419 . S
C466 H470 0.930 . S
C467 C466 1.369 1_556 S
C467 C476 1.429 . S
C468 C466 1.419 . S
C468 C469 1.363 . S
C468 H471 0.929 . S
C469 C468 1.363 . S
C469 C475 1.428 1_554 S
H470 C466 0.930 . S
H471 C468 0.929 . S
S472 N473 1.613 . S
S472 N474 1.610 . S
N473 S472 1.613 . S
N473 C476 1.350 . S
N474 S472 1.610 . S
N474 C475 1.351 . S
C475 C469 1.428 1_556 S
C475 N474 1.351 . S
C475 C476 1.434 . S
C476 C467 1.429 . S
C476 N473 1.350 . S
C476 C475 1.434 . S
C477 C478 1.369 . S
C477 C479 1.419 1_545 S
C477 H481 0.930 . S
C478 C477 1.369 . S
C478 C487 1.429 . S
C479 C477 1.419 1_565 S
C479 C480 1.363 . S
C479 H482 0.929 . S
C480 C479 1.363 . S
C480 C486 1.428 . S
H481 C477 0.930 . S
H482 C479 0.929 . S
S483 N484 1.613 . S
S483 N485 1.610 1_545 S
N484 S483 1.613 . S
N484 C487 1.350 . S
N485 S483 1.610 1_565 S
N485 C486 1.351 . S
C486 C480 1.428 . S
C486 N485 1.351 . S
C486 C487 1.434 1_565 S
C487 C478 1.429 . S
C487 N484 1.350 . S
C487 C486 1.434 1_545 S
C488 C489 1.369 . S
C488 C490 1.419 . S
C488 H492 0.930 1_545 S
C489 C488 1.369 . S
C489 C498 1.429 1_554 S
C490 C488 1.419 . S
C490 C491 1.363 1_554 S
C490 H493 0.929 1_545 S
C491 C490 1.363 1_556 S
C491 C497 1.428 . S
H492 C488 0.930 1_565 S
H493 C490 0.929 1_565 S
S494 N495 1.613 . S
S494 N496 1.610 . S
N495 S494 1.613 . S
N495 C498 1.350 . S
N496 S494 1.610 . S
N496 C497 1.351 . S
C497 C491 1.428 . S
C497 N496 1.351 . S
C497 C498 1.434 . S
C498 C489 1.429 1_556 S
C498 N495 1.350 . S
C498 C497 1.434 . S
C499 C500 1.369 . S
C499 C501 1.419 . S
C499 H503 0.930 . S
C500 C499 1.369 . S
C500 C509 1.429 . S
C501 C499 1.419 . S
C501 C502 1.363 . S
C501 H504 0.929 . S
C502 C501 1.363 . S
C502 C508 1.428 . S
H503 C499 0.930 . S
H504 C501 0.929 . S
S505 N506 1.613 . S
S505 N507 1.610 . S
N506 S505 1.613 . S
N506 C509 1.350 . S
N507 S505 1.610 . S
N507 C508 1.351 . S
C508 C502 1.428 . S
C508 N507 1.351 . S
C508 C509 1.434 . S
C509 C500 1.429 . S
C509 N506 1.350 . S
C509 C508 1.434 . S
C510 C511 1.369 . S
C510 C512 1.419 . S
C510 H514 0.930 . S
C511 C510 1.369 . S
C511 C520 1.429 . S
C512 C510 1.419 . S
C512 C513 1.363 . S
C512 H515 0.929 . S
C513 C512 1.363 . S
C513 C519 1.428 . S
H514 C510 0.930 . S
H515 C512 0.929 . S
S516 N517 1.613 . S
S516 N518 1.610 . S
N517 S516 1.613 . S
N517 C520 1.350 . S
N518 S516 1.610 . S
N518 C519 1.351 . S
C519 C513 1.428 . S
C519 N518 1.351 . S
C519 C520 1.434 . S
C520 C511 1.429 . S
C520 N517 1.350 . S
C520 C519 1.434 . S
C521 C522 1.369 . S
C521 C523 1.419 1_556 S
C521 H525 0.930 . S
C522 C521 1.369 . S
C522 C531 1.429 . S
C523 C521 1.419 1_554 S
C523 C524 1.363 . S
C523 H526 0.929 . S
C524 C523 1.363 . S
C524 C530 1.428 . S
H525 C521 0.930 . S
H526 C523 0.929 . S
S527 N528 1.613 1_554 S
S527 N529 1.610 . S
N528 S527 1.613 1_556 S
N528 C531 1.350 . S
N529 S527 1.610 . S
N529 C530 1.351 . S
C530 C524 1.428 . S
C530 N529 1.351 . S
C530 C531 1.434 1_554 S
C531 C522 1.429 . S
C531 N528 1.350 . S
C531 C530 1.434 1_556 S
C532 C533 1.369 . S
C532 C534 1.419 . S
C532 H536 0.930 . S
C533 C532 1.369 . S
C533 C542 1.429 . S
C534 C532 1.419 . S
C534 C535 1.363 . S
C534 H537 0.929 . S
C535 C534 1.363 . S
C535 C541 1.428 . S
H536 C532 0.930 . S
H537 C534 0.929 . S
S538 N539 1.613 . S
S538 N540 1.610 . S
N539 S538 1.613 . S
N539 C542 1.350 . S
N540 S538 1.610 . S
N540 C541 1.351 . S
C541 C535 1.428 . S
C541 N540 1.351 . S
C541 C542 1.434 . S
C542 C533 1.429 . S
C542 N539 1.350 . S
C542 C541 1.434 . S
C543 C544 1.369 . S
C543 C545 1.419 . S
C543 H547 0.930 . S
C544 C543 1.369 . S
C544 C553 1.429 . S
C545 C543 1.419 . S
C545 C546 1.363 . S
C545 H548 0.929 . S
C546 C545 1.363 . S
C546 C552 1.428 . S
H547 C543 0.930 . S
H548 C545 0.929 . S
S549 N550 1.613 . S
S549 N551 1.610 . S
N550 S549 1.613 . S
N550 C553 1.350 . S
N551 S549 1.610 . S
N551 C552 1.351 . S
C552 C546 1.428 . S
C552 N551 1.351 . S
C552 C553 1.434 . S
C553 C544 1.429 . S
C553 N550 1.350 . S
C553 C552 1.434 . S
C554 C555 1.369 . S
C554 C556 1.419 . S
C554 H558 0.930 . S
C555 C554 1.369 . S
C555 C564 1.429 . S
C556 C554 1.419 . S
C556 C557 1.363 . S
C556 H559 0.929 . S
C557 C556 1.363 . S
C557 C563 1.428 . S
H558 C554 0.930 . S
H559 C556 0.929 . S
S560 N561 1.613 . S
S560 N562 1.610 . S
N561 S560 1.613 . S
N561 C564 1.350 . S
N562 S560 1.610 . S
N562 C563 1.351 . S
C563 C557 1.428 . S
C563 N562 1.351 . S
C563 C564 1.434 . S
C564 C555 1.429 . S
C564 N561 1.350 . S
C564 C563 1.434 . S
C565 C566 1.369 . S
C565 C567 1.419 . S
C565 H569 0.930 . S
C566 C565 1.369 . S
C566 C575 1.429 1_565 S
C567 C565 1.419 . S
C567 C568 1.363 . S
C567 H570 0.929 . S
C568 C567 1.363 . S
C568 C574 1.428 1_565 S
H569 C565 0.930 . S
H570 C567 0.929 . S
S571 N572 1.613 . S
S571 N573 1.610 . S
N572 S571 1.613 . S
N572 C575 1.350 . S
N573 S571 1.610 . S
N573 C574 1.351 . S
C574 C568 1.428 1_545 S
C574 N573 1.351 . S
C574 C575 1.434 . S
C575 C566 1.429 1_545 S
C575 N572 1.350 . S
C575 C574 1.434 . S
C225 C11 1.762 . S
C227 C109 1.758 . S
C236 C25 1.760 . S
C238 C67 1.763 . S
C247 C81 1.764 . S
C249 C39 1.758 . S
C258 C53 1.758 . S
C260 C95 1.763 . S
C269 C123 1.763 . S
C271 C179 1.758 . S
C280 C137 1.757 . S
C282 C207 1.763 . S
C291 C165 1.760 . S
C293 C151 1.759 . S
C302 C221 1.764 . S
C304 C193 1.760 . S
C313 C9 1.651 . S
C315 C93 1.653 . S
C324 C103 1.353 . S
C326 C19 1.354 . S
C335 C37 1.653 . S
C337 C65 1.650 . S
C346 C75 1.354 . S
C348 C47 1.353 . S
C357 C0 1.063 . S
C359 C196 1.073 . S
C368 C163 1.650 . S
C370 C23 1.652 . S
C379 C182 1.069 . S
C381 C28 1.076 . S
C390 C177 1.651 . S
C392 C51 1.652 . S
C401 C140 1.078 . S
C403 C56 1.071 . S
C412 C79 1.650 . S
C414 C219 1.653 . S
C423 C84 1.065 . S
C425 C112 1.066 . S
C434 C107 1.654 . S
C436 C135 1.649 . S
C445 C5 1.354 . S
C447 C61 1.353 . S
C456 C117 1.354 . S
C458 C187 1.353 . S
C467 C168 1.078 . S
C469 C126 1.071 . S
C478 C201 1.354 . S
C480 C145 1.353 . S
C489 C98 1.071 . S
C491 C42 1.076 . S
C500 C33 1.353 . S
C502 C89 1.354 . S
C511 C154 1.076 . S
C513 C210 1.066 . S
C522 C191 1.651 . S
C524 C149 1.651 . S
C533 C215 1.353 . S
C535 C173 1.354 . S
C544 C205 1.651 . S
C546 C121 1.653 . S
C555 C159 1.353 . S
C557 C131 1.354 . S
C566 C14 1.063 . S
C568 C70 1.068 . S
