# Generated by pormake.
# Topology zfn, (5)-cn, num edge types: 1
# Building blocks:
#     Node 0, Type 0, BuildingBlock: BEQFEK_clean_sbu_0, # of connection points: 5
#     Node 1, Type 0, BuildingBlock: BEQFEK_clean_sbu_0, # of connection points: 5
#     Node 2, Type 0, BuildingBlock: BEQFEK_clean_sbu_0, # of connection points: 5
#     Node 3, Type 0, BuildingBlock: BEQFEK_clean_sbu_0, # of connection points: 5
#     Node 4, Type 0, BuildingBlock: BEQFEK_clean_sbu_0, # of connection points: 5
#     Node 5, Type 0, BuildingBlock: BEQFEK_clean_sbu_0, # of connection points: 5
#     Node 6, Type 0, BuildingBlock: BEQFEK_clean_sbu_0, # of connection points: 5
#     Node 7, Type 0, BuildingBlock: BEQFEK_clean_sbu_0, # of connection points: 5
#     Node 8, Type 0, BuildingBlock: BEQFEK_clean_sbu_0, # of connection points: 5
#     Node 9, Type 0, BuildingBlock: BEQFEK_clean_sbu_0, # of connection points: 5
#     Node 10, Type 0, BuildingBlock: BEQFEK_clean_sbu_0, # of connection points: 5
#     Node 11, Type 0, BuildingBlock: BEQFEK_clean_sbu_0, # of connection points: 5
#     Node 12, Type 0, BuildingBlock: BEQFEK_clean_sbu_0, # of connection points: 5
#     Node 13, Type 0, BuildingBlock: BEQFEK_clean_sbu_0, # of connection points: 5
#     Node 14, Type 0, BuildingBlock: BEQFEK_clean_sbu_0, # of connection points: 5
#     Node 15, Type 0, BuildingBlock: BEQFEK_clean_sbu_0, # of connection points: 5
#     Edge 16, Type (0, 0), BuildingBlock: KIFKEQ_clean_linker_1, # of connection points: 2
#     Edge 17, Type (0, 0), BuildingBlock: KIFKEQ_clean_linker_1, # of connection points: 2
#     Edge 18, Type (0, 0), BuildingBlock: KIFKEQ_clean_linker_1, # of connection points: 2
#     Edge 19, Type (0, 0), BuildingBlock: KIFKEQ_clean_linker_1, # of connection points: 2
#     Edge 20, Type (0, 0), BuildingBlock: KIFKEQ_clean_linker_1, # of connection points: 2
#     Edge 21, Type (0, 0), BuildingBlock: KIFKEQ_clean_linker_1, # of connection points: 2
#     Edge 22, Type (0, 0), BuildingBlock: KIFKEQ_clean_linker_1, # of connection points: 2
#     Edge 23, Type (0, 0), BuildingBlock: KIFKEQ_clean_linker_1, # of connection points: 2
#     Edge 24, Type (0, 0), BuildingBlock: KIFKEQ_clean_linker_1, # of connection points: 2
#     Edge 25, Type (0, 0), BuildingBlock: KIFKEQ_clean_linker_1, # of connection points: 2
#     Edge 26, Type (0, 0), BuildingBlock: KIFKEQ_clean_linker_1, # of connection points: 2
#     Edge 27, Type (0, 0), BuildingBlock: KIFKEQ_clean_linker_1, # of connection points: 2
#     Edge 28, Type (0, 0), BuildingBlock: KIFKEQ_clean_linker_1, # of connection points: 2
#     Edge 29, Type (0, 0), BuildingBlock: KIFKEQ_clean_linker_1, # of connection points: 2
#     Edge 30, Type (0, 0), BuildingBlock: KIFKEQ_clean_linker_1, # of connection points: 2
#     Edge 31, Type (0, 0), BuildingBlock: KIFKEQ_clean_linker_1, # of connection points: 2
#     Edge 32, Type (0, 0), BuildingBlock: KIFKEQ_clean_linker_1, # of connection points: 2
#     Edge 33, Type (0, 0), BuildingBlock: KIFKEQ_clean_linker_1, # of connection points: 2
#     Edge 34, Type (0, 0), BuildingBlock: KIFKEQ_clean_linker_1, # of connection points: 2
#     Edge 35, Type (0, 0), BuildingBlock: KIFKEQ_clean_linker_1, # of connection points: 2
#     Edge 36, Type (0, 0), BuildingBlock: KIFKEQ_clean_linker_1, # of connection points: 2
#     Edge 37, Type (0, 0), BuildingBlock: KIFKEQ_clean_linker_1, # of connection points: 2
#     Edge 38, Type (0, 0), BuildingBlock: KIFKEQ_clean_linker_1, # of connection points: 2
#     Edge 39, Type (0, 0), BuildingBlock: KIFKEQ_clean_linker_1, # of connection points: 2
#     Edge 40, Type (0, 0), BuildingBlock: KIFKEQ_clean_linker_1, # of connection points: 2
#     Edge 41, Type (0, 0), BuildingBlock: KIFKEQ_clean_linker_1, # of connection points: 2
#     Edge 42, Type (0, 0), BuildingBlock: KIFKEQ_clean_linker_1, # of connection points: 2
#     Edge 43, Type (0, 0), BuildingBlock: KIFKEQ_clean_linker_1, # of connection points: 2
#     Edge 44, Type (0, 0), BuildingBlock: KIFKEQ_clean_linker_1, # of connection points: 2
#     Edge 45, Type (0, 0), BuildingBlock: KIFKEQ_clean_linker_1, # of connection points: 2
#     Edge 46, Type (0, 0), BuildingBlock: KIFKEQ_clean_linker_1, # of connection points: 2
#     Edge 47, Type (0, 0), BuildingBlock: KIFKEQ_clean_linker_1, # of connection points: 2
#     Edge 48, Type (0, 0), BuildingBlock: KIFKEQ_clean_linker_1, # of connection points: 2
#     Edge 49, Type (0, 0), BuildingBlock: KIFKEQ_clean_linker_1, # of connection points: 2
#     Edge 50, Type (0, 0), BuildingBlock: KIFKEQ_clean_linker_1, # of connection points: 2
#     Edge 51, Type (0, 0), BuildingBlock: KIFKEQ_clean_linker_1, # of connection points: 2
#     Edge 52, Type (0, 0), BuildingBlock: KIFKEQ_clean_linker_1, # of connection points: 2
#     Edge 53, Type (0, 0), BuildingBlock: KIFKEQ_clean_linker_1, # of connection points: 2
#     Edge 54, Type (0, 0), BuildingBlock: KIFKEQ_clean_linker_1, # of connection points: 2
#     Edge 55, Type (0, 0), BuildingBlock: KIFKEQ_clean_linker_1, # of connection points: 2
# Relax obj value: 0.137
# Max RMSD: 0.172
# Mean RMSD: 0.172
data_MOF--net-zfn--node1-BEQFEK_clean_sbu_0--edge1-KIFKEQ_clean_linker_1
_symmetry_space_group_name_H-M    P1
_symmetry_Int_Tables_number       1
_symmetry_cell_setting            triclinic
loop_
_symmetry_equiv_pos_as_xyz
'x, y, z'
_cell_length_a     75.389619
_cell_length_b     75.388296
_cell_length_c     19.286806
_cell_angle_alpha  89.997499
_cell_angle_beta   90.017491
_cell_angle_gamma 90.017205
loop_
_atom_site_label
_atom_site_type_symbol
_atom_site_fract_x
_atom_site_fract_y
_atom_site_fract_z
_atom_type_partial_charge
Co0 Co 0.99792 0.35785 0.05824 0.0
Co1 Co 0.00887 0.36752 0.21029 0.0
C2 C 0.97522 0.38132 0.14314 0.0
O3 O 0.97755 0.37252 0.08754 0.0
O4 O 0.98644 0.38073 0.19253 0.0
C5 C 0.98247 0.35418 0.92222 0.0
O6 O 0.96979 0.36445 0.9461 0.0
C7 C 0.00376 0.36939 0.36117 0.0
C8 C 0.03133 0.36715 0.39902 0.0
C9 C 0.01384 0.36767 0.42111 0.0
N10 N 0.01477 0.36922 0.30632 0.0
N11 N 0.03124 0.36824 0.32938 0.0
C12 C 0.98405 0.37149 0.35543 0.0
H13 H 0.98096 0.38246 0.31927 0.0
H14 H 0.97819 0.35914 0.33408 0.0
H15 H 0.97789 0.37467 0.40608 0.0
C16 C 0.00097 0.32147 0.11426 0.0
N17 N 0.00193 0.33921 0.12138 0.0
N18 N 0.00643 0.34312 0.1855 0.0
C19 C 0.00844 0.32789 0.22143 0.0
C20 C 0.0051 0.31369 0.17744 0.0
C21 C 0.99683 0.31234 0.04728 0.0
H22 H 0.00587 0.31735 0.00632 0.0
H23 H 0.98307 0.31564 0.03147 0.0
H24 H 0.99831 0.29774 0.05136 0.0
O25 O 0.0191 0.37306 0.04995 0.0
O26 O 0.02832 0.37885 0.15667 0.0
H27 H 0.02554 0.33292 0.30771 0.0
H28 H 0.01218 0.31319 0.31737 0.0
C29 C 0.01236 0.32697 0.29746 0.0
H30 H 0.00221 0.33462 0.32615 0.0
H31 H 0.04238 0.36758 0.29742 0.0
O32 O 0.99457 0.3489 0.96311 0.0
C33 C 0.03011 0.38025 0.09125 0.0
Co34 Co 0.13956 0.99809 0.57033 0.0
Co35 Co 0.13058 0.00994 0.7218 0.0
C36 C 0.11707 0.97558 0.66077 0.0
O37 O 0.12555 0.9777 0.60427 0.0
O38 O 0.11754 0.98719 0.70878 0.0
C39 C 0.14078 0.98296 0.43362 0.0
O40 O 0.1288 0.97191 0.45765 0.0
C41 C 0.12896 0.00544 0.87208 0.0
C42 C 0.13228 0.03297 0.90941 0.0
C43 C 0.13093 0.01554 0.93154 0.0
N44 N 0.12929 0.01639 0.81711 0.0
N45 N 0.13091 0.03286 0.83979 0.0
C46 C 0.12914 0.98564 0.86664 0.0
H47 H 0.13707 0.98149 0.82097 0.0
H48 H 0.13467 0.97942 0.9141 0.0
H49 H 0.11536 0.98085 0.85911 0.0
C50 C 0.17623 0.0022 0.62254 0.0
N51 N 0.15853 0.00296 0.63105 0.0
N52 N 0.1549 0.00765 0.69521 0.0
C53 C 0.17029 0.00992 0.72985 0.0
C54 C 0.18431 0.00662 0.68489 0.0
C55 C 0.18505 0.99789 0.55511 0.0
H56 H 0.17923 0.00617 0.51338 0.0
H57 H 0.18246 0.98379 0.54198 0.0
H58 H 0.19956 0.00024 0.55715 0.0
O59 O 0.124 0.01896 0.5609 0.0
O60 O 0.11863 0.02884 0.66703 0.0
H61 H 0.16614 0.0273 0.81593 0.0
H62 H 0.18536 0.01321 0.82522 0.0
C63 C 0.17155 0.01388 0.80578 0.0
H64 H 0.16361 0.00408 0.83502 0.0
H65 H 0.13197 0.04392 0.80757 0.0
O66 O 0.14795 0.99403 0.47465 0.0
C67 C 0.11687 0.03015 0.60156 0.0
Co68 Co 0.49931 0.14077 0.06289 0.0
Co69 Co 0.48997 0.13071 0.21602 0.0
C70 C 0.52323 0.11753 0.14399 0.0
O71 O 0.51984 0.12597 0.0884 0.0
O72 O 0.51283 0.11822 0.19607 0.0
C73 C 0.51494 0.14702 0.92809 0.0
O74 O 0.52906 0.13896 0.95258 0.0
C75 C 0.49554 0.13023 0.36713 0.0
C76 C 0.46792 0.1292 0.40524 0.0
C77 C 0.48536 0.13089 0.42708 0.0
N78 N 0.48456 0.12884 0.3124 0.0
N79 N 0.4681 0.12791 0.33566 0.0
C80 C 0.51534 0.13062 0.36154 0.0
H81 H 0.51979 0.14419 0.34768 0.0
H82 H 0.52172 0.12651 0.41082 0.0
H83 H 0.51974 0.12152 0.3202 0.0
C84 C 0.49641 0.17699 0.12006 0.0
N85 N 0.49568 0.15924 0.12703 0.0
N86 N 0.49141 0.15522 0.19127 0.0
C87 C 0.48909 0.17041 0.22723 0.0
C88 C 0.49223 0.18468 0.18331 0.0
C89 C 0.50034 0.18622 0.05311 0.0
H90 H 0.49087 0.18161 0.01294 0.0
H91 H 0.51388 0.18256 0.03562 0.0
H92 H 0.49933 0.20084 0.058 0.0
O93 O 0.47824 0.12546 0.05652 0.0
O94 O 0.47052 0.11868 0.16409 0.0
H95 H 0.47258 0.16358 0.31346 0.0
H96 H 0.48301 0.18503 0.32158 0.0
C97 C 0.48482 0.17126 0.30298 0.0
H98 H 0.49585 0.16532 0.33281 0.0
H99 H 0.45694 0.12706 0.30386 0.0
O100 O 0.50189 0.14999 0.96805 0.0
C101 C 0.46798 0.11765 0.09893 0.0
Co102 Co 0.35817 0.50064 0.56106 0.0
Co103 Co 0.36779 0.49012 0.71341 0.0
C104 C 0.38198 0.52341 0.64381 0.0
O105 O 0.37335 0.52079 0.58801 0.0
O106 O 0.38105 0.51256 0.69438 0.0
C107 C 0.35317 0.51622 0.4255 0.0
O108 O 0.36245 0.52966 0.44918 0.0
C109 C 0.36778 0.49565 0.86449 0.0
C110 C 0.3693 0.46808 0.90284 0.0
C111 C 0.36725 0.48549 0.92454 0.0
N112 N 0.36946 0.48468 0.80986 0.0
N113 N 0.37066 0.46825 0.83327 0.0
C114 C 0.36688 0.51545 0.85882 0.0
H115 H 0.37479 0.52013 0.81439 0.0
H116 H 0.35294 0.51962 0.85024 0.0
H117 H 0.37197 0.52188 0.9066 0.0
C118 C 0.32181 0.49818 0.61739 0.0
N119 N 0.33953 0.49715 0.62467 0.0
N120 N 0.34339 0.4923 0.68844 0.0
C121 C 0.32811 0.48983 0.72368 0.0
C122 C 0.31396 0.49354 0.67988 0.0
C123 C 0.31274 0.50267 0.55064 0.0
H124 H 0.31692 0.49309 0.51014 0.0
H125 H 0.31698 0.51607 0.53355 0.0
H126 H 0.29809 0.50225 0.55553 0.0
O127 O 0.37303 0.47923 0.55379 0.0
O128 O 0.37917 0.47046 0.66078 0.0
H129 H 0.33505 0.47249 0.80733 0.0
H130 H 0.31332 0.48228 0.81602 0.0
C131 C 0.3271 0.48464 0.79854 0.0
H132 H 0.33264 0.49546 0.83066 0.0
H133 H 0.37178 0.45709 0.80159 0.0
O134 O 0.34905 0.50365 0.46624 0.0
C135 C 0.38033 0.46839 0.59539 0.0
Co136 Co 0.99803 0.14 0.4282 0.0
Co137 Co 0.00977 0.13095 0.27669 0.0
C138 C 0.97546 0.11741 0.33884 0.0
O139 O 0.97764 0.12591 0.39529 0.0
O140 O 0.98699 0.11794 0.29052 0.0
C141 C 0.98263 0.1423 0.56484 0.0
O142 O 0.97068 0.13118 0.54094 0.0
C143 C 0.00489 0.12985 0.12659 0.0
C144 C 0.03244 0.13201 0.08837 0.0
C145 C 0.01492 0.13148 0.06681 0.0
N146 N 0.01597 0.12959 0.18117 0.0
N147 N 0.03244 0.13053 0.15796 0.0
C148 C 0.98512 0.13085 0.13273 0.0
H149 H 0.98139 0.13827 0.18024 0.0
H150 H 0.97912 0.13734 0.08673 0.0
H151 H 0.97972 0.1172 0.13714 0.0
C152 C 0.00166 0.17661 0.37529 0.0
N153 N 0.00268 0.15891 0.36709 0.0
N154 N 0.00758 0.15527 0.30317 0.0
C155 C 0.00987 0.17066 0.26854 0.0
C156 C 0.00622 0.18467 0.31312 0.0
C157 C 0.99688 0.18544 0.4422 0.0
H158 H 0.00561 0.18036 0.48403 0.0
H159 H 0.98302 0.18195 0.45601 0.0
H160 H 0.99825 0.20006 0.43912 0.0
O161 O 0.01894 0.12444 0.4371 0.0
O162 O 0.02873 0.11898 0.33094 0.0
H163 H 0.02736 0.16563 0.1835 0.0
H164 H 0.01468 0.18581 0.17435 0.0
C165 C 0.0143 0.17192 0.19302 0.0
H166 H 0.00412 0.16476 0.16262 0.0
H167 H 0.04361 0.13103 0.18981 0.0
O168 O 0.99427 0.14851 0.52386 0.0
C169 C 0.03009 0.11727 0.3964 0.0
Co170 Co 0.35847 0.99743 0.93089 0.0
Co171 Co 0.36726 0.00952 0.78023 0.0
C172 C 0.38102 0.97516 0.83979 0.0
O173 O 0.3728 0.9775 0.8966 0.0
O174 O 0.38015 0.98654 0.79114 0.0
C175 C 0.36308 0.98635 0.06487 0.0
O176 O 0.37874 0.98338 0.03733 0.0
C177 C 0.36656 0.00439 0.63158 0.0
C178 C 0.37055 0.03147 0.59062 0.0
C179 C 0.36759 0.01405 0.57048 0.0
N180 N 0.36875 0.01559 0.68501 0.0
N181 N 0.3713 0.03174 0.66038 0.0
C182 C 0.3618 0.98523 0.64026 0.0
H183 H 0.35578 0.98292 0.69198 0.0
H184 H 0.35239 0.98093 0.59931 0.0
H185 H 0.37401 0.97708 0.63641 0.0
C186 C 0.32168 0.0014 0.87911 0.0
N187 N 0.33937 0.00222 0.87059 0.0
N188 N 0.34296 0.00764 0.80727 0.0
C189 C 0.32757 0.01073 0.77366 0.0
C190 C 0.31358 0.00679 0.81798 0.0
C191 C 0.31288 0.99608 0.94545 0.0
H192 H 0.31581 0.98191 0.95609 0.0
H193 H 0.29831 0.99808 0.94339 0.0
H194 H 0.31848 0.00398 0.98878 0.0
O195 O 0.37374 0.01855 0.9415 0.0
O196 O 0.37943 0.02823 0.83523 0.0
H197 H 0.31265 0.02017 0.6843 0.0
H198 H 0.33065 0.00555 0.66553 0.0
C199 C 0.32633 0.01655 0.69955 0.0
H200 H 0.33518 0.02807 0.69079 0.0
H201 H 0.37316 0.04296 0.69115 0.0
O202 O 0.35067 0.99193 0.02604 0.0
C203 C 0.381 0.02965 0.90077 0.0
Co204 Co 0.49968 0.35868 0.43233 0.0
Co205 Co 0.48895 0.36757 0.27959 0.0
C206 C 0.5225 0.38178 0.34501 0.0
O207 O 0.5197 0.37362 0.4018 0.0
O208 O 0.51167 0.38065 0.29437 0.0
C209 C 0.51563 0.3551 0.56825 0.0
O210 O 0.52847 0.36512 0.54406 0.0
C211 C 0.49396 0.36828 0.12937 0.0
C212 C 0.46637 0.36651 0.0912 0.0
C213 C 0.48389 0.36672 0.06968 0.0
N214 N 0.4829 0.36883 0.18395 0.0
N215 N 0.46642 0.36813 0.16073 0.0
C216 C 0.51371 0.36691 0.13527 0.0
H217 H 0.51747 0.36081 0.18551 0.0
H218 H 0.51931 0.35896 0.09208 0.0
H219 H 0.51949 0.38043 0.13278 0.0
C220 C 0.49676 0.32201 0.37916 0.0
N221 N 0.4958 0.3397 0.37057 0.0
N222 N 0.49122 0.34327 0.30624 0.0
C223 C 0.48908 0.32784 0.27169 0.0
C224 C 0.49249 0.31388 0.31679 0.0
C225 C 0.50098 0.31325 0.44679 0.0
H226 H 0.49186 0.31832 0.48732 0.0
H227 H 0.51469 0.3168 0.46247 0.0
H228 H 0.49969 0.29861 0.44375 0.0
O229 O 0.47838 0.37357 0.44006 0.0
O230 O 0.46963 0.37943 0.33283 0.0
H231 H 0.47196 0.33293 0.1855 0.0
H232 H 0.48443 0.31259 0.17764 0.0
C233 C 0.4849 0.3265 0.19597 0.0
H234 H 0.49528 0.33348 0.16598 0.0
H235 H 0.45524 0.36787 0.19258 0.0
O236 O 0.5033 0.3501 0.52782 0.0
C237 C 0.46759 0.38083 0.39816 0.0
Co238 Co 0.14007 0.49962 0.93017 0.0
Co239 Co 0.13116 0.48911 0.77721 0.0
C240 C 0.1171 0.52263 0.84282 0.0
O241 O 0.12518 0.5197 0.89969 0.0
O242 O 0.11819 0.51187 0.792 0.0
C243 C 0.14364 0.51557 0.06597 0.0
O244 O 0.13362 0.52839 0.04162 0.0
C245 C 0.13026 0.49402 0.62687 0.0
C246 C 0.13238 0.46641 0.58919 0.0
C247 C 0.13194 0.4839 0.56736 0.0
N248 N 0.12989 0.48301 0.68164 0.0
N249 N 0.13079 0.46651 0.65872 0.0
C250 C 0.13138 0.51379 0.63237 0.0
H251 H 0.13753 0.51769 0.68238 0.0
H252 H 0.13919 0.51945 0.58889 0.0
H253 H 0.11779 0.51937 0.63013 0.0
C254 C 0.17673 0.4967 0.87693 0.0
N255 N 0.15904 0.49574 0.8684 0.0
N256 N 0.15545 0.49133 0.8039 0.0
C257 C 0.17086 0.48935 0.76915 0.0
C258 C 0.18484 0.49264 0.81431 0.0
C259 C 0.18552 0.50076 0.94467 0.0
H260 H 0.18026 0.49174 0.98518 0.0
H261 H 0.18222 0.51454 0.96025 0.0
H262 H 0.20013 0.49921 0.94178 0.0
O263 O 0.12512 0.47834 0.93775 0.0
O264 O 0.11921 0.46981 0.8303 0.0
H265 H 0.166 0.47252 0.68188 0.0
H266 H 0.18604 0.4855 0.67437 0.0
C267 C 0.17216 0.48556 0.6931 0.0
H268 H 0.16491 0.49592 0.66403 0.0
H269 H 0.13121 0.45537 0.69077 0.0
O270 O 0.14864 0.50322 0.02566 0.0
C271 C 0.11782 0.46765 0.89556 0.0
Co272 Co 0.00098 0.63981 0.92764 0.0
Co273 Co 0.98891 0.6305 0.7773 0.0
C274 C 0.02335 0.61717 0.83675 0.0
O275 O 0.02118 0.62566 0.89305 0.0
O276 O 0.01174 0.61763 0.78886 0.0
C277 C 0.0119 0.63508 0.06143 0.0
O278 O 0.01476 0.61946 0.03332 0.0
C279 C 0.99401 0.63065 0.62846 0.0
C280 C 0.96681 0.62721 0.58792 0.0
C281 C 0.98427 0.62977 0.56748 0.0
N282 N 0.98282 0.62879 0.68208 0.0
N283 N 0.9666 0.62654 0.65769 0.0
C284 C 0.01327 0.63504 0.63684 0.0
H285 H 0.01569 0.64128 0.6881 0.0
H286 H 0.01778 0.64416 0.59526 0.0
H287 H 0.02115 0.62264 0.63403 0.0
C288 C 0.99674 0.67646 0.87475 0.0
N289 N 0.99606 0.65874 0.86691 0.0
N290 N 0.99076 0.65493 0.80361 0.0
C291 C 0.98769 0.67021 0.76922 0.0
C292 C 0.99144 0.68436 0.8131 0.0
C293 C 0.00186 0.68547 0.94092 0.0
H294 H 0.99442 0.67947 0.98466 0.0
H295 H 0.0162 0.68326 0.95066 0.0
H296 H 0.99913 0.69992 0.93909 0.0
O297 O 0.97969 0.6247 0.9387 0.0
O298 O 0.9704 0.61826 0.83255 0.0
H299 H 0.97044 0.66265 0.68601 0.0
H300 H 0.97908 0.68488 0.67785 0.0
C301 C 0.98219 0.6712 0.69466 0.0
H302 H 0.99317 0.66633 0.66175 0.0
H303 H 0.95536 0.625 0.68863 0.0
O304 O 0.00647 0.64764 0.02292 0.0
C305 C 0.96874 0.61714 0.89812 0.0
Co306 Co 0.85874 1e-05 0.43215 0.0
Co307 Co 0.86754 0.98942 0.27928 0.0
C308 C 0.88145 0.02311 0.34431 0.0
O309 O 0.87343 0.02018 0.40127 0.0
O310 O 0.88039 0.01229 0.29365 0.0
C311 C 0.85539 0.01586 0.56806 0.0
O312 O 0.86556 0.02858 0.54381 0.0
C313 C 0.86831 0.99425 0.12898 0.0
C314 C 0.86635 0.96662 0.0914 0.0
C315 C 0.86671 0.98411 0.06952 0.0
N316 N 0.86874 0.98327 0.1838 0.0
N317 N 0.86792 0.96675 0.16095 0.0
C318 C 0.8671 0.01402 0.13439 0.0
H319 H 0.86084 0.0179 0.18418 0.0
H320 H 0.85937 0.01964 0.09063 0.0
H321 H 0.88069 0.01966 0.13263 0.0
C322 C 0.82204 0.99687 0.37953 0.0
N323 N 0.83973 0.99596 0.37076 0.0
N324 N 0.84326 0.99146 0.30633 0.0
C325 C 0.82782 0.98934 0.27188 0.0
C326 C 0.81388 0.99266 0.31716 0.0
C327 C 0.81331 0.00107 0.44723 0.0
H328 H 0.81849 0.99202 0.48782 0.0
H329 H 0.81677 0.01482 0.46268 0.0
H330 H 0.79868 -0.00033 0.44436 0.0
O331 O 0.87389 0.97887 0.43972 0.0
O332 O 0.8797 0.97027 0.33231 0.0
H333 H 0.83271 0.97236 0.18511 0.0
H334 H 0.81252 0.98509 0.17764 0.0
C335 C 0.82644 0.98536 0.196 0.0
H336 H 0.83354 0.99572 0.16639 0.0
H337 H 0.86757 0.95562 0.19305 0.0
O338 O 0.85023 0.0036 0.52766 0.0
C339 C 0.88122 0.9682 0.39757 0.0
Co340 Co 0.49924 0.86077 0.92592 0.0
Co341 Co 0.50959 0.86725 0.77086 0.0
C342 C 0.47625 0.8823 0.83293 0.0
O343 O 0.47899 0.87476 0.89099 0.0
O344 O 0.48722 0.88087 0.7831 0.0
C345 C 0.48303 0.84869 0.06015 0.0
O346 O 0.46977 0.84076 0.02874 0.0
C347 C 0.50321 0.86597 0.62157 0.0
C348 C 0.53032 0.86328 0.57928 0.0
C349 C 0.51258 0.8636 0.56049 0.0
N350 N 0.51487 0.86683 0.67421 0.0
N351 N 0.53107 0.86552 0.64851 0.0
C352 C 0.48352 0.86521 0.63115 0.0
H353 H 0.48025 0.85874 0.68123 0.0
H354 H 0.47704 0.85785 0.58822 0.0
H355 H 0.4782 0.87893 0.63224 0.0
C356 C 0.50272 0.82295 0.8822 0.0
N357 N 0.50314 0.84056 0.87001 0.0
N358 N 0.50731 0.84333 0.80452 0.0
C359 C 0.50952 0.8275 0.77299 0.0
C360 C 0.50673 0.81412 0.82115 0.0
C361 C 0.49939 0.81475 0.95156 0.0
H362 H 0.50521 0.82311 0.993 0.0
H363 H 0.48488 0.81376 0.96006 0.0
H364 H 0.50513 0.80121 0.95444 0.0
O365 O 0.52091 0.87527 0.92773 0.0
O366 O 0.52921 0.88002 0.8191 0.0
H367 H 0.52626 0.83115 0.68462 0.0
H368 H 0.51325 0.81106 0.6814 0.0
C369 C 0.51322 0.82518 0.69725 0.0
H370 H 0.50283 0.83203 0.6669 0.0
H371 H 0.54258 0.86544 0.67852 0.0
O372 O 0.49524 0.85612 0.02538 0.0
C373 C 0.53162 0.88193 0.88403 0.0
Co374 Co 0.63977 0.49812 0.42946 0.0
Co375 Co 0.63094 0.51001 0.27797 0.0
C376 C 0.61689 0.47588 0.34009 0.0
O377 O 0.6254 0.47796 0.39656 0.0
O378 O 0.61758 0.4874 0.29173 0.0
C379 C 0.64179 0.48273 0.56614 0.0
O380 O 0.63045 0.47099 0.54228 0.0
C381 C 0.62992 0.50514 0.12794 0.0
C382 C 0.63223 0.53267 0.0896 0.0
C383 C 0.6316 0.51515 0.06813 0.0
N384 N 0.62971 0.51623 0.18246 0.0
N385 N 0.63075 0.53269 0.15919 0.0
C386 C 0.63078 0.48537 0.13416 0.0
H387 H 0.63815 0.48159 0.18173 0.0
H388 H 0.63724 0.47932 0.0882 0.0
H389 H 0.61709 0.48007 0.13851 0.0
C390 C 0.67644 0.50121 0.37682 0.0
N391 N 0.65876 0.50245 0.36843 0.0
N392 N 0.65523 0.50749 0.30459 0.0
C393 C 0.67067 0.50972 0.27027 0.0
C394 C 0.68459 0.50582 0.31492 0.0
C395 C 0.68517 0.49625 0.44374 0.0
H396 H 0.68119 0.48256 0.45809 0.0
H397 H 0.69983 0.49709 0.44042 0.0
H398 H 0.68045 0.50525 0.48534 0.0
O399 O 0.62456 0.51929 0.43829 0.0
O400 O 0.61928 0.52917 0.3321 0.0
H401 H 0.68599 0.515 0.17701 0.0
H402 H 0.66498 0.50444 0.16379 0.0
C403 C 0.67206 0.5145 0.19511 0.0
H404 H 0.66575 0.52758 0.18628 0.0
H405 H 0.6313 0.54387 0.19099 0.0
O406 O 0.64823 0.49423 0.52512 0.0
C407 C 0.61759 0.53056 0.39755 0.0
Co408 Co 0.00108 0.85835 0.56336 0.0
Co409 Co 0.98927 0.86709 0.71421 0.0
C410 C 0.02351 0.8809 0.65445 0.0
O411 O 0.02104 0.87271 0.59767 0.0
O412 O 0.01221 0.88003 0.7034 0.0
C413 C 0.01157 0.86356 0.42986 0.0
O414 O 0.01386 0.87924 0.45824 0.0
C415 C 0.99412 0.86698 0.86316 0.0
C416 C 0.96678 0.8699 0.90277 0.0
C417 C 0.98425 0.86773 0.92374 0.0
N418 N 0.98301 0.86857 0.80917 0.0
N419 N 0.9667 0.8705 0.83299 0.0
C420 C 0.01348 0.86293 0.85564 0.0
H421 H 0.01617 0.85677 0.80446 0.0
H422 H 0.01802 0.85387 0.89738 0.0
H423 H 0.02114 0.87546 0.85908 0.0
C424 C 0.99694 0.8215 0.61467 0.0
N425 N 0.99632 0.8392 0.62343 0.0
N426 N 0.99121 0.84279 0.68713 0.0
C427 C 0.98825 0.8274 0.72094 0.0
C428 C 0.99182 0.8134 0.67617 0.0
C429 C 0.00176 0.8127 0.54776 0.0
H430 H 0.99426 0.81894 0.50469 0.0
H431 H 0.0161 0.81479 0.53756 0.0
H432 H 0.99888 0.79827 0.54885 0.0
O433 O 0.97993 0.87353 0.55289 0.0
O434 O 0.97053 0.87925 0.65944 0.0
H435 H 0.971 0.83431 0.80492 0.0
H436 H 0.98048 0.8124 0.81265 0.0
C437 C 0.98302 0.82619 0.79574 0.0
H438 H 0.99391 0.83148 0.82818 0.0
H439 H 0.9555 0.8718 0.80165 0.0
O440 O 0.00661 0.85076 0.46811 0.0
C441 C 0.96893 0.88079 0.59398 0.0
Co442 Co 0.6412 -4e-05 0.05886 0.0
Co443 Co 0.63088 0.9896 0.21111 0.0
C444 C 0.61739 0.02296 0.14183 0.0
O445 O 0.62618 0.02033 0.0864 0.0
O446 O 0.61798 0.01202 0.19211 0.0
C447 C 0.64598 0.01564 0.92341 0.0
O448 O 0.6366 0.02894 0.9477 0.0
C449 C 0.62915 0.99514 0.36187 0.0
C450 C 0.63002 0.96758 0.40066 0.0
C451 C 0.63032 0.98512 0.42219 0.0
N452 N 0.62884 0.984 0.30736 0.0
N453 N 0.629 0.96755 0.331 0.0
C454 C 0.62802 0.01491 0.35546 0.0
H455 H 0.6174 0.01848 0.31838 0.0
H456 H 0.64073 0.02014 0.33495 0.0
H457 H 0.62492 0.0213 0.40578 0.0
C458 C 0.67733 0.99727 0.11732 0.0
N459 N 0.65957 0.99626 0.12338 0.0
N460 N 0.65542 0.99174 0.18726 0.0
C461 C 0.67052 0.98967 0.22398 0.0
C462 C 0.68488 0.99309 0.18087 0.0
C463 C 0.6867 0.00147 0.05093 0.0
H464 H 0.68207 0.99225 0.00987 0.0
H465 H 0.68318 0.01513 0.03445 0.0
H466 H 0.7013 0.00031 0.05614 0.0
O467 O 0.62641 0.97846 0.05061 0.0
O468 O 0.61927 0.9703 0.15743 0.0
H469 H 0.66443 0.97272 0.30968 0.0
H470 H 0.68493 0.98484 0.31991 0.0
C471 C 0.67118 0.98554 0.29987 0.0
H472 H 0.66415 0.99607 0.32885 0.0
H473 H 0.62914 0.95632 0.29944 0.0
O474 O 0.65042 0.00312 0.96391 0.0
C475 C 0.61864 0.96792 0.0921 0.0
Co476 Co 0.49954 0.64113 0.56982 0.0
Co477 Co 0.51048 0.63084 0.7215 0.0
C478 C 0.4768 0.61741 0.6534 0.0
O479 O 0.47912 0.62647 0.59846 0.0
O480 O 0.48803 0.61771 0.7028 0.0
C481 C 0.48424 0.64485 0.43378 0.0
O482 O 0.47161 0.63454 0.45782 0.0
C483 C 0.50526 0.62864 0.87238 0.0
C484 C 0.53282 0.63067 0.91048 0.0
C485 C 0.51532 0.63023 0.93246 0.0
N486 N 0.5163 0.62883 0.81759 0.0
N487 N 0.53277 0.62966 0.84081 0.0
C488 C 0.48555 0.62665 0.86641 0.0
H489 H 0.48238 0.61588 0.82945 0.0
H490 H 0.47976 0.63914 0.84598 0.0
H491 H 0.47937 0.62328 0.91686 0.0
C492 C 0.50249 0.67728 0.62811 0.0
N493 N 0.50357 0.65953 0.63403 0.0
N494 N 0.50813 0.65536 0.69787 0.0
C495 C 0.51012 0.67045 0.73471 0.0
C496 C 0.50665 0.68481 0.69172 0.0
C497 C 0.49811 0.68667 0.56195 0.0
H498 H 0.50715 0.68202 0.52041 0.0
H499 H 0.48437 0.68322 0.54619 0.0
H500 H 0.49935 0.70127 0.56715 0.0
O501 O 0.52066 0.62585 0.56114 0.0
O502 O 0.52988 0.61957 0.66743 0.0
H503 H 0.52724 0.6649 0.82045 0.0
H504 H 0.51425 0.68483 0.83114 0.0
C505 C 0.51415 0.6711 0.81069 0.0
H506 H 0.50389 0.66356 0.83926 0.0
H507 H 0.54393 0.63031 0.80897 0.0
O508 O 0.49628 0.65027 0.47471 0.0
C509 C 0.53163 0.61842 0.60193 0.0
Co510 Co 0.85827 0.50046 0.06644 0.0
Co511 Co 0.86792 0.50881 0.22079 0.0
C512 C 0.88146 0.47615 0.14936 0.0
O513 O 0.87363 0.48026 0.09308 0.0
O514 O 0.88027 0.48591 0.20316 0.0
C515 C 0.85301 0.48423 0.93226 0.0
O516 O 0.86175 0.47064 0.95769 0.0
C517 C 0.87005 0.5041 0.37179 0.0
C518 C 0.86604 0.53158 0.4084 0.0
C519 C 0.8676 0.51422 0.43118 0.0
N520 N 0.8693 0.51493 0.31651 0.0
N521 N 0.86728 0.53137 0.33882 0.0
C522 C 0.8736 0.48462 0.36685 0.0
H523 H 0.88526 0.48249 0.33302 0.0
H524 H 0.86205 0.47789 0.34274 0.0
H525 H 0.87653 0.47866 0.4181 0.0
C526 C 0.82188 0.50273 0.12221 0.0
N527 N 0.8396 0.50355 0.12987 0.0
N528 N 0.84348 0.50705 0.19496 0.0
C529 C 0.8282 0.50841 0.23111 0.0
C530 C 0.81404 0.50582 0.18615 0.0
C531 C 0.8128 0.49973 0.0542 0.0
H532 H 0.81822 0.50905 0.01507 0.0
H533 H 0.81565 0.48605 0.0361 0.0
H534 H 0.79825 0.50165 0.05805 0.0
O535 O 0.87265 0.52212 0.06042 0.0
O536 O 0.88032 0.52807 0.16885 0.0
H537 H 0.83213 0.52415 0.322 0.0
H538 H 0.81345 0.50925 0.32781 0.0
C539 C 0.82717 0.51078 0.30806 0.0
H540 H 0.83559 0.50071 0.33372 0.0
H541 H 0.86597 0.54236 0.30635 0.0
O542 O 0.84932 0.49725 0.97144 0.0
C543 C 0.88079 0.53168 0.10436 0.0
H544 H 0.94573 0.38228 0.06037 0.0
H545 H 0.96962 0.40745 0.23876 0.0
H546 H 0.92121 0.40329 0.06529 0.0
H547 H 0.94551 0.42879 0.24223 0.0
H548 H 0.8942 0.4584 0.26291 0.0
H549 H 0.915 0.43372 0.26486 0.0
H550 H 0.91614 0.43369 0.04074 0.0
H551 H 0.89493 0.45795 0.03898 0.0
C552 C 0.94573 0.39227 0.10074 0.0
C553 C 0.95967 0.39322 0.14901 0.0
C554 C 0.93172 0.40439 0.10334 0.0
C555 C 0.9314 0.41785 0.15386 0.0
C556 C 0.94513 0.41847 0.20322 0.0
C557 C 0.95905 0.40626 0.20102 0.0
C558 C 0.89881 0.45307 0.21411 0.0
C559 C 0.89302 0.46027 0.15086 0.0
C560 C 0.9108 0.43893 0.21518 0.0
C561 C 0.9174 0.43177 0.15298 0.0
C562 C 0.91118 0.43866 0.0897 0.0
C563 C 0.89907 0.45268 0.08867 0.0
H564 H 0.08928 0.97126 0.75003 0.0
H565 H 0.11887 0.9443 0.58983 0.0
H566 H 0.0682 0.94686 0.75349 0.0
H567 H 0.09836 0.91942 0.59577 0.0
H568 H 0.03675 0.89641 0.77239 0.0
H569 H 0.06141 0.91727 0.78111 0.0
H570 H 0.06952 0.91341 0.55961 0.0
H571 H 0.04562 0.89207 0.55171 0.0
C572 C 0.09149 0.95993 0.71657 0.0
C573 C 0.10559 0.95981 0.66895 0.0
C574 C 0.07945 0.94584 0.71885 0.0
C575 C 0.0814 0.93118 0.67434 0.0
C576 C 0.09612 0.93068 0.62951 0.0
C577 C 0.10797 0.9449 0.62637 0.0
C578 C 0.04398 0.89987 0.72581 0.0
C579 C 0.0392 0.89259 0.66139 0.0
C580 C 0.05805 0.91192 0.73067 0.0
C581 C 0.0675 0.91713 0.67105 0.0
C582 C 0.06287 0.90951 0.60697 0.0
C583 C 0.04901 0.89732 0.6023 0.0
H584 H 0.61722 0.05274 0.06048 0.0
H585 H 0.59047 0.02825 0.23393 0.0
H586 H 0.5964 0.07745 0.0648 0.0
H587 H 0.56922 0.05237 0.23626 0.0
H588 H 0.53921 0.10301 0.25831 0.0
H589 H 0.5638 0.08219 0.26127 0.0
H590 H 0.56677 0.08381 0.03742 0.0
H591 H 0.54282 0.10533 0.03497 0.0
C592 C 0.60689 0.05263 0.09951 0.0
C593 C 0.60548 0.03851 0.14672 0.0
C594 C 0.59487 0.06675 0.10175 0.0
C595 C 0.581 0.06693 0.15062 0.0
C596 C 0.57986 0.05293 0.19867 0.0
C597 C 0.59202 0.03897 0.19705 0.0
C598 C 0.54525 0.0991 0.20983 0.0
C599 C 0.53898 0.10582 0.14645 0.0
C600 C 0.5593 0.08703 0.21142 0.0
C601 C 0.56724 0.08112 0.14955 0.0
C602 C 0.56123 0.08821 0.08626 0.0
C603 C 0.54737 0.1005 0.08479 0.0
H604 H 0.39776 0.53712 0.76005 0.0
H605 H 0.39367 0.54464 0.53854 0.0
H606 H 0.41873 0.56153 0.767 0.0
H607 H 0.41537 0.56841 0.54475 0.0
H608 H 0.44629 0.61847 0.57681 0.0
H609 H 0.42173 0.59748 0.57912 0.0
H610 H 0.44831 0.56775 0.74038 0.0
H611 H 0.47233 0.5892 0.74031 0.0
C612 C 0.40131 0.54398 0.7128 0.0
C613 C 0.39401 0.5389 0.64875 0.0
C614 C 0.41349 0.55792 0.71667 0.0
C615 C 0.41891 0.56694 0.6564 0.0
C616 C 0.41133 0.56203 0.59251 0.0
C617 C 0.39895 0.54828 0.58882 0.0
C618 C 0.44676 0.60754 0.61326 0.0
C619 C 0.46128 0.60546 0.65819 0.0
C620 C 0.43273 0.59542 0.61428 0.0
C621 C 0.43303 0.58076 0.65949 0.0
C622 C 0.4474 0.57898 0.70557 0.0
C623 C 0.46128 0.59125 0.70529 0.0
H624 H 0.89327 0.04438 0.44891 0.0
H625 H 0.89612 0.0374 0.22685 0.0
H626 H 0.91443 0.0685 0.44179 0.0
H627 H 0.9168 0.06219 0.21909 0.0
H628 H 0.97082 0.09006 0.24771 0.0
H629 H 0.9466 0.06877 0.24486 0.0
H630 H 0.91992 0.09777 0.40779 0.0
H631 H 0.94462 0.11853 0.41289 0.0
C632 C 0.89816 0.04822 0.39829 0.0
C633 C 0.89307 0.03887 0.33849 0.0
C634 C 0.91025 0.06219 0.39408 0.0
C635 C 0.9174 0.06737 0.32981 0.0
C636 C 0.91183 0.05839 0.26963 0.0
C637 C 0.89988 0.04424 0.27397 0.0
C638 C 0.9597 0.09198 0.28245 0.0
C639 C 0.95974 0.10584 0.33117 0.0
C640 C 0.94571 0.07981 0.28055 0.0
C641 C 0.93132 0.08138 0.32663 0.0
C642 C 0.93097 0.09584 0.37275 0.0
C643 C 0.94508 0.10783 0.3754 0.0
H644 H 0.4452 0.88047 0.90485 0.0
H645 H 0.47159 0.90977 0.74247 0.0
H646 H 0.42014 0.90073 0.89873 0.0
H647 H 0.44704 0.93071 0.73893 0.0
H648 H 0.39641 0.96199 0.7215 0.0
H649 H 0.41742 0.93747 0.71249 0.0
H650 H 0.41396 0.92946 0.93418 0.0
H651 H 0.39246 0.95316 0.94233 0.0
C652 C 0.44563 0.89128 0.86785 0.0
C653 C 0.46042 0.89366 0.82469 0.0
C654 C 0.43131 0.90299 0.86459 0.0
C655 C 0.43162 0.91761 0.81919 0.0
C656 C 0.44617 0.91955 0.77407 0.0
C657 C 0.46034 0.9076 0.77638 0.0
C658 C 0.39999 0.9548 0.76805 0.0
C659 C 0.39277 0.95955 0.8326 0.0
C660 C 0.41214 0.94081 0.76302 0.0
C661 C 0.4175 0.93143 0.8226 0.0
C662 C 0.40995 0.93604 0.88682 0.0
C663 C 0.39765 0.94979 0.89164 0.0
H664 H 0.58938 0.47152 0.24932 0.0
H665 H 0.61783 0.44499 0.41378 0.0
H666 H 0.56793 0.44741 0.24642 0.0
H667 H 0.59694 0.42043 0.40864 0.0
H668 H 0.54369 0.39367 0.44972 0.0
H669 H 0.56769 0.41499 0.44282 0.0
H670 H 0.56124 0.41762 0.22023 0.0
H671 H 0.53657 0.39679 0.22776 0.0
C672 C 0.59125 0.46035 0.2839 0.0
C673 C 0.60516 0.46027 0.33242 0.0
C674 C 0.579 0.44644 0.28198 0.0
C675 C 0.58053 0.43199 0.32785 0.0
C676 C 0.59503 0.43152 0.37379 0.0
C677 C 0.6071 0.44556 0.37646 0.0
C678 C 0.54747 0.39866 0.39917 0.0
C679 C 0.53814 0.39358 0.33933 0.0
C680 C 0.56137 0.41084 0.39509 0.0
C681 C 0.56649 0.41809 0.33091 0.0
C682 C 0.55749 0.41257 0.2707 0.0
C683 C 0.54341 0.40053 0.27492 0.0
H684 H 0.0281 0.59001 0.74479 0.0
H685 H 0.05406 0.61804 0.91177 0.0
H686 H 0.05221 0.5686 0.74231 0.0
H687 H 0.07864 0.59717 0.90712 0.0
H688 H 0.10268 0.53714 0.72534 0.0
H689 H 0.08207 0.56197 0.71756 0.0
H690 H 0.08385 0.56778 0.94055 0.0
H691 H 0.10497 0.5436 0.94775 0.0
C692 C 0.03915 0.59182 0.78 0.0
C693 C 0.03906 0.60559 0.82908 0.0
C694 C 0.05307 0.57958 0.77833 0.0
C695 C 0.06735 0.58099 0.82506 0.0
C696 C 0.06767 0.59537 0.87156 0.0
C697 C 0.05363 0.60743 0.87393 0.0
C698 C 0.0988 0.54387 0.77255 0.0
C699 C 0.10544 0.53836 0.83715 0.0
C700 C 0.08689 0.55805 0.76818 0.0
C701 C 0.08118 0.5669 0.82842 0.0
C702 C 0.08815 0.56156 0.89282 0.0
C703 C 0.1002 0.54757 0.89707 0.0
H704 H 0.03311 0.39256 0.95897 0.0
H705 H 0.06006 0.39239 0.15673 0.0
H706 H 0.05566 0.41205 0.91179 0.0
H707 H 0.08322 0.41132 0.10847 0.0
H708 H 0.10661 0.46348 0.02879 0.0
H709 H 0.08698 0.44098 0.07497 0.0
H710 H 0.08507 0.4156 0.87401 0.0
H711 H 0.10421 0.43876 0.82683 0.0
C712 C 0.04404 0.39645 0.99215 0.0
C713 C 0.0447 0.39104 0.06187 0.0
C714 C 0.05709 0.40756 0.96481 0.0
C715 C 0.07131 0.41337 0.00619 0.0
C716 C 0.07229 0.40742 0.07536 0.0
C717 C 0.05907 0.39649 0.10304 0.0
C718 C 0.10212 0.45305 0.99437 0.0
C719 C 0.10689 0.45301 0.92388 0.0
C720 C 0.09093 0.44 0.02114 0.0
C721 C 0.08436 0.42641 0.97839 0.0
C722 C 0.0896 0.42604 0.90827 0.0
C723 C 0.10065 0.43926 0.8812 0.0
H724 H 0.10354 0.05973 0.66621 0.0
H725 H 0.10522 0.03295 0.46819 0.0
H726 H 0.08447 0.08253 0.6162 0.0
H727 H 0.08567 0.05518 0.4192 0.0
H728 H 0.0597 0.10396 0.33186 0.0
H729 H 0.08243 0.08478 0.38184 0.0
H730 H 0.05491 0.08583 0.57849 0.0
H731 H 0.03277 0.10548 0.52956 0.0
C732 C 0.09982 0.05869 0.61211 0.0
C733 C 0.10585 0.04447 0.57137 0.0
C734 C 0.08881 0.07171 0.58344 0.0
C735 C 0.08342 0.0707 0.5136 0.0
C736 C 0.08975 0.05662 0.47274 0.0
C737 C 0.10088 0.04375 0.50112 0.0
C738 C 0.05861 0.10019 0.38589 0.0
C739 C 0.04438 0.1062 0.42656 0.0
C740 C 0.07159 0.08911 0.41454 0.0
C741 C 0.07051 0.08365 0.48427 0.0
C742 C 0.05641 0.08996 0.52505 0.0
C743 C 0.04359 0.10116 0.4967 0.0
H744 H 0.4632 0.10739 0.96485 0.0
H745 H 0.44004 0.10252 0.16892 0.0
H746 H 0.44101 0.08744 0.91852 0.0
H747 H 0.41716 0.08303 0.12169 0.0
H748 H 0.39443 0.03148 0.03175 0.0
H749 H 0.41394 0.05391 0.08002 0.0
H750 H 0.4113 0.08325 0.88758 0.0
H751 H 0.39239 0.06024 0.83815 0.0
C752 C 0.45317 0.10228 -0.00024 0.0
C753 C 0.45348 0.10649 0.0708 0.0
C754 C 0.4403 0.0909 0.97293 0.0
C755 C 0.42722 0.08355 0.01616 0.0
C756 C 0.4272 0.08818 0.08697 0.0
C757 C 0.44026 0.09943 0.11408 0.0
C758 C 0.39793 0.04277 -0.00022 0.0
C759 C 0.39197 0.04401 0.93086 0.0
C760 C 0.40904 0.05575 0.02774 0.0
C761 C 0.41429 0.07044 0.98784 0.0
C762 C 0.40784 0.07195 0.9195 0.0
C763 C 0.39692 0.05881 0.89116 0.0
H764 H 0.39314 0.43885 0.66202 0.0
H765 H 0.39185 0.4648 0.46231 0.0
H766 H 0.41203 0.41566 0.61372 0.0
H767 H 0.41128 0.44227 0.41507 0.0
H768 H 0.4382 0.39383 0.33092 0.0
H769 H 0.41503 0.41282 0.37888 0.0
H770 H 0.44149 0.41201 0.57787 0.0
H771 H 0.46398 0.3925 0.531 0.0
C772 C 0.39689 0.43961 0.60789 0.0
C773 C 0.39105 0.45372 0.5662 0.0
C774 C 0.40781 0.42637 0.58018 0.0
C775 C 0.41333 0.42709 0.51042 0.0
C776 C 0.40712 0.44103 0.46857 0.0
C777 C 0.39604 0.45409 0.49595 0.0
C778 C 0.43894 0.3976 0.38504 0.0
C779 C 0.45298 0.3917 0.42696 0.0
C780 C 0.42571 0.40857 0.41255 0.0
C781 C 0.42637 0.41408 0.48235 0.0
C782 C 0.44027 0.40784 0.52436 0.0
C783 C 0.45332 0.39673 0.49717 0.0
H784 H 0.90887 0.54779 0.16868 0.0
H785 H 0.87757 0.54901 0.98115 0.0
H786 H 0.92907 0.56963 0.11923 0.0
H787 H 0.89721 0.5714 0.93285 0.0
H788 H 0.9481 0.59228 0.83353 0.0
H789 H 0.92584 0.57312 0.88576 0.0
H790 H 0.93382 0.59909 0.08327 0.0
H791 H 0.95664 0.61768 0.03155 0.0
C792 C 0.9061 0.55302 0.11747 0.0
C793 C 0.89174 0.54656 0.07857 0.0
C794 C 0.91765 0.56561 0.08909 0.0
C795 C 0.91493 0.5722 0.02154 0.0
C796 C 0.90002 0.56632 0.98419 0.0
C797 C 0.88866 0.55357 0.01213 0.0
C798 C 0.94502 0.59397 0.88798 0.0
C799 C 0.95422 0.60643 0.92841 0.0
C800 C 0.93215 0.58305 0.918 0.0
C801 C 0.92799 0.58449 0.98899 0.0
C802 C 0.93688 0.59734 0.02886 0.0
C803 C 0.9499 0.60809 -0.00096 0.0
H804 H 0.93915 0.89332 0.65926 0.0
H805 H 0.96609 0.8931 0.46151 0.0
H806 H 0.91617 0.91241 0.61079 0.0
H807 H 0.94367 0.91272 0.41404 0.0
H808 H 0.89481 0.93926 0.32924 0.0
H809 H 0.91414 0.91626 0.37652 0.0
H810 H 0.91267 0.94208 0.57664 0.0
H811 H 0.89288 0.96443 0.5304 0.0
C812 C 0.94019 0.89737 0.60553 0.0
C813 C 0.95449 0.89176 0.56442 0.0
C814 C 0.92706 0.90839 0.57773 0.0
C815 C 0.92807 0.91425 0.50847 0.0
C816 C 0.94223 0.9083 0.46715 0.0
C817 C 0.95521 0.89712 0.49464 0.0
C818 C 0.89852 0.93989 0.38344 0.0
C819 C 0.89233 0.95371 0.4259 0.0
C820 C 0.90967 0.92677 0.41055 0.0
C821 C 0.91506 0.92729 0.4805 0.0
C822 C 0.90859 0.94099 0.52298 0.0
C823 C 0.89731 0.95394 0.49618 0.0
H824 H 0.62057 0.95402 0.96166 0.0
H825 H 0.59243 0.94881 0.15568 0.0
H826 H 0.60155 0.93154 0.90993 0.0
H827 H 0.57288 0.92691 0.10328 0.0
H828 H 0.54723 0.8792 0.0105 0.0
H829 H 0.5701 0.89804 0.05998 0.0
H830 H 0.57234 0.92797 0.86885 0.0
H831 H 0.54996 0.90845 0.81832 0.0
C832 C 0.61031 0.94805 0.99332 0.0
C833 C 0.60797 0.95324 0.06277 0.0
C834 C 0.59931 0.93524 0.96345 0.0
C835 C 0.58554 0.92744 0.00204 0.0
C836 C 0.58349 0.93237 0.07208 0.0
C837 C 0.59466 0.94502 0.10221 0.0
C838 C 0.55275 0.8897 0.97879 0.0
C839 C 0.54671 0.89244 0.91067 0.0
C840 C 0.56579 0.9006 0.00737 0.0
C841 C 0.57294 0.91475 0.96899 0.0
C842 C 0.56731 0.91711 0.89987 0.0
C843 C 0.55442 0.90598 0.87085 0.0
H844 H 0.60537 0.56071 0.33349 0.0
H845 H 0.60538 0.5332 0.53009 0.0
H846 H 0.58671 0.58387 0.38337 0.0
H847 H 0.58621 0.55577 0.57885 0.0
H848 H 0.56076 0.60443 0.66761 0.0
H849 H 0.58345 0.58519 0.6179 0.0
H850 H 0.55716 0.58797 0.4189 0.0
H851 H 0.53509 0.60771 0.46763 0.0
C852 C 0.60137 0.55959 0.38725 0.0
C853 C 0.60681 0.54507 0.42765 0.0
C854 C 0.5906 0.57282 0.41585 0.0
C855 C 0.58484 0.57171 0.48523 0.0
C856 C 0.59059 0.55731 0.52573 0.0
C857 C 0.6015 0.54424 0.49746 0.0
C858 C 0.55996 0.60105 0.61311 0.0
C859 C 0.54606 0.60754 0.57177 0.0
C860 C 0.57291 0.58993 0.58461 0.0
C861 C 0.57212 0.58488 0.51433 0.0
C862 C 0.55843 0.59175 0.47283 0.0
C863 C 0.54564 0.60301 0.50105 0.0
H864 H 0.03241 0.29546 0.23516 0.0
H865 H 0.97894 0.28925 0.15947 0.0
H866 H 0.03278 0.2644 0.27121 0.0
H867 H 0.97943 0.25794 0.19281 0.0
H868 H 0.97934 0.20838 0.32868 0.0
H869 H 0.97926 0.23975 0.29608 0.0
H870 H 0.0334 0.23487 0.2246 0.0
H871 H 0.03356 0.20375 0.2599 0.0
C872 C 0.02079 0.28733 0.22588 0.0
C873 C 0.00563 0.29463 0.19492 0.0
C874 C 0.02102 0.26954 0.24599 0.0
C875 C 0.00611 0.25868 0.23512 0.0
C876 C 0.99103 0.266 0.20295 0.0
C877 C 0.9908 0.28383 0.18309 0.0
C878 C 0.99125 0.21416 0.30678 0.0
C879 C 0.00645 0.20378 0.29658 0.0
C880 C 0.99116 0.23202 0.28735 0.0
C881 C 0.00629 0.2398 0.25725 0.0
C882 C 0.02159 0.22937 0.2482 0.0
C883 C 0.02167 0.21155 0.26789 0.0
H884 H 0.29425 0.03491 0.77244 0.0
H885 H 0.29002 0.97966 0.8276 0.0
H886 H 0.26318 0.03507 0.73668 0.0
H887 H 0.25865 0.97987 0.79534 0.0
H888 H 0.20886 0.98076 0.66256 0.0
H889 H 0.24022 0.98114 0.69463 0.0
H890 H 0.23374 0.0338 0.77987 0.0
H891 H 0.20268 0.03364 0.74429 0.0
C892 C 0.28655 0.02284 0.77726 0.0
C893 C 0.29445 0.00723 0.80188 0.0
C894 C 0.26873 0.02293 0.75742 0.0
C895 C 0.2584 0.00744 0.76267 0.0
C896 C 0.26629 0.99194 0.78927 0.0
C897 C 0.28415 0.99184 0.80857 0.0
C898 C 0.21429 0.99248 0.68722 0.0
C899 C 0.20345 0.00716 0.70117 0.0
C900 C 0.23216 0.99263 0.70646 0.0
C901 C 0.23951 0.00744 0.74043 0.0
C902 C 0.22862 0.02224 0.75325 0.0
C903 C 0.21081 0.02212 0.73346 0.0
H904 H 0.46508 0.29512 0.26231 0.0
H905 H 0.51888 0.28975 0.33519 0.0
H906 H 0.46488 0.26393 0.22802 0.0
H907 H 0.51858 0.25831 0.30374 0.0
H908 H 0.51885 0.20865 0.16819 0.0
H909 H 0.51869 0.23997 0.20134 0.0
H910 H 0.46475 0.23444 0.27443 0.0
H911 H 0.46482 0.20337 0.23841 0.0
C912 C 0.47681 0.28714 0.27141 0.0
C913 C 0.49202 0.29473 0.30089 0.0
C914 C 0.47667 0.26928 0.25233 0.0
C915 C 0.49175 0.25862 0.26285 0.0
C916 C 0.50686 0.26621 0.29385 0.0
C917 C 0.50699 0.28412 0.31262 0.0
C918 C 0.50695 0.21428 0.19071 0.0
C919 C 0.49187 0.20372 0.20106 0.0
C920 C 0.5069 0.23211 0.21044 0.0
C921 C 0.49175 0.2397 0.24105 0.0
C922 C 0.47658 0.22909 0.25046 0.0
C923 C 0.47664 0.21129 0.2304 0.0
H924 H 0.29512 0.46555 0.72936 0.0
H925 H 0.29008 0.52036 0.66874 0.0
H926 H 0.26409 0.4652 0.76558 0.0
H927 H 0.25875 0.51993 0.70174 0.0
H928 H 0.209 0.51892 0.83533 0.0
H929 H 0.24038 0.51889 0.80322 0.0
H930 H 0.23464 0.46581 0.72117 0.0
H931 H 0.20355 0.46568 0.7565 0.0
C932 C 0.28725 0.47748 0.72344 0.0
C933 C 0.29489 0.49302 0.69693 0.0
C934 C 0.26946 0.47727 0.74358 0.0
C935 C 0.25891 0.49257 0.7369 0.0
C936 C 0.26656 0.50802 0.7088 0.0
C937 C 0.2844 0.50823 0.68912 0.0
C938 C 0.2146 0.5072 0.8113 0.0
C939 C 0.20398 0.49232 0.79813 0.0
C940 C 0.23248 0.50724 0.79208 0.0
C941 C 0.24003 0.4924 0.75906 0.0
C942 C 0.22935 0.4774 0.74707 0.0
C943 C 0.21153 0.47735 0.76673 0.0
H944 H 0.01818 0.78916 0.65999 0.0
H945 H 0.96397 0.79465 0.72772 0.0
H946 H 0.01773 0.75784 0.69252 0.0
H947 H 0.96369 0.76368 0.76438 0.0
H948 H 0.96356 0.70327 0.76262 0.0
H949 H 0.96345 0.73417 0.72502 0.0
H950 H 0.01791 0.73957 0.79254 0.0
H951 H 0.01817 0.70832 0.826 0.0
C952 C 0.00617 0.78359 0.68183 0.0
C953 C 0.99116 0.79424 0.69204 0.0
C954 C 0.00596 0.76574 0.70137 0.0
C955 C 0.99075 0.75823 0.73197 0.0
C956 C 0.9756 0.76891 0.74054 0.0
C957 C 0.97578 0.78669 0.72024 0.0
C958 C 0.9755 0.71111 0.76886 0.0
C959 C 0.99094 0.70346 0.79619 0.0
C960 C 0.97542 0.72886 0.74802 0.0
C961 C 0.99072 0.7394 0.7552 0.0
C962 C 0.00601 0.73178 0.78476 0.0
C963 C 0.00612 0.71397 0.80484 0.0
H964 H 0.79501 0.96542 0.26197 0.0
H965 H 0.78985 0.01913 0.33615 0.0
H966 H 0.76384 0.96543 0.22741 0.0
H967 H 0.75844 0.01904 0.30423 0.0
H968 H 0.70902 0.01964 0.16647 0.0
H969 H 0.74026 0.01933 0.20077 0.0
H970 H 0.73429 0.96546 0.27415 0.0
H971 H 0.70328 0.96569 0.23724 0.0
C972 C 0.78709 0.97717 0.27133 0.0
C973 C 0.79473 0.9923 0.30126 0.0
C974 C 0.76923 0.97716 0.25207 0.0
C975 C 0.75864 0.99227 0.26278 0.0
C976 C 0.76628 0.00729 0.29423 0.0
C977 C 0.78418 0.00729 0.31325 0.0
C978 C 0.71452 0.00772 0.18931 0.0
C979 C 0.70387 0.9927 0.19942 0.0
C980 C 0.73232 0.00758 0.20969 0.0
C981 C 0.73976 0.9924 0.24063 0.0
C982 C 0.72904 0.97731 0.24992 0.0
C983 C 0.71129 0.97746 0.22931 0.0
H984 H 0.48093 0.78984 0.84777 0.0
H985 H 0.53398 0.79512 0.76684 0.0
H986 H 0.48111 0.75822 0.81857 0.0
H987 H 0.53409 0.76372 0.73564 0.0
H988 H 0.53407 0.70317 0.74799 0.0
H989 H 0.53435 0.73417 0.78516 0.0
H990 H 0.48035 0.74012 0.71335 0.0
H991 H 0.48003 0.70891 0.67827 0.0
C992 C 0.49266 0.78414 0.82419 0.0
C993 C 0.50739 0.7948 0.80894 0.0
C994 C 0.49271 0.76614 0.80679 0.0
C995 C 0.50755 0.7585 0.77414 0.0
C996 C 0.5225 0.76915 0.76109 0.0
C997 C 0.52242 0.78712 0.77849 0.0
C998 C 0.5223 0.71117 0.74038 0.0
C999 C 0.50703 0.70378 0.71053 0.0
C1000 C 0.52246 0.72891 0.76125 0.0
C1001 C 0.50734 0.7396 0.75245 0.0
C1002 C 0.49211 0.73217 0.72182 0.0
C1003 C 0.49197 0.71441 0.70099 0.0
H1004 H 0.7895 0.48017 0.16029 0.0
H1005 H 0.79586 0.53205 0.25115 0.0
H1006 H 0.75807 0.48032 0.1921 0.0
H1007 H 0.76461 0.53209 0.28499 0.0
H1008 H 0.70391 0.53354 0.26627 0.0
H1009 H 0.73523 0.53364 0.23331 0.0
H1010 H 0.73959 0.47877 0.29624 0.0
H1011 H 0.7081 0.47867 0.32724 0.0
C1012 C 0.78409 0.49161 0.18689 0.0
C1013 C 0.79496 0.5061 0.20334 0.0
C1014 C 0.76619 0.49164 0.20577 0.0
C1015 C 0.75886 0.50619 0.24135 0.0
C1016 C 0.7698 0.52076 0.25707 0.0
C1017 C 0.78767 0.52071 0.23818 0.0
C1018 C 0.71164 0.52155 0.27295 0.0
C1019 C 0.70373 0.50609 0.29897 0.0
C1020 C 0.72956 0.52161 0.25456 0.0
C1021 C 0.73989 0.50619 0.26197 0.0
C1022 C 0.73194 0.49078 0.289 0.0
C1023 C 0.71401 0.49075 0.30741 0.0
H1024 H 0.01158 0.34112 0.85566 0.0
H1025 H 0.9595 0.36315 0.81776 0.0
H1026 H 0.01832 0.34324 0.73246 0.0
H1027 H 0.9663 0.36491 0.69375 0.0
H1028 H 0.98502 0.34861 0.46692 0.0
H1029 H 0.97591 0.34355 0.58688 0.0
H1030 H 0.02151 0.37289 0.65855 0.0
H1031 H 0.03015 0.37881 0.53859 0.0
C1032 C 0.00141 0.34605 0.82097 0.0
C1033 C 0.98506 0.35218 0.84665 0.0
C1034 C 0.00535 0.34734 0.75053 0.0
C1035 C 0.99291 0.35446 0.70421 0.0
C1036 C 0.9761 0.35941 0.72877 0.0
C1037 C 0.97223 0.3584 0.7996 0.0
C1038 C 0.99274 0.35457 0.50809 0.0
C1039 C 0.00792 0.36476 0.4933 0.0
C1040 C 0.98765 0.35141 0.57666 0.0
C1041 C 0.998 0.35788 0.63153 0.0
C1042 C 0.01337 0.36771 0.6169 0.0
C1043 C 0.01826 0.37114 0.54843 0.0
H1044 H 0.15888 0.02304 0.01443 0.0
H1045 H 0.10987 0.99366 0.00759 0.0
H1046 H 0.16424 0.01262 0.13219 0.0
H1047 H 0.11442 0.98406 0.12716 0.0
H1048 H 0.1303 0.96047 0.3299 0.0
H1049 H 0.13 0.96653 0.20569 0.0
H1050 H 0.15467 0.01745 0.24374 0.0
H1051 H 0.15591 0.01089 0.36633 0.0
C1052 C 0.14918 0.01447 0.0388 0.0
C1053 C 0.13394 0.00919 0.00268 0.0
C1054 C 0.15217 0.00853 0.10635 0.0
C1055 C 0.13973 0.99755 0.13993 0.0
C1056 C 0.1245 0.99219 0.10296 0.0
C1057 C 0.12174 0.99782 0.03474 0.0
C1058 C 0.136 0.97277 0.31131 0.0
C1059 C 0.14303 0.98522 0.35798 0.0
C1060 C 0.13565 0.97636 0.24014 0.0
C1061 C 0.14206 0.99262 0.21427 0.0
C1062 C 0.14982 0.00468 0.26102 0.0
C1063 C 0.15045 0.00095 0.3318 0.0
H1064 H 0.48496 0.15764 0.86087 0.0
H1065 H 0.5389 0.14047 0.82417 0.0
H1066 H 0.47865 0.15507 0.73756 0.0
H1067 H 0.53248 0.13823 0.69995 0.0
H1068 H 0.51239 0.15254 0.47271 0.0
H1069 H 0.521 0.15848 0.59252 0.0
H1070 H 0.47824 0.1252 0.6645 0.0
H1071 H 0.47014 0.11845 0.54471 0.0
C1072 C 0.4956 0.15367 0.82644 0.0
C1073 C 0.51239 0.14898 0.85251 0.0
C1074 C 0.49191 0.15214 0.75592 0.0
C1075 C 0.505 0.1462 0.7099 0.0
C1076 C 0.52217 0.1428 0.73479 0.0
C1077 C 0.52582 0.14408 0.80573 0.0
C1078 C 0.50522 0.14595 0.51386 0.0
C1079 C 0.49099 0.13445 0.4992 0.0
C1080 C 0.51001 0.1496 0.58238 0.0
C1081 C 0.50029 0.14227 0.63729 0.0
C1082 C 0.48587 0.13107 0.6228 0.0
C1083 C 0.48129 0.12718 0.55441 0.0
H1084 H 0.37964 0.47011 0.04206 0.0
H1085 H 0.34588 0.51273 0.97092 0.0
H1086 H 0.3734 0.47847 0.162 0.0
H1087 H 0.34058 0.52164 0.09069 0.0
H1088 H 0.36071 0.53959 0.3206 0.0
H1089 H 0.36236 0.53281 0.19651 0.0
H1090 H 0.34319 0.47987 0.23644 0.0
H1091 H 0.34115 0.48657 0.35965 0.0
C1092 C 0.37109 0.48138 0.05189 0.0
C1093 C 0.3638 0.49113 0.99679 0.0
C1094 C 0.36751 0.48613 0.12038 0.0
C1095 C 0.35664 0.50077 0.13505 0.0
C1096 C 0.34924 0.51048 0.08033 0.0
C1097 C 0.35254 0.50552 0.01176 0.0
C1098 C 0.35647 0.52665 0.30271 0.0
C1099 C 0.35101 0.51356 0.35006 0.0
C1100 C 0.35742 0.5228 0.23186 0.0
C1101 C 0.35316 0.50576 0.20767 0.0
C1102 C 0.34675 0.49303 0.2543 0.0
C1103 C 0.34552 0.49694 0.32473 0.0
H1104 H 0.95948 0.13354 0.66888 0.0
H1105 H 0.01148 0.15568 0.63176 0.0
H1106 H 0.96551 0.13317 0.79317 0.0
H1107 H 0.01793 0.15434 0.75434 0.0
H1108 H 0.024 0.15876 0.98296 0.0
H1109 H 0.01375 0.16454 0.86531 0.0
H1110 H 0.98198 0.11672 0.87259 0.0
H1111 H 0.99147 0.11179 0.99208 0.0
C1112 C 0.97213 0.13846 0.68732 0.0
C1113 C 0.98502 0.14454 0.64044 0.0
C1114 C 0.97569 0.13807 0.75853 0.0
C1115 C 0.99233 0.14348 0.78423 0.0
C1116 C 0.00487 0.15029 0.73721 0.0
C1117 C 0.0012 0.15097 0.66642 0.0
C1118 C 0.01476 0.14959 0.95914 0.0
C1119 C 0.00856 0.13481 0.99587 0.0
C1120 C 0.00891 0.15282 0.89164 0.0
C1121 C 0.99711 0.14104 0.85867 0.0
C1122 C 0.9908 0.1263 0.8963 0.0
C1123 C 0.99634 0.12333 0.96449 0.0
H1124 H 0.33464 0.99753 0.14178 0.0
H1125 H 0.38723 0.97518 0.16009 0.0
H1126 H 0.33375 0.00194 0.2672 0.0
H1127 H 0.38653 0.98 0.2844 0.0
H1128 H 0.37793 0.98236 0.51318 0.0
H1129 H 0.37374 0.97247 0.39427 0.0
H1130 H 0.34888 0.02252 0.34428 0.0
H1131 H 0.35219 0.032 0.46439 0.0
C1132 C 0.34588 0.99331 0.17263 0.0
C1133 C 0.36109 0.98622 0.141 0.0
C1134 C 0.34543 0.99596 0.24433 0.0
C1135 C 0.36017 0.99155 0.28562 0.0
C1136 C 0.3749 0.98344 0.2543 0.0
C1137 C 0.37534 0.98078 0.18282 0.0
C1138 C 0.37108 0.99104 0.47746 0.0
C1139 C 0.36505 0.00782 0.49851 0.0
C1140 C 0.36891 0.98547 0.40897 0.0
C1141 C 0.36088 0.99666 0.35984 0.0
C1142 C 0.35479 0.01342 0.38109 0.0
C1143 C 0.3569 0.01895 0.44966 0.0
H1144 H 0.53928 0.36282 0.67204 0.0
H1145 H 0.48649 0.34252 0.63548 0.0
H1146 H 0.53343 0.3632 0.79646 0.0
H1147 H 0.48027 0.34388 0.75812 0.0
H1148 H 0.47412 0.33959 0.98626 0.0
H1149 H 0.4843 0.33338 0.86888 0.0
H1150 H 0.51744 0.38027 0.87584 0.0
H1151 H 0.50799 0.38562 0.99506 0.0
C1152 C 0.5265 0.35829 0.69059 0.0
C1153 C 0.51332 0.35278 0.64383 0.0
C1154 C 0.52305 0.35869 0.76187 0.0
C1155 C 0.50627 0.35383 0.78772 0.0
C1156 C 0.49344 0.34751 0.74084 0.0
C1157 C 0.49698 0.34683 0.67 0.0
C1158 C 0.48365 0.34847 0.96243 0.0
C1159 C 0.49022 0.36312 -0.00106 0.0
C1160 C 0.48946 0.34498 0.89512 0.0
C1161 C 0.50162 0.35639 0.86215 0.0
C1162 C 0.50834 0.37098 0.8996 0.0
C1163 C 0.50281 0.37419 0.96762 0.0
H1164 H 0.13563 0.53917 0.16952 0.0
H1165 H 0.15651 0.4866 0.13349 0.0
H1166 H 0.13519 0.53334 0.29395 0.0
H1167 H 0.15512 0.48039 0.25617 0.0
H1168 H 0.15927 0.47444 0.48455 0.0
H1169 H 0.16549 0.48463 0.36717 0.0
H1170 H 0.11815 0.51711 0.37286 0.0
H1171 H 0.11278 0.50765 0.49207 0.0
C1172 C 0.14028 0.52644 0.1882 0.0
C1173 C 0.14596 0.51331 0.14157 0.0
C1174 C 0.13985 0.52301 0.25948 0.0
C1175 C 0.14486 0.50628 0.28546 0.0
C1176 C 0.15136 0.49351 0.23875 0.0
C1177 C 0.15206 0.49705 0.1679 0.0
C1178 C 0.1503 0.48382 0.46043 0.0
C1179 C 0.13551 0.49021 0.49657 0.0
C1180 C 0.15379 0.48964 0.39314 0.0
C1181 C 0.14226 0.50162 0.35984 0.0
C1182 C 0.12753 0.50815 0.3969 0.0
C1183 C 0.1243 0.50261 0.4649 0.0
H1184 H 0.01568 0.61893 0.50929 0.0
H1185 H 0.96648 0.64566 0.46207 0.0
H1186 H 0.02552 0.62319 0.39033 0.0
H1187 H 0.97588 0.64906 0.34195 0.0
H1188 H 0.00096 0.66343 0.1396 0.0
H1189 H 0.99654 0.664 0.26507 0.0
H1190 H 0.01785 0.61092 0.27996 0.0
H1191 H 0.0227 0.61054 0.15569 0.0
C1192 C 0.00709 0.62599 0.47387 0.0
C1193 C 0.99045 0.63228 0.49541 0.0
C1194 C 0.01263 0.62821 0.40535 0.0
C1195 C 0.00154 0.63656 0.35666 0.0
C1196 C 0.98491 0.6429 0.37839 0.0
C1197 C 0.97941 0.64074 0.44698 0.0
C1198 C 0.00504 0.65205 0.16997 0.0
C1199 C 0.01198 0.63685 0.13768 0.0
C1200 C 0.00237 0.65232 0.24171 0.0
C1201 C 0.00662 0.63742 0.28238 0.0
C1202 C 0.01455 0.62268 0.2504 0.0
C1203 C 0.01723 0.62242 0.17892 0.0
H1204 H 0.88606 0.00772 0.99443 0.0
H1205 H 0.8394 0.97473 0.9864 0.0
H1206 H 0.88083 0.01718 0.87513 0.0
H1207 H 0.83331 0.98494 0.86891 0.0
H1208 H 0.84234 0.98694 0.63536 0.0
H1209 H 0.84367 0.98069 0.758 0.0
H1210 H 0.86394 0.0335 0.79614 0.0
H1211 H 0.86357 0.03938 0.67174 0.0
C1212 C 0.87453 0.00273 0.96711 0.0
C1213 C 0.86323 0.99039 -0.00134 0.0
C1214 C 0.87138 0.00827 0.89906 0.0
C1215 C 0.85664 0.00181 0.86184 0.0
C1216 C 0.84502 0.98989 0.89501 0.0
C1217 C 0.84844 0.98406 0.96235 0.0
C1218 C 0.84685 0.99735 0.66984 0.0
C1219 C 0.85307 0.01359 0.64363 0.0
C1220 C 0.84752 0.99379 0.74067 0.0
C1221 C 0.85409 0.00651 0.78747 0.0
C1222 C 0.85923 0.02321 0.76159 0.0
C1223 C 0.85884 0.02667 0.69033 0.0
H1224 H 0.52255 0.83781 0.47044 0.0
H1225 H 0.48688 0.88221 0.49282 0.0
H1226 H 0.51181 0.83308 0.35188 0.0
H1227 H 0.47636 0.87766 0.37375 0.0
H1228 H 0.49185 0.8779 0.13262 0.0
H1229 H 0.49598 0.88064 0.25761 0.0
H1230 H 0.48049 0.82594 0.28407 0.0
H1231 H 0.47577 0.82333 0.15797 0.0
C1232 C 0.51233 0.84645 0.45 0.0
C1233 C 0.50549 0.86035 0.49039 0.0
C1234 C 0.50607 0.84363 0.38269 0.0
C1235 C 0.49319 0.85493 0.35426 0.0
C1236 C 0.48622 0.86872 0.39494 0.0
C1237 C 0.49221 0.87131 0.46276 0.0
C1238 C 0.48904 0.86654 0.16527 0.0
C1239 C 0.48355 0.85039 0.13607 0.0
C1240 C 0.49131 0.86815 0.23664 0.0
C1241 C 0.48854 0.85351 0.28009 0.0
C1242 C 0.48267 0.8374 0.25128 0.0
C1243 C 0.47992 0.83592 0.1796 0.0
H1244 H 0.61156 0.49198 0.99355 0.0
H1245 H 0.65897 0.52387 0.98414 0.0
H1246 H 0.6163 0.48245 0.87402 0.0
H1247 H 0.66456 0.51354 0.86646 0.0
H1248 H 0.65563 0.51136 0.63297 0.0
H1249 H 0.65441 0.51785 0.75553 0.0
H1250 H 0.63243 0.46576 0.7945 0.0
H1251 H 0.63267 0.45972 0.67023 0.0
C1252 C 0.62315 0.4967 0.96588 0.0
C1253 C 0.63481 0.50875 0.99718 0.0
C1254 C 0.62601 0.49112 0.89766 0.0
C1255 C 0.64082 0.49723 0.85995 0.0
C1256 C 0.65278 0.50887 0.89285 0.0
C1257 C 0.64966 0.51475 0.96037 0.0
C1258 C 0.65077 0.50116 0.66767 0.0
C1259 C 0.64407 0.48508 0.64173 0.0
C1260 C 0.65015 0.50485 0.73845 0.0
C1261 C 0.64315 0.49241 0.7855 0.0
C1262 C 0.63748 0.47586 0.75984 0.0
C1263 C 0.6378 0.4723 0.68864 0.0
H1264 H 0.00195 0.83479 0.35149 0.0
H1265 H 0.02123 0.88865 0.33599 0.0
H1266 H 0.99763 0.83407 0.22599 0.0
H1267 H 0.01648 0.88809 0.21165 0.0
H1268 H 0.01512 0.87977 0.98231 0.0
H1269 H 0.02498 0.87597 0.10152 0.0
H1270 H 0.97626 0.8483 0.14921 0.0
H1271 H 0.96686 0.8513 0.02884 0.0
C1272 C 0.00552 0.84636 0.32125 0.0
C1273 C 0.01173 0.86185 0.35367 0.0
C1274 C 0.00291 0.846 0.24951 0.0
C1275 C 0.00649 0.8611 0.20903 0.0
C1276 C 0.01371 0.87618 0.24114 0.0
C1277 C 0.01633 0.87654 0.31263 0.0
C1278 C 0.00675 0.87243 0.01766 0.0
C1279 C 0.99038 0.86551 0.99592 0.0
C1280 C 0.01229 0.87046 0.08627 0.0
C1281 C 0.00146 0.86173 0.13477 0.0
C1282 C 0.98509 0.85477 0.11285 0.0
C1283 C 0.97959 0.85669 0.04417 0.0
H1284 H 0.65723 0.9859 0.85605 0.0
H1285 H 0.63834 0.03925 0.81943 0.0
H1286 H 0.65454 0.97942 0.73282 0.0
H1287 H 0.63598 0.03269 0.69535 0.0
H1288 H 0.65064 0.01315 0.46763 0.0
H1289 H 0.65629 0.02201 0.5875 0.0
H1290 H 0.62482 0.97792 0.65972 0.0
H1291 H 0.61837 0.96954 0.53992 0.0
C1292 C 0.65287 0.99638 0.82163 0.0
C1293 C 0.64777 0.01304 0.84772 0.0
C1294 C 0.65125 0.9926 0.75116 0.0
C1295 C 0.64481 0.00548 0.70515 0.0
C1296 C 0.64093 0.02254 0.73009 0.0
C1297 C 0.64229 0.02627 0.80097 0.0
C1298 C 0.64436 0.00574 0.5089 0.0
C1299 C 0.63347 0.99104 0.4943 0.0
C1300 C 0.64784 0.01067 0.57745 0.0
C1301 C 0.64096 0.00065 0.63247 0.0
C1302 C 0.63034 0.9858 0.61799 0.0
C1303 C 0.62661 0.98106 0.54959 0.0
H1304 H 0.48647 0.64928 0.97826 0.0
H1305 H 0.53169 0.61926 0.05009 0.0
H1306 H 0.47751 0.65458 0.09818 0.0
H1307 H 0.52319 0.62542 0.16999 0.0
H1308 H 0.51352 0.65741 0.36671 0.0
H1309 H 0.5202 0.65495 0.24351 0.0
H1310 H 0.46791 0.63381 0.20572 0.0
H1311 H 0.46116 0.63593 0.32966 0.0
C1312 C 0.49423 0.6434 0.01944 0.0
C1313 C 0.50941 0.6332 0.00469 0.0
C1314 C 0.48924 0.64671 0.08803 0.0
C1315 C 0.49965 0.64038 0.14296 0.0
C1316 C 0.51499 0.63051 0.12834 0.0
C1317 C 0.5198 0.62693 0.05988 0.0
C1318 C 0.50328 0.65253 0.33219 0.0
C1319 C 0.48686 0.64667 0.35812 0.0
C1320 C 0.50719 0.65104 0.26175 0.0
C1321 C 0.49465 0.64397 0.21567 0.0
C1322 C 0.47779 0.63927 0.24049 0.0
C1323 C 0.47395 0.64049 0.3113 0.0
H1324 H 0.84974 0.48463 0.47642 0.0
H1325 H 0.87751 0.53124 0.54865 0.0
H1326 H 0.8442 0.47573 0.59631 0.0
H1327 H 0.87121 0.52273 0.66838 0.0
H1328 H 0.83959 0.51279 0.86333 0.0
H1329 H 0.84192 0.51902 0.73988 0.0
H1330 H 0.86423 0.46707 0.70546 0.0
H1331 H 0.86216 0.46075 0.82971 0.0
C1332 C 0.85508 0.49272 0.51779 0.0
C1333 C 0.86468 0.50829 0.50327 0.0
C1334 C 0.85165 0.48775 0.58628 0.0
C1335 C 0.85729 0.49855 0.64119 0.0
C1336 C 0.86663 0.51424 0.62671 0.0
C1337 C 0.8703 0.51906 0.55839 0.0
C1338 C 0.84472 0.50253 0.82953 0.0
C1339 C 0.85097 0.48637 0.85652 0.0
C1340 C 0.84612 0.50617 0.75893 0.0
C1341 C 0.85354 0.49364 0.71377 0.0
C1342 C 0.85852 0.47695 0.73956 0.0
C1343 C 0.85732 0.47336 0.81056 0.0
loop_
_geom_bond_atom_site_label_1
_geom_bond_atom_site_label_2
_geom_bond_distance
_geom_bond_site_symmetry_2
_ccdc_geom_bond_type
Co0 O3 1.970 1_455 S
Co0 N17 1.989 . S
Co0 O25 1.967 . S
Co0 O32 1.920 1_554 S
Co1 O4 1.966 1_455 S
Co1 N10 2.022 . S
Co1 N18 1.993 . S
Co1 O26 1.941 . S
C2 O3 1.258 . S
C2 O4 1.263 . S
O3 Co0 1.970 1_655 S
O3 C2 1.258 . S
O4 Co1 1.966 1_655 S
O4 C2 1.263 . S
C5 O6 1.235 . S
C5 O32 1.289 1_655 S
O6 C5 1.235 . S
C7 C9 1.400 . S
C7 N10 1.351 . S
C7 C12 1.501 1_455 S
C8 C9 1.387 . S
C8 N11 1.341 . S
C9 C7 1.400 . S
C9 C8 1.387 . S
N10 Co1 2.022 . S
N10 C7 1.351 . S
N10 N11 1.365 . S
N11 C8 1.341 . S
N11 N10 1.365 . S
N11 H31 0.862 . S
C12 C7 1.501 1_655 S
C12 H13 0.961 . S
C12 H14 0.961 . S
C12 H15 0.960 . S
H13 C12 0.961 . S
H14 C12 0.961 . S
H15 C12 0.960 . S
C16 N17 1.342 . S
C16 C20 1.401 . S
C16 C21 1.499 . S
N17 Co0 1.989 . S
N17 C16 1.342 . S
N17 N18 1.388 . S
N18 Co1 1.993 . S
N18 N17 1.388 . S
N18 C19 1.346 . S
C19 N18 1.346 . S
C19 C20 1.396 . S
C19 C29 1.510 . S
C20 C16 1.401 . S
C20 C19 1.396 . S
C21 C16 1.499 . S
C21 H22 0.959 . S
C21 H23 0.960 . S
C21 H24 0.961 . S
H22 C21 0.959 . S
H23 C21 0.960 . S
H24 C21 0.961 . S
O25 Co0 1.967 . S
O25 C33 1.258 . S
O26 Co1 1.941 . S
O26 C33 1.266 . S
H27 C29 0.959 . S
H28 C29 0.961 . S
C29 C19 1.510 . S
C29 H27 0.959 . S
C29 H28 0.961 . S
C29 H30 0.960 . S
H30 C29 0.960 . S
H31 N11 0.862 . S
O32 Co0 1.920 1_556 S
O32 C5 1.289 1_455 S
C33 O25 1.258 . S
C33 O26 1.266 . S
Co34 O37 1.970 1_545 S
Co34 N51 1.989 . S
Co34 O59 1.967 . S
Co34 O66 1.920 . S
Co35 O38 1.966 1_545 S
Co35 N44 2.022 . S
Co35 N52 1.993 . S
Co35 O60 1.941 . S
C36 O37 1.258 . S
C36 O38 1.263 . S
O37 Co34 1.970 1_565 S
O37 C36 1.258 . S
O38 Co35 1.966 1_565 S
O38 C36 1.263 . S
C39 O40 1.235 . S
C39 O66 1.289 1_565 S
O40 C39 1.235 . S
C41 C43 1.400 . S
C41 N44 1.351 . S
C41 C46 1.501 1_545 S
C42 C43 1.387 . S
C42 N45 1.341 . S
C43 C41 1.400 . S
C43 C42 1.387 . S
N44 Co35 2.022 . S
N44 C41 1.351 . S
N44 N45 1.365 . S
N45 C42 1.341 . S
N45 N44 1.365 . S
N45 H65 0.862 . S
C46 C41 1.501 1_565 S
C46 H47 0.961 . S
C46 H48 0.961 . S
C46 H49 0.960 . S
H47 C46 0.961 . S
H48 C46 0.961 . S
H49 C46 0.960 . S
C50 N51 1.342 . S
C50 C54 1.401 . S
C50 C55 1.499 . S
N51 Co34 1.989 . S
N51 C50 1.342 . S
N51 N52 1.388 . S
N52 Co35 1.993 . S
N52 N51 1.388 . S
N52 C53 1.346 . S
C53 N52 1.346 . S
C53 C54 1.396 . S
C53 C63 1.510 . S
C54 C50 1.401 . S
C54 C53 1.396 . S
C55 C50 1.499 . S
C55 H56 0.959 . S
C55 H57 0.960 . S
C55 H58 0.961 . S
H56 C55 0.959 . S
H57 C55 0.960 . S
H58 C55 0.961 . S
O59 Co34 1.967 . S
O59 C67 1.258 . S
O60 Co35 1.941 . S
O60 C67 1.266 . S
H61 C63 0.959 . S
H62 C63 0.961 . S
C63 C53 1.510 . S
C63 H61 0.959 . S
C63 H62 0.961 . S
C63 H64 0.960 . S
H64 C63 0.960 . S
H65 N45 0.862 . S
O66 Co34 1.920 . S
O66 C39 1.289 1_545 S
C67 O59 1.258 . S
C67 O60 1.266 . S
Co68 O71 1.970 . S
Co68 N85 1.989 . S
Co68 O93 1.967 . S
Co68 O100 1.920 1_554 S
Co69 O72 1.966 . S
Co69 N78 2.022 . S
Co69 N86 1.993 . S
Co69 O94 1.941 . S
C70 O71 1.258 . S
C70 O72 1.263 . S
O71 Co68 1.970 . S
O71 C70 1.258 . S
O72 Co69 1.966 . S
O72 C70 1.263 . S
C73 O74 1.235 . S
C73 O100 1.289 . S
O74 C73 1.235 . S
C75 C77 1.400 . S
C75 N78 1.351 . S
C75 C80 1.501 . S
C76 C77 1.387 . S
C76 N79 1.341 . S
C77 C75 1.400 . S
C77 C76 1.387 . S
N78 Co69 2.022 . S
N78 C75 1.351 . S
N78 N79 1.365 . S
N79 C76 1.341 . S
N79 N78 1.365 . S
N79 H99 0.862 . S
C80 C75 1.501 . S
C80 H81 0.961 . S
C80 H82 0.961 . S
C80 H83 0.960 . S
H81 C80 0.961 . S
H82 C80 0.961 . S
H83 C80 0.960 . S
C84 N85 1.342 . S
C84 C88 1.401 . S
C84 C89 1.499 . S
N85 Co68 1.989 . S
N85 C84 1.342 . S
N85 N86 1.388 . S
N86 Co69 1.993 . S
N86 N85 1.388 . S
N86 C87 1.346 . S
C87 N86 1.346 . S
C87 C88 1.396 . S
C87 C97 1.510 . S
C88 C84 1.401 . S
C88 C87 1.396 . S
C89 C84 1.499 . S
C89 H90 0.959 . S
C89 H91 0.960 . S
C89 H92 0.961 . S
H90 C89 0.959 . S
H91 C89 0.960 . S
H92 C89 0.961 . S
O93 Co68 1.967 . S
O93 C101 1.258 . S
O94 Co69 1.941 . S
O94 C101 1.266 . S
H95 C97 0.959 . S
H96 C97 0.961 . S
C97 C87 1.510 . S
C97 H95 0.959 . S
C97 H96 0.961 . S
C97 H98 0.960 . S
H98 C97 0.960 . S
H99 N79 0.862 . S
O100 Co68 1.920 1_556 S
O100 C73 1.289 . S
C101 O93 1.258 . S
C101 O94 1.266 . S
Co102 O105 1.970 . S
Co102 N119 1.989 . S
Co102 O127 1.967 . S
Co102 O134 1.920 . S
Co103 O106 1.966 . S
Co103 N112 2.022 . S
Co103 N120 1.993 . S
Co103 O128 1.941 . S
C104 O105 1.258 . S
C104 O106 1.263 . S
O105 Co102 1.970 . S
O105 C104 1.258 . S
O106 Co103 1.966 . S
O106 C104 1.263 . S
C107 O108 1.235 . S
C107 O134 1.289 . S
O108 C107 1.235 . S
C109 C111 1.400 . S
C109 N112 1.351 . S
C109 C114 1.501 . S
C110 C111 1.387 . S
C110 N113 1.341 . S
C111 C109 1.400 . S
C111 C110 1.387 . S
N112 Co103 2.022 . S
N112 C109 1.351 . S
N112 N113 1.365 . S
N113 C110 1.341 . S
N113 N112 1.365 . S
N113 H133 0.862 . S
C114 C109 1.501 . S
C114 H115 0.961 . S
C114 H116 0.961 . S
C114 H117 0.960 . S
H115 C114 0.961 . S
H116 C114 0.961 . S
H117 C114 0.960 . S
C118 N119 1.342 . S
C118 C122 1.401 . S
C118 C123 1.499 . S
N119 Co102 1.989 . S
N119 C118 1.342 . S
N119 N120 1.388 . S
N120 Co103 1.993 . S
N120 N119 1.388 . S
N120 C121 1.346 . S
C121 N120 1.346 . S
C121 C122 1.396 . S
C121 C131 1.510 . S
C122 C118 1.401 . S
C122 C121 1.396 . S
C123 C118 1.499 . S
C123 H124 0.959 . S
C123 H125 0.960 . S
C123 H126 0.961 . S
H124 C123 0.959 . S
H125 C123 0.960 . S
H126 C123 0.961 . S
O127 Co102 1.967 . S
O127 C135 1.258 . S
O128 Co103 1.941 . S
O128 C135 1.266 . S
H129 C131 0.959 . S
H130 C131 0.961 . S
C131 C121 1.510 . S
C131 H129 0.959 . S
C131 H130 0.961 . S
C131 H132 0.960 . S
H132 C131 0.960 . S
H133 N113 0.862 . S
O134 Co102 1.920 . S
O134 C107 1.289 . S
C135 O127 1.258 . S
C135 O128 1.266 . S
Co136 O139 1.970 1_455 S
Co136 N153 1.989 . S
Co136 O161 1.967 . S
Co136 O168 1.920 . S
Co137 O140 1.966 1_455 S
Co137 N146 2.022 . S
Co137 N154 1.993 . S
Co137 O162 1.941 . S
C138 O139 1.258 . S
C138 O140 1.263 . S
O139 Co136 1.970 1_655 S
O139 C138 1.258 . S
O140 Co137 1.966 1_655 S
O140 C138 1.263 . S
C141 O142 1.235 . S
C141 O168 1.289 1_655 S
O142 C141 1.235 . S
C143 C145 1.400 . S
C143 N146 1.351 . S
C143 C148 1.501 1_455 S
C144 C145 1.387 . S
C144 N147 1.341 . S
C145 C143 1.400 . S
C145 C144 1.387 . S
N146 Co137 2.022 . S
N146 C143 1.351 . S
N146 N147 1.365 . S
N147 C144 1.341 . S
N147 N146 1.365 . S
N147 H167 0.862 . S
C148 C143 1.501 1_655 S
C148 H149 0.961 . S
C148 H150 0.961 . S
C148 H151 0.960 . S
H149 C148 0.961 . S
H150 C148 0.961 . S
H151 C148 0.960 . S
C152 N153 1.342 . S
C152 C156 1.401 . S
C152 C157 1.499 . S
N153 Co136 1.989 . S
N153 C152 1.342 . S
N153 N154 1.388 . S
N154 Co137 1.993 . S
N154 N153 1.388 . S
N154 C155 1.346 . S
C155 N154 1.346 . S
C155 C156 1.396 . S
C155 C165 1.510 . S
C156 C152 1.401 . S
C156 C155 1.396 . S
C157 C152 1.499 . S
C157 H158 0.959 . S
C157 H159 0.960 . S
C157 H160 0.961 . S
H158 C157 0.959 . S
H159 C157 0.960 . S
H160 C157 0.961 . S
O161 Co136 1.967 . S
O161 C169 1.258 . S
O162 Co137 1.941 . S
O162 C169 1.266 . S
H163 C165 0.959 . S
H164 C165 0.961 . S
C165 C155 1.510 . S
C165 H163 0.959 . S
C165 H164 0.961 . S
C165 H166 0.960 . S
H166 C165 0.960 . S
H167 N147 0.862 . S
O168 Co136 1.920 . S
O168 C141 1.289 1_455 S
C169 O161 1.258 . S
C169 O162 1.266 . S
Co170 O173 1.970 1_545 S
Co170 N187 1.989 . S
Co170 O195 1.967 . S
Co170 O202 1.920 1_556 S
Co171 O174 1.966 1_545 S
Co171 N180 2.022 . S
Co171 N188 1.993 . S
Co171 O196 1.941 . S
C172 O173 1.258 . S
C172 O174 1.263 . S
O173 Co170 1.970 1_565 S
O173 C172 1.258 . S
O174 Co171 1.966 1_565 S
O174 C172 1.263 . S
C175 O176 1.235 . S
C175 O202 1.289 1_565 S
O176 C175 1.235 . S
C177 C179 1.400 . S
C177 N180 1.351 . S
C177 C182 1.501 1_545 S
C178 C179 1.387 . S
C178 N181 1.341 . S
C179 C177 1.400 . S
C179 C178 1.387 . S
N180 Co171 2.022 . S
N180 C177 1.351 . S
N180 N181 1.365 . S
N181 C178 1.341 . S
N181 N180 1.365 . S
N181 H201 0.862 . S
C182 C177 1.501 1_565 S
C182 H183 0.961 . S
C182 H184 0.961 . S
C182 H185 0.960 . S
H183 C182 0.961 . S
H184 C182 0.961 . S
H185 C182 0.960 . S
C186 N187 1.342 . S
C186 C190 1.401 . S
C186 C191 1.499 . S
N187 Co170 1.989 . S
N187 C186 1.342 . S
N187 N188 1.388 . S
N188 Co171 1.993 . S
N188 N187 1.388 . S
N188 C189 1.346 . S
C189 N188 1.346 . S
C189 C190 1.396 . S
C189 C199 1.510 . S
C190 C186 1.401 . S
C190 C189 1.396 . S
C191 C186 1.499 . S
C191 H192 0.959 . S
C191 H193 0.960 . S
C191 H194 0.961 . S
H192 C191 0.959 . S
H193 C191 0.960 . S
H194 C191 0.961 . S
O195 Co170 1.967 . S
O195 C203 1.258 . S
O196 Co171 1.941 . S
O196 C203 1.266 . S
H197 C199 0.959 . S
H198 C199 0.961 . S
C199 C189 1.510 . S
C199 H197 0.959 . S
C199 H198 0.961 . S
C199 H200 0.960 . S
H200 C199 0.960 . S
H201 N181 0.862 . S
O202 Co170 1.920 1_554 S
O202 C175 1.289 1_545 S
C203 O195 1.258 . S
C203 O196 1.266 . S
Co204 O207 1.970 . S
Co204 N221 1.989 . S
Co204 O229 1.967 . S
Co204 O236 1.920 . S
Co205 O208 1.966 . S
Co205 N214 2.022 . S
Co205 N222 1.993 . S
Co205 O230 1.941 . S
C206 O207 1.258 . S
C206 O208 1.263 . S
O207 Co204 1.970 . S
O207 C206 1.258 . S
O208 Co205 1.966 . S
O208 C206 1.263 . S
C209 O210 1.235 . S
C209 O236 1.289 . S
O210 C209 1.235 . S
C211 C213 1.400 . S
C211 N214 1.351 . S
C211 C216 1.501 . S
C212 C213 1.387 . S
C212 N215 1.341 . S
C213 C211 1.400 . S
C213 C212 1.387 . S
N214 Co205 2.022 . S
N214 C211 1.351 . S
N214 N215 1.365 . S
N215 C212 1.341 . S
N215 N214 1.365 . S
N215 H235 0.862 . S
C216 C211 1.501 . S
C216 H217 0.961 . S
C216 H218 0.961 . S
C216 H219 0.960 . S
H217 C216 0.961 . S
H218 C216 0.961 . S
H219 C216 0.960 . S
C220 N221 1.342 . S
C220 C224 1.401 . S
C220 C225 1.499 . S
N221 Co204 1.989 . S
N221 C220 1.342 . S
N221 N222 1.388 . S
N222 Co205 1.993 . S
N222 N221 1.388 . S
N222 C223 1.346 . S
C223 N222 1.346 . S
C223 C224 1.396 . S
C223 C233 1.510 . S
C224 C220 1.401 . S
C224 C223 1.396 . S
C225 C220 1.499 . S
C225 H226 0.959 . S
C225 H227 0.960 . S
C225 H228 0.961 . S
H226 C225 0.959 . S
H227 C225 0.960 . S
H228 C225 0.961 . S
O229 Co204 1.967 . S
O229 C237 1.258 . S
O230 Co205 1.941 . S
O230 C237 1.266 . S
H231 C233 0.959 . S
H232 C233 0.961 . S
C233 C223 1.510 . S
C233 H231 0.959 . S
C233 H232 0.961 . S
C233 H234 0.960 . S
H234 C233 0.960 . S
H235 N215 0.862 . S
O236 Co204 1.920 . S
O236 C209 1.289 . S
C237 O229 1.258 . S
C237 O230 1.266 . S
Co238 O241 1.970 . S
Co238 N255 1.989 . S
Co238 O263 1.967 . S
Co238 O270 1.920 1_556 S
Co239 O242 1.966 . S
Co239 N248 2.022 . S
Co239 N256 1.993 . S
Co239 O264 1.941 . S
C240 O241 1.258 . S
C240 O242 1.263 . S
O241 Co238 1.970 . S
O241 C240 1.258 . S
O242 Co239 1.966 . S
O242 C240 1.263 . S
C243 O244 1.235 . S
C243 O270 1.289 . S
O244 C243 1.235 . S
C245 C247 1.400 . S
C245 N248 1.351 . S
C245 C250 1.501 . S
C246 C247 1.387 . S
C246 N249 1.341 . S
C247 C245 1.400 . S
C247 C246 1.387 . S
N248 Co239 2.022 . S
N248 C245 1.351 . S
N248 N249 1.365 . S
N249 C246 1.341 . S
N249 N248 1.365 . S
N249 H269 0.862 . S
C250 C245 1.501 . S
C250 H251 0.961 . S
C250 H252 0.961 . S
C250 H253 0.960 . S
H251 C250 0.961 . S
H252 C250 0.961 . S
H253 C250 0.960 . S
C254 N255 1.342 . S
C254 C258 1.401 . S
C254 C259 1.499 . S
N255 Co238 1.989 . S
N255 C254 1.342 . S
N255 N256 1.388 . S
N256 Co239 1.993 . S
N256 N255 1.388 . S
N256 C257 1.346 . S
C257 N256 1.346 . S
C257 C258 1.396 . S
C257 C267 1.510 . S
C258 C254 1.401 . S
C258 C257 1.396 . S
C259 C254 1.499 . S
C259 H260 0.959 . S
C259 H261 0.960 . S
C259 H262 0.961 . S
H260 C259 0.959 . S
H261 C259 0.960 . S
H262 C259 0.961 . S
O263 Co238 1.967 . S
O263 C271 1.258 . S
O264 Co239 1.941 . S
O264 C271 1.266 . S
H265 C267 0.959 . S
H266 C267 0.961 . S
C267 C257 1.510 . S
C267 H265 0.959 . S
C267 H266 0.961 . S
C267 H268 0.960 . S
H268 C267 0.960 . S
H269 N249 0.862 . S
O270 Co238 1.920 1_554 S
O270 C243 1.289 . S
C271 O263 1.258 . S
C271 O264 1.266 . S
Co272 O275 1.970 1_655 S
Co272 N289 1.989 . S
Co272 O297 1.967 . S
Co272 O304 1.920 1_556 S
Co273 O276 1.966 1_655 S
Co273 N282 2.022 . S
Co273 N290 1.993 . S
Co273 O298 1.941 . S
C274 O275 1.258 . S
C274 O276 1.263 . S
O275 Co272 1.970 1_455 S
O275 C274 1.258 . S
O276 Co273 1.966 1_455 S
O276 C274 1.263 . S
C277 O278 1.235 . S
C277 O304 1.289 1_455 S
O278 C277 1.235 . S
C279 C281 1.400 . S
C279 N282 1.351 . S
C279 C284 1.501 1_655 S
C280 C281 1.387 . S
C280 N283 1.341 . S
C281 C279 1.400 . S
C281 C280 1.387 . S
N282 Co273 2.022 . S
N282 C279 1.351 . S
N282 N283 1.365 . S
N283 C280 1.341 . S
N283 N282 1.365 . S
N283 H303 0.862 . S
C284 C279 1.501 1_455 S
C284 H285 0.961 . S
C284 H286 0.961 . S
C284 H287 0.960 . S
H285 C284 0.961 . S
H286 C284 0.961 . S
H287 C284 0.960 . S
C288 N289 1.342 . S
C288 C292 1.401 . S
C288 C293 1.499 . S
N289 Co272 1.989 . S
N289 C288 1.342 . S
N289 N290 1.388 . S
N290 Co273 1.993 . S
N290 N289 1.388 . S
N290 C291 1.346 . S
C291 N290 1.346 . S
C291 C292 1.396 . S
C291 C301 1.510 . S
C292 C288 1.401 . S
C292 C291 1.396 . S
C293 C288 1.499 . S
C293 H294 0.959 . S
C293 H295 0.960 . S
C293 H296 0.961 . S
H294 C293 0.959 . S
H295 C293 0.960 . S
H296 C293 0.961 . S
O297 Co272 1.967 . S
O297 C305 1.258 . S
O298 Co273 1.941 . S
O298 C305 1.266 . S
H299 C301 0.959 . S
H300 C301 0.961 . S
C301 C291 1.510 . S
C301 H299 0.959 . S
C301 H300 0.961 . S
C301 H302 0.960 . S
H302 C301 0.960 . S
H303 N283 0.862 . S
O304 Co272 1.920 1_554 S
O304 C277 1.289 1_655 S
C305 O297 1.258 . S
C305 O298 1.266 . S
Co306 O309 1.970 1_565 S
Co306 N323 1.989 . S
Co306 O331 1.967 . S
Co306 O338 1.920 . S
Co307 O310 1.966 1_565 S
Co307 N316 2.022 . S
Co307 N324 1.993 . S
Co307 O332 1.941 . S
C308 O309 1.258 . S
C308 O310 1.263 . S
O309 Co306 1.970 1_545 S
O309 C308 1.258 . S
O310 Co307 1.966 1_545 S
O310 C308 1.263 . S
C311 O312 1.235 . S
C311 O338 1.289 1_545 S
O312 C311 1.235 . S
C313 C315 1.400 . S
C313 N316 1.351 . S
C313 C318 1.501 1_565 S
C314 C315 1.387 . S
C314 N317 1.341 . S
C315 C313 1.400 . S
C315 C314 1.387 . S
N316 Co307 2.022 . S
N316 C313 1.351 . S
N316 N317 1.365 . S
N317 C314 1.341 . S
N317 N316 1.365 . S
N317 H337 0.862 . S
C318 C313 1.501 1_545 S
C318 H319 0.961 . S
C318 H320 0.961 . S
C318 H321 0.960 . S
H319 C318 0.961 . S
H320 C318 0.961 . S
H321 C318 0.960 . S
C322 N323 1.342 . S
C322 C326 1.401 . S
C322 C327 1.499 . S
N323 Co306 1.989 . S
N323 C322 1.342 . S
N323 N324 1.388 . S
N324 Co307 1.993 . S
N324 N323 1.388 . S
N324 C325 1.346 . S
C325 N324 1.346 . S
C325 C326 1.396 . S
C325 C335 1.510 . S
C326 C322 1.401 . S
C326 C325 1.396 . S
C327 C322 1.499 . S
C327 H328 0.959 . S
C327 H329 0.960 . S
C327 H330 0.961 . S
H328 C327 0.959 . S
H329 C327 0.960 . S
H330 C327 0.961 . S
O331 Co306 1.967 . S
O331 C339 1.258 . S
O332 Co307 1.941 . S
O332 C339 1.266 . S
H333 C335 0.959 . S
H334 C335 0.961 . S
C335 C325 1.510 . S
C335 H333 0.959 . S
C335 H334 0.961 . S
C335 H336 0.960 . S
H336 C335 0.960 . S
H337 N317 0.862 . S
O338 Co306 1.920 . S
O338 C311 1.289 1_565 S
C339 O331 1.258 . S
C339 O332 1.266 . S
Co340 O343 1.970 . S
Co340 N357 1.989 . S
Co340 O365 1.967 . S
Co340 O372 1.920 1_556 S
Co341 O344 1.966 . S
Co341 N350 2.022 . S
Co341 N358 1.993 . S
Co341 O366 1.941 . S
C342 O343 1.258 . S
C342 O344 1.263 . S
O343 Co340 1.970 . S
O343 C342 1.258 . S
O344 Co341 1.966 . S
O344 C342 1.263 . S
C345 O346 1.235 . S
C345 O372 1.289 . S
O346 C345 1.235 . S
C347 C349 1.400 . S
C347 N350 1.351 . S
C347 C352 1.501 . S
C348 C349 1.387 . S
C348 N351 1.341 . S
C349 C347 1.400 . S
C349 C348 1.387 . S
N350 Co341 2.022 . S
N350 C347 1.351 . S
N350 N351 1.365 . S
N351 C348 1.341 . S
N351 N350 1.365 . S
N351 H371 0.862 . S
C352 C347 1.501 . S
C352 H353 0.961 . S
C352 H354 0.961 . S
C352 H355 0.960 . S
H353 C352 0.961 . S
H354 C352 0.961 . S
H355 C352 0.960 . S
C356 N357 1.342 . S
C356 C360 1.401 . S
C356 C361 1.499 . S
N357 Co340 1.989 . S
N357 C356 1.342 . S
N357 N358 1.388 . S
N358 Co341 1.993 . S
N358 N357 1.388 . S
N358 C359 1.346 . S
C359 N358 1.346 . S
C359 C360 1.396 . S
C359 C369 1.510 . S
C360 C356 1.401 . S
C360 C359 1.396 . S
C361 C356 1.499 . S
C361 H362 0.959 . S
C361 H363 0.960 . S
C361 H364 0.961 . S
H362 C361 0.959 . S
H363 C361 0.960 . S
H364 C361 0.961 . S
O365 Co340 1.967 . S
O365 C373 1.258 . S
O366 Co341 1.941 . S
O366 C373 1.266 . S
H367 C369 0.959 . S
H368 C369 0.961 . S
C369 C359 1.510 . S
C369 H367 0.959 . S
C369 H368 0.961 . S
C369 H370 0.960 . S
H370 C369 0.960 . S
H371 N351 0.862 . S
O372 Co340 1.920 1_554 S
O372 C345 1.289 . S
C373 O365 1.258 . S
C373 O366 1.266 . S
Co374 O377 1.970 . S
Co374 N391 1.989 . S
Co374 O399 1.967 . S
Co374 O406 1.920 . S
Co375 O378 1.966 . S
Co375 N384 2.022 . S
Co375 N392 1.993 . S
Co375 O400 1.941 . S
C376 O377 1.258 . S
C376 O378 1.263 . S
O377 Co374 1.970 . S
O377 C376 1.258 . S
O378 Co375 1.966 . S
O378 C376 1.263 . S
C379 O380 1.235 . S
C379 O406 1.289 . S
O380 C379 1.235 . S
C381 C383 1.400 . S
C381 N384 1.351 . S
C381 C386 1.501 . S
C382 C383 1.387 . S
C382 N385 1.341 . S
C383 C381 1.400 . S
C383 C382 1.387 . S
N384 Co375 2.022 . S
N384 C381 1.351 . S
N384 N385 1.365 . S
N385 C382 1.341 . S
N385 N384 1.365 . S
N385 H405 0.862 . S
C386 C381 1.501 . S
C386 H387 0.961 . S
C386 H388 0.961 . S
C386 H389 0.960 . S
H387 C386 0.961 . S
H388 C386 0.961 . S
H389 C386 0.960 . S
C390 N391 1.342 . S
C390 C394 1.401 . S
C390 C395 1.499 . S
N391 Co374 1.989 . S
N391 C390 1.342 . S
N391 N392 1.388 . S
N392 Co375 1.993 . S
N392 N391 1.388 . S
N392 C393 1.346 . S
C393 N392 1.346 . S
C393 C394 1.396 . S
C393 C403 1.510 . S
C394 C390 1.401 . S
C394 C393 1.396 . S
C395 C390 1.499 . S
C395 H396 0.959 . S
C395 H397 0.960 . S
C395 H398 0.961 . S
H396 C395 0.959 . S
H397 C395 0.960 . S
H398 C395 0.961 . S
O399 Co374 1.967 . S
O399 C407 1.258 . S
O400 Co375 1.941 . S
O400 C407 1.266 . S
H401 C403 0.959 . S
H402 C403 0.961 . S
C403 C393 1.510 . S
C403 H401 0.959 . S
C403 H402 0.961 . S
C403 H404 0.960 . S
H404 C403 0.960 . S
H405 N385 0.862 . S
O406 Co374 1.920 . S
O406 C379 1.289 . S
C407 O399 1.258 . S
C407 O400 1.266 . S
Co408 O411 1.970 1_655 S
Co408 N425 1.989 . S
Co408 O433 1.967 . S
Co408 O440 1.920 . S
Co409 O412 1.966 1_655 S
Co409 N418 2.022 . S
Co409 N426 1.993 . S
Co409 O434 1.941 . S
C410 O411 1.258 . S
C410 O412 1.263 . S
O411 Co408 1.970 1_455 S
O411 C410 1.258 . S
O412 Co409 1.966 1_455 S
O412 C410 1.263 . S
C413 O414 1.235 . S
C413 O440 1.289 1_455 S
O414 C413 1.235 . S
C415 C417 1.400 . S
C415 N418 1.351 . S
C415 C420 1.501 1_655 S
C416 C417 1.387 . S
C416 N419 1.341 . S
C417 C415 1.400 . S
C417 C416 1.387 . S
N418 Co409 2.022 . S
N418 C415 1.351 . S
N418 N419 1.365 . S
N419 C416 1.341 . S
N419 N418 1.365 . S
N419 H439 0.862 . S
C420 C415 1.501 1_455 S
C420 H421 0.961 . S
C420 H422 0.961 . S
C420 H423 0.960 . S
H421 C420 0.961 . S
H422 C420 0.961 . S
H423 C420 0.960 . S
C424 N425 1.342 . S
C424 C428 1.401 . S
C424 C429 1.499 . S
N425 Co408 1.989 . S
N425 C424 1.342 . S
N425 N426 1.388 . S
N426 Co409 1.993 . S
N426 N425 1.388 . S
N426 C427 1.346 . S
C427 N426 1.346 . S
C427 C428 1.396 . S
C427 C437 1.510 . S
C428 C424 1.401 . S
C428 C427 1.396 . S
C429 C424 1.499 . S
C429 H430 0.959 . S
C429 H431 0.960 . S
C429 H432 0.961 . S
H430 C429 0.959 . S
H431 C429 0.960 . S
H432 C429 0.961 . S
O433 Co408 1.967 . S
O433 C441 1.258 . S
O434 Co409 1.941 . S
O434 C441 1.266 . S
H435 C437 0.959 . S
H436 C437 0.961 . S
C437 C427 1.510 . S
C437 H435 0.959 . S
C437 H436 0.961 . S
C437 H438 0.960 . S
H438 C437 0.960 . S
H439 N419 0.862 . S
O440 Co408 1.920 . S
O440 C413 1.289 1_655 S
C441 O433 1.258 . S
C441 O434 1.266 . S
Co442 O445 1.970 1_565 S
Co442 N459 1.989 . S
Co442 O467 1.967 . S
Co442 O474 1.920 1_554 S
Co443 O446 1.966 1_565 S
Co443 N452 2.022 . S
Co443 N460 1.993 . S
Co443 O468 1.941 . S
C444 O445 1.258 . S
C444 O446 1.263 . S
O445 Co442 1.970 1_545 S
O445 C444 1.258 . S
O446 Co443 1.966 1_545 S
O446 C444 1.263 . S
C447 O448 1.235 . S
C447 O474 1.289 1_545 S
O448 C447 1.235 . S
C449 C451 1.400 . S
C449 N452 1.351 . S
C449 C454 1.501 1_565 S
C450 C451 1.387 . S
C450 N453 1.341 . S
C451 C449 1.400 . S
C451 C450 1.387 . S
N452 Co443 2.022 . S
N452 C449 1.351 . S
N452 N453 1.365 . S
N453 C450 1.341 . S
N453 N452 1.365 . S
N453 H473 0.862 . S
C454 C449 1.501 1_545 S
C454 H455 0.961 . S
C454 H456 0.961 . S
C454 H457 0.960 . S
H455 C454 0.961 . S
H456 C454 0.961 . S
H457 C454 0.960 . S
C458 N459 1.342 . S
C458 C462 1.401 . S
C458 C463 1.499 . S
N459 Co442 1.989 . S
N459 C458 1.342 . S
N459 N460 1.388 . S
N460 Co443 1.993 . S
N460 N459 1.388 . S
N460 C461 1.346 . S
C461 N460 1.346 . S
C461 C462 1.396 . S
C461 C471 1.510 . S
C462 C458 1.401 . S
C462 C461 1.396 . S
C463 C458 1.499 . S
C463 H464 0.959 . S
C463 H465 0.960 . S
C463 H466 0.961 . S
H464 C463 0.959 . S
H465 C463 0.960 . S
H466 C463 0.961 . S
O467 Co442 1.967 . S
O467 C475 1.258 . S
O468 Co443 1.941 . S
O468 C475 1.266 . S
H469 C471 0.959 . S
H470 C471 0.961 . S
C471 C461 1.510 . S
C471 H469 0.959 . S
C471 H470 0.961 . S
C471 H472 0.960 . S
H472 C471 0.960 . S
H473 N453 0.862 . S
O474 Co442 1.920 1_556 S
O474 C447 1.289 1_565 S
C475 O467 1.258 . S
C475 O468 1.266 . S
Co476 O479 1.970 . S
Co476 N493 1.989 . S
Co476 O501 1.967 . S
Co476 O508 1.920 . S
Co477 O480 1.966 . S
Co477 N486 2.022 . S
Co477 N494 1.993 . S
Co477 O502 1.941 . S
C478 O479 1.258 . S
C478 O480 1.263 . S
O479 Co476 1.970 . S
O479 C478 1.258 . S
O480 Co477 1.966 . S
O480 C478 1.263 . S
C481 O482 1.235 . S
C481 O508 1.289 . S
O482 C481 1.235 . S
C483 C485 1.400 . S
C483 N486 1.351 . S
C483 C488 1.501 . S
C484 C485 1.387 . S
C484 N487 1.341 . S
C485 C483 1.400 . S
C485 C484 1.387 . S
N486 Co477 2.022 . S
N486 C483 1.351 . S
N486 N487 1.365 . S
N487 C484 1.341 . S
N487 N486 1.365 . S
N487 H507 0.862 . S
C488 C483 1.501 . S
C488 H489 0.961 . S
C488 H490 0.961 . S
C488 H491 0.960 . S
H489 C488 0.961 . S
H490 C488 0.961 . S
H491 C488 0.960 . S
C492 N493 1.342 . S
C492 C496 1.401 . S
C492 C497 1.499 . S
N493 Co476 1.989 . S
N493 C492 1.342 . S
N493 N494 1.388 . S
N494 Co477 1.993 . S
N494 N493 1.388 . S
N494 C495 1.346 . S
C495 N494 1.346 . S
C495 C496 1.396 . S
C495 C505 1.510 . S
C496 C492 1.401 . S
C496 C495 1.396 . S
C497 C492 1.499 . S
C497 H498 0.959 . S
C497 H499 0.960 . S
C497 H500 0.961 . S
H498 C497 0.959 . S
H499 C497 0.960 . S
H500 C497 0.961 . S
O501 Co476 1.967 . S
O501 C509 1.258 . S
O502 Co477 1.941 . S
O502 C509 1.266 . S
H503 C505 0.959 . S
H504 C505 0.961 . S
C505 C495 1.510 . S
C505 H503 0.959 . S
C505 H504 0.961 . S
C505 H506 0.960 . S
H506 C505 0.960 . S
H507 N487 0.862 . S
O508 Co476 1.920 . S
O508 C481 1.289 . S
C509 O501 1.258 . S
C509 O502 1.266 . S
Co510 O513 1.970 . S
Co510 N527 1.989 . S
Co510 O535 1.967 . S
Co510 O542 1.920 1_554 S
Co511 O514 1.966 . S
Co511 N520 2.022 . S
Co511 N528 1.993 . S
Co511 O536 1.941 . S
C512 O513 1.258 . S
C512 O514 1.263 . S
O513 Co510 1.970 . S
O513 C512 1.258 . S
O514 Co511 1.966 . S
O514 C512 1.263 . S
C515 O516 1.235 . S
C515 O542 1.289 . S
O516 C515 1.235 . S
C517 C519 1.400 . S
C517 N520 1.351 . S
C517 C522 1.501 . S
C518 C519 1.387 . S
C518 N521 1.341 . S
C519 C517 1.400 . S
C519 C518 1.387 . S
N520 Co511 2.022 . S
N520 C517 1.351 . S
N520 N521 1.365 . S
N521 C518 1.341 . S
N521 N520 1.365 . S
N521 H541 0.862 . S
C522 C517 1.501 . S
C522 H523 0.961 . S
C522 H524 0.961 . S
C522 H525 0.960 . S
H523 C522 0.961 . S
H524 C522 0.961 . S
H525 C522 0.960 . S
C526 N527 1.342 . S
C526 C530 1.401 . S
C526 C531 1.499 . S
N527 Co510 1.989 . S
N527 C526 1.342 . S
N527 N528 1.388 . S
N528 Co511 1.993 . S
N528 N527 1.388 . S
N528 C529 1.346 . S
C529 N528 1.346 . S
C529 C530 1.396 . S
C529 C539 1.510 . S
C530 C526 1.401 . S
C530 C529 1.396 . S
C531 C526 1.499 . S
C531 H532 0.959 . S
C531 H533 0.960 . S
C531 H534 0.961 . S
H532 C531 0.959 . S
H533 C531 0.960 . S
H534 C531 0.961 . S
O535 Co510 1.967 . S
O535 C543 1.258 . S
O536 Co511 1.941 . S
O536 C543 1.266 . S
H537 C539 0.959 . S
H538 C539 0.961 . S
C539 C529 1.510 . S
C539 H537 0.959 . S
C539 H538 0.961 . S
C539 H540 0.960 . S
H540 C539 0.960 . S
H541 N521 0.862 . S
O542 Co510 1.920 1_556 S
O542 C515 1.289 . S
C543 O535 1.258 . S
C543 O536 1.266 . S
H544 C552 0.950 . S
H545 C557 0.950 . S
H546 C554 0.950 . S
H547 C556 0.950 . S
H548 C558 0.950 . S
H549 C560 0.950 . S
H550 C562 0.950 . S
H551 C563 0.950 . S
C552 H544 0.950 . S
C552 C553 1.386 . S
C552 C554 1.391 . S
C553 C552 1.386 . S
C553 C557 1.393 . S
C554 H546 0.950 . S
C554 C552 1.391 . S
C554 C555 1.400 . S
C555 C554 1.400 . S
C555 C556 1.398 . S
C555 C561 1.491 . S
C556 H547 0.950 . S
C556 C555 1.398 . S
C556 C557 1.391 . S
C557 H545 0.950 . S
C557 C553 1.393 . S
C557 C556 1.391 . S
C558 H548 0.950 . S
C558 C559 1.386 . S
C558 C560 1.391 . S
C559 C558 1.386 . S
C559 C563 1.393 . S
C560 H549 0.950 . S
C560 C558 1.391 . S
C560 C561 1.400 . S
C561 C555 1.491 . S
C561 C560 1.400 . S
C561 C562 1.398 . S
C562 H550 0.950 . S
C562 C561 1.398 . S
C562 C563 1.391 . S
C563 H551 0.950 . S
C563 C559 1.393 . S
C563 C562 1.391 . S
H564 C572 0.950 . S
H565 C577 0.950 . S
H566 C574 0.950 . S
H567 C576 0.950 . S
H568 C578 0.950 . S
H569 C580 0.950 . S
H570 C582 0.950 . S
H571 C583 0.950 . S
C572 H564 0.950 . S
C572 C573 1.386 . S
C572 C574 1.391 . S
C573 C572 1.386 . S
C573 C577 1.393 . S
C574 H566 0.950 . S
C574 C572 1.391 . S
C574 C575 1.400 . S
C575 C574 1.400 . S
C575 C576 1.398 . S
C575 C581 1.491 . S
C576 H567 0.950 . S
C576 C575 1.398 . S
C576 C577 1.391 . S
C577 H565 0.950 . S
C577 C573 1.393 . S
C577 C576 1.391 . S
C578 H568 0.950 . S
C578 C579 1.386 . S
C578 C580 1.391 . S
C579 C578 1.386 . S
C579 C583 1.393 . S
C580 H569 0.950 . S
C580 C578 1.391 . S
C580 C581 1.400 . S
C581 C575 1.491 . S
C581 C580 1.400 . S
C581 C582 1.398 . S
C582 H570 0.950 . S
C582 C581 1.398 . S
C582 C583 1.391 . S
C583 H571 0.950 . S
C583 C579 1.393 . S
C583 C582 1.391 . S
H584 C592 0.950 . S
H585 C597 0.950 . S
H586 C594 0.950 . S
H587 C596 0.950 . S
H588 C598 0.950 . S
H589 C600 0.950 . S
H590 C602 0.950 . S
H591 C603 0.950 . S
C592 H584 0.950 . S
C592 C593 1.386 . S
C592 C594 1.391 . S
C593 C592 1.386 . S
C593 C597 1.393 . S
C594 H586 0.950 . S
C594 C592 1.391 . S
C594 C595 1.400 . S
C595 C594 1.400 . S
C595 C596 1.398 . S
C595 C601 1.491 . S
C596 H587 0.950 . S
C596 C595 1.398 . S
C596 C597 1.391 . S
C597 H585 0.950 . S
C597 C593 1.393 . S
C597 C596 1.391 . S
C598 H588 0.950 . S
C598 C599 1.386 . S
C598 C600 1.391 . S
C599 C598 1.386 . S
C599 C603 1.393 . S
C600 H589 0.950 . S
C600 C598 1.391 . S
C600 C601 1.400 . S
C601 C595 1.491 . S
C601 C600 1.400 . S
C601 C602 1.398 . S
C602 H590 0.950 . S
C602 C601 1.398 . S
C602 C603 1.391 . S
C603 H591 0.950 . S
C603 C599 1.393 . S
C603 C602 1.391 . S
H604 C612 0.950 . S
H605 C617 0.950 . S
H606 C614 0.950 . S
H607 C616 0.950 . S
H608 C618 0.950 . S
H609 C620 0.950 . S
H610 C622 0.950 . S
H611 C623 0.950 . S
C612 H604 0.950 . S
C612 C613 1.386 . S
C612 C614 1.391 . S
C613 C612 1.386 . S
C613 C617 1.393 . S
C614 H606 0.950 . S
C614 C612 1.391 . S
C614 C615 1.400 . S
C615 C614 1.400 . S
C615 C616 1.398 . S
C615 C621 1.491 . S
C616 H607 0.950 . S
C616 C615 1.398 . S
C616 C617 1.391 . S
C617 H605 0.950 . S
C617 C613 1.393 . S
C617 C616 1.391 . S
C618 H608 0.950 . S
C618 C619 1.386 . S
C618 C620 1.391 . S
C619 C618 1.386 . S
C619 C623 1.393 . S
C620 H609 0.950 . S
C620 C618 1.391 . S
C620 C621 1.400 . S
C621 C615 1.491 . S
C621 C620 1.400 . S
C621 C622 1.398 . S
C622 H610 0.950 . S
C622 C621 1.398 . S
C622 C623 1.391 . S
C623 H611 0.950 . S
C623 C619 1.393 . S
C623 C622 1.391 . S
H624 C632 0.950 . S
H625 C637 0.950 . S
H626 C634 0.950 . S
H627 C636 0.950 . S
H628 C638 0.950 . S
H629 C640 0.950 . S
H630 C642 0.950 . S
H631 C643 0.950 . S
C632 H624 0.950 . S
C632 C633 1.386 . S
C632 C634 1.391 . S
C633 C632 1.386 . S
C633 C637 1.393 . S
C634 H626 0.950 . S
C634 C632 1.391 . S
C634 C635 1.400 . S
C635 C634 1.400 . S
C635 C636 1.398 . S
C635 C641 1.491 . S
C636 H627 0.950 . S
C636 C635 1.398 . S
C636 C637 1.391 . S
C637 H625 0.950 . S
C637 C633 1.393 . S
C637 C636 1.391 . S
C638 H628 0.950 . S
C638 C639 1.386 . S
C638 C640 1.391 . S
C639 C638 1.386 . S
C639 C643 1.393 . S
C640 H629 0.950 . S
C640 C638 1.391 . S
C640 C641 1.400 . S
C641 C635 1.491 . S
C641 C640 1.400 . S
C641 C642 1.398 . S
C642 H630 0.950 . S
C642 C641 1.398 . S
C642 C643 1.391 . S
C643 H631 0.950 . S
C643 C639 1.393 . S
C643 C642 1.391 . S
H644 C652 0.950 . S
H645 C657 0.950 . S
H646 C654 0.950 . S
H647 C656 0.950 . S
H648 C658 0.950 . S
H649 C660 0.950 . S
H650 C662 0.950 . S
H651 C663 0.950 . S
C652 H644 0.950 . S
C652 C653 1.386 . S
C652 C654 1.391 . S
C653 C652 1.386 . S
C653 C657 1.393 . S
C654 H646 0.950 . S
C654 C652 1.391 . S
C654 C655 1.400 . S
C655 C654 1.400 . S
C655 C656 1.398 . S
C655 C661 1.491 . S
C656 H647 0.950 . S
C656 C655 1.398 . S
C656 C657 1.391 . S
C657 H645 0.950 . S
C657 C653 1.393 . S
C657 C656 1.391 . S
C658 H648 0.950 . S
C658 C659 1.386 . S
C658 C660 1.391 . S
C659 C658 1.386 . S
C659 C663 1.393 . S
C660 H649 0.950 . S
C660 C658 1.391 . S
C660 C661 1.400 . S
C661 C655 1.491 . S
C661 C660 1.400 . S
C661 C662 1.398 . S
C662 H650 0.950 . S
C662 C661 1.398 . S
C662 C663 1.391 . S
C663 H651 0.950 . S
C663 C659 1.393 . S
C663 C662 1.391 . S
H664 C672 0.950 . S
H665 C677 0.950 . S
H666 C674 0.950 . S
H667 C676 0.950 . S
H668 C678 0.950 . S
H669 C680 0.950 . S
H670 C682 0.950 . S
H671 C683 0.950 . S
C672 H664 0.950 . S
C672 C673 1.386 . S
C672 C674 1.391 . S
C673 C672 1.386 . S
C673 C677 1.393 . S
C674 H666 0.950 . S
C674 C672 1.391 . S
C674 C675 1.400 . S
C675 C674 1.400 . S
C675 C676 1.398 . S
C675 C681 1.491 . S
C676 H667 0.950 . S
C676 C675 1.398 . S
C676 C677 1.391 . S
C677 H665 0.950 . S
C677 C673 1.393 . S
C677 C676 1.391 . S
C678 H668 0.950 . S
C678 C679 1.386 . S
C678 C680 1.391 . S
C679 C678 1.386 . S
C679 C683 1.393 . S
C680 H669 0.950 . S
C680 C678 1.391 . S
C680 C681 1.400 . S
C681 C675 1.491 . S
C681 C680 1.400 . S
C681 C682 1.398 . S
C682 H670 0.950 . S
C682 C681 1.398 . S
C682 C683 1.391 . S
C683 H671 0.950 . S
C683 C679 1.393 . S
C683 C682 1.391 . S
H684 C692 0.950 . S
H685 C697 0.950 . S
H686 C694 0.950 . S
H687 C696 0.950 . S
H688 C698 0.950 . S
H689 C700 0.950 . S
H690 C702 0.950 . S
H691 C703 0.950 . S
C692 H684 0.950 . S
C692 C693 1.386 . S
C692 C694 1.391 . S
C693 C692 1.386 . S
C693 C697 1.393 . S
C694 H686 0.950 . S
C694 C692 1.391 . S
C694 C695 1.400 . S
C695 C694 1.400 . S
C695 C696 1.398 . S
C695 C701 1.491 . S
C696 H687 0.950 . S
C696 C695 1.398 . S
C696 C697 1.391 . S
C697 H685 0.950 . S
C697 C693 1.393 . S
C697 C696 1.391 . S
C698 H688 0.950 . S
C698 C699 1.386 . S
C698 C700 1.391 . S
C699 C698 1.386 . S
C699 C703 1.393 . S
C700 H689 0.950 . S
C700 C698 1.391 . S
C700 C701 1.400 . S
C701 C695 1.491 . S
C701 C700 1.400 . S
C701 C702 1.398 . S
C702 H690 0.950 . S
C702 C701 1.398 . S
C702 C703 1.391 . S
C703 H691 0.950 . S
C703 C699 1.393 . S
C703 C702 1.391 . S
H704 C712 0.950 . S
H705 C717 0.950 . S
H706 C714 0.950 1_556 S
H707 C716 0.950 . S
H708 C718 0.950 . S
H709 C720 0.950 1_554 S
H710 C722 0.950 . S
H711 C723 0.950 . S
C712 H704 0.950 . S
C712 C713 1.386 . S
C712 C714 1.391 . S
C713 C712 1.386 . S
C713 C717 1.393 . S
C714 H706 0.950 1_554 S
C714 C712 1.391 . S
C714 C715 1.400 . S
C715 C714 1.400 . S
C715 C716 1.398 . S
C715 C721 1.491 1_554 S
C716 H707 0.950 . S
C716 C715 1.398 . S
C716 C717 1.391 . S
C717 H705 0.950 . S
C717 C713 1.393 . S
C717 C716 1.391 . S
C718 H708 0.950 . S
C718 C719 1.386 . S
C718 C720 1.391 . S
C719 C718 1.386 . S
C719 C723 1.393 . S
C720 H709 0.950 1_556 S
C720 C718 1.391 . S
C720 C721 1.400 . S
C721 C715 1.491 1_556 S
C721 C720 1.400 . S
C721 C722 1.398 . S
C722 H710 0.950 . S
C722 C721 1.398 . S
C722 C723 1.391 . S
C723 H711 0.950 . S
C723 C719 1.393 . S
C723 C722 1.391 . S
H724 C732 0.950 . S
H725 C737 0.950 . S
H726 C734 0.950 . S
H727 C736 0.950 . S
H728 C738 0.950 . S
H729 C740 0.950 . S
H730 C742 0.950 . S
H731 C743 0.950 . S
C732 H724 0.950 . S
C732 C733 1.386 . S
C732 C734 1.391 . S
C733 C732 1.386 . S
C733 C737 1.393 . S
C734 H726 0.950 . S
C734 C732 1.391 . S
C734 C735 1.400 . S
C735 C734 1.400 . S
C735 C736 1.398 . S
C735 C741 1.491 . S
C736 H727 0.950 . S
C736 C735 1.398 . S
C736 C737 1.391 . S
C737 H725 0.950 . S
C737 C733 1.393 . S
C737 C736 1.391 . S
C738 H728 0.950 . S
C738 C739 1.386 . S
C738 C740 1.391 . S
C739 C738 1.386 . S
C739 C743 1.393 . S
C740 H729 0.950 . S
C740 C738 1.391 . S
C740 C741 1.400 . S
C741 C735 1.491 . S
C741 C740 1.400 . S
C741 C742 1.398 . S
C742 H730 0.950 . S
C742 C741 1.398 . S
C742 C743 1.391 . S
C743 H731 0.950 . S
C743 C739 1.393 . S
C743 C742 1.391 . S
H744 C752 0.950 . S
H745 C757 0.950 . S
H746 C754 0.950 . S
H747 C756 0.950 . S
H748 C758 0.950 . S
H749 C760 0.950 . S
H750 C762 0.950 . S
H751 C763 0.950 . S
C752 H744 0.950 . S
C752 C753 1.386 . S
C752 C754 1.391 . S
C753 C752 1.386 . S
C753 C757 1.393 . S
C754 H746 0.950 . S
C754 C752 1.391 . S
C754 C755 1.400 . S
C755 C754 1.400 . S
C755 C756 1.398 . S
C755 C761 1.491 1_554 S
C756 H747 0.950 . S
C756 C755 1.398 . S
C756 C757 1.391 . S
C757 H745 0.950 . S
C757 C753 1.393 . S
C757 C756 1.391 . S
C758 H748 0.950 . S
C758 C759 1.386 . S
C758 C760 1.391 . S
C759 C758 1.386 . S
C759 C763 1.393 . S
C760 H749 0.950 . S
C760 C758 1.391 . S
C760 C761 1.400 . S
C761 C755 1.491 1_556 S
C761 C760 1.400 . S
C761 C762 1.398 . S
C762 H750 0.950 . S
C762 C761 1.398 . S
C762 C763 1.391 . S
C763 H751 0.950 . S
C763 C759 1.393 . S
C763 C762 1.391 . S
H764 C772 0.950 . S
H765 C777 0.950 . S
H766 C774 0.950 . S
H767 C776 0.950 . S
H768 C778 0.950 . S
H769 C780 0.950 . S
H770 C782 0.950 . S
H771 C783 0.950 . S
C772 H764 0.950 . S
C772 C773 1.386 . S
C772 C774 1.391 . S
C773 C772 1.386 . S
C773 C777 1.393 . S
C774 H766 0.950 . S
C774 C772 1.391 . S
C774 C775 1.400 . S
C775 C774 1.400 . S
C775 C776 1.398 . S
C775 C781 1.491 . S
C776 H767 0.950 . S
C776 C775 1.398 . S
C776 C777 1.391 . S
C777 H765 0.950 . S
C777 C773 1.393 . S
C777 C776 1.391 . S
C778 H768 0.950 . S
C778 C779 1.386 . S
C778 C780 1.391 . S
C779 C778 1.386 . S
C779 C783 1.393 . S
C780 H769 0.950 . S
C780 C778 1.391 . S
C780 C781 1.400 . S
C781 C775 1.491 . S
C781 C780 1.400 . S
C781 C782 1.398 . S
C782 H770 0.950 . S
C782 C781 1.398 . S
C782 C783 1.391 . S
C783 H771 0.950 . S
C783 C779 1.393 . S
C783 C782 1.391 . S
H784 C792 0.950 . S
H785 C797 0.950 . S
H786 C794 0.950 . S
H787 C796 0.950 . S
H788 C798 0.950 . S
H789 C800 0.950 . S
H790 C802 0.950 . S
H791 C803 0.950 . S
C792 H784 0.950 . S
C792 C793 1.386 . S
C792 C794 1.391 . S
C793 C792 1.386 . S
C793 C797 1.393 . S
C794 H786 0.950 . S
C794 C792 1.391 . S
C794 C795 1.400 . S
C795 C794 1.400 . S
C795 C796 1.398 1_554 S
C795 C801 1.491 1_554 S
C796 H787 0.950 . S
C796 C795 1.398 1_556 S
C796 C797 1.391 1_556 S
C797 H785 0.950 . S
C797 C793 1.393 . S
C797 C796 1.391 1_554 S
C798 H788 0.950 . S
C798 C799 1.386 . S
C798 C800 1.391 . S
C799 C798 1.386 . S
C799 C803 1.393 . S
C800 H789 0.950 . S
C800 C798 1.391 . S
C800 C801 1.400 . S
C801 C795 1.491 1_556 S
C801 C800 1.400 . S
C801 C802 1.398 1_556 S
C802 H790 0.950 . S
C802 C801 1.398 1_554 S
C802 C803 1.391 1_554 S
C803 H791 0.950 . S
C803 C799 1.393 . S
C803 C802 1.391 1_556 S
H804 C812 0.950 . S
H805 C817 0.950 . S
H806 C814 0.950 . S
H807 C816 0.950 . S
H808 C818 0.950 . S
H809 C820 0.950 . S
H810 C822 0.950 . S
H811 C823 0.950 . S
C812 H804 0.950 . S
C812 C813 1.386 . S
C812 C814 1.391 . S
C813 C812 1.386 . S
C813 C817 1.393 . S
C814 H806 0.950 . S
C814 C812 1.391 . S
C814 C815 1.400 . S
C815 C814 1.400 . S
C815 C816 1.398 . S
C815 C821 1.491 . S
C816 H807 0.950 . S
C816 C815 1.398 . S
C816 C817 1.391 . S
C817 H805 0.950 . S
C817 C813 1.393 . S
C817 C816 1.391 . S
C818 H808 0.950 . S
C818 C819 1.386 . S
C818 C820 1.391 . S
C819 C818 1.386 . S
C819 C823 1.393 . S
C820 H809 0.950 . S
C820 C818 1.391 . S
C820 C821 1.400 . S
C821 C815 1.491 . S
C821 C820 1.400 . S
C821 C822 1.398 . S
C822 H810 0.950 . S
C822 C821 1.398 . S
C822 C823 1.391 . S
C823 H811 0.950 . S
C823 C819 1.393 . S
C823 C822 1.391 . S
H824 C832 0.950 . S
H825 C837 0.950 . S
H826 C834 0.950 . S
H827 C836 0.950 . S
H828 C838 0.950 . S
H829 C840 0.950 . S
H830 C842 0.950 . S
H831 C843 0.950 . S
C832 H824 0.950 . S
C832 C833 1.386 . S
C832 C834 1.391 1_554 S
C833 C832 1.386 . S
C833 C837 1.393 . S
C834 H826 0.950 . S
C834 C832 1.391 1_556 S
C834 C835 1.400 1_556 S
C835 C834 1.400 1_554 S
C835 C836 1.398 . S
C835 C841 1.491 1_554 S
C836 H827 0.950 . S
C836 C835 1.398 . S
C836 C837 1.391 . S
C837 H825 0.950 . S
C837 C833 1.393 . S
C837 C836 1.391 . S
C838 H828 0.950 . S
C838 C839 1.386 . S
C838 C840 1.391 1_556 S
C839 C838 1.386 . S
C839 C843 1.393 . S
C840 H829 0.950 . S
C840 C838 1.391 1_554 S
C840 C841 1.400 1_554 S
C841 C835 1.491 1_556 S
C841 C840 1.400 1_556 S
C841 C842 1.398 . S
C842 H830 0.950 . S
C842 C841 1.398 . S
C842 C843 1.391 . S
C843 H831 0.950 . S
C843 C839 1.393 . S
C843 C842 1.391 . S
H844 C852 0.950 . S
H845 C857 0.950 . S
H846 C854 0.950 . S
H847 C856 0.950 . S
H848 C858 0.950 . S
H849 C860 0.950 . S
H850 C862 0.950 . S
H851 C863 0.950 . S
C852 H844 0.950 . S
C852 C853 1.386 . S
C852 C854 1.391 . S
C853 C852 1.386 . S
C853 C857 1.393 . S
C854 H846 0.950 . S
C854 C852 1.391 . S
C854 C855 1.400 . S
C855 C854 1.400 . S
C855 C856 1.398 . S
C855 C861 1.491 . S
C856 H847 0.950 . S
C856 C855 1.398 . S
C856 C857 1.391 . S
C857 H845 0.950 . S
C857 C853 1.393 . S
C857 C856 1.391 . S
C858 H848 0.950 . S
C858 C859 1.386 . S
C858 C860 1.391 . S
C859 C858 1.386 . S
C859 C863 1.393 . S
C860 H849 0.950 . S
C860 C858 1.391 . S
C860 C861 1.400 . S
C861 C855 1.491 . S
C861 C860 1.400 . S
C861 C862 1.398 . S
C862 H850 0.950 . S
C862 C861 1.398 . S
C862 C863 1.391 . S
C863 H851 0.950 . S
C863 C859 1.393 . S
C863 C862 1.391 . S
H864 C872 0.950 . S
H865 C877 0.950 1_655 S
H866 C874 0.950 . S
H867 C876 0.950 1_655 S
H868 C878 0.950 1_655 S
H869 C880 0.950 1_655 S
H870 C882 0.950 . S
H871 C883 0.950 . S
C872 H864 0.950 . S
C872 C873 1.386 . S
C872 C874 1.391 . S
C873 C872 1.386 . S
C873 C877 1.393 . S
C874 H866 0.950 . S
C874 C872 1.391 . S
C874 C875 1.400 . S
C875 C874 1.400 . S
C875 C876 1.398 . S
C875 C881 1.491 . S
C876 H867 0.950 1_455 S
C876 C875 1.398 . S
C876 C877 1.391 . S
C877 H865 0.950 1_455 S
C877 C873 1.393 . S
C877 C876 1.391 . S
C878 H868 0.950 1_455 S
C878 C879 1.386 . S
C878 C880 1.391 . S
C879 C878 1.386 . S
C879 C883 1.393 . S
C880 H869 0.950 1_455 S
C880 C878 1.391 . S
C880 C881 1.400 . S
C881 C875 1.491 . S
C881 C880 1.400 . S
C881 C882 1.398 . S
C882 H870 0.950 . S
C882 C881 1.398 . S
C882 C883 1.391 . S
C883 H871 0.950 . S
C883 C879 1.393 . S
C883 C882 1.391 . S
H884 C892 0.950 . S
H885 C897 0.950 . S
H886 C894 0.950 . S
H887 C896 0.950 . S
H888 C898 0.950 . S
H889 C900 0.950 . S
H890 C902 0.950 . S
H891 C903 0.950 . S
C892 H884 0.950 . S
C892 C893 1.386 . S
C892 C894 1.391 . S
C893 C892 1.386 . S
C893 C897 1.393 . S
C894 H886 0.950 . S
C894 C892 1.391 . S
C894 C895 1.400 . S
C895 C894 1.400 . S
C895 C896 1.398 . S
C895 C901 1.491 . S
C896 H887 0.950 . S
C896 C895 1.398 . S
C896 C897 1.391 . S
C897 H885 0.950 . S
C897 C893 1.393 . S
C897 C896 1.391 . S
C898 H888 0.950 . S
C898 C899 1.386 . S
C898 C900 1.391 . S
C899 C898 1.386 . S
C899 C903 1.393 . S
C900 H889 0.950 . S
C900 C898 1.391 . S
C900 C901 1.400 . S
C901 C895 1.491 . S
C901 C900 1.400 . S
C901 C902 1.398 . S
C902 H890 0.950 . S
C902 C901 1.398 . S
C902 C903 1.391 . S
C903 H891 0.950 . S
C903 C899 1.393 . S
C903 C902 1.391 . S
H904 C912 0.950 . S
H905 C917 0.950 . S
H906 C914 0.950 . S
H907 C916 0.950 . S
H908 C918 0.950 . S
H909 C920 0.950 . S
H910 C922 0.950 . S
H911 C923 0.950 . S
C912 H904 0.950 . S
C912 C913 1.386 . S
C912 C914 1.391 . S
C913 C912 1.386 . S
C913 C917 1.393 . S
C914 H906 0.950 . S
C914 C912 1.391 . S
C914 C915 1.400 . S
C915 C914 1.400 . S
C915 C916 1.398 . S
C915 C921 1.491 . S
C916 H907 0.950 . S
C916 C915 1.398 . S
C916 C917 1.391 . S
C917 H905 0.950 . S
C917 C913 1.393 . S
C917 C916 1.391 . S
C918 H908 0.950 . S
C918 C919 1.386 . S
C918 C920 1.391 . S
C919 C918 1.386 . S
C919 C923 1.393 . S
C920 H909 0.950 . S
C920 C918 1.391 . S
C920 C921 1.400 . S
C921 C915 1.491 . S
C921 C920 1.400 . S
C921 C922 1.398 . S
C922 H910 0.950 . S
C922 C921 1.398 . S
C922 C923 1.391 . S
C923 H911 0.950 . S
C923 C919 1.393 . S
C923 C922 1.391 . S
H924 C932 0.950 . S
H925 C937 0.950 . S
H926 C934 0.950 . S
H927 C936 0.950 . S
H928 C938 0.950 . S
H929 C940 0.950 . S
H930 C942 0.950 . S
H931 C943 0.950 . S
C932 H924 0.950 . S
C932 C933 1.386 . S
C932 C934 1.391 . S
C933 C932 1.386 . S
C933 C937 1.393 . S
C934 H926 0.950 . S
C934 C932 1.391 . S
C934 C935 1.400 . S
C935 C934 1.400 . S
C935 C936 1.398 . S
C935 C941 1.491 . S
C936 H927 0.950 . S
C936 C935 1.398 . S
C936 C937 1.391 . S
C937 H925 0.950 . S
C937 C933 1.393 . S
C937 C936 1.391 . S
C938 H928 0.950 . S
C938 C939 1.386 . S
C938 C940 1.391 . S
C939 C938 1.386 . S
C939 C943 1.393 . S
C940 H929 0.950 . S
C940 C938 1.391 . S
C940 C941 1.400 . S
C941 C935 1.491 . S
C941 C940 1.400 . S
C941 C942 1.398 . S
C942 H930 0.950 . S
C942 C941 1.398 . S
C942 C943 1.391 . S
C943 H931 0.950 . S
C943 C939 1.393 . S
C943 C942 1.391 . S
H944 C952 0.950 1_455 S
H945 C957 0.950 . S
H946 C954 0.950 1_455 S
H947 C956 0.950 . S
H948 C958 0.950 . S
H949 C960 0.950 . S
H950 C962 0.950 1_455 S
H951 C963 0.950 1_455 S
C952 H944 0.950 1_655 S
C952 C953 1.386 . S
C952 C954 1.391 . S
C953 C952 1.386 . S
C953 C957 1.393 . S
C954 H946 0.950 1_655 S
C954 C952 1.391 . S
C954 C955 1.400 . S
C955 C954 1.400 . S
C955 C956 1.398 . S
C955 C961 1.491 . S
C956 H947 0.950 . S
C956 C955 1.398 . S
C956 C957 1.391 . S
C957 H945 0.950 . S
C957 C953 1.393 . S
C957 C956 1.391 . S
C958 H948 0.950 . S
C958 C959 1.386 . S
C958 C960 1.391 . S
C959 C958 1.386 . S
C959 C963 1.393 . S
C960 H949 0.950 . S
C960 C958 1.391 . S
C960 C961 1.400 . S
C961 C955 1.491 . S
C961 C960 1.400 . S
C961 C962 1.398 . S
C962 H950 0.950 1_655 S
C962 C961 1.398 . S
C962 C963 1.391 . S
C963 H951 0.950 1_655 S
C963 C959 1.393 . S
C963 C962 1.391 . S
H964 C972 0.950 . S
H965 C977 0.952 1_545 S
H966 C974 0.950 . S
H967 C976 0.968 . S
H968 C978 0.950 1_545 S
H969 C980 0.916 1_545 S
H970 C982 0.950 . S
H971 C983 0.950 . S
C972 H964 0.950 . S
C972 C973 1.386 . S
C972 C974 1.391 . S
C973 C972 1.386 . S
C973 C977 1.393 . S
C974 H966 0.950 . S
C974 C972 1.391 . S
C974 C975 1.400 . S
C975 C974 1.400 . S
C975 C976 1.398 . S
C975 C981 1.491 . S
C976 H967 0.968 . S
C976 C975 1.398 . S
C976 C977 1.391 . S
C977 H965 0.952 1_565 S
C977 C973 1.393 . S
C977 C976 1.391 . S
C978 H968 0.950 1_565 S
C978 C979 1.386 . S
C978 C980 1.391 . S
C979 C978 1.386 . S
C979 C983 1.393 . S
C980 H969 0.916 1_565 S
C980 C978 1.391 . S
C980 C981 1.400 . S
C981 C975 1.491 . S
C981 C980 1.400 . S
C981 C982 1.398 . S
C982 H970 0.950 . S
C982 C981 1.398 . S
C982 C983 1.391 . S
C983 H971 0.950 . S
C983 C979 1.393 . S
C983 C982 1.391 . S
H984 C992 0.950 . S
H985 C997 0.950 . S
H986 C994 0.950 . S
H987 C996 0.950 . S
H988 C998 0.950 . S
H989 C1000 0.950 . S
H990 C1002 0.950 . S
H991 C1003 0.950 . S
C992 H984 0.950 . S
C992 C993 1.386 . S
C992 C994 1.391 . S
C993 C992 1.386 . S
C993 C997 1.393 . S
C994 H986 0.950 . S
C994 C992 1.391 . S
C994 C995 1.400 . S
C995 C994 1.400 . S
C995 C996 1.398 . S
C995 C1001 1.491 . S
C996 H987 0.950 . S
C996 C995 1.398 . S
C996 C997 1.391 . S
C997 H985 0.950 . S
C997 C993 1.393 . S
C997 C996 1.391 . S
C998 H988 0.950 . S
C998 C999 1.386 . S
C998 C1000 1.391 . S
C999 C998 1.386 . S
C999 C1003 1.393 . S
C1000 H989 0.950 . S
C1000 C998 1.391 . S
C1000 C1001 1.400 . S
C1001 C995 1.491 . S
C1001 C1000 1.400 . S
C1001 C1002 1.398 . S
C1002 H990 0.950 . S
C1002 C1001 1.398 . S
C1002 C1003 1.391 . S
C1003 H991 0.950 . S
C1003 C999 1.393 . S
C1003 C1002 1.391 . S
H1004 C1012 0.950 . S
H1005 C1017 0.950 . S
H1006 C1014 0.950 . S
H1007 C1016 0.950 . S
H1008 C1018 0.950 . S
H1009 C1020 0.950 . S
H1010 C1022 0.950 . S
H1011 C1023 0.950 . S
C1012 H1004 0.950 . S
C1012 C1013 1.386 . S
C1012 C1014 1.391 . S
C1013 C1012 1.386 . S
C1013 C1017 1.393 . S
C1014 H1006 0.950 . S
C1014 C1012 1.391 . S
C1014 C1015 1.400 . S
C1015 C1014 1.400 . S
C1015 C1016 1.398 . S
C1015 C1021 1.491 . S
C1016 H1007 0.950 . S
C1016 C1015 1.398 . S
C1016 C1017 1.391 . S
C1017 H1005 0.950 . S
C1017 C1013 1.393 . S
C1017 C1016 1.391 . S
C1018 H1008 0.950 . S
C1018 C1019 1.386 . S
C1018 C1020 1.391 . S
C1019 C1018 1.386 . S
C1019 C1023 1.393 . S
C1020 H1009 0.950 . S
C1020 C1018 1.391 . S
C1020 C1021 1.400 . S
C1021 C1015 1.491 . S
C1021 C1020 1.400 . S
C1021 C1022 1.398 . S
C1022 H1010 0.950 . S
C1022 C1021 1.398 . S
C1022 C1023 1.391 . S
C1023 H1011 0.950 . S
C1023 C1019 1.393 . S
C1023 C1022 1.391 . S
H1024 C1032 0.950 . S
H1025 C1037 0.950 . S
H1026 C1034 0.950 . S
H1027 C1036 0.950 . S
H1028 C1038 0.950 . S
H1029 C1040 0.950 . S
H1030 C1042 0.950 . S
H1031 C1043 0.950 . S
C1032 H1024 0.950 . S
C1032 C1033 1.386 1_455 S
C1032 C1034 1.391 . S
C1033 C1032 1.386 1_655 S
C1033 C1037 1.393 . S
C1034 H1026 0.950 . S
C1034 C1032 1.391 . S
C1034 C1035 1.350 1_455 S
C1035 C1034 1.350 1_655 S
C1035 C1036 1.456 . S
C1035 C1041 1.485 1_655 S
C1036 H1027 0.950 . S
C1036 C1035 1.456 . S
C1036 C1037 1.391 . S
C1037 H1025 0.950 . S
C1037 C1033 1.393 . S
C1037 C1036 1.391 . S
C1038 H1028 0.950 . S
C1038 C1039 1.386 1_655 S
C1038 C1040 1.391 . S
C1039 C1038 1.386 1_455 S
C1039 C1043 1.393 . S
C1040 H1029 0.950 . S
C1040 C1038 1.391 . S
C1040 C1041 1.400 1_655 S
C1041 C1035 1.485 1_455 S
C1041 C1040 1.400 1_455 S
C1041 C1042 1.398 . S
C1042 H1030 0.950 . S
C1042 C1041 1.398 . S
C1042 C1043 1.391 . S
C1043 H1031 0.950 . S
C1043 C1039 1.393 . S
C1043 C1042 1.391 . S
H1044 C1052 0.950 . S
H1045 C1057 0.964 . S
H1046 C1054 0.950 . S
H1047 C1056 0.950 . S
H1048 C1058 0.950 . S
H1049 C1060 0.950 . S
H1050 C1062 0.950 . S
H1051 C1063 0.950 . S
C1052 H1044 0.950 . S
C1052 C1053 1.386 . S
C1052 C1054 1.391 . S
C1053 C1052 1.386 . S
C1053 C1057 1.376 1_545 S
C1054 H1046 0.950 . S
C1054 C1052 1.391 . S
C1054 C1055 1.400 . S
C1055 C1054 1.400 . S
C1055 C1056 1.398 1_545 S
C1055 C1061 1.491 1_545 S
C1056 H1047 0.950 . S
C1056 C1055 1.398 1_565 S
C1056 C1057 1.396 . S
C1057 H1045 0.964 . S
C1057 C1053 1.376 1_565 S
C1057 C1056 1.396 . S
C1058 H1048 0.950 . S
C1058 C1059 1.386 . S
C1058 C1060 1.391 . S
C1059 C1058 1.386 . S
C1059 C1063 1.393 1_565 S
C1060 H1049 0.950 . S
C1060 C1058 1.391 . S
C1060 C1061 1.400 . S
C1061 C1055 1.491 1_565 S
C1061 C1060 1.400 . S
C1061 C1062 1.398 1_565 S
C1062 H1050 0.950 . S
C1062 C1061 1.398 1_545 S
C1062 C1063 1.391 . S
C1063 H1051 0.950 . S
C1063 C1059 1.393 1_545 S
C1063 C1062 1.391 . S
H1064 C1072 0.950 . S
H1065 C1077 0.950 . S
H1066 C1074 0.950 . S
H1067 C1076 0.950 . S
H1068 C1078 0.950 . S
H1069 C1080 0.950 . S
H1070 C1082 0.950 . S
H1071 C1083 0.950 . S
C1072 H1064 0.950 . S
C1072 C1073 1.386 . S
C1072 C1074 1.391 . S
C1073 C1072 1.386 . S
C1073 C1077 1.393 . S
C1074 H1066 0.950 . S
C1074 C1072 1.391 . S
C1074 C1075 1.400 . S
C1075 C1074 1.400 . S
C1075 C1076 1.398 . S
C1075 C1081 1.491 . S
C1076 H1067 0.950 . S
C1076 C1075 1.398 . S
C1076 C1077 1.391 . S
C1077 H1065 0.950 . S
C1077 C1073 1.393 . S
C1077 C1076 1.391 . S
C1078 H1068 0.950 . S
C1078 C1079 1.386 . S
C1078 C1080 1.391 . S
C1079 C1078 1.386 . S
C1079 C1083 1.393 . S
C1080 H1069 0.950 . S
C1080 C1078 1.391 . S
C1080 C1081 1.400 . S
C1081 C1075 1.491 . S
C1081 C1080 1.400 . S
C1081 C1082 1.398 . S
C1082 H1070 0.950 . S
C1082 C1081 1.398 . S
C1082 C1083 1.391 . S
C1083 H1071 0.950 . S
C1083 C1079 1.393 . S
C1083 C1082 1.391 . S
H1084 C1092 0.950 . S
H1085 C1097 0.950 . S
H1086 C1094 0.950 . S
H1087 C1096 0.950 . S
H1088 C1098 0.950 . S
H1089 C1100 0.950 . S
H1090 C1102 0.950 . S
H1091 C1103 0.950 . S
C1092 H1084 0.950 . S
C1092 C1093 1.386 . S
C1092 C1094 1.391 . S
C1093 C1092 1.386 . S
C1093 C1097 1.393 . S
C1094 H1086 0.950 . S
C1094 C1092 1.391 . S
C1094 C1095 1.400 . S
C1095 C1094 1.400 . S
C1095 C1096 1.398 . S
C1095 C1101 1.491 . S
C1096 H1087 0.950 . S
C1096 C1095 1.398 . S
C1096 C1097 1.391 . S
C1097 H1085 0.950 . S
C1097 C1093 1.393 . S
C1097 C1096 1.391 . S
C1098 H1088 0.950 . S
C1098 C1099 1.386 . S
C1098 C1100 1.391 . S
C1099 C1098 1.386 . S
C1099 C1103 1.393 . S
C1100 H1089 0.950 . S
C1100 C1098 1.391 . S
C1100 C1101 1.400 . S
C1101 C1095 1.491 . S
C1101 C1100 1.400 . S
C1101 C1102 1.398 . S
C1102 H1090 0.950 . S
C1102 C1101 1.398 . S
C1102 C1103 1.391 . S
C1103 H1091 0.950 . S
C1103 C1099 1.393 . S
C1103 C1102 1.391 . S
H1104 C1112 0.950 . S
H1105 C1117 0.950 . S
H1106 C1114 0.950 . S
H1107 C1116 0.950 . S
H1108 C1118 0.950 . S
H1109 C1120 0.950 . S
H1110 C1122 0.950 . S
H1111 C1123 0.950 . S
C1112 H1104 0.950 . S
C1112 C1113 1.386 . S
C1112 C1114 1.391 . S
C1113 C1112 1.386 . S
C1113 C1117 1.393 1_655 S
C1114 H1106 0.950 . S
C1114 C1112 1.391 . S
C1114 C1115 1.442 . S
C1115 C1114 1.442 . S
C1115 C1116 1.361 1_655 S
C1115 C1121 1.485 1_655 S
C1116 H1107 0.950 . S
C1116 C1115 1.361 1_455 S
C1116 C1117 1.391 . S
C1117 H1105 0.950 . S
C1117 C1113 1.393 1_455 S
C1117 C1116 1.391 . S
C1118 H1108 0.950 . S
C1118 C1119 1.386 . S
C1118 C1120 1.391 . S
C1119 C1118 1.386 . S
C1119 C1123 1.393 1_455 S
C1120 H1109 0.950 . S
C1120 C1118 1.391 . S
C1120 C1121 1.458 . S
C1121 C1115 1.485 1_455 S
C1121 C1120 1.458 . S
C1121 C1122 1.347 1_455 S
C1122 H1110 0.950 . S
C1122 C1121 1.347 1_655 S
C1122 C1123 1.391 . S
C1123 H1111 0.950 . S
C1123 C1119 1.393 1_655 S
C1123 C1122 1.391 . S
H1124 C1132 0.950 . S
H1125 C1137 0.950 . S
H1126 C1134 0.950 . S
H1127 C1136 0.950 . S
H1128 C1138 0.950 . S
H1129 C1140 0.950 . S
H1130 C1142 0.950 . S
H1131 C1143 0.950 . S
C1132 H1124 0.950 . S
C1132 C1133 1.386 1_545 S
C1132 C1134 1.391 . S
C1133 C1132 1.386 1_565 S
C1133 C1137 1.393 . S
C1134 H1126 0.950 . S
C1134 C1132 1.391 . S
C1134 C1135 1.350 1_545 S
C1135 C1134 1.350 1_565 S
C1135 C1136 1.457 . S
C1135 C1141 1.485 1_565 S
C1136 H1127 0.950 . S
C1136 C1135 1.457 . S
C1136 C1137 1.391 . S
C1137 H1125 0.950 . S
C1137 C1133 1.393 . S
C1137 C1136 1.391 . S
C1138 H1128 0.950 . S
C1138 C1139 1.386 1_565 S
C1138 C1140 1.391 . S
C1139 C1138 1.386 1_545 S
C1139 C1143 1.393 . S
C1140 H1129 0.950 . S
C1140 C1138 1.391 . S
C1140 C1141 1.400 1_565 S
C1141 C1135 1.485 1_545 S
C1141 C1140 1.400 1_545 S
C1141 C1142 1.398 . S
C1142 H1130 0.950 . S
C1142 C1141 1.398 . S
C1142 C1143 1.391 . S
C1143 H1131 0.950 . S
C1143 C1139 1.393 . S
C1143 C1142 1.391 . S
H1144 C1152 0.950 . S
H1145 C1157 0.950 . S
H1146 C1154 0.950 . S
H1147 C1156 0.950 . S
H1148 C1158 0.950 . S
H1149 C1160 0.950 . S
H1150 C1162 0.950 . S
H1151 C1163 0.950 . S
C1152 H1144 0.950 . S
C1152 C1153 1.386 . S
C1152 C1154 1.391 . S
C1153 C1152 1.386 . S
C1153 C1157 1.393 . S
C1154 H1146 0.950 . S
C1154 C1152 1.391 . S
C1154 C1155 1.400 . S
C1155 C1154 1.400 . S
C1155 C1156 1.398 . S
C1155 C1161 1.491 . S
C1156 H1147 0.950 . S
C1156 C1155 1.398 . S
C1156 C1157 1.391 . S
C1157 H1145 0.950 . S
C1157 C1153 1.393 . S
C1157 C1156 1.391 . S
C1158 H1148 0.950 . S
C1158 C1159 1.386 . S
C1158 C1160 1.391 . S
C1159 C1158 1.386 . S
C1159 C1163 1.393 . S
C1160 H1149 0.950 . S
C1160 C1158 1.391 . S
C1160 C1161 1.400 . S
C1161 C1155 1.491 . S
C1161 C1160 1.400 . S
C1161 C1162 1.398 . S
C1162 H1150 0.950 . S
C1162 C1161 1.398 . S
C1162 C1163 1.391 . S
C1163 H1151 0.950 . S
C1163 C1159 1.393 . S
C1163 C1162 1.391 . S
H1164 C1172 0.950 . S
H1165 C1177 0.950 . S
H1166 C1174 0.950 . S
H1167 C1176 0.950 . S
H1168 C1178 0.950 . S
H1169 C1180 0.950 . S
H1170 C1182 0.950 . S
H1171 C1183 0.950 . S
C1172 H1164 0.950 . S
C1172 C1173 1.386 . S
C1172 C1174 1.391 . S
C1173 C1172 1.386 . S
C1173 C1177 1.393 . S
C1174 H1166 0.950 . S
C1174 C1172 1.391 . S
C1174 C1175 1.400 . S
C1175 C1174 1.400 . S
C1175 C1176 1.398 . S
C1175 C1181 1.491 . S
C1176 H1167 0.950 . S
C1176 C1175 1.398 . S
C1176 C1177 1.391 . S
C1177 H1165 0.950 . S
C1177 C1173 1.393 . S
C1177 C1176 1.391 . S
C1178 H1168 0.950 . S
C1178 C1179 1.386 . S
C1178 C1180 1.391 . S
C1179 C1178 1.386 . S
C1179 C1183 1.393 . S
C1180 H1169 0.950 . S
C1180 C1178 1.391 . S
C1180 C1181 1.400 . S
C1181 C1175 1.491 . S
C1181 C1180 1.400 . S
C1181 C1182 1.398 . S
C1182 H1170 0.950 . S
C1182 C1181 1.398 . S
C1182 C1183 1.391 . S
C1183 H1171 0.950 . S
C1183 C1179 1.393 . S
C1183 C1182 1.391 . S
H1184 C1192 0.950 . S
H1185 C1197 0.950 . S
H1186 C1194 0.950 . S
H1187 C1196 0.950 . S
H1188 C1198 0.950 . S
H1189 C1200 0.950 . S
H1190 C1202 0.950 . S
H1191 C1203 0.950 . S
C1192 H1184 0.950 . S
C1192 C1193 1.386 1_455 S
C1192 C1194 1.391 . S
C1193 C1192 1.386 1_655 S
C1193 C1197 1.393 . S
C1194 H1186 0.950 . S
C1194 C1192 1.391 . S
C1194 C1195 1.400 1_455 S
C1195 C1194 1.400 1_655 S
C1195 C1196 1.398 . S
C1195 C1201 1.485 1_655 S
C1196 H1187 0.950 . S
C1196 C1195 1.398 . S
C1196 C1197 1.391 . S
C1197 H1185 0.950 . S
C1197 C1193 1.393 . S
C1197 C1196 1.391 . S
C1198 H1188 0.950 . S
C1198 C1199 1.386 1_655 S
C1198 C1200 1.391 . S
C1199 C1198 1.386 1_455 S
C1199 C1203 1.393 . S
C1200 H1189 0.950 . S
C1200 C1198 1.391 . S
C1200 C1201 1.350 1_655 S
C1201 C1195 1.485 1_455 S
C1201 C1200 1.350 1_455 S
C1201 C1202 1.458 . S
C1202 H1190 0.950 . S
C1202 C1201 1.458 . S
C1202 C1203 1.391 . S
C1203 H1191 0.950 . S
C1203 C1199 1.393 . S
C1203 C1202 1.391 . S
H1204 C1212 0.950 . S
H1205 C1217 0.950 . S
H1206 C1214 0.950 . S
H1207 C1216 0.950 . S
H1208 C1218 0.950 . S
H1209 C1220 0.950 . S
H1210 C1222 0.950 . S
H1211 C1223 0.950 . S
C1212 H1204 0.950 . S
C1212 C1213 1.386 1_545 S
C1212 C1214 1.391 . S
C1213 C1212 1.386 1_565 S
C1213 C1217 1.393 . S
C1214 H1206 0.950 . S
C1214 C1212 1.391 . S
C1214 C1215 1.400 1_545 S
C1215 C1214 1.400 1_565 S
C1215 C1216 1.398 . S
C1215 C1221 1.491 1_565 S
C1216 H1207 0.950 . S
C1216 C1215 1.398 . S
C1216 C1217 1.391 . S
C1217 H1205 0.950 . S
C1217 C1213 1.393 . S
C1217 C1216 1.391 . S
C1218 H1208 0.950 . S
C1218 C1219 1.386 1_565 S
C1218 C1220 1.391 . S
C1219 C1218 1.386 1_545 S
C1219 C1223 1.393 . S
C1220 H1209 0.950 . S
C1220 C1218 1.391 . S
C1220 C1221 1.400 1_565 S
C1221 C1215 1.491 1_545 S
C1221 C1220 1.400 1_545 S
C1221 C1222 1.398 . S
C1222 H1210 0.950 . S
C1222 C1221 1.398 . S
C1222 C1223 1.391 . S
C1223 H1211 0.950 . S
C1223 C1219 1.393 . S
C1223 C1222 1.391 . S
H1224 C1232 0.950 . S
H1225 C1237 0.950 . S
H1226 C1234 0.950 . S
H1227 C1236 0.950 . S
H1228 C1238 0.950 . S
H1229 C1240 0.950 . S
H1230 C1242 0.950 . S
H1231 C1243 0.950 . S
C1232 H1224 0.950 . S
C1232 C1233 1.386 . S
C1232 C1234 1.391 . S
C1233 C1232 1.386 . S
C1233 C1237 1.393 . S
C1234 H1226 0.950 . S
C1234 C1232 1.391 . S
C1234 C1235 1.400 . S
C1235 C1234 1.400 . S
C1235 C1236 1.398 . S
C1235 C1241 1.491 . S
C1236 H1227 0.950 . S
C1236 C1235 1.398 . S
C1236 C1237 1.391 . S
C1237 H1225 0.950 . S
C1237 C1233 1.393 . S
C1237 C1236 1.391 . S
C1238 H1228 0.950 . S
C1238 C1239 1.386 . S
C1238 C1240 1.391 . S
C1239 C1238 1.386 . S
C1239 C1243 1.393 . S
C1240 H1229 0.950 . S
C1240 C1238 1.391 . S
C1240 C1241 1.400 . S
C1241 C1235 1.491 . S
C1241 C1240 1.400 . S
C1241 C1242 1.398 . S
C1242 H1230 0.950 . S
C1242 C1241 1.398 . S
C1242 C1243 1.391 . S
C1243 H1231 0.950 . S
C1243 C1239 1.393 . S
C1243 C1242 1.391 . S
H1244 C1252 0.950 . S
H1245 C1257 0.950 . S
H1246 C1254 0.950 . S
H1247 C1256 0.950 . S
H1248 C1258 0.950 . S
H1249 C1260 0.950 . S
H1250 C1262 0.950 . S
H1251 C1263 0.950 . S
C1252 H1244 0.950 . S
C1252 C1253 1.386 . S
C1252 C1254 1.391 . S
C1253 C1252 1.386 . S
C1253 C1257 1.393 . S
C1254 H1246 0.950 . S
C1254 C1252 1.391 . S
C1254 C1255 1.400 . S
C1255 C1254 1.400 . S
C1255 C1256 1.398 . S
C1255 C1261 1.491 . S
C1256 H1247 0.950 . S
C1256 C1255 1.398 . S
C1256 C1257 1.391 . S
C1257 H1245 0.950 . S
C1257 C1253 1.393 . S
C1257 C1256 1.391 . S
C1258 H1248 0.950 . S
C1258 C1259 1.386 . S
C1258 C1260 1.391 . S
C1259 C1258 1.386 . S
C1259 C1263 1.393 . S
C1260 H1249 0.950 . S
C1260 C1258 1.391 . S
C1260 C1261 1.400 . S
C1261 C1255 1.491 . S
C1261 C1260 1.400 . S
C1261 C1262 1.398 . S
C1262 H1250 0.950 . S
C1262 C1261 1.398 . S
C1262 C1263 1.391 . S
C1263 H1251 0.950 . S
C1263 C1259 1.393 . S
C1263 C1262 1.391 . S
H1264 C1272 0.950 . S
H1265 C1277 0.950 . S
H1266 C1274 0.950 . S
H1267 C1276 0.950 . S
H1268 C1278 0.950 . S
H1269 C1280 0.950 . S
H1270 C1282 0.950 . S
H1271 C1283 0.950 . S
C1272 H1264 0.950 . S
C1272 C1273 1.386 1_655 S
C1272 C1274 1.391 . S
C1273 C1272 1.386 1_455 S
C1273 C1277 1.393 . S
C1274 H1266 0.950 . S
C1274 C1272 1.391 . S
C1274 C1275 1.394 1_655 S
C1275 C1274 1.394 1_455 S
C1275 C1276 1.408 . S
C1275 C1281 1.487 1_455 S
C1276 H1267 0.950 . S
C1276 C1275 1.408 . S
C1276 C1277 1.391 . S
C1277 H1265 0.950 . S
C1277 C1273 1.393 . S
C1277 C1276 1.391 . S
C1278 H1268 0.950 . S
C1278 C1279 1.386 1_455 S
C1278 C1280 1.391 . S
C1279 C1278 1.386 1_655 S
C1279 C1283 1.393 . S
C1280 H1269 0.950 . S
C1280 C1278 1.391 . S
C1280 C1281 1.391 1_455 S
C1281 C1275 1.487 1_655 S
C1281 C1280 1.391 1_655 S
C1281 C1282 1.413 . S
C1282 H1270 0.950 . S
C1282 C1281 1.413 . S
C1282 C1283 1.391 . S
C1283 H1271 0.950 . S
C1283 C1279 1.393 . S
C1283 C1282 1.391 . S
H1284 C1292 0.950 . S
H1285 C1297 0.950 . S
H1286 C1294 0.950 . S
H1287 C1296 0.950 . S
H1288 C1298 0.950 . S
H1289 C1300 0.950 . S
H1290 C1302 0.950 . S
H1291 C1303 0.950 . S
C1292 H1284 0.950 . S
C1292 C1293 1.386 1_565 S
C1292 C1294 1.391 . S
C1293 C1292 1.386 1_545 S
C1293 C1297 1.393 . S
C1294 H1286 0.950 . S
C1294 C1292 1.391 . S
C1294 C1295 1.400 1_565 S
C1295 C1294 1.400 1_545 S
C1295 C1296 1.398 . S
C1295 C1301 1.491 1_545 S
C1296 H1287 0.950 . S
C1296 C1295 1.398 . S
C1296 C1297 1.391 . S
C1297 H1285 0.950 . S
C1297 C1293 1.393 . S
C1297 C1296 1.391 . S
C1298 H1288 0.950 . S
C1298 C1299 1.386 1_545 S
C1298 C1300 1.391 . S
C1299 C1298 1.386 1_565 S
C1299 C1303 1.393 . S
C1300 H1289 0.950 . S
C1300 C1298 1.391 . S
C1300 C1301 1.400 1_545 S
C1301 C1295 1.491 1_565 S
C1301 C1300 1.400 1_565 S
C1301 C1302 1.398 . S
C1302 H1290 0.950 . S
C1302 C1301 1.398 . S
C1302 C1303 1.391 . S
C1303 H1291 0.950 . S
C1303 C1299 1.393 . S
C1303 C1302 1.391 . S
H1304 C1312 0.950 . S
H1305 C1317 0.950 . S
H1306 C1314 0.950 . S
H1307 C1316 0.950 . S
H1308 C1318 0.950 . S
H1309 C1320 0.950 . S
H1310 C1322 0.950 . S
H1311 C1323 0.950 . S
C1312 H1304 0.950 . S
C1312 C1313 1.386 . S
C1312 C1314 1.391 . S
C1313 C1312 1.386 . S
C1313 C1317 1.393 . S
C1314 H1306 0.950 . S
C1314 C1312 1.391 . S
C1314 C1315 1.400 . S
C1315 C1314 1.400 . S
C1315 C1316 1.398 . S
C1315 C1321 1.491 . S
C1316 H1307 0.950 . S
C1316 C1315 1.398 . S
C1316 C1317 1.391 . S
C1317 H1305 0.950 . S
C1317 C1313 1.393 . S
C1317 C1316 1.391 . S
C1318 H1308 0.950 . S
C1318 C1319 1.386 . S
C1318 C1320 1.391 . S
C1319 C1318 1.386 . S
C1319 C1323 1.393 . S
C1320 H1309 0.950 . S
C1320 C1318 1.391 . S
C1320 C1321 1.400 . S
C1321 C1315 1.491 . S
C1321 C1320 1.400 . S
C1321 C1322 1.398 . S
C1322 H1310 0.950 . S
C1322 C1321 1.398 . S
C1322 C1323 1.391 . S
C1323 H1311 0.950 . S
C1323 C1319 1.393 . S
C1323 C1322 1.391 . S
H1324 C1332 0.950 . S
H1325 C1337 0.950 . S
H1326 C1334 0.950 . S
H1327 C1336 0.950 . S
H1328 C1338 0.950 . S
H1329 C1340 0.950 . S
H1330 C1342 0.950 . S
H1331 C1343 0.950 . S
C1332 H1324 0.950 . S
C1332 C1333 1.386 . S
C1332 C1334 1.391 . S
C1333 C1332 1.386 . S
C1333 C1337 1.393 . S
C1334 H1326 0.950 . S
C1334 C1332 1.391 . S
C1334 C1335 1.400 . S
C1335 C1334 1.400 . S
C1335 C1336 1.398 . S
C1335 C1341 1.491 . S
C1336 H1327 0.950 . S
C1336 C1335 1.398 . S
C1336 C1337 1.391 . S
C1337 H1325 0.950 . S
C1337 C1333 1.393 . S
C1337 C1336 1.391 . S
C1338 H1328 0.950 . S
C1338 C1339 1.386 . S
C1338 C1340 1.391 . S
C1339 C1338 1.386 . S
C1339 C1343 1.393 . S
C1340 H1329 0.950 . S
C1340 C1338 1.391 . S
C1340 C1341 1.400 . S
C1341 C1335 1.491 . S
C1341 C1340 1.400 . S
C1341 C1342 1.398 . S
C1342 H1330 0.950 . S
C1342 C1341 1.398 . S
C1342 C1343 1.391 . S
C1343 H1331 0.950 . S
C1343 C1339 1.393 . S
C1343 C1342 1.391 . S
C553 C2 1.722 . S
C559 C512 1.724 . S
C573 C36 1.722 . S
C579 C410 1.724 . S
C593 C444 1.723 . S
C599 C70 1.723 . S
C613 C104 1.722 . S
C619 C478 1.724 . S
C633 C308 1.722 . S
C639 C138 1.724 . S
C653 C342 1.724 . S
C659 C172 1.722 . S
C673 C376 1.723 . S
C679 C206 1.723 . S
C693 C274 1.724 . S
C699 C240 1.722 . S
C713 C33 1.255 . S
C719 C271 1.258 . S
C733 C67 1.258 . S
C739 C169 1.248 . S
C753 C101 1.239 . S
C759 C203 1.243 . S
C773 C135 1.248 . S
C779 C237 1.240 . S
C793 C543 1.241 . S
C799 C305 1.251 . S
C813 C441 1.240 . S
C819 C339 1.243 . S
C833 C475 1.257 . S
C839 C373 1.247 . S
C853 C407 1.252 . S
C859 C509 1.259 . S
C873 C20 1.556 . S
C879 C156 1.552 . S
C893 C190 1.559 . S
C899 C54 1.551 . S
C913 C224 1.553 . S
C919 C88 1.554 . S
C933 C122 1.555 . S
C939 C258 1.552 . S
C953 C428 1.557 . S
C959 C292 1.551 . S
C973 C326 1.564 . S
C979 C462 1.558 . S
C993 C360 1.560 . S
C999 C496 1.551 . S
C1013 C530 1.551 . S
C1019 C394 1.559 . S
C1033 C5 1.254 . S
C1039 C9 1.217 . S
C1053 C43 1.208 1_554 S
C1059 C39 1.252 . S
C1073 C73 1.252 . S
C1079 C77 1.230 . S
C1093 C111 1.221 1_554 S
C1099 C107 1.254 . S
C1113 C141 1.244 . S
C1119 C145 1.224 1_556 S
C1133 C175 1.254 . S
C1139 C179 1.216 . S
C1153 C209 1.245 . S
C1159 C213 1.231 1_556 S
C1173 C243 1.247 . S
C1179 C247 1.233 . S
C1193 C281 1.215 . S
C1199 C277 1.254 . S
C1213 C315 1.207 1_556 S
C1219 C311 1.252 . S
C1233 C349 1.233 . S
C1239 C345 1.249 . S
C1253 C383 1.206 1_556 S
C1259 C379 1.251 . S
C1273 C413 1.246 . S
C1279 C417 1.232 1_554 S
C1293 C447 1.247 . S
C1299 C451 1.208 . S
C1313 C485 1.221 1_554 S
C1319 C481 1.254 . S
C1333 C519 1.223 . S
C1339 C515 1.254 . S
