# Generated by pormake.
# Topology vbm, (6)-cn, num edge types: 1
# Building blocks:
#     Node 0, Type 0, BuildingBlock: CUKXOW_clean_sbu_0, # of connection points: 6
#     Node 1, Type 0, BuildingBlock: CUKXOW_clean_sbu_0, # of connection points: 6
#     Node 2, Type 0, BuildingBlock: CUKXOW_clean_sbu_0, # of connection points: 6
#     Node 3, Type 0, BuildingBlock: CUKXOW_clean_sbu_0, # of connection points: 6
#     Node 4, Type 0, BuildingBlock: CUKXOW_clean_sbu_0, # of connection points: 6
#     Node 5, Type 0, BuildingBlock: CUKXOW_clean_sbu_0, # of connection points: 6
#     Node 6, Type 0, BuildingBlock: CUKXOW_clean_sbu_0, # of connection points: 6
#     Node 7, Type 0, BuildingBlock: CUKXOW_clean_sbu_0, # of connection points: 6
#     Node 8, Type 0, BuildingBlock: CUKXOW_clean_sbu_0, # of connection points: 6
#     Node 9, Type 0, BuildingBlock: CUKXOW_clean_sbu_0, # of connection points: 6
#     Node 10, Type 0, BuildingBlock: CUKXOW_clean_sbu_0, # of connection points: 6
#     Node 11, Type 0, BuildingBlock: CUKXOW_clean_sbu_0, # of connection points: 6
#     Node 12, Type 0, BuildingBlock: CUKXOW_clean_sbu_0, # of connection points: 6
#     Node 13, Type 0, BuildingBlock: CUKXOW_clean_sbu_0, # of connection points: 6
#     Node 14, Type 0, BuildingBlock: CUKXOW_clean_sbu_0, # of connection points: 6
#     Node 15, Type 0, BuildingBlock: CUKXOW_clean_sbu_0, # of connection points: 6
#     Edge 16, Type (0, 0), BuildingBlock: TEMPAE_clean_linker_10, # of connection points: 2
#     Edge 17, Type (0, 0), BuildingBlock: TEMPAE_clean_linker_10, # of connection points: 2
#     Edge 18, Type (0, 0), BuildingBlock: TEMPAE_clean_linker_10, # of connection points: 2
#     Edge 19, Type (0, 0), BuildingBlock: TEMPAE_clean_linker_10, # of connection points: 2
#     Edge 20, Type (0, 0), BuildingBlock: TEMPAE_clean_linker_10, # of connection points: 2
#     Edge 21, Type (0, 0), BuildingBlock: TEMPAE_clean_linker_10, # of connection points: 2
#     Edge 22, Type (0, 0), BuildingBlock: TEMPAE_clean_linker_10, # of connection points: 2
#     Edge 23, Type (0, 0), BuildingBlock: TEMPAE_clean_linker_10, # of connection points: 2
#     Edge 24, Type (0, 0), BuildingBlock: TEMPAE_clean_linker_10, # of connection points: 2
#     Edge 25, Type (0, 0), BuildingBlock: TEMPAE_clean_linker_10, # of connection points: 2
#     Edge 26, Type (0, 0), BuildingBlock: TEMPAE_clean_linker_10, # of connection points: 2
#     Edge 27, Type (0, 0), BuildingBlock: TEMPAE_clean_linker_10, # of connection points: 2
#     Edge 28, Type (0, 0), BuildingBlock: TEMPAE_clean_linker_10, # of connection points: 2
#     Edge 29, Type (0, 0), BuildingBlock: TEMPAE_clean_linker_10, # of connection points: 2
#     Edge 30, Type (0, 0), BuildingBlock: TEMPAE_clean_linker_10, # of connection points: 2
#     Edge 31, Type (0, 0), BuildingBlock: TEMPAE_clean_linker_10, # of connection points: 2
#     Edge 32, Type (0, 0), BuildingBlock: TEMPAE_clean_linker_10, # of connection points: 2
#     Edge 33, Type (0, 0), BuildingBlock: TEMPAE_clean_linker_10, # of connection points: 2
#     Edge 34, Type (0, 0), BuildingBlock: TEMPAE_clean_linker_10, # of connection points: 2
#     Edge 35, Type (0, 0), BuildingBlock: TEMPAE_clean_linker_10, # of connection points: 2
#     Edge 36, Type (0, 0), BuildingBlock: TEMPAE_clean_linker_10, # of connection points: 2
#     Edge 37, Type (0, 0), BuildingBlock: TEMPAE_clean_linker_10, # of connection points: 2
#     Edge 38, Type (0, 0), BuildingBlock: TEMPAE_clean_linker_10, # of connection points: 2
#     Edge 39, Type (0, 0), BuildingBlock: TEMPAE_clean_linker_10, # of connection points: 2
#     Edge 40, Type (0, 0), BuildingBlock: TEMPAE_clean_linker_10, # of connection points: 2
#     Edge 41, Type (0, 0), BuildingBlock: TEMPAE_clean_linker_10, # of connection points: 2
#     Edge 42, Type (0, 0), BuildingBlock: TEMPAE_clean_linker_10, # of connection points: 2
#     Edge 43, Type (0, 0), BuildingBlock: TEMPAE_clean_linker_10, # of connection points: 2
#     Edge 44, Type (0, 0), BuildingBlock: TEMPAE_clean_linker_10, # of connection points: 2
#     Edge 45, Type (0, 0), BuildingBlock: TEMPAE_clean_linker_10, # of connection points: 2
#     Edge 46, Type (0, 0), BuildingBlock: TEMPAE_clean_linker_10, # of connection points: 2
#     Edge 47, Type (0, 0), BuildingBlock: TEMPAE_clean_linker_10, # of connection points: 2
#     Edge 48, Type (0, 0), BuildingBlock: TEMPAE_clean_linker_10, # of connection points: 2
#     Edge 49, Type (0, 0), BuildingBlock: TEMPAE_clean_linker_10, # of connection points: 2
#     Edge 50, Type (0, 0), BuildingBlock: TEMPAE_clean_linker_10, # of connection points: 2
#     Edge 51, Type (0, 0), BuildingBlock: TEMPAE_clean_linker_10, # of connection points: 2
#     Edge 52, Type (0, 0), BuildingBlock: TEMPAE_clean_linker_10, # of connection points: 2
#     Edge 53, Type (0, 0), BuildingBlock: TEMPAE_clean_linker_10, # of connection points: 2
#     Edge 54, Type (0, 0), BuildingBlock: TEMPAE_clean_linker_10, # of connection points: 2
#     Edge 55, Type (0, 0), BuildingBlock: TEMPAE_clean_linker_10, # of connection points: 2
#     Edge 56, Type (0, 0), BuildingBlock: TEMPAE_clean_linker_10, # of connection points: 2
#     Edge 57, Type (0, 0), BuildingBlock: TEMPAE_clean_linker_10, # of connection points: 2
#     Edge 58, Type (0, 0), BuildingBlock: TEMPAE_clean_linker_10, # of connection points: 2
#     Edge 59, Type (0, 0), BuildingBlock: TEMPAE_clean_linker_10, # of connection points: 2
#     Edge 60, Type (0, 0), BuildingBlock: TEMPAE_clean_linker_10, # of connection points: 2
#     Edge 61, Type (0, 0), BuildingBlock: TEMPAE_clean_linker_10, # of connection points: 2
#     Edge 62, Type (0, 0), BuildingBlock: TEMPAE_clean_linker_10, # of connection points: 2
#     Edge 63, Type (0, 0), BuildingBlock: TEMPAE_clean_linker_10, # of connection points: 2
# Relax obj value: 0.128
# Max RMSD: 0.179
# Mean RMSD: 0.179
data_MOF--net-vbm--node1-CUKXOW_clean_sbu_0--edge1-TEMPAE_clean_linker_10
_symmetry_space_group_name_H-M    P1
_symmetry_Int_Tables_number       1
_symmetry_cell_setting            triclinic
loop_
_symmetry_equiv_pos_as_xyz
'x, y, z'
_cell_length_a     72.408654
_cell_length_b     14.688443
_cell_length_c     61.606454
_cell_angle_alpha  90.011199
_cell_angle_beta   90.018352
_cell_angle_gamma 89.888183
loop_
_atom_site_label
_atom_site_type_symbol
_atom_site_fract_x
_atom_site_fract_y
_atom_site_fract_z
_atom_type_partial_charge
Tb0 Tb 0.09712 0.12962 0.12288 0.0
C1 C 0.11768 0.15951 0.07847 0.0
Tb2 Tb 0.13993 0.15485 0.12342 0.0
O3 O 0.08925 0.27493 0.12442 0.0
O4 O 0.1163 0.23664 0.12427 0.0
O5 O 0.10193 0.13723 0.08817 0.0
C6 C 0.17513 0.20778 0.12036 0.0
O7 O 0.13346 0.17435 0.08901 0.0
C8 C 0.12846 0.98568 0.12859 0.0
C9 C 0.11918 0.12539 0.16699 0.0
O10 O 0.16818 0.13465 0.11185 0.0
O11 O 0.16214 0.25232 0.1304 0.0
O12 O 0.14371 1.01806 0.13648 0.0
O13 O 0.12097 0.04607 0.11682 0.0
O14 O 0.13305 0.16949 0.15763 0.0
O15 O 0.10522 0.09081 0.1557 0.0
C16 C 0.06186 0.0756 0.1244 0.0
O17 O 0.07019 0.12553 0.13867 0.0
O18 O 0.07362 0.0528 0.10937 0.0
C19 C 0.10599 0.30537 0.12507 0.0
Tb20 Tb 0.88805 0.94961 0.12001 0.0
C21 C 0.86803 0.92157 0.07537 0.0
Tb22 Tb 0.84527 0.92037 0.11967 0.0
O23 O 0.89622 0.80404 0.12125 0.0
O24 O 0.86921 0.84102 0.12096 0.0
O25 O 0.88292 0.95364 0.08535 0.0
C26 C 0.81043 0.86233 0.11614 0.0
O27 O 0.85282 0.8949 0.08571 0.0
C28 C 0.85604 0.09151 0.12451 0.0
C29 C 0.86538 0.95467 0.16356 0.0
O30 O 0.81746 0.93148 0.10597 0.0
O31 O 0.82313 0.82485 0.12813 0.0
O32 O 0.8406 0.05872 0.13174 0.0
O33 O 0.86396 1.03056 0.11335 0.0
O34 O 0.85185 0.90837 0.15408 0.0
O35 O 0.8793 0.9903 0.15242 0.0
C36 C 0.92319 1.00535 0.1222 0.0
O37 O 0.91415 0.96418 0.13744 0.0
O38 O 0.9122 1.01843 0.10579 0.0
C39 C 0.87956 0.77256 0.12169 0.0
Tb40 Tb 0.0983 0.97238 0.37118 0.0
C41 C 0.11951 0.96007 0.41593 0.0
Tb42 Tb 0.14101 0.9495 0.37156 0.0
O43 O 0.09617 0.84196 0.35426 0.0
O44 O 0.11759 0.86294 0.37604 0.0
O45 O 0.10444 0.98855 0.40564 0.0
C46 C 0.17546 0.88423 0.37235 0.0
O47 O 0.13462 0.93173 0.40577 0.0
C48 C 0.13196 0.12512 0.37086 0.0
C49 C 0.12019 0.99014 0.32757 0.0
O50 O 0.16873 0.94517 0.38539 0.0
O51 O 0.16263 0.85849 0.35887 0.0
O52 O 0.14876 0.09455 0.36998 0.0
O53 O 0.1217 0.05615 0.37195 0.0
O54 O 0.13454 0.94886 0.33685 0.0
O55 O 0.10535 1.0163 0.33862 0.0
C56 C 0.06225 1.00797 0.37574 0.0
O57 O 0.07384 0.05712 0.36469 0.0
O58 O 0.07107 0.9403 0.38444 0.0
C59 C 0.11098 0.80679 0.36261 0.0
Tb60 Tb 0.8873 0.10088 0.368 0.0
C61 C 0.8663 0.11102 0.41288 0.0
Tb62 Tb 0.84462 0.12431 0.36871 0.0
O63 O 0.88942 0.23172 0.35128 0.0
O64 O 0.8681 0.21043 0.37319 0.0
O65 O 0.88123 0.08222 0.4024 0.0
C66 C 0.81029 0.19086 0.37015 0.0
O67 O 0.85123 0.14088 0.40289 0.0
C68 C 0.85354 0.94858 0.36773 0.0
C69 C 0.86518 0.08448 0.32448 0.0
O70 O 0.81704 0.12886 0.38288 0.0
O71 O 0.82301 0.21672 0.35655 0.0
O72 O 0.83675 0.97942 0.36702 0.0
O73 O 0.86386 1.01734 0.36877 0.0
O74 O 0.85089 0.12556 0.33395 0.0
O75 O 0.88009 0.0579 0.33537 0.0
C76 C 0.92334 0.06631 0.37301 0.0
O77 O 0.91199 1.01768 0.36147 0.0
O78 O 0.9143 0.13292 0.38184 0.0
C79 C 0.87466 0.26681 0.35978 0.0
Tb80 Tb 0.84397 0.94199 0.86826 0.0
C81 C 0.86346 0.99236 0.82437 0.0
Tb82 Tb 0.8868 0.96839 0.86814 0.0
O83 O 0.83578 0.08668 0.87019 0.0
O84 O 0.86302 0.04952 0.86988 0.0
O85 O 0.84833 0.95898 0.83362 0.0
C86 C 0.9225 1.0104 0.86357 0.0
O87 O 0.87913 1.00782 0.83508 0.0
C88 C 0.87518 0.79875 0.87305 0.0
C89 C 0.86643 0.94628 0.91219 0.0
O90 O 0.91378 0.94718 0.85302 0.0
O91 O 0.91096 0.05177 0.87647 0.0
O92 O 0.89049 0.83062 0.88076 0.0
O93 O 0.86777 0.85974 0.86147 0.0
O94 O 0.88063 0.98564 0.90234 0.0
O95 O 0.85217 0.91097 0.90158 0.0
C96 C 0.80944 0.87676 0.86911 0.0
O97 O 0.81652 0.93366 0.88283 0.0
O98 O 0.82199 0.85444 0.85497 0.0
C99 C 0.85251 0.11771 0.87087 0.0
Tb100 Tb 0.13976 0.14755 0.87114 0.0
C101 C 0.12022 0.09202 0.82762 0.0
Tb102 Tb 0.09714 0.11889 0.87138 0.0
O103 O 0.14839 1.00335 0.87352 0.0
O104 O 0.12106 1.03867 0.87313 0.0
O105 O 0.13524 0.12817 0.83654 0.0
C106 C 0.06135 0.07933 0.86627 0.0
O107 O 0.10473 0.0761 0.8386 0.0
C108 C 0.10852 0.28945 0.87597 0.0
C109 C 0.11753 0.14001 0.91506 0.0
O110 O 0.07043 0.14119 0.85571 0.0
O111 O 0.07256 1.03798 0.87956 0.0
O112 O 0.09355 0.2566 0.88432 0.0
O113 O 0.11584 0.22865 0.86426 0.0
O114 O 0.10397 0.09568 0.9052 0.0
O115 O 0.131 0.18116 0.90422 0.0
C116 C 0.17396 0.21728 0.87212 0.0
O117 O 0.16661 0.16583 0.88684 0.0
O118 O 0.16187 0.23122 0.85685 0.0
C119 C 0.13173 0.97112 0.8742 0.0
Tb120 Tb 0.84401 0.16204 0.61914 0.0
C121 C 0.86486 0.1262 0.66382 0.0
Tb122 Tb 0.88796 0.13075 0.61993 0.0
O123 O 0.83621 1.01627 0.61767 0.0
O124 O 0.86329 0.05493 0.6189 0.0
O125 O 0.84975 0.15805 0.65397 0.0
C126 C 0.92288 0.07394 0.61786 0.0
O127 O 0.88051 0.10506 0.65359 0.0
C128 C 0.87864 0.3074 0.62061 0.0
C129 C 0.86654 0.14358 0.57616 0.0
O130 O 0.91176 0.05928 0.63409 0.0
O131 O 0.91409 0.11743 0.60272 0.0
O132 O 0.89544 0.27724 0.62069 0.0
O133 O 0.8686 0.23794 0.62052 0.0
O134 O 0.87963 0.0989 0.58688 0.0
O135 O 0.85327 0.19034 0.58609 0.0
C136 C 0.81002 0.2318 0.61743 0.0
O137 O 0.81729 0.17724 0.60324 0.0
O138 O 0.82208 0.24889 0.63256 0.0
C139 C 0.85306 0.98599 0.61799 0.0
Tb140 Tb 0.13892 0.92098 0.624 0.0
C141 C 0.11737 0.94505 0.66774 0.0
Tb142 Tb 0.09637 0.94938 0.62292 0.0
O143 O 0.14268 0.05734 0.63731 0.0
O144 O 0.12032 1.03152 0.61695 0.0
O145 O 0.13179 0.90546 0.6582 0.0
C146 C 0.06124 1.00144 0.61921 0.0
O147 O 0.10297 0.97715 0.65674 0.0
C148 C 0.10492 0.7728 0.62678 0.0
C149 C 0.11808 0.93138 0.57919 0.0
O150 O 0.07284 1.03359 0.63345 0.0
O151 O 0.06965 0.94299 0.60693 0.0
O152 O 0.08828 0.80478 0.62698 0.0
O153 O 0.11523 0.84089 0.62504 0.0
O154 O 0.10382 0.96989 0.58911 0.0
O155 O 0.13221 0.89513 0.5899 0.0
C156 C 0.17406 0.86859 0.62022 0.0
O157 O 0.16663 0.93842 0.61071 0.0
O158 O 0.16162 0.82728 0.63182 0.0
C159 C 0.12767 0.09091 0.62907 0.0
Tb160 Tb 0.59731 0.61494 0.12225 0.0
C161 C 0.61816 0.63979 0.07817 0.0
Tb162 Tb 0.63994 0.64466 0.12279 0.0
O163 O 0.58886 0.7599 0.12468 0.0
O164 O 0.61595 0.72423 0.12411 0.0
O165 O 0.60373 0.60223 0.08795 0.0
C166 C 0.6749 0.70067 0.11885 0.0
O167 O 0.63267 0.67219 0.08889 0.0
C168 C 0.62913 0.4734 0.12721 0.0
C169 C 0.61946 0.61014 0.16636 0.0
O170 O 0.66766 0.6311 0.10905 0.0
O171 O 0.66235 0.7396 0.13081 0.0
O172 O 0.64436 0.50637 0.135 0.0
O173 O 0.62143 0.53415 0.11579 0.0
O174 O 0.63322 0.65577 0.15716 0.0
O175 O 0.60551 0.57601 0.15499 0.0
C176 C 0.56247 0.55417 0.12297 0.0
O177 O 0.57293 0.56641 0.13982 0.0
O178 O 0.57185 0.57335 0.10562 0.0
C179 C 0.60547 0.79213 0.12517 0.0
Tb180 Tb 0.38755 0.46127 0.11935 0.0
C181 C 0.36663 0.44647 0.07572 0.0
Tb182 Tb 0.34495 0.43705 0.12029 0.0
O183 O 0.39031 0.32554 0.1053 0.0
O184 O 0.36853 0.35269 0.12627 0.0
O185 O 0.38108 0.48389 0.08546 0.0
C186 C 0.31063 0.36927 0.11927 0.0
O187 O 0.35261 0.40982 0.08653 0.0
C188 C 0.35333 0.61237 0.11779 0.0
C189 C 0.36527 0.48437 0.1639 0.0
O190 O 0.31816 0.41962 0.10448 0.0
O191 O 0.32258 0.35535 0.13466 0.0
O192 O 0.33661 0.58123 0.11884 0.0
O193 O 0.36397 0.54452 0.11845 0.0
O194 O 0.34984 0.45306 0.15491 0.0
O195 O 0.38081 0.49807 0.15284 0.0
C196 C 0.42359 0.49488 0.12399 0.0
O197 O 0.41469 0.42711 0.13246 0.0
O198 O 0.41207 0.54573 0.11315 0.0
C199 C 0.37545 0.29292 0.11394 0.0
Tb200 Tb 0.59788 0.45345 0.37076 0.0
C201 C 0.61888 0.4198 0.4148 0.0
Tb202 Tb 0.64066 0.42694 0.36959 0.0
O203 O 0.58994 0.3084 0.36883 0.0
O204 O 0.61699 0.346 0.36869 0.0
O205 O 0.60305 0.44347 0.40541 0.0
C206 C 0.67568 0.37024 0.37172 0.0
O207 O 0.63455 0.4052 0.40399 0.0
C208 C 0.62935 0.59686 0.36519 0.0
C209 C 0.61956 0.46175 0.32639 0.0
O210 O 0.66903 0.44214 0.38119 0.0
O211 O 0.6625 0.32916 0.36126 0.0
O212 O 0.64458 0.56453 0.3572 0.0
O213 O 0.62184 0.53605 0.37679 0.0
O214 O 0.63351 0.41652 0.33535 0.0
O215 O 0.60567 0.49499 0.33803 0.0
C216 C 0.56261 0.50789 0.36955 0.0
O217 O 0.57103 0.4604 0.35486 0.0
O218 O 0.57429 0.52812 0.38487 0.0
C219 C 0.60666 0.27755 0.36787 0.0
Tb220 Tb 0.38883 0.64094 0.36847 0.0
C221 C 0.36758 0.67419 0.41233 0.0
Tb222 Tb 0.3461 0.66692 0.36692 0.0
O223 O 0.39678 0.78594 0.36683 0.0
O224 O 0.36971 0.74841 0.36645 0.0
O225 O 0.38347 0.65056 0.40309 0.0
C226 C 0.31083 0.71949 0.36954 0.0
O227 O 0.35201 0.68896 0.40136 0.0
C228 C 0.3576 0.49739 0.36226 0.0
C229 C 0.36748 0.63604 0.32384 0.0
O230 O 0.31792 0.6481 0.37875 0.0
O231 O 0.3237 0.76248 0.35899 0.0
O232 O 0.34249 0.52991 0.35399 0.0
O233 O 0.36491 0.55783 0.37413 0.0
O234 O 0.35349 0.68083 0.33283 0.0
O235 O 0.38123 0.60135 0.33549 0.0
C236 C 0.42409 0.58593 0.36783 0.0
O237 O 0.41591 0.63425 0.35309 0.0
O238 O 0.41216 0.56522 0.38284 0.0
C239 C 0.38007 0.81681 0.3658 0.0
Tb240 Tb 0.34398 0.4488 0.86742 0.0
C241 C 0.36472 0.48682 0.82417 0.0
Tb242 Tb 0.38667 0.47793 0.8683 0.0
O243 O 0.33954 0.58724 0.8555 0.0
O244 O 0.36253 0.55903 0.87468 0.0
O245 O 0.35097 0.43997 0.83305 0.0
C246 C 0.42175 0.53559 0.86694 0.0
O247 O 0.3785 0.52066 0.83584 0.0
C248 C 0.37833 0.30099 0.8655 0.0
C249 C 0.36577 0.45034 0.91232 0.0
O250 O 0.41202 0.50898 0.85046 0.0
O251 O 0.41148 0.53286 0.88423 0.0
O252 O 0.39497 0.33265 0.86635 0.0
O253 O 0.36793 0.36923 0.8663 0.0
O254 O 0.38062 0.4848 0.90275 0.0
O255 O 0.35091 0.42214 0.90152 0.0
C256 C 0.30896 0.39214 0.87028 0.0
O257 O 0.31579 0.46355 0.87974 0.0
O258 O 0.32197 0.35148 0.85938 0.0
C259 C 0.35474 0.62005 0.86339 0.0
Tb260 Tb 0.63974 0.64235 0.87015 0.0
C261 C 0.6192 0.59237 0.82685 0.0
Tb262 Tb 0.59699 0.61825 0.87135 0.0
O263 O 0.64788 0.49786 0.87159 0.0
O264 O 0.62059 0.53536 0.87215 0.0
O265 O 0.63466 0.62441 0.83562 0.0
C266 C 0.56088 0.58539 0.86704 0.0
O267 O 0.6037 0.57904 0.83802 0.0
C268 C 0.60921 0.78657 0.87659 0.0
C269 C 0.61823 0.63394 0.91483 0.0
O270 O 0.56996 0.65055 0.85767 0.0
O271 O 0.57229 0.53654 0.87856 0.0
O272 O 0.59428 0.75443 0.88516 0.0
O273 O 0.61605 0.72635 0.86431 0.0
O274 O 0.60373 0.59642 0.90519 0.0
O275 O 0.6323 0.66991 0.90396 0.0
C276 C 0.67429 0.70744 0.8703 0.0
O277 O 0.66747 0.64979 0.884 0.0
O278 O 0.66147 0.73056 0.85656 0.0
C279 C 0.63114 0.46719 0.87277 0.0
Tb280 Tb 0.3452 0.66915 0.62064 0.0
C281 C 0.36651 0.63818 0.66428 0.0
Tb282 Tb 0.38768 0.64011 0.61951 0.0
O283 O 0.34121 0.53148 0.63295 0.0
O284 O 0.36372 0.55883 0.61291 0.0
O285 O 0.35218 0.67951 0.65499 0.0
C286 C 0.42272 0.58565 0.61608 0.0
O287 O 0.38095 0.60786 0.65308 0.0
C288 C 0.37934 0.81647 0.62437 0.0
C289 C 0.36621 0.66699 0.57585 0.0
O290 O 0.41101 0.55552 0.63042 0.0
O291 O 0.41446 0.64352 0.6035 0.0
O292 O 0.39595 0.7841 0.62433 0.0
O293 O 0.36894 0.74879 0.62242 0.0
O294 O 0.38037 0.62601 0.58542 0.0
O295 O 0.35202 0.7009 0.58688 0.0
C296 C 0.31011 0.72309 0.61763 0.0
O297 O 0.31741 0.65502 0.60727 0.0
O298 O 0.32266 0.76186 0.62956 0.0
C299 C 0.35624 0.49848 0.62466 0.0
Tb300 Tb 0.63838 0.42199 0.62365 0.0
C301 C 0.61622 0.44532 0.66684 0.0
Tb302 Tb 0.59593 0.44973 0.62147 0.0
O303 O 0.64155 0.55827 0.63713 0.0
O304 O 0.61985 0.53216 0.61579 0.0
O305 O 0.63077 0.40559 0.65764 0.0
C306 C 0.56095 0.50438 0.61746 0.0
O307 O 0.60205 0.4777 0.65547 0.0
C308 C 0.60429 0.27348 0.62592 0.0
C309 C 0.61822 0.42556 0.57831 0.0
O310 O 0.57249 0.5344 0.63201 0.0
O311 O 0.56934 0.44648 0.60501 0.0
O312 O 0.58766 0.30556 0.62552 0.0
O313 O 0.61472 0.34128 0.62443 0.0
O314 O 0.6038 0.46541 0.58761 0.0
O315 O 0.63227 0.39189 0.58962 0.0
C316 C 0.6739 0.37529 0.62071 0.0
O317 O 0.66628 0.4454 0.61155 0.0
O318 O 0.66142 0.33009 0.63139 0.0
C319 C 0.62685 0.59172 0.62816 0.0
C320 C 0.20128 0.31112 0.13021 0.0
C321 C 0.19493 0.23206 0.11993 0.0
C322 C 0.22019 0.33274 0.13044 0.0
C323 C 0.23302 0.27369 0.1202 0.0
C324 C 0.22662 0.19384 0.10977 0.0
C325 C 0.20766 0.17409 0.10974 0.0
C326 C 0.22645 0.41878 0.14162 0.0
C327 C 0.23982 0.12918 0.09865 0.0
C328 C 0.27933 0.36998 0.10252 0.0
C329 C 0.29104 0.34095 0.11927 0.0
C330 C 0.26045 0.34864 0.10265 0.0
C331 C 0.25309 0.29646 0.11991 0.0
C332 C 0.26493 0.26586 0.13675 0.0
C333 C 0.28379 0.28874 0.13626 0.0
C334 C 0.24833 0.38274 0.08441 0.0
C335 C 0.25763 0.2095 0.15534 0.0
H336 H 0.19146 0.35594 0.13813 0.0
H337 H 0.20279 0.11272 0.10183 0.0
H338 H 0.23653 0.402 0.1546 0.0
H339 H 0.2336 0.46367 0.12984 0.0
H340 H 0.21477 0.45712 0.14894 0.0
H341 H 0.23266 0.06932 0.09156 0.0
H342 H 0.24729 0.16516 0.08549 0.0
H343 H 0.25033 0.10464 0.11039 0.0
H344 H 0.28489 0.41064 0.08938 0.0
H345 H 0.29282 0.26637 0.14925 0.0
H346 H 0.23717 0.42651 0.09104 0.0
H347 H 0.24161 0.32451 0.07611 0.0
H348 H 0.2562 0.42249 0.07219 0.0
H349 H 0.24682 0.24815 0.16419 0.0
H350 H 0.26866 0.19005 0.167 0.0
H351 H 0.25109 0.1466 0.14902 0.0
C352 C 0.7785 0.88041 0.1014 0.0
C353 C 0.79073 0.83583 0.1155 0.0
C354 C 0.75957 0.85944 0.10131 0.0
C355 C 0.75269 0.79276 0.1158 0.0
C356 C 0.76505 0.74696 0.12994 0.0
C357 C 0.78395 0.7688 0.12955 0.0
C358 C 0.74691 0.90912 0.08583 0.0
C359 C 0.75827 0.67571 0.14568 0.0
C360 C 0.70155 0.79752 0.13046 0.0
C361 C 0.69457 0.72708 0.11752 0.0
C362 C 0.72043 0.81993 0.13 0.0
C363 C 0.73256 0.77099 0.11619 0.0
C364 C 0.72547 0.70071 0.10285 0.0
C365 C 0.70658 0.67946 0.10373 0.0
C366 C 0.72744 0.89518 0.1445 0.0
C367 C 0.73788 0.64741 0.08777 0.0
H368 H 0.78371 0.93228 0.09051 0.0
H369 H 0.79337 0.73442 0.14051 0.0
H370 H 0.73955 0.85957 0.07536 0.0
H371 H 0.73628 0.94732 0.09507 0.0
H372 H 0.75449 0.95769 0.07528 0.0
H373 H 0.76965 0.64607 0.15551 0.0
H374 H 0.74792 0.70612 0.15683 0.0
H375 H 0.75129 0.61995 0.13673 0.0
H376 H 0.6923 0.83437 0.14116 0.0
H377 H 0.70122 0.62497 0.09368 0.0
H378 H 0.73423 0.94856 0.1346 0.0
H379 H 0.73799 0.86779 0.15583 0.0
H380 H 0.71621 0.92723 0.15414 0.0
H381 H 0.74503 0.69437 0.07646 0.0
H382 H 0.73015 0.59627 0.0781 0.0
H383 H 0.7487 0.61163 0.09727 0.0
C384 C 0.27863 0.69065 0.38201 0.0
C385 C 0.29102 0.74385 0.37002 0.0
C386 C 0.25967 0.71074 0.38226 0.0
C387 C 0.25293 0.78578 0.37019 0.0
C388 C 0.26542 0.83978 0.35804 0.0
C389 C 0.28435 0.81821 0.35813 0.0
C390 C 0.24685 0.65186 0.39553 0.0
C391 C 0.25877 0.92039 0.34497 0.0
C392 C 0.20165 0.79494 0.35633 0.0
C393 C 0.19502 0.85545 0.37209 0.0
C394 C 0.22048 0.77139 0.3555 0.0
C395 C 0.2329 0.80934 0.37082 0.0
C396 C 0.22618 0.86973 0.3869 0.0
C397 C 0.20733 0.892 0.38733 0.0
C398 C 0.22713 0.70657 0.33816 0.0
C399 C 0.23892 0.91139 0.40357 0.0
H400 H 0.28376 0.63297 0.3912 0.0
H401 H 0.29391 0.85926 0.3488 0.0
H402 H 0.23982 0.6938 0.40803 0.0
H403 H 0.23597 0.62259 0.38496 0.0
H404 H 0.25425 0.59525 0.40377 0.0
H405 H 0.27018 0.95445 0.33609 0.0
H406 H 0.2482 0.8982 0.33306 0.0
H407 H 0.25211 0.97089 0.35585 0.0
H408 H 0.19215 0.76678 0.3445 0.0
H409 H 0.20225 0.93894 0.39954 0.0
H410 H 0.23385 0.64656 0.34575 0.0
H411 H 0.23766 0.74046 0.32789 0.0
H412 H 0.21571 0.68252 0.32757 0.0
H413 H 0.24593 0.85695 0.41297 0.0
H414 H 0.23147 0.95665 0.41509 0.0
H415 H 0.24982 0.95156 0.39534 0.0
C416 C 0.77871 0.18543 0.38599 0.0
C417 C 0.79084 0.22149 0.3705 0.0
C418 C 0.75998 0.20997 0.38624 0.0
C419 C 0.75319 0.27214 0.3706 0.0
C420 C 0.76543 0.30952 0.35502 0.0
C421 C 0.78416 0.28372 0.35516 0.0
C422 C 0.74744 0.16882 0.40317 0.0
C423 C 0.75871 0.37611 0.3381 0.0
C424 C 0.70147 0.26931 0.3594 0.0
C425 C 0.69537 0.34373 0.3717 0.0
C426 C 0.7203 0.2458 0.35869 0.0
C427 C 0.73326 0.29783 0.37064 0.0
C428 C 0.72711 0.37288 0.38314 0.0
C429 C 0.70823 0.39498 0.38349 0.0
C430 C 0.72631 0.16527 0.34518 0.0
C431 C 0.74046 0.42966 0.39621 0.0
H432 H 0.78384 0.13721 0.39789 0.0
H433 H 0.79352 0.31154 0.34315 0.0
H434 H 0.74088 0.2235 0.41294 0.0
H435 H 0.73617 0.13028 0.39516 0.0
H436 H 0.75493 0.12216 0.41432 0.0
H437 H 0.76999 0.39955 0.32726 0.0
H438 H 0.7478 0.34403 0.32804 0.0
H439 H 0.75243 0.43637 0.3461 0.0
H440 H 0.69155 0.22979 0.35021 0.0
H441 H 0.70355 0.4527 0.39299 0.0
H442 H 0.733 0.11351 0.3557 0.0
H443 H 0.7367 0.18704 0.33302 0.0
H444 H 0.71456 0.13284 0.33655 0.0
H445 H 0.7476 0.38628 0.40835 0.0
H446 H 0.73348 0.48649 0.40486 0.0
H447 H 0.75122 0.45848 0.38541 0.0
C448 C 0.70019 0.80104 0.85507 0.0
C449 C 0.69396 0.73433 0.86955 0.0
C450 C 0.71902 0.82462 0.85413 0.0
C451 C 0.73187 0.77948 0.86781 0.0
C452 C 0.72558 0.71153 0.88231 0.0
C453 C 0.70671 0.69029 0.8831 0.0
C454 C 0.72514 0.89833 0.83868 0.0
C455 C 0.7388 0.66123 0.89704 0.0
C456 C 0.78326 0.78422 0.85414 0.0
C457 C 0.78975 0.85002 0.86871 0.0
C458 C 0.76442 0.76083 0.85353 0.0
C459 C 0.7518 0.80525 0.86762 0.0
C460 C 0.75834 0.87231 0.88222 0.0
C461 C 0.77723 0.89336 0.88268 0.0
C462 C 0.75802 0.68808 0.83796 0.0
C463 C 0.74538 0.92182 0.8974 0.0
H464 H 0.69035 0.83505 0.84455 0.0
H465 H 0.70196 0.63822 0.89423 0.0
H466 H 0.73162 0.95478 0.8479 0.0
H467 H 0.73574 0.87119 0.82739 0.0
H468 H 0.71349 0.92628 0.82901 0.0
H469 H 0.73179 0.60791 0.9068 0.0
H470 H 0.74987 0.62865 0.88729 0.0
H471 H 0.74555 0.70984 0.9083 0.0
H472 H 0.79292 0.75076 0.8433 0.0
H473 H 0.78219 0.94475 0.89388 0.0
H474 H 0.74724 0.7159 0.82701 0.0
H475 H 0.7517 0.63107 0.84712 0.0
H476 H 0.76951 0.66071 0.82793 0.0
H477 H 0.73415 0.95494 0.88801 0.0
H478 H 0.75256 0.9746 0.90717 0.0
H479 H 0.73882 0.87261 0.90865 0.0
C480 C 0.28311 0.28747 0.85997 0.0
C481 C 0.28924 0.36572 0.87078 0.0
C482 C 0.26429 0.2637 0.85989 0.0
C483 C 0.25131 0.31978 0.8708 0.0
C484 C 0.25749 0.39884 0.88176 0.0
C485 C 0.27637 0.42068 0.88166 0.0
C486 C 0.25829 0.17851 0.84816 0.0
C487 C 0.24414 0.4605 0.89357 0.0
C488 C 0.2004 0.30185 0.85531 0.0
C489 C 0.19349 0.24695 0.87202 0.0
C490 C 0.21918 0.3265 0.85473 0.0
C491 C 0.23131 0.29489 0.87118 0.0
C492 C 0.22431 0.2398 0.88813 0.0
C493 C 0.20549 0.21683 0.88838 0.0
C494 C 0.22606 0.38597 0.83648 0.0
C495 C 0.23674 0.20438 0.90593 0.0
H496 H 0.29302 0.24489 0.85153 0.0
H497 H 0.28106 0.48142 0.88999 0.0
H498 H 0.25144 0.13139 0.85969 0.0
H499 H 0.24803 0.19591 0.83543 0.0
H500 H 0.27006 0.14235 0.84042 0.0
H501 H 0.25112 0.5201 0.90103 0.0
H502 H 0.23341 0.48553 0.88218 0.0
H503 H 0.23697 0.42193 0.90654 0.0
H504 H 0.19116 0.32513 0.84262 0.0
H505 H 0.20021 0.17406 0.9013 0.0
H506 H 0.23695 0.34962 0.82722 0.0
H507 H 0.2324 0.44868 0.84319 0.0
H508 H 0.21485 0.4058 0.82511 0.0
H509 H 0.24802 0.1628 0.89882 0.0
H510 H 0.22916 0.16207 0.91791 0.0
H511 H 0.24328 0.2621 0.91462 0.0
C512 C 0.70591 0.4143 0.60942 0.0
C513 C 0.69385 0.35474 0.62009 0.0
C514 C 0.72501 0.39801 0.6091 0.0
C515 C 0.73219 0.31997 0.61963 0.0
C516 C 0.72004 0.2594 0.6304 0.0
C517 C 0.70097 0.27765 0.63054 0.0
C518 C 0.73749 0.46421 0.59746 0.0
C519 C 0.72717 0.17516 0.64169 0.0
C520 C 0.77864 0.22867 0.60106 0.0
C521 C 0.79044 0.25986 0.61748 0.0
C522 C 0.75968 0.24812 0.60153 0.0
C523 C 0.75235 0.3004 0.61882 0.0
C524 C 0.76429 0.33369 0.63523 0.0
C525 C 0.78323 0.31283 0.63439 0.0
C526 C 0.74744 0.21149 0.58371 0.0
C527 C 0.75699 0.39026 0.65382 0.0
H528 H 0.70043 0.47419 0.60138 0.0
H529 H 0.69165 0.23165 0.63883 0.0
H530 H 0.74808 0.49083 0.60882 0.0
H531 H 0.74492 0.42885 0.58414 0.0
H532 H 0.72976 0.52265 0.59046 0.0
H533 H 0.71594 0.13555 0.64952 0.0
H534 H 0.73435 0.13058 0.62983 0.0
H535 H 0.73742 0.19435 0.65426 0.0
H536 H 0.78418 0.18751 0.58798 0.0
H537 H 0.79235 0.33683 0.64711 0.0
H538 H 0.74009 0.26828 0.57554 0.0
H539 H 0.73679 0.16602 0.59074 0.0
H540 H 0.75535 0.17277 0.5713 0.0
H541 H 0.74975 0.45135 0.64747 0.0
H542 H 0.76814 0.4127 0.66499 0.0
H543 H 0.74675 0.35034 0.66322 0.0
C544 C 0.20557 0.89329 0.60523 0.0
C545 C 0.19382 0.84443 0.61901 0.0
C546 C 0.22456 0.87436 0.60447 0.0
C547 C 0.23196 0.80531 0.61795 0.0
C548 C 0.2201 0.75518 0.63178 0.0
C549 C 0.20112 0.77516 0.63208 0.0
C550 C 0.23671 0.92869 0.58936 0.0
C551 C 0.2275 0.68124 0.64643 0.0
C552 C 0.27832 0.70093 0.60313 0.0
C553 C 0.29033 0.74726 0.61713 0.0
C554 C 0.25931 0.71958 0.60313 0.0
C555 C 0.25214 0.78572 0.61758 0.0
C556 C 0.26425 0.83327 0.63163 0.0
C557 C 0.28325 0.81366 0.63117 0.0
C558 C 0.24687 0.6681 0.58776 0.0
C559 C 0.25712 0.90406 0.64731 0.0
H560 H 0.19993 0.94687 0.59509 0.0
H561 H 0.19203 0.73749 0.64278 0.0
H562 H 0.24734 0.96576 0.59885 0.0
H563 H 0.2441 0.8823 0.5781 0.0
H564 H 0.22873 0.97885 0.57964 0.0
H565 H 0.21644 0.64831 0.65613 0.0
H566 H 0.23458 0.62827 0.63663 0.0
H567 H 0.2379 0.71017 0.65771 0.0
H568 H 0.28378 0.64953 0.59224 0.0
H569 H 0.29253 0.84932 0.64205 0.0
H570 H 0.23927 0.71655 0.5772 0.0
H571 H 0.23644 0.62919 0.59709 0.0
H572 H 0.25467 0.61992 0.57729 0.0
H573 H 0.24987 0.95895 0.63832 0.0
H574 H 0.26835 0.93503 0.65712 0.0
H575 H 0.24693 0.87281 0.65849 0.0
C576 C 0.10873 0.07545 0.29519 0.0
C577 C 0.12086 1.01078 0.30406 0.0
C578 C 0.1091 0.09655 0.273 0.0
C579 C 0.12177 0.05113 0.25926 0.0
C580 C 0.13414 0.98613 0.26809 0.0
C581 C 0.13362 0.96713 0.29044 0.0
C582 C 0.09582 0.16697 0.26424 0.0
C583 C 0.14771 0.93563 0.25387 0.0
C584 C 0.10879 1.03911 0.19968 0.0
C585 C 0.11991 0.10739 0.19062 0.0
C586 C 0.10953 1.01912 0.22191 0.0
C587 C 0.12152 0.06934 0.23551 0.0
C588 C 0.13279 0.13841 0.22651 0.0
C589 C 0.13194 0.15625 0.20412 0.0
C590 C 0.09743 0.94431 0.23084 0.0
C591 C 0.14559 0.19405 0.24058 0.0
H592 H 0.09896 0.11037 0.30562 0.0
H593 H 0.14303 0.91705 0.29717 0.0
H594 H 0.10351 0.22117 0.25558 0.0
H595 H 0.08636 0.13496 0.25232 0.0
H596 H 0.0874 0.19899 0.27725 0.0
H597 H 0.15668 0.88869 0.26332 0.0
H598 H 0.14013 0.8955 0.24149 0.0
H599 H 0.1566 0.98465 0.24505 0.0
H600 H 0.09961 1.0002 0.18934 0.0
H601 H 0.14057 0.20911 0.19724 0.0
H602 H 0.08767 0.9729 0.24294 0.0
H603 H 0.10602 0.89284 0.23934 0.0
H604 H 0.08935 0.90954 0.21796 0.0
H605 H 0.13749 0.23088 0.25311 0.0
H606 H 0.15361 0.2445 0.23104 0.0
H607 H 0.15539 0.14864 0.24922 0.0
C608 C 0.85123 0.10785 0.2876 0.0
C609 C 0.86432 0.06479 0.30091 0.0
C610 C 0.85048 0.08968 0.26521 0.0
C611 C 0.86297 1.02619 0.256 0.0
C612 C 0.87598 0.98138 0.26943 0.0
C613 C 0.87657 1.00158 0.29166 0.0
C614 C 0.83654 0.13953 0.25136 0.0
C615 C 0.88942 0.91261 0.26026 0.0
C616 C 0.8527 0.92241 0.20069 0.0
C617 C 0.86446 0.97279 0.18719 0.0
C618 C 0.85194 0.93943 0.22313 0.0
C619 C 0.86301 1.0092 0.23219 0.0
C620 C 0.87465 0.06122 0.21857 0.0
C621 C 0.87531 0.04207 0.19629 0.0
C622 C 0.83949 0.88198 0.23719 0.0
C623 C 0.88653 0.13685 0.22755 0.0
H624 H 0.84173 0.15681 0.2946 0.0
H625 H 0.8866 0.96713 0.30184 0.0
H626 H 0.8438 0.1811 0.239 0.0
H627 H 0.82776 0.09009 0.24252 0.0
H628 H 0.82749 0.18503 0.26109 0.0
H629 H 0.89811 0.88075 0.27305 0.0
H630 H 0.88182 0.85814 0.25156 0.0
H631 H 0.89862 0.94607 0.24829 0.0
H632 H 0.84428 0.86879 0.19378 0.0
H633 H 0.88428 0.08217 0.18597 0.0
H634 H 0.82968 0.92608 0.2462 0.0
H635 H 0.84786 0.84486 0.24942 0.0
H636 H 0.83148 0.83163 0.2276 0.0
H637 H 0.87783 0.18685 0.23638 0.0
H638 H 0.89427 0.17326 0.21465 0.0
H639 H 0.89659 0.10862 0.23936 0.0
C640 C 0.85158 0.15711 0.70068 0.0
C641 C 0.86411 0.1097 0.68749 0.0
C642 C 0.85087 0.14129 0.72316 0.0
C643 C 0.8627 0.07521 0.73254 0.0
C644 C 0.87521 1.02642 0.71924 0.0
C645 C 0.87587 0.04484 0.69693 0.0
C646 C 0.83758 0.19573 0.7369 0.0
C647 C 0.88782 0.95429 0.72855 0.0
C648 C 0.87471 0.08155 0.79252 0.0
C649 C 0.8628 1.01536 0.80102 0.0
C650 C 0.87442 0.10368 0.77037 0.0
C651 C 0.86218 0.05716 0.7563 0.0
C652 C 0.85004 0.99065 0.76481 0.0
C653 C 0.85036 0.97121 0.78713 0.0
C654 C 0.88733 0.17623 0.76198 0.0
C655 C 0.83703 0.93845 0.75026 0.0
H656 H 0.84251 0.20755 0.69347 0.0
H657 H 0.88543 1.00707 0.68679 0.0
H658 H 0.82785 0.14939 0.74532 0.0
H659 H 0.84528 0.23338 0.74962 0.0
H660 H 0.82946 0.2453 0.72715 0.0
H661 H 0.89637 0.92069 0.71588 0.0
H662 H 0.89717 0.98503 0.74078 0.0
H663 H 0.87955 0.90151 0.73697 0.0
H664 H 0.88419 0.11675 0.80324 0.0
H665 H 0.84118 0.91976 0.79361 0.0
H666 H 0.87942 0.22883 0.75297 0.0
H667 H 0.89734 0.14567 0.75045 0.0
H668 H 0.89515 0.20994 0.77525 0.0
H669 H 0.82799 0.98624 0.74122 0.0
H670 H 0.8282 0.89033 0.75949 0.0
H671 H 0.84507 0.89932 0.73808 0.0
C672 C 0.13354 0.10517 0.79021 0.0
C673 C 0.12074 0.06569 0.80444 0.0
C674 C 0.13363 0.08266 0.76804 0.0
C675 C 0.12082 1.01805 0.76003 0.0
C676 C 0.10824 0.97609 0.77445 0.0
C677 C 0.10825 1.00093 0.79643 0.0
C678 C 0.14709 0.12977 0.7531 0.0
C679 C 0.09456 0.90591 0.7666 0.0
C680 C 0.10689 1.02902 0.70072 0.0
C681 C 0.11792 0.9606 0.69147 0.0
C682 C 0.10784 0.04873 0.72295 0.0
C683 C 0.1199 0.99786 0.73639 0.0
C684 C 0.13089 0.92779 0.72724 0.0
C685 C 0.12989 0.91051 0.70482 0.0
C686 C 0.09608 0.12481 0.73202 0.0
C687 C 0.14368 0.87115 0.74113 0.0
H688 H 0.1432 0.15535 0.79629 0.0
H689 H 0.09848 0.96916 0.80738 0.0
H690 H 0.15549 0.07871 0.74421 0.0
H691 H 0.13941 0.16998 0.7408 0.0
H692 H 0.15655 0.17616 0.76199 0.0
H693 H 0.08653 0.8754 0.78012 0.0
H694 H 0.08475 0.93775 0.75501 0.0
H695 H 0.10185 0.85061 0.75779 0.0
H696 H 0.09777 0.06888 0.69049 0.0
H697 H 0.13842 0.85746 0.69778 0.0
H698 H 0.10499 0.17655 0.7399 0.0
H699 H 0.08665 0.0978 0.74465 0.0
H700 H 0.08766 0.15889 0.71931 0.0
H701 H 0.15407 0.91555 0.74904 0.0
H702 H 0.15103 0.81811 0.7316 0.0
H703 H 0.13572 0.83742 0.75425 0.0
C704 C 0.60779 0.54639 0.294 0.0
C705 C 0.62015 0.48271 0.30286 0.0
C706 C 0.60836 0.56929 0.27192 0.0
C707 C 0.62152 0.52699 0.25825 0.0
C708 C 0.63409 0.46281 0.26704 0.0
C709 C 0.6333 0.44169 0.28927 0.0
C710 C 0.59479 0.63842 0.26319 0.0
C711 C 0.64821 0.41574 0.2529 0.0
C712 C 0.6095 0.51857 0.19837 0.0
C713 C 0.62023 0.58965 0.18988 0.0
C714 C 0.6101 0.49645 0.22048 0.0
C715 C 0.62155 0.54729 0.23458 0.0
C716 C 0.63248 0.61897 0.22616 0.0
C717 C 0.63179 0.63892 0.20384 0.0
C718 C 0.59839 0.41887 0.22877 0.0
C719 C 0.64471 0.67524 0.24076 0.0
H720 H 0.59768 0.57925 0.30436 0.0
H721 H 0.64293 0.39255 0.29596 0.0
H722 H 0.60229 0.69471 0.25507 0.0
H723 H 0.58579 0.60616 0.25082 0.0
H724 H 0.5859 0.66772 0.27613 0.0
H725 H 0.65726 0.36905 0.26232 0.0
H726 H 0.64112 0.37594 0.24007 0.0
H727 H 0.65699 0.46693 0.24464 0.0
H728 H 0.60071 0.47921 0.18766 0.0
H729 H 0.64012 0.69386 0.19739 0.0
H730 H 0.58823 0.44476 0.24076 0.0
H731 H 0.60719 0.36812 0.23722 0.0
H732 H 0.59077 0.38388 0.21553 0.0
H733 H 0.63619 0.70996 0.25325 0.0
H734 H 0.6526 0.72752 0.23163 0.0
H735 H 0.65462 0.63054 0.24945 0.0
C736 C 0.35592 0.66868 0.28624 0.0
C737 C 0.367 0.61681 0.30024 0.0
C738 C 0.35519 0.64936 0.2639 0.0
C739 C 0.36555 0.57545 0.25547 0.0
C740 C 0.37662 0.5224 0.26958 0.0
C741 C 0.37733 0.54415 0.29174 0.0
C742 C 0.34344 0.70828 0.2493 0.0
C743 C 0.38765 0.44222 0.2613 0.0
C744 C 0.35171 0.4718 0.20124 0.0
C745 C 0.36511 0.50811 0.18728 0.0
C746 C 0.35162 0.49345 0.22347 0.0
C747 C 0.36505 0.55402 0.23184 0.0
C748 C 0.3784 0.59209 0.21775 0.0
C749 C 0.37836 0.56814 0.1957 0.0
C750 C 0.33733 0.4504 0.23805 0.0
C751 C 0.39279 0.6579 0.22599 0.0
H752 H 0.34793 0.72499 0.2927 0.0
H753 H 0.38575 0.50294 0.30249 0.0
H754 H 0.35214 0.73927 0.23647 0.0
H755 H 0.33286 0.66609 0.24105 0.0
H756 H 0.33634 0.76361 0.25836 0.0
H757 H 0.3952 0.40645 0.2745 0.0
H758 H 0.37836 0.39284 0.25318 0.0
H759 H 0.39781 0.46542 0.24903 0.0
H760 H 0.34146 0.42519 0.19487 0.0
H761 H 0.38863 0.5974 0.18499 0.0
H762 H 0.32916 0.50396 0.24637 0.0
H763 H 0.34428 0.40956 0.25083 0.0
H764 H 0.32772 0.40546 0.22897 0.0
H765 H 0.386 0.7163 0.23419 0.0
H766 H 0.4017 0.68444 0.21276 0.0
H767 H 0.4017 0.6238 0.23819 0.0
C768 C 0.37529 0.57914 0.79254 0.0
C769 C 0.36414 0.50893 0.80071 0.0
C770 C 0.375 0.60235 0.77048 0.0
C771 C 0.36343 0.5536 0.7561 0.0
C772 C 0.35204 0.48302 0.76421 0.0
C773 C 0.35244 0.46185 0.78648 0.0
C774 C 0.38721 0.67867 0.76253 0.0
C775 C 0.33964 0.42902 0.74932 0.0
C776 C 0.35277 0.66124 0.70131 0.0
C777 C 0.36583 0.61863 0.68788 0.0
C778 C 0.35172 0.64035 0.72354 0.0
C779 C 0.36386 0.57456 0.73247 0.0
C780 C 0.37695 0.53085 0.71896 0.0
C781 C 0.37785 0.55375 0.69689 0.0
C782 C 0.33772 0.68916 0.73751 0.0
C783 C 0.39006 0.45982 0.72782 0.0
H784 H 0.3842 0.61684 0.80343 0.0
H785 H 0.34379 0.40763 0.79267 0.0
H786 H 0.39741 0.65179 0.75072 0.0
H787 H 0.37879 0.73066 0.75397 0.0
H788 H 0.39481 0.71242 0.77597 0.0
H789 H 0.33132 0.37771 0.75823 0.0
H790 H 0.33012 0.47541 0.74053 0.0
H791 H 0.3481 0.39337 0.73692 0.0
H792 H 0.34342 0.71134 0.69448 0.0
H793 H 0.38784 0.51953 0.68663 0.0
H794 H 0.34488 0.72725 0.75059 0.0
H795 H 0.32849 0.63909 0.74548 0.0
H796 H 0.32912 0.73768 0.72804 0.0
H797 H 0.39902 0.49051 0.74045 0.0
H798 H 0.399 0.42995 0.715 0.0
H799 H 0.38215 0.40414 0.73565 0.0
C800 C 0.6065 0.50375 0.79563 0.0
C801 C 0.61926 0.56732 0.80357 0.0
C802 C 0.60626 0.47913 0.77363 0.0
C803 C 0.61888 0.52027 0.75911 0.0
C804 C 0.63188 0.58418 0.76704 0.0
C805 C 0.63203 0.60631 0.78923 0.0
C806 C 0.59241 0.40957 0.76589 0.0
C807 C 0.64536 0.63056 0.75199 0.0
C808 C 0.62818 0.41079 0.70418 0.0
C809 C 0.61641 0.46097 0.69059 0.0
C810 C 0.62897 0.42848 0.72658 0.0
C811 C 0.61799 0.49909 0.7355 0.0
C812 C 0.6061 0.54989 0.72185 0.0
C813 C 0.60534 0.52974 0.69962 0.0
C814 C 0.64159 0.37184 0.7407 0.0
C815 C 0.59437 0.62658 0.73067 0.0
H816 H 0.59675 0.47239 0.80669 0.0
H817 H 0.64189 0.65564 0.79526 0.0
H818 H 0.58276 0.44144 0.75413 0.0
H819 H 0.59959 0.35331 0.7573 0.0
H820 H 0.58422 0.38034 0.77944 0.0
H821 H 0.65478 0.67755 0.76076 0.0
H822 H 0.65381 0.57902 0.74333 0.0
H823 H 0.63771 0.66993 0.73951 0.0
H824 H 0.63674 0.35745 0.69731 0.0
H825 H 0.59637 0.56964 0.68921 0.0
H826 H 0.63353 0.33937 0.7539 0.0
H827 H 0.65208 0.41606 0.74848 0.0
H828 H 0.64883 0.31781 0.73136 0.0
H829 H 0.5849 0.6004 0.74337 0.0
H830 H 0.58599 0.66015 0.71785 0.0
H831 H 0.6033 0.67856 0.73842 0.0
C832 C 0.1107 0.07371 0.95141 0.0
C833 C 0.11734 0.1463 0.93894 0.0
C834 C 0.1109 0.07779 0.97417 0.0
C835 C 0.11734 0.15756 0.98463 0.0
C836 C 0.12367 0.23189 0.97204 0.0
C837 C 0.12387 0.22478 0.94932 0.0
C838 C 0.10449 0.99619 0.98702 0.0
C839 C 0.13014 0.31903 0.98257 0.0
C840 C 0.10196 0.18979 0.0431 0.0
C841 C 0.11786 0.16408 0.05453 0.0
C842 C 0.10177 0.1907 0.02031 0.0
C843 C 0.11768 0.16251 0.00874 0.0
C844 C 0.1338 0.13668 0.02025 0.0
C845 C 0.13377 0.13905 0.04302 0.0
C846 C 0.0845 0.22118 0.00861 0.0
C847 C 0.15089 0.10403 0.00853 0.0
H848 H 0.10578 1.01277 0.94335 0.0
H849 H 0.12882 0.28134 0.93964 0.0
H850 H 0.11572 0.9726 -0.00207 0.0
H851 H 0.0926 1.01521 -0.00258 0.0
H852 H 0.1003 0.93865 0.97641 0.0
H853 H 0.13381 0.37197 0.97045 0.0
H854 H 0.11917 0.3464 0.99335 0.0
H855 H 0.14241 0.30535 0.99286 0.0
H856 H 0.08968 0.2098 0.05198 0.0
H857 H 0.14603 0.11824 0.05184 0.0
H858 H 0.07867 0.16365 -0.00081 0.0
H859 H 0.08787 0.27599 -0.00313 0.0
H860 H 0.07375 0.24665 0.01995 0.0
H861 H 0.14753 0.04303 -0.00134 0.0
H862 H 0.16227 0.08636 0.01988 0.0
H863 H 0.15587 0.15725 -0.0028 0.0
C864 C 0.88266 0.91029 0.94677 0.0
C865 C 0.86667 0.93921 0.936 0.0
C866 C 0.88294 0.90178 0.96947 0.0
C867 C 0.86708 0.92642 0.98162 0.0
C868 C 0.85096 0.95664 0.97072 0.0
C869 C 0.85084 0.96087 0.94796 0.0
C870 C 0.90015 0.86622 0.98042 0.0
C871 C 0.83402 0.98668 0.98311 0.0
C872 C 0.86089 0.84695 0.03994 0.0
C873 C 0.86803 0.92102 0.05149 0.0
C874 C 0.86093 0.84661 0.01713 0.0
C875 C 0.86757 0.92379 0.00575 0.0
C876 C 0.8745 0.99934 0.01746 0.0
C877 C 0.87498 0.99624 0.0402 0.0
C878 C 0.85404 0.76353 0.0052 0.0
C879 C 0.8811 0.08416 0.006 0.0
H880 H 0.89481 0.89254 0.93738 0.0
H881 H 0.83853 0.98364 0.93952 0.0
H882 H 0.90623 0.91994 0.99085 0.0
H883 H 0.89664 0.80794 0.99111 0.0
H884 H 0.91077 0.84375 0.96855 0.0
H885 H 0.82274 1.00983 0.97219 0.0
H886 H 0.82878 0.92998 0.99325 0.0
H887 H 0.83765 0.04331 0.99424 0.0
H888 H 0.85562 0.78864 0.04876 0.0
H889 H 0.8803 0.05393 0.04922 0.0
H890 H 0.8648 0.73866 0.99382 0.0
H891 H 0.84173 0.78133 -0.00463 0.0
H892 H 0.85031 0.70734 0.01644 0.0
H893 H 0.89295 0.06761 -0.0047 0.0
H894 H 0.88543 0.13819 0.01754 0.0
H895 H 0.86993 0.11157 -0.00448 0.0
C896 C 0.13532 0.97787 0.45157 0.0
C897 C 0.11933 0.95686 0.43982 0.0
C898 C 0.13542 0.97442 0.47434 0.0
C899 C 0.11934 0.94605 0.4855 0.0
C900 C 0.10324 0.92322 0.47362 0.0
C901 C 0.10333 0.9305 0.45091 0.0
C902 C 0.15265 1.00232 0.48644 0.0
C903 C 0.086 0.89011 0.4849 0.0
C904 C 0.12547 0.86081 0.54335 0.0
C905 C 0.11868 0.93464 0.55531 0.0
C906 C 0.1255 0.8629 0.52055 0.0
C907 C 0.11923 0.94204 0.50962 0.0
C908 C 0.11278 1.01757 0.52173 0.0
C909 C 0.11228 1.01228 0.54445 0.0
C910 C 0.13194 0.78002 0.50816 0.0
C911 C 0.10656 0.10428 0.51073 0.0
H912 H 0.14766 0.99874 0.44295 0.0
H913 H 0.09103 0.91322 0.44176 0.0
H914 H 0.14937 0.0585 0.49787 0.0
H915 H 0.1579 0.94451 0.49625 0.0
H916 H 0.16381 1.02519 0.47534 0.0
H917 H 0.07496 0.8709 0.47324 0.0
H918 H 0.0893 0.83014 0.49516 0.0
H919 H 0.08056 0.94392 0.4958 0.0
H920 H 0.1303 0.8006 0.55182 0.0
H921 H 0.10721 0.06978 0.55377 0.0
H922 H 0.14404 0.79748 0.49797 0.0
H923 H 0.12084 0.7565 0.49708 0.0
H924 H 0.13583 0.72296 0.5191 0.0
H925 H 0.11772 0.13042 0.50009 0.0
H926 H 0.10278 0.15825 0.52257 0.0
H927 H 0.09443 0.09049 0.50025 0.0
C928 C 0.86101 0.21379 0.53985 0.0
C929 C 0.86653 0.13871 0.55227 0.0
C930 C 0.86134 0.21012 0.51708 0.0
C931 C 0.86671 0.12837 0.50659 0.0
C932 C 0.87197 0.05185 0.51914 0.0
C933 C 0.87211 0.05848 0.54185 0.0
C934 C 0.85615 0.29392 0.50424 0.0
C935 C 0.87722 0.96265 0.50859 0.0
C936 C 0.85038 0.09596 0.44853 0.0
C937 C 0.86658 0.11279 0.4368 0.0
C938 C 0.85031 0.09906 0.47129 0.0
C939 C 0.8667 0.12261 0.48249 0.0
C940 C 0.88307 0.14054 0.47067 0.0
C941 C 0.88289 0.13391 0.44793 0.0
C942 C 0.83274 0.07666 0.48334 0.0
C943 C 0.90068 0.16832 0.482 0.0
H944 H 0.85684 0.27605 0.54795 0.0
H945 H 0.8762 1.00008 0.5515 0.0
H946 H 0.86758 0.31261 0.49312 0.0
H947 H 0.84386 0.27973 0.49405 0.0
H948 H 0.85303 0.35312 0.51486 0.0
H949 H 0.88038 0.90879 0.5207 0.0
H950 H 0.86579 0.9387 0.49805 0.0
H951 H 0.88949 0.97215 0.49808 0.0
H952 H 0.8378 0.07902 0.43989 0.0
H953 H 0.89537 0.14788 0.43882 0.0
H954 H 0.82806 0.13665 0.4928 0.0
H955 H 0.83533 1.02073 0.49507 0.0
H956 H 0.82142 0.05581 0.47224 0.0
H957 H 0.89819 0.23038 0.49186 0.0
H958 H 0.91207 0.18229 0.47039 0.0
H959 H 0.9052 0.11387 0.49328 0.0
C960 C 0.62535 0.7173 0.04314 0.0
C961 C 0.61839 0.64171 0.05427 0.0
C962 C 0.62528 0.72 0.02034 0.0
C963 C 0.61874 0.6438 0.00853 0.0
C964 C 0.61205 0.56656 0.01979 0.0
C965 C 0.61164 0.56719 0.04255 0.0
C966 C 0.63193 0.80475 0.00892 0.0
C967 C 0.60553 0.48283 0.00781 0.0
C968 C 0.60267 0.66519 0.95005 0.0
C969 C 0.6185 0.63843 0.93867 0.0
C970 C 0.60276 0.67035 0.9728 0.0
C971 C 0.61885 0.64452 0.98438 0.0
C972 C 0.63483 0.61664 0.97287 0.0
C973 C 0.63457 0.61572 0.95009 0.0
C974 C 0.58567 0.70351 0.98443 0.0
C975 C 0.65202 0.58557 0.98463 0.0
H976 H 0.63044 0.77515 0.05228 0.0
H977 H 0.60643 0.50835 0.05122 0.0
H978 H 0.64402 0.78844 -0.00142 0.0
H979 H 0.62092 0.83122 -0.00192 0.0
H980 H 0.63591 0.85931 0.02049 0.0
H981 H 0.60157 0.42693 0.01902 0.0
H982 H 0.59343 0.49993 -0.00246 0.0
H983 H 0.61659 0.45775 -0.00315 0.0
H984 H 0.59032 0.68373 0.9411 0.0
H985 H 0.64676 0.59455 0.94118 0.0
H986 H 0.58925 0.76033 -0.00447 0.0
H987 H 0.57986 0.64799 0.99452 0.0
H988 H 0.57482 0.72725 0.97299 0.0
H989 H 0.65729 0.64085 -0.00481 0.0
H990 H 0.66318 0.56486 0.97327 0.0
H991 H 0.64869 0.52697 -0.00471 0.0
C992 C 0.35899 0.36996 0.9471 0.0
C993 C 0.36554 0.44702 0.9362 0.0
C994 C 0.35926 0.36577 0.9699 0.0
C995 C 0.36552 0.44195 0.98194 0.0
C996 C 0.37173 0.52071 0.9709 0.0
C997 C 0.372 0.52154 0.94814 0.0
C998 C 0.35315 0.27946 0.98106 0.0
C999 C 0.3779 0.60448 0.98311 0.0
C1000 C 0.35 0.46453 0.04064 0.0
C1001 C 0.36626 0.44332 0.05184 0.0
C1002 C 0.34957 0.46481 0.01786 0.0
C1003 C 0.3656 0.43969 0.0061 0.0
C1004 C 0.38191 0.41539 0.01745 0.0
C1005 C 0.38215 0.41932 0.04022 0.0
C1006 C 0.33212 0.4943 0.00638 0.0
C1007 C 0.39908 0.38516 0.00554 0.0
H1008 H 0.35414 0.31214 0.93778 0.0
H1009 H 0.3769 0.58144 0.93962 0.0
H1010 H 0.36439 0.25366 0.99167 0.0
H1011 H 0.34107 0.29353 0.99161 0.0
H1012 H 0.34935 0.2252 0.96932 0.0
H1013 H 0.38144 0.66164 0.97207 0.0
H1014 H 0.36681 0.62732 0.99431 0.0
H1015 H 0.39018 0.58834 0.99316 0.0
H1016 H 0.33776 0.48359 0.04972 0.0
H1017 H 0.39466 0.40195 0.04898 0.0
H1018 H 0.32707 0.43898 -0.00431 0.0
H1019 H 0.33506 0.55395 -0.00411 0.0
H1020 H 0.32094 0.51288 0.01792 0.0
H1021 H 0.39572 0.32862 0.99427 0.0
H1022 H 0.41013 0.36209 0.0168 0.0
H1023 H 0.40453 0.44203 -0.00439 0.0
C1024 C 0.63509 0.44051 0.45016 0.0
C1025 C 0.61934 0.413 0.4387 0.0
C1026 C 0.63534 0.44052 0.47294 0.0
C1027 C 0.61967 0.40946 0.4845 0.0
C1028 C 0.60396 0.37849 0.47295 0.0
C1029 C 0.60387 0.38213 0.45017 0.0
C1030 C 0.65214 0.47666 0.48463 0.0
C1031 C 0.5872 0.34234 0.48467 0.0
C1032 C 0.62656 0.34584 0.54384 0.0
C1033 C 0.61884 0.42132 0.5544 0.0
C1034 C 0.62664 0.34016 0.52107 0.0
C1035 C 0.6194 0.41318 0.50865 0.0
C1036 C 0.61193 0.49036 0.51931 0.0
C1037 C 0.61146 0.49277 0.54206 0.0
C1038 C 0.6342 0.25561 0.51031 0.0
C1039 C 0.6046 0.57083 0.50668 0.0
H1040 H 0.64701 0.46524 0.44129 0.0
H1041 H 0.59173 0.36016 0.4413 0.0
H1042 H 0.64819 0.5364 0.49465 0.0
H1043 H 0.65773 0.42429 0.49581 0.0
H1044 H 0.66325 0.49747 0.47325 0.0
H1045 H 0.57675 0.31413 0.47331 0.0
H1046 H 0.59134 0.2882 0.49626 0.0
H1047 H 0.58065 0.39764 0.49423 0.0
H1048 H 0.63211 0.29021 0.55341 0.0
H1049 H 0.60563 0.55153 0.55025 0.0
H1050 H 0.64609 0.27341 0.49981 0.0
H1051 H 0.62349 0.22496 0.49971 0.0
H1052 H 0.63878 0.20376 0.52229 0.0
H1053 H 0.61544 0.59715 0.49562 0.0
H1054 H 0.59997 0.62712 0.51744 0.0
H1055 H 0.59277 0.54947 0.49645 0.0
C1056 C 0.35859 0.74779 0.54129 0.0
C1057 C 0.366 0.67179 0.55193 0.0
C1058 C 0.35886 0.75376 0.51852 0.0
C1059 C 0.36612 0.68054 0.50618 0.0
C1060 C 0.37329 0.6029 0.51693 0.0
C1061 C 0.37343 0.60018 0.53969 0.0
C1062 C 0.3516 0.83878 0.50768 0.0
C1063 C 0.38064 0.52221 0.50439 0.0
C1064 C 0.351 0.65401 0.44745 0.0
C1065 C 0.36692 0.68082 0.43624 0.0
C1066 C 0.35051 0.65401 0.47023 0.0
C1067 C 0.36612 0.68434 0.48203 0.0
C1068 C 0.38201 0.71456 0.47073 0.0
C1069 C 0.38233 0.71094 0.44794 0.0
C1070 C 0.33353 0.61866 0.48166 0.0
C1071 C 0.39872 0.74991 0.48271 0.0
H1072 H 0.353 0.80353 0.55079 0.0
H1073 H 0.37901 0.54101 0.54794 0.0
H1074 H 0.36249 0.86882 0.49723 0.0
H1075 H 0.33977 0.82168 0.49701 0.0
H1076 H 0.34704 0.89086 0.51961 0.0
H1077 H 0.38506 0.46571 0.51521 0.0
H1078 H 0.36986 0.49633 0.49317 0.0
H1079 H 0.3926 0.54315 0.49435 0.0
H1080 H 0.33913 0.62986 0.43841 0.0
H1081 H 0.3946 0.73237 0.43926 0.0
H1082 H 0.3279 0.67132 0.49274 0.0
H1083 H 0.33725 0.55879 0.49175 0.0
H1084 H 0.3225 0.5983 0.4701 0.0
H1085 H 0.39455 0.80427 0.49424 0.0
H1086 H 0.40934 0.77759 0.47152 0.0
H1087 H 0.40505 0.69433 0.49237 0.0
C1088 C 0.95202 0.07441 0.10685 0.0
C1089 C 0.94341 1.01895 0.1223 0.0
C1090 C 0.97138 0.0836 0.10648 0.0
C1091 C 0.98231 1.03414 0.12154 0.0
C1092 C 0.9736 0.97721 0.13697 0.0
C1093 C 0.95427 0.97133 0.13734 0.0
C1094 C 0.98011 0.14689 0.09016 0.0
C1095 C 0.98472 0.92197 0.15303 0.0
C1096 C 0.03357 0.9981 0.10978 0.0
C1097 C 0.04165 0.06157 0.12382 0.0
C1098 C 0.01424 0.98806 0.10886 0.0
C1099 C 0.00281 0.04455 0.12187 0.0
C1100 C 0.01098 0.10943 0.13585 0.0
C1101 C 0.03028 0.11626 0.13686 0.0
C1102 C 0.00606 0.91654 0.09415 0.0
C1103 C -0.00066 0.17219 0.14968 0.0
H1104 H 0.94363 0.11106 0.09517 0.0
H1105 H 0.94765 0.92748 0.14916 0.0
H1106 H 0.98822 0.19993 0.09873 0.0
H1107 H 0.98986 0.10858 0.07968 0.0
H1108 H 0.96969 0.18089 0.07968 0.0
H1109 H 0.97588 0.87732 0.16321 0.0
H1110 H -0.00509 0.8789 0.14431 0.0
H1111 H -0.00741 0.96801 0.16388 0.0
H1112 H 0.04236 0.95594 0.09967 0.0
H1113 H 0.03647 0.16616 0.14758 0.0
H1114 H -0.00332 0.94886 0.08217 0.0
H1115 H -0.00234 0.86822 0.10384 0.0
H1116 H 0.01682 0.87755 0.08525 0.0
H1117 H 0.98945 0.21024 0.13931 0.0
H1118 H 0.00783 0.22194 0.15888 0.0
H1119 H 0.99112 0.13185 0.16141 0.0
C1120 C 0.95386 0.10825 0.38875 0.0
C1121 C 0.94357 0.05391 0.3745 0.0
C1122 C 0.9732 0.10174 0.38962 0.0
C1123 C 0.98249 1.04001 0.37574 0.0
C1124 C 0.97212 0.98428 0.36144 0.0
C1125 C 0.95275 0.99157 0.36108 0.0
C1126 C 0.98369 0.1615 0.40529 0.0
C1127 C 0.98152 0.918 0.3463 0.0
C1128 C 0.03322 0.084 0.36311 0.0
C1129 C 0.042 1.0204 0.37656 0.0
C1130 C 0.01384 0.09116 0.36266 0.0
C1131 C 0.00306 1.03395 0.37616 0.0
C1132 C 0.01194 0.97094 0.3901 0.0
C1133 C 0.03129 0.96463 0.39005 0.0
C1134 C 0.0049 0.15887 0.3475 0.0
C1135 C 0.00099 0.90961 0.40495 0.0
H1136 H 0.94679 0.15651 0.39917 0.0
H1137 H 0.94481 0.9498 0.34998 0.0
H1138 H 0.99231 0.1189 0.4162 0.0
H1139 H -0.00682 0.20689 0.39621 0.0
H1140 H 0.97437 0.20423 0.41538 0.0
H1141 H 0.97149 0.87937 0.33624 0.0
H1142 H 0.99105 0.95516 0.33535 0.0
H1143 H 0.98996 0.86889 0.35574 0.0
H1144 H 0.04147 0.12686 0.35259 0.0
H1145 H 0.03806 0.91535 0.40048 0.0
H1146 H -0.00384 0.20702 0.35684 0.0
H1147 H -0.00427 0.12277 0.33593 0.0
H1148 H 0.01522 0.19852 0.33811 0.0
H1149 H 0.99202 0.95108 0.41571 0.0
H1150 H 0.01 0.86593 0.41519 0.0
H1151 H 0.99181 0.8651 0.3952 0.0
C1152 C 0.03218 1.00188 0.87799 0.0
C1153 C 0.04113 0.06568 0.86479 0.0
C1154 C 0.01283 0.99284 0.87753 0.0
C1155 C 0.00222 0.04908 0.86356 0.0
C1156 C 0.01126 0.11275 0.85 0.0
C1157 C 0.03059 0.12019 0.85077 0.0
C1158 C 0.00373 0.92385 0.89217 0.0
C1159 C 0.00051 0.17383 0.83484 0.0
C1160 C 0.95362 0.97265 0.84862 0.0
C1161 C 0.94272 1.02481 0.86276 0.0
C1162 C 0.97296 0.98031 0.8486 0.0
C1163 C 0.98165 0.04151 0.86313 0.0
C1164 C 0.97066 0.0954 0.87722 0.0
C1165 C 0.95132 0.08646 0.87685 0.0
C1166 C 0.98412 0.92203 0.83322 0.0
C1167 C 0.97937 0.16161 0.89291 0.0
H1168 H 0.04028 0.95978 0.88888 0.0
H1169 H 0.03746 0.16979 0.84056 0.0
H1170 H -0.00588 0.95878 0.90347 0.0
H1171 H -0.00459 0.8756 0.88236 0.0
H1172 H 0.01393 0.88443 0.90184 0.0
H1173 H 0.00963 0.21889 0.82513 0.0
H1174 H 0.9921 0.13212 0.82355 0.0
H1175 H 0.99081 0.21693 0.84429 0.0
H1176 H 0.94703 0.92477 0.83771 0.0
H1177 H 0.94294 0.12664 0.88786 0.0
H1178 H -0.00646 0.87709 0.84257 0.0
H1179 H -0.00716 0.96572 0.82273 0.0
H1180 H 0.97526 0.87895 0.82269 0.0
H1181 H 0.98864 0.12455 0.90422 0.0
H1182 H 0.96892 0.19941 0.90257 0.0
H1183 H 0.98797 0.21143 0.88395 0.0
C1184 C 0.95396 0.103 0.60236 0.0
C1185 C 0.94303 0.05922 0.61795 0.0
C1186 C 0.97327 0.09694 0.60301 0.0
C1187 C 0.98185 0.04415 0.61937 0.0
C1188 C 0.97085 0.99842 0.63496 0.0
C1189 C 0.95152 1.0073 0.6342 0.0
C1190 C 0.98449 0.14765 0.58626 0.0
C1191 C 0.97951 0.93985 0.65235 0.0
C1192 C 0.02998 0.95776 0.60655 0.0
C1193 C 0.04109 1.0163 0.61888 0.0
C1194 C 0.0107 0.96516 0.6069 0.0
C1195 C 0.0023 1.03413 0.61955 0.0
C1196 C 0.01347 0.09454 0.63179 0.0
C1197 C 0.03279 0.08427 0.63149 0.0
C1198 C -0.0007 0.89861 0.59387 0.0
C1199 C 0.005 0.17008 0.64511 0.0
H1200 H 0.94742 0.14398 0.5899 0.0
H1201 H 0.94306 0.97371 0.64629 0.0
H1202 H -0.00556 0.19371 0.59442 0.0
H1203 H -0.00736 0.09881 0.57641 0.0
H1204 H 0.97571 0.1887 0.57515 0.0
H1205 H 0.96903 0.90846 0.66317 0.0
H1206 H 0.98781 0.88483 0.64475 0.0
H1207 H 0.98906 0.9812 0.66238 0.0
H1208 H 0.03636 0.90454 0.59691 0.0
H1209 H 0.04139 0.12938 0.64105 0.0
H1210 H 0.99109 0.9356 0.58148 0.0
H1211 H 0.9894 0.86293 0.60465 0.0
H1212 H 0.00797 0.84689 0.5855 0.0
H1213 H -0.00336 0.21522 0.63449 0.0
H1214 H 0.01559 0.21186 0.65351 0.0
H1215 H -0.00447 0.14114 0.65745 0.0
C1216 C 0.45486 0.43168 0.13148 0.0
C1217 C 0.44389 0.50515 0.12471 0.0
C1218 C 0.47421 0.43707 0.13122 0.0
C1219 C 0.48283 0.51875 0.1245 0.0
C1220 C 0.47179 0.59394 0.11806 0.0
C1221 C 0.45242 0.58586 0.118 0.0
C1222 C 0.48543 0.35476 0.1378 0.0
C1223 C 0.48044 0.68287 0.11126 0.0
C1224 C 0.53246 0.55646 0.14276 0.0
C1225 C 0.54233 0.5384 0.12368 0.0
C1226 C 0.51308 0.55138 0.14319 0.0
C1227 C 0.5034 0.52517 0.12422 0.0
C1228 C 0.51339 0.50421 0.10507 0.0
C1229 C 0.53274 0.51237 0.10494 0.0
C1230 C 0.50296 0.57609 0.1638 0.0
C1231 C 0.50363 0.47355 0.08469 0.0
H1232 H 0.4483 0.36888 0.13654 0.0
H1233 H 0.44394 0.64274 0.11279 0.0
H1234 H 0.49466 0.33418 0.12428 0.0
H1235 H 0.49434 0.37165 0.15187 0.0
H1236 H 0.4766 0.29583 0.14223 0.0
H1237 H 0.46995 0.7358 0.10748 0.0
H1238 H 0.48956 0.70859 0.12437 0.0
H1239 H 0.48919 0.67219 0.0967 0.0
H1240 H 0.53984 0.57767 0.15721 0.0
H1241 H 0.54037 0.49853 0.09017 0.0
H1242 H 0.49464 0.51746 0.16949 0.0
H1243 H 0.49324 0.63302 0.16061 0.0
H1244 H 0.51252 0.59667 0.17703 0.0
H1245 H 0.49503 0.41284 0.08819 0.0
H1246 H 0.51344 0.45638 0.07144 0.0
H1247 H 0.49421 0.52797 0.07889 0.0
C1248 C 0.45223 0.51108 0.38372 0.0
C1249 C 0.44428 0.57135 0.36877 0.0
C1250 C 0.47155 0.50046 0.3849 0.0
C1251 C 0.48309 0.55299 0.37117 0.0
C1252 C 0.47505 0.61484 0.35629 0.0
C1253 C 0.45577 0.6224 0.35511 0.0
C1254 C 0.47959 0.43227 0.40061 0.0
C1255 C 0.48681 0.67317 0.3416 0.0
C1256 C 0.53417 0.58224 0.38484 0.0
C1257 C 0.5424 0.52222 0.37004 0.0
C1258 C 0.51483 0.59282 0.38552 0.0
C1259 C 0.50355 0.54048 0.37144 0.0
C1260 C 0.51187 0.4788 0.35674 0.0
C1261 C 0.53117 0.47131 0.35605 0.0
C1262 C 0.50649 0.66081 0.40107 0.0
C1263 C 0.50039 0.42062 0.34169 0.0
H1264 H 0.44336 0.4718 0.39433 0.0
H1265 H 0.44967 0.66987 0.34367 0.0
H1266 H 0.48766 0.38025 0.3916 0.0
H1267 H 0.48926 0.46667 0.41191 0.0
H1268 H 0.46878 0.39728 0.41028 0.0
H1269 H 0.47843 0.72164 0.33184 0.0
H1270 H 0.49691 0.71245 0.35136 0.0
H1271 H 0.4948 0.62933 0.33033 0.0
H1272 H 0.54284 0.62143 0.39571 0.0
H1273 H 0.53747 0.42402 0.34473 0.0
H1274 H 0.49661 0.62628 0.41207 0.0
H1275 H 0.49861 0.71297 0.39188 0.0
H1276 H 0.51713 0.69566 0.41105 0.0
H1277 H 0.4901 0.38126 0.35115 0.0
H1278 H 0.50895 0.37224 0.33213 0.0
H1279 H 0.49262 0.46458 0.33023 0.0
C1280 C 0.45226 0.51814 0.84876 0.0
C1281 C 0.44197 0.54923 0.86656 0.0
C1282 C 0.47164 0.52206 0.84878 0.0
C1283 C 0.48096 0.56008 0.86683 0.0
C1284 C 0.47059 0.59375 0.88464 0.0
C1285 C 0.4512 0.58686 0.88441 0.0
C1286 C 0.48214 0.48395 0.82963 0.0
C1287 C 0.47998 0.63679 0.90395 0.0
C1288 C 0.53173 0.50105 0.87584 0.0
C1289 C 0.54054 0.57616 0.86646 0.0
C1290 C 0.51233 0.49456 0.87599 0.0
C1291 C 0.50155 0.56563 0.86687 0.0
C1292 C 0.51045 0.64166 0.85743 0.0
C1293 C 0.52982 0.64558 0.85718 0.0
C1294 C 0.50338 0.41162 0.88586 0.0
C1295 C 0.49951 0.71939 0.84778 0.0
H1296 H 0.44517 0.48808 0.83502 0.0
H1297 H 0.44326 0.61075 0.8982 0.0
H1298 H 0.49064 0.53804 0.82207 0.0
H1299 H 0.49173 0.42971 0.83518 0.0
H1300 H 0.47284 0.45505 0.81706 0.0
H1301 H 0.46993 0.66211 0.91618 0.0
H1302 H 0.48925 0.58658 0.91186 0.0
H1303 H 0.48869 0.69458 0.89854 0.0
H1304 H 0.54 0.44736 0.88304 0.0
H1305 H 0.53658 0.70413 0.85003 0.0
H1306 H 0.4945 0.3776 0.87363 0.0
H1307 H 0.49433 0.43219 0.89954 0.0
H1308 H 0.51369 0.36166 0.89194 0.0
H1309 H 0.49081 0.69425 0.83423 0.0
H1310 H 0.50852 0.77465 0.84155 0.0
H1311 H 0.49008 0.7484 0.86018 0.0
C1312 C 0.45404 0.62107 0.60208 0.0
C1313 C 0.44284 0.56942 0.61594 0.0
C1314 C 0.47332 0.61302 0.60265 0.0
C1315 C 0.48162 0.5508 0.61723 0.0
C1316 C 0.47035 0.49733 0.63107 0.0
C1317 C 0.45104 0.50774 0.63035 0.0
C1318 C 0.48482 0.67167 0.58774 0.0
C1319 C 0.47871 0.42928 0.64659 0.0
C1320 C 0.52981 0.46937 0.60282 0.0
C1321 C 0.54084 0.52085 0.61692 0.0
C1322 C 0.51053 0.47763 0.603 0.0
C1323 C 0.50206 0.53992 0.61742 0.0
C1324 C 0.51315 0.59327 0.63148 0.0
C1325 C 0.53246 0.58265 0.63117 0.0
C1326 C 0.49922 0.4191 0.58785 0.0
C1327 C 0.5046 0.6614 0.64685 0.0
H1328 H 0.44774 0.66936 0.59101 0.0
H1329 H 0.44239 0.46806 0.64113 0.0
H1330 H 0.49468 0.71288 0.59739 0.0
H1331 H 0.49308 0.62806 0.57669 0.0
H1332 H 0.47623 0.71842 0.57776 0.0
H1333 H 0.46806 0.39274 0.65618 0.0
H1334 H 0.487 0.3785 0.63747 0.0
H1335 H 0.48821 0.46433 0.65796 0.0
H1336 H 0.53625 0.42102 0.59187 0.0
H1337 H 0.54098 0.62222 0.64213 0.0
H1338 H 0.4911 0.46278 0.57667 0.0
H1339 H 0.48924 0.37784 0.5973 0.0
H1340 H 0.50793 0.3724 0.57801 0.0
H1341 H 0.49642 0.71213 0.63757 0.0
H1342 H 0.51514 0.69799 0.65662 0.0
H1343 H 0.49496 0.62639 0.65806 0.0
C1344 C 0.13159 0.83159 0.14499 0.0
C1345 C 0.12434 0.88677 0.12847 0.0
C1346 C 0.12939 0.73652 0.14466 0.0
C1347 C 0.12003 0.69485 0.12709 0.0
C1348 C 0.11265 0.75043 0.11032 0.0
C1349 C 0.1147 0.84588 0.11133 0.0
C1350 C 0.13696 0.68074 0.16324 0.0
C1351 C 0.10277 0.70892 0.09116 0.0
C1352 C 0.12725 0.43857 0.11823 0.0
C1353 C 0.11081 0.4032 0.12668 0.0
C1354 C 0.13044 0.53351 0.11803 0.0
C1355 C 0.11706 0.59381 0.12697 0.0
C1356 C 0.10074 0.55744 0.13612 0.0
C1357 C 0.09774 0.46311 0.13558 0.0
C1358 C 0.14788 0.56948 0.10779 0.0
C1359 C 0.08636 0.61822 0.14645 0.0
H1360 H 0.13904 0.86305 0.1583 0.0
H1361 H 0.10925 0.88821 0.09841 0.0
H1362 H 0.12563 0.64196 0.17106 0.0
H1363 H 0.14713 0.6304 0.1571 0.0
H1364 H 0.14378 0.72353 0.17576 0.0
H1365 H 0.09861 0.7608 0.07897 0.0
H1366 H 0.11181 0.65787 0.08317 0.0
H1367 H 0.09022 0.67267 0.09676 0.0
H1368 H 0.13727 0.39249 0.11111 0.0
H1369 H 0.08501 0.43595 0.14219 0.0
H1370 H 0.15578 0.61022 0.11976 0.0
H1371 H 0.1443 0.61547 0.09412 0.0
H1372 H 0.1569 0.51403 0.10159 0.0
H1373 H 0.09277 0.66026 0.15938 0.0
H1374 H 0.0748 0.57888 0.15367 0.0
H1375 H 0.08061 0.66563 0.13417 0.0
C1376 C 0.87029 0.23085 0.10751 0.0
C1377 C 0.86021 0.19057 0.12438 0.0
C1378 C 0.87259 0.32623 0.1065 0.0
C1379 C 0.86507 0.38251 0.12307 0.0
C1380 C 0.85528 0.34142 0.14039 0.0
C1381 C 0.85277 0.24642 0.14067 0.0
C1382 C 0.88287 0.36693 0.08756 0.0
C1383 C 0.84756 0.39775 0.15879 0.0
C1384 C 0.8877 0.61388 0.13189 0.0
C1385 C 0.87478 0.67436 0.12288 0.0
C1386 C 0.88454 0.51953 0.13237 0.0
C1387 C 0.86826 0.48361 0.12296 0.0
C1388 C 0.85511 0.54451 0.11378 0.0
C1389 C 0.8584 0.63942 0.11413 0.0
C1390 C 0.89867 0.45827 0.143 0.0
C1391 C 0.83777 0.50923 0.10317 0.0
H1392 H 0.87589 0.18809 0.09476 0.0
H1393 H 0.845 0.2155 0.15377 0.0
H1394 H 0.87411 0.4187 0.07939 0.0
H1395 H 0.89546 0.40216 0.0934 0.0
H1396 H 0.88702 0.31472 0.07544 0.0
H1397 H 0.84049 0.3554 0.1712 0.0
H1398 H 0.85886 0.43612 0.1668 0.0
H1399 H 0.83757 0.44846 0.15243 0.0
H1400 H 0.90037 0.64064 0.13874 0.0
H1401 H 0.84849 0.68586 0.10692 0.0
H1402 H 0.90451 0.41048 0.13086 0.0
H1403 H 0.89201 0.41666 0.15582 0.0
H1404 H 0.9102 0.49721 0.15042 0.0
H1405 H 0.84146 0.46225 0.08973 0.0
H1406 H 0.82902 0.56497 0.09657 0.0
H1407 H 0.82952 0.46972 0.11504 0.0
C1408 C 0.1104 0.25931 0.3758 0.0
C1409 C 0.12695 0.22245 0.36794 0.0
C1410 C 0.1071 0.35422 0.37491 0.0
C1411 C 0.12049 0.41294 0.36551 0.0
C1412 C 0.13685 0.37487 0.3568 0.0
C1413 C 0.13995 0.28073 0.35836 0.0
C1414 C 0.08958 0.392 0.38464 0.0
C1415 C 0.15131 0.4338 0.3461 0.0
C1416 C 0.10693 0.65165 0.34653 0.0
C1417 C 0.11434 0.70688 0.36294 0.0
C1418 C 0.10869 0.55617 0.34722 0.0
C1419 C 0.11775 0.51429 0.36502 0.0
C1420 C 0.12522 0.56993 0.38169 0.0
C1421 C 0.12361 0.66547 0.38033 0.0
C1422 C 0.101 0.50015 0.32878 0.0
C1423 C 0.13482 0.52843 0.40106 0.0
H1424 H 0.10039 0.21459 0.38335 0.0
H1425 H 0.15274 0.25256 0.35213 0.0
H1426 H 0.09306 0.43824 0.39829 0.0
H1427 H 0.08198 0.43288 0.37241 0.0
H1428 H 0.08032 0.33752 0.39077 0.0
H1429 H 0.16274 0.39307 0.33899 0.0
H1430 H 0.14494 0.47539 0.33305 0.0
H1431 H 0.15723 0.48163 0.35816 0.0
H1432 H 0.09973 0.68332 0.33306 0.0
H1433 H 0.1292 0.70765 0.39318 0.0
H1434 H 0.09077 0.45056 0.33504 0.0
H1435 H 0.11226 0.46047 0.32103 0.0
H1436 H 0.09423 0.54289 0.31619 0.0
H1437 H 0.12562 0.47813 0.40901 0.0
H1438 H 0.13893 0.58043 0.41323 0.0
H1439 H 0.14738 0.49137 0.39571 0.0
C1440 C 0.87845 0.42183 0.34359 0.0
C1441 C 0.87124 0.36667 0.36012 0.0
C1442 C 0.87662 0.51728 0.34424 0.0
C1443 C 0.8677 0.55922 0.36212 0.0
C1444 C 0.86044 0.50365 0.37892 0.0
C1445 C 0.8621 0.40811 0.3776 0.0
C1446 C 0.88407 0.57321 0.32566 0.0
C1447 C 0.851 0.54522 0.3984 0.0
C1448 C 0.87512 0.81441 0.37259 0.0
C1449 C 0.85848 0.85111 0.3649 0.0
C1450 C 0.87841 0.71949 0.37176 0.0
C1451 C 0.86493 0.66056 0.3626 0.0
C1452 C 0.84846 0.69843 0.35409 0.0
C1453 C 0.84538 0.79262 0.35559 0.0
C1454 C 0.89603 0.68194 0.38129 0.0
C1455 C 0.83391 0.63927 0.34365 0.0
H1456 H 0.88554 0.39014 0.33004 0.0
H1457 H 0.85667 0.36597 0.39054 0.0
H1458 H 0.87271 0.61273 0.31805 0.0
H1459 H 0.89435 0.62294 0.33175 0.0
H1460 H 0.89072 0.53042 0.31299 0.0
H1461 H 0.84705 0.49328 0.41064 0.0
H1462 H 0.86026 0.59569 0.40621 0.0
H1463 H 0.83838 0.5821 0.39319 0.0
H1464 H 0.88521 0.8593 0.37994 0.0
H1465 H 0.83252 0.82067 0.3495 0.0
H1466 H 0.90354 0.64113 0.36897 0.0
H1467 H 0.89271 0.63567 0.39498 0.0
H1468 H 0.90532 0.73653 0.38731 0.0
H1469 H 0.84014 0.5976 0.33052 0.0
H1470 H 0.82238 0.67984 0.33669 0.0
H1471 H 0.82814 0.59153 0.35582 0.0
C1472 C 0.87319 0.25154 0.86248 0.0
C1473 C 0.85719 0.21588 0.87198 0.0
C1474 C 0.87621 0.34661 0.86185 0.0
C1475 C 0.86318 0.40685 0.87149 0.0
C1476 C 0.8473 0.37022 0.88163 0.0
C1477 C 0.8444 0.27572 0.88144 0.0
C1478 C 0.89312 0.38275 0.85049 0.0
C1479 C 0.83332 0.43088 0.89273 0.0
C1480 C 0.87875 0.64386 0.88894 0.0
C1481 C 0.87092 0.69983 0.87293 0.0
C1482 C 0.87637 0.54888 0.88862 0.0
C1483 C 0.86621 0.50795 0.87158 0.0
C1484 C 0.85821 0.56428 0.85533 0.0
C1485 C 0.86049 0.65969 0.85633 0.0
C1486 C 0.88466 0.49239 0.90665 0.0
C1487 C 0.84746 0.5236 0.83674 0.0
H1488 H 0.88298 0.20553 0.85489 0.0
H1489 H 0.83201 0.24831 0.88883 0.0
H1490 H 0.88891 0.43008 0.83733 0.0
H1491 H 0.90172 0.42208 0.86205 0.0
H1492 H 0.90169 0.32748 0.84337 0.0
H1493 H 0.82203 0.39147 0.90048 0.0
H1494 H 0.84022 0.47256 0.90537 0.0
H1495 H 0.82715 0.47864 0.88082 0.0
H1496 H 0.8868 0.67462 0.90184 0.0
H1497 H 0.85456 0.70255 0.8438 0.0
H1498 H 0.89452 0.44207 0.89985 0.0
H1499 H 0.87363 0.45357 0.91504 0.0
H1500 H 0.89202 0.53465 0.91884 0.0
H1501 H 0.8561 0.47275 0.8281 0.0
H1502 H 0.84279 0.57598 0.82493 0.0
H1503 H 0.83516 0.48727 0.84303 0.0
C1504 C 0.10628 0.4434 0.89287 0.0
C1505 C 0.11284 0.38839 0.87591 0.0
C1506 C 0.10885 0.53836 0.89275 0.0
C1507 C 0.1178 0.58034 0.87493 0.0
C1508 C 0.12446 0.52494 0.8577 0.0
C1509 C 0.12212 0.42952 0.85854 0.0
C1510 C 0.10208 0.5937 0.91182 0.0
C1511 C 0.13382 0.56664 0.83822 0.0
C1512 C 0.11052 0.83758 0.86728 0.0
C1513 C 0.1272 0.87254 0.8752 0.0
C1514 C 0.10733 0.74261 0.86676 0.0
C1515 C 0.12094 0.68152 0.87488 0.0
C1516 C 0.13758 0.71732 0.88338 0.0
C1517 C 0.14058 0.81184 0.88315 0.0
C1518 C 0.08955 0.70751 0.85716 0.0
C1519 C 0.15227 0.65575 0.8928 0.0
H1520 H 0.09912 0.41185 0.90637 0.0
H1521 H 0.12706 0.38744 0.84528 0.0
H1522 H 0.11375 0.63185 0.91912 0.0
H1523 H 0.09176 0.64456 0.90631 0.0
H1524 H 0.09569 0.55067 0.92459 0.0
H1525 H 0.13748 0.515 0.82576 0.0
H1526 H 0.12463 0.61839 0.83073 0.0
H1527 H 0.14661 0.60211 0.84334 0.0
H1528 H 0.10023 0.88416 0.8609 0.0
H1529 H 0.1535 0.83853 0.88934 0.0
H1530 H 0.08183 0.66785 0.86949 0.0
H1531 H 0.09264 0.66073 0.84348 0.0
H1532 H 0.08053 0.76336 0.85115 0.0
H1533 H 0.14632 0.61354 0.90598 0.0
H1534 H 0.16417 0.69447 0.89944 0.0
H1535 H 0.15746 0.6085 0.88014 0.0
C1536 C 0.84824 0.83034 0.60328 0.0
C1537 C 0.85823 0.88837 0.617 0.0
C1538 C 0.85127 0.73571 0.60329 0.0
C1539 C 0.86403 0.69712 0.61812 0.0
C1540 C 0.87413 0.75573 0.63213 0.0
C1541 C 0.87136 0.85092 0.63111 0.0
C1542 C 0.84079 0.67708 0.58737 0.0
C1543 C 0.88748 0.71768 0.64862 0.0
C1544 C 0.85867 0.44221 0.63051 0.0
C1545 C 0.87347 0.40493 0.61885 0.0
C1546 C 0.85558 0.53732 0.63075 0.0
C1547 C 0.86716 0.59591 0.61842 0.0
C1548 C 0.88164 0.55743 0.60597 0.0
C1549 C 0.88483 0.46303 0.60671 0.0
C1550 C 0.8403 0.57539 0.64471 0.0
C1551 C 0.89383 0.61595 0.59181 0.0
H1552 H 0.83802 0.85931 0.5924 0.0
H1553 H 0.87882 0.89559 0.64203 0.0
H1554 H 0.8506 0.63582 0.57761 0.0
H1555 H 0.83175 0.62893 0.59622 0.0
H1556 H 0.83211 0.71806 0.57614 0.0
H1557 H 0.89362 0.77166 0.65898 0.0
H1558 H 0.88029 0.6679 0.65919 0.0
H1559 H 0.8988 0.68069 0.64029 0.0
H1560 H 0.85005 0.39758 0.64017 0.0
H1561 H 0.89628 0.4343 0.59766 0.0
H1562 H 0.83027 0.6134 0.63455 0.0
H1563 H 0.84613 0.62431 0.6566 0.0
H1564 H 0.83278 0.52132 0.65368 0.0
H1565 H 0.88522 0.65685 0.58052 0.0
H1566 H 0.90376 0.57493 0.58214 0.0
H1567 H 0.90173 0.66441 0.602 0.0
C1568 C 0.11438 0.23229 0.61183 0.0
C1569 C 0.12358 0.19011 0.62915 0.0
C1570 C 0.11223 0.32785 0.61114 0.0
C1571 C 0.11903 0.38233 0.62844 0.0
C1572 C 0.12794 0.33934 0.64618 0.0
C1573 C 0.13029 0.2442 0.64618 0.0
C1574 C 0.10287 0.37064 0.59177 0.0
C1575 C 0.1349 0.39378 0.66529 0.0
C1576 C 0.12636 0.63922 0.62057 0.0
C1577 C 0.10971 0.67464 0.62854 0.0
C1578 C 0.1296 0.54422 0.62029 0.0
C1579 C 0.11603 0.4836 0.62856 0.0
C1580 C 0.09946 0.51991 0.63721 0.0
C1581 C 0.09645 0.61444 0.63684 0.0
C1582 C 0.14734 0.50854 0.61064 0.0
C1583 C 0.0848 0.45881 0.64674 0.0
H1584 H 0.10935 0.1909 0.59852 0.0
H1585 H 0.13738 0.21181 0.65963 0.0
H1586 H 0.09012 0.4064 0.597 0.0
H1587 H 0.11209 0.42231 0.58436 0.0
H1588 H 0.09915 0.31961 0.5792 0.0
H1589 H 0.14137 0.35008 0.67791 0.0
H1590 H 0.14521 0.44449 0.65977 0.0
H1591 H 0.12331 0.43206 0.67278 0.0
H1592 H 0.13655 0.68537 0.61389 0.0
H1593 H 0.08354 0.64145 0.64304 0.0
H1594 H 0.14418 0.46345 0.59668 0.0
H1595 H 0.15488 0.46693 0.62279 0.0
H1596 H 0.15654 0.56417 0.60502 0.0
H1597 H 0.07941 0.41226 0.63407 0.0
H1598 H 0.07304 0.49794 0.65363 0.0
H1599 H 0.09084 0.41586 0.65976 0.0
C1600 C 0.59679 0.95148 0.13438 0.0
C1601 C 0.61012 0.89056 0.12641 0.0
C1602 C 0.59991 0.04591 0.13477 0.0
C1603 C 0.61663 0.08142 0.1264 0.0
C1604 C 0.63021 1.02008 0.11833 0.0
C1605 C 0.62689 0.92521 0.11867 0.0
C1606 C 0.58526 0.10772 0.14417 0.0
C1607 C 0.64808 0.05484 0.10889 0.0
C1608 C 0.61557 0.33313 0.10987 0.0
C1609 C 0.62484 0.37447 0.12724 0.0
C1610 C 0.61322 0.23773 0.1091 0.0
C1611 C 0.61981 0.18257 0.1264 0.0
C1612 C 0.62875 0.22479 0.14422 0.0
C1613 C 0.63137 0.31974 0.14426 0.0
C1614 C 0.6039 0.1958 0.08961 0.0
C1615 C 0.63544 0.16974 0.16338 0.0
H1616 H 0.58381 0.92504 0.14044 0.0
H1617 H 0.63713 0.8785 0.11227 0.0
H1618 H 0.59124 0.15006 0.15732 0.0
H1619 H 0.58007 0.15484 0.13148 0.0
H1620 H 0.57336 0.06918 0.15085 0.0
H1621 H 0.65717 0.99877 0.10316 0.0
H1622 H 0.64509 0.1009 0.09505 0.0
H1623 H 0.65566 0.09519 0.12121 0.0
H1624 H 0.61068 0.37503 0.09656 0.0
H1625 H 0.63851 0.35152 0.15775 0.0
H1626 H 0.59105 0.16081 0.09469 0.0
H1627 H 0.61307 0.14364 0.08224 0.0
H1628 H 0.60035 0.24724 0.07706 0.0
H1629 H 0.62373 0.1318 0.17065 0.0
H1630 H 0.6418 0.21296 0.17614 0.0
H1631 H 0.64576 0.11872 0.15797 0.0
C1632 C 0.34448 0.77061 0.10839 0.0
C1633 C 0.35792 0.71051 0.11642 0.0
C1634 C 0.34743 0.86498 0.1079 0.0
C1635 C 0.3641 0.90113 0.11621 0.0
C1636 C 0.37781 0.84066 0.12435 0.0
C1637 C 0.37465 0.74573 0.12411 0.0
C1638 C 0.33265 0.92602 0.09848 0.0
C1639 C 0.39562 0.87642 0.13372 0.0
C1640 C 0.37803 0.13868 0.09743 0.0
C1641 C 0.37142 0.19394 0.11431 0.0
C1642 C 0.3758 0.04363 0.09789 0.0
C1643 C 0.36712 1.00209 0.11594 0.0
C1644 C 0.36044 0.05772 0.1331 0.0
C1645 C 0.36246 0.15314 0.13195 0.0
C1646 C 0.3826 0.98774 0.07892 0.0
C1647 C 0.35133 1.01632 0.15278 0.0
H1648 H 0.33153 0.74356 0.10236 0.0
H1649 H 0.38497 0.69947 0.13055 0.0
H1650 H 0.32749 0.97356 0.11109 0.0
H1651 H 0.3385 0.96792 0.08517 0.0
H1652 H 0.32075 0.8869 0.09198 0.0
H1653 H 0.40478 0.82089 0.13961 0.0
H1654 H 0.40316 0.91642 0.12131 0.0
H1655 H 0.39258 0.92304 0.14745 0.0
H1656 H 0.38496 0.17006 0.08375 0.0
H1657 H 0.35751 0.19552 0.14514 0.0
H1658 H 0.37094 0.94924 0.0717 0.0
H1659 H 0.39295 0.93716 0.08451 0.0
H1660 H 0.38897 1.03042 0.06606 0.0
H1661 H 0.33853 0.98035 0.1479 0.0
H1662 H 0.34774 0.06823 0.16521 0.0
H1663 H 0.36066 0.96505 0.16024 0.0
C1664 C 0.62791 0.144 0.37478 0.0
C1665 C 0.61145 0.17957 0.36634 0.0
C1666 C 0.63106 0.04897 0.37514 0.0
C1667 C 0.61763 0.98876 0.36636 0.0
C1668 C 0.60129 1.02531 0.35722 0.0
C1669 C 0.59832 0.11976 0.3576 0.0
C1670 C 0.64853 1.01284 0.38536 0.0
C1671 C 0.58686 0.96461 0.34704 0.0
C1672 C 0.63221 0.75052 0.34859 0.0
C1673 C 0.62509 0.69571 0.36523 0.0
C1674 C 0.62992 0.84557 0.34879 0.0
C1675 C 0.62061 0.88766 0.36634 0.0
C1676 C 0.61332 0.83246 0.38322 0.0
C1677 C 0.61546 0.73697 0.38234 0.0
C1678 C 0.63739 0.90088 0.33009 0.0
C1679 C 0.60348 0.87446 0.40236 0.0
H1680 H 0.63797 0.19 0.38178 0.0
H1681 H 0.58558 0.14709 0.351 0.0
H1682 H 0.64498 0.96706 0.39907 0.0
H1683 H 0.6564 0.97185 0.3734 0.0
H1684 H 0.65756 0.06822 0.3915 0.0
H1685 H 0.57527 1.00404 0.33985 0.0
H1686 H 0.59321 0.92218 0.33413 0.0
H1687 H 0.58116 0.91758 0.35941 0.0
H1688 H 0.63964 0.71876 0.33529 0.0
H1689 H 0.6101 0.69493 0.39534 0.0
H1690 H 0.6476 0.9511 0.33612 0.0
H1691 H 0.62602 0.93978 0.32232 0.0
H1692 H 0.64413 0.85774 0.31757 0.0
H1693 H 0.61255 0.92542 0.41029 0.0
H1694 H 0.59935 0.82284 0.4146 0.0
H1695 H 0.59093 0.91092 0.39677 0.0
C1696 C 0.35873 0.95038 0.37225 0.0
C1697 C 0.3753 0.91475 0.36415 0.0
C1698 C 0.35556 0.04538 0.37248 0.0
C1699 C 0.3691 0.10548 0.36391 0.0
C1700 C 0.38556 0.06886 0.3551 0.0
C1701 C 0.38854 0.97445 0.35562 0.0
C1702 C 0.33796 0.08163 0.38234 0.0
C1703 C 0.40013 0.12945 0.34517 0.0
C1704 C 0.35485 0.34356 0.34568 0.0
C1705 C 0.36178 0.39848 0.36242 0.0
C1706 C 0.35708 0.24848 0.346 0.0
C1707 C 0.36613 0.20655 0.36378 0.0
C1708 C 0.3732 0.26187 0.38076 0.0
C1709 C 0.37114 0.35735 0.37976 0.0
C1710 C 0.34985 0.19297 0.32721 0.0
C1711 C 0.38276 0.22004 0.40012 0.0
H1712 H 0.34858 0.90444 0.37909 0.0
H1713 H 0.40137 0.94706 0.34927 0.0
H1714 H 0.34132 0.12756 0.39609 0.0
H1715 H 0.33025 0.1225 0.37021 0.0
H1716 H 0.32885 1.02633 0.38834 0.0
H1717 H 0.41182 0.08995 0.33822 0.0
H1718 H 0.39395 0.17172 0.33212 0.0
H1719 H 0.40566 0.17664 0.35763 0.0
H1720 H 0.34763 0.37523 0.33222 0.0
H1721 H 0.37634 0.3995 0.39284 0.0
H1722 H 0.33957 0.1428 0.33308 0.0
H1723 H 0.36131 0.15401 0.31966 0.0
H1724 H 0.34326 0.23598 0.31454 0.0
H1725 H 0.37358 0.16916 0.40788 0.0
H1726 H 0.38672 0.27176 0.41242 0.0
H1727 H 0.3954 0.18352 0.3948 0.0
C1728 C 0.352 0.77418 0.84675 0.0
C1729 C 0.35901 0.71898 0.86342 0.0
C1730 C 0.35456 0.86913 0.84687 0.0
C1731 C 0.36397 0.91084 0.86441 0.0
C1732 C 0.37106 0.85522 0.88136 0.0
C1733 C 0.36872 0.75983 0.88052 0.0
C1734 C 0.3473 0.92473 0.82809 0.0
C1735 C 0.38093 0.89664 0.90053 0.0
C1736 C 0.38673 0.14201 0.85579 0.0
C1737 C 0.37361 0.20273 0.86429 0.0
C1738 C 0.38361 0.04761 0.85543 0.0
C1739 C 0.36715 1.01194 0.86442 0.0
C1740 C 0.35378 0.07308 0.87306 0.0
C1741 C 0.35706 0.16797 0.87263 0.0
C1742 C 0.39799 0.986 0.8454 0.0
C1743 C 0.33621 1.0381 0.88319 0.0
H1744 H 0.34453 0.74279 0.83346 0.0
H1745 H 0.37399 0.71755 0.89356 0.0
H1746 H 0.33715 0.97562 0.83401 0.0
H1747 H 0.35879 0.96285 0.8204 0.0
H1748 H 0.34055 0.88188 0.81553 0.0
H1749 H 0.38484 0.84486 0.91286 0.0
H1750 H 0.39362 0.93182 0.89501 0.0
H1751 H 0.37197 0.94857 0.90834 0.0
H1752 H 0.39954 0.16861 0.84927 0.0
H1753 H 0.347 0.21458 0.87946 0.0
H1754 H 0.39164 0.94391 0.83245 0.0
H1755 H 0.40354 0.93866 0.85782 0.0
H1756 H 0.40969 1.0247 0.83829 0.0
H1757 H 0.32826 0.99794 0.87115 0.0
H1758 H 0.32729 0.09404 0.88935 0.0
H1759 H 0.33961 0.99179 0.89686 0.0
C1760 C 0.6102 0.3333 0.8655 0.0
C1761 C 0.62649 0.36919 0.87424 0.0
C1762 C 0.60719 0.23824 0.86515 0.0
C1763 C 0.62056 0.1784 0.87427 0.0
C1764 C 0.63674 0.21529 0.88366 0.0
C1765 C 0.6396 0.30974 0.88323 0.0
C1766 C 0.58993 0.20168 0.85461 0.0
C1767 C 0.65111 0.15497 0.89417 0.0
C1768 C 0.60598 0.94133 0.8926 0.0
C1769 C 0.61331 0.88552 0.87624 0.0
C1770 C 0.60816 1.03636 0.89209 0.0
C1771 C 0.61763 0.07738 0.87453 0.0
C1772 C 0.62514 1.02122 0.85794 0.0
C1773 C 0.62306 0.9258 0.85911 0.0
C1774 C 0.60041 0.09283 0.91045 0.0
C1775 C 0.63518 0.06207 0.83884 0.0
H1776 H 0.60017 0.37908 0.85828 0.0
H1777 H 0.65221 0.33739 0.89005 0.0
H1778 H 0.59371 0.15454 0.84125 0.0
H1779 H 0.5818 0.16204 0.86657 0.0
H1780 H 0.58104 0.25674 0.84795 0.0
H1781 H 0.66263 0.19464 0.90138 0.0
H1782 H 0.64466 0.11335 0.90714 0.0
H1783 H 0.65692 0.10717 0.88201 0.0
H1784 H 0.59845 0.91041 0.9059 0.0
H1785 H 0.6286 0.88302 0.84632 0.0
H1786 H 0.59031 0.14296 0.90407 0.0
H1787 H 0.61167 0.13186 0.91835 0.0
H1788 H 0.59347 0.05051 0.92296 0.0
H1789 H 0.62619 0.11267 0.83061 0.0
H1790 H 0.63948 1.00975 0.82683 0.0
H1791 H 0.64766 0.09873 0.84453 0.0
C1792 C 0.38793 0.97524 0.63406 0.0
C1793 C 0.37465 0.91487 0.62585 0.0
C1794 C 0.385 0.06989 0.63411 0.0
C1795 C 0.36851 0.1061 0.62523 0.0
C1796 C 0.35492 0.04529 0.61703 0.0
C1797 C 0.35807 0.95025 0.61764 0.0
C1798 C 0.39965 0.1312 0.64361 0.0
C1799 C 0.33726 0.08079 0.60715 0.0
C1800 C 0.35395 0.34597 0.64215 0.0
C1801 C 0.36062 0.39954 0.62501 0.0
C1802 C 0.35646 0.25096 0.64244 0.0
C1803 C 0.36551 0.20742 0.62488 0.0
C1804 C 0.37234 0.26138 0.60751 0.0
C1805 C 0.37002 0.35692 0.6079 0.0
C1806 C 0.34948 0.19722 0.66164 0.0
C1807 C 0.38186 0.21796 0.58833 0.0
H1808 H 0.40078 0.94827 0.64044 0.0
H1809 H 0.34788 0.90396 0.61102 0.0
H1810 H 0.40509 0.17727 0.63088 0.0
H1811 H 0.39358 0.17466 0.65651 0.0
H1812 H 0.41137 0.09222 0.65064 0.0
H1813 H 0.32811 1.02504 0.60147 0.0
H1814 H 0.32963 0.12256 0.61918 0.0
H1815 H 0.34053 0.12566 0.59318 0.0
H1816 H 0.34672 0.37867 0.65546 0.0
H1817 H 0.37504 0.39789 0.59452 0.0
H1818 H 0.36104 0.15902 0.66922 0.0
H1819 H 0.33914 0.14648 0.6562 0.0
H1820 H 0.34303 0.24139 0.67418 0.0
H1821 H 0.39453 0.18207 0.59378 0.0
H1822 H 0.38574 0.26863 0.57575 0.0
H1823 H 0.37268 0.16629 0.58086 0.0
C1824 C 0.61381 0.73317 0.61068 0.0
C1825 C 0.62268 0.69081 0.6282 0.0
C1826 C 0.61165 0.82872 0.61001 0.0
C1827 C 0.61812 0.88296 0.62753 0.0
C1828 C 0.62668 0.83978 0.64548 0.0
C1829 C 0.62903 0.74468 0.64546 0.0
C1830 C 0.60266 0.87179 0.59044 0.0
C1831 C 0.63328 0.89398 0.6648 0.0
C1832 C 0.62574 0.13976 0.6201 0.0
C1833 C 0.60897 0.17526 0.62769 0.0
C1834 C 0.62892 0.04474 0.61978 0.0
C1835 C 0.61516 0.98421 0.62764 0.0
C1836 C 0.59846 1.02058 0.63591 0.0
C1837 C 0.59552 0.11514 0.63559 0.0
C1838 C 0.64681 1.00896 0.61055 0.0
C1839 C 0.58359 0.95952 0.64502 0.0
H1840 H 0.60905 0.69194 0.5972 0.0
H1841 H 0.63586 0.71216 0.65908 0.0
H1842 H 0.58986 0.90785 0.59538 0.0
H1843 H 0.61204 0.92326 0.58326 0.0
H1844 H 0.59909 0.82089 0.57778 0.0
H1845 H 0.63948 0.85011 0.67757 0.0
H1846 H 0.64372 0.94463 0.65959 0.0
H1847 H 0.62157 0.93232 0.67199 0.0
H1848 H 0.63608 0.18589 0.61374 0.0
H1849 H 0.58252 0.14226 0.6415 0.0
H1850 H 0.64388 0.96398 0.5965 0.0
H1851 H 0.65412 0.96723 0.62286 0.0
H1852 H 0.65613 0.06456 0.60517 0.0
H1853 H 0.57844 0.91312 0.63217 0.0
H1854 H 0.57171 0.99869 0.6516 0.0
H1855 H 0.58936 0.91641 0.65817 0.0
loop_
_geom_bond_atom_site_label_1
_geom_bond_atom_site_label_2
_geom_bond_distance
_geom_bond_site_symmetry_2
_ccdc_geom_bond_type
Tb0 O3 2.453 . S
Tb0 O4 2.596 . S
Tb0 O5 2.374 . S
Tb0 O13 2.343 . S
Tb0 O15 2.353 . S
Tb0 O17 2.427 . S
Tb0 O18 2.513 . S
C1 O5 1.251 . S
C1 O7 1.263 . S
Tb2 O4 2.343 . S
Tb2 O7 2.353 . S
Tb2 O10 2.427 . S
Tb2 O11 2.513 . S
Tb2 O12 2.453 1_545 S
Tb2 O13 2.596 . S
Tb2 O14 2.374 . S
O3 Tb0 2.453 . S
O3 C19 1.245 . S
O4 Tb0 2.596 . S
O4 Tb2 2.343 . S
O4 C19 1.259 . S
O5 Tb0 2.374 . S
O5 C1 1.251 . S
C6 O10 1.275 . S
C6 O11 1.246 . S
O7 C1 1.263 . S
O7 Tb2 2.353 . S
C8 O12 1.245 . S
C8 O13 1.259 1_565 S
C9 O14 1.250 . S
C9 O15 1.263 . S
O10 Tb2 2.427 . S
O10 C6 1.275 . S
O11 Tb2 2.513 . S
O11 C6 1.246 . S
O12 Tb2 2.453 1_565 S
O12 C8 1.245 . S
O13 Tb0 2.343 . S
O13 Tb2 2.596 . S
O13 C8 1.259 1_545 S
O14 Tb2 2.374 . S
O14 C9 1.250 . S
O15 Tb0 2.353 . S
O15 C9 1.263 . S
C16 O17 1.275 . S
C16 O18 1.246 . S
O17 Tb0 2.427 . S
O17 C16 1.275 . S
O18 Tb0 2.513 . S
O18 C16 1.246 . S
C19 O3 1.245 . S
C19 O4 1.259 . S
Tb20 O23 2.453 . S
Tb20 O24 2.596 . S
Tb20 O25 2.374 . S
Tb20 O33 2.343 . S
Tb20 O35 2.353 . S
Tb20 O37 2.427 . S
Tb20 O38 2.513 . S
C21 O25 1.251 . S
C21 O27 1.263 . S
Tb22 O24 2.343 . S
Tb22 O27 2.353 . S
Tb22 O30 2.427 . S
Tb22 O31 2.513 . S
Tb22 O32 2.453 1_565 S
Tb22 O33 2.596 . S
Tb22 O34 2.374 . S
O23 Tb20 2.453 . S
O23 C39 1.245 . S
O24 Tb20 2.596 . S
O24 Tb22 2.343 . S
O24 C39 1.259 . S
O25 Tb20 2.374 . S
O25 C21 1.251 . S
C26 O30 1.275 . S
C26 O31 1.246 . S
O27 C21 1.263 . S
O27 Tb22 2.353 . S
C28 O32 1.245 . S
C28 O33 1.259 1_545 S
C29 O34 1.250 . S
C29 O35 1.263 . S
O30 Tb22 2.427 . S
O30 C26 1.275 . S
O31 Tb22 2.513 . S
O31 C26 1.246 . S
O32 Tb22 2.453 1_545 S
O32 C28 1.245 . S
O33 Tb20 2.343 . S
O33 Tb22 2.596 . S
O33 C28 1.259 1_565 S
O34 Tb22 2.374 . S
O34 C29 1.250 . S
O35 Tb20 2.353 . S
O35 C29 1.263 . S
C36 O37 1.275 . S
C36 O38 1.246 . S
O37 Tb20 2.427 . S
O37 C36 1.275 . S
O38 Tb20 2.513 . S
O38 C36 1.246 . S
C39 O23 1.245 . S
C39 O24 1.259 . S
Tb40 O43 2.453 . S
Tb40 O44 2.596 . S
Tb40 O45 2.374 . S
Tb40 O53 2.343 . S
Tb40 O55 2.353 . S
Tb40 O57 2.427 . S
Tb40 O58 2.513 . S
C41 O45 1.251 . S
C41 O47 1.263 . S
Tb42 O44 2.343 . S
Tb42 O47 2.353 . S
Tb42 O50 2.427 . S
Tb42 O51 2.513 . S
Tb42 O52 2.453 1_565 S
Tb42 O53 2.596 . S
Tb42 O54 2.374 . S
O43 Tb40 2.453 . S
O43 C59 1.245 . S
O44 Tb40 2.596 . S
O44 Tb42 2.343 . S
O44 C59 1.259 . S
O45 Tb40 2.374 . S
O45 C41 1.251 . S
C46 O50 1.275 . S
C46 O51 1.246 . S
O47 C41 1.263 . S
O47 Tb42 2.353 . S
C48 O52 1.245 . S
C48 O53 1.259 1_545 S
C49 O54 1.250 . S
C49 O55 1.263 . S
O50 Tb42 2.427 . S
O50 C46 1.275 . S
O51 Tb42 2.513 . S
O51 C46 1.246 . S
O52 Tb42 2.453 1_545 S
O52 C48 1.245 . S
O53 Tb40 2.343 . S
O53 Tb42 2.596 . S
O53 C48 1.259 1_565 S
O54 Tb42 2.374 . S
O54 C49 1.250 . S
O55 Tb40 2.353 . S
O55 C49 1.263 . S
C56 O57 1.275 . S
C56 O58 1.246 . S
O57 Tb40 2.427 . S
O57 C56 1.275 . S
O58 Tb40 2.513 . S
O58 C56 1.246 . S
C59 O43 1.245 . S
C59 O44 1.259 . S
Tb60 O63 2.453 . S
Tb60 O64 2.596 . S
Tb60 O65 2.374 . S
Tb60 O73 2.343 . S
Tb60 O75 2.353 . S
Tb60 O77 2.427 . S
Tb60 O78 2.513 . S
C61 O65 1.251 . S
C61 O67 1.263 . S
Tb62 O64 2.343 . S
Tb62 O67 2.353 . S
Tb62 O70 2.427 . S
Tb62 O71 2.513 . S
Tb62 O72 2.453 1_545 S
Tb62 O73 2.596 . S
Tb62 O74 2.374 . S
O63 Tb60 2.453 . S
O63 C79 1.245 . S
O64 Tb60 2.596 . S
O64 Tb62 2.343 . S
O64 C79 1.259 . S
O65 Tb60 2.374 . S
O65 C61 1.251 . S
C66 O70 1.275 . S
C66 O71 1.246 . S
O67 C61 1.263 . S
O67 Tb62 2.353 . S
C68 O72 1.245 . S
C68 O73 1.259 1_565 S
C69 O74 1.250 . S
C69 O75 1.263 . S
O70 Tb62 2.427 . S
O70 C66 1.275 . S
O71 Tb62 2.513 . S
O71 C66 1.246 . S
O72 Tb62 2.453 1_565 S
O72 C68 1.245 . S
O73 Tb60 2.343 . S
O73 Tb62 2.596 . S
O73 C68 1.259 1_545 S
O74 Tb62 2.374 . S
O74 C69 1.250 . S
O75 Tb60 2.353 . S
O75 C69 1.263 . S
C76 O77 1.275 . S
C76 O78 1.246 . S
O77 Tb60 2.427 . S
O77 C76 1.275 . S
O78 Tb60 2.513 . S
O78 C76 1.246 . S
C79 O63 1.245 . S
C79 O64 1.259 . S
Tb80 O83 2.453 1_565 S
Tb80 O84 2.596 . S
Tb80 O85 2.374 . S
Tb80 O93 2.343 . S
Tb80 O95 2.353 . S
Tb80 O97 2.427 . S
Tb80 O98 2.513 . S
C81 O85 1.251 . S
C81 O87 1.263 . S
Tb82 O84 2.343 . S
Tb82 O87 2.353 . S
Tb82 O90 2.427 . S
Tb82 O91 2.513 . S
Tb82 O92 2.453 . S
Tb82 O93 2.596 . S
Tb82 O94 2.374 . S
O83 Tb80 2.453 1_545 S
O83 C99 1.245 . S
O84 Tb80 2.596 . S
O84 Tb82 2.343 . S
O84 C99 1.259 1_565 S
O85 Tb80 2.374 . S
O85 C81 1.251 . S
C86 O90 1.275 . S
C86 O91 1.246 . S
O87 C81 1.263 . S
O87 Tb82 2.353 . S
C88 O92 1.245 . S
C88 O93 1.259 . S
C89 O94 1.250 . S
C89 O95 1.263 . S
O90 Tb82 2.427 . S
O90 C86 1.275 . S
O91 Tb82 2.513 . S
O91 C86 1.246 . S
O92 Tb82 2.453 . S
O92 C88 1.245 . S
O93 Tb80 2.343 . S
O93 Tb82 2.596 . S
O93 C88 1.259 . S
O94 Tb82 2.374 . S
O94 C89 1.250 . S
O95 Tb80 2.353 . S
O95 C89 1.263 . S
C96 O97 1.275 . S
C96 O98 1.246 . S
O97 Tb80 2.427 . S
O97 C96 1.275 . S
O98 Tb80 2.513 . S
O98 C96 1.246 . S
C99 O83 1.245 . S
C99 O84 1.259 1_545 S
Tb100 O103 2.453 1_545 S
Tb100 O104 2.596 . S
Tb100 O105 2.374 . S
Tb100 O113 2.343 . S
Tb100 O115 2.353 . S
Tb100 O117 2.427 . S
Tb100 O118 2.513 . S
C101 O105 1.251 . S
C101 O107 1.263 . S
Tb102 O104 2.343 . S
Tb102 O107 2.353 . S
Tb102 O110 2.427 . S
Tb102 O111 2.513 . S
Tb102 O112 2.453 . S
Tb102 O113 2.596 . S
Tb102 O114 2.374 . S
O103 Tb100 2.453 1_565 S
O103 C119 1.245 . S
O104 Tb100 2.596 . S
O104 Tb102 2.343 . S
O104 C119 1.259 1_545 S
O105 Tb100 2.374 . S
O105 C101 1.251 . S
C106 O110 1.275 . S
C106 O111 1.246 . S
O107 C101 1.263 . S
O107 Tb102 2.353 . S
C108 O112 1.245 . S
C108 O113 1.259 . S
C109 O114 1.250 . S
C109 O115 1.263 . S
O110 Tb102 2.427 . S
O110 C106 1.275 . S
O111 Tb102 2.513 . S
O111 C106 1.246 . S
O112 Tb102 2.453 . S
O112 C108 1.245 . S
O113 Tb100 2.343 . S
O113 Tb102 2.596 . S
O113 C108 1.259 . S
O114 Tb102 2.374 . S
O114 C109 1.250 . S
O115 Tb100 2.353 . S
O115 C109 1.263 . S
C116 O117 1.275 . S
C116 O118 1.246 . S
O117 Tb100 2.427 . S
O117 C116 1.275 . S
O118 Tb100 2.513 . S
O118 C116 1.246 . S
C119 O103 1.245 . S
C119 O104 1.259 1_565 S
Tb120 O123 2.453 1_545 S
Tb120 O124 2.596 . S
Tb120 O125 2.374 . S
Tb120 O133 2.343 . S
Tb120 O135 2.353 . S
Tb120 O137 2.427 . S
Tb120 O138 2.513 . S
C121 O125 1.251 . S
C121 O127 1.263 . S
Tb122 O124 2.343 . S
Tb122 O127 2.353 . S
Tb122 O130 2.427 . S
Tb122 O131 2.513 . S
Tb122 O132 2.453 . S
Tb122 O133 2.596 . S
Tb122 O134 2.374 . S
O123 Tb120 2.453 1_565 S
O123 C139 1.245 . S
O124 Tb120 2.596 . S
O124 Tb122 2.343 . S
O124 C139 1.259 1_545 S
O125 Tb120 2.374 . S
O125 C121 1.251 . S
C126 O130 1.275 . S
C126 O131 1.246 . S
O127 C121 1.263 . S
O127 Tb122 2.353 . S
C128 O132 1.245 . S
C128 O133 1.259 . S
C129 O134 1.250 . S
C129 O135 1.263 . S
O130 Tb122 2.427 . S
O130 C126 1.275 . S
O131 Tb122 2.513 . S
O131 C126 1.246 . S
O132 Tb122 2.453 . S
O132 C128 1.245 . S
O133 Tb120 2.343 . S
O133 Tb122 2.596 . S
O133 C128 1.259 . S
O134 Tb122 2.374 . S
O134 C129 1.250 . S
O135 Tb120 2.353 . S
O135 C129 1.263 . S
C136 O137 1.275 . S
C136 O138 1.246 . S
O137 Tb120 2.427 . S
O137 C136 1.275 . S
O138 Tb120 2.513 . S
O138 C136 1.246 . S
C139 O123 1.245 . S
C139 O124 1.259 1_565 S
Tb140 O143 2.453 1_565 S
Tb140 O144 2.596 . S
Tb140 O145 2.374 . S
Tb140 O153 2.343 . S
Tb140 O155 2.353 . S
Tb140 O157 2.427 . S
Tb140 O158 2.513 . S
C141 O145 1.251 . S
C141 O147 1.263 . S
Tb142 O144 2.343 . S
Tb142 O147 2.353 . S
Tb142 O150 2.427 . S
Tb142 O151 2.513 . S
Tb142 O152 2.453 . S
Tb142 O153 2.596 . S
Tb142 O154 2.374 . S
O143 Tb140 2.453 1_545 S
O143 C159 1.245 . S
O144 Tb140 2.596 . S
O144 Tb142 2.343 . S
O144 C159 1.259 1_565 S
O145 Tb140 2.374 . S
O145 C141 1.251 . S
C146 O150 1.275 . S
C146 O151 1.246 . S
O147 C141 1.263 . S
O147 Tb142 2.353 . S
C148 O152 1.245 . S
C148 O153 1.259 . S
C149 O154 1.250 . S
C149 O155 1.263 . S
O150 Tb142 2.427 . S
O150 C146 1.275 . S
O151 Tb142 2.513 . S
O151 C146 1.246 . S
O152 Tb142 2.453 . S
O152 C148 1.245 . S
O153 Tb140 2.343 . S
O153 Tb142 2.596 . S
O153 C148 1.259 . S
O154 Tb142 2.374 . S
O154 C149 1.250 . S
O155 Tb140 2.353 . S
O155 C149 1.263 . S
C156 O157 1.275 . S
C156 O158 1.246 . S
O157 Tb140 2.427 . S
O157 C156 1.275 . S
O158 Tb140 2.513 . S
O158 C156 1.246 . S
C159 O143 1.245 . S
C159 O144 1.259 1_545 S
Tb160 O163 2.453 . S
Tb160 O164 2.596 . S
Tb160 O165 2.374 . S
Tb160 O173 2.343 . S
Tb160 O175 2.353 . S
Tb160 O177 2.427 . S
Tb160 O178 2.513 . S
C161 O165 1.251 . S
C161 O167 1.263 . S
Tb162 O164 2.343 . S
Tb162 O167 2.353 . S
Tb162 O170 2.427 . S
Tb162 O171 2.513 . S
Tb162 O172 2.453 . S
Tb162 O173 2.596 . S
Tb162 O174 2.374 . S
O163 Tb160 2.453 . S
O163 C179 1.245 . S
O164 Tb160 2.596 . S
O164 Tb162 2.343 . S
O164 C179 1.259 . S
O165 Tb160 2.374 . S
O165 C161 1.251 . S
C166 O170 1.275 . S
C166 O171 1.246 . S
O167 C161 1.263 . S
O167 Tb162 2.353 . S
C168 O172 1.245 . S
C168 O173 1.259 . S
C169 O174 1.250 . S
C169 O175 1.263 . S
O170 Tb162 2.427 . S
O170 C166 1.275 . S
O171 Tb162 2.513 . S
O171 C166 1.246 . S
O172 Tb162 2.453 . S
O172 C168 1.245 . S
O173 Tb160 2.343 . S
O173 Tb162 2.596 . S
O173 C168 1.259 . S
O174 Tb162 2.374 . S
O174 C169 1.250 . S
O175 Tb160 2.353 . S
O175 C169 1.263 . S
C176 O177 1.275 . S
C176 O178 1.246 . S
O177 Tb160 2.427 . S
O177 C176 1.275 . S
O178 Tb160 2.513 . S
O178 C176 1.246 . S
C179 O163 1.245 . S
C179 O164 1.259 . S
Tb180 O183 2.453 . S
Tb180 O184 2.596 . S
Tb180 O185 2.374 . S
Tb180 O193 2.343 . S
Tb180 O195 2.353 . S
Tb180 O197 2.427 . S
Tb180 O198 2.513 . S
C181 O185 1.251 . S
C181 O187 1.263 . S
Tb182 O184 2.343 . S
Tb182 O187 2.353 . S
Tb182 O190 2.427 . S
Tb182 O191 2.513 . S
Tb182 O192 2.453 . S
Tb182 O193 2.596 . S
Tb182 O194 2.374 . S
O183 Tb180 2.453 . S
O183 C199 1.245 . S
O184 Tb180 2.596 . S
O184 Tb182 2.343 . S
O184 C199 1.259 . S
O185 Tb180 2.374 . S
O185 C181 1.251 . S
C186 O190 1.275 . S
C186 O191 1.246 . S
O187 C181 1.263 . S
O187 Tb182 2.353 . S
C188 O192 1.245 . S
C188 O193 1.259 . S
C189 O194 1.250 . S
C189 O195 1.263 . S
O190 Tb182 2.427 . S
O190 C186 1.275 . S
O191 Tb182 2.513 . S
O191 C186 1.246 . S
O192 Tb182 2.453 . S
O192 C188 1.245 . S
O193 Tb180 2.343 . S
O193 Tb182 2.596 . S
O193 C188 1.259 . S
O194 Tb182 2.374 . S
O194 C189 1.250 . S
O195 Tb180 2.353 . S
O195 C189 1.263 . S
C196 O197 1.275 . S
C196 O198 1.246 . S
O197 Tb180 2.427 . S
O197 C196 1.275 . S
O198 Tb180 2.513 . S
O198 C196 1.246 . S
C199 O183 1.245 . S
C199 O184 1.259 . S
Tb200 O203 2.453 . S
Tb200 O204 2.596 . S
Tb200 O205 2.374 . S
Tb200 O213 2.343 . S
Tb200 O215 2.353 . S
Tb200 O217 2.427 . S
Tb200 O218 2.513 . S
C201 O205 1.251 . S
C201 O207 1.263 . S
Tb202 O204 2.343 . S
Tb202 O207 2.353 . S
Tb202 O210 2.427 . S
Tb202 O211 2.513 . S
Tb202 O212 2.453 . S
Tb202 O213 2.596 . S
Tb202 O214 2.374 . S
O203 Tb200 2.453 . S
O203 C219 1.245 . S
O204 Tb200 2.596 . S
O204 Tb202 2.343 . S
O204 C219 1.259 . S
O205 Tb200 2.374 . S
O205 C201 1.251 . S
C206 O210 1.275 . S
C206 O211 1.246 . S
O207 C201 1.263 . S
O207 Tb202 2.353 . S
C208 O212 1.245 . S
C208 O213 1.259 . S
C209 O214 1.250 . S
C209 O215 1.263 . S
O210 Tb202 2.427 . S
O210 C206 1.275 . S
O211 Tb202 2.513 . S
O211 C206 1.246 . S
O212 Tb202 2.453 . S
O212 C208 1.245 . S
O213 Tb200 2.343 . S
O213 Tb202 2.596 . S
O213 C208 1.259 . S
O214 Tb202 2.374 . S
O214 C209 1.250 . S
O215 Tb200 2.353 . S
O215 C209 1.263 . S
C216 O217 1.275 . S
C216 O218 1.246 . S
O217 Tb200 2.427 . S
O217 C216 1.275 . S
O218 Tb200 2.513 . S
O218 C216 1.246 . S
C219 O203 1.245 . S
C219 O204 1.259 . S
Tb220 O223 2.453 . S
Tb220 O224 2.596 . S
Tb220 O225 2.374 . S
Tb220 O233 2.343 . S
Tb220 O235 2.353 . S
Tb220 O237 2.427 . S
Tb220 O238 2.513 . S
C221 O225 1.251 . S
C221 O227 1.263 . S
Tb222 O224 2.343 . S
Tb222 O227 2.353 . S
Tb222 O230 2.427 . S
Tb222 O231 2.513 . S
Tb222 O232 2.453 . S
Tb222 O233 2.596 . S
Tb222 O234 2.374 . S
O223 Tb220 2.453 . S
O223 C239 1.245 . S
O224 Tb220 2.596 . S
O224 Tb222 2.343 . S
O224 C239 1.259 . S
O225 Tb220 2.374 . S
O225 C221 1.251 . S
C226 O230 1.275 . S
C226 O231 1.246 . S
O227 C221 1.263 . S
O227 Tb222 2.353 . S
C228 O232 1.245 . S
C228 O233 1.259 . S
C229 O234 1.250 . S
C229 O235 1.263 . S
O230 Tb222 2.427 . S
O230 C226 1.275 . S
O231 Tb222 2.513 . S
O231 C226 1.246 . S
O232 Tb222 2.453 . S
O232 C228 1.245 . S
O233 Tb220 2.343 . S
O233 Tb222 2.596 . S
O233 C228 1.259 . S
O234 Tb222 2.374 . S
O234 C229 1.250 . S
O235 Tb220 2.353 . S
O235 C229 1.263 . S
C236 O237 1.275 . S
C236 O238 1.246 . S
O237 Tb220 2.427 . S
O237 C236 1.275 . S
O238 Tb220 2.513 . S
O238 C236 1.246 . S
C239 O223 1.245 . S
C239 O224 1.259 . S
Tb240 O243 2.453 . S
Tb240 O244 2.596 . S
Tb240 O245 2.374 . S
Tb240 O253 2.343 . S
Tb240 O255 2.353 . S
Tb240 O257 2.427 . S
Tb240 O258 2.513 . S
C241 O245 1.251 . S
C241 O247 1.263 . S
Tb242 O244 2.343 . S
Tb242 O247 2.353 . S
Tb242 O250 2.427 . S
Tb242 O251 2.513 . S
Tb242 O252 2.453 . S
Tb242 O253 2.596 . S
Tb242 O254 2.374 . S
O243 Tb240 2.453 . S
O243 C259 1.245 . S
O244 Tb240 2.596 . S
O244 Tb242 2.343 . S
O244 C259 1.259 . S
O245 Tb240 2.374 . S
O245 C241 1.251 . S
C246 O250 1.275 . S
C246 O251 1.246 . S
O247 C241 1.263 . S
O247 Tb242 2.353 . S
C248 O252 1.245 . S
C248 O253 1.259 . S
C249 O254 1.250 . S
C249 O255 1.263 . S
O250 Tb242 2.427 . S
O250 C246 1.275 . S
O251 Tb242 2.513 . S
O251 C246 1.246 . S
O252 Tb242 2.453 . S
O252 C248 1.245 . S
O253 Tb240 2.343 . S
O253 Tb242 2.596 . S
O253 C248 1.259 . S
O254 Tb242 2.374 . S
O254 C249 1.250 . S
O255 Tb240 2.353 . S
O255 C249 1.263 . S
C256 O257 1.275 . S
C256 O258 1.246 . S
O257 Tb240 2.427 . S
O257 C256 1.275 . S
O258 Tb240 2.513 . S
O258 C256 1.246 . S
C259 O243 1.245 . S
C259 O244 1.259 . S
Tb260 O263 2.453 . S
Tb260 O264 2.596 . S
Tb260 O265 2.374 . S
Tb260 O273 2.343 . S
Tb260 O275 2.353 . S
Tb260 O277 2.427 . S
Tb260 O278 2.513 . S
C261 O265 1.251 . S
C261 O267 1.263 . S
Tb262 O264 2.343 . S
Tb262 O267 2.353 . S
Tb262 O270 2.427 . S
Tb262 O271 2.513 . S
Tb262 O272 2.453 . S
Tb262 O273 2.596 . S
Tb262 O274 2.374 . S
O263 Tb260 2.453 . S
O263 C279 1.245 . S
O264 Tb260 2.596 . S
O264 Tb262 2.343 . S
O264 C279 1.259 . S
O265 Tb260 2.374 . S
O265 C261 1.251 . S
C266 O270 1.275 . S
C266 O271 1.246 . S
O267 C261 1.263 . S
O267 Tb262 2.353 . S
C268 O272 1.245 . S
C268 O273 1.259 . S
C269 O274 1.250 . S
C269 O275 1.263 . S
O270 Tb262 2.427 . S
O270 C266 1.275 . S
O271 Tb262 2.513 . S
O271 C266 1.246 . S
O272 Tb262 2.453 . S
O272 C268 1.245 . S
O273 Tb260 2.343 . S
O273 Tb262 2.596 . S
O273 C268 1.259 . S
O274 Tb262 2.374 . S
O274 C269 1.250 . S
O275 Tb260 2.353 . S
O275 C269 1.263 . S
C276 O277 1.275 . S
C276 O278 1.246 . S
O277 Tb260 2.427 . S
O277 C276 1.275 . S
O278 Tb260 2.513 . S
O278 C276 1.246 . S
C279 O263 1.245 . S
C279 O264 1.259 . S
Tb280 O283 2.453 . S
Tb280 O284 2.596 . S
Tb280 O285 2.374 . S
Tb280 O293 2.343 . S
Tb280 O295 2.353 . S
Tb280 O297 2.427 . S
Tb280 O298 2.513 . S
C281 O285 1.251 . S
C281 O287 1.263 . S
Tb282 O284 2.343 . S
Tb282 O287 2.353 . S
Tb282 O290 2.427 . S
Tb282 O291 2.513 . S
Tb282 O292 2.453 . S
Tb282 O293 2.596 . S
Tb282 O294 2.374 . S
O283 Tb280 2.453 . S
O283 C299 1.245 . S
O284 Tb280 2.596 . S
O284 Tb282 2.343 . S
O284 C299 1.259 . S
O285 Tb280 2.374 . S
O285 C281 1.251 . S
C286 O290 1.275 . S
C286 O291 1.246 . S
O287 C281 1.263 . S
O287 Tb282 2.353 . S
C288 O292 1.245 . S
C288 O293 1.259 . S
C289 O294 1.250 . S
C289 O295 1.263 . S
O290 Tb282 2.427 . S
O290 C286 1.275 . S
O291 Tb282 2.513 . S
O291 C286 1.246 . S
O292 Tb282 2.453 . S
O292 C288 1.245 . S
O293 Tb280 2.343 . S
O293 Tb282 2.596 . S
O293 C288 1.259 . S
O294 Tb282 2.374 . S
O294 C289 1.250 . S
O295 Tb280 2.353 . S
O295 C289 1.263 . S
C296 O297 1.275 . S
C296 O298 1.246 . S
O297 Tb280 2.427 . S
O297 C296 1.275 . S
O298 Tb280 2.513 . S
O298 C296 1.246 . S
C299 O283 1.245 . S
C299 O284 1.259 . S
Tb300 O303 2.453 . S
Tb300 O304 2.596 . S
Tb300 O305 2.374 . S
Tb300 O313 2.343 . S
Tb300 O315 2.353 . S
Tb300 O317 2.427 . S
Tb300 O318 2.513 . S
C301 O305 1.251 . S
C301 O307 1.263 . S
Tb302 O304 2.343 . S
Tb302 O307 2.353 . S
Tb302 O310 2.427 . S
Tb302 O311 2.513 . S
Tb302 O312 2.453 . S
Tb302 O313 2.596 . S
Tb302 O314 2.374 . S
O303 Tb300 2.453 . S
O303 C319 1.245 . S
O304 Tb300 2.596 . S
O304 Tb302 2.343 . S
O304 C319 1.259 . S
O305 Tb300 2.374 . S
O305 C301 1.251 . S
C306 O310 1.275 . S
C306 O311 1.246 . S
O307 C301 1.263 . S
O307 Tb302 2.353 . S
C308 O312 1.245 . S
C308 O313 1.259 . S
C309 O314 1.250 . S
C309 O315 1.263 . S
O310 Tb302 2.427 . S
O310 C306 1.275 . S
O311 Tb302 2.513 . S
O311 C306 1.246 . S
O312 Tb302 2.453 . S
O312 C308 1.245 . S
O313 Tb300 2.343 . S
O313 Tb302 2.596 . S
O313 C308 1.259 . S
O314 Tb302 2.374 . S
O314 C309 1.250 . S
O315 Tb300 2.353 . S
O315 C309 1.263 . S
C316 O317 1.275 . S
C316 O318 1.246 . S
O317 Tb300 2.427 . S
O317 C316 1.275 . S
O318 Tb300 2.513 . S
O318 C316 1.246 . S
C319 O303 1.245 . S
C319 O304 1.259 . S
C320 C321 1.391 . S
C320 C322 1.394 . S
C320 H336 0.931 . S
C321 C320 1.391 . S
C321 C325 1.376 . S
C322 C320 1.394 . S
C322 C323 1.369 . S
C322 C326 1.531 . S
C323 C322 1.369 . S
C323 C324 1.410 . S
C323 C331 1.503 . S
C324 C323 1.410 . S
C324 C325 1.392 . S
C324 C327 1.511 . S
C325 C321 1.376 . S
C325 C324 1.392 . S
C325 H337 0.929 . S
C326 C322 1.531 . S
C326 H338 0.960 . S
C326 H339 0.962 . S
C326 H340 0.960 . S
C327 C324 1.511 . S
C327 H341 0.961 . S
C327 H342 0.961 . S
C327 H343 0.961 . S
C328 C329 1.370 . S
C328 C330 1.363 . S
C328 H344 0.931 . S
C329 C328 1.370 . S
C329 C333 1.408 . S
C330 C328 1.363 . S
C330 C331 1.370 . S
C330 C334 1.524 . S
C331 C323 1.503 . S
C331 C330 1.370 . S
C331 C332 1.403 . S
C332 C331 1.403 . S
C332 C333 1.404 . S
C332 C335 1.539 . S
C333 C329 1.408 . S
C333 C332 1.404 . S
C333 H345 0.930 . S
C334 C330 1.524 . S
C334 H346 0.956 . S
C334 H347 0.961 . S
C334 H348 0.961 . S
C335 C332 1.539 . S
C335 H349 0.958 . S
C335 H350 0.961 . S
C335 H351 0.960 . S
H336 C320 0.931 . S
H337 C325 0.929 . S
H338 C326 0.960 . S
H339 C326 0.962 . S
H340 C326 0.960 . S
H341 C327 0.961 . S
H342 C327 0.961 . S
H343 C327 0.961 . S
H344 C328 0.931 . S
H345 C333 0.930 . S
H346 C334 0.956 . S
H347 C334 0.961 . S
H348 C334 0.961 . S
H349 C335 0.958 . S
H350 C335 0.961 . S
H351 C335 0.960 . S
C352 C353 1.391 . S
C352 C354 1.394 . S
C352 H368 0.931 . S
C353 C352 1.391 . S
C353 C357 1.376 . S
C354 C352 1.394 . S
C354 C355 1.369 . S
C354 C358 1.531 . S
C355 C354 1.369 . S
C355 C356 1.410 . S
C355 C363 1.503 . S
C356 C355 1.410 . S
C356 C357 1.392 . S
C356 C359 1.511 . S
C357 C353 1.376 . S
C357 C356 1.392 . S
C357 H369 0.929 . S
C358 C354 1.531 . S
C358 H370 0.960 . S
C358 H371 0.962 . S
C358 H372 0.960 . S
C359 C356 1.511 . S
C359 H373 0.961 . S
C359 H374 0.961 . S
C359 H375 0.961 . S
C360 C361 1.370 . S
C360 C362 1.363 . S
C360 H376 0.931 . S
C361 C360 1.370 . S
C361 C365 1.408 . S
C362 C360 1.363 . S
C362 C363 1.370 . S
C362 C366 1.524 . S
C363 C355 1.503 . S
C363 C362 1.370 . S
C363 C364 1.403 . S
C364 C363 1.403 . S
C364 C365 1.404 . S
C364 C367 1.539 . S
C365 C361 1.408 . S
C365 C364 1.404 . S
C365 H377 0.930 . S
C366 C362 1.524 . S
C366 H378 0.956 . S
C366 H379 0.961 . S
C366 H380 0.961 . S
C367 C364 1.539 . S
C367 H381 0.958 . S
C367 H382 0.961 . S
C367 H383 0.960 . S
H368 C352 0.931 . S
H369 C357 0.929 . S
H370 C358 0.960 . S
H371 C358 0.962 . S
H372 C358 0.960 . S
H373 C359 0.961 . S
H374 C359 0.961 . S
H375 C359 0.961 . S
H376 C360 0.931 . S
H377 C365 0.930 . S
H378 C366 0.956 . S
H379 C366 0.961 . S
H380 C366 0.961 . S
H381 C367 0.958 . S
H382 C367 0.961 . S
H383 C367 0.960 . S
C384 C385 1.391 . S
C384 C386 1.394 . S
C384 H400 0.931 . S
C385 C384 1.391 . S
C385 C389 1.376 . S
C386 C384 1.394 . S
C386 C387 1.369 . S
C386 C390 1.531 . S
C387 C386 1.369 . S
C387 C388 1.410 . S
C387 C395 1.503 . S
C388 C387 1.410 . S
C388 C389 1.392 . S
C388 C391 1.511 . S
C389 C385 1.376 . S
C389 C388 1.392 . S
C389 H401 0.929 . S
C390 C386 1.531 . S
C390 H402 0.960 . S
C390 H403 0.962 . S
C390 H404 0.960 . S
C391 C388 1.511 . S
C391 H405 0.961 . S
C391 H406 0.961 . S
C391 H407 0.961 . S
C392 C393 1.370 . S
C392 C394 1.363 . S
C392 H408 0.931 . S
C393 C392 1.370 . S
C393 C397 1.408 . S
C394 C392 1.363 . S
C394 C395 1.370 . S
C394 C398 1.524 . S
C395 C387 1.503 . S
C395 C394 1.370 . S
C395 C396 1.403 . S
C396 C395 1.403 . S
C396 C397 1.404 . S
C396 C399 1.539 . S
C397 C393 1.408 . S
C397 C396 1.404 . S
C397 H409 0.930 . S
C398 C394 1.524 . S
C398 H410 0.956 . S
C398 H411 0.961 . S
C398 H412 0.961 . S
C399 C396 1.539 . S
C399 H413 0.958 . S
C399 H414 0.961 . S
C399 H415 0.960 . S
H400 C384 0.931 . S
H401 C389 0.929 . S
H402 C390 0.960 . S
H403 C390 0.962 . S
H404 C390 0.960 . S
H405 C391 0.961 . S
H406 C391 0.961 . S
H407 C391 0.961 . S
H408 C392 0.931 . S
H409 C397 0.930 . S
H410 C398 0.956 . S
H411 C398 0.961 . S
H412 C398 0.961 . S
H413 C399 0.958 . S
H414 C399 0.961 . S
H415 C399 0.960 . S
C416 C417 1.391 . S
C416 C418 1.394 . S
C416 H432 0.931 . S
C417 C416 1.391 . S
C417 C421 1.376 . S
C418 C416 1.394 . S
C418 C419 1.369 . S
C418 C422 1.531 . S
C419 C418 1.369 . S
C419 C420 1.410 . S
C419 C427 1.503 . S
C420 C419 1.410 . S
C420 C421 1.392 . S
C420 C423 1.511 . S
C421 C417 1.376 . S
C421 C420 1.392 . S
C421 H433 0.929 . S
C422 C418 1.531 . S
C422 H434 0.960 . S
C422 H435 0.962 . S
C422 H436 0.960 . S
C423 C420 1.511 . S
C423 H437 0.961 . S
C423 H438 0.961 . S
C423 H439 0.961 . S
C424 C425 1.370 . S
C424 C426 1.363 . S
C424 H440 0.931 . S
C425 C424 1.370 . S
C425 C429 1.408 . S
C426 C424 1.363 . S
C426 C427 1.370 . S
C426 C430 1.524 . S
C427 C419 1.503 . S
C427 C426 1.370 . S
C427 C428 1.403 . S
C428 C427 1.403 . S
C428 C429 1.404 . S
C428 C431 1.539 . S
C429 C425 1.408 . S
C429 C428 1.404 . S
C429 H441 0.930 . S
C430 C426 1.524 . S
C430 H442 0.956 . S
C430 H443 0.961 . S
C430 H444 0.961 . S
C431 C428 1.539 . S
C431 H445 0.958 . S
C431 H446 0.961 . S
C431 H447 0.960 . S
H432 C416 0.931 . S
H433 C421 0.929 . S
H434 C422 0.960 . S
H435 C422 0.962 . S
H436 C422 0.960 . S
H437 C423 0.961 . S
H438 C423 0.961 . S
H439 C423 0.961 . S
H440 C424 0.931 . S
H441 C429 0.930 . S
H442 C430 0.956 . S
H443 C430 0.961 . S
H444 C430 0.961 . S
H445 C431 0.958 . S
H446 C431 0.961 . S
H447 C431 0.960 . S
C448 C449 1.391 . S
C448 C450 1.394 . S
C448 H464 0.931 . S
C449 C448 1.391 . S
C449 C453 1.376 . S
C450 C448 1.394 . S
C450 C451 1.369 . S
C450 C454 1.531 . S
C451 C450 1.369 . S
C451 C452 1.410 . S
C451 C459 1.503 . S
C452 C451 1.410 . S
C452 C453 1.392 . S
C452 C455 1.511 . S
C453 C449 1.376 . S
C453 C452 1.392 . S
C453 H465 0.929 . S
C454 C450 1.531 . S
C454 H466 0.960 . S
C454 H467 0.962 . S
C454 H468 0.960 . S
C455 C452 1.511 . S
C455 H469 0.961 . S
C455 H470 0.961 . S
C455 H471 0.961 . S
C456 C457 1.370 . S
C456 C458 1.363 . S
C456 H472 0.931 . S
C457 C456 1.370 . S
C457 C461 1.408 . S
C458 C456 1.363 . S
C458 C459 1.370 . S
C458 C462 1.524 . S
C459 C451 1.503 . S
C459 C458 1.370 . S
C459 C460 1.403 . S
C460 C459 1.403 . S
C460 C461 1.404 . S
C460 C463 1.539 . S
C461 C457 1.408 . S
C461 C460 1.404 . S
C461 H473 0.930 . S
C462 C458 1.524 . S
C462 H474 0.956 . S
C462 H475 0.961 . S
C462 H476 0.961 . S
C463 C460 1.539 . S
C463 H477 0.958 . S
C463 H478 0.961 . S
C463 H479 0.960 . S
H464 C448 0.931 . S
H465 C453 0.929 . S
H466 C454 0.960 . S
H467 C454 0.962 . S
H468 C454 0.960 . S
H469 C455 0.961 . S
H470 C455 0.961 . S
H471 C455 0.961 . S
H472 C456 0.931 . S
H473 C461 0.930 . S
H474 C462 0.956 . S
H475 C462 0.961 . S
H476 C462 0.961 . S
H477 C463 0.958 . S
H478 C463 0.961 . S
H479 C463 0.960 . S
C480 C481 1.391 . S
C480 C482 1.394 . S
C480 H496 0.931 . S
C481 C480 1.391 . S
C481 C485 1.376 . S
C482 C480 1.394 . S
C482 C483 1.369 . S
C482 C486 1.531 . S
C483 C482 1.369 . S
C483 C484 1.410 . S
C483 C491 1.503 . S
C484 C483 1.410 . S
C484 C485 1.392 . S
C484 C487 1.511 . S
C485 C481 1.376 . S
C485 C484 1.392 . S
C485 H497 0.929 . S
C486 C482 1.531 . S
C486 H498 0.960 . S
C486 H499 0.962 . S
C486 H500 0.960 . S
C487 C484 1.511 . S
C487 H501 0.961 . S
C487 H502 0.961 . S
C487 H503 0.961 . S
C488 C489 1.370 . S
C488 C490 1.363 . S
C488 H504 0.931 . S
C489 C488 1.370 . S
C489 C493 1.408 . S
C490 C488 1.363 . S
C490 C491 1.370 . S
C490 C494 1.524 . S
C491 C483 1.503 . S
C491 C490 1.370 . S
C491 C492 1.403 . S
C492 C491 1.403 . S
C492 C493 1.404 . S
C492 C495 1.539 . S
C493 C489 1.408 . S
C493 C492 1.404 . S
C493 H505 0.930 . S
C494 C490 1.524 . S
C494 H506 0.956 . S
C494 H507 0.961 . S
C494 H508 0.961 . S
C495 C492 1.539 . S
C495 H509 0.958 . S
C495 H510 0.961 . S
C495 H511 0.960 . S
H496 C480 0.931 . S
H497 C485 0.929 . S
H498 C486 0.960 . S
H499 C486 0.962 . S
H500 C486 0.960 . S
H501 C487 0.961 . S
H502 C487 0.961 . S
H503 C487 0.961 . S
H504 C488 0.931 . S
H505 C493 0.930 . S
H506 C494 0.956 . S
H507 C494 0.961 . S
H508 C494 0.961 . S
H509 C495 0.958 . S
H510 C495 0.961 . S
H511 C495 0.960 . S
C512 C513 1.391 . S
C512 C514 1.394 . S
C512 H528 0.931 . S
C513 C512 1.391 . S
C513 C517 1.376 . S
C514 C512 1.394 . S
C514 C515 1.369 . S
C514 C518 1.531 . S
C515 C514 1.369 . S
C515 C516 1.410 . S
C515 C523 1.503 . S
C516 C515 1.410 . S
C516 C517 1.392 . S
C516 C519 1.511 . S
C517 C513 1.376 . S
C517 C516 1.392 . S
C517 H529 0.929 . S
C518 C514 1.531 . S
C518 H530 0.960 . S
C518 H531 0.962 . S
C518 H532 0.960 . S
C519 C516 1.511 . S
C519 H533 0.961 . S
C519 H534 0.961 . S
C519 H535 0.961 . S
C520 C521 1.370 . S
C520 C522 1.363 . S
C520 H536 0.931 . S
C521 C520 1.370 . S
C521 C525 1.408 . S
C522 C520 1.363 . S
C522 C523 1.370 . S
C522 C526 1.524 . S
C523 C515 1.503 . S
C523 C522 1.370 . S
C523 C524 1.403 . S
C524 C523 1.403 . S
C524 C525 1.404 . S
C524 C527 1.539 . S
C525 C521 1.408 . S
C525 C524 1.404 . S
C525 H537 0.930 . S
C526 C522 1.524 . S
C526 H538 0.956 . S
C526 H539 0.961 . S
C526 H540 0.961 . S
C527 C524 1.539 . S
C527 H541 0.958 . S
C527 H542 0.961 . S
C527 H543 0.960 . S
H528 C512 0.931 . S
H529 C517 0.929 . S
H530 C518 0.960 . S
H531 C518 0.962 . S
H532 C518 0.960 . S
H533 C519 0.961 . S
H534 C519 0.961 . S
H535 C519 0.961 . S
H536 C520 0.931 . S
H537 C525 0.930 . S
H538 C526 0.956 . S
H539 C526 0.961 . S
H540 C526 0.961 . S
H541 C527 0.958 . S
H542 C527 0.961 . S
H543 C527 0.960 . S
C544 C545 1.391 . S
C544 C546 1.394 . S
C544 H560 0.931 . S
C545 C544 1.391 . S
C545 C549 1.376 . S
C546 C544 1.394 . S
C546 C547 1.369 . S
C546 C550 1.531 . S
C547 C546 1.369 . S
C547 C548 1.410 . S
C547 C555 1.503 . S
C548 C547 1.410 . S
C548 C549 1.392 . S
C548 C551 1.511 . S
C549 C545 1.376 . S
C549 C548 1.392 . S
C549 H561 0.929 . S
C550 C546 1.531 . S
C550 H562 0.960 . S
C550 H563 0.962 . S
C550 H564 0.960 . S
C551 C548 1.511 . S
C551 H565 0.961 . S
C551 H566 0.961 . S
C551 H567 0.961 . S
C552 C553 1.370 . S
C552 C554 1.363 . S
C552 H568 0.931 . S
C553 C552 1.370 . S
C553 C557 1.408 . S
C554 C552 1.363 . S
C554 C555 1.370 . S
C554 C558 1.524 . S
C555 C547 1.503 . S
C555 C554 1.370 . S
C555 C556 1.403 . S
C556 C555 1.403 . S
C556 C557 1.404 . S
C556 C559 1.539 . S
C557 C553 1.408 . S
C557 C556 1.404 . S
C557 H569 0.930 . S
C558 C554 1.524 . S
C558 H570 0.956 . S
C558 H571 0.961 . S
C558 H572 0.961 . S
C559 C556 1.539 . S
C559 H573 0.958 . S
C559 H574 0.961 . S
C559 H575 0.960 . S
H560 C544 0.931 . S
H561 C549 0.929 . S
H562 C550 0.960 . S
H563 C550 0.962 . S
H564 C550 0.960 . S
H565 C551 0.961 . S
H566 C551 0.961 . S
H567 C551 0.961 . S
H568 C552 0.931 . S
H569 C557 0.930 . S
H570 C558 0.956 . S
H571 C558 0.961 . S
H572 C558 0.961 . S
H573 C559 0.958 . S
H574 C559 0.961 . S
H575 C559 0.960 . S
C576 C577 1.391 . S
C576 C578 1.394 . S
C576 H592 0.931 . S
C577 C576 1.391 . S
C577 C581 1.376 . S
C578 C576 1.394 . S
C578 C579 1.369 1_565 S
C578 C582 1.531 1_565 S
C579 C578 1.369 1_545 S
C579 C580 1.410 1_545 S
C579 C587 1.503 . S
C580 C579 1.410 1_565 S
C580 C581 1.392 . S
C580 C583 1.511 . S
C581 C577 1.376 . S
C581 C580 1.392 . S
C581 H593 0.929 . S
C582 C578 1.531 1_545 S
C582 H594 0.960 . S
C582 H595 0.962 1_545 S
C582 H596 0.960 . S
C583 C580 1.511 . S
C583 H597 0.961 . S
C583 H598 0.961 . S
C583 H599 0.961 1_565 S
C584 C585 1.370 1_565 S
C584 C586 1.363 . S
C584 H600 0.931 . S
C585 C584 1.370 1_545 S
C585 C589 1.408 . S
C586 C584 1.363 . S
C586 C587 1.370 1_565 S
C586 C590 1.524 . S
C587 C579 1.503 . S
C587 C586 1.370 1_545 S
C587 C588 1.403 . S
C588 C587 1.403 . S
C588 C589 1.404 . S
C588 C591 1.539 . S
C589 C585 1.408 . S
C589 C588 1.404 . S
C589 H601 0.930 . S
C590 C586 1.524 . S
C590 H602 0.956 . S
C590 H603 0.961 . S
C590 H604 0.961 . S
C591 C588 1.539 . S
C591 H605 0.958 . S
C591 H606 0.961 . S
C591 H607 0.960 . S
H592 C576 0.931 . S
H593 C581 0.929 . S
H594 C582 0.960 . S
H595 C582 0.962 1_565 S
H596 C582 0.960 . S
H597 C583 0.961 . S
H598 C583 0.961 . S
H599 C583 0.961 1_545 S
H600 C584 0.931 . S
H601 C589 0.930 . S
H602 C590 0.956 . S
H603 C590 0.961 . S
H604 C590 0.961 . S
H605 C591 0.958 . S
H606 C591 0.961 . S
H607 C591 0.960 . S
C608 C609 1.391 . S
C608 C610 1.394 . S
C608 H624 0.931 . S
C609 C608 1.391 . S
C609 C613 1.376 . S
C610 C608 1.394 . S
C610 C611 1.369 . S
C610 C614 1.531 . S
C611 C610 1.369 . S
C611 C612 1.410 . S
C611 C619 1.503 1_545 S
C612 C611 1.410 . S
C612 C613 1.392 . S
C612 C615 1.511 1_545 S
C613 C609 1.376 . S
C613 C612 1.392 . S
C613 H625 0.929 . S
C614 C610 1.531 . S
C614 H626 0.960 . S
C614 H627 0.962 . S
C614 H628 0.960 . S
C615 C612 1.511 1_565 S
C615 H629 0.961 . S
C615 H630 0.961 . S
C615 H631 0.961 1_565 S
C616 C617 1.370 . S
C616 C618 1.363 . S
C616 H632 0.931 . S
C617 C616 1.370 . S
C617 C621 1.408 1_565 S
C618 C616 1.363 . S
C618 C619 1.370 . S
C618 C622 1.524 . S
C619 C611 1.503 1_565 S
C619 C618 1.370 . S
C619 C620 1.403 1_565 S
C620 C619 1.403 1_545 S
C620 C621 1.404 . S
C620 C623 1.539 . S
C621 C617 1.408 1_545 S
C621 C620 1.404 . S
C621 H633 0.930 . S
C622 C618 1.524 . S
C622 H634 0.956 . S
C622 H635 0.961 . S
C622 H636 0.961 . S
C623 C620 1.539 . S
C623 H637 0.958 . S
C623 H638 0.961 . S
C623 H639 0.960 . S
H624 C608 0.931 . S
H625 C613 0.929 . S
H626 C614 0.960 . S
H627 C614 0.962 . S
H628 C614 0.960 . S
H629 C615 0.961 . S
H630 C615 0.961 . S
H631 C615 0.961 1_545 S
H632 C616 0.931 . S
H633 C621 0.930 . S
H634 C622 0.956 . S
H635 C622 0.961 . S
H636 C622 0.961 . S
H637 C623 0.958 . S
H638 C623 0.961 . S
H639 C623 0.960 . S
C640 C641 1.391 . S
C640 C642 1.394 1_545 S
C640 H656 0.931 . S
C641 C640 1.391 . S
C641 C645 1.376 . S
C642 C640 1.394 1_565 S
C642 C643 1.369 . S
C642 C646 1.531 . S
C643 C642 1.369 . S
C643 C644 1.410 1_565 S
C643 C651 1.503 . S
C644 C643 1.410 1_545 S
C644 C645 1.392 . S
C644 C647 1.511 . S
C645 C641 1.376 . S
C645 C644 1.392 . S
C645 H657 0.929 . S
C646 C642 1.531 . S
C646 H658 0.960 . S
C646 H659 0.962 . S
C646 H660 0.960 . S
C647 C644 1.511 . S
C647 H661 0.961 . S
C647 H662 0.961 . S
C647 H663 0.961 . S
C648 C649 1.370 1_545 S
C648 C650 1.363 . S
C648 H664 0.931 . S
C649 C648 1.370 1_565 S
C649 C653 1.408 . S
C650 C648 1.363 . S
C650 C651 1.370 1_545 S
C650 C654 1.524 . S
C651 C643 1.503 . S
C651 C650 1.370 1_565 S
C651 C652 1.403 . S
C652 C651 1.403 . S
C652 C653 1.404 . S
C652 C655 1.539 . S
C653 C649 1.408 . S
C653 C652 1.404 . S
C653 H665 0.930 . S
C654 C650 1.524 . S
C654 H666 0.956 . S
C654 H667 0.961 . S
C654 H668 0.961 . S
C655 C652 1.539 . S
C655 H669 0.958 . S
C655 H670 0.961 . S
C655 H671 0.960 . S
H656 C640 0.931 . S
H657 C645 0.929 . S
H658 C646 0.960 . S
H659 C646 0.962 . S
H660 C646 0.960 . S
H661 C647 0.961 . S
H662 C647 0.961 . S
H663 C647 0.961 . S
H664 C648 0.931 . S
H665 C653 0.930 . S
H666 C654 0.956 . S
H667 C654 0.961 . S
H668 C654 0.961 . S
H669 C655 0.958 . S
H670 C655 0.961 . S
H671 C655 0.960 . S
C672 C673 1.391 . S
C672 C674 1.394 1_545 S
C672 H688 0.931 1_545 S
C673 C672 1.391 . S
C673 C677 1.376 . S
C674 C672 1.394 1_565 S
C674 C675 1.369 . S
C674 C678 1.531 . S
C675 C674 1.369 . S
C675 C676 1.410 1_565 S
C675 C683 1.503 . S
C676 C675 1.410 1_545 S
C676 C677 1.392 . S
C676 C679 1.511 . S
C677 C673 1.376 . S
C677 C676 1.392 . S
C677 H689 0.929 . S
C678 C674 1.531 . S
C678 H690 0.960 . S
C678 H691 0.962 . S
C678 H692 0.960 . S
C679 C676 1.511 . S
C679 H693 0.961 . S
C679 H694 0.961 . S
C679 H695 0.961 . S
C680 C681 1.370 1_545 S
C680 C682 1.363 . S
C680 H696 0.931 . S
C681 C680 1.370 1_565 S
C681 C685 1.408 . S
C682 C680 1.363 . S
C682 C683 1.370 1_545 S
C682 C686 1.524 . S
C683 C675 1.503 . S
C683 C682 1.370 1_565 S
C683 C684 1.403 . S
C684 C683 1.403 . S
C684 C685 1.404 . S
C684 C687 1.539 . S
C685 C681 1.408 . S
C685 C684 1.404 . S
C685 H697 0.930 . S
C686 C682 1.524 . S
C686 H698 0.956 . S
C686 H699 0.961 . S
C686 H700 0.961 . S
C687 C684 1.539 . S
C687 H701 0.958 . S
C687 H702 0.961 . S
C687 H703 0.960 . S
H688 C672 0.931 1_565 S
H689 C677 0.929 . S
H690 C678 0.960 . S
H691 C678 0.962 . S
H692 C678 0.960 . S
H693 C679 0.961 . S
H694 C679 0.961 . S
H695 C679 0.961 . S
H696 C680 0.931 . S
H697 C685 0.930 . S
H698 C686 0.956 . S
H699 C686 0.961 . S
H700 C686 0.961 . S
H701 C687 0.958 . S
H702 C687 0.961 . S
H703 C687 0.960 . S
C704 C705 1.391 . S
C704 C706 1.394 . S
C704 H720 0.931 . S
C705 C704 1.391 . S
C705 C709 1.376 . S
C706 C704 1.394 . S
C706 C707 1.369 . S
C706 C710 1.531 . S
C707 C706 1.369 . S
C707 C708 1.410 . S
C707 C715 1.503 . S
C708 C707 1.410 . S
C708 C709 1.392 . S
C708 C711 1.511 . S
C709 C705 1.376 . S
C709 C708 1.392 . S
C709 H721 0.929 . S
C710 C706 1.531 . S
C710 H722 0.960 . S
C710 H723 0.962 . S
C710 H724 0.960 . S
C711 C708 1.511 . S
C711 H725 0.961 . S
C711 H726 0.961 . S
C711 H727 0.961 . S
C712 C713 1.370 . S
C712 C714 1.363 . S
C712 H728 0.931 . S
C713 C712 1.370 . S
C713 C717 1.408 . S
C714 C712 1.363 . S
C714 C715 1.370 . S
C714 C718 1.524 . S
C715 C707 1.503 . S
C715 C714 1.370 . S
C715 C716 1.403 . S
C716 C715 1.403 . S
C716 C717 1.404 . S
C716 C719 1.539 . S
C717 C713 1.408 . S
C717 C716 1.404 . S
C717 H729 0.930 . S
C718 C714 1.524 . S
C718 H730 0.956 . S
C718 H731 0.961 . S
C718 H732 0.961 . S
C719 C716 1.539 . S
C719 H733 0.958 . S
C719 H734 0.961 . S
C719 H735 0.960 . S
H720 C704 0.931 . S
H721 C709 0.929 . S
H722 C710 0.960 . S
H723 C710 0.962 . S
H724 C710 0.960 . S
H725 C711 0.961 . S
H726 C711 0.961 . S
H727 C711 0.961 . S
H728 C712 0.931 . S
H729 C717 0.930 . S
H730 C718 0.956 . S
H731 C718 0.961 . S
H732 C718 0.961 . S
H733 C719 0.958 . S
H734 C719 0.961 . S
H735 C719 0.960 . S
C736 C737 1.391 . S
C736 C738 1.394 . S
C736 H752 0.931 . S
C737 C736 1.391 . S
C737 C741 1.376 . S
C738 C736 1.394 . S
C738 C739 1.369 . S
C738 C742 1.531 . S
C739 C738 1.369 . S
C739 C740 1.410 . S
C739 C747 1.503 . S
C740 C739 1.410 . S
C740 C741 1.392 . S
C740 C743 1.511 . S
C741 C737 1.376 . S
C741 C740 1.392 . S
C741 H753 0.929 . S
C742 C738 1.531 . S
C742 H754 0.960 . S
C742 H755 0.962 . S
C742 H756 0.960 . S
C743 C740 1.511 . S
C743 H757 0.961 . S
C743 H758 0.961 . S
C743 H759 0.961 . S
C744 C745 1.370 . S
C744 C746 1.363 . S
C744 H760 0.931 . S
C745 C744 1.370 . S
C745 C749 1.408 . S
C746 C744 1.363 . S
C746 C747 1.370 . S
C746 C750 1.524 . S
C747 C739 1.503 . S
C747 C746 1.370 . S
C747 C748 1.403 . S
C748 C747 1.403 . S
C748 C749 1.404 . S
C748 C751 1.539 . S
C749 C745 1.408 . S
C749 C748 1.404 . S
C749 H761 0.930 . S
C750 C746 1.524 . S
C750 H762 0.956 . S
C750 H763 0.961 . S
C750 H764 0.961 . S
C751 C748 1.539 . S
C751 H765 0.958 . S
C751 H766 0.961 . S
C751 H767 0.960 . S
H752 C736 0.931 . S
H753 C741 0.929 . S
H754 C742 0.960 . S
H755 C742 0.962 . S
H756 C742 0.960 . S
H757 C743 0.961 . S
H758 C743 0.961 . S
H759 C743 0.961 . S
H760 C744 0.931 . S
H761 C749 0.930 . S
H762 C750 0.956 . S
H763 C750 0.961 . S
H764 C750 0.961 . S
H765 C751 0.958 . S
H766 C751 0.961 . S
H767 C751 0.960 . S
C768 C769 1.391 . S
C768 C770 1.394 . S
C768 H784 0.931 . S
C769 C768 1.391 . S
C769 C773 1.376 . S
C770 C768 1.394 . S
C770 C771 1.369 . S
C770 C774 1.531 . S
C771 C770 1.369 . S
C771 C772 1.410 . S
C771 C779 1.503 . S
C772 C771 1.410 . S
C772 C773 1.392 . S
C772 C775 1.511 . S
C773 C769 1.376 . S
C773 C772 1.392 . S
C773 H785 0.929 . S
C774 C770 1.531 . S
C774 H786 0.960 . S
C774 H787 0.962 . S
C774 H788 0.960 . S
C775 C772 1.511 . S
C775 H789 0.961 . S
C775 H790 0.961 . S
C775 H791 0.961 . S
C776 C777 1.370 . S
C776 C778 1.363 . S
C776 H792 0.931 . S
C777 C776 1.370 . S
C777 C781 1.408 . S
C778 C776 1.363 . S
C778 C779 1.370 . S
C778 C782 1.524 . S
C779 C771 1.503 . S
C779 C778 1.370 . S
C779 C780 1.403 . S
C780 C779 1.403 . S
C780 C781 1.404 . S
C780 C783 1.539 . S
C781 C777 1.408 . S
C781 C780 1.404 . S
C781 H793 0.930 . S
C782 C778 1.524 . S
C782 H794 0.956 . S
C782 H795 0.961 . S
C782 H796 0.961 . S
C783 C780 1.539 . S
C783 H797 0.958 . S
C783 H798 0.961 . S
C783 H799 0.960 . S
H784 C768 0.931 . S
H785 C773 0.929 . S
H786 C774 0.960 . S
H787 C774 0.962 . S
H788 C774 0.960 . S
H789 C775 0.961 . S
H790 C775 0.961 . S
H791 C775 0.961 . S
H792 C776 0.931 . S
H793 C781 0.930 . S
H794 C782 0.956 . S
H795 C782 0.961 . S
H796 C782 0.961 . S
H797 C783 0.958 . S
H798 C783 0.961 . S
H799 C783 0.960 . S
C800 C801 1.391 . S
C800 C802 1.394 . S
C800 H816 0.931 . S
C801 C800 1.391 . S
C801 C805 1.376 . S
C802 C800 1.394 . S
C802 C803 1.369 . S
C802 C806 1.531 . S
C803 C802 1.369 . S
C803 C804 1.410 . S
C803 C811 1.503 . S
C804 C803 1.410 . S
C804 C805 1.392 . S
C804 C807 1.511 . S
C805 C801 1.376 . S
C805 C804 1.392 . S
C805 H817 0.929 . S
C806 C802 1.531 . S
C806 H818 0.960 . S
C806 H819 0.962 . S
C806 H820 0.960 . S
C807 C804 1.511 . S
C807 H821 0.961 . S
C807 H822 0.961 . S
C807 H823 0.961 . S
C808 C809 1.370 . S
C808 C810 1.363 . S
C808 H824 0.931 . S
C809 C808 1.370 . S
C809 C813 1.408 . S
C810 C808 1.363 . S
C810 C811 1.370 . S
C810 C814 1.524 . S
C811 C803 1.503 . S
C811 C810 1.370 . S
C811 C812 1.403 . S
C812 C811 1.403 . S
C812 C813 1.404 . S
C812 C815 1.539 . S
C813 C809 1.408 . S
C813 C812 1.404 . S
C813 H825 0.930 . S
C814 C810 1.524 . S
C814 H826 0.956 . S
C814 H827 0.961 . S
C814 H828 0.961 . S
C815 C812 1.539 . S
C815 H829 0.958 . S
C815 H830 0.961 . S
C815 H831 0.960 . S
H816 C800 0.931 . S
H817 C805 0.929 . S
H818 C806 0.960 . S
H819 C806 0.962 . S
H820 C806 0.960 . S
H821 C807 0.961 . S
H822 C807 0.961 . S
H823 C807 0.961 . S
H824 C808 0.931 . S
H825 C813 0.930 . S
H826 C814 0.956 . S
H827 C814 0.961 . S
H828 C814 0.961 . S
H829 C815 0.958 . S
H830 C815 0.961 . S
H831 C815 0.960 . S
C832 C833 1.391 . S
C832 C834 1.394 . S
C832 H848 0.931 . S
C833 C832 1.391 . S
C833 C837 1.376 . S
C834 C832 1.394 . S
C834 C835 1.369 . S
C834 C838 1.531 . S
C835 C834 1.369 . S
C835 C836 1.410 . S
C835 C843 1.503 1_556 S
C836 C835 1.410 . S
C836 C837 1.392 . S
C836 C839 1.511 . S
C837 C833 1.376 . S
C837 C836 1.392 . S
C837 H849 0.929 . S
C838 C834 1.531 . S
C838 H850 0.960 1_556 S
C838 H851 0.962 . S
C838 H852 0.960 . S
C839 C836 1.511 . S
C839 H853 0.961 . S
C839 H854 0.961 1_556 S
C839 H855 0.961 . S
C840 C841 1.370 . S
C840 C842 1.363 . S
C840 H856 0.931 . S
C841 C840 1.370 . S
C841 C845 1.408 . S
C842 C840 1.363 . S
C842 C843 1.370 . S
C842 C846 1.524 . S
C843 C835 1.503 1_554 S
C843 C842 1.370 . S
C843 C844 1.403 . S
C844 C843 1.403 . S
C844 C845 1.404 . S
C844 C847 1.539 . S
C845 C841 1.408 . S
C845 C844 1.404 . S
C845 H857 0.930 . S
C846 C842 1.524 . S
C846 H858 0.984 . S
C846 H859 0.961 1_554 S
C846 H860 0.961 . S
C847 C844 1.539 . S
C847 H861 0.958 1_545 S
C847 H862 0.961 1_545 S
C847 H863 0.970 . S
H848 C832 0.931 . S
H849 C837 0.929 . S
H850 C838 0.960 1_554 S
H851 C838 0.962 . S
H852 C838 0.960 . S
H853 C839 0.961 . S
H854 C839 0.961 1_554 S
H855 C839 0.961 . S
H856 C840 0.931 . S
H857 C845 0.930 . S
H858 C846 0.984 . S
H859 C846 0.961 1_556 S
H860 C846 0.961 . S
H861 C847 0.958 1_565 S
H862 C847 0.961 1_565 S
H863 C847 0.970 . S
C864 C865 1.391 . S
C864 C866 1.394 . S
C864 H880 0.931 . S
C865 C864 1.391 . S
C865 C869 1.376 . S
C866 C864 1.394 . S
C866 C867 1.369 . S
C866 C870 1.531 . S
C867 C866 1.369 . S
C867 C868 1.410 . S
C867 C875 1.503 1_556 S
C868 C867 1.410 . S
C868 C869 1.392 . S
C868 C871 1.511 . S
C869 C865 1.376 . S
C869 C868 1.392 . S
C869 H881 0.929 . S
C870 C866 1.531 . S
C870 H882 0.960 1_556 S
C870 H883 0.962 . S
C870 H884 0.960 . S
C871 C868 1.511 . S
C871 H885 0.961 . S
C871 H886 0.961 1_556 S
C871 H887 0.961 . S
C872 C873 1.370 . S
C872 C874 1.363 . S
C872 H888 0.931 . S
C873 C872 1.370 . S
C873 C877 1.408 . S
C874 C872 1.363 . S
C874 C875 1.370 . S
C874 C878 1.524 . S
C875 C867 1.503 1_554 S
C875 C874 1.370 . S
C875 C876 1.403 . S
C876 C875 1.403 . S
C876 C877 1.404 . S
C876 C879 1.536 1_565 S
C877 C873 1.408 . S
C877 C876 1.404 . S
C877 H889 0.930 . S
C878 C874 1.524 . S
C878 H890 0.984 . S
C878 H891 0.961 1_554 S
C878 H892 0.961 . S
C879 C876 1.536 1_545 S
C879 H893 0.960 . S
C879 H894 0.963 . S
C879 H895 0.969 1_545 S
H880 C864 0.931 . S
H881 C869 0.929 . S
H882 C870 0.960 1_554 S
H883 C870 0.962 . S
H884 C870 0.960 . S
H885 C871 0.961 . S
H886 C871 0.961 1_554 S
H887 C871 0.961 . S
H888 C872 0.931 . S
H889 C877 0.930 . S
H890 C878 0.984 . S
H891 C878 0.961 1_556 S
H892 C878 0.961 . S
H893 C879 0.960 . S
H894 C879 0.963 . S
H895 C879 0.969 1_565 S
C896 C897 1.391 . S
C896 C898 1.394 . S
C896 H912 0.931 . S
C897 C896 1.391 . S
C897 C901 1.376 . S
C898 C896 1.394 . S
C898 C899 1.369 . S
C898 C902 1.531 . S
C899 C898 1.369 . S
C899 C900 1.410 . S
C899 C907 1.503 . S
C900 C899 1.410 . S
C900 C901 1.392 . S
C900 C903 1.511 . S
C901 C897 1.376 . S
C901 C900 1.392 . S
C901 H913 0.929 . S
C902 C898 1.531 . S
C902 H914 0.960 . S
C902 H915 0.962 . S
C902 H916 0.960 . S
C903 C900 1.511 . S
C903 H917 0.961 . S
C903 H918 0.961 . S
C903 H919 0.961 . S
C904 C905 1.370 . S
C904 C906 1.363 . S
C904 H920 0.931 . S
C905 C904 1.370 . S
C905 C909 1.408 . S
C906 C904 1.363 . S
C906 C907 1.370 . S
C906 C910 1.524 . S
C907 C899 1.503 . S
C907 C906 1.370 . S
C907 C908 1.403 . S
C908 C907 1.403 . S
C908 C909 1.404 . S
C908 C911 1.539 . S
C909 C905 1.408 . S
C909 C908 1.404 . S
C909 H921 0.930 . S
C910 C906 1.524 . S
C910 H922 0.956 . S
C910 H923 0.961 . S
C910 H924 0.961 . S
C911 C908 1.539 . S
C911 H925 0.958 1_565 S
C911 H926 0.961 . S
C911 H927 0.960 . S
H912 C896 0.931 . S
H913 C901 0.929 . S
H914 C902 0.960 . S
H915 C902 0.962 . S
H916 C902 0.960 . S
H917 C903 0.961 . S
H918 C903 0.961 . S
H919 C903 0.961 . S
H920 C904 0.931 . S
H921 C909 0.930 . S
H922 C910 0.956 . S
H923 C910 0.961 . S
H924 C910 0.961 . S
H925 C911 0.958 1_545 S
H926 C911 0.961 . S
H927 C911 0.960 . S
C928 C929 1.391 . S
C928 C930 1.394 . S
C928 H944 0.931 . S
C929 C928 1.391 . S
C929 C933 1.376 . S
C930 C928 1.394 . S
C930 C931 1.369 . S
C930 C934 1.531 . S
C931 C930 1.369 . S
C931 C932 1.410 . S
C931 C939 1.503 . S
C932 C931 1.410 . S
C932 C933 1.392 . S
C932 C935 1.511 . S
C933 C929 1.376 . S
C933 C932 1.392 . S
C933 H945 0.929 . S
C934 C930 1.531 . S
C934 H946 0.960 . S
C934 H947 0.962 . S
C934 H948 0.960 . S
C935 C932 1.511 . S
C935 H949 0.961 . S
C935 H950 0.961 . S
C935 H951 0.961 . S
C936 C937 1.370 . S
C936 C938 1.363 . S
C936 H952 0.931 . S
C937 C936 1.370 . S
C937 C941 1.408 . S
C938 C936 1.363 . S
C938 C939 1.370 . S
C938 C942 1.524 . S
C939 C931 1.503 . S
C939 C938 1.370 . S
C939 C940 1.403 . S
C940 C939 1.403 . S
C940 C941 1.404 . S
C940 C943 1.539 . S
C941 C937 1.408 . S
C941 C940 1.404 . S
C941 H953 0.930 . S
C942 C938 1.524 . S
C942 H954 0.956 . S
C942 H955 0.961 . S
C942 H956 0.961 . S
C943 C940 1.539 . S
C943 H957 0.958 . S
C943 H958 0.961 . S
C943 H959 0.960 . S
H944 C928 0.931 . S
H945 C933 0.929 . S
H946 C934 0.960 . S
H947 C934 0.962 . S
H948 C934 0.960 . S
H949 C935 0.961 . S
H950 C935 0.961 . S
H951 C935 0.961 . S
H952 C936 0.931 . S
H953 C941 0.930 . S
H954 C942 0.956 . S
H955 C942 0.961 . S
H956 C942 0.961 . S
H957 C943 0.958 . S
H958 C943 0.961 . S
H959 C943 0.960 . S
C960 C961 1.391 . S
C960 C962 1.394 . S
C960 H976 0.931 . S
C961 C960 1.391 . S
C961 C965 1.376 . S
C962 C960 1.394 . S
C962 C963 1.369 . S
C962 C966 1.531 . S
C963 C962 1.369 . S
C963 C964 1.410 . S
C963 C971 1.503 1_554 S
C964 C963 1.410 . S
C964 C965 1.392 . S
C964 C967 1.511 . S
C965 C961 1.376 . S
C965 C964 1.392 . S
C965 H977 0.929 . S
C966 C962 1.531 . S
C966 H978 0.960 1_554 S
C966 H979 0.962 . S
C966 H980 0.960 . S
C967 C964 1.511 . S
C967 H981 0.961 . S
C967 H982 0.961 1_554 S
C967 H983 0.961 . S
C968 C969 1.370 . S
C968 C970 1.363 . S
C968 H984 0.931 . S
C969 C968 1.370 . S
C969 C973 1.408 . S
C970 C968 1.363 . S
C970 C971 1.370 . S
C970 C974 1.524 . S
C971 C963 1.503 1_556 S
C971 C970 1.370 . S
C971 C972 1.403 . S
C972 C971 1.403 . S
C972 C973 1.404 . S
C972 C975 1.539 . S
C973 C969 1.408 . S
C973 C972 1.404 . S
C973 H985 0.930 . S
C974 C970 1.524 . S
C974 H986 0.984 . S
C974 H987 0.961 1_556 S
C974 H988 0.961 . S
C975 C972 1.539 . S
C975 H989 0.958 . S
C975 H990 0.961 . S
C975 H991 0.970 . S
H976 C960 0.931 . S
H977 C965 0.929 . S
H978 C966 0.960 1_556 S
H979 C966 0.962 . S
H980 C966 0.960 . S
H981 C967 0.961 . S
H982 C967 0.961 1_556 S
H983 C967 0.961 . S
H984 C968 0.931 . S
H985 C973 0.930 . S
H986 C974 0.984 . S
H987 C974 0.961 1_554 S
H988 C974 0.961 . S
H989 C975 0.958 . S
H990 C975 0.961 . S
H991 C975 0.970 . S
C992 C993 1.391 . S
C992 C994 1.394 . S
C992 H1008 0.931 . S
C993 C992 1.391 . S
C993 C997 1.376 . S
C994 C992 1.394 . S
C994 C995 1.369 . S
C994 C998 1.531 . S
C995 C994 1.369 . S
C995 C996 1.410 . S
C995 C1003 1.503 1_556 S
C996 C995 1.410 . S
C996 C997 1.392 . S
C996 C999 1.511 . S
C997 C993 1.376 . S
C997 C996 1.392 . S
C997 H1009 0.929 . S
C998 C994 1.531 . S
C998 H1010 0.960 1_556 S
C998 H1011 0.962 . S
C998 H1012 0.960 . S
C999 C996 1.511 . S
C999 H1013 0.961 . S
C999 H1014 0.961 1_556 S
C999 H1015 0.961 . S
C1000 C1001 1.370 . S
C1000 C1002 1.363 . S
C1000 H1016 0.931 . S
C1001 C1000 1.370 . S
C1001 C1005 1.408 . S
C1002 C1000 1.363 . S
C1002 C1003 1.370 . S
C1002 C1006 1.524 . S
C1003 C995 1.503 1_554 S
C1003 C1002 1.370 . S
C1003 C1004 1.403 . S
C1004 C1003 1.403 . S
C1004 C1005 1.404 . S
C1004 C1007 1.539 . S
C1005 C1001 1.408 . S
C1005 C1004 1.404 . S
C1005 H1017 0.930 . S
C1006 C1002 1.524 . S
C1006 H1018 0.984 . S
C1006 H1019 0.961 1_554 S
C1006 H1020 0.961 . S
C1007 C1004 1.539 . S
C1007 H1021 0.958 . S
C1007 H1022 0.961 . S
C1007 H1023 0.970 . S
H1008 C992 0.931 . S
H1009 C997 0.929 . S
H1010 C998 0.960 1_554 S
H1011 C998 0.962 . S
H1012 C998 0.960 . S
H1013 C999 0.961 . S
H1014 C999 0.961 1_554 S
H1015 C999 0.961 . S
H1016 C1000 0.931 . S
H1017 C1005 0.930 . S
H1018 C1006 0.984 . S
H1019 C1006 0.961 1_556 S
H1020 C1006 0.961 . S
H1021 C1007 0.958 . S
H1022 C1007 0.961 . S
H1023 C1007 0.970 . S
C1024 C1025 1.391 . S
C1024 C1026 1.394 . S
C1024 H1040 0.931 . S
C1025 C1024 1.391 . S
C1025 C1029 1.376 . S
C1026 C1024 1.394 . S
C1026 C1027 1.369 . S
C1026 C1030 1.531 . S
C1027 C1026 1.369 . S
C1027 C1028 1.410 . S
C1027 C1035 1.503 . S
C1028 C1027 1.410 . S
C1028 C1029 1.392 . S
C1028 C1031 1.511 . S
C1029 C1025 1.376 . S
C1029 C1028 1.392 . S
C1029 H1041 0.929 . S
C1030 C1026 1.531 . S
C1030 H1042 0.960 . S
C1030 H1043 0.962 . S
C1030 H1044 0.960 . S
C1031 C1028 1.511 . S
C1031 H1045 0.961 . S
C1031 H1046 0.961 . S
C1031 H1047 0.961 . S
C1032 C1033 1.370 . S
C1032 C1034 1.363 . S
C1032 H1048 0.931 . S
C1033 C1032 1.370 . S
C1033 C1037 1.408 . S
C1034 C1032 1.363 . S
C1034 C1035 1.370 . S
C1034 C1038 1.524 . S
C1035 C1027 1.503 . S
C1035 C1034 1.370 . S
C1035 C1036 1.403 . S
C1036 C1035 1.403 . S
C1036 C1037 1.404 . S
C1036 C1039 1.539 . S
C1037 C1033 1.408 . S
C1037 C1036 1.404 . S
C1037 H1049 0.930 . S
C1038 C1034 1.524 . S
C1038 H1050 0.956 . S
C1038 H1051 0.961 . S
C1038 H1052 0.961 . S
C1039 C1036 1.539 . S
C1039 H1053 0.958 . S
C1039 H1054 0.961 . S
C1039 H1055 0.960 . S
H1040 C1024 0.931 . S
H1041 C1029 0.929 . S
H1042 C1030 0.960 . S
H1043 C1030 0.962 . S
H1044 C1030 0.960 . S
H1045 C1031 0.961 . S
H1046 C1031 0.961 . S
H1047 C1031 0.961 . S
H1048 C1032 0.931 . S
H1049 C1037 0.930 . S
H1050 C1038 0.956 . S
H1051 C1038 0.961 . S
H1052 C1038 0.961 . S
H1053 C1039 0.958 . S
H1054 C1039 0.961 . S
H1055 C1039 0.960 . S
C1056 C1057 1.391 . S
C1056 C1058 1.394 . S
C1056 H1072 0.931 . S
C1057 C1056 1.391 . S
C1057 C1061 1.376 . S
C1058 C1056 1.394 . S
C1058 C1059 1.369 . S
C1058 C1062 1.531 . S
C1059 C1058 1.369 . S
C1059 C1060 1.410 . S
C1059 C1067 1.503 . S
C1060 C1059 1.410 . S
C1060 C1061 1.392 . S
C1060 C1063 1.511 . S
C1061 C1057 1.376 . S
C1061 C1060 1.392 . S
C1061 H1073 0.929 . S
C1062 C1058 1.531 . S
C1062 H1074 0.960 . S
C1062 H1075 0.962 . S
C1062 H1076 0.960 . S
C1063 C1060 1.511 . S
C1063 H1077 0.961 . S
C1063 H1078 0.961 . S
C1063 H1079 0.961 . S
C1064 C1065 1.370 . S
C1064 C1066 1.363 . S
C1064 H1080 0.931 . S
C1065 C1064 1.370 . S
C1065 C1069 1.408 . S
C1066 C1064 1.363 . S
C1066 C1067 1.370 . S
C1066 C1070 1.524 . S
C1067 C1059 1.503 . S
C1067 C1066 1.370 . S
C1067 C1068 1.403 . S
C1068 C1067 1.403 . S
C1068 C1069 1.404 . S
C1068 C1071 1.539 . S
C1069 C1065 1.408 . S
C1069 C1068 1.404 . S
C1069 H1081 0.930 . S
C1070 C1066 1.524 . S
C1070 H1082 0.956 . S
C1070 H1083 0.961 . S
C1070 H1084 0.961 . S
C1071 C1068 1.539 . S
C1071 H1085 0.958 . S
C1071 H1086 0.961 . S
C1071 H1087 0.960 . S
H1072 C1056 0.931 . S
H1073 C1061 0.929 . S
H1074 C1062 0.960 . S
H1075 C1062 0.962 . S
H1076 C1062 0.960 . S
H1077 C1063 0.961 . S
H1078 C1063 0.961 . S
H1079 C1063 0.961 . S
H1080 C1064 0.931 . S
H1081 C1069 0.930 . S
H1082 C1070 0.956 . S
H1083 C1070 0.961 . S
H1084 C1070 0.961 . S
H1085 C1071 0.958 . S
H1086 C1071 0.961 . S
H1087 C1071 0.960 . S
C1088 C1089 1.391 . S
C1088 C1090 1.394 . S
C1088 H1104 0.931 . S
C1089 C1088 1.391 . S
C1089 C1093 1.376 . S
C1090 C1088 1.394 . S
C1090 C1091 1.369 . S
C1090 C1094 1.531 . S
C1091 C1090 1.369 . S
C1091 C1092 1.410 . S
C1091 C1099 1.503 1_655 S
C1092 C1091 1.410 . S
C1092 C1093 1.392 . S
C1092 C1095 1.511 . S
C1093 C1089 1.376 . S
C1093 C1092 1.392 . S
C1093 H1105 0.929 . S
C1094 C1090 1.531 . S
C1094 H1106 0.960 1_655 S
C1094 H1107 0.962 1_545 S
C1094 H1108 0.960 . S
C1095 C1092 1.511 . S
C1095 H1109 0.961 1_545 S
C1095 H1110 0.961 1_645 S
C1095 H1111 0.961 . S
C1096 C1097 1.370 1_565 S
C1096 C1098 1.363 . S
C1096 H1112 0.931 . S
C1097 C1096 1.370 1_545 S
C1097 C1101 1.408 . S
C1098 C1096 1.363 . S
C1098 C1099 1.370 1_565 S
C1098 C1102 1.524 . S
C1099 C1091 1.503 1_455 S
C1099 C1098 1.370 1_545 S
C1099 C1100 1.403 . S
C1100 C1099 1.403 . S
C1100 C1101 1.404 . S
C1100 C1103 1.539 . S
C1101 C1097 1.408 . S
C1101 C1100 1.404 . S
C1101 H1113 0.930 . S
C1102 C1098 1.524 . S
C1102 H1114 0.956 . S
C1102 H1115 0.926 1_455 S
C1102 H1116 0.961 . S
C1103 C1100 1.539 . S
C1103 H1117 0.958 . S
C1103 H1118 0.961 . S
C1103 H1119 0.954 . S
H1104 C1088 0.931 . S
H1105 C1093 0.929 . S
H1106 C1094 0.960 1_455 S
H1107 C1094 0.962 1_565 S
H1108 C1094 0.960 . S
H1109 C1095 0.961 1_565 S
H1110 C1095 0.961 1_465 S
H1111 C1095 0.961 . S
H1112 C1096 0.931 . S
H1113 C1101 0.930 . S
H1114 C1102 0.956 . S
H1115 C1102 0.926 1_655 S
H1116 C1102 0.961 . S
H1117 C1103 0.958 . S
H1118 C1103 0.961 . S
H1119 C1103 0.954 . S
C1120 C1121 1.391 1_545 S
C1120 C1122 1.394 . S
C1120 H1136 0.931 . S
C1121 C1120 1.391 1_565 S
C1121 C1125 1.376 . S
C1122 C1120 1.394 . S
C1122 C1123 1.369 1_545 S
C1122 C1126 1.531 . S
C1123 C1122 1.369 1_565 S
C1123 C1124 1.410 . S
C1123 C1131 1.503 1_655 S
C1124 C1123 1.410 . S
C1124 C1125 1.392 . S
C1124 C1127 1.511 . S
C1125 C1121 1.376 . S
C1125 C1124 1.392 . S
C1125 H1137 0.929 . S
C1126 C1122 1.531 . S
C1126 H1138 0.960 1_655 S
C1126 H1139 0.962 . S
C1126 H1140 0.960 . S
C1127 C1124 1.511 . S
C1127 H1141 0.961 . S
C1127 H1142 0.961 1_655 S
C1127 H1143 0.961 . S
C1128 C1129 1.370 1_545 S
C1128 C1130 1.363 . S
C1128 H1144 0.931 . S
C1129 C1128 1.370 1_565 S
C1129 C1133 1.408 . S
C1130 C1128 1.363 . S
C1130 C1131 1.370 1_545 S
C1130 C1134 1.524 . S
C1131 C1123 1.503 1_455 S
C1131 C1130 1.370 1_565 S
C1131 C1132 1.403 . S
C1132 C1131 1.403 . S
C1132 C1133 1.404 . S
C1132 C1135 1.539 . S
C1133 C1129 1.408 . S
C1133 C1132 1.404 . S
C1133 H1145 0.930 . S
C1134 C1130 1.524 . S
C1134 H1146 0.956 . S
C1134 H1147 0.961 1_455 S
C1134 H1148 0.961 . S
C1135 C1132 1.539 . S
C1135 H1149 0.958 . S
C1135 H1150 0.961 . S
C1135 H1151 0.958 . S
H1136 C1120 0.931 . S
H1137 C1125 0.929 . S
H1138 C1126 0.960 1_455 S
H1139 C1126 0.962 . S
H1140 C1126 0.960 . S
H1141 C1127 0.961 . S
H1142 C1127 0.961 1_455 S
H1143 C1127 0.961 . S
H1144 C1128 0.931 . S
H1145 C1133 0.930 . S
H1146 C1134 0.956 . S
H1147 C1134 0.961 1_655 S
H1148 C1134 0.961 . S
H1149 C1135 0.958 . S
H1150 C1135 0.961 . S
H1151 C1135 0.958 . S
C1152 C1153 1.391 1_565 S
C1152 C1154 1.394 . S
C1152 H1168 0.931 . S
C1153 C1152 1.391 1_545 S
C1153 C1157 1.376 . S
C1154 C1152 1.394 . S
C1154 C1155 1.369 1_565 S
C1154 C1158 1.531 . S
C1155 C1154 1.369 1_545 S
C1155 C1156 1.410 . S
C1155 C1163 1.503 1_455 S
C1156 C1155 1.410 . S
C1156 C1157 1.392 . S
C1156 C1159 1.511 . S
C1157 C1153 1.376 . S
C1157 C1156 1.392 . S
C1157 H1169 0.929 . S
C1158 C1154 1.531 . S
C1158 H1170 0.960 1_455 S
C1158 H1171 0.962 . S
C1158 H1172 0.960 . S
C1159 C1156 1.511 . S
C1159 H1173 0.961 . S
C1159 H1174 0.961 1_455 S
C1159 H1175 0.961 . S
C1160 C1161 1.370 . S
C1160 C1162 1.363 . S
C1160 H1176 0.931 . S
C1161 C1160 1.370 . S
C1161 C1165 1.408 1_565 S
C1162 C1160 1.363 . S
C1162 C1163 1.370 1_565 S
C1162 C1166 1.524 . S
C1163 C1155 1.503 1_655 S
C1163 C1162 1.370 1_545 S
C1163 C1164 1.403 . S
C1164 C1163 1.403 . S
C1164 C1165 1.404 . S
C1164 C1167 1.539 . S
C1165 C1161 1.408 1_545 S
C1165 C1164 1.404 . S
C1165 H1177 0.930 . S
C1166 C1162 1.524 . S
C1166 H1178 0.979 . S
C1166 H1179 0.961 1_665 S
C1166 H1180 0.961 . S
C1167 C1164 1.539 . S
C1167 H1181 0.958 1_545 S
C1167 H1182 0.961 . S
C1167 H1183 0.975 . S
H1168 C1152 0.931 . S
H1169 C1157 0.929 . S
H1170 C1158 0.960 1_655 S
H1171 C1158 0.962 . S
H1172 C1158 0.960 . S
H1173 C1159 0.961 . S
H1174 C1159 0.961 1_655 S
H1175 C1159 0.961 . S
H1176 C1160 0.931 . S
H1177 C1165 0.930 . S
H1178 C1166 0.979 . S
H1179 C1166 0.961 1_445 S
H1180 C1166 0.961 . S
H1181 C1167 0.958 1_565 S
H1182 C1167 0.961 . S
H1183 C1167 0.975 . S
C1184 C1185 1.391 . S
C1184 C1186 1.394 . S
C1184 H1200 0.931 . S
C1185 C1184 1.391 . S
C1185 C1189 1.376 1_545 S
C1186 C1184 1.394 . S
C1186 C1187 1.369 . S
C1186 C1190 1.531 . S
C1187 C1186 1.369 . S
C1187 C1188 1.410 1_545 S
C1187 C1195 1.503 1_655 S
C1188 C1187 1.410 1_565 S
C1188 C1189 1.392 . S
C1188 C1191 1.511 . S
C1189 C1185 1.376 1_565 S
C1189 C1188 1.392 . S
C1189 H1201 0.929 . S
C1190 C1186 1.531 . S
C1190 H1202 0.960 1_655 S
C1190 H1203 0.962 . S
C1190 H1204 0.960 . S
C1191 C1188 1.511 . S
C1191 H1205 0.961 . S
C1191 H1206 0.961 1_655 S
C1191 H1207 0.961 . S
C1192 C1193 1.367 1_565 S
C1192 C1194 1.363 . S
C1192 H1208 0.931 . S
C1193 C1192 1.367 1_545 S
C1193 C1197 1.412 . S
C1194 C1192 1.363 . S
C1194 C1195 1.370 1_565 S
C1194 C1198 1.524 . S
C1195 C1187 1.503 1_455 S
C1195 C1194 1.370 1_545 S
C1195 C1196 1.403 . S
C1196 C1195 1.403 . S
C1196 C1197 1.404 . S
C1196 C1199 1.539 . S
C1197 C1193 1.412 . S
C1197 C1196 1.404 . S
C1197 H1209 0.930 . S
C1198 C1194 1.524 . S
C1198 H1210 0.980 . S
C1198 H1211 0.961 1_455 S
C1198 H1212 0.961 . S
C1199 C1196 1.539 . S
C1199 H1213 0.958 . S
C1199 H1214 0.961 . S
C1199 H1215 0.978 . S
H1200 C1184 0.931 . S
H1201 C1189 0.929 . S
H1202 C1190 0.960 1_455 S
H1203 C1190 0.962 . S
H1204 C1190 0.960 . S
H1205 C1191 0.961 . S
H1206 C1191 0.961 1_455 S
H1207 C1191 0.961 . S
H1208 C1192 0.931 . S
H1209 C1197 0.930 . S
H1210 C1198 0.980 . S
H1211 C1198 0.961 1_655 S
H1212 C1198 0.961 . S
H1213 C1199 0.958 . S
H1214 C1199 0.961 . S
H1215 C1199 0.978 . S
C1216 C1217 1.391 . S
C1216 C1218 1.394 . S
C1216 H1232 0.931 . S
C1217 C1216 1.391 . S
C1217 C1221 1.376 . S
C1218 C1216 1.394 . S
C1218 C1219 1.369 . S
C1218 C1222 1.531 . S
C1219 C1218 1.369 . S
C1219 C1220 1.410 . S
C1219 C1227 1.503 . S
C1220 C1219 1.410 . S
C1220 C1221 1.392 . S
C1220 C1223 1.511 . S
C1221 C1217 1.376 . S
C1221 C1220 1.392 . S
C1221 H1233 0.929 . S
C1222 C1218 1.531 . S
C1222 H1234 0.960 . S
C1222 H1235 0.962 . S
C1222 H1236 0.960 . S
C1223 C1220 1.511 . S
C1223 H1237 0.961 . S
C1223 H1238 0.961 . S
C1223 H1239 0.961 . S
C1224 C1225 1.370 . S
C1224 C1226 1.363 . S
C1224 H1240 0.931 . S
C1225 C1224 1.370 . S
C1225 C1229 1.408 . S
C1226 C1224 1.363 . S
C1226 C1227 1.370 . S
C1226 C1230 1.524 . S
C1227 C1219 1.503 . S
C1227 C1226 1.370 . S
C1227 C1228 1.403 . S
C1228 C1227 1.403 . S
C1228 C1229 1.404 . S
C1228 C1231 1.539 . S
C1229 C1225 1.408 . S
C1229 C1228 1.404 . S
C1229 H1241 0.930 . S
C1230 C1226 1.524 . S
C1230 H1242 0.956 . S
C1230 H1243 0.961 . S
C1230 H1244 0.961 . S
C1231 C1228 1.539 . S
C1231 H1245 0.958 . S
C1231 H1246 0.961 . S
C1231 H1247 0.960 . S
H1232 C1216 0.931 . S
H1233 C1221 0.929 . S
H1234 C1222 0.960 . S
H1235 C1222 0.962 . S
H1236 C1222 0.960 . S
H1237 C1223 0.961 . S
H1238 C1223 0.961 . S
H1239 C1223 0.961 . S
H1240 C1224 0.931 . S
H1241 C1229 0.930 . S
H1242 C1230 0.956 . S
H1243 C1230 0.961 . S
H1244 C1230 0.961 . S
H1245 C1231 0.958 . S
H1246 C1231 0.961 . S
H1247 C1231 0.960 . S
C1248 C1249 1.391 . S
C1248 C1250 1.394 . S
C1248 H1264 0.931 . S
C1249 C1248 1.391 . S
C1249 C1253 1.376 . S
C1250 C1248 1.394 . S
C1250 C1251 1.369 . S
C1250 C1254 1.531 . S
C1251 C1250 1.369 . S
C1251 C1252 1.410 . S
C1251 C1259 1.503 . S
C1252 C1251 1.410 . S
C1252 C1253 1.392 . S
C1252 C1255 1.511 . S
C1253 C1249 1.376 . S
C1253 C1252 1.392 . S
C1253 H1265 0.929 . S
C1254 C1250 1.531 . S
C1254 H1266 0.960 . S
C1254 H1267 0.962 . S
C1254 H1268 0.960 . S
C1255 C1252 1.511 . S
C1255 H1269 0.961 . S
C1255 H1270 0.961 . S
C1255 H1271 0.961 . S
C1256 C1257 1.370 . S
C1256 C1258 1.363 . S
C1256 H1272 0.931 . S
C1257 C1256 1.370 . S
C1257 C1261 1.408 . S
C1258 C1256 1.363 . S
C1258 C1259 1.370 . S
C1258 C1262 1.524 . S
C1259 C1251 1.503 . S
C1259 C1258 1.370 . S
C1259 C1260 1.403 . S
C1260 C1259 1.403 . S
C1260 C1261 1.404 . S
C1260 C1263 1.539 . S
C1261 C1257 1.408 . S
C1261 C1260 1.404 . S
C1261 H1273 0.930 . S
C1262 C1258 1.524 . S
C1262 H1274 0.956 . S
C1262 H1275 0.961 . S
C1262 H1276 0.961 . S
C1263 C1260 1.539 . S
C1263 H1277 0.958 . S
C1263 H1278 0.961 . S
C1263 H1279 0.960 . S
H1264 C1248 0.931 . S
H1265 C1253 0.929 . S
H1266 C1254 0.960 . S
H1267 C1254 0.962 . S
H1268 C1254 0.960 . S
H1269 C1255 0.961 . S
H1270 C1255 0.961 . S
H1271 C1255 0.961 . S
H1272 C1256 0.931 . S
H1273 C1261 0.930 . S
H1274 C1262 0.956 . S
H1275 C1262 0.961 . S
H1276 C1262 0.961 . S
H1277 C1263 0.958 . S
H1278 C1263 0.961 . S
H1279 C1263 0.960 . S
C1280 C1281 1.391 . S
C1280 C1282 1.394 . S
C1280 H1296 0.931 . S
C1281 C1280 1.391 . S
C1281 C1285 1.376 . S
C1282 C1280 1.394 . S
C1282 C1283 1.369 . S
C1282 C1286 1.531 . S
C1283 C1282 1.369 . S
C1283 C1284 1.410 . S
C1283 C1291 1.503 . S
C1284 C1283 1.410 . S
C1284 C1285 1.392 . S
C1284 C1287 1.511 . S
C1285 C1281 1.376 . S
C1285 C1284 1.392 . S
C1285 H1297 0.929 . S
C1286 C1282 1.531 . S
C1286 H1298 0.960 . S
C1286 H1299 0.962 . S
C1286 H1300 0.960 . S
C1287 C1284 1.511 . S
C1287 H1301 0.961 . S
C1287 H1302 0.961 . S
C1287 H1303 0.961 . S
C1288 C1289 1.370 . S
C1288 C1290 1.363 . S
C1288 H1304 0.931 . S
C1289 C1288 1.370 . S
C1289 C1293 1.408 . S
C1290 C1288 1.363 . S
C1290 C1291 1.370 . S
C1290 C1294 1.524 . S
C1291 C1283 1.503 . S
C1291 C1290 1.370 . S
C1291 C1292 1.403 . S
C1292 C1291 1.403 . S
C1292 C1293 1.404 . S
C1292 C1295 1.539 . S
C1293 C1289 1.408 . S
C1293 C1292 1.404 . S
C1293 H1305 0.930 . S
C1294 C1290 1.524 . S
C1294 H1306 0.956 . S
C1294 H1307 0.961 . S
C1294 H1308 0.961 . S
C1295 C1292 1.539 . S
C1295 H1309 0.958 . S
C1295 H1310 0.961 . S
C1295 H1311 0.960 . S
H1296 C1280 0.931 . S
H1297 C1285 0.929 . S
H1298 C1286 0.960 . S
H1299 C1286 0.962 . S
H1300 C1286 0.960 . S
H1301 C1287 0.961 . S
H1302 C1287 0.961 . S
H1303 C1287 0.961 . S
H1304 C1288 0.931 . S
H1305 C1293 0.930 . S
H1306 C1294 0.956 . S
H1307 C1294 0.961 . S
H1308 C1294 0.961 . S
H1309 C1295 0.958 . S
H1310 C1295 0.961 . S
H1311 C1295 0.960 . S
C1312 C1313 1.391 . S
C1312 C1314 1.394 . S
C1312 H1328 0.931 . S
C1313 C1312 1.391 . S
C1313 C1317 1.376 . S
C1314 C1312 1.394 . S
C1314 C1315 1.369 . S
C1314 C1318 1.531 . S
C1315 C1314 1.369 . S
C1315 C1316 1.410 . S
C1315 C1323 1.503 . S
C1316 C1315 1.410 . S
C1316 C1317 1.392 . S
C1316 C1319 1.511 . S
C1317 C1313 1.376 . S
C1317 C1316 1.392 . S
C1317 H1329 0.929 . S
C1318 C1314 1.531 . S
C1318 H1330 0.960 . S
C1318 H1331 0.962 . S
C1318 H1332 0.960 . S
C1319 C1316 1.511 . S
C1319 H1333 0.961 . S
C1319 H1334 0.961 . S
C1319 H1335 0.961 . S
C1320 C1321 1.370 . S
C1320 C1322 1.363 . S
C1320 H1336 0.931 . S
C1321 C1320 1.370 . S
C1321 C1325 1.408 . S
C1322 C1320 1.363 . S
C1322 C1323 1.370 . S
C1322 C1326 1.524 . S
C1323 C1315 1.503 . S
C1323 C1322 1.370 . S
C1323 C1324 1.403 . S
C1324 C1323 1.403 . S
C1324 C1325 1.404 . S
C1324 C1327 1.539 . S
C1325 C1321 1.408 . S
C1325 C1324 1.404 . S
C1325 H1337 0.930 . S
C1326 C1322 1.524 . S
C1326 H1338 0.956 . S
C1326 H1339 0.961 . S
C1326 H1340 0.961 . S
C1327 C1324 1.539 . S
C1327 H1341 0.958 . S
C1327 H1342 0.961 . S
C1327 H1343 0.960 . S
H1328 C1312 0.931 . S
H1329 C1317 0.929 . S
H1330 C1318 0.960 . S
H1331 C1318 0.962 . S
H1332 C1318 0.960 . S
H1333 C1319 0.961 . S
H1334 C1319 0.961 . S
H1335 C1319 0.961 . S
H1336 C1320 0.931 . S
H1337 C1325 0.930 . S
H1338 C1326 0.956 . S
H1339 C1326 0.961 . S
H1340 C1326 0.961 . S
H1341 C1327 0.958 . S
H1342 C1327 0.961 . S
H1343 C1327 0.960 . S
C1344 C1345 1.391 . S
C1344 C1346 1.394 . S
C1344 H1360 0.931 . S
C1345 C1344 1.391 . S
C1345 C1349 1.376 . S
C1346 C1344 1.394 . S
C1346 C1347 1.369 . S
C1346 C1350 1.531 . S
C1347 C1346 1.369 . S
C1347 C1348 1.410 . S
C1347 C1355 1.503 . S
C1348 C1347 1.410 . S
C1348 C1349 1.392 . S
C1348 C1351 1.511 . S
C1349 C1345 1.376 . S
C1349 C1348 1.392 . S
C1349 H1361 0.929 . S
C1350 C1346 1.531 . S
C1350 H1362 0.960 . S
C1350 H1363 0.962 . S
C1350 H1364 0.960 . S
C1351 C1348 1.511 . S
C1351 H1365 0.961 . S
C1351 H1366 0.961 . S
C1351 H1367 0.961 . S
C1352 C1353 1.370 . S
C1352 C1354 1.363 . S
C1352 H1368 0.931 . S
C1353 C1352 1.370 . S
C1353 C1357 1.408 . S
C1354 C1352 1.363 . S
C1354 C1355 1.370 . S
C1354 C1358 1.524 . S
C1355 C1347 1.503 . S
C1355 C1354 1.370 . S
C1355 C1356 1.403 . S
C1356 C1355 1.403 . S
C1356 C1357 1.404 . S
C1356 C1359 1.539 . S
C1357 C1353 1.408 . S
C1357 C1356 1.404 . S
C1357 H1369 0.930 . S
C1358 C1354 1.524 . S
C1358 H1370 0.956 . S
C1358 H1371 0.961 . S
C1358 H1372 0.961 . S
C1359 C1356 1.539 . S
C1359 H1373 0.958 . S
C1359 H1374 0.961 . S
C1359 H1375 0.960 . S
H1360 C1344 0.931 . S
H1361 C1349 0.929 . S
H1362 C1350 0.960 . S
H1363 C1350 0.962 . S
H1364 C1350 0.960 . S
H1365 C1351 0.961 . S
H1366 C1351 0.961 . S
H1367 C1351 0.961 . S
H1368 C1352 0.931 . S
H1369 C1357 0.930 . S
H1370 C1358 0.956 . S
H1371 C1358 0.961 . S
H1372 C1358 0.961 . S
H1373 C1359 0.958 . S
H1374 C1359 0.961 . S
H1375 C1359 0.960 . S
C1376 C1377 1.391 . S
C1376 C1378 1.394 . S
C1376 H1392 0.931 . S
C1377 C1376 1.391 . S
C1377 C1381 1.376 . S
C1378 C1376 1.394 . S
C1378 C1379 1.369 . S
C1378 C1382 1.531 . S
C1379 C1378 1.369 . S
C1379 C1380 1.410 . S
C1379 C1387 1.503 . S
C1380 C1379 1.410 . S
C1380 C1381 1.392 . S
C1380 C1383 1.511 . S
C1381 C1377 1.376 . S
C1381 C1380 1.392 . S
C1381 H1393 0.929 . S
C1382 C1378 1.531 . S
C1382 H1394 0.960 . S
C1382 H1395 0.962 . S
C1382 H1396 0.960 . S
C1383 C1380 1.511 . S
C1383 H1397 0.961 . S
C1383 H1398 0.961 . S
C1383 H1399 0.961 . S
C1384 C1385 1.370 . S
C1384 C1386 1.363 . S
C1384 H1400 0.931 . S
C1385 C1384 1.370 . S
C1385 C1389 1.408 . S
C1386 C1384 1.363 . S
C1386 C1387 1.370 . S
C1386 C1390 1.524 . S
C1387 C1379 1.503 . S
C1387 C1386 1.370 . S
C1387 C1388 1.403 . S
C1388 C1387 1.403 . S
C1388 C1389 1.404 . S
C1388 C1391 1.539 . S
C1389 C1385 1.408 . S
C1389 C1388 1.404 . S
C1389 H1401 0.930 . S
C1390 C1386 1.524 . S
C1390 H1402 0.956 . S
C1390 H1403 0.961 . S
C1390 H1404 0.961 . S
C1391 C1388 1.539 . S
C1391 H1405 0.958 . S
C1391 H1406 0.961 . S
C1391 H1407 0.960 . S
H1392 C1376 0.931 . S
H1393 C1381 0.929 . S
H1394 C1382 0.960 . S
H1395 C1382 0.962 . S
H1396 C1382 0.960 . S
H1397 C1383 0.961 . S
H1398 C1383 0.961 . S
H1399 C1383 0.961 . S
H1400 C1384 0.931 . S
H1401 C1389 0.930 . S
H1402 C1390 0.956 . S
H1403 C1390 0.961 . S
H1404 C1390 0.961 . S
H1405 C1391 0.958 . S
H1406 C1391 0.961 . S
H1407 C1391 0.960 . S
C1408 C1409 1.391 . S
C1408 C1410 1.394 . S
C1408 H1424 0.931 . S
C1409 C1408 1.391 . S
C1409 C1413 1.376 . S
C1410 C1408 1.394 . S
C1410 C1411 1.369 . S
C1410 C1414 1.531 . S
C1411 C1410 1.369 . S
C1411 C1412 1.410 . S
C1411 C1419 1.503 . S
C1412 C1411 1.410 . S
C1412 C1413 1.392 . S
C1412 C1415 1.511 . S
C1413 C1409 1.376 . S
C1413 C1412 1.392 . S
C1413 H1425 0.929 . S
C1414 C1410 1.531 . S
C1414 H1426 0.960 . S
C1414 H1427 0.962 . S
C1414 H1428 0.960 . S
C1415 C1412 1.511 . S
C1415 H1429 0.961 . S
C1415 H1430 0.961 . S
C1415 H1431 0.961 . S
C1416 C1417 1.370 . S
C1416 C1418 1.363 . S
C1416 H1432 0.931 . S
C1417 C1416 1.370 . S
C1417 C1421 1.408 . S
C1418 C1416 1.363 . S
C1418 C1419 1.370 . S
C1418 C1422 1.524 . S
C1419 C1411 1.503 . S
C1419 C1418 1.370 . S
C1419 C1420 1.403 . S
C1420 C1419 1.403 . S
C1420 C1421 1.404 . S
C1420 C1423 1.539 . S
C1421 C1417 1.408 . S
C1421 C1420 1.404 . S
C1421 H1433 0.930 . S
C1422 C1418 1.524 . S
C1422 H1434 0.956 . S
C1422 H1435 0.961 . S
C1422 H1436 0.961 . S
C1423 C1420 1.539 . S
C1423 H1437 0.958 . S
C1423 H1438 0.961 . S
C1423 H1439 0.960 . S
H1424 C1408 0.931 . S
H1425 C1413 0.929 . S
H1426 C1414 0.960 . S
H1427 C1414 0.962 . S
H1428 C1414 0.960 . S
H1429 C1415 0.961 . S
H1430 C1415 0.961 . S
H1431 C1415 0.961 . S
H1432 C1416 0.931 . S
H1433 C1421 0.930 . S
H1434 C1422 0.956 . S
H1435 C1422 0.961 . S
H1436 C1422 0.961 . S
H1437 C1423 0.958 . S
H1438 C1423 0.961 . S
H1439 C1423 0.960 . S
C1440 C1441 1.391 . S
C1440 C1442 1.394 . S
C1440 H1456 0.931 . S
C1441 C1440 1.391 . S
C1441 C1445 1.376 . S
C1442 C1440 1.394 . S
C1442 C1443 1.369 . S
C1442 C1446 1.531 . S
C1443 C1442 1.369 . S
C1443 C1444 1.410 . S
C1443 C1451 1.503 . S
C1444 C1443 1.410 . S
C1444 C1445 1.392 . S
C1444 C1447 1.511 . S
C1445 C1441 1.376 . S
C1445 C1444 1.392 . S
C1445 H1457 0.929 . S
C1446 C1442 1.531 . S
C1446 H1458 0.960 . S
C1446 H1459 0.962 . S
C1446 H1460 0.960 . S
C1447 C1444 1.511 . S
C1447 H1461 0.961 . S
C1447 H1462 0.961 . S
C1447 H1463 0.961 . S
C1448 C1449 1.370 . S
C1448 C1450 1.363 . S
C1448 H1464 0.931 . S
C1449 C1448 1.370 . S
C1449 C1453 1.408 . S
C1450 C1448 1.363 . S
C1450 C1451 1.370 . S
C1450 C1454 1.524 . S
C1451 C1443 1.503 . S
C1451 C1450 1.370 . S
C1451 C1452 1.403 . S
C1452 C1451 1.403 . S
C1452 C1453 1.404 . S
C1452 C1455 1.539 . S
C1453 C1449 1.408 . S
C1453 C1452 1.404 . S
C1453 H1465 0.930 . S
C1454 C1450 1.524 . S
C1454 H1466 0.956 . S
C1454 H1467 0.961 . S
C1454 H1468 0.961 . S
C1455 C1452 1.539 . S
C1455 H1469 0.958 . S
C1455 H1470 0.961 . S
C1455 H1471 0.960 . S
H1456 C1440 0.931 . S
H1457 C1445 0.929 . S
H1458 C1446 0.960 . S
H1459 C1446 0.962 . S
H1460 C1446 0.960 . S
H1461 C1447 0.961 . S
H1462 C1447 0.961 . S
H1463 C1447 0.961 . S
H1464 C1448 0.931 . S
H1465 C1453 0.930 . S
H1466 C1454 0.956 . S
H1467 C1454 0.961 . S
H1468 C1454 0.961 . S
H1469 C1455 0.958 . S
H1470 C1455 0.961 . S
H1471 C1455 0.960 . S
C1472 C1473 1.391 . S
C1472 C1474 1.394 . S
C1472 H1488 0.931 . S
C1473 C1472 1.391 . S
C1473 C1477 1.376 . S
C1474 C1472 1.394 . S
C1474 C1475 1.369 . S
C1474 C1478 1.531 . S
C1475 C1474 1.369 . S
C1475 C1476 1.410 . S
C1475 C1483 1.503 . S
C1476 C1475 1.410 . S
C1476 C1477 1.392 . S
C1476 C1479 1.511 . S
C1477 C1473 1.376 . S
C1477 C1476 1.392 . S
C1477 H1489 0.929 . S
C1478 C1474 1.531 . S
C1478 H1490 0.960 . S
C1478 H1491 0.962 . S
C1478 H1492 0.960 . S
C1479 C1476 1.511 . S
C1479 H1493 0.961 . S
C1479 H1494 0.961 . S
C1479 H1495 0.961 . S
C1480 C1481 1.370 . S
C1480 C1482 1.363 . S
C1480 H1496 0.931 . S
C1481 C1480 1.370 . S
C1481 C1485 1.408 . S
C1482 C1480 1.363 . S
C1482 C1483 1.370 . S
C1482 C1486 1.524 . S
C1483 C1475 1.503 . S
C1483 C1482 1.370 . S
C1483 C1484 1.403 . S
C1484 C1483 1.403 . S
C1484 C1485 1.404 . S
C1484 C1487 1.539 . S
C1485 C1481 1.408 . S
C1485 C1484 1.404 . S
C1485 H1497 0.930 . S
C1486 C1482 1.524 . S
C1486 H1498 0.956 . S
C1486 H1499 0.961 . S
C1486 H1500 0.961 . S
C1487 C1484 1.539 . S
C1487 H1501 0.958 . S
C1487 H1502 0.961 . S
C1487 H1503 0.960 . S
H1488 C1472 0.931 . S
H1489 C1477 0.929 . S
H1490 C1478 0.960 . S
H1491 C1478 0.962 . S
H1492 C1478 0.960 . S
H1493 C1479 0.961 . S
H1494 C1479 0.961 . S
H1495 C1479 0.961 . S
H1496 C1480 0.931 . S
H1497 C1485 0.930 . S
H1498 C1486 0.956 . S
H1499 C1486 0.961 . S
H1500 C1486 0.961 . S
H1501 C1487 0.958 . S
H1502 C1487 0.961 . S
H1503 C1487 0.960 . S
C1504 C1505 1.391 . S
C1504 C1506 1.394 . S
C1504 H1520 0.931 . S
C1505 C1504 1.391 . S
C1505 C1509 1.376 . S
C1506 C1504 1.394 . S
C1506 C1507 1.369 . S
C1506 C1510 1.531 . S
C1507 C1506 1.369 . S
C1507 C1508 1.410 . S
C1507 C1515 1.503 . S
C1508 C1507 1.410 . S
C1508 C1509 1.392 . S
C1508 C1511 1.511 . S
C1509 C1505 1.376 . S
C1509 C1508 1.392 . S
C1509 H1521 0.929 . S
C1510 C1506 1.531 . S
C1510 H1522 0.960 . S
C1510 H1523 0.962 . S
C1510 H1524 0.960 . S
C1511 C1508 1.511 . S
C1511 H1525 0.961 . S
C1511 H1526 0.961 . S
C1511 H1527 0.961 . S
C1512 C1513 1.370 . S
C1512 C1514 1.363 . S
C1512 H1528 0.931 . S
C1513 C1512 1.370 . S
C1513 C1517 1.408 . S
C1514 C1512 1.363 . S
C1514 C1515 1.370 . S
C1514 C1518 1.524 . S
C1515 C1507 1.503 . S
C1515 C1514 1.370 . S
C1515 C1516 1.403 . S
C1516 C1515 1.403 . S
C1516 C1517 1.404 . S
C1516 C1519 1.539 . S
C1517 C1513 1.408 . S
C1517 C1516 1.404 . S
C1517 H1529 0.930 . S
C1518 C1514 1.524 . S
C1518 H1530 0.956 . S
C1518 H1531 0.961 . S
C1518 H1532 0.961 . S
C1519 C1516 1.539 . S
C1519 H1533 0.958 . S
C1519 H1534 0.961 . S
C1519 H1535 0.960 . S
H1520 C1504 0.931 . S
H1521 C1509 0.929 . S
H1522 C1510 0.960 . S
H1523 C1510 0.962 . S
H1524 C1510 0.960 . S
H1525 C1511 0.961 . S
H1526 C1511 0.961 . S
H1527 C1511 0.961 . S
H1528 C1512 0.931 . S
H1529 C1517 0.930 . S
H1530 C1518 0.956 . S
H1531 C1518 0.961 . S
H1532 C1518 0.961 . S
H1533 C1519 0.958 . S
H1534 C1519 0.961 . S
H1535 C1519 0.960 . S
C1536 C1537 1.391 . S
C1536 C1538 1.394 . S
C1536 H1552 0.931 . S
C1537 C1536 1.391 . S
C1537 C1541 1.376 . S
C1538 C1536 1.394 . S
C1538 C1539 1.369 . S
C1538 C1542 1.531 . S
C1539 C1538 1.369 . S
C1539 C1540 1.410 . S
C1539 C1547 1.503 . S
C1540 C1539 1.410 . S
C1540 C1541 1.392 . S
C1540 C1543 1.511 . S
C1541 C1537 1.376 . S
C1541 C1540 1.392 . S
C1541 H1553 0.929 . S
C1542 C1538 1.531 . S
C1542 H1554 0.960 . S
C1542 H1555 0.962 . S
C1542 H1556 0.960 . S
C1543 C1540 1.511 . S
C1543 H1557 0.961 . S
C1543 H1558 0.961 . S
C1543 H1559 0.961 . S
C1544 C1545 1.370 . S
C1544 C1546 1.363 . S
C1544 H1560 0.931 . S
C1545 C1544 1.370 . S
C1545 C1549 1.408 . S
C1546 C1544 1.363 . S
C1546 C1547 1.370 . S
C1546 C1550 1.524 . S
C1547 C1539 1.503 . S
C1547 C1546 1.370 . S
C1547 C1548 1.403 . S
C1548 C1547 1.403 . S
C1548 C1549 1.404 . S
C1548 C1551 1.539 . S
C1549 C1545 1.408 . S
C1549 C1548 1.404 . S
C1549 H1561 0.930 . S
C1550 C1546 1.524 . S
C1550 H1562 0.956 . S
C1550 H1563 0.961 . S
C1550 H1564 0.961 . S
C1551 C1548 1.539 . S
C1551 H1565 0.958 . S
C1551 H1566 0.961 . S
C1551 H1567 0.960 . S
H1552 C1536 0.931 . S
H1553 C1541 0.929 . S
H1554 C1542 0.960 . S
H1555 C1542 0.962 . S
H1556 C1542 0.960 . S
H1557 C1543 0.961 . S
H1558 C1543 0.961 . S
H1559 C1543 0.961 . S
H1560 C1544 0.931 . S
H1561 C1549 0.930 . S
H1562 C1550 0.956 . S
H1563 C1550 0.961 . S
H1564 C1550 0.961 . S
H1565 C1551 0.958 . S
H1566 C1551 0.961 . S
H1567 C1551 0.960 . S
C1568 C1569 1.391 . S
C1568 C1570 1.394 . S
C1568 H1584 0.931 . S
C1569 C1568 1.391 . S
C1569 C1573 1.376 . S
C1570 C1568 1.394 . S
C1570 C1571 1.369 . S
C1570 C1574 1.531 . S
C1571 C1570 1.369 . S
C1571 C1572 1.410 . S
C1571 C1579 1.503 . S
C1572 C1571 1.410 . S
C1572 C1573 1.392 . S
C1572 C1575 1.511 . S
C1573 C1569 1.376 . S
C1573 C1572 1.392 . S
C1573 H1585 0.929 . S
C1574 C1570 1.531 . S
C1574 H1586 0.960 . S
C1574 H1587 0.962 . S
C1574 H1588 0.960 . S
C1575 C1572 1.511 . S
C1575 H1589 0.961 . S
C1575 H1590 0.961 . S
C1575 H1591 0.961 . S
C1576 C1577 1.370 . S
C1576 C1578 1.363 . S
C1576 H1592 0.931 . S
C1577 C1576 1.370 . S
C1577 C1581 1.408 . S
C1578 C1576 1.363 . S
C1578 C1579 1.370 . S
C1578 C1582 1.524 . S
C1579 C1571 1.503 . S
C1579 C1578 1.370 . S
C1579 C1580 1.403 . S
C1580 C1579 1.403 . S
C1580 C1581 1.404 . S
C1580 C1583 1.539 . S
C1581 C1577 1.408 . S
C1581 C1580 1.404 . S
C1581 H1593 0.930 . S
C1582 C1578 1.524 . S
C1582 H1594 0.956 . S
C1582 H1595 0.961 . S
C1582 H1596 0.961 . S
C1583 C1580 1.539 . S
C1583 H1597 0.958 . S
C1583 H1598 0.961 . S
C1583 H1599 0.960 . S
H1584 C1568 0.931 . S
H1585 C1573 0.929 . S
H1586 C1574 0.960 . S
H1587 C1574 0.962 . S
H1588 C1574 0.960 . S
H1589 C1575 0.961 . S
H1590 C1575 0.961 . S
H1591 C1575 0.961 . S
H1592 C1576 0.931 . S
H1593 C1581 0.930 . S
H1594 C1582 0.956 . S
H1595 C1582 0.961 . S
H1596 C1582 0.961 . S
H1597 C1583 0.958 . S
H1598 C1583 0.961 . S
H1599 C1583 0.960 . S
C1600 C1601 1.391 . S
C1600 C1602 1.394 1_565 S
C1600 H1616 0.931 . S
C1601 C1600 1.391 . S
C1601 C1605 1.376 . S
C1602 C1600 1.394 1_545 S
C1602 C1603 1.369 . S
C1602 C1606 1.531 . S
C1603 C1602 1.369 . S
C1603 C1604 1.410 . S
C1603 C1611 1.503 . S
C1604 C1603 1.410 . S
C1604 C1605 1.392 1_545 S
C1604 C1607 1.511 . S
C1605 C1601 1.376 . S
C1605 C1604 1.392 1_565 S
C1605 H1617 0.929 . S
C1606 C1602 1.531 . S
C1606 H1618 0.960 . S
C1606 H1619 0.962 . S
C1606 H1620 0.960 . S
C1607 C1604 1.511 . S
C1607 H1621 0.961 . S
C1607 H1622 0.961 . S
C1607 H1623 0.961 . S
C1608 C1609 1.370 . S
C1608 C1610 1.363 . S
C1608 H1624 0.931 . S
C1609 C1608 1.370 . S
C1609 C1613 1.408 . S
C1610 C1608 1.363 . S
C1610 C1611 1.370 . S
C1610 C1614 1.524 . S
C1611 C1603 1.503 . S
C1611 C1610 1.370 . S
C1611 C1612 1.403 . S
C1612 C1611 1.403 . S
C1612 C1613 1.404 . S
C1612 C1615 1.539 . S
C1613 C1609 1.408 . S
C1613 C1612 1.404 . S
C1613 H1625 0.930 . S
C1614 C1610 1.524 . S
C1614 H1626 0.956 . S
C1614 H1627 0.961 . S
C1614 H1628 0.961 . S
C1615 C1612 1.539 . S
C1615 H1629 0.958 . S
C1615 H1630 0.961 . S
C1615 H1631 0.960 . S
H1616 C1600 0.931 . S
H1617 C1605 0.929 . S
H1618 C1606 0.960 . S
H1619 C1606 0.962 . S
H1620 C1606 0.960 . S
H1621 C1607 0.961 . S
H1622 C1607 0.961 . S
H1623 C1607 0.961 . S
H1624 C1608 0.931 . S
H1625 C1613 0.930 . S
H1626 C1614 0.956 . S
H1627 C1614 0.961 . S
H1628 C1614 0.961 . S
H1629 C1615 0.958 . S
H1630 C1615 0.961 . S
H1631 C1615 0.960 . S
C1632 C1633 1.391 . S
C1632 C1634 1.394 . S
C1632 H1648 0.931 . S
C1633 C1632 1.391 . S
C1633 C1637 1.376 . S
C1634 C1632 1.394 . S
C1634 C1635 1.369 . S
C1634 C1638 1.531 . S
C1635 C1634 1.369 . S
C1635 C1636 1.410 . S
C1635 C1643 1.503 . S
C1636 C1635 1.410 . S
C1636 C1637 1.392 . S
C1636 C1639 1.511 . S
C1637 C1633 1.376 . S
C1637 C1636 1.392 . S
C1637 H1649 0.929 . S
C1638 C1634 1.531 . S
C1638 H1650 0.960 . S
C1638 H1651 0.962 . S
C1638 H1652 0.960 . S
C1639 C1636 1.511 . S
C1639 H1653 0.961 . S
C1639 H1654 0.961 . S
C1639 H1655 0.961 . S
C1640 C1641 1.370 . S
C1640 C1642 1.363 1_545 S
C1640 H1656 0.931 . S
C1641 C1640 1.370 . S
C1641 C1645 1.408 . S
C1642 C1640 1.363 1_565 S
C1642 C1643 1.370 . S
C1642 C1646 1.524 . S
C1643 C1635 1.503 . S
C1643 C1642 1.370 . S
C1643 C1644 1.403 . S
C1644 C1643 1.403 . S
C1644 C1645 1.404 1_565 S
C1644 C1647 1.539 . S
C1645 C1641 1.408 . S
C1645 C1644 1.404 1_545 S
C1645 H1657 0.930 . S
C1646 C1642 1.524 . S
C1646 H1658 0.956 . S
C1646 H1659 0.961 . S
C1646 H1660 0.961 . S
C1647 C1644 1.539 . S
C1647 H1661 0.958 . S
C1647 H1662 0.961 . S
C1647 H1663 0.960 . S
H1648 C1632 0.931 . S
H1649 C1637 0.929 . S
H1650 C1638 0.960 . S
H1651 C1638 0.962 . S
H1652 C1638 0.960 . S
H1653 C1639 0.961 . S
H1654 C1639 0.961 . S
H1655 C1639 0.961 . S
H1656 C1640 0.931 . S
H1657 C1645 0.930 . S
H1658 C1646 0.956 . S
H1659 C1646 0.961 . S
H1660 C1646 0.961 . S
H1661 C1647 0.958 . S
H1662 C1647 0.961 . S
H1663 C1647 0.960 . S
C1664 C1665 1.391 . S
C1664 C1666 1.394 1_545 S
C1664 H1680 0.931 . S
C1665 C1664 1.391 . S
C1665 C1669 1.376 . S
C1666 C1664 1.394 1_565 S
C1666 C1667 1.369 . S
C1666 C1670 1.531 . S
C1667 C1666 1.369 . S
C1667 C1668 1.410 . S
C1667 C1675 1.503 . S
C1668 C1667 1.410 . S
C1668 C1669 1.392 1_565 S
C1668 C1671 1.511 . S
C1669 C1665 1.376 . S
C1669 C1668 1.392 1_545 S
C1669 H1681 0.929 . S
C1670 C1666 1.531 . S
C1670 H1682 0.960 . S
C1670 H1683 0.962 . S
C1670 H1684 0.960 . S
C1671 C1668 1.511 . S
C1671 H1685 0.961 . S
C1671 H1686 0.961 . S
C1671 H1687 0.961 . S
C1672 C1673 1.370 . S
C1672 C1674 1.363 . S
C1672 H1688 0.931 . S
C1673 C1672 1.370 . S
C1673 C1677 1.408 . S
C1674 C1672 1.363 . S
C1674 C1675 1.370 . S
C1674 C1678 1.524 . S
C1675 C1667 1.503 . S
C1675 C1674 1.370 . S
C1675 C1676 1.403 . S
C1676 C1675 1.403 . S
C1676 C1677 1.404 . S
C1676 C1679 1.539 . S
C1677 C1673 1.408 . S
C1677 C1676 1.404 . S
C1677 H1689 0.930 . S
C1678 C1674 1.524 . S
C1678 H1690 0.956 . S
C1678 H1691 0.961 . S
C1678 H1692 0.961 . S
C1679 C1676 1.539 . S
C1679 H1693 0.958 . S
C1679 H1694 0.961 . S
C1679 H1695 0.960 . S
H1680 C1664 0.931 . S
H1681 C1669 0.929 . S
H1682 C1670 0.960 . S
H1683 C1670 0.962 . S
H1684 C1670 0.960 . S
H1685 C1671 0.961 . S
H1686 C1671 0.961 . S
H1687 C1671 0.961 . S
H1688 C1672 0.931 . S
H1689 C1677 0.930 . S
H1690 C1678 0.956 . S
H1691 C1678 0.961 . S
H1692 C1678 0.961 . S
H1693 C1679 0.958 . S
H1694 C1679 0.961 . S
H1695 C1679 0.960 . S
C1696 C1697 1.391 . S
C1696 C1698 1.394 1_565 S
C1696 H1712 0.931 . S
C1697 C1696 1.391 . S
C1697 C1701 1.376 . S
C1698 C1696 1.394 1_545 S
C1698 C1699 1.369 . S
C1698 C1702 1.531 . S
C1699 C1698 1.369 . S
C1699 C1700 1.410 . S
C1699 C1707 1.503 . S
C1700 C1699 1.410 . S
C1700 C1701 1.392 1_545 S
C1700 C1703 1.511 . S
C1701 C1697 1.376 . S
C1701 C1700 1.392 1_565 S
C1701 H1713 0.929 . S
C1702 C1698 1.531 . S
C1702 H1714 0.960 . S
C1702 H1715 0.962 . S
C1702 H1716 0.960 . S
C1703 C1700 1.511 . S
C1703 H1717 0.961 . S
C1703 H1718 0.961 . S
C1703 H1719 0.961 . S
C1704 C1705 1.370 . S
C1704 C1706 1.363 . S
C1704 H1720 0.931 . S
C1705 C1704 1.370 . S
C1705 C1709 1.408 . S
C1706 C1704 1.363 . S
C1706 C1707 1.370 . S
C1706 C1710 1.524 . S
C1707 C1699 1.503 . S
C1707 C1706 1.370 . S
C1707 C1708 1.403 . S
C1708 C1707 1.403 . S
C1708 C1709 1.404 . S
C1708 C1711 1.539 . S
C1709 C1705 1.408 . S
C1709 C1708 1.404 . S
C1709 H1721 0.930 . S
C1710 C1706 1.524 . S
C1710 H1722 0.956 . S
C1710 H1723 0.961 . S
C1710 H1724 0.961 . S
C1711 C1708 1.539 . S
C1711 H1725 0.958 . S
C1711 H1726 0.961 . S
C1711 H1727 0.960 . S
H1712 C1696 0.931 . S
H1713 C1701 0.929 . S
H1714 C1702 0.960 . S
H1715 C1702 0.962 . S
H1716 C1702 0.960 . S
H1717 C1703 0.961 . S
H1718 C1703 0.961 . S
H1719 C1703 0.961 . S
H1720 C1704 0.931 . S
H1721 C1709 0.930 . S
H1722 C1710 0.956 . S
H1723 C1710 0.961 . S
H1724 C1710 0.961 . S
H1725 C1711 0.958 . S
H1726 C1711 0.961 . S
H1727 C1711 0.960 . S
C1728 C1729 1.391 . S
C1728 C1730 1.394 . S
C1728 H1744 0.931 . S
C1729 C1728 1.391 . S
C1729 C1733 1.376 . S
C1730 C1728 1.394 . S
C1730 C1731 1.369 . S
C1730 C1734 1.531 . S
C1731 C1730 1.369 . S
C1731 C1732 1.410 . S
C1731 C1739 1.503 . S
C1732 C1731 1.410 . S
C1732 C1733 1.392 . S
C1732 C1735 1.511 . S
C1733 C1729 1.376 . S
C1733 C1732 1.392 . S
C1733 H1745 0.929 . S
C1734 C1730 1.531 . S
C1734 H1746 0.960 . S
C1734 H1747 0.962 . S
C1734 H1748 0.960 . S
C1735 C1732 1.511 . S
C1735 H1749 0.961 . S
C1735 H1750 0.961 . S
C1735 H1751 0.961 . S
C1736 C1737 1.370 . S
C1736 C1738 1.363 1_545 S
C1736 H1752 0.931 . S
C1737 C1736 1.370 . S
C1737 C1741 1.408 . S
C1738 C1736 1.363 1_565 S
C1738 C1739 1.370 . S
C1738 C1742 1.524 . S
C1739 C1731 1.503 . S
C1739 C1738 1.370 . S
C1739 C1740 1.403 . S
C1740 C1739 1.403 . S
C1740 C1741 1.404 1_565 S
C1740 C1743 1.539 . S
C1741 C1737 1.408 . S
C1741 C1740 1.404 1_545 S
C1741 H1753 0.930 . S
C1742 C1738 1.524 . S
C1742 H1754 0.956 . S
C1742 H1755 0.961 . S
C1742 H1756 0.961 . S
C1743 C1740 1.539 . S
C1743 H1757 0.958 . S
C1743 H1758 0.961 . S
C1743 H1759 0.960 . S
H1744 C1728 0.931 . S
H1745 C1733 0.929 . S
H1746 C1734 0.960 . S
H1747 C1734 0.962 . S
H1748 C1734 0.960 . S
H1749 C1735 0.961 . S
H1750 C1735 0.961 . S
H1751 C1735 0.961 . S
H1752 C1736 0.931 . S
H1753 C1741 0.930 . S
H1754 C1742 0.956 . S
H1755 C1742 0.961 . S
H1756 C1742 0.961 . S
H1757 C1743 0.958 . S
H1758 C1743 0.961 . S
H1759 C1743 0.960 . S
C1760 C1761 1.391 . S
C1760 C1762 1.394 . S
C1760 H1776 0.931 . S
C1761 C1760 1.391 . S
C1761 C1765 1.376 . S
C1762 C1760 1.394 . S
C1762 C1763 1.369 . S
C1762 C1766 1.531 . S
C1763 C1762 1.369 . S
C1763 C1764 1.410 . S
C1763 C1771 1.503 . S
C1764 C1763 1.410 . S
C1764 C1765 1.392 . S
C1764 C1767 1.511 . S
C1765 C1761 1.376 . S
C1765 C1764 1.392 . S
C1765 H1777 0.929 . S
C1766 C1762 1.531 . S
C1766 H1778 0.960 . S
C1766 H1779 0.962 . S
C1766 H1780 0.960 . S
C1767 C1764 1.511 . S
C1767 H1781 0.961 . S
C1767 H1782 0.961 . S
C1767 H1783 0.961 . S
C1768 C1769 1.370 . S
C1768 C1770 1.363 1_565 S
C1768 H1784 0.931 . S
C1769 C1768 1.370 . S
C1769 C1773 1.408 . S
C1770 C1768 1.363 1_545 S
C1770 C1771 1.370 . S
C1770 C1774 1.524 . S
C1771 C1763 1.503 . S
C1771 C1770 1.370 . S
C1771 C1772 1.403 . S
C1772 C1771 1.403 . S
C1772 C1773 1.404 1_545 S
C1772 C1775 1.539 . S
C1773 C1769 1.408 . S
C1773 C1772 1.404 1_565 S
C1773 H1785 0.930 . S
C1774 C1770 1.524 . S
C1774 H1786 0.956 . S
C1774 H1787 0.961 . S
C1774 H1788 0.961 . S
C1775 C1772 1.539 . S
C1775 H1789 0.958 . S
C1775 H1790 0.961 . S
C1775 H1791 0.960 . S
H1776 C1760 0.931 . S
H1777 C1765 0.929 . S
H1778 C1766 0.960 . S
H1779 C1766 0.962 . S
H1780 C1766 0.960 . S
H1781 C1767 0.961 . S
H1782 C1767 0.961 . S
H1783 C1767 0.961 . S
H1784 C1768 0.931 . S
H1785 C1773 0.930 . S
H1786 C1774 0.956 . S
H1787 C1774 0.961 . S
H1788 C1774 0.961 . S
H1789 C1775 0.958 . S
H1790 C1775 0.961 . S
H1791 C1775 0.960 . S
C1792 C1793 1.391 . S
C1792 C1794 1.394 1_565 S
C1792 H1808 0.931 . S
C1793 C1792 1.391 . S
C1793 C1797 1.376 . S
C1794 C1792 1.394 1_545 S
C1794 C1795 1.369 . S
C1794 C1798 1.531 . S
C1795 C1794 1.369 . S
C1795 C1796 1.410 . S
C1795 C1803 1.503 . S
C1796 C1795 1.410 . S
C1796 C1797 1.392 1_545 S
C1796 C1799 1.511 . S
C1797 C1793 1.376 . S
C1797 C1796 1.392 1_565 S
C1797 H1809 0.929 . S
C1798 C1794 1.531 . S
C1798 H1810 0.960 . S
C1798 H1811 0.962 . S
C1798 H1812 0.960 . S
C1799 C1796 1.511 . S
C1799 H1813 0.961 . S
C1799 H1814 0.961 . S
C1799 H1815 0.961 . S
C1800 C1801 1.370 . S
C1800 C1802 1.363 . S
C1800 H1816 0.931 . S
C1801 C1800 1.370 . S
C1801 C1805 1.408 . S
C1802 C1800 1.363 . S
C1802 C1803 1.370 . S
C1802 C1806 1.524 . S
C1803 C1795 1.503 . S
C1803 C1802 1.370 . S
C1803 C1804 1.403 . S
C1804 C1803 1.403 . S
C1804 C1805 1.404 . S
C1804 C1807 1.539 . S
C1805 C1801 1.408 . S
C1805 C1804 1.404 . S
C1805 H1817 0.930 . S
C1806 C1802 1.524 . S
C1806 H1818 0.956 . S
C1806 H1819 0.961 . S
C1806 H1820 0.961 . S
C1807 C1804 1.539 . S
C1807 H1821 0.958 . S
C1807 H1822 0.961 . S
C1807 H1823 0.960 . S
H1808 C1792 0.931 . S
H1809 C1797 0.929 . S
H1810 C1798 0.960 . S
H1811 C1798 0.962 . S
H1812 C1798 0.960 . S
H1813 C1799 0.961 . S
H1814 C1799 0.961 . S
H1815 C1799 0.961 . S
H1816 C1800 0.931 . S
H1817 C1805 0.930 . S
H1818 C1806 0.956 . S
H1819 C1806 0.961 . S
H1820 C1806 0.961 . S
H1821 C1807 0.958 . S
H1822 C1807 0.961 . S
H1823 C1807 0.960 . S
C1824 C1825 1.391 . S
C1824 C1826 1.394 . S
C1824 H1840 0.931 . S
C1825 C1824 1.391 . S
C1825 C1829 1.376 . S
C1826 C1824 1.394 . S
C1826 C1827 1.369 . S
C1826 C1830 1.531 . S
C1827 C1826 1.369 . S
C1827 C1828 1.410 . S
C1827 C1835 1.503 . S
C1828 C1827 1.410 . S
C1828 C1829 1.392 . S
C1828 C1831 1.511 . S
C1829 C1825 1.376 . S
C1829 C1828 1.392 . S
C1829 H1841 0.929 . S
C1830 C1826 1.531 . S
C1830 H1842 0.960 . S
C1830 H1843 0.962 . S
C1830 H1844 0.960 . S
C1831 C1828 1.511 . S
C1831 H1845 0.961 . S
C1831 H1846 0.961 . S
C1831 H1847 0.961 . S
C1832 C1833 1.370 . S
C1832 C1834 1.363 1_545 S
C1832 H1848 0.931 . S
C1833 C1832 1.370 . S
C1833 C1837 1.408 . S
C1834 C1832 1.363 1_565 S
C1834 C1835 1.370 . S
C1834 C1838 1.524 . S
C1835 C1827 1.503 . S
C1835 C1834 1.370 . S
C1835 C1836 1.403 . S
C1836 C1835 1.403 . S
C1836 C1837 1.404 1_565 S
C1836 C1839 1.539 . S
C1837 C1833 1.408 . S
C1837 C1836 1.404 1_545 S
C1837 H1849 0.930 . S
C1838 C1834 1.524 . S
C1838 H1850 0.956 . S
C1838 H1851 0.961 . S
C1838 H1852 0.961 . S
C1839 C1836 1.539 . S
C1839 H1853 0.958 . S
C1839 H1854 0.961 . S
C1839 H1855 0.960 . S
H1840 C1824 0.931 . S
H1841 C1829 0.929 . S
H1842 C1830 0.960 . S
H1843 C1830 0.962 . S
H1844 C1830 0.960 . S
H1845 C1831 0.961 . S
H1846 C1831 0.961 . S
H1847 C1831 0.961 . S
H1848 C1832 0.931 . S
H1849 C1837 0.930 . S
H1850 C1838 0.956 . S
H1851 C1838 0.961 . S
H1852 C1838 0.961 . S
H1853 C1839 0.958 . S
H1854 C1839 0.961 . S
H1855 C1839 0.960 . S
C321 C6 1.591 . S
C329 C186 1.571 . S
C353 C26 1.612 . S
C361 C166 1.562 . S
C385 C226 1.585 . S
C393 C46 1.572 . S
C417 C66 1.608 . S
C425 C206 1.563 . S
C449 C276 1.587 . S
C457 C96 1.577 . S
C481 C256 1.602 . S
C489 C116 1.569 . S
C513 C316 1.585 . S
C521 C136 1.569 . S
C545 C156 1.581 . S
C553 C296 1.570 . S
C577 C49 1.552 . S
C585 C9 1.545 . S
C609 C69 1.540 . S
C617 C29 1.553 . S
C641 C121 1.554 . S
C649 C81 1.548 . S
C673 C101 1.554 . S
C681 C141 1.548 . S
C705 C209 1.554 . S
C713 C169 1.548 . S
C737 C229 1.540 . S
C745 C189 1.553 . S
C769 C241 1.535 . S
C777 C281 1.550 . S
C801 C261 1.535 . S
C809 C301 1.550 . S
C833 C109 1.547 . S
C841 C1 1.564 . S
C865 C89 1.546 . S
C873 C21 1.563 . S
C897 C41 1.544 . S
C905 C149 1.563 . S
C929 C129 1.583 . S
C937 C61 1.577 . S
C961 C161 1.558 . S
C969 C269 1.566 . S
C993 C249 1.581 . S
C1001 C181 1.576 . S
C1025 C201 1.552 . S
C1033 C309 1.566 . S
C1057 C289 1.582 . S
C1065 C221 1.576 . S
C1089 C36 1.610 1_545 S
C1097 C16 1.559 . S
C1121 C76 1.593 1_565 S
C1129 C56 1.562 . S
C1153 C106 1.561 . S
C1161 C86 1.580 . S
C1185 C126 1.545 . S
C1193 C146 1.583 1_545 S
C1217 C196 1.584 . S
C1225 C176 1.565 . S
C1249 C236 1.594 . S
C1257 C216 1.569 . S
C1281 C246 1.594 . S
C1289 C266 1.564 . S
C1313 C286 1.557 . S
C1321 C306 1.580 . S
C1345 C8 1.959 . S
C1353 C19 1.917 . S
C1377 C28 1.892 . S
C1385 C39 1.945 . S
C1409 C48 1.906 . S
C1417 C59 1.942 . S
C1441 C79 1.946 . S
C1449 C68 1.922 . S
C1473 C99 1.931 . S
C1481 C88 1.933 . S
C1505 C108 1.948 . S
C1513 C119 1.921 . S
C1537 C139 1.930 . S
C1545 C128 1.928 . S
C1569 C159 1.962 . S
C1577 C148 1.917 . S
C1601 C179 1.919 . S
C1609 C168 1.933 . S
C1633 C188 1.939 . S
C1641 C199 1.925 . S
C1665 C219 1.914 . S
C1673 C208 1.939 . S
C1697 C239 1.901 . S
C1705 C228 1.944 . S
C1729 C259 1.907 . S
C1737 C248 1.938 . S
C1761 C279 1.921 . S
C1769 C268 1.937 . S
C1793 C288 1.915 . S
C1801 C299 1.934 . S
C1825 C319 1.961 . S
C1833 C308 1.917 . S
