# Generated by pormake.
# Topology uob, (4)-cn, num edge types: 1
# Building blocks:
#     Node 0, Type 0, BuildingBlock: MUDLON_clean_sbu_0, # of connection points: 4
#     Node 1, Type 0, BuildingBlock: MUDLON_clean_sbu_0, # of connection points: 4
#     Node 2, Type 0, BuildingBlock: MUDLON_clean_sbu_0, # of connection points: 4
#     Node 3, Type 0, BuildingBlock: MUDLON_clean_sbu_0, # of connection points: 4
#     Node 4, Type 0, BuildingBlock: MUDLON_clean_sbu_0, # of connection points: 4
#     Node 5, Type 0, BuildingBlock: MUDLON_clean_sbu_0, # of connection points: 4
#     Node 6, Type 0, BuildingBlock: MUDLON_clean_sbu_0, # of connection points: 4
#     Node 7, Type 0, BuildingBlock: MUDLON_clean_sbu_0, # of connection points: 4
#     Node 8, Type 0, BuildingBlock: MUDLON_clean_sbu_0, # of connection points: 4
#     Node 9, Type 0, BuildingBlock: MUDLON_clean_sbu_0, # of connection points: 4
#     Node 10, Type 0, BuildingBlock: MUDLON_clean_sbu_0, # of connection points: 4
#     Node 11, Type 0, BuildingBlock: MUDLON_clean_sbu_0, # of connection points: 4
#     Node 12, Type 0, BuildingBlock: MUDLON_clean_sbu_0, # of connection points: 4
#     Node 13, Type 0, BuildingBlock: MUDLON_clean_sbu_0, # of connection points: 4
#     Node 14, Type 0, BuildingBlock: MUDLON_clean_sbu_0, # of connection points: 4
#     Node 15, Type 0, BuildingBlock: MUDLON_clean_sbu_0, # of connection points: 4
#     Edge 16, Type (0, 0), BuildingBlock: XUDNAN_clean_linker_2, # of connection points: 2
#     Edge 17, Type (0, 0), BuildingBlock: XUDNAN_clean_linker_2, # of connection points: 2
#     Edge 18, Type (0, 0), BuildingBlock: XUDNAN_clean_linker_2, # of connection points: 2
#     Edge 19, Type (0, 0), BuildingBlock: XUDNAN_clean_linker_2, # of connection points: 2
#     Edge 20, Type (0, 0), BuildingBlock: XUDNAN_clean_linker_2, # of connection points: 2
#     Edge 21, Type (0, 0), BuildingBlock: XUDNAN_clean_linker_2, # of connection points: 2
#     Edge 22, Type (0, 0), BuildingBlock: XUDNAN_clean_linker_2, # of connection points: 2
#     Edge 23, Type (0, 0), BuildingBlock: XUDNAN_clean_linker_2, # of connection points: 2
#     Edge 24, Type (0, 0), BuildingBlock: XUDNAN_clean_linker_2, # of connection points: 2
#     Edge 25, Type (0, 0), BuildingBlock: XUDNAN_clean_linker_2, # of connection points: 2
#     Edge 26, Type (0, 0), BuildingBlock: XUDNAN_clean_linker_2, # of connection points: 2
#     Edge 27, Type (0, 0), BuildingBlock: XUDNAN_clean_linker_2, # of connection points: 2
#     Edge 28, Type (0, 0), BuildingBlock: XUDNAN_clean_linker_2, # of connection points: 2
#     Edge 29, Type (0, 0), BuildingBlock: XUDNAN_clean_linker_2, # of connection points: 2
#     Edge 30, Type (0, 0), BuildingBlock: XUDNAN_clean_linker_2, # of connection points: 2
#     Edge 31, Type (0, 0), BuildingBlock: XUDNAN_clean_linker_2, # of connection points: 2
#     Edge 32, Type (0, 0), BuildingBlock: XUDNAN_clean_linker_2, # of connection points: 2
#     Edge 33, Type (0, 0), BuildingBlock: XUDNAN_clean_linker_2, # of connection points: 2
#     Edge 34, Type (0, 0), BuildingBlock: XUDNAN_clean_linker_2, # of connection points: 2
#     Edge 35, Type (0, 0), BuildingBlock: XUDNAN_clean_linker_2, # of connection points: 2
#     Edge 36, Type (0, 0), BuildingBlock: XUDNAN_clean_linker_2, # of connection points: 2
#     Edge 37, Type (0, 0), BuildingBlock: XUDNAN_clean_linker_2, # of connection points: 2
#     Edge 38, Type (0, 0), BuildingBlock: XUDNAN_clean_linker_2, # of connection points: 2
#     Edge 39, Type (0, 0), BuildingBlock: XUDNAN_clean_linker_2, # of connection points: 2
#     Edge 40, Type (0, 0), BuildingBlock: XUDNAN_clean_linker_2, # of connection points: 2
#     Edge 41, Type (0, 0), BuildingBlock: XUDNAN_clean_linker_2, # of connection points: 2
#     Edge 42, Type (0, 0), BuildingBlock: XUDNAN_clean_linker_2, # of connection points: 2
#     Edge 43, Type (0, 0), BuildingBlock: XUDNAN_clean_linker_2, # of connection points: 2
#     Edge 44, Type (0, 0), BuildingBlock: XUDNAN_clean_linker_2, # of connection points: 2
#     Edge 45, Type (0, 0), BuildingBlock: XUDNAN_clean_linker_2, # of connection points: 2
#     Edge 46, Type (0, 0), BuildingBlock: XUDNAN_clean_linker_2, # of connection points: 2
#     Edge 47, Type (0, 0), BuildingBlock: XUDNAN_clean_linker_2, # of connection points: 2
# Relax obj value: 0.172
# Max RMSD: 0.257
# Mean RMSD: 0.257
data_MOF--net-uob--node1-MUDLON_clean_sbu_0--edge1-XUDNAN_clean_linker_2
_symmetry_space_group_name_H-M    P1
_symmetry_Int_Tables_number       1
_symmetry_cell_setting            triclinic
loop_
_symmetry_equiv_pos_as_xyz
'x, y, z'
_cell_length_a     55.202803
_cell_length_b     55.107696
_cell_length_c     28.914789
_cell_angle_alpha  89.994938
_cell_angle_beta   90.023847
_cell_angle_gamma 90.036726
loop_
_atom_site_label
_atom_site_type_symbol
_atom_site_fract_x
_atom_site_fract_y
_atom_site_fract_z
_atom_type_partial_charge
Mg0 Mg 0.13412 0.06718 0.3176 0.0
C1 C 0.14347 0.08037 0.41582 0.0
O2 O 0.15589 0.06018 0.41187 0.0
C3 C 0.13508 0.08265 0.21626 0.0
O4 O 0.14356 0.06054 0.21115 0.0
C5 C 0.18669 0.06629 0.32788 0.0
O6 O 0.18141 0.08912 0.31947 0.0
O7 O 0.16991 0.0506 0.32336 0.0
O8 O 0.13181 0.08841 0.38103 0.0
O9 O 0.10273 0.04329 0.32299 0.0
C10 C 0.08957 0.03674 0.28907 0.0
O11 O 0.09641 0.04203 0.24677 0.0
O12 O 0.13034 0.09033 0.25677 0.0
Mg13 Mg 0.9418 0.63656 0.55267 0.0
C14 C 0.92571 0.6329 0.65102 0.0
O15 O 0.94625 0.6447 0.65562 0.0
C16 C 0.93031 0.63665 0.45082 0.0
O17 O 0.95386 0.63321 0.44958 0.0
C18 C 0.94169 0.68672 0.58557 0.0
O19 O 0.91879 0.68128 0.57864 0.0
O20 O 0.95764 0.67123 0.57375 0.0
O21 O 0.91875 0.62674 0.61071 0.0
O22 O 0.96654 0.60611 0.54208 0.0
C23 C 0.97285 0.5925 0.57553 0.0
O24 O 0.96659 0.59856 0.61778 0.0
O25 O 0.9201 0.63961 0.48987 0.0
Mg26 Mg 0.37771 0.45392 0.79972 0.0
C27 C 0.38636 0.43815 0.89494 0.0
O28 O 0.37808 0.46037 0.8996 0.0
C29 C 0.36326 0.43942 0.70072 0.0
O30 O 0.34366 0.45193 0.71042 0.0
C31 C 0.32839 0.44941 0.83834 0.0
O32 O 0.33594 0.42685 0.83555 0.0
O33 O 0.34181 0.46608 0.82178 0.0
O34 O 0.38869 0.42945 0.85444 0.0
O35 O 0.40507 0.48227 0.80059 0.0
C36 C 0.42695 0.47495 0.79966 0.0
O37 O 0.43115 0.4515 0.79783 0.0
O38 O 0.37939 0.43675 0.73175 0.0
Mg39 Mg 0.5628 0.88121 0.05622 0.0
C40 C 0.57999 0.887 0.15129 0.0
O41 O 0.55784 0.87865 0.15621 0.0
C42 C 0.58266 0.86501 0.96065 0.0
O43 O 0.57585 0.84318 0.97352 0.0
C44 C 0.56594 0.83132 0.0917 0.0
O45 O 0.5886 0.83826 0.08725 0.0
O46 O 0.54936 0.84548 0.07722 0.0
O47 O 0.5881 0.89052 0.11067 0.0
O48 O 0.53635 0.91045 0.058 0.0
C49 C 0.54521 0.93137 0.04983 0.0
O50 O 0.56845 0.9331 0.04051 0.0
O51 O 0.57984 0.88274 0.98829 0.0
Mg52 Mg 0.13604 0.44951 0.07574 0.0
C53 C 0.13213 0.43244 0.97845 0.0
O54 O 0.14447 0.45266 0.97347 0.0
C55 C 0.1535 0.4338 0.17197 0.0
O56 O 0.17094 0.44942 0.16351 0.0
C57 C 0.18653 0.44912 0.04388 0.0
O58 O 0.18148 0.42622 0.05223 0.0
O59 O 0.17074 0.46504 0.05436 0.0
O60 O 0.12592 0.42581 0.01891 0.0
O61 O 0.1056 0.47427 0.08443 0.0
C62 C 0.09303 0.48212 0.05071 0.0
O63 O 0.10041 0.47801 1.00827 0.0
O64 O 0.13777 0.42961 0.14082 0.0
Mg65 Mg 0.57113 0.63336 0.30038 0.0
C66 C 0.58042 0.64027 0.20078 0.0
O67 O 0.55909 0.65036 0.20632 0.0
C68 C 0.58579 0.63116 0.39977 0.0
O69 O 0.56204 0.63111 0.40302 0.0
C70 C 0.56825 0.68547 0.28687 0.0
O71 O 0.5913 0.68064 0.29357 0.0
O72 O 0.55301 0.66843 0.29315 0.0
O73 O 0.59079 0.63047 0.2354 0.0
O74 O 0.54922 0.60046 0.30468 0.0
C75 C 0.56244 0.58157 0.30727 0.0
O76 O 0.58608 0.5844 0.30741 0.0
O77 O 0.59536 0.63284 0.35989 0.0
Mg78 Mg 0.37746 0.06579 0.57329 0.0
C79 C 0.40194 0.0857 0.4885 0.0
O80 O 0.41427 0.06551 0.4934 0.0
C81 C 0.36157 0.09096 0.66491 0.0
O82 O 0.33943 0.08945 0.64847 0.0
C83 C 0.32835 0.06912 0.53349 0.0
O84 O 0.33558 0.09182 0.5356 0.0
O85 O 0.34184 0.05283 0.55118 0.0
O86 O 0.38636 0.09143 0.51888 0.0
O87 O 0.40486 0.03732 0.57277 0.0
C88 C 0.42627 0.04273 0.58561 0.0
O89 O 0.4307 0.06489 0.6001 0.0
O90 O 0.37917 0.08299 0.64097 0.0
Mg91 Mg 0.94433 0.88331 0.80387 0.0
C92 C 0.93227 0.87867 0.70621 0.0
O93 O 0.95404 0.86928 0.70988 0.0
C94 C 0.92334 0.871 0.89909 0.0
O95 O 0.93366 0.84998 0.89075 0.0
C96 C 0.94299 0.8313 0.78432 0.0
O97 O 0.9202 0.83779 0.78872 0.0
O98 O 0.95928 0.84686 0.79412 0.0
O99 O 0.92217 0.88743 0.74209 0.0
O100 O 0.9698 0.91335 0.79844 0.0
C101 C 0.97305 0.92802 0.83186 0.0
O102 O 0.96327 0.92314 0.87222 0.0
O103 O 0.9242 0.88752 0.86841 0.0
Mg104 Mg 0.6339 0.5703 0.80128 0.0
C105 C 0.63191 0.58818 0.89625 0.0
O106 O 0.63818 0.56529 0.90063 0.0
C107 C 0.651 0.58635 0.7037 0.0
O108 O 0.67129 0.57524 0.71441 0.0
C109 C 0.68415 0.56869 0.83122 0.0
O110 O 0.67966 0.59154 0.82147 0.0
O111 O 0.6679 0.55302 0.82182 0.0
O112 O 0.62863 0.5967 0.85586 0.0
O113 O 0.60063 0.54902 0.80391 0.0
C114 C 0.58227 0.56296 0.80134 0.0
O115 O 0.58603 0.58642 0.79738 0.0
O116 O 0.63403 0.5874 0.73336 0.0
Mg117 Mg 0.43695 0.13798 0.07049 0.0
C118 C 0.43017 0.12982 0.16668 0.0
O119 O 0.45341 0.12736 0.15796 0.0
C120 C 0.42516 0.13542 0.97058 0.0
O121 O 0.44814 0.12922 0.97154 0.0
C122 C 0.44529 0.18714 0.1024 0.0
O123 O 0.42166 0.18429 0.10058 0.0
O124 O 0.45861 0.17005 0.0871 0.0
O125 O 0.41596 0.13455 0.13327 0.0
O126 O 0.45443 0.10257 0.06707 0.0
C127 C 0.47586 0.096 0.05708 0.0
O128 O 0.49218 0.11241 0.04625 0.0
O129 O 0.41495 0.14147 1.0083 0.0
Mg130 Mg 0.87592 0.94745 0.30508 0.0
C131 C 0.88121 0.93196 0.40168 0.0
O132 O 0.87386 0.95456 0.40534 0.0
C133 C 0.87635 0.93761 0.20087 0.0
O134 O 0.87687 0.96143 0.19907 0.0
C135 C 0.82625 0.94583 0.34052 0.0
O136 O 0.83251 0.92298 0.3354 0.0
O137 O 0.84081 0.96212 0.32626 0.0
O138 O 0.88428 0.92303 0.36155 0.0
O139 O 0.90605 0.97306 0.30667 0.0
C140 C 0.92472 0.96915 0.28193 0.0
O141 O 0.92455 0.95095 0.2526 0.0
O142 O 0.87514 0.92723 0.24014 0.0
Mg143 Mg 0.07296 0.38342 0.57121 0.0
C144 C 0.07645 0.38295 0.67204 0.0
O145 O 0.05511 0.37347 0.66314 0.0
C146 C 0.09037 0.38345 0.47352 0.0
O147 O 0.06713 0.37904 0.46831 0.0
C148 C 0.07663 0.33311 0.59865 0.0
O149 O 0.09887 0.34161 0.5977 0.0
O150 O 0.05977 0.34638 0.58241 0.0
O151 O 0.08936 0.39049 0.63848 0.0
O152 O 0.04621 0.41203 0.55839 0.0
C153 C 0.04417 0.42929 0.58746 0.0
O154 O 0.05645 0.42821 0.62627 0.0
O155 O 0.09881 0.38539 0.51432 0.0
Mg156 Mg 0.63092 0.94364 0.55622 0.0
C157 C 0.63628 0.93561 0.45621 0.0
O158 O 0.64586 0.95717 0.4625 0.0
C159 C 0.62649 0.92962 0.65519 0.0
O160 O 0.62422 0.95334 0.65687 0.0
C161 C 0.68263 0.94587 0.54076 0.0
O162 O 0.67736 0.92285 0.54719 0.0
O163 O 0.66605 0.96145 0.54812 0.0
O164 O 0.6275 0.92434 0.4908 0.0
O165 O 0.59816 0.96563 0.56062 0.0
C166 C 0.57943 0.95241 0.55529 0.0
O167 O 0.58253 0.92906 0.54819 0.0
O168 O 0.63036 0.91965 0.61618 0.0
Mg169 Mg 0.07074 0.13691 0.81584 0.0
C170 C 0.08619 0.12407 0.72191 0.0
O171 O 0.06248 0.1226 0.71973 0.0
C172 C 0.08446 0.14834 0.91536 0.0
O173 O 0.07154 0.16777 0.90625 0.0
C174 C 0.04884 0.18183 0.76734 0.0
O175 O 0.03951 0.16568 0.73911 0.0
O176 O 0.06029 0.17464 0.8031 0.0
O177 O 0.09607 0.12906 0.76049 0.0
O178 O 0.04282 0.10918 0.80847 0.0
C179 C 0.03964 0.09343 0.84009 0.0
O180 O 0.05089 0.09613 0.8798 0.0
O181 O 0.08777 0.13275 0.88354 0.0
Mg182 Mg 0.87869 0.56914 0.05565 0.0
C183 C 0.87586 0.57665 0.95595 0.0
O184 O 0.86698 0.55481 0.96252 0.0
C185 C 0.86457 0.5935 0.14718 0.0
O186 O 0.84381 0.58258 0.13937 0.0
C187 C 0.82744 0.57027 0.03276 0.0
O188 O 0.83445 0.59305 0.03459 0.0
O189 O 0.84236 0.55401 0.04575 0.0
O190 O 0.88376 0.58849 0.99064 0.0
O191 O 0.90852 0.54333 0.06243 0.0
C192 C 0.92692 0.54573 0.03622 0.0
O193 O 0.9263 0.56197 1.00303 0.0
O194 O 0.88134 0.59198 0.11716 0.0
Mg195 Mg 0.44375 0.38225 0.30023 0.0
C196 C 0.4363 0.37936 0.19946 0.0
O197 O 0.45538 0.36569 0.20648 0.0
C198 C 0.4287 0.38931 0.39914 0.0
O199 O 0.45207 0.38552 0.40388 0.0
C200 C 0.47405 0.33564 0.28242 0.0
O201 O 0.49257 0.35058 0.28008 0.0
O202 O 0.45342 0.34386 0.29437 0.0
O203 O 0.42659 0.39001 0.23385 0.0
O204 O 0.47363 0.40784 0.30619 0.0
C205 C 0.46746 0.43011 0.3059 0.0
O206 O 0.44433 0.43549 0.30263 0.0
O207 O 0.41954 0.38857 0.35873 0.0
H208 H 0.29934 0.10029 0.48556 0.0
H209 H 0.30849 0.02385 0.51707 0.0
H210 H 0.27407 0.01404 0.46514 0.0
H211 H 0.2341 0.10008 0.47975 0.0
H212 H 0.23336 0.12176 0.43311 0.0
H213 H 0.25801 0.12218 0.47389 0.0
H214 H 0.28854 0.11828 0.40605 0.0
H215 H 0.26394 0.11744 0.36519 0.0
H216 H 0.28583 0.0932 0.36636 0.0
H217 H 0.23792 0.01313 0.40863 0.0
H218 H 0.20337 0.02137 0.35607 0.0
H219 H 0.22028 0.09824 0.36069 0.0
C220 C 0.29407 0.08145 0.48201 0.0
C221 C 0.30661 0.06284 0.50562 0.0
C222 C 0.2991 0.03845 0.49955 0.0
C223 C 0.27963 0.0327 0.46997 0.0
C224 C 0.26795 0.05155 0.4466 0.0
C225 C 0.27491 0.07544 0.45258 0.0
C226 C 0.25974 0.09246 0.42358 0.0
C227 C 0.24546 0.11016 0.45443 0.0
C228 C 0.27545 0.10614 0.3882 0.0
C229 C 0.24311 0.0745 0.40006 0.0
C230 C 0.24795 0.05097 0.41374 0.0
C231 C 0.23413 0.0315 0.39755 0.0
C232 C 0.21461 0.03633 0.36751 0.0
C233 C 0.2092 0.06042 0.35377 0.0
C234 C 0.22403 0.07956 0.36982 0.0
H235 H 0.91107 0.7992 0.7467 0.0
H236 H 0.98808 0.81229 0.76351 0.0
H237 H 0.99682 0.77655 0.71405 0.0
H238 H 0.91315 0.73356 0.74592 0.0
H239 H 0.88967 0.73128 0.7028 0.0
H240 H 0.89014 0.75667 0.74197 0.0
H241 H 0.89017 0.78615 0.67203 0.0
H242 H 0.89008 0.76087 0.63261 0.0
H243 H 0.91354 0.78356 0.6288 0.0
H244 H 0.99649 0.73918 0.65987 0.0
H245 H 0.9871 0.70426 0.60865 0.0
H246 H 0.91033 0.71827 0.6264 0.0
C247 C 0.92984 0.79443 0.74075 0.0
C248 C 0.9489 0.80849 0.7594 0.0
C249 C 0.97316 0.80168 0.74997 0.0
C250 C 0.97828 0.78146 0.72175 0.0
C251 C 0.95894 0.76835 0.70309 0.0
C252 C 0.93521 0.77462 0.71248 0.0
C253 C 0.91753 0.75841 0.68719 0.0
C254 C 0.9017 0.74413 0.72152 0.0
C255 C 0.90192 0.77313 0.65315 0.0
C256 C 0.93491 0.74192 0.66195 0.0
C257 C 0.95875 0.74774 0.67149 0.0
C258 C 0.97786 0.73456 0.6522 0.0
C259 C 0.97237 0.71481 0.62301 0.0
C260 C 0.94799 0.70857 0.61317 0.0
C261 C 0.92918 0.72258 0.63275 0.0
H262 H 0.30024 0.41758 0.88664 0.0
H263 H 0.30708 0.49408 0.85352 0.0
H264 H 0.27201 0.50304 0.90431 0.0
H265 H 0.2352 0.41525 0.89081 0.0
H266 H 0.23481 0.39408 0.93831 0.0
H267 H 0.25983 0.39416 0.8984 0.0
H268 H 0.28964 0.40002 0.96686 0.0
H269 H 0.26468 0.40025 1.00693 0.0
H270 H 0.28562 0.42535 1.00554 0.0
H271 H 0.23566 0.50314 0.96022 0.0
H272 H 0.20146 0.49421 0.01316 0.0
H273 H 0.22039 0.41781 0.00991 0.0
C274 C 0.29431 0.43625 0.88958 0.0
C275 C 0.30638 0.45512 0.86581 0.0
C276 C 0.29806 0.47929 0.87117 0.0
C277 C 0.2782 0.48455 0.90008 0.0
C278 C 0.26696 0.46546 0.92354 0.0
C279 C 0.27476 0.44179 0.91837 0.0
C280 C 0.25999 0.42446 0.94751 0.0
C281 C 0.24667 0.4059 0.91693 0.0
C282 C 0.27594 0.41178 0.98386 0.0
C283 C 0.2425 0.44198 0.96989 0.0
C284 C 0.2467 0.46558 0.9558 0.0
C285 C 0.23232 0.48472 0.97152 0.0
C286 C 0.21298 0.4795 1.00173 0.0
C287 C 0.20826 0.45533 0.01598 0.0
C288 C 0.22352 0.43652 1.00009 0.0
H289 H 0.5978 0.80305 0.13931 0.0
H290 H 0.52137 0.80971 0.10676 0.0
H291 H 0.51271 0.77391 0.15622 0.0
H292 H 0.60071 0.73819 0.14041 0.0
H293 H 0.62195 0.73737 0.18773 0.0
H294 H 0.6215 0.76301 0.14919 0.0
H295 H 0.61545 0.79173 0.21935 0.0
H296 H 0.61554 0.76612 0.25804 0.0
H297 H 0.59026 0.78681 0.2579 0.0
H298 H 0.51316 0.73618 0.20945 0.0
H299 H 0.52276 0.70065 0.2589 0.0
H300 H 0.59862 0.72129 0.25764 0.0
C301 C 0.57921 0.79697 0.14214 0.0
C302 C 0.56027 0.80913 0.11882 0.0
C303 C 0.5362 0.80061 0.12408 0.0
C304 C 0.53112 0.78034 0.15223 0.0
C305 C 0.55029 0.76897 0.17516 0.0
C306 C 0.57384 0.77708 0.17026 0.0
C307 C 0.59134 0.76206 0.19848 0.0
C308 C 0.60996 0.74941 0.16708 0.0
C309 C 0.60388 0.77761 0.23564 0.0
C310 C 0.57407 0.744 0.21993 0.0
C311 C 0.55044 0.74813 0.20622 0.0
C312 C 0.5316 0.73296 0.22059 0.0
C313 C 0.53719 0.71288 0.24886 0.0
C314 C 0.56141 0.70823 0.26257 0.0
C315 C 0.57987 0.72437 0.24837 0.0
H316 H 0.71762 0.60016 0.86555 0.0
H317 H 0.69938 0.52359 0.862 0.0
H318 H 0.73382 0.51497 0.91477 0.0
H319 H 0.78257 0.59354 0.86922 0.0
H320 H 0.78631 0.61898 0.90774 0.0
H321 H 0.76117 0.61824 0.86809 0.0
H322 H 0.73151 0.6239 0.93685 0.0
H323 H 0.75654 0.62428 0.97676 0.0
H324 H 0.73228 0.60273 0.98437 0.0
H325 H 0.77103 0.51549 0.96966 0.0
H326 H 0.80666 0.52506 0.01891 0.0
H327 H 0.7976 0.6015 0.98739 0.0
C328 C 0.72092 0.58148 0.87526 0.0
C329 C 0.70584 0.56252 0.85929 0.0
C330 C 0.71078 0.53841 0.8735 0.0
C331 C 0.73025 0.53337 0.9036 0.0
C332 C 0.74448 0.55266 0.91934 0.0
C333 C 0.73996 0.57622 0.90541 0.0
C334 C 0.75724 0.59398 0.92771 0.0
C335 C 0.77274 0.60694 0.891 0.0
C336 C 0.74357 0.61229 0.95823 0.0
C337 C 0.77231 0.57684 0.95656 0.0
C338 C 0.7649 0.55304 0.95134 0.0
C339 C 0.77684 0.53411 0.97405 0.0
C340 C 0.79699 0.53971 1.00212 0.0
C341 C 0.80485 0.56404 1.00746 0.0
C342 C 0.79201 0.58271 0.98467 0.0
H343 H 0.43643 0.30631 0.25647 0.0
H344 H 0.51492 0.31043 0.25648 0.0
H345 H 0.51672 0.27244 0.21077 0.0
H346 H 0.43091 0.24055 0.26337 0.0
H347 H 0.40514 0.23999 0.22508 0.0
H348 H 0.41058 0.26612 0.26101 0.0
H349 H 0.41019 0.29356 0.18816 0.0
H350 H 0.40512 0.2675 0.15191 0.0
H351 H 0.43067 0.2871 0.14122 0.0
H352 H 0.5093 0.2342 0.16148 0.0
H353 H 0.49339 0.19961 0.11558 0.0
H354 H 0.42003 0.22277 0.1464 0.0
C355 C 0.45407 0.29901 0.24785 0.0
C356 C 0.47556 0.31127 0.2606 0.0
C357 C 0.4982 0.30128 0.2475 0.0
C358 C 0.49939 0.27973 0.22139 0.0
C359 C 0.47778 0.26848 0.20839 0.0
C360 C 0.45556 0.27781 0.22144 0.0
C361 C 0.4349 0.26318 0.20138 0.0
C362 C 0.41948 0.25178 0.24001 0.0
C363 C 0.41931 0.27877 0.16873 0.0
C364 C 0.44887 0.24409 0.17496 0.0
C365 C 0.47358 0.24727 0.17939 0.0
C366 C 0.48996 0.23159 0.15787 0.0
C367 C 0.48078 0.21204 0.13172 0.0
C368 C 0.45547 0.20848 0.1271 0.0
C369 C 0.43948 0.22495 0.14887 0.0
H370 H 0.79751 0.91435 0.388 0.0
H371 H 0.80608 0.99095 0.35739 0.0
H372 H 0.77104 1.00021 0.40822 0.0
H373 H 0.73272 0.91318 0.3913 0.0
H374 H 0.73179 0.89157 0.43805 0.0
H375 H 0.75698 0.89162 0.39857 0.0
H376 H 0.78653 0.89637 0.4678 0.0
H377 H 0.76138 0.89667 0.50744 0.0
H378 H 0.78274 0.92143 0.50722 0.0
H379 H 0.73383 1.00034 0.46276 0.0
H380 H 0.69865 0.99127 0.51333 0.0
H381 H 0.71721 0.9148 0.50926 0.0
C382 C 0.792 0.93311 0.39151 0.0
C383 C 0.80448 0.95191 0.36835 0.0
C384 C 0.79672 0.97621 0.37456 0.0
C385 C 0.77689 0.98163 0.40349 0.0
C386 C 0.76519 0.96257 0.42626 0.0
C387 C 0.77257 0.93881 0.42043 0.0
C388 C 0.75739 0.92147 0.44872 0.0
C389 C 0.74392 0.9034 0.41728 0.0
C390 C 0.77294 0.90821 0.48494 0.0
C391 C 0.7401 0.93908 0.4713 0.0
C392 C 0.74471 0.96273 0.45807 0.0
C393 C 0.73024 0.98188 0.47353 0.0
C394 C 0.71036 0.97658 0.50242 0.0
C395 C 0.70522 0.95235 0.51569 0.0
C396 C 0.72067 0.93357 0.50036 0.0
H397 H 0.04894 0.29159 0.58586 0.0
H398 H 0.09259 0.33043 0.68623 0.0
H399 H 0.0855 0.29818 0.74353 0.0
H400 H 1.0053 0.26403 0.66823 0.0
H401 H 1.00464 0.23536 0.63824 0.0
H402 H 0.01014 0.26302 0.6066 0.0
H403 H 0.05013 0.24511 0.57452 0.0
H404 H 0.04469 0.21743 0.60584 0.0
H405 H 0.07261 0.2338 0.6143 0.0
H406 H 0.07628 0.26111 0.7884 0.0
H407 H 0.06853 0.21955 0.81607 0.0
H408 H 0.03264 0.20264 0.68627 0.0
C409 C 0.05656 0.29337 0.62021 0.0
C410 C 0.07102 0.31361 0.63199 0.0
C411 C 0.0813 0.31513 0.67675 0.0
C412 C 0.07729 0.29696 0.70961 0.0
C413 C 0.06323 0.27708 0.69704 0.0
C414 C 0.05321 0.27494 0.65334 0.0
C415 C 0.04101 0.25041 0.64763 0.0
C416 C 0.01364 0.25339 0.63971 0.0
C417 C 0.05282 0.23583 0.60825 0.0
C418 C 0.04619 0.23906 0.69453 0.0
C419 C 0.05862 0.255 0.7227 0.0
C420 C 0.06638 0.24848 0.76684 0.0
C421 C 0.06187 0.2248 0.78228 0.0
C422 C 0.04994 0.20776 0.75349 0.0
C423 C 0.04156 0.21526 0.70939 0.0
H424 H 0.05997 0.01265 0.2278 0.0
H425 H 0.06359 0.03847 0.36947 0.0
H426 H 0.0213 0.0255 0.38193 0.0
H427 H 0.99881 0.02969 0.20488 0.0
H428 H 0.99171 1.00294 0.17165 0.0
H429 H 0.02236 0.01412 0.17353 0.0
H430 H 0.03742 0.9723 0.20269 0.0
H431 H 1.00686 0.9609 0.20031 0.0
H432 H 0.02383 0.95905 0.25347 0.0
H433 H 0.97779 0.01202 0.37763 0.0
H434 H 0.93793 0.99368 0.36025 0.0
H435 H 0.96329 0.97437 0.22306 0.0
C436 C 0.05192 0.0154 0.26154 0.0
C437 C 0.06509 0.02664 0.29762 0.0
C438 C 0.05393 0.0298 0.34135 0.0
C439 C 0.02985 0.02264 0.3487 0.0
C440 C 0.01723 0.01205 0.31218 0.0
C441 C 0.028 1.00799 0.26972 0.0
C442 C 0.01063 0.99555 0.23672 0.0
C443 C 1.00558 0.01153 0.19419 0.0
C444 C 0.02026 0.97046 0.22248 0.0
C445 C 0.98839 0.99339 0.26718 0.0
C446 C 0.99247 1.00334 0.31034 0.0
C447 C 0.97444 1.004 0.34406 0.0
C448 C 0.9518 0.9937 0.33377 0.0
C449 C 0.94753 0.98257 0.29037 0.0
C450 C 0.96605 0.98267 0.25661 0.0
H451 H 0.99182 0.56111 0.6394 0.0
H452 H 0.97914 0.56943 0.49208 0.0
H453 H 0.99451 0.52784 0.47894 0.0
H454 H 0.04747 0.52692 0.62922 0.0
H455 H 0.04081 0.50813 0.67863 0.0
H456 H 0.02908 0.53856 0.6757 0.0
H457 H 0.98558 0.52186 0.68719 0.0
H458 H 0.99715 0.49134 0.68952 0.0
H459 H 0.97407 0.49916 0.64801 0.0
H460 H 0.0099 0.48429 0.48272 0.0
H461 H 0.02783 0.44439 0.50222 0.0
H462 H 0.03091 0.4655 0.64669 0.0
C463 C 0.99243 0.5543 0.60428 0.0
C464 C 0.98424 0.56856 0.56678 0.0
C465 C 0.98541 0.55892 0.52138 0.0
C466 C 0.99398 0.53525 0.51359 0.0
C467 C 1.00145 0.52151 0.55151 0.0
C468 C 1.00104 0.53084 0.59588 0.0
C469 C 0.01038 0.51259 0.6307 0.0
C470 C 0.0333 0.52212 0.65497 0.0
C471 C 0.99061 0.50584 0.66592 0.0
C472 C 0.0161 0.49149 0.59906 0.0
C473 C 0.01064 0.49684 0.55355 0.0
C474 C 0.01432 0.47997 0.51824 0.0
C475 C 0.02436 0.45729 0.52967 0.0
C476 C 0.0308 0.45181 0.57595 0.0
C477 C 0.02624 0.46911 0.61096 0.0
H478 H 0.47553 0.46441 0.7988 0.0
H479 H 0.42489 0.52466 0.80322 0.0
H480 H 0.45925 0.5534 0.80511 0.0
H481 H 0.51996 0.49021 0.87587 0.0
H482 H 0.54547 0.47832 0.84427 0.0
H483 H 0.51694 0.46243 0.84345 0.0
H484 H 0.51661 0.46402 0.7539 0.0
H485 H 0.54514 0.47989 0.75442 0.0
H486 H 0.51943 0.49289 0.72507 0.0
H487 H 0.4988 0.57547 0.80565 0.0
H488 H 0.54096 0.58982 0.80486 0.0
H489 H 0.56637 0.51526 0.80062 0.0
C490 C 0.47161 0.48365 0.80021 0.0
C491 C 0.44746 0.49229 0.80084 0.0
C492 C 0.4432 0.51761 0.80268 0.0
C493 C 0.4626 0.53406 0.8038 0.0
C494 C 0.48614 0.52491 0.80311 0.0
C495 C 0.49075 0.50032 0.80139 0.0
C496 C 0.51777 0.49527 0.80073 0.0
C497 C 0.52548 0.4807 0.84364 0.0
C498 C 0.52516 0.48225 0.75586 0.0
C499 C 0.52767 0.52091 0.80226 0.0
C500 C 0.50906 0.53768 0.80362 0.0
C501 C 0.51351 0.56251 0.80466 0.0
C502 C 0.5376 0.57046 0.80416 0.0
C503 C 0.55706 0.55368 0.80268 0.0
C504 C 0.55194 0.52854 0.80191 0.0
H505 H 0.55954 0.97815 0.03285 0.0
H506 H 0.49692 0.93506 0.0719 0.0
H507 H 0.4724 0.97251 0.07724 0.0
H508 H 0.54793 0.02821 0.10804 0.0
H509 H 0.55821 0.0508 0.06744 0.0
H510 H 0.57065 0.02062 0.06567 0.0
H511 H 0.5584 0.01677 0.97946 0.0
H512 H 0.54597 0.04698 0.98091 0.0
H513 H 0.52733 0.02183 0.96285 0.0
H514 H 0.45502 0.01466 0.07967 0.0
H515 H 0.44562 0.05831 0.07828 0.0
H516 H 0.5197 0.07408 0.03745 0.0
C517 C 0.54064 0.97651 0.04238 0.0
C518 C 0.53014 0.95361 0.05195 0.0
C519 C 0.50535 0.95236 0.06434 0.0
C520 C 0.4913 0.97353 0.06748 0.0
C521 C 0.50229 0.9958 0.05805 0.0
C522 C 0.52638 0.99742 0.04563 0.0
C523 C 0.53388 0.02357 0.03761 0.0
C524 C 0.55385 0.03124 0.07173 0.0
C525 C 0.54186 0.02751 0.98721 0.0
C526 C 0.51025 0.03648 0.04772 0.0
C527 C 0.49227 0.0201 0.05938 0.0
C528 C 0.46894 0.02763 0.07048 0.0
C529 C 0.46381 0.05253 0.0696 0.0
C530 C 0.48191 0.06974 0.05771 0.0
C531 C 0.50545 0.06147 0.04663 0.0
H532 H 0.06385 0.50639 0.98928 0.0
H533 H 0.06638 0.47977 0.1305 0.0
H534 H 0.02373 0.49193 0.14153 0.0
H535 H 0.0259 0.55902 0.01424 0.0
H536 H 0.00982 0.55686 0.96013 0.0
H537 H 0.04068 0.54648 0.96407 0.0
H538 H 0.02741 0.50432 0.93341 0.0
H539 H 0.99646 0.51446 0.93004 0.0
H540 H 1.00393 0.48781 0.96324 0.0
H541 H 0.97984 0.5047 0.13548 0.0
H542 H 0.9397 0.52181 0.1159 0.0
H543 H 0.96646 0.54141 0.97979 0.0
C544 C 0.05553 0.50335 0.0227 0.0
C545 C 0.06848 0.49209 0.05899 0.0
C546 C 0.05691 0.48849 0.10223 0.0
C547 C 0.03262 0.49519 0.10876 0.0
C548 C 0.02021 0.50574 0.07191 0.0
C549 C 0.0314 0.51021 0.03 0.0
C550 C 0.01415 0.52217 0.99623 0.0
C551 C 0.02318 0.54764 0.9829 0.0
C552 C 0.01026 0.50623 0.95319 0.0
C553 C 0.99144 0.52346 0.02549 0.0
C554 C 0.99522 0.51371 0.0689 0.0
C555 C 0.97672 0.51255 0.10169 0.0
C556 C 0.95393 0.52215 0.09015 0.0
C557 C 0.94993 0.53298 0.04637 0.0
C558 C 0.96894 0.53332 0.0136 0.0
H559 H 0.45932 0.47921 0.30435 0.0
H560 H 0.5169 0.42572 0.31265 0.0
H561 H 0.54716 0.45878 0.31532 0.0
H562 H 0.49041 0.52104 0.23085 0.0
H563 H 0.47839 0.54767 0.25881 0.0
H564 H 0.46123 0.51987 0.25876 0.0
H565 H 0.45887 0.52114 0.34821 0.0
H566 H 0.47602 0.54896 0.34856 0.0
H567 H 0.48642 0.52322 0.38148 0.0
H568 H 0.57107 0.49747 0.31582 0.0
H569 H 0.58732 0.53902 0.3139 0.0
H570 H 0.51419 0.56772 0.30505 0.0
C571 C 0.47828 0.47439 0.3069 0.0
C572 C 0.48573 0.44981 0.30833 0.0
C573 C 0.51074 0.44437 0.31155 0.0
C574 C 0.52806 0.46303 0.3131 0.0
C575 C 0.52007 0.48703 0.31146 0.0
C576 C 0.49579 0.49277 0.30846 0.0
C577 C 0.49203 0.52003 0.30663 0.0
C578 C 0.4798 0.52759 0.26104 0.0
C579 C 0.47747 0.52885 0.34873 0.0
C580 C 0.51804 0.52877 0.30874 0.0
C581 C 0.53388 0.5094 0.31166 0.0
C582 C 0.55883 0.51276 0.31364 0.0
C583 C 0.56787 0.53651 0.3125 0.0
C584 C 0.55206 0.55673 0.30933 0.0
C585 C 0.52677 0.55271 0.30757 0.0
H586 H 0.47488 0.05062 0.59998 0.0
H587 H 0.42329 0.9951 0.55897 0.0
H588 H 0.45695 0.9663 0.54718 0.0
H589 H 0.52076 0.03511 0.51789 0.0
H590 H 0.54567 0.04109 0.55658 0.0
H591 H 0.51755 0.05724 0.56339 0.0
H592 H 0.51471 0.04281 0.64849 0.0
H593 H 0.5429 0.0267 0.64203 0.0
H594 H 0.51618 0.01082 0.66123 0.0
H595 H 0.49587 0.94378 0.5388 0.0
H596 H 0.53765 0.92853 0.53475 0.0
H597 H 0.56461 0.99867 0.58015 0.0
C598 C 0.47061 0.03235 0.58884 0.0
C599 C 0.44638 0.0251 0.58052 0.0
C600 C 0.44165 1.00108 0.56565 0.0
C601 C 0.46066 0.98458 0.55883 0.0
C602 C 0.4843 0.99239 0.56694 0.0
C603 C 0.48938 0.01567 0.58168 0.0
C604 C 0.51647 0.0195 0.5872 0.0
C605 C 0.52565 0.03942 0.55429 0.0
C606 C 0.52294 0.0253 0.63774 0.0
C607 C 0.52584 0.99473 0.57309 0.0
C608 C 0.50692 0.9794 0.56168 0.0
C609 C 0.51084 0.95559 0.54771 0.0
C610 C 0.53471 0.94711 0.54554 0.0
C611 C 0.55449 0.96238 0.55713 0.0
C612 C 0.54992 0.98657 0.57093 0.0
H613 H 0.02499 0.0584 0.9015 0.0
H614 H 0.02657 0.07576 0.75507 0.0
H615 H 0.01062 0.03497 0.73701 0.0
H616 H 0.04358 0.99725 0.89214 0.0
H617 H 0.02374 0.98604 0.9368 0.0
H618 H 0.03432 0.01694 0.93868 0.0
H619 H 0.99006 0.0325 0.94158 0.0
H620 H 0.97934 1.00162 0.94043 0.0
H621 H 0.96891 0.02299 0.89764 0.0
H622 H 0.9974 0.99121 0.73463 0.0
H623 H 0.98281 0.94948 0.74845 0.0
H624 H 0.98831 0.96117 0.89658 0.0
C625 C 0.02167 0.05376 0.86566 0.0
C626 C 0.02705 0.0703 0.8297 0.0
C627 C 0.02245 0.06349 0.78325 0.0
C628 C 0.01354 0.04028 0.77261 0.0
C629 C 0.00905 0.02421 0.80882 0.0
C630 C 0.01253 0.03079 0.85446 0.0
C631 C 1.0061 0.01016 0.8869 0.0
C632 C 0.02826 1.00213 0.91529 0.0
C633 C 0.98483 0.01724 0.91849 0.0
C634 C 0.99872 0.99085 0.85236 0.0
C635 C 1.00076 0.99925 0.8075 0.0
C636 C 0.99552 0.98451 0.76963 0.0
C637 C 0.9874 0.96076 0.77785 0.0
C638 C 0.98436 0.95204 0.8236 0.0
C639 C 0.99037 0.9673 0.86121 0.0
H640 H 0.07001 0.12585 0.6331 0.0
H641 H 0.13491 0.11451 0.71502 0.0
H642 H 0.15815 0.10663 0.64332 0.0
H643 H 0.07956 0.07979 0.5534 0.0
H644 H 0.06789 0.09629 0.50439 0.0
H645 H 0.05722 0.10326 0.5616 0.0
H646 H 0.06958 0.14827 0.55024 0.0
H647 H 0.08038 0.14139 0.4929 0.0
H648 H 0.1003 0.15557 0.53429 0.0
H649 H 0.17274 0.0951 0.56392 0.0
H650 H 0.17792 0.08184 0.48284 0.0
H651 H 0.10398 0.10306 0.45263 0.0
C652 C 0.08918 0.12196 0.636 0.0
C653 C 0.10069 0.12065 0.67956 0.0
C654 C 0.12579 0.11563 0.68192 0.0
C655 C 0.13911 0.1112 0.64142 0.0
C656 C 0.1271 0.11235 0.599 0.0
C657 C 0.10274 0.11786 0.59605 0.0
C658 C 0.09377 0.11684 0.54662 0.0
C659 C 0.07342 0.09791 0.54121 0.0
C660 C 0.08553 0.14202 0.53004 0.0
C661 C 0.11667 0.10895 0.52225 0.0
C662 C 0.13575 0.10661 0.55302 0.0
C663 C 0.15811 0.09736 0.53937 0.0
C664 C 0.16086 0.08983 0.49337 0.0
C665 C 0.14143 0.0918 0.46162 0.0
C666 C 0.11929 0.10203 0.47598 0.0
H667 H 0.93705 0.64232 0.74135 0.0
H668 H 0.88361 0.60648 0.65476 0.0
H669 H 0.86258 0.59173 0.72471 0.0
H670 H 0.94235 0.59636 0.82308 0.0
H671 H 0.94579 0.61619 0.87222 0.0
H672 H 0.95499 0.62629 0.81574 0.0
H673 H 0.92701 0.66384 0.82308 0.0
H674 H 0.91773 0.65387 0.87975 0.0
H675 H 0.89531 0.65963 0.83577 0.0
H676 H 0.84999 0.57744 0.80296 0.0
H677 H 0.84643 0.56465 0.88439 0.0
H678 H 0.90767 0.61025 0.92059 0.0
C679 C 0.92069 0.63171 0.73701 0.0
C680 C 0.91194 0.62557 0.69256 0.0
C681 C 0.89061 0.61146 0.68845 0.0
C682 C 0.8785 0.60306 0.72797 0.0
C683 C 0.88787 0.60911 0.77125 0.0
C684 C 0.90839 0.62323 0.77604 0.0
C685 C 0.91564 0.6258 0.82636 0.0
C686 C 0.9412 0.61554 0.83482 0.0
C687 C 0.91381 0.65237 0.84216 0.0
C688 C 0.89641 0.61027 0.84909 0.0
C689 C 0.88044 0.60102 0.81666 0.0
C690 C 0.86215 0.58484 0.82872 0.0
C691 C 0.86036 0.5776 0.875 0.0
C692 C 0.87673 0.58656 0.90865 0.0
C693 C 0.89467 0.60348 0.89566 0.0
H694 H 0.40887 0.41678 0.16429 0.0
H695 H 0.44373 0.34899 0.12695 0.0
H696 H 0.43211 0.35521 0.04553 0.0
H697 H 0.35848 0.41285 0.07984 0.0
H698 H 0.35929 0.44493 0.06785 0.0
H699 H 0.36792 0.43385 0.12414 0.0
H700 H 0.40932 0.4557 0.11658 0.0
H701 H 0.40089 0.46671 0.06026 0.0
H702 H 0.42833 0.44939 0.06733 0.0
H703 H 0.41957 0.37006 0.96752 0.0
H704 H 0.40698 0.3929 0.898 0.0
H705 H 0.38095 0.45135 0.98556 0.0
C706 C 0.41356 0.40303 0.13909 0.0
C707 C 0.42711 0.38238 0.15188 0.0
C708 C 0.43338 0.36499 0.11783 0.0
C709 C 0.42679 0.36829 0.07152 0.0
C710 C 0.41393 0.3891 0.05976 0.0
C711 C 0.4073 0.40616 0.09249 0.0
C712 C 0.395 0.42772 0.07007 0.0
C713 C 0.3686 0.42996 0.08645 0.0
C714 C 0.40924 0.45126 0.0791 0.0
C715 C 0.39628 0.42032 0.01967 0.0
C716 C 0.40701 0.39786 0.01451 0.0
C717 C 0.41093 0.38759 0.97109 0.0
C718 C 0.40377 0.4007 0.93182 0.0
C719 C 0.39301 0.42389 0.93632 0.0
C720 C 0.38909 0.43364 0.98092 0.0
H721 H 0.60212 0.90459 0.42081 0.0
H722 H 0.66663 0.94538 0.38479 0.0
H723 H 0.66167 0.93353 0.30304 0.0
H724 H 0.60961 0.85511 0.33321 0.0
H725 H 0.57752 0.85393 0.32188 0.0
H726 H 0.58836 0.86222 0.37855 0.0
H727 H 0.5637 0.90218 0.37433 0.0
H728 H 0.55296 0.89412 0.31766 0.0
H729 H 0.56841 0.92258 0.32641 0.0
H730 H 0.64739 0.92114 0.22448 0.0
H731 H 0.6244 0.90938 0.1546 0.0
H732 H 0.56861 0.87764 0.24148 0.0
C733 C 0.61558 0.91036 0.39586 0.0
C734 C 0.63484 0.92571 0.40896 0.0
C735 C 0.65175 0.93355 0.3753 0.0
C736 C 0.64915 0.92684 0.32886 0.0
C737 C 0.62953 0.91231 0.31667 0.0
C738 C 0.61307 0.90406 0.34918 0.0
C739 C 0.59227 0.89074 0.32633 0.0
C740 C 0.59193 0.86391 0.34086 0.0
C741 C 0.56791 0.90316 0.3368 0.0
C742 C 0.59923 0.8935 0.27596 0.0
C743 C 0.62098 0.90562 0.27112 0.0
C744 C 0.63048 0.91135 0.22779 0.0
C745 C 0.61728 0.90466 0.18832 0.0
C746 C 0.59472 0.89263 0.19258 0.0
C747 C 0.58583 0.88677 0.23704 0.0
H748 H 0.11103 0.41338 0.70854 0.0
H749 H 0.06015 0.35641 0.74485 0.0
H750 H 0.07171 0.36031 0.82682 0.0
H751 H 0.15762 0.3984 0.79581 0.0
H752 H 0.16429 0.42984 0.80736 0.0
H753 H 0.15409 0.42073 0.75074 0.0
H754 H 0.11889 0.45175 0.75556 0.0
H755 H 0.12896 0.46092 0.8121 0.0
H756 H 0.09829 0.45052 0.80388 0.0
H757 H 0.08642 0.37226 0.90529 0.0
H758 H 0.1025 0.39248 0.97513 0.0
H759 H 0.14316 0.4422 0.88816 0.0
C760 C 0.1027 0.40144 0.73368 0.0
C761 C 0.08479 0.38454 0.72041 0.0
C762 C 0.07389 0.36954 0.75434 0.0
C763 C 0.08042 0.3715 0.80096 0.0
C764 C 0.09782 0.38863 0.81314 0.0
C765 C 0.10881 0.40336 0.78056 0.0
C766 C 0.12556 0.42155 0.80332 0.0
C767 C 0.15196 0.41737 0.78842 0.0
C768 C 0.11743 0.44773 0.79311 0.0
C769 C 0.12184 0.41506 0.85372 0.0
C770 C 0.10602 0.39581 0.85861 0.0
C771 C 0.09902 0.38721 0.90195 0.0
C772 C 0.10823 0.39881 0.9414 0.0
C773 C 0.12407 0.41889 0.93713 0.0
C774 C 0.13116 0.42682 0.89263 0.0
H775 H 0.61149 0.60629 0.16527 0.0
H776 H 0.5728 0.67237 0.13105 0.0
H777 H 0.5865 0.66902 0.05009 0.0
H778 H 0.66302 0.61461 0.08214 0.0
H779 H 0.6637 0.5827 0.06852 0.0
H780 H 0.65454 0.59258 0.12531 0.0
H781 H 0.61421 0.56891 0.11645 0.0
H782 H 0.62316 0.55908 0.05971 0.0
H783 H 0.59495 0.57502 0.06743 0.0
H784 H 0.60015 0.65604 0.97155 0.0
H785 H 0.61188 0.63369 0.90092 0.0
H786 H 0.64076 0.57556 0.98593 0.0
C787 C 0.60658 0.62042 0.14098 0.0
C788 C 0.59127 0.63966 0.15428 0.0
C789 C 0.58456 0.65748 0.12139 0.0
C790 C 0.59236 0.65582 0.07543 0.0
C791 C 0.60685 0.63622 0.06295 0.0
C792 C 0.61396 0.61885 0.09476 0.0
C793 C 0.62724 0.5982 0.07141 0.0
C794 C 0.6537 0.59696 0.08782 0.0
C795 C 0.61409 0.57388 0.07921 0.0
C796 C 0.62566 0.60623 0.02144 0.0
C797 C 0.61427 0.62843 0.01733 0.0
C798 C 0.60943 0.63881 0.97432 0.0
C799 C 0.61611 0.62598 0.93441 0.0
C800 C 0.62721 0.60291 0.93793 0.0
C801 C 0.6324 0.59322 0.98208 0.0
H802 H 0.43883 0.08485 0.42629 0.0
H803 H 0.36769 0.11573 0.45046 0.0
H804 H 0.36747 0.13227 0.37088 0.0
H805 H 0.46181 0.1347 0.35258 0.0
H806 H 0.47842 0.11394 0.31637 0.0
H807 H 0.47367 0.10694 0.37656 0.0
H808 H 0.45437 0.06581 0.35323 0.0
H809 H 0.45868 0.07282 0.29305 0.0
H810 H 0.42885 0.06553 0.31427 0.0
H811 H 0.37328 0.14098 0.28501 0.0
H812 H 0.38657 0.14475 0.20333 0.0
H813 H 0.45417 0.10901 0.2382 0.0
C814 C 0.42343 0.09556 0.4152 0.0
C815 C 0.40331 0.09907 0.44442 0.0
C816 C 0.38342 0.11306 0.42868 0.0
C817 C 0.38308 0.12241 0.38349 0.0
C818 C 0.40293 0.11789 0.35496 0.0
C819 C 0.42293 0.10519 0.3706 0.0
C820 C 0.44159 0.10198 0.33295 0.0
C821 C 0.46527 0.11519 0.34536 0.0
C822 C 0.44612 0.07494 0.32279 0.0
C823 C 0.42873 0.11426 0.29325 0.0
C824 C 0.40645 0.12335 0.30638 0.0
C825 C 0.39087 0.13427 0.27455 0.0
C826 C 0.39846 0.13618 0.22826 0.0
C827 C 0.42143 0.12731 0.21462 0.0
C828 C 0.43662 0.11625 0.24768 0.0
H829 H 0.90258 0.91406 0.67128 0.0
H830 H 0.93722 0.84576 0.63736 0.0
H831 H 0.92349 0.84968 0.55648 0.0
H832 H 0.85038 0.90862 0.58804 0.0
H833 H 0.85159 0.94049 0.57425 0.0
H834 H 0.86016 0.93016 0.63111 0.0
H835 H 0.90177 0.95145 0.62207 0.0
H836 H 0.89345 0.96162 0.56517 0.0
H837 H 0.92067 0.94407 0.57322 0.0
H838 H 0.91073 0.86331 0.47796 0.0
H839 H 0.89979 0.88588 0.40714 0.0
H840 H 0.87443 0.94588 0.49149 0.0
C841 C 0.90649 0.89958 0.64708 0.0
C842 C 0.92072 0.87952 0.66037 0.0
C843 C 0.92625 0.86125 0.62765 0.0
C844 C 0.91845 0.86325 0.58174 0.0
C845 C 0.90518 0.88368 0.56914 0.0
C846 C 0.89911 0.90149 0.60086 0.0
C847 C 0.88707 0.92286 0.57728 0.0
C848 C 0.86073 0.92569 0.59364 0.0
C849 C 0.90162 0.94637 0.58489 0.0
C850 C 0.88817 0.91465 0.52735 0.0
C851 C 0.89827 0.89183 0.52345 0.0
C852 C 0.90244 0.88105 0.48057 0.0
C853 C 0.89626 0.89403 0.44054 0.0
C854 C 0.88628 0.91762 0.44377 0.0
C855 C 0.88193 0.92783 0.48784 0.0
H856 H 0.10596 0.10699 0.9496 0.0
H857 H 0.08301 0.17942 0.98915 0.0
H858 H 0.09564 0.1713 0.06955 0.0
H859 H 0.08516 0.07738 0.05042 0.0
H860 H 0.11008 0.05633 0.05367 0.0
H861 H 0.1009 0.06842 0.99856 0.0
H862 H 0.14454 0.08405 0.98422 0.0
H863 H 0.15387 0.07196 0.03933 0.0
H864 H 0.15868 0.10359 0.02633 0.0
H865 H 0.1085 0.1545 0.14664 0.0
H866 H 0.12076 0.13027 0.21459 0.0
H867 H 0.13551 0.06885 0.12491 0.0
C868 C 0.10391 0.12129 0.97499 0.0
C869 C 0.09356 0.1439 0.96292 0.0
C870 C 0.09092 0.16197 0.99743 0.0
C871 C 0.09808 0.15755 0.04324 0.0
C872 C 0.10791 0.13497 0.05407 0.0
C873 C 0.11091 0.11716 0.02093 0.0
C874 C 0.12098 0.09409 0.04206 0.0
C875 C 0.10322 0.07281 0.03581 0.0
C876 C 0.14601 0.08808 0.02178 0.0
C877 C 0.12288 0.10161 0.09235 0.0
C878 C 0.11536 0.1253 0.09852 0.0
C879 C 0.11463 0.136 0.14218 0.0
C880 C 0.12161 0.12207 0.18059 0.0
C881 C 0.12922 0.09768 0.17517 0.0
C882 C 0.13004 0.0875 0.13027 0.0
H883 H 0.94692 0.62934 0.36253 0.0
H884 H 0.88083 0.63933 0.44157 0.0
H885 H 0.8567 0.63279 0.37063 0.0
H886 H 0.92555 0.65842 0.25528 0.0
H887 H 0.94127 0.63699 0.21901 0.0
H888 H 0.95328 0.64463 0.27512 0.0
H889 H 0.95353 0.5991 0.29754 0.0
H890 H 0.9415 0.59133 0.24163 0.0
H891 H 0.92589 0.58179 0.29327 0.0
H892 H 0.83977 0.62125 0.29245 0.0
H893 H 0.83148 0.60648 0.21328 0.0
H894 H 0.90867 0.60501 0.18518 0.0
C895 C 0.92738 0.63057 0.36489 0.0
C896 C 0.91579 0.63491 0.40771 0.0
C897 C 0.89016 0.63613 0.4092 0.0
C898 C 0.87629 0.63246 0.36904 0.0
C899 C 0.8883 0.62779 0.32756 0.0
C900 C 0.91329 0.62703 0.32517 0.0
C901 C 0.92179 0.62046 0.27694 0.0
C902 C 0.93633 0.64138 0.25531 0.0
C903 C 0.93654 0.59677 0.2774 0.0
C904 C 0.89767 0.6171 0.25276 0.0
C905 C 0.87856 0.62152 0.28246 0.0
C906 C 0.85459 0.61809 0.26872 0.0
C907 C 0.85006 0.60965 0.22369 0.0
C908 C 0.86939 0.60479 0.19284 0.0
C909 C 0.89346 0.60897 0.20757 0.0
H910 H 0.40515 0.42006 0.66512 0.0
H911 H 0.33127 0.43871 0.62806 0.0
H912 H 0.33924 0.42605 0.54748 0.0
H913 H 0.43236 0.44221 0.56298 0.0
H914 H 0.45481 0.41855 0.55953 0.0
H915 H 0.44274 0.42732 0.61486 0.0
H916 H 0.42993 0.38284 0.63069 0.0
H917 H 0.44205 0.3739 0.57541 0.0
H918 H 0.41094 0.36726 0.58953 0.0
H919 H 0.35603 0.41302 0.46969 0.0
H920 H 0.3803 0.40111 0.40149 0.0
H921 H 0.44322 0.39163 0.48976 0.0
C922 C 0.39051 0.42117 0.64028 0.0
C923 C 0.36751 0.43028 0.65308 0.0
C924 C 0.349 0.43173 0.6192 0.0
C925 C 0.35336 0.42456 0.57331 0.0
C926 C 0.37633 0.41597 0.56175 0.0
C927 C 0.39458 0.41422 0.59432 0.0
C928 C 0.41797 0.40544 0.57267 0.0
C929 C 0.43815 0.42452 0.57781 0.0
C930 C 0.42567 0.3809 0.59331 0.0
C931 C 0.41013 0.40277 0.52272 0.0
C932 C 0.38601 0.40876 0.51711 0.0
C933 C 0.3749 0.40816 0.47378 0.0
C934 C 0.38884 0.40137 0.4352 0.0
C935 C 0.41368 0.39539 0.44014 0.0
C936 C 0.42428 0.396 0.48468 0.0
H937 H 0.61787 0.94621 0.74284 0.0
H938 H 0.62678 0.87985 0.66381 0.0
H939 H 0.61849 0.85579 0.73434 0.0
H940 H 0.64524 0.92436 0.8497 0.0
H941 H 0.62412 0.94064 0.8857 0.0
H942 H 0.6321 0.95239 0.82959 0.0
H943 H 0.5867 0.95353 0.8068 0.0
H944 H 0.57859 0.94175 0.86274 0.0
H945 H 0.56883 0.92623 0.81112 0.0
H946 H 0.6068 0.83909 0.81334 0.0
H947 H 0.59334 0.83129 0.89359 0.0
H948 H 0.59264 0.90884 0.91998 0.0
C949 C 0.61835 0.92661 0.74032 0.0
C950 C 0.62303 0.91493 0.69771 0.0
C951 C 0.62333 0.88923 0.69605 0.0
C952 C 0.61863 0.87541 0.73595 0.0
C953 C 0.6138 0.88755 0.77727 0.0
C954 C 0.61376 0.9126 0.77968 0.0
C955 C 0.60731 0.92134 0.82776 0.0
C956 C 0.62846 0.93552 0.84946 0.0
C957 C 0.58397 0.93661 0.82703 0.0
C958 C 0.60339 0.89733 0.852 0.0
C959 C 0.60728 0.87801 0.82244 0.0
C960 C 0.60391 0.85409 0.83684 0.0
C961 C 0.59623 0.84984 0.8825 0.0
C962 C 0.59202 0.86941 0.91325 0.0
C963 C 0.59589 0.89342 0.89761 0.0
H964 H 0.07702 0.38122 0.38238 0.0
H965 H 0.1383 0.39716 0.47147 0.0
H966 H 0.16251 0.40859 0.40288 0.0
H967 H 0.11205 0.35689 0.28452 0.0
H968 H 0.09209 0.3703 0.24233 0.0
H969 H 0.08047 0.36128 0.29799 0.0
H970 H 0.06419 0.40483 0.31128 0.0
H971 H 0.07576 0.41397 0.25581 0.0
H972 H 0.0847 0.43021 0.30718 0.0
H973 H 0.17872 0.4219 0.32485 0.0
H974 H 0.18566 0.43532 0.24434 0.0
H975 H 0.11388 0.4099 0.20674 0.0
C976 C 0.09566 0.38672 0.38754 0.0
C977 C 0.10576 0.38823 0.43241 0.0
C978 C 0.13017 0.39575 0.43748 0.0
C979 C 0.14408 0.40227 0.39869 0.0
C980 C 0.13339 0.40098 0.35503 0.0
C981 C 0.10977 0.39322 0.34928 0.0
C982 C 0.10206 0.39464 0.29907 0.0
C983 C 0.09634 0.36926 0.27985 0.0
C984 C 0.08041 0.41194 0.29301 0.0
C985 C 0.12483 0.40495 0.27751 0.0
C986 C 0.14277 0.40836 0.31024 0.0
C987 C 0.16491 0.419 0.29886 0.0
C988 C 0.16868 0.42659 0.25302 0.0
C989 C 0.15041 0.42352 0.21906 0.0
C990 C 0.12838 0.41219 0.2316 0.0
H991 H 0.60827 0.60213 0.66606 0.0
H992 H 0.68421 0.59107 0.63344 0.0
H993 H 0.67644 0.60404 0.55286 0.0
H994 H 0.5853 0.57847 0.56207 0.0
H995 H 0.56058 0.5997 0.55785 0.0
H996 H 0.57262 0.59172 0.61365 0.0
H997 H 0.58049 0.63714 0.63144 0.0
H998 H 0.56841 0.64529 0.57566 0.0
H999 H 0.59842 0.65498 0.59193 0.0
H1000 H 0.65965 0.61621 0.47437 0.0
H1001 H 0.63523 0.62552 0.40484 0.0
H1002 H 0.57036 0.62774 0.48954 0.0
C1003 C 0.6234 0.6028 0.64226 0.0
C1004 C 0.64691 0.59572 0.65622 0.0
C1005 C 0.66607 0.59649 0.62364 0.0
C1006 C 0.66183 0.60387 0.5778 0.0
C1007 C 0.63835 0.61041 0.56507 0.0
C1008 C 0.61947 0.60994 0.59644 0.0
C1009 C 0.59565 0.61645 0.57362 0.0
C1010 C 0.57748 0.59533 0.577 0.0
C1011 C 0.58513 0.63986 0.5944 0.0
C1012 C 0.60398 0.62036 0.52432 0.0
C1013 C 0.62868 0.61702 0.52006 0.0
C1014 C 0.64032 0.61902 0.47741 0.0
C1015 C 0.62629 0.62433 0.4381 0.0
C1016 C 0.60087 0.62741 0.44165 0.0
C1017 C 0.58975 0.62561 0.48555 0.0
H1018 H 0.40519 0.09469 0.70946 0.0
H1019 H 0.32853 0.10972 0.72658 0.0
H1020 H 0.33655 0.12503 0.8056 0.0
H1021 H 0.41559 0.07308 0.82269 0.0
H1022 H 0.44539 0.08624 0.82742 0.0
H1023 H 0.43365 0.07792 0.77157 0.0
H1024 H 0.44078 0.12178 0.74216 0.0
H1025 H 0.45254 0.13025 0.79799 0.0
H1026 H 0.42764 0.14691 0.77316 0.0
H1027 H 0.35312 0.13706 0.88468 0.0
H1028 H 0.37656 0.14407 0.95647 0.0
H1029 H 0.44206 0.121 0.88609 0.0
C1030 C 0.39005 0.10139 0.72955 0.0
C1031 C 0.36621 0.10104 0.71168 0.0
C1032 C 0.34696 0.10984 0.73942 0.0
C1033 C 0.35135 0.11861 0.78434 0.0
C1034 C 0.37508 0.11851 0.80094 0.0
C1035 C 0.39409 0.11015 0.77427 0.0
C1036 C 0.4178 0.1111 0.80049 0.0
C1037 C 0.42874 0.08557 0.80586 0.0
C1038 C 0.43574 0.12855 0.77705 0.0
C1039 C 0.40917 0.12102 0.84639 0.0
C1040 C 0.38452 0.12534 0.84603 0.0
C1041 C 0.37246 0.13388 0.88518 0.0
C1042 C 0.38593 0.13783 0.92581 0.0
C1043 C 0.41117 0.13316 0.92697 0.0
C1044 C 0.42283 0.1249 0.88642 0.0
H1045 H 0.88433 0.95414 0.11243 0.0
H1046 H 0.87628 0.88803 0.1927 0.0
H1047 H 0.88478 0.86374 0.12286 0.0
H1048 H 0.85755 0.93087 1.00489 0.0
H1049 H 0.87866 0.94714 0.96882 0.0
H1050 H 0.87013 0.95929 0.02433 0.0
H1051 H 0.91535 0.96142 0.04808 0.0
H1052 H 0.924 0.94924 0.99276 0.0
H1053 H 0.93366 0.93438 0.04516 0.0
H1054 H 0.89724 0.84669 0.04573 0.0
H1055 H 0.91202 0.83818 0.96677 0.0
H1056 H 0.9114 0.91532 0.93634 0.0
C1057 C 0.88397 0.93455 0.11524 0.0
C1058 C 0.87954 0.92302 0.15815 0.0
C1059 C 0.87954 0.89732 0.16029 0.0
C1060 C 0.88434 0.88334 0.12075 0.0
C1061 C 0.88899 0.89529 0.07921 0.0
C1062 C 0.88872 0.92031 0.07611 0.0
C1063 C 0.89537 0.9287 0.0278 0.0
C1064 C 0.87416 0.9423 1.00512 0.0
C1065 C 0.91847 0.94435 0.02852 0.0
C1066 C 0.89981 0.90449 1.00441 0.0
C1067 C 0.89595 0.88545 0.03463 0.0
C1068 C 0.90005 0.86145 0.02162 0.0
C1069 C 0.90849 0.8568 0.9767 0.0
C1070 C 0.91271 0.87604 0.9452 0.0
C1071 C 0.90801 0.90016 0.9593 0.0
loop_
_geom_bond_atom_site_label_1
_geom_bond_atom_site_label_2
_geom_bond_distance
_geom_bond_site_symmetry_2
_ccdc_geom_bond_type
Mg0 O7 2.141 . S
Mg0 O8 2.048 . S
Mg0 O9 2.048 . S
Mg0 O12 2.141 . S
C1 O2 1.313 . S
C1 O8 1.195 . S
O2 C1 1.313 . S
C3 O4 1.245 . S
C3 O12 1.289 . S
O4 C3 1.245 . S
C5 O6 1.245 . S
C5 O7 1.289 . S
O6 C5 1.245 . S
O7 Mg0 2.141 . S
O7 C5 1.289 . S
O8 Mg0 2.048 . S
O8 C1 1.195 . S
O9 Mg0 2.048 . S
O9 C10 1.195 . S
C10 O9 1.195 . S
C10 O11 1.313 . S
O11 C10 1.313 . S
O12 Mg0 2.141 . S
O12 C3 1.289 . S
Mg13 O20 2.141 . S
Mg13 O21 2.048 . S
Mg13 O22 2.048 . S
Mg13 O25 2.141 . S
C14 O15 1.313 . S
C14 O21 1.195 . S
O15 C14 1.313 . S
C16 O17 1.245 . S
C16 O25 1.289 . S
O17 C16 1.245 . S
C18 O19 1.245 . S
C18 O20 1.289 . S
O19 C18 1.245 . S
O20 Mg13 2.141 . S
O20 C18 1.289 . S
O21 Mg13 2.048 . S
O21 C14 1.195 . S
O22 Mg13 2.048 . S
O22 C23 1.195 . S
C23 O22 1.195 . S
C23 O24 1.313 . S
O24 C23 1.313 . S
O25 Mg13 2.141 . S
O25 C16 1.289 . S
Mg26 O33 2.141 . S
Mg26 O34 2.048 . S
Mg26 O35 2.048 . S
Mg26 O38 2.141 . S
C27 O28 1.313 . S
C27 O34 1.195 . S
O28 C27 1.313 . S
C29 O30 1.245 . S
C29 O38 1.289 . S
O30 C29 1.245 . S
C31 O32 1.245 . S
C31 O33 1.289 . S
O32 C31 1.245 . S
O33 Mg26 2.141 . S
O33 C31 1.289 . S
O34 Mg26 2.048 . S
O34 C27 1.195 . S
O35 Mg26 2.048 . S
O35 C36 1.195 . S
C36 O35 1.195 . S
C36 O37 1.313 . S
O37 C36 1.313 . S
O38 Mg26 2.141 . S
O38 C29 1.289 . S
Mg39 O46 2.141 . S
Mg39 O47 2.048 . S
Mg39 O48 2.048 . S
Mg39 O51 2.141 . S
C40 O41 1.313 . S
C40 O47 1.195 . S
O41 C40 1.313 . S
C42 O43 1.245 . S
C42 O51 1.289 1_556 S
O43 C42 1.245 . S
C44 O45 1.245 . S
C44 O46 1.289 . S
O45 C44 1.245 . S
O46 Mg39 2.141 . S
O46 C44 1.289 . S
O47 Mg39 2.048 . S
O47 C40 1.195 . S
O48 Mg39 2.048 . S
O48 C49 1.195 . S
C49 O48 1.195 . S
C49 O50 1.313 . S
O50 C49 1.313 . S
O51 Mg39 2.141 . S
O51 C42 1.289 1_554 S
Mg52 O59 2.141 . S
Mg52 O60 2.048 1_554 S
Mg52 O61 2.048 . S
Mg52 O64 2.141 . S
C53 O54 1.313 . S
C53 O60 1.195 . S
O54 C53 1.313 . S
C55 O56 1.245 . S
C55 O64 1.289 . S
O56 C55 1.245 . S
C57 O58 1.245 . S
C57 O59 1.289 . S
O58 C57 1.245 . S
O59 Mg52 2.141 . S
O59 C57 1.289 . S
O60 Mg52 2.048 1_556 S
O60 C53 1.195 . S
O61 Mg52 2.048 . S
O61 C62 1.195 . S
C62 O61 1.195 . S
C62 O63 1.313 . S
O63 C62 1.313 . S
O64 Mg52 2.141 . S
O64 C55 1.289 . S
Mg65 O72 2.141 . S
Mg65 O73 2.048 . S
Mg65 O74 2.048 . S
Mg65 O77 2.141 . S
C66 O67 1.313 . S
C66 O73 1.195 . S
O67 C66 1.313 . S
C68 O69 1.245 . S
C68 O77 1.289 . S
O69 C68 1.245 . S
C70 O71 1.245 . S
C70 O72 1.289 . S
O71 C70 1.245 . S
O72 Mg65 2.141 . S
O72 C70 1.289 . S
O73 Mg65 2.048 . S
O73 C66 1.195 . S
O74 Mg65 2.048 . S
O74 C75 1.195 . S
C75 O74 1.195 . S
C75 O76 1.313 . S
O76 C75 1.313 . S
O77 Mg65 2.141 . S
O77 C68 1.289 . S
Mg78 O85 2.141 . S
Mg78 O86 2.048 . S
Mg78 O87 2.048 . S
Mg78 O90 2.141 . S
C79 O80 1.313 . S
C79 O86 1.195 . S
O80 C79 1.313 . S
C81 O82 1.245 . S
C81 O90 1.289 . S
O82 C81 1.245 . S
C83 O84 1.245 . S
C83 O85 1.289 . S
O84 C83 1.245 . S
O85 Mg78 2.141 . S
O85 C83 1.289 . S
O86 Mg78 2.048 . S
O86 C79 1.195 . S
O87 Mg78 2.048 . S
O87 C88 1.195 . S
C88 O87 1.195 . S
C88 O89 1.313 . S
O89 C88 1.313 . S
O90 Mg78 2.141 . S
O90 C81 1.289 . S
Mg91 O98 2.141 . S
Mg91 O99 2.048 . S
Mg91 O100 2.048 . S
Mg91 O103 2.141 . S
C92 O93 1.313 . S
C92 O99 1.195 . S
O93 C92 1.313 . S
C94 O95 1.245 . S
C94 O103 1.289 . S
O95 C94 1.245 . S
C96 O97 1.245 . S
C96 O98 1.289 . S
O97 C96 1.245 . S
O98 Mg91 2.141 . S
O98 C96 1.289 . S
O99 Mg91 2.048 . S
O99 C92 1.195 . S
O100 Mg91 2.048 . S
O100 C101 1.195 . S
C101 O100 1.195 . S
C101 O102 1.313 . S
O102 C101 1.313 . S
O103 Mg91 2.141 . S
O103 C94 1.289 . S
Mg104 O111 2.141 . S
Mg104 O112 2.048 . S
Mg104 O113 2.048 . S
Mg104 O116 2.141 . S
C105 O106 1.313 . S
C105 O112 1.195 . S
O106 C105 1.313 . S
C107 O108 1.245 . S
C107 O116 1.289 . S
O108 C107 1.245 . S
C109 O110 1.245 . S
C109 O111 1.289 . S
O110 C109 1.245 . S
O111 Mg104 2.141 . S
O111 C109 1.289 . S
O112 Mg104 2.048 . S
O112 C105 1.195 . S
O113 Mg104 2.048 . S
O113 C114 1.195 . S
C114 O113 1.195 . S
C114 O115 1.313 . S
O115 C114 1.313 . S
O116 Mg104 2.141 . S
O116 C107 1.289 . S
Mg117 O124 2.141 . S
Mg117 O125 2.048 . S
Mg117 O126 2.048 . S
Mg117 O129 2.141 . S
C118 O119 1.313 . S
C118 O125 1.195 . S
O119 C118 1.313 . S
C120 O121 1.245 . S
C120 O129 1.289 1_556 S
O121 C120 1.245 . S
C122 O123 1.245 . S
C122 O124 1.289 . S
O123 C122 1.245 . S
O124 Mg117 2.141 . S
O124 C122 1.289 . S
O125 Mg117 2.048 . S
O125 C118 1.195 . S
O126 Mg117 2.048 . S
O126 C127 1.195 . S
C127 O126 1.195 . S
C127 O128 1.313 . S
O128 C127 1.313 . S
O129 Mg117 2.141 . S
O129 C120 1.289 1_554 S
Mg130 O137 2.141 . S
Mg130 O138 2.048 . S
Mg130 O139 2.048 . S
Mg130 O142 2.141 . S
C131 O132 1.313 . S
C131 O138 1.195 . S
O132 C131 1.313 . S
C133 O134 1.245 . S
C133 O142 1.289 . S
O134 C133 1.245 . S
C135 O136 1.245 . S
C135 O137 1.289 . S
O136 C135 1.245 . S
O137 Mg130 2.141 . S
O137 C135 1.289 . S
O138 Mg130 2.048 . S
O138 C131 1.195 . S
O139 Mg130 2.048 . S
O139 C140 1.195 . S
C140 O139 1.195 . S
C140 O141 1.313 . S
O141 C140 1.313 . S
O142 Mg130 2.141 . S
O142 C133 1.289 . S
Mg143 O150 2.141 . S
Mg143 O151 2.048 . S
Mg143 O152 2.048 . S
Mg143 O155 2.141 . S
C144 O145 1.313 . S
C144 O151 1.195 . S
O145 C144 1.313 . S
C146 O147 1.245 . S
C146 O155 1.289 . S
O147 C146 1.245 . S
C148 O149 1.245 . S
C148 O150 1.289 . S
O149 C148 1.245 . S
O150 Mg143 2.141 . S
O150 C148 1.289 . S
O151 Mg143 2.048 . S
O151 C144 1.195 . S
O152 Mg143 2.048 . S
O152 C153 1.195 . S
C153 O152 1.195 . S
C153 O154 1.313 . S
O154 C153 1.313 . S
O155 Mg143 2.141 . S
O155 C146 1.289 . S
Mg156 O163 2.141 . S
Mg156 O164 2.048 . S
Mg156 O165 2.048 . S
Mg156 O168 2.141 . S
C157 O158 1.313 . S
C157 O164 1.195 . S
O158 C157 1.313 . S
C159 O160 1.245 . S
C159 O168 1.289 . S
O160 C159 1.245 . S
C161 O162 1.245 . S
C161 O163 1.289 . S
O162 C161 1.245 . S
O163 Mg156 2.141 . S
O163 C161 1.289 . S
O164 Mg156 2.048 . S
O164 C157 1.195 . S
O165 Mg156 2.048 . S
O165 C166 1.195 . S
C166 O165 1.195 . S
C166 O167 1.313 . S
O167 C166 1.313 . S
O168 Mg156 2.141 . S
O168 C159 1.289 . S
Mg169 O176 2.141 . S
Mg169 O177 2.048 . S
Mg169 O178 2.048 . S
Mg169 O181 2.141 . S
C170 O171 1.313 . S
C170 O177 1.195 . S
O171 C170 1.313 . S
C172 O173 1.245 . S
C172 O181 1.289 . S
O173 C172 1.245 . S
C174 O175 1.245 . S
C174 O176 1.289 . S
O175 C174 1.245 . S
O176 Mg169 2.141 . S
O176 C174 1.289 . S
O177 Mg169 2.048 . S
O177 C170 1.195 . S
O178 Mg169 2.048 . S
O178 C179 1.195 . S
C179 O178 1.195 . S
C179 O180 1.313 . S
O180 C179 1.313 . S
O181 Mg169 2.141 . S
O181 C172 1.289 . S
Mg182 O189 2.141 . S
Mg182 O190 2.048 1_554 S
Mg182 O191 2.048 . S
Mg182 O194 2.141 . S
C183 O184 1.313 . S
C183 O190 1.195 . S
O184 C183 1.313 . S
C185 O186 1.245 . S
C185 O194 1.289 . S
O186 C185 1.245 . S
C187 O188 1.245 . S
C187 O189 1.289 . S
O188 C187 1.245 . S
O189 Mg182 2.141 . S
O189 C187 1.289 . S
O190 Mg182 2.048 1_556 S
O190 C183 1.195 . S
O191 Mg182 2.048 . S
O191 C192 1.195 . S
C192 O191 1.195 . S
C192 O193 1.313 . S
O193 C192 1.313 . S
O194 Mg182 2.141 . S
O194 C185 1.289 . S
Mg195 O202 2.141 . S
Mg195 O203 2.048 . S
Mg195 O204 2.048 . S
Mg195 O207 2.141 . S
C196 O197 1.313 . S
C196 O203 1.195 . S
O197 C196 1.313 . S
C198 O199 1.245 . S
C198 O207 1.289 . S
O199 C198 1.245 . S
C200 O201 1.245 . S
C200 O202 1.289 . S
O201 C200 1.245 . S
O202 Mg195 2.141 . S
O202 C200 1.289 . S
O203 Mg195 2.048 . S
O203 C196 1.195 . S
O204 Mg195 2.048 . S
O204 C205 1.195 . S
C205 O204 1.195 . S
C205 O206 1.313 . S
O206 C205 1.313 . S
O207 Mg195 2.141 . S
O207 C198 1.289 . S
H208 C220 0.930 . S
H209 C222 0.930 . S
H210 C223 0.930 . S
H211 C227 0.959 . S
H212 C227 0.959 . S
H213 C227 0.961 . S
H214 C228 0.960 . S
H215 C228 0.961 . S
H216 C228 0.959 . S
H217 C231 0.929 . S
H218 C232 0.931 . S
H219 C234 0.930 . S
C220 H208 0.930 . S
C220 C221 1.399 . S
C220 C225 1.399 . S
C221 C220 1.399 . S
C221 C222 1.376 . S
C222 H209 0.930 . S
C222 C221 1.376 . S
C222 C223 1.388 . S
C223 H210 0.930 . S
C223 C222 1.388 . S
C223 C224 1.390 . S
C224 C223 1.390 . S
C224 C225 1.394 . S
C224 C230 1.465 . S
C225 C220 1.399 . S
C225 C224 1.394 . S
C225 C226 1.516 . S
C226 C225 1.516 . S
C226 C227 1.502 . S
C226 C228 1.561 . S
C226 C229 1.526 . S
C227 H211 0.959 . S
C227 H212 0.959 . S
C227 H213 0.961 . S
C227 C226 1.502 . S
C228 H214 0.960 . S
C228 H215 0.961 . S
C228 H216 0.959 . S
C228 C226 1.561 . S
C229 C226 1.526 . S
C229 C230 1.396 . S
C229 C234 1.390 . S
C230 C224 1.465 . S
C230 C229 1.396 . S
C230 C231 1.399 . S
C231 H217 0.929 . S
C231 C230 1.399 . S
C231 C232 1.385 . S
C232 H218 0.931 . S
C232 C231 1.385 . S
C232 C233 1.389 . S
C233 C232 1.389 . S
C233 C234 1.387 . S
C234 H219 0.930 . S
C234 C229 1.390 . S
C234 C233 1.387 . S
H235 C247 0.930 . S
H236 C249 0.930 . S
H237 C250 0.930 . S
H238 C254 0.959 . S
H239 C254 0.959 . S
H240 C254 0.961 . S
H241 C255 0.960 . S
H242 C255 0.961 . S
H243 C255 0.959 . S
H244 C258 0.929 . S
H245 C259 0.931 . S
H246 C261 0.930 . S
C247 H235 0.930 . S
C247 C248 1.399 . S
C247 C252 1.399 . S
C248 C247 1.399 . S
C248 C249 1.376 . S
C249 H236 0.930 . S
C249 C248 1.376 . S
C249 C250 1.388 . S
C250 H237 0.930 . S
C250 C249 1.388 . S
C250 C251 1.390 . S
C251 C250 1.390 . S
C251 C252 1.394 . S
C251 C257 1.465 . S
C252 C247 1.399 . S
C252 C251 1.394 . S
C252 C253 1.516 . S
C253 C252 1.516 . S
C253 C254 1.502 . S
C253 C255 1.561 . S
C253 C256 1.526 . S
C254 H238 0.959 . S
C254 H239 0.959 . S
C254 H240 0.961 . S
C254 C253 1.502 . S
C255 H241 0.960 . S
C255 H242 0.961 . S
C255 H243 0.959 . S
C255 C253 1.561 . S
C256 C253 1.526 . S
C256 C257 1.396 . S
C256 C261 1.390 . S
C257 C251 1.465 . S
C257 C256 1.396 . S
C257 C258 1.399 . S
C258 H244 0.929 . S
C258 C257 1.399 . S
C258 C259 1.385 . S
C259 H245 0.931 . S
C259 C258 1.385 . S
C259 C260 1.389 . S
C260 C259 1.389 . S
C260 C261 1.387 . S
C261 H246 0.930 . S
C261 C256 1.390 . S
C261 C260 1.387 . S
H262 C274 0.930 . S
H263 C276 0.930 . S
H264 C277 0.930 . S
H265 C281 0.959 . S
H266 C281 0.959 . S
H267 C281 0.961 . S
H268 C282 0.960 . S
H269 C282 0.961 . S
H270 C282 0.959 . S
H271 C285 0.929 . S
H272 C286 0.931 . S
H273 C288 0.930 1_554 S
C274 H262 0.930 . S
C274 C275 1.399 . S
C274 C279 1.399 . S
C275 C274 1.399 . S
C275 C276 1.376 . S
C276 H263 0.930 . S
C276 C275 1.376 . S
C276 C277 1.388 . S
C277 H264 0.930 . S
C277 C276 1.388 . S
C277 C278 1.390 . S
C278 C277 1.390 . S
C278 C279 1.394 . S
C278 C284 1.465 . S
C279 C274 1.399 . S
C279 C278 1.394 . S
C279 C280 1.516 . S
C280 C279 1.516 . S
C280 C281 1.502 1_556 S
C280 C282 1.561 . S
C280 C283 1.526 . S
C281 H265 0.959 . S
C281 H266 0.959 . S
C281 H267 0.961 . S
C281 C280 1.502 1_554 S
C282 H268 0.960 . S
C282 H269 0.961 . S
C282 H270 0.959 . S
C282 C280 1.561 . S
C283 C280 1.526 . S
C283 C284 1.396 . S
C283 C288 1.390 . S
C284 C278 1.465 . S
C284 C283 1.396 . S
C284 C285 1.399 . S
C285 H271 0.929 . S
C285 C284 1.399 . S
C285 C286 1.385 . S
C286 H272 0.931 . S
C286 C285 1.385 . S
C286 C287 1.389 . S
C287 C286 1.389 . S
C287 C288 1.387 . S
C288 H273 0.930 1_556 S
C288 C283 1.390 . S
C288 C287 1.387 . S
H289 C301 0.930 . S
H290 C303 0.930 . S
H291 C304 0.930 . S
H292 C308 0.959 . S
H293 C308 0.959 . S
H294 C308 0.961 . S
H295 C309 0.960 . S
H296 C309 0.961 . S
H297 C309 0.959 . S
H298 C312 0.929 . S
H299 C313 0.931 . S
H300 C315 0.930 . S
C301 H289 0.930 . S
C301 C302 1.399 . S
C301 C306 1.399 . S
C302 C301 1.399 . S
C302 C303 1.376 . S
C303 H290 0.930 . S
C303 C302 1.376 . S
C303 C304 1.388 . S
C304 H291 0.930 . S
C304 C303 1.388 . S
C304 C305 1.390 . S
C305 C304 1.390 . S
C305 C306 1.394 . S
C305 C311 1.465 . S
C306 C301 1.399 . S
C306 C305 1.394 . S
C306 C307 1.516 . S
C307 C306 1.516 . S
C307 C308 1.502 . S
C307 C309 1.561 . S
C307 C310 1.526 . S
C308 H292 0.959 . S
C308 H293 0.959 . S
C308 H294 0.961 . S
C308 C307 1.502 . S
C309 H295 0.960 . S
C309 H296 0.961 . S
C309 H297 0.959 . S
C309 C307 1.561 . S
C310 C307 1.526 . S
C310 C311 1.396 . S
C310 C315 1.390 . S
C311 C305 1.465 . S
C311 C310 1.396 . S
C311 C312 1.399 . S
C312 H298 0.929 . S
C312 C311 1.399 . S
C312 C313 1.385 . S
C313 H299 0.931 . S
C313 C312 1.385 . S
C313 C314 1.389 . S
C314 C313 1.389 . S
C314 C315 1.387 . S
C315 H300 0.930 . S
C315 C310 1.390 . S
C315 C314 1.387 . S
H316 C328 0.930 . S
H317 C330 0.930 . S
H318 C331 0.930 . S
H319 C335 0.959 . S
H320 C335 0.959 . S
H321 C335 0.961 . S
H322 C336 0.960 . S
H323 C336 0.961 . S
H324 C336 0.959 . S
H325 C339 0.929 . S
H326 C340 0.931 1_554 S
H327 C342 0.930 . S
C328 H316 0.930 . S
C328 C329 1.399 . S
C328 C333 1.399 . S
C329 C328 1.399 . S
C329 C330 1.376 . S
C330 H317 0.930 . S
C330 C329 1.376 . S
C330 C331 1.388 . S
C331 H318 0.930 . S
C331 C330 1.388 . S
C331 C332 1.390 . S
C332 C331 1.390 . S
C332 C333 1.394 . S
C332 C338 1.465 . S
C333 C328 1.399 . S
C333 C332 1.394 . S
C333 C334 1.516 . S
C334 C333 1.516 . S
C334 C335 1.502 . S
C334 C336 1.561 . S
C334 C337 1.526 . S
C335 H319 0.959 . S
C335 H320 0.959 . S
C335 H321 0.961 . S
C335 C334 1.502 . S
C336 H322 0.960 . S
C336 H323 0.961 . S
C336 H324 0.959 . S
C336 C334 1.561 . S
C337 C334 1.526 . S
C337 C338 1.396 . S
C337 C342 1.390 . S
C338 C332 1.465 . S
C338 C337 1.396 . S
C338 C339 1.399 . S
C339 H325 0.929 . S
C339 C338 1.399 . S
C339 C340 1.385 . S
C340 H326 0.931 1_556 S
C340 C339 1.385 . S
C340 C341 1.389 . S
C341 C340 1.389 . S
C341 C342 1.387 . S
C342 H327 0.930 . S
C342 C337 1.390 . S
C342 C341 1.387 . S
H343 C355 0.930 . S
H344 C357 0.930 . S
H345 C358 0.930 . S
H346 C362 0.959 . S
H347 C362 0.959 . S
H348 C362 0.961 . S
H349 C363 0.960 . S
H350 C363 0.961 . S
H351 C363 0.959 . S
H352 C366 0.929 . S
H353 C367 0.931 . S
H354 C369 0.930 . S
C355 H343 0.930 . S
C355 C356 1.399 . S
C355 C360 1.399 . S
C356 C355 1.399 . S
C356 C357 1.376 . S
C357 H344 0.930 . S
C357 C356 1.376 . S
C357 C358 1.388 . S
C358 H345 0.930 . S
C358 C357 1.388 . S
C358 C359 1.390 . S
C359 C358 1.390 . S
C359 C360 1.394 . S
C359 C365 1.465 . S
C360 C355 1.399 . S
C360 C359 1.394 . S
C360 C361 1.516 . S
C361 C360 1.516 . S
C361 C362 1.502 . S
C361 C363 1.561 . S
C361 C364 1.526 . S
C362 H346 0.959 . S
C362 H347 0.959 . S
C362 H348 0.961 . S
C362 C361 1.502 . S
C363 H349 0.960 . S
C363 H350 0.961 . S
C363 H351 0.959 . S
C363 C361 1.561 . S
C364 C361 1.526 . S
C364 C365 1.396 . S
C364 C369 1.390 . S
C365 C359 1.465 . S
C365 C364 1.396 . S
C365 C366 1.399 . S
C366 H352 0.929 . S
C366 C365 1.399 . S
C366 C367 1.385 . S
C367 H353 0.931 . S
C367 C366 1.385 . S
C367 C368 1.389 . S
C368 C367 1.389 . S
C368 C369 1.387 . S
C369 H354 0.930 . S
C369 C364 1.390 . S
C369 C368 1.387 . S
H370 C382 0.930 . S
H371 C384 0.930 . S
H372 C385 0.930 . S
H373 C389 0.959 . S
H374 C389 0.959 . S
H375 C389 0.961 . S
H376 C390 0.960 . S
H377 C390 0.961 . S
H378 C390 0.959 . S
H379 C393 0.929 . S
H380 C394 0.931 . S
H381 C396 0.930 . S
C382 H370 0.930 . S
C382 C383 1.399 . S
C382 C387 1.399 . S
C383 C382 1.399 . S
C383 C384 1.376 . S
C384 H371 0.930 . S
C384 C383 1.376 . S
C384 C385 1.388 . S
C385 H372 0.930 . S
C385 C384 1.388 . S
C385 C386 1.390 . S
C386 C385 1.390 . S
C386 C387 1.394 . S
C386 C392 1.465 . S
C387 C382 1.399 . S
C387 C386 1.394 . S
C387 C388 1.516 . S
C388 C387 1.516 . S
C388 C389 1.502 . S
C388 C390 1.561 . S
C388 C391 1.526 . S
C389 H373 0.959 . S
C389 H374 0.959 . S
C389 H375 0.961 . S
C389 C388 1.502 . S
C390 H376 0.960 . S
C390 H377 0.961 . S
C390 H378 0.959 . S
C390 C388 1.561 . S
C391 C388 1.526 . S
C391 C392 1.396 . S
C391 C396 1.390 . S
C392 C386 1.465 . S
C392 C391 1.396 . S
C392 C393 1.399 . S
C393 H379 0.929 . S
C393 C392 1.399 . S
C393 C394 1.385 . S
C394 H380 0.931 . S
C394 C393 1.385 . S
C394 C395 1.389 . S
C395 C394 1.389 . S
C395 C396 1.387 . S
C396 H381 0.930 . S
C396 C391 1.390 . S
C396 C395 1.387 . S
H397 C409 0.930 . S
H398 C411 0.930 . S
H399 C412 0.930 . S
H400 C416 0.959 . S
H401 C416 0.959 . S
H402 C416 0.961 . S
H403 C417 0.960 . S
H404 C417 0.961 . S
H405 C417 0.959 . S
H406 C420 0.929 . S
H407 C421 0.931 . S
H408 C423 0.930 . S
C409 H397 0.930 . S
C409 C410 1.399 . S
C409 C414 1.399 . S
C410 C409 1.399 . S
C410 C411 1.376 . S
C411 H398 0.930 . S
C411 C410 1.376 . S
C411 C412 1.388 . S
C412 H399 0.930 . S
C412 C411 1.388 . S
C412 C413 1.390 . S
C413 C412 1.390 . S
C413 C414 1.394 . S
C413 C419 1.465 . S
C414 C409 1.399 . S
C414 C413 1.394 . S
C414 C415 1.516 . S
C415 C414 1.516 . S
C415 C416 1.502 . S
C415 C417 1.561 . S
C415 C418 1.526 . S
C416 H400 0.959 . S
C416 H401 0.959 . S
C416 H402 0.961 . S
C416 C415 1.502 . S
C417 H403 0.960 . S
C417 H404 0.961 . S
C417 H405 0.959 . S
C417 C415 1.561 . S
C418 C415 1.526 . S
C418 C419 1.396 . S
C418 C423 1.390 . S
C419 C413 1.465 . S
C419 C418 1.396 . S
C419 C420 1.399 . S
C420 H406 0.929 . S
C420 C419 1.399 . S
C420 C421 1.385 . S
C421 H407 0.931 . S
C421 C420 1.385 . S
C421 C422 1.389 . S
C422 C421 1.389 . S
C422 C423 1.387 . S
C423 H408 0.930 . S
C423 C418 1.390 . S
C423 C422 1.387 . S
H424 C436 0.930 . S
H425 C438 0.930 . S
H426 C439 0.930 . S
H427 C443 0.959 . S
H428 C443 0.959 1_565 S
H429 C443 0.947 1_455 S
H430 C444 0.960 . S
H431 C444 0.961 . S
H432 C444 0.959 . S
H433 C447 0.929 . S
H434 C448 0.931 . S
H435 C450 0.930 . S
C436 H424 0.930 . S
C436 C437 1.399 . S
C436 C441 1.399 . S
C437 C436 1.399 . S
C437 C438 1.376 . S
C438 H425 0.930 . S
C438 C437 1.376 . S
C438 C439 1.388 . S
C439 H426 0.930 . S
C439 C438 1.388 . S
C439 C440 1.390 . S
C440 C439 1.390 . S
C440 C441 1.394 . S
C440 C446 1.465 1_445 S
C441 C436 1.399 . S
C441 C440 1.394 . S
C441 C442 1.516 1_545 S
C442 C441 1.516 1_565 S
C442 C443 1.502 1_465 S
C442 C444 1.561 . S
C442 C445 1.526 1_455 S
C443 H427 0.959 . S
C443 H428 0.959 1_545 S
C443 H429 0.947 1_655 S
C443 C442 1.502 1_645 S
C444 H430 0.960 . S
C444 H431 0.961 . S
C444 H432 0.959 . S
C444 C442 1.561 . S
C445 C442 1.526 1_655 S
C445 C446 1.396 . S
C445 C450 1.390 . S
C446 C440 1.465 1_665 S
C446 C445 1.396 . S
C446 C447 1.399 . S
C447 H433 0.929 . S
C447 C446 1.399 . S
C447 C448 1.385 . S
C448 H434 0.931 . S
C448 C447 1.385 . S
C448 C449 1.389 . S
C449 C448 1.389 . S
C449 C450 1.387 . S
C450 H435 0.930 . S
C450 C445 1.390 . S
C450 C449 1.387 . S
H451 C463 0.930 . S
H452 C465 0.930 . S
H453 C466 0.930 . S
H454 C470 0.959 . S
H455 C470 0.959 . S
H456 C470 0.961 1_655 S
H457 C471 0.960 . S
H458 C471 0.961 . S
H459 C471 0.959 . S
H460 C474 0.929 . S
H461 C475 0.931 . S
H462 C477 0.930 . S
C463 H451 0.930 . S
C463 C464 1.399 . S
C463 C468 1.399 . S
C464 C463 1.399 . S
C464 C465 1.376 . S
C465 H452 0.930 . S
C465 C464 1.376 . S
C465 C466 1.388 . S
C466 H453 0.930 . S
C466 C465 1.388 . S
C466 C467 1.390 . S
C467 C466 1.390 . S
C467 C468 1.394 . S
C467 C473 1.465 1_655 S
C468 C463 1.399 . S
C468 C467 1.394 . S
C468 C469 1.516 . S
C469 C468 1.516 . S
C469 C470 1.502 1_655 S
C469 C471 1.561 . S
C469 C472 1.526 1_655 S
C470 H454 0.959 . S
C470 H455 0.959 . S
C470 H456 0.961 1_455 S
C470 C469 1.502 1_455 S
C471 H457 0.960 . S
C471 H458 0.961 . S
C471 H459 0.959 . S
C471 C469 1.561 . S
C472 C469 1.526 1_455 S
C472 C473 1.396 . S
C472 C477 1.390 . S
C473 C467 1.465 1_455 S
C473 C472 1.396 . S
C473 C474 1.399 . S
C474 H460 0.929 . S
C474 C473 1.399 . S
C474 C475 1.385 . S
C475 H461 0.931 . S
C475 C474 1.385 . S
C475 C476 1.389 . S
C476 C475 1.389 . S
C476 C477 1.387 . S
C477 H462 0.930 . S
C477 C472 1.390 . S
C477 C476 1.387 . S
H478 C490 0.930 . S
H479 C492 0.930 . S
H480 C493 0.930 . S
H481 C497 0.959 . S
H482 C497 0.959 . S
H483 C497 0.961 . S
H484 C498 0.960 . S
H485 C498 0.961 . S
H486 C498 0.959 . S
H487 C501 0.929 . S
H488 C502 0.931 . S
H489 C504 0.930 . S
C490 H478 0.930 . S
C490 C491 1.399 . S
C490 C495 1.399 . S
C491 C490 1.399 . S
C491 C492 1.376 . S
C492 H479 0.930 . S
C492 C491 1.376 . S
C492 C493 1.388 . S
C493 H480 0.930 . S
C493 C492 1.388 . S
C493 C494 1.390 . S
C494 C493 1.390 . S
C494 C495 1.394 . S
C494 C500 1.465 . S
C495 C490 1.399 . S
C495 C494 1.394 . S
C495 C496 1.516 . S
C496 C495 1.516 . S
C496 C497 1.502 . S
C496 C498 1.561 . S
C496 C499 1.526 . S
C497 H481 0.959 . S
C497 H482 0.959 . S
C497 H483 0.961 . S
C497 C496 1.502 . S
C498 H484 0.960 . S
C498 H485 0.961 . S
C498 H486 0.959 . S
C498 C496 1.561 . S
C499 C496 1.526 . S
C499 C500 1.396 . S
C499 C504 1.390 . S
C500 C494 1.465 . S
C500 C499 1.396 . S
C500 C501 1.399 . S
C501 H487 0.929 . S
C501 C500 1.399 . S
C501 C502 1.385 . S
C502 H488 0.931 . S
C502 C501 1.385 . S
C502 C503 1.389 . S
C503 C502 1.389 . S
C503 C504 1.387 . S
C504 H489 0.930 . S
C504 C499 1.390 . S
C504 C503 1.387 . S
H505 C517 0.930 . S
H506 C519 0.930 . S
H507 C520 0.930 . S
H508 C524 0.959 . S
H509 C524 0.959 . S
H510 C524 0.961 . S
H511 C525 0.960 . S
H512 C525 0.961 . S
H513 C525 0.959 . S
H514 C528 0.929 . S
H515 C529 0.931 . S
H516 C531 0.930 . S
C517 H505 0.930 . S
C517 C518 1.399 . S
C517 C522 1.399 . S
C518 C517 1.399 . S
C518 C519 1.376 . S
C519 H506 0.930 . S
C519 C518 1.376 . S
C519 C520 1.388 . S
C520 H507 0.930 . S
C520 C519 1.388 . S
C520 C521 1.390 . S
C521 C520 1.390 . S
C521 C522 1.394 . S
C521 C527 1.465 . S
C522 C517 1.399 . S
C522 C521 1.394 . S
C522 C523 1.516 1_565 S
C523 C522 1.516 1_545 S
C523 C524 1.502 . S
C523 C525 1.561 1_554 S
C523 C526 1.526 . S
C524 H508 0.959 . S
C524 H509 0.959 . S
C524 H510 0.961 . S
C524 C523 1.502 . S
C525 H511 0.960 . S
C525 H512 0.961 . S
C525 H513 0.959 . S
C525 C523 1.561 1_556 S
C526 C523 1.526 . S
C526 C527 1.396 1_545 S
C526 C531 1.390 . S
C527 C521 1.465 . S
C527 C526 1.396 1_565 S
C527 C528 1.399 . S
C528 H514 0.929 . S
C528 C527 1.399 . S
C528 C529 1.385 1_565 S
C529 H515 0.931 . S
C529 C528 1.385 1_545 S
C529 C530 1.389 . S
C530 C529 1.389 . S
C530 C531 1.387 . S
C531 H516 0.930 . S
C531 C526 1.390 . S
C531 C530 1.387 . S
H532 C544 0.930 . S
H533 C546 0.930 . S
H534 C547 0.930 . S
H535 C551 0.959 . S
H536 C551 0.959 . S
H537 C551 0.961 . S
H538 C552 0.960 . S
H539 C552 0.961 . S
H540 C552 0.959 . S
H541 C555 0.929 . S
H542 C556 0.931 . S
H543 C558 0.930 . S
C544 H532 0.930 . S
C544 C545 1.399 . S
C544 C549 1.399 . S
C545 C544 1.399 . S
C545 C546 1.376 . S
C546 H533 0.930 . S
C546 C545 1.376 . S
C546 C547 1.388 1_455 S
C547 H534 0.930 . S
C547 C546 1.388 1_655 S
C547 C548 1.390 . S
C548 C547 1.390 . S
C548 C549 1.394 1_655 S
C548 C554 1.465 . S
C549 C544 1.399 . S
C549 C548 1.394 1_455 S
C549 C550 1.516 . S
C550 C549 1.516 . S
C550 C551 1.502 . S
C550 C552 1.561 1_554 S
C550 C553 1.526 1_455 S
C551 H535 0.959 . S
C551 H536 0.959 . S
C551 H537 0.961 . S
C551 C550 1.502 . S
C552 H538 0.960 . S
C552 H539 0.961 . S
C552 H540 0.959 . S
C552 C550 1.561 1_556 S
C553 C550 1.526 1_655 S
C553 C554 1.396 . S
C553 C558 1.390 . S
C554 C548 1.465 . S
C554 C553 1.396 . S
C554 C555 1.399 . S
C555 H541 0.929 . S
C555 C554 1.399 . S
C555 C556 1.385 . S
C556 H542 0.931 . S
C556 C555 1.385 . S
C556 C557 1.389 . S
C557 C556 1.389 . S
C557 C558 1.387 . S
C558 H543 0.930 . S
C558 C553 1.390 . S
C558 C557 1.387 . S
H559 C571 0.930 . S
H560 C573 0.930 . S
H561 C574 0.930 . S
H562 C578 0.959 . S
H563 C578 0.959 . S
H564 C578 0.961 . S
H565 C579 0.960 . S
H566 C579 0.961 . S
H567 C579 0.959 . S
H568 C582 0.929 . S
H569 C583 0.931 . S
H570 C585 0.930 . S
C571 H559 0.930 . S
C571 C572 1.399 . S
C571 C576 1.399 . S
C572 C571 1.399 . S
C572 C573 1.376 . S
C573 H560 0.930 . S
C573 C572 1.376 . S
C573 C574 1.388 . S
C574 H561 0.930 . S
C574 C573 1.388 . S
C574 C575 1.390 . S
C575 C574 1.390 . S
C575 C576 1.394 . S
C575 C581 1.465 . S
C576 C571 1.399 . S
C576 C575 1.394 . S
C576 C577 1.516 . S
C577 C576 1.516 . S
C577 C578 1.502 . S
C577 C579 1.561 . S
C577 C580 1.526 . S
C578 H562 0.959 . S
C578 H563 0.959 . S
C578 H564 0.961 . S
C578 C577 1.502 . S
C579 H565 0.960 . S
C579 H566 0.961 . S
C579 H567 0.959 . S
C579 C577 1.561 . S
C580 C577 1.526 . S
C580 C581 1.396 . S
C580 C585 1.390 . S
C581 C575 1.465 . S
C581 C580 1.396 . S
C581 C582 1.399 . S
C582 H568 0.929 . S
C582 C581 1.399 . S
C582 C583 1.385 . S
C583 H569 0.931 . S
C583 C582 1.385 . S
C583 C584 1.389 . S
C584 C583 1.389 . S
C584 C585 1.387 . S
C585 H570 0.930 . S
C585 C580 1.390 . S
C585 C584 1.387 . S
H586 C598 0.930 . S
H587 C600 0.930 . S
H588 C601 0.930 . S
H589 C605 0.959 . S
H590 C605 0.959 1_565 S
H591 C605 0.961 . S
H592 C606 0.960 . S
H593 C606 0.961 . S
H594 C606 0.959 . S
H595 C609 0.929 . S
H596 C610 0.931 . S
H597 C612 0.930 . S
C598 H586 0.930 . S
C598 C599 1.399 . S
C598 C603 1.399 . S
C599 C598 1.399 . S
C599 C600 1.376 . S
C600 H587 0.930 . S
C600 C599 1.376 . S
C600 C601 1.388 . S
C601 H588 0.930 . S
C601 C600 1.388 . S
C601 C602 1.390 . S
C602 C601 1.390 . S
C602 C603 1.394 . S
C602 C608 1.465 1_545 S
C603 C598 1.399 . S
C603 C602 1.394 . S
C603 C604 1.516 1_545 S
C604 C603 1.516 1_565 S
C604 C605 1.502 1_565 S
C604 C606 1.561 . S
C604 C607 1.526 . S
C605 H589 0.959 . S
C605 H590 0.959 1_545 S
C605 H591 0.961 . S
C605 C604 1.502 1_545 S
C606 H592 0.960 . S
C606 H593 0.961 . S
C606 H594 0.959 . S
C606 C604 1.561 . S
C607 C604 1.526 . S
C607 C608 1.396 . S
C607 C612 1.390 . S
C608 C602 1.465 1_565 S
C608 C607 1.396 . S
C608 C609 1.399 . S
C609 H595 0.929 . S
C609 C608 1.399 . S
C609 C610 1.385 . S
C610 H596 0.931 . S
C610 C609 1.385 . S
C610 C611 1.389 . S
C611 C610 1.389 . S
C611 C612 1.387 . S
C612 H597 0.930 . S
C612 C607 1.390 . S
C612 C611 1.387 . S
H613 C625 0.930 . S
H614 C627 0.930 . S
H615 C628 0.930 . S
H616 C632 0.959 . S
H617 C632 0.959 1_655 S
H618 C632 0.961 . S
H619 C633 0.960 . S
H620 C633 0.961 . S
H621 C633 0.959 . S
H622 C636 0.929 . S
H623 C637 0.931 . S
H624 C639 0.930 . S
C625 H613 0.930 . S
C625 C626 1.399 . S
C625 C630 1.399 . S
C626 C625 1.399 . S
C626 C627 1.376 . S
C627 H614 0.930 . S
C627 C626 1.376 . S
C627 C628 1.388 . S
C628 H615 0.930 . S
C628 C627 1.388 . S
C628 C629 1.390 . S
C629 C628 1.390 . S
C629 C630 1.394 . S
C629 C635 1.465 1_445 S
C630 C625 1.399 . S
C630 C629 1.394 . S
C630 C631 1.516 1_455 S
C631 C630 1.516 1_655 S
C631 C632 1.502 1_645 S
C631 C633 1.561 . S
C631 C634 1.526 1_545 S
C632 H616 0.959 . S
C632 H617 0.959 1_455 S
C632 H618 0.961 . S
C632 C631 1.502 1_465 S
C633 H619 0.960 . S
C633 H620 0.961 . S
C633 H621 0.959 . S
C633 C631 1.561 . S
C634 C631 1.526 1_565 S
C634 C635 1.396 . S
C634 C639 1.390 . S
C635 C629 1.465 1_665 S
C635 C634 1.396 . S
C635 C636 1.399 . S
C636 H622 0.929 . S
C636 C635 1.399 . S
C636 C637 1.385 . S
C637 H623 0.931 . S
C637 C636 1.385 . S
C637 C638 1.389 . S
C638 C637 1.389 . S
C638 C639 1.387 . S
C639 H624 0.930 . S
C639 C634 1.390 . S
C639 C638 1.387 . S
H640 C652 0.930 . S
H641 C654 0.930 . S
H642 C655 0.930 . S
H643 C659 0.959 . S
H644 C659 0.959 . S
H645 C659 0.961 . S
H646 C660 0.960 . S
H647 C660 0.961 . S
H648 C660 0.959 . S
H649 C663 0.929 . S
H650 C664 0.931 . S
H651 C666 0.930 . S
C652 H640 0.930 . S
C652 C653 1.399 . S
C652 C657 1.399 . S
C653 C652 1.399 . S
C653 C654 1.376 . S
C654 H641 0.930 . S
C654 C653 1.376 . S
C654 C655 1.388 . S
C655 H642 0.930 . S
C655 C654 1.388 . S
C655 C656 1.390 . S
C656 C655 1.390 . S
C656 C657 1.394 . S
C656 C662 1.465 . S
C657 C652 1.399 . S
C657 C656 1.394 . S
C657 C658 1.516 . S
C658 C657 1.516 . S
C658 C659 1.502 . S
C658 C660 1.561 . S
C658 C661 1.526 . S
C659 H643 0.959 . S
C659 H644 0.959 . S
C659 H645 0.961 . S
C659 C658 1.502 . S
C660 H646 0.960 . S
C660 H647 0.961 . S
C660 H648 0.959 . S
C660 C658 1.561 . S
C661 C658 1.526 . S
C661 C662 1.396 . S
C661 C666 1.390 . S
C662 C656 1.465 . S
C662 C661 1.396 . S
C662 C663 1.399 . S
C663 H649 0.929 . S
C663 C662 1.399 . S
C663 C664 1.385 . S
C664 H650 0.931 . S
C664 C663 1.385 . S
C664 C665 1.389 . S
C665 C664 1.389 . S
C665 C666 1.387 . S
C666 H651 0.930 . S
C666 C661 1.390 . S
C666 C665 1.387 . S
H667 C679 0.930 . S
H668 C681 0.930 . S
H669 C682 0.930 . S
H670 C686 0.959 . S
H671 C686 0.959 . S
H672 C686 0.961 . S
H673 C687 0.960 . S
H674 C687 0.961 . S
H675 C687 0.959 . S
H676 C690 0.929 . S
H677 C691 0.931 . S
H678 C693 0.930 . S
C679 H667 0.930 . S
C679 C680 1.399 . S
C679 C684 1.399 . S
C680 C679 1.399 . S
C680 C681 1.376 . S
C681 H668 0.930 . S
C681 C680 1.376 . S
C681 C682 1.388 . S
C682 H669 0.930 . S
C682 C681 1.388 . S
C682 C683 1.390 . S
C683 C682 1.390 . S
C683 C684 1.394 . S
C683 C689 1.465 . S
C684 C679 1.399 . S
C684 C683 1.394 . S
C684 C685 1.516 . S
C685 C684 1.516 . S
C685 C686 1.502 . S
C685 C687 1.561 . S
C685 C688 1.526 . S
C686 H670 0.959 . S
C686 H671 0.959 . S
C686 H672 0.961 . S
C686 C685 1.502 . S
C687 H673 0.960 . S
C687 H674 0.961 . S
C687 H675 0.959 . S
C687 C685 1.561 . S
C688 C685 1.526 . S
C688 C689 1.396 . S
C688 C693 1.390 . S
C689 C683 1.465 . S
C689 C688 1.396 . S
C689 C690 1.399 . S
C690 H676 0.929 . S
C690 C689 1.399 . S
C690 C691 1.385 . S
C691 H677 0.931 . S
C691 C690 1.385 . S
C691 C692 1.389 . S
C692 C691 1.389 . S
C692 C693 1.387 . S
C693 H678 0.930 . S
C693 C688 1.390 . S
C693 C692 1.387 . S
H694 C706 0.930 . S
H695 C708 0.930 . S
H696 C709 0.930 . S
H697 C713 0.959 . S
H698 C713 0.959 . S
H699 C713 0.961 . S
H700 C714 0.960 . S
H701 C714 0.961 . S
H702 C714 0.959 . S
H703 C717 0.929 . S
H704 C718 0.931 . S
H705 C720 0.930 . S
C706 H694 0.930 . S
C706 C707 1.399 . S
C706 C711 1.399 . S
C707 C706 1.399 . S
C707 C708 1.376 . S
C708 H695 0.930 . S
C708 C707 1.376 . S
C708 C709 1.388 . S
C709 H696 0.930 . S
C709 C708 1.388 . S
C709 C710 1.390 . S
C710 C709 1.390 . S
C710 C711 1.394 . S
C710 C716 1.465 . S
C711 C706 1.399 . S
C711 C710 1.394 . S
C711 C712 1.516 . S
C712 C711 1.516 . S
C712 C713 1.502 . S
C712 C714 1.561 . S
C712 C715 1.526 . S
C713 H697 0.959 . S
C713 H698 0.959 . S
C713 H699 0.961 . S
C713 C712 1.502 . S
C714 H700 0.960 . S
C714 H701 0.961 . S
C714 H702 0.959 . S
C714 C712 1.561 . S
C715 C712 1.526 . S
C715 C716 1.396 . S
C715 C720 1.390 1_554 S
C716 C710 1.465 . S
C716 C715 1.396 . S
C716 C717 1.399 1_554 S
C717 H703 0.929 . S
C717 C716 1.399 1_556 S
C717 C718 1.385 . S
C718 H704 0.931 . S
C718 C717 1.385 . S
C718 C719 1.389 . S
C719 C718 1.389 . S
C719 C720 1.387 . S
C720 H705 0.930 . S
C720 C715 1.390 1_556 S
C720 C719 1.387 . S
H721 C733 0.930 . S
H722 C735 0.930 . S
H723 C736 0.930 . S
H724 C740 0.959 . S
H725 C740 0.959 . S
H726 C740 0.961 . S
H727 C741 0.960 . S
H728 C741 0.961 . S
H729 C741 0.959 . S
H730 C744 0.929 . S
H731 C745 0.931 . S
H732 C747 0.930 . S
C733 H721 0.930 . S
C733 C734 1.399 . S
C733 C738 1.399 . S
C734 C733 1.399 . S
C734 C735 1.376 . S
C735 H722 0.930 . S
C735 C734 1.376 . S
C735 C736 1.388 . S
C736 H723 0.930 . S
C736 C735 1.388 . S
C736 C737 1.390 . S
C737 C736 1.390 . S
C737 C738 1.394 . S
C737 C743 1.465 . S
C738 C733 1.399 . S
C738 C737 1.394 . S
C738 C739 1.516 . S
C739 C738 1.516 . S
C739 C740 1.502 . S
C739 C741 1.561 . S
C739 C742 1.526 . S
C740 H724 0.959 . S
C740 H725 0.959 . S
C740 H726 0.961 . S
C740 C739 1.502 . S
C741 H727 0.960 . S
C741 H728 0.961 . S
C741 H729 0.959 . S
C741 C739 1.561 . S
C742 C739 1.526 . S
C742 C743 1.396 . S
C742 C747 1.390 . S
C743 C737 1.465 . S
C743 C742 1.396 . S
C743 C744 1.399 . S
C744 H730 0.929 . S
C744 C743 1.399 . S
C744 C745 1.385 . S
C745 H731 0.931 . S
C745 C744 1.385 . S
C745 C746 1.389 . S
C746 C745 1.389 . S
C746 C747 1.387 . S
C747 H732 0.930 . S
C747 C742 1.390 . S
C747 C746 1.387 . S
H748 C760 0.930 . S
H749 C762 0.930 . S
H750 C763 0.930 . S
H751 C767 0.959 . S
H752 C767 0.959 . S
H753 C767 0.961 . S
H754 C768 0.960 . S
H755 C768 0.961 . S
H756 C768 0.959 . S
H757 C771 0.929 . S
H758 C772 0.931 . S
H759 C774 0.930 . S
C760 H748 0.930 . S
C760 C761 1.399 . S
C760 C765 1.399 . S
C761 C760 1.399 . S
C761 C762 1.376 . S
C762 H749 0.930 . S
C762 C761 1.376 . S
C762 C763 1.388 . S
C763 H750 0.930 . S
C763 C762 1.388 . S
C763 C764 1.390 . S
C764 C763 1.390 . S
C764 C765 1.394 . S
C764 C770 1.465 . S
C765 C760 1.399 . S
C765 C764 1.394 . S
C765 C766 1.516 . S
C766 C765 1.516 . S
C766 C767 1.502 . S
C766 C768 1.561 . S
C766 C769 1.526 . S
C767 H751 0.959 . S
C767 H752 0.959 . S
C767 H753 0.961 . S
C767 C766 1.502 . S
C768 H754 0.960 . S
C768 H755 0.961 . S
C768 H756 0.959 . S
C768 C766 1.561 . S
C769 C766 1.526 . S
C769 C770 1.396 . S
C769 C774 1.390 . S
C770 C764 1.465 . S
C770 C769 1.396 . S
C770 C771 1.399 . S
C771 H757 0.929 . S
C771 C770 1.399 . S
C771 C772 1.385 . S
C772 H758 0.931 . S
C772 C771 1.385 . S
C772 C773 1.389 . S
C773 C772 1.389 . S
C773 C774 1.387 . S
C774 H759 0.930 . S
C774 C769 1.390 . S
C774 C773 1.387 . S
H775 C787 0.930 . S
H776 C789 0.930 . S
H777 C790 0.930 . S
H778 C794 0.959 . S
H779 C794 0.959 . S
H780 C794 0.961 . S
H781 C795 0.960 . S
H782 C795 0.961 . S
H783 C795 0.959 . S
H784 C798 0.929 . S
H785 C799 0.931 . S
H786 C801 0.930 . S
C787 H775 0.930 . S
C787 C788 1.399 . S
C787 C792 1.399 . S
C788 C787 1.399 . S
C788 C789 1.376 . S
C789 H776 0.930 . S
C789 C788 1.376 . S
C789 C790 1.388 . S
C790 H777 0.930 . S
C790 C789 1.388 . S
C790 C791 1.390 . S
C791 C790 1.390 . S
C791 C792 1.394 . S
C791 C797 1.465 . S
C792 C787 1.399 . S
C792 C791 1.394 . S
C792 C793 1.516 . S
C793 C792 1.516 . S
C793 C794 1.502 . S
C793 C795 1.561 . S
C793 C796 1.526 . S
C794 H778 0.959 . S
C794 H779 0.959 . S
C794 H780 0.961 . S
C794 C793 1.502 . S
C795 H781 0.960 . S
C795 H782 0.961 . S
C795 H783 0.959 . S
C795 C793 1.561 . S
C796 C793 1.526 . S
C796 C797 1.396 . S
C796 C801 1.390 1_554 S
C797 C791 1.465 . S
C797 C796 1.396 . S
C797 C798 1.399 1_554 S
C798 H784 0.929 . S
C798 C797 1.399 1_556 S
C798 C799 1.385 . S
C799 H785 0.931 . S
C799 C798 1.385 . S
C799 C800 1.389 . S
C800 C799 1.389 . S
C800 C801 1.387 . S
C801 H786 0.930 . S
C801 C796 1.390 1_556 S
C801 C800 1.387 . S
H802 C814 0.930 . S
H803 C816 0.930 . S
H804 C817 0.930 . S
H805 C821 0.959 . S
H806 C821 0.959 . S
H807 C821 0.961 . S
H808 C822 0.960 . S
H809 C822 0.961 . S
H810 C822 0.959 . S
H811 C825 0.929 . S
H812 C826 0.931 . S
H813 C828 0.930 . S
C814 H802 0.930 . S
C814 C815 1.399 . S
C814 C819 1.399 . S
C815 C814 1.399 . S
C815 C816 1.376 . S
C816 H803 0.930 . S
C816 C815 1.376 . S
C816 C817 1.388 . S
C817 H804 0.930 . S
C817 C816 1.388 . S
C817 C818 1.390 . S
C818 C817 1.390 . S
C818 C819 1.394 . S
C818 C824 1.465 . S
C819 C814 1.399 . S
C819 C818 1.394 . S
C819 C820 1.516 . S
C820 C819 1.516 . S
C820 C821 1.502 . S
C820 C822 1.561 . S
C820 C823 1.526 . S
C821 H805 0.959 . S
C821 H806 0.959 . S
C821 H807 0.961 . S
C821 C820 1.502 . S
C822 H808 0.960 . S
C822 H809 0.961 . S
C822 H810 0.959 . S
C822 C820 1.561 . S
C823 C820 1.526 . S
C823 C824 1.396 . S
C823 C828 1.390 . S
C824 C818 1.465 . S
C824 C823 1.396 . S
C824 C825 1.399 . S
C825 H811 0.929 . S
C825 C824 1.399 . S
C825 C826 1.385 . S
C826 H812 0.931 . S
C826 C825 1.385 . S
C826 C827 1.389 . S
C827 C826 1.389 . S
C827 C828 1.387 . S
C828 H813 0.930 . S
C828 C823 1.390 . S
C828 C827 1.387 . S
H829 C841 0.930 . S
H830 C843 0.930 . S
H831 C844 0.930 . S
H832 C848 0.959 . S
H833 C848 0.959 . S
H834 C848 0.961 . S
H835 C849 0.960 . S
H836 C849 0.961 . S
H837 C849 0.959 . S
H838 C852 0.929 . S
H839 C853 0.931 . S
H840 C855 0.930 . S
C841 H829 0.930 . S
C841 C842 1.399 . S
C841 C846 1.399 . S
C842 C841 1.399 . S
C842 C843 1.376 . S
C843 H830 0.930 . S
C843 C842 1.376 . S
C843 C844 1.388 . S
C844 H831 0.930 . S
C844 C843 1.388 . S
C844 C845 1.390 . S
C845 C844 1.390 . S
C845 C846 1.394 . S
C845 C851 1.465 . S
C846 C841 1.399 . S
C846 C845 1.394 . S
C846 C847 1.516 . S
C847 C846 1.516 . S
C847 C848 1.502 . S
C847 C849 1.561 . S
C847 C850 1.526 . S
C848 H832 0.959 . S
C848 H833 0.959 . S
C848 H834 0.961 . S
C848 C847 1.502 . S
C849 H835 0.960 . S
C849 H836 0.961 . S
C849 H837 0.959 . S
C849 C847 1.561 . S
C850 C847 1.526 . S
C850 C851 1.396 . S
C850 C855 1.390 . S
C851 C845 1.465 . S
C851 C850 1.396 . S
C851 C852 1.399 . S
C852 H838 0.929 . S
C852 C851 1.399 . S
C852 C853 1.385 . S
C853 H839 0.931 . S
C853 C852 1.385 . S
C853 C854 1.389 . S
C854 C853 1.389 . S
C854 C855 1.387 . S
C855 H840 0.930 . S
C855 C850 1.390 . S
C855 C854 1.387 . S
H856 C868 0.930 . S
H857 C870 0.930 . S
H858 C871 0.930 . S
H859 C875 0.959 . S
H860 C875 0.959 . S
H861 C875 0.962 . S
H862 C876 0.960 1_556 S
H863 C876 0.961 . S
H864 C876 0.959 . S
H865 C879 0.929 . S
H866 C880 0.931 . S
H867 C882 0.930 . S
C868 H856 0.930 . S
C868 C869 1.399 . S
C868 C873 1.399 1_556 S
C869 C868 1.399 . S
C869 C870 1.376 . S
C870 H857 0.930 . S
C870 C869 1.376 . S
C870 C871 1.388 1_556 S
C871 H858 0.930 . S
C871 C870 1.388 1_554 S
C871 C872 1.390 . S
C872 C871 1.390 . S
C872 C873 1.394 . S
C872 C878 1.465 . S
C873 C868 1.399 1_554 S
C873 C872 1.394 . S
C873 C874 1.516 . S
C874 C873 1.516 . S
C874 C875 1.502 . S
C874 C876 1.561 . S
C874 C877 1.526 . S
C875 H859 0.959 . S
C875 H860 0.959 . S
C875 H861 0.962 . S
C875 C874 1.502 . S
C876 H862 0.960 1_554 S
C876 H863 0.961 . S
C876 H864 0.959 . S
C876 C874 1.561 . S
C877 C874 1.526 . S
C877 C878 1.396 . S
C877 C882 1.390 . S
C878 C872 1.465 . S
C878 C877 1.396 . S
C878 C879 1.399 . S
C879 H865 0.929 . S
C879 C878 1.399 . S
C879 C880 1.385 . S
C880 H866 0.931 . S
C880 C879 1.385 . S
C880 C881 1.389 . S
C881 C880 1.389 . S
C881 C882 1.387 . S
C882 H867 0.930 . S
C882 C877 1.390 . S
C882 C881 1.387 . S
H883 C895 0.930 . S
H884 C897 0.930 . S
H885 C898 0.930 . S
H886 C902 0.959 . S
H887 C902 0.959 . S
H888 C902 0.961 . S
H889 C903 0.960 . S
H890 C903 0.961 . S
H891 C903 0.959 . S
H892 C906 0.929 . S
H893 C907 0.931 . S
H894 C909 0.930 . S
C895 H883 0.930 . S
C895 C896 1.399 . S
C895 C900 1.399 . S
C896 C895 1.399 . S
C896 C897 1.376 . S
C897 H884 0.930 . S
C897 C896 1.376 . S
C897 C898 1.388 . S
C898 H885 0.930 . S
C898 C897 1.388 . S
C898 C899 1.390 . S
C899 C898 1.390 . S
C899 C900 1.394 . S
C899 C905 1.465 . S
C900 C895 1.399 . S
C900 C899 1.394 . S
C900 C901 1.516 . S
C901 C900 1.516 . S
C901 C902 1.502 . S
C901 C903 1.561 . S
C901 C904 1.526 . S
C902 H886 0.959 . S
C902 H887 0.959 . S
C902 H888 0.961 . S
C902 C901 1.502 . S
C903 H889 0.960 . S
C903 H890 0.961 . S
C903 H891 0.959 . S
C903 C901 1.561 . S
C904 C901 1.526 . S
C904 C905 1.396 . S
C904 C909 1.390 . S
C905 C899 1.465 . S
C905 C904 1.396 . S
C905 C906 1.399 . S
C906 H892 0.929 . S
C906 C905 1.399 . S
C906 C907 1.385 . S
C907 H893 0.931 . S
C907 C906 1.385 . S
C907 C908 1.389 . S
C908 C907 1.389 . S
C908 C909 1.387 . S
C909 H894 0.930 . S
C909 C904 1.390 . S
C909 C908 1.387 . S
H910 C922 0.930 . S
H911 C924 0.930 . S
H912 C925 0.930 . S
H913 C929 0.959 . S
H914 C929 0.959 . S
H915 C929 0.961 . S
H916 C930 0.960 . S
H917 C930 0.961 . S
H918 C930 0.959 . S
H919 C933 0.929 . S
H920 C934 0.931 . S
H921 C936 0.930 . S
C922 H910 0.930 . S
C922 C923 1.399 . S
C922 C927 1.399 . S
C923 C922 1.399 . S
C923 C924 1.376 . S
C924 H911 0.930 . S
C924 C923 1.376 . S
C924 C925 1.388 . S
C925 H912 0.930 . S
C925 C924 1.388 . S
C925 C926 1.390 . S
C926 C925 1.390 . S
C926 C927 1.394 . S
C926 C932 1.465 . S
C927 C922 1.399 . S
C927 C926 1.394 . S
C927 C928 1.516 . S
C928 C927 1.516 . S
C928 C929 1.502 . S
C928 C930 1.561 . S
C928 C931 1.526 . S
C929 H913 0.959 . S
C929 H914 0.959 . S
C929 H915 0.961 . S
C929 C928 1.502 . S
C930 H916 0.960 . S
C930 H917 0.961 . S
C930 H918 0.959 . S
C930 C928 1.561 . S
C931 C928 1.526 . S
C931 C932 1.396 . S
C931 C936 1.390 . S
C932 C926 1.465 . S
C932 C931 1.396 . S
C932 C933 1.399 . S
C933 H919 0.929 . S
C933 C932 1.399 . S
C933 C934 1.385 . S
C934 H920 0.931 . S
C934 C933 1.385 . S
C934 C935 1.389 . S
C935 C934 1.389 . S
C935 C936 1.387 . S
C936 H921 0.930 . S
C936 C931 1.390 . S
C936 C935 1.387 . S
H937 C949 0.930 . S
H938 C951 0.930 . S
H939 C952 0.930 . S
H940 C956 0.959 . S
H941 C956 0.959 . S
H942 C956 0.961 . S
H943 C957 0.960 . S
H944 C957 0.961 . S
H945 C957 0.959 . S
H946 C960 0.929 . S
H947 C961 0.931 . S
H948 C963 0.930 . S
C949 H937 0.930 . S
C949 C950 1.399 . S
C949 C954 1.399 . S
C950 C949 1.399 . S
C950 C951 1.376 . S
C951 H938 0.930 . S
C951 C950 1.376 . S
C951 C952 1.388 . S
C952 H939 0.930 . S
C952 C951 1.388 . S
C952 C953 1.390 . S
C953 C952 1.390 . S
C953 C954 1.394 . S
C953 C959 1.465 . S
C954 C949 1.399 . S
C954 C953 1.394 . S
C954 C955 1.516 . S
C955 C954 1.516 . S
C955 C956 1.502 . S
C955 C957 1.561 . S
C955 C958 1.526 . S
C956 H940 0.959 . S
C956 H941 0.959 . S
C956 H942 0.961 . S
C956 C955 1.502 . S
C957 H943 0.960 . S
C957 H944 0.961 . S
C957 H945 0.959 . S
C957 C955 1.561 . S
C958 C955 1.526 . S
C958 C959 1.396 . S
C958 C963 1.390 . S
C959 C953 1.465 . S
C959 C958 1.396 . S
C959 C960 1.399 . S
C960 H946 0.929 . S
C960 C959 1.399 . S
C960 C961 1.385 . S
C961 H947 0.931 . S
C961 C960 1.385 . S
C961 C962 1.389 . S
C962 C961 1.389 . S
C962 C963 1.387 . S
C963 H948 0.930 . S
C963 C958 1.390 . S
C963 C962 1.387 . S
H964 C976 0.930 . S
H965 C978 0.930 . S
H966 C979 0.930 . S
H967 C983 0.959 . S
H968 C983 0.959 . S
H969 C983 0.961 . S
H970 C984 0.960 . S
H971 C984 0.961 . S
H972 C984 0.959 . S
H973 C987 0.929 . S
H974 C988 0.931 . S
H975 C990 0.930 . S
C976 H964 0.930 . S
C976 C977 1.399 . S
C976 C981 1.399 . S
C977 C976 1.399 . S
C977 C978 1.376 . S
C978 H965 0.930 . S
C978 C977 1.376 . S
C978 C979 1.388 . S
C979 H966 0.930 . S
C979 C978 1.388 . S
C979 C980 1.390 . S
C980 C979 1.390 . S
C980 C981 1.394 . S
C980 C986 1.465 . S
C981 C976 1.399 . S
C981 C980 1.394 . S
C981 C982 1.516 . S
C982 C981 1.516 . S
C982 C983 1.502 . S
C982 C984 1.561 . S
C982 C985 1.526 . S
C983 H967 0.959 . S
C983 H968 0.959 . S
C983 H969 0.961 . S
C983 C982 1.502 . S
C984 H970 0.960 . S
C984 H971 0.961 . S
C984 H972 0.959 . S
C984 C982 1.561 . S
C985 C982 1.526 . S
C985 C986 1.396 . S
C985 C990 1.390 . S
C986 C980 1.465 . S
C986 C985 1.396 . S
C986 C987 1.399 . S
C987 H973 0.929 . S
C987 C986 1.399 . S
C987 C988 1.385 . S
C988 H974 0.931 . S
C988 C987 1.385 . S
C988 C989 1.389 . S
C989 C988 1.389 . S
C989 C990 1.387 . S
C990 H975 0.930 . S
C990 C985 1.390 . S
C990 C989 1.387 . S
H991 C1003 0.930 . S
H992 C1005 0.930 . S
H993 C1006 0.930 . S
H994 C1010 0.959 . S
H995 C1010 0.959 . S
H996 C1010 0.961 . S
H997 C1011 0.960 . S
H998 C1011 0.961 . S
H999 C1011 0.959 . S
H1000 C1014 0.929 . S
H1001 C1015 0.931 . S
H1002 C1017 0.930 . S
C1003 H991 0.930 . S
C1003 C1004 1.399 . S
C1003 C1008 1.399 . S
C1004 C1003 1.399 . S
C1004 C1005 1.376 . S
C1005 H992 0.930 . S
C1005 C1004 1.376 . S
C1005 C1006 1.388 . S
C1006 H993 0.930 . S
C1006 C1005 1.388 . S
C1006 C1007 1.390 . S
C1007 C1006 1.390 . S
C1007 C1008 1.394 . S
C1007 C1013 1.465 . S
C1008 C1003 1.399 . S
C1008 C1007 1.394 . S
C1008 C1009 1.516 . S
C1009 C1008 1.516 . S
C1009 C1010 1.502 . S
C1009 C1011 1.561 . S
C1009 C1012 1.526 . S
C1010 H994 0.959 . S
C1010 H995 0.959 . S
C1010 H996 0.961 . S
C1010 C1009 1.502 . S
C1011 H997 0.960 . S
C1011 H998 0.961 . S
C1011 H999 0.959 . S
C1011 C1009 1.561 . S
C1012 C1009 1.526 . S
C1012 C1013 1.396 . S
C1012 C1017 1.390 . S
C1013 C1007 1.465 . S
C1013 C1012 1.396 . S
C1013 C1014 1.399 . S
C1014 H1000 0.929 . S
C1014 C1013 1.399 . S
C1014 C1015 1.385 . S
C1015 H1001 0.931 . S
C1015 C1014 1.385 . S
C1015 C1016 1.389 . S
C1016 C1015 1.389 . S
C1016 C1017 1.387 . S
C1017 H1002 0.930 . S
C1017 C1012 1.390 . S
C1017 C1016 1.387 . S
H1018 C1030 0.930 . S
H1019 C1032 0.930 . S
H1020 C1033 0.930 . S
H1021 C1037 0.959 . S
H1022 C1037 0.959 . S
H1023 C1037 0.961 . S
H1024 C1038 0.960 . S
H1025 C1038 0.961 . S
H1026 C1038 0.959 . S
H1027 C1041 0.929 . S
H1028 C1042 0.931 . S
H1029 C1044 0.930 . S
C1030 H1018 0.930 . S
C1030 C1031 1.399 . S
C1030 C1035 1.399 . S
C1031 C1030 1.399 . S
C1031 C1032 1.376 . S
C1032 H1019 0.930 . S
C1032 C1031 1.376 . S
C1032 C1033 1.388 . S
C1033 H1020 0.930 . S
C1033 C1032 1.388 . S
C1033 C1034 1.390 . S
C1034 C1033 1.390 . S
C1034 C1035 1.394 . S
C1034 C1040 1.465 . S
C1035 C1030 1.399 . S
C1035 C1034 1.394 . S
C1035 C1036 1.516 . S
C1036 C1035 1.516 . S
C1036 C1037 1.502 . S
C1036 C1038 1.561 . S
C1036 C1039 1.526 . S
C1037 H1021 0.959 . S
C1037 H1022 0.959 . S
C1037 H1023 0.961 . S
C1037 C1036 1.502 . S
C1038 H1024 0.960 . S
C1038 H1025 0.961 . S
C1038 H1026 0.959 . S
C1038 C1036 1.561 . S
C1039 C1036 1.526 . S
C1039 C1040 1.396 . S
C1039 C1044 1.390 . S
C1040 C1034 1.465 . S
C1040 C1039 1.396 . S
C1040 C1041 1.399 . S
C1041 H1027 0.929 . S
C1041 C1040 1.399 . S
C1041 C1042 1.385 . S
C1042 H1028 0.931 . S
C1042 C1041 1.385 . S
C1042 C1043 1.389 . S
C1043 C1042 1.389 . S
C1043 C1044 1.387 . S
C1044 H1029 0.930 . S
C1044 C1039 1.390 . S
C1044 C1043 1.387 . S
H1045 C1057 0.930 . S
H1046 C1059 0.930 . S
H1047 C1060 0.930 . S
H1048 C1064 0.959 . S
H1049 C1064 0.959 1_556 S
H1050 C1064 0.961 . S
H1051 C1065 0.960 . S
H1052 C1065 0.961 . S
H1053 C1065 0.959 . S
H1054 C1068 0.929 . S
H1055 C1069 0.931 . S
H1056 C1071 0.930 . S
C1057 H1045 0.930 . S
C1057 C1058 1.399 . S
C1057 C1062 1.399 . S
C1058 C1057 1.399 . S
C1058 C1059 1.376 . S
C1059 H1046 0.930 . S
C1059 C1058 1.376 . S
C1059 C1060 1.388 . S
C1060 H1047 0.930 . S
C1060 C1059 1.388 . S
C1060 C1061 1.390 . S
C1061 C1060 1.390 . S
C1061 C1062 1.394 . S
C1061 C1067 1.465 . S
C1062 C1057 1.399 . S
C1062 C1061 1.394 . S
C1062 C1063 1.516 . S
C1063 C1062 1.516 . S
C1063 C1064 1.502 . S
C1063 C1065 1.561 . S
C1063 C1066 1.526 . S
C1064 H1048 0.959 . S
C1064 H1049 0.959 1_554 S
C1064 H1050 0.961 . S
C1064 C1063 1.502 . S
C1065 H1051 0.960 . S
C1065 H1052 0.961 . S
C1065 H1053 0.959 . S
C1065 C1063 1.561 . S
C1066 C1063 1.526 . S
C1066 C1067 1.396 . S
C1066 C1071 1.390 1_554 S
C1067 C1061 1.465 . S
C1067 C1066 1.396 . S
C1067 C1068 1.399 . S
C1068 H1054 0.929 . S
C1068 C1067 1.399 . S
C1068 C1069 1.385 1_554 S
C1069 H1055 0.931 . S
C1069 C1068 1.385 1_556 S
C1069 C1070 1.389 . S
C1070 C1069 1.389 . S
C1070 C1071 1.387 . S
C1071 H1056 0.930 . S
C1071 C1066 1.390 1_556 S
C1071 C1070 1.387 . S
C221 C83 2.031 . S
C233 C5 2.048 . S
C248 C96 2.065 . S
C260 C18 2.085 . S
C275 C31 2.078 . S
C287 C57 2.056 1_556 S
C302 C44 2.056 . S
C314 C70 2.037 . S
C329 C109 2.028 . S
C341 C187 2.040 1_556 S
C356 C200 2.028 . S
C368 C122 2.032 . S
C383 C135 2.033 . S
C395 C161 2.051 . S
C410 C148 2.069 . S
C422 C174 2.088 . S
C437 C10 1.947 . S
C449 C140 1.961 . S
C464 C23 1.986 . S
C476 C153 1.980 . S
C491 C36 1.938 . S
C503 C114 1.972 . S
C518 C49 1.933 . S
C530 C127 2.003 . S
C545 C62 1.998 . S
C557 C192 1.931 . S
C572 C205 1.940 . S
C584 C75 1.969 . S
C599 C88 1.947 . S
C611 C166 1.961 . S
C626 C179 1.945 . S
C638 C101 1.963 . S
C653 C170 0.449 . S
C665 C1 0.457 . S
C680 C14 0.449 . S
C692 C183 0.457 . S
C707 C196 0.461 . S
C719 C27 0.452 . S
C734 C157 0.440 . S
C746 C40 0.439 . S
C761 C144 0.469 . S
C773 C53 0.462 . S
C788 C66 0.464 . S
C800 C105 0.455 . S
C815 C79 0.472 . S
C827 C118 0.466 . S
C842 C92 0.460 . S
C854 C131 0.451 . S
C869 C172 1.846 . S
C881 C3 1.836 . S
C896 C16 1.829 . S
C908 C185 1.840 . S
C923 C29 1.841 . S
C935 C198 1.830 . S
C950 C159 1.835 . S
C962 C42 1.846 . S
C977 C146 1.831 . S
C989 C55 1.832 . S
C1004 C107 1.843 . S
C1016 C68 1.831 . S
C1031 C81 1.842 . S
C1043 C120 1.830 . S
C1058 C133 1.832 . S
C1070 C94 1.844 . S
