# Generated by pormake.
# Topology umd, (4)-cn, num edge types: 1
# Building blocks:
#     Node 0, Type 0, BuildingBlock: MUDLON_clean_sbu_0, # of connection points: 4
#     Node 1, Type 0, BuildingBlock: MUDLON_clean_sbu_0, # of connection points: 4
#     Node 2, Type 0, BuildingBlock: MUDLON_clean_sbu_0, # of connection points: 4
#     Node 3, Type 0, BuildingBlock: MUDLON_clean_sbu_0, # of connection points: 4
#     Node 4, Type 0, BuildingBlock: MUDLON_clean_sbu_0, # of connection points: 4
#     Node 5, Type 0, BuildingBlock: MUDLON_clean_sbu_0, # of connection points: 4
#     Node 6, Type 0, BuildingBlock: MUDLON_clean_sbu_0, # of connection points: 4
#     Node 7, Type 0, BuildingBlock: MUDLON_clean_sbu_0, # of connection points: 4
#     Node 8, Type 0, BuildingBlock: MUDLON_clean_sbu_0, # of connection points: 4
#     Node 9, Type 0, BuildingBlock: MUDLON_clean_sbu_0, # of connection points: 4
#     Node 10, Type 0, BuildingBlock: MUDLON_clean_sbu_0, # of connection points: 4
#     Node 11, Type 0, BuildingBlock: MUDLON_clean_sbu_0, # of connection points: 4
#     Node 12, Type 0, BuildingBlock: MUDLON_clean_sbu_0, # of connection points: 4
#     Node 13, Type 0, BuildingBlock: MUDLON_clean_sbu_0, # of connection points: 4
#     Node 14, Type 0, BuildingBlock: MUDLON_clean_sbu_0, # of connection points: 4
#     Node 15, Type 0, BuildingBlock: MUDLON_clean_sbu_0, # of connection points: 4
#     Edge 16, Type (0, 0), BuildingBlock: CIFDUS_clean_linker_0, # of connection points: 2
#     Edge 17, Type (0, 0), BuildingBlock: CIFDUS_clean_linker_0, # of connection points: 2
#     Edge 18, Type (0, 0), BuildingBlock: CIFDUS_clean_linker_0, # of connection points: 2
#     Edge 19, Type (0, 0), BuildingBlock: CIFDUS_clean_linker_0, # of connection points: 2
#     Edge 20, Type (0, 0), BuildingBlock: CIFDUS_clean_linker_0, # of connection points: 2
#     Edge 21, Type (0, 0), BuildingBlock: CIFDUS_clean_linker_0, # of connection points: 2
#     Edge 22, Type (0, 0), BuildingBlock: CIFDUS_clean_linker_0, # of connection points: 2
#     Edge 23, Type (0, 0), BuildingBlock: CIFDUS_clean_linker_0, # of connection points: 2
#     Edge 24, Type (0, 0), BuildingBlock: CIFDUS_clean_linker_0, # of connection points: 2
#     Edge 25, Type (0, 0), BuildingBlock: CIFDUS_clean_linker_0, # of connection points: 2
#     Edge 26, Type (0, 0), BuildingBlock: CIFDUS_clean_linker_0, # of connection points: 2
#     Edge 27, Type (0, 0), BuildingBlock: CIFDUS_clean_linker_0, # of connection points: 2
#     Edge 28, Type (0, 0), BuildingBlock: CIFDUS_clean_linker_0, # of connection points: 2
#     Edge 29, Type (0, 0), BuildingBlock: CIFDUS_clean_linker_0, # of connection points: 2
#     Edge 30, Type (0, 0), BuildingBlock: CIFDUS_clean_linker_0, # of connection points: 2
#     Edge 31, Type (0, 0), BuildingBlock: CIFDUS_clean_linker_0, # of connection points: 2
#     Edge 32, Type (0, 0), BuildingBlock: CIFDUS_clean_linker_0, # of connection points: 2
#     Edge 33, Type (0, 0), BuildingBlock: CIFDUS_clean_linker_0, # of connection points: 2
#     Edge 34, Type (0, 0), BuildingBlock: CIFDUS_clean_linker_0, # of connection points: 2
#     Edge 35, Type (0, 0), BuildingBlock: CIFDUS_clean_linker_0, # of connection points: 2
#     Edge 36, Type (0, 0), BuildingBlock: CIFDUS_clean_linker_0, # of connection points: 2
#     Edge 37, Type (0, 0), BuildingBlock: CIFDUS_clean_linker_0, # of connection points: 2
#     Edge 38, Type (0, 0), BuildingBlock: CIFDUS_clean_linker_0, # of connection points: 2
#     Edge 39, Type (0, 0), BuildingBlock: CIFDUS_clean_linker_0, # of connection points: 2
#     Edge 40, Type (0, 0), BuildingBlock: CIFDUS_clean_linker_0, # of connection points: 2
#     Edge 41, Type (0, 0), BuildingBlock: CIFDUS_clean_linker_0, # of connection points: 2
#     Edge 42, Type (0, 0), BuildingBlock: CIFDUS_clean_linker_0, # of connection points: 2
#     Edge 43, Type (0, 0), BuildingBlock: CIFDUS_clean_linker_0, # of connection points: 2
#     Edge 44, Type (0, 0), BuildingBlock: CIFDUS_clean_linker_0, # of connection points: 2
#     Edge 45, Type (0, 0), BuildingBlock: CIFDUS_clean_linker_0, # of connection points: 2
#     Edge 46, Type (0, 0), BuildingBlock: CIFDUS_clean_linker_0, # of connection points: 2
#     Edge 47, Type (0, 0), BuildingBlock: CIFDUS_clean_linker_0, # of connection points: 2
# Relax obj value: 0.014
# Max RMSD: 0.191
# Mean RMSD: 0.191
data_MOF--net-umd--node1-MUDLON_clean_sbu_0--edge1-CIFDUS_clean_linker_0
_symmetry_space_group_name_H-M    P1
_symmetry_Int_Tables_number       1
_symmetry_cell_setting            triclinic
loop_
_symmetry_equiv_pos_as_xyz
'x, y, z'
_cell_length_a     36.216837
_cell_length_b     36.288772
_cell_length_c     52.551282
_cell_angle_alpha  89.607746
_cell_angle_beta   90.086224
_cell_angle_gamma 89.709567
loop_
_atom_site_label
_atom_site_type_symbol
_atom_site_fract_x
_atom_site_fract_y
_atom_site_fract_z
_atom_type_partial_charge
Mg0 Mg 0.1934 0.46769 0.15192 0.0
C1 C 0.22207 0.48092 0.09828 0.0
O2 O 0.23869 0.44945 0.10324 0.0
C3 C 0.20986 0.47371 0.20644 0.0
O4 O 0.20312 0.43856 0.20293 0.0
C5 C 0.25901 0.4231 0.15672 0.0
O6 O 0.26859 0.45765 0.15994 0.0
O7 O 0.22519 0.41625 0.1522 0.0
O8 O 0.20368 0.49654 0.11586 0.0
O9 O 0.1334 0.46589 0.15392 0.0
C10 C 0.12053 0.49832 0.15698 0.0
O11 O 0.14401 0.52568 0.15878 0.0
O12 O 0.20882 0.49532 0.18723 0.0
Mg13 Mg 0.55429 0.18674 0.64799 0.0
C14 C 0.54369 0.17418 0.59433 0.0
O15 O 0.5655 0.14775 0.60277 0.0
C16 C 0.53986 0.20045 0.70207 0.0
O17 O 0.57242 0.18431 0.70206 0.0
C18 C 0.61995 0.23631 0.65918 0.0
O19 O 0.59655 0.25095 0.67533 0.0
O20 O 0.61011 0.20862 0.64618 0.0
O21 O 0.53152 0.19762 0.61019 0.0
O22 O 0.55408 0.12732 0.65296 0.0
C23 C 0.52268 0.11174 0.65332 0.0
O24 O 0.49281 0.13227 0.6513 0.0
O25 O 0.52418 0.2072 0.68083 0.0
Mg26 Mg 0.8286 0.55413 0.15208 0.0
C27 C 0.79168 0.53598 0.10203 0.0
O28 O 0.77417 0.56684 0.10715 0.0
C29 C 0.80442 0.50504 0.19801 0.0
O30 O 0.8113 0.47702 0.18301 0.0
C31 C 0.79054 0.6275 0.16086 0.0
O32 O 0.78527 0.61205 0.18323 0.0
O33 O 0.81001 0.61057 0.14449 0.0
O34 O 0.81283 0.52197 0.11891 0.0
O35 O 0.88835 0.54731 0.15389 0.0
C36 C 0.90009 0.51446 0.15092 0.0
O37 O 0.87594 0.4882 0.14699 0.0
O38 O 0.80772 0.53765 0.18936 0.0
Mg39 Mg 0.45405 0.82101 0.64787 0.0
C40 C 0.46597 0.79273 0.5944 0.0
O41 O 0.43771 0.77215 0.60081 0.0
C42 C 0.47389 0.80498 0.70129 0.0
O43 O 0.43766 0.8067 0.70206 0.0
C44 C 0.41393 0.75249 0.65668 0.0
O45 O 0.44891 0.7438 0.6599 0.0
O46 O 0.40574 0.78565 0.65094 0.0
O47 O 0.47999 0.81392 0.61094 0.0
O48 O 0.44481 0.87995 0.65078 0.0
C49 C 0.4754 0.89702 0.65186 0.0
O50 O 0.50613 0.87763 0.65122 0.0
O51 O 0.48997 0.80861 0.67992 0.0
Mg52 Mg 0.17811 0.55724 0.39727 0.0
C53 C 0.1794 0.51104 0.44576 0.0
O54 O 0.14667 0.50168 0.43726 0.0
C55 C 0.21263 0.50754 0.35599 0.0
O56 O 0.21464 0.48303 0.37447 0.0
C57 C 0.20618 0.63421 0.38476 0.0
O58 O 0.20883 0.62023 0.36183 0.0
O59 O 0.19212 0.61482 0.40246 0.0
O60 O 0.19998 0.5309 0.43169 0.0
O61 O 0.11877 0.54831 0.39603 0.0
C62 C 0.10711 0.51872 0.38601 0.0
O63 O 0.13117 0.49554 0.37634 0.0
O64 O 0.20038 0.53959 0.3608 0.0
Mg65 Mg 0.45711 0.18436 0.90031 0.0
C66 C 0.47019 0.22764 0.94863 0.0
O67 O 0.44462 0.24881 0.93834 0.0
C68 C 0.46853 0.19795 0.8449 0.0
O69 O 0.43544 0.18326 0.84513 0.0
C70 C 0.39171 0.23344 0.88935 0.0
O71 O 0.41675 0.24925 0.87496 0.0
O72 O 0.40028 0.20437 0.90171 0.0
O73 O 0.48273 0.20063 0.93594 0.0
O74 O 0.46242 0.12478 0.89972 0.0
C75 C 0.49527 0.11344 0.90359 0.0
O76 O 0.52121 0.13793 0.9076 0.0
O77 O 0.48498 0.20326 0.86598 0.0
Mg78 Mg 0.81758 0.45643 0.39667 0.0
C79 C 0.78023 0.47549 0.44665 0.0
O80 O 0.76406 0.44378 0.44249 0.0
C81 C 0.80142 0.5047 0.34974 0.0
O82 O 0.81475 0.53084 0.36422 0.0
C83 C 0.78606 0.38008 0.38734 0.0
O84 O 0.78636 0.39185 0.36364 0.0
O85 O 0.79967 0.40036 0.40457 0.0
O86 O 0.80044 0.4893 0.42928 0.0
O87 O 0.8773 0.46281 0.39558 0.0
C88 C 0.88913 0.49423 0.40238 0.0
O89 O 0.86516 0.51927 0.4097 0.0
O90 O 0.7975 0.47253 0.35903 0.0
Mg91 Mg 0.56179 0.82493 0.8985 0.0
C92 C 0.52451 0.81597 0.94974 0.0
O93 O 0.51495 0.85031 0.94502 0.0
C94 C 0.55005 0.81619 0.84291 0.0
O95 O 0.57924 0.83754 0.84341 0.0
C96 C 0.63272 0.78587 0.88552 0.0
O97 O 0.61036 0.77 0.86929 0.0
O98 O 0.62041 0.81181 0.89931 0.0
O99 O 0.54153 0.79798 0.9327 0.0
O100 O 0.55073 0.88379 0.90002 0.0
C101 C 0.5187 0.89475 0.89331 0.0
O102 O 0.4944 0.87022 0.88597 0.0
O103 O 0.53632 0.80513 0.86385 0.0
Mg104 Mg 0.82629 0.56363 0.89929 0.0
C105 C 0.81646 0.52863 0.95241 0.0
O106 O 0.84812 0.51265 0.9471 0.0
C107 C 0.81473 0.54592 0.8455 0.0
O108 O 0.82509 0.58055 0.84517 0.0
C109 C 0.79495 0.64229 0.90449 0.0
O110 O 0.80093 0.63721 0.92893 0.0
O111 O 0.80476 0.6175 0.88892 0.0
O112 O 0.80105 0.549 0.93565 0.0
O113 O 0.88608 0.56293 0.90201 0.0
C114 C 0.90243 0.53215 0.89901 0.0
O115 O 0.8825 0.50261 0.89496 0.0
O116 O 0.81193 0.52942 0.86688 0.0
Mg117 Mg 0.42984 0.82473 0.39221 0.0
C118 C 0.46645 0.81574 0.44437 0.0
O119 O 0.48329 0.84626 0.43764 0.0
C120 C 0.45034 0.80603 0.33956 0.0
O121 O 0.41536 0.81528 0.3373 0.0
C122 C 0.35275 0.79369 0.39984 0.0
O123 O 0.36212 0.79644 0.42391 0.0
O124 O 0.37472 0.80568 0.3829 0.0
O125 O 0.44446 0.80062 0.42878 0.0
O126 O 0.43453 0.88441 0.39351 0.0
C127 C 0.46567 0.89827 0.38774 0.0
O128 O 0.49289 0.87608 0.38144 0.0
O129 O 0.46506 0.80622 0.36154 0.0
Mg130 Mg 0.19485 0.45688 0.8948 0.0
C131 C 0.20071 0.49101 0.94814 0.0
O132 O 0.16753 0.50355 0.94269 0.0
C133 C 0.20372 0.47459 0.84057 0.0
O134 O 0.19549 0.43938 0.841 0.0
C135 C 0.22945 0.37968 0.90175 0.0
O136 O 0.22093 0.38416 0.92583 0.0
O137 O 0.21994 0.40418 0.88561 0.0
O138 O 0.21857 0.47332 0.93127 0.0
O139 O 0.13509 0.45474 0.89772 0.0
C140 C 0.1181 0.48525 0.89474 0.0
O141 O 0.13743 0.51513 0.89024 0.0
O142 O 0.20652 0.4915 0.86166 0.0
Mg143 Mg 0.56428 0.18154 0.39066 0.0
C144 C 0.56085 0.16253 0.44409 0.0
O145 O 0.58339 0.1387 0.43347 0.0
C146 C 0.54445 0.20776 0.33974 0.0
O147 O 0.57993 0.20038 0.33832 0.0
C148 C 0.6362 0.22224 0.40217 0.0
O149 O 0.62251 0.22289 0.4253 0.0
O150 O 0.61872 0.20539 0.38481 0.0
O151 O 0.54695 0.18792 0.43022 0.0
O152 O 0.56218 0.12255 0.3839 0.0
C153 C 0.53045 0.10856 0.38752 0.0
O154 O 0.5031 0.13046 0.39405 0.0
O155 O 0.52851 0.20435 0.3612 0.0
Mg156 Mg 0.81758 0.45558 0.64878 0.0
C157 C 0.80631 0.49021 0.59573 0.0
O158 O 0.83882 0.50465 0.60026 0.0
C159 C 0.80833 0.47266 0.703 0.0
O160 O 0.81712 0.4375 0.70298 0.0
C161 C 0.7834 0.37898 0.64271 0.0
O162 O 0.78849 0.38539 0.61833 0.0
O163 O 0.7952 0.40208 0.65882 0.0
O164 O 0.79076 0.47122 0.61307 0.0
O165 O 0.87724 0.45573 0.64427 0.0
C166 C 0.89368 0.48619 0.64788 0.0
O167 O 0.87393 0.51531 0.65393 0.0
O168 O 0.80543 0.48956 0.68175 0.0
Mg169 Mg 0.56555 0.82721 0.15124 0.0
C170 C 0.54392 0.79307 0.09879 0.0
O171 O 0.56211 0.76333 0.10592 0.0
C172 C 0.54357 0.80459 0.20291 0.0
O173 O 0.57937 0.80923 0.20523 0.0
C174 C 0.6413 0.78751 0.14122 0.0
O175 O 0.63673 0.79641 0.11715 0.0
O176 O 0.61757 0.79795 0.15751 0.0
O177 O 0.54161 0.82029 0.11379 0.0
O178 O 0.56756 0.88661 0.15597 0.0
C179 C 0.53609 0.90194 0.15314 0.0
O180 O 0.50752 0.88105 0.14807 0.0
O181 O 0.52883 0.80895 0.18112 0.0
Mg182 Mg 0.18517 0.55977 0.64165 0.0
C183 C 0.2242 0.54461 0.59131 0.0
O184 O 0.24659 0.56984 0.60015 0.0
C185 C 0.19737 0.54583 0.69662 0.0
O186 O 0.18832 0.58093 0.69587 0.0
C187 C 0.24753 0.60915 0.65201 0.0
O188 O 0.25993 0.57636 0.65864 0.0
O189 O 0.21462 0.61195 0.64369 0.0
O190 O 0.19778 0.53348 0.6053 0.0
O191 O 0.12543 0.56473 0.64286 0.0
C192 C 0.10872 0.53412 0.64075 0.0
O193 O 0.12851 0.50401 0.63777 0.0
O194 O 0.19933 0.52821 0.67577 0.0
Mg195 Mg 0.44819 0.19007 0.14527 0.0
C196 C 0.49302 0.18682 0.09602 0.0
O197 O 0.50566 0.15627 0.10643 0.0
C198 C 0.46324 0.2085 0.19917 0.0
O199 O 0.42797 0.20025 0.19965 0.0
C200 C 0.39911 0.25245 0.15037 0.0
O201 O 0.43293 0.26537 0.15119 0.0
O202 O 0.39489 0.21789 0.14784 0.0
O203 O 0.47076 0.20688 0.10858 0.0
O204 O 0.44734 0.13005 0.14696 0.0
C205 C 0.47696 0.11454 0.15474 0.0
O206 O 0.50466 0.13536 0.16183 0.0
O207 O 0.48017 0.20778 0.17797 0.0
H208 H 0.06311 0.45066 0.14938 0.0
H209 H 0.08751 0.56429 0.16614 0.0
H210 H 0.02201 0.57931 0.16592 0.0
H211 H 0.95752 0.56082 0.16027 0.0
H212 H 0.93258 0.44739 0.14344 0.0
H213 H 0.99816 0.4319 0.14438 0.0
C214 C 0.05406 0.47865 0.15308 0.0
C215 C 0.08032 0.50623 0.1577 0.0
C216 C 0.0161 0.4873 0.15284 0.0
C217 C 0.06804 0.54241 0.16244 0.0
C218 C 0.03048 0.55114 0.16232 0.0
C219 C 0.96641 0.53271 0.15682 0.0
C220 C 0.94007 0.50542 0.15174 0.0
C221 C 1.00425 0.52389 0.15739 0.0
C222 C 0.95217 0.46907 0.14738 0.0
C223 C 0.98975 0.46011 0.14791 0.0
H224 H 0.53691 0.93863 0.65552 0.0
H225 H 0.41813 0.94696 0.6511 0.0
H226 H 0.42231 0.01428 0.65189 0.0
H227 H 0.45997 0.0706 0.65274 0.0
H228 H 0.57879 0.06142 0.65679 0.0
H229 H 0.57421 0.99438 0.6573 0.0
C230 C 0.51184 0.95507 0.65477 0.0
C231 C 0.47723 0.93773 0.65315 0.0
C232 C 0.51448 0.99358 0.65515 0.0
C233 C 0.4451 0.95958 0.65232 0.0
C234 C 0.4475 0.99806 0.65275 0.0
C235 C 0.48488 0.05397 0.65383 0.0
C236 C 0.5197 0.07109 0.65466 0.0
C237 C 0.48207 0.01535 0.654 0.0
C238 C 0.55166 0.04904 0.6561 0.0
C239 C 0.54908 0.01068 0.65637 0.0
H240 H 0.05065 0.55837 0.40655 0.0
H241 H 0.07434 0.45728 0.3668 0.0
H242 H 0.00931 0.44029 0.36871 0.0
H243 H 0.94548 0.454 0.38179 0.0
H244 H 0.92213 0.55546 0.42122 0.0
H245 H 0.9871 0.57219 0.41937 0.0
C246 C 0.04161 0.53267 0.39824 0.0
C247 C 0.0674 0.50919 0.38656 0.0
C248 C 1.00415 0.52298 0.39942 0.0
C249 C 0.05512 0.47594 0.37591 0.0
C250 C 0.0179 0.46613 0.37702 0.0
C251 C 0.95465 0.47969 0.39005 0.0
C252 C 0.92892 0.50336 0.40163 0.0
C253 C 0.99216 0.48938 0.38879 0.0
C254 C 0.94126 0.53668 0.41213 0.0
C255 C 0.97847 0.54635 0.4111 0.0
H256 H 0.5624 0.95256 0.90624 0.0
H257 H 0.45172 0.92586 0.88225 0.0
H258 H 0.43439 0.99087 0.88365 0.0
H259 H 0.45069 0.05559 0.89147 0.0
H260 H 0.56168 0.08198 0.915 0.0
H261 H 0.57866 0.01699 0.91401 0.0
C262 C 0.53448 0.96093 0.90132 0.0
C263 C 0.50846 0.93431 0.89416 0.0
C264 C 0.52466 0.9984 0.90209 0.0
C265 C 0.47239 0.94572 0.88782 0.0
C266 C 0.46239 0.98294 0.88863 0.0
C267 C 0.47855 0.04711 0.89644 0.0
C268 C 0.50481 0.0737 0.9033 0.0
C269 C 0.4883 0.00956 0.89572 0.0
C270 C 0.54085 0.06218 0.90961 0.0
C271 C 0.55066 0.02495 0.90906 0.0
H272 H 0.94456 0.46994 0.89874 0.0
H273 H 0.95207 0.58862 0.9 0.0
H274 H 0.01937 0.58438 0.89895 0.0
H275 H 0.07593 0.54713 0.89685 0.0
H276 H 0.06869 0.42844 0.89639 0.0
H277 H 1.00133 0.43258 0.89799 0.0
C278 C 0.96089 0.4949 0.89882 0.0
C279 C 0.94325 0.52956 0.89933 0.0
C280 C 0.99959 0.49227 0.89832 0.0
C281 C 0.96489 0.5616 0.89961 0.0
C282 C 1.00339 0.5592 0.89896 0.0
C283 C 0.05966 0.52212 0.8971 0.0
C284 C 0.07734 0.48752 0.89636 0.0
C285 C 0.02101 0.52471 0.89817 0.0
C286 C 0.0558 0.45542 0.89693 0.0
C287 C 0.01727 0.45777 0.89781 0.0
H288 H 0.46669 0.07169 0.39637 0.0
H289 H 0.5804 0.05493 0.37457 0.0
H290 H 0.57016 0.98846 0.37251 0.0
H291 H 0.52913 0.93519 0.37741 0.0
H292 H 0.41558 0.95216 0.39959 0.0
H293 H 0.42565 0.01861 0.401 0.0
C294 C 0.48928 0.05357 0.39109 0.0
C295 C 0.52429 0.06833 0.38562 0.0
C296 C 0.48324 0.01543 0.39007 0.0
C297 C 0.55318 0.04435 0.37886 0.0
C298 C 0.54735 0.00633 0.37771 0.0
C299 C 0.50652 0.95338 0.38253 0.0
C300 C 0.47162 0.93863 0.3884 0.0
C301 C 0.51252 0.99157 0.38336 0.0
C302 C 0.44271 0.96269 0.39499 0.0
C303 C 0.44844 1.00072 0.3958 0.0
H304 H 0.9355 0.54792 0.65205 0.0
H305 H 0.94329 0.43105 0.63797 0.0
H306 H 0.01031 0.43587 0.63427 0.0
H307 H 0.0666 0.473 0.63544 0.0
H308 H 0.05907 0.58991 0.64937 0.0
H309 H 0.9919 0.58529 0.65266 0.0
C310 C 0.95181 0.52346 0.64816 0.0
C311 C 0.93432 0.48913 0.64534 0.0
C312 C 0.99035 0.52644 0.64602 0.0
C313 C 0.95596 0.4578 0.64023 0.0
C314 C 0.99432 0.46053 0.63812 0.0
C315 C 0.05033 0.49755 0.63916 0.0
C316 C 0.06792 0.53177 0.64219 0.0
C317 C 0.01178 0.49468 0.64104 0.0
C318 C 0.0463 0.56324 0.64695 0.0
C319 C 0.00788 0.5606 0.64886 0.0
H320 H 0.53942 0.07512 0.16459 0.0
H321 H 0.42483 0.06259 0.14373 0.0
H322 H 0.43314 0.99578 0.1418 0.0
H323 H 0.47307 0.94123 0.14533 0.0
H324 H 0.58794 0.9537 0.16543 0.0
H325 H 0.57932 0.02044 0.16833 0.0
C326 C 0.51616 0.05782 0.15972 0.0
C327 C 0.48149 0.07392 0.15433 0.0
C328 C 0.52123 0.01947 0.15843 0.0
C329 C 0.45178 0.051 0.14795 0.0
C330 C 0.45653 0.01278 0.14683 0.0
C331 C 0.49628 0.95846 0.1504 0.0
C332 C 0.53115 0.94241 0.15515 0.0
C333 C 0.49116 0.99677 0.15191 0.0
C334 C 0.56085 0.96528 0.16165 0.0
C335 C 0.55592 1.00345 0.16332 0.0
H336 H 0.21049 0.55137 0.31353 0.0
H337 H 0.2296 0.43904 0.33808 0.0
H338 H 0.23313 0.41943 0.29385 0.0
H339 H 0.22578 0.43311 0.24845 0.0
H340 H 0.20627 0.54502 0.22342 0.0
H341 H 0.20829 0.5659 0.26764 0.0
C342 C 0.21582 0.52264 0.30924 0.0
C343 C 0.21938 0.49666 0.3292 0.0
C344 C 0.21754 0.51144 0.28368 0.0
C345 C 0.22658 0.45963 0.3232 0.0
C346 C 0.22849 0.44834 0.29787 0.0
C347 C 0.22224 0.46215 0.2526 0.0
C348 C 0.21546 0.48742 0.23267 0.0
C349 C 0.2232 0.47385 0.278 0.0
C350 C 0.21146 0.52499 0.23839 0.0
C351 C 0.21246 0.5369 0.26369 0.0
H352 H 0.5713 0.20667 0.74859 0.0
H353 H 0.46574 0.20842 0.71045 0.0
H354 H 0.4342 0.21027 0.75158 0.0
H355 H 0.43677 0.20579 0.79834 0.0
H356 H 0.54248 0.20541 0.83635 0.0
H357 H 0.57386 0.20894 0.79527 0.0
C358 C 0.54138 0.20786 0.74928 0.0
C359 C 0.52085 0.20696 0.72654 0.0
C360 C 0.52351 0.20893 0.77295 0.0
C361 C 0.48215 0.20906 0.72769 0.0
C362 C 0.46412 0.20991 0.7512 0.0
C363 C 0.46667 0.20684 0.79763 0.0
C364 C 0.48729 0.20486 0.82034 0.0
C365 C 0.48452 0.20898 0.77395 0.0
C366 C 0.52598 0.20681 0.81915 0.0
C367 C 0.54395 0.20867 0.79566 0.0
H368 H 0.80035 0.55698 0.23507 0.0
H369 H 0.79337 0.43964 0.22314 0.0
H370 H 0.78836 0.42948 0.26902 0.0
H371 H 0.79088 0.45351 0.31266 0.0
H372 H 0.80085 0.57067 0.32442 0.0
H373 H 0.79946 0.58123 0.2785 0.0
C374 C 0.79731 0.52917 0.24243 0.0
C375 C 0.79744 0.4991 0.22559 0.0
C376 C 0.79517 0.52346 0.26887 0.0
C377 C 0.79351 0.46329 0.23559 0.0
C378 C 0.79071 0.45745 0.26186 0.0
C379 C 0.79223 0.48142 0.30522 0.0
C380 C 0.79611 0.51125 0.32204 0.0
C381 C 0.79222 0.48726 0.27871 0.0
C382 C 0.798 0.54718 0.31198 0.0
C383 C 0.79728 0.55325 0.28568 0.0
H384 H 0.5793 0.8235 0.79564 0.0
H385 H 0.48087 0.78886 0.83516 0.0
H386 H 0.44946 0.77978 0.79453 0.0
H387 H 0.44855 0.78607 0.74803 0.0
H388 H 0.54706 0.82013 0.7084 0.0
H389 H 0.58003 0.82462 0.74887 0.0
C390 C 0.55105 0.81373 0.79536 0.0
C391 C 0.5323 0.80727 0.81838 0.0
C392 C 0.53318 0.80853 0.77194 0.0
C393 C 0.49589 0.79412 0.81771 0.0
C394 C 0.47788 0.78903 0.79449 0.0
C395 C 0.47734 0.79415 0.74822 0.0
C396 C 0.49521 0.80314 0.72527 0.0
C397 C 0.49604 0.7968 0.77153 0.0
C398 C 0.53265 0.81311 0.7258 0.0
C399 C 0.55146 0.81586 0.74894 0.0
H400 H 0.80853 0.57669 0.79855 0.0
H401 H 0.80781 0.47169 0.83765 0.0
H402 H 0.80363 0.43994 0.79683 0.0
H403 H 0.80407 0.44204 0.75012 0.0
H404 H 0.80482 0.54709 0.71107 0.0
H405 H 0.80483 0.57889 0.75195 0.0
C406 C 0.80726 0.54684 0.79819 0.0
C407 C 0.80885 0.52655 0.82113 0.0
C408 C 0.80498 0.52884 0.7747 0.0
C409 C 0.80672 0.48794 0.8203 0.0
C410 C 0.80444 0.46979 0.79696 0.0
C411 C 0.80401 0.47192 0.75051 0.0
C412 C 0.80479 0.49217 0.72754 0.0
C413 C 0.80416 0.48996 0.77405 0.0
C414 C 0.80428 0.53084 0.72843 0.0
C415 C 0.80441 0.54903 0.7518 0.0
H416 H 0.42599 0.80178 0.29085 0.0
H417 H 0.52509 0.79562 0.3365 0.0
H418 H 0.5625 0.79145 0.29798 0.0
H419 H 0.56728 0.79465 0.25149 0.0
H420 H 0.46821 0.80225 0.20589 0.0
H421 H 0.43052 0.8004 0.24436 0.0
C422 C 0.45575 0.7992 0.29242 0.0
C423 C 0.47274 0.7994 0.31652 0.0
C424 C 0.47709 0.79723 0.27023 0.0
C425 C 0.51131 0.79568 0.3182 0.0
C426 C 0.53273 0.7934 0.29617 0.0
C427 C 0.53742 0.79554 0.24991 0.0
C428 C 0.52061 0.79897 0.22585 0.0
C429 C 0.51595 0.79493 0.2721 0.0
C430 C 0.48188 0.79977 0.22417 0.0
C431 C 0.4603 0.79883 0.24617 0.0
H432 H 0.20871 0.44364 0.79392 0.0
H433 H 0.20568 0.54909 0.83138 0.0
H434 H 0.20523 0.58042 0.78997 0.0
H435 H 0.20204 0.5776 0.74324 0.0
H436 H 0.20514 0.47193 0.70601 0.0
H437 H 0.2094 0.44093 0.74733 0.0
C438 C 0.20816 0.47351 0.79308 0.0
C439 C 0.20691 0.49399 0.81575 0.0
C440 C 0.20777 0.49126 0.76926 0.0
C441 C 0.20662 0.53266 0.81426 0.0
C442 C 0.20622 0.55057 0.79058 0.0
C443 C 0.20384 0.54778 0.74412 0.0
C444 C 0.20294 0.5271 0.72151 0.0
C445 C 0.20621 0.53012 0.76797 0.0
C446 C 0.20568 0.48852 0.72306 0.0
C447 C 0.20803 0.47076 0.7467 0.0
H448 H 0.57192 0.21875 0.2924 0.0
H449 H 0.46925 0.21149 0.33371 0.0
H450 H 0.43487 0.214 0.29362 0.0
H451 H 0.43442 0.21266 0.24685 0.0
H452 H 0.53743 0.21839 0.20576 0.0
H453 H 0.57123 0.22224 0.24588 0.0
C454 C 0.54199 0.21811 0.29271 0.0
C455 C 0.52321 0.21455 0.31604 0.0
C456 C 0.52249 0.21899 0.26963 0.0
C457 C 0.48441 0.21412 0.31605 0.0
C458 C 0.46475 0.21538 0.29311 0.0
C459 C 0.46425 0.21509 0.24662 0.0
C460 C 0.48338 0.21484 0.2233 0.0
C461 C 0.48356 0.21692 0.26978 0.0
C462 C 0.522 0.21834 0.2234 0.0
C463 C 0.54137 0.22047 0.24635 0.0
H464 H 0.17146 0.52863 0.98821 0.0
H465 H 0.26075 0.45514 0.96813 0.0
H466 H 0.27771 0.44879 1.01288 0.0
H467 H 0.26303 0.45857 0.05791 0.0
H468 H 0.1737 0.53174 0.07826 0.0
H469 H 0.16138 0.54414 0.03326 0.0
C470 C 0.19497 0.51164 0.99357 0.0
C471 C 0.21445 0.49203 0.97478 0.0
C472 C 0.20448 0.50786 1.01944 0.0
C473 C 0.24509 0.47044 0.98211 0.0
C474 C 0.25477 0.46666 1.00776 0.0
C475 C 0.24122 0.47769 0.05254 0.0
C476 C 0.21905 0.49382 0.07148 0.0
C477 C 0.23402 0.4844 0.02662 0.0
C478 C 0.19118 0.51885 0.06414 0.0
C479 C 0.18395 0.52579 0.03837 0.0
H480 H 0.53508 0.21522 0.4773 0.0
H481 H 0.56821 0.10096 0.47256 0.0
H482 H 0.56169 0.09392 0.51827 0.0
H483 H 0.55223 0.12082 0.55979 0.0
H484 H 0.52116 0.23516 0.56655 0.0
H485 H 0.52049 0.24141 0.51995 0.0
C486 C 0.54038 0.18875 0.48631 0.0
C487 C 0.55262 0.1588 0.47155 0.0
C488 C 0.53709 0.1849 0.51297 0.0
C489 C 0.55933 0.12462 0.48347 0.0
C490 C 0.55553 0.12048 0.50965 0.0
C491 C 0.54495 0.1471 0.55113 0.0
C492 C 0.53721 0.17757 0.56658 0.0
C493 C 0.54535 0.15058 0.52461 0.0
C494 C 0.52727 0.21126 0.55504 0.0
C495 C 0.52714 0.21488 0.5284 0.0
H496 H 0.75247 0.5613 0.06123 0.0
H497 H 0.8366 0.48218 0.08253 0.0
H498 H 0.84925 0.47018 0.03773 0.0
H499 H 0.84175 0.48779 0.99269 0.0
H500 H 0.75821 0.56769 0.97161 0.0
H501 H 0.73995 0.57343 1.01605 0.0
C502 C 0.77312 0.54092 0.05612 0.0
C503 C 0.79386 0.52308 0.0753 0.0
C504 C 0.78073 0.53458 0.03029 0.0
C505 C 0.82029 0.4965 0.06824 0.0
C506 C 0.82773 0.48976 0.04257 0.0
C507 C 0.8192 0.50608 0.99774 0.0
C508 C 0.8018 0.52765 0.97879 0.0
C509 C 0.80899 0.50955 0.02345 0.0
C510 C 0.77233 0.55091 0.98574 0.0
C511 C 0.76189 0.55431 1.01121 0.0
H512 H 0.44057 0.75275 0.55458 0.0
H513 H 0.51533 0.84087 0.57321 0.0
H514 H 0.52502 0.85342 0.52802 0.0
H515 H 0.50682 0.84392 0.48345 0.0
H516 H 0.43091 0.75658 0.46513 0.0
H517 H 0.42745 0.73909 0.50991 0.0
C518 C 0.45941 0.77437 0.5488 0.0
C519 C 0.47676 0.79614 0.5673 0.0
C520 C 0.46442 0.78185 0.52279 0.0
C521 C 0.5014 0.82379 0.55941 0.0
C522 C 0.50685 0.83112 0.53354 0.0
C523 C 0.48991 0.82074 0.48919 0.0
C524 C 0.46877 0.80197 0.47095 0.0
C525 C 0.48764 0.81105 0.51508 0.0
C526 C 0.44725 0.77177 0.47875 0.0
C527 C 0.44517 0.76175 0.50439 0.0
H528 H 0.23823 0.53823 0.47212 0.0
H529 H 0.1402 0.47229 0.48122 0.0
H530 H 0.14774 0.47338 0.52733 0.0
H531 H 0.17761 0.4995 0.56513 0.0
H532 H 0.27474 0.56676 0.55594 0.0
H533 H 0.27224 0.55832 0.50999 0.0
C534 C 0.2189 0.52347 0.48413 0.0
C535 C 0.1884 0.50564 0.47313 0.0
C536 C 0.22296 0.52478 0.51074 0.0
C537 C 0.16376 0.48654 0.48909 0.0
C538 C 0.16796 0.48725 0.51553 0.0
C539 C 0.19861 0.51182 0.55314 0.0
C540 C 0.226 0.53418 0.56405 0.0
C541 C 0.19673 0.50732 0.52659 0.0
C542 C 0.2531 0.54969 0.54814 0.0
C543 C 0.25167 0.54496 0.52179 0.0
H544 H 0.5142 0.18248 0.97735 0.0
H545 H 0.44439 0.27899 0.98208 0.0
H546 H 0.44878 0.27728 0.0284 0.0
H547 H 0.46616 0.2441 0.06753 0.0
H548 H 0.5344 0.14649 0.06274 0.0
H549 H 0.53717 0.15325 1.01658 0.0
C550 C 0.50046 0.20355 0.98846 0.0
C551 C 0.47858 0.23052 0.97619 0.0
C552 C 0.50249 0.20202 1.01516 0.0
C553 C 0.46118 0.25772 0.99096 0.0
C554 C 0.46355 0.2567 1.0175 0.0
C555 C 0.48213 0.2246 0.05645 0.0
C556 C 0.49959 0.19452 0.06863 0.0
C557 C 0.48314 0.22828 0.02982 0.0
C558 C 0.5204 0.16973 0.05392 0.0
C559 C 0.52193 0.1735 0.02747 0.0
H560 H 0.74115 0.45281 0.48805 0.0
H561 H 0.82492 0.53013 0.46469 0.0
H562 H 0.83781 0.54447 0.50911 0.0
H563 H 0.83086 0.52914 0.55455 0.0
H564 H 0.74743 0.45132 0.57776 0.0
H565 H 0.72874 0.44348 0.53355 0.0
C566 C 0.76176 0.47332 0.49262 0.0
C567 C 0.78236 0.48992 0.47299 0.0
C568 C 0.76945 0.48108 0.51826 0.0
C569 C 0.8087 0.51674 0.47934 0.0
C570 C 0.81629 0.52482 0.5048 0.0
C571 C 0.8082 0.51089 0.54999 0.0
C572 C 0.79101 0.49046 0.56949 0.0
C573 C 0.79773 0.50622 0.52442 0.0
C574 C 0.76139 0.46726 0.5632 0.0
C575 C 0.75072 0.46262 0.53786 0.0
H576 H 0.55694 0.74853 0.05798 0.0
H577 H 0.4996 0.84781 0.08027 0.0
H578 H 0.48424 0.86101 0.03603 0.0
H579 H 0.49343 0.84859 0.99085 0.0
H580 H 0.55227 0.75054 0.96801 0.0
H581 H 0.55996 0.73238 1.01253 0.0
C582 C 0.54055 0.77271 0.0532 0.0
C583 C 0.53 0.79742 0.07241 0.0
C584 C 0.53223 0.78055 0.02756 0.0
C585 C 0.50858 0.82854 0.06586 0.0
C586 C 0.49974 0.83617 0.04053 0.0
C587 C 0.5074 0.82292 0.99554 0.0
C588 C 0.52273 0.80131 0.9761 0.0
C589 C 0.51242 0.81302 1.02118 0.0
C590 C 0.5404 0.76791 0.98258 0.0
C591 C 0.545 0.75756 1.00807 0.0
H592 H 0.25212 0.34854 0.1479 0.0
H593 H 0.33119 0.43231 0.16803 0.0
H594 H 0.38038 0.38684 0.16853 0.0
H595 H 0.40191 0.32437 0.1622 0.0
H596 H 0.32511 0.23886 0.14212 0.0
H597 H 0.27419 0.28381 0.14285 0.0
C598 C 0.28009 0.35672 0.15248 0.0
C599 C 0.28783 0.39394 0.15775 0.0
C600 C 0.30874 0.33018 0.15273 0.0
C601 C 0.32427 0.40402 0.16373 0.0
C602 C 0.35258 0.378 0.16406 0.0
C603 C 0.37405 0.31537 0.15799 0.0
C604 C 0.36741 0.27835 0.15194 0.0
C605 C 0.34522 0.34117 0.15839 0.0
C606 C 0.33101 0.26725 0.14682 0.0
C607 C 0.30191 0.29296 0.14717 0.0
H608 H 0.7564 0.32193 0.6148 0.0
H609 H 0.75337 0.36959 0.68985 0.0
H610 H 0.70424 0.32758 0.70218 0.0
H611 H 0.65773 0.28184 0.69035 0.0
H612 H 0.66137 0.23274 0.61587 0.0
H613 H 0.7148 0.27046 0.60476 0.0
C614 C 0.74537 0.32275 0.63396 0.0
C615 C 0.75822 0.34929 0.6512 0.0
C616 C 0.71697 0.29845 0.64101 0.0
C617 C 0.74392 0.34964 0.67609 0.0
C618 C 0.71564 0.32571 0.68317 0.0
C619 C 0.67052 0.27909 0.67179 0.0
C620 C 0.65534 0.25495 0.65385 0.0
C621 C 0.70126 0.30074 0.66557 0.0
C622 C 0.6725 0.25121 0.63002 0.0
C623 C 0.70295 0.2729 0.6236 0.0
H624 H 0.74739 0.66952 0.19146 0.0
H625 H 0.78589 0.66114 0.11402 0.0
H626 H 0.74495 0.71182 0.10133 0.0
H627 H 0.69438 0.75514 0.1116 0.0
H628 H 0.65586 0.76222 0.18918 0.0
H629 H 0.70064 0.71561 0.2023 0.0
C630 C 0.74719 0.67899 0.17183 0.0
C631 C 0.76953 0.66128 0.15371 0.0
C632 C 0.72328 0.70781 0.1646 0.0
C633 C 0.76898 0.67417 0.1284 0.0
C634 C 0.74542 0.70309 0.12109 0.0
C635 C 0.69605 0.74679 0.13143 0.0
C636 C 0.67144 0.76205 0.14928 0.0
C637 C 0.72184 0.7196 0.13892 0.0
C638 C 0.67421 0.75092 0.17493 0.0
C639 C 0.69984 0.72416 0.1825 0.0
H640 H 0.31764 0.6099 0.66943 0.0
H641 H 0.23398 0.68052 0.63634 0.0
H642 H 0.27755 0.73201 0.63582 0.0
H643 H 0.34068 0.75606 0.64323 0.0
H644 H 0.42347 0.68349 0.6756 0.0
H645 H 0.37889 0.63381 0.67794 0.0
C646 C 0.30874 0.63655 0.66217 0.0
C647 C 0.27263 0.64125 0.65283 0.0
C648 C 0.33389 0.66574 0.66172 0.0
C649 C 0.26166 0.67611 0.64362 0.0
C650 C 0.28659 0.70554 0.64328 0.0
C651 C 0.34882 0.72944 0.65094 0.0
C652 C 0.38547 0.72353 0.65909 0.0
C653 C 0.32296 0.70057 0.65205 0.0
C654 C 0.39558 0.68883 0.66901 0.0
C655 C 0.37008 0.66031 0.67039 0.0
H656 H 0.30217 0.7612 0.43092 0.0
H657 H 0.3313 0.77481 0.35177 0.0
H658 H 0.28523 0.7293 0.33981 0.0
H659 H 0.242 0.68052 0.35223 0.0
H660 H 0.2137 0.66614 0.43146 0.0
H661 H 0.2537 0.71732 0.44282 0.0
C662 C 0.29807 0.75466 0.41101 0.0
C663 C 0.3206 0.77105 0.39235 0.0
C664 C 0.27184 0.72805 0.40424 0.0
C665 C 0.3146 0.76246 0.3666 0.0
C666 C 0.28831 0.7363 0.35971 0.0
C667 C 0.24411 0.68892 0.37195 0.0
C668 C 0.22526 0.66909 0.39097 0.0
C669 C 0.26759 0.71811 0.37844 0.0
C670 C 0.22808 0.68066 0.4164 0.0
C671 C 0.25108 0.70989 0.42296 0.0
H672 H 0.35715 0.28129 0.85761 0.0
H673 H 0.34668 0.22837 0.93095 0.0
H674 H 0.29308 0.26714 0.94066 0.0
H675 H 0.2533 0.3205 0.92988 0.0
H676 H 0.26366 0.37206 0.85592 0.0
H677 H 0.31282 0.32917 0.84485 0.0
C678 C 0.34282 0.27792 0.87559 0.0
C679 C 0.35606 0.25237 0.89364 0.0
C680 C 0.31212 0.30025 0.88102 0.0
C681 C 0.33698 0.24789 0.91672 0.0
C682 C 0.30647 0.2702 0.92234 0.0
C683 C 0.26597 0.32202 0.91122 0.0
C684 C 0.25512 0.34988 0.89395 0.0
C685 C 0.2944 0.29716 0.90489 0.0
C686 C 0.27155 0.35112 0.86971 0.0
C687 C 0.29982 0.32665 0.86334 0.0
H688 H 0.68097 0.25999 0.43443 0.0
H689 H 0.66392 0.23675 0.35482 0.0
H690 H 0.71142 0.28122 0.34331 0.0
H691 H 0.75346 0.33094 0.35557 0.0
H692 H 0.7702 0.35456 0.43516 0.0
H693 H 0.72758 0.30547 0.44687 0.0
C694 C 0.68794 0.2643 0.41457 0.0
C695 C 0.66853 0.24532 0.39554 0.0
C696 C 0.71514 0.29018 0.40803 0.0
C697 C 0.67823 0.25104 0.3699 0.0
C698 C 0.70535 0.2766 0.36327 0.0
C699 C 0.74819 0.32506 0.3755 0.0
C700 C 0.76473 0.34676 0.39441 0.0
C701 C 0.72333 0.29698 0.38213 0.0
C702 C 0.75778 0.33847 0.42015 0.0
C703 C 0.73325 0.31045 0.4269 0.0
H704 H 0.76862 0.7007 0.93167 0.0
H705 H 0.76729 0.65267 0.85669 0.0
H706 H 0.71956 0.69608 0.84331 0.0
H707 H 0.67282 0.74222 0.8544 0.0
H708 H 0.67392 0.79103 0.929 0.0
H709 H 0.72743 0.75328 0.94083 0.0
C710 C 0.75832 0.70013 0.91229 0.0
C711 C 0.77108 0.67296 0.89541 0.0
C712 C 0.73061 0.72517 0.90466 0.0
C713 C 0.75778 0.67298 0.87023 0.0
C714 C 0.73034 0.69776 0.86253 0.0
C715 C 0.68517 0.74504 0.8731 0.0
C716 C 0.66912 0.76893 0.8909 0.0
C717 C 0.71571 0.72311 0.87982 0.0
C718 C 0.68571 0.77274 0.91494 0.0
C719 C 0.71617 0.75098 0.92179 0.0
loop_
_geom_bond_atom_site_label_1
_geom_bond_atom_site_label_2
_geom_bond_distance
_geom_bond_site_symmetry_2
_ccdc_geom_bond_type
Mg0 O7 2.141 . S
Mg0 O8 2.048 . S
Mg0 O9 2.048 . S
Mg0 O12 2.141 . S
C1 O2 1.313 . S
C1 O8 1.195 . S
O2 C1 1.313 . S
C3 O4 1.245 . S
C3 O12 1.289 . S
O4 C3 1.245 . S
C5 O6 1.245 . S
C5 O7 1.289 . S
O6 C5 1.245 . S
O7 Mg0 2.141 . S
O7 C5 1.289 . S
O8 Mg0 2.048 . S
O8 C1 1.195 . S
O9 Mg0 2.048 . S
O9 C10 1.195 . S
C10 O9 1.195 . S
C10 O11 1.313 . S
O11 C10 1.313 . S
O12 Mg0 2.141 . S
O12 C3 1.289 . S
Mg13 O20 2.141 . S
Mg13 O21 2.048 . S
Mg13 O22 2.048 . S
Mg13 O25 2.141 . S
C14 O15 1.313 . S
C14 O21 1.195 . S
O15 C14 1.313 . S
C16 O17 1.245 . S
C16 O25 1.289 . S
O17 C16 1.245 . S
C18 O19 1.245 . S
C18 O20 1.289 . S
O19 C18 1.245 . S
O20 Mg13 2.141 . S
O20 C18 1.289 . S
O21 Mg13 2.048 . S
O21 C14 1.195 . S
O22 Mg13 2.048 . S
O22 C23 1.195 . S
C23 O22 1.195 . S
C23 O24 1.313 . S
O24 C23 1.313 . S
O25 Mg13 2.141 . S
O25 C16 1.289 . S
Mg26 O33 2.141 . S
Mg26 O34 2.048 . S
Mg26 O35 2.048 . S
Mg26 O38 2.141 . S
C27 O28 1.313 . S
C27 O34 1.195 . S
O28 C27 1.313 . S
C29 O30 1.245 . S
C29 O38 1.289 . S
O30 C29 1.245 . S
C31 O32 1.245 . S
C31 O33 1.289 . S
O32 C31 1.245 . S
O33 Mg26 2.141 . S
O33 C31 1.289 . S
O34 Mg26 2.048 . S
O34 C27 1.195 . S
O35 Mg26 2.048 . S
O35 C36 1.195 . S
C36 O35 1.195 . S
C36 O37 1.313 . S
O37 C36 1.313 . S
O38 Mg26 2.141 . S
O38 C29 1.289 . S
Mg39 O46 2.141 . S
Mg39 O47 2.048 . S
Mg39 O48 2.048 . S
Mg39 O51 2.141 . S
C40 O41 1.313 . S
C40 O47 1.195 . S
O41 C40 1.313 . S
C42 O43 1.245 . S
C42 O51 1.289 . S
O43 C42 1.245 . S
C44 O45 1.245 . S
C44 O46 1.289 . S
O45 C44 1.245 . S
O46 Mg39 2.141 . S
O46 C44 1.289 . S
O47 Mg39 2.048 . S
O47 C40 1.195 . S
O48 Mg39 2.048 . S
O48 C49 1.195 . S
C49 O48 1.195 . S
C49 O50 1.313 . S
O50 C49 1.313 . S
O51 Mg39 2.141 . S
O51 C42 1.289 . S
Mg52 O59 2.141 . S
Mg52 O60 2.048 . S
Mg52 O61 2.048 . S
Mg52 O64 2.141 . S
C53 O54 1.313 . S
C53 O60 1.195 . S
O54 C53 1.313 . S
C55 O56 1.245 . S
C55 O64 1.289 . S
O56 C55 1.245 . S
C57 O58 1.245 . S
C57 O59 1.289 . S
O58 C57 1.245 . S
O59 Mg52 2.141 . S
O59 C57 1.289 . S
O60 Mg52 2.048 . S
O60 C53 1.195 . S
O61 Mg52 2.048 . S
O61 C62 1.195 . S
C62 O61 1.195 . S
C62 O63 1.313 . S
O63 C62 1.313 . S
O64 Mg52 2.141 . S
O64 C55 1.289 . S
Mg65 O72 2.141 . S
Mg65 O73 2.048 . S
Mg65 O74 2.048 . S
Mg65 O77 2.141 . S
C66 O67 1.313 . S
C66 O73 1.195 . S
O67 C66 1.313 . S
C68 O69 1.245 . S
C68 O77 1.289 . S
O69 C68 1.245 . S
C70 O71 1.245 . S
C70 O72 1.289 . S
O71 C70 1.245 . S
O72 Mg65 2.141 . S
O72 C70 1.289 . S
O73 Mg65 2.048 . S
O73 C66 1.195 . S
O74 Mg65 2.048 . S
O74 C75 1.195 . S
C75 O74 1.195 . S
C75 O76 1.313 . S
O76 C75 1.313 . S
O77 Mg65 2.141 . S
O77 C68 1.289 . S
Mg78 O85 2.141 . S
Mg78 O86 2.048 . S
Mg78 O87 2.048 . S
Mg78 O90 2.141 . S
C79 O80 1.313 . S
C79 O86 1.195 . S
O80 C79 1.313 . S
C81 O82 1.245 . S
C81 O90 1.289 . S
O82 C81 1.245 . S
C83 O84 1.245 . S
C83 O85 1.289 . S
O84 C83 1.245 . S
O85 Mg78 2.141 . S
O85 C83 1.289 . S
O86 Mg78 2.048 . S
O86 C79 1.195 . S
O87 Mg78 2.048 . S
O87 C88 1.195 . S
C88 O87 1.195 . S
C88 O89 1.313 . S
O89 C88 1.313 . S
O90 Mg78 2.141 . S
O90 C81 1.289 . S
Mg91 O98 2.141 . S
Mg91 O99 2.048 . S
Mg91 O100 2.048 . S
Mg91 O103 2.141 . S
C92 O93 1.313 . S
C92 O99 1.195 . S
O93 C92 1.313 . S
C94 O95 1.245 . S
C94 O103 1.289 . S
O95 C94 1.245 . S
C96 O97 1.245 . S
C96 O98 1.289 . S
O97 C96 1.245 . S
O98 Mg91 2.141 . S
O98 C96 1.289 . S
O99 Mg91 2.048 . S
O99 C92 1.195 . S
O100 Mg91 2.048 . S
O100 C101 1.195 . S
C101 O100 1.195 . S
C101 O102 1.313 . S
O102 C101 1.313 . S
O103 Mg91 2.141 . S
O103 C94 1.289 . S
Mg104 O111 2.141 . S
Mg104 O112 2.048 . S
Mg104 O113 2.048 . S
Mg104 O116 2.141 . S
C105 O106 1.313 . S
C105 O112 1.195 . S
O106 C105 1.313 . S
C107 O108 1.245 . S
C107 O116 1.289 . S
O108 C107 1.245 . S
C109 O110 1.245 . S
C109 O111 1.289 . S
O110 C109 1.245 . S
O111 Mg104 2.141 . S
O111 C109 1.289 . S
O112 Mg104 2.048 . S
O112 C105 1.195 . S
O113 Mg104 2.048 . S
O113 C114 1.195 . S
C114 O113 1.195 . S
C114 O115 1.313 . S
O115 C114 1.313 . S
O116 Mg104 2.141 . S
O116 C107 1.289 . S
Mg117 O124 2.141 . S
Mg117 O125 2.048 . S
Mg117 O126 2.048 . S
Mg117 O129 2.141 . S
C118 O119 1.313 . S
C118 O125 1.195 . S
O119 C118 1.313 . S
C120 O121 1.245 . S
C120 O129 1.289 . S
O121 C120 1.245 . S
C122 O123 1.245 . S
C122 O124 1.289 . S
O123 C122 1.245 . S
O124 Mg117 2.141 . S
O124 C122 1.289 . S
O125 Mg117 2.048 . S
O125 C118 1.195 . S
O126 Mg117 2.048 . S
O126 C127 1.195 . S
C127 O126 1.195 . S
C127 O128 1.313 . S
O128 C127 1.313 . S
O129 Mg117 2.141 . S
O129 C120 1.289 . S
Mg130 O137 2.141 . S
Mg130 O138 2.048 . S
Mg130 O139 2.048 . S
Mg130 O142 2.141 . S
C131 O132 1.313 . S
C131 O138 1.195 . S
O132 C131 1.313 . S
C133 O134 1.245 . S
C133 O142 1.289 . S
O134 C133 1.245 . S
C135 O136 1.245 . S
C135 O137 1.289 . S
O136 C135 1.245 . S
O137 Mg130 2.141 . S
O137 C135 1.289 . S
O138 Mg130 2.048 . S
O138 C131 1.195 . S
O139 Mg130 2.048 . S
O139 C140 1.195 . S
C140 O139 1.195 . S
C140 O141 1.313 . S
O141 C140 1.313 . S
O142 Mg130 2.141 . S
O142 C133 1.289 . S
Mg143 O150 2.141 . S
Mg143 O151 2.048 . S
Mg143 O152 2.048 . S
Mg143 O155 2.141 . S
C144 O145 1.313 . S
C144 O151 1.195 . S
O145 C144 1.313 . S
C146 O147 1.245 . S
C146 O155 1.289 . S
O147 C146 1.245 . S
C148 O149 1.245 . S
C148 O150 1.289 . S
O149 C148 1.245 . S
O150 Mg143 2.141 . S
O150 C148 1.289 . S
O151 Mg143 2.048 . S
O151 C144 1.195 . S
O152 Mg143 2.048 . S
O152 C153 1.195 . S
C153 O152 1.195 . S
C153 O154 1.313 . S
O154 C153 1.313 . S
O155 Mg143 2.141 . S
O155 C146 1.289 . S
Mg156 O163 2.141 . S
Mg156 O164 2.048 . S
Mg156 O165 2.048 . S
Mg156 O168 2.141 . S
C157 O158 1.313 . S
C157 O164 1.195 . S
O158 C157 1.313 . S
C159 O160 1.245 . S
C159 O168 1.289 . S
O160 C159 1.245 . S
C161 O162 1.245 . S
C161 O163 1.289 . S
O162 C161 1.245 . S
O163 Mg156 2.141 . S
O163 C161 1.289 . S
O164 Mg156 2.048 . S
O164 C157 1.195 . S
O165 Mg156 2.048 . S
O165 C166 1.195 . S
C166 O165 1.195 . S
C166 O167 1.313 . S
O167 C166 1.313 . S
O168 Mg156 2.141 . S
O168 C159 1.289 . S
Mg169 O176 2.141 . S
Mg169 O177 2.048 . S
Mg169 O178 2.048 . S
Mg169 O181 2.141 . S
C170 O171 1.313 . S
C170 O177 1.195 . S
O171 C170 1.313 . S
C172 O173 1.245 . S
C172 O181 1.289 . S
O173 C172 1.245 . S
C174 O175 1.245 . S
C174 O176 1.289 . S
O175 C174 1.245 . S
O176 Mg169 2.141 . S
O176 C174 1.289 . S
O177 Mg169 2.048 . S
O177 C170 1.195 . S
O178 Mg169 2.048 . S
O178 C179 1.195 . S
C179 O178 1.195 . S
C179 O180 1.313 . S
O180 C179 1.313 . S
O181 Mg169 2.141 . S
O181 C172 1.289 . S
Mg182 O189 2.141 . S
Mg182 O190 2.048 . S
Mg182 O191 2.048 . S
Mg182 O194 2.141 . S
C183 O184 1.313 . S
C183 O190 1.195 . S
O184 C183 1.313 . S
C185 O186 1.245 . S
C185 O194 1.289 . S
O186 C185 1.245 . S
C187 O188 1.245 . S
C187 O189 1.289 . S
O188 C187 1.245 . S
O189 Mg182 2.141 . S
O189 C187 1.289 . S
O190 Mg182 2.048 . S
O190 C183 1.195 . S
O191 Mg182 2.048 . S
O191 C192 1.195 . S
C192 O191 1.195 . S
C192 O193 1.313 . S
O193 C192 1.313 . S
O194 Mg182 2.141 . S
O194 C185 1.289 . S
Mg195 O202 2.141 . S
Mg195 O203 2.048 . S
Mg195 O204 2.048 . S
Mg195 O207 2.141 . S
C196 O197 1.313 . S
C196 O203 1.195 . S
O197 C196 1.313 . S
C198 O199 1.245 . S
C198 O207 1.289 . S
O199 C198 1.245 . S
C200 O201 1.245 . S
C200 O202 1.289 . S
O201 C200 1.245 . S
O202 Mg195 2.141 . S
O202 C200 1.289 . S
O203 Mg195 2.048 . S
O203 C196 1.195 . S
O204 Mg195 2.048 . S
O204 C205 1.195 . S
C205 O204 1.195 . S
C205 O206 1.313 . S
O206 C205 1.313 . S
O207 Mg195 2.141 . S
O207 C198 1.289 . S
H208 C214 0.930 . S
H209 C217 0.930 . S
H210 C218 0.930 . S
H211 C219 0.930 . S
H212 C222 0.930 . S
H213 C223 0.930 . S
C214 H208 0.930 . S
C214 C215 1.355 . S
C214 C216 1.415 . S
C215 C214 1.355 . S
C215 C217 1.419 . S
C216 C214 1.415 . S
C216 C221 1.425 1_455 S
C216 C223 1.409 1_455 S
C217 H209 0.930 . S
C217 C215 1.419 . S
C217 C218 1.362 . S
C218 H210 0.930 . S
C218 C217 1.362 . S
C218 C221 1.409 1_455 S
C219 H211 0.930 . S
C219 C220 1.355 . S
C219 C221 1.415 . S
C220 C219 1.355 . S
C220 C222 1.419 . S
C221 C216 1.425 1_655 S
C221 C218 1.409 1_655 S
C221 C219 1.415 . S
C222 H212 0.930 . S
C222 C220 1.419 . S
C222 C223 1.362 . S
C223 H213 0.930 . S
C223 C216 1.409 1_655 S
C223 C222 1.362 . S
H224 C230 0.930 . S
H225 C233 0.930 . S
H226 C234 0.930 . S
H227 C235 0.930 . S
H228 C238 0.930 . S
H229 C239 0.930 . S
C230 H224 0.930 . S
C230 C231 1.355 . S
C230 C232 1.415 . S
C231 C230 1.355 . S
C231 C233 1.419 . S
C232 C230 1.415 . S
C232 C237 1.425 1_565 S
C232 C239 1.409 1_565 S
C233 H225 0.930 . S
C233 C231 1.419 . S
C233 C234 1.362 . S
C234 H226 0.930 . S
C234 C233 1.362 . S
C234 C237 1.409 1_565 S
C235 H227 0.930 . S
C235 C236 1.355 . S
C235 C237 1.415 . S
C236 C235 1.355 . S
C236 C238 1.419 . S
C237 C232 1.425 1_545 S
C237 C234 1.409 1_545 S
C237 C235 1.415 . S
C238 H228 0.930 . S
C238 C236 1.419 . S
C238 C239 1.362 . S
C239 H229 0.930 . S
C239 C232 1.409 1_545 S
C239 C238 1.362 . S
H240 C246 0.930 . S
H241 C249 0.930 . S
H242 C250 0.930 . S
H243 C251 0.930 . S
H244 C254 0.930 . S
H245 C255 0.930 . S
C246 H240 0.930 . S
C246 C247 1.355 . S
C246 C248 1.415 . S
C247 C246 1.355 . S
C247 C249 1.419 . S
C248 C246 1.415 . S
C248 C253 1.425 1_455 S
C248 C255 1.409 1_455 S
C249 H241 0.930 . S
C249 C247 1.419 . S
C249 C250 1.362 . S
C250 H242 0.930 . S
C250 C249 1.362 . S
C250 C253 1.409 1_455 S
C251 H243 0.930 . S
C251 C252 1.355 . S
C251 C253 1.415 . S
C252 C251 1.355 . S
C252 C254 1.419 . S
C253 C248 1.425 1_655 S
C253 C250 1.409 1_655 S
C253 C251 1.415 . S
C254 H244 0.930 . S
C254 C252 1.419 . S
C254 C255 1.362 . S
C255 H245 0.930 . S
C255 C248 1.409 1_655 S
C255 C254 1.362 . S
H256 C262 0.930 . S
H257 C265 0.930 . S
H258 C266 0.930 . S
H259 C267 0.930 . S
H260 C270 0.930 . S
H261 C271 0.930 . S
C262 H256 0.930 . S
C262 C263 1.355 . S
C262 C264 1.415 . S
C263 C262 1.355 . S
C263 C265 1.419 . S
C264 C262 1.415 . S
C264 C269 1.425 1_565 S
C264 C271 1.409 1_565 S
C265 H257 0.930 . S
C265 C263 1.419 . S
C265 C266 1.362 . S
C266 H258 0.930 . S
C266 C265 1.362 . S
C266 C269 1.409 1_565 S
C267 H259 0.930 . S
C267 C268 1.355 . S
C267 C269 1.415 . S
C268 C267 1.355 . S
C268 C270 1.419 . S
C269 C264 1.425 1_545 S
C269 C266 1.409 1_545 S
C269 C267 1.415 . S
C270 H260 0.930 . S
C270 C268 1.419 . S
C270 C271 1.362 . S
C271 H261 0.930 . S
C271 C264 1.409 1_545 S
C271 C270 1.362 . S
H272 C278 0.930 . S
H273 C281 0.930 . S
H274 C282 0.930 . S
H275 C283 0.930 . S
H276 C286 0.930 . S
H277 C287 0.930 . S
C278 H272 0.930 . S
C278 C279 1.355 . S
C278 C280 1.415 . S
C279 C278 1.355 . S
C279 C281 1.419 . S
C280 C278 1.415 . S
C280 C285 1.425 1_655 S
C280 C287 1.409 1_655 S
C281 H273 0.930 . S
C281 C279 1.419 . S
C281 C282 1.362 . S
C282 H274 0.930 . S
C282 C281 1.362 . S
C282 C285 1.409 1_655 S
C283 H275 0.930 . S
C283 C284 1.355 . S
C283 C285 1.415 . S
C284 C283 1.355 . S
C284 C286 1.419 . S
C285 C280 1.425 1_455 S
C285 C282 1.409 1_455 S
C285 C283 1.415 . S
C286 H276 0.930 . S
C286 C284 1.419 . S
C286 C287 1.362 . S
C287 H277 0.930 . S
C287 C280 1.409 1_455 S
C287 C286 1.362 . S
H288 C294 0.930 . S
H289 C297 0.930 . S
H290 C298 0.930 . S
H291 C299 0.930 . S
H292 C302 0.930 . S
H293 C303 0.930 . S
C294 H288 0.930 . S
C294 C295 1.355 . S
C294 C296 1.415 . S
C295 C294 1.355 . S
C295 C297 1.419 . S
C296 C294 1.415 . S
C296 C301 1.425 1_545 S
C296 C303 1.409 1_545 S
C297 H289 0.930 . S
C297 C295 1.419 . S
C297 C298 1.362 . S
C298 H290 0.930 . S
C298 C297 1.362 . S
C298 C301 1.409 1_545 S
C299 H291 0.930 . S
C299 C300 1.355 . S
C299 C301 1.415 . S
C300 C299 1.355 . S
C300 C302 1.419 . S
C301 C296 1.425 1_565 S
C301 C298 1.409 1_565 S
C301 C299 1.415 . S
C302 H292 0.930 . S
C302 C300 1.419 . S
C302 C303 1.362 . S
C303 H293 0.930 . S
C303 C296 1.409 1_565 S
C303 C302 1.362 . S
H304 C310 0.930 . S
H305 C313 0.930 . S
H306 C314 0.930 . S
H307 C315 0.930 . S
H308 C318 0.930 . S
H309 C319 0.930 . S
C310 H304 0.930 . S
C310 C311 1.355 . S
C310 C312 1.415 . S
C311 C310 1.355 . S
C311 C313 1.419 . S
C312 C310 1.415 . S
C312 C317 1.425 1_655 S
C312 C319 1.409 1_655 S
C313 H305 0.930 . S
C313 C311 1.419 . S
C313 C314 1.362 . S
C314 H306 0.930 . S
C314 C313 1.362 . S
C314 C317 1.409 1_655 S
C315 H307 0.930 . S
C315 C316 1.355 . S
C315 C317 1.415 . S
C316 C315 1.355 . S
C316 C318 1.419 . S
C317 C312 1.425 1_455 S
C317 C314 1.409 1_455 S
C317 C315 1.415 . S
C318 H308 0.930 . S
C318 C316 1.419 . S
C318 C319 1.362 . S
C319 H309 0.930 . S
C319 C312 1.409 1_455 S
C319 C318 1.362 . S
H320 C326 0.930 . S
H321 C329 0.930 . S
H322 C330 0.930 . S
H323 C331 0.930 . S
H324 C334 0.930 . S
H325 C335 0.930 . S
C326 H320 0.930 . S
C326 C327 1.355 . S
C326 C328 1.415 . S
C327 C326 1.355 . S
C327 C329 1.419 . S
C328 C326 1.415 . S
C328 C333 1.425 1_545 S
C328 C335 1.409 1_545 S
C329 H321 0.930 . S
C329 C327 1.419 . S
C329 C330 1.362 . S
C330 H322 0.930 . S
C330 C329 1.362 . S
C330 C333 1.409 1_545 S
C331 H323 0.930 . S
C331 C332 1.355 . S
C331 C333 1.415 . S
C332 C331 1.355 . S
C332 C334 1.419 . S
C333 C328 1.425 1_565 S
C333 C330 1.409 1_565 S
C333 C331 1.415 . S
C334 H324 0.930 . S
C334 C332 1.419 . S
C334 C335 1.362 . S
C335 H325 0.930 . S
C335 C328 1.409 1_565 S
C335 C334 1.362 . S
H336 C342 0.930 . S
H337 C345 0.930 . S
H338 C346 0.930 . S
H339 C347 0.930 . S
H340 C350 0.930 . S
H341 C351 0.930 . S
C342 H336 0.930 . S
C342 C343 1.355 . S
C342 C344 1.415 . S
C343 C342 1.355 . S
C343 C345 1.419 . S
C344 C342 1.415 . S
C344 C349 1.425 . S
C344 C351 1.409 . S
C345 H337 0.930 . S
C345 C343 1.419 . S
C345 C346 1.362 . S
C346 H338 0.930 . S
C346 C345 1.362 . S
C346 C349 1.409 . S
C347 H339 0.930 . S
C347 C348 1.355 . S
C347 C349 1.415 . S
C348 C347 1.355 . S
C348 C350 1.419 . S
C349 C344 1.425 . S
C349 C346 1.409 . S
C349 C347 1.415 . S
C350 H340 0.930 . S
C350 C348 1.419 . S
C350 C351 1.362 . S
C351 H341 0.930 . S
C351 C344 1.409 . S
C351 C350 1.362 . S
H352 C358 0.930 . S
H353 C361 0.930 . S
H354 C362 0.930 . S
H355 C363 0.930 . S
H356 C366 0.930 . S
H357 C367 0.930 . S
C358 H352 0.930 . S
C358 C359 1.355 . S
C358 C360 1.415 . S
C359 C358 1.355 . S
C359 C361 1.419 . S
C360 C358 1.415 . S
C360 C365 1.425 . S
C360 C367 1.409 . S
C361 H353 0.930 . S
C361 C359 1.419 . S
C361 C362 1.362 . S
C362 H354 0.930 . S
C362 C361 1.362 . S
C362 C365 1.409 . S
C363 H355 0.930 . S
C363 C364 1.355 . S
C363 C365 1.415 . S
C364 C363 1.355 . S
C364 C366 1.419 . S
C365 C360 1.425 . S
C365 C362 1.409 . S
C365 C363 1.415 . S
C366 H356 0.930 . S
C366 C364 1.419 . S
C366 C367 1.362 . S
C367 H357 0.930 . S
C367 C360 1.409 . S
C367 C366 1.362 . S
H368 C374 0.930 . S
H369 C377 0.930 . S
H370 C378 0.930 . S
H371 C379 0.930 . S
H372 C382 0.930 . S
H373 C383 0.930 . S
C374 H368 0.930 . S
C374 C375 1.355 . S
C374 C376 1.415 . S
C375 C374 1.355 . S
C375 C377 1.419 . S
C376 C374 1.415 . S
C376 C381 1.425 . S
C376 C383 1.409 . S
C377 H369 0.930 . S
C377 C375 1.419 . S
C377 C378 1.362 . S
C378 H370 0.930 . S
C378 C377 1.362 . S
C378 C381 1.409 . S
C379 H371 0.930 . S
C379 C380 1.355 . S
C379 C381 1.415 . S
C380 C379 1.355 . S
C380 C382 1.419 . S
C381 C376 1.425 . S
C381 C378 1.409 . S
C381 C379 1.415 . S
C382 H372 0.930 . S
C382 C380 1.419 . S
C382 C383 1.362 . S
C383 H373 0.930 . S
C383 C376 1.409 . S
C383 C382 1.362 . S
H384 C390 0.930 . S
H385 C393 0.930 . S
H386 C394 0.930 . S
H387 C395 0.930 . S
H388 C398 0.930 . S
H389 C399 0.930 . S
C390 H384 0.930 . S
C390 C391 1.355 . S
C390 C392 1.415 . S
C391 C390 1.355 . S
C391 C393 1.419 . S
C392 C390 1.415 . S
C392 C397 1.425 . S
C392 C399 1.409 . S
C393 H385 0.930 . S
C393 C391 1.419 . S
C393 C394 1.362 . S
C394 H386 0.930 . S
C394 C393 1.362 . S
C394 C397 1.409 . S
C395 H387 0.930 . S
C395 C396 1.355 . S
C395 C397 1.415 . S
C396 C395 1.355 . S
C396 C398 1.419 . S
C397 C392 1.425 . S
C397 C394 1.409 . S
C397 C395 1.415 . S
C398 H388 0.930 . S
C398 C396 1.419 . S
C398 C399 1.362 . S
C399 H389 0.930 . S
C399 C392 1.409 . S
C399 C398 1.362 . S
H400 C406 0.930 . S
H401 C409 0.930 . S
H402 C410 0.930 . S
H403 C411 0.930 . S
H404 C414 0.930 . S
H405 C415 0.930 . S
C406 H400 0.930 . S
C406 C407 1.355 . S
C406 C408 1.415 . S
C407 C406 1.355 . S
C407 C409 1.419 . S
C408 C406 1.415 . S
C408 C413 1.425 . S
C408 C415 1.409 . S
C409 H401 0.930 . S
C409 C407 1.419 . S
C409 C410 1.362 . S
C410 H402 0.930 . S
C410 C409 1.362 . S
C410 C413 1.409 . S
C411 H403 0.930 . S
C411 C412 1.355 . S
C411 C413 1.415 . S
C412 C411 1.355 . S
C412 C414 1.419 . S
C413 C408 1.425 . S
C413 C410 1.409 . S
C413 C411 1.415 . S
C414 H404 0.930 . S
C414 C412 1.419 . S
C414 C415 1.362 . S
C415 H405 0.930 . S
C415 C408 1.409 . S
C415 C414 1.362 . S
H416 C422 0.930 . S
H417 C425 0.930 . S
H418 C426 0.930 . S
H419 C427 0.930 . S
H420 C430 0.930 . S
H421 C431 0.930 . S
C422 H416 0.930 . S
C422 C423 1.355 . S
C422 C424 1.415 . S
C423 C422 1.355 . S
C423 C425 1.419 . S
C424 C422 1.415 . S
C424 C429 1.425 . S
C424 C431 1.409 . S
C425 H417 0.930 . S
C425 C423 1.419 . S
C425 C426 1.362 . S
C426 H418 0.930 . S
C426 C425 1.362 . S
C426 C429 1.409 . S
C427 H419 0.930 . S
C427 C428 1.355 . S
C427 C429 1.415 . S
C428 C427 1.355 . S
C428 C430 1.419 . S
C429 C424 1.425 . S
C429 C426 1.409 . S
C429 C427 1.415 . S
C430 H420 0.930 . S
C430 C428 1.419 . S
C430 C431 1.362 . S
C431 H421 0.930 . S
C431 C424 1.409 . S
C431 C430 1.362 . S
H432 C438 0.930 . S
H433 C441 0.930 . S
H434 C442 0.930 . S
H435 C443 0.930 . S
H436 C446 0.930 . S
H437 C447 0.930 . S
C438 H432 0.930 . S
C438 C439 1.355 . S
C438 C440 1.415 . S
C439 C438 1.355 . S
C439 C441 1.419 . S
C440 C438 1.415 . S
C440 C445 1.425 . S
C440 C447 1.409 . S
C441 H433 0.930 . S
C441 C439 1.419 . S
C441 C442 1.362 . S
C442 H434 0.930 . S
C442 C441 1.362 . S
C442 C445 1.409 . S
C443 H435 0.930 . S
C443 C444 1.355 . S
C443 C445 1.415 . S
C444 C443 1.355 . S
C444 C446 1.419 . S
C445 C440 1.425 . S
C445 C442 1.409 . S
C445 C443 1.415 . S
C446 H436 0.930 . S
C446 C444 1.419 . S
C446 C447 1.362 . S
C447 H437 0.930 . S
C447 C440 1.409 . S
C447 C446 1.362 . S
H448 C454 0.930 . S
H449 C457 0.930 . S
H450 C458 0.930 . S
H451 C459 0.930 . S
H452 C462 0.930 . S
H453 C463 0.930 . S
C454 H448 0.930 . S
C454 C455 1.355 . S
C454 C456 1.415 . S
C455 C454 1.355 . S
C455 C457 1.419 . S
C456 C454 1.415 . S
C456 C461 1.425 . S
C456 C463 1.409 . S
C457 H449 0.930 . S
C457 C455 1.419 . S
C457 C458 1.362 . S
C458 H450 0.930 . S
C458 C457 1.362 . S
C458 C461 1.409 . S
C459 H451 0.930 . S
C459 C460 1.355 . S
C459 C461 1.415 . S
C460 C459 1.355 . S
C460 C462 1.419 . S
C461 C456 1.425 . S
C461 C458 1.409 . S
C461 C459 1.415 . S
C462 H452 0.930 . S
C462 C460 1.419 . S
C462 C463 1.362 . S
C463 H453 0.930 . S
C463 C456 1.409 . S
C463 C462 1.362 . S
H464 C470 0.930 . S
H465 C473 0.930 . S
H466 C474 0.930 . S
H467 C475 0.930 . S
H468 C478 0.930 . S
H469 C479 0.930 . S
C470 H464 0.930 . S
C470 C471 1.355 . S
C470 C472 1.415 . S
C471 C470 1.355 . S
C471 C473 1.419 . S
C472 C470 1.415 . S
C472 C477 1.425 1_556 S
C472 C479 1.409 1_556 S
C473 H465 0.930 . S
C473 C471 1.419 . S
C473 C474 1.362 . S
C474 H466 0.930 . S
C474 C473 1.362 . S
C474 C477 1.409 1_556 S
C475 H467 0.930 . S
C475 C476 1.355 . S
C475 C477 1.415 . S
C476 C475 1.355 . S
C476 C478 1.419 . S
C477 C472 1.425 1_554 S
C477 C474 1.409 1_554 S
C477 C475 1.415 . S
C478 H468 0.930 . S
C478 C476 1.419 . S
C478 C479 1.362 . S
C479 H469 0.930 . S
C479 C472 1.409 1_554 S
C479 C478 1.362 . S
H480 C486 0.930 . S
H481 C489 0.930 . S
H482 C490 0.930 . S
H483 C491 0.930 . S
H484 C494 0.930 . S
H485 C495 0.930 . S
C486 H480 0.930 . S
C486 C487 1.355 . S
C486 C488 1.415 . S
C487 C486 1.355 . S
C487 C489 1.419 . S
C488 C486 1.415 . S
C488 C493 1.425 . S
C488 C495 1.409 . S
C489 H481 0.930 . S
C489 C487 1.419 . S
C489 C490 1.362 . S
C490 H482 0.930 . S
C490 C489 1.362 . S
C490 C493 1.409 . S
C491 H483 0.930 . S
C491 C492 1.355 . S
C491 C493 1.415 . S
C492 C491 1.355 . S
C492 C494 1.419 . S
C493 C488 1.425 . S
C493 C490 1.409 . S
C493 C491 1.415 . S
C494 H484 0.930 . S
C494 C492 1.419 . S
C494 C495 1.362 . S
C495 H485 0.930 . S
C495 C488 1.409 . S
C495 C494 1.362 . S
H496 C502 0.930 . S
H497 C505 0.930 . S
H498 C506 0.930 . S
H499 C507 0.930 . S
H500 C510 0.930 . S
H501 C511 0.930 . S
C502 H496 0.930 . S
C502 C503 1.355 . S
C502 C504 1.415 . S
C503 C502 1.355 . S
C503 C505 1.419 . S
C504 C502 1.415 . S
C504 C509 1.425 1_554 S
C504 C511 1.409 1_554 S
C505 H497 0.930 . S
C505 C503 1.419 . S
C505 C506 1.362 . S
C506 H498 0.930 . S
C506 C505 1.362 . S
C506 C509 1.409 1_554 S
C507 H499 0.930 . S
C507 C508 1.355 . S
C507 C509 1.415 . S
C508 C507 1.355 . S
C508 C510 1.419 . S
C509 C504 1.425 1_556 S
C509 C506 1.409 1_556 S
C509 C507 1.415 . S
C510 H500 0.930 . S
C510 C508 1.419 . S
C510 C511 1.362 . S
C511 H501 0.930 . S
C511 C504 1.409 1_556 S
C511 C510 1.362 . S
H512 C518 0.930 . S
H513 C521 0.930 . S
H514 C522 0.930 . S
H515 C523 0.930 . S
H516 C526 0.930 . S
H517 C527 0.930 . S
C518 H512 0.930 . S
C518 C519 1.355 . S
C518 C520 1.415 . S
C519 C518 1.355 . S
C519 C521 1.419 . S
C520 C518 1.415 . S
C520 C525 1.425 . S
C520 C527 1.409 . S
C521 H513 0.930 . S
C521 C519 1.419 . S
C521 C522 1.362 . S
C522 H514 0.930 . S
C522 C521 1.362 . S
C522 C525 1.409 . S
C523 H515 0.930 . S
C523 C524 1.355 . S
C523 C525 1.415 . S
C524 C523 1.355 . S
C524 C526 1.419 . S
C525 C520 1.425 . S
C525 C522 1.409 . S
C525 C523 1.415 . S
C526 H516 0.930 . S
C526 C524 1.419 . S
C526 C527 1.362 . S
C527 H517 0.930 . S
C527 C520 1.409 . S
C527 C526 1.362 . S
H528 C534 0.930 . S
H529 C537 0.930 . S
H530 C538 0.930 . S
H531 C539 0.930 . S
H532 C542 0.930 . S
H533 C543 0.930 . S
C534 H528 0.930 . S
C534 C535 1.355 . S
C534 C536 1.415 . S
C535 C534 1.355 . S
C535 C537 1.419 . S
C536 C534 1.415 . S
C536 C541 1.425 . S
C536 C543 1.409 . S
C537 H529 0.930 . S
C537 C535 1.419 . S
C537 C538 1.362 . S
C538 H530 0.930 . S
C538 C537 1.362 . S
C538 C541 1.409 . S
C539 H531 0.930 . S
C539 C540 1.355 . S
C539 C541 1.415 . S
C540 C539 1.355 . S
C540 C542 1.419 . S
C541 C536 1.425 . S
C541 C538 1.409 . S
C541 C539 1.415 . S
C542 H532 0.930 . S
C542 C540 1.419 . S
C542 C543 1.362 . S
C543 H533 0.930 . S
C543 C536 1.409 . S
C543 C542 1.362 . S
H544 C550 0.930 . S
H545 C553 0.930 . S
H546 C554 0.930 . S
H547 C555 0.930 . S
H548 C558 0.930 . S
H549 C559 0.930 . S
C550 H544 0.930 . S
C550 C551 1.355 . S
C550 C552 1.415 . S
C551 C550 1.355 . S
C551 C553 1.419 . S
C552 C550 1.415 . S
C552 C557 1.425 1_556 S
C552 C559 1.409 1_556 S
C553 H545 0.930 . S
C553 C551 1.419 . S
C553 C554 1.362 . S
C554 H546 0.930 . S
C554 C553 1.362 . S
C554 C557 1.409 1_556 S
C555 H547 0.930 . S
C555 C556 1.355 . S
C555 C557 1.415 . S
C556 C555 1.355 . S
C556 C558 1.419 . S
C557 C552 1.425 1_554 S
C557 C554 1.409 1_554 S
C557 C555 1.415 . S
C558 H548 0.930 . S
C558 C556 1.419 . S
C558 C559 1.362 . S
C559 H549 0.930 . S
C559 C552 1.409 1_554 S
C559 C558 1.362 . S
H560 C566 0.930 . S
H561 C569 0.930 . S
H562 C570 0.930 . S
H563 C571 0.930 . S
H564 C574 0.930 . S
H565 C575 0.930 . S
C566 H560 0.930 . S
C566 C567 1.355 . S
C566 C568 1.415 . S
C567 C566 1.355 . S
C567 C569 1.419 . S
C568 C566 1.415 . S
C568 C573 1.425 . S
C568 C575 1.409 . S
C569 H561 0.930 . S
C569 C567 1.419 . S
C569 C570 1.362 . S
C570 H562 0.930 . S
C570 C569 1.362 . S
C570 C573 1.409 . S
C571 H563 0.930 . S
C571 C572 1.355 . S
C571 C573 1.415 . S
C572 C571 1.355 . S
C572 C574 1.419 . S
C573 C568 1.425 . S
C573 C570 1.409 . S
C573 C571 1.415 . S
C574 H564 0.930 . S
C574 C572 1.419 . S
C574 C575 1.362 . S
C575 H565 0.930 . S
C575 C568 1.409 . S
C575 C574 1.362 . S
H576 C582 0.930 . S
H577 C585 0.930 . S
H578 C586 0.930 . S
H579 C587 0.930 . S
H580 C590 0.930 . S
H581 C591 0.930 . S
C582 H576 0.930 . S
C582 C583 1.355 . S
C582 C584 1.415 . S
C583 C582 1.355 . S
C583 C585 1.419 . S
C584 C582 1.415 . S
C584 C589 1.425 1_554 S
C584 C591 1.409 1_554 S
C585 H577 0.930 . S
C585 C583 1.419 . S
C585 C586 1.362 . S
C586 H578 0.930 . S
C586 C585 1.362 . S
C586 C589 1.409 1_554 S
C587 H579 0.930 . S
C587 C588 1.355 . S
C587 C589 1.415 . S
C588 C587 1.355 . S
C588 C590 1.419 . S
C589 C584 1.425 1_556 S
C589 C586 1.409 1_556 S
C589 C587 1.415 . S
C590 H580 0.930 . S
C590 C588 1.419 . S
C590 C591 1.362 . S
C591 H581 0.930 . S
C591 C584 1.409 1_556 S
C591 C590 1.362 . S
H592 C598 0.930 . S
H593 C601 0.930 . S
H594 C602 0.930 . S
H595 C603 0.930 . S
H596 C606 0.930 . S
H597 C607 0.930 . S
C598 H592 0.930 . S
C598 C599 1.355 . S
C598 C600 1.415 . S
C599 C598 1.355 . S
C599 C601 1.419 . S
C600 C598 1.415 . S
C600 C605 1.425 . S
C600 C607 1.409 . S
C601 H593 0.930 . S
C601 C599 1.419 . S
C601 C602 1.362 . S
C602 H594 0.930 . S
C602 C601 1.362 . S
C602 C605 1.409 . S
C603 H595 0.930 . S
C603 C604 1.355 . S
C603 C605 1.415 . S
C604 C603 1.355 . S
C604 C606 1.419 . S
C605 C600 1.425 . S
C605 C602 1.409 . S
C605 C603 1.415 . S
C606 H596 0.930 . S
C606 C604 1.419 . S
C606 C607 1.362 . S
C607 H597 0.930 . S
C607 C600 1.409 . S
C607 C606 1.362 . S
H608 C614 0.930 . S
H609 C617 0.930 . S
H610 C618 0.930 . S
H611 C619 0.930 . S
H612 C622 0.930 . S
H613 C623 0.930 . S
C614 H608 0.930 . S
C614 C615 1.355 . S
C614 C616 1.415 . S
C615 C614 1.355 . S
C615 C617 1.419 . S
C616 C614 1.415 . S
C616 C621 1.425 . S
C616 C623 1.409 . S
C617 H609 0.930 . S
C617 C615 1.419 . S
C617 C618 1.362 . S
C618 H610 0.930 . S
C618 C617 1.362 . S
C618 C621 1.409 . S
C619 H611 0.930 . S
C619 C620 1.355 . S
C619 C621 1.415 . S
C620 C619 1.355 . S
C620 C622 1.419 . S
C621 C616 1.425 . S
C621 C618 1.409 . S
C621 C619 1.415 . S
C622 H612 0.930 . S
C622 C620 1.419 . S
C622 C623 1.362 . S
C623 H613 0.930 . S
C623 C616 1.409 . S
C623 C622 1.362 . S
H624 C630 0.930 . S
H625 C633 0.930 . S
H626 C634 0.930 . S
H627 C635 0.930 . S
H628 C638 0.930 . S
H629 C639 0.930 . S
C630 H624 0.930 . S
C630 C631 1.355 . S
C630 C632 1.415 . S
C631 C630 1.355 . S
C631 C633 1.419 . S
C632 C630 1.415 . S
C632 C637 1.425 . S
C632 C639 1.409 . S
C633 H625 0.930 . S
C633 C631 1.419 . S
C633 C634 1.362 . S
C634 H626 0.930 . S
C634 C633 1.362 . S
C634 C637 1.409 . S
C635 H627 0.930 . S
C635 C636 1.355 . S
C635 C637 1.415 . S
C636 C635 1.355 . S
C636 C638 1.419 . S
C637 C632 1.425 . S
C637 C634 1.409 . S
C637 C635 1.415 . S
C638 H628 0.930 . S
C638 C636 1.419 . S
C638 C639 1.362 . S
C639 H629 0.930 . S
C639 C632 1.409 . S
C639 C638 1.362 . S
H640 C646 0.930 . S
H641 C649 0.930 . S
H642 C650 0.930 . S
H643 C651 0.930 . S
H644 C654 0.930 . S
H645 C655 0.930 . S
C646 H640 0.930 . S
C646 C647 1.355 . S
C646 C648 1.415 . S
C647 C646 1.355 . S
C647 C649 1.419 . S
C648 C646 1.415 . S
C648 C653 1.425 . S
C648 C655 1.409 . S
C649 H641 0.930 . S
C649 C647 1.419 . S
C649 C650 1.362 . S
C650 H642 0.930 . S
C650 C649 1.362 . S
C650 C653 1.409 . S
C651 H643 0.930 . S
C651 C652 1.355 . S
C651 C653 1.415 . S
C652 C651 1.355 . S
C652 C654 1.419 . S
C653 C648 1.425 . S
C653 C650 1.409 . S
C653 C651 1.415 . S
C654 H644 0.930 . S
C654 C652 1.419 . S
C654 C655 1.362 . S
C655 H645 0.930 . S
C655 C648 1.409 . S
C655 C654 1.362 . S
H656 C662 0.930 . S
H657 C665 0.930 . S
H658 C666 0.930 . S
H659 C667 0.930 . S
H660 C670 0.930 . S
H661 C671 0.930 . S
C662 H656 0.930 . S
C662 C663 1.355 . S
C662 C664 1.415 . S
C663 C662 1.355 . S
C663 C665 1.419 . S
C664 C662 1.415 . S
C664 C669 1.425 . S
C664 C671 1.409 . S
C665 H657 0.930 . S
C665 C663 1.419 . S
C665 C666 1.362 . S
C666 H658 0.930 . S
C666 C665 1.362 . S
C666 C669 1.409 . S
C667 H659 0.930 . S
C667 C668 1.355 . S
C667 C669 1.415 . S
C668 C667 1.355 . S
C668 C670 1.419 . S
C669 C664 1.425 . S
C669 C666 1.409 . S
C669 C667 1.415 . S
C670 H660 0.930 . S
C670 C668 1.419 . S
C670 C671 1.362 . S
C671 H661 0.930 . S
C671 C664 1.409 . S
C671 C670 1.362 . S
H672 C678 0.930 . S
H673 C681 0.930 . S
H674 C682 0.930 . S
H675 C683 0.930 . S
H676 C686 0.930 . S
H677 C687 0.930 . S
C678 H672 0.930 . S
C678 C679 1.355 . S
C678 C680 1.415 . S
C679 C678 1.355 . S
C679 C681 1.419 . S
C680 C678 1.415 . S
C680 C685 1.425 . S
C680 C687 1.409 . S
C681 H673 0.930 . S
C681 C679 1.419 . S
C681 C682 1.362 . S
C682 H674 0.930 . S
C682 C681 1.362 . S
C682 C685 1.409 . S
C683 H675 0.930 . S
C683 C684 1.355 . S
C683 C685 1.415 . S
C684 C683 1.355 . S
C684 C686 1.419 . S
C685 C680 1.425 . S
C685 C682 1.409 . S
C685 C683 1.415 . S
C686 H676 0.930 . S
C686 C684 1.419 . S
C686 C687 1.362 . S
C687 H677 0.930 . S
C687 C680 1.409 . S
C687 C686 1.362 . S
H688 C694 0.930 . S
H689 C697 0.930 . S
H690 C698 0.930 . S
H691 C699 0.930 . S
H692 C702 0.930 . S
H693 C703 0.930 . S
C694 H688 0.930 . S
C694 C695 1.355 . S
C694 C696 1.415 . S
C695 C694 1.355 . S
C695 C697 1.419 . S
C696 C694 1.415 . S
C696 C701 1.425 . S
C696 C703 1.409 . S
C697 H689 0.930 . S
C697 C695 1.419 . S
C697 C698 1.362 . S
C698 H690 0.930 . S
C698 C697 1.362 . S
C698 C701 1.409 . S
C699 H691 0.930 . S
C699 C700 1.355 . S
C699 C701 1.415 . S
C700 C699 1.355 . S
C700 C702 1.419 . S
C701 C696 1.425 . S
C701 C698 1.409 . S
C701 C699 1.415 . S
C702 H692 0.930 . S
C702 C700 1.419 . S
C702 C703 1.362 . S
C703 H693 0.930 . S
C703 C696 1.409 . S
C703 C702 1.362 . S
H704 C710 0.930 . S
H705 C713 0.930 . S
H706 C714 0.930 . S
H707 C715 0.930 . S
H708 C718 0.930 . S
H709 C719 0.930 . S
C710 H704 0.930 . S
C710 C711 1.355 . S
C710 C712 1.415 . S
C711 C710 1.355 . S
C711 C713 1.419 . S
C712 C710 1.415 . S
C712 C717 1.425 . S
C712 C719 1.409 . S
C713 H705 0.930 . S
C713 C711 1.419 . S
C713 C714 1.362 . S
C714 H706 0.930 . S
C714 C713 1.362 . S
C714 C717 1.409 . S
C715 H707 0.930 . S
C715 C716 1.355 . S
C715 C717 1.415 . S
C716 C715 1.355 . S
C716 C718 1.419 . S
C717 C712 1.425 . S
C717 C714 1.409 . S
C717 C715 1.415 . S
C718 H708 0.930 . S
C718 C716 1.419 . S
C718 C719 1.362 . S
C719 H709 0.930 . S
C719 C712 1.409 . S
C719 C718 1.362 . S
C215 C10 1.938 . S
C220 C36 1.938 . S
C231 C49 1.900 . S
C236 C23 1.897 . S
C247 C62 1.937 . S
C252 C88 1.938 . S
C263 C101 1.936 . S
C268 C75 1.938 . S
C279 C114 1.852 . S
C284 C140 1.854 . S
C295 C153 1.802 . S
C300 C127 1.800 . S
C311 C166 1.854 . S
C316 C192 1.856 . S
C327 C205 1.787 . S
C332 C179 1.787 . S
C343 C55 1.490 . S
C348 C3 1.500 . S
C359 C16 1.518 . S
C364 C68 1.536 . S
C375 C29 1.490 . S
C380 C81 1.495 . S
C391 C94 1.544 . S
C396 C42 1.534 . S
C407 C107 1.554 . S
C412 C159 1.549 . S
C423 C120 1.553 . S
C428 C172 1.551 . S
C439 C133 1.546 . S
C444 C185 1.556 . S
C455 C146 1.545 . S
C460 C198 1.556 . S
C471 C131 1.533 . S
C476 C1 1.532 . S
C487 C144 1.520 . S
C492 C14 1.500 . S
C503 C27 1.515 . S
C508 C105 1.535 . S
C519 C40 1.504 . S
C524 C118 1.531 . S
C535 C53 1.500 . S
C540 C183 1.529 . S
C551 C66 1.505 . S
C556 C196 1.519 . S
C567 C79 1.520 . S
C572 C157 1.535 . S
C583 C170 1.519 . S
C588 C92 1.512 . S
C599 C5 1.810 . S
C604 C200 1.725 . S
C615 C161 1.776 . S
C620 C18 1.805 . S
C631 C31 1.805 . S
C636 C174 1.776 . S
C647 C187 1.721 . S
C652 C44 1.811 . S
C663 C122 1.760 . S
C668 C57 1.807 . S
C679 C70 1.805 . S
C684 C135 1.776 . S
C695 C148 1.775 . S
C700 C83 1.805 . S
C711 C109 1.776 . S
C716 C96 1.805 . S
