# Generated by pormake.
# Topology sof, (5)-cn, num edge types: 1
# Building blocks:
#     Node 0, Type 0, BuildingBlock: XOMCOT_clean_sbu_0, # of connection points: 5
#     Node 1, Type 0, BuildingBlock: XOMCOT_clean_sbu_0, # of connection points: 5
#     Node 2, Type 0, BuildingBlock: XOMCOT_clean_sbu_0, # of connection points: 5
#     Node 3, Type 0, BuildingBlock: XOMCOT_clean_sbu_0, # of connection points: 5
#     Node 4, Type 0, BuildingBlock: XOMCOT_clean_sbu_0, # of connection points: 5
#     Node 5, Type 0, BuildingBlock: XOMCOT_clean_sbu_0, # of connection points: 5
#     Node 6, Type 0, BuildingBlock: XOMCOT_clean_sbu_0, # of connection points: 5
#     Node 7, Type 0, BuildingBlock: XOMCOT_clean_sbu_0, # of connection points: 5
#     Edge 8, Type (0, 0), BuildingBlock: XUDNAN_clean_linker_2, # of connection points: 2
#     Edge 9, Type (0, 0), BuildingBlock: XUDNAN_clean_linker_2, # of connection points: 2
#     Edge 10, Type (0, 0), BuildingBlock: XUDNAN_clean_linker_2, # of connection points: 2
#     Edge 11, Type (0, 0), BuildingBlock: XUDNAN_clean_linker_2, # of connection points: 2
#     Edge 12, Type (0, 0), BuildingBlock: XUDNAN_clean_linker_2, # of connection points: 2
#     Edge 13, Type (0, 0), BuildingBlock: XUDNAN_clean_linker_2, # of connection points: 2
#     Edge 14, Type (0, 0), BuildingBlock: XUDNAN_clean_linker_2, # of connection points: 2
#     Edge 15, Type (0, 0), BuildingBlock: XUDNAN_clean_linker_2, # of connection points: 2
#     Edge 16, Type (0, 0), BuildingBlock: XUDNAN_clean_linker_2, # of connection points: 2
#     Edge 17, Type (0, 0), BuildingBlock: XUDNAN_clean_linker_2, # of connection points: 2
#     Edge 18, Type (0, 0), BuildingBlock: XUDNAN_clean_linker_2, # of connection points: 2
#     Edge 19, Type (0, 0), BuildingBlock: XUDNAN_clean_linker_2, # of connection points: 2
#     Edge 20, Type (0, 0), BuildingBlock: XUDNAN_clean_linker_2, # of connection points: 2
#     Edge 21, Type (0, 0), BuildingBlock: XUDNAN_clean_linker_2, # of connection points: 2
#     Edge 22, Type (0, 0), BuildingBlock: XUDNAN_clean_linker_2, # of connection points: 2
#     Edge 23, Type (0, 0), BuildingBlock: XUDNAN_clean_linker_2, # of connection points: 2
#     Edge 24, Type (0, 0), BuildingBlock: XUDNAN_clean_linker_2, # of connection points: 2
#     Edge 25, Type (0, 0), BuildingBlock: XUDNAN_clean_linker_2, # of connection points: 2
#     Edge 26, Type (0, 0), BuildingBlock: XUDNAN_clean_linker_2, # of connection points: 2
#     Edge 27, Type (0, 0), BuildingBlock: XUDNAN_clean_linker_2, # of connection points: 2
# Relax obj value: 0.129
# Max RMSD: 0.156
# Mean RMSD: 0.156
data_MOF--net-sof--node1-XOMCOT_clean_sbu_0--edge1-XUDNAN_clean_linker_2
_symmetry_space_group_name_H-M    P1
_symmetry_Int_Tables_number       1
_symmetry_cell_setting            triclinic
loop_
_symmetry_equiv_pos_as_xyz
'x, y, z'
_cell_length_a     59.05084
_cell_length_b     17.527788
_cell_length_c     46.93324
_cell_angle_alpha  89.977773
_cell_angle_beta   89.956765
_cell_angle_gamma 90.037399
loop_
_atom_site_label
_atom_site_type_symbol
_atom_site_fract_x
_atom_site_fract_y
_atom_site_fract_z
_atom_type_partial_charge
Co0 Co 0.07782 0.04094 0.11251 0.0
C1 C 0.07355 0.8717 0.11347 0.0
C2 C 0.06519 0.91769 0.15423 0.0
C3 C 0.06176 0.83963 0.15493 0.0
N4 N 0.0734 0.93795 0.12839 0.0
N5 N 0.06694 0.81106 0.12914 0.0
H6 H 0.07767 0.86768 0.0911 0.0
H7 H 0.06064 0.95667 0.17108 0.0
C8 C 0.08842 0.07514 0.17345 0.0
O9 O 0.10314 0.01895 0.17309 0.0
N10 N 0.08133 0.14196 0.09624 0.0
C11 C 0.092 0.15812 0.07158 0.0
C12 C 0.09024 0.2351 0.06641 0.0
C13 C 0.07331 0.2095 0.1059 0.0
N14 N 0.07854 0.26734 0.08797 0.0
C15 C 0.12064 0.97001 0.10194 0.0
C16 C 0.14757 0.08993 0.11965 0.0
C17 C 0.15772 0.02694 0.10637 0.0
C18 C 0.14394 0.96552 0.09845 0.0
C19 C 0.12399 0.09148 0.12328 0.0
N20 N 0.11075 0.03198 0.11428 0.0
H21 H 0.11062 0.92512 0.09301 0.0
H22 H 0.1163 0.14212 0.13216 0.0
H23 H 0.1004 0.1166 0.05822 0.0
H24 H 0.06341 0.21601 0.12515 0.0
O25 O 0.07375 1.00062 0.07494 0.0
O26 O 0.04587 0.04252 0.10251 0.0
O27 O 0.07628 0.08885 0.15152 0.0
C28 C 0.0522 0.01204 0.07842 0.0
H29 H 0.05478 0.8072 0.1725 0.0
H30 H 0.09711 0.26526 0.04822 0.0
H31 H 0.15753 0.1391 0.12583 0.0
H32 H 0.15099 0.91519 0.08842 0.0
Co33 Co 0.40367 0.9801 0.09026 0.0
C34 C 0.40173 0.14948 0.099 0.0
C35 C 0.42061 0.09052 0.13135 0.0
C36 C 0.42151 0.16731 0.13687 0.0
N37 N 0.4081 0.07902 0.10782 0.0
N38 N 0.40963 0.20474 0.11665 0.0
H39 H 0.39169 0.15995 0.08012 0.0
H40 H 0.42909 0.04618 0.14328 0.0
C41 C 0.39076 0.87796 0.13892 0.0
O42 O 0.37455 0.84956 0.12294 0.0
N43 N 0.40034 0.87875 0.0732 0.0
C44 C 0.38654 0.8531 0.05235 0.0
C45 C 0.3877 0.77433 0.05143 0.0
C46 C 0.41048 0.81526 0.08346 0.0
N47 N 0.40243 0.75056 0.07148 0.0
C48 C 0.36053 1.01092 0.06552 0.0
C49 C 0.33536 0.01265 0.1151 0.0
C50 C 0.32404 0.01745 0.08883 0.0
C51 C 0.33721 0.0208 0.06399 0.0
C52 C 0.35899 1.00544 0.11564 0.0
N53 N 0.37103 0.99754 0.0909 0.0
H54 H 0.37006 0.01329 0.04595 0.0
H55 H 0.36744 1.00515 0.13601 0.0
H56 H 0.37558 0.88759 0.03933 0.0
H57 H 0.42242 0.81622 0.10093 0.0
O58 O 0.4098 0.024 0.05375 0.0
O59 O 0.43608 0.97564 0.08212 0.0
O60 O 0.4035 0.93137 0.12938 0.0
C61 C 0.43104 1.01023 0.05834 0.0
H62 H 0.43088 0.19365 0.15407 0.0
H63 H 0.37726 0.73736 0.03845 0.0
H64 H 0.32615 0.01264 0.13504 0.0
H65 H 0.32963 0.03006 0.04329 0.0
Co66 Co 0.09109 0.45077 0.4052 0.0
C67 C 0.09162 0.61866 0.40342 0.0
C68 C 0.08051 0.5734 0.36338 0.0
C69 C 0.07865 0.65209 0.36258 0.0
N70 N 0.0886 0.55261 0.3891 0.0
N71 N 0.08539 0.68014 0.38795 0.0
H72 H 0.09744 0.62166 0.42524 0.0
H73 H 0.07521 0.53434 0.34686 0.0
C74 C 0.10174 0.34991 0.3553 0.0
O75 O 0.11784 0.31809 0.37055 0.0
N76 N 0.09318 0.34894 0.42217 0.0
C77 C 0.10176 0.33196 0.44807 0.0
C78 C 0.09882 0.25564 0.45344 0.0
C79 C 0.08431 0.2821 0.41267 0.0
N80 N 0.08803 0.22414 0.43112 0.0
C81 C 0.13477 0.47247 0.43003 0.0
C82 C 0.15997 0.4739 0.38049 0.0
C83 C 0.17133 0.47635 0.40678 0.0
C84 C 0.15819 0.47913 0.43162 0.0
C85 C 0.13623 0.46921 0.37989 0.0
N86 N 0.12405 0.46216 0.40458 0.0
H87 H 0.12535 0.47711 0.44955 0.0
H88 H 0.1278 0.47094 0.35952 0.0
H89 H 0.10893 0.37209 0.4629 0.0
H90 H 0.07491 0.27599 0.39303 0.0
O91 O 0.08557 0.4926 0.4423 0.0
O92 O 0.05865 0.45143 0.41339 0.0
O93 O 0.09004 0.40476 0.36566 0.0
C94 C 0.06415 0.48275 0.43761 0.0
H95 H 0.07153 0.68556 0.3454 0.0
H96 H 0.10422 0.22547 0.47239 0.0
H97 H 0.16922 0.47449 0.36058 0.0
H98 H 0.16586 0.48679 0.45237 0.0
Co99 Co 0.41646 0.5621 0.37956 0.0
C100 C 0.42114 0.39348 0.37802 0.0
C101 C 0.42358 0.43873 0.33588 0.0
C102 C 0.42676 0.36057 0.33466 0.0
N103 N 0.41931 0.45942 0.36311 0.0
N104 N 0.42531 0.33243 0.3613 0.0
H105 H 0.42021 0.39002 0.40094 0.0
H106 H 0.42551 0.4774 0.31816 0.0
C107 C 0.39847 0.59802 0.32037 0.0
O108 O 0.38376 0.54179 0.32137 0.0
N109 N 0.41427 0.6628 0.39636 0.0
C110 C 0.40634 0.67829 0.42263 0.0
C111 C 0.4084 0.75536 0.42756 0.0
C112 C 0.421 0.73072 0.38554 0.0
N113 N 0.41756 0.78824 0.40425 0.0
C114 C 0.37663 0.48744 0.40089 0.0
C115 C 0.3456 0.59407 0.3821 0.0
C116 C 0.33769 0.52951 0.3968 0.0
C117 C 0.35368 0.47577 0.40606 0.0
C118 C 0.36883 0.6028 0.3769 0.0
N119 N 0.384 0.54856 0.38553 0.0
H120 H 0.38842 0.44792 0.41001 0.0
H121 H 0.37465 0.65395 0.36632 0.0
H122 H 0.3997 0.63619 0.43728 0.0
H123 H 0.42888 0.73767 0.36491 0.0
O124 O 0.42778 0.52346 0.41555 0.0
O125 O 0.44889 0.56936 0.38036 0.0
O126 O 0.41198 0.61 0.34109 0.0
C127 C 0.44787 0.53926 0.40566 0.0
H128 H 0.43094 0.3277 0.31586 0.0
H129 H 0.40354 0.78508 0.44683 0.0
H130 H 0.33407 0.63844 0.37526 0.0
H131 H 0.34864 0.42481 0.41746 0.0
Co132 Co 0.90193 0.91935 0.90868 0.0
C133 C 0.90424 0.08911 0.90369 0.0
C134 C 0.92667 0.03068 0.87496 0.0
C135 C 0.928 0.10751 0.86954 0.0
N136 N 0.91164 0.01904 0.89609 0.0
N137 N 0.91383 0.14413 0.88745 0.0
H138 H 0.89136 0.0993 0.91966 0.0
H139 H 0.93557 0.98596 0.86371 0.0
C140 C 0.88404 0.84978 0.85452 0.0
O141 O 0.86644 0.82259 0.86837 0.0
N142 N 0.89331 0.81681 0.92066 0.0
C143 C 0.88368 0.79211 0.94511 0.0
C144 C 0.88261 0.71347 0.94468 0.0
C145 C 0.89904 0.7524 0.90663 0.0
N146 N 0.89211 0.68874 0.92026 0.0
C147 C 0.85939 0.95734 0.93526 0.0
C148 C 0.83888 0.01448 0.88685 0.0
C149 C 0.82653 1.01094 0.91222 0.0
C150 C 0.83699 0.98268 0.93673 0.0
C151 C 0.86103 0.98694 0.88618 0.0
N152 N 0.87073 0.95558 0.90992 0.0
H153 H 0.8678 0.94181 0.95472 0.0
H154 H 0.87057 0.99281 0.86667 0.0
H155 H 0.87864 0.82725 0.9628 0.0
H156 H 0.90873 0.75206 0.88708 0.0
O157 O 0.9114 0.94375 0.94715 0.0
O158 O 0.93301 0.89091 0.91385 0.0
O159 O 0.89911 0.88884 0.86746 0.0
C160 C 0.93109 0.9167 0.93972 0.0
H161 H 0.93833 0.13439 0.85332 0.0
H162 H 0.87549 0.67747 0.96114 0.0
H163 H 0.83149 0.03856 0.86774 0.0
H164 H 0.82818 0.98252 0.95699 0.0
Co165 Co 0.58369 0.12852 0.89324 0.0
C166 C 0.58579 0.95742 0.88566 0.0
C167 C 0.56001 0.01253 0.8609 0.0
C168 C 0.55946 0.93601 0.85494 0.0
N169 N 0.57672 0.02653 0.87977 0.0
N170 N 0.57564 0.90157 0.87047 0.0
H171 H 0.59962 0.94738 0.90012 0.0
H172 H 0.54914 0.05566 0.8517 0.0
C173 C 0.59325 0.1309 0.8306 0.0
O174 O 0.60416 0.066 0.83342 0.0
N175 N 0.5897 0.23097 0.90604 0.0
C176 C 0.60132 0.25327 0.92927 0.0
C177 C 0.60338 0.33173 0.92865 0.0
C178 C 0.58469 0.29537 0.8918 0.0
N179 N 0.59304 0.35784 0.90491 0.0
C180 C 0.62513 0.06473 0.9156 0.0
C181 C 0.65364 0.15028 0.88149 0.0
C182 C 0.66318 0.1039 0.90258 0.0
C183 C 0.64862 0.05996 0.91962 0.0
C184 C 0.63026 0.15369 0.87836 0.0
N185 N 0.6162 0.10953 0.89461 0.0
H186 H 0.6141 0.035 0.93024 0.0
H187 H 0.6236 0.19565 0.86384 0.0
H188 H 0.60842 0.21505 0.945 0.0
H189 H 0.5753 0.29625 0.87204 0.0
O190 O 0.57507 0.09917 0.93176 0.0
O191 O 0.552 0.14572 0.89876 0.0
O192 O 0.58499 0.16435 0.85243 0.0
C193 C 0.55471 0.12057 0.92456 0.0
H194 H 0.54798 0.90766 0.8404 0.0
H195 H 0.61252 0.36641 0.94386 0.0
H196 H 0.66412 0.18568 0.86791 0.0
H197 H 0.65523 0.02502 0.93674 0.0
Co198 Co 0.91081 0.62624 0.5996 0.0
C199 C 0.91038 0.45415 0.60704 0.0
C200 C 0.929 0.51435 0.63909 0.0
C201 C 0.93037 0.43785 0.64483 0.0
N202 N 0.91584 0.52541 0.61597 0.0
N203 N 0.91858 0.39997 0.62478 0.0
H204 H 0.90117 0.44099 0.58792 0.0
H205 H 0.93737 0.55922 0.65088 0.0
C206 C 0.89687 0.64439 0.6606 0.0
O207 O 0.88495 0.58135 0.65828 0.0
N208 N 0.90719 0.72778 0.58422 0.0
C209 C 0.89605 0.75038 0.56063 0.0
C210 C 0.89525 0.82933 0.56044 0.0
C211 C 0.9133 0.79235 0.59765 0.0
N212 N 0.9059 0.85526 0.58398 0.0
C213 C 0.8683 0.55479 0.58235 0.0
C214 C 0.8412 0.65739 0.61109 0.0
C215 C 0.83106 0.59209 0.59948 0.0
C216 C 0.8449 0.54174 0.58391 0.0
C217 C 0.86455 0.66654 0.6098 0.0
N218 N 0.87804 0.61267 0.5974 0.0
H219 H 0.87845 0.5189 0.56885 0.0
H220 H 0.87182 0.71709 0.61926 0.0
H221 H 0.88811 0.71231 0.5455 0.0
H222 H 0.92242 0.79311 0.61762 0.0
O223 O 0.92016 0.58909 0.56234 0.0
O224 O 0.94285 0.63666 0.59562 0.0
O225 O 0.90808 0.66973 0.63928 0.0
C226 C 0.9406 0.60807 0.57024 0.0
H227 H 0.93974 0.41194 0.66212 0.0
H228 H 0.88643 0.86454 0.54509 0.0
H229 H 0.8313 0.70134 0.62143 0.0
H230 H 0.83794 0.49208 0.5734 0.0
Co231 Co 0.59188 0.39259 0.57817 0.0
C232 C 0.59084 0.56209 0.58557 0.0
C233 C 0.56524 0.50345 0.60973 0.0
C234 C 0.56337 0.58022 0.61496 0.0
N235 N 0.58251 0.49194 0.59154 0.0
N236 N 0.57948 0.6172 0.5999 0.0
H237 H 0.60509 0.57237 0.57156 0.0
H238 H 0.55468 0.45887 0.61855 0.0
C239 C 0.5994 0.30334 0.63175 0.0
O240 O 0.6178 0.27486 0.62012 0.0
N241 N 0.60012 0.29068 0.56509 0.0
C242 C 0.61696 0.26629 0.54786 0.0
C243 C 0.61689 0.18741 0.54747 0.0
C244 C 0.58955 0.22638 0.57375 0.0
N245 N 0.59985 0.16259 0.56419 0.0
C246 C 0.63758 0.43357 0.56373 0.0
C247 C 0.65238 0.45999 0.6186 0.0
C248 C 0.66778 0.46981 0.59605 0.0
C249 C 0.65985 0.45763 0.56822 0.0
C250 C 0.63009 0.43836 0.61303 0.0
N251 N 0.62326 0.42052 0.58604 0.0
H252 H 0.63172 0.42763 0.54209 0.0
H253 H 0.6183 0.43773 0.63058 0.0
H254 H 0.62892 0.30192 0.53677 0.0
H255 H 0.57517 0.22639 0.58806 0.0
O256 O 0.59012 0.42786 0.53947 0.0
O257 O 0.56161 0.3761 0.56342 0.0
O258 O 0.58728 0.35138 0.61803 0.0
C259 C 0.569 0.40719 0.53996 0.0
H260 H 0.5509 0.60687 0.62861 0.0
H261 H 0.62919 0.15128 0.53696 0.0
H262 H 0.65727 0.46922 0.64054 0.0
H263 H 0.67046 0.46833 0.54985 0.0
H264 H 0.1946 0.07848 0.13761 0.0
H265 H 0.176 0.97598 0.05662 0.0
H266 H 0.21613 0.96419 0.04395 0.0
H267 H 0.24271 0.18848 0.10861 0.0
H268 H 0.2598 0.17559 0.14005 0.0
H269 H 0.22937 0.17794 0.14296 0.0
H270 H 0.23003 0.0464 0.16812 0.0
H271 H 0.26042 0.04332 0.16506 0.0
H272 H 0.24353 0.96668 0.15078 0.0
H273 H 0.25736 0.95229 0.04139 0.0
H274 H 0.29855 0.95307 0.04655 0.0
H275 H 0.292 0.0754 0.12681 0.0
C276 C 0.199 0.0545 0.11708 0.0
C277 C 0.18209 0.02646 0.09843 0.0
C278 C 0.18858 0.99559 0.07171 0.0
C279 C 0.21135 0.98917 0.06416 0.0
C280 C 0.22755 0.01518 0.08327 0.0
C281 C 0.22181 0.0484 0.10896 0.0
C282 C 0.2429 0.07164 0.12533 0.0
C283 C 0.24374 0.15859 0.12948 0.0
C284 C 0.24429 0.02948 0.15402 0.0
C285 C 0.26125 0.04484 0.10496 0.0
C286 C 0.25185 0.01222 0.08096 0.0
C287 C 0.26501 0.97947 0.05972 0.0
C288 C 0.28851 0.98092 0.06279 0.0
C289 C 0.29884 0.01626 0.0867 0.0
C290 C 0.28485 0.04822 0.10818 0.0
H291 H 0.30038 0.56973 0.3641 0.0
H292 H 0.31913 0.46606 0.44491 0.0
H293 H 0.27918 0.43791 0.45458 0.0
H294 H 0.2492 0.66077 0.39191 0.0
H295 H 0.23346 0.6472 0.35942 0.0
H296 H 0.26379 0.65798 0.35817 0.0
H297 H 0.26699 0.52984 0.33099 0.0
H298 H 0.2367 0.51823 0.33244 0.0
H299 H 0.25493 0.44473 0.34638 0.0
H300 H 0.23807 0.41332 0.45458 0.0
H301 H 0.19693 0.40806 0.44809 0.0
H302 H 0.20324 0.54069 0.37013 0.0
C303 C 0.29612 0.54195 0.384 0.0
C304 C 0.31318 0.51849 0.40336 0.0
C305 C 0.30666 0.48223 0.42915 0.0
C306 C 0.28392 0.46645 0.43501 0.0
C307 C 0.26771 0.48859 0.41523 0.0
C308 C 0.27335 0.52686 0.39051 0.0
C309 C 0.25229 0.54635 0.37343 0.0
C310 C 0.24953 0.63324 0.37057 0.0
C311 C 0.25276 0.50745 0.34407 0.0
C312 C 0.23403 0.51229 0.39236 0.0
C313 C 0.24346 0.47864 0.41617 0.0
C314 C 0.23039 0.44091 0.43636 0.0
C315 C 0.20694 0.43885 0.43253 0.0
C316 C 0.19655 0.47571 0.40898 0.0
C317 C 0.21046 0.51204 0.38841 0.0
H318 H 0.78766 0.92962 0.9207 0.0
H319 H 0.81319 0.15775 0.90534 0.0
H320 H 0.77396 0.20769 0.90526 0.0
H321 H 0.74079 0.94488 0.87392 0.0
H322 H 0.72179 0.88903 0.89561 0.0
H323 H 0.75184 0.87252 0.89742 0.0
H324 H 0.7509 0.89484 0.95198 0.0
H325 H 0.72081 0.91157 0.95033 0.0
H326 H 0.73923 0.98236 0.9658 0.0
H327 H 0.73248 0.23182 0.90535 0.0
H328 H 0.69092 0.22876 0.90198 0.0
H329 H 0.69173 0.98317 0.91428 0.0
C330 C 0.78486 0.99019 0.91779 0.0
C331 C 0.8032 0.04042 0.91334 0.0
C332 C 0.79918 0.11897 0.90893 0.0
C333 C 0.77704 0.14765 0.90896 0.0
C334 C 0.75922 0.09671 0.91319 0.0
C335 C 0.76281 0.01957 0.91731 0.0
C336 C 0.74057 0.97651 0.91915 0.0
C337 C 0.73864 0.91726 0.89509 0.0
C338 C 0.73772 0.93912 0.94857 0.0
C339 C 0.72393 0.04139 0.91506 0.0
C340 C 0.7351 0.11026 0.91209 0.0
C341 C 0.72353 0.17825 0.90755 0.0
C342 C 0.69992 0.17574 0.90544 0.0
C343 C 0.68805 0.10554 0.90743 0.0
C344 C 0.70027 0.03772 0.91284 0.0
H345 H 0.70625 0.43893 0.56407 0.0
H346 H 0.68377 0.56006 0.63995 0.0
H347 H 0.723 0.59688 0.6499 0.0
H348 H 0.75979 0.37423 0.58966 0.0
H349 H 0.7746 0.39253 0.55676 0.0
H350 H 0.74482 0.37021 0.55623 0.0
H351 H 0.73663 0.49546 0.52877 0.0
H352 H 0.7664 0.51783 0.52898 0.0
H353 H 0.74627 0.58502 0.54324 0.0
H354 H 0.76459 0.61643 0.65297 0.0
H355 H 0.80543 0.63207 0.64599 0.0
H356 H 0.80046 0.5165 0.56417 0.0
C357 C 0.70935 0.47392 0.58264 0.0
C358 C 0.6916 0.49481 0.60148 0.0
C359 C 0.69686 0.54031 0.62562 0.0
C360 C 0.71917 0.56239 0.63139 0.0
C361 C 0.7361 0.54024 0.61252 0.0
C362 C 0.73145 0.49835 0.58835 0.0
C363 C 0.75268 0.48608 0.57071 0.0
C364 C 0.7583 0.40068 0.5682 0.0
C365 C 0.75035 0.52334 0.54118 0.0
C366 C 0.76997 0.52744 0.58889 0.0
C367 C 0.76002 0.55709 0.61311 0.0
C368 C 0.77252 0.59503 0.63377 0.0
C369 C 0.79577 0.60432 0.62937 0.0
C370 C 0.80638 0.57767 0.60407 0.0
C371 C 0.79315 0.53786 0.58374 0.0
H372 H 0.00669 0.04734 0.07294 0.0
H373 H 0.06147 0.9193 0.03383 0.0
H374 H 0.03576 0.87651 0.99598 0.0
H375 H 0.96161 0.91102 0.05636 0.0
H376 H 0.94096 0.98384 0.04865 0.0
H377 H 0.96328 1.00236 0.07389 0.0
H378 H 0.9754 0.12154 0.04496 0.0
H379 H 0.9531 0.10346 0.01969 0.0
H380 H 0.98199 0.11165 0.00762 0.0
H381 H 0.00534 0.85093 0.96154 0.0
H382 H 0.97136 0.84551 0.93133 0.0
H383 H 0.93542 0.9895 0.99156 0.0
C384 C 0.01315 1.0099 0.0565 0.0
C385 C 0.03609 0.98682 0.0563 0.0
C386 C 0.04401 0.9382 0.03434 0.0
C387 C 0.02952 0.91319 0.01278 0.0
C388 C 0.00711 0.93727 0.01338 0.0
C389 C -0.00113 0.98456 0.03454 0.0
C390 C 0.97416 1.00385 0.02926 0.0
C391 C 0.95911 0.97343 0.05348 0.0
C392 C 0.97099 0.09025 0.02513 0.0
C393 C 0.97001 0.96061 0.00173 0.0
C394 C 0.98928 0.92235 0.99315 0.0
C395 C 0.99007 0.88023 0.96806 0.0
C396 C 0.97068 0.87762 0.95102 0.0
C397 C 0.95075 0.9169 0.95912 0.0
C398 C 0.95036 0.95833 0.98498 0.0
H399 H 0.4763 0.96841 0.05273 0.0
H400 H 0.42428 0.11647 0.0177 0.0
H401 H 0.45119 0.16483 0.98232 0.0
H402 H 0.52402 0.10071 0.04171 0.0
H403 H 0.54354 0.02662 0.03144 0.0
H404 H 0.52072 1.00559 0.05575 0.0
H405 H 0.50701 0.89714 0.02249 0.0
H406 H 0.52978 0.91779 -0.00187 0.0
H407 H 0.50091 0.91813 0.98568 0.0
H408 H 0.48188 0.19326 0.94945 0.0
H409 H 0.51581 0.19998 0.91933 0.0
H410 H 0.54951 0.03524 0.97393 0.0
C411 C 0.47074 1.01147 0.03774 0.0
C412 C 0.44816 0.03848 0.03794 0.0
C413 C 0.44141 0.09438 0.01786 0.0
C414 C 0.45661 0.12267 -0.00228 0.0
C415 C 0.47859 0.09458 -0.00221 0.0
C416 C 0.48579 0.04028 0.01711 0.0
C417 C 0.51025 0.01802 0.01124 0.0
C418 C 0.52554 0.03901 0.03655 0.0
C419 C 0.51209 0.9327 0.00395 0.0
C420 C 0.51535 0.06763 0.98543 0.0
C421 C 0.49677 0.11147 0.97833 0.0
C422 C 0.49665 0.15972 0.95483 0.0
C423 C 0.516 0.16289 0.9378 0.0
C424 C 0.53528 0.11825 0.94431 0.0
C425 C 0.53507 0.07061 0.96867 0.0
H426 H 0.01811 0.45021 0.44186 0.0
H427 H 0.07261 0.58048 0.48066 0.0
H428 H 0.04637 0.62887 0.5168 0.0
H429 H 0.97337 0.59127 0.45479 0.0
H430 H 0.95208 0.52095 0.46312 0.0
H431 H 0.97478 0.4977 0.43894 0.0
H432 H 0.98546 0.38158 0.4703 0.0
H433 H 0.96282 0.40447 0.49456 0.0
H434 H 0.9914 0.39575 0.5076 0.0
H435 H 0.01587 0.65992 0.5496 0.0
H436 H 0.98151 0.67331 0.57848 0.0
H437 H 0.94513 0.52489 0.52014 0.0
C438 C 0.02438 0.48927 0.45789 0.0
C439 C 0.04745 0.51123 0.4585 0.0
C440 C 0.0551 0.56217 0.47986 0.0
C441 C 0.0403 0.5904 0.50047 0.0
C442 C 0.01782 0.56725 0.49957 0.0
C443 C 0.00973 0.51799 0.47897 0.0
C444 C 0.98474 0.50117 0.48386 0.0
C445 C 0.9704 0.52948 0.45868 0.0
C446 C 0.98089 0.41566 0.48941 0.0
C447 C 0.98031 0.54819 0.51052 0.0
C448 C -0.00026 0.58582 0.51896 0.0
C449 C 0.00048 0.63114 0.54321 0.0
C450 C 0.98084 0.63813 0.55953 0.0
C451 C 0.96063 0.60016 0.5516 0.0
C452 C 0.96031 0.55498 0.52659 0.0
H453 H 0.45155 0.47481 0.45899 0.0
H454 H 0.49132 0.56344 0.38846 0.0
H455 H 0.52641 0.53285 0.41437 0.0
H456 H 0.48732 0.54612 0.51456 0.0
H457 H 0.48381 0.46393 0.53724 0.0
H458 H 0.46168 0.49042 0.5128 0.0
H459 H 0.46287 0.35515 0.49058 0.0
H460 H 0.48511 0.32833 0.51487 0.0
H461 H 0.48928 0.31856 0.477 0.0
H462 H 0.55702 0.49611 0.44777 0.0
H463 H 0.58168 0.45882 0.48769 0.0
H464 H 0.52256 0.39341 0.53712 0.0
C465 C 0.46765 0.48765 0.44901 0.0
C466 C 0.46871 0.52153 0.4217 0.0
C467 C 0.49008 0.53755 0.40936 0.0
C468 C 0.51013 0.52019 0.42387 0.0
C469 C 0.50853 0.48672 0.45068 0.0
C470 C 0.48789 0.47073 0.46324 0.0
C471 C 0.49105 0.43633 0.49263 0.0
C472 C 0.48033 0.48726 0.51566 0.0
C473 C 0.48151 0.35474 0.49383 0.0
C474 C 0.51668 0.43639 0.49469 0.0
C475 C 0.52636 0.46529 0.47013 0.0
C476 C 0.54968 0.47305 0.46707 0.0
C477 C 0.56354 0.4517 0.48989 0.0
C478 C 0.55405 0.42301 0.51546 0.0
C479 C 0.5303 0.41447 0.51772 0.0
H480 H 0.12034 0.22522 0.32883 0.0
H481 H 0.07147 0.40733 0.31651 0.0
H482 H 0.06246 0.3563 0.2688 0.0
H483 H 0.14109 0.22066 0.25676 0.0
H484 H 0.14421 0.11838 0.25616 0.0
H485 H 0.14682 0.16942 0.28929 0.0
H486 H 0.11534 0.08504 0.31153 0.0
H487 H 0.11285 0.03349 0.27853 0.0
H488 H 0.08825 0.07795 0.29402 0.0
H489 H 0.05867 0.28482 0.22241 0.0
H490 H 0.06073 0.19928 0.18072 0.0
H491 H 0.11206 0.06411 0.22361 0.0
C492 C 0.10781 0.25471 0.31609 0.0
C493 C 0.09667 0.32052 0.32642 0.0
C494 C 0.08027 0.35693 0.30908 0.0
C495 C 0.07501 0.32833 0.28195 0.0
C496 C 0.08626 0.26322 0.27249 0.0
C497 C 0.10233 0.22691 0.28902 0.0
C498 C 0.11196 0.15783 0.2739 0.0
C499 C 0.13754 0.16717 0.26872 0.0
C500 C 0.10678 0.08421 0.29049 0.0
C501 C 0.09881 0.16093 0.24627 0.0
C502 C 0.08405 0.22207 0.24586 0.0
C503 C 0.07014 0.23668 0.22252 0.0
C504 C 0.07142 0.18763 0.19895 0.0
C505 C 0.08651 0.12473 0.19888 0.0
C506 C 0.10029 0.11142 0.22298 0.0
H507 H 0.37504 0.58821 0.26943 0.0
H508 H 0.42524 0.72384 0.31434 0.0
H509 H 0.42806 0.81022 0.2734 0.0
H510 H 0.40117 0.60416 0.20029 0.0
H511 H 0.37479 0.61083 0.18114 0.0
H512 H 0.37604 0.55934 0.21431 0.0
H513 H 0.34387 0.64335 0.23483 0.0
H514 H 0.34239 0.69496 0.20168 0.0
H515 H 0.34688 0.74572 0.23459 0.0
H516 H 0.42613 0.8815 0.22781 0.0
H517 H 0.41938 0.9335 0.17975 0.0
H518 H 0.37069 0.75269 0.16357 0.0
C519 C 0.38658 0.63613 0.27065 0.0
C520 C 0.39984 0.64911 0.29526 0.0
C521 C 0.41482 0.71246 0.29589 0.0
C522 C 0.41659 0.76207 0.27268 0.0
C523 C 0.40337 0.74766 0.2488 0.0
C524 C 0.38868 0.68632 0.2475 0.0
C525 C 0.37666 0.68374 0.21897 0.0
C526 C 0.38252 0.61015 0.20272 0.0
C527 C 0.35092 0.69249 0.22276 0.0
C528 C 0.38689 0.75326 0.20462 0.0
C529 C 0.40227 0.78915 0.22225 0.0
C530 C 0.4141 0.85406 0.21376 0.0
C531 C 0.41016 0.88313 0.18641 0.0
C532 C 0.39446 0.84741 0.16791 0.0
C533 C 0.38268 0.78167 0.17727 0.0
H534 H 0.86596 0.73188 0.82336 0.0
H535 H 0.90949 0.93084 0.81678 0.0
H536 H 0.91657 0.90154 0.76617 0.0
H537 H 0.90003 0.61116 0.77994 0.0
H538 H 0.87647 0.56273 0.76354 0.0
H539 H 0.87359 0.60176 0.79884 0.0
H540 H 0.83884 0.68058 0.78238 0.0
H541 H 0.84158 0.6416 0.74703 0.0
H542 H 0.8415 0.74351 0.75217 0.0
H543 H 0.91982 0.84962 0.71696 0.0
H544 H 0.91947 0.77708 0.67205 0.0
H545 H 0.87449 0.60972 0.71042 0.0
C546 C 0.8767 0.76983 0.81112 0.0
C547 C 0.88707 0.83387 0.82389 0.0
C548 C 0.90139 0.88142 0.80739 0.0
C549 C 0.90548 0.86539 0.77862 0.0
C550 C 0.89524 0.80135 0.76673 0.0
C551 C 0.88117 0.75419 0.78239 0.0
C552 C 0.87312 0.68717 0.76469 0.0
C553 C 0.88129 0.61123 0.77752 0.0
C554 C 0.84722 0.68833 0.76137 0.0
C555 C 0.88488 0.70415 0.73667 0.0
C556 C 0.89746 0.77046 0.73833 0.0
C557 C 0.91 0.79767 0.71534 0.0
C558 C 0.90969 0.75595 0.68991 0.0
C559 C 0.89696 0.68764 0.68766 0.0
C560 C 0.88438 0.66168 0.71142 0.0
H561 H 0.61305 0.08667 0.78023 0.0
H562 H 0.5677 0.25556 0.81669 0.0
H563 H 0.56304 0.3144 0.76934 0.0
H564 H 0.64119 0.21375 0.73245 0.0
H565 H 0.64387 0.14452 0.70426 0.0
H566 H 0.64287 0.11351 0.74081 0.0
H567 H 0.60888 0.02538 0.72898 0.0
H568 H 0.60969 0.05644 0.69239 0.0
H569 H 0.58393 0.06544 0.71271 0.0
H570 H 0.56328 0.35519 0.71812 0.0
H571 H 0.57041 0.38001 0.6671 0.0
H572 H 0.61635 0.18682 0.66426 0.0
C573 C 0.60205 0.1358 0.77825 0.0
C574 C 0.59068 0.16629 0.80217 0.0
C575 C 0.5766 0.2311 0.79869 0.0
C576 C 0.57376 0.26481 0.77186 0.0
C577 C 0.58517 0.23325 0.74872 0.0
C578 C 0.59914 0.17049 0.75165 0.0
C579 C 0.61009 0.14949 0.72353 0.0
C580 C 0.63604 0.15572 0.72539 0.0
C581 C 0.6027 0.06944 0.71384 0.0
C582 C 0.60027 0.2107 0.70444 0.0
C583 C 0.58573 0.25788 0.71931 0.0
C584 C 0.57463 0.31864 0.70623 0.0
C585 C 0.57874 0.33212 0.67723 0.0
C586 C 0.59399 0.28551 0.66175 0.0
C587 C 0.6047 0.22368 0.67557 0.0
H588 H 0.07303 0.67989 0.15972 0.0
H589 H 0.05543 0.76581 0.07591 0.0
H590 H 0.0541 0.63447 0.05749 0.0
H591 H 0.10932 0.5325 0.13616 0.0
H592 H 0.10087 0.4638 0.16273 0.0
H593 H 0.09882 0.56428 0.17023 0.0
H594 H 0.05624 0.54837 0.18209 0.0
H595 H 0.0582 0.44769 0.17464 0.0
H596 H 0.03763 0.50541 0.15622 0.0
H597 H 0.05748 0.49639 0.04692 0.0
H598 H 0.0648 0.35789 0.04504 0.0
H599 H 0.07924 0.3569 0.13555 0.0
C600 C 0.06849 0.67077 0.13765 0.0
C601 C 0.0645 0.73341 0.11922 0.0
C602 C 0.05894 0.71914 0.09034 0.0
C603 C 0.05795 0.64456 0.07971 0.0
C604 C 0.06241 0.58432 0.09821 0.0
C605 C 0.06745 0.59622 0.12661 0.0
C606 C 0.07256 0.521 0.14145 0.0
C607 C 0.09684 0.52039 0.15334 0.0
C608 C 0.05511 0.50466 0.165 0.0
C609 C 0.07002 0.46541 0.1168 0.0
C610 C 0.06405 0.50349 0.09212 0.0
C611 C 0.0619 0.46579 0.06616 0.0
C612 C 0.06618 0.38725 0.06525 0.0
C613 C 0.07246 0.34678 0.09012 0.0
C614 C 0.07406 0.38631 0.11635 0.0
H615 H 0.40318 0.29253 0.06869 0.0
H616 H 0.40993 0.30414 0.1607 0.0
H617 H 0.40941 0.44405 0.15845 0.0
H618 H 0.43791 0.45355 0.05234 0.0
H619 H 0.42046 0.48852 0.02368 0.0
H620 H 0.42075 0.38818 0.03202 0.0
H621 H 0.3772 0.38957 0.0384 0.0
H622 H 0.37675 0.48979 0.02983 0.0
H623 H 0.36453 0.45661 0.06279 0.0
H624 H 0.41053 0.58154 0.14674 0.0
H625 H 0.40911 0.71079 0.12663 0.0
H626 H 0.40005 0.61574 0.042 0.0
C627 C 0.40422 0.32454 0.08836 0.0
C628 C 0.40697 0.28677 0.11488 0.0
C629 C 0.40837 0.3312 0.14008 0.0
C630 C 0.40798 0.41097 0.13906 0.0
C631 C 0.40593 0.44633 0.11267 0.0
C632 C 0.40372 0.40496 0.08776 0.0
C633 C 0.40166 0.45832 0.0623 0.0
C634 C 0.42137 0.44641 0.04135 0.0
C635 C 0.37866 0.44795 0.04745 0.0
C636 C 0.40324 0.53572 0.07688 0.0
C637 C 0.40586 0.52697 0.10593 0.0
C638 C 0.40831 0.58926 0.12405 0.0
C639 C 0.40773 0.66269 0.11232 0.0
C640 C 0.40461 0.67391 0.08265 0.0
C641 C 0.40237 0.60915 0.06474 0.0
H642 H 0.09216 0.13607 0.38352 0.0
H643 H 0.07237 0.13144 0.47242 0.0
H644 H 0.06771 0.99165 0.46997 0.0
H645 H 0.05453 0.97869 0.35896 0.0
H646 H 0.07567 0.94285 0.33467 0.0
H647 H 0.07479 0.04309 0.34324 0.0
H648 H 0.11721 0.03581 0.35951 0.0
H649 H 0.11732 0.93596 0.35042 0.0
H650 H 0.12512 0.96604 0.38581 0.0
H651 H 0.06843 0.85291 0.4595 0.0
H652 H 0.07272 0.72222 0.44098 0.0
H653 H 0.09202 0.81281 0.35843 0.0
C654 C 0.08625 0.10556 0.40216 0.0
C655 C 0.08247 0.14444 0.42816 0.0
C656 C 0.07536 0.1026 0.45237 0.0
C657 C 0.07264 0.02328 0.45115 0.0
C658 C 0.07712 0.98626 0.42552 0.0
C659 C 0.08363 0.02578 0.40137 0.0
C660 C 0.08867 0.97105 0.37706 0.0
C661 C 0.07245 0.9847 0.35199 0.0
C662 C 0.11355 0.97759 0.36763 0.0
C663 C 0.08411 0.89479 0.39142 0.0
C664 C 0.0775 0.90526 0.4194 0.0
C665 C 0.07341 0.84395 0.43757 0.0
C666 C 0.07611 0.76986 0.42692 0.0
C667 C 0.0828 0.75722 0.39831 0.0
C668 C 0.08667 0.82078 0.38029 0.0
H669 H 0.41153 0.87814 0.35735 0.0
H670 H 0.43579 0.87881 0.44445 0.0
H671 H 0.44299 0.01729 0.44129 0.0
H672 H 0.45051 0.0259 0.32952 0.0
H673 H 0.42923 0.06875 0.30713 0.0
H674 H 0.42798 0.9682 0.3151 0.0
H675 H 0.38721 0.98464 0.33441 0.0
H676 H 0.38833 0.08513 0.32657 0.0
H677 H 0.38183 0.05334 0.36218 0.0
H678 H 0.44572 0.15531 0.43001 0.0
H679 H 0.44277 0.28658 0.4119 0.0
H680 H 0.41543 0.20117 0.33223 0.0
C681 C 0.41878 0.9075 0.37546 0.0
C682 C 0.42325 0.86786 0.40114 0.0
C683 C 0.43222 0.90825 0.42468 0.0
C684 C 0.43646 0.98677 0.42301 0.0
C685 C 0.43152 0.02456 0.39766 0.0
C686 C 0.42284 0.98659 0.37427 0.0
C687 C 0.41761 0.04235 0.35032 0.0
C688 C 0.43221 0.02527 0.32396 0.0
C689 C 0.39224 0.04129 0.34295 0.0
C690 C 0.42444 0.11746 0.3641 0.0
C691 C 0.43261 0.1054 0.39131 0.0
C692 C 0.43936 0.16551 0.40873 0.0
C693 C 0.43744 0.24011 0.3983 0.0
C694 C 0.42866 0.25462 0.37071 0.0
C695 C 0.4224 0.19202 0.35327 0.0
H696 H 0.89373 0.55851 0.9523 0.0
H697 H 0.89471 0.64246 0.86523 0.0
H698 H 0.89896 0.51105 0.84764 0.0
H699 H 0.93483 0.41224 0.9431 0.0
H700 H 0.92084 0.34436 0.966 0.0
H701 H 0.91719 0.44507 0.97197 0.0
H702 H 0.87366 0.42891 0.96852 0.0
H703 H 0.87718 0.32806 0.96252 0.0
H704 H 0.86154 0.38498 0.93733 0.0
H705 H 0.90464 0.37239 0.83936 0.0
H706 H 0.91106 0.23346 0.84082 0.0
H707 H 0.90533 0.23643 0.93291 0.0
C708 C 0.8946 0.54923 0.92954 0.0
C709 C 0.89411 0.61122 0.9102 0.0
C710 C 0.89552 0.59639 0.88055 0.0
C711 C 0.89773 0.52175 0.8703 0.0
C712 C 0.89837 0.46222 0.88993 0.0
C713 C 0.89676 0.47483 0.9189 0.0
C714 C 0.89837 0.40042 0.93535 0.0
C715 C 0.91904 0.40056 0.95528 0.0
C716 C 0.87638 0.38468 0.95191 0.0
C717 C 0.90139 0.34425 0.91107 0.0
C718 C 0.9013 0.38137 0.88508 0.0
C719 C 0.90463 0.34259 0.85956 0.0
C720 C 0.90839 0.26382 0.86061 0.0
C721 C 0.90873 0.2244 0.88696 0.0
C722 C 0.90488 0.26513 0.91249 0.0
H723 H 0.58612 0.81119 0.91563 0.0
H724 H 0.57663 0.81158 0.82408 0.0
H725 H 0.58253 0.6722 0.82287 0.0
H726 H 0.6292 0.65801 0.91815 0.0
H727 H 0.6178 0.61723 0.95038 0.0
H728 H 0.61513 0.71815 0.94379 0.0
H729 H 0.57164 0.70791 0.95009 0.0
H730 H 0.57416 0.60704 0.95655 0.0
H731 H 0.55594 0.64125 0.92853 0.0
H732 H 0.58709 0.53378 0.8316 0.0
H733 H 0.58976 0.40252 0.84971 0.0
H734 H 0.595 0.48898 0.93616 0.0
C735 C 0.58581 0.78182 0.89534 0.0
C736 C 0.58103 0.8217 0.8699 0.0
C737 C 0.58018 0.78163 0.84376 0.0
C738 C 0.58361 0.70272 0.84286 0.0
C739 C 0.58781 0.66468 0.86835 0.0
C740 C 0.58895 0.70261 0.89413 0.0
C741 C 0.5922 0.64696 0.91855 0.0
C742 C 0.61494 0.66093 0.9336 0.0
C743 C 0.5723 0.65105 0.93966 0.0
C744 C 0.59232 0.57194 0.90245 0.0
C745 C 0.58998 0.5838 0.8735 0.0
C746 C 0.58898 0.52364 0.85423 0.0
C747 C 0.59028 0.44914 0.86479 0.0
C748 C 0.59238 0.43514 0.89443 0.0
C749 C 0.59362 0.4977 0.91341 0.0
H750 H 0.90696 0.98782 0.55323 0.0
H751 H 0.90589 0.89771 0.63941 0.0
H752 H 0.90796 0.02783 0.65856 0.0
H753 H 0.94616 0.1395 0.56661 0.0
H754 H 0.93228 0.20759 0.54375 0.0
H755 H 0.93006 0.10706 0.53633 0.0
H756 H 0.8863 0.11711 0.53732 0.0
H757 H 0.8884 0.21774 0.54476 0.0
H758 H 0.87248 0.15648 0.56826 0.0
H759 H 0.91112 0.16528 0.66884 0.0
H760 H 0.91528 0.30494 0.66976 0.0
H761 H 0.91406 0.31044 0.57733 0.0
C762 C 0.90698 0.99572 0.5761 0.0
C763 C 0.90656 0.93228 0.59478 0.0
C764 C 0.90673 0.94497 0.62462 0.0
C765 C 0.90769 0.01885 0.63575 0.0
C766 C 0.90836 0.07989 0.61684 0.0
C767 C 0.90797 0.06956 0.58767 0.0
C768 C 0.90934 0.14574 0.57228 0.0
C769 C 0.93074 0.15021 0.55365 0.0
C770 C 0.88785 0.1601 0.55461 0.0
C771 C 0.91077 0.20005 0.59743 0.0
C772 C 0.91009 0.16046 0.62287 0.0
C773 C 0.91165 0.19706 0.64908 0.0
C774 C 0.91417 0.27637 0.64937 0.0
C775 C 0.91513 0.3186 0.62366 0.0
C776 C 0.91315 0.27979 0.59732 0.0
H777 H 0.59526 0.70654 0.55629 0.0
H778 H 0.57261 0.71257 0.64423 0.0
H779 H 0.57599 0.85245 0.6444 0.0
H780 H 0.63632 0.864 0.56268 0.0
H781 H 0.63022 0.90134 0.52774 0.0
H782 H 0.62709 0.80076 0.53472 0.0
H783 H 0.58553 0.80681 0.51729 0.0
H784 H 0.58847 0.90745 0.51046 0.0
H785 H 0.56625 0.87356 0.53359 0.0
H786 H 0.57985 0.99083 0.63492 0.0
H787 H 0.58558 0.1211 0.61676 0.0
H788 H 0.60623 0.02958 0.53485 0.0
C789 C 0.59139 0.73736 0.57567 0.0
C790 C 0.58348 0.69849 0.6002 0.0
C791 C 0.57832 0.741 0.62505 0.0
C792 C 0.5803 0.82054 0.62542 0.0
C793 C 0.58759 0.85724 0.60079 0.0
C794 C 0.59325 0.81736 0.5764 0.0
C795 C 0.60013 0.87178 0.55269 0.0
C796 C 0.62492 0.85868 0.54395 0.0
C797 C 0.58413 0.86444 0.52699 0.0
C798 C 0.59719 0.94818 0.56755 0.0
C799 C 0.58995 0.93809 0.59529 0.0
C800 C 0.58553 0.99954 0.61323 0.0
C801 C 0.58862 0.07346 0.60261 0.0
C802 C 0.59612 0.08575 0.57427 0.0
C803 C 0.60055 0.02197 0.5566 0.0
loop_
_geom_bond_atom_site_label_1
_geom_bond_atom_site_label_2
_geom_bond_distance
_geom_bond_site_symmetry_2
_ccdc_geom_bond_type
Co0 N4 2.148 1_545 S
Co0 N10 2.128 . S
Co0 N20 2.194 . S
Co0 O25 2.351 . S
Co0 O26 2.155 . S
Co0 O27 2.096 . S
C1 N4 1.301 . S
C1 N5 1.328 . S
C1 H6 0.930 . S
C2 C3 1.333 . S
C2 N4 1.317 . S
C2 H7 0.930 . S
C3 C2 1.333 . S
C3 N5 1.350 . S
C3 H29 0.931 . S
N4 Co0 2.148 1_565 S
N4 C1 1.301 . S
N4 C2 1.317 . S
N5 C1 1.328 . S
N5 C3 1.350 . S
H6 C1 0.930 . S
H7 C2 0.930 . S
C8 O9 1.224 . S
C8 O27 1.247 . S
O9 C8 1.224 . S
N10 Co0 2.128 . S
N10 C11 1.355 . S
N10 C13 1.311 . S
C11 N10 1.355 . S
C11 C12 1.363 . S
C11 H23 0.929 . S
C12 C11 1.363 . S
C12 N14 1.375 . S
C12 H30 0.931 . S
C13 N10 1.311 . S
C13 N14 1.347 . S
C13 H24 0.929 . S
N14 C12 1.375 . S
N14 C13 1.347 . S
C15 C18 1.365 . S
C15 N20 1.328 . S
C15 H21 0.929 . S
C16 C17 1.362 . S
C16 C19 1.378 . S
C16 H31 0.929 . S
C17 C16 1.362 . S
C17 C18 1.366 . S
C18 C15 1.365 . S
C18 C17 1.366 . S
C18 H32 0.930 . S
C19 C16 1.378 . S
C19 N20 1.315 . S
C19 H22 0.930 . S
N20 Co0 2.194 . S
N20 C15 1.328 . S
N20 C19 1.315 . S
H21 C15 0.929 . S
H22 C19 0.930 . S
H23 C11 0.929 . S
H24 C13 0.929 . S
O25 Co0 2.351 . S
O25 C28 1.244 . S
O26 Co0 2.155 . S
O26 C28 1.240 . S
O27 Co0 2.096 . S
O27 C8 1.247 . S
C28 O25 1.244 . S
C28 O26 1.240 . S
H29 C3 0.931 . S
H30 C12 0.931 . S
H31 C16 0.929 . S
H32 C18 0.930 . S
Co33 N37 2.148 1_565 S
Co33 N43 2.128 . S
Co33 N53 2.194 . S
Co33 O58 2.351 . S
Co33 O59 2.155 . S
Co33 O60 2.096 . S
C34 N37 1.301 . S
C34 N38 1.328 . S
C34 H39 0.930 . S
C35 C36 1.333 . S
C35 N37 1.317 . S
C35 H40 0.930 . S
C36 C35 1.333 . S
C36 N38 1.350 . S
C36 H62 0.931 . S
N37 Co33 2.148 1_545 S
N37 C34 1.301 . S
N37 C35 1.317 . S
N38 C34 1.328 . S
N38 C36 1.350 . S
H39 C34 0.930 . S
H40 C35 0.930 . S
C41 O42 1.224 . S
C41 O60 1.247 . S
O42 C41 1.224 . S
N43 Co33 2.128 . S
N43 C44 1.355 . S
N43 C46 1.311 . S
C44 N43 1.355 . S
C44 C45 1.363 . S
C44 H56 0.929 . S
C45 C44 1.363 . S
C45 N47 1.375 . S
C45 H63 0.931 . S
C46 N43 1.311 . S
C46 N47 1.347 . S
C46 H57 0.929 . S
N47 C45 1.375 . S
N47 C46 1.347 . S
C48 C51 1.365 . S
C48 N53 1.328 . S
C48 H54 0.929 . S
C49 C50 1.362 . S
C49 C52 1.378 . S
C49 H64 0.929 . S
C50 C49 1.362 . S
C50 C51 1.366 . S
C51 C48 1.365 . S
C51 C50 1.366 . S
C51 H65 0.930 . S
C52 C49 1.378 . S
C52 N53 1.315 . S
C52 H55 0.930 . S
N53 Co33 2.194 . S
N53 C48 1.328 . S
N53 C52 1.315 . S
H54 C48 0.929 . S
H55 C52 0.930 . S
H56 C44 0.929 . S
H57 C46 0.929 . S
O58 Co33 2.351 . S
O58 C61 1.244 . S
O59 Co33 2.155 . S
O59 C61 1.240 . S
O60 Co33 2.096 . S
O60 C41 1.247 . S
C61 O58 1.244 . S
C61 O59 1.240 . S
H62 C36 0.931 . S
H63 C45 0.931 . S
H64 C49 0.929 . S
H65 C51 0.930 . S
Co66 N70 2.148 . S
Co66 N76 2.128 . S
Co66 N86 2.194 . S
Co66 O91 2.351 . S
Co66 O92 2.155 . S
Co66 O93 2.096 . S
C67 N70 1.301 . S
C67 N71 1.328 . S
C67 H72 0.930 . S
C68 C69 1.333 . S
C68 N70 1.317 . S
C68 H73 0.930 . S
C69 C68 1.333 . S
C69 N71 1.350 . S
C69 H95 0.931 . S
N70 Co66 2.148 . S
N70 C67 1.301 . S
N70 C68 1.317 . S
N71 C67 1.328 . S
N71 C69 1.350 . S
H72 C67 0.930 . S
H73 C68 0.930 . S
C74 O75 1.224 . S
C74 O93 1.247 . S
O75 C74 1.224 . S
N76 Co66 2.128 . S
N76 C77 1.355 . S
N76 C79 1.311 . S
C77 N76 1.355 . S
C77 C78 1.363 . S
C77 H89 0.929 . S
C78 C77 1.363 . S
C78 N80 1.375 . S
C78 H96 0.931 . S
C79 N76 1.311 . S
C79 N80 1.347 . S
C79 H90 0.929 . S
N80 C78 1.375 . S
N80 C79 1.347 . S
C81 C84 1.365 . S
C81 N86 1.328 . S
C81 H87 0.929 . S
C82 C83 1.362 . S
C82 C85 1.378 . S
C82 H97 0.929 . S
C83 C82 1.362 . S
C83 C84 1.366 . S
C84 C81 1.365 . S
C84 C83 1.366 . S
C84 H98 0.930 . S
C85 C82 1.378 . S
C85 N86 1.315 . S
C85 H88 0.930 . S
N86 Co66 2.194 . S
N86 C81 1.328 . S
N86 C85 1.315 . S
H87 C81 0.929 . S
H88 C85 0.930 . S
H89 C77 0.929 . S
H90 C79 0.929 . S
O91 Co66 2.351 . S
O91 C94 1.244 . S
O92 Co66 2.155 . S
O92 C94 1.240 . S
O93 Co66 2.096 . S
O93 C74 1.247 . S
C94 O91 1.244 . S
C94 O92 1.240 . S
H95 C69 0.931 . S
H96 C78 0.931 . S
H97 C82 0.929 . S
H98 C84 0.930 . S
Co99 N103 2.148 . S
Co99 N109 2.128 . S
Co99 N119 2.194 . S
Co99 O124 2.351 . S
Co99 O125 2.155 . S
Co99 O126 2.096 . S
C100 N103 1.301 . S
C100 N104 1.328 . S
C100 H105 0.930 . S
C101 C102 1.333 . S
C101 N103 1.317 . S
C101 H106 0.930 . S
C102 C101 1.333 . S
C102 N104 1.350 . S
C102 H128 0.931 . S
N103 Co99 2.148 . S
N103 C100 1.301 . S
N103 C101 1.317 . S
N104 C100 1.328 . S
N104 C102 1.350 . S
H105 C100 0.930 . S
H106 C101 0.930 . S
C107 O108 1.224 . S
C107 O126 1.247 . S
O108 C107 1.224 . S
N109 Co99 2.128 . S
N109 C110 1.355 . S
N109 C112 1.311 . S
C110 N109 1.355 . S
C110 C111 1.363 . S
C110 H122 0.929 . S
C111 C110 1.363 . S
C111 N113 1.375 . S
C111 H129 0.931 . S
C112 N109 1.311 . S
C112 N113 1.347 . S
C112 H123 0.929 . S
N113 C111 1.375 . S
N113 C112 1.347 . S
C114 C117 1.365 . S
C114 N119 1.328 . S
C114 H120 0.929 . S
C115 C116 1.362 . S
C115 C118 1.378 . S
C115 H130 0.929 . S
C116 C115 1.362 . S
C116 C117 1.366 . S
C117 C114 1.365 . S
C117 C116 1.366 . S
C117 H131 0.930 . S
C118 C115 1.378 . S
C118 N119 1.315 . S
C118 H121 0.930 . S
N119 Co99 2.194 . S
N119 C114 1.328 . S
N119 C118 1.315 . S
H120 C114 0.929 . S
H121 C118 0.930 . S
H122 C110 0.929 . S
H123 C112 0.929 . S
O124 Co99 2.351 . S
O124 C127 1.244 . S
O125 Co99 2.155 . S
O125 C127 1.240 . S
O126 Co99 2.096 . S
O126 C107 1.247 . S
C127 O124 1.244 . S
C127 O125 1.240 . S
H128 C102 0.931 . S
H129 C111 0.931 . S
H130 C115 0.929 . S
H131 C117 0.930 . S
Co132 N136 2.148 1_565 S
Co132 N142 2.128 . S
Co132 N152 2.194 . S
Co132 O157 2.351 . S
Co132 O158 2.155 . S
Co132 O159 2.096 . S
C133 N136 1.301 . S
C133 N137 1.328 . S
C133 H138 0.930 . S
C134 C135 1.333 . S
C134 N136 1.317 . S
C134 H139 0.930 . S
C135 C134 1.333 . S
C135 N137 1.350 . S
C135 H161 0.931 . S
N136 Co132 2.148 1_545 S
N136 C133 1.301 . S
N136 C134 1.317 . S
N137 C133 1.328 . S
N137 C135 1.350 . S
H138 C133 0.930 . S
H139 C134 0.930 . S
C140 O141 1.224 . S
C140 O159 1.247 . S
O141 C140 1.224 . S
N142 Co132 2.128 . S
N142 C143 1.355 . S
N142 C145 1.311 . S
C143 N142 1.355 . S
C143 C144 1.363 . S
C143 H155 0.929 . S
C144 C143 1.363 . S
C144 N146 1.375 . S
C144 H162 0.931 . S
C145 N142 1.311 . S
C145 N146 1.347 . S
C145 H156 0.929 . S
N146 C144 1.375 . S
N146 C145 1.347 . S
C147 C150 1.365 . S
C147 N152 1.328 . S
C147 H153 0.929 . S
C148 C149 1.362 . S
C148 C151 1.378 . S
C148 H163 0.929 . S
C149 C148 1.362 . S
C149 C150 1.366 . S
C150 C147 1.365 . S
C150 C149 1.366 . S
C150 H164 0.930 . S
C151 C148 1.378 . S
C151 N152 1.315 . S
C151 H154 0.930 . S
N152 Co132 2.194 . S
N152 C147 1.328 . S
N152 C151 1.315 . S
H153 C147 0.929 . S
H154 C151 0.930 . S
H155 C143 0.929 . S
H156 C145 0.929 . S
O157 Co132 2.351 . S
O157 C160 1.244 . S
O158 Co132 2.155 . S
O158 C160 1.240 . S
O159 Co132 2.096 . S
O159 C140 1.247 . S
C160 O157 1.244 . S
C160 O158 1.240 . S
H161 C135 0.931 . S
H162 C144 0.931 . S
H163 C148 0.929 . S
H164 C150 0.930 . S
Co165 N169 2.148 1_545 S
Co165 N175 2.128 . S
Co165 N185 2.194 . S
Co165 O190 2.351 . S
Co165 O191 2.155 . S
Co165 O192 2.096 . S
C166 N169 1.301 . S
C166 N170 1.328 . S
C166 H171 0.930 . S
C167 C168 1.333 . S
C167 N169 1.317 . S
C167 H172 0.930 . S
C168 C167 1.333 . S
C168 N170 1.350 . S
C168 H194 0.931 . S
N169 Co165 2.148 1_565 S
N169 C166 1.301 . S
N169 C167 1.317 . S
N170 C166 1.328 . S
N170 C168 1.350 . S
H171 C166 0.930 . S
H172 C167 0.930 . S
C173 O174 1.224 . S
C173 O192 1.247 . S
O174 C173 1.224 . S
N175 Co165 2.128 . S
N175 C176 1.355 . S
N175 C178 1.311 . S
C176 N175 1.355 . S
C176 C177 1.363 . S
C176 H188 0.929 . S
C177 C176 1.363 . S
C177 N179 1.375 . S
C177 H195 0.931 . S
C178 N175 1.311 . S
C178 N179 1.347 . S
C178 H189 0.929 . S
N179 C177 1.375 . S
N179 C178 1.347 . S
C180 C183 1.365 . S
C180 N185 1.328 . S
C180 H186 0.929 . S
C181 C182 1.362 . S
C181 C184 1.378 . S
C181 H196 0.929 . S
C182 C181 1.362 . S
C182 C183 1.366 . S
C183 C180 1.365 . S
C183 C182 1.366 . S
C183 H197 0.930 . S
C184 C181 1.378 . S
C184 N185 1.315 . S
C184 H187 0.930 . S
N185 Co165 2.194 . S
N185 C180 1.328 . S
N185 C184 1.315 . S
H186 C180 0.929 . S
H187 C184 0.930 . S
H188 C176 0.929 . S
H189 C178 0.929 . S
O190 Co165 2.351 . S
O190 C193 1.244 . S
O191 Co165 2.155 . S
O191 C193 1.240 . S
O192 Co165 2.096 . S
O192 C173 1.247 . S
C193 O190 1.244 . S
C193 O191 1.240 . S
H194 C168 0.931 . S
H195 C177 0.931 . S
H196 C181 0.929 . S
H197 C183 0.930 . S
Co198 N202 2.148 . S
Co198 N208 2.128 . S
Co198 N218 2.194 . S
Co198 O223 2.351 . S
Co198 O224 2.155 . S
Co198 O225 2.096 . S
C199 N202 1.301 . S
C199 N203 1.328 . S
C199 H204 0.930 . S
C200 C201 1.333 . S
C200 N202 1.317 . S
C200 H205 0.930 . S
C201 C200 1.333 . S
C201 N203 1.350 . S
C201 H227 0.931 . S
N202 Co198 2.148 . S
N202 C199 1.301 . S
N202 C200 1.317 . S
N203 C199 1.328 . S
N203 C201 1.350 . S
H204 C199 0.930 . S
H205 C200 0.930 . S
C206 O207 1.224 . S
C206 O225 1.247 . S
O207 C206 1.224 . S
N208 Co198 2.128 . S
N208 C209 1.355 . S
N208 C211 1.311 . S
C209 N208 1.355 . S
C209 C210 1.363 . S
C209 H221 0.929 . S
C210 C209 1.363 . S
C210 N212 1.375 . S
C210 H228 0.931 . S
C211 N208 1.311 . S
C211 N212 1.347 . S
C211 H222 0.929 . S
N212 C210 1.375 . S
N212 C211 1.347 . S
C213 C216 1.365 . S
C213 N218 1.328 . S
C213 H219 0.929 . S
C214 C215 1.362 . S
C214 C217 1.378 . S
C214 H229 0.929 . S
C215 C214 1.362 . S
C215 C216 1.366 . S
C216 C213 1.365 . S
C216 C215 1.366 . S
C216 H230 0.930 . S
C217 C214 1.378 . S
C217 N218 1.315 . S
C217 H220 0.930 . S
N218 Co198 2.194 . S
N218 C213 1.328 . S
N218 C217 1.315 . S
H219 C213 0.929 . S
H220 C217 0.930 . S
H221 C209 0.929 . S
H222 C211 0.929 . S
O223 Co198 2.351 . S
O223 C226 1.244 . S
O224 Co198 2.155 . S
O224 C226 1.240 . S
O225 Co198 2.096 . S
O225 C206 1.247 . S
C226 O223 1.244 . S
C226 O224 1.240 . S
H227 C201 0.931 . S
H228 C210 0.931 . S
H229 C214 0.929 . S
H230 C216 0.930 . S
Co231 N235 2.148 . S
Co231 N241 2.128 . S
Co231 N251 2.194 . S
Co231 O256 2.351 . S
Co231 O257 2.155 . S
Co231 O258 2.096 . S
C232 N235 1.301 . S
C232 N236 1.328 . S
C232 H237 0.930 . S
C233 C234 1.333 . S
C233 N235 1.317 . S
C233 H238 0.930 . S
C234 C233 1.333 . S
C234 N236 1.350 . S
C234 H260 0.931 . S
N235 Co231 2.148 . S
N235 C232 1.301 . S
N235 C233 1.317 . S
N236 C232 1.328 . S
N236 C234 1.350 . S
H237 C232 0.930 . S
H238 C233 0.930 . S
C239 O240 1.224 . S
C239 O258 1.247 . S
O240 C239 1.224 . S
N241 Co231 2.128 . S
N241 C242 1.355 . S
N241 C244 1.311 . S
C242 N241 1.355 . S
C242 C243 1.363 . S
C242 H254 0.929 . S
C243 C242 1.363 . S
C243 N245 1.375 . S
C243 H261 0.931 . S
C244 N241 1.311 . S
C244 N245 1.347 . S
C244 H255 0.929 . S
N245 C243 1.375 . S
N245 C244 1.347 . S
C246 C249 1.365 . S
C246 N251 1.328 . S
C246 H252 0.929 . S
C247 C248 1.362 . S
C247 C250 1.378 . S
C247 H262 0.929 . S
C248 C247 1.362 . S
C248 C249 1.366 . S
C249 C246 1.365 . S
C249 C248 1.366 . S
C249 H263 0.930 . S
C250 C247 1.378 . S
C250 N251 1.315 . S
C250 H253 0.930 . S
N251 Co231 2.194 . S
N251 C246 1.328 . S
N251 C250 1.315 . S
H252 C246 0.929 . S
H253 C250 0.930 . S
H254 C242 0.929 . S
H255 C244 0.929 . S
O256 Co231 2.351 . S
O256 C259 1.244 . S
O257 Co231 2.155 . S
O257 C259 1.240 . S
O258 Co231 2.096 . S
O258 C239 1.247 . S
C259 O256 1.244 . S
C259 O257 1.240 . S
H260 C234 0.931 . S
H261 C243 0.931 . S
H262 C247 0.929 . S
H263 C249 0.930 . S
H264 C276 0.930 . S
H265 C278 0.930 . S
H266 C279 0.930 . S
H267 C283 0.959 . S
H268 C283 0.959 . S
H269 C283 0.961 . S
H270 C284 0.960 . S
H271 C284 0.961 . S
H272 C284 0.959 . S
H273 C287 0.929 . S
H274 C288 0.931 . S
H275 C290 0.930 . S
C276 H264 0.930 . S
C276 C277 1.399 . S
C276 C281 1.399 . S
C277 C276 1.399 . S
C277 C278 1.376 . S
C278 H265 0.930 . S
C278 C277 1.376 . S
C278 C279 1.388 1_545 S
C279 H266 0.930 . S
C279 C278 1.388 1_565 S
C279 C280 1.390 . S
C280 C279 1.390 . S
C280 C281 1.394 1_565 S
C280 C286 1.465 . S
C281 C276 1.399 . S
C281 C280 1.394 1_545 S
C281 C282 1.516 . S
C282 C281 1.516 . S
C282 C283 1.502 . S
C282 C284 1.561 1_545 S
C282 C285 1.526 1_545 S
C283 H267 0.959 . S
C283 H268 0.959 . S
C283 H269 0.961 . S
C283 C282 1.502 . S
C284 H270 0.960 . S
C284 H271 0.961 . S
C284 H272 0.959 . S
C284 C282 1.561 1_565 S
C285 C282 1.526 1_565 S
C285 C286 1.396 . S
C285 C290 1.390 . S
C286 C280 1.465 . S
C286 C285 1.396 . S
C286 C287 1.399 . S
C287 H273 0.929 . S
C287 C286 1.399 . S
C287 C288 1.385 . S
C288 H274 0.931 . S
C288 C287 1.385 . S
C288 C289 1.389 . S
C289 C288 1.389 . S
C289 C290 1.387 . S
C290 H275 0.930 . S
C290 C285 1.390 . S
C290 C289 1.387 . S
H291 C303 0.930 . S
H292 C305 0.930 . S
H293 C306 0.930 . S
H294 C310 0.959 . S
H295 C310 0.959 . S
H296 C310 0.961 . S
H297 C311 0.960 . S
H298 C311 0.961 . S
H299 C311 0.959 . S
H300 C314 0.929 . S
H301 C315 0.931 . S
H302 C317 0.930 . S
C303 H291 0.930 . S
C303 C304 1.399 . S
C303 C308 1.399 . S
C304 C303 1.399 . S
C304 C305 1.376 . S
C305 H292 0.930 . S
C305 C304 1.376 . S
C305 C306 1.388 . S
C306 H293 0.930 . S
C306 C305 1.388 . S
C306 C307 1.390 . S
C307 C306 1.390 . S
C307 C308 1.394 . S
C307 C313 1.465 . S
C308 C303 1.399 . S
C308 C307 1.394 . S
C308 C309 1.516 . S
C309 C308 1.516 . S
C309 C310 1.502 . S
C309 C311 1.561 . S
C309 C312 1.526 . S
C310 H294 0.959 . S
C310 H295 0.959 . S
C310 H296 0.961 . S
C310 C309 1.502 . S
C311 H297 0.960 . S
C311 H298 0.961 . S
C311 H299 0.959 . S
C311 C309 1.561 . S
C312 C309 1.526 . S
C312 C313 1.396 . S
C312 C317 1.390 . S
C313 C307 1.465 . S
C313 C312 1.396 . S
C313 C314 1.399 . S
C314 H300 0.929 . S
C314 C313 1.399 . S
C314 C315 1.385 . S
C315 H301 0.931 . S
C315 C314 1.385 . S
C315 C316 1.389 . S
C316 C315 1.389 . S
C316 C317 1.387 . S
C317 H302 0.930 . S
C317 C312 1.390 . S
C317 C316 1.387 . S
H318 C330 0.930 . S
H319 C332 0.930 1_545 S
H320 C333 0.930 . S
H321 C337 0.959 . S
H322 C337 0.959 . S
H323 C337 0.961 . S
H324 C338 0.968 . S
H325 C338 0.961 1_554 S
H326 C338 0.959 . S
H327 C341 0.929 . S
H328 C342 0.931 . S
H329 C344 0.928 1_565 S
C330 H318 0.930 . S
C330 C331 1.399 . S
C330 C335 1.399 . S
C331 C330 1.399 . S
C331 C332 1.376 . S
C332 H319 0.930 1_565 S
C332 C331 1.376 . S
C332 C333 1.388 1_565 S
C333 H320 0.930 . S
C333 C332 1.388 1_545 S
C333 C334 1.390 . S
C334 C333 1.390 . S
C334 C335 1.394 1_545 S
C334 C340 1.465 . S
C335 C330 1.399 . S
C335 C334 1.394 1_565 S
C335 C336 1.516 . S
C336 C335 1.516 . S
C336 C337 1.502 . S
C336 C338 1.561 1_565 S
C336 C339 1.526 1_565 S
C337 H321 0.959 . S
C337 H322 0.959 . S
C337 H323 0.961 . S
C337 C336 1.502 . S
C338 H324 0.968 . S
C338 H325 0.961 1_556 S
C338 H326 0.959 . S
C338 C336 1.561 1_545 S
C339 C336 1.526 1_545 S
C339 C340 1.396 . S
C339 C344 1.390 . S
C340 C334 1.465 . S
C340 C339 1.396 . S
C340 C341 1.399 . S
C341 H327 0.929 . S
C341 C340 1.399 . S
C341 C342 1.385 . S
C342 H328 0.931 . S
C342 C341 1.385 . S
C342 C343 1.389 . S
C343 C342 1.389 . S
C343 C344 1.387 . S
C344 H329 0.928 1_545 S
C344 C339 1.390 . S
C344 C343 1.387 . S
H345 C357 0.930 . S
H346 C359 0.930 . S
H347 C360 0.930 . S
H348 C364 0.959 . S
H349 C364 0.959 . S
H350 C364 0.961 . S
H351 C365 0.960 . S
H352 C365 0.961 . S
H353 C365 0.959 . S
H354 C368 0.929 . S
H355 C369 0.931 . S
H356 C371 0.930 . S
C357 H345 0.930 . S
C357 C358 1.399 . S
C357 C362 1.399 . S
C358 C357 1.399 . S
C358 C359 1.376 . S
C359 H346 0.930 . S
C359 C358 1.376 . S
C359 C360 1.388 . S
C360 H347 0.930 . S
C360 C359 1.388 . S
C360 C361 1.390 . S
C361 C360 1.390 . S
C361 C362 1.394 . S
C361 C367 1.465 . S
C362 C357 1.399 . S
C362 C361 1.394 . S
C362 C363 1.516 . S
C363 C362 1.516 . S
C363 C364 1.502 . S
C363 C365 1.561 . S
C363 C366 1.526 . S
C364 H348 0.959 . S
C364 H349 0.959 . S
C364 H350 0.961 . S
C364 C363 1.502 . S
C365 H351 0.960 . S
C365 H352 0.961 . S
C365 H353 0.959 . S
C365 C363 1.561 . S
C366 C363 1.526 . S
C366 C367 1.396 . S
C366 C371 1.390 . S
C367 C361 1.465 . S
C367 C366 1.396 . S
C367 C368 1.399 . S
C368 H354 0.929 . S
C368 C367 1.399 . S
C368 C369 1.385 . S
C369 H355 0.931 . S
C369 C368 1.385 . S
C369 C370 1.389 . S
C370 C369 1.389 . S
C370 C371 1.387 . S
C371 H356 0.930 . S
C371 C366 1.390 . S
C371 C370 1.387 . S
H372 C384 0.930 . S
H373 C386 0.932 . S
H374 C387 0.930 . S
H375 C391 0.959 1_565 S
H376 C391 0.959 . S
H377 C391 0.961 . S
H378 C392 0.960 . S
H379 C392 0.961 . S
H380 C392 0.959 1_556 S
H381 C395 0.929 1_455 S
H382 C396 0.931 . S
H383 C398 0.930 1_545 S
C384 H372 0.930 . S
C384 C385 1.399 . S
C384 C389 1.399 . S
C385 C384 1.399 . S
C385 C386 1.376 . S
C386 H373 0.932 . S
C386 C385 1.376 . S
C386 C387 1.388 1_544 S
C387 H374 0.930 . S
C387 C386 1.388 1_566 S
C387 C388 1.390 . S
C388 C387 1.390 . S
C388 C389 1.394 1_566 S
C388 C394 1.465 1_455 S
C389 C384 1.399 . S
C389 C388 1.394 1_544 S
C389 C390 1.516 1_455 S
C390 C389 1.516 1_655 S
C390 C391 1.502 . S
C390 C392 1.561 . S
C390 C393 1.526 1_554 S
C391 H375 0.959 1_545 S
C391 H376 0.959 . S
C391 H377 0.961 . S
C391 C390 1.502 . S
C392 H378 0.960 . S
C392 H379 0.961 . S
C392 H380 0.959 1_554 S
C392 C390 1.561 . S
C393 C390 1.526 1_556 S
C393 C394 1.396 1_545 S
C393 C398 1.390 1_545 S
C394 C388 1.465 1_655 S
C394 C393 1.396 1_565 S
C394 C395 1.399 . S
C395 H381 0.929 1_655 S
C395 C394 1.399 . S
C395 C396 1.385 . S
C396 H382 0.931 . S
C396 C395 1.385 . S
C396 C397 1.389 . S
C397 C396 1.389 . S
C397 C398 1.387 . S
C398 H383 0.930 1_565 S
C398 C393 1.390 1_565 S
C398 C397 1.387 . S
H399 C411 0.930 . S
H400 C413 0.930 . S
H401 C414 0.930 . S
H402 C418 0.959 . S
H403 C418 0.959 1_556 S
H404 C418 0.961 . S
H405 C419 0.960 . S
H406 C419 0.961 . S
H407 C419 0.959 . S
H408 C422 0.929 . S
H409 C423 0.931 . S
H410 C425 0.930 . S
C411 H399 0.930 . S
C411 C412 1.399 . S
C411 C416 1.399 . S
C412 C411 1.399 . S
C412 C413 1.376 1_565 S
C413 H400 0.930 . S
C413 C412 1.376 1_545 S
C413 C414 1.388 . S
C414 H401 0.930 . S
C414 C413 1.388 . S
C414 C415 1.390 . S
C415 C414 1.390 . S
C415 C416 1.394 1_545 S
C415 C421 1.465 1_554 S
C416 C411 1.399 . S
C416 C415 1.394 1_565 S
C416 C417 1.516 1_554 S
C417 C416 1.516 1_556 S
C417 C418 1.502 1_556 S
C417 C419 1.561 . S
C417 C420 1.526 . S
C418 H402 0.959 . S
C418 H403 0.959 1_554 S
C418 H404 0.961 . S
C418 C417 1.502 1_554 S
C419 H405 0.960 . S
C419 H406 0.961 . S
C419 H407 0.959 . S
C419 C417 1.561 . S
C420 C417 1.526 . S
C420 C421 1.396 1_565 S
C420 C425 1.390 . S
C421 C415 1.465 1_556 S
C421 C420 1.396 1_545 S
C421 C422 1.399 . S
C422 H408 0.929 . S
C422 C421 1.399 . S
C422 C423 1.385 . S
C423 H409 0.931 . S
C423 C422 1.385 . S
C423 C424 1.389 . S
C424 C423 1.389 . S
C424 C425 1.387 1_545 S
C425 H410 0.930 . S
C425 C420 1.390 . S
C425 C424 1.387 1_565 S
H426 C438 0.930 . S
H427 C440 0.930 . S
H428 C441 0.930 . S
H429 C445 0.959 . S
H430 C445 0.959 . S
H431 C445 0.961 . S
H432 C446 0.974 . S
H433 C446 0.941 1_655 S
H434 C446 0.972 . S
H435 C449 0.929 . S
H436 C450 0.931 . S
H437 C452 0.930 . S
C438 H426 0.930 . S
C438 C439 1.399 . S
C438 C443 1.399 . S
C439 C438 1.399 . S
C439 C440 1.376 . S
C440 H427 0.930 . S
C440 C439 1.376 . S
C440 C441 1.388 . S
C441 H428 0.930 . S
C441 C440 1.388 . S
C441 C442 1.390 . S
C442 C441 1.390 . S
C442 C443 1.394 . S
C442 C448 1.465 1_455 S
C443 C438 1.399 . S
C443 C442 1.394 . S
C443 C444 1.516 1_455 S
C444 C443 1.516 1_655 S
C444 C445 1.502 . S
C444 C446 1.554 1_655 S
C444 C447 1.526 . S
C445 H429 0.959 . S
C445 H430 0.959 . S
C445 H431 0.961 . S
C445 C444 1.502 . S
C446 H432 0.974 . S
C446 H433 0.941 1_455 S
C446 H434 0.972 . S
C446 C444 1.554 1_455 S
C447 C444 1.526 . S
C447 C448 1.396 . S
C447 C452 1.390 . S
C448 C442 1.465 1_655 S
C448 C447 1.396 . S
C448 C449 1.399 . S
C449 H435 0.929 . S
C449 C448 1.399 . S
C449 C450 1.385 . S
C450 H436 0.931 . S
C450 C449 1.385 . S
C450 C451 1.389 . S
C451 C450 1.389 . S
C451 C452 1.387 . S
C452 H437 0.930 . S
C452 C447 1.390 . S
C452 C451 1.387 . S
H453 C465 0.930 . S
H454 C467 0.930 . S
H455 C468 0.930 . S
H456 C472 0.959 . S
H457 C472 0.959 . S
H458 C472 0.961 . S
H459 C473 0.960 . S
H460 C473 0.961 . S
H461 C473 0.959 . S
H462 C476 0.929 . S
H463 C477 0.931 . S
H464 C479 0.930 . S
C465 H453 0.930 . S
C465 C466 1.399 . S
C465 C470 1.399 . S
C466 C465 1.399 . S
C466 C467 1.376 . S
C467 H454 0.930 . S
C467 C466 1.376 . S
C467 C468 1.388 . S
C468 H455 0.930 . S
C468 C467 1.388 . S
C468 C469 1.390 . S
C469 C468 1.390 . S
C469 C470 1.394 . S
C469 C475 1.465 . S
C470 C465 1.399 . S
C470 C469 1.394 . S
C470 C471 1.516 . S
C471 C470 1.516 . S
C471 C472 1.502 . S
C471 C473 1.561 . S
C471 C474 1.526 . S
C472 H456 0.959 . S
C472 H457 0.959 . S
C472 H458 0.961 . S
C472 C471 1.502 . S
C473 H459 0.960 . S
C473 H460 0.961 . S
C473 H461 0.959 . S
C473 C471 1.561 . S
C474 C471 1.526 . S
C474 C475 1.396 . S
C474 C479 1.390 . S
C475 C469 1.465 . S
C475 C474 1.396 . S
C475 C476 1.399 . S
C476 H462 0.929 . S
C476 C475 1.399 . S
C476 C477 1.385 . S
C477 H463 0.931 . S
C477 C476 1.385 . S
C477 C478 1.389 . S
C478 C477 1.389 . S
C478 C479 1.387 . S
C479 H464 0.930 . S
C479 C474 1.390 . S
C479 C478 1.387 . S
H480 C492 0.930 . S
H481 C494 0.930 . S
H482 C495 0.930 . S
H483 C499 0.959 . S
H484 C499 0.959 . S
H485 C499 0.961 . S
H486 C500 0.960 . S
H487 C500 0.961 . S
H488 C500 0.959 . S
H489 C503 0.929 . S
H490 C504 0.931 . S
H491 C506 0.930 . S
C492 H480 0.930 . S
C492 C493 1.399 . S
C492 C497 1.399 . S
C493 C492 1.399 . S
C493 C494 1.376 . S
C494 H481 0.930 . S
C494 C493 1.376 . S
C494 C495 1.388 . S
C495 H482 0.930 . S
C495 C494 1.388 . S
C495 C496 1.390 . S
C496 C495 1.390 . S
C496 C497 1.394 . S
C496 C502 1.465 . S
C497 C492 1.399 . S
C497 C496 1.394 . S
C497 C498 1.516 . S
C498 C497 1.516 . S
C498 C499 1.502 . S
C498 C500 1.561 . S
C498 C501 1.526 . S
C499 H483 0.959 . S
C499 H484 0.959 . S
C499 H485 0.961 . S
C499 C498 1.502 . S
C500 H486 0.960 . S
C500 H487 0.961 . S
C500 H488 0.959 . S
C500 C498 1.561 . S
C501 C498 1.526 . S
C501 C502 1.396 . S
C501 C506 1.390 . S
C502 C496 1.465 . S
C502 C501 1.396 . S
C502 C503 1.399 . S
C503 H489 0.929 . S
C503 C502 1.399 . S
C503 C504 1.385 . S
C504 H490 0.931 . S
C504 C503 1.385 . S
C504 C505 1.389 . S
C505 C504 1.389 . S
C505 C506 1.387 . S
C506 H491 0.930 . S
C506 C501 1.390 . S
C506 C505 1.387 . S
H507 C519 0.930 . S
H508 C521 0.930 . S
H509 C522 0.930 . S
H510 C526 0.959 . S
H511 C526 0.959 . S
H512 C526 0.961 . S
H513 C527 0.960 . S
H514 C527 0.961 . S
H515 C527 0.959 . S
H516 C530 0.929 . S
H517 C531 0.931 . S
H518 C533 0.930 . S
C519 H507 0.930 . S
C519 C520 1.399 . S
C519 C524 1.399 . S
C520 C519 1.399 . S
C520 C521 1.376 . S
C521 H508 0.930 . S
C521 C520 1.376 . S
C521 C522 1.388 . S
C522 H509 0.930 . S
C522 C521 1.388 . S
C522 C523 1.390 . S
C523 C522 1.390 . S
C523 C524 1.394 . S
C523 C529 1.465 . S
C524 C519 1.399 . S
C524 C523 1.394 . S
C524 C525 1.516 . S
C525 C524 1.516 . S
C525 C526 1.502 . S
C525 C527 1.561 . S
C525 C528 1.526 . S
C526 H510 0.959 . S
C526 H511 0.959 . S
C526 H512 0.961 . S
C526 C525 1.502 . S
C527 H513 0.960 . S
C527 H514 0.961 . S
C527 H515 0.959 . S
C527 C525 1.561 . S
C528 C525 1.526 . S
C528 C529 1.396 . S
C528 C533 1.390 . S
C529 C523 1.465 . S
C529 C528 1.396 . S
C529 C530 1.399 . S
C530 H516 0.929 . S
C530 C529 1.399 . S
C530 C531 1.385 . S
C531 H517 0.931 . S
C531 C530 1.385 . S
C531 C532 1.389 . S
C532 C531 1.389 . S
C532 C533 1.387 . S
C533 H518 0.930 . S
C533 C528 1.390 . S
C533 C532 1.387 . S
H534 C546 0.930 . S
H535 C548 0.930 . S
H536 C549 0.930 . S
H537 C553 0.959 . S
H538 C553 0.959 . S
H539 C553 0.961 . S
H540 C554 0.960 . S
H541 C554 0.961 . S
H542 C554 0.959 . S
H543 C557 0.929 . S
H544 C558 0.931 . S
H545 C560 0.930 . S
C546 H534 0.930 . S
C546 C547 1.399 . S
C546 C551 1.399 . S
C547 C546 1.399 . S
C547 C548 1.376 . S
C548 H535 0.930 . S
C548 C547 1.376 . S
C548 C549 1.388 . S
C549 H536 0.930 . S
C549 C548 1.388 . S
C549 C550 1.390 . S
C550 C549 1.390 . S
C550 C551 1.394 . S
C550 C556 1.465 . S
C551 C546 1.399 . S
C551 C550 1.394 . S
C551 C552 1.516 . S
C552 C551 1.516 . S
C552 C553 1.502 . S
C552 C554 1.561 . S
C552 C555 1.526 . S
C553 H537 0.959 . S
C553 H538 0.959 . S
C553 H539 0.961 . S
C553 C552 1.502 . S
C554 H540 0.960 . S
C554 H541 0.961 . S
C554 H542 0.959 . S
C554 C552 1.561 . S
C555 C552 1.526 . S
C555 C556 1.396 . S
C555 C560 1.390 . S
C556 C550 1.465 . S
C556 C555 1.396 . S
C556 C557 1.399 . S
C557 H543 0.929 . S
C557 C556 1.399 . S
C557 C558 1.385 . S
C558 H544 0.931 . S
C558 C557 1.385 . S
C558 C559 1.389 . S
C559 C558 1.389 . S
C559 C560 1.387 . S
C560 H545 0.930 . S
C560 C555 1.390 . S
C560 C559 1.387 . S
H561 C573 0.930 . S
H562 C575 0.930 . S
H563 C576 0.930 . S
H564 C580 0.959 . S
H565 C580 0.959 . S
H566 C580 0.961 . S
H567 C581 0.960 . S
H568 C581 0.961 . S
H569 C581 0.959 . S
H570 C584 0.929 . S
H571 C585 0.931 . S
H572 C587 0.930 . S
C573 H561 0.930 . S
C573 C574 1.399 . S
C573 C578 1.399 . S
C574 C573 1.399 . S
C574 C575 1.376 . S
C575 H562 0.930 . S
C575 C574 1.376 . S
C575 C576 1.388 . S
C576 H563 0.930 . S
C576 C575 1.388 . S
C576 C577 1.390 . S
C577 C576 1.390 . S
C577 C578 1.394 . S
C577 C583 1.465 . S
C578 C573 1.399 . S
C578 C577 1.394 . S
C578 C579 1.516 . S
C579 C578 1.516 . S
C579 C580 1.502 . S
C579 C581 1.561 . S
C579 C582 1.526 . S
C580 H564 0.959 . S
C580 H565 0.959 . S
C580 H566 0.961 . S
C580 C579 1.502 . S
C581 H567 0.960 . S
C581 H568 0.961 . S
C581 H569 0.959 . S
C581 C579 1.561 . S
C582 C579 1.526 . S
C582 C583 1.396 . S
C582 C587 1.390 . S
C583 C577 1.465 . S
C583 C582 1.396 . S
C583 C584 1.399 . S
C584 H570 0.929 . S
C584 C583 1.399 . S
C584 C585 1.385 . S
C585 H571 0.931 . S
C585 C584 1.385 . S
C585 C586 1.389 . S
C586 C585 1.389 . S
C586 C587 1.387 . S
C587 H572 0.930 . S
C587 C582 1.390 . S
C587 C586 1.387 . S
H588 C600 0.930 . S
H589 C602 0.930 . S
H590 C603 0.930 . S
H591 C607 0.959 . S
H592 C607 0.959 . S
H593 C607 0.961 . S
H594 C608 0.960 . S
H595 C608 0.961 . S
H596 C608 0.959 . S
H597 C611 0.929 . S
H598 C612 0.931 . S
H599 C614 0.930 . S
C600 H588 0.930 . S
C600 C601 1.399 . S
C600 C605 1.399 . S
C601 C600 1.399 . S
C601 C602 1.376 . S
C602 H589 0.930 . S
C602 C601 1.376 . S
C602 C603 1.388 . S
C603 H590 0.930 . S
C603 C602 1.388 . S
C603 C604 1.390 . S
C604 C603 1.390 . S
C604 C605 1.394 . S
C604 C610 1.465 . S
C605 C600 1.399 . S
C605 C604 1.394 . S
C605 C606 1.516 . S
C606 C605 1.516 . S
C606 C607 1.502 . S
C606 C608 1.561 . S
C606 C609 1.526 . S
C607 H591 0.959 . S
C607 H592 0.959 . S
C607 H593 0.961 . S
C607 C606 1.502 . S
C608 H594 0.960 . S
C608 H595 0.961 . S
C608 H596 0.959 . S
C608 C606 1.561 . S
C609 C606 1.526 . S
C609 C610 1.396 . S
C609 C614 1.390 . S
C610 C604 1.465 . S
C610 C609 1.396 . S
C610 C611 1.399 . S
C611 H597 0.929 . S
C611 C610 1.399 . S
C611 C612 1.385 . S
C612 H598 0.931 . S
C612 C611 1.385 . S
C612 C613 1.389 . S
C613 C612 1.389 . S
C613 C614 1.387 . S
C614 H599 0.930 . S
C614 C609 1.390 . S
C614 C613 1.387 . S
H615 C627 0.930 . S
H616 C629 0.930 . S
H617 C630 0.930 . S
H618 C634 0.959 . S
H619 C634 0.959 . S
H620 C634 0.961 . S
H621 C635 0.960 . S
H622 C635 0.961 . S
H623 C635 0.959 . S
H624 C638 0.929 . S
H625 C639 0.931 . S
H626 C641 0.930 . S
C627 H615 0.930 . S
C627 C628 1.399 . S
C627 C632 1.399 . S
C628 C627 1.399 . S
C628 C629 1.376 . S
C629 H616 0.930 . S
C629 C628 1.376 . S
C629 C630 1.388 . S
C630 H617 0.930 . S
C630 C629 1.388 . S
C630 C631 1.390 . S
C631 C630 1.390 . S
C631 C632 1.394 . S
C631 C637 1.465 . S
C632 C627 1.399 . S
C632 C631 1.394 . S
C632 C633 1.516 . S
C633 C632 1.516 . S
C633 C634 1.502 . S
C633 C635 1.561 . S
C633 C636 1.526 . S
C634 H618 0.959 . S
C634 H619 0.959 . S
C634 H620 0.961 . S
C634 C633 1.502 . S
C635 H621 0.960 . S
C635 H622 0.961 . S
C635 H623 0.959 . S
C635 C633 1.561 . S
C636 C633 1.526 . S
C636 C637 1.396 . S
C636 C641 1.390 . S
C637 C631 1.465 . S
C637 C636 1.396 . S
C637 C638 1.399 . S
C638 H624 0.929 . S
C638 C637 1.399 . S
C638 C639 1.385 . S
C639 H625 0.931 . S
C639 C638 1.385 . S
C639 C640 1.389 . S
C640 C639 1.389 . S
C640 C641 1.387 . S
C641 H626 0.930 . S
C641 C636 1.390 . S
C641 C640 1.387 . S
H642 C654 0.930 . S
H643 C656 0.930 . S
H644 C657 0.930 . S
H645 C661 0.959 . S
H646 C661 0.959 . S
H647 C661 0.961 . S
H648 C662 0.960 . S
H649 C662 0.961 . S
H650 C662 0.959 . S
H651 C665 0.929 . S
H652 C666 0.931 . S
H653 C668 0.930 . S
C654 H642 0.930 . S
C654 C655 1.399 . S
C654 C659 1.399 1_545 S
C655 C654 1.399 . S
C655 C656 1.376 . S
C656 H643 0.930 . S
C656 C655 1.376 . S
C656 C657 1.388 1_545 S
C657 H644 0.930 . S
C657 C656 1.388 1_565 S
C657 C658 1.390 . S
C658 C657 1.390 . S
C658 C659 1.394 . S
C658 C664 1.465 . S
C659 C654 1.399 1_565 S
C659 C658 1.394 . S
C659 C660 1.516 . S
C660 C659 1.516 . S
C660 C661 1.502 . S
C660 C662 1.561 . S
C660 C663 1.526 . S
C661 H645 0.959 . S
C661 H646 0.959 . S
C661 H647 0.961 . S
C661 C660 1.502 . S
C662 H648 0.960 . S
C662 H649 0.961 . S
C662 H650 0.959 . S
C662 C660 1.561 . S
C663 C660 1.526 . S
C663 C664 1.396 . S
C663 C668 1.390 . S
C664 C658 1.465 . S
C664 C663 1.396 . S
C664 C665 1.399 . S
C665 H651 0.929 . S
C665 C664 1.399 . S
C665 C666 1.385 . S
C666 H652 0.931 . S
C666 C665 1.385 . S
C666 C667 1.389 . S
C667 C666 1.389 . S
C667 C668 1.387 . S
C668 H653 0.930 . S
C668 C663 1.390 . S
C668 C667 1.387 . S
H669 C681 0.930 . S
H670 C683 0.930 . S
H671 C684 0.930 . S
H672 C688 0.959 . S
H673 C688 0.959 . S
H674 C688 0.961 . S
H675 C689 0.960 . S
H676 C689 0.961 . S
H677 C689 0.959 . S
H678 C692 0.929 . S
H679 C693 0.931 . S
H680 C695 0.930 . S
C681 H669 0.930 . S
C681 C682 1.399 . S
C681 C686 1.399 1_565 S
C682 C681 1.399 . S
C682 C683 1.376 . S
C683 H670 0.930 . S
C683 C682 1.376 . S
C683 C684 1.388 1_565 S
C684 H671 0.930 . S
C684 C683 1.388 1_545 S
C684 C685 1.390 . S
C685 C684 1.390 . S
C685 C686 1.394 . S
C685 C691 1.465 . S
C686 C681 1.399 1_545 S
C686 C685 1.394 . S
C686 C687 1.516 . S
C687 C686 1.516 . S
C687 C688 1.502 . S
C687 C689 1.561 . S
C687 C690 1.526 . S
C688 H672 0.959 . S
C688 H673 0.959 . S
C688 H674 0.961 . S
C688 C687 1.502 . S
C689 H675 0.960 . S
C689 H676 0.961 . S
C689 H677 0.959 . S
C689 C687 1.561 . S
C690 C687 1.526 . S
C690 C691 1.396 . S
C690 C695 1.390 . S
C691 C685 1.465 . S
C691 C690 1.396 . S
C691 C692 1.399 . S
C692 H678 0.929 . S
C692 C691 1.399 . S
C692 C693 1.385 . S
C693 H679 0.931 . S
C693 C692 1.385 . S
C693 C694 1.389 . S
C694 C693 1.389 . S
C694 C695 1.387 . S
C695 H680 0.930 . S
C695 C690 1.390 . S
C695 C694 1.387 . S
H696 C708 0.930 . S
H697 C710 0.930 . S
H698 C711 0.930 . S
H699 C715 0.959 . S
H700 C715 0.959 . S
H701 C715 0.961 . S
H702 C716 0.960 . S
H703 C716 0.961 . S
H704 C716 0.959 . S
H705 C719 0.929 . S
H706 C720 0.931 . S
H707 C722 0.930 . S
C708 H696 0.930 . S
C708 C709 1.399 . S
C708 C713 1.399 . S
C709 C708 1.399 . S
C709 C710 1.376 . S
C710 H697 0.930 . S
C710 C709 1.376 . S
C710 C711 1.388 . S
C711 H698 0.930 . S
C711 C710 1.388 . S
C711 C712 1.390 . S
C712 C711 1.390 . S
C712 C713 1.394 . S
C712 C718 1.465 . S
C713 C708 1.399 . S
C713 C712 1.394 . S
C713 C714 1.516 . S
C714 C713 1.516 . S
C714 C715 1.502 . S
C714 C716 1.561 . S
C714 C717 1.526 . S
C715 H699 0.959 . S
C715 H700 0.959 . S
C715 H701 0.961 . S
C715 C714 1.502 . S
C716 H702 0.960 . S
C716 H703 0.961 . S
C716 H704 0.959 . S
C716 C714 1.561 . S
C717 C714 1.526 . S
C717 C718 1.396 . S
C717 C722 1.390 . S
C718 C712 1.465 . S
C718 C717 1.396 . S
C718 C719 1.399 . S
C719 H705 0.929 . S
C719 C718 1.399 . S
C719 C720 1.385 . S
C720 H706 0.931 . S
C720 C719 1.385 . S
C720 C721 1.389 . S
C721 C720 1.389 . S
C721 C722 1.387 . S
C722 H707 0.930 . S
C722 C717 1.390 . S
C722 C721 1.387 . S
H723 C735 0.930 . S
H724 C737 0.930 . S
H725 C738 0.930 . S
H726 C742 0.959 . S
H727 C742 0.959 . S
H728 C742 0.961 . S
H729 C743 0.960 . S
H730 C743 0.961 . S
H731 C743 0.959 . S
H732 C746 0.929 . S
H733 C747 0.931 . S
H734 C749 0.930 . S
C735 H723 0.930 . S
C735 C736 1.399 . S
C735 C740 1.399 . S
C736 C735 1.399 . S
C736 C737 1.376 . S
C737 H724 0.930 . S
C737 C736 1.376 . S
C737 C738 1.388 . S
C738 H725 0.930 . S
C738 C737 1.388 . S
C738 C739 1.390 . S
C739 C738 1.390 . S
C739 C740 1.394 . S
C739 C745 1.465 . S
C740 C735 1.399 . S
C740 C739 1.394 . S
C740 C741 1.516 . S
C741 C740 1.516 . S
C741 C742 1.502 . S
C741 C743 1.561 . S
C741 C744 1.526 . S
C742 H726 0.959 . S
C742 H727 0.959 . S
C742 H728 0.961 . S
C742 C741 1.502 . S
C743 H729 0.960 . S
C743 H730 0.961 . S
C743 H731 0.959 . S
C743 C741 1.561 . S
C744 C741 1.526 . S
C744 C745 1.396 . S
C744 C749 1.390 . S
C745 C739 1.465 . S
C745 C744 1.396 . S
C745 C746 1.399 . S
C746 H732 0.929 . S
C746 C745 1.399 . S
C746 C747 1.385 . S
C747 H733 0.931 . S
C747 C746 1.385 . S
C747 C748 1.389 . S
C748 C747 1.389 . S
C748 C749 1.387 . S
C749 H734 0.930 . S
C749 C744 1.390 . S
C749 C748 1.387 . S
H750 C762 0.930 . S
H751 C764 0.930 . S
H752 C765 0.930 1_545 S
H753 C769 0.959 . S
H754 C769 0.959 . S
H755 C769 0.961 . S
H756 C770 0.960 . S
H757 C770 0.961 . S
H758 C770 0.959 . S
H759 C773 0.929 . S
H760 C774 0.931 . S
H761 C776 0.930 . S
C762 H750 0.930 . S
C762 C763 1.399 . S
C762 C767 1.399 1_565 S
C763 C762 1.399 . S
C763 C764 1.376 . S
C764 H751 0.930 . S
C764 C763 1.376 . S
C764 C765 1.388 . S
C765 H752 0.930 1_565 S
C765 C764 1.388 . S
C765 C766 1.390 1_565 S
C766 C765 1.390 1_545 S
C766 C767 1.394 . S
C766 C772 1.465 . S
C767 C762 1.399 1_545 S
C767 C766 1.394 . S
C767 C768 1.516 . S
C768 C767 1.516 . S
C768 C769 1.502 . S
C768 C770 1.561 . S
C768 C771 1.526 . S
C769 H753 0.959 . S
C769 H754 0.959 . S
C769 H755 0.961 . S
C769 C768 1.502 . S
C770 H756 0.960 . S
C770 H757 0.961 . S
C770 H758 0.959 . S
C770 C768 1.561 . S
C771 C768 1.526 . S
C771 C772 1.396 . S
C771 C776 1.390 . S
C772 C766 1.465 . S
C772 C771 1.396 . S
C772 C773 1.399 . S
C773 H759 0.929 . S
C773 C772 1.399 . S
C773 C774 1.385 . S
C774 H760 0.931 . S
C774 C773 1.385 . S
C774 C775 1.389 . S
C775 C774 1.389 . S
C775 C776 1.387 . S
C776 H761 0.930 . S
C776 C771 1.390 . S
C776 C775 1.387 . S
H777 C789 0.930 . S
H778 C791 0.930 . S
H779 C792 0.930 . S
H780 C796 0.959 . S
H781 C796 0.959 . S
H782 C796 0.961 . S
H783 C797 0.960 . S
H784 C797 0.961 . S
H785 C797 0.959 . S
H786 C800 0.933 . S
H787 C801 0.931 . S
H788 C803 0.930 . S
C789 H777 0.930 . S
C789 C790 1.399 . S
C789 C794 1.399 . S
C790 C789 1.399 . S
C790 C791 1.376 . S
C791 H778 0.930 . S
C791 C790 1.376 . S
C791 C792 1.388 . S
C792 H779 0.930 . S
C792 C791 1.388 . S
C792 C793 1.390 . S
C793 C792 1.390 . S
C793 C794 1.394 . S
C793 C799 1.465 . S
C794 C789 1.399 . S
C794 C793 1.394 . S
C794 C795 1.516 . S
C795 C794 1.516 . S
C795 C796 1.502 . S
C795 C797 1.561 . S
C795 C798 1.526 . S
C796 H780 0.959 . S
C796 H781 0.959 . S
C796 H782 0.961 . S
C796 C795 1.502 . S
C797 H783 0.960 . S
C797 H784 0.961 . S
C797 H785 0.959 . S
C797 C795 1.561 . S
C798 C795 1.526 . S
C798 C799 1.396 . S
C798 C803 1.390 1_565 S
C799 C793 1.465 . S
C799 C798 1.396 . S
C799 C800 1.399 1_565 S
C800 H786 0.933 . S
C800 C799 1.399 1_545 S
C800 C801 1.385 . S
C801 H787 0.931 . S
C801 C800 1.385 . S
C801 C802 1.389 . S
C802 C801 1.389 . S
C802 C803 1.387 . S
C803 H788 0.930 . S
C803 C798 1.390 1_545 S
C803 C802 1.387 . S
C277 C17 1.489 . S
C289 C50 1.511 . S
C304 C116 1.489 . S
C316 C83 1.511 . S
C331 C149 1.461 . S
C343 C182 1.481 . S
C358 C248 1.462 . S
C370 C215 1.474 . S
C385 C28 1.065 . S
C397 C160 1.032 . S
C412 C61 1.053 . S
C424 C193 1.047 . S
C439 C94 1.057 . S
C451 C226 1.043 . S
C466 C127 1.043 . S
C478 C259 1.046 . S
C493 C74 1.454 . S
C505 C8 1.429 . S
C520 C107 1.418 . S
C532 C41 1.447 . S
C547 C140 1.427 . S
C559 C206 1.415 . S
C574 C173 1.429 . S
C586 C239 1.444 . S
C601 N5 1.376 . S
C613 N14 1.347 . S
C628 N38 1.347 . S
C640 N47 1.378 . S
C655 N80 1.347 . S
C667 N71 1.376 . S
C682 N113 1.349 . S
C694 N104 1.375 . S
C709 N146 1.379 . S
C721 N137 1.345 . S
C736 N170 1.353 . S
C748 N179 1.378 . S
C763 N212 1.374 . S
C775 N203 1.346 . S
C790 N236 1.354 . S
C802 N245 1.377 . S
