# Generated by pormake.
# Topology wjd, (6)-cn, num edge types: 1
# Building blocks:
#     Node 0, Type 0, BuildingBlock: KUMJIN_clean_sbu_1, # of connection points: 6
#     Node 1, Type 0, BuildingBlock: KUMJIN_clean_sbu_1, # of connection points: 6
#     Node 2, Type 0, BuildingBlock: KUMJIN_clean_sbu_1, # of connection points: 6
#     Node 3, Type 0, BuildingBlock: KUMJIN_clean_sbu_1, # of connection points: 6
#     Node 4, Type 0, BuildingBlock: KUMJIN_clean_sbu_1, # of connection points: 6
#     Node 5, Type 0, BuildingBlock: KUMJIN_clean_sbu_1, # of connection points: 6
#     Node 6, Type 0, BuildingBlock: KUMJIN_clean_sbu_1, # of connection points: 6
#     Node 7, Type 0, BuildingBlock: KUMJIN_clean_sbu_1, # of connection points: 6
#     Node 8, Type 0, BuildingBlock: KUMJIN_clean_sbu_1, # of connection points: 6
#     Node 9, Type 0, BuildingBlock: KUMJIN_clean_sbu_1, # of connection points: 6
#     Node 10, Type 0, BuildingBlock: KUMJIN_clean_sbu_1, # of connection points: 6
#     Node 11, Type 0, BuildingBlock: KUMJIN_clean_sbu_1, # of connection points: 6
#     Edge 12, Type (0, 0), BuildingBlock: UVAHIK_clean_linker_0, # of connection points: 2
#     Edge 13, Type (0, 0), BuildingBlock: UVAHIK_clean_linker_0, # of connection points: 2
#     Edge 14, Type (0, 0), BuildingBlock: UVAHIK_clean_linker_0, # of connection points: 2
#     Edge 15, Type (0, 0), BuildingBlock: UVAHIK_clean_linker_0, # of connection points: 2
#     Edge 16, Type (0, 0), BuildingBlock: UVAHIK_clean_linker_0, # of connection points: 2
#     Edge 17, Type (0, 0), BuildingBlock: UVAHIK_clean_linker_0, # of connection points: 2
#     Edge 18, Type (0, 0), BuildingBlock: UVAHIK_clean_linker_0, # of connection points: 2
#     Edge 19, Type (0, 0), BuildingBlock: UVAHIK_clean_linker_0, # of connection points: 2
#     Edge 20, Type (0, 0), BuildingBlock: UVAHIK_clean_linker_0, # of connection points: 2
#     Edge 21, Type (0, 0), BuildingBlock: UVAHIK_clean_linker_0, # of connection points: 2
#     Edge 22, Type (0, 0), BuildingBlock: UVAHIK_clean_linker_0, # of connection points: 2
#     Edge 23, Type (0, 0), BuildingBlock: UVAHIK_clean_linker_0, # of connection points: 2
#     Edge 24, Type (0, 0), BuildingBlock: UVAHIK_clean_linker_0, # of connection points: 2
#     Edge 25, Type (0, 0), BuildingBlock: UVAHIK_clean_linker_0, # of connection points: 2
#     Edge 26, Type (0, 0), BuildingBlock: UVAHIK_clean_linker_0, # of connection points: 2
#     Edge 27, Type (0, 0), BuildingBlock: UVAHIK_clean_linker_0, # of connection points: 2
#     Edge 28, Type (0, 0), BuildingBlock: UVAHIK_clean_linker_0, # of connection points: 2
#     Edge 29, Type (0, 0), BuildingBlock: UVAHIK_clean_linker_0, # of connection points: 2
#     Edge 30, Type (0, 0), BuildingBlock: UVAHIK_clean_linker_0, # of connection points: 2
#     Edge 31, Type (0, 0), BuildingBlock: UVAHIK_clean_linker_0, # of connection points: 2
#     Edge 32, Type (0, 0), BuildingBlock: UVAHIK_clean_linker_0, # of connection points: 2
#     Edge 33, Type (0, 0), BuildingBlock: UVAHIK_clean_linker_0, # of connection points: 2
#     Edge 34, Type (0, 0), BuildingBlock: UVAHIK_clean_linker_0, # of connection points: 2
#     Edge 35, Type (0, 0), BuildingBlock: UVAHIK_clean_linker_0, # of connection points: 2
#     Edge 36, Type (0, 0), BuildingBlock: UVAHIK_clean_linker_0, # of connection points: 2
#     Edge 37, Type (0, 0), BuildingBlock: UVAHIK_clean_linker_0, # of connection points: 2
#     Edge 38, Type (0, 0), BuildingBlock: UVAHIK_clean_linker_0, # of connection points: 2
#     Edge 39, Type (0, 0), BuildingBlock: UVAHIK_clean_linker_0, # of connection points: 2
#     Edge 40, Type (0, 0), BuildingBlock: UVAHIK_clean_linker_0, # of connection points: 2
#     Edge 41, Type (0, 0), BuildingBlock: UVAHIK_clean_linker_0, # of connection points: 2
#     Edge 42, Type (0, 0), BuildingBlock: UVAHIK_clean_linker_0, # of connection points: 2
#     Edge 43, Type (0, 0), BuildingBlock: UVAHIK_clean_linker_0, # of connection points: 2
#     Edge 44, Type (0, 0), BuildingBlock: UVAHIK_clean_linker_0, # of connection points: 2
#     Edge 45, Type (0, 0), BuildingBlock: UVAHIK_clean_linker_0, # of connection points: 2
#     Edge 46, Type (0, 0), BuildingBlock: UVAHIK_clean_linker_0, # of connection points: 2
#     Edge 47, Type (0, 0), BuildingBlock: UVAHIK_clean_linker_0, # of connection points: 2
# Relax obj value: 0.073
# Max RMSD: 0.179
# Mean RMSD: 0.179
data_MOF--net-wjd--node1-KUMJIN_clean_sbu_1--edge1-UVAHIK_clean_linker_0
_symmetry_space_group_name_H-M    P1
_symmetry_Int_Tables_number       1
_symmetry_cell_setting            triclinic
loop_
_symmetry_equiv_pos_as_xyz
'x, y, z'
_cell_length_a     48.302537
_cell_length_b     48.076435
_cell_length_c     68.355962
_cell_angle_alpha  89.921906
_cell_angle_beta   89.955521
_cell_angle_gamma 119.95016
loop_
_atom_site_label
_atom_site_type_symbol
_atom_site_fract_x
_atom_site_fract_y
_atom_site_fract_z
_atom_type_partial_charge
Eu0 Eu 0.31366 0.09456 0.14916 0.0
C1 C 0.3215 0.20536 0.09583 0.0
N2 N 0.33823 0.18984 0.09299 0.0
C3 C 0.32992 0.18881 0.05841 0.0
C4 C 0.30786 0.21283 0.07987 0.0
C5 C 0.3429 0.18177 0.07466 0.0
C6 C 0.31226 0.20433 0.06102 0.0
C7 C 0.29949 0.22865 0.11818 0.0
C8 C 0.31733 0.21316 0.11482 0.0
C9 C 0.28595 0.23614 0.10229 0.0
C10 C 0.29012 0.22826 0.08321 0.0
Eu11 Eu 0.35927 0.17942 0.12125 0.0
N12 N 0.32982 0.20469 0.13004 0.0
C13 C 0.29551 0.23588 0.13744 0.0
C14 C 0.32722 0.21297 0.14873 0.0
C15 C 0.30967 0.22824 0.15276 0.0
H16 H 0.357 0.17027 0.07252 0.0
H17 H 0.30726 0.23431 0.16766 0.0
H18 H 0.30803 0.1074 0.19692 0.0
H19 H 0.36457 0.02894 0.1132 0.0
H20 H 0.3389 0.20827 0.16057 0.0
H21 H 0.28184 0.24761 0.14062 0.0
H22 H 0.33491 0.0584 0.11504 0.0
H23 H 0.33362 0.18235 0.04387 0.0
H24 H 0.27206 0.24791 0.10462 0.0
H25 H 0.27942 0.23412 0.07113 0.0
H26 H 0.32842 0.09967 0.22845 0.0
H27 H 0.30217 0.20967 0.04838 0.0
H28 H 0.38671 0.019 0.14334 0.0
N29 N 0.3299 0.08651 0.1801 0.0
C30 C 0.34653 0.07055 0.18019 0.0
C31 C 0.33384 0.09154 0.21498 0.0
C32 C 0.35802 0.06498 0.19786 0.0
C33 C 0.32272 0.0963 0.19712 0.0
C34 C 0.35174 0.076 0.21535 0.0
N35 N 0.34118 0.0659 0.14567 0.0
C36 C 0.34473 0.05444 0.12818 0.0
C37 C 0.36893 0.04276 0.16222 0.0
C38 C 0.35191 0.05951 0.16256 0.0
C39 C 0.37374 0.03195 0.14421 0.0
C40 C 0.36136 0.0376 0.12715 0.0
H41 H 0.36024 0.07225 0.22922 0.0
H42 H 0.38433 0.0441 0.21097 0.0
H43 H 0.39387 0.0247 0.17981 0.0
O44 O 0.27027 0.05538 0.13614 0.0
O45 O 0.36818 0.11786 0.14671 0.0
O46 O 0.3844 0.15071 0.11937 0.0
O47 O 0.27729 0.05669 0.16739 0.0
O48 O 0.30806 0.09472 0.11625 0.0
O49 O 0.35262 0.13776 0.10208 0.0
O50 O 0.39481 0.22666 0.13177 0.0
O51 O 0.30475 0.1495 0.11984 0.0
O52 O 0.29226 0.12698 0.15026 0.0
O53 O 0.39811 0.21312 0.10214 0.0
O54 O 0.37073 0.17676 0.15349 0.0
O55 O 0.32184 0.13883 0.16503 0.0
C56 C 0.38907 0.134 0.13283 0.0
C57 C 0.22488 0.03769 0.15629 0.0
C58 C 0.16695 1.00372 0.15343 0.0
C59 C 0.16332 0.02786 0.1627 0.0
C60 C 0.22058 0.06126 0.16557 0.0
C61 C 0.18997 0.05642 0.16864 0.0
C62 C 0.19807 0.00898 0.15018 0.0
C63 C 0.32782 0.1083 0.10147 0.0
C64 C 0.25733 0.04312 0.15303 0.0
C65 C 0.37523 0.04852 0.19754 0.0
C66 C 0.38064 0.03743 0.17979 0.0
C67 C 0.28467 0.13742 0.13456 0.0
C68 C 0.44617 0.24786 0.11886 0.0
C69 C 0.49863 0.294 0.12563 0.0
C70 C 0.51057 0.27305 0.12895 0.0
C71 C 0.45848 0.22735 0.12224 0.0
C72 C 0.46636 0.2812 0.1204 0.0
C73 C 0.49059 0.23991 0.12712 0.0
C74 C 0.35071 0.16277 0.16804 0.0
C75 C 0.41174 0.23465 0.1158 0.0
H76 H 0.13983 0.02445 0.16578 0.0
H77 H 0.24093 0.08329 0.17063 0.0
H78 H 0.18686 0.07471 0.17586 0.0
H79 H 0.2015 0.99093 0.14288 0.0
H80 H 0.53538 0.28235 0.13287 0.0
H81 H 0.44309 0.20168 0.12148 0.0
H82 H 0.45672 0.29707 0.11821 0.0
H83 H 0.4999 0.2239 0.12975 0.0
Eu84 Eu 0.82927 0.6501 0.42054 0.0
C85 C 0.71103 0.65684 0.39113 0.0
N86 N 0.73804 0.66329 0.38132 0.0
C87 C 0.70699 0.63152 0.35421 0.0
C88 C 0.68066 0.63612 0.38316 0.0
C89 C 0.7366 0.65211 0.36278 0.0
C90 C 0.67889 0.62309 0.36457 0.0
C91 C 0.6865 0.66726 0.41896 0.0
C92 C 0.71399 0.67212 0.4088 0.0
C93 C 0.6561 0.64533 0.41163 0.0
C94 C 0.65318 0.62982 0.39375 0.0
Eu95 Eu 0.78702 0.69715 0.39704 0.0
N96 N 0.7437 0.69362 0.41525 0.0
C97 C 0.69043 0.68563 0.4357 0.0
C98 C 0.74752 0.71366 0.43038 0.0
C99 C 0.72108 0.70945 0.44117 0.0
H100 H 0.75837 0.65858 0.35485 0.0
H101 H 0.7243 0.72485 0.45352 0.0
H102 H 0.83033 0.66977 0.46869 0.0
H103 H 0.93013 0.6731 0.37419 0.0
H104 H 0.771 0.73313 0.43399 0.0
H105 H 0.66995 0.68263 0.44395 0.0
H106 H 0.87311 0.64734 0.384 0.0
H107 H 0.70585 0.62208 0.33969 0.0
H108 H 0.6347 0.64101 0.41935 0.0
H109 H 0.62959 0.61368 0.388 0.0
H110 H 0.86842 0.70841 0.49221 0.0
H111 H 0.65599 0.60711 0.35792 0.0
H112 H 0.97183 0.71425 0.39553 0.0
N113 N 0.86417 0.68426 0.44537 0.0
C114 C 0.89574 0.70108 0.44058 0.0
C115 C 0.87634 0.70701 0.47762 0.0
C116 C 0.91866 0.72267 0.45392 0.0
C117 C 0.85459 0.68558 0.464 0.0
C118 C 0.90842 0.72609 0.47245 0.0
N119 N 0.88293 0.67418 0.41024 0.0
C120 C 0.89136 0.66528 0.39331 0.0
C121 C 0.93814 0.71086 0.41765 0.0
C122 C 0.90549 0.69541 0.42267 0.0
C123 C 0.94697 0.70294 0.39989 0.0
C124 C 0.92349 0.67975 0.38778 0.0
H125 H 0.92526 0.74242 0.48311 0.0
H126 H 0.96898 0.75625 0.45861 0.0
H127 H 0.98603 0.74585 0.42685 0.0
O128 O 0.82344 0.60343 0.41216 0.0
O129 O 0.85623 0.69506 0.40194 0.0
O130 O 0.83511 0.72541 0.4121 0.0
O131 O 0.83619 0.62015 0.44175 0.0
O132 O 0.81122 0.63589 0.3892 0.0
O133 O 0.81283 0.68144 0.376 0.0
O134 O 0.78035 0.73829 0.3913 0.0
O135 O 0.75932 0.64189 0.39736 0.0
O136 O 0.77647 0.62977 0.42566 0.0
O137 O 0.8065 0.72627 0.37071 0.0
O138 O 0.80538 0.70816 0.4283 0.0
O139 O 0.79754 0.66028 0.44074 0.0
C140 C 0.8598 0.72309 0.40652 0.0
C141 C 0.85942 0.59141 0.42826 0.0
C142 C 0.87844 0.55388 0.4216 0.0
C143 C 0.90988 0.57851 0.42524 0.0
C144 C 0.89096 0.61533 0.4324 0.0
C145 C 0.91601 0.60897 0.43069 0.0
C146 C 0.8532 0.56052 0.42307 0.0
C147 C 0.81293 0.65417 0.37425 0.0
C148 C 0.83327 0.59887 0.42894 0.0
C149 C 0.95111 0.73933 0.44862 0.0
C150 C 0.96085 0.73335 0.43055 0.0
C151 C 0.75474 0.62238 0.4121 0.0
C152 C 0.82609 0.78151 0.37696 0.0
C153 C 0.84533 0.83827 0.38337 0.0
C154 C 0.87694 0.84452 0.38186 0.0
C155 C 0.85797 0.78851 0.37514 0.0
C156 C 0.81993 0.8067 0.38076 0.0
C157 C 0.88315 0.81981 0.37759 0.0
C158 C 0.79676 0.68719 0.4426 0.0
C159 C 0.79946 0.74791 0.37628 0.0
H160 H 0.92966 0.57394 0.42438 0.0
H161 H 0.89631 0.63894 0.43704 0.0
H162 H 0.94023 0.62766 0.43378 0.0
H163 H 0.8289 0.54181 0.42007 0.0
H164 H 0.89684 0.86867 0.38372 0.0
H165 H 0.86356 0.76977 0.3721 0.0
H166 H 0.79549 0.80163 0.38221 0.0
H167 H 0.90758 0.82488 0.37631 0.0
Eu168 Eu 0.91308 0.22166 0.14652 0.0
C169 C 0.79392 0.10842 0.11267 0.0
N170 N 0.81223 0.13787 0.10448 0.0
C171 C 0.81467 0.11386 0.07434 0.0
C172 C 0.7864 0.08034 0.10212 0.0
C173 C 0.82183 0.14106 0.08543 0.0
C174 C 0.79714 0.08338 0.08277 0.0
C175 C 0.76491 0.07625 0.14081 0.0
C176 C 0.7834 0.10651 0.13182 0.0
C177 C 0.75808 0.04824 0.13053 0.0
C178 C 0.76871 0.05027 0.11123 0.0
Eu179 Eu 0.82362 0.18247 0.12415 0.0
N180 N 0.79067 0.13408 0.1415 0.0
C181 C 0.75339 0.07498 0.15976 0.0
C182 C 0.77734 0.1327 0.15936 0.0
C183 C 0.75918 0.10329 0.16893 0.0
H184 H 0.83534 0.16463 0.07893 0.0
H185 H 0.74927 0.10246 0.18327 0.0
H186 H 0.90304 0.21646 0.19574 0.0
H187 H 0.99133 0.32681 0.10278 0.0
H188 H 0.77994 0.15404 0.16622 0.0
H189 H 0.73916 0.05222 0.16718 0.0
H190 H 0.95722 0.26878 0.10989 0.0
H191 H 0.82273 0.11642 0.05933 0.0
H192 H 0.74419 0.02484 0.1373 0.0
H193 H 0.76302 0.02844 0.10345 0.0
H194 H 0.9105 0.2524 0.22336 0.0
H195 H 0.79186 0.06238 0.07419 0.0
H196 H 0.99953 0.36685 0.12821 0.0
N197 N 0.92173 0.25392 0.17452 0.0
C198 C 0.93828 0.2862 0.17151 0.0
C199 C 0.91803 0.26221 0.2088 0.0
C200 C 0.94435 0.30778 0.18704 0.0
C201 C 0.91318 0.24182 0.19301 0.0
C202 C 0.93324 0.29533 0.20575 0.0
N203 N 0.9454 0.27636 0.13855 0.0
C204 C 0.96039 0.28624 0.12087 0.0
C205 C 0.97024 0.33101 0.14975 0.0
C206 C 0.951 0.29776 0.15309 0.0
C207 C 0.98447 0.3415 0.13133 0.0
C208 C 0.97987 0.31898 0.11691 0.0
H209 H 0.93734 0.3111 0.21806 0.0
H210 H 0.96689 0.35794 0.19528 0.0
H211 H 0.98964 0.37825 0.16265 0.0
O212 O 0.94631 0.20768 0.13442 0.0
O213 O 0.89688 0.25445 0.13236 0.0
O214 O 0.84389 0.22943 0.1404 0.0
O215 O 0.95266 0.22528 0.16398 0.0
O216 O 0.90658 0.20866 0.11434 0.0
O217 O 0.86407 0.21395 0.10293 0.0
O218 O 0.77324 0.16892 0.12214 0.0
O219 O 0.85367 0.15819 0.12193 0.0
O220 O 0.87815 0.1689 0.15156 0.0
O221 O 0.80666 0.20104 0.10066 0.0
O222 O 0.82982 0.19851 0.15615 0.0
O223 O 0.87128 0.19139 0.16686 0.0
C224 C 0.87058 0.25542 0.13578 0.0
C225 C 0.99899 0.23499 0.14658 0.0
C226 C 0.04982 0.23707 0.1406 0.0
C227 C 0.06471 0.27058 0.13864 0.0
C228 C 0.0145 0.26857 0.14516 0.0
C229 C 0.04713 0.2862 0.14105 0.0
C230 C 0.01683 0.21934 0.14454 0.0
C231 C 0.89225 0.21605 0.10059 0.0
C232 C 0.96429 0.21595 0.14993 0.0
C233 C 0.96222 0.34101 0.18356 0.0
C234 C 0.97522 0.35259 0.16498 0.0
C235 C 0.86315 0.14887 0.13726 0.0
C236 C 0.7631 0.20865 0.10944 0.0
C237 C 0.7158 0.21378 0.11564 0.0
C238 C 0.73493 0.24726 0.11328 0.0
C239 C 0.78156 0.24212 0.10722 0.0
C240 C 0.73024 0.19465 0.11365 0.0
C241 C 0.7675 0.26121 0.10917 0.0
C242 C 0.84589 0.19407 0.17025 0.0
C243 C 0.77762 0.18801 0.10753 0.0
H244 H 0.0901 0.28475 0.1357 0.0
H245 H 1.00152 0.28121 0.14732 0.0
H246 H 0.05888 0.31209 0.13985 0.0
H247 H 0.00504 0.19342 0.14584 0.0
H248 H 0.72468 0.26274 0.11428 0.0
H249 H 0.80686 0.25359 0.10399 0.0
H250 H 0.71609 0.16887 0.11561 0.0
H251 H 0.78189 0.28697 0.10738 0.0
Eu252 Eu 0.36006 0.18321 0.42072 0.0
C253 C 0.35189 0.06395 0.37561 0.0
N254 N 0.34302 0.08563 0.37023 0.0
C255 C 0.36688 0.09141 0.33868 0.0
C256 C 0.36955 0.05584 0.36272 0.0
C257 C 0.34942 0.09873 0.35194 0.0
C258 C 0.3772 0.07005 0.34413 0.0
C259 C 0.35255 0.02761 0.40008 0.0
C260 C 0.34372 0.05027 0.39422 0.0
C261 C 0.37047 0.01978 0.38734 0.0
C262 C 0.37897 0.03387 0.36874 0.0
Eu263 Eu 0.31361 0.09617 0.39354 0.0
N264 N 0.32673 0.05859 0.40642 0.0
C265 C 0.34265 0.01305 0.41845 0.0
C266 C 0.31478 0.04244 0.42357 0.0
C267 C 0.32323 0.02013 0.43011 0.0
H268 H 0.34046 0.11427 0.34747 0.0
H269 H 0.3142 0.0079 0.44394 0.0
H270 H 0.33803 0.16672 0.46757 0.0
H271 H 0.33121 0.24907 0.36629 0.0
H272 H 0.29781 0.04574 0.43196 0.0
H273 H 0.34895 0.99555 0.42348 0.0
H274 H 0.35883 0.22171 0.37885 0.0
H275 H 0.37212 0.10204 0.32421 0.0
H276 H 0.37762 1.00258 0.39167 0.0
H277 H 0.39264 0.02743 0.35906 0.0
H278 H 0.30548 0.17648 0.49161 0.0
H279 H 0.39071 0.06441 0.33381 0.0
H280 H 0.29559 0.25825 0.38797 0.0
N281 N 0.32941 0.19103 0.44451 0.0
C282 C 0.3154 0.20823 0.43879 0.0
C283 C 0.30801 0.18544 0.47679 0.0
C284 C 0.29647 0.21414 0.45197 0.0
C285 C 0.32627 0.17982 0.46318 0.0
C286 C 0.29301 0.20262 0.47117 0.0
N287 N 0.33617 0.2114 0.40674 0.0
C288 C 0.34194 0.22354 0.38818 0.0
C289 C 0.30314 0.23508 0.41294 0.0
C290 C 0.31858 0.21837 0.41937 0.0
C291 C 0.30711 0.24541 0.39348 0.0
C292 C 0.32697 0.24003 0.38115 0.0
H293 H 0.27865 0.20669 0.48172 0.0
H294 H 0.26625 0.23526 0.45541 0.0
H295 H 0.27214 0.25363 0.4213 0.0
O296 O 0.40207 0.23015 0.41465 0.0
O297 O 0.3057 0.15281 0.42198 0.0
O298 O 0.29368 0.12985 0.39178 0.0
O299 O 0.39023 0.21367 0.44443 0.0
O300 O 0.37285 0.1815 0.38865 0.0
O301 O 0.32495 0.14118 0.37705 0.0
O302 O 0.26476 0.05414 0.39774 0.0
O303 O 0.3684 0.12062 0.39418 0.0
O304 O 0.38463 0.15373 0.42142 0.0
O305 O 0.28499 0.07044 0.36854 0.0
O306 O 0.30552 0.09914 0.42608 0.0
O307 O 0.35257 0.14043 0.43922 0.0
C308 C 0.28651 0.14171 0.40691 0.0
C309 C 0.44482 0.24985 0.43726 0.0
C310 C 0.49903 0.29624 0.43786 0.0
C311 C 0.50984 0.27666 0.44632 0.0
C312 C 0.45617 0.231 0.44595 0.0
C313 C 0.48856 0.24432 0.45025 0.0
C314 C 0.46637 0.28244 0.43314 0.0
C315 C 0.35376 0.1654 0.37408 0.0
C316 C 0.41054 0.23621 0.4329 0.0
C317 C 0.28103 0.23065 0.44551 0.0
C318 C 0.28432 0.24104 0.42606 0.0
C319 C 0.39013 0.13876 0.40718 0.0
C320 C 0.23176 0.02436 0.36911 0.0
C321 C 0.17784 0.97747 0.36957 0.0
C322 C 0.17861 0.97651 0.34903 0.0
C323 C 0.23165 0.02255 0.34855 0.0
C324 C 0.20448 1.00181 0.37966 0.0
C325 C 0.20526 0.99889 0.33865 0.0
C326 C 0.32634 0.11201 0.44046 0.0
C327 C 0.26075 0.04988 0.37887 0.0
H328 H 0.53485 0.28636 0.44982 0.0
H329 H 0.44003 0.20592 0.44929 0.0
H330 H 0.4972 0.22954 0.45675 0.0
H331 H 0.45756 0.29718 0.42674 0.0
H332 H 0.15833 0.95842 0.34092 0.0
H333 H 0.25208 0.03946 0.34 0.0
H334 H 0.20415 1.00279 0.39548 0.0
H335 H 0.20549 0.99785 0.32284 0.0
Eu336 Eu 0.78984 0.69467 0.15526 0.0
C337 C 0.88954 0.68732 0.10168 0.0
N338 N 0.85795 0.67485 0.0977 0.0
C339 C 0.87018 0.69498 0.06491 0.0
C340 C 0.91285 0.70473 0.08731 0.0
C341 C 0.84792 0.67814 0.07966 0.0
C342 C 0.90279 0.70839 0.06876 0.0
C343 C 0.93127 0.69714 0.12504 0.0
C344 C 0.89859 0.68365 0.12043 0.0
C345 C 0.95454 0.7146 0.11077 0.0
C346 C 0.94536 0.71833 0.09197 0.0
Eu347 Eu 0.82222 0.6461 0.12315 0.0
N348 N 0.87555 0.66716 0.13414 0.0
C349 C 0.93966 0.69248 0.14384 0.0
C350 C 0.88365 0.66064 0.15199 0.0
C351 C 0.91573 0.67376 0.15726 0.0
H352 H 0.82272 0.6675 0.07658 0.0
H353 H 0.92196 0.66893 0.17158 0.0
H354 H 0.81422 0.70089 0.20174 0.0
H355 H 0.66962 0.64462 0.12534 0.0
H356 H 0.86571 0.64449 0.16205 0.0
H357 H 0.96449 0.70249 0.14796 0.0
H358 H 0.72871 0.67367 0.12433 0.0
H359 H 0.8622 0.6976 0.0506 0.0
H360 H 0.97973 0.72523 0.11412 0.0
H361 H 0.96361 0.7319 0.08114 0.0
H362 H 0.79031 0.68135 0.23447 0.0
H363 H 0.91998 0.72158 0.05733 0.0
H364 H 0.6414 0.62319 0.15679 0.0
N365 N 0.76948 0.6795 0.1872 0.0
C366 C 0.73713 0.66316 0.18894 0.0
C367 C 0.77509 0.67598 0.22178 0.0
C368 C 0.72243 0.65211 0.20733 0.0
C369 C 0.78857 0.68669 0.20325 0.0
C370 C 0.74187 0.65846 0.22382 0.0
N371 N 0.73354 0.6678 0.15466 0.0
C372 C 0.71652 0.66425 0.13804 0.0
C373 C 0.68502 0.64085 0.17356 0.0
C374 C 0.71861 0.65755 0.17226 0.0
C375 C 0.66728 0.63593 0.15642 0.0
C376 C 0.68312 0.64793 0.13861 0.0
H377 H 0.7315 0.65024 0.2382 0.0
H378 H 0.67718 0.62643 0.22267 0.0
H379 H 0.64447 0.61662 0.19313 0.0
O380 O 0.78734 0.73557 0.14345 0.0
O381 O 0.75705 0.64014 0.15311 0.0
O382 O 0.76879 0.62441 0.12373 0.0
O383 O 0.79838 0.73506 0.17399 0.0
O384 O 0.7946 0.70213 0.1224 0.0
O385 O 0.78734 0.65644 0.10652 0.0
O386 O 0.82402 0.60196 0.12815 0.0
O387 O 0.84875 0.70087 0.12242 0.0
O388 O 0.84313 0.71334 0.15386 0.0
O389 O 0.81512 0.61331 0.09914 0.0
O390 O 0.81082 0.63358 0.1557 0.0
O391 O 0.82545 0.68307 0.16842 0.0
C392 C 0.7498 0.61968 0.13861 0.0
C393 C 0.82266 0.7852 0.15776 0.0
C394 C 0.84146 0.84193 0.15173 0.0
C395 C 0.87302 0.8478 0.15108 0.0
C396 C 0.85438 0.79175 0.15751 0.0
C397 C 0.8794 0.82285 0.1541 0.0
C398 C 0.81625 0.81046 0.15511 0.0
C399 C 0.78427 0.68225 0.10748 0.0
C400 C 0.79629 0.75188 0.15969 0.0
C401 C 0.68892 0.63519 0.20867 0.0
C402 C 0.67027 0.62961 0.19184 0.0
C403 C 0.85983 0.71989 0.13763 0.0
C404 C 0.8445 0.58593 0.10165 0.0
C405 C 0.86614 0.54936 0.10061 0.0
C406 C 0.8876 0.5688 0.08591 0.0
C407 C 0.86642 0.60493 0.08712 0.0
C408 C 0.84458 0.55826 0.10842 0.0
C409 C 0.88781 0.59639 0.07936 0.0
C410 C 0.81856 0.65325 0.17071 0.0
C411 C 0.82127 0.59448 0.10968 0.0
H412 H 0.89278 0.87184 0.14857 0.0
H413 H 0.85972 0.77276 0.15989 0.0
H414 H 0.9038 0.8276 0.15378 0.0
H415 H 0.79178 0.80558 0.15531 0.0
H416 H 0.90397 0.56246 0.07915 0.0
H417 H 0.8669 0.62623 0.08155 0.0
H418 H 0.82796 0.54388 0.11983 0.0
H419 H 0.90443 0.61105 0.06805 0.0
Eu420 Eu 0.82255 0.1747 0.42122 0.0
C421 C 0.93232 0.26927 0.35973 0.0
N422 N 0.91462 0.23673 0.36049 0.0
C423 C 0.90655 0.23447 0.32582 0.0
C424 C 0.93731 0.28582 0.34187 0.0
C425 C 0.90272 0.21915 0.34385 0.0
C426 C 0.92368 0.26798 0.32485 0.0
C427 C 0.96622 0.31968 0.37638 0.0
C428 C 0.94655 0.28604 0.37675 0.0
C429 C 0.97062 0.33634 0.35871 0.0
C430 C 0.95617 0.31946 0.3415 0.0
Eu431 Eu 0.90839 0.21312 0.39162 0.0
N432 N 0.9414 0.26931 0.3937 0.0
C433 C 0.98103 0.33549 0.39377 0.0
C434 C 0.9571 0.28428 0.41045 0.0
C435 C 0.9767 0.31766 0.41083 0.0
H436 H 0.89049 0.19325 0.34447 0.0
H437 H 0.98855 0.32961 0.42423 0.0
H438 H 0.84243 0.16283 0.46584 0.0
H439 H 0.74856 0.08776 0.36495 0.0
H440 H 0.95397 0.27041 0.42355 0.0
H441 H 0.99625 0.36134 0.3941 0.0
H442 H 0.77856 0.14112 0.37978 0.0
H443 H 0.89657 0.22044 0.31268 0.0
H444 H 0.98545 0.36224 0.35814 0.0
H445 H 0.96014 0.33261 0.32793 0.0
H446 H 0.83372 0.11711 0.48691 0.0
H447 H 0.92685 0.27979 0.31084 0.0
H448 H 0.74083 0.03993 0.38315 0.0
N449 N 0.81604 0.13305 0.44206 0.0
C450 C 0.79774 0.10271 0.43511 0.0
C451 C 0.82359 0.11278 0.47236 0.0
C452 C 0.79245 0.07604 0.44651 0.0
C453 C 0.82853 0.13854 0.46046 0.0
C454 C 0.80561 0.08141 0.46533 0.0
N455 N 0.79143 0.1247 0.4053 0.0
C456 C 0.77719 0.12096 0.3875 0.0
C457 C 0.76743 0.0672 0.40844 0.0
C458 C 0.78552 0.09846 0.41617 0.0
C459 C 0.75478 0.06352 0.3896 0.0
C460 C 0.7593 0.09048 0.37922 0.0
H461 H 0.80207 0.06152 0.47453 0.0
H462 H 0.77068 0.02424 0.44719 0.0
H463 H 0.74874 0.0165 0.41394 0.0
O464 O 0.77287 0.16473 0.42069 0.0
O465 O 0.85429 0.15185 0.42111 0.0
O466 O 0.87227 0.16022 0.38971 0.0
O467 O 0.80093 0.18173 0.44756 0.0
O468 O 0.82352 0.19141 0.38974 0.0
O469 O 0.86116 0.18093 0.37712 0.0
O470 O 0.94664 0.207 0.40435 0.0
O471 O 0.89388 0.24998 0.39999 0.0
O472 O 0.84332 0.22703 0.41453 0.0
O473 O 0.94093 0.20597 0.37298 0.0
O474 O 0.90669 0.20512 0.4243 0.0
O475 O 0.86614 0.21 0.43913 0.0
C476 C 0.86188 0.14183 0.40525 0.0
C477 C 0.74622 0.17191 0.44911 0.0
C478 C 0.69502 0.17093 0.44864 0.0
C479 C 0.69657 0.17424 0.46908 0.0
C480 C 0.74698 0.17501 0.46956 0.0
C481 C 0.72223 0.176 0.47944 0.0
C482 C 0.71978 0.16936 0.43866 0.0
C483 C 0.83915 0.18892 0.3747 0.0
C484 C 0.77376 0.1729 0.43892 0.0
C485 C 0.77478 0.04501 0.4387 0.0
C486 C 0.76236 0.04062 0.41973 0.0
C487 C 0.8695 0.25149 0.40749 0.0
C488 C 0.99333 0.22708 0.38497 0.0
C489 C 0.04734 0.23502 0.38707 0.0
C490 C 0.05936 0.26613 0.37934 0.0
C491 C 0.00592 0.25812 0.37724 0.0
C492 C 0.0141 0.21565 0.38994 0.0
C493 C 0.03875 0.27755 0.37455 0.0
C494 C 0.8958 0.21531 0.4386 0.0
C495 C 0.9586 0.20617 0.3874 0.0
H496 H 0.67776 0.17538 0.47705 0.0
H497 H 0.76686 0.17689 0.47795 0.0
H498 H 0.72311 0.17848 0.4952 0.0
H499 H 0.71892 0.16723 0.42286 0.0
H500 H 0.08465 0.28147 0.37656 0.0
H501 H 0.99041 0.26721 0.37301 0.0
H502 H 1.0043 0.19172 0.39602 0.0
H503 H 0.04823 0.30141 0.36847 0.0
Eu504 Eu 0.18245 0.35768 0.62318 0.0
C505 C 0.08396 0.33599 0.69517 0.0
N506 N 0.09637 0.31827 0.68802 0.0
C507 C 0.10892 0.30928 0.72049 0.0
C508 C 0.08456 0.34208 0.71537 0.0
C509 C 0.10763 0.30384 0.70031 0.0
C510 C 0.09788 0.329 0.72802 0.0
C511 C 0.05309 0.36231 0.68937 0.0
C512 C 0.06863 0.34609 0.68235 0.0
C513 C 0.05503 0.36998 0.70934 0.0
C514 C 0.07083 0.35996 0.72232 0.0
Eu515 Eu 0.09639 0.31288 0.65376 0.0
N516 N 0.06707 0.3381 0.66321 0.0
C517 C 0.0352 0.36935 0.67622 0.0
C518 C 0.04827 0.34333 0.65053 0.0
C519 C 0.03237 0.35935 0.65678 0.0
H520 H 0.11632 0.28873 0.69445 0.0
H521 H 0.01819 0.36422 0.64656 0.0
H522 H 0.16955 0.32159 0.58005 0.0
H523 H 0.25425 0.35612 0.6852 0.0
H524 H 0.04677 0.33637 0.63536 0.0
H525 H 0.02287 0.38176 0.68103 0.0
H526 H 0.22669 0.37732 0.6654 0.0
H527 H 0.11861 0.29847 0.73018 0.0
H528 H 0.04362 0.38283 0.71499 0.0
H529 H 0.07138 0.36524 0.73777 0.0
H530 H 0.17963 0.28158 0.56358 0.0
H531 H 0.0989 0.33319 0.74364 0.0
H532 H 0.25999 0.31092 0.67293 0.0
N533 N 0.19117 0.31986 0.6067 0.0
C534 C 0.20744 0.30799 0.61653 0.0
C535 C 0.18746 0.28871 0.57849 0.0
C536 C 0.21355 0.28504 0.60779 0.0
C537 C 0.18176 0.31125 0.58781 0.0
C538 C 0.20322 0.27536 0.58857 0.0
N539 N 0.21207 0.34138 0.64333 0.0
C540 C 0.22677 0.35616 0.66038 0.0
C541 C 0.23472 0.30666 0.64596 0.0
C542 C 0.21767 0.31861 0.63547 0.0
C543 C 0.24681 0.31946 0.66441 0.0
C544 C 0.24344 0.34482 0.67144 0.0
H545 H 0.20739 0.25772 0.58136 0.0
H546 H 0.23397 0.25432 0.61211 0.0
H547 H 0.25265 0.27335 0.6455 0.0
O548 O 0.23327 0.39514 0.62135 0.0
O549 O 0.14653 0.30372 0.62302 0.0
O550 O 0.13168 0.29516 0.65489 0.0
O551 O 0.20223 0.38444 0.59596 0.0
O552 O 0.18106 0.37818 0.65307 0.0
O553 O 0.14553 0.33003 0.66552 0.0
O554 O 0.07037 0.2677 0.63776 0.0
O555 O 0.10953 0.36273 0.6421 0.0
O556 O 0.16121 0.38942 0.62861 0.0
O557 O 0.05268 0.27247 0.66575 0.0
O558 O 0.09275 0.31877 0.62124 0.0
O559 O 0.1402 0.34372 0.60264 0.0
C560 C 0.1393 0.28581 0.6388 0.0
C561 C 0.25792 0.42592 0.59149 0.0
C562 C 0.31106 0.47398 0.5889 0.0
C563 C 0.30887 0.47071 0.5684 0.0
C564 C 0.25639 0.42377 0.57101 0.0
C565 C 0.28178 0.4459 0.5596 0.0
C566 C 0.28548 0.45102 0.60044 0.0
C567 C 0.16458 0.36067 0.66805 0.0
C568 C 0.23083 0.40144 0.60316 0.0
C569 C 0.22946 0.27231 0.61849 0.0
C570 C 0.23996 0.28304 0.63754 0.0
C571 C 0.13447 0.38813 0.63429 0.0
C572 C 0.01472 0.23791 0.64263 0.0
C573 C 0.9647 0.18853 0.63556 0.0
C574 C 0.95374 0.20687 0.62567 0.0
C575 C 1.00316 0.25562 0.63279 0.0
C576 C 0.9953 0.20433 0.64418 0.0
C577 C 0.97283 0.24017 0.62439 0.0
C578 C 0.10864 0.32881 0.60457 0.0
C579 C 0.04742 0.25418 0.65056 0.0
H580 H 0.3283 0.48727 0.55907 0.0
H581 H 0.23567 0.40465 0.56379 0.0
H582 H 0.2805 0.44379 0.54382 0.0
H583 H 0.28667 0.45307 0.61624 0.0
H584 H 0.93024 0.19542 0.61905 0.0
H585 H 0.0178 0.28134 0.63134 0.0
H586 H 1.00426 0.19051 0.65163 0.0
H587 H 0.96416 0.25404 0.61673 0.0
Eu588 Eu 0.22217 0.91252 0.89044 0.0
C589 C 0.10943 0.7967 0.93059 0.0
N590 N 0.13941 0.81601 0.93756 0.0
C591 C 0.11823 0.82133 0.96811 0.0
C592 C 0.08244 0.78993 0.942 0.0
C593 C 0.14428 0.82766 0.95618 0.0
C594 C 0.08718 0.8026 0.96094 0.0
C595 C 0.07498 0.7646 0.90409 0.0
C596 C 0.10585 0.78424 0.91183 0.0
C597 C 0.04803 0.75848 0.91522 0.0
C598 C 0.05174 0.77102 0.93414 0.0
Eu599 Eu 0.18198 0.825 0.91685 0.0
N600 N 0.13241 0.79058 0.90138 0.0
C601 C 0.07205 0.75113 0.88556 0.0
C602 C 0.12949 0.77555 0.88392 0.0
C603 C 0.09941 0.75624 0.87557 0.0
H604 H 0.1683 0.84204 0.96172 0.0
H605 H 0.09733 0.74489 0.86156 0.0
H606 H 0.20682 0.89903 0.84205 0.0
H607 H 0.33738 0.99035 0.92476 0.0
H608 H 0.15009 0.77758 0.87648 0.0
H609 H 0.04877 0.73595 0.8791 0.0
H610 H 0.27824 0.96063 0.9221 0.0
H611 H 0.1221 0.83093 0.9828 0.0
H612 H 0.02417 0.74365 0.90943 0.0
H613 H 0.03072 0.76583 0.9426 0.0
H614 H 0.23534 0.89929 0.812 0.0
H615 H 0.06705 0.79792 0.97017 0.0
H616 H 0.37026 0.98921 0.89728 0.0
N617 N 0.24775 0.9157 0.86026 0.0
C618 C 0.28002 0.92908 0.86086 0.0
C619 C 0.24816 0.90739 0.82569 0.0
C620 C 0.29755 0.93083 0.84393 0.0
C621 C 0.23198 0.90677 0.84281 0.0
C622 C 0.28102 0.91889 0.82633 0.0
N623 N 0.27825 0.94247 0.89381 0.0
C624 C 0.29265 0.96026 0.91011 0.0
C625 C 0.32944 0.95976 0.8789 0.0
C626 C 0.29581 0.94334 0.87808 0.0
C627 C 0.34446 0.97625 0.89608 0.0
C628 C 0.32598 0.977 0.91162 0.0
H629 H 0.29357 0.91968 0.81301 0.0
H630 H 0.34484 0.94682 0.83216 0.0
H631 H 0.37279 0.9722 0.86279 0.0
O632 O 0.21672 0.951 0.90348 0.0
O633 O 0.25482 0.89636 0.90482 0.0
O634 O 0.22727 0.8423 0.89924 0.0
O635 O 0.2238 0.95103 0.87244 0.0
O636 O 0.20981 0.9082 0.92259 0.0
O637 O 0.2157 0.86746 0.93609 0.0
O638 O 0.16897 0.77468 0.92047 0.0
O639 O 0.15785 0.85545 0.91804 0.0
O640 O 0.1688 0.87843 0.88772 0.0
O641 O 0.20098 0.81005 0.94109 0.0
O642 O 0.19578 0.82764 0.88458 0.0
O643 O 0.18844 0.86843 0.87266 0.0
C644 C 0.25414 0.86886 0.90256 0.0
C645 C 0.19039 0.9704 0.88374 0.0
C646 C 0.16811 0.00596 0.8859 0.0
C647 C 0.13807 0.98035 0.88061 0.0
C648 C 0.16037 0.94529 0.87798 0.0
C649 C 0.13432 0.95023 0.87653 0.0
C650 C 0.19432 1.00092 0.88746 0.0
C651 C 0.2196 0.89668 0.93672 0.0
C652 C 0.21704 0.96428 0.88685 0.0
C653 C 0.331 0.94555 0.84495 0.0
C654 C 0.34692 0.96005 0.86239 0.0
C655 C 0.14921 0.86546 0.90258 0.0
C656 C 0.20979 0.76686 0.93347 0.0
C657 C 0.21665 0.72 0.93022 0.0
C658 C 0.24998 0.74047 0.93052 0.0
C659 C 0.24318 0.78682 0.93366 0.0
C660 C 0.19666 0.73344 0.93161 0.0
C661 C 0.26308 0.77362 0.93216 0.0
C662 C 0.19086 0.84264 0.87 0.0
C663 C 0.18843 0.7805 0.93501 0.0
H664 H 0.11764 0.98383 0.87935 0.0
H665 H 0.15709 0.92188 0.8747 0.0
H666 H 0.11118 0.93067 0.87224 0.0
H667 H 0.21747 0.02049 0.89184 0.0
H668 H 0.26594 0.73082 0.92928 0.0
H669 H 0.25397 0.81262 0.93494 0.0
H670 H 0.17093 0.71791 0.93152 0.0
H671 H 0.28877 0.78915 0.93228 0.0
Eu672 Eu 0.6468 0.82711 0.62372 0.0
C673 C 0.65906 0.73365 0.68778 0.0
N674 N 0.67665 0.76599 0.68541 0.0
C675 C 0.67643 0.77365 0.72 0.0
C676 C 0.64877 0.72001 0.7065 0.0
C677 C 0.68643 0.78601 0.70115 0.0
C678 C 0.65722 0.74052 0.72267 0.0
C679 C 0.63525 0.6804 0.67351 0.0
C680 C 0.65234 0.71407 0.6715 0.0
C681 C 0.62422 0.6667 0.69206 0.0
C682 C 0.63091 0.68645 0.70851 0.0
Eu683 Eu 0.68974 0.78459 0.65298 0.0
N684 N 0.66288 0.728 0.6537 0.0
C685 C 0.63007 0.66153 0.65681 0.0
C686 C 0.65929 0.70985 0.63753 0.0
C687 C 0.64244 0.67635 0.63879 0.0
H688 H 0.70179 0.81156 0.6991 0.0
H689 H 0.63897 0.66198 0.62587 0.0
H690 H 0.66699 0.83532 0.57634 0.0
H691 H 0.67905 0.91891 0.68047 0.0
H692 H 0.66872 0.72124 0.62359 0.0
H693 H 0.61699 0.63557 0.65774 0.0
H694 H 0.64875 0.865 0.66635 0.0
H695 H 0.68361 0.78964 0.73245 0.0
H696 H 0.61083 0.64086 0.69389 0.0
H697 H 0.62262 0.67552 0.72277 0.0
H698 H 0.70099 0.87865 0.55325 0.0
H699 H 0.64963 0.73101 0.7373 0.0
H700 H 0.71722 0.96437 0.65993 0.0
N701 N 0.67847 0.86667 0.60065 0.0
C702 C 0.69433 0.89743 0.60725 0.0
C703 C 0.69944 0.88423 0.56841 0.0
C704 C 0.71402 0.9229 0.59455 0.0
C705 C 0.68038 0.85973 0.58154 0.0
C706 C 0.71643 0.91594 0.57495 0.0
N707 N 0.67269 0.87826 0.63893 0.0
C708 C 0.66688 0.88387 0.65762 0.0
C709 C 0.70847 0.93504 0.63415 0.0
C710 C 0.69162 0.90335 0.62691 0.0
C711 C 0.70463 0.94041 0.65381 0.0
C712 C 0.68332 0.91478 0.66549 0.0
H713 H 0.73131 0.93485 0.56475 0.0
H714 H 0.74641 0.97417 0.59232 0.0
H715 H 0.74157 0.9848 0.62695 0.0
O716 O 0.60939 0.8391 0.62939 0.0
O717 O 0.70084 0.84674 0.62275 0.0
O718 O 0.70997 0.83825 0.65413 0.0
O719 O 0.61533 0.82583 0.6003 0.0
O720 O 0.6304 0.80869 0.65492 0.0
O721 O 0.67843 0.81961 0.66719 0.0
O722 O 0.73433 0.79552 0.63825 0.0
O723 O 0.6367 0.75096 0.6467 0.0
O724 O 0.61778 0.77299 0.62334 0.0
O725 O 0.72719 0.78106 0.66863 0.0
O726 O 0.68875 0.7814 0.62011 0.0
O727 O 0.65533 0.79513 0.60292 0.0
C728 C 0.71948 0.85568 0.63817 0.0
C729 C 0.56283 0.81093 0.61053 0.0
C730 C 0.50862 0.80273 0.61197 0.0
C731 C 0.4965 0.76965 0.60905 0.0
C732 C 0.55006 0.7779 0.60757 0.0
C733 C 0.51711 0.7574 0.60689 0.0
C734 C 0.54202 0.82329 0.61288 0.0
C735 C 0.64867 0.81173 0.66992 0.0
C736 C 0.59774 0.83227 0.61179 0.0
C737 C 0.73101 0.95435 0.60183 0.0
C738 C 0.72831 0.96038 0.62157 0.0
C739 C 0.61516 0.74897 0.63405 0.0
C740 C 0.77949 0.81839 0.65885 0.0
C741 C 0.83727 0.84068 0.65948 0.0
C742 C 0.84048 0.86767 0.66947 0.0
C743 C 0.78321 0.84549 0.66888 0.0
C744 C 0.80661 0.81619 0.65395 0.0
C745 C 0.81359 0.87011 0.674 0.0
C746 C 0.67504 0.78348 0.60394 0.0
C747 C 0.74733 0.79201 0.65409 0.0
H748 H 0.47098 0.75313 0.60862 0.0
H749 H 0.56563 0.76803 0.6058 0.0
H750 H 0.5075 0.73191 0.60471 0.0
H751 H 0.55181 0.84882 0.61516 0.0
H752 H 0.86386 0.8869 0.67375 0.0
H753 H 0.76256 0.84736 0.67297 0.0
H754 H 0.80381 0.79512 0.64639 0.0
H755 H 0.81628 0.89097 0.6817 0.0
Eu756 Eu 0.09496 0.31561 0.89288 0.0
C757 C 0.20775 0.31136 0.92755 0.0
N758 N 0.19217 0.32466 0.93671 0.0
C759 C 0.18968 0.29697 0.96638 0.0
C760 C 0.21429 0.28957 0.9375 0.0
C761 C 0.18346 0.31824 0.95589 0.0
C762 C 0.20503 0.28246 0.95713 0.0
C763 C 0.23219 0.30508 0.89812 0.0
C764 C 0.2163 0.31887 0.90799 0.0
C765 C 0.23828 0.28298 0.9079 0.0
C766 C 0.22938 0.27527 0.92753 0.0
Eu767 Eu 0.18256 0.36006 0.91801 0.0
N768 N 0.20943 0.33981 0.89869 0.0
C769 C 0.24194 0.31426 0.87877 0.0
C770 C 0.22163 0.35102 0.8805 0.0
C771 C 0.23719 0.3378 0.87007 0.0
H772 H 0.17159 0.32947 0.96304 0.0
H773 H 0.24609 0.34627 0.85546 0.0
H774 H 0.10399 0.30719 0.84505 0.0
H775 H 0.0308 0.36711 0.92998 0.0
H776 H 0.22053 0.3709 0.87411 0.0
H777 H 0.25416 0.30419 0.87068 0.0
H778 H 0.06116 0.33835 0.92774 0.0
H779 H 0.18256 0.29171 0.98156 0.0
H780 H 0.25014 0.27191 0.90046 0.0
H781 H 0.23431 0.25822 0.93487 0.0
H782 H 0.09326 0.32531 0.81349 0.0
H783 H 0.2096 0.26581 0.96525 0.0
H784 H 0.01791 0.38704 0.8999 0.0
N785 N 0.08363 0.32938 0.86208 0.0
C786 C 0.06762 0.34593 0.8622 0.0
C787 C 0.08597 0.3313 0.82708 0.0
C788 C 0.06039 0.35614 0.84457 0.0
C789 C 0.09225 0.32133 0.84493 0.0
C790 C 0.0701 0.34892 0.82689 0.0
N791 N 0.06595 0.34273 0.8968 0.0
C792 C 0.05574 0.34709 0.91457 0.0
C793 C 0.04084 0.36888 0.88061 0.0
C794 C 0.05806 0.35235 0.88002 0.0
C795 C 0.0312 0.37442 0.89883 0.0
C796 C 0.03848 0.36327 0.91586 0.0
H797 H 0.06516 0.3565 0.81303 0.0
H798 H 0.03792 0.38116 0.83171 0.0
H799 H 0.02071 0.39219 0.86324 0.0
O800 O 0.06238 0.27046 0.90747 0.0
O801 O 0.11629 0.36966 0.89789 0.0
O802 O 0.15545 0.38642 0.92194 0.0
O803 O 0.05466 0.2771 0.8771 0.0
O804 O 0.09606 0.31238 0.92593 0.0
O805 O 0.14388 0.3518 0.94013 0.0
O806 O 0.22867 0.40341 0.91265 0.0
O807 O 0.14912 0.30572 0.91919 0.0
O808 O 0.12864 0.2964 0.88856 0.0
O809 O 0.21371 0.38765 0.94224 0.0
O810 O 0.17667 0.37619 0.88745 0.0
O811 O 0.13904 0.32763 0.87561 0.0
C812 C 0.13562 0.39065 0.91088 0.0
C813 C 0.00923 0.24358 0.89628 0.0
C814 C 0.9574 0.19555 0.90164 0.0
C815 C 0.94429 0.21513 0.90606 0.0
C816 C 0.99555 0.26269 0.90041 0.0
C817 C 0.96326 0.2485 0.90529 0.0
C818 C 0.98998 0.20996 0.89666 0.0
C819 C 0.11347 0.3291 0.94097 0.0
C820 C 0.04368 0.25839 0.89234 0.0
C821 C 0.04362 0.37303 0.84511 0.0
C822 C 0.0338 0.37931 0.86308 0.0
C823 C 0.13899 0.28746 0.90364 0.0
C824 C 0.2694 0.41392 0.93549 0.0
C825 C 0.32746 0.45013 0.93462 0.0
C826 C 0.3313 0.4263 0.9442 0.0
C827 C 0.27407 0.39059 0.94486 0.0
C828 C 0.29616 0.44357 0.93031 0.0
C829 C 0.30484 0.3968 0.94914 0.0
C830 C 0.16057 0.35765 0.87269 0.0
C831 C 0.23689 0.40769 0.93098 0.0
H832 H 0.91925 0.20457 0.90984 0.0
H833 H 0.0098 0.28851 0.89995 0.0
H834 H 0.95291 0.26342 0.90855 0.0
H835 H 1.00044 0.19507 0.8935 0.0
H836 H 0.35477 0.43055 0.94822 0.0
H837 H 0.25401 0.36763 0.94901 0.0
H838 H 0.29249 0.46132 0.92278 0.0
H839 H 0.30821 0.37875 0.9565 0.0
Eu840 Eu 0.16992 0.81939 0.62059 0.0
C841 C 0.252 0.91645 0.69317 0.0
N842 N 0.22132 0.90371 0.68715 0.0
C843 C 0.20287 0.89078 0.72024 0.0
C844 C 0.25936 0.91602 0.71308 0.0
C845 C 0.19685 0.89196 0.70032 0.0
C846 C 0.23423 0.9024 0.72662 0.0
C847 C 0.30841 0.94708 0.68532 0.0
C848 C 0.27613 0.93163 0.6795 0.0
C849 C 0.31596 0.94559 0.705 0.0
C850 C 0.29147 0.93003 0.71885 0.0
Eu851 Eu 0.21275 0.90419 0.65327 0.0
N852 N 0.26797 0.93266 0.66066 0.0
C853 C 0.33204 0.96421 0.67126 0.0
C854 C 0.29078 0.95067 0.64707 0.0
C855 C 0.32315 0.96635 0.6521 0.0
H856 H 0.17261 0.88304 0.69535 0.0
H857 H 0.3412 0.98004 0.64122 0.0
H858 H 0.15245 0.83564 0.5766 0.0
H859 H 0.08914 0.74688 0.68015 0.0
H860 H 0.28383 0.95222 0.63225 0.0
H861 H 0.35713 0.97644 0.67513 0.0
H862 H 0.13966 0.77335 0.66208 0.0
H863 H 0.18334 0.88083 0.73064 0.0
H864 H 0.34063 0.95703 0.70974 0.0
H865 H 0.29763 0.9297 0.73406 0.0
H866 H 0.10495 0.82778 0.55813 0.0
H867 H 0.23884 0.90151 0.74205 0.0
H868 H 0.0407 0.74382 0.66589 0.0
N869 N 0.12603 0.81316 0.60234 0.0
C870 C 0.09697 0.79725 0.61112 0.0
C871 C 0.1024 0.81918 0.57303 0.0
C872 C 0.0693 0.79243 0.60121 0.0
C873 C 0.12918 0.82363 0.58348 0.0
C874 C 0.07234 0.80368 0.58197 0.0
N875 N 0.12199 0.79029 0.6391 0.0
C876 C 0.11963 0.77459 0.65624 0.0
C877 C 0.06498 0.76963 0.63959 0.0
C878 C 0.09497 0.78613 0.63014 0.0
C879 C 0.06325 0.75662 0.65815 0.0
C880 C 0.09057 0.75847 0.6663 0.0
H881 H 0.05166 0.80048 0.5739 0.0
H882 H 0.01824 0.77344 0.60358 0.0
H883 H 0.01443 0.75346 0.63716 0.0
O884 O 0.1561 0.76823 0.61862 0.0
O885 O 0.15322 0.85639 0.62015 0.0
O886 O 0.15979 0.86974 0.65221 0.0
O887 O 0.17735 0.79991 0.59346 0.0
O888 O 0.18853 0.81784 0.65102 0.0
O889 O 0.17757 0.85458 0.66355 0.0
O890 O 0.20361 0.93826 0.6371 0.0
O891 O 0.24795 0.88793 0.64422 0.0
O892 O 0.22255 0.83989 0.62633 0.0
O893 O 0.20947 0.94233 0.66843 0.0
O894 O 0.22294 0.90927 0.62086 0.0
O895 O 0.20137 0.86271 0.60145 0.0
C896 C 0.14389 0.86505 0.6359 0.0
C897 C 0.16302 0.74407 0.5888 0.0
C898 C 0.15825 0.69095 0.58608 0.0
C899 C 0.15921 0.69418 0.56558 0.0
C900 C 0.16423 0.74659 0.56832 0.0
C901 C 0.16215 0.72173 0.55683 0.0
C902 C 0.15969 0.71596 0.59768 0.0
C903 C 0.18719 0.83389 0.66612 0.0
C904 C 0.16548 0.77106 0.60054 0.0
C905 C 0.03967 0.77696 0.61085 0.0
C906 C 0.03755 0.76573 0.63001 0.0
C907 C 0.24784 0.86415 0.63447 0.0
C908 C 0.22586 0.99028 0.65089 0.0
C909 C 0.23084 0.04317 0.6463 0.0
C910 C 0.264 0.05734 0.64936 0.0
C911 C 0.2589 0.00513 0.65398 0.0
C912 C 0.21187 0.00934 0.64703 0.0
C913 C 0.27783 0.03842 0.65309 0.0
C914 C 0.21846 0.89423 0.60399 0.0
C915 C 0.20579 0.95511 0.65255 0.0
H916 H 0.15747 0.67521 0.55622 0.0
H917 H 0.16658 0.76777 0.56114 0.0
H918 H 0.16286 0.72383 0.54105 0.0
H919 H 0.15908 0.71393 0.61349 0.0
H920 H 0.27929 0.08317 0.64936 0.0
H921 H 0.27 0.99106 0.65744 0.0
H922 H 0.18631 0.99782 0.64467 0.0
H923 H 0.3033 0.04966 0.65562 0.0
Eu924 Eu 0.69566 0.78953 0.89571 0.0
C925 C 0.68635 0.89924 0.93399 0.0
N926 N 0.67599 0.86931 0.94128 0.0
C927 C 0.70055 0.89133 0.97213 0.0
C928 C 0.70541 0.92664 0.94544 0.0
C929 C 0.68201 0.86486 0.96017 0.0
C930 C 0.71248 0.92236 0.9647 0.0
C931 C 0.69001 0.93323 0.9067 0.0
C932 C 0.67864 0.90239 0.91481 0.0
C933 C 0.70959 0.96058 0.91792 0.0
C934 C 0.71715 0.95731 0.93725 0.0
Eu935 Eu 0.64391 0.82608 0.92057 0.0
N936 N 0.65969 0.87544 0.90424 0.0
C937 C 0.68093 0.93571 0.88765 0.0
C938 C 0.64889 0.87791 0.88622 0.0
C939 C 0.65989 0.90795 0.87749 0.0
H940 H 0.67258 0.84087 0.96593 0.0
H941 H 0.65169 0.90967 0.86305 0.0
H942 H 0.69769 0.80419 0.8472 0.0
H943 H 0.67013 0.67788 0.9313 0.0
H944 H 0.6311 0.85701 0.87861 0.0
H945 H 0.68921 0.95896 0.88089 0.0
H946 H 0.69178 0.73668 0.92858 0.0
H947 H 0.70565 0.8878 0.98705 0.0
H948 H 0.7187 0.98442 0.91185 0.0
H949 H 0.73211 0.97864 0.94575 0.0
H950 H 0.67377 0.77377 0.81689 0.0
H951 H 0.72706 0.94281 0.97395 0.0
H952 H 0.64176 0.64262 0.9032 0.0
N953 N 0.67672 0.7628 0.86547 0.0
C954 C 0.6615 0.73022 0.86614 0.0
C955 C 0.66975 0.76121 0.83068 0.0
C956 C 0.64871 0.71177 0.84905 0.0
C957 C 0.68271 0.77841 0.84794 0.0
C958 C 0.65217 0.72772 0.83128 0.0
N959 N 0.67478 0.73396 0.89963 0.0
C960 C 0.67928 0.72121 0.91636 0.0
C961 C 0.64827 0.68188 0.8845 0.0
C962 C 0.66104 0.71539 0.88365 0.0
C963 C 0.65114 0.66826 0.90199 0.0
C964 C 0.66716 0.68809 0.91789 0.0
H965 H 0.6426 0.71442 0.81784 0.0
H966 H 0.62397 0.66358 0.83715 0.0
H967 H 0.62376 0.63742 0.86817 0.0
O968 O 0.74168 0.80297 0.90932 0.0
O969 O 0.64713 0.75404 0.90938 0.0
O970 O 0.61767 0.77893 0.90442 0.0
O971 O 0.73367 0.78799 0.87924 0.0
O972 O 0.70093 0.80061 0.92804 0.0
O973 O 0.65341 0.79366 0.94075 0.0
O974 O 0.60623 0.8387 0.9223 0.0
O975 O 0.69842 0.85171 0.92208 0.0
O976 O 0.71153 0.84211 0.89183 0.0
O977 O 0.60929 0.80853 0.94454 0.0
O978 O 0.63295 0.81034 0.88858 0.0
O979 O 0.68205 0.82023 0.87723 0.0
C980 C 0.61943 0.75304 0.90793 0.0
C981 C 0.78611 0.82648 0.88813 0.0
C982 C 0.8439 0.84935 0.88533 0.0
C983 C 0.84613 0.87718 0.87702 0.0
C984 C 0.78891 0.85439 0.87972 0.0
C985 C 0.81881 0.8797 0.87435 0.0
C986 C 0.81369 0.82411 0.89111 0.0
C987 C 0.67934 0.79103 0.94201 0.0
C988 C 0.7544 0.7996 0.89335 0.0
C989 C 0.63417 0.67816 0.85009 0.0
C990 C 0.63407 0.66326 0.86776 0.0
C991 C 0.7173 0.86137 0.90673 0.0
C992 C 0.55745 0.8002 0.93688 0.0
C993 C 0.50446 0.79422 0.93156 0.0
C994 C 0.49065 0.7612 0.9356 0.0
C995 C 0.54288 0.76717 0.94086 0.0
C996 C 0.53805 0.81365 0.93237 0.0
C997 C 0.50973 0.74788 0.94018 0.0
C998 C 0.65295 0.81492 0.87414 0.0
C999 C 0.59267 0.8209 0.93758 0.0
H1000 H 0.86909 0.89707 0.87264 0.0
H1001 H 0.76792 0.85642 0.87712 0.0
H1002 H 0.82079 0.90121 0.86792 0.0
H1003 H 0.81155 0.80242 0.89743 0.0
H1004 H 0.46496 0.74563 0.93545 0.0
H1005 H 0.55705 0.75613 0.94446 0.0
H1006 H 0.54916 0.8391 0.92921 0.0
H1007 H 0.49874 0.72245 0.94327 0.0
C1008 C 0.08919 0.2268 0.12283 0.0
C1009 C 0.06911 0.22101 0.13904 0.0
C1010 C 0.10929 0.21368 0.12205 0.0
C1011 C 0.1542 0.19011 0.15342 0.0
H1012 H 0.15993 0.14447 0.10831 0.0
C1013 C 0.24158 0.1413 0.1527 0.0
C1014 C 0.25649 0.14194 0.13493 0.0
C1015 C 0.21639 0.14774 0.15319 0.0
C1016 C 0.15907 0.15759 0.12093 0.0
H1017 H 0.05394 0.19676 0.16701 0.0
H1018 H 0.08981 0.17441 0.16587 0.0
H1019 H 0.12026 0.16175 0.10889 0.0
H1020 H 0.25626 0.14933 0.10366 0.0
H1021 H 0.21386 0.16253 0.10459 0.0
H1022 H 0.19386 0.18768 0.16516 0.0
C1023 C 0.08967 0.18881 0.15371 0.0
C1024 C 0.13612 0.16724 0.12128 0.0
C1025 C 0.06908 0.2014 0.1543 0.0
C1026 C 0.24535 0.14874 0.11762 0.0
C1027 C 0.22067 0.15595 0.11815 0.0
C1028 C 0.17755 0.18106 0.15293 0.0
C1029 C 0.11015 0.19507 0.13764 0.0
C1030 C 0.1335 0.1836 0.13753 0.0
C1031 C 0.20591 0.15573 0.13597 0.0
C1032 C 0.18039 0.16467 0.13667 0.0
H1033 H 0.08956 0.24178 0.11086 0.0
H1034 H 0.12497 0.219 0.10955 0.0
H1035 H 0.15294 0.20311 0.16602 0.0
H1036 H 0.24983 0.13658 0.16636 0.0
H1037 H 0.20532 0.14661 0.16717 0.0
C1038 C 0.13084 0.96086 0.39222 0.0
C1039 C 0.14876 0.95255 0.37976 0.0
C1040 C 0.09979 0.93755 0.39796 0.0
C1041 C 0.0334 0.86554 0.3776 0.0
H1042 H 0.99511 0.84488 0.42926 0.0
C1043 C 0.91314 0.752 0.39045 0.0
C1044 C 0.8916 0.75208 0.40418 0.0
C1045 C 0.94395 0.77818 0.38876 0.0
C1046 C 0.00529 0.85074 0.4147 0.0
H1047 H 0.14957 0.91308 0.36506 0.0
H1048 H 0.09577 0.87272 0.37499 0.0
H1049 H 0.05103 0.8875 0.42533 0.0
H1050 H 0.88501 0.78011 0.42654 0.0
H1051 H 0.93897 0.82672 0.42321 0.0
H1052 H 0.98813 0.82964 0.36673 0.0
C1053 C 0.10532 0.89715 0.38008 0.0
C1054 C 0.03733 0.87503 0.41249 0.0
C1055 C 0.13614 0.92022 0.37447 0.0
C1056 C 0.90122 0.77942 0.41585 0.0
C1057 C 0.93221 0.80592 0.41408 0.0
C1058 C 1.00149 0.84172 0.37974 0.0
C1059 C 0.08633 0.90575 0.39123 0.0
C1060 C 0.05186 0.88207 0.39395 0.0
C1061 C 0.95401 0.80558 0.4005 0.0
C1062 C 0.98715 0.83335 0.39835 0.0
H1063 H 0.13996 0.98564 0.39643 0.0
H1064 H 0.08565 0.94477 0.40661 0.0
H1065 H 0.04376 0.87095 0.36306 0.0
H1066 H 0.90625 0.73146 0.38106 0.0
H1067 H 0.96008 0.77663 0.37839 0.0
C1068 C 0.85751 0.09918 0.12201 0.0
C1069 C 0.85625 0.11543 0.13869 0.0
C1070 C 0.85114 0.0675 0.12339 0.0
C1071 C 0.84702 0.00805 0.16005 0.0
H1072 H 0.81127 0.94934 0.11634 0.0
C1073 C 0.81986 0.87652 0.1638 0.0
C1074 C 0.83538 0.86899 0.14912 0.0
C1075 C 0.81774 0.90447 0.16243 0.0
C1076 C 0.82119 0.9655 0.12866 0.0
H1077 H 0.8463 0.11131 0.16975 0.0
H1078 H 0.83403 0.05568 0.17218 0.0
H1079 H 0.81575 1.00217 0.11449 0.0
H1080 H 0.85946 0.88363 0.12112 0.0
H1081 H 0.85496 0.93204 0.11843 0.0
H1082 H 0.85189 0.97096 0.17427 0.0
C1083 C 0.84101 0.06751 0.15809 0.0
C1084 C 0.82403 0.9959 0.12758 0.0
C1085 C 0.84796 0.09938 0.15674 0.0
C1086 C 0.84741 0.88901 0.13263 0.0
C1087 C 0.84472 0.91656 0.13106 0.0
C1088 C 0.84361 0.97746 0.16125 0.0
C1089 C 0.84291 0.0512 0.14148 0.0
C1090 C 0.83754 0.01786 0.14313 0.0
C1091 C 0.83051 0.92494 0.14615 0.0
C1092 C 0.83115 0.95609 0.14546 0.0
H1093 H 0.86394 0.11116 0.10793 0.0
H1094 H 0.8534 0.05612 0.11031 0.0
H1095 H 0.85809 0.02431 0.1722 0.0
H1096 H 0.81058 0.86153 0.17671 0.0
H1097 H 0.80658 0.91037 0.17422 0.0
C1098 C 0.24411 0.14928 0.42272 0.0
C1099 C 0.25943 0.14766 0.40567 0.0
C1100 C 0.21973 0.15685 0.42164 0.0
C1101 C 0.1626 0.16064 0.38689 0.0
H1102 H 0.15857 0.21645 0.42627 0.0
C1103 C 0.09998 0.24329 0.39934 0.0
C1104 C 0.06952 0.22275 0.39151 0.0
C1105 C 0.12177 0.23259 0.40216 0.0
C1106 C 0.15945 0.20103 0.41506 0.0
H1107 H 0.26138 0.15258 0.37412 0.0
H1108 H 0.21919 0.16625 0.37218 0.0
H1109 H 0.19984 0.20164 0.42833 0.0
H1110 H 0.03791 0.17444 0.38099 0.0
H1111 H 0.07543 0.1554 0.38665 0.0
H1112 H 0.12321 0.16122 0.37309 0.0
C1113 C 0.22545 0.16106 0.38639 0.0
C1114 C 0.18289 0.19215 0.4164 0.0
C1115 C 0.24966 0.15326 0.38748 0.0
C1116 C 0.06104 0.19088 0.38719 0.0
C1117 C 0.08277 0.18008 0.39017 0.0
C1118 C 0.13935 0.16973 0.38545 0.0
C1119 C 0.21023 0.16306 0.40346 0.0
C1120 C 0.18484 0.17193 0.40229 0.0
C1121 C 0.1136 0.20094 0.39743 0.0
C1122 C 0.13753 0.19017 0.39947 0.0
H1123 H 0.25108 0.14482 0.43693 0.0
H1124 H 0.20827 0.15772 0.43506 0.0
H1125 H 0.1631 0.1447 0.37589 0.0
H1126 H 0.10718 0.26784 0.40314 0.0
H1127 H 0.14535 0.24948 0.40759 0.0
C1128 C 0.13715 0.94341 0.15065 0.0
C1129 C 0.13819 0.9729 0.14783 0.0
C1130 C 0.10906 0.91441 0.14704 0.0
C1131 C 0.04188 0.8582 0.15192 0.0
H1132 H 0.98161 0.85091 0.11204 0.0
C1133 C 0.90962 0.75963 0.15487 0.0
C1134 C 0.89304 0.74701 0.13729 0.0
C1135 C 0.94086 0.78545 0.15467 0.0
C1136 C 0.99828 0.85223 0.12308 0.0
H1137 H 0.11088 0.9949 0.13793 0.0
H1138 H 0.06178 0.94465 0.13246 0.0
H1139 H 0.0343 0.89849 0.11309 0.0
H1140 H 0.89623 0.75137 0.10572 0.0
H1141 H 0.95133 0.79548 0.10528 0.0
H1142 H 0.00618 0.81158 0.16159 0.0
C1143 C 0.0827 0.94373 0.13719 0.0
C1144 C 0.02843 0.87982 0.12387 0.0
C1145 C 0.11081 0.97266 0.14063 0.0
C1146 C 0.90851 0.76045 0.1195 0.0
C1147 C 0.93997 0.786 0.11927 0.0
C1148 C 0.01188 0.83046 0.15099 0.0
C1149 C 0.08125 0.91418 0.14063 0.0
C1150 C 0.05041 0.88348 0.13854 0.0
C1151 C 0.95649 0.79904 0.13688 0.0
C1152 C 0.98942 0.82736 0.13681 0.0
H1153 H 0.15771 0.94264 0.15628 0.0
H1154 H 0.10905 0.89216 0.14954 0.0
H1155 H 0.05796 0.86017 0.16356 0.0
H1156 H 0.89837 0.74969 0.16883 0.0
H1157 H 0.95248 0.79515 0.16854 0.0
C1158 C 0.82076 0.87182 0.37471 0.0
C1159 C 0.83929 0.86499 0.38753 0.0
C1160 C 0.8182 0.8993 0.37742 0.0
C1161 C 0.8264 0.96013 0.41285 0.0
H1162 H 0.85437 0.01818 0.36848 0.0
C1163 C 0.85936 0.09311 0.42019 0.0
C1164 C 0.85506 0.1084 0.40396 0.0
C1165 C 0.85361 0.06164 0.41866 0.0
C1166 C 0.84576 1.00212 0.38094 0.0
H1167 H 0.86827 0.88035 0.41374 0.0
H1168 H 0.86312 0.92801 0.41877 0.0
H1169 H 0.84932 0.96553 0.3652 0.0
H1170 H 0.83988 0.10258 0.37373 0.0
H1171 H 0.82853 0.04739 0.37119 0.0
H1172 H 0.82223 0.99634 0.42856 0.0
C1173 C 0.85087 0.91232 0.40656 0.0
C1174 C 0.84303 0.97193 0.37903 0.0
C1175 C 0.85394 0.88522 0.40363 0.0
C1176 C 0.84402 0.09148 0.38635 0.0
C1177 C 0.83763 0.05985 0.38491 0.0
C1178 C 0.82852 0.99015 0.41468 0.0
C1179 C 0.83358 0.92002 0.39323 0.0
C1180 C 0.83373 0.95082 0.39501 0.0
C1181 C 0.84294 0.04463 0.40092 0.0
C1182 C 0.83866 0.01178 0.39881 0.0
H1183 H 0.80937 0.85663 0.36216 0.0
H1184 H 0.80466 0.90469 0.36698 0.0
H1185 H 0.81901 0.94417 0.42537 0.0
H1186 H 0.86782 0.10574 0.43395 0.0
H1187 H 0.85838 0.05105 0.43127 0.0
C1188 C 0.23294 0.09254 0.6321 0.0
C1189 C 0.21645 0.06402 0.64305 0.0
C1190 C 0.2213 0.11386 0.63061 0.0
C1191 C 0.18652 0.15036 0.62256 0.0
H1192 H 0.14637 0.16234 0.66839 0.0
C1193 C 0.13857 0.2391 0.62213 0.0
C1194 C 0.14337 0.25732 0.63911 0.0
C1195 C 0.14451 0.21343 0.62216 0.0
C1196 C 0.15776 0.15953 0.65549 0.0
H1197 H 0.17391 0.03517 0.66043 0.0
H1198 H 0.15289 0.0717 0.65717 0.0
H1199 H 0.16258 0.12193 0.66885 0.0
H1200 H 0.1576 0.26278 0.66953 0.0
H1201 H 0.16874 0.21863 0.66955 0.0
H1202 H 0.18323 0.18912 0.60959 0.0
C1203 C 0.17538 0.07803 0.65015 0.0
C1204 C 0.16663 0.1359 0.65564 0.0
C1205 C 0.18721 0.05677 0.65178 0.0
C1206 C 0.15342 0.24892 0.65627 0.0
C1207 C 0.15972 0.22352 0.65627 0.0
C1208 C 0.17794 0.1742 0.62249 0.0
C1209 C 0.19255 0.10717 0.63982 0.0
C1210 C 0.18137 0.13111 0.63923 0.0
C1211 C 0.15559 0.20553 0.63917 0.0
C1212 C 0.16361 0.17927 0.639 0.0
H1213 H 0.25524 0.09872 0.62486 0.0
H1214 H 0.23546 0.1361 0.62269 0.0
H1215 H 0.19735 0.14718 0.60952 0.0
H1216 H 0.13055 0.24495 0.60875 0.0
H1217 H 0.14052 0.19987 0.60881 0.0
C1218 C 0.10299 0.86043 0.88326 0.0
C1219 C 0.11676 0.86137 0.90151 0.0
C1220 C 0.07275 0.85747 0.88209 0.0
C1221 C 0.99728 0.82993 0.90835 0.0
H1222 H 0.98865 0.89015 0.87473 0.0
C1223 C 0.88114 0.83837 0.90541 0.0
C1224 C 0.87317 0.84681 0.88745 0.0
C1225 C 0.91016 0.83865 0.90759 0.0
C1226 C 0.99034 0.87272 0.88394 0.0
H1227 H 0.10958 0.85988 0.93286 0.0
H1228 H 0.05609 0.85351 0.93082 0.0
H1229 H 0.04016 0.89296 0.87756 0.0
H1230 H 0.88835 0.86034 0.85745 0.0
H1231 H 0.93813 0.85968 0.86093 0.0
H1232 H 0.94728 0.80917 0.91442 0.0
C1233 C 0.06882 0.85516 0.91743 0.0
C1234 C 0.02 0.8745 0.88562 0.0
C1235 C 0.09937 0.8587 0.91859 0.0
C1236 C 0.89414 0.85427 0.87155 0.0
C1237 C 0.92282 0.8541 0.87362 0.0
C1238 C 0.96739 0.82785 0.90648 0.0
C1239 C 0.05538 0.85494 0.89915 0.0
C1240 C 0.0238 0.85307 0.89777 0.0
C1241 C 0.93164 0.84698 0.89177 0.0
C1242 C 0.96345 0.84914 0.89414 0.0
H1243 H 0.11563 0.86209 0.86982 0.0
H1244 H 0.06286 0.85704 0.86781 0.0
H1245 H 0.99951 0.81298 0.91775 0.0
H1246 H 0.86544 0.83266 0.91793 0.0
H1247 H 0.91612 0.83327 0.92183 0.0
C1248 C 0.7629 0.9042 0.62121 0.0
C1249 C 0.7482 0.88813 0.63865 0.0
C1250 C 0.78846 0.93578 0.62159 0.0
C1251 C 0.8275 0.00777 0.65389 0.0
H1252 H 0.89422 0.03787 0.61454 0.0
C1253 C 0.93778 0.13659 0.65447 0.0
C1254 C 0.94402 0.15303 0.63654 0.0
C1255 C 0.91598 0.10353 0.65547 0.0
C1256 C 0.87572 0.02982 0.62561 0.0
H1257 H 0.74945 0.89228 0.67025 0.0
H1258 H 0.79487 0.94669 0.67102 0.0
H1259 H 0.8525 0.98156 0.61501 0.0
H1260 H 0.93344 0.14757 0.60553 0.0
H1261 H 0.89584 0.08996 0.60721 0.0
H1262 H 0.85113 0.05615 0.66455 0.0
C1263 C 0.78612 0.93539 0.65695 0.0
C1264 C 0.85164 0.99754 0.62583 0.0
C1265 C 0.76032 0.90395 0.65653 0.0
C1266 C 0.92893 0.13557 0.61957 0.0
C1267 C 0.90756 0.10254 0.62051 0.0
C1268 C 0.85183 0.03998 0.6538 0.0
C1269 C 0.80033 0.95195 0.63946 0.0
C1270 C 0.82692 0.98608 0.63982 0.0
C1271 C 0.90044 0.08619 0.6385 0.0
C1272 C 0.87599 0.05146 0.63951 0.0
H1273 H 0.75422 0.89257 0.6072 0.0
H1274 H 0.79829 0.94773 0.60779 0.0
H1275 H 0.80867 1.00014 0.66469 0.0
H1276 H 0.94896 0.14947 0.66779 0.0
H1277 H 0.91115 0.09153 0.66952 0.0
C1278 C 0.14081 0.24099 0.91861 0.0
C1279 C 0.14373 0.25955 0.90206 0.0
C1280 C 0.14633 0.21515 0.91722 0.0
C1281 C 0.15325 0.16152 0.8804 0.0
H1282 H 0.18672 0.13721 0.92472 0.0
C1283 C 0.18821 0.06286 0.87599 0.0
C1284 C 0.17172 0.03787 0.88947 0.0
C1285 C 0.18813 0.09178 0.878 0.0
C1286 C 0.17741 0.14383 0.91224 0.0
H1287 H 0.15546 0.26639 0.87122 0.0
H1288 H 0.16639 0.22225 0.86885 0.0
H1289 H 0.18056 0.18454 0.92694 0.0
H1290 H 0.14321 0.02348 0.9159 0.0
H1291 H 0.14398 0.07462 0.91984 0.0
H1292 H 0.15105 0.12119 0.8656 0.0
C1293 C 0.15866 0.22662 0.8828 0.0
C1294 C 0.17358 0.17078 0.91353 0.0
C1295 C 0.15246 0.25201 0.88412 0.0
C1296 C 0.15622 0.0426 0.90542 0.0
C1297 C 0.15672 0.07176 0.90767 0.0
C1298 C 0.15774 0.13504 0.879 0.0
C1299 C 0.15546 0.20762 0.89929 0.0
C1300 C 0.16103 0.17979 0.8977 0.0
C1301 C 0.17209 0.09634 0.89374 0.0
C1302 C 0.16951 0.12574 0.89496 0.0
H1303 H 0.13408 0.2464 0.93261 0.0
H1304 H 0.14304 0.20089 0.9302 0.0
H1305 H 0.14291 0.1671 0.86802 0.0
H1306 H 0.20007 0.05951 0.8635 0.0
H1307 H 0.20019 0.11043 0.8671 0.0
C1308 C 0.09665 0.86377 0.61961 0.0
C1309 C 0.11175 0.86172 0.63664 0.0
C1310 C 0.06539 0.85849 0.62039 0.0
C1311 C 0.99351 0.82355 0.65298 0.0
H1312 H 0.96842 0.87383 0.6209 0.0
C1313 C 0.88682 0.84145 0.67076 0.0
C1314 C 0.86599 0.838 0.65543 0.0
C1315 C 0.91485 0.84067 0.66703 0.0
C1316 C 0.975 0.85934 0.62977 0.0
H1317 H 0.1065 0.85389 0.668 0.0
H1318 H 0.05293 0.84608 0.66955 0.0
H1319 H 0.02174 0.88064 0.61712 0.0
H1320 H 0.85784 0.83071 0.62425 0.0
H1321 H 0.9076 0.83015 0.61759 0.0
H1322 H 0.9472 0.80346 0.66623 0.0
C1323 C 0.06448 0.8505 0.6554 0.0
C1324 C 0.00553 0.86314 0.62759 0.0
C1325 C 0.09549 0.85549 0.65457 0.0
C1326 C 0.87351 0.83332 0.6363 0.0
C1327 C 0.90195 0.83317 0.6325 0.0
C1328 C 0.96323 0.82015 0.65535 0.0
C1329 C 0.04877 0.85149 0.63831 0.0
C1330 C 0.01542 0.84571 0.63942 0.0
C1331 C 0.92294 0.83696 0.64784 0.0
C1332 C 0.95383 0.83833 0.64397 0.0
H1333 H 0.10878 0.86888 0.60562 0.0
H1334 H 0.05408 0.85924 0.60689 0.0
H1335 H 0.99982 0.80899 0.66196 0.0
H1336 H 0.88145 0.84494 0.68564 0.0
H1337 H 0.93069 0.84388 0.6791 0.0
C1338 C 0.93397 0.14144 0.88582 0.0
C1339 C 0.93683 0.16017 0.90227 0.0
C1340 C 0.91241 0.10835 0.88593 0.0
C1341 C 0.86863 0.03862 0.91787 0.0
H1342 H 0.80527 1.00454 0.87661 0.0
C1343 C 0.75801 0.91186 0.92316 0.0
C1344 C 0.74471 0.89452 0.90591 0.0
C1345 C 0.78278 0.94375 0.92238 0.0
C1346 C 0.8231 0.01336 0.88806 0.0
H1347 H 0.9205 0.15909 0.93192 0.0
H1348 H 0.88344 0.10108 0.93232 0.0
H1349 H 0.84725 0.0607 0.87568 0.0
H1350 H 0.74776 0.89651 0.87427 0.0
H1351 H 0.79223 0.95139 0.87284 0.0
H1352 H 0.84525 0.99138 0.9301 0.0
C1353 C 0.89757 0.112 0.91929 0.0
C1354 C 0.84708 0.04564 0.88754 0.0
C1355 C 0.91861 0.14513 0.91904 0.0
C1356 C 0.75748 0.90931 0.88784 0.0
C1357 C 0.78273 0.941 0.88704 0.0
C1358 C 0.84502 0.00619 0.91823 0.0
C1359 C 0.89388 0.09337 0.90264 0.0
C1360 C 0.86984 0.05866 0.90255 0.0
C1361 C 0.79551 0.95886 0.90429 0.0
C1362 C 0.82163 0.99314 0.90346 0.0
H1363 H 0.94767 0.15256 0.87269 0.0
H1364 H 0.9101 0.09447 0.87295 0.0
H1365 H 0.88608 0.04803 0.92955 0.0
H1366 H 0.74906 0.90087 0.93731 0.0
H1367 H 0.79148 0.95665 0.93601 0.0
C1368 C 0.33794 0.17703 0.34209 0.0
C1369 C 0.36196 0.17775 0.35393 0.0
C1370 C 0.34246 0.18182 0.32201 0.0
C1371 C 0.3993 0.2088 0.28095 0.0
H1372 H 0.32543 0.14241 0.25366 0.0
C1373 C 0.38894 0.1823 0.19623 0.0
C1374 C 0.35936 0.17501 0.18813 0.0
C1375 C 0.394 0.18733 0.21646 0.0
C1376 C 0.34617 0.16127 0.26103 0.0
H1377 H 0.41028 0.186 0.35446 0.0
H1378 H 0.41821 0.19408 0.31885 0.0
H1379 H 0.32604 0.14312 0.28914 0.0
H1380 H 0.31304 0.16991 0.19416 0.0
H1381 H 0.322 0.17926 0.22915 0.0
H1382 H 0.41925 0.2268 0.25243 0.0
C1383 C 0.396 0.1901 0.32524 0.0
C1384 C 0.34651 0.1617 0.28137 0.0
C1385 C 0.39155 0.18561 0.34556 0.0
C1386 C 0.33594 0.1752 0.20015 0.0
C1387 C 0.34101 0.18035 0.22017 0.0
C1388 C 0.39896 0.20835 0.26039 0.0
C1389 C 0.37094 0.18697 0.31323 0.0
C1390 C 0.37266 0.18589 0.29158 0.0
C1391 C 0.36955 0.1852 0.22866 0.0
C1392 C 0.37197 0.18499 0.25029 0.0
H1393 H 0.31504 0.1714 0.34828 0.0
H1394 H 0.32302 0.1801 0.31319 0.0
H1395 H 0.41984 0.22759 0.28848 0.0
H1396 H 0.40724 0.18204 0.18719 0.0
H1397 H 0.41622 0.19102 0.22265 0.0
C1398 C 0.83779 0.66887 0.34133 0.0
C1399 C 0.81675 0.64499 0.35431 0.0
C1400 C 0.83948 0.66157 0.32179 0.0
C1401 C 0.79099 0.61074 0.28272 0.0
H1402 H 0.87202 0.64398 0.25563 0.0
C1403 C 0.79835 0.613 0.19803 0.0
C1404 C 0.82151 0.64283 0.1905 0.0
C1405 C 0.79857 0.60594 0.21794 0.0
C1406 C 0.84916 0.63453 0.26294 0.0
H1407 H 0.78118 0.59473 0.35726 0.0
H1408 H 0.78344 0.582 0.32259 0.0
H1409 H 0.87093 0.64529 0.29129 0.0
H1410 H 0.864 0.68787 0.19732 0.0
H1411 H 0.86448 0.67585 0.23178 0.0
H1412 H 0.76935 0.60193 0.25438 0.0
C1413 C 0.79896 0.60624 0.32774 0.0
C1414 C 0.84857 0.63515 0.28336 0.0
C1415 C 0.79781 0.61343 0.34751 0.0
C1416 C 0.84586 0.66468 0.20282 0.0
C1417 C 0.84621 0.65764 0.22257 0.0
C1418 C 0.79159 0.61045 0.26223 0.0
C1419 C 0.81969 0.63036 0.31469 0.0
C1420 C 0.8196 0.62414 0.29343 0.0
C1421 C 0.8222 0.6285 0.23052 0.0
C1422 C 0.82082 0.62332 0.25209 0.0
H1423 H 0.85263 0.6934 0.34625 0.0
H1424 H 0.85541 0.68071 0.31203 0.0
H1425 H 0.76835 0.60234 0.29014 0.0
H1426 H 0.7792 0.59589 0.18879 0.0
H1427 H 0.77988 0.58318 0.22356 0.0
C1428 C 0.83674 0.16912 0.20324 0.0
C1429 C 0.83467 0.19101 0.1906 0.0
C1430 C 0.82865 0.16778 0.22295 0.0
C1431 C 0.82879 0.21739 0.26252 0.0
H1432 H 0.77815 0.1362 0.2894 0.0
C1433 C 0.821 0.21015 0.34706 0.0
C1434 C 0.82638 0.18626 0.35482 0.0
C1435 C 0.81438 0.21008 0.32707 0.0
C1436 C 0.79238 0.1591 0.28214 0.0
H1437 H 0.82222 0.22836 0.18836 0.0
H1438 H 0.80875 0.22659 0.22322 0.0
H1439 H 0.78148 0.13734 0.25377 0.0
H1440 H 0.8272 0.14259 0.34839 0.0
H1441 H 0.81592 0.14241 0.31381 0.0
H1442 H 0.84137 0.23897 0.29089 0.0
C1443 C 0.81629 0.21027 0.21775 0.0
C1444 C 0.79417 0.15972 0.26174 0.0
C1445 C 0.82378 0.21115 0.19787 0.0
C1446 C 0.82318 0.16132 0.34268 0.0
C1447 C 0.81648 0.16114 0.32287 0.0
C1448 C 0.82732 0.21675 0.28298 0.0
C1449 C 0.81883 0.18866 0.23048 0.0
C1450 C 0.81305 0.18874 0.25177 0.0
C1451 C 0.81272 0.18589 0.31467 0.0
C1452 C 0.80983 0.18744 0.29306 0.0
H1453 H 0.84503 0.15332 0.19792 0.0
H1454 H 0.83114 0.15112 0.23248 0.0
H1455 H 0.84372 0.24006 0.25516 0.0
H1456 H 0.82356 0.2297 0.35619 0.0
H1457 H 0.81133 0.22933 0.32124 0.0
C1458 C 0.18354 0.35515 0.70066 0.0
C1459 C 0.17462 0.3724 0.68811 0.0
C1460 C 0.18888 0.36281 0.72044 0.0
C1461 C 0.16418 0.39676 0.76002 0.0
H1462 H 0.22749 0.3861 0.78879 0.0
C1463 C 0.17246 0.39712 0.84552 0.0
C1464 C 0.17017 0.36852 0.85241 0.0
C1465 C 0.17768 0.40491 0.82556 0.0
C1466 C 0.20988 0.38944 0.78094 0.0
H1467 H 0.16446 0.41131 0.68613 0.0
H1468 H 0.17351 0.42476 0.72117 0.0
H1469 H 0.22936 0.38797 0.75313 0.0
H1470 H 0.17223 0.32609 0.84428 0.0
H1471 H 0.18253 0.34019 0.8097 0.0
H1472 H 0.14428 0.39731 0.78805 0.0
C1473 C 0.1767 0.40548 0.71558 0.0
C1474 C 0.21085 0.3904 0.76054 0.0
C1475 C 0.17184 0.39806 0.69557 0.0
C1476 C 0.17416 0.3484 0.83928 0.0
C1477 C 0.18009 0.35649 0.81954 0.0
C1478 C 0.16339 0.39608 0.78053 0.0
C1479 C 0.18496 0.38766 0.72827 0.0
C1480 C 0.18735 0.39289 0.7498 0.0
C1481 C 0.18151 0.38458 0.81241 0.0
C1482 C 0.18563 0.39134 0.79112 0.0
H1483 H 0.1852 0.33483 0.69529 0.0
H1484 H 0.19447 0.34808 0.7298 0.0
H1485 H 0.14555 0.39839 0.7522 0.0
H1486 H 0.16893 0.41268 0.85541 0.0
H1487 H 0.17858 0.42664 0.82037 0.0
C1488 C 0.16561 0.82992 0.83715 0.0
C1489 C 0.18867 0.83076 0.84995 0.0
C1490 C 0.16555 0.82207 0.8175 0.0
C1491 C 0.21838 0.8297 0.77836 0.0
H1492 H 0.14076 0.76936 0.75139 0.0
C1493 C 0.21307 0.82158 0.69387 0.0
C1494 C 0.18651 0.82207 0.68604 0.0
C1495 C 0.21398 0.81553 0.71388 0.0
C1496 C 0.16267 0.78632 0.75867 0.0
H1497 H 0.22951 0.82387 0.85262 0.0
H1498 H 0.22997 0.81092 0.81787 0.0
H1499 H 0.14089 0.7727 0.78701 0.0
H1500 H 0.13969 0.81544 0.69239 0.0
H1501 H 0.14094 0.80462 0.72693 0.0
H1502 H 0.23966 0.8449 0.75003 0.0
C1503 C 0.2117 0.81584 0.82316 0.0
C1504 C 0.16272 0.7881 0.77906 0.0
C1505 C 0.21129 0.82297 0.84297 0.0
C1506 C 0.16028 0.8148 0.69811 0.0
C1507 C 0.161 0.80846 0.71792 0.0
C1508 C 0.21824 0.82823 0.75791 0.0
C1509 C 0.18893 0.81554 0.81025 0.0
C1510 C 0.19033 0.81033 0.78904 0.0
C1511 C 0.18814 0.8095 0.72619 0.0
C1512 C 0.19008 0.80716 0.7478 0.0
H1513 H 0.14803 0.83596 0.84228 0.0
H1514 H 0.14794 0.8223 0.8078 0.0
H1515 H 0.2399 0.84725 0.78576 0.0
H1516 H 0.23367 0.82747 0.68478 0.0
H1517 H 0.23516 0.81631 0.71978 0.0
C1518 C 0.60946 0.78958 0.69762 0.0
C1519 C 0.63854 0.81374 0.68993 0.0
C1520 C 0.60269 0.78951 0.7176 0.0
C1521 C 0.62836 0.8413 0.76183 0.0
H1522 H 0.60527 0.76282 0.79028 0.0
C1523 C 0.66539 0.8396 0.84104 0.0
C1524 C 0.64336 0.81636 0.85392 0.0
C1525 C 0.6578 0.83923 0.82133 0.0
C1526 C 0.61108 0.78474 0.78252 0.0
H1527 H 0.68269 0.85737 0.69655 0.0
H1528 H 0.67089 0.85759 0.73106 0.0
H1529 H 0.60376 0.76216 0.75449 0.0
H1530 H 0.59601 0.77493 0.85667 0.0
H1531 H 0.58277 0.77387 0.82184 0.0
H1532 H 0.63734 0.86424 0.78978 0.0
C1533 C 0.65315 0.83874 0.72192 0.0
C1534 C 0.61015 0.78436 0.76204 0.0
C1535 C 0.66001 0.83855 0.70217 0.0
C1536 C 0.61323 0.79321 0.84694 0.0
C1537 C 0.6058 0.79247 0.82707 0.0
C1538 C 0.62946 0.84171 0.78223 0.0
C1539 C 0.62471 0.81394 0.72998 0.0
C1540 C 0.61978 0.81288 0.75148 0.0
C1541 C 0.62815 0.81537 0.81406 0.0
C1542 C 0.62177 0.81367 0.79276 0.0
H1543 H 0.59276 0.77004 0.68843 0.0
H1544 H 0.58057 0.77012 0.72342 0.0
H1545 H 0.6354 0.86355 0.7541 0.0
H1546 H 0.68877 0.85768 0.84615 0.0
H1547 H 0.67564 0.85694 0.81161 0.0
C1548 C 0.24958 0.90949 0.96871 0.0
C1549 C 0.23421 0.91738 0.95408 0.0
C1550 C 0.26468 0.93049 0.98441 0.0
C1551 C 0.2969 0.01566 0.99925 0.0
H1552 H 0.28202 0.98204 0.0521 0.0
C1553 C 0.34372 0.09744 0.06834 0.0
C1554 C 0.3212 0.08862 0.08353 0.0
C1555 C 0.33756 0.07703 0.05226 0.0
C1556 C 0.28646 0.99182 0.03741 0.0
H1557 H 0.22217 0.95332 0.94479 0.0
H1558 H 0.24794 0.98924 0.97192 0.0
H1559 H 0.26288 0.945 0.02453 0.0
H1560 H 0.27411 0.05177 0.09332 0.0
H1561 H 0.26354 0.01689 0.06554 0.0
H1562 H 0.31921 0.06247 1.01218 0.0
C1563 C 0.24905 0.96731 0.97116 0.0
C1564 C 0.27578 0.97057 0.02161 0.0
C1565 C 0.23397 0.94644 0.95564 0.0
C1566 C 0.29226 0.05935 0.08206 0.0
C1567 C 0.28622 0.03908 0.06616 0.0
C1568 C 0.30761 0.03693 1.01506 0.0
C1569 C 0.2648 0.9598 0.98568 0.0
C1570 C 0.28007 0.98222 1.00235 0.0
C1571 C 0.30887 0.04739 0.05116 0.0
C1572 C 0.30168 0.02522 0.03434 0.0
H1573 H 0.25033 0.88738 0.96791 0.0
H1574 H 0.27664 0.92402 0.99538 0.0
H1575 H 0.30108 0.02543 0.98456 0.0
H1576 H 0.3663 0.11972 0.06906 0.0
H1577 H 0.35548 0.08412 0.04089 0.0
C1578 C 0.75715 0.66868 0.46995 0.0
C1579 C 0.78419 0.69346 0.46069 0.0
C1580 C 0.74179 0.67572 0.4849 0.0
C1581 C 0.73234 0.74268 0.50359 0.0
H1582 H 0.70281 0.69187 0.55103 0.0
C1583 C 0.66911 0.77012 0.56769 0.0
C1584 C 0.68254 0.77081 0.58608 0.0
C1585 C 0.67724 0.75814 0.55123 0.0
C1586 C 0.71073 0.70617 0.53779 0.0
H1587 H 0.81781 0.74454 0.46055 0.0
H1588 H 0.79142 0.75685 0.48688 0.0
H1589 H 0.72705 0.67617 0.52517 0.0
H1590 H 0.71545 0.75956 0.60125 0.0
H1591 H 0.72897 0.73894 0.57306 0.0
H1592 H 0.71701 0.77334 0.5166 0.0
C1593 C 0.78147 0.73213 0.48227 0.0
C1594 C 0.72446 0.69707 0.52294 0.0
C1595 C 0.79679 0.72508 0.46739 0.0
C1596 C 0.70413 0.75923 0.58752 0.0
C1597 C 0.7119 0.74713 0.57129 0.0
C1598 C 0.71845 0.75172 0.51843 0.0
C1599 C 0.75334 0.70766 0.49086 0.0
C1600 C 0.73617 0.71568 0.50589 0.0
C1601 C 0.69856 0.74629 0.55297 0.0
C1602 C 0.7083 0.73403 0.53591 0.0
H1603 H 0.74689 0.64413 0.46492 0.0
H1604 H 0.72018 0.65635 0.49124 0.0
H1605 H 0.74058 0.75715 0.49042 0.0
H1606 H 0.65242 0.77879 0.56601 0.0
H1607 H 0.66666 0.75784 0.53721 0.0
C1608 C 0.09086 0.34395 0.96935 0.0
C1609 C 0.09645 0.32142 0.9598 0.0
C1610 C 0.06842 0.33421 0.98461 0.0
C1611 C 0.99774 0.25962 1.00339 0.0
H1612 H 1.00451 0.31227 0.04804 0.0
C1613 C 0.92311 0.2099 0.07362 0.0
C1614 C 0.90917 0.22679 0.08175 0.0
C1615 C 0.94374 0.22236 0.05762 0.0
C1616 C 1.00216 0.29751 0.03549 0.0
H1617 H 0.08467 0.27175 0.95909 0.0
H1618 H 0.04716 0.25504 0.98632 0.0
H1619 H 0.04728 0.33286 0.02356 0.0
H1620 H 0.90566 0.26984 0.0797 0.0
H1621 H 0.94257 0.2922 0.05171 0.0
H1622 H 0.95324 0.22387 1.01573 0.0
C1623 C 0.05888 0.27993 0.98175 0.0
C1624 C 0.02666 0.30927 0.02146 0.0
C1625 C 0.08077 0.28954 0.96636 0.0
C1626 C 0.91567 0.25613 0.07337 0.0
C1627 C 0.93702 0.26904 0.05759 0.0
C1628 C 0.97357 0.24778 1.0175 0.0
C1629 C 0.05144 0.30181 0.99063 0.0
C1630 C 0.02502 0.29025 1.00535 0.0
C1631 C 0.95149 0.25237 0.0497 0.0
C1632 C 0.97567 0.26641 0.03381 0.0
H1633 H 0.10225 0.36855 0.96421 0.0
H1634 H 0.06327 0.35175 0.99097 0.0
H1635 H 0.99496 0.24459 0.99092 0.0
H1636 H 0.91868 0.18739 0.08 0.0
H1637 H 0.95471 0.20911 0.05196 0.0
C1638 C 0.28676 0.07452 0.46467 0.0
C1639 C 0.31879 0.09363 0.45893 0.0
C1640 C 0.27853 0.053 0.48024 0.0
C1641 C 0.31104 0.03165 0.52324 0.0
H1642 H 0.23251 0.95008 0.51789 0.0
C1643 C 0.25036 0.94891 0.58904 0.0
C1644 C 0.23352 0.91531 0.58667 0.0
C1645 C 0.26328 0.96937 0.573 0.0
C1646 C 0.25475 0.97249 0.51955 0.0
H1647 H 0.36751 0.10613 0.46533 0.0
H1648 H 0.3532 0.06817 0.49257 0.0
H1649 H 0.25046 0.98873 0.49117 0.0
H1650 H 0.21776 0.8771 0.56528 0.0
H1651 H 0.24088 0.91305 0.53714 0.0
H1652 H 0.31567 0.01512 0.55146 0.0
C1653 C 0.33439 0.07002 0.48516 0.0
C1654 C 0.26482 0.99495 0.50432 0.0
C1655 C 0.34266 0.09187 0.46962 0.0
C1656 C 0.23051 0.90279 0.5677 0.0
C1657 C 0.24362 0.92343 0.55155 0.0
C1658 C 0.30108 0.00909 0.53842 0.0
C1659 C 0.30211 0.04979 0.49038 0.0
C1660 C 0.29273 0.02512 0.50612 0.0
C1661 C 0.26001 0.95704 0.55401 0.0
C1662 C 0.27244 0.97947 0.53696 0.0
H1663 H 0.2679 0.07561 0.45675 0.0
H1664 H 0.25355 0.03859 0.48417 0.0
H1665 H 0.33262 0.05457 0.5252 0.0
H1666 H 0.25316 0.95975 0.60331 0.0
H1667 H 0.27506 0.99501 0.57551 0.0
C1668 C 0.75773 0.67109 0.07426 0.0
C1669 C 0.77067 0.69109 0.09068 0.0
C1670 C 0.74487 0.68017 0.05872 0.0
C1671 C 0.75063 0.75294 0.03667 0.0
H1672 H 0.67244 0.69455 1.00946 0.0
C1673 C 0.71836 0.78641 0.96356 0.0
C1674 C 0.68683 0.77961 0.96034 0.0
C1675 C 0.7261 0.77452 0.97995 0.0
C1676 C 0.69412 0.71115 1.01709 0.0
H1677 H 0.77946 0.73605 0.10369 0.0
H1678 H 0.75708 0.75137 0.07704 0.0
H1679 H 0.69072 0.67486 0.03696 0.0
H1680 H 0.63861 0.7548 0.97192 0.0
H1681 H 0.65237 0.7339 1.00101 0.0
H1682 H 0.7542 0.78922 1.01707 0.0
C1683 C 0.75724 0.72897 0.07591 0.0
C1684 C 0.70479 0.69981 0.03263 0.0
C1685 C 0.77001 0.72001 0.0913 0.0
C1686 C 0.66315 0.76067 0.97409 0.0
C1687 C 0.67095 0.74847 0.99059 0.0
C1688 C 0.74009 0.76417 1.02121 0.0
C1689 C 0.74483 0.70944 0.05932 0.0
C1690 C 0.73322 0.72065 0.04258 0.0
C1691 C 0.70261 0.75542 0.99368 0.0
C1692 C 0.71189 0.74343 1.01111 0.0
H1693 H 0.75763 0.64855 0.07336 0.0
H1694 H 0.73562 0.66466 0.04607 0.0
H1695 H 0.7728 0.76959 0.04384 0.0
H1696 H 0.73731 0.80089 0.95333 0.0
H1697 H 0.75059 0.77996 0.98172 0.0
C1698 C 0.09934 0.33697 0.56893 0.0
C1699 C 0.0883 0.32033 0.58676 0.0
C1700 C 0.07907 0.32777 0.5525 0.0
C1701 C 0.00937 0.25704 0.5318 0.0
H1702 H 0.99468 0.31606 0.5008 0.0
C1703 C 0.94021 0.21951 0.45937 0.0
C1704 C 0.91634 0.22769 0.45625 0.0
C1705 C 0.96117 0.2321 0.47513 0.0
C1706 C 0.99846 0.29933 0.50942 0.0
H1707 H 0.04755 0.28045 0.60097 0.0
H1708 H 0.01288 0.26478 0.57278 0.0
H1709 H 0.03306 0.33653 0.52804 0.0
H1710 H 0.89603 0.25582 0.46729 0.0
H1711 H 0.9332 0.27824 0.49509 0.0
H1712 H 0.97506 0.21988 0.51339 0.0
C1713 C 0.03691 0.285 0.57139 0.0
C1714 C 0.02067 0.31108 0.52482 0.0
C1715 C 0.05682 0.29429 0.58768 0.0
C1716 C 0.91396 0.24885 0.46941 0.0
C1717 C 0.93541 0.2619 0.48517 0.0
C1718 C 0.9876 0.24542 0.51635 0.0
C1719 C 0.04771 0.30143 0.55358 0.0
C1720 C 0.02613 0.28996 0.53628 0.0
C1721 C 0.95919 0.25353 0.4882 0.0
C1722 C 0.98175 0.26634 0.505 0.0
H1723 H 0.12345 0.35707 0.5677 0.0
H1724 H 0.08807 0.34077 0.53888 0.0
H1725 H 0.01315 0.24017 0.54029 0.0
H1726 H 0.94282 0.20327 0.44958 0.0
H1727 H 0.97933 0.22535 0.47694 0.0
C1728 C 0.65848 0.16975 0.11134 0.0
C1729 C 0.68089 0.1991 0.11986 0.0
C1730 C 0.62566 0.15712 0.11438 0.0
C1731 C 0.56645 0.16614 0.14529 0.0
H1732 H 0.51142 0.12776 0.10041 0.0
C1733 C 0.43149 0.12538 0.14839 0.0
C1734 C 0.41942 0.13333 0.13192 0.0
C1735 C 0.46173 0.12798 0.14776 0.0
C1736 C 0.52642 0.13854 0.11309 0.0
H1737 H 0.68604 0.23729 0.13908 0.0
H1738 H 0.62916 0.21615 0.14365 0.0
H1739 H 0.56755 0.14362 0.09815 0.0
H1740 H 0.42895 0.14861 0.10158 0.0
H1741 H 0.48158 0.15416 0.10067 0.0
H1742 H 0.52563 0.16279 0.15982 0.0
C1743 C 0.6368 0.2025 0.13484 0.0
C1744 C 0.55866 0.14724 0.11189 0.0
C1745 C 0.66957 0.21497 0.13194 0.0
C1746 C 0.43761 0.14258 0.11462 0.0
C1747 C 0.46779 0.14544 0.11403 0.0
C1748 C 0.53424 0.15771 0.14643 0.0
C1749 C 0.61431 0.17358 0.12592 0.0
C1750 C 0.57931 0.16167 0.12786 0.0
C1751 C 0.48054 0.13863 0.13065 0.0
C1752 C 0.5139 0.14435 0.13021 0.0
H1753 H 0.66618 0.15689 0.10184 0.0
H1754 H 0.60918 0.13453 0.10751 0.0
H1755 H 0.58138 0.17661 0.15803 0.0
H1756 H 0.41807 0.11812 0.16194 0.0
H1757 H 0.47051 0.12203 0.16075 0.0
C1758 C 0.7047 0.57632 0.39755 0.0
C1759 C 0.725 0.59072 0.41365 0.0
C1760 C 0.67819 0.5452 0.39908 0.0
C1761 C 0.65092 0.47119 0.42799 0.0
H1762 H 0.56641 0.44503 0.40786 0.0
C1763 C 0.54442 0.34914 0.44893 0.0
C1764 C 0.52195 0.33101 0.43447 0.0
C1765 C 0.56747 0.38116 0.44555 0.0
C1766 C 0.58997 0.45185 0.41337 0.0
H1767 H 0.73242 0.58413 0.44424 0.0
H1768 H 0.68672 0.53039 0.44684 0.0
H1769 H 0.60979 0.50046 0.40314 0.0
H1770 H 0.50552 0.33276 0.40525 0.0
H1771 H 0.54622 0.38885 0.39918 0.0
H1772 H 0.63166 0.42297 0.43808 0.0
C1773 C 0.69141 0.54277 0.43292 0.0
C1774 C 0.6148 0.48362 0.41067 0.0
C1775 C 0.71763 0.57372 0.43143 0.0
C1776 C 0.52246 0.34611 0.41671 0.0
C1777 C 0.54576 0.37826 0.41325 0.0
C1778 C 0.6263 0.43959 0.4306 0.0
C1779 C 0.67169 0.52782 0.4167 0.0
C1780 C 0.64545 0.49377 0.41827 0.0
C1781 C 0.56896 0.39604 0.42752 0.0
C1782 C 0.59532 0.42954 0.42365 0.0
H1783 H 0.70991 0.58858 0.38361 0.0
H1784 H 0.66352 0.53431 0.38628 0.0
H1785 H 0.67442 0.47795 0.43361 0.0
H1786 H 0.54424 0.33849 0.46294 0.0
H1787 H 0.58428 0.39426 0.45711 0.0
C1788 C 0.89645 0.31349 0.12577 0.0
C1789 C 0.87035 0.28608 0.1339 0.0
C1790 C 0.89583 0.34216 0.12384 0.0
C1791 C 0.84127 0.37338 0.11791 0.0
H1792 H 0.91197 0.45398 0.13603 0.0
C1793 C 0.83746 0.49154 0.11202 0.0
C1794 C 0.86612 0.5197 0.10728 0.0
C1795 C 0.83749 0.46324 0.11696 0.0
C1796 C 0.89218 0.43183 0.13059 0.0
H1797 H 0.8228 0.26731 0.14618 0.0
H1798 H 0.82137 0.317 0.14218 0.0
H1799 H 0.91346 0.40444 0.14056 0.0
H1800 H 0.91752 0.5402 0.10504 0.0
H1801 H 0.91738 0.49092 0.11249 0.0
H1802 H 0.82043 0.40054 0.1072 0.0
C1803 C 0.84251 0.31638 0.13756 0.0
C1804 C 0.89303 0.40341 0.1333 0.0
C1805 C 0.84341 0.28793 0.13986 0.0
C1806 C 0.89484 0.51892 0.10815 0.0
C1807 C 0.89482 0.4906 0.1128 0.0
C1808 C 0.84063 0.40185 0.11488 0.0
C1809 C 0.86874 0.34381 0.12957 0.0
C1810 C 0.86763 0.37391 0.12695 0.0
C1811 C 0.86613 0.4622 0.11711 0.0
C1812 C 0.86614 0.43158 0.12111 0.0
H1813 H 0.91713 0.31269 0.12054 0.0
H1814 H 0.91624 0.36284 0.1174 0.0
H1815 H 0.82147 0.35098 0.1127 0.0
H1816 H 0.81481 0.49101 0.11142 0.0
H1817 H 0.81494 0.44214 0.12055 0.0
C1818 C 0.4275 0.11686 0.4021 0.0
C1819 C 0.42252 0.1426 0.40636 0.0
C1820 C 0.45813 0.12051 0.40358 0.0
C1821 C 0.53404 0.17029 0.42956 0.0
H1822 H 0.5694 0.13349 0.39383 0.0
C1823 C 0.66199 0.19584 0.44029 0.0
C1824 C 0.66769 0.1701 0.43821 0.0
C1825 C 0.63355 0.19339 0.43358 0.0
C1826 C 0.55977 0.14369 0.40404 0.0
H1827 H 0.44601 0.19297 0.41372 0.0
H1828 H 0.49922 0.19944 0.41664 0.0
H1829 H 0.51656 0.12697 0.38744 0.0
H1830 H 0.64886 0.12211 0.42674 0.0
H1831 H 0.59852 0.11734 0.41531 0.0
H1832 H 0.57642 0.18635 0.44645 0.0
C1833 C 0.47948 0.17613 0.41266 0.0
C1834 C 0.52949 0.13997 0.40036 0.0
C1835 C 0.44899 0.17244 0.41111 0.0
C1836 C 0.64506 0.14237 0.42838 0.0
C1837 C 0.61626 0.13971 0.42185 0.0
C1838 C 0.56405 0.17383 0.43329 0.0
C1839 C 0.48437 0.15003 0.40937 0.0
C1840 C 0.51638 0.15345 0.41303 0.0
C1841 C 0.60971 0.16486 0.42493 0.0
C1842 C 0.57756 0.16085 0.42054 0.0
H1843 H 0.40768 0.0936 0.39849 0.0
H1844 H 0.461 0.09987 0.401 0.0
H1845 H 0.5244 0.18033 0.43989 0.0
H1846 H 0.6792 0.21756 0.44771 0.0
H1847 H 0.6299 0.21365 0.43569 0.0
C1848 C 0.53838 0.34151 0.14491 0.0
C1849 C 0.51981 0.32908 0.12794 0.0
C1850 C 0.55943 0.37449 0.14677 0.0
C1851 C 0.60925 0.44444 0.11742 0.0
H1852 H 0.61448 0.49417 0.16332 0.0
C1853 C 0.70288 0.57779 0.12056 0.0
C1854 C 0.71838 0.59014 0.13844 0.0
C1855 C 0.67525 0.54778 0.11975 0.0
C1856 C 0.61365 0.4806 0.15049 0.0
H1857 H 0.50826 0.34126 0.09976 0.0
H1858 H 0.54579 0.399 0.10278 0.0
H1859 H 0.57278 0.43774 0.16124 0.0
H1860 H 0.71651 0.58184 0.16965 0.0
H1861 H 0.66902 0.5285 0.16824 0.0
H1862 H 0.65082 0.48612 0.10698 0.0
C1863 C 0.54376 0.3832 0.1147 0.0
C1864 C 0.58962 0.44834 0.14928 0.0
C1865 C 0.52227 0.35028 0.11299 0.0
C1866 C 0.70492 0.5727 0.15568 0.0
C1867 C 0.67761 0.54219 0.15483 0.0
C1868 C 0.63356 0.4764 0.11876 0.0
C1869 C 0.5627 0.39556 0.13154 0.0
C1870 C 0.58722 0.43002 0.13271 0.0
C1871 C 0.66288 0.52894 0.13674 0.0
C1872 C 0.63614 0.49505 0.13529 0.0
H1873 H 0.5367 0.32566 0.15671 0.0
H1874 H 0.57391 0.38341 0.15983 0.0
H1875 H 0.60826 0.43068 0.10463 0.0
H1876 H 0.71249 0.59114 0.1071 0.0
H1877 H 0.66403 0.53911 0.10566 0.0
C1878 C 0.89113 0.51665 0.40317 0.0
C1879 C 0.8724 0.52116 0.41716 0.0
C1880 C 0.88859 0.4866 0.40083 0.0
C1881 C 0.8692 0.41493 0.42909 0.0
H1882 H 0.86828 0.37688 0.37895 0.0
C1883 C 0.85438 0.28882 0.42319 0.0
C1884 C 0.87126 0.28306 0.4085 0.0
C1885 C 0.85439 0.31782 0.42385 0.0
C1886 C 0.86902 0.38741 0.39306 0.0
H1887 H 0.83553 0.49764 0.43915 0.0
H1888 H 0.83119 0.44499 0.43514 0.0
H1889 H 0.86645 0.42673 0.38012 0.0
H1890 H 0.90077 0.30302 0.38274 0.0
H1891 H 0.90208 0.35437 0.38431 0.0
H1892 H 0.87261 0.37633 0.44211 0.0
C1893 C 0.84786 0.46476 0.42603 0.0
C1894 C 0.86775 0.41584 0.39372 0.0
C1895 C 0.85012 0.49475 0.4282 0.0
C1896 C 0.88836 0.30709 0.39454 0.0
C1897 C 0.88853 0.33628 0.39524 0.0
C1898 C 0.87079 0.38673 0.42845 0.0
C1899 C 0.86755 0.46056 0.41259 0.0
C1900 C 0.86771 0.42981 0.41175 0.0
C1901 C 0.87137 0.34193 0.40986 0.0
C1902 C 0.8706 0.37251 0.41044 0.0
H1903 H 0.90838 0.53663 0.39441 0.0
H1904 H 0.90414 0.48411 0.39042 0.0
H1905 H 0.86986 0.42551 0.44319 0.0
H1906 H 0.84092 0.27077 0.43418 0.0
H1907 H 0.84048 0.32103 0.43513 0.0
C1908 C 0.13443 0.64435 0.60998 0.0
C1909 C 0.15611 0.66146 0.59483 0.0
C1910 C 0.12993 0.61444 0.61618 0.0
C1911 C 0.13785 0.54729 0.5968 0.0
H1912 H 0.1328 0.51955 0.65061 0.0
C1913 C 0.15167 0.43921 0.61605 0.0
C1914 C 0.1328 0.41782 0.6309 0.0
C1915 C 0.15146 0.46773 0.61275 0.0
C1916 C 0.13365 0.52674 0.6355 0.0
H1917 H 0.1919 0.66178 0.57551 0.0
H1918 H 0.18405 0.61008 0.58619 0.0
H1919 H 0.13908 0.57249 0.6435 0.0
H1920 H 0.09946 0.41029 0.65426 0.0
H1921 H 0.09849 0.46018 0.6482 0.0
H1922 H 0.1325 0.50201 0.58864 0.0
C1923 C 0.16988 0.61919 0.59296 0.0
C1924 C 0.13733 0.5571 0.63145 0.0
C1925 C 0.17441 0.64889 0.58685 0.0
C1926 C 0.11369 0.42585 0.64244 0.0
C1927 C 0.11351 0.45466 0.63914 0.0
C1928 C 0.13402 0.51709 0.60081 0.0
C1929 C 0.14698 0.60113 0.6073 0.0
C1930 C 0.14028 0.56801 0.61203 0.0
C1931 C 0.13234 0.4759 0.62415 0.0
C1932 C 0.13268 0.50666 0.6202 0.0
H1933 H 0.11996 0.65336 0.61642 0.0
H1934 H 0.11217 0.60115 0.62731 0.0
H1935 H 0.13917 0.55457 0.58166 0.0
H1936 H 0.16674 0.43393 0.60685 0.0
H1937 H 0.16678 0.48368 0.60136 0.0
C1938 C 0.3111 0.8906 0.91356 0.0
C1939 C 0.28395 0.86719 0.90363 0.0
C1940 C 0.33833 0.88742 0.91545 0.0
C1941 C 0.37759 0.8445 0.89437 0.0
H1942 H 0.41808 0.8582 0.94513 0.0
C1943 C 0.45684 0.79069 0.91433 0.0
C1944 C 0.48352 0.80786 0.92653 0.0
C1945 C 0.43573 0.80198 0.91056 0.0
C1946 C 0.40745 0.85477 0.93076 0.0
H1947 H 0.26434 0.82235 0.88766 0.0
H1948 H 0.31139 0.81675 0.89102 0.0
H1949 H 0.37543 0.87084 0.94029 0.0
H1950 H 0.50919 0.85098 0.94397 0.0
H1951 H 0.47248 0.87103 0.93714 0.0
H1952 H 0.40914 0.82804 0.88486 0.0
C1953 C 0.31198 0.83779 0.89717 0.0
C1954 C 0.38294 0.86201 0.92799 0.0
C1955 C 0.28485 0.8409 0.89537 0.0
C1956 C 0.48898 0.83719 0.93444 0.0
C1957 C 0.46773 0.84851 0.93069 0.0
C1958 C 0.40206 0.83735 0.89712 0.0
C1959 C 0.33903 0.86085 0.90735 0.0
C1960 C 0.36725 0.85634 0.90986 0.0
C1961 C 0.44065 0.83089 0.91882 0.0
C1962 C 0.41689 0.84172 0.91545 0.0
H1963 H 0.311 0.91089 0.9203 0.0
H1964 H 0.3588 0.90572 0.92329 0.0
H1965 H 0.36651 0.84045 0.8801 0.0
H1966 H 0.45208 0.76824 0.90775 0.0
H1967 H 0.41501 0.7875 0.90154 0.0
C1968 C 0.56808 0.71096 0.61401 0.0
C1969 C 0.58535 0.7176 0.63157 0.0
C1970 C 0.53811 0.68349 0.61214 0.0
C1971 C 0.48516 0.60202 0.62884 0.0
H1972 H 0.41806 0.6183 0.61164 0.0
C1973 C 0.35502 0.49805 0.61441 0.0
C1974 C 0.34002 0.50169 0.59773 0.0
C1975 C 0.38385 0.52384 0.62135 0.0
C1976 C 0.43647 0.61313 0.61624 0.0
H1977 H 0.58562 0.69912 0.66048 0.0
H1978 H 0.53338 0.65007 0.65688 0.0
H1979 H 0.47144 0.66314 0.61763 0.0
H1980 H 0.34291 0.53596 0.57599 0.0
H1981 H 0.39301 0.57995 0.58745 0.0
H1982 H 0.4506 0.55191 0.62654 0.0
C1983 C 0.54295 0.66681 0.64476 0.0
C1984 C 0.46706 0.63894 0.61979 0.0
C1985 C 0.57287 0.6948 0.64678 0.0
C1986 C 0.35398 0.53199 0.58866 0.0
C1987 C 0.38266 0.55753 0.59547 0.0
C1988 C 0.45454 0.57603 0.62498 0.0
C1989 C 0.52491 0.66142 0.6276 0.0
C1990 C 0.4919 0.6337 0.62576 0.0
C1991 C 0.39828 0.55389 0.61181 0.0
C1992 C 0.42991 0.58123 0.61818 0.0
H1993 H 0.57758 0.72725 0.60169 0.0
H1994 H 0.52508 0.67959 0.59858 0.0
H1995 H 0.50391 0.59733 0.63342 0.0
H1996 H 0.34502 0.47505 0.62175 0.0
H1997 H 0.39488 0.52014 0.63412 0.0
C1998 C 0.17915 0.6665 0.91493 0.0
C1999 C 0.20314 0.68474 0.92862 0.0
C2000 C 0.16842 0.63369 0.91253 0.0
C2001 C 0.19486 0.57448 0.92216 0.0
H2002 H 0.10671 0.51063 0.91143 0.0
C2003 C 0.15205 0.44124 0.92938 0.0
C2004 C 0.13624 0.42165 0.9132 0.0
C2005 C 0.15676 0.47221 0.93069 0.0
C2006 C 0.13143 0.52832 0.91425 0.0
H2007 H 0.23326 0.68261 0.95133 0.0
H2008 H 0.21411 0.62556 0.9476 0.0
H2009 H 0.12163 0.5672 0.91517 0.0
H2010 H 0.11142 0.41888 0.8862 0.0
H2011 H 0.11927 0.47331 0.88874 0.0
H2012 H 0.20459 0.53572 0.9217 0.0
C2013 C 0.2043 0.63659 0.93816 0.0
C2014 C 0.14003 0.5607 0.91637 0.0
C2015 C 0.21521 0.6693 0.94039 0.0
C2016 C 0.12358 0.43325 0.89889 0.0
C2017 C 0.12813 0.46441 0.9003 0.0
C2018 C 0.18624 0.54229 0.92025 0.0
C2019 C 0.18129 0.61844 0.9239 0.0
C2020 C 0.17182 0.58412 0.92067 0.0
C2021 C 0.14564 0.48447 0.91595 0.0
C2022 C 0.1544 0.51878 0.91658 0.0
H2023 H 0.1695 0.67784 0.90561 0.0
H2024 H 0.15081 0.62057 0.90135 0.0
H2025 H 0.21972 0.59185 0.92484 0.0
H2026 H 0.16168 0.43303 0.94088 0.0
H2027 H 0.16979 0.48691 0.94311 0.0
C2028 C 0.28134 0.84566 0.61729 0.0
C2029 C 0.27822 0.8637 0.63242 0.0
C2030 C 0.30845 0.84255 0.61587 0.0
C2031 C 0.39246 0.87621 0.63099 0.0
H2032 H 0.37496 0.79009 0.61902 0.0
C2033 C 0.48949 0.83677 0.62892 0.0
C2034 C 0.48601 0.81514 0.61398 0.0
C2035 C 0.46607 0.84555 0.63182 0.0
C2036 C 0.38037 0.81437 0.62217 0.0
H2037 H 0.30182 0.8934 0.65764 0.0
H2038 H 0.34963 0.88803 0.65511 0.0
H2039 H 0.33088 0.80026 0.62318 0.0
H2040 H 0.45645 0.78763 0.58956 0.0
H2041 H 0.41602 0.80299 0.59449 0.0
H2042 H 0.44221 0.89014 0.62986 0.0
C2043 C 0.33092 0.87643 0.6443 0.0
C2044 C 0.35505 0.8202 0.62458 0.0
C2045 C 0.30357 0.87957 0.64573 0.0
C2046 C 0.45948 0.80375 0.60148 0.0
C2047 C 0.43626 0.81251 0.60434 0.0
C2048 C 0.41798 0.87033 0.62856 0.0
C2049 C 0.33329 0.85727 0.62957 0.0
C2050 C 0.36071 0.85128 0.62862 0.0
C2051 C 0.43878 0.83287 0.61983 0.0
C2052 C 0.41218 0.83941 0.62372 0.0
H2053 H 0.26259 0.83354 0.60655 0.0
H2054 H 0.30981 0.82829 0.60405 0.0
H2055 H 0.39761 0.90041 0.63408 0.0
H2056 H 0.50962 0.84588 0.63883 0.0
H2057 H 0.46873 0.86125 0.6439 0.0
C2058 C 0.55947 0.72095 0.90798 0.0
C2059 C 0.58902 0.72195 0.90971 0.0
C2060 C 0.53069 0.692 0.91003 0.0
C2061 C 0.49455 0.60561 0.90423 0.0
H2062 H 0.43071 0.59903 0.94126 0.0
C2063 C 0.38494 0.48327 0.92393 0.0
C2064 C 0.35613 0.48167 0.92952 0.0
C2065 C 0.41253 0.51279 0.92056 0.0
C2066 C 0.44788 0.60046 0.93054 0.0
H2067 H 0.611 0.69302 0.9152 0.0
H2068 H 0.56082 0.64219 0.9177 0.0
H2069 H 0.48024 0.64999 0.93721 0.0
H2070 H 0.33388 0.51045 0.93527 0.0
H2071 H 0.38142 0.56175 0.92837 0.0
H2072 H 0.46215 0.55666 0.89696 0.0
C2073 C 0.56012 0.66402 0.91491 0.0
C2074 C 0.47641 0.62969 0.92836 0.0
C2075 C 0.58892 0.69314 0.91336 0.0
C2076 C 0.35547 0.51055 0.93089 0.0
C2077 C 0.38302 0.54014 0.92724 0.0
C2078 C 0.4658 0.57656 0.90611 0.0
C2079 C 0.53072 0.66321 0.91338 0.0
C2080 C 0.50015 0.63244 0.91534 0.0
C2081 C 0.41213 0.54176 0.9223 0.0
C2082 C 0.44213 0.57337 0.91948 0.0
H2083 H 0.55845 0.74258 0.90512 0.0
H2084 H 0.50836 0.69205 0.9087 0.0
H2085 H 0.5123 0.60723 0.89388 0.0
H2086 H 0.38637 0.46163 0.92228 0.0
H2087 H 0.43437 0.51277 0.91704 0.0
loop_
_geom_bond_atom_site_label_1
_geom_bond_atom_site_label_2
_geom_bond_distance
_geom_bond_site_symmetry_2
_ccdc_geom_bond_type
Eu0 N29 2.600 . S
Eu0 N35 2.562 . S
Eu0 O44 2.462 . S
Eu0 O45 2.373 . S
Eu0 O47 2.432 . S
Eu0 O48 2.291 . S
Eu0 O52 2.335 . S
Eu0 O55 2.372 . S
Eu0 C64 2.787 . S
C1 N2 1.365 . S
C1 C4 1.405 . S
C1 C8 1.448 . S
N2 C1 1.365 . S
N2 C5 1.319 . S
N2 Eu11 2.600 . S
C3 C5 1.397 . S
C3 C6 1.367 . S
C3 H23 0.931 . S
C4 C1 1.405 . S
C4 C6 1.403 . S
C4 C10 1.439 . S
C5 N2 1.319 . S
C5 C3 1.397 . S
C5 H16 0.930 . S
C6 C3 1.367 . S
C6 C4 1.403 . S
C6 H27 0.929 . S
C7 C8 1.430 . S
C7 C9 1.387 . S
C7 C13 1.404 . S
C8 C1 1.448 . S
C8 C7 1.430 . S
C8 N12 1.351 . S
C9 C7 1.387 . S
C9 C10 1.374 . S
C9 H24 0.931 . S
C10 C4 1.439 . S
C10 C9 1.374 . S
C10 H25 0.931 . S
Eu11 N2 2.600 . S
Eu11 N12 2.562 . S
Eu11 O46 2.335 . S
Eu11 O49 2.372 . S
Eu11 O50 2.462 . S
Eu11 O51 2.373 . S
Eu11 O53 2.432 . S
Eu11 O54 2.291 . S
Eu11 C75 2.787 . S
N12 C8 1.351 . S
N12 Eu11 2.562 . S
N12 C14 1.325 . S
C13 C7 1.404 . S
C13 C15 1.366 . S
C13 H21 0.930 . S
C14 N12 1.325 . S
C14 C15 1.416 . S
C14 H20 0.929 . S
C15 C13 1.366 . S
C15 C14 1.416 . S
C15 H17 0.930 . S
H16 C5 0.930 . S
H17 C15 0.930 . S
H18 C33 0.930 . S
H19 C40 0.930 . S
H20 C14 0.929 . S
H21 C13 0.930 . S
H22 C36 0.929 . S
H23 C3 0.931 . S
H24 C9 0.931 . S
H25 C10 0.931 . S
H26 C31 0.931 . S
H27 C6 0.929 . S
H28 C39 0.930 . S
N29 Eu0 2.600 . S
N29 C30 1.365 . S
N29 C33 1.319 . S
C30 N29 1.365 . S
C30 C32 1.405 . S
C30 C38 1.448 . S
C31 H26 0.931 . S
C31 C33 1.397 . S
C31 C34 1.367 . S
C32 C30 1.405 . S
C32 C34 1.403 . S
C32 C65 1.439 . S
C33 H18 0.930 . S
C33 N29 1.319 . S
C33 C31 1.397 . S
C34 C31 1.367 . S
C34 C32 1.403 . S
C34 H41 0.929 . S
N35 Eu0 2.562 . S
N35 C36 1.325 . S
N35 C38 1.351 . S
C36 H22 0.929 . S
C36 N35 1.325 . S
C36 C40 1.416 . S
C37 C38 1.430 . S
C37 C39 1.404 . S
C37 C66 1.387 . S
C38 C30 1.448 . S
C38 N35 1.351 . S
C38 C37 1.430 . S
C39 H28 0.930 . S
C39 C37 1.404 . S
C39 C40 1.366 . S
C40 H19 0.930 . S
C40 C36 1.416 . S
C40 C39 1.366 . S
H41 C34 0.929 . S
H42 C65 0.931 . S
H43 C66 0.931 . S
O44 Eu0 2.462 . S
O44 C64 1.252 . S
O45 Eu0 2.373 . S
O45 C56 1.249 . S
O46 Eu11 2.335 . S
O46 C56 1.264 . S
O47 Eu0 2.432 . S
O47 C64 1.268 . S
O48 Eu0 2.291 . S
O48 C63 1.255 . S
O49 Eu11 2.372 . S
O49 C63 1.257 . S
O50 Eu11 2.462 . S
O50 C75 1.252 . S
O51 Eu11 2.373 . S
O51 C67 1.249 . S
O52 Eu0 2.335 . S
O52 C67 1.264 . S
O53 Eu11 2.432 . S
O53 C75 1.268 . S
O54 Eu11 2.291 . S
O54 C74 1.255 . S
O55 Eu0 2.372 . S
O55 C74 1.257 . S
C56 O45 1.249 . S
C56 O46 1.264 . S
C57 C60 1.382 . S
C57 C62 1.390 . S
C57 C64 1.506 . S
C58 C59 1.398 . S
C58 C62 1.392 1_565 S
C59 C58 1.398 . S
C59 C61 1.372 . S
C59 H76 0.931 . S
C60 C57 1.382 . S
C60 C61 1.390 1_545 S
C60 H77 0.931 . S
C61 C59 1.372 . S
C61 C60 1.390 1_565 S
C61 H78 0.929 . S
C62 C57 1.390 . S
C62 C58 1.392 1_545 S
C62 H79 0.930 . S
C63 O48 1.255 . S
C63 O49 1.257 . S
C64 Eu0 2.787 . S
C64 O44 1.252 . S
C64 O47 1.268 . S
C64 C57 1.506 . S
C65 C32 1.439 . S
C65 H42 0.931 . S
C65 C66 1.374 . S
C66 C37 1.387 . S
C66 H43 0.931 . S
C66 C65 1.374 . S
C67 O51 1.249 . S
C67 O52 1.264 . S
C68 C71 1.382 . S
C68 C72 1.390 . S
C68 C75 1.506 . S
C69 C70 1.398 . S
C69 C72 1.392 . S
C70 C69 1.398 . S
C70 C73 1.372 . S
C70 H80 0.931 . S
C71 C68 1.382 . S
C71 C73 1.390 . S
C71 H81 0.931 . S
C72 C68 1.390 . S
C72 C69 1.392 . S
C72 H82 0.930 . S
C73 C70 1.372 . S
C73 C71 1.390 . S
C73 H83 0.929 . S
C74 O54 1.255 . S
C74 O55 1.257 . S
C75 Eu11 2.787 . S
C75 O50 1.252 . S
C75 O53 1.268 . S
C75 C68 1.506 . S
H76 C59 0.931 . S
H77 C60 0.931 . S
H78 C61 0.929 . S
H79 C62 0.930 . S
H80 C70 0.931 . S
H81 C71 0.931 . S
H82 C72 0.930 . S
H83 C73 0.929 . S
Eu84 N113 2.600 . S
Eu84 N119 2.562 . S
Eu84 O128 2.462 . S
Eu84 O129 2.373 . S
Eu84 O131 2.432 . S
Eu84 O132 2.291 . S
Eu84 O136 2.335 . S
Eu84 O139 2.372 . S
Eu84 C148 2.787 . S
C85 N86 1.365 . S
C85 C88 1.405 . S
C85 C92 1.448 . S
N86 C85 1.365 . S
N86 C89 1.319 . S
N86 Eu95 2.600 . S
C87 C89 1.397 . S
C87 C90 1.367 . S
C87 H107 0.931 . S
C88 C85 1.405 . S
C88 C90 1.403 . S
C88 C94 1.439 . S
C89 N86 1.319 . S
C89 C87 1.397 . S
C89 H100 0.930 . S
C90 C87 1.367 . S
C90 C88 1.403 . S
C90 H111 0.929 . S
C91 C92 1.430 . S
C91 C93 1.387 . S
C91 C97 1.404 . S
C92 C85 1.448 . S
C92 C91 1.430 . S
C92 N96 1.351 . S
C93 C91 1.387 . S
C93 C94 1.374 . S
C93 H108 0.931 . S
C94 C88 1.439 . S
C94 C93 1.374 . S
C94 H109 0.931 . S
Eu95 N86 2.600 . S
Eu95 N96 2.562 . S
Eu95 O130 2.335 . S
Eu95 O133 2.372 . S
Eu95 O134 2.462 . S
Eu95 O135 2.373 . S
Eu95 O137 2.432 . S
Eu95 O138 2.291 . S
Eu95 C159 2.787 . S
N96 C92 1.351 . S
N96 Eu95 2.562 . S
N96 C98 1.325 . S
C97 C91 1.404 . S
C97 C99 1.366 . S
C97 H105 0.930 . S
C98 N96 1.325 . S
C98 C99 1.416 . S
C98 H104 0.929 . S
C99 C97 1.366 . S
C99 C98 1.416 . S
C99 H101 0.930 . S
H100 C89 0.930 . S
H101 C99 0.930 . S
H102 C117 0.930 . S
H103 C124 0.930 . S
H104 C98 0.929 . S
H105 C97 0.930 . S
H106 C120 0.929 . S
H107 C87 0.931 . S
H108 C93 0.931 . S
H109 C94 0.931 . S
H110 C115 0.931 . S
H111 C90 0.929 . S
H112 C123 0.930 . S
N113 Eu84 2.600 . S
N113 C114 1.365 . S
N113 C117 1.319 . S
C114 N113 1.365 . S
C114 C116 1.405 . S
C114 C122 1.448 . S
C115 H110 0.931 . S
C115 C117 1.397 . S
C115 C118 1.367 . S
C116 C114 1.405 . S
C116 C118 1.403 . S
C116 C149 1.439 . S
C117 H102 0.930 . S
C117 N113 1.319 . S
C117 C115 1.397 . S
C118 C115 1.367 . S
C118 C116 1.403 . S
C118 H125 0.929 . S
N119 Eu84 2.562 . S
N119 C120 1.325 . S
N119 C122 1.351 . S
C120 H106 0.929 . S
C120 N119 1.325 . S
C120 C124 1.416 . S
C121 C122 1.430 . S
C121 C123 1.404 . S
C121 C150 1.387 . S
C122 C114 1.448 . S
C122 N119 1.351 . S
C122 C121 1.430 . S
C123 H112 0.930 . S
C123 C121 1.404 . S
C123 C124 1.366 . S
C124 H103 0.930 . S
C124 C120 1.416 . S
C124 C123 1.366 . S
H125 C118 0.929 . S
H126 C149 0.931 . S
H127 C150 0.931 1_455 S
O128 Eu84 2.462 . S
O128 C148 1.252 . S
O129 Eu84 2.373 . S
O129 C140 1.249 . S
O130 Eu95 2.335 . S
O130 C140 1.264 . S
O131 Eu84 2.432 . S
O131 C148 1.268 . S
O132 Eu84 2.291 . S
O132 C147 1.255 . S
O133 Eu95 2.372 . S
O133 C147 1.257 . S
O134 Eu95 2.462 . S
O134 C159 1.252 . S
O135 Eu95 2.373 . S
O135 C151 1.249 . S
O136 Eu84 2.335 . S
O136 C151 1.264 . S
O137 Eu95 2.432 . S
O137 C159 1.268 . S
O138 Eu95 2.291 . S
O138 C158 1.255 . S
O139 Eu84 2.372 . S
O139 C158 1.257 . S
C140 O129 1.249 . S
C140 O130 1.264 . S
C141 C144 1.382 . S
C141 C146 1.390 . S
C141 C148 1.506 . S
C142 C143 1.398 . S
C142 C146 1.392 . S
C143 C142 1.398 . S
C143 C145 1.372 . S
C143 H160 0.931 . S
C144 C141 1.382 . S
C144 C145 1.390 . S
C144 H161 0.931 . S
C145 C143 1.372 . S
C145 C144 1.390 . S
C145 H162 0.929 . S
C146 C141 1.390 . S
C146 C142 1.392 . S
C146 H163 0.930 . S
C147 O132 1.255 . S
C147 O133 1.257 . S
C148 Eu84 2.787 . S
C148 O128 1.252 . S
C148 O131 1.268 . S
C148 C141 1.506 . S
C149 C116 1.439 . S
C149 H126 0.931 . S
C149 C150 1.374 . S
C150 C121 1.387 . S
C150 H127 0.931 1_655 S
C150 C149 1.374 . S
C151 O135 1.249 . S
C151 O136 1.264 . S
C152 C155 1.382 . S
C152 C156 1.390 . S
C152 C159 1.506 . S
C153 C154 1.398 . S
C153 C156 1.392 . S
C154 C153 1.398 . S
C154 C157 1.372 . S
C154 H164 0.931 . S
C155 C152 1.382 . S
C155 C157 1.390 . S
C155 H165 0.931 . S
C156 C152 1.390 . S
C156 C153 1.392 . S
C156 H166 0.930 . S
C157 C154 1.372 . S
C157 C155 1.390 . S
C157 H167 0.929 . S
C158 O138 1.255 . S
C158 O139 1.257 . S
C159 Eu95 2.787 . S
C159 O134 1.252 . S
C159 O137 1.268 . S
C159 C152 1.506 . S
H160 C143 0.931 . S
H161 C144 0.931 . S
H162 C145 0.929 . S
H163 C146 0.930 . S
H164 C154 0.931 . S
H165 C155 0.931 . S
H166 C156 0.930 . S
H167 C157 0.929 . S
Eu168 N197 2.600 . S
Eu168 N203 2.562 . S
Eu168 O212 2.462 . S
Eu168 O213 2.373 . S
Eu168 O215 2.432 . S
Eu168 O216 2.291 . S
Eu168 O220 2.335 . S
Eu168 O223 2.372 . S
Eu168 C232 2.787 . S
C169 N170 1.365 . S
C169 C172 1.405 . S
C169 C176 1.448 . S
N170 C169 1.365 . S
N170 C173 1.319 . S
N170 Eu179 2.600 . S
C171 C173 1.397 . S
C171 C174 1.367 . S
C171 H191 0.931 . S
C172 C169 1.405 . S
C172 C174 1.403 . S
C172 C178 1.439 . S
C173 N170 1.319 . S
C173 C171 1.397 . S
C173 H184 0.930 . S
C174 C171 1.367 . S
C174 C172 1.403 . S
C174 H195 0.929 . S
C175 C176 1.430 . S
C175 C177 1.387 . S
C175 C181 1.404 . S
C176 C169 1.448 . S
C176 C175 1.430 . S
C176 N180 1.351 . S
C177 C175 1.387 . S
C177 C178 1.374 . S
C177 H192 0.931 1_545 S
C178 C172 1.439 . S
C178 C177 1.374 . S
C178 H193 0.931 . S
Eu179 N170 2.600 . S
Eu179 N180 2.562 . S
Eu179 O214 2.335 . S
Eu179 O217 2.372 . S
Eu179 O218 2.462 . S
Eu179 O219 2.373 . S
Eu179 O221 2.432 . S
Eu179 O222 2.291 . S
Eu179 C243 2.787 . S
N180 C176 1.351 . S
N180 Eu179 2.562 . S
N180 C182 1.325 . S
C181 C175 1.404 . S
C181 C183 1.366 . S
C181 H189 0.930 . S
C182 N180 1.325 . S
C182 C183 1.416 . S
C182 H188 0.929 . S
C183 C181 1.366 . S
C183 C182 1.416 . S
C183 H185 0.930 . S
H184 C173 0.930 . S
H185 C183 0.930 . S
H186 C201 0.930 . S
H187 C208 0.930 . S
H188 C182 0.929 . S
H189 C181 0.930 . S
H190 C204 0.929 . S
H191 C171 0.931 . S
H192 C177 0.931 1_565 S
H193 C178 0.931 . S
H194 C199 0.931 . S
H195 C174 0.929 . S
H196 C207 0.930 . S
N197 Eu168 2.600 . S
N197 C198 1.365 . S
N197 C201 1.319 . S
C198 N197 1.365 . S
C198 C200 1.405 . S
C198 C206 1.448 . S
C199 H194 0.931 . S
C199 C201 1.397 . S
C199 C202 1.367 . S
C200 C198 1.405 . S
C200 C202 1.403 . S
C200 C233 1.439 . S
C201 H186 0.930 . S
C201 N197 1.319 . S
C201 C199 1.397 . S
C202 C199 1.367 . S
C202 C200 1.403 . S
C202 H209 0.929 . S
N203 Eu168 2.562 . S
N203 C204 1.325 . S
N203 C206 1.351 . S
C204 H190 0.929 . S
C204 N203 1.325 . S
C204 C208 1.416 . S
C205 C206 1.430 . S
C205 C207 1.404 . S
C205 C234 1.387 . S
C206 C198 1.448 . S
C206 N203 1.351 . S
C206 C205 1.430 . S
C207 H196 0.930 . S
C207 C205 1.404 . S
C207 C208 1.366 . S
C208 H187 0.930 . S
C208 C204 1.416 . S
C208 C207 1.366 . S
H209 C202 0.929 . S
H210 C233 0.931 . S
H211 C234 0.931 . S
O212 Eu168 2.462 . S
O212 C232 1.252 . S
O213 Eu168 2.373 . S
O213 C224 1.249 . S
O214 Eu179 2.335 . S
O214 C224 1.264 . S
O215 Eu168 2.432 . S
O215 C232 1.268 . S
O216 Eu168 2.291 . S
O216 C231 1.255 . S
O217 Eu179 2.372 . S
O217 C231 1.257 . S
O218 Eu179 2.462 . S
O218 C243 1.252 . S
O219 Eu179 2.373 . S
O219 C235 1.249 . S
O220 Eu168 2.335 . S
O220 C235 1.264 . S
O221 Eu179 2.432 . S
O221 C243 1.268 . S
O222 Eu179 2.291 . S
O222 C242 1.255 . S
O223 Eu168 2.372 . S
O223 C242 1.257 . S
C224 O213 1.249 . S
C224 O214 1.264 . S
C225 C228 1.382 . S
C225 C230 1.390 . S
C225 C232 1.506 . S
C226 C227 1.398 . S
C226 C230 1.392 1_455 S
C227 C226 1.398 . S
C227 C229 1.372 . S
C227 H244 0.931 . S
C228 C225 1.382 . S
C228 C229 1.390 1_655 S
C228 H245 0.931 . S
C229 C227 1.372 . S
C229 C228 1.390 1_455 S
C229 H246 0.929 . S
C230 C225 1.390 . S
C230 C226 1.392 1_655 S
C230 H247 0.930 . S
C231 O216 1.255 . S
C231 O217 1.257 . S
C232 Eu168 2.787 . S
C232 O212 1.252 . S
C232 O215 1.268 . S
C232 C225 1.506 . S
C233 C200 1.439 . S
C233 H210 0.931 . S
C233 C234 1.374 . S
C234 C205 1.387 . S
C234 H211 0.931 . S
C234 C233 1.374 . S
C235 O219 1.249 . S
C235 O220 1.264 . S
C236 C239 1.382 . S
C236 C240 1.390 . S
C236 C243 1.506 . S
C237 C238 1.398 . S
C237 C240 1.392 . S
C238 C237 1.398 . S
C238 C241 1.372 . S
C238 H248 0.931 . S
C239 C236 1.382 . S
C239 C241 1.390 . S
C239 H249 0.931 . S
C240 C236 1.390 . S
C240 C237 1.392 . S
C240 H250 0.930 . S
C241 C238 1.372 . S
C241 C239 1.390 . S
C241 H251 0.929 . S
C242 O222 1.255 . S
C242 O223 1.257 . S
C243 Eu179 2.787 . S
C243 O218 1.252 . S
C243 O221 1.268 . S
C243 C236 1.506 . S
H244 C227 0.931 . S
H245 C228 0.931 . S
H246 C229 0.929 . S
H247 C230 0.930 . S
H248 C238 0.931 . S
H249 C239 0.931 . S
H250 C240 0.930 . S
H251 C241 0.929 . S
Eu252 N281 2.600 . S
Eu252 N287 2.562 . S
Eu252 O296 2.462 . S
Eu252 O297 2.373 . S
Eu252 O299 2.432 . S
Eu252 O300 2.291 . S
Eu252 O304 2.335 . S
Eu252 O307 2.372 . S
Eu252 C316 2.787 . S
C253 N254 1.365 . S
C253 C256 1.405 . S
C253 C260 1.448 . S
N254 C253 1.365 . S
N254 C257 1.319 . S
N254 Eu263 2.600 . S
C255 C257 1.397 . S
C255 C258 1.367 . S
C255 H275 0.931 . S
C256 C253 1.405 . S
C256 C258 1.403 . S
C256 C262 1.439 . S
C257 N254 1.319 . S
C257 C255 1.397 . S
C257 H268 0.930 . S
C258 C255 1.367 . S
C258 C256 1.403 . S
C258 H279 0.929 . S
C259 C260 1.430 . S
C259 C261 1.387 . S
C259 C265 1.404 . S
C260 C253 1.448 . S
C260 C259 1.430 . S
C260 N264 1.351 . S
C261 C259 1.387 . S
C261 C262 1.374 . S
C261 H276 0.931 . S
C262 C256 1.439 . S
C262 C261 1.374 . S
C262 H277 0.931 . S
Eu263 N254 2.600 . S
Eu263 N264 2.562 . S
Eu263 O298 2.335 . S
Eu263 O301 2.372 . S
Eu263 O302 2.462 . S
Eu263 O303 2.373 . S
Eu263 O305 2.432 . S
Eu263 O306 2.291 . S
Eu263 C327 2.787 . S
N264 C260 1.351 . S
N264 Eu263 2.562 . S
N264 C266 1.325 . S
C265 C259 1.404 . S
C265 C267 1.366 . S
C265 H273 0.930 . S
C266 N264 1.325 . S
C266 C267 1.416 . S
C266 H272 0.929 . S
C267 C265 1.366 . S
C267 C266 1.416 . S
C267 H269 0.930 . S
H268 C257 0.930 . S
H269 C267 0.930 . S
H270 C285 0.930 . S
H271 C292 0.930 . S
H272 C266 0.929 . S
H273 C265 0.930 . S
H274 C288 0.929 . S
H275 C255 0.931 . S
H276 C261 0.931 . S
H277 C262 0.931 . S
H278 C283 0.931 . S
H279 C258 0.929 . S
H280 C291 0.930 . S
N281 Eu252 2.600 . S
N281 C282 1.365 . S
N281 C285 1.319 . S
C282 N281 1.365 . S
C282 C284 1.405 . S
C282 C290 1.448 . S
C283 H278 0.931 . S
C283 C285 1.397 . S
C283 C286 1.367 . S
C284 C282 1.405 . S
C284 C286 1.403 . S
C284 C317 1.439 . S
C285 H270 0.930 . S
C285 N281 1.319 . S
C285 C283 1.397 . S
C286 C283 1.367 . S
C286 C284 1.403 . S
C286 H293 0.929 . S
N287 Eu252 2.562 . S
N287 C288 1.325 . S
N287 C290 1.351 . S
C288 H274 0.929 . S
C288 N287 1.325 . S
C288 C292 1.416 . S
C289 C290 1.430 . S
C289 C291 1.404 . S
C289 C318 1.387 . S
C290 C282 1.448 . S
C290 N287 1.351 . S
C290 C289 1.430 . S
C291 H280 0.930 . S
C291 C289 1.404 . S
C291 C292 1.366 . S
C292 H271 0.930 . S
C292 C288 1.416 . S
C292 C291 1.366 . S
H293 C286 0.929 . S
H294 C317 0.931 . S
H295 C318 0.931 . S
O296 Eu252 2.462 . S
O296 C316 1.252 . S
O297 Eu252 2.373 . S
O297 C308 1.249 . S
O298 Eu263 2.335 . S
O298 C308 1.264 . S
O299 Eu252 2.432 . S
O299 C316 1.268 . S
O300 Eu252 2.291 . S
O300 C315 1.255 . S
O301 Eu263 2.372 . S
O301 C315 1.257 . S
O302 Eu263 2.462 . S
O302 C327 1.252 . S
O303 Eu263 2.373 . S
O303 C319 1.249 . S
O304 Eu252 2.335 . S
O304 C319 1.264 . S
O305 Eu263 2.432 . S
O305 C327 1.268 . S
O306 Eu263 2.291 . S
O306 C326 1.255 . S
O307 Eu252 2.372 . S
O307 C326 1.257 . S
C308 O297 1.249 . S
C308 O298 1.264 . S
C309 C312 1.382 . S
C309 C314 1.390 . S
C309 C316 1.506 . S
C310 C311 1.398 . S
C310 C314 1.392 . S
C311 C310 1.398 . S
C311 C313 1.372 . S
C311 H328 0.931 . S
C312 C309 1.382 . S
C312 C313 1.390 . S
C312 H329 0.931 . S
C313 C311 1.372 . S
C313 C312 1.390 . S
C313 H330 0.929 . S
C314 C309 1.390 . S
C314 C310 1.392 . S
C314 H331 0.930 . S
C315 O300 1.255 . S
C315 O301 1.257 . S
C316 Eu252 2.787 . S
C316 O296 1.252 . S
C316 O299 1.268 . S
C316 C309 1.506 . S
C317 C284 1.439 . S
C317 H294 0.931 . S
C317 C318 1.374 . S
C318 C289 1.387 . S
C318 H295 0.931 . S
C318 C317 1.374 . S
C319 O303 1.249 . S
C319 O304 1.264 . S
C320 C323 1.382 . S
C320 C324 1.390 . S
C320 C327 1.506 . S
C321 C322 1.398 . S
C321 C324 1.392 1_565 S
C322 C321 1.398 . S
C322 C325 1.372 . S
C322 H332 0.931 . S
C323 C320 1.382 . S
C323 C325 1.390 1_545 S
C323 H333 0.931 . S
C324 C320 1.390 . S
C324 C321 1.392 1_545 S
C324 H334 0.930 . S
C325 C322 1.372 . S
C325 C323 1.390 1_565 S
C325 H335 0.929 . S
C326 O306 1.255 . S
C326 O307 1.257 . S
C327 Eu263 2.787 . S
C327 O302 1.252 . S
C327 O305 1.268 . S
C327 C320 1.506 . S
H328 C311 0.931 . S
H329 C312 0.931 . S
H330 C313 0.929 . S
H331 C314 0.930 . S
H332 C322 0.931 . S
H333 C323 0.931 . S
H334 C324 0.930 . S
H335 C325 0.929 . S
Eu336 N365 2.600 . S
Eu336 N371 2.562 . S
Eu336 O380 2.462 . S
Eu336 O381 2.373 . S
Eu336 O383 2.432 . S
Eu336 O384 2.291 . S
Eu336 O388 2.335 . S
Eu336 O391 2.372 . S
Eu336 C400 2.787 . S
C337 N338 1.365 . S
C337 C340 1.405 . S
C337 C344 1.448 . S
N338 C337 1.365 . S
N338 C341 1.319 . S
N338 Eu347 2.600 . S
C339 C341 1.397 . S
C339 C342 1.367 . S
C339 H359 0.931 . S
C340 C337 1.405 . S
C340 C342 1.403 . S
C340 C346 1.439 . S
C341 N338 1.319 . S
C341 C339 1.397 . S
C341 H352 0.930 . S
C342 C339 1.367 . S
C342 C340 1.403 . S
C342 H363 0.929 . S
C343 C344 1.430 . S
C343 C345 1.387 . S
C343 C349 1.404 . S
C344 C337 1.448 . S
C344 C343 1.430 . S
C344 N348 1.351 . S
C345 C343 1.387 . S
C345 C346 1.374 . S
C345 H360 0.931 1_655 S
C346 C340 1.439 . S
C346 C345 1.374 . S
C346 H361 0.931 . S
Eu347 N338 2.600 . S
Eu347 N348 2.562 . S
Eu347 O382 2.335 . S
Eu347 O385 2.372 . S
Eu347 O386 2.462 . S
Eu347 O387 2.373 . S
Eu347 O389 2.432 . S
Eu347 O390 2.291 . S
Eu347 C411 2.787 . S
N348 C344 1.351 . S
N348 Eu347 2.562 . S
N348 C350 1.325 . S
C349 C343 1.404 . S
C349 C351 1.366 . S
C349 H357 0.930 . S
C350 N348 1.325 . S
C350 C351 1.416 . S
C350 H356 0.929 . S
C351 C349 1.366 . S
C351 C350 1.416 . S
C351 H353 0.930 . S
H352 C341 0.930 . S
H353 C351 0.930 . S
H354 C369 0.930 . S
H355 C376 0.930 . S
H356 C350 0.929 . S
H357 C349 0.930 . S
H358 C372 0.929 . S
H359 C339 0.931 . S
H360 C345 0.931 1_455 S
H361 C346 0.931 . S
H362 C367 0.931 . S
H363 C342 0.929 . S
H364 C375 0.930 . S
N365 Eu336 2.600 . S
N365 C366 1.365 . S
N365 C369 1.319 . S
C366 N365 1.365 . S
C366 C368 1.405 . S
C366 C374 1.448 . S
C367 H362 0.931 . S
C367 C369 1.397 . S
C367 C370 1.367 . S
C368 C366 1.405 . S
C368 C370 1.403 . S
C368 C401 1.439 . S
C369 H354 0.930 . S
C369 N365 1.319 . S
C369 C367 1.397 . S
C370 C367 1.367 . S
C370 C368 1.403 . S
C370 H377 0.929 . S
N371 Eu336 2.562 . S
N371 C372 1.325 . S
N371 C374 1.351 . S
C372 H358 0.929 . S
C372 N371 1.325 . S
C372 C376 1.416 . S
C373 C374 1.430 . S
C373 C375 1.404 . S
C373 C402 1.387 . S
C374 C366 1.448 . S
C374 N371 1.351 . S
C374 C373 1.430 . S
C375 H364 0.930 . S
C375 C373 1.404 . S
C375 C376 1.366 . S
C376 H355 0.930 . S
C376 C372 1.416 . S
C376 C375 1.366 . S
H377 C370 0.929 . S
H378 C401 0.931 . S
H379 C402 0.931 . S
O380 Eu336 2.462 . S
O380 C400 1.252 . S
O381 Eu336 2.373 . S
O381 C392 1.249 . S
O382 Eu347 2.335 . S
O382 C392 1.264 . S
O383 Eu336 2.432 . S
O383 C400 1.268 . S
O384 Eu336 2.291 . S
O384 C399 1.255 . S
O385 Eu347 2.372 . S
O385 C399 1.257 . S
O386 Eu347 2.462 . S
O386 C411 1.252 . S
O387 Eu347 2.373 . S
O387 C403 1.249 . S
O388 Eu336 2.335 . S
O388 C403 1.264 . S
O389 Eu347 2.432 . S
O389 C411 1.268 . S
O390 Eu347 2.291 . S
O390 C410 1.255 . S
O391 Eu336 2.372 . S
O391 C410 1.257 . S
C392 O381 1.249 . S
C392 O382 1.264 . S
C393 C396 1.382 . S
C393 C398 1.390 . S
C393 C400 1.506 . S
C394 C395 1.398 . S
C394 C398 1.392 . S
C395 C394 1.398 . S
C395 C397 1.372 . S
C395 H412 0.931 . S
C396 C393 1.382 . S
C396 C397 1.390 . S
C396 H413 0.931 . S
C397 C395 1.372 . S
C397 C396 1.390 . S
C397 H414 0.929 . S
C398 C393 1.390 . S
C398 C394 1.392 . S
C398 H415 0.930 . S
C399 O384 1.255 . S
C399 O385 1.257 . S
C400 Eu336 2.787 . S
C400 O380 1.252 . S
C400 O383 1.268 . S
C400 C393 1.506 . S
C401 C368 1.439 . S
C401 H378 0.931 . S
C401 C402 1.374 . S
C402 C373 1.387 . S
C402 H379 0.931 . S
C402 C401 1.374 . S
C403 O387 1.249 . S
C403 O388 1.264 . S
C404 C407 1.382 . S
C404 C408 1.390 . S
C404 C411 1.506 . S
C405 C406 1.398 . S
C405 C408 1.392 . S
C406 C405 1.398 . S
C406 C409 1.372 . S
C406 H416 0.931 . S
C407 C404 1.382 . S
C407 C409 1.390 . S
C407 H417 0.931 . S
C408 C404 1.390 . S
C408 C405 1.392 . S
C408 H418 0.930 . S
C409 C406 1.372 . S
C409 C407 1.390 . S
C409 H419 0.929 . S
C410 O390 1.255 . S
C410 O391 1.257 . S
C411 Eu347 2.787 . S
C411 O386 1.252 . S
C411 O389 1.268 . S
C411 C404 1.506 . S
H412 C395 0.931 . S
H413 C396 0.931 . S
H414 C397 0.929 . S
H415 C398 0.930 . S
H416 C406 0.931 . S
H417 C407 0.931 . S
H418 C408 0.930 . S
H419 C409 0.929 . S
Eu420 N449 2.600 . S
Eu420 N455 2.562 . S
Eu420 O464 2.462 . S
Eu420 O465 2.373 . S
Eu420 O467 2.432 . S
Eu420 O468 2.291 . S
Eu420 O472 2.335 . S
Eu420 O475 2.372 . S
Eu420 C484 2.787 . S
C421 N422 1.365 . S
C421 C424 1.405 . S
C421 C428 1.448 . S
N422 C421 1.365 . S
N422 C425 1.319 . S
N422 Eu431 2.600 . S
C423 C425 1.397 . S
C423 C426 1.367 . S
C423 H443 0.931 . S
C424 C421 1.405 . S
C424 C426 1.403 . S
C424 C430 1.439 . S
C425 N422 1.319 . S
C425 C423 1.397 . S
C425 H436 0.930 . S
C426 C423 1.367 . S
C426 C424 1.403 . S
C426 H447 0.929 . S
C427 C428 1.430 . S
C427 C429 1.387 . S
C427 C433 1.404 . S
C428 C421 1.448 . S
C428 C427 1.430 . S
C428 N432 1.351 . S
C429 C427 1.387 . S
C429 C430 1.374 . S
C429 H444 0.931 . S
C430 C424 1.439 . S
C430 C429 1.374 . S
C430 H445 0.931 . S
Eu431 N422 2.600 . S
Eu431 N432 2.562 . S
Eu431 O466 2.335 . S
Eu431 O469 2.372 . S
Eu431 O470 2.462 . S
Eu431 O471 2.373 . S
Eu431 O473 2.432 . S
Eu431 O474 2.291 . S
Eu431 C495 2.787 . S
N432 C428 1.351 . S
N432 Eu431 2.562 . S
N432 C434 1.325 . S
C433 C427 1.404 . S
C433 C435 1.366 . S
C433 H441 0.930 . S
C434 N432 1.325 . S
C434 C435 1.416 . S
C434 H440 0.929 . S
C435 C433 1.366 . S
C435 C434 1.416 . S
C435 H437 0.930 . S
H436 C425 0.930 . S
H437 C435 0.930 . S
H438 C453 0.930 . S
H439 C460 0.930 . S
H440 C434 0.929 . S
H441 C433 0.930 . S
H442 C456 0.929 . S
H443 C423 0.931 . S
H444 C429 0.931 . S
H445 C430 0.931 . S
H446 C451 0.931 . S
H447 C426 0.929 . S
H448 C459 0.930 . S
N449 Eu420 2.600 . S
N449 C450 1.365 . S
N449 C453 1.319 . S
C450 N449 1.365 . S
C450 C452 1.405 . S
C450 C458 1.448 . S
C451 H446 0.931 . S
C451 C453 1.397 . S
C451 C454 1.367 . S
C452 C450 1.405 . S
C452 C454 1.403 . S
C452 C485 1.439 . S
C453 H438 0.930 . S
C453 N449 1.319 . S
C453 C451 1.397 . S
C454 C451 1.367 . S
C454 C452 1.403 . S
C454 H461 0.929 . S
N455 Eu420 2.562 . S
N455 C456 1.325 . S
N455 C458 1.351 . S
C456 H442 0.929 . S
C456 N455 1.325 . S
C456 C460 1.416 . S
C457 C458 1.430 . S
C457 C459 1.404 . S
C457 C486 1.387 . S
C458 C450 1.448 . S
C458 N455 1.351 . S
C458 C457 1.430 . S
C459 H448 0.930 . S
C459 C457 1.404 . S
C459 C460 1.366 . S
C460 H439 0.930 . S
C460 C456 1.416 . S
C460 C459 1.366 . S
H461 C454 0.929 . S
H462 C485 0.931 . S
H463 C486 0.931 1_565 S
O464 Eu420 2.462 . S
O464 C484 1.252 . S
O465 Eu420 2.373 . S
O465 C476 1.249 . S
O466 Eu431 2.335 . S
O466 C476 1.264 . S
O467 Eu420 2.432 . S
O467 C484 1.268 . S
O468 Eu420 2.291 . S
O468 C483 1.255 . S
O469 Eu431 2.372 . S
O469 C483 1.257 . S
O470 Eu431 2.462 . S
O470 C495 1.252 . S
O471 Eu431 2.373 . S
O471 C487 1.249 . S
O472 Eu420 2.335 . S
O472 C487 1.264 . S
O473 Eu431 2.432 . S
O473 C495 1.268 . S
O474 Eu431 2.291 . S
O474 C494 1.255 . S
O475 Eu420 2.372 . S
O475 C494 1.257 . S
C476 O465 1.249 . S
C476 O466 1.264 . S
C477 C480 1.382 . S
C477 C482 1.390 . S
C477 C484 1.506 . S
C478 C479 1.398 . S
C478 C482 1.392 . S
C479 C478 1.398 . S
C479 C481 1.372 . S
C479 H496 0.931 . S
C480 C477 1.382 . S
C480 C481 1.390 . S
C480 H497 0.931 . S
C481 C479 1.372 . S
C481 C480 1.390 . S
C481 H498 0.929 . S
C482 C477 1.390 . S
C482 C478 1.392 . S
C482 H499 0.930 . S
C483 O468 1.255 . S
C483 O469 1.257 . S
C484 Eu420 2.787 . S
C484 O464 1.252 . S
C484 O467 1.268 . S
C484 C477 1.506 . S
C485 C452 1.439 . S
C485 H462 0.931 . S
C485 C486 1.374 . S
C486 C457 1.387 . S
C486 H463 0.931 1_545 S
C486 C485 1.374 . S
C487 O471 1.249 . S
C487 O472 1.264 . S
C488 C491 1.382 . S
C488 C492 1.390 . S
C488 C495 1.506 . S
C489 C490 1.398 . S
C489 C492 1.392 1_455 S
C490 C489 1.398 . S
C490 C493 1.372 . S
C490 H500 0.931 . S
C491 C488 1.382 . S
C491 C493 1.390 1_655 S
C491 H501 0.931 . S
C492 C488 1.390 . S
C492 C489 1.392 1_655 S
C492 H502 0.930 . S
C493 C490 1.372 . S
C493 C491 1.390 1_455 S
C493 H503 0.929 . S
C494 O474 1.255 . S
C494 O475 1.257 . S
C495 Eu431 2.787 . S
C495 O470 1.252 . S
C495 O473 1.268 . S
C495 C488 1.506 . S
H496 C479 0.931 . S
H497 C480 0.931 . S
H498 C481 0.929 . S
H499 C482 0.930 . S
H500 C490 0.931 . S
H501 C491 0.931 . S
H502 C492 0.930 . S
H503 C493 0.929 . S
Eu504 N533 2.600 . S
Eu504 N539 2.562 . S
Eu504 O548 2.462 . S
Eu504 O549 2.373 . S
Eu504 O551 2.432 . S
Eu504 O552 2.291 . S
Eu504 O556 2.335 . S
Eu504 O559 2.372 . S
Eu504 C568 2.787 . S
C505 N506 1.365 . S
C505 C508 1.405 . S
C505 C512 1.448 . S
N506 C505 1.365 . S
N506 C509 1.319 . S
N506 Eu515 2.600 . S
C507 C509 1.397 . S
C507 C510 1.367 . S
C507 H527 0.931 . S
C508 C505 1.405 . S
C508 C510 1.403 . S
C508 C514 1.439 . S
C509 N506 1.319 . S
C509 C507 1.397 . S
C509 H520 0.930 . S
C510 C507 1.367 . S
C510 C508 1.403 . S
C510 H531 0.929 . S
C511 C512 1.430 . S
C511 C513 1.387 . S
C511 C517 1.404 . S
C512 C505 1.448 . S
C512 C511 1.430 . S
C512 N516 1.351 . S
C513 C511 1.387 . S
C513 C514 1.374 . S
C513 H528 0.931 . S
C514 C508 1.439 . S
C514 C513 1.374 . S
C514 H529 0.931 . S
Eu515 N506 2.600 . S
Eu515 N516 2.562 . S
Eu515 O550 2.335 . S
Eu515 O553 2.372 . S
Eu515 O554 2.462 . S
Eu515 O555 2.373 . S
Eu515 O557 2.432 . S
Eu515 O558 2.291 . S
Eu515 C579 2.787 . S
N516 C512 1.351 . S
N516 Eu515 2.562 . S
N516 C518 1.325 . S
C517 C511 1.404 . S
C517 C519 1.366 . S
C517 H525 0.930 . S
C518 N516 1.325 . S
C518 C519 1.416 . S
C518 H524 0.929 . S
C519 C517 1.366 . S
C519 C518 1.416 . S
C519 H521 0.930 . S
H520 C509 0.930 . S
H521 C519 0.930 . S
H522 C537 0.930 . S
H523 C544 0.930 . S
H524 C518 0.929 . S
H525 C517 0.930 . S
H526 C540 0.929 . S
H527 C507 0.931 . S
H528 C513 0.931 . S
H529 C514 0.931 . S
H530 C535 0.931 . S
H531 C510 0.929 . S
H532 C543 0.930 . S
N533 Eu504 2.600 . S
N533 C534 1.365 . S
N533 C537 1.319 . S
C534 N533 1.365 . S
C534 C536 1.405 . S
C534 C542 1.448 . S
C535 H530 0.931 . S
C535 C537 1.397 . S
C535 C538 1.367 . S
C536 C534 1.405 . S
C536 C538 1.403 . S
C536 C569 1.439 . S
C537 H522 0.930 . S
C537 N533 1.319 . S
C537 C535 1.397 . S
C538 C535 1.367 . S
C538 C536 1.403 . S
C538 H545 0.929 . S
N539 Eu504 2.562 . S
N539 C540 1.325 . S
N539 C542 1.351 . S
C540 H526 0.929 . S
C540 N539 1.325 . S
C540 C544 1.416 . S
C541 C542 1.430 . S
C541 C543 1.404 . S
C541 C570 1.387 . S
C542 C534 1.448 . S
C542 N539 1.351 . S
C542 C541 1.430 . S
C543 H532 0.930 . S
C543 C541 1.404 . S
C543 C544 1.366 . S
C544 H523 0.930 . S
C544 C540 1.416 . S
C544 C543 1.366 . S
H545 C538 0.929 . S
H546 C569 0.931 . S
H547 C570 0.931 . S
O548 Eu504 2.462 . S
O548 C568 1.252 . S
O549 Eu504 2.373 . S
O549 C560 1.249 . S
O550 Eu515 2.335 . S
O550 C560 1.264 . S
O551 Eu504 2.432 . S
O551 C568 1.268 . S
O552 Eu504 2.291 . S
O552 C567 1.255 . S
O553 Eu515 2.372 . S
O553 C567 1.257 . S
O554 Eu515 2.462 . S
O554 C579 1.252 . S
O555 Eu515 2.373 . S
O555 C571 1.249 . S
O556 Eu504 2.335 . S
O556 C571 1.264 . S
O557 Eu515 2.432 . S
O557 C579 1.268 . S
O558 Eu515 2.291 . S
O558 C578 1.255 . S
O559 Eu504 2.372 . S
O559 C578 1.257 . S
C560 O549 1.249 . S
C560 O550 1.264 . S
C561 C564 1.382 . S
C561 C566 1.390 . S
C561 C568 1.506 . S
C562 C563 1.398 . S
C562 C566 1.392 . S
C563 C562 1.398 . S
C563 C565 1.372 . S
C563 H580 0.931 . S
C564 C561 1.382 . S
C564 C565 1.390 . S
C564 H581 0.931 . S
C565 C563 1.372 . S
C565 C564 1.390 . S
C565 H582 0.929 . S
C566 C561 1.390 . S
C566 C562 1.392 . S
C566 H583 0.930 . S
C567 O552 1.255 . S
C567 O553 1.257 . S
C568 Eu504 2.787 . S
C568 O548 1.252 . S
C568 O551 1.268 . S
C568 C561 1.506 . S
C569 C536 1.439 . S
C569 H546 0.931 . S
C569 C570 1.374 . S
C570 C541 1.387 . S
C570 H547 0.931 . S
C570 C569 1.374 . S
C571 O555 1.249 . S
C571 O556 1.264 . S
C572 C575 1.382 . S
C572 C576 1.390 . S
C572 C579 1.506 . S
C573 C574 1.398 . S
C573 C576 1.392 1_655 S
C574 C573 1.398 . S
C574 C577 1.372 . S
C574 H584 0.931 . S
C575 C572 1.382 . S
C575 C577 1.390 1_455 S
C575 H585 0.931 . S
C576 C572 1.390 . S
C576 C573 1.392 1_455 S
C576 H586 0.930 . S
C577 C574 1.372 . S
C577 C575 1.390 1_655 S
C577 H587 0.929 . S
C578 O558 1.255 . S
C578 O559 1.257 . S
C579 Eu515 2.787 . S
C579 O554 1.252 . S
C579 O557 1.268 . S
C579 C572 1.506 . S
H580 C563 0.931 . S
H581 C564 0.931 . S
H582 C565 0.929 . S
H583 C566 0.930 . S
H584 C574 0.931 . S
H585 C575 0.931 . S
H586 C576 0.930 . S
H587 C577 0.929 . S
Eu588 N617 2.600 . S
Eu588 N623 2.562 . S
Eu588 O632 2.462 . S
Eu588 O633 2.373 . S
Eu588 O635 2.432 . S
Eu588 O636 2.291 . S
Eu588 O640 2.335 . S
Eu588 O643 2.372 . S
Eu588 C652 2.787 . S
C589 N590 1.365 . S
C589 C592 1.405 . S
C589 C596 1.448 . S
N590 C589 1.365 . S
N590 C593 1.319 . S
N590 Eu599 2.600 . S
C591 C593 1.397 . S
C591 C594 1.367 . S
C591 H611 0.931 . S
C592 C589 1.405 . S
C592 C594 1.403 . S
C592 C598 1.439 . S
C593 N590 1.319 . S
C593 C591 1.397 . S
C593 H604 0.930 . S
C594 C591 1.367 . S
C594 C592 1.403 . S
C594 H615 0.929 . S
C595 C596 1.430 . S
C595 C597 1.387 . S
C595 C601 1.404 . S
C596 C589 1.448 . S
C596 C595 1.430 . S
C596 N600 1.351 . S
C597 C595 1.387 . S
C597 C598 1.374 . S
C597 H612 0.931 1_455 S
C598 C592 1.439 . S
C598 C597 1.374 . S
C598 H613 0.931 . S
Eu599 N590 2.600 . S
Eu599 N600 2.562 . S
Eu599 O634 2.335 . S
Eu599 O637 2.372 . S
Eu599 O638 2.462 . S
Eu599 O639 2.373 . S
Eu599 O641 2.432 . S
Eu599 O642 2.291 . S
Eu599 C663 2.787 . S
N600 C596 1.351 . S
N600 Eu599 2.562 . S
N600 C602 1.325 . S
C601 C595 1.404 . S
C601 C603 1.366 . S
C601 H609 0.930 . S
C602 N600 1.325 . S
C602 C603 1.416 . S
C602 H608 0.929 . S
C603 C601 1.366 . S
C603 C602 1.416 . S
C603 H605 0.930 . S
H604 C593 0.930 . S
H605 C603 0.930 . S
H606 C621 0.930 . S
H607 C628 0.930 . S
H608 C602 0.929 . S
H609 C601 0.930 . S
H610 C624 0.929 . S
H611 C591 0.931 . S
H612 C597 0.931 1_655 S
H613 C598 0.931 . S
H614 C619 0.931 . S
H615 C594 0.929 . S
H616 C627 0.930 . S
N617 Eu588 2.600 . S
N617 C618 1.365 . S
N617 C621 1.319 . S
C618 N617 1.365 . S
C618 C620 1.405 . S
C618 C626 1.448 . S
C619 H614 0.931 . S
C619 C621 1.397 . S
C619 C622 1.367 . S
C620 C618 1.405 . S
C620 C622 1.403 . S
C620 C653 1.439 . S
C621 H606 0.930 . S
C621 N617 1.319 . S
C621 C619 1.397 . S
C622 C619 1.367 . S
C622 C620 1.403 . S
C622 H629 0.929 . S
N623 Eu588 2.562 . S
N623 C624 1.325 . S
N623 C626 1.351 . S
C624 H610 0.929 . S
C624 N623 1.325 . S
C624 C628 1.416 . S
C625 C626 1.430 . S
C625 C627 1.404 . S
C625 C654 1.387 . S
C626 C618 1.448 . S
C626 N623 1.351 . S
C626 C625 1.430 . S
C627 H616 0.930 . S
C627 C625 1.404 . S
C627 C628 1.366 . S
C628 H607 0.930 . S
C628 C624 1.416 . S
C628 C627 1.366 . S
H629 C622 0.929 . S
H630 C653 0.931 . S
H631 C654 0.931 . S
O632 Eu588 2.462 . S
O632 C652 1.252 . S
O633 Eu588 2.373 . S
O633 C644 1.249 . S
O634 Eu599 2.335 . S
O634 C644 1.264 . S
O635 Eu588 2.432 . S
O635 C652 1.268 . S
O636 Eu588 2.291 . S
O636 C651 1.255 . S
O637 Eu599 2.372 . S
O637 C651 1.257 . S
O638 Eu599 2.462 . S
O638 C663 1.252 . S
O639 Eu599 2.373 . S
O639 C655 1.249 . S
O640 Eu588 2.335 . S
O640 C655 1.264 . S
O641 Eu599 2.432 . S
O641 C663 1.268 . S
O642 Eu599 2.291 . S
O642 C662 1.255 . S
O643 Eu588 2.372 . S
O643 C662 1.257 . S
C644 O633 1.249 . S
C644 O634 1.264 . S
C645 C648 1.382 . S
C645 C650 1.390 . S
C645 C652 1.506 . S
C646 C647 1.398 . S
C646 C650 1.392 1_545 S
C647 C646 1.398 . S
C647 C649 1.372 . S
C647 H664 0.931 . S
C648 C645 1.382 . S
C648 C649 1.390 1_565 S
C648 H665 0.931 . S
C649 C647 1.372 . S
C649 C648 1.390 1_545 S
C649 H666 0.929 . S
C650 C645 1.390 . S
C650 C646 1.392 1_565 S
C650 H667 0.930 . S
C651 O636 1.255 . S
C651 O637 1.257 . S
C652 Eu588 2.787 . S
C652 O632 1.252 . S
C652 O635 1.268 . S
C652 C645 1.506 . S
C653 C620 1.439 . S
C653 H630 0.931 . S
C653 C654 1.374 . S
C654 C625 1.387 . S
C654 H631 0.931 . S
C654 C653 1.374 . S
C655 O639 1.249 . S
C655 O640 1.264 . S
C656 C659 1.382 . S
C656 C660 1.390 . S
C656 C663 1.506 . S
C657 C658 1.398 . S
C657 C660 1.392 . S
C658 C657 1.398 . S
C658 C661 1.372 . S
C658 H668 0.931 . S
C659 C656 1.382 . S
C659 C661 1.390 . S
C659 H669 0.931 . S
C660 C656 1.390 . S
C660 C657 1.392 . S
C660 H670 0.930 . S
C661 C658 1.372 . S
C661 C659 1.390 . S
C661 H671 0.929 . S
C662 O642 1.255 . S
C662 O643 1.257 . S
C663 Eu599 2.787 . S
C663 O638 1.252 . S
C663 O641 1.268 . S
C663 C656 1.506 . S
H664 C647 0.931 . S
H665 C648 0.931 . S
H666 C649 0.929 . S
H667 C650 0.930 . S
H668 C658 0.931 . S
H669 C659 0.931 . S
H670 C660 0.930 . S
H671 C661 0.929 . S
Eu672 N701 2.600 . S
Eu672 N707 2.562 . S
Eu672 O716 2.462 . S
Eu672 O717 2.373 . S
Eu672 O719 2.432 . S
Eu672 O720 2.291 . S
Eu672 O724 2.335 . S
Eu672 O727 2.372 . S
Eu672 C736 2.787 . S
C673 N674 1.365 . S
C673 C676 1.405 . S
C673 C680 1.448 . S
N674 C673 1.365 . S
N674 C677 1.319 . S
N674 Eu683 2.600 . S
C675 C677 1.397 . S
C675 C678 1.367 . S
C675 H695 0.931 . S
C676 C673 1.405 . S
C676 C678 1.403 . S
C676 C682 1.439 . S
C677 N674 1.319 . S
C677 C675 1.397 . S
C677 H688 0.930 . S
C678 C675 1.367 . S
C678 C676 1.403 . S
C678 H699 0.929 . S
C679 C680 1.430 . S
C679 C681 1.387 . S
C679 C685 1.404 . S
C680 C673 1.448 . S
C680 C679 1.430 . S
C680 N684 1.351 . S
C681 C679 1.387 . S
C681 C682 1.374 . S
C681 H696 0.931 . S
C682 C676 1.439 . S
C682 C681 1.374 . S
C682 H697 0.931 . S
Eu683 N674 2.600 . S
Eu683 N684 2.562 . S
Eu683 O718 2.335 . S
Eu683 O721 2.372 . S
Eu683 O722 2.462 . S
Eu683 O723 2.373 . S
Eu683 O725 2.432 . S
Eu683 O726 2.291 . S
Eu683 C747 2.787 . S
N684 C680 1.351 . S
N684 Eu683 2.562 . S
N684 C686 1.325 . S
C685 C679 1.404 . S
C685 C687 1.366 . S
C685 H693 0.930 . S
C686 N684 1.325 . S
C686 C687 1.416 . S
C686 H692 0.929 . S
C687 C685 1.366 . S
C687 C686 1.416 . S
C687 H689 0.930 . S
H688 C677 0.930 . S
H689 C687 0.930 . S
H690 C705 0.930 . S
H691 C712 0.930 . S
H692 C686 0.929 . S
H693 C685 0.930 . S
H694 C708 0.929 . S
H695 C675 0.931 . S
H696 C681 0.931 . S
H697 C682 0.931 . S
H698 C703 0.931 . S
H699 C678 0.929 . S
H700 C711 0.930 . S
N701 Eu672 2.600 . S
N701 C702 1.365 . S
N701 C705 1.319 . S
C702 N701 1.365 . S
C702 C704 1.405 . S
C702 C710 1.448 . S
C703 H698 0.931 . S
C703 C705 1.397 . S
C703 C706 1.367 . S
C704 C702 1.405 . S
C704 C706 1.403 . S
C704 C737 1.439 . S
C705 H690 0.930 . S
C705 N701 1.319 . S
C705 C703 1.397 . S
C706 C703 1.367 . S
C706 C704 1.403 . S
C706 H713 0.929 . S
N707 Eu672 2.562 . S
N707 C708 1.325 . S
N707 C710 1.351 . S
C708 H694 0.929 . S
C708 N707 1.325 . S
C708 C712 1.416 . S
C709 C710 1.430 . S
C709 C711 1.404 . S
C709 C738 1.387 . S
C710 C702 1.448 . S
C710 N707 1.351 . S
C710 C709 1.430 . S
C711 H700 0.930 . S
C711 C709 1.404 . S
C711 C712 1.366 . S
C712 H691 0.930 . S
C712 C708 1.416 . S
C712 C711 1.366 . S
H713 C706 0.929 . S
H714 C737 0.931 . S
H715 C738 0.931 1_545 S
O716 Eu672 2.462 . S
O716 C736 1.252 . S
O717 Eu672 2.373 . S
O717 C728 1.249 . S
O718 Eu683 2.335 . S
O718 C728 1.264 . S
O719 Eu672 2.432 . S
O719 C736 1.268 . S
O720 Eu672 2.291 . S
O720 C735 1.255 . S
O721 Eu683 2.372 . S
O721 C735 1.257 . S
O722 Eu683 2.462 . S
O722 C747 1.252 . S
O723 Eu683 2.373 . S
O723 C739 1.249 . S
O724 Eu672 2.335 . S
O724 C739 1.264 . S
O725 Eu683 2.432 . S
O725 C747 1.268 . S
O726 Eu683 2.291 . S
O726 C746 1.255 . S
O727 Eu672 2.372 . S
O727 C746 1.257 . S
C728 O717 1.249 . S
C728 O718 1.264 . S
C729 C732 1.382 . S
C729 C734 1.390 . S
C729 C736 1.506 . S
C730 C731 1.398 . S
C730 C734 1.392 . S
C731 C730 1.398 . S
C731 C733 1.372 . S
C731 H748 0.931 . S
C732 C729 1.382 . S
C732 C733 1.390 . S
C732 H749 0.931 . S
C733 C731 1.372 . S
C733 C732 1.390 . S
C733 H750 0.929 . S
C734 C729 1.390 . S
C734 C730 1.392 . S
C734 H751 0.930 . S
C735 O720 1.255 . S
C735 O721 1.257 . S
C736 Eu672 2.787 . S
C736 O716 1.252 . S
C736 O719 1.268 . S
C736 C729 1.506 . S
C737 C704 1.439 . S
C737 H714 0.931 . S
C737 C738 1.374 . S
C738 C709 1.387 . S
C738 H715 0.931 1_565 S
C738 C737 1.374 . S
C739 O723 1.249 . S
C739 O724 1.264 . S
C740 C743 1.382 . S
C740 C744 1.390 . S
C740 C747 1.506 . S
C741 C742 1.398 . S
C741 C744 1.392 . S
C742 C741 1.398 . S
C742 C745 1.372 . S
C742 H752 0.931 . S
C743 C740 1.382 . S
C743 C745 1.390 . S
C743 H753 0.931 . S
C744 C740 1.390 . S
C744 C741 1.392 . S
C744 H754 0.930 . S
C745 C742 1.372 . S
C745 C743 1.390 . S
C745 H755 0.929 . S
C746 O726 1.255 . S
C746 O727 1.257 . S
C747 Eu683 2.787 . S
C747 O722 1.252 . S
C747 O725 1.268 . S
C747 C740 1.506 . S
H748 C731 0.931 . S
H749 C732 0.931 . S
H750 C733 0.929 . S
H751 C734 0.930 . S
H752 C742 0.931 . S
H753 C743 0.931 . S
H754 C744 0.930 . S
H755 C745 0.929 . S
Eu756 N785 2.600 . S
Eu756 N791 2.562 . S
Eu756 O800 2.462 . S
Eu756 O801 2.373 . S
Eu756 O803 2.432 . S
Eu756 O804 2.291 . S
Eu756 O808 2.335 . S
Eu756 O811 2.372 . S
Eu756 C820 2.787 . S
C757 N758 1.365 . S
C757 C760 1.405 . S
C757 C764 1.448 . S
N758 C757 1.365 . S
N758 C761 1.319 . S
N758 Eu767 2.600 . S
C759 C761 1.397 . S
C759 C762 1.367 . S
C759 H779 0.931 . S
C760 C757 1.405 . S
C760 C762 1.403 . S
C760 C766 1.439 . S
C761 N758 1.319 . S
C761 C759 1.397 . S
C761 H772 0.930 . S
C762 C759 1.367 . S
C762 C760 1.403 . S
C762 H783 0.929 . S
C763 C764 1.430 . S
C763 C765 1.387 . S
C763 C769 1.404 . S
C764 C757 1.448 . S
C764 C763 1.430 . S
C764 N768 1.351 . S
C765 C763 1.387 . S
C765 C766 1.374 . S
C765 H780 0.931 . S
C766 C760 1.439 . S
C766 C765 1.374 . S
C766 H781 0.931 . S
Eu767 N758 2.600 . S
Eu767 N768 2.562 . S
Eu767 O802 2.335 . S
Eu767 O805 2.372 . S
Eu767 O806 2.462 . S
Eu767 O807 2.373 . S
Eu767 O809 2.432 . S
Eu767 O810 2.291 . S
Eu767 C831 2.787 . S
N768 C764 1.351 . S
N768 Eu767 2.562 . S
N768 C770 1.325 . S
C769 C763 1.404 . S
C769 C771 1.366 . S
C769 H777 0.930 . S
C770 N768 1.325 . S
C770 C771 1.416 . S
C770 H776 0.929 . S
C771 C769 1.366 . S
C771 C770 1.416 . S
C771 H773 0.930 . S
H772 C761 0.930 . S
H773 C771 0.930 . S
H774 C789 0.930 . S
H775 C796 0.930 . S
H776 C770 0.929 . S
H777 C769 0.930 . S
H778 C792 0.929 . S
H779 C759 0.931 . S
H780 C765 0.931 . S
H781 C766 0.931 . S
H782 C787 0.931 . S
H783 C762 0.929 . S
H784 C795 0.930 . S
N785 Eu756 2.600 . S
N785 C786 1.365 . S
N785 C789 1.319 . S
C786 N785 1.365 . S
C786 C788 1.405 . S
C786 C794 1.448 . S
C787 H782 0.931 . S
C787 C789 1.397 . S
C787 C790 1.367 . S
C788 C786 1.405 . S
C788 C790 1.403 . S
C788 C821 1.439 . S
C789 H774 0.930 . S
C789 N785 1.319 . S
C789 C787 1.397 . S
C790 C787 1.367 . S
C790 C788 1.403 . S
C790 H797 0.929 . S
N791 Eu756 2.562 . S
N791 C792 1.325 . S
N791 C794 1.351 . S
C792 H778 0.929 . S
C792 N791 1.325 . S
C792 C796 1.416 . S
C793 C794 1.430 . S
C793 C795 1.404 . S
C793 C822 1.387 . S
C794 C786 1.448 . S
C794 N791 1.351 . S
C794 C793 1.430 . S
C795 H784 0.930 . S
C795 C793 1.404 . S
C795 C796 1.366 . S
C796 H775 0.930 . S
C796 C792 1.416 . S
C796 C795 1.366 . S
H797 C790 0.929 . S
H798 C821 0.931 . S
H799 C822 0.931 . S
O800 Eu756 2.462 . S
O800 C820 1.252 . S
O801 Eu756 2.373 . S
O801 C812 1.249 . S
O802 Eu767 2.335 . S
O802 C812 1.264 . S
O803 Eu756 2.432 . S
O803 C820 1.268 . S
O804 Eu756 2.291 . S
O804 C819 1.255 . S
O805 Eu767 2.372 . S
O805 C819 1.257 . S
O806 Eu767 2.462 . S
O806 C831 1.252 . S
O807 Eu767 2.373 . S
O807 C823 1.249 . S
O808 Eu756 2.335 . S
O808 C823 1.264 . S
O809 Eu767 2.432 . S
O809 C831 1.268 . S
O810 Eu767 2.291 . S
O810 C830 1.255 . S
O811 Eu756 2.372 . S
O811 C830 1.257 . S
C812 O801 1.249 . S
C812 O802 1.264 . S
C813 C816 1.382 . S
C813 C818 1.390 . S
C813 C820 1.506 . S
C814 C815 1.398 . S
C814 C818 1.392 1_655 S
C815 C814 1.398 . S
C815 C817 1.372 . S
C815 H832 0.931 . S
C816 C813 1.382 . S
C816 C817 1.390 1_455 S
C816 H833 0.931 . S
C817 C815 1.372 . S
C817 C816 1.390 1_655 S
C817 H834 0.929 . S
C818 C813 1.390 . S
C818 C814 1.392 1_455 S
C818 H835 0.930 . S
C819 O804 1.255 . S
C819 O805 1.257 . S
C820 Eu756 2.787 . S
C820 O800 1.252 . S
C820 O803 1.268 . S
C820 C813 1.506 . S
C821 C788 1.439 . S
C821 H798 0.931 . S
C821 C822 1.374 . S
C822 C793 1.387 . S
C822 H799 0.931 . S
C822 C821 1.374 . S
C823 O807 1.249 . S
C823 O808 1.264 . S
C824 C827 1.382 . S
C824 C828 1.390 . S
C824 C831 1.506 . S
C825 C826 1.398 . S
C825 C828 1.392 . S
C826 C825 1.398 . S
C826 C829 1.372 . S
C826 H836 0.931 . S
C827 C824 1.382 . S
C827 C829 1.390 . S
C827 H837 0.931 . S
C828 C824 1.390 . S
C828 C825 1.392 . S
C828 H838 0.930 . S
C829 C826 1.372 . S
C829 C827 1.390 . S
C829 H839 0.929 . S
C830 O810 1.255 . S
C830 O811 1.257 . S
C831 Eu767 2.787 . S
C831 O806 1.252 . S
C831 O809 1.268 . S
C831 C824 1.506 . S
H832 C815 0.931 . S
H833 C816 0.931 . S
H834 C817 0.929 . S
H835 C818 0.930 . S
H836 C826 0.931 . S
H837 C827 0.931 . S
H838 C828 0.930 . S
H839 C829 0.929 . S
Eu840 N869 2.600 . S
Eu840 N875 2.562 . S
Eu840 O884 2.462 . S
Eu840 O885 2.373 . S
Eu840 O887 2.432 . S
Eu840 O888 2.291 . S
Eu840 O892 2.335 . S
Eu840 O895 2.372 . S
Eu840 C904 2.787 . S
C841 N842 1.365 . S
C841 C844 1.405 . S
C841 C848 1.448 . S
N842 C841 1.365 . S
N842 C845 1.319 . S
N842 Eu851 2.600 . S
C843 C845 1.397 . S
C843 C846 1.367 . S
C843 H863 0.931 . S
C844 C841 1.405 . S
C844 C846 1.403 . S
C844 C850 1.439 . S
C845 N842 1.319 . S
C845 C843 1.397 . S
C845 H856 0.930 . S
C846 C843 1.367 . S
C846 C844 1.403 . S
C846 H867 0.929 . S
C847 C848 1.430 . S
C847 C849 1.387 . S
C847 C853 1.404 . S
C848 C841 1.448 . S
C848 C847 1.430 . S
C848 N852 1.351 . S
C849 C847 1.387 . S
C849 C850 1.374 . S
C849 H864 0.931 . S
C850 C844 1.439 . S
C850 C849 1.374 . S
C850 H865 0.931 . S
Eu851 N842 2.600 . S
Eu851 N852 2.562 . S
Eu851 O886 2.335 . S
Eu851 O889 2.372 . S
Eu851 O890 2.462 . S
Eu851 O891 2.373 . S
Eu851 O893 2.432 . S
Eu851 O894 2.291 . S
Eu851 C915 2.787 . S
N852 C848 1.351 . S
N852 Eu851 2.562 . S
N852 C854 1.325 . S
C853 C847 1.404 . S
C853 C855 1.366 . S
C853 H861 0.930 . S
C854 N852 1.325 . S
C854 C855 1.416 . S
C854 H860 0.929 . S
C855 C853 1.366 . S
C855 C854 1.416 . S
C855 H857 0.930 . S
H856 C845 0.930 . S
H857 C855 0.930 . S
H858 C873 0.930 . S
H859 C880 0.930 . S
H860 C854 0.929 . S
H861 C853 0.930 . S
H862 C876 0.929 . S
H863 C843 0.931 . S
H864 C849 0.931 . S
H865 C850 0.931 . S
H866 C871 0.931 . S
H867 C846 0.929 . S
H868 C879 0.930 . S
N869 Eu840 2.600 . S
N869 C870 1.365 . S
N869 C873 1.319 . S
C870 N869 1.365 . S
C870 C872 1.405 . S
C870 C878 1.448 . S
C871 H866 0.931 . S
C871 C873 1.397 . S
C871 C874 1.367 . S
C872 C870 1.405 . S
C872 C874 1.403 . S
C872 C905 1.439 . S
C873 H858 0.930 . S
C873 N869 1.319 . S
C873 C871 1.397 . S
C874 C871 1.367 . S
C874 C872 1.403 . S
C874 H881 0.929 . S
N875 Eu840 2.562 . S
N875 C876 1.325 . S
N875 C878 1.351 . S
C876 H862 0.929 . S
C876 N875 1.325 . S
C876 C880 1.416 . S
C877 C878 1.430 . S
C877 C879 1.404 . S
C877 C906 1.387 . S
C878 C870 1.448 . S
C878 N875 1.351 . S
C878 C877 1.430 . S
C879 H868 0.930 . S
C879 C877 1.404 . S
C879 C880 1.366 . S
C880 H859 0.930 . S
C880 C876 1.416 . S
C880 C879 1.366 . S
H881 C874 0.929 . S
H882 C905 0.931 . S
H883 C906 0.931 1_655 S
O884 Eu840 2.462 . S
O884 C904 1.252 . S
O885 Eu840 2.373 . S
O885 C896 1.249 . S
O886 Eu851 2.335 . S
O886 C896 1.264 . S
O887 Eu840 2.432 . S
O887 C904 1.268 . S
O888 Eu840 2.291 . S
O888 C903 1.255 . S
O889 Eu851 2.372 . S
O889 C903 1.257 . S
O890 Eu851 2.462 . S
O890 C915 1.252 . S
O891 Eu851 2.373 . S
O891 C907 1.249 . S
O892 Eu840 2.335 . S
O892 C907 1.264 . S
O893 Eu851 2.432 . S
O893 C915 1.268 . S
O894 Eu851 2.291 . S
O894 C914 1.255 . S
O895 Eu840 2.372 . S
O895 C914 1.257 . S
C896 O885 1.249 . S
C896 O886 1.264 . S
C897 C900 1.382 . S
C897 C902 1.390 . S
C897 C904 1.506 . S
C898 C899 1.398 . S
C898 C902 1.392 . S
C899 C898 1.398 . S
C899 C901 1.372 . S
C899 H916 0.931 . S
C900 C897 1.382 . S
C900 C901 1.390 . S
C900 H917 0.931 . S
C901 C899 1.372 . S
C901 C900 1.390 . S
C901 H918 0.929 . S
C902 C897 1.390 . S
C902 C898 1.392 . S
C902 H919 0.930 . S
C903 O888 1.255 . S
C903 O889 1.257 . S
C904 Eu840 2.787 . S
C904 O884 1.252 . S
C904 O887 1.268 . S
C904 C897 1.506 . S
C905 C872 1.439 . S
C905 H882 0.931 . S
C905 C906 1.374 . S
C906 C877 1.387 . S
C906 H883 0.931 1_455 S
C906 C905 1.374 . S
C907 O891 1.249 . S
C907 O892 1.264 . S
C908 C911 1.382 . S
C908 C912 1.390 . S
C908 C915 1.506 . S
C909 C910 1.398 . S
C909 C912 1.392 1_545 S
C910 C909 1.398 . S
C910 C913 1.372 . S
C910 H920 0.931 . S
C911 C908 1.382 . S
C911 C913 1.390 1_565 S
C911 H921 0.931 . S
C912 C908 1.390 . S
C912 C909 1.392 1_565 S
C912 H922 0.930 . S
C913 C910 1.372 . S
C913 C911 1.390 1_545 S
C913 H923 0.929 . S
C914 O894 1.255 . S
C914 O895 1.257 . S
C915 Eu851 2.787 . S
C915 O890 1.252 . S
C915 O893 1.268 . S
C915 C908 1.506 . S
H916 C899 0.931 . S
H917 C900 0.931 . S
H918 C901 0.929 . S
H919 C902 0.930 . S
H920 C910 0.931 . S
H921 C911 0.931 . S
H922 C912 0.930 . S
H923 C913 0.929 . S
Eu924 N953 2.600 . S
Eu924 N959 2.562 . S
Eu924 O968 2.462 . S
Eu924 O969 2.373 . S
Eu924 O971 2.432 . S
Eu924 O972 2.291 . S
Eu924 O976 2.335 . S
Eu924 O979 2.372 . S
Eu924 C988 2.787 . S
C925 N926 1.365 . S
C925 C928 1.405 . S
C925 C932 1.448 . S
N926 C925 1.365 . S
N926 C929 1.319 . S
N926 Eu935 2.600 . S
C927 C929 1.397 . S
C927 C930 1.367 . S
C927 H947 0.931 . S
C928 C925 1.405 . S
C928 C930 1.403 . S
C928 C934 1.439 . S
C929 N926 1.319 . S
C929 C927 1.397 . S
C929 H940 0.930 . S
C930 C927 1.367 . S
C930 C928 1.403 . S
C930 H951 0.929 . S
C931 C932 1.430 . S
C931 C933 1.387 . S
C931 C937 1.404 . S
C932 C925 1.448 . S
C932 C931 1.430 . S
C932 N936 1.351 . S
C933 C931 1.387 . S
C933 C934 1.374 . S
C933 H948 0.931 1_565 S
C934 C928 1.439 . S
C934 C933 1.374 . S
C934 H949 0.931 . S
Eu935 N926 2.600 . S
Eu935 N936 2.562 . S
Eu935 O970 2.335 . S
Eu935 O973 2.372 . S
Eu935 O974 2.462 . S
Eu935 O975 2.373 . S
Eu935 O977 2.432 . S
Eu935 O978 2.291 . S
Eu935 C999 2.787 . S
N936 C932 1.351 . S
N936 Eu935 2.562 . S
N936 C938 1.325 . S
C937 C931 1.404 . S
C937 C939 1.366 . S
C937 H945 0.930 . S
C938 N936 1.325 . S
C938 C939 1.416 . S
C938 H944 0.929 . S
C939 C937 1.366 . S
C939 C938 1.416 . S
C939 H941 0.930 . S
H940 C929 0.930 . S
H941 C939 0.930 . S
H942 C957 0.930 . S
H943 C964 0.930 . S
H944 C938 0.929 . S
H945 C937 0.930 . S
H946 C960 0.929 . S
H947 C927 0.931 . S
H948 C933 0.931 1_545 S
H949 C934 0.931 . S
H950 C955 0.931 . S
H951 C930 0.929 . S
H952 C963 0.930 . S
N953 Eu924 2.600 . S
N953 C954 1.365 . S
N953 C957 1.319 . S
C954 N953 1.365 . S
C954 C956 1.405 . S
C954 C962 1.448 . S
C955 H950 0.931 . S
C955 C957 1.397 . S
C955 C958 1.367 . S
C956 C954 1.405 . S
C956 C958 1.403 . S
C956 C989 1.439 . S
C957 H942 0.930 . S
C957 N953 1.319 . S
C957 C955 1.397 . S
C958 C955 1.367 . S
C958 C956 1.403 . S
C958 H965 0.929 . S
N959 Eu924 2.562 . S
N959 C960 1.325 . S
N959 C962 1.351 . S
C960 H946 0.929 . S
C960 N959 1.325 . S
C960 C964 1.416 . S
C961 C962 1.430 . S
C961 C963 1.404 . S
C961 C990 1.387 . S
C962 C954 1.448 . S
C962 N959 1.351 . S
C962 C961 1.430 . S
C963 H952 0.930 . S
C963 C961 1.404 . S
C963 C964 1.366 . S
C964 H943 0.930 . S
C964 C960 1.416 . S
C964 C963 1.366 . S
H965 C958 0.929 . S
H966 C989 0.931 . S
H967 C990 0.931 . S
O968 Eu924 2.462 . S
O968 C988 1.252 . S
O969 Eu924 2.373 . S
O969 C980 1.249 . S
O970 Eu935 2.335 . S
O970 C980 1.264 . S
O971 Eu924 2.432 . S
O971 C988 1.268 . S
O972 Eu924 2.291 . S
O972 C987 1.255 . S
O973 Eu935 2.372 . S
O973 C987 1.257 . S
O974 Eu935 2.462 . S
O974 C999 1.252 . S
O975 Eu935 2.373 . S
O975 C991 1.249 . S
O976 Eu924 2.335 . S
O976 C991 1.264 . S
O977 Eu935 2.432 . S
O977 C999 1.268 . S
O978 Eu935 2.291 . S
O978 C998 1.255 . S
O979 Eu924 2.372 . S
O979 C998 1.257 . S
C980 O969 1.249 . S
C980 O970 1.264 . S
C981 C984 1.382 . S
C981 C986 1.390 . S
C981 C988 1.506 . S
C982 C983 1.398 . S
C982 C986 1.392 . S
C983 C982 1.398 . S
C983 C985 1.372 . S
C983 H1000 0.931 . S
C984 C981 1.382 . S
C984 C985 1.390 . S
C984 H1001 0.931 . S
C985 C983 1.372 . S
C985 C984 1.390 . S
C985 H1002 0.929 . S
C986 C981 1.390 . S
C986 C982 1.392 . S
C986 H1003 0.930 . S
C987 O972 1.255 . S
C987 O973 1.257 . S
C988 Eu924 2.787 . S
C988 O968 1.252 . S
C988 O971 1.268 . S
C988 C981 1.506 . S
C989 C956 1.439 . S
C989 H966 0.931 . S
C989 C990 1.374 . S
C990 C961 1.387 . S
C990 H967 0.931 . S
C990 C989 1.374 . S
C991 O975 1.249 . S
C991 O976 1.264 . S
C992 C995 1.382 . S
C992 C996 1.390 . S
C992 C999 1.506 . S
C993 C994 1.398 . S
C993 C996 1.392 . S
C994 C993 1.398 . S
C994 C997 1.372 . S
C994 H1004 0.931 . S
C995 C992 1.382 . S
C995 C997 1.390 . S
C995 H1005 0.931 . S
C996 C992 1.390 . S
C996 C993 1.392 . S
C996 H1006 0.930 . S
C997 C994 1.372 . S
C997 C995 1.390 . S
C997 H1007 0.929 . S
C998 O978 1.255 . S
C998 O979 1.257 . S
C999 Eu935 2.787 . S
C999 O974 1.252 . S
C999 O977 1.268 . S
C999 C992 1.506 . S
H1000 C983 0.931 . S
H1001 C984 0.931 . S
H1002 C985 0.929 . S
H1003 C986 0.930 . S
H1004 C994 0.931 . S
H1005 C995 0.931 . S
H1006 C996 0.930 . S
H1007 C997 0.929 . S
C1008 C1009 1.349 . S
C1008 C1010 1.327 . S
C1008 H1033 0.950 . S
C1009 C1008 1.349 . S
C1009 C1025 1.349 . S
C1010 C1008 1.327 . S
C1010 C1029 1.429 . S
C1010 H1034 0.950 . S
C1011 C1028 1.574 . S
C1011 C1030 1.368 . S
C1011 H1035 0.949 . S
H1012 C1016 0.949 . S
C1013 C1014 1.349 . S
C1013 C1015 1.327 . S
C1013 H1036 0.950 . S
C1014 C1013 1.349 . S
C1014 C1026 1.349 . S
C1015 C1013 1.327 . S
C1015 C1031 1.429 . S
C1015 H1037 0.950 . S
C1016 H1012 0.949 . S
C1016 C1024 1.574 . S
C1016 C1032 1.368 . S
H1017 C1025 0.950 . S
H1018 C1023 0.950 . S
H1019 C1024 0.949 . S
H1020 C1026 0.950 . S
H1021 C1027 0.950 . S
H1022 C1028 0.949 . S
C1023 H1018 0.950 . S
C1023 C1025 1.327 . S
C1023 C1029 1.429 . S
C1024 C1016 1.574 . S
C1024 H1019 0.949 . S
C1024 C1030 1.368 . S
C1025 C1009 1.349 . S
C1025 H1017 0.950 . S
C1025 C1023 1.327 . S
C1026 C1014 1.349 . S
C1026 H1020 0.950 . S
C1026 C1027 1.327 . S
C1027 H1021 0.950 . S
C1027 C1026 1.327 . S
C1027 C1031 1.429 . S
C1028 C1011 1.574 . S
C1028 H1022 0.949 . S
C1028 C1032 1.368 . S
C1029 C1010 1.429 . S
C1029 C1023 1.429 . S
C1029 C1030 1.523 . S
C1030 C1011 1.368 . S
C1030 C1024 1.368 . S
C1030 C1029 1.523 . S
C1031 C1015 1.429 . S
C1031 C1027 1.429 . S
C1031 C1032 1.523 . S
C1032 C1016 1.368 . S
C1032 C1028 1.368 . S
C1032 C1031 1.523 . S
H1033 C1008 0.950 . S
H1034 C1010 0.950 . S
H1035 C1011 0.949 . S
H1036 C1013 0.950 . S
H1037 C1015 0.950 . S
C1038 C1039 1.349 . S
C1038 C1040 1.327 . S
C1038 H1063 0.950 . S
C1039 C1038 1.349 . S
C1039 C1055 1.349 . S
C1040 C1038 1.327 . S
C1040 C1059 1.429 . S
C1040 H1064 0.950 . S
C1041 C1058 1.574 . S
C1041 C1060 1.368 . S
C1041 H1065 0.949 . S
H1042 C1046 0.938 1_655 S
C1043 C1044 1.349 . S
C1043 C1045 1.327 . S
C1043 H1066 0.950 . S
C1044 C1043 1.349 . S
C1044 C1056 1.349 . S
C1045 C1043 1.327 . S
C1045 C1061 1.429 . S
C1045 H1067 0.950 . S
C1046 H1042 0.938 1_455 S
C1046 C1054 1.582 . S
C1046 C1062 1.372 1_455 S
H1047 C1055 0.950 . S
H1048 C1053 0.950 . S
H1049 C1054 0.949 . S
H1050 C1056 0.950 . S
H1051 C1057 0.950 . S
H1052 C1058 0.949 . S
C1053 H1048 0.950 . S
C1053 C1055 1.327 . S
C1053 C1059 1.429 . S
C1054 C1046 1.582 . S
C1054 H1049 0.949 . S
C1054 C1060 1.368 . S
C1055 C1039 1.349 . S
C1055 H1047 0.950 . S
C1055 C1053 1.327 . S
C1056 C1044 1.349 . S
C1056 H1050 0.950 . S
C1056 C1057 1.327 . S
C1057 H1051 0.950 . S
C1057 C1056 1.327 . S
C1057 C1061 1.429 . S
C1058 C1041 1.574 . S
C1058 H1052 0.949 . S
C1058 C1062 1.368 1_455 S
C1059 C1040 1.429 . S
C1059 C1053 1.429 . S
C1059 C1060 1.523 . S
C1060 C1041 1.368 . S
C1060 C1054 1.368 . S
C1060 C1059 1.523 . S
C1061 C1045 1.429 . S
C1061 C1057 1.429 . S
C1061 C1062 1.523 . S
C1062 C1046 1.372 1_655 S
C1062 C1058 1.368 1_655 S
C1062 C1061 1.523 . S
H1063 C1038 0.950 . S
H1064 C1040 0.950 . S
H1065 C1041 0.949 . S
H1066 C1043 0.950 . S
H1067 C1045 0.950 . S
C1068 C1069 1.349 . S
C1068 C1070 1.327 . S
C1068 H1093 0.950 . S
C1069 C1068 1.349 . S
C1069 C1085 1.349 . S
C1070 C1068 1.327 . S
C1070 C1089 1.429 . S
C1070 H1094 0.950 . S
C1071 C1088 1.574 . S
C1071 C1090 1.368 1_565 S
C1071 H1095 0.949 . S
H1072 C1076 0.949 . S
C1073 C1074 1.349 . S
C1073 C1075 1.327 . S
C1073 H1096 0.950 . S
C1074 C1073 1.349 . S
C1074 C1086 1.349 . S
C1075 C1073 1.327 . S
C1075 C1091 1.429 . S
C1075 H1097 0.950 . S
C1076 H1072 0.949 . S
C1076 C1084 1.605 . S
C1076 C1092 1.368 . S
H1077 C1085 0.950 . S
H1078 C1083 0.950 . S
H1079 C1084 0.932 1_545 S
H1080 C1086 0.950 . S
H1081 C1087 0.950 . S
H1082 C1088 0.949 . S
C1083 H1078 0.950 . S
C1083 C1085 1.327 . S
C1083 C1089 1.429 . S
C1084 C1076 1.605 . S
C1084 H1079 0.932 1_565 S
C1084 C1090 1.356 1_565 S
C1085 C1069 1.349 . S
C1085 H1077 0.950 . S
C1085 C1083 1.327 . S
C1086 C1074 1.349 . S
C1086 H1080 0.950 . S
C1086 C1087 1.327 . S
C1087 H1081 0.950 . S
C1087 C1086 1.327 . S
C1087 C1091 1.429 . S
C1088 C1071 1.574 . S
C1088 H1082 0.949 . S
C1088 C1092 1.368 . S
C1089 C1070 1.429 . S
C1089 C1083 1.429 . S
C1089 C1090 1.523 . S
C1090 C1071 1.368 1_545 S
C1090 C1084 1.356 1_545 S
C1090 C1089 1.523 . S
C1091 C1075 1.429 . S
C1091 C1087 1.429 . S
C1091 C1092 1.523 . S
C1092 C1076 1.368 . S
C1092 C1088 1.368 . S
C1092 C1091 1.523 . S
H1093 C1068 0.950 . S
H1094 C1070 0.950 . S
H1095 C1071 0.949 . S
H1096 C1073 0.950 . S
H1097 C1075 0.950 . S
C1098 C1099 1.349 . S
C1098 C1100 1.327 . S
C1098 H1123 0.950 . S
C1099 C1098 1.349 . S
C1099 C1115 1.349 . S
C1100 C1098 1.327 . S
C1100 C1119 1.429 . S
C1100 H1124 0.950 . S
C1101 C1118 1.574 . S
C1101 C1120 1.368 . S
C1101 H1125 0.949 . S
H1102 C1106 0.949 . S
C1103 C1104 1.349 . S
C1103 C1105 1.327 . S
C1103 H1126 0.950 . S
C1104 C1103 1.349 . S
C1104 C1116 1.349 . S
C1105 C1103 1.327 . S
C1105 C1121 1.429 . S
C1105 H1127 0.950 . S
C1106 H1102 0.949 . S
C1106 C1114 1.574 . S
C1106 C1122 1.368 . S
H1107 C1115 0.950 . S
H1108 C1113 0.950 . S
H1109 C1114 0.949 . S
H1110 C1116 0.950 . S
H1111 C1117 0.950 . S
H1112 C1118 0.949 . S
C1113 H1108 0.950 . S
C1113 C1115 1.327 . S
C1113 C1119 1.429 . S
C1114 C1106 1.574 . S
C1114 H1109 0.949 . S
C1114 C1120 1.368 . S
C1115 C1099 1.349 . S
C1115 H1107 0.950 . S
C1115 C1113 1.327 . S
C1116 C1104 1.349 . S
C1116 H1110 0.950 . S
C1116 C1117 1.327 . S
C1117 H1111 0.950 . S
C1117 C1116 1.327 . S
C1117 C1121 1.429 . S
C1118 C1101 1.574 . S
C1118 H1112 0.949 . S
C1118 C1122 1.368 . S
C1119 C1100 1.429 . S
C1119 C1113 1.429 . S
C1119 C1120 1.523 . S
C1120 C1101 1.368 . S
C1120 C1114 1.368 . S
C1120 C1119 1.523 . S
C1121 C1105 1.429 . S
C1121 C1117 1.429 . S
C1121 C1122 1.523 . S
C1122 C1106 1.368 . S
C1122 C1118 1.368 . S
C1122 C1121 1.523 . S
H1123 C1098 0.950 . S
H1124 C1100 0.950 . S
H1125 C1101 0.949 . S
H1126 C1103 0.950 . S
H1127 C1105 0.950 . S
C1128 C1129 1.349 . S
C1128 C1130 1.327 . S
C1128 H1153 0.950 . S
C1129 C1128 1.349 . S
C1129 C1145 1.349 . S
C1130 C1128 1.327 . S
C1130 C1149 1.429 . S
C1130 H1154 0.950 . S
C1131 C1148 1.574 . S
C1131 C1150 1.368 . S
C1131 H1155 0.949 . S
H1132 C1136 0.949 . S
C1133 C1134 1.349 . S
C1133 C1135 1.327 . S
C1133 H1156 0.950 . S
C1134 C1133 1.349 . S
C1134 C1146 1.349 . S
C1135 C1133 1.327 . S
C1135 C1151 1.429 . S
C1135 H1157 0.950 . S
C1136 H1132 0.949 . S
C1136 C1144 1.574 . S
C1136 C1152 1.368 1_455 S
H1137 C1145 0.950 . S
H1138 C1143 0.950 . S
H1139 C1144 0.949 . S
H1140 C1146 0.950 . S
H1141 C1147 0.950 . S
H1142 C1148 0.949 1_655 S
C1143 H1138 0.950 . S
C1143 C1145 1.327 . S
C1143 C1149 1.429 . S
C1144 C1136 1.574 . S
C1144 H1139 0.949 . S
C1144 C1150 1.368 . S
C1145 C1129 1.349 . S
C1145 H1137 0.950 . S
C1145 C1143 1.327 . S
C1146 C1134 1.349 . S
C1146 H1140 0.950 . S
C1146 C1147 1.327 . S
C1147 H1141 0.950 . S
C1147 C1146 1.327 . S
C1147 C1151 1.429 . S
C1148 C1131 1.574 . S
C1148 H1142 0.949 1_455 S
C1148 C1152 1.368 1_455 S
C1149 C1130 1.429 . S
C1149 C1143 1.429 . S
C1149 C1150 1.523 . S
C1150 C1131 1.368 . S
C1150 C1144 1.368 . S
C1150 C1149 1.523 . S
C1151 C1135 1.429 . S
C1151 C1147 1.429 . S
C1151 C1152 1.523 . S
C1152 C1136 1.368 1_655 S
C1152 C1148 1.368 1_655 S
C1152 C1151 1.523 . S
H1153 C1128 0.950 . S
H1154 C1130 0.950 . S
H1155 C1131 0.949 . S
H1156 C1133 0.950 . S
H1157 C1135 0.950 . S
C1158 C1159 1.349 . S
C1158 C1160 1.327 . S
C1158 H1183 0.950 . S
C1159 C1158 1.349 . S
C1159 C1175 1.349 . S
C1160 C1158 1.327 . S
C1160 C1179 1.429 . S
C1160 H1184 0.950 . S
C1161 C1178 1.616 . S
C1161 C1180 1.368 . S
C1161 H1185 0.949 . S
H1162 C1166 0.949 . S
C1163 C1164 1.349 . S
C1163 C1165 1.327 . S
C1163 H1186 0.950 . S
C1164 C1163 1.349 . S
C1164 C1176 1.349 . S
C1165 C1163 1.327 . S
C1165 C1181 1.429 . S
C1165 H1187 0.950 . S
C1166 H1162 0.949 . S
C1166 C1174 1.574 . S
C1166 C1182 1.368 1_565 S
H1167 C1175 0.950 . S
H1168 C1173 0.950 . S
H1169 C1174 0.949 . S
H1170 C1176 0.950 . S
H1171 C1177 0.950 . S
H1172 C1178 0.927 1_545 S
C1173 H1168 0.950 . S
C1173 C1175 1.327 . S
C1173 C1179 1.429 . S
C1174 C1166 1.574 . S
C1174 H1169 0.949 . S
C1174 C1180 1.368 . S
C1175 C1159 1.349 . S
C1175 H1167 0.950 . S
C1175 C1173 1.327 . S
C1176 C1164 1.349 . S
C1176 H1170 0.950 . S
C1176 C1177 1.327 . S
C1177 H1171 0.950 . S
C1177 C1176 1.327 . S
C1177 C1181 1.429 . S
C1178 C1161 1.616 . S
C1178 H1172 0.927 1_565 S
C1178 C1182 1.352 1_565 S
C1179 C1160 1.429 . S
C1179 C1173 1.429 . S
C1179 C1180 1.523 . S
C1180 C1161 1.368 . S
C1180 C1174 1.368 . S
C1180 C1179 1.523 . S
C1181 C1165 1.429 . S
C1181 C1177 1.429 . S
C1181 C1182 1.523 . S
C1182 C1166 1.368 1_545 S
C1182 C1178 1.352 1_545 S
C1182 C1181 1.523 . S
H1183 C1158 0.950 . S
H1184 C1160 0.950 . S
H1185 C1161 0.949 . S
H1186 C1163 0.950 . S
H1187 C1165 0.950 . S
C1188 C1189 1.349 . S
C1188 C1190 1.327 . S
C1188 H1213 0.950 . S
C1189 C1188 1.349 . S
C1189 C1205 1.349 . S
C1190 C1188 1.327 . S
C1190 C1209 1.429 . S
C1190 H1214 0.950 . S
C1191 C1208 1.574 . S
C1191 C1210 1.368 . S
C1191 H1215 0.949 . S
H1192 C1196 0.949 . S
C1193 C1194 1.349 . S
C1193 C1195 1.327 . S
C1193 H1216 0.950 . S
C1194 C1193 1.349 . S
C1194 C1206 1.349 . S
C1195 C1193 1.327 . S
C1195 C1211 1.429 . S
C1195 H1217 0.950 . S
C1196 H1192 0.949 . S
C1196 C1204 1.574 . S
C1196 C1212 1.368 . S
H1197 C1205 0.950 . S
H1198 C1203 0.950 . S
H1199 C1204 0.949 . S
H1200 C1206 0.950 . S
H1201 C1207 0.950 . S
H1202 C1208 0.949 . S
C1203 H1198 0.950 . S
C1203 C1205 1.327 . S
C1203 C1209 1.429 . S
C1204 C1196 1.574 . S
C1204 H1199 0.949 . S
C1204 C1210 1.368 . S
C1205 C1189 1.349 . S
C1205 H1197 0.950 . S
C1205 C1203 1.327 . S
C1206 C1194 1.349 . S
C1206 H1200 0.950 . S
C1206 C1207 1.327 . S
C1207 H1201 0.950 . S
C1207 C1206 1.327 . S
C1207 C1211 1.429 . S
C1208 C1191 1.574 . S
C1208 H1202 0.949 . S
C1208 C1212 1.368 . S
C1209 C1190 1.429 . S
C1209 C1203 1.429 . S
C1209 C1210 1.523 . S
C1210 C1191 1.368 . S
C1210 C1204 1.368 . S
C1210 C1209 1.523 . S
C1211 C1195 1.429 . S
C1211 C1207 1.429 . S
C1211 C1212 1.523 . S
C1212 C1196 1.368 . S
C1212 C1208 1.368 . S
C1212 C1211 1.523 . S
H1213 C1188 0.950 . S
H1214 C1190 0.950 . S
H1215 C1191 0.949 . S
H1216 C1193 0.950 . S
H1217 C1195 0.950 . S
C1218 C1219 1.349 . S
C1218 C1220 1.327 . S
C1218 H1243 0.950 . S
C1219 C1218 1.349 . S
C1219 C1235 1.349 . S
C1220 C1218 1.327 . S
C1220 C1239 1.429 . S
C1220 H1244 0.950 . S
C1221 C1238 1.578 1_455 S
C1221 C1240 1.366 . S
C1221 H1245 0.947 . S
H1222 C1226 0.949 . S
C1223 C1224 1.349 . S
C1223 C1225 1.327 . S
C1223 H1246 0.950 . S
C1224 C1223 1.349 . S
C1224 C1236 1.349 . S
C1225 C1223 1.327 . S
C1225 C1241 1.429 . S
C1225 H1247 0.950 . S
C1226 H1222 0.949 . S
C1226 C1234 1.574 . S
C1226 C1242 1.368 . S
H1227 C1235 0.950 . S
H1228 C1233 0.950 . S
H1229 C1234 0.949 . S
H1230 C1236 0.950 . S
H1231 C1237 0.950 . S
H1232 C1238 0.949 . S
C1233 H1228 0.950 . S
C1233 C1235 1.327 . S
C1233 C1239 1.429 . S
C1234 C1226 1.574 . S
C1234 H1229 0.949 . S
C1234 C1240 1.368 1_655 S
C1235 C1219 1.349 . S
C1235 H1227 0.950 . S
C1235 C1233 1.327 . S
C1236 C1224 1.349 . S
C1236 H1230 0.950 . S
C1236 C1237 1.327 . S
C1237 H1231 0.950 . S
C1237 C1236 1.327 . S
C1237 C1241 1.429 . S
C1238 C1221 1.578 1_655 S
C1238 H1232 0.949 . S
C1238 C1242 1.368 . S
C1239 C1220 1.429 . S
C1239 C1233 1.429 . S
C1239 C1240 1.523 . S
C1240 C1221 1.366 . S
C1240 C1234 1.368 1_455 S
C1240 C1239 1.523 . S
C1241 C1225 1.429 . S
C1241 C1237 1.429 . S
C1241 C1242 1.523 . S
C1242 C1226 1.368 . S
C1242 C1238 1.368 . S
C1242 C1241 1.523 . S
H1243 C1218 0.950 . S
H1244 C1220 0.950 . S
H1245 C1221 0.947 . S
H1246 C1223 0.950 . S
H1247 C1225 0.950 . S
C1248 C1249 1.349 . S
C1248 C1250 1.327 . S
C1248 H1273 0.950 . S
C1249 C1248 1.349 . S
C1249 C1265 1.349 . S
C1250 C1248 1.327 . S
C1250 C1269 1.429 . S
C1250 H1274 0.950 . S
C1251 C1268 1.574 . S
C1251 C1270 1.368 1_545 S
C1251 H1275 0.949 1_545 S
H1252 C1256 0.949 . S
C1253 C1254 1.349 . S
C1253 C1255 1.327 . S
C1253 H1276 0.950 . S
C1254 C1253 1.349 . S
C1254 C1266 1.349 . S
C1255 C1253 1.327 . S
C1255 C1271 1.429 . S
C1255 H1277 0.950 . S
C1256 H1252 0.949 . S
C1256 C1264 1.574 . S
C1256 C1272 1.368 . S
H1257 C1265 0.950 . S
H1258 C1263 0.950 . S
H1259 C1264 0.949 . S
H1260 C1266 0.950 . S
H1261 C1267 0.950 . S
H1262 C1268 0.949 . S
C1263 H1258 0.950 . S
C1263 C1265 1.327 . S
C1263 C1269 1.429 . S
C1264 C1256 1.574 . S
C1264 H1259 0.949 . S
C1264 C1270 1.368 1_545 S
C1265 C1249 1.349 . S
C1265 H1257 0.950 . S
C1265 C1263 1.327 . S
C1266 C1254 1.349 . S
C1266 H1260 0.950 . S
C1266 C1267 1.327 . S
C1267 H1261 0.950 . S
C1267 C1266 1.327 . S
C1267 C1271 1.429 . S
C1268 C1251 1.574 . S
C1268 H1262 0.949 . S
C1268 C1272 1.368 . S
C1269 C1250 1.429 . S
C1269 C1263 1.429 . S
C1269 C1270 1.523 . S
C1270 C1251 1.368 1_565 S
C1270 C1264 1.368 1_565 S
C1270 C1269 1.523 . S
C1271 C1255 1.429 . S
C1271 C1267 1.429 . S
C1271 C1272 1.523 . S
C1272 C1256 1.368 . S
C1272 C1268 1.368 . S
C1272 C1271 1.523 . S
H1273 C1248 0.950 . S
H1274 C1250 0.950 . S
H1275 C1251 0.949 1_565 S
H1276 C1253 0.950 . S
H1277 C1255 0.950 . S
C1278 C1279 1.349 . S
C1278 C1280 1.327 . S
C1278 H1303 0.950 . S
C1279 C1278 1.349 . S
C1279 C1295 1.349 . S
C1280 C1278 1.327 . S
C1280 C1299 1.429 . S
C1280 H1304 0.950 . S
C1281 C1298 1.574 . S
C1281 C1300 1.368 . S
C1281 H1305 0.949 . S
H1282 C1286 0.949 . S
C1283 C1284 1.349 . S
C1283 C1285 1.327 . S
C1283 H1306 0.950 . S
C1284 C1283 1.349 . S
C1284 C1296 1.349 . S
C1285 C1283 1.327 . S
C1285 C1301 1.429 . S
C1285 H1307 0.950 . S
C1286 H1282 0.949 . S
C1286 C1294 1.574 . S
C1286 C1302 1.368 . S
H1287 C1295 0.950 . S
H1288 C1293 0.950 . S
H1289 C1294 0.949 . S
H1290 C1296 0.950 . S
H1291 C1297 0.950 . S
H1292 C1298 0.949 . S
C1293 H1288 0.950 . S
C1293 C1295 1.327 . S
C1293 C1299 1.429 . S
C1294 C1286 1.574 . S
C1294 H1289 0.949 . S
C1294 C1300 1.368 . S
C1295 C1279 1.349 . S
C1295 H1287 0.950 . S
C1295 C1293 1.327 . S
C1296 C1284 1.349 . S
C1296 H1290 0.950 . S
C1296 C1297 1.327 . S
C1297 H1291 0.950 . S
C1297 C1296 1.327 . S
C1297 C1301 1.429 . S
C1298 C1281 1.574 . S
C1298 H1292 0.949 . S
C1298 C1302 1.368 . S
C1299 C1280 1.429 . S
C1299 C1293 1.429 . S
C1299 C1300 1.523 . S
C1300 C1281 1.368 . S
C1300 C1294 1.368 . S
C1300 C1299 1.523 . S
C1301 C1285 1.429 . S
C1301 C1297 1.429 . S
C1301 C1302 1.523 . S
C1302 C1286 1.368 . S
C1302 C1298 1.368 . S
C1302 C1301 1.523 . S
H1303 C1278 0.950 . S
H1304 C1280 0.950 . S
H1305 C1281 0.949 . S
H1306 C1283 0.950 . S
H1307 C1285 0.950 . S
C1308 C1309 1.349 . S
C1308 C1310 1.327 . S
C1308 H1333 0.950 . S
C1309 C1308 1.349 . S
C1309 C1325 1.349 . S
C1310 C1308 1.327 . S
C1310 C1329 1.429 . S
C1310 H1334 0.950 . S
C1311 C1328 1.574 . S
C1311 C1330 1.368 1_655 S
C1311 H1335 0.949 . S
H1312 C1316 0.949 . S
C1313 C1314 1.349 . S
C1313 C1315 1.327 . S
C1313 H1336 0.950 . S
C1314 C1313 1.349 . S
C1314 C1326 1.349 . S
C1315 C1313 1.327 . S
C1315 C1331 1.429 . S
C1315 H1337 0.950 . S
C1316 H1312 0.949 . S
C1316 C1324 1.574 1_655 S
C1316 C1332 1.368 . S
H1317 C1325 0.950 . S
H1318 C1323 0.950 . S
H1319 C1324 0.949 . S
H1320 C1326 0.950 . S
H1321 C1327 0.950 . S
H1322 C1328 0.949 . S
C1323 H1318 0.950 . S
C1323 C1325 1.327 . S
C1323 C1329 1.429 . S
C1324 C1316 1.574 1_455 S
C1324 H1319 0.949 . S
C1324 C1330 1.368 . S
C1325 C1309 1.349 . S
C1325 H1317 0.950 . S
C1325 C1323 1.327 . S
C1326 C1314 1.349 . S
C1326 H1320 0.950 . S
C1326 C1327 1.327 . S
C1327 H1321 0.950 . S
C1327 C1326 1.327 . S
C1327 C1331 1.429 . S
C1328 C1311 1.574 . S
C1328 H1322 0.949 . S
C1328 C1332 1.368 . S
C1329 C1310 1.429 . S
C1329 C1323 1.429 . S
C1329 C1330 1.523 . S
C1330 C1311 1.368 1_455 S
C1330 C1324 1.368 . S
C1330 C1329 1.523 . S
C1331 C1315 1.429 . S
C1331 C1327 1.429 . S
C1331 C1332 1.523 . S
C1332 C1316 1.368 . S
C1332 C1328 1.368 . S
C1332 C1331 1.523 . S
H1333 C1308 0.950 . S
H1334 C1310 0.950 . S
H1335 C1311 0.949 . S
H1336 C1313 0.950 . S
H1337 C1315 0.950 . S
C1338 C1339 1.349 . S
C1338 C1340 1.327 . S
C1338 H1363 0.950 . S
C1339 C1338 1.349 . S
C1339 C1355 1.349 . S
C1340 C1338 1.327 . S
C1340 C1359 1.429 . S
C1340 H1364 0.950 . S
C1341 C1358 1.574 . S
C1341 C1360 1.368 . S
C1341 H1365 0.949 . S
H1342 C1346 0.949 1_565 S
C1343 C1344 1.349 . S
C1343 C1345 1.327 . S
C1343 H1366 0.950 . S
C1344 C1343 1.349 . S
C1344 C1356 1.349 . S
C1345 C1343 1.327 . S
C1345 C1361 1.429 . S
C1345 H1367 0.950 . S
C1346 H1342 0.949 1_545 S
C1346 C1354 1.574 . S
C1346 C1362 1.368 1_545 S
H1347 C1355 0.950 . S
H1348 C1353 0.950 . S
H1349 C1354 0.949 . S
H1350 C1356 0.950 . S
H1351 C1357 0.950 . S
H1352 C1358 0.949 . S
C1353 H1348 0.950 . S
C1353 C1355 1.327 . S
C1353 C1359 1.429 . S
C1354 C1346 1.574 . S
C1354 H1349 0.949 . S
C1354 C1360 1.368 . S
C1355 C1339 1.349 . S
C1355 H1347 0.950 . S
C1355 C1353 1.327 . S
C1356 C1344 1.349 . S
C1356 H1350 0.950 . S
C1356 C1357 1.327 . S
C1357 H1351 0.950 . S
C1357 C1356 1.327 . S
C1357 C1361 1.429 . S
C1358 C1341 1.574 . S
C1358 H1352 0.949 . S
C1358 C1362 1.368 1_545 S
C1359 C1340 1.429 . S
C1359 C1353 1.429 . S
C1359 C1360 1.523 . S
C1360 C1341 1.368 . S
C1360 C1354 1.368 . S
C1360 C1359 1.523 . S
C1361 C1345 1.429 . S
C1361 C1357 1.429 . S
C1361 C1362 1.523 . S
C1362 C1346 1.368 1_565 S
C1362 C1358 1.368 1_565 S
C1362 C1361 1.523 . S
H1363 C1338 0.950 . S
H1364 C1340 0.950 . S
H1365 C1341 0.949 . S
H1366 C1343 0.950 . S
H1367 C1345 0.950 . S
C1368 C1369 1.349 . S
C1368 C1370 1.327 . S
C1368 H1393 0.950 . S
C1369 C1368 1.349 . S
C1369 C1385 1.349 . S
C1370 C1368 1.327 . S
C1370 C1389 1.429 . S
C1370 H1394 0.950 . S
C1371 C1388 1.574 . S
C1371 C1390 1.368 . S
C1371 H1395 0.949 . S
H1372 C1376 0.949 . S
C1373 C1374 1.349 . S
C1373 C1375 1.327 . S
C1373 H1396 0.950 . S
C1374 C1373 1.349 . S
C1374 C1386 1.349 . S
C1375 C1373 1.327 . S
C1375 C1391 1.429 . S
C1375 H1397 0.950 . S
C1376 H1372 0.949 . S
C1376 C1384 1.574 . S
C1376 C1392 1.368 . S
H1377 C1385 0.950 . S
H1378 C1383 0.950 . S
H1379 C1384 0.949 . S
H1380 C1386 0.950 . S
H1381 C1387 0.950 . S
H1382 C1388 0.949 . S
C1383 H1378 0.950 . S
C1383 C1385 1.327 . S
C1383 C1389 1.429 . S
C1384 C1376 1.574 . S
C1384 H1379 0.949 . S
C1384 C1390 1.368 . S
C1385 C1369 1.349 . S
C1385 H1377 0.950 . S
C1385 C1383 1.327 . S
C1386 C1374 1.349 . S
C1386 H1380 0.950 . S
C1386 C1387 1.327 . S
C1387 H1381 0.950 . S
C1387 C1386 1.327 . S
C1387 C1391 1.429 . S
C1388 C1371 1.574 . S
C1388 H1382 0.949 . S
C1388 C1392 1.368 . S
C1389 C1370 1.429 . S
C1389 C1383 1.429 . S
C1389 C1390 1.523 . S
C1390 C1371 1.368 . S
C1390 C1384 1.368 . S
C1390 C1389 1.523 . S
C1391 C1375 1.429 . S
C1391 C1387 1.429 . S
C1391 C1392 1.523 . S
C1392 C1376 1.368 . S
C1392 C1388 1.368 . S
C1392 C1391 1.523 . S
H1393 C1368 0.950 . S
H1394 C1370 0.950 . S
H1395 C1371 0.949 . S
H1396 C1373 0.950 . S
H1397 C1375 0.950 . S
C1398 C1399 1.349 . S
C1398 C1400 1.327 . S
C1398 H1423 0.950 . S
C1399 C1398 1.349 . S
C1399 C1415 1.349 . S
C1400 C1398 1.327 . S
C1400 C1419 1.429 . S
C1400 H1424 0.950 . S
C1401 C1418 1.574 . S
C1401 C1420 1.368 . S
C1401 H1425 0.949 . S
H1402 C1406 0.949 . S
C1403 C1404 1.349 . S
C1403 C1405 1.327 . S
C1403 H1426 0.950 . S
C1404 C1403 1.349 . S
C1404 C1416 1.349 . S
C1405 C1403 1.327 . S
C1405 C1421 1.429 . S
C1405 H1427 0.950 . S
C1406 H1402 0.949 . S
C1406 C1414 1.574 . S
C1406 C1422 1.368 . S
H1407 C1415 0.950 . S
H1408 C1413 0.950 . S
H1409 C1414 0.949 . S
H1410 C1416 0.950 . S
H1411 C1417 0.950 . S
H1412 C1418 0.949 . S
C1413 H1408 0.950 . S
C1413 C1415 1.327 . S
C1413 C1419 1.429 . S
C1414 C1406 1.574 . S
C1414 H1409 0.949 . S
C1414 C1420 1.368 . S
C1415 C1399 1.349 . S
C1415 H1407 0.950 . S
C1415 C1413 1.327 . S
C1416 C1404 1.349 . S
C1416 H1410 0.950 . S
C1416 C1417 1.327 . S
C1417 H1411 0.950 . S
C1417 C1416 1.327 . S
C1417 C1421 1.429 . S
C1418 C1401 1.574 . S
C1418 H1412 0.949 . S
C1418 C1422 1.368 . S
C1419 C1400 1.429 . S
C1419 C1413 1.429 . S
C1419 C1420 1.523 . S
C1420 C1401 1.368 . S
C1420 C1414 1.368 . S
C1420 C1419 1.523 . S
C1421 C1405 1.429 . S
C1421 C1417 1.429 . S
C1421 C1422 1.523 . S
C1422 C1406 1.368 . S
C1422 C1418 1.368 . S
C1422 C1421 1.523 . S
H1423 C1398 0.950 . S
H1424 C1400 0.950 . S
H1425 C1401 0.949 . S
H1426 C1403 0.950 . S
H1427 C1405 0.950 . S
C1428 C1429 1.349 . S
C1428 C1430 1.327 . S
C1428 H1453 0.950 . S
C1429 C1428 1.349 . S
C1429 C1445 1.349 . S
C1430 C1428 1.327 . S
C1430 C1449 1.429 . S
C1430 H1454 0.950 . S
C1431 C1448 1.574 . S
C1431 C1450 1.368 . S
C1431 H1455 0.949 . S
H1432 C1436 0.949 . S
C1433 C1434 1.349 . S
C1433 C1435 1.327 . S
C1433 H1456 0.950 . S
C1434 C1433 1.349 . S
C1434 C1446 1.349 . S
C1435 C1433 1.327 . S
C1435 C1451 1.429 . S
C1435 H1457 0.950 . S
C1436 H1432 0.949 . S
C1436 C1444 1.574 . S
C1436 C1452 1.368 . S
H1437 C1445 0.950 . S
H1438 C1443 0.950 . S
H1439 C1444 0.949 . S
H1440 C1446 0.950 . S
H1441 C1447 0.950 . S
H1442 C1448 0.949 . S
C1443 H1438 0.950 . S
C1443 C1445 1.327 . S
C1443 C1449 1.429 . S
C1444 C1436 1.574 . S
C1444 H1439 0.949 . S
C1444 C1450 1.368 . S
C1445 C1429 1.349 . S
C1445 H1437 0.950 . S
C1445 C1443 1.327 . S
C1446 C1434 1.349 . S
C1446 H1440 0.950 . S
C1446 C1447 1.327 . S
C1447 H1441 0.950 . S
C1447 C1446 1.327 . S
C1447 C1451 1.429 . S
C1448 C1431 1.574 . S
C1448 H1442 0.949 . S
C1448 C1452 1.368 . S
C1449 C1430 1.429 . S
C1449 C1443 1.429 . S
C1449 C1450 1.523 . S
C1450 C1431 1.368 . S
C1450 C1444 1.368 . S
C1450 C1449 1.523 . S
C1451 C1435 1.429 . S
C1451 C1447 1.429 . S
C1451 C1452 1.523 . S
C1452 C1436 1.368 . S
C1452 C1448 1.368 . S
C1452 C1451 1.523 . S
H1453 C1428 0.950 . S
H1454 C1430 0.950 . S
H1455 C1431 0.949 . S
H1456 C1433 0.950 . S
H1457 C1435 0.950 . S
C1458 C1459 1.349 . S
C1458 C1460 1.327 . S
C1458 H1483 0.950 . S
C1459 C1458 1.349 . S
C1459 C1475 1.349 . S
C1460 C1458 1.327 . S
C1460 C1479 1.429 . S
C1460 H1484 0.950 . S
C1461 C1478 1.574 . S
C1461 C1480 1.368 . S
C1461 H1485 0.949 . S
H1462 C1466 0.949 . S
C1463 C1464 1.349 . S
C1463 C1465 1.327 . S
C1463 H1486 0.950 . S
C1464 C1463 1.349 . S
C1464 C1476 1.349 . S
C1465 C1463 1.327 . S
C1465 C1481 1.429 . S
C1465 H1487 0.950 . S
C1466 H1462 0.949 . S
C1466 C1474 1.574 . S
C1466 C1482 1.368 . S
H1467 C1475 0.950 . S
H1468 C1473 0.950 . S
H1469 C1474 0.949 . S
H1470 C1476 0.950 . S
H1471 C1477 0.950 . S
H1472 C1478 0.949 . S
C1473 H1468 0.950 . S
C1473 C1475 1.327 . S
C1473 C1479 1.429 . S
C1474 C1466 1.574 . S
C1474 H1469 0.949 . S
C1474 C1480 1.368 . S
C1475 C1459 1.349 . S
C1475 H1467 0.950 . S
C1475 C1473 1.327 . S
C1476 C1464 1.349 . S
C1476 H1470 0.950 . S
C1476 C1477 1.327 . S
C1477 H1471 0.950 . S
C1477 C1476 1.327 . S
C1477 C1481 1.429 . S
C1478 C1461 1.574 . S
C1478 H1472 0.949 . S
C1478 C1482 1.368 . S
C1479 C1460 1.429 . S
C1479 C1473 1.429 . S
C1479 C1480 1.523 . S
C1480 C1461 1.368 . S
C1480 C1474 1.368 . S
C1480 C1479 1.523 . S
C1481 C1465 1.429 . S
C1481 C1477 1.429 . S
C1481 C1482 1.523 . S
C1482 C1466 1.368 . S
C1482 C1478 1.368 . S
C1482 C1481 1.523 . S
H1483 C1458 0.950 . S
H1484 C1460 0.950 . S
H1485 C1461 0.949 . S
H1486 C1463 0.950 . S
H1487 C1465 0.950 . S
C1488 C1489 1.349 . S
C1488 C1490 1.327 . S
C1488 H1513 0.950 . S
C1489 C1488 1.349 . S
C1489 C1505 1.349 . S
C1490 C1488 1.327 . S
C1490 C1509 1.429 . S
C1490 H1514 0.950 . S
C1491 C1508 1.574 . S
C1491 C1510 1.368 . S
C1491 H1515 0.949 . S
H1492 C1496 0.949 . S
C1493 C1494 1.349 . S
C1493 C1495 1.327 . S
C1493 H1516 0.950 . S
C1494 C1493 1.349 . S
C1494 C1506 1.349 . S
C1495 C1493 1.327 . S
C1495 C1511 1.429 . S
C1495 H1517 0.950 . S
C1496 H1492 0.949 . S
C1496 C1504 1.574 . S
C1496 C1512 1.368 . S
H1497 C1505 0.950 . S
H1498 C1503 0.950 . S
H1499 C1504 0.949 . S
H1500 C1506 0.950 . S
H1501 C1507 0.950 . S
H1502 C1508 0.949 . S
C1503 H1498 0.950 . S
C1503 C1505 1.327 . S
C1503 C1509 1.429 . S
C1504 C1496 1.574 . S
C1504 H1499 0.949 . S
C1504 C1510 1.368 . S
C1505 C1489 1.349 . S
C1505 H1497 0.950 . S
C1505 C1503 1.327 . S
C1506 C1494 1.349 . S
C1506 H1500 0.950 . S
C1506 C1507 1.327 . S
C1507 H1501 0.950 . S
C1507 C1506 1.327 . S
C1507 C1511 1.429 . S
C1508 C1491 1.574 . S
C1508 H1502 0.949 . S
C1508 C1512 1.368 . S
C1509 C1490 1.429 . S
C1509 C1503 1.429 . S
C1509 C1510 1.523 . S
C1510 C1491 1.368 . S
C1510 C1504 1.368 . S
C1510 C1509 1.523 . S
C1511 C1495 1.429 . S
C1511 C1507 1.429 . S
C1511 C1512 1.523 . S
C1512 C1496 1.368 . S
C1512 C1508 1.368 . S
C1512 C1511 1.523 . S
H1513 C1488 0.950 . S
H1514 C1490 0.950 . S
H1515 C1491 0.949 . S
H1516 C1493 0.950 . S
H1517 C1495 0.950 . S
C1518 C1519 1.349 . S
C1518 C1520 1.327 . S
C1518 H1543 0.950 . S
C1519 C1518 1.349 . S
C1519 C1535 1.349 . S
C1520 C1518 1.327 . S
C1520 C1539 1.429 . S
C1520 H1544 0.950 . S
C1521 C1538 1.574 . S
C1521 C1540 1.368 . S
C1521 H1545 0.949 . S
H1522 C1526 0.949 . S
C1523 C1524 1.349 . S
C1523 C1525 1.327 . S
C1523 H1546 0.950 . S
C1524 C1523 1.349 . S
C1524 C1536 1.349 . S
C1525 C1523 1.327 . S
C1525 C1541 1.429 . S
C1525 H1547 0.950 . S
C1526 H1522 0.949 . S
C1526 C1534 1.574 . S
C1526 C1542 1.368 . S
H1527 C1535 0.950 . S
H1528 C1533 0.950 . S
H1529 C1534 0.949 . S
H1530 C1536 0.950 . S
H1531 C1537 0.950 . S
H1532 C1538 0.949 . S
C1533 H1528 0.950 . S
C1533 C1535 1.327 . S
C1533 C1539 1.429 . S
C1534 C1526 1.574 . S
C1534 H1529 0.949 . S
C1534 C1540 1.368 . S
C1535 C1519 1.349 . S
C1535 H1527 0.950 . S
C1535 C1533 1.327 . S
C1536 C1524 1.349 . S
C1536 H1530 0.950 . S
C1536 C1537 1.327 . S
C1537 H1531 0.950 . S
C1537 C1536 1.327 . S
C1537 C1541 1.429 . S
C1538 C1521 1.574 . S
C1538 H1532 0.949 . S
C1538 C1542 1.368 . S
C1539 C1520 1.429 . S
C1539 C1533 1.429 . S
C1539 C1540 1.523 . S
C1540 C1521 1.368 . S
C1540 C1534 1.368 . S
C1540 C1539 1.523 . S
C1541 C1525 1.429 . S
C1541 C1537 1.429 . S
C1541 C1542 1.523 . S
C1542 C1526 1.368 . S
C1542 C1538 1.368 . S
C1542 C1541 1.523 . S
H1543 C1518 0.950 . S
H1544 C1520 0.950 . S
H1545 C1521 0.949 . S
H1546 C1523 0.950 . S
H1547 C1525 0.950 . S
C1548 C1549 1.349 . S
C1548 C1550 1.327 . S
C1548 H1573 0.950 . S
C1549 C1548 1.349 . S
C1549 C1565 1.349 . S
C1550 C1548 1.327 . S
C1550 C1569 1.429 . S
C1550 H1574 0.950 . S
C1551 C1568 1.574 . S
C1551 C1570 1.368 1_545 S
C1551 H1575 0.949 . S
H1552 C1556 0.949 . S
C1553 C1554 1.349 . S
C1553 C1555 1.327 . S
C1553 H1576 0.950 . S
C1554 C1553 1.349 . S
C1554 C1566 1.349 . S
C1555 C1553 1.327 . S
C1555 C1571 1.429 . S
C1555 H1577 0.950 . S
C1556 H1552 0.949 . S
C1556 C1564 1.574 . S
C1556 C1572 1.368 1_565 S
H1557 C1565 0.950 . S
H1558 C1563 0.950 . S
H1559 C1564 0.949 . S
H1560 C1566 0.950 . S
H1561 C1567 0.950 . S
H1562 C1568 0.949 . S
C1563 H1558 0.950 . S
C1563 C1565 1.327 . S
C1563 C1569 1.429 . S
C1564 C1556 1.574 . S
C1564 H1559 0.949 . S
C1564 C1570 1.368 1_554 S
C1565 C1549 1.349 . S
C1565 H1557 0.950 . S
C1565 C1563 1.327 . S
C1566 C1554 1.349 . S
C1566 H1560 0.950 . S
C1566 C1567 1.327 . S
C1567 H1561 0.950 . S
C1567 C1566 1.327 . S
C1567 C1571 1.429 . S
C1568 C1551 1.574 . S
C1568 H1562 0.949 . S
C1568 C1572 1.368 1_556 S
C1569 C1550 1.429 . S
C1569 C1563 1.429 . S
C1569 C1570 1.523 . S
C1570 C1551 1.368 1_565 S
C1570 C1564 1.368 1_556 S
C1570 C1569 1.523 . S
C1571 C1555 1.429 . S
C1571 C1567 1.429 . S
C1571 C1572 1.523 . S
C1572 C1556 1.368 1_545 S
C1572 C1568 1.368 1_554 S
C1572 C1571 1.523 . S
H1573 C1548 0.950 . S
H1574 C1550 0.950 . S
H1575 C1551 0.949 . S
H1576 C1553 0.950 . S
H1577 C1555 0.950 . S
C1578 C1579 1.349 . S
C1578 C1580 1.327 . S
C1578 H1603 0.950 . S
C1579 C1578 1.349 . S
C1579 C1595 1.349 . S
C1580 C1578 1.327 . S
C1580 C1599 1.429 . S
C1580 H1604 0.950 . S
C1581 C1598 1.574 . S
C1581 C1600 1.368 . S
C1581 H1605 0.949 . S
H1582 C1586 0.949 . S
C1583 C1584 1.349 . S
C1583 C1585 1.327 . S
C1583 H1606 0.950 . S
C1584 C1583 1.349 . S
C1584 C1596 1.349 . S
C1585 C1583 1.327 . S
C1585 C1601 1.429 . S
C1585 H1607 0.950 . S
C1586 H1582 0.949 . S
C1586 C1594 1.574 . S
C1586 C1602 1.368 . S
H1587 C1595 0.950 . S
H1588 C1593 0.950 . S
H1589 C1594 0.949 . S
H1590 C1596 0.950 . S
H1591 C1597 0.950 . S
H1592 C1598 0.949 . S
C1593 H1588 0.950 . S
C1593 C1595 1.327 . S
C1593 C1599 1.429 . S
C1594 C1586 1.574 . S
C1594 H1589 0.949 . S
C1594 C1600 1.368 . S
C1595 C1579 1.349 . S
C1595 H1587 0.950 . S
C1595 C1593 1.327 . S
C1596 C1584 1.349 . S
C1596 H1590 0.950 . S
C1596 C1597 1.327 . S
C1597 H1591 0.950 . S
C1597 C1596 1.327 . S
C1597 C1601 1.429 . S
C1598 C1581 1.574 . S
C1598 H1592 0.949 . S
C1598 C1602 1.368 . S
C1599 C1580 1.429 . S
C1599 C1593 1.429 . S
C1599 C1600 1.523 . S
C1600 C1581 1.368 . S
C1600 C1594 1.368 . S
C1600 C1599 1.523 . S
C1601 C1585 1.429 . S
C1601 C1597 1.429 . S
C1601 C1602 1.523 . S
C1602 C1586 1.368 . S
C1602 C1598 1.368 . S
C1602 C1601 1.523 . S
H1603 C1578 0.950 . S
H1604 C1580 0.950 . S
H1605 C1581 0.949 . S
H1606 C1583 0.950 . S
H1607 C1585 0.950 . S
C1608 C1609 1.349 . S
C1608 C1610 1.327 . S
C1608 H1633 0.950 . S
C1609 C1608 1.349 . S
C1609 C1625 1.349 . S
C1610 C1608 1.327 . S
C1610 C1629 1.429 . S
C1610 H1634 0.950 . S
C1611 C1628 1.574 1_456 S
C1611 C1630 1.368 . S
C1611 H1635 0.949 . S
H1612 C1616 0.949 . S
C1613 C1614 1.349 . S
C1613 C1615 1.327 . S
C1613 H1636 0.950 . S
C1614 C1613 1.349 . S
C1614 C1626 1.349 . S
C1615 C1613 1.327 . S
C1615 C1631 1.429 . S
C1615 H1637 0.950 . S
C1616 H1612 0.949 . S
C1616 C1624 1.574 1_654 S
C1616 C1632 1.368 . S
H1617 C1625 0.950 . S
H1618 C1623 0.950 . S
H1619 C1624 0.949 . S
H1620 C1626 0.950 . S
H1621 C1627 0.950 . S
H1622 C1628 0.949 . S
C1623 H1618 0.950 . S
C1623 C1625 1.327 . S
C1623 C1629 1.429 . S
C1624 C1616 1.574 1_456 S
C1624 H1619 0.949 . S
C1624 C1630 1.368 . S
C1625 C1609 1.349 . S
C1625 H1617 0.950 . S
C1625 C1623 1.327 . S
C1626 C1614 1.349 . S
C1626 H1620 0.950 . S
C1626 C1627 1.327 . S
C1627 H1621 0.950 . S
C1627 C1626 1.327 . S
C1627 C1631 1.429 . S
C1628 C1611 1.574 1_654 S
C1628 H1622 0.949 . S
C1628 C1632 1.368 . S
C1629 C1610 1.429 . S
C1629 C1623 1.429 . S
C1629 C1630 1.523 . S
C1630 C1611 1.368 . S
C1630 C1624 1.368 . S
C1630 C1629 1.523 . S
C1631 C1615 1.429 . S
C1631 C1627 1.429 . S
C1631 C1632 1.523 . S
C1632 C1616 1.368 . S
C1632 C1628 1.368 . S
C1632 C1631 1.523 . S
H1633 C1608 0.950 . S
H1634 C1610 0.950 . S
H1635 C1611 0.949 . S
H1636 C1613 0.950 . S
H1637 C1615 0.950 . S
C1638 C1639 1.349 . S
C1638 C1640 1.327 . S
C1638 H1663 0.950 . S
C1639 C1638 1.349 . S
C1639 C1655 1.349 . S
C1640 C1638 1.327 . S
C1640 C1659 1.429 . S
C1640 H1664 0.950 . S
C1641 C1658 1.574 . S
C1641 C1660 1.368 . S
C1641 H1665 0.949 . S
H1642 C1646 0.949 . S
C1643 C1644 1.349 . S
C1643 C1645 1.327 . S
C1643 H1666 0.950 . S
C1644 C1643 1.349 . S
C1644 C1656 1.349 . S
C1645 C1643 1.327 . S
C1645 C1661 1.429 . S
C1645 H1667 0.950 . S
C1646 H1642 0.949 . S
C1646 C1654 1.574 . S
C1646 C1662 1.368 . S
H1647 C1655 0.950 . S
H1648 C1653 0.950 . S
H1649 C1654 0.949 . S
H1650 C1656 0.950 . S
H1651 C1657 0.950 . S
H1652 C1658 0.949 . S
C1653 H1648 0.950 . S
C1653 C1655 1.327 . S
C1653 C1659 1.429 . S
C1654 C1646 1.574 . S
C1654 H1649 0.949 . S
C1654 C1660 1.368 1_565 S
C1655 C1639 1.349 . S
C1655 H1647 0.950 . S
C1655 C1653 1.327 . S
C1656 C1644 1.349 . S
C1656 H1650 0.950 . S
C1656 C1657 1.327 . S
C1657 H1651 0.950 . S
C1657 C1656 1.327 . S
C1657 C1661 1.429 . S
C1658 C1641 1.574 . S
C1658 H1652 0.949 . S
C1658 C1662 1.368 1_545 S
C1659 C1640 1.429 . S
C1659 C1653 1.429 . S
C1659 C1660 1.523 . S
C1660 C1641 1.368 . S
C1660 C1654 1.368 1_545 S
C1660 C1659 1.523 . S
C1661 C1645 1.429 . S
C1661 C1657 1.429 . S
C1661 C1662 1.523 . S
C1662 C1646 1.368 . S
C1662 C1658 1.368 1_565 S
C1662 C1661 1.523 . S
H1663 C1638 0.950 . S
H1664 C1640 0.950 . S
H1665 C1641 0.949 . S
H1666 C1643 0.950 . S
H1667 C1645 0.950 . S
C1668 C1669 1.349 . S
C1668 C1670 1.327 . S
C1668 H1693 0.950 . S
C1669 C1668 1.349 . S
C1669 C1685 1.349 . S
C1670 C1668 1.327 . S
C1670 C1689 1.429 . S
C1670 H1694 0.950 . S
C1671 C1688 1.574 1_554 S
C1671 C1690 1.368 . S
C1671 H1695 0.949 . S
H1672 C1676 0.949 . S
C1673 C1674 1.349 . S
C1673 C1675 1.327 . S
C1673 H1696 0.950 . S
C1674 C1673 1.349 . S
C1674 C1686 1.349 . S
C1675 C1673 1.327 . S
C1675 C1691 1.429 . S
C1675 H1697 0.950 . S
C1676 H1672 0.949 . S
C1676 C1684 1.574 1_556 S
C1676 C1692 1.368 . S
H1677 C1685 0.950 . S
H1678 C1683 0.950 . S
H1679 C1684 0.949 . S
H1680 C1686 0.950 . S
H1681 C1687 0.950 . S
H1682 C1688 0.949 . S
C1683 H1678 0.950 . S
C1683 C1685 1.327 . S
C1683 C1689 1.429 . S
C1684 C1676 1.574 1_554 S
C1684 H1679 0.949 . S
C1684 C1690 1.368 . S
C1685 C1669 1.349 . S
C1685 H1677 0.950 . S
C1685 C1683 1.327 . S
C1686 C1674 1.349 . S
C1686 H1680 0.950 . S
C1686 C1687 1.327 . S
C1687 H1681 0.950 . S
C1687 C1686 1.327 . S
C1687 C1691 1.429 . S
C1688 C1671 1.574 1_556 S
C1688 H1682 0.949 . S
C1688 C1692 1.368 . S
C1689 C1670 1.429 . S
C1689 C1683 1.429 . S
C1689 C1690 1.523 . S
C1690 C1671 1.368 . S
C1690 C1684 1.368 . S
C1690 C1689 1.523 . S
C1691 C1675 1.429 . S
C1691 C1687 1.429 . S
C1691 C1692 1.523 . S
C1692 C1676 1.368 . S
C1692 C1688 1.368 . S
C1692 C1691 1.523 . S
H1693 C1668 0.950 . S
H1694 C1670 0.950 . S
H1695 C1671 0.949 . S
H1696 C1673 0.950 . S
H1697 C1675 0.950 . S
C1698 C1699 1.349 . S
C1698 C1700 1.327 . S
C1698 H1723 0.950 . S
C1699 C1698 1.349 . S
C1699 C1715 1.349 . S
C1700 C1698 1.327 . S
C1700 C1719 1.429 . S
C1700 H1724 0.950 . S
C1701 C1718 1.574 1_455 S
C1701 C1720 1.368 . S
C1701 H1725 0.949 . S
H1702 C1706 0.949 . S
C1703 C1704 1.349 . S
C1703 C1705 1.327 . S
C1703 H1726 0.950 . S
C1704 C1703 1.349 . S
C1704 C1716 1.349 . S
C1705 C1703 1.327 . S
C1705 C1721 1.429 . S
C1705 H1727 0.950 . S
C1706 H1702 0.949 . S
C1706 C1714 1.574 1_655 S
C1706 C1722 1.368 . S
H1707 C1715 0.950 . S
H1708 C1713 0.950 . S
H1709 C1714 0.949 . S
H1710 C1716 0.950 . S
H1711 C1717 0.950 . S
H1712 C1718 0.949 . S
C1713 H1708 0.950 . S
C1713 C1715 1.327 . S
C1713 C1719 1.429 . S
C1714 C1706 1.574 1_455 S
C1714 H1709 0.949 . S
C1714 C1720 1.368 . S
C1715 C1699 1.349 . S
C1715 H1707 0.950 . S
C1715 C1713 1.327 . S
C1716 C1704 1.349 . S
C1716 H1710 0.950 . S
C1716 C1717 1.327 . S
C1717 H1711 0.950 . S
C1717 C1716 1.327 . S
C1717 C1721 1.429 . S
C1718 C1701 1.574 1_655 S
C1718 H1712 0.949 . S
C1718 C1722 1.368 . S
C1719 C1700 1.429 . S
C1719 C1713 1.429 . S
C1719 C1720 1.523 . S
C1720 C1701 1.368 . S
C1720 C1714 1.368 . S
C1720 C1719 1.523 . S
C1721 C1705 1.429 . S
C1721 C1717 1.429 . S
C1721 C1722 1.523 . S
C1722 C1706 1.368 . S
C1722 C1718 1.368 . S
C1722 C1721 1.523 . S
H1723 C1698 0.950 . S
H1724 C1700 0.950 . S
H1725 C1701 0.949 . S
H1726 C1703 0.950 . S
H1727 C1705 0.950 . S
C1728 C1729 1.349 . S
C1728 C1730 1.327 . S
C1728 H1753 0.950 . S
C1729 C1728 1.349 . S
C1729 C1745 1.349 . S
C1730 C1728 1.327 . S
C1730 C1749 1.429 . S
C1730 H1754 0.950 . S
C1731 C1748 1.574 . S
C1731 C1750 1.368 . S
C1731 H1755 0.949 . S
H1732 C1736 0.949 . S
C1733 C1734 1.349 . S
C1733 C1735 1.327 . S
C1733 H1756 0.950 . S
C1734 C1733 1.349 . S
C1734 C1746 1.349 . S
C1735 C1733 1.327 . S
C1735 C1751 1.429 . S
C1735 H1757 0.950 . S
C1736 H1732 0.949 . S
C1736 C1744 1.574 . S
C1736 C1752 1.368 . S
H1737 C1745 0.950 . S
H1738 C1743 0.950 . S
H1739 C1744 0.949 . S
H1740 C1746 0.950 . S
H1741 C1747 0.950 . S
H1742 C1748 0.949 . S
C1743 H1738 0.950 . S
C1743 C1745 1.327 . S
C1743 C1749 1.429 . S
C1744 C1736 1.574 . S
C1744 H1739 0.949 . S
C1744 C1750 1.368 . S
C1745 C1729 1.349 . S
C1745 H1737 0.950 . S
C1745 C1743 1.327 . S
C1746 C1734 1.349 . S
C1746 H1740 0.950 . S
C1746 C1747 1.327 . S
C1747 H1741 0.950 . S
C1747 C1746 1.327 . S
C1747 C1751 1.429 . S
C1748 C1731 1.574 . S
C1748 H1742 0.949 . S
C1748 C1752 1.368 . S
C1749 C1730 1.429 . S
C1749 C1743 1.429 . S
C1749 C1750 1.523 . S
C1750 C1731 1.368 . S
C1750 C1744 1.368 . S
C1750 C1749 1.523 . S
C1751 C1735 1.429 . S
C1751 C1747 1.429 . S
C1751 C1752 1.523 . S
C1752 C1736 1.368 . S
C1752 C1748 1.368 . S
C1752 C1751 1.523 . S
H1753 C1728 0.950 . S
H1754 C1730 0.950 . S
H1755 C1731 0.949 . S
H1756 C1733 0.950 . S
H1757 C1735 0.950 . S
C1758 C1759 1.349 . S
C1758 C1760 1.327 . S
C1758 H1783 0.950 . S
C1759 C1758 1.349 . S
C1759 C1775 1.349 . S
C1760 C1758 1.327 . S
C1760 C1779 1.429 . S
C1760 H1784 0.950 . S
C1761 C1778 1.574 . S
C1761 C1780 1.368 . S
C1761 H1785 0.949 . S
H1762 C1766 0.949 . S
C1763 C1764 1.349 . S
C1763 C1765 1.327 . S
C1763 H1786 0.950 . S
C1764 C1763 1.349 . S
C1764 C1776 1.349 . S
C1765 C1763 1.327 . S
C1765 C1781 1.429 . S
C1765 H1787 0.950 . S
C1766 H1762 0.949 . S
C1766 C1774 1.574 . S
C1766 C1782 1.368 . S
H1767 C1775 0.950 . S
H1768 C1773 0.950 . S
H1769 C1774 0.949 . S
H1770 C1776 0.950 . S
H1771 C1777 0.950 . S
H1772 C1778 0.949 . S
C1773 H1768 0.950 . S
C1773 C1775 1.327 . S
C1773 C1779 1.429 . S
C1774 C1766 1.574 . S
C1774 H1769 0.949 . S
C1774 C1780 1.368 . S
C1775 C1759 1.349 . S
C1775 H1767 0.950 . S
C1775 C1773 1.327 . S
C1776 C1764 1.349 . S
C1776 H1770 0.950 . S
C1776 C1777 1.327 . S
C1777 H1771 0.950 . S
C1777 C1776 1.327 . S
C1777 C1781 1.429 . S
C1778 C1761 1.574 . S
C1778 H1772 0.949 . S
C1778 C1782 1.368 . S
C1779 C1760 1.429 . S
C1779 C1773 1.429 . S
C1779 C1780 1.523 . S
C1780 C1761 1.368 . S
C1780 C1774 1.368 . S
C1780 C1779 1.523 . S
C1781 C1765 1.429 . S
C1781 C1777 1.429 . S
C1781 C1782 1.523 . S
C1782 C1766 1.368 . S
C1782 C1778 1.368 . S
C1782 C1781 1.523 . S
H1783 C1758 0.950 . S
H1784 C1760 0.950 . S
H1785 C1761 0.949 . S
H1786 C1763 0.950 . S
H1787 C1765 0.950 . S
C1788 C1789 1.349 . S
C1788 C1790 1.327 . S
C1788 H1813 0.950 . S
C1789 C1788 1.349 . S
C1789 C1805 1.349 . S
C1790 C1788 1.327 . S
C1790 C1809 1.429 . S
C1790 H1814 0.950 . S
C1791 C1808 1.574 . S
C1791 C1810 1.368 . S
C1791 H1815 0.949 . S
H1792 C1796 0.949 . S
C1793 C1794 1.349 . S
C1793 C1795 1.327 . S
C1793 H1816 0.950 . S
C1794 C1793 1.349 . S
C1794 C1806 1.349 . S
C1795 C1793 1.327 . S
C1795 C1811 1.429 . S
C1795 H1817 0.950 . S
C1796 H1792 0.949 . S
C1796 C1804 1.574 . S
C1796 C1812 1.368 . S
H1797 C1805 0.950 . S
H1798 C1803 0.950 . S
H1799 C1804 0.949 . S
H1800 C1806 0.950 . S
H1801 C1807 0.950 . S
H1802 C1808 0.949 . S
C1803 H1798 0.950 . S
C1803 C1805 1.327 . S
C1803 C1809 1.429 . S
C1804 C1796 1.574 . S
C1804 H1799 0.949 . S
C1804 C1810 1.368 . S
C1805 C1789 1.349 . S
C1805 H1797 0.950 . S
C1805 C1803 1.327 . S
C1806 C1794 1.349 . S
C1806 H1800 0.950 . S
C1806 C1807 1.327 . S
C1807 H1801 0.950 . S
C1807 C1806 1.327 . S
C1807 C1811 1.429 . S
C1808 C1791 1.574 . S
C1808 H1802 0.949 . S
C1808 C1812 1.368 . S
C1809 C1790 1.429 . S
C1809 C1803 1.429 . S
C1809 C1810 1.523 . S
C1810 C1791 1.368 . S
C1810 C1804 1.368 . S
C1810 C1809 1.523 . S
C1811 C1795 1.429 . S
C1811 C1807 1.429 . S
C1811 C1812 1.523 . S
C1812 C1796 1.368 . S
C1812 C1808 1.368 . S
C1812 C1811 1.523 . S
H1813 C1788 0.950 . S
H1814 C1790 0.950 . S
H1815 C1791 0.949 . S
H1816 C1793 0.950 . S
H1817 C1795 0.950 . S
C1818 C1819 1.349 . S
C1818 C1820 1.327 . S
C1818 H1843 0.950 . S
C1819 C1818 1.349 . S
C1819 C1835 1.349 . S
C1820 C1818 1.327 . S
C1820 C1839 1.429 . S
C1820 H1844 0.950 . S
C1821 C1838 1.574 . S
C1821 C1840 1.368 . S
C1821 H1845 0.949 . S
H1822 C1826 0.949 . S
C1823 C1824 1.349 . S
C1823 C1825 1.327 . S
C1823 H1846 0.950 . S
C1824 C1823 1.349 . S
C1824 C1836 1.349 . S
C1825 C1823 1.327 . S
C1825 C1841 1.429 . S
C1825 H1847 0.950 . S
C1826 H1822 0.949 . S
C1826 C1834 1.574 . S
C1826 C1842 1.368 . S
H1827 C1835 0.950 . S
H1828 C1833 0.950 . S
H1829 C1834 0.949 . S
H1830 C1836 0.950 . S
H1831 C1837 0.950 . S
H1832 C1838 0.949 . S
C1833 H1828 0.950 . S
C1833 C1835 1.327 . S
C1833 C1839 1.429 . S
C1834 C1826 1.574 . S
C1834 H1829 0.949 . S
C1834 C1840 1.368 . S
C1835 C1819 1.349 . S
C1835 H1827 0.950 . S
C1835 C1833 1.327 . S
C1836 C1824 1.349 . S
C1836 H1830 0.950 . S
C1836 C1837 1.327 . S
C1837 H1831 0.950 . S
C1837 C1836 1.327 . S
C1837 C1841 1.429 . S
C1838 C1821 1.574 . S
C1838 H1832 0.949 . S
C1838 C1842 1.368 . S
C1839 C1820 1.429 . S
C1839 C1833 1.429 . S
C1839 C1840 1.523 . S
C1840 C1821 1.368 . S
C1840 C1834 1.368 . S
C1840 C1839 1.523 . S
C1841 C1825 1.429 . S
C1841 C1837 1.429 . S
C1841 C1842 1.523 . S
C1842 C1826 1.368 . S
C1842 C1838 1.368 . S
C1842 C1841 1.523 . S
H1843 C1818 0.950 . S
H1844 C1820 0.950 . S
H1845 C1821 0.949 . S
H1846 C1823 0.950 . S
H1847 C1825 0.950 . S
C1848 C1849 1.349 . S
C1848 C1850 1.327 . S
C1848 H1873 0.950 . S
C1849 C1848 1.349 . S
C1849 C1865 1.349 . S
C1850 C1848 1.327 . S
C1850 C1869 1.429 . S
C1850 H1874 0.950 . S
C1851 C1868 1.574 . S
C1851 C1870 1.368 . S
C1851 H1875 0.949 . S
H1852 C1856 0.949 . S
C1853 C1854 1.349 . S
C1853 C1855 1.327 . S
C1853 H1876 0.950 . S
C1854 C1853 1.349 . S
C1854 C1866 1.349 . S
C1855 C1853 1.327 . S
C1855 C1871 1.429 . S
C1855 H1877 0.950 . S
C1856 H1852 0.949 . S
C1856 C1864 1.574 . S
C1856 C1872 1.368 . S
H1857 C1865 0.950 . S
H1858 C1863 0.950 . S
H1859 C1864 0.949 . S
H1860 C1866 0.950 . S
H1861 C1867 0.950 . S
H1862 C1868 0.949 . S
C1863 H1858 0.950 . S
C1863 C1865 1.327 . S
C1863 C1869 1.429 . S
C1864 C1856 1.574 . S
C1864 H1859 0.949 . S
C1864 C1870 1.368 . S
C1865 C1849 1.349 . S
C1865 H1857 0.950 . S
C1865 C1863 1.327 . S
C1866 C1854 1.349 . S
C1866 H1860 0.950 . S
C1866 C1867 1.327 . S
C1867 H1861 0.950 . S
C1867 C1866 1.327 . S
C1867 C1871 1.429 . S
C1868 C1851 1.574 . S
C1868 H1862 0.949 . S
C1868 C1872 1.368 . S
C1869 C1850 1.429 . S
C1869 C1863 1.429 . S
C1869 C1870 1.523 . S
C1870 C1851 1.368 . S
C1870 C1864 1.368 . S
C1870 C1869 1.523 . S
C1871 C1855 1.429 . S
C1871 C1867 1.429 . S
C1871 C1872 1.523 . S
C1872 C1856 1.368 . S
C1872 C1868 1.368 . S
C1872 C1871 1.523 . S
H1873 C1848 0.950 . S
H1874 C1850 0.950 . S
H1875 C1851 0.949 . S
H1876 C1853 0.950 . S
H1877 C1855 0.950 . S
C1878 C1879 1.349 . S
C1878 C1880 1.327 . S
C1878 H1903 0.950 . S
C1879 C1878 1.349 . S
C1879 C1895 1.349 . S
C1880 C1878 1.327 . S
C1880 C1899 1.429 . S
C1880 H1904 0.950 . S
C1881 C1898 1.574 . S
C1881 C1900 1.368 . S
C1881 H1905 0.949 . S
H1882 C1886 0.949 . S
C1883 C1884 1.349 . S
C1883 C1885 1.327 . S
C1883 H1906 0.950 . S
C1884 C1883 1.349 . S
C1884 C1896 1.349 . S
C1885 C1883 1.327 . S
C1885 C1901 1.429 . S
C1885 H1907 0.950 . S
C1886 H1882 0.949 . S
C1886 C1894 1.574 . S
C1886 C1902 1.368 . S
H1887 C1895 0.950 . S
H1888 C1893 0.950 . S
H1889 C1894 0.949 . S
H1890 C1896 0.950 . S
H1891 C1897 0.950 . S
H1892 C1898 0.949 . S
C1893 H1888 0.950 . S
C1893 C1895 1.327 . S
C1893 C1899 1.429 . S
C1894 C1886 1.574 . S
C1894 H1889 0.949 . S
C1894 C1900 1.368 . S
C1895 C1879 1.349 . S
C1895 H1887 0.950 . S
C1895 C1893 1.327 . S
C1896 C1884 1.349 . S
C1896 H1890 0.950 . S
C1896 C1897 1.327 . S
C1897 H1891 0.950 . S
C1897 C1896 1.327 . S
C1897 C1901 1.429 . S
C1898 C1881 1.574 . S
C1898 H1892 0.949 . S
C1898 C1902 1.368 . S
C1899 C1880 1.429 . S
C1899 C1893 1.429 . S
C1899 C1900 1.523 . S
C1900 C1881 1.368 . S
C1900 C1894 1.368 . S
C1900 C1899 1.523 . S
C1901 C1885 1.429 . S
C1901 C1897 1.429 . S
C1901 C1902 1.523 . S
C1902 C1886 1.368 . S
C1902 C1898 1.368 . S
C1902 C1901 1.523 . S
H1903 C1878 0.950 . S
H1904 C1880 0.950 . S
H1905 C1881 0.949 . S
H1906 C1883 0.950 . S
H1907 C1885 0.950 . S
C1908 C1909 1.349 . S
C1908 C1910 1.327 . S
C1908 H1933 0.950 . S
C1909 C1908 1.349 . S
C1909 C1925 1.349 . S
C1910 C1908 1.327 . S
C1910 C1929 1.429 . S
C1910 H1934 0.950 . S
C1911 C1928 1.574 . S
C1911 C1930 1.368 . S
C1911 H1935 0.949 . S
H1912 C1916 0.949 . S
C1913 C1914 1.349 . S
C1913 C1915 1.327 . S
C1913 H1936 0.950 . S
C1914 C1913 1.349 . S
C1914 C1926 1.349 . S
C1915 C1913 1.327 . S
C1915 C1931 1.429 . S
C1915 H1937 0.950 . S
C1916 H1912 0.949 . S
C1916 C1924 1.574 . S
C1916 C1932 1.368 . S
H1917 C1925 0.950 . S
H1918 C1923 0.950 . S
H1919 C1924 0.949 . S
H1920 C1926 0.950 . S
H1921 C1927 0.950 . S
H1922 C1928 0.949 . S
C1923 H1918 0.950 . S
C1923 C1925 1.327 . S
C1923 C1929 1.429 . S
C1924 C1916 1.574 . S
C1924 H1919 0.949 . S
C1924 C1930 1.368 . S
C1925 C1909 1.349 . S
C1925 H1917 0.950 . S
C1925 C1923 1.327 . S
C1926 C1914 1.349 . S
C1926 H1920 0.950 . S
C1926 C1927 1.327 . S
C1927 H1921 0.950 . S
C1927 C1926 1.327 . S
C1927 C1931 1.429 . S
C1928 C1911 1.574 . S
C1928 H1922 0.949 . S
C1928 C1932 1.368 . S
C1929 C1910 1.429 . S
C1929 C1923 1.429 . S
C1929 C1930 1.523 . S
C1930 C1911 1.368 . S
C1930 C1924 1.368 . S
C1930 C1929 1.523 . S
C1931 C1915 1.429 . S
C1931 C1927 1.429 . S
C1931 C1932 1.523 . S
C1932 C1916 1.368 . S
C1932 C1928 1.368 . S
C1932 C1931 1.523 . S
H1933 C1908 0.950 . S
H1934 C1910 0.950 . S
H1935 C1911 0.949 . S
H1936 C1913 0.950 . S
H1937 C1915 0.950 . S
C1938 C1939 1.349 . S
C1938 C1940 1.327 . S
C1938 H1963 0.950 . S
C1939 C1938 1.349 . S
C1939 C1955 1.349 . S
C1940 C1938 1.327 . S
C1940 C1959 1.429 . S
C1940 H1964 0.950 . S
C1941 C1958 1.574 . S
C1941 C1960 1.368 . S
C1941 H1965 0.949 . S
H1942 C1946 0.949 . S
C1943 C1944 1.349 . S
C1943 C1945 1.327 . S
C1943 H1966 0.950 . S
C1944 C1943 1.349 . S
C1944 C1956 1.349 . S
C1945 C1943 1.327 . S
C1945 C1961 1.429 . S
C1945 H1967 0.950 . S
C1946 H1942 0.949 . S
C1946 C1954 1.574 . S
C1946 C1962 1.368 . S
H1947 C1955 0.950 . S
H1948 C1953 0.950 . S
H1949 C1954 0.949 . S
H1950 C1956 0.950 . S
H1951 C1957 0.950 . S
H1952 C1958 0.949 . S
C1953 H1948 0.950 . S
C1953 C1955 1.327 . S
C1953 C1959 1.429 . S
C1954 C1946 1.574 . S
C1954 H1949 0.949 . S
C1954 C1960 1.368 . S
C1955 C1939 1.349 . S
C1955 H1947 0.950 . S
C1955 C1953 1.327 . S
C1956 C1944 1.349 . S
C1956 H1950 0.950 . S
C1956 C1957 1.327 . S
C1957 H1951 0.950 . S
C1957 C1956 1.327 . S
C1957 C1961 1.429 . S
C1958 C1941 1.574 . S
C1958 H1952 0.949 . S
C1958 C1962 1.368 . S
C1959 C1940 1.429 . S
C1959 C1953 1.429 . S
C1959 C1960 1.523 . S
C1960 C1941 1.368 . S
C1960 C1954 1.368 . S
C1960 C1959 1.523 . S
C1961 C1945 1.429 . S
C1961 C1957 1.429 . S
C1961 C1962 1.523 . S
C1962 C1946 1.368 . S
C1962 C1958 1.368 . S
C1962 C1961 1.523 . S
H1963 C1938 0.950 . S
H1964 C1940 0.950 . S
H1965 C1941 0.949 . S
H1966 C1943 0.950 . S
H1967 C1945 0.950 . S
C1968 C1969 1.349 . S
C1968 C1970 1.327 . S
C1968 H1993 0.950 . S
C1969 C1968 1.349 . S
C1969 C1985 1.349 . S
C1970 C1968 1.327 . S
C1970 C1989 1.429 . S
C1970 H1994 0.950 . S
C1971 C1988 1.574 . S
C1971 C1990 1.368 . S
C1971 H1995 0.949 . S
H1972 C1976 0.949 . S
C1973 C1974 1.349 . S
C1973 C1975 1.327 . S
C1973 H1996 0.950 . S
C1974 C1973 1.349 . S
C1974 C1986 1.349 . S
C1975 C1973 1.327 . S
C1975 C1991 1.429 . S
C1975 H1997 0.950 . S
C1976 H1972 0.949 . S
C1976 C1984 1.574 . S
C1976 C1992 1.368 . S
H1977 C1985 0.950 . S
H1978 C1983 0.950 . S
H1979 C1984 0.949 . S
H1980 C1986 0.950 . S
H1981 C1987 0.950 . S
H1982 C1988 0.949 . S
C1983 H1978 0.950 . S
C1983 C1985 1.327 . S
C1983 C1989 1.429 . S
C1984 C1976 1.574 . S
C1984 H1979 0.949 . S
C1984 C1990 1.368 . S
C1985 C1969 1.349 . S
C1985 H1977 0.950 . S
C1985 C1983 1.327 . S
C1986 C1974 1.349 . S
C1986 H1980 0.950 . S
C1986 C1987 1.327 . S
C1987 H1981 0.950 . S
C1987 C1986 1.327 . S
C1987 C1991 1.429 . S
C1988 C1971 1.574 . S
C1988 H1982 0.949 . S
C1988 C1992 1.368 . S
C1989 C1970 1.429 . S
C1989 C1983 1.429 . S
C1989 C1990 1.523 . S
C1990 C1971 1.368 . S
C1990 C1984 1.368 . S
C1990 C1989 1.523 . S
C1991 C1975 1.429 . S
C1991 C1987 1.429 . S
C1991 C1992 1.523 . S
C1992 C1976 1.368 . S
C1992 C1988 1.368 . S
C1992 C1991 1.523 . S
H1993 C1968 0.950 . S
H1994 C1970 0.950 . S
H1995 C1971 0.949 . S
H1996 C1973 0.950 . S
H1997 C1975 0.950 . S
C1998 C1999 1.349 . S
C1998 C2000 1.327 . S
C1998 H2023 0.950 . S
C1999 C1998 1.349 . S
C1999 C2015 1.349 . S
C2000 C1998 1.327 . S
C2000 C2019 1.429 . S
C2000 H2024 0.950 . S
C2001 C2018 1.574 . S
C2001 C2020 1.368 . S
C2001 H2025 0.949 . S
H2002 C2006 0.949 . S
C2003 C2004 1.349 . S
C2003 C2005 1.327 . S
C2003 H2026 0.950 . S
C2004 C2003 1.349 . S
C2004 C2016 1.349 . S
C2005 C2003 1.327 . S
C2005 C2021 1.429 . S
C2005 H2027 0.950 . S
C2006 H2002 0.949 . S
C2006 C2014 1.574 . S
C2006 C2022 1.368 . S
H2007 C2015 0.950 . S
H2008 C2013 0.950 . S
H2009 C2014 0.949 . S
H2010 C2016 0.950 . S
H2011 C2017 0.950 . S
H2012 C2018 0.949 . S
C2013 H2008 0.950 . S
C2013 C2015 1.327 . S
C2013 C2019 1.429 . S
C2014 C2006 1.574 . S
C2014 H2009 0.949 . S
C2014 C2020 1.368 . S
C2015 C1999 1.349 . S
C2015 H2007 0.950 . S
C2015 C2013 1.327 . S
C2016 C2004 1.349 . S
C2016 H2010 0.950 . S
C2016 C2017 1.327 . S
C2017 H2011 0.950 . S
C2017 C2016 1.327 . S
C2017 C2021 1.429 . S
C2018 C2001 1.574 . S
C2018 H2012 0.949 . S
C2018 C2022 1.368 . S
C2019 C2000 1.429 . S
C2019 C2013 1.429 . S
C2019 C2020 1.523 . S
C2020 C2001 1.368 . S
C2020 C2014 1.368 . S
C2020 C2019 1.523 . S
C2021 C2005 1.429 . S
C2021 C2017 1.429 . S
C2021 C2022 1.523 . S
C2022 C2006 1.368 . S
C2022 C2018 1.368 . S
C2022 C2021 1.523 . S
H2023 C1998 0.950 . S
H2024 C2000 0.950 . S
H2025 C2001 0.949 . S
H2026 C2003 0.950 . S
H2027 C2005 0.950 . S
C2028 C2029 1.349 . S
C2028 C2030 1.327 . S
C2028 H2053 0.950 . S
C2029 C2028 1.349 . S
C2029 C2045 1.349 . S
C2030 C2028 1.327 . S
C2030 C2049 1.429 . S
C2030 H2054 0.950 . S
C2031 C2048 1.574 . S
C2031 C2050 1.368 . S
C2031 H2055 0.949 . S
H2032 C2036 0.949 . S
C2033 C2034 1.349 . S
C2033 C2035 1.327 . S
C2033 H2056 0.950 . S
C2034 C2033 1.349 . S
C2034 C2046 1.349 . S
C2035 C2033 1.327 . S
C2035 C2051 1.429 . S
C2035 H2057 0.950 . S
C2036 H2032 0.949 . S
C2036 C2044 1.574 . S
C2036 C2052 1.368 . S
H2037 C2045 0.950 . S
H2038 C2043 0.950 . S
H2039 C2044 0.949 . S
H2040 C2046 0.950 . S
H2041 C2047 0.950 . S
H2042 C2048 0.949 . S
C2043 H2038 0.950 . S
C2043 C2045 1.327 . S
C2043 C2049 1.429 . S
C2044 C2036 1.574 . S
C2044 H2039 0.949 . S
C2044 C2050 1.368 . S
C2045 C2029 1.349 . S
C2045 H2037 0.950 . S
C2045 C2043 1.327 . S
C2046 C2034 1.349 . S
C2046 H2040 0.950 . S
C2046 C2047 1.327 . S
C2047 H2041 0.950 . S
C2047 C2046 1.327 . S
C2047 C2051 1.429 . S
C2048 C2031 1.574 . S
C2048 H2042 0.949 . S
C2048 C2052 1.368 . S
C2049 C2030 1.429 . S
C2049 C2043 1.429 . S
C2049 C2050 1.523 . S
C2050 C2031 1.368 . S
C2050 C2044 1.368 . S
C2050 C2049 1.523 . S
C2051 C2035 1.429 . S
C2051 C2047 1.429 . S
C2051 C2052 1.523 . S
C2052 C2036 1.368 . S
C2052 C2048 1.368 . S
C2052 C2051 1.523 . S
H2053 C2028 0.950 . S
H2054 C2030 0.950 . S
H2055 C2031 0.949 . S
H2056 C2033 0.950 . S
H2057 C2035 0.950 . S
C2058 C2059 1.349 . S
C2058 C2060 1.327 . S
C2058 H2083 0.950 . S
C2059 C2058 1.349 . S
C2059 C2075 1.349 . S
C2060 C2058 1.327 . S
C2060 C2079 1.429 . S
C2060 H2084 0.950 . S
C2061 C2078 1.574 . S
C2061 C2080 1.368 . S
C2061 H2085 0.949 . S
H2062 C2066 0.949 . S
C2063 C2064 1.349 . S
C2063 C2065 1.327 . S
C2063 H2086 0.950 . S
C2064 C2063 1.349 . S
C2064 C2076 1.349 . S
C2065 C2063 1.327 . S
C2065 C2081 1.429 . S
C2065 H2087 0.950 . S
C2066 H2062 0.949 . S
C2066 C2074 1.574 . S
C2066 C2082 1.368 . S
H2067 C2075 0.950 . S
H2068 C2073 0.950 . S
H2069 C2074 0.949 . S
H2070 C2076 0.950 . S
H2071 C2077 0.950 . S
H2072 C2078 0.949 . S
C2073 H2068 0.950 . S
C2073 C2075 1.327 . S
C2073 C2079 1.429 . S
C2074 C2066 1.574 . S
C2074 H2069 0.949 . S
C2074 C2080 1.368 . S
C2075 C2059 1.349 . S
C2075 H2067 0.950 . S
C2075 C2073 1.327 . S
C2076 C2064 1.349 . S
C2076 H2070 0.950 . S
C2076 C2077 1.327 . S
C2077 H2071 0.950 . S
C2077 C2076 1.327 . S
C2077 C2081 1.429 . S
C2078 C2061 1.574 . S
C2078 H2072 0.949 . S
C2078 C2082 1.368 . S
C2079 C2060 1.429 . S
C2079 C2073 1.429 . S
C2079 C2080 1.523 . S
C2080 C2061 1.368 . S
C2080 C2074 1.368 . S
C2080 C2079 1.523 . S
C2081 C2065 1.429 . S
C2081 C2077 1.429 . S
C2081 C2082 1.523 . S
C2082 C2066 1.368 . S
C2082 C2078 1.368 . S
C2082 C2081 1.523 . S
H2083 C2058 0.950 . S
H2084 C2060 0.950 . S
H2085 C2061 0.949 . S
H2086 C2063 0.950 . S
H2087 C2065 0.950 . S
C1009 C226 1.088 . S
C1014 C67 1.223 . S
C1039 C321 1.087 . S
C1044 C140 1.223 . S
C1069 C235 1.223 . S
C1074 C394 1.087 . S
C1099 C308 1.223 . S
C1104 C489 1.087 . S
C1129 C58 1.087 . S
C1134 C403 1.223 . S
C1159 C153 1.087 . S
C1164 C476 1.223 . S
C1189 C909 1.088 . S
C1194 C560 1.223 . S
C1219 C655 1.223 . S
C1224 C982 1.087 . S
C1249 C728 1.223 . S
C1254 C573 1.087 . S
C1279 C823 1.223 . S
C1284 C646 1.087 . S
C1309 C896 1.223 . S
C1314 C741 1.087 . S
C1339 C814 1.087 . S
C1344 C991 1.223 . S
C1369 C315 1.964 . S
C1374 C74 1.964 . S
C1399 C147 1.965 . S
C1404 C410 1.965 . S
C1429 C242 1.965 . S
C1434 C483 1.965 . S
C1459 C567 1.964 . S
C1464 C830 1.964 . S
C1489 C662 1.965 . S
C1494 C903 1.965 . S
C1519 C735 1.965 . S
C1524 C998 1.965 . S
C1549 C651 2.157 . S
C1554 C63 2.157 . S
C1579 C158 2.157 . S
C1584 C746 2.157 . S
C1609 C819 2.157 . S
C1614 C231 2.157 . S
C1639 C326 2.157 . S
C1644 C914 2.157 . S
C1669 C399 2.157 . S
C1674 C987 2.157 . S
C1699 C578 2.157 . S
C1704 C494 2.157 . S
C1729 C237 1.242 . S
C1734 C56 1.399 . S
C1759 C151 1.399 . S
C1764 C310 1.242 . S
C1789 C224 1.399 . S
C1794 C405 1.242 . S
C1819 C319 1.399 . S
C1824 C478 1.242 . S
C1849 C69 1.242 . S
C1854 C392 1.399 . S
C1879 C142 1.242 . S
C1884 C487 1.399 . S
C1909 C898 1.242 . S
C1914 C571 1.399 . S
C1939 C644 1.399 . S
C1944 C993 1.242 . S
C1969 C739 1.399 . S
C1974 C562 1.242 . S
C1999 C657 1.242 . S
C2004 C812 1.399 . S
C2029 C907 1.399 . S
C2034 C730 1.242 . S
C2059 C980 1.399 . S
C2064 C825 1.242 . S
