# Generated by pormake.
# Topology xfz, (5)-cn, num edge types: 1
# Building blocks:
#     Node 0, Type 0, BuildingBlock: BEQFEK_clean_sbu_0, # of connection points: 5
#     Node 1, Type 0, BuildingBlock: BEQFEK_clean_sbu_0, # of connection points: 5
#     Node 2, Type 0, BuildingBlock: BEQFEK_clean_sbu_0, # of connection points: 5
#     Node 3, Type 0, BuildingBlock: BEQFEK_clean_sbu_0, # of connection points: 5
#     Node 4, Type 0, BuildingBlock: BEQFEK_clean_sbu_0, # of connection points: 5
#     Node 5, Type 0, BuildingBlock: BEQFEK_clean_sbu_0, # of connection points: 5
#     Node 6, Type 0, BuildingBlock: BEQFEK_clean_sbu_0, # of connection points: 5
#     Node 7, Type 0, BuildingBlock: BEQFEK_clean_sbu_0, # of connection points: 5
#     Node 8, Type 0, BuildingBlock: BEQFEK_clean_sbu_0, # of connection points: 5
#     Node 9, Type 0, BuildingBlock: BEQFEK_clean_sbu_0, # of connection points: 5
#     Node 10, Type 0, BuildingBlock: BEQFEK_clean_sbu_0, # of connection points: 5
#     Node 11, Type 0, BuildingBlock: BEQFEK_clean_sbu_0, # of connection points: 5
#     Node 12, Type 0, BuildingBlock: BEQFEK_clean_sbu_0, # of connection points: 5
#     Node 13, Type 0, BuildingBlock: BEQFEK_clean_sbu_0, # of connection points: 5
#     Node 14, Type 0, BuildingBlock: BEQFEK_clean_sbu_0, # of connection points: 5
#     Node 15, Type 0, BuildingBlock: BEQFEK_clean_sbu_0, # of connection points: 5
#     Edge 16, Type (0, 0), BuildingBlock: XIVTED_clean_linker_0, # of connection points: 2
#     Edge 17, Type (0, 0), BuildingBlock: XIVTED_clean_linker_0, # of connection points: 2
#     Edge 18, Type (0, 0), BuildingBlock: XIVTED_clean_linker_0, # of connection points: 2
#     Edge 19, Type (0, 0), BuildingBlock: XIVTED_clean_linker_0, # of connection points: 2
#     Edge 20, Type (0, 0), BuildingBlock: XIVTED_clean_linker_0, # of connection points: 2
#     Edge 21, Type (0, 0), BuildingBlock: XIVTED_clean_linker_0, # of connection points: 2
#     Edge 22, Type (0, 0), BuildingBlock: XIVTED_clean_linker_0, # of connection points: 2
#     Edge 23, Type (0, 0), BuildingBlock: XIVTED_clean_linker_0, # of connection points: 2
#     Edge 24, Type (0, 0), BuildingBlock: XIVTED_clean_linker_0, # of connection points: 2
#     Edge 25, Type (0, 0), BuildingBlock: XIVTED_clean_linker_0, # of connection points: 2
#     Edge 26, Type (0, 0), BuildingBlock: XIVTED_clean_linker_0, # of connection points: 2
#     Edge 27, Type (0, 0), BuildingBlock: XIVTED_clean_linker_0, # of connection points: 2
#     Edge 28, Type (0, 0), BuildingBlock: XIVTED_clean_linker_0, # of connection points: 2
#     Edge 29, Type (0, 0), BuildingBlock: XIVTED_clean_linker_0, # of connection points: 2
#     Edge 30, Type (0, 0), BuildingBlock: XIVTED_clean_linker_0, # of connection points: 2
#     Edge 31, Type (0, 0), BuildingBlock: XIVTED_clean_linker_0, # of connection points: 2
#     Edge 32, Type (0, 0), BuildingBlock: XIVTED_clean_linker_0, # of connection points: 2
#     Edge 33, Type (0, 0), BuildingBlock: XIVTED_clean_linker_0, # of connection points: 2
#     Edge 34, Type (0, 0), BuildingBlock: XIVTED_clean_linker_0, # of connection points: 2
#     Edge 35, Type (0, 0), BuildingBlock: XIVTED_clean_linker_0, # of connection points: 2
#     Edge 36, Type (0, 0), BuildingBlock: XIVTED_clean_linker_0, # of connection points: 2
#     Edge 37, Type (0, 0), BuildingBlock: XIVTED_clean_linker_0, # of connection points: 2
#     Edge 38, Type (0, 0), BuildingBlock: XIVTED_clean_linker_0, # of connection points: 2
#     Edge 39, Type (0, 0), BuildingBlock: XIVTED_clean_linker_0, # of connection points: 2
#     Edge 40, Type (0, 0), BuildingBlock: XIVTED_clean_linker_0, # of connection points: 2
#     Edge 41, Type (0, 0), BuildingBlock: XIVTED_clean_linker_0, # of connection points: 2
#     Edge 42, Type (0, 0), BuildingBlock: XIVTED_clean_linker_0, # of connection points: 2
#     Edge 43, Type (0, 0), BuildingBlock: XIVTED_clean_linker_0, # of connection points: 2
#     Edge 44, Type (0, 0), BuildingBlock: XIVTED_clean_linker_0, # of connection points: 2
#     Edge 45, Type (0, 0), BuildingBlock: XIVTED_clean_linker_0, # of connection points: 2
#     Edge 46, Type (0, 0), BuildingBlock: XIVTED_clean_linker_0, # of connection points: 2
#     Edge 47, Type (0, 0), BuildingBlock: XIVTED_clean_linker_0, # of connection points: 2
#     Edge 48, Type (0, 0), BuildingBlock: XIVTED_clean_linker_0, # of connection points: 2
#     Edge 49, Type (0, 0), BuildingBlock: XIVTED_clean_linker_0, # of connection points: 2
#     Edge 50, Type (0, 0), BuildingBlock: XIVTED_clean_linker_0, # of connection points: 2
#     Edge 51, Type (0, 0), BuildingBlock: XIVTED_clean_linker_0, # of connection points: 2
#     Edge 52, Type (0, 0), BuildingBlock: XIVTED_clean_linker_0, # of connection points: 2
#     Edge 53, Type (0, 0), BuildingBlock: XIVTED_clean_linker_0, # of connection points: 2
#     Edge 54, Type (0, 0), BuildingBlock: XIVTED_clean_linker_0, # of connection points: 2
#     Edge 55, Type (0, 0), BuildingBlock: XIVTED_clean_linker_0, # of connection points: 2
# Relax obj value: 0.382
# Max RMSD: 0.181
# Mean RMSD: 0.181
data_MOF--net-xfz--node1-BEQFEK_clean_sbu_0--edge1-XIVTED_clean_linker_0
_symmetry_space_group_name_H-M    P1
_symmetry_Int_Tables_number       1
_symmetry_cell_setting            triclinic
loop_
_symmetry_equiv_pos_as_xyz
'x, y, z'
_cell_length_a     47.541004
_cell_length_b     47.554133
_cell_length_c     49.882042
_cell_angle_alpha  90.018007
_cell_angle_beta   90.011915
_cell_angle_gamma 89.992487
loop_
_atom_site_label
_atom_site_type_symbol
_atom_site_fract_x
_atom_site_fract_y
_atom_site_fract_z
_atom_type_partial_charge
Co0 Co 0.14599 0.47965 0.37215 0.0
Co1 Co 0.20284 0.46405 0.34478 0.0
C2 C 0.15026 0.42889 0.33705 0.0
O3 O 0.13634 0.4446 0.35285 0.0
O4 O 0.17614 0.4338 0.33213 0.0
C5 C 0.09823 0.4721 0.40587 0.0
O6 O 0.10516 0.44538 0.40461 0.0
C7 C 0.25162 0.4273 0.33768 0.0
C8 C 0.28305 0.45542 0.31921 0.0
C9 C 0.2792 0.4281 0.32832 0.0
N10 N 0.23991 0.45278 0.33417 0.0
N11 N 0.25875 0.46947 0.32297 0.0
C12 C 0.2371 0.40368 0.35187 0.0
H13 H 0.21976 0.4119 0.36455 0.0
H14 H 0.2522 0.39175 0.36446 0.0
H15 H 0.22789 0.38919 0.3368 0.0
C16 C 0.18131 0.48099 0.42055 0.0
N17 N 0.17776 0.47583 0.39423 0.0
N18 N 0.20218 0.46974 0.38325 0.0
C19 C 0.22217 0.4709 0.40263 0.0
C20 C 0.20945 0.47793 0.42688 0.0
C21 C 0.15833 0.49014 0.43914 0.0
H22 H 0.147 0.50833 0.43038 0.0
H23 H 0.1432 0.47261 0.44169 0.0
H24 H 0.16653 0.49607 0.45918 0.0
O25 O 0.15188 0.5102 0.34587 0.0
O26 O 0.1919 0.49961 0.32509 0.0
H27 H 0.25949 0.47945 0.38005 0.0
H28 H 0.26548 0.47373 0.41554 0.0
C29 C 0.25297 0.46709 0.39784 0.0
H30 H 0.2573 0.4446 0.39371 0.0
H31 H 0.25519 0.49056 0.31832 0.0
O32 O 0.11312 0.49018 0.39366 0.0
C33 C 0.1705 0.51556 0.32825 0.0
Co34 Co 0.48083 0.85931 0.67212 0.0
Co35 Co 0.46591 0.80245 0.6998 0.0
C36 C 0.43079 0.85543 0.70763 0.0
O37 O 0.4459 0.86937 0.69135 0.0
O38 O 0.43622 0.82969 0.71269 0.0
C39 C 0.4743 0.90746 0.6385 0.0
O40 O 0.44735 0.90154 0.64002 0.0
C41 C 0.42919 0.75311 0.70481 0.0
C42 C 0.45444 0.72432 0.72983 0.0
C43 C 0.4288 0.72663 0.7167 0.0
N44 N 0.45391 0.76559 0.71047 0.0
N45 N 0.46892 0.74823 0.72541 0.0
C46 C 0.40591 0.76721 0.68971 0.0
H47 H 0.40925 0.79025 0.68887 0.0
H48 H 0.40545 0.75924 0.66883 0.0
H49 H 0.38531 0.76252 0.69917 0.0
C50 C 0.48192 0.82387 0.62383 0.0
N51 N 0.4768 0.82746 0.65015 0.0
N52 N 0.47156 0.80296 0.66134 0.0
C53 C 0.47359 0.78282 0.64216 0.0
C54 C 0.47997 0.79556 0.61777 0.0
C55 C 0.49018 0.84698 0.60502 0.0
H56 H 0.50893 0.85805 0.61298 0.0
H57 H 0.47266 0.86226 0.60352 0.0
H58 H 0.49494 0.83897 0.58464 0.0
O59 O 0.51141 0.85328 0.69849 0.0
O60 O 0.50164 0.81307 0.71928 0.0
H61 H 0.4823 0.74685 0.66674 0.0
H62 H 0.48229 0.73983 0.63099 0.0
C63 C 0.47206 0.7519 0.64736 0.0
H64 H 0.44971 0.74543 0.64851 0.0
H65 H 0.48897 0.75278 0.73274 0.0
O66 O 0.49196 0.8919 0.65051 0.0
C67 C 0.51725 0.83469 0.71601 0.0
Co68 Co 0.86013 0.52717 0.37344 0.0
Co69 Co 0.80302 0.54119 0.3458 0.0
C70 C 0.85515 0.57704 0.33755 0.0
O71 O 0.86938 0.562 0.35367 0.0
O72 O 0.82938 0.57149 0.33275 0.0
C73 C 0.908 0.53559 0.40695 0.0
O74 O 0.90098 0.56226 0.40531 0.0
C75 C 0.7542 0.57766 0.33875 0.0
C76 C 0.72286 0.54964 0.31999 0.0
C77 C 0.72669 0.57691 0.32925 0.0
N78 N 0.76593 0.5522 0.33515 0.0
N79 N 0.74714 0.53556 0.32379 0.0
C80 C 0.76865 0.6012 0.35313 0.0
H81 H 0.78589 0.59291 0.3659 0.0
H82 H 0.75348 0.6131 0.36568 0.0
H83 H 0.77798 0.61574 0.33819 0.0
C84 C 0.82479 0.52603 0.42183 0.0
N85 N 0.82831 0.53096 0.39546 0.0
N86 N 0.80377 0.53602 0.38429 0.0
C87 C 0.78369 0.53422 0.40351 0.0
C88 C 0.79649 0.52808 0.42794 0.0
C89 C 0.84787 0.51738 0.44052 0.0
H90 H 0.8629 0.53504 0.44277 0.0
H91 H 0.83973 0.51171 0.46065 0.0
H92 H 0.8593 0.49911 0.43201 0.0
O93 O 0.85457 0.49615 0.34748 0.0
O94 O 0.81432 0.50555 0.32656 0.0
H95 H 0.74713 0.52356 0.38058 0.0
H96 H 0.74042 0.52924 0.41598 0.0
C97 C 0.75279 0.53637 0.39837 0.0
H98 H 0.74735 0.55858 0.39403 0.0
H99 H 0.75074 0.5145 0.31903 0.0
O100 O 0.89311 0.51725 0.39507 0.0
C101 C 0.83604 0.49011 0.32995 0.0
Co102 Co 0.52633 0.14579 0.67172 0.0
Co103 Co 0.54076 0.20282 0.69922 0.0
C104 C 0.57636 0.15054 0.70751 0.0
O105 O 0.56115 0.1364 0.69145 0.0
O106 O 0.57097 0.17634 0.71231 0.0
C107 C 0.53455 0.09866 0.63731 0.0
O108 O 0.56095 0.10684 0.63743 0.0
C109 C 0.57761 0.25134 0.70639 0.0
C110 C 0.5497 0.28301 0.7248 0.0
C111 C 0.57703 0.27889 0.71579 0.0
N112 N 0.552 0.23987 0.70981 0.0
N113 N 0.53543 0.25886 0.72095 0.0
C114 C 0.60115 0.23661 0.69226 0.0
H115 H 0.5928 0.21947 0.67941 0.0
H116 H 0.61336 0.25163 0.67984 0.0
H117 H 0.61541 0.22712 0.70736 0.0
C118 C 0.52555 0.18102 0.62316 0.0
N119 N 0.53029 0.1775 0.64957 0.0
N120 N 0.53563 0.20202 0.6607 0.0
C121 C 0.53422 0.22205 0.64141 0.0
C122 C 0.5281 0.20925 0.61698 0.0
C123 C 0.51641 0.15811 0.60448 0.0
H124 H 0.49884 0.14613 0.61357 0.0
H125 H 0.53427 0.14357 0.60109 0.0
H126 H 0.50953 0.16652 0.5848 0.0
O127 O 0.4953 0.15163 0.69757 0.0
O128 O 0.50499 0.19183 0.71844 0.0
H129 H 0.52419 0.25893 0.6641 0.0
H130 H 0.53022 0.26533 0.62872 0.0
C131 C 0.53699 0.25291 0.64642 0.0
H132 H 0.55929 0.2579 0.65087 0.0
H133 H 0.51429 0.25548 0.72555 0.0
O134 O 0.5164 0.11266 0.65036 0.0
C135 C 0.48936 0.17024 0.71505 0.0
Co136 Co 0.14583 0.5253 0.67126 0.0
Co137 Co 0.20294 0.53987 0.6987 0.0
C138 C 0.15017 0.57517 0.70697 0.0
O139 O 0.13608 0.56017 0.6907 0.0
O140 O 0.17592 0.56964 0.71186 0.0
C141 C 0.0976 0.53282 0.63818 0.0
O142 O 0.1039 0.55963 0.64025 0.0
C143 C 0.25231 0.5765 0.70327 0.0
C144 C 0.28123 0.55156 0.72843 0.0
C145 C 0.27883 0.57706 0.71509 0.0
N146 N 0.23989 0.55182 0.70916 0.0
N147 N 0.25732 0.53699 0.72419 0.0
C148 C 0.2381 0.5996 0.68801 0.0
H149 H 0.246 0.59988 0.66711 0.0
H150 H 0.24279 0.6203 0.69729 0.0
H151 H 0.21507 0.59621 0.68726 0.0
C152 C 0.181 0.52401 0.62282 0.0
N153 N 0.17757 0.52924 0.64914 0.0
N154 N 0.20217 0.53429 0.66023 0.0
C155 C 0.22221 0.53202 0.64098 0.0
C156 C 0.2093 0.52569 0.61664 0.0
C157 C 0.15772 0.51584 0.60415 0.0
H158 H 0.14243 0.53337 0.60279 0.0
H159 H 0.16556 0.51113 0.58369 0.0
H160 H 0.14668 0.49709 0.61214 0.0
O161 O 0.15186 0.4946 0.69749 0.0
O162 O 0.19224 0.50417 0.71814 0.0
H163 H 0.25816 0.52294 0.66551 0.0
H164 H 0.26506 0.52268 0.62974 0.0
C165 C 0.25318 0.53315 0.6461 0.0
H166 H 0.25996 0.55541 0.64714 0.0
H167 H 0.25281 0.51702 0.73172 0.0
O168 O 0.11301 0.51467 0.64969 0.0
C169 C 0.17053 0.48867 0.71493 0.0
Co170 Co 0.52503 0.8599 0.3737 0.0
Co171 Co 0.54089 0.80331 0.34605 0.0
C172 C 0.57638 0.8559 0.33946 0.0
O173 O 0.56044 0.86981 0.35507 0.0
O174 O 0.57139 0.83009 0.33431 0.0
C175 C 0.53129 0.90794 0.40758 0.0
O176 O 0.5583 0.90236 0.40587 0.0
C177 C 0.57811 0.75501 0.3389 0.0
C178 C 0.55055 0.72345 0.31985 0.0
C179 C 0.57774 0.72755 0.32924 0.0
N180 N 0.55252 0.76645 0.33527 0.0
N181 N 0.53616 0.74753 0.32374 0.0
C182 C 0.60143 0.76965 0.35344 0.0
H183 H 0.59287 0.7866 0.36639 0.0
H184 H 0.61356 0.75453 0.36584 0.0
H185 H 0.61583 0.77938 0.33861 0.0
C186 C 0.52318 0.82417 0.42178 0.0
N187 N 0.52852 0.82791 0.39552 0.0
N188 N 0.53469 0.80358 0.38441 0.0
C189 C 0.53342 0.78345 0.40363 0.0
C190 C 0.52618 0.79597 0.42791 0.0
C191 C 0.51421 0.84707 0.44053 0.0
H192 H 0.53157 0.86245 0.44264 0.0
H193 H 0.50889 0.83886 0.46072 0.0
H194 H 0.49564 0.85811 0.43215 0.0
O195 O 0.4949 0.85428 0.34691 0.0
O196 O 0.5056 0.81443 0.32592 0.0
H197 H 0.53064 0.74004 0.41619 0.0
H198 H 0.55995 0.74851 0.39468 0.0
C199 C 0.53739 0.75271 0.39864 0.0
H200 H 0.52523 0.74629 0.38068 0.0
H201 H 0.51506 0.7509 0.31891 0.0
O202 O 0.51375 0.89231 0.3955 0.0
C203 C 0.48968 0.83586 0.32906 0.0
Co204 Co 0.85919 0.4794 0.67153 0.0
Co205 Co 0.80219 0.46532 0.69927 0.0
C206 C 0.8544 0.42952 0.70745 0.0
O207 O 0.86856 0.44465 0.69135 0.0
O208 O 0.82861 0.435 0.71229 0.0
C209 C 0.90711 0.47086 0.63821 0.0
O210 O 0.90049 0.44415 0.6405 0.0
C211 C 0.75339 0.42884 0.70646 0.0
C212 C 0.72202 0.45694 0.72507 0.0
C213 C 0.72586 0.42963 0.71592 0.0
N214 N 0.76511 0.45431 0.70998 0.0
N215 N 0.7463 0.471 0.72125 0.0
C216 C 0.76785 0.40524 0.69217 0.0
H217 H 0.78508 0.41347 0.67938 0.0
H218 H 0.75268 0.39329 0.67967 0.0
H219 H 0.77718 0.39077 0.70718 0.0
C220 C 0.82386 0.48006 0.62315 0.0
N221 N 0.82737 0.47543 0.64956 0.0
N222 N 0.80284 0.4704 0.66076 0.0
C223 C 0.78276 0.47199 0.6415 0.0
C224 C 0.79558 0.47789 0.61703 0.0
C225 C 0.84693 0.48857 0.60439 0.0
H226 H 0.85829 0.50697 0.61273 0.0
H227 H 0.86202 0.47094 0.60234 0.0
H228 H 0.83879 0.49402 0.58421 0.0
O229 O 0.85362 0.51052 0.69737 0.0
O230 O 0.81348 0.50104 0.71842 0.0
H231 H 0.74611 0.48245 0.66436 0.0
H232 H 0.7395 0.47668 0.62895 0.0
C233 C 0.75187 0.46965 0.6466 0.0
H234 H 0.74657 0.44741 0.65095 0.0
H235 H 0.74989 0.49209 0.72592 0.0
O236 O 0.89203 0.48929 0.64972 0.0
C237 C 0.83513 0.51656 0.71493 0.0
Co238 Co 0.47143 0.14375 0.37517 0.0
Co239 Co 0.46317 0.20113 0.34634 0.0
C240 C 0.42291 0.15094 0.3397 0.0
O241 O 0.4352 0.1365 0.35765 0.0
O242 O 0.43189 0.17537 0.33336 0.0
C243 C 0.46298 0.09579 0.40898 0.0
O244 O 0.43612 0.10181 0.40668 0.0
C245 C 0.42751 0.25019 0.33896 0.0
C246 C 0.45541 0.28106 0.31939 0.0
C247 C 0.42821 0.27748 0.32896 0.0
N248 N 0.45288 0.2383 0.33529 0.0
N249 N 0.46948 0.25681 0.32348 0.0
C250 C 0.40409 0.23611 0.35383 0.0
H251 H 0.41251 0.21935 0.36708 0.0
H252 H 0.39214 0.25161 0.36596 0.0
H253 H 0.38955 0.2262 0.33921 0.0
C254 C 0.47577 0.18004 0.42281 0.0
N255 N 0.47101 0.17633 0.39644 0.0
N256 N 0.4683 0.20093 0.38471 0.0
C257 C 0.47171 0.22123 0.4035 0.0
C258 C 0.47628 0.20855 0.42829 0.0
C259 C 0.48163 0.1567 0.44217 0.0
H260 H 0.46303 0.14269 0.44321 0.0
H261 H 0.48629 0.16471 0.46258 0.0
H262 H 0.49981 0.14418 0.43497 0.0
O263 O 0.5004 0.14595 0.3466 0.0
O264 O 0.49844 0.18817 0.32754 0.0
H265 H 0.48524 0.25616 0.37971 0.0
H266 H 0.48025 0.26423 0.41498 0.0
C267 C 0.47209 0.25205 0.39765 0.0
H268 H 0.45037 0.25916 0.39317 0.0
H269 H 0.49047 0.25302 0.31854 0.0
O270 O 0.4811 0.11107 0.39729 0.0
C271 C 0.50953 0.16378 0.32962 0.0
Co272 Co 0.64621 0.98026 0.87306 0.0
Co273 Co 0.70307 0.96484 0.84568 0.0
C274 C 0.65059 0.92938 0.83824 0.0
O275 O 0.63661 0.94506 0.85401 0.0
O276 O 0.67642 0.93446 0.83326 0.0
C277 C 0.59811 0.97271 0.90624 0.0
O278 O 0.60456 0.94592 0.90427 0.0
C279 C 0.75147 0.92778 0.8388 0.0
C280 C 0.78311 0.95533 0.81988 0.0
C281 C 0.77897 0.92815 0.82924 0.0
N282 N 0.74005 0.95336 0.83513 0.0
N283 N 0.75901 0.96972 0.82369 0.0
C284 C 0.73678 0.90447 0.85328 0.0
H285 H 0.7198 0.91304 0.8662 0.0
H286 H 0.75187 0.89231 0.86569 0.0
H287 H 0.72707 0.8901 0.8384 0.0
C288 C 0.68165 0.98257 0.92127 0.0
N289 N 0.67806 0.97677 0.89508 0.0
N290 N 0.7025 0.97086 0.88409 0.0
C291 C 0.72259 0.97278 0.90332 0.0
C292 C 0.70994 0.98028 0.92749 0.0
C293 C 0.65843 0.99116 0.93983 0.0
H294 H 0.64763 0.00998 0.93169 0.0
H295 H 0.64293 0.97383 0.94122 0.0
H296 H 0.66619 0.99582 0.96032 0.0
O297 O 0.65194 0.01065 0.84654 0.0
O298 O 0.69203 1.00023 0.82579 0.0
H299 H 0.75945 0.98223 0.8804 0.0
H300 H 0.76597 0.97671 0.91584 0.0
C301 C 0.75344 0.96974 0.89827 0.0
H302 H 0.75827 0.94736 0.89409 0.0
H303 H 0.75565 0.99081 0.81885 0.0
O304 O 0.61342 0.99089 0.89465 0.0
C305 C 0.67051 0.01604 0.82888 0.0
Co306 Co 0.97961 0.36016 0.17111 0.0
Co307 Co 0.96439 0.30343 0.19883 0.0
C308 C 0.92974 0.35661 0.20688 0.0
O309 O 0.94486 0.37037 0.19048 0.0
O310 O 0.935 0.33086 0.21198 0.0
C311 C 0.97207 0.40772 0.13738 0.0
O312 O 0.94536 0.40077 0.13886 0.0
C313 C 0.92688 0.25481 0.20362 0.0
C314 C 0.95123 0.22556 0.22894 0.0
C315 C 0.92576 0.2284 0.2156 0.0
N316 N 0.95183 0.26674 0.20943 0.0
N317 N 0.96631 0.24911 0.22454 0.0
C318 C 0.90407 0.2694 0.18827 0.0
H319 H 0.90801 0.29233 0.18728 0.0
H320 H 0.90355 0.26129 0.16744 0.0
H321 H 0.88329 0.26532 0.19764 0.0
C322 C 0.98053 0.32471 0.12283 0.0
N323 N 0.97533 0.32837 0.14913 0.0
N324 N 0.96992 0.30392 0.16033 0.0
C325 C 0.97189 0.28374 0.14118 0.0
C326 C 0.97842 0.29641 0.11679 0.0
C327 C 0.98918 0.3477 0.10405 0.0
H328 H 0.00768 0.35893 0.11236 0.0
H329 H 0.97164 0.36289 0.10201 0.0
H330 H 0.99449 0.33957 0.08384 0.0
O331 O 0.01031 0.35393 0.19733 0.0
O332 O 1.00032 0.31377 0.21816 0.0
H333 H 0.98045 0.24779 0.16585 0.0
H334 H 0.98045 0.24068 0.13011 0.0
C335 C 0.97025 0.25283 0.14645 0.0
H336 H 0.94787 0.24644 0.1476 0.0
H337 H 0.98637 0.25326 0.23206 0.0
O338 O 0.99028 0.39286 0.14946 0.0
C339 C 0.01608 0.33528 0.21483 0.0
Co340 Co 0.35979 0.02616 0.87218 0.0
Co341 Co 0.30282 0.04114 0.84482 0.0
C342 C 0.35516 0.07664 0.83693 0.0
O343 O 0.36921 0.0611 0.85276 0.0
O344 O 0.32931 0.07151 0.83205 0.0
C345 C 0.40754 0.03434 0.90576 0.0
O346 O 0.40063 0.06103 0.90409 0.0
C347 C 0.25408 0.0778 0.83756 0.0
C348 C 0.22248 0.04953 0.81954 0.0
C349 C 0.22645 0.07694 0.82835 0.0
N350 N 0.26572 0.05225 0.83424 0.0
N351 N 0.24678 0.03547 0.82331 0.0
C352 C 0.26872 0.10155 0.85146 0.0
H353 H 0.28608 0.09344 0.86418 0.0
H354 H 0.2537 0.11366 0.86398 0.0
H355 H 0.27789 0.11584 0.83622 0.0
C356 C 0.32482 0.0259 0.92082 0.0
N357 N 0.3281 0.03013 0.89432 0.0
N358 N 0.30356 0.03568 0.88333 0.0
C359 C 0.2837 0.03485 0.90284 0.0
C360 C 0.29668 0.02899 0.92727 0.0
C361 C 0.34784 0.01652 0.93927 0.0
H362 H 0.35967 0.99896 0.92997 0.0
H363 H 0.36251 0.03428 0.94272 0.0
H364 H 0.33957 0.00936 0.95891 0.0
O365 O 0.35405 0.99541 0.84604 0.0
O366 O 0.31396 0.00561 0.8252 0.0
H367 H 0.24611 0.02638 0.88061 0.0
H368 H 0.24042 0.03284 0.91604 0.0
C369 C 0.25291 0.03896 0.89818 0.0
H370 H 0.24884 0.06143 0.89374 0.0
H371 H 0.25028 0.01431 0.81885 0.0
O372 O 0.39274 0.01605 0.89373 0.0
C373 C 0.33548 0.98984 0.82841 0.0
Co374 Co 0.02635 0.64568 0.17187 0.0
Co375 Co 0.04079 0.70284 0.19915 0.0
C376 C 0.07645 0.65039 0.20732 0.0
O377 O 0.06134 0.63624 0.1912 0.0
O378 O 0.0709 0.67613 0.21223 0.0
C379 C 0.03455 0.59777 0.13862 0.0
O380 O 0.06122 0.60478 0.14038 0.0
C381 C 0.07669 0.75271 0.2039 0.0
C382 C 0.05121 0.78113 0.2291 0.0
C383 C 0.07679 0.77916 0.21583 0.0
N384 N 0.05218 0.7399 0.20966 0.0
N385 N 0.03702 0.75703 0.2247 0.0
C386 C 0.10007 0.73892 0.18867 0.0
H387 H 0.1003 0.74691 0.1678 0.0
H388 H 0.12066 0.74387 0.19804 0.0
H389 H 0.09702 0.71584 0.18782 0.0
C390 C 0.02427 0.68082 0.12346 0.0
N391 N 0.02995 0.67743 0.1497 0.0
N392 N 0.035 0.70206 0.16072 0.0
C393 C 0.0323 0.72208 0.14152 0.0
C394 C 0.02558 0.70916 0.11727 0.0
C395 C 0.0163 0.65741 0.10487 0.0
H396 H 0.99759 0.64628 0.11287 0.0
H397 H 0.03395 0.64226 0.10362 0.0
H398 H 0.01166 0.66504 0.08434 0.0
O399 O 0.99563 0.65144 0.1982 0.0
O400 O 0.00527 0.69189 0.21866 0.0
H401 H 0.02275 0.75787 0.16608 0.0
H402 H 0.02265 0.76489 0.13033 0.0
C403 C 0.03312 0.75304 0.14671 0.0
H404 H 0.05533 0.76 0.14792 0.0
H405 H 0.0171 0.75218 0.23215 0.0
O406 O 0.01615 0.61269 0.15036 0.0
C407 C 0.98977 0.67015 0.21562 0.0
Co408 Co 0.64643 0.01778 0.17083 0.0
Co409 Co 0.70054 0.03998 0.19919 0.0
C410 C 0.64472 0.06936 0.20568 0.0
O411 O 0.63336 0.05121 0.19043 0.0
O412 O 0.67104 0.06841 0.21066 0.0
C413 C 0.59988 0.02271 0.13582 0.0
O414 O 0.60664 0.04949 0.13643 0.0
C415 C 0.74807 0.0793 0.20605 0.0
C416 C 0.77809 0.05386 0.22955 0.0
C417 C 0.7747 0.08 0.21767 0.0
N418 N 0.73656 0.05386 0.21062 0.0
N419 N 0.75463 0.0388 0.22472 0.0
C420 C 0.73306 0.10284 0.19216 0.0
H421 H 0.7101 0.09897 0.19163 0.0
H422 H 0.74054 0.10447 0.17118 0.0
H423 H 0.73746 0.12311 0.20237 0.0
C424 C 0.68233 0.02021 0.12307 0.0
N425 N 0.67798 0.02487 0.14935 0.0
N426 N 0.70152 0.03326 0.1607 0.0
C427 C 0.72187 0.03373 0.14161 0.0
C428 C 0.71012 0.02593 0.11711 0.0
C429 C 0.66089 0.00808 0.10432 0.0
H430 H 0.65016 0.99006 0.11399 0.0
H431 H 0.64503 0.02441 0.09954 0.0
H432 H 0.67054 1.00077 0.08531 0.0
O433 O 0.65452 0.98796 0.19701 0.0
O434 O 0.69156 0.00404 0.21955 0.0
H435 H 0.7589 0.03047 0.16598 0.0
H436 H 0.76566 0.03201 0.13024 0.0
C437 C 0.7522 0.04003 0.14674 0.0
H438 H 0.7551 0.06309 0.14812 0.0
H439 H 0.75098 0.0182 0.23102 0.0
O440 O 0.61461 0.00517 0.1489 0.0
C441 C 0.67249 0.98547 0.21577 0.0
Co442 Co 0.0251 0.36005 0.87265 0.0
Co443 Co 0.04061 0.30324 0.84525 0.0
C444 C 0.07585 0.35575 0.83757 0.0
O445 O 0.06019 0.3697 0.8534 0.0
O446 O 0.07084 0.3299 0.83265 0.0
C447 C 0.03295 0.40748 0.90661 0.0
O448 O 0.05958 0.40018 0.90545 0.0
C449 C 0.07774 0.2549 0.83809 0.0
C450 C 0.04999 0.22314 0.8196 0.0
C451 C 0.07728 0.22736 0.82865 0.0
N452 N 0.05209 0.26627 0.83465 0.0
N453 N 0.03561 0.24724 0.82345 0.0
C454 C 0.10121 0.26969 0.85226 0.0
H455 H 0.09278 0.28676 0.86515 0.0
H456 H 0.1135 0.25469 0.86466 0.0
H457 H 0.11544 0.27928 0.83719 0.0
C458 C 0.0235 0.32467 0.921 0.0
N459 N 0.02882 0.32826 0.89471 0.0
N460 N 0.03492 0.30387 0.88371 0.0
C461 C 0.03364 0.28384 0.90302 0.0
C462 C 0.02649 0.2965 0.92727 0.0
C463 C 0.01427 0.34761 0.9396 0.0
H464 H 0.03183 0.36265 0.94237 0.0
H465 H 0.00813 0.33936 0.95955 0.0
H466 H 0.9962 0.35904 0.93072 0.0
O467 O 0.99455 0.35423 0.84631 0.0
O468 O 0.00505 0.31418 0.82555 0.0
H469 H 0.02489 0.2466 0.8804 0.0
H470 H 0.03085 0.24051 0.91585 0.0
C471 C 0.03738 0.25305 0.89814 0.0
H472 H 0.05984 0.24871 0.89386 0.0
H473 H 0.01446 0.25054 0.81883 0.0
O474 O 0.01473 0.39291 0.89422 0.0
C475 C 0.98914 0.33562 0.82868 0.0
Co476 Co 0.35983 0.97973 0.17138 0.0
Co477 Co 0.30261 0.96545 0.19853 0.0
C478 C 0.35513 0.93016 0.20753 0.0
O479 O 0.36922 0.9451 0.19126 0.0
O480 O 0.32935 0.93567 0.21229 0.0
C481 C 0.40664 0.97003 0.13755 0.0
O482 O 0.39749 0.94397 0.1383 0.0
C483 C 0.25303 0.92924 0.20302 0.0
C484 C 0.22413 0.95448 0.22794 0.0
C485 C 0.22645 0.92892 0.21469 0.0
N486 N 0.26556 0.95386 0.20889 0.0
N487 N 0.24815 0.96887 0.22377 0.0
C488 C 0.26718 0.90597 0.18793 0.0
H489 H 0.25947 0.90571 0.16696 0.0
H490 H 0.26225 0.88534 0.19721 0.0
H491 H 0.29025 0.90918 0.18737 0.0
C492 C 0.32478 0.98143 0.12278 0.0
N493 N 0.3282 0.97578 0.14903 0.0
N494 N 0.30357 0.97067 0.16003 0.0
C495 C 0.28354 0.97324 0.14081 0.0
C496 C 0.29645 0.97992 0.11656 0.0
C497 C 0.34809 0.98989 0.10426 0.0
H498 H 0.35982 0.00784 0.11299 0.0
H499 H 0.36275 0.97197 0.10185 0.0
H500 H 0.34025 0.99583 0.08411 0.0
O501 O 0.35374 0.01093 0.19714 0.0
O502 O 0.31316 1.00146 0.21746 0.0
H503 H 0.24777 0.98304 0.1653 0.0
H504 H 0.24073 0.98292 0.12957 0.0
C505 C 0.25257 0.97253 0.14599 0.0
H506 H 0.24554 0.95036 0.14732 0.0
H507 H 0.25275 0.98885 0.23125 0.0
O508 O 0.39322 0.98903 0.15006 0.0
C509 C 0.33482 0.01705 0.21429 0.0
Co510 Co 0.97992 0.64539 0.87235 0.0
Co511 Co 0.96496 0.70245 0.84522 0.0
C512 C 0.92938 0.65022 0.83712 0.0
O513 O 0.94492 0.63611 0.8529 0.0
O514 O 0.93454 0.67607 0.83233 0.0
C515 C 0.97155 0.59796 0.90623 0.0
O516 O 0.945 0.60558 0.90523 0.0
C517 C 0.92836 0.75124 0.83806 0.0
C518 C 0.95671 0.78285 0.82021 0.0
C519 C 0.92927 0.77889 0.82895 0.0
N520 N 0.95391 0.73959 0.83476 0.0
N521 N 0.97074 0.75854 0.82393 0.0
C522 C 0.90456 0.73658 0.85185 0.0
H523 H 0.91263 0.71917 0.86453 0.0
H524 H 0.89243 0.75157 0.8644 0.0
H525 H 0.89029 0.72747 0.83654 0.0
C526 C 0.98038 0.68024 0.92113 0.0
N527 N 0.97608 0.67702 0.89463 0.0
N528 N 0.97045 0.70157 0.88373 0.0
C529 C 0.97124 0.72137 0.90331 0.0
C530 C 0.9772 0.70834 0.92768 0.0
C531 C 0.98991 0.65723 0.93952 0.0
H532 H 0.00714 0.64515 0.92996 0.0
H533 H 0.97206 0.6428 0.94341 0.0
H534 H 0.99759 0.66556 0.95896 0.0
O535 O 0.01067 0.65115 0.84622 0.0
O536 O 1.00046 0.69133 0.82557 0.0
H537 H 0.97954 0.75909 0.88126 0.0
H538 H 0.973 0.7646 0.91669 0.0
C539 C 0.96697 0.75215 0.89877 0.0
H540 H 0.94448 0.75611 0.8943 0.0
H541 H 0.9919 0.75503 0.81951 0.0
O542 O 0.98987 0.61227 0.89372 0.0
C543 C 0.01622 0.66979 0.82866 0.0
H544 H 0.9513 0.56921 0.42383 0.0
H545 H 0.05522 0.43891 0.42412 0.0
H546 H 0.92531 0.48238 0.41893 0.0
H547 H 0.08108 0.52561 0.41691 0.0
H548 H 0.00812 0.45474 0.43666 0.0
H549 H 0.99868 0.55367 0.43578 0.0
C550 C 0.95541 0.5469 0.42578 0.0
C551 C 0.93465 0.52701 0.41957 0.0
C552 C 0.02426 0.47029 0.43281 0.0
C553 C 0.98865 0.50914 0.43303 0.0
C554 C 0.05115 0.46126 0.42567 0.0
C555 C 0.07177 0.48099 0.41867 0.0
C556 C 0.01808 0.49919 0.43281 0.0
C557 C 0.06552 0.50968 0.42144 0.0
C558 C 0.98245 0.53804 0.43257 0.0
C559 C 0.94097 0.4984 0.42283 0.0
N560 N 0.03906 0.51793 0.42784 0.0
N561 N 0.96756 0.49029 0.42887 0.0
H562 H 0.56842 0.05945 0.61303 0.0
H563 H 0.52833 0.9228 0.62752 0.0
H564 H 0.48171 0.07693 0.63262 0.0
H565 H 0.44256 0.95153 0.62024 0.0
H566 H 0.54472 0.96929 0.61547 0.0
H567 H 0.55506 0.01177 0.60031 0.0
C568 C 0.54654 0.05329 0.6145 0.0
C569 C 0.52632 0.0718 0.62486 0.0
C570 C 0.52232 0.96549 0.61554 0.0
C571 C 0.51099 0.01703 0.61134 0.0
C572 C 0.51292 0.93882 0.62275 0.0
C573 C 0.48405 0.93355 0.62562 0.0
C574 C 0.50264 0.9871 0.6113 0.0
C575 C 0.46503 0.95486 0.61875 0.0
C576 C 0.53892 0.02591 0.60749 0.0
C577 C 0.49816 0.06304 0.62555 0.0
N578 N 0.47469 0.98091 0.61248 0.0
N579 N 0.49143 0.03613 0.61937 0.0
H580 H 0.92269 0.52372 0.62311 0.0
H581 H 0.08211 0.4795 0.62436 0.0
H582 H 0.95167 0.4377 0.62382 0.0
H583 H 0.05307 0.56549 0.62273 0.0
H584 H 0.03506 0.46383 0.61199 0.0
H585 H 0.96985 0.53902 0.61075 0.0
C586 C 0.93891 0.508 0.62025 0.0
C587 C 0.93356 0.47949 0.62529 0.0
C588 C 0.03905 0.48617 0.61386 0.0
C589 C 0.98758 0.49686 0.61145 0.0
C590 C 0.06591 0.49513 0.62099 0.0
C591 C 0.07121 0.52378 0.62538 0.0
C592 C 0.01731 0.50599 0.61149 0.0
C593 C 0.0497 0.54315 0.62009 0.0
C594 C 0.96583 0.51675 0.61312 0.0
C595 C 0.95508 0.45996 0.62064 0.0
N596 N 0.02348 0.53385 0.61398 0.0
N597 N 0.98137 0.46907 0.61454 0.0
H598 H 0.47742 0.92128 0.42139 0.0
H599 H 0.51601 0.08202 0.42508 0.0
H600 H 0.56232 0.95333 0.42386 0.0
H601 H 0.43108 0.05006 0.42264 0.0
H602 H 0.53277 0.03532 0.43728 0.0
H603 H 0.45999 0.96751 0.43437 0.0
C604 C 0.49244 0.93797 0.42507 0.0
C605 C 0.52129 0.93377 0.42074 0.0
C606 C 0.5104 0.03857 0.43458 0.0
C607 C 0.50149 0.98674 0.43533 0.0
C608 C 0.50083 0.06523 0.42754 0.0
C609 C 0.47223 0.06962 0.42203 0.0
C610 C 0.49128 0.01612 0.43567 0.0
C611 C 0.45339 0.0474 0.4262 0.0
C612 C 0.48247 0.96436 0.43256 0.0
C613 C 0.53985 0.95585 0.42646 0.0
N614 N 0.46334 0.02139 0.43219 0.0
N615 N 0.52958 0.98162 0.4329 0.0
H616 H 0.58244 0.02596 0.92009 0.0
H617 H 0.42324 0.98136 0.92032 0.0
H618 H 0.55369 0.93988 0.92161 0.0
H619 H 0.45188 0.06748 0.92078 0.0
H620 H 0.47037 0.96607 0.93283 0.0
H621 H 0.53531 0.04148 0.93235 0.0
C622 C 0.56628 0.01029 0.92341 0.0
C623 C 0.57169 0.98166 0.91902 0.0
C624 C 0.46628 0.98836 0.93069 0.0
C625 C 0.51771 0.99927 0.93279 0.0
C626 C 0.43939 0.9971 0.92346 0.0
C627 C 0.43395 0.02565 0.91871 0.0
C628 C 0.48794 0.0083 0.93273 0.0
C629 C 0.45536 0.0452 0.92373 0.0
C630 C 0.53938 0.01916 0.93049 0.0
C631 C 0.55024 0.96221 0.92426 0.0
N632 N 0.48165 0.0361 0.9299 0.0
N633 N 0.52398 0.97143 0.93031 0.0
H634 H 0.93857 0.45061 0.1194 0.0
H635 H 0.06832 0.55499 0.12088 0.0
H636 H 0.02545 0.42509 0.12608 0.0
H637 H 0.98134 0.58041 0.12659 0.0
H638 H 0.05299 0.50784 0.10801 0.0
H639 H 0.95411 0.49787 0.1072 0.0
C640 C 0.9609 0.45479 0.11779 0.0
C641 C 0.98077 0.43422 0.12459 0.0
C642 C 0.03728 0.52389 0.11159 0.0
C643 C 0.99863 0.4881 0.11085 0.0
C644 C 0.04602 0.55081 0.11893 0.0
C645 C 0.02604 0.57131 0.12563 0.0
C646 C 0.00841 0.51757 0.1111 0.0
C647 C 0.99744 0.56493 0.12233 0.0
C648 C 0.96976 0.48177 0.11085 0.0
C649 C 0.00942 0.44061 0.12173 0.0
N650 N 0.98945 0.53845 0.11576 0.0
N651 N 0.01751 0.46716 0.11555 0.0
H652 H 0.44409 0.93404 0.11363 0.0
H653 H 0.58225 0.96884 0.12738 0.0
H654 H 0.43064 0.02179 0.13181 0.0
H655 H 0.55742 0.05526 0.11559 0.0
H656 H 0.535 0.95393 0.11609 0.0
H657 H 0.49217 0.94504 0.10015 0.0
C658 C 0.45121 0.95565 0.11463 0.0
C659 C 0.43372 0.97687 0.1248 0.0
C660 C 0.53987 0.97609 0.11497 0.0
C661 C 0.48891 0.98949 0.11033 0.0
C662 C 0.56696 0.98466 0.12174 0.0
C663 C 0.57351 0.01337 0.12315 0.0
C664 C 0.51917 0.99647 0.10972 0.0
C665 C 0.55308 0.03292 0.11524 0.0
C666 C 0.47879 0.9619 0.10716 0.0
C667 C 0.44371 0.00461 0.12488 0.0
N668 N 0.5266 0.02413 0.10947 0.0
N669 N 0.4708 0.01003 0.11823 0.0
H670 H 0.93756 0.55542 0.92409 0.0
H671 H 0.06668 0.45006 0.92486 0.0
H672 H 0.02468 0.58017 0.91788 0.0
H673 H 0.97965 0.42521 0.91773 0.0
H674 H 0.05142 0.49739 0.93724 0.0
H675 H 0.95264 0.50808 0.93667 0.0
C676 C 0.95984 0.55105 0.92589 0.0
C677 C 0.97993 0.57141 0.91912 0.0
C678 C 0.03567 0.48142 0.93346 0.0
C679 C 0.99726 0.51749 0.93332 0.0
C680 C 0.04437 0.4544 0.92641 0.0
C681 C 0.02438 0.43401 0.91944 0.0
C682 C 0.00684 0.48795 0.9334 0.0
C683 C 0.99577 0.4406 0.92221 0.0
C684 C 0.96844 0.52404 0.93305 0.0
C685 C 0.0085 0.5648 0.9222 0.0
N686 N 0.98783 0.46718 0.92851 0.0
N687 N 0.01634 0.53823 0.92861 0.0
H688 H 0.33577 0.43466 0.33457 0.0
H689 H 0.37107 0.27031 0.32207 0.0
H690 H 0.27283 0.37075 0.32162 0.0
H691 H 0.43408 0.33427 0.33436 0.0
H692 H 0.33476 0.30661 0.32249 0.0
H693 H 0.37201 0.39819 0.33467 0.0
C694 C 0.32952 0.41293 0.33188 0.0
C695 C 0.30107 0.40577 0.32868 0.0
C696 C 0.3565 0.31272 0.32527 0.0
C697 C 0.34257 0.36379 0.32862 0.0
C698 C 0.37728 0.29191 0.32534 0.0
C699 C 0.40567 0.29913 0.32889 0.0
C700 C 0.36413 0.34106 0.32857 0.0
C701 C 0.41245 0.32771 0.33175 0.0
C702 C 0.35025 0.3921 0.33198 0.0
C703 C 0.29429 0.37726 0.3251 0.0
N704 N 0.39186 0.34759 0.33163 0.0
N705 N 0.31486 0.35735 0.32519 0.0
H706 H 0.29263 0.61353 0.67406 0.0
H707 H 0.41504 0.69034 0.75688 0.0
H708 H 0.31524 0.59135 0.75508 0.0
H709 H 0.39197 0.71257 0.67599 0.0
H710 H 0.37845 0.65417 0.75672 0.0
H711 H 0.32823 0.65044 0.67467 0.0
C712 C 0.30464 0.61673 0.6922 0.0
C713 C 0.30034 0.59973 0.71483 0.0
C714 C 0.38124 0.66712 0.73907 0.0
C715 C 0.34199 0.64153 0.71535 0.0
C716 C 0.40216 0.68776 0.73913 0.0
C717 C 0.4062 0.70504 0.71666 0.0
C718 C 0.36432 0.66347 0.71623 0.0
C719 C 0.38903 0.70056 0.69414 0.0
C720 C 0.32529 0.63765 0.69241 0.0
C721 C 0.31768 0.60408 0.73724 0.0
N722 N 0.36887 0.68025 0.69451 0.0
N723 N 0.33765 0.62457 0.73698 0.0
H724 H 0.63499 0.73487 0.32275 0.0
H725 H 0.67011 0.57048 0.33539 0.0
H726 H 0.57203 0.67086 0.33507 0.0
H727 H 0.73322 0.63424 0.32264 0.0
H728 H 0.63397 0.60704 0.33552 0.0
H729 H 0.67135 0.6986 0.32342 0.0
C730 C 0.6288 0.71328 0.32608 0.0
C731 C 0.6004 0.70603 0.32952 0.0
C732 C 0.65575 0.61309 0.33287 0.0
C733 C 0.64198 0.66415 0.32949 0.0
C734 C 0.67641 0.5922 0.33275 0.0
C735 C 0.70487 0.5993 0.3296 0.0
C736 C 0.6635 0.64138 0.32956 0.0
C737 C 0.71173 0.62779 0.32607 0.0
C738 C 0.6496 0.69248 0.32615 0.0
C739 C 0.59366 0.67745 0.3325 0.0
N740 N 0.69122 0.64776 0.32617 0.0
N741 N 0.61426 0.65761 0.33251 0.0
H742 H 0.66929 0.43604 0.70955 0.0
H743 H 0.6342 0.27173 0.72302 0.0
H744 H 0.73238 0.37234 0.72281 0.0
H745 H 0.5713 0.33554 0.70946 0.0
H746 H 0.67052 0.30803 0.72242 0.0
H747 H 0.63316 0.39947 0.70945 0.0
C748 C 0.67559 0.41434 0.71231 0.0
C749 C 0.70404 0.40725 0.7156 0.0
C750 C 0.64879 0.31409 0.7194 0.0
C751 C 0.66268 0.36516 0.71566 0.0
C752 C 0.62802 0.29328 0.71943 0.0
C753 C 0.59965 0.30046 0.71561 0.0
C754 C 0.64118 0.34239 0.71573 0.0
C755 C 0.59291 0.329 0.71232 0.0
C756 C 0.65493 0.39344 0.7122 0.0
C757 C 0.7109 0.37878 0.71928 0.0
N758 N 0.61348 0.34887 0.71236 0.0
N759 N 0.6904 0.35881 0.71919 0.0
H760 H 0.93575 0.83533 0.83594 0.0
H761 H 0.77152 0.87099 0.8224 0.0
H762 H 0.87198 0.77259 0.82157 0.0
H763 H 0.83567 0.93369 0.83535 0.0
H764 H 0.80771 0.83455 0.82298 0.0
H765 H 0.89928 0.87155 0.83615 0.0
C766 C 0.91405 0.82913 0.83296 0.0
C767 C 0.90692 0.80074 0.82932 0.0
C768 C 0.81387 0.85626 0.82587 0.0
C769 C 0.86493 0.84221 0.8294 0.0
C770 C 0.79313 0.87711 0.82585 0.0
C771 C 0.80044 0.90546 0.82949 0.0
C772 C 0.84222 0.86377 0.82937 0.0
C773 C 0.82903 0.9121 0.83263 0.0
C774 C 0.89321 0.84983 0.83313 0.0
C775 C 0.87845 0.794 0.82538 0.0
N776 N 0.84882 0.89145 0.83259 0.0
N777 N 0.85852 0.81456 0.82555 0.0
H778 H 0.81157 0.09312 0.25757 0.0
H779 H 0.88857 0.21532 0.17487 0.0
H780 H 0.78729 0.11828 0.17779 0.0
H781 H 0.91101 0.19241 0.25576 0.0
H782 H 0.85088 0.18057 0.17585 0.0
H783 H 0.84783 0.1296 0.25744 0.0
C784 C 0.81369 0.10648 0.2401 0.0
C785 C 0.79587 0.10298 0.21791 0.0
C786 C 0.86388 0.18328 0.19348 0.0
C787 C 0.8376 0.1447 0.21747 0.0
C788 C 0.88527 0.20345 0.19307 0.0
C789 C 0.90259 0.20742 0.21555 0.0
C790 C 0.85988 0.16669 0.21647 0.0
C791 C 0.89806 0.19022 0.23803 0.0
C792 C 0.83439 0.12733 0.24004 0.0
C793 C 0.79976 0.12076 0.19574 0.0
N794 N 0.87715 0.1707 0.23794 0.0
N795 N 0.8202 0.14079 0.19608 0.0
H796 H 0.13443 0.2347 0.82143 0.0
H797 H 0.16997 0.07052 0.83523 0.0
H798 H 0.07174 0.17071 0.83503 0.0
H799 H 0.23283 0.13421 0.82105 0.0
H800 H 0.13379 0.10702 0.83541 0.0
H801 H 0.17086 0.19849 0.822 0.0
C802 C 0.12832 0.21313 0.82502 0.0
C803 C 0.09998 0.20587 0.82885 0.0
C804 C 0.15552 0.11307 0.83244 0.0
C805 C 0.14164 0.16406 0.8287 0.0
C806 C 0.17621 0.09221 0.83228 0.0
C807 C 0.20462 0.0993 0.82871 0.0
C808 C 0.16319 0.14133 0.82874 0.0
C809 C 0.2114 0.12776 0.82481 0.0
C810 C 0.14916 0.19237 0.82503 0.0
C811 C 0.09332 0.17731 0.83215 0.0
N812 N 0.19086 0.14771 0.82495 0.0
N813 N 0.11396 0.1575 0.8321 0.0
H814 H 0.21255 0.89271 0.17352 0.0
H815 H 0.09041 0.81539 0.25614 0.0
H816 H 0.18992 0.91471 0.25459 0.0
H817 H 0.11322 0.79376 0.17503 0.0
H818 H 0.12681 0.85174 0.25606 0.0
H819 H 0.17687 0.85588 0.17397 0.0
C820 C 0.20051 0.88948 0.19163 0.0
C821 C 0.20484 0.90638 0.21433 0.0
C822 C 0.12401 0.83889 0.23834 0.0
C823 C 0.16311 0.86469 0.21467 0.0
C824 C 0.10319 0.81815 0.23836 0.0
C825 C 0.09916 0.80097 0.2158 0.0
C826 C 0.14082 0.84273 0.21547 0.0
C827 C 0.11619 0.80568 0.19324 0.0
C828 C 0.17982 0.86861 0.19175 0.0
C829 C 0.18746 0.90203 0.23671 0.0
N830 N 0.13625 0.82607 0.19367 0.0
N831 N 0.16746 0.88158 0.23636 0.0
H832 H 0.18343 0.52008 0.27471 0.0
H833 H 0.09869 0.6647 0.25625 0.0
H834 H 0.14464 0.56523 0.33993 0.0
H835 H 0.10356 0.60126 0.19457 0.0
H836 H 0.12802 0.63506 0.28521 0.0
H837 H 0.16647 0.55646 0.24352 0.0
C838 C 0.17199 0.53799 0.28255 0.0
C839 C 0.1653 0.53958 0.30992 0.0
C840 C 0.12302 0.62789 0.26516 0.0
C841 C 0.14602 0.58118 0.2745 0.0
C842 C 0.10644 0.64486 0.24854 0.0
C843 C 0.09841 0.63536 0.223 0.0
C844 C 0.13203 0.6014 0.25606 0.0
C845 C 0.10901 0.60933 0.21419 0.0
C846 C 0.16215 0.55859 0.26474 0.0
C847 C 0.1501 0.56309 0.31895 0.0
N848 N 0.12513 0.59321 0.23072 0.0
N849 N 0.14093 0.58289 0.30132 0.0
H850 H 0.5668 0.86021 0.70348 0.0
H851 H 0.60135 0.90292 0.8517 0.0
H852 H 0.52216 0.82299 0.76978 0.0
H853 H 0.66426 0.90634 0.78947 0.0
H854 H 0.57219 0.87322 0.82275 0.0
H855 H 0.60293 0.87688 0.73458 0.0
C856 C 0.56488 0.85512 0.72457 0.0
C857 C 0.54144 0.84019 0.73406 0.0
C858 C 0.5926 0.88003 0.81562 0.0
C859 C 0.5824 0.85991 0.76994 0.0
C860 C 0.60926 0.89703 0.83212 0.0
C861 C 0.63527 0.9073 0.82297 0.0
C862 C 0.60164 0.87377 0.78949 0.0
C863 C 0.64441 0.89891 0.79741 0.0
C864 C 0.58553 0.86463 0.74232 0.0
C865 C 0.53999 0.83426 0.76161 0.0
N866 N 0.6274 0.88311 0.78139 0.0
N867 N 0.55989 0.84462 0.77867 0.0
H868 H 0.86262 0.44106 0.34239 0.0
H869 H 0.90284 0.40569 0.19366 0.0
H870 H 0.82361 0.48467 0.27638 0.0
H871 H 0.90803 0.34334 0.25627 0.0
H872 H 0.87359 0.4349 0.22297 0.0
H873 H 0.87925 0.40494 0.31127 0.0
C874 C 0.85715 0.44277 0.32137 0.0
C875 C 0.84172 0.46592 0.31195 0.0
C876 C 0.8807 0.4146 0.23011 0.0
C877 C 0.86136 0.42497 0.27605 0.0
C878 C 0.89745 0.39791 0.21341 0.0
C879 C 0.90807 0.37204 0.22254 0.0
C880 C 0.87504 0.40573 0.25641 0.0
C881 C 0.90032 0.36308 0.24834 0.0
C882 C 0.86663 0.42212 0.30361 0.0
C883 C 0.83529 0.46708 0.28449 0.0
N884 N 0.88475 0.38011 0.26453 0.0
N885 N 0.84561 0.4472 0.26741 0.0
H886 H 0.40395 0.10371 0.85062 0.0
H887 H 0.44004 0.14434 0.70227 0.0
H888 H 0.34183 0.09889 0.78775 0.0
H889 H 0.48376 0.18263 0.76862 0.0
H890 H 0.40358 0.12802 0.73316 0.0
H891 H 0.43325 0.13318 0.82163 0.0
C892 C 0.39623 0.10926 0.83088 0.0
C893 C 0.37042 0.09865 0.82157 0.0
C894 C 0.42085 0.14042 0.74094 0.0
C895 C 0.40422 0.13191 0.78804 0.0
C896 C 0.4417 0.14973 0.72332 0.0
C897 C 0.46499 0.16485 0.7329 0.0
C898 C 0.42363 0.14556 0.76854 0.0
C899 C 0.46608 0.17118 0.76038 0.0
C900 C 0.41298 0.12612 0.81435 0.0
C901 C 0.36152 0.10659 0.7958 0.0
N902 N 0.44599 0.16103 0.77734 0.0
N903 N 0.37862 0.12226 0.77976 0.0
H904 H 0.14477 0.43919 0.70251 0.0
H905 H 0.10219 0.40513 0.85082 0.0
H906 H 0.18235 0.48381 0.76868 0.0
H907 H 0.09881 0.34197 0.78881 0.0
H908 H 0.13185 0.43419 0.82176 0.0
H909 H 0.12804 0.40321 0.73371 0.0
C910 C 0.14993 0.44113 0.72359 0.0
C911 C 0.16499 0.46453 0.73302 0.0
C912 C 0.12505 0.41375 0.8147 0.0
C913 C 0.14518 0.42375 0.769 0.0
C914 C 0.10808 0.39714 0.83127 0.0
C915 C 0.09784 0.37108 0.82221 0.0
C916 C 0.13131 0.40461 0.78861 0.0
C917 C 0.10621 0.36185 0.79667 0.0
C918 C 0.14038 0.42057 0.74139 0.0
C919 C 0.17099 0.46602 0.76055 0.0
N920 N 0.12198 0.37881 0.78059 0.0
N921 N 0.16058 0.44621 0.77767 0.0
H922 H 0.48545 0.82334 0.27537 0.0
H923 H 0.34091 0.90832 0.25667 0.0
H924 H 0.44002 0.86181 0.34058 0.0
H925 H 0.40432 0.90305 0.195 0.0
H926 H 0.37055 0.87911 0.28575 0.0
H927 H 0.44924 0.84054 0.2441 0.0
C928 C 0.46753 0.83477 0.28318 0.0
C929 C 0.4658 0.84128 0.31059 0.0
C930 C 0.37773 0.88401 0.26568 0.0
C931 C 0.42439 0.86085 0.27507 0.0
C932 C 0.36074 0.90052 0.24899 0.0
C933 C 0.37022 0.90839 0.22341 0.0
C934 C 0.4042 0.8749 0.2566 0.0
C935 C 0.39626 0.89773 0.21465 0.0
C936 C 0.44702 0.84475 0.26533 0.0
C937 C 0.44227 0.85648 0.31958 0.0
N938 N 0.41238 0.88167 0.23124 0.0
N939 N 0.42257 0.86578 0.30191 0.0
H940 H 0.86152 0.56563 0.70224 0.0
H941 H 0.90217 0.60149 0.85068 0.0
H942 H 0.82273 0.52225 0.76849 0.0
H943 H 0.90725 0.66366 0.78792 0.0
H944 H 0.87263 0.57233 0.82159 0.0
H945 H 0.87809 0.60196 0.73318 0.0
C946 C 0.85608 0.56402 0.72328 0.0
C947 C 0.84074 0.54087 0.73281 0.0
C948 C 0.87977 0.59258 0.81436 0.0
C949 C 0.8603 0.58206 0.76851 0.0
C950 C 0.89666 0.60925 0.83095 0.0
C951 C 0.90735 0.63504 0.8217 0.0
C952 C 0.87403 0.60139 0.78806 0.0
C953 C 0.89948 0.64398 0.79593 0.0
C954 C 0.86553 0.58479 0.74093 0.0
C955 C 0.83435 0.53983 0.76028 0.0
N956 N 0.88377 0.62695 0.77983 0.0
N957 N 0.84464 0.55984 0.77726 0.0
H958 H 0.553 0.19366 0.30548 0.0
H959 H 0.58752 0.07234 0.20289 0.0
H960 H 0.5148 0.11147 0.30925 0.0
H961 H 0.65846 0.1117 0.24195 0.0
H962 H 0.55593 0.09896 0.23163 0.0
H963 H 0.58792 0.1748 0.27316 0.0
C964 C 0.55192 0.17179 0.2995 0.0
C965 C 0.53109 0.15404 0.31018 0.0
C966 C 0.57841 0.10206 0.23361 0.0
C967 C 0.57005 0.13285 0.27308 0.0
C968 C 0.59659 0.08692 0.21717 0.0
C969 C 0.6259 0.08936 0.22017 0.0
C970 C 0.58934 0.1203 0.25303 0.0
C971 C 0.63606 0.10893 0.23906 0.0
C972 C 0.57183 0.16109 0.28125 0.0
C973 C 0.53061 0.12587 0.30178 0.0
N974 N 0.61778 0.12358 0.25496 0.0
N975 N 0.54951 0.11629 0.28358 0.0
H976 H 0.59871 0.16498 0.75635 0.0
H977 H 0.68335 0.02039 0.7753 0.0
H978 H 0.6032 0.1012 0.69496 0.0
H979 H 0.64442 0.06564 0.84038 0.0
H980 H 0.66629 0.05662 0.74401 0.0
H981 H 0.62796 0.13537 0.78541 0.0
C982 C 0.60637 0.14507 0.74873 0.0
C983 C 0.59825 0.13548 0.72324 0.0
C984 C 0.66195 0.05879 0.76522 0.0
C985 C 0.63179 0.10155 0.7564 0.0
C986 C 0.67185 0.03828 0.78309 0.0
C987 C 0.66517 0.03996 0.81045 0.0
C988 C 0.64577 0.08138 0.77491 0.0
C989 C 0.64989 0.06344 0.81941 0.0
C990 C 0.6229 0.12811 0.7654 0.0
C991 C 0.60872 0.10935 0.71454 0.0
N992 N 0.64067 0.08316 0.80172 0.0
N993 N 0.62481 0.09325 0.73112 0.0
H994 H 0.101 0.40251 0.35054 0.0
H995 H 0.06571 0.36063 0.20222 0.0
H996 H 0.16365 0.4061 0.28809 0.0
H997 H 0.02115 0.32337 0.26855 0.0
H998 H 0.10203 0.37703 0.23326 0.0
H999 H 0.07162 0.37308 0.32155 0.0
C1000 C 0.10881 0.39671 0.3309 0.0
C1001 C 0.13481 0.40695 0.32171 0.0
C1002 C 0.0846 0.36483 0.24102 0.0
C1003 C 0.10092 0.37373 0.28818 0.0
C1004 C 0.06385 0.35547 0.22331 0.0
C1005 C 0.04037 0.34061 0.23282 0.0
C1006 C 0.08155 0.36003 0.26863 0.0
C1007 C 0.03899 0.33459 0.26035 0.0
C1008 C 0.09201 0.37987 0.31437 0.0
C1009 C 0.14381 0.39869 0.29606 0.0
N1010 N 0.059 0.3448 0.27738 0.0
N1011 N 0.12667 0.38304 0.28002 0.0
H1012 H 0.40817 0.84108 0.75637 0.0
H1013 H 0.32301 0.98542 0.77477 0.0
H1014 H 0.40416 0.9049 0.69501 0.0
H1015 H 0.36154 0.94029 0.84013 0.0
H1016 H 0.34048 0.94928 0.74358 0.0
H1017 H 0.37867 0.87065 0.78522 0.0
C1018 C 0.40059 0.861 0.7487 0.0
C1019 C 0.4089 0.87061 0.72328 0.0
C1020 C 0.34464 0.9471 0.76483 0.0
C1021 C 0.37505 0.90448 0.75622 0.0
C1022 C 0.33449 0.96756 0.78264 0.0
C1023 C 0.34095 0.9659 0.81006 0.0
C1024 C 0.36082 0.92458 0.77462 0.0
C1025 C 0.35624 0.94246 0.81912 0.0
C1026 C 0.38391 0.87794 0.76526 0.0
C1027 C 0.3985 0.89674 0.71454 0.0
N1028 N 0.36569 0.9228 0.80148 0.0
N1029 N 0.38225 0.91282 0.731 0.0
H1030 H 0.98459 0.6842 0.26883 0.0
H1031 H 0.84079 0.59849 0.28835 0.0
H1032 H 0.94079 0.64278 0.20423 0.0
H1033 H 0.9042 0.60448 0.34999 0.0
H1034 H 0.87041 0.62737 0.25898 0.0
H1035 H 0.94827 0.66739 0.30014 0.0
C1036 C 0.96699 0.67218 0.26113 0.0
C1037 C 0.96576 0.66474 0.23392 0.0
C1038 C 0.87757 0.62272 0.27911 0.0
C1039 C 0.92422 0.64567 0.26948 0.0
C1040 C 0.86061 0.60642 0.29597 0.0
C1041 C 0.87011 0.59882 0.32162 0.0
C1042 C 0.90403 0.63193 0.2881 0.0
C1043 C 0.89613 0.6096 0.33029 0.0
C1044 C 0.94643 0.66244 0.27901 0.0
C1045 C 0.94265 0.64884 0.22508 0.0
N1046 N 0.91223 0.62548 0.31354 0.0
N1047 N 0.92285 0.6398 0.24278 0.0
H1048 H 0.6542 0.93243 0.20489 0.0
H1049 H 0.60043 0.90671 0.35188 0.0
H1050 H 0.67985 0.9857 0.2704 0.0
H1051 H 0.60308 0.84038 0.29289 0.0
H1052 H 0.63125 0.9351 0.32341 0.0
H1053 H 0.63752 0.89749 0.23711 0.0
C1054 C 0.65688 0.93648 0.22611 0.0
C1055 C 0.66842 0.96202 0.23498 0.0
C1056 C 0.62551 0.91415 0.3169 0.0
C1057 C 0.64854 0.92241 0.27209 0.0
C1058 C 0.60785 0.89791 0.33313 0.0
C1059 C 0.59889 0.87115 0.3247 0.0
C1060 C 0.63389 0.90386 0.29174 0.0
C1061 C 0.60934 0.86087 0.30023 0.0
C1062 C 0.64731 0.91653 0.24452 0.0
C1063 C 0.67127 0.96621 0.26271 0.0
N1064 N 0.62583 0.87742 0.28442 0.0
N1065 N 0.66085 0.94687 0.2803 0.0
H1066 H 0.98461 0.32259 0.77516 0.0
H1067 H 0.84003 0.40734 0.75638 0.0
H1068 H 0.93953 0.36166 0.84027 0.0
H1069 H 0.90361 0.40247 0.69484 0.0
H1070 H 0.86966 0.37811 0.78543 0.0
H1071 H 0.94827 0.33955 0.74392 0.0
C1072 C 0.96673 0.3341 0.78296 0.0
C1073 C 0.96514 0.34086 0.81032 0.0
C1074 C 0.87687 0.38308 0.76539 0.0
C1075 C 0.92359 0.36013 0.77483 0.0
C1076 C 0.85989 0.39961 0.74871 0.0
C1077 C 0.86943 0.40762 0.72319 0.0
C1078 C 0.90338 0.37409 0.75634 0.0
C1079 C 0.89551 0.39704 0.71445 0.0
C1080 C 0.94616 0.34394 0.76513 0.0
C1081 C 0.94167 0.35614 0.81931 0.0
N1082 N 0.91162 0.38097 0.73102 0.0
N1083 N 0.92189 0.3653 0.80164 0.0
H1084 H 0.36361 0.06505 0.20248 0.0
H1085 H 0.39018 0.10558 0.35304 0.0
H1086 H 0.31823 0.02468 0.26664 0.0
H1087 H 0.40659 0.16339 0.28827 0.0
H1088 H 0.36212 0.07668 0.32249 0.0
H1089 H 0.37823 0.10202 0.23354 0.0
C1090 C 0.35637 0.0642 0.22305 0.0
C1091 C 0.33976 0.04166 0.232 0.0
C1092 C 0.37137 0.09597 0.31508 0.0
C1093 C 0.35697 0.08373 0.26791 0.0
C1094 C 0.3874 0.11253 0.33253 0.0
C1095 C 0.40096 0.13691 0.3232 0.0
C1096 C 0.36935 0.10345 0.28792 0.0
C1097 C 0.39655 0.14482 0.29639 0.0
C1098 C 0.36469 0.08537 0.24078 0.0
C1099 C 0.33096 0.0417 0.25888 0.0
N1100 N 0.38162 0.12787 0.27959 0.0
N1101 N 0.34011 0.06211 0.27602 0.0
H1102 H 0.02064 0.68275 0.77514 0.0
H1103 H 0.16471 0.59732 0.75586 0.0
H1104 H 0.06571 0.64343 0.84012 0.0
H1105 H 0.1008 0.60213 0.6946 0.0
H1106 H 0.13528 0.62665 0.785 0.0
H1107 H 0.05671 0.66548 0.74378 0.0
C1108 C 0.03847 0.67112 0.78289 0.0
C1109 C 0.04014 0.66439 0.81025 0.0
C1110 C 0.12795 0.62163 0.76501 0.0
C1111 C 0.08137 0.64476 0.77462 0.0
C1112 C 0.14481 0.60504 0.74828 0.0
C1113 C 0.13513 0.59701 0.7228 0.0
C1114 C 0.10142 0.63066 0.75607 0.0
C1115 C 0.10902 0.60758 0.71417 0.0
C1116 C 0.05889 0.6611 0.76498 0.0
C1117 C 0.06353 0.64895 0.81916 0.0
N1118 N 0.09302 0.62373 0.73079 0.0
N1119 N 0.08316 0.63961 0.80143 0.0
H1120 H 0.22646 0.56173 0.57746 0.0
H1121 H 0.22126 0.4404 0.46649 0.0
H1122 H 0.21827 0.47368 0.59569 0.0
H1123 H 0.22375 0.52872 0.44795 0.0
H1124 H 0.23022 0.45153 0.51381 0.0
H1125 H 0.23555 0.54967 0.53035 0.0
C1126 C 0.22752 0.53981 0.57162 0.0
C1127 C 0.22194 0.51862 0.59036 0.0
C1128 C 0.22948 0.4685 0.49935 0.0
C1129 C 0.23142 0.50458 0.53652 0.0
C1130 C 0.22465 0.46208 0.47234 0.0
C1131 C 0.22215 0.48368 0.45342 0.0
C1132 C 0.23145 0.49678 0.50751 0.0
C1133 C 0.22595 0.5115 0.46199 0.0
C1134 C 0.23242 0.5329 0.54472 0.0
C1135 C 0.22283 0.49055 0.58179 0.0
N1136 N 0.2301 0.51729 0.48844 0.0
N1137 N 0.22714 0.48435 0.55546 0.0
H1138 H 0.56374 0.78217 0.46698 0.0
H1139 H 0.44323 0.77939 0.57881 0.0
H1140 H 0.47517 0.78315 0.44928 0.0
H1141 H 0.53162 0.78534 0.59648 0.0
H1142 H 0.45468 0.7703 0.53158 0.0
H1143 H 0.55278 0.77289 0.51429 0.0
C1144 C 0.54202 0.77947 0.47299 0.0
C1145 C 0.52031 0.78308 0.45433 0.0
C1146 C 0.47165 0.77292 0.54585 0.0
C1147 C 0.50745 0.77338 0.50839 0.0
C1148 C 0.46507 0.77782 0.57282 0.0
C1149 C 0.48655 0.78278 0.59144 0.0
C1150 C 0.49992 0.77331 0.53745 0.0
C1151 C 0.51452 0.78126 0.58268 0.0
C1152 C 0.53571 0.77446 0.5 0.0
C1153 C 0.49245 0.78012 0.46311 0.0
N1154 N 0.52041 0.77697 0.55628 0.0
N1155 N 0.4868 0.77576 0.48954 0.0
H1156 H 0.78129 0.47642 0.44612 0.0
H1157 H 0.77788 0.52875 0.59867 0.0
H1158 H 0.78552 0.56337 0.46967 0.0
H1159 H 0.78741 0.44223 0.5751 0.0
H1160 H 0.76923 0.54145 0.55165 0.0
H1161 H 0.7721 0.46334 0.49292 0.0
C1162 C 0.77931 0.4928 0.4611 0.0
C1163 C 0.78374 0.521 0.45414 0.0
C1164 C 0.77253 0.51957 0.55679 0.0
C1165 C 0.77414 0.50628 0.50777 0.0
C1166 C 0.77715 0.51232 0.58363 0.0
C1167 C 0.78291 0.48438 0.59065 0.0
C1168 C 0.77395 0.49872 0.53682 0.0
C1169 C 0.78259 0.46393 0.57043 0.0
C1170 C 0.77437 0.48536 0.48783 0.0
C1171 C 0.78178 0.54144 0.47429 0.0
N1172 N 0.77846 0.47152 0.5444 0.0
N1173 N 0.77739 0.53368 0.50024 0.0
H1174 H 0.52848 0.22288 0.44585 0.0
H1175 H 0.47793 0.22928 0.59895 0.0
H1176 H 0.44175 0.22024 0.47037 0.0
H1177 H 0.56359 0.21509 0.57462 0.0
H1178 H 0.46512 0.23797 0.55195 0.0
H1179 H 0.5423 0.23197 0.49251 0.0
C1180 C 0.51232 0.22519 0.461 0.0
C1181 C 0.48396 0.22125 0.45437 0.0
C1182 C 0.48686 0.23364 0.55691 0.0
C1183 C 0.4995 0.23079 0.5078 0.0
C1184 C 0.49419 0.229 0.58374 0.0
C1185 C 0.52189 0.22191 0.59054 0.0
C1186 C 0.50739 0.23095 0.53676 0.0
C1187 C 0.5421 0.22095 0.57011 0.0
C1188 C 0.52018 0.23008 0.48764 0.0
C1189 C 0.46381 0.22362 0.47473 0.0
N1190 N 0.53443 0.22517 0.54412 0.0
N1191 N 0.47196 0.228 0.50058 0.0
H1192 H 0.73293 0.94529 0.96507 0.0
H1193 H 0.74532 0.98434 0.09925 0.0
H1194 H 0.71411 0.03227 0.94956 0.0
H1195 H 0.70213 0.05923 0.0738 0.0
H1196 H 0.75545 0.97309 0.05222 0.0
H1197 H 0.74246 0.95697 1.01199 0.0
C1198 C 0.73186 0.96704 0.97144 0.0
C1199 C 0.72289 0.98788 0.95354 0.0
C1200 C 0.74397 0.99212 0.05675 0.0
C1201 C 0.73345 1.00169 1.00732 0.0
C1202 C 0.7387 0.99879 0.0837 0.0
C1203 C 0.7231 0.02283 0.09028 0.0
C1204 C 0.73316 0.00953 0.03632 0.0
C1205 C 0.71446 0.04063 0.06948 0.0
C1206 C 0.73725 0.97382 0.99833 0.0
C1207 C 0.72116 0.01566 0.9628 0.0
N1208 N 0.71938 0.03351 0.0435 0.0
N1209 N 0.72594 0.02166 0.98907 0.0
H1210 H 0.06369 0.28341 0.96686 0.0
H1211 H 0.94197 0.28076 0.07739 0.0
H1212 H 0.97534 0.28324 0.94813 0.0
H1213 H 0.0302 0.28554 0.09608 0.0
H1214 H 0.9539 0.27167 0.03027 0.0
H1215 H 0.05224 0.27423 1.01407 0.0
C1216 C 0.04192 0.28048 0.97263 0.0
C1217 C 0.02041 0.28372 0.9537 0.0
C1218 C 0.97071 0.27403 0.04473 0.0
C1219 C 0.00698 0.27417 1.00767 0.0
C1220 C 0.96387 0.27893 0.07165 0.0
C1221 C 0.98517 0.28355 0.09053 0.0
C1222 C 0.99909 0.2741 0.03665 0.0
C1223 C 0.01323 0.2817 0.08207 0.0
C1224 C 0.03533 0.27553 0.99959 0.0
C1225 C 0.99248 0.28049 0.96218 0.0
N1226 N 0.01939 0.27745 0.05572 0.0
N1227 N 0.98654 0.27621 0.98857 0.0
H1228 H 0.27424 0.94547 0.07822 0.0
H1229 H 0.26167 0.98699 0.9447 0.0
H1230 H 0.29206 0.03232 0.09537 0.0
H1231 H 0.30564 0.06097 0.97141 0.0
H1232 H 0.25155 0.97495 0.99157 0.0
H1233 H 0.26516 0.95788 0.03139 0.0
C1234 C 0.27517 0.96734 0.07222 0.0
C1235 C 0.2837 0.98795 0.09056 0.0
C1236 C 0.26327 0.99391 0.98733 0.0
C1237 C 0.27368 0.00258 0.03691 0.0
C1238 C 0.26857 1.00102 0.9605 0.0
C1239 C 0.28444 0.025 0.95433 0.0
C1240 C 0.27422 0.01086 1.00805 0.0
C1241 C 0.29325 0.04234 0.97543 0.0
C1242 C 0.27003 0.97453 0.0454 0.0
C1243 C 0.2853 0.0159 0.08178 0.0
N1244 N 0.28824 0.03482 1.00129 0.0
N1245 N 0.2808 0.02231 0.05556 0.0
H1246 H 0.01867 0.74391 0.94537 0.0
H1247 H 0.05972 0.73253 0.07926 0.0
H1248 H 0.94534 0.69865 0.97174 0.0
H1249 H 0.97326 0.7122 0.09572 0.0
H1250 H 0.04739 0.74138 0.03237 0.0
H1251 H 0.0304 0.75415 0.9923 0.0
C1252 C 0.00471 0.73674 0.96111 0.0
C1253 C 0.98102 0.72049 0.95482 0.0
C1254 C 0.03078 0.73599 0.04623 0.0
C1255 C 0.9948 0.73087 1.00862 0.0
C1256 C 0.03792 0.731 0.0731 0.0
C1257 C 0.01742 0.72182 0.09127 0.0
C1258 C 0.0029 0.73156 0.03754 0.0
C1259 C 0.98959 0.71946 0.08228 0.0
C1260 C 0.01164 0.74212 0.98798 0.0
C1261 C 0.96376 0.71134 0.97585 0.0
N1262 N 0.98325 0.72385 0.05602 0.0
N1263 N 0.97111 0.71644 1.00174 0.0
loop_
_geom_bond_atom_site_label_1
_geom_bond_atom_site_label_2
_geom_bond_distance
_geom_bond_site_symmetry_2
_ccdc_geom_bond_type
Co0 O3 1.970 . S
Co0 N17 1.989 . S
Co0 O25 1.967 . S
Co0 O32 1.920 . S
Co1 O4 1.966 . S
Co1 N10 2.022 . S
Co1 N18 1.993 . S
Co1 O26 1.941 . S
C2 O3 1.258 . S
C2 O4 1.263 . S
O3 Co0 1.970 . S
O3 C2 1.258 . S
O4 Co1 1.966 . S
O4 C2 1.263 . S
C5 O6 1.235 . S
C5 O32 1.289 . S
O6 C5 1.235 . S
C7 C9 1.400 . S
C7 N10 1.351 . S
C7 C12 1.501 . S
C8 C9 1.387 . S
C8 N11 1.341 . S
C9 C7 1.400 . S
C9 C8 1.387 . S
N10 Co1 2.022 . S
N10 C7 1.351 . S
N10 N11 1.365 . S
N11 C8 1.341 . S
N11 N10 1.365 . S
N11 H31 0.862 . S
C12 C7 1.501 . S
C12 H13 0.961 . S
C12 H14 0.961 . S
C12 H15 0.960 . S
H13 C12 0.961 . S
H14 C12 0.961 . S
H15 C12 0.960 . S
C16 N17 1.342 . S
C16 C20 1.401 . S
C16 C21 1.499 . S
N17 Co0 1.989 . S
N17 C16 1.342 . S
N17 N18 1.388 . S
N18 Co1 1.993 . S
N18 N17 1.388 . S
N18 C19 1.346 . S
C19 N18 1.346 . S
C19 C20 1.396 . S
C19 C29 1.510 . S
C20 C16 1.401 . S
C20 C19 1.396 . S
C21 C16 1.499 . S
C21 H22 0.959 . S
C21 H23 0.960 . S
C21 H24 0.961 . S
H22 C21 0.959 . S
H23 C21 0.960 . S
H24 C21 0.961 . S
O25 Co0 1.967 . S
O25 C33 1.258 . S
O26 Co1 1.941 . S
O26 C33 1.266 . S
H27 C29 0.959 . S
H28 C29 0.961 . S
C29 C19 1.510 . S
C29 H27 0.959 . S
C29 H28 0.961 . S
C29 H30 0.960 . S
H30 C29 0.960 . S
H31 N11 0.862 . S
O32 Co0 1.920 . S
O32 C5 1.289 . S
C33 O25 1.258 . S
C33 O26 1.266 . S
Co34 O37 1.970 . S
Co34 N51 1.989 . S
Co34 O59 1.967 . S
Co34 O66 1.920 . S
Co35 O38 1.966 . S
Co35 N44 2.022 . S
Co35 N52 1.993 . S
Co35 O60 1.941 . S
C36 O37 1.258 . S
C36 O38 1.263 . S
O37 Co34 1.970 . S
O37 C36 1.258 . S
O38 Co35 1.966 . S
O38 C36 1.263 . S
C39 O40 1.235 . S
C39 O66 1.289 . S
O40 C39 1.235 . S
C41 C43 1.400 . S
C41 N44 1.351 . S
C41 C46 1.501 . S
C42 C43 1.387 . S
C42 N45 1.341 . S
C43 C41 1.400 . S
C43 C42 1.387 . S
N44 Co35 2.022 . S
N44 C41 1.351 . S
N44 N45 1.365 . S
N45 C42 1.341 . S
N45 N44 1.365 . S
N45 H65 0.862 . S
C46 C41 1.501 . S
C46 H47 0.961 . S
C46 H48 0.961 . S
C46 H49 0.960 . S
H47 C46 0.961 . S
H48 C46 0.961 . S
H49 C46 0.960 . S
C50 N51 1.342 . S
C50 C54 1.401 . S
C50 C55 1.499 . S
N51 Co34 1.989 . S
N51 C50 1.342 . S
N51 N52 1.388 . S
N52 Co35 1.993 . S
N52 N51 1.388 . S
N52 C53 1.346 . S
C53 N52 1.346 . S
C53 C54 1.396 . S
C53 C63 1.510 . S
C54 C50 1.401 . S
C54 C53 1.396 . S
C55 C50 1.499 . S
C55 H56 0.959 . S
C55 H57 0.960 . S
C55 H58 0.961 . S
H56 C55 0.959 . S
H57 C55 0.960 . S
H58 C55 0.961 . S
O59 Co34 1.967 . S
O59 C67 1.258 . S
O60 Co35 1.941 . S
O60 C67 1.266 . S
H61 C63 0.959 . S
H62 C63 0.961 . S
C63 C53 1.510 . S
C63 H61 0.959 . S
C63 H62 0.961 . S
C63 H64 0.960 . S
H64 C63 0.960 . S
H65 N45 0.862 . S
O66 Co34 1.920 . S
O66 C39 1.289 . S
C67 O59 1.258 . S
C67 O60 1.266 . S
Co68 O71 1.970 . S
Co68 N85 1.989 . S
Co68 O93 1.967 . S
Co68 O100 1.920 . S
Co69 O72 1.966 . S
Co69 N78 2.022 . S
Co69 N86 1.993 . S
Co69 O94 1.941 . S
C70 O71 1.258 . S
C70 O72 1.263 . S
O71 Co68 1.970 . S
O71 C70 1.258 . S
O72 Co69 1.966 . S
O72 C70 1.263 . S
C73 O74 1.235 . S
C73 O100 1.289 . S
O74 C73 1.235 . S
C75 C77 1.400 . S
C75 N78 1.351 . S
C75 C80 1.501 . S
C76 C77 1.387 . S
C76 N79 1.341 . S
C77 C75 1.400 . S
C77 C76 1.387 . S
N78 Co69 2.022 . S
N78 C75 1.351 . S
N78 N79 1.365 . S
N79 C76 1.341 . S
N79 N78 1.365 . S
N79 H99 0.862 . S
C80 C75 1.501 . S
C80 H81 0.961 . S
C80 H82 0.961 . S
C80 H83 0.960 . S
H81 C80 0.961 . S
H82 C80 0.961 . S
H83 C80 0.960 . S
C84 N85 1.342 . S
C84 C88 1.401 . S
C84 C89 1.499 . S
N85 Co68 1.989 . S
N85 C84 1.342 . S
N85 N86 1.388 . S
N86 Co69 1.993 . S
N86 N85 1.388 . S
N86 C87 1.346 . S
C87 N86 1.346 . S
C87 C88 1.396 . S
C87 C97 1.510 . S
C88 C84 1.401 . S
C88 C87 1.396 . S
C89 C84 1.499 . S
C89 H90 0.959 . S
C89 H91 0.960 . S
C89 H92 0.961 . S
H90 C89 0.959 . S
H91 C89 0.960 . S
H92 C89 0.961 . S
O93 Co68 1.967 . S
O93 C101 1.258 . S
O94 Co69 1.941 . S
O94 C101 1.266 . S
H95 C97 0.959 . S
H96 C97 0.961 . S
C97 C87 1.510 . S
C97 H95 0.959 . S
C97 H96 0.961 . S
C97 H98 0.960 . S
H98 C97 0.960 . S
H99 N79 0.862 . S
O100 Co68 1.920 . S
O100 C73 1.289 . S
C101 O93 1.258 . S
C101 O94 1.266 . S
Co102 O105 1.970 . S
Co102 N119 1.989 . S
Co102 O127 1.967 . S
Co102 O134 1.920 . S
Co103 O106 1.966 . S
Co103 N112 2.022 . S
Co103 N120 1.993 . S
Co103 O128 1.941 . S
C104 O105 1.258 . S
C104 O106 1.263 . S
O105 Co102 1.970 . S
O105 C104 1.258 . S
O106 Co103 1.966 . S
O106 C104 1.263 . S
C107 O108 1.235 . S
C107 O134 1.289 . S
O108 C107 1.235 . S
C109 C111 1.400 . S
C109 N112 1.351 . S
C109 C114 1.501 . S
C110 C111 1.387 . S
C110 N113 1.341 . S
C111 C109 1.400 . S
C111 C110 1.387 . S
N112 Co103 2.022 . S
N112 C109 1.351 . S
N112 N113 1.365 . S
N113 C110 1.341 . S
N113 N112 1.365 . S
N113 H133 0.862 . S
C114 C109 1.501 . S
C114 H115 0.961 . S
C114 H116 0.961 . S
C114 H117 0.960 . S
H115 C114 0.961 . S
H116 C114 0.961 . S
H117 C114 0.960 . S
C118 N119 1.342 . S
C118 C122 1.401 . S
C118 C123 1.499 . S
N119 Co102 1.989 . S
N119 C118 1.342 . S
N119 N120 1.388 . S
N120 Co103 1.993 . S
N120 N119 1.388 . S
N120 C121 1.346 . S
C121 N120 1.346 . S
C121 C122 1.396 . S
C121 C131 1.510 . S
C122 C118 1.401 . S
C122 C121 1.396 . S
C123 C118 1.499 . S
C123 H124 0.959 . S
C123 H125 0.960 . S
C123 H126 0.961 . S
H124 C123 0.959 . S
H125 C123 0.960 . S
H126 C123 0.961 . S
O127 Co102 1.967 . S
O127 C135 1.258 . S
O128 Co103 1.941 . S
O128 C135 1.266 . S
H129 C131 0.959 . S
H130 C131 0.961 . S
C131 C121 1.510 . S
C131 H129 0.959 . S
C131 H130 0.961 . S
C131 H132 0.960 . S
H132 C131 0.960 . S
H133 N113 0.862 . S
O134 Co102 1.920 . S
O134 C107 1.289 . S
C135 O127 1.258 . S
C135 O128 1.266 . S
Co136 O139 1.970 . S
Co136 N153 1.989 . S
Co136 O161 1.967 . S
Co136 O168 1.920 . S
Co137 O140 1.966 . S
Co137 N146 2.022 . S
Co137 N154 1.993 . S
Co137 O162 1.941 . S
C138 O139 1.258 . S
C138 O140 1.263 . S
O139 Co136 1.970 . S
O139 C138 1.258 . S
O140 Co137 1.966 . S
O140 C138 1.263 . S
C141 O142 1.235 . S
C141 O168 1.289 . S
O142 C141 1.235 . S
C143 C145 1.400 . S
C143 N146 1.351 . S
C143 C148 1.501 . S
C144 C145 1.387 . S
C144 N147 1.341 . S
C145 C143 1.400 . S
C145 C144 1.387 . S
N146 Co137 2.022 . S
N146 C143 1.351 . S
N146 N147 1.365 . S
N147 C144 1.341 . S
N147 N146 1.365 . S
N147 H167 0.862 . S
C148 C143 1.501 . S
C148 H149 0.961 . S
C148 H150 0.961 . S
C148 H151 0.960 . S
H149 C148 0.961 . S
H150 C148 0.961 . S
H151 C148 0.960 . S
C152 N153 1.342 . S
C152 C156 1.401 . S
C152 C157 1.499 . S
N153 Co136 1.989 . S
N153 C152 1.342 . S
N153 N154 1.388 . S
N154 Co137 1.993 . S
N154 N153 1.388 . S
N154 C155 1.346 . S
C155 N154 1.346 . S
C155 C156 1.396 . S
C155 C165 1.510 . S
C156 C152 1.401 . S
C156 C155 1.396 . S
C157 C152 1.499 . S
C157 H158 0.959 . S
C157 H159 0.960 . S
C157 H160 0.961 . S
H158 C157 0.959 . S
H159 C157 0.960 . S
H160 C157 0.961 . S
O161 Co136 1.967 . S
O161 C169 1.258 . S
O162 Co137 1.941 . S
O162 C169 1.266 . S
H163 C165 0.959 . S
H164 C165 0.961 . S
C165 C155 1.510 . S
C165 H163 0.959 . S
C165 H164 0.961 . S
C165 H166 0.960 . S
H166 C165 0.960 . S
H167 N147 0.862 . S
O168 Co136 1.920 . S
O168 C141 1.289 . S
C169 O161 1.258 . S
C169 O162 1.266 . S
Co170 O173 1.970 . S
Co170 N187 1.989 . S
Co170 O195 1.967 . S
Co170 O202 1.920 . S
Co171 O174 1.966 . S
Co171 N180 2.022 . S
Co171 N188 1.993 . S
Co171 O196 1.941 . S
C172 O173 1.258 . S
C172 O174 1.263 . S
O173 Co170 1.970 . S
O173 C172 1.258 . S
O174 Co171 1.966 . S
O174 C172 1.263 . S
C175 O176 1.235 . S
C175 O202 1.289 . S
O176 C175 1.235 . S
C177 C179 1.400 . S
C177 N180 1.351 . S
C177 C182 1.501 . S
C178 C179 1.387 . S
C178 N181 1.341 . S
C179 C177 1.400 . S
C179 C178 1.387 . S
N180 Co171 2.022 . S
N180 C177 1.351 . S
N180 N181 1.365 . S
N181 C178 1.341 . S
N181 N180 1.365 . S
N181 H201 0.862 . S
C182 C177 1.501 . S
C182 H183 0.961 . S
C182 H184 0.961 . S
C182 H185 0.960 . S
H183 C182 0.961 . S
H184 C182 0.961 . S
H185 C182 0.960 . S
C186 N187 1.342 . S
C186 C190 1.401 . S
C186 C191 1.499 . S
N187 Co170 1.989 . S
N187 C186 1.342 . S
N187 N188 1.388 . S
N188 Co171 1.993 . S
N188 N187 1.388 . S
N188 C189 1.346 . S
C189 N188 1.346 . S
C189 C190 1.396 . S
C189 C199 1.510 . S
C190 C186 1.401 . S
C190 C189 1.396 . S
C191 C186 1.499 . S
C191 H192 0.959 . S
C191 H193 0.960 . S
C191 H194 0.961 . S
H192 C191 0.959 . S
H193 C191 0.960 . S
H194 C191 0.961 . S
O195 Co170 1.967 . S
O195 C203 1.258 . S
O196 Co171 1.941 . S
O196 C203 1.266 . S
H197 C199 0.959 . S
H198 C199 0.961 . S
C199 C189 1.510 . S
C199 H197 0.959 . S
C199 H198 0.961 . S
C199 H200 0.960 . S
H200 C199 0.960 . S
H201 N181 0.862 . S
O202 Co170 1.920 . S
O202 C175 1.289 . S
C203 O195 1.258 . S
C203 O196 1.266 . S
Co204 O207 1.970 . S
Co204 N221 1.989 . S
Co204 O229 1.967 . S
Co204 O236 1.920 . S
Co205 O208 1.966 . S
Co205 N214 2.022 . S
Co205 N222 1.993 . S
Co205 O230 1.941 . S
C206 O207 1.258 . S
C206 O208 1.263 . S
O207 Co204 1.970 . S
O207 C206 1.258 . S
O208 Co205 1.966 . S
O208 C206 1.263 . S
C209 O210 1.235 . S
C209 O236 1.289 . S
O210 C209 1.235 . S
C211 C213 1.400 . S
C211 N214 1.351 . S
C211 C216 1.501 . S
C212 C213 1.387 . S
C212 N215 1.341 . S
C213 C211 1.400 . S
C213 C212 1.387 . S
N214 Co205 2.022 . S
N214 C211 1.351 . S
N214 N215 1.365 . S
N215 C212 1.341 . S
N215 N214 1.365 . S
N215 H235 0.862 . S
C216 C211 1.501 . S
C216 H217 0.961 . S
C216 H218 0.961 . S
C216 H219 0.960 . S
H217 C216 0.961 . S
H218 C216 0.961 . S
H219 C216 0.960 . S
C220 N221 1.342 . S
C220 C224 1.401 . S
C220 C225 1.499 . S
N221 Co204 1.989 . S
N221 C220 1.342 . S
N221 N222 1.388 . S
N222 Co205 1.993 . S
N222 N221 1.388 . S
N222 C223 1.346 . S
C223 N222 1.346 . S
C223 C224 1.396 . S
C223 C233 1.510 . S
C224 C220 1.401 . S
C224 C223 1.396 . S
C225 C220 1.499 . S
C225 H226 0.959 . S
C225 H227 0.960 . S
C225 H228 0.961 . S
H226 C225 0.959 . S
H227 C225 0.960 . S
H228 C225 0.961 . S
O229 Co204 1.967 . S
O229 C237 1.258 . S
O230 Co205 1.941 . S
O230 C237 1.266 . S
H231 C233 0.959 . S
H232 C233 0.961 . S
C233 C223 1.510 . S
C233 H231 0.959 . S
C233 H232 0.961 . S
C233 H234 0.960 . S
H234 C233 0.960 . S
H235 N215 0.862 . S
O236 Co204 1.920 . S
O236 C209 1.289 . S
C237 O229 1.258 . S
C237 O230 1.266 . S
Co238 O241 1.970 . S
Co238 N255 1.989 . S
Co238 O263 1.967 . S
Co238 O270 1.920 . S
Co239 O242 1.966 . S
Co239 N248 2.022 . S
Co239 N256 1.993 . S
Co239 O264 1.941 . S
C240 O241 1.258 . S
C240 O242 1.263 . S
O241 Co238 1.970 . S
O241 C240 1.258 . S
O242 Co239 1.966 . S
O242 C240 1.263 . S
C243 O244 1.235 . S
C243 O270 1.289 . S
O244 C243 1.235 . S
C245 C247 1.400 . S
C245 N248 1.351 . S
C245 C250 1.501 . S
C246 C247 1.387 . S
C246 N249 1.341 . S
C247 C245 1.400 . S
C247 C246 1.387 . S
N248 Co239 2.022 . S
N248 C245 1.351 . S
N248 N249 1.365 . S
N249 C246 1.341 . S
N249 N248 1.365 . S
N249 H269 0.862 . S
C250 C245 1.501 . S
C250 H251 0.961 . S
C250 H252 0.961 . S
C250 H253 0.960 . S
H251 C250 0.961 . S
H252 C250 0.961 . S
H253 C250 0.960 . S
C254 N255 1.342 . S
C254 C258 1.401 . S
C254 C259 1.499 . S
N255 Co238 1.989 . S
N255 C254 1.342 . S
N255 N256 1.388 . S
N256 Co239 1.993 . S
N256 N255 1.388 . S
N256 C257 1.346 . S
C257 N256 1.346 . S
C257 C258 1.396 . S
C257 C267 1.510 . S
C258 C254 1.401 . S
C258 C257 1.396 . S
C259 C254 1.499 . S
C259 H260 0.959 . S
C259 H261 0.960 . S
C259 H262 0.961 . S
H260 C259 0.959 . S
H261 C259 0.960 . S
H262 C259 0.961 . S
O263 Co238 1.967 . S
O263 C271 1.258 . S
O264 Co239 1.941 . S
O264 C271 1.266 . S
H265 C267 0.959 . S
H266 C267 0.961 . S
C267 C257 1.510 . S
C267 H265 0.959 . S
C267 H266 0.961 . S
C267 H268 0.960 . S
H268 C267 0.960 . S
H269 N249 0.862 . S
O270 Co238 1.920 . S
O270 C243 1.289 . S
C271 O263 1.258 . S
C271 O264 1.266 . S
Co272 O275 1.970 . S
Co272 N289 1.989 . S
Co272 O297 1.967 1_565 S
Co272 O304 1.923 . S
Co273 O276 1.966 . S
Co273 N282 2.022 . S
Co273 N290 1.993 . S
Co273 O298 1.941 . S
C274 O275 1.258 . S
C274 O276 1.263 . S
O275 Co272 1.970 . S
O275 C274 1.258 . S
O276 Co273 1.966 . S
O276 C274 1.263 . S
C277 O278 1.235 . S
C277 O304 1.292 . S
O278 C277 1.235 . S
C279 C281 1.400 . S
C279 N282 1.351 . S
C279 C284 1.501 . S
C280 C281 1.387 . S
C280 N283 1.341 . S
C281 C279 1.400 . S
C281 C280 1.387 . S
N282 Co273 2.022 . S
N282 C279 1.351 . S
N282 N283 1.365 . S
N283 C280 1.341 . S
N283 N282 1.365 . S
N283 H303 0.862 . S
C284 C279 1.501 . S
C284 H285 0.961 . S
C284 H286 0.961 . S
C284 H287 0.960 . S
H285 C284 0.961 . S
H286 C284 0.961 . S
H287 C284 0.960 . S
C288 N289 1.342 . S
C288 C292 1.401 . S
C288 C293 1.499 . S
N289 Co272 1.989 . S
N289 C288 1.342 . S
N289 N290 1.388 . S
N290 Co273 1.993 . S
N290 N289 1.388 . S
N290 C291 1.346 . S
C291 N290 1.346 . S
C291 C292 1.396 . S
C291 C301 1.510 . S
C292 C288 1.401 . S
C292 C291 1.396 . S
C293 C288 1.499 . S
C293 H294 0.956 1_565 S
C293 H295 0.960 . S
C293 H296 0.961 1_565 S
H294 C293 0.956 1_545 S
H295 C293 0.960 . S
H296 C293 0.961 1_545 S
O297 Co272 1.967 1_545 S
O297 C305 1.258 . S
O298 Co273 1.941 . S
O298 C305 1.266 1_565 S
H299 C301 0.959 . S
H300 C301 0.961 . S
C301 C291 1.510 . S
C301 H299 0.959 . S
C301 H300 0.961 . S
C301 H302 0.960 . S
H302 C301 0.960 . S
H303 N283 0.862 . S
O304 Co272 1.923 . S
O304 C277 1.292 . S
C305 O297 1.258 . S
C305 O298 1.266 1_545 S
Co306 O309 1.970 . S
Co306 N323 1.989 . S
Co306 O331 1.967 1_655 S
Co306 O338 1.923 . S
Co307 O310 1.966 . S
Co307 N316 2.022 . S
Co307 N324 1.993 . S
Co307 O332 1.941 . S
C308 O309 1.258 . S
C308 O310 1.263 . S
O309 Co306 1.970 . S
O309 C308 1.258 . S
O310 Co307 1.966 . S
O310 C308 1.263 . S
C311 O312 1.235 . S
C311 O338 1.292 . S
O312 C311 1.235 . S
C313 C315 1.400 . S
C313 N316 1.351 . S
C313 C318 1.501 . S
C314 C315 1.387 . S
C314 N317 1.341 . S
C315 C313 1.400 . S
C315 C314 1.387 . S
N316 Co307 2.022 . S
N316 C313 1.351 . S
N316 N317 1.365 . S
N317 C314 1.341 . S
N317 N316 1.365 . S
N317 H337 0.862 . S
C318 C313 1.501 . S
C318 H319 0.961 . S
C318 H320 0.961 . S
C318 H321 0.960 . S
H319 C318 0.961 . S
H320 C318 0.961 . S
H321 C318 0.960 . S
C322 N323 1.342 . S
C322 C326 1.401 . S
C322 C327 1.499 . S
N323 Co306 1.989 . S
N323 C322 1.342 . S
N323 N324 1.388 . S
N324 Co307 1.993 . S
N324 N323 1.388 . S
N324 C325 1.346 . S
C325 N324 1.346 . S
C325 C326 1.396 . S
C325 C335 1.510 . S
C326 C322 1.401 . S
C326 C325 1.396 . S
C327 C322 1.499 . S
C327 H328 0.956 1_655 S
C327 H329 0.960 . S
C327 H330 0.961 1_655 S
H328 C327 0.956 1_455 S
H329 C327 0.960 . S
H330 C327 0.961 1_455 S
O331 Co306 1.967 1_455 S
O331 C339 1.258 . S
O332 Co307 1.941 . S
O332 C339 1.266 1_655 S
H333 C335 0.959 . S
H334 C335 0.961 . S
C335 C325 1.510 . S
C335 H333 0.959 . S
C335 H334 0.961 . S
C335 H336 0.960 . S
H336 C335 0.960 . S
H337 N317 0.862 . S
O338 Co306 1.923 . S
O338 C311 1.292 . S
C339 O331 1.258 . S
C339 O332 1.266 1_455 S
Co340 O343 1.970 . S
Co340 N357 1.989 . S
Co340 O365 1.967 1_545 S
Co340 O372 1.923 . S
Co341 O344 1.966 . S
Co341 N350 2.022 . S
Co341 N358 1.993 . S
Co341 O366 1.941 . S
C342 O343 1.258 . S
C342 O344 1.263 . S
O343 Co340 1.970 . S
O343 C342 1.258 . S
O344 Co341 1.966 . S
O344 C342 1.263 . S
C345 O346 1.235 . S
C345 O372 1.292 . S
O346 C345 1.235 . S
C347 C349 1.400 . S
C347 N350 1.351 . S
C347 C352 1.501 . S
C348 C349 1.387 . S
C348 N351 1.341 . S
C349 C347 1.400 . S
C349 C348 1.387 . S
N350 Co341 2.022 . S
N350 C347 1.351 . S
N350 N351 1.365 . S
N351 C348 1.341 . S
N351 N350 1.365 . S
N351 H371 0.862 . S
C352 C347 1.501 . S
C352 H353 0.961 . S
C352 H354 0.961 . S
C352 H355 0.960 . S
H353 C352 0.961 . S
H354 C352 0.961 . S
H355 C352 0.960 . S
C356 N357 1.342 . S
C356 C360 1.401 . S
C356 C361 1.499 . S
N357 Co340 1.989 . S
N357 C356 1.342 . S
N357 N358 1.388 . S
N358 Co341 1.993 . S
N358 N357 1.388 . S
N358 C359 1.346 . S
C359 N358 1.346 . S
C359 C360 1.396 . S
C359 C369 1.510 . S
C360 C356 1.401 . S
C360 C359 1.396 . S
C361 C356 1.499 . S
C361 H362 0.956 1_545 S
C361 H363 0.960 . S
C361 H364 0.961 1_545 S
H362 C361 0.956 1_565 S
H363 C361 0.960 . S
H364 C361 0.961 1_565 S
O365 Co340 1.967 1_565 S
O365 C373 1.258 . S
O366 Co341 1.941 . S
O366 C373 1.266 1_545 S
H367 C369 0.959 . S
H368 C369 0.961 . S
C369 C359 1.510 . S
C369 H367 0.959 . S
C369 H368 0.961 . S
C369 H370 0.960 . S
H370 C369 0.960 . S
H371 N351 0.862 . S
O372 Co340 1.923 . S
O372 C345 1.292 . S
C373 O365 1.258 . S
C373 O366 1.266 1_565 S
Co374 O377 1.970 . S
Co374 N391 1.989 . S
Co374 O399 1.967 1_455 S
Co374 O406 1.923 . S
Co375 O378 1.966 . S
Co375 N384 2.022 . S
Co375 N392 1.993 . S
Co375 O400 1.941 . S
C376 O377 1.258 . S
C376 O378 1.263 . S
O377 Co374 1.970 . S
O377 C376 1.258 . S
O378 Co375 1.966 . S
O378 C376 1.263 . S
C379 O380 1.235 . S
C379 O406 1.292 . S
O380 C379 1.235 . S
C381 C383 1.400 . S
C381 N384 1.351 . S
C381 C386 1.501 . S
C382 C383 1.387 . S
C382 N385 1.341 . S
C383 C381 1.400 . S
C383 C382 1.387 . S
N384 Co375 2.022 . S
N384 C381 1.351 . S
N384 N385 1.365 . S
N385 C382 1.341 . S
N385 N384 1.365 . S
N385 H405 0.862 . S
C386 C381 1.501 . S
C386 H387 0.961 . S
C386 H388 0.961 . S
C386 H389 0.960 . S
H387 C386 0.961 . S
H388 C386 0.961 . S
H389 C386 0.960 . S
C390 N391 1.342 . S
C390 C394 1.401 . S
C390 C395 1.499 . S
N391 Co374 1.989 . S
N391 C390 1.342 . S
N391 N392 1.388 . S
N392 Co375 1.993 . S
N392 N391 1.388 . S
N392 C393 1.346 . S
C393 N392 1.346 . S
C393 C394 1.396 . S
C393 C403 1.510 . S
C394 C390 1.401 . S
C394 C393 1.396 . S
C395 C390 1.499 . S
C395 H396 0.956 1_455 S
C395 H397 0.960 . S
C395 H398 0.961 1_455 S
H396 C395 0.956 1_655 S
H397 C395 0.960 . S
H398 C395 0.961 1_655 S
O399 Co374 1.967 1_655 S
O399 C407 1.258 . S
O400 Co375 1.941 . S
O400 C407 1.266 1_455 S
H401 C403 0.959 . S
H402 C403 0.961 . S
C403 C393 1.510 . S
C403 H401 0.959 . S
C403 H402 0.961 . S
C403 H404 0.960 . S
H404 C403 0.960 . S
H405 N385 0.862 . S
O406 Co374 1.923 . S
O406 C379 1.292 . S
C407 O399 1.258 . S
C407 O400 1.266 1_655 S
Co408 O411 1.970 . S
Co408 N425 1.989 . S
Co408 O433 1.967 1_545 S
Co408 O440 1.923 . S
Co409 O412 1.966 . S
Co409 N418 2.022 . S
Co409 N426 1.993 . S
Co409 O434 1.941 . S
C410 O411 1.258 . S
C410 O412 1.263 . S
O411 Co408 1.970 . S
O411 C410 1.258 . S
O412 Co409 1.966 . S
O412 C410 1.263 . S
C413 O414 1.235 . S
C413 O440 1.292 . S
O414 C413 1.235 . S
C415 C417 1.400 . S
C415 N418 1.351 . S
C415 C420 1.501 . S
C416 C417 1.387 . S
C416 N419 1.341 . S
C417 C415 1.400 . S
C417 C416 1.387 . S
N418 Co409 2.022 . S
N418 C415 1.351 . S
N418 N419 1.365 . S
N419 C416 1.341 . S
N419 N418 1.365 . S
N419 H439 0.862 . S
C420 C415 1.501 . S
C420 H421 0.961 . S
C420 H422 0.961 . S
C420 H423 0.960 . S
H421 C420 0.961 . S
H422 C420 0.961 . S
H423 C420 0.960 . S
C424 N425 1.342 . S
C424 C428 1.401 . S
C424 C429 1.499 . S
N425 Co408 1.989 . S
N425 C424 1.342 . S
N425 N426 1.388 . S
N426 Co409 1.993 . S
N426 N425 1.388 . S
N426 C427 1.346 . S
C427 N426 1.346 . S
C427 C428 1.396 . S
C427 C437 1.510 . S
C428 C424 1.401 . S
C428 C427 1.396 . S
C429 C424 1.499 . S
C429 H430 0.956 1_545 S
C429 H431 0.960 . S
C429 H432 0.961 1_545 S
H430 C429 0.956 1_565 S
H431 C429 0.960 . S
H432 C429 0.961 1_565 S
O433 Co408 1.967 1_565 S
O433 C441 1.258 . S
O434 Co409 1.941 . S
O434 C441 1.266 1_545 S
H435 C437 0.959 . S
H436 C437 0.961 . S
C437 C427 1.510 . S
C437 H435 0.959 . S
C437 H436 0.961 . S
C437 H438 0.960 . S
H438 C437 0.960 . S
H439 N419 0.862 . S
O440 Co408 1.923 . S
O440 C413 1.292 . S
C441 O433 1.258 . S
C441 O434 1.266 1_565 S
Co442 O445 1.970 . S
Co442 N459 1.989 . S
Co442 O467 1.967 1_455 S
Co442 O474 1.923 . S
Co443 O446 1.966 . S
Co443 N452 2.022 . S
Co443 N460 1.993 . S
Co443 O468 1.941 . S
C444 O445 1.258 . S
C444 O446 1.263 . S
O445 Co442 1.970 . S
O445 C444 1.258 . S
O446 Co443 1.966 . S
O446 C444 1.263 . S
C447 O448 1.235 . S
C447 O474 1.292 . S
O448 C447 1.235 . S
C449 C451 1.400 . S
C449 N452 1.351 . S
C449 C454 1.501 . S
C450 C451 1.387 . S
C450 N453 1.341 . S
C451 C449 1.400 . S
C451 C450 1.387 . S
N452 Co443 2.022 . S
N452 C449 1.351 . S
N452 N453 1.365 . S
N453 C450 1.341 . S
N453 N452 1.365 . S
N453 H473 0.862 . S
C454 C449 1.501 . S
C454 H455 0.961 . S
C454 H456 0.961 . S
C454 H457 0.960 . S
H455 C454 0.961 . S
H456 C454 0.961 . S
H457 C454 0.960 . S
C458 N459 1.342 . S
C458 C462 1.401 . S
C458 C463 1.499 . S
N459 Co442 1.989 . S
N459 C458 1.342 . S
N459 N460 1.388 . S
N460 Co443 1.993 . S
N460 N459 1.388 . S
N460 C461 1.346 . S
C461 N460 1.346 . S
C461 C462 1.396 . S
C461 C471 1.510 . S
C462 C458 1.401 . S
C462 C461 1.396 . S
C463 C458 1.499 . S
C463 H464 0.956 1_455 S
C463 H465 0.960 . S
C463 H466 0.961 1_455 S
H464 C463 0.956 1_655 S
H465 C463 0.960 . S
H466 C463 0.961 1_655 S
O467 Co442 1.967 1_655 S
O467 C475 1.258 . S
O468 Co443 1.941 . S
O468 C475 1.266 1_455 S
H469 C471 0.959 . S
H470 C471 0.961 . S
C471 C461 1.510 . S
C471 H469 0.959 . S
C471 H470 0.961 . S
C471 H472 0.960 . S
H472 C471 0.960 . S
H473 N453 0.862 . S
O474 Co442 1.923 . S
O474 C447 1.292 . S
C475 O467 1.258 . S
C475 O468 1.266 1_655 S
Co476 O479 1.970 . S
Co476 N493 1.989 . S
Co476 O501 1.967 1_565 S
Co476 O508 1.923 . S
Co477 O480 1.966 . S
Co477 N486 2.022 . S
Co477 N494 1.993 . S
Co477 O502 1.941 . S
C478 O479 1.258 . S
C478 O480 1.263 . S
O479 Co476 1.970 . S
O479 C478 1.258 . S
O480 Co477 1.966 . S
O480 C478 1.263 . S
C481 O482 1.235 . S
C481 O508 1.292 . S
O482 C481 1.235 . S
C483 C485 1.400 . S
C483 N486 1.351 . S
C483 C488 1.501 . S
C484 C485 1.387 . S
C484 N487 1.341 . S
C485 C483 1.400 . S
C485 C484 1.387 . S
N486 Co477 2.022 . S
N486 C483 1.351 . S
N486 N487 1.365 . S
N487 C484 1.341 . S
N487 N486 1.365 . S
N487 H507 0.862 . S
C488 C483 1.501 . S
C488 H489 0.961 . S
C488 H490 0.961 . S
C488 H491 0.960 . S
H489 C488 0.961 . S
H490 C488 0.961 . S
H491 C488 0.960 . S
C492 N493 1.342 . S
C492 C496 1.401 . S
C492 C497 1.499 . S
N493 Co476 1.989 . S
N493 C492 1.342 . S
N493 N494 1.388 . S
N494 Co477 1.993 . S
N494 N493 1.388 . S
N494 C495 1.346 . S
C495 N494 1.346 . S
C495 C496 1.396 . S
C495 C505 1.510 . S
C496 C492 1.401 . S
C496 C495 1.396 . S
C497 C492 1.499 . S
C497 H498 0.956 1_565 S
C497 H499 0.960 . S
C497 H500 0.961 1_565 S
H498 C497 0.956 1_545 S
H499 C497 0.960 . S
H500 C497 0.961 1_545 S
O501 Co476 1.967 1_545 S
O501 C509 1.258 . S
O502 Co477 1.941 . S
O502 C509 1.266 1_565 S
H503 C505 0.959 . S
H504 C505 0.961 . S
C505 C495 1.510 . S
C505 H503 0.959 . S
C505 H504 0.961 . S
C505 H506 0.960 . S
H506 C505 0.960 . S
H507 N487 0.862 . S
O508 Co476 1.923 . S
O508 C481 1.292 . S
C509 O501 1.258 . S
C509 O502 1.266 1_545 S
Co510 O513 1.970 . S
Co510 N527 1.989 . S
Co510 O535 1.967 1_655 S
Co510 O542 1.923 . S
Co511 O514 1.966 . S
Co511 N520 2.022 . S
Co511 N528 1.993 . S
Co511 O536 1.941 . S
C512 O513 1.258 . S
C512 O514 1.263 . S
O513 Co510 1.970 . S
O513 C512 1.258 . S
O514 Co511 1.966 . S
O514 C512 1.263 . S
C515 O516 1.235 . S
C515 O542 1.292 . S
O516 C515 1.235 . S
C517 C519 1.400 . S
C517 N520 1.351 . S
C517 C522 1.501 . S
C518 C519 1.387 . S
C518 N521 1.341 . S
C519 C517 1.400 . S
C519 C518 1.387 . S
N520 Co511 2.022 . S
N520 C517 1.351 . S
N520 N521 1.365 . S
N521 C518 1.341 . S
N521 N520 1.365 . S
N521 H541 0.862 . S
C522 C517 1.501 . S
C522 H523 0.961 . S
C522 H524 0.961 . S
C522 H525 0.960 . S
H523 C522 0.961 . S
H524 C522 0.961 . S
H525 C522 0.960 . S
C526 N527 1.342 . S
C526 C530 1.401 . S
C526 C531 1.499 . S
N527 Co510 1.989 . S
N527 C526 1.342 . S
N527 N528 1.388 . S
N528 Co511 1.993 . S
N528 N527 1.388 . S
N528 C529 1.346 . S
C529 N528 1.346 . S
C529 C530 1.396 . S
C529 C539 1.510 . S
C530 C526 1.401 . S
C530 C529 1.396 . S
C531 C526 1.499 . S
C531 H532 0.956 1_655 S
C531 H533 0.960 . S
C531 H534 0.961 1_655 S
H532 C531 0.956 1_455 S
H533 C531 0.960 . S
H534 C531 0.961 1_455 S
O535 Co510 1.967 1_455 S
O535 C543 1.258 . S
O536 Co511 1.941 . S
O536 C543 1.266 1_655 S
H537 C539 0.959 . S
H538 C539 0.961 . S
C539 C529 1.510 . S
C539 H537 0.959 . S
C539 H538 0.961 . S
C539 H540 0.960 . S
H540 C539 0.960 . S
H541 N521 0.862 . S
O542 Co510 1.923 . S
O542 C515 1.292 . S
C543 O535 1.258 . S
C543 O536 1.266 1_455 S
H544 C550 0.930 . S
H545 C554 0.930 . S
H546 C559 0.929 . S
H547 C557 0.929 . S
H548 C552 0.929 . S
H549 C558 0.929 . S
C550 H544 0.930 . S
C550 C551 1.367 . S
C550 C558 1.378 . S
C551 C550 1.367 . S
C551 C559 1.433 . S
C552 H548 0.929 . S
C552 C554 1.378 . S
C552 C556 1.350 . S
C553 C556 1.463 1_655 S
C553 C558 1.350 . S
C553 N561 1.427 . S
C554 H545 0.930 . S
C554 C552 1.378 . S
C554 C555 1.367 . S
C555 C554 1.367 . S
C555 C557 1.433 . S
C556 C552 1.350 . S
C556 C553 1.463 1_455 S
C556 N560 1.427 . S
C557 H547 0.929 . S
C557 C555 1.433 . S
C557 N560 1.384 . S
C558 H549 0.929 . S
C558 C550 1.378 . S
C558 C553 1.350 . S
C559 H546 0.929 . S
C559 C551 1.433 . S
C559 N561 1.384 . S
N560 C556 1.427 . S
N560 C557 1.384 . S
N561 C553 1.427 . S
N561 C559 1.384 . S
H562 C568 0.930 . S
H563 C572 0.930 . S
H564 C577 0.929 . S
H565 C575 0.929 . S
H566 C570 0.929 . S
H567 C576 0.929 . S
C568 H562 0.930 . S
C568 C569 1.367 . S
C568 C576 1.378 . S
C569 C568 1.367 . S
C569 C577 1.433 . S
C570 H566 0.929 . S
C570 C572 1.378 . S
C570 C574 1.350 . S
C571 C574 1.463 1_545 S
C571 C576 1.350 . S
C571 N579 1.427 . S
C572 H563 0.930 . S
C572 C570 1.378 . S
C572 C573 1.367 . S
C573 C572 1.367 . S
C573 C575 1.433 . S
C574 C570 1.350 . S
C574 C571 1.463 1_565 S
C574 N578 1.427 . S
C575 H565 0.929 . S
C575 C573 1.433 . S
C575 N578 1.384 . S
C576 H567 0.929 . S
C576 C568 1.378 . S
C576 C571 1.350 . S
C577 H564 0.929 . S
C577 C569 1.433 . S
C577 N579 1.384 . S
N578 C574 1.427 . S
N578 C575 1.384 . S
N579 C571 1.427 . S
N579 C577 1.384 . S
H580 C586 0.930 . S
H581 C590 0.930 . S
H582 C595 0.929 . S
H583 C593 0.929 . S
H584 C588 0.929 . S
H585 C594 0.929 . S
C586 H580 0.930 . S
C586 C587 1.367 . S
C586 C594 1.378 . S
C587 C586 1.367 . S
C587 C595 1.433 . S
C588 H584 0.929 . S
C588 C590 1.378 . S
C588 C592 1.350 . S
C589 C592 1.463 1_655 S
C589 C594 1.350 . S
C589 N597 1.427 . S
C590 H581 0.930 . S
C590 C588 1.378 . S
C590 C591 1.367 . S
C591 C590 1.367 . S
C591 C593 1.433 . S
C592 C588 1.350 . S
C592 C589 1.463 1_455 S
C592 N596 1.427 . S
C593 H583 0.929 . S
C593 C591 1.433 . S
C593 N596 1.384 . S
C594 H585 0.929 . S
C594 C586 1.378 . S
C594 C589 1.350 . S
C595 H582 0.929 . S
C595 C587 1.433 . S
C595 N597 1.384 . S
N596 C592 1.427 . S
N596 C593 1.384 . S
N597 C589 1.427 . S
N597 C595 1.384 . S
H598 C604 0.930 . S
H599 C608 0.930 . S
H600 C613 0.929 . S
H601 C611 0.929 . S
H602 C606 0.929 . S
H603 C612 0.929 . S
C604 H598 0.930 . S
C604 C605 1.367 . S
C604 C612 1.378 . S
C605 C604 1.367 . S
C605 C613 1.433 . S
C606 H602 0.929 . S
C606 C608 1.378 . S
C606 C610 1.350 . S
C607 C610 1.463 1_565 S
C607 C612 1.350 . S
C607 N615 1.427 . S
C608 H599 0.930 . S
C608 C606 1.378 . S
C608 C609 1.367 . S
C609 C608 1.367 . S
C609 C611 1.433 . S
C610 C606 1.350 . S
C610 C607 1.463 1_545 S
C610 N614 1.427 . S
C611 H601 0.929 . S
C611 C609 1.433 . S
C611 N614 1.384 . S
C612 H603 0.929 . S
C612 C604 1.378 . S
C612 C607 1.350 . S
C613 H600 0.929 . S
C613 C605 1.433 . S
C613 N615 1.384 . S
N614 C610 1.427 . S
N614 C611 1.384 . S
N615 C607 1.427 . S
N615 C613 1.384 . S
H616 C622 0.930 . S
H617 C626 0.930 . S
H618 C631 0.929 . S
H619 C629 0.929 . S
H620 C624 0.929 . S
H621 C630 0.929 . S
C622 H616 0.930 . S
C622 C623 1.367 1_545 S
C622 C630 1.378 . S
C623 C622 1.367 1_565 S
C623 C631 1.433 . S
C624 H620 0.929 . S
C624 C626 1.378 . S
C624 C628 1.348 1_565 S
C625 C628 1.462 1_565 S
C625 C630 1.348 1_565 S
C625 N633 1.429 . S
C626 H617 0.930 . S
C626 C624 1.378 . S
C626 C627 1.367 1_565 S
C627 C626 1.367 1_545 S
C627 C629 1.433 . S
C628 C624 1.348 1_545 S
C628 C625 1.462 1_545 S
C628 N632 1.429 . S
C629 H619 0.929 . S
C629 C627 1.433 . S
C629 N632 1.384 . S
C630 H621 0.929 . S
C630 C622 1.378 . S
C630 C625 1.348 1_545 S
C631 H618 0.929 . S
C631 C623 1.433 . S
C631 N633 1.384 . S
N632 C628 1.429 . S
N632 C629 1.384 . S
N633 C625 1.429 . S
N633 C631 1.384 . S
H634 C640 0.930 . S
H635 C644 0.930 . S
H636 C649 0.929 . S
H637 C647 0.929 . S
H638 C642 0.929 . S
H639 C648 0.929 . S
C640 H634 0.930 . S
C640 C641 1.367 . S
C640 C648 1.378 . S
C641 C640 1.367 . S
C641 C649 1.433 . S
C642 H638 0.929 . S
C642 C644 1.378 . S
C642 C646 1.350 . S
C643 C646 1.463 1_655 S
C643 C648 1.350 . S
C643 N651 1.426 1_655 S
C644 H635 0.930 . S
C644 C642 1.378 . S
C644 C645 1.367 . S
C645 C644 1.367 . S
C645 C647 1.433 . S
C646 C642 1.350 . S
C646 C643 1.463 1_455 S
C646 N650 1.426 1_455 S
C647 H637 0.929 . S
C647 C645 1.433 . S
C647 N650 1.382 1_455 S
C648 H639 0.929 . S
C648 C640 1.378 . S
C648 C643 1.350 . S
C649 H636 0.929 . S
C649 C641 1.433 . S
C649 N651 1.382 1_655 S
N650 C646 1.426 1_655 S
N650 C647 1.382 1_655 S
N651 C643 1.426 1_455 S
N651 C649 1.382 1_455 S
H652 C658 0.930 . S
H653 C662 0.930 . S
H654 C667 0.929 . S
H655 C665 0.929 . S
H656 C660 0.926 1_565 S
H657 C666 0.926 1_545 S
C658 H652 0.930 . S
C658 C659 1.367 . S
C658 C666 1.380 . S
C659 C658 1.367 . S
C659 C667 1.433 . S
C660 H656 0.926 1_545 S
C660 C662 1.380 . S
C660 C664 1.350 . S
C661 C664 1.460 1_565 S
C661 C666 1.350 . S
C661 N669 1.430 . S
C662 H653 0.930 . S
C662 C660 1.380 . S
C662 C663 1.367 . S
C663 C662 1.367 . S
C663 C665 1.433 . S
C664 C660 1.350 . S
C664 C661 1.460 1_545 S
C664 N668 1.430 . S
C665 H655 0.929 . S
C665 C663 1.433 . S
C665 N668 1.384 . S
C666 H657 0.926 1_565 S
C666 C658 1.380 . S
C666 C661 1.350 . S
C667 H654 0.929 . S
C667 C659 1.433 . S
C667 N669 1.384 . S
N668 C664 1.430 . S
N668 C665 1.384 . S
N669 C661 1.430 . S
N669 C667 1.384 . S
H670 C676 0.930 . S
H671 C680 0.930 . S
H672 C685 0.929 . S
H673 C683 0.929 . S
H674 C678 0.929 . S
H675 C684 0.929 . S
C676 H670 0.930 . S
C676 C677 1.367 . S
C676 C684 1.378 . S
C677 C676 1.367 . S
C677 C685 1.433 1_655 S
C678 H674 0.929 . S
C678 C680 1.378 . S
C678 C682 1.350 . S
C679 C682 1.463 1_655 S
C679 C684 1.350 . S
C679 N687 1.427 1_655 S
C680 H671 0.930 . S
C680 C678 1.378 . S
C680 C681 1.367 . S
C681 C680 1.367 . S
C681 C683 1.433 1_455 S
C682 C678 1.350 . S
C682 C679 1.463 1_455 S
C682 N686 1.427 1_455 S
C683 H673 0.929 . S
C683 C681 1.433 1_655 S
C683 N686 1.384 . S
C684 H675 0.929 . S
C684 C676 1.378 . S
C684 C679 1.350 . S
C685 H672 0.929 . S
C685 C677 1.433 1_455 S
C685 N687 1.384 . S
N686 C682 1.427 1_655 S
N686 C683 1.384 . S
N687 C679 1.427 1_455 S
N687 C685 1.384 . S
H688 C694 0.930 . S
H689 C698 0.930 . S
H690 C703 0.929 . S
H691 C701 0.929 . S
H692 C696 0.929 . S
H693 C702 0.929 . S
C694 H688 0.930 . S
C694 C695 1.367 . S
C694 C702 1.378 . S
C695 C694 1.367 . S
C695 C703 1.433 . S
C696 H692 0.929 . S
C696 C698 1.378 . S
C696 C700 1.350 . S
C697 C700 1.463 . S
C697 C702 1.350 . S
C697 N705 1.427 . S
C698 H689 0.930 . S
C698 C696 1.378 . S
C698 C699 1.367 . S
C699 C698 1.367 . S
C699 C701 1.433 . S
C700 C696 1.350 . S
C700 C697 1.463 . S
C700 N704 1.427 . S
C701 H691 0.929 . S
C701 C699 1.433 . S
C701 N704 1.384 . S
C702 H693 0.929 . S
C702 C694 1.378 . S
C702 C697 1.350 . S
C703 H690 0.929 . S
C703 C695 1.433 . S
C703 N705 1.384 . S
N704 C700 1.427 . S
N704 C701 1.384 . S
N705 C697 1.427 . S
N705 C703 1.384 . S
H706 C712 0.930 . S
H707 C716 0.930 . S
H708 C721 0.929 . S
H709 C719 0.929 . S
H710 C714 0.929 . S
H711 C720 0.929 . S
C712 H706 0.930 . S
C712 C713 1.367 . S
C712 C720 1.378 . S
C713 C712 1.367 . S
C713 C721 1.433 . S
C714 H710 0.929 . S
C714 C716 1.378 . S
C714 C718 1.350 . S
C715 C718 1.463 . S
C715 C720 1.350 . S
C715 N723 1.427 . S
C716 H707 0.930 . S
C716 C714 1.378 . S
C716 C717 1.367 . S
C717 C716 1.367 . S
C717 C719 1.433 . S
C718 C714 1.350 . S
C718 C715 1.463 . S
C718 N722 1.427 . S
C719 H709 0.929 . S
C719 C717 1.433 . S
C719 N722 1.384 . S
C720 H711 0.929 . S
C720 C712 1.378 . S
C720 C715 1.350 . S
C721 H708 0.929 . S
C721 C713 1.433 . S
C721 N723 1.384 . S
N722 C718 1.427 . S
N722 C719 1.384 . S
N723 C715 1.427 . S
N723 C721 1.384 . S
H724 C730 0.930 . S
H725 C734 0.930 . S
H726 C739 0.929 . S
H727 C737 0.929 . S
H728 C732 0.929 . S
H729 C738 0.929 . S
C730 H724 0.930 . S
C730 C731 1.367 . S
C730 C738 1.378 . S
C731 C730 1.367 . S
C731 C739 1.433 . S
C732 H728 0.929 . S
C732 C734 1.378 . S
C732 C736 1.350 . S
C733 C736 1.463 . S
C733 C738 1.350 . S
C733 N741 1.427 . S
C734 H725 0.930 . S
C734 C732 1.378 . S
C734 C735 1.367 . S
C735 C734 1.367 . S
C735 C737 1.433 . S
C736 C732 1.350 . S
C736 C733 1.463 . S
C736 N740 1.427 . S
C737 H727 0.929 . S
C737 C735 1.433 . S
C737 N740 1.384 . S
C738 H729 0.929 . S
C738 C730 1.378 . S
C738 C733 1.350 . S
C739 H726 0.929 . S
C739 C731 1.433 . S
C739 N741 1.384 . S
N740 C736 1.427 . S
N740 C737 1.384 . S
N741 C733 1.427 . S
N741 C739 1.384 . S
H742 C748 0.930 . S
H743 C752 0.930 . S
H744 C757 0.929 . S
H745 C755 0.929 . S
H746 C750 0.929 . S
H747 C756 0.929 . S
C748 H742 0.930 . S
C748 C749 1.367 . S
C748 C756 1.378 . S
C749 C748 1.367 . S
C749 C757 1.433 . S
C750 H746 0.929 . S
C750 C752 1.378 . S
C750 C754 1.350 . S
C751 C754 1.463 . S
C751 C756 1.350 . S
C751 N759 1.427 . S
C752 H743 0.930 . S
C752 C750 1.378 . S
C752 C753 1.367 . S
C753 C752 1.367 . S
C753 C755 1.433 . S
C754 C750 1.350 . S
C754 C751 1.463 . S
C754 N758 1.427 . S
C755 H745 0.929 . S
C755 C753 1.433 . S
C755 N758 1.384 . S
C756 H747 0.929 . S
C756 C748 1.378 . S
C756 C751 1.350 . S
C757 H744 0.929 . S
C757 C749 1.433 . S
C757 N759 1.384 . S
N758 C754 1.427 . S
N758 C755 1.384 . S
N759 C751 1.427 . S
N759 C757 1.384 . S
H760 C766 0.930 . S
H761 C770 0.930 . S
H762 C775 0.929 . S
H763 C773 0.929 . S
H764 C768 0.929 . S
H765 C774 0.929 . S
C766 H760 0.930 . S
C766 C767 1.367 . S
C766 C774 1.378 . S
C767 C766 1.367 . S
C767 C775 1.433 . S
C768 H764 0.929 . S
C768 C770 1.378 . S
C768 C772 1.350 . S
C769 C772 1.463 . S
C769 C774 1.350 . S
C769 N777 1.427 . S
C770 H761 0.930 . S
C770 C768 1.378 . S
C770 C771 1.367 . S
C771 C770 1.367 . S
C771 C773 1.433 . S
C772 C768 1.350 . S
C772 C769 1.463 . S
C772 N776 1.427 . S
C773 H763 0.929 . S
C773 C771 1.433 . S
C773 N776 1.384 . S
C774 H765 0.929 . S
C774 C766 1.378 . S
C774 C769 1.350 . S
C775 H762 0.929 . S
C775 C767 1.433 . S
C775 N777 1.384 . S
N776 C772 1.427 . S
N776 C773 1.384 . S
N777 C769 1.427 . S
N777 C775 1.384 . S
H778 C784 0.930 . S
H779 C788 0.930 . S
H780 C793 0.929 . S
H781 C791 0.929 . S
H782 C786 0.929 . S
H783 C792 0.929 . S
C784 H778 0.930 . S
C784 C785 1.367 . S
C784 C792 1.378 . S
C785 C784 1.367 . S
C785 C793 1.433 . S
C786 H782 0.929 . S
C786 C788 1.378 . S
C786 C790 1.350 . S
C787 C790 1.463 . S
C787 C792 1.350 . S
C787 N795 1.427 . S
C788 H779 0.930 . S
C788 C786 1.378 . S
C788 C789 1.367 . S
C789 C788 1.367 . S
C789 C791 1.433 . S
C790 C786 1.350 . S
C790 C787 1.463 . S
C790 N794 1.427 . S
C791 H781 0.929 . S
C791 C789 1.433 . S
C791 N794 1.384 . S
C792 H783 0.929 . S
C792 C784 1.378 . S
C792 C787 1.350 . S
C793 H780 0.929 . S
C793 C785 1.433 . S
C793 N795 1.384 . S
N794 C790 1.427 . S
N794 C791 1.384 . S
N795 C787 1.427 . S
N795 C793 1.384 . S
H796 C802 0.930 . S
H797 C806 0.930 . S
H798 C811 0.929 . S
H799 C809 0.929 . S
H800 C804 0.929 . S
H801 C810 0.929 . S
C802 H796 0.930 . S
C802 C803 1.367 . S
C802 C810 1.378 . S
C803 C802 1.367 . S
C803 C811 1.433 . S
C804 H800 0.929 . S
C804 C806 1.378 . S
C804 C808 1.350 . S
C805 C808 1.463 . S
C805 C810 1.350 . S
C805 N813 1.427 . S
C806 H797 0.930 . S
C806 C804 1.378 . S
C806 C807 1.367 . S
C807 C806 1.367 . S
C807 C809 1.433 . S
C808 C804 1.350 . S
C808 C805 1.463 . S
C808 N812 1.427 . S
C809 H799 0.929 . S
C809 C807 1.433 . S
C809 N812 1.384 . S
C810 H801 0.929 . S
C810 C802 1.378 . S
C810 C805 1.350 . S
C811 H798 0.929 . S
C811 C803 1.433 . S
C811 N813 1.384 . S
N812 C808 1.427 . S
N812 C809 1.384 . S
N813 C805 1.427 . S
N813 C811 1.384 . S
H814 C820 0.930 . S
H815 C824 0.930 . S
H816 C829 0.929 . S
H817 C827 0.929 . S
H818 C822 0.929 . S
H819 C828 0.929 . S
C820 H814 0.930 . S
C820 C821 1.367 . S
C820 C828 1.378 . S
C821 C820 1.367 . S
C821 C829 1.433 . S
C822 H818 0.929 . S
C822 C824 1.378 . S
C822 C826 1.350 . S
C823 C826 1.463 . S
C823 C828 1.350 . S
C823 N831 1.427 . S
C824 H815 0.930 . S
C824 C822 1.378 . S
C824 C825 1.367 . S
C825 C824 1.367 . S
C825 C827 1.433 . S
C826 C822 1.350 . S
C826 C823 1.463 . S
C826 N830 1.427 . S
C827 H817 0.929 . S
C827 C825 1.433 . S
C827 N830 1.384 . S
C828 H819 0.929 . S
C828 C820 1.378 . S
C828 C823 1.350 . S
C829 H816 0.929 . S
C829 C821 1.433 . S
C829 N831 1.384 . S
N830 C826 1.427 . S
N830 C827 1.384 . S
N831 C823 1.427 . S
N831 C829 1.384 . S
H832 C838 0.930 . S
H833 C842 0.930 . S
H834 C847 0.929 . S
H835 C845 0.929 . S
H836 C840 0.929 . S
H837 C846 0.929 . S
C838 H832 0.930 . S
C838 C839 1.367 . S
C838 C846 1.378 . S
C839 C838 1.367 . S
C839 C847 1.433 . S
C840 H836 0.929 . S
C840 C842 1.378 . S
C840 C844 1.350 . S
C841 C844 1.463 . S
C841 C846 1.350 . S
C841 N849 1.427 . S
C842 H833 0.930 . S
C842 C840 1.378 . S
C842 C843 1.367 . S
C843 C842 1.367 . S
C843 C845 1.433 . S
C844 C840 1.350 . S
C844 C841 1.463 . S
C844 N848 1.427 . S
C845 H835 0.929 . S
C845 C843 1.433 . S
C845 N848 1.384 . S
C846 H837 0.929 . S
C846 C838 1.378 . S
C846 C841 1.350 . S
C847 H834 0.929 . S
C847 C839 1.433 . S
C847 N849 1.384 . S
N848 C844 1.427 . S
N848 C845 1.384 . S
N849 C841 1.427 . S
N849 C847 1.384 . S
H850 C856 0.930 . S
H851 C860 0.930 . S
H852 C865 0.929 . S
H853 C863 0.929 . S
H854 C858 0.929 . S
H855 C864 0.929 . S
C856 H850 0.930 . S
C856 C857 1.367 . S
C856 C864 1.378 . S
C857 C856 1.367 . S
C857 C865 1.433 . S
C858 H854 0.929 . S
C858 C860 1.378 . S
C858 C862 1.350 . S
C859 C862 1.463 . S
C859 C864 1.350 . S
C859 N867 1.427 . S
C860 H851 0.930 . S
C860 C858 1.378 . S
C860 C861 1.367 . S
C861 C860 1.367 . S
C861 C863 1.433 . S
C862 C858 1.350 . S
C862 C859 1.463 . S
C862 N866 1.427 . S
C863 H853 0.929 . S
C863 C861 1.433 . S
C863 N866 1.384 . S
C864 H855 0.929 . S
C864 C856 1.378 . S
C864 C859 1.350 . S
C865 H852 0.929 . S
C865 C857 1.433 . S
C865 N867 1.384 . S
N866 C862 1.427 . S
N866 C863 1.384 . S
N867 C859 1.427 . S
N867 C865 1.384 . S
H868 C874 0.930 . S
H869 C878 0.930 . S
H870 C883 0.929 . S
H871 C881 0.929 . S
H872 C876 0.929 . S
H873 C882 0.929 . S
C874 H868 0.930 . S
C874 C875 1.367 . S
C874 C882 1.378 . S
C875 C874 1.367 . S
C875 C883 1.433 . S
C876 H872 0.929 . S
C876 C878 1.378 . S
C876 C880 1.350 . S
C877 C880 1.463 . S
C877 C882 1.350 . S
C877 N885 1.427 . S
C878 H869 0.930 . S
C878 C876 1.378 . S
C878 C879 1.367 . S
C879 C878 1.367 . S
C879 C881 1.433 . S
C880 C876 1.350 . S
C880 C877 1.463 . S
C880 N884 1.427 . S
C881 H871 0.929 . S
C881 C879 1.433 . S
C881 N884 1.384 . S
C882 H873 0.929 . S
C882 C874 1.378 . S
C882 C877 1.350 . S
C883 H870 0.929 . S
C883 C875 1.433 . S
C883 N885 1.384 . S
N884 C880 1.427 . S
N884 C881 1.384 . S
N885 C877 1.427 . S
N885 C883 1.384 . S
H886 C892 0.930 . S
H887 C896 0.930 . S
H888 C901 0.929 . S
H889 C899 0.929 . S
H890 C894 0.929 . S
H891 C900 0.929 . S
C892 H886 0.930 . S
C892 C893 1.367 . S
C892 C900 1.378 . S
C893 C892 1.367 . S
C893 C901 1.433 . S
C894 H890 0.929 . S
C894 C896 1.378 . S
C894 C898 1.350 . S
C895 C898 1.463 . S
C895 C900 1.350 . S
C895 N903 1.427 . S
C896 H887 0.930 . S
C896 C894 1.378 . S
C896 C897 1.367 . S
C897 C896 1.367 . S
C897 C899 1.433 . S
C898 C894 1.350 . S
C898 C895 1.463 . S
C898 N902 1.427 . S
C899 H889 0.929 . S
C899 C897 1.433 . S
C899 N902 1.384 . S
C900 H891 0.929 . S
C900 C892 1.378 . S
C900 C895 1.350 . S
C901 H888 0.929 . S
C901 C893 1.433 . S
C901 N903 1.384 . S
N902 C898 1.427 . S
N902 C899 1.384 . S
N903 C895 1.427 . S
N903 C901 1.384 . S
H904 C910 0.930 . S
H905 C914 0.930 . S
H906 C919 0.929 . S
H907 C917 0.929 . S
H908 C912 0.929 . S
H909 C918 0.929 . S
C910 H904 0.930 . S
C910 C911 1.367 . S
C910 C918 1.378 . S
C911 C910 1.367 . S
C911 C919 1.433 . S
C912 H908 0.929 . S
C912 C914 1.378 . S
C912 C916 1.350 . S
C913 C916 1.463 . S
C913 C918 1.350 . S
C913 N921 1.427 . S
C914 H905 0.930 . S
C914 C912 1.378 . S
C914 C915 1.367 . S
C915 C914 1.367 . S
C915 C917 1.433 . S
C916 C912 1.350 . S
C916 C913 1.463 . S
C916 N920 1.427 . S
C917 H907 0.929 . S
C917 C915 1.433 . S
C917 N920 1.384 . S
C918 H909 0.929 . S
C918 C910 1.378 . S
C918 C913 1.350 . S
C919 H906 0.929 . S
C919 C911 1.433 . S
C919 N921 1.384 . S
N920 C916 1.427 . S
N920 C917 1.384 . S
N921 C913 1.427 . S
N921 C919 1.384 . S
H922 C928 0.930 . S
H923 C932 0.930 . S
H924 C937 0.929 . S
H925 C935 0.929 . S
H926 C930 0.929 . S
H927 C936 0.929 . S
C928 H922 0.930 . S
C928 C929 1.367 . S
C928 C936 1.378 . S
C929 C928 1.367 . S
C929 C937 1.433 . S
C930 H926 0.929 . S
C930 C932 1.378 . S
C930 C934 1.350 . S
C931 C934 1.463 . S
C931 C936 1.350 . S
C931 N939 1.427 . S
C932 H923 0.930 . S
C932 C930 1.378 . S
C932 C933 1.367 . S
C933 C932 1.367 . S
C933 C935 1.433 . S
C934 C930 1.350 . S
C934 C931 1.463 . S
C934 N938 1.427 . S
C935 H925 0.929 . S
C935 C933 1.433 . S
C935 N938 1.384 . S
C936 H927 0.929 . S
C936 C928 1.378 . S
C936 C931 1.350 . S
C937 H924 0.929 . S
C937 C929 1.433 . S
C937 N939 1.384 . S
N938 C934 1.427 . S
N938 C935 1.384 . S
N939 C931 1.427 . S
N939 C937 1.384 . S
H940 C946 0.930 . S
H941 C950 0.930 . S
H942 C955 0.929 . S
H943 C953 0.929 . S
H944 C948 0.929 . S
H945 C954 0.929 . S
C946 H940 0.930 . S
C946 C947 1.367 . S
C946 C954 1.378 . S
C947 C946 1.367 . S
C947 C955 1.433 . S
C948 H944 0.929 . S
C948 C950 1.378 . S
C948 C952 1.350 . S
C949 C952 1.463 . S
C949 C954 1.350 . S
C949 N957 1.427 . S
C950 H941 0.930 . S
C950 C948 1.378 . S
C950 C951 1.367 . S
C951 C950 1.367 . S
C951 C953 1.433 . S
C952 C948 1.350 . S
C952 C949 1.463 . S
C952 N956 1.427 . S
C953 H943 0.929 . S
C953 C951 1.433 . S
C953 N956 1.384 . S
C954 H945 0.929 . S
C954 C946 1.378 . S
C954 C949 1.350 . S
C955 H942 0.929 . S
C955 C947 1.433 . S
C955 N957 1.384 . S
N956 C952 1.427 . S
N956 C953 1.384 . S
N957 C949 1.427 . S
N957 C955 1.384 . S
H958 C964 0.930 . S
H959 C968 0.930 . S
H960 C973 0.929 . S
H961 C971 0.929 . S
H962 C966 0.929 . S
H963 C972 0.929 . S
C964 H958 0.930 . S
C964 C965 1.367 . S
C964 C972 1.378 . S
C965 C964 1.367 . S
C965 C973 1.433 . S
C966 H962 0.929 . S
C966 C968 1.378 . S
C966 C970 1.350 . S
C967 C970 1.463 . S
C967 C972 1.350 . S
C967 N975 1.427 . S
C968 H959 0.930 . S
C968 C966 1.378 . S
C968 C969 1.367 . S
C969 C968 1.367 . S
C969 C971 1.433 . S
C970 C966 1.350 . S
C970 C967 1.463 . S
C970 N974 1.427 . S
C971 H961 0.929 . S
C971 C969 1.433 . S
C971 N974 1.384 . S
C972 H963 0.929 . S
C972 C964 1.378 . S
C972 C967 1.350 . S
C973 H960 0.929 . S
C973 C965 1.433 . S
C973 N975 1.384 . S
N974 C970 1.427 . S
N974 C971 1.384 . S
N975 C967 1.427 . S
N975 C973 1.384 . S
H976 C982 0.930 . S
H977 C986 0.930 . S
H978 C991 0.929 . S
H979 C989 0.929 . S
H980 C984 0.929 . S
H981 C990 0.929 . S
C982 H976 0.930 . S
C982 C983 1.367 . S
C982 C990 1.378 . S
C983 C982 1.367 . S
C983 C991 1.433 . S
C984 H980 0.929 . S
C984 C986 1.378 . S
C984 C988 1.350 . S
C985 C988 1.463 . S
C985 C990 1.350 . S
C985 N993 1.427 . S
C986 H977 0.930 . S
C986 C984 1.378 . S
C986 C987 1.367 . S
C987 C986 1.367 . S
C987 C989 1.433 . S
C988 C984 1.350 . S
C988 C985 1.463 . S
C988 N992 1.427 . S
C989 H979 0.929 . S
C989 C987 1.433 . S
C989 N992 1.384 . S
C990 H981 0.929 . S
C990 C982 1.378 . S
C990 C985 1.350 . S
C991 H978 0.929 . S
C991 C983 1.433 . S
C991 N993 1.384 . S
N992 C988 1.427 . S
N992 C989 1.384 . S
N993 C985 1.427 . S
N993 C991 1.384 . S
H994 C1000 0.930 . S
H995 C1004 0.930 . S
H996 C1009 0.929 . S
H997 C1007 0.936 . S
H998 C1002 0.929 . S
H999 C1008 0.929 . S
C1000 H994 0.930 . S
C1000 C1001 1.367 . S
C1000 C1008 1.378 . S
C1001 C1000 1.367 . S
C1001 C1009 1.433 . S
C1002 H998 0.929 . S
C1002 C1004 1.378 . S
C1002 C1006 1.350 . S
C1003 C1006 1.463 . S
C1003 C1008 1.350 . S
C1003 N1011 1.427 . S
C1004 H995 0.930 . S
C1004 C1002 1.378 . S
C1004 C1005 1.367 . S
C1005 C1004 1.367 . S
C1005 C1007 1.433 . S
C1006 C1002 1.350 . S
C1006 C1003 1.463 . S
C1006 N1010 1.427 . S
C1007 H997 0.936 . S
C1007 C1005 1.433 . S
C1007 N1010 1.384 . S
C1008 H999 0.929 . S
C1008 C1000 1.378 . S
C1008 C1003 1.350 . S
C1009 H996 0.929 . S
C1009 C1001 1.433 . S
C1009 N1011 1.384 . S
N1010 C1006 1.427 . S
N1010 C1007 1.384 . S
N1011 C1003 1.427 . S
N1011 C1009 1.384 . S
H1012 C1018 0.930 . S
H1013 C1022 0.930 . S
H1014 C1027 0.929 . S
H1015 C1025 0.929 . S
H1016 C1020 0.929 . S
H1017 C1026 0.929 . S
C1018 H1012 0.930 . S
C1018 C1019 1.367 . S
C1018 C1026 1.378 . S
C1019 C1018 1.367 . S
C1019 C1027 1.433 . S
C1020 H1016 0.929 . S
C1020 C1022 1.378 . S
C1020 C1024 1.350 . S
C1021 C1024 1.463 . S
C1021 C1026 1.350 . S
C1021 N1029 1.427 . S
C1022 H1013 0.930 . S
C1022 C1020 1.378 . S
C1022 C1023 1.367 . S
C1023 C1022 1.367 . S
C1023 C1025 1.433 . S
C1024 C1020 1.350 . S
C1024 C1021 1.463 . S
C1024 N1028 1.427 . S
C1025 H1015 0.929 . S
C1025 C1023 1.433 . S
C1025 N1028 1.384 . S
C1026 H1017 0.929 . S
C1026 C1018 1.378 . S
C1026 C1021 1.350 . S
C1027 H1014 0.929 . S
C1027 C1019 1.433 . S
C1027 N1029 1.384 . S
N1028 C1024 1.427 . S
N1028 C1025 1.384 . S
N1029 C1021 1.427 . S
N1029 C1027 1.384 . S
H1030 C1036 0.889 1_455 S
H1031 C1040 0.930 . S
H1032 C1045 0.929 . S
H1033 C1043 0.929 . S
H1034 C1038 0.929 . S
H1035 C1044 0.929 . S
C1036 H1030 0.889 1_655 S
C1036 C1037 1.367 . S
C1036 C1044 1.378 . S
C1037 C1036 1.367 . S
C1037 C1045 1.433 . S
C1038 H1034 0.929 . S
C1038 C1040 1.378 . S
C1038 C1042 1.350 . S
C1039 C1042 1.463 . S
C1039 C1044 1.350 . S
C1039 N1047 1.427 . S
C1040 H1031 0.930 . S
C1040 C1038 1.378 . S
C1040 C1041 1.367 . S
C1041 C1040 1.367 . S
C1041 C1043 1.433 . S
C1042 C1038 1.350 . S
C1042 C1039 1.463 . S
C1042 N1046 1.427 . S
C1043 H1033 0.929 . S
C1043 C1041 1.433 . S
C1043 N1046 1.384 . S
C1044 H1035 0.929 . S
C1044 C1036 1.378 . S
C1044 C1039 1.350 . S
C1045 H1032 0.929 . S
C1045 C1037 1.433 . S
C1045 N1047 1.384 . S
N1046 C1042 1.427 . S
N1046 C1043 1.384 . S
N1047 C1039 1.427 . S
N1047 C1045 1.384 . S
H1048 C1054 0.930 . S
H1049 C1058 0.930 . S
H1050 C1063 0.929 1_545 S
H1051 C1061 0.929 . S
H1052 C1056 0.929 . S
H1053 C1062 0.929 . S
C1054 H1048 0.930 . S
C1054 C1055 1.367 . S
C1054 C1062 1.378 . S
C1055 C1054 1.367 . S
C1055 C1063 1.433 . S
C1056 H1052 0.929 . S
C1056 C1058 1.378 . S
C1056 C1060 1.350 . S
C1057 C1060 1.463 . S
C1057 C1062 1.350 . S
C1057 N1065 1.427 . S
C1058 H1049 0.930 . S
C1058 C1056 1.378 . S
C1058 C1059 1.367 . S
C1059 C1058 1.367 . S
C1059 C1061 1.433 . S
C1060 C1056 1.350 . S
C1060 C1057 1.463 . S
C1060 N1064 1.427 . S
C1061 H1051 0.929 . S
C1061 C1059 1.433 . S
C1061 N1064 1.384 . S
C1062 H1053 0.929 . S
C1062 C1054 1.378 . S
C1062 C1057 1.350 . S
C1063 H1050 0.929 1_565 S
C1063 C1055 1.433 . S
C1063 N1065 1.384 . S
N1064 C1060 1.427 . S
N1064 C1061 1.384 . S
N1065 C1057 1.427 . S
N1065 C1063 1.384 . S
H1066 C1072 0.930 . S
H1067 C1076 0.930 . S
H1068 C1081 0.929 . S
H1069 C1079 0.929 . S
H1070 C1074 0.929 . S
H1071 C1080 0.929 . S
C1072 H1066 0.930 . S
C1072 C1073 1.367 . S
C1072 C1080 1.378 . S
C1073 C1072 1.367 . S
C1073 C1081 1.433 . S
C1074 H1070 0.929 . S
C1074 C1076 1.378 . S
C1074 C1078 1.350 . S
C1075 C1078 1.463 . S
C1075 C1080 1.350 . S
C1075 N1083 1.427 . S
C1076 H1067 0.930 . S
C1076 C1074 1.378 . S
C1076 C1077 1.367 . S
C1077 C1076 1.367 . S
C1077 C1079 1.433 . S
C1078 C1074 1.350 . S
C1078 C1075 1.463 . S
C1078 N1082 1.427 . S
C1079 H1069 0.929 . S
C1079 C1077 1.433 . S
C1079 N1082 1.384 . S
C1080 H1071 0.929 . S
C1080 C1072 1.378 . S
C1080 C1075 1.350 . S
C1081 H1068 0.929 . S
C1081 C1073 1.433 . S
C1081 N1083 1.384 . S
N1082 C1078 1.427 . S
N1082 C1079 1.384 . S
N1083 C1075 1.427 . S
N1083 C1081 1.384 . S
H1084 C1090 0.930 . S
H1085 C1094 0.930 . S
H1086 C1099 0.929 1_565 S
H1087 C1097 0.929 . S
H1088 C1092 0.929 . S
H1089 C1098 0.929 . S
C1090 H1084 0.930 . S
C1090 C1091 1.367 . S
C1090 C1098 1.378 . S
C1091 C1090 1.367 . S
C1091 C1099 1.433 . S
C1092 H1088 0.929 . S
C1092 C1094 1.378 . S
C1092 C1096 1.350 . S
C1093 C1096 1.463 . S
C1093 C1098 1.350 . S
C1093 N1101 1.427 . S
C1094 H1085 0.930 . S
C1094 C1092 1.378 . S
C1094 C1095 1.367 . S
C1095 C1094 1.367 . S
C1095 C1097 1.433 . S
C1096 C1092 1.350 . S
C1096 C1093 1.463 . S
C1096 N1100 1.427 . S
C1097 H1087 0.929 . S
C1097 C1095 1.433 . S
C1097 N1100 1.384 . S
C1098 H1089 0.929 . S
C1098 C1090 1.378 . S
C1098 C1093 1.350 . S
C1099 H1086 0.929 1_545 S
C1099 C1091 1.433 . S
C1099 N1101 1.384 . S
N1100 C1096 1.427 . S
N1100 C1097 1.384 . S
N1101 C1093 1.427 . S
N1101 C1099 1.384 . S
H1102 C1108 0.930 . S
H1103 C1112 0.930 . S
H1104 C1117 0.929 . S
H1105 C1115 0.929 . S
H1106 C1110 0.929 . S
H1107 C1116 0.929 . S
C1108 H1102 0.930 . S
C1108 C1109 1.367 . S
C1108 C1116 1.378 . S
C1109 C1108 1.367 . S
C1109 C1117 1.433 . S
C1110 H1106 0.929 . S
C1110 C1112 1.378 . S
C1110 C1114 1.350 . S
C1111 C1114 1.463 . S
C1111 C1116 1.350 . S
C1111 N1119 1.427 . S
C1112 H1103 0.930 . S
C1112 C1110 1.378 . S
C1112 C1113 1.367 . S
C1113 C1112 1.367 . S
C1113 C1115 1.433 . S
C1114 C1110 1.350 . S
C1114 C1111 1.463 . S
C1114 N1118 1.427 . S
C1115 H1105 0.929 . S
C1115 C1113 1.433 . S
C1115 N1118 1.384 . S
C1116 H1107 0.929 . S
C1116 C1108 1.378 . S
C1116 C1111 1.350 . S
C1117 H1104 0.929 . S
C1117 C1109 1.433 . S
C1117 N1119 1.384 . S
N1118 C1114 1.427 . S
N1118 C1115 1.384 . S
N1119 C1111 1.427 . S
N1119 C1117 1.384 . S
H1120 C1126 0.930 . S
H1121 C1130 0.930 . S
H1122 C1135 0.929 . S
H1123 C1133 0.929 . S
H1124 C1128 0.929 . S
H1125 C1134 0.929 . S
C1126 H1120 0.930 . S
C1126 C1127 1.367 . S
C1126 C1134 1.378 . S
C1127 C1126 1.367 . S
C1127 C1135 1.433 . S
C1128 H1124 0.929 . S
C1128 C1130 1.378 . S
C1128 C1132 1.350 . S
C1129 C1132 1.463 . S
C1129 C1134 1.350 . S
C1129 N1137 1.427 . S
C1130 H1121 0.930 . S
C1130 C1128 1.378 . S
C1130 C1131 1.367 . S
C1131 C1130 1.367 . S
C1131 C1133 1.433 . S
C1132 C1128 1.350 . S
C1132 C1129 1.463 . S
C1132 N1136 1.427 . S
C1133 H1123 0.929 . S
C1133 C1131 1.433 . S
C1133 N1136 1.384 . S
C1134 H1125 0.929 . S
C1134 C1126 1.378 . S
C1134 C1129 1.350 . S
C1135 H1122 0.929 . S
C1135 C1127 1.433 . S
C1135 N1137 1.384 . S
N1136 C1132 1.427 . S
N1136 C1133 1.384 . S
N1137 C1129 1.427 . S
N1137 C1135 1.384 . S
H1138 C1144 0.930 . S
H1139 C1148 0.930 . S
H1140 C1153 0.929 . S
H1141 C1151 0.929 . S
H1142 C1146 0.929 . S
H1143 C1152 0.929 . S
C1144 H1138 0.930 . S
C1144 C1145 1.367 . S
C1144 C1152 1.378 . S
C1145 C1144 1.367 . S
C1145 C1153 1.433 . S
C1146 H1142 0.929 . S
C1146 C1148 1.378 . S
C1146 C1150 1.350 . S
C1147 C1150 1.463 . S
C1147 C1152 1.350 . S
C1147 N1155 1.427 . S
C1148 H1139 0.930 . S
C1148 C1146 1.378 . S
C1148 C1149 1.367 . S
C1149 C1148 1.367 . S
C1149 C1151 1.433 . S
C1150 C1146 1.350 . S
C1150 C1147 1.463 . S
C1150 N1154 1.427 . S
C1151 H1141 0.929 . S
C1151 C1149 1.433 . S
C1151 N1154 1.384 . S
C1152 H1143 0.929 . S
C1152 C1144 1.378 . S
C1152 C1147 1.350 . S
C1153 H1140 0.929 . S
C1153 C1145 1.433 . S
C1153 N1155 1.384 . S
N1154 C1150 1.427 . S
N1154 C1151 1.384 . S
N1155 C1147 1.427 . S
N1155 C1153 1.384 . S
H1156 C1162 0.930 . S
H1157 C1166 0.930 . S
H1158 C1171 0.929 . S
H1159 C1169 0.929 . S
H1160 C1164 0.929 . S
H1161 C1170 0.929 . S
C1162 H1156 0.930 . S
C1162 C1163 1.367 . S
C1162 C1170 1.378 . S
C1163 C1162 1.367 . S
C1163 C1171 1.433 . S
C1164 H1160 0.929 . S
C1164 C1166 1.378 . S
C1164 C1168 1.350 . S
C1165 C1168 1.463 . S
C1165 C1170 1.350 . S
C1165 N1173 1.427 . S
C1166 H1157 0.930 . S
C1166 C1164 1.378 . S
C1166 C1167 1.367 . S
C1167 C1166 1.367 . S
C1167 C1169 1.433 . S
C1168 C1164 1.350 . S
C1168 C1165 1.463 . S
C1168 N1172 1.427 . S
C1169 H1159 0.929 . S
C1169 C1167 1.433 . S
C1169 N1172 1.384 . S
C1170 H1161 0.929 . S
C1170 C1162 1.378 . S
C1170 C1165 1.350 . S
C1171 H1158 0.929 . S
C1171 C1163 1.433 . S
C1171 N1173 1.384 . S
N1172 C1168 1.427 . S
N1172 C1169 1.384 . S
N1173 C1165 1.427 . S
N1173 C1171 1.384 . S
H1174 C1180 0.930 . S
H1175 C1184 0.930 . S
H1176 C1189 0.929 . S
H1177 C1187 0.929 . S
H1178 C1182 0.929 . S
H1179 C1188 0.929 . S
C1180 H1174 0.930 . S
C1180 C1181 1.367 . S
C1180 C1188 1.378 . S
C1181 C1180 1.367 . S
C1181 C1189 1.433 . S
C1182 H1178 0.929 . S
C1182 C1184 1.378 . S
C1182 C1186 1.350 . S
C1183 C1186 1.463 . S
C1183 C1188 1.350 . S
C1183 N1191 1.427 . S
C1184 H1175 0.930 . S
C1184 C1182 1.378 . S
C1184 C1185 1.367 . S
C1185 C1184 1.367 . S
C1185 C1187 1.433 . S
C1186 C1182 1.350 . S
C1186 C1183 1.463 . S
C1186 N1190 1.427 . S
C1187 H1177 0.929 . S
C1187 C1185 1.433 . S
C1187 N1190 1.384 . S
C1188 H1179 0.929 . S
C1188 C1180 1.378 . S
C1188 C1183 1.350 . S
C1189 H1176 0.929 . S
C1189 C1181 1.433 . S
C1189 N1191 1.384 . S
N1190 C1186 1.427 . S
N1190 C1187 1.384 . S
N1191 C1183 1.427 . S
N1191 C1189 1.384 . S
H1192 C1198 0.930 . S
H1193 C1202 0.930 . S
H1194 C1207 0.929 . S
H1195 C1205 0.929 . S
H1196 C1200 0.929 . S
H1197 C1206 0.929 . S
C1198 H1192 0.930 . S
C1198 C1199 1.367 . S
C1198 C1206 1.377 1_565 S
C1199 C1198 1.367 . S
C1199 C1207 1.433 . S
C1200 H1196 0.929 . S
C1200 C1202 1.377 1_565 S
C1200 C1204 1.350 1_565 S
C1201 C1204 1.463 1_566 S
C1201 C1206 1.350 1_565 S
C1201 N1209 1.427 . S
C1202 H1193 0.930 . S
C1202 C1200 1.377 1_545 S
C1202 C1203 1.367 . S
C1203 C1202 1.367 . S
C1203 C1205 1.433 . S
C1204 C1200 1.350 1_545 S
C1204 C1201 1.463 1_544 S
C1204 N1208 1.427 . S
C1205 H1195 0.929 . S
C1205 C1203 1.433 . S
C1205 N1208 1.384 . S
C1206 H1197 0.929 . S
C1206 C1198 1.377 1_545 S
C1206 C1201 1.350 1_545 S
C1207 H1194 0.929 . S
C1207 C1199 1.433 . S
C1207 N1209 1.384 . S
N1208 C1204 1.427 . S
N1208 C1205 1.384 . S
N1209 C1201 1.427 . S
N1209 C1207 1.384 . S
H1210 C1216 0.930 . S
H1211 C1220 0.930 . S
H1212 C1225 0.929 . S
H1213 C1223 0.929 . S
H1214 C1218 0.929 . S
H1215 C1224 0.929 . S
C1216 H1210 0.930 . S
C1216 C1217 1.367 . S
C1216 C1224 1.378 . S
C1217 C1216 1.367 . S
C1217 C1225 1.433 1_455 S
C1218 H1214 0.929 . S
C1218 C1220 1.378 . S
C1218 C1222 1.350 . S
C1219 C1222 1.463 1_456 S
C1219 C1224 1.350 . S
C1219 N1227 1.427 1_455 S
C1220 H1211 0.930 . S
C1220 C1218 1.378 . S
C1220 C1221 1.367 . S
C1221 C1220 1.367 . S
C1221 C1223 1.433 1_655 S
C1222 C1218 1.350 . S
C1222 C1219 1.463 1_654 S
C1222 N1226 1.427 1_655 S
C1223 H1213 0.929 . S
C1223 C1221 1.433 1_455 S
C1223 N1226 1.384 . S
C1224 H1215 0.929 . S
C1224 C1216 1.378 . S
C1224 C1219 1.350 . S
C1225 H1212 0.929 . S
C1225 C1217 1.433 1_655 S
C1225 N1227 1.384 . S
N1226 C1222 1.427 1_455 S
N1226 C1223 1.384 . S
N1227 C1219 1.427 1_655 S
N1227 C1225 1.384 . S
H1228 C1234 0.933 . S
H1229 C1238 0.933 . S
H1230 C1243 0.929 . S
H1231 C1241 0.929 . S
H1232 C1236 0.929 . S
H1233 C1242 0.929 . S
C1234 H1228 0.933 . S
C1234 C1235 1.367 . S
C1234 C1242 1.378 1_565 S
C1235 C1234 1.367 . S
C1235 C1243 1.433 . S
C1236 H1232 0.929 . S
C1236 C1238 1.378 1_565 S
C1236 C1240 1.350 1_565 S
C1237 C1240 1.463 1_564 S
C1237 C1242 1.350 1_565 S
C1237 N1245 1.427 . S
C1238 H1229 0.933 . S
C1238 C1236 1.378 1_545 S
C1238 C1239 1.367 . S
C1239 C1238 1.367 . S
C1239 C1241 1.433 . S
C1240 C1236 1.350 1_545 S
C1240 C1237 1.463 1_546 S
C1240 N1244 1.427 . S
C1241 H1231 0.929 . S
C1241 C1239 1.433 . S
C1241 N1244 1.384 . S
C1242 H1233 0.929 . S
C1242 C1234 1.378 1_545 S
C1242 C1237 1.350 1_545 S
C1243 H1230 0.929 . S
C1243 C1235 1.433 . S
C1243 N1245 1.384 . S
N1244 C1240 1.427 . S
N1244 C1241 1.384 . S
N1245 C1237 1.427 . S
N1245 C1243 1.384 . S
H1246 C1252 0.930 . S
H1247 C1256 0.930 . S
H1248 C1261 0.923 1_455 S
H1249 C1259 0.923 1_655 S
H1250 C1254 0.929 . S
H1251 C1260 0.929 . S
C1252 H1246 0.930 . S
C1252 C1253 1.367 . S
C1252 C1260 1.378 . S
C1253 C1252 1.367 . S
C1253 C1261 1.444 . S
C1254 H1250 0.929 . S
C1254 C1256 1.378 . S
C1254 C1258 1.350 . S
C1255 C1258 1.463 1_656 S
C1255 C1260 1.350 . S
C1255 N1263 1.427 1_655 S
C1256 H1247 0.930 . S
C1256 C1254 1.378 . S
C1256 C1257 1.367 . S
C1257 C1256 1.367 . S
C1257 C1259 1.444 . S
C1258 C1254 1.350 . S
C1258 C1255 1.463 1_454 S
C1258 N1262 1.427 1_455 S
C1259 H1249 0.923 1_455 S
C1259 C1257 1.444 . S
C1259 N1262 1.379 1_455 S
C1260 H1251 0.929 . S
C1260 C1252 1.378 . S
C1260 C1255 1.350 . S
C1261 H1248 0.923 1_655 S
C1261 C1253 1.444 . S
C1261 N1263 1.379 1_655 S
N1262 C1258 1.427 1_655 S
N1262 C1259 1.379 1_655 S
N1263 C1255 1.427 1_455 S
N1263 C1261 1.379 1_455 S
C551 C73 0.366 . S
C555 C5 0.371 . S
C569 C107 0.402 . S
C573 C39 0.392 . S
C587 C209 0.409 . S
C591 C141 0.400 . S
C605 C175 0.403 . S
C609 C243 0.411 . S
C623 C277 0.419 . S
C627 C345 0.416 . S
C641 C311 0.385 . S
C645 C379 0.395 . S
C659 C481 0.399 . S
C663 C413 0.389 . S
C677 C515 0.374 . S
C681 C447 0.367 . S
C695 C9 1.510 . S
C699 C247 1.511 . S
C713 C145 1.514 . S
C717 C43 1.507 . S
C731 C179 1.511 . S
C735 C77 1.510 . S
C749 C213 1.507 . S
C753 C111 1.514 . S
C767 C519 1.508 . S
C771 C281 1.513 . S
C785 C417 1.507 . S
C789 C315 1.514 . S
C803 C451 1.510 . S
C807 C349 1.511 . S
C821 C485 1.512 . S
C825 C383 1.508 . S
C839 C33 1.362 . S
C843 C376 1.427 . S
C857 C67 1.378 . S
C861 C274 1.417 . S
C875 C101 1.376 . S
C879 C308 1.417 . S
C893 C342 1.419 . S
C897 C135 1.379 . S
C911 C169 1.376 . S
C915 C444 1.417 . S
C929 C203 1.374 . S
C933 C478 1.423 . S
C947 C237 1.379 . S
C951 C512 1.419 . S
C965 C271 1.378 . S
C969 C410 1.420 . S
C983 C104 1.420 . S
C987 C305 1.378 . S
C1001 C2 1.417 . S
C1005 C339 1.377 . S
C1019 C36 1.426 . S
C1023 C373 1.368 . S
C1037 C407 1.364 . S
C1041 C70 1.427 . S
C1055 C441 1.376 . S
C1059 C172 1.417 . S
C1073 C475 1.360 . S
C1077 C206 1.424 . S
C1091 C509 1.374 . S
C1095 C240 1.417 . S
C1109 C543 1.366 . S
C1113 C138 1.427 . S
C1127 C156 1.769 . S
C1131 C20 1.765 . S
C1145 C190 1.770 . S
C1149 C54 1.764 . S
C1163 C88 1.764 . S
C1167 C224 1.769 . S
C1181 C258 1.764 . S
C1185 C122 1.768 . S
C1199 C292 1.763 . S
C1203 C428 1.770 . S
C1217 C462 1.769 . S
C1221 C326 1.765 . S
C1235 C496 1.763 . S
C1239 C360 1.770 . S
C1253 C530 1.770 . S
C1257 C394 1.764 . S
