# Generated by pormake.
# Topology crs, (6)-cn, num edge types: 1
# Building blocks:
#     Node 0, Type 0, BuildingBlock: JUFBIX_clean_sbu_0, # of connection points: 6
#     Node 1, Type 0, BuildingBlock: JUFBIX_clean_sbu_0, # of connection points: 6
#     Node 2, Type 0, BuildingBlock: JUFBIX_clean_sbu_0, # of connection points: 6
#     Node 3, Type 0, BuildingBlock: JUFBIX_clean_sbu_0, # of connection points: 6
#     Node 4, Type 0, BuildingBlock: JUFBIX_clean_sbu_0, # of connection points: 6
#     Node 5, Type 0, BuildingBlock: JUFBIX_clean_sbu_0, # of connection points: 6
#     Node 6, Type 0, BuildingBlock: JUFBIX_clean_sbu_0, # of connection points: 6
#     Node 7, Type 0, BuildingBlock: JUFBIX_clean_sbu_0, # of connection points: 6
#     Node 8, Type 0, BuildingBlock: JUFBIX_clean_sbu_0, # of connection points: 6
#     Node 9, Type 0, BuildingBlock: JUFBIX_clean_sbu_0, # of connection points: 6
#     Node 10, Type 0, BuildingBlock: JUFBIX_clean_sbu_0, # of connection points: 6
#     Node 11, Type 0, BuildingBlock: JUFBIX_clean_sbu_0, # of connection points: 6
#     Node 12, Type 0, BuildingBlock: JUFBIX_clean_sbu_0, # of connection points: 6
#     Node 13, Type 0, BuildingBlock: JUFBIX_clean_sbu_0, # of connection points: 6
#     Node 14, Type 0, BuildingBlock: JUFBIX_clean_sbu_0, # of connection points: 6
#     Node 15, Type 0, BuildingBlock: JUFBIX_clean_sbu_0, # of connection points: 6
#     Edge 16, Type (0, 0), BuildingBlock: CIFDUS_clean_linker_0, # of connection points: 2
#     Edge 17, Type (0, 0), BuildingBlock: CIFDUS_clean_linker_0, # of connection points: 2
#     Edge 18, Type (0, 0), BuildingBlock: CIFDUS_clean_linker_0, # of connection points: 2
#     Edge 19, Type (0, 0), BuildingBlock: CIFDUS_clean_linker_0, # of connection points: 2
#     Edge 20, Type (0, 0), BuildingBlock: CIFDUS_clean_linker_0, # of connection points: 2
#     Edge 21, Type (0, 0), BuildingBlock: CIFDUS_clean_linker_0, # of connection points: 2
#     Edge 22, Type (0, 0), BuildingBlock: CIFDUS_clean_linker_0, # of connection points: 2
#     Edge 23, Type (0, 0), BuildingBlock: CIFDUS_clean_linker_0, # of connection points: 2
#     Edge 24, Type (0, 0), BuildingBlock: CIFDUS_clean_linker_0, # of connection points: 2
#     Edge 25, Type (0, 0), BuildingBlock: CIFDUS_clean_linker_0, # of connection points: 2
#     Edge 26, Type (0, 0), BuildingBlock: CIFDUS_clean_linker_0, # of connection points: 2
#     Edge 27, Type (0, 0), BuildingBlock: CIFDUS_clean_linker_0, # of connection points: 2
#     Edge 28, Type (0, 0), BuildingBlock: CIFDUS_clean_linker_0, # of connection points: 2
#     Edge 29, Type (0, 0), BuildingBlock: CIFDUS_clean_linker_0, # of connection points: 2
#     Edge 30, Type (0, 0), BuildingBlock: CIFDUS_clean_linker_0, # of connection points: 2
#     Edge 31, Type (0, 0), BuildingBlock: CIFDUS_clean_linker_0, # of connection points: 2
#     Edge 32, Type (0, 0), BuildingBlock: CIFDUS_clean_linker_0, # of connection points: 2
#     Edge 33, Type (0, 0), BuildingBlock: CIFDUS_clean_linker_0, # of connection points: 2
#     Edge 34, Type (0, 0), BuildingBlock: CIFDUS_clean_linker_0, # of connection points: 2
#     Edge 35, Type (0, 0), BuildingBlock: CIFDUS_clean_linker_0, # of connection points: 2
#     Edge 36, Type (0, 0), BuildingBlock: CIFDUS_clean_linker_0, # of connection points: 2
#     Edge 37, Type (0, 0), BuildingBlock: CIFDUS_clean_linker_0, # of connection points: 2
#     Edge 38, Type (0, 0), BuildingBlock: CIFDUS_clean_linker_0, # of connection points: 2
#     Edge 39, Type (0, 0), BuildingBlock: CIFDUS_clean_linker_0, # of connection points: 2
#     Edge 40, Type (0, 0), BuildingBlock: CIFDUS_clean_linker_0, # of connection points: 2
#     Edge 41, Type (0, 0), BuildingBlock: CIFDUS_clean_linker_0, # of connection points: 2
#     Edge 42, Type (0, 0), BuildingBlock: CIFDUS_clean_linker_0, # of connection points: 2
#     Edge 43, Type (0, 0), BuildingBlock: CIFDUS_clean_linker_0, # of connection points: 2
#     Edge 44, Type (0, 0), BuildingBlock: CIFDUS_clean_linker_0, # of connection points: 2
#     Edge 45, Type (0, 0), BuildingBlock: CIFDUS_clean_linker_0, # of connection points: 2
#     Edge 46, Type (0, 0), BuildingBlock: CIFDUS_clean_linker_0, # of connection points: 2
#     Edge 47, Type (0, 0), BuildingBlock: CIFDUS_clean_linker_0, # of connection points: 2
#     Edge 48, Type (0, 0), BuildingBlock: CIFDUS_clean_linker_0, # of connection points: 2
#     Edge 49, Type (0, 0), BuildingBlock: CIFDUS_clean_linker_0, # of connection points: 2
#     Edge 50, Type (0, 0), BuildingBlock: CIFDUS_clean_linker_0, # of connection points: 2
#     Edge 51, Type (0, 0), BuildingBlock: CIFDUS_clean_linker_0, # of connection points: 2
#     Edge 52, Type (0, 0), BuildingBlock: CIFDUS_clean_linker_0, # of connection points: 2
#     Edge 53, Type (0, 0), BuildingBlock: CIFDUS_clean_linker_0, # of connection points: 2
#     Edge 54, Type (0, 0), BuildingBlock: CIFDUS_clean_linker_0, # of connection points: 2
#     Edge 55, Type (0, 0), BuildingBlock: CIFDUS_clean_linker_0, # of connection points: 2
#     Edge 56, Type (0, 0), BuildingBlock: CIFDUS_clean_linker_0, # of connection points: 2
#     Edge 57, Type (0, 0), BuildingBlock: CIFDUS_clean_linker_0, # of connection points: 2
#     Edge 58, Type (0, 0), BuildingBlock: CIFDUS_clean_linker_0, # of connection points: 2
#     Edge 59, Type (0, 0), BuildingBlock: CIFDUS_clean_linker_0, # of connection points: 2
#     Edge 60, Type (0, 0), BuildingBlock: CIFDUS_clean_linker_0, # of connection points: 2
#     Edge 61, Type (0, 0), BuildingBlock: CIFDUS_clean_linker_0, # of connection points: 2
#     Edge 62, Type (0, 0), BuildingBlock: CIFDUS_clean_linker_0, # of connection points: 2
#     Edge 63, Type (0, 0), BuildingBlock: CIFDUS_clean_linker_0, # of connection points: 2
# Relax obj value: 0.712
# Max RMSD: 0.353
# Mean RMSD: 0.294
data_MOF--net-crs--node1-JUFBIX_clean_sbu_0--edge1-CIFDUS_clean_linker_0
_symmetry_space_group_name_H-M    P1
_symmetry_Int_Tables_number       1
_symmetry_cell_setting            triclinic
loop_
_symmetry_equiv_pos_as_xyz
'x, y, z'
_cell_length_a     35.10383
_cell_length_b     36.025479
_cell_length_c     44.826009
_cell_angle_alpha  104.02288
_cell_angle_beta   90.003183
_cell_angle_gamma 90.275728
loop_
_atom_site_label
_atom_site_type_symbol
_atom_site_fract_x
_atom_site_fract_y
_atom_site_fract_z
_atom_type_partial_charge
Co0 Co 0.01146 0.01138 0.95673 0.0
C1 C 0.03565 0.03502 0.01682 0.0
Co2 Co 0.0509 0.9712 0.97042 0.0
C3 C 0.94172 0.03382 0.93533 0.0
C4 C 0.97836 0.08243 0.95022 0.0
N5 N 0.97662 0.0442 0.94677 0.0
N6 N 0.92136 0.06384 0.93161 0.0
C7 C 0.94434 0.09459 0.94052 0.0
H8 H 0.93172 0.00447 0.92901 0.0
H9 H 0.0027 0.10019 0.95914 0.0
C10 C 0.02468 0.94743 0.91066 0.0
N11 N 0.08526 0.93803 0.98089 0.0
C12 C 0.11563 0.94773 -0.00049 0.0
C13 C 0.0837 0.89949 0.97438 0.0
N14 N 0.13275 0.91693 0.00549 0.0
C15 C 0.11277 0.88642 0.98971 0.0
C16 C 0.97685 0.9563 0.98174 0.0
O17 O 0.00668 0.97874 0.91729 0.0
O18 O 0.04659 0.93866 0.93039 0.0
O19 O 0.01055 0.94449 0.98348 0.0
O20 O 0.9713 0.98519 0.97093 0.0
O21 O 0.0539 0.00375 0.01081 0.0
H22 H 0.06173 0.8822 0.96068 0.0
H23 H 0.12338 0.97704 0.0103 0.0
O24 O 0.01598 0.04396 -0.00405 0.0
O25 O 0.05144 0.03721 0.94284 0.0
O26 O 0.09159 -0.00141 0.95753 0.0
C27 C 0.08542 0.02696 0.94601 0.0
H28 H 0.93716 0.12356 0.93983 0.0
H29 H 0.11768 0.85701 0.99042 0.0
Co30 Co 0.00926 0.24551 0.22254 0.0
C31 C 0.93306 0.26133 0.21532 0.0
Co32 Co 0.96921 0.20299 0.23275 0.0
C33 C 0.06934 0.27779 0.19422 0.0
C34 C 0.03483 0.32119 0.22246 0.0
N35 N 0.04009 0.28295 0.21406 0.0
N36 N 0.08209 0.31111 0.18934 0.0
C37 C 0.06049 0.33863 0.20694 0.0
H38 H 0.07924 0.24988 0.1818 0.0
H39 H 0.01237 0.33525 0.23747 0.0
C40 C 0.04625 0.18674 0.23817 0.0
N41 N 0.93719 0.16645 0.24186 0.0
C42 C 0.90447 0.17358 0.25786 0.0
C43 C 0.94242 0.12837 0.23717 0.0
N44 N 0.88922 0.14172 0.26371 0.0
C45 C 0.91306 0.11311 0.25093 0.0
C46 C 0.99205 0.18727 0.17223 0.0
O47 O 0.05184 0.21755 0.22981 0.0
O48 O 0.01233 0.17611 0.24189 0.0
O49 O 0.97219 0.17461 0.19133 0.0
O50 O 0.00971 0.21883 0.18089 0.0
O51 O 0.92631 0.23033 0.22308 0.0
H52 H 0.96676 0.11301 0.22561 0.0
H53 H 0.89324 0.20207 0.26673 0.0
O54 O 0.96706 0.27291 0.21475 0.0
O55 O 0.00907 0.27167 0.26403 0.0
O56 O 0.96701 0.2314 0.27445 0.0
C57 C 0.98823 0.26063 0.28329 0.0
H58 H 0.06215 0.36881 0.20754 0.0
H59 H 0.91007 0.08364 0.2523 0.0
Co60 Co 0.75876 0.18682 0.47552 0.0
C61 C 0.76621 0.16371 0.41201 0.0
Co62 Co 0.71974 0.21585 0.45013 0.0
C63 C 0.78513 0.14978 0.52151 0.0
C64 C 0.8291 0.15477 0.48963 0.0
N65 N 0.79206 0.16256 0.49618 0.0
N66 N 0.81641 0.13439 0.53116 0.0
C67 C 0.84414 0.13737 0.51108 0.0
H68 H 0.75752 0.15157 0.5325 0.0
H69 H 0.84429 0.16175 0.47069 0.0
C70 C 0.71304 0.24078 0.5131 0.0
N71 N 0.68689 0.24096 0.4294 0.0
C72 C 0.69721 0.26393 0.4111 0.0
C73 C 0.64874 0.24481 0.4322 0.0
N74 N 0.66736 0.28272 0.40296 0.0
C75 C 0.63661 0.27045 0.41584 0.0
C76 C 0.68924 0.15016 0.463 0.0
O77 O 0.73876 0.21616 0.51356 0.0
O78 O 0.7004 0.24445 0.4875 0.0
O79 O 0.68235 0.17706 0.44988 0.0
O80 O 0.72173 0.14857 0.47504 0.0
O81 O 0.73957 0.18755 0.41243 0.0
H82 H 0.63116 0.23145 0.4465 0.0
H83 H 0.72641 0.26789 0.40471 0.0
O84 O 0.77852 0.15831 0.43728 0.0
O85 O 0.79554 0.22509 0.47659 0.0
O86 O 0.75751 0.25466 0.45149 0.0
C87 C 0.78905 0.25318 0.465 0.0
H88 H 0.87338 0.12839 0.51216 0.0
H89 H 0.60788 0.28097 0.41505 0.0
Co90 Co 0.70133 -0.00434 0.77273 0.0
C91 C 0.6895 0.07023 0.77077 0.0
Co92 Co 0.74328 0.01632 0.74385 0.0
C93 C 0.67904 0.95849 0.81905 0.0
C94 C 0.63022 0.98169 0.80166 0.0
N95 N 0.66825 0.97784 0.79825 0.0
N96 N 0.64951 0.95021 0.83561 0.0
C97 C 0.61857 0.96462 0.82461 0.0
H98 H 0.70825 0.95049 0.82182 0.0
H99 H 0.61228 -0.00362 0.78863 0.0
C100 C 0.7542 0.94108 0.74549 0.0
N101 N 0.77711 0.03376 0.71892 0.0
C102 C 0.76863 0.05464 0.69865 0.0
C103 C 0.81495 0.02765 0.71606 0.0
N104 N 0.79956 0.06164 0.68305 0.0
C105 C 0.82884 0.04466 0.69386 0.0
C106 C 0.76637 0.03024 0.80335 0.0
O107 O 0.72524 0.94746 0.76281 0.0
O108 O 0.76762 0.96785 0.73458 0.0
O109 O 0.77547 0.03385 0.77692 0.0
O110 O 0.73556 0.01308 0.80685 0.0
O111 O 0.71836 0.06434 0.75317 0.0
H112 H 0.83124 0.01147 0.729 0.0
H113 H 0.74002 0.06351 0.69477 0.0
O114 O 0.67737 0.04364 0.78244 0.0
O115 O 0.66739 0.97934 0.73809 0.0
O116 O 0.71098 -0.00038 0.71064 0.0
C117 C 0.67838 0.98523 0.7125 0.0
H118 H 0.58974 0.96366 0.83294 0.0
H119 H 0.85811 0.04445 0.68623 0.0
Co120 Co 0.5535 0.78405 0.25683 0.0
C121 C 0.47779 0.80123 0.24661 0.0
Co122 Co 0.51073 0.74572 0.26957 0.0
C123 C 0.61553 0.81093 0.22585 0.0
C124 C 0.58367 0.85705 0.25362 0.0
N125 N 0.58674 0.81856 0.24623 0.0
N126 N 0.63002 0.843 0.21973 0.0
C127 C 0.61008 0.87216 0.23711 0.0
H128 H 0.62373 0.78223 0.21391 0.0
H129 H 0.56208 0.8729 0.26861 0.0
C130 C 0.58644 0.72824 0.27944 0.0
N131 N 0.47752 0.71121 0.28036 0.0
C132 C 0.44684 0.71822 0.29896 0.0
C133 C 0.48212 0.67291 0.27403 0.0
N134 N 0.43261 0.68589 0.30486 0.0
C135 C 0.45468 0.6573 0.28922 0.0
C136 C 0.53518 0.72215 0.20961 0.0
O137 O 0.5947 0.75563 0.26725 0.0
O138 O 0.55173 0.7206 0.28334 0.0
O139 O 0.51516 0.71329 0.23036 0.0
O140 O 0.55422 0.75314 0.21574 0.0
O141 O 0.46991 0.77128 0.25569 0.0
H142 H 0.50508 0.65753 0.26039 0.0
H143 H 0.43659 0.74668 0.3095 0.0
O144 O 0.51227 0.81185 0.2462 0.0
O145 O 0.55204 0.81468 0.29778 0.0
O146 O 0.50609 0.7785 0.30863 0.0
C147 C 0.52757 0.80757 0.31652 0.0
H148 H 0.61319 0.90196 0.23676 0.0
H149 H 0.4519 0.62747 0.28959 0.0
Co150 Co 0.24832 0.71375 0.48738 0.0
C151 C 0.26665 0.71013 0.42723 0.0
Co152 Co 0.2017 0.73349 0.46218 0.0
C153 C 0.28088 0.6757 0.52969 0.0
C154 C 0.32312 0.70977 0.5143 0.0
N155 N 0.28644 0.69836 0.51015 0.0
N156 N 0.31228 0.67276 0.54621 0.0
C157 C 0.33907 0.6942 0.53667 0.0
H158 H 0.25348 0.6634 0.53305 0.0
H159 H 0.33686 0.72932 0.50276 0.0
C160 C 0.18406 0.73741 0.52239 0.0
N161 N 0.16267 0.74811 0.44018 0.0
C162 C 0.16595 0.77058 0.42036 0.0
C163 C 0.12584 0.73681 0.43835 0.0
N164 N 0.13283 0.77362 0.406 0.0
C165 C 0.1074 0.7523 0.41708 0.0
C166 C 0.1983 0.65608 0.4606 0.0
O167 O 0.2175 0.7245 0.52259 0.0
O168 O 0.17079 0.74398 0.49785 0.0
O169 O 0.1829 0.68306 0.45141 0.0
O170 O 0.22843 0.66282 0.47674 0.0
O171 O 0.23316 0.72321 0.42669 0.0
H172 H 0.11349 0.71772 0.45103 0.0
H173 H 0.19266 0.78316 0.41558 0.0
O174 O 0.27923 0.70299 0.45184 0.0
O175 O 0.26739 0.76521 0.49807 0.0
O176 O 0.22052 0.78405 0.47295 0.0
C177 C 0.25049 0.79181 0.4891 0.0
H178 H 0.36775 0.69901 0.54569 0.0
H179 H 0.07789 0.7479 0.41005 0.0
Co180 Co 0.22335 0.51383 0.77068 0.0
C181 C 0.19304 0.58194 0.76518 0.0
Co182 Co 0.2647 0.54923 0.7526 0.0
C183 C 0.20233 0.46222 0.80654 0.0
C184 C 0.15344 0.47609 0.78301 0.0
N185 N 0.19102 0.48351 0.78729 0.0
N186 N 0.17371 0.44139 0.81422 0.0
C187 C 0.14263 0.4502 0.79973 0.0
H188 H 0.23126 0.46206 0.81487 0.0
H189 H 0.13529 0.48822 0.76835 0.0
C190 C 0.29449 0.48055 0.75666 0.0
N191 N 0.29794 0.57897 0.73609 0.0
C192 C 0.29208 0.59184 0.71062 0.0
C193 C 0.33377 0.59006 0.74503 0.0
N194 N 0.3229 0.61005 0.70297 0.0
C195 C 0.34916 0.60932 0.72474 0.0
C196 C 0.26719 0.56198 0.81568 0.0
O197 O 0.26161 0.47641 0.76709 0.0
O198 O 0.30256 0.51125 0.74886 0.0
O199 O 0.28225 0.57257 0.79326 0.0
O200 O 0.24048 0.53745 0.81043 0.0
O201 O 0.22649 0.587 0.75596 0.0
H202 H 0.34816 0.58357 0.76448 0.0
H203 H 0.26572 0.58752 0.69769 0.0
O204 O 0.18532 0.55146 0.77357 0.0
O205 O 0.20649 0.48982 0.73103 0.0
O206 O 0.24687 0.52493 0.71232 0.0
C207 C 0.22129 0.49908 0.70804 0.0
H208 H 0.11448 0.43808 0.80052 0.0
H209 H 0.37787 0.62057 0.72531 0.0
Co210 Co 0.99495 0.46224 0.48493 0.0
C211 C 0.00087 0.49282 0.54726 0.0
Co212 Co 0.03359 0.43009 0.50787 0.0
C213 C 0.93452 0.47832 0.44689 0.0
C214 C 0.96308 0.52907 0.47182 0.0
N215 N 0.96322 0.49061 0.4668 0.0
N216 N 0.91653 0.50763 0.4392 0.0
C217 C 0.93445 0.53963 0.45479 0.0
H218 H 0.92752 0.44842 0.43772 0.0
H219 H 0.98253 0.54818 0.48698 0.0
C220 C 0.02576 0.39975 0.44545 0.0
N221 N 0.06554 0.40286 0.52704 0.0
C222 C 0.09203 0.41874 0.54796 0.0
C223 C 0.06653 0.3651 0.52584 0.0
N224 N 0.10941 0.39271 0.56022 0.0
C225 C 0.09339 0.35879 0.54654 0.0
C226 C 0.95863 0.4044 0.50397 0.0
O227 O 0.00352 0.42781 0.44724 0.0
O228 O 0.04316 0.39539 0.46922 0.0
O229 O 0.99159 0.39903 0.51387 0.0
O230 O 0.95352 0.43196 0.4914 0.0
O231 O 0.02354 0.46527 0.54664 0.0
H232 H 0.04803 0.34384 0.5117 0.0
H233 H 0.0969 0.4493 0.55539 0.0
O234 O 0.98571 0.49628 0.52253 0.0
O235 O 0.03694 0.49221 0.47793 0.0
O236 O 0.07539 0.46093 0.50142 0.0
C237 C 0.07018 0.4869 0.48717 0.0
H238 H 0.9274 0.56855 0.45388 0.0
H239 H 0.09983 0.33169 0.55176 0.0
Co240 Co 0.28634 0.24748 0.0128 0.0
C241 C 0.30251 0.24457 0.95284 0.0
Co242 Co 0.23945 0.2702 0.98957 0.0
C243 C 0.31745 0.20358 0.05148 0.0
C244 C 0.36154 0.23672 0.03735 0.0
N245 N 0.324 0.22865 0.03405 0.0
N246 N 0.34915 0.19548 0.06557 0.0
C247 C 0.3771 0.21643 0.05689 0.0
H248 H 0.28945 0.19237 0.05455 0.0
H249 H 0.37647 0.2564 0.02662 0.0
C250 C 0.22414 0.27281 0.04994 0.0
N251 N 0.20069 0.2881 0.96901 0.0
C252 C 0.20423 0.31034 0.94894 0.0
C253 C 0.16299 0.28124 0.97022 0.0
N254 N 0.17029 0.31762 0.93742 0.0
C255 C 0.14419 0.29945 0.95087 0.0
C256 C 0.2343 0.19251 0.98481 0.0
O257 O 0.25708 0.2584 0.04858 0.0
O258 O 0.20986 0.28062 0.02616 0.0
O259 O 0.21862 0.22076 0.97761 0.0
O260 O 0.26439 0.19779 0.00098 0.0
O261 O 0.26979 0.25973 0.95339 0.0
H262 H 0.15006 0.26383 0.98406 0.0
H263 H 0.23131 0.32122 0.94312 0.0
O264 O 0.31559 0.23644 0.97688 0.0
O265 O 0.30788 0.29769 0.02397 0.0
O266 O 0.26047 0.31937 0.00115 0.0
C267 C 0.2915 0.32535 0.01604 0.0
H268 H 0.40657 0.21704 0.06408 0.0
H269 H 0.11382 0.29871 0.9466 0.0
Co270 Co 0.2207 0.94506 0.23016 0.0
C271 C 0.18991 0.01453 0.22784 0.0
Co272 Co 0.262 0.98411 0.21635 0.0
C273 C 0.19146 0.90028 0.26899 0.0
C274 C 0.15015 0.9052 0.23514 0.0
N275 N 0.18643 0.91425 0.24407 0.0
N276 N 0.15962 0.88383 0.27666 0.0
C277 C 0.13354 0.88629 0.25519 0.0
H278 H 0.21778 0.90329 0.28195 0.0
H279 H 0.13614 0.91351 0.21628 0.0
C280 C 0.29238 0.91436 0.21985 0.0
N281 N 0.29589 0.01553 0.20219 0.0
C282 C 0.28889 0.03378 0.17982 0.0
C283 C 0.33246 0.024 0.21032 0.0
N284 N 0.31962 0.05313 0.17334 0.0
C285 C 0.34713 0.04718 0.19267 0.0
C286 C 0.26061 0.99349 0.27867 0.0
O287 O 0.25867 0.90801 0.22759 0.0
O288 O 0.30022 0.94603 0.21335 0.0
O289 O 0.27697 0.00599 0.25774 0.0
O290 O 0.23531 0.96765 0.27119 0.0
O291 O 0.22335 0.02186 0.21994 0.0
H292 H 0.34764 0.01346 0.22757 0.0
H293 H 0.26155 0.03278 0.16849 0.0
O294 O 0.1828 0.9821 0.23293 0.0
O295 O 0.20651 0.92283 0.18938 0.0
O296 O 0.24673 0.96185 0.17503 0.0
C297 C 0.22205 0.93521 0.16812 0.0
H298 H 0.10414 0.87705 0.25501 0.0
H299 H 0.37604 0.05792 0.19348 0.0
Co300 Co 0.53775 0.30369 0.72539 0.0
C301 C 0.46499 0.33227 0.72754 0.0
Co302 Co 0.49743 0.27492 0.74995 0.0
C303 C 0.60021 0.30814 0.68686 0.0
C304 C 0.57547 0.36355 0.70281 0.0
N305 N 0.57244 0.32695 0.70499 0.0
N306 N 0.62047 0.3312 0.67333 0.0
C307 C 0.60487 0.36616 0.68291 0.0
H308 H 0.60415 0.27748 0.68221 0.0
H309 H 0.55681 0.38647 0.7141 0.0
C310 C 0.57024 0.24694 0.74904 0.0
N311 N 0.4636 0.24978 0.76948 0.0
C312 C 0.43724 0.26431 0.79092 0.0
C313 C 0.46147 0.21151 0.76575 0.0
N314 N 0.41913 0.23656 0.80091 0.0
C315 C 0.43424 0.20331 0.78515 0.0
C316 C 0.50198 0.24068 0.68815 0.0
O317 O 0.57687 0.27109 0.7333 0.0
O318 O 0.53687 0.24422 0.75904 0.0
O319 O 0.48738 0.239 0.71354 0.0
O320 O 0.52541 0.26745 0.68739 0.0
O321 O 0.45822 0.30591 0.7412 0.0
H322 H 0.47927 0.19094 0.7504 0.0
H323 H 0.4326 0.29466 0.79995 0.0
O324 O 0.49849 0.3363 0.71799 0.0
O325 O 0.54926 0.33975 0.76317 0.0
O326 O 0.50698 0.31134 0.78646 0.0
C327 C 0.53091 0.33801 0.78726 0.0
H328 H 0.61337 0.39134 0.67538 0.0
H329 H 0.42664 0.17519 0.78795 0.0
Co330 Co 0.96837 0.74246 0.71275 0.0
C331 C 0.8929 0.76442 0.71019 0.0
Co332 Co 0.92809 0.71139 0.73533 0.0
C333 C 0.02578 0.75906 0.67189 0.0
C334 C -0.00231 0.80931 0.69757 0.0
N335 N -0.00017 0.77108 0.69418 0.0
N336 N 0.03938 0.7882 0.66093 0.0
C337 C 0.02188 0.8199 0.677 0.0
H338 H 0.03286 0.72928 0.66261 0.0
H339 H 0.97841 0.82804 0.713 0.0
C340 C 0.00396 0.69046 0.73865 0.0
N341 N 0.89554 0.684 0.75399 0.0
C342 C 0.86961 0.69877 0.77563 0.0
C343 C 0.89535 0.64606 0.75212 0.0
N344 N 0.85379 0.67182 0.78794 0.0
C345 C 0.86988 0.63852 0.77329 0.0
C346 C 0.94181 0.67606 0.67458 0.0
O347 O 0.0105 0.71675 0.7248 0.0
O348 O 0.96979 0.68308 0.7447 0.0
O349 O 0.92136 0.67464 0.69759 0.0
O350 O 0.96471 0.70377 0.67609 0.0
O351 O 0.88651 0.7404 0.72618 0.0
H352 H 0.91415 0.62564 0.73766 0.0
H353 H 0.86477 0.72918 0.78405 0.0
O354 O 0.92646 0.76807 0.70091 0.0
O355 O 0.97249 0.7804 0.74944 0.0
O356 O 0.93569 0.74801 0.77347 0.0
C357 C 0.95661 0.77698 0.77397 0.0
H358 H 0.02555 0.84839 0.67349 0.0
H359 H 0.86524 0.6112 0.77879 0.0
Co360 Co 0.73198 0.48037 0.25293 0.0
C361 C 0.73091 0.55828 0.25564 0.0
Co362 Co 0.78208 0.50133 0.23209 0.0
C363 C 0.69246 0.44032 0.29034 0.0
C364 C 0.6526 0.46949 0.2682 0.0
N365 N 0.6902 0.46363 0.27108 0.0
N366 N 0.65799 0.43118 0.29976 0.0
C367 C 0.63262 0.44933 0.28577 0.0
H368 H 0.71914 0.42926 0.29658 0.0
H369 H 0.64055 0.48684 0.254 0.0
C370 C 0.78283 0.42345 0.22962 0.0
N371 N 0.8247 0.51685 0.21434 0.0
C372 C 0.82588 0.54233 0.19687 0.0
C373 C 0.86082 0.50411 0.21455 0.0
N374 N 0.86113 0.54596 0.18604 0.0
C375 C 0.88331 0.52182 0.19686 0.0
C376 C 0.7915 0.50541 0.2934 0.0
O377 O 0.75116 0.43006 0.24329 0.0
O378 O 0.80093 0.45074 0.22266 0.0
O379 O 0.80721 0.51197 0.26978 0.0
O380 O 0.7583 0.49086 0.29138 0.0
O381 O 0.76256 0.5518 0.24164 0.0
H382 H 0.87005 0.48288 0.22637 0.0
H383 H 0.80101 0.55705 0.19133 0.0
O384 O 0.71294 0.53086 0.26267 0.0
O385 O 0.70638 0.47016 0.21415 0.0
O386 O 0.7569 0.49121 0.1943 0.0
C387 C 0.72335 0.47766 0.19119 0.0
H388 H 0.60198 0.44814 0.28805 0.0
H389 H 0.91342 0.51731 0.19225 0.0
Co390 Co 0.79907 0.7405 0.02536 0.0
C391 C 0.79838 0.72798 0.96277 0.0
Co392 Co 0.75725 0.77671 0.00917 0.0
C393 C 0.82758 0.69676 0.06489 0.0
C394 C 0.8699 0.70215 0.03187 0.0
N395 N 0.83357 0.71128 0.04035 0.0
N396 N 0.85872 0.67957 0.07258 0.0
C397 C 0.88546 0.68234 0.05168 0.0
H398 H 0.80077 0.69905 0.07711 0.0
H399 H 0.88436 0.71024 0.01308 0.0
C400 C 0.75717 0.78816 0.07194 0.0
N401 N 0.72265 0.80636 -0.0058 0.0
C402 C 0.72907 0.8261 0.97267 0.0
C403 C 0.68553 0.81203 0.00153 0.0
N404 N 0.69744 0.8438 0.96612 0.0
C405 C 0.66991 0.83496 0.98423 0.0
C406 C 0.72866 0.70652 0.0129 0.0
O407 O 0.78336 0.76339 0.06588 0.0
O408 O 0.74129 0.799 0.05005 0.0
O409 O 0.72024 0.73762 0.00592 0.0
O410 O 0.76191 0.7021 0.02253 0.0
O411 O 0.77317 0.75393 0.96845 0.0
H412 H 0.67073 0.80002 0.01821 0.0
H413 H 0.75633 0.8267 0.96149 0.0
O414 O 0.81425 0.71771 0.98489 0.0
O415 O 0.83613 0.77859 0.02801 0.0
O416 O 0.79488 0.81528 0.01234 0.0
C417 C 0.82836 0.80978 0.02109 0.0
H418 H 0.91437 0.67193 0.05136 0.0
H419 H 0.64068 0.84457 0.98509 0.0
Co420 Co 0.42211 0.02502 0.49913 0.0
C421 C 0.43489 0.06061 0.56023 0.0
Co422 Co 0.46172 0.99417 0.52279 0.0
C423 C 0.37001 0.04032 0.45402 0.0
C424 C 0.39442 0.09164 0.48184 0.0
N425 N 0.39258 0.05344 0.47869 0.0
N426 N 0.35838 0.06862 0.44125 0.0
C427 C 0.37357 0.10102 0.45875 0.0
H428 H 0.3646 0.01022 0.44418 0.0
H429 H 0.41179 0.11109 0.49865 0.0
C430 C 0.45097 0.9592 0.46168 0.0
N431 N 0.49053 0.96484 0.54282 0.0
C432 C 0.51478 0.97616 0.56662 0.0
C433 C 0.48658 0.92669 0.53936 0.0
N434 N 0.52551 0.94668 0.57837 0.0
C435 C 0.50792 0.91549 0.5613 0.0
C436 C 0.38441 0.97321 0.5234 0.0
O437 O 0.42792 0.98635 0.46223 0.0
O438 O 0.4688 0.95746 0.48583 0.0
O439 O 0.41818 0.9679 0.53141 0.0
O440 O 0.37815 -0.00118 0.50886 0.0
O441 O 0.45502 0.03135 0.55969 0.0
H442 H 0.46798 0.90844 0.52277 0.0
H443 H 0.52287 0.0057 0.57615 0.0
O444 O 0.41733 0.06371 0.53619 0.0
O445 O 0.46607 0.05024 0.48916 0.0
O446 O 0.50546 0.02086 0.51371 0.0
C447 C 0.49979 0.0449 0.49753 0.0
H448 H 0.37118 0.12917 0.45434 0.0
H449 H 0.50999 0.88684 0.56475 0.0
Co450 Co 0.47704 0.54337 -0.00417 0.0
C451 C 0.50087 0.5627 0.05631 0.0
Co452 Co 0.5198 0.50416 0.00702 0.0
C453 C 0.41548 0.57227 0.9655 0.0
C454 C 0.4485 0.61714 -0.00589 0.0
N455 N 0.4442 0.57872 0.98609 0.0
N456 N 0.40229 0.60503 0.95988 0.0
C457 C 0.42296 0.63337 0.97778 0.0
H458 H 0.40646 0.54398 0.95301 0.0
H459 H 0.47048 0.63219 0.00931 0.0
C460 C 0.49757 0.48537 0.94626 0.0
N461 N 0.55244 0.46874 0.01647 0.0
C462 C 0.57978 0.47522 0.03817 0.0
C463 C 0.54914 0.43028 0.00746 0.0
N464 N 0.59297 0.44245 0.04365 0.0
C465 C 0.57386 0.414 0.0244 0.0
C466 C 0.44433 0.48472 0.01532 0.0
O467 O 0.47489 0.5133 0.95465 0.0
O468 O 0.51983 0.47668 0.96573 0.0
O469 O 0.479 0.47532 0.0156 0.0
O470 O 0.43538 0.51475 0.00676 0.0
O471 O 0.51991 0.53212 0.04836 0.0
H472 H 0.52821 0.41517 0.99121 0.0
H473 H 0.58758 0.50348 0.05156 0.0
O474 O 0.47999 0.57324 0.0368 0.0
O475 O 0.51881 0.57143 0.98541 0.0
O476 O 0.56075 0.53362 -0.00102 0.0
C477 C 0.55328 0.56317 0.98939 0.0
H478 H 0.42096 0.66339 0.9779 0.0
H479 H 0.57623 0.38387 0.02377 0.0
H480 H 0.02043 0.11033 0.03298 0.0
H481 H 0.04578 0.01383 0.07071 0.0
H482 H 0.03235 0.05243 0.12256 0.0
H483 H 0.01048 0.1129 0.15664 0.0
H484 H 0.9896 0.21034 0.11912 0.0
H485 H 0.00352 0.17184 0.06728 0.0
C486 C 0.02337 0.0979 0.05262 0.0
C487 C 0.03377 0.05937 0.0482 0.0
C488 C 0.0157 0.12016 0.08213 0.0
C489 C 0.03797 0.04357 0.07371 0.0
C490 C 0.02995 0.06547 0.10324 0.0
C491 C 0.00862 0.12538 0.13695 0.0
C492 C -0.00181 0.16383 0.14115 0.0
C493 C 0.01809 0.10355 0.1076 0.0
C494 C -0.00296 0.18048 0.11598 0.0
C495 C 0.00518 0.15862 0.08653 0.0
H496 H 0.75626 0.18116 0.35709 0.0
H497 H 0.82188 0.10914 0.40183 0.0
H498 H 0.8631 0.09102 0.35675 0.0
H499 H 0.88594 0.10328 0.30799 0.0
H500 H 0.8232 0.17947 0.26577 0.0
H501 H 0.77511 0.18818 0.30634 0.0
C502 C 0.77906 0.16086 0.35679 0.0
C503 C 0.78623 0.14684 0.38291 0.0
C504 C 0.80341 0.15167 0.33132 0.0
C505 C 0.81592 0.12056 0.38209 0.0
C506 C 0.8396 0.1103 0.35637 0.0
C507 C 0.86114 0.12089 0.30734 0.0
C508 C 0.85796 0.14086 0.28415 0.0
C509 C 0.83444 0.12677 0.33133 0.0
C510 C 0.82613 0.1641 0.28363 0.0
C511 C 0.79878 0.16911 0.3068 0.0
H512 H 0.8456 0.04653 0.63372 0.0
H513 H 0.75439 0.11982 0.67708 0.0
H514 H 0.75205 0.14969 0.63368 0.0
H515 H 0.77496 0.15382 0.58304 0.0
H516 H 0.86516 0.07951 0.53897 0.0
H517 H 0.86955 0.05174 0.58341 0.0
C518 C 0.82563 0.0694 0.63383 0.0
C519 C 0.80013 0.08087 0.65846 0.0
C520 C 0.82427 0.08621 0.60873 0.0
C521 C 0.77396 0.11018 0.65815 0.0
C522 C 0.7727 0.12733 0.63343 0.0
C523 C 0.79534 0.13133 0.58301 0.0
C524 C 0.81951 0.1186 0.55763 0.0
C525 C 0.79741 0.11524 0.60844 0.0
C526 C 0.84643 0.09005 0.55831 0.0
C527 C 0.84882 0.07401 0.58364 0.0
H528 H 0.89983 0.1024 0.89071 0.0
H529 H 0.86243 0.01839 0.93832 0.0
H530 H 0.80674 0.00342 0.90458 0.0
H531 H 0.77416 0.00808 0.85691 0.0
H532 H 0.81535 0.08924 0.80754 0.0
H533 H 0.86371 0.11189 0.84669 0.0
C534 C 0.87882 0.0817 0.8942 0.0
C535 C 0.88511 0.06129 0.91659 0.0
C536 C 0.84789 0.07233 0.87407 0.0
C537 C 0.8581 0.03409 0.92083 0.0
C538 C 0.82644 0.02548 0.90155 0.0
C539 C 0.79335 0.03114 0.85512 0.0
C540 C 0.79175 0.04654 0.82927 0.0
C541 C 0.82187 0.04336 0.8773 0.0
C542 C 0.81662 0.07647 0.82706 0.0
C543 C 0.8442 0.08954 0.84944 0.0
H544 H 0.13314 0.87191 0.04511 0.0
H545 H 0.19193 0.96569 0.02091 0.0
H546 H 0.22924 0.97677 0.06841 0.0
H547 H 0.23848 0.9651 0.11956 0.0
H548 H 0.17632 0.87363 0.14488 0.0
H549 H 0.14737 0.85583 0.09391 0.0
C550 C 0.15492 0.89398 0.04981 0.0
C551 C 0.15974 0.91812 0.02975 0.0
C552 C 0.17523 0.90088 0.07752 0.0
C553 C 0.18764 0.94704 0.03629 0.0
C554 C 0.20881 0.95341 0.06341 0.0
C555 C 0.21911 0.94085 0.11375 0.0
C556 C 0.20916 0.92104 0.13606 0.0
C557 C 0.20181 0.93139 0.0847 0.0
C558 C 0.1841 0.88962 0.12819 0.0
C559 C 0.16752 0.87942 0.09907 0.0
H560 H 0.96656 0.35922 0.41801 0.0
H561 H 0.08737 0.37533 0.40935 0.0
H562 H 0.08647 0.33168 0.35787 0.0
H563 H 0.04998 0.29316 0.31434 0.0
H564 H 0.92974 0.27418 0.32427 0.0
H565 H 0.93149 0.31471 0.3768 0.0
C566 C 0.99267 0.35265 0.40484 0.0
C567 C 0.02693 0.37029 0.41677 0.0
C568 C 0.99185 0.32742 0.37576 0.0
C569 C 0.06084 0.36173 0.4002 0.0
C570 C 0.06022 0.33707 0.37089 0.0
C571 C 0.02427 0.29779 0.32817 0.0
C572 C 0.98964 0.2815 0.31563 0.0
C573 C 0.02572 0.32044 0.35826 0.0
C574 C 0.95659 0.28675 0.33367 0.0
C575 C 0.95759 0.30992 0.36352 0.0
H576 H 0.72437 0.2343 0.57173 0.0
H577 H 0.66739 0.30274 0.51856 0.0
H578 H 0.63808 0.34116 0.56496 0.0
H579 H 0.62322 0.35105 0.61971 0.0
H580 H 0.6766 0.28057 0.67251 0.0
H581 H 0.71336 0.2477 0.62748 0.0
C582 C 0.70584 0.25785 0.57039 0.0
C583 C 0.69768 0.26529 0.54173 0.0
C584 C 0.68852 0.27956 0.59713 0.0
C585 C 0.67373 0.29603 0.54032 0.0
C586 C 0.65703 0.31816 0.56684 0.0
C587 C 0.64376 0.32929 0.62144 0.0
C588 C 0.64743 0.31814 0.64913 0.0
C589 C 0.66354 0.30966 0.59525 0.0
C590 C 0.6735 0.2894 0.6512 0.0
C591 C 0.69425 0.27052 0.62549 0.0
H592 H 0.71011 0.94599 0.87164 0.0
H593 H 0.59296 0.91006 0.85504 0.0
H594 H 0.59699 0.87486 0.89518 0.0
H595 H 0.63476 0.85207 0.9335 0.0
H596 H 0.75231 0.887 0.94872 0.0
H597 H 0.74741 0.92405 0.90998 0.0
C598 C 0.68551 0.93016 0.87646 0.0
C599 C 0.65136 0.93047 0.86003 0.0
C600 C 0.6882 0.90956 0.8992 0.0
C601 C 0.61952 0.91059 0.86738 0.0
C602 C 0.62188 0.89024 0.89023 0.0
C603 C 0.65916 0.86811 0.92856 0.0
C604 C 0.6939 0.86661 0.94392 0.0
C605 C 0.65617 0.88929 0.90613 0.0
C606 C 0.72542 0.88719 0.93694 0.0
C607 C 0.72258 0.90855 0.9149 0.0
H608 H 0.16495 0.32134 0.06861 0.0
H609 H 0.23638 0.23819 0.09622 0.0
H610 H 0.20063 0.24588 0.14377 0.0
H611 H 0.14668 0.27292 0.17591 0.0
H612 H 0.07502 0.35619 0.14952 0.0
H613 H 0.1138 0.35271 0.10343 0.0
C614 C 0.17262 0.30505 0.08513 0.0
C615 C 0.20286 0.27899 0.07887 0.0
C616 C 0.15221 0.3099 0.11268 0.0
C617 C 0.21307 0.2584 0.10055 0.0
C618 C 0.19272 0.26275 0.12775 0.0
C619 C 0.14005 0.29062 0.16018 0.0
C620 C 0.10825 0.31452 0.16571 0.0
C621 C 0.162 0.288 0.13382 0.0
C622 C 0.09974 0.3378 0.14563 0.0
C623 C 0.12159 0.33548 0.1192 0.0
H624 H 0.70423 0.41886 0.34387 0.0
H625 H 0.5959 0.3858 0.29988 0.0
H626 H 0.58793 0.3374 0.32957 0.0
H627 H 0.61452 0.30134 0.36538 0.0
H628 H 0.72437 0.33398 0.40692 0.0
H629 H 0.72953 0.385 0.38016 0.0
C630 C 0.67895 0.40094 0.34056 0.0
C631 C 0.651 0.40553 0.31933 0.0
C632 C 0.67513 0.37272 0.35698 0.0
C633 C 0.61781 0.38291 0.31613 0.0
C634 C 0.61342 0.35503 0.33291 0.0
C635 C 0.63937 0.31986 0.36865 0.0
C636 C 0.66927 0.31349 0.38769 0.0
C637 C 0.64227 0.3492 0.35299 0.0
C638 C 0.7014 0.33764 0.3918 0.0
C639 C 0.70425 0.36705 0.37671 0.0
H640 H 0.58857 0.98837 0.59195 0.0
H641 H 0.51611 0.90883 0.62314 0.0
H642 H 0.5569 0.9134 0.66839 0.0
H643 H 0.61345 0.94122 0.69936 0.0
H644 H 0.68653 0.01843 0.66508 0.0
H645 H 0.64538 0.01368 0.62103 0.0
C646 C 0.58176 0.97223 0.60879 0.0
C647 C 0.54955 0.94859 0.60455 0.0
C648 C 0.60551 0.97455 0.6342 0.0
C649 C 0.54108 0.92712 0.62606 0.0
C650 C 0.56426 0.92984 0.65191 0.0
C651 C 0.62027 0.95681 0.68216 0.0
C652 C 0.65302 0.98001 0.68556 0.0
C653 C 0.59661 0.95358 0.65628 0.0
C654 C 0.66168 3e-05 0.66301 0.0
C655 C 0.63809 -0.00246 0.63776 0.0
H656 H 0.0036 0.87457 0.90507 0.0
H657 H 0.02339 0.95906 0.85318 0.0
H658 H 0.00282 0.91344 0.80591 0.0
H659 H 0.97891 0.84993 0.77988 0.0
H660 H 0.95398 0.76695 0.83236 0.0
H661 H 0.97599 0.812 0.87936 0.0
C662 C 0.00387 0.88258 0.88323 0.0
C663 C 0.01575 0.91942 0.88206 0.0
C664 C 0.99046 0.85689 0.85664 0.0
C665 C 0.01487 0.93043 0.85416 0.0
C666 C 0.00292 0.90454 0.82734 0.0
C667 C 0.97811 0.84182 0.80166 0.0
C668 C 0.96513 0.80525 0.80279 0.0
C669 C 0.99048 0.86781 0.82839 0.0
C670 C 0.96371 0.79511 0.83109 0.0
C671 C 0.97658 0.82067 0.85783 0.0
H672 H 0.15454 0.03408 0.9735 0.0
H673 H 0.08583 0.07704 0.90948 0.0
H674 H 0.13003 0.13039 0.91298 0.0
H675 H 0.18135 0.16991 0.94065 0.0
H676 H 0.24795 0.1297 0.00735 0.0
H677 H 0.2115 0.06985 -0.00377 0.0
C678 C 0.14992 0.05449 0.95961 0.0
C679 C 0.11685 0.05207 0.94156 0.0
C680 C 0.17454 0.08592 0.96274 0.0
C681 C 0.111 0.07867 0.92375 0.0
C682 C 0.13608 0.10925 0.92589 0.0
C683 C 0.18819 0.14787 0.95252 0.0
C684 C 0.21659 0.15442 0.97525 0.0
C685 C 0.1668 0.11408 0.94643 0.0
C686 C 0.22582 0.12538 0.98997 0.0
C687 C 0.20499 0.09123 0.98366 0.0
H688 H 0.67425 0.58472 0.29564 0.0
H689 H 0.74922 0.61783 0.2302 0.0
H690 H 0.71415 0.67764 0.23565 0.0
H691 H 0.65686 0.7159 0.25374 0.0
H692 H 0.5811 0.68058 0.31766 0.0
H693 H 0.62228 0.62664 0.31855 0.0
C694 C 0.68322 0.60523 0.28284 0.0
C695 C 0.71375 0.59665 0.26215 0.0
C696 C 0.66274 0.63914 0.2858 0.0
C697 C 0.72555 0.62374 0.24613 0.0
C698 C 0.70545 0.65787 0.24917 0.0
C699 C 0.64998 0.69697 0.26848 0.0
C700 C 0.61583 0.70186 0.28531 0.0
C701 C 0.67325 0.66529 0.26821 0.0
C702 C 0.6071 0.67711 0.30425 0.0
C703 C 0.63051 0.64617 0.30468 0.0
H704 H 0.30096 0.82372 0.53393 0.0
H705 H 0.23591 0.84767 0.45916 0.0
H706 H 0.26765 0.90969 0.46628 0.0
H707 H 0.31949 0.95356 0.48975 0.0
H708 H 0.38442 0.92885 0.56434 0.0
H709 H 0.34651 0.87139 0.56181 0.0
C710 C 0.29347 0.84271 0.51943 0.0
C711 C 0.26663 0.8309 0.49579 0.0
C712 C 0.31174 0.87834 0.52367 0.0
C713 C 0.2567 0.85603 0.47745 0.0
C714 C 0.27486 0.89151 0.48147 0.0
C715 C 0.32452 0.93622 0.50604 0.0
C716 C 0.35494 0.94523 0.52697 0.0
C717 C 0.30314 0.90257 0.50401 0.0
C718 C 0.36132 0.92235 0.54783 0.0
C719 C 0.33983 0.8893 0.54629 0.0
H720 H 0.08009 0.70248 0.73406 0.0
H721 H -0.00165 0.62845 0.76314 0.0
H722 H 0.04989 0.59018 0.77626 0.0
H723 H 0.11781 0.57576 0.77709 0.0
H724 H 0.19977 0.64907 0.74743 0.0
H725 H 0.14845 0.68986 0.73738 0.0
C726 C 0.07356 0.67805 0.74336 0.0
C727 C 0.03545 0.66823 0.74742 0.0
C728 C 0.10334 0.65609 0.75088 0.0
C729 C 0.02746 0.63662 0.75969 0.0
C730 C 0.0569 0.61469 0.76723 0.0
C731 C 0.12453 0.60093 0.76881 0.0
C732 C 0.16255 0.60925 0.76294 0.0
C733 C 0.09491 0.62394 0.76264 0.0
C734 C 0.17073 0.64196 0.75214 0.0
C735 C 0.14139 0.66524 0.74625 0.0
H736 H 0.85275 0.26224 0.49999 0.0
H737 H 0.7876 0.31546 0.44008 0.0
H738 H 0.83311 0.36866 0.4489 0.0
H739 H 0.89194 0.399 0.47268 0.0
H740 H 0.9573 0.34508 0.53203 0.0
H741 H 0.91045 0.29331 0.52477 0.0
C742 C 0.8485 0.28538 0.48873 0.0
C743 C 0.81698 0.28478 0.46923 0.0
C744 C 0.87449 0.31587 0.49409 0.0
C745 C 0.81174 0.31517 0.45508 0.0
C746 C 0.83765 0.34563 0.4602 0.0
C747 C 0.8957 0.37623 0.48442 0.0
C748 C 0.928 0.37595 0.50298 0.0
C749 C 0.86911 0.34623 0.47966 0.0
C750 C 0.93262 0.34602 0.51773 0.0
C751 C 0.90598 0.31632 0.51344 0.0
H752 H 0.36849 0.92274 0.2127 0.0
H753 H 0.28385 0.84348 0.23058 0.0
H754 H 0.33387 0.80045 0.23901 0.0
H755 H 0.40155 0.78737 0.24477 0.0
H756 H 0.48612 0.86727 0.2278 0.0
H757 H 0.43616 0.90786 0.21551 0.0
C758 C 0.36097 0.89583 0.21804 0.0
C759 C 0.32255 0.88647 0.22117 0.0
C760 C 0.38984 0.87143 0.22331 0.0
C761 C 0.31326 0.85148 0.22815 0.0
C762 C 0.34183 0.82686 0.23306 0.0
C763 C 0.40905 0.81352 0.23819 0.0
C764 C 0.44744 0.82438 0.23744 0.0
C765 C 0.3802 0.83691 0.2313 0.0
C766 C 0.45673 0.8583 0.22872 0.0
C767 C 0.4282 0.88157 0.22167 0.0
H768 H 0.36231 0.47463 0.72667 0.0
H769 H 0.28858 0.41605 0.77769 0.0
H770 H 0.33367 0.36353 0.77081 0.0
H771 H 0.39445 0.33528 0.75188 0.0
H772 H 0.46937 0.39362 0.70163 0.0
H773 H 0.42285 0.44498 0.70614 0.0
C774 C 0.35618 0.45039 0.73632 0.0
C775 C 0.3223 0.44932 0.75279 0.0
C776 C 0.38216 0.42015 0.73218 0.0
C777 C 0.31453 0.41761 0.76496 0.0
C778 C 0.34023 0.38751 0.76099 0.0
C779 C 0.4005 0.35896 0.74155 0.0
C780 C 0.4353 0.36066 0.72645 0.0
C781 C 0.37412 0.38857 0.74475 0.0
C782 C 0.44271 0.39162 0.71331 0.0
C783 C 0.41625 0.42109 0.71605 0.0
H784 H 0.1243 0.78545 0.53785 0.0
H785 H 0.19244 0.70319 0.56957 0.0
H786 H 0.15363 0.71216 0.61588 0.0
H787 H 0.09967 0.74263 0.64693 0.0
H788 H 0.03306 0.82665 0.61655 0.0
H789 H 0.07217 0.81823 0.57023 0.0
C790 C 0.13053 0.76953 0.55493 0.0
C791 C 0.16087 0.74361 0.55036 0.0
C792 C 0.10857 0.77529 0.58172 0.0
C793 C 0.16915 0.72341 0.57273 0.0
C794 C 0.147 0.72844 0.59915 0.0
C795 C 0.09391 0.75902 0.63009 0.0
C796 C 0.06372 0.78504 0.63485 0.0
C797 C 0.11659 0.75419 0.6038 0.0
C798 C 0.05653 0.80669 0.61331 0.0
C799 C 0.07865 0.8017 0.58681 0.0
H800 H 0.11377 0.82641 0.28386 0.0
H801 H 0.19262 0.91272 0.33166 0.0
H802 H 0.18843 0.88779 0.3773 0.0
H803 H 0.1661 0.83892 0.40238 0.0
H804 H 0.08814 0.75146 0.35548 0.0
H805 H 0.08704 0.78 0.31106 0.0
C806 C 0.12957 0.83993 0.30444 0.0
C807 C 0.15415 0.87074 0.30417 0.0
C808 C 0.12704 0.82535 0.33073 0.0
C809 C 0.17444 0.88822 0.33098 0.0
C810 C 0.17182 0.8742 0.35718 0.0
C811 C 0.14876 0.82628 0.38245 0.0
C812 C 0.12768 0.793 0.38188 0.0
C813 C 0.14892 0.84231 0.35706 0.0
C814 C 0.10453 0.77723 0.35635 0.0
C815 C 0.10418 0.79333 0.33092 0.0
H816 H -0.00083 0.62678 0.66675 0.0
H817 H 0.89221 0.64929 0.62759 0.0
H818 H 0.90018 0.59198 0.58531 0.0
H819 H 0.93912 0.53778 0.55885 0.0
H820 H 0.04542 0.51395 0.59872 0.0
H821 H 0.0359 0.56935 0.64218 0.0
C822 C 0.97774 0.61891 0.64883 0.0
C823 C 0.94553 0.64198 0.64951 0.0
C824 C 0.9823 0.58584 0.6252 0.0
C825 C 0.91734 0.63177 0.62693 0.0
C826 C 0.9219 0.59914 0.60299 0.0
C827 C 0.96006 0.54452 0.57721 0.0
C828 C 0.9931 0.52219 0.5756 0.0
C829 C 0.95444 0.57626 0.6018 0.0
C830 C 0.01975 0.53076 0.59963 0.0
C831 C 0.01445 0.56252 0.62427 0.0
H832 H 0.32961 0.66603 0.41381 0.0
H833 H 0.26014 0.74603 0.38058 0.0
H834 H 0.30537 0.74506 0.33897 0.0
H835 H 0.36665 0.72401 0.3137 0.0
H836 H 0.4345 0.64215 0.34572 0.0
H837 H 0.38792 0.64103 0.38605 0.0
C838 C 0.32425 0.68298 0.39729 0.0
C839 C 0.29181 0.70624 0.40034 0.0
C840 C 0.35015 0.68203 0.37331 0.0
C841 C 0.28492 0.72779 0.37863 0.0
C842 C 0.31084 0.72742 0.35494 0.0
C843 C 0.37093 0.70587 0.32949 0.0
C844 C 0.40382 0.68335 0.32699 0.0
C845 C 0.34383 0.70509 0.35234 0.0
C846 C 0.40915 0.65949 0.34719 0.0
C847 C 0.38267 0.65901 0.3703 0.0
H848 H 0.3683 0.11135 0.1721 0.0
H849 H 0.27741 0.04285 0.12135 0.0
H850 H 0.2796 0.08033 0.08299 0.0
H851 H 0.30611 0.13327 0.06424 0.0
H852 H 0.39709 0.20208 0.1141 0.0
H853 H 0.39698 0.16297 0.15184 0.0
C854 C 0.34926 0.10433 0.15251 0.0
C855 C 0.32237 0.07453 0.15001 0.0
C856 C 0.35083 0.12592 0.13022 0.0
C857 C 0.29777 0.0661 0.12443 0.0
C858 C 0.29919 0.08737 0.10226 0.0
C859 C 0.32582 0.13985 0.08343 0.0
C860 C 0.3513 0.17081 0.08651 0.0
C861 C 0.3253 0.11755 0.10509 0.0
C862 C 0.37732 0.17831 0.1111 0.0
C863 C 0.37707 0.15611 0.13279 0.0
H864 H 0.77289 0.74615 0.91103 0.0
H865 H 0.8474 0.66867 0.94283 0.0
H866 H 0.86706 0.64031 0.89008 0.0
H867 H 0.86743 0.64157 0.83569 0.0
H868 H 0.7961 0.72128 0.80423 0.0
H869 H 0.77012 0.74441 0.85611 0.0
C870 C 0.79324 0.72289 0.90641 0.0
C871 C 0.80898 0.70982 0.9308 0.0
C872 C 0.80477 0.70704 0.87612 0.0
C873 C 0.83516 0.67953 0.92445 0.0
C874 C 0.84633 0.6632 0.89431 0.0
C875 C 0.84539 0.66319 0.84011 0.0
C876 C 0.83339 0.67967 0.81641 0.0
C877 C 0.83182 0.67717 0.87006 0.0
C878 C 0.80551 0.7083 0.82235 0.0
C879 C 0.79094 0.72161 0.85193 0.0
H880 H 0.28961 0.58281 0.64799 0.0
H881 H 0.36685 0.66983 0.69699 0.0
H882 H 0.37293 0.69566 0.65145 0.0
H883 H 0.3532 0.69549 0.59852 0.0
H884 H 0.27515 0.60865 0.55038 0.0
H885 H 0.27218 0.58087 0.59487 0.0
C886 C 0.30753 0.60762 0.64882 0.0
C887 C 0.32738 0.62467 0.67597 0.0
C888 C 0.31071 0.62232 0.6227 0.0
C889 C 0.35134 0.65615 0.67635 0.0
C890 C 0.35472 0.67099 0.65036 0.0
C891 C 0.33611 0.67012 0.59763 0.0
C892 C 0.31425 0.65426 0.57127 0.0
C893 C 0.33424 0.6545 0.62347 0.0
C894 C 0.29184 0.62163 0.57056 0.0
C895 C 0.29016 0.60572 0.59596 0.0
H896 H 0.30802 0.05291 0.3047 0.0
H897 H 0.23887 0.96325 0.32596 0.0
H898 H 0.26126 0.98031 0.37887 0.0
H899 H 0.30357 0.0179 0.41842 0.0
H900 H 0.37244 0.1079 0.39803 0.0
H901 H 0.34666 0.09407 0.34578 0.0
C902 C 0.29766 0.03734 0.32099 0.0
C903 C 0.27211 0.00662 0.31126 0.0
C904 C 0.31058 0.04739 0.35159 0.0
C905 C 0.25865 0.98694 0.33274 0.0
C906 C 0.27148 -0.00339 0.36305 0.0
C907 C 0.31265 0.03458 0.40253 0.0
C908 C 0.33994 0.06363 0.41191 0.0
C909 C 0.2979 0.02633 0.37259 0.0
C910 C 0.3512 0.08555 0.39137 0.0
C911 C 0.33671 0.07745 0.36143 0.0
H912 H 0.82369 0.87496 0.00126 0.0
H913 H 0.90181 0.80666 0.03973 0.0
H914 H 0.95455 0.84785 0.0327 0.0
H915 H 0.97919 0.89968 0.0117 0.0
H916 H 0.90147 0.96746 0.97242 0.0
H917 H 0.84776 0.93002 0.98387 0.0
C918 C 0.85216 0.86941 0.00849 0.0
C919 C 0.85892 0.83764 0.02067 0.0
C920 C 0.88245 0.89283 0.00401 0.0
C921 C 0.89592 0.83083 0.03007 0.0
C922 C 0.92613 0.85428 0.026 0.0
C923 C 0.95048 0.90642 0.00584 0.0
C924 C 0.94431 0.93589 0.99095 0.0
C925 C 0.91983 0.88475 0.01231 0.0
C926 C 0.90695 0.94469 0.98379 0.0
C927 C 0.87623 0.92331 0.99028 0.0
H928 H 0.61385 0.15377 0.45034 0.0
H929 H 0.69595 0.08754 0.48685 0.0
H930 H 0.64473 0.04874 0.50058 0.0
H931 H 0.57622 0.03563 0.50459 0.0
H932 H 0.49455 0.10289 0.46861 0.0
H933 H 0.54594 0.1392 0.45255 0.0
C934 C 0.62062 0.1305 0.46089 0.0
C935 C 0.65868 0.12362 0.46753 0.0
C936 C 0.59103 0.10869 0.46922 0.0
C937 C 0.66687 0.09349 0.48144 0.0
C938 C 0.63759 0.07136 0.48945 0.0
C939 C 0.56971 0.05822 0.49324 0.0
C940 C 0.53157 0.06656 0.48798 0.0
C941 C 0.59949 0.07911 0.48393 0.0
C942 C 0.52363 0.09581 0.47303 0.0
C943 C 0.55302 0.11664 0.46376 0.0
H944 H 0.83955 0.39625 0.19025 0.0
H945 H 0.76514 0.36561 0.25715 0.0
H946 H 0.80225 0.30765 0.25487 0.0
H947 H 0.86176 0.27146 0.23968 0.0
H948 H 0.93698 0.30526 0.17473 0.0
H949 H 0.89331 0.35578 0.16997 0.0
C950 C 0.83111 0.37657 0.20397 0.0
C951 C 0.80028 0.38541 0.22423 0.0
C952 C 0.85285 0.34395 0.20299 0.0
C953 C 0.78908 0.35943 0.2415 0.0
C954 C 0.81036 0.32641 0.24032 0.0
C955 C 0.8679 0.2893 0.22392 0.0
C956 C 0.90257 0.28526 0.20793 0.0
C957 C 0.84316 0.31915 0.222 0.0
C958 C 0.91055 0.30841 0.18759 0.0
C959 C 0.8857 0.33731 0.18489 0.0
H960 H 0.07383 0.52855 0.44472 0.0
H961 H 0.13771 0.50051 0.51844 0.0
H962 H 0.18677 0.54734 0.51379 0.0
H963 H 0.20734 0.60134 0.49261 0.0
H964 H 0.14212 0.62921 0.41937 0.0
H965 H 0.0982 0.57675 0.41956 0.0
C966 C 0.09867 0.53244 0.45959 0.0
C967 C 0.1019 0.51168 0.48221 0.0
C968 C 0.12655 0.55932 0.45683 0.0
C969 C 0.13453 0.51642 0.50095 0.0
C970 C 0.16252 0.54321 0.49834 0.0
C971 C 0.18408 0.59528 0.47618 0.0
C972 C 0.17773 0.61936 0.45625 0.0
C973 C 0.15833 0.56552 0.47686 0.0
C974 C 0.14742 0.61127 0.43513 0.0
C975 C 0.12216 0.58141 0.43531 0.0
H976 H 0.70218 0.12855 0.74331 0.0
H977 H 0.62782 0.09199 0.80763 0.0
H978 H 0.58604 0.1461 0.80867 0.0
H979 H 0.5672 0.19942 0.78725 0.0
H980 H 0.64032 0.23533 0.72192 0.0
H981 H 0.68628 0.1859 0.72559 0.0
C982 C 0.67717 0.13276 0.75794 0.0
C983 C 0.66785 0.10606 0.77506 0.0
C984 C 0.65289 0.16354 0.75804 0.0
C985 C 0.63545 0.11198 0.79401 0.0
C986 C 0.61148 0.14284 0.79457 0.0
C987 C 0.59337 0.1967 0.77404 0.0
C988 C 0.60014 0.22057 0.75403 0.0
C989 C 0.61935 0.16808 0.776 0.0
C990 C 0.63439 0.2171 0.73737 0.0
C991 C 0.66061 0.18881 0.73939 0.0
H992 H 0.83582 0.61606 0.18858 0.0
H993 H 0.90938 0.52789 0.1377 0.0
H994 H 0.91887 0.5642 0.09848 0.0
H995 H 0.89965 0.61769 0.07604 0.0
H996 H 0.82512 0.70482 0.12759 0.0
H997 H 0.82237 0.67232 0.16924 0.0
C998 C 0.85418 0.60508 0.169 0.0
C999 C 0.87143 0.56935 0.1656 0.0
C1000 C 0.85892 0.62572 0.1466 0.0
C1001 C 0.89586 0.55549 0.14062 0.0
C1002 C 0.90103 0.57607 0.11817 0.0
C1003 C 0.88348 0.6298 0.09667 0.0
C1004 C 0.86194 0.66303 0.09853 0.0
C1005 C 0.8818 0.61074 0.12051 0.0
C1006 C 0.84108 0.67865 0.12536 0.0
C1007 C 0.83963 0.66023 0.14922 0.0
H1008 H 0.90768 0.55388 0.40142 0.0
H1009 H 0.85989 0.45497 0.42598 0.0
H1010 H 0.81314 0.44763 0.38432 0.0
H1011 H 0.7894 0.46689 0.33841 0.0
H1012 H 0.84111 0.56352 0.31274 0.0
H1013 H 0.88233 0.5749 0.35784 0.0
C1014 C 0.88654 0.5312 0.39804 0.0
C1015 C 0.88711 0.50502 0.41659 0.0
C1016 C 0.86056 0.5268 0.37385 0.0
C1017 C 0.86011 0.47522 0.41165 0.0
C1018 C 0.83338 0.47112 0.38796 0.0
C1019 C 0.8093 0.49075 0.34312 0.0
C1020 C 0.8125 0.51431 0.32249 0.0
C1021 C 0.83382 0.49635 0.36854 0.0
C1022 C 0.83852 0.54492 0.32837 0.0
C1023 C 0.86206 0.55142 0.35406 0.0
H1024 H 0.18214 0.43254 0.6906 0.0
H1025 H 0.23185 0.5232 0.65541 0.0
H1026 H 0.20513 0.49478 0.6046 0.0
H1027 H 0.16258 0.44775 0.57186 0.0
H1028 H 0.11183 0.35811 0.60737 0.0
H1029 H 0.14506 0.38184 0.65629 0.0
C1030 C 0.18731 0.44595 0.67176 0.0
C1031 C 0.20829 0.48025 0.6768 0.0
C1032 C 0.1719 0.42952 0.64273 0.0
C1033 C 0.21548 0.49693 0.6521 0.0
C1034 C 0.20022 0.48073 0.62309 0.0
C1035 C 0.15923 0.43323 0.59025 0.0
C1036 C 0.13448 0.40164 0.5863 0.0
C1037 C 0.17766 0.44757 0.61839 0.0
C1038 C 0.13086 0.38241 0.60991 0.0
C1039 C 0.1495 0.39623 0.63795 0.0
H1040 H 0.69282 0.80141 0.20447 0.0
H1041 H 0.62313 0.88686 0.17906 0.0
H1042 H 0.65949 0.88042 0.1315 0.0
H1043 H 0.70599 0.84457 0.09453 0.0
H1044 H 0.77593 0.75928 0.12067 0.0
H1045 H 0.74493 0.77177 0.17062 0.0
C1046 C 0.68617 0.81898 0.18866 0.0
C1047 C 0.65535 0.84423 0.1949 0.0
C1048 C 0.70697 0.81488 0.16142 0.0
C1049 C 0.64697 0.86735 0.17466 0.0
C1050 C 0.66751 0.86343 0.1474 0.0
C1051 C 0.71483 0.82918 0.11135 0.0
C1052 C 0.74273 0.80062 0.10368 0.0
C1053 C 0.69681 0.83641 0.14011 0.0
C1054 C 0.75429 0.78123 0.12585 0.0
C1055 C 0.7365 0.78823 0.15444 0.0
H1056 H 0.66522 0.42892 0.16799 0.0
H1057 H 0.73907 0.51566 0.14751 0.0
H1058 H 0.70656 0.51048 0.09868 0.0
H1059 H 0.65511 0.48377 0.06298 0.0
H1060 H 0.58222 0.39584 0.0819 0.0
H1061 H 0.61675 0.39828 0.12985 0.0
C1062 C 0.67414 0.44653 0.15273 0.0
C1063 C 0.70416 0.47281 0.16135 0.0
C1064 C 0.65572 0.443 0.12439 0.0
C1065 C 0.71596 0.49518 0.1413 0.0
C1066 C 0.69741 0.4923 0.11341 0.0
C1067 C 0.64723 0.46493 0.07754 0.0
C1068 C 0.61636 0.43982 0.06922 0.0
C1069 C 0.66705 0.46663 0.10489 0.0
C1070 C 0.60628 0.41514 0.08787 0.0
C1071 C 0.62573 0.41681 0.11536 0.0
H1072 H 0.36907 0.47608 -0.00063 0.0
H1073 H 0.45624 0.43705 0.05235 0.0
H1074 H 0.41416 0.38702 0.06107 0.0
H1075 H 0.35645 0.34888 0.04769 0.0
H1076 H 0.26936 0.38585 -0.00652 0.0
H1077 H 0.30712 0.44228 0.99174 0.0
C1078 C 0.37841 0.45709 0.01334 0.0
C1079 C 0.41582 0.45968 0.02464 0.0
C1080 C 0.35425 0.42771 0.01785 0.0
C1081 C 0.4277 0.43508 0.04285 0.0
C1082 C 0.4037 0.40644 0.04791 0.0
C1083 C 0.3454 0.36963 0.03598 0.0
C1084 C 0.31057 0.36283 0.02032 0.0
C1085 C 0.36749 0.40159 0.03455 0.0
C1086 C 0.29637 0.39024 0.00555 0.0
C1087 C 0.318 0.42248 0.00439 0.0
H1088 H 0.04238 0.11544 0.24738 0.0
H1089 H 0.12217 0.20025 0.2316 0.0
H1090 H 0.17414 0.15439 0.2273 0.0
H1091 H 0.19613 0.08906 0.22523 0.0
H1092 H 0.11526 0.0045 0.24 0.0
H1093 H 0.06445 0.05148 0.2472 0.0
C1094 C 0.0712 0.12413 0.2434 0.0
C1095 C 0.07839 0.16114 0.23978 0.0
C1096 C 0.10068 0.09752 0.24034 0.0
C1097 C 0.11589 0.17187 0.23452 0.0
C1098 C 0.14559 0.14563 0.23188 0.0
C1099 C 0.16739 0.08096 0.23001 0.0
C1100 C 0.15948 0.04333 0.23189 0.0
C1101 C 0.13817 0.10815 0.2342 0.0
C1102 C 0.12214 0.03327 0.23833 0.0
C1103 C 0.09303 0.06012 0.24252 0.0
H1104 H 0.21888 0.32792 0.89378 0.0
H1105 H 0.1065 0.35704 0.93068 0.0
H1106 H 0.09633 0.39645 0.89402 0.0
H1107 H 0.12101 0.42544 0.85314 0.0
H1108 H 0.23409 0.39681 0.81767 0.0
H1109 H 0.24259 0.35485 0.85236 0.0
C1110 C 0.19228 0.34312 0.89403 0.0
C1111 C 0.16368 0.33981 0.91517 0.0
C1112 C 0.18683 0.36599 0.87319 0.0
C1113 C 0.12894 0.35892 0.91455 0.0
C1114 C 0.12317 0.38162 0.8937 0.0
C1115 C 0.14725 0.40962 0.85284 0.0
C1116 C 0.17701 0.41453 0.83316 0.0
C1117 C 0.15208 0.38568 0.87309 0.0
C1118 C 0.21104 0.39407 0.83305 0.0
C1119 C 0.21587 0.36995 0.85277 0.0
H1120 H 0.29881 0.28068 0.90649 0.0
H1121 H 0.35811 0.19162 0.93673 0.0
H1122 H 0.39839 0.18004 0.89109 0.0
H1123 H 0.41825 0.19678 0.84384 0.0
H1124 H 0.36243 0.2882 0.81466 0.0
H1125 H 0.31913 0.29767 0.85884 0.0
C1126 C 0.32037 0.25856 0.90287 0.0
C1127 C 0.32555 0.23693 0.92474 0.0
C1128 C 0.34402 0.2527 0.87699 0.0
C1129 C 0.35381 0.20868 0.92016 0.0
C1130 C 0.37678 0.20202 0.89412 0.0
C1131 C 0.39624 0.21839 0.847 0.0
C1132 C 0.39306 0.24154 0.82611 0.0
C1133 C 0.37231 0.22405 0.87257 0.0
C1134 C 0.3652 0.27017 0.83067 0.0
C1135 C 0.34053 0.27548 0.85579 0.0
H1136 H 0.33615 0.56835 0.94584 0.0
H1137 H 0.41307 0.64742 0.91858 0.0
H1138 H 0.37539 0.64444 0.87202 0.0
H1139 H 0.32444 0.6135 0.83653 0.0
H1140 H 0.24677 0.53547 0.86524 0.0
H1141 H 0.28038 0.54432 0.91384 0.0
C1142 C 0.34413 0.5853 0.92983 0.0
C1143 C 0.37723 0.60776 0.93526 0.0
C1144 C 0.32234 0.58347 0.90333 0.0
C1145 C 0.38745 0.63005 0.91475 0.0
C1146 C 0.36609 0.62814 0.8881 0.0
C1147 C 0.31448 0.59901 0.85366 0.0
C1148 C 0.28351 0.57344 0.84699 0.0
C1149 C 0.33401 0.60414 0.88175 0.0
C1150 C 0.27071 0.55514 0.86958 0.0
C1151 C 0.29 0.56 0.89742 0.0
H1152 H 0.65866 0.70345 0.98687 0.0
H1153 H 0.73608 0.63921 0.02982 0.0
H1154 H 0.68971 0.58728 0.02336 0.0
H1155 H 0.62639 0.56161 0.00785 0.0
H1156 H 0.54809 0.62637 0.96621 0.0
H1157 H 0.59612 0.67641 0.96929 0.0
C1158 C 0.66539 0.67809 -0.00518 0.0
C1159 C 0.70057 0.67529 0.009 0.0
C1160 C 0.63867 0.64836 0.99105 0.0
C1161 C 0.70906 0.64213 0.01894 0.0
C1162 C 0.68265 0.61238 0.0152 0.0
C1163 C 0.61999 0.58637 -0.00101 0.0
C1164 C 0.58378 0.59035 0.98688 0.0
C1165 C 0.6473 0.61535 0.0015 0.0
C1166 C 0.57583 0.62269 0.97566 0.0
C1167 C 0.60316 0.65139 0.97757 0.0
H1168 H 0.82705 0.78113 0.74227 0.0
H1169 H 0.8948 0.81222 0.67161 0.0
H1170 H 0.85584 0.8689 0.67489 0.0
H1171 H 0.80778 0.91355 0.70223 0.0
H1172 H 0.74103 0.88332 0.7738 0.0
H1173 H 0.7744 0.82248 0.76577 0.0
C1174 C 0.83266 0.79976 0.72703 0.0
C1175 C 0.86395 0.79269 0.70696 0.0
C1176 C 0.81084 0.83291 0.72963 0.0
C1177 C 0.87098 0.81719 0.68742 0.0
C1178 C 0.8489 0.84976 0.68942 0.0
C1179 C 0.80037 0.89352 0.71591 0.0
C1180 C 0.77244 0.90317 0.73886 0.0
C1181 C 0.81969 0.85862 0.71124 0.0
C1182 C 0.76268 0.8767 0.75611 0.0
C1183 C 0.78171 0.84187 0.75153 0.0
H1184 H 0.46645 0.1741 0.68664 0.0
H1185 H 0.51186 0.24198 0.62755 0.0
H1186 H 0.48999 0.1936 0.58222 0.0
H1187 H 0.46004 0.13076 0.55978 0.0
H1188 H 0.4202 0.06151 0.61956 0.0
H1189 H 0.43683 0.11248 0.66472 0.0
C1190 C 0.4715 0.17853 0.66387 0.0
C1191 C 0.49068 0.21157 0.66038 0.0
C1192 C 0.45928 0.15068 0.63824 0.0
C1193 C 0.49733 0.21664 0.63074 0.0
C1194 C 0.48463 0.18915 0.60491 0.0
C1195 C 0.45418 0.12749 0.58278 0.0
C1196 C 0.43813 0.09322 0.58674 0.0
C1197 C 0.46563 0.15605 0.60844 0.0
C1198 C 0.43185 0.08817 0.61634 0.0
C1199 C 0.44169 0.11705 0.64199 0.0
H1200 H 0.47259 0.37952 0.81442 0.0
H1201 H 0.5937 0.36496 0.82168 0.0
H1202 H 0.59419 0.41134 0.87196 0.0
H1203 H 0.5588 0.45187 0.91509 0.0
H1204 H 0.43818 0.46894 0.90621 0.0
H1205 H 0.43863 0.42572 0.85478 0.0
C1206 C 0.49909 0.38698 0.827 0.0
C1207 C 0.53301 0.36897 0.81504 0.0
C1208 C 0.49906 0.41373 0.85535 0.0
C1209 C 0.5674 0.37877 0.83084 0.0
C1210 C 0.56757 0.40501 0.85948 0.0
C1211 C 0.53272 0.44625 0.90172 0.0
C1212 C 0.49837 0.46282 0.91433 0.0
C1213 C 0.5334 0.42199 0.87218 0.0
C1214 C 0.46484 0.45621 0.89682 0.0
C1215 C 0.46509 0.4315 0.86757 0.0
H1216 H 0.45943 0.83406 0.33732 0.0
H1217 H 0.57924 0.8441 0.35898 0.0
H1218 H 0.56551 0.89177 0.40699 0.0
H1219 H 0.51915 0.93037 0.4422 0.0
H1220 H 0.40017 0.92541 0.41757 0.0
H1221 H 0.41364 0.87574 0.37075 0.0
C1222 C 0.4824 0.84659 0.35278 0.0
C1223 C 0.52012 0.83549 0.34536 0.0
C1224 C 0.47437 0.87476 0.3794 0.0
C1225 C 0.55 0.85231 0.36473 0.0
C1226 C 0.54214 0.87943 0.39199 0.0
C1227 C 0.49627 0.91825 0.42651 0.0
C1228 C 0.45876 0.9308 0.43311 0.0
C1229 C 0.50443 0.89082 0.39947 0.0
C1230 C 0.42923 0.91584 0.41264 0.0
C1231 C 0.43691 0.88751 0.38609 0.0
H1232 H 0.51412 0.63835 0.07041 0.0
H1233 H 0.50119 0.54146 0.11022 0.0
H1234 H 0.51245 0.5826 0.16164 0.0
H1235 H 0.52473 0.64612 0.19489 0.0
H1236 H 0.54261 0.74244 0.15507 0.0
H1237 H 0.53157 0.70131 0.10356 0.0
C1238 C 0.51347 0.62653 0.09049 0.0
C1239 C 0.50604 0.58744 0.08705 0.0
C1240 C 0.52138 0.65001 0.11962 0.0
C1241 C 0.50638 0.57174 0.11275 0.0
C1242 C 0.51296 0.59514 0.14196 0.0
C1243 C 0.52649 0.65799 0.17486 0.0
C1244 C 0.53409 0.69711 0.17852 0.0
C1245 C 0.52041 0.63426 0.14561 0.0
C1246 C 0.53691 0.71226 0.15258 0.0
C1247 C 0.53029 0.68888 0.12327 0.0
loop_
_geom_bond_atom_site_label_1
_geom_bond_atom_site_label_2
_geom_bond_distance
_geom_bond_site_symmetry_2
_ccdc_geom_bond_type
Co0 N5 2.057 . S
Co0 O17 2.021 1_545 S
Co0 O20 2.062 1_545 S
Co0 O24 2.117 1_556 S
Co0 O25 2.020 1_655 S
C1 O21 1.259 1_655 S
C1 O24 1.258 . S
Co2 N11 2.057 . S
Co2 O18 2.117 1_554 S
Co2 O19 2.020 1_455 S
Co2 O21 2.021 1_565 S
Co2 O26 2.062 1_565 S
C3 N5 1.316 . S
C3 N6 1.347 . S
C3 H8 0.931 . S
C4 N5 1.375 . S
C4 C7 1.350 . S
C4 H9 0.930 . S
N5 Co0 2.057 . S
N5 C3 1.316 . S
N5 C4 1.375 . S
N6 C3 1.347 . S
N6 C7 1.373 . S
C7 C4 1.350 . S
C7 N6 1.373 . S
C7 H28 0.931 . S
H8 C3 0.931 . S
H9 C4 0.930 . S
C10 O17 1.259 1_455 S
C10 O18 1.258 . S
N11 Co2 2.057 . S
N11 C12 1.316 . S
N11 C13 1.375 . S
C12 N11 1.316 . S
C12 N14 1.347 . S
C12 H23 0.931 . S
C13 N11 1.375 . S
C13 C15 1.350 . S
C13 H22 0.930 . S
N14 C12 1.347 . S
N14 C15 1.373 . S
C15 C13 1.350 . S
C15 N14 1.373 . S
C15 H29 0.931 . S
C16 O19 1.256 . S
C16 O20 1.255 1_554 S
O17 Co0 2.021 1_565 S
O17 C10 1.259 1_655 S
O18 Co2 2.117 1_556 S
O18 C10 1.258 . S
O19 Co2 2.020 1_655 S
O19 C16 1.256 . S
O20 Co0 2.062 1_565 S
O20 C16 1.255 1_556 S
O21 C1 1.259 1_455 S
O21 Co2 2.021 1_545 S
H22 C13 0.930 . S
H23 C12 0.931 . S
O24 Co0 2.117 1_554 S
O24 C1 1.258 . S
O25 Co0 2.020 1_455 S
O25 C27 1.256 . S
O26 Co2 2.062 1_545 S
O26 C27 1.255 1_554 S
C27 O25 1.256 . S
C27 O26 1.255 1_556 S
H28 C7 0.931 . S
H29 C15 0.931 . S
Co30 N35 2.057 . S
Co30 O47 2.021 . S
Co30 O50 2.062 . S
Co30 O54 2.117 1_455 S
Co30 O55 2.020 . S
C31 O51 1.259 . S
C31 O54 1.258 . S
Co32 N41 2.057 . S
Co32 O48 2.117 1_655 S
Co32 O49 2.020 . S
Co32 O51 2.021 . S
Co32 O56 2.062 . S
C33 N35 1.316 . S
C33 N36 1.347 . S
C33 H38 0.931 . S
C34 N35 1.375 . S
C34 C37 1.350 . S
C34 H39 0.930 . S
N35 Co30 2.057 . S
N35 C33 1.316 . S
N35 C34 1.375 . S
N36 C33 1.347 . S
N36 C37 1.373 . S
C37 C34 1.350 . S
C37 N36 1.373 . S
C37 H58 0.931 . S
H38 C33 0.931 . S
H39 C34 0.930 . S
C40 O47 1.259 . S
C40 O48 1.258 . S
N41 Co32 2.057 . S
N41 C42 1.316 . S
N41 C43 1.375 . S
C42 N41 1.316 . S
C42 N44 1.347 . S
C42 H53 0.931 . S
C43 N41 1.375 . S
C43 C45 1.350 . S
C43 H52 0.930 . S
N44 C42 1.347 . S
N44 C45 1.373 . S
C45 C43 1.350 . S
C45 N44 1.373 . S
C45 H59 0.931 . S
C46 O49 1.256 . S
C46 O50 1.255 1_655 S
O47 Co30 2.021 . S
O47 C40 1.259 . S
O48 Co32 2.117 1_455 S
O48 C40 1.258 . S
O49 Co32 2.020 . S
O49 C46 1.256 . S
O50 Co30 2.062 . S
O50 C46 1.255 1_455 S
O51 C31 1.259 . S
O51 Co32 2.021 . S
H52 C43 0.930 . S
H53 C42 0.931 . S
O54 Co30 2.117 1_655 S
O54 C31 1.258 . S
O55 Co30 2.020 . S
O55 C57 1.256 . S
O56 Co32 2.062 . S
O56 C57 1.255 1_655 S
C57 O55 1.256 . S
C57 O56 1.255 1_455 S
H58 C37 0.931 . S
H59 C45 0.931 . S
Co60 N65 2.057 . S
Co60 O77 2.021 . S
Co60 O80 2.062 . S
Co60 O84 2.117 . S
Co60 O85 2.020 . S
C61 O81 1.259 . S
C61 O84 1.258 . S
Co62 N71 2.057 . S
Co62 O78 2.117 . S
Co62 O79 2.020 . S
Co62 O81 2.021 . S
Co62 O86 2.062 . S
C63 N65 1.316 . S
C63 N66 1.347 . S
C63 H68 0.931 . S
C64 N65 1.375 . S
C64 C67 1.350 . S
C64 H69 0.930 . S
N65 Co60 2.057 . S
N65 C63 1.316 . S
N65 C64 1.375 . S
N66 C63 1.347 . S
N66 C67 1.373 . S
C67 C64 1.350 . S
C67 N66 1.373 . S
C67 H88 0.931 . S
H68 C63 0.931 . S
H69 C64 0.930 . S
C70 O77 1.259 . S
C70 O78 1.258 . S
N71 Co62 2.057 . S
N71 C72 1.316 . S
N71 C73 1.375 . S
C72 N71 1.316 . S
C72 N74 1.347 . S
C72 H83 0.931 . S
C73 N71 1.375 . S
C73 C75 1.350 . S
C73 H82 0.930 . S
N74 C72 1.347 . S
N74 C75 1.373 . S
C75 C73 1.350 . S
C75 N74 1.373 . S
C75 H89 0.931 . S
C76 O79 1.256 . S
C76 O80 1.255 . S
O77 Co60 2.021 . S
O77 C70 1.259 . S
O78 Co62 2.117 . S
O78 C70 1.258 . S
O79 Co62 2.020 . S
O79 C76 1.256 . S
O80 Co60 2.062 . S
O80 C76 1.255 . S
O81 C61 1.259 . S
O81 Co62 2.021 . S
H82 C73 0.930 . S
H83 C72 0.931 . S
O84 Co60 2.117 . S
O84 C61 1.258 . S
O85 Co60 2.020 . S
O85 C87 1.256 . S
O86 Co62 2.062 . S
O86 C87 1.255 . S
C87 O85 1.256 . S
C87 O86 1.255 . S
H88 C67 0.931 . S
H89 C75 0.931 . S
Co90 N95 2.057 . S
Co90 O107 2.021 . S
Co90 O110 2.062 . S
Co90 O114 2.117 1_565 S
Co90 O115 2.020 . S
C91 O111 1.259 . S
C91 O114 1.258 . S
Co92 N101 2.057 . S
Co92 O108 2.117 1_545 S
Co92 O109 2.020 . S
Co92 O111 2.021 . S
Co92 O116 2.062 . S
C93 N95 1.316 . S
C93 N96 1.347 . S
C93 H98 0.931 . S
C94 N95 1.375 . S
C94 C97 1.350 . S
C94 H99 0.930 . S
N95 Co90 2.057 . S
N95 C93 1.316 . S
N95 C94 1.375 . S
N96 C93 1.347 . S
N96 C97 1.373 . S
C97 C94 1.350 . S
C97 N96 1.373 . S
C97 H118 0.931 . S
H98 C93 0.931 . S
H99 C94 0.930 . S
C100 O107 1.259 . S
C100 O108 1.258 . S
N101 Co92 2.057 . S
N101 C102 1.316 . S
N101 C103 1.375 . S
C102 N101 1.316 . S
C102 N104 1.347 . S
C102 H113 0.931 . S
C103 N101 1.375 . S
C103 C105 1.350 . S
C103 H112 0.930 . S
N104 C102 1.347 . S
N104 C105 1.373 . S
C105 C103 1.350 . S
C105 N104 1.373 . S
C105 H119 0.931 . S
C106 O109 1.256 . S
C106 O110 1.255 1_545 S
O107 Co90 2.021 . S
O107 C100 1.259 . S
O108 Co92 2.117 1_565 S
O108 C100 1.258 . S
O109 Co92 2.020 . S
O109 C106 1.256 . S
O110 Co90 2.062 . S
O110 C106 1.255 1_565 S
O111 C91 1.259 . S
O111 Co92 2.021 . S
H112 C103 0.930 . S
H113 C102 0.931 . S
O114 Co90 2.117 1_545 S
O114 C91 1.258 . S
O115 Co90 2.020 . S
O115 C117 1.256 . S
O116 Co92 2.062 . S
O116 C117 1.255 1_545 S
C117 O115 1.256 . S
C117 O116 1.255 1_565 S
H118 C97 0.931 . S
H119 C105 0.931 . S
Co120 N125 2.057 . S
Co120 O137 2.021 . S
Co120 O140 2.062 . S
Co120 O144 2.117 . S
Co120 O145 2.020 . S
C121 O141 1.259 . S
C121 O144 1.258 . S
Co122 N131 2.057 . S
Co122 O138 2.117 . S
Co122 O139 2.020 . S
Co122 O141 2.021 . S
Co122 O146 2.062 . S
C123 N125 1.316 . S
C123 N126 1.347 . S
C123 H128 0.931 . S
C124 N125 1.375 . S
C124 C127 1.350 . S
C124 H129 0.930 . S
N125 Co120 2.057 . S
N125 C123 1.316 . S
N125 C124 1.375 . S
N126 C123 1.347 . S
N126 C127 1.373 . S
C127 C124 1.350 . S
C127 N126 1.373 . S
C127 H148 0.931 . S
H128 C123 0.931 . S
H129 C124 0.930 . S
C130 O137 1.259 . S
C130 O138 1.258 . S
N131 Co122 2.057 . S
N131 C132 1.316 . S
N131 C133 1.375 . S
C132 N131 1.316 . S
C132 N134 1.347 . S
C132 H143 0.931 . S
C133 N131 1.375 . S
C133 C135 1.350 . S
C133 H142 0.930 . S
N134 C132 1.347 . S
N134 C135 1.373 . S
C135 C133 1.350 . S
C135 N134 1.373 . S
C135 H149 0.931 . S
C136 O139 1.256 . S
C136 O140 1.255 . S
O137 Co120 2.021 . S
O137 C130 1.259 . S
O138 Co122 2.117 . S
O138 C130 1.258 . S
O139 Co122 2.020 . S
O139 C136 1.256 . S
O140 Co120 2.062 . S
O140 C136 1.255 . S
O141 C121 1.259 . S
O141 Co122 2.021 . S
H142 C133 0.930 . S
H143 C132 0.931 . S
O144 Co120 2.117 . S
O144 C121 1.258 . S
O145 Co120 2.020 . S
O145 C147 1.256 . S
O146 Co122 2.062 . S
O146 C147 1.255 . S
C147 O145 1.256 . S
C147 O146 1.255 . S
H148 C127 0.931 . S
H149 C135 0.931 . S
Co150 N155 2.057 . S
Co150 O167 2.021 . S
Co150 O170 2.062 . S
Co150 O174 2.117 . S
Co150 O175 2.020 . S
C151 O171 1.259 . S
C151 O174 1.258 . S
Co152 N161 2.057 . S
Co152 O168 2.117 . S
Co152 O169 2.020 . S
Co152 O171 2.021 . S
Co152 O176 2.062 . S
C153 N155 1.316 . S
C153 N156 1.347 . S
C153 H158 0.931 . S
C154 N155 1.375 . S
C154 C157 1.350 . S
C154 H159 0.930 . S
N155 Co150 2.057 . S
N155 C153 1.316 . S
N155 C154 1.375 . S
N156 C153 1.347 . S
N156 C157 1.373 . S
C157 C154 1.350 . S
C157 N156 1.373 . S
C157 H178 0.931 . S
H158 C153 0.931 . S
H159 C154 0.930 . S
C160 O167 1.259 . S
C160 O168 1.258 . S
N161 Co152 2.057 . S
N161 C162 1.316 . S
N161 C163 1.375 . S
C162 N161 1.316 . S
C162 N164 1.347 . S
C162 H173 0.931 . S
C163 N161 1.375 . S
C163 C165 1.350 . S
C163 H172 0.930 . S
N164 C162 1.347 . S
N164 C165 1.373 . S
C165 C163 1.350 . S
C165 N164 1.373 . S
C165 H179 0.931 . S
C166 O169 1.256 . S
C166 O170 1.255 . S
O167 Co150 2.021 . S
O167 C160 1.259 . S
O168 Co152 2.117 . S
O168 C160 1.258 . S
O169 Co152 2.020 . S
O169 C166 1.256 . S
O170 Co150 2.062 . S
O170 C166 1.255 . S
O171 C151 1.259 . S
O171 Co152 2.021 . S
H172 C163 0.930 . S
H173 C162 0.931 . S
O174 Co150 2.117 . S
O174 C151 1.258 . S
O175 Co150 2.020 . S
O175 C177 1.256 . S
O176 Co152 2.062 . S
O176 C177 1.255 . S
C177 O175 1.256 . S
C177 O176 1.255 . S
H178 C157 0.931 . S
H179 C165 0.931 . S
Co180 N185 2.057 . S
Co180 O197 2.021 . S
Co180 O200 2.062 . S
Co180 O204 2.117 . S
Co180 O205 2.020 . S
C181 O201 1.259 . S
C181 O204 1.258 . S
Co182 N191 2.057 . S
Co182 O198 2.117 . S
Co182 O199 2.020 . S
Co182 O201 2.021 . S
Co182 O206 2.062 . S
C183 N185 1.316 . S
C183 N186 1.347 . S
C183 H188 0.931 . S
C184 N185 1.375 . S
C184 C187 1.350 . S
C184 H189 0.930 . S
N185 Co180 2.057 . S
N185 C183 1.316 . S
N185 C184 1.375 . S
N186 C183 1.347 . S
N186 C187 1.373 . S
C187 C184 1.350 . S
C187 N186 1.373 . S
C187 H208 0.931 . S
H188 C183 0.931 . S
H189 C184 0.930 . S
C190 O197 1.259 . S
C190 O198 1.258 . S
N191 Co182 2.057 . S
N191 C192 1.316 . S
N191 C193 1.375 . S
C192 N191 1.316 . S
C192 N194 1.347 . S
C192 H203 0.931 . S
C193 N191 1.375 . S
C193 C195 1.350 . S
C193 H202 0.930 . S
N194 C192 1.347 . S
N194 C195 1.373 . S
C195 C193 1.350 . S
C195 N194 1.373 . S
C195 H209 0.931 . S
C196 O199 1.256 . S
C196 O200 1.255 . S
O197 Co180 2.021 . S
O197 C190 1.259 . S
O198 Co182 2.117 . S
O198 C190 1.258 . S
O199 Co182 2.020 . S
O199 C196 1.256 . S
O200 Co180 2.062 . S
O200 C196 1.255 . S
O201 C181 1.259 . S
O201 Co182 2.021 . S
H202 C193 0.930 . S
H203 C192 0.931 . S
O204 Co180 2.117 . S
O204 C181 1.258 . S
O205 Co180 2.020 . S
O205 C207 1.256 . S
O206 Co182 2.062 . S
O206 C207 1.255 . S
C207 O205 1.256 . S
C207 O206 1.255 . S
H208 C187 0.931 . S
H209 C195 0.931 . S
Co210 N215 2.057 . S
Co210 O227 2.021 . S
Co210 O230 2.062 . S
Co210 O234 2.117 . S
Co210 O235 2.020 1_655 S
C211 O231 1.259 1_655 S
C211 O234 1.258 . S
Co212 N221 2.057 . S
Co212 O228 2.117 . S
Co212 O229 2.020 1_455 S
Co212 O231 2.021 . S
Co212 O236 2.062 . S
C213 N215 1.316 . S
C213 N216 1.347 . S
C213 H218 0.931 . S
C214 N215 1.375 . S
C214 C217 1.350 . S
C214 H219 0.930 . S
N215 Co210 2.057 . S
N215 C213 1.316 . S
N215 C214 1.375 . S
N216 C213 1.347 . S
N216 C217 1.373 . S
C217 C214 1.350 . S
C217 N216 1.373 . S
C217 H238 0.931 . S
H218 C213 0.931 . S
H219 C214 0.930 . S
C220 O227 1.259 1_455 S
C220 O228 1.258 . S
N221 Co212 2.057 . S
N221 C222 1.316 . S
N221 C223 1.375 . S
C222 N221 1.316 . S
C222 N224 1.347 . S
C222 H233 0.931 . S
C223 N221 1.375 . S
C223 C225 1.350 . S
C223 H232 0.930 . S
N224 C222 1.347 . S
N224 C225 1.373 . S
C225 C223 1.350 . S
C225 N224 1.373 . S
C225 H239 0.931 . S
C226 O229 1.256 . S
C226 O230 1.255 . S
O227 Co210 2.021 . S
O227 C220 1.259 1_655 S
O228 Co212 2.117 . S
O228 C220 1.258 . S
O229 Co212 2.020 1_655 S
O229 C226 1.256 . S
O230 Co210 2.062 . S
O230 C226 1.255 . S
O231 C211 1.259 1_455 S
O231 Co212 2.021 . S
H232 C223 0.930 . S
H233 C222 0.931 . S
O234 Co210 2.117 . S
O234 C211 1.258 . S
O235 Co210 2.020 1_455 S
O235 C237 1.256 . S
O236 Co212 2.062 . S
O236 C237 1.255 . S
C237 O235 1.256 . S
C237 O236 1.255 . S
H238 C217 0.931 . S
H239 C225 0.931 . S
Co240 N245 2.057 . S
Co240 O257 2.021 . S
Co240 O260 2.062 . S
Co240 O264 2.117 1_554 S
Co240 O265 2.020 . S
C241 O261 1.259 . S
C241 O264 1.258 . S
Co242 N251 2.057 . S
Co242 O258 2.117 1_556 S
Co242 O259 2.020 . S
Co242 O261 2.021 . S
Co242 O266 2.062 . S
C243 N245 1.316 . S
C243 N246 1.347 . S
C243 H248 0.931 . S
C244 N245 1.375 . S
C244 C247 1.350 . S
C244 H249 0.930 . S
N245 Co240 2.057 . S
N245 C243 1.316 . S
N245 C244 1.375 . S
N246 C243 1.347 . S
N246 C247 1.373 . S
C247 C244 1.350 . S
C247 N246 1.373 . S
C247 H268 0.931 . S
H248 C243 0.931 . S
H249 C244 0.930 . S
C250 O257 1.259 . S
C250 O258 1.258 . S
N251 Co242 2.057 . S
N251 C252 1.316 . S
N251 C253 1.375 . S
C252 N251 1.316 . S
C252 N254 1.347 . S
C252 H263 0.931 . S
C253 N251 1.375 . S
C253 C255 1.350 . S
C253 H262 0.930 . S
N254 C252 1.347 . S
N254 C255 1.373 . S
C255 C253 1.350 . S
C255 N254 1.373 . S
C255 H269 0.931 . S
C256 O259 1.256 . S
C256 O260 1.255 1_556 S
O257 Co240 2.021 . S
O257 C250 1.259 . S
O258 Co242 2.117 1_554 S
O258 C250 1.258 . S
O259 Co242 2.020 . S
O259 C256 1.256 . S
O260 Co240 2.062 . S
O260 C256 1.255 1_554 S
O261 C241 1.259 . S
O261 Co242 2.021 . S
H262 C253 0.930 . S
H263 C252 0.931 . S
O264 Co240 2.117 1_556 S
O264 C241 1.258 . S
O265 Co240 2.020 . S
O265 C267 1.256 . S
O266 Co242 2.062 . S
O266 C267 1.255 1_556 S
C267 O265 1.256 . S
C267 O266 1.255 1_554 S
H268 C247 0.931 . S
H269 C255 0.931 . S
Co270 N275 2.057 . S
Co270 O287 2.021 . S
Co270 O290 2.062 . S
Co270 O294 2.117 1_565 S
Co270 O295 2.020 . S
C271 O291 1.259 . S
C271 O294 1.258 . S
Co272 N281 2.057 . S
Co272 O288 2.117 1_545 S
Co272 O289 2.020 . S
Co272 O291 2.021 . S
Co272 O296 2.062 . S
C273 N275 1.316 . S
C273 N276 1.347 . S
C273 H278 0.931 . S
C274 N275 1.375 . S
C274 C277 1.350 . S
C274 H279 0.930 . S
N275 Co270 2.057 . S
N275 C273 1.316 . S
N275 C274 1.375 . S
N276 C273 1.347 . S
N276 C277 1.373 . S
C277 C274 1.350 . S
C277 N276 1.373 . S
C277 H298 0.931 . S
H278 C273 0.931 . S
H279 C274 0.930 . S
C280 O287 1.259 . S
C280 O288 1.258 . S
N281 Co272 2.057 . S
N281 C282 1.316 . S
N281 C283 1.375 . S
C282 N281 1.316 . S
C282 N284 1.347 . S
C282 H293 0.931 . S
C283 N281 1.375 . S
C283 C285 1.350 . S
C283 H292 0.930 . S
N284 C282 1.347 . S
N284 C285 1.373 . S
C285 C283 1.350 . S
C285 N284 1.373 . S
C285 H299 0.931 . S
C286 O289 1.256 . S
C286 O290 1.255 1_545 S
O287 Co270 2.021 . S
O287 C280 1.259 . S
O288 Co272 2.117 1_565 S
O288 C280 1.258 . S
O289 Co272 2.020 . S
O289 C286 1.256 . S
O290 Co270 2.062 . S
O290 C286 1.255 1_565 S
O291 C271 1.259 . S
O291 Co272 2.021 . S
H292 C283 0.930 . S
H293 C282 0.931 . S
O294 Co270 2.117 1_545 S
O294 C271 1.258 . S
O295 Co270 2.020 . S
O295 C297 1.256 . S
O296 Co272 2.062 . S
O296 C297 1.255 1_545 S
C297 O295 1.256 . S
C297 O296 1.255 1_565 S
H298 C277 0.931 . S
H299 C285 0.931 . S
Co300 N305 2.057 . S
Co300 O317 2.021 . S
Co300 O320 2.062 . S
Co300 O324 2.117 . S
Co300 O325 2.020 . S
C301 O321 1.259 . S
C301 O324 1.258 . S
Co302 N311 2.057 . S
Co302 O318 2.117 . S
Co302 O319 2.020 . S
Co302 O321 2.021 . S
Co302 O326 2.062 . S
C303 N305 1.316 . S
C303 N306 1.347 . S
C303 H308 0.931 . S
C304 N305 1.375 . S
C304 C307 1.350 . S
C304 H309 0.930 . S
N305 Co300 2.057 . S
N305 C303 1.316 . S
N305 C304 1.375 . S
N306 C303 1.347 . S
N306 C307 1.373 . S
C307 C304 1.350 . S
C307 N306 1.373 . S
C307 H328 0.931 . S
H308 C303 0.931 . S
H309 C304 0.930 . S
C310 O317 1.259 . S
C310 O318 1.258 . S
N311 Co302 2.057 . S
N311 C312 1.316 . S
N311 C313 1.375 . S
C312 N311 1.316 . S
C312 N314 1.347 . S
C312 H323 0.931 . S
C313 N311 1.375 . S
C313 C315 1.350 . S
C313 H322 0.930 . S
N314 C312 1.347 . S
N314 C315 1.373 . S
C315 C313 1.350 . S
C315 N314 1.373 . S
C315 H329 0.931 . S
C316 O319 1.256 . S
C316 O320 1.255 . S
O317 Co300 2.021 . S
O317 C310 1.259 . S
O318 Co302 2.117 . S
O318 C310 1.258 . S
O319 Co302 2.020 . S
O319 C316 1.256 . S
O320 Co300 2.062 . S
O320 C316 1.255 . S
O321 C301 1.259 . S
O321 Co302 2.021 . S
H322 C313 0.930 . S
H323 C312 0.931 . S
O324 Co300 2.117 . S
O324 C301 1.258 . S
O325 Co300 2.020 . S
O325 C327 1.256 . S
O326 Co302 2.062 . S
O326 C327 1.255 . S
C327 O325 1.256 . S
C327 O326 1.255 . S
H328 C307 0.931 . S
H329 C315 0.931 . S
Co330 N335 2.057 . S
Co330 O347 2.021 . S
Co330 O350 2.062 . S
Co330 O354 2.117 1_455 S
Co330 O355 2.020 . S
C331 O351 1.259 . S
C331 O354 1.258 . S
Co332 N341 2.057 . S
Co332 O348 2.117 1_655 S
Co332 O349 2.020 . S
Co332 O351 2.021 . S
Co332 O356 2.062 . S
C333 N335 1.316 . S
C333 N336 1.347 . S
C333 H338 0.931 . S
C334 N335 1.375 . S
C334 C337 1.350 . S
C334 H339 0.930 . S
N335 Co330 2.057 . S
N335 C333 1.316 . S
N335 C334 1.375 . S
N336 C333 1.347 . S
N336 C337 1.373 . S
C337 C334 1.350 . S
C337 N336 1.373 . S
C337 H358 0.931 . S
H338 C333 0.931 . S
H339 C334 0.930 . S
C340 O347 1.259 . S
C340 O348 1.258 . S
N341 Co332 2.057 . S
N341 C342 1.316 . S
N341 C343 1.375 . S
C342 N341 1.316 . S
C342 N344 1.347 . S
C342 H353 0.931 . S
C343 N341 1.375 . S
C343 C345 1.350 . S
C343 H352 0.930 . S
N344 C342 1.347 . S
N344 C345 1.373 . S
C345 C343 1.350 . S
C345 N344 1.373 . S
C345 H359 0.931 . S
C346 O349 1.256 . S
C346 O350 1.255 1_655 S
O347 Co330 2.021 . S
O347 C340 1.259 . S
O348 Co332 2.117 1_455 S
O348 C340 1.258 . S
O349 Co332 2.020 . S
O349 C346 1.256 . S
O350 Co330 2.062 . S
O350 C346 1.255 1_455 S
O351 C331 1.259 . S
O351 Co332 2.021 . S
H352 C343 0.930 . S
H353 C342 0.931 . S
O354 Co330 2.117 1_655 S
O354 C331 1.258 . S
O355 Co330 2.020 . S
O355 C357 1.256 . S
O356 Co332 2.062 . S
O356 C357 1.255 1_655 S
C357 O355 1.256 . S
C357 O356 1.255 1_455 S
H358 C337 0.931 . S
H359 C345 0.931 . S
Co360 N365 2.057 . S
Co360 O377 2.021 . S
Co360 O380 2.062 . S
Co360 O384 2.117 . S
Co360 O385 2.020 . S
C361 O381 1.259 . S
C361 O384 1.258 . S
Co362 N371 2.057 . S
Co362 O378 2.117 . S
Co362 O379 2.020 . S
Co362 O381 2.021 . S
Co362 O386 2.062 . S
C363 N365 1.316 . S
C363 N366 1.347 . S
C363 H368 0.931 . S
C364 N365 1.375 . S
C364 C367 1.350 . S
C364 H369 0.930 . S
N365 Co360 2.057 . S
N365 C363 1.316 . S
N365 C364 1.375 . S
N366 C363 1.347 . S
N366 C367 1.373 . S
C367 C364 1.350 . S
C367 N366 1.373 . S
C367 H388 0.931 . S
H368 C363 0.931 . S
H369 C364 0.930 . S
C370 O377 1.259 . S
C370 O378 1.258 . S
N371 Co362 2.057 . S
N371 C372 1.316 . S
N371 C373 1.375 . S
C372 N371 1.316 . S
C372 N374 1.347 . S
C372 H383 0.931 . S
C373 N371 1.375 . S
C373 C375 1.350 . S
C373 H382 0.930 . S
N374 C372 1.347 . S
N374 C375 1.373 . S
C375 C373 1.350 . S
C375 N374 1.373 . S
C375 H389 0.931 . S
C376 O379 1.256 . S
C376 O380 1.255 . S
O377 Co360 2.021 . S
O377 C370 1.259 . S
O378 Co362 2.117 . S
O378 C370 1.258 . S
O379 Co362 2.020 . S
O379 C376 1.256 . S
O380 Co360 2.062 . S
O380 C376 1.255 . S
O381 C361 1.259 . S
O381 Co362 2.021 . S
H382 C373 0.930 . S
H383 C372 0.931 . S
O384 Co360 2.117 . S
O384 C361 1.258 . S
O385 Co360 2.020 . S
O385 C387 1.256 . S
O386 Co362 2.062 . S
O386 C387 1.255 . S
C387 O385 1.256 . S
C387 O386 1.255 . S
H388 C367 0.931 . S
H389 C375 0.931 . S
Co390 N395 2.057 . S
Co390 O407 2.021 . S
Co390 O410 2.062 . S
Co390 O414 2.117 1_554 S
Co390 O415 2.020 . S
C391 O411 1.259 . S
C391 O414 1.258 . S
Co392 N401 2.057 . S
Co392 O408 2.117 1_556 S
Co392 O409 2.020 . S
Co392 O411 2.021 . S
Co392 O416 2.062 . S
C393 N395 1.316 . S
C393 N396 1.347 . S
C393 H398 0.931 . S
C394 N395 1.375 . S
C394 C397 1.350 . S
C394 H399 0.930 . S
N395 Co390 2.057 . S
N395 C393 1.316 . S
N395 C394 1.375 . S
N396 C393 1.347 . S
N396 C397 1.373 . S
C397 C394 1.350 . S
C397 N396 1.373 . S
C397 H418 0.931 . S
H398 C393 0.931 . S
H399 C394 0.930 . S
C400 O407 1.259 . S
C400 O408 1.258 . S
N401 Co392 2.057 . S
N401 C402 1.316 . S
N401 C403 1.375 . S
C402 N401 1.316 . S
C402 N404 1.347 . S
C402 H413 0.931 . S
C403 N401 1.375 . S
C403 C405 1.350 . S
C403 H412 0.930 . S
N404 C402 1.347 . S
N404 C405 1.373 . S
C405 C403 1.350 . S
C405 N404 1.373 . S
C405 H419 0.931 . S
C406 O409 1.256 . S
C406 O410 1.255 1_556 S
O407 Co390 2.021 . S
O407 C400 1.259 . S
O408 Co392 2.117 1_554 S
O408 C400 1.258 . S
O409 Co392 2.020 . S
O409 C406 1.256 . S
O410 Co390 2.062 . S
O410 C406 1.255 1_554 S
O411 C391 1.259 . S
O411 Co392 2.021 . S
H412 C403 0.930 . S
H413 C402 0.931 . S
O414 Co390 2.117 1_556 S
O414 C391 1.258 . S
O415 Co390 2.020 . S
O415 C417 1.256 . S
O416 Co392 2.062 . S
O416 C417 1.255 1_556 S
C417 O415 1.256 . S
C417 O416 1.255 1_554 S
H418 C397 0.931 . S
H419 C405 0.931 . S
Co420 N425 2.057 . S
Co420 O437 2.021 1_545 S
Co420 O440 2.062 1_545 S
Co420 O444 2.117 . S
Co420 O445 2.020 . S
C421 O441 1.259 . S
C421 O444 1.258 . S
Co422 N431 2.057 . S
Co422 O438 2.117 . S
Co422 O439 2.020 . S
Co422 O441 2.021 1_565 S
Co422 O446 2.062 1_565 S
C423 N425 1.316 . S
C423 N426 1.347 . S
C423 H428 0.931 . S
C424 N425 1.375 . S
C424 C427 1.350 . S
C424 H429 0.930 . S
N425 Co420 2.057 . S
N425 C423 1.316 . S
N425 C424 1.375 . S
N426 C423 1.347 . S
N426 C427 1.373 . S
C427 C424 1.350 . S
C427 N426 1.373 . S
C427 H448 0.931 . S
H428 C423 0.931 . S
H429 C424 0.930 . S
C430 O437 1.259 . S
C430 O438 1.258 . S
N431 Co422 2.057 . S
N431 C432 1.316 . S
N431 C433 1.375 . S
C432 N431 1.316 . S
C432 N434 1.347 . S
C432 H443 0.931 . S
C433 N431 1.375 . S
C433 C435 1.350 . S
C433 H442 0.930 . S
N434 C432 1.347 . S
N434 C435 1.373 . S
C435 C433 1.350 . S
C435 N434 1.373 . S
C435 H449 0.931 . S
C436 O439 1.256 . S
C436 O440 1.255 . S
O437 Co420 2.021 1_565 S
O437 C430 1.259 . S
O438 Co422 2.117 . S
O438 C430 1.258 . S
O439 Co422 2.020 . S
O439 C436 1.256 . S
O440 Co420 2.062 1_565 S
O440 C436 1.255 . S
O441 C421 1.259 . S
O441 Co422 2.021 1_545 S
H442 C433 0.930 . S
H443 C432 0.931 . S
O444 Co420 2.117 . S
O444 C421 1.258 . S
O445 Co420 2.020 . S
O445 C447 1.256 . S
O446 Co422 2.062 1_545 S
O446 C447 1.255 . S
C447 O445 1.256 . S
C447 O446 1.255 . S
H448 C427 0.931 . S
H449 C435 0.931 . S
Co450 N455 2.057 . S
Co450 O467 2.021 . S
Co450 O470 2.062 . S
Co450 O474 2.117 1_556 S
Co450 O475 2.020 . S
C451 O471 1.259 . S
C451 O474 1.258 . S
Co452 N461 2.057 . S
Co452 O468 2.117 1_554 S
Co452 O469 2.020 . S
Co452 O471 2.021 . S
Co452 O476 2.062 . S
C453 N455 1.316 . S
C453 N456 1.347 . S
C453 H458 0.931 . S
C454 N455 1.375 . S
C454 C457 1.350 . S
C454 H459 0.930 . S
N455 Co450 2.057 . S
N455 C453 1.316 . S
N455 C454 1.375 . S
N456 C453 1.347 . S
N456 C457 1.373 . S
C457 C454 1.350 . S
C457 N456 1.373 . S
C457 H478 0.931 . S
H458 C453 0.931 . S
H459 C454 0.930 . S
C460 O467 1.259 . S
C460 O468 1.258 . S
N461 Co452 2.057 . S
N461 C462 1.316 . S
N461 C463 1.375 . S
C462 N461 1.316 . S
C462 N464 1.347 . S
C462 H473 0.931 . S
C463 N461 1.375 . S
C463 C465 1.350 . S
C463 H472 0.930 . S
N464 C462 1.347 . S
N464 C465 1.373 . S
C465 C463 1.350 . S
C465 N464 1.373 . S
C465 H479 0.931 . S
C466 O469 1.256 . S
C466 O470 1.255 1_554 S
O467 Co450 2.021 . S
O467 C460 1.259 . S
O468 Co452 2.117 1_556 S
O468 C460 1.258 . S
O469 Co452 2.020 . S
O469 C466 1.256 . S
O470 Co450 2.062 . S
O470 C466 1.255 1_556 S
O471 C451 1.259 . S
O471 Co452 2.021 . S
H472 C463 0.930 . S
H473 C462 0.931 . S
O474 Co450 2.117 1_554 S
O474 C451 1.258 . S
O475 Co450 2.020 . S
O475 C477 1.256 . S
O476 Co452 2.062 . S
O476 C477 1.255 1_554 S
C477 O475 1.256 . S
C477 O476 1.255 1_556 S
H478 C457 0.931 . S
H479 C465 0.931 . S
H480 C486 0.930 1_455 S
H481 C489 0.930 . S
H482 C490 0.930 . S
H483 C491 0.930 . S
H484 C494 0.930 . S
H485 C495 0.930 . S
C486 H480 0.930 1_655 S
C486 C487 1.355 . S
C486 C488 1.415 . S
C487 C486 1.355 . S
C487 C489 1.419 . S
C488 C486 1.415 . S
C488 C493 1.425 . S
C488 C495 1.409 1_655 S
C489 H481 0.930 . S
C489 C487 1.419 . S
C489 C490 1.362 . S
C490 H482 0.930 . S
C490 C489 1.362 . S
C490 C493 1.409 . S
C491 H483 0.930 . S
C491 C492 1.355 . S
C491 C493 1.415 . S
C492 C491 1.355 . S
C492 C494 1.419 1_655 S
C493 C488 1.425 . S
C493 C490 1.409 . S
C493 C491 1.415 . S
C494 H484 0.930 . S
C494 C492 1.419 1_455 S
C494 C495 1.362 . S
C495 H485 0.930 . S
C495 C488 1.409 1_455 S
C495 C494 1.362 . S
H496 C502 0.930 . S
H497 C505 0.930 . S
H498 C506 0.930 . S
H499 C507 0.930 . S
H500 C510 0.930 . S
H501 C511 0.930 . S
C502 H496 0.930 . S
C502 C503 1.355 . S
C502 C504 1.415 . S
C503 C502 1.355 . S
C503 C505 1.419 . S
C504 C502 1.415 . S
C504 C509 1.425 . S
C504 C511 1.409 . S
C505 H497 0.930 . S
C505 C503 1.419 . S
C505 C506 1.362 . S
C506 H498 0.930 . S
C506 C505 1.362 . S
C506 C509 1.409 . S
C507 H499 0.930 . S
C507 C508 1.355 . S
C507 C509 1.415 . S
C508 C507 1.355 . S
C508 C510 1.419 . S
C509 C504 1.425 . S
C509 C506 1.409 . S
C509 C507 1.415 . S
C510 H500 0.930 . S
C510 C508 1.419 . S
C510 C511 1.362 . S
C511 H501 0.930 . S
C511 C504 1.409 . S
C511 C510 1.362 . S
H512 C518 0.930 . S
H513 C521 0.930 . S
H514 C522 0.930 . S
H515 C523 0.930 . S
H516 C526 0.930 . S
H517 C527 0.930 . S
C518 H512 0.930 . S
C518 C519 1.355 . S
C518 C520 1.415 . S
C519 C518 1.355 . S
C519 C521 1.419 . S
C520 C518 1.415 . S
C520 C525 1.425 . S
C520 C527 1.409 . S
C521 H513 0.930 . S
C521 C519 1.419 . S
C521 C522 1.362 . S
C522 H514 0.930 . S
C522 C521 1.362 . S
C522 C525 1.409 . S
C523 H515 0.930 . S
C523 C524 1.355 . S
C523 C525 1.415 . S
C524 C523 1.355 . S
C524 C526 1.419 . S
C525 C520 1.425 . S
C525 C522 1.409 . S
C525 C523 1.415 . S
C526 H516 0.930 . S
C526 C524 1.419 . S
C526 C527 1.362 . S
C527 H517 0.930 . S
C527 C520 1.409 . S
C527 C526 1.362 . S
H528 C534 0.930 . S
H529 C537 0.930 1_565 S
H530 C538 0.930 . S
H531 C539 0.930 1_565 S
H532 C542 0.930 . S
H533 C543 0.930 . S
C534 H528 0.930 . S
C534 C535 1.355 . S
C534 C536 1.415 . S
C535 C534 1.355 . S
C535 C537 1.419 . S
C536 C534 1.415 . S
C536 C541 1.425 . S
C536 C543 1.409 . S
C537 H529 0.930 1_545 S
C537 C535 1.419 . S
C537 C538 1.362 1_545 S
C538 H530 0.930 . S
C538 C537 1.362 1_565 S
C538 C541 1.409 1_565 S
C539 H531 0.930 1_545 S
C539 C540 1.355 . S
C539 C541 1.415 . S
C540 C539 1.355 . S
C540 C542 1.419 . S
C541 C536 1.425 . S
C541 C538 1.409 1_545 S
C541 C539 1.415 . S
C542 H532 0.930 . S
C542 C540 1.419 . S
C542 C543 1.362 . S
C543 H533 0.930 . S
C543 C536 1.409 . S
C543 C542 1.362 . S
H544 C550 0.930 . S
H545 C553 0.930 1_545 S
H546 C554 0.930 . S
H547 C555 0.930 1_545 S
H548 C558 0.930 . S
H549 C559 0.930 . S
C550 H544 0.930 . S
C550 C551 1.355 . S
C550 C552 1.415 . S
C551 C550 1.355 . S
C551 C553 1.419 . S
C552 C550 1.415 . S
C552 C557 1.425 . S
C552 C559 1.409 . S
C553 H545 0.930 1_565 S
C553 C551 1.419 . S
C553 C554 1.362 1_565 S
C554 H546 0.930 . S
C554 C553 1.362 1_545 S
C554 C557 1.409 1_545 S
C555 H547 0.930 1_565 S
C555 C556 1.355 . S
C555 C557 1.415 . S
C556 C555 1.355 . S
C556 C558 1.419 . S
C557 C552 1.425 . S
C557 C554 1.409 1_565 S
C557 C555 1.415 . S
C558 H548 0.930 . S
C558 C556 1.419 . S
C558 C559 1.362 . S
C559 H549 0.930 . S
C559 C552 1.409 . S
C559 C558 1.362 . S
H560 C566 0.930 1_655 S
H561 C569 0.930 . S
H562 C570 0.930 . S
H563 C571 0.930 . S
H564 C574 0.930 . S
H565 C575 0.930 . S
C566 H560 0.930 1_455 S
C566 C567 1.355 . S
C566 C568 1.415 . S
C567 C566 1.355 . S
C567 C569 1.419 . S
C568 C566 1.415 . S
C568 C573 1.425 . S
C568 C575 1.409 1_455 S
C569 H561 0.930 . S
C569 C567 1.419 . S
C569 C570 1.362 . S
C570 H562 0.930 . S
C570 C569 1.362 . S
C570 C573 1.409 . S
C571 H563 0.930 . S
C571 C572 1.355 . S
C571 C573 1.415 . S
C572 C571 1.355 . S
C572 C574 1.419 1_455 S
C573 C568 1.425 . S
C573 C570 1.409 . S
C573 C571 1.415 . S
C574 H564 0.930 . S
C574 C572 1.419 1_655 S
C574 C575 1.362 . S
C575 H565 0.930 . S
C575 C568 1.409 1_655 S
C575 C574 1.362 . S
H576 C582 0.930 . S
H577 C585 0.930 . S
H578 C586 0.930 . S
H579 C587 0.930 . S
H580 C590 0.930 . S
H581 C591 0.930 . S
C582 H576 0.930 . S
C582 C583 1.355 . S
C582 C584 1.415 . S
C583 C582 1.355 . S
C583 C585 1.419 . S
C584 C582 1.415 . S
C584 C589 1.425 . S
C584 C591 1.409 . S
C585 H577 0.930 . S
C585 C583 1.419 . S
C585 C586 1.362 . S
C586 H578 0.930 . S
C586 C585 1.362 . S
C586 C589 1.409 . S
C587 H579 0.930 . S
C587 C588 1.355 . S
C587 C589 1.415 . S
C588 C587 1.355 . S
C588 C590 1.419 . S
C589 C584 1.425 . S
C589 C586 1.409 . S
C589 C587 1.415 . S
C590 H580 0.930 . S
C590 C588 1.419 . S
C590 C591 1.362 . S
C591 H581 0.930 . S
C591 C584 1.409 . S
C591 C590 1.362 . S
H592 C598 0.930 . S
H593 C601 0.930 . S
H594 C602 0.930 . S
H595 C603 0.930 . S
H596 C606 0.930 . S
H597 C607 0.930 . S
C598 H592 0.930 . S
C598 C599 1.355 . S
C598 C600 1.415 . S
C599 C598 1.355 . S
C599 C601 1.419 . S
C600 C598 1.415 . S
C600 C605 1.425 . S
C600 C607 1.409 . S
C601 H593 0.930 . S
C601 C599 1.419 . S
C601 C602 1.362 . S
C602 H594 0.930 . S
C602 C601 1.362 . S
C602 C605 1.409 . S
C603 H595 0.930 . S
C603 C604 1.355 . S
C603 C605 1.415 . S
C604 C603 1.355 . S
C604 C606 1.419 . S
C605 C600 1.425 . S
C605 C602 1.409 . S
C605 C603 1.415 . S
C606 H596 0.930 . S
C606 C604 1.419 . S
C606 C607 1.362 . S
C607 H597 0.930 . S
C607 C600 1.409 . S
C607 C606 1.362 . S
H608 C614 0.930 . S
H609 C617 0.930 . S
H610 C618 0.930 . S
H611 C619 0.930 . S
H612 C622 0.930 . S
H613 C623 0.930 . S
C614 H608 0.930 . S
C614 C615 1.355 . S
C614 C616 1.415 . S
C615 C614 1.355 . S
C615 C617 1.419 . S
C616 C614 1.415 . S
C616 C621 1.425 . S
C616 C623 1.409 . S
C617 H609 0.930 . S
C617 C615 1.419 . S
C617 C618 1.362 . S
C618 H610 0.930 . S
C618 C617 1.362 . S
C618 C621 1.409 . S
C619 H611 0.930 . S
C619 C620 1.355 . S
C619 C621 1.415 . S
C620 C619 1.355 . S
C620 C622 1.419 . S
C621 C616 1.425 . S
C621 C618 1.409 . S
C621 C619 1.415 . S
C622 H612 0.930 . S
C622 C620 1.419 . S
C622 C623 1.362 . S
C623 H613 0.930 . S
C623 C616 1.409 . S
C623 C622 1.362 . S
H624 C630 0.930 . S
H625 C633 0.930 . S
H626 C634 0.930 . S
H627 C635 0.930 . S
H628 C638 0.930 . S
H629 C639 0.930 . S
C630 H624 0.930 . S
C630 C631 1.355 . S
C630 C632 1.415 . S
C631 C630 1.355 . S
C631 C633 1.419 . S
C632 C630 1.415 . S
C632 C637 1.425 . S
C632 C639 1.409 . S
C633 H625 0.930 . S
C633 C631 1.419 . S
C633 C634 1.362 . S
C634 H626 0.930 . S
C634 C633 1.362 . S
C634 C637 1.409 . S
C635 H627 0.930 . S
C635 C636 1.355 . S
C635 C637 1.415 . S
C636 C635 1.355 . S
C636 C638 1.419 . S
C637 C632 1.425 . S
C637 C634 1.409 . S
C637 C635 1.415 . S
C638 H628 0.930 . S
C638 C636 1.419 . S
C638 C639 1.362 . S
C639 H629 0.930 . S
C639 C632 1.409 . S
C639 C638 1.362 . S
H640 C646 0.930 . S
H641 C649 0.930 . S
H642 C650 0.930 . S
H643 C651 0.930 . S
H644 C654 0.930 . S
H645 C655 0.930 . S
C646 H640 0.930 . S
C646 C647 1.355 . S
C646 C648 1.415 . S
C647 C646 1.355 . S
C647 C649 1.419 . S
C648 C646 1.415 . S
C648 C653 1.425 . S
C648 C655 1.409 . S
C649 H641 0.930 . S
C649 C647 1.419 . S
C649 C650 1.362 . S
C650 H642 0.930 . S
C650 C649 1.362 . S
C650 C653 1.409 . S
C651 H643 0.930 . S
C651 C652 1.355 . S
C651 C653 1.415 . S
C652 C651 1.355 . S
C652 C654 1.419 . S
C653 C648 1.425 . S
C653 C650 1.409 . S
C653 C651 1.415 . S
C654 H644 0.930 . S
C654 C652 1.419 . S
C654 C655 1.362 . S
C655 H645 0.930 . S
C655 C648 1.409 . S
C655 C654 1.362 . S
H656 C662 0.930 . S
H657 C665 0.930 . S
H658 C666 0.930 . S
H659 C667 0.930 1_655 S
H660 C670 0.930 . S
H661 C671 0.930 . S
C662 H656 0.930 . S
C662 C663 1.355 . S
C662 C664 1.415 . S
C663 C662 1.355 . S
C663 C665 1.419 1_455 S
C664 C662 1.415 . S
C664 C669 1.425 . S
C664 C671 1.409 . S
C665 H657 0.930 . S
C665 C663 1.419 1_655 S
C665 C666 1.362 . S
C666 H658 0.930 . S
C666 C665 1.362 . S
C666 C669 1.409 1_655 S
C667 H659 0.930 1_455 S
C667 C668 1.355 . S
C667 C669 1.415 . S
C668 C667 1.355 . S
C668 C670 1.419 . S
C669 C664 1.425 . S
C669 C666 1.409 1_455 S
C669 C667 1.415 . S
C670 H660 0.930 . S
C670 C668 1.419 . S
C670 C671 1.362 . S
C671 H661 0.930 . S
C671 C664 1.409 . S
C671 C670 1.362 . S
H672 C678 0.930 . S
H673 C681 0.930 1_554 S
H674 C682 0.930 . S
H675 C683 0.930 . S
H676 C686 0.930 . S
H677 C687 0.930 . S
C678 H672 0.930 . S
C678 C679 1.355 . S
C678 C680 1.415 . S
C679 C678 1.355 . S
C679 C681 1.419 . S
C680 C678 1.415 . S
C680 C685 1.425 . S
C680 C687 1.409 . S
C681 H673 0.930 1_556 S
C681 C679 1.419 . S
C681 C682 1.362 . S
C682 H674 0.930 . S
C682 C681 1.362 . S
C682 C685 1.409 . S
C683 H675 0.930 . S
C683 C684 1.355 . S
C683 C685 1.415 . S
C684 C683 1.355 . S
C684 C686 1.419 . S
C685 C680 1.425 . S
C685 C682 1.409 . S
C685 C683 1.415 . S
C686 H676 0.930 . S
C686 C684 1.419 . S
C686 C687 1.362 . S
C687 H677 0.930 . S
C687 C680 1.409 . S
C687 C686 1.362 . S
H688 C694 0.930 . S
H689 C697 0.930 . S
H690 C698 0.930 . S
H691 C699 0.930 . S
H692 C702 0.930 . S
H693 C703 0.930 . S
C694 H688 0.930 . S
C694 C695 1.355 . S
C694 C696 1.415 . S
C695 C694 1.355 . S
C695 C697 1.419 . S
C696 C694 1.415 . S
C696 C701 1.425 . S
C696 C703 1.409 . S
C697 H689 0.930 . S
C697 C695 1.419 . S
C697 C698 1.362 . S
C698 H690 0.930 . S
C698 C697 1.362 . S
C698 C701 1.409 . S
C699 H691 0.930 . S
C699 C700 1.355 . S
C699 C701 1.415 . S
C700 C699 1.355 . S
C700 C702 1.419 . S
C701 C696 1.425 . S
C701 C698 1.409 . S
C701 C699 1.415 . S
C702 H692 0.930 . S
C702 C700 1.419 . S
C702 C703 1.362 . S
C703 H693 0.930 . S
C703 C696 1.409 . S
C703 C702 1.362 . S
H704 C710 0.930 . S
H705 C713 0.930 . S
H706 C714 0.930 . S
H707 C715 0.930 . S
H708 C718 0.930 . S
H709 C719 0.930 . S
C710 H704 0.930 . S
C710 C711 1.355 . S
C710 C712 1.415 . S
C711 C710 1.355 . S
C711 C713 1.419 . S
C712 C710 1.415 . S
C712 C717 1.425 . S
C712 C719 1.409 . S
C713 H705 0.930 . S
C713 C711 1.419 . S
C713 C714 1.362 . S
C714 H706 0.930 . S
C714 C713 1.362 . S
C714 C717 1.409 . S
C715 H707 0.930 . S
C715 C716 1.355 . S
C715 C717 1.415 . S
C716 C715 1.355 . S
C716 C718 1.419 . S
C717 C712 1.425 . S
C717 C714 1.409 . S
C717 C715 1.415 . S
C718 H708 0.930 . S
C718 C716 1.419 . S
C718 C719 1.362 . S
C719 H709 0.930 . S
C719 C712 1.409 . S
C719 C718 1.362 . S
H720 C726 0.930 . S
H721 C729 0.930 . S
H722 C730 0.930 . S
H723 C731 0.930 . S
H724 C734 0.930 . S
H725 C735 0.930 . S
C726 H720 0.930 . S
C726 C727 1.355 . S
C726 C728 1.415 . S
C727 C726 1.355 . S
C727 C729 1.419 . S
C728 C726 1.415 . S
C728 C733 1.425 . S
C728 C735 1.409 . S
C729 H721 0.930 . S
C729 C727 1.419 . S
C729 C730 1.362 . S
C730 H722 0.930 . S
C730 C729 1.362 . S
C730 C733 1.409 . S
C731 H723 0.930 . S
C731 C732 1.355 . S
C731 C733 1.415 . S
C732 C731 1.355 . S
C732 C734 1.419 . S
C733 C728 1.425 . S
C733 C730 1.409 . S
C733 C731 1.415 . S
C734 H724 0.930 . S
C734 C732 1.419 . S
C734 C735 1.362 . S
C735 H725 0.930 . S
C735 C728 1.409 . S
C735 C734 1.362 . S
H736 C742 0.930 . S
H737 C745 0.930 . S
H738 C746 0.930 . S
H739 C747 0.930 . S
H740 C750 0.930 . S
H741 C751 0.930 . S
C742 H736 0.930 . S
C742 C743 1.355 . S
C742 C744 1.415 . S
C743 C742 1.355 . S
C743 C745 1.419 . S
C744 C742 1.415 . S
C744 C749 1.425 . S
C744 C751 1.409 . S
C745 H737 0.930 . S
C745 C743 1.419 . S
C745 C746 1.362 . S
C746 H738 0.930 . S
C746 C745 1.362 . S
C746 C749 1.409 . S
C747 H739 0.930 . S
C747 C748 1.355 . S
C747 C749 1.415 . S
C748 C747 1.355 . S
C748 C750 1.419 . S
C749 C744 1.425 . S
C749 C746 1.409 . S
C749 C747 1.415 . S
C750 H740 0.930 . S
C750 C748 1.419 . S
C750 C751 1.362 . S
C751 H741 0.930 . S
C751 C744 1.409 . S
C751 C750 1.362 . S
H752 C758 0.930 . S
H753 C761 0.930 . S
H754 C762 0.930 . S
H755 C763 0.930 . S
H756 C766 0.930 . S
H757 C767 0.930 . S
C758 H752 0.930 . S
C758 C759 1.355 . S
C758 C760 1.415 . S
C759 C758 1.355 . S
C759 C761 1.419 . S
C760 C758 1.415 . S
C760 C765 1.425 . S
C760 C767 1.409 . S
C761 H753 0.930 . S
C761 C759 1.419 . S
C761 C762 1.362 . S
C762 H754 0.930 . S
C762 C761 1.362 . S
C762 C765 1.409 . S
C763 H755 0.930 . S
C763 C764 1.355 . S
C763 C765 1.415 . S
C764 C763 1.355 . S
C764 C766 1.419 . S
C765 C760 1.425 . S
C765 C762 1.409 . S
C765 C763 1.415 . S
C766 H756 0.930 . S
C766 C764 1.419 . S
C766 C767 1.362 . S
C767 H757 0.930 . S
C767 C760 1.409 . S
C767 C766 1.362 . S
H768 C774 0.930 . S
H769 C777 0.930 . S
H770 C778 0.930 . S
H771 C779 0.930 . S
H772 C782 0.930 . S
H773 C783 0.930 . S
C774 H768 0.930 . S
C774 C775 1.355 . S
C774 C776 1.415 . S
C775 C774 1.355 . S
C775 C777 1.419 . S
C776 C774 1.415 . S
C776 C781 1.425 . S
C776 C783 1.409 . S
C777 H769 0.930 . S
C777 C775 1.419 . S
C777 C778 1.362 . S
C778 H770 0.930 . S
C778 C777 1.362 . S
C778 C781 1.409 . S
C779 H771 0.930 . S
C779 C780 1.355 . S
C779 C781 1.415 . S
C780 C779 1.355 . S
C780 C782 1.419 . S
C781 C776 1.425 . S
C781 C778 1.409 . S
C781 C779 1.415 . S
C782 H772 0.930 . S
C782 C780 1.419 . S
C782 C783 1.362 . S
C783 H773 0.930 . S
C783 C776 1.409 . S
C783 C782 1.362 . S
H784 C790 0.930 . S
H785 C793 0.930 . S
H786 C794 0.930 . S
H787 C795 0.930 . S
H788 C798 0.930 . S
H789 C799 0.930 . S
C790 H784 0.930 . S
C790 C791 1.355 . S
C790 C792 1.415 . S
C791 C790 1.355 . S
C791 C793 1.419 . S
C792 C790 1.415 . S
C792 C797 1.425 . S
C792 C799 1.409 . S
C793 H785 0.930 . S
C793 C791 1.419 . S
C793 C794 1.362 . S
C794 H786 0.930 . S
C794 C793 1.362 . S
C794 C797 1.409 . S
C795 H787 0.930 . S
C795 C796 1.355 . S
C795 C797 1.415 . S
C796 C795 1.355 . S
C796 C798 1.419 . S
C797 C792 1.425 . S
C797 C794 1.409 . S
C797 C795 1.415 . S
C798 H788 0.930 . S
C798 C796 1.419 . S
C798 C799 1.362 . S
C799 H789 0.930 . S
C799 C792 1.409 . S
C799 C798 1.362 . S
H800 C806 0.930 . S
H801 C809 0.930 . S
H802 C810 0.930 . S
H803 C811 0.930 . S
H804 C814 0.930 . S
H805 C815 0.930 . S
C806 H800 0.930 . S
C806 C807 1.355 . S
C806 C808 1.415 . S
C807 C806 1.355 . S
C807 C809 1.419 . S
C808 C806 1.415 . S
C808 C813 1.425 . S
C808 C815 1.409 . S
C809 H801 0.930 . S
C809 C807 1.419 . S
C809 C810 1.362 . S
C810 H802 0.930 . S
C810 C809 1.362 . S
C810 C813 1.409 . S
C811 H803 0.930 . S
C811 C812 1.355 . S
C811 C813 1.415 . S
C812 C811 1.355 . S
C812 C814 1.419 . S
C813 C808 1.425 . S
C813 C810 1.409 . S
C813 C811 1.415 . S
C814 H804 0.930 . S
C814 C812 1.419 . S
C814 C815 1.362 . S
C815 H805 0.930 . S
C815 C808 1.409 . S
C815 C814 1.362 . S
H816 C822 0.930 1_455 S
H817 C825 0.930 . S
H818 C826 0.930 . S
H819 C827 0.930 . S
H820 C830 0.930 . S
H821 C831 0.930 . S
C822 H816 0.930 1_655 S
C822 C823 1.355 . S
C822 C824 1.415 . S
C823 C822 1.355 . S
C823 C825 1.419 . S
C824 C822 1.415 . S
C824 C829 1.425 . S
C824 C831 1.409 1_655 S
C825 H817 0.930 . S
C825 C823 1.419 . S
C825 C826 1.362 . S
C826 H818 0.930 . S
C826 C825 1.362 . S
C826 C829 1.409 . S
C827 H819 0.930 . S
C827 C828 1.355 . S
C827 C829 1.415 . S
C828 C827 1.355 . S
C828 C830 1.419 1_655 S
C829 C824 1.425 . S
C829 C826 1.409 . S
C829 C827 1.415 . S
C830 H820 0.930 . S
C830 C828 1.419 1_455 S
C830 C831 1.362 . S
C831 H821 0.930 . S
C831 C824 1.409 1_455 S
C831 C830 1.362 . S
H832 C838 0.930 . S
H833 C841 0.930 . S
H834 C842 0.930 . S
H835 C843 0.930 . S
H836 C846 0.930 . S
H837 C847 0.930 . S
C838 H832 0.930 . S
C838 C839 1.355 . S
C838 C840 1.415 . S
C839 C838 1.355 . S
C839 C841 1.419 . S
C840 C838 1.415 . S
C840 C845 1.425 . S
C840 C847 1.409 . S
C841 H833 0.930 . S
C841 C839 1.419 . S
C841 C842 1.362 . S
C842 H834 0.930 . S
C842 C841 1.362 . S
C842 C845 1.409 . S
C843 H835 0.930 . S
C843 C844 1.355 . S
C843 C845 1.415 . S
C844 C843 1.355 . S
C844 C846 1.419 . S
C845 C840 1.425 . S
C845 C842 1.409 . S
C845 C843 1.415 . S
C846 H836 0.930 . S
C846 C844 1.419 . S
C846 C847 1.362 . S
C847 H837 0.930 . S
C847 C840 1.409 . S
C847 C846 1.362 . S
H848 C854 0.930 . S
H849 C857 0.930 . S
H850 C858 0.930 . S
H851 C859 0.930 . S
H852 C862 0.930 . S
H853 C863 0.930 . S
C854 H848 0.930 . S
C854 C855 1.355 . S
C854 C856 1.415 . S
C855 C854 1.355 . S
C855 C857 1.419 . S
C856 C854 1.415 . S
C856 C861 1.425 . S
C856 C863 1.409 . S
C857 H849 0.930 . S
C857 C855 1.419 . S
C857 C858 1.362 . S
C858 H850 0.930 . S
C858 C857 1.362 . S
C858 C861 1.409 . S
C859 H851 0.930 . S
C859 C860 1.355 . S
C859 C861 1.415 . S
C860 C859 1.355 . S
C860 C862 1.419 . S
C861 C856 1.425 . S
C861 C858 1.409 . S
C861 C859 1.415 . S
C862 H852 0.930 . S
C862 C860 1.419 . S
C862 C863 1.362 . S
C863 H853 0.930 . S
C863 C856 1.409 . S
C863 C862 1.362 . S
H864 C870 0.930 . S
H865 C873 0.930 . S
H866 C874 0.930 . S
H867 C875 0.930 . S
H868 C878 0.930 . S
H869 C879 0.930 . S
C870 H864 0.930 . S
C870 C871 1.355 . S
C870 C872 1.415 . S
C871 C870 1.355 . S
C871 C873 1.419 . S
C872 C870 1.415 . S
C872 C877 1.425 . S
C872 C879 1.409 . S
C873 H865 0.930 . S
C873 C871 1.419 . S
C873 C874 1.362 . S
C874 H866 0.930 . S
C874 C873 1.362 . S
C874 C877 1.409 . S
C875 H867 0.930 . S
C875 C876 1.355 . S
C875 C877 1.415 . S
C876 C875 1.355 . S
C876 C878 1.419 . S
C877 C872 1.425 . S
C877 C874 1.409 . S
C877 C875 1.415 . S
C878 H868 0.930 . S
C878 C876 1.419 . S
C878 C879 1.362 . S
C879 H869 0.930 . S
C879 C872 1.409 . S
C879 C878 1.362 . S
H880 C886 0.930 . S
H881 C889 0.930 . S
H882 C890 0.930 . S
H883 C891 0.930 . S
H884 C894 0.930 . S
H885 C895 0.930 . S
C886 H880 0.930 . S
C886 C887 1.355 . S
C886 C888 1.415 . S
C887 C886 1.355 . S
C887 C889 1.419 . S
C888 C886 1.415 . S
C888 C893 1.425 . S
C888 C895 1.409 . S
C889 H881 0.930 . S
C889 C887 1.419 . S
C889 C890 1.362 . S
C890 H882 0.930 . S
C890 C889 1.362 . S
C890 C893 1.409 . S
C891 H883 0.930 . S
C891 C892 1.355 . S
C891 C893 1.415 . S
C892 C891 1.355 . S
C892 C894 1.419 . S
C893 C888 1.425 . S
C893 C890 1.409 . S
C893 C891 1.415 . S
C894 H884 0.930 . S
C894 C892 1.419 . S
C894 C895 1.362 . S
C895 H885 0.930 . S
C895 C888 1.409 . S
C895 C894 1.362 . S
H896 C902 0.930 . S
H897 C905 0.930 . S
H898 C906 0.930 . S
H899 C907 0.930 . S
H900 C910 0.930 . S
H901 C911 0.930 . S
C902 H896 0.930 . S
C902 C903 1.355 . S
C902 C904 1.415 . S
C903 C902 1.355 . S
C903 C905 1.419 . S
C904 C902 1.415 . S
C904 C909 1.425 . S
C904 C911 1.409 . S
C905 H897 0.930 . S
C905 C903 1.419 . S
C905 C906 1.362 . S
C906 H898 0.930 . S
C906 C905 1.362 . S
C906 C909 1.409 . S
C907 H899 0.930 . S
C907 C908 1.355 . S
C907 C909 1.415 . S
C908 C907 1.355 . S
C908 C910 1.419 . S
C909 C904 1.425 . S
C909 C906 1.409 . S
C909 C907 1.415 . S
C910 H900 0.930 . S
C910 C908 1.419 . S
C910 C911 1.362 . S
C911 H901 0.930 . S
C911 C904 1.409 . S
C911 C910 1.362 . S
H912 C918 0.953 . S
H913 C921 0.930 . S
H914 C922 0.930 . S
H915 C923 0.930 . S
H916 C926 0.930 . S
H917 C927 0.930 . S
C918 H912 0.953 . S
C918 C919 1.329 1_556 S
C918 C920 1.419 1_556 S
C919 C918 1.329 1_554 S
C919 C921 1.419 . S
C920 C918 1.419 1_554 S
C920 C925 1.425 . S
C920 C927 1.409 1_554 S
C921 H913 0.930 . S
C921 C919 1.419 . S
C921 C922 1.362 . S
C922 H914 0.930 . S
C922 C921 1.362 . S
C922 C925 1.409 . S
C923 H915 0.930 . S
C923 C924 1.355 . S
C923 C925 1.415 . S
C924 C923 1.355 . S
C924 C926 1.419 1_554 S
C925 C920 1.425 . S
C925 C922 1.409 . S
C925 C923 1.415 . S
C926 H916 0.930 . S
C926 C924 1.419 1_556 S
C926 C927 1.362 . S
C927 H917 0.930 . S
C927 C920 1.409 1_556 S
C927 C926 1.362 . S
H928 C934 0.930 . S
H929 C937 0.930 . S
H930 C938 0.930 . S
H931 C939 0.930 . S
H932 C942 0.930 . S
H933 C943 0.930 . S
C934 H928 0.930 . S
C934 C935 1.355 . S
C934 C936 1.415 . S
C935 C934 1.355 . S
C935 C937 1.419 . S
C936 C934 1.415 . S
C936 C941 1.425 . S
C936 C943 1.409 . S
C937 H929 0.930 . S
C937 C935 1.419 . S
C937 C938 1.362 . S
C938 H930 0.930 . S
C938 C937 1.362 . S
C938 C941 1.409 . S
C939 H931 0.930 . S
C939 C940 1.355 . S
C939 C941 1.415 . S
C940 C939 1.355 . S
C940 C942 1.419 . S
C941 C936 1.425 . S
C941 C938 1.409 . S
C941 C939 1.415 . S
C942 H932 0.930 . S
C942 C940 1.419 . S
C942 C943 1.362 . S
C943 H933 0.930 . S
C943 C936 1.409 . S
C943 C942 1.362 . S
H944 C950 0.930 . S
H945 C953 0.930 . S
H946 C954 0.930 . S
H947 C955 0.930 . S
H948 C958 0.930 . S
H949 C959 0.930 . S
C950 H944 0.930 . S
C950 C951 1.355 . S
C950 C952 1.415 . S
C951 C950 1.355 . S
C951 C953 1.419 . S
C952 C950 1.415 . S
C952 C957 1.425 . S
C952 C959 1.409 . S
C953 H945 0.930 . S
C953 C951 1.419 . S
C953 C954 1.362 . S
C954 H946 0.930 . S
C954 C953 1.362 . S
C954 C957 1.409 . S
C955 H947 0.930 . S
C955 C956 1.355 . S
C955 C957 1.415 . S
C956 C955 1.355 . S
C956 C958 1.419 . S
C957 C952 1.425 . S
C957 C954 1.409 . S
C957 C955 1.415 . S
C958 H948 0.930 . S
C958 C956 1.419 . S
C958 C959 1.362 . S
C959 H949 0.930 . S
C959 C952 1.409 . S
C959 C958 1.362 . S
H960 C966 0.930 . S
H961 C969 0.930 . S
H962 C970 0.930 . S
H963 C971 0.930 . S
H964 C974 0.930 . S
H965 C975 0.930 . S
C966 H960 0.930 . S
C966 C967 1.355 . S
C966 C968 1.415 . S
C967 C966 1.355 . S
C967 C969 1.419 . S
C968 C966 1.415 . S
C968 C973 1.425 . S
C968 C975 1.409 . S
C969 H961 0.930 . S
C969 C967 1.419 . S
C969 C970 1.362 . S
C970 H962 0.930 . S
C970 C969 1.362 . S
C970 C973 1.409 . S
C971 H963 0.930 . S
C971 C972 1.355 . S
C971 C973 1.415 . S
C972 C971 1.355 . S
C972 C974 1.419 . S
C973 C968 1.425 . S
C973 C970 1.409 . S
C973 C971 1.415 . S
C974 H964 0.930 . S
C974 C972 1.419 . S
C974 C975 1.362 . S
C975 H965 0.930 . S
C975 C968 1.409 . S
C975 C974 1.362 . S
H976 C982 0.930 . S
H977 C985 0.930 . S
H978 C986 0.930 . S
H979 C987 0.930 . S
H980 C990 0.930 . S
H981 C991 0.930 . S
C982 H976 0.930 . S
C982 C983 1.355 . S
C982 C984 1.415 . S
C983 C982 1.355 . S
C983 C985 1.419 . S
C984 C982 1.415 . S
C984 C989 1.425 . S
C984 C991 1.409 . S
C985 H977 0.930 . S
C985 C983 1.419 . S
C985 C986 1.362 . S
C986 H978 0.930 . S
C986 C985 1.362 . S
C986 C989 1.409 . S
C987 H979 0.930 . S
C987 C988 1.355 . S
C987 C989 1.415 . S
C988 C987 1.355 . S
C988 C990 1.419 . S
C989 C984 1.425 . S
C989 C986 1.409 . S
C989 C987 1.415 . S
C990 H980 0.930 . S
C990 C988 1.419 . S
C990 C991 1.362 . S
C991 H981 0.930 . S
C991 C984 1.409 . S
C991 C990 1.362 . S
H992 C998 0.930 . S
H993 C1001 0.930 . S
H994 C1002 0.930 . S
H995 C1003 0.930 . S
H996 C1006 0.930 . S
H997 C1007 0.930 . S
C998 H992 0.930 . S
C998 C999 1.355 . S
C998 C1000 1.415 . S
C999 C998 1.355 . S
C999 C1001 1.419 . S
C1000 C998 1.415 . S
C1000 C1005 1.425 . S
C1000 C1007 1.409 . S
C1001 H993 0.930 . S
C1001 C999 1.419 . S
C1001 C1002 1.362 . S
C1002 H994 0.930 . S
C1002 C1001 1.362 . S
C1002 C1005 1.409 . S
C1003 H995 0.930 . S
C1003 C1004 1.355 . S
C1003 C1005 1.415 . S
C1004 C1003 1.355 . S
C1004 C1006 1.419 . S
C1005 C1000 1.425 . S
C1005 C1002 1.409 . S
C1005 C1003 1.415 . S
C1006 H996 0.930 . S
C1006 C1004 1.419 . S
C1006 C1007 1.362 . S
C1007 H997 0.930 . S
C1007 C1000 1.409 . S
C1007 C1006 1.362 . S
H1008 C1014 0.930 . S
H1009 C1017 0.930 . S
H1010 C1018 0.930 . S
H1011 C1019 0.930 . S
H1012 C1022 0.930 . S
H1013 C1023 0.930 . S
C1014 H1008 0.930 . S
C1014 C1015 1.355 . S
C1014 C1016 1.415 . S
C1015 C1014 1.355 . S
C1015 C1017 1.419 . S
C1016 C1014 1.415 . S
C1016 C1021 1.425 . S
C1016 C1023 1.409 . S
C1017 H1009 0.930 . S
C1017 C1015 1.419 . S
C1017 C1018 1.362 . S
C1018 H1010 0.930 . S
C1018 C1017 1.362 . S
C1018 C1021 1.409 . S
C1019 H1011 0.930 . S
C1019 C1020 1.355 . S
C1019 C1021 1.415 . S
C1020 C1019 1.355 . S
C1020 C1022 1.419 . S
C1021 C1016 1.425 . S
C1021 C1018 1.409 . S
C1021 C1019 1.415 . S
C1022 H1012 0.930 . S
C1022 C1020 1.419 . S
C1022 C1023 1.362 . S
C1023 H1013 0.930 . S
C1023 C1016 1.409 . S
C1023 C1022 1.362 . S
H1024 C1030 0.930 . S
H1025 C1033 0.930 . S
H1026 C1034 0.930 . S
H1027 C1035 0.930 . S
H1028 C1038 0.930 . S
H1029 C1039 0.930 . S
C1030 H1024 0.930 . S
C1030 C1031 1.355 . S
C1030 C1032 1.415 . S
C1031 C1030 1.355 . S
C1031 C1033 1.419 . S
C1032 C1030 1.415 . S
C1032 C1037 1.425 . S
C1032 C1039 1.409 . S
C1033 H1025 0.930 . S
C1033 C1031 1.419 . S
C1033 C1034 1.362 . S
C1034 H1026 0.930 . S
C1034 C1033 1.362 . S
C1034 C1037 1.409 . S
C1035 H1027 0.930 . S
C1035 C1036 1.355 . S
C1035 C1037 1.415 . S
C1036 C1035 1.355 . S
C1036 C1038 1.419 . S
C1037 C1032 1.425 . S
C1037 C1034 1.409 . S
C1037 C1035 1.415 . S
C1038 H1028 0.930 . S
C1038 C1036 1.419 . S
C1038 C1039 1.362 . S
C1039 H1029 0.930 . S
C1039 C1032 1.409 . S
C1039 C1038 1.362 . S
H1040 C1046 0.930 . S
H1041 C1049 0.930 . S
H1042 C1050 0.930 . S
H1043 C1051 0.930 . S
H1044 C1054 0.930 . S
H1045 C1055 0.930 . S
C1046 H1040 0.930 . S
C1046 C1047 1.355 . S
C1046 C1048 1.415 . S
C1047 C1046 1.355 . S
C1047 C1049 1.419 . S
C1048 C1046 1.415 . S
C1048 C1053 1.425 . S
C1048 C1055 1.409 . S
C1049 H1041 0.930 . S
C1049 C1047 1.419 . S
C1049 C1050 1.362 . S
C1050 H1042 0.930 . S
C1050 C1049 1.362 . S
C1050 C1053 1.409 . S
C1051 H1043 0.930 . S
C1051 C1052 1.355 . S
C1051 C1053 1.415 . S
C1052 C1051 1.355 . S
C1052 C1054 1.419 . S
C1053 C1048 1.425 . S
C1053 C1050 1.409 . S
C1053 C1051 1.415 . S
C1054 H1044 0.930 . S
C1054 C1052 1.419 . S
C1054 C1055 1.362 . S
C1055 H1045 0.930 . S
C1055 C1048 1.409 . S
C1055 C1054 1.362 . S
H1056 C1062 0.930 . S
H1057 C1065 0.930 . S
H1058 C1066 0.930 . S
H1059 C1067 0.930 . S
H1060 C1070 0.930 . S
H1061 C1071 0.930 . S
C1062 H1056 0.930 . S
C1062 C1063 1.355 . S
C1062 C1064 1.415 . S
C1063 C1062 1.355 . S
C1063 C1065 1.419 . S
C1064 C1062 1.415 . S
C1064 C1069 1.425 . S
C1064 C1071 1.409 . S
C1065 H1057 0.930 . S
C1065 C1063 1.419 . S
C1065 C1066 1.362 . S
C1066 H1058 0.930 . S
C1066 C1065 1.362 . S
C1066 C1069 1.409 . S
C1067 H1059 0.930 . S
C1067 C1068 1.355 . S
C1067 C1069 1.415 . S
C1068 C1067 1.355 . S
C1068 C1070 1.419 . S
C1069 C1064 1.425 . S
C1069 C1066 1.409 . S
C1069 C1067 1.415 . S
C1070 H1060 0.930 . S
C1070 C1068 1.419 . S
C1070 C1071 1.362 . S
C1071 H1061 0.930 . S
C1071 C1064 1.409 . S
C1071 C1070 1.362 . S
H1072 C1078 0.930 . S
H1073 C1081 0.923 1_556 S
H1074 C1082 0.928 1_556 S
H1075 C1083 0.930 . S
H1076 C1086 0.930 . S
H1077 C1087 0.930 . S
C1078 H1072 0.930 . S
C1078 C1079 1.355 . S
C1078 C1080 1.415 . S
C1079 C1078 1.355 . S
C1079 C1081 1.422 . S
C1080 C1078 1.415 . S
C1080 C1085 1.425 . S
C1080 C1087 1.409 . S
C1081 H1073 0.923 1_554 S
C1081 C1079 1.422 . S
C1081 C1082 1.359 . S
C1082 H1074 0.928 1_554 S
C1082 C1081 1.359 . S
C1082 C1085 1.420 . S
C1083 H1075 0.930 . S
C1083 C1084 1.355 . S
C1083 C1085 1.415 . S
C1084 C1083 1.355 . S
C1084 C1086 1.419 . S
C1085 C1080 1.425 . S
C1085 C1082 1.420 . S
C1085 C1083 1.415 . S
C1086 H1076 0.930 . S
C1086 C1084 1.419 . S
C1086 C1087 1.362 . S
C1087 H1077 0.930 . S
C1087 C1080 1.409 . S
C1087 C1086 1.362 . S
H1088 C1094 0.930 . S
H1089 C1097 0.930 . S
H1090 C1098 0.930 . S
H1091 C1099 0.930 . S
H1092 C1102 0.930 . S
H1093 C1103 0.930 . S
C1094 H1088 0.930 . S
C1094 C1095 1.355 . S
C1094 C1096 1.415 . S
C1095 C1094 1.355 . S
C1095 C1097 1.419 . S
C1096 C1094 1.415 . S
C1096 C1101 1.425 . S
C1096 C1103 1.409 . S
C1097 H1089 0.930 . S
C1097 C1095 1.419 . S
C1097 C1098 1.362 . S
C1098 H1090 0.930 . S
C1098 C1097 1.362 . S
C1098 C1101 1.409 . S
C1099 H1091 0.930 . S
C1099 C1100 1.355 . S
C1099 C1101 1.415 . S
C1100 C1099 1.355 . S
C1100 C1102 1.419 . S
C1101 C1096 1.425 . S
C1101 C1098 1.409 . S
C1101 C1099 1.415 . S
C1102 H1092 0.930 . S
C1102 C1100 1.419 . S
C1102 C1103 1.362 . S
C1103 H1093 0.930 . S
C1103 C1096 1.409 . S
C1103 C1102 1.362 . S
H1104 C1110 0.930 . S
H1105 C1113 0.930 . S
H1106 C1114 0.930 . S
H1107 C1115 0.930 . S
H1108 C1118 0.930 . S
H1109 C1119 0.930 . S
C1110 H1104 0.930 . S
C1110 C1111 1.355 . S
C1110 C1112 1.415 . S
C1111 C1110 1.355 . S
C1111 C1113 1.419 . S
C1112 C1110 1.415 . S
C1112 C1117 1.425 . S
C1112 C1119 1.409 . S
C1113 H1105 0.930 . S
C1113 C1111 1.419 . S
C1113 C1114 1.362 . S
C1114 H1106 0.930 . S
C1114 C1113 1.362 . S
C1114 C1117 1.409 . S
C1115 H1107 0.930 . S
C1115 C1116 1.355 . S
C1115 C1117 1.415 . S
C1116 C1115 1.355 . S
C1116 C1118 1.419 . S
C1117 C1112 1.425 . S
C1117 C1114 1.409 . S
C1117 C1115 1.415 . S
C1118 H1108 0.930 . S
C1118 C1116 1.419 . S
C1118 C1119 1.362 . S
C1119 H1109 0.930 . S
C1119 C1112 1.409 . S
C1119 C1118 1.362 . S
H1120 C1126 0.930 . S
H1121 C1129 0.930 . S
H1122 C1130 0.930 . S
H1123 C1131 0.930 . S
H1124 C1134 0.930 . S
H1125 C1135 0.930 . S
C1126 H1120 0.930 . S
C1126 C1127 1.355 . S
C1126 C1128 1.415 . S
C1127 C1126 1.355 . S
C1127 C1129 1.419 . S
C1128 C1126 1.415 . S
C1128 C1133 1.425 . S
C1128 C1135 1.409 . S
C1129 H1121 0.930 . S
C1129 C1127 1.419 . S
C1129 C1130 1.362 . S
C1130 H1122 0.930 . S
C1130 C1129 1.362 . S
C1130 C1133 1.409 . S
C1131 H1123 0.930 . S
C1131 C1132 1.355 . S
C1131 C1133 1.415 . S
C1132 C1131 1.355 . S
C1132 C1134 1.419 . S
C1133 C1128 1.425 . S
C1133 C1130 1.409 . S
C1133 C1131 1.415 . S
C1134 H1124 0.930 . S
C1134 C1132 1.419 . S
C1134 C1135 1.362 . S
C1135 H1125 0.930 . S
C1135 C1128 1.409 . S
C1135 C1134 1.362 . S
H1136 C1142 0.930 . S
H1137 C1145 0.930 . S
H1138 C1146 0.930 . S
H1139 C1147 0.930 . S
H1140 C1150 0.930 . S
H1141 C1151 0.930 . S
C1142 H1136 0.930 . S
C1142 C1143 1.355 . S
C1142 C1144 1.415 . S
C1143 C1142 1.355 . S
C1143 C1145 1.419 . S
C1144 C1142 1.415 . S
C1144 C1149 1.425 . S
C1144 C1151 1.409 . S
C1145 H1137 0.930 . S
C1145 C1143 1.419 . S
C1145 C1146 1.362 . S
C1146 H1138 0.930 . S
C1146 C1145 1.362 . S
C1146 C1149 1.409 . S
C1147 H1139 0.930 . S
C1147 C1148 1.355 . S
C1147 C1149 1.415 . S
C1148 C1147 1.355 . S
C1148 C1150 1.419 . S
C1149 C1144 1.425 . S
C1149 C1146 1.409 . S
C1149 C1147 1.415 . S
C1150 H1140 0.930 . S
C1150 C1148 1.419 . S
C1150 C1151 1.362 . S
C1151 H1141 0.930 . S
C1151 C1144 1.409 . S
C1151 C1150 1.362 . S
H1152 C1158 0.930 . S
H1153 C1161 0.930 . S
H1154 C1162 0.930 . S
H1155 C1163 0.930 . S
H1156 C1166 0.930 . S
H1157 C1167 0.930 . S
C1158 H1152 0.930 . S
C1158 C1159 1.355 . S
C1158 C1160 1.415 . S
C1159 C1158 1.355 . S
C1159 C1161 1.419 1_556 S
C1160 C1158 1.415 . S
C1160 C1165 1.425 . S
C1160 C1167 1.409 . S
C1161 H1153 0.930 . S
C1161 C1159 1.419 1_554 S
C1161 C1162 1.362 . S
C1162 H1154 0.930 . S
C1162 C1161 1.362 . S
C1162 C1165 1.409 1_554 S
C1163 H1155 0.930 . S
C1163 C1164 1.355 1_554 S
C1163 C1165 1.415 1_554 S
C1164 C1163 1.355 1_556 S
C1164 C1166 1.419 . S
C1165 C1160 1.425 . S
C1165 C1162 1.409 1_556 S
C1165 C1163 1.415 1_556 S
C1166 H1156 0.930 . S
C1166 C1164 1.419 . S
C1166 C1167 1.362 . S
C1167 H1157 0.930 . S
C1167 C1160 1.409 . S
C1167 C1166 1.362 . S
H1168 C1174 0.930 . S
H1169 C1177 0.930 . S
H1170 C1178 0.930 . S
H1171 C1179 0.930 . S
H1172 C1182 0.930 . S
H1173 C1183 0.930 . S
C1174 H1168 0.930 . S
C1174 C1175 1.355 . S
C1174 C1176 1.415 . S
C1175 C1174 1.355 . S
C1175 C1177 1.419 . S
C1176 C1174 1.415 . S
C1176 C1181 1.425 . S
C1176 C1183 1.409 . S
C1177 H1169 0.930 . S
C1177 C1175 1.419 . S
C1177 C1178 1.362 . S
C1178 H1170 0.930 . S
C1178 C1177 1.362 . S
C1178 C1181 1.409 . S
C1179 H1171 0.930 . S
C1179 C1180 1.355 . S
C1179 C1181 1.415 . S
C1180 C1179 1.355 . S
C1180 C1182 1.419 . S
C1181 C1176 1.425 . S
C1181 C1178 1.409 . S
C1181 C1179 1.415 . S
C1182 H1172 0.930 . S
C1182 C1180 1.419 . S
C1182 C1183 1.362 . S
C1183 H1173 0.930 . S
C1183 C1176 1.409 . S
C1183 C1182 1.362 . S
H1184 C1190 0.930 . S
H1185 C1193 0.930 . S
H1186 C1194 0.930 . S
H1187 C1195 0.930 . S
H1188 C1198 0.930 . S
H1189 C1199 0.930 . S
C1190 H1184 0.930 . S
C1190 C1191 1.355 . S
C1190 C1192 1.415 . S
C1191 C1190 1.355 . S
C1191 C1193 1.419 . S
C1192 C1190 1.415 . S
C1192 C1197 1.425 . S
C1192 C1199 1.409 . S
C1193 H1185 0.930 . S
C1193 C1191 1.419 . S
C1193 C1194 1.362 . S
C1194 H1186 0.930 . S
C1194 C1193 1.362 . S
C1194 C1197 1.409 . S
C1195 H1187 0.930 . S
C1195 C1196 1.355 . S
C1195 C1197 1.415 . S
C1196 C1195 1.355 . S
C1196 C1198 1.419 . S
C1197 C1192 1.425 . S
C1197 C1194 1.409 . S
C1197 C1195 1.415 . S
C1198 H1188 0.930 . S
C1198 C1196 1.419 . S
C1198 C1199 1.362 . S
C1199 H1189 0.930 . S
C1199 C1192 1.409 . S
C1199 C1198 1.362 . S
H1200 C1206 0.930 . S
H1201 C1209 0.930 . S
H1202 C1210 0.930 . S
H1203 C1211 0.930 . S
H1204 C1214 0.930 . S
H1205 C1215 0.930 . S
C1206 H1200 0.930 . S
C1206 C1207 1.355 . S
C1206 C1208 1.415 . S
C1207 C1206 1.355 . S
C1207 C1209 1.419 . S
C1208 C1206 1.415 . S
C1208 C1213 1.425 . S
C1208 C1215 1.409 . S
C1209 H1201 0.930 . S
C1209 C1207 1.419 . S
C1209 C1210 1.362 . S
C1210 H1202 0.930 . S
C1210 C1209 1.362 . S
C1210 C1213 1.409 . S
C1211 H1203 0.930 . S
C1211 C1212 1.355 . S
C1211 C1213 1.415 . S
C1212 C1211 1.355 . S
C1212 C1214 1.419 . S
C1213 C1208 1.425 . S
C1213 C1210 1.409 . S
C1213 C1211 1.415 . S
C1214 H1204 0.930 . S
C1214 C1212 1.419 . S
C1214 C1215 1.362 . S
C1215 H1205 0.930 . S
C1215 C1208 1.409 . S
C1215 C1214 1.362 . S
H1216 C1222 0.930 . S
H1217 C1225 0.930 . S
H1218 C1226 0.930 . S
H1219 C1227 0.930 . S
H1220 C1230 0.930 . S
H1221 C1231 0.930 . S
C1222 H1216 0.930 . S
C1222 C1223 1.355 . S
C1222 C1224 1.415 . S
C1223 C1222 1.355 . S
C1223 C1225 1.419 . S
C1224 C1222 1.415 . S
C1224 C1229 1.425 . S
C1224 C1231 1.409 . S
C1225 H1217 0.930 . S
C1225 C1223 1.419 . S
C1225 C1226 1.362 . S
C1226 H1218 0.930 . S
C1226 C1225 1.362 . S
C1226 C1229 1.409 . S
C1227 H1219 0.930 . S
C1227 C1228 1.355 . S
C1227 C1229 1.415 . S
C1228 C1227 1.355 . S
C1228 C1230 1.419 . S
C1229 C1224 1.425 . S
C1229 C1226 1.409 . S
C1229 C1227 1.415 . S
C1230 H1220 0.930 . S
C1230 C1228 1.419 . S
C1230 C1231 1.362 . S
C1231 H1221 0.930 . S
C1231 C1224 1.409 . S
C1231 C1230 1.362 . S
H1232 C1238 0.930 . S
H1233 C1241 0.930 . S
H1234 C1242 0.930 . S
H1235 C1243 0.930 . S
H1236 C1246 0.930 . S
H1237 C1247 0.930 . S
C1238 H1232 0.930 . S
C1238 C1239 1.355 . S
C1238 C1240 1.415 . S
C1239 C1238 1.355 . S
C1239 C1241 1.419 . S
C1240 C1238 1.415 . S
C1240 C1245 1.425 . S
C1240 C1247 1.409 . S
C1241 H1233 0.930 . S
C1241 C1239 1.419 . S
C1241 C1242 1.362 . S
C1242 H1234 0.930 . S
C1242 C1241 1.362 . S
C1242 C1245 1.409 . S
C1243 H1235 0.930 . S
C1243 C1244 1.355 . S
C1243 C1245 1.415 . S
C1244 C1243 1.355 . S
C1244 C1246 1.419 . S
C1245 C1240 1.425 . S
C1245 C1242 1.409 . S
C1245 C1243 1.415 . S
C1246 H1236 0.930 . S
C1246 C1244 1.419 . S
C1246 C1247 1.362 . S
C1247 H1237 0.930 . S
C1247 C1240 1.409 . S
C1247 C1246 1.362 . S
C487 C1 1.223 . S
C492 C46 1.188 . S
C503 C61 0.778 . S
C508 N44 0.745 . S
C519 N104 0.473 . S
C524 N66 0.402 . S
C535 N6 0.788 . S
C540 C106 0.804 . S
C551 N14 0.779 . S
C556 C297 0.794 . S
C567 C220 1.218 . S
C572 C57 1.190 . S
C583 C70 0.757 . S
C588 N306 0.757 . S
C599 N96 0.347 . S
C604 N404 0.374 . S
C615 C250 0.646 . S
C620 N36 0.670 . S
C631 N366 0.455 . S
C636 N74 0.414 . S
C647 N434 0.714 . S
C652 C117 0.706 . S
C663 C10 1.149 . S
C668 C357 1.220 . S
C679 C27 1.231 . S
C684 C256 1.233 . S
C695 C361 1.213 . S
C700 C130 1.299 . S
C711 C177 1.204 . S
C716 C436 1.239 . S
C727 C340 1.294 . S
C732 C181 1.241 . S
C743 C87 1.197 . S
C748 C226 1.241 . S
C759 C280 1.256 . S
C764 C121 1.293 . S
C775 C190 1.213 . S
C780 C301 1.298 . S
C791 C160 0.646 . S
C796 N336 0.672 . S
C807 N276 0.314 . S
C812 N164 0.297 . S
C823 C346 1.231 . S
C828 C211 1.169 . S
C839 C151 0.650 . S
C844 N134 0.681 . S
C855 N284 0.414 . S
C860 N246 0.328 . S
C871 C391 0.792 . S
C876 N344 0.771 . S
C887 N194 0.311 . S
C892 N156 0.341 . S
C903 C286 0.715 . S
C908 N426 0.716 . S
C919 C417 1.249 . S
C924 C16 1.241 . S
C935 C76 1.229 . S
C940 C447 1.229 . S
C951 C370 1.251 . S
C956 C31 1.293 . S
C967 C237 1.248 . S
C972 C166 1.194 . S
C983 C91 1.281 . S
C988 C310 1.270 . S
C999 N374 0.328 . S
C1004 N396 0.291 . S
C1015 N216 0.777 . S
C1020 C376 0.769 . S
C1031 C207 0.785 . S
C1036 N224 0.759 . S
C1047 N126 0.672 . S
C1052 C400 0.672 . S
C1063 C387 0.779 . S
C1068 N464 0.753 . S
C1079 C466 1.232 . S
C1084 C267 1.222 . S
C1095 C40 1.271 . S
C1100 C271 1.283 . S
C1111 N254 0.414 . S
C1116 N186 0.458 . S
C1127 C241 0.777 . S
C1132 N314 0.767 . S
C1143 N456 0.759 . S
C1148 C196 0.786 . S
C1159 C406 1.192 . S
C1164 C477 1.248 . S
C1175 C331 1.299 . S
C1180 C100 1.223 . S
C1191 C316 1.212 . S
C1196 C421 1.149 . S
C1207 C327 1.230 . S
C1212 C460 1.159 . S
C1223 C147 1.230 . S
C1228 C430 1.157 . S
C1239 C451 1.194 . S
C1244 C136 1.186 . S
