# Generated by pormake.
# Topology unm, (4)-cn, num edge types: 1
# Building blocks:
#     Node 0, Type 0, BuildingBlock: AZAVOO_clean_sbu_0, # of connection points: 4
#     Node 1, Type 0, BuildingBlock: AZAVOO_clean_sbu_0, # of connection points: 4
#     Node 2, Type 0, BuildingBlock: AZAVOO_clean_sbu_0, # of connection points: 4
#     Node 3, Type 0, BuildingBlock: AZAVOO_clean_sbu_0, # of connection points: 4
#     Node 4, Type 0, BuildingBlock: AZAVOO_clean_sbu_0, # of connection points: 4
#     Node 5, Type 0, BuildingBlock: AZAVOO_clean_sbu_0, # of connection points: 4
#     Node 6, Type 0, BuildingBlock: AZAVOO_clean_sbu_0, # of connection points: 4
#     Node 7, Type 0, BuildingBlock: AZAVOO_clean_sbu_0, # of connection points: 4
#     Edge 8, Type (0, 0), BuildingBlock: MIFKUJ_clean_linker_0, # of connection points: 2
#     Edge 9, Type (0, 0), BuildingBlock: MIFKUJ_clean_linker_0, # of connection points: 2
#     Edge 10, Type (0, 0), BuildingBlock: MIFKUJ_clean_linker_0, # of connection points: 2
#     Edge 11, Type (0, 0), BuildingBlock: MIFKUJ_clean_linker_0, # of connection points: 2
#     Edge 12, Type (0, 0), BuildingBlock: MIFKUJ_clean_linker_0, # of connection points: 2
#     Edge 13, Type (0, 0), BuildingBlock: MIFKUJ_clean_linker_0, # of connection points: 2
#     Edge 14, Type (0, 0), BuildingBlock: MIFKUJ_clean_linker_0, # of connection points: 2
#     Edge 15, Type (0, 0), BuildingBlock: MIFKUJ_clean_linker_0, # of connection points: 2
#     Edge 16, Type (0, 0), BuildingBlock: MIFKUJ_clean_linker_0, # of connection points: 2
#     Edge 17, Type (0, 0), BuildingBlock: MIFKUJ_clean_linker_0, # of connection points: 2
#     Edge 18, Type (0, 0), BuildingBlock: MIFKUJ_clean_linker_0, # of connection points: 2
#     Edge 19, Type (0, 0), BuildingBlock: MIFKUJ_clean_linker_0, # of connection points: 2
#     Edge 20, Type (0, 0), BuildingBlock: MIFKUJ_clean_linker_0, # of connection points: 2
#     Edge 21, Type (0, 0), BuildingBlock: MIFKUJ_clean_linker_0, # of connection points: 2
#     Edge 22, Type (0, 0), BuildingBlock: MIFKUJ_clean_linker_0, # of connection points: 2
#     Edge 23, Type (0, 0), BuildingBlock: MIFKUJ_clean_linker_0, # of connection points: 2
# Relax obj value: 0.175
# Max RMSD: 0.157
# Mean RMSD: 0.157
data_MOF--net-unm--node1-AZAVOO_clean_sbu_0--edge1-MIFKUJ_clean_linker_0
_symmetry_space_group_name_H-M    P1
_symmetry_Int_Tables_number       1
_symmetry_cell_setting            triclinic
loop_
_symmetry_equiv_pos_as_xyz
'x, y, z'
_cell_length_a     33.428196
_cell_length_b     33.488604
_cell_length_c     55.903463
_cell_angle_alpha  90.139671
_cell_angle_beta   89.809978
_cell_angle_gamma 90.030519
loop_
_atom_site_label
_atom_site_type_symbol
_atom_site_fract_x
_atom_site_fract_y
_atom_site_fract_z
_atom_type_partial_charge
Mg0 Mg 0.03723 0.20675 0.14678 0.0
O1 O 0.03509 0.27069 0.1323 0.0
O2 O 0.08713 0.28073 0.10787 0.0
Mg3 Mg 0.12532 0.22408 0.1088 0.0
C4 C 0.05519 0.29286 0.11812 0.0
C5 C 0.95352 0.20013 0.16805 0.0
O6 O 0.95479 0.17165 0.15188 0.0
O7 O 0.08504 0.22616 0.17385 0.0
O8 O 0.1365 0.23509 0.14866 0.0
O9 O 0.00771 0.18391 0.11339 0.0
O10 O 0.07304 0.18824 0.11839 0.0
C11 C 0.12159 0.23543 0.16975 0.0
C12 C 0.0434 0.1795 0.10481 0.0
O13 O 0.98471 0.22113 0.17155 0.0
Mg14 Mg 0.32181 0.54871 0.64301 0.0
O15 O 0.26107 0.5473 0.62419 0.0
O16 O 0.2536 0.60213 0.60202 0.0
Mg17 Mg 0.31231 0.63736 0.60506 0.0
C18 C 0.2404 0.56914 0.61027 0.0
C19 C 0.28932 0.46563 0.65523 0.0
O20 O 0.28623 0.46665 0.63182 0.0
O21 O 0.29802 0.5966 0.66902 0.0
O22 O 0.29668 0.64902 0.64427 0.0
O23 O 0.35141 0.51896 0.61168 0.0
O24 O 0.34582 0.58426 0.6163 0.0
C25 C 0.29184 0.63373 0.665 0.0
C26 C 0.35769 0.55456 0.60354 0.0
O27 O 0.30214 0.4964 0.66619 0.0
Mg28 Mg 0.9672 0.79931 0.12999 0.0
O29 O 0.97174 0.73314 0.1196 0.0
O30 O 0.92727 0.72055 0.09066 0.0
Mg31 Mg 0.89296 0.77839 0.08317 0.0
C32 C 0.95497 0.70933 0.10482 0.0
C33 C 0.03982 0.81146 0.16116 0.0
O34 O 0.04252 0.83913 0.14462 0.0
O35 O 0.91017 0.78506 0.1512 0.0
O36 O 0.86676 0.77686 0.12113 0.0
O37 O 0.00938 0.81735 0.10045 0.0
O38 O 0.94381 0.81214 0.09669 0.0
C39 C 0.8747 0.77888 0.14346 0.0
C40 C 0.97804 0.81873 0.08703 0.0
O41 O 0.00907 0.78908 0.1615 0.0
Mg42 Mg 0.74213 0.46213 0.64267 0.0
O43 O 0.80512 0.46966 0.62638 0.0
O44 O 0.81819 0.41486 0.60486 0.0
Mg45 Mg 0.76262 0.375 0.60478 0.0
C46 C 0.82864 0.44869 0.61337 0.0
C47 C 0.72291 0.52646 0.67964 0.0
O48 O 0.68939 0.50602 0.6785 0.0
O49 O 0.76554 0.41541 0.66903 0.0
O50 O 0.77235 0.36272 0.64464 0.0
O51 O 0.71198 0.4907 0.61136 0.0
O52 O 0.72511 0.42627 0.61432 0.0
C53 C 0.77346 0.3785 0.66547 0.0
C54 C 0.71059 0.45527 0.60211 0.0
O55 O 0.75297 0.51436 0.66772 0.0
Mg56 Mg 0.53598 0.28183 0.34809 0.0
O57 O 0.53519 0.21581 0.35904 0.0
O58 O 0.59242 0.20304 0.37811 0.0
Mg59 Mg 0.62645 0.26201 0.38289 0.0
C60 C 0.55902 0.19165 0.3694 0.0
C61 C 0.45212 0.25692 0.33074 0.0
O62 O 0.45027 0.24778 0.35356 0.0
O63 O 0.58395 0.26827 0.31957 0.0
O64 O 0.63835 0.26397 0.34271 0.0
O65 O 0.50543 0.30069 0.38211 0.0
O66 O 0.57081 0.29564 0.37768 0.0
C67 C 0.62183 0.2651 0.32216 0.0
C68 C 0.54075 0.30313 0.3914 0.0
O69 O 0.4846 0.27086 0.32228 0.0
Mg70 Mg 0.18874 0.05061 0.82849 0.0
O71 O 0.24866 0.04962 0.8485 0.0
O72 O 0.25523 0.10567 0.86984 0.0
Mg73 Mg 0.1986 0.14253 0.86393 0.0
C74 C 0.2686 0.07204 0.86261 0.0
C75 C 0.21629 0.96453 0.81842 0.0
O76 O 0.21278 0.96478 0.84183 0.0
O77 O 0.21495 0.09548 0.80171 0.0
O78 O 0.21817 0.14997 0.82497 0.0
O79 O 0.157 0.02434 0.8601 0.0
O80 O 0.16457 0.08897 0.8539 0.0
C81 C 0.22324 0.13243 0.80486 0.0
C82 C 0.15193 0.06067 0.86744 0.0
O83 O 0.20907 0.99645 0.8069 0.0
Mg84 Mg 0.46394 0.69341 0.32726 0.0
O85 O 0.46895 0.75533 0.34438 0.0
O86 O 0.41921 0.76291 0.37078 0.0
Mg87 Mg 0.38454 0.70367 0.37237 0.0
C88 C 0.4498 0.77632 0.35966 0.0
C89 C 0.54522 0.70202 0.30221 0.0
O90 O 0.55359 0.68106 0.32135 0.0
O91 O 0.40947 0.7144 0.30553 0.0
O92 O 0.36269 0.71497 0.33432 0.0
O93 O 0.50138 0.66748 0.35674 0.0
O94 O 0.43548 0.67069 0.35747 0.0
C95 C 0.37317 0.71884 0.31245 0.0
C96 C 0.46817 0.66116 0.36797 0.0
O97 O 0.50917 0.71252 0.29861 0.0
Mg98 Mg 0.76253 0.9622 0.83982 0.0
O99 O 0.70095 0.97032 0.85763 0.0
O100 O 0.68741 0.9153 0.87872 0.0
Mg101 Mg 0.74196 0.87435 0.87686 0.0
C102 C 0.67764 0.94965 0.87085 0.0
C103 C 0.74206 0.04876 0.82467 0.0
O104 O 0.7375 0.05139 0.84798 0.0
O105 O 0.73637 0.9169 0.81344 0.0
O106 O 0.7277 0.86384 0.8373 0.0
O107 O 0.79441 0.98868 0.8712 0.0
O108 O 0.78089 0.92456 0.86687 0.0
C109 C 0.72613 0.88053 0.81679 0.0
C110 C 0.7965 0.95266 0.87947 0.0
O111 O 0.75076 0.01512 0.81543 0.0
H112 H 0.99388 0.18555 0.06597 0.0
H113 H 0.00833 0.16362 0.02492 0.0
H114 H 0.123 0.11864 0.04786 0.0
H115 H 0.10964 0.14247 0.08826 0.0
H116 H 0.13308 0.15534 0.00886 0.0
H117 H 0.03598 0.05755 0.03613 0.0
H118 H 0.97047 0.03861 0.05308 0.0
H119 H 0.91096 0.09253 -0.00664 0.0
H120 H 0.9761 0.11236 0.97625 0.0
H121 H 0.13339 0.0085 0.9036 0.0
H122 H 0.10936 0.02555 0.94392 0.0
H123 H 0.10758 0.15022 0.92483 0.0
H124 H 0.13105 0.13365 0.88475 0.0
H125 H 0.04081 0.06997 0.96172 0.0
H126 H 0.15346 0.19958 0.97051 0.0
H127 H 0.2192 0.21935 0.95416 0.0
H128 H 0.24985 0.09608 0.94343 0.0
H129 H 0.18464 0.07559 0.96011 0.0
C130 C 0.02209 0.17096 0.06213 0.0
C131 C 0.0507 0.16575 0.08017 0.0
C132 C 0.03026 0.15822 0.03875 0.0
C133 C 0.06658 0.13895 0.03333 0.0
C134 C 0.09486 0.13353 0.05152 0.0
C135 C 0.08717 0.14711 0.07462 0.0
C136 C 0.07606 0.1251 0.00872 0.0
C137 C 0.11284 0.13659 -0.00134 0.0
C138 C 0.04985 0.10044 -0.00466 0.0
C139 C 0.01087 0.08677 0.00505 0.0
C140 C 0.0089 0.06544 0.02665 0.0
C141 C 0.97184 0.05464 0.03631 0.0
C142 C 0.93656 0.06469 0.0244 0.0
C143 C 0.9383 0.085 0.00263 0.0
C144 C 0.97528 0.09598 -0.00707 0.0
C145 C 0.1275 0.03947 0.90797 0.0
C146 C 0.13491 0.06982 0.8912 0.0
C147 C 0.11359 0.0491 0.93091 0.0
C148 C 0.10717 0.08913 0.9373 0.0
C149 C 0.11281 0.11919 0.92024 0.0
C150 C 0.12653 0.10965 0.89741 0.0
C151 C 0.09764 0.1002 0.96223 0.0
C152 C 0.06095 0.08844 0.97216 0.0
C153 C 0.12415 0.12413 0.97572 0.0
C154 C 0.16399 0.13611 0.96635 0.0
C155 C 0.17433 0.17671 0.9648 0.0
C156 C 0.21149 0.18803 0.95546 0.0
C157 C 0.23863 0.15899 0.94769 0.0
C158 C 0.22876 0.11855 0.94938 0.0
C159 C 0.19169 0.10707 0.95876 0.0
H160 H 0.26733 0.16783 0.94041 0.0
H161 H 0.90786 0.05655 0.03196 0.0
H162 H 0.39818 0.6207 0.59011 0.0
H163 H 0.42897 0.63455 0.55145 0.0
H164 H 0.39145 0.51891 0.52561 0.0
H165 H 0.36218 0.50406 0.56496 0.0
H166 H 0.46226 0.53662 0.50735 0.0
H167 H 0.33664 0.60396 0.51429 0.0
H168 H 0.28587 0.64749 0.533 0.0
H169 H 0.36605 0.7474 0.52822 0.0
H170 H 0.41755 0.70428 0.50981 0.0
H171 H 0.41159 0.61307 0.38674 0.0
H172 H 0.40618 0.58957 0.42801 0.0
H173 H 0.51519 0.65159 0.44583 0.0
H174 H 0.52194 0.67358 0.40402 0.0
H175 H 0.41583 0.66133 0.46854 0.0
H176 H 0.54148 0.58693 0.45885 0.0
H177 H 0.58568 0.53906 0.43818 0.0
H178 H 0.4962 0.44774 0.44497 0.0
H179 H 0.45119 0.49535 0.46539 0.0
C180 C 0.39666 0.59812 0.57623 0.0
C181 C 0.37724 0.56158 0.58031 0.0
C182 C 0.4143 0.60605 0.55416 0.0
C183 C 0.41171 0.57815 0.53547 0.0
C184 C 0.39367 0.54093 0.53977 0.0
C185 C 0.37675 0.53257 0.56214 0.0
C186 C 0.42539 0.58912 0.51112 0.0
C187 C 0.45208 0.56387 0.49887 0.0
C188 C 0.41213 0.62471 0.50001 0.0
C189 C 0.3811 0.6508 0.51091 0.0
C190 C 0.34354 0.63515 0.51738 0.0
C191 C 0.31463 0.65975 0.52792 0.0
C192 C 0.32277 0.70016 0.53185 0.0
C193 C 0.35981 0.71607 0.5252 0.0
C194 C 0.38887 0.69158 0.51471 0.0
C195 C 0.43483 0.62099 0.39936 0.0
C196 C 0.46715 0.64508 0.39237 0.0
C197 C 0.43185 0.60735 0.4228 0.0
C198 C 0.46071 0.61822 0.4397 0.0
C199 C 0.4933 0.64201 0.43278 0.0
C200 C 0.49695 0.65475 0.40905 0.0
C201 C 0.45301 0.60925 0.46505 0.0
C202 C 0.42675 0.63462 0.47733 0.0
C203 C 0.4659 0.57342 0.47582 0.0
C204 C 0.49262 0.54499 0.46316 0.0
C205 C 0.53083 0.55695 0.45543 0.0
C206 C 0.55617 0.52976 0.44392 0.0
C207 C 0.54361 0.49048 0.44007 0.0
C208 C 0.50579 0.47825 0.44785 0.0
C209 C 0.48041 0.5053 0.45944 0.0
H210 H 0.56331 0.46943 0.43122 0.0
H211 H 0.30035 0.71915 0.54001 0.0
H212 H 0.01188 0.88464 0.06774 0.0
H213 H 0.99648 0.91208 0.02814 0.0
H214 H 0.93274 0.80414 0.01017 0.0
H215 H 0.94716 0.77719 0.04987 0.0
H216 H 0.97619 0.84706 0.96969 0.0
H217 H 0.87681 0.86242 0.03429 0.0
H218 H 0.85958 0.8814 0.07574 0.0
H219 H 0.90463 0.99968 0.06341 0.0
H220 H 0.92279 0.98089 0.02189 0.0
H221 H 0.80951 0.87918 0.89855 0.0
H222 H 0.85377 0.86201 0.93137 0.0
H223 H 0.88063 0.98667 0.94244 0.0
H224 H 0.83577 0.00438 0.90944 0.0
H225 H 0.86755 0.94529 0.98474 0.0
H226 H 0.94843 0.93141 0.91497 0.0
H227 H 0.96517 0.90956 0.87401 0.0
H228 H 0.95561 0.78692 0.89552 0.0
H229 H 0.93821 0.80802 0.93655 0.0
C230 C 0.9961 0.86622 0.0549 0.0
C231 C 0.98031 0.82911 0.06167 0.0
C232 C 0.98733 0.88186 0.03238 0.0
C233 C 0.96335 0.8601 0.01642 0.0
C234 C 0.95146 0.82118 0.02225 0.0
C235 C 0.95946 0.80595 0.04492 0.0
C236 C 0.94362 0.88034 -0.00371 0.0
C237 C 0.9526 0.86869 0.97283 0.0
C238 C 0.91324 0.90882 0.00058 0.0
C239 C 0.90135 0.92034 0.02517 0.0
C240 C 0.88319 0.89241 0.04048 0.0
C241 C 0.87328 0.90309 0.06395 0.0
C242 C 0.88106 0.94174 0.0722 0.0
C243 C 0.89867 0.96978 0.05697 0.0
C244 C 0.90875 0.95917 0.0335 0.0
C245 C 0.82428 0.90311 0.90811 0.0
C246 C 0.81913 0.94318 0.90136 0.0
C247 C 0.84994 0.89317 0.92673 0.0
C248 C 0.87113 0.92301 0.93891 0.0
C249 C 0.8648 0.96322 0.93302 0.0
C250 C 0.83909 0.97325 0.91426 0.0
C251 C 0.89956 0.91164 0.9579 0.0
C252 C 0.89195 0.92467 0.98131 0.0
C253 C 0.93107 0.88425 0.95347 0.0
C254 C 0.94179 0.87134 0.92883 0.0
C255 C 0.94962 0.89978 0.91094 0.0
C256 C 0.95927 0.88753 0.88771 0.0
C257 C 0.9614 0.84688 0.88216 0.0
C258 C 0.95396 0.8184 0.89985 0.0
C259 C 0.94426 0.8305 0.92311 0.0
H260 H 0.96887 0.83745 0.86416 0.0
H261 H 0.87339 0.94997 0.09038 0.0
H262 H 0.60643 0.29048 0.41906 0.0
H263 H 0.62028 0.31759 0.45833 0.0
H264 H 0.5033 0.37183 0.46038 0.0
H265 H 0.48914 0.34455 0.4204 0.0
H266 H 0.56374 0.42467 0.47198 0.0
H267 H 0.52105 0.29808 0.49828 0.0
H268 H 0.51484 0.22473 0.49837 0.0
H269 H 0.64067 0.21357 0.51196 0.0
H270 H 0.64781 0.28683 0.51159 0.0
H271 H 0.64119 0.48869 0.58701 0.0
H272 H 0.59873 0.46495 0.55433 0.0
H273 H 0.69007 0.38011 0.53399 0.0
H274 H 0.73139 0.40242 0.56736 0.0
H275 H 0.62199 0.34383 0.53734 0.0
H276 H 0.66355 0.47066 0.49819 0.0
H277 H 0.66895 0.54423 0.49805 0.0
H278 H 0.54263 0.55411 0.51088 0.0
H279 H 0.53637 0.48064 0.51051 0.0
C280 C 0.58336 0.30768 0.4278 0.0
C281 C 0.54675 0.3154 0.41652 0.0
C282 C 0.59123 0.32301 0.45043 0.0
C283 C 0.56268 0.34641 0.46237 0.0
C284 C 0.52562 0.35362 0.45147 0.0
C285 C 0.51754 0.33785 0.42875 0.0
C286 C 0.57363 0.36528 0.48538 0.0
C287 C 0.57556 0.40709 0.48658 0.0
C288 C 0.58903 0.34226 0.50439 0.0
C289 C 0.58495 0.29806 0.50485 0.0
C290 C 0.54746 0.28 0.50116 0.0
C291 C 0.54377 0.23842 0.50127 0.0
C292 C 0.57734 0.21451 0.50516 0.0
C293 C 0.61467 0.23214 0.50898 0.0
C294 C 0.61854 0.27371 0.50887 0.0
C295 C 0.65245 0.46563 0.57516 0.0
C296 C 0.68941 0.44722 0.57963 0.0
C297 C 0.62818 0.45205 0.55649 0.0
C298 C 0.64113 0.42068 0.54164 0.0
C299 C 0.67918 0.40402 0.54537 0.0
C300 C 0.70291 0.41687 0.56433 0.0
C301 C 0.61471 0.40314 0.52309 0.0
C302 C 0.60946 0.36152 0.52296 0.0
C303 C 0.59606 0.42633 0.50518 0.0
C304 C 0.59959 0.47033 0.50452 0.0
C305 C 0.63695 0.4886 0.5009 0.0
C306 C 0.64012 0.53024 0.50083 0.0
C307 C 0.60613 0.55381 0.50445 0.0
C308 C 0.56888 0.5358 0.50803 0.0
C309 C 0.56546 0.4942 0.50778 0.0
H310 H 0.60865 0.58603 0.50448 0.0
H311 H 0.57442 0.18232 0.50522 0.0
H312 H 0.11418 0.21477 0.21723 0.0
H313 H 0.16637 0.21979 0.24796 0.0
H314 H 0.24329 0.28066 0.19779 0.0
H315 H 0.19188 0.27569 0.16724 0.0
H316 H 0.2787 0.21519 0.21694 0.0
H317 H 0.20359 0.32963 0.24463 0.0
H318 H 0.14358 0.36473 0.25946 0.0
H319 H 0.13865 0.28685 0.32031 0.0
H320 H 0.19835 0.25091 0.30565 0.0
H321 H 0.44343 0.2801 0.28418 0.0
H322 H 0.38321 0.2764 0.2597 0.0
H323 H 0.31918 0.22174 0.31823 0.0
H324 H 0.37918 0.22603 0.34304 0.0
H325 H 0.27423 0.27812 0.2973 0.0
H326 H 0.35053 0.16566 0.27104 0.0
H327 H 0.41026 0.12975 0.2565 0.0
H328 H 0.41197 0.2019 0.19312 0.0
H329 H 0.35255 0.23863 0.20743 0.0
C330 C 0.14188 0.23 0.21297 0.0
C331 C 0.14913 0.24433 0.18973 0.0
C332 C 0.17166 0.2328 0.23051 0.0
C333 C 0.20882 0.25025 0.22503 0.0
C334 C 0.21501 0.26669 0.2023 0.0
C335 C 0.18552 0.26383 0.18486 0.0
C336 C 0.24275 0.24863 0.24199 0.0
C337 C 0.27785 0.22931 0.23443 0.0
C338 C 0.24107 0.26574 0.26511 0.0
C339 C 0.20515 0.28727 0.27389 0.0
C340 C 0.18948 0.31973 0.26105 0.0
C341 C 0.15558 0.33984 0.26945 0.0
C342 C 0.13723 0.32794 0.29077 0.0
C343 C 0.15284 0.29598 0.30377 0.0
C344 C 0.18672 0.27575 0.29543 0.0
C345 C 0.41663 0.2671 0.29183 0.0
C346 C 0.41616 0.2532 0.31553 0.0
C347 C 0.38222 0.26495 0.2778 0.0
C348 C 0.3468 0.24839 0.28706 0.0
C349 C 0.34618 0.23461 0.31073 0.0
C350 C 0.38056 0.23692 0.32483 0.0
C351 C 0.31052 0.24563 0.27194 0.0
C352 C 0.27497 0.26381 0.27988 0.0
C353 C 0.3116 0.22727 0.24914 0.0
C354 C 0.34726 0.20511 0.24041 0.0
C355 C 0.3638 0.17406 0.25408 0.0
C356 C 0.39758 0.15353 0.24587 0.0
C357 C 0.41494 0.16359 0.22392 0.0
C358 C 0.3985 0.19415 0.21012 0.0
C359 C 0.36475 0.21481 0.21826 0.0
H360 H 0.4411 0.14766 0.2176 0.0
H361 H 0.111 0.34356 0.29725 0.0
H362 H 0.2677 0.71084 0.66101 0.0
H363 H 0.25729 0.75931 0.69271 0.0
H364 H 0.27964 0.66881 0.7457 0.0
H365 H 0.29069 0.61928 0.7137 0.0
H366 H 0.21141 0.72612 0.75501 0.0
H367 H 0.35161 0.7238 0.73877 0.0
H368 H 0.41178 0.72196 0.71317 0.0
H369 H 0.37921 0.83454 0.68224 0.0
H370 H 0.31848 0.83676 0.70739 0.0
H371 H 0.22688 0.89032 0.83767 0.0
H372 H 0.24183 0.82805 0.81653 0.0
H373 H 0.24398 0.89156 0.7495 0.0
H374 H 0.22924 0.954 0.77048 0.0
H375 H 0.30673 0.83987 0.75371 0.0
H376 H 0.16312 0.83763 0.76581 0.0
H377 H 0.1014 0.83934 0.79007 0.0
H378 H 0.13988 0.73534 0.82842 0.0
H379 H 0.20212 0.73334 0.80456 0.0
C380 C 0.27019 0.70084 0.67934 0.0
C381 C 0.28065 0.66117 0.68477 0.0
C382 C 0.26414 0.7287 0.69746 0.0
C383 C 0.26829 0.71771 0.72145 0.0
C384 C 0.27651 0.67776 0.7272 0.0
C385 C 0.28281 0.64961 0.70893 0.0
C386 C 0.26606 0.7492 0.73999 0.0
C387 C 0.23275 0.75054 0.75525 0.0
C388 C 0.29363 0.78125 0.73991 0.0
C389 C 0.33034 0.78031 0.72488 0.0
C390 C 0.35711 0.74803 0.72638 0.0
C391 C 0.39135 0.74694 0.71197 0.0
C392 C 0.39928 0.77809 0.69606 0.0
C393 C 0.37303 0.81043 0.69457 0.0
C394 C 0.33871 0.81165 0.70893 0.0
C395 C 0.23068 0.8911 0.81843 0.0
C396 C 0.22673 0.92712 0.80572 0.0
C397 C 0.23907 0.85543 0.80639 0.0
C398 C 0.24367 0.85515 0.78145 0.0
C399 C 0.24053 0.89116 0.76878 0.0
C400 C 0.23199 0.9268 0.78078 0.0
C401 C 0.25146 0.81743 0.76833 0.0
C402 C 0.28587 0.81504 0.75399 0.0
C403 C 0.22489 0.78449 0.76933 0.0
C404 C 0.18748 0.78564 0.78362 0.0
C405 C 0.15858 0.81534 0.77956 0.0
C406 C 0.12347 0.81632 0.79321 0.0
C407 C 0.11678 0.78755 0.81084 0.0
C408 C 0.14514 0.75766 0.8148 0.0
C409 C 0.18032 0.75658 0.80121 0.0
H410 H 0.08958 0.78835 0.82138 0.0
H411 H 0.4258 0.77719 0.68492 0.0
H412 H 0.62506 0.69129 0.30862 0.0
H413 H 0.67934 0.70854 0.28138 0.0
H414 H 0.59415 0.75472 0.23073 0.0
H415 H 0.53914 0.73754 0.25809 0.0
H416 H 0.65276 0.70307 0.21066 0.0
H417 H 0.64587 0.81792 0.26184 0.0
H418 H 0.64329 0.85228 0.30084 0.0
H419 H 0.75932 0.80626 0.31841 0.0
H420 H 0.76217 0.77061 0.27979 0.0
H421 H 0.79557 0.78875 0.13422 0.0
H422 H 0.7393 0.77955 0.16134 0.0
H423 H 0.82053 0.749 0.21826 0.0
H424 H 0.87754 0.7595 0.1912 0.0
H425 H 0.76211 0.79488 0.23484 0.0
H426 H 0.76836 0.67659 0.18668 0.0
H427 H 0.77162 0.63763 0.14923 0.0
H428 H 0.65866 0.68613 0.12737 0.0
H429 H 0.65498 0.72582 0.16456 0.0
C430 C 0.6177 0.70518 0.29172 0.0
C431 C 0.57774 0.71309 0.28551 0.0
C432 C 0.64884 0.71514 0.27622 0.0
C433 C 0.64073 0.73319 0.25418 0.0
C434 C 0.60091 0.74088 0.24774 0.0
C435 C 0.5696 0.73116 0.26338 0.0
C436 C 0.67412 0.74328 0.23784 0.0
C437 C 0.67633 0.7237 0.21571 0.0
C438 C 0.7054 0.7692 0.2449 0.0
C439 C 0.70409 0.7913 0.26796 0.0
C440 C 0.67072 0.81485 0.27408 0.0
C441 C 0.66922 0.83461 0.29612 0.0
C442 C 0.70112 0.83151 0.31208 0.0
C443 C 0.73462 0.80864 0.30603 0.0
C444 C 0.73619 0.78862 0.28407 0.0
C445 C 0.8016 0.78006 0.15251 0.0
C446 C 0.84105 0.77438 0.1605 0.0
C447 C 0.76931 0.77472 0.16799 0.0
C448 C 0.7756 0.76272 0.19169 0.0
C449 C 0.81498 0.75806 0.19998 0.0
C450 C 0.8475 0.76398 0.18452 0.0
C451 C 0.74091 0.75457 0.20759 0.0
C452 C 0.73846 0.77444 0.22967 0.0
C453 C 0.70959 0.7285 0.20063 0.0
C454 C 0.71159 0.70447 0.17831 0.0
C455 C 0.74435 0.67916 0.17381 0.0
C456 C 0.74626 0.65692 0.15264 0.0
C457 C 0.71542 0.65948 0.13591 0.0
C458 C 0.68255 0.68421 0.14034 0.0
C459 C 0.68052 0.70656 0.16147 0.0
H460 H 0.71695 0.64224 0.11953 0.0
H461 H 0.6999 0.84685 0.32913 0.0
H462 H 0.80692 0.3045 0.66478 0.0
H463 H 0.80234 0.25379 0.69582 0.0
H464 H 0.74781 0.33917 0.74366 0.0
H465 H 0.75227 0.39056 0.71251 0.0
H466 H 0.80233 0.28192 0.76618 0.0
H467 H 0.687 0.28551 0.71512 0.0
H468 H 0.65245 0.28768 0.67624 0.0
H469 H 0.70546 0.17556 0.65645 0.0
H470 H 0.74087 0.17304 0.69508 0.0
H471 H 0.72284 0.12488 0.83846 0.0
H472 H 0.72747 0.18576 0.81449 0.0
H473 H 0.7658 0.11607 0.75358 0.0
H474 H 0.7604 0.05515 0.77719 0.0
H475 H 0.71398 0.17081 0.74025 0.0
H476 H 0.83263 0.1686 0.78933 0.0
H477 H 0.86971 0.16617 0.82736 0.0
H478 H 0.81255 0.27448 0.85046 0.0
H479 H 0.77473 0.27726 0.81266 0.0
C480 C 0.79474 0.31288 0.68206 0.0
C481 C 0.77931 0.3514 0.68604 0.0
C482 C 0.79217 0.28382 0.69977 0.0
C483 C 0.77399 0.2926 0.72179 0.0
C484 C 0.76175 0.33186 0.72668 0.0
C485 C 0.76438 0.36116 0.70889 0.0
C486 C 0.76404 0.2596 0.73833 0.0
C487 C 0.7825 0.25791 0.76077 0.0
C488 C 0.73854 0.22814 0.73103 0.0
C489 C 0.71682 0.22926 0.70792 0.0
C490 C 0.69151 0.26146 0.70241 0.0
C491 C 0.67175 0.26273 0.68042 0.0
C492 C 0.67682 0.23182 0.66387 0.0
C493 C 0.70159 0.1995 0.66929 0.0
C494 C 0.72148 0.19812 0.69123 0.0
C495 C 0.73194 0.12249 0.8199 0.0
C496 C 0.7415 0.08519 0.80976 0.0
C497 C 0.7348 0.15735 0.80628 0.0
C498 C 0.74766 0.15556 0.78236 0.0
C499 C 0.75594 0.11821 0.77202 0.0
C500 C 0.75285 0.08337 0.78556 0.0
C501 C 0.75303 0.1924 0.76801 0.0
C502 C 0.73351 0.19493 0.7459 0.0
C503 C 0.77769 0.22443 0.77563 0.0
C504 C 0.80053 0.22289 0.7983 0.0
C505 C 0.82774 0.19173 0.8026 0.0
C506 C 0.84893 0.19032 0.8241 0.0
C507 C 0.8434 0.22008 0.84135 0.0
C508 C 0.81675 0.2514 0.8371 0.0
C509 C 0.79545 0.25292 0.81564 0.0
H510 H 0.85983 0.21894 0.85799 0.0
H511 H 0.6615 0.23286 0.64685 0.0
H512 H 0.69605 0.29624 0.3187 0.0
H513 H 0.744 0.28847 0.28614 0.0
H514 H 0.65703 0.22153 0.24567 0.0
H515 H 0.60811 0.22991 0.27842 0.0
H516 H 0.7332 0.18332 0.25179 0.0
H517 H 0.68148 0.30689 0.22413 0.0
H518 H 0.65842 0.37663 0.2271 0.0
H519 H 0.77559 0.4135 0.24938 0.0
H520 H 0.79924 0.34387 0.2469 0.0
H521 H 0.88067 0.16583 0.16051 0.0
H522 H 0.81801 0.1793 0.18144 0.0
H523 H 0.87789 0.26569 0.22615 0.0
H524 H 0.94075 0.25304 0.20483 0.0
H525 H 0.80704 0.29345 0.21205 0.0
H526 H 0.8556 0.17061 0.24608 0.0
H527 H 0.87964 0.10101 0.24532 0.0
H528 H 0.76938 0.06311 0.21324 0.0
H529 H 0.74489 0.13263 0.21354 0.0
C530 C 0.68687 0.28031 0.30274 0.0
C531 C 0.64847 0.26346 0.30109 0.0
C532 C 0.71423 0.27611 0.2841 0.0
C533 C 0.70398 0.25462 0.26348 0.0
C534 C 0.66534 0.23842 0.26144 0.0
C535 C 0.63748 0.24329 0.28005 0.0
C536 C 0.73527 0.24661 0.24532 0.0
C537 C 0.74873 0.20723 0.24255 0.0
C538 C 0.75612 0.27804 0.23391 0.0
C539 C 0.74207 0.32004 0.23546 0.0
C540 C 0.70226 0.3298 0.22986 0.0
C541 C 0.6891 0.36933 0.23141 0.0
C542 C 0.7155 0.39947 0.23846 0.0
C543 C 0.75516 0.39012 0.24392 0.0
C544 C 0.76848 0.35062 0.24241 0.0
C545 C 0.88062 0.18768 0.17482 0.0
C546 C 0.9158 0.2082 0.18112 0.0
C547 C 0.84471 0.19528 0.1868 0.0
C548 C 0.84332 0.22315 0.20556 0.0
C549 C 0.87828 0.24405 0.21172 0.0
C550 C 0.91422 0.23666 0.19961 0.0
C551 C 0.80556 0.23021 0.21895 0.0
C552 C 0.79104 0.26941 0.22087 0.0
C553 C 0.78391 0.19865 0.22979 0.0
C554 C 0.79862 0.15687 0.22956 0.0
C555 C 0.83663 0.14748 0.23868 0.0
C556 C 0.85031 0.10804 0.23836 0.0
C557 C 0.82611 0.07768 0.22916 0.0
C558 C 0.78813 0.08668 0.22031 0.0
C559 C 0.77432 0.12609 0.22056 0.0
H560 H 0.83674 0.04716 0.22894 0.0
H561 H 0.70525 0.43006 0.23965 0.0
H562 H 0.25392 0.39809 0.63788 0.0
H563 H 0.24506 0.33422 0.65837 0.0
H564 H 0.29839 0.38384 0.722 0.0
H565 H 0.30733 0.44786 0.70168 0.0
H566 H 0.33023 0.30974 0.70891 0.0
H567 H 0.20075 0.37155 0.72009 0.0
H568 H 0.13857 0.40367 0.7064 0.0
H569 H 0.10958 0.29962 0.6649 0.0
H570 H 0.17196 0.26705 0.67811 0.0
H571 H 0.26996 0.19826 0.80759 0.0
H572 H 0.28505 0.24572 0.77598 0.0
H573 H 0.22337 0.17119 0.72496 0.0
H574 H 0.20794 0.12306 0.75689 0.0
H575 H 0.19721 0.2491 0.72442 0.0
H576 H 0.32206 0.18308 0.71896 0.0
H577 H 0.38402 0.15135 0.73327 0.0
H578 H 0.42208 0.26264 0.76398 0.0
H579 H 0.36008 0.29494 0.75018 0.0
C580 C 0.26354 0.3955 0.65629 0.0
C581 C 0.28135 0.42802 0.66818 0.0
C582 C 0.25843 0.359 0.66795 0.0
C583 C 0.27114 0.35436 0.69165 0.0
C584 C 0.28856 0.38684 0.70364 0.0
C585 C 0.2934 0.42344 0.69207 0.0
C586 C 0.26666 0.31559 0.70403 0.0
C587 C 0.30118 0.2965 0.71243 0.0
C588 C 0.22883 0.29766 0.7077 0.0
C589 C 0.19125 0.31708 0.69984 0.0
C590 C 0.1813 0.35566 0.70787 0.0
C591 C 0.146 0.37391 0.70024 0.0
C592 C 0.12023 0.35376 0.68472 0.0
C593 C 0.12964 0.31523 0.67687 0.0
C594 C 0.16495 0.29684 0.68444 0.0
C595 C 0.26017 0.19153 0.78957 0.0
C596 C 0.23758 0.15708 0.78472 0.0
C597 C 0.26904 0.2186 0.77147 0.0
C598 C 0.25552 0.2119 0.74809 0.0
C599 C 0.23419 0.17677 0.7429 0.0
C600 C 0.22561 0.14927 0.76108 0.0
C601 C 0.26075 0.24376 0.73001 0.0
C602 C 0.22639 0.2617 0.72046 0.0
C603 C 0.29877 0.26063 0.72526 0.0
C604 C 0.33625 0.2414 0.7336 0.0
C605 C 0.34349 0.20074 0.72891 0.0
C606 C 0.37866 0.18266 0.73691 0.0
C607 C 0.40695 0.20495 0.74955 0.0
C608 C 0.40015 0.24541 0.75418 0.0
C609 C 0.36502 0.26364 0.74623 0.0
H610 H 0.43415 0.1909 0.75573 0.0
H611 H 0.09294 0.36797 0.67885 0.0
H612 H 0.29336 0.70748 0.31828 0.0
H613 H 0.23976 0.72348 0.29063 0.0
H614 H 0.326 0.76716 0.23947 0.0
H615 H 0.38059 0.75079 0.26724 0.0
H616 H 0.25734 0.81917 0.24923 0.0
H617 H 0.28627 0.68314 0.22724 0.0
H618 H 0.29827 0.61176 0.23517 0.0
H619 H 0.18102 0.60101 0.26609 0.0
H620 H 0.16852 0.67249 0.25866 0.0
H621 H 0.11554 0.84016 0.15655 0.0
H622 H 0.17348 0.825 0.18111 0.0
H623 H 0.09981 0.75201 0.22711 0.0
H624 H 0.04173 0.76576 0.20181 0.0
H625 H 0.16546 0.71475 0.21839 0.0
H626 H 0.13575 0.8479 0.24365 0.0
H627 H 0.12163 0.91975 0.2391 0.0
H628 H 0.23663 0.93709 0.20628 0.0
H629 H 0.25123 0.86522 0.21034 0.0
C630 C 0.30117 0.72045 0.30116 0.0
C631 C 0.34132 0.72795 0.29496 0.0
C632 C 0.27041 0.72942 0.28534 0.0
C633 C 0.27898 0.74625 0.26302 0.0
C634 C 0.31892 0.75404 0.25667 0.0
C635 C 0.34999 0.74456 0.27246 0.0
C636 C 0.24568 0.75613 0.24673 0.0
C637 C 0.23762 0.7964 0.24203 0.0
C638 C 0.21925 0.72637 0.23824 0.0
C639 C 0.22658 0.68327 0.24255 0.0
C640 C 0.26316 0.66564 0.2359 0.0
C641 C 0.27003 0.62514 0.24027 0.0
C642 C 0.24045 0.60188 0.25117 0.0
C643 C 0.20391 0.61906 0.25766 0.0
C644 C 0.1969 0.65956 0.25335 0.0
C645 C 0.1115 0.82115 0.17201 0.0
C646 C 0.07399 0.80424 0.1773 0.0
C647 C 0.14471 0.81265 0.18614 0.0
C648 C 0.14101 0.78786 0.20622 0.0
C649 C 0.10344 0.77126 0.21171 0.0
C650 C 0.07023 0.77924 0.19732 0.0
C651 C 0.17667 0.77804 0.22088 0.0
C652 C 0.18519 0.7377 0.22537 0.0
C653 C 0.2031 0.80784 0.22956 0.0
C654 C 0.19441 0.85109 0.22708 0.0
C655 C 0.1579 0.86698 0.23529 0.0
C656 C 0.14983 0.90772 0.23283 0.0
C657 C 0.17817 0.93295 0.22235 0.0
C658 C 0.21468 0.9175 0.21436 0.0
C659 C 0.22288 0.87678 0.21676 0.0
H660 H 0.17187 0.96448 0.22047 0.0
H661 H 0.24583 0.57053 0.25454 0.0
H662 H 0.66771 0.55645 0.71089 0.0
H663 H 0.66642 0.62285 0.72895 0.0
H664 H 0.77779 0.65179 0.69376 0.0
H665 H 0.77993 0.58484 0.67624 0.0
H666 H 0.7794 0.67903 0.73701 0.0
H667 H 0.6861 0.68809 0.67343 0.0
H668 H 0.62869 0.66879 0.64836 0.0
H669 H 0.54946 0.6838 0.70832 0.0
H670 H 0.60649 0.70262 0.73387 0.0
H671 H 0.7603 0.88122 0.77244 0.0
H672 H 0.7566 0.82739 0.74263 0.0
H673 H 0.66722 0.76768 0.78534 0.0
H674 H 0.67148 0.82073 0.81537 0.0
H675 H 0.65677 0.76226 0.7328 0.0
H676 H 0.75477 0.74277 0.79665 0.0
H677 H 0.81294 0.764 0.82055 0.0
H678 H 0.88447 0.77125 0.75675 0.0
H679 H 0.82644 0.75064 0.73243 0.0
C680 C 0.69207 0.57685 0.70711 0.0
C681 C 0.72385 0.56545 0.69208 0.0
C682 C 0.6911 0.61497 0.71727 0.0
C683 C 0.72149 0.64271 0.71224 0.0
C684 C 0.75385 0.63101 0.69776 0.0
C685 C 0.75508 0.59269 0.68781 0.0
C686 C 0.71983 0.68359 0.72255 0.0
C687 C 0.75284 0.69748 0.7356 0.0
C688 C 0.68513 0.70776 0.72091 0.0
C689 C 0.65066 0.69647 0.70562 0.0
C690 C 0.65648 0.68698 0.68133 0.0
C691 C 0.624 0.67617 0.66702 0.0
C692 C 0.58546 0.67499 0.67675 0.0
C693 C 0.57933 0.6847 0.70081 0.0
C694 C 0.61173 0.69548 0.71521 0.0
C695 C 0.73888 0.85731 0.77501 0.0
C696 C 0.71635 0.85485 0.79621 0.0
C697 C 0.73692 0.82658 0.75806 0.0
C698 C 0.71188 0.79354 0.76197 0.0
C699 C 0.68664 0.79301 0.78203 0.0
C700 C 0.68918 0.82322 0.79917 0.0
C701 C 0.71599 0.75698 0.74733 0.0
C702 C 0.68346 0.74392 0.73365 0.0
C703 C 0.75126 0.73375 0.74809 0.0
C704 C 0.7862 0.74569 0.76272 0.0
C705 C 0.78281 0.74924 0.78771 0.0
C706 C 0.81576 0.7611 0.80133 0.0
C707 C 0.85235 0.7691 0.79016 0.0
C708 C 0.85609 0.76513 0.76536 0.0
C709 C 0.82319 0.75337 0.75166 0.0
H710 H 0.87783 0.77827 0.80074 0.0
H711 H 0.56035 0.66662 0.66564 0.0
H712 H 0.95856 0.65834 0.06675 0.0
H713 H 0.97653 0.58755 0.0671 0.0
H714 H 0.99292 0.59334 0.14365 0.0
H715 H 0.97778 0.66468 0.14298 0.0
H716 H 0.04645 0.5493 0.12806 0.0
H717 H 0.90559 0.55148 0.11389 0.0
H718 H 0.84276 0.57012 0.09379 0.0
H719 H 0.88436 0.51586 0.02864 0.0
H720 H 0.94767 0.49732 0.04828 0.0
H721 H 0.00876 0.33835 0.14777 0.0
H722 H 0.99181 0.40909 0.14337 0.0
H723 H 0.05468 0.41258 0.07599 0.0
H724 H 0.07283 0.34201 0.0805 0.0
H725 H 0.96166 0.44983 0.08609 0.0
H726 H 0.1067 0.45167 0.10479 0.0
H727 H 0.16343 0.42985 0.12967 0.0
H728 H 0.10397 0.47412 0.19256 0.0
H729 H 0.04661 0.49561 0.16805 0.0
C730 C 0.96624 0.64442 0.08359 0.0
C731 C 0.96674 0.66686 0.10484 0.0
C732 C 0.97617 0.60387 0.08384 0.0
C733 C 0.98521 0.5846 0.1055 0.0
C734 C 0.9861 0.6073 0.12669 0.0
C735 C 0.97738 0.64809 0.12632 0.0
C736 C 0.99395 0.54097 0.10616 0.0
C737 C 0.02757 0.52777 0.11896 0.0
C738 C 0.96959 0.51236 0.09434 0.0
C739 C 0.93153 0.52338 0.08249 0.0
C740 C 0.90144 0.54377 0.09523 0.0
C741 C 0.86573 0.55428 0.08393 0.0
C742 C 0.85962 0.54428 0.05994 0.0
C743 C 0.88917 0.52364 0.04721 0.0
C744 C 0.92495 0.51309 0.05842 0.0
C745 C 0.01869 0.35402 0.13189 0.0
C746 C 0.04226 0.33465 0.1145 0.0
C747 C 0.00902 0.39439 0.12946 0.0
C748 C 0.02214 0.41582 0.10941 0.0
C749 C 0.0444 0.39635 0.09159 0.0
C750 C 0.0548 0.35616 0.09423 0.0
C751 C 0.01394 0.45902 0.10768 0.0
C752 C 0.9804 0.47184 0.09489 0.0
C753 C 0.03757 0.48718 0.12003 0.0
C754 C 0.07225 0.47479 0.13465 0.0
C755 C 0.10559 0.45637 0.12395 0.0
C756 C 0.13788 0.44415 0.13797 0.0
C757 C 0.13726 0.45047 0.16269 0.0
C758 C 0.10439 0.46917 0.17343 0.0
C759 C 0.07201 0.48139 0.15948 0.0
H760 H 0.16228 0.44099 0.17352 0.0
H761 H 0.83196 0.55245 0.05122 0.0
H762 H 0.89206 0.40549 0.59638 0.0
H763 H 0.96156 0.427 0.59227 0.0
H764 H 0.92934 0.545 0.61649 0.0
H765 H 0.85952 0.52367 0.62098 0.0
H766 H 0.98396 0.54082 0.57472 0.0
H767 H 0.96851 0.4893 0.65557 0.0
H768 H 0.94894 0.43788 0.68489 0.0
H769 H 0.02973 0.35442 0.65198 0.0
H770 H 0.04957 0.40529 0.62236 0.0
H771 H 0.17582 0.61749 0.60366 0.0
H772 H 0.10576 0.59756 0.60063 0.0
H773 H 0.141 0.47349 0.60159 0.0
H774 H 0.21085 0.49355 0.60629 0.0
H775 H 0.08342 0.47973 0.62917 0.0
H776 H 0.1022 0.52661 0.54949 0.0
H777 H 0.12169 0.57329 0.51745 0.0
H778 H 0.03603 0.65879 0.54323 0.0
H779 H 0.01637 0.61283 0.57562 0.0
C780 C 0.89954 0.43615 0.60063 0.0
C781 C 0.87016 0.46281 0.60913 0.0
C782 C 0.93933 0.44834 0.5983 0.0
C783 C 0.95054 0.48749 0.60419 0.0
C784 C 0.92119 0.51465 0.61184 0.0
C785 C 0.88138 0.50234 0.61448 0.0
C786 C 0.99324 0.49937 0.60347 0.0
C787 C 0.0058 0.52791 0.58675 0.0
C788 C 0.02175 0.48135 0.61861 0.0
C789 C 0.01022 0.45097 0.63662 0.0
C790 C 0.9819 0.4599 0.6545 0.0
C791 C 0.97083 0.43089 0.6712 0.0
C792 C 0.98804 0.39289 0.67027 0.0
C793 C 0.01643 0.38386 0.65268 0.0
C794 C 0.02766 0.4128 0.63596 0.0
C795 C 0.1686 0.58598 0.60285 0.0
C796 C 0.19874 0.55706 0.60516 0.0
C797 C 0.12847 0.57453 0.60098 0.0
C798 C 0.11777 0.53389 0.60053 0.0
C799 C 0.14821 0.50502 0.60199 0.0
C800 C 0.18819 0.51647 0.60455 0.0
C801 C 0.07488 0.52144 0.60023 0.0
C802 C 0.06203 0.49272 0.61689 0.0
C803 C 0.04635 0.53865 0.58459 0.0
C804 C 0.05808 0.5664 0.56512 0.0
C805 C 0.08772 0.55548 0.54843 0.0
C806 C 0.09877 0.5818 0.53019 0.0
C807 C 0.08018 0.61902 0.52834 0.0
C808 C 0.05043 0.62996 0.5447 0.0
C809 C 0.0393 0.60378 0.56299 0.0
H810 H 0.08877 0.63934 0.5142 0.0
H811 H 0.97941 0.37046 0.68321 0.0
H812 H 0.48443 0.15827 0.36641 0.0
H813 H 0.4672 0.08709 0.36721 0.0
H814 H 0.59184 0.05703 0.37499 0.0
H815 H 0.60932 0.12806 0.37478 0.0
H816 H 0.54616 0.01506 0.33669 0.0
H817 H 0.54267 0.04658 0.42108 0.0
H818 H 0.52083 0.0855 0.45627 0.0
H819 H 0.39843 0.05538 0.44168 0.0
H820 H 0.41952 0.01675 0.40617 0.0
H821 H 0.52465 0.80787 0.35449 0.0
H822 H 0.54467 0.87772 0.35866 0.0
H823 H 0.42296 0.90957 0.37638 0.0
H824 H 0.4034 0.83937 0.37358 0.0
H825 H 0.46829 0.95188 0.40215 0.0
H826 H 0.46813 0.92134 0.31851 0.0
H827 H 0.48623 0.88526 0.28154 0.0
H828 H 0.60953 0.91711 0.29132 0.0
H829 H 0.59238 0.95238 0.32874 0.0
C830 C 0.50815 0.13651 0.36843 0.0
C831 C 0.54824 0.14879 0.37059 0.0
C832 C 0.49824 0.09593 0.36891 0.0
C833 C 0.52828 0.06695 0.37118 0.0
C834 C 0.56828 0.07903 0.37324 0.0
C835 C 0.57815 0.1196 0.37323 0.0
C836 C 0.51801 0.02394 0.3709 0.0
C837 C 0.52962 0.00094 0.35111 0.0
C838 C 0.49534 0.00616 0.38939 0.0
C839 C 0.48265 0.02912 0.41083 0.0
C840 C 0.51107 0.04856 0.42525 0.0
C841 C 0.49884 0.0705 0.44528 0.0
C842 C 0.45826 0.073 0.45117 0.0
C843 C 0.42985 0.05346 0.43708 0.0
C844 C 0.44193 0.03151 0.41701 0.0
C845 C 0.50226 0.82977 0.35946 0.0
C846 C 0.46242 0.8182 0.36359 0.0
C847 C 0.51365 0.86978 0.36168 0.0
C848 C 0.48517 0.89929 0.36724 0.0
C849 C 0.44555 0.88753 0.372 0.0
C850 C 0.43436 0.84737 0.37037 0.0
C851 C 0.49641 0.94238 0.3678 0.0
C852 C 0.48491 0.96563 0.38765 0.0
C853 C 0.51858 0.9606 0.34906 0.0
C854 C 0.52901 0.9391 0.32662 0.0
C855 C 0.49918 0.92027 0.31294 0.0
C856 C 0.50928 0.89992 0.2919 0.0
C857 C 0.54906 0.89864 0.28417 0.0
C858 C 0.57879 0.91783 0.29743 0.0
C859 C 0.5689 0.93796 0.31857 0.0
H860 H 0.55682 0.88293 0.26786 0.0
H861 H 0.44884 0.09001 0.46668 0.0
H862 H 0.30255 0.99782 0.85926 0.0
H863 H 0.3725 0.9799 0.86637 0.0
H864 H 0.39822 0.10133 0.88698 0.0
H865 H 0.32825 0.11948 0.88031 0.0
H866 H 0.44979 0.0681 0.85053 0.0
H867 H 0.3986 0.03695 0.92886 0.0
H868 H 0.35237 0.00474 0.95735 0.0
H869 H 0.38808 0.88921 0.93158 0.0
H870 H 0.43411 0.92075 0.90267 0.0
H871 H 0.65261 0.02716 0.87489 0.0
H872 H 0.58384 0.05108 0.87962 0.0
H873 H 0.54145 0.92923 0.88001 0.0
H874 H 0.61021 0.9054 0.87699 0.0
H875 H 0.49805 0.96754 0.90869 0.0
H876 H 0.54157 0.99426 0.82805 0.0
H877 H 0.5859 0.02253 0.79704 0.0
H878 H 0.56216 0.14081 0.82327 0.0
H879 H 0.51806 0.11319 0.85464 0.0
C880 C 0.32294 0.02062 0.86561 0.0
C881 C 0.30981 0.0601 0.86918 0.0
C882 C 0.36286 0.0103 0.86971 0.0
C883 C 0.39044 0.03932 0.8772 0.0
C884 C 0.37733 0.07854 0.88122 0.0
C885 C 0.3373 0.08877 0.87749 0.0
C886 C 0.43337 0.02915 0.8795 0.0
C887 C 0.46057 0.04663 0.8635 0.0
C888 C 0.44701 0.00028 0.89595 0.0
C889 C 0.41957 0.98125 0.91346 0.0
C890 C 0.39636 0.00469 0.92913 0.0
C891 C 0.37024 0.98655 0.94538 0.0
C892 C 0.36723 0.94496 0.94624 0.0
C893 C 0.39042 0.92142 0.93089 0.0
C894 C 0.41657 0.93942 0.91458 0.0
C895 C 0.62857 0.00558 0.8763 0.0
C896 C 0.63669 0.96445 0.87548 0.0
C897 C 0.58923 0.01923 0.87882 0.0
C898 C 0.55712 0.99204 0.87954 0.0
C899 C 0.56549 0.95092 0.87947 0.0
C900 C 0.60486 0.93728 0.87769 0.0
C901 C 0.5148 0.00606 0.87943 0.0
C902 C 0.48756 0.98929 0.8958 0.0
C903 C 0.50087 0.03493 0.8629 0.0
C904 C 0.52688 0.05163 0.84383 0.0
C905 C 0.54597 0.02629 0.82727 0.0
C906 C 0.57104 0.04219 0.80963 0.0
C907 C 0.57695 0.08343 0.80824 0.0
C908 C 0.55763 0.10887 0.82441 0.0
C909 C 0.53257 0.09311 0.84211 0.0
H910 H 0.59642 0.09568 0.79459 0.0
H911 H 0.34698 0.93097 0.95884 0.0
loop_
_geom_bond_atom_site_label_1
_geom_bond_atom_site_label_2
_geom_bond_distance
_geom_bond_site_symmetry_2
_ccdc_geom_bond_type
Mg0 O1 2.028 . S
Mg0 O7 1.986 . S
Mg0 O9 2.114 . S
Mg0 O10 2.251 . S
Mg0 O13 2.010 . S
O1 Mg0 2.028 . S
O1 C4 1.250 . S
O2 Mg3 2.028 . S
O2 C4 1.248 . S
Mg3 O2 2.028 . S
Mg3 O8 2.032 . S
Mg3 O10 2.079 . S
C4 O1 1.250 . S
C4 O2 1.248 . S
C5 O6 1.264 . S
C5 O13 1.249 1_655 S
O6 C5 1.264 . S
O7 Mg0 1.986 . S
O7 C11 1.246 . S
O8 Mg3 2.032 . S
O8 C11 1.259 . S
O9 Mg0 2.114 . S
O9 C12 1.252 . S
O10 Mg0 2.251 . S
O10 Mg3 2.079 . S
O10 C12 1.273 . S
C11 O7 1.246 . S
C11 O8 1.259 . S
C12 O9 1.252 . S
C12 O10 1.273 . S
O13 Mg0 2.010 . S
O13 C5 1.249 1_455 S
Mg14 O15 2.028 . S
Mg14 O21 1.986 . S
Mg14 O23 2.114 . S
Mg14 O24 2.251 . S
Mg14 O27 2.010 . S
O15 Mg14 2.028 . S
O15 C18 1.250 . S
O16 Mg17 2.028 . S
O16 C18 1.248 . S
Mg17 O16 2.028 . S
Mg17 O22 2.032 . S
Mg17 O24 2.079 . S
C18 O15 1.250 . S
C18 O16 1.248 . S
C19 O20 1.264 . S
C19 O27 1.249 . S
O20 C19 1.264 . S
O21 Mg14 1.986 . S
O21 C25 1.246 . S
O22 Mg17 2.032 . S
O22 C25 1.259 . S
O23 Mg14 2.114 . S
O23 C26 1.252 . S
O24 Mg14 2.251 . S
O24 Mg17 2.079 . S
O24 C26 1.273 . S
C25 O21 1.246 . S
C25 O22 1.259 . S
C26 O23 1.252 . S
C26 O24 1.273 . S
O27 Mg14 2.010 . S
O27 C19 1.249 . S
Mg28 O29 2.028 . S
Mg28 O35 1.986 . S
Mg28 O37 2.114 . S
Mg28 O38 2.251 . S
Mg28 O41 2.010 . S
O29 Mg28 2.028 . S
O29 C32 1.250 . S
O30 Mg31 2.028 . S
O30 C32 1.248 . S
Mg31 O30 2.028 . S
Mg31 O36 2.032 . S
Mg31 O38 2.079 . S
C32 O29 1.250 . S
C32 O30 1.248 . S
C33 O34 1.264 . S
C33 O41 1.249 1_455 S
O34 C33 1.264 . S
O35 Mg28 1.986 . S
O35 C39 1.246 . S
O36 Mg31 2.032 . S
O36 C39 1.259 . S
O37 Mg28 2.114 . S
O37 C40 1.252 . S
O38 Mg28 2.251 . S
O38 Mg31 2.079 . S
O38 C40 1.273 . S
C39 O35 1.246 . S
C39 O36 1.259 . S
C40 O37 1.252 . S
C40 O38 1.273 . S
O41 Mg28 2.010 . S
O41 C33 1.249 1_655 S
Mg42 O43 2.028 . S
Mg42 O49 1.986 . S
Mg42 O51 2.114 . S
Mg42 O52 2.251 . S
Mg42 O55 2.010 . S
O43 Mg42 2.028 . S
O43 C46 1.250 . S
O44 Mg45 2.028 . S
O44 C46 1.248 . S
Mg45 O44 2.028 . S
Mg45 O50 2.032 . S
Mg45 O52 2.079 . S
C46 O43 1.250 . S
C46 O44 1.248 . S
C47 O48 1.264 . S
C47 O55 1.249 . S
O48 C47 1.264 . S
O49 Mg42 1.986 . S
O49 C53 1.246 . S
O50 Mg45 2.032 . S
O50 C53 1.259 . S
O51 Mg42 2.114 . S
O51 C54 1.252 . S
O52 Mg42 2.251 . S
O52 Mg45 2.079 . S
O52 C54 1.273 . S
C53 O49 1.246 . S
C53 O50 1.259 . S
C54 O51 1.252 . S
C54 O52 1.273 . S
O55 Mg42 2.010 . S
O55 C47 1.249 . S
Mg56 O57 2.028 . S
Mg56 O63 1.986 . S
Mg56 O65 2.114 . S
Mg56 O66 2.251 . S
Mg56 O69 2.010 . S
O57 Mg56 2.028 . S
O57 C60 1.250 . S
O58 Mg59 2.028 . S
O58 C60 1.248 . S
Mg59 O58 2.028 . S
Mg59 O64 2.032 . S
Mg59 O66 2.079 . S
C60 O57 1.250 . S
C60 O58 1.248 . S
C61 O62 1.264 . S
C61 O69 1.249 . S
O62 C61 1.264 . S
O63 Mg56 1.986 . S
O63 C67 1.246 . S
O64 Mg59 2.032 . S
O64 C67 1.259 . S
O65 Mg56 2.114 . S
O65 C68 1.252 . S
O66 Mg56 2.251 . S
O66 Mg59 2.079 . S
O66 C68 1.273 . S
C67 O63 1.246 . S
C67 O64 1.259 . S
C68 O65 1.252 . S
C68 O66 1.273 . S
O69 Mg56 2.010 . S
O69 C61 1.249 . S
Mg70 O71 2.028 . S
Mg70 O77 1.986 . S
Mg70 O79 2.114 . S
Mg70 O80 2.251 . S
Mg70 O83 2.010 . S
O71 Mg70 2.028 . S
O71 C74 1.250 . S
O72 Mg73 2.028 . S
O72 C74 1.248 . S
Mg73 O72 2.028 . S
Mg73 O78 2.032 . S
Mg73 O80 2.079 . S
C74 O71 1.250 . S
C74 O72 1.248 . S
C75 O76 1.264 . S
C75 O83 1.249 1_565 S
O76 C75 1.264 . S
O77 Mg70 1.986 . S
O77 C81 1.246 . S
O78 Mg73 2.032 . S
O78 C81 1.259 . S
O79 Mg70 2.114 . S
O79 C82 1.252 . S
O80 Mg70 2.251 . S
O80 Mg73 2.079 . S
O80 C82 1.273 . S
C81 O77 1.246 . S
C81 O78 1.259 . S
C82 O79 1.252 . S
C82 O80 1.273 . S
O83 Mg70 2.010 . S
O83 C75 1.249 1_545 S
Mg84 O85 2.028 . S
Mg84 O91 1.986 . S
Mg84 O93 2.114 . S
Mg84 O94 2.251 . S
Mg84 O97 2.010 . S
O85 Mg84 2.028 . S
O85 C88 1.250 . S
O86 Mg87 2.028 . S
O86 C88 1.248 . S
Mg87 O86 2.028 . S
Mg87 O92 2.032 . S
Mg87 O94 2.079 . S
C88 O85 1.250 . S
C88 O86 1.248 . S
C89 O90 1.264 . S
C89 O97 1.249 . S
O90 C89 1.264 . S
O91 Mg84 1.986 . S
O91 C95 1.246 . S
O92 Mg87 2.032 . S
O92 C95 1.259 . S
O93 Mg84 2.114 . S
O93 C96 1.252 . S
O94 Mg84 2.251 . S
O94 Mg87 2.079 . S
O94 C96 1.273 . S
C95 O91 1.246 . S
C95 O92 1.259 . S
C96 O93 1.252 . S
C96 O94 1.273 . S
O97 Mg84 2.010 . S
O97 C89 1.249 . S
Mg98 O99 2.028 . S
Mg98 O105 1.986 . S
Mg98 O107 2.114 . S
Mg98 O108 2.251 . S
Mg98 O111 2.010 . S
O99 Mg98 2.028 . S
O99 C102 1.250 . S
O100 Mg101 2.028 . S
O100 C102 1.248 . S
Mg101 O100 2.028 . S
Mg101 O106 2.032 . S
Mg101 O108 2.079 . S
C102 O99 1.250 . S
C102 O100 1.248 . S
C103 O104 1.264 . S
C103 O111 1.249 1_545 S
O104 C103 1.264 . S
O105 Mg98 1.986 . S
O105 C109 1.246 . S
O106 Mg101 2.032 . S
O106 C109 1.259 . S
O107 Mg98 2.114 . S
O107 C110 1.252 . S
O108 Mg98 2.251 . S
O108 Mg101 2.079 . S
O108 C110 1.273 . S
C109 O105 1.246 . S
C109 O106 1.259 . S
C110 O107 1.252 . S
C110 O108 1.273 . S
O111 Mg98 2.010 . S
O111 C103 1.249 1_565 S
H112 C130 0.951 . S
H113 C132 0.951 . S
H114 C134 0.950 . S
H115 C135 0.950 . S
H116 C137 0.950 . S
H117 C140 0.950 . S
H118 C141 0.950 . S
H119 C143 0.950 . S
H120 C144 0.950 . S
H121 C145 0.951 . S
H122 C147 0.951 . S
H123 C149 0.950 . S
H124 C150 0.950 . S
H125 C152 0.950 . S
H126 C155 0.950 . S
H127 C156 0.950 . S
H128 C158 0.950 . S
H129 C159 0.950 . S
C130 H112 0.951 . S
C130 C131 1.366 . S
C130 C132 1.388 . S
C131 C130 1.366 . S
C131 C135 1.385 . S
C132 H113 0.951 . S
C132 C130 1.388 . S
C132 C133 1.366 . S
C133 C132 1.366 . S
C133 C134 1.414 . S
C133 C136 1.499 . S
C134 H114 0.950 . S
C134 C133 1.414 . S
C134 C135 1.374 . S
C135 H115 0.950 . S
C135 C131 1.385 . S
C135 C134 1.374 . S
C136 C133 1.499 . S
C136 C137 1.373 . S
C136 C138 1.389 . S
C137 H116 0.950 . S
C137 C136 1.373 . S
C137 C153 1.377 1_554 S
C138 C136 1.389 . S
C138 C139 1.524 . S
C138 C152 1.377 1_554 S
C139 C138 1.524 . S
C139 C140 1.397 . S
C139 C144 1.363 1_554 S
C140 H117 0.950 . S
C140 C139 1.397 . S
C140 C141 1.334 . S
C141 H118 0.950 . S
C141 C140 1.334 . S
C141 C142 1.287 1_455 S
C142 C141 1.287 1_655 S
C142 C143 1.524 1_554 S
C142 H161 0.913 . S
C143 H119 0.950 . S
C143 C142 1.524 1_556 S
C143 C144 1.415 1_655 S
C144 H120 0.950 . S
C144 C139 1.363 1_556 S
C144 C143 1.415 1_455 S
C145 H121 0.951 . S
C145 C146 1.366 . S
C145 C147 1.388 . S
C146 C145 1.366 . S
C146 C150 1.385 . S
C147 H122 0.951 . S
C147 C145 1.388 . S
C147 C148 1.366 . S
C148 C147 1.366 . S
C148 C149 1.414 . S
C148 C151 1.499 . S
C149 H123 0.950 . S
C149 C148 1.414 . S
C149 C150 1.374 . S
C150 H124 0.950 . S
C150 C146 1.385 . S
C150 C149 1.374 . S
C151 C148 1.499 . S
C151 C152 1.373 . S
C151 C153 1.389 . S
C152 H125 0.950 . S
C152 C138 1.377 1_556 S
C152 C151 1.373 . S
C153 C137 1.377 1_556 S
C153 C151 1.389 . S
C153 C154 1.524 . S
C154 C153 1.524 . S
C154 C155 1.397 . S
C154 C159 1.363 1_556 S
C155 H126 0.950 . S
C155 C154 1.397 . S
C155 C156 1.334 . S
C156 H127 0.950 . S
C156 C155 1.334 . S
C156 C157 1.287 . S
C157 C156 1.287 . S
C157 C158 1.524 1_556 S
C157 H160 0.999 . S
C158 H128 0.950 . S
C158 C157 1.524 1_554 S
C158 C159 1.415 . S
C159 H129 0.950 . S
C159 C154 1.363 1_554 S
C159 C158 1.415 . S
H160 C157 0.999 . S
H161 C142 0.913 . S
H162 C180 0.951 . S
H163 C182 0.951 . S
H164 C184 0.950 . S
H165 C185 0.950 . S
H166 C187 0.950 . S
H167 C190 0.950 . S
H168 C191 0.950 . S
H169 C193 0.950 . S
H170 C194 0.950 . S
H171 C195 0.951 . S
H172 C197 0.951 . S
H173 C199 0.950 . S
H174 C200 0.950 . S
H175 C202 0.950 . S
H176 C205 0.950 . S
H177 C206 0.950 . S
H178 C208 0.950 . S
H179 C209 0.950 . S
C180 H162 0.951 . S
C180 C181 1.366 . S
C180 C182 1.388 . S
C181 C180 1.366 . S
C181 C185 1.385 . S
C182 H163 0.951 . S
C182 C180 1.388 . S
C182 C183 1.366 . S
C183 C182 1.366 . S
C183 C184 1.414 . S
C183 C186 1.499 . S
C184 H164 0.950 . S
C184 C183 1.414 . S
C184 C185 1.374 . S
C185 H165 0.950 . S
C185 C181 1.385 . S
C185 C184 1.374 . S
C186 C183 1.499 . S
C186 C187 1.373 . S
C186 C188 1.389 . S
C187 H166 0.950 . S
C187 C186 1.373 . S
C187 C203 1.377 . S
C188 C186 1.389 . S
C188 C189 1.524 . S
C188 C202 1.377 . S
C189 C188 1.524 . S
C189 C190 1.397 . S
C189 C194 1.363 . S
C190 H167 0.950 . S
C190 C189 1.397 . S
C190 C191 1.334 . S
C191 H168 0.950 . S
C191 C190 1.334 . S
C191 C192 1.287 . S
C192 C191 1.287 . S
C192 C193 1.524 . S
C192 H211 0.913 . S
C193 H169 0.950 . S
C193 C192 1.524 . S
C193 C194 1.415 . S
C194 H170 0.950 . S
C194 C189 1.363 . S
C194 C193 1.415 . S
C195 H171 0.951 . S
C195 C196 1.366 . S
C195 C197 1.388 . S
C196 C195 1.366 . S
C196 C200 1.385 . S
C197 H172 0.951 . S
C197 C195 1.388 . S
C197 C198 1.366 . S
C198 C197 1.366 . S
C198 C199 1.414 . S
C198 C201 1.499 . S
C199 H173 0.950 . S
C199 C198 1.414 . S
C199 C200 1.374 . S
C200 H174 0.950 . S
C200 C196 1.385 . S
C200 C199 1.374 . S
C201 C198 1.499 . S
C201 C202 1.373 . S
C201 C203 1.389 . S
C202 H175 0.950 . S
C202 C188 1.377 . S
C202 C201 1.373 . S
C203 C187 1.377 . S
C203 C201 1.389 . S
C203 C204 1.524 . S
C204 C203 1.524 . S
C204 C205 1.397 . S
C204 C209 1.363 . S
C205 H176 0.950 . S
C205 C204 1.397 . S
C205 C206 1.334 . S
C206 H177 0.950 . S
C206 C205 1.334 . S
C206 C207 1.287 . S
C207 C206 1.287 . S
C207 C208 1.524 . S
C207 H210 0.999 . S
C208 H178 0.950 . S
C208 C207 1.524 . S
C208 C209 1.415 . S
C209 H179 0.950 . S
C209 C204 1.363 . S
C209 C208 1.415 . S
H210 C207 0.999 . S
H211 C192 0.913 . S
H212 C230 0.951 . S
H213 C232 0.951 . S
H214 C234 0.950 . S
H215 C235 0.950 . S
H216 C237 0.950 . S
H217 C240 0.950 . S
H218 C241 0.950 . S
H219 C243 0.950 . S
H220 C244 0.950 . S
H221 C245 0.951 . S
H222 C247 0.951 . S
H223 C249 0.950 . S
H224 C250 0.950 . S
H225 C252 0.950 . S
H226 C255 0.950 . S
H227 C256 0.950 . S
H228 C258 0.950 . S
H229 C259 0.950 . S
C230 H212 0.951 . S
C230 C231 1.366 . S
C230 C232 1.388 . S
C231 C230 1.366 . S
C231 C235 1.385 . S
C232 H213 0.951 . S
C232 C230 1.388 . S
C232 C233 1.366 . S
C233 C232 1.366 . S
C233 C234 1.414 . S
C233 C236 1.499 . S
C234 H214 0.950 . S
C234 C233 1.414 . S
C234 C235 1.374 . S
C235 H215 0.950 . S
C235 C231 1.385 . S
C235 C234 1.374 . S
C236 C233 1.499 . S
C236 C237 1.383 . S
C236 C238 1.389 . S
C237 H216 0.950 . S
C237 C236 1.383 . S
C237 C253 1.367 1_554 S
C238 C236 1.389 . S
C238 C239 1.524 . S
C238 C252 1.367 1_554 S
C239 C238 1.524 . S
C239 C240 1.397 . S
C239 C244 1.363 . S
C240 H217 0.950 . S
C240 C239 1.397 . S
C240 C241 1.334 . S
C241 H218 0.950 . S
C241 C240 1.334 . S
C241 C242 1.287 . S
C242 C241 1.287 . S
C242 C243 1.524 . S
C242 H261 0.913 . S
C243 H219 0.950 . S
C243 C242 1.524 . S
C243 C244 1.415 . S
C244 H220 0.950 . S
C244 C239 1.363 . S
C244 C243 1.415 . S
C245 H221 0.951 . S
C245 C246 1.366 . S
C245 C247 1.388 . S
C246 C245 1.366 . S
C246 C250 1.385 . S
C247 H222 0.951 . S
C247 C245 1.388 . S
C247 C248 1.366 . S
C248 C247 1.366 . S
C248 C249 1.414 . S
C248 C251 1.499 . S
C249 H223 0.950 . S
C249 C248 1.414 . S
C249 C250 1.374 . S
C250 H224 0.950 . S
C250 C246 1.385 . S
C250 C249 1.374 . S
C251 C248 1.499 . S
C251 C252 1.383 . S
C251 C253 1.389 . S
C252 H225 0.950 . S
C252 C238 1.367 1_556 S
C252 C251 1.383 . S
C253 C237 1.367 1_556 S
C253 C251 1.389 . S
C253 C254 1.524 . S
C254 C253 1.524 . S
C254 C255 1.397 . S
C254 C259 1.363 . S
C255 H226 0.950 . S
C255 C254 1.397 . S
C255 C256 1.334 . S
C256 H227 0.950 . S
C256 C255 1.334 . S
C256 C257 1.287 . S
C257 C256 1.287 . S
C257 C258 1.524 . S
C257 H260 0.999 . S
C258 H228 0.950 . S
C258 C257 1.524 . S
C258 C259 1.415 . S
C259 H229 0.950 . S
C259 C254 1.363 . S
C259 C258 1.415 . S
H260 C257 0.999 . S
H261 C242 0.913 . S
H262 C280 0.951 . S
H263 C282 0.951 . S
H264 C284 0.950 . S
H265 C285 0.950 . S
H266 C287 0.950 . S
H267 C290 0.950 . S
H268 C291 0.950 . S
H269 C293 0.950 . S
H270 C294 0.950 . S
H271 C295 0.951 . S
H272 C297 0.951 . S
H273 C299 0.950 . S
H274 C300 0.950 . S
H275 C302 0.950 . S
H276 C305 0.950 . S
H277 C306 0.950 . S
H278 C308 0.950 . S
H279 C309 0.950 . S
C280 H262 0.951 . S
C280 C281 1.366 . S
C280 C282 1.388 . S
C281 C280 1.366 . S
C281 C285 1.385 . S
C282 H263 0.951 . S
C282 C280 1.388 . S
C282 C283 1.366 . S
C283 C282 1.366 . S
C283 C284 1.414 . S
C283 C286 1.499 . S
C284 H264 0.950 . S
C284 C283 1.414 . S
C284 C285 1.374 . S
C285 H265 0.950 . S
C285 C281 1.385 . S
C285 C284 1.374 . S
C286 C283 1.499 . S
C286 C287 1.373 . S
C286 C288 1.389 . S
C287 H266 0.950 . S
C287 C286 1.373 . S
C287 C303 1.377 . S
C288 C286 1.389 . S
C288 C289 1.524 . S
C288 C302 1.377 . S
C289 C288 1.524 . S
C289 C290 1.397 . S
C289 C294 1.363 . S
C290 H267 0.950 . S
C290 C289 1.397 . S
C290 C291 1.334 . S
C291 H268 0.950 . S
C291 C290 1.334 . S
C291 C292 1.287 . S
C292 C291 1.287 . S
C292 C293 1.524 . S
C292 H311 0.913 . S
C293 H269 0.950 . S
C293 C292 1.524 . S
C293 C294 1.415 . S
C294 H270 0.950 . S
C294 C289 1.363 . S
C294 C293 1.415 . S
C295 H271 0.951 . S
C295 C296 1.366 . S
C295 C297 1.388 . S
C296 C295 1.366 . S
C296 C300 1.385 . S
C297 H272 0.951 . S
C297 C295 1.388 . S
C297 C298 1.366 . S
C298 C297 1.366 . S
C298 C299 1.414 . S
C298 C301 1.499 . S
C299 H273 0.950 . S
C299 C298 1.414 . S
C299 C300 1.374 . S
C300 H274 0.950 . S
C300 C296 1.385 . S
C300 C299 1.374 . S
C301 C298 1.499 . S
C301 C302 1.373 . S
C301 C303 1.389 . S
C302 H275 0.950 . S
C302 C288 1.377 . S
C302 C301 1.373 . S
C303 C287 1.377 . S
C303 C301 1.389 . S
C303 C304 1.524 . S
C304 C303 1.524 . S
C304 C305 1.397 . S
C304 C309 1.363 . S
C305 H276 0.950 . S
C305 C304 1.397 . S
C305 C306 1.334 . S
C306 H277 0.950 . S
C306 C305 1.334 . S
C306 C307 1.287 . S
C307 C306 1.287 . S
C307 C308 1.524 . S
C307 H310 0.999 . S
C308 H278 0.950 . S
C308 C307 1.524 . S
C308 C309 1.415 . S
C309 H279 0.950 . S
C309 C304 1.363 . S
C309 C308 1.415 . S
H310 C307 0.999 . S
H311 C292 0.913 . S
H312 C330 0.951 . S
H313 C332 0.951 . S
H314 C334 0.950 . S
H315 C335 0.950 . S
H316 C337 0.950 . S
H317 C340 0.950 . S
H318 C341 0.950 . S
H319 C343 0.950 . S
H320 C344 0.950 . S
H321 C345 0.951 . S
H322 C347 0.951 . S
H323 C349 0.950 . S
H324 C350 0.950 . S
H325 C352 0.950 . S
H326 C355 0.950 . S
H327 C356 0.950 . S
H328 C358 0.950 . S
H329 C359 0.950 . S
C330 H312 0.951 . S
C330 C331 1.366 . S
C330 C332 1.388 . S
C331 C330 1.366 . S
C331 C335 1.385 . S
C332 H313 0.951 . S
C332 C330 1.388 . S
C332 C333 1.366 . S
C333 C332 1.366 . S
C333 C334 1.414 . S
C333 C336 1.499 . S
C334 H314 0.950 . S
C334 C333 1.414 . S
C334 C335 1.374 . S
C335 H315 0.950 . S
C335 C331 1.385 . S
C335 C334 1.374 . S
C336 C333 1.499 . S
C336 C337 1.373 . S
C336 C338 1.389 . S
C337 H316 0.950 . S
C337 C336 1.373 . S
C337 C353 1.377 . S
C338 C336 1.389 . S
C338 C339 1.524 . S
C338 C352 1.377 . S
C339 C338 1.524 . S
C339 C340 1.397 . S
C339 C344 1.363 . S
C340 H317 0.950 . S
C340 C339 1.397 . S
C340 C341 1.334 . S
C341 H318 0.950 . S
C341 C340 1.334 . S
C341 C342 1.287 . S
C342 C341 1.287 . S
C342 C343 1.524 . S
C342 H361 0.913 . S
C343 H319 0.950 . S
C343 C342 1.524 . S
C343 C344 1.415 . S
C344 H320 0.950 . S
C344 C339 1.363 . S
C344 C343 1.415 . S
C345 H321 0.951 . S
C345 C346 1.366 . S
C345 C347 1.388 . S
C346 C345 1.366 . S
C346 C350 1.385 . S
C347 H322 0.951 . S
C347 C345 1.388 . S
C347 C348 1.366 . S
C348 C347 1.366 . S
C348 C349 1.414 . S
C348 C351 1.499 . S
C349 H323 0.950 . S
C349 C348 1.414 . S
C349 C350 1.374 . S
C350 H324 0.950 . S
C350 C346 1.385 . S
C350 C349 1.374 . S
C351 C348 1.499 . S
C351 C352 1.373 . S
C351 C353 1.389 . S
C352 H325 0.950 . S
C352 C338 1.377 . S
C352 C351 1.373 . S
C353 C337 1.377 . S
C353 C351 1.389 . S
C353 C354 1.524 . S
C354 C353 1.524 . S
C354 C355 1.397 . S
C354 C359 1.363 . S
C355 H326 0.950 . S
C355 C354 1.397 . S
C355 C356 1.334 . S
C356 H327 0.950 . S
C356 C355 1.334 . S
C356 C357 1.287 . S
C357 C356 1.287 . S
C357 C358 1.524 . S
C357 H360 0.999 . S
C358 H328 0.950 . S
C358 C357 1.524 . S
C358 C359 1.415 . S
C359 H329 0.950 . S
C359 C354 1.363 . S
C359 C358 1.415 . S
H360 C357 0.999 . S
H361 C342 0.913 . S
H362 C380 0.951 . S
H363 C382 0.951 . S
H364 C384 0.950 . S
H365 C385 0.950 . S
H366 C387 0.950 . S
H367 C390 0.950 . S
H368 C391 0.950 . S
H369 C393 0.950 . S
H370 C394 0.950 . S
H371 C395 0.951 . S
H372 C397 0.951 . S
H373 C399 0.950 . S
H374 C400 0.950 . S
H375 C402 0.950 . S
H376 C405 0.950 . S
H377 C406 0.950 . S
H378 C408 0.950 . S
H379 C409 0.950 . S
C380 H362 0.951 . S
C380 C381 1.366 . S
C380 C382 1.388 . S
C381 C380 1.366 . S
C381 C385 1.385 . S
C382 H363 0.951 . S
C382 C380 1.388 . S
C382 C383 1.366 . S
C383 C382 1.366 . S
C383 C384 1.414 . S
C383 C386 1.499 . S
C384 H364 0.950 . S
C384 C383 1.414 . S
C384 C385 1.374 . S
C385 H365 0.950 . S
C385 C381 1.385 . S
C385 C384 1.374 . S
C386 C383 1.499 . S
C386 C387 1.373 . S
C386 C388 1.389 . S
C387 H366 0.950 . S
C387 C386 1.373 . S
C387 C403 1.377 . S
C388 C386 1.389 . S
C388 C389 1.524 . S
C388 C402 1.377 . S
C389 C388 1.524 . S
C389 C390 1.397 . S
C389 C394 1.363 . S
C390 H367 0.950 . S
C390 C389 1.397 . S
C390 C391 1.334 . S
C391 H368 0.950 . S
C391 C390 1.334 . S
C391 C392 1.287 . S
C392 C391 1.287 . S
C392 C393 1.524 . S
C392 H411 0.913 . S
C393 H369 0.950 . S
C393 C392 1.524 . S
C393 C394 1.415 . S
C394 H370 0.950 . S
C394 C389 1.363 . S
C394 C393 1.415 . S
C395 H371 0.951 . S
C395 C396 1.366 . S
C395 C397 1.388 . S
C396 C395 1.366 . S
C396 C400 1.385 . S
C397 H372 0.951 . S
C397 C395 1.388 . S
C397 C398 1.366 . S
C398 C397 1.366 . S
C398 C399 1.414 . S
C398 C401 1.499 . S
C399 H373 0.950 . S
C399 C398 1.414 . S
C399 C400 1.374 . S
C400 H374 0.950 . S
C400 C396 1.385 . S
C400 C399 1.374 . S
C401 C398 1.499 . S
C401 C402 1.373 . S
C401 C403 1.389 . S
C402 H375 0.950 . S
C402 C388 1.377 . S
C402 C401 1.373 . S
C403 C387 1.377 . S
C403 C401 1.389 . S
C403 C404 1.524 . S
C404 C403 1.524 . S
C404 C405 1.397 . S
C404 C409 1.363 . S
C405 H376 0.950 . S
C405 C404 1.397 . S
C405 C406 1.334 . S
C406 H377 0.950 . S
C406 C405 1.334 . S
C406 C407 1.287 . S
C407 C406 1.287 . S
C407 C408 1.524 . S
C407 H410 0.999 . S
C408 H378 0.950 . S
C408 C407 1.524 . S
C408 C409 1.415 . S
C409 H379 0.950 . S
C409 C404 1.363 . S
C409 C408 1.415 . S
H410 C407 0.999 . S
H411 C392 0.913 . S
H412 C430 0.951 . S
H413 C432 0.951 . S
H414 C434 0.950 . S
H415 C435 0.950 . S
H416 C437 0.950 . S
H417 C440 0.950 . S
H418 C441 0.950 . S
H419 C443 0.950 . S
H420 C444 0.950 . S
H421 C445 0.951 . S
H422 C447 0.951 . S
H423 C449 0.950 . S
H424 C450 0.950 . S
H425 C452 0.950 . S
H426 C455 0.950 . S
H427 C456 0.950 . S
H428 C458 0.950 . S
H429 C459 0.950 . S
C430 H412 0.951 . S
C430 C431 1.366 . S
C430 C432 1.388 . S
C431 C430 1.366 . S
C431 C435 1.385 . S
C432 H413 0.951 . S
C432 C430 1.388 . S
C432 C433 1.366 . S
C433 C432 1.366 . S
C433 C434 1.414 . S
C433 C436 1.499 . S
C434 H414 0.950 . S
C434 C433 1.414 . S
C434 C435 1.374 . S
C435 H415 0.950 . S
C435 C431 1.385 . S
C435 C434 1.374 . S
C436 C433 1.499 . S
C436 C437 1.373 . S
C436 C438 1.389 . S
C437 H416 0.950 . S
C437 C436 1.373 . S
C437 C453 1.377 . S
C438 C436 1.389 . S
C438 C439 1.524 . S
C438 C452 1.377 . S
C439 C438 1.524 . S
C439 C440 1.397 . S
C439 C444 1.363 . S
C440 H417 0.950 . S
C440 C439 1.397 . S
C440 C441 1.334 . S
C441 H418 0.950 . S
C441 C440 1.334 . S
C441 C442 1.287 . S
C442 C441 1.287 . S
C442 C443 1.524 . S
C442 H461 0.913 . S
C443 H419 0.950 . S
C443 C442 1.524 . S
C443 C444 1.415 . S
C444 H420 0.950 . S
C444 C439 1.363 . S
C444 C443 1.415 . S
C445 H421 0.951 . S
C445 C446 1.366 . S
C445 C447 1.388 . S
C446 C445 1.366 . S
C446 C450 1.385 . S
C447 H422 0.951 . S
C447 C445 1.388 . S
C447 C448 1.366 . S
C448 C447 1.366 . S
C448 C449 1.414 . S
C448 C451 1.499 . S
C449 H423 0.950 . S
C449 C448 1.414 . S
C449 C450 1.374 . S
C450 H424 0.950 . S
C450 C446 1.385 . S
C450 C449 1.374 . S
C451 C448 1.499 . S
C451 C452 1.373 . S
C451 C453 1.389 . S
C452 H425 0.950 . S
C452 C438 1.377 . S
C452 C451 1.373 . S
C453 C437 1.377 . S
C453 C451 1.389 . S
C453 C454 1.524 . S
C454 C453 1.524 . S
C454 C455 1.397 . S
C454 C459 1.363 . S
C455 H426 0.950 . S
C455 C454 1.397 . S
C455 C456 1.334 . S
C456 H427 0.950 . S
C456 C455 1.334 . S
C456 C457 1.287 . S
C457 C456 1.287 . S
C457 C458 1.524 . S
C457 H460 0.999 . S
C458 H428 0.950 . S
C458 C457 1.524 . S
C458 C459 1.415 . S
C459 H429 0.950 . S
C459 C454 1.363 . S
C459 C458 1.415 . S
H460 C457 0.999 . S
H461 C442 0.913 . S
H462 C480 0.951 . S
H463 C482 0.951 . S
H464 C484 0.950 . S
H465 C485 0.950 . S
H466 C487 0.950 . S
H467 C490 0.950 . S
H468 C491 0.950 . S
H469 C493 0.950 . S
H470 C494 0.950 . S
H471 C495 0.951 . S
H472 C497 0.951 . S
H473 C499 0.950 . S
H474 C500 0.950 . S
H475 C502 0.950 . S
H476 C505 0.950 . S
H477 C506 0.950 . S
H478 C508 0.950 . S
H479 C509 0.950 . S
C480 H462 0.951 . S
C480 C481 1.366 . S
C480 C482 1.388 . S
C481 C480 1.366 . S
C481 C485 1.385 . S
C482 H463 0.951 . S
C482 C480 1.388 . S
C482 C483 1.366 . S
C483 C482 1.366 . S
C483 C484 1.414 . S
C483 C486 1.499 . S
C484 H464 0.950 . S
C484 C483 1.414 . S
C484 C485 1.374 . S
C485 H465 0.950 . S
C485 C481 1.385 . S
C485 C484 1.374 . S
C486 C483 1.499 . S
C486 C487 1.373 . S
C486 C488 1.389 . S
C487 H466 0.950 . S
C487 C486 1.373 . S
C487 C503 1.377 . S
C488 C486 1.389 . S
C488 C489 1.524 . S
C488 C502 1.377 . S
C489 C488 1.524 . S
C489 C490 1.397 . S
C489 C494 1.363 . S
C490 H467 0.950 . S
C490 C489 1.397 . S
C490 C491 1.334 . S
C491 H468 0.950 . S
C491 C490 1.334 . S
C491 C492 1.287 . S
C492 C491 1.287 . S
C492 C493 1.524 . S
C492 H511 0.913 . S
C493 H469 0.950 . S
C493 C492 1.524 . S
C493 C494 1.415 . S
C494 H470 0.950 . S
C494 C489 1.363 . S
C494 C493 1.415 . S
C495 H471 0.951 . S
C495 C496 1.366 . S
C495 C497 1.388 . S
C496 C495 1.366 . S
C496 C500 1.385 . S
C497 H472 0.951 . S
C497 C495 1.388 . S
C497 C498 1.366 . S
C498 C497 1.366 . S
C498 C499 1.414 . S
C498 C501 1.499 . S
C499 H473 0.950 . S
C499 C498 1.414 . S
C499 C500 1.374 . S
C500 H474 0.950 . S
C500 C496 1.385 . S
C500 C499 1.374 . S
C501 C498 1.499 . S
C501 C502 1.373 . S
C501 C503 1.389 . S
C502 H475 0.950 . S
C502 C488 1.377 . S
C502 C501 1.373 . S
C503 C487 1.377 . S
C503 C501 1.389 . S
C503 C504 1.524 . S
C504 C503 1.524 . S
C504 C505 1.397 . S
C504 C509 1.363 . S
C505 H476 0.950 . S
C505 C504 1.397 . S
C505 C506 1.334 . S
C506 H477 0.950 . S
C506 C505 1.334 . S
C506 C507 1.287 . S
C507 C506 1.287 . S
C507 C508 1.524 . S
C507 H510 0.999 . S
C508 H478 0.950 . S
C508 C507 1.524 . S
C508 C509 1.415 . S
C509 H479 0.950 . S
C509 C504 1.363 . S
C509 C508 1.415 . S
H510 C507 0.999 . S
H511 C492 0.913 . S
H512 C530 0.951 . S
H513 C532 0.951 . S
H514 C534 0.950 . S
H515 C535 0.950 . S
H516 C537 0.950 . S
H517 C540 0.950 . S
H518 C541 0.950 . S
H519 C543 0.950 . S
H520 C544 0.950 . S
H521 C545 0.951 . S
H522 C547 0.951 . S
H523 C549 0.950 . S
H524 C550 0.950 . S
H525 C552 0.950 . S
H526 C555 0.950 . S
H527 C556 0.950 . S
H528 C558 0.950 . S
H529 C559 0.950 . S
C530 H512 0.951 . S
C530 C531 1.366 . S
C530 C532 1.388 . S
C531 C530 1.366 . S
C531 C535 1.385 . S
C532 H513 0.951 . S
C532 C530 1.388 . S
C532 C533 1.366 . S
C533 C532 1.366 . S
C533 C534 1.414 . S
C533 C536 1.499 . S
C534 H514 0.950 . S
C534 C533 1.414 . S
C534 C535 1.374 . S
C535 H515 0.950 . S
C535 C531 1.385 . S
C535 C534 1.374 . S
C536 C533 1.499 . S
C536 C537 1.373 . S
C536 C538 1.389 . S
C537 H516 0.950 . S
C537 C536 1.373 . S
C537 C553 1.377 . S
C538 C536 1.389 . S
C538 C539 1.524 . S
C538 C552 1.377 . S
C539 C538 1.524 . S
C539 C540 1.397 . S
C539 C544 1.363 . S
C540 H517 0.950 . S
C540 C539 1.397 . S
C540 C541 1.334 . S
C541 H518 0.950 . S
C541 C540 1.334 . S
C541 C542 1.287 . S
C542 C541 1.287 . S
C542 C543 1.524 . S
C542 H561 0.913 . S
C543 H519 0.950 . S
C543 C542 1.524 . S
C543 C544 1.415 . S
C544 H520 0.950 . S
C544 C539 1.363 . S
C544 C543 1.415 . S
C545 H521 0.951 . S
C545 C546 1.366 . S
C545 C547 1.388 . S
C546 C545 1.366 . S
C546 C550 1.385 . S
C547 H522 0.951 . S
C547 C545 1.388 . S
C547 C548 1.366 . S
C548 C547 1.366 . S
C548 C549 1.414 . S
C548 C551 1.499 . S
C549 H523 0.950 . S
C549 C548 1.414 . S
C549 C550 1.374 . S
C550 H524 0.950 . S
C550 C546 1.385 . S
C550 C549 1.374 . S
C551 C548 1.499 . S
C551 C552 1.373 . S
C551 C553 1.389 . S
C552 H525 0.950 . S
C552 C538 1.377 . S
C552 C551 1.373 . S
C553 C537 1.377 . S
C553 C551 1.389 . S
C553 C554 1.524 . S
C554 C553 1.524 . S
C554 C555 1.397 . S
C554 C559 1.363 . S
C555 H526 0.950 . S
C555 C554 1.397 . S
C555 C556 1.334 . S
C556 H527 0.950 . S
C556 C555 1.334 . S
C556 C557 1.287 . S
C557 C556 1.287 . S
C557 C558 1.524 . S
C557 H560 0.999 . S
C558 H528 0.950 . S
C558 C557 1.524 . S
C558 C559 1.415 . S
C559 H529 0.950 . S
C559 C554 1.363 . S
C559 C558 1.415 . S
H560 C557 0.999 . S
H561 C542 0.913 . S
H562 C580 0.951 . S
H563 C582 0.951 . S
H564 C584 0.950 . S
H565 C585 0.950 . S
H566 C587 0.950 . S
H567 C590 0.950 . S
H568 C591 0.950 . S
H569 C593 0.950 . S
H570 C594 0.950 . S
H571 C595 0.951 . S
H572 C597 0.951 . S
H573 C599 0.950 . S
H574 C600 0.950 . S
H575 C602 0.950 . S
H576 C605 0.950 . S
H577 C606 0.950 . S
H578 C608 0.950 . S
H579 C609 0.950 . S
C580 H562 0.951 . S
C580 C581 1.366 . S
C580 C582 1.388 . S
C581 C580 1.366 . S
C581 C585 1.385 . S
C582 H563 0.951 . S
C582 C580 1.388 . S
C582 C583 1.366 . S
C583 C582 1.366 . S
C583 C584 1.414 . S
C583 C586 1.499 . S
C584 H564 0.950 . S
C584 C583 1.414 . S
C584 C585 1.374 . S
C585 H565 0.950 . S
C585 C581 1.385 . S
C585 C584 1.374 . S
C586 C583 1.499 . S
C586 C587 1.373 . S
C586 C588 1.389 . S
C587 H566 0.950 . S
C587 C586 1.373 . S
C587 C603 1.377 . S
C588 C586 1.389 . S
C588 C589 1.524 . S
C588 C602 1.377 . S
C589 C588 1.524 . S
C589 C590 1.397 . S
C589 C594 1.363 . S
C590 H567 0.950 . S
C590 C589 1.397 . S
C590 C591 1.334 . S
C591 H568 0.950 . S
C591 C590 1.334 . S
C591 C592 1.287 . S
C592 C591 1.287 . S
C592 C593 1.524 . S
C592 H611 0.913 . S
C593 H569 0.950 . S
C593 C592 1.524 . S
C593 C594 1.415 . S
C594 H570 0.950 . S
C594 C589 1.363 . S
C594 C593 1.415 . S
C595 H571 0.951 . S
C595 C596 1.366 . S
C595 C597 1.388 . S
C596 C595 1.366 . S
C596 C600 1.385 . S
C597 H572 0.951 . S
C597 C595 1.388 . S
C597 C598 1.366 . S
C598 C597 1.366 . S
C598 C599 1.414 . S
C598 C601 1.499 . S
C599 H573 0.950 . S
C599 C598 1.414 . S
C599 C600 1.374 . S
C600 H574 0.950 . S
C600 C596 1.385 . S
C600 C599 1.374 . S
C601 C598 1.499 . S
C601 C602 1.373 . S
C601 C603 1.389 . S
C602 H575 0.950 . S
C602 C588 1.377 . S
C602 C601 1.373 . S
C603 C587 1.377 . S
C603 C601 1.389 . S
C603 C604 1.524 . S
C604 C603 1.524 . S
C604 C605 1.397 . S
C604 C609 1.363 . S
C605 H576 0.950 . S
C605 C604 1.397 . S
C605 C606 1.334 . S
C606 H577 0.950 . S
C606 C605 1.334 . S
C606 C607 1.287 . S
C607 C606 1.287 . S
C607 C608 1.524 . S
C607 H610 0.999 . S
C608 H578 0.950 . S
C608 C607 1.524 . S
C608 C609 1.415 . S
C609 H579 0.950 . S
C609 C604 1.363 . S
C609 C608 1.415 . S
H610 C607 0.999 . S
H611 C592 0.913 . S
H612 C630 0.951 . S
H613 C632 0.951 . S
H614 C634 0.950 . S
H615 C635 0.950 . S
H616 C637 0.950 . S
H617 C640 0.950 . S
H618 C641 0.950 . S
H619 C643 0.950 . S
H620 C644 0.950 . S
H621 C645 0.951 . S
H622 C647 0.951 . S
H623 C649 0.950 . S
H624 C650 0.950 . S
H625 C652 0.950 . S
H626 C655 0.950 . S
H627 C656 0.950 . S
H628 C658 0.950 . S
H629 C659 0.950 . S
C630 H612 0.951 . S
C630 C631 1.366 . S
C630 C632 1.388 . S
C631 C630 1.366 . S
C631 C635 1.385 . S
C632 H613 0.951 . S
C632 C630 1.388 . S
C632 C633 1.366 . S
C633 C632 1.366 . S
C633 C634 1.414 . S
C633 C636 1.499 . S
C634 H614 0.950 . S
C634 C633 1.414 . S
C634 C635 1.374 . S
C635 H615 0.950 . S
C635 C631 1.385 . S
C635 C634 1.374 . S
C636 C633 1.499 . S
C636 C637 1.373 . S
C636 C638 1.389 . S
C637 H616 0.950 . S
C637 C636 1.373 . S
C637 C653 1.377 . S
C638 C636 1.389 . S
C638 C639 1.524 . S
C638 C652 1.377 . S
C639 C638 1.524 . S
C639 C640 1.397 . S
C639 C644 1.363 . S
C640 H617 0.950 . S
C640 C639 1.397 . S
C640 C641 1.334 . S
C641 H618 0.950 . S
C641 C640 1.334 . S
C641 C642 1.287 . S
C642 C641 1.287 . S
C642 C643 1.524 . S
C642 H661 0.913 . S
C643 H619 0.950 . S
C643 C642 1.524 . S
C643 C644 1.415 . S
C644 H620 0.950 . S
C644 C639 1.363 . S
C644 C643 1.415 . S
C645 H621 0.951 . S
C645 C646 1.366 . S
C645 C647 1.388 . S
C646 C645 1.366 . S
C646 C650 1.385 . S
C647 H622 0.951 . S
C647 C645 1.388 . S
C647 C648 1.366 . S
C648 C647 1.366 . S
C648 C649 1.414 . S
C648 C651 1.499 . S
C649 H623 0.950 . S
C649 C648 1.414 . S
C649 C650 1.374 . S
C650 H624 0.950 . S
C650 C646 1.385 . S
C650 C649 1.374 . S
C651 C648 1.499 . S
C651 C652 1.373 . S
C651 C653 1.389 . S
C652 H625 0.950 . S
C652 C638 1.377 . S
C652 C651 1.373 . S
C653 C637 1.377 . S
C653 C651 1.389 . S
C653 C654 1.524 . S
C654 C653 1.524 . S
C654 C655 1.397 . S
C654 C659 1.363 . S
C655 H626 0.950 . S
C655 C654 1.397 . S
C655 C656 1.334 . S
C656 H627 0.950 . S
C656 C655 1.334 . S
C656 C657 1.287 . S
C657 C656 1.287 . S
C657 C658 1.524 . S
C657 H660 0.999 . S
C658 H628 0.950 . S
C658 C657 1.524 . S
C658 C659 1.415 . S
C659 H629 0.950 . S
C659 C654 1.363 . S
C659 C658 1.415 . S
H660 C657 0.999 . S
H661 C642 0.913 . S
H662 C680 0.951 . S
H663 C682 0.951 . S
H664 C684 0.950 . S
H665 C685 0.950 . S
H666 C687 0.950 . S
H667 C690 0.950 . S
H668 C691 0.950 . S
H669 C693 0.950 . S
H670 C694 0.950 . S
H671 C695 0.951 . S
H672 C697 0.951 . S
H673 C699 0.950 . S
H674 C700 0.950 . S
H675 C702 0.950 . S
H676 C705 0.950 . S
H677 C706 0.950 . S
H678 C708 0.950 . S
H679 C709 0.950 . S
C680 H662 0.951 . S
C680 C681 1.366 . S
C680 C682 1.388 . S
C681 C680 1.366 . S
C681 C685 1.385 . S
C682 H663 0.951 . S
C682 C680 1.388 . S
C682 C683 1.366 . S
C683 C682 1.366 . S
C683 C684 1.414 . S
C683 C686 1.499 . S
C684 H664 0.950 . S
C684 C683 1.414 . S
C684 C685 1.374 . S
C685 H665 0.950 . S
C685 C681 1.385 . S
C685 C684 1.374 . S
C686 C683 1.499 . S
C686 C687 1.373 . S
C686 C688 1.389 . S
C687 H666 0.950 . S
C687 C686 1.373 . S
C687 C703 1.377 . S
C688 C686 1.389 . S
C688 C689 1.524 . S
C688 C702 1.377 . S
C689 C688 1.524 . S
C689 C690 1.397 . S
C689 C694 1.363 . S
C690 H667 0.950 . S
C690 C689 1.397 . S
C690 C691 1.334 . S
C691 H668 0.950 . S
C691 C690 1.334 . S
C691 C692 1.287 . S
C692 C691 1.287 . S
C692 C693 1.524 . S
C692 H711 0.913 . S
C693 H669 0.950 . S
C693 C692 1.524 . S
C693 C694 1.415 . S
C694 H670 0.950 . S
C694 C689 1.363 . S
C694 C693 1.415 . S
C695 H671 0.951 . S
C695 C696 1.366 . S
C695 C697 1.388 . S
C696 C695 1.366 . S
C696 C700 1.385 . S
C697 H672 0.951 . S
C697 C695 1.388 . S
C697 C698 1.366 . S
C698 C697 1.366 . S
C698 C699 1.414 . S
C698 C701 1.499 . S
C699 H673 0.950 . S
C699 C698 1.414 . S
C699 C700 1.374 . S
C700 H674 0.950 . S
C700 C696 1.385 . S
C700 C699 1.374 . S
C701 C698 1.499 . S
C701 C702 1.373 . S
C701 C703 1.389 . S
C702 H675 0.950 . S
C702 C688 1.377 . S
C702 C701 1.373 . S
C703 C687 1.377 . S
C703 C701 1.389 . S
C703 C704 1.524 . S
C704 C703 1.524 . S
C704 C705 1.397 . S
C704 C709 1.363 . S
C705 H676 0.950 . S
C705 C704 1.397 . S
C705 C706 1.334 . S
C706 H677 0.950 . S
C706 C705 1.334 . S
C706 C707 1.287 . S
C707 C706 1.287 . S
C707 C708 1.524 . S
C707 H710 0.999 . S
C708 H678 0.950 . S
C708 C707 1.524 . S
C708 C709 1.415 . S
C709 H679 0.950 . S
C709 C704 1.363 . S
C709 C708 1.415 . S
H710 C707 0.999 . S
H711 C692 0.913 . S
H712 C730 0.951 . S
H713 C732 0.951 1_455 S
H714 C734 0.950 . S
H715 C735 0.950 . S
H716 C737 0.950 . S
H717 C740 0.950 . S
H718 C741 0.950 . S
H719 C743 0.950 . S
H720 C744 0.950 1_455 S
H721 C745 0.951 . S
H722 C747 0.951 1_655 S
H723 C749 0.950 . S
H724 C750 0.950 . S
H725 C752 0.950 . S
H726 C755 0.950 . S
H727 C756 0.950 . S
H728 C758 0.950 . S
H729 C759 0.950 1_655 S
C730 H712 0.951 . S
C730 C731 1.366 . S
C730 C732 1.388 . S
C731 C730 1.366 . S
C731 C735 1.385 . S
C732 H713 0.951 1_655 S
C732 C730 1.388 . S
C732 C733 1.366 . S
C733 C732 1.366 . S
C733 C734 1.414 . S
C733 C736 1.499 . S
C734 H714 0.950 . S
C734 C733 1.414 . S
C734 C735 1.374 . S
C735 H715 0.950 . S
C735 C731 1.385 . S
C735 C734 1.374 . S
C736 C733 1.499 . S
C736 C737 1.373 1_655 S
C736 C738 1.389 . S
C737 H716 0.950 . S
C737 C736 1.373 1_455 S
C737 C753 1.377 . S
C738 C736 1.389 . S
C738 C739 1.524 . S
C738 C752 1.377 . S
C739 C738 1.524 . S
C739 C740 1.397 . S
C739 C744 1.363 . S
C740 H717 0.950 . S
C740 C739 1.397 . S
C740 C741 1.334 . S
C741 H718 0.950 . S
C741 C740 1.334 . S
C741 C742 1.287 . S
C742 C741 1.287 . S
C742 C743 1.524 . S
C742 H761 0.913 . S
C743 H719 0.950 . S
C743 C742 1.524 . S
C743 C744 1.415 . S
C744 H720 0.950 1_655 S
C744 C739 1.363 . S
C744 C743 1.415 . S
C745 H721 0.951 . S
C745 C746 1.366 . S
C745 C747 1.388 . S
C746 C745 1.366 . S
C746 C750 1.385 . S
C747 H722 0.951 1_455 S
C747 C745 1.388 . S
C747 C748 1.366 . S
C748 C747 1.366 . S
C748 C749 1.414 . S
C748 C751 1.499 . S
C749 H723 0.950 . S
C749 C748 1.414 . S
C749 C750 1.374 . S
C750 H724 0.950 . S
C750 C746 1.385 . S
C750 C749 1.374 . S
C751 C748 1.499 . S
C751 C752 1.373 1_455 S
C751 C753 1.389 . S
C752 H725 0.950 . S
C752 C738 1.377 . S
C752 C751 1.373 1_655 S
C753 C737 1.377 . S
C753 C751 1.389 . S
C753 C754 1.524 . S
C754 C753 1.524 . S
C754 C755 1.397 . S
C754 C759 1.363 . S
C755 H726 0.950 . S
C755 C754 1.397 . S
C755 C756 1.334 . S
C756 H727 0.950 . S
C756 C755 1.334 . S
C756 C757 1.287 . S
C757 C756 1.287 . S
C757 C758 1.524 . S
C757 H760 0.999 . S
C758 H728 0.950 . S
C758 C757 1.524 . S
C758 C759 1.415 . S
C759 H729 0.950 1_455 S
C759 C754 1.363 . S
C759 C758 1.415 . S
H760 C757 0.999 . S
H761 C742 0.913 . S
H762 C780 0.951 . S
H763 C782 0.951 . S
H764 C784 0.950 . S
H765 C785 0.950 . S
H766 C787 0.950 . S
H767 C790 0.950 . S
H768 C791 0.950 . S
H769 C793 0.950 1_455 S
H770 C794 0.950 . S
H771 C795 0.951 . S
H772 C797 0.951 . S
H773 C799 0.950 . S
H774 C800 0.950 . S
H775 C802 0.950 . S
H776 C805 0.950 . S
H777 C806 0.950 . S
H778 C808 0.950 1_655 S
H779 C809 0.950 . S
C780 H762 0.951 . S
C780 C781 1.366 . S
C780 C782 1.388 . S
C781 C780 1.366 . S
C781 C785 1.385 . S
C782 H763 0.951 . S
C782 C780 1.388 . S
C782 C783 1.366 . S
C783 C782 1.366 . S
C783 C784 1.414 . S
C783 C786 1.499 . S
C784 H764 0.950 . S
C784 C783 1.414 . S
C784 C785 1.374 . S
C785 H765 0.950 . S
C785 C781 1.385 . S
C785 C784 1.374 . S
C786 C783 1.499 . S
C786 C787 1.373 . S
C786 C788 1.389 . S
C787 H766 0.950 . S
C787 C786 1.373 . S
C787 C803 1.377 1_655 S
C788 C786 1.389 . S
C788 C789 1.524 . S
C788 C802 1.377 1_655 S
C789 C788 1.524 . S
C789 C790 1.397 . S
C789 C794 1.363 1_655 S
C790 H767 0.950 . S
C790 C789 1.397 . S
C790 C791 1.334 . S
C791 H768 0.950 . S
C791 C790 1.334 . S
C791 C792 1.287 . S
C792 C791 1.287 . S
C792 C793 1.524 . S
C792 H811 0.913 . S
C793 H769 0.950 1_655 S
C793 C792 1.524 . S
C793 C794 1.415 1_655 S
C794 H770 0.950 . S
C794 C789 1.363 1_455 S
C794 C793 1.415 1_455 S
C795 H771 0.951 . S
C795 C796 1.366 . S
C795 C797 1.388 . S
C796 C795 1.366 . S
C796 C800 1.385 . S
C797 H772 0.951 . S
C797 C795 1.388 . S
C797 C798 1.366 . S
C798 C797 1.366 . S
C798 C799 1.414 . S
C798 C801 1.499 . S
C799 H773 0.950 . S
C799 C798 1.414 . S
C799 C800 1.374 . S
C800 H774 0.950 . S
C800 C796 1.385 . S
C800 C799 1.374 . S
C801 C798 1.499 . S
C801 C802 1.373 . S
C801 C803 1.389 . S
C802 H775 0.950 . S
C802 C788 1.377 1_455 S
C802 C801 1.373 . S
C803 C787 1.377 1_455 S
C803 C801 1.389 . S
C803 C804 1.524 . S
C804 C803 1.524 . S
C804 C805 1.397 . S
C804 C809 1.363 1_455 S
C805 H776 0.950 . S
C805 C804 1.397 . S
C805 C806 1.334 . S
C806 H777 0.950 . S
C806 C805 1.334 . S
C806 C807 1.287 . S
C807 C806 1.287 . S
C807 C808 1.524 . S
C807 H810 0.999 . S
C808 H778 0.950 1_455 S
C808 C807 1.524 . S
C808 C809 1.415 1_455 S
C809 H779 0.950 . S
C809 C804 1.363 1_655 S
C809 C808 1.415 1_655 S
H810 C807 0.999 . S
H811 C792 0.913 . S
H812 C830 0.951 . S
H813 C832 0.951 . S
H814 C834 0.950 . S
H815 C835 0.950 . S
H816 C837 0.950 . S
H817 C840 0.950 . S
H818 C841 0.950 . S
H819 C843 0.950 . S
H820 C844 0.950 . S
H821 C845 0.951 . S
H822 C847 0.951 . S
H823 C849 0.950 . S
H824 C850 0.950 . S
H825 C852 0.950 . S
H826 C855 0.950 . S
H827 C856 0.950 . S
H828 C858 0.950 . S
H829 C859 0.950 . S
C830 H812 0.951 . S
C830 C831 1.366 . S
C830 C832 1.388 . S
C831 C830 1.366 . S
C831 C835 1.385 . S
C832 H813 0.951 . S
C832 C830 1.388 . S
C832 C833 1.366 . S
C833 C832 1.366 . S
C833 C834 1.414 . S
C833 C836 1.499 . S
C834 H814 0.950 . S
C834 C833 1.414 . S
C834 C835 1.374 . S
C835 H815 0.950 . S
C835 C831 1.385 . S
C835 C834 1.374 . S
C836 C833 1.499 . S
C836 C837 1.373 . S
C836 C838 1.389 . S
C837 H816 0.950 . S
C837 C836 1.373 . S
C837 C853 1.377 1_545 S
C838 C836 1.389 . S
C838 C839 1.524 . S
C838 C852 1.377 1_545 S
C839 C838 1.524 . S
C839 C840 1.397 . S
C839 C844 1.363 . S
C840 H817 0.950 . S
C840 C839 1.397 . S
C840 C841 1.334 . S
C841 H818 0.950 . S
C841 C840 1.334 . S
C841 C842 1.287 . S
C842 C841 1.287 . S
C842 C843 1.524 . S
C842 H861 0.913 . S
C843 H819 0.950 . S
C843 C842 1.524 . S
C843 C844 1.415 . S
C844 H820 0.950 . S
C844 C839 1.363 . S
C844 C843 1.415 . S
C845 H821 0.951 . S
C845 C846 1.366 . S
C845 C847 1.388 . S
C846 C845 1.366 . S
C846 C850 1.385 . S
C847 H822 0.951 . S
C847 C845 1.388 . S
C847 C848 1.366 . S
C848 C847 1.366 . S
C848 C849 1.414 . S
C848 C851 1.499 . S
C849 H823 0.950 . S
C849 C848 1.414 . S
C849 C850 1.374 . S
C850 H824 0.950 . S
C850 C846 1.385 . S
C850 C849 1.374 . S
C851 C848 1.499 . S
C851 C852 1.373 . S
C851 C853 1.389 . S
C852 H825 0.950 . S
C852 C838 1.377 1_565 S
C852 C851 1.373 . S
C853 C837 1.377 1_565 S
C853 C851 1.389 . S
C853 C854 1.524 . S
C854 C853 1.524 . S
C854 C855 1.397 . S
C854 C859 1.363 . S
C855 H826 0.950 . S
C855 C854 1.397 . S
C855 C856 1.334 . S
C856 H827 0.950 . S
C856 C855 1.334 . S
C856 C857 1.287 . S
C857 C856 1.287 . S
C857 C858 1.524 . S
C857 H860 0.999 . S
C858 H828 0.950 . S
C858 C857 1.524 . S
C858 C859 1.415 . S
C859 H829 0.950 . S
C859 C854 1.363 . S
C859 C858 1.415 . S
H860 C857 0.999 . S
H861 C842 0.913 . S
H862 C880 0.951 . S
H863 C882 0.951 1_565 S
H864 C884 0.950 . S
H865 C885 0.950 . S
H866 C887 0.950 . S
H867 C890 0.950 . S
H868 C891 0.950 . S
H869 C893 0.950 . S
H870 C894 0.950 . S
H871 C895 0.951 . S
H872 C897 0.951 1_545 S
H873 C899 0.950 . S
H874 C900 0.950 . S
H875 C902 0.950 . S
H876 C905 0.950 . S
H877 C906 0.950 . S
H878 C908 0.950 . S
H879 C909 0.950 . S
C880 H862 0.951 . S
C880 C881 1.366 . S
C880 C882 1.388 . S
C881 C880 1.366 . S
C881 C885 1.385 . S
C882 H863 0.951 1_545 S
C882 C880 1.388 . S
C882 C883 1.366 . S
C883 C882 1.366 . S
C883 C884 1.414 . S
C883 C886 1.499 . S
C884 H864 0.950 . S
C884 C883 1.414 . S
C884 C885 1.374 . S
C885 H865 0.950 . S
C885 C881 1.385 . S
C885 C884 1.374 . S
C886 C883 1.499 . S
C886 C887 1.373 . S
C886 C888 1.389 1_545 S
C887 H866 0.950 . S
C887 C886 1.373 . S
C887 C903 1.377 . S
C888 C886 1.389 1_565 S
C888 C889 1.524 . S
C888 C902 1.377 . S
C889 C888 1.524 . S
C889 C890 1.397 . S
C889 C894 1.363 . S
C890 H867 0.950 . S
C890 C889 1.397 . S
C890 C891 1.334 . S
C891 H868 0.950 . S
C891 C890 1.334 . S
C891 C892 1.287 . S
C892 C891 1.287 . S
C892 C893 1.524 . S
C892 H911 0.913 . S
C893 H869 0.950 . S
C893 C892 1.524 . S
C893 C894 1.415 . S
C894 H870 0.950 . S
C894 C889 1.363 . S
C894 C893 1.415 . S
C895 H871 0.951 . S
C895 C896 1.366 . S
C895 C897 1.388 . S
C896 C895 1.366 . S
C896 C900 1.385 . S
C897 H872 0.951 1_565 S
C897 C895 1.388 . S
C897 C898 1.366 . S
C898 C897 1.366 . S
C898 C899 1.414 . S
C898 C901 1.499 . S
C899 H873 0.950 . S
C899 C898 1.414 . S
C899 C900 1.374 . S
C900 H874 0.950 . S
C900 C896 1.385 . S
C900 C899 1.374 . S
C901 C898 1.499 . S
C901 C902 1.373 . S
C901 C903 1.389 1_565 S
C902 H875 0.950 . S
C902 C888 1.377 . S
C902 C901 1.373 . S
C903 C887 1.377 . S
C903 C901 1.389 1_545 S
C903 C904 1.524 . S
C904 C903 1.524 . S
C904 C905 1.397 . S
C904 C909 1.363 . S
C905 H876 0.950 . S
C905 C904 1.397 . S
C905 C906 1.334 . S
C906 H877 0.950 . S
C906 C905 1.334 . S
C906 C907 1.287 . S
C907 C906 1.287 . S
C907 C908 1.524 . S
C907 H910 0.999 . S
C908 H878 0.950 . S
C908 C907 1.524 . S
C908 C909 1.415 . S
C909 H879 0.950 . S
C909 C904 1.363 . S
C909 C908 1.415 . S
H910 C907 0.999 . S
H911 C892 0.913 . S
C131 C12 1.355 . S
C146 C82 1.356 . S
C181 C26 1.356 . S
C196 C96 1.355 . S
C231 C40 1.356 . S
C246 C110 1.356 . S
C281 C68 1.356 . S
C296 C54 1.355 . S
C331 C11 1.332 . S
C346 C61 1.278 . S
C381 C25 1.331 . S
C396 C75 1.279 . S
C431 C89 1.277 . S
C446 C39 1.332 . S
C481 C53 1.332 . S
C496 C103 1.278 . S
C531 C67 1.331 . S
C546 C5 1.279 . S
C581 C19 1.277 . S
C596 C81 1.332 . S
C631 C95 1.331 . S
C646 C33 1.279 . S
C681 C47 1.278 . S
C696 C109 1.332 . S
C731 C32 0.627 . S
C746 C4 0.627 . S
C781 C46 0.627 . S
C796 C18 0.628 . S
C831 C60 0.627 . S
C846 C88 0.627 . S
C881 C74 0.626 . S
C896 C102 0.626 . S
