# Generated by pormake.
# Topology atn, (4)-cn, num edge types: 1
# Building blocks:
#     Node 0, Type 0, BuildingBlock: ICAMEG_clean_sbu_1, # of connection points: 4
#     Node 1, Type 0, BuildingBlock: ICAMEG_clean_sbu_1, # of connection points: 4
#     Node 2, Type 0, BuildingBlock: ICAMEG_clean_sbu_1, # of connection points: 4
#     Node 3, Type 0, BuildingBlock: ICAMEG_clean_sbu_1, # of connection points: 4
#     Node 4, Type 0, BuildingBlock: ICAMEG_clean_sbu_1, # of connection points: 4
#     Node 5, Type 0, BuildingBlock: ICAMEG_clean_sbu_1, # of connection points: 4
#     Node 6, Type 0, BuildingBlock: ICAMEG_clean_sbu_1, # of connection points: 4
#     Node 7, Type 0, BuildingBlock: ICAMEG_clean_sbu_1, # of connection points: 4
#     Node 8, Type 0, BuildingBlock: ICAMEG_clean_sbu_1, # of connection points: 4
#     Node 9, Type 0, BuildingBlock: ICAMEG_clean_sbu_1, # of connection points: 4
#     Node 10, Type 0, BuildingBlock: ICAMEG_clean_sbu_1, # of connection points: 4
#     Node 11, Type 0, BuildingBlock: ICAMEG_clean_sbu_1, # of connection points: 4
#     Node 12, Type 0, BuildingBlock: ICAMEG_clean_sbu_1, # of connection points: 4
#     Node 13, Type 0, BuildingBlock: ICAMEG_clean_sbu_1, # of connection points: 4
#     Node 14, Type 0, BuildingBlock: ICAMEG_clean_sbu_1, # of connection points: 4
#     Node 15, Type 0, BuildingBlock: ICAMEG_clean_sbu_1, # of connection points: 4
#     Edge 16, Type (0, 0), BuildingBlock: ZUJKAS_clean_linker_0, # of connection points: 2
#     Edge 17, Type (0, 0), BuildingBlock: ZUJKAS_clean_linker_0, # of connection points: 2
#     Edge 18, Type (0, 0), BuildingBlock: ZUJKAS_clean_linker_0, # of connection points: 2
#     Edge 19, Type (0, 0), BuildingBlock: ZUJKAS_clean_linker_0, # of connection points: 2
#     Edge 20, Type (0, 0), BuildingBlock: ZUJKAS_clean_linker_0, # of connection points: 2
#     Edge 21, Type (0, 0), BuildingBlock: ZUJKAS_clean_linker_0, # of connection points: 2
#     Edge 22, Type (0, 0), BuildingBlock: ZUJKAS_clean_linker_0, # of connection points: 2
#     Edge 23, Type (0, 0), BuildingBlock: ZUJKAS_clean_linker_0, # of connection points: 2
#     Edge 24, Type (0, 0), BuildingBlock: ZUJKAS_clean_linker_0, # of connection points: 2
#     Edge 25, Type (0, 0), BuildingBlock: ZUJKAS_clean_linker_0, # of connection points: 2
#     Edge 26, Type (0, 0), BuildingBlock: ZUJKAS_clean_linker_0, # of connection points: 2
#     Edge 27, Type (0, 0), BuildingBlock: ZUJKAS_clean_linker_0, # of connection points: 2
#     Edge 28, Type (0, 0), BuildingBlock: ZUJKAS_clean_linker_0, # of connection points: 2
#     Edge 29, Type (0, 0), BuildingBlock: ZUJKAS_clean_linker_0, # of connection points: 2
#     Edge 30, Type (0, 0), BuildingBlock: ZUJKAS_clean_linker_0, # of connection points: 2
#     Edge 31, Type (0, 0), BuildingBlock: ZUJKAS_clean_linker_0, # of connection points: 2
#     Edge 32, Type (0, 0), BuildingBlock: ZUJKAS_clean_linker_0, # of connection points: 2
#     Edge 33, Type (0, 0), BuildingBlock: ZUJKAS_clean_linker_0, # of connection points: 2
#     Edge 34, Type (0, 0), BuildingBlock: ZUJKAS_clean_linker_0, # of connection points: 2
#     Edge 35, Type (0, 0), BuildingBlock: ZUJKAS_clean_linker_0, # of connection points: 2
#     Edge 36, Type (0, 0), BuildingBlock: ZUJKAS_clean_linker_0, # of connection points: 2
#     Edge 37, Type (0, 0), BuildingBlock: ZUJKAS_clean_linker_0, # of connection points: 2
#     Edge 38, Type (0, 0), BuildingBlock: ZUJKAS_clean_linker_0, # of connection points: 2
#     Edge 39, Type (0, 0), BuildingBlock: ZUJKAS_clean_linker_0, # of connection points: 2
#     Edge 40, Type (0, 0), BuildingBlock: ZUJKAS_clean_linker_0, # of connection points: 2
#     Edge 41, Type (0, 0), BuildingBlock: ZUJKAS_clean_linker_0, # of connection points: 2
#     Edge 42, Type (0, 0), BuildingBlock: ZUJKAS_clean_linker_0, # of connection points: 2
#     Edge 43, Type (0, 0), BuildingBlock: ZUJKAS_clean_linker_0, # of connection points: 2
#     Edge 44, Type (0, 0), BuildingBlock: ZUJKAS_clean_linker_0, # of connection points: 2
#     Edge 45, Type (0, 0), BuildingBlock: ZUJKAS_clean_linker_0, # of connection points: 2
#     Edge 46, Type (0, 0), BuildingBlock: ZUJKAS_clean_linker_0, # of connection points: 2
#     Edge 47, Type (0, 0), BuildingBlock: ZUJKAS_clean_linker_0, # of connection points: 2
# Relax obj value: 0.021
# Max RMSD: 0.061
# Mean RMSD: 0.061
data_MOF--net-atn--node1-ICAMEG_clean_sbu_1--edge1-ZUJKAS_clean_linker_0
_symmetry_space_group_name_H-M    P1
_symmetry_Int_Tables_number       1
_symmetry_cell_setting            triclinic
loop_
_symmetry_equiv_pos_as_xyz
'x, y, z'
_cell_length_a     79.161662
_cell_length_b     79.147768
_cell_length_c     38.538538
_cell_angle_alpha  90.004199
_cell_angle_beta   90.00066
_cell_angle_gamma 90.007784
loop_
_atom_site_label
_atom_site_type_symbol
_atom_site_fract_x
_atom_site_fract_y
_atom_site_fract_z
_atom_type_partial_charge
Co0 Co 0.18158 0.35836 0.01439 0.0
Co1 Co 0.21423 0.38383 0.04172 0.0
O2 O 0.19528 0.37884 0.01069 0.0
C3 C 0.19182 0.35772 0.94041 0.0
O4 O 0.20741 0.36075 0.95026 0.0
C5 C 0.19328 0.41518 0.04373 0.0
O6 O 0.17986 0.40566 0.04807 0.0
O7 O 0.19985 0.37988 0.08361 0.0
O8 O 0.18256 0.35912 0.06601 0.0
H9 H 0.2525 0.37378 0.14363 0.0
H10 H 0.16929 0.38702 0.97196 0.0
O11 O 0.18001 0.35692 0.96275 0.0
H12 H 0.1257 0.37835 0.06163 0.0
H13 H 0.13372 0.31964 0.98131 0.0
H14 H 0.1833 0.3273 0.05719 0.0
H15 H 0.15082 0.35999 0.05926 0.0
H16 H 0.15084 0.34563 0.97794 0.0
O17 O 0.20785 0.40842 0.04159 0.0
H18 H 0.22889 0.36744 0.10394 0.0
H19 H 0.23963 0.41164 0.0455 0.0
H20 H 0.16644 0.30117 0.06165 0.0
H21 H 0.14426 0.40559 0.97316 0.0
H22 H 0.14146 0.29722 0.0235 0.0
H23 H 0.12228 0.40134 0.01832 0.0
O24 O 0.2022 0.34399 0.01326 0.0
H25 H 0.22719 0.40765 0.92382 0.0
H26 H 0.24856 0.37239 0.01971 0.0
H27 H 0.26611 0.37645 0.96754 0.0
H28 H 0.25546 0.39423 0.91914 0.0
H29 H 0.20998 0.40312 0.97633 0.0
H30 H 0.26328 0.41854 0.08471 0.0
H31 H 0.26988 0.3995 0.13412 0.0
O32 O 0.22145 0.3595 0.04186 0.0
C33 C 0.18884 0.36846 0.08967 0.0
C34 C 0.24978 0.38215 0.12214 0.0
C35 C 0.25581 0.40729 0.0891 0.0
N36 N 0.23296 0.3891 0.07232 0.0
C37 C 0.23645 0.3786 0.09954 0.0
C38 C 0.24238 0.40334 0.06704 0.0
C39 C 0.25951 0.3966 0.11681 0.0
C40 C 0.15969 0.385 0.99149 0.0
N41 N 0.1615 0.37242 0.01547 0.0
C42 C 0.14559 0.39559 0.99212 0.0
C43 C 0.13327 0.39322 0.0175 0.0
C44 C 0.13519 0.38034 0.04183 0.0
C45 C 0.14948 0.37001 0.04044 0.0
C46 C 0.14456 0.32123 0.99811 0.0
C47 C 0.17238 0.32571 0.04065 0.0
C48 C 0.15433 0.3359 0.99626 0.0
N49 N 0.16799 0.33802 0.01751 0.0
C50 C 0.16292 0.31087 0.04323 0.0
C51 C 0.14891 0.30865 0.02179 0.0
C52 C 0.21663 0.34576 0.02753 0.0
C53 C 0.23199 0.39992 0.94477 0.0
C54 C 0.2438 0.38008 0.99872 0.0
C55 C 0.25382 0.38237 0.96927 0.0
C56 C 0.24784 0.39236 0.94214 0.0
N57 N 0.22827 0.38755 1.00113 0.0
C58 C 0.22233 0.39735 0.97463 0.0
Co59 Co 0.65128 0.1815 0.01457 0.0
Co60 Co 0.62607 0.21433 0.04206 0.0
O61 O 0.63092 0.19536 0.011 0.0
C62 C 0.65189 0.192 0.94086 0.0
O63 O 0.64905 0.20757 0.95113 0.0
C64 C 0.59468 0.19348 0.04414 0.0
O65 O 0.60418 0.18006 0.04861 0.0
O66 O 0.62999 0.19991 0.0839 0.0
O67 O 0.65055 0.18241 0.0662 0.0
H68 H 0.63642 0.25251 0.14399 0.0
H69 H 0.62253 0.16949 0.97205 0.0
O70 O 0.65266 0.18006 0.96291 0.0
H71 H 0.63083 0.12571 0.06147 0.0
H72 H 0.68959 0.13342 0.98091 0.0
H73 H 0.68236 0.18286 0.05739 0.0
H74 H 0.6494 0.1507 0.05926 0.0
H75 H 0.66375 0.15078 0.97773 0.0
O76 O 0.60145 0.20805 0.04198 0.0
H77 H 0.6426 0.22888 0.10423 0.0
H78 H 0.5984 0.23986 0.046 0.0
H79 H 0.70833 0.16577 0.06165 0.0
H80 H 0.60376 0.14461 0.97309 0.0
H81 H 0.71207 0.14085 0.02321 0.0
H82 H 0.60783 0.12254 0.01813 0.0
O83 O 0.66582 0.20201 0.01363 0.0
H84 H 0.60223 0.22746 0.92425 0.0
H85 H 0.6377 0.2486 0.02006 0.0
H86 H 0.63371 0.26619 0.96791 0.0
H87 H 0.61583 0.25565 0.91955 0.0
H88 H 0.60669 0.21021 0.97673 0.0
H89 H 0.59166 0.26353 0.08528 0.0
H90 H 0.61078 0.27002 0.13462 0.0
O91 O 0.65045 0.22141 0.04211 0.0
C92 C 0.64131 0.18879 0.0899 0.0
C93 C 0.62801 0.24984 0.12253 0.0
C94 C 0.60288 0.25601 0.08961 0.0
N95 N 0.62093 0.23307 0.07271 0.0
C96 C 0.63147 0.2365 0.09989 0.0
C97 C 0.60673 0.24256 0.0675 0.0
C98 C 0.61362 0.25965 0.11728 0.0
C99 C 0.62447 0.15986 0.99151 0.0
N100 N 0.63707 0.16153 0.01551 0.0
C101 C 0.61376 0.14583 0.99206 0.0
C102 C 0.61604 0.13346 0.01737 0.0
C103 C 0.62893 0.13525 0.04172 0.0
C104 C 0.63938 0.14946 0.04041 0.0
C105 C 0.68809 0.14423 0.99784 0.0
C106 C 0.68385 0.17197 0.04072 0.0
C107 C 0.67351 0.15413 0.9961 0.0
N108 N 0.6715 0.16774 0.01753 0.0
C109 C 0.69861 0.16237 0.04318 0.0
C110 C 0.7007 0.1484 0.02158 0.0
C111 C 0.66416 0.21647 0.02787 0.0
C112 C 0.61001 0.23221 0.94518 0.0
C113 C 0.62996 0.24389 0.99909 0.0
C114 C 0.62771 0.25393 0.96965 0.0
C115 C 0.61767 0.24801 0.94254 0.0
N116 N 0.62239 0.2284 1.00151 0.0
C117 C 0.61253 0.22252 0.97503 0.0
Co118 Co 0.82786 0.6509 0.01309 0.0
Co119 Co 0.79528 0.62612 0.04268 0.0
O120 O 0.81394 0.63056 0.01056 0.0
C121 C 0.8174 0.65095 0.93925 0.0
O122 O 0.80177 0.64844 0.94946 0.0
C123 C 0.81561 0.59442 0.04412 0.0
O124 O 0.82917 0.60375 0.04843 0.0
O125 O 0.81035 0.62981 0.08357 0.0
O126 O 0.82702 0.65081 0.06483 0.0
H127 H 0.75873 0.63713 0.14681 0.0
H128 H 0.83978 0.6216 0.97209 0.0
O129 O 0.82931 0.65167 0.96138 0.0
H130 H 0.8837 0.63102 0.06075 0.0
H131 H 0.87597 0.68876 0.97747 0.0
H132 H 0.82654 0.68249 0.05429 0.0
H133 H 0.85873 0.64957 0.05769 0.0
H134 H 0.8586 0.6629 0.97562 0.0
O135 O 0.80113 0.60139 0.04224 0.0
H136 H 0.78192 0.64289 0.10572 0.0
H137 H 0.76932 0.59892 0.04808 0.0
H138 H 0.84365 0.70851 0.05722 0.0
H139 H 0.86464 0.60283 0.97398 0.0
H140 H 0.86856 0.71176 0.0186 0.0
H141 H 0.88679 0.60746 0.01865 0.0
O142 O 0.80734 0.66536 0.01139 0.0
H143 H 0.77996 0.60242 0.92586 0.0
H144 H 0.76103 0.63854 0.0226 0.0
H145 H 0.74262 0.63485 0.97156 0.0
H146 H 0.75204 0.61665 0.92275 0.0
H147 H 0.79806 0.60658 0.97725 0.0
H148 H 0.74608 0.5926 0.0887 0.0
H149 H 0.74062 0.61182 0.13841 0.0
O150 O 0.78866 0.65066 0.04321 0.0
C151 C 0.8212 0.64145 0.08894 0.0
C152 C 0.76095 0.62868 0.12519 0.0
C153 C 0.75387 0.60368 0.0926 0.0
N154 N 0.77689 0.62132 0.07441 0.0
C155 C 0.77403 0.63191 0.10179 0.0
C156 C 0.76707 0.6073 0.06974 0.0
C157 C 0.75081 0.61447 0.12048 0.0
C158 C 0.84945 0.62379 0.99139 0.0
N159 N 0.84782 0.63668 0.01471 0.0
C160 C 0.86346 0.61308 0.99242 0.0
C161 C 0.87587 0.61566 0.01753 0.0
C162 C 0.87413 0.62887 0.04118 0.0
C163 C 0.85993 0.6393 0.0394 0.0
C164 C 0.86516 0.68748 0.99447 0.0
C165 C 0.83742 0.68378 0.03754 0.0
C166 C 0.85526 0.67288 0.99348 0.0
N167 N 0.84164 0.67115 0.01499 0.0
C168 C 0.84703 0.69855 0.03925 0.0
C169 C 0.861 0.70038 0.01756 0.0
C170 C 0.79325 0.66404 0.02721 0.0
C171 C 0.7757 0.61034 0.94701 0.0
C172 C 0.76525 0.63064 1.00143 0.0
C173 C 0.75475 0.62857 0.97263 0.0
C174 C 0.76004 0.61834 0.94526 0.0
N175 N 0.78058 0.62271 0.00299 0.0
C176 C 0.78586 0.61269 0.97624 0.0
Co177 Co 0.35941 0.82762 0.01445 0.0
Co178 Co 0.38449 0.79477 0.04215 0.0
O179 O 0.37977 0.81375 0.01101 0.0
C180 C 0.35882 0.81745 0.94041 0.0
O181 O 0.36145 0.80178 0.95025 0.0
C182 C 0.41603 0.81542 0.04426 0.0
O183 O 0.40664 0.82891 0.04873 0.0
O184 O 0.38062 0.80925 0.08395 0.0
O185 O 0.35997 0.82659 0.0661 0.0
H186 H 0.37388 0.75673 0.14418 0.0
H187 H 0.38834 0.83969 0.97254 0.0
O188 O 0.35819 0.82925 0.96279 0.0
H189 H 0.37969 0.88332 0.06214 0.0
H190 H 0.32123 0.87582 0.98089 0.0
H191 H 0.32819 0.82615 0.0568 0.0
H192 H 0.36112 0.85835 0.05941 0.0
H193 H 0.34708 0.85848 0.97786 0.0
O194 O 0.40914 0.8009 0.0421 0.0
H195 H 0.36784 0.78036 0.10432 0.0
H196 H 0.41203 0.76909 0.04625 0.0
H197 H 0.3022 0.84323 0.0609 0.0
H198 H 0.40712 0.86456 0.9741 0.0
H199 H 0.2986 0.86826 0.02275 0.0
H200 H 0.40288 0.88656 0.01923 0.0
O201 O 0.34488 0.80711 0.01305 0.0
H202 H 0.40831 0.7814 0.92443 0.0
H203 H 0.37271 0.76053 0.02027 0.0
H204 H 0.37665 0.74287 0.96822 0.0
H205 H 0.39459 0.75327 0.91985 0.0
H206 H 0.4039 0.79874 0.97683 0.0
H207 H 0.41862 0.74543 0.08564 0.0
H208 H 0.39943 0.73908 0.13495 0.0
O209 O 0.36009 0.78782 0.04218 0.0
C210 C 0.36921 0.82029 0.08987 0.0
C211 C 0.38231 0.75934 0.12274 0.0
C212 C 0.40743 0.75301 0.08991 0.0
N213 N 0.38951 0.77603 0.07288 0.0
C214 C 0.37894 0.77267 0.10004 0.0
C215 C 0.40366 0.76646 0.06775 0.0
C216 C 0.39666 0.74945 0.11756 0.0
C217 C 0.38632 0.84929 0.99206 0.0
N218 N 0.37363 0.84758 0.01583 0.0
C219 C 0.39703 0.86331 0.99289 0.0
C220 C 0.39467 0.87564 0.01826 0.0
C221 C 0.38167 0.87382 0.04237 0.0
C222 C 0.37123 0.85962 0.04077 0.0
C223 C 0.32267 0.86496 0.99769 0.0
C224 C 0.32675 0.83708 0.04025 0.0
C225 C 0.33725 0.85507 0.99604 0.0
N226 N 0.33918 0.84138 0.0173 0.0
C227 C 0.31199 0.84668 0.04263 0.0
C228 C 0.30997 0.86072 0.02119 0.0
C229 C 0.34646 0.7927 0.02752 0.0
C230 C 0.4005 0.77672 0.94537 0.0
C231 C 0.38048 0.76519 0.9993 0.0
C232 C 0.3827 0.7551 0.96991 0.0
C233 C 0.39278 0.76094 0.94279 0.0
N234 N 0.38811 0.78064 1.00166 0.0
C235 C 0.398 0.78645 0.97516 0.0
Co236 Co 0.18288 0.65249 0.0097 0.0
Co237 Co 0.21507 0.62615 0.98478 0.0
O238 O 0.19585 0.63161 0.0146 0.0
C239 C 0.19147 0.65226 0.08435 0.0
O240 O 0.20715 0.6491 0.07526 0.0
C241 C 0.19398 0.59487 0.98317 0.0
O242 O 0.18071 0.60436 0.97705 0.0
O243 O 0.20092 0.62959 0.94243 0.0
O244 O 0.18534 0.65207 0.95805 0.0
H245 H 0.25427 0.63471 0.8838 0.0
H246 H 0.1684 0.62413 0.05007 0.0
O247 O 0.18004 0.65362 0.06127 0.0
H248 H 0.12797 0.63445 0.95506 0.0
H249 H 0.13543 0.69243 0.0386 0.0
H250 H 0.18669 0.68378 0.96811 0.0
H251 H 0.15359 0.65195 0.96088 0.0
H252 H 0.15167 0.66593 0.04312 0.0
O253 O 0.20854 0.60161 0.9861 0.0
H254 H 0.23034 0.64166 0.92223 0.0
H255 H 0.24031 0.59814 0.98335 0.0
H256 H 0.17075 0.71042 0.96255 0.0
H257 H 0.14285 0.60642 0.04542 0.0
H258 H 0.14491 0.71488 0.99797 0.0
H259 H 0.12245 0.61151 0.99757 0.0
O260 O 0.20384 0.66613 0.01338 0.0
H261 H 0.22694 0.60376 0.10432 0.0
H262 H 0.24933 0.63764 0.00729 0.0
H263 H 0.26643 0.63413 0.06025 0.0
H264 H 0.25527 0.61706 0.10922 0.0
H265 H 0.21017 0.60775 0.05101 0.0
H266 H 0.26425 0.59063 0.94541 0.0
H267 H 0.27141 0.60903 0.8953 0.0
O268 O 0.22251 0.65052 0.98352 0.0
C269 C 0.19107 0.64188 0.93529 0.0
C270 C 0.25131 0.62662 0.9056 0.0
C271 C 0.25689 0.60187 0.94015 0.0
N272 N 0.234 0.62038 0.95511 0.0
C273 C 0.23779 0.63051 0.92749 0.0
C274 C 0.24329 0.60616 0.96148 0.0
C275 C 0.26091 0.6122 0.91205 0.0
C276 C 0.1595 0.62652 0.0294 0.0
N277 N 0.16245 0.63909 0.00588 0.0
C278 C 0.14509 0.61641 0.0268 0.0
C279 C 0.13366 0.61926 0.99991 0.0
C280 C 0.13676 0.63211 0.97603 0.0
C281 C 0.15132 0.64195 0.97941 0.0
C282 C 0.14664 0.69062 0.02296 0.0
C283 C 0.17539 0.68558 0.98342 0.0
C284 C 0.1559 0.67566 0.02545 0.0
N285 N 0.17003 0.67325 0.00565 0.0
C286 C 0.16645 0.70071 0.98024 0.0
C287 C 0.15197 0.70321 1.00015 0.0
C288 C 0.21812 0.66423 0.99862 0.0
C289 C 0.23196 0.6112 0.08312 0.0
C290 C 0.24434 0.63026 0.02853 0.0
C291 C 0.25411 0.62827 0.05842 0.0
C292 C 0.24784 0.61868 0.08588 0.0
N293 N 0.22877 0.62288 0.02601 0.0
C294 C 0.22255 0.61345 0.05282 0.0
Co295 Co 0.35736 0.18259 0.01114 0.0
Co296 Co 0.38346 0.21477 0.98522 0.0
O297 O 0.37822 0.19565 0.01548 0.0
C298 C 0.3579 0.19139 0.08567 0.0
O299 O 0.36099 0.20704 0.07634 0.0
C300 C 0.41491 0.19391 0.98375 0.0
O301 O 0.40554 0.18052 0.97794 0.0
O302 O 0.37996 0.20039 0.9432 0.0
O303 O 0.35752 0.18492 0.95945 0.0
H304 H 0.37435 0.25341 0.88352 0.0
H305 H 0.38596 0.16832 0.0511 0.0
O306 O 0.35648 0.17988 0.06276 0.0
H307 H 0.37531 0.12758 0.95678 0.0
H308 H 0.31772 0.13507 0.04139 0.0
H309 H 0.32585 0.18619 0.97019 0.0
H310 H 0.35777 0.15317 0.96264 0.0
H311 H 0.3442 0.15141 0.04515 0.0
O312 O 0.40805 0.20842 0.98639 0.0
H313 H 0.36767 0.22962 0.92255 0.0
H314 H 0.41129 0.2402 0.98293 0.0
H315 H 0.29923 0.17016 0.96539 0.0
H316 H 0.40371 0.1428 0.0464 0.0
H317 H 0.29504 0.14439 1.00117 0.0
H318 H 0.39846 0.12225 0.99889 0.0
O319 O 0.34368 0.20351 0.01486 0.0
H320 H 0.40615 0.22738 0.10421 0.0
H321 H 0.37182 0.24906 0.00719 0.0
H322 H 0.37538 0.26645 0.05974 0.0
H323 H 0.39269 0.25564 0.10872 0.0
H324 H 0.40209 0.21032 0.05131 0.0
H325 H 0.41853 0.26401 0.94439 0.0
H326 H 0.39995 0.27078 0.89435 0.0
O327 O 0.35904 0.22205 0.98412 0.0
C328 C 0.36762 0.19056 0.93641 0.0
C329 C 0.38252 0.25061 0.90529 0.0
C330 C 0.40733 0.25654 0.93943 0.0
N331 N 0.38902 0.2336 0.95509 0.0
C332 C 0.37878 0.23718 0.92752 0.0
C333 C 0.40319 0.24302 0.9611 0.0
C334 C 0.39689 0.26034 0.91136 0.0
C335 C 0.3835 0.15934 0.03057 0.0
N336 N 0.37081 0.16219 0.00727 0.0
C337 C 0.39363 0.14495 0.02795 0.0
C338 C 0.39069 0.13344 1.00126 0.0
C339 C 0.37772 0.13643 0.9776 0.0
C340 C 0.36785 0.15097 0.981 0.0
C341 C 0.31942 0.14625 0.0256 0.0
C342 C 0.32417 0.17492 0.98565 0.0
C343 C 0.33437 0.15556 0.02766 0.0
N344 N 0.33663 0.16965 0.00766 0.0
C345 C 0.30905 0.16593 0.98291 0.0
C346 C 0.3067 0.15148 0.00302 0.0
C347 C 0.34545 0.21771 0.99969 0.0
C348 C 0.39861 0.23225 0.08302 0.0
C349 C 0.37929 0.24422 0.02843 0.0
C350 C 0.38131 0.25416 0.0581 0.0
C351 C 0.39103 0.24809 0.08555 0.0
N352 N 0.38677 0.22869 0.02613 0.0
C353 C 0.39632 0.22267 0.05294 0.0
Co354 Co 0.8274 0.35797 0.01199 0.0
Co355 Co 0.7945 0.38317 0.98484 0.0
O356 O 0.8135 0.3783 0.01578 0.0
C357 C 0.81694 0.35718 0.0857 0.0
O358 O 0.80136 0.35994 0.07547 0.0
C359 C 0.81525 0.41464 0.98299 0.0
O360 O 0.82869 0.40521 0.97815 0.0
O361 O 0.8089 0.37938 0.94292 0.0
O362 O 0.82646 0.35882 0.96037 0.0
H363 H 0.75627 0.37298 0.88292 0.0
H364 H 0.83935 0.38668 0.05471 0.0
O365 O 0.82887 0.35649 0.06363 0.0
H366 H 0.88311 0.37864 0.96516 0.0
H367 H 0.87557 0.3197 0.0452 0.0
H368 H 0.8261 0.32698 0.96887 0.0
H369 H 0.85817 0.36001 0.96726 0.0
H370 H 0.85816 0.34549 0.04866 0.0
O371 O 0.80071 0.4078 0.9852 0.0
H372 H 0.77994 0.36675 0.92254 0.0
H373 H 0.7689 0.41079 0.98127 0.0
H374 H 0.84325 0.30106 0.96433 0.0
H375 H 0.86419 0.40552 0.05377 0.0
H376 H 0.86818 0.29729 1.00269 0.0
H377 H 0.88625 0.40158 0.00867 0.0
O378 O 0.80693 0.34338 0.01284 0.0
H379 H 0.78141 0.40668 0.10296 0.0
H380 H 0.76027 0.37142 0.00682 0.0
H381 H 0.74272 0.37524 0.05907 0.0
H382 H 0.75326 0.39301 0.10759 0.0
H383 H 0.79863 0.40238 0.05037 0.0
H384 H 0.74519 0.41757 0.94214 0.0
H385 H 0.73871 0.39855 0.89263 0.0
O386 O 0.78748 0.35877 0.98455 0.0
C387 C 0.82005 0.3681 0.93678 0.0
C388 C 0.75894 0.38134 0.90446 0.0
C389 C 0.75274 0.40638 0.93767 0.0
N390 N 0.77573 0.38833 0.9543 0.0
C391 C 0.7723 0.37785 0.92703 0.0
C392 C 0.76621 0.4025 0.95969 0.0
C393 C 0.7491 0.3957 0.9099 0.0
C394 C 0.84898 0.3848 0.03521 0.0
N395 N 0.84733 0.37224 0.01112 0.0
C396 C 0.86298 0.39554 0.03472 0.0
C397 C 0.87534 0.39334 0.00938 0.0
C398 C 0.87358 0.38048 0.98493 0.0
C399 C 0.8594 0.37 0.98618 0.0
C400 C 0.86475 0.32121 0.0283 0.0
C401 C 0.83699 0.32548 0.98551 0.0
C402 C 0.85483 0.33576 0.0302 0.0
N403 N 0.8412 0.33779 0.00881 0.0
C404 C 0.84663 0.31075 0.98288 0.0
C405 C 0.86061 0.30864 0.00444 0.0
C406 C 0.79246 0.34503 0.99866 0.0
C407 C 0.77666 0.39894 0.08195 0.0
C408 C 0.76498 0.37911 0.02786 0.0
C409 C 0.75496 0.38127 0.05735 0.0
C410 C 0.76088 0.39125 0.08456 0.0
N411 N 0.78045 0.38671 0.02548 0.0
C412 C 0.78633 0.39651 0.05205 0.0
Co413 Co 0.65201 0.82759 0.01268 0.0
Co414 Co 0.62726 0.7951 0.98261 0.0
O415 O 0.63167 0.81367 0.01493 0.0
C416 C 0.65183 0.81688 0.08632 0.0
O417 O 0.64935 0.8013 0.07579 0.0
C418 C 0.59561 0.81549 0.98133 0.0
O419 O 0.60497 0.82902 0.97686 0.0
O420 O 0.631 0.81026 0.9419 0.0
O421 O 0.652 0.82687 0.96091 0.0
H422 H 0.63834 0.75875 0.87821 0.0
H423 H 0.62265 0.83942 0.05357 0.0
O424 O 0.65268 0.82888 0.06442 0.0
H425 H 0.63226 0.88357 0.96547 0.0
H426 H 0.68984 0.87557 0.04914 0.0
H427 H 0.68366 0.82637 0.97165 0.0
H428 H 0.65079 0.85858 0.96842 0.0
H429 H 0.66398 0.8582 0.05064 0.0
O430 O 0.60254 0.80098 0.98308 0.0
H431 H 0.64409 0.78184 0.91954 0.0
H432 H 0.60002 0.76919 0.9768 0.0
H433 H 0.70967 0.84349 0.96907 0.0
H434 H 0.60389 0.86429 0.05178 0.0
H435 H 0.71288 0.86829 0.00802 0.0
H436 H 0.60861 0.88655 0.0074 0.0
O437 O 0.66644 0.80704 0.01427 0.0
H438 H 0.60345 0.77949 0.09919 0.0
H439 H 0.63962 0.76078 1.00236 0.0
H440 H 0.6359 0.74224 0.0532 0.0
H441 H 0.61767 0.75156 0.10205 0.0
H442 H 0.60766 0.79772 0.04801 0.0
H443 H 0.59373 0.74604 0.93594 0.0
H444 H 0.613 0.74065 0.8863 0.0
O445 O 0.65179 0.78844 0.98213 0.0
C446 C 0.64267 0.82111 0.93669 0.0
C447 C 0.62987 0.76093 0.89979 0.0
C448 C 0.60482 0.75382 0.93217 0.0
N449 N 0.62247 0.77678 0.95067 0.0
C450 C 0.63308 0.77396 0.92333 0.0
C451 C 0.60843 0.76697 0.95517 0.0
C452 C 0.61564 0.7508 0.90433 0.0
C453 C 0.62488 0.84913 0.0344 0.0
N454 N 0.63782 0.84756 0.01117 0.0
C455 C 0.61418 0.86315 0.03342 0.0
C456 C 0.61681 0.87563 0.00848 0.0
C457 C 0.63007 0.87395 0.98492 0.0
C458 C 0.64049 0.85974 0.98664 0.0
C459 C 0.68858 0.86481 0.03199 0.0
C460 C 0.68493 0.8372 0.98854 0.0
C461 C 0.67398 0.8549 0.03278 0.0
N462 N 0.67227 0.84135 0.01108 0.0
C463 C 0.6997 0.84682 0.98702 0.0
C464 C 0.7015 0.86072 0.00891 0.0
C465 C 0.66513 0.79297 0.99835 0.0
C466 C 0.61139 0.77527 0.07802 0.0
C467 C 0.63171 0.76495 0.02355 0.0
C468 C 0.62962 0.75438 0.05224 0.0
C469 C 0.61939 0.75961 0.07963 0.0
N470 N 0.6238 0.78029 0.02213 0.0
C471 C 0.61376 0.78551 0.04891 0.0
Co472 Co 0.68246 0.85824 0.51471 0.0
Co473 Co 0.71552 0.88353 0.54067 0.0
O474 O 0.69632 0.87857 0.51028 0.0
C475 C 0.69235 0.85723 0.44061 0.0
O476 O 0.70799 0.86021 0.45019 0.0
C477 C 0.69479 0.91501 0.54293 0.0
O478 O 0.68137 0.90557 0.54802 0.0
O479 O 0.7014 0.87985 0.58303 0.0
O480 O 0.68375 0.85923 0.56629 0.0
H481 H 0.75439 0.87361 0.64166 0.0
H482 H 0.67019 0.8868 0.472 0.0
O483 O 0.68061 0.85657 0.46314 0.0
H484 H 0.62706 0.87897 0.56292 0.0
H485 H 0.63409 0.81981 0.48345 0.0
H486 H 0.68412 0.82736 0.55811 0.0
H487 H 0.652 0.86037 0.56031 0.0
H488 H 0.65143 0.84562 0.47919 0.0
O489 O 0.70931 0.90817 0.5403 0.0
H490 H 0.73048 0.86727 0.60273 0.0
H491 H 0.74114 0.91117 0.54326 0.0
H492 H 0.66705 0.80141 0.56345 0.0
H493 H 0.64534 0.90561 0.47343 0.0
H494 H 0.64184 0.79751 0.52593 0.0
H495 H 0.62359 0.90178 0.51922 0.0
O496 O 0.70294 0.84367 0.5134 0.0
H497 H 0.72787 0.90681 0.42202 0.0
H498 H 0.7496 0.87172 0.51786 0.0
H499 H 0.76682 0.87543 0.46512 0.0
H500 H 0.75598 0.89311 0.41674 0.0
H501 H 0.71098 0.90262 0.47511 0.0
H502 H 0.76509 0.91806 0.5817 0.0
H503 H 0.77189 0.89917 0.63124 0.0
O504 O 0.72255 0.85914 0.54101 0.0
C505 C 0.6903 0.86858 0.58959 0.0
C506 C 0.75159 0.88192 0.62011 0.0
C507 C 0.75758 0.90688 0.58648 0.0
N508 N 0.73449 0.88878 0.57065 0.0
C509 C 0.73809 0.87837 0.59793 0.0
C510 C 0.74397 0.90294 0.56486 0.0
C511 C 0.76139 0.89627 0.61426 0.0
C512 C 0.66069 0.88497 0.4918 0.0
N513 N 0.66253 0.87248 0.51599 0.0
C514 C 0.64669 0.89569 0.49257 0.0
C515 C 0.6345 0.89355 0.5183 0.0
C516 C 0.63645 0.88077 0.54284 0.0
C517 C 0.65063 0.87031 0.54131 0.0
C518 C 0.64503 0.82137 0.49998 0.0
C519 C 0.67311 0.8258 0.54184 0.0
C520 C 0.65492 0.83595 0.49763 0.0
N521 N 0.6687 0.83804 0.51855 0.0
C522 C 0.66352 0.81106 0.54491 0.0
C523 C 0.64938 0.80887 0.52383 0.0
C524 C 0.71749 0.84537 0.52718 0.0
C525 C 0.73275 0.89911 0.44296 0.0
C526 C 0.74475 0.87938 0.49689 0.0
C527 C 0.75459 0.88147 0.46711 0.0
C528 C 0.74851 0.8914 0.43999 0.0
N529 N 0.72931 0.88699 0.49963 0.0
C530 C 0.72327 0.89674 0.47314 0.0
Co531 Co 0.15243 0.6824 0.51398 0.0
Co532 Co 0.12621 0.71383 0.54239 0.0
O533 O 0.13137 0.69519 0.51076 0.0
C534 C 0.15121 0.69147 0.43951 0.0
O535 O 0.148 0.70707 0.449 0.0
C536 C 0.09485 0.6929 0.54292 0.0
O537 O 0.10431 0.67948 0.54776 0.0
O538 O 0.12979 0.69873 0.58321 0.0
O539 O 0.15274 0.6844 0.56581 0.0
H540 H 0.13545 0.75067 0.64682 0.0
H541 H 0.12367 0.66788 0.47492 0.0
O542 O 0.15288 0.67994 0.4623 0.0
H543 H 0.13595 0.62676 0.56768 0.0
H544 H 0.19254 0.63568 0.48115 0.0
H545 H 0.18425 0.68632 0.55374 0.0
H546 H 0.15301 0.65267 0.56174 0.0
H547 H 0.16578 0.6516 0.47878 0.0
O548 O 0.10163 0.70747 0.54098 0.0
H549 H 0.14208 0.72758 0.60605 0.0
H550 H 0.09841 0.7392 0.54667 0.0
H551 H 0.21117 0.67071 0.55716 0.0
H552 H 0.10639 0.64204 0.4797 0.0
H553 H 0.21544 0.64519 0.52068 0.0
H554 H 0.11247 0.6213 0.52643 0.0
O555 O 0.16565 0.70359 0.51005 0.0
H556 H 0.10325 0.72858 0.42468 0.0
H557 H 0.138 0.7484 0.52278 0.0
H558 H 0.13434 0.76671 0.4716 0.0
H559 H 0.11682 0.75685 0.4221 0.0
H560 H 0.10739 0.71058 0.47623 0.0
H561 H 0.09122 0.76233 0.58696 0.0
H562 H 0.10986 0.76823 0.63738 0.0
O563 O 0.15065 0.7211 0.54392 0.0
C564 C 0.14246 0.68922 0.58931 0.0
C565 C 0.12726 0.74825 0.62489 0.0
C566 C 0.10242 0.75478 0.59132 0.0
N567 N 0.12071 0.73212 0.5739 0.0
C568 C 0.13097 0.73522 0.60168 0.0
C569 C 0.10653 0.74164 0.56865 0.0
C570 C 0.11289 0.75809 0.6196 0.0
C571 C 0.12649 0.65883 0.4951 0.0
N572 N 0.13936 0.66175 0.51793 0.0
C573 C 0.11662 0.64425 0.49777 0.0
C574 C 0.12002 0.63264 0.52403 0.0
C575 C 0.13318 0.6357 0.5472 0.0
C576 C 0.14277 0.65042 0.54377 0.0
C577 C 0.19082 0.64676 0.49724 0.0
C578 C 0.18598 0.67516 0.53797 0.0
C579 C 0.1757 0.65584 0.49596 0.0
N580 N 0.1734 0.66979 0.51634 0.0
C581 C 0.20126 0.6664 0.53994 0.0
C582 C 0.20366 0.6521 0.51943 0.0
C583 C 0.16396 0.7174 0.52668 0.0
C584 C 0.11087 0.73304 0.44613 0.0
C585 C 0.13041 0.74397 0.50131 0.0
C586 C 0.12835 0.75443 0.47242 0.0
C587 C 0.11851 0.74889 0.44467 0.0
N588 N 0.12286 0.72845 0.50256 0.0
C589 C 0.1132 0.72293 0.47544 0.0
Co590 Co 0.32697 0.1523 0.51542 0.0
Co591 Co 0.29493 0.12604 0.54144 0.0
O592 O 0.31404 0.13136 0.51118 0.0
C593 C 0.31822 0.15169 0.44083 0.0
O594 O 0.30257 0.14849 0.45004 0.0
C595 C 0.31601 0.09474 0.5432 0.0
O596 O 0.32934 0.10422 0.54881 0.0
O597 O 0.30925 0.12972 0.58349 0.0
O598 O 0.32465 0.15218 0.56711 0.0
H599 H 0.25617 0.13508 0.64295 0.0
H600 H 0.34141 0.12375 0.47556 0.0
O601 O 0.32968 0.15316 0.46382 0.0
H602 H 0.38208 0.13472 0.56983 0.0
H603 H 0.37427 0.19218 0.48504 0.0
H604 H 0.32316 0.18386 0.55616 0.0
H605 H 0.3564 0.15211 0.56392 0.0
H606 H 0.35809 0.1656 0.48141 0.0
O607 O 0.30146 0.10149 0.54053 0.0
H608 H 0.27993 0.14185 0.60393 0.0
H609 H 0.2697 0.09803 0.54389 0.0
H610 H 0.33903 0.21058 0.56083 0.0
H611 H 0.36702 0.10615 0.48032 0.0
H612 H 0.36479 0.21488 0.52509 0.0
H613 H 0.38754 0.11157 0.52779 0.0
O614 O 0.30597 0.16586 0.51163 0.0
H615 H 0.28261 0.10304 0.42257 0.0
H616 H 0.26057 0.13736 0.51928 0.0
H617 H 0.24326 0.13357 0.46668 0.0
H618 H 0.25425 0.11627 0.41787 0.0
H619 H 0.29959 0.10732 0.4755 0.0
H620 H 0.24593 0.0907 0.58243 0.0
H621 H 0.23899 0.10933 0.6323 0.0
O622 O 0.28748 0.1504 0.5423 0.0
C623 C 0.31904 0.1421 0.59021 0.0
C624 C 0.25904 0.12688 0.62126 0.0
C625 C 0.25331 0.10196 0.58732 0.0
N626 N 0.27613 0.12041 0.57156 0.0
C627 C 0.27245 0.13068 0.59903 0.0
C628 C 0.26681 0.10615 0.56564 0.0
C629 C 0.24942 0.11243 0.61528 0.0
C630 C 0.35037 0.12629 0.49608 0.0
N631 N 0.34744 0.13898 0.51934 0.0
C632 C 0.36481 0.11624 0.49873 0.0
C633 C 0.3763 0.11926 0.52541 0.0
C634 C 0.37324 0.13225 0.54902 0.0
C635 C 0.35865 0.14202 0.5456 0.0
C636 C 0.36309 0.19045 0.50082 0.0
C637 C 0.33442 0.18559 0.54073 0.0
C638 C 0.35387 0.17544 0.49884 0.0
N639 N 0.33979 0.17312 0.51882 0.0
C640 C 0.34333 0.20077 0.54339 0.0
C641 C 0.35777 0.20317 0.5233 0.0
C642 C 0.29175 0.16401 0.52671 0.0
C643 C 0.27767 0.11058 0.44369 0.0
C644 C 0.26549 0.12989 0.4981 0.0
C645 C 0.2556 0.12774 0.46841 0.0
C646 C 0.26177 0.11802 0.44105 0.0
N647 N 0.28107 0.12254 0.50051 0.0
C648 C 0.2872 0.11299 0.47379 0.0
Co649 Co 0.85792 0.32808 0.51413 0.0
Co650 Co 0.88317 0.29534 0.54196 0.0
O651 O 0.87831 0.31424 0.5107 0.0
C652 C 0.85729 0.31752 0.44039 0.0
O653 O 0.86024 0.30196 0.45058 0.0
C654 C 0.91455 0.31623 0.5439 0.0
O655 O 0.90504 0.32967 0.54817 0.0
O656 O 0.8792 0.30984 0.5837 0.0
O657 O 0.85864 0.32727 0.56574 0.0
H658 H 0.87281 0.25733 0.64415 0.0
H659 H 0.88667 0.34004 0.47157 0.0
O660 O 0.85652 0.32944 0.46248 0.0
H661 H 0.87825 0.38401 0.56056 0.0
H662 H 0.81954 0.37604 0.48016 0.0
H663 H 0.82683 0.32672 0.55689 0.0
H664 H 0.85973 0.35898 0.55854 0.0
H665 H 0.84541 0.35875 0.47714 0.0
O666 O 0.90778 0.30165 0.5419 0.0
H667 H 0.86661 0.28088 0.60419 0.0
H668 H 0.91088 0.26987 0.54619 0.0
H669 H 0.80081 0.34375 0.561 0.0
H670 H 0.9054 0.36496 0.47241 0.0
H671 H 0.79704 0.36861 0.52243 0.0
H672 H 0.90127 0.38713 0.51723 0.0
O673 O 0.84342 0.30754 0.51331 0.0
H674 H 0.90711 0.28202 0.42433 0.0
H675 H 0.87163 0.261 0.52022 0.0
H676 H 0.87569 0.24332 0.46823 0.0
H677 H 0.89357 0.25379 0.41983 0.0
H678 H 0.90257 0.29937 0.47665 0.0
H679 H 0.91764 0.2463 0.58568 0.0
H680 H 0.8985 0.23986 0.635 0.0
O681 O 0.8588 0.28822 0.542 0.0
C682 C 0.86786 0.32096 0.58954 0.0
C683 C 0.88123 0.25998 0.6227 0.0
C684 C 0.9064 0.2538 0.58991 0.0
N685 N 0.88831 0.27667 0.57278 0.0
C686 C 0.87776 0.27327 0.59994 0.0
C687 C 0.90254 0.2672 0.56769 0.0
C688 C 0.89565 0.25019 0.61757 0.0
C689 C 0.8847 0.34972 0.49094 0.0
N690 N 0.8721 0.34807 0.51493 0.0
C691 C 0.89539 0.36376 0.49138 0.0
C692 C 0.89308 0.37618 0.51657 0.0
C693 C 0.88018 0.37443 0.54091 0.0
C694 C 0.86976 0.3602 0.53972 0.0
C695 C 0.82104 0.36526 0.49714 0.0
C696 C 0.82532 0.33757 0.54016 0.0
C697 C 0.83565 0.35539 0.49549 0.0
N698 N 0.83767 0.3418 0.51698 0.0
C699 C 0.81054 0.34715 0.54254 0.0
C700 C 0.80843 0.36108 0.52087 0.0
C701 C 0.84509 0.29311 0.52767 0.0
C702 C 0.89932 0.2773 0.44528 0.0
C703 C 0.87937 0.26569 0.49923 0.0
C704 C 0.88166 0.25559 0.46988 0.0
C705 C 0.89171 0.26147 0.44275 0.0
N706 N 0.8869 0.2812 0.50153 0.0
C707 C 0.89676 0.28704 0.47503 0.0
Co708 Co 0.68195 0.15144 0.51244 0.0
Co709 Co 0.7148 0.12634 0.48474 0.0
O710 O 0.69587 0.13112 0.51594 0.0
C711 C 0.69236 0.15214 0.58628 0.0
O712 O 0.70797 0.14935 0.57622 0.0
C713 C 0.69411 0.09483 0.48285 0.0
O714 O 0.68064 0.10425 0.47823 0.0
O715 O 0.70029 0.13018 0.44297 0.0
O716 O 0.68285 0.15074 0.46083 0.0
H717 H 0.75277 0.13681 0.38254 0.0
H718 H 0.67006 0.1226 0.55484 0.0
O719 O 0.68048 0.15281 0.56409 0.0
H720 H 0.6262 0.13087 0.46558 0.0
H721 H 0.63376 0.1896 0.54613 0.0
H722 H 0.68324 0.18256 0.46974 0.0
H723 H 0.65112 0.14952 0.46783 0.0
H724 H 0.65116 0.1638 0.54923 0.0
O725 O 0.70864 0.10169 0.48496 0.0
H726 H 0.72918 0.14291 0.42244 0.0
H727 H 0.74043 0.09877 0.48066 0.0
H728 H 0.6661 0.20851 0.46555 0.0
H729 H 0.64524 0.10375 0.55376 0.0
H730 H 0.64116 0.21215 0.50395 0.0
H731 H 0.62313 0.1078 0.50881 0.0
O732 O 0.70242 0.16603 0.51342 0.0
H733 H 0.72825 0.10263 0.60251 0.0
H734 H 0.74906 0.13812 0.50644 0.0
H735 H 0.76676 0.13422 0.55845 0.0
H736 H 0.75639 0.11634 0.60694 0.0
H737 H 0.71087 0.107 0.55016 0.0
H738 H 0.76406 0.09211 0.44124 0.0
H739 H 0.7704 0.11124 0.39183 0.0
O740 O 0.72177 0.15076 0.48458 0.0
C741 C 0.68916 0.1415 0.43707 0.0
C742 C 0.75017 0.1284 0.40403 0.0
C743 C 0.75649 0.1033 0.43694 0.0
N744 N 0.73351 0.12127 0.45396 0.0
C745 C 0.73685 0.13181 0.42675 0.0
C746 C 0.74306 0.10711 0.45913 0.0
C747 C 0.76004 0.11404 0.40924 0.0
C748 C 0.6604 0.12454 0.5354 0.0
N749 N 0.66203 0.13717 0.51147 0.0
C750 C 0.64642 0.11378 0.53484 0.0
C751 C 0.63403 0.11604 0.50957 0.0
C752 C 0.63575 0.12898 0.48529 0.0
C753 C 0.64992 0.13947 0.48661 0.0
C754 C 0.64458 0.18815 0.52922 0.0
C755 C 0.67235 0.18402 0.48639 0.0
C756 C 0.65451 0.17359 0.53092 0.0
N757 N 0.66814 0.17163 0.50952 0.0
C758 C 0.66272 0.19875 0.48397 0.0
C759 C 0.64874 0.2008 0.50554 0.0
C760 C 0.71684 0.16444 0.499 0.0
C761 C 0.73292 0.11042 0.58152 0.0
C762 C 0.74442 0.13037 0.52747 0.0
C763 C 0.75452 0.12818 0.55683 0.0
C764 C 0.7487 0.11813 0.58401 0.0
N765 N 0.72896 0.12275 0.52519 0.0
C766 C 0.72317 0.11289 0.55175 0.0
Co767 Co 0.85833 0.68157 0.51101 0.0
Co768 Co 0.88369 0.71448 0.48459 0.0
O769 O 0.87871 0.69538 0.51519 0.0
C770 C 0.85756 0.69169 0.58495 0.0
O771 O 0.86054 0.70728 0.57507 0.0
C772 C 0.91511 0.69366 0.48262 0.0
O773 O 0.90567 0.68026 0.47741 0.0
O774 O 0.87997 0.70024 0.44243 0.0
O775 O 0.85927 0.68273 0.45941 0.0
H776 H 0.87385 0.75309 0.38313 0.0
H777 H 0.88694 0.66933 0.55366 0.0
O778 O 0.85676 0.67987 0.56261 0.0
H779 H 0.87883 0.62596 0.46331 0.0
H780 H 0.81981 0.6334 0.54306 0.0
H781 H 0.82742 0.68319 0.46773 0.0
H782 H 0.8603 0.65097 0.46576 0.0
H783 H 0.84567 0.65069 0.547 0.0
O784 O 0.9083 0.70821 0.48508 0.0
H785 H 0.86746 0.7293 0.42234 0.0
H786 H 0.91139 0.74003 0.48166 0.0
H787 H 0.80143 0.66617 0.46271 0.0
H788 H 0.90567 0.64443 0.55237 0.0
H789 H 0.7975 0.64107 0.50057 0.0
H790 H 0.9017 0.62256 0.50687 0.0
O791 O 0.84383 0.7021 0.51217 0.0
H792 H 0.90703 0.72714 0.60304 0.0
H793 H 0.87197 0.74866 0.50698 0.0
H794 H 0.87574 0.76603 0.55951 0.0
H795 H 0.89341 0.7553 0.60799 0.0
H796 H 0.90278 0.71009 0.55019 0.0
H797 H 0.91833 0.76385 0.44294 0.0
H798 H 0.89945 0.77055 0.39333 0.0
O799 O 0.85932 0.72157 0.48416 0.0
C800 C 0.86864 0.68917 0.43601 0.0
C801 C 0.88215 0.75032 0.40471 0.0
C802 C 0.90713 0.75635 0.43825 0.0
N803 N 0.88898 0.73335 0.45437 0.0
C804 C 0.87858 0.7369 0.42705 0.0
C805 C 0.90316 0.74282 0.46004 0.0
C806 C 0.89652 0.76011 0.41043 0.0
C807 C 0.88504 0.65979 0.53398 0.0
N808 N 0.87252 0.66159 0.50986 0.0
C809 C 0.89573 0.64575 0.5333 0.0
C810 C 0.89351 0.6335 0.50773 0.0
C811 C 0.88069 0.63541 0.48326 0.0
C812 C 0.87026 0.64963 0.4847 0.0
C813 C 0.82139 0.64429 0.52638 0.0
C814 C 0.82584 0.67223 0.48415 0.0
C815 C 0.83599 0.65414 0.52855 0.0
N816 N 0.8381 0.66786 0.50744 0.0
C817 C 0.81108 0.66267 0.48125 0.0
C818 C 0.80888 0.6486 0.50252 0.0
C819 C 0.84555 0.7166 0.49816 0.0
C820 C 0.89934 0.73197 0.58206 0.0
C821 C 0.87962 0.74386 0.52801 0.0
C822 C 0.88175 0.75378 0.55766 0.0
C823 C 0.89167 0.74776 0.58484 0.0
N824 N 0.88719 0.72839 0.52546 0.0
C825 C 0.89694 0.7224 0.55201 0.0
Co826 Co 0.32786 0.85824 0.51247 0.0
Co827 Co 0.29552 0.88356 0.48378 0.0
O828 O 0.31431 0.87884 0.51539 0.0
C829 C 0.31791 0.85856 0.58657 0.0
O830 O 0.30229 0.86147 0.57671 0.0
C831 C 0.31623 0.91504 0.4821 0.0
O832 O 0.32969 0.90559 0.47767 0.0
O833 O 0.3103 0.87971 0.44254 0.0
O834 O 0.32664 0.85833 0.46072 0.0
H835 H 0.25823 0.87315 0.38048 0.0
H836 H 0.34063 0.88732 0.55306 0.0
O837 O 0.32966 0.85747 0.56416 0.0
H838 H 0.38369 0.87708 0.46302 0.0
H839 H 0.37552 0.81954 0.54668 0.0
H840 H 0.32566 0.82667 0.47138 0.0
H841 H 0.3584 0.859 0.46687 0.0
H842 H 0.35864 0.84571 0.54903 0.0
O843 O 0.30168 0.90821 0.48413 0.0
H844 H 0.28158 0.86704 0.42098 0.0
H845 H 0.26987 0.9111 0.47914 0.0
H846 H 0.34228 0.80036 0.46795 0.0
H847 H 0.36583 0.90562 0.55038 0.0
H848 H 0.36741 0.79667 0.5058 0.0
H849 H 0.38755 0.90058 0.50503 0.0
O850 O 0.30709 0.84416 0.51489 0.0
H851 H 0.28122 0.90736 0.60106 0.0
H852 H 0.26121 0.87159 0.50466 0.0
H853 H 0.24317 0.87546 0.5562 0.0
H854 H 0.25314 0.89348 0.60484 0.0
H855 H 0.29894 0.90301 0.54919 0.0
H856 H 0.24648 0.91776 0.43912 0.0
H857 H 0.2405 0.89867 0.38945 0.0
O858 O 0.28853 0.85913 0.48333 0.0
C859 C 0.32088 0.86786 0.43681 0.0
C860 C 0.26068 0.88154 0.40209 0.0
C861 C 0.25411 0.90658 0.43497 0.0
N862 N 0.27701 0.88863 0.45251 0.0
C863 C 0.27386 0.87812 0.42515 0.0
C864 C 0.26739 0.90277 0.45749 0.0
C865 C 0.25075 0.89587 0.40711 0.0
C866 C 0.3501 0.88496 0.53346 0.0
N867 N 0.34805 0.87209 0.51019 0.0
C868 C 0.36431 0.8954 0.53198 0.0
C869 C 0.37648 0.89258 0.50649 0.0
C870 C 0.37432 0.87941 0.4829 0.0
C871 C 0.35993 0.86925 0.48512 0.0
C872 C 0.36462 0.82101 0.53001 0.0
C873 C 0.33664 0.82519 0.48779 0.0
C874 C 0.35498 0.83578 0.53129 0.0
N875 N 0.34125 0.83775 0.51019 0.0
C876 C 0.34597 0.81025 0.4858 0.0
C877 C 0.36006 0.80818 0.50706 0.0
C878 C 0.29294 0.84572 0.49942 0.0
C879 C 0.27672 0.89952 0.57999 0.0
C880 C 0.26567 0.87941 0.52576 0.0
C881 C 0.25538 0.88159 0.55484 0.0
C882 C 0.26097 0.89171 0.58212 0.0
N883 N 0.2811 0.88713 0.52384 0.0
C884 C 0.28667 0.89707 0.55049 0.0
Co885 Co 0.15091 0.32783 0.51238 0.0
Co886 Co 0.12548 0.29539 0.48393 0.0
O887 O 0.1304 0.31417 0.51544 0.0
C888 C 0.15124 0.31723 0.58611 0.0
O889 O 0.14846 0.30166 0.57579 0.0
C890 C 0.09416 0.31639 0.48213 0.0
O891 O 0.10368 0.3298 0.47761 0.0
O892 O 0.12957 0.31001 0.44242 0.0
O893 O 0.1504 0.32704 0.46073 0.0
H894 H 0.13574 0.25766 0.38126 0.0
H895 H 0.12206 0.34001 0.55438 0.0
O896 O 0.15208 0.32917 0.56408 0.0
H897 H 0.13133 0.38397 0.46574 0.0
H898 H 0.1896 0.37542 0.54715 0.0
H899 H 0.18216 0.32623 0.47011 0.0
H900 H 0.14961 0.35879 0.46806 0.0
H901 H 0.16357 0.35834 0.54973 0.0
O902 O 0.10091 0.3018 0.48409 0.0
H903 H 0.14201 0.28106 0.42155 0.0
H904 H 0.09765 0.27005 0.47927 0.0
H905 H 0.20833 0.34305 0.46645 0.0
H906 H 0.10356 0.36508 0.55323 0.0
H907 H 0.21218 0.36784 0.50518 0.0
H908 H 0.10811 0.38726 0.50859 0.0
O909 O 0.16521 0.30715 0.5134 0.0
H910 H 0.10145 0.28181 0.60137 0.0
H911 H 0.13682 0.26092 0.50519 0.0
H912 H 0.13266 0.24309 0.55693 0.0
H913 H 0.11483 0.2535 0.60547 0.0
H914 H 0.10609 0.29931 0.54929 0.0
H915 H 0.09082 0.24662 0.43946 0.0
H916 H 0.10998 0.24026 0.39011 0.0
O917 O 0.14981 0.28816 0.48385 0.0
C918 C 0.14112 0.32095 0.43678 0.0
C919 C 0.12732 0.26028 0.40272 0.0
C920 C 0.10209 0.2541 0.43536 0.0
N921 N 0.12027 0.27685 0.45284 0.0
C922 C 0.13082 0.27348 0.42566 0.0
C923 C 0.106 0.26741 0.45776 0.0
C924 C 0.11285 0.25053 0.40768 0.0
C925 C 0.12421 0.34968 0.53508 0.0
N926 N 0.13692 0.34794 0.51136 0.0
C927 C 0.11366 0.36382 0.53447 0.0
C928 C 0.1162 0.37624 0.50938 0.0
C929 C 0.12921 0.3744 0.48531 0.0
C930 C 0.1395 0.36007 0.48668 0.0
C931 C 0.18806 0.36467 0.5301 0.0
C932 C 0.1837 0.33706 0.48691 0.0
C933 C 0.17337 0.35492 0.5315 0.0
N934 N 0.1713 0.34137 0.50992 0.0
C935 C 0.19856 0.34651 0.48478 0.0
C936 C 0.20072 0.36041 0.50654 0.0
C937 C 0.16348 0.29282 0.49865 0.0
C938 C 0.10921 0.27712 0.58035 0.0
C939 C 0.1291 0.26558 0.52625 0.0
C940 C 0.12675 0.2554 0.55545 0.0
C941 C 0.11674 0.26124 0.58266 0.0
N942 N 0.12166 0.28113 0.52415 0.0
C943 C 0.11183 0.28694 0.55074 0.0
H944 H 0.21911 0.5717 0.9932 0.0
H945 H 0.21635 0.54146 0.00403 0.0
H946 H 0.16215 0.54563 0.99715 0.0
H947 H 0.16479 0.57601 0.98574 0.0
H948 H 0.20008 0.52572 0.05829 0.0
H949 H 0.17187 0.50594 0.93261 0.0
H950 H 0.18157 0.52637 0.93868 0.0
H951 H 0.16069 0.52239 0.95506 0.0
C952 C 0.20657 0.56622 0.99368 0.0
C953 C 0.19217 0.57633 0.98841 0.0
C954 C 0.20502 0.54889 0.99996 0.0
C955 C 0.18906 0.54118 1.00104 0.0
C956 C 0.17462 0.5512 0.99576 0.0
H957 H 0.16424 0.43418 0.03905 0.0
H958 H 0.16199 0.46485 0.03062 0.0
C959 C 0.17616 0.5686 0.98938 0.0
C960 C 0.18772 0.52279 0.00888 0.0
H961 H 0.1752 0.48478 0.97531 0.0
C962 C 0.19459 0.51679 0.04015 0.0
C963 C 0.18046 0.51111 0.98536 0.0
C964 C 0.17334 0.51669 0.9509 0.0
C965 C 0.19459 0.49949 0.04836 0.0
C966 C 0.18775 0.48777 0.02445 0.0
C967 C 0.18044 0.49377 0.99361 0.0
C968 C 0.18897 0.4692 0.03015 0.0
C969 C 0.20189 0.49391 0.08266 0.0
C970 C 0.20486 0.46142 0.03234 0.0
C971 C 0.2062 0.44396 0.03713 0.0
C972 C 0.19165 0.43381 0.03974 0.0
C973 C 0.1757 0.44161 0.03742 0.0
C974 C 0.17439 0.45913 0.03249 0.0
H975 H 0.20207 0.5044 0.10182 0.0
H976 H 0.1946 0.4832 0.09372 0.0
H977 H 0.21511 0.48967 0.07865 0.0
H978 H 0.21629 0.46885 0.02994 0.0
H979 H 0.21869 0.43842 0.03855 0.0
H980 H 0.4341 0.16492 0.98639 0.0
H981 H 0.46448 0.16263 0.99836 0.0
H982 H 0.46801 0.21688 0.00502 0.0
H983 H 0.43782 0.2193 0.99359 0.0
H984 H 0.49251 0.17581 0.96321 0.0
H985 H 0.48904 0.20184 0.0964 0.0
H986 H 0.47055 0.195 0.07287 0.0
H987 H 0.47962 0.21546 0.06461 0.0
C988 C 0.44136 0.17637 0.99034 0.0
C989 C 0.43345 0.19229 0.98922 0.0
C990 C 0.45872 0.17503 0.99721 0.0
C991 C 0.46849 0.18956 0.0033 0.0
C992 C 0.4607 0.20546 1.00128 0.0
H993 H 0.57139 0.21884 0.03852 0.0
H994 H 0.54099 0.21634 0.02921 0.0
C995 C 0.4434 0.20682 0.99449 0.0
C996 C 0.48685 0.18828 0.01145 0.0
H997 H 0.51654 0.20015 0.0711 0.0
C998 C 0.49776 0.18094 0.98698 0.0
C999 C 0.4937 0.19491 0.04255 0.0
C1000 C 0.48261 0.20209 0.07078 0.0
C1001 C 0.51538 0.18073 0.99209 0.0
C1002 C 0.52225 0.18784 0.02271 0.0
C1003 C 0.51129 0.19477 0.04757 0.0
C1004 C 0.5408 0.18902 0.02875 0.0
C1005 C 0.52656 0.17351 0.96408 0.0
C1006 C 0.55084 0.17446 0.03211 0.0
C1007 C 0.56831 0.17584 0.03757 0.0
C1008 C 0.57608 0.19181 0.03981 0.0
C1009 C 0.5659 0.20633 0.03688 0.0
C1010 C 0.54848 0.20494 0.03156 0.0
H1011 H 0.51963 0.17169 0.93928 0.0
H1012 H 0.53757 0.18189 0.95927 0.0
H1013 H 0.53143 0.16103 0.9726 0.0
H1014 H 0.54515 0.16204 0.03062 0.0
H1015 H 0.57574 0.1644 0.03971 0.0
H1016 H 0.78982 0.43771 0.99066 0.0
H1017 H 0.79223 0.46799 1.00135 0.0
H1018 H 0.84653 0.46411 0.99848 0.0
H1019 H 0.84426 0.43369 0.98725 0.0
H1020 H 0.80752 0.48387 0.05675 0.0
H1021 H 0.83767 0.50369 0.93306 0.0
H1022 H 0.82796 0.48323 0.93851 0.0
H1023 H 0.84856 0.48729 0.95624 0.0
C1024 C 0.80231 0.44326 0.99197 0.0
C1025 C 0.81686 0.43322 0.9879 0.0
C1026 C 0.80365 0.46062 0.99817 0.0
C1027 C 0.81954 0.46841 1.00035 0.0
C1028 C 0.83412 0.45847 0.99621 0.0
H1029 H 0.84443 0.57509 0.04019 0.0
H1030 H 0.8464 0.54443 0.03141 0.0
C1031 C 0.83279 0.44105 0.98993 0.0
C1032 C 0.82067 0.48682 0.00822 0.0
H1033 H 0.83379 0.52483 0.97566 0.0
C1034 C 0.8133 0.49281 0.03902 0.0
C1035 C 0.8283 0.49851 0.98523 0.0
C1036 C 0.83596 0.49294 0.95125 0.0
C1037 C 0.81322 0.5101 0.04732 0.0
C1038 C 0.82047 0.52183 0.02394 0.0
C1039 C 0.82823 0.51584 0.99355 0.0
C1040 C 0.81938 0.5404 0.02982 0.0
C1041 C 0.80543 0.51565 0.08119 0.0
C1042 C 0.80356 0.54836 0.03149 0.0
C1043 C 0.80239 0.56582 0.03651 0.0
C1044 C 0.81703 0.57579 0.03984 0.0
C1045 C 0.8329 0.5678 0.038 0.0
C1046 C 0.83405 0.55029 0.03287 0.0
H1047 H 0.80493 0.50513 0.10025 0.0
H1048 H 0.8126 0.52631 0.09279 0.0
H1049 H 0.79229 0.51995 0.0764 0.0
H1050 H 0.79207 0.54108 0.0285 0.0
H1051 H 0.78995 0.57151 0.03752 0.0
H1052 H 0.57268 0.78995 0.98936 0.0
H1053 H 0.54241 0.79224 1.00042 0.0
H1054 H 0.54608 0.84657 0.99731 0.0
H1055 H 0.57646 0.84441 0.98575 0.0
H1056 H 0.52663 0.80763 0.05605 0.0
H1057 H 0.50637 0.83741 0.93228 0.0
H1058 H 0.52686 0.82774 0.93757 0.0
H1059 H 0.52284 0.84839 0.95509 0.0
C1060 C 0.56707 0.80241 0.99069 0.0
C1061 C 0.57705 0.817 0.98646 0.0
C1062 C 0.54973 0.80369 0.9971 0.0
C1063 C 0.54188 0.81956 0.99932 0.0
C1064 C 0.55176 0.83417 0.99503 0.0
H1065 H 0.43526 0.84432 0.04013 0.0
H1066 H 0.4659 0.84637 0.03114 0.0
C1067 C 0.56916 0.83291 0.98854 0.0
C1068 C 0.5235 0.82064 0.00741 0.0
H1069 H 0.48538 0.83365 0.97523 0.0
C1070 C 0.51763 0.81335 0.03838 0.0
C1071 C 0.51174 0.8282 0.98449 0.0
C1072 C 0.51718 0.83577 0.95035 0.0
C1073 C 0.50037 0.81329 0.04693 0.0
C1074 C 0.48856 0.82048 0.02364 0.0
C1075 C 0.49444 0.82815 0.99307 0.0
C1076 C 0.47001 0.81936 0.02975 0.0
C1077 C 0.49494 0.80559 0.08097 0.0
C1078 C 0.4621 0.80351 0.03163 0.0
C1079 C 0.44466 0.80229 0.03676 0.0
C1080 C 0.43465 0.81691 0.04001 0.0
C1081 C 0.44258 0.8328 0.03801 0.0
C1082 C 0.46009 0.834 0.03276 0.0
H1083 H 0.50552 0.80517 0.09989 0.0
H1084 H 0.48431 0.81278 0.09262 0.0
H1085 H 0.49065 0.79243 0.0764 0.0
H1086 H 0.46942 0.79203 0.02868 0.0
H1087 H 0.43902 0.78984 0.0379 0.0
H1088 H 0.71959 0.07178 0.48981 0.0
H1089 H 0.71727 0.04148 0.50037 0.0
H1090 H 0.66295 0.04531 0.49869 0.0
H1091 H 0.66514 0.07574 0.48758 0.0
H1092 H 0.70232 0.02554 0.55599 0.0
H1093 H 0.67145 0.00578 0.43299 0.0
H1094 H 0.68116 0.02626 0.43829 0.0
H1095 H 0.66068 0.02214 0.45652 0.0
C1096 C 0.70711 0.06621 0.49135 0.0
C1097 C 0.69254 0.07625 0.48766 0.0
C1098 C 0.70582 0.04884 0.49747 0.0
C1099 C 0.68995 0.04103 0.49996 0.0
C1100 C 0.67534 0.05097 0.49618 0.0
H1101 H 0.66579 0.93414 0.54015 0.0
H1102 H 0.66354 0.9648 0.5316 0.0
C1103 C 0.67662 0.06839 0.48997 0.0
C1104 C 0.68888 0.02261 0.50778 0.0
H1105 H 0.67565 0.9846 0.47537 0.0
C1106 C 0.69645 0.01661 0.53836 0.0
C1107 C 0.68113 0.01093 0.48493 0.0
C1108 C 0.67325 0.01652 0.45119 0.0
C1109 C 0.69663 0.9993 0.54656 0.0
C1110 C 0.68926 0.98758 0.52331 0.0
C1111 C 0.6813 0.99359 0.49316 0.0
C1112 C 0.69051 0.96901 0.52899 0.0
C1113 C 0.70466 0.99373 0.58017 0.0
C1114 C 0.70639 0.96115 0.53001 0.0
C1115 C 0.70773 0.9437 0.53488 0.0
C1116 C 0.69318 0.93363 0.53874 0.0
C1117 C 0.67725 0.94151 0.53754 0.0
C1118 C 0.67593 0.95903 0.53254 0.0
H1119 H 0.70525 1.00422 0.59928 0.0
H1120 H 0.6976 0.98303 0.5919 0.0
H1121 H 0.71777 0.98948 0.57498 0.0
H1122 H 0.71781 0.96852 0.52664 0.0
H1123 H 0.72021 0.93809 0.53541 0.0
H1124 H 0.93414 0.6646 0.48615 0.0
H1125 H 0.96453 0.66224 0.4979 0.0
H1126 H 0.9684 0.71652 0.50225 0.0
H1127 H 0.93819 0.71902 0.49101 0.0
H1128 H 0.99263 0.67496 0.46202 0.0
H1129 H 0.98936 0.70216 0.59425 0.0
H1130 H 0.97082 0.69518 0.57103 0.0
H1131 H 0.97997 0.71552 0.56197 0.0
C1132 C 0.94147 0.67604 0.48951 0.0
C1133 C 0.93366 0.692 0.48783 0.0
C1134 C 0.95884 0.67466 0.49626 0.0
C1135 C 0.9687 0.68919 0.50166 0.0
C1136 C 0.96101 0.70511 0.49903 0.0
H1137 H 0.07168 0.71828 0.53596 0.0
H1138 H 0.04129 0.7158 0.52649 0.0
C1139 C 0.9437 0.70651 0.49236 0.0
C1140 C 0.98705 0.68787 0.50981 0.0
H1141 H 0.01683 0.70007 0.56899 0.0
C1142 C 0.99791 0.68026 0.48559 0.0
C1143 C 0.99395 0.69472 0.54067 0.0
C1144 C 0.98291 0.7022 0.56864 0.0
C1145 C 0.01553 0.68 0.49068 0.0
C1146 C 0.02245 0.68733 0.52103 0.0
C1147 C 0.01154 0.69453 0.54566 0.0
C1148 C 0.041 0.68848 0.52699 0.0
C1149 C 0.02666 0.67247 0.46292 0.0
C1150 C 0.05098 0.67392 0.53089 0.0
C1151 C 0.06845 0.67528 0.53643 0.0
C1152 C 0.07626 0.69124 0.53822 0.0
C1153 C 0.06615 0.70577 0.53469 0.0
C1154 C 0.04874 0.7044 0.52928 0.0
H1155 H 0.01971 0.67047 0.43821 0.0
H1156 H 0.03771 0.68076 0.45778 0.0
H1157 H 0.03148 0.66006 0.47189 0.0
H1158 H 0.04525 0.66151 0.52982 0.0
H1159 H 0.07584 0.66383 0.53907 0.0
H1160 H 0.29075 0.07161 0.5343 0.0
H1161 H 0.29334 0.04135 0.52354 0.0
H1162 H 0.3476 0.04539 0.52855 0.0
H1163 H 0.34513 0.07579 0.53989 0.0
H1164 H 0.30914 0.0256 0.4687 0.0
H1165 H 0.33826 0.0057 0.5934 0.0
H1166 H 0.32857 0.02615 0.58768 0.0
H1167 H 0.3493 0.02214 0.57062 0.0
C1168 C 0.30327 0.0661 0.53344 0.0
C1169 C 0.31774 0.07618 0.53814 0.0
C1170 C 0.30472 0.04876 0.5272 0.0
C1171 C 0.32064 0.04101 0.52559 0.0
C1172 C 0.33515 0.051 0.53036 0.0
H1173 H 0.34522 0.93413 0.48637 0.0
H1174 H 0.34743 0.96478 0.49506 0.0
C1175 C 0.33372 0.0684 0.5367 0.0
C1176 C 0.32187 0.02262 0.51769 0.0
H1177 H 0.33459 0.98457 0.55074 0.0
C1178 C 0.31474 0.01665 0.48663 0.0
C1179 C 0.32929 0.01091 0.54095 0.0
C1180 C 0.33668 0.01646 0.57518 0.0
C1181 C 0.31466 0.99935 0.47837 0.0
C1182 C 0.32166 0.9876 0.50201 0.0
C1183 C 0.32921 0.99358 0.53264 0.0
C1184 C 0.32045 0.96904 0.49622 0.0
C1185 C 0.30709 0.99381 0.44428 0.0
C1186 C 0.30456 0.96121 0.49432 0.0
C1187 C 0.30325 0.94376 0.48937 0.0
C1188 C 0.31781 0.93366 0.4863 0.0
C1189 C 0.33375 0.94151 0.48835 0.0
C1190 C 0.33504 0.95903 0.49344 0.0
H1191 H 0.30678 1.00432 0.42517 0.0
H1192 H 0.3143 0.98311 0.43293 0.0
H1193 H 0.29391 0.98956 0.44868 0.0
H1194 H 0.29312 0.96861 0.49708 0.0
H1195 H 0.29077 0.93818 0.48818 0.0
H1196 H 0.07103 0.29106 0.49033 0.0
H1197 H 0.04079 0.29357 0.50123 0.0
H1198 H 0.04479 0.34786 0.49737 0.0
H1199 H 0.07518 0.34548 0.48599 0.0
H1200 H 0.02515 0.30935 0.55678 0.0
H1201 H 0.00499 0.33855 0.4323 0.0
H1202 H 0.02541 0.32873 0.43775 0.0
H1203 H 0.02156 0.34947 0.45496 0.0
C1204 C 0.06552 0.30357 0.49146 0.0
C1205 C 0.07559 0.31807 0.4871 0.0
C1206 C 0.04818 0.30497 0.49778 0.0
C1207 C 0.04043 0.32089 0.49977 0.0
C1208 C 0.0504 0.33543 0.49529 0.0
H1209 H 0.93354 0.34528 0.53931 0.0
H1210 H 0.96418 0.34756 0.53052 0.0
C1211 C 0.0678 0.33404 0.48891 0.0
C1212 C 0.02205 0.32208 0.50782 0.0
H1213 H 0.98394 0.33473 0.47504 0.0
C1214 C 0.01615 0.31495 0.53892 0.0
C1215 C 0.0103 0.32948 0.48465 0.0
C1216 C 0.01579 0.33689 0.45039 0.0
C1217 C 0.99888 0.31485 0.54733 0.0
C1218 C 0.98708 0.32183 0.52376 0.0
C1219 C 0.99299 0.32938 0.49308 0.0
C1220 C 0.96852 0.32058 0.52968 0.0
C1221 C 0.99342 0.30732 0.5815 0.0
C1222 C 0.96075 0.30468 0.5318 0.0
C1223 C 0.94331 0.30333 0.53682 0.0
C1224 C 0.93316 0.31787 0.53972 0.0
C1225 C 0.94096 0.33382 0.53747 0.0
C1226 C 0.95847 0.33515 0.53232 0.0
H1227 H 1.00395 0.30708 0.60054 0.0
H1228 H 0.9827 0.31449 0.59286 0.0
H1229 H 0.98923 0.2941 0.57721 0.0
H1230 H 0.96817 0.29325 0.52915 0.0
H1231 H 0.93777 0.29083 0.53817 0.0
H1232 H 0.21231 0.31457 0.99739 0.0
H1233 H 0.23289 0.29159 0.9933 0.0
H1234 H 0.26913 0.32152 0.04984 0.0
H1235 H 0.24864 0.3444 0.05466 0.0
H1236 H 0.26425 0.2919 0.96216 0.0
H1237 H 0.2705 0.27689 0.102 0.0
H1238 H 0.25352 0.2897 0.08513 0.0
H1239 H 0.27404 0.29879 0.09242 0.0
C1240 C 0.22459 0.31623 0.00929 0.0
C1241 C 0.22875 0.33139 0.02642 0.0
C1242 C 0.23636 0.30308 0.00683 0.0
C1243 C 0.25249 0.30473 0.02163 0.0
C1244 C 0.25666 0.31979 0.03883 0.0
H1245 H 0.34412 0.24973 0.97227 0.0
H1246 H 0.32112 0.27017 0.97668 0.0
C1247 C 0.24492 0.33294 0.04136 0.0
C1248 C 0.2652 0.291 0.01797 0.0
H1249 H 0.29131 0.26509 0.06435 0.0
C1250 C 0.27008 0.28595 0.9845 0.0
C1251 C 0.27267 0.28308 0.04711 0.0
C1252 C 0.26731 0.28725 0.08369 0.0
C1253 C 0.28254 0.27353 0.97939 0.0
C1254 C 0.29053 0.26614 0.00854 0.0
C1255 C 0.28532 0.27087 0.042 0.0
C1256 C 0.30436 0.25353 0.00498 0.0
C1257 C 0.28688 0.26831 0.9428 0.0
C1258 C 0.30276 0.23744 0.01997 0.0
C1259 C 0.31597 0.22574 0.01779 0.0
C1260 C 0.33114 0.2299 1.00071 0.0
C1261 C 0.33265 0.24602 0.98555 0.0
C1262 C 0.31944 0.25772 0.98783 0.0
H1263 H 0.27654 0.27143 0.92439 0.0
H1264 H 0.29837 0.27519 0.93431 0.0
H1265 H 0.28948 0.25455 0.94126 0.0
H1266 H 0.29127 0.23394 0.03345 0.0
H1267 H 0.31432 0.21348 0.0298 0.0
H1268 H 0.76028 0.34349 0.97243 0.0
H1269 H 0.73993 0.32049 0.97797 0.0
H1270 H 0.77696 0.29056 0.03224 0.0
H1271 H 0.79738 0.31364 0.02749 0.0
H1272 H 0.74073 0.28753 0.95519 0.0
H1273 H 0.73696 0.28994 0.09898 0.0
H1274 H 0.74684 0.30639 0.07369 0.0
H1275 H 0.75792 0.28701 0.0822 0.0
C1276 C 0.76416 0.33204 0.98558 0.0
C1277 C 0.78048 0.33055 0.99985 0.0
C1278 C 0.75248 0.31887 0.98865 0.0
C1279 C 0.75679 0.30391 0.00607 0.0
C1280 C 0.77321 0.30213 0.01938 0.0
H1281 H 0.69538 0.21175 0.99813 0.0
H1282 H 0.71841 0.23223 0.99331 0.0
C1283 C 0.78492 0.31533 0.01642 0.0
C1284 C 0.74402 0.29028 0.01034 0.0
H1285 H 0.72199 0.26787 0.0712 0.0
C1286 C 0.73666 0.28319 0.98055 0.0
C1287 C 0.73855 0.28479 0.04346 0.0
C1288 C 0.74534 0.29251 0.07645 0.0
C1289 C 0.72402 0.27076 0.98294 0.0
C1290 C 0.7188 0.26503 0.01605 0.0
C1291 C 0.72613 0.27214 0.04584 0.0
C1292 C 0.7052 0.25222 0.02033 0.0
C1293 C 0.71603 0.26424 0.95 0.0
C1294 C 0.69034 0.25643 0.03821 0.0
C1295 C 0.67719 0.24472 0.04129 0.0
C1296 C 0.67861 0.22848 0.02659 0.0
C1297 C 0.69375 0.22415 0.00956 0.0
C1298 C 0.70691 0.23589 0.00656 0.0
H1299 H 0.71845 0.27277 0.92765 0.0
H1300 H 0.72142 0.25167 0.9437 0.0
H1301 H 0.70216 0.26278 0.95317 0.0
H1302 H 0.68877 0.26892 0.04924 0.0
H1303 H 0.66581 0.24852 0.05479 0.0
H1304 H 0.79278 0.69038 0.98116 0.0
H1305 H 0.77187 0.71298 0.97678 0.0
H1306 H 0.74591 0.6932 0.06644 0.0
H1307 H 0.76635 0.67014 0.07004 0.0
H1308 H 0.72404 0.70037 0.01873 0.0
H1309 H 0.76666 0.75542 0.03073 0.0
H1310 H 0.77262 0.74204 0.99527 0.0
H1311 H 0.77368 0.73413 0.03907 0.0
C1312 C 0.78273 0.69095 1.00021 0.0
C1313 C 0.7813 0.67848 0.02607 0.0
C1314 C 0.77082 0.70397 0.9978 0.0
C1315 C 0.75744 0.70507 0.02169 0.0
C1316 C 0.75612 0.69271 0.04775 0.0
H1317 H 0.69139 0.79259 0.0446 0.0
H1318 H 0.71359 0.77129 0.05024 0.0
C1319 C 0.76785 0.67953 0.04983 0.0
C1320 C 0.74433 0.71852 0.01854 0.0
H1321 H 0.73865 0.76117 0.01083 0.0
C1322 C 0.72726 0.71368 0.01725 0.0
C1323 C 0.74842 0.73594 0.0171 0.0
C1324 C 0.76633 0.74221 0.021 0.0
C1325 C 0.71425 0.72565 0.01418 0.0
C1326 C 0.71839 0.743 0.01095 0.0
C1327 C 0.73544 0.74788 0.01275 0.0
C1328 C 0.70522 0.75629 0.0065 0.0
C1329 C 0.69619 0.71955 0.01539 0.0
C1330 C 0.69332 0.75526 0.97952 0.0
C1331 C 0.68045 0.76729 0.97655 0.0
C1332 C 0.67944 0.78088 0.99999 0.0
C1333 C 0.6918 0.78231 0.02606 0.0
C1334 C 0.70451 0.77011 0.02934 0.0
H1335 H 0.69515 0.70716 0.02877 0.0
H1336 H 0.68789 0.72874 0.02893 0.0
H1337 H 0.69145 0.71787 0.98851 0.0
H1338 H 0.69389 0.74506 0.96084 0.0
H1339 H 0.67125 0.7659 0.95593 0.0
H1340 H 0.2137 0.69563 0.02742 0.0
H1341 H 0.23421 0.71864 0.03111 0.0
H1342 H 0.27088 0.68819 0.97696 0.0
H1343 H 0.2504 0.66522 0.97249 0.0
H1344 H 0.26495 0.7188 0.06334 0.0
H1345 H 0.27294 0.73229 0.92319 0.0
H1346 H 0.25584 0.71952 0.93972 0.0
H1347 H 0.27653 0.71054 0.93409 0.0
C1348 C 0.22607 0.69383 0.01599 0.0
C1349 C 0.23035 0.6785 0.99963 0.0
C1350 C 0.2378 0.70702 0.01819 0.0
C1351 C 0.25402 0.70525 0.00394 0.0
C1352 C 0.25833 0.69001 0.98751 0.0
H1353 H 0.34462 0.76091 0.0556 0.0
H1354 H 0.32165 0.74053 0.0505 0.0
C1355 C 0.2466 0.67682 0.9852 0.0
C1356 C 0.26665 0.71907 0.00757 0.0
H1357 H 0.29304 0.74484 0.96146 0.0
C1358 C 0.27101 0.72457 0.04105 0.0
C1359 C 0.2744 0.72677 0.97849 0.0
C1360 C 0.26959 0.72212 0.94183 0.0
C1361 C 0.28321 0.73722 0.04626 0.0
C1362 C 0.29149 0.7444 0.01724 0.0
C1363 C 0.28681 0.73923 0.98373 0.0
C1364 C 0.30526 0.75706 0.02109 0.0
C1365 C 0.287 0.7429 0.08283 0.0
C1366 C 0.30385 0.77309 0.00573 0.0
C1367 C 0.31705 0.7848 0.00838 0.0
C1368 C 0.33201 0.78068 0.02624 0.0
C1369 C 0.33331 0.76461 0.04173 0.0
C1370 C 0.32012 0.75293 0.03904 0.0
H1371 H 0.27643 0.7399 0.10077 0.0
H1372 H 0.29842 0.73622 0.09234 0.0
H1373 H 0.28947 0.7567 0.08386 0.0
H1374 H 0.29252 0.77652 0.99162 0.0
H1375 H 0.31559 0.79701 0.99603 0.0
H1376 H 0.84407 0.74873 0.47163 0.0
H1377 H 0.82113 0.76916 0.47712 0.0
H1378 H 0.79123 0.73236 0.53216 0.0
H1379 H 0.81423 0.71185 0.5274 0.0
H1380 H 0.78798 0.76822 0.45466 0.0
H1381 H 0.79104 0.77273 0.59832 0.0
H1382 H 0.80741 0.76278 0.57291 0.0
H1383 H 0.78809 0.75169 0.58195 0.0
C1384 C 0.83263 0.74491 0.48493 0.0
C1385 C 0.83113 0.72864 0.49939 0.0
C1386 C 0.8195 0.75664 0.48797 0.0
C1387 C 0.80457 0.75241 0.50558 0.0
C1388 C 0.80278 0.73604 0.51912 0.0
H1389 H 0.71253 0.814 0.49825 0.0
H1390 H 0.73291 0.79089 0.49347 0.0
C1391 C 0.81593 0.72428 0.51616 0.0
C1392 C 0.79099 0.76523 0.50982 0.0
H1393 H 0.76894 0.78766 0.57062 0.0
C1394 C 0.78377 0.77243 0.48 0.0
C1395 C 0.78567 0.77089 0.54292 0.0
C1396 C 0.79353 0.76426 0.57589 0.0
C1397 C 0.77138 0.78511 0.48236 0.0
C1398 C 0.76583 0.79054 0.51546 0.0
C1399 C 0.77307 0.78336 0.54527 0.0
C1400 C 0.75309 0.8042 0.51969 0.0
C1401 C 0.76471 0.79292 0.44937 0.0
C1402 C 0.75744 0.81916 0.5371 0.0
C1403 C 0.74578 0.83236 0.54015 0.0
C1404 C 0.72946 0.83089 0.5259 0.0
C1405 C 0.72499 0.81567 0.50932 0.0
C1406 C 0.73668 0.80246 0.50635 0.0
H1407 H 0.7731 0.79033 0.42688 0.0
H1408 H 0.75209 0.78753 0.4435 0.0
H1409 H 0.7633 0.80682 0.45222 0.0
H1410 H 0.77 0.82076 0.54779 0.0
H1411 H 0.74969 0.8438 0.55329 0.0
H1412 H 0.26546 0.84009 0.45784 0.0
H1413 H 0.24434 0.81773 0.46316 0.0
H1414 H 0.27086 0.79751 0.55168 0.0
H1415 H 0.29244 0.81943 0.54562 0.0
H1416 H 0.26042 0.77271 0.51229 0.0
H1417 H 0.2067 0.81638 0.53162 0.0
H1418 H 0.21724 0.8202 0.49122 0.0
H1419 H 0.22832 0.82355 0.53149 0.0
C1420 C 0.26685 0.83084 0.47837 0.0
C1421 C 0.28062 0.83161 0.5014 0.0
C1422 C 0.25465 0.81814 0.48159 0.0
C1423 C 0.2557 0.80616 0.50842 0.0
C1424 C 0.26967 0.80666 0.53091 0.0
H1425 H 0.1694 0.74429 0.57011 0.0
H1426 H 0.19221 0.7651 0.56733 0.0
C1427 C 0.28203 0.8192 0.52737 0.0
C1428 C 0.24235 0.79306 0.5129 0.0
H1429 H 0.1997 0.78756 0.52067 0.0
C1430 C 0.24715 0.77598 0.51434 0.0
C1431 C 0.22503 0.79727 0.51634 0.0
C1432 C 0.21903 0.81535 0.51798 0.0
C1433 C 0.23515 0.76303 0.5184 0.0
C1434 C 0.21775 0.76719 0.51986 0.0
C1435 C 0.21299 0.78429 0.51911 0.0
C1436 C 0.20426 0.75409 0.52222 0.0
C1437 C 0.24134 0.74508 0.52188 0.0
C1438 C 0.20329 0.74097 0.49773 0.0
C1439 C 0.19043 0.72888 0.49964 0.0
C1440 C 0.17798 0.72985 0.52561 0.0
C1441 C 0.1788 0.74313 0.54982 0.0
C1442 C 0.19183 0.75506 0.54822 0.0
H1443 H 0.2545 0.74464 0.53185 0.0
H1444 H 0.23316 0.73762 0.53959 0.0
H1445 H 0.24127 0.73896 0.49597 0.0
H1446 H 0.21234 0.7402 0.47673 0.0
H1447 H 0.19004 0.71898 0.48024 0.0
H1448 H 0.25959 0.16498 0.55337 0.0
H1449 H 0.23884 0.18767 0.54806 0.0
H1450 H 0.27515 0.21805 0.49274 0.0
H1451 H 0.29591 0.19531 0.49721 0.0
H1452 H 0.23926 0.22061 0.57065 0.0
H1453 H 0.23491 0.21829 0.42701 0.0
H1454 H 0.24514 0.20197 0.45204 0.0
H1455 H 0.25596 0.22147 0.44309 0.0
C1456 C 0.26321 0.17645 0.53999 0.0
C1457 C 0.27942 0.17818 0.52535 0.0
C1458 C 0.25131 0.18945 0.53705 0.0
C1459 C 0.25531 0.20445 0.51943 0.0
C1460 C 0.27163 0.20644 0.50573 0.0
H1461 H 0.19463 0.29693 0.5291 0.0
H1462 H 0.21734 0.27609 0.53383 0.0
C1463 C 0.28353 0.19343 0.50852 0.0
C1464 C 0.2424 0.21796 0.51544 0.0
H1465 H 0.2204 0.24066 0.45501 0.0
C1466 C 0.23514 0.22501 0.54537 0.0
C1467 C 0.23686 0.22354 0.48243 0.0
C1468 C 0.24348 0.21584 0.44928 0.0
C1469 C 0.22259 0.23754 0.54323 0.0
C1470 C 0.21736 0.24342 0.51022 0.0
C1471 C 0.22455 0.23629 0.48029 0.0
C1472 C 0.20394 0.25643 0.50616 0.0
C1473 C 0.21472 0.24402 0.57631 0.0
C1474 C 0.1891 0.25255 0.48791 0.0
C1475 C 0.17615 0.26447 0.48484 0.0
C1476 C 0.17775 0.2806 0.49993 0.0
C1477 C 0.19287 0.28462 0.51737 0.0
C1478 C 0.20584 0.27267 0.52033 0.0
H1479 H 0.21699 0.23533 0.59845 0.0
H1480 H 0.22036 0.25645 0.58292 0.0
H1481 H 0.20088 0.24577 0.5732 0.0
H1482 H 0.18739 0.24014 0.47654 0.0
H1483 H 0.16479 0.26091 0.471 0.0
H1484 H 0.84357 0.261 0.55433 0.0
H1485 H 0.82063 0.24058 0.54888 0.0
H1486 H 0.79075 0.27735 0.49372 0.0
H1487 H 0.81377 0.29784 0.49839 0.0
H1488 H 0.78762 0.2414 0.57132 0.0
H1489 H 0.79036 0.23708 0.42764 0.0
H1490 H 0.80673 0.24708 0.45293 0.0
H1491 H 0.78736 0.2581 0.44402 0.0
C1492 C 0.83215 0.26482 0.541 0.0
C1493 C 0.83065 0.28108 0.52646 0.0
C1494 C 0.81901 0.25309 0.53798 0.0
C1495 C 0.80408 0.25731 0.52034 0.0
C1496 C 0.8023 0.27367 0.50675 0.0
H1497 H 0.71205 0.19568 0.52861 0.0
H1498 H 0.73247 0.21877 0.53332 0.0
C1499 C 0.81546 0.28542 0.50967 0.0
C1500 C 0.79048 0.24449 0.51615 0.0
H1501 H 0.76824 0.2222 0.45543 0.0
C1502 C 0.78334 0.23723 0.54599 0.0
C1503 C 0.78507 0.23888 0.48307 0.0
C1504 C 0.79286 0.24555 0.45005 0.0
C1505 C 0.77093 0.22456 0.54369 0.0
C1506 C 0.76528 0.21921 0.51061 0.0
C1507 C 0.77244 0.22644 0.48077 0.0
C1508 C 0.7525 0.20557 0.5064 0.0
C1509 C 0.76437 0.21668 0.57669 0.0
C1510 C 0.75674 0.19069 0.4886 0.0
C1511 C 0.74505 0.17751 0.48555 0.0
C1512 C 0.72882 0.17892 0.50023 0.0
C1513 C 0.72445 0.19406 0.51721 0.0
C1514 C 0.73616 0.20726 0.52015 0.0
H1515 H 0.77288 0.21916 0.59905 0.0
H1516 H 0.75181 0.22212 0.58288 0.0
H1517 H 0.76289 0.2028 0.5737 0.0
H1518 H 0.76923 0.18913 0.47758 0.0
H1519 H 0.74888 0.16613 0.47209 0.0
H1520 H 0.12708 0.30963 0.37541 0.0
H1521 H 0.13451 0.31856 0.31628 0.0
H1522 H 0.17023 0.35435 0.35778 0.0
H1523 H 0.16323 0.34549 0.41633 0.0
H1524 H 0.13336 0.35113 0.28461 0.0
H1525 H 0.19891 0.32649 0.29046 0.0
H1526 H 0.18289 0.32048 0.3214 0.0
H1527 H 0.19361 0.34041 0.32559 0.0
C1528 C 0.13647 0.31944 0.37194 0.0
C1529 C 0.14458 0.32674 0.40077 0.0
C1530 C 0.1407 0.32452 0.33815 0.0
C1531 C 0.15316 0.33689 0.33265 0.0
C1532 C 0.16087 0.34452 0.36136 0.0
H1533 H 0.20042 0.38283 0.15044 0.0
H1534 H 0.19124 0.37629 0.20984 0.0
C1535 C 0.15672 0.33947 0.39494 0.0
C1536 C 0.15822 0.34195 0.29705 0.0
H1537 H 0.19219 0.34407 0.24246 0.0
C1538 C 0.14619 0.34951 0.27529 0.0
C1539 C 0.17501 0.33991 0.28504 0.0
C1540 C 0.18833 0.33124 0.30668 0.0
C1541 C 0.15056 0.35532 0.24201 0.0
C1542 C 0.16734 0.35329 0.23004 0.0
C1543 C 0.17937 0.34576 0.25182 0.0
C1544 C 0.17244 0.35794 0.19423 0.0
C1545 C 0.13723 0.36382 0.22014 0.0
C1546 C 0.16505 0.3497 0.1659 0.0
C1547 C 0.17025 0.35334 0.13216 0.0
C1548 C 0.18306 0.36533 0.12581 0.0
C1549 C 0.19046 0.37364 0.1543 0.0
C1550 C 0.18525 0.3699 0.18824 0.0
H1551 H 0.12663 0.36864 0.23624 0.0
H1552 H 0.14266 0.3745 0.20513 0.0
H1553 H 0.13199 0.35452 0.20146 0.0
H1554 H 0.15543 0.34015 0.16992 0.0
H1555 H 0.16432 0.34652 0.11107 0.0
H1556 H 0.66454 0.16338 0.41606 0.0
H1557 H 0.65553 0.16985 0.35735 0.0
H1558 H 0.69161 0.13415 0.31681 0.0
H1559 H 0.70068 0.12727 0.37606 0.0
H1560 H 0.67517 0.18312 0.30491 0.0
H1561 H 0.64787 0.12127 0.26608 0.0
H1562 H 0.65241 0.12654 0.31071 0.0
H1563 H 0.66919 0.12039 0.28197 0.0
C1564 C 0.67052 0.15668 0.39485 0.0
C1565 C 0.68333 0.14469 0.40099 0.0
C1566 C 0.66533 0.16048 0.36118 0.0
C1567 C 0.67275 0.15239 0.33269 0.0
C1568 C 0.68548 0.14032 0.33849 0.0
H1569 H 0.66341 0.16445 0.11145 0.0
H1570 H 0.67006 0.15592 0.17044 0.0
C1571 C 0.6907 0.13645 0.37237 0.0
C1572 C 0.66755 0.15728 0.29706 0.0
H1573 H 0.64971 0.1423 0.22245 0.0
C1574 C 0.66954 0.17421 0.28691 0.0
C1575 C 0.66018 0.14565 0.27367 0.0
C1576 C 0.65712 0.12747 0.28363 0.0
C1577 C 0.66465 0.17977 0.2538 0.0
C1578 C 0.65727 0.16815 0.2304 0.0
C1579 C 0.65527 0.15121 0.24053 0.0
C1580 C 0.65241 0.17311 0.19462 0.0
C1581 C 0.66783 0.19794 0.24383 0.0
C1582 C 0.64001 0.18548 0.18847 0.0
C1583 C 0.63611 0.19047 0.15448 0.0
C1584 C 0.64451 0.18311 0.12607 0.0
C1585 C 0.65664 0.17045 0.13251 0.0
C1586 C 0.66049 0.1655 0.16633 0.0
H1587 H 0.67696 0.20415 0.26163 0.0
H1588 H 0.67277 0.19881 0.21692 0.0
H1589 H 0.65577 0.20505 0.24502 0.0
H1590 H 0.63342 0.19132 0.20997 0.0
H1591 H 0.62669 0.20021 0.15053 0.0
H1592 H 0.8835 0.70086 0.37584 0.0
H1593 H 0.87715 0.6921 0.31614 0.0
H1594 H 0.84048 0.6564 0.35443 0.0
H1595 H 0.84674 0.66483 0.41366 0.0
H1596 H 0.86156 0.64307 0.30272 0.0
H1597 H 0.83356 0.70464 0.2637 0.0
H1598 H 0.85461 0.70569 0.28104 0.0
H1599 H 0.83746 0.69917 0.30846 0.0
C1600 C 0.87416 0.69109 0.37156 0.0
C1601 C 0.86564 0.68361 0.39969 0.0
C1602 C 0.87047 0.68616 0.33742 0.0
C1603 C 0.85819 0.67374 0.33087 0.0
C1604 C 0.84998 0.66602 0.35887 0.0
H1605 H 0.81051 0.62704 0.15033 0.0
H1606 H 0.81983 0.6342 0.20923 0.0
C1607 C 0.8536 0.67092 0.39283 0.0
C1608 C 0.85357 0.6688 0.29494 0.0
H1609 H 0.83545 0.6836 0.22052 0.0
C1610 C 0.85588 0.65193 0.28468 0.0
C1611 C 0.84606 0.68035 0.27159 0.0
C1612 C 0.84261 0.69845 0.2817 0.0
C1613 C 0.85107 0.64634 0.25149 0.0
C1614 C 0.84348 0.65787 0.22821 0.0
C1615 C 0.84124 0.67476 0.23845 0.0
C1616 C 0.83813 0.65288 0.19272 0.0
C1617 C 0.85445 0.62823 0.24143 0.0
C1618 C 0.84512 0.66115 0.16397 0.0
C1619 C 0.83976 0.65721 0.13047 0.0
C1620 C 0.82722 0.64487 0.12479 0.0
C1621 C 0.82028 0.63648 0.15367 0.0
C1622 C 0.82565 0.64051 0.18735 0.0
H1623 H 0.86401 0.62227 0.25863 0.0
H1624 H 0.84257 0.62087 0.24362 0.0
H1625 H 0.85893 0.62738 0.21418 0.0
H1626 H 0.85471 0.67077 0.16748 0.0
H1627 H 0.8454 0.66403 0.10904 0.0
H1628 H 0.31054 0.88306 0.37601 0.0
H1629 H 0.31961 0.87617 0.31679 0.0
H1630 H 0.35305 0.83788 0.35688 0.0
H1631 H 0.34428 0.84464 0.41572 0.0
H1632 H 0.36794 0.85836 0.30567 0.0
H1633 H 0.30566 0.83313 0.2638 0.0
H1634 H 0.30529 0.85419 0.28122 0.0
H1635 H 0.31083 0.83676 0.30881 0.0
C1636 C 0.31987 0.87323 0.37224 0.0
C1637 C 0.32662 0.86442 0.40077 0.0
C1638 C 0.32498 0.86924 0.33837 0.0
C1639 C 0.33686 0.85637 0.33243 0.0
C1640 C 0.34385 0.84783 0.36084 0.0
H1641 H 0.38308 0.8084 0.15091 0.0
H1642 H 0.37601 0.81724 0.2102 0.0
C1643 C 0.33877 0.85175 0.39456 0.0
C1644 C 0.34198 0.85153 0.29673 0.0
H1645 H 0.32708 0.83454 0.22127 0.0
C1646 C 0.35903 0.85316 0.28716 0.0
C1647 C 0.33034 0.84463 0.27277 0.0
C1648 C 0.31203 0.84191 0.28211 0.0
C1649 C 0.36469 0.84836 0.25401 0.0
C1650 C 0.35304 0.84146 0.23005 0.0
C1651 C 0.336 0.83981 0.23969 0.0
C1652 C 0.35804 0.83637 0.19438 0.0
C1653 C 0.383 0.85109 0.24466 0.0
C1654 C 0.35015 0.844 0.16587 0.0
C1655 C 0.35404 0.83891 0.13217 0.0
C1656 C 0.36594 0.82602 0.126 0.0
C1657 C 0.37398 0.81845 0.15463 0.0
C1658 C 0.37001 0.82355 0.18854 0.0
H1659 H 0.38923 0.86019 0.2625 0.0
H1660 H 0.38983 0.83888 0.24649 0.0
H1661 H 0.38424 0.85583 0.21767 0.0
H1662 H 0.34086 0.85387 0.16972 0.0
H1663 H 0.34749 0.84504 0.11096 0.0
H1664 H 0.17319 0.68484 0.61894 0.0
H1665 H 0.17959 0.67499 0.67736 0.0
H1666 H 0.12627 0.67041 0.69891 0.0
H1667 H 0.11982 0.68136 0.64075 0.0
H1668 H 0.14046 0.68224 0.75255 0.0
H1669 H 0.17994 0.62844 0.71239 0.0
H1670 H 0.18868 0.64751 0.6951 0.0
H1671 H 0.16796 0.64064 0.68152 0.0
C1672 C 0.16282 0.68172 0.63613 0.0
C1673 C 0.146 0.68374 0.62525 0.0
C1674 C 0.1665 0.67589 0.66946 0.0
C1675 C 0.15346 0.67132 0.69234 0.0
C1676 C 0.13659 0.67364 0.6817 0.0
H1677 H 0.18302 0.61872 0.88494 0.0
H1678 H 0.17222 0.62469 0.82639 0.0
C1679 C 0.1329 0.67993 0.64853 0.0
C1680 C 0.15754 0.66482 0.72772 0.0
H1681 H 0.18395 0.63808 0.77139 0.0
C1682 C 0.1498 0.6724 0.75657 0.0
C1683 C 0.16935 0.65162 0.73332 0.0
C1684 C 0.17677 0.64147 0.70386 0.0
C1685 C 0.15409 0.66775 0.79063 0.0
C1686 C 0.16712 0.65575 0.79619 0.0
C1687 C 0.17426 0.64757 0.76737 0.0
C1688 C 0.17386 0.65193 0.83148 0.0
C1689 C 0.14437 0.67566 0.82017 0.0
C1690 C 0.17887 0.66513 0.85356 0.0
C1691 C 0.18461 0.66174 0.88707 0.0
C1692 C 0.18611 0.64503 0.89892 0.0
C1693 C 0.18199 0.63171 0.87637 0.0
C1694 C 0.17579 0.63514 0.84299 0.0
H1695 H 0.13133 0.67903 0.81203 0.0
H1696 H 0.14356 0.66706 0.84288 0.0
H1697 H 0.15074 0.68751 0.82824 0.0
H1698 H 0.17829 0.67814 0.84496 0.0
H1699 H 0.18797 0.67224 0.90375 0.0
H1700 H 0.32664 0.11948 0.64189 0.0
H1701 H 0.33678 0.12604 0.7006 0.0
H1702 H 0.33174 0.17933 0.67901 0.0
H1703 H 0.32272 0.17281 0.62006 0.0
H1704 H 0.35959 0.17486 0.7102 0.0
H1705 H 0.31129 0.1392 0.7841 0.0
H1706 H 0.32338 0.1259 0.75583 0.0
H1707 H 0.30993 0.14204 0.73782 0.0
C1708 C 0.3276 0.13256 0.64994 0.0
C1709 C 0.32388 0.14564 0.62653 0.0
C1710 C 0.33329 0.13632 0.68355 0.0
C1711 C 0.33479 0.15322 0.69467 0.0
C1712 C 0.33078 0.16621 0.67125 0.0
H1713 H 0.33699 0.18821 0.90584 0.0
H1714 H 0.33043 0.1792 0.84687 0.0
C1715 C 0.32556 0.16247 0.63754 0.0
C1716 C 0.34089 0.15763 0.7302 0.0
H1717 H 0.33374 0.15103 0.81653 0.0
C1718 C 0.35386 0.16968 0.73345 0.0
C1719 C 0.33341 0.151 0.76069 0.0
C1720 C 0.31863 0.13896 0.75952 0.0
C1721 C 0.35922 0.17562 0.76602 0.0
C1722 C 0.35201 0.16871 0.79652 0.0
C1723 C 0.33936 0.15632 0.79328 0.0
C1724 C 0.35647 0.17484 0.83201 0.0
C1725 C 0.37197 0.1898 0.76711 0.0
C1726 C 0.37334 0.17562 0.84357 0.0
C1727 C 0.37714 0.18133 0.87714 0.0
C1728 C 0.36411 0.18578 0.90009 0.0
C1729 C 0.34729 0.18481 0.88868 0.0
C1730 C 0.34353 0.17959 0.85497 0.0
H1731 H 0.37225 0.19696 0.74232 0.0
H1732 H 0.36919 0.19879 0.78848 0.0
H1733 H 0.38476 0.18443 0.77128 0.0
H1734 H 0.38356 0.17155 0.82691 0.0
H1735 H 0.39019 0.18172 0.88556 0.0
H1736 H 0.80862 0.38287 0.8763 0.0
H1737 H 0.81757 0.37635 0.8168 0.0
H1738 H 0.85302 0.33967 0.85597 0.0
H1739 H 0.84444 0.34611 0.91501 0.0
H1740 H 0.86664 0.36024 0.80431 0.0
H1741 H 0.80492 0.33291 0.7645 0.0
H1742 H 0.80396 0.35405 0.78139 0.0
H1743 H 0.8102 0.33697 0.80929 0.0
C1744 C 0.81839 0.37349 0.87225 0.0
C1745 C 0.82574 0.36501 0.90058 0.0
C1746 C 0.82341 0.3697 0.83823 0.0
C1747 C 0.83581 0.35735 0.83196 0.0
C1748 C 0.84342 0.3492 0.86017 0.0
H1749 H 0.88202 0.30946 0.65061 0.0
H1750 H 0.87503 0.31849 0.70984 0.0
C1751 C 0.83843 0.35293 0.89402 0.0
C1752 C 0.84083 0.35261 0.79615 0.0
H1753 H 0.82603 0.33481 0.7214 0.0
C1754 C 0.85777 0.35469 0.78613 0.0
C1755 C 0.82927 0.34525 0.77261 0.0
C1756 C 0.8111 0.342 0.78245 0.0
C1757 C 0.8634 0.34986 0.75299 0.0
C1758 C 0.85183 0.34249 0.72948 0.0
C1759 C 0.83489 0.34043 0.7395 0.0
C1760 C 0.8568 0.33733 0.69386 0.0
C1761 C 0.88158 0.35299 0.74316 0.0
C1762 C 0.84875 0.34476 0.66534 0.0
C1763 C 0.85261 0.3396 0.63168 0.0
C1764 C 0.86463 0.32679 0.6256 0.0
C1765 C 0.87282 0.31943 0.65426 0.0
C1766 C 0.86889 0.32462 0.68813 0.0
H1767 H 0.88772 0.36224 0.7608 0.0
H1768 H 0.88869 0.34093 0.74481 0.0
H1769 H 0.88254 0.35773 0.71612 0.0
H1770 H 0.83935 0.35455 0.66913 0.0
H1771 H 0.84595 0.34558 0.61044 0.0
H1772 H 0.66523 0.84538 0.91688 0.0
H1773 H 0.67203 0.8548 0.85853 0.0
H1774 H 0.63555 0.81994 0.81637 0.0
H1775 H 0.62835 0.81051 0.87517 0.0
H1776 H 0.68494 0.8357 0.8054 0.0
H1777 H 0.62358 0.86411 0.76717 0.0
H1778 H 0.62864 0.85896 0.81161 0.0
H1779 H 0.6222 0.84264 0.782 0.0
C1780 C 0.65845 0.83977 0.89538 0.0
C1781 C 0.64612 0.8272 0.90091 0.0
C1782 C 0.66242 0.84519 0.86192 0.0
C1783 C 0.65419 0.83824 0.83309 0.0
C1784 C 0.64183 0.82573 0.83832 0.0
H1785 H 0.66602 0.84669 0.61224 0.0
H1786 H 0.65768 0.84053 0.67155 0.0
C1787 C 0.63778 0.8203 0.87194 0.0
C1788 C 0.6592 0.84365 0.79764 0.0
H1789 H 0.64438 0.86163 0.72305 0.0
C1790 C 0.6761 0.84147 0.78745 0.0
C1791 C 0.64765 0.8512 0.77432 0.0
C1792 C 0.62953 0.85453 0.78433 0.0
C1793 C 0.68168 0.84627 0.7543 0.0
C1794 C 0.67012 0.85372 0.73089 0.0
C1795 C 0.65324 0.856 0.74113 0.0
C1796 C 0.67503 0.85827 0.69491 0.0
C1797 C 0.69979 0.84287 0.74423 0.0
C1798 C 0.68745 0.87055 0.6882 0.0
C1799 C 0.69233 0.87419 0.65401 0.0
C1800 C 0.68482 0.86562 0.62597 0.0
C1801 C 0.67214 0.85359 0.63299 0.0
C1802 C 0.66729 0.85002 0.66699 0.0
H1803 H 0.706 0.83386 0.76229 0.0
H1804 H 0.70054 0.83768 0.7175 0.0
H1805 H 0.70699 0.85489 0.74483 0.0
H1806 H 0.69341 0.87727 0.70941 0.0
H1807 H 0.7021 0.88353 0.64962 0.0
H1808 H 0.85992 0.71274 0.64142 0.0
H1809 H 0.8536 0.70579 0.70211 0.0
H1810 H 0.8407 0.65492 0.67201 0.0
H1811 H 0.84729 0.66155 0.61186 0.0
H1812 H 0.82383 0.6949 0.7314 0.0
H1813 H 0.87387 0.64683 0.75014 0.0
H1814 H 0.87363 0.66101 0.71348 0.0
H1815 H 0.86059 0.64238 0.71355 0.0
C1816 C 0.85586 0.70004 0.64781 0.0
C1817 C 0.85423 0.68768 0.62183 0.0
C1818 C 0.85223 0.69611 0.68244 0.0
C1819 C 0.84695 0.67976 0.69162 0.0
C1820 C 0.84515 0.66748 0.66567 0.0
H1821 H 0.79586 0.65019 0.88332 0.0
H1822 H 0.80262 0.65706 0.82284 0.0
C1823 C 0.84886 0.67135 0.6312 0.0
C1824 C 0.84288 0.67554 0.72815 0.0
H1825 H 0.85237 0.64796 0.79336 0.0
C1826 C 0.83013 0.68471 0.74508 0.0
C1827 C 0.85123 0.66234 0.74601 0.0
C1828 C 0.8657 0.65269 0.73 0.0
C1829 C 0.82531 0.68085 0.77925 0.0
C1830 C 0.83323 0.66723 0.79662 0.0
C1831 C 0.84614 0.65824 0.77983 0.0
C1832 C 0.82896 0.66261 0.83287 0.0
C1833 C 0.81206 0.69163 0.79665 0.0
C1834 C 0.84163 0.66286 0.85828 0.0
C1835 C 0.83787 0.65873 0.89258 0.0
C1836 C 0.82133 0.65427 0.90232 0.0
C1837 C 0.80869 0.65368 0.87671 0.0
C1838 C 0.8125 0.65773 0.84221 0.0
H1839 H 0.8105 0.70399 0.78337 0.0
H1840 H 0.79974 0.68496 0.7958 0.0
H1841 H 0.81532 0.69398 0.82426 0.0
H1842 H 0.85442 0.6665 0.85164 0.0
H1843 H 0.84795 0.6593 0.91155 0.0
H1844 H 0.29692 0.86115 0.64311 0.0
H1845 H 0.30386 0.85486 0.70381 0.0
H1846 H 0.35469 0.84185 0.67373 0.0
H1847 H 0.34807 0.84843 0.61358 0.0
H1848 H 0.31452 0.82507 0.73292 0.0
H1849 H 0.363 0.87466 0.75223 0.0
H1850 H 0.34888 0.87459 0.71546 0.0
H1851 H 0.36741 0.86141 0.71557 0.0
C1852 C 0.30961 0.8571 0.64951 0.0
C1853 C 0.32196 0.85541 0.62352 0.0
C1854 C 0.31354 0.85348 0.68416 0.0
C1855 C 0.32987 0.84815 0.69335 0.0
C1856 C 0.34214 0.84634 0.66739 0.0
H1857 H 0.35924 0.79614 0.88407 0.0
H1858 H 0.35227 0.80322 0.82378 0.0
C1859 C 0.33828 0.85004 0.63292 0.0
C1860 C 0.33405 0.84396 0.72986 0.0
H1861 H 0.36174 0.853 0.79516 0.0
C1862 C 0.32477 0.83124 0.74665 0.0
C1863 C 0.34732 0.85214 0.74782 0.0
C1864 C 0.35712 0.86658 0.73198 0.0
C1865 C 0.3286 0.82629 0.78076 0.0
C1866 C 0.3423 0.83402 0.7982 0.0
C1867 C 0.3514 0.84691 0.78157 0.0
C1868 C 0.34693 0.82956 0.83436 0.0
C1869 C 0.31771 0.81308 0.79801 0.0
C1870 C 0.34681 0.84211 0.86001 0.0
C1871 C 0.35099 0.83817 0.89422 0.0
C1872 C 0.35537 0.82155 0.9036 0.0
C1873 C 0.35581 0.80902 0.87774 0.0
C1874 C 0.35171 0.81302 0.84335 0.0
H1875 H 0.30533 0.81167 0.78475 0.0
H1876 H 0.32427 0.8007 0.79695 0.0
H1877 H 0.31542 0.81626 0.82567 0.0
H1878 H 0.34326 0.85496 0.85365 0.0
H1879 H 0.35054 0.84817 0.91338 0.0
H1880 H 0.15021 0.29554 0.64176 0.0
H1881 H 0.15653 0.30219 0.70259 0.0
H1882 H 0.16645 0.35399 0.67449 0.0
H1883 H 0.15987 0.34763 0.61422 0.0
H1884 H 0.18608 0.31452 0.73131 0.0
H1885 H 0.13342 0.35926 0.75413 0.0
H1886 H 0.13413 0.34545 0.7169 0.0
H1887 H 0.14604 0.36482 0.7172 0.0
C1888 C 0.15359 0.30837 0.64862 0.0
C1889 C 0.15442 0.32106 0.62315 0.0
C1890 C 0.15724 0.31214 0.68334 0.0
C1891 C 0.16171 0.32864 0.69311 0.0
C1892 C 0.16265 0.34127 0.66769 0.0
H1893 H 0.21283 0.35971 0.88375 0.0
H1894 H 0.20592 0.35266 0.82341 0.0
C1895 C 0.15895 0.33756 0.63315 0.0
C1896 C 0.16585 0.33269 0.72969 0.0
H1897 H 0.15537 0.359 0.79646 0.0
C1898 C 0.17931 0.32416 0.74569 0.0
C1899 C 0.1569 0.34517 0.74846 0.0
C1900 C 0.14171 0.35409 0.73344 0.0
C1901 C 0.18424 0.32798 0.77982 0.0
C1902 C 0.17569 0.34092 0.79811 0.0
C1903 C 0.16207 0.34925 0.78224 0.0
C1904 C 0.18006 0.3455 0.83434 0.0
C1905 C 0.19832 0.3179 0.79618 0.0
C1906 C 0.16769 0.34436 0.86025 0.0
C1907 C 0.1715 0.3486 0.89447 0.0
C1908 C 0.18782 0.35406 0.90363 0.0
C1909 C 0.20018 0.35544 0.87758 0.0
C1910 C 0.19629 0.35129 0.84315 0.0
H1911 H 0.20046 0.30576 0.78237 0.0
H1912 H 0.2102 0.32531 0.79496 0.0
H1913 H 0.19554 0.31513 0.82384 0.0
H1914 H 0.15507 0.34 0.85404 0.0
H1915 H 0.16165 0.34737 0.91381 0.0
H1916 H 0.65025 0.21354 0.88505 0.0
H1917 H 0.65662 0.20692 0.82424 0.0
H1918 H 0.668 0.15547 0.85276 0.0
H1919 H 0.66136 0.1618 0.91303 0.0
H1920 H 0.68633 0.19537 0.7952 0.0
H1921 H 0.6349 0.14905 0.7737 0.0
H1922 H 0.63537 0.16294 0.81081 0.0
H1923 H 0.64783 0.14393 0.81045 0.0
C1924 C 0.65397 0.20079 0.87829 0.0
C1925 C 0.65518 0.18818 0.90387 0.0
C1926 C 0.65765 0.19704 0.84359 0.0
C1927 C 0.66253 0.18063 0.83393 0.0
C1928 C 0.66387 0.1681 0.85948 0.0
H1929 H 0.71366 0.1507 0.64256 0.0
H1930 H 0.70683 0.1576 0.70301 0.0
C1931 C 0.66013 0.17179 0.89401 0.0
C1932 C 0.66665 0.17661 0.79734 0.0
H1933 H 0.65665 0.14987 0.73098 0.0
C1934 C 0.67978 0.1855 0.78103 0.0
C1935 C 0.65798 0.16383 0.77884 0.0
C1936 C 0.64313 0.1545 0.79421 0.0
C1937 C 0.68466 0.18176 0.74683 0.0
C1938 C 0.67641 0.16854 0.72882 0.0
C1939 C 0.66312 0.15984 0.745 0.0
C1940 C 0.68074 0.16405 0.69253 0.0
C1941 C 0.69836 0.19223 0.73012 0.0
C1942 C 0.66823 0.16484 0.66686 0.0
C1943 C 0.672 0.16069 0.63258 0.0
C1944 C 0.68843 0.15568 0.62312 0.0
C1945 C 0.70093 0.15463 0.64895 0.0
C1946 C 0.69708 0.15869 0.68344 0.0
H1947 H 0.70023 0.20444 0.74384 0.0
H1948 H 0.71045 0.18517 0.73109 0.0
H1949 H 0.69536 0.19489 0.70251 0.0
H1950 H 0.65552 0.16886 0.67329 0.0
H1951 H 0.66204 0.16164 0.61342 0.0
H1952 H 0.84709 0.34758 0.41314 0.0
H1953 H 0.8398 0.3539 0.35322 0.0
H1954 H 0.8523 0.30284 0.32369 0.0
H1955 H 0.85927 0.29621 0.3842 0.0
H1956 H 0.8589 0.35321 0.29572 0.0
H1957 H 0.80544 0.30829 0.28243 0.0
H1958 H 0.81479 0.31339 0.32383 0.0
H1959 H 0.82494 0.29855 0.2953 0.0
C1960 C 0.8483 0.33763 0.39401 0.0
C1961 C 0.85369 0.32134 0.40353 0.0
C1962 C 0.84411 0.34129 0.3597 0.0
C1963 C 0.84523 0.32878 0.33407 0.0
C1964 C 0.85095 0.31258 0.34323 0.0
H1965 H 0.8473 0.34824 0.11356 0.0
H1966 H 0.85371 0.34168 0.17382 0.0
C1967 C 0.85506 0.30884 0.37774 0.0
C1968 C 0.84071 0.33299 0.29774 0.0
H1969 H 0.81424 0.32246 0.23117 0.0
C1970 C 0.84911 0.3465 0.28163 0.0
C1971 C 0.82772 0.32442 0.27962 0.0
C1972 C 0.81757 0.31046 0.29624 0.0
C1973 C 0.84505 0.35155 0.24777 0.0
C1974 C 0.83252 0.34258 0.22918 0.0
C1975 C 0.82393 0.32923 0.24541 0.0
C1976 C 0.82843 0.34664 0.1926 0.0
C1977 C 0.85404 0.36663 0.23247 0.0
C1978 C 0.81195 0.35122 0.18293 0.0
C1979 C 0.80815 0.35486 0.14823 0.0
C1980 C 0.82079 0.35391 0.12268 0.0
C1981 C 0.83727 0.34926 0.13256 0.0
C1982 C 0.841 0.34556 0.16709 0.0
H1983 H 0.85931 0.37496 0.25301 0.0
H1984 H 0.86471 0.36218 0.21619 0.0
H1985 H 0.84542 0.37421 0.21591 0.0
H1986 H 0.80204 0.35204 0.20225 0.0
H1987 H 0.79534 0.35835 0.14145 0.0
H1988 H 0.6507 0.79505 0.14172 0.0
H1989 H 0.65678 0.80158 0.2027 0.0
H1990 H 0.66637 0.85354 0.17534 0.0
H1991 H 0.66002 0.8473 0.11492 0.0
H1992 H 0.68612 0.8139 0.23172 0.0
H1993 H 0.63338 0.85847 0.25497 0.0
H1994 H 0.63417 0.84482 0.21749 0.0
H1995 H 0.646 0.86424 0.21818 0.0
C1996 C 0.65394 0.8079 0.14878 0.0
C1997 C 0.65477 0.82066 0.12346 0.0
C1998 C 0.65745 0.81159 0.18358 0.0
C1999 C 0.66177 0.8281 0.19361 0.0
C2000 C 0.66267 0.84081 0.16835 0.0
H2001 H 0.71317 0.8591 0.38367 0.0
H2002 H 0.70607 0.85196 0.32349 0.0
C2003 C 0.65911 0.83717 0.13372 0.0
C2004 C 0.66588 0.83206 0.23025 0.0
H2005 H 0.65542 0.85827 0.29719 0.0
C2006 C 0.67934 0.82351 0.24617 0.0
C2007 C 0.65691 0.84449 0.24913 0.0
C2008 C 0.64171 0.85341 0.23421 0.0
C2009 C 0.68429 0.82729 0.28031 0.0
C2010 C 0.67576 0.84021 0.29867 0.0
C2011 C 0.66211 0.84854 0.28291 0.0
C2012 C 0.68024 0.84482 0.33482 0.0
C2013 C 0.69838 0.81719 0.29657 0.0
C2014 C 0.66794 0.84373 0.3609 0.0
C2015 C 0.67187 0.84802 0.39505 0.0
C2016 C 0.68823 0.85349 0.40394 0.0
C2017 C 0.7005 0.85482 0.37771 0.0
C2018 C 0.69649 0.85062 0.34337 0.0
H2019 H 0.70046 0.80503 0.28278 0.0
H2020 H 0.71028 0.82456 0.29517 0.0
H2021 H 0.69568 0.81446 0.32427 0.0
H2022 H 0.6553 0.83937 0.35489 0.0
H2023 H 0.66209 0.84683 0.41454 0.0
H2024 H 0.16057 0.66102 0.41235 0.0
H2025 H 0.16713 0.65436 0.35208 0.0
H2026 H 0.15481 0.70541 0.32228 0.0
H2027 H 0.14851 0.71234 0.38289 0.0
H2028 H 0.14769 0.65541 0.29379 0.0
H2029 H 0.20195 0.69945 0.28179 0.0
H2030 H 0.19254 0.6942 0.32305 0.0
H2031 H 0.18261 0.70941 0.29502 0.0
C2032 C 0.15922 0.67087 0.39305 0.0
C2033 C 0.15413 0.68727 0.40252 0.0
C2034 C 0.16298 0.66702 0.35856 0.0
C2035 C 0.16176 0.67946 0.33278 0.0
C2036 C 0.15622 0.69572 0.3419 0.0
H2037 H 0.16079 0.66129 0.11091 0.0
H2038 H 0.15371 0.66739 0.1712 0.0
C2039 C 0.15251 0.69963 0.37651 0.0
C2040 C 0.16626 0.67526 0.29641 0.0
H2041 H 0.19303 0.68567 0.23027 0.0
C2042 C 0.15761 0.66201 0.2799 0.0
C2043 C 0.17941 0.68369 0.27855 0.0
C2044 C 0.18979 0.69737 0.29555 0.0
C2045 C 0.1616 0.65712 0.24586 0.0
C2046 C 0.17436 0.66593 0.2276 0.0
C2047 C 0.18317 0.67902 0.24425 0.0
C2048 C 0.17867 0.66187 0.19108 0.0
C2049 C 0.15231 0.64236 0.23002 0.0
C2050 C 0.19517 0.65706 0.18206 0.0
C2051 C 0.19933 0.65368 0.14745 0.0
C2052 C 0.18706 0.65513 0.12123 0.0
C2053 C 0.17054 0.65992 0.13043 0.0
C2054 C 0.16642 0.66334 0.16496 0.0
H2055 H 0.14662 0.63412 0.25022 0.0
H2056 H 0.14194 0.64716 0.21337 0.0
H2057 H 0.16087 0.63459 0.21368 0.0
H2058 H 0.20484 0.65593 0.20182 0.0
H2059 H 0.21218 0.65006 0.14124 0.0
H2060 H 0.34881 0.16093 0.41417 0.0
H2061 H 0.35569 0.16754 0.35401 0.0
H2062 H 0.30464 0.15567 0.3235 0.0
H2063 H 0.29749 0.14932 0.38396 0.0
H2064 H 0.35459 0.14808 0.29559 0.0
H2065 H 0.3112 0.20283 0.28326 0.0
H2066 H 0.31627 0.19335 0.32456 0.0
H2067 H 0.30099 0.18361 0.29643 0.0
C2068 C 0.339 0.15969 0.39473 0.0
C2069 C 0.32254 0.15471 0.40395 0.0
C2070 C 0.34299 0.16348 0.36031 0.0
C2071 C 0.33062 0.16239 0.33436 0.0
C2072 C 0.31428 0.15698 0.34325 0.0
H2073 H 0.34877 0.16083 0.11268 0.0
H2074 H 0.34274 0.15396 0.1731 0.0
C2075 C 0.31024 0.15324 0.37778 0.0
C2076 C 0.33496 0.16687 0.29805 0.0
H2077 H 0.32487 0.19367 0.23176 0.0
C2078 C 0.34811 0.15806 0.28164 0.0
C2079 C 0.32669 0.18009 0.28012 0.0
C2080 C 0.31311 0.19065 0.29704 0.0
C2081 C 0.35306 0.16195 0.24758 0.0
C2082 C 0.3444 0.17478 0.22922 0.0
C2083 C 0.33141 0.18376 0.24581 0.0
C2084 C 0.34846 0.17894 0.19264 0.0
C2085 C 0.36772 0.15247 0.23183 0.0
C2086 C 0.35337 0.19539 0.18338 0.0
C2087 C 0.35671 0.19943 0.14869 0.0
C2088 C 0.35512 0.18709 0.12264 0.0
C2089 C 0.35025 0.17062 0.13208 0.0
C2090 C 0.34687 0.16662 0.16668 0.0
H2091 H 0.37593 0.14678 0.25209 0.0
H2092 H 0.3628 0.14208 0.21536 0.0
H2093 H 0.37555 0.1609 0.21532 0.0
H2094 H 0.3546 0.2051 0.20302 0.0
H2095 H 0.3604 0.21223 0.1423 0.0
loop_
_geom_bond_atom_site_label_1
_geom_bond_atom_site_label_2
_geom_bond_distance
_geom_bond_site_symmetry_2
_ccdc_geom_bond_type
Co0 O2 2.140 1_554 S
Co0 O8 2.106 . S
Co0 O11 2.061 1_554 S
Co0 O24 2.095 1_554 S
Co0 N41 2.153 . S
Co0 N49 2.218 . S
Co1 O2 2.160 1_554 S
Co1 O7 2.058 . S
Co1 O17 2.057 . S
Co1 O32 2.037 . S
Co1 N36 2.145 . S
Co1 N57 2.257 1_554 S
O2 Co0 2.140 1_556 S
O2 Co1 2.160 1_556 S
C3 O4 1.278 . S
C3 O11 1.224 . S
O4 C3 1.278 . S
C5 O6 1.245 . S
C5 O17 1.232 . S
O6 C5 1.245 . S
O7 Co1 2.058 . S
O7 C33 1.269 . S
O8 Co0 2.106 . S
O8 C33 1.257 . S
H9 C34 0.930 . S
H10 C40 0.930 . S
O11 Co0 2.061 1_556 S
O11 C3 1.224 . S
H12 C44 0.929 . S
H13 C46 0.943 . S
H14 C47 0.930 . S
H15 C45 0.929 . S
H16 C48 0.928 . S
O17 Co1 2.057 . S
O17 C5 1.232 . S
H18 C37 0.929 . S
H19 C38 0.929 . S
H20 C50 0.931 . S
H21 C42 0.929 . S
H22 C51 0.930 . S
H23 C43 0.931 . S
O24 Co0 2.095 1_556 S
O24 C52 1.214 1_556 S
H25 C53 0.929 . S
H26 C54 0.929 1_554 S
H27 C55 0.930 . S
H28 C56 0.929 . S
H29 C58 0.930 . S
H30 C35 0.930 . S
H31 C39 0.930 . S
O32 Co1 2.037 . S
O32 C52 1.234 . S
C33 O7 1.269 . S
C33 O8 1.257 . S
C34 H9 0.930 . S
C34 C37 1.388 . S
C34 C39 1.418 . S
C35 H30 0.930 . S
C35 C38 1.404 . S
C35 C39 1.353 . S
N36 Co1 2.145 . S
N36 C37 1.397 . S
N36 C38 1.334 . S
C37 H18 0.929 . S
C37 C34 1.388 . S
C37 N36 1.397 . S
C38 H19 0.929 . S
C38 C35 1.404 . S
C38 N36 1.334 . S
C39 H31 0.930 . S
C39 C34 1.418 . S
C39 C35 1.353 . S
C40 H10 0.930 . S
C40 N41 1.330 1_556 S
C40 C42 1.446 . S
N41 Co0 2.153 . S
N41 C40 1.330 1_554 S
N41 C45 1.418 . S
C42 H21 0.929 . S
C42 C40 1.446 . S
C42 C43 1.332 1_556 S
C43 H23 0.931 . S
C43 C42 1.332 1_554 S
C43 C44 1.267 . S
C44 H12 0.929 . S
C44 C43 1.267 . S
C44 C45 1.251 . S
C45 H15 0.929 . S
C45 N41 1.418 . S
C45 C44 1.251 . S
C46 H13 0.943 . S
C46 C48 1.411 . S
C46 C51 1.241 1_556 S
C47 H14 0.930 . S
C47 N49 1.325 . S
C47 C50 1.357 . S
C48 H16 0.928 . S
C48 C46 1.411 . S
C48 N49 1.261 1_556 S
N49 Co0 2.218 . S
N49 C47 1.325 . S
N49 C48 1.261 1_554 S
C50 H20 0.931 . S
C50 C47 1.357 . S
C50 C51 1.312 . S
C51 H22 0.930 . S
C51 C46 1.241 1_554 S
C51 C50 1.312 . S
C52 O24 1.214 1_554 S
C52 O32 1.234 . S
C53 H25 0.929 . S
C53 C56 1.391 . S
C53 C58 1.391 . S
C54 H26 0.929 1_556 S
C54 C55 1.390 . S
C54 N57 1.391 . S
C55 H27 0.930 . S
C55 C54 1.390 . S
C55 C56 1.392 . S
C56 H28 0.929 . S
C56 C53 1.391 . S
C56 C55 1.392 . S
N57 Co1 2.257 1_556 S
N57 C54 1.391 . S
N57 C58 1.388 . S
C58 H29 0.930 . S
C58 C53 1.391 . S
C58 N57 1.388 . S
Co59 O61 2.140 1_554 S
Co59 O67 2.106 . S
Co59 O70 2.061 1_554 S
Co59 O83 2.095 1_554 S
Co59 N100 2.153 . S
Co59 N108 2.218 . S
Co60 O61 2.160 1_554 S
Co60 O66 2.058 . S
Co60 O76 2.057 . S
Co60 O91 2.037 . S
Co60 N95 2.145 . S
Co60 N116 2.257 1_554 S
O61 Co59 2.140 1_556 S
O61 Co60 2.160 1_556 S
C62 O63 1.278 . S
C62 O70 1.224 . S
O63 C62 1.278 . S
C64 O65 1.245 . S
C64 O76 1.232 . S
O65 C64 1.245 . S
O66 Co60 2.058 . S
O66 C92 1.269 . S
O67 Co59 2.106 . S
O67 C92 1.257 . S
H68 C93 0.930 . S
H69 C99 0.930 . S
O70 Co59 2.061 1_556 S
O70 C62 1.224 . S
H71 C103 0.929 . S
H72 C105 0.943 . S
H73 C106 0.930 . S
H74 C104 0.929 . S
H75 C107 0.928 . S
O76 Co60 2.057 . S
O76 C64 1.232 . S
H77 C96 0.929 . S
H78 C97 0.929 . S
H79 C109 0.931 . S
H80 C101 0.929 . S
H81 C110 0.930 . S
H82 C102 0.931 . S
O83 Co59 2.095 1_556 S
O83 C111 1.214 1_556 S
H84 C112 0.929 . S
H85 C113 0.929 1_554 S
H86 C114 0.930 . S
H87 C115 0.929 . S
H88 C117 0.930 . S
H89 C94 0.930 . S
H90 C98 0.930 . S
O91 Co60 2.037 . S
O91 C111 1.234 . S
C92 O66 1.269 . S
C92 O67 1.257 . S
C93 H68 0.930 . S
C93 C96 1.388 . S
C93 C98 1.418 . S
C94 H89 0.930 . S
C94 C97 1.404 . S
C94 C98 1.353 . S
N95 Co60 2.145 . S
N95 C96 1.397 . S
N95 C97 1.334 . S
C96 H77 0.929 . S
C96 C93 1.388 . S
C96 N95 1.397 . S
C97 H78 0.929 . S
C97 C94 1.404 . S
C97 N95 1.334 . S
C98 H90 0.930 . S
C98 C93 1.418 . S
C98 C94 1.353 . S
C99 H69 0.930 . S
C99 N100 1.330 1_556 S
C99 C101 1.446 . S
N100 Co59 2.153 . S
N100 C99 1.330 1_554 S
N100 C104 1.418 . S
C101 H80 0.929 . S
C101 C99 1.446 . S
C101 C102 1.332 1_556 S
C102 H82 0.931 . S
C102 C101 1.332 1_554 S
C102 C103 1.267 . S
C103 H71 0.929 . S
C103 C102 1.267 . S
C103 C104 1.251 . S
C104 H74 0.929 . S
C104 N100 1.418 . S
C104 C103 1.251 . S
C105 H72 0.943 . S
C105 C107 1.411 . S
C105 C110 1.241 1_556 S
C106 H73 0.930 . S
C106 N108 1.325 . S
C106 C109 1.357 . S
C107 H75 0.928 . S
C107 C105 1.411 . S
C107 N108 1.261 1_556 S
N108 Co59 2.218 . S
N108 C106 1.325 . S
N108 C107 1.261 1_554 S
C109 H79 0.931 . S
C109 C106 1.357 . S
C109 C110 1.312 . S
C110 H81 0.930 . S
C110 C105 1.241 1_554 S
C110 C109 1.312 . S
C111 O83 1.214 1_554 S
C111 O91 1.234 . S
C112 H84 0.929 . S
C112 C115 1.391 . S
C112 C117 1.391 . S
C113 H85 0.929 1_556 S
C113 C114 1.390 . S
C113 N116 1.391 . S
C114 H86 0.930 . S
C114 C113 1.390 . S
C114 C115 1.392 . S
C115 H87 0.929 . S
C115 C112 1.391 . S
C115 C114 1.392 . S
N116 Co60 2.257 1_556 S
N116 C113 1.391 . S
N116 C117 1.388 . S
C117 H88 0.930 . S
C117 C112 1.391 . S
C117 N116 1.388 . S
Co118 O120 2.140 1_554 S
Co118 O126 2.106 . S
Co118 O129 2.061 1_554 S
Co118 O142 2.095 1_554 S
Co118 N159 2.153 . S
Co118 N167 2.218 . S
Co119 O120 2.160 1_554 S
Co119 O125 2.058 . S
Co119 O135 2.057 . S
Co119 O150 2.037 . S
Co119 N154 2.145 . S
Co119 N175 2.257 1_554 S
O120 Co118 2.140 1_556 S
O120 Co119 2.160 1_556 S
C121 O122 1.278 . S
C121 O129 1.224 . S
O122 C121 1.278 . S
C123 O124 1.245 . S
C123 O135 1.232 . S
O124 C123 1.245 . S
O125 Co119 2.058 . S
O125 C151 1.269 . S
O126 Co118 2.106 . S
O126 C151 1.257 . S
H127 C152 0.930 . S
H128 C158 0.930 . S
O129 Co118 2.061 1_556 S
O129 C121 1.224 . S
H130 C162 0.929 . S
H131 C164 0.943 . S
H132 C165 0.930 . S
H133 C163 0.929 . S
H134 C166 0.928 . S
O135 Co119 2.057 . S
O135 C123 1.232 . S
H136 C155 0.929 . S
H137 C156 0.929 . S
H138 C168 0.931 . S
H139 C160 0.929 . S
H140 C169 0.930 . S
H141 C161 0.931 . S
O142 Co118 2.095 1_556 S
O142 C170 1.214 1_556 S
H143 C171 0.929 . S
H144 C172 0.929 1_554 S
H145 C173 0.930 . S
H146 C174 0.929 . S
H147 C176 0.930 . S
H148 C153 0.930 . S
H149 C157 0.930 . S
O150 Co119 2.037 . S
O150 C170 1.234 . S
C151 O125 1.269 . S
C151 O126 1.257 . S
C152 H127 0.930 . S
C152 C155 1.388 . S
C152 C157 1.418 . S
C153 H148 0.930 . S
C153 C156 1.404 . S
C153 C157 1.353 . S
N154 Co119 2.145 . S
N154 C155 1.397 . S
N154 C156 1.334 . S
C155 H136 0.929 . S
C155 C152 1.388 . S
C155 N154 1.397 . S
C156 H137 0.929 . S
C156 C153 1.404 . S
C156 N154 1.334 . S
C157 H149 0.930 . S
C157 C152 1.418 . S
C157 C153 1.353 . S
C158 H128 0.930 . S
C158 N159 1.330 1_556 S
C158 C160 1.446 . S
N159 Co118 2.153 . S
N159 C158 1.330 1_554 S
N159 C163 1.418 . S
C160 H139 0.929 . S
C160 C158 1.446 . S
C160 C161 1.332 1_556 S
C161 H141 0.931 . S
C161 C160 1.332 1_554 S
C161 C162 1.267 . S
C162 H130 0.929 . S
C162 C161 1.267 . S
C162 C163 1.251 . S
C163 H133 0.929 . S
C163 N159 1.418 . S
C163 C162 1.251 . S
C164 H131 0.943 . S
C164 C166 1.411 . S
C164 C169 1.241 1_556 S
C165 H132 0.930 . S
C165 N167 1.325 . S
C165 C168 1.357 . S
C166 H134 0.928 . S
C166 C164 1.411 . S
C166 N167 1.261 1_556 S
N167 Co118 2.218 . S
N167 C165 1.325 . S
N167 C166 1.261 1_554 S
C168 H138 0.931 . S
C168 C165 1.357 . S
C168 C169 1.312 . S
C169 H140 0.930 . S
C169 C164 1.241 1_554 S
C169 C168 1.312 . S
C170 O142 1.214 1_554 S
C170 O150 1.234 . S
C171 H143 0.929 . S
C171 C174 1.391 . S
C171 C176 1.391 . S
C172 H144 0.929 1_556 S
C172 C173 1.390 . S
C172 N175 1.391 . S
C173 H145 0.930 . S
C173 C172 1.390 . S
C173 C174 1.392 . S
C174 H146 0.929 . S
C174 C171 1.391 . S
C174 C173 1.392 . S
N175 Co119 2.257 1_556 S
N175 C172 1.391 . S
N175 C176 1.388 . S
C176 H147 0.930 . S
C176 C171 1.391 . S
C176 N175 1.388 . S
Co177 O179 2.140 1_554 S
Co177 O185 2.106 . S
Co177 O188 2.061 1_554 S
Co177 O201 2.095 1_554 S
Co177 N218 2.153 . S
Co177 N226 2.218 . S
Co178 O179 2.160 1_554 S
Co178 O184 2.058 . S
Co178 O194 2.057 . S
Co178 O209 2.037 . S
Co178 N213 2.145 . S
Co178 N234 2.257 1_554 S
O179 Co177 2.140 1_556 S
O179 Co178 2.160 1_556 S
C180 O181 1.278 . S
C180 O188 1.224 . S
O181 C180 1.278 . S
C182 O183 1.245 . S
C182 O194 1.232 . S
O183 C182 1.245 . S
O184 Co178 2.058 . S
O184 C210 1.269 . S
O185 Co177 2.106 . S
O185 C210 1.257 . S
H186 C211 0.930 . S
H187 C217 0.930 . S
O188 Co177 2.061 1_556 S
O188 C180 1.224 . S
H189 C221 0.929 . S
H190 C223 0.943 . S
H191 C224 0.930 . S
H192 C222 0.929 . S
H193 C225 0.928 . S
O194 Co178 2.057 . S
O194 C182 1.232 . S
H195 C214 0.929 . S
H196 C215 0.929 . S
H197 C227 0.931 . S
H198 C219 0.929 . S
H199 C228 0.930 . S
H200 C220 0.931 . S
O201 Co177 2.095 1_556 S
O201 C229 1.214 1_556 S
H202 C230 0.929 . S
H203 C231 0.929 1_554 S
H204 C232 0.930 . S
H205 C233 0.929 . S
H206 C235 0.930 . S
H207 C212 0.930 . S
H208 C216 0.930 . S
O209 Co178 2.037 . S
O209 C229 1.234 . S
C210 O184 1.269 . S
C210 O185 1.257 . S
C211 H186 0.930 . S
C211 C214 1.388 . S
C211 C216 1.418 . S
C212 H207 0.930 . S
C212 C215 1.404 . S
C212 C216 1.353 . S
N213 Co178 2.145 . S
N213 C214 1.397 . S
N213 C215 1.334 . S
C214 H195 0.929 . S
C214 C211 1.388 . S
C214 N213 1.397 . S
C215 H196 0.929 . S
C215 C212 1.404 . S
C215 N213 1.334 . S
C216 H208 0.930 . S
C216 C211 1.418 . S
C216 C212 1.353 . S
C217 H187 0.930 . S
C217 N218 1.330 1_556 S
C217 C219 1.446 . S
N218 Co177 2.153 . S
N218 C217 1.330 1_554 S
N218 C222 1.418 . S
C219 H198 0.929 . S
C219 C217 1.446 . S
C219 C220 1.332 1_556 S
C220 H200 0.931 . S
C220 C219 1.332 1_554 S
C220 C221 1.267 . S
C221 H189 0.929 . S
C221 C220 1.267 . S
C221 C222 1.251 . S
C222 H192 0.929 . S
C222 N218 1.418 . S
C222 C221 1.251 . S
C223 H190 0.943 . S
C223 C225 1.411 . S
C223 C228 1.241 1_556 S
C224 H191 0.930 . S
C224 N226 1.325 . S
C224 C227 1.357 . S
C225 H193 0.928 . S
C225 C223 1.411 . S
C225 N226 1.261 1_556 S
N226 Co177 2.218 . S
N226 C224 1.325 . S
N226 C225 1.261 1_554 S
C227 H197 0.931 . S
C227 C224 1.357 . S
C227 C228 1.312 . S
C228 H199 0.930 . S
C228 C223 1.241 1_554 S
C228 C227 1.312 . S
C229 O201 1.214 1_554 S
C229 O209 1.234 . S
C230 H202 0.929 . S
C230 C233 1.391 . S
C230 C235 1.391 . S
C231 H203 0.929 1_556 S
C231 C232 1.390 . S
C231 N234 1.391 . S
C232 H204 0.930 . S
C232 C231 1.390 . S
C232 C233 1.392 . S
C233 H205 0.929 . S
C233 C230 1.391 . S
C233 C232 1.392 . S
N234 Co178 2.257 1_556 S
N234 C231 1.391 . S
N234 C235 1.388 . S
C235 H206 0.930 . S
C235 C230 1.391 . S
C235 N234 1.388 . S
Co236 O238 2.143 . S
Co236 O244 2.074 1_554 S
Co236 O247 2.093 . S
Co236 O260 2.097 . S
Co236 N277 2.151 . S
Co236 N285 2.214 . S
Co237 O238 2.160 1_556 S
Co237 O243 2.058 . S
Co237 O253 2.057 . S
Co237 O268 2.037 . S
Co237 N272 2.145 . S
Co237 N293 2.257 1_556 S
O238 Co236 2.143 . S
O238 Co237 2.160 1_554 S
C239 O240 1.278 . S
C239 O247 1.224 . S
O240 C239 1.278 . S
C241 O242 1.245 . S
C241 O253 1.232 1_554 S
O242 C241 1.245 . S
O243 Co237 2.058 . S
O243 C269 1.269 . S
O244 Co236 2.074 1_556 S
O244 C269 1.257 . S
H245 C270 0.930 . S
H246 C276 0.930 . S
O247 Co236 2.093 . S
O247 C239 1.224 . S
H248 C280 0.929 . S
H249 C282 0.930 . S
H250 C283 0.930 . S
H251 C281 0.929 . S
H252 C284 0.928 . S
O253 Co237 2.057 . S
O253 C241 1.232 1_556 S
H254 C273 0.929 . S
H255 C274 0.929 . S
H256 C286 0.931 . S
H257 C278 0.929 . S
H258 C287 0.930 . S
H259 C279 0.931 . S
O260 Co236 2.097 . S
O260 C288 1.214 . S
H261 C289 0.929 . S
H262 C290 0.929 . S
H263 C291 0.930 . S
H264 C292 0.929 . S
H265 C294 0.930 . S
H266 C271 0.930 . S
H267 C275 0.930 . S
O268 Co237 2.037 . S
O268 C288 1.234 1_556 S
C269 O243 1.269 . S
C269 O244 1.257 . S
C270 H245 0.930 . S
C270 C273 1.388 . S
C270 C275 1.418 . S
C271 H266 0.930 . S
C271 C274 1.404 . S
C271 C275 1.353 . S
N272 Co237 2.145 . S
N272 C273 1.397 . S
N272 C274 1.334 . S
C273 H254 0.929 . S
C273 C270 1.388 . S
C273 N272 1.397 . S
C274 H255 0.929 . S
C274 C271 1.404 . S
C274 N272 1.334 . S
C275 H267 0.930 . S
C275 C270 1.418 . S
C275 C271 1.353 . S
C276 H246 0.930 . S
C276 N277 1.330 . S
C276 C278 1.446 . S
N277 Co236 2.151 . S
N277 C276 1.330 . S
N277 C281 1.418 1_554 S
C278 H257 0.929 . S
C278 C276 1.446 . S
C278 C279 1.332 . S
C279 H259 0.931 . S
C279 C278 1.332 . S
C279 C280 1.267 1_554 S
C280 H248 0.929 . S
C280 C279 1.267 1_556 S
C280 C281 1.251 . S
C281 H251 0.929 . S
C281 N277 1.418 1_556 S
C281 C280 1.251 . S
C282 H249 0.930 . S
C282 C284 1.406 . S
C282 C287 1.261 1_554 S
C283 H250 0.930 . S
C283 N285 1.325 1_556 S
C283 C286 1.357 . S
C284 H252 0.928 . S
C284 C282 1.406 . S
C284 N285 1.261 . S
N285 Co236 2.214 . S
N285 C283 1.325 1_554 S
N285 C284 1.261 . S
C286 H256 0.931 . S
C286 C283 1.357 . S
C286 C287 1.312 . S
C287 H258 0.930 . S
C287 C282 1.261 1_556 S
C287 C286 1.312 . S
C288 O260 1.214 . S
C288 O268 1.234 1_554 S
C289 H261 0.929 . S
C289 C292 1.391 . S
C289 C294 1.391 . S
C290 H262 0.929 . S
C290 C291 1.390 . S
C290 N293 1.391 . S
C291 H263 0.930 . S
C291 C290 1.390 . S
C291 C292 1.392 . S
C292 H264 0.929 . S
C292 C289 1.391 . S
C292 C291 1.392 . S
N293 Co237 2.257 1_554 S
N293 C290 1.391 . S
N293 C294 1.388 . S
C294 H265 0.930 . S
C294 C289 1.391 . S
C294 N293 1.388 . S
Co295 O297 2.143 . S
Co295 O303 2.074 1_554 S
Co295 O306 2.093 . S
Co295 O319 2.097 . S
Co295 N336 2.151 . S
Co295 N344 2.214 . S
Co296 O297 2.160 1_556 S
Co296 O302 2.058 . S
Co296 O312 2.057 . S
Co296 O327 2.037 . S
Co296 N331 2.145 . S
Co296 N352 2.257 1_556 S
O297 Co295 2.143 . S
O297 Co296 2.160 1_554 S
C298 O299 1.278 . S
C298 O306 1.224 . S
O299 C298 1.278 . S
C300 O301 1.245 . S
C300 O312 1.232 1_554 S
O301 C300 1.245 . S
O302 Co296 2.058 . S
O302 C328 1.269 . S
O303 Co295 2.074 1_556 S
O303 C328 1.257 . S
H304 C329 0.930 . S
H305 C335 0.930 . S
O306 Co295 2.093 . S
O306 C298 1.224 . S
H307 C339 0.929 . S
H308 C341 0.930 . S
H309 C342 0.930 . S
H310 C340 0.929 . S
H311 C343 0.928 . S
O312 Co296 2.057 . S
O312 C300 1.232 1_556 S
H313 C332 0.929 . S
H314 C333 0.929 . S
H315 C345 0.931 . S
H316 C337 0.929 . S
H317 C346 0.930 . S
H318 C338 0.931 . S
O319 Co295 2.097 . S
O319 C347 1.214 . S
H320 C348 0.929 . S
H321 C349 0.929 . S
H322 C350 0.930 . S
H323 C351 0.929 . S
H324 C353 0.930 . S
H325 C330 0.930 . S
H326 C334 0.930 . S
O327 Co296 2.037 . S
O327 C347 1.234 1_556 S
C328 O302 1.269 . S
C328 O303 1.257 . S
C329 H304 0.930 . S
C329 C332 1.388 . S
C329 C334 1.418 . S
C330 H325 0.930 . S
C330 C333 1.404 . S
C330 C334 1.353 . S
N331 Co296 2.145 . S
N331 C332 1.397 . S
N331 C333 1.334 . S
C332 H313 0.929 . S
C332 C329 1.388 . S
C332 N331 1.397 . S
C333 H314 0.929 . S
C333 C330 1.404 . S
C333 N331 1.334 . S
C334 H326 0.930 . S
C334 C329 1.418 . S
C334 C330 1.353 . S
C335 H305 0.930 . S
C335 N336 1.330 . S
C335 C337 1.446 . S
N336 Co295 2.151 . S
N336 C335 1.330 . S
N336 C340 1.418 1_554 S
C337 H316 0.929 . S
C337 C335 1.446 . S
C337 C338 1.332 . S
C338 H318 0.931 . S
C338 C337 1.332 . S
C338 C339 1.267 1_554 S
C339 H307 0.929 . S
C339 C338 1.267 1_556 S
C339 C340 1.251 . S
C340 H310 0.929 . S
C340 N336 1.418 1_556 S
C340 C339 1.251 . S
C341 H308 0.930 . S
C341 C343 1.406 . S
C341 C346 1.261 1_554 S
C342 H309 0.930 . S
C342 N344 1.325 1_556 S
C342 C345 1.357 . S
C343 H311 0.928 . S
C343 C341 1.406 . S
C343 N344 1.261 . S
N344 Co295 2.214 . S
N344 C342 1.325 1_554 S
N344 C343 1.261 . S
C345 H315 0.931 . S
C345 C342 1.357 . S
C345 C346 1.312 . S
C346 H317 0.930 . S
C346 C341 1.261 1_556 S
C346 C345 1.312 . S
C347 O319 1.214 . S
C347 O327 1.234 1_554 S
C348 H320 0.929 . S
C348 C351 1.391 . S
C348 C353 1.391 . S
C349 H321 0.929 . S
C349 C350 1.390 . S
C349 N352 1.391 . S
C350 H322 0.930 . S
C350 C349 1.390 . S
C350 C351 1.392 . S
C351 H323 0.929 . S
C351 C348 1.391 . S
C351 C350 1.392 . S
N352 Co296 2.257 1_554 S
N352 C349 1.391 . S
N352 C353 1.388 . S
C353 H324 0.930 . S
C353 C348 1.391 . S
C353 N352 1.388 . S
Co354 O356 2.143 . S
Co354 O362 2.074 1_554 S
Co354 O365 2.093 . S
Co354 O378 2.097 . S
Co354 N395 2.151 . S
Co354 N403 2.214 . S
Co355 O356 2.160 1_556 S
Co355 O361 2.058 . S
Co355 O371 2.057 . S
Co355 O386 2.037 . S
Co355 N390 2.145 . S
Co355 N411 2.257 1_556 S
O356 Co354 2.143 . S
O356 Co355 2.160 1_554 S
C357 O358 1.278 . S
C357 O365 1.224 . S
O358 C357 1.278 . S
C359 O360 1.245 . S
C359 O371 1.232 1_554 S
O360 C359 1.245 . S
O361 Co355 2.058 . S
O361 C387 1.269 . S
O362 Co354 2.074 1_556 S
O362 C387 1.257 . S
H363 C388 0.930 . S
H364 C394 0.930 . S
O365 Co354 2.093 . S
O365 C357 1.224 . S
H366 C398 0.929 . S
H367 C400 0.930 . S
H368 C401 0.930 . S
H369 C399 0.929 . S
H370 C402 0.928 . S
O371 Co355 2.057 . S
O371 C359 1.232 1_556 S
H372 C391 0.929 . S
H373 C392 0.929 . S
H374 C404 0.931 . S
H375 C396 0.929 . S
H376 C405 0.930 . S
H377 C397 0.931 . S
O378 Co354 2.097 . S
O378 C406 1.214 . S
H379 C407 0.929 . S
H380 C408 0.929 . S
H381 C409 0.930 . S
H382 C410 0.929 . S
H383 C412 0.930 . S
H384 C389 0.930 . S
H385 C393 0.930 . S
O386 Co355 2.037 . S
O386 C406 1.234 1_556 S
C387 O361 1.269 . S
C387 O362 1.257 . S
C388 H363 0.930 . S
C388 C391 1.388 . S
C388 C393 1.418 . S
C389 H384 0.930 . S
C389 C392 1.404 . S
C389 C393 1.353 . S
N390 Co355 2.145 . S
N390 C391 1.397 . S
N390 C392 1.334 . S
C391 H372 0.929 . S
C391 C388 1.388 . S
C391 N390 1.397 . S
C392 H373 0.929 . S
C392 C389 1.404 . S
C392 N390 1.334 . S
C393 H385 0.930 . S
C393 C388 1.418 . S
C393 C389 1.353 . S
C394 H364 0.930 . S
C394 N395 1.330 . S
C394 C396 1.446 . S
N395 Co354 2.151 . S
N395 C394 1.330 . S
N395 C399 1.418 1_554 S
C396 H375 0.929 . S
C396 C394 1.446 . S
C396 C397 1.332 . S
C397 H377 0.931 . S
C397 C396 1.332 . S
C397 C398 1.267 1_554 S
C398 H366 0.929 . S
C398 C397 1.267 1_556 S
C398 C399 1.251 . S
C399 H369 0.929 . S
C399 N395 1.418 1_556 S
C399 C398 1.251 . S
C400 H367 0.930 . S
C400 C402 1.406 . S
C400 C405 1.261 1_554 S
C401 H368 0.930 . S
C401 N403 1.325 1_556 S
C401 C404 1.357 . S
C402 H370 0.928 . S
C402 C400 1.406 . S
C402 N403 1.261 . S
N403 Co354 2.214 . S
N403 C401 1.325 1_554 S
N403 C402 1.261 . S
C404 H374 0.931 . S
C404 C401 1.357 . S
C404 C405 1.312 . S
C405 H376 0.930 . S
C405 C400 1.261 1_556 S
C405 C404 1.312 . S
C406 O378 1.214 . S
C406 O386 1.234 1_554 S
C407 H379 0.929 . S
C407 C410 1.391 . S
C407 C412 1.391 . S
C408 H380 0.929 . S
C408 C409 1.390 . S
C408 N411 1.391 . S
C409 H381 0.930 . S
C409 C408 1.390 . S
C409 C410 1.392 . S
C410 H382 0.929 . S
C410 C407 1.391 . S
C410 C409 1.392 . S
N411 Co355 2.257 1_554 S
N411 C408 1.391 . S
N411 C412 1.388 . S
C412 H383 0.930 . S
C412 C407 1.391 . S
C412 N411 1.388 . S
Co413 O415 2.143 . S
Co413 O421 2.074 1_554 S
Co413 O424 2.093 . S
Co413 O437 2.097 . S
Co413 N454 2.151 . S
Co413 N462 2.214 . S
Co414 O415 2.160 1_556 S
Co414 O420 2.058 . S
Co414 O430 2.057 . S
Co414 O445 2.037 . S
Co414 N449 2.145 . S
Co414 N470 2.257 1_556 S
O415 Co413 2.143 . S
O415 Co414 2.160 1_554 S
C416 O417 1.278 . S
C416 O424 1.224 . S
O417 C416 1.278 . S
C418 O419 1.245 . S
C418 O430 1.232 1_554 S
O419 C418 1.245 . S
O420 Co414 2.058 . S
O420 C446 1.269 . S
O421 Co413 2.074 1_556 S
O421 C446 1.257 . S
H422 C447 0.930 . S
H423 C453 0.930 . S
O424 Co413 2.093 . S
O424 C416 1.224 . S
H425 C457 0.929 . S
H426 C459 0.930 . S
H427 C460 0.930 . S
H428 C458 0.929 . S
H429 C461 0.928 . S
O430 Co414 2.057 . S
O430 C418 1.232 1_556 S
H431 C450 0.929 . S
H432 C451 0.929 . S
H433 C463 0.931 . S
H434 C455 0.929 . S
H435 C464 0.930 . S
H436 C456 0.931 . S
O437 Co413 2.097 . S
O437 C465 1.214 . S
H438 C466 0.929 . S
H439 C467 0.929 . S
H440 C468 0.930 . S
H441 C469 0.929 . S
H442 C471 0.930 . S
H443 C448 0.930 . S
H444 C452 0.930 . S
O445 Co414 2.037 . S
O445 C465 1.234 1_556 S
C446 O420 1.269 . S
C446 O421 1.257 . S
C447 H422 0.930 . S
C447 C450 1.388 . S
C447 C452 1.418 . S
C448 H443 0.930 . S
C448 C451 1.404 . S
C448 C452 1.353 . S
N449 Co414 2.145 . S
N449 C450 1.397 . S
N449 C451 1.334 . S
C450 H431 0.929 . S
C450 C447 1.388 . S
C450 N449 1.397 . S
C451 H432 0.929 . S
C451 C448 1.404 . S
C451 N449 1.334 . S
C452 H444 0.930 . S
C452 C447 1.418 . S
C452 C448 1.353 . S
C453 H423 0.930 . S
C453 N454 1.330 . S
C453 C455 1.446 . S
N454 Co413 2.151 . S
N454 C453 1.330 . S
N454 C458 1.418 1_554 S
C455 H434 0.929 . S
C455 C453 1.446 . S
C455 C456 1.332 . S
C456 H436 0.931 . S
C456 C455 1.332 . S
C456 C457 1.267 1_554 S
C457 H425 0.929 . S
C457 C456 1.267 1_556 S
C457 C458 1.251 . S
C458 H428 0.929 . S
C458 N454 1.418 1_556 S
C458 C457 1.251 . S
C459 H426 0.930 . S
C459 C461 1.406 . S
C459 C464 1.261 1_554 S
C460 H427 0.930 . S
C460 N462 1.325 1_556 S
C460 C463 1.357 . S
C461 H429 0.928 . S
C461 C459 1.406 . S
C461 N462 1.261 . S
N462 Co413 2.214 . S
N462 C460 1.325 1_554 S
N462 C461 1.261 . S
C463 H433 0.931 . S
C463 C460 1.357 . S
C463 C464 1.312 . S
C464 H435 0.930 . S
C464 C459 1.261 1_556 S
C464 C463 1.312 . S
C465 O437 1.214 . S
C465 O445 1.234 1_554 S
C466 H438 0.929 . S
C466 C469 1.391 . S
C466 C471 1.391 . S
C467 H439 0.929 . S
C467 C468 1.390 . S
C467 N470 1.391 . S
C468 H440 0.930 . S
C468 C467 1.390 . S
C468 C469 1.392 . S
C469 H441 0.929 . S
C469 C466 1.391 . S
C469 C468 1.392 . S
N470 Co414 2.257 1_554 S
N470 C467 1.391 . S
N470 C471 1.388 . S
C471 H442 0.930 . S
C471 C466 1.391 . S
C471 N470 1.388 . S
Co472 O474 2.143 . S
Co472 O480 2.074 . S
Co472 O483 2.093 . S
Co472 O496 2.097 . S
Co472 N513 2.151 . S
Co472 N521 2.214 . S
Co473 O474 2.160 . S
Co473 O479 2.058 . S
Co473 O489 2.057 . S
Co473 O504 2.037 . S
Co473 N508 2.145 . S
Co473 N529 2.257 . S
O474 Co472 2.143 . S
O474 Co473 2.160 . S
C475 O476 1.278 . S
C475 O483 1.224 . S
O476 C475 1.278 . S
C477 O478 1.245 . S
C477 O489 1.232 . S
O478 C477 1.245 . S
O479 Co473 2.058 . S
O479 C505 1.269 . S
O480 Co472 2.074 . S
O480 C505 1.257 . S
H481 C506 0.930 . S
H482 C512 0.930 . S
O483 Co472 2.093 . S
O483 C475 1.224 . S
H484 C516 0.929 . S
H485 C518 0.930 . S
H486 C519 0.930 . S
H487 C517 0.929 . S
H488 C520 0.928 . S
O489 Co473 2.057 . S
O489 C477 1.232 . S
H490 C509 0.929 . S
H491 C510 0.929 . S
H492 C522 0.931 . S
H493 C514 0.929 . S
H494 C523 0.930 . S
H495 C515 0.931 . S
O496 Co472 2.097 . S
O496 C524 1.214 . S
H497 C525 0.929 . S
H498 C526 0.929 . S
H499 C527 0.930 . S
H500 C528 0.929 . S
H501 C530 0.930 . S
H502 C507 0.930 . S
H503 C511 0.930 . S
O504 Co473 2.037 . S
O504 C524 1.234 . S
C505 O479 1.269 . S
C505 O480 1.257 . S
C506 H481 0.930 . S
C506 C509 1.388 . S
C506 C511 1.418 . S
C507 H502 0.930 . S
C507 C510 1.404 . S
C507 C511 1.353 . S
N508 Co473 2.145 . S
N508 C509 1.397 . S
N508 C510 1.334 . S
C509 H490 0.929 . S
C509 C506 1.388 . S
C509 N508 1.397 . S
C510 H491 0.929 . S
C510 C507 1.404 . S
C510 N508 1.334 . S
C511 H503 0.930 . S
C511 C506 1.418 . S
C511 C507 1.353 . S
C512 H482 0.930 . S
C512 N513 1.330 . S
C512 C514 1.446 . S
N513 Co472 2.151 . S
N513 C512 1.330 . S
N513 C517 1.418 . S
C514 H493 0.929 . S
C514 C512 1.446 . S
C514 C515 1.332 . S
C515 H495 0.931 . S
C515 C514 1.332 . S
C515 C516 1.267 . S
C516 H484 0.929 . S
C516 C515 1.267 . S
C516 C517 1.251 . S
C517 H487 0.929 . S
C517 N513 1.418 . S
C517 C516 1.251 . S
C518 H485 0.930 . S
C518 C520 1.406 . S
C518 C523 1.261 . S
C519 H486 0.930 . S
C519 N521 1.325 . S
C519 C522 1.357 . S
C520 H488 0.928 . S
C520 C518 1.406 . S
C520 N521 1.261 . S
N521 Co472 2.214 . S
N521 C519 1.325 . S
N521 C520 1.261 . S
C522 H492 0.931 . S
C522 C519 1.357 . S
C522 C523 1.312 . S
C523 H494 0.930 . S
C523 C518 1.261 . S
C523 C522 1.312 . S
C524 O496 1.214 . S
C524 O504 1.234 . S
C525 H497 0.929 . S
C525 C528 1.391 . S
C525 C530 1.391 . S
C526 H498 0.929 . S
C526 C527 1.390 . S
C526 N529 1.391 . S
C527 H499 0.930 . S
C527 C526 1.390 . S
C527 C528 1.392 . S
C528 H500 0.929 . S
C528 C525 1.391 . S
C528 C527 1.392 . S
N529 Co473 2.257 . S
N529 C526 1.391 . S
N529 C530 1.388 . S
C530 H501 0.930 . S
C530 C525 1.391 . S
C530 N529 1.388 . S
Co531 O533 2.143 . S
Co531 O539 2.074 . S
Co531 O542 2.093 . S
Co531 O555 2.097 . S
Co531 N572 2.151 . S
Co531 N580 2.214 . S
Co532 O533 2.160 . S
Co532 O538 2.058 . S
Co532 O548 2.057 . S
Co532 O563 2.037 . S
Co532 N567 2.145 . S
Co532 N588 2.257 . S
O533 Co531 2.143 . S
O533 Co532 2.160 . S
C534 O535 1.278 . S
C534 O542 1.224 . S
O535 C534 1.278 . S
C536 O537 1.245 . S
C536 O548 1.232 . S
O537 C536 1.245 . S
O538 Co532 2.058 . S
O538 C564 1.269 . S
O539 Co531 2.074 . S
O539 C564 1.257 . S
H540 C565 0.930 . S
H541 C571 0.930 . S
O542 Co531 2.093 . S
O542 C534 1.224 . S
H543 C575 0.929 . S
H544 C577 0.930 . S
H545 C578 0.930 . S
H546 C576 0.929 . S
H547 C579 0.928 . S
O548 Co532 2.057 . S
O548 C536 1.232 . S
H549 C568 0.929 . S
H550 C569 0.929 . S
H551 C581 0.931 . S
H552 C573 0.929 . S
H553 C582 0.930 . S
H554 C574 0.931 . S
O555 Co531 2.097 . S
O555 C583 1.214 . S
H556 C584 0.929 . S
H557 C585 0.929 . S
H558 C586 0.930 . S
H559 C587 0.929 . S
H560 C589 0.930 . S
H561 C566 0.930 . S
H562 C570 0.930 . S
O563 Co532 2.037 . S
O563 C583 1.234 . S
C564 O538 1.269 . S
C564 O539 1.257 . S
C565 H540 0.930 . S
C565 C568 1.388 . S
C565 C570 1.418 . S
C566 H561 0.930 . S
C566 C569 1.404 . S
C566 C570 1.353 . S
N567 Co532 2.145 . S
N567 C568 1.397 . S
N567 C569 1.334 . S
C568 H549 0.929 . S
C568 C565 1.388 . S
C568 N567 1.397 . S
C569 H550 0.929 . S
C569 C566 1.404 . S
C569 N567 1.334 . S
C570 H562 0.930 . S
C570 C565 1.418 . S
C570 C566 1.353 . S
C571 H541 0.930 . S
C571 N572 1.330 . S
C571 C573 1.446 . S
N572 Co531 2.151 . S
N572 C571 1.330 . S
N572 C576 1.418 . S
C573 H552 0.929 . S
C573 C571 1.446 . S
C573 C574 1.332 . S
C574 H554 0.931 . S
C574 C573 1.332 . S
C574 C575 1.267 . S
C575 H543 0.929 . S
C575 C574 1.267 . S
C575 C576 1.251 . S
C576 H546 0.929 . S
C576 N572 1.418 . S
C576 C575 1.251 . S
C577 H544 0.930 . S
C577 C579 1.406 . S
C577 C582 1.261 . S
C578 H545 0.930 . S
C578 N580 1.325 . S
C578 C581 1.357 . S
C579 H547 0.928 . S
C579 C577 1.406 . S
C579 N580 1.261 . S
N580 Co531 2.214 . S
N580 C578 1.325 . S
N580 C579 1.261 . S
C581 H551 0.931 . S
C581 C578 1.357 . S
C581 C582 1.312 . S
C582 H553 0.930 . S
C582 C577 1.261 . S
C582 C581 1.312 . S
C583 O555 1.214 . S
C583 O563 1.234 . S
C584 H556 0.929 . S
C584 C587 1.391 . S
C584 C589 1.391 . S
C585 H557 0.929 . S
C585 C586 1.390 . S
C585 N588 1.391 . S
C586 H558 0.930 . S
C586 C585 1.390 . S
C586 C587 1.392 . S
C587 H559 0.929 . S
C587 C584 1.391 . S
C587 C586 1.392 . S
N588 Co532 2.257 . S
N588 C585 1.391 . S
N588 C589 1.388 . S
C589 H560 0.930 . S
C589 C584 1.391 . S
C589 N588 1.388 . S
Co590 O592 2.143 . S
Co590 O598 2.074 . S
Co590 O601 2.093 . S
Co590 O614 2.097 . S
Co590 N631 2.151 . S
Co590 N639 2.214 . S
Co591 O592 2.160 . S
Co591 O597 2.058 . S
Co591 O607 2.057 . S
Co591 O622 2.037 . S
Co591 N626 2.145 . S
Co591 N647 2.257 . S
O592 Co590 2.143 . S
O592 Co591 2.160 . S
C593 O594 1.278 . S
C593 O601 1.224 . S
O594 C593 1.278 . S
C595 O596 1.245 . S
C595 O607 1.232 . S
O596 C595 1.245 . S
O597 Co591 2.058 . S
O597 C623 1.269 . S
O598 Co590 2.074 . S
O598 C623 1.257 . S
H599 C624 0.930 . S
H600 C630 0.930 . S
O601 Co590 2.093 . S
O601 C593 1.224 . S
H602 C634 0.929 . S
H603 C636 0.930 . S
H604 C637 0.930 . S
H605 C635 0.929 . S
H606 C638 0.928 . S
O607 Co591 2.057 . S
O607 C595 1.232 . S
H608 C627 0.929 . S
H609 C628 0.929 . S
H610 C640 0.931 . S
H611 C632 0.929 . S
H612 C641 0.930 . S
H613 C633 0.931 . S
O614 Co590 2.097 . S
O614 C642 1.214 . S
H615 C643 0.929 . S
H616 C644 0.929 . S
H617 C645 0.930 . S
H618 C646 0.929 . S
H619 C648 0.930 . S
H620 C625 0.930 . S
H621 C629 0.930 . S
O622 Co591 2.037 . S
O622 C642 1.234 . S
C623 O597 1.269 . S
C623 O598 1.257 . S
C624 H599 0.930 . S
C624 C627 1.388 . S
C624 C629 1.418 . S
C625 H620 0.930 . S
C625 C628 1.404 . S
C625 C629 1.353 . S
N626 Co591 2.145 . S
N626 C627 1.397 . S
N626 C628 1.334 . S
C627 H608 0.929 . S
C627 C624 1.388 . S
C627 N626 1.397 . S
C628 H609 0.929 . S
C628 C625 1.404 . S
C628 N626 1.334 . S
C629 H621 0.930 . S
C629 C624 1.418 . S
C629 C625 1.353 . S
C630 H600 0.930 . S
C630 N631 1.330 . S
C630 C632 1.446 . S
N631 Co590 2.151 . S
N631 C630 1.330 . S
N631 C635 1.418 . S
C632 H611 0.929 . S
C632 C630 1.446 . S
C632 C633 1.332 . S
C633 H613 0.931 . S
C633 C632 1.332 . S
C633 C634 1.267 . S
C634 H602 0.929 . S
C634 C633 1.267 . S
C634 C635 1.251 . S
C635 H605 0.929 . S
C635 N631 1.418 . S
C635 C634 1.251 . S
C636 H603 0.930 . S
C636 C638 1.406 . S
C636 C641 1.261 . S
C637 H604 0.930 . S
C637 N639 1.325 . S
C637 C640 1.357 . S
C638 H606 0.928 . S
C638 C636 1.406 . S
C638 N639 1.261 . S
N639 Co590 2.214 . S
N639 C637 1.325 . S
N639 C638 1.261 . S
C640 H610 0.931 . S
C640 C637 1.357 . S
C640 C641 1.312 . S
C641 H612 0.930 . S
C641 C636 1.261 . S
C641 C640 1.312 . S
C642 O614 1.214 . S
C642 O622 1.234 . S
C643 H615 0.929 . S
C643 C646 1.391 . S
C643 C648 1.391 . S
C644 H616 0.929 . S
C644 C645 1.390 . S
C644 N647 1.391 . S
C645 H617 0.930 . S
C645 C644 1.390 . S
C645 C646 1.392 . S
C646 H618 0.929 . S
C646 C643 1.391 . S
C646 C645 1.392 . S
N647 Co591 2.257 . S
N647 C644 1.391 . S
N647 C648 1.388 . S
C648 H619 0.930 . S
C648 C643 1.391 . S
C648 N647 1.388 . S
Co649 O651 2.143 . S
Co649 O657 2.074 . S
Co649 O660 2.093 . S
Co649 O673 2.097 . S
Co649 N690 2.151 . S
Co649 N698 2.214 . S
Co650 O651 2.160 . S
Co650 O656 2.058 . S
Co650 O666 2.057 . S
Co650 O681 2.037 . S
Co650 N685 2.145 . S
Co650 N706 2.257 . S
O651 Co649 2.143 . S
O651 Co650 2.160 . S
C652 O653 1.278 . S
C652 O660 1.224 . S
O653 C652 1.278 . S
C654 O655 1.245 . S
C654 O666 1.232 . S
O655 C654 1.245 . S
O656 Co650 2.058 . S
O656 C682 1.269 . S
O657 Co649 2.074 . S
O657 C682 1.257 . S
H658 C683 0.930 . S
H659 C689 0.930 . S
O660 Co649 2.093 . S
O660 C652 1.224 . S
H661 C693 0.929 . S
H662 C695 0.930 . S
H663 C696 0.930 . S
H664 C694 0.929 . S
H665 C697 0.928 . S
O666 Co650 2.057 . S
O666 C654 1.232 . S
H667 C686 0.929 . S
H668 C687 0.929 . S
H669 C699 0.931 . S
H670 C691 0.929 . S
H671 C700 0.930 . S
H672 C692 0.931 . S
O673 Co649 2.097 . S
O673 C701 1.214 . S
H674 C702 0.929 . S
H675 C703 0.929 . S
H676 C704 0.930 . S
H677 C705 0.929 . S
H678 C707 0.930 . S
H679 C684 0.930 . S
H680 C688 0.930 . S
O681 Co650 2.037 . S
O681 C701 1.234 . S
C682 O656 1.269 . S
C682 O657 1.257 . S
C683 H658 0.930 . S
C683 C686 1.388 . S
C683 C688 1.418 . S
C684 H679 0.930 . S
C684 C687 1.404 . S
C684 C688 1.353 . S
N685 Co650 2.145 . S
N685 C686 1.397 . S
N685 C687 1.334 . S
C686 H667 0.929 . S
C686 C683 1.388 . S
C686 N685 1.397 . S
C687 H668 0.929 . S
C687 C684 1.404 . S
C687 N685 1.334 . S
C688 H680 0.930 . S
C688 C683 1.418 . S
C688 C684 1.353 . S
C689 H659 0.930 . S
C689 N690 1.330 . S
C689 C691 1.446 . S
N690 Co649 2.151 . S
N690 C689 1.330 . S
N690 C694 1.418 . S
C691 H670 0.929 . S
C691 C689 1.446 . S
C691 C692 1.332 . S
C692 H672 0.931 . S
C692 C691 1.332 . S
C692 C693 1.267 . S
C693 H661 0.929 . S
C693 C692 1.267 . S
C693 C694 1.251 . S
C694 H664 0.929 . S
C694 N690 1.418 . S
C694 C693 1.251 . S
C695 H662 0.930 . S
C695 C697 1.406 . S
C695 C700 1.261 . S
C696 H663 0.930 . S
C696 N698 1.325 . S
C696 C699 1.357 . S
C697 H665 0.928 . S
C697 C695 1.406 . S
C697 N698 1.261 . S
N698 Co649 2.214 . S
N698 C696 1.325 . S
N698 C697 1.261 . S
C699 H669 0.931 . S
C699 C696 1.357 . S
C699 C700 1.312 . S
C700 H671 0.930 . S
C700 C695 1.261 . S
C700 C699 1.312 . S
C701 O673 1.214 . S
C701 O681 1.234 . S
C702 H674 0.929 . S
C702 C705 1.391 . S
C702 C707 1.391 . S
C703 H675 0.929 . S
C703 C704 1.390 . S
C703 N706 1.391 . S
C704 H676 0.930 . S
C704 C703 1.390 . S
C704 C705 1.392 . S
C705 H677 0.929 . S
C705 C702 1.391 . S
C705 C704 1.392 . S
N706 Co650 2.257 . S
N706 C703 1.391 . S
N706 C707 1.388 . S
C707 H678 0.930 . S
C707 C702 1.391 . S
C707 N706 1.388 . S
Co708 O710 2.143 . S
Co708 O716 2.074 . S
Co708 O719 2.093 . S
Co708 O732 2.097 . S
Co708 N749 2.151 . S
Co708 N757 2.214 . S
Co709 O710 2.160 . S
Co709 O715 2.058 . S
Co709 O725 2.057 . S
Co709 O740 2.037 . S
Co709 N744 2.145 . S
Co709 N765 2.257 . S
O710 Co708 2.143 . S
O710 Co709 2.160 . S
C711 O712 1.278 . S
C711 O719 1.224 . S
O712 C711 1.278 . S
C713 O714 1.245 . S
C713 O725 1.232 . S
O714 C713 1.245 . S
O715 Co709 2.058 . S
O715 C741 1.269 . S
O716 Co708 2.074 . S
O716 C741 1.257 . S
H717 C742 0.930 . S
H718 C748 0.930 . S
O719 Co708 2.093 . S
O719 C711 1.224 . S
H720 C752 0.929 . S
H721 C754 0.930 . S
H722 C755 0.930 . S
H723 C753 0.929 . S
H724 C756 0.928 . S
O725 Co709 2.057 . S
O725 C713 1.232 . S
H726 C745 0.929 . S
H727 C746 0.929 . S
H728 C758 0.931 . S
H729 C750 0.929 . S
H730 C759 0.930 . S
H731 C751 0.931 . S
O732 Co708 2.097 . S
O732 C760 1.214 . S
H733 C761 0.929 . S
H734 C762 0.929 . S
H735 C763 0.930 . S
H736 C764 0.929 . S
H737 C766 0.930 . S
H738 C743 0.930 . S
H739 C747 0.930 . S
O740 Co709 2.037 . S
O740 C760 1.234 . S
C741 O715 1.269 . S
C741 O716 1.257 . S
C742 H717 0.930 . S
C742 C745 1.388 . S
C742 C747 1.418 . S
C743 H738 0.930 . S
C743 C746 1.404 . S
C743 C747 1.353 . S
N744 Co709 2.145 . S
N744 C745 1.397 . S
N744 C746 1.334 . S
C745 H726 0.929 . S
C745 C742 1.388 . S
C745 N744 1.397 . S
C746 H727 0.929 . S
C746 C743 1.404 . S
C746 N744 1.334 . S
C747 H739 0.930 . S
C747 C742 1.418 . S
C747 C743 1.353 . S
C748 H718 0.930 . S
C748 N749 1.330 . S
C748 C750 1.446 . S
N749 Co708 2.151 . S
N749 C748 1.330 . S
N749 C753 1.418 . S
C750 H729 0.929 . S
C750 C748 1.446 . S
C750 C751 1.332 . S
C751 H731 0.931 . S
C751 C750 1.332 . S
C751 C752 1.267 . S
C752 H720 0.929 . S
C752 C751 1.267 . S
C752 C753 1.251 . S
C753 H723 0.929 . S
C753 N749 1.418 . S
C753 C752 1.251 . S
C754 H721 0.930 . S
C754 C756 1.406 . S
C754 C759 1.261 . S
C755 H722 0.930 . S
C755 N757 1.325 . S
C755 C758 1.357 . S
C756 H724 0.928 . S
C756 C754 1.406 . S
C756 N757 1.261 . S
N757 Co708 2.214 . S
N757 C755 1.325 . S
N757 C756 1.261 . S
C758 H728 0.931 . S
C758 C755 1.357 . S
C758 C759 1.312 . S
C759 H730 0.930 . S
C759 C754 1.261 . S
C759 C758 1.312 . S
C760 O732 1.214 . S
C760 O740 1.234 . S
C761 H733 0.929 . S
C761 C764 1.391 . S
C761 C766 1.391 . S
C762 H734 0.929 . S
C762 C763 1.390 . S
C762 N765 1.391 . S
C763 H735 0.930 . S
C763 C762 1.390 . S
C763 C764 1.392 . S
C764 H736 0.929 . S
C764 C761 1.391 . S
C764 C763 1.392 . S
N765 Co709 2.257 . S
N765 C762 1.391 . S
N765 C766 1.388 . S
C766 H737 0.930 . S
C766 C761 1.391 . S
C766 N765 1.388 . S
Co767 O769 2.143 . S
Co767 O775 2.074 . S
Co767 O778 2.093 . S
Co767 O791 2.097 . S
Co767 N808 2.151 . S
Co767 N816 2.214 . S
Co768 O769 2.160 . S
Co768 O774 2.058 . S
Co768 O784 2.057 . S
Co768 O799 2.037 . S
Co768 N803 2.145 . S
Co768 N824 2.257 . S
O769 Co767 2.143 . S
O769 Co768 2.160 . S
C770 O771 1.278 . S
C770 O778 1.224 . S
O771 C770 1.278 . S
C772 O773 1.245 . S
C772 O784 1.232 . S
O773 C772 1.245 . S
O774 Co768 2.058 . S
O774 C800 1.269 . S
O775 Co767 2.074 . S
O775 C800 1.257 . S
H776 C801 0.930 . S
H777 C807 0.930 . S
O778 Co767 2.093 . S
O778 C770 1.224 . S
H779 C811 0.929 . S
H780 C813 0.930 . S
H781 C814 0.930 . S
H782 C812 0.929 . S
H783 C815 0.928 . S
O784 Co768 2.057 . S
O784 C772 1.232 . S
H785 C804 0.929 . S
H786 C805 0.929 . S
H787 C817 0.931 . S
H788 C809 0.929 . S
H789 C818 0.930 . S
H790 C810 0.931 . S
O791 Co767 2.097 . S
O791 C819 1.214 . S
H792 C820 0.929 . S
H793 C821 0.929 . S
H794 C822 0.930 . S
H795 C823 0.929 . S
H796 C825 0.930 . S
H797 C802 0.930 . S
H798 C806 0.930 . S
O799 Co768 2.037 . S
O799 C819 1.234 . S
C800 O774 1.269 . S
C800 O775 1.257 . S
C801 H776 0.930 . S
C801 C804 1.388 . S
C801 C806 1.418 . S
C802 H797 0.930 . S
C802 C805 1.404 . S
C802 C806 1.353 . S
N803 Co768 2.145 . S
N803 C804 1.397 . S
N803 C805 1.334 . S
C804 H785 0.929 . S
C804 C801 1.388 . S
C804 N803 1.397 . S
C805 H786 0.929 . S
C805 C802 1.404 . S
C805 N803 1.334 . S
C806 H798 0.930 . S
C806 C801 1.418 . S
C806 C802 1.353 . S
C807 H777 0.930 . S
C807 N808 1.330 . S
C807 C809 1.446 . S
N808 Co767 2.151 . S
N808 C807 1.330 . S
N808 C812 1.418 . S
C809 H788 0.929 . S
C809 C807 1.446 . S
C809 C810 1.332 . S
C810 H790 0.931 . S
C810 C809 1.332 . S
C810 C811 1.267 . S
C811 H779 0.929 . S
C811 C810 1.267 . S
C811 C812 1.251 . S
C812 H782 0.929 . S
C812 N808 1.418 . S
C812 C811 1.251 . S
C813 H780 0.930 . S
C813 C815 1.406 . S
C813 C818 1.261 . S
C814 H781 0.930 . S
C814 N816 1.325 . S
C814 C817 1.357 . S
C815 H783 0.928 . S
C815 C813 1.406 . S
C815 N816 1.261 . S
N816 Co767 2.214 . S
N816 C814 1.325 . S
N816 C815 1.261 . S
C817 H787 0.931 . S
C817 C814 1.357 . S
C817 C818 1.312 . S
C818 H789 0.930 . S
C818 C813 1.261 . S
C818 C817 1.312 . S
C819 O791 1.214 . S
C819 O799 1.234 . S
C820 H792 0.929 . S
C820 C823 1.391 . S
C820 C825 1.391 . S
C821 H793 0.929 . S
C821 C822 1.390 . S
C821 N824 1.391 . S
C822 H794 0.930 . S
C822 C821 1.390 . S
C822 C823 1.392 . S
C823 H795 0.929 . S
C823 C820 1.391 . S
C823 C822 1.392 . S
N824 Co768 2.257 . S
N824 C821 1.391 . S
N824 C825 1.388 . S
C825 H796 0.930 . S
C825 C820 1.391 . S
C825 N824 1.388 . S
Co826 O828 2.143 . S
Co826 O834 2.074 . S
Co826 O837 2.093 . S
Co826 O850 2.097 . S
Co826 N867 2.151 . S
Co826 N875 2.214 . S
Co827 O828 2.160 . S
Co827 O833 2.058 . S
Co827 O843 2.057 . S
Co827 O858 2.037 . S
Co827 N862 2.145 . S
Co827 N883 2.257 . S
O828 Co826 2.143 . S
O828 Co827 2.160 . S
C829 O830 1.278 . S
C829 O837 1.224 . S
O830 C829 1.278 . S
C831 O832 1.245 . S
C831 O843 1.232 . S
O832 C831 1.245 . S
O833 Co827 2.058 . S
O833 C859 1.269 . S
O834 Co826 2.074 . S
O834 C859 1.257 . S
H835 C860 0.930 . S
H836 C866 0.930 . S
O837 Co826 2.093 . S
O837 C829 1.224 . S
H838 C870 0.929 . S
H839 C872 0.930 . S
H840 C873 0.930 . S
H841 C871 0.929 . S
H842 C874 0.928 . S
O843 Co827 2.057 . S
O843 C831 1.232 . S
H844 C863 0.929 . S
H845 C864 0.929 . S
H846 C876 0.931 . S
H847 C868 0.929 . S
H848 C877 0.930 . S
H849 C869 0.931 . S
O850 Co826 2.097 . S
O850 C878 1.214 . S
H851 C879 0.929 . S
H852 C880 0.929 . S
H853 C881 0.930 . S
H854 C882 0.929 . S
H855 C884 0.930 . S
H856 C861 0.930 . S
H857 C865 0.930 . S
O858 Co827 2.037 . S
O858 C878 1.234 . S
C859 O833 1.269 . S
C859 O834 1.257 . S
C860 H835 0.930 . S
C860 C863 1.388 . S
C860 C865 1.418 . S
C861 H856 0.930 . S
C861 C864 1.404 . S
C861 C865 1.353 . S
N862 Co827 2.145 . S
N862 C863 1.397 . S
N862 C864 1.334 . S
C863 H844 0.929 . S
C863 C860 1.388 . S
C863 N862 1.397 . S
C864 H845 0.929 . S
C864 C861 1.404 . S
C864 N862 1.334 . S
C865 H857 0.930 . S
C865 C860 1.418 . S
C865 C861 1.353 . S
C866 H836 0.930 . S
C866 N867 1.330 . S
C866 C868 1.446 . S
N867 Co826 2.151 . S
N867 C866 1.330 . S
N867 C871 1.418 . S
C868 H847 0.929 . S
C868 C866 1.446 . S
C868 C869 1.332 . S
C869 H849 0.931 . S
C869 C868 1.332 . S
C869 C870 1.267 . S
C870 H838 0.929 . S
C870 C869 1.267 . S
C870 C871 1.251 . S
C871 H841 0.929 . S
C871 N867 1.418 . S
C871 C870 1.251 . S
C872 H839 0.930 . S
C872 C874 1.406 . S
C872 C877 1.261 . S
C873 H840 0.930 . S
C873 N875 1.325 . S
C873 C876 1.357 . S
C874 H842 0.928 . S
C874 C872 1.406 . S
C874 N875 1.261 . S
N875 Co826 2.214 . S
N875 C873 1.325 . S
N875 C874 1.261 . S
C876 H846 0.931 . S
C876 C873 1.357 . S
C876 C877 1.312 . S
C877 H848 0.930 . S
C877 C872 1.261 . S
C877 C876 1.312 . S
C878 O850 1.214 . S
C878 O858 1.234 . S
C879 H851 0.929 . S
C879 C882 1.391 . S
C879 C884 1.391 . S
C880 H852 0.929 . S
C880 C881 1.390 . S
C880 N883 1.391 . S
C881 H853 0.930 . S
C881 C880 1.390 . S
C881 C882 1.392 . S
C882 H854 0.929 . S
C882 C879 1.391 . S
C882 C881 1.392 . S
N883 Co827 2.257 . S
N883 C880 1.391 . S
N883 C884 1.388 . S
C884 H855 0.930 . S
C884 C879 1.391 . S
C884 N883 1.388 . S
Co885 O887 2.143 . S
Co885 O893 2.074 . S
Co885 O896 2.093 . S
Co885 O909 2.097 . S
Co885 N926 2.151 . S
Co885 N934 2.214 . S
Co886 O887 2.160 . S
Co886 O892 2.058 . S
Co886 O902 2.057 . S
Co886 O917 2.037 . S
Co886 N921 2.145 . S
Co886 N942 2.257 . S
O887 Co885 2.143 . S
O887 Co886 2.160 . S
C888 O889 1.278 . S
C888 O896 1.224 . S
O889 C888 1.278 . S
C890 O891 1.245 . S
C890 O902 1.232 . S
O891 C890 1.245 . S
O892 Co886 2.058 . S
O892 C918 1.269 . S
O893 Co885 2.074 . S
O893 C918 1.257 . S
H894 C919 0.930 . S
H895 C925 0.930 . S
O896 Co885 2.093 . S
O896 C888 1.224 . S
H897 C929 0.929 . S
H898 C931 0.930 . S
H899 C932 0.930 . S
H900 C930 0.929 . S
H901 C933 0.928 . S
O902 Co886 2.057 . S
O902 C890 1.232 . S
H903 C922 0.929 . S
H904 C923 0.929 . S
H905 C935 0.931 . S
H906 C927 0.929 . S
H907 C936 0.930 . S
H908 C928 0.931 . S
O909 Co885 2.097 . S
O909 C937 1.214 . S
H910 C938 0.929 . S
H911 C939 0.929 . S
H912 C940 0.930 . S
H913 C941 0.929 . S
H914 C943 0.930 . S
H915 C920 0.930 . S
H916 C924 0.930 . S
O917 Co886 2.037 . S
O917 C937 1.234 . S
C918 O892 1.269 . S
C918 O893 1.257 . S
C919 H894 0.930 . S
C919 C922 1.388 . S
C919 C924 1.418 . S
C920 H915 0.930 . S
C920 C923 1.404 . S
C920 C924 1.353 . S
N921 Co886 2.145 . S
N921 C922 1.397 . S
N921 C923 1.334 . S
C922 H903 0.929 . S
C922 C919 1.388 . S
C922 N921 1.397 . S
C923 H904 0.929 . S
C923 C920 1.404 . S
C923 N921 1.334 . S
C924 H916 0.930 . S
C924 C919 1.418 . S
C924 C920 1.353 . S
C925 H895 0.930 . S
C925 N926 1.330 . S
C925 C927 1.446 . S
N926 Co885 2.151 . S
N926 C925 1.330 . S
N926 C930 1.418 . S
C927 H906 0.929 . S
C927 C925 1.446 . S
C927 C928 1.332 . S
C928 H908 0.931 . S
C928 C927 1.332 . S
C928 C929 1.267 . S
C929 H897 0.929 . S
C929 C928 1.267 . S
C929 C930 1.251 . S
C930 H900 0.929 . S
C930 N926 1.418 . S
C930 C929 1.251 . S
C931 H898 0.930 . S
C931 C933 1.406 . S
C931 C936 1.261 . S
C932 H899 0.930 . S
C932 N934 1.325 . S
C932 C935 1.357 . S
C933 H901 0.928 . S
C933 C931 1.406 . S
C933 N934 1.261 . S
N934 Co885 2.214 . S
N934 C932 1.325 . S
N934 C933 1.261 . S
C935 H905 0.931 . S
C935 C932 1.357 . S
C935 C936 1.312 . S
C936 H907 0.930 . S
C936 C931 1.261 . S
C936 C935 1.312 . S
C937 O909 1.214 . S
C937 O917 1.234 . S
C938 H910 0.929 . S
C938 C941 1.391 . S
C938 C943 1.391 . S
C939 H911 0.929 . S
C939 C940 1.390 . S
C939 N942 1.391 . S
C940 H912 0.930 . S
C940 C939 1.390 . S
C940 C941 1.392 . S
C941 H913 0.929 . S
C941 C938 1.391 . S
C941 C940 1.392 . S
N942 Co886 2.257 . S
N942 C939 1.391 . S
N942 C943 1.388 . S
C943 H914 0.930 . S
C943 C938 1.391 . S
C943 N942 1.388 . S
H944 C952 0.929 . S
H945 C954 0.930 . S
H946 C956 0.930 . S
H947 C959 0.929 . S
H948 C962 0.930 . S
H949 C964 0.960 . S
H950 C964 0.960 . S
H951 C964 0.960 . S
C952 H944 0.929 . S
C952 C953 1.377 1_556 S
C952 C954 1.384 . S
C953 C952 1.377 1_554 S
C953 C959 1.390 . S
C954 H945 0.930 . S
C954 C952 1.384 . S
C954 C955 1.372 1_556 S
C955 C954 1.372 1_554 S
C955 C956 1.400 . S
C955 C960 1.490 . S
C956 H946 0.930 . S
C956 C955 1.400 . S
C956 C959 1.386 . S
H957 C973 0.930 . S
H958 C974 0.931 . S
C959 H947 0.929 . S
C959 C953 1.390 . S
C959 C956 1.386 . S
C960 C955 1.490 . S
C960 C962 1.395 . S
C960 C963 1.403 1_554 S
H961 C967 0.930 . S
C962 H948 0.930 . S
C962 C960 1.395 . S
C962 C965 1.403 . S
C963 C960 1.403 1_556 S
C963 C964 1.524 . S
C963 C967 1.400 . S
C964 H949 0.960 . S
C964 H950 0.960 . S
C964 H951 0.960 . S
C964 C963 1.524 . S
C965 C962 1.403 . S
C965 C966 1.392 . S
C965 C969 1.495 . S
C966 C965 1.392 . S
C966 C967 1.385 1_554 S
C966 C968 1.478 . S
C967 H961 0.930 . S
C967 C963 1.400 . S
C967 C966 1.385 1_556 S
C968 C966 1.478 . S
C968 C970 1.381 . S
C968 C974 1.383 . S
C969 C965 1.495 . S
C969 H975 0.959 . S
C969 H976 0.961 . S
C969 H977 0.960 . S
C970 C968 1.381 . S
C970 C971 1.394 . S
C970 H978 0.930 1_554 S
C971 C970 1.394 . S
C971 C972 1.383 . S
C971 H979 0.929 1_554 S
C972 C971 1.383 . S
C972 C973 1.377 . S
C973 H957 0.930 . S
C973 C972 1.377 . S
C973 C974 1.379 . S
C974 H958 0.931 . S
C974 C968 1.383 . S
C974 C973 1.379 . S
H975 C969 0.959 . S
H976 C969 0.961 . S
H977 C969 0.960 . S
H978 C970 0.930 1_556 S
H979 C971 0.929 1_556 S
H980 C988 0.929 . S
H981 C990 0.930 . S
H982 C992 0.930 . S
H983 C995 0.929 . S
H984 C998 0.930 . S
H985 C1000 0.960 . S
H986 C1000 0.960 . S
H987 C1000 0.960 . S
C988 H980 0.929 . S
C988 C989 1.377 1_556 S
C988 C990 1.384 . S
C989 C988 1.377 1_554 S
C989 C995 1.390 . S
C990 H981 0.930 . S
C990 C988 1.384 . S
C990 C991 1.372 1_556 S
C991 C990 1.372 1_554 S
C991 C992 1.400 . S
C991 C996 1.490 . S
C992 H982 0.930 . S
C992 C991 1.400 . S
C992 C995 1.386 . S
H993 C1009 0.930 . S
H994 C1010 0.931 . S
C995 H983 0.929 . S
C995 C989 1.390 . S
C995 C992 1.386 . S
C996 C991 1.490 . S
C996 C998 1.395 1_554 S
C996 C999 1.403 . S
H997 C1003 0.930 . S
C998 H984 0.930 . S
C998 C996 1.395 1_556 S
C998 C1001 1.403 . S
C999 C996 1.403 . S
C999 C1000 1.524 . S
C999 C1003 1.400 . S
C1000 H985 0.960 . S
C1000 H986 0.960 . S
C1000 H987 0.960 . S
C1000 C999 1.524 . S
C1001 C998 1.403 . S
C1001 C1002 1.392 1_556 S
C1001 C1005 1.495 . S
C1002 C1001 1.392 1_554 S
C1002 C1003 1.385 . S
C1002 C1004 1.478 . S
C1003 H997 0.930 . S
C1003 C999 1.400 . S
C1003 C1002 1.385 . S
C1004 C1002 1.478 . S
C1004 C1006 1.381 1_554 S
C1004 C1010 1.383 . S
C1005 C1001 1.495 . S
C1005 H1011 0.959 . S
C1005 H1012 0.961 . S
C1005 H1013 0.960 . S
C1006 C1004 1.381 1_556 S
C1006 C1007 1.394 . S
C1006 H1014 0.930 . S
C1007 C1006 1.394 . S
C1007 C1008 1.383 1_556 S
C1007 H1015 0.929 . S
C1008 C1007 1.383 1_554 S
C1008 C1009 1.377 . S
C1009 H993 0.930 . S
C1009 C1008 1.377 . S
C1009 C1010 1.379 . S
C1010 H994 0.931 . S
C1010 C1004 1.383 . S
C1010 C1009 1.379 . S
H1011 C1005 0.959 . S
H1012 C1005 0.961 . S
H1013 C1005 0.960 . S
H1014 C1006 0.930 . S
H1015 C1007 0.929 . S
H1016 C1024 0.927 1_556 S
H1017 C1026 0.930 1_556 S
H1018 C1028 0.930 . S
H1019 C1031 0.929 . S
H1020 C1034 0.930 . S
H1021 C1036 0.960 . S
H1022 C1036 0.960 . S
H1023 C1036 0.960 . S
C1024 H1016 0.927 1_554 S
C1024 C1025 1.380 . S
C1024 C1026 1.384 . S
C1025 C1024 1.380 . S
C1025 C1031 1.390 . S
C1026 H1017 0.930 1_554 S
C1026 C1024 1.384 . S
C1026 C1027 1.372 . S
C1027 C1026 1.372 . S
C1027 C1028 1.400 . S
C1027 C1032 1.490 . S
C1028 H1018 0.930 . S
C1028 C1027 1.400 . S
C1028 C1031 1.386 . S
H1029 C1045 0.930 . S
H1030 C1046 0.931 . S
C1031 H1019 0.929 . S
C1031 C1025 1.390 . S
C1031 C1028 1.386 . S
C1032 C1027 1.490 . S
C1032 C1034 1.395 . S
C1032 C1035 1.403 1_554 S
H1033 C1039 0.930 . S
C1034 H1020 0.930 . S
C1034 C1032 1.395 . S
C1034 C1037 1.403 . S
C1035 C1032 1.403 1_556 S
C1035 C1036 1.524 . S
C1035 C1039 1.400 . S
C1036 H1021 0.960 . S
C1036 H1022 0.960 . S
C1036 H1023 0.960 . S
C1036 C1035 1.524 . S
C1037 C1034 1.403 . S
C1037 C1038 1.392 . S
C1037 C1041 1.495 . S
C1038 C1037 1.392 . S
C1038 C1039 1.385 1_554 S
C1038 C1040 1.478 . S
C1039 H1033 0.930 . S
C1039 C1035 1.400 . S
C1039 C1038 1.385 1_556 S
C1040 C1038 1.478 . S
C1040 C1042 1.381 . S
C1040 C1046 1.383 . S
C1041 C1037 1.495 . S
C1041 H1047 0.959 . S
C1041 H1048 0.961 . S
C1041 H1049 0.960 . S
C1042 C1040 1.381 . S
C1042 C1043 1.394 . S
C1042 H1050 0.930 . S
C1043 C1042 1.394 . S
C1043 C1044 1.383 . S
C1043 H1051 0.929 . S
C1044 C1043 1.383 . S
C1044 C1045 1.377 . S
C1045 H1029 0.930 . S
C1045 C1044 1.377 . S
C1045 C1046 1.379 . S
C1046 H1030 0.931 . S
C1046 C1040 1.383 . S
C1046 C1045 1.379 . S
H1047 C1041 0.959 . S
H1048 C1041 0.961 . S
H1049 C1041 0.960 . S
H1050 C1042 0.930 . S
H1051 C1043 0.929 . S
H1052 C1060 0.929 . S
H1053 C1062 0.930 . S
H1054 C1064 0.930 . S
H1055 C1067 0.929 . S
H1056 C1070 0.930 . S
H1057 C1072 0.960 . S
H1058 C1072 0.960 . S
H1059 C1072 0.960 . S
C1060 H1052 0.929 . S
C1060 C1061 1.377 . S
C1060 C1062 1.384 . S
C1061 C1060 1.377 . S
C1061 C1067 1.390 1_554 S
C1062 H1053 0.930 . S
C1062 C1060 1.384 . S
C1062 C1063 1.372 . S
C1063 C1062 1.372 . S
C1063 C1064 1.400 1_554 S
C1063 C1068 1.490 . S
C1064 H1054 0.930 . S
C1064 C1063 1.400 1_556 S
C1064 C1067 1.386 . S
H1065 C1081 0.926 1_556 S
H1066 C1082 0.931 . S
C1067 H1055 0.929 . S
C1067 C1061 1.390 1_556 S
C1067 C1064 1.386 . S
C1068 C1063 1.490 . S
C1068 C1070 1.395 . S
C1068 C1071 1.403 1_554 S
H1069 C1075 0.930 . S
C1070 H1056 0.930 . S
C1070 C1068 1.395 . S
C1070 C1073 1.403 . S
C1071 C1068 1.403 1_556 S
C1071 C1072 1.524 . S
C1071 C1075 1.400 . S
C1072 H1057 0.960 . S
C1072 H1058 0.960 . S
C1072 H1059 0.960 . S
C1072 C1071 1.524 . S
C1073 C1070 1.403 . S
C1073 C1074 1.392 . S
C1073 C1077 1.495 . S
C1074 C1073 1.392 . S
C1074 C1075 1.385 1_554 S
C1074 C1076 1.478 . S
C1075 H1069 0.930 . S
C1075 C1071 1.400 . S
C1075 C1074 1.385 1_556 S
C1076 C1074 1.478 . S
C1076 C1078 1.381 . S
C1076 C1082 1.383 . S
C1077 C1073 1.495 . S
C1077 H1083 0.959 . S
C1077 H1084 0.961 . S
C1077 H1085 0.960 . S
C1078 C1076 1.381 . S
C1078 C1079 1.394 . S
C1078 H1086 0.930 . S
C1079 C1078 1.394 . S
C1079 C1080 1.383 . S
C1079 H1087 0.929 . S
C1080 C1079 1.383 . S
C1080 C1081 1.377 . S
C1081 H1065 0.926 1_554 S
C1081 C1080 1.377 . S
C1081 C1082 1.379 . S
C1082 H1066 0.931 . S
C1082 C1076 1.383 . S
C1082 C1081 1.379 . S
H1083 C1077 0.959 . S
H1084 C1077 0.961 . S
H1085 C1077 0.960 . S
H1086 C1078 0.930 . S
H1087 C1079 0.929 . S
H1088 C1096 0.929 . S
H1089 C1098 0.930 . S
H1090 C1100 0.930 . S
H1091 C1103 0.929 . S
H1092 C1106 0.930 . S
H1093 C1108 0.960 . S
H1094 C1108 0.960 . S
H1095 C1108 0.960 . S
C1096 H1088 0.929 . S
C1096 C1097 1.377 . S
C1096 C1098 1.384 . S
C1097 C1096 1.377 . S
C1097 C1103 1.390 . S
C1098 H1089 0.930 . S
C1098 C1096 1.384 . S
C1098 C1099 1.372 . S
C1099 C1098 1.372 . S
C1099 C1100 1.400 . S
C1099 C1104 1.490 . S
C1100 H1090 0.930 . S
C1100 C1099 1.400 . S
C1100 C1103 1.386 . S
H1101 C1117 0.930 . S
H1102 C1118 0.931 . S
C1103 H1091 0.929 . S
C1103 C1097 1.390 . S
C1103 C1100 1.386 . S
C1104 C1099 1.490 . S
C1104 C1106 1.395 . S
C1104 C1107 1.403 . S
H1105 C1111 0.930 . S
C1106 H1092 0.930 . S
C1106 C1104 1.395 . S
C1106 C1109 1.403 1_545 S
C1107 C1104 1.403 . S
C1107 C1108 1.524 . S
C1107 C1111 1.400 1_545 S
C1108 H1093 0.960 . S
C1108 H1094 0.960 . S
C1108 H1095 0.960 . S
C1108 C1107 1.524 . S
C1109 C1106 1.403 1_565 S
C1109 C1110 1.392 . S
C1109 C1113 1.495 . S
C1110 C1109 1.392 . S
C1110 C1111 1.385 . S
C1110 C1112 1.478 . S
C1111 H1105 0.930 . S
C1111 C1107 1.400 1_565 S
C1111 C1110 1.385 . S
C1112 C1110 1.478 . S
C1112 C1114 1.381 . S
C1112 C1118 1.383 . S
C1113 C1109 1.495 . S
C1113 H1119 0.959 . S
C1113 H1120 0.961 . S
C1113 H1121 0.960 . S
C1114 C1112 1.381 . S
C1114 C1115 1.394 . S
C1114 H1122 0.930 . S
C1115 C1114 1.394 . S
C1115 C1116 1.383 . S
C1115 H1123 0.929 . S
C1116 C1115 1.383 . S
C1116 C1117 1.377 . S
C1117 H1101 0.930 . S
C1117 C1116 1.377 . S
C1117 C1118 1.379 . S
C1118 H1102 0.931 . S
C1118 C1112 1.383 . S
C1118 C1117 1.379 . S
H1119 C1113 0.959 . S
H1120 C1113 0.961 . S
H1121 C1113 0.960 . S
H1122 C1114 0.930 . S
H1123 C1115 0.929 . S
H1124 C1132 0.929 . S
H1125 C1134 0.930 . S
H1126 C1136 0.930 . S
H1127 C1139 0.929 . S
H1128 C1142 0.930 . S
H1129 C1144 0.960 . S
H1130 C1144 0.960 . S
H1131 C1144 0.960 . S
C1132 H1124 0.929 . S
C1132 C1133 1.377 . S
C1132 C1134 1.384 . S
C1133 C1132 1.377 . S
C1133 C1139 1.390 . S
C1134 H1125 0.930 . S
C1134 C1132 1.384 . S
C1134 C1135 1.372 . S
C1135 C1134 1.372 . S
C1135 C1136 1.400 . S
C1135 C1140 1.490 . S
C1136 H1126 0.930 . S
C1136 C1135 1.400 . S
C1136 C1139 1.386 . S
H1137 C1153 0.930 . S
H1138 C1154 0.931 . S
C1139 H1127 0.929 . S
C1139 C1133 1.390 . S
C1139 C1136 1.386 . S
C1140 C1135 1.490 . S
C1140 C1142 1.395 . S
C1140 C1143 1.403 . S
H1141 C1147 0.930 . S
C1142 H1128 0.930 . S
C1142 C1140 1.395 . S
C1142 C1145 1.403 1_655 S
C1143 C1140 1.403 . S
C1143 C1144 1.524 . S
C1143 C1147 1.400 1_655 S
C1144 H1129 0.960 . S
C1144 H1130 0.960 . S
C1144 H1131 0.960 . S
C1144 C1143 1.524 . S
C1145 C1142 1.403 1_455 S
C1145 C1146 1.392 . S
C1145 C1149 1.495 . S
C1146 C1145 1.392 . S
C1146 C1147 1.385 . S
C1146 C1148 1.478 . S
C1147 H1141 0.930 . S
C1147 C1143 1.400 1_455 S
C1147 C1146 1.385 . S
C1148 C1146 1.478 . S
C1148 C1150 1.381 . S
C1148 C1154 1.383 . S
C1149 C1145 1.495 . S
C1149 H1155 0.959 . S
C1149 H1156 0.961 . S
C1149 H1157 0.960 . S
C1150 C1148 1.381 . S
C1150 C1151 1.394 . S
C1150 H1158 0.930 . S
C1151 C1150 1.394 . S
C1151 C1152 1.383 . S
C1151 H1159 0.929 . S
C1152 C1151 1.383 . S
C1152 C1153 1.377 . S
C1153 H1137 0.930 . S
C1153 C1152 1.377 . S
C1153 C1154 1.379 . S
C1154 H1138 0.931 . S
C1154 C1148 1.383 . S
C1154 C1153 1.379 . S
H1155 C1149 0.959 . S
H1156 C1149 0.961 . S
H1157 C1149 0.960 . S
H1158 C1150 0.930 . S
H1159 C1151 0.929 . S
H1160 C1168 0.929 . S
H1161 C1170 0.930 . S
H1162 C1172 0.930 . S
H1163 C1175 0.929 . S
H1164 C1178 0.930 . S
H1165 C1180 0.960 . S
H1166 C1180 0.960 . S
H1167 C1180 0.960 . S
C1168 H1160 0.929 . S
C1168 C1169 1.377 . S
C1168 C1170 1.384 . S
C1169 C1168 1.377 . S
C1169 C1175 1.390 . S
C1170 H1161 0.930 . S
C1170 C1168 1.384 . S
C1170 C1171 1.372 . S
C1171 C1170 1.372 . S
C1171 C1172 1.400 . S
C1171 C1176 1.490 . S
C1172 H1162 0.930 . S
C1172 C1171 1.400 . S
C1172 C1175 1.386 . S
H1173 C1189 0.930 . S
H1174 C1190 0.931 . S
C1175 H1163 0.929 . S
C1175 C1169 1.390 . S
C1175 C1172 1.386 . S
C1176 C1171 1.490 . S
C1176 C1178 1.395 . S
C1176 C1179 1.403 . S
H1177 C1183 0.930 . S
C1178 H1164 0.930 . S
C1178 C1176 1.395 . S
C1178 C1181 1.403 1_545 S
C1179 C1176 1.403 . S
C1179 C1180 1.524 . S
C1179 C1183 1.400 1_545 S
C1180 H1165 0.960 . S
C1180 H1166 0.960 . S
C1180 H1167 0.960 . S
C1180 C1179 1.524 . S
C1181 C1178 1.403 1_565 S
C1181 C1182 1.392 . S
C1181 C1185 1.495 . S
C1182 C1181 1.392 . S
C1182 C1183 1.385 . S
C1182 C1184 1.478 . S
C1183 H1177 0.930 . S
C1183 C1179 1.400 1_565 S
C1183 C1182 1.385 . S
C1184 C1182 1.478 . S
C1184 C1186 1.381 . S
C1184 C1190 1.383 . S
C1185 C1181 1.495 . S
C1185 H1191 0.959 . S
C1185 H1192 0.961 . S
C1185 H1193 0.960 . S
C1186 C1184 1.381 . S
C1186 C1187 1.394 . S
C1186 H1194 0.930 . S
C1187 C1186 1.394 . S
C1187 C1188 1.383 . S
C1187 H1195 0.929 . S
C1188 C1187 1.383 . S
C1188 C1189 1.377 . S
C1189 H1173 0.930 . S
C1189 C1188 1.377 . S
C1189 C1190 1.379 . S
C1190 H1174 0.931 . S
C1190 C1184 1.383 . S
C1190 C1189 1.379 . S
H1191 C1185 0.959 . S
H1192 C1185 0.961 . S
H1193 C1185 0.960 . S
H1194 C1186 0.930 . S
H1195 C1187 0.929 . S
H1196 C1204 0.929 . S
H1197 C1206 0.930 . S
H1198 C1208 0.930 . S
H1199 C1211 0.929 . S
H1200 C1214 0.930 . S
H1201 C1216 0.960 . S
H1202 C1216 0.960 . S
H1203 C1216 0.960 . S
C1204 H1196 0.929 . S
C1204 C1205 1.377 . S
C1204 C1206 1.384 . S
C1205 C1204 1.377 . S
C1205 C1211 1.390 . S
C1206 H1197 0.930 . S
C1206 C1204 1.384 . S
C1206 C1207 1.372 . S
C1207 C1206 1.372 . S
C1207 C1208 1.400 . S
C1207 C1212 1.490 . S
C1208 H1198 0.930 . S
C1208 C1207 1.400 . S
C1208 C1211 1.386 . S
H1209 C1225 0.930 . S
H1210 C1226 0.931 . S
C1211 H1199 0.929 . S
C1211 C1205 1.390 . S
C1211 C1208 1.386 . S
C1212 C1207 1.490 . S
C1212 C1214 1.395 . S
C1212 C1215 1.403 . S
H1213 C1219 0.930 . S
C1214 H1200 0.930 . S
C1214 C1212 1.395 . S
C1214 C1217 1.403 1_455 S
C1215 C1212 1.403 . S
C1215 C1216 1.524 . S
C1215 C1219 1.400 1_455 S
C1216 H1201 0.960 . S
C1216 H1202 0.960 . S
C1216 H1203 0.960 . S
C1216 C1215 1.524 . S
C1217 C1214 1.403 1_655 S
C1217 C1218 1.392 . S
C1217 C1221 1.495 . S
C1218 C1217 1.392 . S
C1218 C1219 1.385 . S
C1218 C1220 1.478 . S
C1219 H1213 0.930 . S
C1219 C1215 1.400 1_655 S
C1219 C1218 1.385 . S
C1220 C1218 1.478 . S
C1220 C1222 1.381 . S
C1220 C1226 1.383 . S
C1221 C1217 1.495 . S
C1221 H1227 0.959 . S
C1221 H1228 0.961 . S
C1221 H1229 0.960 . S
C1222 C1220 1.381 . S
C1222 C1223 1.394 . S
C1222 H1230 0.930 . S
C1223 C1222 1.394 . S
C1223 C1224 1.383 . S
C1223 H1231 0.929 . S
C1224 C1223 1.383 . S
C1224 C1225 1.377 . S
C1225 H1209 0.930 . S
C1225 C1224 1.377 . S
C1225 C1226 1.379 . S
C1226 H1210 0.931 . S
C1226 C1220 1.383 . S
C1226 C1225 1.379 . S
H1227 C1221 0.959 . S
H1228 C1221 0.961 . S
H1229 C1221 0.960 . S
H1230 C1222 0.930 . S
H1231 C1223 0.929 . S
H1232 C1240 0.929 . S
H1233 C1242 0.930 . S
H1234 C1244 0.930 . S
H1235 C1247 0.929 . S
H1236 C1250 0.930 . S
H1237 C1252 0.960 . S
H1238 C1252 0.960 . S
H1239 C1252 0.960 . S
C1240 H1232 0.929 . S
C1240 C1241 1.377 1_556 S
C1240 C1242 1.384 . S
C1241 C1240 1.377 1_554 S
C1241 C1247 1.390 . S
C1242 H1233 0.930 . S
C1242 C1240 1.384 . S
C1242 C1243 1.372 1_556 S
C1243 C1242 1.372 1_554 S
C1243 C1244 1.400 . S
C1243 C1248 1.490 . S
C1244 H1234 0.930 . S
C1244 C1243 1.400 . S
C1244 C1247 1.386 . S
H1245 C1261 0.930 . S
H1246 C1262 0.931 . S
C1247 H1235 0.929 . S
C1247 C1241 1.390 . S
C1247 C1244 1.386 . S
C1248 C1243 1.490 . S
C1248 C1250 1.395 1_554 S
C1248 C1251 1.403 . S
H1249 C1255 0.930 . S
C1250 H1236 0.930 . S
C1250 C1248 1.395 1_556 S
C1250 C1253 1.403 . S
C1251 C1248 1.403 . S
C1251 C1252 1.524 . S
C1251 C1255 1.400 . S
C1252 H1237 0.960 . S
C1252 H1238 0.960 . S
C1252 H1239 0.960 . S
C1252 C1251 1.524 . S
C1253 C1250 1.403 . S
C1253 C1254 1.392 1_556 S
C1253 C1257 1.495 . S
C1254 C1253 1.392 1_554 S
C1254 C1255 1.385 . S
C1254 C1256 1.478 . S
C1255 H1249 0.930 . S
C1255 C1251 1.400 . S
C1255 C1254 1.385 . S
C1256 C1254 1.478 . S
C1256 C1258 1.381 1_554 S
C1256 C1262 1.383 . S
C1257 C1253 1.495 . S
C1257 H1263 0.959 . S
C1257 H1264 0.961 . S
C1257 H1265 0.960 . S
C1258 C1256 1.381 1_556 S
C1258 C1259 1.394 . S
C1258 H1266 0.930 . S
C1259 C1258 1.394 . S
C1259 C1260 1.383 1_556 S
C1259 H1267 0.929 . S
C1260 C1259 1.383 1_554 S
C1260 C1261 1.377 . S
C1261 H1245 0.930 . S
C1261 C1260 1.377 . S
C1261 C1262 1.379 . S
C1262 H1246 0.931 . S
C1262 C1256 1.383 . S
C1262 C1261 1.379 . S
H1263 C1257 0.959 . S
H1264 C1257 0.961 . S
H1265 C1257 0.960 . S
H1266 C1258 0.930 . S
H1267 C1259 0.929 . S
H1268 C1276 0.929 . S
H1269 C1278 0.930 . S
H1270 C1280 0.930 . S
H1271 C1283 0.929 . S
H1272 C1286 0.930 . S
H1273 C1288 0.960 . S
H1274 C1288 0.960 . S
H1275 C1288 0.958 . S
C1276 H1268 0.929 . S
C1276 C1277 1.377 . S
C1276 C1278 1.384 . S
C1277 C1276 1.377 . S
C1277 C1283 1.390 1_554 S
C1278 H1269 0.930 . S
C1278 C1276 1.384 . S
C1278 C1279 1.372 . S
C1279 C1278 1.372 . S
C1279 C1280 1.400 1_554 S
C1279 C1284 1.490 . S
C1280 H1270 0.930 . S
C1280 C1279 1.400 1_556 S
C1280 C1283 1.386 . S
H1281 C1297 0.930 . S
H1282 C1298 0.931 . S
C1283 H1271 0.929 . S
C1283 C1277 1.390 1_556 S
C1283 C1280 1.386 . S
C1284 C1279 1.490 . S
C1284 C1286 1.395 . S
C1284 C1287 1.403 . S
H1285 C1291 0.930 . S
C1286 H1272 0.930 . S
C1286 C1284 1.395 . S
C1286 C1289 1.403 . S
C1287 C1284 1.403 . S
C1287 C1288 1.524 . S
C1287 C1291 1.400 . S
C1288 H1273 0.960 . S
C1288 H1274 0.960 . S
C1288 H1275 0.958 . S
C1288 C1287 1.524 . S
C1289 C1286 1.403 . S
C1289 C1290 1.392 . S
C1289 C1293 1.495 . S
C1290 C1289 1.392 . S
C1290 C1291 1.385 . S
C1290 C1292 1.478 . S
C1291 H1285 0.930 . S
C1291 C1287 1.400 . S
C1291 C1290 1.385 . S
C1292 C1290 1.478 . S
C1292 C1294 1.381 . S
C1292 C1298 1.383 1_554 S
C1293 C1289 1.495 . S
C1293 H1299 0.959 . S
C1293 H1300 0.961 1_554 S
C1293 H1301 0.960 . S
C1294 C1292 1.381 . S
C1294 C1295 1.394 . S
C1294 H1302 0.930 . S
C1295 C1294 1.394 . S
C1295 C1296 1.383 . S
C1295 H1303 0.929 . S
C1296 C1295 1.383 . S
C1296 C1297 1.377 1_554 S
C1297 H1281 0.930 . S
C1297 C1296 1.377 1_556 S
C1297 C1298 1.379 . S
C1298 H1282 0.931 . S
C1298 C1292 1.383 1_556 S
C1298 C1297 1.379 . S
H1299 C1293 0.959 . S
H1300 C1293 0.961 1_556 S
H1301 C1293 0.960 . S
H1302 C1294 0.930 . S
H1303 C1295 0.929 . S
H1304 C1312 0.929 . S
H1305 C1314 0.930 . S
H1306 C1316 0.930 . S
H1307 C1319 0.929 . S
H1308 C1322 0.930 . S
H1309 C1324 0.960 . S
H1310 C1324 0.960 . S
H1311 C1324 0.960 . S
C1312 H1304 0.929 . S
C1312 C1313 1.377 1_556 S
C1312 C1314 1.384 . S
C1313 C1312 1.377 1_554 S
C1313 C1319 1.390 . S
C1314 H1305 0.930 . S
C1314 C1312 1.384 . S
C1314 C1315 1.372 1_556 S
C1315 C1314 1.372 1_554 S
C1315 C1316 1.400 . S
C1315 C1320 1.490 . S
C1316 H1306 0.930 . S
C1316 C1315 1.400 . S
C1316 C1319 1.386 . S
H1317 C1333 0.930 . S
H1318 C1334 0.931 . S
C1319 H1307 0.929 . S
C1319 C1313 1.390 . S
C1319 C1316 1.386 . S
C1320 C1315 1.490 . S
C1320 C1322 1.395 1_554 S
C1320 C1323 1.403 . S
H1321 C1327 0.930 . S
C1322 H1308 0.930 . S
C1322 C1320 1.395 1_556 S
C1322 C1325 1.403 . S
C1323 C1320 1.403 . S
C1323 C1324 1.524 . S
C1323 C1327 1.400 . S
C1324 H1309 0.960 . S
C1324 H1310 0.960 . S
C1324 H1311 0.960 . S
C1324 C1323 1.524 . S
C1325 C1322 1.403 . S
C1325 C1326 1.392 1_556 S
C1325 C1329 1.495 . S
C1326 C1325 1.392 1_554 S
C1326 C1327 1.385 . S
C1326 C1328 1.478 . S
C1327 H1321 0.930 . S
C1327 C1323 1.400 . S
C1327 C1326 1.385 . S
C1328 C1326 1.478 . S
C1328 C1330 1.381 1_554 S
C1328 C1334 1.383 . S
C1329 C1325 1.495 . S
C1329 H1335 0.959 . S
C1329 H1336 0.961 . S
C1329 H1337 0.960 . S
C1330 C1328 1.381 1_556 S
C1330 C1331 1.394 . S
C1330 H1338 0.930 . S
C1331 C1330 1.394 . S
C1331 C1332 1.383 1_556 S
C1331 H1339 0.929 . S
C1332 C1331 1.383 1_554 S
C1332 C1333 1.377 . S
C1333 H1317 0.930 . S
C1333 C1332 1.377 . S
C1333 C1334 1.379 . S
C1334 H1318 0.931 . S
C1334 C1328 1.383 . S
C1334 C1333 1.379 . S
H1335 C1329 0.959 . S
H1336 C1329 0.961 . S
H1337 C1329 0.960 . S
H1338 C1330 0.930 . S
H1339 C1331 0.929 . S
H1340 C1348 0.929 . S
H1341 C1350 0.930 . S
H1342 C1352 0.930 . S
H1343 C1355 0.929 . S
H1344 C1358 0.930 . S
H1345 C1360 0.960 . S
H1346 C1360 0.960 1_556 S
H1347 C1360 0.960 . S
C1348 H1340 0.929 . S
C1348 C1349 1.377 1_556 S
C1348 C1350 1.384 . S
C1349 C1348 1.377 1_554 S
C1349 C1355 1.390 . S
C1350 H1341 0.930 . S
C1350 C1348 1.384 . S
C1350 C1351 1.372 1_556 S
C1351 C1350 1.372 1_554 S
C1351 C1352 1.400 . S
C1351 C1356 1.490 . S
C1352 H1342 0.930 . S
C1352 C1351 1.400 . S
C1352 C1355 1.386 . S
H1353 C1369 0.930 . S
H1354 C1370 0.931 . S
C1355 H1343 0.929 . S
C1355 C1349 1.390 . S
C1355 C1352 1.386 . S
C1356 C1351 1.490 . S
C1356 C1358 1.395 . S
C1356 C1359 1.403 . S
H1357 C1363 0.930 . S
C1358 H1344 0.930 . S
C1358 C1356 1.395 . S
C1358 C1361 1.403 . S
C1359 C1356 1.403 . S
C1359 C1360 1.524 . S
C1359 C1363 1.400 . S
C1360 H1345 0.960 . S
C1360 H1346 0.960 1_554 S
C1360 H1347 0.960 . S
C1360 C1359 1.524 . S
C1361 C1358 1.403 . S
C1361 C1362 1.392 . S
C1361 C1365 1.495 . S
C1362 C1361 1.392 . S
C1362 C1363 1.385 . S
C1362 C1364 1.478 . S
C1363 H1357 0.930 . S
C1363 C1359 1.400 . S
C1363 C1362 1.385 . S
C1364 C1362 1.478 . S
C1364 C1366 1.381 1_554 S
C1364 C1370 1.383 . S
C1365 C1361 1.495 . S
C1365 H1371 0.959 . S
C1365 H1372 0.961 . S
C1365 H1373 0.960 1_554 S
C1366 C1364 1.381 1_556 S
C1366 C1367 1.394 . S
C1366 H1374 0.930 . S
C1367 C1366 1.394 . S
C1367 C1368 1.383 1_556 S
C1367 H1375 0.929 . S
C1368 C1367 1.383 1_554 S
C1368 C1369 1.377 . S
C1369 H1353 0.930 . S
C1369 C1368 1.377 . S
C1369 C1370 1.379 . S
C1370 H1354 0.931 . S
C1370 C1364 1.383 . S
C1370 C1369 1.379 . S
H1371 C1365 0.959 . S
H1372 C1365 0.961 . S
H1373 C1365 0.960 1_556 S
H1374 C1366 0.930 . S
H1375 C1367 0.929 . S
H1376 C1384 0.929 . S
H1377 C1386 0.930 . S
H1378 C1388 0.930 . S
H1379 C1391 0.929 . S
H1380 C1394 0.930 . S
H1381 C1396 0.960 . S
H1382 C1396 0.960 . S
H1383 C1396 0.960 . S
C1384 H1376 0.929 . S
C1384 C1385 1.377 . S
C1384 C1386 1.384 . S
C1385 C1384 1.377 . S
C1385 C1391 1.390 . S
C1386 H1377 0.930 . S
C1386 C1384 1.384 . S
C1386 C1387 1.372 . S
C1387 C1386 1.372 . S
C1387 C1388 1.400 . S
C1387 C1392 1.490 . S
C1388 H1378 0.930 . S
C1388 C1387 1.400 . S
C1388 C1391 1.386 . S
H1389 C1405 0.930 . S
H1390 C1406 0.931 . S
C1391 H1379 0.929 . S
C1391 C1385 1.390 . S
C1391 C1388 1.386 . S
C1392 C1387 1.490 . S
C1392 C1394 1.395 . S
C1392 C1395 1.403 . S
H1393 C1399 0.930 . S
C1394 H1380 0.930 . S
C1394 C1392 1.395 . S
C1394 C1397 1.403 . S
C1395 C1392 1.403 . S
C1395 C1396 1.524 . S
C1395 C1399 1.400 . S
C1396 H1381 0.960 . S
C1396 H1382 0.960 . S
C1396 H1383 0.960 . S
C1396 C1395 1.524 . S
C1397 C1394 1.403 . S
C1397 C1398 1.392 . S
C1397 C1401 1.495 . S
C1398 C1397 1.392 . S
C1398 C1399 1.385 . S
C1398 C1400 1.478 . S
C1399 H1393 0.930 . S
C1399 C1395 1.400 . S
C1399 C1398 1.385 . S
C1400 C1398 1.478 . S
C1400 C1402 1.381 . S
C1400 C1406 1.383 . S
C1401 C1397 1.495 . S
C1401 H1407 0.959 . S
C1401 H1408 0.961 . S
C1401 H1409 0.960 . S
C1402 C1400 1.381 . S
C1402 C1403 1.394 . S
C1402 H1410 0.930 . S
C1403 C1402 1.394 . S
C1403 C1404 1.383 . S
C1403 H1411 0.929 . S
C1404 C1403 1.383 . S
C1404 C1405 1.377 . S
C1405 H1389 0.930 . S
C1405 C1404 1.377 . S
C1405 C1406 1.379 . S
C1406 H1390 0.931 . S
C1406 C1400 1.383 . S
C1406 C1405 1.379 . S
H1407 C1401 0.959 . S
H1408 C1401 0.961 . S
H1409 C1401 0.960 . S
H1410 C1402 0.930 . S
H1411 C1403 0.929 . S
H1412 C1420 0.929 . S
H1413 C1422 0.930 . S
H1414 C1424 0.930 . S
H1415 C1427 0.929 . S
H1416 C1430 0.930 . S
H1417 C1432 0.960 . S
H1418 C1432 0.960 . S
H1419 C1432 0.960 . S
C1420 H1412 0.929 . S
C1420 C1421 1.377 . S
C1420 C1422 1.384 . S
C1421 C1420 1.377 . S
C1421 C1427 1.390 . S
C1422 H1413 0.930 . S
C1422 C1420 1.384 . S
C1422 C1423 1.372 . S
C1423 C1422 1.372 . S
C1423 C1424 1.400 . S
C1423 C1428 1.490 . S
C1424 H1414 0.930 . S
C1424 C1423 1.400 . S
C1424 C1427 1.386 . S
H1425 C1441 0.930 . S
H1426 C1442 0.931 . S
C1427 H1415 0.929 . S
C1427 C1421 1.390 . S
C1427 C1424 1.386 . S
C1428 C1423 1.490 . S
C1428 C1430 1.395 . S
C1428 C1431 1.403 . S
H1429 C1435 0.930 . S
C1430 H1416 0.930 . S
C1430 C1428 1.395 . S
C1430 C1433 1.403 . S
C1431 C1428 1.403 . S
C1431 C1432 1.524 . S
C1431 C1435 1.400 . S
C1432 H1417 0.960 . S
C1432 H1418 0.960 . S
C1432 H1419 0.960 . S
C1432 C1431 1.524 . S
C1433 C1430 1.403 . S
C1433 C1434 1.392 . S
C1433 C1437 1.495 . S
C1434 C1433 1.392 . S
C1434 C1435 1.385 . S
C1434 C1436 1.478 . S
C1435 H1429 0.930 . S
C1435 C1431 1.400 . S
C1435 C1434 1.385 . S
C1436 C1434 1.478 . S
C1436 C1438 1.381 . S
C1436 C1442 1.383 . S
C1437 C1433 1.495 . S
C1437 H1443 0.959 . S
C1437 H1444 0.961 . S
C1437 H1445 0.960 . S
C1438 C1436 1.381 . S
C1438 C1439 1.394 . S
C1438 H1446 0.930 . S
C1439 C1438 1.394 . S
C1439 C1440 1.383 . S
C1439 H1447 0.929 . S
C1440 C1439 1.383 . S
C1440 C1441 1.377 . S
C1441 H1425 0.930 . S
C1441 C1440 1.377 . S
C1441 C1442 1.379 . S
C1442 H1426 0.931 . S
C1442 C1436 1.383 . S
C1442 C1441 1.379 . S
H1443 C1437 0.959 . S
H1444 C1437 0.961 . S
H1445 C1437 0.960 . S
H1446 C1438 0.930 . S
H1447 C1439 0.929 . S
H1448 C1456 0.929 . S
H1449 C1458 0.930 . S
H1450 C1460 0.930 . S
H1451 C1463 0.929 . S
H1452 C1466 0.930 . S
H1453 C1468 0.960 . S
H1454 C1468 0.960 . S
H1455 C1468 0.960 . S
C1456 H1448 0.929 . S
C1456 C1457 1.377 . S
C1456 C1458 1.384 . S
C1457 C1456 1.377 . S
C1457 C1463 1.390 . S
C1458 H1449 0.930 . S
C1458 C1456 1.384 . S
C1458 C1459 1.372 . S
C1459 C1458 1.372 . S
C1459 C1460 1.400 . S
C1459 C1464 1.490 . S
C1460 H1450 0.930 . S
C1460 C1459 1.400 . S
C1460 C1463 1.386 . S
H1461 C1477 0.930 . S
H1462 C1478 0.931 . S
C1463 H1451 0.929 . S
C1463 C1457 1.390 . S
C1463 C1460 1.386 . S
C1464 C1459 1.490 . S
C1464 C1466 1.395 . S
C1464 C1467 1.403 . S
H1465 C1471 0.930 . S
C1466 H1452 0.930 . S
C1466 C1464 1.395 . S
C1466 C1469 1.403 . S
C1467 C1464 1.403 . S
C1467 C1468 1.524 . S
C1467 C1471 1.400 . S
C1468 H1453 0.960 . S
C1468 H1454 0.960 . S
C1468 H1455 0.960 . S
C1468 C1467 1.524 . S
C1469 C1466 1.403 . S
C1469 C1470 1.392 . S
C1469 C1473 1.495 . S
C1470 C1469 1.392 . S
C1470 C1471 1.385 . S
C1470 C1472 1.478 . S
C1471 H1465 0.930 . S
C1471 C1467 1.400 . S
C1471 C1470 1.385 . S
C1472 C1470 1.478 . S
C1472 C1474 1.381 . S
C1472 C1478 1.383 . S
C1473 C1469 1.495 . S
C1473 H1479 0.959 . S
C1473 H1480 0.961 . S
C1473 H1481 0.960 . S
C1474 C1472 1.381 . S
C1474 C1475 1.394 . S
C1474 H1482 0.930 . S
C1475 C1474 1.394 . S
C1475 C1476 1.383 . S
C1475 H1483 0.929 . S
C1476 C1475 1.383 . S
C1476 C1477 1.377 . S
C1477 H1461 0.930 . S
C1477 C1476 1.377 . S
C1477 C1478 1.379 . S
C1478 H1462 0.931 . S
C1478 C1472 1.383 . S
C1478 C1477 1.379 . S
H1479 C1473 0.959 . S
H1480 C1473 0.961 . S
H1481 C1473 0.960 . S
H1482 C1474 0.930 . S
H1483 C1475 0.929 . S
H1484 C1492 0.929 . S
H1485 C1494 0.930 . S
H1486 C1496 0.930 . S
H1487 C1499 0.929 . S
H1488 C1502 0.930 . S
H1489 C1504 0.960 . S
H1490 C1504 0.960 . S
H1491 C1504 0.960 . S
C1492 H1484 0.929 . S
C1492 C1493 1.377 . S
C1492 C1494 1.384 . S
C1493 C1492 1.377 . S
C1493 C1499 1.390 . S
C1494 H1485 0.930 . S
C1494 C1492 1.384 . S
C1494 C1495 1.372 . S
C1495 C1494 1.372 . S
C1495 C1496 1.400 . S
C1495 C1500 1.490 . S
C1496 H1486 0.930 . S
C1496 C1495 1.400 . S
C1496 C1499 1.386 . S
H1497 C1513 0.930 . S
H1498 C1514 0.931 . S
C1499 H1487 0.929 . S
C1499 C1493 1.390 . S
C1499 C1496 1.386 . S
C1500 C1495 1.490 . S
C1500 C1502 1.395 . S
C1500 C1503 1.403 . S
H1501 C1507 0.930 . S
C1502 H1488 0.930 . S
C1502 C1500 1.395 . S
C1502 C1505 1.403 . S
C1503 C1500 1.403 . S
C1503 C1504 1.524 . S
C1503 C1507 1.400 . S
C1504 H1489 0.960 . S
C1504 H1490 0.960 . S
C1504 H1491 0.960 . S
C1504 C1503 1.524 . S
C1505 C1502 1.403 . S
C1505 C1506 1.392 . S
C1505 C1509 1.495 . S
C1506 C1505 1.392 . S
C1506 C1507 1.385 . S
C1506 C1508 1.478 . S
C1507 H1501 0.930 . S
C1507 C1503 1.400 . S
C1507 C1506 1.385 . S
C1508 C1506 1.478 . S
C1508 C1510 1.381 . S
C1508 C1514 1.383 . S
C1509 C1505 1.495 . S
C1509 H1515 0.959 . S
C1509 H1516 0.961 . S
C1509 H1517 0.960 . S
C1510 C1508 1.381 . S
C1510 C1511 1.394 . S
C1510 H1518 0.930 . S
C1511 C1510 1.394 . S
C1511 C1512 1.383 . S
C1511 H1519 0.929 . S
C1512 C1511 1.383 . S
C1512 C1513 1.377 . S
C1513 H1497 0.930 . S
C1513 C1512 1.377 . S
C1513 C1514 1.379 . S
C1514 H1498 0.931 . S
C1514 C1508 1.383 . S
C1514 C1513 1.379 . S
H1515 C1509 0.959 . S
H1516 C1509 0.961 . S
H1517 C1509 0.960 . S
H1518 C1510 0.930 . S
H1519 C1511 0.929 . S
H1520 C1528 0.929 . S
H1521 C1530 0.930 . S
H1522 C1532 0.930 . S
H1523 C1535 0.929 . S
H1524 C1538 0.930 . S
H1525 C1540 0.960 . S
H1526 C1540 0.960 . S
H1527 C1540 0.960 . S
C1528 H1520 0.929 . S
C1528 C1529 1.377 . S
C1528 C1530 1.384 . S
C1529 C1528 1.377 . S
C1529 C1535 1.390 . S
C1530 H1521 0.930 . S
C1530 C1528 1.384 . S
C1530 C1531 1.372 . S
C1531 C1530 1.372 . S
C1531 C1532 1.400 . S
C1531 C1536 1.490 . S
C1532 H1522 0.930 . S
C1532 C1531 1.400 . S
C1532 C1535 1.386 . S
H1533 C1549 0.930 . S
H1534 C1550 0.931 . S
C1535 H1523 0.929 . S
C1535 C1529 1.390 . S
C1535 C1532 1.386 . S
C1536 C1531 1.490 . S
C1536 C1538 1.395 . S
C1536 C1539 1.403 . S
H1537 C1543 0.930 . S
C1538 H1524 0.930 . S
C1538 C1536 1.395 . S
C1538 C1541 1.403 . S
C1539 C1536 1.403 . S
C1539 C1540 1.524 . S
C1539 C1543 1.400 . S
C1540 H1525 0.960 . S
C1540 H1526 0.960 . S
C1540 H1527 0.960 . S
C1540 C1539 1.524 . S
C1541 C1538 1.403 . S
C1541 C1542 1.392 . S
C1541 C1545 1.495 . S
C1542 C1541 1.392 . S
C1542 C1543 1.385 . S
C1542 C1544 1.478 . S
C1543 H1537 0.930 . S
C1543 C1539 1.400 . S
C1543 C1542 1.385 . S
C1544 C1542 1.478 . S
C1544 C1546 1.381 . S
C1544 C1550 1.383 . S
C1545 C1541 1.495 . S
C1545 H1551 0.959 . S
C1545 H1552 0.961 . S
C1545 H1553 0.960 . S
C1546 C1544 1.381 . S
C1546 C1547 1.394 . S
C1546 H1554 0.930 . S
C1547 C1546 1.394 . S
C1547 C1548 1.383 . S
C1547 H1555 0.929 . S
C1548 C1547 1.383 . S
C1548 C1549 1.377 . S
C1549 H1533 0.930 . S
C1549 C1548 1.377 . S
C1549 C1550 1.379 . S
C1550 H1534 0.931 . S
C1550 C1544 1.383 . S
C1550 C1549 1.379 . S
H1551 C1545 0.959 . S
H1552 C1545 0.961 . S
H1553 C1545 0.960 . S
H1554 C1546 0.930 . S
H1555 C1547 0.929 . S
H1556 C1564 0.929 . S
H1557 C1566 0.930 . S
H1558 C1568 0.930 . S
H1559 C1571 0.929 . S
H1560 C1574 0.930 . S
H1561 C1576 0.960 . S
H1562 C1576 0.960 . S
H1563 C1576 0.960 . S
C1564 H1556 0.929 . S
C1564 C1565 1.377 . S
C1564 C1566 1.384 . S
C1565 C1564 1.377 . S
C1565 C1571 1.390 . S
C1566 H1557 0.930 . S
C1566 C1564 1.384 . S
C1566 C1567 1.372 . S
C1567 C1566 1.372 . S
C1567 C1568 1.400 . S
C1567 C1572 1.490 . S
C1568 H1558 0.930 . S
C1568 C1567 1.400 . S
C1568 C1571 1.386 . S
H1569 C1585 0.930 . S
H1570 C1586 0.931 . S
C1571 H1559 0.929 . S
C1571 C1565 1.390 . S
C1571 C1568 1.386 . S
C1572 C1567 1.490 . S
C1572 C1574 1.395 . S
C1572 C1575 1.403 . S
H1573 C1579 0.930 . S
C1574 H1560 0.930 . S
C1574 C1572 1.395 . S
C1574 C1577 1.403 . S
C1575 C1572 1.403 . S
C1575 C1576 1.524 . S
C1575 C1579 1.400 . S
C1576 H1561 0.960 . S
C1576 H1562 0.960 . S
C1576 H1563 0.960 . S
C1576 C1575 1.524 . S
C1577 C1574 1.403 . S
C1577 C1578 1.392 . S
C1577 C1581 1.495 . S
C1578 C1577 1.392 . S
C1578 C1579 1.385 . S
C1578 C1580 1.478 . S
C1579 H1573 0.930 . S
C1579 C1575 1.400 . S
C1579 C1578 1.385 . S
C1580 C1578 1.478 . S
C1580 C1582 1.381 . S
C1580 C1586 1.383 . S
C1581 C1577 1.495 . S
C1581 H1587 0.959 . S
C1581 H1588 0.961 . S
C1581 H1589 0.960 . S
C1582 C1580 1.381 . S
C1582 C1583 1.394 . S
C1582 H1590 0.930 . S
C1583 C1582 1.394 . S
C1583 C1584 1.383 . S
C1583 H1591 0.929 . S
C1584 C1583 1.383 . S
C1584 C1585 1.377 . S
C1585 H1569 0.930 . S
C1585 C1584 1.377 . S
C1585 C1586 1.379 . S
C1586 H1570 0.931 . S
C1586 C1580 1.383 . S
C1586 C1585 1.379 . S
H1587 C1581 0.959 . S
H1588 C1581 0.961 . S
H1589 C1581 0.960 . S
H1590 C1582 0.930 . S
H1591 C1583 0.929 . S
H1592 C1600 0.929 . S
H1593 C1602 0.930 . S
H1594 C1604 0.930 . S
H1595 C1607 0.929 . S
H1596 C1610 0.930 . S
H1597 C1612 0.960 . S
H1598 C1612 0.960 . S
H1599 C1612 0.960 . S
C1600 H1592 0.929 . S
C1600 C1601 1.377 . S
C1600 C1602 1.384 . S
C1601 C1600 1.377 . S
C1601 C1607 1.390 . S
C1602 H1593 0.930 . S
C1602 C1600 1.384 . S
C1602 C1603 1.372 . S
C1603 C1602 1.372 . S
C1603 C1604 1.400 . S
C1603 C1608 1.490 . S
C1604 H1594 0.930 . S
C1604 C1603 1.400 . S
C1604 C1607 1.386 . S
H1605 C1621 0.930 . S
H1606 C1622 0.931 . S
C1607 H1595 0.929 . S
C1607 C1601 1.390 . S
C1607 C1604 1.386 . S
C1608 C1603 1.490 . S
C1608 C1610 1.395 . S
C1608 C1611 1.403 . S
H1609 C1615 0.930 . S
C1610 H1596 0.930 . S
C1610 C1608 1.395 . S
C1610 C1613 1.403 . S
C1611 C1608 1.403 . S
C1611 C1612 1.524 . S
C1611 C1615 1.400 . S
C1612 H1597 0.960 . S
C1612 H1598 0.960 . S
C1612 H1599 0.960 . S
C1612 C1611 1.524 . S
C1613 C1610 1.403 . S
C1613 C1614 1.392 . S
C1613 C1617 1.495 . S
C1614 C1613 1.392 . S
C1614 C1615 1.385 . S
C1614 C1616 1.478 . S
C1615 H1609 0.930 . S
C1615 C1611 1.400 . S
C1615 C1614 1.385 . S
C1616 C1614 1.478 . S
C1616 C1618 1.381 . S
C1616 C1622 1.383 . S
C1617 C1613 1.495 . S
C1617 H1623 0.959 . S
C1617 H1624 0.961 . S
C1617 H1625 0.960 . S
C1618 C1616 1.381 . S
C1618 C1619 1.394 . S
C1618 H1626 0.930 . S
C1619 C1618 1.394 . S
C1619 C1620 1.383 . S
C1619 H1627 0.929 . S
C1620 C1619 1.383 . S
C1620 C1621 1.377 . S
C1621 H1605 0.930 . S
C1621 C1620 1.377 . S
C1621 C1622 1.379 . S
C1622 H1606 0.931 . S
C1622 C1616 1.383 . S
C1622 C1621 1.379 . S
H1623 C1617 0.959 . S
H1624 C1617 0.961 . S
H1625 C1617 0.960 . S
H1626 C1618 0.930 . S
H1627 C1619 0.929 . S
H1628 C1636 0.929 . S
H1629 C1638 0.930 . S
H1630 C1640 0.930 . S
H1631 C1643 0.929 . S
H1632 C1646 0.930 . S
H1633 C1648 0.960 . S
H1634 C1648 0.960 . S
H1635 C1648 0.960 . S
C1636 H1628 0.929 . S
C1636 C1637 1.377 . S
C1636 C1638 1.384 . S
C1637 C1636 1.377 . S
C1637 C1643 1.390 . S
C1638 H1629 0.930 . S
C1638 C1636 1.384 . S
C1638 C1639 1.372 . S
C1639 C1638 1.372 . S
C1639 C1640 1.400 . S
C1639 C1644 1.490 . S
C1640 H1630 0.930 . S
C1640 C1639 1.400 . S
C1640 C1643 1.386 . S
H1641 C1657 0.930 . S
H1642 C1658 0.931 . S
C1643 H1631 0.929 . S
C1643 C1637 1.390 . S
C1643 C1640 1.386 . S
C1644 C1639 1.490 . S
C1644 C1646 1.395 . S
C1644 C1647 1.403 . S
H1645 C1651 0.930 . S
C1646 H1632 0.930 . S
C1646 C1644 1.395 . S
C1646 C1649 1.403 . S
C1647 C1644 1.403 . S
C1647 C1648 1.524 . S
C1647 C1651 1.400 . S
C1648 H1633 0.960 . S
C1648 H1634 0.960 . S
C1648 H1635 0.960 . S
C1648 C1647 1.524 . S
C1649 C1646 1.403 . S
C1649 C1650 1.392 . S
C1649 C1653 1.495 . S
C1650 C1649 1.392 . S
C1650 C1651 1.385 . S
C1650 C1652 1.478 . S
C1651 H1645 0.930 . S
C1651 C1647 1.400 . S
C1651 C1650 1.385 . S
C1652 C1650 1.478 . S
C1652 C1654 1.381 . S
C1652 C1658 1.383 . S
C1653 C1649 1.495 . S
C1653 H1659 0.959 . S
C1653 H1660 0.961 . S
C1653 H1661 0.960 . S
C1654 C1652 1.381 . S
C1654 C1655 1.394 . S
C1654 H1662 0.930 . S
C1655 C1654 1.394 . S
C1655 C1656 1.383 . S
C1655 H1663 0.929 . S
C1656 C1655 1.383 . S
C1656 C1657 1.377 . S
C1657 H1641 0.930 . S
C1657 C1656 1.377 . S
C1657 C1658 1.379 . S
C1658 H1642 0.931 . S
C1658 C1652 1.383 . S
C1658 C1657 1.379 . S
H1659 C1653 0.959 . S
H1660 C1653 0.961 . S
H1661 C1653 0.960 . S
H1662 C1654 0.930 . S
H1663 C1655 0.929 . S
H1664 C1672 0.929 . S
H1665 C1674 0.930 . S
H1666 C1676 0.930 . S
H1667 C1679 0.929 . S
H1668 C1682 0.930 . S
H1669 C1684 0.960 . S
H1670 C1684 0.960 . S
H1671 C1684 0.960 . S
C1672 H1664 0.929 . S
C1672 C1673 1.377 . S
C1672 C1674 1.384 . S
C1673 C1672 1.377 . S
C1673 C1679 1.390 . S
C1674 H1665 0.930 . S
C1674 C1672 1.384 . S
C1674 C1675 1.372 . S
C1675 C1674 1.372 . S
C1675 C1676 1.400 . S
C1675 C1680 1.490 . S
C1676 H1666 0.930 . S
C1676 C1675 1.400 . S
C1676 C1679 1.386 . S
H1677 C1693 0.930 . S
H1678 C1694 0.931 . S
C1679 H1667 0.929 . S
C1679 C1673 1.390 . S
C1679 C1676 1.386 . S
C1680 C1675 1.490 . S
C1680 C1682 1.395 . S
C1680 C1683 1.403 . S
H1681 C1687 0.930 . S
C1682 H1668 0.930 . S
C1682 C1680 1.395 . S
C1682 C1685 1.403 . S
C1683 C1680 1.403 . S
C1683 C1684 1.524 . S
C1683 C1687 1.400 . S
C1684 H1669 0.960 . S
C1684 H1670 0.960 . S
C1684 H1671 0.960 . S
C1684 C1683 1.524 . S
C1685 C1682 1.403 . S
C1685 C1686 1.392 . S
C1685 C1689 1.495 . S
C1686 C1685 1.392 . S
C1686 C1687 1.385 . S
C1686 C1688 1.478 . S
C1687 H1681 0.930 . S
C1687 C1683 1.400 . S
C1687 C1686 1.385 . S
C1688 C1686 1.478 . S
C1688 C1690 1.381 . S
C1688 C1694 1.383 . S
C1689 C1685 1.495 . S
C1689 H1695 0.959 . S
C1689 H1696 0.961 . S
C1689 H1697 0.960 . S
C1690 C1688 1.381 . S
C1690 C1691 1.394 . S
C1690 H1698 0.930 . S
C1691 C1690 1.394 . S
C1691 C1692 1.383 . S
C1691 H1699 0.929 . S
C1692 C1691 1.383 . S
C1692 C1693 1.377 . S
C1693 H1677 0.930 . S
C1693 C1692 1.377 . S
C1693 C1694 1.379 . S
C1694 H1678 0.931 . S
C1694 C1688 1.383 . S
C1694 C1693 1.379 . S
H1695 C1689 0.959 . S
H1696 C1689 0.961 . S
H1697 C1689 0.960 . S
H1698 C1690 0.930 . S
H1699 C1691 0.929 . S
H1700 C1708 0.929 . S
H1701 C1710 0.930 . S
H1702 C1712 0.930 . S
H1703 C1715 0.929 . S
H1704 C1718 0.930 . S
H1705 C1720 0.960 . S
H1706 C1720 0.960 . S
H1707 C1720 0.960 . S
C1708 H1700 0.929 . S
C1708 C1709 1.377 . S
C1708 C1710 1.384 . S
C1709 C1708 1.377 . S
C1709 C1715 1.390 . S
C1710 H1701 0.930 . S
C1710 C1708 1.384 . S
C1710 C1711 1.372 . S
C1711 C1710 1.372 . S
C1711 C1712 1.400 . S
C1711 C1716 1.490 . S
C1712 H1702 0.930 . S
C1712 C1711 1.400 . S
C1712 C1715 1.386 . S
H1713 C1729 0.930 . S
H1714 C1730 0.931 . S
C1715 H1703 0.929 . S
C1715 C1709 1.390 . S
C1715 C1712 1.386 . S
C1716 C1711 1.490 . S
C1716 C1718 1.395 . S
C1716 C1719 1.403 . S
H1717 C1723 0.930 . S
C1718 H1704 0.930 . S
C1718 C1716 1.395 . S
C1718 C1721 1.403 . S
C1719 C1716 1.403 . S
C1719 C1720 1.524 . S
C1719 C1723 1.400 . S
C1720 H1705 0.960 . S
C1720 H1706 0.960 . S
C1720 H1707 0.960 . S
C1720 C1719 1.524 . S
C1721 C1718 1.403 . S
C1721 C1722 1.392 . S
C1721 C1725 1.495 . S
C1722 C1721 1.392 . S
C1722 C1723 1.385 . S
C1722 C1724 1.478 . S
C1723 H1717 0.930 . S
C1723 C1719 1.400 . S
C1723 C1722 1.385 . S
C1724 C1722 1.478 . S
C1724 C1726 1.381 . S
C1724 C1730 1.383 . S
C1725 C1721 1.495 . S
C1725 H1731 0.959 . S
C1725 H1732 0.961 . S
C1725 H1733 0.960 . S
C1726 C1724 1.381 . S
C1726 C1727 1.394 . S
C1726 H1734 0.930 . S
C1727 C1726 1.394 . S
C1727 C1728 1.383 . S
C1727 H1735 0.929 . S
C1728 C1727 1.383 . S
C1728 C1729 1.377 . S
C1729 H1713 0.930 . S
C1729 C1728 1.377 . S
C1729 C1730 1.379 . S
C1730 H1714 0.931 . S
C1730 C1724 1.383 . S
C1730 C1729 1.379 . S
H1731 C1725 0.959 . S
H1732 C1725 0.961 . S
H1733 C1725 0.960 . S
H1734 C1726 0.930 . S
H1735 C1727 0.929 . S
H1736 C1744 0.929 . S
H1737 C1746 0.930 . S
H1738 C1748 0.930 . S
H1739 C1751 0.929 . S
H1740 C1754 0.930 . S
H1741 C1756 0.960 . S
H1742 C1756 0.960 . S
H1743 C1756 0.960 . S
C1744 H1736 0.929 . S
C1744 C1745 1.377 . S
C1744 C1746 1.384 . S
C1745 C1744 1.377 . S
C1745 C1751 1.390 . S
C1746 H1737 0.930 . S
C1746 C1744 1.384 . S
C1746 C1747 1.372 . S
C1747 C1746 1.372 . S
C1747 C1748 1.400 . S
C1747 C1752 1.490 . S
C1748 H1738 0.930 . S
C1748 C1747 1.400 . S
C1748 C1751 1.386 . S
H1749 C1765 0.930 . S
H1750 C1766 0.931 . S
C1751 H1739 0.929 . S
C1751 C1745 1.390 . S
C1751 C1748 1.386 . S
C1752 C1747 1.490 . S
C1752 C1754 1.395 . S
C1752 C1755 1.403 . S
H1753 C1759 0.930 . S
C1754 H1740 0.930 . S
C1754 C1752 1.395 . S
C1754 C1757 1.403 . S
C1755 C1752 1.403 . S
C1755 C1756 1.524 . S
C1755 C1759 1.400 . S
C1756 H1741 0.960 . S
C1756 H1742 0.960 . S
C1756 H1743 0.960 . S
C1756 C1755 1.524 . S
C1757 C1754 1.403 . S
C1757 C1758 1.392 . S
C1757 C1761 1.495 . S
C1758 C1757 1.392 . S
C1758 C1759 1.385 . S
C1758 C1760 1.478 . S
C1759 H1753 0.930 . S
C1759 C1755 1.400 . S
C1759 C1758 1.385 . S
C1760 C1758 1.478 . S
C1760 C1762 1.381 . S
C1760 C1766 1.383 . S
C1761 C1757 1.495 . S
C1761 H1767 0.959 . S
C1761 H1768 0.961 . S
C1761 H1769 0.960 . S
C1762 C1760 1.381 . S
C1762 C1763 1.394 . S
C1762 H1770 0.930 . S
C1763 C1762 1.394 . S
C1763 C1764 1.383 . S
C1763 H1771 0.929 . S
C1764 C1763 1.383 . S
C1764 C1765 1.377 . S
C1765 H1749 0.930 . S
C1765 C1764 1.377 . S
C1765 C1766 1.379 . S
C1766 H1750 0.931 . S
C1766 C1760 1.383 . S
C1766 C1765 1.379 . S
H1767 C1761 0.959 . S
H1768 C1761 0.961 . S
H1769 C1761 0.960 . S
H1770 C1762 0.930 . S
H1771 C1763 0.929 . S
H1772 C1780 0.929 . S
H1773 C1782 0.930 . S
H1774 C1784 0.930 . S
H1775 C1787 0.929 . S
H1776 C1790 0.930 . S
H1777 C1792 0.960 . S
H1778 C1792 0.960 . S
H1779 C1792 0.960 . S
C1780 H1772 0.929 . S
C1780 C1781 1.377 . S
C1780 C1782 1.384 . S
C1781 C1780 1.377 . S
C1781 C1787 1.390 . S
C1782 H1773 0.930 . S
C1782 C1780 1.384 . S
C1782 C1783 1.372 . S
C1783 C1782 1.372 . S
C1783 C1784 1.400 . S
C1783 C1788 1.490 . S
C1784 H1774 0.930 . S
C1784 C1783 1.400 . S
C1784 C1787 1.386 . S
H1785 C1801 0.930 . S
H1786 C1802 0.931 . S
C1787 H1775 0.929 . S
C1787 C1781 1.390 . S
C1787 C1784 1.386 . S
C1788 C1783 1.490 . S
C1788 C1790 1.395 . S
C1788 C1791 1.403 . S
H1789 C1795 0.930 . S
C1790 H1776 0.930 . S
C1790 C1788 1.395 . S
C1790 C1793 1.403 . S
C1791 C1788 1.403 . S
C1791 C1792 1.524 . S
C1791 C1795 1.400 . S
C1792 H1777 0.960 . S
C1792 H1778 0.960 . S
C1792 H1779 0.960 . S
C1792 C1791 1.524 . S
C1793 C1790 1.403 . S
C1793 C1794 1.392 . S
C1793 C1797 1.495 . S
C1794 C1793 1.392 . S
C1794 C1795 1.385 . S
C1794 C1796 1.478 . S
C1795 H1789 0.930 . S
C1795 C1791 1.400 . S
C1795 C1794 1.385 . S
C1796 C1794 1.478 . S
C1796 C1798 1.381 . S
C1796 C1802 1.383 . S
C1797 C1793 1.495 . S
C1797 H1803 0.959 . S
C1797 H1804 0.961 . S
C1797 H1805 0.960 . S
C1798 C1796 1.381 . S
C1798 C1799 1.394 . S
C1798 H1806 0.930 . S
C1799 C1798 1.394 . S
C1799 C1800 1.383 . S
C1799 H1807 0.929 . S
C1800 C1799 1.383 . S
C1800 C1801 1.377 . S
C1801 H1785 0.930 . S
C1801 C1800 1.377 . S
C1801 C1802 1.379 . S
C1802 H1786 0.931 . S
C1802 C1796 1.383 . S
C1802 C1801 1.379 . S
H1803 C1797 0.959 . S
H1804 C1797 0.961 . S
H1805 C1797 0.960 . S
H1806 C1798 0.930 . S
H1807 C1799 0.929 . S
H1808 C1816 0.929 . S
H1809 C1818 0.930 . S
H1810 C1820 0.930 . S
H1811 C1823 0.929 . S
H1812 C1826 0.930 . S
H1813 C1828 0.960 . S
H1814 C1828 0.960 . S
H1815 C1828 0.960 . S
C1816 H1808 0.929 . S
C1816 C1817 1.377 . S
C1816 C1818 1.384 . S
C1817 C1816 1.377 . S
C1817 C1823 1.390 . S
C1818 H1809 0.930 . S
C1818 C1816 1.384 . S
C1818 C1819 1.372 . S
C1819 C1818 1.372 . S
C1819 C1820 1.400 . S
C1819 C1824 1.490 . S
C1820 H1810 0.930 . S
C1820 C1819 1.400 . S
C1820 C1823 1.386 . S
H1821 C1837 0.930 . S
H1822 C1838 0.931 . S
C1823 H1811 0.929 . S
C1823 C1817 1.390 . S
C1823 C1820 1.386 . S
C1824 C1819 1.490 . S
C1824 C1826 1.395 . S
C1824 C1827 1.403 . S
H1825 C1831 0.930 . S
C1826 H1812 0.930 . S
C1826 C1824 1.395 . S
C1826 C1829 1.403 . S
C1827 C1824 1.403 . S
C1827 C1828 1.524 . S
C1827 C1831 1.400 . S
C1828 H1813 0.960 . S
C1828 H1814 0.960 . S
C1828 H1815 0.960 . S
C1828 C1827 1.524 . S
C1829 C1826 1.403 . S
C1829 C1830 1.392 . S
C1829 C1833 1.495 . S
C1830 C1829 1.392 . S
C1830 C1831 1.385 . S
C1830 C1832 1.478 . S
C1831 H1825 0.930 . S
C1831 C1827 1.400 . S
C1831 C1830 1.385 . S
C1832 C1830 1.478 . S
C1832 C1834 1.381 . S
C1832 C1838 1.383 . S
C1833 C1829 1.495 . S
C1833 H1839 0.959 . S
C1833 H1840 0.961 . S
C1833 H1841 0.960 . S
C1834 C1832 1.381 . S
C1834 C1835 1.394 . S
C1834 H1842 0.930 . S
C1835 C1834 1.394 . S
C1835 C1836 1.383 . S
C1835 H1843 0.929 . S
C1836 C1835 1.383 . S
C1836 C1837 1.377 . S
C1837 H1821 0.930 . S
C1837 C1836 1.377 . S
C1837 C1838 1.379 . S
C1838 H1822 0.931 . S
C1838 C1832 1.383 . S
C1838 C1837 1.379 . S
H1839 C1833 0.959 . S
H1840 C1833 0.961 . S
H1841 C1833 0.960 . S
H1842 C1834 0.930 . S
H1843 C1835 0.929 . S
H1844 C1852 0.929 . S
H1845 C1854 0.930 . S
H1846 C1856 0.930 . S
H1847 C1859 0.929 . S
H1848 C1862 0.930 . S
H1849 C1864 0.960 . S
H1850 C1864 0.960 . S
H1851 C1864 0.960 . S
C1852 H1844 0.929 . S
C1852 C1853 1.377 . S
C1852 C1854 1.384 . S
C1853 C1852 1.377 . S
C1853 C1859 1.390 . S
C1854 H1845 0.930 . S
C1854 C1852 1.384 . S
C1854 C1855 1.372 . S
C1855 C1854 1.372 . S
C1855 C1856 1.400 . S
C1855 C1860 1.490 . S
C1856 H1846 0.930 . S
C1856 C1855 1.400 . S
C1856 C1859 1.386 . S
H1857 C1873 0.930 . S
H1858 C1874 0.931 . S
C1859 H1847 0.929 . S
C1859 C1853 1.390 . S
C1859 C1856 1.386 . S
C1860 C1855 1.490 . S
C1860 C1862 1.395 . S
C1860 C1863 1.403 . S
H1861 C1867 0.930 . S
C1862 H1848 0.930 . S
C1862 C1860 1.395 . S
C1862 C1865 1.403 . S
C1863 C1860 1.403 . S
C1863 C1864 1.524 . S
C1863 C1867 1.400 . S
C1864 H1849 0.960 . S
C1864 H1850 0.960 . S
C1864 H1851 0.960 . S
C1864 C1863 1.524 . S
C1865 C1862 1.403 . S
C1865 C1866 1.392 . S
C1865 C1869 1.495 . S
C1866 C1865 1.392 . S
C1866 C1867 1.385 . S
C1866 C1868 1.478 . S
C1867 H1861 0.930 . S
C1867 C1863 1.400 . S
C1867 C1866 1.385 . S
C1868 C1866 1.478 . S
C1868 C1870 1.381 . S
C1868 C1874 1.383 . S
C1869 C1865 1.495 . S
C1869 H1875 0.959 . S
C1869 H1876 0.961 . S
C1869 H1877 0.960 . S
C1870 C1868 1.381 . S
C1870 C1871 1.394 . S
C1870 H1878 0.930 . S
C1871 C1870 1.394 . S
C1871 C1872 1.383 . S
C1871 H1879 0.929 . S
C1872 C1871 1.383 . S
C1872 C1873 1.377 . S
C1873 H1857 0.930 . S
C1873 C1872 1.377 . S
C1873 C1874 1.379 . S
C1874 H1858 0.931 . S
C1874 C1868 1.383 . S
C1874 C1873 1.379 . S
H1875 C1869 0.959 . S
H1876 C1869 0.961 . S
H1877 C1869 0.960 . S
H1878 C1870 0.930 . S
H1879 C1871 0.929 . S
H1880 C1888 0.929 . S
H1881 C1890 0.930 . S
H1882 C1892 0.930 . S
H1883 C1895 0.929 . S
H1884 C1898 0.930 . S
H1885 C1900 0.960 . S
H1886 C1900 0.960 . S
H1887 C1900 0.960 . S
C1888 H1880 0.929 . S
C1888 C1889 1.377 . S
C1888 C1890 1.384 . S
C1889 C1888 1.377 . S
C1889 C1895 1.390 . S
C1890 H1881 0.930 . S
C1890 C1888 1.384 . S
C1890 C1891 1.372 . S
C1891 C1890 1.372 . S
C1891 C1892 1.400 . S
C1891 C1896 1.490 . S
C1892 H1882 0.930 . S
C1892 C1891 1.400 . S
C1892 C1895 1.386 . S
H1893 C1909 0.930 . S
H1894 C1910 0.931 . S
C1895 H1883 0.929 . S
C1895 C1889 1.390 . S
C1895 C1892 1.386 . S
C1896 C1891 1.490 . S
C1896 C1898 1.395 . S
C1896 C1899 1.403 . S
H1897 C1903 0.930 . S
C1898 H1884 0.930 . S
C1898 C1896 1.395 . S
C1898 C1901 1.403 . S
C1899 C1896 1.403 . S
C1899 C1900 1.524 . S
C1899 C1903 1.400 . S
C1900 H1885 0.960 . S
C1900 H1886 0.960 . S
C1900 H1887 0.960 . S
C1900 C1899 1.524 . S
C1901 C1898 1.403 . S
C1901 C1902 1.392 . S
C1901 C1905 1.495 . S
C1902 C1901 1.392 . S
C1902 C1903 1.385 . S
C1902 C1904 1.478 . S
C1903 H1897 0.930 . S
C1903 C1899 1.400 . S
C1903 C1902 1.385 . S
C1904 C1902 1.478 . S
C1904 C1906 1.381 . S
C1904 C1910 1.383 . S
C1905 C1901 1.495 . S
C1905 H1911 0.959 . S
C1905 H1912 0.961 . S
C1905 H1913 0.960 . S
C1906 C1904 1.381 . S
C1906 C1907 1.394 . S
C1906 H1914 0.930 . S
C1907 C1906 1.394 . S
C1907 C1908 1.383 . S
C1907 H1915 0.929 . S
C1908 C1907 1.383 . S
C1908 C1909 1.377 . S
C1909 H1893 0.930 . S
C1909 C1908 1.377 . S
C1909 C1910 1.379 . S
C1910 H1894 0.931 . S
C1910 C1904 1.383 . S
C1910 C1909 1.379 . S
H1911 C1905 0.959 . S
H1912 C1905 0.961 . S
H1913 C1905 0.960 . S
H1914 C1906 0.930 . S
H1915 C1907 0.929 . S
H1916 C1924 0.929 . S
H1917 C1926 0.930 . S
H1918 C1928 0.930 . S
H1919 C1931 0.929 . S
H1920 C1934 0.930 . S
H1921 C1936 0.960 . S
H1922 C1936 0.960 . S
H1923 C1936 0.960 . S
C1924 H1916 0.929 . S
C1924 C1925 1.377 . S
C1924 C1926 1.384 . S
C1925 C1924 1.377 . S
C1925 C1931 1.390 . S
C1926 H1917 0.930 . S
C1926 C1924 1.384 . S
C1926 C1927 1.372 . S
C1927 C1926 1.372 . S
C1927 C1928 1.400 . S
C1927 C1932 1.490 . S
C1928 H1918 0.930 . S
C1928 C1927 1.400 . S
C1928 C1931 1.386 . S
H1929 C1945 0.930 . S
H1930 C1946 0.931 . S
C1931 H1919 0.929 . S
C1931 C1925 1.390 . S
C1931 C1928 1.386 . S
C1932 C1927 1.490 . S
C1932 C1934 1.395 . S
C1932 C1935 1.403 . S
H1933 C1939 0.930 . S
C1934 H1920 0.930 . S
C1934 C1932 1.395 . S
C1934 C1937 1.403 . S
C1935 C1932 1.403 . S
C1935 C1936 1.524 . S
C1935 C1939 1.400 . S
C1936 H1921 0.960 . S
C1936 H1922 0.960 . S
C1936 H1923 0.960 . S
C1936 C1935 1.524 . S
C1937 C1934 1.403 . S
C1937 C1938 1.392 . S
C1937 C1941 1.495 . S
C1938 C1937 1.392 . S
C1938 C1939 1.385 . S
C1938 C1940 1.478 . S
C1939 H1933 0.930 . S
C1939 C1935 1.400 . S
C1939 C1938 1.385 . S
C1940 C1938 1.478 . S
C1940 C1942 1.381 . S
C1940 C1946 1.383 . S
C1941 C1937 1.495 . S
C1941 H1947 0.959 . S
C1941 H1948 0.961 . S
C1941 H1949 0.960 . S
C1942 C1940 1.381 . S
C1942 C1943 1.394 . S
C1942 H1950 0.930 . S
C1943 C1942 1.394 . S
C1943 C1944 1.383 . S
C1943 H1951 0.929 . S
C1944 C1943 1.383 . S
C1944 C1945 1.377 . S
C1945 H1929 0.930 . S
C1945 C1944 1.377 . S
C1945 C1946 1.379 . S
C1946 H1930 0.931 . S
C1946 C1940 1.383 . S
C1946 C1945 1.379 . S
H1947 C1941 0.959 . S
H1948 C1941 0.961 . S
H1949 C1941 0.960 . S
H1950 C1942 0.930 . S
H1951 C1943 0.929 . S
H1952 C1960 0.929 . S
H1953 C1962 0.930 . S
H1954 C1964 0.930 . S
H1955 C1967 0.929 . S
H1956 C1970 0.930 . S
H1957 C1972 0.960 . S
H1958 C1972 0.960 . S
H1959 C1972 0.960 . S
C1960 H1952 0.929 . S
C1960 C1961 1.377 . S
C1960 C1962 1.384 . S
C1961 C1960 1.377 . S
C1961 C1967 1.390 . S
C1962 H1953 0.930 . S
C1962 C1960 1.384 . S
C1962 C1963 1.372 . S
C1963 C1962 1.372 . S
C1963 C1964 1.400 . S
C1963 C1968 1.490 . S
C1964 H1954 0.930 . S
C1964 C1963 1.400 . S
C1964 C1967 1.386 . S
H1965 C1981 0.930 . S
H1966 C1982 0.931 . S
C1967 H1955 0.929 . S
C1967 C1961 1.390 . S
C1967 C1964 1.386 . S
C1968 C1963 1.490 . S
C1968 C1970 1.395 . S
C1968 C1971 1.403 . S
H1969 C1975 0.930 . S
C1970 H1956 0.930 . S
C1970 C1968 1.395 . S
C1970 C1973 1.403 . S
C1971 C1968 1.403 . S
C1971 C1972 1.524 . S
C1971 C1975 1.400 . S
C1972 H1957 0.960 . S
C1972 H1958 0.960 . S
C1972 H1959 0.960 . S
C1972 C1971 1.524 . S
C1973 C1970 1.403 . S
C1973 C1974 1.392 . S
C1973 C1977 1.495 . S
C1974 C1973 1.392 . S
C1974 C1975 1.385 . S
C1974 C1976 1.478 . S
C1975 H1969 0.930 . S
C1975 C1971 1.400 . S
C1975 C1974 1.385 . S
C1976 C1974 1.478 . S
C1976 C1978 1.381 . S
C1976 C1982 1.383 . S
C1977 C1973 1.495 . S
C1977 H1983 0.959 . S
C1977 H1984 0.961 . S
C1977 H1985 0.960 . S
C1978 C1976 1.381 . S
C1978 C1979 1.394 . S
C1978 H1986 0.930 . S
C1979 C1978 1.394 . S
C1979 C1980 1.383 . S
C1979 H1987 0.929 . S
C1980 C1979 1.383 . S
C1980 C1981 1.377 . S
C1981 H1965 0.930 . S
C1981 C1980 1.377 . S
C1981 C1982 1.379 . S
C1982 H1966 0.931 . S
C1982 C1976 1.383 . S
C1982 C1981 1.379 . S
H1983 C1977 0.959 . S
H1984 C1977 0.961 . S
H1985 C1977 0.960 . S
H1986 C1978 0.930 . S
H1987 C1979 0.929 . S
H1988 C1996 0.929 . S
H1989 C1998 0.930 . S
H1990 C2000 0.930 . S
H1991 C2003 0.929 . S
H1992 C2006 0.930 . S
H1993 C2008 0.960 . S
H1994 C2008 0.960 . S
H1995 C2008 0.960 . S
C1996 H1988 0.929 . S
C1996 C1997 1.377 . S
C1996 C1998 1.384 . S
C1997 C1996 1.377 . S
C1997 C2003 1.390 . S
C1998 H1989 0.930 . S
C1998 C1996 1.384 . S
C1998 C1999 1.372 . S
C1999 C1998 1.372 . S
C1999 C2000 1.400 . S
C1999 C2004 1.490 . S
C2000 H1990 0.930 . S
C2000 C1999 1.400 . S
C2000 C2003 1.386 . S
H2001 C2017 0.930 . S
H2002 C2018 0.931 . S
C2003 H1991 0.929 . S
C2003 C1997 1.390 . S
C2003 C2000 1.386 . S
C2004 C1999 1.490 . S
C2004 C2006 1.395 . S
C2004 C2007 1.403 . S
H2005 C2011 0.930 . S
C2006 H1992 0.930 . S
C2006 C2004 1.395 . S
C2006 C2009 1.403 . S
C2007 C2004 1.403 . S
C2007 C2008 1.524 . S
C2007 C2011 1.400 . S
C2008 H1993 0.960 . S
C2008 H1994 0.960 . S
C2008 H1995 0.960 . S
C2008 C2007 1.524 . S
C2009 C2006 1.403 . S
C2009 C2010 1.392 . S
C2009 C2013 1.495 . S
C2010 C2009 1.392 . S
C2010 C2011 1.385 . S
C2010 C2012 1.478 . S
C2011 H2005 0.930 . S
C2011 C2007 1.400 . S
C2011 C2010 1.385 . S
C2012 C2010 1.478 . S
C2012 C2014 1.381 . S
C2012 C2018 1.383 . S
C2013 C2009 1.495 . S
C2013 H2019 0.959 . S
C2013 H2020 0.961 . S
C2013 H2021 0.960 . S
C2014 C2012 1.381 . S
C2014 C2015 1.394 . S
C2014 H2022 0.930 . S
C2015 C2014 1.394 . S
C2015 C2016 1.383 . S
C2015 H2023 0.929 . S
C2016 C2015 1.383 . S
C2016 C2017 1.377 . S
C2017 H2001 0.930 . S
C2017 C2016 1.377 . S
C2017 C2018 1.379 . S
C2018 H2002 0.931 . S
C2018 C2012 1.383 . S
C2018 C2017 1.379 . S
H2019 C2013 0.959 . S
H2020 C2013 0.961 . S
H2021 C2013 0.960 . S
H2022 C2014 0.930 . S
H2023 C2015 0.929 . S
H2024 C2032 0.929 . S
H2025 C2034 0.930 . S
H2026 C2036 0.930 . S
H2027 C2039 0.929 . S
H2028 C2042 0.930 . S
H2029 C2044 0.960 . S
H2030 C2044 0.960 . S
H2031 C2044 0.960 . S
C2032 H2024 0.929 . S
C2032 C2033 1.377 . S
C2032 C2034 1.384 . S
C2033 C2032 1.377 . S
C2033 C2039 1.390 . S
C2034 H2025 0.930 . S
C2034 C2032 1.384 . S
C2034 C2035 1.372 . S
C2035 C2034 1.372 . S
C2035 C2036 1.400 . S
C2035 C2040 1.490 . S
C2036 H2026 0.930 . S
C2036 C2035 1.400 . S
C2036 C2039 1.386 . S
H2037 C2053 0.930 . S
H2038 C2054 0.931 . S
C2039 H2027 0.929 . S
C2039 C2033 1.390 . S
C2039 C2036 1.386 . S
C2040 C2035 1.490 . S
C2040 C2042 1.395 . S
C2040 C2043 1.403 . S
H2041 C2047 0.930 . S
C2042 H2028 0.930 . S
C2042 C2040 1.395 . S
C2042 C2045 1.403 . S
C2043 C2040 1.403 . S
C2043 C2044 1.524 . S
C2043 C2047 1.400 . S
C2044 H2029 0.960 . S
C2044 H2030 0.960 . S
C2044 H2031 0.960 . S
C2044 C2043 1.524 . S
C2045 C2042 1.403 . S
C2045 C2046 1.392 . S
C2045 C2049 1.495 . S
C2046 C2045 1.392 . S
C2046 C2047 1.385 . S
C2046 C2048 1.478 . S
C2047 H2041 0.930 . S
C2047 C2043 1.400 . S
C2047 C2046 1.385 . S
C2048 C2046 1.478 . S
C2048 C2050 1.381 . S
C2048 C2054 1.383 . S
C2049 C2045 1.495 . S
C2049 H2055 0.959 . S
C2049 H2056 0.961 . S
C2049 H2057 0.960 . S
C2050 C2048 1.381 . S
C2050 C2051 1.394 . S
C2050 H2058 0.930 . S
C2051 C2050 1.394 . S
C2051 C2052 1.383 . S
C2051 H2059 0.929 . S
C2052 C2051 1.383 . S
C2052 C2053 1.377 . S
C2053 H2037 0.930 . S
C2053 C2052 1.377 . S
C2053 C2054 1.379 . S
C2054 H2038 0.931 . S
C2054 C2048 1.383 . S
C2054 C2053 1.379 . S
H2055 C2049 0.959 . S
H2056 C2049 0.961 . S
H2057 C2049 0.960 . S
H2058 C2050 0.930 . S
H2059 C2051 0.929 . S
H2060 C2068 0.929 . S
H2061 C2070 0.930 . S
H2062 C2072 0.930 . S
H2063 C2075 0.929 . S
H2064 C2078 0.930 . S
H2065 C2080 0.960 . S
H2066 C2080 0.960 . S
H2067 C2080 0.960 . S
C2068 H2060 0.929 . S
C2068 C2069 1.377 . S
C2068 C2070 1.384 . S
C2069 C2068 1.377 . S
C2069 C2075 1.390 . S
C2070 H2061 0.930 . S
C2070 C2068 1.384 . S
C2070 C2071 1.372 . S
C2071 C2070 1.372 . S
C2071 C2072 1.400 . S
C2071 C2076 1.490 . S
C2072 H2062 0.930 . S
C2072 C2071 1.400 . S
C2072 C2075 1.386 . S
H2073 C2089 0.930 . S
H2074 C2090 0.931 . S
C2075 H2063 0.929 . S
C2075 C2069 1.390 . S
C2075 C2072 1.386 . S
C2076 C2071 1.490 . S
C2076 C2078 1.395 . S
C2076 C2079 1.403 . S
H2077 C2083 0.930 . S
C2078 H2064 0.930 . S
C2078 C2076 1.395 . S
C2078 C2081 1.403 . S
C2079 C2076 1.403 . S
C2079 C2080 1.524 . S
C2079 C2083 1.400 . S
C2080 H2065 0.960 . S
C2080 H2066 0.960 . S
C2080 H2067 0.960 . S
C2080 C2079 1.524 . S
C2081 C2078 1.403 . S
C2081 C2082 1.392 . S
C2081 C2085 1.495 . S
C2082 C2081 1.392 . S
C2082 C2083 1.385 . S
C2082 C2084 1.478 . S
C2083 H2077 0.930 . S
C2083 C2079 1.400 . S
C2083 C2082 1.385 . S
C2084 C2082 1.478 . S
C2084 C2086 1.381 . S
C2084 C2090 1.383 . S
C2085 C2081 1.495 . S
C2085 H2091 0.959 . S
C2085 H2092 0.961 . S
C2085 H2093 0.960 . S
C2086 C2084 1.381 . S
C2086 C2087 1.394 . S
C2086 H2094 0.930 . S
C2087 C2086 1.394 . S
C2087 C2088 1.383 . S
C2087 H2095 0.929 . S
C2088 C2087 1.383 . S
C2088 C2089 1.377 . S
C2089 H2073 0.930 . S
C2089 C2088 1.377 . S
C2089 C2090 1.379 . S
C2090 H2074 0.931 . S
C2090 C2084 1.383 . S
C2090 C2089 1.379 . S
H2091 C2085 0.959 . S
H2092 C2085 0.961 . S
H2093 C2085 0.960 . S
H2094 C2086 0.930 . S
H2095 C2087 0.929 . S
C953 C241 1.575 . S
C972 C5 1.571 . S
C989 C300 1.575 . S
C1008 C64 1.571 . S
C1025 C359 1.575 . S
C1044 C123 1.571 . S
C1061 C418 1.575 . S
C1080 C182 1.572 . S
C1097 C713 1.575 . S
C1116 C477 1.571 . S
C1133 C772 1.575 . S
C1152 C536 1.572 . S
C1169 C595 1.575 . S
C1188 C831 1.571 . S
C1205 C890 1.575 . S
C1224 C654 1.572 . S
C1241 C52 1.620 . S
C1260 C347 1.623 . S
C1277 C406 1.618 . S
C1296 C111 1.613 . S
C1313 C170 1.619 . S
C1332 C465 1.618 . S
C1349 C288 1.621 . S
C1368 C229 1.619 . S
C1385 C819 1.619 . S
C1404 C524 1.609 . S
C1421 C878 1.621 . S
C1440 C583 1.618 . S
C1457 C642 1.618 . S
C1476 C937 1.613 . S
C1493 C701 1.618 . S
C1512 C760 1.609 . S
C1529 C918 1.815 . S
C1548 C33 1.815 . S
C1565 C741 1.817 . S
C1584 C92 1.808 . S
C1601 C800 1.815 . S
C1620 C151 1.814 . S
C1637 C859 1.815 . S
C1656 C210 1.813 . S
C1673 C564 1.816 . S
C1692 C269 1.813 . S
C1709 C623 1.816 . S
C1728 C328 1.811 . S
C1745 C387 1.815 . S
C1764 C682 1.813 . S
C1781 C446 1.817 . S
C1800 C505 1.808 . S
C1817 C770 1.043 . S
C1836 C121 1.034 . S
C1853 C829 1.043 . S
C1872 C180 1.042 . S
C1889 C888 1.036 . S
C1908 C3 1.025 . S
C1925 C62 1.042 . S
C1944 C711 1.016 . S
C1961 C652 1.034 . S
C1980 C357 1.045 . S
C1997 C416 1.037 . S
C2016 C475 1.022 . S
C2033 C534 1.034 . S
C2052 C239 1.043 . S
C2069 C593 1.037 . S
C2088 C298 1.059 . S
