# Generated by pormake.
# Topology msp, (4)-cn, num edge types: 1
# Building blocks:
#     Node 0, Type 0, BuildingBlock: GALJAG_clean_sbu_0, # of connection points: 4
#     Node 1, Type 0, BuildingBlock: GALJAG_clean_sbu_0, # of connection points: 4
#     Node 2, Type 0, BuildingBlock: GALJAG_clean_sbu_0, # of connection points: 4
#     Node 3, Type 0, BuildingBlock: GALJAG_clean_sbu_0, # of connection points: 4
#     Node 4, Type 0, BuildingBlock: GALJAG_clean_sbu_0, # of connection points: 4
#     Node 5, Type 0, BuildingBlock: GALJAG_clean_sbu_0, # of connection points: 4
#     Node 6, Type 0, BuildingBlock: GALJAG_clean_sbu_0, # of connection points: 4
#     Node 7, Type 0, BuildingBlock: GALJAG_clean_sbu_0, # of connection points: 4
#     Edge 8, Type (0, 0), BuildingBlock: TEMPAE_clean_linker_10, # of connection points: 2
#     Edge 9, Type (0, 0), BuildingBlock: TEMPAE_clean_linker_10, # of connection points: 2
#     Edge 10, Type (0, 0), BuildingBlock: TEMPAE_clean_linker_10, # of connection points: 2
#     Edge 11, Type (0, 0), BuildingBlock: TEMPAE_clean_linker_10, # of connection points: 2
#     Edge 12, Type (0, 0), BuildingBlock: TEMPAE_clean_linker_10, # of connection points: 2
#     Edge 13, Type (0, 0), BuildingBlock: TEMPAE_clean_linker_10, # of connection points: 2
#     Edge 14, Type (0, 0), BuildingBlock: TEMPAE_clean_linker_10, # of connection points: 2
#     Edge 15, Type (0, 0), BuildingBlock: TEMPAE_clean_linker_10, # of connection points: 2
#     Edge 16, Type (0, 0), BuildingBlock: TEMPAE_clean_linker_10, # of connection points: 2
#     Edge 17, Type (0, 0), BuildingBlock: TEMPAE_clean_linker_10, # of connection points: 2
#     Edge 18, Type (0, 0), BuildingBlock: TEMPAE_clean_linker_10, # of connection points: 2
#     Edge 19, Type (0, 0), BuildingBlock: TEMPAE_clean_linker_10, # of connection points: 2
#     Edge 20, Type (0, 0), BuildingBlock: TEMPAE_clean_linker_10, # of connection points: 2
#     Edge 21, Type (0, 0), BuildingBlock: TEMPAE_clean_linker_10, # of connection points: 2
#     Edge 22, Type (0, 0), BuildingBlock: TEMPAE_clean_linker_10, # of connection points: 2
#     Edge 23, Type (0, 0), BuildingBlock: TEMPAE_clean_linker_10, # of connection points: 2
# Relax obj value: 0.108
# Max RMSD: 0.183
# Mean RMSD: 0.183
data_MOF--net-msp--node1-GALJAG_clean_sbu_0--edge1-TEMPAE_clean_linker_10
_symmetry_space_group_name_H-M    P1
_symmetry_Int_Tables_number       1
_symmetry_cell_setting            triclinic
loop_
_symmetry_equiv_pos_as_xyz
'x, y, z'
_cell_length_a     21.844345
_cell_length_b     21.535565
_cell_length_c     43.931739
_cell_angle_alpha  90.002953
_cell_angle_beta   99.723917
_cell_angle_gamma 89.985042
loop_
_atom_site_label
_atom_site_type_symbol
_atom_site_fract_x
_atom_site_fract_y
_atom_site_fract_z
_atom_type_partial_charge
In0 In 0.0401 0.25083 0.37451 0.0
O1 O 0.97402 0.18804 0.342 0.0
O2 O 0.94569 0.28062 0.34941 0.0
C3 C 0.08295 0.14896 0.40755 0.0
C4 C 0.11638 0.28801 0.33549 0.0
C5 C 0.03286 0.33887 0.41781 0.0
O6 O 0.03996 0.18248 0.41443 0.0
O7 O 0.0997 0.16361 0.38246 0.0
O8 O 0.08212 0.32896 0.40717 0.0
O9 O 0.98748 0.30565 0.40617 0.0
C10 C 0.93316 0.22978 0.33553 0.0
O11 O 0.13626 0.26897 0.36246 0.0
O12 O 0.05813 0.29212 0.32892 0.0
In13 In 0.46191 0.27771 0.62613 0.0
O14 O 0.54016 0.21338 0.64874 0.0
O15 O 0.54745 0.3107 0.65795 0.0
C16 C 0.39045 0.21341 0.5813 0.0
C17 C 0.39101 0.27909 0.67066 0.0
C18 C 0.49088 0.36577 0.58764 0.0
O19 O 0.44089 0.19075 0.59547 0.0
O20 O 0.37719 0.26673 0.5901 0.0
O21 O 0.44894 0.37353 0.60398 0.0
O22 O 0.519 0.31427 0.59132 0.0
C23 C 0.57096 0.25744 0.66301 0.0
O24 O 0.41123 0.32866 0.66051 0.0
O25 O 0.40611 0.23006 0.65815 0.0
In26 In 0.94409 0.72488 0.62518 0.0
O27 O 0.87777 0.68308 0.65455 0.0
O28 O 0.89227 0.7814 0.65559 0.0
C29 C 0.97844 0.63791 0.58757 0.0
C30 C 0.04762 0.73623 0.66695 0.0
C31 C 0.87256 0.79024 0.5813 0.0
O32 O 0.94318 0.62533 0.60689 0.0
O33 O 0.99725 0.69344 0.58804 0.0
O34 O 0.92076 0.81427 0.59714 0.0
O35 O 0.8619 0.73457 0.58781 0.0
C36 C 0.86543 0.7354 0.66537 0.0
O37 O 0.03541 0.77431 0.64471 0.0
O38 O 0.00886 0.69295 0.66718 0.0
In39 In 0.53822 0.75108 0.373 0.0
O40 O 0.4396 0.78394 0.35312 0.0
O41 O 0.46797 0.69378 0.34132 0.0
C42 C 0.58549 0.8514 0.40516 0.0
C43 C 0.60933 0.75813 0.32892 0.0
C44 C 0.54519 0.66576 0.41871 0.0
O45 O 0.52832 0.83806 0.40229 0.0
O46 O 0.61669 0.81559 0.39103 0.0
O47 O 0.55935 0.65276 0.39273 0.0
O48 O 0.52777 0.72086 0.4214 0.0
C49 C 0.42611 0.73462 0.3378 0.0
O50 O 0.62246 0.7222 0.35194 0.0
O51 O 0.56031 0.78965 0.32819 0.0
In52 In 0.52947 0.74513 0.87345 0.0
O53 O 0.60647 0.79622 0.85372 0.0
O54 O 0.55201 0.72882 0.82583 0.0
C55 C 0.52511 0.83267 0.9171 0.0
C56 C 0.41811 0.74154 0.83701 0.0
C57 C 0.57979 0.64703 0.90744 0.0
O58 O 0.57447 0.82054 0.90688 0.0
O59 O 0.47832 0.80197 0.90481 0.0
O60 O 0.52811 0.66994 0.91061 0.0
O61 O 0.60273 0.67058 0.88574 0.0
C62 C 0.59582 0.76741 0.82828 0.0
O63 O 0.44578 0.69259 0.84782 0.0
O64 O 0.44571 0.79169 0.84554 0.0
In65 In 0.96077 0.78159 0.12562 0.0
O66 O 0.0322 0.712 0.14991 0.0
O67 O 0.04803 0.80868 0.15814 0.0
C68 C 0.88641 0.71941 0.08117 0.0
C69 C 0.88368 0.78869 0.16726 0.0
C70 C 0.99858 0.86477 0.08708 0.0
O71 O 0.93524 0.69468 0.0959 0.0
O72 O 0.87635 0.77444 0.08891 0.0
O73 O 0.96444 0.8798 0.10654 0.0
O74 O 0.01428 0.80819 0.08761 0.0
C75 C 0.06632 0.75385 0.16407 0.0
O76 O 0.90676 0.83699 0.15731 0.0
O77 O 0.89976 0.73844 0.15629 0.0
In78 In 0.45102 0.21716 0.12786 0.0
O79 O 0.38108 0.1831 0.15736 0.0
O80 O 0.41152 0.27762 0.16148 0.0
C81 C 0.47915 0.13025 0.0888 0.0
C82 C 0.55877 0.21685 0.16715 0.0
C83 C 0.38016 0.28434 0.08453 0.0
O84 O 0.44471 0.11833 0.10863 0.0
O85 O 0.4999 0.18515 0.0894 0.0
O86 O 0.42955 0.30708 0.09993 0.0
O87 O 0.3679 0.22919 0.09123 0.0
C88 C 0.37799 0.23561 0.17018 0.0
O89 O 0.54598 0.25939 0.14704 0.0
O90 O 0.51784 0.17531 0.16669 0.0
In91 In 0.04282 0.25674 0.87584 0.0
O92 O 0.12877 0.22134 0.85756 0.0
O93 O 0.07501 0.29422 0.83331 0.0
C94 C 0.04846 0.16079 0.91603 0.0
C95 C 0.93673 0.24646 0.83514 0.0
C96 C 0.07208 0.3561 0.91345 0.0
O97 O 0.09659 0.18855 0.91089 0.0
O98 O 0.99859 0.17987 0.90015 0.0
O99 O 0.02753 0.32033 0.91602 0.0
O100 O 0.09724 0.34475 0.89037 0.0
C101 C 0.12133 0.25865 0.83494 0.0
O102 O 0.94498 0.29 0.85481 0.0
O103 O 0.98095 0.20831 0.83677 0.0
C104 C 0.97082 0.40796 0.4464 0.0
C105 C 0.02868 0.38373 0.44279 0.0
C106 C 0.96531 0.44909 0.47055 0.0
C107 C 0.01877 0.46503 0.49213 0.0
C108 C 0.07732 0.44014 0.48876 0.0
C109 C 0.08171 0.40037 0.46384 0.0
C110 C 0.90229 0.47576 0.47286 0.0
C111 C 0.1351 0.4549 0.51168 0.0
C112 C 0.01142 0.61445 0.53723 0.0
C113 C 0.99292 0.59287 0.5644 0.0
C114 C 0.02087 0.57327 0.51373 0.0
C115 C 0.01316 0.50872 0.5178 0.0
C116 C 0.99673 0.48644 0.5457 0.0
C117 C 0.98592 0.52892 0.56853 0.0
C118 C 0.03684 0.59907 0.48407 0.0
C119 C 0.98952 0.41784 0.5512 0.0
H120 H 0.92979 0.39519 0.43009 0.0
H121 H 0.12639 0.38101 0.46128 0.0
H122 H 0.88863 0.46206 0.4951 0.0
H123 H 0.90424 0.52724 0.47244 0.0
H124 H 0.86568 0.45992 0.45374 0.0
H125 H 0.1766 0.42989 0.50646 0.0
H126 H 0.14449 0.50551 0.51171 0.0
H127 H 0.12808 0.4422 0.53533 0.0
H128 H 0.01644 0.66394 0.53385 0.0
H129 H 0.97194 0.51211 0.58958 0.0
H130 H -0.00053 0.58726 0.46452 0.0
H131 H 0.08034 0.57774 0.47915 0.0
H132 H 0.04272 0.65031 0.48487 0.0
H133 H 0.94951 0.39942 0.53475 0.0
H134 H 0.98187 0.4078 0.57507 0.0
H135 H 0.0315 0.39242 0.54699 0.0
C136 C 0.53135 0.55786 0.43724 0.0
C137 C 0.54614 0.6202 0.44384 0.0
C138 C 0.52508 0.51591 0.46104 0.0
C139 C 0.53586 0.53656 0.49214 0.0
C140 C 0.55393 0.59886 0.49891 0.0
C141 C 0.55779 0.6402 0.47462 0.0
C142 C 0.50434 0.45026 0.45281 0.0
C143 C 0.56785 0.62225 0.53176 0.0
C144 C 0.45681 0.45225 0.55092 0.0
C145 C 0.50362 0.4116 0.5645 0.0
C146 C 0.46658 0.49277 0.52717 0.0
C147 C 0.52521 0.49392 0.51743 0.0
C148 C 0.57324 0.45416 0.53175 0.0
C149 C 0.56152 0.41273 0.55479 0.0
C150 C 0.41371 0.53338 0.51203 0.0
C151 C 0.6369 0.45535 0.5227 0.0
H152 H 0.52188 0.54261 0.41339 0.0
H153 H 0.56973 0.68841 0.4797 0.0
H154 H 0.53802 0.41661 0.46526 0.0
H155 H 0.45895 0.44154 0.46019 0.0
H156 H 0.49939 0.4411 0.42763 0.0
H157 H 0.58734 0.67003 0.53323 0.0
H158 H 0.52468 0.62243 0.5419 0.0
H159 H 0.60135 0.59091 0.54608 0.0
H160 H 0.41179 0.45093 0.55818 0.0
H161 H 0.59784 0.38142 0.56538 0.0
H162 H 0.40369 0.52385 0.48685 0.0
H163 H 0.42692 0.58301 0.51495 0.0
H164 H 0.37057 0.52579 0.52178 0.0
H165 H 0.63365 0.44154 0.49816 0.0
H166 H 0.67001 0.42369 0.53712 0.0
H167 H 0.65598 0.5032 0.52492 0.0
C168 C 0.48063 0.02151 0.06853 0.0
C169 C 0.49148 0.08507 0.06521 0.0
C170 C 0.49006 0.97906 0.04544 0.0
C171 C 0.5093 0.00102 0.01813 0.0
C172 C 0.52085 0.06513 0.01487 0.0
C173 C 0.51245 0.10623 0.03858 0.0
C174 C 0.47851 0.91086 0.05003 0.0
C175 C 0.54008 0.09065 0.98587 0.0
C176 C 0.57503 0.89029 0.96423 0.0
C177 C 0.52215 0.87725 0.94233 0.0
C178 C 0.57142 0.9296 0.98942 0.0
C179 C 0.51393 0.95769 0.9922 0.0
C180 C 0.46071 0.94539 0.96977 0.0
C181 C 0.46532 0.90466 0.94535 0.0
C182 C 0.62884 0.94049 0.01322 0.0
C183 C 0.39891 0.97551 0.97147 0.0
H184 H 0.46474 0.00498 0.08916 0.0
H185 H 0.52056 0.15541 0.03582 0.0
H186 H 0.43842 0.89507 0.03282 0.0
H187 H 0.51946 0.88324 0.04625 0.0
H188 H 0.46862 0.90073 0.07351 0.0
H189 H 0.54877 0.14148 0.98729 0.0
H190 H 0.58283 0.06711 0.98139 0.0
H191 H 0.50313 0.08128 0.96576 0.0
H192 H 0.61884 0.86843 0.96212 0.0
H193 H 0.42441 0.89465 0.92838 0.0
H194 H 0.61957 0.92786 0.0365 0.0
H195 H 0.64134 0.99044 0.01388 0.0
H196 H 0.66925 0.91311 0.00839 0.0
H197 H 0.38315 0.96218 0.99327 0.0
H198 H 0.36239 0.96212 0.95179 0.0
H199 H 0.40384 0.0268 0.97161 0.0
C200 C 0.04523 0.88736 0.04009 0.0
C201 C 0.01569 0.90887 0.06405 0.0
C202 C 0.05678 0.92729 0.01644 0.0
C203 C 0.03881 0.99039 0.01689 0.0
C204 C 0.01137 0.01296 0.04174 0.0
C205 C -0.00015 0.97184 0.06495 0.0
C206 C 0.08573 0.90131 0.99027 0.0
C207 C 0.99209 0.08008 0.04323 0.0
C208 C 0.10001 0.10756 0.96434 0.0
C209 C 0.04899 0.1134 0.94043 0.0
C210 C 0.09782 0.06723 0.98933 0.0
C211 C 0.04365 0.03146 0.99011 0.0
C212 C 0.99286 0.03587 0.96547 0.0
C213 C 0.99602 0.07706 0.94107 0.0
C214 C 0.15266 0.06423 0.01529 0.0
C215 C 0.93453 0.99803 0.96519 0.0
H216 H 0.05765 0.83872 0.03926 0.0
H217 H 0.97731 0.98881 0.0835 0.0
H218 H 0.05142 0.90285 0.96855 0.0
H219 H 0.12605 0.92999 0.98664 0.0
H220 H 0.10143 0.85254 0.99453 0.0
H221 H 0.97663 0.09151 0.0654 0.0
H222 H 0.0312 0.11115 0.04032 0.0
H223 H 0.95338 0.0901 0.02405 0.0
H224 H 0.14083 0.13604 0.96406 0.0
H225 H 0.95651 0.08138 0.9226 0.0
H226 H 0.16919 0.01564 0.01883 0.0
H227 H 0.13837 0.07978 0.03713 0.0
H228 H 0.19191 0.09372 0.01081 0.0
H229 H 0.94621 0.94792 0.96755 0.0
H230 H 0.90035 0.00486 0.94367 0.0
H231 H 0.91223 0.01112 0.98516 0.0
C232 C 0.66653 0.25406 0.18795 0.0
C233 C 0.61575 0.216 0.19064 0.0
C234 C 0.72001 0.25358 0.21081 0.0
C235 C 0.72191 0.2151 0.23714 0.0
C236 C 0.67084 0.17637 0.23979 0.0
C237 C 0.61866 0.17691 0.2164 0.0
C238 C 0.77414 0.2947 0.20699 0.0
C239 C 0.67053 0.1356 0.26776 0.0
C240 C 0.87583 0.17773 0.28835 0.0
C241 C 0.87756 0.22258 0.31158 0.0
C242 C 0.82572 0.17508 0.2637 0.0
C243 C 0.77586 0.21752 0.26273 0.0
C244 C 0.77675 0.26175 0.28663 0.0
C245 C 0.82791 0.26414 0.3106 0.0
C246 C 0.82666 0.12778 0.23841 0.0
C247 C 0.72375 0.30675 0.28684 0.0
H248 H 0.66451 0.28403 0.16798 0.0
H249 H 0.57937 0.14755 0.21867 0.0
H250 H 0.78122 0.33027 0.22551 0.0
H251 H 0.81738 0.26677 0.20926 0.0
H252 H 0.76698 0.31871 0.18428 0.0
H253 H 0.62757 0.10728 0.26596 0.0
H254 H 0.71111 0.10388 0.27089 0.0
H255 H 0.67457 0.16482 0.28882 0.0
H256 H 0.91456 0.14601 0.28891 0.0
H257 H 0.82917 0.29882 0.32859 0.0
H258 H 0.82378 0.15169 0.21584 0.0
H259 H 0.78564 0.09685 0.23672 0.0
H260 H 0.8693 0.09873 0.24237 0.0
H261 H 0.71831 0.33654 0.26596 0.0
H262 H 0.73093 0.33713 0.30757 0.0
H263 H 0.6796 0.2809 0.28617 0.0
C264 C 0.67231 0.29552 0.6907 0.0
C265 C 0.62774 0.24826 0.68586 0.0
C266 C 0.72328 0.29153 0.71469 0.0
C267 C 0.7286 0.23992 0.73492 0.0
C268 C 0.68417 0.19146 0.72981 0.0
C269 C 0.63456 0.19581 0.70496 0.0
C270 C 0.77076 0.34318 0.71872 0.0
C271 C 0.68763 0.1364 0.7513 0.0
C272 C 0.88668 0.21014 0.78321 0.0
C273 C 0.88194 0.24214 0.81052 0.0
C274 C 0.83681 0.20822 0.75856 0.0
C275 C 0.78028 0.23762 0.76164 0.0
C276 C 0.7745 0.26813 0.78962 0.0
C277 C 0.82586 0.27086 0.81362 0.0
C278 C 0.84543 0.1768 0.72883 0.0
C279 C 0.71439 0.2987 0.794 0.0
H280 H 0.66693 0.33603 0.67582 0.0
H281 H 0.59948 0.15972 0.70141 0.0
H282 H 0.76982 0.36765 0.74086 0.0
H283 H 0.81813 0.32376 0.71976 0.0
H284 H 0.7622 0.37768 0.69968 0.0
H285 H 0.65043 0.10189 0.74363 0.0
H286 H 0.73331 0.11302 0.75298 0.0
H287 H 0.68339 0.1525 0.77486 0.0
H288 H 0.93026 0.18827 0.78069 0.0
H289 H 0.82209 0.29524 0.83482 0.0
H290 H 0.84032 0.21148 0.70988 0.0
H291 H 0.8091 0.14103 0.72228 0.0
H292 H 0.89171 0.15441 0.73056 0.0
H293 H 0.70454 0.33872 0.77803 0.0
H294 H 0.71582 0.3156 0.818 0.0
H295 H 0.67526 0.26554 0.78831 0.0
C296 C 0.15723 0.76838 0.68676 0.0
C297 C 0.10141 0.74192 0.69192 0.0
C298 C 0.20941 0.76941 0.71037 0.0
C299 C 0.20459 0.74503 0.73986 0.0
C300 C 0.14751 0.72031 0.74535 0.0
C301 C 0.09689 0.7183 0.72118 0.0
C302 C 0.27001 0.795 0.70359 0.0
C303 C 0.13999 0.6955 0.77668 0.0
C304 C 0.34766 0.68922 0.7942 0.0
C305 C 0.36136 0.74075 0.81358 0.0
C306 C 0.29747 0.69053 0.76964 0.0
C307 C 0.25934 0.74406 0.76497 0.0
C308 C 0.27217 0.79564 0.78499 0.0
C309 C 0.32362 0.79366 0.80884 0.0
C310 C 0.28579 0.63503 0.74843 0.0
C311 C 0.23146 0.85277 0.78128 0.0
H312 H 0.16063 0.78634 0.66405 0.0
H313 H 0.05337 0.69841 0.72524 0.0
H314 H 0.28632 0.83345 0.71972 0.0
H315 H 0.30614 0.75825 0.70725 0.0
H316 H 0.26592 0.81248 0.67954 0.0
H317 H 0.09144 0.6812 0.77753 0.0
H318 H 0.17078 0.65479 0.78265 0.0
H319 H 0.15402 0.73131 0.79467 0.0
H320 H 0.37743 0.64865 0.7976 0.0
H321 H 0.33433 0.83355 0.82385 0.0
H322 H 0.28576 0.64962 0.7242 0.0
H323 H 0.23938 0.61509 0.74947 0.0
H324 H 0.32125 0.59808 0.7545 0.0
H325 H 0.2311 0.87367 0.75818 0.0
H326 H 0.24728 0.88845 0.79914 0.0
H327 H 0.18288 0.8398 0.78275 0.0
C328 C 0.37003 0.68733 0.28949 0.0
C329 C 0.36948 0.72768 0.3145 0.0
C330 C 0.32004 0.68524 0.2649 0.0
C331 C 0.2675 0.72312 0.26584 0.0
C332 C 0.26517 0.76124 0.29194 0.0
C333 C 0.31679 0.7639 0.31578 0.0
C334 C 0.32512 0.64534 0.23716 0.0
C335 C 0.20905 0.80081 0.29417 0.0
C336 C 0.17122 0.78157 0.19157 0.0
C337 C 0.12068 0.74079 0.18781 0.0
C338 C 0.22042 0.77472 0.21628 0.0
C339 C 0.2177 0.72733 0.23836 0.0
C340 C 0.16705 0.68535 0.23438 0.0
C341 C 0.11942 0.69201 0.20876 0.0
C342 C 0.27467 0.81906 0.21908 0.0
C343 C 0.16177 0.63534 0.25788 0.0
H344 H 0.411 0.65956 0.28835 0.0
H345 H 0.31622 0.79478 0.33522 0.0
H346 H 0.28356 0.61535 0.23124 0.0
H347 H 0.3272 0.67555 0.21689 0.0
H348 H 0.36712 0.61537 0.24099 0.0
H349 H 0.21138 0.82165 0.31747 0.0
H350 H 0.20556 0.83891 0.27697 0.0
H351 H 0.16598 0.77274 0.28877 0.0
H352 H 0.17195 0.81926 0.17526 0.0
H353 H 0.07966 0.66115 0.206 0.0
H354 H 0.31899 0.79281 0.22184 0.0
H355 H 0.27602 0.84841 0.23993 0.0
H356 H 0.27196 0.84996 0.19865 0.0
H357 H 0.20421 0.60617 0.26171 0.0
H358 H 0.12084 0.60487 0.25072 0.0
H359 H 0.15769 0.65713 0.28034 0.0
C360 C 0.30469 0.20003 0.20469 0.0
C361 C 0.33897 0.24778 0.19394 0.0
C362 C 0.26874 0.21139 0.22776 0.0
C363 C 0.26705 0.27194 0.24025 0.0
C364 C 0.30109 0.32043 0.22925 0.0
C365 C 0.33669 0.30773 0.20625 0.0
C366 C 0.23294 0.15851 0.23894 0.0
C367 C 0.30027 0.38558 0.24192 0.0
C368 C 0.1309 0.30603 0.28105 0.0
C369 C 0.15692 0.29437 0.31194 0.0
C370 C 0.1668 0.30107 0.25752 0.0
C371 C 0.23016 0.28414 0.26512 0.0
C372 C 0.25747 0.27572 0.29644 0.0
C373 C 0.22047 0.28094 0.3195 0.0
C374 C 0.13617 0.31097 0.22441 0.0
C375 C 0.32505 0.25824 0.30548 0.0
H376 H 0.30632 0.15368 0.19524 0.0
H377 H 0.36301 0.34494 0.19798 0.0
H378 H 0.24882 0.1511 0.26402 0.0
H379 H 0.18279 0.17019 0.23567 0.0
H380 H 0.23862 0.11438 0.22661 0.0
H381 H 0.32842 0.41832 0.23045 0.0
H382 H 0.25187 0.40314 0.23892 0.0
H383 H 0.31858 0.38546 0.26706 0.0
H384 H 0.08178 0.31642 0.27507 0.0
H385 H 0.24082 0.27191 0.34335 0.0
H386 H 0.13478 0.2664 0.21164 0.0
H387 H 0.16347 0.34422 0.21282 0.0
H388 H 0.08795 0.32879 0.22259 0.0
H389 H 0.33287 0.21135 0.29639 0.0
H390 H 0.34024 0.25788 0.33092 0.0
H391 H 0.35479 0.29114 0.29513 0.0
C392 C 0.32052 0.22316 0.70022 0.0
C393 C 0.35304 0.27743 0.69543 0.0
C394 C 0.28441 0.21981 0.72366 0.0
C395 C 0.28165 0.27165 0.74316 0.0
C396 C 0.31515 0.32634 0.73876 0.0
C397 C 0.35005 0.3288 0.71468 0.0
C398 C 0.24832 0.16114 0.72718 0.0
C399 C 0.31401 0.38218 0.75944 0.0
C400 C 0.14074 0.28602 0.78251 0.0
C401 C 0.16284 0.26114 0.81178 0.0
C402 C 0.17899 0.28967 0.76 0.0
C403 C 0.24135 0.26933 0.76721 0.0
C404 C 0.26424 0.2449 0.79691 0.0
C405 C 0.22433 0.24032 0.81879 0.0
C406 C 0.15235 0.31446 0.72836 0.0
C407 C 0.33082 0.22385 0.80558 0.0
H408 H 0.32261 0.18336 0.68532 0.0
H409 H 0.3756 0.37061 0.71117 0.0
H410 H 0.26204 0.14196 0.75078 0.0
H411 H 0.19794 0.17178 0.7241 0.0
H412 H 0.25581 0.12487 0.71021 0.0
H413 H 0.34512 0.41988 0.75397 0.0
H414 H 0.26606 0.40073 0.757 0.0
H415 H 0.32836 0.36848 0.78396 0.0
H416 H 0.09301 0.30182 0.77701 0.0
H417 H 0.24153 0.22156 0.84152 0.0
H418 H 0.15626 0.27874 0.71058 0.0
H419 H 0.17916 0.35557 0.72297 0.0
H420 H 0.10276 0.32797 0.72646 0.0
H421 H 0.33997 0.18471 0.79056 0.0
H422 H 0.3421 0.20865 0.83005 0.0
H423 H 0.36267 0.26218 0.80182 0.0
C424 C 0.60822 0.7584 0.77339 0.0
C425 C 0.63393 0.77377 0.80386 0.0
C426 C 0.64509 0.75627 0.75026 0.0
C427 C 0.70951 0.76827 0.75801 0.0
C428 C 0.73542 0.78565 0.78859 0.0
C429 C 0.69701 0.78892 0.81116 0.0
C430 C 0.61542 0.73928 0.71774 0.0
C431 C 0.8041 0.79792 0.79777 0.0
C432 C 0.81101 0.69259 0.70639 0.0
C433 C 0.82433 0.74299 0.68849 0.0
C434 C 0.77457 0.70047 0.72954 0.0
C435 C 0.74995 0.75989 0.73434 0.0
C436 C 0.76258 0.81072 0.71599 0.0
C437 C 0.80016 0.80176 0.69347 0.0
C438 C 0.76274 0.64535 0.74898 0.0
C439 C 0.736 0.8744 0.71997 0.0
H440 H 0.55926 0.74701 0.76774 0.0
H441 H 0.7169 0.80025 0.83482 0.0
H442 H 0.62778 0.77398 0.70112 0.0
H443 H 0.63327 0.69365 0.71145 0.0
H444 H 0.564 0.7365 0.71504 0.0
H445 H 0.81642 0.81372 0.82211 0.0
H446 H 0.83046 0.75486 0.7949 0.0
H447 H 0.8194 0.83367 0.7825 0.0
H448 H 0.83012 0.64727 0.70273 0.0
H449 H 0.81026 0.84081 0.67955 0.0
H450 H 0.71223 0.63541 0.74572 0.0
H451 H 0.77817 0.656 0.77381 0.0
H452 H 0.78721 0.60291 0.7431 0.0
H453 H 0.68453 0.87198 0.71621 0.0
H454 H 0.75006 0.90896 0.70368 0.0
H455 H 0.75151 0.89116 0.7439 0.0
C456 C 0.83831 0.8405 0.20946 0.0
C457 C 0.84133 0.78934 0.19009 0.0
C458 C 0.80077 0.83877 0.2325 0.0
C459 C 0.76486 0.78507 0.23568 0.0
C460 C 0.76657 0.7341 0.21553 0.0
C461 C 0.80518 0.73668 0.19319 0.0
C462 C 0.8006 0.89367 0.25385 0.0
C463 C 0.72803 0.67652 0.21774 0.0
C464 C 0.71121 0.74513 0.31109 0.0
C465 C 0.64938 0.76529 0.30528 0.0
C466 C 0.75005 0.75335 0.28902 0.0
C467 C 0.72596 0.78121 0.26027 0.0
C468 C 0.66351 0.80167 0.25433 0.0
C469 C 0.62611 0.79396 0.27705 0.0
C470 C 0.81667 0.73169 0.29632 0.0
C471 C 0.63578 0.83034 0.22372 0.0
H472 H 0.86647 0.88111 0.20716 0.0
H473 H 0.80706 0.69719 0.17806 0.0
H474 H 0.75256 0.91118 0.25292 0.0
H475 H 0.81772 0.87906 0.27801 0.0
H476 H 0.83016 0.93234 0.24795 0.0
H477 H 0.73263 0.64215 0.19941 0.0
H478 H 0.74245 0.65402 0.24054 0.0
H479 H 0.6783 0.68918 0.21593 0.0
H480 H 0.72946 0.72355 0.33305 0.0
H481 H 0.57824 0.80955 0.2725 0.0
H482 H 0.84847 0.77011 0.29265 0.0
H483 H 0.82437 0.69345 0.28047 0.0
H484 H 0.82934 0.71486 0.32047 0.0
H485 H 0.66368 0.87101 0.2188 0.0
H486 H 0.58698 0.84551 0.22312 0.0
H487 H 0.63688 0.79621 0.20489 0.0
C488 C 0.30962 0.21889 0.53479 0.0
C489 C 0.3495 0.18222 0.55571 0.0
C490 C 0.26769 0.19221 0.51087 0.0
C491 C 0.26436 0.12663 0.50806 0.0
C492 C 0.30462 0.089 0.52913 0.0
C493 C 0.34768 0.11744 0.55252 0.0
C494 C 0.2265 0.23471 0.48879 0.0
C495 C 0.30268 0.01908 0.52721 0.0
C496 C 0.10814 0.10537 0.46069 0.0
C497 C 0.12386 0.11248 0.43125 0.0
C498 C 0.1547 0.09813 0.48668 0.0
C499 C 0.21776 0.09978 0.48289 0.0
C500 C 0.23272 0.09503 0.45289 0.0
C501 C 0.18521 0.1008 0.42723 0.0
C502 C 0.13679 0.09859 0.51835 0.0
C503 C 0.29928 0.09424 0.44781 0.0
H504 H 0.31132 0.26904 0.53704 0.0
H505 H 0.37854 0.08902 0.56875 0.0
H506 H 0.23145 0.22417 0.46461 0.0
H507 H 0.17714 0.22732 0.4909 0.0
H508 H 0.2376 0.28458 0.49327 0.0
H509 H 0.31886 0.99771 0.55018 0.0
H510 H 0.25532 0.00168 0.5181 0.0
H511 H 0.33423 0.00326 0.51147 0.0
H512 H 0.06047 0.11239 0.46388 0.0
H513 H 0.19754 0.10441 0.4044 0.0
H514 H 0.13955 0.14682 0.5274 0.0
H515 H 0.16903 0.06939 0.53463 0.0
H516 H 0.08854 0.08162 0.51762 0.0
H517 H 0.31881 0.14183 0.45116 0.0
H518 H 0.30314 0.07868 0.4241 0.0
H519 H 0.3278 0.0633 0.46474 0.0
C520 C 0.79335 0.78755 0.53412 0.0
C521 C 0.831 0.823 0.55653 0.0
C522 C 0.75138 0.8156 0.5107 0.0
C523 C 0.74605 0.88128 0.5098 0.0
C524 C 0.7838 0.91765 0.53248 0.0
C525 C 0.82637 0.88793 0.5556 0.0
C526 C 0.71287 0.77436 0.48688 0.0
C527 C 0.77797 0.98741 0.53316 0.0
C528 C 0.67954 0.90904 0.42807 0.0
C529 C 0.61786 0.89285 0.42931 0.0
C530 C 0.72234 0.9174 0.45531 0.0
C531 C 0.70217 0.90965 0.48401 0.0
C532 C 0.6377 0.90765 0.48493 0.0
C533 C 0.59577 0.89871 0.4573 0.0
C534 C 0.79036 0.92249 0.45319 0.0
C535 C 0.61413 0.90397 0.51519 0.0
H536 H 0.79699 0.73732 0.53476 0.0
H537 H 0.85485 0.91531 0.57328 0.0
H538 H 0.66282 0.78007 0.48795 0.0
H539 H 0.71995 0.78753 0.46331 0.0
H540 H 0.72468 0.7244 0.49039 0.0
H541 H 0.82086 0.00929 0.54586 0.0
H542 H 0.76773 0.00742 0.50959 0.0
H543 H 0.73894 0.99978 0.54523 0.0
H544 H 0.69624 0.90655 0.40621 0.0
H545 H 0.54769 0.88783 0.45829 0.0
H546 H 0.81149 0.87546 0.45542 0.0
H547 H 0.81533 0.95176 0.47206 0.0
H548 H 0.79721 0.94229 0.43065 0.0
H549 H 0.61686 0.85515 0.52343 0.0
H550 H 0.56493 0.91923 0.51258 0.0
H551 H 0.64289 0.93296 0.53302 0.0
C552 C 0.80338 0.72383 0.03543 0.0
C553 C 0.84342 0.68775 0.05656 0.0
C554 C 0.76044 0.69633 0.01219 0.0
C555 C 0.7563 0.63065 0.01036 0.0
C556 C 0.79617 0.59369 0.0319 0.0
C557 C 0.84018 0.62282 0.05453 0.0
C558 C 0.71954 0.73805 0.98957 0.0
C559 C 0.79308 0.52371 0.03119 0.0
C560 C 0.60172 0.60722 0.96143 0.0
C561 C 0.61933 0.61217 0.93228 0.0
C562 C 0.64703 0.60191 0.98807 0.0
C563 C 0.71058 0.60286 0.98514 0.0
C564 C 0.72736 0.59572 0.95564 0.0
C565 C 0.68117 0.59991 0.92938 0.0
C566 C 0.6273 0.60487 0.0193 0.0
C567 C 0.7945 0.59396 0.95153 0.0
H568 H 0.80598 0.77406 0.03687 0.0
H569 H 0.87098 0.59484 0.07102 0.0
H570 H 0.72466 0.72623 0.96554 0.0
H571 H 0.67009 0.73115 0.99164 0.0
H572 H 0.7308 0.78804 0.99348 0.0
H573 H 0.80772 0.50396 0.05466 0.0
H574 H 0.74574 0.5066 0.02181 0.0
H575 H 0.82544 0.50587 0.01632 0.0
H576 H 0.55368 0.61474 0.9638 0.0
H577 H 0.69478 0.60155 0.90677 0.0
H578 H 0.62959 0.65372 0.02747 0.0
H579 H 0.65878 0.57674 0.03645 0.0
H580 H 0.57888 0.58813 0.01822 0.0
H581 H 0.81436 0.64144 0.95471 0.0
H582 H 0.79964 0.57734 0.92815 0.0
H583 H 0.8219 0.56339 0.96906 0.0
C584 C 0.30641 0.28335 0.03549 0.0
C585 C 0.3388 0.3178 0.06001 0.0
C586 C 0.26166 0.31106 0.01318 0.0
C587 C 0.24786 0.37504 0.01573 0.0
C588 C 0.28151 0.41068 0.04011 0.0
C589 C 0.32721 0.38156 0.06196 0.0
C590 C 0.22808 0.27101 0.9873 0.0
C591 C 0.26739 0.47842 0.04422 0.0
C592 C 0.16419 0.41657 0.93762 0.0
C593 C 0.10582 0.39152 0.93992 0.0
C594 C 0.21044 0.42157 0.96384 0.0
C595 C 0.19705 0.40214 0.99275 0.0
C596 C 0.13471 0.39001 0.99589 0.0
C597 C 0.08951 0.38429 0.96923 0.0
C598 C 0.27577 0.43722 0.95959 0.0
C599 C 0.11781 0.37318 0.02672 0.0
H600 H 0.31571 0.23407 0.03393 0.0
H601 H 0.35181 0.40797 0.08123 0.0
H602 H 0.1782 0.26749 0.98921 0.0
H603 H 0.23109 0.29214 0.96457 0.0
H604 H 0.24738 0.22322 0.9877 0.0
H605 H 0.30802 0.50307 0.05749 0.0
H606 H 0.25319 0.50224 0.02175 0.0
H607 H 0.22838 0.48221 0.05734 0.0
H608 H 0.17652 0.42434 0.91502 0.0
H609 H 0.04384 0.36681 0.97128 0.0
H610 H 0.3017 0.3935 0.95754 0.0
H611 H 0.30062 0.46334 0.97971 0.0
H612 H 0.27611 0.46499 0.93831 0.0
H613 H 0.12889 0.32351 0.03168 0.0
H614 H 0.06744 0.38014 0.02684 0.0
H615 H 0.14489 0.40129 0.04549 0.0
loop_
_geom_bond_atom_site_label_1
_geom_bond_atom_site_label_2
_geom_bond_distance
_geom_bond_site_symmetry_2
_ccdc_geom_bond_type
In0 O1 2.294 1_455 S
In0 O2 2.326 1_455 S
In0 O6 2.266 . S
In0 O7 2.326 . S
In0 O8 2.266 . S
In0 O9 2.326 1_455 S
In0 O11 2.294 . S
In0 O12 2.326 . S
O1 In0 2.294 1_655 S
O1 C10 1.240 . S
O2 In0 2.326 1_655 S
O2 C10 1.252 . S
C3 O6 1.252 . S
C3 O7 1.260 . S
C4 O11 1.240 . S
C4 O12 1.252 . S
C5 O8 1.252 . S
C5 O9 1.260 1_455 S
O6 In0 2.266 . S
O6 C3 1.252 . S
O7 In0 2.326 . S
O7 C3 1.260 . S
O8 In0 2.266 . S
O8 C5 1.252 . S
O9 In0 2.326 1_655 S
O9 C5 1.260 1_655 S
C10 O1 1.240 . S
C10 O2 1.252 . S
O11 In0 2.294 . S
O11 C4 1.240 . S
O12 In0 2.326 . S
O12 C4 1.252 . S
In13 O14 2.294 . S
In13 O15 2.326 . S
In13 O19 2.266 . S
In13 O20 2.326 . S
In13 O21 2.266 . S
In13 O22 2.326 . S
In13 O24 2.294 . S
In13 O25 2.326 . S
O14 In13 2.294 . S
O14 C23 1.240 . S
O15 In13 2.326 . S
O15 C23 1.252 . S
C16 O19 1.252 . S
C16 O20 1.260 . S
C17 O24 1.240 . S
C17 O25 1.252 . S
C18 O21 1.252 . S
C18 O22 1.260 . S
O19 In13 2.266 . S
O19 C16 1.252 . S
O20 In13 2.326 . S
O20 C16 1.260 . S
O21 In13 2.266 . S
O21 C18 1.252 . S
O22 In13 2.326 . S
O22 C18 1.260 . S
C23 O14 1.240 . S
C23 O15 1.252 . S
O24 In13 2.294 . S
O24 C17 1.240 . S
O25 In13 2.326 . S
O25 C17 1.252 . S
In26 O27 2.294 . S
In26 O28 2.326 . S
In26 O32 2.266 . S
In26 O33 2.326 1_655 S
In26 O34 2.266 . S
In26 O35 2.326 . S
In26 O37 2.294 1_655 S
In26 O38 2.326 1_655 S
O27 In26 2.294 . S
O27 C36 1.240 . S
O28 In26 2.326 . S
O28 C36 1.252 . S
C29 O32 1.252 . S
C29 O33 1.260 1_655 S
C30 O37 1.240 . S
C30 O38 1.252 . S
C31 O34 1.252 . S
C31 O35 1.260 . S
O32 In26 2.266 . S
O32 C29 1.252 . S
O33 In26 2.326 1_455 S
O33 C29 1.260 1_455 S
O34 In26 2.266 . S
O34 C31 1.252 . S
O35 In26 2.326 . S
O35 C31 1.260 . S
C36 O27 1.240 . S
C36 O28 1.252 . S
O37 In26 2.294 1_455 S
O37 C30 1.240 . S
O38 In26 2.326 1_455 S
O38 C30 1.252 . S
In39 O40 2.294 . S
In39 O41 2.326 . S
In39 O45 2.266 . S
In39 O46 2.326 . S
In39 O47 2.266 . S
In39 O48 2.326 . S
In39 O50 2.294 . S
In39 O51 2.326 . S
O40 In39 2.294 . S
O40 C49 1.240 . S
O41 In39 2.326 . S
O41 C49 1.252 . S
C42 O45 1.252 . S
C42 O46 1.260 . S
C43 O50 1.240 . S
C43 O51 1.252 . S
C44 O47 1.252 . S
C44 O48 1.260 . S
O45 In39 2.266 . S
O45 C42 1.252 . S
O46 In39 2.326 . S
O46 C42 1.260 . S
O47 In39 2.266 . S
O47 C44 1.252 . S
O48 In39 2.326 . S
O48 C44 1.260 . S
C49 O40 1.240 . S
C49 O41 1.252 . S
O50 In39 2.294 . S
O50 C43 1.240 . S
O51 In39 2.326 . S
O51 C43 1.252 . S
In52 O53 2.294 . S
In52 O54 2.326 . S
In52 O58 2.266 . S
In52 O59 2.326 . S
In52 O60 2.266 . S
In52 O61 2.326 . S
In52 O63 2.294 . S
In52 O64 2.326 . S
O53 In52 2.294 . S
O53 C62 1.240 . S
O54 In52 2.326 . S
O54 C62 1.252 . S
C55 O58 1.252 . S
C55 O59 1.260 . S
C56 O63 1.240 . S
C56 O64 1.252 . S
C57 O60 1.252 . S
C57 O61 1.260 . S
O58 In52 2.266 . S
O58 C55 1.252 . S
O59 In52 2.326 . S
O59 C55 1.260 . S
O60 In52 2.266 . S
O60 C57 1.252 . S
O61 In52 2.326 . S
O61 C57 1.260 . S
C62 O53 1.240 . S
C62 O54 1.252 . S
O63 In52 2.294 . S
O63 C56 1.240 . S
O64 In52 2.326 . S
O64 C56 1.252 . S
In65 O66 2.294 1_655 S
In65 O67 2.326 1_655 S
In65 O71 2.266 . S
In65 O72 2.326 . S
In65 O73 2.266 . S
In65 O74 2.326 1_655 S
In65 O76 2.294 . S
In65 O77 2.326 . S
O66 In65 2.294 1_455 S
O66 C75 1.240 . S
O67 In65 2.326 1_455 S
O67 C75 1.252 . S
C68 O71 1.252 . S
C68 O72 1.260 . S
C69 O76 1.240 . S
C69 O77 1.252 . S
C70 O73 1.252 . S
C70 O74 1.260 1_655 S
O71 In65 2.266 . S
O71 C68 1.252 . S
O72 In65 2.326 . S
O72 C68 1.260 . S
O73 In65 2.266 . S
O73 C70 1.252 . S
O74 In65 2.326 1_455 S
O74 C70 1.260 1_455 S
C75 O66 1.240 . S
C75 O67 1.252 . S
O76 In65 2.294 . S
O76 C69 1.240 . S
O77 In65 2.326 . S
O77 C69 1.252 . S
In78 O79 2.294 . S
In78 O80 2.326 . S
In78 O84 2.266 . S
In78 O85 2.326 . S
In78 O86 2.266 . S
In78 O87 2.326 . S
In78 O89 2.294 . S
In78 O90 2.326 . S
O79 In78 2.294 . S
O79 C88 1.240 . S
O80 In78 2.326 . S
O80 C88 1.252 . S
C81 O84 1.252 . S
C81 O85 1.260 . S
C82 O89 1.240 . S
C82 O90 1.252 . S
C83 O86 1.252 . S
C83 O87 1.260 . S
O84 In78 2.266 . S
O84 C81 1.252 . S
O85 In78 2.326 . S
O85 C81 1.260 . S
O86 In78 2.266 . S
O86 C83 1.252 . S
O87 In78 2.326 . S
O87 C83 1.260 . S
C88 O79 1.240 . S
C88 O80 1.252 . S
O89 In78 2.294 . S
O89 C82 1.240 . S
O90 In78 2.326 . S
O90 C82 1.252 . S
In91 O92 2.294 . S
In91 O93 2.326 . S
In91 O97 2.266 . S
In91 O98 2.326 1_455 S
In91 O99 2.266 . S
In91 O100 2.326 . S
In91 O102 2.294 1_455 S
In91 O103 2.326 1_455 S
O92 In91 2.294 . S
O92 C101 1.240 . S
O93 In91 2.326 . S
O93 C101 1.252 . S
C94 O97 1.252 . S
C94 O98 1.260 1_455 S
C95 O102 1.240 . S
C95 O103 1.252 . S
C96 O99 1.252 . S
C96 O100 1.260 . S
O97 In91 2.266 . S
O97 C94 1.252 . S
O98 In91 2.326 1_655 S
O98 C94 1.260 1_655 S
O99 In91 2.266 . S
O99 C96 1.252 . S
O100 In91 2.326 . S
O100 C96 1.260 . S
C101 O92 1.240 . S
C101 O93 1.252 . S
O102 In91 2.294 1_655 S
O102 C95 1.240 . S
O103 In91 2.326 1_655 S
O103 C95 1.252 . S
C104 C105 1.391 1_655 S
C104 C106 1.394 . S
C104 H120 0.931 . S
C105 C104 1.391 1_455 S
C105 C109 1.376 . S
C106 C104 1.394 . S
C106 C107 1.355 1_655 S
C106 C110 1.531 . S
C107 C106 1.355 1_455 S
C107 C108 1.427 . S
C107 C115 1.500 1_455 S
C108 C107 1.427 . S
C108 C109 1.392 . S
C108 C111 1.511 . S
C109 C105 1.376 . S
C109 C108 1.392 . S
C109 H121 0.929 . S
C110 C106 1.531 . S
C110 H122 0.960 . S
C110 H123 0.962 . S
C110 H124 0.960 . S
C111 C108 1.511 . S
C111 H125 0.961 . S
C111 H126 0.961 . S
C111 H127 0.961 . S
C112 C113 1.370 . S
C112 C114 1.363 . S
C112 H128 0.931 . S
C113 C112 1.370 . S
C113 C117 1.408 . S
C114 C112 1.363 . S
C114 C115 1.370 . S
C114 C118 1.524 . S
C115 C107 1.500 1_655 S
C115 C114 1.370 . S
C115 C116 1.403 . S
C116 C115 1.403 . S
C116 C117 1.404 . S
C116 C119 1.539 1_655 S
C117 C113 1.408 . S
C117 C116 1.404 . S
C117 H129 0.930 . S
C118 C114 1.524 . S
C118 H130 0.956 . S
C118 H131 0.961 1_655 S
C118 H132 0.961 . S
C119 C116 1.539 1_455 S
C119 H133 0.958 1_455 S
C119 H134 0.961 . S
C119 H135 0.960 . S
H120 C104 0.931 . S
H121 C109 0.929 . S
H122 C110 0.960 . S
H123 C110 0.962 . S
H124 C110 0.960 . S
H125 C111 0.961 . S
H126 C111 0.961 . S
H127 C111 0.961 . S
H128 C112 0.931 . S
H129 C117 0.930 . S
H130 C118 0.956 . S
H131 C118 0.961 1_455 S
H132 C118 0.961 . S
H133 C119 0.958 1_655 S
H134 C119 0.961 . S
H135 C119 0.960 . S
C136 C137 1.391 . S
C136 C138 1.394 . S
C136 H152 0.931 . S
C137 C136 1.391 . S
C137 C141 1.376 . S
C138 C136 1.394 . S
C138 C139 1.369 . S
C138 C142 1.531 . S
C139 C138 1.369 . S
C139 C140 1.410 . S
C139 C147 1.503 . S
C140 C139 1.410 . S
C140 C141 1.392 . S
C140 C143 1.511 . S
C141 C137 1.376 . S
C141 C140 1.392 . S
C141 H153 0.929 . S
C142 C138 1.531 . S
C142 H154 0.960 . S
C142 H155 0.962 . S
C142 H156 0.960 . S
C143 C140 1.511 . S
C143 H157 0.961 . S
C143 H158 0.961 . S
C143 H159 0.961 . S
C144 C145 1.370 . S
C144 C146 1.363 . S
C144 H160 0.931 . S
C145 C144 1.370 . S
C145 C149 1.408 . S
C146 C144 1.363 . S
C146 C147 1.370 . S
C146 C150 1.524 . S
C147 C139 1.503 . S
C147 C146 1.370 . S
C147 C148 1.403 . S
C148 C147 1.403 . S
C148 C149 1.404 . S
C148 C151 1.539 . S
C149 C145 1.408 . S
C149 C148 1.404 . S
C149 H161 0.930 . S
C150 C146 1.524 . S
C150 H162 0.956 . S
C150 H163 0.961 . S
C150 H164 0.961 . S
C151 C148 1.539 . S
C151 H165 0.958 . S
C151 H166 0.961 . S
C151 H167 0.960 . S
H152 C136 0.931 . S
H153 C141 0.929 . S
H154 C142 0.960 . S
H155 C142 0.962 . S
H156 C142 0.960 . S
H157 C143 0.961 . S
H158 C143 0.961 . S
H159 C143 0.961 . S
H160 C144 0.931 . S
H161 C149 0.930 . S
H162 C150 0.956 . S
H163 C150 0.961 . S
H164 C150 0.961 . S
H165 C151 0.958 . S
H166 C151 0.961 . S
H167 C151 0.960 . S
C168 C169 1.391 . S
C168 C170 1.394 . S
C168 H184 0.931 . S
C169 C168 1.391 . S
C169 C173 1.376 . S
C170 C168 1.394 . S
C170 C171 1.369 . S
C170 C174 1.531 1_545 S
C171 C170 1.369 . S
C171 C172 1.410 . S
C171 C179 1.503 1_544 S
C172 C171 1.410 . S
C172 C173 1.392 . S
C172 C175 1.511 1_554 S
C173 C169 1.376 . S
C173 C172 1.392 . S
C173 H185 0.929 . S
C174 C170 1.531 1_565 S
C174 H186 0.960 . S
C174 H187 0.962 . S
C174 H188 0.960 . S
C175 C172 1.511 1_556 S
C175 H189 0.961 . S
C175 H190 0.961 . S
C175 H191 0.961 . S
C176 C177 1.370 . S
C176 C178 1.363 . S
C176 H192 0.931 . S
C177 C176 1.370 . S
C177 C181 1.408 . S
C178 C176 1.363 . S
C178 C179 1.370 . S
C178 C182 1.524 1_556 S
C179 C171 1.503 1_566 S
C179 C178 1.370 . S
C179 C180 1.403 . S
C180 C179 1.403 . S
C180 C181 1.404 . S
C180 C183 1.539 . S
C181 C177 1.408 . S
C181 C180 1.404 . S
C181 H193 0.930 . S
C182 C178 1.524 1_554 S
C182 H194 0.956 . S
C182 H195 0.961 1_565 S
C182 H196 0.961 . S
C183 C180 1.539 . S
C183 H197 0.958 . S
C183 H198 0.961 1_565 S
C183 H199 0.960 1_565 S
H184 C168 0.931 . S
H185 C173 0.929 . S
H186 C174 0.960 . S
H187 C174 0.962 . S
H188 C174 0.960 . S
H189 C175 0.961 . S
H190 C175 0.961 . S
H191 C175 0.961 . S
H192 C176 0.931 . S
H193 C181 0.930 . S
H194 C182 0.956 . S
H195 C182 0.961 1_545 S
H196 C182 0.961 . S
H197 C183 0.958 . S
H198 C183 0.961 1_545 S
H199 C183 0.960 1_545 S
C200 C201 1.391 1_455 S
C200 C202 1.394 . S
C200 H216 0.931 . S
C201 C200 1.391 1_655 S
C201 C205 1.376 . S
C202 C200 1.394 . S
C202 C203 1.369 1_455 S
C202 C206 1.531 1_554 S
C203 C202 1.369 1_655 S
C203 C204 1.410 . S
C203 C211 1.503 1_564 S
C204 C203 1.410 . S
C204 C205 1.392 . S
C204 C207 1.511 1_565 S
C205 C201 1.376 . S
C205 C204 1.392 . S
C205 H217 0.929 . S
C206 C202 1.531 1_556 S
C206 H218 0.960 . S
C206 H219 0.962 . S
C206 H220 0.960 . S
C207 C204 1.511 1_545 S
C207 H221 0.961 . S
C207 H222 0.961 . S
C207 H223 0.961 . S
C208 C209 1.370 . S
C208 C210 1.363 . S
C208 H224 0.931 . S
C209 C208 1.370 . S
C209 C213 1.408 1_455 S
C210 C208 1.363 . S
C210 C211 1.370 1_455 S
C210 C214 1.524 1_556 S
C211 C203 1.503 1_546 S
C211 C210 1.370 1_655 S
C211 C212 1.403 . S
C212 C211 1.403 . S
C212 C213 1.404 . S
C212 C215 1.539 1_545 S
C213 C209 1.408 1_655 S
C213 C212 1.404 . S
C213 H225 0.930 . S
C214 C210 1.524 1_554 S
C214 H226 0.956 . S
C214 H227 0.961 . S
C214 H228 0.961 . S
C215 C212 1.539 1_565 S
C215 H229 0.958 . S
C215 H230 0.961 1_565 S
C215 H231 0.960 . S
H216 C200 0.931 . S
H217 C205 0.929 . S
H218 C206 0.960 . S
H219 C206 0.962 . S
H220 C206 0.960 . S
H221 C207 0.961 . S
H222 C207 0.961 . S
H223 C207 0.961 . S
H224 C208 0.931 . S
H225 C213 0.930 . S
H226 C214 0.956 . S
H227 C214 0.961 . S
H228 C214 0.961 . S
H229 C215 0.958 . S
H230 C215 0.961 1_545 S
H231 C215 0.960 . S
C232 C233 1.391 . S
C232 C234 1.394 . S
C232 H248 0.931 . S
C233 C232 1.391 . S
C233 C237 1.376 . S
C234 C232 1.394 . S
C234 C235 1.369 . S
C234 C238 1.531 . S
C235 C234 1.369 . S
C235 C236 1.410 . S
C235 C243 1.503 . S
C236 C235 1.410 . S
C236 C237 1.392 . S
C236 C239 1.511 . S
C237 C233 1.376 . S
C237 C236 1.392 . S
C237 H249 0.929 . S
C238 C234 1.531 . S
C238 H250 0.960 . S
C238 H251 0.962 . S
C238 H252 0.960 . S
C239 C236 1.511 . S
C239 H253 0.961 . S
C239 H254 0.961 . S
C239 H255 0.961 . S
C240 C241 1.370 . S
C240 C242 1.363 . S
C240 H256 0.931 . S
C241 C240 1.370 . S
C241 C245 1.408 . S
C242 C240 1.363 . S
C242 C243 1.370 . S
C242 C246 1.524 . S
C243 C235 1.503 . S
C243 C242 1.370 . S
C243 C244 1.403 . S
C244 C243 1.403 . S
C244 C245 1.404 . S
C244 C247 1.539 . S
C245 C241 1.408 . S
C245 C244 1.404 . S
C245 H257 0.930 . S
C246 C242 1.524 . S
C246 H258 0.956 . S
C246 H259 0.961 . S
C246 H260 0.961 . S
C247 C244 1.539 . S
C247 H261 0.958 . S
C247 H262 0.961 . S
C247 H263 0.960 . S
H248 C232 0.931 . S
H249 C237 0.929 . S
H250 C238 0.960 . S
H251 C238 0.962 . S
H252 C238 0.960 . S
H253 C239 0.961 . S
H254 C239 0.961 . S
H255 C239 0.961 . S
H256 C240 0.931 . S
H257 C245 0.930 . S
H258 C246 0.956 . S
H259 C246 0.961 . S
H260 C246 0.961 . S
H261 C247 0.958 . S
H262 C247 0.961 . S
H263 C247 0.960 . S
C264 C265 1.391 . S
C264 C266 1.394 . S
C264 H280 0.931 . S
C265 C264 1.391 . S
C265 C269 1.376 . S
C266 C264 1.394 . S
C266 C267 1.369 . S
C266 C270 1.531 . S
C267 C266 1.369 . S
C267 C268 1.410 . S
C267 C275 1.503 . S
C268 C267 1.410 . S
C268 C269 1.392 . S
C268 C271 1.511 . S
C269 C265 1.376 . S
C269 C268 1.392 . S
C269 H281 0.929 . S
C270 C266 1.531 . S
C270 H282 0.960 . S
C270 H283 0.962 . S
C270 H284 0.960 . S
C271 C268 1.511 . S
C271 H285 0.961 . S
C271 H286 0.961 . S
C271 H287 0.961 . S
C272 C273 1.370 . S
C272 C274 1.363 . S
C272 H288 0.931 . S
C273 C272 1.370 . S
C273 C277 1.408 . S
C274 C272 1.363 . S
C274 C275 1.370 . S
C274 C278 1.524 . S
C275 C267 1.503 . S
C275 C274 1.370 . S
C275 C276 1.403 . S
C276 C275 1.403 . S
C276 C277 1.404 . S
C276 C279 1.539 . S
C277 C273 1.408 . S
C277 C276 1.404 . S
C277 H289 0.930 . S
C278 C274 1.524 . S
C278 H290 0.956 . S
C278 H291 0.961 . S
C278 H292 0.961 . S
C279 C276 1.539 . S
C279 H293 0.958 . S
C279 H294 0.961 . S
C279 H295 0.960 . S
H280 C264 0.931 . S
H281 C269 0.929 . S
H282 C270 0.960 . S
H283 C270 0.962 . S
H284 C270 0.960 . S
H285 C271 0.961 . S
H286 C271 0.961 . S
H287 C271 0.961 . S
H288 C272 0.931 . S
H289 C277 0.930 . S
H290 C278 0.956 . S
H291 C278 0.961 . S
H292 C278 0.961 . S
H293 C279 0.958 . S
H294 C279 0.961 . S
H295 C279 0.960 . S
C296 C297 1.391 . S
C296 C298 1.394 . S
C296 H312 0.931 . S
C297 C296 1.391 . S
C297 C301 1.376 . S
C298 C296 1.394 . S
C298 C299 1.369 . S
C298 C302 1.531 . S
C299 C298 1.369 . S
C299 C300 1.410 . S
C299 C307 1.503 . S
C300 C299 1.410 . S
C300 C301 1.392 . S
C300 C303 1.511 . S
C301 C297 1.376 . S
C301 C300 1.392 . S
C301 H313 0.929 . S
C302 C298 1.531 . S
C302 H314 0.960 . S
C302 H315 0.962 . S
C302 H316 0.960 . S
C303 C300 1.511 . S
C303 H317 0.961 . S
C303 H318 0.961 . S
C303 H319 0.961 . S
C304 C305 1.370 . S
C304 C306 1.363 . S
C304 H320 0.931 . S
C305 C304 1.370 . S
C305 C309 1.408 . S
C306 C304 1.363 . S
C306 C307 1.370 . S
C306 C310 1.524 . S
C307 C299 1.503 . S
C307 C306 1.370 . S
C307 C308 1.403 . S
C308 C307 1.403 . S
C308 C309 1.404 . S
C308 C311 1.539 . S
C309 C305 1.408 . S
C309 C308 1.404 . S
C309 H321 0.930 . S
C310 C306 1.524 . S
C310 H322 0.956 . S
C310 H323 0.961 . S
C310 H324 0.961 . S
C311 C308 1.539 . S
C311 H325 0.958 . S
C311 H326 0.961 . S
C311 H327 0.960 . S
H312 C296 0.931 . S
H313 C301 0.929 . S
H314 C302 0.960 . S
H315 C302 0.962 . S
H316 C302 0.960 . S
H317 C303 0.961 . S
H318 C303 0.961 . S
H319 C303 0.961 . S
H320 C304 0.931 . S
H321 C309 0.930 . S
H322 C310 0.956 . S
H323 C310 0.961 . S
H324 C310 0.961 . S
H325 C311 0.958 . S
H326 C311 0.961 . S
H327 C311 0.960 . S
C328 C329 1.391 . S
C328 C330 1.394 . S
C328 H344 0.931 . S
C329 C328 1.391 . S
C329 C333 1.376 . S
C330 C328 1.394 . S
C330 C331 1.369 . S
C330 C334 1.531 . S
C331 C330 1.369 . S
C331 C332 1.410 . S
C331 C339 1.503 . S
C332 C331 1.410 . S
C332 C333 1.392 . S
C332 C335 1.511 . S
C333 C329 1.376 . S
C333 C332 1.392 . S
C333 H345 0.929 . S
C334 C330 1.531 . S
C334 H346 0.960 . S
C334 H347 0.962 . S
C334 H348 0.960 . S
C335 C332 1.511 . S
C335 H349 0.961 . S
C335 H350 0.961 . S
C335 H351 0.961 . S
C336 C337 1.370 . S
C336 C338 1.363 . S
C336 H352 0.931 . S
C337 C336 1.370 . S
C337 C341 1.408 . S
C338 C336 1.363 . S
C338 C339 1.370 . S
C338 C342 1.524 . S
C339 C331 1.503 . S
C339 C338 1.370 . S
C339 C340 1.403 . S
C340 C339 1.403 . S
C340 C341 1.404 . S
C340 C343 1.539 . S
C341 C337 1.408 . S
C341 C340 1.404 . S
C341 H353 0.930 . S
C342 C338 1.524 . S
C342 H354 0.956 . S
C342 H355 0.961 . S
C342 H356 0.961 . S
C343 C340 1.539 . S
C343 H357 0.958 . S
C343 H358 0.961 . S
C343 H359 0.960 . S
H344 C328 0.931 . S
H345 C333 0.929 . S
H346 C334 0.960 . S
H347 C334 0.962 . S
H348 C334 0.960 . S
H349 C335 0.961 . S
H350 C335 0.961 . S
H351 C335 0.961 . S
H352 C336 0.931 . S
H353 C341 0.930 . S
H354 C342 0.956 . S
H355 C342 0.961 . S
H356 C342 0.961 . S
H357 C343 0.958 . S
H358 C343 0.961 . S
H359 C343 0.960 . S
C360 C361 1.391 . S
C360 C362 1.394 . S
C360 H376 0.931 . S
C361 C360 1.391 . S
C361 C365 1.376 . S
C362 C360 1.394 . S
C362 C363 1.369 . S
C362 C366 1.531 . S
C363 C362 1.369 . S
C363 C364 1.410 . S
C363 C371 1.503 . S
C364 C363 1.410 . S
C364 C365 1.392 . S
C364 C367 1.511 . S
C365 C361 1.376 . S
C365 C364 1.392 . S
C365 H377 0.929 . S
C366 C362 1.531 . S
C366 H378 0.960 . S
C366 H379 0.962 . S
C366 H380 0.960 . S
C367 C364 1.511 . S
C367 H381 0.961 . S
C367 H382 0.961 . S
C367 H383 0.961 . S
C368 C369 1.370 . S
C368 C370 1.363 . S
C368 H384 0.931 . S
C369 C368 1.370 . S
C369 C373 1.408 . S
C370 C368 1.363 . S
C370 C371 1.370 . S
C370 C374 1.524 . S
C371 C363 1.503 . S
C371 C370 1.370 . S
C371 C372 1.403 . S
C372 C371 1.403 . S
C372 C373 1.404 . S
C372 C375 1.539 . S
C373 C369 1.408 . S
C373 C372 1.404 . S
C373 H385 0.930 . S
C374 C370 1.524 . S
C374 H386 0.956 . S
C374 H387 0.961 . S
C374 H388 0.961 . S
C375 C372 1.539 . S
C375 H389 0.958 . S
C375 H390 0.961 . S
C375 H391 0.960 . S
H376 C360 0.931 . S
H377 C365 0.929 . S
H378 C366 0.960 . S
H379 C366 0.962 . S
H380 C366 0.960 . S
H381 C367 0.961 . S
H382 C367 0.961 . S
H383 C367 0.961 . S
H384 C368 0.931 . S
H385 C373 0.930 . S
H386 C374 0.956 . S
H387 C374 0.961 . S
H388 C374 0.961 . S
H389 C375 0.958 . S
H390 C375 0.961 . S
H391 C375 0.960 . S
C392 C393 1.391 . S
C392 C394 1.394 . S
C392 H408 0.931 . S
C393 C392 1.391 . S
C393 C397 1.376 . S
C394 C392 1.394 . S
C394 C395 1.369 . S
C394 C398 1.531 . S
C395 C394 1.369 . S
C395 C396 1.410 . S
C395 C403 1.503 . S
C396 C395 1.410 . S
C396 C397 1.392 . S
C396 C399 1.511 . S
C397 C393 1.376 . S
C397 C396 1.392 . S
C397 H409 0.929 . S
C398 C394 1.531 . S
C398 H410 0.960 . S
C398 H411 0.962 . S
C398 H412 0.960 . S
C399 C396 1.511 . S
C399 H413 0.961 . S
C399 H414 0.961 . S
C399 H415 0.961 . S
C400 C401 1.370 . S
C400 C402 1.363 . S
C400 H416 0.931 . S
C401 C400 1.370 . S
C401 C405 1.408 . S
C402 C400 1.363 . S
C402 C403 1.370 . S
C402 C406 1.524 . S
C403 C395 1.503 . S
C403 C402 1.370 . S
C403 C404 1.403 . S
C404 C403 1.403 . S
C404 C405 1.404 . S
C404 C407 1.539 . S
C405 C401 1.408 . S
C405 C404 1.404 . S
C405 H417 0.930 . S
C406 C402 1.524 . S
C406 H418 0.956 . S
C406 H419 0.961 . S
C406 H420 0.961 . S
C407 C404 1.539 . S
C407 H421 0.958 . S
C407 H422 0.961 . S
C407 H423 0.960 . S
H408 C392 0.931 . S
H409 C397 0.929 . S
H410 C398 0.960 . S
H411 C398 0.962 . S
H412 C398 0.960 . S
H413 C399 0.961 . S
H414 C399 0.961 . S
H415 C399 0.961 . S
H416 C400 0.931 . S
H417 C405 0.930 . S
H418 C406 0.956 . S
H419 C406 0.961 . S
H420 C406 0.961 . S
H421 C407 0.958 . S
H422 C407 0.961 . S
H423 C407 0.960 . S
C424 C425 1.391 . S
C424 C426 1.394 . S
C424 H440 0.931 . S
C425 C424 1.391 . S
C425 C429 1.376 . S
C426 C424 1.394 . S
C426 C427 1.369 . S
C426 C430 1.531 . S
C427 C426 1.369 . S
C427 C428 1.410 . S
C427 C435 1.503 . S
C428 C427 1.410 . S
C428 C429 1.392 . S
C428 C431 1.511 . S
C429 C425 1.376 . S
C429 C428 1.392 . S
C429 H441 0.929 . S
C430 C426 1.531 . S
C430 H442 0.960 . S
C430 H443 0.962 . S
C430 H444 0.960 . S
C431 C428 1.511 . S
C431 H445 0.961 . S
C431 H446 0.961 . S
C431 H447 0.961 . S
C432 C433 1.370 . S
C432 C434 1.363 . S
C432 H448 0.931 . S
C433 C432 1.370 . S
C433 C437 1.408 . S
C434 C432 1.363 . S
C434 C435 1.370 . S
C434 C438 1.524 . S
C435 C427 1.503 . S
C435 C434 1.370 . S
C435 C436 1.403 . S
C436 C435 1.403 . S
C436 C437 1.404 . S
C436 C439 1.539 . S
C437 C433 1.408 . S
C437 C436 1.404 . S
C437 H449 0.930 . S
C438 C434 1.524 . S
C438 H450 0.956 . S
C438 H451 0.961 . S
C438 H452 0.961 . S
C439 C436 1.539 . S
C439 H453 0.958 . S
C439 H454 0.961 . S
C439 H455 0.960 . S
H440 C424 0.931 . S
H441 C429 0.929 . S
H442 C430 0.960 . S
H443 C430 0.962 . S
H444 C430 0.960 . S
H445 C431 0.961 . S
H446 C431 0.961 . S
H447 C431 0.961 . S
H448 C432 0.931 . S
H449 C437 0.930 . S
H450 C438 0.956 . S
H451 C438 0.961 . S
H452 C438 0.961 . S
H453 C439 0.958 . S
H454 C439 0.961 . S
H455 C439 0.960 . S
C456 C457 1.391 . S
C456 C458 1.394 . S
C456 H472 0.931 . S
C457 C456 1.391 . S
C457 C461 1.376 . S
C458 C456 1.394 . S
C458 C459 1.369 . S
C458 C462 1.531 . S
C459 C458 1.369 . S
C459 C460 1.410 . S
C459 C467 1.503 . S
C460 C459 1.410 . S
C460 C461 1.392 . S
C460 C463 1.511 . S
C461 C457 1.376 . S
C461 C460 1.392 . S
C461 H473 0.929 . S
C462 C458 1.531 . S
C462 H474 0.960 . S
C462 H475 0.962 . S
C462 H476 0.960 . S
C463 C460 1.511 . S
C463 H477 0.961 . S
C463 H478 0.961 . S
C463 H479 0.961 . S
C464 C465 1.370 . S
C464 C466 1.363 . S
C464 H480 0.931 . S
C465 C464 1.370 . S
C465 C469 1.408 . S
C466 C464 1.363 . S
C466 C467 1.370 . S
C466 C470 1.524 . S
C467 C459 1.503 . S
C467 C466 1.370 . S
C467 C468 1.403 . S
C468 C467 1.403 . S
C468 C469 1.404 . S
C468 C471 1.539 . S
C469 C465 1.408 . S
C469 C468 1.404 . S
C469 H481 0.930 . S
C470 C466 1.524 . S
C470 H482 0.956 . S
C470 H483 0.961 . S
C470 H484 0.961 . S
C471 C468 1.539 . S
C471 H485 0.958 . S
C471 H486 0.961 . S
C471 H487 0.960 . S
H472 C456 0.931 . S
H473 C461 0.929 . S
H474 C462 0.960 . S
H475 C462 0.962 . S
H476 C462 0.960 . S
H477 C463 0.961 . S
H478 C463 0.961 . S
H479 C463 0.961 . S
H480 C464 0.931 . S
H481 C469 0.930 . S
H482 C470 0.956 . S
H483 C470 0.961 . S
H484 C470 0.961 . S
H485 C471 0.958 . S
H486 C471 0.961 . S
H487 C471 0.960 . S
C488 C489 1.391 . S
C488 C490 1.394 . S
C488 H504 0.931 . S
C489 C488 1.391 . S
C489 C493 1.376 . S
C490 C488 1.394 . S
C490 C491 1.369 . S
C490 C494 1.531 . S
C491 C490 1.369 . S
C491 C492 1.410 . S
C491 C499 1.503 . S
C492 C491 1.410 . S
C492 C493 1.392 . S
C492 C495 1.511 . S
C493 C489 1.376 . S
C493 C492 1.392 . S
C493 H505 0.929 . S
C494 C490 1.531 . S
C494 H506 0.960 . S
C494 H507 0.962 . S
C494 H508 0.960 . S
C495 C492 1.511 . S
C495 H509 0.961 . S
C495 H510 0.961 . S
C495 H511 0.961 . S
C496 C497 1.370 . S
C496 C498 1.363 . S
C496 H512 0.931 . S
C497 C496 1.370 . S
C497 C501 1.408 . S
C498 C496 1.363 . S
C498 C499 1.370 . S
C498 C502 1.524 . S
C499 C491 1.503 . S
C499 C498 1.370 . S
C499 C500 1.403 . S
C500 C499 1.403 . S
C500 C501 1.404 . S
C500 C503 1.539 . S
C501 C497 1.408 . S
C501 C500 1.404 . S
C501 H513 0.930 . S
C502 C498 1.524 . S
C502 H514 0.956 . S
C502 H515 0.961 . S
C502 H516 0.961 . S
C503 C500 1.539 . S
C503 H517 0.958 . S
C503 H518 0.961 . S
C503 H519 0.960 . S
H504 C488 0.931 . S
H505 C493 0.929 . S
H506 C494 0.960 . S
H507 C494 0.962 . S
H508 C494 0.960 . S
H509 C495 0.961 . S
H510 C495 0.961 . S
H511 C495 0.961 . S
H512 C496 0.931 . S
H513 C501 0.930 . S
H514 C502 0.956 . S
H515 C502 0.961 . S
H516 C502 0.961 . S
H517 C503 0.958 . S
H518 C503 0.961 . S
H519 C503 0.960 . S
C520 C521 1.391 . S
C520 C522 1.394 . S
C520 H536 0.931 . S
C521 C520 1.391 . S
C521 C525 1.376 . S
C522 C520 1.394 . S
C522 C523 1.369 . S
C522 C526 1.531 . S
C523 C522 1.369 . S
C523 C524 1.410 . S
C523 C531 1.503 . S
C524 C523 1.410 . S
C524 C525 1.392 . S
C524 C527 1.511 . S
C525 C521 1.376 . S
C525 C524 1.392 . S
C525 H537 0.929 . S
C526 C522 1.531 . S
C526 H538 0.960 . S
C526 H539 0.962 . S
C526 H540 0.960 . S
C527 C524 1.511 . S
C527 H541 0.961 . S
C527 H542 0.961 . S
C527 H543 0.961 . S
C528 C529 1.370 . S
C528 C530 1.363 . S
C528 H544 0.931 . S
C529 C528 1.370 . S
C529 C533 1.408 . S
C530 C528 1.363 . S
C530 C531 1.370 . S
C530 C534 1.524 . S
C531 C523 1.503 . S
C531 C530 1.370 . S
C531 C532 1.403 . S
C532 C531 1.403 . S
C532 C533 1.404 . S
C532 C535 1.539 . S
C533 C529 1.408 . S
C533 C532 1.404 . S
C533 H545 0.930 . S
C534 C530 1.524 . S
C534 H546 0.956 . S
C534 H547 0.961 . S
C534 H548 0.961 . S
C535 C532 1.539 . S
C535 H549 0.958 . S
C535 H550 0.961 . S
C535 H551 0.960 . S
H536 C520 0.931 . S
H537 C525 0.929 . S
H538 C526 0.960 . S
H539 C526 0.962 . S
H540 C526 0.960 . S
H541 C527 0.961 . S
H542 C527 0.961 . S
H543 C527 0.961 . S
H544 C528 0.931 . S
H545 C533 0.930 . S
H546 C534 0.956 . S
H547 C534 0.961 . S
H548 C534 0.961 . S
H549 C535 0.958 . S
H550 C535 0.961 . S
H551 C535 0.960 . S
C552 C553 1.391 . S
C552 C554 1.394 . S
C552 H568 0.931 . S
C553 C552 1.391 . S
C553 C557 1.376 . S
C554 C552 1.394 . S
C554 C555 1.369 . S
C554 C558 1.531 . S
C555 C554 1.369 . S
C555 C556 1.410 . S
C555 C563 1.503 1_554 S
C556 C555 1.410 . S
C556 C557 1.392 . S
C556 C559 1.511 1_554 S
C557 C553 1.376 . S
C557 C556 1.392 . S
C557 H569 0.929 . S
C558 C554 1.531 . S
C558 H570 0.942 1_554 S
C558 H571 0.962 . S
C558 H572 0.960 . S
C559 C556 1.511 1_556 S
C559 H573 0.961 1_556 S
C559 H574 0.961 . S
C559 H575 0.961 . S
C560 C561 1.370 . S
C560 C562 1.363 . S
C560 H576 0.931 . S
C561 C560 1.370 . S
C561 C565 1.408 . S
C562 C560 1.363 . S
C562 C563 1.370 . S
C562 C566 1.524 1_556 S
C563 C555 1.503 1_556 S
C563 C562 1.370 . S
C563 C564 1.403 . S
C564 C563 1.403 . S
C564 C565 1.404 . S
C564 C567 1.539 . S
C565 C561 1.408 . S
C565 C564 1.404 . S
C565 H577 0.930 . S
C566 C562 1.524 1_554 S
C566 H578 0.956 . S
C566 H579 0.961 . S
C566 H580 0.961 . S
C567 C564 1.539 . S
C567 H581 0.958 . S
C567 H582 0.961 . S
C567 H583 0.960 . S
H568 C552 0.931 . S
H569 C557 0.929 . S
H570 C558 0.942 1_556 S
H571 C558 0.962 . S
H572 C558 0.960 . S
H573 C559 0.961 1_554 S
H574 C559 0.961 . S
H575 C559 0.961 . S
H576 C560 0.931 . S
H577 C565 0.930 . S
H578 C566 0.956 . S
H579 C566 0.961 . S
H580 C566 0.961 . S
H581 C567 0.958 . S
H582 C567 0.961 . S
H583 C567 0.960 . S
C584 C585 1.391 . S
C584 C586 1.394 . S
C584 H600 0.931 . S
C585 C584 1.391 . S
C585 C589 1.376 . S
C586 C584 1.394 . S
C586 C587 1.369 . S
C586 C590 1.531 . S
C587 C586 1.369 . S
C587 C588 1.410 . S
C587 C595 1.503 1_554 S
C588 C587 1.410 . S
C588 C589 1.392 . S
C588 C591 1.511 . S
C589 C585 1.376 . S
C589 C588 1.392 . S
C589 H601 0.929 . S
C590 C586 1.531 . S
C590 H602 0.954 1_554 S
C590 H603 0.962 1_554 S
C590 H604 0.960 . S
C591 C588 1.511 . S
C591 H605 0.961 . S
C591 H606 0.961 . S
C591 H607 0.961 . S
C592 C593 1.370 . S
C592 C594 1.363 . S
C592 H608 0.931 . S
C593 C592 1.370 . S
C593 C597 1.408 . S
C594 C592 1.363 . S
C594 C595 1.370 . S
C594 C598 1.524 . S
C595 C587 1.503 1_556 S
C595 C594 1.370 . S
C595 C596 1.403 . S
C596 C595 1.403 . S
C596 C597 1.404 . S
C596 C599 1.539 1_556 S
C597 C593 1.408 . S
C597 C596 1.404 . S
C597 H609 0.930 . S
C598 C594 1.524 . S
C598 H610 0.956 . S
C598 H611 0.961 . S
C598 H612 0.961 . S
C599 C596 1.539 1_554 S
C599 H613 0.958 . S
C599 H614 0.961 . S
C599 H615 0.960 . S
H600 C584 0.931 . S
H601 C589 0.929 . S
H602 C590 0.954 1_556 S
H603 C590 0.962 1_556 S
H604 C590 0.960 . S
H605 C591 0.961 . S
H606 C591 0.961 . S
H607 C591 0.961 . S
H608 C592 0.931 . S
H609 C597 0.930 . S
H610 C598 0.956 . S
H611 C598 0.961 . S
H612 C598 0.961 . S
H613 C599 0.958 . S
H614 C599 0.961 . S
H615 C599 0.960 . S
C105 C5 1.532 . S
C113 C29 1.554 . S
C137 C44 1.536 . S
C145 C18 1.553 . S
C169 C81 1.530 . S
C177 C55 1.555 . S
C201 C70 1.529 . S
C209 C94 1.554 . S
C233 C82 1.736 . S
C241 C10 1.747 . S
C265 C23 1.721 . S
C273 C95 1.750 . S
C297 C30 1.755 . S
C305 C56 1.738 . S
C329 C49 1.722 . S
C337 C75 1.750 . S
C361 C88 1.573 . S
C369 C4 1.570 . S
C393 C17 1.573 . S
C401 C101 1.570 . S
C425 C62 1.566 . S
C433 C36 1.573 . S
C457 C69 1.562 . S
C465 C43 1.575 . S
C489 C16 0.502 . S
C497 C3 0.527 . S
C521 C31 0.486 . S
C529 C42 0.542 . S
C553 C68 0.560 . S
C561 C57 0.542 . S
C585 C83 0.518 . S
C593 C96 0.564 . S
