# Generated by pormake.
# Topology rkf, (6)-cn, num edge types: 1
# Building blocks:
#     Node 0, Type 0, BuildingBlock: BETFEN_clean_sbu_0, # of connection points: 6
#     Node 1, Type 0, BuildingBlock: BETFEN_clean_sbu_0, # of connection points: 6
#     Node 2, Type 0, BuildingBlock: BETFEN_clean_sbu_0, # of connection points: 6
#     Node 3, Type 0, BuildingBlock: BETFEN_clean_sbu_0, # of connection points: 6
#     Node 4, Type 0, BuildingBlock: BETFEN_clean_sbu_0, # of connection points: 6
#     Node 5, Type 0, BuildingBlock: BETFEN_clean_sbu_0, # of connection points: 6
#     Edge 6, Type (0, 0), BuildingBlock: XUDNAN_clean_linker_2, # of connection points: 2
#     Edge 7, Type (0, 0), BuildingBlock: XUDNAN_clean_linker_2, # of connection points: 2
#     Edge 8, Type (0, 0), BuildingBlock: XUDNAN_clean_linker_2, # of connection points: 2
#     Edge 9, Type (0, 0), BuildingBlock: XUDNAN_clean_linker_2, # of connection points: 2
#     Edge 10, Type (0, 0), BuildingBlock: XUDNAN_clean_linker_2, # of connection points: 2
#     Edge 11, Type (0, 0), BuildingBlock: XUDNAN_clean_linker_2, # of connection points: 2
#     Edge 12, Type (0, 0), BuildingBlock: XUDNAN_clean_linker_2, # of connection points: 2
#     Edge 13, Type (0, 0), BuildingBlock: XUDNAN_clean_linker_2, # of connection points: 2
#     Edge 14, Type (0, 0), BuildingBlock: XUDNAN_clean_linker_2, # of connection points: 2
#     Edge 15, Type (0, 0), BuildingBlock: XUDNAN_clean_linker_2, # of connection points: 2
#     Edge 16, Type (0, 0), BuildingBlock: XUDNAN_clean_linker_2, # of connection points: 2
#     Edge 17, Type (0, 0), BuildingBlock: XUDNAN_clean_linker_2, # of connection points: 2
#     Edge 18, Type (0, 0), BuildingBlock: XUDNAN_clean_linker_2, # of connection points: 2
#     Edge 19, Type (0, 0), BuildingBlock: XUDNAN_clean_linker_2, # of connection points: 2
#     Edge 20, Type (0, 0), BuildingBlock: XUDNAN_clean_linker_2, # of connection points: 2
#     Edge 21, Type (0, 0), BuildingBlock: XUDNAN_clean_linker_2, # of connection points: 2
#     Edge 22, Type (0, 0), BuildingBlock: XUDNAN_clean_linker_2, # of connection points: 2
#     Edge 23, Type (0, 0), BuildingBlock: XUDNAN_clean_linker_2, # of connection points: 2
# Relax obj value: 0.720
# Max RMSD: 0.249
# Mean RMSD: 0.249
data_MOF--net-rkf--node1-BETFEN_clean_sbu_0--edge1-XUDNAN_clean_linker_2
_symmetry_space_group_name_H-M    P1
_symmetry_Int_Tables_number       1
_symmetry_cell_setting            triclinic
loop_
_symmetry_equiv_pos_as_xyz
'x, y, z'
_cell_length_a     25.788075
_cell_length_b     25.260483
_cell_length_c     44.3187
_cell_angle_alpha  89.56246
_cell_angle_beta   89.918406
_cell_angle_gamma 120.1333
loop_
_atom_site_label
_atom_site_type_symbol
_atom_site_fract_x
_atom_site_fract_y
_atom_site_fract_z
_atom_type_partial_charge
Pr0 Pr 0.28453 0.96869 0.1619 0.0
Pr1 Pr 0.24001 0.05887 1.1537 0.0
C2 C 0.35081 0.91796 0.17754 0.0
C3 C 0.37224 0.91134 0.20755 0.0
C4 C 0.33251 0.86605 0.22779 0.0
C5 C 0.34519 0.87074 0.2585 0.0
C6 C 0.39856 0.92029 0.26973 0.0
C7 C 0.44199 0.96041 0.24885 0.0
C8 C 0.42875 0.95633 0.21807 0.0
C9 C 0.1623 0.91737 0.17167 0.0
C10 C 0.28131 0.05197 0.22169 0.0
C11 C 0.19195 0.13016 1.14249 0.0
C12 C 0.2153 0.18826 1.12599 0.0
C13 C 0.2643 0.20724 1.1064 0.0
C14 C 0.29146 0.26532 1.09316 0.0
C15 C 0.27056 0.30593 1.09947 0.0
C16 C 0.22095 0.28645 1.11896 0.0
C17 C 0.19364 0.22802 1.13221 0.0
C18 C 0.36271 0.10611 1.14169 0.0
C19 C 0.22158 0.96368 1.0962 0.0
O20 O 0.3742 0.97402 0.16721 0.0
O21 O 0.29291 0.88572 0.17303 0.0
O22 O 0.20261 0.96902 0.1807 0.0
O23 O 0.18506 0.8885 1.15781 0.0
O24 O 0.24078 0.0582 0.20654 0.0
O25 O 0.30934 0.02608 0.20839 0.0
O26 O 0.17934 0.08188 1.12646 0.0
O27 O 0.22139 0.13379 0.167 0.0
O28 O 0.32043 0.05544 1.13348 0.0
O29 O 0.34228 0.13639 1.15598 0.0
O30 O 0.26017 0.95148 1.11004 0.0
O31 O 0.20282 -0.00179 1.10938 0.0
H32 H 0.28906 0.82994 0.22042 0.0
H33 H 0.31006 0.8386 0.27344 0.0
H34 H 0.48439 -0.00208 0.25645 0.0
H35 H 0.46092 -0.0086 0.20299 0.0
H36 H 0.28216 0.17739 1.10169 0.0
H37 H 0.32848 0.27806 1.07766 0.0
H38 H 0.20381 0.31664 1.12427 0.0
H39 H 0.15642 0.21431 1.14772 0.0
Pr40 Pr 0.32906 0.23381 0.50077 0.0
Pr41 Pr 0.28282 0.31288 0.47294 0.0
C42 C 0.39016 0.18819 0.52966 0.0
C43 C 0.42364 0.19456 0.55765 0.0
C44 C 0.40024 0.14646 0.57876 0.0
C45 C 0.42927 0.15257 0.60609 0.0
C46 C 0.48295 0.2068 0.61285 0.0
C47 C 0.5082 0.25363 0.59091 0.0
C48 C 0.4788 0.24765 0.56357 0.0
C49 C 0.21552 0.17211 0.47581 0.0
C50 C 0.25448 0.28206 0.54503 0.0
C51 C 0.23883 0.37417 0.44239 0.0
C52 C 0.18843 0.38493 0.43941 0.0
C53 C 0.18182 0.40852 0.41204 0.0
C54 C 0.13344 0.41751 0.40763 0.0
C55 C 0.09047 0.403 0.4306 0.0
C56 C 0.09785 0.38043 0.45842 0.0
C57 C 0.14696 0.37183 0.46288 0.0
C58 C 0.39679 0.37787 0.49718 0.0
C59 C 0.32807 0.23809 0.42587 0.0
O60 O 0.41464 0.23345 0.51015 0.0
O61 O 0.33182 0.1636 0.53189 0.0
O62 O 0.23545 0.21786 0.49244 0.0
O63 O 0.25267 0.15159 0.4741 0.0
O64 O 0.23164 0.28849 0.51937 0.0
O65 O 0.29944 0.27025 0.54425 0.0
O66 O 0.27199 0.39543 0.46639 0.0
O67 O 0.23034 0.32096 0.43395 0.0
O68 O 0.37914 0.33105 0.4811 0.0
O69 O 0.35596 0.3927 0.50028 0.0
O70 O 0.35049 0.225 0.44977 0.0
O71 O 0.29883 0.26851 0.42884 0.0
H72 H 0.35831 0.10473 0.57454 0.0
H73 H 0.40753 0.1159 0.62257 0.0
H74 H 0.54962 0.29574 0.59528 0.0
H75 H 0.49864 0.28523 0.54747 0.0
H76 H 0.21352 0.41882 0.39374 0.0
H77 H 0.12832 0.43321 0.38562 0.0
H78 H 0.06511 0.36826 0.47635 0.0
H79 H 0.15184 0.35377 0.48427 0.0
Pr80 Pr 0.1369 0.35195 0.82577 0.0
Pr81 Pr 0.00684 0.28913 0.80281 0.0
C82 C 0.25084 0.43673 0.83857 0.0
C83 C 0.28358 0.47074 0.86562 0.0
C84 C 0.3299 0.46266 0.87692 0.0
C85 C 0.35403 0.48489 0.90532 0.0
C86 C 0.33248 0.51601 0.92291 0.0
C87 C 0.29004 0.52901 0.9103 0.0
C88 C 0.26558 0.50634 0.88197 0.0
C89 C 0.07918 0.22637 0.82837 0.0
C90 C 0.03039 0.287 0.8779 0.0
C91 C 0.88746 0.22013 0.7951 0.0
C92 C 0.83679 0.21 0.77622 0.0
C93 C 0.77865 0.17629 0.78816 0.0
C94 C 0.72904 0.15948 0.76972 0.0
C95 C 0.73696 0.17613 0.73902 0.0
C96 C 0.79552 0.21356 0.72767 0.0
C97 C 0.84516 0.23034 0.74617 0.0
C98 C 0.06498 0.41642 0.80371 0.0
C99 C 0.10857 0.31755 0.75023 0.0
O100 O 0.21233 0.45037 0.82685 0.0
O101 O 0.2313 0.37784 0.83912 0.0
O102 O 0.07503 0.25741 0.80704 0.0
O103 O 0.11989 0.26077 0.84784 0.0
O104 O -0.00394 0.26159 0.85415 0.0
O105 O 0.08728 0.33101 0.8741 0.0
O106 O 0.92592 0.20621 0.78367 0.0
O107 O 0.91234 0.26976 0.81128 0.0
O108 O 0.06746 0.38289 0.82422 0.0
O109 O 0.02983 0.38402 0.78197 0.0
O110 O 0.14927 0.34545 0.77184 0.0
O111 O 0.05048 0.29042 0.75638 0.0
H112 H 0.34486 0.43581 0.86461 0.0
H113 H 0.38614 0.47333 0.91434 0.0
H114 H 0.27314 0.55359 0.92309 0.0
H115 H 0.23049 0.51413 0.87369 0.0
H116 H 0.77158 0.16074 0.81146 0.0
H117 H 0.68449 0.13082 0.77906 0.0
H118 H 0.80312 0.22634 0.70401 0.0
H119 H 0.8899 0.25679 0.7367 0.0
Pr120 Pr 0.86766 0.16351 0.16002 0.0
Pr121 Pr 0.79903 0.02986 1.14245 0.0
C122 C 0.90115 0.27457 0.18285 0.0
C123 C 0.89369 0.30078 0.21098 0.0
C124 C 0.94463 0.34691 0.2252 0.0
C125 C 0.93984 0.36818 0.25342 0.0
C126 C 0.88371 0.34417 0.26794 0.0
C127 C 0.83223 0.30024 0.25282 0.0
C128 C 0.83721 0.27843 0.22469 0.0
C129 C 0.93734 0.11037 1.15114 0.0
C130 C 0.81914 0.05405 0.21484 0.0
C131 C 0.75851 0.91753 1.11925 0.0
C132 C 0.77307 0.86866 1.11612 0.0
C133 C 0.72858 0.81134 1.10602 0.0
C134 C 0.74326 0.76729 1.09768 0.0
C135 C 0.80292 0.77994 1.0992 0.0
C136 C 0.84685 0.8363 1.11117 0.0
C137 C 0.83196 0.88034 1.11962 0.0
C138 C 0.72591 0.08122 1.14992 0.0
C139 C 0.87454 0.13873 1.08788 0.0
O140 O 0.85367 0.2442 0.16601 0.0
O141 O 0.93453 0.24916 0.18449 0.0
O142 O 0.88856 0.08681 0.16514 0.0
O143 O 0.95502 0.16587 1.14189 0.0
O144 O 0.81764 0.01713 0.19345 0.0
O145 O 0.82737 0.10896 0.20723 0.0
O146 O 0.74225 0.92613 1.14587 0.0
O147 O 0.79327 0.9684 1.10457 0.0
O148 O 0.77638 0.10728 1.13708 0.0
O149 O 0.70947 0.02511 1.1569 0.0
O150 O 0.88476 0.18184 1.10763 0.0
O151 O 0.84688 0.08015 1.09621 0.0
H152 H -0.0114 0.36478 0.21503 0.0
H153 H -0.01919 0.40094 0.2645 0.0
H154 H 0.78831 0.28112 0.26318 0.0
H155 H 0.79709 0.24277 0.21423 0.0
H156 H 0.68295 0.80175 1.10308 0.0
H157 H 0.70846 0.72489 1.08818 0.0
H158 H 0.89308 0.84721 1.11293 0.0
H159 H 0.86674 0.92437 1.1276 0.0
Pr160 Pr 0.77126 0.86064 0.49484 0.0
Pr161 Pr 0.88272 0.85385 0.47314 0.0
C162 C 0.66446 0.83844 0.51695 0.0
C163 C 0.63971 0.86148 0.53994 0.0
C164 C 0.66072 0.8713 0.5697 0.0
C165 C 0.64051 0.89841 0.59037 0.0
C166 C 0.59925 0.9166 0.58163 0.0
C167 C 0.57688 0.90498 0.55209 0.0
C168 C 0.59676 0.87733 0.53147 0.0
C169 C 0.87239 0.97464 0.48202 0.0
C170 C 0.86575 0.86066 0.54794 0.0
C171 C -0.01382 0.86428 0.45345 0.0
C172 C 0.04362 0.89484 0.4369 0.0
C173 C 0.05086 0.86545 0.41194 0.0
C174 C 0.10785 0.88449 0.40037 0.0
C175 C 0.15884 0.93292 0.41377 0.0
C176 C 0.15134 0.96558 0.43721 0.0
C177 C 0.09406 0.94662 0.44876 0.0
C178 C 0.78531 0.74209 0.48861 0.0
C179 C 0.79868 0.87628 0.42089 0.0
O180 O 0.69143 0.80911 0.52619 0.0
O181 O 0.69175 0.87534 0.49423 0.0
O182 O 0.87153 0.92906 0.49413 0.0
O183 O 0.81822 0.96544 0.4808 0.0
O184 O 0.90306 0.86874 0.52545 0.0
O185 O 0.8117 0.85298 0.54249 0.0
O186 O -0.01852 0.88883 0.47838 0.0
O187 O 0.93576 0.83359 0.43873 0.0
O188 O 0.78186 0.78346 0.47415 0.0
O189 O 0.8401 0.75574 0.49323 0.0
O190 O 0.75669 0.85974 0.44202 0.0
O191 O 0.84984 0.87822 0.427 0.0
H192 H 0.69417 0.8599 0.57676 0.0
H193 H 0.65951 0.90788 0.61281 0.0
H194 H 0.54513 0.91854 0.54479 0.0
H195 H 0.57994 0.86999 0.50859 0.0
H196 H 0.01283 0.82545 0.4024 0.0
H197 H 0.1122 0.85969 0.38162 0.0
H198 H 0.18985 0.00346 0.44774 0.0
H199 H 0.08983 0.97033 0.46803 0.0
Pr200 Pr -0.03056 0.76202 0.82639 0.0
Pr201 Pr 0.05645 0.89536 0.82636 0.0
C202 C 0.91708 0.6424 0.84012 0.0
C203 C 0.9087 0.61526 0.87071 0.0
C204 C 0.85062 0.5814 0.8829 0.0
C205 C 0.84208 0.57332 0.91415 0.0
C206 C 0.89157 0.59889 0.93368 0.0
C207 C 0.94956 0.62625 0.92123 0.0
C208 C 0.95812 0.63438 0.89004 0.0
C209 C 0.91483 0.82918 0.83888 0.0
C210 C 0.03946 0.83598 0.89137 0.0
C211 C 0.13139 0.01701 0.82185 0.0
C212 C 0.19122 0.05357 0.80828 0.0
C213 C 0.23556 0.1052 0.82327 0.0
C214 C 0.29473 0.1356 0.81256 0.0
C215 C 0.31037 0.11452 0.78676 0.0
C216 C 0.26533 0.06321 0.77161 0.0
C217 C 0.20654 0.03281 0.78239 0.0
C218 C 0.10598 0.8205 0.81405 0.0
C219 C -0.02287 0.83465 0.7628 0.0
O220 O -0.02776 0.6739 0.83005 0.0
O221 O 0.88635 0.66978 0.83484 0.0
O222 O -0.0357 0.83963 0.84961 0.0
O223 O 0.89144 0.78318 0.82059 0.0
O224 O 0.04313 0.88461 0.87841 0.0
O225 O 0.02043 0.78556 0.87496 0.0
O226 O 0.08642 -0.01308 0.80346 0.0
O227 O 0.12957 -0.01552 0.84522 0.0
O228 O 0.05949 0.81598 0.80276 0.0
O229 O 0.12982 0.86601 0.83244 0.0
O230 O -0.03792 0.77966 0.77393 0.0
O231 O 0.00617 0.88399 0.77985 0.0
H232 H 0.8118 0.56614 0.86853 0.0
H233 H 0.79678 0.55212 0.92301 0.0
H234 H -0.01151 0.64542 0.93573 0.0
H235 H 0.00361 0.66024 0.88144 0.0
H236 H 0.22467 0.12113 0.84364 0.0
H237 H 0.32831 0.17498 0.82468 0.0
H238 H 0.27527 0.04672 0.75116 0.0
H239 H 0.17326 -0.00758 0.77073 0.0
H240 H -0.02475 0.06849 0.19615 0.0
H241 H -0.03364 0.07495 1.09877 0.0
H242 H 7e-05 -0.00142 1.09491 0.0
H243 H 0.10965 0.0659 0.19893 0.0
H244 H 0.08763 0.01737 0.23204 0.0
H245 H 0.05669 0.06606 0.22546 0.0
H246 H 0.95009 0.97037 0.22951 0.0
H247 H -0.01878 0.92105 0.23453 0.0
H248 H 0.929 0.90702 0.20444 0.0
H249 H 0.03557 0.92283 1.10239 0.0
H250 H 0.10146 0.88326 1.11848 0.0
H251 H 0.09256 0.93377 0.21056 0.0
C252 C -0.01877 0.0542 0.17404 0.0
C253 C -0.0305 0.07744 1.14773 0.0
C254 C -0.02317 0.05807 1.11906 0.0
C255 C -0.00557 0.01389 1.11677 0.0
C256 C 0.0038 -0.00996 1.14341 0.0
C257 C -0.00076 0.01112 0.17142 0.0
C258 C 0.01939 -0.0149 0.19645 0.0
C259 C 0.07144 0.03664 0.21422 0.0
C260 C -0.03323 0.94339 0.21746 0.0
C261 C 0.03928 0.94844 0.17805 0.0
C262 C 0.02691 0.94901 1.14767 0.0
C263 C 0.04536 0.92199 1.12607 0.0
C264 C 0.08239 0.89924 1.13542 0.0
C265 C 0.10247 0.90711 0.16558 0.0
C266 C 0.07693 0.92707 0.18746 0.0
H267 H 0.91672 0.09618 0.46992 0.0
H268 H 0.94078 0.94489 0.44798 0.0
H269 H 0.00855 0.00073 0.40821 0.0
H270 H 0.02656 0.2075 0.39725 0.0
H271 H 0.06492 0.26866 0.4236 0.0
H272 H -0.01564 0.22138 0.42529 0.0
H273 H -0.01099 0.19723 0.48073 0.0
H274 H 0.0687 0.24387 0.4803 0.0
H275 H 0.03447 0.16501 0.49247 0.0
H276 H 0.10371 0.07034 0.39289 0.0
H277 H 0.19081 0.10274 0.42531 0.0
H278 H 0.14543 0.22267 0.47289 0.0
C279 C 0.93574 0.07565 0.4556 0.0
C280 C 0.91835 0.01378 0.45974 0.0
C281 C 0.94707 -0.01091 0.4429 0.0
C282 C -0.01268 0.0221 0.42014 0.0
C283 C 0.01009 0.08498 0.41873 0.0
C284 C -0.01443 0.11222 0.43685 0.0
C285 C 0.0329 0.17764 0.44327 0.0
C286 C 0.02681 0.22132 0.42104 0.0
C287 C 0.03119 0.19686 0.47617 0.0
C288 C 0.08833 0.17377 0.43555 0.0
C289 C 0.07411 0.12651 0.41545 0.0
C290 C 0.11451 0.1062 0.4091 0.0
C291 C 0.16301 0.12327 0.42818 0.0
C292 C 0.17178 0.16224 0.4524 0.0
C293 C 0.13759 0.19153 0.45457 0.0
H294 H 0.88734 0.88748 0.79678 0.0
H295 H 0.89817 0.86602 0.89283 0.0
H296 H 0.90793 0.96627 0.90126 0.0
H297 H -0.00374 0.00862 0.78834 0.0
H298 H -0.02378 0.05009 0.76206 0.0
H299 H 0.93378 0.96842 0.76309 0.0
H300 H 0.83589 0.97015 0.77301 0.0
H301 H 0.87793 0.05269 0.77105 0.0
H302 H 0.83192 0.01458 0.80363 0.0
H303 H -0.03308 0.07366 0.89818 0.0
H304 H 0.04793 0.17646 0.88451 0.0
H305 H 0.00207 0.13914 0.79009 0.0
C306 C 0.88682 0.90256 0.81953 0.0
C307 C 0.89165 0.87015 0.8442 0.0
C308 C 0.8937 0.89068 0.87382 0.0
C309 C 0.89922 0.94765 0.87872 0.0
C310 C 0.90327 -0.01669 0.85368 0.0
C311 C 0.8944 0.9607 0.82447 0.0
C312 C 0.91582 0.01223 0.80135 0.0
C313 C 0.95805 0.00963 0.77739 0.0
C314 C 0.86219 0.01242 0.78639 0.0
C315 C 0.94843 0.06669 0.82185 0.0
C316 C 0.93807 0.0492 0.85196 0.0
C317 C -0.02699 0.08851 0.87483 0.0
C318 C 0.01978 0.14647 0.86683 0.0
C319 C 0.03048 0.16512 0.83627 0.0
C320 C -0.00655 0.12562 0.81364 0.0
H321 H 0.21378 0.36191 1.0744 0.0
H322 H 0.39016 0.38515 1.0885 0.0
H323 H 0.43293 0.47078 1.05203 0.0
H324 H 0.21535 0.36946 1.00387 0.0
H325 H 0.17916 0.41373 0.99714 0.0
H326 H 0.16605 0.37261 1.0319 0.0
H327 H 0.20086 0.47069 1.0624 0.0
H328 H 0.21341 0.51329 1.02767 0.0
H329 H 0.27304 0.53707 1.0547 0.0
H330 H 0.45029 0.52852 1.0047 0.0
H331 H 0.43958 0.55082 0.95159 0.0
H332 H 0.25294 0.49306 0.96827 0.0
C333 C 0.26188 0.38735 1.0711 0.0
C334 C 0.29847 0.36657 1.08405 0.0
C335 C 0.36106 0.39975 1.07848 0.0
C336 C 0.38594 0.44912 1.0581 0.0
C337 C 0.34798 0.46589 1.04399 0.0
C338 C 0.28734 0.43698 1.05086 0.0
C339 C 0.2544 0.45564 1.02886 0.0
C340 C 0.20072 0.39952 1.01457 0.0
C341 C 0.23427 0.49663 1.04434 0.0
C342 C 0.30396 0.49209 1.0062 0.0
C343 C 0.35839 0.5004 1.01612 0.0
C344 C 0.40842 0.52403 0.99708 0.0
C345 C 0.40183 0.53613 0.96683 0.0
C346 C 0.34532 0.5235 0.95577 0.0
C347 C 0.29705 0.50476 0.97622 0.0
H348 H 0.08119 0.49178 0.40033 0.0
H349 H -0.02489 0.31372 0.44238 0.0
H350 H 0.88791 0.29645 0.41266 0.0
H351 H 0.94336 0.51571 0.37763 0.0
H352 H -0.01819 0.55004 0.34266 0.0
H353 H 0.02389 0.56299 0.37699 0.0
H354 H 0.08836 0.52456 0.35083 0.0
H355 H 0.04644 0.51064 0.31693 0.0
H356 H 0.05202 0.44912 0.33458 0.0
H357 H 0.83152 0.27924 0.36689 0.0
H358 H 0.81285 0.26534 0.31267 0.0
H359 H 0.95086 0.45379 0.29648 0.0
C360 C 0.03839 0.45077 0.40435 0.0
C361 C 0.03486 0.40386 0.42325 0.0
C362 C -0.02125 0.35052 0.42817 0.0
C363 C 0.92881 0.34037 0.41125 0.0
C364 C 0.93562 0.38424 0.38977 0.0
C365 C -0.01116 0.43954 0.38686 0.0
C366 C -0.00956 0.47216 0.35769 0.0
C367 C -0.01551 0.52855 0.36413 0.0
C368 C 0.04759 0.48998 0.33894 0.0
C369 C 0.93449 0.42265 0.34267 0.0
C370 C 0.90172 0.37377 0.36217 0.0
C371 C 0.8553 0.31805 0.35178 0.0
C372 C 0.84487 0.31053 0.3207 0.0
C373 C 0.88091 0.35845 0.30022 0.0
C374 C 0.92296 0.41635 0.31167 0.0
H375 H 0.6556 0.05552 0.73762 0.0
H376 H 0.70793 0.22671 0.69136 0.0
H377 H 0.64496 0.16981 0.64807 0.0
H378 H 0.67854 -0.01124 0.68419 0.0
H379 H 0.61676 0.91178 0.68926 0.0
H380 H 0.64266 0.96262 0.72057 0.0
H381 H 0.5364 0.94691 0.72884 0.0
H382 H 0.50947 0.89469 0.69755 0.0
H383 H 0.49824 0.9596 0.69804 0.0
H384 H 0.60738 0.09885 0.60551 0.0
H385 H 0.60043 0.02308 0.56872 0.0
H386 H 0.57181 0.89586 0.64152 0.0
C387 C 0.6508 0.08097 0.71914 0.0
C388 C 0.68624 0.14532 0.7178 0.0
C389 C 0.68089 0.17729 0.69279 0.0
C390 C 0.6449 0.14524 0.6682 0.0
C391 C 0.61443 0.08133 0.66908 0.0
C392 C 0.61604 0.04946 0.6943 0.0
C393 C 0.59041 -0.01781 0.68766 0.0
C394 C 0.63478 0.9602 0.69586 0.0
C395 C 0.53002 0.94356 0.70398 0.0
C396 C 0.58163 -0.01734 0.65395 0.0
C397 C 0.59259 0.03945 0.64389 0.0
C398 C 0.59662 0.05367 0.61318 0.0
C399 C 0.59263 0.01027 0.59238 0.0
C400 C 0.58564 0.95374 0.60243 0.0
C401 C 0.57675 0.9387 0.63341 0.0
H402 H 0.89971 0.81117 1.06284 0.0
H403 H 0.74226 0.6539 1.10095 0.0
H404 H 0.7591 0.58574 1.06777 0.0
H405 H 0.87495 0.76563 0.98924 0.0
H406 H 0.95344 0.79773 0.98041 0.0
H407 H 0.93067 0.82843 1.01075 0.0
H408 H 0.00307 0.80952 1.04484 0.0
H409 H 0.01879 0.7714 1.01497 0.0
H410 H -0.0114 0.73246 1.05027 0.0
H411 H 0.78087 0.53808 1.02355 0.0
H412 H 0.80778 0.51541 0.9736 0.0
H413 H 0.95261 0.70347 0.96583 0.0
C414 C 0.87026 0.7622 1.06521 0.0
C415 C 0.81979 0.7379 1.08458 0.0
C416 C 0.78115 0.67359 1.08621 0.0
C417 C 0.79057 0.63448 1.06757 0.0
C418 C 0.8393 0.66025 1.04771 0.0
C419 C 0.87897 0.72266 1.04675 0.0
C420 C 0.92369 0.73985 1.0212 0.0
C421 C 0.92051 0.78558 0.99911 0.0
C422 C -0.01268 0.76488 1.03358 0.0
C423 C 0.90093 0.678 1.00681 0.0
C424 C 0.85281 0.63235 1.02266 0.0
C425 C 0.81956 0.57306 1.01143 0.0
C426 C 0.83493 0.56062 0.98299 0.0
C427 C 0.88294 0.60734 0.96606 0.0
C428 C 0.91722 0.66614 0.97869 0.0
H429 H 0.19487 0.85065 0.40286 0.0
H430 H 0.25815 0.04528 0.40217 0.0
H431 H 0.35281 0.06442 0.37843 0.0
H432 H 0.3523 0.86391 0.40689 0.0
H433 H 0.32674 0.79978 0.38183 0.0
H434 H 0.27551 0.80244 0.40872 0.0
H435 H 0.20256 0.78885 0.36536 0.0
H436 H 0.25301 0.78577 0.33868 0.0
H437 H 0.22967 0.84168 0.33383 0.0
H438 H 0.42177 0.06115 0.34207 0.0
H439 H 0.45053 0.03554 0.29422 0.0
H440 H 0.35107 0.84286 0.31886 0.0
C441 C 0.22951 0.89751 0.39842 0.0
C442 C 0.21925 0.94642 0.40409 0.0
C443 C 0.26531 0.00715 0.3982 0.0
C444 C 0.31928 0.01847 0.38482 0.0
C445 C 0.32669 0.96889 0.37778 0.0
C446 C 0.28319 0.90942 0.38479 0.0
C447 C 0.29601 0.86356 0.36973 0.0
C448 C 0.31371 0.83049 0.3932 0.0
C449 C 0.24218 0.81739 0.35077 0.0
C450 C 0.34923 0.90624 0.3502 0.0
C451 C 0.36806 0.96691 0.35628 0.0
C452 C 0.40838 0.01405 0.33742 0.0
C453 C 0.42512 -0.00117 0.31022 0.0
C454 C 0.40197 0.93668 0.30224 0.0
C455 C 0.36849 0.89065 0.32397 0.0
H456 H 0.37345 0.06543 0.76187 0.0
H457 H 0.38481 0.23846 0.78163 0.0
H458 H 0.47154 0.29112 0.74773 0.0
H459 H 0.54711 0.13676 0.73675 0.0
H460 H 0.52135 0.07878 0.70817 0.0
H461 H 0.48504 0.0611 0.74458 0.0
H462 H 0.38347 0.02383 0.71741 0.0
H463 H 0.42062 0.04306 0.68168 0.0
H464 H 0.37525 0.07584 0.69238 0.0
H465 H 0.52259 0.31734 0.7001 0.0
H466 H 0.52575 0.31216 0.64523 0.0
H467 H 0.48763 0.12487 0.65194 0.0
C468 C 0.39613 0.1148 0.75991 0.0
C469 C 0.3721 0.14774 0.77404 0.0
C470 C 0.40266 0.21219 0.77129 0.0
C471 C 0.45236 0.2426 0.75204 0.0
C472 C 0.47134 0.20809 0.73584 0.0
C473 C 0.44497 0.14538 0.74015 0.0
C474 C 0.46253 0.11658 0.71517 0.0
C475 C 0.50668 0.09724 0.7269 0.0
C476 C 0.40717 0.06177 0.70082 0.0
C477 C 0.49376 0.17066 0.69366 0.0
C478 C 0.50211 0.22393 0.70691 0.0
C479 C 0.51829 0.27663 0.68981 0.0
C480 C 0.52016 0.27332 0.65837 0.0
C481 C 0.50569 0.21752 0.64431 0.0
C482 C 0.49816 0.16776 0.6623 0.0
H483 H 0.40964 0.04507 1.11262 0.0
H484 H 0.45806 0.20159 0.16972 0.0
H485 H 0.56144 0.21934 0.17344 0.0
H486 H 0.48546 -0.01472 1.15175 0.0
H487 H 0.50822 0.9612 1.1187 0.0
H488 H 0.44173 0.96724 1.1177 0.0
H489 H 0.48616 0.04027 1.07122 0.0
H490 H 0.5532 0.03491 1.0732 0.0
H491 H 0.55844 0.10875 1.07417 0.0
H492 H 0.65682 0.21399 0.17465 0.0
H493 H 0.73426 0.18317 0.17478 0.0
H494 H 0.62057 0.02682 1.11966 0.0
C495 C 0.44234 0.08377 1.1254 0.0
C496 C 0.42612 0.12202 1.14088 0.0
C497 C 0.46987 0.172 1.15755 0.0
C498 C 0.5286 0.18242 0.1598 0.0
C499 C 0.54268 0.14257 1.14505 0.0
C500 C 0.50077 0.09435 1.12809 0.0
C501 C 0.52574 0.0555 1.11625 0.0
C502 C 0.48798 -0.01162 1.12676 0.0
C503 C 0.53122 0.06017 1.08166 0.0
C504 C 0.58685 0.08701 1.13083 0.0
C505 C 0.59666 0.13834 1.14652 0.0
C506 C 0.64973 0.1742 0.16225 0.0
C507 C 0.69341 0.15654 0.16224 0.0
C508 C 0.68289 0.1029 1.14733 0.0
C509 C 0.62932 0.06809 1.13124 0.0
H510 H 0.44324 0.49853 0.5052 0.0
H511 H 0.4916 0.35733 0.49984 0.0
H512 H 0.59903 0.43677 0.50383 0.0
H513 H 0.55133 0.59619 0.4561 0.0
H514 H 0.56536 0.66563 0.47439 0.0
H515 H 0.49311 0.5977 0.478 0.0
H516 H 0.50171 0.60377 0.53635 0.0
H517 H 0.57396 0.6723 0.53288 0.0
H518 H 0.56627 0.60772 0.55426 0.0
H519 H 0.7004 0.53258 0.5042 0.0
H520 H 0.7876 0.63637 0.49623 0.0
H521 H 0.66928 0.71185 0.49478 0.0
C522 C 0.47626 0.484 0.50578 0.0
C523 C 0.45974 0.42213 0.50267 0.0
C524 C 0.50397 0.4048 0.50253 0.0
C525 C 0.56474 0.44944 0.50492 0.0
C526 C 0.57965 0.51058 0.50706 0.0
C527 C 0.53653 0.52775 0.50728 0.0
C528 C 0.56357 0.59624 0.50515 0.0
C529 C 0.54208 0.61498 0.47672 0.0
C530 C 0.55062 0.62148 0.53388 0.0
C531 C 0.6288 0.61512 0.50282 0.0
C532 C 0.63747 0.56541 0.50489 0.0
C533 C 0.69418 0.57183 0.50274 0.0
C534 C 0.7432 0.63069 0.49813 0.0
C535 C 0.73443 0.68142 0.49487 0.0
C536 C 0.67678 0.67359 0.49734 0.0
H537 H 0.03915 0.48941 0.76861 0.0
H538 H 0.13756 0.49104 0.84813 0.0
H539 H 0.16922 0.59991 0.85621 0.0
H540 H 0.13987 0.64765 0.74305 0.0
H541 H 0.07857 0.65854 0.73205 0.0
H542 H 0.07044 0.58348 0.73041 0.0
H543 H -0.02411 0.54062 0.76443 0.0
H544 H -0.01628 0.61538 0.76651 0.0
H545 H -0.01919 0.57473 0.80066 0.0
H546 H 0.18382 0.70656 0.85755 0.0
H547 H 0.17503 0.79961 0.85383 0.0
H548 H 0.0636 0.72609 0.77463 0.0
C549 C 0.0684 0.51307 0.78735 0.0
C550 C 0.08699 0.48234 0.80744 0.0
C551 C 0.12388 0.51427 0.83217 0.0
C552 C 0.14198 0.57602 0.83693 0.0
C553 C 0.12233 0.60493 0.81686 0.0
C554 C 0.08607 0.57434 0.79265 0.0
C555 C 0.06636 0.61379 0.77607 0.0
C556 C 0.09026 0.62662 0.74346 0.0
C557 C -0.00236 0.58439 0.77699 0.0
C558 C 0.09662 0.67112 0.79489 0.0
C559 C 0.12932 0.66551 0.81811 0.0
C560 C 0.15889 0.7117 0.83926 0.0
C561 C 0.15387 0.76444 0.83692 0.0
C562 C 0.11897 0.76996 0.81385 0.0
C563 C 0.09108 0.72321 0.7923 0.0
H564 H 0.21996 0.08957 0.25982 0.0
H565 H 0.37981 0.07393 0.25549 0.0
H566 H 0.41073 0.12341 0.30528 0.0
H567 H 0.28621 0.23516 0.29661 0.0
H568 H 0.22208 0.21608 0.32022 0.0
H569 H 0.21201 0.17954 0.28423 0.0
H570 H 0.15665 0.07247 0.31014 0.0
H571 H 0.16536 0.10961 0.34581 0.0
H572 H 0.19208 0.05649 0.34118 0.0
H573 H 0.42396 0.1738 0.35702 0.0
H574 H 0.41703 0.21783 0.40548 0.0
H575 H 0.24928 0.20248 0.37707 0.0
C576 C 0.26119 0.09579 0.26946 0.0
C577 C 0.29729 0.07733 0.25331 0.0
C578 C 0.35087 0.08682 0.26711 0.0
C579 C 0.36881 0.1149 0.29561 0.0
C580 C 0.33236 0.13252 0.31081 0.0
C581 C 0.27932 0.12286 0.29828 0.0
C582 C 0.2482 0.14595 0.3194 0.0
C583 C 0.24175 0.19723 0.3042 0.0
C584 C 0.18694 0.09293 0.32974 0.0
C585 C 0.29207 0.17049 0.34569 0.0
C586 C 0.34036 0.16227 0.34022 0.0
C587 C 0.38623 0.18032 0.36137 0.0
C588 C 0.38192 0.20542 0.38898 0.0
C589 C 0.333 0.21447 0.39536 0.0
C590 C 0.2878 0.19715 0.37299 0.0
H591 H 0.29544 0.29451 0.60565 0.0
H592 H 0.1485 0.27958 0.55141 0.0
H593 H 0.09979 0.28891 0.59688 0.0
H594 H 0.20347 0.20901 0.67132 0.0
H595 H 0.25754 0.25728 0.69893 0.0
H596 H 0.28236 0.24863 0.6622 0.0
H597 H 0.33874 0.36603 0.65453 0.0
H598 H 0.31388 0.37502 0.69119 0.0
H599 H 0.29848 0.40692 0.65821 0.0
H600 H 0.06437 0.29869 0.64728 0.0
H601 H 0.04413 0.30867 0.7004 0.0
H602 H 0.21236 0.32092 0.72584 0.0
C603 C 0.25291 0.29294 0.60339 0.0
C604 C 0.22631 0.28623 0.57435 0.0
C605 C 0.17062 0.28485 0.57285 0.0
C606 C 0.14219 0.29009 0.59877 0.0
C607 C 0.16944 0.29713 0.62671 0.0
C608 C 0.22353 0.29866 0.62945 0.0
C609 C 0.24237 0.30733 0.66272 0.0
C610 C 0.2467 0.25228 0.67449 0.0
C611 C 0.30192 0.3674 0.6669 0.0
C612 C 0.1904 0.31029 0.67797 0.0
C613 C 0.14901 0.30401 0.65645 0.0
C614 C 0.09657 0.3038 0.6643 0.0
C615 C 0.08543 0.30949 0.69479 0.0
C616 C 0.12638 0.31594 0.7178 0.0
C617 C 0.18022 0.3169 0.70902 0.0
H618 H 0.0732 0.32238 0.93841 0.0
H619 H 0.92101 0.18653 0.8873 0.0
H620 H 0.86893 0.13698 0.93394 0.0
H621 H 0.05738 0.21034 0.99897 0.0
H622 H 0.08081 0.26678 1.02819 0.0
H623 H 0.10757 0.28955 0.98988 0.0
H624 H 0.06667 0.36607 0.99155 0.0
H625 H 0.03921 0.34057 1.02937 0.0
H626 H -0.01144 0.33648 1.00026 0.0
H627 H 0.83116 0.09787 0.98543 0.0
H628 H 0.80862 0.07585 1.03966 0.0
H629 H -0.02156 0.23667 1.06137 0.0
C630 C 0.02891 0.28239 0.93705 0.0
C631 C 0.00191 0.25953 0.90838 0.0
C632 C 0.94367 0.20643 0.90827 0.0
C633 C 0.91313 0.1772 0.93494 0.0
C634 C 0.94028 0.20079 0.96246 0.0
C635 C -0.00326 0.25212 0.96399 0.0
C636 C 0.01462 0.26648 0.99719 0.0
C637 C 0.06836 0.25791 1.004 0.0
C638 C 0.02808 0.33127 1.00506 0.0
C639 C 0.95833 0.21737 1.01367 0.0
C640 C 0.91697 0.17904 0.99289 0.0
C641 C 0.863 0.128 1.00193 0.0
C642 C 0.85056 0.11571 1.03292 0.0
C643 C 0.89096 0.15469 1.05506 0.0
C644 C 0.94584 0.20653 1.04514 0.0
H645 H 0.86441 -0.0117 0.24469 0.0
H646 H 0.75557 0.07216 0.25923 0.0
H647 H 0.73573 0.03253 0.31182 0.0
H648 H 0.78131 0.85327 0.29043 0.0
H649 H 0.84599 0.85382 0.30618 0.0
H650 H 0.85082 0.8872 0.26946 0.0
H651 H 0.94031 -0.0102 0.28703 0.0
H652 H 0.93624 0.95657 0.3237 0.0
H653 H 0.93258 0.02576 0.32037 0.0
H654 H 0.7218 0.97697 0.36242 0.0
H655 H 0.72753 0.92549 0.40877 0.0
H656 H 0.85496 0.88658 0.36482 0.0
C657 C 0.83649 -0.00159 0.259 0.0
C658 C 0.81099 0.0331 0.24745 0.0
C659 C 0.77558 0.04591 0.26725 0.0
C660 C 0.76384 0.0232 0.29724 0.0
C661 C 0.78903 -0.01124 0.30781 0.0
C662 C 0.82597 0.97776 0.2895 0.0
C663 C 0.8503 0.94258 0.30714 0.0
C664 C 0.83094 0.88053 0.29241 0.0
C665 C 0.91893 -0.01904 0.30971 0.0
C666 C 0.82017 0.93415 0.33797 0.0
C667 C 0.78436 0.96049 0.33761 0.0
C668 C 0.75025 0.95685 0.36289 0.0
C669 C 0.75345 0.92684 0.38923 0.0
C670 C 0.79138 0.9012 0.3909 0.0
C671 C 0.82526 0.90525 0.3646 0.0
H672 H 0.80977 0.78666 0.59952 0.0
H673 H -0.02505 0.94509 0.56881 0.0
H674 H 0.01839 0.95495 0.61942 0.0
H675 H 0.81176 0.83739 0.67739 0.0
H676 H 0.7849 0.76279 0.69414 0.0
H677 H 0.76428 0.76956 0.65606 0.0
H678 H 0.80648 0.70192 0.63728 0.0
H679 H 0.82741 0.69513 0.67529 0.0
H680 H 0.883 0.72356 0.64559 0.0
H681 H 0.04442 0.95059 0.67364 0.0
H682 H 0.05472 0.92772 0.72665 0.0
H683 H 0.87796 0.76572 0.72409 0.0
C684 C 0.85479 0.82385 0.60363 0.0
C685 C 0.88855 0.86581 0.57989 0.0
C686 C 0.94786 0.91266 0.5863 0.0
C687 C -0.02697 0.91867 0.61515 0.0
C688 C 0.9392 0.8767 0.63785 0.0
C689 C 0.88156 0.82964 0.63248 0.0
C690 C 0.85676 0.78914 0.66085 0.0
C691 C 0.80111 0.78975 0.67282 0.0
C692 C 0.84256 0.72353 0.65436 0.0
C693 C 0.90931 0.8209 0.68286 0.0
C694 C 0.95588 0.87187 0.66898 0.0
C695 C 0.00838 0.91043 0.68455 0.0
C696 C 0.01379 0.89699 0.71488 0.0
C697 C -0.03223 0.84452 0.72991 0.0
C698 C 0.91463 0.80566 0.71336 0.0
H699 H 0.06324 0.92606 0.93356 0.0
H700 H 0.06922 0.75899 0.92173 0.0
H701 H 0.11634 0.7735 0.97198 0.0
H702 H 0.20405 0.01113 0.9708 0.0
H703 H 0.17955 0.04919 0.99652 0.0
H704 H 0.14433 0.02494 0.96024 0.0
H705 H 0.03911 0.96005 0.98586 0.0
H706 H 0.07567 -0.01124 1.02155 0.0
H707 H 0.03078 0.90767 1.01588 0.0
H708 H 0.1696 0.81063 1.02321 0.0
H709 H 0.21453 0.86067 1.07161 0.0
H710 H 0.16981 0.00134 1.05183 0.0
C711 C 0.07381 0.89202 0.94161 0.0
C712 C 0.06208 0.84103 0.9233 0.0
C713 C 0.07701 0.79803 0.93505 0.0
C714 C 0.10436 0.80628 0.96361 0.0
C715 C 0.11638 0.85762 0.9807 0.0
C716 C 0.1005 0.89919 0.97031 0.0
C717 C 0.11803 0.95041 0.99313 0.0
C718 C 0.16423 0.01259 0.97934 0.0
C719 C 0.06256 0.95179 1.00474 0.0
C720 C 0.1459 0.93112 1.01811 0.0
C721 C 0.14513 0.87781 1.01034 0.0
C722 C 0.16996 0.85216 1.02942 0.0
C723 C 0.19575 0.8812 1.05698 0.0
C724 C 0.19611 0.93524 1.06593 0.0
C725 C 0.17036 0.96009 1.04599 0.0
loop_
_geom_bond_atom_site_label_1
_geom_bond_atom_site_label_2
_geom_bond_distance
_geom_bond_site_symmetry_2
_ccdc_geom_bond_type
Pr0 C2 2.880 . S
Pr0 O20 2.562 . S
Pr0 O21 2.490 . S
Pr0 O22 2.695 1_554 S
Pr0 O23 2.512 . S
Pr0 O25 2.437 . S
Pr0 O28 2.436 . S
Pr0 O30 2.438 1_554 S
Pr1 C11 2.880 . S
Pr1 O22 2.436 . S
Pr1 O24 2.438 1_556 S
Pr1 O26 2.562 . S
Pr1 O27 2.490 . S
Pr1 O28 2.695 1_556 S
Pr1 O29 2.512 . S
Pr1 O31 2.437 . S
C2 Pr0 2.880 . S
C2 C3 1.491 . S
C2 O20 1.254 . S
C2 O21 1.225 . S
C3 C2 1.491 . S
C3 C4 1.392 . S
C3 C8 1.356 . S
C4 C3 1.392 . S
C4 C5 1.368 1_545 S
C4 H32 0.929 . S
C5 C4 1.368 1_565 S
C5 C6 1.386 1_565 S
C5 H33 0.929 . S
C6 C5 1.386 1_545 S
C6 C7 1.373 . S
C7 C6 1.373 . S
C7 C8 1.409 . S
C7 H34 0.931 . S
C8 C3 1.356 . S
C8 C7 1.409 . S
C8 H35 0.930 . S
C9 O22 1.270 1_554 S
C9 O23 1.248 . S
C10 O24 1.267 . S
C10 O25 1.278 . S
C11 Pr1 2.880 . S
C11 C12 1.491 . S
C11 O26 1.254 . S
C11 O27 1.225 . S
C12 C11 1.491 . S
C12 C13 1.392 . S
C12 C17 1.356 . S
C13 C12 1.392 . S
C13 C14 1.368 . S
C13 H36 0.929 . S
C14 C13 1.368 . S
C14 C15 1.386 . S
C14 H37 0.929 . S
C15 C14 1.386 . S
C15 C16 1.373 . S
C16 C15 1.373 . S
C16 C17 1.409 . S
C16 H38 0.931 . S
C17 C12 1.356 . S
C17 C16 1.409 . S
C17 H39 0.930 . S
C18 O28 1.270 . S
C18 O29 1.248 1_554 S
C19 O30 1.267 . S
C19 O31 1.278 . S
O20 Pr0 2.562 . S
O20 C2 1.254 . S
O21 Pr0 2.490 . S
O21 C2 1.225 . S
O22 Pr0 2.695 1_556 S
O22 Pr1 2.436 . S
O22 C9 1.270 1_556 S
O23 Pr0 2.512 . S
O23 C9 1.248 . S
O24 Pr1 2.438 1_554 S
O24 C10 1.267 . S
O25 Pr0 2.437 . S
O25 C10 1.278 . S
O26 Pr1 2.562 . S
O26 C11 1.254 . S
O27 Pr1 2.490 . S
O27 C11 1.225 . S
O28 Pr0 2.436 . S
O28 Pr1 2.695 1_554 S
O28 C18 1.270 . S
O29 Pr1 2.512 . S
O29 C18 1.248 1_556 S
O30 Pr0 2.438 1_556 S
O30 C19 1.267 . S
O31 Pr1 2.437 . S
O31 C19 1.278 . S
H32 C4 0.929 . S
H33 C5 0.929 . S
H34 C7 0.931 . S
H35 C8 0.930 . S
H36 C13 0.929 . S
H37 C14 0.929 . S
H38 C16 0.931 . S
H39 C17 0.930 . S
Pr40 C42 2.880 . S
Pr40 O60 2.562 . S
Pr40 O61 2.490 . S
Pr40 O62 2.695 . S
Pr40 O63 2.512 . S
Pr40 O65 2.437 . S
Pr40 O68 2.436 . S
Pr40 O70 2.438 . S
Pr41 C51 2.880 . S
Pr41 O62 2.436 . S
Pr41 O64 2.438 . S
Pr41 O66 2.562 . S
Pr41 O67 2.490 . S
Pr41 O68 2.695 . S
Pr41 O69 2.512 . S
Pr41 O71 2.437 . S
C42 Pr40 2.880 . S
C42 C43 1.491 . S
C42 O60 1.254 . S
C42 O61 1.225 . S
C43 C42 1.491 . S
C43 C44 1.392 . S
C43 C48 1.356 . S
C44 C43 1.392 . S
C44 C45 1.368 . S
C44 H72 0.929 . S
C45 C44 1.368 . S
C45 C46 1.386 . S
C45 H73 0.929 . S
C46 C45 1.386 . S
C46 C47 1.373 . S
C47 C46 1.373 . S
C47 C48 1.409 . S
C47 H74 0.931 . S
C48 C43 1.356 . S
C48 C47 1.409 . S
C48 H75 0.930 . S
C49 O62 1.270 . S
C49 O63 1.248 . S
C50 O64 1.267 . S
C50 O65 1.278 . S
C51 Pr41 2.880 . S
C51 C52 1.491 . S
C51 O66 1.254 . S
C51 O67 1.225 . S
C52 C51 1.491 . S
C52 C53 1.392 . S
C52 C57 1.356 . S
C53 C52 1.392 . S
C53 C54 1.368 . S
C53 H76 0.929 . S
C54 C53 1.368 . S
C54 C55 1.386 . S
C54 H77 0.929 . S
C55 C54 1.386 . S
C55 C56 1.373 . S
C56 C55 1.373 . S
C56 C57 1.409 . S
C56 H78 0.931 . S
C57 C52 1.356 . S
C57 C56 1.409 . S
C57 H79 0.930 . S
C58 O68 1.270 . S
C58 O69 1.248 . S
C59 O70 1.267 . S
C59 O71 1.278 . S
O60 Pr40 2.562 . S
O60 C42 1.254 . S
O61 Pr40 2.490 . S
O61 C42 1.225 . S
O62 Pr40 2.695 . S
O62 Pr41 2.436 . S
O62 C49 1.270 . S
O63 Pr40 2.512 . S
O63 C49 1.248 . S
O64 Pr41 2.438 . S
O64 C50 1.267 . S
O65 Pr40 2.437 . S
O65 C50 1.278 . S
O66 Pr41 2.562 . S
O66 C51 1.254 . S
O67 Pr41 2.490 . S
O67 C51 1.225 . S
O68 Pr40 2.436 . S
O68 Pr41 2.695 . S
O68 C58 1.270 . S
O69 Pr41 2.512 . S
O69 C58 1.248 . S
O70 Pr40 2.438 . S
O70 C59 1.267 . S
O71 Pr41 2.437 . S
O71 C59 1.278 . S
H72 C44 0.929 . S
H73 C45 0.929 . S
H74 C47 0.931 . S
H75 C48 0.930 . S
H76 C53 0.929 . S
H77 C54 0.929 . S
H78 C56 0.931 . S
H79 C57 0.930 . S
Pr80 C82 2.880 . S
Pr80 O100 2.562 . S
Pr80 O101 2.490 . S
Pr80 O102 2.698 . S
Pr80 O103 2.512 . S
Pr80 O105 2.437 1_455 S
Pr80 O108 2.433 1_455 S
Pr80 O110 2.438 . S
Pr81 C91 2.880 . S
Pr81 O102 2.428 1_655 S
Pr81 O104 2.438 . S
Pr81 O106 2.562 . S
Pr81 O107 2.490 . S
Pr81 O108 2.696 . S
Pr81 O109 2.512 . S
Pr81 O111 2.437 1_655 S
C82 Pr80 2.880 . S
C82 C83 1.491 . S
C82 O100 1.254 . S
C82 O101 1.225 . S
C83 C82 1.491 . S
C83 C84 1.392 . S
C83 C88 1.356 . S
C84 C83 1.392 . S
C84 C85 1.368 . S
C84 H112 0.929 . S
C85 C84 1.368 . S
C85 C86 1.386 . S
C85 H113 0.929 . S
C86 C85 1.386 . S
C86 C87 1.373 . S
C87 C86 1.373 . S
C87 C88 1.409 . S
C87 H114 0.931 . S
C88 C83 1.356 . S
C88 C87 1.409 . S
C88 H115 0.930 . S
C89 O102 1.277 . S
C89 O103 1.248 . S
C90 O104 1.267 . S
C90 O105 1.278 . S
C91 Pr81 2.880 . S
C91 C92 1.491 . S
C91 O106 1.254 . S
C91 O107 1.225 . S
C92 C91 1.491 . S
C92 C93 1.392 . S
C92 C97 1.356 . S
C93 C92 1.392 . S
C93 C94 1.368 . S
C93 H116 0.929 . S
C94 C93 1.368 . S
C94 C95 1.386 . S
C94 H117 0.929 . S
C95 C94 1.386 . S
C95 C96 1.373 . S
C96 C95 1.373 . S
C96 C97 1.409 . S
C96 H118 0.931 . S
C97 C92 1.356 . S
C97 C96 1.409 . S
C97 H119 0.930 . S
C98 O108 1.273 . S
C98 O109 1.248 . S
C99 O110 1.267 . S
C99 O111 1.278 . S
O100 Pr80 2.562 . S
O100 C82 1.254 . S
O101 Pr80 2.490 . S
O101 C82 1.225 . S
O102 Pr80 2.698 . S
O102 Pr81 2.428 1_455 S
O102 C89 1.277 . S
O103 Pr80 2.512 . S
O103 C89 1.248 . S
O104 Pr81 2.438 . S
O104 C90 1.267 . S
O105 Pr80 2.437 1_655 S
O105 C90 1.278 . S
O106 Pr81 2.562 . S
O106 C91 1.254 . S
O107 Pr81 2.490 . S
O107 C91 1.225 . S
O108 Pr80 2.433 1_655 S
O108 Pr81 2.696 . S
O108 C98 1.273 . S
O109 Pr81 2.512 . S
O109 C98 1.248 . S
O110 Pr80 2.438 . S
O110 C99 1.267 . S
O111 Pr81 2.437 1_455 S
O111 C99 1.278 . S
H112 C84 0.929 . S
H113 C85 0.929 . S
H114 C87 0.931 . S
H115 C88 0.930 . S
H116 C93 0.929 . S
H117 C94 0.929 . S
H118 C96 0.931 . S
H119 C97 0.930 . S
Pr120 C122 2.880 . S
Pr120 O140 2.562 . S
Pr120 O141 2.490 . S
Pr120 O142 2.695 1_554 S
Pr120 O143 2.512 . S
Pr120 O145 2.437 1_545 S
Pr120 O148 2.439 . S
Pr120 O150 2.438 1_554 S
Pr121 C131 2.880 . S
Pr121 O142 2.436 1_565 S
Pr121 O144 2.438 1_556 S
Pr121 O146 2.562 . S
Pr121 O147 2.490 . S
Pr121 O148 2.685 1_566 S
Pr121 O149 2.512 . S
Pr121 O151 2.437 1_565 S
C122 Pr120 2.880 . S
C122 C123 1.491 . S
C122 O140 1.254 . S
C122 O141 1.225 . S
C123 C122 1.491 . S
C123 C124 1.392 . S
C123 C128 1.356 . S
C124 C123 1.392 . S
C124 C125 1.368 . S
C124 H152 0.929 . S
C125 C124 1.368 . S
C125 C126 1.386 . S
C125 H153 0.929 . S
C126 C125 1.386 . S
C126 C127 1.373 . S
C127 C126 1.373 . S
C127 C128 1.409 . S
C127 H154 0.931 . S
C128 C123 1.356 . S
C128 C127 1.409 . S
C128 H155 0.930 . S
C129 O142 1.270 1_554 S
C129 O143 1.248 . S
C130 O144 1.267 . S
C130 O145 1.278 . S
C131 Pr121 2.880 . S
C131 C132 1.491 . S
C131 O146 1.254 . S
C131 O147 1.225 . S
C132 C131 1.491 . S
C132 C133 1.392 . S
C132 C137 1.356 . S
C133 C132 1.392 . S
C133 C134 1.368 . S
C133 H156 0.929 . S
C134 C133 1.368 . S
C134 C135 1.386 . S
C134 H157 0.929 . S
C135 C134 1.386 . S
C135 C136 1.373 . S
C136 C135 1.373 . S
C136 C137 1.409 . S
C136 H158 0.931 . S
C137 C132 1.356 . S
C137 C136 1.409 . S
C137 H159 0.930 . S
C138 O148 1.271 1_565 S
C138 O149 1.248 1_554 S
C139 O150 1.267 . S
C139 O151 1.278 . S
O140 Pr120 2.562 . S
O140 C122 1.254 . S
O141 Pr120 2.490 . S
O141 C122 1.225 . S
O142 Pr120 2.695 1_556 S
O142 Pr121 2.436 1_545 S
O142 C129 1.270 1_556 S
O143 Pr120 2.512 . S
O143 C129 1.248 . S
O144 Pr121 2.438 1_554 S
O144 C130 1.267 . S
O145 Pr120 2.437 1_565 S
O145 C130 1.278 . S
O146 Pr121 2.562 . S
O146 C131 1.254 . S
O147 Pr121 2.490 . S
O147 C131 1.225 . S
O148 Pr120 2.439 . S
O148 Pr121 2.685 1_544 S
O148 C138 1.271 1_545 S
O149 Pr121 2.512 . S
O149 C138 1.248 1_556 S
O150 Pr120 2.438 1_556 S
O150 C139 1.267 . S
O151 Pr121 2.437 1_545 S
O151 C139 1.278 . S
H152 C124 0.929 . S
H153 C125 0.929 . S
H154 C127 0.931 . S
H155 C128 0.930 . S
H156 C133 0.929 . S
H157 C134 0.929 . S
H158 C136 0.931 . S
H159 C137 0.930 . S
Pr160 C162 2.880 . S
Pr160 O180 2.562 . S
Pr160 O181 2.490 . S
Pr160 O182 2.695 . S
Pr160 O183 2.512 . S
Pr160 O185 2.437 . S
Pr160 O188 2.436 . S
Pr160 O190 2.438 . S
Pr161 C171 2.880 . S
Pr161 O182 2.436 . S
Pr161 O184 2.438 . S
Pr161 O186 2.562 1_655 S
Pr161 O187 2.490 . S
Pr161 O188 2.695 . S
Pr161 O189 2.512 . S
Pr161 O191 2.437 . S
C162 Pr160 2.880 . S
C162 C163 1.491 . S
C162 O180 1.254 . S
C162 O181 1.225 . S
C163 C162 1.491 . S
C163 C164 1.392 . S
C163 C168 1.356 . S
C164 C163 1.392 . S
C164 C165 1.368 . S
C164 H192 0.929 . S
C165 C164 1.368 . S
C165 C166 1.386 . S
C165 H193 0.929 . S
C166 C165 1.386 . S
C166 C167 1.373 . S
C167 C166 1.373 . S
C167 C168 1.409 . S
C167 H194 0.931 . S
C168 C163 1.356 . S
C168 C167 1.409 . S
C168 H195 0.930 . S
C169 O182 1.270 1_455 S
C169 O183 1.248 1_455 S
C170 O184 1.267 . S
C170 O185 1.278 . S
C171 Pr161 2.880 . S
C171 C172 1.491 1_655 S
C171 O186 1.254 1_655 S
C171 O187 1.225 . S
C172 C171 1.491 1_455 S
C172 C173 1.392 1_455 S
C172 C177 1.356 . S
C173 C172 1.392 1_655 S
C173 C174 1.361 1_655 S
C173 H196 0.929 . S
C174 C173 1.361 1_455 S
C174 C175 1.389 . S
C174 H197 0.933 1_455 S
C175 C174 1.389 . S
C175 C176 1.373 . S
C176 C175 1.373 . S
C176 C177 1.409 . S
C176 H198 0.931 . S
C177 C172 1.356 . S
C177 C176 1.409 . S
C177 H199 0.930 . S
C178 O188 1.270 . S
C178 O189 1.248 . S
C179 O190 1.267 . S
C179 O191 1.278 . S
O180 Pr160 2.562 . S
O180 C162 1.254 . S
O181 Pr160 2.490 . S
O181 C162 1.225 . S
O182 Pr160 2.695 . S
O182 Pr161 2.436 . S
O182 C169 1.270 1_655 S
O183 Pr160 2.512 . S
O183 C169 1.248 1_655 S
O184 Pr161 2.438 . S
O184 C170 1.267 . S
O185 Pr160 2.437 . S
O185 C170 1.278 . S
O186 Pr161 2.562 1_455 S
O186 C171 1.254 1_455 S
O187 Pr161 2.490 . S
O187 C171 1.225 . S
O188 Pr160 2.436 . S
O188 Pr161 2.695 . S
O188 C178 1.270 . S
O189 Pr161 2.512 . S
O189 C178 1.248 . S
O190 Pr160 2.438 . S
O190 C179 1.267 . S
O191 Pr161 2.437 . S
O191 C179 1.278 . S
H192 C164 0.929 . S
H193 C165 0.929 . S
H194 C167 0.931 . S
H195 C168 0.930 . S
H196 C173 0.929 . S
H197 C174 0.933 1_655 S
H198 C176 0.931 . S
H199 C177 0.930 . S
Pr200 C202 2.880 . S
Pr200 O220 2.562 . S
Pr200 O221 2.490 . S
Pr200 O222 2.695 . S
Pr200 O223 2.512 . S
Pr200 O225 2.437 . S
Pr200 O228 2.436 . S
Pr200 O230 2.438 . S
Pr201 C211 2.880 . S
Pr201 O222 2.436 . S
Pr201 O224 2.438 . S
Pr201 O226 2.562 1_565 S
Pr201 O227 2.490 . S
Pr201 O228 2.695 . S
Pr201 O229 2.512 . S
Pr201 O231 2.437 . S
C202 Pr200 2.880 . S
C202 C203 1.491 . S
C202 O220 1.254 . S
C202 O221 1.225 . S
C203 C202 1.491 . S
C203 C204 1.392 . S
C203 C208 1.356 . S
C204 C203 1.392 . S
C204 C205 1.368 1_455 S
C204 H232 0.929 . S
C205 C204 1.368 1_655 S
C205 C206 1.386 1_655 S
C205 H233 0.929 . S
C206 C205 1.386 1_455 S
C206 C207 1.373 . S
C207 C206 1.373 . S
C207 C208 1.409 . S
C207 H234 0.931 . S
C208 C203 1.356 . S
C208 C207 1.409 . S
C208 H235 0.930 . S
C209 O222 1.270 1_545 S
C209 O223 1.248 1_545 S
C210 O224 1.267 . S
C210 O225 1.278 . S
C211 Pr201 2.880 . S
C211 C212 1.491 1_565 S
C211 O226 1.254 1_565 S
C211 O227 1.225 . S
C212 C211 1.491 1_545 S
C212 C213 1.392 1_545 S
C212 C217 1.356 . S
C213 C212 1.392 1_565 S
C213 C214 1.368 1_565 S
C213 H236 0.929 . S
C214 C213 1.368 1_545 S
C214 C215 1.386 . S
C214 H237 0.929 1_545 S
C215 C214 1.386 . S
C215 C216 1.373 . S
C216 C215 1.373 . S
C216 C217 1.409 . S
C216 H238 0.931 . S
C217 C212 1.356 . S
C217 C216 1.409 . S
C217 H239 0.930 . S
C218 O228 1.270 . S
C218 O229 1.248 . S
C219 O230 1.267 . S
C219 O231 1.278 . S
O220 Pr200 2.562 . S
O220 C202 1.254 . S
O221 Pr200 2.490 . S
O221 C202 1.225 . S
O222 Pr200 2.695 . S
O222 Pr201 2.436 . S
O222 C209 1.270 1_565 S
O223 Pr200 2.512 . S
O223 C209 1.248 1_565 S
O224 Pr201 2.438 . S
O224 C210 1.267 . S
O225 Pr200 2.437 . S
O225 C210 1.278 . S
O226 Pr201 2.562 1_545 S
O226 C211 1.254 1_545 S
O227 Pr201 2.490 . S
O227 C211 1.225 . S
O228 Pr200 2.436 . S
O228 Pr201 2.695 . S
O228 C218 1.270 . S
O229 Pr201 2.512 . S
O229 C218 1.248 . S
O230 Pr200 2.438 . S
O230 C219 1.267 . S
O231 Pr201 2.437 . S
O231 C219 1.278 . S
H232 C204 0.929 . S
H233 C205 0.929 . S
H234 C207 0.931 . S
H235 C208 0.930 . S
H236 C213 0.929 . S
H237 C214 0.929 1_565 S
H238 C216 0.931 . S
H239 C217 0.930 . S
H240 C252 0.930 . S
H241 C254 0.930 1_565 S
H242 C255 0.930 . S
H243 C259 0.959 . S
H244 C259 0.959 . S
H245 C259 0.961 . S
H246 C260 0.960 . S
H247 C260 0.961 . S
H248 C260 0.959 . S
H249 C263 0.929 . S
H250 C264 0.931 . S
H251 C266 0.930 . S
C252 H240 0.930 . S
C252 C253 1.388 1_554 S
C252 C257 1.399 1_655 S
C253 C252 1.388 1_556 S
C253 C254 1.390 . S
C254 H241 0.930 1_545 S
C254 C253 1.390 . S
C254 C255 1.388 1_655 S
C255 H242 0.930 . S
C255 C254 1.388 1_455 S
C255 C256 1.390 . S
C256 C255 1.390 . S
C256 C257 1.394 1_556 S
C256 C262 1.465 . S
C257 C252 1.399 1_455 S
C257 C256 1.394 1_554 S
C257 C258 1.516 . S
C258 C257 1.516 . S
C258 C259 1.502 . S
C258 C260 1.561 . S
C258 C261 1.526 . S
C259 H243 0.959 . S
C259 H244 0.959 . S
C259 H245 0.961 . S
C259 C258 1.502 . S
C260 H246 0.960 . S
C260 H247 0.961 . S
C260 H248 0.959 . S
C260 C258 1.561 . S
C261 C258 1.526 . S
C261 C262 1.396 1_554 S
C261 C266 1.390 . S
C262 C256 1.465 . S
C262 C261 1.396 1_556 S
C262 C263 1.399 . S
C263 H249 0.929 . S
C263 C262 1.399 . S
C263 C264 1.385 . S
C264 H250 0.931 . S
C264 C263 1.385 . S
C264 C265 1.414 . S
C265 C264 1.414 . S
C265 C266 1.367 1_556 S
C266 H251 0.930 . S
C266 C261 1.390 . S
C266 C265 1.367 1_554 S
H267 C279 0.930 . S
H268 C281 0.930 . S
H269 C282 0.930 . S
H270 C286 0.959 1_655 S
H271 C286 0.959 . S
H272 C286 0.961 1_655 S
H273 C287 0.960 . S
H274 C287 0.961 . S
H275 C287 0.959 . S
H276 C290 0.929 . S
H277 C291 0.931 . S
H278 C293 0.930 . S
C279 H267 0.930 . S
C279 C280 1.399 . S
C279 C284 1.399 1_565 S
C280 C279 1.399 . S
C280 C281 1.376 . S
C281 H268 0.930 . S
C281 C280 1.376 . S
C281 C282 1.388 1_565 S
C282 H269 0.930 . S
C282 C281 1.388 1_545 S
C282 C283 1.390 . S
C283 C282 1.390 . S
C283 C284 1.394 . S
C283 C289 1.465 . S
C284 C279 1.399 1_545 S
C284 C283 1.394 . S
C284 C285 1.516 . S
C285 C284 1.516 . S
C285 C286 1.502 . S
C285 C287 1.561 . S
C285 C288 1.526 . S
C286 H270 0.959 1_455 S
C286 H271 0.959 . S
C286 H272 0.961 1_455 S
C286 C285 1.502 . S
C287 H273 0.960 . S
C287 H274 0.961 . S
C287 H275 0.959 . S
C287 C285 1.561 . S
C288 C285 1.526 . S
C288 C289 1.396 . S
C288 C293 1.390 . S
C289 C283 1.465 . S
C289 C288 1.396 . S
C289 C290 1.399 . S
C290 H276 0.929 . S
C290 C289 1.399 . S
C290 C291 1.385 . S
C291 H277 0.931 . S
C291 C290 1.385 . S
C291 C292 1.389 . S
C292 C291 1.389 . S
C292 C293 1.387 . S
C293 H278 0.930 . S
C293 C288 1.390 . S
C293 C292 1.387 . S
H294 C306 0.930 . S
H295 C308 0.930 . S
H296 C309 0.930 . S
H297 C313 0.959 . S
H298 C313 0.959 . S
H299 C313 0.961 . S
H300 C314 0.960 . S
H301 C314 0.961 . S
H302 C314 0.959 . S
H303 C317 0.929 . S
H304 C318 0.931 1_655 S
H305 C320 0.930 . S
C306 H294 0.930 . S
C306 C307 1.399 . S
C306 C311 1.399 . S
C307 C306 1.399 . S
C307 C308 1.376 . S
C308 H295 0.930 . S
C308 C307 1.376 . S
C308 C309 1.388 . S
C309 H296 0.930 . S
C309 C308 1.388 . S
C309 C310 1.390 . S
C310 C309 1.390 . S
C310 C311 1.394 . S
C310 C316 1.465 . S
C311 C306 1.399 . S
C311 C310 1.394 . S
C311 C312 1.516 . S
C312 C311 1.516 . S
C312 C313 1.502 . S
C312 C314 1.561 . S
C312 C315 1.526 . S
C313 H297 0.959 . S
C313 H298 0.959 . S
C313 H299 0.961 . S
C313 C312 1.502 . S
C314 H300 0.960 . S
C314 H301 0.961 . S
C314 H302 0.959 . S
C314 C312 1.561 . S
C315 C312 1.526 . S
C315 C316 1.396 . S
C315 C320 1.390 . S
C316 C310 1.465 . S
C316 C315 1.396 . S
C316 C317 1.399 . S
C317 H303 0.929 . S
C317 C316 1.399 . S
C317 C318 1.385 . S
C318 H304 0.931 1_455 S
C318 C317 1.385 . S
C318 C319 1.389 . S
C319 C318 1.389 . S
C319 C320 1.387 . S
C320 H305 0.930 . S
C320 C315 1.390 . S
C320 C319 1.387 . S
H321 C333 0.930 . S
H322 C335 0.930 . S
H323 C336 0.930 . S
H324 C340 0.959 . S
H325 C340 0.959 . S
H326 C340 0.961 . S
H327 C341 0.960 . S
H328 C341 0.961 . S
H329 C341 0.959 . S
H330 C344 0.929 . S
H331 C345 0.931 . S
H332 C347 0.930 . S
C333 H321 0.930 . S
C333 C334 1.399 . S
C333 C338 1.399 . S
C334 C333 1.399 . S
C334 C335 1.376 . S
C335 H322 0.930 . S
C335 C334 1.376 . S
C335 C336 1.388 . S
C336 H323 0.930 . S
C336 C335 1.388 . S
C336 C337 1.390 . S
C337 C336 1.390 . S
C337 C338 1.394 . S
C337 C343 1.465 . S
C338 C333 1.399 . S
C338 C337 1.394 . S
C338 C339 1.516 . S
C339 C338 1.516 . S
C339 C340 1.502 . S
C339 C341 1.561 . S
C339 C342 1.526 . S
C340 H324 0.959 . S
C340 H325 0.959 . S
C340 H326 0.961 . S
C340 C339 1.502 . S
C341 H327 0.960 . S
C341 H328 0.961 . S
C341 H329 0.959 . S
C341 C339 1.561 . S
C342 C339 1.526 . S
C342 C343 1.396 . S
C342 C347 1.390 . S
C343 C337 1.465 . S
C343 C342 1.396 . S
C343 C344 1.399 . S
C344 H330 0.929 . S
C344 C343 1.399 . S
C344 C345 1.385 . S
C345 H331 0.931 . S
C345 C344 1.385 . S
C345 C346 1.389 . S
C346 C345 1.389 . S
C346 C347 1.387 . S
C347 H332 0.930 . S
C347 C342 1.390 . S
C347 C346 1.387 . S
H348 C360 0.930 . S
H349 C362 0.930 . S
H350 C363 0.930 . S
H351 C367 0.959 . S
H352 C367 0.959 . S
H353 C367 0.961 . S
H354 C368 0.960 . S
H355 C368 0.961 . S
H356 C368 0.959 . S
H357 C371 0.929 . S
H358 C372 0.931 . S
H359 C374 0.930 . S
C360 H348 0.930 . S
C360 C361 1.399 . S
C360 C365 1.399 . S
C361 C360 1.399 . S
C361 C362 1.376 . S
C362 H349 0.930 . S
C362 C361 1.376 . S
C362 C363 1.388 . S
C363 H350 0.930 . S
C363 C362 1.388 . S
C363 C364 1.390 . S
C364 C363 1.390 . S
C364 C365 1.394 . S
C364 C370 1.465 1_455 S
C365 C360 1.399 . S
C365 C364 1.394 . S
C365 C366 1.516 . S
C366 C365 1.516 . S
C366 C367 1.502 1_455 S
C366 C368 1.561 . S
C366 C369 1.526 1_455 S
C367 H351 0.959 . S
C367 H352 0.959 . S
C367 H353 0.961 . S
C367 C366 1.502 1_655 S
C368 H354 0.960 . S
C368 H355 0.961 . S
C368 H356 0.959 . S
C368 C366 1.561 . S
C369 C366 1.526 1_655 S
C369 C370 1.396 . S
C369 C374 1.390 . S
C370 C364 1.465 1_655 S
C370 C369 1.396 . S
C370 C371 1.399 . S
C371 H357 0.929 . S
C371 C370 1.399 . S
C371 C372 1.385 . S
C372 H358 0.931 . S
C372 C371 1.385 . S
C372 C373 1.389 . S
C373 C372 1.389 . S
C373 C374 1.387 . S
C374 H359 0.930 . S
C374 C369 1.390 . S
C374 C373 1.387 . S
H375 C387 0.930 . S
H376 C389 0.930 . S
H377 C390 0.930 . S
H378 C394 0.959 1_545 S
H379 C394 0.959 . S
H380 C394 0.961 1_545 S
H381 C395 0.960 . S
H382 C395 0.961 . S
H383 C395 0.959 . S
H384 C398 0.929 1_545 S
H385 C399 0.931 . S
H386 C401 0.930 . S
C387 H375 0.930 . S
C387 C388 1.399 . S
C387 C392 1.399 . S
C388 C387 1.399 . S
C388 C389 1.376 . S
C389 H376 0.930 . S
C389 C388 1.376 . S
C389 C390 1.388 . S
C390 H377 0.930 . S
C390 C389 1.388 . S
C390 C391 1.390 . S
C391 C390 1.390 . S
C391 C392 1.394 . S
C391 C397 1.465 1_545 S
C392 C387 1.399 . S
C392 C391 1.394 . S
C392 C393 1.516 1_545 S
C393 C392 1.516 1_565 S
C393 C394 1.502 . S
C393 C395 1.561 . S
C393 C396 1.526 . S
C394 H378 0.959 1_565 S
C394 H379 0.959 . S
C394 H380 0.961 1_565 S
C394 C393 1.502 . S
C395 H381 0.960 . S
C395 H382 0.961 . S
C395 H383 0.959 . S
C395 C393 1.561 . S
C396 C393 1.526 . S
C396 C397 1.396 . S
C396 C401 1.390 . S
C397 C391 1.465 1_565 S
C397 C396 1.396 . S
C397 C398 1.399 . S
C398 H384 0.929 1_565 S
C398 C397 1.399 . S
C398 C399 1.385 . S
C399 H385 0.931 . S
C399 C398 1.385 . S
C399 C400 1.389 . S
C400 C399 1.389 . S
C400 C401 1.387 . S
C401 H386 0.930 . S
C401 C396 1.390 . S
C401 C400 1.387 . S
H402 C414 0.930 . S
H403 C416 0.930 . S
H404 C417 0.930 . S
H405 C421 0.959 . S
H406 C421 0.959 . S
H407 C421 0.961 . S
H408 C422 0.960 . S
H409 C422 0.961 . S
H410 C422 0.959 . S
H411 C425 0.929 . S
H412 C426 0.931 . S
H413 C428 0.930 1_455 S
C414 H402 0.930 . S
C414 C415 1.399 . S
C414 C419 1.399 . S
C415 C414 1.399 . S
C415 C416 1.376 . S
C416 H403 0.930 . S
C416 C415 1.376 . S
C416 C417 1.388 . S
C417 H404 0.930 . S
C417 C416 1.388 . S
C417 C418 1.390 . S
C418 C417 1.390 . S
C418 C419 1.394 . S
C418 C424 1.465 . S
C419 C414 1.399 . S
C419 C418 1.394 . S
C419 C420 1.516 . S
C420 C419 1.516 . S
C420 C421 1.502 . S
C420 C422 1.561 . S
C420 C423 1.526 . S
C421 H405 0.959 . S
C421 H406 0.959 . S
C421 H407 0.961 . S
C421 C420 1.502 . S
C422 H408 0.960 . S
C422 H409 0.961 . S
C422 H410 0.959 . S
C422 C420 1.561 . S
C423 C420 1.526 . S
C423 C424 1.396 . S
C423 C428 1.390 . S
C424 C418 1.465 . S
C424 C423 1.396 . S
C424 C425 1.399 . S
C425 H411 0.929 . S
C425 C424 1.399 . S
C425 C426 1.385 . S
C426 H412 0.931 . S
C426 C425 1.385 . S
C426 C427 1.389 . S
C427 C426 1.389 . S
C427 C428 1.387 . S
C428 H413 0.930 1_655 S
C428 C423 1.390 . S
C428 C427 1.387 . S
H429 C441 0.930 . S
H430 C443 0.930 . S
H431 C444 0.930 . S
H432 C448 0.959 . S
H433 C448 0.959 . S
H434 C448 0.961 . S
H435 C449 0.960 . S
H436 C449 0.961 . S
H437 C449 0.959 . S
H438 C452 0.929 . S
H439 C453 0.931 . S
H440 C455 0.930 . S
C441 H429 0.930 . S
C441 C442 1.399 . S
C441 C446 1.399 . S
C442 C441 1.399 . S
C442 C443 1.376 . S
C443 H430 0.930 . S
C443 C442 1.376 . S
C443 C444 1.388 . S
C444 H431 0.930 . S
C444 C443 1.388 . S
C444 C445 1.390 . S
C445 C444 1.390 . S
C445 C446 1.394 . S
C445 C451 1.465 . S
C446 C441 1.399 . S
C446 C445 1.394 . S
C446 C447 1.516 . S
C447 C446 1.516 . S
C447 C448 1.502 . S
C447 C449 1.561 . S
C447 C450 1.526 . S
C448 H432 0.959 . S
C448 H433 0.959 . S
C448 H434 0.961 . S
C448 C447 1.502 . S
C449 H435 0.960 . S
C449 H436 0.961 . S
C449 H437 0.959 . S
C449 C447 1.561 . S
C450 C447 1.526 . S
C450 C451 1.396 . S
C450 C455 1.390 . S
C451 C445 1.465 . S
C451 C450 1.396 . S
C451 C452 1.399 . S
C452 H438 0.929 . S
C452 C451 1.399 . S
C452 C453 1.385 1_565 S
C453 H439 0.931 . S
C453 C452 1.385 1_545 S
C453 C454 1.389 1_545 S
C454 C453 1.389 1_565 S
C454 C455 1.387 . S
C455 H440 0.930 . S
C455 C450 1.390 . S
C455 C454 1.387 . S
H456 C468 0.930 . S
H457 C470 0.930 . S
H458 C471 0.930 . S
H459 C475 0.959 . S
H460 C475 0.959 . S
H461 C475 0.961 . S
H462 C476 0.960 . S
H463 C476 0.961 . S
H464 C476 0.959 . S
H465 C479 0.929 . S
H466 C480 0.931 . S
H467 C482 0.930 . S
C468 H456 0.930 . S
C468 C469 1.399 . S
C468 C473 1.399 . S
C469 C468 1.399 . S
C469 C470 1.376 . S
C470 H457 0.930 . S
C470 C469 1.376 . S
C470 C471 1.388 . S
C471 H458 0.930 . S
C471 C470 1.388 . S
C471 C472 1.390 . S
C472 C471 1.390 . S
C472 C473 1.394 . S
C472 C478 1.465 . S
C473 C468 1.399 . S
C473 C472 1.394 . S
C473 C474 1.516 . S
C474 C473 1.516 . S
C474 C475 1.502 . S
C474 C476 1.561 . S
C474 C477 1.526 . S
C475 H459 0.959 . S
C475 H460 0.959 . S
C475 H461 0.961 . S
C475 C474 1.502 . S
C476 H462 0.960 . S
C476 H463 0.961 . S
C476 H464 0.959 . S
C476 C474 1.561 . S
C477 C474 1.526 . S
C477 C478 1.396 . S
C477 C482 1.390 . S
C478 C472 1.465 . S
C478 C477 1.396 . S
C478 C479 1.399 . S
C479 H465 0.929 . S
C479 C478 1.399 . S
C479 C480 1.385 . S
C480 H466 0.931 . S
C480 C479 1.385 . S
C480 C481 1.389 . S
C481 C480 1.389 . S
C481 C482 1.387 . S
C482 H467 0.930 . S
C482 C477 1.390 . S
C482 C481 1.387 . S
H483 C495 0.930 . S
H484 C497 0.930 . S
H485 C498 0.930 . S
H486 C502 0.959 . S
H487 C502 0.959 . S
H488 C502 0.961 . S
H489 C503 0.960 . S
H490 C503 0.961 . S
H491 C503 0.959 . S
H492 C506 0.929 . S
H493 C507 0.931 1_565 S
H494 C509 0.930 . S
C495 H483 0.930 . S
C495 C496 1.399 1_556 S
C495 C500 1.399 . S
C496 C495 1.399 1_554 S
C496 C497 1.376 . S
C497 H484 0.930 . S
C497 C496 1.376 . S
C497 C498 1.388 . S
C498 H485 0.930 . S
C498 C497 1.388 . S
C498 C499 1.390 . S
C499 C498 1.390 . S
C499 C500 1.394 1_554 S
C499 C505 1.465 . S
C500 C495 1.399 . S
C500 C499 1.394 1_556 S
C500 C501 1.516 . S
C501 C500 1.516 . S
C501 C502 1.502 . S
C501 C503 1.561 . S
C501 C504 1.526 . S
C502 H486 0.959 . S
C502 H487 0.959 . S
C502 H488 0.961 . S
C502 C501 1.502 . S
C503 H489 0.960 . S
C503 H490 0.961 . S
C503 H491 0.959 . S
C503 C501 1.561 . S
C504 C501 1.526 . S
C504 C505 1.396 1_556 S
C504 C509 1.390 . S
C505 C499 1.465 . S
C505 C504 1.396 1_554 S
C505 C506 1.399 . S
C506 H492 0.929 . S
C506 C505 1.399 . S
C506 C507 1.385 . S
C507 H493 0.931 1_545 S
C507 C506 1.385 . S
C507 C508 1.394 . S
C508 C507 1.394 . S
C508 C509 1.397 1_554 S
C509 H494 0.930 . S
C509 C504 1.390 . S
C509 C508 1.397 1_556 S
H510 C522 0.930 . S
H511 C524 0.930 . S
H512 C525 0.930 . S
H513 C529 0.959 . S
H514 C529 0.959 . S
H515 C529 0.961 . S
H516 C530 0.960 . S
H517 C530 0.961 . S
H518 C530 0.959 . S
H519 C533 0.929 . S
H520 C534 0.931 . S
H521 C536 0.930 . S
C522 H510 0.930 . S
C522 C523 1.399 . S
C522 C527 1.399 . S
C523 C522 1.399 . S
C523 C524 1.376 . S
C524 H511 0.930 . S
C524 C523 1.376 . S
C524 C525 1.388 . S
C525 H512 0.930 . S
C525 C524 1.388 . S
C525 C526 1.390 . S
C526 C525 1.390 . S
C526 C527 1.394 . S
C526 C532 1.465 . S
C527 C522 1.399 . S
C527 C526 1.394 . S
C527 C528 1.516 . S
C528 C527 1.516 . S
C528 C529 1.502 . S
C528 C530 1.561 . S
C528 C531 1.526 . S
C529 H513 0.959 . S
C529 H514 0.959 . S
C529 H515 0.961 . S
C529 C528 1.502 . S
C530 H516 0.960 . S
C530 H517 0.961 . S
C530 H518 0.959 . S
C530 C528 1.561 . S
C531 C528 1.526 . S
C531 C532 1.396 . S
C531 C536 1.390 . S
C532 C526 1.465 . S
C532 C531 1.396 . S
C532 C533 1.399 . S
C533 H519 0.929 . S
C533 C532 1.399 . S
C533 C534 1.385 . S
C534 H520 0.931 . S
C534 C533 1.385 . S
C534 C535 1.389 . S
C535 C534 1.389 . S
C535 C536 1.387 . S
C536 H521 0.930 . S
C536 C531 1.390 . S
C536 C535 1.387 . S
H537 C549 0.930 1_655 S
H538 C551 0.930 . S
H539 C552 0.930 . S
H540 C556 0.959 . S
H541 C556 0.959 . S
H542 C556 0.961 1_655 S
H543 C557 0.960 . S
H544 C557 0.961 . S
H545 C557 0.959 . S
H546 C560 0.929 . S
H547 C561 0.931 . S
H548 C563 0.930 . S
C549 H537 0.930 1_455 S
C549 C550 1.399 . S
C549 C554 1.399 . S
C550 C549 1.399 . S
C550 C551 1.376 . S
C551 H538 0.930 . S
C551 C550 1.376 . S
C551 C552 1.388 . S
C552 H539 0.930 . S
C552 C551 1.388 . S
C552 C553 1.390 . S
C553 C552 1.390 . S
C553 C554 1.394 . S
C553 C559 1.465 . S
C554 C549 1.399 . S
C554 C553 1.394 . S
C554 C555 1.516 . S
C555 C554 1.516 . S
C555 C556 1.502 . S
C555 C557 1.561 . S
C555 C558 1.526 . S
C556 H540 0.959 . S
C556 H541 0.959 . S
C556 H542 0.961 1_455 S
C556 C555 1.502 . S
C557 H543 0.960 . S
C557 H544 0.961 . S
C557 H545 0.959 . S
C557 C555 1.561 . S
C558 C555 1.526 . S
C558 C559 1.396 . S
C558 C563 1.390 . S
C559 C553 1.465 . S
C559 C558 1.396 . S
C559 C560 1.399 . S
C560 H546 0.929 . S
C560 C559 1.399 . S
C560 C561 1.385 . S
C561 H547 0.931 . S
C561 C560 1.385 . S
C561 C562 1.389 . S
C562 C561 1.389 . S
C562 C563 1.387 . S
C563 H548 0.930 . S
C563 C558 1.390 . S
C563 C562 1.387 . S
H564 C576 0.930 . S
H565 C578 0.930 . S
H566 C579 0.930 . S
H567 C583 0.959 . S
H568 C583 0.959 . S
H569 C583 0.961 . S
H570 C584 0.960 . S
H571 C584 0.961 . S
H572 C584 0.959 . S
H573 C587 0.929 . S
H574 C588 0.931 . S
H575 C590 0.930 . S
C576 H564 0.930 . S
C576 C577 1.399 . S
C576 C581 1.399 . S
C577 C576 1.399 . S
C577 C578 1.376 . S
C578 H565 0.930 . S
C578 C577 1.376 . S
C578 C579 1.388 . S
C579 H566 0.930 . S
C579 C578 1.388 . S
C579 C580 1.390 . S
C580 C579 1.390 . S
C580 C581 1.394 . S
C580 C586 1.465 . S
C581 C576 1.399 . S
C581 C580 1.394 . S
C581 C582 1.516 . S
C582 C581 1.516 . S
C582 C583 1.502 . S
C582 C584 1.561 . S
C582 C585 1.526 . S
C583 H567 0.959 . S
C583 H568 0.959 . S
C583 H569 0.961 . S
C583 C582 1.502 . S
C584 H570 0.960 . S
C584 H571 0.961 . S
C584 H572 0.959 . S
C584 C582 1.561 . S
C585 C582 1.526 . S
C585 C586 1.396 . S
C585 C590 1.390 . S
C586 C580 1.465 . S
C586 C585 1.396 . S
C586 C587 1.399 . S
C587 H573 0.929 . S
C587 C586 1.399 . S
C587 C588 1.385 . S
C588 H574 0.931 . S
C588 C587 1.385 . S
C588 C589 1.389 . S
C589 C588 1.389 . S
C589 C590 1.387 . S
C590 H575 0.930 . S
C590 C585 1.390 . S
C590 C589 1.387 . S
H591 C603 0.930 . S
H592 C605 0.930 . S
H593 C606 0.930 . S
H594 C610 0.959 . S
H595 C610 0.959 . S
H596 C610 0.961 . S
H597 C611 0.960 . S
H598 C611 0.961 . S
H599 C611 0.959 . S
H600 C614 0.929 . S
H601 C615 0.931 . S
H602 C617 0.930 . S
C603 H591 0.930 . S
C603 C604 1.399 . S
C603 C608 1.399 . S
C604 C603 1.399 . S
C604 C605 1.376 . S
C605 H592 0.930 . S
C605 C604 1.376 . S
C605 C606 1.388 . S
C606 H593 0.930 . S
C606 C605 1.388 . S
C606 C607 1.390 . S
C607 C606 1.390 . S
C607 C608 1.394 . S
C607 C613 1.465 . S
C608 C603 1.399 . S
C608 C607 1.394 . S
C608 C609 1.516 . S
C609 C608 1.516 . S
C609 C610 1.502 . S
C609 C611 1.561 . S
C609 C612 1.526 . S
C610 H594 0.959 . S
C610 H595 0.959 . S
C610 H596 0.961 . S
C610 C609 1.502 . S
C611 H597 0.960 . S
C611 H598 0.961 . S
C611 H599 0.959 . S
C611 C609 1.561 . S
C612 C609 1.526 . S
C612 C613 1.396 . S
C612 C617 1.390 . S
C613 C607 1.465 . S
C613 C612 1.396 . S
C613 C614 1.399 . S
C614 H600 0.929 . S
C614 C613 1.399 . S
C614 C615 1.385 . S
C615 H601 0.931 . S
C615 C614 1.385 . S
C615 C616 1.389 . S
C616 C615 1.389 . S
C616 C617 1.387 . S
C617 H602 0.930 . S
C617 C612 1.390 . S
C617 C616 1.387 . S
H618 C630 0.930 . S
H619 C632 0.930 . S
H620 C633 0.930 . S
H621 C637 0.959 . S
H622 C637 0.959 . S
H623 C637 0.961 . S
H624 C638 0.960 . S
H625 C638 0.961 . S
H626 C638 0.959 . S
H627 C641 0.929 . S
H628 C642 0.931 . S
H629 C644 0.930 . S
C630 H618 0.930 . S
C630 C631 1.399 . S
C630 C635 1.399 . S
C631 C630 1.399 . S
C631 C632 1.376 . S
C632 H619 0.930 . S
C632 C631 1.376 . S
C632 C633 1.388 . S
C633 H620 0.930 . S
C633 C632 1.388 . S
C633 C634 1.390 . S
C634 C633 1.390 . S
C634 C635 1.394 . S
C634 C640 1.465 . S
C635 C630 1.399 . S
C635 C634 1.394 . S
C635 C636 1.516 . S
C636 C635 1.516 . S
C636 C637 1.502 1_655 S
C636 C638 1.561 . S
C636 C639 1.526 . S
C637 H621 0.959 . S
C637 H622 0.959 . S
C637 H623 0.961 . S
C637 C636 1.502 1_455 S
C638 H624 0.960 . S
C638 H625 0.961 . S
C638 H626 0.959 . S
C638 C636 1.561 . S
C639 C636 1.526 . S
C639 C640 1.396 . S
C639 C644 1.390 . S
C640 C634 1.465 . S
C640 C639 1.396 . S
C640 C641 1.399 . S
C641 H627 0.929 . S
C641 C640 1.399 . S
C641 C642 1.385 . S
C642 H628 0.931 . S
C642 C641 1.385 . S
C642 C643 1.389 . S
C643 C642 1.389 . S
C643 C644 1.387 . S
C644 H629 0.930 . S
C644 C639 1.390 . S
C644 C643 1.387 . S
H645 C657 0.930 . S
H646 C659 0.930 1_545 S
H647 C660 0.930 1_545 S
H648 C664 0.959 . S
H649 C664 0.959 . S
H650 C664 0.961 . S
H651 C665 0.960 . S
H652 C665 0.961 . S
H653 C665 0.959 . S
H654 C668 0.929 . S
H655 C669 0.931 . S
H656 C671 0.930 . S
C657 H645 0.930 . S
C657 C658 1.399 . S
C657 C662 1.399 . S
C658 C657 1.399 . S
C658 C659 1.376 . S
C659 H646 0.930 1_565 S
C659 C658 1.376 . S
C659 C660 1.388 . S
C660 H647 0.930 1_565 S
C660 C659 1.388 . S
C660 C661 1.390 . S
C661 C660 1.390 . S
C661 C662 1.394 . S
C661 C667 1.465 . S
C662 C657 1.399 . S
C662 C661 1.394 . S
C662 C663 1.516 . S
C663 C662 1.516 . S
C663 C664 1.502 . S
C663 C665 1.561 . S
C663 C666 1.526 . S
C664 H648 0.959 . S
C664 H649 0.959 . S
C664 H650 0.961 . S
C664 C663 1.502 . S
C665 H651 0.960 . S
C665 H652 0.961 . S
C665 H653 0.959 . S
C665 C663 1.561 . S
C666 C663 1.526 . S
C666 C667 1.396 . S
C666 C671 1.390 . S
C667 C661 1.465 . S
C667 C666 1.396 . S
C667 C668 1.399 . S
C668 H654 0.929 . S
C668 C667 1.399 . S
C668 C669 1.385 . S
C669 H655 0.931 . S
C669 C668 1.385 . S
C669 C670 1.389 . S
C670 C669 1.389 . S
C670 C671 1.387 . S
C671 H656 0.930 . S
C671 C666 1.390 . S
C671 C670 1.387 . S
H672 C684 0.930 . S
H673 C686 0.930 . S
H674 C687 0.930 . S
H675 C691 0.959 . S
H676 C691 0.959 . S
H677 C691 0.961 . S
H678 C692 0.960 . S
H679 C692 0.961 . S
H680 C692 0.959 1_455 S
H681 C695 0.929 . S
H682 C696 0.931 . S
H683 C698 0.930 . S
C684 H672 0.930 . S
C684 C685 1.399 1_655 S
C684 C689 1.399 1_655 S
C685 C684 1.399 1_455 S
C685 C686 1.376 . S
C686 H673 0.930 . S
C686 C685 1.376 . S
C686 C687 1.388 . S
C687 H674 0.930 . S
C687 C686 1.388 . S
C687 C688 1.390 . S
C688 C687 1.390 . S
C688 C689 1.394 . S
C688 C694 1.465 . S
C689 C684 1.399 1_455 S
C689 C688 1.394 . S
C689 C690 1.516 1_455 S
C690 C689 1.516 1_655 S
C690 C691 1.502 . S
C690 C692 1.561 . S
C690 C693 1.526 1_655 S
C691 H675 0.959 . S
C691 H676 0.959 . S
C691 H677 0.961 . S
C691 C690 1.502 . S
C692 H678 0.960 . S
C692 H679 0.961 . S
C692 H680 0.959 1_655 S
C692 C690 1.561 . S
C693 C690 1.526 1_455 S
C693 C694 1.396 . S
C693 C698 1.390 . S
C694 C688 1.465 . S
C694 C693 1.396 . S
C694 C695 1.399 . S
C695 H681 0.929 . S
C695 C694 1.399 . S
C695 C696 1.385 . S
C696 H682 0.931 . S
C696 C695 1.385 . S
C696 C697 1.389 . S
C697 C696 1.389 . S
C697 C698 1.387 . S
C698 H683 0.930 . S
C698 C693 1.390 . S
C698 C697 1.387 . S
H699 C711 0.930 . S
H700 C713 0.930 . S
H701 C714 0.930 . S
H702 C718 0.959 . S
H703 C718 0.959 . S
H704 C718 0.961 . S
H705 C719 0.960 . S
H706 C719 0.961 . S
H707 C719 0.959 . S
H708 C722 0.929 . S
H709 C723 0.931 1_565 S
H710 C725 0.930 . S
C711 H699 0.930 . S
C711 C712 1.399 1_545 S
C711 C716 1.399 . S
C712 C711 1.399 1_565 S
C712 C713 1.376 . S
C713 H700 0.930 . S
C713 C712 1.376 . S
C713 C714 1.388 . S
C714 H701 0.930 . S
C714 C713 1.388 . S
C714 C715 1.390 1_565 S
C715 C714 1.390 1_545 S
C715 C716 1.394 . S
C715 C721 1.465 . S
C716 C711 1.399 . S
C716 C715 1.394 . S
C716 C717 1.516 . S
C717 C716 1.516 . S
C717 C718 1.502 . S
C717 C719 1.561 . S
C717 C720 1.526 . S
C718 H702 0.959 . S
C718 H703 0.959 . S
C718 H704 0.961 . S
C718 C717 1.502 . S
C719 H705 0.960 . S
C719 H706 0.961 . S
C719 H707 0.959 . S
C719 C717 1.561 . S
C720 C717 1.526 . S
C720 C721 1.396 . S
C720 C725 1.390 . S
C721 C715 1.465 . S
C721 C720 1.396 . S
C721 C722 1.399 1_545 S
C722 H708 0.929 . S
C722 C721 1.399 1_565 S
C722 C723 1.385 1_565 S
C723 H709 0.931 1_545 S
C723 C722 1.385 1_545 S
C723 C724 1.389 . S
C724 C723 1.389 . S
C724 C725 1.387 . S
C725 H710 0.930 . S
C725 C720 1.390 . S
C725 C724 1.387 . S
C253 C129 0.743 1_556 S
C265 C9 0.663 1_556 S
C280 C169 0.773 . S
C292 C49 0.627 . S
C307 C209 0.543 . S
C319 C89 0.629 . S
C334 C15 0.819 . S
C346 C86 0.781 . S
C361 C55 0.693 . S
C373 C126 0.774 . S
C388 C95 0.885 . S
C400 C166 0.660 . S
C415 C135 0.747 . S
C427 C206 0.838 1_655 S
C442 C175 0.689 . S
C454 C6 0.778 1_565 S
C469 C215 0.634 . S
C481 C46 0.869 . S
C496 C18 1.258 . S
C508 C138 1.237 1_545 S
C523 C58 1.196 . S
C535 C178 1.224 . S
C550 C98 1.196 1_455 S
C562 C218 1.224 . S
C577 C10 4.037 . S
C589 C59 4.110 . S
C604 C50 4.040 . S
C616 C99 4.105 . S
C631 C90 4.053 . S
C643 C139 4.100 . S
C658 C130 4.037 . S
C670 C179 4.110 . S
C685 C170 4.042 1_455 S
C697 C219 4.105 . S
C712 C210 4.046 . S
C724 C19 4.110 . S
