# Generated by pormake.
# Topology neb, (4)-cn, num edge types: 1
# Building blocks:
#     Node 0, Type 0, BuildingBlock: QUQFOY_clean_sbu_3, # of connection points: 4
#     Node 1, Type 0, BuildingBlock: QUQFOY_clean_sbu_3, # of connection points: 4
#     Node 2, Type 0, BuildingBlock: QUQFOY_clean_sbu_3, # of connection points: 4
#     Node 3, Type 0, BuildingBlock: QUQFOY_clean_sbu_3, # of connection points: 4
#     Node 4, Type 0, BuildingBlock: QUQFOY_clean_sbu_3, # of connection points: 4
#     Node 5, Type 0, BuildingBlock: QUQFOY_clean_sbu_3, # of connection points: 4
#     Node 6, Type 0, BuildingBlock: QUQFOY_clean_sbu_3, # of connection points: 4
#     Node 7, Type 0, BuildingBlock: QUQFOY_clean_sbu_3, # of connection points: 4
#     Node 8, Type 0, BuildingBlock: QUQFOY_clean_sbu_3, # of connection points: 4
#     Node 9, Type 0, BuildingBlock: QUQFOY_clean_sbu_3, # of connection points: 4
#     Node 10, Type 0, BuildingBlock: QUQFOY_clean_sbu_3, # of connection points: 4
#     Node 11, Type 0, BuildingBlock: QUQFOY_clean_sbu_3, # of connection points: 4
#     Node 12, Type 0, BuildingBlock: QUQFOY_clean_sbu_3, # of connection points: 4
#     Node 13, Type 0, BuildingBlock: QUQFOY_clean_sbu_3, # of connection points: 4
#     Node 14, Type 0, BuildingBlock: QUQFOY_clean_sbu_3, # of connection points: 4
#     Node 15, Type 0, BuildingBlock: QUQFOY_clean_sbu_3, # of connection points: 4
#     Edge 16, Type (0, 0), BuildingBlock: OJICUG_clean_linker_0, # of connection points: 2
#     Edge 17, Type (0, 0), BuildingBlock: OJICUG_clean_linker_0, # of connection points: 2
#     Edge 18, Type (0, 0), BuildingBlock: OJICUG_clean_linker_0, # of connection points: 2
#     Edge 19, Type (0, 0), BuildingBlock: OJICUG_clean_linker_0, # of connection points: 2
#     Edge 20, Type (0, 0), BuildingBlock: OJICUG_clean_linker_0, # of connection points: 2
#     Edge 21, Type (0, 0), BuildingBlock: OJICUG_clean_linker_0, # of connection points: 2
#     Edge 22, Type (0, 0), BuildingBlock: OJICUG_clean_linker_0, # of connection points: 2
#     Edge 23, Type (0, 0), BuildingBlock: OJICUG_clean_linker_0, # of connection points: 2
#     Edge 24, Type (0, 0), BuildingBlock: OJICUG_clean_linker_0, # of connection points: 2
#     Edge 25, Type (0, 0), BuildingBlock: OJICUG_clean_linker_0, # of connection points: 2
#     Edge 26, Type (0, 0), BuildingBlock: OJICUG_clean_linker_0, # of connection points: 2
#     Edge 27, Type (0, 0), BuildingBlock: OJICUG_clean_linker_0, # of connection points: 2
#     Edge 28, Type (0, 0), BuildingBlock: OJICUG_clean_linker_0, # of connection points: 2
#     Edge 29, Type (0, 0), BuildingBlock: OJICUG_clean_linker_0, # of connection points: 2
#     Edge 30, Type (0, 0), BuildingBlock: OJICUG_clean_linker_0, # of connection points: 2
#     Edge 31, Type (0, 0), BuildingBlock: OJICUG_clean_linker_0, # of connection points: 2
#     Edge 32, Type (0, 0), BuildingBlock: OJICUG_clean_linker_0, # of connection points: 2
#     Edge 33, Type (0, 0), BuildingBlock: OJICUG_clean_linker_0, # of connection points: 2
#     Edge 34, Type (0, 0), BuildingBlock: OJICUG_clean_linker_0, # of connection points: 2
#     Edge 35, Type (0, 0), BuildingBlock: OJICUG_clean_linker_0, # of connection points: 2
#     Edge 36, Type (0, 0), BuildingBlock: OJICUG_clean_linker_0, # of connection points: 2
#     Edge 37, Type (0, 0), BuildingBlock: OJICUG_clean_linker_0, # of connection points: 2
#     Edge 38, Type (0, 0), BuildingBlock: OJICUG_clean_linker_0, # of connection points: 2
#     Edge 39, Type (0, 0), BuildingBlock: OJICUG_clean_linker_0, # of connection points: 2
#     Edge 40, Type (0, 0), BuildingBlock: OJICUG_clean_linker_0, # of connection points: 2
#     Edge 41, Type (0, 0), BuildingBlock: OJICUG_clean_linker_0, # of connection points: 2
#     Edge 42, Type (0, 0), BuildingBlock: OJICUG_clean_linker_0, # of connection points: 2
#     Edge 43, Type (0, 0), BuildingBlock: OJICUG_clean_linker_0, # of connection points: 2
#     Edge 44, Type (0, 0), BuildingBlock: OJICUG_clean_linker_0, # of connection points: 2
#     Edge 45, Type (0, 0), BuildingBlock: OJICUG_clean_linker_0, # of connection points: 2
#     Edge 46, Type (0, 0), BuildingBlock: OJICUG_clean_linker_0, # of connection points: 2
#     Edge 47, Type (0, 0), BuildingBlock: OJICUG_clean_linker_0, # of connection points: 2
# Relax obj value: 0.002
# Max RMSD: 0.025
# Mean RMSD: 0.025
data_MOF--net-neb--node1-QUQFOY_clean_sbu_3--edge1-OJICUG_clean_linker_0
_symmetry_space_group_name_H-M    P1
_symmetry_Int_Tables_number       1
_symmetry_cell_setting            triclinic
loop_
_symmetry_equiv_pos_as_xyz
'x, y, z'
_cell_length_a     32.934981
_cell_length_b     17.781111
_cell_length_c     57.880906
_cell_angle_alpha  89.994047
_cell_angle_beta   96.094844
_cell_angle_gamma 90.052637
loop_
_atom_site_label
_atom_site_type_symbol
_atom_site_fract_x
_atom_site_fract_y
_atom_site_fract_z
_atom_type_partial_charge
C0 C 0.1985 0.104 0.46227 0.0
O1 O 0.22065 0.06862 0.44926 0.0
Cd2 Cd 0.19091 -0.00695 0.41703 0.0
O3 O 0.16006 0.09428 0.46004 0.0
Cd4 Cd 0.10805 0.01856 0.43707 0.0
C5 C 0.12418 0.12308 0.3907 0.0
O6 O 0.14294 0.90093 0.42758 0.0
O7 O 0.08444 0.92866 0.40847 0.0
O8 O 0.08307 -0.02539 0.47259 0.0
C9 C 0.11326 0.88198 0.41282 0.0
O10 O 0.15659 0.08415 0.39061 0.0
C11 C 0.04698 -0.00086 0.46778 0.0
O12 O 0.10055 0.1143 0.40656 0.0
O13 O 0.03948 0.03509 0.44881 0.0
C14 C 0.01833 0.11071 0.78051 0.0
O15 O -0.00398 0.07562 0.79351 0.0
Cd16 Cd 0.02541 0.00175 0.82617 0.0
O17 O 0.05678 0.10113 0.78293 0.0
Cd18 Cd 0.1082 0.02539 0.80637 0.0
C19 C 0.09217 0.13276 0.85206 0.0
O20 O 0.07334 0.90827 0.81665 0.0
O21 O 0.13131 0.9386 0.83596 0.0
O22 O 0.13307 -0.02257 0.7713 0.0
C23 C 0.10285 0.89102 0.83174 0.0
O24 O 0.05966 0.09403 0.85219 0.0
C25 C 0.16929 0.00164 0.77592 0.0
O26 O 0.116 0.12304 0.83634 0.0
O27 O 0.17691 0.03945 0.79453 0.0
C28 C 0.76959 0.83101 0.53158 0.0
O29 O 0.74729 0.86626 0.54453 0.0
Cd30 Cd 0.7769 0.93931 0.57736 0.0
O31 O 0.80809 0.83994 0.53419 0.0
Cd32 Cd 0.85997 0.91414 0.55781 0.0
C33 C 0.84263 0.807 0.60335 0.0
O34 O 0.82564 0.03174 0.56794 0.0
O35 O 0.88356 0.00125 0.58723 0.0
O36 O 0.88536 0.96026 0.52268 0.0
C37 C 0.85518 0.04891 0.58303 0.0
O38 O 0.81026 0.84609 0.60338 0.0
C39 C 0.92136 0.93522 0.5274 0.0
O40 O 0.86675 0.81658 0.58778 0.0
O41 O 0.92866 0.89809 0.54617 0.0
C42 C 0.94915 0.82335 0.21556 0.0
O43 O 0.97157 0.85881 0.20271 0.0
Cd44 Cd 0.94229 0.92905 0.16928 0.0
O45 O 0.91061 0.83132 0.21264 0.0
Cd46 Cd 0.85898 0.90455 0.18847 0.0
C47 C 0.87728 0.79389 0.14403 0.0
O48 O 0.89289 0.02164 0.1774 0.0
O49 O 0.83576 -0.01241 0.15788 0.0
O50 O 0.8336 0.95485 0.22307 0.0
C51 C 0.86363 0.03646 0.16187 0.0
O52 O 0.90961 0.83318 0.144 0.0
C53 C 0.79751 0.9299 0.21857 0.0
O54 O 0.85262 0.80451 0.15926 0.0
O55 O 0.79016 0.89062 0.20023 0.0
C56 C 0.19812 0.61022 0.96252 0.0
O57 O 0.22035 0.57536 0.94945 0.0
Cd58 Cd 0.19071 0.50184 0.91675 0.0
O59 O 0.15966 0.60064 0.96012 0.0
Cd60 Cd 0.10799 0.52533 0.93669 0.0
C61 C 0.1239 0.63288 0.891 0.0
O62 O 0.14274 0.40834 0.92634 0.0
O63 O 0.0846 0.43835 0.9072 0.0
O64 O 0.0835 0.4774 0.97187 0.0
C65 C 0.11312 0.39094 0.91132 0.0
O66 O 0.15639 0.59422 0.89082 0.0
C67 C 0.04728 0.50161 0.9674 0.0
O68 O 0.10014 0.62307 0.90674 0.0
O69 O 0.03945 0.53936 0.94879 0.0
C70 C 0.01951 0.60423 0.2822 0.0
O71 O -0.00278 0.56879 0.29513 0.0
Cd72 Cd 0.02664 0.49326 0.32742 0.0
O73 O 0.05795 0.5945 0.28453 0.0
Cd74 Cd 0.10962 0.51849 0.30761 0.0
C75 C 0.09338 0.62323 0.35389 0.0
O76 O 0.07455 0.40087 0.31709 0.0
O77 O 0.13287 0.42899 0.33639 0.0
O78 O 0.1346 0.47374 0.27222 0.0
C79 C 0.10412 0.38212 0.33194 0.0
O80 O 0.0609 0.58432 0.35389 0.0
C81 C 0.17076 0.49803 0.27703 0.0
O82 O 0.11713 0.6144 0.3381 0.0
O83 O 0.17831 0.53434 0.29593 0.0
C84 C 0.77092 0.32424 0.0308 0.0
O85 O 0.74883 0.35958 0.04384 0.0
Cd86 Cd 0.7788 0.42957 0.07719 0.0
O87 O 0.8095 0.33204 0.03351 0.0
Cd88 Cd 0.86181 0.4045 0.05745 0.0
C89 C 0.84392 0.29409 0.10207 0.0
O90 O 0.82829 0.52163 0.06867 0.0
O91 O 0.8858 0.48801 0.08781 0.0
O92 O 0.88664 0.4541 0.0226 0.0
C93 C 0.85782 0.53666 0.08401 0.0
O94 O 0.81171 0.33352 0.10227 0.0
C95 C 0.92268 0.42887 0.02688 0.0
O96 O 0.86832 0.30455 0.08669 0.0
O97 O 0.93028 0.38987 0.04526 0.0
C98 C 0.94797 0.33069 0.71414 0.0
O99 O 0.97028 0.36615 0.70123 0.0
Cd100 Cd 0.94081 0.4394 0.66844 0.0
O101 O 0.90947 0.33957 0.71155 0.0
Cd102 Cd 0.85777 0.41413 0.68794 0.0
C103 C 0.87503 0.30706 0.6424 0.0
O104 O 0.89213 0.53182 0.6778 0.0
O105 O 0.83436 0.50084 0.65839 0.0
O106 O 0.83236 0.46087 0.72298 0.0
C107 C 0.86264 0.54876 0.66265 0.0
O108 O 0.9074 0.34625 0.64239 0.0
C109 C 0.7963 0.43598 0.71824 0.0
O110 O 0.8509 0.31652 0.65797 0.0
O111 O 0.78901 0.39847 0.69954 0.0
C112 C 0.69897 0.10841 0.9635 0.0
O113 O 0.72101 0.07328 0.95038 0.0
Cd114 Cd 0.69113 -0.0001 0.91771 0.0
O115 O 0.66047 0.09937 0.96115 0.0
Cd116 Cd 0.60843 0.02498 0.93769 0.0
C117 C 0.62493 0.1317 0.8919 0.0
O118 O 0.64276 0.90743 0.92752 0.0
O119 O 0.5847 0.93768 0.90834 0.0
O120 O 0.58318 -0.02174 0.9728 0.0
C121 C 0.61309 0.89005 0.91254 0.0
O122 O 0.65727 0.09262 0.89172 0.0
C123 C 0.54714 0.00316 0.96812 0.0
O124 O 0.60115 0.12231 0.90765 0.0
O125 O 0.53981 0.04075 0.94945 0.0
C126 C 0.52023 0.11219 0.28118 0.0
O127 O 0.49811 0.07717 0.29429 0.0
Cd128 Cd 0.52778 0.00492 0.32722 0.0
O129 O 0.55874 0.10337 0.28364 0.0
Cd130 Cd 0.61057 0.02923 0.30736 0.0
C131 C 0.59399 0.13763 0.35271 0.0
O132 O 0.57624 0.91202 0.31801 0.0
O133 O 0.63404 0.94369 0.33724 0.0
O134 O 0.63557 -0.01957 0.27244 0.0
C135 C 0.60578 0.89562 0.33317 0.0
O136 O 0.56161 0.09855 0.35291 0.0
C137 C 0.67171 0.00511 0.27696 0.0
O138 O 0.61793 0.12776 0.33706 0.0
O139 O 0.67923 0.04362 0.29544 0.0
C140 C 0.26889 0.82717 0.02983 0.0
O141 O 0.24659 0.86222 0.04282 0.0
Cd142 Cd 0.27612 0.93331 0.07606 0.0
O143 O 0.30742 0.83555 0.0326 0.0
Cd144 Cd 0.35914 0.90883 0.0567 0.0
C145 C 0.34137 0.79949 0.1016 0.0
O146 O 0.32518 0.02619 0.06743 0.0
O147 O 0.3826 -0.00659 0.08685 0.0
O148 O 0.38483 0.95771 0.02199 0.0
C149 C 0.35462 0.04191 0.08276 0.0
O150 O 0.30903 0.83861 0.10168 0.0
C151 C 0.42081 0.93252 0.02663 0.0
O152 O 0.36572 0.80975 0.08619 0.0
O153 O 0.42794 0.89386 0.0451 0.0
C154 C 0.44693 0.82346 0.71417 0.0
O155 O 0.46916 0.85879 0.70118 0.0
Cd156 Cd 0.43958 0.92837 0.66769 0.0
O157 O 0.40836 0.83104 0.71131 0.0
Cd158 Cd 0.35633 0.90321 0.68709 0.0
C159 C 0.37475 0.79252 0.64266 0.0
O160 O 0.38997 0.02041 0.67592 0.0
O161 O 0.33274 -0.01372 0.65655 0.0
O162 O 0.33096 0.95317 0.72172 0.0
C163 C 0.36063 0.03516 0.66044 0.0
O164 O 0.40699 0.83204 0.64255 0.0
C165 C 0.29493 0.92787 0.71728 0.0
O166 O 0.35014 0.80304 0.65792 0.0
O167 O 0.2876 0.8886 0.69894 0.0
C168 C 0.69921 0.61308 0.46448 0.0
O169 O 0.7216 0.57818 0.4515 0.0
Cd170 Cd 0.69243 0.50572 0.41848 0.0
O171 O 0.66072 0.60392 0.46183 0.0
Cd172 Cd 0.60938 0.52911 0.43793 0.0
C173 C 0.62633 0.63787 0.39273 0.0
O174 O 0.64401 0.41215 0.42741 0.0
O175 O 0.58642 0.44361 0.40793 0.0
O176 O 0.58401 0.47989 0.47271 0.0
C177 C 0.61466 0.39566 0.41212 0.0
O178 O 0.65881 0.59911 0.39266 0.0
C179 C 0.54786 0.50427 0.46805 0.0
O180 O 0.60218 0.62768 0.40825 0.0
O181 O 0.5405 0.54279 0.44956 0.0
C182 C 0.51843 0.60819 0.78172 0.0
O183 O 0.49631 0.57301 0.79481 0.0
Cd184 Cd 0.52615 0.49972 0.8275 0.0
O185 O 0.55692 0.59923 0.78413 0.0
Cd186 Cd 0.60894 0.52502 0.80761 0.0
C187 C 0.59232 0.6317 0.85336 0.0
O188 O 0.57454 0.40737 0.81774 0.0
O189 O 0.63263 0.43763 0.83691 0.0
O190 O 0.6342 0.47879 0.77245 0.0
C191 C 0.60419 0.39 0.83271 0.0
O192 O 0.55996 0.59257 0.85351 0.0
C193 C 0.67023 0.50379 0.77715 0.0
O194 O 0.61615 0.62234 0.83764 0.0
O195 O 0.67757 0.54112 0.79588 0.0
C196 C 0.26953 0.32253 0.52897 0.0
O197 O 0.24722 0.35793 0.54188 0.0
Cd198 Cd 0.27659 0.42795 0.57534 0.0
O199 O 0.30809 0.33037 0.53186 0.0
Cd200 Cd 0.35989 0.40327 0.55607 0.0
C201 C 0.3414 0.29253 0.60049 0.0
O202 O 0.32616 0.52033 0.56719 0.0
O203 O 0.38325 0.48623 0.58669 0.0
O204 O 0.38548 0.45357 0.52152 0.0
C205 C 0.35542 0.5351 0.58273 0.0
O206 O 0.30913 0.33188 0.60055 0.0
C207 C 0.42151 0.42848 0.52605 0.0
O208 O 0.36606 0.30315 0.58525 0.0
O209 O 0.42872 0.38912 0.54438 0.0
C210 C 0.4485 0.32782 0.21379 0.0
O211 O 0.47057 0.36309 0.20071 0.0
Cd212 Cd 0.44051 0.43418 0.1676 0.0
O213 O 0.40995 0.33592 0.21119 0.0
Cd214 Cd 0.3577 0.40867 0.18737 0.0
C215 C 0.37516 0.29983 0.14229 0.0
O216 O 0.39138 0.5263 0.17656 0.0
O217 O 0.33368 0.49353 0.15742 0.0
O218 O 0.33238 0.45648 0.22231 0.0
C219 C 0.36175 0.54203 0.16136 0.0
O220 O 0.40742 0.33925 0.14209 0.0
C221 C 0.29643 0.43091 0.21777 0.0
O222 O 0.35102 0.30978 0.15783 0.0
O223 O 0.28915 0.39264 0.19922 0.0
C224 C 0.27598 0.22779 0.49746 0.0
C225 C 0.25114 0.26844 0.51138 0.0
H226 H 0.27904 0.14378 0.47122 0.0
C227 C 0.20895 0.2542 0.50905 0.0
H228 H 0.30865 0.23715 0.49884 0.0
C229 C 0.19203 0.20032 0.49329 0.0
C230 C 0.21688 0.15941 0.47945 0.0
H231 H 0.18895 0.28419 0.51955 0.0
H232 H 0.15937 0.19087 0.49196 0.0
C233 C 0.25905 0.17392 0.48168 0.0
C234 C 0.94439 -0.00706 0.4916 0.0
C235 C 0.95345 0.9508 0.51206 0.0
H236 H 0.96689 0.04166 0.46163 0.0
C237 C -0.00642 0.92553 0.51797 0.0
H238 H 0.91375 0.01342 0.48661 0.0
C239 C 0.02405 0.942 0.50369 0.0
C240 C 0.01498 -0.01597 0.48322 0.0
H241 H 0.00153 0.8932 0.53365 0.0
H242 H 0.05468 0.92147 0.50867 0.0
C243 C 0.97485 0.00937 0.47732 0.0
C244 C 0.2226 0.92066 0.72672 0.0
C245 C 0.26284 0.94577 0.73241 0.0
H246 H 0.1614 0.91913 0.73593 0.0
C247 C 0.27201 -0.0098 0.75239 0.0
H248 H 0.21456 0.8866 0.7114 0.0
C249 C 0.24155 0.00908 0.7664 0.0
C250 C 0.2013 -0.01605 0.76072 0.0
H251 H 0.30274 0.01063 0.7572 0.0
H252 H 0.2496 0.04311 0.78173 0.0
C253 C 0.19212 0.93958 0.74073 0.0
C254 C 0.02508 0.20657 0.74936 0.0
C255 C 0.00013 0.16597 0.76325 0.0
H256 H 0.02839 0.29068 0.72316 0.0
C257 C 0.95803 0.18095 0.76108 0.0
H258 H 0.05769 0.19672 0.75063 0.0
C259 C 0.94127 0.23517 0.74539 0.0
C260 C 0.96622 0.27571 0.73148 0.0
H261 H 0.93796 0.15106 0.77158 0.0
H262 H 0.90866 0.245 0.74411 0.0
C263 C 0.00833 0.2608 0.73367 0.0
C264 C 0.70918 0.76169 0.51178 0.0
C265 C 0.75133 0.77637 0.51412 0.0
H266 H 0.65976 0.69832 0.49449 0.0
C267 C 0.77631 0.73606 0.5002 0.0
H268 H 0.68909 0.79141 0.52229 0.0
C269 C 0.75954 0.68235 0.48432 0.0
C270 C 0.71739 0.66766 0.48198 0.0
H271 H 0.80895 0.74571 0.50159 0.0
H272 H 0.77964 0.65267 0.47381 0.0
C273 C 0.69241 0.70797 0.4959 0.0
C274 C 0.69463 0.94236 0.24191 0.0
C275 C 0.70376 -0.01286 0.26181 0.0
H276 H 0.71713 0.88872 0.2127 0.0
C277 C 0.74401 0.01232 0.26747 0.0
H278 H 0.66391 0.92186 0.23712 0.0
C279 C 0.77451 -0.00694 0.25352 0.0
C280 C 0.76539 0.94822 0.23364 0.0
H281 H 0.75202 0.04665 0.28274 0.0
H282 H 0.80523 0.01353 0.25832 0.0
C283 C 0.72514 0.92309 0.22796 0.0
C284 C 0.00955 0.75474 0.2355 0.0
C285 C 0.96738 0.76908 0.23312 0.0
H286 H 0.05896 0.69119 0.25263 0.0
C287 C 0.9424 0.72836 0.24696 0.0
H288 H 0.02966 0.78478 0.22506 0.0
C289 C 0.95917 0.67434 0.26273 0.0
C290 C 0.00131 0.65975 0.26502 0.0
H291 H 0.90974 0.73779 0.24554 0.0
H292 H 0.93906 0.64417 0.27313 0.0
C293 C 0.02631 0.7007 0.25125 0.0
C294 C 0.20838 0.75867 0.00985 0.0
C295 C 0.25055 0.77317 0.0122 0.0
H296 H 0.15887 0.69559 0.99256 0.0
C297 C 0.27544 0.73308 -0.00183 0.0
H298 H 0.18835 0.78824 0.02044 0.0
C299 C 0.25857 0.67961 0.98223 0.0
C300 C 0.21642 0.66495 0.97994 0.0
H301 H 0.30809 0.74263 -0.00045 0.0
H302 H 0.2786 0.64998 0.97167 0.0
C303 C 0.19152 0.70519 0.99392 0.0
C304 C 0.97525 0.50926 0.9773 0.0
C305 C 0.01552 0.48411 0.98279 0.0
H306 H 0.9143 0.5111 0.98686 0.0
C307 C 0.02497 0.43999 0.0028 0.0
H308 H 0.96699 0.5431 0.96196 0.0
C309 C -0.00525 0.42135 0.01703 0.0
C310 C 0.95449 0.44649 0.01153 0.0
H311 H 0.05572 0.41953 0.00747 0.0
H312 H 0.003 0.38748 0.03236 0.0
C313 C 0.94505 0.49066 0.99153 0.0
C314 C 0.27343 0.49028 0.25332 0.0
C315 C 0.26435 0.44724 0.23305 0.0
H316 H 0.25093 0.54048 0.28306 0.0
C317 C 0.22419 0.42189 0.22722 0.0
H318 H 0.30409 0.51085 0.25824 0.0
C319 C 0.19371 0.43918 0.24139 0.0
C320 C 0.20279 0.48212 0.26168 0.0
H321 H 0.21622 0.38888 0.21166 0.0
H322 H 0.16305 0.41857 0.23647 0.0
C323 C 0.24295 0.50751 0.2675 0.0
C324 C 0.6929 0.20346 0.99494 0.0
C325 C 0.71756 0.16285 0.98092 0.0
H326 H 0.6902 0.28654 0.02149 0.0
C327 C 0.75978 0.17688 0.98316 0.0
H328 H 0.66021 0.19434 0.99362 0.0
C329 C 0.77693 0.23009 -0.00091 0.0
C330 C 0.75228 0.27055 0.01316 0.0
H331 H 0.77963 0.14694 0.97256 0.0
H332 H 0.80963 0.23914 0.00044 0.0
C333 C 0.71005 0.25668 0.01087 0.0
C334 C 0.74251 0.51299 0.76779 0.0
C335 C 0.70237 0.48761 0.7619 0.0
H336 H 0.80374 0.51612 0.75867 0.0
C337 C 0.6934 0.44448 0.74164 0.0
H338 H 0.7504 0.54608 0.78333 0.0
C339 C 0.72398 0.42704 0.72755 0.0
C340 C 0.76413 0.45237 0.73344 0.0
H341 H 0.66275 0.42389 0.73667 0.0
H342 H 0.71609 0.39392 0.71201 0.0
C343 C 0.77309 0.49554 0.7537 0.0
C344 C 0.52385 0.94253 0.00341 0.0
C345 C 0.51497 -0.01357 0.98331 0.0
H346 H 0.50101 0.89062 0.03281 0.0
C347 C 0.47485 0.01193 0.97748 0.0
H348 H 0.55447 0.92182 0.00832 0.0
C349 C 0.44421 -0.0062 0.99147 0.0
C350 C 0.45308 0.94978 0.01155 0.0
H351 H 0.46704 0.04563 0.96206 0.0
H352 H 0.41359 0.01446 0.98655 0.0
C353 C 0.4932 0.92437 0.01739 0.0
C354 C 0.44241 0.23359 0.24547 0.0
C355 C 0.4671 0.27397 0.23138 0.0
H356 H 0.43962 0.15062 0.27205 0.0
C357 C 0.5093 0.26001 0.23365 0.0
H358 H 0.40973 0.24271 0.24414 0.0
C359 C 0.52641 0.20684 0.2496 0.0
C360 C 0.50171 0.16638 0.26367 0.0
H361 H 0.52918 0.28981 0.22302 0.0
H362 H 0.55908 0.19769 0.25093 0.0
C363 C 0.45951 0.18043 0.26142 0.0
C364 C 0.44066 0.72948 0.74591 0.0
C365 C 0.46543 0.76997 0.73189 0.0
H366 H 0.43778 0.64642 0.77246 0.0
C367 C 0.50767 0.7563 0.73431 0.0
H368 H 0.40796 0.73839 0.74447 0.0
C369 C 0.52471 0.70322 0.7503 0.0
C370 C 0.49994 0.66256 0.76427 0.0
H371 H 0.52761 0.78619 0.72374 0.0
H372 H 0.55741 0.69425 0.75171 0.0
C373 C 0.45772 0.6764 0.76191 0.0
C374 C 0.4448 0.49168 0.49116 0.0
C375 C 0.45375 0.44681 0.51105 0.0
H376 H 0.46754 0.54545 0.46204 0.0
C377 C 0.49396 0.42175 0.51682 0.0
H378 H 0.4141 0.51209 0.48629 0.0
C379 C 0.52461 0.44117 0.50297 0.0
C380 C 0.51564 0.48601 0.48307 0.0
H381 H 0.50185 0.38736 0.53208 0.0
H382 H 0.5553 0.42075 0.50783 0.0
C383 C 0.47543 0.51107 0.4773 0.0
C384 C 0.06871 0.70912 0.38325 0.0
C385 C 0.10108 0.68355 0.37135 0.0
H386 H 0.04759 0.7925 0.40569 0.0
C387 C 0.13935 0.71923 0.37533 0.0
H388 H 0.03886 0.68296 0.38064 0.0
C389 C 0.14452 0.78137 0.39026 0.0
C390 C 0.11123 0.80921 0.40087 0.0
H391 H 0.16488 0.70038 0.36649 0.0
H392 H 0.17371 0.81007 0.39246 0.0
C393 C 0.07363 0.77182 0.39761 0.0
C394 C 0.14873 0.20915 0.36132 0.0
C395 C 0.11642 0.18343 0.37326 0.0
H396 H 0.16976 0.29276 0.3389 0.0
C397 C 0.07815 0.21903 0.36936 0.0
H398 H 0.17857 0.18305 0.36387 0.0
C399 C 0.07293 0.28126 0.35447 0.0
C400 C 0.10617 0.30925 0.34382 0.0
H401 H 0.05267 0.20007 0.37824 0.0
H402 H 0.04375 0.30991 0.35234 0.0
C403 C 0.14376 0.27194 0.347 0.0
C404 C 0.06747 0.22023 0.88096 0.0
C405 C 0.09994 0.19353 0.86935 0.0
H406 H 0.04659 0.30407 0.90332 0.0
C407 C 0.13848 0.22806 0.87361 0.0
H408 H 0.03741 0.19498 0.87812 0.0
C409 C 0.1439 0.28996 0.88863 0.0
C410 C 0.11061 0.31874 0.89904 0.0
H411 H 0.16408 0.20831 0.86499 0.0
H412 H 0.17336 0.31764 0.89111 0.0
C413 C 0.07265 0.28268 0.89541 0.0
C414 C 0.14849 0.72031 0.86202 0.0
C415 C 0.11609 0.69363 0.87371 0.0
H416 H 0.1693 0.80413 0.8396 0.0
C417 C 0.07756 0.72814 0.86951 0.0
H418 H 0.17854 0.69508 0.8648 0.0
C419 C 0.07211 0.79001 0.85448 0.0
C420 C 0.10535 0.81878 0.844 0.0
H421 H 0.05201 0.7084 0.87819 0.0
H422 H 0.04267 0.81769 0.85206 0.0
C423 C 0.14328 0.78273 0.84756 0.0
C424 C 0.8291 0.21236 0.62034 0.0
C425 C 0.86774 0.24612 0.62515 0.0
H426 H 0.79438 0.12352 0.60235 0.0
C427 C 0.90068 0.21861 0.6141 0.0
H428 H 0.80315 0.23278 0.62853 0.0
C429 C 0.89577 0.15617 0.59963 0.0
C430 C 0.85765 0.12096 0.59541 0.0
H431 H 0.93083 0.24324 0.6174 0.0
H432 H 0.92213 0.13419 0.59214 0.0
C433 C 0.82398 0.15051 0.60529 0.0
C434 C 0.89378 0.65068 0.64045 0.0
C435 C 0.86011 0.62082 0.65029 0.0
H436 H 0.91456 0.73322 0.61726 0.0
C437 C 0.82195 0.65576 0.64605 0.0
H438 H 0.92341 0.62391 0.64341 0.0
C439 C 0.817 0.71823 0.6316 0.0
C440 C 0.84994 0.74605 0.62059 0.0
H441 H 0.79559 0.63353 0.65351 0.0
H442 H 0.78682 0.74265 0.62828 0.0
C443 C 0.88862 0.71257 0.62542 0.0
C444 C 0.8266 0.63916 0.10598 0.0
C445 C 0.86072 0.60746 0.09709 0.0
H446 H 0.80513 0.72309 0.12848 0.0
C447 C 0.89932 0.63987 0.10261 0.0
H448 H 0.7966 0.61441 0.10203 0.0
C449 C 0.9041 0.70196 0.11722 0.0
C450 C 0.87051 0.732 0.1271 0.0
H451 H 0.92605 0.61629 0.0959 0.0
H452 H 0.93452 0.72468 0.12143 0.0
C453 C 0.83155 0.70066 0.12119 0.0
C454 C 0.82218 0.14006 0.1436 0.0
C455 C 0.86074 0.10746 0.14891 0.0
H456 H 0.78692 0.2251 0.12497 0.0
C457 C 0.89478 0.13906 0.13987 0.0
H458 H 0.79552 0.11652 0.15042 0.0
C459 C 0.88975 0.20065 0.1247 0.0
C460 C 0.8508 0.23217 0.11899 0.0
H461 H 0.92475 0.11413 0.14366 0.0
H462 H 0.91608 0.22299 0.11728 0.0
C463 C 0.81732 0.20225 0.12903 0.0
C464 C 0.63855 0.72667 0.87507 0.0
C465 C 0.59994 0.69252 0.87063 0.0
H466 H 0.67346 0.81596 0.8927 0.0
C467 C 0.56733 0.71964 0.88203 0.0
H468 H 0.66426 0.70657 0.86661 0.0
C469 C 0.57246 0.78217 0.89645 0.0
C470 C 0.61051 0.81783 0.90027 0.0
H471 H 0.53721 0.69468 0.87903 0.0
H472 H 0.54631 0.80391 0.9042 0.0
C473 C 0.64392 0.78861 0.89007 0.0
C474 C 0.57872 0.22669 0.87025 0.0
C475 C 0.61729 0.19249 0.87462 0.0
H476 H 0.54385 0.31601 0.85266 0.0
C477 C 0.64986 0.21953 0.86315 0.0
H478 H 0.55304 0.20665 0.87876 0.0
C479 C 0.64473 0.28203 0.84872 0.0
C480 C 0.60673 0.31776 0.84497 0.0
H481 H 0.67995 0.19453 0.86609 0.0
H482 H 0.67086 0.30373 0.84091 0.0
C483 C 0.57335 0.28861 0.85524 0.0
C484 C 0.56878 0.22619 0.38113 0.0
C485 C 0.60152 0.19875 0.36989 0.0
H486 H 0.54768 0.31043 0.40327 0.0
C487 C 0.64018 0.23258 0.3745 0.0
H488 H 0.53861 0.2015 0.37799 0.0
C489 C 0.64552 0.29438 0.38957 0.0
C490 C 0.61203 0.32378 0.39966 0.0
H491 H 0.66597 0.21223 0.36617 0.0
H492 H 0.67512 0.32141 0.39237 0.0
C493 C 0.57389 0.28855 0.39561 0.0
C494 C 0.58018 0.73226 0.37072 0.0
C495 C 0.61891 0.69897 0.37554 0.0
H496 H 0.5452 0.82056 0.35266 0.0
C497 C 0.65178 0.72692 0.3645 0.0
H498 H 0.55428 0.71151 0.37891 0.0
C499 C 0.6467 0.78921 0.34998 0.0
C500 C 0.60848 0.82388 0.34572 0.0
H501 H 0.682 0.70265 0.3678 0.0
H502 H 0.673 0.81145 0.34247 0.0
C503 C 0.57489 0.79399 0.35563 0.0
C504 C 0.32904 0.20597 0.12001 0.0
C505 C 0.36793 0.23837 0.12523 0.0
H506 H 0.2939 0.11848 0.10158 0.0
C507 C 0.40105 0.20941 0.11466 0.0
H508 H 0.30296 0.22754 0.12783 0.0
C509 C 0.39598 0.14709 0.10016 0.0
C510 C 0.35753 0.11343 0.09542 0.0
H511 H 0.4314 0.23298 0.11831 0.0
H512 H 0.42242 0.12413 0.09298 0.0
C513 C 0.32377 0.14425 0.10491 0.0
C514 C 0.32034 0.64669 0.14371 0.0
C515 C 0.35882 0.61339 0.1486 0.0
H516 H 0.28495 0.73217 0.12539 0.0
C517 C 0.39265 0.64444 0.13921 0.0
H518 H 0.29385 0.62357 0.15082 0.0
C519 C 0.38743 0.70604 0.12406 0.0
C520 C 0.34853 0.73808 0.11869 0.0
H521 H 0.42255 0.61897 0.14266 0.0
H522 H 0.41358 0.7278 0.11632 0.0
C523 C 0.31532 0.70888 0.12915 0.0
C524 C 0.40165 0.70045 0.61591 0.0
C525 C 0.36802 0.73054 0.62576 0.0
H526 H 0.42364 0.61469 0.59464 0.0
C527 C 0.32907 0.69921 0.61982 0.0
H528 H 0.43206 0.72317 0.62015 0.0
C529 C 0.32415 0.63768 0.60462 0.0
C530 C 0.3583 0.60594 0.59577 0.0
H531 H 0.30263 0.72168 0.62709 0.0
H532 H 0.29415 0.61293 0.60066 0.0
C533 C 0.39689 0.63832 0.60132 0.0
C534 C 0.38704 0.19939 0.62336 0.0
C535 C 0.34809 0.23056 0.61739 0.0
H536 H 0.42194 0.11325 0.64256 0.0
C537 C 0.31444 0.20031 0.6272 0.0
H538 H 0.41351 0.22199 0.61613 0.0
C539 C 0.31917 0.13818 0.64179 0.0
C540 C 0.35776 0.10597 0.64738 0.0
H541 H 0.28402 0.2229 0.62293 0.0
H542 H 0.2924 0.11443 0.64844 0.0
C543 C 0.39194 0.13787 0.63856 0.0
loop_
_geom_bond_atom_site_label_1
_geom_bond_atom_site_label_2
_geom_bond_distance
_geom_bond_site_symmetry_2
_ccdc_geom_bond_type
C0 O1 1.306 . S
C0 O3 1.160 . S
O1 C0 1.306 . S
O1 Cd2 2.228 . S
Cd2 O1 2.228 . S
Cd2 O6 2.273 . S
Cd2 O10 2.277 . S
O3 C0 1.160 . S
O3 Cd4 2.203 . S
Cd4 O3 2.203 . S
Cd4 O6 2.411 . S
Cd4 O7 2.333 . S
Cd4 O8 2.352 . S
Cd4 O12 2.277 . S
Cd4 O13 2.356 . S
C5 O10 1.209 . S
C5 O12 1.226 . S
O6 Cd2 2.273 . S
O6 Cd4 2.411 . S
O6 C9 1.320 . S
O7 Cd4 2.333 . S
O7 C9 1.214 . S
O8 Cd4 2.352 . S
O8 C11 1.258 . S
C9 O6 1.320 . S
C9 O7 1.214 . S
O10 Cd2 2.277 . S
O10 C5 1.209 . S
C11 O8 1.258 . S
C11 O13 1.282 . S
O12 Cd4 2.277 . S
O12 C5 1.226 . S
O13 Cd4 2.356 . S
O13 C11 1.282 . S
C14 O15 1.306 . S
C14 O17 1.160 . S
O15 C14 1.306 . S
O15 Cd16 2.228 . S
Cd16 O15 2.228 . S
Cd16 O20 2.273 . S
Cd16 O24 2.277 . S
O17 C14 1.160 . S
O17 Cd18 2.203 . S
Cd18 O17 2.203 . S
Cd18 O20 2.411 . S
Cd18 O21 2.333 . S
Cd18 O22 2.352 . S
Cd18 O26 2.277 . S
Cd18 O27 2.356 . S
C19 O24 1.209 . S
C19 O26 1.226 . S
O20 Cd16 2.273 . S
O20 Cd18 2.411 . S
O20 C23 1.320 . S
O21 Cd18 2.333 . S
O21 C23 1.214 . S
O22 Cd18 2.352 . S
O22 C25 1.258 . S
C23 O20 1.320 . S
C23 O21 1.214 . S
O24 Cd16 2.277 . S
O24 C19 1.209 . S
C25 O22 1.258 . S
C25 O27 1.282 . S
O26 Cd18 2.277 . S
O26 C19 1.226 . S
O27 Cd18 2.356 . S
O27 C25 1.282 . S
C28 O29 1.306 . S
C28 O31 1.160 . S
O29 C28 1.306 . S
O29 Cd30 2.228 . S
Cd30 O29 2.228 . S
Cd30 O34 2.273 . S
Cd30 O38 2.277 . S
O31 C28 1.160 . S
O31 Cd32 2.203 . S
Cd32 O31 2.203 . S
Cd32 O34 2.411 . S
Cd32 O35 2.333 . S
Cd32 O36 2.352 . S
Cd32 O40 2.277 . S
Cd32 O41 2.356 . S
C33 O38 1.209 . S
C33 O40 1.226 . S
O34 Cd30 2.273 . S
O34 Cd32 2.411 . S
O34 C37 1.320 . S
O35 Cd32 2.333 . S
O35 C37 1.214 . S
O36 Cd32 2.352 . S
O36 C39 1.258 . S
C37 O34 1.320 . S
C37 O35 1.214 . S
O38 Cd30 2.277 . S
O38 C33 1.209 . S
C39 O36 1.258 . S
C39 O41 1.282 . S
O40 Cd32 2.277 . S
O40 C33 1.226 . S
O41 Cd32 2.356 . S
O41 C39 1.282 . S
C42 O43 1.306 . S
C42 O45 1.160 . S
O43 C42 1.306 . S
O43 Cd44 2.228 . S
Cd44 O43 2.228 . S
Cd44 O48 2.273 . S
Cd44 O52 2.277 . S
O45 C42 1.160 . S
O45 Cd46 2.203 . S
Cd46 O45 2.203 . S
Cd46 O48 2.411 . S
Cd46 O49 2.333 . S
Cd46 O50 2.352 . S
Cd46 O54 2.277 . S
Cd46 O55 2.356 . S
C47 O52 1.209 . S
C47 O54 1.226 . S
O48 Cd44 2.273 . S
O48 Cd46 2.411 . S
O48 C51 1.320 . S
O49 Cd46 2.333 . S
O49 C51 1.214 . S
O50 Cd46 2.352 . S
O50 C53 1.258 . S
C51 O48 1.320 . S
C51 O49 1.214 . S
O52 Cd44 2.277 . S
O52 C47 1.209 . S
C53 O50 1.258 . S
C53 O55 1.282 . S
O54 Cd46 2.277 . S
O54 C47 1.226 . S
O55 Cd46 2.356 . S
O55 C53 1.282 . S
C56 O57 1.306 . S
C56 O59 1.160 . S
O57 C56 1.306 . S
O57 Cd58 2.228 . S
Cd58 O57 2.228 . S
Cd58 O62 2.273 . S
Cd58 O66 2.277 . S
O59 C56 1.160 . S
O59 Cd60 2.203 . S
Cd60 O59 2.203 . S
Cd60 O62 2.411 . S
Cd60 O63 2.333 . S
Cd60 O64 2.352 . S
Cd60 O68 2.277 . S
Cd60 O69 2.356 . S
C61 O66 1.209 . S
C61 O68 1.226 . S
O62 Cd58 2.273 . S
O62 Cd60 2.411 . S
O62 C65 1.320 . S
O63 Cd60 2.333 . S
O63 C65 1.214 . S
O64 Cd60 2.352 . S
O64 C67 1.258 . S
C65 O62 1.320 . S
C65 O63 1.214 . S
O66 Cd58 2.277 . S
O66 C61 1.209 . S
C67 O64 1.258 . S
C67 O69 1.282 . S
O68 Cd60 2.277 . S
O68 C61 1.226 . S
O69 Cd60 2.356 . S
O69 C67 1.282 . S
C70 O71 1.306 . S
C70 O73 1.160 . S
O71 C70 1.306 . S
O71 Cd72 2.228 . S
Cd72 O71 2.228 . S
Cd72 O76 2.273 . S
Cd72 O80 2.277 . S
O73 C70 1.160 . S
O73 Cd74 2.203 . S
Cd74 O73 2.203 . S
Cd74 O76 2.411 . S
Cd74 O77 2.333 . S
Cd74 O78 2.352 . S
Cd74 O82 2.277 . S
Cd74 O83 2.356 . S
C75 O80 1.209 . S
C75 O82 1.226 . S
O76 Cd72 2.273 . S
O76 Cd74 2.411 . S
O76 C79 1.320 . S
O77 Cd74 2.333 . S
O77 C79 1.214 . S
O78 Cd74 2.352 . S
O78 C81 1.258 . S
C79 O76 1.320 . S
C79 O77 1.214 . S
O80 Cd72 2.277 . S
O80 C75 1.209 . S
C81 O78 1.258 . S
C81 O83 1.282 . S
O82 Cd74 2.277 . S
O82 C75 1.226 . S
O83 Cd74 2.356 . S
O83 C81 1.282 . S
C84 O85 1.306 . S
C84 O87 1.160 . S
O85 C84 1.306 . S
O85 Cd86 2.228 . S
Cd86 O85 2.228 . S
Cd86 O90 2.273 . S
Cd86 O94 2.277 . S
O87 C84 1.160 . S
O87 Cd88 2.203 . S
Cd88 O87 2.203 . S
Cd88 O90 2.411 . S
Cd88 O91 2.333 . S
Cd88 O92 2.352 . S
Cd88 O96 2.277 . S
Cd88 O97 2.356 . S
C89 O94 1.209 . S
C89 O96 1.226 . S
O90 Cd86 2.273 . S
O90 Cd88 2.411 . S
O90 C93 1.320 . S
O91 Cd88 2.333 . S
O91 C93 1.214 . S
O92 Cd88 2.352 . S
O92 C95 1.258 . S
C93 O90 1.320 . S
C93 O91 1.214 . S
O94 Cd86 2.277 . S
O94 C89 1.209 . S
C95 O92 1.258 . S
C95 O97 1.282 . S
O96 Cd88 2.277 . S
O96 C89 1.226 . S
O97 Cd88 2.356 . S
O97 C95 1.282 . S
C98 O99 1.306 . S
C98 O101 1.160 . S
O99 C98 1.306 . S
O99 Cd100 2.228 . S
Cd100 O99 2.228 . S
Cd100 O104 2.273 . S
Cd100 O108 2.277 . S
O101 C98 1.160 . S
O101 Cd102 2.203 . S
Cd102 O101 2.203 . S
Cd102 O104 2.411 . S
Cd102 O105 2.333 . S
Cd102 O106 2.352 . S
Cd102 O110 2.277 . S
Cd102 O111 2.356 . S
C103 O108 1.209 . S
C103 O110 1.226 . S
O104 Cd100 2.273 . S
O104 Cd102 2.411 . S
O104 C107 1.320 . S
O105 Cd102 2.333 . S
O105 C107 1.214 . S
O106 Cd102 2.352 . S
O106 C109 1.258 . S
C107 O104 1.320 . S
C107 O105 1.214 . S
O108 Cd100 2.277 . S
O108 C103 1.209 . S
C109 O106 1.258 . S
C109 O111 1.282 . S
O110 Cd102 2.277 . S
O110 C103 1.226 . S
O111 Cd102 2.356 . S
O111 C109 1.282 . S
C112 O113 1.306 . S
C112 O115 1.160 . S
O113 C112 1.306 . S
O113 Cd114 2.228 . S
Cd114 O113 2.228 . S
Cd114 O118 2.273 . S
Cd114 O122 2.277 . S
O115 C112 1.160 . S
O115 Cd116 2.203 . S
Cd116 O115 2.203 . S
Cd116 O118 2.411 . S
Cd116 O119 2.333 . S
Cd116 O120 2.352 . S
Cd116 O124 2.277 . S
Cd116 O125 2.356 . S
C117 O122 1.209 . S
C117 O124 1.226 . S
O118 Cd114 2.273 . S
O118 Cd116 2.411 . S
O118 C121 1.320 . S
O119 Cd116 2.333 . S
O119 C121 1.214 . S
O120 Cd116 2.352 . S
O120 C123 1.258 . S
C121 O118 1.320 . S
C121 O119 1.214 . S
O122 Cd114 2.277 . S
O122 C117 1.209 . S
C123 O120 1.258 . S
C123 O125 1.282 . S
O124 Cd116 2.277 . S
O124 C117 1.226 . S
O125 Cd116 2.356 . S
O125 C123 1.282 . S
C126 O127 1.306 . S
C126 O129 1.160 . S
O127 C126 1.306 . S
O127 Cd128 2.228 . S
Cd128 O127 2.228 . S
Cd128 O132 2.273 . S
Cd128 O136 2.277 . S
O129 C126 1.160 . S
O129 Cd130 2.203 . S
Cd130 O129 2.203 . S
Cd130 O132 2.411 . S
Cd130 O133 2.333 . S
Cd130 O134 2.352 . S
Cd130 O138 2.277 . S
Cd130 O139 2.356 . S
C131 O136 1.209 . S
C131 O138 1.226 . S
O132 Cd128 2.273 . S
O132 Cd130 2.411 . S
O132 C135 1.320 . S
O133 Cd130 2.333 . S
O133 C135 1.214 . S
O134 Cd130 2.352 . S
O134 C137 1.258 . S
C135 O132 1.320 . S
C135 O133 1.214 . S
O136 Cd128 2.277 . S
O136 C131 1.209 . S
C137 O134 1.258 . S
C137 O139 1.282 . S
O138 Cd130 2.277 . S
O138 C131 1.226 . S
O139 Cd130 2.356 . S
O139 C137 1.282 . S
C140 O141 1.306 . S
C140 O143 1.160 . S
O141 C140 1.306 . S
O141 Cd142 2.228 . S
Cd142 O141 2.228 . S
Cd142 O146 2.273 . S
Cd142 O150 2.277 . S
O143 C140 1.160 . S
O143 Cd144 2.203 . S
Cd144 O143 2.203 . S
Cd144 O146 2.411 . S
Cd144 O147 2.333 . S
Cd144 O148 2.352 . S
Cd144 O152 2.277 . S
Cd144 O153 2.356 . S
C145 O150 1.209 . S
C145 O152 1.226 . S
O146 Cd142 2.273 . S
O146 Cd144 2.411 . S
O146 C149 1.320 . S
O147 Cd144 2.333 . S
O147 C149 1.214 . S
O148 Cd144 2.352 . S
O148 C151 1.258 . S
C149 O146 1.320 . S
C149 O147 1.214 . S
O150 Cd142 2.277 . S
O150 C145 1.209 . S
C151 O148 1.258 . S
C151 O153 1.282 . S
O152 Cd144 2.277 . S
O152 C145 1.226 . S
O153 Cd144 2.356 . S
O153 C151 1.282 . S
C154 O155 1.306 . S
C154 O157 1.160 . S
O155 C154 1.306 . S
O155 Cd156 2.228 . S
Cd156 O155 2.228 . S
Cd156 O160 2.273 . S
Cd156 O164 2.277 . S
O157 C154 1.160 . S
O157 Cd158 2.203 . S
Cd158 O157 2.203 . S
Cd158 O160 2.411 . S
Cd158 O161 2.333 . S
Cd158 O162 2.352 . S
Cd158 O166 2.277 . S
Cd158 O167 2.356 . S
C159 O164 1.209 . S
C159 O166 1.226 . S
O160 Cd156 2.273 . S
O160 Cd158 2.411 . S
O160 C163 1.320 . S
O161 Cd158 2.333 . S
O161 C163 1.214 . S
O162 Cd158 2.352 . S
O162 C165 1.258 . S
C163 O160 1.320 . S
C163 O161 1.214 . S
O164 Cd156 2.277 . S
O164 C159 1.209 . S
C165 O162 1.258 . S
C165 O167 1.282 . S
O166 Cd158 2.277 . S
O166 C159 1.226 . S
O167 Cd158 2.356 . S
O167 C165 1.282 . S
C168 O169 1.306 . S
C168 O171 1.160 . S
O169 C168 1.306 . S
O169 Cd170 2.228 . S
Cd170 O169 2.228 . S
Cd170 O174 2.273 . S
Cd170 O178 2.277 . S
O171 C168 1.160 . S
O171 Cd172 2.203 . S
Cd172 O171 2.203 . S
Cd172 O174 2.411 . S
Cd172 O175 2.333 . S
Cd172 O176 2.352 . S
Cd172 O180 2.277 . S
Cd172 O181 2.356 . S
C173 O178 1.209 . S
C173 O180 1.226 . S
O174 Cd170 2.273 . S
O174 Cd172 2.411 . S
O174 C177 1.320 . S
O175 Cd172 2.333 . S
O175 C177 1.214 . S
O176 Cd172 2.352 . S
O176 C179 1.258 . S
C177 O174 1.320 . S
C177 O175 1.214 . S
O178 Cd170 2.277 . S
O178 C173 1.209 . S
C179 O176 1.258 . S
C179 O181 1.282 . S
O180 Cd172 2.277 . S
O180 C173 1.226 . S
O181 Cd172 2.356 . S
O181 C179 1.282 . S
C182 O183 1.306 . S
C182 O185 1.160 . S
O183 C182 1.306 . S
O183 Cd184 2.228 . S
Cd184 O183 2.228 . S
Cd184 O188 2.273 . S
Cd184 O192 2.277 . S
O185 C182 1.160 . S
O185 Cd186 2.203 . S
Cd186 O185 2.203 . S
Cd186 O188 2.411 . S
Cd186 O189 2.333 . S
Cd186 O190 2.352 . S
Cd186 O194 2.277 . S
Cd186 O195 2.356 . S
C187 O192 1.209 . S
C187 O194 1.226 . S
O188 Cd184 2.273 . S
O188 Cd186 2.411 . S
O188 C191 1.320 . S
O189 Cd186 2.333 . S
O189 C191 1.214 . S
O190 Cd186 2.352 . S
O190 C193 1.258 . S
C191 O188 1.320 . S
C191 O189 1.214 . S
O192 Cd184 2.277 . S
O192 C187 1.209 . S
C193 O190 1.258 . S
C193 O195 1.282 . S
O194 Cd186 2.277 . S
O194 C187 1.226 . S
O195 Cd186 2.356 . S
O195 C193 1.282 . S
C196 O197 1.306 . S
C196 O199 1.160 . S
O197 C196 1.306 . S
O197 Cd198 2.228 . S
Cd198 O197 2.228 . S
Cd198 O202 2.273 . S
Cd198 O206 2.277 . S
O199 C196 1.160 . S
O199 Cd200 2.203 . S
Cd200 O199 2.203 . S
Cd200 O202 2.411 . S
Cd200 O203 2.333 . S
Cd200 O204 2.352 . S
Cd200 O208 2.277 . S
Cd200 O209 2.356 . S
C201 O206 1.209 . S
C201 O208 1.226 . S
O202 Cd198 2.273 . S
O202 Cd200 2.411 . S
O202 C205 1.320 . S
O203 Cd200 2.333 . S
O203 C205 1.214 . S
O204 Cd200 2.352 . S
O204 C207 1.258 . S
C205 O202 1.320 . S
C205 O203 1.214 . S
O206 Cd198 2.277 . S
O206 C201 1.209 . S
C207 O204 1.258 . S
C207 O209 1.282 . S
O208 Cd200 2.277 . S
O208 C201 1.226 . S
O209 Cd200 2.356 . S
O209 C207 1.282 . S
C210 O211 1.306 . S
C210 O213 1.160 . S
O211 C210 1.306 . S
O211 Cd212 2.228 . S
Cd212 O211 2.228 . S
Cd212 O216 2.273 . S
Cd212 O220 2.277 . S
O213 C210 1.160 . S
O213 Cd214 2.203 . S
Cd214 O213 2.203 . S
Cd214 O216 2.411 . S
Cd214 O217 2.333 . S
Cd214 O218 2.352 . S
Cd214 O222 2.277 . S
Cd214 O223 2.356 . S
C215 O220 1.209 . S
C215 O222 1.226 . S
O216 Cd212 2.273 . S
O216 Cd214 2.411 . S
O216 C219 1.320 . S
O217 Cd214 2.333 . S
O217 C219 1.214 . S
O218 Cd214 2.352 . S
O218 C221 1.258 . S
C219 O216 1.320 . S
C219 O217 1.214 . S
O220 Cd212 2.277 . S
O220 C215 1.209 . S
C221 O218 1.258 . S
C221 O223 1.282 . S
O222 Cd214 2.277 . S
O222 C215 1.226 . S
O223 Cd214 2.356 . S
O223 C221 1.282 . S
C224 C225 1.387 . S
C224 H228 0.950 . S
C224 C233 1.390 . S
C225 C224 1.387 . S
C225 C227 1.387 . S
H226 C233 0.950 . S
C227 C225 1.387 . S
C227 C229 1.390 . S
C227 H231 0.950 . S
H228 C224 0.950 . S
C229 C227 1.390 . S
C229 C230 1.387 . S
C229 H232 0.950 . S
C230 C229 1.387 . S
C230 C233 1.387 . S
H231 C227 0.950 . S
H232 C229 0.950 . S
C233 C224 1.390 . S
C233 H226 0.950 . S
C233 C230 1.387 . S
C234 C235 1.387 . S
C234 H238 0.950 . S
C234 C243 1.390 1_565 S
C235 C234 1.387 . S
C235 C237 1.387 1_655 S
H236 C243 0.950 . S
C237 C235 1.387 1_455 S
C237 C239 1.390 1_565 S
C237 H241 0.950 . S
H238 C234 0.950 . S
C239 C237 1.390 1_545 S
C239 C240 1.387 . S
C239 H242 0.950 . S
C240 C239 1.387 . S
C240 C243 1.387 1_455 S
H241 C237 0.950 . S
H242 C239 0.950 . S
C243 C234 1.390 1_545 S
C243 H236 0.950 . S
C243 C240 1.387 1_655 S
C244 C245 1.387 . S
C244 H248 0.950 . S
C244 C253 1.390 . S
C245 C244 1.387 . S
C245 C247 1.387 1_565 S
H246 C253 0.950 . S
C247 C245 1.387 1_545 S
C247 C249 1.390 . S
C247 H251 0.950 . S
H248 C244 0.950 . S
C249 C247 1.390 . S
C249 C250 1.387 . S
C249 H252 0.950 . S
C250 C249 1.387 . S
C250 C253 1.387 1_545 S
H251 C247 0.950 . S
H252 C249 0.950 . S
C253 C244 1.390 . S
C253 H246 0.950 . S
C253 C250 1.387 1_565 S
C254 C255 1.387 . S
C254 H258 0.950 . S
C254 C263 1.390 1_455 S
C255 C254 1.387 . S
C255 C257 1.387 . S
H256 C263 0.950 . S
C257 C255 1.387 . S
C257 C259 1.390 1_455 S
C257 H261 0.950 . S
H258 C254 0.950 . S
C259 C257 1.390 1_655 S
C259 C260 1.387 . S
C259 H262 0.950 . S
C260 C259 1.387 . S
C260 C263 1.387 . S
H261 C257 0.950 . S
H262 C259 0.950 . S
C263 C254 1.390 1_655 S
C263 H256 0.950 . S
C263 C260 1.387 . S
C264 C265 1.387 . S
C264 H268 0.950 . S
C264 C273 1.390 . S
C265 C264 1.387 . S
C265 C267 1.387 . S
H266 C273 0.950 . S
C267 C265 1.387 . S
C267 C269 1.390 . S
C267 H271 0.950 . S
H268 C264 0.950 . S
C269 C267 1.390 . S
C269 C270 1.387 . S
C269 H272 0.950 . S
C270 C269 1.387 . S
C270 C273 1.387 . S
H271 C267 0.950 . S
H272 C269 0.950 . S
C273 C264 1.390 . S
C273 H266 0.950 . S
C273 C270 1.387 . S
C274 C275 1.387 . S
C274 H278 0.950 . S
C274 C283 1.390 1_545 S
C275 C274 1.387 . S
C275 C277 1.387 . S
H276 C283 0.950 . S
C277 C275 1.387 . S
C277 C279 1.390 1_545 S
C277 H281 0.950 . S
H278 C274 0.950 . S
C279 C277 1.390 1_565 S
C279 C280 1.387 . S
C279 H282 0.950 . S
C280 C279 1.387 . S
C280 C283 1.387 . S
H281 C277 0.950 . S
H282 C279 0.950 . S
C283 C274 1.390 1_565 S
C283 H276 0.950 . S
C283 C280 1.387 . S
C284 C285 1.387 1_455 S
C284 H288 0.950 . S
C284 C293 1.390 . S
C285 C284 1.387 1_655 S
C285 C287 1.387 . S
H286 C293 0.950 . S
C287 C285 1.387 . S
C287 C289 1.390 . S
C287 H291 0.950 . S
H288 C284 0.950 . S
C289 C287 1.390 . S
C289 C290 1.387 1_655 S
C289 H292 0.950 . S
C290 C289 1.387 1_455 S
C290 C293 1.387 . S
H291 C287 0.950 . S
H292 C289 0.950 . S
C293 C284 1.390 . S
C293 H286 0.950 . S
C293 C290 1.387 . S
C294 C295 1.387 1_556 S
C294 H298 0.950 . S
C294 C303 1.390 . S
C295 C294 1.387 1_554 S
C295 C297 1.387 . S
H296 C303 0.950 . S
C297 C295 1.387 . S
C297 C299 1.390 . S
C297 H301 0.950 . S
H298 C294 0.950 . S
C299 C297 1.390 . S
C299 C300 1.387 1_554 S
C299 H302 0.950 . S
C300 C299 1.387 1_556 S
C300 C303 1.387 . S
H301 C297 0.950 . S
H302 C299 0.950 . S
C303 C294 1.390 . S
C303 H296 0.950 . S
C303 C300 1.387 . S
C304 C305 1.387 1_554 S
C304 H308 0.950 . S
C304 C313 1.390 1_455 S
C305 C304 1.387 1_556 S
C305 C307 1.387 . S
H306 C313 0.950 . S
C307 C305 1.387 . S
C307 C309 1.390 1_455 S
C307 H311 0.950 . S
H308 C304 0.950 . S
C309 C307 1.390 1_655 S
C309 C310 1.387 1_556 S
C309 H312 0.950 . S
C310 C309 1.387 1_554 S
C310 C313 1.387 . S
H311 C307 0.950 . S
H312 C309 0.950 . S
C313 C304 1.390 1_655 S
C313 H306 0.950 . S
C313 C310 1.387 . S
C314 C315 1.387 . S
C314 H318 0.950 . S
C314 C323 1.390 . S
C315 C314 1.387 . S
C315 C317 1.387 . S
H316 C323 0.950 . S
C317 C315 1.387 . S
C317 C319 1.390 . S
C317 H321 0.950 . S
H318 C314 0.950 . S
C319 C317 1.390 . S
C319 C320 1.387 . S
C319 H322 0.950 . S
C320 C319 1.387 . S
C320 C323 1.387 . S
H321 C317 0.950 . S
H322 C319 0.950 . S
C323 C314 1.390 . S
C323 H316 0.950 . S
C323 C320 1.387 . S
C324 C325 1.387 1_554 S
C324 H328 0.950 . S
C324 C333 1.390 . S
C325 C324 1.387 1_556 S
C325 C327 1.387 . S
H326 C333 0.950 . S
C327 C325 1.387 . S
C327 C329 1.390 . S
C327 H331 0.950 . S
H328 C324 0.950 . S
C329 C327 1.390 . S
C329 C330 1.387 1_556 S
C329 H332 0.950 . S
C330 C329 1.387 1_554 S
C330 C333 1.387 . S
H331 C327 0.950 . S
H332 C329 0.950 . S
C333 C324 1.390 . S
C333 H326 0.950 . S
C333 C330 1.387 . S
C334 C335 1.387 . S
C334 H338 0.950 . S
C334 C343 1.390 . S
C335 C334 1.387 . S
C335 C337 1.387 . S
H336 C343 0.950 . S
C337 C335 1.387 . S
C337 C339 1.390 . S
C337 H341 0.950 . S
H338 C334 0.950 . S
C339 C337 1.390 . S
C339 C340 1.387 . S
C339 H342 0.950 . S
C340 C339 1.387 . S
C340 C343 1.387 . S
H341 C337 0.950 . S
H342 C339 0.950 . S
C343 C334 1.390 . S
C343 H336 0.950 . S
C343 C340 1.387 . S
C344 C345 1.387 1_565 S
C344 H348 0.950 . S
C344 C353 1.410 . S
C345 C344 1.387 1_545 S
C345 C347 1.368 1_556 S
H346 C353 0.951 . S
C347 C345 1.368 1_554 S
C347 C349 1.410 . S
C347 H351 0.951 . S
H348 C344 0.950 . S
C349 C347 1.410 . S
C349 C350 1.387 1_545 S
C349 H352 0.950 . S
C350 C349 1.387 1_565 S
C350 C353 1.368 1_554 S
H351 C347 0.951 . S
H352 C349 0.950 . S
C353 C344 1.410 . S
C353 H346 0.951 . S
C353 C350 1.368 1_556 S
C354 C355 1.387 . S
C354 H358 0.950 . S
C354 C363 1.390 . S
C355 C354 1.387 . S
C355 C357 1.387 . S
H356 C363 0.950 . S
C357 C355 1.387 . S
C357 C359 1.390 . S
C357 H361 0.950 . S
H358 C354 0.950 . S
C359 C357 1.390 . S
C359 C360 1.387 . S
C359 H362 0.950 . S
C360 C359 1.387 . S
C360 C363 1.387 . S
H361 C357 0.950 . S
H362 C359 0.950 . S
C363 C354 1.390 . S
C363 H356 0.950 . S
C363 C360 1.387 . S
C364 C365 1.387 . S
C364 H368 0.950 . S
C364 C373 1.390 . S
C365 C364 1.387 . S
C365 C367 1.387 . S
H366 C373 0.950 . S
C367 C365 1.387 . S
C367 C369 1.390 . S
C367 H371 0.950 . S
H368 C364 0.950 . S
C369 C367 1.390 . S
C369 C370 1.387 . S
C369 H372 0.950 . S
C370 C369 1.387 . S
C370 C373 1.387 . S
H371 C367 0.950 . S
H372 C369 0.950 . S
C373 C364 1.390 . S
C373 H366 0.950 . S
C373 C370 1.387 . S
C374 C375 1.387 . S
C374 H378 0.950 . S
C374 C383 1.390 . S
C375 C374 1.387 . S
C375 C377 1.387 . S
H376 C383 0.950 . S
C377 C375 1.387 . S
C377 C379 1.390 . S
C377 H381 0.950 . S
H378 C374 0.950 . S
C379 C377 1.390 . S
C379 C380 1.387 . S
C379 H382 0.950 . S
C380 C379 1.387 . S
C380 C383 1.387 . S
H381 C377 0.950 . S
H382 C379 0.950 . S
C383 C374 1.390 . S
C383 H376 0.950 . S
C383 C380 1.387 . S
C384 C385 1.387 . S
C384 H388 0.950 . S
C384 C393 1.390 . S
C385 C384 1.387 . S
C385 C387 1.387 . S
H386 C393 0.950 . S
C387 C385 1.387 . S
C387 C389 1.390 . S
C387 H391 0.950 . S
H388 C384 0.950 . S
C389 C387 1.390 . S
C389 C390 1.387 . S
C389 H392 0.950 . S
C390 C389 1.387 . S
C390 C393 1.387 . S
H391 C387 0.950 . S
H392 C389 0.950 . S
C393 C384 1.390 . S
C393 H386 0.950 . S
C393 C390 1.387 . S
C394 C395 1.387 . S
C394 H398 0.950 . S
C394 C403 1.390 . S
C395 C394 1.387 . S
C395 C397 1.387 . S
H396 C403 0.950 . S
C397 C395 1.387 . S
C397 C399 1.390 . S
C397 H401 0.950 . S
H398 C394 0.950 . S
C399 C397 1.390 . S
C399 C400 1.387 . S
C399 H402 0.950 . S
C400 C399 1.387 . S
C400 C403 1.387 . S
H401 C397 0.950 . S
H402 C399 0.950 . S
C403 C394 1.390 . S
C403 H396 0.950 . S
C403 C400 1.387 . S
C404 C405 1.387 . S
C404 H408 0.950 . S
C404 C413 1.390 . S
C405 C404 1.387 . S
C405 C407 1.387 . S
H406 C413 0.950 . S
C407 C405 1.387 . S
C407 C409 1.390 . S
C407 H411 0.950 . S
H408 C404 0.950 . S
C409 C407 1.390 . S
C409 C410 1.387 . S
C409 H412 0.950 . S
C410 C409 1.387 . S
C410 C413 1.387 . S
H411 C407 0.950 . S
H412 C409 0.950 . S
C413 C404 1.390 . S
C413 H406 0.950 . S
C413 C410 1.387 . S
C414 C415 1.387 . S
C414 H418 0.950 . S
C414 C423 1.390 . S
C415 C414 1.387 . S
C415 C417 1.387 . S
H416 C423 0.950 . S
C417 C415 1.387 . S
C417 C419 1.390 . S
C417 H421 0.950 . S
H418 C414 0.950 . S
C419 C417 1.390 . S
C419 C420 1.387 . S
C419 H422 0.950 . S
C420 C419 1.387 . S
C420 C423 1.387 . S
H421 C417 0.950 . S
H422 C419 0.950 . S
C423 C414 1.390 . S
C423 H416 0.950 . S
C423 C420 1.387 . S
C424 C425 1.387 . S
C424 H428 0.950 . S
C424 C433 1.390 . S
C425 C424 1.387 . S
C425 C427 1.387 . S
H426 C433 0.950 . S
C427 C425 1.387 . S
C427 C429 1.390 . S
C427 H431 0.950 . S
H428 C424 0.950 . S
C429 C427 1.390 . S
C429 C430 1.387 . S
C429 H432 0.950 . S
C430 C429 1.387 . S
C430 C433 1.387 . S
H431 C427 0.950 . S
H432 C429 0.950 . S
C433 C424 1.390 . S
C433 H426 0.950 . S
C433 C430 1.387 . S
C434 C435 1.387 . S
C434 H438 0.950 . S
C434 C443 1.390 . S
C435 C434 1.387 . S
C435 C437 1.387 . S
H436 C443 0.950 . S
C437 C435 1.387 . S
C437 C439 1.390 . S
C437 H441 0.950 . S
H438 C434 0.950 . S
C439 C437 1.390 . S
C439 C440 1.387 . S
C439 H442 0.950 . S
C440 C439 1.387 . S
C440 C443 1.387 . S
H441 C437 0.950 . S
H442 C439 0.950 . S
C443 C434 1.390 . S
C443 H436 0.950 . S
C443 C440 1.387 . S
C444 C445 1.387 . S
C444 H448 0.950 . S
C444 C453 1.390 . S
C445 C444 1.387 . S
C445 C447 1.387 . S
H446 C453 0.950 . S
C447 C445 1.387 . S
C447 C449 1.390 . S
C447 H451 0.950 . S
H448 C444 0.950 . S
C449 C447 1.390 . S
C449 C450 1.387 . S
C449 H452 0.950 . S
C450 C449 1.387 . S
C450 C453 1.387 . S
H451 C447 0.950 . S
H452 C449 0.950 . S
C453 C444 1.390 . S
C453 H446 0.950 . S
C453 C450 1.387 . S
C454 C455 1.387 . S
C454 H458 0.950 . S
C454 C463 1.390 . S
C455 C454 1.387 . S
C455 C457 1.387 . S
H456 C463 0.950 . S
C457 C455 1.387 . S
C457 C459 1.390 . S
C457 H461 0.950 . S
H458 C454 0.950 . S
C459 C457 1.390 . S
C459 C460 1.387 . S
C459 H462 0.950 . S
C460 C459 1.387 . S
C460 C463 1.387 . S
H461 C457 0.950 . S
H462 C459 0.950 . S
C463 C454 1.390 . S
C463 H456 0.950 . S
C463 C460 1.387 . S
C464 C465 1.387 . S
C464 H468 0.950 . S
C464 C473 1.390 . S
C465 C464 1.387 . S
C465 C467 1.387 . S
H466 C473 0.950 . S
C467 C465 1.387 . S
C467 C469 1.390 . S
C467 H471 0.950 . S
H468 C464 0.950 . S
C469 C467 1.390 . S
C469 C470 1.387 . S
C469 H472 0.950 . S
C470 C469 1.387 . S
C470 C473 1.387 . S
H471 C467 0.950 . S
H472 C469 0.950 . S
C473 C464 1.390 . S
C473 H466 0.950 . S
C473 C470 1.387 . S
C474 C475 1.387 . S
C474 H478 0.950 . S
C474 C483 1.390 . S
C475 C474 1.387 . S
C475 C477 1.387 . S
H476 C483 0.950 . S
C477 C475 1.387 . S
C477 C479 1.390 . S
C477 H481 0.950 . S
H478 C474 0.950 . S
C479 C477 1.390 . S
C479 C480 1.387 . S
C479 H482 0.950 . S
C480 C479 1.387 . S
C480 C483 1.387 . S
H481 C477 0.950 . S
H482 C479 0.950 . S
C483 C474 1.390 . S
C483 H476 0.950 . S
C483 C480 1.387 . S
C484 C485 1.387 . S
C484 H488 0.950 . S
C484 C493 1.390 . S
C485 C484 1.387 . S
C485 C487 1.387 . S
H486 C493 0.950 . S
C487 C485 1.387 . S
C487 C489 1.390 . S
C487 H491 0.950 . S
H488 C484 0.950 . S
C489 C487 1.390 . S
C489 C490 1.387 . S
C489 H492 0.950 . S
C490 C489 1.387 . S
C490 C493 1.387 . S
H491 C487 0.950 . S
H492 C489 0.950 . S
C493 C484 1.390 . S
C493 H486 0.950 . S
C493 C490 1.387 . S
C494 C495 1.387 . S
C494 H498 0.950 . S
C494 C503 1.390 . S
C495 C494 1.387 . S
C495 C497 1.387 . S
H496 C503 0.950 . S
C497 C495 1.387 . S
C497 C499 1.390 . S
C497 H501 0.950 . S
H498 C494 0.950 . S
C499 C497 1.390 . S
C499 C500 1.387 . S
C499 H502 0.950 . S
C500 C499 1.387 . S
C500 C503 1.387 . S
H501 C497 0.950 . S
H502 C499 0.950 . S
C503 C494 1.390 . S
C503 H496 0.950 . S
C503 C500 1.387 . S
C504 C505 1.387 . S
C504 H508 0.950 . S
C504 C513 1.390 . S
C505 C504 1.387 . S
C505 C507 1.387 . S
H506 C513 0.950 . S
C507 C505 1.387 . S
C507 C509 1.390 . S
C507 H511 0.950 . S
H508 C504 0.950 . S
C509 C507 1.390 . S
C509 C510 1.387 . S
C509 H512 0.950 . S
C510 C509 1.387 . S
C510 C513 1.387 . S
H511 C507 0.950 . S
H512 C509 0.950 . S
C513 C504 1.390 . S
C513 H506 0.950 . S
C513 C510 1.387 . S
C514 C515 1.387 . S
C514 H518 0.950 . S
C514 C523 1.390 . S
C515 C514 1.387 . S
C515 C517 1.387 . S
H516 C523 0.950 . S
C517 C515 1.387 . S
C517 C519 1.390 . S
C517 H521 0.950 . S
H518 C514 0.950 . S
C519 C517 1.390 . S
C519 C520 1.387 . S
C519 H522 0.950 . S
C520 C519 1.387 . S
C520 C523 1.387 . S
H521 C517 0.950 . S
H522 C519 0.950 . S
C523 C514 1.390 . S
C523 H516 0.950 . S
C523 C520 1.387 . S
C524 C525 1.387 . S
C524 H528 0.950 . S
C524 C533 1.390 . S
C525 C524 1.387 . S
C525 C527 1.387 . S
H526 C533 0.950 . S
C527 C525 1.387 . S
C527 C529 1.390 . S
C527 H531 0.950 . S
H528 C524 0.950 . S
C529 C527 1.390 . S
C529 C530 1.387 . S
C529 H532 0.950 . S
C530 C529 1.387 . S
C530 C533 1.387 . S
H531 C527 0.950 . S
H532 C529 0.950 . S
C533 C524 1.390 . S
C533 H526 0.950 . S
C533 C530 1.387 . S
C534 C535 1.387 . S
C534 H538 0.950 . S
C534 C543 1.390 . S
C535 C534 1.387 . S
C535 C537 1.387 . S
H536 C543 0.950 . S
C537 C535 1.387 . S
C537 C539 1.390 . S
C537 H541 0.950 . S
H538 C534 0.950 . S
C539 C537 1.390 . S
C539 C540 1.387 . S
C539 H542 0.950 . S
C540 C539 1.387 . S
C540 C543 1.387 . S
H541 C537 0.950 . S
H542 C539 0.950 . S
C543 C534 1.390 . S
C543 H536 0.950 . S
C543 C540 1.387 . S
C225 C196 1.494 . S
C230 C0 1.494 . S
C235 C39 1.498 . S
C240 C11 1.498 . S
C245 C165 1.498 . S
C250 C25 1.498 . S
C255 C14 1.493 . S
C260 C98 1.493 . S
C265 C28 1.493 . S
C270 C168 1.493 . S
C275 C137 1.498 . S
C280 C53 1.498 . S
C285 C42 1.493 . S
C290 C70 1.493 . S
C295 C140 1.493 . S
C300 C56 1.493 . S
C305 C67 1.498 . S
C310 C95 1.498 . S
C315 C221 1.498 . S
C320 C81 1.498 . S
C325 C112 1.493 . S
C330 C84 1.493 . S
C335 C193 1.498 . S
C340 C109 1.498 . S
C345 C123 1.498 . S
C350 C151 1.498 . S
C355 C210 1.493 . S
C360 C126 1.493 . S
C365 C154 1.494 . S
C370 C182 1.494 . S
C375 C207 1.498 . S
C380 C179 1.498 . S
C385 C75 1.459 . S
C390 C9 1.455 1_565 S
C395 C5 1.459 . S
C400 C79 1.455 . S
C405 C19 1.459 . S
C410 C65 1.455 . S
C415 C61 1.459 . S
C420 C23 1.455 1_565 S
C425 C103 1.459 . S
C430 C37 1.455 1_545 S
C435 C107 1.455 . S
C440 C33 1.459 . S
C445 C93 1.455 . S
C450 C47 1.459 . S
C455 C51 1.455 1_545 S
C460 C89 1.458 . S
C465 C187 1.458 . S
C470 C121 1.454 1_565 S
C475 C117 1.458 . S
C480 C191 1.454 . S
C485 C131 1.459 . S
C490 C177 1.455 . S
C495 C173 1.458 . S
C500 C135 1.455 1_565 S
C505 C215 1.459 . S
C510 C149 1.454 1_545 S
C515 C219 1.455 . S
C520 C145 1.458 . S
C525 C159 1.458 . S
C530 C205 1.455 . S
C535 C201 1.459 . S
C540 C163 1.454 1_545 S
