# Generated by pormake.
# Topology uob, (4)-cn, num edge types: 1
# Building blocks:
#     Node 0, Type 0, BuildingBlock: KOZSID_clean_sbu_0, # of connection points: 4
#     Node 1, Type 0, BuildingBlock: KOZSID_clean_sbu_0, # of connection points: 4
#     Node 2, Type 0, BuildingBlock: KOZSID_clean_sbu_0, # of connection points: 4
#     Node 3, Type 0, BuildingBlock: KOZSID_clean_sbu_0, # of connection points: 4
#     Node 4, Type 0, BuildingBlock: KOZSID_clean_sbu_0, # of connection points: 4
#     Node 5, Type 0, BuildingBlock: KOZSID_clean_sbu_0, # of connection points: 4
#     Node 6, Type 0, BuildingBlock: KOZSID_clean_sbu_0, # of connection points: 4
#     Node 7, Type 0, BuildingBlock: KOZSID_clean_sbu_0, # of connection points: 4
#     Node 8, Type 0, BuildingBlock: KOZSID_clean_sbu_0, # of connection points: 4
#     Node 9, Type 0, BuildingBlock: KOZSID_clean_sbu_0, # of connection points: 4
#     Node 10, Type 0, BuildingBlock: KOZSID_clean_sbu_0, # of connection points: 4
#     Node 11, Type 0, BuildingBlock: KOZSID_clean_sbu_0, # of connection points: 4
#     Node 12, Type 0, BuildingBlock: KOZSID_clean_sbu_0, # of connection points: 4
#     Node 13, Type 0, BuildingBlock: KOZSID_clean_sbu_0, # of connection points: 4
#     Node 14, Type 0, BuildingBlock: KOZSID_clean_sbu_0, # of connection points: 4
#     Node 15, Type 0, BuildingBlock: KOZSID_clean_sbu_0, # of connection points: 4
#     Edge 16, Type (0, 0), BuildingBlock: KIFKEQ_clean_linker_1, # of connection points: 2
#     Edge 17, Type (0, 0), BuildingBlock: KIFKEQ_clean_linker_1, # of connection points: 2
#     Edge 18, Type (0, 0), BuildingBlock: KIFKEQ_clean_linker_1, # of connection points: 2
#     Edge 19, Type (0, 0), BuildingBlock: KIFKEQ_clean_linker_1, # of connection points: 2
#     Edge 20, Type (0, 0), BuildingBlock: KIFKEQ_clean_linker_1, # of connection points: 2
#     Edge 21, Type (0, 0), BuildingBlock: KIFKEQ_clean_linker_1, # of connection points: 2
#     Edge 22, Type (0, 0), BuildingBlock: KIFKEQ_clean_linker_1, # of connection points: 2
#     Edge 23, Type (0, 0), BuildingBlock: KIFKEQ_clean_linker_1, # of connection points: 2
#     Edge 24, Type (0, 0), BuildingBlock: KIFKEQ_clean_linker_1, # of connection points: 2
#     Edge 25, Type (0, 0), BuildingBlock: KIFKEQ_clean_linker_1, # of connection points: 2
#     Edge 26, Type (0, 0), BuildingBlock: KIFKEQ_clean_linker_1, # of connection points: 2
#     Edge 27, Type (0, 0), BuildingBlock: KIFKEQ_clean_linker_1, # of connection points: 2
#     Edge 28, Type (0, 0), BuildingBlock: KIFKEQ_clean_linker_1, # of connection points: 2
#     Edge 29, Type (0, 0), BuildingBlock: KIFKEQ_clean_linker_1, # of connection points: 2
#     Edge 30, Type (0, 0), BuildingBlock: KIFKEQ_clean_linker_1, # of connection points: 2
#     Edge 31, Type (0, 0), BuildingBlock: KIFKEQ_clean_linker_1, # of connection points: 2
#     Edge 32, Type (0, 0), BuildingBlock: KIFKEQ_clean_linker_1, # of connection points: 2
#     Edge 33, Type (0, 0), BuildingBlock: KIFKEQ_clean_linker_1, # of connection points: 2
#     Edge 34, Type (0, 0), BuildingBlock: KIFKEQ_clean_linker_1, # of connection points: 2
#     Edge 35, Type (0, 0), BuildingBlock: KIFKEQ_clean_linker_1, # of connection points: 2
#     Edge 36, Type (0, 0), BuildingBlock: KIFKEQ_clean_linker_1, # of connection points: 2
#     Edge 37, Type (0, 0), BuildingBlock: KIFKEQ_clean_linker_1, # of connection points: 2
#     Edge 38, Type (0, 0), BuildingBlock: KIFKEQ_clean_linker_1, # of connection points: 2
#     Edge 39, Type (0, 0), BuildingBlock: KIFKEQ_clean_linker_1, # of connection points: 2
#     Edge 40, Type (0, 0), BuildingBlock: KIFKEQ_clean_linker_1, # of connection points: 2
#     Edge 41, Type (0, 0), BuildingBlock: KIFKEQ_clean_linker_1, # of connection points: 2
#     Edge 42, Type (0, 0), BuildingBlock: KIFKEQ_clean_linker_1, # of connection points: 2
#     Edge 43, Type (0, 0), BuildingBlock: KIFKEQ_clean_linker_1, # of connection points: 2
#     Edge 44, Type (0, 0), BuildingBlock: KIFKEQ_clean_linker_1, # of connection points: 2
#     Edge 45, Type (0, 0), BuildingBlock: KIFKEQ_clean_linker_1, # of connection points: 2
#     Edge 46, Type (0, 0), BuildingBlock: KIFKEQ_clean_linker_1, # of connection points: 2
#     Edge 47, Type (0, 0), BuildingBlock: KIFKEQ_clean_linker_1, # of connection points: 2
# Relax obj value: 0.100
# Max RMSD: 0.277
# Mean RMSD: 0.243
data_MOF--net-uob--node1-KOZSID_clean_sbu_0--edge1-KIFKEQ_clean_linker_1
_symmetry_space_group_name_H-M    P1
_symmetry_Int_Tables_number       1
_symmetry_cell_setting            triclinic
loop_
_symmetry_equiv_pos_as_xyz
'x, y, z'
_cell_length_a     56.032006
_cell_length_b     69.864369
_cell_length_c     34.573962
_cell_angle_alpha  90.036622
_cell_angle_beta   90.002044
_cell_angle_gamma 89.984975
loop_
_atom_site_label
_atom_site_type_symbol
_atom_site_fract_x
_atom_site_fract_y
_atom_site_fract_z
_atom_type_partial_charge
C0 C 0.19531 0.0876 0.33497 0.0
C1 C 0.21581 0.07646 0.33402 0.0
C2 C 0.20974 0.05968 0.31586 0.0
C3 C 0.18597 0.06151 0.30679 0.0
N4 N 0.17683 0.07842 0.31795 0.0
Co5 Co 0.14336 0.08686 0.31166 0.0
N6 N 0.13212 0.0601 0.30671 0.0
C7 C 0.14582 0.04483 0.29815 0.0
C8 C 0.13325 0.02799 0.29779 0.0
C9 C 0.11019 0.03302 0.30617 0.0
C10 C 0.1099 0.0528 0.31081 0.0
N11 N 0.10995 0.09532 0.30491 0.0
C12 C 0.08939 0.08512 0.30733 0.0
C13 C 0.06993 0.09666 0.2988 0.0
C14 C 0.0788 0.11459 0.29059 0.0
C15 C 0.10316 0.11306 0.29444 0.0
N16 N 0.15527 0.11342 0.31747 0.0
C17 C 0.14388 0.12935 0.30595 0.0
C18 C 0.15622 0.14568 0.31595 0.0
C19 C 0.17649 0.13948 0.33488 0.0
C20 C 0.17539 0.11968 0.33548 0.0
N21 N 0.14715 0.08858 0.2547 0.0
C22 C 0.1424 0.09948 0.17608 0.0
C23 C 0.16143 0.10625 0.19902 0.0
C24 C 0.16369 0.10042 0.23797 0.0
C25 C 0.12742 0.08567 0.19275 0.0
C26 C 0.12992 0.08061 0.23163 0.0
N27 N 0.13807 0.08585 0.36776 0.0
C28 C 0.11896 0.10063 0.42243 0.0
C29 C 0.12211 0.08416 0.44469 0.0
C30 C 0.13493 0.06883 0.42837 0.0
C31 C 0.14279 0.06997 0.38966 0.0
C32 C 0.12688 0.10115 0.38448 0.0
H33 H 0.15191 0.05786 0.37705 0.0
H34 H 0.12294 0.11386 0.36825 0.0
H35 H 0.17793 0.10644 0.25514 0.0
H36 H 0.11664 0.07116 0.2434 0.0
C37 C 0.17072 0.04643 0.29691 0.0
C38 C 0.19397 0.10692 0.35133 0.0
C39 C 0.08801 0.06432 0.31447 0.0
C40 C 0.11977 0.12828 0.29429 0.0
H41 H 0.23318 0.07996 0.34576 0.0
H42 H 0.22093 0.04718 0.3121 0.0
H43 H 0.14013 1.01368 0.2933 0.0
H44 H 0.09528 0.02323 0.308 0.0
H45 H 0.05133 0.09249 0.29817 0.0
H46 H 0.06862 0.1273 0.28373 0.0
H47 H 0.15054 0.16036 0.31201 0.0
H48 H 0.19034 0.14842 0.34707 0.0
H49 H 0.17386 0.11671 0.18778 0.0
H50 H 0.11311 0.07918 0.17632 0.0
H51 H 0.10992 0.11309 0.43404 0.0
H52 H 0.13809 0.05589 0.4448 0.0
C53 C 0.90266 0.64057 0.49528 0.0
C54 C 0.87953 0.63968 0.48108 0.0
C55 C 0.86477 0.63855 0.51272 0.0
C56 C 0.8797 0.63889 0.54426 0.0
N57 N 0.90282 0.6402 0.53431 0.0
Co58 Co 0.93022 0.64134 0.57007 0.0
N59 N 0.91157 0.62888 0.61145 0.0
C60 C 0.88756 0.62837 0.61362 0.0
C61 C 0.87945 0.61941 0.6463 0.0
C62 C 0.89958 0.61414 0.66604 0.0
C63 C 0.91906 0.62017 0.64413 0.0
N64 N 0.95762 0.64249 0.6059 0.0
C65 C 0.96141 0.6328 0.63935 0.0
C66 C 0.98303 0.63817 0.65565 0.0
C67 C 0.99277 0.65183 0.63167 0.0
C68 C 0.97666 0.65406 0.60201 0.0
N69 N 0.94814 0.65391 0.52771 0.0
C70 C 0.96802 0.66446 0.53183 0.0
C71 C 0.97732 0.6699 0.49664 0.0
C72 C 0.96233 0.66221 0.46905 0.0
C73 C 0.94457 0.65252 0.48891 0.0
N74 N 0.91979 0.66672 0.58972 0.0
C75 C 0.91339 0.704 0.62043 0.0
C76 C 0.91095 0.70042 0.5805 0.0
C77 C 0.9143 0.6817 0.56572 0.0
C78 C 0.91771 0.68827 0.64447 0.0
C79 C 0.92067 0.66999 0.6288 0.0
N80 N 0.94194 0.61619 0.55217 0.0
C81 C 0.97636 0.59698 0.53593 0.0
C82 C 0.96344 0.58008 0.54115 0.0
C83 C 0.93902 0.58166 0.5502 0.0
C84 C 0.92851 0.59988 0.55493 0.0
C85 C 0.96547 0.61467 0.54186 0.0
H86 H 0.90983 0.60074 0.56246 0.0
H87 H 0.97672 0.62707 0.54013 0.0
H88 H 0.91328 0.67946 0.53483 0.0
H89 H 0.92472 0.65861 0.64867 0.0
C90 C 0.87343 0.6339 0.58209 0.0
C91 C 0.92403 0.64251 0.47126 0.0
C92 C 0.94401 0.61971 0.65761 0.0
C93 C 0.98025 0.66445 0.56748 0.0
H94 H 0.87399 0.6397 0.45109 0.0
H95 H 0.8456 0.63665 0.51259 0.0
H96 H 0.86112 0.61666 0.65446 0.0
H97 H 0.89972 0.60716 0.69394 0.0
H98 H 0.99083 0.63291 0.68223 0.0
H99 H 1.00988 0.65882 0.63491 0.0
H100 H 0.99395 0.67735 0.49147 0.0
H101 H 0.96456 0.66331 0.43808 0.0
H102 H 0.90746 0.71207 0.56067 0.0
H103 H 0.9192 0.69009 0.67549 0.0
H104 H 0.99527 0.59658 0.52945 0.0
H105 H 0.92823 0.56896 0.55416 0.0
C106 C 0.33476 0.45596 0.83043 0.0
C107 C 0.31438 0.46722 0.83187 0.0
C108 C 0.32046 0.48464 0.81634 0.0
C109 C 0.34412 0.48303 0.80633 0.0
N110 N 0.35314 0.46566 0.8145 0.0
Co111 Co 0.38634 0.45724 0.80565 0.0
N112 N 0.39791 0.48395 0.80569 0.0
C113 C 0.38446 0.49961 0.79929 0.0
C114 C 0.39748 0.51623 0.79997 0.0
C115 C 0.42055 0.51063 0.8069 0.0
C116 C 0.42032 0.49079 0.81019 0.0
N117 N 0.41952 0.44889 0.79568 0.0
C118 C 0.44027 0.45866 0.80011 0.0
C119 C 0.45947 0.44733 0.78914 0.0
C120 C 0.45018 0.43009 0.77695 0.0
C121 C 0.42586 0.43173 0.78118 0.0
N122 N 0.37417 0.43066 0.80693 0.0
C123 C 0.38518 0.41522 0.79219 0.0
C124 C 0.37282 0.39861 0.79998 0.0
C125 C 0.35296 0.40412 0.82089 0.0
C126 C 0.3543 0.42382 0.82478 0.0
N127 N 0.38178 0.4582 0.74906 0.0
C128 C 0.38659 0.44875 0.67009 0.0
C129 C 0.36692 0.44228 0.69185 0.0
C130 C 0.3647 0.44736 0.73114 0.0
C131 C 0.40225 0.46162 0.68808 0.0
C132 C 0.3994 0.46629 0.72703 0.0
N133 N 0.39213 0.45537 0.86131 0.0
C134 C 0.41091 0.43738 0.91187 0.0
C135 C 0.40223 0.4499 0.94003 0.0
C136 C 0.38883 0.46585 0.92766 0.0
C137 C 0.38413 0.46842 0.88786 0.0
C138 C 0.40515 0.44001 0.8735 0.0
H139 H 0.37392 0.48071 0.87857 0.0
H140 H 0.4114 0.42932 0.85371 0.0
H141 H 0.35013 0.44138 0.74766 0.0
H142 H 0.41303 0.47503 0.73996 0.0
C143 C 0.35949 0.49832 0.79829 0.0
C144 C 0.33615 0.43606 0.84355 0.0
C145 C 0.44192 0.47886 0.81258 0.0
C146 C 0.40903 0.41667 0.77924 0.0
H147 H 0.29709 0.46335 0.84344 0.0
H148 H 0.30937 0.4973 0.81488 0.0
H149 H 0.39095 0.53072 0.79669 0.0
H150 H 0.43583 0.52007 0.80834 0.0
H151 H 0.47819 0.45108 0.78988 0.0
H152 H 0.46009 0.41759 0.76774 0.0
H153 H 0.37821 0.38411 0.79321 0.0
H154 H 0.33921 0.39479 0.83216 0.0
H155 H 0.35378 0.43283 0.67912 0.0
H156 H 0.4178 0.4671 0.67319 0.0
H157 H 0.42217 0.42531 0.91914 0.0
H158 H 0.38181 0.47602 0.94835 0.0
C159 C 0.62492 0.90084 0.99271 0.0
C160 C 0.64764 0.90319 0.97733 0.0
C161 C 0.6629 0.90514 1.00806 0.0
C162 C 0.64872 0.90402 0.04033 0.0
N163 N 0.62551 0.9015 0.03179 0.0
Co164 Co 0.59903 0.89957 0.06946 0.0
N165 N 0.61805 0.91275 0.10962 0.0
C166 C 0.64201 0.91437 0.11005 0.0
C167 C 0.65042 0.92378 0.14202 0.0
C168 C 0.63055 0.92819 0.16321 0.0
C169 C 0.61093 0.92121 0.14283 0.0
N170 N 0.57276 0.89736 0.10735 0.0
C171 C 0.56947 0.90668 0.14136 0.0
C172 C 0.54872 0.90042 0.15926 0.0
C173 C 0.53905 0.88655 0.13573 0.0
C174 C 0.5543 0.8851 0.10474 0.0
N175 N 0.58042 0.88669 0.02827 0.0
C176 C 0.56115 0.87556 0.03363 0.0
C177 C 0.5516 0.86932 0.99917 0.0
C178 C 0.56583 0.87705 0.97063 0.0
C179 C 0.58327 0.88765 0.98929 0.0
N180 N 0.61107 0.87443 0.08799 0.0
C181 C 0.61828 0.83711 0.11782 0.0
C182 C 0.61731 0.84046 0.07773 0.0
C183 C 0.6142 0.85923 0.06341 0.0
C184 C 0.61684 0.853 0.14233 0.0
C185 C 0.61301 0.87131 0.12705 0.0
N186 N 0.58576 0.92434 0.05249 0.0
C187 C 0.55026 0.94289 0.03983 0.0
C188 C 0.56331 0.95998 0.03878 0.0
C189 C 0.58827 0.95864 0.0436 0.0
C190 C 0.59914 0.94069 0.0503 0.0
C191 C 0.56168 0.92548 0.04639 0.0
H192 H 0.61821 0.94008 0.05473 0.0
H193 H 0.55061 0.91295 0.04809 0.0
H194 H 0.61329 0.86129 0.03249 0.0
H195 H 0.61033 0.88276 0.1474 0.0
C196 C 0.65555 0.90941 0.07761 0.0
C197 C 0.60328 0.89742 0.96987 0.0
C198 C 0.58649 0.92043 0.15844 0.0
C199 C 0.55009 0.87487 0.07021 0.0
H200 H 0.65277 0.90371 0.94722 0.0
H201 H 0.68183 0.90817 1.00688 0.0
H202 H 0.66874 0.92737 0.14877 0.0
H203 H 0.63073 0.93522 0.19108 0.0
H204 H 0.54144 0.90527 0.18655 0.0
H205 H 0.52245 0.87893 0.14014 0.0
H206 H 0.53552 0.86097 0.99509 0.0
H207 H 0.56365 0.87517 0.93976 0.0
H208 H 0.61863 0.82863 0.05758 0.0
H209 H 0.61735 0.85119 0.17344 0.0
H210 H 0.53101 0.94287 0.03725 0.0
H211 H 0.59933 0.97132 0.04258 0.0
C212 C 0.19717 0.45378 0.04033 0.0
C213 C 0.21765 0.46489 0.04218 0.0
C214 C 0.21127 0.48167 0.06012 0.0
C215 C 0.18735 0.47986 0.06816 0.0
N216 N 0.17843 0.46295 0.05661 0.0
Co217 Co 0.14484 0.45455 0.06088 0.0
N218 N 0.13349 0.4813 0.06497 0.0
C219 C 0.14702 0.49658 0.07424 0.0
C220 C 0.13448 0.51343 0.07374 0.0
C221 C 0.11161 0.5084 0.06407 0.0
C222 C 0.11138 0.48861 0.05961 0.0
N223 N 0.11129 0.44608 0.06539 0.0
C224 C 0.09078 0.45627 0.06164 0.0
C225 C 0.07115 0.44472 0.069 0.0
C226 C 0.07984 0.42681 0.07787 0.0
C227 C 0.10426 0.42835 0.07558 0.0
N228 N 0.1569 0.42799 0.05623 0.0
C229 C 0.1453 0.41209 0.06726 0.0
C230 C 0.1578 0.39575 0.05779 0.0
C231 C 0.17837 0.40193 0.03968 0.0
C232 C 0.17726 0.42173 0.03901 0.0
N233 N 0.1473 0.45301 0.11791 0.0
C234 C 0.14258 0.44332 0.19707 0.0
C235 C 0.16235 0.43711 0.17515 0.0
C236 C 0.16447 0.44223 0.1358 0.0
C237 C 0.12624 0.45551 0.1787 0.0
C238 C 0.129 0.46024 0.13972 0.0
N239 N 0.1411 0.45539 1.00454 0.0
C240 C 0.12607 0.43959 0.94778 0.0
C241 C 0.13146 0.45547 0.92507 0.0
C242 C 0.14198 0.47148 0.94275 0.0
C243 C 0.14695 0.47106 0.98273 0.0
C244 C 0.13079 0.43989 0.98709 0.0
H245 H 0.15515 0.48338 0.99608 0.0
H246 H 0.12559 0.42752 1.00343 0.0
H247 H 0.17937 0.4367 0.1194 0.0
H248 H 0.11519 0.4688 0.12678 0.0
C249 C 0.17189 0.49496 0.07701 0.0
C250 C 0.19596 0.43451 0.02368 0.0
C251 C 0.08953 0.47712 0.0549 0.0
C252 C 0.12091 0.41317 0.0772 0.0
H253 H 0.23517 0.4614 0.03109 0.0
H254 H 0.22238 0.49418 0.06428 0.0
H255 H 0.14127 0.52774 0.07852 0.0
H256 H 0.09677 0.51822 0.06126 0.0
H257 H 0.05254 0.44889 0.06857 0.0
H258 H 0.06953 0.41411 0.08428 0.0
H259 H 0.15202 0.38108 0.06133 0.0
H260 H 0.19238 0.39298 0.02795 0.0
H261 H 0.17587 0.42806 0.18799 0.0
H262 H 0.1105 0.46065 0.19359 0.0
H263 H 0.11771 0.42703 0.9353 0.0
H264 H 0.14643 0.48404 0.9259 0.0
C265 C 0.62561 0.64179 0.37458 0.0
C266 C 0.64854 0.64123 0.38967 0.0
C267 C 0.66375 0.63991 0.35864 0.0
C268 C 0.64926 0.63982 0.32656 0.0
N269 N 0.62599 0.64105 0.3356 0.0
Co270 Co 0.59909 0.64168 0.29883 0.0
N271 N 0.61847 0.62892 0.25863 0.0
C272 C 0.64251 0.62836 0.2575 0.0
C273 C 0.65113 0.61896 0.22564 0.0
C274 C 0.63131 0.61346 0.20532 0.0
C275 C 0.6115 0.61982 0.22604 0.0
N276 N 0.57229 0.64252 0.26185 0.0
C277 C 0.56919 0.63274 0.22833 0.0
C278 C 0.54784 0.63798 0.21093 0.0
C279 C 0.53757 0.65166 0.23431 0.0
C280 C 0.55311 0.65403 0.26471 0.0
N281 N 0.58031 0.65428 0.34022 0.0
C282 C 0.56031 0.6646 0.3352 0.0
C283 C 0.55043 0.67012 0.36994 0.0
C284 C 0.56519 0.66275 0.39821 0.0
C285 C 0.58335 0.65314 0.37916 0.0
N286 N 0.60949 0.66707 0.27896 0.0
C287 C 0.61536 0.70423 0.24647 0.0
C288 C 0.61481 0.70134 0.28692 0.0
C289 C 0.61222 0.68271 0.30249 0.0
C290 C 0.61447 0.68772 0.22331 0.0
C291 C 0.61113 0.66965 0.23978 0.0
N292 N 0.58743 0.61656 0.31694 0.0
C293 C 0.55316 0.59705 0.33258 0.0
C294 C 0.56662 0.5803 0.32935 0.0
C295 C 0.59116 0.58213 0.32144 0.0
C296 C 0.6013 0.60042 0.316 0.0
C297 C 0.56372 0.61482 0.32594 0.0
H298 H 0.62011 0.60146 0.3095 0.0
H299 H 0.55215 0.62707 0.32626 0.0
H300 H 0.61144 0.6811 0.33354 0.0
H301 H 0.60889 0.65787 0.22012 0.0
C302 C 0.65613 0.63436 0.28925 0.0
C303 C 0.60386 0.64355 0.39771 0.0
C304 C 0.58684 0.61949 0.21122 0.0
C305 C 0.54873 0.66443 0.299 0.0
H306 H 0.65364 0.64151 0.41986 0.0
H307 H 0.68293 0.63812 0.35956 0.0
H308 H 0.66958 0.61611 0.21838 0.0
H309 H 0.63161 0.60615 0.17774 0.0
H310 H 0.54053 0.63258 0.18409 0.0
H311 H 0.52046 0.65856 0.2302 0.0
H312 H 0.53365 0.67748 0.37436 0.0
H313 H 0.5626 0.66404 0.42909 0.0
H314 H 0.61554 0.71334 0.30664 0.0
H315 H 0.61587 0.68855 0.19217 0.0
H316 H 0.53415 0.59643 0.33816 0.0
H317 H 0.60233 0.56954 0.31899 0.0
C318 C 0.33356 0.08502 0.54179 0.0
C319 C 0.31302 0.07397 0.54019 0.0
C320 C 0.31891 0.05637 0.55505 0.0
C321 C 0.34262 0.05768 0.56486 0.0
N322 N 0.35187 0.07503 0.5573 0.0
Co323 Co 0.38529 0.08306 0.56592 0.0
N324 N 0.39649 0.05619 0.56541 0.0
C325 C 0.38272 0.04058 0.57023 0.0
C326 C 0.39533 0.0238 0.56761 0.0
C327 C 0.4185 0.02921 0.56123 0.0
C328 C 0.4188 0.04911 0.56068 0.0
N329 N 0.41864 0.09106 0.57571 0.0
C330 C 0.43924 0.08101 0.57211 0.0
C331 C 0.45852 0.09197 0.58411 0.0
C332 C 0.44948 0.10938 0.59578 0.0
C333 C 0.42522 0.10813 0.59044 0.0
N334 N 0.37353 0.1098 0.56494 0.0
C335 C 0.38484 0.1251 0.57963 0.0
C336 C 0.37272 0.14186 0.57211 0.0
C337 C 0.35269 0.1366 0.55139 0.0
C338 C 0.3537 0.1169 0.54736 0.0
N339 N 0.38093 0.08201 0.62256 0.0
C340 C 0.3867 0.09156 0.70132 0.0
C341 C 0.36703 0.09834 0.67994 0.0
C342 C 0.36431 0.09321 0.64076 0.0
C343 C 0.40175 0.07827 0.68317 0.0
C344 C 0.39841 0.07356 0.64433 0.0
N345 N 0.39088 0.08498 0.51022 0.0
C346 C 0.40955 0.10288 0.45942 0.0
C347 C 0.40037 0.09054 0.43136 0.0
C348 C 0.38679 0.07473 0.44387 0.0
C349 C 0.38239 0.07212 0.48372 0.0
C350 C 0.40413 0.10019 0.49793 0.0
H351 H 0.37199 0.05996 0.49308 0.0
H352 H 0.41077 0.11073 0.51773 0.0
H353 H 0.34979 0.09944 0.62451 0.0
H354 H 0.41163 0.06447 0.63124 0.0
C355 C 0.35781 0.04214 0.57155 0.0
C356 C 0.33523 0.10492 0.5288 0.0
C357 C 0.44075 0.0607 0.5606 0.0
C358 C 0.40866 0.12336 0.59251 0.0
H359 H 0.29577 0.07805 0.52874 0.0
H360 H 0.30768 0.04378 0.55599 0.0
H361 H 0.38843 1.00934 0.56908 0.0
H362 H 0.43349 1.01956 0.55818 0.0
H363 H 0.4771 0.08776 0.58472 0.0
H364 H 0.45953 0.12165 0.60578 0.0
H365 H 0.37837 0.15628 0.57896 0.0
H366 H 0.33904 0.1461 0.54037 0.0
H367 H 0.3543 0.1081 0.69283 0.0
H368 H 0.41723 0.0725 0.69779 0.0
H369 H 0.42092 0.11485 0.45193 0.0
H370 H 0.37937 0.06471 0.42324 0.0
C371 C 0.9022 0.90014 0.87408 0.0
C372 C 0.87914 0.90236 0.88814 0.0
C373 C 0.86452 0.90409 0.85653 0.0
C374 C 0.8794 0.90297 0.82506 0.0
N375 N 0.90242 0.90066 0.83496 0.0
Co376 Co 0.92976 0.89901 0.79888 0.0
N377 N 0.91147 0.91196 0.75758 0.0
C378 C 0.8875 0.91313 0.75559 0.0
C379 C 0.87964 0.92233 0.72303 0.0
C380 C 0.8999 0.92708 0.70314 0.0
C381 C 0.91919 0.92051 0.72485 0.0
N382 N 0.95707 0.89735 0.76285 0.0
C383 C 0.96109 0.90695 0.72937 0.0
C384 C 0.98249 0.90114 0.71291 0.0
C385 C 0.99185 0.88728 0.73681 0.0
C386 C 0.97575 0.88538 0.76656 0.0
N387 N 0.94741 0.88602 0.84097 0.0
C388 C 0.96687 0.87499 0.8366 0.0
C389 C 0.97571 0.86876 0.87157 0.0
C390 C 0.96081 0.87641 0.89934 0.0
C391 C 0.94373 0.88697 0.87976 0.0
N392 N 0.91851 0.87388 0.77915 0.0
C393 C 0.91049 0.83675 0.74816 0.0
C394 C 0.90894 0.84033 0.78829 0.0
C395 C 0.91289 0.85895 0.80312 0.0
C396 C 0.91525 0.8525 0.72426 0.0
C397 C 0.91901 0.87067 0.74005 0.0
N398 N 0.94225 0.92388 0.81689 0.0
C399 C 0.97721 0.9425 0.83287 0.0
C400 C 0.96464 0.95962 0.82809 0.0
C401 C 0.94014 0.95843 0.81943 0.0
C402 C 0.92919 0.94041 0.81456 0.0
C403 C 0.96587 0.92499 0.8269 0.0
H404 H 0.91046 0.93986 0.8073 0.0
H405 H 0.9768 0.91238 0.82838 0.0
H406 H 0.91213 0.86114 0.83404 0.0
H407 H 0.92345 0.88197 0.72023 0.0
C408 C 0.87332 0.90814 0.7873 0.0
C409 C 0.92342 0.89687 0.8981 0.0
C410 C 0.94408 0.92038 0.71115 0.0
C411 C 0.97905 0.87482 0.80093 0.0
H412 H 0.87337 0.90292 0.91795 0.0
H413 H 0.84554 0.90696 0.85662 0.0
H414 H 0.8614 0.92562 0.7151 0.0
H415 H 0.9002 0.9341 0.67529 0.0
H416 H 0.99038 0.90623 0.68627 0.0
H417 H 1.0087 0.8799 0.7334 0.0
H418 H 0.99183 0.86059 0.87653 0.0
H419 H 0.96241 0.87459 0.93031 0.0
H420 H 0.90493 0.82885 0.80824 0.0
H421 H 0.91716 0.85081 0.69329 0.0
H422 H 0.99616 0.94259 0.83908 0.0
H423 H 0.92961 0.97131 0.81586 0.0
C424 C 0.69514 0.58541 0.82645 0.0
C425 C 0.7152 0.57388 0.82325 0.0
C426 C 0.70804 0.55751 0.80451 0.0
C427 C 0.68408 0.55994 0.7974 0.0
N428 N 0.6759 0.57685 0.81036 0.0
Co429 Co 0.64259 0.586 0.80783 0.0
N430 N 0.63035 0.55958 0.80301 0.0
C431 C 0.64306 0.54431 0.79109 0.0
C432 C 0.6297 0.52788 0.78937 0.0
C433 C 0.60718 0.53322 0.80058 0.0
C434 C 0.60806 0.55271 0.80868 0.0
N435 N 0.60928 0.59521 0.80513 0.0
C436 C 0.58858 0.58544 0.81019 0.0
C437 C 0.56917 0.59753 0.80518 0.0
C438 C 0.57821 0.6153 0.79609 0.0
C439 C 0.60261 0.61318 0.79615 0.0
N440 N 0.65555 0.61223 0.81301 0.0
C441 C 0.64431 0.62848 0.80308 0.0
C442 C 0.65748 0.64445 0.81269 0.0
C443 C 0.6781 0.63765 0.82972 0.0
C444 C 0.67635 0.61788 0.82966 0.0
N445 N 0.64421 0.58804 0.75083 0.0
C446 C 0.63921 0.59773 0.67181 0.0
C447 C 0.65936 0.60353 0.69323 0.0
C448 C 0.66162 0.59839 0.73255 0.0
C449 C 0.62248 0.5861 0.69061 0.0
C450 C 0.62534 0.58139 0.72955 0.0
N451 N 0.63972 0.58461 0.86422 0.0
C452 C 0.62621 0.60006 0.92232 0.0
C453 C 0.63129 0.58375 0.94399 0.0
C454 C 0.64088 0.5677 0.92508 0.0
C455 C 0.64527 0.56852 0.88497 0.0
C456 C 0.63032 0.60014 0.88284 0.0
H457 H 0.65275 0.55616 0.87064 0.0
H458 H 0.62535 0.61284 0.86733 0.0
H459 H 0.6769 0.6035 0.74859 0.0
H460 H 0.61126 0.57328 0.74286 0.0
C461 C 0.66797 0.54539 0.78756 0.0
C462 C 0.6948 0.60455 0.84385 0.0
C463 C 0.58699 0.56459 0.81707 0.0
C464 C 0.61971 0.62802 0.79431 0.0
H465 H 0.733 0.57686 0.8338 0.0
H466 H 0.71869 0.54487 0.79905 0.0
H467 H 0.6357 0.51363 0.78184 0.0
H468 H 0.5918 0.52388 0.80174 0.0
H469 H 0.55046 0.59389 0.8076 0.0
H470 H 0.56818 0.62833 0.79137 0.0
H471 H 0.65211 0.65927 0.81003 0.0
H472 H 0.69255 0.64618 0.84128 0.0
H473 H 0.67311 0.61221 0.67999 0.0
H474 H 0.60644 0.58136 0.67603 0.0
H475 H 0.61852 0.61265 0.93576 0.0
H476 H 0.64504 0.55481 0.94108 0.0
C477 C 0.40554 0.14333 0.98798 0.0
C478 C 0.38305 0.14214 0.97139 0.0
C479 C 0.36718 0.14022 1.00137 0.0
C480 C 0.38089 0.14042 0.03434 0.0
N481 N 0.40428 0.14247 0.02684 0.0
Co482 Co 0.43029 0.14404 0.06518 0.0
N483 N 0.41064 0.13066 0.10416 0.0
C484 C 0.38678 0.12827 0.10298 0.0
C485 C 0.37831 0.11736 0.13291 0.0
C486 C 0.398 0.11289 0.15453 0.0
C487 C 0.41751 0.12157 0.13676 0.0
N488 N 0.45602 0.14618 0.10396 0.0
C489 C 0.45837 0.1374 0.13869 0.0
C490 C 0.47854 0.144 0.15781 0.0
C491 C 0.48893 0.15746 0.13417 0.0
C492 C 0.47456 0.15841 0.102 0.0
N493 N 0.44962 0.15675 0.02464 0.0
C494 C 0.46913 0.16753 0.03039 0.0
C495 C 0.47971 0.17281 0.99604 0.0
C496 C 0.46594 0.16474 0.96722 0.0
C497 C 0.44766 0.155 0.98562 0.0
N498 N 0.41819 0.16922 0.08367 0.0
C499 C 0.41068 0.20627 0.11473 0.0
C500 C 0.41326 0.20343 0.07467 0.0
C501 C 0.41646 0.18478 0.05967 0.0
C502 C 0.41073 0.19008 0.13844 0.0
C503 C 0.41476 0.17191 0.12261 0.0
N504 N 0.44357 0.11921 0.04846 0.0
C505 C 0.47908 0.10004 0.04049 0.0
C506 C 0.46557 0.0833 0.03873 0.0
C507 C 0.44057 0.08494 0.03957 0.0
C508 C 0.42988 0.10308 0.04461 0.0
C509 C 0.46784 0.11771 0.04485 0.0
H510 H 0.41069 0.104 0.04689 0.0
H511 H 0.4791 0.1301 0.0471 0.0
H512 H 0.41853 0.18309 0.0288 0.0
H513 H 0.41629 0.16021 0.14258 0.0
C514 C 0.37351 0.13403 0.0707 0.0
C515 C 0.4278 0.14495 0.96635 0.0
C516 C 0.44085 0.12409 0.15563 0.0
C517 C 0.47957 0.16836 0.06743 0.0
H518 H 0.37871 0.14217 0.94089 0.0
H519 H 0.34818 0.13763 0.99917 0.0
H520 H 0.3601 0.11285 0.13801 0.0
H521 H 0.39783 0.10485 0.18127 0.0
H522 H 0.4849 0.13968 0.18605 0.0
H523 H 0.50531 0.16524 0.13944 0.0
H524 H 0.49628 0.18055 0.99234 0.0
H525 H 0.46914 0.16574 0.93645 0.0
H526 H 0.41307 0.21555 0.05515 0.0
H527 H 0.40889 0.19154 0.1695 0.0
H528 H 0.4984 0.09945 0.03942 0.0
H529 H 0.42946 0.07227 0.03804 0.0
C530 C 0.83492 0.95354 0.32929 0.0
C531 C 0.81409 0.96424 0.32747 0.0
C532 C 0.81987 0.98106 0.30924 0.0
C533 C 0.84381 0.97969 0.30102 0.0
N534 N 0.85332 0.96301 0.31274 0.0
Co535 Co 0.88713 0.95524 0.30798 0.0
N536 N 0.8976 0.9822 0.30327 0.0
C537 C 0.88355 0.99718 0.29412 0.0
C538 C 0.89557 1.01427 0.29422 0.0
C539 C 0.91866 1.00972 0.3035 0.0
C540 C 0.91953 0.98996 0.30813 0.0
N541 N 0.92088 0.94743 0.30269 0.0
C542 C 0.94108 0.95804 0.3057 0.0
C543 C 0.961 0.94686 0.29793 0.0
C544 C 0.95279 0.92875 0.28959 0.0
C545 C 0.92836 0.9298 0.29258 0.0
N546 N 0.87597 0.92847 0.31363 0.0
C547 C 0.88802 0.91273 0.30283 0.0
C548 C 0.8761 0.89621 0.31286 0.0
C549 C 0.85543 0.9021 0.33109 0.0
C550 C 0.85589 0.92191 0.33124 0.0
N551 N 0.88423 0.95328 0.251 0.0
C552 C 0.89009 0.94212 0.1728 0.0
C553 C 0.87094 0.93519 0.19525 0.0
C554 C 0.86812 0.94118 0.23397 0.0
C555 C 0.90461 0.9562 0.18966 0.0
C556 C 0.90156 0.9614 0.22839 0.0
N557 N 0.89131 0.95645 0.36423 0.0
C558 C 0.90714 0.94117 0.42097 0.0
C559 C 0.90068 0.95675 0.4438 0.0
C560 C 0.88934 0.97241 0.42615 0.0
C561 C 0.88456 0.97189 0.3861 0.0
C562 C 0.90252 0.94135 0.38163 0.0
H563 H 0.87568 0.98391 0.37277 0.0
H564 H 0.90837 0.92917 0.36527 0.0
H565 H 0.85379 0.93505 0.2508 0.0
H566 H 0.91446 0.9711 0.24048 0.0
C567 C 0.85873 0.99507 0.29176 0.0
C568 C 0.83677 0.9344 0.34629 0.0
C569 C 0.94175 0.9789 0.3125 0.0
C570 C 0.91223 0.91425 0.292 0.0
H571 H 0.79671 0.96046 0.33876 0.0
H572 H 0.80836 0.99333 0.305 0.0
H573 H 0.88831 0.02843 0.28942 0.0
H574 H 0.93321 1.01983 0.30592 0.0
H575 H 0.97947 0.9514 0.29785 0.0
H576 H 0.96345 0.91622 0.28317 0.0
H577 H 0.8823 0.88163 0.30948 0.0
H578 H 0.84175 0.89294 0.34313 0.0
H579 H 0.85886 0.92451 0.18388 0.0
H580 H 0.91896 0.96282 0.17356 0.0
H581 H 0.91612 0.92889 0.43345 0.0
H582 H 0.88405 0.98474 0.4431 0.0
C583 C 0.12905 0.39979 0.49573 0.0
C584 C 0.15212 0.40134 0.48152 0.0
C585 C 0.16681 0.40306 0.51312 0.0
C586 C 0.1519 0.40239 0.54465 0.0
N587 N 0.12886 0.40032 0.53475 0.0
Co588 Co 0.10158 0.39831 0.57061 0.0
N589 N 0.11962 0.41145 0.6119 0.0
C590 C 0.14359 0.41279 0.61395 0.0
C591 C 0.15129 0.42205 0.64657 0.0
C592 C 0.13093 0.42663 0.66641 0.0
C593 C 0.11174 0.41991 0.64463 0.0
N594 N 0.07432 0.39626 0.60655 0.0
C595 C 0.07009 0.40581 0.64005 0.0
C596 C 0.04878 0.39974 0.65641 0.0
C597 C 0.0397 0.38579 0.63241 0.0
C598 C 0.05587 0.38409 0.60269 0.0
N599 N 0.08428 0.38509 0.5283 0.0
C600 C 0.06496 0.37389 0.5325 0.0
C601 C 0.05592 0.36808 0.49737 0.0
C602 C 0.0705 0.37618 0.46971 0.0
C603 C 0.08777 0.38649 0.48948 0.0
N604 N 0.11333 0.3733 0.59027 0.0
C605 C 0.12188 0.33626 0.62129 0.0
C606 C 0.12326 0.3398 0.58114 0.0
C607 C 0.11906 0.35838 0.56629 0.0
C608 C 0.11701 0.352 0.64519 0.0
C609 C 0.11297 0.37013 0.62938 0.0
N610 N 0.08849 0.42305 0.55281 0.0
C611 C 0.05275 0.44089 0.53796 0.0
C612 C 0.06431 0.45832 0.54467 0.0
C613 C 0.08901 0.45771 0.55237 0.0
C614 C 0.10081 0.43991 0.556 0.0
C615 C 0.0649 0.42366 0.54255 0.0
H616 H 0.11955 0.43979 0.56332 0.0
H617 H 0.05451 0.41082 0.53993 0.0
H618 H 0.11971 0.36053 0.53535 0.0
H619 H 0.1084 0.3814 0.64922 0.0
C620 C 0.15795 0.40767 0.58242 0.0
C621 C 0.10781 0.39707 0.4717 0.0
C622 C 0.08684 0.41945 0.65833 0.0
C623 C 0.05278 0.37356 0.56819 0.0
H624 H 0.15767 0.40135 0.45153 0.0
H625 H 0.18588 0.40554 0.51296 0.0
H626 H 0.16947 0.42542 0.65465 0.0
H627 H 0.1305 0.43361 0.69433 0.0
H628 H 0.04076 0.40475 0.68304 0.0
H629 H 0.02296 0.37824 0.63571 0.0
H630 H 0.03969 0.36006 0.49228 0.0
H631 H 0.06831 0.37493 0.43875 0.0
H632 H 0.12733 0.32832 0.56119 0.0
H633 H 0.11522 0.35033 0.67617 0.0
H634 H 0.034 0.4404 0.53045 0.0
H635 H 0.09894 0.47077 0.55734 0.0
C636 C 0.69658 0.95361 0.54138 0.0
C637 C 0.71715 0.9646 0.54351 0.0
C638 C 0.71087 0.98137 0.56158 0.0
C639 C 0.68692 0.97968 0.5694 0.0
N640 N 0.67787 0.96284 0.5576 0.0
Co641 Co 0.64418 0.95464 0.56163 0.0
N642 N 0.63308 0.98148 0.56605 0.0
C643 C 0.64675 0.99665 0.57545 0.0
C644 C 0.63431 1.01356 0.57539 0.0
C645 C 0.61137 1.00868 0.56587 0.0
C646 C 0.611 0.98892 0.56098 0.0
N647 N 0.61056 0.94636 0.56622 0.0
C648 C 0.59015 0.95671 0.56309 0.0
C649 C 0.57043 0.94526 0.57052 0.0
C650 C 0.57898 0.92725 0.57882 0.0
C651 C 0.60339 0.92863 0.57613 0.0
N652 N 0.65594 0.92802 0.5562 0.0
C653 C 0.64415 0.91211 0.5667 0.0
C654 C 0.65648 0.89575 0.5569 0.0
C655 C 0.67717 0.9019 0.53913 0.0
C656 C 0.67629 0.92171 0.53899 0.0
N657 N 0.64659 0.95277 0.61866 0.0
C658 C 0.63971 0.94157 0.69654 0.0
C659 C 0.65913 0.93461 0.67471 0.0
C660 C 0.66248 0.94064 0.63615 0.0
C661 C 0.62555 0.95577 0.67937 0.0
C662 C 0.62905 0.96095 0.64079 0.0
N663 N 0.64047 0.95581 0.50535 0.0
C664 C 0.62529 0.94047 0.4482 0.0
C665 C 0.6314 0.95627 0.42577 0.0
C666 C 0.6423 0.97202 0.44377 0.0
C667 C 0.64695 0.9714 0.48382 0.0
C668 C 0.62975 0.94058 0.48759 0.0
H669 H 0.65549 0.98352 0.49743 0.0
H670 H 0.6241 0.92826 0.50371 0.0
H671 H 0.67701 0.93451 0.61978 0.0
H672 H 0.61629 0.97066 0.62842 0.0
C673 C 0.67159 0.99486 0.5783 0.0
C674 C 0.69526 0.93442 0.52436 0.0
C675 C 0.58905 0.97756 0.55649 0.0
C676 C 0.61984 0.9133 0.57701 0.0
H677 H 0.73468 0.96107 0.53248 0.0
H678 H 0.72208 0.99381 0.56594 0.0
H679 H 0.64121 0.02781 0.5805 0.0
H680 H 0.59655 1.01854 0.56358 0.0
H681 H 0.55187 0.94955 0.57042 0.0
H682 H 0.56856 0.91458 0.58507 0.0
H683 H 0.65056 0.88109 0.56013 0.0
H684 H 0.69114 0.89293 0.52735 0.0
H685 H 0.67099 0.92385 0.6864 0.0
H686 H 0.61106 0.96247 0.69504 0.0
H687 H 0.61665 0.92811 0.43539 0.0
H688 H 0.64731 0.9845 0.42711 0.0
C689 C 0.13132 0.13972 0.87428 0.0
C690 C 0.15457 0.1372 0.88724 0.0
C691 C 0.16862 0.13548 0.85495 0.0
C692 C 0.15325 0.13688 0.82418 0.0
N693 N 0.13043 0.13935 0.83514 0.0
Co694 Co 0.10253 0.14134 0.80025 0.0
N695 N 0.11999 0.12846 0.75791 0.0
C696 C 0.14391 0.12737 0.75467 0.0
C697 C 0.15117 0.11866 0.72117 0.0
C698 C 0.13055 0.11413 0.70203 0.0
C699 C 0.11167 0.12025 0.7252 0.0
N700 N 0.07463 0.14325 0.76549 0.0
C701 C 0.0698 0.13352 0.7324 0.0
C702 C 0.04791 0.13917 0.71747 0.0
C703 C 0.03916 0.15313 0.74178 0.0
C704 C 0.05603 0.1552 0.77034 0.0
N705 N 0.08581 0.1544 0.8433 0.0
C706 C 0.06643 0.16561 0.83988 0.0
C707 C 0.0583 0.1719 0.87528 0.0
C708 C 0.07357 0.16409 0.9023 0.0
C709 C 0.09015 0.15339 0.88191 0.0
N710 N 0.11368 0.16647 0.78034 0.0
C711 C 0.12021 0.20371 0.74954 0.0
C712 C 0.12334 0.20005 0.78932 0.0
C713 C 0.11994 0.18135 0.80415 0.0
C714 C 0.11526 0.18804 0.72564 0.0
C715 C 0.11222 0.16979 0.74134 0.0
N716 N 0.08996 0.11647 0.81831 0.0
C717 C 0.05459 0.09846 0.83447 0.0
C718 C 0.06598 0.08112 0.82617 0.0
C719 C 0.09049 0.08182 0.81708 0.0
C720 C 0.1022 0.09965 0.81364 0.0
C721 C 0.06664 0.11574 0.83001 0.0
H722 H 0.12076 0.09984 0.80521 0.0
H723 H 0.0563 0.12854 0.83381 0.0
H724 H 0.12146 0.17907 0.83497 0.0
H725 H 0.10751 0.15852 0.72159 0.0
C726 C 0.15865 0.13202 0.78595 0.0
C727 C 0.11059 0.14324 0.89933 0.0
C728 C 0.08645 0.12006 0.71329 0.0
C729 C 0.05353 0.16579 0.80488 0.0
H730 H 0.16085 0.13647 0.91676 0.0
H731 H 0.18757 0.13248 0.85413 0.0
H732 H 0.16926 0.11557 0.71209 0.0
H733 H 0.1297 0.10753 0.67376 0.0
H734 H 0.03923 0.13388 0.69163 0.0
H735 H 0.02216 0.16039 0.73953 0.0
H736 H 0.04236 0.18017 0.88103 0.0
H737 H 0.07252 0.16589 0.93335 0.0
H738 H 0.12737 0.21164 0.80906 0.0
H739 H 0.11324 0.1899 0.69471 0.0
H740 H 0.03601 0.09885 0.84308 0.0
H741 H 0.10028 0.06882 0.81085 0.0
C742 C 0.83486 0.58491 0.04026 0.0
C743 C 0.8144 0.57378 0.04209 0.0
C744 C 0.8208 0.55701 0.05998 0.0
C745 C 0.84472 0.55884 0.06803 0.0
N746 N 0.85361 0.57577 0.05653 0.0
Co747 Co 0.88716 0.58423 0.0609 0.0
N748 N 0.89857 0.5575 0.06492 0.0
C749 C 0.88508 0.54219 0.07411 0.0
C750 C 0.89768 0.52537 0.07358 0.0
C751 C 0.92054 0.53044 0.06399 0.0
C752 C 0.92072 0.55023 0.0596 0.0
N753 N 0.92069 0.59276 0.06556 0.0
C754 C 0.94122 0.58261 0.06184 0.0
C755 C 0.96081 0.59418 0.06932 0.0
C756 C 0.95206 0.61207 0.07823 0.0
C757 C 0.92765 0.6105 0.07585 0.0
N758 N 0.87504 0.61077 0.05629 0.0
C759 C 0.88658 0.62669 0.06738 0.0
C760 C 0.87405 0.64301 0.05791 0.0
C761 C 0.85351 0.63678 0.03975 0.0
C762 C 0.85467 0.61699 0.03906 0.0
N763 N 0.88462 0.58576 0.11792 0.0
C764 C 0.88919 0.59552 0.19707 0.0
C765 C 0.86946 0.60171 0.17507 0.0
C766 C 0.86741 0.59654 0.13573 0.0
C767 C 0.90556 0.5833 0.17883 0.0
C768 C 0.90289 0.57854 0.13983 0.0
N769 N 0.89095 0.58342 1.00456 0.0
C770 C 0.90586 0.59931 0.94786 0.0
C771 C 0.90026 0.58353 0.92495 0.0
C772 C 0.88977 0.56749 0.94256 0.0
C773 C 0.88498 0.56781 0.9826 0.0
C774 C 0.90129 0.59892 0.98721 0.0
H775 H 0.87676 0.55548 0.99588 0.0
H776 H 0.90658 0.61124 1.00366 0.0
H777 H 0.85252 0.60204 0.11926 0.0
H778 H 0.91673 0.56999 0.12694 0.0
C779 C 0.86021 0.54376 0.07685 0.0
C780 C 0.83604 0.60416 0.02365 0.0
C781 C 0.94254 0.56176 0.055 0.0
C782 C 0.91096 0.62566 0.07742 0.0
H783 H 0.79686 0.57727 0.03101 0.0
H784 H 0.80971 0.54449 0.06411 0.0
H785 H 0.89092 0.51105 0.07831 0.0
H786 H 0.93541 0.52065 0.0612 0.0
H787 H 0.97943 0.59005 0.06894 0.0
H788 H 0.96234 0.62479 0.08472 0.0
H789 H 0.87978 0.65769 0.06149 0.0
H790 H 0.83949 0.64571 0.028 0.0
H791 H 0.85593 0.61079 0.18783 0.0
H792 H 0.92125 0.57817 0.19385 0.0
H793 H 0.91423 0.61188 0.93548 0.0
H794 H 0.88516 0.555 0.92559 0.0
C795 C 0.40438 0.39822 0.38054 0.0
C796 C 0.38158 0.39992 0.39579 0.0
C797 C 0.36647 0.40218 0.3649 0.0
C798 C 0.38089 0.40165 0.33276 0.0
N799 N 0.40403 0.3991 0.34162 0.0
Co800 Co 0.4308 0.3969 0.30481 0.0
N801 N 0.41244 0.41058 0.26458 0.0
C802 C 0.38862 0.41336 0.26429 0.0
C803 C 0.38112 0.42432 0.23377 0.0
C804 C 0.40139 0.42843 0.21334 0.0
C805 C 0.42028 0.4195 0.23236 0.0
N806 N 0.45738 0.39432 0.2677 0.0
C807 C 0.46079 0.40306 0.23315 0.0
C808 C 0.48126 0.39615 0.21536 0.0
C809 C 0.49074 0.38253 0.23964 0.0
C810 C 0.47557 0.38181 0.27084 0.0
N811 N 0.44868 0.38363 0.34644 0.0
C812 C 0.46786 0.37234 0.34172 0.0
C813 C 0.47742 0.36668 0.3766 0.0
C814 C 0.46331 0.37501 0.40467 0.0
C815 C 0.44586 0.38528 0.38533 0.0
N816 N 0.41832 0.37198 0.28557 0.0
C817 C 0.41053 0.33504 0.25414 0.0
C818 C 0.41198 0.3379 0.29434 0.0
C819 C 0.41534 0.3565 0.30949 0.0
C820 C 0.41182 0.35118 0.23038 0.0
C821 C 0.41596 0.36928 0.24643 0.0
N822 N 0.44456 0.4215 0.32222 0.0
C823 C 0.48065 0.43927 0.33508 0.0
C824 C 0.46881 0.45677 0.33044 0.0
C825 C 0.44389 0.45613 0.32476 0.0
C826 C 0.43208 0.43835 0.32114 0.0
C827 C 0.46844 0.42205 0.33044 0.0
H828 H 0.41312 0.43828 0.31557 0.0
H829 H 0.47889 0.40918 0.33157 0.0
H830 H 0.41652 0.35821 0.34048 0.0
H831 H 0.41847 0.38091 0.22656 0.0
C832 C 0.37451 0.40801 0.29589 0.0
C833 C 0.42604 0.39587 0.40352 0.0
C834 C 0.44399 0.41659 0.21498 0.0
C835 C 0.47928 0.37155 0.30546 0.0
H836 H 0.37655 0.39994 0.42602 0.0
H837 H 0.34752 0.40514 0.36597 0.0
H838 H 0.36316 0.42913 0.22756 0.0
H839 H 0.40201 0.43641 0.18655 0.0
H840 H 0.48839 0.40035 0.18753 0.0
H841 H 0.50699 0.37443 0.23535 0.0
H842 H 0.49362 0.35855 0.3812 0.0
H843 H 0.46584 0.37387 0.43558 0.0
H844 H 0.4108 0.32583 0.31388 0.0
H845 H 0.41087 0.3497 0.19922 0.0
H846 H 0.49959 0.43872 0.34114 0.0
H847 H 0.4337 0.46919 0.32141 0.0
H848 H 0.33386 0.10176 0.45053 0.0
H849 H 0.29319 0.12293 0.5471 0.0
H850 H 0.29941 0.10632 0.40798 0.0
H851 H 0.2585 0.12759 0.50472 0.0
H852 H 0.19566 0.10252 0.42941 0.0
H853 H 0.23026 0.10629 0.47203 0.0
H854 H 0.27139 0.12805 0.37605 0.0
H855 H 0.23655 0.12419 0.33362 0.0
C856 C 0.31775 0.10807 0.46232 0.0
C857 C 0.3164 0.1124 0.50195 0.0
C858 C 0.29789 0.11062 0.43797 0.0
C859 C 0.27593 0.11727 0.45271 0.0
C860 C 0.27495 0.1223 0.49224 0.0
C861 C 0.29493 0.11992 0.5165 0.0
C862 C 0.21189 0.10871 0.41781 0.0
C863 C 0.21325 0.11342 0.37839 0.0
C864 C 0.23181 0.11083 0.4422 0.0
C865 C 0.25385 0.11744 0.42769 0.0
C866 C 0.25488 0.12279 0.38835 0.0
C867 C 0.23484 0.12083 0.36407 0.0
H868 H 0.89211 0.82614 0.67693 0.0
H869 H 0.92389 0.80184 0.77954 0.0
H870 H 0.89302 0.79505 0.64584 0.0
H871 H 0.92312 0.77035 0.74946 0.0
H872 H 0.94362 0.71985 0.67372 0.0
H873 H 0.9417 0.75108 0.70446 0.0
H874 H 0.87836 0.76436 0.63833 0.0
H875 H 0.88102 0.73315 0.60645 0.0
C876 C 0.89923 0.81419 0.69315 0.0
C877 C 0.9083 0.81689 0.73088 0.0
C878 C 0.8994 0.79609 0.6753 0.0
C879 C 0.90837 0.77984 0.69459 0.0
C880 C 0.91657 0.7824 0.73292 0.0
C881 C 0.91662 0.80057 0.75065 0.0
C882 C 0.92924 0.72942 0.6657 0.0
C883 C 0.91241 0.72381 0.63761 0.0
C884 C 0.92799 0.74742 0.68368 0.0
C885 C 0.90968 0.76053 0.67465 0.0
C886 C 0.89296 0.75498 0.64608 0.0
C887 C 0.89441 0.73698 0.62767 0.0
H888 H 0.33517 0.43981 0.92168 0.0
H889 H 0.29394 0.41806 0.82628 0.0
H890 H 0.301 0.43549 0.96489 0.0
H891 H 0.25952 0.41361 0.86935 0.0
H892 H 0.23896 0.4178 0.0409 0.0
H893 H 0.27347 0.41392 0.99782 0.0
H894 H 0.23129 0.4348 0.90219 0.0
H895 H 0.19699 0.43854 0.94547 0.0
C896 C 0.31899 0.43344 0.91031 0.0
C897 C 0.31741 0.42886 0.87082 0.0
C898 C 0.2993 0.43102 0.93503 0.0
C899 C 0.27726 0.42424 0.92083 0.0
C900 C 0.27603 0.419 0.88143 0.0
C901 C 0.29585 0.42126 0.85678 0.0
C902 C 0.23696 0.42098 1.01041 0.0
C903 C 0.21517 0.42814 0.99638 0.0
C904 C 0.25681 0.41901 0.98574 0.0
C905 C 0.25539 0.4241 0.94631 0.0
C906 C 0.23315 0.43046 0.9321 0.0
C907 C 0.2134 0.43258 0.95687 0.0
H908 H 0.58912 0.80663 0.10215 0.0
H909 H 0.64908 0.82293 0.17272 0.0
H910 H 0.58774 0.77564 0.13396 0.0
H911 H 0.64911 0.79142 0.20298 0.0
H912 H 0.63355 0.73861 0.27561 0.0
H913 H 0.63392 0.76999 0.24544 0.0
H914 H 0.60109 0.74598 0.14319 0.0
H915 H 0.59822 0.71551 0.17473 0.0
C916 C 0.60244 0.80337 0.12388 0.0
C917 C 0.61929 0.81728 0.1346 0.0
C918 C 0.60179 0.78541 0.14228 0.0
C919 C 0.61838 0.78047 0.17151 0.0
C920 C 0.63559 0.79442 0.18149 0.0
C921 C 0.63583 0.81255 0.16372 0.0
C922 C 0.62599 0.74 0.24696 0.0
C923 C 0.6161 0.72397 0.22798 0.0
C924 C 0.62659 0.75817 0.2291 0.0
C925 C 0.61767 0.76102 0.19124 0.0
C926 C 0.60786 0.74494 0.1724 0.0
C927 C 0.60675 0.72699 0.19051 0.0
H928 H 0.69606 0.60091 0.92216 0.0
H929 H 0.73846 0.6198 0.82568 0.0
H930 H 0.73055 0.60446 0.96514 0.0
H931 H 0.77314 0.62352 0.86844 0.0
H932 H 0.79354 0.62192 0.04 0.0
H933 H 0.75904 0.62567 0.99683 0.0
H934 H 0.80041 0.60232 0.90255 0.0
H935 H 0.83469 0.59873 0.94587 0.0
C936 C 0.71265 0.60636 0.91042 0.0
C937 C 0.71449 0.61035 0.87073 0.0
C938 C 0.73249 0.60839 0.93502 0.0
C939 C 0.75487 0.61423 0.92047 0.0
C940 C 0.75638 0.61881 0.88079 0.0
C941 C 0.73645 0.61692 0.85629 0.0
C942 C 0.79537 0.61816 1.00974 0.0
C943 C 0.81693 0.6104 0.99609 0.0
C944 C 0.77552 0.62004 0.98505 0.0
C945 C 0.77672 0.61424 0.94598 0.0
C946 C 0.79873 0.60721 0.93214 0.0
C947 C 0.81847 0.60519 0.95693 0.0
H948 H 0.44288 0.30572 0.25873 0.0
H949 H 0.37524 0.32056 0.2076 0.0
H950 H 0.44257 0.27511 0.22351 0.0
H951 H 0.37447 0.28967 0.17348 0.0
H952 H 0.37469 0.22128 0.15914 0.0
H953 H 0.37382 0.25216 0.19324 0.0
H954 H 0.44335 0.26571 0.14746 0.0
H955 H 0.4438 0.2351 0.11223 0.0
C956 C 0.42774 0.30227 0.24054 0.0
C957 C 0.40898 0.3155 0.23628 0.0
C958 C 0.42765 0.28482 0.22009 0.0
C959 C 0.40852 0.27992 0.19554 0.0
C960 C 0.38943 0.29294 0.19219 0.0
C961 C 0.38984 0.31061 0.2118 0.0
C962 C 0.3896 0.23101 0.15586 0.0
C963 C 0.40918 0.22582 0.13257 0.0
C964 C 0.38913 0.24868 0.17546 0.0
C965 C 0.40857 0.26141 0.1733 0.0
C966 C 0.42815 0.25622 0.14995 0.0
C967 C 0.42832 0.23877 0.12949 0.0
H968 H 0.79446 0.9166 0.32911 0.0
H969 H 0.83524 0.93912 0.42429 0.0
H970 H 0.75977 0.91265 0.37176 0.0
H971 H 0.80077 0.93529 0.46714 0.0
H972 H 0.73821 0.91794 0.54268 0.0
H973 H 0.77302 0.91391 0.50029 0.0
H974 H 0.73137 0.93411 0.40346 0.0
H975 H 0.69677 0.93803 0.44606 0.0
C976 C 0.79618 0.92013 0.35949 0.0
C977 C 0.81768 0.92781 0.37357 0.0
C978 C 0.77621 0.91814 0.38389 0.0
C979 C 0.77724 0.92371 0.4231 0.0
C980 C 0.79922 0.93058 0.4374 0.0
C981 C 0.81907 0.93274 0.4129 0.0
C982 C 0.7364 0.92095 0.51209 0.0
C983 C 0.71468 0.92798 0.49752 0.0
C984 C 0.75642 0.91889 0.48782 0.0
C985 C 0.75523 0.92375 0.44825 0.0
C986 C 0.73306 0.92997 0.43351 0.0
C987 C 0.71314 0.93218 0.45788 0.0
H988 H 0.10837 0.30128 0.59037 0.0
H989 H 0.14086 0.32584 0.69218 0.0
H990 H 0.10941 0.26985 0.62066 0.0
H991 H 0.14032 0.29478 0.72346 0.0
H992 H 0.15288 0.2328 0.76248 0.0
H993 H 0.15522 0.264 0.73051 0.0
H994 H 0.09101 0.25085 0.66654 0.0
H995 H 0.08932 0.21967 0.69744 0.0
C996 C 0.11586 0.30007 0.61912 0.0
C997 C 0.12429 0.31645 0.63862 0.0
C998 C 0.11609 0.28194 0.63697 0.0
C999 C 0.1246 0.27948 0.67514 0.0
C1000 C 0.1337 0.29577 0.69413 0.0
C1001 C 0.13367 0.31383 0.67618 0.0
C1002 C 0.13922 0.23665 0.74172 0.0
C1003 C 0.12105 0.22353 0.73242 0.0
C1004 C 0.1405 0.25464 0.72326 0.0
C1005 C 0.12345 0.26021 0.69523 0.0
C1006 C 0.10496 0.24716 0.68687 0.0
C1007 C 0.10386 0.22919 0.70493 0.0
H1008 H 0.05618 0.05818 0.37316 0.0
H1009 H 0.06816 0.04673 0.25237 0.0
H1010 H 0.02115 0.03721 0.37228 0.0
H1011 H 0.0345 0.02478 0.25151 0.0
H1012 H 0.9611 0.9977 0.25143 0.0
H1013 H 0.99457 1.01984 0.25161 0.0
H1014 H 1.00853 1.0057 0.37139 0.0
H1015 H 0.97367 0.98455 0.37134 0.0
C1016 C 0.05106 0.05128 0.34634 0.0
C1017 C 0.06466 0.05411 0.3128 0.0
C1018 C 0.03126 0.03895 0.34586 0.0
C1019 C 0.02487 0.0289 0.31193 0.0
C1020 C 0.03831 0.03233 0.27814 0.0
C1021 C 0.05772 0.04492 0.2785 0.0
C1022 C 0.97158 0.99923 0.2776 0.0
C1023 C 0.96484 0.98952 0.31139 0.0
C1024 C 0.9909 1.01191 0.27781 0.0
C1025 C 1.00449 1.01488 0.31164 0.0
C1026 C 0.99829 1.00432 0.34501 0.0
C1027 C 0.97857 0.9919 0.34493 0.0
H1028 H 0.96112 0.55039 0.59284 0.0
H1029 H 0.99556 0.56757 0.48689 0.0
H1030 H 0.98601 0.52176 0.59514 0.0
H1031 H 0.01997 0.53868 0.48823 0.0
H1032 H 0.07702 0.49461 0.51934 0.0
H1033 H 0.05248 0.52356 0.51872 0.0
H1034 H 0.99405 0.49187 0.56917 0.0
H1035 H 0.01887 0.4636 0.57214 0.0
C1036 C 0.97362 0.54781 0.56952 0.0
C1037 C 0.97624 0.56128 0.53965 0.0
C1038 C 0.98803 0.53136 0.5708 0.0
C1039 C 1.00533 0.52775 0.54198 0.0
C1040 C 1.00738 0.54102 0.5115 0.0
C1041 C 0.99315 0.55755 0.51047 0.0
C1042 C 0.05905 0.4939 0.53076 0.0
C1043 C 0.04999 0.47654 0.54525 0.0
C1044 C 0.04477 0.51049 0.52994 0.0
C1045 C 0.02099 0.51022 0.54357 0.0
C1046 C 1.0122 0.49292 0.55869 0.0
C1047 C 0.02646 0.47647 0.55978 0.0
H1048 H 0.46001 0.49634 0.87648 0.0
H1049 H 0.4751 0.48543 0.75631 0.0
H1050 H 0.49399 0.51831 0.87979 0.0
H1051 H 0.50951 0.50689 0.75953 0.0
H1052 H 0.55163 0.56199 0.76307 0.0
H1053 H 0.51714 0.54057 0.76378 0.0
H1054 H 0.53684 0.52135 0.87821 0.0
H1055 H 0.57093 0.54329 0.87757 0.0
C1056 C 0.47113 0.49822 0.85113 0.0
C1057 C 0.46531 0.48888 0.81641 0.0
C1058 C 0.49053 0.51087 0.8529 0.0
C1059 C 0.50447 0.51459 0.81983 0.0
C1060 C 0.499 0.50468 0.78542 0.0
C1061 C 0.47958 0.49207 0.78368 0.0
C1062 C 0.54806 0.55363 0.7888 0.0
C1063 C 0.56356 0.55461 0.82064 0.0
C1064 C 0.52859 0.54105 0.78899 0.0
C1065 C 0.52428 0.52897 0.82087 0.0
C1066 C 0.53941 0.53049 0.85328 0.0
C1067 C 0.55887 0.54312 0.85307 0.0
H1068 H 0.5743 0.9951 0.07131 0.0
H1069 H 0.52262 0.96789 0.99669 0.0
H1070 H 0.55114 0.02453 0.06926 0.0
H1071 H 0.49847 0.99658 0.99744 0.0
H1072 H 0.46644 0.05615 0.98124 0.0
H1073 H 0.49128 0.02738 0.9781 0.0
H1074 H 0.5177 0.03933 0.09321 0.0
H1075 H 0.49393 0.06851 0.09483 0.0
C1076 C 0.55808 0.99533 0.05431 0.0
C1077 C 0.55039 0.9788 0.03462 0.0
C1078 C 0.54442 1.01222 0.05372 0.0
C1079 C 0.52242 1.01313 0.03379 0.0
C1080 C 0.51521 0.99677 1.01304 0.0
C1081 C 0.52902 0.98003 1.01313 0.0
C1082 C 0.47742 0.05242 1.0059 0.0
C1083 C 0.47815 0.06449 0.03834 0.0
C1084 C 0.49173 0.03588 1.00425 0.0
C1085 C 0.50691 0.0308 0.03531 0.0
C1086 C 0.50694 0.04277 0.06817 0.0
C1087 C 0.49299 0.05943 0.06945 0.0
H1088 H 0.06961 0.49504 0.11654 0.0
H1089 H 0.05766 0.4829 0.99601 0.0
H1090 H 0.03595 0.51697 0.11688 0.0
H1091 H 0.02256 0.5038 0.99643 0.0
H1092 H 0.97439 0.55599 0.99608 0.0
H1093 H 1.00951 0.53511 0.99645 0.0
H1094 H 0.99619 0.52201 0.11691 0.0
H1095 H 0.96252 0.54392 0.11662 0.0
C1096 C 0.05918 0.4967 0.09035 0.0
C1097 C 0.06616 0.48735 0.05626 0.0
C1098 C 0.03976 0.50928 0.09043 0.0
C1099 C 0.02628 0.51249 0.05658 0.0
C1100 C 0.0327 0.50224 0.02288 0.0
C1101 C 0.05254 0.48995 0.02267 0.0
C1102 C 0.97953 0.54896 0.02273 0.0
C1103 C 0.96592 0.55157 0.05634 0.0
C1104 C 0.99938 0.53668 0.02291 0.0
C1105 C 1.00582 0.52645 0.05659 0.0
C1106 C 0.99237 0.52968 0.09047 0.0
C1107 C 0.97293 0.54224 0.09042 0.0
H1108 H 0.45578 0.49292 0.35659 0.0
H1109 H 0.5141 0.46268 0.30227 0.0
H1110 H 0.47953 0.5222 0.35617 0.0
H1111 H 0.53827 0.49125 0.30465 0.0
H1112 H 0.5699 0.54994 0.27939 0.0
H1113 H 0.54587 0.52086 0.27854 0.0
H1114 H 0.51129 0.53862 0.38446 0.0
H1115 H 0.5347 0.56803 0.38406 0.0
C1116 C 0.47364 0.49241 0.34468 0.0
C1117 C 0.48292 0.47514 0.32997 0.0
C1118 C 0.48751 0.50923 0.34495 0.0
C1119 C 0.51114 0.50931 0.33066 0.0
C1120 C 0.5202 0.49207 0.31557 0.0
C1121 C 0.50632 0.47541 0.3149 0.0
C1122 C 0.55742 0.54746 0.30279 0.0
C1123 C 0.55433 0.56131 0.33184 0.0
C1124 C 0.54352 0.53072 0.30238 0.0
C1125 C 0.5263 0.52716 0.33137 0.0
C1126 C 0.52381 0.54085 0.36106 0.0
C1127 C 0.53747 0.55769 0.36113 0.0
H1128 H 0.4596 0.0407 0.62046 0.0
H1129 H 0.47356 0.05693 0.50252 0.0
H1130 H 0.49395 1.01934 0.61963 0.0
H1131 H 0.50905 0.03642 0.50184 0.0
H1132 H 0.55751 0.98421 0.4976 0.0
H1133 H 0.52202 1.00471 0.49903 0.0
H1134 H 0.53458 1.01601 0.62043 0.0
H1135 H 0.56891 0.99465 0.61893 0.0
C1136 C 0.47055 0.04001 0.59465 0.0
C1137 C 0.46408 0.05043 0.56159 0.0
C1138 C 0.49032 0.02778 0.59406 0.0
C1139 C 0.50448 0.0259 0.56055 0.0
C1140 C 0.4984 0.03704 0.52793 0.0
C1141 C 0.47832 0.04907 0.52839 0.0
C1142 C 0.5522 0.99081 0.52463 0.0
C1143 C 0.56574 0.98784 0.55817 0.0
C1144 C 0.53211 1.00283 0.52544 0.0
C1145 C 0.52532 1.01235 0.55978 0.0
C1146 C 0.53877 1.00885 0.59352 0.0
C1147 C 0.55854 0.99662 0.59277 0.0
H1148 H 0.07911 0.04451 0.8489 0.0
H1149 H 0.02005 0.07624 0.80068 0.0
H1150 H 0.05457 1.01556 0.84907 0.0
H1151 H 0.99528 0.04793 0.80316 0.0
H1152 H 0.96197 0.98982 0.77762 0.0
H1153 H 0.98698 1.01836 0.77566 0.0
H1154 H 0.02246 1.00012 0.88035 0.0
H1155 H 0.99787 0.97133 0.88141 0.0
C1156 C 0.06094 0.04537 0.83838 0.0
C1157 C 0.05163 0.06292 0.82532 0.0
C1158 C 0.04667 0.02878 0.83895 0.0
C1159 C 0.02267 0.02924 0.82644 0.0
C1160 C 1.01362 0.04675 0.81273 0.0
C1161 C 0.02785 0.0632 0.81192 0.0
C1162 C 0.97485 0.99206 0.80054 0.0
C1163 C 0.97781 0.97826 0.8297 0.0
C1164 C 0.98932 1.00847 0.79944 0.0
C1165 C 1.00704 1.01171 0.82775 0.0
C1166 C 1.00951 0.99807 0.85749 0.0
C1167 C 0.9952 0.98159 0.85834 0.0
H1168 H 0.07615 0.13861 0.64607 0.0
H1169 H 0.08777 0.08233 0.69358 0.0
H1170 H 0.08025 0.12571 0.58082 0.0
H1171 H 0.09282 0.06943 0.62798 0.0
H1172 H 0.14258 0.07163 0.51266 0.0
H1173 H 0.12747 0.07696 0.57848 0.0
H1174 H 0.06297 0.10146 0.53165 0.0
H1175 H 0.07766 0.09575 0.4663 0.0
C1176 C 0.07844 0.12331 0.64246 0.0
C1177 C 0.08114 0.11139 0.67483 0.0
C1178 C 0.08111 0.11594 0.60509 0.0
C1179 C 0.08708 0.09658 0.59933 0.0
C1180 C 0.08835 0.0844 0.6316 0.0
C1181 C 0.08513 0.09172 0.66901 0.0
C1182 C 0.1249 0.0776 0.51647 0.0
C1183 C 0.11156 0.08362 0.48428 0.0
C1184 C 0.11624 0.08067 0.55411 0.0
C1185 C 0.09416 0.08987 0.56013 0.0
C1186 C 0.08016 0.0946 0.52791 0.0
C1187 C 0.08866 0.09137 0.4905 0.0
H1188 H 0.94518 0.58239 0.6808 0.0
H1189 H 0.94862 0.64028 0.72359 0.0
H1190 H 0.93555 0.57093 0.74606 0.0
H1191 H 0.93951 0.62895 0.78864 0.0
H1192 H 0.88399 0.60971 0.87402 0.0
H1193 H 0.89995 0.61683 0.81012 0.0
H1194 H 0.94654 0.56774 0.81797 0.0
H1195 H 0.93026 0.56056 0.88255 0.0
C1196 C 0.9451 0.59249 0.7046 0.0
C1197 C 0.94784 0.61218 0.69736 0.0
C1198 C 0.93936 0.58598 0.74183 0.0
C1199 C 0.93615 0.5991 0.77224 0.0
C1200 C 0.94133 0.61854 0.76559 0.0
C1201 C 0.94704 0.62502 0.72852 0.0
C1202 C 0.89727 0.6002 0.86173 0.0
C1203 C 0.90589 0.58459 0.88312 0.0
C1204 C 0.90668 0.60442 0.82541 0.0
C1205 C 0.92503 0.59318 0.80948 0.0
C1206 C 0.93256 0.57675 0.82967 0.0
C1207 C 0.92311 0.57253 0.86636 0.0
H1208 H 0.46097 0.44788 0.17579 0.0
H1209 H 0.42706 0.39314 0.16035 0.0
H1210 H 0.45189 0.4562 0.10862 0.0
H1211 H 0.41528 0.40184 0.09604 0.0
H1212 H 0.40465 0.41471 0.97365 0.0
H1213 H 0.42082 0.40639 0.035 0.0
H1214 H 0.42393 0.46642 0.06629 0.0
H1215 H 0.41136 0.47483 1.00085 0.0
C1216 C 0.45209 0.43748 0.15752 0.0
C1217 C 0.4451 0.41975 0.17266 0.0
C1218 C 0.44622 0.4424 0.11933 0.0
C1219 C 0.43248 0.42991 0.09614 0.0
C1220 C 0.42643 0.41184 0.11157 0.0
C1221 C 0.43317 0.4067 0.14884 0.0
C1222 C 0.40933 0.42628 0.99306 0.0
C1223 C 0.40745 0.44551 0.98143 0.0
C1224 C 0.41815 0.42144 0.02926 0.0
C1225 C 0.42384 0.4356 0.05666 0.0
C1226 C 0.42049 0.45496 0.04601 0.0
C1227 C 0.41268 0.45986 1.00864 0.0
H1228 H 0.59976 0.97827 0.38489 0.0
H1229 H 0.64952 0.93152 0.37366 0.0
H1230 H 0.58354 0.97089 0.32038 0.0
H1231 H 0.6337 0.92424 0.30967 0.0
H1232 H 0.58552 0.89914 0.22377 0.0
H1233 H 0.59517 0.91035 0.28871 0.0
H1234 H 0.59351 0.96883 0.24841 0.0
H1235 H 0.5833 0.95745 0.18328 0.0
C1236 C 0.6077 0.96685 0.36804 0.0
C1237 C 0.62593 0.9555 0.38395 0.0
C1238 C 0.5983 0.9625 0.3314 0.0
C1239 C 0.60689 0.94664 0.31044 0.0
C1240 C 0.6262 0.93618 0.32554 0.0
C1241 C 0.63554 0.94052 0.36187 0.0
C1242 C 0.58605 0.91441 0.22925 0.0
C1243 C 0.58342 0.92745 0.19875 0.0
C1244 C 0.59206 0.92084 0.26621 0.0
C1245 C 0.59576 0.94045 0.27339 0.0
C1246 C 0.59086 0.95364 0.24374 0.0
C1247 C 0.58479 0.94717 0.20661 0.0
H1248 H 0.08367 0.39841 0.72382 0.0
H1249 H 0.08375 0.45658 0.68242 0.0
H1250 H 0.09288 0.40967 0.78888 0.0
H1251 H 0.09351 0.468 0.74769 0.0
H1252 H 0.10015 0.47785 0.88411 0.0
H1253 H 0.08344 0.47053 0.81987 0.0
H1254 H 0.13204 0.42281 0.80949 0.0
H1255 H 0.14838 0.43006 0.87311 0.0
C1256 C 0.08452 0.41368 0.7291 0.0
C1257 C 0.08279 0.42665 0.69829 0.0
C1258 C 0.0903 0.42014 0.76616 0.0
C1259 C 0.09462 0.43969 0.77314 0.0
C1260 C 0.09039 0.45286 0.74319 0.0
C1261 C 0.08456 0.44637 0.70596 0.0
C1262 C 0.10764 0.46618 0.86741 0.0
C1263 C 0.12556 0.45452 0.88336 0.0
C1264 C 0.09794 0.46186 0.83093 0.0
C1265 C 0.10594 0.44575 0.81015 0.0
C1266 C 0.12496 0.43496 0.82525 0.0
C1267 C 0.1346 0.43926 0.86139 0.0
H1268 H 0.58409 0.64012 0.14522 0.0
H1269 H 0.58536 0.58217 0.18783 0.0
H1270 H 0.59371 0.62865 0.08043 0.0
H1271 H 0.59538 0.57054 0.12273 0.0
H1272 H 0.6 0.56131 0.9848 0.0
H1273 H 0.58395 0.56829 0.04965 0.0
H1274 H 0.63362 0.61521 0.06077 0.0
H1275 H 0.64941 0.60827 0.99663 0.0
C1276 C 0.58534 0.62484 0.14026 0.0
C1277 C 0.58374 0.61199 0.17129 0.0
C1278 C 0.5913 0.61828 0.10337 0.0
C1279 C 0.5959 0.59874 0.09678 0.0
C1280 C 0.592 0.58566 0.12699 0.0
C1281 C 0.58605 0.59227 0.16409 0.0
C1282 C 0.6079 0.5727 1.0018 0.0
C1283 C 0.62593 0.58426 0.9859 0.0
C1284 C 0.59858 0.57681 0.03863 0.0
C1285 C 0.60707 0.59264 0.05975 0.0
C1286 C 0.62624 0.60327 0.04474 0.0
C1287 C 0.63553 0.59914 1.00829 0.0
H1288 H 0.40876 0.0656 0.37036 0.0
H1289 H 0.40272 0.12575 0.39784 0.0
H1290 H 0.42059 0.07397 0.3045 0.0
H1291 H 0.4179 0.13401 0.33563 0.0
H1292 H 0.42203 0.14689 0.20983 0.0
H1293 H 0.41049 0.13804 0.27435 0.0
H1294 H 0.44896 0.08449 0.26228 0.0
H1295 H 0.45802 0.09293 0.19508 0.0
C1296 C 0.41004 0.08056 0.36251 0.0
C1297 C 0.40521 0.09494 0.38987 0.0
C1298 C 0.41739 0.08543 0.3249 0.0
C1299 C 0.42059 0.10478 0.31412 0.0
C1300 C 0.41531 0.11898 0.34166 0.0
C1301 C 0.40706 0.11417 0.37823 0.0
C1302 C 0.42852 0.13346 0.22147 0.0
C1303 C 0.44109 0.12067 0.1979 0.0
C1304 C 0.42195 0.12826 0.25879 0.0
C1305 C 0.42872 0.11041 0.27441 0.0
C1306 C 0.44283 0.09814 0.25135 0.0
C1307 C 0.44862 0.10311 0.21317 0.0
H1308 H 0.9475 0.8995 0.64539 0.0
H1309 H 0.94663 0.95758 0.68743 0.0
H1310 H 0.93837 0.91084 0.58036 0.0
H1311 H 0.93698 0.96908 0.6222 0.0
H1312 H 0.93128 0.97927 0.48585 0.0
H1313 H 0.94748 0.97188 0.55038 0.0
H1314 H 0.89937 0.92378 0.55887 0.0
H1315 H 0.88354 0.9311 0.49494 0.0
C1316 C 0.94647 0.91478 0.64028 0.0
C1317 C 0.948 0.92769 0.67124 0.0
C1318 C 0.94074 0.92128 0.60323 0.0
C1319 C 0.93627 0.94082 0.5964 0.0
C1320 C 0.94022 0.95395 0.62656 0.0
C1321 C 0.94599 0.94742 0.66378 0.0
C1322 C 0.92377 0.96751 0.5022 0.0
C1323 C 0.90612 0.95579 0.48566 0.0
C1324 C 0.93318 0.96315 0.53886 0.0
C1325 C 0.92518 0.94692 0.55922 0.0
C1326 C 0.90644 0.93603 0.54348 0.0
C1327 C 0.89708 0.94039 0.50717 0.0
H1328 H 0.13667 0.16226 0.95446 0.0
H1329 H 0.08866 0.11469 0.93975 0.0
H1330 H 0.14431 0.1524 0.02146 0.0
H1331 H 0.09585 0.10491 1.00694 0.0
H1332 H 0.09867 0.10403 0.14041 0.0
H1333 H 0.08988 0.11526 0.07552 0.0
H1334 H 0.16485 0.12494 0.05542 0.0
H1335 H 0.17399 0.11292 0.12019 0.0
C1336 C 0.12748 0.14984 0.96585 0.0
C1337 C 0.11216 0.13918 0.94186 0.0
C1338 C 0.13201 0.14408 1.0041 0.0
C1339 C 0.12095 0.1277 1.01966 0.0
C1340 C 0.10468 0.11761 0.9961 0.0
C1341 C 0.10044 0.12323 0.95763 0.0
C1342 C 0.11351 0.10813 0.12219 0.0
C1343 C 0.13722 0.10711 0.13601 0.0
C1344 C 0.10834 0.11476 0.0848 0.0
C1345 C 0.1266 0.12097 0.05995 0.0
C1346 C 0.15026 0.12043 0.07382 0.0
C1347 C 0.15551 0.11353 0.11117 0.0
H1348 H 0.92704 0.66343 0.40341 0.0
H1349 H 0.91615 0.60633 0.44678 0.0
H1350 H 0.91925 0.65216 0.33751 0.0
H1351 H 0.90699 0.59515 0.38181 0.0
H1352 H 0.90953 0.5756 0.25756 0.0
H1353 H 0.92065 0.5872 0.32105 0.0
H1354 H 0.88901 0.64208 0.29488 0.0
H1355 H 0.87936 0.63081 0.22994 0.0
C1356 C 0.9236 0.64836 0.39871 0.0
C1357 C 0.92298 0.63564 0.43018 0.0
C1358 C 0.91854 0.64192 0.36096 0.0
C1359 C 0.91238 0.62263 0.35374 0.0
C1360 C 0.91209 0.60997 0.3855 0.0
C1361 C 0.91733 0.61638 0.42298 0.0
C1362 C 0.90511 0.59023 0.26495 0.0
C1363 C 0.89363 0.60222 0.23794 0.0
C1364 C 0.91126 0.59687 0.30193 0.0
C1365 C 0.90588 0.6157 0.31371 0.0
C1366 C 0.89392 0.62761 0.28702 0.0
C1367 C 0.88794 0.62099 0.24977 0.0
H1368 H 0.37813 0.41272 0.63988 0.0
H1369 H 0.40797 0.46767 0.6092 0.0
H1370 H 0.38978 0.40013 0.57699 0.0
H1371 H 0.42147 0.45469 0.54821 0.0
H1372 H 0.4205 0.43273 0.42437 0.0
H1373 H 0.41049 0.44541 0.48767 0.0
H1374 H 0.42058 0.3892 0.53748 0.0
H1375 H 0.42897 0.3764 0.47295 0.0
C1376 C 0.38707 0.4222 0.61981 0.0
C1377 C 0.39203 0.44131 0.63016 0.0
C1378 C 0.39427 0.41481 0.58381 0.0
C1379 C 0.40689 0.42621 0.55707 0.0
C1380 C 0.41159 0.44536 0.56737 0.0
C1381 C 0.40408 0.45281 0.60298 0.0
C1382 C 0.42114 0.4232 0.44908 0.0
C1383 C 0.42609 0.40367 0.44378 0.0
C1384 C 0.41538 0.43046 0.48563 0.0
C1385 C 0.4146 0.41844 0.51834 0.0
C1386 C 0.42057 0.39895 0.51317 0.0
C1387 C 0.42602 0.39162 0.47628 0.0
H1388 H 0.66943 0.92659 0.7535 0.0
H1389 H 0.59502 0.93803 0.72948 0.0
H1390 H 0.65828 0.91406 0.81701 0.0
H1391 H 0.58436 0.92649 0.79341 0.0
H1392 H 0.58367 0.9274 0.93081 0.0
H1393 H 0.59157 0.93708 0.86374 0.0
H1394 H 0.63389 0.88615 0.84684 0.0
H1395 H 0.62538 0.87631 0.91362 0.0
C1396 C 0.65075 0.92645 0.7614 0.0
C1397 C 0.63331 0.93372 0.73591 0.0
C1398 C 0.64436 0.91928 0.798 0.0
C1399 C 0.62042 0.91937 0.81045 0.0
C1400 C 0.603 0.92646 0.78504 0.0
C1401 C 0.60927 0.93329 0.7483 0.0
C1402 C 0.59403 0.91803 0.91231 0.0
C1403 C 0.6038 0.90108 0.92726 0.0
C1404 C 0.59873 0.92361 0.87401 0.0
C1405 C 0.61366 0.91252 0.85003 0.0
C1406 C 0.62261 0.89514 0.86464 0.0
C1407 C 0.6175 0.88939 0.90266 0.0
H1408 H 0.11438 0.43326 0.44649 0.0
H1409 H 0.10571 0.37568 0.40425 0.0
H1410 H 0.12352 0.44425 0.38146 0.0
H1411 H 0.11336 0.38674 0.33821 0.0
H1412 H 0.1528 0.40821 0.23045 0.0
H1413 H 0.1431 0.39709 0.29542 0.0
H1414 H 0.11042 0.45172 0.32055 0.0
H1415 H 0.12171 0.46323 0.25719 0.0
C1416 C 0.11364 0.42305 0.4229 0.0
C1417 C 0.10864 0.40371 0.43047 0.0
C1418 C 0.11887 0.42935 0.38536 0.0
C1419 C 0.11919 0.41651 0.35386 0.0
C1420 C 0.11361 0.39713 0.36143 0.0
C1421 C 0.10861 0.3908 0.39926 0.0
C1422 C 0.14398 0.41802 0.25007 0.0
C1423 C 0.13807 0.43669 0.23796 0.0
C1424 C 0.13797 0.41147 0.28735 0.0
C1425 C 0.12571 0.42335 0.31378 0.0
C1426 C 0.12007 0.44207 0.30169 0.0
C1427 C 0.1263 0.44865 0.26473 0.0
H1428 H 0.61831 0.57763 0.61223 0.0
H1429 H 0.64942 0.63271 0.63812 0.0
H1430 H 0.60685 0.58897 0.54871 0.0
H1431 H 0.63934 0.64373 0.57313 0.0
H1432 H 0.60036 0.66469 0.46513 0.0
H1433 H 0.60838 0.6537 0.53118 0.0
H1434 H 0.62061 0.59651 0.48762 0.0
H1435 H 0.61136 0.60743 0.42253 0.0
C1436 C 0.62287 0.59218 0.60441 0.0
C1437 C 0.6347 0.60423 0.63091 0.0
C1438 C 0.61651 0.59866 0.56746 0.0
C1439 C 0.62201 0.61738 0.55524 0.0
C1440 C 0.63433 0.62934 0.5814 0.0
C1441 C 0.64055 0.62288 0.61864 0.0
C1442 C 0.60385 0.64965 0.47006 0.0
C1443 C 0.60449 0.6368 0.43879 0.0
C1444 C 0.60902 0.64337 0.50786 0.0
C1445 C 0.61528 0.62412 0.51526 0.0
C1446 C 0.61546 0.61131 0.48373 0.0
C1447 C 0.61014 0.61756 0.44621 0.0
H1448 H 0.40811 0.0725 0.76206 0.0
H1449 H 0.37963 0.12787 0.73103 0.0
H1450 H 0.42245 0.08548 0.82257 0.0
H1451 H 0.39215 0.14051 0.79343 0.0
H1452 H 0.43216 0.16395 0.89669 0.0
H1453 H 0.42356 0.15099 0.83233 0.0
H1454 H 0.41193 0.09519 0.88314 0.0
H1455 H 0.42202 0.10802 0.94628 0.0
C1456 C 0.40471 0.08746 0.76809 0.0
C1457 C 0.39276 0.09907 0.74097 0.0
C1458 C 0.41272 0.09491 0.80342 0.0
C1459 C 0.40865 0.11419 0.81348 0.0
C1460 C 0.39616 0.12572 0.78678 0.0
C1461 C 0.38846 0.11831 0.75107 0.0
C1462 C 0.42883 0.14876 0.89361 0.0
C1463 C 0.42841 0.13688 0.92635 0.0
C1464 C 0.42327 0.14135 0.85682 0.0
C1465 C 0.41674 0.12195 0.852 0.0
C1466 C 0.41722 0.11006 0.88492 0.0
C1467 C 0.42305 0.1174 0.92137 0.0
H1468 H 0.93423 0.93827 0.13798 0.0
H1469 H 0.85933 0.92766 0.11675 0.0
H1470 H 0.94378 0.92661 0.07363 0.0
H1471 H 0.8693 0.91512 0.05274 0.0
H1472 H 0.8994 0.87713 0.95442 0.0
H1473 H 0.8916 0.88736 0.02118 0.0
H1474 H 0.93704 0.9365 1.00406 0.0
H1475 H 0.94434 0.92638 0.93705 0.0
C1476 C 0.91964 0.93369 0.11967 0.0
C1477 C 0.89581 0.93434 0.13304 0.0
C1478 C 0.92526 0.92681 0.08264 0.0
C1479 C 0.90736 0.91993 0.05782 0.0
C1480 C 0.88361 0.92014 0.07121 0.0
C1481 C 0.87789 0.92732 0.10813 0.0
C1482 C 0.90799 0.88995 0.96524 0.0
C1483 C 0.92243 0.901 0.94059 0.0
C1484 C 0.90334 0.89593 1.00331 0.0
C1485 C 0.91343 0.9129 1.01797 0.0
C1486 C 0.92898 0.92336 0.99383 0.0
C1487 C 0.93329 0.91753 0.95552 0.0
loop_
_geom_bond_atom_site_label_1
_geom_bond_atom_site_label_2
_geom_bond_distance
_geom_bond_site_symmetry_2
_ccdc_geom_bond_type
C0 C1 1.443 . S
C0 N4 1.376 . S
C0 C38 1.389 . S
C1 C0 1.443 . S
C1 C2 1.340 . S
C1 H41 0.951 . S
C2 C1 1.340 . S
C2 C3 1.439 . S
C2 H42 0.950 . S
C3 C2 1.439 . S
C3 N4 1.374 . S
C3 C37 1.395 . S
N4 C0 1.376 . S
N4 C3 1.374 . S
N4 Co5 2.008 . S
Co5 N4 2.008 . S
Co5 N6 1.995 . S
Co5 N11 2.008 . S
Co5 N16 1.995 . S
Co5 N21 2.282 . S
Co5 N27 2.282 . S
N6 Co5 1.995 . S
N6 C7 1.376 . S
N6 C10 1.383 . S
C7 N6 1.376 . S
C7 C8 1.446 . S
C7 C37 1.391 . S
C8 C7 1.446 . S
C8 C9 1.339 . S
C8 H43 0.949 . S
C9 C8 1.339 . S
C9 C10 1.439 . S
C9 H44 0.950 . S
C10 N6 1.383 . S
C10 C9 1.439 . S
C10 C39 1.392 . S
N11 Co5 2.008 . S
N11 C12 1.376 . S
N11 C15 1.374 . S
C12 N11 1.376 . S
C12 C13 1.443 . S
C12 C39 1.389 . S
C13 C12 1.443 . S
C13 C14 1.340 . S
C13 H45 0.951 . S
C14 C13 1.340 . S
C14 C15 1.439 . S
C14 H46 0.950 . S
C15 N11 1.374 . S
C15 C14 1.439 . S
C15 C40 1.395 . S
N16 Co5 1.995 . S
N16 C17 1.376 . S
N16 C20 1.383 . S
C17 N16 1.376 . S
C17 C18 1.446 . S
C17 C40 1.391 . S
C18 C17 1.446 . S
C18 C19 1.339 . S
C18 H47 0.949 . S
C19 C18 1.339 . S
C19 C20 1.439 . S
C19 H48 0.950 . S
C20 N16 1.383 . S
C20 C19 1.439 . S
C20 C38 1.392 . S
N21 Co5 2.282 . S
N21 C24 1.332 . S
N21 C26 1.332 . S
C22 C23 1.386 . S
C22 C25 1.388 . S
C23 C22 1.386 . S
C23 C24 1.382 . S
C23 H49 0.950 . S
C24 N21 1.332 . S
C24 C23 1.382 . S
C24 H35 0.952 . S
C25 C22 1.388 . S
C25 C26 1.382 . S
C25 H50 0.950 . S
C26 N21 1.332 . S
C26 C25 1.382 . S
C26 H36 0.948 . S
N27 Co5 2.282 . S
N27 C31 1.332 . S
N27 C32 1.332 . S
C28 C29 1.388 . S
C28 C32 1.382 . S
C28 H51 0.950 . S
C29 C28 1.388 . S
C29 C30 1.386 . S
C30 C29 1.386 . S
C30 C31 1.382 . S
C30 H52 0.950 . S
C31 N27 1.332 . S
C31 C30 1.382 . S
C31 H33 0.952 . S
C32 N27 1.332 . S
C32 C28 1.382 . S
C32 H34 0.948 . S
H33 C31 0.952 . S
H34 C32 0.948 . S
H35 C24 0.952 . S
H36 C26 0.948 . S
C37 C3 1.395 . S
C37 C7 1.391 . S
C38 C0 1.389 . S
C38 C20 1.392 . S
C39 C10 1.392 . S
C39 C12 1.389 . S
C40 C15 1.395 . S
C40 C17 1.391 . S
H41 C1 0.951 . S
H42 C2 0.950 . S
H43 C8 0.949 . S
H44 C9 0.950 . S
H45 C13 0.951 . S
H46 C14 0.950 . S
H47 C18 0.949 . S
H48 C19 0.950 . S
H49 C23 0.950 . S
H50 C25 0.950 . S
H51 C28 0.950 . S
H52 C30 0.950 . S
C53 C54 1.443 . S
C53 N57 1.376 . S
C53 C91 1.389 . S
C54 C53 1.443 . S
C54 C55 1.340 . S
C54 H94 0.951 . S
C55 C54 1.340 . S
C55 C56 1.439 . S
C55 H95 0.950 . S
C56 C55 1.439 . S
C56 N57 1.374 . S
C56 C90 1.395 . S
N57 C53 1.376 . S
N57 C56 1.374 . S
N57 Co58 2.008 . S
Co58 N57 2.008 . S
Co58 N59 1.995 . S
Co58 N64 2.008 . S
Co58 N69 1.995 . S
Co58 N74 2.282 . S
Co58 N80 2.282 . S
N59 Co58 1.995 . S
N59 C60 1.376 . S
N59 C63 1.383 . S
C60 N59 1.376 . S
C60 C61 1.446 . S
C60 C90 1.391 . S
C61 C60 1.446 . S
C61 C62 1.339 . S
C61 H96 0.949 . S
C62 C61 1.339 . S
C62 C63 1.439 . S
C62 H97 0.950 . S
C63 N59 1.383 . S
C63 C62 1.439 . S
C63 C92 1.392 . S
N64 Co58 2.008 . S
N64 C65 1.376 . S
N64 C68 1.374 . S
C65 N64 1.376 . S
C65 C66 1.443 . S
C65 C92 1.389 . S
C66 C65 1.443 . S
C66 C67 1.340 . S
C66 H98 0.951 . S
C67 C66 1.340 . S
C67 C68 1.439 . S
C67 H99 0.950 . S
C68 N64 1.374 . S
C68 C67 1.439 . S
C68 C93 1.395 . S
N69 Co58 1.995 . S
N69 C70 1.376 . S
N69 C73 1.383 . S
C70 N69 1.376 . S
C70 C71 1.446 . S
C70 C93 1.391 . S
C71 C70 1.446 . S
C71 C72 1.339 . S
C71 H100 0.949 . S
C72 C71 1.339 . S
C72 C73 1.439 . S
C72 H101 0.950 . S
C73 N69 1.383 . S
C73 C72 1.439 . S
C73 C91 1.392 . S
N74 Co58 2.282 . S
N74 C77 1.332 . S
N74 C79 1.332 . S
C75 C76 1.386 . S
C75 C78 1.388 . S
C76 C75 1.386 . S
C76 C77 1.382 . S
C76 H102 0.950 . S
C77 N74 1.332 . S
C77 C76 1.382 . S
C77 H88 0.952 . S
C78 C75 1.388 . S
C78 C79 1.382 . S
C78 H103 0.950 . S
C79 N74 1.332 . S
C79 C78 1.382 . S
C79 H89 0.948 . S
N80 Co58 2.282 . S
N80 C84 1.332 . S
N80 C85 1.332 . S
C81 C82 1.388 . S
C81 C85 1.382 . S
C81 H104 0.950 . S
C82 C81 1.388 . S
C82 C83 1.386 . S
C83 C82 1.386 . S
C83 C84 1.382 . S
C83 H105 0.950 . S
C84 N80 1.332 . S
C84 C83 1.382 . S
C84 H86 0.952 . S
C85 N80 1.332 . S
C85 C81 1.382 . S
C85 H87 0.948 . S
H86 C84 0.952 . S
H87 C85 0.948 . S
H88 C77 0.952 . S
H89 C79 0.948 . S
C90 C56 1.395 . S
C90 C60 1.391 . S
C91 C53 1.389 . S
C91 C73 1.392 . S
C92 C63 1.392 . S
C92 C65 1.389 . S
C93 C68 1.395 . S
C93 C70 1.391 . S
H94 C54 0.951 . S
H95 C55 0.950 . S
H96 C61 0.949 . S
H97 C62 0.950 . S
H98 C66 0.951 . S
H99 C67 0.950 . S
H100 C71 0.949 . S
H101 C72 0.950 . S
H102 C76 0.950 . S
H103 C78 0.950 . S
H104 C81 0.950 . S
H105 C83 0.950 . S
C106 C107 1.443 . S
C106 N110 1.376 . S
C106 C144 1.389 . S
C107 C106 1.443 . S
C107 C108 1.340 . S
C107 H147 0.951 . S
C108 C107 1.340 . S
C108 C109 1.439 . S
C108 H148 0.950 . S
C109 C108 1.439 . S
C109 N110 1.374 . S
C109 C143 1.395 . S
N110 C106 1.376 . S
N110 C109 1.374 . S
N110 Co111 2.008 . S
Co111 N110 2.008 . S
Co111 N112 1.995 . S
Co111 N117 2.008 . S
Co111 N122 1.995 . S
Co111 N127 2.282 . S
Co111 N133 2.282 . S
N112 Co111 1.995 . S
N112 C113 1.376 . S
N112 C116 1.383 . S
C113 N112 1.376 . S
C113 C114 1.446 . S
C113 C143 1.391 . S
C114 C113 1.446 . S
C114 C115 1.339 . S
C114 H149 0.949 . S
C115 C114 1.339 . S
C115 C116 1.439 . S
C115 H150 0.950 . S
C116 N112 1.383 . S
C116 C115 1.439 . S
C116 C145 1.392 . S
N117 Co111 2.008 . S
N117 C118 1.376 . S
N117 C121 1.374 . S
C118 N117 1.376 . S
C118 C119 1.443 . S
C118 C145 1.389 . S
C119 C118 1.443 . S
C119 C120 1.340 . S
C119 H151 0.951 . S
C120 C119 1.340 . S
C120 C121 1.439 . S
C120 H152 0.950 . S
C121 N117 1.374 . S
C121 C120 1.439 . S
C121 C146 1.395 . S
N122 Co111 1.995 . S
N122 C123 1.376 . S
N122 C126 1.383 . S
C123 N122 1.376 . S
C123 C124 1.446 . S
C123 C146 1.391 . S
C124 C123 1.446 . S
C124 C125 1.339 . S
C124 H153 0.949 . S
C125 C124 1.339 . S
C125 C126 1.439 . S
C125 H154 0.950 . S
C126 N122 1.383 . S
C126 C125 1.439 . S
C126 C144 1.392 . S
N127 Co111 2.282 . S
N127 C130 1.332 . S
N127 C132 1.332 . S
C128 C129 1.386 . S
C128 C131 1.388 . S
C129 C128 1.386 . S
C129 C130 1.382 . S
C129 H155 0.950 . S
C130 N127 1.332 . S
C130 C129 1.382 . S
C130 H141 0.952 . S
C131 C128 1.388 . S
C131 C132 1.382 . S
C131 H156 0.950 . S
C132 N127 1.332 . S
C132 C131 1.382 . S
C132 H142 0.948 . S
N133 Co111 2.282 . S
N133 C137 1.332 . S
N133 C138 1.332 . S
C134 C135 1.388 . S
C134 C138 1.382 . S
C134 H157 0.950 . S
C135 C134 1.388 . S
C135 C136 1.386 . S
C136 C135 1.386 . S
C136 C137 1.382 . S
C136 H158 0.950 . S
C137 N133 1.332 . S
C137 C136 1.382 . S
C137 H139 0.952 . S
C138 N133 1.332 . S
C138 C134 1.382 . S
C138 H140 0.948 . S
H139 C137 0.952 . S
H140 C138 0.948 . S
H141 C130 0.952 . S
H142 C132 0.948 . S
C143 C109 1.395 . S
C143 C113 1.391 . S
C144 C106 1.389 . S
C144 C126 1.392 . S
C145 C116 1.392 . S
C145 C118 1.389 . S
C146 C121 1.395 . S
C146 C123 1.391 . S
H147 C107 0.951 . S
H148 C108 0.950 . S
H149 C114 0.949 . S
H150 C115 0.950 . S
H151 C119 0.951 . S
H152 C120 0.950 . S
H153 C124 0.949 . S
H154 C125 0.950 . S
H155 C129 0.950 . S
H156 C131 0.950 . S
H157 C134 0.950 . S
H158 C136 0.950 . S
C159 C160 1.443 . S
C159 N163 1.376 1_556 S
C159 C197 1.389 . S
C160 C159 1.443 . S
C160 C161 1.340 . S
C160 H200 0.951 . S
C161 C160 1.340 . S
C161 C162 1.439 1_556 S
C161 H201 0.950 . S
C162 C161 1.439 1_554 S
C162 N163 1.374 . S
C162 C196 1.395 . S
N163 C159 1.376 1_554 S
N163 C162 1.374 . S
N163 Co164 2.008 . S
Co164 N163 2.008 . S
Co164 N165 1.995 . S
Co164 N170 2.008 . S
Co164 N175 1.995 . S
Co164 N180 2.282 . S
Co164 N186 2.282 . S
N165 Co164 1.995 . S
N165 C166 1.376 . S
N165 C169 1.383 . S
C166 N165 1.376 . S
C166 C167 1.446 . S
C166 C196 1.391 . S
C167 C166 1.446 . S
C167 C168 1.339 . S
C167 H202 0.949 . S
C168 C167 1.339 . S
C168 C169 1.439 . S
C168 H203 0.950 . S
C169 N165 1.383 . S
C169 C168 1.439 . S
C169 C198 1.392 . S
N170 Co164 2.008 . S
N170 C171 1.376 . S
N170 C174 1.374 . S
C171 N170 1.376 . S
C171 C172 1.443 . S
C171 C198 1.389 . S
C172 C171 1.443 . S
C172 C173 1.340 . S
C172 H204 0.951 . S
C173 C172 1.340 . S
C173 C174 1.439 . S
C173 H205 0.950 . S
C174 N170 1.374 . S
C174 C173 1.439 . S
C174 C199 1.395 . S
N175 Co164 1.995 . S
N175 C176 1.376 . S
N175 C179 1.383 1_554 S
C176 N175 1.376 . S
C176 C177 1.446 1_554 S
C176 C199 1.391 . S
C177 C176 1.446 1_556 S
C177 C178 1.339 . S
C177 H206 0.949 . S
C178 C177 1.339 . S
C178 C179 1.439 . S
C178 H207 0.950 . S
C179 N175 1.383 1_556 S
C179 C178 1.439 . S
C179 C197 1.392 . S
N180 Co164 2.282 . S
N180 C183 1.332 . S
N180 C185 1.332 . S
C181 C182 1.386 . S
C181 C184 1.388 . S
C182 C181 1.386 . S
C182 C183 1.382 . S
C182 H208 0.950 . S
C183 N180 1.332 . S
C183 C182 1.382 . S
C183 H194 0.952 . S
C184 C181 1.388 . S
C184 C185 1.382 . S
C184 H209 0.950 . S
C185 N180 1.332 . S
C185 C184 1.382 . S
C185 H195 0.948 . S
N186 Co164 2.282 . S
N186 C190 1.332 . S
N186 C191 1.332 . S
C187 C188 1.388 . S
C187 C191 1.382 . S
C187 H210 0.950 1_554 S
C188 C187 1.388 . S
C188 C189 1.386 . S
C189 C188 1.386 . S
C189 C190 1.382 . S
C189 H211 0.950 . S
C190 N186 1.332 . S
C190 C189 1.382 . S
C190 H192 0.952 . S
C191 N186 1.332 . S
C191 C187 1.382 . S
C191 H193 0.948 . S
H192 C190 0.952 . S
H193 C191 0.948 . S
H194 C183 0.952 . S
H195 C185 0.948 . S
C196 C162 1.395 . S
C196 C166 1.391 . S
C197 C159 1.389 . S
C197 C179 1.392 . S
C198 C169 1.392 . S
C198 C171 1.389 . S
C199 C174 1.395 . S
C199 C176 1.391 . S
H200 C160 0.951 . S
H201 C161 0.950 . S
H202 C167 0.949 . S
H203 C168 0.950 . S
H204 C172 0.951 . S
H205 C173 0.950 . S
H206 C177 0.949 . S
H207 C178 0.950 . S
H208 C182 0.950 . S
H209 C184 0.950 . S
H210 C187 0.950 1_556 S
H211 C189 0.950 . S
C212 C213 1.436 1_554 S
C212 N216 1.384 . S
C212 C250 1.388 1_554 S
C213 C212 1.436 1_556 S
C213 C214 1.340 . S
C213 H253 0.951 . S
C214 C213 1.340 . S
C214 C215 1.439 1_556 S
C214 H254 0.950 . S
C215 C214 1.439 1_554 S
C215 N216 1.374 . S
C215 C249 1.395 . S
N216 C212 1.384 . S
N216 C215 1.374 . S
N216 Co217 2.008 . S
Co217 N216 2.008 . S
Co217 N218 1.995 . S
Co217 N223 2.008 . S
Co217 N228 1.995 . S
Co217 N233 2.282 . S
Co217 N239 2.282 1_554 S
N218 Co217 1.995 . S
N218 C219 1.376 . S
N218 C222 1.383 . S
C219 N218 1.376 . S
C219 C220 1.446 . S
C219 C249 1.391 . S
C220 C219 1.446 . S
C220 C221 1.339 . S
C220 H255 0.949 . S
C221 C220 1.339 . S
C221 C222 1.439 . S
C221 H256 0.950 . S
C222 N218 1.383 . S
C222 C221 1.439 . S
C222 C251 1.392 . S
N223 Co217 2.008 . S
N223 C224 1.376 . S
N223 C227 1.374 . S
C224 N223 1.376 . S
C224 C225 1.443 . S
C224 C251 1.389 . S
C225 C224 1.443 . S
C225 C226 1.340 . S
C225 H257 0.951 . S
C226 C225 1.340 . S
C226 C227 1.439 . S
C226 H258 0.950 . S
C227 N223 1.374 . S
C227 C226 1.439 . S
C227 C252 1.395 . S
N228 Co217 1.995 . S
N228 C229 1.376 . S
N228 C232 1.383 . S
C229 N228 1.376 . S
C229 C230 1.446 . S
C229 C252 1.391 . S
C230 C229 1.446 . S
C230 C231 1.339 . S
C230 H259 0.949 . S
C231 C230 1.339 . S
C231 C232 1.439 . S
C231 H260 0.958 . S
C232 N228 1.383 . S
C232 C231 1.439 . S
C232 C250 1.389 1_554 S
N233 Co217 2.282 . S
N233 C236 1.332 . S
N233 C238 1.332 . S
C234 C235 1.386 . S
C234 C237 1.388 . S
C235 C234 1.386 . S
C235 C236 1.382 . S
C235 H261 0.950 . S
C236 N233 1.332 . S
C236 C235 1.382 . S
C236 H247 0.952 . S
C237 C234 1.388 . S
C237 C238 1.382 . S
C237 H262 0.950 . S
C238 N233 1.332 . S
C238 C237 1.382 . S
C238 H248 0.948 . S
N239 Co217 2.282 1_556 S
N239 C243 1.332 . S
N239 C244 1.332 . S
C240 C241 1.388 . S
C240 C244 1.382 . S
C240 H263 0.950 . S
C241 C240 1.388 . S
C241 C242 1.386 . S
C242 C241 1.386 . S
C242 C243 1.382 . S
C242 H264 0.950 . S
C243 N239 1.332 . S
C243 C242 1.382 . S
C243 H245 0.952 . S
C244 N239 1.332 . S
C244 C240 1.382 . S
C244 H246 0.948 . S
H245 C243 0.952 . S
H246 C244 0.948 . S
H247 C236 0.952 . S
H248 C238 0.948 . S
C249 C215 1.395 . S
C249 C219 1.391 . S
C250 C212 1.388 1_556 S
C250 C232 1.389 1_556 S
C251 C222 1.392 . S
C251 C224 1.389 . S
C252 C227 1.395 . S
C252 C229 1.391 . S
H253 C213 0.951 . S
H254 C214 0.950 . S
H255 C220 0.949 . S
H256 C221 0.950 . S
H257 C225 0.951 . S
H258 C226 0.950 . S
H259 C230 0.949 . S
H260 C231 0.958 . S
H261 C235 0.950 . S
H262 C237 0.950 . S
H263 C240 0.950 . S
H264 C242 0.950 . S
C265 C266 1.443 . S
C265 N269 1.376 . S
C265 C303 1.389 . S
C266 C265 1.443 . S
C266 C267 1.340 . S
C266 H306 0.951 . S
C267 C266 1.340 . S
C267 C268 1.439 . S
C267 H307 0.950 . S
C268 C267 1.439 . S
C268 N269 1.374 . S
C268 C302 1.395 . S
N269 C265 1.376 . S
N269 C268 1.374 . S
N269 Co270 2.008 . S
Co270 N269 2.008 . S
Co270 N271 1.995 . S
Co270 N276 2.008 . S
Co270 N281 1.995 . S
Co270 N286 2.282 . S
Co270 N292 2.282 . S
N271 Co270 1.995 . S
N271 C272 1.376 . S
N271 C275 1.383 . S
C272 N271 1.376 . S
C272 C273 1.446 . S
C272 C302 1.391 . S
C273 C272 1.446 . S
C273 C274 1.339 . S
C273 H308 0.949 . S
C274 C273 1.339 . S
C274 C275 1.439 . S
C274 H309 0.950 . S
C275 N271 1.383 . S
C275 C274 1.439 . S
C275 C304 1.392 . S
N276 Co270 2.008 . S
N276 C277 1.376 . S
N276 C280 1.374 . S
C277 N276 1.376 . S
C277 C278 1.443 . S
C277 C304 1.389 . S
C278 C277 1.443 . S
C278 C279 1.340 . S
C278 H310 0.951 . S
C279 C278 1.340 . S
C279 C280 1.439 . S
C279 H311 0.950 . S
C280 N276 1.374 . S
C280 C279 1.439 . S
C280 C305 1.395 . S
N281 Co270 1.995 . S
N281 C282 1.376 . S
N281 C285 1.383 . S
C282 N281 1.376 . S
C282 C283 1.446 . S
C282 C305 1.391 . S
C283 C282 1.446 . S
C283 C284 1.339 . S
C283 H312 0.949 . S
C284 C283 1.339 . S
C284 C285 1.439 . S
C284 H313 0.950 . S
C285 N281 1.383 . S
C285 C284 1.439 . S
C285 C303 1.392 . S
N286 Co270 2.282 . S
N286 C289 1.332 . S
N286 C291 1.332 . S
C287 C288 1.386 . S
C287 C290 1.388 . S
C288 C287 1.386 . S
C288 C289 1.382 . S
C288 H314 0.950 . S
C289 N286 1.332 . S
C289 C288 1.382 . S
C289 H300 0.952 . S
C290 C287 1.388 . S
C290 C291 1.382 . S
C290 H315 0.950 . S
C291 N286 1.332 . S
C291 C290 1.382 . S
C291 H301 0.948 . S
N292 Co270 2.282 . S
N292 C296 1.332 . S
N292 C297 1.332 . S
C293 C294 1.388 . S
C293 C297 1.382 . S
C293 H316 0.950 . S
C294 C293 1.388 . S
C294 C295 1.386 . S
C295 C294 1.386 . S
C295 C296 1.382 . S
C295 H317 0.950 . S
C296 N292 1.332 . S
C296 C295 1.382 . S
C296 H298 0.952 . S
C297 N292 1.332 . S
C297 C293 1.382 . S
C297 H299 0.948 . S
H298 C296 0.952 . S
H299 C297 0.948 . S
H300 C289 0.952 . S
H301 C291 0.948 . S
C302 C268 1.395 . S
C302 C272 1.391 . S
C303 C265 1.389 . S
C303 C285 1.392 . S
C304 C275 1.392 . S
C304 C277 1.389 . S
C305 C280 1.395 . S
C305 C282 1.391 . S
H306 C266 0.951 . S
H307 C267 0.950 . S
H308 C273 0.949 . S
H309 C274 0.950 . S
H310 C278 0.951 . S
H311 C279 0.950 . S
H312 C283 0.949 . S
H313 C284 0.950 . S
H314 C288 0.950 . S
H315 C290 0.950 . S
H316 C293 0.950 . S
H317 C295 0.950 . S
C318 C319 1.443 . S
C318 N322 1.376 . S
C318 C356 1.389 . S
C319 C318 1.443 . S
C319 C320 1.340 . S
C319 H359 0.951 . S
C320 C319 1.340 . S
C320 C321 1.439 . S
C320 H360 0.950 . S
C321 C320 1.439 . S
C321 N322 1.374 . S
C321 C355 1.395 . S
N322 C318 1.376 . S
N322 C321 1.374 . S
N322 Co323 2.008 . S
Co323 N322 2.008 . S
Co323 N324 1.995 . S
Co323 N329 2.008 . S
Co323 N334 1.995 . S
Co323 N339 2.282 . S
Co323 N345 2.282 . S
N324 Co323 1.995 . S
N324 C325 1.376 . S
N324 C328 1.383 . S
C325 N324 1.376 . S
C325 C326 1.446 . S
C325 C355 1.391 . S
C326 C325 1.446 . S
C326 C327 1.339 . S
C326 H361 0.949 . S
C327 C326 1.339 . S
C327 C328 1.439 . S
C327 H362 0.950 . S
C328 N324 1.383 . S
C328 C327 1.439 . S
C328 C357 1.392 . S
N329 Co323 2.008 . S
N329 C330 1.376 . S
N329 C333 1.374 . S
C330 N329 1.376 . S
C330 C331 1.443 . S
C330 C357 1.389 . S
C331 C330 1.443 . S
C331 C332 1.340 . S
C331 H363 0.951 . S
C332 C331 1.340 . S
C332 C333 1.439 . S
C332 H364 0.950 . S
C333 N329 1.374 . S
C333 C332 1.439 . S
C333 C358 1.395 . S
N334 Co323 1.995 . S
N334 C335 1.376 . S
N334 C338 1.383 . S
C335 N334 1.376 . S
C335 C336 1.446 . S
C335 C358 1.391 . S
C336 C335 1.446 . S
C336 C337 1.339 . S
C336 H365 0.949 . S
C337 C336 1.339 . S
C337 C338 1.439 . S
C337 H366 0.950 . S
C338 N334 1.383 . S
C338 C337 1.439 . S
C338 C356 1.392 . S
N339 Co323 2.282 . S
N339 C342 1.332 . S
N339 C344 1.332 . S
C340 C341 1.386 . S
C340 C343 1.388 . S
C341 C340 1.386 . S
C341 C342 1.382 . S
C341 H367 0.950 . S
C342 N339 1.332 . S
C342 C341 1.382 . S
C342 H353 0.952 . S
C343 C340 1.388 . S
C343 C344 1.382 . S
C343 H368 0.950 . S
C344 N339 1.332 . S
C344 C343 1.382 . S
C344 H354 0.948 . S
N345 Co323 2.282 . S
N345 C349 1.332 . S
N345 C350 1.332 . S
C346 C347 1.388 . S
C346 C350 1.382 . S
C346 H369 0.950 . S
C347 C346 1.388 . S
C347 C348 1.386 . S
C348 C347 1.386 . S
C348 C349 1.382 . S
C348 H370 0.950 . S
C349 N345 1.332 . S
C349 C348 1.382 . S
C349 H351 0.952 . S
C350 N345 1.332 . S
C350 C346 1.382 . S
C350 H352 0.948 . S
H351 C349 0.952 . S
H352 C350 0.948 . S
H353 C342 0.952 . S
H354 C344 0.948 . S
C355 C321 1.395 . S
C355 C325 1.391 . S
C356 C318 1.389 . S
C356 C338 1.392 . S
C357 C328 1.392 . S
C357 C330 1.389 . S
C358 C333 1.395 . S
C358 C335 1.391 . S
H359 C319 0.951 . S
H360 C320 0.950 . S
H361 C326 0.949 . S
H362 C327 0.950 . S
H363 C331 0.951 . S
H364 C332 0.950 . S
H365 C336 0.949 . S
H366 C337 0.950 . S
H367 C341 0.950 . S
H368 C343 0.950 . S
H369 C346 0.950 . S
H370 C348 0.950 . S
C371 C372 1.443 . S
C371 N375 1.376 . S
C371 C409 1.389 . S
C372 C371 1.443 . S
C372 C373 1.340 . S
C372 H412 0.951 . S
C373 C372 1.340 . S
C373 C374 1.439 . S
C373 H413 0.950 . S
C374 C373 1.439 . S
C374 N375 1.374 . S
C374 C408 1.395 . S
N375 C371 1.376 . S
N375 C374 1.374 . S
N375 Co376 2.008 . S
Co376 N375 2.008 . S
Co376 N377 1.995 . S
Co376 N382 2.008 . S
Co376 N387 1.995 . S
Co376 N392 2.282 . S
Co376 N398 2.282 . S
N377 Co376 1.995 . S
N377 C378 1.376 . S
N377 C381 1.383 . S
C378 N377 1.376 . S
C378 C379 1.446 . S
C378 C408 1.391 . S
C379 C378 1.446 . S
C379 C380 1.339 . S
C379 H414 0.949 . S
C380 C379 1.339 . S
C380 C381 1.439 . S
C380 H415 0.950 . S
C381 N377 1.383 . S
C381 C380 1.439 . S
C381 C410 1.392 . S
N382 Co376 2.008 . S
N382 C383 1.376 . S
N382 C386 1.374 . S
C383 N382 1.376 . S
C383 C384 1.443 . S
C383 C410 1.389 . S
C384 C383 1.443 . S
C384 C385 1.340 . S
C384 H416 0.951 . S
C385 C384 1.340 . S
C385 C386 1.439 . S
C385 H417 0.950 . S
C386 N382 1.374 . S
C386 C385 1.439 . S
C386 C411 1.395 . S
N387 Co376 1.995 . S
N387 C388 1.376 . S
N387 C391 1.383 . S
C388 N387 1.376 . S
C388 C389 1.446 . S
C388 C411 1.391 . S
C389 C388 1.446 . S
C389 C390 1.339 . S
C389 H418 0.949 . S
C390 C389 1.339 . S
C390 C391 1.439 . S
C390 H419 0.950 . S
C391 N387 1.383 . S
C391 C390 1.439 . S
C391 C409 1.392 . S
N392 Co376 2.282 . S
N392 C395 1.332 . S
N392 C397 1.332 . S
C393 C394 1.386 . S
C393 C396 1.388 . S
C394 C393 1.386 . S
C394 C395 1.382 . S
C394 H420 0.950 . S
C395 N392 1.332 . S
C395 C394 1.382 . S
C395 H406 0.952 . S
C396 C393 1.388 . S
C396 C397 1.382 . S
C396 H421 0.950 . S
C397 N392 1.332 . S
C397 C396 1.382 . S
C397 H407 0.948 . S
N398 Co376 2.282 . S
N398 C402 1.332 . S
N398 C403 1.332 . S
C399 C400 1.388 . S
C399 C403 1.382 . S
C399 H422 0.950 . S
C400 C399 1.388 . S
C400 C401 1.386 . S
C401 C400 1.386 . S
C401 C402 1.382 . S
C401 H423 0.950 . S
C402 N398 1.332 . S
C402 C401 1.382 . S
C402 H404 0.952 . S
C403 N398 1.332 . S
C403 C399 1.382 . S
C403 H405 0.948 . S
H404 C402 0.952 . S
H405 C403 0.948 . S
H406 C395 0.952 . S
H407 C397 0.948 . S
C408 C374 1.395 . S
C408 C378 1.391 . S
C409 C371 1.389 . S
C409 C391 1.392 . S
C410 C381 1.392 . S
C410 C383 1.389 . S
C411 C386 1.395 . S
C411 C388 1.391 . S
H412 C372 0.951 . S
H413 C373 0.950 . S
H414 C379 0.949 . S
H415 C380 0.950 . S
H416 C384 0.951 . S
H417 C385 0.950 . S
H418 C389 0.949 . S
H419 C390 0.950 . S
H420 C394 0.950 . S
H421 C396 0.950 . S
H422 C399 0.950 . S
H423 C401 0.950 . S
C424 C425 1.443 . S
C424 N428 1.376 . S
C424 C462 1.389 . S
C425 C424 1.443 . S
C425 C426 1.340 . S
C425 H465 0.951 . S
C426 C425 1.340 . S
C426 C427 1.439 . S
C426 H466 0.950 . S
C427 C426 1.439 . S
C427 N428 1.374 . S
C427 C461 1.395 . S
N428 C424 1.376 . S
N428 C427 1.374 . S
N428 Co429 2.008 . S
Co429 N428 2.008 . S
Co429 N430 1.995 . S
Co429 N435 2.008 . S
Co429 N440 1.995 . S
Co429 N445 2.282 . S
Co429 N451 2.282 . S
N430 Co429 1.995 . S
N430 C431 1.376 . S
N430 C434 1.383 . S
C431 N430 1.376 . S
C431 C432 1.446 . S
C431 C461 1.391 . S
C432 C431 1.446 . S
C432 C433 1.339 . S
C432 H467 0.949 . S
C433 C432 1.339 . S
C433 C434 1.439 . S
C433 H468 0.950 . S
C434 N430 1.383 . S
C434 C433 1.439 . S
C434 C463 1.392 . S
N435 Co429 2.008 . S
N435 C436 1.376 . S
N435 C439 1.374 . S
C436 N435 1.376 . S
C436 C437 1.443 . S
C436 C463 1.389 . S
C437 C436 1.443 . S
C437 C438 1.340 . S
C437 H469 0.951 . S
C438 C437 1.340 . S
C438 C439 1.439 . S
C438 H470 0.950 . S
C439 N435 1.374 . S
C439 C438 1.439 . S
C439 C464 1.395 . S
N440 Co429 1.995 . S
N440 C441 1.376 . S
N440 C444 1.383 . S
C441 N440 1.376 . S
C441 C442 1.446 . S
C441 C464 1.391 . S
C442 C441 1.446 . S
C442 C443 1.339 . S
C442 H471 0.949 . S
C443 C442 1.339 . S
C443 C444 1.439 . S
C443 H472 0.950 . S
C444 N440 1.383 . S
C444 C443 1.439 . S
C444 C462 1.392 . S
N445 Co429 2.282 . S
N445 C448 1.332 . S
N445 C450 1.332 . S
C446 C447 1.386 . S
C446 C449 1.388 . S
C447 C446 1.386 . S
C447 C448 1.382 . S
C447 H473 0.950 . S
C448 N445 1.332 . S
C448 C447 1.382 . S
C448 H459 0.952 . S
C449 C446 1.388 . S
C449 C450 1.382 . S
C449 H474 0.950 . S
C450 N445 1.332 . S
C450 C449 1.382 . S
C450 H460 0.948 . S
N451 Co429 2.282 . S
N451 C455 1.332 . S
N451 C456 1.332 . S
C452 C453 1.388 . S
C452 C456 1.382 . S
C452 H475 0.950 . S
C453 C452 1.388 . S
C453 C454 1.386 . S
C454 C453 1.386 . S
C454 C455 1.382 . S
C454 H476 0.950 . S
C455 N451 1.332 . S
C455 C454 1.382 . S
C455 H457 0.952 . S
C456 N451 1.332 . S
C456 C452 1.382 . S
C456 H458 0.948 . S
H457 C455 0.952 . S
H458 C456 0.948 . S
H459 C448 0.952 . S
H460 C450 0.948 . S
C461 C427 1.395 . S
C461 C431 1.391 . S
C462 C424 1.389 . S
C462 C444 1.392 . S
C463 C434 1.392 . S
C463 C436 1.389 . S
C464 C439 1.395 . S
C464 C441 1.391 . S
H465 C425 0.951 . S
H466 C426 0.950 . S
H467 C432 0.949 . S
H468 C433 0.950 . S
H469 C437 0.951 . S
H470 C438 0.950 . S
H471 C442 0.949 . S
H472 C443 0.950 . S
H473 C447 0.950 . S
H474 C449 0.950 . S
H475 C452 0.950 . S
H476 C454 0.950 . S
C477 C478 1.443 . S
C477 N481 1.376 1_556 S
C477 C515 1.389 . S
C478 C477 1.443 . S
C478 C479 1.340 . S
C478 H518 0.951 . S
C479 C478 1.340 . S
C479 C480 1.439 1_556 S
C479 H519 0.950 . S
C480 C479 1.439 1_554 S
C480 N481 1.374 . S
C480 C514 1.395 . S
N481 C477 1.376 1_554 S
N481 C480 1.374 . S
N481 Co482 2.008 . S
Co482 N481 2.008 . S
Co482 N483 1.995 . S
Co482 N488 2.008 . S
Co482 N493 1.995 . S
Co482 N498 2.282 . S
Co482 N504 2.282 . S
N483 Co482 1.995 . S
N483 C484 1.376 . S
N483 C487 1.383 . S
C484 N483 1.376 . S
C484 C485 1.446 . S
C484 C514 1.391 . S
C485 C484 1.446 . S
C485 C486 1.339 . S
C485 H520 0.949 . S
C486 C485 1.339 . S
C486 C487 1.439 . S
C486 H521 0.950 . S
C487 N483 1.383 . S
C487 C486 1.439 . S
C487 C516 1.392 . S
N488 Co482 2.008 . S
N488 C489 1.376 . S
N488 C492 1.374 . S
C489 N488 1.376 . S
C489 C490 1.443 . S
C489 C516 1.389 . S
C490 C489 1.443 . S
C490 C491 1.340 . S
C490 H522 0.951 . S
C491 C490 1.340 . S
C491 C492 1.439 . S
C491 H523 0.950 . S
C492 N488 1.374 . S
C492 C491 1.439 . S
C492 C517 1.395 . S
N493 Co482 1.995 . S
N493 C494 1.376 . S
N493 C497 1.383 1_554 S
C494 N493 1.376 . S
C494 C495 1.446 1_554 S
C494 C517 1.391 . S
C495 C494 1.446 1_556 S
C495 C496 1.339 . S
C495 H524 0.949 . S
C496 C495 1.339 . S
C496 C497 1.439 . S
C496 H525 0.950 . S
C497 N493 1.383 1_556 S
C497 C496 1.439 . S
C497 C515 1.392 . S
N498 Co482 2.282 . S
N498 C501 1.332 . S
N498 C503 1.332 . S
C499 C500 1.386 . S
C499 C502 1.388 . S
C500 C499 1.386 . S
C500 C501 1.382 . S
C500 H526 0.950 . S
C501 N498 1.332 . S
C501 C500 1.382 . S
C501 H512 0.952 . S
C502 C499 1.388 . S
C502 C503 1.382 . S
C502 H527 0.950 . S
C503 N498 1.332 . S
C503 C502 1.382 . S
C503 H513 0.948 . S
N504 Co482 2.282 . S
N504 C508 1.332 . S
N504 C509 1.332 . S
C505 C506 1.388 . S
C505 C509 1.382 . S
C505 H528 0.950 1_554 S
C506 C505 1.388 . S
C506 C507 1.386 . S
C507 C506 1.386 . S
C507 C508 1.382 . S
C507 H529 0.950 . S
C508 N504 1.332 . S
C508 C507 1.382 . S
C508 H510 0.952 . S
C509 N504 1.332 . S
C509 C505 1.382 . S
C509 H511 0.948 . S
H510 C508 0.952 . S
H511 C509 0.948 . S
H512 C501 0.952 . S
H513 C503 0.948 . S
C514 C480 1.395 . S
C514 C484 1.391 . S
C515 C477 1.389 . S
C515 C497 1.392 . S
C516 C487 1.392 . S
C516 C489 1.389 . S
C517 C492 1.395 . S
C517 C494 1.391 . S
H518 C478 0.951 . S
H519 C479 0.950 . S
H520 C485 0.949 . S
H521 C486 0.950 . S
H522 C490 0.951 . S
H523 C491 0.950 . S
H524 C495 0.949 . S
H525 C496 0.950 . S
H526 C500 0.950 . S
H527 C502 0.950 . S
H528 C505 0.950 1_556 S
H529 C507 0.950 . S
C530 C531 1.443 . S
C530 N534 1.376 . S
C530 C568 1.389 . S
C531 C530 1.443 . S
C531 C532 1.340 . S
C531 H571 0.951 . S
C532 C531 1.340 . S
C532 C533 1.439 . S
C532 H572 0.950 . S
C533 C532 1.439 . S
C533 N534 1.374 . S
C533 C567 1.395 . S
N534 C530 1.376 . S
N534 C533 1.374 . S
N534 Co535 2.008 . S
Co535 N534 2.008 . S
Co535 N536 1.995 . S
Co535 N541 2.008 . S
Co535 N546 1.995 . S
Co535 N551 2.282 . S
Co535 N557 2.282 . S
N536 Co535 1.995 . S
N536 C537 1.376 . S
N536 C540 1.383 . S
C537 N536 1.376 . S
C537 C538 1.446 . S
C537 C567 1.391 . S
C538 C537 1.446 . S
C538 C539 1.339 . S
C538 H573 0.949 . S
C539 C538 1.339 . S
C539 C540 1.439 . S
C539 H574 0.950 . S
C540 N536 1.383 . S
C540 C539 1.439 . S
C540 C569 1.392 . S
N541 Co535 2.008 . S
N541 C542 1.376 . S
N541 C545 1.374 . S
C542 N541 1.376 . S
C542 C543 1.443 . S
C542 C569 1.389 . S
C543 C542 1.443 . S
C543 C544 1.340 . S
C543 H575 0.951 . S
C544 C543 1.340 . S
C544 C545 1.439 . S
C544 H576 0.950 . S
C545 N541 1.374 . S
C545 C544 1.439 . S
C545 C570 1.395 . S
N546 Co535 1.995 . S
N546 C547 1.376 . S
N546 C550 1.383 . S
C547 N546 1.376 . S
C547 C548 1.446 . S
C547 C570 1.391 . S
C548 C547 1.446 . S
C548 C549 1.339 . S
C548 H577 0.949 . S
C549 C548 1.339 . S
C549 C550 1.439 . S
C549 H578 0.950 . S
C550 N546 1.383 . S
C550 C549 1.439 . S
C550 C568 1.392 . S
N551 Co535 2.282 . S
N551 C554 1.332 . S
N551 C556 1.332 . S
C552 C553 1.386 . S
C552 C555 1.388 . S
C553 C552 1.386 . S
C553 C554 1.382 . S
C553 H579 0.950 . S
C554 N551 1.332 . S
C554 C553 1.382 . S
C554 H565 0.952 . S
C555 C552 1.388 . S
C555 C556 1.382 . S
C555 H580 0.950 . S
C556 N551 1.332 . S
C556 C555 1.382 . S
C556 H566 0.948 . S
N557 Co535 2.282 . S
N557 C561 1.332 . S
N557 C562 1.332 . S
C558 C559 1.388 . S
C558 C562 1.382 . S
C558 H581 0.950 . S
C559 C558 1.388 . S
C559 C560 1.386 . S
C560 C559 1.386 . S
C560 C561 1.382 . S
C560 H582 0.950 . S
C561 N557 1.332 . S
C561 C560 1.382 . S
C561 H563 0.952 . S
C562 N557 1.332 . S
C562 C558 1.382 . S
C562 H564 0.948 . S
H563 C561 0.952 . S
H564 C562 0.948 . S
H565 C554 0.952 . S
H566 C556 0.948 . S
C567 C533 1.395 . S
C567 C537 1.391 . S
C568 C530 1.389 . S
C568 C550 1.392 . S
C569 C540 1.392 . S
C569 C542 1.389 . S
C570 C545 1.395 . S
C570 C547 1.391 . S
H571 C531 0.951 . S
H572 C532 0.950 . S
H573 C538 0.949 . S
H574 C539 0.950 . S
H575 C543 0.951 . S
H576 C544 0.950 . S
H577 C548 0.949 . S
H578 C549 0.950 . S
H579 C553 0.950 . S
H580 C555 0.950 . S
H581 C558 0.950 . S
H582 C560 0.950 . S
C583 C584 1.443 . S
C583 N587 1.376 . S
C583 C621 1.389 . S
C584 C583 1.443 . S
C584 C585 1.340 . S
C584 H624 0.951 . S
C585 C584 1.340 . S
C585 C586 1.439 . S
C585 H625 0.950 . S
C586 C585 1.439 . S
C586 N587 1.374 . S
C586 C620 1.395 . S
N587 C583 1.376 . S
N587 C586 1.374 . S
N587 Co588 2.008 . S
Co588 N587 2.008 . S
Co588 N589 1.995 . S
Co588 N594 2.008 . S
Co588 N599 1.995 . S
Co588 N604 2.282 . S
Co588 N610 2.282 . S
N589 Co588 1.995 . S
N589 C590 1.376 . S
N589 C593 1.383 . S
C590 N589 1.376 . S
C590 C591 1.446 . S
C590 C620 1.391 . S
C591 C590 1.446 . S
C591 C592 1.339 . S
C591 H626 0.949 . S
C592 C591 1.339 . S
C592 C593 1.439 . S
C592 H627 0.950 . S
C593 N589 1.383 . S
C593 C592 1.439 . S
C593 C622 1.392 . S
N594 Co588 2.008 . S
N594 C595 1.376 . S
N594 C598 1.374 . S
C595 N594 1.376 . S
C595 C596 1.443 . S
C595 C622 1.389 . S
C596 C595 1.443 . S
C596 C597 1.340 . S
C596 H628 0.951 . S
C597 C596 1.340 . S
C597 C598 1.439 . S
C597 H629 0.950 . S
C598 N594 1.374 . S
C598 C597 1.439 . S
C598 C623 1.395 . S
N599 Co588 1.995 . S
N599 C600 1.376 . S
N599 C603 1.383 . S
C600 N599 1.376 . S
C600 C601 1.446 . S
C600 C623 1.391 . S
C601 C600 1.446 . S
C601 C602 1.339 . S
C601 H630 0.949 . S
C602 C601 1.339 . S
C602 C603 1.439 . S
C602 H631 0.950 . S
C603 N599 1.383 . S
C603 C602 1.439 . S
C603 C621 1.392 . S
N604 Co588 2.282 . S
N604 C607 1.332 . S
N604 C609 1.332 . S
C605 C606 1.386 . S
C605 C608 1.388 . S
C606 C605 1.386 . S
C606 C607 1.382 . S
C606 H632 0.950 . S
C607 N604 1.332 . S
C607 C606 1.382 . S
C607 H618 0.952 . S
C608 C605 1.388 . S
C608 C609 1.382 . S
C608 H633 0.950 . S
C609 N604 1.332 . S
C609 C608 1.382 . S
C609 H619 0.948 . S
N610 Co588 2.282 . S
N610 C614 1.332 . S
N610 C615 1.332 . S
C611 C612 1.388 . S
C611 C615 1.382 . S
C611 H634 0.950 . S
C612 C611 1.388 . S
C612 C613 1.386 . S
C613 C612 1.386 . S
C613 C614 1.382 . S
C613 H635 0.950 . S
C614 N610 1.332 . S
C614 C613 1.382 . S
C614 H616 0.952 . S
C615 N610 1.332 . S
C615 C611 1.382 . S
C615 H617 0.948 . S
H616 C614 0.952 . S
H617 C615 0.948 . S
H618 C607 0.952 . S
H619 C609 0.948 . S
C620 C586 1.395 . S
C620 C590 1.391 . S
C621 C583 1.389 . S
C621 C603 1.392 . S
C622 C593 1.392 . S
C622 C595 1.389 . S
C623 C598 1.395 . S
C623 C600 1.391 . S
H624 C584 0.951 . S
H625 C585 0.950 . S
H626 C591 0.949 . S
H627 C592 0.950 . S
H628 C596 0.951 . S
H629 C597 0.950 . S
H630 C601 0.949 . S
H631 C602 0.950 . S
H632 C606 0.950 . S
H633 C608 0.950 . S
H634 C611 0.950 . S
H635 C613 0.950 . S
C636 C637 1.443 . S
C636 N640 1.376 . S
C636 C674 1.389 . S
C637 C636 1.443 . S
C637 C638 1.340 . S
C637 H677 0.951 . S
C638 C637 1.340 . S
C638 C639 1.439 . S
C638 H678 0.950 . S
C639 C638 1.439 . S
C639 N640 1.374 . S
C639 C673 1.395 . S
N640 C636 1.376 . S
N640 C639 1.374 . S
N640 Co641 2.008 . S
Co641 N640 2.008 . S
Co641 N642 1.995 . S
Co641 N647 2.008 . S
Co641 N652 1.995 . S
Co641 N657 2.282 . S
Co641 N663 2.282 . S
N642 Co641 1.995 . S
N642 C643 1.376 . S
N642 C646 1.383 . S
C643 N642 1.376 . S
C643 C644 1.446 . S
C643 C673 1.391 . S
C644 C643 1.446 . S
C644 C645 1.339 . S
C644 H679 0.949 . S
C645 C644 1.339 . S
C645 C646 1.439 . S
C645 H680 0.950 . S
C646 N642 1.383 . S
C646 C645 1.439 . S
C646 C675 1.392 . S
N647 Co641 2.008 . S
N647 C648 1.376 . S
N647 C651 1.374 . S
C648 N647 1.376 . S
C648 C649 1.443 . S
C648 C675 1.389 . S
C649 C648 1.443 . S
C649 C650 1.340 . S
C649 H681 0.951 . S
C650 C649 1.340 . S
C650 C651 1.439 . S
C650 H682 0.950 . S
C651 N647 1.374 . S
C651 C650 1.439 . S
C651 C676 1.395 . S
N652 Co641 1.995 . S
N652 C653 1.376 . S
N652 C656 1.383 . S
C653 N652 1.376 . S
C653 C654 1.446 . S
C653 C676 1.391 . S
C654 C653 1.446 . S
C654 C655 1.339 . S
C654 H683 0.949 . S
C655 C654 1.339 . S
C655 C656 1.439 . S
C655 H684 0.950 . S
C656 N652 1.383 . S
C656 C655 1.439 . S
C656 C674 1.392 . S
N657 Co641 2.282 . S
N657 C660 1.332 . S
N657 C662 1.332 . S
C658 C659 1.386 . S
C658 C661 1.388 . S
C659 C658 1.386 . S
C659 C660 1.382 . S
C659 H685 0.950 . S
C660 N657 1.332 . S
C660 C659 1.382 . S
C660 H671 0.952 . S
C661 C658 1.388 . S
C661 C662 1.382 . S
C661 H686 0.950 . S
C662 N657 1.332 . S
C662 C661 1.382 . S
C662 H672 0.948 . S
N663 Co641 2.282 . S
N663 C667 1.332 . S
N663 C668 1.332 . S
C664 C665 1.388 . S
C664 C668 1.382 . S
C664 H687 0.950 . S
C665 C664 1.388 . S
C665 C666 1.386 . S
C666 C665 1.386 . S
C666 C667 1.382 . S
C666 H688 0.950 . S
C667 N663 1.332 . S
C667 C666 1.382 . S
C667 H669 0.952 . S
C668 N663 1.332 . S
C668 C664 1.382 . S
C668 H670 0.948 . S
H669 C667 0.952 . S
H670 C668 0.948 . S
H671 C660 0.952 . S
H672 C662 0.948 . S
C673 C639 1.395 . S
C673 C643 1.391 . S
C674 C636 1.389 . S
C674 C656 1.392 . S
C675 C646 1.392 . S
C675 C648 1.389 . S
C676 C651 1.395 . S
C676 C653 1.391 . S
H677 C637 0.951 . S
H678 C638 0.950 . S
H679 C644 0.949 . S
H680 C645 0.950 . S
H681 C649 0.951 . S
H682 C650 0.950 . S
H683 C654 0.949 . S
H684 C655 0.950 . S
H685 C659 0.950 . S
H686 C661 0.950 . S
H687 C664 0.950 . S
H688 C666 0.950 . S
C689 C690 1.443 . S
C689 N693 1.376 . S
C689 C727 1.389 . S
C690 C689 1.443 . S
C690 C691 1.340 . S
C690 H730 0.951 . S
C691 C690 1.340 . S
C691 C692 1.439 . S
C691 H731 0.950 . S
C692 C691 1.439 . S
C692 N693 1.374 . S
C692 C726 1.395 . S
N693 C689 1.376 . S
N693 C692 1.374 . S
N693 Co694 2.008 . S
Co694 N693 2.008 . S
Co694 N695 1.995 . S
Co694 N700 2.008 . S
Co694 N705 1.995 . S
Co694 N710 2.282 . S
Co694 N716 2.282 . S
N695 Co694 1.995 . S
N695 C696 1.376 . S
N695 C699 1.383 . S
C696 N695 1.376 . S
C696 C697 1.446 . S
C696 C726 1.391 . S
C697 C696 1.446 . S
C697 C698 1.339 . S
C697 H732 0.949 . S
C698 C697 1.339 . S
C698 C699 1.439 . S
C698 H733 0.950 . S
C699 N695 1.383 . S
C699 C698 1.439 . S
C699 C728 1.392 . S
N700 Co694 2.008 . S
N700 C701 1.376 . S
N700 C704 1.374 . S
C701 N700 1.376 . S
C701 C702 1.443 . S
C701 C728 1.389 . S
C702 C701 1.443 . S
C702 C703 1.340 . S
C702 H734 0.951 . S
C703 C702 1.340 . S
C703 C704 1.439 . S
C703 H735 0.950 . S
C704 N700 1.374 . S
C704 C703 1.439 . S
C704 C729 1.395 . S
N705 Co694 1.995 . S
N705 C706 1.376 . S
N705 C709 1.383 . S
C706 N705 1.376 . S
C706 C707 1.446 . S
C706 C729 1.391 . S
C707 C706 1.446 . S
C707 C708 1.339 . S
C707 H736 0.949 . S
C708 C707 1.339 . S
C708 C709 1.439 . S
C708 H737 0.950 . S
C709 N705 1.383 . S
C709 C708 1.439 . S
C709 C727 1.392 . S
N710 Co694 2.282 . S
N710 C713 1.332 . S
N710 C715 1.332 . S
C711 C712 1.386 . S
C711 C714 1.388 . S
C712 C711 1.386 . S
C712 C713 1.382 . S
C712 H738 0.950 . S
C713 N710 1.332 . S
C713 C712 1.382 . S
C713 H724 0.952 . S
C714 C711 1.388 . S
C714 C715 1.382 . S
C714 H739 0.950 . S
C715 N710 1.332 . S
C715 C714 1.382 . S
C715 H725 0.948 . S
N716 Co694 2.282 . S
N716 C720 1.332 . S
N716 C721 1.332 . S
C717 C718 1.388 . S
C717 C721 1.382 . S
C717 H740 0.950 . S
C718 C717 1.388 . S
C718 C719 1.386 . S
C719 C718 1.386 . S
C719 C720 1.382 . S
C719 H741 0.950 . S
C720 N716 1.332 . S
C720 C719 1.382 . S
C720 H722 0.952 . S
C721 N716 1.332 . S
C721 C717 1.382 . S
C721 H723 0.948 . S
H722 C720 0.952 . S
H723 C721 0.948 . S
H724 C713 0.952 . S
H725 C715 0.948 . S
C726 C692 1.395 . S
C726 C696 1.391 . S
C727 C689 1.389 . S
C727 C709 1.392 . S
C728 C699 1.392 . S
C728 C701 1.389 . S
C729 C704 1.395 . S
C729 C706 1.391 . S
H730 C690 0.951 . S
H731 C691 0.950 . S
H732 C697 0.949 . S
H733 C698 0.950 . S
H734 C702 0.951 . S
H735 C703 0.950 . S
H736 C707 0.949 . S
H737 C708 0.950 . S
H738 C712 0.950 . S
H739 C714 0.950 . S
H740 C717 0.950 . S
H741 C719 0.950 . S
C742 C743 1.436 1_554 S
C742 N746 1.384 . S
C742 C780 1.388 1_554 S
C743 C742 1.436 1_556 S
C743 C744 1.340 . S
C743 H783 0.951 . S
C744 C743 1.340 . S
C744 C745 1.439 1_556 S
C744 H784 0.950 . S
C745 C744 1.439 1_554 S
C745 N746 1.374 . S
C745 C779 1.395 . S
N746 C742 1.384 . S
N746 C745 1.374 . S
N746 Co747 2.008 . S
Co747 N746 2.008 . S
Co747 N748 1.995 . S
Co747 N753 2.008 . S
Co747 N758 1.995 . S
Co747 N763 2.282 . S
Co747 N769 2.282 1_554 S
N748 Co747 1.995 . S
N748 C749 1.376 . S
N748 C752 1.383 . S
C749 N748 1.376 . S
C749 C750 1.446 . S
C749 C779 1.391 . S
C750 C749 1.446 . S
C750 C751 1.339 . S
C750 H785 0.949 . S
C751 C750 1.339 . S
C751 C752 1.439 . S
C751 H786 0.950 . S
C752 N748 1.383 . S
C752 C751 1.439 . S
C752 C781 1.392 . S
N753 Co747 2.008 . S
N753 C754 1.376 . S
N753 C757 1.374 . S
C754 N753 1.376 . S
C754 C755 1.443 . S
C754 C781 1.389 . S
C755 C754 1.443 . S
C755 C756 1.340 . S
C755 H787 0.951 . S
C756 C755 1.340 . S
C756 C757 1.439 . S
C756 H788 0.950 . S
C757 N753 1.374 . S
C757 C756 1.439 . S
C757 C782 1.395 . S
N758 Co747 1.995 . S
N758 C759 1.376 . S
N758 C762 1.383 . S
C759 N758 1.376 . S
C759 C760 1.446 . S
C759 C782 1.391 . S
C760 C759 1.446 . S
C760 C761 1.339 . S
C760 H789 0.949 . S
C761 C760 1.339 . S
C761 C762 1.439 . S
C761 H790 0.958 . S
C762 N758 1.383 . S
C762 C761 1.439 . S
C762 C780 1.389 1_554 S
N763 Co747 2.282 . S
N763 C766 1.332 . S
N763 C768 1.332 . S
C764 C765 1.386 . S
C764 C767 1.388 . S
C765 C764 1.386 . S
C765 C766 1.382 . S
C765 H791 0.950 . S
C766 N763 1.332 . S
C766 C765 1.382 . S
C766 H777 0.952 . S
C767 C764 1.388 . S
C767 C768 1.382 . S
C767 H792 0.950 . S
C768 N763 1.332 . S
C768 C767 1.382 . S
C768 H778 0.948 . S
N769 Co747 2.282 1_556 S
N769 C773 1.332 . S
N769 C774 1.332 . S
C770 C771 1.388 . S
C770 C774 1.382 . S
C770 H793 0.950 . S
C771 C770 1.388 . S
C771 C772 1.386 . S
C772 C771 1.386 . S
C772 C773 1.382 . S
C772 H794 0.950 . S
C773 N769 1.332 . S
C773 C772 1.382 . S
C773 H775 0.952 . S
C774 N769 1.332 . S
C774 C770 1.382 . S
C774 H776 0.948 . S
H775 C773 0.952 . S
H776 C774 0.948 . S
H777 C766 0.952 . S
H778 C768 0.948 . S
C779 C745 1.395 . S
C779 C749 1.391 . S
C780 C742 1.388 1_556 S
C780 C762 1.389 1_556 S
C781 C752 1.392 . S
C781 C754 1.389 . S
C782 C757 1.395 . S
C782 C759 1.391 . S
H783 C743 0.951 . S
H784 C744 0.950 . S
H785 C750 0.949 . S
H786 C751 0.950 . S
H787 C755 0.951 . S
H788 C756 0.950 . S
H789 C760 0.949 . S
H790 C761 0.958 . S
H791 C765 0.950 . S
H792 C767 0.950 . S
H793 C770 0.950 . S
H794 C772 0.950 . S
C795 C796 1.443 . S
C795 N799 1.376 . S
C795 C833 1.389 . S
C796 C795 1.443 . S
C796 C797 1.340 . S
C796 H836 0.951 . S
C797 C796 1.340 . S
C797 C798 1.439 . S
C797 H837 0.950 . S
C798 C797 1.439 . S
C798 N799 1.374 . S
C798 C832 1.395 . S
N799 C795 1.376 . S
N799 C798 1.374 . S
N799 Co800 2.008 . S
Co800 N799 2.008 . S
Co800 N801 1.995 . S
Co800 N806 2.008 . S
Co800 N811 1.995 . S
Co800 N816 2.282 . S
Co800 N822 2.282 . S
N801 Co800 1.995 . S
N801 C802 1.376 . S
N801 C805 1.383 . S
C802 N801 1.376 . S
C802 C803 1.446 . S
C802 C832 1.391 . S
C803 C802 1.446 . S
C803 C804 1.339 . S
C803 H838 0.949 . S
C804 C803 1.339 . S
C804 C805 1.439 . S
C804 H839 0.950 . S
C805 N801 1.383 . S
C805 C804 1.439 . S
C805 C834 1.392 . S
N806 Co800 2.008 . S
N806 C807 1.376 . S
N806 C810 1.374 . S
C807 N806 1.376 . S
C807 C808 1.443 . S
C807 C834 1.389 . S
C808 C807 1.443 . S
C808 C809 1.340 . S
C808 H840 0.951 . S
C809 C808 1.340 . S
C809 C810 1.439 . S
C809 H841 0.950 . S
C810 N806 1.374 . S
C810 C809 1.439 . S
C810 C835 1.395 . S
N811 Co800 1.995 . S
N811 C812 1.376 . S
N811 C815 1.383 . S
C812 N811 1.376 . S
C812 C813 1.446 . S
C812 C835 1.391 . S
C813 C812 1.446 . S
C813 C814 1.339 . S
C813 H842 0.949 . S
C814 C813 1.339 . S
C814 C815 1.439 . S
C814 H843 0.950 . S
C815 N811 1.383 . S
C815 C814 1.439 . S
C815 C833 1.392 . S
N816 Co800 2.282 . S
N816 C819 1.332 . S
N816 C821 1.332 . S
C817 C818 1.386 . S
C817 C820 1.388 . S
C818 C817 1.386 . S
C818 C819 1.382 . S
C818 H844 0.950 . S
C819 N816 1.332 . S
C819 C818 1.382 . S
C819 H830 0.952 . S
C820 C817 1.388 . S
C820 C821 1.382 . S
C820 H845 0.950 . S
C821 N816 1.332 . S
C821 C820 1.382 . S
C821 H831 0.948 . S
N822 Co800 2.282 . S
N822 C826 1.332 . S
N822 C827 1.332 . S
C823 C824 1.388 . S
C823 C827 1.382 . S
C823 H846 0.950 . S
C824 C823 1.388 . S
C824 C825 1.386 . S
C825 C824 1.386 . S
C825 C826 1.382 . S
C825 H847 0.950 . S
C826 N822 1.332 . S
C826 C825 1.382 . S
C826 H828 0.952 . S
C827 N822 1.332 . S
C827 C823 1.382 . S
C827 H829 0.948 . S
H828 C826 0.952 . S
H829 C827 0.948 . S
H830 C819 0.952 . S
H831 C821 0.948 . S
C832 C798 1.395 . S
C832 C802 1.391 . S
C833 C795 1.389 . S
C833 C815 1.392 . S
C834 C805 1.392 . S
C834 C807 1.389 . S
C835 C810 1.395 . S
C835 C812 1.391 . S
H836 C796 0.951 . S
H837 C797 0.950 . S
H838 C803 0.949 . S
H839 C804 0.950 . S
H840 C808 0.951 . S
H841 C809 0.950 . S
H842 C813 0.949 . S
H843 C814 0.950 . S
H844 C818 0.950 . S
H845 C820 0.950 . S
H846 C823 0.950 . S
H847 C825 0.950 . S
H848 C856 0.950 . S
H849 C861 0.950 . S
H850 C858 0.950 . S
H851 C860 0.950 . S
H852 C862 0.950 . S
H853 C864 0.950 . S
H854 C866 0.950 . S
H855 C867 0.950 . S
C856 H848 0.950 . S
C856 C857 1.386 . S
C856 C858 1.391 . S
C857 C856 1.386 . S
C857 C861 1.393 . S
C858 H850 0.950 . S
C858 C856 1.391 . S
C858 C859 1.400 . S
C859 C858 1.400 . S
C859 C860 1.398 . S
C859 C865 1.491 . S
C860 H851 0.950 . S
C860 C859 1.398 . S
C860 C861 1.391 . S
C861 H849 0.950 . S
C861 C857 1.393 . S
C861 C860 1.391 . S
C862 H852 0.950 . S
C862 C863 1.386 . S
C862 C864 1.391 . S
C863 C862 1.386 . S
C863 C867 1.393 . S
C864 H853 0.950 . S
C864 C862 1.391 . S
C864 C865 1.400 . S
C865 C859 1.491 . S
C865 C864 1.400 . S
C865 C866 1.398 . S
C866 H854 0.950 . S
C866 C865 1.398 . S
C866 C867 1.391 . S
C867 H855 0.950 . S
C867 C863 1.393 . S
C867 C866 1.391 . S
H868 C876 0.950 . S
H869 C881 0.950 . S
H870 C878 0.950 . S
H871 C880 0.950 . S
H872 C882 0.950 . S
H873 C884 0.950 . S
H874 C886 0.950 . S
H875 C887 0.950 . S
C876 H868 0.950 . S
C876 C877 1.386 . S
C876 C878 1.391 . S
C877 C876 1.386 . S
C877 C881 1.393 . S
C878 H870 0.950 . S
C878 C876 1.391 . S
C878 C879 1.400 . S
C879 C878 1.400 . S
C879 C880 1.398 . S
C879 C885 1.491 . S
C880 H871 0.950 . S
C880 C879 1.398 . S
C880 C881 1.391 . S
C881 H869 0.950 . S
C881 C877 1.393 . S
C881 C880 1.391 . S
C882 H872 0.950 . S
C882 C883 1.386 . S
C882 C884 1.391 . S
C883 C882 1.386 . S
C883 C887 1.393 . S
C884 H873 0.950 . S
C884 C882 1.391 . S
C884 C885 1.400 . S
C885 C879 1.491 . S
C885 C884 1.400 . S
C885 C886 1.398 . S
C886 H874 0.950 . S
C886 C885 1.398 . S
C886 C887 1.391 . S
C887 H875 0.950 . S
C887 C883 1.393 . S
C887 C886 1.391 . S
H888 C896 0.950 . S
H889 C901 0.950 . S
H890 C898 0.950 . S
H891 C900 0.950 . S
H892 C902 0.950 . S
H893 C904 0.950 . S
H894 C906 0.950 . S
H895 C907 0.950 . S
C896 H888 0.950 . S
C896 C897 1.386 . S
C896 C898 1.391 . S
C897 C896 1.386 . S
C897 C901 1.393 . S
C898 H890 0.950 . S
C898 C896 1.391 . S
C898 C899 1.400 . S
C899 C898 1.400 . S
C899 C900 1.398 . S
C899 C905 1.491 . S
C900 H891 0.950 . S
C900 C899 1.398 . S
C900 C901 1.391 . S
C901 H889 0.950 . S
C901 C897 1.393 . S
C901 C900 1.391 . S
C902 H892 0.950 . S
C902 C903 1.386 . S
C902 C904 1.391 . S
C903 C902 1.386 . S
C903 C907 1.393 . S
C904 H893 0.950 . S
C904 C902 1.391 . S
C904 C905 1.400 . S
C905 C899 1.491 . S
C905 C904 1.400 . S
C905 C906 1.398 . S
C906 H894 0.950 . S
C906 C905 1.398 . S
C906 C907 1.391 . S
C907 H895 0.950 . S
C907 C903 1.393 . S
C907 C906 1.391 . S
H908 C916 0.950 . S
H909 C921 0.950 . S
H910 C918 0.950 . S
H911 C920 0.950 . S
H912 C922 0.950 . S
H913 C924 0.950 . S
H914 C926 0.950 . S
H915 C927 0.950 . S
C916 H908 0.950 . S
C916 C917 1.386 . S
C916 C918 1.391 . S
C917 C916 1.386 . S
C917 C921 1.393 . S
C918 H910 0.950 . S
C918 C916 1.391 . S
C918 C919 1.400 . S
C919 C918 1.400 . S
C919 C920 1.398 . S
C919 C925 1.491 . S
C920 H911 0.950 . S
C920 C919 1.398 . S
C920 C921 1.391 . S
C921 H909 0.950 . S
C921 C917 1.393 . S
C921 C920 1.391 . S
C922 H912 0.950 . S
C922 C923 1.386 . S
C922 C924 1.391 . S
C923 C922 1.386 . S
C923 C927 1.393 . S
C924 H913 0.950 . S
C924 C922 1.391 . S
C924 C925 1.400 . S
C925 C919 1.491 . S
C925 C924 1.400 . S
C925 C926 1.398 . S
C926 H914 0.950 . S
C926 C925 1.398 . S
C926 C927 1.391 . S
C927 H915 0.950 . S
C927 C923 1.393 . S
C927 C926 1.391 . S
H928 C936 0.950 . S
H929 C941 0.950 . S
H930 C938 0.950 . S
H931 C940 0.950 . S
H932 C942 0.950 . S
H933 C944 0.950 . S
H934 C946 0.950 . S
H935 C947 0.950 . S
C936 H928 0.950 . S
C936 C937 1.386 . S
C936 C938 1.391 . S
C937 C936 1.386 . S
C937 C941 1.393 . S
C938 H930 0.950 . S
C938 C936 1.391 . S
C938 C939 1.400 . S
C939 C938 1.400 . S
C939 C940 1.398 . S
C939 C945 1.491 . S
C940 H931 0.950 . S
C940 C939 1.398 . S
C940 C941 1.391 . S
C941 H929 0.950 . S
C941 C937 1.393 . S
C941 C940 1.391 . S
C942 H932 0.950 . S
C942 C943 1.386 . S
C942 C944 1.391 . S
C943 C942 1.386 . S
C943 C947 1.393 . S
C944 H933 0.950 . S
C944 C942 1.391 . S
C944 C945 1.400 . S
C945 C939 1.491 . S
C945 C944 1.400 . S
C945 C946 1.398 . S
C946 H934 0.950 . S
C946 C945 1.398 . S
C946 C947 1.391 . S
C947 H935 0.950 . S
C947 C943 1.393 . S
C947 C946 1.391 . S
H948 C956 0.950 . S
H949 C961 0.950 . S
H950 C958 0.950 . S
H951 C960 0.950 . S
H952 C962 0.950 . S
H953 C964 0.950 . S
H954 C966 0.950 . S
H955 C967 0.950 . S
C956 H948 0.950 . S
C956 C957 1.386 . S
C956 C958 1.391 . S
C957 C956 1.386 . S
C957 C961 1.393 . S
C958 H950 0.950 . S
C958 C956 1.391 . S
C958 C959 1.400 . S
C959 C958 1.400 . S
C959 C960 1.398 . S
C959 C965 1.491 . S
C960 H951 0.950 . S
C960 C959 1.398 . S
C960 C961 1.391 . S
C961 H949 0.950 . S
C961 C957 1.393 . S
C961 C960 1.391 . S
C962 H952 0.950 . S
C962 C963 1.386 . S
C962 C964 1.391 . S
C963 C962 1.386 . S
C963 C967 1.393 . S
C964 H953 0.950 . S
C964 C962 1.391 . S
C964 C965 1.400 . S
C965 C959 1.491 . S
C965 C964 1.400 . S
C965 C966 1.398 . S
C966 H954 0.950 . S
C966 C965 1.398 . S
C966 C967 1.391 . S
C967 H955 0.950 . S
C967 C963 1.393 . S
C967 C966 1.391 . S
H968 C976 0.950 . S
H969 C981 0.950 . S
H970 C978 0.950 . S
H971 C980 0.950 . S
H972 C982 0.950 . S
H973 C984 0.950 . S
H974 C986 0.950 . S
H975 C987 0.950 . S
C976 H968 0.950 . S
C976 C977 1.386 . S
C976 C978 1.391 . S
C977 C976 1.386 . S
C977 C981 1.393 . S
C978 H970 0.950 . S
C978 C976 1.391 . S
C978 C979 1.400 . S
C979 C978 1.400 . S
C979 C980 1.398 . S
C979 C985 1.491 . S
C980 H971 0.950 . S
C980 C979 1.398 . S
C980 C981 1.391 . S
C981 H969 0.950 . S
C981 C977 1.393 . S
C981 C980 1.391 . S
C982 H972 0.950 . S
C982 C983 1.386 . S
C982 C984 1.391 . S
C983 C982 1.386 . S
C983 C987 1.393 . S
C984 H973 0.950 . S
C984 C982 1.391 . S
C984 C985 1.400 . S
C985 C979 1.491 . S
C985 C984 1.400 . S
C985 C986 1.398 . S
C986 H974 0.950 . S
C986 C985 1.398 . S
C986 C987 1.391 . S
C987 H975 0.950 . S
C987 C983 1.393 . S
C987 C986 1.391 . S
H988 C996 0.950 . S
H989 C1001 0.950 . S
H990 C998 0.950 . S
H991 C1000 0.950 . S
H992 C1002 0.950 . S
H993 C1004 0.950 . S
H994 C1006 0.950 . S
H995 C1007 0.950 . S
C996 H988 0.950 . S
C996 C997 1.386 . S
C996 C998 1.391 . S
C997 C996 1.386 . S
C997 C1001 1.393 . S
C998 H990 0.950 . S
C998 C996 1.391 . S
C998 C999 1.400 . S
C999 C998 1.400 . S
C999 C1000 1.398 . S
C999 C1005 1.491 . S
C1000 H991 0.950 . S
C1000 C999 1.398 . S
C1000 C1001 1.391 . S
C1001 H989 0.950 . S
C1001 C997 1.393 . S
C1001 C1000 1.391 . S
C1002 H992 0.950 . S
C1002 C1003 1.386 . S
C1002 C1004 1.391 . S
C1003 C1002 1.386 . S
C1003 C1007 1.393 . S
C1004 H993 0.950 . S
C1004 C1002 1.391 . S
C1004 C1005 1.400 . S
C1005 C999 1.491 . S
C1005 C1004 1.400 . S
C1005 C1006 1.398 . S
C1006 H994 0.950 . S
C1006 C1005 1.398 . S
C1006 C1007 1.391 . S
C1007 H995 0.950 . S
C1007 C1003 1.393 . S
C1007 C1006 1.391 . S
H1008 C1016 0.950 1_655 S
H1009 C1021 0.950 . S
H1010 C1018 0.950 . S
H1011 C1020 0.950 1_565 S
H1012 C1022 0.950 1_455 S
H1013 C1024 0.950 . S
H1014 C1026 0.950 1_545 S
H1015 C1027 0.950 . S
C1016 H1008 0.950 1_455 S
C1016 C1017 1.386 . S
C1016 C1018 1.391 1_455 S
C1017 C1016 1.386 . S
C1017 C1021 1.393 . S
C1018 H1010 0.950 . S
C1018 C1016 1.391 1_655 S
C1018 C1019 1.400 1_655 S
C1019 C1018 1.400 1_455 S
C1019 C1020 1.398 . S
C1019 C1025 1.491 1_445 S
C1020 H1011 0.950 1_545 S
C1020 C1019 1.398 . S
C1020 C1021 1.391 . S
C1021 H1009 0.950 . S
C1021 C1017 1.393 . S
C1021 C1020 1.391 . S
C1022 H1012 0.950 1_655 S
C1022 C1023 1.386 . S
C1022 C1024 1.391 1_655 S
C1023 C1022 1.386 . S
C1023 C1027 1.393 . S
C1024 H1013 0.950 . S
C1024 C1022 1.391 1_455 S
C1024 C1025 1.400 1_455 S
C1025 C1019 1.491 1_665 S
C1025 C1024 1.400 1_655 S
C1025 C1026 1.398 . S
C1026 H1014 0.950 1_565 S
C1026 C1025 1.398 . S
C1026 C1027 1.391 . S
C1027 H1015 0.950 . S
C1027 C1023 1.393 . S
C1027 C1026 1.391 . S
H1028 C1036 0.950 . S
H1029 C1041 0.950 . S
H1030 C1038 0.950 . S
H1031 C1040 0.950 1_455 S
H1032 C1042 0.950 . S
H1033 C1044 0.950 . S
H1034 C1046 0.950 1_655 S
H1035 C1047 0.950 . S
C1036 H1028 0.950 . S
C1036 C1037 1.386 . S
C1036 C1038 1.391 . S
C1037 C1036 1.386 . S
C1037 C1041 1.393 . S
C1038 H1030 0.950 . S
C1038 C1036 1.391 . S
C1038 C1039 1.400 . S
C1039 C1038 1.400 . S
C1039 C1040 1.398 . S
C1039 C1045 1.491 1_655 S
C1040 H1031 0.950 1_655 S
C1040 C1039 1.398 . S
C1040 C1041 1.391 . S
C1041 H1029 0.950 . S
C1041 C1037 1.393 . S
C1041 C1040 1.391 . S
C1042 H1032 0.950 . S
C1042 C1043 1.386 . S
C1042 C1044 1.391 . S
C1043 C1042 1.386 . S
C1043 C1047 1.393 . S
C1044 H1033 0.950 . S
C1044 C1042 1.391 . S
C1044 C1045 1.400 . S
C1045 C1039 1.491 1_455 S
C1045 C1044 1.400 . S
C1045 C1046 1.398 . S
C1046 H1034 0.950 1_455 S
C1046 C1045 1.398 . S
C1046 C1047 1.391 . S
C1047 H1035 0.950 . S
C1047 C1043 1.393 . S
C1047 C1046 1.391 . S
H1048 C1056 0.950 . S
H1049 C1061 0.950 . S
H1050 C1058 0.950 . S
H1051 C1060 0.950 . S
H1052 C1062 0.950 . S
H1053 C1064 0.950 . S
H1054 C1066 0.950 . S
H1055 C1067 0.950 . S
C1056 H1048 0.950 . S
C1056 C1057 1.386 . S
C1056 C1058 1.391 . S
C1057 C1056 1.386 . S
C1057 C1061 1.393 . S
C1058 H1050 0.950 . S
C1058 C1056 1.391 . S
C1058 C1059 1.400 . S
C1059 C1058 1.400 . S
C1059 C1060 1.398 . S
C1059 C1065 1.491 . S
C1060 H1051 0.950 . S
C1060 C1059 1.398 . S
C1060 C1061 1.391 . S
C1061 H1049 0.950 . S
C1061 C1057 1.393 . S
C1061 C1060 1.391 . S
C1062 H1052 0.950 . S
C1062 C1063 1.386 . S
C1062 C1064 1.391 . S
C1063 C1062 1.386 . S
C1063 C1067 1.393 . S
C1064 H1053 0.950 . S
C1064 C1062 1.391 . S
C1064 C1065 1.400 . S
C1065 C1059 1.491 . S
C1065 C1064 1.400 . S
C1065 C1066 1.398 . S
C1066 H1054 0.950 . S
C1066 C1065 1.398 . S
C1066 C1067 1.391 . S
C1067 H1055 0.950 . S
C1067 C1063 1.393 . S
C1067 C1066 1.391 . S
H1068 C1076 0.950 . S
H1069 C1081 0.950 . S
H1070 C1078 0.950 1_545 S
H1071 C1080 0.950 . S
H1072 C1082 0.950 . S
H1073 C1084 0.950 1_565 S
H1074 C1086 0.950 . S
H1075 C1087 0.950 . S
C1076 H1068 0.950 . S
C1076 C1077 1.371 1_554 S
C1076 C1078 1.391 . S
C1077 C1076 1.371 1_556 S
C1077 C1081 1.408 . S
C1078 H1070 0.950 1_565 S
C1078 C1076 1.391 . S
C1078 C1079 1.397 1_554 S
C1079 C1078 1.397 1_556 S
C1079 C1080 1.401 . S
C1079 C1085 1.490 1_566 S
C1080 H1071 0.950 . S
C1080 C1079 1.401 . S
C1080 C1081 1.391 . S
C1081 H1069 0.950 . S
C1081 C1077 1.408 . S
C1081 C1080 1.391 . S
C1082 H1072 0.950 . S
C1082 C1083 1.386 1_556 S
C1082 C1084 1.391 . S
C1083 C1082 1.386 1_554 S
C1083 C1087 1.393 . S
C1084 H1073 0.950 1_545 S
C1084 C1082 1.391 . S
C1084 C1085 1.385 1_556 S
C1085 C1079 1.490 1_544 S
C1085 C1084 1.385 1_554 S
C1085 C1086 1.414 . S
C1086 H1074 0.950 . S
C1086 C1085 1.414 . S
C1086 C1087 1.391 . S
C1087 H1075 0.950 . S
C1087 C1083 1.393 . S
C1087 C1086 1.391 . S
H1088 C1096 0.950 . S
H1089 C1101 0.931 1_556 S
H1090 C1098 0.950 . S
H1091 C1100 0.947 1_556 S
H1092 C1102 0.927 1_556 S
H1093 C1104 0.926 1_556 S
H1094 C1106 0.950 . S
H1095 C1107 0.950 . S
C1096 H1088 0.950 . S
C1096 C1097 1.386 . S
C1096 C1098 1.391 . S
C1097 C1096 1.386 . S
C1097 C1101 1.393 . S
C1098 H1090 0.950 . S
C1098 C1096 1.391 . S
C1098 C1099 1.400 . S
C1099 C1098 1.400 . S
C1099 C1100 1.398 . S
C1099 C1105 1.491 1_455 S
C1100 H1091 0.947 1_554 S
C1100 C1099 1.398 . S
C1100 C1101 1.391 . S
C1101 H1089 0.931 1_554 S
C1101 C1097 1.393 . S
C1101 C1100 1.391 . S
C1102 H1092 0.927 1_554 S
C1102 C1103 1.386 . S
C1102 C1104 1.391 . S
C1103 C1102 1.386 . S
C1103 C1107 1.393 . S
C1104 H1093 0.926 1_554 S
C1104 C1102 1.391 . S
C1104 C1105 1.400 . S
C1105 C1099 1.491 1_655 S
C1105 C1104 1.400 . S
C1105 C1106 1.398 . S
C1106 H1094 0.950 . S
C1106 C1105 1.398 . S
C1106 C1107 1.391 . S
C1107 H1095 0.950 . S
C1107 C1103 1.393 . S
C1107 C1106 1.391 . S
H1108 C1116 0.950 . S
H1109 C1121 0.950 . S
H1110 C1118 0.950 . S
H1111 C1120 0.950 . S
H1112 C1122 0.950 . S
H1113 C1124 0.950 . S
H1114 C1126 0.950 . S
H1115 C1127 0.950 . S
C1116 H1108 0.950 . S
C1116 C1117 1.386 . S
C1116 C1118 1.391 . S
C1117 C1116 1.386 . S
C1117 C1121 1.393 . S
C1118 H1110 0.950 . S
C1118 C1116 1.391 . S
C1118 C1119 1.400 . S
C1119 C1118 1.400 . S
C1119 C1120 1.398 . S
C1119 C1125 1.491 . S
C1120 H1111 0.950 . S
C1120 C1119 1.398 . S
C1120 C1121 1.391 . S
C1121 H1109 0.950 . S
C1121 C1117 1.393 . S
C1121 C1120 1.391 . S
C1122 H1112 0.950 . S
C1122 C1123 1.386 . S
C1122 C1124 1.391 . S
C1123 C1122 1.386 . S
C1123 C1127 1.393 . S
C1124 H1113 0.950 . S
C1124 C1122 1.391 . S
C1124 C1125 1.400 . S
C1125 C1119 1.491 . S
C1125 C1124 1.400 . S
C1125 C1126 1.398 . S
C1126 H1114 0.950 . S
C1126 C1125 1.398 . S
C1126 C1127 1.391 . S
C1127 H1115 0.950 . S
C1127 C1123 1.393 . S
C1127 C1126 1.391 . S
H1128 C1136 0.950 . S
H1129 C1141 0.950 . S
H1130 C1138 0.950 . S
H1131 C1140 0.950 1_565 S
H1132 C1142 0.950 . S
H1133 C1144 0.950 . S
H1134 C1146 0.950 1_545 S
H1135 C1147 0.950 . S
C1136 H1128 0.950 . S
C1136 C1137 1.386 . S
C1136 C1138 1.391 . S
C1137 C1136 1.386 . S
C1137 C1141 1.393 . S
C1138 H1130 0.950 . S
C1138 C1136 1.391 . S
C1138 C1139 1.400 . S
C1139 C1138 1.400 . S
C1139 C1140 1.398 . S
C1139 C1145 1.491 1_545 S
C1140 H1131 0.950 1_545 S
C1140 C1139 1.398 . S
C1140 C1141 1.391 . S
C1141 H1129 0.950 . S
C1141 C1137 1.393 . S
C1141 C1140 1.391 . S
C1142 H1132 0.950 . S
C1142 C1143 1.386 . S
C1142 C1144 1.391 . S
C1143 C1142 1.386 . S
C1143 C1147 1.393 . S
C1144 H1133 0.950 . S
C1144 C1142 1.391 . S
C1144 C1145 1.400 . S
C1145 C1139 1.491 1_565 S
C1145 C1144 1.400 . S
C1145 C1146 1.398 . S
C1146 H1134 0.950 1_565 S
C1146 C1145 1.398 . S
C1146 C1147 1.391 . S
C1147 H1135 0.950 . S
C1147 C1143 1.393 . S
C1147 C1146 1.391 . S
H1148 C1156 0.950 . S
H1149 C1161 0.950 . S
H1150 C1158 0.950 1_565 S
H1151 C1160 0.950 1_655 S
H1152 C1162 0.950 . S
H1153 C1164 0.950 1_545 S
H1154 C1166 0.950 1_455 S
H1155 C1167 0.950 . S
C1156 H1148 0.950 . S
C1156 C1157 1.386 . S
C1156 C1158 1.391 . S
C1157 C1156 1.386 . S
C1157 C1161 1.393 . S
C1158 H1150 0.950 1_545 S
C1158 C1156 1.391 . S
C1158 C1159 1.400 . S
C1159 C1158 1.400 . S
C1159 C1160 1.398 . S
C1159 C1165 1.491 1_445 S
C1160 H1151 0.950 1_455 S
C1160 C1159 1.398 . S
C1160 C1161 1.391 . S
C1161 H1149 0.950 . S
C1161 C1157 1.393 . S
C1161 C1160 1.391 . S
C1162 H1152 0.950 . S
C1162 C1163 1.386 . S
C1162 C1164 1.391 . S
C1163 C1162 1.386 . S
C1163 C1167 1.393 . S
C1164 H1153 0.950 1_565 S
C1164 C1162 1.391 . S
C1164 C1165 1.400 . S
C1165 C1159 1.491 1_665 S
C1165 C1164 1.400 . S
C1165 C1166 1.398 . S
C1166 H1154 0.950 1_655 S
C1166 C1165 1.398 . S
C1166 C1167 1.391 . S
C1167 H1155 0.950 . S
C1167 C1163 1.393 . S
C1167 C1166 1.391 . S
H1168 C1176 0.950 . S
H1169 C1181 0.950 . S
H1170 C1178 0.950 . S
H1171 C1180 0.950 . S
H1172 C1182 0.950 . S
H1173 C1184 0.950 . S
H1174 C1186 0.950 . S
H1175 C1187 0.950 . S
C1176 H1168 0.950 . S
C1176 C1177 1.386 . S
C1176 C1178 1.391 . S
C1177 C1176 1.386 . S
C1177 C1181 1.393 . S
C1178 H1170 0.950 . S
C1178 C1176 1.391 . S
C1178 C1179 1.400 . S
C1179 C1178 1.400 . S
C1179 C1180 1.398 . S
C1179 C1185 1.491 . S
C1180 H1171 0.950 . S
C1180 C1179 1.398 . S
C1180 C1181 1.391 . S
C1181 H1169 0.950 . S
C1181 C1177 1.393 . S
C1181 C1180 1.391 . S
C1182 H1172 0.950 . S
C1182 C1183 1.386 . S
C1182 C1184 1.391 . S
C1183 C1182 1.386 . S
C1183 C1187 1.393 . S
C1184 H1173 0.950 . S
C1184 C1182 1.391 . S
C1184 C1185 1.400 . S
C1185 C1179 1.491 . S
C1185 C1184 1.400 . S
C1185 C1186 1.398 . S
C1186 H1174 0.950 . S
C1186 C1185 1.398 . S
C1186 C1187 1.391 . S
C1187 H1175 0.950 . S
C1187 C1183 1.393 . S
C1187 C1186 1.391 . S
H1188 C1196 0.950 . S
H1189 C1201 0.950 . S
H1190 C1198 0.950 . S
H1191 C1200 0.950 . S
H1192 C1202 0.950 . S
H1193 C1204 0.950 . S
H1194 C1206 0.950 . S
H1195 C1207 0.950 . S
C1196 H1188 0.950 . S
C1196 C1197 1.386 . S
C1196 C1198 1.391 . S
C1197 C1196 1.386 . S
C1197 C1201 1.393 . S
C1198 H1190 0.950 . S
C1198 C1196 1.391 . S
C1198 C1199 1.400 . S
C1199 C1198 1.400 . S
C1199 C1200 1.398 . S
C1199 C1205 1.491 . S
C1200 H1191 0.950 . S
C1200 C1199 1.398 . S
C1200 C1201 1.391 . S
C1201 H1189 0.950 . S
C1201 C1197 1.393 . S
C1201 C1200 1.391 . S
C1202 H1192 0.950 . S
C1202 C1203 1.386 . S
C1202 C1204 1.391 . S
C1203 C1202 1.386 . S
C1203 C1207 1.393 . S
C1204 H1193 0.950 . S
C1204 C1202 1.391 . S
C1204 C1205 1.400 . S
C1205 C1199 1.491 . S
C1205 C1204 1.400 . S
C1205 C1206 1.398 . S
C1206 H1194 0.950 . S
C1206 C1205 1.398 . S
C1206 C1207 1.391 . S
C1207 H1195 0.950 . S
C1207 C1203 1.393 . S
C1207 C1206 1.391 . S
H1208 C1216 0.950 . S
H1209 C1221 0.950 . S
H1210 C1218 0.950 . S
H1211 C1220 0.950 . S
H1212 C1222 0.950 . S
H1213 C1224 0.950 . S
H1214 C1226 0.950 . S
H1215 C1227 0.950 . S
C1216 H1208 0.950 . S
C1216 C1217 1.386 . S
C1216 C1218 1.391 . S
C1217 C1216 1.386 . S
C1217 C1221 1.393 . S
C1218 H1210 0.950 . S
C1218 C1216 1.391 . S
C1218 C1219 1.400 . S
C1219 C1218 1.400 . S
C1219 C1220 1.398 . S
C1219 C1225 1.491 . S
C1220 H1211 0.950 . S
C1220 C1219 1.398 . S
C1220 C1221 1.391 . S
C1221 H1209 0.950 . S
C1221 C1217 1.393 . S
C1221 C1220 1.391 . S
C1222 H1212 0.950 . S
C1222 C1223 1.386 . S
C1222 C1224 1.391 1_556 S
C1223 C1222 1.386 . S
C1223 C1227 1.393 . S
C1224 H1213 0.950 . S
C1224 C1222 1.391 1_554 S
C1224 C1225 1.400 . S
C1225 C1219 1.491 . S
C1225 C1224 1.400 . S
C1225 C1226 1.398 . S
C1226 H1214 0.950 . S
C1226 C1225 1.398 . S
C1226 C1227 1.391 1_554 S
C1227 H1215 0.950 . S
C1227 C1223 1.393 . S
C1227 C1226 1.391 1_556 S
H1228 C1236 0.950 . S
H1229 C1241 0.950 . S
H1230 C1238 0.950 . S
H1231 C1240 0.950 . S
H1232 C1242 0.950 . S
H1233 C1244 0.950 . S
H1234 C1246 0.950 . S
H1235 C1247 0.950 . S
C1236 H1228 0.950 . S
C1236 C1237 1.386 . S
C1236 C1238 1.391 . S
C1237 C1236 1.386 . S
C1237 C1241 1.393 . S
C1238 H1230 0.950 . S
C1238 C1236 1.391 . S
C1238 C1239 1.400 . S
C1239 C1238 1.400 . S
C1239 C1240 1.398 . S
C1239 C1245 1.491 . S
C1240 H1231 0.950 . S
C1240 C1239 1.398 . S
C1240 C1241 1.391 . S
C1241 H1229 0.950 . S
C1241 C1237 1.393 . S
C1241 C1240 1.391 . S
C1242 H1232 0.950 . S
C1242 C1243 1.386 . S
C1242 C1244 1.391 . S
C1243 C1242 1.386 . S
C1243 C1247 1.393 . S
C1244 H1233 0.950 . S
C1244 C1242 1.391 . S
C1244 C1245 1.400 . S
C1245 C1239 1.491 . S
C1245 C1244 1.400 . S
C1245 C1246 1.398 . S
C1246 H1234 0.950 . S
C1246 C1245 1.398 . S
C1246 C1247 1.391 . S
C1247 H1235 0.950 . S
C1247 C1243 1.393 . S
C1247 C1246 1.391 . S
H1248 C1256 0.950 . S
H1249 C1261 0.950 . S
H1250 C1258 0.950 . S
H1251 C1260 0.950 . S
H1252 C1262 0.950 . S
H1253 C1264 0.950 . S
H1254 C1266 0.950 . S
H1255 C1267 0.950 . S
C1256 H1248 0.950 . S
C1256 C1257 1.386 . S
C1256 C1258 1.391 . S
C1257 C1256 1.386 . S
C1257 C1261 1.393 . S
C1258 H1250 0.950 . S
C1258 C1256 1.391 . S
C1258 C1259 1.400 . S
C1259 C1258 1.400 . S
C1259 C1260 1.398 . S
C1259 C1265 1.491 . S
C1260 H1251 0.950 . S
C1260 C1259 1.398 . S
C1260 C1261 1.391 . S
C1261 H1249 0.950 . S
C1261 C1257 1.393 . S
C1261 C1260 1.391 . S
C1262 H1252 0.950 . S
C1262 C1263 1.386 . S
C1262 C1264 1.391 . S
C1263 C1262 1.386 . S
C1263 C1267 1.393 . S
C1264 H1253 0.950 . S
C1264 C1262 1.391 . S
C1264 C1265 1.400 . S
C1265 C1259 1.491 . S
C1265 C1264 1.400 . S
C1265 C1266 1.398 . S
C1266 H1254 0.950 . S
C1266 C1265 1.398 . S
C1266 C1267 1.391 . S
C1267 H1255 0.950 . S
C1267 C1263 1.393 . S
C1267 C1266 1.391 . S
H1268 C1276 0.950 . S
H1269 C1281 0.950 . S
H1270 C1278 0.950 . S
H1271 C1280 0.950 . S
H1272 C1282 0.950 . S
H1273 C1284 0.950 . S
H1274 C1286 0.950 . S
H1275 C1287 0.950 . S
C1276 H1268 0.950 . S
C1276 C1277 1.386 . S
C1276 C1278 1.391 . S
C1277 C1276 1.386 . S
C1277 C1281 1.393 . S
C1278 H1270 0.950 . S
C1278 C1276 1.391 . S
C1278 C1279 1.400 . S
C1279 C1278 1.400 . S
C1279 C1280 1.398 . S
C1279 C1285 1.491 . S
C1280 H1271 0.950 . S
C1280 C1279 1.398 . S
C1280 C1281 1.391 . S
C1281 H1269 0.950 . S
C1281 C1277 1.393 . S
C1281 C1280 1.391 . S
C1282 H1272 0.950 . S
C1282 C1283 1.386 . S
C1282 C1284 1.391 1_556 S
C1283 C1282 1.386 . S
C1283 C1287 1.393 . S
C1284 H1273 0.950 . S
C1284 C1282 1.391 1_554 S
C1284 C1285 1.400 . S
C1285 C1279 1.491 . S
C1285 C1284 1.400 . S
C1285 C1286 1.398 . S
C1286 H1274 0.950 . S
C1286 C1285 1.398 . S
C1286 C1287 1.391 1_554 S
C1287 H1275 0.950 . S
C1287 C1283 1.393 . S
C1287 C1286 1.391 1_556 S
H1288 C1296 0.950 . S
H1289 C1301 0.950 . S
H1290 C1298 0.950 . S
H1291 C1300 0.950 . S
H1292 C1302 0.950 . S
H1293 C1304 0.950 . S
H1294 C1306 0.950 . S
H1295 C1307 0.950 . S
C1296 H1288 0.950 . S
C1296 C1297 1.386 . S
C1296 C1298 1.391 . S
C1297 C1296 1.386 . S
C1297 C1301 1.393 . S
C1298 H1290 0.950 . S
C1298 C1296 1.391 . S
C1298 C1299 1.400 . S
C1299 C1298 1.400 . S
C1299 C1300 1.398 . S
C1299 C1305 1.491 . S
C1300 H1291 0.950 . S
C1300 C1299 1.398 . S
C1300 C1301 1.391 . S
C1301 H1289 0.950 . S
C1301 C1297 1.393 . S
C1301 C1300 1.391 . S
C1302 H1292 0.950 . S
C1302 C1303 1.386 . S
C1302 C1304 1.391 . S
C1303 C1302 1.386 . S
C1303 C1307 1.393 . S
C1304 H1293 0.950 . S
C1304 C1302 1.391 . S
C1304 C1305 1.400 . S
C1305 C1299 1.491 . S
C1305 C1304 1.400 . S
C1305 C1306 1.398 . S
C1306 H1294 0.950 . S
C1306 C1305 1.398 . S
C1306 C1307 1.391 . S
C1307 H1295 0.950 . S
C1307 C1303 1.393 . S
C1307 C1306 1.391 . S
H1308 C1316 0.950 . S
H1309 C1321 0.950 . S
H1310 C1318 0.950 . S
H1311 C1320 0.950 . S
H1312 C1322 0.950 . S
H1313 C1324 0.950 . S
H1314 C1326 0.950 . S
H1315 C1327 0.950 . S
C1316 H1308 0.950 . S
C1316 C1317 1.386 . S
C1316 C1318 1.391 . S
C1317 C1316 1.386 . S
C1317 C1321 1.393 . S
C1318 H1310 0.950 . S
C1318 C1316 1.391 . S
C1318 C1319 1.400 . S
C1319 C1318 1.400 . S
C1319 C1320 1.398 . S
C1319 C1325 1.491 . S
C1320 H1311 0.950 . S
C1320 C1319 1.398 . S
C1320 C1321 1.391 . S
C1321 H1309 0.950 . S
C1321 C1317 1.393 . S
C1321 C1320 1.391 . S
C1322 H1312 0.950 . S
C1322 C1323 1.386 . S
C1322 C1324 1.391 . S
C1323 C1322 1.386 . S
C1323 C1327 1.393 . S
C1324 H1313 0.950 . S
C1324 C1322 1.391 . S
C1324 C1325 1.400 . S
C1325 C1319 1.491 . S
C1325 C1324 1.400 . S
C1325 C1326 1.398 . S
C1326 H1314 0.950 . S
C1326 C1325 1.398 . S
C1326 C1327 1.391 . S
C1327 H1315 0.950 . S
C1327 C1323 1.393 . S
C1327 C1326 1.391 . S
H1328 C1336 0.950 . S
H1329 C1341 0.950 . S
H1330 C1338 0.950 . S
H1331 C1340 0.950 1_554 S
H1332 C1342 0.950 . S
H1333 C1344 0.950 . S
H1334 C1346 0.950 . S
H1335 C1347 0.950 . S
C1336 H1328 0.950 . S
C1336 C1337 1.386 . S
C1336 C1338 1.391 . S
C1337 C1336 1.386 . S
C1337 C1341 1.393 . S
C1338 H1330 0.950 . S
C1338 C1336 1.391 . S
C1338 C1339 1.400 1_556 S
C1339 C1338 1.400 1_554 S
C1339 C1340 1.398 1_554 S
C1339 C1345 1.491 . S
C1340 H1331 0.950 1_556 S
C1340 C1339 1.398 1_556 S
C1340 C1341 1.391 . S
C1341 H1329 0.950 . S
C1341 C1337 1.393 . S
C1341 C1340 1.391 . S
C1342 H1332 0.950 . S
C1342 C1343 1.386 . S
C1342 C1344 1.391 . S
C1343 C1342 1.386 . S
C1343 C1347 1.393 . S
C1344 H1333 0.950 . S
C1344 C1342 1.391 . S
C1344 C1345 1.400 . S
C1345 C1339 1.491 . S
C1345 C1344 1.400 . S
C1345 C1346 1.398 . S
C1346 H1334 0.950 . S
C1346 C1345 1.398 . S
C1346 C1347 1.391 . S
C1347 H1335 0.950 . S
C1347 C1343 1.393 . S
C1347 C1346 1.391 . S
H1348 C1356 0.950 . S
H1349 C1361 0.950 . S
H1350 C1358 0.950 . S
H1351 C1360 0.950 . S
H1352 C1362 0.950 . S
H1353 C1364 0.950 . S
H1354 C1366 0.950 . S
H1355 C1367 0.950 . S
C1356 H1348 0.950 . S
C1356 C1357 1.386 . S
C1356 C1358 1.391 . S
C1357 C1356 1.386 . S
C1357 C1361 1.393 . S
C1358 H1350 0.950 . S
C1358 C1356 1.391 . S
C1358 C1359 1.400 . S
C1359 C1358 1.400 . S
C1359 C1360 1.398 . S
C1359 C1365 1.491 . S
C1360 H1351 0.950 . S
C1360 C1359 1.398 . S
C1360 C1361 1.391 . S
C1361 H1349 0.950 . S
C1361 C1357 1.393 . S
C1361 C1360 1.391 . S
C1362 H1352 0.950 . S
C1362 C1363 1.386 . S
C1362 C1364 1.391 . S
C1363 C1362 1.386 . S
C1363 C1367 1.393 . S
C1364 H1353 0.950 . S
C1364 C1362 1.391 . S
C1364 C1365 1.400 . S
C1365 C1359 1.491 . S
C1365 C1364 1.400 . S
C1365 C1366 1.398 . S
C1366 H1354 0.950 . S
C1366 C1365 1.398 . S
C1366 C1367 1.391 . S
C1367 H1355 0.950 . S
C1367 C1363 1.393 . S
C1367 C1366 1.391 . S
H1368 C1376 0.950 . S
H1369 C1381 0.950 . S
H1370 C1378 0.950 . S
H1371 C1380 0.950 . S
H1372 C1382 0.950 . S
H1373 C1384 0.950 . S
H1374 C1386 0.950 . S
H1375 C1387 0.950 . S
C1376 H1368 0.950 . S
C1376 C1377 1.386 . S
C1376 C1378 1.391 . S
C1377 C1376 1.386 . S
C1377 C1381 1.393 . S
C1378 H1370 0.950 . S
C1378 C1376 1.391 . S
C1378 C1379 1.400 . S
C1379 C1378 1.400 . S
C1379 C1380 1.398 . S
C1379 C1385 1.491 . S
C1380 H1371 0.950 . S
C1380 C1379 1.398 . S
C1380 C1381 1.391 . S
C1381 H1369 0.950 . S
C1381 C1377 1.393 . S
C1381 C1380 1.391 . S
C1382 H1372 0.950 . S
C1382 C1383 1.386 . S
C1382 C1384 1.391 . S
C1383 C1382 1.386 . S
C1383 C1387 1.393 . S
C1384 H1373 0.950 . S
C1384 C1382 1.391 . S
C1384 C1385 1.400 . S
C1385 C1379 1.491 . S
C1385 C1384 1.400 . S
C1385 C1386 1.398 . S
C1386 H1374 0.950 . S
C1386 C1385 1.398 . S
C1386 C1387 1.391 . S
C1387 H1375 0.950 . S
C1387 C1383 1.393 . S
C1387 C1386 1.391 . S
H1388 C1396 0.950 . S
H1389 C1401 0.950 . S
H1390 C1398 0.950 . S
H1391 C1400 0.950 . S
H1392 C1402 0.950 . S
H1393 C1404 0.950 . S
H1394 C1406 0.950 . S
H1395 C1407 0.950 . S
C1396 H1388 0.950 . S
C1396 C1397 1.386 . S
C1396 C1398 1.391 . S
C1397 C1396 1.386 . S
C1397 C1401 1.393 . S
C1398 H1390 0.950 . S
C1398 C1396 1.391 . S
C1398 C1399 1.400 . S
C1399 C1398 1.400 . S
C1399 C1400 1.398 . S
C1399 C1405 1.491 . S
C1400 H1391 0.950 . S
C1400 C1399 1.398 . S
C1400 C1401 1.391 . S
C1401 H1389 0.950 . S
C1401 C1397 1.393 . S
C1401 C1400 1.391 . S
C1402 H1392 0.950 . S
C1402 C1403 1.386 . S
C1402 C1404 1.391 . S
C1403 C1402 1.386 . S
C1403 C1407 1.393 . S
C1404 H1393 0.950 . S
C1404 C1402 1.391 . S
C1404 C1405 1.400 . S
C1405 C1399 1.491 . S
C1405 C1404 1.400 . S
C1405 C1406 1.398 . S
C1406 H1394 0.950 . S
C1406 C1405 1.398 . S
C1406 C1407 1.391 . S
C1407 H1395 0.950 . S
C1407 C1403 1.393 . S
C1407 C1406 1.391 . S
H1408 C1416 0.950 . S
H1409 C1421 0.950 . S
H1410 C1418 0.950 . S
H1411 C1420 0.950 . S
H1412 C1422 0.950 . S
H1413 C1424 0.950 . S
H1414 C1426 0.950 . S
H1415 C1427 0.950 . S
C1416 H1408 0.950 . S
C1416 C1417 1.386 . S
C1416 C1418 1.391 . S
C1417 C1416 1.386 . S
C1417 C1421 1.393 . S
C1418 H1410 0.950 . S
C1418 C1416 1.391 . S
C1418 C1419 1.400 . S
C1419 C1418 1.400 . S
C1419 C1420 1.398 . S
C1419 C1425 1.491 . S
C1420 H1411 0.950 . S
C1420 C1419 1.398 . S
C1420 C1421 1.391 . S
C1421 H1409 0.950 . S
C1421 C1417 1.393 . S
C1421 C1420 1.391 . S
C1422 H1412 0.950 . S
C1422 C1423 1.386 . S
C1422 C1424 1.391 . S
C1423 C1422 1.386 . S
C1423 C1427 1.393 . S
C1424 H1413 0.950 . S
C1424 C1422 1.391 . S
C1424 C1425 1.400 . S
C1425 C1419 1.491 . S
C1425 C1424 1.400 . S
C1425 C1426 1.398 . S
C1426 H1414 0.950 . S
C1426 C1425 1.398 . S
C1426 C1427 1.391 . S
C1427 H1415 0.950 . S
C1427 C1423 1.393 . S
C1427 C1426 1.391 . S
H1428 C1436 0.950 . S
H1429 C1441 0.950 . S
H1430 C1438 0.950 . S
H1431 C1440 0.950 . S
H1432 C1442 0.950 . S
H1433 C1444 0.950 . S
H1434 C1446 0.950 . S
H1435 C1447 0.950 . S
C1436 H1428 0.950 . S
C1436 C1437 1.386 . S
C1436 C1438 1.391 . S
C1437 C1436 1.386 . S
C1437 C1441 1.393 . S
C1438 H1430 0.950 . S
C1438 C1436 1.391 . S
C1438 C1439 1.400 . S
C1439 C1438 1.400 . S
C1439 C1440 1.398 . S
C1439 C1445 1.491 . S
C1440 H1431 0.950 . S
C1440 C1439 1.398 . S
C1440 C1441 1.391 . S
C1441 H1429 0.950 . S
C1441 C1437 1.393 . S
C1441 C1440 1.391 . S
C1442 H1432 0.950 . S
C1442 C1443 1.386 . S
C1442 C1444 1.391 . S
C1443 C1442 1.386 . S
C1443 C1447 1.393 . S
C1444 H1433 0.950 . S
C1444 C1442 1.391 . S
C1444 C1445 1.400 . S
C1445 C1439 1.491 . S
C1445 C1444 1.400 . S
C1445 C1446 1.398 . S
C1446 H1434 0.950 . S
C1446 C1445 1.398 . S
C1446 C1447 1.391 . S
C1447 H1435 0.950 . S
C1447 C1443 1.393 . S
C1447 C1446 1.391 . S
H1448 C1456 0.950 . S
H1449 C1461 0.950 . S
H1450 C1458 0.950 . S
H1451 C1460 0.950 . S
H1452 C1462 0.950 . S
H1453 C1464 0.950 . S
H1454 C1466 0.950 . S
H1455 C1467 0.950 . S
C1456 H1448 0.950 . S
C1456 C1457 1.386 . S
C1456 C1458 1.391 . S
C1457 C1456 1.386 . S
C1457 C1461 1.393 . S
C1458 H1450 0.950 . S
C1458 C1456 1.391 . S
C1458 C1459 1.400 . S
C1459 C1458 1.400 . S
C1459 C1460 1.398 . S
C1459 C1465 1.491 . S
C1460 H1451 0.950 . S
C1460 C1459 1.398 . S
C1460 C1461 1.391 . S
C1461 H1449 0.950 . S
C1461 C1457 1.393 . S
C1461 C1460 1.391 . S
C1462 H1452 0.950 . S
C1462 C1463 1.386 . S
C1462 C1464 1.391 . S
C1463 C1462 1.386 . S
C1463 C1467 1.393 . S
C1464 H1453 0.950 . S
C1464 C1462 1.391 . S
C1464 C1465 1.400 . S
C1465 C1459 1.491 . S
C1465 C1464 1.400 . S
C1465 C1466 1.398 . S
C1466 H1454 0.950 . S
C1466 C1465 1.398 . S
C1466 C1467 1.391 . S
C1467 H1455 0.950 . S
C1467 C1463 1.393 . S
C1467 C1466 1.391 . S
H1468 C1476 0.950 . S
H1469 C1481 0.950 . S
H1470 C1478 0.950 . S
H1471 C1480 0.950 . S
H1472 C1482 0.950 . S
H1473 C1484 0.950 . S
H1474 C1486 0.950 . S
H1475 C1487 0.950 . S
C1476 H1468 0.950 . S
C1476 C1477 1.386 . S
C1476 C1478 1.391 . S
C1477 C1476 1.386 . S
C1477 C1481 1.393 . S
C1478 H1470 0.950 . S
C1478 C1476 1.391 . S
C1478 C1479 1.400 . S
C1479 C1478 1.400 . S
C1479 C1480 1.398 . S
C1479 C1485 1.491 . S
C1480 H1471 0.950 . S
C1480 C1479 1.398 . S
C1480 C1481 1.391 . S
C1481 H1469 0.950 . S
C1481 C1477 1.393 . S
C1481 C1480 1.391 . S
C1482 H1472 0.950 . S
C1482 C1483 1.386 . S
C1482 C1484 1.391 . S
C1483 C1482 1.386 . S
C1483 C1487 1.393 . S
C1484 H1473 0.950 . S
C1484 C1482 1.391 . S
C1484 C1485 1.400 1_556 S
C1485 C1479 1.491 . S
C1485 C1484 1.400 1_554 S
C1485 C1486 1.398 1_554 S
C1486 H1474 0.950 . S
C1486 C1485 1.398 1_556 S
C1486 C1487 1.391 . S
C1487 H1475 0.950 . S
C1487 C1483 1.393 . S
C1487 C1486 1.391 . S
C857 C356 2.311 . S
C863 C38 2.320 . S
C877 C393 2.216 . S
C883 C75 2.221 . S
C897 C144 2.321 . S
C903 C250 2.326 . S
C917 C181 2.228 . S
C923 C287 2.220 . S
C937 C462 2.322 . S
C943 C780 2.325 . S
C957 C817 2.227 . S
C963 C499 2.226 . S
C977 C568 2.325 . S
C983 C674 2.312 . S
C997 C605 2.226 . S
C1003 C711 2.227 . S
C1017 C39 2.720 . S
C1023 C569 2.712 . S
C1037 C82 2.011 . S
C1043 C612 2.001 . S
C1057 C145 2.715 . S
C1063 C463 2.723 . S
C1077 C188 2.011 1_556 S
C1083 C506 2.006 . S
C1097 C251 2.709 . S
C1103 C781 2.709 . S
C1117 C824 2.004 . S
C1123 C294 1.994 . S
C1137 C357 2.717 . S
C1143 C675 2.709 . S
C1157 C718 2.002 . S
C1163 C400 1.993 . S
C1177 C728 1.041 . S
C1183 C29 1.039 . S
C1197 C92 1.054 . S
C1203 C771 1.053 . S
C1217 C834 1.050 . S
C1223 C135 1.054 . S
C1237 C665 1.055 . S
C1243 C198 1.053 . S
C1257 C622 1.030 . S
C1263 C241 1.037 . S
C1277 C304 1.030 . S
C1283 C453 1.035 . S
C1297 C347 1.054 . S
C1303 C516 1.049 . S
C1317 C410 1.032 . S
C1323 C559 1.041 . S
C1337 C727 1.715 . S
C1343 C22 1.715 . S
C1357 C91 1.712 . S
C1363 C764 1.705 . S
C1377 C128 1.712 . S
C1383 C833 1.717 . S
C1397 C658 1.716 . S
C1403 C197 1.717 . S
C1417 C621 1.713 . S
C1423 C234 1.714 . S
C1437 C446 1.707 . S
C1443 C303 1.708 . S
C1457 C340 1.705 . S
C1463 C515 1.707 . S
C1477 C552 1.703 . S
C1483 C409 1.708 . S
