# Generated by pormake.
# Topology upb, (4)-cn, num edge types: 1
# Building blocks:
#     Node 0, Type 0, BuildingBlock: CEKHIL_clean_sbu_0, # of connection points: 4
#     Node 1, Type 0, BuildingBlock: CEKHIL_clean_sbu_0, # of connection points: 4
#     Node 2, Type 0, BuildingBlock: CEKHIL_clean_sbu_0, # of connection points: 4
#     Node 3, Type 0, BuildingBlock: CEKHIL_clean_sbu_0, # of connection points: 4
#     Node 4, Type 0, BuildingBlock: CEKHIL_clean_sbu_0, # of connection points: 4
#     Node 5, Type 0, BuildingBlock: CEKHIL_clean_sbu_0, # of connection points: 4
#     Node 6, Type 0, BuildingBlock: CEKHIL_clean_sbu_0, # of connection points: 4
#     Node 7, Type 0, BuildingBlock: CEKHIL_clean_sbu_0, # of connection points: 4
#     Node 8, Type 0, BuildingBlock: CEKHIL_clean_sbu_0, # of connection points: 4
#     Node 9, Type 0, BuildingBlock: CEKHIL_clean_sbu_0, # of connection points: 4
#     Node 10, Type 0, BuildingBlock: CEKHIL_clean_sbu_0, # of connection points: 4
#     Node 11, Type 0, BuildingBlock: CEKHIL_clean_sbu_0, # of connection points: 4
#     Node 12, Type 0, BuildingBlock: CEKHIL_clean_sbu_0, # of connection points: 4
#     Node 13, Type 0, BuildingBlock: CEKHIL_clean_sbu_0, # of connection points: 4
#     Node 14, Type 0, BuildingBlock: CEKHIL_clean_sbu_0, # of connection points: 4
#     Node 15, Type 0, BuildingBlock: CEKHIL_clean_sbu_0, # of connection points: 4
#     Edge 16, Type (0, 0), BuildingBlock: KIFKEQ_clean_linker_1, # of connection points: 2
#     Edge 17, Type (0, 0), BuildingBlock: KIFKEQ_clean_linker_1, # of connection points: 2
#     Edge 18, Type (0, 0), BuildingBlock: KIFKEQ_clean_linker_1, # of connection points: 2
#     Edge 19, Type (0, 0), BuildingBlock: KIFKEQ_clean_linker_1, # of connection points: 2
#     Edge 20, Type (0, 0), BuildingBlock: KIFKEQ_clean_linker_1, # of connection points: 2
#     Edge 21, Type (0, 0), BuildingBlock: KIFKEQ_clean_linker_1, # of connection points: 2
#     Edge 22, Type (0, 0), BuildingBlock: KIFKEQ_clean_linker_1, # of connection points: 2
#     Edge 23, Type (0, 0), BuildingBlock: KIFKEQ_clean_linker_1, # of connection points: 2
#     Edge 24, Type (0, 0), BuildingBlock: KIFKEQ_clean_linker_1, # of connection points: 2
#     Edge 25, Type (0, 0), BuildingBlock: KIFKEQ_clean_linker_1, # of connection points: 2
#     Edge 26, Type (0, 0), BuildingBlock: KIFKEQ_clean_linker_1, # of connection points: 2
#     Edge 27, Type (0, 0), BuildingBlock: KIFKEQ_clean_linker_1, # of connection points: 2
#     Edge 28, Type (0, 0), BuildingBlock: KIFKEQ_clean_linker_1, # of connection points: 2
#     Edge 29, Type (0, 0), BuildingBlock: KIFKEQ_clean_linker_1, # of connection points: 2
#     Edge 30, Type (0, 0), BuildingBlock: KIFKEQ_clean_linker_1, # of connection points: 2
#     Edge 31, Type (0, 0), BuildingBlock: KIFKEQ_clean_linker_1, # of connection points: 2
#     Edge 32, Type (0, 0), BuildingBlock: KIFKEQ_clean_linker_1, # of connection points: 2
#     Edge 33, Type (0, 0), BuildingBlock: KIFKEQ_clean_linker_1, # of connection points: 2
#     Edge 34, Type (0, 0), BuildingBlock: KIFKEQ_clean_linker_1, # of connection points: 2
#     Edge 35, Type (0, 0), BuildingBlock: KIFKEQ_clean_linker_1, # of connection points: 2
#     Edge 36, Type (0, 0), BuildingBlock: KIFKEQ_clean_linker_1, # of connection points: 2
#     Edge 37, Type (0, 0), BuildingBlock: KIFKEQ_clean_linker_1, # of connection points: 2
#     Edge 38, Type (0, 0), BuildingBlock: KIFKEQ_clean_linker_1, # of connection points: 2
#     Edge 39, Type (0, 0), BuildingBlock: KIFKEQ_clean_linker_1, # of connection points: 2
#     Edge 40, Type (0, 0), BuildingBlock: KIFKEQ_clean_linker_1, # of connection points: 2
#     Edge 41, Type (0, 0), BuildingBlock: KIFKEQ_clean_linker_1, # of connection points: 2
#     Edge 42, Type (0, 0), BuildingBlock: KIFKEQ_clean_linker_1, # of connection points: 2
#     Edge 43, Type (0, 0), BuildingBlock: KIFKEQ_clean_linker_1, # of connection points: 2
#     Edge 44, Type (0, 0), BuildingBlock: KIFKEQ_clean_linker_1, # of connection points: 2
#     Edge 45, Type (0, 0), BuildingBlock: KIFKEQ_clean_linker_1, # of connection points: 2
#     Edge 46, Type (0, 0), BuildingBlock: KIFKEQ_clean_linker_1, # of connection points: 2
#     Edge 47, Type (0, 0), BuildingBlock: KIFKEQ_clean_linker_1, # of connection points: 2
# Relax obj value: 0.216
# Max RMSD: 0.061
# Mean RMSD: 0.061
data_MOF--net-upb--node1-CEKHIL_clean_sbu_0--edge1-KIFKEQ_clean_linker_1
_symmetry_space_group_name_H-M    P1
_symmetry_Int_Tables_number       1
_symmetry_cell_setting            triclinic
loop_
_symmetry_equiv_pos_as_xyz
'x, y, z'
_cell_length_a     45.09726
_cell_length_b     45.100351
_cell_length_c     32.783686
_cell_angle_alpha  89.954303
_cell_angle_beta   89.99689
_cell_angle_gamma 90.036529
loop_
_atom_site_label
_atom_site_type_symbol
_atom_site_fract_x
_atom_site_fract_y
_atom_site_fract_z
_atom_type_partial_charge
Co0 Co 0.04968 0.22254 0.28578 0.0
O1 O 0.08621 0.24125 0.30037 0.0
O2 O 0.05916 0.25314 0.24634 0.0
C3 C 0.03188 0.22445 0.34982 0.0
O4 O 0.00993 0.20863 0.26233 0.0
Co5 Co 0.02996 0.16315 0.32466 0.0
O6 O 0.9903 0.17753 0.30847 0.0
C7 C 0.07465 0.16359 0.25808 0.0
C8 C 0.08235 0.25824 0.26896 0.0
C9 C 0.9878 0.19431 0.27747 0.0
O10 O 0.07208 0.1918 0.25346 0.0
O11 O 0.06068 0.14869 0.28525 0.0
O12 O 0.02902 0.24715 0.3257 0.0
O13 O 0.04603 0.20206 0.33504 0.0
Co14 Co 0.77031 0.04647 0.29232 0.0
O15 O 0.75435 0.08424 0.30732 0.0
O16 O 0.74097 0.05848 0.25273 0.0
C17 C 0.76673 0.02771 0.35563 0.0
O18 O 0.78086 0.00603 0.26809 0.0
Co19 Co 0.82811 0.02203 0.33003 0.0
O20 O 0.81084 0.98366 0.31313 0.0
C21 C 0.83099 0.06842 0.26605 0.0
C22 C 0.73745 0.08185 0.2755 0.0
C23 C 0.79346 0.9827 0.28261 0.0
O24 O 0.80278 0.06691 0.26064 0.0
O25 O 0.84491 0.05328 0.29302 0.0
O26 O 0.74388 0.02746 0.33151 0.0
O27 O 0.79032 0.04037 0.34165 0.0
Co28 Co 0.94914 0.77762 0.27674 0.0
O29 O 0.91639 0.75457 0.29601 0.0
O30 O 0.94121 0.74588 0.23869 0.0
C31 C 0.97168 0.77903 0.33809 0.0
O32 O 0.98548 0.79541 0.24863 0.0
Co33 Co 0.96123 0.84018 0.31214 0.0
O34 O 0.99798 0.83809 0.27989 0.0
C35 C 0.91345 0.83185 0.25177 0.0
C36 C 0.92038 0.73818 0.26405 0.0
C37 C 0.00265 0.81793 0.25353 0.0
O38 O 0.92095 0.80463 0.24634 0.0
O39 O 0.9256 0.8489 0.27807 0.0
O40 O 0.97531 0.75645 0.31403 0.0
O41 O 0.95345 0.79907 0.32536 0.0
Co42 Co 0.23061 0.94692 0.29352 0.0
O43 O 0.25269 0.91285 0.30957 0.0
O44 O 0.26116 0.9391 0.25349 0.0
C45 C 0.23146 0.9674 0.35608 0.0
O46 O 0.21272 0.98434 0.26875 0.0
Co47 Co 0.16956 0.95951 0.33453 0.0
O48 O 0.17642 -0.00051 0.31111 0.0
C49 C 0.17662 0.91027 0.27583 0.0
C50 C 0.26856 0.9171 0.27717 0.0
C51 C 0.19405 0.00386 0.28132 0.0
O52 O 0.20158 0.92078 0.26353 0.0
O53 O 0.16213 0.92078 0.30615 0.0
O54 O 0.25375 0.97125 0.33151 0.0
O55 O 0.21076 0.95022 0.34293 0.0
Co56 Co 0.0473 0.77095 0.69826 0.0
O57 O 0.0821 0.749 0.68392 0.0
O58 O 0.05333 0.73953 0.73743 0.0
C59 C 0.02986 0.77183 0.63394 0.0
O60 O 0.00867 0.78756 0.7214 0.0
Co61 Co 0.03293 0.8325 0.6617 0.0
O62 O 0.99195 0.82094 0.67623 0.0
C63 C 0.07672 0.82715 0.72892 0.0
C64 C 0.07617 0.73249 0.71525 0.0
C65 C 0.98778 0.80351 0.70621 0.0
O66 O 0.07193 0.79912 0.73207 0.0
O67 O 0.06419 0.84376 0.70231 0.0
O68 O 0.02499 0.74894 0.65712 0.0
O69 O 0.04584 0.79262 0.64967 0.0
Co70 Co 0.22482 0.04373 0.71558 0.0
O71 O 0.24243 0.08091 0.70147 0.0
O72 O 0.25529 0.0536 0.75485 0.0
C73 C 0.22717 0.02657 0.65128 0.0
O74 O 0.21237 0.00336 0.73848 0.0
Co75 Co 0.16606 0.02235 0.67698 0.0
O76 O 0.18208 0.98305 0.69201 0.0
C77 C 0.1652 0.0669 0.74366 0.0
C78 C 0.25977 0.07708 0.73253 0.0
C79 C 0.19909 0.98082 0.72278 0.0
O80 O 0.19348 0.06498 0.74836 0.0
O81 O 0.15072 0.05262 0.71639 0.0
O82 O 0.24996 0.02418 0.67529 0.0
O83 O 0.20434 0.03988 0.66633 0.0
Co84 Co 0.95021 0.22707 0.70655 0.0
O85 O 0.91755 0.2508 0.68923 0.0
O86 O 0.94297 0.25792 0.74632 0.0
C87 C 0.97201 0.22712 0.64482 0.0
O88 O 0.98628 0.20748 0.73276 0.0
Co89 Co 0.96093 0.16558 0.66607 0.0
O90 O 0.00064 0.17044 0.6911 0.0
C91 C 0.91032 0.17508 0.72188 0.0
C92 C 0.92186 0.26641 0.72184 0.0
C93 C 0.00519 0.18792 0.72098 0.0
O94 O 0.92192 0.19926 0.73522 0.0
O95 O 0.92094 0.16025 0.69196 0.0
O96 O 0.97638 0.24912 0.66969 0.0
O97 O 0.95366 0.20717 0.65719 0.0
Co98 Co 0.77058 0.95366 0.71419 0.0
O99 O 0.75266 0.91802 0.69428 0.0
O100 O 0.74079 0.94015 0.75238 0.0
C101 C 0.76773 0.97742 0.65392 0.0
O102 O 0.78339 0.99169 0.74342 0.0
Co103 Co 0.83025 0.97553 0.6774 0.0
O104 O 0.82169 0.01171 0.70875 0.0
C105 C 0.82982 0.92572 0.73592 0.0
C106 C 0.73615 0.91869 0.72661 0.0
C107 C 0.80222 0.01262 0.73681 0.0
O108 O 0.80196 0.92932 0.74266 0.0
O109 O 0.84453 0.9407 0.70964 0.0
O110 O 0.74505 0.97688 0.67832 0.0
O111 O 0.79046 0.9622 0.66541 0.0
Co112 Co 0.55052 0.72404 0.78596 0.0
O113 O 0.58881 0.73961 0.7992 0.0
O114 O 0.56138 0.75427 0.74684 0.0
C115 C 0.53403 0.72639 0.85062 0.0
O116 O 0.50917 0.71407 0.76412 0.0
Co117 Co 0.52677 0.66581 0.8239 0.0
O118 O 0.48816 0.68414 0.81055 0.0
C119 C 0.57075 0.66365 0.75661 0.0
C120 C 0.58544 0.75731 0.76838 0.0
C121 C 0.48624 0.70188 0.78048 0.0
O122 O 0.56974 0.69199 0.7521 0.0
O123 O 0.55623 0.64956 0.78406 0.0
O124 O 0.53277 0.74966 0.8273 0.0
O125 O 0.54613 0.70318 0.83481 0.0
Co126 Co 0.27195 0.55429 0.78603 0.0
O127 O 0.24638 0.58612 0.80195 0.0
O128 O 0.24147 0.5595 0.7453 0.0
C129 C 0.27253 0.53308 0.8483 0.0
O130 O 0.2927 0.51848 0.76093 0.0
Co131 Co 0.33379 0.54634 0.82637 0.0
O132 O 0.33499 0.50902 0.7951 0.0
C133 C 0.32491 0.59271 0.76403 0.0
C134 C 0.23167 0.5805 0.76888 0.0
C135 C 0.31595 0.50272 0.76777 0.0
O136 O 0.29864 0.58318 0.75622 0.0
O137 O 0.34136 0.58233 0.79242 0.0
O138 O 0.25086 0.52777 0.8232 0.0
O139 O 0.29188 0.55218 0.83602 0.0
Co140 Co 0.44333 0.2722 0.79146 0.0
O141 O 0.41028 0.24935 0.80974 0.0
O142 O 0.43534 0.24073 0.75278 0.0
C143 C 0.46586 0.27298 0.85279 0.0
O144 O 0.47973 0.29074 0.76466 0.0
Co145 Co 0.45327 0.33449 0.83002 0.0
O146 O 0.48913 0.33457 0.79525 0.0
C147 C 0.40347 0.32403 0.77432 0.0
C148 C 0.41415 0.23306 0.77768 0.0
C149 C 0.4953 0.31444 0.76932 0.0
O150 O 0.41563 0.29999 0.76157 0.0
O151 O 0.41309 0.33884 0.80483 0.0
O152 O 0.46936 0.25042 0.82865 0.0
O153 O 0.4474 0.29281 0.84035 0.0
Co154 Co 0.72622 0.44501 0.79576 0.0
O155 O 0.7492 0.41133 0.81125 0.0
O156 O 0.75608 0.43746 0.7547 0.0
C157 C 0.72834 0.46596 0.85797 0.0
O158 O 0.70733 0.48202 0.77116 0.0
Co159 Co 0.66611 0.45759 0.83918 0.0
O160 O 0.67192 0.49741 0.81473 0.0
C161 C 0.67197 0.40802 0.78066 0.0
C162 C 0.76446 0.41581 0.77836 0.0
C163 C 0.68877 0.50153 0.78404 0.0
O164 O 0.6968 0.41827 0.76741 0.0
O165 O 0.65805 0.41882 0.81127 0.0
O166 O 0.74993 0.46989 0.83229 0.0
O167 O 0.70749 0.44847 0.84606 0.0
Co168 Co 0.55173 0.27493 0.2086 0.0
O169 O 0.58829 0.25667 0.19313 0.0
O170 O 0.56158 0.24407 0.24725 0.0
C171 C 0.5331 0.27386 0.14498 0.0
O172 O 0.51208 0.28805 0.23297 0.0
Co173 Co 0.53167 0.33492 0.17205 0.0
O174 O 0.49214 0.32023 0.18855 0.0
C175 C 0.57703 0.33352 0.23757 0.0
C176 C 0.58476 0.23946 0.22444 0.0
C177 C 0.48984 0.30259 0.21866 0.0
O178 O 0.57421 0.30529 0.24147 0.0
O179 O 0.56295 0.3489 0.21103 0.0
O180 O 0.53084 0.25075 0.16847 0.0
O181 O 0.54743 0.29611 0.15992 0.0
Co182 Co 0.72906 0.5505 0.21415 0.0
O183 O 0.74949 0.58591 0.19869 0.0
O184 O 0.75968 0.55895 0.25374 0.0
C185 C 0.73026 0.53183 0.15059 0.0
O186 O 0.71378 0.51162 0.23845 0.0
Co187 Co 0.66899 0.53241 0.17607 0.0
O188 O 0.68239 0.49241 0.19247 0.0
C189 C 0.67104 0.57776 0.24164 0.0
C190 C 0.766 0.58145 0.23043 0.0
C191 C 0.69924 0.48968 0.22335 0.0
O192 O 0.6992 0.57447 0.24594 0.0
O193 O 0.65557 0.56387 0.21503 0.0
O194 O 0.75284 0.52839 0.17476 0.0
O195 O 0.70843 0.54703 0.165 0.0
Co196 Co 0.45074 0.72287 0.20765 0.0
O197 O 0.41494 0.74259 0.19213 0.0
O198 O 0.44172 0.75341 0.2469 0.0
C199 C 0.46998 0.7245 0.14443 0.0
O200 O 0.48973 0.70837 0.23234 0.0
Co201 Co 0.46983 0.66311 0.17 0.0
O202 O 0.50958 0.67681 0.18716 0.0
C203 C 0.4235 0.66451 0.23428 0.0
C204 C 0.41901 0.75932 0.22378 0.0
C205 C 0.51192 0.69396 0.21777 0.0
O206 O 0.42696 0.69261 0.23917 0.0
O207 O 0.43764 0.64927 0.20769 0.0
O208 O 0.47274 0.74709 0.1687 0.0
O209 O 0.4549 0.70238 0.15842 0.0
Co210 Co 0.27305 0.44696 0.20442 0.0
O211 O 0.25473 0.41041 0.1888 0.0
O212 O 0.24213 0.43695 0.24297 0.0
C213 C 0.27191 0.46581 0.14084 0.0
O214 O 0.28621 0.48658 0.22895 0.0
Co215 Co 0.33294 0.46735 0.16784 0.0
O216 O 0.31808 0.50679 0.18433 0.0
C217 C 0.3318 0.42187 0.23331 0.0
C218 C 0.23744 0.41387 0.22 0.0
C219 C 0.30059 0.50894 0.21461 0.0
O220 O 0.30352 0.42442 0.23717 0.0
O221 O 0.34707 0.43616 0.20685 0.0
O222 O 0.24881 0.46792 0.16435 0.0
O223 O 0.29418 0.45147 0.15572 0.0
H224 H 0.06823 0.1105 0.22084 0.0
H225 H 0.13208 0.17949 0.24513 0.0
H226 H 0.10817 0.07591 0.20657 0.0
H227 H 0.17246 0.14459 0.23146 0.0
H228 H 0.20092 0.05873 0.31206 0.0
H229 H 0.17966 0.10398 0.28428 0.0
H230 H 0.1557 0.05712 0.17421 0.0
H231 H 0.17775 0.0117 0.20217 0.0
C232 C 0.09087 0.11857 0.22118 0.0
C233 C 0.09721 0.14738 0.23465 0.0
C234 C 0.11382 0.09882 0.21277 0.0
C235 C 0.14348 0.10741 0.21863 0.0
C236 C 0.14978 0.13737 0.22698 0.0
C237 C 0.1267 0.15734 0.23467 0.0
C238 C 0.19243 0.05855 0.28113 0.0
C239 C 0.19073 0.03195 0.25924 0.0
C240 C 0.18039 0.08449 0.26502 0.0
C241 C 0.16574 0.08404 0.22715 0.0
C242 C 0.16684 0.05806 0.20345 0.0
C243 C 0.17947 0.03214 0.21936 0.0
H244 H 0.98058 0.17412 0.20026 0.0
H245 H 0.93263 0.20554 0.30539 0.0
H246 H 0.93597 0.1485 0.17634 0.0
H247 H 0.88806 0.18064 0.2814 0.0
H248 H 0.81423 0.12484 0.24699 0.0
H249 H 0.84782 0.16579 0.23003 0.0
H250 H 0.92014 0.1036 0.21879 0.0
H251 H 0.88689 0.06311 0.23647 0.0
C252 C 0.96001 0.17709 0.21685 0.0
C253 C 0.9599 0.19157 0.25471 0.0
C254 C 0.93455 0.16227 0.20333 0.0
C255 C 0.90869 0.16217 0.22734 0.0
C256 C 0.90755 0.18038 0.26209 0.0
C257 C 0.93308 0.19468 0.27592 0.0
C258 C 0.83705 0.11988 0.2392 0.0
C259 C 0.84818 0.09096 0.24361 0.0
C260 C 0.85624 0.1433 0.22956 0.0
C261 C 0.88662 0.13794 0.22337 0.0
C262 C 0.89682 0.10848 0.22301 0.0
C263 C 0.87785 0.08526 0.23347 0.0
H264 H 0.78577 0.92786 0.31384 0.0
H265 H 0.80146 0.97439 0.20096 0.0
H266 H 0.8048 0.88257 0.28401 0.0
H267 H 0.82085 0.92877 0.1706 0.0
H268 H 0.91324 0.88209 0.20732 0.0
H269 H 0.87006 0.91274 0.19478 0.0
H270 H 0.81318 0.84151 0.23572 0.0
H271 H 0.85699 0.81065 0.24799 0.0
C272 C 0.79191 0.92793 0.28188 0.0
C273 C 0.79275 0.95459 0.2599 0.0
C274 C 0.80271 0.90187 0.26455 0.0
C275 C 0.81508 0.90221 0.22516 0.0
C276 C 0.81183 0.92795 0.2012 0.0
C277 C 0.80063 0.95404 0.2185 0.0
C278 C 0.89141 0.87248 0.21154 0.0
C279 C 0.88829 0.84434 0.22915 0.0
C280 C 0.86653 0.88998 0.20414 0.0
C281 C 0.83813 0.87982 0.21516 0.0
C282 C 0.83481 0.85005 0.22741 0.0
C283 C 0.85983 0.83234 0.23428 0.0
H284 H 0.04718 0.77745 0.24733 0.0
H285 H 0.02054 0.86496 0.20925 0.0
H286 H 0.09899 0.79 0.23284 0.0
H287 H 0.07173 0.87759 0.19468 0.0
H288 H 0.16048 0.90774 0.19573 0.0
H289 H 0.1227 0.87429 0.16772 0.0
H290 H 0.1232 0.82461 0.28054 0.0
H291 H 0.1604 0.85793 0.30797 0.0
C292 C 0.05226 0.79876 0.23374 0.0
C293 C 0.03019 0.82047 0.22992 0.0
C294 C 0.08189 0.80602 0.22561 0.0
C295 C 0.08957 0.83501 0.2135 0.0
C296 C 0.06675 0.85506 0.2039 0.0
C297 C 0.03733 0.84793 0.21246 0.0
C298 C 0.15342 0.88877 0.21355 0.0
C299 C 0.16282 0.88544 0.25406 0.0
C300 C 0.13179 0.86969 0.19764 0.0
C301 C 0.11958 0.84707 0.22211 0.0
C302 C 0.13213 0.8416 0.26066 0.0
C303 C 0.15332 0.86083 0.27663 0.0
H304 H 0.13291 0.80743 0.74288 0.0
H305 H 0.07268 0.87904 0.76962 0.0
H306 H 0.17489 0.83897 0.76228 0.0
H307 H 0.11408 0.91026 0.78949 0.0
H308 H 0.18337 0.97105 0.8017 0.0
H309 H 0.1605 0.92508 0.82604 0.0
H310 H 0.18798 0.88097 0.71541 0.0
H311 H 0.2103 0.92674 0.69132 0.0
C312 C 0.12858 0.82937 0.75492 0.0
C313 C 0.09977 0.84112 0.75419 0.0
C314 C 0.15257 0.84743 0.76593 0.0
C315 C 0.14787 0.87725 0.77682 0.0
C316 C 0.11858 0.88741 0.78147 0.0
C317 C 0.09478 0.86961 0.7698 0.0
C318 C 0.18597 0.95102 0.78381 0.0
C319 C 0.19817 0.95233 0.74448 0.0
C320 C 0.17274 0.92476 0.79762 0.0
C321 C 0.17186 0.89958 0.77227 0.0
C322 C 0.18825 0.89986 0.73578 0.0
C323 C 0.20102 0.92615 0.7218 0.0
H324 H 0.18046 0.12431 0.75843 0.0
H325 H 0.11141 0.05977 0.77889 0.0
H326 H 0.14514 0.1643 0.77228 0.0
H327 H 0.07638 0.09932 0.79321 0.0
H328 H 0.01184 0.1687 0.7991 0.0
H329 H 0.05683 0.14561 0.82677 0.0
H330 H 0.1053 0.17331 0.71961 0.0
H331 H 0.06049 0.19573 0.69219 0.0
C332 C 0.15816 0.11865 0.76802 0.0
C333 C 0.14839 0.08911 0.76698 0.0
C334 C 0.13794 0.14152 0.77578 0.0
C335 C 0.10789 0.13497 0.78313 0.0
C336 C 0.09935 0.10518 0.78779 0.0
C337 C 0.11937 0.08245 0.77936 0.0
C338 C 0.03253 0.17098 0.78259 0.0
C339 C 0.03294 0.18375 0.74358 0.0
C340 C 0.0582 0.15773 0.79829 0.0
C341 C 0.08453 0.15742 0.77523 0.0
C342 C 0.08553 0.1734 0.7384 0.0
C343 C 0.05985 0.18613 0.7225 0.0
H344 H 0.85953 0.16165 0.6837 0.0
H345 H 0.90105 0.16077 0.8021 0.0
H346 H 0.82102 0.12881 0.70816 0.0
H347 H 0.86205 0.12745 0.82742 0.0
H348 H 0.8427 0.02566 0.7941 0.0
H349 H 0.85928 0.07569 0.80846 0.0
H350 H 0.78102 0.11046 0.74926 0.0
H351 H 0.765 0.05987 0.73397 0.0
C352 C 0.85962 0.15525 0.71558 0.0
C353 C 0.88331 0.16323 0.7409 0.0
C354 C 0.83734 0.13658 0.72989 0.0
C355 C 0.83856 0.12502 0.76975 0.0
C356 C 0.86063 0.13571 0.79645 0.0
C357 C 0.88288 0.15482 0.78209 0.0
C358 C 0.82819 0.04399 0.7864 0.0
C359 C 0.80283 0.03912 0.76262 0.0
C360 C 0.83767 0.07282 0.79462 0.0
C361 C 0.82199 0.09719 0.77872 0.0
C362 C 0.79396 0.09212 0.76102 0.0
C363 C 0.78456 0.06317 0.75263 0.0
H364 H 0.88331 0.92853 0.77279 0.0
H365 H 0.81261 0.86809 0.74216 0.0
H366 H 0.91661 0.88693 0.78393 0.0
H367 H 0.84628 0.82607 0.75243 0.0
H368 H 0.97813 0.81527 0.7865 0.0
H369 H 0.93262 0.83708 0.81427 0.0
H370 H 0.88805 0.82016 0.70001 0.0
H371 H 0.93346 0.79916 0.67236 0.0
C372 C 0.87461 0.9062 0.77025 0.0
C373 C 0.84566 0.90138 0.75619 0.0
C374 C 0.8936 0.88231 0.77688 0.0
C375 C 0.88413 0.85324 0.76854 0.0
C376 C 0.85412 0.84827 0.75899 0.0
C377 C 0.83488 0.87226 0.75319 0.0
C378 C 0.95813 0.81495 0.76819 0.0
C379 C 0.95915 0.80594 0.72726 0.0
C380 C 0.93216 0.82746 0.78401 0.0
C381 C 0.9069 0.83058 0.75918 0.0
C382 C 0.90702 0.81787 0.72005 0.0
C383 C 0.93306 0.80599 0.70405 0.0
H384 H 0.62839 0.67766 0.7416 0.0
H385 H 0.56252 0.60979 0.72191 0.0
H386 H 0.66769 0.64133 0.7293 0.0
H387 H 0.60145 0.57374 0.709 0.0
H388 H 0.67072 0.50807 0.70538 0.0
H389 H 0.64841 0.55308 0.67649 0.0
H390 H 0.67424 0.60182 0.78418 0.0
H391 H 0.6957 0.55695 0.81296 0.0
C392 C 0.62232 0.6554 0.7324 0.0
C393 C 0.59256 0.64627 0.73333 0.0
C394 C 0.64479 0.63459 0.72553 0.0
C395 C 0.63765 0.60461 0.71891 0.0
C396 C 0.60773 0.59666 0.7139 0.0
C397 C 0.58536 0.61727 0.72148 0.0
C398 C 0.67271 0.52879 0.72184 0.0
C399 C 0.68466 0.52928 0.76135 0.0
C400 C 0.65994 0.55447 0.70541 0.0
C401 C 0.65944 0.58093 0.72815 0.0
C402 C 0.67454 0.58195 0.76565 0.0
C403 C 0.68669 0.55624 0.78232 0.0
H404 H 0.47259 0.69431 0.70004 0.0
H405 H 0.43408 0.71246 0.81775 0.0
H406 H 0.42405 0.67824 0.6748 0.0
H407 H 0.38599 0.6966 0.79313 0.0
H408 H 0.30835 0.6506 0.76529 0.0
H409 H 0.34192 0.69199 0.75074 0.0
H410 H 0.40477 0.63056 0.69823 0.0
H411 H 0.37125 0.58982 0.71266 0.0
C412 C 0.45344 0.69634 0.7198 0.0
C413 C 0.45696 0.70406 0.76097 0.0
C414 C 0.42568 0.687 0.70547 0.0
C415 C 0.40125 0.68542 0.73218 0.0
C416 C 0.40416 0.69746 0.77156 0.0
C417 C 0.43183 0.70643 0.7859 0.0
C418 C 0.32861 0.64638 0.74852 0.0
C419 C 0.33751 0.61722 0.74029 0.0
C420 C 0.34793 0.66999 0.74041 0.0
C421 C 0.37636 0.66454 0.72423 0.0
C422 C 0.38312 0.63574 0.71061 0.0
C423 C 0.36395 0.61225 0.71897 0.0
H424 H 0.36736 0.48397 0.73466 0.0
H425 H 0.27569 0.45921 0.75055 0.0
H426 H 0.3794 0.43362 0.7147 0.0
H427 H 0.28777 0.40811 0.73089 0.0
H428 H 0.34826 0.33519 0.80144 0.0
H429 H 0.31766 0.37609 0.77797 0.0
H430 H 0.37501 0.38733 0.67353 0.0
H431 H 0.40559 0.34595 0.69732 0.0
C432 C 0.34959 0.46787 0.73235 0.0
C433 C 0.32075 0.47519 0.74466 0.0
C434 C 0.35638 0.43902 0.7205 0.0
C435 C 0.33456 0.41674 0.72156 0.0
C436 C 0.30502 0.42481 0.7299 0.0
C437 C 0.29811 0.45399 0.7411 0.0
C438 C 0.35323 0.34528 0.77221 0.0
C439 C 0.37924 0.33776 0.75128 0.0
C440 C 0.33567 0.36873 0.75861 0.0
C441 C 0.34433 0.38539 0.72434 0.0
C442 C 0.36802 0.37506 0.70027 0.0
C443 C 0.38541 0.35128 0.7137 0.0
H444 H 0.65813 0.35501 0.8129 0.0
H445 H 0.65162 0.40647 0.70246 0.0
H446 H 0.61912 0.32225 0.78896 0.0
H447 H 0.61207 0.37361 0.67803 0.0
H448 H 0.51234 0.3635 0.72851 0.0
H449 H 0.56294 0.37687 0.71133 0.0
H450 H 0.5919 0.28841 0.74269 0.0
H451 H 0.54064 0.27505 0.7597 0.0
C452 C 0.64924 0.35834 0.78253 0.0
C453 C 0.65749 0.38324 0.75961 0.0
C454 C 0.62695 0.33948 0.76859 0.0
C455 C 0.61209 0.34562 0.73184 0.0
C456 C 0.62295 0.3685 0.70664 0.0
C457 C 0.64563 0.38722 0.72046 0.0
C458 C 0.52933 0.34655 0.72992 0.0
C459 C 0.52284 0.31846 0.74595 0.0
C460 C 0.55838 0.35409 0.71977 0.0
C461 C 0.58158 0.33383 0.72632 0.0
C462 C 0.57449 0.30455 0.73769 0.0
C463 C 0.54519 0.29685 0.74728 0.0
H464 H 0.70876 0.43499 0.19301 0.0
H465 H 0.68279 0.48131 0.30227 0.0
H466 H 0.6864 0.38971 0.21892 0.0
H467 H 0.65971 0.43589 0.3283 0.0
H468 H 0.57206 0.38711 0.27396 0.0
H469 H 0.61292 0.4198 0.29152 0.0
H470 H 0.67499 0.34865 0.26962 0.0
H471 H 0.63363 0.31562 0.25269 0.0
C472 C 0.69959 0.43497 0.22357 0.0
C473 C 0.69717 0.46149 0.24555 0.0
C474 C 0.68684 0.409 0.23859 0.0
C475 C 0.67084 0.40939 0.2754 0.0
C476 C 0.67178 0.43504 0.29976 0.0
C477 C 0.68507 0.46098 0.28497 0.0
C478 C 0.59432 0.3781 0.2748 0.0
C479 C 0.59985 0.34912 0.26139 0.0
C480 C 0.61779 0.39674 0.28517 0.0
C481 C 0.64724 0.38689 0.28138 0.0
C482 C 0.65251 0.35681 0.27265 0.0
C483 C 0.62887 0.33793 0.26302 0.0
H484 H 0.52054 0.681 0.29799 0.0
H485 H 0.56653 0.70266 0.18658 0.0
H486 H 0.56656 0.66078 0.32643 0.0
H487 H 0.61234 0.68315 0.2148 0.0
H488 H 0.68774 0.63522 0.25222 0.0
H489 H 0.65351 0.67614 0.26612 0.0
H490 H 0.5848 0.61287 0.29561 0.0
H491 H 0.61871 0.57242 0.28112 0.0
C492 C 0.54085 0.68291 0.28053 0.0
C493 C 0.54015 0.69295 0.24002 0.0
C494 C 0.56714 0.67129 0.29672 0.0
C495 C 0.59296 0.66998 0.27266 0.0
C496 C 0.59296 0.68394 0.23429 0.0
C497 C 0.56667 0.69499 0.21793 0.0
C498 C 0.66577 0.63022 0.26372 0.0
C499 C 0.65555 0.60084 0.26499 0.0
C500 C 0.64618 0.65361 0.27157 0.0
C501 C 0.61634 0.64773 0.28127 0.0
C502 C 0.60762 0.61823 0.28835 0.0
C503 C 0.62698 0.59498 0.27981 0.0
H504 H 0.3666 0.6826 0.24689 0.0
H505 H 0.42729 0.61075 0.27048 0.0
H506 H 0.32469 0.64969 0.26179 0.0
H507 H 0.38589 0.57816 0.28598 0.0
H508 H 0.31575 0.51685 0.29408 0.0
H509 H 0.33872 0.56204 0.32087 0.0
H510 H 0.31325 0.60889 0.21139 0.0
H511 H 0.2909 0.56385 0.18479 0.0
C512 C 0.371 0.66022 0.25729 0.0
C513 C 0.40002 0.64895 0.25699 0.0
C514 C 0.34705 0.64139 0.26571 0.0
C515 C 0.35195 0.61124 0.27455 0.0
C516 C 0.38126 0.60126 0.27954 0.0
C517 C 0.40506 0.61986 0.27038 0.0
C518 C 0.31365 0.53729 0.27692 0.0
C519 C 0.30191 0.53699 0.23728 0.0
C520 C 0.32693 0.5631 0.29212 0.0
C521 C 0.32827 0.58886 0.26793 0.0
C522 C 0.31254 0.58952 0.23091 0.0
C523 C 0.29976 0.56367 0.21552 0.0
H524 H 0.31477 0.36486 0.24797 0.0
H525 H 0.38518 0.42759 0.27012 0.0
H526 H 0.34848 0.32402 0.26468 0.0
H527 H 0.41855 0.38724 0.28738 0.0
H528 H 0.48136 0.31864 0.29761 0.0
H529 H 0.43558 0.3409 0.32364 0.0
H530 H 0.38967 0.31304 0.21456 0.0
H531 H 0.4353 0.29145 0.18868 0.0
C532 C 0.33699 0.36997 0.25843 0.0
C533 C 0.34767 0.3992 0.25712 0.0
C534 C 0.35627 0.34662 0.2679 0.0
C535 C 0.38626 0.35237 0.27678 0.0
C536 C 0.39559 0.38198 0.2809 0.0
C537 C 0.37654 0.40516 0.27071 0.0
C538 C 0.46102 0.31587 0.28042 0.0
C539 C 0.46169 0.30365 0.24108 0.0
C540 C 0.43488 0.32873 0.29518 0.0
C541 C 0.40917 0.32916 0.27085 0.0
C542 C 0.40899 0.313 0.23419 0.0
C543 C 0.43516 0.30066 0.21921 0.0
H544 H 0.12384 0.27982 0.32075 0.0
H545 H 0.08724 0.29264 0.20017 0.0
H546 H 0.15889 0.31985 0.30896 0.0
H547 H 0.12271 0.33302 0.18833 0.0
H548 H 0.21871 0.3699 0.16979 0.0
H549 H 0.17864 0.33473 0.18108 0.0
H550 H 0.16023 0.37525 0.29767 0.0
H551 H 0.2006 0.41073 0.2864 0.0
C552 C 0.12326 0.29124 0.29168 0.0
C553 C 0.103 0.28294 0.26117 0.0
C554 C 0.14316 0.31438 0.28516 0.0
C555 C 0.14344 0.32954 0.24783 0.0
C556 C 0.12298 0.32152 0.21736 0.0
C557 C 0.10273 0.2985 0.22409 0.0
C558 C 0.20612 0.37141 0.19784 0.0
C559 C 0.21293 0.39292 0.22742 0.0
C560 C 0.18297 0.35144 0.20405 0.0
C561 C 0.16631 0.35237 0.24012 0.0
C562 C 0.17288 0.37403 0.26963 0.0
C563 C 0.19593 0.39428 0.26322 0.0
H564 H 0.7025 0.08714 0.20761 0.0
H565 H 0.71994 0.12652 0.32538 0.0
H566 H 0.66358 0.12398 0.19551 0.0
H567 H 0.68121 0.16304 0.31328 0.0
H568 H 0.5893 0.20455 0.29258 0.0
H569 H 0.62512 0.16464 0.30462 0.0
H570 H 0.66317 0.17985 0.18553 0.0
H571 H 0.6277 0.21951 0.17351 0.0
C572 C 0.69804 0.10363 0.23082 0.0
C573 C 0.71433 0.1041 0.26728 0.0
C574 C 0.67584 0.12465 0.22392 0.0
C575 C 0.66939 0.1462 0.2536 0.0
C576 C 0.68551 0.14644 0.29016 0.0
C577 C 0.70786 0.12569 0.29685 0.0
C578 C 0.60529 0.19928 0.26904 0.0
C579 C 0.60587 0.21523 0.23228 0.0
C580 C 0.62576 0.17655 0.27592 0.0
C581 C 0.6468 0.16921 0.24591 0.0
C582 C 0.64698 0.18485 0.20895 0.0
C583 C 0.62683 0.20772 0.20228 0.0
H584 H 0.80747 0.59566 0.17507 0.0
H585 H 0.78253 0.60914 0.3006 0.0
H586 H 0.84909 0.62941 0.1832 0.0
H587 H 0.8225 0.64515 0.30836 0.0
H588 H 0.90495 0.69822 0.32133 0.0
H589 H 0.87163 0.65616 0.31392 0.0
H590 H 0.85934 0.67868 0.18651 0.0
H591 H 0.89482 0.71907 0.19374 0.0
C592 C 0.811 0.60612 0.20443 0.0
C593 C 0.79203 0.60012 0.23724 0.0
C594 C 0.83463 0.62571 0.20906 0.0
C595 C 0.83911 0.64059 0.24625 0.0
C596 C 0.82026 0.63388 0.27941 0.0
C597 C 0.79717 0.61344 0.27506 0.0
C598 C 0.89537 0.6937 0.29166 0.0
C599 C 0.90219 0.71167 0.25806 0.0
C600 C 0.87601 0.6698 0.28743 0.0
C601 C 0.86225 0.66404 0.24976 0.0
C602 C 0.86978 0.68188 0.21589 0.0
C603 C 0.88995 0.70521 0.21991 0.0
H604 H 0.30002 0.91127 0.20596 0.0
H605 H 0.2944 0.879 0.32992 0.0
H606 H 0.34006 0.87581 0.1924 0.0
H607 H 0.33384 0.84384 0.31638 0.0
H608 H 0.42037 0.79793 0.28809 0.0
H609 H 0.38745 0.84018 0.29977 0.0
H610 H 0.34084 0.82029 0.18796 0.0
H611 H 0.37367 0.77844 0.17609 0.0
C612 C 0.3075 0.89684 0.23029 0.0
C613 C 0.29394 0.8976 0.26878 0.0
C614 C 0.33028 0.87657 0.22256 0.0
C615 C 0.33996 0.85712 0.25339 0.0
C616 C 0.32708 0.85877 0.29221 0.0
C617 C 0.30426 0.87873 0.29979 0.0
C618 C 0.40313 0.80267 0.26603 0.0
C619 C 0.39937 0.78475 0.23144 0.0
C620 C 0.38437 0.82682 0.27264 0.0
C621 C 0.36171 0.8335 0.24465 0.0
C622 C 0.3584 0.81592 0.20969 0.0
C623 C 0.37699 0.79174 0.2032 0.0
H624 H 0.21702 0.60556 0.69641 0.0
H625 H 0.18688 0.59381 0.82012 0.0
H626 H 0.17649 0.63991 0.68363 0.0
H627 H 0.14458 0.62587 0.80687 0.0
H628 H 0.09788 0.71459 0.78858 0.0
H629 H 0.13304 0.6746 0.80076 0.0
H630 H 0.12798 0.65018 0.6731 0.0
H631 H 0.0951 0.69196 0.66093 0.0
C632 C 0.20106 0.60976 0.72043 0.0
C633 C 0.20496 0.59748 0.75922 0.0
C634 C 0.17762 0.62929 0.71319 0.0
C635 C 0.15711 0.6361 0.74434 0.0
C636 C 0.16028 0.62209 0.78247 0.0
C637 C 0.1843 0.60344 0.79003 0.0
C638 C 0.10431 0.70043 0.7634 0.0
C639 C 0.0943 0.70633 0.72386 0.0
C640 C 0.12428 0.67729 0.77027 0.0
C641 C 0.1338 0.65904 0.73783 0.0
C642 C 0.12211 0.66417 0.69865 0.0
C643 C 0.10302 0.68792 0.69165 0.0
H644 H 0.40821 0.19963 0.70822 0.0
H645 H 0.37728 0.20751 0.83253 0.0
H646 H 0.3736 0.1584 0.69738 0.0
H647 H 0.34294 0.16681 0.82167 0.0
H648 H 0.29861 0.07801 0.79693 0.0
H649 H 0.33997 0.11249 0.80723 0.0
H650 H 0.31809 0.15664 0.69421 0.0
H651 H 0.27717 0.12247 0.68384 0.0
C652 C 0.39426 0.1924 0.73322 0.0
C653 C 0.39514 0.20696 0.77099 0.0
C654 C 0.37447 0.16892 0.72705 0.0
C655 C 0.35559 0.15951 0.75872 0.0
C656 C 0.35742 0.17337 0.79688 0.0
C657 C 0.3769 0.19689 0.8029 0.0
C658 C 0.30271 0.09509 0.77437 0.0
C659 C 0.28452 0.09774 0.73983 0.0
C660 C 0.32636 0.11473 0.78018 0.0
C661 C 0.33229 0.13708 0.75135 0.0
C662 C 0.31434 0.13935 0.71658 0.0
C663 C 0.29066 0.11996 0.71095 0.0
H664 H 0.88319 0.29215 0.66956 0.0
H665 H 0.91863 0.29978 0.79162 0.0
H666 H 0.849 0.3324 0.68317 0.0
H667 H 0.88435 0.34074 0.80515 0.0
H668 H 0.78767 0.37306 0.82683 0.0
H669 H 0.83 0.34147 0.81338 0.0
H670 H 0.84385 0.38571 0.69797 0.0
H671 H 0.80083 0.41742 0.71127 0.0
C672 C 0.8839 0.30268 0.69923 0.0
C673 C 0.90324 0.29255 0.72981 0.0
C674 C 0.86451 0.326 0.70682 0.0
C675 C 0.86396 0.33964 0.74521 0.0
C676 C 0.88416 0.33036 0.77536 0.0
C677 C 0.90376 0.30701 0.76766 0.0
C678 C 0.79975 0.37621 0.7986 0.0
C679 C 0.79073 0.39747 0.76981 0.0
C680 C 0.82427 0.35832 0.79118 0.0
C681 C 0.84029 0.36122 0.75475 0.0
C682 C 0.83173 0.38294 0.72625 0.0
C683 C 0.80715 0.40101 0.73378 0.0
H684 H 0.71581 0.87918 0.67084 0.0
H685 H 0.7037 0.90766 0.7956 0.0
H686 H 0.67808 0.84114 0.68016 0.0
H687 H 0.66578 0.86932 0.80488 0.0
H688 H 0.63227 0.77254 0.81592 0.0
H689 H 0.66712 0.81304 0.80582 0.0
H690 H 0.62271 0.83675 0.69376 0.0
H691 H 0.58748 0.79601 0.70388 0.0
C692 C 0.70504 0.87734 0.70027 0.0
C693 C 0.71282 0.89623 0.73265 0.0
C694 C 0.68327 0.85571 0.70543 0.0
C695 C 0.66908 0.85233 0.74318 0.0
C696 C 0.67661 0.87139 0.77552 0.0
C697 C 0.6982 0.89332 0.77021 0.0
C698 C 0.62993 0.78628 0.78901 0.0
C699 C 0.60719 0.78105 0.76057 0.0
C700 C 0.64974 0.80964 0.78349 0.0
C701 C 0.64743 0.82811 0.74922 0.0
C702 C 0.62496 0.82273 0.72042 0.0
C703 C 0.60486 0.79946 0.72617 0.0
H704 H 0.03713 0.17984 0.40475 0.0
H705 H 0.00592 0.26996 0.39203 0.0
H706 H 0.02541 0.18094 0.47698 0.0
H707 H 0.99341 0.27081 0.4647 0.0
H708 H 0.00292 0.27047 0.60444 0.0
H709 H 0.01786 0.27017 0.53258 0.0
H710 H 0.98179 0.18188 0.51953 0.0
H711 H 0.96759 0.18193 0.59088 0.0
C712 C 0.02745 0.19981 0.41733 0.0
C713 C 0.02234 0.2248 0.39275 0.0
C714 C 0.0207 0.20042 0.45874 0.0
C715 C 0.00854 0.22597 0.47652 0.0
C716 C 0.00315 0.25095 0.4519 0.0
C717 C 0.00998 0.25035 0.41029 0.0
C718 C 0.99864 0.25089 0.58625 0.0
C719 C 0.98411 0.22624 0.60316 0.0
C720 C 0.00687 0.25084 0.5451 0.0
C721 C 0.00083 0.22607 0.52041 0.0
C722 C 0.98703 0.20118 0.53782 0.0
C723 C 0.97881 0.20126 0.57872 0.0
H724 H 0.71924 0.97837 0.60501 0.0
H725 H 0.81201 0.00146 0.60876 0.0
H726 H 0.71795 0.98895 0.53229 0.0
H727 H 0.81049 0.01453 0.53675 0.0
H728 H 0.81085 0.00414 0.40134 0.0
H729 H 0.80982 0.99292 0.47385 0.0
H730 H 0.71835 0.02191 0.47936 0.0
H731 H 0.71907 0.03068 0.40608 0.0
C732 C 0.73913 0.98665 0.59036 0.0
C733 C 0.76575 0.98906 0.61219 0.0
C734 C 0.73845 0.99279 0.5486 0.0
C735 C 0.76423 0.00222 0.52808 0.0
C736 C 0.79041 0.00631 0.5509 0.0
C737 C 0.79127 -0.0007 0.59234 0.0
C738 C 0.79045 0.00757 0.41813 0.0
C739 C 0.76502 0.01809 0.39834 0.0
C740 C 0.7899 0.00162 0.45987 0.0
C741 C 0.76415 0.00701 0.48306 0.0
C742 C 0.7385 0.01706 0.46275 0.0
C743 C 0.73885 0.02216 0.42071 0.0
H744 H 0.00236 0.7288 0.58881 0.0
H745 H 0.03532 0.81868 0.58248 0.0
H746 H 0.98949 0.73104 0.51635 0.0
H747 H 0.02296 0.82073 0.51034 0.0
H748 H 0.00197 0.73513 0.37759 0.0
H749 H 0.01558 0.73359 0.44971 0.0
H750 H 0.97951 0.82152 0.46597 0.0
H751 H 0.96635 0.82325 0.39397 0.0
C752 C 0.00667 0.74905 0.57202 0.0
C753 C 0.01982 0.77355 0.59124 0.0
C754 C -0.00041 0.75024 0.53052 0.0
C755 C 0.0054 0.776 0.50765 0.0
C756 C 0.018 0.80066 0.5272 0.0
C757 C 0.02514 0.79944 0.56852 0.0
C758 C 0.99733 0.75426 0.39649 0.0
C759 C 0.98309 0.7793 0.38021 0.0
C760 C 0.00481 0.75324 0.43783 0.0
C761 C 0.99834 0.77731 0.46354 0.0
C762 C 0.98493 0.80269 0.44688 0.0
C763 C 0.97737 0.80367 0.40565 0.0
H764 H 0.273 0.00095 0.60941 0.0
H765 H 0.18301 0.03232 0.59575 0.0
H766 H 0.27436 0.98865 0.53673 0.0
H767 H 0.18464 0.02087 0.52345 0.0
H768 H 0.18602 0.96318 0.4097 0.0
H769 H 0.18563 0.97743 0.48096 0.0
H770 H 0.27434 0.0127 0.46882 0.0
H771 H 0.27499 0.99765 0.39701 0.0
C772 C 0.25354 0.00513 0.59092 0.0
C773 C 0.22786 0.01741 0.60821 0.0
C774 C 0.25443 0.99842 0.5493 0.0
C775 C 0.22963 0.00388 0.5244 0.0
C776 C 0.20397 0.01607 0.54191 0.0
C777 C 0.20307 0.02267 0.58335 0.0
C778 C 0.20539 0.97421 0.42204 0.0
C779 C 0.23058 0.97927 0.39786 0.0
C780 C 0.20511 0.98248 0.4629 0.0
C781 C 0.22998 0.99611 0.48053 0.0
C782 C 0.255 0.00186 0.45613 0.0
C783 C 0.25527 0.99354 0.41502 0.0
H784 H 0.50834 0.7719 0.89311 0.0
H785 H 0.53706 0.68087 0.90449 0.0
H786 H 0.4935 0.77175 0.96493 0.0
H787 H 0.5231 0.68096 0.97597 0.0
H788 H 0.50002 0.76885 0.10509 0.0
H789 H 0.51543 0.76976 0.03354 0.0
H790 H 0.47902 0.6819 0.01702 0.0
H791 H 0.46445 0.68071 0.08829 0.0
C792 C 0.51142 0.75191 0.91092 0.0
C793 C 0.52372 0.72638 0.89323 0.0
C794 C 0.5032 0.75189 0.95206 0.0
C795 C 0.50717 0.72635 0.9761 0.0
C796 C 0.51937 0.70085 0.95817 0.0
C797 C 0.52746 0.70085 0.91719 0.0
C798 C 0.49561 0.74967 0.08616 0.0
C799 C 0.48113 0.72469 0.10222 0.0
C800 C 0.50416 0.7503 0.04517 0.0
C801 C 0.49836 0.72593 0.01963 0.0
C802 C 0.48416 0.70088 0.03599 0.0
C803 C 0.47572 0.70023 0.07684 0.0
H804 H 0.31599 0.54062 0.90471 0.0
H805 H 0.23067 0.49904 0.88648 0.0
H806 H 0.31559 0.52515 0.9758 0.0
H807 H 0.23049 0.48307 0.95781 0.0
H808 H 0.31839 0.4654 0.0882 0.0
H809 H 0.31859 0.48014 0.01683 0.0
H810 H 0.22668 0.50623 0.02637 0.0
H811 H 0.22633 0.49095 0.098 0.0
C812 C 0.2973 0.52786 0.91579 0.0
C813 C 0.27334 0.52105 0.89008 0.0
C814 C 0.2971 0.51894 0.95651 0.0
C815 C 0.27294 0.50303 0.97242 0.0
C816 C 0.24921 0.49569 0.9465 0.0
C817 C 0.24945 0.50456 0.90562 0.0
C818 C 0.29825 0.47444 0.07518 0.0
C819 C 0.27233 0.47704 0.09864 0.0
C820 C 0.2984 0.48295 0.03431 0.0
C821 C 0.27263 0.49423 0.01597 0.0
C822 C 0.24676 0.49722 0.03957 0.0
C823 C 0.24663 0.48876 0.08062 0.0
H824 H 0.5358 0.31965 0.09129 0.0
H825 H 0.50656 0.22876 0.10282 0.0
H826 H 0.5217 0.31955 0.01971 0.0
H827 H 0.49182 0.22886 0.03103 0.0
H828 H 0.49856 0.23046 0.89163 0.0
H829 H 0.51501 0.23078 0.96271 0.0
H830 H 0.47712 0.31803 0.97831 0.0
H831 H 0.46127 0.31794 0.90743 0.0
C832 C 0.52607 0.29972 0.07861 0.0
C833 C 0.52226 0.2742 0.10261 0.0
C834 C 0.51794 0.2997 0.0376 0.0
C835 C 0.50577 0.27416 0.01972 0.0
C836 C 0.50157 0.24872 0.04387 0.0
C837 C 0.50972 0.24875 0.08501 0.0
C838 C 0.49412 0.24982 0.91017 0.0
C839 C 0.47861 0.27415 0.89409 0.0
C840 C 0.50326 0.24988 0.95091 0.0
C841 C 0.49714 0.27433 0.97614 0.0
C842 C 0.48238 0.29897 0.95958 0.0
C843 C 0.47323 0.29888 0.91898 0.0
H844 H 0.68409 0.46247 0.91361 0.0
H845 H 0.77283 0.49649 0.89638 0.0
H846 H 0.68521 0.47799 0.98443 0.0
H847 H 0.77374 0.51267 0.96771 0.0
H848 H 0.77484 0.50394 0.10883 0.0
H849 H 0.77472 0.48954 0.03681 0.0
H850 H 0.68541 0.52307 0.0246 0.0
H851 H 0.68528 0.53676 0.0962 0.0
C852 C 0.70374 0.47362 0.92486 0.0
C853 C 0.7284 0.47827 0.89952 0.0
C854 C 0.70433 0.48259 0.96545 0.0
C855 C 0.72959 0.49646 0.98164 0.0
C856 C 0.75412 0.50167 0.95611 0.0
C857 C 0.75349 0.4927 0.91528 0.0
C858 C 0.75515 0.50795 0.09074 0.0
C859 C 0.73004 0.52132 0.1081 0.0
C860 C 0.75519 0.50003 0.0495 0.0
C861 C 0.73008 0.50527 0.0251 0.0
C862 C 0.70497 0.51845 0.04271 0.0
C863 C 0.70493 0.52633 0.08374 0.0
loop_
_geom_bond_atom_site_label_1
_geom_bond_atom_site_label_2
_geom_bond_distance
_geom_bond_site_symmetry_2
_ccdc_geom_bond_type
Co0 O1 2.216 . S
Co0 O2 2.091 . S
Co0 O4 2.004 1_455 S
Co0 O10 2.021 . S
Co0 O12 2.137 . S
Co0 O13 2.244 . S
O1 Co0 2.216 . S
O1 C8 1.247 . S
O2 Co0 2.091 . S
O2 C8 1.261 . S
C3 O12 1.247 . S
C3 O13 1.272 . S
O4 Co0 2.004 1_655 S
O4 C9 1.259 . S
Co5 O6 2.061 1_455 S
Co5 O11 2.052 . S
Co5 O13 2.135 . S
O6 Co5 2.061 1_655 S
O6 C9 1.235 . S
C7 O10 1.238 . S
C7 O11 1.241 . S
C8 O1 1.247 . S
C8 O2 1.261 . S
C9 O4 1.259 . S
C9 O6 1.235 . S
O10 Co0 2.021 . S
O10 C7 1.238 . S
O11 Co5 2.052 . S
O11 C7 1.241 . S
O12 Co0 2.137 . S
O12 C3 1.247 . S
O13 Co0 2.244 . S
O13 C3 1.272 . S
O13 Co5 2.135 . S
Co14 O15 2.216 . S
Co14 O16 2.091 . S
Co14 O18 2.004 1_545 S
Co14 O24 2.021 . S
Co14 O26 2.137 . S
Co14 O27 2.244 . S
O15 Co14 2.216 . S
O15 C22 1.247 . S
O16 Co14 2.091 . S
O16 C22 1.261 . S
C17 O26 1.247 . S
C17 O27 1.272 . S
O18 Co14 2.004 1_565 S
O18 C23 1.259 . S
Co19 O20 2.061 1_545 S
Co19 O25 2.052 . S
Co19 O27 2.135 . S
O20 Co19 2.061 1_565 S
O20 C23 1.235 . S
C21 O24 1.238 . S
C21 O25 1.241 . S
C22 O15 1.247 . S
C22 O16 1.261 . S
C23 O18 1.259 . S
C23 O20 1.235 . S
O24 Co14 2.021 . S
O24 C21 1.238 . S
O25 Co19 2.052 . S
O25 C21 1.241 . S
O26 Co14 2.137 . S
O26 C17 1.247 . S
O27 Co14 2.244 . S
O27 C17 1.272 . S
O27 Co19 2.135 . S
Co28 O29 2.216 . S
Co28 O30 2.091 . S
Co28 O32 2.004 1_655 S
Co28 O38 2.021 . S
Co28 O40 2.137 . S
Co28 O41 2.244 . S
O29 Co28 2.216 . S
O29 C36 1.247 . S
O30 Co28 2.091 . S
O30 C36 1.261 . S
C31 O40 1.247 . S
C31 O41 1.272 . S
O32 Co28 2.004 1_455 S
O32 C37 1.259 . S
Co33 O34 2.061 1_655 S
Co33 O39 2.052 . S
Co33 O41 2.135 . S
O34 Co33 2.061 1_455 S
O34 C37 1.235 . S
C35 O38 1.238 . S
C35 O39 1.241 . S
C36 O29 1.247 . S
C36 O30 1.261 . S
C37 O32 1.259 . S
C37 O34 1.235 . S
O38 Co28 2.021 . S
O38 C35 1.238 . S
O39 Co33 2.052 . S
O39 C35 1.241 . S
O40 Co28 2.137 . S
O40 C31 1.247 . S
O41 Co28 2.244 . S
O41 C31 1.272 . S
O41 Co33 2.135 . S
Co42 O43 2.216 . S
Co42 O44 2.091 . S
Co42 O46 2.004 1_565 S
Co42 O52 2.021 . S
Co42 O54 2.137 . S
Co42 O55 2.244 . S
O43 Co42 2.216 . S
O43 C50 1.247 . S
O44 Co42 2.091 . S
O44 C50 1.261 . S
C45 O54 1.247 . S
C45 O55 1.272 . S
O46 Co42 2.004 1_545 S
O46 C51 1.259 . S
Co47 O48 2.061 1_565 S
Co47 O53 2.052 . S
Co47 O55 2.135 . S
O48 Co47 2.061 1_545 S
O48 C51 1.235 . S
C49 O52 1.238 . S
C49 O53 1.241 . S
C50 O43 1.247 . S
C50 O44 1.261 . S
C51 O46 1.259 . S
C51 O48 1.235 . S
O52 Co42 2.021 . S
O52 C49 1.238 . S
O53 Co47 2.052 . S
O53 C49 1.241 . S
O54 Co42 2.137 . S
O54 C45 1.247 . S
O55 Co42 2.244 . S
O55 C45 1.272 . S
O55 Co47 2.135 . S
Co56 O57 2.216 . S
Co56 O58 2.091 . S
Co56 O60 2.004 1_455 S
Co56 O66 2.021 . S
Co56 O68 2.137 . S
Co56 O69 2.244 . S
O57 Co56 2.216 . S
O57 C64 1.247 . S
O58 Co56 2.091 . S
O58 C64 1.261 . S
C59 O68 1.247 . S
C59 O69 1.272 . S
O60 Co56 2.004 1_655 S
O60 C65 1.259 . S
Co61 O62 2.061 1_455 S
Co61 O67 2.052 . S
Co61 O69 2.135 . S
O62 Co61 2.061 1_655 S
O62 C65 1.235 . S
C63 O66 1.238 . S
C63 O67 1.241 . S
C64 O57 1.247 . S
C64 O58 1.261 . S
C65 O60 1.259 . S
C65 O62 1.235 . S
O66 Co56 2.021 . S
O66 C63 1.238 . S
O67 Co61 2.052 . S
O67 C63 1.241 . S
O68 Co56 2.137 . S
O68 C59 1.247 . S
O69 Co56 2.244 . S
O69 C59 1.272 . S
O69 Co61 2.135 . S
Co70 O71 2.216 . S
Co70 O72 2.091 . S
Co70 O74 2.004 1_545 S
Co70 O80 2.021 . S
Co70 O82 2.137 . S
Co70 O83 2.244 . S
O71 Co70 2.216 . S
O71 C78 1.247 . S
O72 Co70 2.091 . S
O72 C78 1.261 . S
C73 O82 1.247 . S
C73 O83 1.272 . S
O74 Co70 2.004 1_565 S
O74 C79 1.259 . S
Co75 O76 2.061 1_545 S
Co75 O81 2.052 . S
Co75 O83 2.135 . S
O76 Co75 2.061 1_565 S
O76 C79 1.235 . S
C77 O80 1.238 . S
C77 O81 1.241 . S
C78 O71 1.247 . S
C78 O72 1.261 . S
C79 O74 1.259 . S
C79 O76 1.235 . S
O80 Co70 2.021 . S
O80 C77 1.238 . S
O81 Co75 2.052 . S
O81 C77 1.241 . S
O82 Co70 2.137 . S
O82 C73 1.247 . S
O83 Co70 2.244 . S
O83 C73 1.272 . S
O83 Co75 2.135 . S
Co84 O85 2.216 . S
Co84 O86 2.091 . S
Co84 O88 2.004 1_655 S
Co84 O94 2.021 . S
Co84 O96 2.137 . S
Co84 O97 2.244 . S
O85 Co84 2.216 . S
O85 C92 1.247 . S
O86 Co84 2.091 . S
O86 C92 1.261 . S
C87 O96 1.247 . S
C87 O97 1.272 . S
O88 Co84 2.004 1_455 S
O88 C93 1.259 . S
Co89 O90 2.061 1_655 S
Co89 O95 2.052 . S
Co89 O97 2.135 . S
O90 Co89 2.061 1_455 S
O90 C93 1.235 . S
C91 O94 1.238 . S
C91 O95 1.241 . S
C92 O85 1.247 . S
C92 O86 1.261 . S
C93 O88 1.259 . S
C93 O90 1.235 . S
O94 Co84 2.021 . S
O94 C91 1.238 . S
O95 Co89 2.052 . S
O95 C91 1.241 . S
O96 Co84 2.137 . S
O96 C87 1.247 . S
O97 Co84 2.244 . S
O97 C87 1.272 . S
O97 Co89 2.135 . S
Co98 O99 2.216 . S
Co98 O100 2.091 . S
Co98 O102 2.004 1_565 S
Co98 O108 2.021 . S
Co98 O110 2.137 . S
Co98 O111 2.244 . S
O99 Co98 2.216 . S
O99 C106 1.247 . S
O100 Co98 2.091 . S
O100 C106 1.261 . S
C101 O110 1.247 . S
C101 O111 1.272 . S
O102 Co98 2.004 1_545 S
O102 C107 1.259 . S
Co103 O104 2.061 1_565 S
Co103 O109 2.052 . S
Co103 O111 2.135 . S
O104 Co103 2.061 1_545 S
O104 C107 1.235 . S
C105 O108 1.238 . S
C105 O109 1.241 . S
C106 O99 1.247 . S
C106 O100 1.261 . S
C107 O102 1.259 . S
C107 O104 1.235 . S
O108 Co98 2.021 . S
O108 C105 1.238 . S
O109 Co103 2.052 . S
O109 C105 1.241 . S
O110 Co98 2.137 . S
O110 C101 1.247 . S
O111 Co98 2.244 . S
O111 C101 1.272 . S
O111 Co103 2.135 . S
Co112 O113 2.216 . S
Co112 O114 2.091 . S
Co112 O116 2.004 . S
Co112 O122 2.021 . S
Co112 O124 2.137 . S
Co112 O125 2.244 . S
O113 Co112 2.216 . S
O113 C120 1.247 . S
O114 Co112 2.091 . S
O114 C120 1.261 . S
C115 O124 1.247 . S
C115 O125 1.272 . S
O116 Co112 2.004 . S
O116 C121 1.259 . S
Co117 O118 2.061 . S
Co117 O123 2.052 . S
Co117 O125 2.135 . S
O118 Co117 2.061 . S
O118 C121 1.235 . S
C119 O122 1.238 . S
C119 O123 1.241 . S
C120 O113 1.247 . S
C120 O114 1.261 . S
C121 O116 1.259 . S
C121 O118 1.235 . S
O122 Co112 2.021 . S
O122 C119 1.238 . S
O123 Co117 2.052 . S
O123 C119 1.241 . S
O124 Co112 2.137 . S
O124 C115 1.247 . S
O125 Co112 2.244 . S
O125 C115 1.272 . S
O125 Co117 2.135 . S
Co126 O127 2.216 . S
Co126 O128 2.091 . S
Co126 O130 2.004 . S
Co126 O136 2.021 . S
Co126 O138 2.137 . S
Co126 O139 2.244 . S
O127 Co126 2.216 . S
O127 C134 1.247 . S
O128 Co126 2.091 . S
O128 C134 1.261 . S
C129 O138 1.247 . S
C129 O139 1.272 . S
O130 Co126 2.004 . S
O130 C135 1.259 . S
Co131 O132 2.061 . S
Co131 O137 2.052 . S
Co131 O139 2.135 . S
O132 Co131 2.061 . S
O132 C135 1.235 . S
C133 O136 1.238 . S
C133 O137 1.241 . S
C134 O127 1.247 . S
C134 O128 1.261 . S
C135 O130 1.259 . S
C135 O132 1.235 . S
O136 Co126 2.021 . S
O136 C133 1.238 . S
O137 Co131 2.052 . S
O137 C133 1.241 . S
O138 Co126 2.137 . S
O138 C129 1.247 . S
O139 Co126 2.244 . S
O139 C129 1.272 . S
O139 Co131 2.135 . S
Co140 O141 2.216 . S
Co140 O142 2.091 . S
Co140 O144 2.004 . S
Co140 O150 2.021 . S
Co140 O152 2.137 . S
Co140 O153 2.244 . S
O141 Co140 2.216 . S
O141 C148 1.247 . S
O142 Co140 2.091 . S
O142 C148 1.261 . S
C143 O152 1.247 . S
C143 O153 1.272 . S
O144 Co140 2.004 . S
O144 C149 1.259 . S
Co145 O146 2.061 . S
Co145 O151 2.052 . S
Co145 O153 2.135 . S
O146 Co145 2.061 . S
O146 C149 1.235 . S
C147 O150 1.238 . S
C147 O151 1.241 . S
C148 O141 1.247 . S
C148 O142 1.261 . S
C149 O144 1.259 . S
C149 O146 1.235 . S
O150 Co140 2.021 . S
O150 C147 1.238 . S
O151 Co145 2.052 . S
O151 C147 1.241 . S
O152 Co140 2.137 . S
O152 C143 1.247 . S
O153 Co140 2.244 . S
O153 C143 1.272 . S
O153 Co145 2.135 . S
Co154 O155 2.216 . S
Co154 O156 2.091 . S
Co154 O158 2.004 . S
Co154 O164 2.021 . S
Co154 O166 2.137 . S
Co154 O167 2.244 . S
O155 Co154 2.216 . S
O155 C162 1.247 . S
O156 Co154 2.091 . S
O156 C162 1.261 . S
C157 O166 1.247 . S
C157 O167 1.272 . S
O158 Co154 2.004 . S
O158 C163 1.259 . S
Co159 O160 2.061 . S
Co159 O165 2.052 . S
Co159 O167 2.135 . S
O160 Co159 2.061 . S
O160 C163 1.235 . S
C161 O164 1.238 . S
C161 O165 1.241 . S
C162 O155 1.247 . S
C162 O156 1.261 . S
C163 O158 1.259 . S
C163 O160 1.235 . S
O164 Co154 2.021 . S
O164 C161 1.238 . S
O165 Co159 2.052 . S
O165 C161 1.241 . S
O166 Co154 2.137 . S
O166 C157 1.247 . S
O167 Co154 2.244 . S
O167 C157 1.272 . S
O167 Co159 2.135 . S
Co168 O169 2.216 . S
Co168 O170 2.091 . S
Co168 O172 2.004 . S
Co168 O178 2.021 . S
Co168 O180 2.137 . S
Co168 O181 2.244 . S
O169 Co168 2.216 . S
O169 C176 1.247 . S
O170 Co168 2.091 . S
O170 C176 1.261 . S
C171 O180 1.247 . S
C171 O181 1.272 . S
O172 Co168 2.004 . S
O172 C177 1.259 . S
Co173 O174 2.061 . S
Co173 O179 2.052 . S
Co173 O181 2.135 . S
O174 Co173 2.061 . S
O174 C177 1.235 . S
C175 O178 1.238 . S
C175 O179 1.241 . S
C176 O169 1.247 . S
C176 O170 1.261 . S
C177 O172 1.259 . S
C177 O174 1.235 . S
O178 Co168 2.021 . S
O178 C175 1.238 . S
O179 Co173 2.052 . S
O179 C175 1.241 . S
O180 Co168 2.137 . S
O180 C171 1.247 . S
O181 Co168 2.244 . S
O181 C171 1.272 . S
O181 Co173 2.135 . S
Co182 O183 2.216 . S
Co182 O184 2.091 . S
Co182 O186 2.004 . S
Co182 O192 2.021 . S
Co182 O194 2.137 . S
Co182 O195 2.244 . S
O183 Co182 2.216 . S
O183 C190 1.247 . S
O184 Co182 2.091 . S
O184 C190 1.261 . S
C185 O194 1.247 . S
C185 O195 1.272 . S
O186 Co182 2.004 . S
O186 C191 1.259 . S
Co187 O188 2.061 . S
Co187 O193 2.052 . S
Co187 O195 2.135 . S
O188 Co187 2.061 . S
O188 C191 1.235 . S
C189 O192 1.238 . S
C189 O193 1.241 . S
C190 O183 1.247 . S
C190 O184 1.261 . S
C191 O186 1.259 . S
C191 O188 1.235 . S
O192 Co182 2.021 . S
O192 C189 1.238 . S
O193 Co187 2.052 . S
O193 C189 1.241 . S
O194 Co182 2.137 . S
O194 C185 1.247 . S
O195 Co182 2.244 . S
O195 C185 1.272 . S
O195 Co187 2.135 . S
Co196 O197 2.216 . S
Co196 O198 2.091 . S
Co196 O200 2.004 . S
Co196 O206 2.021 . S
Co196 O208 2.137 . S
Co196 O209 2.244 . S
O197 Co196 2.216 . S
O197 C204 1.247 . S
O198 Co196 2.091 . S
O198 C204 1.261 . S
C199 O208 1.247 . S
C199 O209 1.272 . S
O200 Co196 2.004 . S
O200 C205 1.259 . S
Co201 O202 2.061 . S
Co201 O207 2.052 . S
Co201 O209 2.135 . S
O202 Co201 2.061 . S
O202 C205 1.235 . S
C203 O206 1.238 . S
C203 O207 1.241 . S
C204 O197 1.247 . S
C204 O198 1.261 . S
C205 O200 1.259 . S
C205 O202 1.235 . S
O206 Co196 2.021 . S
O206 C203 1.238 . S
O207 Co201 2.052 . S
O207 C203 1.241 . S
O208 Co196 2.137 . S
O208 C199 1.247 . S
O209 Co196 2.244 . S
O209 C199 1.272 . S
O209 Co201 2.135 . S
Co210 O211 2.216 . S
Co210 O212 2.091 . S
Co210 O214 2.004 . S
Co210 O220 2.021 . S
Co210 O222 2.137 . S
Co210 O223 2.244 . S
O211 Co210 2.216 . S
O211 C218 1.247 . S
O212 Co210 2.091 . S
O212 C218 1.261 . S
C213 O222 1.247 . S
C213 O223 1.272 . S
O214 Co210 2.004 . S
O214 C219 1.259 . S
Co215 O216 2.061 . S
Co215 O221 2.052 . S
Co215 O223 2.135 . S
O216 Co215 2.061 . S
O216 C219 1.235 . S
C217 O220 1.238 . S
C217 O221 1.241 . S
C218 O211 1.247 . S
C218 O212 1.261 . S
C219 O214 1.259 . S
C219 O216 1.235 . S
O220 Co210 2.021 . S
O220 C217 1.238 . S
O221 Co215 2.052 . S
O221 C217 1.241 . S
O222 Co210 2.137 . S
O222 C213 1.247 . S
O223 Co210 2.244 . S
O223 C213 1.272 . S
O223 Co215 2.135 . S
H224 C232 0.950 . S
H225 C237 0.950 . S
H226 C234 0.950 . S
H227 C236 0.950 . S
H228 C238 0.950 . S
H229 C240 0.950 . S
H230 C242 0.950 . S
H231 C243 0.950 . S
C232 H224 0.950 . S
C232 C233 1.386 . S
C232 C234 1.391 . S
C233 C232 1.386 . S
C233 C237 1.393 . S
C234 H226 0.950 . S
C234 C232 1.391 . S
C234 C235 1.400 . S
C235 C234 1.400 . S
C235 C236 1.398 . S
C235 C241 1.491 . S
C236 H227 0.950 . S
C236 C235 1.398 . S
C236 C237 1.391 . S
C237 H225 0.950 . S
C237 C233 1.393 . S
C237 C236 1.391 . S
C238 H228 0.950 . S
C238 C239 1.386 . S
C238 C240 1.391 . S
C239 C238 1.386 . S
C239 C243 1.393 . S
C240 H229 0.950 . S
C240 C238 1.391 . S
C240 C241 1.400 . S
C241 C235 1.491 . S
C241 C240 1.400 . S
C241 C242 1.398 . S
C242 H230 0.950 . S
C242 C241 1.398 . S
C242 C243 1.391 . S
C243 H231 0.950 . S
C243 C239 1.393 . S
C243 C242 1.391 . S
H244 C252 0.950 . S
H245 C257 0.950 . S
H246 C254 0.950 . S
H247 C256 0.950 . S
H248 C258 0.950 . S
H249 C260 0.950 . S
H250 C262 0.950 . S
H251 C263 0.950 . S
C252 H244 0.950 . S
C252 C253 1.386 . S
C252 C254 1.391 . S
C253 C252 1.386 . S
C253 C257 1.393 . S
C254 H246 0.950 . S
C254 C252 1.391 . S
C254 C255 1.400 . S
C255 C254 1.400 . S
C255 C256 1.398 . S
C255 C261 1.491 . S
C256 H247 0.950 . S
C256 C255 1.398 . S
C256 C257 1.391 . S
C257 H245 0.950 . S
C257 C253 1.393 . S
C257 C256 1.391 . S
C258 H248 0.950 . S
C258 C259 1.386 . S
C258 C260 1.391 . S
C259 C258 1.386 . S
C259 C263 1.393 . S
C260 H249 0.950 . S
C260 C258 1.391 . S
C260 C261 1.400 . S
C261 C255 1.491 . S
C261 C260 1.400 . S
C261 C262 1.398 . S
C262 H250 0.950 . S
C262 C261 1.398 . S
C262 C263 1.391 . S
C263 H251 0.950 . S
C263 C259 1.393 . S
C263 C262 1.391 . S
H264 C272 0.950 . S
H265 C277 0.950 . S
H266 C274 0.950 . S
H267 C276 0.950 . S
H268 C278 0.950 . S
H269 C280 0.950 . S
H270 C282 0.950 . S
H271 C283 0.950 . S
C272 H264 0.950 . S
C272 C273 1.386 . S
C272 C274 1.391 . S
C273 C272 1.386 . S
C273 C277 1.393 . S
C274 H266 0.950 . S
C274 C272 1.391 . S
C274 C275 1.400 . S
C275 C274 1.400 . S
C275 C276 1.398 . S
C275 C281 1.491 . S
C276 H267 0.950 . S
C276 C275 1.398 . S
C276 C277 1.391 . S
C277 H265 0.950 . S
C277 C273 1.393 . S
C277 C276 1.391 . S
C278 H268 0.950 . S
C278 C279 1.386 . S
C278 C280 1.391 . S
C279 C278 1.386 . S
C279 C283 1.393 . S
C280 H269 0.950 . S
C280 C278 1.391 . S
C280 C281 1.400 . S
C281 C275 1.491 . S
C281 C280 1.400 . S
C281 C282 1.398 . S
C282 H270 0.950 . S
C282 C281 1.398 . S
C282 C283 1.391 . S
C283 H271 0.950 . S
C283 C279 1.393 . S
C283 C282 1.391 . S
H284 C292 0.950 . S
H285 C297 0.950 . S
H286 C294 0.950 . S
H287 C296 0.950 . S
H288 C298 0.950 . S
H289 C300 0.950 . S
H290 C302 0.950 . S
H291 C303 0.950 . S
C292 H284 0.950 . S
C292 C293 1.386 . S
C292 C294 1.391 . S
C293 C292 1.386 . S
C293 C297 1.393 . S
C294 H286 0.950 . S
C294 C292 1.391 . S
C294 C295 1.400 . S
C295 C294 1.400 . S
C295 C296 1.398 . S
C295 C301 1.491 . S
C296 H287 0.950 . S
C296 C295 1.398 . S
C296 C297 1.391 . S
C297 H285 0.950 . S
C297 C293 1.393 . S
C297 C296 1.391 . S
C298 H288 0.950 . S
C298 C299 1.386 . S
C298 C300 1.391 . S
C299 C298 1.386 . S
C299 C303 1.393 . S
C300 H289 0.950 . S
C300 C298 1.391 . S
C300 C301 1.400 . S
C301 C295 1.491 . S
C301 C300 1.400 . S
C301 C302 1.398 . S
C302 H290 0.950 . S
C302 C301 1.398 . S
C302 C303 1.391 . S
C303 H291 0.950 . S
C303 C299 1.393 . S
C303 C302 1.391 . S
H304 C312 0.950 . S
H305 C317 0.950 . S
H306 C314 0.950 . S
H307 C316 0.950 . S
H308 C318 0.950 . S
H309 C320 0.950 . S
H310 C322 0.950 . S
H311 C323 0.950 . S
C312 H304 0.950 . S
C312 C313 1.386 . S
C312 C314 1.391 . S
C313 C312 1.386 . S
C313 C317 1.393 . S
C314 H306 0.950 . S
C314 C312 1.391 . S
C314 C315 1.400 . S
C315 C314 1.400 . S
C315 C316 1.398 . S
C315 C321 1.491 . S
C316 H307 0.950 . S
C316 C315 1.398 . S
C316 C317 1.391 . S
C317 H305 0.950 . S
C317 C313 1.393 . S
C317 C316 1.391 . S
C318 H308 0.950 . S
C318 C319 1.386 . S
C318 C320 1.391 . S
C319 C318 1.386 . S
C319 C323 1.393 . S
C320 H309 0.950 . S
C320 C318 1.391 . S
C320 C321 1.400 . S
C321 C315 1.491 . S
C321 C320 1.400 . S
C321 C322 1.398 . S
C322 H310 0.950 . S
C322 C321 1.398 . S
C322 C323 1.391 . S
C323 H311 0.950 . S
C323 C319 1.393 . S
C323 C322 1.391 . S
H324 C332 0.950 . S
H325 C337 0.950 . S
H326 C334 0.950 . S
H327 C336 0.950 . S
H328 C338 0.950 . S
H329 C340 0.950 . S
H330 C342 0.950 . S
H331 C343 0.950 . S
C332 H324 0.950 . S
C332 C333 1.386 . S
C332 C334 1.391 . S
C333 C332 1.386 . S
C333 C337 1.393 . S
C334 H326 0.950 . S
C334 C332 1.391 . S
C334 C335 1.400 . S
C335 C334 1.400 . S
C335 C336 1.398 . S
C335 C341 1.491 . S
C336 H327 0.950 . S
C336 C335 1.398 . S
C336 C337 1.391 . S
C337 H325 0.950 . S
C337 C333 1.393 . S
C337 C336 1.391 . S
C338 H328 0.950 . S
C338 C339 1.386 . S
C338 C340 1.391 . S
C339 C338 1.386 . S
C339 C343 1.393 . S
C340 H329 0.950 . S
C340 C338 1.391 . S
C340 C341 1.400 . S
C341 C335 1.491 . S
C341 C340 1.400 . S
C341 C342 1.398 . S
C342 H330 0.950 . S
C342 C341 1.398 . S
C342 C343 1.391 . S
C343 H331 0.950 . S
C343 C339 1.393 . S
C343 C342 1.391 . S
H344 C352 0.950 . S
H345 C357 0.950 . S
H346 C354 0.950 . S
H347 C356 0.950 . S
H348 C358 0.950 . S
H349 C360 0.950 . S
H350 C362 0.950 . S
H351 C363 0.950 . S
C352 H344 0.950 . S
C352 C353 1.386 . S
C352 C354 1.391 . S
C353 C352 1.386 . S
C353 C357 1.393 . S
C354 H346 0.950 . S
C354 C352 1.391 . S
C354 C355 1.400 . S
C355 C354 1.400 . S
C355 C356 1.398 . S
C355 C361 1.491 . S
C356 H347 0.950 . S
C356 C355 1.398 . S
C356 C357 1.391 . S
C357 H345 0.950 . S
C357 C353 1.393 . S
C357 C356 1.391 . S
C358 H348 0.950 . S
C358 C359 1.386 . S
C358 C360 1.391 . S
C359 C358 1.386 . S
C359 C363 1.393 . S
C360 H349 0.950 . S
C360 C358 1.391 . S
C360 C361 1.400 . S
C361 C355 1.491 . S
C361 C360 1.400 . S
C361 C362 1.398 . S
C362 H350 0.950 . S
C362 C361 1.398 . S
C362 C363 1.391 . S
C363 H351 0.950 . S
C363 C359 1.393 . S
C363 C362 1.391 . S
H364 C372 0.950 . S
H365 C377 0.950 . S
H366 C374 0.950 . S
H367 C376 0.950 . S
H368 C378 0.950 . S
H369 C380 0.950 . S
H370 C382 0.950 . S
H371 C383 0.950 . S
C372 H364 0.950 . S
C372 C373 1.386 . S
C372 C374 1.391 . S
C373 C372 1.386 . S
C373 C377 1.393 . S
C374 H366 0.950 . S
C374 C372 1.391 . S
C374 C375 1.400 . S
C375 C374 1.400 . S
C375 C376 1.398 . S
C375 C381 1.491 . S
C376 H367 0.950 . S
C376 C375 1.398 . S
C376 C377 1.391 . S
C377 H365 0.950 . S
C377 C373 1.393 . S
C377 C376 1.391 . S
C378 H368 0.950 . S
C378 C379 1.386 . S
C378 C380 1.391 . S
C379 C378 1.386 . S
C379 C383 1.393 . S
C380 H369 0.950 . S
C380 C378 1.391 . S
C380 C381 1.400 . S
C381 C375 1.491 . S
C381 C380 1.400 . S
C381 C382 1.398 . S
C382 H370 0.950 . S
C382 C381 1.398 . S
C382 C383 1.391 . S
C383 H371 0.950 . S
C383 C379 1.393 . S
C383 C382 1.391 . S
H384 C392 0.950 . S
H385 C397 0.950 . S
H386 C394 0.950 . S
H387 C396 0.950 . S
H388 C398 0.950 . S
H389 C400 0.950 . S
H390 C402 0.950 . S
H391 C403 0.950 . S
C392 H384 0.950 . S
C392 C393 1.386 . S
C392 C394 1.391 . S
C393 C392 1.386 . S
C393 C397 1.393 . S
C394 H386 0.950 . S
C394 C392 1.391 . S
C394 C395 1.400 . S
C395 C394 1.400 . S
C395 C396 1.398 . S
C395 C401 1.491 . S
C396 H387 0.950 . S
C396 C395 1.398 . S
C396 C397 1.391 . S
C397 H385 0.950 . S
C397 C393 1.393 . S
C397 C396 1.391 . S
C398 H388 0.950 . S
C398 C399 1.386 . S
C398 C400 1.391 . S
C399 C398 1.386 . S
C399 C403 1.393 . S
C400 H389 0.950 . S
C400 C398 1.391 . S
C400 C401 1.400 . S
C401 C395 1.491 . S
C401 C400 1.400 . S
C401 C402 1.398 . S
C402 H390 0.950 . S
C402 C401 1.398 . S
C402 C403 1.391 . S
C403 H391 0.950 . S
C403 C399 1.393 . S
C403 C402 1.391 . S
H404 C412 0.950 . S
H405 C417 0.950 . S
H406 C414 0.950 . S
H407 C416 0.950 . S
H408 C418 0.950 . S
H409 C420 0.950 . S
H410 C422 0.950 . S
H411 C423 0.950 . S
C412 H404 0.950 . S
C412 C413 1.386 . S
C412 C414 1.391 . S
C413 C412 1.386 . S
C413 C417 1.393 . S
C414 H406 0.950 . S
C414 C412 1.391 . S
C414 C415 1.400 . S
C415 C414 1.400 . S
C415 C416 1.398 . S
C415 C421 1.491 . S
C416 H407 0.950 . S
C416 C415 1.398 . S
C416 C417 1.391 . S
C417 H405 0.950 . S
C417 C413 1.393 . S
C417 C416 1.391 . S
C418 H408 0.950 . S
C418 C419 1.386 . S
C418 C420 1.391 . S
C419 C418 1.386 . S
C419 C423 1.393 . S
C420 H409 0.950 . S
C420 C418 1.391 . S
C420 C421 1.400 . S
C421 C415 1.491 . S
C421 C420 1.400 . S
C421 C422 1.398 . S
C422 H410 0.950 . S
C422 C421 1.398 . S
C422 C423 1.391 . S
C423 H411 0.950 . S
C423 C419 1.393 . S
C423 C422 1.391 . S
H424 C432 0.950 . S
H425 C437 0.950 . S
H426 C434 0.950 . S
H427 C436 0.950 . S
H428 C438 0.950 . S
H429 C440 0.950 . S
H430 C442 0.950 . S
H431 C443 0.950 . S
C432 H424 0.950 . S
C432 C433 1.386 . S
C432 C434 1.391 . S
C433 C432 1.386 . S
C433 C437 1.393 . S
C434 H426 0.950 . S
C434 C432 1.391 . S
C434 C435 1.400 . S
C435 C434 1.400 . S
C435 C436 1.398 . S
C435 C441 1.491 . S
C436 H427 0.950 . S
C436 C435 1.398 . S
C436 C437 1.391 . S
C437 H425 0.950 . S
C437 C433 1.393 . S
C437 C436 1.391 . S
C438 H428 0.950 . S
C438 C439 1.386 . S
C438 C440 1.391 . S
C439 C438 1.386 . S
C439 C443 1.393 . S
C440 H429 0.950 . S
C440 C438 1.391 . S
C440 C441 1.400 . S
C441 C435 1.491 . S
C441 C440 1.400 . S
C441 C442 1.398 . S
C442 H430 0.950 . S
C442 C441 1.398 . S
C442 C443 1.391 . S
C443 H431 0.950 . S
C443 C439 1.393 . S
C443 C442 1.391 . S
H444 C452 0.950 . S
H445 C457 0.950 . S
H446 C454 0.950 . S
H447 C456 0.950 . S
H448 C458 0.950 . S
H449 C460 0.950 . S
H450 C462 0.950 . S
H451 C463 0.950 . S
C452 H444 0.950 . S
C452 C453 1.386 . S
C452 C454 1.391 . S
C453 C452 1.386 . S
C453 C457 1.393 . S
C454 H446 0.950 . S
C454 C452 1.391 . S
C454 C455 1.400 . S
C455 C454 1.400 . S
C455 C456 1.398 . S
C455 C461 1.491 . S
C456 H447 0.950 . S
C456 C455 1.398 . S
C456 C457 1.391 . S
C457 H445 0.950 . S
C457 C453 1.393 . S
C457 C456 1.391 . S
C458 H448 0.950 . S
C458 C459 1.386 . S
C458 C460 1.391 . S
C459 C458 1.386 . S
C459 C463 1.393 . S
C460 H449 0.950 . S
C460 C458 1.391 . S
C460 C461 1.400 . S
C461 C455 1.491 . S
C461 C460 1.400 . S
C461 C462 1.398 . S
C462 H450 0.950 . S
C462 C461 1.398 . S
C462 C463 1.391 . S
C463 H451 0.950 . S
C463 C459 1.393 . S
C463 C462 1.391 . S
H464 C472 0.950 . S
H465 C477 0.950 . S
H466 C474 0.950 . S
H467 C476 0.950 . S
H468 C478 0.950 . S
H469 C480 0.950 . S
H470 C482 0.950 . S
H471 C483 0.950 . S
C472 H464 0.950 . S
C472 C473 1.386 . S
C472 C474 1.391 . S
C473 C472 1.386 . S
C473 C477 1.393 . S
C474 H466 0.950 . S
C474 C472 1.391 . S
C474 C475 1.400 . S
C475 C474 1.400 . S
C475 C476 1.398 . S
C475 C481 1.491 . S
C476 H467 0.950 . S
C476 C475 1.398 . S
C476 C477 1.391 . S
C477 H465 0.950 . S
C477 C473 1.393 . S
C477 C476 1.391 . S
C478 H468 0.950 . S
C478 C479 1.386 . S
C478 C480 1.391 . S
C479 C478 1.386 . S
C479 C483 1.393 . S
C480 H469 0.950 . S
C480 C478 1.391 . S
C480 C481 1.400 . S
C481 C475 1.491 . S
C481 C480 1.400 . S
C481 C482 1.398 . S
C482 H470 0.950 . S
C482 C481 1.398 . S
C482 C483 1.391 . S
C483 H471 0.950 . S
C483 C479 1.393 . S
C483 C482 1.391 . S
H484 C492 0.950 . S
H485 C497 0.950 . S
H486 C494 0.950 . S
H487 C496 0.950 . S
H488 C498 0.950 . S
H489 C500 0.950 . S
H490 C502 0.950 . S
H491 C503 0.950 . S
C492 H484 0.950 . S
C492 C493 1.386 . S
C492 C494 1.391 . S
C493 C492 1.386 . S
C493 C497 1.393 . S
C494 H486 0.950 . S
C494 C492 1.391 . S
C494 C495 1.400 . S
C495 C494 1.400 . S
C495 C496 1.398 . S
C495 C501 1.491 . S
C496 H487 0.950 . S
C496 C495 1.398 . S
C496 C497 1.391 . S
C497 H485 0.950 . S
C497 C493 1.393 . S
C497 C496 1.391 . S
C498 H488 0.950 . S
C498 C499 1.386 . S
C498 C500 1.391 . S
C499 C498 1.386 . S
C499 C503 1.393 . S
C500 H489 0.950 . S
C500 C498 1.391 . S
C500 C501 1.400 . S
C501 C495 1.491 . S
C501 C500 1.400 . S
C501 C502 1.398 . S
C502 H490 0.950 . S
C502 C501 1.398 . S
C502 C503 1.391 . S
C503 H491 0.950 . S
C503 C499 1.393 . S
C503 C502 1.391 . S
H504 C512 0.950 . S
H505 C517 0.950 . S
H506 C514 0.950 . S
H507 C516 0.950 . S
H508 C518 0.950 . S
H509 C520 0.950 . S
H510 C522 0.950 . S
H511 C523 0.950 . S
C512 H504 0.950 . S
C512 C513 1.386 . S
C512 C514 1.391 . S
C513 C512 1.386 . S
C513 C517 1.393 . S
C514 H506 0.950 . S
C514 C512 1.391 . S
C514 C515 1.400 . S
C515 C514 1.400 . S
C515 C516 1.398 . S
C515 C521 1.491 . S
C516 H507 0.950 . S
C516 C515 1.398 . S
C516 C517 1.391 . S
C517 H505 0.950 . S
C517 C513 1.393 . S
C517 C516 1.391 . S
C518 H508 0.950 . S
C518 C519 1.386 . S
C518 C520 1.391 . S
C519 C518 1.386 . S
C519 C523 1.393 . S
C520 H509 0.950 . S
C520 C518 1.391 . S
C520 C521 1.400 . S
C521 C515 1.491 . S
C521 C520 1.400 . S
C521 C522 1.398 . S
C522 H510 0.950 . S
C522 C521 1.398 . S
C522 C523 1.391 . S
C523 H511 0.950 . S
C523 C519 1.393 . S
C523 C522 1.391 . S
H524 C532 0.950 . S
H525 C537 0.950 . S
H526 C534 0.950 . S
H527 C536 0.950 . S
H528 C538 0.950 . S
H529 C540 0.950 . S
H530 C542 0.950 . S
H531 C543 0.950 . S
C532 H524 0.950 . S
C532 C533 1.386 . S
C532 C534 1.391 . S
C533 C532 1.386 . S
C533 C537 1.393 . S
C534 H526 0.950 . S
C534 C532 1.391 . S
C534 C535 1.400 . S
C535 C534 1.400 . S
C535 C536 1.398 . S
C535 C541 1.491 . S
C536 H527 0.950 . S
C536 C535 1.398 . S
C536 C537 1.391 . S
C537 H525 0.950 . S
C537 C533 1.393 . S
C537 C536 1.391 . S
C538 H528 0.950 . S
C538 C539 1.386 . S
C538 C540 1.391 . S
C539 C538 1.386 . S
C539 C543 1.393 . S
C540 H529 0.950 . S
C540 C538 1.391 . S
C540 C541 1.400 . S
C541 C535 1.491 . S
C541 C540 1.400 . S
C541 C542 1.398 . S
C542 H530 0.950 . S
C542 C541 1.398 . S
C542 C543 1.391 . S
C543 H531 0.950 . S
C543 C539 1.393 . S
C543 C542 1.391 . S
H544 C552 0.950 . S
H545 C557 0.950 . S
H546 C554 0.950 . S
H547 C556 0.950 . S
H548 C558 0.950 . S
H549 C560 0.950 . S
H550 C562 0.950 . S
H551 C563 0.950 . S
C552 H544 0.950 . S
C552 C553 1.386 . S
C552 C554 1.391 . S
C553 C552 1.386 . S
C553 C557 1.393 . S
C554 H546 0.950 . S
C554 C552 1.391 . S
C554 C555 1.400 . S
C555 C554 1.400 . S
C555 C556 1.398 . S
C555 C561 1.491 . S
C556 H547 0.950 . S
C556 C555 1.398 . S
C556 C557 1.391 . S
C557 H545 0.950 . S
C557 C553 1.393 . S
C557 C556 1.391 . S
C558 H548 0.950 . S
C558 C559 1.386 . S
C558 C560 1.391 . S
C559 C558 1.386 . S
C559 C563 1.393 . S
C560 H549 0.950 . S
C560 C558 1.391 . S
C560 C561 1.400 . S
C561 C555 1.491 . S
C561 C560 1.400 . S
C561 C562 1.398 . S
C562 H550 0.950 . S
C562 C561 1.398 . S
C562 C563 1.391 . S
C563 H551 0.950 . S
C563 C559 1.393 . S
C563 C562 1.391 . S
H564 C572 0.950 . S
H565 C577 0.950 . S
H566 C574 0.950 . S
H567 C576 0.950 . S
H568 C578 0.950 . S
H569 C580 0.950 . S
H570 C582 0.950 . S
H571 C583 0.950 . S
C572 H564 0.950 . S
C572 C573 1.386 . S
C572 C574 1.391 . S
C573 C572 1.386 . S
C573 C577 1.393 . S
C574 H566 0.950 . S
C574 C572 1.391 . S
C574 C575 1.400 . S
C575 C574 1.400 . S
C575 C576 1.398 . S
C575 C581 1.491 . S
C576 H567 0.950 . S
C576 C575 1.398 . S
C576 C577 1.391 . S
C577 H565 0.950 . S
C577 C573 1.393 . S
C577 C576 1.391 . S
C578 H568 0.950 . S
C578 C579 1.386 . S
C578 C580 1.391 . S
C579 C578 1.386 . S
C579 C583 1.393 . S
C580 H569 0.950 . S
C580 C578 1.391 . S
C580 C581 1.400 . S
C581 C575 1.491 . S
C581 C580 1.400 . S
C581 C582 1.398 . S
C582 H570 0.950 . S
C582 C581 1.398 . S
C582 C583 1.391 . S
C583 H571 0.950 . S
C583 C579 1.393 . S
C583 C582 1.391 . S
H584 C592 0.950 . S
H585 C597 0.950 . S
H586 C594 0.950 . S
H587 C596 0.950 . S
H588 C598 0.950 . S
H589 C600 0.950 . S
H590 C602 0.950 . S
H591 C603 0.950 . S
C592 H584 0.950 . S
C592 C593 1.386 . S
C592 C594 1.391 . S
C593 C592 1.386 . S
C593 C597 1.393 . S
C594 H586 0.950 . S
C594 C592 1.391 . S
C594 C595 1.400 . S
C595 C594 1.400 . S
C595 C596 1.398 . S
C595 C601 1.491 . S
C596 H587 0.950 . S
C596 C595 1.398 . S
C596 C597 1.391 . S
C597 H585 0.950 . S
C597 C593 1.393 . S
C597 C596 1.391 . S
C598 H588 0.950 . S
C598 C599 1.386 . S
C598 C600 1.391 . S
C599 C598 1.386 . S
C599 C603 1.393 . S
C600 H589 0.950 . S
C600 C598 1.391 . S
C600 C601 1.400 . S
C601 C595 1.491 . S
C601 C600 1.400 . S
C601 C602 1.398 . S
C602 H590 0.950 . S
C602 C601 1.398 . S
C602 C603 1.391 . S
C603 H591 0.950 . S
C603 C599 1.393 . S
C603 C602 1.391 . S
H604 C612 0.950 . S
H605 C617 0.950 . S
H606 C614 0.950 . S
H607 C616 0.950 . S
H608 C618 0.950 . S
H609 C620 0.950 . S
H610 C622 0.950 . S
H611 C623 0.950 . S
C612 H604 0.950 . S
C612 C613 1.386 . S
C612 C614 1.391 . S
C613 C612 1.386 . S
C613 C617 1.393 . S
C614 H606 0.950 . S
C614 C612 1.391 . S
C614 C615 1.400 . S
C615 C614 1.400 . S
C615 C616 1.398 . S
C615 C621 1.491 . S
C616 H607 0.950 . S
C616 C615 1.398 . S
C616 C617 1.391 . S
C617 H605 0.950 . S
C617 C613 1.393 . S
C617 C616 1.391 . S
C618 H608 0.950 . S
C618 C619 1.386 . S
C618 C620 1.391 . S
C619 C618 1.386 . S
C619 C623 1.393 . S
C620 H609 0.950 . S
C620 C618 1.391 . S
C620 C621 1.400 . S
C621 C615 1.491 . S
C621 C620 1.400 . S
C621 C622 1.398 . S
C622 H610 0.950 . S
C622 C621 1.398 . S
C622 C623 1.391 . S
C623 H611 0.950 . S
C623 C619 1.393 . S
C623 C622 1.391 . S
H624 C632 0.950 . S
H625 C637 0.950 . S
H626 C634 0.950 . S
H627 C636 0.950 . S
H628 C638 0.950 . S
H629 C640 0.950 . S
H630 C642 0.950 . S
H631 C643 0.950 . S
C632 H624 0.950 . S
C632 C633 1.386 . S
C632 C634 1.391 . S
C633 C632 1.386 . S
C633 C637 1.393 . S
C634 H626 0.950 . S
C634 C632 1.391 . S
C634 C635 1.400 . S
C635 C634 1.400 . S
C635 C636 1.398 . S
C635 C641 1.491 . S
C636 H627 0.950 . S
C636 C635 1.398 . S
C636 C637 1.391 . S
C637 H625 0.950 . S
C637 C633 1.393 . S
C637 C636 1.391 . S
C638 H628 0.950 . S
C638 C639 1.386 . S
C638 C640 1.391 . S
C639 C638 1.386 . S
C639 C643 1.393 . S
C640 H629 0.950 . S
C640 C638 1.391 . S
C640 C641 1.400 . S
C641 C635 1.491 . S
C641 C640 1.400 . S
C641 C642 1.398 . S
C642 H630 0.950 . S
C642 C641 1.398 . S
C642 C643 1.391 . S
C643 H631 0.950 . S
C643 C639 1.393 . S
C643 C642 1.391 . S
H644 C652 0.950 . S
H645 C657 0.950 . S
H646 C654 0.950 . S
H647 C656 0.950 . S
H648 C658 0.950 . S
H649 C660 0.950 . S
H650 C662 0.950 . S
H651 C663 0.950 . S
C652 H644 0.950 . S
C652 C653 1.386 . S
C652 C654 1.391 . S
C653 C652 1.386 . S
C653 C657 1.393 . S
C654 H646 0.950 . S
C654 C652 1.391 . S
C654 C655 1.400 . S
C655 C654 1.400 . S
C655 C656 1.398 . S
C655 C661 1.491 . S
C656 H647 0.950 . S
C656 C655 1.398 . S
C656 C657 1.391 . S
C657 H645 0.950 . S
C657 C653 1.393 . S
C657 C656 1.391 . S
C658 H648 0.950 . S
C658 C659 1.386 . S
C658 C660 1.391 . S
C659 C658 1.386 . S
C659 C663 1.393 . S
C660 H649 0.950 . S
C660 C658 1.391 . S
C660 C661 1.400 . S
C661 C655 1.491 . S
C661 C660 1.400 . S
C661 C662 1.398 . S
C662 H650 0.950 . S
C662 C661 1.398 . S
C662 C663 1.391 . S
C663 H651 0.950 . S
C663 C659 1.393 . S
C663 C662 1.391 . S
H664 C672 0.950 . S
H665 C677 0.950 . S
H666 C674 0.950 . S
H667 C676 0.950 . S
H668 C678 0.950 . S
H669 C680 0.950 . S
H670 C682 0.950 . S
H671 C683 0.950 . S
C672 H664 0.950 . S
C672 C673 1.386 . S
C672 C674 1.391 . S
C673 C672 1.386 . S
C673 C677 1.393 . S
C674 H666 0.950 . S
C674 C672 1.391 . S
C674 C675 1.400 . S
C675 C674 1.400 . S
C675 C676 1.398 . S
C675 C681 1.491 . S
C676 H667 0.950 . S
C676 C675 1.398 . S
C676 C677 1.391 . S
C677 H665 0.950 . S
C677 C673 1.393 . S
C677 C676 1.391 . S
C678 H668 0.950 . S
C678 C679 1.386 . S
C678 C680 1.391 . S
C679 C678 1.386 . S
C679 C683 1.393 . S
C680 H669 0.950 . S
C680 C678 1.391 . S
C680 C681 1.400 . S
C681 C675 1.491 . S
C681 C680 1.400 . S
C681 C682 1.398 . S
C682 H670 0.950 . S
C682 C681 1.398 . S
C682 C683 1.391 . S
C683 H671 0.950 . S
C683 C679 1.393 . S
C683 C682 1.391 . S
H684 C692 0.950 . S
H685 C697 0.950 . S
H686 C694 0.950 . S
H687 C696 0.950 . S
H688 C698 0.950 . S
H689 C700 0.950 . S
H690 C702 0.950 . S
H691 C703 0.950 . S
C692 H684 0.950 . S
C692 C693 1.386 . S
C692 C694 1.391 . S
C693 C692 1.386 . S
C693 C697 1.393 . S
C694 H686 0.950 . S
C694 C692 1.391 . S
C694 C695 1.400 . S
C695 C694 1.400 . S
C695 C696 1.398 . S
C695 C701 1.491 . S
C696 H687 0.950 . S
C696 C695 1.398 . S
C696 C697 1.391 . S
C697 H685 0.950 . S
C697 C693 1.393 . S
C697 C696 1.391 . S
C698 H688 0.950 . S
C698 C699 1.386 . S
C698 C700 1.391 . S
C699 C698 1.386 . S
C699 C703 1.393 . S
C700 H689 0.950 . S
C700 C698 1.391 . S
C700 C701 1.400 . S
C701 C695 1.491 . S
C701 C700 1.400 . S
C701 C702 1.398 . S
C702 H690 0.950 . S
C702 C701 1.398 . S
C702 C703 1.391 . S
C703 H691 0.950 . S
C703 C699 1.393 . S
C703 C702 1.391 . S
H704 C712 0.950 . S
H705 C717 0.945 1_655 S
H706 C714 0.950 . S
H707 C716 0.950 . S
H708 C718 0.950 . S
H709 C720 0.950 . S
H710 C722 0.950 . S
H711 C723 0.945 1_455 S
C712 H704 0.950 . S
C712 C713 1.386 . S
C712 C714 1.391 . S
C713 C712 1.386 . S
C713 C717 1.400 . S
C714 H706 0.950 . S
C714 C712 1.391 . S
C714 C715 1.400 . S
C715 C714 1.400 . S
C715 C716 1.398 1_455 S
C715 C721 1.491 1_455 S
C716 H707 0.950 . S
C716 C715 1.398 1_655 S
C716 C717 1.388 1_655 S
C717 H705 0.945 1_455 S
C717 C713 1.400 . S
C717 C716 1.388 1_455 S
C718 H708 0.950 . S
C718 C719 1.386 . S
C718 C720 1.391 . S
C719 C718 1.386 . S
C719 C723 1.400 . S
C720 H709 0.950 . S
C720 C718 1.391 . S
C720 C721 1.400 . S
C721 C715 1.491 1_655 S
C721 C720 1.400 . S
C721 C722 1.398 1_655 S
C722 H710 0.950 . S
C722 C721 1.398 1_455 S
C722 C723 1.388 1_455 S
C723 H711 0.945 1_655 S
C723 C719 1.400 . S
C723 C722 1.388 1_655 S
H724 C732 0.950 . S
H725 C737 0.950 . S
H726 C734 0.950 . S
H727 C736 0.950 . S
H728 C738 0.950 . S
H729 C740 0.950 . S
H730 C742 0.950 . S
H731 C743 0.950 . S
C732 H724 0.950 . S
C732 C733 1.386 . S
C732 C734 1.391 . S
C733 C732 1.386 . S
C733 C737 1.393 1_565 S
C734 H726 0.950 . S
C734 C732 1.391 . S
C734 C735 1.400 . S
C735 C734 1.400 . S
C735 C736 1.398 1_565 S
C735 C741 1.491 1_565 S
C736 H727 0.950 . S
C736 C735 1.398 1_545 S
C736 C737 1.391 . S
C737 H725 0.950 . S
C737 C733 1.393 1_545 S
C737 C736 1.391 . S
C738 H728 0.950 . S
C738 C739 1.386 . S
C738 C740 1.391 . S
C739 C738 1.386 . S
C739 C743 1.393 1_545 S
C740 H729 0.950 . S
C740 C738 1.391 . S
C740 C741 1.400 . S
C741 C735 1.491 1_545 S
C741 C740 1.400 . S
C741 C742 1.398 1_545 S
C742 H730 0.950 . S
C742 C741 1.398 1_565 S
C742 C743 1.391 . S
C743 H731 0.950 . S
C743 C739 1.393 1_565 S
C743 C742 1.391 . S
H744 C752 0.950 . S
H745 C757 0.950 . S
H746 C754 0.950 . S
H747 C756 0.950 . S
H748 C758 0.950 . S
H749 C760 0.950 . S
H750 C762 0.950 . S
H751 C763 0.950 . S
C752 H744 0.950 . S
C752 C753 1.386 1_655 S
C752 C754 1.391 . S
C753 C752 1.386 1_455 S
C753 C757 1.393 . S
C754 H746 0.950 . S
C754 C752 1.391 . S
C754 C755 1.400 1_655 S
C755 C754 1.400 1_455 S
C755 C756 1.398 . S
C755 C761 1.491 1_455 S
C756 H747 0.950 . S
C756 C755 1.398 . S
C756 C757 1.391 . S
C757 H745 0.950 . S
C757 C753 1.393 . S
C757 C756 1.391 . S
C758 H748 0.950 . S
C758 C759 1.386 1_455 S
C758 C760 1.391 . S
C759 C758 1.386 1_655 S
C759 C763 1.393 . S
C760 H749 0.950 . S
C760 C758 1.391 . S
C760 C761 1.400 1_455 S
C761 C755 1.491 1_655 S
C761 C760 1.400 1_655 S
C761 C762 1.398 . S
C762 H750 0.950 . S
C762 C761 1.398 . S
C762 C763 1.391 . S
C763 H751 0.950 . S
C763 C759 1.393 . S
C763 C762 1.391 . S
H764 C772 0.950 . S
H765 C777 0.950 . S
H766 C774 0.950 . S
H767 C776 0.950 . S
H768 C778 0.950 . S
H769 C780 0.950 . S
H770 C782 0.950 . S
H771 C783 0.950 . S
C772 H764 0.950 . S
C772 C773 1.386 . S
C772 C774 1.391 . S
C773 C772 1.386 . S
C773 C777 1.393 1_545 S
C774 H766 0.950 . S
C774 C772 1.391 . S
C774 C775 1.400 . S
C775 C774 1.400 . S
C775 C776 1.398 1_545 S
C775 C781 1.491 1_545 S
C776 H767 0.950 . S
C776 C775 1.398 1_565 S
C776 C777 1.391 . S
C777 H765 0.950 . S
C777 C773 1.393 1_565 S
C777 C776 1.391 . S
C778 H768 0.950 . S
C778 C779 1.386 . S
C778 C780 1.391 . S
C779 C778 1.386 . S
C779 C783 1.393 1_565 S
C780 H769 0.950 . S
C780 C778 1.391 . S
C780 C781 1.400 . S
C781 C775 1.491 1_565 S
C781 C780 1.400 . S
C781 C782 1.398 1_565 S
C782 H770 0.950 . S
C782 C781 1.398 1_545 S
C782 C783 1.391 . S
C783 H771 0.950 . S
C783 C779 1.393 1_545 S
C783 C782 1.391 . S
H784 C792 0.950 . S
H785 C797 0.950 . S
H786 C794 0.950 . S
H787 C796 0.950 . S
H788 C798 0.950 . S
H789 C800 0.950 . S
H790 C802 0.950 . S
H791 C803 0.950 . S
C792 H784 0.950 . S
C792 C793 1.386 . S
C792 C794 1.391 . S
C793 C792 1.386 . S
C793 C797 1.393 . S
C794 H786 0.950 . S
C794 C792 1.391 . S
C794 C795 1.400 . S
C795 C794 1.400 . S
C795 C796 1.398 . S
C795 C801 1.491 1_556 S
C796 H787 0.950 . S
C796 C795 1.398 . S
C796 C797 1.391 . S
C797 H785 0.950 . S
C797 C793 1.393 . S
C797 C796 1.391 . S
C798 H788 0.950 . S
C798 C799 1.386 . S
C798 C800 1.391 . S
C799 C798 1.386 . S
C799 C803 1.393 . S
C800 H789 0.950 . S
C800 C798 1.391 . S
C800 C801 1.400 . S
C801 C795 1.491 1_554 S
C801 C800 1.400 . S
C801 C802 1.398 . S
C802 H790 0.950 . S
C802 C801 1.398 . S
C802 C803 1.391 . S
C803 H791 0.950 . S
C803 C799 1.393 . S
C803 C802 1.391 . S
H804 C812 0.950 . S
H805 C817 0.950 . S
H806 C814 0.950 . S
H807 C816 0.950 . S
H808 C818 0.950 . S
H809 C820 0.950 . S
H810 C822 0.950 . S
H811 C823 0.950 . S
C812 H804 0.950 . S
C812 C813 1.386 . S
C812 C814 1.391 . S
C813 C812 1.386 . S
C813 C817 1.393 . S
C814 H806 0.950 . S
C814 C812 1.391 . S
C814 C815 1.400 . S
C815 C814 1.400 . S
C815 C816 1.398 . S
C815 C821 1.491 1_556 S
C816 H807 0.950 . S
C816 C815 1.398 . S
C816 C817 1.391 . S
C817 H805 0.950 . S
C817 C813 1.393 . S
C817 C816 1.391 . S
C818 H808 0.950 . S
C818 C819 1.386 . S
C818 C820 1.391 . S
C819 C818 1.386 . S
C819 C823 1.393 . S
C820 H809 0.950 . S
C820 C818 1.391 . S
C820 C821 1.400 . S
C821 C815 1.491 1_554 S
C821 C820 1.400 . S
C821 C822 1.398 . S
C822 H810 0.950 . S
C822 C821 1.398 . S
C822 C823 1.391 . S
C823 H811 0.950 . S
C823 C819 1.393 . S
C823 C822 1.391 . S
H824 C832 0.950 . S
H825 C837 0.950 . S
H826 C834 0.950 . S
H827 C836 0.950 . S
H828 C838 0.950 . S
H829 C840 0.950 . S
H830 C842 0.950 . S
H831 C843 0.950 . S
C832 H824 0.950 . S
C832 C833 1.386 . S
C832 C834 1.391 . S
C833 C832 1.386 . S
C833 C837 1.393 . S
C834 H826 0.950 . S
C834 C832 1.391 . S
C834 C835 1.400 . S
C835 C834 1.400 . S
C835 C836 1.398 . S
C835 C841 1.491 1_554 S
C836 H827 0.950 . S
C836 C835 1.398 . S
C836 C837 1.391 . S
C837 H825 0.950 . S
C837 C833 1.393 . S
C837 C836 1.391 . S
C838 H828 0.950 . S
C838 C839 1.386 . S
C838 C840 1.391 . S
C839 C838 1.386 . S
C839 C843 1.393 . S
C840 H829 0.950 . S
C840 C838 1.391 . S
C840 C841 1.400 . S
C841 C835 1.491 1_556 S
C841 C840 1.400 . S
C841 C842 1.398 . S
C842 H830 0.950 . S
C842 C841 1.398 . S
C842 C843 1.391 . S
C843 H831 0.950 . S
C843 C839 1.393 . S
C843 C842 1.391 . S
H844 C852 0.950 . S
H845 C857 0.950 . S
H846 C854 0.950 . S
H847 C856 0.950 . S
H848 C858 0.950 . S
H849 C860 0.950 . S
H850 C862 0.950 . S
H851 C863 0.950 . S
C852 H844 0.950 . S
C852 C853 1.386 . S
C852 C854 1.391 . S
C853 C852 1.386 . S
C853 C857 1.393 . S
C854 H846 0.950 . S
C854 C852 1.391 . S
C854 C855 1.400 . S
C855 C854 1.400 . S
C855 C856 1.398 . S
C855 C861 1.491 1_556 S
C856 H847 0.950 . S
C856 C855 1.398 . S
C856 C857 1.391 . S
C857 H845 0.950 . S
C857 C853 1.393 . S
C857 C856 1.391 . S
C858 H848 0.950 . S
C858 C859 1.386 . S
C858 C860 1.391 . S
C859 C858 1.386 . S
C859 C863 1.393 . S
C860 H849 0.950 . S
C860 C858 1.391 . S
C860 C861 1.400 . S
C861 C855 1.491 1_554 S
C861 C860 1.400 . S
C861 C862 1.398 . S
C862 H850 0.950 . S
C862 C861 1.398 . S
C862 C863 1.391 . S
C863 H851 0.950 . S
C863 C859 1.393 . S
C863 C862 1.391 . S
C233 C7 1.440 . S
C239 C51 1.400 . S
C253 C9 1.397 . S
C259 C21 1.443 . S
C273 C23 1.417 . S
C279 C35 1.425 . S
C293 C37 1.420 . S
C299 C49 1.423 . S
C313 C63 1.419 . S
C319 C79 1.425 . S
C333 C77 1.419 . S
C339 C93 1.424 . S
C353 C91 1.421 . S
C359 C107 1.423 . S
C373 C105 1.436 . S
C379 C65 1.405 . S
C393 C119 1.419 . S
C399 C163 1.425 . S
C413 C121 1.396 . S
C419 C133 1.443 . S
C433 C135 1.405 . S
C439 C147 1.436 . S
C453 C161 1.421 . S
C459 C149 1.422 . S
C473 C191 1.424 . S
C479 C175 1.419 . S
C493 C205 1.403 . S
C499 C189 1.437 . S
C513 C203 1.419 . S
C519 C219 1.424 . S
C533 C217 1.427 . S
C539 C177 1.415 . S
C553 C8 1.227 . S
C559 C218 1.229 . S
C573 C22 1.232 . S
C579 C176 1.228 . S
C593 C190 1.236 . S
C599 C36 1.243 . S
C613 C50 1.249 . S
C619 C204 1.245 . S
C633 C134 1.243 . S
C639 C64 1.236 . S
C653 C148 1.229 . S
C659 C78 1.227 . S
C673 C92 1.227 . S
C679 C162 1.229 . S
C693 C106 1.229 . S
C699 C120 1.234 . S
C713 C3 1.626 . S
C719 C87 1.622 . S
C733 C101 1.630 . S
C739 C17 1.625 . S
C753 C59 1.621 . S
C759 C31 1.628 . S
C773 C73 1.629 . S
C779 C45 1.627 . S
C793 C115 1.623 . S
C799 C199 1.630 . S
C813 C129 1.630 . S
C819 C213 1.623 . S
C833 C171 1.627 . S
C839 C143 1.622 . S
C853 C157 1.622 . S
C859 C185 1.626 . S
