# Generated by pormake.
# Topology wio, (6)-cn, num edge types: 1
# Building blocks:
#     Node 0, Type 0, BuildingBlock: HISSIN_clean_sbu_0, # of connection points: 6
#     Node 1, Type 0, BuildingBlock: HISSIN_clean_sbu_0, # of connection points: 6
#     Node 2, Type 0, BuildingBlock: HISSIN_clean_sbu_0, # of connection points: 6
#     Node 3, Type 0, BuildingBlock: HISSIN_clean_sbu_0, # of connection points: 6
#     Node 4, Type 0, BuildingBlock: HISSIN_clean_sbu_0, # of connection points: 6
#     Node 5, Type 0, BuildingBlock: HISSIN_clean_sbu_0, # of connection points: 6
#     Node 6, Type 0, BuildingBlock: HISSIN_clean_sbu_0, # of connection points: 6
#     Node 7, Type 0, BuildingBlock: HISSIN_clean_sbu_0, # of connection points: 6
#     Node 8, Type 0, BuildingBlock: HISSIN_clean_sbu_0, # of connection points: 6
#     Node 9, Type 0, BuildingBlock: HISSIN_clean_sbu_0, # of connection points: 6
#     Node 10, Type 0, BuildingBlock: HISSIN_clean_sbu_0, # of connection points: 6
#     Node 11, Type 0, BuildingBlock: HISSIN_clean_sbu_0, # of connection points: 6
#     Node 12, Type 0, BuildingBlock: HISSIN_clean_sbu_0, # of connection points: 6
#     Node 13, Type 0, BuildingBlock: HISSIN_clean_sbu_0, # of connection points: 6
#     Node 14, Type 0, BuildingBlock: HISSIN_clean_sbu_0, # of connection points: 6
#     Node 15, Type 0, BuildingBlock: HISSIN_clean_sbu_0, # of connection points: 6
#     Node 16, Type 0, BuildingBlock: HISSIN_clean_sbu_0, # of connection points: 6
#     Node 17, Type 0, BuildingBlock: HISSIN_clean_sbu_0, # of connection points: 6
#     Node 18, Type 0, BuildingBlock: HISSIN_clean_sbu_0, # of connection points: 6
#     Node 19, Type 0, BuildingBlock: HISSIN_clean_sbu_0, # of connection points: 6
#     Node 20, Type 0, BuildingBlock: HISSIN_clean_sbu_0, # of connection points: 6
#     Node 21, Type 0, BuildingBlock: HISSIN_clean_sbu_0, # of connection points: 6
#     Node 22, Type 0, BuildingBlock: HISSIN_clean_sbu_0, # of connection points: 6
#     Node 23, Type 0, BuildingBlock: HISSIN_clean_sbu_0, # of connection points: 6
#     Node 24, Type 0, BuildingBlock: HISSIN_clean_sbu_0, # of connection points: 6
#     Node 25, Type 0, BuildingBlock: HISSIN_clean_sbu_0, # of connection points: 6
#     Node 26, Type 0, BuildingBlock: HISSIN_clean_sbu_0, # of connection points: 6
#     Node 27, Type 0, BuildingBlock: HISSIN_clean_sbu_0, # of connection points: 6
#     Node 28, Type 0, BuildingBlock: HISSIN_clean_sbu_0, # of connection points: 6
#     Node 29, Type 0, BuildingBlock: HISSIN_clean_sbu_0, # of connection points: 6
#     Node 30, Type 0, BuildingBlock: HISSIN_clean_sbu_0, # of connection points: 6
#     Node 31, Type 0, BuildingBlock: HISSIN_clean_sbu_0, # of connection points: 6
#     Edge 32, Type (0, 0), BuildingBlock: MIFKUJ_clean_linker_0, # of connection points: 2
#     Edge 33, Type (0, 0), BuildingBlock: MIFKUJ_clean_linker_0, # of connection points: 2
#     Edge 34, Type (0, 0), BuildingBlock: MIFKUJ_clean_linker_0, # of connection points: 2
#     Edge 35, Type (0, 0), BuildingBlock: MIFKUJ_clean_linker_0, # of connection points: 2
#     Edge 36, Type (0, 0), BuildingBlock: MIFKUJ_clean_linker_0, # of connection points: 2
#     Edge 37, Type (0, 0), BuildingBlock: MIFKUJ_clean_linker_0, # of connection points: 2
#     Edge 38, Type (0, 0), BuildingBlock: MIFKUJ_clean_linker_0, # of connection points: 2
#     Edge 39, Type (0, 0), BuildingBlock: MIFKUJ_clean_linker_0, # of connection points: 2
#     Edge 40, Type (0, 0), BuildingBlock: MIFKUJ_clean_linker_0, # of connection points: 2
#     Edge 41, Type (0, 0), BuildingBlock: MIFKUJ_clean_linker_0, # of connection points: 2
#     Edge 42, Type (0, 0), BuildingBlock: MIFKUJ_clean_linker_0, # of connection points: 2
#     Edge 43, Type (0, 0), BuildingBlock: MIFKUJ_clean_linker_0, # of connection points: 2
#     Edge 44, Type (0, 0), BuildingBlock: MIFKUJ_clean_linker_0, # of connection points: 2
#     Edge 45, Type (0, 0), BuildingBlock: MIFKUJ_clean_linker_0, # of connection points: 2
#     Edge 46, Type (0, 0), BuildingBlock: MIFKUJ_clean_linker_0, # of connection points: 2
#     Edge 47, Type (0, 0), BuildingBlock: MIFKUJ_clean_linker_0, # of connection points: 2
#     Edge 48, Type (0, 0), BuildingBlock: MIFKUJ_clean_linker_0, # of connection points: 2
#     Edge 49, Type (0, 0), BuildingBlock: MIFKUJ_clean_linker_0, # of connection points: 2
#     Edge 50, Type (0, 0), BuildingBlock: MIFKUJ_clean_linker_0, # of connection points: 2
#     Edge 51, Type (0, 0), BuildingBlock: MIFKUJ_clean_linker_0, # of connection points: 2
#     Edge 52, Type (0, 0), BuildingBlock: MIFKUJ_clean_linker_0, # of connection points: 2
#     Edge 53, Type (0, 0), BuildingBlock: MIFKUJ_clean_linker_0, # of connection points: 2
#     Edge 54, Type (0, 0), BuildingBlock: MIFKUJ_clean_linker_0, # of connection points: 2
#     Edge 55, Type (0, 0), BuildingBlock: MIFKUJ_clean_linker_0, # of connection points: 2
#     Edge 56, Type (0, 0), BuildingBlock: MIFKUJ_clean_linker_0, # of connection points: 2
#     Edge 57, Type (0, 0), BuildingBlock: MIFKUJ_clean_linker_0, # of connection points: 2
#     Edge 58, Type (0, 0), BuildingBlock: MIFKUJ_clean_linker_0, # of connection points: 2
#     Edge 59, Type (0, 0), BuildingBlock: MIFKUJ_clean_linker_0, # of connection points: 2
#     Edge 60, Type (0, 0), BuildingBlock: MIFKUJ_clean_linker_0, # of connection points: 2
#     Edge 61, Type (0, 0), BuildingBlock: MIFKUJ_clean_linker_0, # of connection points: 2
#     Edge 62, Type (0, 0), BuildingBlock: MIFKUJ_clean_linker_0, # of connection points: 2
#     Edge 63, Type (0, 0), BuildingBlock: MIFKUJ_clean_linker_0, # of connection points: 2
#     Edge 64, Type (0, 0), BuildingBlock: MIFKUJ_clean_linker_0, # of connection points: 2
#     Edge 65, Type (0, 0), BuildingBlock: MIFKUJ_clean_linker_0, # of connection points: 2
#     Edge 66, Type (0, 0), BuildingBlock: MIFKUJ_clean_linker_0, # of connection points: 2
#     Edge 67, Type (0, 0), BuildingBlock: MIFKUJ_clean_linker_0, # of connection points: 2
#     Edge 68, Type (0, 0), BuildingBlock: MIFKUJ_clean_linker_0, # of connection points: 2
#     Edge 69, Type (0, 0), BuildingBlock: MIFKUJ_clean_linker_0, # of connection points: 2
#     Edge 70, Type (0, 0), BuildingBlock: MIFKUJ_clean_linker_0, # of connection points: 2
#     Edge 71, Type (0, 0), BuildingBlock: MIFKUJ_clean_linker_0, # of connection points: 2
#     Edge 72, Type (0, 0), BuildingBlock: MIFKUJ_clean_linker_0, # of connection points: 2
#     Edge 73, Type (0, 0), BuildingBlock: MIFKUJ_clean_linker_0, # of connection points: 2
#     Edge 74, Type (0, 0), BuildingBlock: MIFKUJ_clean_linker_0, # of connection points: 2
#     Edge 75, Type (0, 0), BuildingBlock: MIFKUJ_clean_linker_0, # of connection points: 2
#     Edge 76, Type (0, 0), BuildingBlock: MIFKUJ_clean_linker_0, # of connection points: 2
#     Edge 77, Type (0, 0), BuildingBlock: MIFKUJ_clean_linker_0, # of connection points: 2
#     Edge 78, Type (0, 0), BuildingBlock: MIFKUJ_clean_linker_0, # of connection points: 2
#     Edge 79, Type (0, 0), BuildingBlock: MIFKUJ_clean_linker_0, # of connection points: 2
#     Edge 80, Type (0, 0), BuildingBlock: MIFKUJ_clean_linker_0, # of connection points: 2
#     Edge 81, Type (0, 0), BuildingBlock: MIFKUJ_clean_linker_0, # of connection points: 2
#     Edge 82, Type (0, 0), BuildingBlock: MIFKUJ_clean_linker_0, # of connection points: 2
#     Edge 83, Type (0, 0), BuildingBlock: MIFKUJ_clean_linker_0, # of connection points: 2
#     Edge 84, Type (0, 0), BuildingBlock: MIFKUJ_clean_linker_0, # of connection points: 2
#     Edge 85, Type (0, 0), BuildingBlock: MIFKUJ_clean_linker_0, # of connection points: 2
#     Edge 86, Type (0, 0), BuildingBlock: MIFKUJ_clean_linker_0, # of connection points: 2
#     Edge 87, Type (0, 0), BuildingBlock: MIFKUJ_clean_linker_0, # of connection points: 2
#     Edge 88, Type (0, 0), BuildingBlock: MIFKUJ_clean_linker_0, # of connection points: 2
#     Edge 89, Type (0, 0), BuildingBlock: MIFKUJ_clean_linker_0, # of connection points: 2
#     Edge 90, Type (0, 0), BuildingBlock: MIFKUJ_clean_linker_0, # of connection points: 2
#     Edge 91, Type (0, 0), BuildingBlock: MIFKUJ_clean_linker_0, # of connection points: 2
#     Edge 92, Type (0, 0), BuildingBlock: MIFKUJ_clean_linker_0, # of connection points: 2
#     Edge 93, Type (0, 0), BuildingBlock: MIFKUJ_clean_linker_0, # of connection points: 2
#     Edge 94, Type (0, 0), BuildingBlock: MIFKUJ_clean_linker_0, # of connection points: 2
#     Edge 95, Type (0, 0), BuildingBlock: MIFKUJ_clean_linker_0, # of connection points: 2
#     Edge 96, Type (0, 0), BuildingBlock: MIFKUJ_clean_linker_0, # of connection points: 2
#     Edge 97, Type (0, 0), BuildingBlock: MIFKUJ_clean_linker_0, # of connection points: 2
#     Edge 98, Type (0, 0), BuildingBlock: MIFKUJ_clean_linker_0, # of connection points: 2
#     Edge 99, Type (0, 0), BuildingBlock: MIFKUJ_clean_linker_0, # of connection points: 2
#     Edge 100, Type (0, 0), BuildingBlock: MIFKUJ_clean_linker_0, # of connection points: 2
#     Edge 101, Type (0, 0), BuildingBlock: MIFKUJ_clean_linker_0, # of connection points: 2
#     Edge 102, Type (0, 0), BuildingBlock: MIFKUJ_clean_linker_0, # of connection points: 2
#     Edge 103, Type (0, 0), BuildingBlock: MIFKUJ_clean_linker_0, # of connection points: 2
#     Edge 104, Type (0, 0), BuildingBlock: MIFKUJ_clean_linker_0, # of connection points: 2
#     Edge 105, Type (0, 0), BuildingBlock: MIFKUJ_clean_linker_0, # of connection points: 2
#     Edge 106, Type (0, 0), BuildingBlock: MIFKUJ_clean_linker_0, # of connection points: 2
#     Edge 107, Type (0, 0), BuildingBlock: MIFKUJ_clean_linker_0, # of connection points: 2
#     Edge 108, Type (0, 0), BuildingBlock: MIFKUJ_clean_linker_0, # of connection points: 2
#     Edge 109, Type (0, 0), BuildingBlock: MIFKUJ_clean_linker_0, # of connection points: 2
#     Edge 110, Type (0, 0), BuildingBlock: MIFKUJ_clean_linker_0, # of connection points: 2
#     Edge 111, Type (0, 0), BuildingBlock: MIFKUJ_clean_linker_0, # of connection points: 2
#     Edge 112, Type (0, 0), BuildingBlock: MIFKUJ_clean_linker_0, # of connection points: 2
#     Edge 113, Type (0, 0), BuildingBlock: MIFKUJ_clean_linker_0, # of connection points: 2
#     Edge 114, Type (0, 0), BuildingBlock: MIFKUJ_clean_linker_0, # of connection points: 2
#     Edge 115, Type (0, 0), BuildingBlock: MIFKUJ_clean_linker_0, # of connection points: 2
#     Edge 116, Type (0, 0), BuildingBlock: MIFKUJ_clean_linker_0, # of connection points: 2
#     Edge 117, Type (0, 0), BuildingBlock: MIFKUJ_clean_linker_0, # of connection points: 2
#     Edge 118, Type (0, 0), BuildingBlock: MIFKUJ_clean_linker_0, # of connection points: 2
#     Edge 119, Type (0, 0), BuildingBlock: MIFKUJ_clean_linker_0, # of connection points: 2
#     Edge 120, Type (0, 0), BuildingBlock: MIFKUJ_clean_linker_0, # of connection points: 2
#     Edge 121, Type (0, 0), BuildingBlock: MIFKUJ_clean_linker_0, # of connection points: 2
#     Edge 122, Type (0, 0), BuildingBlock: MIFKUJ_clean_linker_0, # of connection points: 2
#     Edge 123, Type (0, 0), BuildingBlock: MIFKUJ_clean_linker_0, # of connection points: 2
#     Edge 124, Type (0, 0), BuildingBlock: MIFKUJ_clean_linker_0, # of connection points: 2
#     Edge 125, Type (0, 0), BuildingBlock: MIFKUJ_clean_linker_0, # of connection points: 2
#     Edge 126, Type (0, 0), BuildingBlock: MIFKUJ_clean_linker_0, # of connection points: 2
#     Edge 127, Type (0, 0), BuildingBlock: MIFKUJ_clean_linker_0, # of connection points: 2
# Relax obj value: 0.176
# Max RMSD: 0.222
# Mean RMSD: 0.222
data_MOF--net-wio--node1-HISSIN_clean_sbu_0--edge1-MIFKUJ_clean_linker_0
_symmetry_space_group_name_H-M    P1
_symmetry_Int_Tables_number       1
_symmetry_cell_setting            triclinic
loop_
_symmetry_equiv_pos_as_xyz
'x, y, z'
_cell_length_a     78.249631
_cell_length_b     78.257711
_cell_length_c     68.572892
_cell_angle_alpha  89.956071
_cell_angle_beta   89.971211
_cell_angle_gamma 89.993377
loop_
_atom_site_label
_atom_site_type_symbol
_atom_site_fract_x
_atom_site_fract_y
_atom_site_fract_z
_atom_type_partial_charge
Eu0 Eu 0.1542 0.12221 0.26968 0.0
Eu1 Eu 0.11153 0.12035 0.28123 0.0
C2 C 0.13137 0.09012 0.259 0.0
C3 C 0.19807 0.12325 0.24175 0.0
C4 C 0.19458 0.11297 0.2254 0.0
C5 C 0.22533 0.13114 0.22696 0.0
C6 C 0.20648 0.1117 0.21003 0.0
C7 C 0.21347 0.1324 0.24223 0.0
C8 C 0.22215 0.12062 0.21069 0.0
C9 C 0.18647 0.12409 0.25895 0.0
O10 O 0.12504 0.11025 0.30781 0.0
O11 O 0.15187 0.10374 0.29534 0.0
C12 C 0.13975 0.1021 0.30868 0.0
O13 O 0.1498 0.14112 0.294 0.0
O14 O 0.08747 0.10635 0.28517 0.0
O15 O 0.08812 0.13362 0.28987 0.0
O16 O 0.1215 0.14665 0.28797 0.0
C17 C 0.13603 0.15049 0.29646 0.0
O18 O 0.1395 0.13559 0.24564 0.0
O19 O 0.11269 0.12363 0.24861 0.0
O20 O 0.12014 0.09425 0.27236 0.0
O21 O 0.17648 0.13737 0.26062 0.0
O22 O 0.17892 0.11002 0.26446 0.0
O23 O 0.14315 0.10059 0.2526 0.0
C24 C 0.06697 0.11769 0.30745 0.0
C25 C 0.06897 0.12672 0.32503 0.0
C26 C 0.04021 0.106 0.31984 0.0
C27 C 0.05658 0.1255 0.33981 0.0
C28 C 0.05257 0.10721 0.30514 0.0
C29 C 0.04191 0.11524 0.33735 0.0
C30 C 0.07894 0.11974 0.2908 0.0
C31 C 0.12459 0.13125 0.23821 0.0
H32 H 0.1828 0.10574 0.22464 0.0
H33 H 0.237 0.13851 0.22793 0.0
H34 H 0.20356 0.10338 0.19788 0.0
H35 H 0.21648 0.14044 0.25463 0.0
H36 H 0.07996 0.13489 0.32726 0.0
H37 H 0.02903 0.09819 0.31718 0.0
H38 H 0.05851 0.13262 0.35316 0.0
H39 H 0.05066 0.10022 0.29168 0.0
Eu40 Eu 0.13014 0.90595 0.52021 0.0
Eu41 Eu 0.12847 0.86352 0.53071 0.0
C42 C 0.16088 0.88095 0.51017 0.0
C43 C 0.13248 0.94991 0.49292 0.0
C44 C 0.1318 0.94398 0.47357 0.0
C45 C 0.13698 0.97881 0.48059 0.0
C46 C 0.13365 0.95545 0.45785 0.0
C47 C 0.13515 0.96739 0.4962 0.0
C48 C 0.13627 0.97309 0.46113 0.0
C49 C 0.13031 0.93839 0.51001 0.0
O50 O 0.14033 0.87568 0.55725 0.0
O51 O 0.14842 0.90237 0.54581 0.0
C52 C 0.14951 0.88976 0.55863 0.0
O53 O 0.1111 0.90189 0.54459 0.0
O54 O 0.13758 0.83691 0.53029 0.0
O55 O 0.11388 0.84328 0.54477 0.0
O56 O 0.10256 0.87584 0.53376 0.0
C57 C 0.09999 0.88933 0.54469 0.0
O58 O 0.11671 0.89276 0.49504 0.0
O59 O 0.12576 0.86483 0.49809 0.0
O60 O 0.1556 0.86976 0.52309 0.0
O61 O 0.11654 0.92898 0.51079 0.0
O62 O 0.14377 0.93015 0.51613 0.0
O63 O 0.15136 0.89349 0.50368 0.0
C64 C 0.12921 0.81931 0.55741 0.0
C65 C 0.12069 0.82028 0.57546 0.0
C66 C 0.14281 0.79292 0.56838 0.0
C67 C 0.12301 0.80761 0.58965 0.0
C68 C 0.14045 0.80558 0.55415 0.0
C69 C 0.13389 0.79361 0.58621 0.0
C70 C 0.12514 0.83139 0.54129 0.0
C71 C 0.11973 0.87753 0.48758 0.0
H72 H 0.12981 0.93053 0.47063 0.0
H73 H 0.13863 0.99224 0.48386 0.0
H74 H 0.1332 0.95046 0.44314 0.0
H75 H 0.13568 0.97229 0.51096 0.0
H76 H 0.11189 0.83062 0.57852 0.0
H77 H 0.15115 0.78226 0.5651 0.0
H78 H 0.11614 0.80874 0.6033 0.0
H79 H 0.14704 0.80436 0.54033 0.0
Eu80 Eu 0.34466 0.88215 0.77141 0.0
Eu81 Eu 0.38724 0.88032 0.78152 0.0
C82 C 0.36998 0.91191 0.75832 0.0
C83 C 0.30155 0.88278 0.74305 0.0
C84 C 0.30053 0.89783 0.73182 0.0
C85 C 0.28022 0.86986 0.72156 0.0
C86 C 0.2894 0.8989 0.71577 0.0
C87 C 0.29133 0.86881 0.73759 0.0
C88 C 0.27894 0.88498 0.71046 0.0
C89 C 0.31232 0.88164 0.76102 0.0
O90 O 0.37441 0.89129 0.80829 0.0
O91 O 0.34923 0.90177 0.79536 0.0
C92 C 0.36128 0.90185 0.80886 0.0
O93 O 0.34888 0.86265 0.79541 0.0
O94 O 0.41318 0.89098 0.78252 0.0
O95 O 0.40833 0.86583 0.79423 0.0
O96 O 0.37535 0.85437 0.78535 0.0
C97 C 0.36155 0.85163 0.79573 0.0
O98 O 0.35732 0.8697 0.74553 0.0
O99 O 0.38616 0.8756 0.74904 0.0
O100 O 0.38148 0.90688 0.77106 0.0
O101 O 0.32162 0.86791 0.76326 0.0
O102 O 0.3203 0.89535 0.76693 0.0
O103 O 0.35665 0.90272 0.75347 0.0
C104 C 0.43142 0.88154 0.80856 0.0
C105 C 0.43277 0.87015 0.82438 0.0
C106 C 0.45549 0.89762 0.82188 0.0
C107 C 0.44539 0.87238 0.83864 0.0
C108 C 0.44284 0.8954 0.80761 0.0
C109 C 0.45712 0.88599 0.83745 0.0
C110 C 0.4195 0.87805 0.79209 0.0
C111 C 0.3729 0.87102 0.73845 0.0
H112 H 0.30821 0.90887 0.73553 0.0
H113 H 0.27228 0.85892 0.71825 0.0
H114 H 0.28904 0.91068 0.70749 0.0
H115 H 0.29168 0.85708 0.74599 0.0
H116 H 0.4243 0.85925 0.82557 0.0
H117 H 0.46437 0.90814 0.82028 0.0
H118 H 0.44601 0.86331 0.85055 0.0
H119 H 0.44233 0.90428 0.7955 0.0
Eu120 Eu 0.37227 0.09591 0.02218 0.0
Eu121 Eu 0.37413 0.138 0.03388 0.0
C122 C 0.34211 0.12149 0.01178 0.0
C123 C 0.37002 0.0521 0.9946 0.0
C124 C 0.35565 0.05254 0.98226 0.0
C125 C 0.38076 0.02768 0.97616 0.0
C126 C 0.3538 0.04054 0.96716 0.0
C127 C 0.38257 0.03962 0.99124 0.0
C128 C 0.36625 0.02779 0.964 0.0
C129 C 0.37171 0.06358 0.01182 0.0
O130 O 0.36395 0.12447 0.0607 0.0
O131 O 0.35319 0.09987 0.04672 0.0
C132 C 0.35351 0.11124 0.0609 0.0
O133 O 0.39209 0.0992 0.04593 0.0
O134 O 0.36371 0.16399 0.03531 0.0
O135 O 0.3888 0.15879 0.04701 0.0
O136 O 0.40008 0.12615 0.03711 0.0
C137 C 0.4029 0.112 0.04679 0.0
O138 O 0.38548 0.10909 0.99706 0.0
O139 O 0.3777 0.13733 1.00106 0.0
O140 O 0.34717 0.13186 0.02568 0.0
O141 O 0.38572 0.07254 0.01342 0.0
O142 O 0.35827 0.07208 0.01756 0.0
O143 O 0.35188 0.10922 1.005 0.0
C144 C 0.37354 0.18202 0.06148 0.0
C145 C 0.38739 0.18791 0.07265 0.0
C146 C 0.35495 0.20161 0.07936 0.0
C147 C 0.38512 0.20057 0.08684 0.0
C148 C 0.35723 0.18893 0.06512 0.0
C149 C 0.36891 0.20778 0.09026 0.0
C150 C 0.37671 0.1701 0.04493 0.0
C151 C 0.3831 0.12459 0.99007 0.0
H152 H 0.34568 0.06194 0.98447 0.0
H153 H 0.39082 0.01837 0.97403 0.0
H154 H 0.34237 0.04102 0.95829 0.0
H155 H 0.39375 0.03893 1.00052 0.0
H156 H 0.40016 0.18308 0.07004 0.0
H157 H 0.34223 0.20664 0.08174 0.0
H158 H 0.39624 0.20511 0.09465 0.0
H159 H 0.34628 0.1848 0.05671 0.0
Eu160 Eu 0.15718 0.8808 0.2464 0.0
Eu161 Eu 0.11606 0.87596 0.23381 0.0
C162 C 0.12962 0.91017 0.2535 0.0
C163 C 0.20029 0.88333 0.27543 0.0
C164 C 0.20285 0.89877 0.28554 0.0
C165 C 0.22151 0.8699 0.2966 0.0
C166 C 0.2147 0.89978 0.30088 0.0
C167 C 0.2097 0.8689 0.28127 0.0
C168 C 0.22439 0.8854 0.30648 0.0
C169 C 0.18923 0.8824 0.25773 0.0
O170 O 0.12905 0.88777 0.20737 0.0
O171 O 0.15359 0.89904 0.2211 0.0
C172 C 0.1422 0.89834 0.20697 0.0
O173 O 0.15472 0.86119 0.22226 0.0
O174 O 0.08858 0.88129 0.23532 0.0
O175 O 0.09808 0.86157 0.21598 0.0
O176 O 0.12986 0.85082 0.23405 0.0
C177 C 0.1434 0.84886 0.22311 0.0
O178 O 0.14439 0.86712 0.27147 0.0
O179 O 0.1161 0.87407 0.26673 0.0
O180 O 0.11986 0.90365 0.23985 0.0
O181 O 0.18111 0.86812 0.25441 0.0
O182 O 0.18009 0.89575 0.25305 0.0
O183 O 0.14228 0.90156 0.26143 0.0
C184 C 0.07236 0.87552 0.20626 0.0
C185 C 0.06979 0.86486 0.19003 0.0
C186 C 0.04907 0.89364 0.19471 0.0
C187 C 0.057 0.86844 0.17642 0.0
C188 C 0.06191 0.89003 0.20839 0.0
C189 C 0.04633 0.88278 0.17864 0.0
C190 C 0.0848 0.87039 0.22158 0.0
C191 C 0.12875 0.86923 0.27812 0.0
H192 H 0.196 0.91022 0.28134 0.0
H193 H 0.22843 0.85845 0.30063 0.0
H194 H 0.21665 0.91201 0.30792 0.0
H195 H 0.20819 0.85685 0.27372 0.0
H196 H 0.0774 0.85342 0.18811 0.0
H197 H 0.04124 0.9049 0.19679 0.0
H198 H 0.05512 0.8596 0.16447 0.0
H199 H 0.06341 0.89845 0.22079 0.0
Eu200 Eu 0.37139 0.9065 0.49658 0.0
Eu201 Eu 0.37602 0.86463 0.48479 0.0
C202 C 0.34159 0.87929 0.50376 0.0
C203 C 0.36903 0.95072 0.52371 0.0
C204 C 0.36113 0.94614 0.54139 0.0
C205 C 0.37416 0.9792 0.53689 0.0
C206 C 0.35967 0.95809 0.55665 0.0
C207 C 0.37562 0.9673 0.52173 0.0
C208 C 0.36602 0.97489 0.55454 0.0
C209 C 0.37018 0.93888 0.50683 0.0
O210 O 0.36432 0.87741 0.45824 0.0
O211 O 0.35382 0.9028 0.47081 0.0
C212 C 0.35418 0.8909 0.4572 0.0
O213 O 0.39128 0.90341 0.47288 0.0
O214 O 0.37013 0.83721 0.48555 0.0
O215 O 0.39108 0.84648 0.46777 0.0
O216 O 0.40119 0.87843 0.48499 0.0
C217 C 0.40341 0.89189 0.47396 0.0
O218 O 0.38396 0.89375 0.5223 0.0
O219 O 0.37801 0.8651 0.51774 0.0
O220 O 0.34829 0.86886 0.49083 0.0
O221 O 0.38437 0.93034 0.50452 0.0
O222 O 0.35675 0.92976 0.50247 0.0
O223 O 0.35011 0.89218 0.51129 0.0
C224 C 0.37818 0.82037 0.45746 0.0
C225 C 0.3918 0.81394 0.44633 0.0
C226 C 0.35921 0.80013 0.4411 0.0
C227 C 0.38927 0.80068 0.43295 0.0
C228 C 0.36177 0.81343 0.45459 0.0
C229 C 0.37299 0.79338 0.43031 0.0
C230 C 0.38193 0.83327 0.47284 0.0
C231 C 0.38207 0.8781 0.52904 0.0
H232 H 0.35595 0.93341 0.54332 0.0
H233 H 0.37956 0.9918 0.53476 0.0
H234 H 0.35323 0.95426 0.56994 0.0
H235 H 0.38182 0.97113 0.50829 0.0
H236 H 0.40459 0.81896 0.44827 0.0
H237 H 0.34651 0.79478 0.43956 0.0
H238 H 0.40015 0.79611 0.4247 0.0
H239 H 0.351 0.81802 0.463 0.0
Eu240 Eu 0.34795 0.11983 0.74869 0.0
Eu241 Eu 0.38995 0.12332 0.73678 0.0
C242 C 0.37531 0.08984 0.75741 0.0
C243 C 0.30429 0.1189 0.77746 0.0
C244 C 0.30589 0.107 0.79277 0.0
C245 C 0.27836 0.12979 0.79294 0.0
C246 C 0.29369 0.10638 0.80787 0.0
C247 C 0.2905 0.13038 0.77791 0.0
C248 C 0.27955 0.1176 0.80801 0.0
C249 C 0.31584 0.11897 0.76014 0.0
O250 O 0.37766 0.11024 0.71099 0.0
O251 O 0.35044 0.10311 0.72177 0.0
C252 C 0.36305 0.10198 0.709 0.0
O253 O 0.35072 0.13976 0.72488 0.0
O254 O 0.41749 0.11787 0.73909 0.0
O255 O 0.40829 0.13684 0.71859 0.0
O256 O 0.3768 0.1488 0.73506 0.0
C257 C 0.363 0.1512 0.72463 0.0
O258 O 0.36095 0.13427 0.77304 0.0
O259 O 0.38909 0.12614 0.76959 0.0
O260 O 0.38563 0.09584 0.74395 0.0
O261 O 0.3241 0.13304 0.75619 0.0
O262 O 0.32497 0.10537 0.75647 0.0
O263 O 0.36214 0.09858 0.76403 0.0
C264 C 0.43461 0.1231 0.71052 0.0
C265 C 0.43152 0.12398 0.69032 0.0
C266 C 0.4644 0.11623 0.70357 0.0
C267 C 0.44483 0.12134 0.67692 0.0
C268 C 0.45112 0.11892 0.71695 0.0
C269 C 0.46155 0.11775 0.68336 0.0
C270 C 0.4215 0.12839 0.72503 0.0
C271 C 0.37633 0.13181 0.78031 0.0
H272 H 0.31636 0.09794 0.79288 0.0
H273 H 0.26796 0.13891 0.79265 0.0
H274 H 0.29507 0.09675 0.8191 0.0
H275 H 0.28891 0.13969 0.76635 0.0
H276 H 0.41896 0.12726 0.68485 0.0
H277 H 0.47698 0.11315 0.70913 0.0
H278 H 0.4421 0.12278 0.66153 0.0
H279 H 0.45389 0.11822 0.73241 0.0
Eu280 Eu 0.12992 0.09482 0.99593 0.0
Eu281 Eu 0.12725 0.13672 0.98404 0.0
C282 C 0.1618 0.1198 0.99977 0.0
C283 C 0.13158 0.0508 0.02366 0.0
C284 C 0.13523 0.05658 0.04261 0.0
C285 C 0.13045 0.02162 0.03607 0.0
C286 C 0.13657 0.04489 0.05818 0.0
C287 C 0.12915 0.03326 0.02062 0.0
C288 C 0.13431 0.02717 0.05511 0.0
C289 C 0.13029 0.06251 1.00667 0.0
O290 O 0.13737 0.12357 0.95688 0.0
O291 O 0.14676 0.09761 0.96917 0.0
C292 C 0.14669 0.10954 0.95553 0.0
O293 O 0.10967 0.09827 0.9727 0.0
O294 O 0.13472 0.16379 0.9854 0.0
O295 O 0.113 0.15601 0.96797 0.0
O296 O 0.10135 0.12429 0.98368 0.0
C297 C 0.09838 0.11067 0.97312 0.0
O298 O 0.11789 0.1083 0.02162 0.0
O299 O 0.12661 0.13612 0.01701 0.0
O300 O 0.15498 0.13076 0.98754 0.0
O301 O 0.11639 0.07158 1.00488 0.0
O302 O 0.1439 0.0711 1.00169 0.0
O303 O 0.1527 0.10811 1.00885 0.0
C304 C 0.12769 0.18124 0.95762 0.0
C305 C 0.12086 0.18014 0.93868 0.0
C306 C 0.14009 0.20884 0.94896 0.0
C307 C 0.12338 0.19333 0.92517 0.0
C308 C 0.13751 0.19565 0.9625 0.0
C309 C 0.13279 0.20801 0.93022 0.0
C310 C 0.12304 0.16858 0.97294 0.0
C311 C 0.1212 0.12368 0.02838 0.0
H312 H 0.13714 0.07008 0.04534 0.0
H313 H 0.12822 0.00823 0.03305 0.0
H314 H 0.13967 0.04971 0.07254 0.0
H315 H 0.12623 0.02849 1.00617 0.0
H316 H 0.11315 0.16928 0.93438 0.0
H317 H 0.14725 0.22 0.95346 0.0
H318 H 0.11779 0.1921 0.9108 0.0
H319 H 0.14275 0.197 0.97703 0.0
Eu320 Eu 0.88894 0.88112 0.73722 0.0
Eu321 Eu 0.8465 0.87955 0.74925 0.0
C322 C 0.86422 0.85089 0.72176 0.0
C323 C 0.93412 0.88329 0.71172 0.0
C324 C 0.93684 0.86924 0.69931 0.0
C325 C 0.95763 0.89815 0.69563 0.0
C326 C 0.94995 0.86963 0.68529 0.0
C327 C 0.94459 0.89775 0.70959 0.0
C328 C 0.96067 0.88403 0.68342 0.0
C329 C 0.92154 0.8829 0.72797 0.0
O330 O 0.8611 0.86587 0.77308 0.0
O331 O 0.88771 0.87811 0.76991 0.0
C332 C 0.87598 0.87036 0.78041 0.0
O333 O 0.88031 0.90724 0.74601 0.0
O334 O 0.82398 0.865 0.75886 0.0
O335 O 0.82202 0.8923 0.75433 0.0
O336 O 0.85801 0.9008 0.76663 0.0
C337 C 0.86957 0.91134 0.75988 0.0
O338 O 0.87474 0.88934 0.71027 0.0
O339 O 0.84927 0.89832 0.72387 0.0
O340 O 0.85038 0.85992 0.7254 0.0
O341 O 0.91161 0.89613 0.72998 0.0
O342 O 0.91368 0.86864 0.73213 0.0
O343 O 0.8793 0.85508 0.72875 0.0
C344 C 0.80283 0.87989 0.77762 0.0
C345 C 0.80633 0.89087 0.79337 0.0
C346 C 0.77575 0.87238 0.79311 0.0
C347 C 0.79452 0.89269 0.80876 0.0
C348 C 0.7875 0.87059 0.7778 0.0
C349 C 0.77894 0.88359 0.80875 0.0
C350 C 0.81427 0.8785 0.76031 0.0
C351 C 0.86086 0.89887 0.70982 0.0
H352 H 0.92907 0.85785 0.70064 0.0
H353 H 0.96534 0.90959 0.69444 0.0
H354 H 0.95196 0.85845 0.67629 0.0
H355 H 0.94288 0.90872 0.71901 0.0
H356 H 0.81805 0.89824 0.79364 0.0
H357 H 0.76411 0.8649 0.79266 0.0
H358 H 0.79741 0.90156 0.8204 0.0
H359 H 0.78447 0.86204 0.76587 0.0
Eu360 Eu 0.87096 0.13863 0.48662 0.0
Eu361 Eu 0.87037 0.09684 0.49929 0.0
C362 C 0.90082 0.11334 0.47454 0.0
C363 C 0.87047 0.1829 0.45922 0.0
C364 C 0.88463 0.18809 0.44805 0.0
C365 C 0.85301 0.2037 0.44161 0.0
C366 C 0.88306 0.20098 0.43401 0.0
C367 C 0.85458 0.19076 0.45569 0.0
C368 C 0.86731 0.2092 0.4308 0.0
C369 C 0.8729 0.17086 0.47584 0.0
O370 O 0.88327 0.11114 0.52381 0.0
O371 O 0.8722 0.13812 0.51954 0.0
C372 C 0.87901 0.12624 0.53069 0.0
O373 O 0.84364 0.13105 0.49147 0.0
O374 O 0.88443 0.074 0.50865 0.0
O375 O 0.85696 0.07285 0.50526 0.0
O376 O 0.84792 0.10956 0.51377 0.0
C377 C 0.83786 0.12049 0.50482 0.0
O378 O 0.86265 0.12458 0.45944 0.0
O379 O 0.85303 0.0992 0.47286 0.0
O380 O 0.89023 0.10033 0.47551 0.0
O381 O 0.8595 0.16414 0.48414 0.0
O382 O 0.88556 0.16008 0.47485 0.0
O383 O 0.89744 0.1275 0.48403 0.0
C384 C 0.86957 0.05301 0.52754 0.0
C385 C 0.86408 0.05854 0.54602 0.0
C386 C 0.87256 0.02415 0.54053 0.0
C387 C 0.86287 0.0469 0.56166 0.0
C388 C 0.87379 0.03574 0.52503 0.0
C389 C 0.86713 0.02949 0.55915 0.0
C390 C 0.87072 0.06463 0.51045 0.0
C391 C 0.85324 0.11061 0.45867 0.0
H392 H 0.8971 0.18247 0.4505 0.0
H393 H 0.84071 0.20982 0.43971 0.0
H394 H 0.89431 0.20462 0.42578 0.0
H395 H 0.84345 0.18729 0.46419 0.0
H396 H 0.86074 0.07182 0.54834 0.0
H397 H 0.87561 0.01088 0.53776 0.0
H398 H 0.85878 0.0516 0.57575 0.0
H399 H 0.87793 0.03112 0.5109 0.0
Eu400 Eu 0.61591 0.12711 0.23434 0.0
Eu401 Eu 0.6575 0.1229 0.24702 0.0
C402 C 0.64324 0.15483 0.22333 0.0
C403 C 0.57155 0.12808 0.20773 0.0
C404 C 0.56462 0.14147 0.19665 0.0
C405 C 0.55214 0.10834 0.19137 0.0
C406 C 0.55155 0.13843 0.18324 0.0
C407 C 0.5653 0.11141 0.20485 0.0
C408 C 0.54493 0.12189 0.1806 0.0
C409 C 0.58436 0.1323 0.22291 0.0
O410 O 0.64438 0.13602 0.27208 0.0
O411 O 0.61614 0.12884 0.2673 0.0
C412 C 0.62878 0.13371 0.2787 0.0
O413 O 0.62081 0.09931 0.23841 0.0
O414 O 0.68135 0.13568 0.25527 0.0
O415 O 0.68034 0.10803 0.25413 0.0
O416 O 0.64287 0.10103 0.26051 0.0
C417 C 0.63098 0.0923 0.25133 0.0
O418 O 0.629 0.11572 0.20773 0.0
O419 O 0.65464 0.10594 0.2205 0.0
O420 O 0.65529 0.14318 0.22355 0.0
O421 O 0.58867 0.12066 0.23566 0.0
O422 O 0.59729 0.14169 0.21753 0.0
O423 O 0.62911 0.15252 0.23317 0.0
C424 C 0.70056 0.1206 0.27625 0.0
C425 C 0.6988 0.10777 0.2905 0.0
C426 C 0.72562 0.13122 0.29358 0.0
C427 C 0.7105 0.10657 0.30601 0.0
C428 C 0.71399 0.13238 0.27812 0.0
C429 C 0.72425 0.11815 0.30762 0.0
C430 C 0.68947 0.12141 0.25864 0.0
C431 C 0.64285 0.10606 0.20674 0.0
H432 H 0.56915 0.15444 0.1986 0.0
H433 H 0.54729 0.09546 0.1898 0.0
H434 H 0.5466 0.14913 0.17496 0.0
H435 H 0.57034 0.10081 0.21323 0.0
H436 H 0.68861 0.09845 0.28949 0.0
H437 H 0.73575 0.14061 0.29446 0.0
H438 H 0.70904 0.09625 0.3164 0.0
H439 H 0.71567 0.14239 0.26737 0.0
Eu440 Eu 0.62587 0.86574 0.98556 0.0
Eu441 Eu 0.62982 0.90744 0.99763 0.0
C442 C 0.59807 0.89272 0.97418 0.0
C443 C 0.62415 0.82115 0.95931 0.0
C444 C 0.61061 0.81437 0.94835 0.0
C445 C 0.64348 0.80121 0.94311 0.0
C446 C 0.61338 0.80112 0.93508 0.0
C447 C 0.64069 0.81454 0.95647 0.0
C448 C 0.62979 0.79416 0.93245 0.0
C449 C 0.62018 0.83421 0.97434 0.0
O450 O 0.61657 0.89427 0.02276 0.0
O451 O 0.6249 0.86632 0.01853 0.0
C452 C 0.61954 0.87889 0.02973 0.0
O453 O 0.65365 0.87058 0.98958 0.0
O454 O 0.61691 0.93131 1.0057 0.0
O455 O 0.64456 0.93034 1.00489 0.0
O456 O 0.65183 0.89305 0.01117 0.0
C457 C 0.66056 0.88093 1.00236 0.0
O458 O 0.63782 0.87833 0.95901 0.0
O459 O 0.64669 0.90462 0.97087 0.0
O460 O 0.6096 0.90491 0.97408 0.0
O461 O 0.63184 0.83838 0.98711 0.0
O462 O 0.61109 0.8473 0.96877 0.0
O463 O 0.60051 0.8791 0.98489 0.0
C464 C 0.63177 0.95083 0.02658 0.0
C465 C 0.64351 0.94836 0.04188 0.0
C466 C 0.62206 0.97694 0.04259 0.0
C467 C 0.64461 0.9602 0.05729 0.0
C468 C 0.62099 0.96515 0.02727 0.0
C469 C 0.63404 0.97483 0.05774 0.0
C470 C 0.63113 0.9395 1.00914 0.0
C471 C 0.6471 0.89241 0.95757 0.0
H472 H 0.59773 0.81918 0.95028 0.0
H473 H 0.65628 0.79611 0.94155 0.0
H474 H 0.60258 0.79631 0.92689 0.0
H475 H 0.65139 0.81945 0.96475 0.0
H476 H 0.65204 0.93747 0.04178 0.0
H477 H 0.61344 0.98776 0.04253 0.0
H478 H 0.65408 0.95813 0.06854 0.0
H479 H 0.61183 0.9674 0.0157 0.0
Eu480 Eu 0.88675 0.12661 0.78362 0.0
Eu481 Eu 0.84505 0.12117 0.77293 0.0
C482 C 0.859 0.15312 0.7962 0.0
C483 C 0.93097 0.12756 0.80989 0.0
C484 C 0.92997 0.13413 0.82896 0.0
C485 C 0.95821 0.1143 0.81845 0.0
C486 C 0.943 0.13104 0.84248 0.0
C487 C 0.94518 0.11746 0.80487 0.0
C488 C 0.95743 0.12131 0.83734 0.0
C489 C 0.91824 0.13261 0.79481 0.0
O490 O 0.85703 0.13523 0.74768 0.0
O491 O 0.88554 0.12852 0.75078 0.0
C492 C 0.87236 0.13324 0.74013 0.0
O493 O 0.88291 0.09876 0.77849 0.0
O494 O 0.82089 0.13352 0.76515 0.0
O495 O 0.82222 0.10591 0.76694 0.0
O496 O 0.85964 0.10012 0.75806 0.0
C497 C 0.87253 0.09174 0.76579 0.0
O498 O 0.87533 0.11361 0.81017 0.0
O499 O 0.84884 0.1043 0.79941 0.0
O500 O 0.84774 0.14074 0.79699 0.0
O501 O 0.91432 0.12162 0.7812 0.0
O502 O 0.90498 0.14135 0.80062 0.0
O503 O 0.87244 0.1515 0.785 0.0
C504 C 0.80159 0.11776 0.74524 0.0
C505 C 0.80813 0.11546 0.72632 0.0
C506 C 0.77276 0.11743 0.73189 0.0
C507 C 0.79699 0.1141 0.71029 0.0
C508 C 0.78385 0.11877 0.74782 0.0
C509 C 0.7791 0.11498 0.71288 0.0
C510 C 0.81278 0.11912 0.76259 0.0
C511 C 0.86146 0.10412 0.81217 0.0
H512 H 0.91929 0.14204 0.83339 0.0
H513 H 0.9692 0.10689 0.81391 0.0
H514 H 0.94182 0.13641 0.85697 0.0
H515 H 0.94646 0.11239 0.79025 0.0
H516 H 0.8218 0.11465 0.72398 0.0
H517 H 0.75916 0.11855 0.73452 0.0
H518 H 0.80239 0.1121 0.69592 0.0
H519 H 0.77852 0.12064 0.76225 0.0
Eu520 Eu 0.6332 0.14258 0.52929 0.0
Eu521 Eu 0.63244 0.09557 0.52154 0.0
C522 C 0.60442 0.11426 0.54858 0.0
C523 C 0.63042 0.18743 0.5546 0.0
C524 C 0.62572 0.18307 0.57375 0.0
C525 C 0.63747 0.2161 0.56568 0.0
C526 C 0.62692 0.19522 0.58879 0.0
C527 C 0.63624 0.20403 0.55075 0.0
C528 C 0.63296 0.21189 0.58495 0.0
C529 C 0.63002 0.17507 0.5383 0.0
O530 O 0.62148 0.10762 0.49436 0.0
O531 O 0.62267 0.13745 0.49867 0.0
C532 C 0.61969 0.12355 0.48804 0.0
O533 O 0.65851 0.14196 0.51274 0.0
O534 O 0.62476 0.06895 0.5171 0.0
O535 O 0.65049 0.07722 0.50921 0.0
O536 O 0.64661 0.11815 0.51426 0.0
C537 C 0.66032 0.12595 0.50909 0.0
O538 O 0.65004 0.12952 0.55189 0.0
O539 O 0.64709 0.09955 0.54978 0.0
O540 O 0.60835 0.10043 0.5384 0.0
O541 O 0.64445 0.16774 0.53397 0.0
O542 O 0.61709 0.1646 0.53681 0.0
O543 O 0.613 0.12894 0.54791 0.0
C544 C 0.63883 0.05323 0.49169 0.0
C545 C 0.64619 0.0577 0.47366 0.0
C546 C 0.63207 0.02513 0.4783 0.0
C547 C 0.64652 0.04594 0.45813 0.0
C548 C 0.63172 0.03686 0.49373 0.0
C549 C 0.63953 0.0294 0.46024 0.0
C550 C 0.63935 0.06472 0.50902 0.0
C551 C 0.65345 0.11369 0.55769 0.0
H552 H 0.62131 0.17028 0.57709 0.0
H553 H 0.64184 0.22884 0.56203 0.0
H554 H 0.62344 0.19148 0.60347 0.0
H555 H 0.63994 0.20767 0.53609 0.0
H556 H 0.65182 0.07021 0.47159 0.0
H557 H 0.62685 0.0125 0.48079 0.0
H558 H 0.65221 0.04986 0.44444 0.0
H559 H 0.62614 0.03296 0.50751 0.0
Eu560 Eu 0.61481 0.87826 0.28319 0.0
Eu561 Eu 0.65666 0.8795 0.27132 0.0
C562 C 0.64043 0.84909 0.29607 0.0
C563 C 0.57033 0.8787 0.30966 0.0
C564 C 0.56438 0.86486 0.32082 0.0
C565 C 0.55046 0.89727 0.32711 0.0
C566 C 0.55161 0.86713 0.33484 0.0
C567 C 0.56327 0.89498 0.31301 0.0
C568 C 0.54435 0.88333 0.33811 0.0
C569 C 0.58258 0.87548 0.2935 0.0
O570 O 0.64295 0.86612 0.24661 0.0
O571 O 0.61569 0.87663 0.25035 0.0
C572 C 0.62783 0.86999 0.23945 0.0
O573 O 0.62198 0.90557 0.27837 0.0
O574 O 0.67989 0.86566 0.26285 0.0
O575 O 0.68035 0.89328 0.26518 0.0
O576 O 0.64357 0.90136 0.25617 0.0
C577 C 0.63235 0.91126 0.26482 0.0
O578 O 0.62798 0.88821 0.31022 0.0
O579 O 0.65414 0.89678 0.29784 0.0
O580 O 0.65335 0.85975 0.29513 0.0
O581 O 0.58867 0.8884 0.28368 0.0
O582 O 0.59404 0.86363 0.29626 0.0
O583 O 0.62639 0.8521 0.28625 0.0
C584 C 0.70022 0.88045 0.24305 0.0
C585 C 0.69668 0.89099 0.22693 0.0
C586 C 0.72709 0.87223 0.22772 0.0
C587 C 0.70834 0.89218 0.21136 0.0
C588 C 0.71546 0.87102 0.24317 0.0
C589 C 0.72379 0.88286 0.21157 0.0
C590 C 0.68885 0.87957 0.26037 0.0
C591 C 0.6422 0.89724 0.31148 0.0
H592 H 0.56931 0.8521 0.31836 0.0
H593 H 0.54533 0.90996 0.32935 0.0
H594 H 0.54706 0.85601 0.3427 0.0
H595 H 0.56743 0.90591 0.30456 0.0
H596 H 0.68499 0.8984 0.22642 0.0
H597 H 0.7389 0.86508 0.22873 0.0
H598 H 0.70517 0.90034 0.19912 0.0
H599 H 0.71854 0.8629 0.25548 0.0
Eu600 Eu 0.87599 0.86417 0.0341 0.0
Eu601 Eu 0.87203 0.90593 0.02217 0.0
C602 C 0.90357 0.8913 0.04566 0.0
C603 C 0.87547 0.81969 0.06039 0.0
C604 C 0.87649 0.82317 0.08049 0.0
C605 C 0.86813 0.79016 0.06818 0.0
C606 C 0.87366 0.8102 0.09425 0.0
C607 C 0.87102 0.80311 0.05443 0.0
C608 C 0.86971 0.79344 0.08829 0.0
C609 C 0.88072 0.83248 0.04552 0.0
O610 O 0.88594 0.89293 0.99741 0.0
O611 O 0.87765 0.8649 1.00124 0.0
C612 C 0.88314 0.87757 0.99026 0.0
O613 O 0.8482 0.86962 0.02959 0.0
O614 O 0.885 0.9298 0.01424 0.0
O615 O 0.85732 0.92893 0.01531 0.0
O616 O 0.85105 0.89135 1.00724 0.0
C617 C 0.84188 0.87962 0.01604 0.0
O618 O 0.86437 0.87683 0.06064 0.0
O619 O 0.85486 0.90284 0.04864 0.0
O620 O 0.89153 0.90294 0.04625 0.0
O621 O 0.86976 0.83681 0.03203 0.0
O622 O 0.88984 0.84544 0.05144 0.0
O623 O 0.90147 0.87755 0.03504 0.0
C624 C 0.87003 0.94931 0.99342 0.0
C625 C 0.8575 0.94742 0.97886 0.0
C626 C 0.88047 0.97471 0.9765 0.0
C627 C 0.85643 0.95913 0.96333 0.0
C628 C 0.88154 0.96301 0.99194 0.0
C629 C 0.86784 0.97305 0.96197 0.0
C630 C 0.87078 0.93804 0.01093 0.0
C631 C 0.85482 0.8907 0.06206 0.0
H632 H 0.87987 0.83582 0.0856 0.0
H633 H 0.8653 0.77741 0.06299 0.0
H634 H 0.87473 0.8133 0.10959 0.0
H635 H 0.8703 0.80002 0.03906 0.0
H636 H 0.84841 0.93699 0.97955 0.0
H637 H 0.88932 0.98534 0.97629 0.0
H638 H 0.84668 0.95722 0.95236 0.0
H639 H 0.89121 0.9649 1.00303 0.0
Eu640 Eu 0.6565 0.62366 0.77116 0.0
Eu641 Eu 0.61431 0.62042 0.78308 0.0
C642 C 0.63461 0.59161 0.75817 0.0
C643 C 0.70009 0.62502 0.74334 0.0
C644 C 0.69718 0.6133 0.72814 0.0
C645 C 0.72625 0.63406 0.72699 0.0
C646 C 0.70886 0.61186 0.71261 0.0
C647 C 0.71463 0.63546 0.74245 0.0
C648 C 0.72372 0.62209 0.71193 0.0
C649 C 0.68875 0.6262 0.76069 0.0
O650 O 0.62922 0.61323 0.80988 0.0
O651 O 0.65369 0.60349 0.79497 0.0
C652 C 0.64271 0.60327 0.80958 0.0
O653 O 0.65184 0.64287 0.79528 0.0
O654 O 0.59322 0.60416 0.79243 0.0
O655 O 0.58856 0.63103 0.78686 0.0
O656 O 0.62273 0.64672 0.79221 0.0
C657 C 0.63772 0.65142 0.79903 0.0
O658 O 0.64164 0.63693 0.7473 0.0
O659 O 0.61509 0.62452 0.75054 0.0
O660 O 0.62318 0.59507 0.77162 0.0
O661 O 0.67835 0.6392 0.76171 0.0
O662 O 0.6817 0.61216 0.76704 0.0
O663 O 0.64641 0.60246 0.7527 0.0
C664 C 0.56983 0.61654 0.80942 0.0
C665 C 0.56597 0.63135 0.82017 0.0
C666 C 0.54799 0.60115 0.82772 0.0
C667 C 0.55309 0.63106 0.83445 0.0
C668 C 0.56083 0.60143 0.81354 0.0
C669 C 0.54375 0.61601 0.83817 0.0
C670 C 0.58212 0.61656 0.79293 0.0
C671 C 0.6267 0.63252 0.74009 0.0
H672 H 0.68604 0.60509 0.72842 0.0
H673 H 0.73725 0.64246 0.72687 0.0
H674 H 0.70645 0.60242 0.7014 0.0
H675 H 0.71714 0.64464 0.75392 0.0
H676 H 0.57264 0.64321 0.8173 0.0
H677 H 0.54132 0.58925 0.83042 0.0
H678 H 0.5501 0.64277 0.84214 0.0
H679 H 0.5635 0.58982 0.80548 0.0
Eu680 Eu 0.63004 0.40793 0.02126 0.0
Eu681 Eu 0.62579 0.36662 0.03408 0.0
C682 C 0.65944 0.38042 0.01289 0.0
C683 C 0.63186 0.45156 0.99301 0.0
C684 C 0.63723 0.44585 0.97457 0.0
C685 C 0.62866 0.48026 0.97969 0.0
C686 C 0.63843 0.45735 0.95882 0.0
C687 C 0.62749 0.46881 0.99533 0.0
C688 C 0.63432 0.4748 0.96121 0.0
C689 C 0.63106 0.44014 0.01027 0.0
O690 O 0.63892 0.37932 0.05974 0.0
O691 O 0.64862 0.40468 0.04632 0.0
C692 C 0.64891 0.39291 0.06011 0.0
O693 O 0.61098 0.40525 0.04593 0.0
O694 O 0.63006 0.33897 0.03138 0.0
O695 O 0.61276 0.34881 0.05342 0.0
O696 O 0.60052 0.38028 0.03452 0.0
C697 C 0.59867 0.39391 0.04534 0.0
O698 O 0.61602 0.39493 0.99656 0.0
O699 O 0.62338 0.36672 1.00131 0.0
O700 O 0.6533 0.37027 0.02646 0.0
O701 O 0.61692 0.43168 0.01322 0.0
O702 O 0.64457 0.43105 0.01438 0.0
O703 O 0.6508 0.39344 1.0058 0.0
C704 C 0.62618 0.32208 0.06019 0.0
C705 C 0.62854 0.32563 0.08012 0.0
C706 C 0.63141 0.29197 0.06688 0.0
C707 C 0.63202 0.31239 0.09335 0.0
C708 C 0.62792 0.30518 0.05371 0.0
C709 C 0.63319 0.29533 0.08694 0.0
C710 C 0.62029 0.33532 0.04625 0.0
C711 C 0.61821 0.37928 0.99 0.0
H712 H 0.64066 0.43257 0.9724 0.0
H713 H 0.62501 0.49343 0.98211 0.0
H714 H 0.64293 0.45263 0.94489 0.0
H715 H 0.62323 0.47351 0.00938 0.0
H716 H 0.62722 0.33855 0.08559 0.0
H717 H 0.63254 0.27906 0.06134 0.0
H718 H 0.63318 0.31547 0.10868 0.0
H719 H 0.62613 0.30209 0.03844 0.0
Eu720 Eu 0.84655 0.38182 0.27178 0.0
Eu721 Eu 0.8929 0.38306 0.28069 0.0
C722 C 0.87697 0.41127 0.25839 0.0
C723 C 0.80468 0.38767 0.24052 0.0
C724 C 0.80501 0.40109 0.22678 0.0
C725 C 0.78065 0.37526 0.22269 0.0
C726 C 0.79317 0.40166 0.21134 0.0
C727 C 0.79242 0.37472 0.2381 0.0
C728 C 0.78059 0.38889 0.20924 0.0
C729 C 0.81558 0.38796 0.25847 0.0
O730 O 0.87961 0.3995 0.3031 0.0
O731 O 0.84982 0.39763 0.29951 0.0
C732 C 0.86381 0.40366 0.30813 0.0
O733 O 0.85066 0.35916 0.29103 0.0
O734 O 0.91755 0.39502 0.28603 0.0
O735 O 0.91543 0.36752 0.28819 0.0
O736 O 0.88 0.3614 0.29733 0.0
C737 C 0.86487 0.354 0.29955 0.0
O738 O 0.85913 0.36929 0.24588 0.0
O739 O 0.88852 0.37425 0.24963 0.0
O740 O 0.89247 0.40746 0.26318 0.0
O741 O 0.82022 0.3734 0.26626 0.0
O742 O 0.8276 0.39947 0.25969 0.0
O743 O 0.86563 0.40027 0.26339 0.0
C744 C 0.93766 0.38157 0.30686 0.0
C745 C 0.93913 0.36847 0.32082 0.0
C746 C 0.96176 0.39613 0.32206 0.0
C747 C 0.95192 0.36918 0.33521 0.0
C748 C 0.94906 0.39542 0.30778 0.0
C749 C 0.96356 0.38294 0.33583 0.0
C750 C 0.92534 0.38083 0.29038 0.0
C751 C 0.87502 0.36954 0.23932 0.0
H752 H 0.81412 0.41143 0.22821 0.0
H753 H 0.77148 0.36497 0.22143 0.0
H754 H 0.79356 0.41245 0.20145 0.0
H755 H 0.79164 0.36428 0.24844 0.0
H756 H 0.93063 0.35756 0.32045 0.0
H757 H 0.97024 0.40707 0.32226 0.0
H758 H 0.95299 0.35873 0.34549 0.0
H759 H 0.94834 0.40567 0.29718 0.0
Eu760 Eu 0.87225 0.59618 0.52278 0.0
Eu761 Eu 0.87608 0.63758 0.53453 0.0
C762 C 0.84254 0.62292 0.51377 0.0
C763 C 0.86983 0.55318 0.49417 0.0
C764 C 0.85518 0.55321 0.48226 0.0
C765 C 0.88169 0.53036 0.47407 0.0
C766 C 0.85376 0.54182 0.46655 0.0
C767 C 0.88308 0.5417 0.48978 0.0
C768 C 0.86696 0.53014 0.46228 0.0
C769 C 0.87113 0.56403 0.51194 0.0
O770 O 0.86444 0.62482 0.56109 0.0
O771 O 0.85355 0.60006 0.54756 0.0
C772 C 0.85395 0.61162 0.56151 0.0
O773 O 0.89129 0.59902 0.5474 0.0
O774 O 0.86899 0.66468 0.53396 0.0
O775 O 0.8911 0.65647 0.55046 0.0
O776 O 0.90152 0.62416 0.53603 0.0
C777 C 0.90343 0.61057 0.54697 0.0
O778 O 0.88638 0.60886 0.49794 0.0
O779 O 0.87855 0.63701 0.50169 0.0
O780 O 0.84856 0.63332 0.52713 0.0
O781 O 0.88533 0.57248 0.5146 0.0
O782 O 0.85774 0.57285 0.51719 0.0
O783 O 0.85146 0.61008 0.50677 0.0
C784 C 0.87701 0.68149 0.56189 0.0
C785 C 0.89037 0.68749 0.5737 0.0
C786 C 0.85769 0.70129 0.57835 0.0
C787 C 0.88752 0.70031 0.58749 0.0
C788 C 0.86054 0.68837 0.56452 0.0
C789 C 0.87124 0.70767 0.58977 0.0
C790 C 0.88104 0.66918 0.54606 0.0
C791 C 0.88397 0.62428 0.49079 0.0
H792 H 0.84471 0.56189 0.48519 0.0
H793 H 0.89202 0.52144 0.47152 0.0
H794 H 0.84234 0.54227 0.45766 0.0
H795 H 0.89444 0.54124 0.4988 0.0
H796 H 0.90319 0.68249 0.57198 0.0
H797 H 0.84499 0.70668 0.5796 0.0
H798 H 0.89821 0.70456 0.59627 0.0
H799 H 0.84996 0.68408 0.55561 0.0
Eu800 Eu 0.65607 0.38086 0.74857 0.0
Eu801 Eu 0.61418 0.37808 0.73705 0.0
C802 C 0.6303 0.41159 0.75653 0.0
C803 C 0.70014 0.38377 0.77576 0.0
C804 C 0.69433 0.3837 0.79517 0.0
C805 C 0.72927 0.38743 0.78762 0.0
C806 C 0.70597 0.3855 0.81071 0.0
C807 C 0.71768 0.38566 0.77221 0.0
C808 C 0.72366 0.38744 0.80715 0.0
C809 C 0.68846 0.38173 0.75887 0.0
O810 O 0.6267 0.38957 0.71044 0.0
O811 O 0.65268 0.3987 0.72272 0.0
C812 C 0.6406 0.39903 0.70927 0.0
O813 O 0.65264 0.36102 0.72486 0.0
O814 O 0.5869 0.38446 0.73984 0.0
O815 O 0.59512 0.36485 0.71958 0.0
O816 O 0.62678 0.35224 0.73592 0.0
C817 C 0.64041 0.34955 0.72524 0.0
O818 O 0.64308 0.36761 0.77386 0.0
O819 O 0.61501 0.37582 0.76979 0.0
O820 O 0.61969 0.40567 0.74329 0.0
O821 O 0.67941 0.36774 0.75785 0.0
O822 O 0.67983 0.3951 0.75323 0.0
O823 O 0.64247 0.40212 0.76413 0.0
C824 C 0.56898 0.37895 0.71222 0.0
C825 C 0.57289 0.38292 0.69272 0.0
C826 C 0.53871 0.38109 0.70446 0.0
C827 C 0.55976 0.38567 0.67912 0.0
C828 C 0.5518 0.37836 0.71799 0.0
C829 C 0.54247 0.38443 0.68475 0.0
C830 C 0.58228 0.37366 0.72634 0.0
C831 C 0.6276 0.37025 0.78078 0.0
H832 H 0.68083 0.38227 0.79829 0.0
H833 H 0.74273 0.3885 0.78417 0.0
H834 H 0.70108 0.38558 0.82548 0.0
H835 H 0.72249 0.38566 0.75738 0.0
H836 H 0.58607 0.3834 0.68788 0.0
H837 H 0.52559 0.38036 0.70943 0.0
H838 H 0.56315 0.38813 0.66407 0.0
H839 H 0.54847 0.3753 0.73293 0.0
Eu840 Eu 0.87137 0.40633 0.99747 0.0
Eu841 Eu 0.87399 0.36413 0.98618 0.0
C842 C 0.83986 0.38047 1.00412 0.0
C843 C 0.86879 0.44984 0.02561 0.0
C844 C 0.87196 0.44425 0.04476 0.0
C845 C 0.86211 0.47816 0.03835 0.0
C846 C 0.87027 0.45559 0.06059 0.0
C847 C 0.86377 0.46685 0.02263 0.0
C848 C 0.86535 0.47277 0.05761 0.0
C849 C 0.87112 0.43857 1.00837 0.0
O850 O 0.86177 0.37641 0.95988 0.0
O851 O 0.85478 0.4037 0.97048 0.0
C852 C 0.85346 0.39099 0.95789 0.0
O853 O 0.89187 0.40281 0.97454 0.0
O854 O 0.86763 0.33683 0.98773 0.0
O855 O 0.88852 0.34549 0.96947 0.0
O856 O 0.89975 0.37678 0.98589 0.0
C857 C 0.90289 0.39019 0.97507 0.0
O858 O 0.88302 0.39287 0.02348 0.0
O859 O 0.87528 0.3647 0.01892 0.0
O860 O 0.84641 0.36903 0.99227 0.0
O861 O 0.88485 0.42911 1.00769 0.0
O862 O 0.85772 0.43053 1.00179 0.0
O863 O 0.84845 0.39363 0.0109 0.0
C864 C 0.87476 0.31985 0.95952 0.0
C865 C 0.88706 0.31568 0.94536 0.0
C866 C 0.85613 0.29787 0.94592 0.0
C867 C 0.88401 0.30278 0.93174 0.0
C868 C 0.85921 0.31083 0.95964 0.0
C869 C 0.86855 0.2936 0.93185 0.0
C870 C 0.87915 0.33253 0.97484 0.0
C871 C 0.88027 0.37733 0.03018 0.0
H872 H 0.87583 0.43117 0.04748 0.0
H873 H 0.85863 0.49127 0.03528 0.0
H874 H 0.8727 0.45084 0.07515 0.0
H875 H 0.86135 0.4715 1.008 0.0
H876 H 0.89929 0.32216 0.94509 0.0
H877 H 0.84401 0.29122 0.94636 0.0
H878 H 0.89404 0.29968 0.92145 0.0
H879 H 0.84951 0.31359 0.97045 0.0
Eu880 Eu 0.84578 0.62127 0.24808 0.0
Eu881 Eu 0.88784 0.62276 0.23713 0.0
C882 C 0.8699 0.5889 0.25366 0.0
C883 C 0.80237 0.62129 0.27663 0.0
C884 C 0.804 0.60862 0.29109 0.0
C885 C 0.77733 0.63229 0.29373 0.0
C886 C 0.79227 0.6077 0.30661 0.0
C887 C 0.78901 0.63317 0.27827 0.0
C888 C 0.7786 0.61941 0.30802 0.0
C889 C 0.81361 0.62188 0.25911 0.0
O890 O 0.87555 0.61078 0.21068 0.0
O891 O 0.84797 0.60451 0.22107 0.0
C892 C 0.86074 0.60292 0.20857 0.0
O893 O 0.84968 0.64063 0.22404 0.0
O894 O 0.91479 0.6148 0.2383 0.0
O895 O 0.90737 0.63709 0.22162 0.0
O896 O 0.8757 0.64887 0.23502 0.0
C897 C 0.86221 0.65174 0.2242 0.0
O898 O 0.85942 0.63371 0.27359 0.0
O899 O 0.8869 0.62372 0.26992 0.0
O900 O 0.88131 0.59518 0.24155 0.0
O901 O 0.82281 0.6356 0.25643 0.0
O902 O 0.82177 0.60799 0.25416 0.0
O903 O 0.85826 0.59852 0.26202 0.0
C904 C 0.93215 0.62226 0.21045 0.0
C905 C 0.93341 0.63258 0.1937 0.0
C906 C 0.95689 0.6061 0.19899 0.0
C907 C 0.94629 0.62983 0.17991 0.0
C908 C 0.94401 0.60892 0.21288 0.0
C909 C 0.95834 0.61666 0.18241 0.0
C910 C 0.91977 0.62668 0.22617 0.0
C911 C 0.87452 0.62982 0.28085 0.0
H912 H 0.81416 0.59924 0.29025 0.0
H913 H 0.76726 0.64176 0.29444 0.0
H914 H 0.79365 0.59752 0.31718 0.0
H915 H 0.78743 0.64306 0.26735 0.0
H916 H 0.92473 0.64318 0.19146 0.0
H917 H 0.96577 0.59569 0.20134 0.0
H918 H 0.9471 0.63847 0.1676 0.0
H919 H 0.94355 0.60086 0.22571 0.0
Eu920 Eu 0.63158 0.59591 0.49899 0.0
Eu921 Eu 0.62873 0.6377 0.48697 0.0
C922 C 0.66223 0.6221 0.50694 0.0
C923 C 0.63307 0.55182 0.5262 0.0
C924 C 0.63626 0.5577 0.54521 0.0
C925 C 0.63186 0.5227 0.53866 0.0
C926 C 0.63721 0.54609 0.56088 0.0
C927 C 0.63091 0.53426 0.52312 0.0
C928 C 0.63494 0.52839 0.55783 0.0
C929 C 0.63191 0.5635 0.50921 0.0
O930 O 0.63938 0.62442 0.46029 0.0
O931 O 0.64961 0.5992 0.47345 0.0
C932 C 0.64933 0.61083 0.45955 0.0
O933 O 0.61151 0.59944 0.47549 0.0
O934 O 0.63592 0.66482 0.48835 0.0
O935 O 0.61491 0.65672 0.47 0.0
O936 O 0.60294 0.62524 0.48679 0.0
C937 C 0.60008 0.61172 0.47609 0.0
O938 O 0.61878 0.60904 0.52435 0.0
O939 O 0.62624 0.63729 0.51977 0.0
O940 O 0.65618 0.63264 0.49372 0.0
O941 O 0.618 0.57256 0.50738 0.0
O942 O 0.64554 0.57214 0.50447 0.0
O943 O 0.65332 0.60927 0.51405 0.0
C944 C 0.63008 0.68169 0.45989 0.0
C945 C 0.62537 0.67943 0.44026 0.0
C946 C 0.64172 0.70963 0.45141 0.0
C947 C 0.62849 0.69227 0.42646 0.0
C948 C 0.63851 0.69682 0.46522 0.0
C949 C 0.63643 0.70771 0.43191 0.0
C950 C 0.62473 0.66938 0.47523 0.0
C951 C 0.62104 0.62465 0.53099 0.0
H952 H 0.63795 0.57123 0.54794 0.0
H953 H 0.6304 0.50921 0.53555 0.0
H954 H 0.63946 0.55102 0.5754 0.0
H955 H 0.62852 0.52941 0.50857 0.0
H956 H 0.61877 0.66797 0.43561 0.0
H957 H 0.64818 0.72114 0.45612 0.0
H958 H 0.62406 0.69032 0.41167 0.0
H959 H 0.64223 0.69896 0.48024 0.0
Eu960 Eu 0.3885 0.37911 0.2367 0.0
Eu961 Eu 0.34651 0.38254 0.24661 0.0
C962 C 0.3621 0.351 0.22364 0.0
C963 C 0.43302 0.37854 0.21069 0.0
C964 C 0.43557 0.36725 0.19502 0.0
C965 C 0.45658 0.39594 0.19837 0.0
C966 C 0.44846 0.37017 0.18129 0.0
C967 C 0.44366 0.39297 0.21218 0.0
C968 C 0.45926 0.38449 0.1828 0.0
C969 C 0.4204 0.37421 0.2262 0.0
O970 O 0.3588 0.3698 0.27259 0.0
O971 O 0.38706 0.37756 0.26954 0.0
C972 C 0.37401 0.37251 0.28019 0.0
O973 O 0.38303 0.407 0.24085 0.0
O974 O 0.32293 0.36919 0.25451 0.0
O975 O 0.32285 0.39676 0.25159 0.0
O976 O 0.35972 0.40467 0.26112 0.0
C977 C 0.372 0.41372 0.25309 0.0
O978 O 0.3769 0.39089 0.20964 0.0
O979 O 0.34984 0.39909 0.21977 0.0
O980 O 0.35014 0.36272 0.22295 0.0
O981 O 0.41568 0.38602 0.23853 0.0
O982 O 0.40773 0.3643 0.22124 0.0
O983 O 0.37556 0.35341 0.23465 0.0
C984 C 0.30259 0.38454 0.27344 0.0
C985 C 0.30875 0.38801 0.29228 0.0
C986 C 0.27364 0.38373 0.28638 0.0
C987 C 0.29734 0.38943 0.30807 0.0
C988 C 0.28499 0.38234 0.2707 0.0
C989 C 0.27958 0.38744 0.30529 0.0
C990 C 0.31405 0.38322 0.25633 0.0
C991 C 0.36264 0.39966 0.20724 0.0
H992 H 0.42785 0.35583 0.19358 0.0
H993 H 0.46448 0.40721 0.19993 0.0
H994 H 0.45027 0.36087 0.1698 0.0
H995 H 0.44221 0.40185 0.22418 0.0
H996 H 0.32231 0.38973 0.29473 0.0
H997 H 0.26016 0.38173 0.28365 0.0
H998 H 0.30242 0.39239 0.32236 0.0
H999 H 0.27997 0.37954 0.25632 0.0
Eu1000 Eu 0.37338 0.63863 0.98558 0.0
Eu1001 Eu 0.37155 0.59698 0.99759 0.0
C1002 C 0.40208 0.61275 0.97332 0.0
C1003 C 0.37237 0.68279 0.95836 0.0
C1004 C 0.38091 0.68218 0.94031 0.0
C1005 C 0.35853 0.70921 0.94789 0.0
C1006 C 0.37847 0.69503 0.92635 0.0
C1007 C 0.36101 0.69637 0.96188 0.0
C1008 C 0.36745 0.70887 0.93006 0.0
C1009 C 0.37662 0.67059 0.9743 0.0
O1010 O 0.38533 0.61039 0.02223 0.0
O1011 O 0.37614 0.63815 0.0183 0.0
C1012 C 0.38232 0.62578 0.0292 0.0
O1013 O 0.34614 0.63281 0.99348 0.0
O1014 O 0.38549 0.5738 1.00602 0.0
O1015 O 0.35793 0.57307 1.00303 0.0
O1016 O 0.35054 0.60999 0.01409 0.0
C1017 C 0.34086 0.62229 1.00718 0.0
O1018 O 0.36283 0.6253 0.95894 0.0
O1019 O 0.35292 0.60013 0.97249 0.0
O1020 O 0.39057 0.60058 0.9731 0.0
O1021 O 0.36436 0.66524 0.98566 0.0
O1022 O 0.38769 0.65858 0.97057 0.0
O1023 O 0.39946 0.62645 0.98387 0.0
C1024 C 0.37052 0.55363 0.02599 0.0
C1025 C 0.35604 0.55347 0.03818 0.0
C1026 C 0.38257 0.53037 0.04532 0.0
C1027 C 0.3548 0.54177 0.05366 0.0
C1028 C 0.3838 0.54204 0.02987 0.0
C1029 C 0.36799 0.52993 0.05736 0.0
C1030 C 0.37161 0.56476 1.0084 0.0
C1031 C 0.35297 0.61165 0.95843 0.0
H1032 H 0.38983 0.67198 0.93708 0.0
H1033 H 0.35009 0.71975 0.95138 0.0
H1034 H 0.38536 0.69417 0.91269 0.0
H1035 H 0.35442 0.69735 0.97573 0.0
H1036 H 0.34555 0.56222 0.03564 0.0
H1037 H 0.3929 0.52136 0.04745 0.0
H1038 H 0.34348 0.54202 0.06275 0.0
H1039 H 0.39503 0.54173 0.02063 0.0
Eu1040 Eu 0.11548 0.62461 0.73647 0.0
Eu1041 Eu 0.15793 0.62241 0.74673 0.0
C1042 C 0.14122 0.65344 0.72372 0.0
C1043 C 0.07095 0.62438 0.71014 0.0
C1044 C 0.06646 0.63686 0.69631 0.0
C1045 C 0.04933 0.60556 0.69606 0.0
C1046 C 0.05358 0.63382 0.68263 0.0
C1047 C 0.06226 0.60864 0.70984 0.0
C1048 C 0.04473 0.61817 0.68233 0.0
C1049 C 0.08356 0.62878 0.7256 0.0
O1050 O 0.14494 0.63372 0.77319 0.0
O1051 O 0.11654 0.62641 0.7693 0.0
C1052 C 0.12952 0.63107 0.7803 0.0
O1053 O 0.12155 0.59708 0.74147 0.0
O1054 O 0.18103 0.63641 0.75523 0.0
O1055 O 0.18203 0.60892 0.75151 0.0
O1056 O 0.14537 0.5999 0.76099 0.0
C1057 C 0.13304 0.59068 0.75336 0.0
O1058 O 0.1276 0.61249 0.70988 0.0
O1059 O 0.15504 0.60553 0.72006 0.0
O1060 O 0.15383 0.64242 0.72341 0.0
O1061 O 0.08844 0.61705 0.73798 0.0
O1062 O 0.09608 0.63888 0.7206 0.0
O1063 O 0.12779 0.65052 0.7346 0.0
C1064 C 0.20167 0.62132 0.77432 0.0
C1065 C 0.19981 0.60843 0.78849 0.0
C1066 C 0.22707 0.63138 0.79143 0.0
C1067 C 0.21162 0.60694 0.80386 0.0
C1068 C 0.21533 0.63283 0.7761 0.0
C1069 C 0.22556 0.61829 0.80543 0.0
C1070 C 0.19027 0.6226 0.75702 0.0
C1071 C 0.14218 0.60417 0.70768 0.0
H1072 H 0.07266 0.64924 0.69634 0.0
H1073 H 0.04294 0.59329 0.69619 0.0
H1074 H 0.05025 0.64401 0.67265 0.0
H1075 H 0.06526 0.59879 0.72039 0.0
H1076 H 0.18941 0.59934 0.78753 0.0
H1077 H 0.23735 0.64061 0.79229 0.0
H1078 H 0.21003 0.59661 0.81422 0.0
H1079 H 0.21706 0.6429 0.76542 0.0
Eu1080 Eu 0.13495 0.35921 0.48968 0.0
Eu1081 Eu 0.13379 0.40628 0.49757 0.0
C1082 C 0.10527 0.38733 0.47124 0.0
C1083 C 0.13283 0.31513 0.46321 0.0
C1084 C 0.1189 0.31345 0.45041 0.0
C1085 C 0.14758 0.29254 0.44552 0.0
C1086 C 0.11931 0.30135 0.43534 0.0
C1087 C 0.14716 0.30458 0.46052 0.0
C1088 C 0.13364 0.29067 0.43278 0.0
C1089 C 0.13247 0.32684 0.48019 0.0
O1090 O 0.12225 0.39384 0.52441 0.0
O1091 O 0.12488 0.36404 0.5203 0.0
C1092 C 0.12113 0.37783 0.53074 0.0
O1093 O 0.16006 0.36007 0.50658 0.0
O1094 O 0.12586 0.4325 0.5034 0.0
O1095 O 0.15218 0.42474 0.50913 0.0
O1096 O 0.14784 0.38367 0.50453 0.0
C1097 C 0.16148 0.3761 0.51025 0.0
O1098 O 0.15001 0.3727 0.46585 0.0
O1099 O 0.14919 0.40259 0.46985 0.0
O1100 O 0.11071 0.40191 0.47884 0.0
O1101 O 0.14676 0.33451 0.48437 0.0
O1102 O 0.11923 0.33675 0.48284 0.0
O1103 O 0.11274 0.37224 0.4739 0.0
C1104 C 0.14096 0.44771 0.52863 0.0
C1105 C 0.15665 0.45277 0.53678 0.0
C1106 C 0.12643 0.46627 0.55205 0.0
C1107 C 0.15726 0.46449 0.55223 0.0
C1108 C 0.12583 0.4545 0.53661 0.0
C1109 C 0.14217 0.47164 0.55995 0.0
C1110 C 0.14073 0.43689 0.51071 0.0
C1111 C 0.1543 0.3885 0.46073 0.0
H1112 H 0.10761 0.32132 0.45215 0.0
H1113 H 0.15869 0.28435 0.44431 0.0
H1114 H 0.1084 0.30036 0.4257 0.0
H1115 H 0.15799 0.30539 0.47031 0.0
H1116 H 0.16856 0.44793 0.5309 0.0
H1117 H 0.11452 0.47158 0.55734 0.0
H1118 H 0.16962 0.46801 0.55806 0.0
H1119 H 0.1135 0.45109 0.53062 0.0
Eu1120 Eu 0.3931 0.61879 0.28023 0.0
Eu1121 Eu 0.34629 0.62009 0.27137 0.0
C1122 C 0.36495 0.64819 0.29892 0.0
C1123 C 0.43756 0.62072 0.3063 0.0
C1124 C 0.43598 0.63131 0.32276 0.0
C1125 C 0.46322 0.60821 0.32038 0.0
C1126 C 0.448 0.63032 0.33794 0.0
C1127 C 0.45129 0.60922 0.30531 0.0
C1128 C 0.46176 0.61869 0.33694 0.0
C1129 C 0.4255 0.62129 0.2897 0.0
O1130 O 0.35887 0.63174 0.2448 0.0
O1131 O 0.38852 0.62843 0.24921 0.0
C1132 C 0.3749 0.63233 0.23852 0.0
O1133 O 0.39267 0.59363 0.26358 0.0
O1134 O 0.31966 0.6279 0.26724 0.0
O1135 O 0.3281 0.60269 0.25769 0.0
O1136 O 0.36851 0.60505 0.26495 0.0
C1137 C 0.37677 0.59172 0.25944 0.0
O1138 O 0.37942 0.60351 0.30384 0.0
O1139 O 0.34966 0.6036 0.29835 0.0
O1140 O 0.3507 0.64331 0.29009 0.0
O1141 O 0.41784 0.607 0.28554 0.0
O1142 O 0.41549 0.63452 0.28747 0.0
O1143 O 0.37998 0.64045 0.29693 0.0
C1144 C 0.30429 0.61521 0.24064 0.0
C1145 C 0.30832 0.6074 0.22272 0.0
C1146 C 0.27678 0.62377 0.22699 0.0
C1147 C 0.29659 0.60763 0.20718 0.0
C1148 C 0.28847 0.62352 0.24247 0.0
C1149 C 0.28052 0.61562 0.20919 0.0
C1150 C 0.31556 0.61378 0.25809 0.0
C1151 C 0.36355 0.59873 0.30805 0.0
H1152 H 0.42549 0.64028 0.32392 0.0
H1153 H 0.47379 0.59938 0.31886 0.0
H1154 H 0.44641 0.6385 0.35053 0.0
H1155 H 0.45286 0.60101 0.29272 0.0
H1156 H 0.32038 0.60081 0.22082 0.0
H1157 H 0.26474 0.63034 0.22905 0.0
H1158 H 0.29994 0.6011 0.1938 0.0
H1159 H 0.28496 0.62961 0.25608 0.0
Eu1160 Eu 0.12565 0.63736 0.03384 0.0
Eu1161 Eu 0.13034 0.596 0.02141 0.0
C1162 C 0.09866 0.60982 0.04514 0.0
C1163 C 0.1254 0.68178 0.0602 0.0
C1164 C 0.12209 0.6798 0.08025 0.0
C1165 C 0.13582 0.71059 0.06676 0.0
C1166 C 0.12539 0.69313 0.09334 0.0
C1167 C 0.13246 0.69727 0.05367 0.0
C1168 C 0.13208 0.70882 0.08675 0.0
C1169 C 0.11993 0.6687 0.04578 0.0
O1170 O 0.11703 0.60878 0.99609 0.0
O1171 O 0.12379 0.63715 1.00097 0.0
C1172 C 0.11886 0.62451 0.98969 0.0
O1173 O 0.15346 0.6335 0.0277 0.0
O1174 O 0.11776 0.57234 0.01225 0.0
O1175 O 0.14524 0.57284 0.01581 0.0
O1176 O 0.1514 0.61062 1.0067 0.0
C1177 C 0.16016 0.6231 0.01475 0.0
O1178 O 0.13832 0.62468 0.05997 0.0
O1179 O 0.14877 0.59964 0.04646 0.0
O1180 O 0.11102 0.59852 0.04584 0.0
O1181 O 0.13028 0.66497 0.03144 0.0
O1182 O 0.11184 0.65528 0.05231 0.0
O1183 O 0.10047 0.62345 0.03428 0.0
C1184 C 0.13413 0.55335 0.99192 0.0
C1185 C 0.15028 0.54697 0.98658 0.0
C1186 C 0.12158 0.53656 0.96549 0.0
C1187 C 0.15205 0.53546 0.97104 0.0
C1188 C 0.11982 0.5481 0.98102 0.0
C1189 C 0.1377 0.52986 0.96042 0.0
C1190 C 0.13209 0.56402 0.00984 0.0
C1191 C 0.14861 0.6113 0.06031 0.0
H1192 H 0.11649 0.66811 0.08581 0.0
H1193 H 0.14124 0.72234 0.06115 0.0
H1194 H 0.12213 0.69131 0.10855 0.0
H1195 H 0.13503 0.69924 0.0383 0.0
H1196 H 0.16159 0.5506 0.99469 0.0
H1197 H 0.11017 0.53247 0.95788 0.0
H1198 H 0.16472 0.53088 0.96742 0.0
H1199 H 0.10714 0.55254 0.98481 0.0
Eu1200 Eu 0.11328 0.38112 0.78228 0.0
Eu1201 Eu 0.15572 0.38067 0.77099 0.0
C1202 C 0.13841 0.35139 0.79728 0.0
C1203 C 0.06861 0.38239 0.80823 0.0
C1204 C 0.0682 0.37003 0.82314 0.0
C1205 C 0.04409 0.39641 0.8232 0.0
C1206 C 0.05578 0.37084 0.8379 0.0
C1207 C 0.05645 0.39558 0.8085 0.0
C1208 C 0.0435 0.38403 0.83808 0.0
C1209 C 0.08065 0.38128 0.79152 0.0
O1210 O 0.14185 0.36632 0.74704 0.0
O1211 O 0.11468 0.37745 0.7498 0.0
C1212 C 0.1268 0.37005 0.73953 0.0
O1213 O 0.12154 0.40742 0.77323 0.0
O1214 O 0.1791 0.36727 0.76194 0.0
O1215 O 0.17951 0.3947 0.7663 0.0
O1216 O 0.14328 0.40042 0.75232 0.0
C1217 C 0.13193 0.4112 0.75886 0.0
O1218 O 0.12665 0.39004 0.80943 0.0
O1219 O 0.15225 0.39925 0.79632 0.0
O1220 O 0.1519 0.36124 0.79505 0.0
O1221 O 0.08932 0.39495 0.78712 0.0
O1222 O 0.0897 0.36741 0.78939 0.0
O1223 O 0.1238 0.35496 0.78877 0.0
C1224 C 0.19936 0.3833 0.74298 0.0
C1225 C 0.19815 0.39732 0.73014 0.0
C1226 C 0.22426 0.37343 0.72474 0.0
C1227 C 0.20991 0.39934 0.71476 0.0
C1228 C 0.21252 0.37141 0.74001 0.0
C1229 C 0.22321 0.38742 0.71183 0.0
C1230 C 0.18801 0.38133 0.76033 0.0
C1231 C 0.1405 0.39959 0.81019 0.0
H1232 H 0.07735 0.35964 0.82332 0.0
H1233 H 0.0347 0.40656 0.82259 0.0
H1234 H 0.05586 0.36117 0.8492 0.0
H1235 H 0.05632 0.40515 0.79706 0.0
H1236 H 0.1882 0.4068 0.73204 0.0
H1237 H 0.23444 0.36414 0.72339 0.0
H1238 H 0.20849 0.4102 0.7051 0.0
H1239 H 0.21394 0.36063 0.74979 0.0
Eu1240 Eu 0.37108 0.36234 0.5331 0.0
Eu1241 Eu 0.37179 0.40469 0.52214 0.0
C1242 C 0.40125 0.3874 0.5487 0.0
C1243 C 0.36926 0.3175 0.55848 0.0
C1244 C 0.3825 0.31528 0.57213 0.0
C1245 C 0.35363 0.29431 0.57425 0.0
C1246 C 0.38134 0.30264 0.5866 0.0
C1247 C 0.35479 0.30693 0.55983 0.0
C1248 C 0.36696 0.29185 0.58775 0.0
C1249 C 0.37086 0.32959 0.54182 0.0
O1250 O 0.38546 0.3907 0.49802 0.0
O1251 O 0.37303 0.36426 0.50025 0.0
C1252 C 0.38067 0.37624 0.49002 0.0
O1253 O 0.34417 0.37112 0.52902 0.0
O1254 O 0.38583 0.42739 0.51242 0.0
O1255 O 0.35845 0.42876 0.51657 0.0
O1256 O 0.34917 0.39271 0.50724 0.0
C1257 C 0.33869 0.38218 0.51612 0.0
O1258 O 0.36228 0.37535 0.56064 0.0
O1259 O 0.3556 0.4026 0.54965 0.0
O1260 O 0.39226 0.40125 0.54507 0.0
O1261 O 0.35732 0.33818 0.53675 0.0
O1262 O 0.38472 0.33876 0.54038 0.0
O1263 O 0.39698 0.3723 0.54186 0.0
C1264 C 0.37059 0.44706 0.49203 0.0
C1265 C 0.35488 0.44928 0.48235 0.0
C1266 C 0.38349 0.46731 0.46927 0.0
C1267 C 0.35345 0.4606 0.46653 0.0
C1268 C 0.38489 0.45609 0.48513 0.0
C1269 C 0.36768 0.47002 0.45993 0.0
C1270 C 0.37206 0.4366 0.51017 0.0
C1271 C 0.35449 0.3902 0.56272 0.0
H1272 H 0.39388 0.32313 0.5715 0.0
H1273 H 0.34248 0.28612 0.5744 0.0
H1274 H 0.39177 0.30133 0.59686 0.0
H1275 H 0.34448 0.30814 0.54937 0.0
H1276 H 0.34354 0.4426 0.48728 0.0
H1277 H 0.39487 0.47395 0.46444 0.0
H1278 H 0.341 0.46235 0.45993 0.0
H1279 H 0.39716 0.45473 0.49226 0.0
H1280 H 0.21712 0.11785 0.1709 0.0
H1281 H 0.23871 0.11578 0.14517 0.0
H1282 H 0.27862 0.11751 0.18845 0.0
H1283 H 0.25719 0.11954 0.21418 0.0
H1284 H 0.28667 0.13784 0.15901 0.0
H1285 H 0.26642 0.07903 0.16367 0.0
H1286 H 0.24394 0.05691 0.16319 0.0
H1287 H 0.22943 0.07226 0.10542 0.0
H1288 H 0.25183 0.09451 0.10554 0.0
H1289 H 0.35739 0.11708 0.09995 0.0
H1290 H 0.3352 0.11725 0.12509 0.0
H1291 H 0.29719 0.10562 0.08139 0.0
H1292 H 0.31969 0.10388 0.0567 0.0
H1293 H 0.28716 0.09095 0.11045 0.0
H1294 H 0.30603 0.14874 0.1036 0.0
H1295 H 0.32698 0.17229 0.1024 0.0
H1296 H 0.34153 0.16195 0.16162 0.0
H1297 H 0.32082 0.13821 0.16309 0.0
C1298 C 0.23048 0.1176 0.17501 0.0
C1299 C 0.23529 0.11892 0.19476 0.0
C1300 C 0.24287 0.11642 0.16021 0.0
C1301 C 0.26043 0.11633 0.16476 0.0
C1302 C 0.26523 0.11762 0.18444 0.0
C1303 C 0.25288 0.11885 0.1992 0.0
C1304 C 0.27386 0.1151 0.14917 0.0
C1305 C 0.28687 0.12747 0.14853 0.0
C1306 C 0.27392 0.10199 0.13492 0.0
C1307 C 0.26072 0.08845 0.13467 0.0
C1308 C 0.25841 0.07769 0.15088 0.0
C1309 C 0.24571 0.06513 0.15065 0.0
C1310 C 0.23528 0.06319 0.13426 0.0
C1311 C 0.23757 0.07377 0.11805 0.0
C1312 C 0.25028 0.08632 0.11817 0.0
C1313 C 0.34431 0.11433 0.09584 0.0
C1314 C 0.3403 0.11035 0.07643 0.0
C1315 C 0.33151 0.11468 0.11017 0.0
C1316 C 0.3142 0.112 0.10527 0.0
C1317 C 0.3103 0.10776 0.0858 0.0
C1318 C 0.32321 0.10676 0.07163 0.0
C1319 C 0.30019 0.11367 0.12027 0.0
C1320 C 0.28702 0.1014 0.12082 0.0
C1321 C 0.29973 0.12717 0.13412 0.0
C1322 C 0.31196 0.14163 0.13341 0.0
C1323 C 0.31374 0.15147 0.11634 0.0
C1324 C 0.32557 0.16484 0.11561 0.0
C1325 C 0.33559 0.16859 0.13191 0.0
C1326 C 0.33376 0.15902 0.149 0.0
C1327 C 0.32197 0.14562 0.1498 0.0
H1328 H 0.34476 0.17894 0.13131 0.0
H1329 H 0.22543 0.05348 0.13413 0.0
H1330 H 0.12069 0.07354 0.31104 0.0
H1331 H 0.12159 0.05108 0.33574 0.0
H1332 H 0.16235 0.07774 0.3653 0.0
H1333 H 0.16216 0.09971 0.33954 0.0
H1334 H 0.16836 0.04619 0.36892 0.0
H1335 H 0.1171 0.07806 0.3799 0.0
H1336 H 0.0896 0.09139 0.37109 0.0
H1337 H 0.06901 0.04217 0.35653 0.0
H1338 H 0.09648 0.02857 0.36495 0.0
H1339 H 0.15688 0.00163 0.45883 0.0
H1340 H 0.1583 0.02296 0.43295 0.0
H1341 H 0.12155 0.99435 0.39942 0.0
H1342 H 0.11947 0.97328 0.4257 0.0
H1343 H 0.11369 0.02711 0.39838 0.0
H1344 H 0.1659 0.99564 0.38854 0.0
H1345 H 0.19365 0.98328 0.39811 0.0
H1346 H 0.21245 0.03329 0.41238 0.0
H1347 H 0.18473 0.04591 0.40317 0.0
C1348 C 0.1299 0.07453 0.32278 0.0
C1349 C 0.14124 0.08843 0.32354 0.0
C1350 C 0.13031 0.06175 0.33706 0.0
C1351 C 0.14162 0.06284 0.35297 0.0
C1352 C 0.15335 0.07655 0.35338 0.0
C1353 C 0.15324 0.08915 0.33871 0.0
C1354 C 0.14107 0.04976 0.36908 0.0
C1355 C 0.15639 0.04226 0.37552 0.0
C1356 C 0.1255 0.04421 0.37768 0.0
C1357 C 0.10889 0.05232 0.37291 0.0
C1358 C 0.10673 0.07009 0.37473 0.0
C1359 C 0.09115 0.0777 0.3698 0.0
C1360 C 0.07758 0.06764 0.36321 0.0
C1361 C 0.07954 0.04995 0.36161 0.0
C1362 C 0.09511 0.04228 0.36647 0.0
C1363 C 0.14898 0.99985 0.44604 0.0
C1364 C 0.13799 0.98561 0.44455 0.0
C1365 C 0.14999 0.01203 0.43105 0.0
C1366 C 0.14021 0.01028 0.41397 0.0
C1367 C 0.12931 0.99605 0.41235 0.0
C1368 C 0.12825 0.98386 0.42738 0.0
C1369 C 0.14094 0.02353 0.39811 0.0
C1370 C 0.12564 0.03108 0.39176 0.0
C1371 C 0.15654 0.02929 0.38983 0.0
C1372 C 0.17319 0.02169 0.39534 0.0
C1373 C 0.17591 0.00398 0.39386 0.0
C1374 C 0.19164 0.99693 0.3992 0.0
C1375 C 0.20479 0.00749 0.4059 0.0
C1376 C 0.20225 0.02512 0.40722 0.0
C1377 C 0.18654 0.03223 0.40193 0.0
H1378 H 0.21697 0.00201 0.41001 0.0
H1379 H 0.06553 0.07356 0.35938 0.0
H1380 H 0.26951 0.86008 0.68404 0.0
H1381 H 0.24814 0.86182 0.65824 0.0
H1382 H 0.23902 0.91472 0.67244 0.0
H1383 H 0.25971 0.91281 0.69901 0.0
H1384 H 0.2098 0.90057 0.66597 0.0
H1385 H 0.26243 0.90107 0.63107 0.0
H1386 H 0.29105 0.89107 0.62128 0.0
H1387 H 0.2695 0.84399 0.60063 0.0
H1388 H 0.24076 0.85358 0.61061 0.0
H1389 H 0.16469 0.91797 0.57565 0.0
H1390 H 0.18722 0.91816 0.60073 0.0
H1391 H 0.18774 0.8631 0.60085 0.0
H1392 H 0.16502 0.86279 0.57644 0.0
H1393 H 0.22166 0.87963 0.59905 0.0
H1394 H 0.1693 0.87916 0.63593 0.0
H1395 H 0.14073 0.88997 0.64474 0.0
H1396 H 0.16252 0.93837 0.66058 0.0
H1397 H 0.19121 0.92793 0.6515 0.0
C1398 C 0.26288 0.87208 0.68187 0.0
C1399 C 0.26645 0.88629 0.69382 0.0
C1400 C 0.25075 0.87312 0.66684 0.0
C1401 C 0.24197 0.88848 0.66306 0.0
C1402 C 0.24555 0.9027 0.67491 0.0
C1403 C 0.2576 0.90164 0.69004 0.0
C1404 C 0.22891 0.88964 0.64704 0.0
C1405 C 0.21258 0.89622 0.65129 0.0
C1406 C 0.23221 0.88379 0.6278 0.0
C1407 C 0.24946 0.87799 0.62173 0.0
C1408 C 0.26381 0.88853 0.62457 0.0
C1409 C 0.28005 0.88294 0.61899 0.0
C1410 C 0.2821 0.86688 0.6104 0.0
C1411 C 0.2679 0.8564 0.60733 0.0
C1412 C 0.25163 0.86191 0.61293 0.0
C1413 C 0.16953 0.90592 0.58113 0.0
C1414 C 0.16282 0.89038 0.57421 0.0
C1415 C 0.18245 0.90604 0.59541 0.0
C1416 C 0.18926 0.89062 0.60264 0.0
C1417 C 0.18278 0.87515 0.59548 0.0
C1418 C 0.16963 0.87502 0.58163 0.0
C1419 C 0.20274 0.8905 0.61811 0.0
C1420 C 0.21905 0.88408 0.61373 0.0
C1421 C 0.19951 0.89661 0.63716 0.0
C1422 C 0.18235 0.90284 0.64286 0.0
C1423 C 0.16797 0.89216 0.64113 0.0
C1424 C 0.15176 0.89821 0.64618 0.0
C1425 C 0.14981 0.91486 0.65317 0.0
C1426 C 0.16406 0.92549 0.65514 0.0
C1427 C 0.1803 0.91951 0.65004 0.0
H1428 H 0.13725 0.91952 0.6571 0.0
H1429 H 0.2947 0.86258 0.6061 0.0
H1430 H 0.34645 0.93371 0.80831 0.0
H1431 H 0.34724 0.95563 0.83393 0.0
H1432 H 0.37605 0.92153 0.87077 0.0
H1433 H 0.37562 0.89977 0.84513 0.0
H1434 H 0.34905 0.93585 0.89022 0.0
H1435 H 0.4 0.96055 0.859 0.0
H1436 H 0.41911 0.97538 0.83591 0.0
H1437 H 0.37756 0.00744 0.8175 0.0
H1438 H 0.35837 0.99304 0.84089 0.0
H1439 H 0.3755 0.99378 0.96471 0.0
H1440 H 0.37319 0.97272 0.93865 0.0
H1441 H 0.34927 0.01035 0.90168 0.0
H1442 H 0.3523 0.03175 0.92735 0.0
H1443 H 0.37239 0.99429 0.88207 0.0
H1444 H 0.32694 0.97537 0.92331 0.0
H1445 H 0.31356 0.96584 0.95399 0.0
H1446 H 0.34753 0.92276 0.95624 0.0
H1447 H 0.3613 0.93221 0.92574 0.0
C1448 C 0.35284 0.93084 0.82193 0.0
C1449 C 0.36076 0.91485 0.82476 0.0
C1450 C 0.3535 0.94349 0.83648 0.0
C1451 C 0.36183 0.94035 0.8543 0.0
C1452 C 0.36961 0.92435 0.85716 0.0
C1453 C 0.36928 0.91186 0.8425 0.0
C1454 C 0.36147 0.95321 0.87044 0.0
C1455 C 0.3543 0.94859 0.88845 0.0
C1456 C 0.36786 0.96999 0.86829 0.0
C1457 C 0.37773 0.97548 0.8512 0.0
C1458 C 0.39487 0.97042 0.84957 0.0
C1459 C 0.40578 0.97898 0.83676 0.0
C1460 C 0.39959 0.99242 0.82536 0.0
C1461 C 0.38236 0.99706 0.82637 0.0
C1462 C 0.37146 0.98871 0.83938 0.0
C1463 C 0.36984 0.99768 0.95102 0.0
C1464 C 0.36414 0.01462 0.94826 0.0
C1465 C 0.36827 0.98547 0.93617 0.0
C1466 C 0.36076 0.98975 0.9182 0.0
C1467 C 0.35498 0.0066 0.91542 0.0
C1468 C 0.35662 0.01885 0.93023 0.0
C1469 C 0.35994 0.97704 0.90187 0.0
C1470 C 0.36686 0.98166 0.88381 0.0
C1471 C 0.35344 0.96024 0.90412 0.0
C1472 C 0.34524 0.95459 0.92241 0.0
C1473 C 0.33164 0.96395 0.93046 0.0
C1474 C 0.32398 0.95855 0.94779 0.0
C1475 C 0.32972 0.94373 0.95709 0.0
C1476 C 0.34312 0.93425 0.94905 0.0
C1477 C 0.35085 0.93962 0.93175 0.0
H1478 H 0.32376 0.93956 0.97052 0.0
H1479 H 0.40815 0.9992 0.8157 0.0
H1480 H 0.32536 0.91077 0.4549 0.0
H1481 H 0.30331 0.91041 0.42961 0.0
H1482 H 0.33188 0.87245 0.39779 0.0
H1483 H 0.35396 0.87267 0.42305 0.0
H1484 H 0.31973 0.89718 0.37372 0.0
H1485 H 0.29689 0.86077 0.42304 0.0
H1486 H 0.28663 0.8517 0.4554 0.0
H1487 H 0.25004 0.89258 0.45553 0.0
H1488 H 0.26017 0.90199 0.42323 0.0
H1489 H 0.25573 0.86947 0.30801 0.0
H1490 H 0.27737 0.87123 0.33347 0.0
H1491 H 0.24565 0.90636 0.36565 0.0
H1492 H 0.22351 0.90407 0.3406 0.0
H1493 H 0.25932 0.88406 0.38977 0.0
H1494 H 0.28171 0.91968 0.33934 0.0
H1495 H 0.29101 0.9271 0.30604 0.0
H1496 H 0.32859 0.8871 0.30778 0.0
H1497 H 0.3193 0.87927 0.34097 0.0
C1498 C 0.32709 0.90248 0.44242 0.0
C1499 C 0.34155 0.89182 0.44099 0.0
C1500 C 0.31435 0.90217 0.42805 0.0
C1501 C 0.3158 0.89127 0.41186 0.0
C1502 C 0.33042 0.88094 0.41015 0.0
C1503 C 0.34307 0.88109 0.42462 0.0
C1504 C 0.30216 0.8907 0.39663 0.0
C1505 C 0.30656 0.89412 0.37723 0.0
C1506 C 0.28485 0.88716 0.40111 0.0
C1507 C 0.27941 0.88219 0.42091 0.0
C1508 C 0.28683 0.86798 0.43014 0.0
C1509 C 0.28099 0.86274 0.44842 0.0
C1510 C 0.26768 0.87157 0.45753 0.0
C1511 C 0.26032 0.88577 0.44848 0.0
C1512 C 0.2661 0.89106 0.43018 0.0
C1513 C 0.25319 0.87745 0.32058 0.0
C1514 C 0.23774 0.88662 0.32212 0.0
C1515 C 0.26575 0.87862 0.33506 0.0
C1516 C 0.26337 0.88918 0.35141 0.0
C1517 C 0.24791 0.89822 0.35314 0.0
C1518 C 0.23529 0.897 0.33868 0.0
C1519 C 0.27688 0.89052 0.36679 0.0
C1520 C 0.27246 0.88725 0.38625 0.0
C1521 C 0.29419 0.89419 0.36236 0.0
C1522 C 0.2997 0.89879 0.34246 0.0
C1523 C 0.29185 0.91238 0.33252 0.0
C1524 C 0.29713 0.91667 0.31369 0.0
C1525 C 0.31035 0.90754 0.30477 0.0
C1526 C 0.31834 0.89413 0.31468 0.0
C1527 C 0.31307 0.88977 0.33349 0.0
H1528 H 0.31443 0.91089 0.29019 0.0
H1529 H 0.26294 0.86729 0.47149 0.0
H1530 H 0.3592 0.00926 0.55099 0.0
H1531 H 0.35729 0.03075 0.57664 0.0
H1532 H 0.36663 0.99195 0.62003 0.0
H1533 H 0.36856 0.97031 0.59437 0.0
H1534 H 0.34316 0.01244 0.63306 0.0
H1535 H 0.39812 0.02117 0.60477 0.0
H1536 H 0.41912 0.02646 0.57864 0.0
H1537 H 0.39477 0.07426 0.56532 0.0
H1538 H 0.37346 0.0691 0.59117 0.0
H1539 H 0.38907 0.0867 0.68929 0.0
H1540 H 0.38753 0.06503 0.66401 0.0
H1541 H 0.33248 0.0679 0.66503 0.0
H1542 H 0.33398 0.08907 0.69135 0.0
H1543 H 0.37783 0.06534 0.62942 0.0
H1544 H 0.31583 0.04181 0.65236 0.0
H1545 H 0.29773 0.03098 0.67919 0.0
H1546 H 0.34152 0.00707 0.70531 0.0
H1547 H 0.35994 0.01855 0.67917 0.0
C1548 C 0.36101 0.00525 0.56596 0.0
C1549 C 0.36421 0.98795 0.57047 0.0
C1550 C 0.35989 0.01762 0.58068 0.0
C1551 C 0.3621 0.01314 0.60037 0.0
C1552 C 0.3649 0.99583 0.60499 0.0
C1553 C 0.36595 0.98341 0.59026 0.0
C1554 C 0.36153 0.02647 0.61608 0.0
C1555 C 0.35075 0.02402 0.63217 0.0
C1556 C 0.37145 0.04161 0.6153 0.0
C1557 C 0.38409 0.04464 0.59967 0.0
C1558 C 0.39716 0.03272 0.59612 0.0
C1559 C 0.40913 0.03571 0.58139 0.0
C1560 C 0.40825 0.05066 0.57028 0.0
C1561 C 0.39541 0.06267 0.5739 0.0
C1562 C 0.38338 0.05971 0.58857 0.0
C1563 C 0.37658 0.08279 0.68416 0.0
C1564 C 0.36164 0.08973 0.6924 0.0
C1565 C 0.37571 0.07024 0.66967 0.0
C1566 C 0.35988 0.06433 0.66268 0.0
C1567 C 0.34488 0.07158 0.67053 0.0
C1568 C 0.34574 0.084 0.68537 0.0
C1569 C 0.35947 0.05134 0.64653 0.0
C1570 C 0.3701 0.05386 0.63025 0.0
C1571 C 0.34971 0.0361 0.64733 0.0
C1572 C 0.33924 0.03145 0.66429 0.0
C1573 C 0.3216 0.03465 0.66418 0.0
C1574 C 0.31131 0.02839 0.67922 0.0
C1575 C 0.3185 0.01846 0.69405 0.0
C1576 C 0.33601 0.01494 0.69397 0.0
C1577 C 0.34641 0.02154 0.67923 0.0
H1578 H 0.31049 0.01344 0.70558 0.0
H1579 H 0.41754 0.05296 0.55889 0.0
H1580 H 0.17929 0.09732 0.95759 0.0
H1581 H 0.20167 0.09898 0.93256 0.0
H1582 H 0.16568 0.1215 0.89251 0.0
H1583 H 0.1434 0.1205 0.91779 0.0
H1584 H 0.18703 0.0939 0.87664 0.0
H1585 H 0.19007 0.14589 0.911 0.0
H1586 H 0.19267 0.16548 0.93886 0.0
H1587 H 0.24346 0.14722 0.94984 0.0
H1588 H 0.24076 0.12667 0.92274 0.0
H1589 H 0.24487 0.1222 0.80368 0.0
H1590 H 0.22259 0.12079 0.82846 0.0
H1591 H 0.2603 0.10831 0.872 0.0
H1592 H 0.28289 0.11035 0.84734 0.0
H1593 H 0.23773 0.13104 0.88615 0.0
H1594 H 0.23296 0.07763 0.85178 0.0
H1595 H 0.22957 0.05932 0.82279 0.0
H1596 H 0.18141 0.0832 0.8101 0.0
H1597 H 0.18465 0.10183 0.83884 0.0
C1598 C 0.17606 0.10237 0.94334 0.0
C1599 C 0.15949 0.10856 0.93955 0.0
C1600 C 0.18892 0.10345 0.92911 0.0
C1601 C 0.1854 0.11041 0.91065 0.0
C1602 C 0.16871 0.11607 0.90663 0.0
C1603 C 0.15597 0.11546 0.92105 0.0
C1604 C 0.19919 0.11197 0.89567 0.0
C1605 C 0.19803 0.10216 0.87866 0.0
C1606 C 0.21367 0.12259 0.89832 0.0
C1607 C 0.21506 0.1344 0.91513 0.0
C1608 C 0.20162 0.14565 0.91968 0.0
C1609 C 0.20312 0.15696 0.93534 0.0
C1610 C 0.21817 0.15745 0.94624 0.0
C1611 C 0.23174 0.14664 0.94152 0.0
C1612 C 0.23019 0.13507 0.92612 0.0
C1613 C 0.24856 0.11933 0.81854 0.0
C1614 C 0.26584 0.11642 0.82336 0.0
C1615 C 0.23569 0.11832 0.83272 0.0
C1616 C 0.23961 0.11416 0.85215 0.0
C1617 C 0.25684 0.11143 0.85713 0.0
C1618 C 0.26978 0.11246 0.84292 0.0
C1619 C 0.22573 0.11276 0.8672 0.0
C1620 C 0.22682 0.12266 0.88422 0.0
C1621 C 0.21107 0.10237 0.8645 0.0
C1622 C 0.20914 0.09121 0.84729 0.0
C1623 C 0.22172 0.07905 0.8427 0.0
C1624 C 0.21981 0.06861 0.82633 0.0
C1625 C 0.20531 0.07013 0.81458 0.0
C1626 C 0.19265 0.08206 0.81919 0.0
C1627 C 0.19451 0.09256 0.8355 0.0
H1628 H 0.20385 0.06203 0.80191 0.0
H1629 H 0.21937 0.1663 0.95828 0.0
H1630 H 0.14726 0.93255 0.21089 0.0
H1631 H 0.14605 0.95457 0.18534 0.0
H1632 H 0.13776 0.91557 0.14204 0.0
H1633 H 0.13813 0.89355 0.16772 0.0
H1634 H 0.16707 0.94744 0.1386 0.0
H1635 H 0.10716 0.92989 0.14414 0.0
H1636 H 0.08124 0.92398 0.16343 0.0
H1637 H 0.08183 0.97536 0.18541 0.0
H1638 H 0.10805 0.9814 0.1666 0.0
H1639 H 0.14777 0.99467 0.05369 0.0
H1640 H 0.14928 0.97342 0.07954 0.0
H1641 H 0.12696 0.00927 0.11991 0.0
H1642 H 0.12457 0.03044 0.09373 0.0
H1643 H 0.1134 0.97944 0.12623 0.0
H1644 H 0.17071 0.99864 0.12016 0.0
H1645 H 0.19781 0.00587 0.10376 0.0
H1646 H 0.20359 0.95369 0.08556 0.0
H1647 H 0.17638 0.94621 0.10159 0.0
C1648 C 0.14536 0.92867 0.19588 0.0
C1649 C 0.14296 0.91132 0.19122 0.0
C1650 C 0.14458 0.94126 0.18133 0.0
C1651 C 0.14177 0.93672 0.16179 0.0
C1652 C 0.13987 0.91936 0.15703 0.0
C1653 C 0.14012 0.9068 0.17167 0.0
C1654 C 0.14064 0.95017 0.14642 0.0
C1655 C 0.15529 0.95427 0.13565 0.0
C1656 C 0.12548 0.95956 0.14312 0.0
C1657 C 0.10971 0.95598 0.15428 0.0
C1658 C 0.10192 0.93983 0.15333 0.0
C1659 C 0.08714 0.93648 0.16412 0.0
C1660 C 0.07993 0.94927 0.17572 0.0
C1661 C 0.08746 0.96545 0.17649 0.0
C1662 C 0.10229 0.96884 0.16578 0.0
C1663 C 0.14299 0.99809 0.06798 0.0
C1664 C 0.13598 0.01442 0.07144 0.0
C1665 C 0.14409 0.98591 0.08291 0.0
C1666 C 0.13849 0.9897 0.10191 0.0
C1667 C 0.13146 0.00596 0.10546 0.0
C1668 C 0.13026 0.01817 0.09046 0.0
C1669 C 0.13981 0.97659 0.11785 0.0
C1670 C 0.12523 0.97262 0.12896 0.0
C1671 C 0.15514 0.96746 0.12163 0.0
C1672 C 0.17143 0.97191 0.11189 0.0
C1673 C 0.17769 0.98875 0.1125 0.0
C1674 C 0.19308 0.99288 0.1033 0.0
C1675 C 0.20239 0.98026 0.09358 0.0
C1676 C 0.19635 0.96346 0.09307 0.0
C1677 C 0.18095 0.95926 0.10221 0.0
H1678 H 0.21432 0.98348 0.08647 0.0
H1679 H 0.06847 0.94665 0.18405 0.0
H1680 H 0.78414 0.88761 0.84838 0.0
H1681 H 0.76261 0.89053 0.87413 0.0
H1682 H 0.72258 0.88752 0.8311 0.0
H1683 H 0.74395 0.88497 0.80533 0.0
H1684 H 0.71506 0.91185 0.85706 0.0
H1685 H 0.734 0.8531 0.8601 0.0
H1686 H 0.75536 0.83013 0.8636 0.0
H1687 H 0.76883 0.84888 0.9204 0.0
H1688 H 0.74775 0.87215 0.91708 0.0
H1689 H 0.65183 0.87016 0.92707 0.0
H1690 H 0.67486 0.87004 0.90293 0.0
H1691 H 0.69559 0.916 0.92805 0.0
H1692 H 0.67255 0.91634 0.95225 0.0
H1693 H 0.71316 0.87078 0.91219 0.0
H1694 H 0.70201 0.93607 0.89898 0.0
H1695 H 0.67966 0.9582 0.89575 0.0
H1696 H 0.65027 0.92469 0.85921 0.0
H1697 H 0.67241 0.90233 0.86251 0.0
C1698 C 0.77077 0.88769 0.84434 0.0
C1699 C 0.76589 0.88587 0.82466 0.0
C1700 C 0.75842 0.88926 0.85915 0.0
C1701 C 0.74085 0.88909 0.85468 0.0
C1702 C 0.73599 0.88765 0.83503 0.0
C1703 C 0.74829 0.88601 0.82027 0.0
C1704 C 0.72747 0.89014 0.87034 0.0
C1705 C 0.71481 0.90287 0.86911 0.0
C1706 C 0.72687 0.87851 0.88623 0.0
C1707 C 0.73943 0.86446 0.88826 0.0
C1708 C 0.74161 0.8524 0.87327 0.0
C1709 C 0.75366 0.83932 0.87522 0.0
C1710 C 0.76349 0.83808 0.89218 0.0
C1711 C 0.76125 0.84988 0.90724 0.0
C1712 C 0.74925 0.86302 0.90534 0.0
C1713 C 0.66112 0.88042 0.92736 0.0
C1714 C 0.66009 0.8934 0.94156 0.0
C1715 C 0.67437 0.88025 0.91358 0.0
C1716 C 0.68694 0.89304 0.91356 0.0
C1717 C 0.68593 0.9061 0.92757 0.0
C1718 C 0.67266 0.9063 0.94139 0.0
C1719 C 0.70112 0.8926 0.89894 0.0
C1720 C 0.71373 0.87988 0.90027 0.0
C1721 C 0.70184 0.90426 0.88325 0.0
C1722 C 0.68875 0.91764 0.88099 0.0
C1723 C 0.69076 0.93349 0.89027 0.0
C1724 C 0.67814 0.94602 0.88847 0.0
C1725 C 0.66355 0.94285 0.87728 0.0
C1726 C 0.66156 0.92712 0.86788 0.0
C1727 C 0.67412 0.91451 0.86974 0.0
H1728 H 0.6538 0.95258 0.87587 0.0
H1729 H 0.7728 0.82794 0.89366 0.0
H1730 H 0.88833 0.00227 0.56712 0.0
H1731 H 0.88554 0.98072 0.59258 0.0
H1732 H 0.84065 0.00619 0.61455 0.0
H1733 H 0.84322 0.02781 0.58887 0.0
H1734 H 0.86002 0.99593 0.6441 0.0
H1735 H 0.83784 0.96877 0.58745 0.0
H1736 H 0.83772 0.95882 0.55336 0.0
H1737 H 0.8821 0.92802 0.56452 0.0
H1738 H 0.88264 0.93802 0.59861 0.0
H1739 H 0.83739 0.92509 0.70596 0.0
H1740 H 0.83697 0.94773 0.68122 0.0
H1741 H 0.88104 0.92527 0.65347 0.0
H1742 H 0.88133 0.90257 0.67774 0.0
H1743 H 0.85984 0.93442 0.62681 0.0
H1744 H 0.88227 0.96251 0.6837 0.0
H1745 H 0.8828 0.9739 0.71725 0.0
H1746 H 0.83757 0.00326 0.70557 0.0
H1747 H 0.8366 0.99183 0.67208 0.0
C1748 C 0.87772 0.00328 0.57718 0.0
C1749 C 0.86588 0.01681 0.57561 0.0
C1750 C 0.87616 0.99088 0.59184 0.0
C1751 C 0.86268 0.99152 0.60537 0.0
C1752 C 0.85113 0.00528 0.60428 0.0
C1753 C 0.85267 0.01773 0.58958 0.0
C1754 C 0.86072 0.97784 0.62057 0.0
C1755 C 0.8597 0.98248 0.64027 0.0
C1756 C 0.86061 0.96022 0.61583 0.0
C1757 C 0.86039 0.95428 0.59543 0.0
C1758 C 0.84766 0.95999 0.58255 0.0
C1759 C 0.8475 0.95433 0.56326 0.0
C1760 C 0.85993 0.94284 0.55676 0.0
C1761 C 0.87251 0.93695 0.56956 0.0
C1762 C 0.87275 0.94261 0.58886 0.0
C1763 C 0.84687 0.92485 0.69446 0.0
C1764 C 0.85934 0.91185 0.69388 0.0
C1765 C 0.84674 0.93797 0.68041 0.0
C1766 C 0.85914 0.93849 0.66552 0.0
C1767 C 0.87133 0.92531 0.66474 0.0
C1768 C 0.87146 0.91224 0.6787 0.0
C1769 C 0.85941 0.95244 0.65046 0.0
C1770 C 0.86009 0.94785 0.63071 0.0
C1771 C 0.85915 0.97008 0.6552 0.0
C1772 C 0.85924 0.97617 0.67555 0.0
C1773 C 0.8723 0.9712 0.68841 0.0
C1774 C 0.87272 0.97771 0.70736 0.0
C1775 C 0.86024 0.98931 0.71345 0.0
C1776 C 0.84721 0.99428 0.70077 0.0
C1777 C 0.84671 0.98778 0.68184 0.0
H1778 H 0.8607 0.99456 0.72795 0.0
H1779 H 0.85977 0.93846 0.5418 0.0
H1780 H 0.75888 0.12384 0.30536 0.0
H1781 H 0.78016 0.12167 0.33114 0.0
H1782 H 0.74111 0.1058 0.37167 0.0
H1783 H 0.7195 0.10869 0.34606 0.0
H1784 H 0.76175 0.12773 0.38884 0.0
H1785 H 0.77042 0.0771 0.35167 0.0
H1786 H 0.77546 0.05975 0.32223 0.0
H1787 H 0.82306 0.08573 0.31246 0.0
H1788 H 0.81815 0.10343 0.34167 0.0
H1789 H 0.82156 0.09594 0.46 0.0
H1790 H 0.79935 0.09662 0.43477 0.0
H1791 H 0.83388 0.1229 0.39601 0.0
H1792 H 0.85598 0.1227 0.42138 0.0
H1793 H 0.81517 0.09475 0.37871 0.0
H1794 H 0.80632 0.14493 0.41686 0.0
H1795 H 0.80091 0.16195 0.44641 0.0
H1796 H 0.75291 0.13634 0.45464 0.0
H1797 H 0.75831 0.11875 0.42541 0.0
C1798 C 0.75469 0.12006 0.31978 0.0
C1799 C 0.73734 0.11647 0.3235 0.0
C1800 C 0.76699 0.1186 0.33451 0.0
C1801 C 0.76239 0.11328 0.35337 0.0
C1802 C 0.74507 0.10983 0.35724 0.0
C1803 C 0.73271 0.11134 0.34249 0.0
C1804 C 0.77563 0.11158 0.36902 0.0
C1805 C 0.77327 0.12025 0.38671 0.0
C1806 C 0.79093 0.10217 0.36627 0.0
C1807 C 0.79383 0.09168 0.34867 0.0
C1808 C 0.78188 0.07921 0.34312 0.0
C1809 C 0.78472 0.0693 0.3265 0.0
C1810 C 0.79955 0.07167 0.31545 0.0
C1811 C 0.81157 0.08393 0.32101 0.0
C1812 C 0.80877 0.0939 0.33758 0.0
C1813 C 0.82452 0.1016 0.44598 0.0
C1814 C 0.84062 0.10909 0.44258 0.0
C1815 C 0.81175 0.10212 0.43165 0.0
C1816 C 0.81491 0.10988 0.41353 0.0
C1817 C 0.83115 0.11686 0.40988 0.0
C1818 C 0.84378 0.1167 0.42436 0.0
C1819 C 0.80125 0.11089 0.39842 0.0
C1820 C 0.80357 0.10211 0.38084 0.0
C1821 C 0.78588 0.1201 0.40137 0.0
C1822 C 0.78288 0.13029 0.4192 0.0
C1823 C 0.79477 0.14268 0.42517 0.0
C1824 C 0.79167 0.15249 0.44181 0.0
C1825 C 0.77658 0.15022 0.45239 0.0
C1826 C 0.7646 0.13806 0.44642 0.0
C1827 C 0.76771 0.12812 0.42988 0.0
H1828 H 0.77418 0.15785 0.46525 0.0
H1829 H 0.80173 0.06397 0.30259 0.0
H1830 H 0.64076 0.97007 0.09697 0.0
H1831 H 0.64334 0.99178 0.12246 0.0
H1832 H 0.63291 0.03124 0.08019 0.0
H1833 H 0.63112 0.00977 0.05456 0.0
H1834 H 0.65716 0.0419 0.10251 0.0
H1835 H 0.60261 0.01629 0.11451 0.0
H1836 H 0.58207 0.99311 0.12112 0.0
H1837 H 0.60838 0.98101 0.17432 0.0
H1838 H 0.62924 0.00396 0.16787 0.0
H1839 H 0.62891 0.10744 0.17007 0.0
H1840 H 0.62861 0.08478 0.14528 0.0
H1841 H 0.65754 0.05206 0.18356 0.0
H1842 H 0.65846 0.07483 0.20808 0.0
H1843 H 0.62459 0.0378 0.16442 0.0
H1844 H 0.67933 0.06351 0.15154 0.0
H1845 H 0.69865 0.08778 0.14527 0.0
H1846 H 0.67028 0.1005 0.09366 0.0
H1847 H 0.65061 0.07643 0.09983 0.0
C1848 C 0.63918 0.98337 0.09302 0.0
C1849 C 0.63563 0.98803 0.07358 0.0
C1850 C 0.64047 0.99582 0.10772 0.0
C1851 C 0.63811 0.01327 0.10343 0.0
C1852 C 0.63475 0.01794 0.08402 0.0
C1853 C 0.63354 0.00554 0.06933 0.0
C1854 C 0.63924 0.02672 0.119 0.0
C1855 C 0.64986 0.04099 0.11592 0.0
C1856 C 0.63001 0.02563 0.13679 0.0
C1857 C 0.6176 0.01171 0.14059 0.0
C1858 C 0.60411 0.00858 0.12752 0.0
C1859 C 0.5924 0.9955 0.13126 0.0
C1860 C 0.59395 0.98556 0.1481 0.0
C1861 C 0.60722 0.98869 0.16126 0.0
C1862 C 0.61899 0.00174 0.15757 0.0
C1863 C 0.63543 0.09552 0.17308 0.0
C1864 C 0.64392 0.09307 0.19094 0.0
C1865 C 0.63517 0.08254 0.15895 0.0
C1866 C 0.64299 0.06668 0.1626 0.0
C1867 C 0.65141 0.06417 0.18044 0.0
C1868 C 0.65208 0.07729 0.19435 0.0
C1869 C 0.6424 0.05277 0.14775 0.0
C1870 C 0.63188 0.03853 0.15099 0.0
C1871 C 0.6516 0.05391 0.13006 0.0
C1872 C 0.66341 0.0683 0.12625 0.0
C1873 C 0.67711 0.07159 0.13896 0.0
C1874 C 0.68815 0.08529 0.13541 0.0
C1875 C 0.68567 0.09571 0.1191 0.0
C1876 C 0.67217 0.09243 0.1063 0.0
C1877 C 0.66108 0.07876 0.10981 0.0
H1878 H 0.69423 0.1063 0.11636 0.0
H1879 H 0.58485 0.97545 0.15098 0.0
H1880 H 0.78268 0.12766 0.67553 0.0
H1881 H 0.76226 0.12602 0.64858 0.0
H1882 H 0.72735 0.09781 0.6851 0.0
H1883 H 0.74793 0.09877 0.7118 0.0
H1884 H 0.72777 0.08444 0.64947 0.0
H1885 H 0.72225 0.14174 0.67558 0.0
H1886 H 0.73295 0.17014 0.68527 0.0
H1887 H 0.75069 0.1791 0.62687 0.0
H1888 H 0.74026 0.15066 0.6169 0.0
H1889 H 0.65297 0.09365 0.59063 0.0
H1890 H 0.6744 0.0929 0.61674 0.0
H1891 H 0.70575 0.12842 0.58432 0.0
H1892 H 0.68378 0.13009 0.55918 0.0
H1893 H 0.70756 0.13784 0.61812 0.0
H1894 H 0.71393 0.0818 0.59087 0.0
H1895 H 0.70452 0.05332 0.57986 0.0
H1896 H 0.6874 0.04142 0.63781 0.0
H1897 H 0.69654 0.06992 0.64911 0.0
C1898 C 0.77077 0.1209 0.67779 0.0
C1899 C 0.76699 0.11347 0.69601 0.0
C1900 C 0.75899 0.12013 0.66238 0.0
C1901 C 0.74307 0.11203 0.66483 0.0
C1902 C 0.73946 0.10423 0.68281 0.0
C1903 C 0.75122 0.10495 0.69818 0.0
C1904 C 0.73005 0.11184 0.64885 0.0
C1905 C 0.72323 0.09613 0.64272 0.0
C1906 C 0.72438 0.12698 0.63959 0.0
C1907 C 0.7306 0.14406 0.64556 0.0
C1908 C 0.72852 0.14974 0.66485 0.0
C1909 C 0.73452 0.16584 0.67038 0.0
C1910 C 0.74252 0.17641 0.6567 0.0
C1911 C 0.74451 0.1709 0.63745 0.0
C1912 C 0.73854 0.15481 0.63185 0.0
C1913 C 0.66448 0.10122 0.58917 0.0
C1914 C 0.66667 0.11202 0.57302 0.0
C1915 C 0.67685 0.10071 0.60402 0.0
C1916 C 0.69199 0.11044 0.60259 0.0
C1917 C 0.69424 0.12088 0.58607 0.0
C1918 C 0.68167 0.1218 0.57162 0.0
C1919 C 0.70528 0.11036 0.61841 0.0
C1920 C 0.71212 0.12606 0.62465 0.0
C1921 C 0.71119 0.09516 0.62748 0.0
C1922 C 0.70577 0.07802 0.62077 0.0
C1923 C 0.70807 0.07314 0.60122 0.0
C1924 C 0.70279 0.05699 0.59494 0.0
C1925 C 0.69532 0.04559 0.60812 0.0
C1926 C 0.69316 0.05028 0.62762 0.0
C1927 C 0.6984 0.06641 0.63398 0.0
H1928 H 0.69124 0.03309 0.60322 0.0
H1929 H 0.74716 0.18887 0.66102 0.0
H1930 H 0.66506 0.02419 0.43295 0.0
H1931 H 0.6665 0.00232 0.40755 0.0
H1932 H 0.61724 0.98314 0.42528 0.0
H1933 H 0.61555 0.00507 0.45044 0.0
H1934 H 0.63843 0.9573 0.42031 0.0
H1935 H 0.62342 0.00689 0.38309 0.0
H1936 H 0.62642 0.03628 0.37057 0.0
H1937 H 0.67507 0.02343 0.34554 0.0
H1938 H 0.6725 0.99404 0.35823 0.0
H1939 H 0.61936 0.90324 0.34097 0.0
H1940 H 0.61997 0.9258 0.36532 0.0
H1941 H 0.66861 0.94309 0.34324 0.0
H1942 H 0.66782 0.92075 0.31823 0.0
H1943 H 0.64932 0.96981 0.35049 0.0
H1944 H 0.66429 0.9202 0.38746 0.0
H1945 H 0.66092 0.89059 0.39918 0.0
H1946 H 0.6123 0.90345 0.42428 0.0
H1947 H 0.61528 0.93309 0.41246 0.0
C1948 C 0.65438 0.01552 0.43131 0.0
C1949 C 0.6402 0.01651 0.44397 0.0
C1950 C 0.65526 0.00292 0.41674 0.0
C1951 C 0.64196 0.99099 0.41435 0.0
C1952 C 0.62775 0.99204 0.42683 0.0
C1953 C 0.62684 0.00463 0.44134 0.0
C1954 C 0.64291 0.97718 0.3992 0.0
C1955 C 0.64063 0.96011 0.40502 0.0
C1956 C 0.64622 0.98063 0.37925 0.0
C1957 C 0.64785 0.99833 0.37179 0.0
C1958 C 0.63484 0.01038 0.37509 0.0
C1959 C 0.63645 0.02703 0.36794 0.0
C1960 C 0.65095 0.03173 0.35732 0.0
C1961 C 0.66387 0.01979 0.35382 0.0
C1962 C 0.66234 0.00314 0.36099 0.0
C1963 C 0.63034 0.91166 0.34136 0.0
C1964 C 0.64366 0.90991 0.32769 0.0
C1965 C 0.63068 0.92463 0.35541 0.0
C1966 C 0.64446 0.93612 0.35646 0.0
C1967 C 0.65783 0.93441 0.34287 0.0
C1968 C 0.65745 0.92148 0.32865 0.0
C1969 C 0.64474 0.94996 0.37161 0.0
C1970 C 0.64724 0.96702 0.3658 0.0
C1971 C 0.64166 0.94653 0.39161 0.0
C1972 C 0.63998 0.92882 0.39902 0.0
C1973 C 0.65285 0.91669 0.39542 0.0
C1974 C 0.65101 0.89991 0.40207 0.0
C1975 C 0.6364 0.89514 0.41246 0.0
C1976 C 0.62361 0.90716 0.41624 0.0
C1977 C 0.62538 0.92396 0.40959 0.0
H1978 H 0.63499 0.88214 0.4176 0.0
H1979 H 0.65216 0.04462 0.35174 0.0
H1980 H 0.84737 0.86576 0.08874 0.0
H1981 H 0.82455 0.86538 0.11289 0.0
H1982 H 0.80961 0.91627 0.09587 0.0
H1983 H 0.83253 0.91679 0.07145 0.0
H1984 H 0.81011 0.91236 0.13572 0.0
H1985 H 0.78389 0.8818 0.08178 0.0
H1986 H 0.7815 0.85945 0.05651 0.0
H1987 H 0.78919 0.82053 0.09966 0.0
H1988 H 0.79119 0.84256 0.1253 0.0
H1989 H 0.73231 0.91126 0.18967 0.0
H1990 H 0.7537 0.91354 0.16384 0.0
H1991 H 0.76643 0.86032 0.1714 0.0
H1992 H 0.74442 0.85769 0.19633 0.0
H1993 H 0.7665 0.86637 0.13518 0.0
H1994 H 0.79203 0.8948 0.18913 0.0
H1995 H 0.79452 0.9156 0.21596 0.0
H1996 H 0.79083 0.957 0.17501 0.0
H1997 H 0.78806 0.93641 0.14796 0.0
C1998 C 0.8394 0.877 0.09018 0.0
C1999 C 0.84197 0.89138 0.07814 0.0
C2000 C 0.82618 0.87667 0.10392 0.0
C2001 C 0.81513 0.89068 0.10604 0.0
C2002 C 0.81789 0.90525 0.09445 0.0
C2003 C 0.83108 0.90556 0.08053 0.0
C2004 C 0.80092 0.89013 0.12061 0.0
C2005 C 0.80038 0.90248 0.13539 0.0
C2006 C 0.78855 0.87693 0.12074 0.0
C2007 C 0.78789 0.86378 0.10534 0.0
C2008 C 0.78522 0.86847 0.08581 0.0
C2009 C 0.7839 0.85589 0.07145 0.0
C2010 C 0.78541 0.83864 0.07641 0.0
C2011 C 0.78809 0.8339 0.09581 0.0
C2012 C 0.78922 0.84641 0.11028 0.0
C2013 C 0.73946 0.89996 0.18568 0.0
C2014 C 0.73659 0.8843 0.19532 0.0
C2015 C 0.75193 0.90135 0.17103 0.0
C2016 C 0.76204 0.8872 0.1658 0.0
C2017 C 0.75896 0.8715 0.17514 0.0
C2018 C 0.74642 0.87006 0.18963 0.0
C2019 C 0.77565 0.88858 0.15048 0.0
C2020 C 0.77612 0.87636 0.13553 0.0
C2021 C 0.78815 0.90171 0.15045 0.0
C2022 C 0.78959 0.9141 0.16661 0.0
C2023 C 0.79157 0.90835 0.18589 0.0
C2024 C 0.79307 0.92009 0.20112 0.0
C2025 C 0.79277 0.93761 0.1972 0.0
C2026 C 0.79101 0.94343 0.17803 0.0
C2027 C 0.78947 0.93173 0.16275 0.0
H2028 H 0.79395 0.94669 0.20902 0.0
H2029 H 0.78441 0.82895 0.06522 0.0
H2030 H 0.83405 0.08538 0.82565 0.0
H2031 H 0.83418 0.063 0.85072 0.0
H2032 H 0.88806 0.07114 0.85992 0.0
H2033 H 0.88803 0.09353 0.83512 0.0
H2034 H 0.87995 0.03675 0.85636 0.0
H2035 H 0.86001 0.08564 0.8923 0.0
H2036 H 0.84091 0.11008 0.89858 0.0
H2037 H 0.79792 0.07611 0.90231 0.0
H2038 H 0.81675 0.05148 0.89571 0.0
H2039 H 0.89384 0.99009 0.94301 0.0
H2040 H 0.89165 0.01207 0.91799 0.0
H2041 H 0.83678 0.00703 0.9182 0.0
H2042 H 0.83879 0.98565 0.94412 0.0
H2043 H 0.84412 0.03927 0.91598 0.0
H2044 H 0.86293 0.99041 0.8809 0.0
H2045 H 0.88097 0.96545 0.8733 0.0
H2046 H 0.92457 0.99822 0.86631 0.0
H2047 H 0.90684 0.02336 0.87417 0.0
C2048 C 0.84589 0.08255 0.83315 0.0
C2049 C 0.86098 0.09146 0.82845 0.0
C2050 C 0.84595 0.06971 0.84748 0.0
C2051 C 0.86114 0.06535 0.85728 0.0
C2052 C 0.87619 0.07422 0.85259 0.0
C2053 C 0.8761 0.08717 0.83848 0.0
C2054 C 0.86145 0.0515 0.87232 0.0
C2055 C 0.87227 0.0374 0.86951 0.0
C2056 C 0.85104 0.052 0.8892 0.0
C2057 C 0.83975 0.06675 0.89334 0.0
C2058 C 0.84646 0.0834 0.89431 0.0
C2059 C 0.83569 0.09728 0.89794 0.0
C2060 C 0.81821 0.09465 0.9008 0.0
C2061 C 0.81147 0.07813 0.90006 0.0
C2062 C 0.82218 0.06421 0.89639 0.0
C2063 C 0.88125 0.99371 0.93795 0.0
C2064 C 0.8665 0.98597 0.94578 0.0
C2065 C 0.88003 0.00621 0.92336 0.0
C2066 C 0.86405 0.01117 0.91587 0.0
C2067 C 0.84929 0.00347 0.92361 0.0
C2068 C 0.85049 0.99104 0.93834 0.0
C2069 C 0.86278 0.02449 0.90017 0.0
C2070 C 0.85178 0.03852 0.90282 0.0
C2071 C 0.87287 0.02381 0.88299 0.0
C2072 C 0.88359 0.00875 0.87827 0.0
C2073 C 0.8764 0.99228 0.87788 0.0
C2074 C 0.88656 0.9781 0.87352 0.0
C2075 C 0.90391 0.98025 0.86936 0.0
C2076 C 0.91113 0.99658 0.86955 0.0
C2077 C 0.90103 0.0108 0.87395 0.0
H2078 H 0.91175 0.96925 0.86596 0.0
H2079 H 0.80989 0.10542 0.90363 0.0
H2080 H 0.71837 0.61554 0.67278 0.0
H2081 H 0.73973 0.61314 0.64682 0.0
H2082 H 0.77987 0.62211 0.68862 0.0
H2083 H 0.75872 0.62437 0.71458 0.0
H2084 H 0.78531 0.64069 0.65675 0.0
H2085 H 0.77023 0.58126 0.66916 0.0
H2086 H 0.75014 0.55703 0.67142 0.0
H2087 H 0.73561 0.56449 0.61163 0.0
H2088 H 0.75553 0.58886 0.6091 0.0
H2089 H 0.85745 0.62078 0.59975 0.0
H2090 H 0.83536 0.62129 0.62496 0.0
H2091 H 0.79833 0.60308 0.58315 0.0
H2092 H 0.8208 0.60124 0.55845 0.0
H2093 H 0.79016 0.58976 0.61415 0.0
H2094 H 0.8033 0.648 0.59985 0.0
H2095 H 0.82205 0.67304 0.59527 0.0
H2096 H 0.83761 0.67008 0.65522 0.0
H2097 H 0.81915 0.64488 0.66008 0.0
C2098 C 0.73175 0.61681 0.67653 0.0
C2099 C 0.7367 0.62022 0.69591 0.0
C2100 C 0.74399 0.61546 0.66161 0.0
C2101 C 0.76153 0.61733 0.66569 0.0
C2102 C 0.76647 0.6207 0.68499 0.0
C2103 C 0.75428 0.62206 0.69987 0.0
C2104 C 0.7748 0.61598 0.65 0.0
C2105 C 0.78647 0.62946 0.64757 0.0
C2106 C 0.77604 0.60167 0.63743 0.0
C2107 C 0.76421 0.58696 0.639 0.0
C2108 C 0.76267 0.57778 0.65654 0.0
C2109 C 0.75134 0.56402 0.65786 0.0
C2110 C 0.74157 0.55926 0.64169 0.0
C2111 C 0.74316 0.56821 0.62415 0.0
C2112 C 0.75447 0.58198 0.62276 0.0
C2113 C 0.84464 0.61667 0.59607 0.0
C2114 C 0.8409 0.61087 0.57719 0.0
C2115 C 0.83189 0.61718 0.61043 0.0
C2116 C 0.81486 0.61271 0.60601 0.0
C2117 C 0.81124 0.60663 0.58714 0.0
C2118 C 0.82413 0.60556 0.57297 0.0
C2119 C 0.80086 0.61444 0.62092 0.0
C2120 C 0.78903 0.60106 0.62321 0.0
C2121 C 0.79917 0.62907 0.63302 0.0
C2122 C 0.80995 0.64448 0.63029 0.0
C2123 C 0.81076 0.65267 0.61204 0.0
C2124 C 0.82134 0.66688 0.60939 0.0
C2125 C 0.83105 0.67311 0.62493 0.0
C2126 C 0.83011 0.66522 0.64319 0.0
C2127 C 0.81957 0.65099 0.64591 0.0
H2128 H 0.83929 0.68405 0.62283 0.0
H2129 H 0.73281 0.5486 0.64275 0.0
H2130 H 0.64496 0.56887 0.80425 0.0
H2131 H 0.64346 0.54644 0.82938 0.0
H2132 H 0.64168 0.58506 0.87413 0.0
H2133 H 0.6423 0.60749 0.84898 0.0
H2134 H 0.66712 0.55462 0.87818 0.0
H2135 H 0.60854 0.57059 0.86878 0.0
H2136 H 0.58161 0.57558 0.8511 0.0
H2137 H 0.58073 0.52306 0.83303 0.0
H2138 H 0.608 0.5179 0.85007 0.0
H2139 H 0.64524 0.50817 0.96294 0.0
H2140 H 0.64707 0.52903 0.93667 0.0
H2141 H 0.62984 0.49108 0.89559 0.0
H2142 H 0.62725 0.47021 0.92208 0.0
H2143 H 0.61444 0.52049 0.88835 0.0
H2144 H 0.67248 0.50408 0.89835 0.0
H2145 H 0.69888 0.49869 0.91698 0.0
H2146 H 0.70072 0.55146 0.93401 0.0
H2147 H 0.67417 0.5571 0.91574 0.0
C2148 C 0.6445 0.57253 0.81948 0.0
C2149 C 0.64404 0.5899 0.82477 0.0
C2150 C 0.6435 0.55973 0.83379 0.0
C2151 C 0.64243 0.56408 0.85363 0.0
C2152 C 0.64249 0.58142 0.85892 0.0
C2153 C 0.64292 0.59421 0.8446 0.0
C2154 C 0.64124 0.55054 0.86887 0.0
C2155 C 0.65555 0.54726 0.88055 0.0
C2156 C 0.62631 0.54062 0.87161 0.0
C2157 C 0.61047 0.54394 0.86043 0.0
C2158 C 0.60282 0.5602 0.86068 0.0
C2159 C 0.58743 0.56303 0.85087 0.0
C2160 C 0.57943 0.54963 0.84103 0.0
C2161 C 0.58691 0.53341 0.84075 0.0
C2162 C 0.60238 0.53055 0.85038 0.0
C2163 C 0.64167 0.5042 0.94838 0.0
C2164 C 0.63605 0.48738 0.94478 0.0
C2165 C 0.64294 0.51617 0.93325 0.0
C2166 C 0.63887 0.51166 0.91397 0.0
C2167 C 0.63317 0.49492 0.91028 0.0
C2168 C 0.63184 0.48291 0.92546 0.0
C2169 C 0.64034 0.52452 0.89785 0.0
C2170 C 0.62608 0.5277 0.88594 0.0
C2171 C 0.65536 0.53432 0.89482 0.0
C2172 C 0.67127 0.53097 0.90585 0.0
C2173 C 0.67844 0.5145 0.90621 0.0
C2174 C 0.69344 0.51141 0.91668 0.0
C2175 C 0.70145 0.52472 0.92672 0.0
C2176 C 0.69449 0.54116 0.92626 0.0
C2177 C 0.67948 0.54431 0.91585 0.0
H2178 H 0.71307 0.5223 0.93481 0.0
H2179 H 0.56743 0.55182 0.83359 0.0
H2180 H 0.64852 0.37764 0.09607 0.0
H2181 H 0.67106 0.37779 0.12087 0.0
H2182 H 0.70203 0.41006 0.08416 0.0
H2183 H 0.67939 0.41025 0.05941 0.0
H2184 H 0.71979 0.38047 0.10105 0.0
H2185 H 0.6845 0.42818 0.12056 0.0
H2186 H 0.65702 0.44175 0.12896 0.0
H2187 H 0.65031 0.40632 0.17621 0.0
H2188 H 0.67765 0.39239 0.1679 0.0
H2189 H 0.78371 0.40091 0.1714 0.0
H2190 H 0.7617 0.4024 0.14614 0.0
H2191 H 0.72504 0.3805 0.18588 0.0
H2192 H 0.74673 0.37947 0.21136 0.0
H2193 H 0.7102 0.40515 0.16678 0.0
H2194 H 0.74394 0.35753 0.14964 0.0
H2195 H 0.77004 0.34126 0.14201 0.0
H2196 H 0.77804 0.37186 0.09093 0.0
H2197 H 0.75234 0.3889 0.09863 0.0
C2198 C 0.66004 0.38492 0.09334 0.0
C2199 C 0.66202 0.39409 0.07582 0.0
C2200 C 0.67296 0.38494 0.10751 0.0
C2201 C 0.6883 0.39389 0.10439 0.0
C2202 C 0.69035 0.40302 0.08689 0.0
C2203 C 0.6773 0.40326 0.07284 0.0
C2204 C 0.70206 0.39387 0.1195 0.0
C2205 C 0.71784 0.38613 0.11531 0.0
C2206 C 0.69933 0.40068 0.13835 0.0
C2207 C 0.68305 0.4092 0.14355 0.0
C2208 C 0.67711 0.42323 0.13267 0.0
C2209 C 0.66157 0.43099 0.13742 0.0
C2210 C 0.65191 0.42488 0.15309 0.0
C2211 C 0.6578 0.41103 0.16407 0.0
C2212 C 0.67333 0.40322 0.15937 0.0
C2213 C 0.77095 0.39651 0.17488 0.0
C2214 C 0.76719 0.3899 0.19354 0.0
C2215 C 0.75836 0.39725 0.1603 0.0
C2216 C 0.74163 0.39142 0.16394 0.0
C2217 C 0.73778 0.38507 0.1826 0.0
C2218 C 0.75034 0.3843 0.19715 0.0
C2219 C 0.72815 0.39184 0.14838 0.0
C2220 C 0.71233 0.3996 0.15249 0.0
C2221 C 0.73076 0.3847 0.12959 0.0
C2222 C 0.74632 0.37467 0.12489 0.0
C2223 C 0.75139 0.361 0.13693 0.0
C2224 C 0.76613 0.35166 0.1326 0.0
C2225 C 0.77576 0.35566 0.11607 0.0
C2226 C 0.77065 0.36897 0.10382 0.0
C2227 C 0.75602 0.3785 0.10819 0.0
H2228 H 0.78714 0.34837 0.11269 0.0
H2229 H 0.63988 0.4309 0.15675 0.0
H2230 H 0.89202 0.51881 0.43725 0.0
H2231 H 0.88963 0.49761 0.41138 0.0
H2232 H 0.83577 0.49228 0.42328 0.0
H2233 H 0.83824 0.51284 0.44997 0.0
H2234 H 0.84917 0.46176 0.41681 0.0
H2235 H 0.85161 0.51575 0.38517 0.0
H2236 H 0.86376 0.54418 0.37854 0.0
H2237 H 0.90912 0.521 0.35527 0.0
H2238 H 0.89754 0.49238 0.36252 0.0
H2239 H 0.8348 0.41498 0.32761 0.0
H2240 H 0.8332 0.43709 0.35303 0.0
H2241 H 0.88772 0.44433 0.3494 0.0
H2242 H 0.88948 0.42256 0.32435 0.0
H2243 H 0.87135 0.47487 0.35068 0.0
H2244 H 0.87044 0.42166 0.38613 0.0
H2245 H 0.85921 0.39312 0.39443 0.0
H2246 H 0.81089 0.41529 0.40998 0.0
H2247 H 0.82177 0.44395 0.40148 0.0
C2248 C 0.87968 0.51301 0.4346 0.0
C2249 C 0.86533 0.51761 0.44585 0.0
C2250 C 0.87829 0.50096 0.41959 0.0
C2251 C 0.86246 0.4934 0.41514 0.0
C2252 C 0.84813 0.49791 0.42635 0.0
C2253 C 0.84953 0.50987 0.4415 0.0
C2254 C 0.86087 0.48096 0.39866 0.0
C2255 C 0.85376 0.46477 0.40228 0.0
C2256 C 0.86702 0.4847 0.37967 0.0
C2257 C 0.87376 0.50188 0.37457 0.0
C2258 C 0.86426 0.51669 0.37883 0.0
C2259 C 0.8711 0.53285 0.37511 0.0
C2260 C 0.88725 0.5344 0.3666 0.0
C2261 C 0.89662 0.51978 0.3619 0.0
C2262 C 0.88995 0.50357 0.36589 0.0
C2263 C 0.84644 0.42124 0.33227 0.0
C2264 C 0.86227 0.41674 0.32395 0.0
C2265 C 0.84552 0.43391 0.34681 0.0
C2266 C 0.86037 0.44243 0.35319 0.0
C2267 C 0.87607 0.43807 0.34473 0.0
C2268 C 0.87703 0.42541 0.33042 0.0
C2269 C 0.85985 0.45563 0.36894 0.0
C2270 C 0.86658 0.47197 0.36517 0.0
C2271 C 0.85334 0.45206 0.38776 0.0
C2272 C 0.84684 0.4349 0.393 0.0
C2273 C 0.85738 0.42042 0.39118 0.0
C2274 C 0.85109 0.40423 0.39593 0.0
C2275 C 0.83433 0.40239 0.40268 0.0
C2276 C 0.82385 0.41674 0.40472 0.0
C2277 C 0.83007 0.43295 0.39995 0.0
H2278 H 0.82949 0.38985 0.40638 0.0
H2279 H 0.89245 0.54694 0.36356 0.0
H2280 H 0.75254 0.40752 0.80826 0.0
H2281 H 0.7741 0.40936 0.83381 0.0
H2282 H 0.74532 0.37392 0.86903 0.0
H2283 H 0.72368 0.37184 0.84335 0.0
H2284 H 0.75778 0.39818 0.89168 0.0
H2285 H 0.78134 0.36132 0.84375 0.0
H2286 H 0.79059 0.35195 0.8111 0.0
H2287 H 0.82604 0.3938 0.80817 0.0
H2288 H 0.81676 0.40357 0.84069 0.0
H2289 H 0.83884 0.36479 0.93764 0.0
H2290 H 0.81648 0.36625 0.91286 0.0
H2291 H 0.81688 0.42121 0.91631 0.0
H2292 H 0.83887 0.41988 0.94185 0.0
H2293 H 0.81859 0.38755 0.87508 0.0
H2294 H 0.78771 0.42574 0.92448 0.0
H2295 H 0.77884 0.42977 0.95872 0.0
H2296 H 0.75706 0.37942 0.95917 0.0
H2297 H 0.76643 0.37489 0.92537 0.0
C2298 C 0.75078 0.39996 0.82133 0.0
C2299 C 0.73634 0.38935 0.82349 0.0
C2300 C 0.76318 0.40108 0.83602 0.0
C2301 C 0.76159 0.39157 0.85332 0.0
C2302 C 0.74694 0.38138 0.85585 0.0
C2303 C 0.73449 0.38025 0.84112 0.0
C2304 C 0.77536 0.39209 0.86852 0.0
C2305 C 0.77105 0.39596 0.88789 0.0
C2306 C 0.79278 0.38897 0.864 0.0
C2307 C 0.7982 0.38329 0.84445 0.0
C2308 C 0.79097 0.36861 0.83602 0.0
C2309 C 0.79624 0.36322 0.81758 0.0
C2310 C 0.80885 0.37231 0.80753 0.0
C2311 C 0.81624 0.3868 0.81594 0.0
C2312 C 0.81098 0.39228 0.83436 0.0
C2313 C 0.83426 0.37725 0.93314 0.0
C2314 C 0.84077 0.39225 0.94174 0.0
C2315 C 0.82136 0.37803 0.91902 0.0
C2316 C 0.81468 0.3938 0.91303 0.0
C2317 C 0.82144 0.40885 0.92114 0.0
C2318 C 0.83417 0.40809 0.93558 0.0
C2319 C 0.80103 0.39432 0.89785 0.0
C2320 C 0.80535 0.39028 0.8786 0.0
C2321 C 0.78365 0.39707 0.90248 0.0
C2322 C 0.77811 0.39985 0.92271 0.0
C2323 C 0.78134 0.41544 0.9321 0.0
C2324 C 0.7762 0.41781 0.95143 0.0
C2325 C 0.76753 0.40478 0.96128 0.0
C2326 C 0.76394 0.38941 0.95175 0.0
C2327 C 0.76922 0.38691 0.93254 0.0
H2328 H 0.76348 0.40662 0.97622 0.0
H2329 H 0.81294 0.3681 0.79325 0.0
H2330 H 0.83518 0.59649 0.1818 0.0
H2331 H 0.83507 0.57436 0.1564 0.0
H2332 H 0.88367 0.55576 0.17748 0.0
H2333 H 0.88438 0.57867 0.20144 0.0
H2334 H 0.88603 0.55383 0.14263 0.0
H2335 H 0.84048 0.53465 0.18403 0.0
H2336 H 0.81344 0.53703 0.20233 0.0
H2337 H 0.78647 0.54785 0.14918 0.0
H2338 H 0.8134 0.5457 0.13061 0.0
H2339 H 0.88521 0.475 0.09082 0.0
H2340 H 0.88333 0.49595 0.11717 0.0
H2341 H 0.84076 0.52016 0.08838 0.0
H2342 H 0.84201 0.49883 0.06248 0.0
H2343 H 0.83512 0.51887 0.12668 0.0
H2344 H 0.88301 0.53638 0.08615 0.0
H2345 H 0.91081 0.53211 0.06988 0.0
H2346 H 0.93432 0.52149 0.12517 0.0
H2347 H 0.9066 0.5255 0.14171 0.0
C2348 C 0.84583 0.58768 0.18083 0.0
C2349 C 0.85988 0.58944 0.19338 0.0
C2350 C 0.8457 0.57484 0.16646 0.0
C2351 C 0.85927 0.56298 0.16495 0.0
C2352 C 0.87309 0.56467 0.17793 0.0
C2353 C 0.87348 0.57781 0.19173 0.0
C2354 C 0.85956 0.54916 0.14965 0.0
C2355 C 0.87489 0.54606 0.13952 0.0
C2356 C 0.84511 0.53899 0.14495 0.0
C2357 C 0.82894 0.54021 0.15601 0.0
C2358 C 0.82878 0.53764 0.17629 0.0
C2359 C 0.81348 0.53893 0.1867 0.0
C2360 C 0.79825 0.54264 0.17693 0.0
C2361 C 0.79828 0.545 0.15673 0.0
C2362 C 0.81355 0.54374 0.14625 0.0
C2363 C 0.87526 0.4846 0.09018 0.0
C2364 C 0.86385 0.48517 0.07428 0.0
C2365 C 0.87433 0.49675 0.10521 0.0
C2366 C 0.8621 0.50993 0.10468 0.0
C2367 C 0.85041 0.51025 0.08914 0.0
C2368 C 0.85127 0.49808 0.07417 0.0
C2369 C 0.86159 0.52354 0.12006 0.0
C2370 C 0.84622 0.52663 0.13005 0.0
C2371 C 0.87612 0.53339 0.12503 0.0
C2372 C 0.89275 0.53109 0.1151 0.0
C2373 C 0.8941 0.53304 0.09479 0.0
C2374 C 0.90984 0.53068 0.08554 0.0
C2375 C 0.92432 0.52649 0.09648 0.0
C2376 C 0.9231 0.52471 0.11671 0.0
C2377 C 0.90739 0.52704 0.12603 0.0
H2378 H 0.93649 0.52467 0.08928 0.0
H2379 H 0.78642 0.54365 0.18502 0.0
H2380 H 0.78339 0.61048 0.34661 0.0
H2381 H 0.76194 0.60852 0.37249 0.0
H2382 H 0.72272 0.62351 0.33178 0.0
H2383 H 0.74399 0.62537 0.30586 0.0
H2384 H 0.71868 0.64018 0.36532 0.0
H2385 H 0.7284 0.58088 0.34743 0.0
H2386 H 0.74633 0.55534 0.34229 0.0
H2387 H 0.76263 0.55718 0.40204 0.0
H2388 H 0.74494 0.58284 0.40746 0.0
H2389 H 0.64584 0.62196 0.42198 0.0
H2390 H 0.66754 0.6223 0.39634 0.0
H2391 H 0.70375 0.59919 0.43588 0.0
H2392 H 0.68163 0.59769 0.46102 0.0
H2393 H 0.71023 0.58702 0.40352 0.0
H2394 H 0.70195 0.64507 0.42291 0.0
H2395 H 0.68527 0.67109 0.42997 0.0
H2396 H 0.6686 0.67318 0.37036 0.0
H2397 H 0.68501 0.64703 0.36301 0.0
C2398 C 0.77019 0.6132 0.34307 0.0
C2399 C 0.76554 0.6181 0.32401 0.0
C2400 C 0.75789 0.6121 0.35795 0.0
C2401 C 0.74059 0.61571 0.35414 0.0
C2402 C 0.73595 0.6207 0.33519 0.0
C2403 C 0.7482 0.62183 0.32034 0.0
C2404 C 0.72727 0.61434 0.36976 0.0
C2405 C 0.71671 0.62848 0.37352 0.0
C2406 C 0.72499 0.59933 0.38103 0.0
C2407 C 0.73547 0.58383 0.3778 0.0
C2408 C 0.73589 0.57588 0.35943 0.0
C2409 C 0.74599 0.56138 0.35647 0.0
C2410 C 0.75564 0.55466 0.37182 0.0
C2411 C 0.75516 0.5624 0.39017 0.0
C2412 C 0.74509 0.57691 0.39319 0.0
C2413 C 0.65837 0.61673 0.42507 0.0
C2414 C 0.66198 0.60971 0.44346 0.0
C2415 C 0.6709 0.61713 0.41046 0.0
C2416 C 0.68761 0.61124 0.41417 0.0
C2417 C 0.69107 0.60387 0.43248 0.0
C2418 C 0.67837 0.60298 0.44689 0.0
C2419 C 0.70147 0.61286 0.39911 0.0
C2420 C 0.71216 0.59877 0.39543 0.0
C2421 C 0.70414 0.62808 0.38823 0.0
C2422 C 0.6946 0.64403 0.39246 0.0
C2423 C 0.69468 0.65105 0.41133 0.0
C2424 C 0.68527 0.66582 0.41538 0.0
C2425 C 0.67585 0.67376 0.40064 0.0
C2426 C 0.67589 0.667 0.38178 0.0
C2427 C 0.68526 0.65222 0.37765 0.0
H2428 H 0.66854 0.68517 0.40382 0.0
H2429 H 0.76346 0.54344 0.3695 0.0
H2430 H 0.66216 0.42645 0.70612 0.0
H2431 H 0.66171 0.44926 0.68147 0.0
H2432 H 0.62065 0.4235 0.65164 0.0
H2433 H 0.62089 0.40096 0.6763 0.0
H2434 H 0.64438 0.43411 0.62634 0.0
H2435 H 0.61285 0.4584 0.67819 0.0
H2436 H 0.60511 0.46981 0.71044 0.0
H2437 H 0.64649 0.50577 0.70715 0.0
H2438 H 0.6547 0.4943 0.67499 0.0
H2439 H 0.61542 0.49956 0.56329 0.0
H2440 H 0.61762 0.47819 0.58903 0.0
H2441 H 0.65813 0.50706 0.61598 0.0
H2442 H 0.65615 0.52852 0.59004 0.0
H2443 H 0.63611 0.49522 0.64297 0.0
H2444 H 0.66643 0.47034 0.58929 0.0
H2445 H 0.67022 0.46063 0.55537 0.0
H2446 H 0.62792 0.42607 0.56184 0.0
H2447 H 0.62372 0.43581 0.59569 0.0
C2448 C 0.65313 0.42564 0.69424 0.0
C2449 C 0.64162 0.41186 0.69322 0.0
C2450 C 0.65278 0.43875 0.68024 0.0
C2451 C 0.64101 0.43826 0.66477 0.0
C2452 C 0.62982 0.42426 0.66344 0.0
C2453 C 0.63001 0.41131 0.67756 0.0
C2454 C 0.64055 0.45204 0.64967 0.0
C2455 C 0.64242 0.44745 0.63004 0.0
C2456 C 0.63836 0.46955 0.65432 0.0
C2457 C 0.63454 0.47533 0.67436 0.0
C2458 C 0.62054 0.46848 0.68454 0.0
C2459 C 0.616 0.47503 0.70274 0.0
C2460 C 0.62526 0.48855 0.71081 0.0
C2461 C 0.63929 0.49533 0.70085 0.0
C2462 C 0.64394 0.48877 0.68268 0.0
C2463 C 0.62495 0.50136 0.57454 0.0
C2464 C 0.63575 0.51578 0.57432 0.0
C2465 C 0.62617 0.48907 0.58933 0.0
C2466 C 0.63828 0.49075 0.60432 0.0
C2467 C 0.64874 0.50537 0.60454 0.0
C2468 C 0.64753 0.51771 0.5897 0.0
C2469 C 0.63993 0.47727 0.61971 0.0
C2470 C 0.6383 0.48191 0.63936 0.0
C2471 C 0.64216 0.45976 0.61511 0.0
C2472 C 0.64467 0.45392 0.59486 0.0
C2473 C 0.65786 0.46078 0.58339 0.0
C2474 C 0.66009 0.45525 0.5642 0.0
C2475 C 0.64929 0.44277 0.55643 0.0
C2476 C 0.63626 0.43576 0.56786 0.0
C2477 C 0.63395 0.44127 0.58703 0.0
H2478 H 0.65104 0.43851 0.54156 0.0
H2479 H 0.62151 0.4938 0.72474 0.0
H2480 H 0.17102 0.41732 0.44729 0.0
H2481 H 0.1921 0.41907 0.42085 0.0
H2482 H 0.18715 0.36487 0.4111 0.0
H2483 H 0.16599 0.36305 0.43685 0.0
H2484 H 0.22269 0.40581 0.41516 0.0
H2485 H 0.19288 0.3543 0.36521 0.0
H2486 H 0.1644 0.34271 0.35733 0.0
H2487 H 0.14125 0.39047 0.37324 0.0
H2488 H 0.16961 0.40241 0.38095 0.0
H2489 H 0.28308 0.37678 0.34347 0.0
H2490 H 0.26207 0.37878 0.36985 0.0
H2491 H 0.2269 0.40407 0.33097 0.0
H2492 H 0.24776 0.40222 0.30467 0.0
H2493 H 0.2106 0.3804 0.35038 0.0
H2494 H 0.24976 0.42555 0.36746 0.0
H2495 H 0.27802 0.43765 0.37538 0.0
H2496 H 0.28205 0.40412 0.42477 0.0
H2497 H 0.25392 0.39164 0.41697 0.0
C2498 C 0.17424 0.40581 0.43932 0.0
C2499 C 0.16652 0.3901 0.44412 0.0
C2500 C 0.18642 0.40681 0.4243 0.0
C2501 C 0.1911 0.39215 0.4137 0.0
C2502 C 0.18354 0.37647 0.41865 0.0
C2503 C 0.1714 0.37546 0.43354 0.0
C2504 C 0.20386 0.39307 0.39749 0.0
C2505 C 0.22004 0.40021 0.40102 0.0
C2506 C 0.20042 0.38609 0.37884 0.0
C2507 C 0.18336 0.37921 0.37372 0.0
C2508 C 0.18172 0.36236 0.36688 0.0
C2509 C 0.1656 0.35572 0.36248 0.0
C2510 C 0.15102 0.36584 0.36481 0.0
C2511 C 0.15254 0.38264 0.37148 0.0
C2512 C 0.16864 0.38934 0.37587 0.0
C2513 C 0.27096 0.38297 0.34058 0.0
C2514 C 0.26716 0.38926 0.32181 0.0
C2515 C 0.25892 0.38409 0.35571 0.0
C2516 C 0.24284 0.39165 0.35249 0.0
C2517 C 0.23912 0.39807 0.33385 0.0
C2518 C 0.2511 0.39695 0.31876 0.0
C2519 C 0.22967 0.39256 0.36826 0.0
C2520 C 0.21333 0.38588 0.36457 0.0
C2521 C 0.23299 0.39995 0.38675 0.0
C2522 C 0.2498 0.40758 0.39155 0.0
C2523 C 0.25672 0.42069 0.37994 0.0
C2524 C 0.27271 0.42762 0.38441 0.0
C2525 C 0.28184 0.42163 0.40054 0.0
C2526 C 0.27497 0.40873 0.41226 0.0
C2527 C 0.259 0.40174 0.40784 0.0
H2528 H 0.29422 0.42701 0.40398 0.0
H2529 H 0.13854 0.36066 0.36142 0.0
H2530 H 0.3344 0.41423 0.18991 0.0
H2531 H 0.33403 0.43653 0.16461 0.0
H2532 H 0.3891 0.43674 0.16367 0.0
H2533 H 0.3896 0.41431 0.18844 0.0
H2534 H 0.37308 0.47032 0.16642 0.0
H2535 H 0.37123 0.41841 0.12854 0.0
H2536 H 0.35926 0.39042 0.11933 0.0
H2537 H 0.31142 0.41421 0.10502 0.0
H2538 H 0.32304 0.44233 0.1145 0.0
H2539 H 0.39318 0.51805 0.08188 0.0
H2540 H 0.39097 0.4961 0.10704 0.0
H2541 H 0.33717 0.49065 0.09496 0.0
H2542 H 0.33942 0.51211 0.06914 0.0
H2543 H 0.3506 0.46017 0.09979 0.0
H2544 H 0.35266 0.5124 0.13423 0.0
H2545 H 0.36328 0.54051 0.1448 0.0
H2546 H 0.40887 0.51714 0.16722 0.0
H2547 H 0.39872 0.48889 0.15636 0.0
C2548 C 0.34642 0.4189 0.18414 0.0
C2549 C 0.36202 0.41228 0.19101 0.0
C2550 C 0.34619 0.43168 0.16975 0.0
C2551 C 0.36156 0.43835 0.1623 0.0
C2552 C 0.37711 0.43183 0.16923 0.0
C2553 C 0.37734 0.41886 0.18327 0.0
C2554 C 0.36155 0.45201 0.14714 0.0
C2555 C 0.36836 0.46809 0.15177 0.0
C2556 C 0.35488 0.44926 0.12825 0.0
C2557 C 0.34794 0.43242 0.1224 0.0
C2558 C 0.35811 0.41764 0.1236 0.0
C2559 C 0.3514 0.40176 0.11831 0.0
C2560 C 0.33458 0.40053 0.11164 0.0
C2561 C 0.32444 0.41518 0.11022 0.0
C2562 C 0.33108 0.43109 0.11554 0.0
C2563 C 0.38088 0.51211 0.0844 0.0
C2564 C 0.36648 0.51695 0.07337 0.0
C2565 C 0.3796 0.49962 0.09898 0.0
C2566 C 0.36385 0.49175 0.10312 0.0
C2567 C 0.34946 0.4965 0.09212 0.0
C2568 C 0.35074 0.50896 0.07747 0.0
C2569 C 0.36244 0.47857 0.11887 0.0
C2570 C 0.35532 0.46255 0.11441 0.0
C2571 C 0.36868 0.48147 0.13801 0.0
C2572 C 0.37498 0.4985 0.1443 0.0
C2573 C 0.36508 0.51326 0.14114 0.0
C2574 C 0.37099 0.52923 0.14723 0.0
C2575 C 0.38675 0.53062 0.15664 0.0
C2576 C 0.39665 0.51604 0.15993 0.0
C2577 C 0.39082 0.50004 0.1538 0.0
H2578 H 0.39128 0.54299 0.16143 0.0
H2579 H 0.32941 0.38822 0.10753 0.0
H2580 H 0.22064 0.60881 0.84383 0.0
H2581 H 0.24204 0.60612 0.86961 0.0
H2582 H 0.28144 0.62154 0.82927 0.0
H2583 H 0.26029 0.62349 0.80325 0.0
H2584 H 0.29358 0.5972 0.8506 0.0
H2585 H 0.2651 0.64901 0.86371 0.0
H2586 H 0.24087 0.66853 0.86921 0.0
H2587 H 0.22702 0.64068 0.92067 0.0
H2588 H 0.25095 0.62061 0.91531 0.0
H2589 H 0.35501 0.62546 0.92185 0.0
H2590 H 0.33323 0.62507 0.89618 0.0
H2591 H 0.30021 0.59506 0.93306 0.0
H2592 H 0.32212 0.59504 0.95868 0.0
H2593 H 0.28483 0.62616 0.91418 0.0
H2594 H 0.31675 0.57477 0.89896 0.0
H2595 H 0.34333 0.55891 0.89221 0.0
H2596 H 0.35339 0.59131 0.84295 0.0
H2597 H 0.32697 0.60752 0.84959 0.0
C2598 C 0.23387 0.61143 0.84033 0.0
C2599 C 0.23861 0.61647 0.82135 0.0
C2600 C 0.24612 0.61006 0.8552 0.0
C2601 C 0.26343 0.6138 0.85155 0.0
C2602 C 0.26822 0.61857 0.83257 0.0
C2603 C 0.25601 0.61989 0.8177 0.0
C2604 C 0.27651 0.61297 0.86749 0.0
C2605 C 0.29165 0.60366 0.86442 0.0
C2606 C 0.27419 0.62136 0.88563 0.0
C2607 C 0.25969 0.63319 0.88896 0.0
C2608 C 0.25677 0.6469 0.8761 0.0
C2609 C 0.2431 0.65805 0.8792 0.0
C2610 C 0.23236 0.65574 0.89525 0.0
C2611 C 0.2353 0.6423 0.90823 0.0
C2612 C 0.24891 0.63104 0.90516 0.0
C2613 C 0.3432 0.6186 0.92442 0.0
C2614 C 0.34039 0.61015 0.94225 0.0
C2615 C 0.33074 0.61843 0.90975 0.0
C2616 C 0.31506 0.61009 0.91272 0.0
C2617 C 0.3122 0.60161 0.93048 0.0
C2618 C 0.32481 0.60148 0.94503 0.0
C2619 C 0.30167 0.61029 0.89725 0.0
C2620 C 0.28657 0.61956 0.90041 0.0
C2621 C 0.30424 0.6023 0.879 0.0
C2622 C 0.31996 0.59241 0.87484 0.0
C2623 C 0.32469 0.57858 0.88677 0.0
C2624 C 0.33972 0.56952 0.88295 0.0
C2625 C 0.35006 0.57412 0.86718 0.0
C2626 C 0.34537 0.58776 0.85516 0.0
C2627 C 0.33037 0.59688 0.85893 0.0
H2628 H 0.36169 0.56708 0.86424 0.0
H2629 H 0.22179 0.66441 0.89769 0.0
H2630 H 0.17068 0.59138 0.689 0.0
H2631 H 0.17162 0.56866 0.66417 0.0
H2632 H 0.11685 0.56378 0.6672 0.0
H2633 H 0.11571 0.58676 0.6913 0.0
H2634 H 0.14242 0.53065 0.67009 0.0
H2635 H 0.12235 0.57968 0.63216 0.0
H2636 H 0.12473 0.60954 0.62099 0.0
H2637 H 0.1748 0.59926 0.59814 0.0
H2638 H 0.17281 0.56938 0.60955 0.0
H2639 H 0.11998 0.47653 0.59078 0.0
H2640 H 0.1208 0.49879 0.61571 0.0
H2641 H 0.16707 0.51896 0.59044 0.0
H2642 H 0.16588 0.49731 0.56491 0.0
H2643 H 0.14746 0.54441 0.59967 0.0
H2644 H 0.16555 0.49397 0.63209 0.0
H2645 H 0.16402 0.4642 0.64362 0.0
H2646 H 0.12 0.47643 0.67831 0.0
H2647 H 0.1208 0.50613 0.66635 0.0
C2648 C 0.15884 0.58559 0.68421 0.0
C2649 C 0.14311 0.59112 0.69191 0.0
C2650 C 0.1594 0.57255 0.67011 0.0
C2651 C 0.1443 0.56447 0.66391 0.0
C2652 C 0.12865 0.5698 0.67179 0.0
C2653 C 0.12803 0.58308 0.68544 0.0
C2654 C 0.14469 0.55074 0.64886 0.0
C2655 C 0.14335 0.53359 0.65466 0.0
C2656 C 0.14635 0.55456 0.62883 0.0
C2657 C 0.14753 0.57242 0.62191 0.0
C2658 C 0.13394 0.58386 0.62497 0.0
C2659 C 0.1352 0.60076 0.61855 0.0
C2660 C 0.14993 0.60631 0.60892 0.0
C2661 C 0.16342 0.59495 0.60565 0.0
C2662 C 0.16223 0.57804 0.61209 0.0
C2663 C 0.13026 0.48578 0.59035 0.0
C2664 C 0.14288 0.48496 0.57571 0.0
C2665 C 0.13082 0.49845 0.60482 0.0
C2666 C 0.14412 0.51055 0.60521 0.0
C2667 C 0.15668 0.50981 0.59058 0.0
C2668 C 0.15608 0.49722 0.57606 0.0
C2669 C 0.1449 0.52405 0.6207 0.0
C2670 C 0.14654 0.54126 0.61504 0.0
C2671 C 0.14363 0.52018 0.6409 0.0
C2672 C 0.14311 0.50228 0.64812 0.0
C2673 C 0.15536 0.49028 0.64193 0.0
C2674 C 0.1546 0.47338 0.6485 0.0
C2675 C 0.14187 0.46841 0.66162 0.0
C2676 C 0.12982 0.48029 0.66809 0.0
C2677 C 0.13038 0.49714 0.66136 0.0
H2678 H 0.14141 0.45537 0.66685 0.0
H2679 H 0.15087 0.6194 0.60392 0.0
H2680 H 0.18274 0.61011 0.05383 0.0
H2681 H 0.20579 0.6121 0.07765 0.0
H2682 H 0.16857 0.61273 0.12424 0.0
H2683 H 0.14549 0.61258 0.10003 0.0
H2684 H 0.19094 0.63275 0.13409 0.0
H2685 H 0.19797 0.57505 0.10801 0.0
H2686 H 0.20236 0.55428 0.0814 0.0
H2687 H 0.2487 0.57992 0.06484 0.0
H2688 H 0.24448 0.60088 0.09127 0.0
H2689 H 0.24572 0.61175 0.21232 0.0
H2690 H 0.22441 0.61146 0.18643 0.0
H2691 H 0.26416 0.61788 0.14347 0.0
H2692 H 0.28567 0.61818 0.16942 0.0
H2693 H 0.24205 0.59542 0.13075 0.0
H2694 H 0.23687 0.6513 0.15719 0.0
H2695 H 0.23325 0.6732 0.18268 0.0
H2696 H 0.18414 0.65234 0.19745 0.0
H2697 H 0.18761 0.63013 0.17226 0.0
C2698 C 0.17953 0.61052 0.0692 0.0
C2699 C 0.16234 0.61087 0.07516 0.0
C2700 C 0.19276 0.61148 0.08291 0.0
C2701 C 0.18919 0.61193 0.10305 0.0
C2702 C 0.17189 0.61227 0.10891 0.0
C2703 C 0.15864 0.61204 0.09511 0.0
C2704 C 0.2033 0.61263 0.11797 0.0
C2705 C 0.2019 0.62428 0.13347 0.0
C2706 C 0.21822 0.6023 0.11699 0.0
C2707 C 0.22085 0.58953 0.10145 0.0
C2708 C 0.20906 0.57623 0.09865 0.0
C2709 C 0.21152 0.56445 0.08362 0.0
C2710 C 0.22579 0.5658 0.07142 0.0
C2711 C 0.23767 0.57889 0.07429 0.0
C2712 C 0.23527 0.5907 0.0893 0.0
C2713 C 0.24999 0.61332 0.19741 0.0
C2714 C 0.26751 0.61518 0.1931 0.0
C2715 C 0.23772 0.61314 0.18254 0.0
C2716 C 0.24253 0.61498 0.1629 0.0
C2717 C 0.26003 0.6165 0.15847 0.0
C2718 C 0.27236 0.61662 0.17337 0.0
C2719 C 0.22929 0.61508 0.1471 0.0
C2720 C 0.23096 0.60372 0.13142 0.0
C2721 C 0.21465 0.62573 0.14784 0.0
C2722 C 0.21258 0.63898 0.16302 0.0
C2723 C 0.22537 0.6513 0.16601 0.0
C2724 C 0.22334 0.66378 0.18038 0.0
C2725 C 0.2085 0.66413 0.19172 0.0
C2726 C 0.19564 0.65203 0.18868 0.0
C2727 C 0.19763 0.6395 0.17437 0.0
H2728 H 0.20694 0.67381 0.20283 0.0
H2729 H 0.22765 0.55668 0.05976 0.0
H2730 H 0.11577 0.40913 0.83622 0.0
H2731 H 0.11724 0.43118 0.8613 0.0
H2732 H 0.16976 0.44111 0.84617 0.0
H2733 H 0.16832 0.41924 0.82059 0.0
H2734 H 0.14001 0.43377 0.89405 0.0
H2735 H 0.17532 0.47366 0.84607 0.0
H2736 H 0.17837 0.48329 0.81192 0.0
H2737 H 0.12375 0.4872 0.80691 0.0
H2738 H 0.12051 0.47741 0.84089 0.0
H2739 H 0.15927 0.50204 0.95907 0.0
H2740 H 0.16166 0.48036 0.93366 0.0
H2741 H 0.12209 0.50554 0.90067 0.0
H2742 H 0.12018 0.52778 0.9256 0.0
H2743 H 0.14631 0.49502 0.87666 0.0
H2744 H 0.11462 0.46855 0.92902 0.0
H2745 H 0.10999 0.45901 0.9629 0.0
H2746 H 0.1552 0.42796 0.95988 0.0
H2747 H 0.16019 0.43752 0.92607 0.0
C2748 C 0.12772 0.41587 0.83824 0.0
C2749 C 0.14198 0.41226 0.82637 0.0
C2750 C 0.1285 0.42857 0.8526 0.0
C2751 C 0.14351 0.43803 0.85548 0.0
C2752 C 0.15789 0.43428 0.84394 0.0
C2753 C 0.1571 0.42163 0.82943 0.0
C2754 C 0.144 0.45166 0.87071 0.0
C2755 C 0.14162 0.44715 0.89028 0.0
C2756 C 0.14579 0.46913 0.86599 0.0
C2757 C 0.1477 0.47474 0.84571 0.0
C2758 C 0.16402 0.47654 0.83755 0.0
C2759 C 0.16578 0.482 0.81827 0.0
C2760 C 0.15128 0.48592 0.80724 0.0
C2761 C 0.13499 0.48421 0.81541 0.0
C2762 C 0.13317 0.47864 0.83463 0.0
C2763 C 0.15121 0.50317 0.94631 0.0
C2764 C 0.13945 0.51674 0.94457 0.0
C2765 C 0.15246 0.49058 0.93184 0.0
C2766 C 0.14185 0.49104 0.91532 0.0
C2767 C 0.13037 0.50476 0.9133 0.0
C2768 C 0.12916 0.51742 0.92772 0.0
C2769 C 0.14258 0.4772 0.90025 0.0
C2770 C 0.145 0.48166 0.88063 0.0
C2771 C 0.14091 0.45963 0.90503 0.0
C2772 C 0.13786 0.45387 0.9252 0.0
C2773 C 0.12361 0.45978 0.93567 0.0
C2774 C 0.12093 0.45436 0.95483 0.0
C2775 C 0.13232 0.44293 0.96356 0.0
C2776 C 0.1464 0.43684 0.95312 0.0
C2777 C 0.14916 0.44224 0.93397 0.0
H2778 H 0.13022 0.43875 0.97841 0.0
H2779 H 0.15273 0.49031 0.79238 0.0
H2780 H 0.33985 0.41949 0.57783 0.0
H2781 H 0.31771 0.42136 0.60314 0.0
H2782 H 0.3181 0.36651 0.60898 0.0
H2783 H 0.34042 0.36457 0.58435 0.0
H2784 H 0.2858 0.37843 0.60524 0.0
H2785 H 0.33548 0.39191 0.64354 0.0
H2786 H 0.36157 0.40827 0.65113 0.0
H2787 H 0.33195 0.45428 0.65592 0.0
H2788 H 0.3057 0.43822 0.64804 0.0
H2789 H 0.23853 0.36224 0.68993 0.0
H2790 H 0.26047 0.3651 0.66508 0.0
H2791 H 0.25859 0.41995 0.6707 0.0
H2792 H 0.23724 0.41713 0.69664 0.0
H2793 H 0.29054 0.41093 0.66707 0.0
H2794 H 0.2407 0.39794 0.62996 0.0
H2795 H 0.21457 0.38226 0.62072 0.0
H2796 H 0.24402 0.33659 0.61205 0.0
H2797 H 0.27028 0.35194 0.62141 0.0
C2798 C 0.33539 0.40786 0.58471 0.0
C2799 C 0.34213 0.39191 0.57916 0.0
C2800 C 0.32263 0.40893 0.59912 0.0
C2801 C 0.31606 0.39405 0.60791 0.0
C2802 C 0.32285 0.37817 0.60241 0.0
C2803 C 0.33579 0.37712 0.58838 0.0
C2804 C 0.30187 0.39475 0.62253 0.0
C2805 C 0.28692 0.3854 0.61885 0.0
C2806 C 0.30299 0.4043 0.64 0.0
C2807 C 0.31867 0.41391 0.64506 0.0
C2808 C 0.33455 0.40554 0.6461 0.0
C2809 C 0.34936 0.41475 0.65045 0.0
C2810 C 0.34842 0.43231 0.65397 0.0
C2811 C 0.33266 0.44068 0.65318 0.0
C2812 C 0.31781 0.43153 0.64878 0.0
C2813 C 0.24283 0.37496 0.68614 0.0
C2814 C 0.23601 0.38943 0.69558 0.0
C2815 C 0.2553 0.3766 0.6716 0.0
C2816 C 0.26114 0.39277 0.66562 0.0
C2817 C 0.25434 0.4073 0.6749 0.0
C2818 C 0.24193 0.40566 0.68965 0.0
C2819 C 0.27448 0.39433 0.64995 0.0
C2820 C 0.2893 0.40406 0.65341 0.0
C2821 C 0.27318 0.3853 0.63208 0.0
C2822 C 0.25741 0.37605 0.6265 0.0
C2823 C 0.24157 0.38452 0.62619 0.0
C2824 C 0.22675 0.37571 0.62091 0.0
C2825 C 0.22765 0.35844 0.61585 0.0
C2826 C 0.24336 0.34996 0.61599 0.0
C2827 C 0.25821 0.35871 0.62124 0.0
H2828 H 0.2162 0.35159 0.6118 0.0
H2829 H 0.35991 0.43942 0.65735 0.0
H2830 H 0.3469 0.46911 0.42732 0.0
H2831 H 0.34372 0.49079 0.40197 0.0
H2832 H 0.38211 0.52175 0.43 0.0
H2833 H 0.38446 0.50079 0.45609 0.0
H2834 H 0.35821 0.54172 0.41823 0.0
H2835 H 0.38946 0.49604 0.38758 0.0
H2836 H 0.39417 0.4662 0.37737 0.0
H2837 H 0.34822 0.46767 0.34319 0.0
H2838 H 0.3431 0.49747 0.35344 0.0
H2839 H 0.38425 0.59461 0.33969 0.0
H2840 H 0.38279 0.57252 0.36486 0.0
H2841 H 0.3377 0.55159 0.33782 0.0
H2842 H 0.33896 0.5739 0.31259 0.0
H2843 H 0.36261 0.52628 0.34824 0.0
H2844 H 0.33224 0.57244 0.37769 0.0
H2845 H 0.32763 0.60227 0.38794 0.0
H2846 H 0.37217 0.59978 0.4244 0.0
H2847 H 0.3772 0.56999 0.41411 0.0
C2848 C 0.35453 0.48061 0.42829 0.0
C2849 C 0.36601 0.48301 0.44389 0.0
C2850 C 0.35285 0.49297 0.41357 0.0
C2851 C 0.36285 0.50792 0.41378 0.0
C2852 C 0.37424 0.51038 0.42936 0.0
C2853 C 0.37575 0.49817 0.44421 0.0
C2854 C 0.36159 0.52103 0.39787 0.0
C2855 C 0.35936 0.53829 0.40297 0.0
C2856 C 0.36262 0.5167 0.37781 0.0
C2857 C 0.36582 0.49892 0.37139 0.0
C2858 C 0.3803 0.48996 0.37799 0.0
C2859 C 0.38303 0.47305 0.37221 0.0
C2860 C 0.37145 0.46502 0.35972 0.0
C2861 C 0.35713 0.47389 0.35294 0.0
C2862 C 0.35432 0.49079 0.3587 0.0
C2863 C 0.37391 0.58541 0.33917 0.0
C2864 C 0.36162 0.58616 0.32422 0.0
C2865 C 0.37311 0.57275 0.35356 0.0
C2866 C 0.36014 0.56034 0.35326 0.0
C2867 C 0.34784 0.56099 0.33834 0.0
C2868 C 0.34847 0.57387 0.32406 0.0
C2869 C 0.35948 0.54688 0.36872 0.0
C2870 C 0.36137 0.52962 0.36352 0.0
C2871 C 0.35818 0.55118 0.38871 0.0
C2872 C 0.35516 0.56903 0.39504 0.0
C2873 C 0.34112 0.5783 0.38778 0.0
C2874 C 0.33843 0.59519 0.39361 0.0
C2875 C 0.34962 0.60292 0.40679 0.0
C2876 C 0.36352 0.59377 0.41418 0.0
C2877 C 0.36629 0.57688 0.40837 0.0
H2878 H 0.3475 0.616 0.41131 0.0
H2879 H 0.37362 0.45195 0.3552 0.0
H2880 H 0.10736 0.26996 0.42072 0.0
H2881 H 0.10845 0.24688 0.3968 0.0
H2882 H 0.1619 0.25715 0.38678 0.0
H2883 H 0.16072 0.28079 0.40996 0.0
H2884 H 0.14715 0.25044 0.35358 0.0
H2885 H 0.14847 0.22338 0.41555 0.0
H2886 H 0.13904 0.21668 0.44899 0.0
H2887 H 0.09134 0.19766 0.42686 0.0
H2888 H 0.10039 0.20455 0.39331 0.0
H2889 H 0.16408 0.1685 0.30912 0.0
H2890 H 0.16441 0.19296 0.33155 0.0
H2891 H 0.10953 0.19044 0.33634 0.0
H2892 H 0.10903 0.16627 0.31387 0.0
H2893 H 0.12635 0.19283 0.37237 0.0
H2894 H 0.12606 0.22069 0.30986 0.0
H2895 H 0.13691 0.22672 0.27682 0.0
H2896 H 0.18479 0.24332 0.3009 0.0
H2897 H 0.17428 0.23708 0.33408 0.0
C2898 C 0.11929 0.26752 0.4132 0.0
C2899 C 0.13398 0.27721 0.4174 0.0
C2900 C 0.11995 0.25415 0.3997 0.0
C2901 C 0.13535 0.25002 0.39026 0.0
C2902 C 0.1499 0.25998 0.39397 0.0
C2903 C 0.14923 0.27342 0.40738 0.0
C2904 C 0.13632 0.23523 0.37665 0.0
C2905 C 0.14281 0.2378 0.35783 0.0
C2906 C 0.13053 0.21873 0.38197 0.0
C2907 C 0.125 0.21467 0.40203 0.0
C2908 C 0.1359 0.21793 0.41787 0.0
C2909 C 0.13064 0.21407 0.43682 0.0
C2910 C 0.11457 0.2068 0.44006 0.0
C2911 C 0.10375 0.20334 0.42434 0.0
C2912 C 0.10894 0.20722 0.40536 0.0
C2913 C 0.15209 0.17322 0.31489 0.0
C2914 C 0.13653 0.16551 0.3096 0.0
C2915 C 0.1523 0.1872 0.32765 0.0
C2916 C 0.13698 0.19355 0.33551 0.0
C2917 C 0.12148 0.18577 0.3304 0.0
C2918 C 0.12123 0.172 0.31745 0.0
C2919 C 0.13699 0.20813 0.34934 0.0
C2920 C 0.13071 0.20548 0.3682 0.0
C2921 C 0.14318 0.22448 0.34415 0.0
C2922 C 0.14949 0.2282 0.32433 0.0
C2923 C 0.13896 0.22545 0.30806 0.0
C2924 C 0.14503 0.22894 0.28933 0.0
C2925 C 0.16155 0.23534 0.28675 0.0
C2926 C 0.17202 0.23832 0.30291 0.0
C2927 C 0.16602 0.2348 0.32167 0.0
H2928 H 0.16623 0.23805 0.27223 0.0
H2929 H 0.11052 0.20382 0.45475 0.0
H2930 H 0.09411 0.91113 0.57529 0.0
H2931 H 0.07039 0.91031 0.59868 0.0
H2932 H 0.0483 0.86774 0.56789 0.0
H2933 H 0.07211 0.86817 0.5447 0.0
H2934 H 0.02499 0.89831 0.57967 0.0
H2935 H 0.06448 0.85515 0.60448 0.0
H2936 H 0.09339 0.84583 0.61414 0.0
H2937 H 0.09583 0.88628 0.65635 0.0
H2938 H 0.06695 0.89589 0.6468 0.0
H2939 H 0.96158 0.87085 0.64618 0.0
H2940 H 0.98514 0.87177 0.6228 0.0
H2941 H 0.0159 0.89944 0.66431 0.0
H2942 H 0.99272 0.89787 0.68807 0.0
H2943 H 0.03533 0.87717 0.6469 0.0
H2944 H 0.99626 0.91958 0.62525 0.0
H2945 H 0.9686 0.93181 0.61519 0.0
H2946 H 0.96634 0.89692 0.56695 0.0
H2947 H 0.99388 0.8843 0.57691 0.0
C2948 C 0.08413 0.90169 0.57336 0.0
C2949 C 0.08499 0.88977 0.55803 0.0
C2950 C 0.07061 0.90122 0.58678 0.0
C2951 C 0.05757 0.88901 0.58495 0.0
C2952 C 0.05818 0.87734 0.56946 0.0
C2953 C 0.07182 0.8776 0.55624 0.0
C2954 C 0.04357 0.88805 0.59956 0.0
C2955 C 0.02714 0.89348 0.59429 0.0
C2956 C 0.04654 0.88228 0.61878 0.0
C2957 C 0.06364 0.87626 0.6249 0.0
C2958 C 0.07122 0.86207 0.61578 0.0
C2959 C 0.08758 0.85673 0.62124 0.0
C2960 C 0.09645 0.86546 0.63584 0.0
C2961 C 0.08894 0.87951 0.64506 0.0
C2962 C 0.07257 0.88489 0.63967 0.0
C2963 C 0.97341 0.87695 0.65047 0.0
C2964 C 0.97511 0.88437 0.66906 0.0
C2965 C 0.98686 0.87763 0.63696 0.0
C2966 C 0.0023 0.88589 0.64162 0.0
C2967 C 0.00414 0.89304 0.66028 0.0
C2968 C 0.99075 0.89229 0.67381 0.0
C2969 C 0.01645 0.88723 0.62703 0.0
C2970 C 0.03301 0.88195 0.63229 0.0
C2971 C 0.01365 0.89345 0.60786 0.0
C2972 C 0.99704 0.9009 0.60191 0.0
C2973 C 0.98979 0.91442 0.61259 0.0
C2974 C 0.97414 0.92144 0.6069 0.0
C2975 C 0.9657 0.91512 0.59047 0.0
C2976 C 0.97288 0.90178 0.57969 0.0
C2977 C 0.98851 0.89469 0.58534 0.0
H2978 H 0.9536 0.92059 0.58606 0.0
H2979 H 0.10913 0.86134 0.64003 0.0
H2980 H 0.38778 0.83021 0.80537 0.0
H2981 H 0.38735 0.80593 0.82756 0.0
H2982 H 0.33347 0.81369 0.83758 0.0
H2983 H 0.33397 0.83857 0.81581 0.0
H2984 H 0.34789 0.80681 0.87047 0.0
H2985 H 0.35023 0.77984 0.8082 0.0
H2986 H 0.36125 0.77418 0.77515 0.0
H2987 H 0.40976 0.75939 0.79915 0.0
H2988 H 0.39909 0.76523 0.83233 0.0
H2989 H 0.33848 0.72665 0.91958 0.0
H2990 H 0.33607 0.75037 0.89649 0.0
H2991 H 0.3902 0.74741 0.88506 0.0
H2992 H 0.39269 0.72372 0.90803 0.0
H2993 H 0.3738 0.75123 0.85221 0.0
H2994 H 0.37149 0.77937 0.91446 0.0
H2995 H 0.36017 0.78487 0.94742 0.0
H2996 H 0.31106 0.7971 0.92314 0.0
H2997 H 0.32206 0.7914 0.89006 0.0
C2998 C 0.37576 0.82672 0.81213 0.0
C2999 C 0.36085 0.8363 0.8086 0.0
C3000 C 0.37553 0.81271 0.8248 0.0
C3001 C 0.3603 0.80763 0.83401 0.0
C3002 C 0.34538 0.81723 0.83061 0.0
C3003 C 0.34566 0.83143 0.81808 0.0
C3004 C 0.36015 0.79261 0.84753 0.0
C3005 C 0.3533 0.79458 0.86629 0.0
C3006 C 0.36751 0.77666 0.84248 0.0
C3007 C 0.37393 0.77314 0.82264 0.0
C3008 C 0.36329 0.77551 0.80638 0.0
C3009 C 0.36946 0.77225 0.78765 0.0
C3010 C 0.38621 0.76648 0.78505 0.0
C3011 C 0.3968 0.76389 0.80118 0.0
C3012 C 0.3907 0.76717 0.81995 0.0
C3013 C 0.3499 0.73111 0.91226 0.0
C3014 C 0.36578 0.7232 0.91572 0.0
C3015 C 0.34851 0.74472 0.89905 0.0
C3016 C 0.36299 0.7509 0.88915 0.0
C3017 C 0.37881 0.74292 0.89245 0.0
C3018 C 0.3802 0.72928 0.90557 0.0
C3019 C 0.36174 0.76551 0.87517 0.0
C3020 C 0.36832 0.76344 0.85632 0.0
C3021 C 0.35409 0.78133 0.88013 0.0
C3022 C 0.34751 0.78476 0.89991 0.0
C3023 C 0.35825 0.78309 0.9162 0.0
C3024 C 0.3519 0.78626 0.93488 0.0
C3025 C 0.33489 0.79128 0.93738 0.0
C3026 C 0.32421 0.79318 0.92119 0.0
C3027 C 0.33049 0.78998 0.90249 0.0
H3028 H 0.33 0.79373 0.95187 0.0
H3029 H 0.39097 0.76396 0.77051 0.0
H3030 H 0.41371 0.13728 0.07052 0.0
H3031 H 0.4377 0.13703 0.09308 0.0
H3032 H 0.45014 0.08558 0.07525 0.0
H3033 H 0.42499 0.08537 0.05378 0.0
H3034 H 0.45639 0.08712 0.11065 0.0
H3035 H 0.47302 0.12486 0.05939 0.0
H3036 H 0.47015 0.14902 0.03651 0.0
H3037 H 0.4672 0.18402 0.08461 0.0
H3038 H 0.46983 0.16004 0.10777 0.0
H3039 H 0.53972 0.0951 0.15518 0.0
H3040 H 0.51618 0.09141 0.13199 0.0
H3041 H 0.49362 0.13855 0.15196 0.0
H3042 H 0.51691 0.14226 0.17513 0.0
H3043 H 0.49455 0.13765 0.11336 0.0
H3044 H 0.47738 0.0982 0.16431 0.0
H3045 H 0.48143 0.07335 0.18597 0.0
H3046 H 0.48757 0.04068 0.13615 0.0
H3047 H 0.48378 0.0654 0.11421 0.0
C3048 C 0.42159 0.12591 0.0714 0.0
C3049 C 0.41766 0.11142 0.06022 0.0
C3050 C 0.43545 0.12582 0.0842 0.0
C3051 C 0.4463 0.11153 0.08546 0.0
C3052 C 0.44216 0.09686 0.0745 0.0
C3053 C 0.42783 0.09674 0.06217 0.0
C3054 C 0.46171 0.11192 0.09838 0.0
C3055 C 0.46487 0.09807 0.11092 0.0
C3056 C 0.47287 0.12621 0.09911 0.0
C3057 C 0.47148 0.14066 0.08527 0.0
C3058 C 0.47167 0.13771 0.06506 0.0
C3059 C 0.4701 0.15136 0.05206 0.0
C3060 C 0.46846 0.16804 0.0591 0.0
C3061 C 0.46845 0.1711 0.07917 0.0
C3062 C 0.47001 0.15749 0.09225 0.0
C3063 C 0.52964 0.10457 0.1548 0.0
C3064 C 0.53032 0.11905 0.16696 0.0
C3065 C 0.51617 0.10245 0.14151 0.0
C3066 C 0.50304 0.11467 0.14026 0.0
C3067 C 0.50362 0.12898 0.15256 0.0
C3068 C 0.51703 0.13112 0.16576 0.0
C3069 C 0.48894 0.11305 0.12577 0.0
C3070 C 0.48609 0.12666 0.11291 0.0
C3071 C 0.47832 0.09845 0.12453 0.0
C3072 C 0.4805 0.08364 0.13768 0.0
C3073 C 0.47973 0.08573 0.158 0.0
C3074 C 0.48195 0.07168 0.17032 0.0
C3075 C 0.48481 0.05546 0.16244 0.0
C3076 C 0.48539 0.05325 0.14223 0.0
C3077 C 0.4832 0.06727 0.12986 0.0
H3078 H 0.48653 0.04459 0.17201 0.0
H3079 H 0.46721 0.17859 0.049 0.0
H3080 H 0.12462 0.81948 0.22479 0.0
H3081 H 0.12435 0.79588 0.20144 0.0
H3082 H 0.16332 0.82106 0.16752 0.0
H3083 H 0.16401 0.84455 0.1911 0.0
H3084 H 0.11687 0.79868 0.16097 0.0
H3085 H 0.1849 0.79952 0.15514 0.0
H3086 H 0.2116 0.80199 0.17417 0.0
H3087 H 0.19116 0.76811 0.21765 0.0
H3088 H 0.16424 0.76579 0.199 0.0
H3089 H 0.12649 0.74304 0.08012 0.0
H3090 H 0.13006 0.76676 0.10281 0.0
H3091 H 0.14614 0.73158 0.14763 0.0
H3092 H 0.14339 0.70783 0.12473 0.0
H3093 H 0.16537 0.75919 0.14898 0.0
H3094 H 0.10493 0.74851 0.1458 0.0
H3095 H 0.07688 0.74501 0.12992 0.0
H3096 H 0.07985 0.79621 0.1076 0.0
H3097 H 0.10805 0.79992 0.12311 0.0
C3098 C 0.13335 0.81989 0.21253 0.0
C3099 C 0.14444 0.83386 0.20991 0.0
C3100 C 0.13313 0.8064 0.19917 0.0
C3101 C 0.14397 0.80657 0.18287 0.0
C3102 C 0.15517 0.82042 0.18026 0.0
C3103 C 0.1555 0.83388 0.19373 0.0
C3104 C 0.14291 0.7926 0.16823 0.0
C3105 C 0.12753 0.79016 0.15814 0.0
C3106 C 0.15661 0.78127 0.16481 0.0
C3107 C 0.17266 0.78261 0.17586 0.0
C3108 C 0.18615 0.79268 0.1688 0.0
C3109 C 0.20127 0.79408 0.17952 0.0
C3110 C 0.20306 0.78524 0.19713 0.0
C3111 C 0.18973 0.775 0.20406 0.0
C3112 C 0.17453 0.7737 0.19348 0.0
C3113 C 0.13105 0.74031 0.0947 0.0
C3114 C 0.13461 0.72341 0.10053 0.0
C3115 C 0.13288 0.75392 0.10776 0.0
C3116 C 0.13811 0.75099 0.12707 0.0
C3117 C 0.142 0.73421 0.13285 0.0
C3118 C 0.14025 0.72058 0.11977 0.0
C3119 C 0.13936 0.76536 0.14128 0.0
C3120 C 0.15474 0.76782 0.15146 0.0
C3121 C 0.12554 0.77667 0.14481 0.0
C3122 C 0.10866 0.77442 0.13542 0.0
C3123 C 0.09966 0.75896 0.13736 0.0
C3124 C 0.08373 0.75695 0.12845 0.0
C3125 C 0.07661 0.77036 0.11771 0.0
C3126 C 0.0854 0.78582 0.11589 0.0
C3127 C 0.10134 0.78789 0.12473 0.0
H3128 H 0.06426 0.76878 0.11084 0.0
H3129 H 0.2148 0.78629 0.20539 0.0
H3130 H 0.51577 0.9037 0.33532 0.0
H3131 H 0.49216 0.90619 0.3585 0.0
H3132 H 0.51692 0.87001 0.39662 0.0
H3133 H 0.54067 0.86761 0.3737 0.0
H3134 H 0.48368 0.86255 0.39266 0.0
H3135 H 0.51649 0.91328 0.40628 0.0
H3136 H 0.53088 0.9404 0.39813 0.0
H3137 H 0.48326 0.96144 0.37832 0.0
H3138 H 0.46864 0.93435 0.38607 0.0
H3139 H 0.4326 0.87283 0.47616 0.0
H3140 H 0.45664 0.87259 0.45351 0.0
H3141 H 0.43242 0.91204 0.41928 0.0
H3142 H 0.40859 0.91281 0.44241 0.0
H3143 H 0.46486 0.91799 0.42036 0.0
H3144 H 0.43163 0.86825 0.40671 0.0
H3145 H 0.41653 0.84137 0.4142 0.0
H3146 H 0.46373 0.81844 0.4325 0.0
H3147 H 0.47906 0.84529 0.42549 0.0
C3148 C 0.51636 0.89646 0.34876 0.0
C3149 C 0.53021 0.88545 0.35257 0.0
C3150 C 0.50279 0.89785 0.362 0.0
C3151 C 0.50278 0.88837 0.37941 0.0
C3152 C 0.51658 0.87741 0.38327 0.0
C3153 C 0.53015 0.87602 0.37008 0.0
C3154 C 0.48833 0.88964 0.39349 0.0
C3155 C 0.47971 0.87464 0.39891 0.0
C3156 C 0.48274 0.90547 0.4012 0.0
C3157 C 0.49152 0.92174 0.39656 0.0
C3158 C 0.50912 0.92365 0.40003 0.0
C3159 C 0.51732 0.93902 0.39551 0.0
C3160 C 0.508 0.95262 0.38766 0.0
C3161 C 0.49047 0.95089 0.38436 0.0
C3162 C 0.48222 0.93554 0.38882 0.0
C3163 C 0.43244 0.88158 0.46392 0.0
C3164 C 0.41863 0.89281 0.46107 0.0
C3165 C 0.44616 0.88133 0.45086 0.0
C3166 C 0.44621 0.89199 0.43435 0.0
C3167 C 0.43268 0.90361 0.43182 0.0
C3168 C 0.41905 0.90405 0.44507 0.0
C3169 C 0.46026 0.89086 0.41969 0.0
C3170 C 0.46879 0.90587 0.41411 0.0
C3171 C 0.46564 0.87505 0.41166 0.0
C3172 C 0.45647 0.85883 0.41572 0.0
C3173 C 0.43877 0.85751 0.41246 0.0
C3174 C 0.43017 0.84228 0.41661 0.0
C3175 C 0.43916 0.82822 0.42384 0.0
C3176 C 0.45677 0.82935 0.42692 0.0
C3177 C 0.46543 0.84457 0.42285 0.0
H3178 H 0.43249 0.81642 0.42701 0.0
H3179 H 0.51437 0.96451 0.38419 0.0
H3180 H 0.33881 0.28043 0.60805 0.0
H3181 H 0.3371 0.25671 0.63107 0.0
H3182 H 0.39125 0.248 0.62482 0.0
H3183 H 0.39292 0.27114 0.60099 0.0
H3184 H 0.37577 0.21863 0.62492 0.0
H3185 H 0.37333 0.26794 0.66561 0.0
H3186 H 0.36275 0.29585 0.67706 0.0
H3187 H 0.3133 0.27401 0.68795 0.0
H3188 H 0.32353 0.24601 0.67625 0.0
H3189 H 0.38953 0.17051 0.71136 0.0
H3190 H 0.38871 0.19434 0.68837 0.0
H3191 H 0.33389 0.19014 0.68491 0.0
H3192 H 0.33461 0.16584 0.70772 0.0
H3193 H 0.3485 0.22553 0.6898 0.0
H3194 H 0.35252 0.1755 0.64948 0.0
H3195 H 0.36477 0.14782 0.63956 0.0
H3196 H 0.41336 0.17178 0.62949 0.0
H3197 H 0.40146 0.19957 0.63972 0.0
C3198 C 0.35036 0.2734 0.6114 0.0
C3199 C 0.36602 0.27781 0.60257 0.0
C3200 C 0.34939 0.25991 0.62479 0.0
C3201 C 0.36408 0.2506 0.62994 0.0
C3202 C 0.37972 0.25495 0.62117 0.0
C3203 C 0.38069 0.26837 0.60767 0.0
C3204 C 0.36314 0.23625 0.64431 0.0
C3205 C 0.36995 0.22026 0.63916 0.0
C3206 C 0.35533 0.23813 0.66286 0.0
C3207 C 0.34914 0.25493 0.6699 0.0
C3208 C 0.36016 0.26912 0.6703 0.0
C3209 C 0.35423 0.28496 0.67685 0.0
C3210 C 0.33735 0.28671 0.68319 0.0
C3211 C 0.32637 0.27263 0.68301 0.0
C3212 C 0.33222 0.25678 0.67643 0.0
C3213 C 0.37725 0.1747 0.70588 0.0
C3214 C 0.36211 0.16628 0.71146 0.0
C3215 C 0.37683 0.18831 0.69268 0.0
C3216 C 0.36125 0.19403 0.68495 0.0
C3217 C 0.34604 0.18596 0.69078 0.0
C3218 C 0.34648 0.17206 0.70374 0.0
C3219 C 0.3611 0.20809 0.67032 0.0
C3220 C 0.35417 0.22398 0.67547 0.0
C3221 C 0.369 0.2062 0.65189 0.0
C3222 C 0.37614 0.18957 0.64552 0.0
C3223 C 0.36586 0.17484 0.64531 0.0
C3224 C 0.37273 0.15914 0.63961 0.0
C3225 C 0.38985 0.15803 0.63393 0.0
C3226 C 0.40011 0.17265 0.63391 0.0
C3227 C 0.39331 0.18838 0.63965 0.0
H3228 H 0.39514 0.14586 0.62951 0.0
H3229 H 0.33279 0.29898 0.68829 0.0
H3230 H 0.08644 0.08391 0.95101 0.0
H3231 H 0.06202 0.0839 0.92869 0.0
H3232 H 0.05171 0.13654 0.94324 0.0
H3233 H 0.07563 0.13644 0.96599 0.0
H3234 H 0.02293 0.1204 0.9409 0.0
H3235 H 0.0729 0.12349 0.89996 0.0
H3236 H 0.10083 0.11368 0.88759 0.0
H3237 H 0.07833 0.06617 0.86966 0.0
H3238 H 0.05032 0.07561 0.8822 0.0
H3239 H 0.97115 0.14522 0.86188 0.0
H3240 H 0.99456 0.14178 0.88499 0.0
H3241 H 1.00005 0.08904 0.86786 0.0
H3242 H 0.97662 0.09246 0.84446 0.0
H3243 H 0.03063 0.10313 0.87185 0.0
H3244 H 0.98029 0.10076 0.9114 0.0
H3245 H 0.95242 0.11074 0.92374 0.0
H3246 H 0.97567 0.15706 0.94427 0.0
H3247 H 0.00365 0.14746 0.93179 0.0
C3248 C 0.07888 0.09543 0.94958 0.0
C3249 C 0.08302 0.11016 0.96035 0.0
C3250 C 0.06497 0.09546 0.93669 0.0
C3251 C 0.05509 0.11031 0.93399 0.0
C3252 C 0.05905 0.1249 0.94501 0.0
C3253 C 0.0728 0.12482 0.95805 0.0
C3254 C 0.04076 0.11086 0.9196 0.0
C3255 C 0.0247 0.11678 0.92576 0.0
C3256 C 0.04282 0.10576 0.8999 0.0
C3257 C 0.05957 0.1002 0.89212 0.0
C3258 C 0.07394 0.11092 0.89346 0.0
C3259 C 0.08978 0.10543 0.88643 0.0
C3260 C 0.09136 0.0893 0.87787 0.0
C3261 C 0.07709 0.07865 0.8763 0.0
C3262 C 0.06123 0.08406 0.88335 0.0
C3263 C 0.97719 0.13282 0.86313 0.0
C3264 C 0.97183 0.11907 0.85141 0.0
C3265 C 0.99063 0.13087 0.87637 0.0
C3266 C 0.99895 0.11505 0.87847 0.0
C3267 C 0.99384 0.10136 0.86657 0.0
C3268 C 0.98044 0.10334 0.85318 0.0
C3269 C 0.01289 0.11288 0.89313 0.0
C3270 C 0.02885 0.10666 0.88701 0.0
C3271 C 0.01077 0.11773 0.91288 0.0
C3272 C 0.99403 0.12343 0.9206 0.0
C3273 C 0.97944 0.11311 0.91847 0.0
C3274 C 0.96362 0.11869 0.92548 0.0
C3275 C 0.96227 0.13453 0.93477 0.0
C3276 C 0.97674 0.1448 0.93708 0.0
C3277 C 0.99258 0.13928 0.93006 0.0
H3278 H 0.95002 0.13883 0.9402 0.0
H3279 H 0.10363 0.08507 0.87243 0.0
H3280 H 0.83631 0.83074 0.71341 0.0
H3281 H 0.83522 0.80603 0.69127 0.0
H3282 H 0.88861 0.81284 0.67786 0.0
H3283 H 0.88991 0.83714 0.70012 0.0
H3284 H 0.86675 0.80884 0.6446 0.0
H3285 H 0.87926 0.78228 0.70627 0.0
H3286 H 0.87394 0.77563 0.74088 0.0
H3287 H 0.82555 0.75324 0.72593 0.0
H3288 H 0.83049 0.76008 0.69124 0.0
H3289 H 0.89321 0.73419 0.59703 0.0
H3290 H 0.88961 0.75791 0.61954 0.0
H3291 H 0.83975 0.73903 0.6355 0.0
H3292 H 0.84354 0.71471 0.61343 0.0
H3293 H 0.85645 0.74945 0.66717 0.0
H3294 H 0.84415 0.77387 0.60561 0.0
H3295 H 0.84851 0.7808 0.5709 0.0
H3296 H 0.8947 0.80772 0.58508 0.0
H3297 H 0.89077 0.80066 0.61985 0.0
C3298 C 0.84781 0.82691 0.70579 0.0
C3299 C 0.86322 0.83584 0.70863 0.0
C3300 C 0.84718 0.81279 0.69319 0.0
C3301 C 0.86186 0.80758 0.68298 0.0
C3302 C 0.87715 0.81662 0.68562 0.0
C3303 C 0.87788 0.83046 0.69844 0.0
C3304 C 0.86141 0.79284 0.66932 0.0
C3305 C 0.86463 0.79583 0.64955 0.0
C3306 C 0.85809 0.77595 0.6756 0.0
C3307 C 0.85511 0.77192 0.69632 0.0
C3308 C 0.8674 0.77613 0.71043 0.0
C3309 C 0.86447 0.77229 0.73003 0.0
C3310 C 0.84938 0.76409 0.73562 0.0
C3311 C 0.83721 0.75965 0.72159 0.0
C3312 C 0.84005 0.76351 0.70197 0.0
C3313 C 0.88153 0.73487 0.60547 0.0
C3314 C 0.86872 0.72236 0.60343 0.0
C3315 C 0.8794 0.74864 0.6182 0.0
C3316 C 0.8643 0.75046 0.62906 0.0
C3317 C 0.85149 0.73797 0.62723 0.0
C3318 C 0.85364 0.72412 0.61448 0.0
C3319 C 0.8621 0.76537 0.64238 0.0
C3320 C 0.85838 0.76245 0.6621 0.0
C3321 C 0.8648 0.78239 0.63602 0.0
C3322 C 0.86727 0.78659 0.61522 0.0
C3323 C 0.85532 0.78113 0.60127 0.0
C3324 C 0.8577 0.7851 0.58161 0.0
C3325 C 0.8719 0.79466 0.57578 0.0
C3326 C 0.88373 0.80029 0.58961 0.0
C3327 C 0.88144 0.79631 0.60929 0.0
H3328 H 0.87371 0.79773 0.56054 0.0
H3329 H 0.84714 0.76111 0.75081 0.0
H3330 H 0.02246 0.08756 0.34849 0.0
H3331 H 0.99911 0.08671 0.37209 0.0
H3332 H 0.00688 0.14009 0.3848 0.0
H3333 H 0.03009 0.14115 0.36096 0.0
H3334 H 0.00188 0.12244 0.4177 0.0
H3335 H 0.9734 0.12652 0.35619 0.0
H3336 H 0.96649 0.11815 0.32245 0.0
H3337 H 0.94955 0.06898 0.34258 0.0
H3338 H 0.95663 0.07699 0.37641 0.0
H3339 H 0.92383 0.13888 0.46696 0.0
H3340 H 0.94807 0.1384 0.44464 0.0
H3341 H 0.93731 0.08576 0.43067 0.0
H3342 H 0.91267 0.08628 0.45272 0.0
H3343 H 0.94414 0.10235 0.39862 0.0
H3344 H 0.9721 0.09832 0.46021 0.0
H3345 H 0.97906 0.10657 0.49397 0.0
H3346 H 0.99714 0.15534 0.47387 0.0
H3347 H 0.99001 0.14746 0.44002 0.0
C3348 C 0.01915 0.0992 0.35614 0.0
C3349 C 0.02819 0.11447 0.35261 0.0
C3350 C 0.00576 0.09867 0.3697 0.0
C3351 C 1.001 0.11339 0.38008 0.0
C3352 C 0.01025 0.12854 0.37699 0.0
C3353 C 0.02363 0.1291 0.36338 0.0
C3354 C 0.98641 0.11299 0.39418 0.0
C3355 C 0.98921 0.11825 0.41343 0.0
C3356 C 0.96993 0.1071 0.38893 0.0
C3357 C 0.96574 0.10226 0.3687 0.0
C3358 C 0.96835 0.11387 0.35336 0.0
C3359 C 0.96438 0.1092 0.33425 0.0
C3360 C 0.95764 0.09302 0.33036 0.0
C3361 C 0.95481 0.08149 0.3456 0.0
C3362 C 0.9588 0.08608 0.36474 0.0
C3363 C 0.92666 0.12711 0.45931 0.0
C3364 C 0.91629 0.11256 0.46182 0.0
C3365 C 0.94064 0.12685 0.44655 0.0
C3366 C 0.94481 0.11197 0.43611 0.0
C3367 C 0.93448 0.0974 0.43858 0.0
C3368 C 0.9204 0.09768 0.45129 0.0
C3369 C 0.95958 0.11181 0.4222 0.0
C3370 C 0.95682 0.10647 0.40295 0.0
C3371 C 0.97611 0.11761 0.42747 0.0
C3372 C 0.98035 0.12239 0.4477 0.0
C3373 C 0.97742 0.11086 0.46305 0.0
C3374 C 0.98141 0.11546 0.48217 0.0
C3375 C 0.98849 0.13149 0.48607 0.0
C3376 C 0.99162 0.14294 0.47083 0.0
C3377 C 0.98761 0.13842 0.45168 0.0
H3378 H 0.99158 0.13503 0.5009 0.0
H3379 H 0.95457 0.08943 0.31554 0.0
H3380 H 0.61784 0.26383 0.08661 0.0
H3381 H 0.62125 0.24051 0.1099 0.0
H3382 H 0.65673 0.27094 0.14314 0.0
H3383 H 0.6538 0.29426 0.11948 0.0
H3384 H 0.66746 0.23739 0.13942 0.0
H3385 H 0.61571 0.26677 0.15791 0.0
H3386 H 0.58713 0.27899 0.15195 0.0
H3387 H 0.56836 0.22957 0.13523 0.0
H3388 H 0.5969 0.2171 0.14081 0.0
H3389 H 0.66652 0.18099 0.22158 0.0
H3390 H 0.66594 0.20568 0.19949 0.0
H3391 H 0.62152 0.18468 0.17075 0.0
H3392 H 0.62134 0.16097 0.19388 0.0
H3393 H 0.61603 0.21517 0.17324 0.0
H3394 H 0.66649 0.18535 0.1519 0.0
H3395 H 0.69484 0.17198 0.15562 0.0
H3396 H 0.71583 0.21986 0.17458 0.0
H3397 H 0.68754 0.23347 0.17123 0.0
C3398 C 0.62657 0.26554 0.0987 0.0
C3399 C 0.63555 0.281 0.10112 0.0
C3400 C 0.62838 0.25221 0.11213 0.0
C3401 C 0.63909 0.25402 0.12842 0.0
C3402 C 0.64834 0.26926 0.13073 0.0
C3403 C 0.64653 0.28265 0.11727 0.0
C3404 C 0.64031 0.24009 0.1432 0.0
C3405 C 0.65626 0.23263 0.14702 0.0
C3406 C 0.62566 0.23358 0.15275 0.0
C3407 C 0.60846 0.24104 0.14965 0.0
C3408 C 0.60551 0.25853 0.15286 0.0
C3409 C 0.58932 0.2655 0.14955 0.0
C3410 C 0.57595 0.25507 0.14318 0.0
C3411 C 0.57873 0.23764 0.14015 0.0
C3412 C 0.5949 0.23061 0.1434 0.0
C3413 C 0.65671 0.18174 0.21048 0.0
C3414 C 0.64397 0.16917 0.20937 0.0
C3415 C 0.65643 0.19577 0.1977 0.0
C3416 C 0.64384 0.19708 0.18305 0.0
C3417 C 0.63134 0.1842 0.18187 0.0
C3418 C 0.63127 0.17057 0.19503 0.0
C3419 C 0.6432 0.21196 0.16927 0.0
C3420 C 0.62731 0.21976 0.16568 0.0
C3421 C 0.65787 0.2185 0.15962 0.0
C3422 C 0.67488 0.21037 0.16149 0.0
C3423 C 0.67714 0.193 0.15697 0.0
C3424 C 0.69319 0.18538 0.159 0.0
C3425 C 0.70712 0.19505 0.16538 0.0
C3426 C 0.70503 0.21238 0.16968 0.0
C3427 C 0.68899 0.22005 0.1677 0.0
H3428 H 0.71954 0.18913 0.16694 0.0
H3429 H 0.56342 0.26049 0.14063 0.0
H3430 H 0.47061 0.91539 0.8534 0.0
H3431 H 0.49404 0.91794 0.87682 0.0
H3432 H 0.49923 0.8631 0.87802 0.0
H3433 H 0.47599 0.86043 0.85454 0.0
H3434 H 0.50039 0.87543 0.91383 0.0
H3435 H 0.5278 0.88974 0.85308 0.0
H3436 H 0.53162 0.90605 0.82261 0.0
H3437 H 0.53721 0.95243 0.85546 0.0
H3438 H 0.53316 0.9364 0.88611 0.0
H3439 H 0.5795 0.86582 0.96077 0.0
H3440 H 0.55571 0.86603 0.93803 0.0
H3441 H 0.55815 0.92108 0.93508 0.0
H3442 H 0.58291 0.92079 0.95708 0.0
H3443 H 0.55205 0.91043 0.90111 0.0
H3444 H 0.5256 0.89675 0.96183 0.0
H3445 H 0.52153 0.88102 0.99266 0.0
H3446 H 0.51328 0.83453 0.96075 0.0
H3447 H 0.51756 0.84995 0.92975 0.0
C3448 C 0.47683 0.90386 0.85849 0.0
C3449 C 0.4713 0.88769 0.852 0.0
C3450 C 0.49025 0.90535 0.87192 0.0
C3451 C 0.49859 0.89073 0.8791 0.0
C3452 C 0.49302 0.87459 0.87277 0.0
C3453 C 0.47962 0.87309 0.85937 0.0
C3454 C 0.51292 0.8921 0.89342 0.0
C3455 C 0.51177 0.88294 0.91092 0.0
C3456 C 0.52756 0.90235 0.89011 0.0
C3457 C 0.52996 0.91194 0.87178 0.0
C3458 C 0.52969 0.90344 0.85376 0.0
C3459 C 0.53193 0.91262 0.83648 0.0
C3460 C 0.5346 0.93027 0.83709 0.0
C3461 C 0.5351 0.93877 0.855 0.0
C3462 C 0.53283 0.92965 0.87232 0.0
C3463 C 0.57493 0.87802 0.95543 0.0
C3464 C 0.583 0.89333 0.96098 0.0
C3465 C 0.56117 0.87813 0.94246 0.0
C3466 C 0.55463 0.8936 0.93515 0.0
C3467 C 0.56278 0.90894 0.94056 0.0
C3468 C 0.5769 0.9088 0.95322 0.0
C3469 C 0.53964 0.8936 0.92153 0.0
C3470 C 0.54065 0.90301 0.90415 0.0
C3471 C 0.52476 0.8837 0.92503 0.0
C3472 C 0.52205 0.87445 0.94356 0.0
C3473 C 0.52302 0.88315 0.96143 0.0
C3474 C 0.52067 0.8743 0.97891 0.0
C3475 C 0.51719 0.85678 0.97867 0.0
C3476 C 0.516 0.84809 0.96092 0.0
C3477 C 0.51837 0.85687 0.9434 0.0
H3478 H 0.51539 0.84995 0.99223 0.0
H3479 H 0.53633 0.93736 0.82369 0.0
H3480 H 0.85241 0.26276 0.93792 0.0
H3481 H 0.84887 0.23925 0.91486 0.0
H3482 H 0.87547 0.2683 0.8708 0.0
H3483 H 0.87824 0.29218 0.89339 0.0
H3484 H 0.85005 0.25287 0.85467 0.0
H3485 H 0.89476 0.2351 0.89723 0.0
H3486 H 0.90877 0.22841 0.92851 0.0
H3487 H 0.87099 0.18991 0.94022 0.0
H3488 H 0.8566 0.19659 0.90914 0.0
H3489 H 0.87584 0.18361 0.79323 0.0
H3490 H 0.87533 0.20753 0.8162 0.0
H3491 H 0.83934 0.18032 0.85232 0.0
H3492 H 0.83956 0.1564 0.82922 0.0
H3493 H 0.86831 0.19423 0.87265 0.0
H3494 H 0.8248 0.21211 0.82784 0.0
H3495 H 0.81303 0.21858 0.79533 0.0
H3496 H 0.85152 0.257 0.78675 0.0
H3497 H 0.8637 0.25052 0.81909 0.0
C3498 C 0.85729 0.26428 0.92324 0.0
C3499 C 0.86573 0.27941 0.91763 0.0
C3500 C 0.85545 0.2507 0.91012 0.0
C3501 C 0.86219 0.2518 0.89115 0.0
C3502 C 0.87025 0.26703 0.88537 0.0
C3503 C 0.87197 0.28065 0.89841 0.0
C3504 C 0.86088 0.23716 0.8773 0.0
C3505 C 0.85423 0.24011 0.85862 0.0
C3506 C 0.86603 0.22037 0.88234 0.0
C3507 C 0.8745 0.2165 0.90106 0.0
C3508 C 0.88935 0.22534 0.90659 0.0
C3509 C 0.89737 0.22153 0.92426 0.0
C3510 C 0.89073 0.20879 0.93638 0.0
C3511 C 0.87608 0.19981 0.93085 0.0
C3512 C 0.86799 0.20361 0.91322 0.0
C3513 C 0.86766 0.18278 0.80594 0.0
C3514 C 0.85765 0.16813 0.80932 0.0
C3515 C 0.86739 0.19647 0.81905 0.0
C3516 C 0.85725 0.19573 0.83592 0.0
C3517 C 0.84722 0.18116 0.83935 0.0
C3518 C 0.84727 0.16756 0.82608 0.0
C3519 C 0.85753 0.21003 0.85018 0.0
C3520 C 0.86403 0.207 0.86887 0.0
C3521 C 0.85253 0.22679 0.84505 0.0
C3522 C 0.84524 0.23071 0.82572 0.0
C3523 C 0.83083 0.22182 0.81892 0.0
C3524 C 0.82408 0.2255 0.80055 0.0
C3525 C 0.83155 0.23816 0.78895 0.0
C3526 C 0.84577 0.24718 0.79573 0.0
C3527 C 0.8526 0.24351 0.81407 0.0
H3528 H 0.8263 0.241 0.77473 0.0
H3529 H 0.89697 0.20584 0.95005 0.0
H3530 H 0.49456 0.12916 0.68769 0.0
H3531 H 0.51812 0.1273 0.66452 0.0
H3532 H 0.4852 0.10196 0.62327 0.0
H3533 H 0.46164 0.10313 0.64675 0.0
H3534 H 0.51635 0.08723 0.62387 0.0
H3535 H 0.49523 0.14476 0.61887 0.0
H3536 H 0.48675 0.17303 0.63145 0.0
H3537 H 0.53757 0.18113 0.65319 0.0
H3538 H 0.54628 0.15279 0.641 0.0
H3539 H 0.57455 0.09625 0.54427 0.0
H3540 H 0.54967 0.09631 0.56591 0.0
H3541 H 0.57644 0.12965 0.60569 0.0
H3542 H 0.60069 0.13061 0.58336 0.0
H3543 H 0.54696 0.14014 0.6048 0.0
H3544 H 0.56826 0.08259 0.61182 0.0
H3545 H 0.57715 0.05404 0.60045 0.0
H3546 H 0.52715 0.04549 0.57657 0.0
H3547 H 0.51804 0.07408 0.58758 0.0
C3548 C 0.49231 0.12294 0.67383 0.0
C3549 C 0.47608 0.1163 0.66919 0.0
C3550 C 0.50581 0.12208 0.66045 0.0
C3551 C 0.50343 0.11474 0.64196 0.0
C3552 C 0.48737 0.10779 0.63738 0.0
C3553 C 0.47384 0.10861 0.65079 0.0
C3554 C 0.51767 0.1145 0.62742 0.0
C3555 C 0.52293 0.09882 0.61951 0.0
C3556 C 0.52655 0.12953 0.62198 0.0
C3557 C 0.52136 0.14661 0.62917 0.0
C3558 C 0.50456 0.15253 0.62645 0.0
C3559 C 0.49972 0.16856 0.6335 0.0
C3560 C 0.51161 0.17885 0.64315 0.0
C3561 C 0.52837 0.17314 0.64573 0.0
C3562 C 0.53327 0.1571 0.63874 0.0
C3563 C 0.57511 0.10353 0.55768 0.0
C3564 C 0.5896 0.1134 0.56211 0.0
C3565 C 0.5609 0.10346 0.57019 0.0
C3566 C 0.56111 0.11269 0.58783 0.0
C3567 C 0.57574 0.12241 0.59226 0.0
C3568 C 0.5897 0.12291 0.57949 0.0
C3569 C 0.54607 0.11276 0.60145 0.0
C3570 C 0.54052 0.12847 0.60915 0.0
C3571 C 0.53709 0.09771 0.60686 0.0
C3572 C 0.54254 0.08052 0.60035 0.0
C3573 C 0.55921 0.07465 0.60404 0.0
C3574 C 0.56428 0.05847 0.59767 0.0
C3575 C 0.55274 0.04798 0.58775 0.0
C3576 C 0.53609 0.05364 0.58423 0.0
C3577 C 0.53096 0.06982 0.59054 0.0
H3578 H 0.55669 0.03545 0.58283 0.0
H3579 H 0.50783 0.19127 0.6486 0.0
H3580 H 0.66872 0.83233 0.31017 0.0
H3581 H 0.66935 0.80756 0.33208 0.0
H3582 H 0.61425 0.80818 0.33496 0.0
H3583 H 0.61357 0.83212 0.31227 0.0
H3584 H 0.66122 0.80194 0.36696 0.0
H3585 H 0.59739 0.77043 0.3448 0.0
H3586 H 0.57903 0.76758 0.31576 0.0
H3587 H 0.62271 0.77436 0.27857 0.0
H3588 H 0.64134 0.77701 0.30741 0.0
H3589 H 0.6333 0.74226 0.43833 0.0
H3590 H 0.63584 0.76546 0.41475 0.0
H3591 H 0.64621 0.72898 0.36917 0.0
H3592 H 0.64399 0.70565 0.39272 0.0
H3593 H 0.62358 0.75168 0.35709 0.0
H3594 H 0.67794 0.75422 0.38783 0.0
H3595 H 0.69834 0.75589 0.41514 0.0
H3596 H 0.67746 0.80447 0.43194 0.0
H3597 H 0.65673 0.80293 0.40492 0.0
C3598 C 0.65676 0.82701 0.31531 0.0
C3599 C 0.6411 0.834 0.30919 0.0
C3600 C 0.65711 0.81289 0.32792 0.0
C3601 C 0.64183 0.80563 0.33494 0.0
C3602 C 0.62622 0.81302 0.32929 0.0
C3603 C 0.62585 0.82682 0.31634 0.0
C3604 C 0.64218 0.79056 0.3484 0.0
C3605 C 0.65299 0.79097 0.36471 0.0
C3606 C 0.63167 0.776 0.34556 0.0
C3607 C 0.62068 0.77408 0.3282 0.0
C3608 C 0.60306 0.77122 0.33041 0.0
C3609 C 0.59261 0.76966 0.314 0.0
C3610 C 0.59969 0.77084 0.29533 0.0
C3611 C 0.61724 0.7735 0.29303 0.0
C3612 C 0.62774 0.77504 0.30939 0.0
C3613 C 0.63644 0.73911 0.42338 0.0
C3614 C 0.63853 0.72197 0.41755 0.0
C3615 C 0.63783 0.75245 0.40987 0.0
C3616 C 0.64139 0.74903 0.39019 0.0
C3617 C 0.64345 0.73197 0.38427 0.0
C3618 C 0.64211 0.71861 0.39778 0.0
C3619 C 0.64244 0.76321 0.37569 0.0
C3620 C 0.63184 0.76265 0.35926 0.0
C3621 C 0.65337 0.77745 0.37823 0.0
C3622 C 0.66569 0.77836 0.39452 0.0
C3623 C 0.6776 0.76517 0.39748 0.0
C3624 C 0.68923 0.76611 0.41288 0.0
C3625 C 0.68916 0.78025 0.42531 0.0
C3626 C 0.67747 0.79351 0.42233 0.0
C3627 C 0.66579 0.79261 0.40698 0.0
H3628 H 0.69819 0.78096 0.43722 0.0
H3629 H 0.59157 0.76967 0.28263 0.0
H3630 H 0.9056 0.90657 0.08131 0.0
H3631 H 0.92968 0.90627 0.10393 0.0
H3632 H 0.96008 0.8793 0.06129 0.0
H3633 H 0.9355 0.87843 0.03932 0.0
H3634 H 0.96645 0.86585 0.09285 0.0
H3635 H 0.96449 0.92526 0.07506 0.0
H3636 H 0.95106 0.95351 0.07053 0.0
H3637 H 0.93946 0.95581 0.13169 0.0
H3638 H 0.95265 0.92748 0.13653 0.0
H3639 H 0.04641 0.87824 0.13894 0.0
H3640 H 0.0225 0.8812 0.11634 0.0
H3641 H 0.99002 0.89761 0.16356 0.0
H3642 H 0.01383 0.89441 0.1864 0.0
H3643 H 0.98493 0.91673 0.1304 0.0
H3644 H 0.98787 0.85687 0.14717 0.0
H3645 H 0.00243 0.82909 0.15078 0.0
H3646 H 0.01375 0.82861 0.0895 0.0
H3647 H 0.99943 0.8565 0.08558 0.0
C3648 C 0.9175 0.90075 0.07671 0.0
C3649 C 0.91873 0.89265 0.05849 0.0
C3650 C 0.93135 0.90066 0.08963 0.0
C3651 C 0.947 0.89308 0.08431 0.0
C3652 C 0.94824 0.88524 0.0659 0.0
C3653 C 0.93422 0.88484 0.05325 0.0
C3654 C 0.96183 0.89264 0.0981 0.0
C3655 C 0.9706 0.87712 0.10073 0.0
C3656 C 0.96718 0.90713 0.10896 0.0
C3657 C 0.95943 0.92422 0.10612 0.0
C3658 C 0.959 0.93177 0.08751 0.0
C3659 C 0.95144 0.94779 0.08489 0.0
C3660 C 0.94438 0.95643 0.1008 0.0
C3661 C 0.94491 0.94909 0.11938 0.0
C3662 C 0.95245 0.93307 0.12207 0.0
C3663 C 0.03418 0.88241 0.14459 0.0
C3664 C 0.03207 0.88592 0.16459 0.0
C3665 C 0.02052 0.88415 0.13161 0.0
C3666 C 0.00438 0.88941 0.13828 0.0
C3667 C 0.00235 0.89352 0.15807 0.0
C3668 C 0.01602 0.89175 0.17111 0.0
C3669 C 0.98953 0.8901 0.12473 0.0
C3670 C 0.98075 0.90558 0.1223 0.0
C3671 C 0.98432 0.87568 0.11382 0.0
C3672 C 0.9927 0.85881 0.11612 0.0
C3673 C 0.99355 0.85087 0.13449 0.0
C3674 C 0.00175 0.83511 0.13659 0.0
C3675 C 0.00904 0.82711 0.12039 0.0
C3676 C 0.0081 0.83483 0.10204 0.0
C3677 C 0.99993 0.8506 0.09986 0.0
H3678 H 0.0154 0.81491 0.12205 0.0
H3679 H 0.93852 0.96883 0.09874 0.0
H3680 H 0.66435 0.67371 0.80511 0.0
H3681 H 0.66472 0.69877 0.82649 0.0
H3682 H 0.61322 0.6873 0.84502 0.0
H3683 H 0.61246 0.6631 0.82274 0.0
H3684 H 0.6146 0.71866 0.84093 0.0
H3685 H 0.65315 0.67934 0.87295 0.0
H3686 H 0.67842 0.66059 0.87517 0.0
H3687 H 0.71123 0.70319 0.86259 0.0
H3688 H 0.68612 0.72214 0.86004 0.0
H3689 H 0.60894 0.76644 0.92726 0.0
H3690 H 0.61213 0.74304 0.90414 0.0
H3691 H 0.65963 0.76461 0.88386 0.0
H3692 H 0.6565 0.78825 0.90706 0.0
H3693 H 0.66191 0.73009 0.8872 0.0
H3694 H 0.62274 0.76951 0.85767 0.0
H3695 H 0.59716 0.78789 0.8564 0.0
H3696 H 0.56501 0.74412 0.86545 0.0
H3697 H 0.59042 0.72552 0.86709 0.0
C3698 C 0.65313 0.6766 0.81375 0.0
C3699 C 0.63836 0.66646 0.81218 0.0
C3700 C 0.65338 0.69087 0.82613 0.0
C3701 C 0.6391 0.69492 0.83778 0.0
C3702 C 0.62442 0.68464 0.83623 0.0
C3703 C 0.62399 0.67073 0.82348 0.0
C3704 C 0.6391 0.70993 0.85133 0.0
C3705 C 0.62489 0.72093 0.85119 0.0
C3706 C 0.6527 0.71345 0.86441 0.0
C3707 C 0.66777 0.70211 0.86614 0.0
C3708 C 0.66575 0.68468 0.87056 0.0
C3709 C 0.68004 0.67402 0.87188 0.0
C3710 C 0.69642 0.68069 0.86898 0.0
C3711 C 0.69854 0.69804 0.8648 0.0
C3712 C 0.68429 0.70874 0.86344 0.0
C3713 C 0.62003 0.76634 0.91781 0.0
C3714 C 0.63234 0.77943 0.91889 0.0
C3715 C 0.62186 0.75288 0.9046 0.0
C3716 C 0.63597 0.75218 0.89196 0.0
C3717 C 0.6486 0.76489 0.89339 0.0
C3718 C 0.6468 0.77839 0.9067 0.0
C3719 C 0.63723 0.73834 0.87708 0.0
C3720 C 0.65168 0.72771 0.87689 0.0
C3721 C 0.62378 0.73501 0.86382 0.0
C3722 C 0.60848 0.74615 0.86262 0.0
C3723 C 0.61022 0.76382 0.8595 0.0
C3724 C 0.59575 0.77428 0.85871 0.0
C3725 C 0.57947 0.76718 0.86087 0.0
C3726 C 0.57763 0.7496 0.86379 0.0
C3727 C 0.59205 0.7391 0.86463 0.0
H3728 H 0.56829 0.7753 0.86025 0.0
H3729 H 0.70746 0.67241 0.87 0.0
H3730 H 0.59604 0.41191 0.07942 0.0
H3731 H 0.57221 0.41166 0.10271 0.0
H3732 H 0.5437 0.37858 0.06446 0.0
H3733 H 0.56761 0.37839 0.04136 0.0
H3734 H 0.52469 0.40793 0.08155 0.0
H3735 H 0.56047 0.35999 0.0988 0.0
H3736 H 0.58803 0.34655 0.10712 0.0
H3737 H 0.59246 0.37897 0.15736 0.0
H3738 H 0.56506 0.39283 0.14911 0.0
H3739 H 0.45917 0.37788 0.14343 0.0
H3740 H 0.48271 0.38061 0.1204 0.0
H3741 H 0.51492 0.40057 0.16605 0.0
H3742 H 0.49167 0.39693 0.1895 0.0
H3743 H 0.53266 0.37906 0.14536 0.0
H3744 H 0.49712 0.4266 0.12963 0.0
H3745 H 0.47041 0.44162 0.12125 0.0
H3746 H 0.46616 0.4121 0.06871 0.0
H3747 H 0.49273 0.39673 0.07692 0.0
C3748 C 0.58461 0.40476 0.07586 0.0
C3749 C 0.58368 0.39521 0.05852 0.0
C3750 C 0.57104 0.40458 0.0892 0.0
C3751 C 0.55619 0.39511 0.08528 0.0
C3752 C 0.55501 0.38602 0.06771 0.0
C3753 C 0.5687 0.3859 0.05456 0.0
C3754 C 0.54217 0.39407 0.09984 0.0
C3755 C 0.52633 0.40149 0.09543 0.0
C3756 C 0.54449 0.38603 0.11811 0.0
C3757 C 0.56081 0.37755 0.12324 0.0
C3758 C 0.5674 0.36435 0.11153 0.0
C3759 C 0.58297 0.35664 0.11624 0.0
C3760 C 0.592 0.36193 0.13274 0.0
C3761 C 0.58546 0.37491 0.14458 0.0
C3762 C 0.5699 0.38269 0.1399 0.0
C3763 C 0.47128 0.38271 0.14869 0.0
C3764 C 0.47343 0.38715 0.16844 0.0
C3765 C 0.48473 0.38447 0.13539 0.0
C3766 C 0.50062 0.39101 0.14136 0.0
C3767 C 0.50281 0.39552 0.16102 0.0
C3768 C 0.48939 0.39362 0.1744 0.0
C3769 C 0.51496 0.39291 0.12713 0.0
C3770 C 0.53092 0.38561 0.13156 0.0
C3771 C 0.5128 0.40125 0.10894 0.0
C3772 C 0.49684 0.41045 0.10395 0.0
C3773 C 0.49042 0.42324 0.11636 0.0
C3774 C 0.47532 0.43182 0.11163 0.0
C3775 C 0.46658 0.4278 0.09447 0.0
C3776 C 0.47293 0.4152 0.082 0.0
C3777 C 0.48802 0.40656 0.08667 0.0
H3778 H 0.45489 0.43447 0.09082 0.0
H3779 H 0.60406 0.35594 0.13638 0.0
H3780 H 0.88923 0.34285 0.32511 0.0
H3781 H 0.88821 0.31806 0.34647 0.0
H3782 H 0.83787 0.30569 0.32507 0.0
H3783 H 0.83854 0.33095 0.304 0.0
H3784 H 0.83859 0.30052 0.36238 0.0
H3785 H 0.87493 0.28325 0.31032 0.0
H3786 H 0.89892 0.28568 0.28717 0.0
H3787 H 0.93453 0.28601 0.33483 0.0
H3788 H 0.9107 0.28382 0.35827 0.0
H3789 H 0.84109 0.21689 0.4054 0.0
H3790 H 0.83928 0.24082 0.3825 0.0
H3791 H 0.88873 0.25856 0.40146 0.0
H3792 H 0.89062 0.23478 0.42433 0.0
H3793 H 0.88715 0.25978 0.36344 0.0
H3794 H 0.84977 0.27809 0.41543 0.0
H3795 H 0.82524 0.27558 0.43785 0.0
H3796 H 0.79096 0.27256 0.38907 0.0
H3797 H 0.81534 0.27483 0.36637 0.0
C3798 C 0.87791 0.33488 0.32485 0.0
C3799 C 0.86402 0.33888 0.31266 0.0
C3800 C 0.87739 0.3206 0.33706 0.0
C3801 C 0.86313 0.3097 0.33712 0.0
C3802 C 0.84908 0.31381 0.32523 0.0
C3803 C 0.8495 0.32826 0.31315 0.0
C3804 C 0.86293 0.29412 0.34971 0.0
C3805 C 0.8491 0.29146 0.36236 0.0
C3806 C 0.87669 0.28235 0.35 0.0
C3807 C 0.89105 0.28352 0.33601 0.0
C3808 C 0.88787 0.28395 0.31584 0.0
C3809 C 0.90144 0.28527 0.30268 0.0
C3810 C 0.91824 0.28603 0.30953 0.0
C3811 C 0.92151 0.28543 0.32955 0.0
C3812 C 0.90798 0.28414 0.34278 0.0
C3813 C 0.85152 0.22596 0.40484 0.0
C3814 C 0.86603 0.22379 0.41675 0.0
C3815 C 0.85046 0.23967 0.3917 0.0
C3816 C 0.8638 0.25166 0.39032 0.0
C3817 C 0.87828 0.2495 0.40216 0.0
C3818 C 0.87937 0.23579 0.41521 0.0
C3819 C 0.86295 0.26631 0.37637 0.0
C3820 C 0.87661 0.26878 0.36341 0.0
C3821 C 0.84895 0.27779 0.37568 0.0
C3822 C 0.83435 0.2764 0.38926 0.0
C3823 C 0.837 0.27674 0.40952 0.0
C3824 C 0.82314 0.27539 0.42226 0.0
C3825 C 0.80656 0.27385 0.41489 0.0
C3826 C 0.80381 0.27371 0.39475 0.0
C3827 C 0.81764 0.27503 0.38195 0.0
H3828 H 0.79584 0.27281 0.42479 0.0
H3829 H 0.92873 0.28706 0.29931 0.0
H3830 H 0.93355 0.62823 0.54473 0.0
H3831 H 0.95763 0.62736 0.56751 0.0
H3832 H 0.93128 0.58967 0.60216 0.0
H3833 H 0.90723 0.59024 0.57924 0.0
H3834 H 0.94489 0.61774 0.6239 0.0
H3835 H 0.96324 0.57667 0.57659 0.0
H3836 H 0.96976 0.56631 0.54348 0.0
H3837 H 0.00749 0.60574 0.53669 0.0
H3838 H 1.00096 0.61652 0.56964 0.0
H3839 H 0.01433 0.60094 0.6878 0.0
H3840 H 0.99075 0.59762 0.66476 0.0
H3841 H 0.01886 0.62643 0.62174 0.0
H3842 H 0.04282 0.62897 0.64424 0.0
H3843 H 0.00377 0.60154 0.6044 0.0
H3844 H 0.98526 0.64387 0.64978 0.0
H3845 H 0.9785 0.65613 0.68198 0.0
H3846 H 0.94108 0.61685 0.6916 0.0
H3847 H 0.94785 0.6042 0.65958 0.0
C3848 C 0.93293 0.61961 0.55708 0.0
C3849 C 0.91849 0.60922 0.56008 0.0
C3850 C 0.94672 0.61913 0.57009 0.0
C3851 C 0.9463 0.6084 0.5865 0.0
C3852 C 0.9319 0.59802 0.58957 0.0
C3853 C 0.91821 0.59828 0.57638 0.0
C3854 C 0.96073 0.60836 0.60066 0.0
C3855 C 0.95772 0.61391 0.61974 0.0
C3856 C 0.97756 0.60392 0.59514 0.0
C3857 C 0.98148 0.5975 0.57541 0.0
C3858 C 0.9728 0.58322 0.56793 0.0
C3859 C 0.97652 0.57726 0.54923 0.0
C3860 C 0.989 0.58539 0.53796 0.0
C3861 C 0.99781 0.59948 0.54541 0.0
C3862 C 0.99411 0.60552 0.56409 0.0
C3863 C 0.01565 0.60635 0.67334 0.0
C3864 C 0.03053 0.61537 0.66803 0.0
C3865 C 0.00201 0.60464 0.66023 0.0
C3866 C 0.00279 0.61208 0.64157 0.0
C3867 C 0.0178 0.62066 0.63606 0.0
C3868 C 0.03148 0.62226 0.64907 0.0
C3869 C 0.98803 0.611 0.62778 0.0
C3870 C 0.99096 0.60527 0.60869 0.0
C3871 C 0.97115 0.61554 0.63323 0.0
C3872 C 0.96722 0.62298 0.65248 0.0
C3873 C 0.97572 0.63777 0.65887 0.0
C3874 C 0.97187 0.64479 0.67706 0.0
C3875 C 0.95941 0.63723 0.68886 0.0
C3876 C 0.95076 0.62266 0.68248 0.0
C3877 C 0.9546 0.61555 0.66433 0.0
H3878 H 0.95643 0.64271 0.70294 0.0
H3879 H 0.99187 0.58074 0.52347 0.0
H3880 H 0.61736 0.32329 0.72297 0.0
H3881 H 0.61732 0.29926 0.70031 0.0
H3882 H 0.66481 0.31693 0.67553 0.0
H3883 H 0.66485 0.3412 0.69807 0.0
H3884 H 0.64278 0.30877 0.6475 0.0
H3885 H 0.66315 0.2812 0.70487 0.0
H3886 H 0.66297 0.2728 0.73951 0.0
H3887 H 0.61479 0.24743 0.73154 0.0
H3888 H 0.61456 0.25596 0.69691 0.0
H3889 H 0.65867 0.23526 0.59018 0.0
H3890 H 0.6607 0.25771 0.61471 0.0
H3891 H 0.61331 0.2407 0.64032 0.0
H3892 H 0.61115 0.21815 0.61568 0.0
H3893 H 0.63587 0.24837 0.6681 0.0
H3894 H 0.61536 0.27659 0.61077 0.0
H3895 H 0.61566 0.28514 0.57617 0.0
H3896 H 0.66439 0.30943 0.58417 0.0
H3897 H 0.66448 0.30075 0.61876 0.0
C3898 C 0.62792 0.32201 0.71286 0.0
C3899 C 0.64117 0.33419 0.71246 0.0
C3900 C 0.6279 0.30818 0.69992 0.0
C3901 C 0.64116 0.3061 0.6863 0.0
C3902 C 0.65446 0.31818 0.68593 0.0
C3903 C 0.65451 0.33203 0.69891 0.0
C3904 C 0.64075 0.29173 0.67199 0.0
C3905 C 0.64156 0.29555 0.65206 0.0
C3906 C 0.63867 0.27447 0.67774 0.0
C3907 C 0.63874 0.26937 0.69845 0.0
C3908 C 0.65245 0.27397 0.71058 0.0
C3909 C 0.65243 0.26917 0.73019 0.0
C3910 C 0.63885 0.25964 0.73774 0.0
C3911 C 0.62528 0.25485 0.72568 0.0
C3912 C 0.62521 0.25966 0.70608 0.0
C3913 C 0.64859 0.23632 0.60092 0.0
C3914 C 0.63463 0.22495 0.60075 0.0
C3915 C 0.64978 0.2492 0.61499 0.0
C3916 C 0.637 0.25117 0.62919 0.0
C3917 C 0.62331 0.23952 0.62947 0.0
C3918 C 0.62212 0.22657 0.6154 0.0
C3919 C 0.63789 0.26543 0.64362 0.0
C3920 C 0.63714 0.2616 0.66355 0.0
C3921 C 0.64004 0.28269 0.63788 0.0
C3922 C 0.64002 0.28786 0.61719 0.0
C3923 C 0.62619 0.28362 0.60507 0.0
C3924 C 0.62629 0.2885 0.58549 0.0
C3925 C 0.64006 0.29777 0.57796 0.0
C3926 C 0.65375 0.30222 0.59001 0.0
C3927 C 0.65374 0.29732 0.60959 0.0
H3928 H 0.6401 0.30155 0.56278 0.0
H3929 H 0.63886 0.25592 0.75294 0.0
H3930 H 0.92121 0.36268 0.96269 0.0
H3931 H 0.94533 0.36214 0.94033 0.0
H3932 H 0.94407 0.4172 0.93661 0.0
H3933 H 0.91906 0.41768 0.95817 0.0
H3934 H 0.94959 0.40614 0.90293 0.0
H3935 H 0.97604 0.39239 0.96356 0.0
H3936 H 0.97989 0.37676 0.99447 0.0
H3937 H 0.98748 0.33 0.96284 0.0
H3938 H 0.98341 0.34533 0.93175 0.0
H3939 H 0.03051 0.41244 0.85632 0.0
H3940 H 0.00746 0.41392 0.88024 0.0
H3941 H 0.00266 0.35904 0.87889 0.0
H3942 H 0.02567 0.35744 0.8548 0.0
H3943 H 1.00096 0.37068 0.9156 0.0
H3944 H 0.97393 0.38557 0.85483 0.0
H3945 H 0.97046 0.40213 0.82448 0.0
H3946 H 0.96497 0.44831 0.85775 0.0
H3947 H 0.96867 0.43202 0.88827 0.0
C3948 C 0.92613 0.37472 0.95727 0.0
C3949 C 0.91829 0.39026 0.96239 0.0
C3950 C 0.94008 0.37439 0.94452 0.0
C3951 C 0.94697 0.38964 0.93706 0.0
C3952 C 0.93914 0.40522 0.94219 0.0
C3953 C 0.92487 0.40551 0.9546 0.0
C3954 C 0.96188 0.38925 0.92337 0.0
C3955 C 0.96093 0.39861 0.90597 0.0
C3956 C 0.97664 0.37915 0.92684 0.0
C3957 C 0.97926 0.36995 0.94541 0.0
C3958 C 0.97842 0.37875 0.96324 0.0
C3959 C 0.98065 0.36995 0.98077 0.0
C3960 C 0.98388 0.35239 0.98063 0.0
C3961 C 0.98495 0.34359 0.96293 0.0
C3962 C 0.9827 0.35233 0.94536 0.0
C3963 C 0.02449 0.40066 0.86096 0.0
C3964 C 0.02993 0.38482 0.85344 0.0
C3965 C 0.01129 0.40154 0.87469 0.0
C3966 C 0.00308 0.38662 0.88118 0.0
C3967 C 0.00874 0.37075 0.8741 0.0
C3968 C 0.02198 0.36985 0.86036 0.0
C3969 C 0.9886 0.38757 0.8953 0.0
C3970 C 0.98963 0.37827 0.91272 0.0
C3971 C 0.97403 0.3979 0.89198 0.0
C3972 C 0.97177 0.40764 0.87373 0.0
C3973 C 0.97212 0.39928 0.85562 0.0
C3974 C 0.97009 0.40861 0.83841 0.0
C3975 C 0.96755 0.42627 0.83918 0.0
C3976 C 0.96698 0.43464 0.85717 0.0
C3977 C 0.96904 0.42537 0.87442 0.0
H3978 H 0.96598 0.43348 0.82583 0.0
H3979 H 0.98558 0.34559 0.99423 0.0
H3980 H 0.88877 0.78789 0.12132 0.0
H3981 H 0.88649 0.76439 0.14462 0.0
H3982 H 0.84492 0.74294 0.11144 0.0
H3983 H 0.84675 0.76674 0.08835 0.0
H3984 H 0.83822 0.74112 0.14976 0.0
H3985 H 0.88549 0.72619 0.10869 0.0
H3986 H 0.9131 0.73065 0.09212 0.0
H3987 H 0.93793 0.73684 0.14751 0.0
H3988 H 0.9104 0.73265 0.1644 0.0
H3989 H 0.83921 0.65907 0.19517 0.0
H3990 H 0.8397 0.68311 0.17241 0.0
H3991 H 0.8844 0.70321 0.20121 0.0
H3992 H 0.88435 0.67887 0.22351 0.0
H3993 H 0.88912 0.70563 0.16455 0.0
H3994 H 0.84209 0.72098 0.20586 0.0
H3995 H 0.81457 0.71668 0.2227 0.0
H3996 H 0.78941 0.71006 0.16757 0.0
H3997 H 0.81684 0.7141 0.15042 0.0
C3998 C 0.87896 0.77833 0.11907 0.0
C3999 C 0.86794 0.77929 0.10287 0.0
C4000 C 0.87781 0.76475 0.13233 0.0
C4001 C 0.86569 0.75171 0.1297 0.0
C4002 C 0.85444 0.75278 0.11378 0.0
C4003 C 0.85559 0.76636 0.10048 0.0
C4004 C 0.86483 0.73692 0.14346 0.0
C4005 C 0.84931 0.73322 0.15281 0.0
C4006 C 0.87933 0.72679 0.14785 0.0
C4007 C 0.89588 0.72929 0.13777 0.0
C4008 C 0.89682 0.72864 0.11732 0.0
C4009 C 0.91245 0.7311 0.10787 0.0
C4010 C 0.92725 0.73408 0.11875 0.0
C4011 C 0.92645 0.73456 0.1391 0.0
C4012 C 0.91084 0.73214 0.14862 0.0
C4013 C 0.84906 0.66869 0.19679 0.0
C4014 C 0.86168 0.66705 0.21129 0.0
C4015 C 0.84929 0.68252 0.18377 0.0
C4016 C 0.86195 0.69523 0.18516 0.0
C4017 C 0.87447 0.69365 0.19975 0.0
C4018 C 0.87438 0.67973 0.2126 0.0
C4019 C 0.86254 0.70988 0.17111 0.0
C4020 C 0.87802 0.71353 0.16161 0.0
C4021 C 0.84801 0.72001 0.16667 0.0
C4022 C 0.83152 0.71766 0.1769 0.0
C4023 C 0.8307 0.71849 0.19735 0.0
C4024 C 0.81512 0.71612 0.20694 0.0
C4025 C 0.80026 0.71305 0.19622 0.0
C4026 C 0.80093 0.71241 0.17586 0.0
C4027 C 0.81649 0.71475 0.1662 0.0
H4028 H 0.78821 0.71121 0.20368 0.0
H4029 H 0.93935 0.73597 0.11141 0.0
H4030 H 0.57919 0.63835 0.46669 0.0
H4031 H 0.55522 0.63859 0.44415 0.0
H4032 H 0.56198 0.58461 0.43387 0.0
H4033 H 0.58667 0.58449 0.45589 0.0
H4034 H 0.55609 0.59902 0.40123 0.0
H4035 H 0.52778 0.60236 0.46256 0.0
H4036 H 0.52172 0.61354 0.49545 0.0
H4037 H 0.5089 0.66246 0.47102 0.0
H4038 H 0.51516 0.65162 0.43802 0.0
H4039 H 0.47696 0.58985 0.35163 0.0
H4040 H 0.49959 0.58792 0.37599 0.0
H4041 H 0.49865 0.64267 0.38291 0.0
H4042 H 0.47606 0.64476 0.35834 0.0
H4043 H 0.50093 0.62678 0.41764 0.0
H4044 H 0.53002 0.62267 0.35606 0.0
H4045 H 0.53567 0.61061 0.32349 0.0
H4046 H 0.54629 0.56166 0.34919 0.0
H4047 H 0.54041 0.5734 0.38189 0.0
C4048 C 0.57552 0.62646 0.45981 0.0
C4049 C 0.58478 0.61134 0.46327 0.0
C4050 C 0.56168 0.6266 0.44695 0.0
C4051 C 0.55643 0.61155 0.43755 0.0
C4052 C 0.56566 0.5964 0.44098 0.0
C4053 C 0.57974 0.59631 0.45365 0.0
C4054 C 0.54173 0.61183 0.42365 0.0
C4055 C 0.54395 0.60483 0.40502 0.0
C4056 C 0.52591 0.61973 0.42821 0.0
C4057 C 0.5221 0.62625 0.44793 0.0
C4058 C 0.52379 0.61554 0.46426 0.0
C4059 C 0.52031 0.62181 0.48289 0.0
C4060 C 0.51498 0.63872 0.48533 0.0
C4061 C 0.51306 0.64938 0.46912 0.0
C4062 C 0.51657 0.64318 0.45045 0.0
C4063 C 0.48161 0.60153 0.35821 0.0
C4064 C 0.47476 0.61749 0.35282 0.0
C4065 C 0.49457 0.60038 0.37218 0.0
C4066 C 0.50107 0.61517 0.38105 0.0
C4067 C 0.4939 0.63108 0.37621 0.0
C4068 C 0.48091 0.63225 0.36221 0.0
C4069 C 0.51537 0.61404 0.39532 0.0
C4070 C 0.51307 0.6209 0.41397 0.0
C4071 C 0.53103 0.60586 0.39086 0.0
C4072 C 0.53459 0.59884 0.3713 0.0
C4073 C 0.53342 0.6093 0.35471 0.0
C4074 C 0.53668 0.60253 0.33625 0.0
C4075 C 0.54128 0.58536 0.33426 0.0
C4076 C 0.54268 0.57494 0.35074 0.0
C4077 C 0.53939 0.58164 0.36923 0.0
H4078 H 0.54381 0.58014 0.31994 0.0
H4079 H 0.51229 0.64355 0.49979 0.0
H4080 H 0.34827 0.2362 0.08748 0.0
H4081 H 0.3457 0.25991 0.11044 0.0
H4082 H 0.38269 0.23595 0.14821 0.0
H4083 H 0.38474 0.21182 0.12578 0.0
H4084 H 0.35818 0.24876 0.16939 0.0
H4085 H 0.3928 0.27045 0.11764 0.0
H4086 H 0.40033 0.27767 0.08371 0.0
H4087 H 0.35655 0.31064 0.07988 0.0
H4088 H 0.34862 0.30336 0.11369 0.0
H4089 H 0.38199 0.32217 0.22508 0.0
H4090 H 0.38152 0.29764 0.20298 0.0
H4091 H 0.34002 0.32049 0.1709 0.0
H4092 H 0.3403 0.34504 0.19306 0.0
H4093 H 0.36583 0.30852 0.14682 0.0
H4094 H 0.33209 0.28722 0.19948 0.0
H4095 H 0.32553 0.28031 0.23375 0.0
H4096 H 0.36897 0.2468 0.2361 0.0
H4097 H 0.37595 0.25377 0.20193 0.0
C4098 C 0.35569 0.23581 0.1008 0.0
C4099 C 0.36679 0.22203 0.10464 0.0
C4100 C 0.35437 0.24954 0.11383 0.0
C4101 C 0.36424 0.24997 0.13096 0.0
C4102 C 0.37502 0.23606 0.13506 0.0
C4103 C 0.37629 0.22229 0.12209 0.0
C4104 C 0.36332 0.26484 0.14462 0.0
C4105 C 0.36008 0.26179 0.16443 0.0
C4106 C 0.36538 0.28197 0.1383 0.0
C4107 C 0.37001 0.2862 0.11801 0.0
C4108 C 0.3847 0.2791 0.10946 0.0
C4109 C 0.38905 0.28323 0.09028 0.0
C4110 C 0.37889 0.29456 0.07962 0.0
C4111 C 0.36438 0.30183 0.08813 0.0
C4112 C 0.35995 0.2977 0.10728 0.0
C4113 C 0.37263 0.32193 0.21345 0.0
C4114 C 0.3611 0.33557 0.21096 0.0
C4115 C 0.37237 0.30786 0.20082 0.0
C4116 C 0.36066 0.30713 0.18532 0.0
C4117 C 0.34914 0.32072 0.18277 0.0
C4118 C 0.34926 0.33472 0.19554 0.0
C4119 C 0.36077 0.29238 0.17152 0.0
C4120 C 0.36388 0.29547 0.15172 0.0
C4121 C 0.35874 0.27529 0.17786 0.0
C4122 C 0.35464 0.27116 0.19832 0.0
C4123 C 0.34033 0.27852 0.2074 0.0
C4124 C 0.33652 0.27457 0.22677 0.0
C4125 C 0.34686 0.26316 0.23712 0.0
C4126 C 0.361 0.25566 0.22809 0.0
C4127 C 0.36489 0.2596 0.20873 0.0
H4128 H 0.34388 0.26011 0.25213 0.0
H4129 H 0.3823 0.29776 0.06476 0.0
H4130 H 0.51266 0.60023 0.83446 0.0
H4131 H 0.48917 0.59944 0.85787 0.0
H4132 H 0.51827 0.63078 0.89748 0.0
H4133 H 0.54209 0.63127 0.87426 0.0
H4134 H 0.50296 0.60492 0.9166 0.0
H4135 H 0.48544 0.6476 0.87137 0.0
H4136 H 0.47896 0.66005 0.83919 0.0
H4137 H 0.44025 0.622 0.82988 0.0
H4138 H 0.44674 0.60914 0.86188 0.0
H4139 H 0.43189 0.63085 0.97629 0.0
H4140 H 0.4563 0.63055 0.95387 0.0
H4141 H 0.43088 0.59294 0.91832 0.0
H4142 H 0.40657 0.59287 0.94091 0.0
H4143 H 0.44426 0.62209 0.89744 0.0
H4144 H 0.46211 0.57958 0.94308 0.0
H4145 H 0.46844 0.56784 0.97564 0.0
H4146 H 0.50648 0.60664 0.9845 0.0
H4147 H 0.50011 0.6188 0.95211 0.0
C4148 C 0.51416 0.60686 0.84821 0.0
C4149 C 0.52933 0.6158 0.85245 0.0
C4150 C 0.50061 0.60653 0.86152 0.0
C4151 C 0.50182 0.61522 0.87938 0.0
C4152 C 0.51698 0.62404 0.88377 0.0
C4153 C 0.53055 0.62442 0.87041 0.0
C4154 C 0.4873 0.61492 0.89348 0.0
C4155 C 0.4902 0.60893 0.91245 0.0
C4156 C 0.47051 0.61974 0.88809 0.0
C4157 C 0.46672 0.6273 0.86884 0.0
C4158 C 0.47568 0.64179 0.86235 0.0
C4159 C 0.47198 0.64893 0.84417 0.0
C4160 C 0.45924 0.64179 0.83247 0.0
C4161 C 0.45014 0.62749 0.83894 0.0
C4162 C 0.45383 0.62027 0.85708 0.0
C4163 C 0.43156 0.62238 0.96381 0.0
C4164 C 0.41732 0.61181 0.96045 0.0
C4165 C 0.44553 0.62222 0.95103 0.0
C4166 C 0.44543 0.61169 0.93446 0.0
C4167 C 0.43124 0.60113 0.93104 0.0
C4168 C 0.4174 0.60104 0.94402 0.0
C4169 C 0.45996 0.61207 0.92046 0.0
C4170 C 0.45705 0.61809 0.90154 0.0
C4171 C 0.47674 0.60737 0.92592 0.0
C4172 C 0.48048 0.60021 0.94536 0.0
C4173 C 0.47167 0.58572 0.95209 0.0
C4174 C 0.4753 0.57897 0.97048 0.0
C4175 C 0.48781 0.58653 0.98216 0.0
C4176 C 0.49676 0.60083 0.97546 0.0
C4177 C 0.49314 0.60766 0.9571 0.0
H4178 H 0.49062 0.58127 0.9964 0.0
H4179 H 0.45638 0.64735 0.8184 0.0
H4180 H 0.16268 0.7757 0.59698 0.0
H4181 H 0.16489 0.75236 0.62059 0.0
H4182 H 0.11083 0.75611 0.63214 0.0
H4183 H 0.10853 0.7794 0.6086 0.0
H4184 H 0.1274 0.75277 0.66508 0.0
H4185 H 0.12874 0.72346 0.60365 0.0
H4186 H 0.13943 0.71686 0.57067 0.0
H4187 H 0.18868 0.70431 0.59439 0.0
H4188 H 0.17832 0.71111 0.62746 0.0
H4189 H 0.1146 0.67459 0.7147 0.0
H4190 H 0.11432 0.69846 0.6919 0.0
H4191 H 0.16804 0.69095 0.68054 0.0
H4192 H 0.16823 0.66649 0.70286 0.0
H4193 H 0.15281 0.69668 0.64798 0.0
H4194 H 0.15146 0.72522 0.7095 0.0
H4195 H 0.14077 0.73135 0.74258 0.0
H4196 H 0.09187 0.74531 0.71898 0.0
H4197 H 0.10222 0.73899 0.68578 0.0
C4198 C 0.15123 0.77148 0.60442 0.0
C4199 C 0.13542 0.7795 0.60083 0.0
C4200 C 0.15251 0.7581 0.61794 0.0
C4201 C 0.13799 0.75227 0.62803 0.0
C4202 C 0.12224 0.76035 0.6246 0.0
C4203 C 0.12096 0.77376 0.61116 0.0
C4204 C 0.13915 0.73793 0.64235 0.0
C4205 C 0.13279 0.74045 0.66123 0.0
C4206 C 0.14661 0.72195 0.63769 0.0
C4207 C 0.15285 0.71801 0.6179 0.0
C4208 C 0.14189 0.71946 0.60177 0.0
C4209 C 0.14788 0.71565 0.58308 0.0
C4210 C 0.16474 0.71023 0.58043 0.0
C4211 C 0.17564 0.70856 0.59646 0.0
C4212 C 0.16973 0.71239 0.61516 0.0
C4213 C 0.12642 0.67809 0.70752 0.0
C4214 C 0.14149 0.6687 0.71079 0.0
C4215 C 0.12626 0.69185 0.6945 0.0
C4216 C 0.14123 0.69684 0.68472 0.0
C4217 C 0.15632 0.68746 0.68795 0.0
C4218 C 0.15644 0.67351 0.70079 0.0
C4219 C 0.14101 0.71148 0.67071 0.0
C4220 C 0.14752 0.70903 0.65189 0.0
C4221 C 0.13373 0.72754 0.67544 0.0
C4222 C 0.12755 0.73148 0.69527 0.0
C4223 C 0.1384 0.72949 0.71141 0.0
C4224 C 0.1324 0.733 0.73016 0.0
C4225 C 0.11563 0.73867 0.73289 0.0
C4226 C 0.10484 0.74089 0.71686 0.0
C4227 C 0.11076 0.73735 0.69808 0.0
H4228 H 0.11101 0.74138 0.74744 0.0
H4229 H 0.16935 0.70728 0.56594 0.0
H4230 H 0.99665 0.39325 0.32995 0.0
H4231 H 0.01983 0.39482 0.35365 0.0
H4232 H 0.98634 0.37514 0.39828 0.0
H4233 H 0.96282 0.37399 0.37468 0.0
H4234 H 0.00575 0.40152 0.41203 0.0
H4235 H 0.01577 0.34941 0.3766 0.0
H4236 H 0.02017 0.3318 0.34721 0.0
H4237 H 0.06433 0.36162 0.33212 0.0
H4238 H 0.06002 0.37955 0.36127 0.0
H4239 H 0.08723 0.35996 0.45731 0.0
H4240 H 0.06265 0.36005 0.43558 0.0
H4241 H 0.06374 0.41512 0.43386 0.0
H4242 H 0.08826 0.41521 0.45603 0.0
H4243 H 0.06018 0.371 0.39914 0.0
H4244 H 0.03018 0.43024 0.42733 0.0
H4245 H 0.02552 0.44603 0.45808 0.0
H4246 H 0.02041 0.39856 0.4891 0.0
H4247 H 0.02533 0.38258 0.45854 0.0
C4248 C 0.9941 0.3894 0.34484 0.0
C4249 C 0.97779 0.3835 0.35037 0.0
C4250 C 0.00746 0.39018 0.35836 0.0
C4251 C 0.00492 0.38495 0.37773 0.0
C4252 C 0.98863 0.37921 0.3834 0.0
C4253 C 0.97523 0.3784 0.36985 0.0
C4254 C 0.01934 0.38531 0.39194 0.0
C4255 C 0.01763 0.39484 0.40913 0.0
C4256 C 0.03491 0.37662 0.38839 0.0
C4257 C 0.03747 0.36589 0.37093 0.0
C4258 C 0.02633 0.35228 0.3669 0.0
C4259 C 0.02882 0.34223 0.35032 0.0
C4260 C 0.04249 0.34562 0.33778 0.0
C4261 C 0.05373 0.35903 0.34182 0.0
C4262 C 0.05127 0.36913 0.35836 0.0
C4263 C 0.08224 0.37216 0.45248 0.0
C4264 C 0.08982 0.3876 0.45852 0.0
C4265 C 0.06813 0.37216 0.44 0.0
C4266 C 0.06116 0.38757 0.43319 0.0
C4267 C 0.0686 0.40305 0.43923 0.0
C4268 C 0.08272 0.40307 0.45184 0.0
C4269 C 0.04662 0.38725 0.41914 0.0
C4270 C 0.04832 0.37775 0.40194 0.0
C4271 C 0.03105 0.39586 0.42268 0.0
C4272 C 0.02815 0.40533 0.44086 0.0
C4273 C 0.02804 0.42325 0.44076 0.0
C4274 C 0.02543 0.4322 0.45812 0.0
C4275 C 0.02268 0.4233 0.47554 0.0
C4276 C 0.0226 0.40543 0.47563 0.0
C4277 C 0.02538 0.39643 0.45834 0.0
H4278 H 0.0206 0.43025 0.48896 0.0
H4279 H 0.0444 0.33782 0.32494 0.0
H4280 H 0.34642 0.78695 0.40485 0.0
H4281 H 0.3434 0.76301 0.38211 0.0
H4282 H 0.3912 0.74212 0.40244 0.0
H4283 H 0.39435 0.766 0.42495 0.0
H4284 H 0.39077 0.74055 0.36501 0.0
H4285 H 0.34976 0.72526 0.41465 0.0
H4286 H 0.32449 0.72965 0.43556 0.0
H4287 H 0.29283 0.73515 0.38479 0.0
H4288 H 0.31798 0.73102 0.36358 0.0
H4289 H 0.38871 0.65771 0.32606 0.0
H4290 H 0.38838 0.68235 0.3476 0.0
H4291 H 0.33992 0.6981 0.32362 0.0
H4292 H 0.33986 0.6729 0.30234 0.0
H4293 H 0.33937 0.70367 0.36085 0.0
H4294 H 0.3796 0.71804 0.3112 0.0
H4295 H 0.40456 0.7138 0.28978 0.0
H4296 H 0.43739 0.71072 0.33984 0.0
H4297 H 0.41257 0.71472 0.36157 0.0
C4298 C 0.35621 0.77717 0.40462 0.0
C4299 C 0.37068 0.77853 0.41674 0.0
C4300 C 0.35445 0.76343 0.39159 0.0
C4301 C 0.36699 0.75054 0.39057 0.0
C4302 C 0.38135 0.75185 0.40278 0.0
C4303 C 0.38317 0.7656 0.41566 0.0
C4304 C 0.36559 0.73594 0.37649 0.0
C4305 C 0.37958 0.73238 0.36434 0.0
C4306 C 0.35081 0.72555 0.37488 0.0
C4307 C 0.33575 0.72805 0.38757 0.0
C4308 C 0.33742 0.72755 0.40797 0.0
C4309 C 0.32313 0.72997 0.41986 0.0
C4310 C 0.30707 0.73274 0.41151 0.0
C4311 C 0.30528 0.73305 0.39124 0.0
C4312 C 0.31954 0.73067 0.37928 0.0
C4313 C 0.37795 0.66638 0.32525 0.0
C4314 C 0.36438 0.6633 0.31222 0.0
C4315 C 0.37783 0.68061 0.33759 0.0
C4316 C 0.36434 0.69247 0.33701 0.0
C4317 C 0.35056 0.68927 0.32432 0.0
C4318 C 0.35056 0.67484 0.3121 0.0
C4319 C 0.36471 0.70808 0.3497 0.0
C4320 C 0.35053 0.71187 0.3615 0.0
C4321 C 0.37929 0.71879 0.35094 0.0
C4322 C 0.39424 0.71651 0.33797 0.0
C4323 C 0.39214 0.71635 0.31762 0.0
C4324 C 0.40625 0.714 0.30544 0.0
C4325 C 0.42255 0.71195 0.31344 0.0
C4326 C 0.42476 0.71229 0.33366 0.0
C4327 C 0.41068 0.71461 0.34591 0.0
H4328 H 0.43346 0.71012 0.30398 0.0
H4329 H 0.29602 0.7346 0.42075 0.0
H4330 H 0.06631 0.62163 0.03893 0.0
H4331 H 0.0422 0.62122 0.06158 0.0
H4332 H 0.07375 0.59623 0.10468 0.0
H4333 H 0.09743 0.59542 0.0814 0.0
H4334 H 0.04495 0.58394 0.10855 0.0
H4335 H 0.06265 0.64226 0.10356 0.0
H4336 H 0.06978 0.66937 0.08709 0.0
H4337 H 0.0187 0.67257 0.06446 0.0
H4338 H 0.01136 0.64534 0.08054 0.0
H4339 H 0.99177 0.6074 0.18951 0.0
H4340 H 0.01519 0.6049 0.16608 0.0
H4341 H 0.98101 0.61881 0.11941 0.0
H4342 H 0.95742 0.62091 0.14258 0.0
H4343 H 0.01101 0.6368 0.11804 0.0
H4344 H 0.99425 0.57766 0.12543 0.0
H4345 H 0.98844 0.55137 0.14414 0.0
H4346 H 0.04 0.55135 0.1656 0.0
H4347 H 0.04603 0.57778 0.14724 0.0
C4348 C 0.068 0.61587 0.05317 0.0
C4349 C 0.08374 0.60854 0.05839 0.0
C4350 C 0.05426 0.61583 0.06625 0.0
C4351 C 0.05616 0.60919 0.08522 0.0
C4352 C 0.07183 0.60152 0.09025 0.0
C4353 C 0.0854 0.60105 0.07691 0.0
C4354 C 0.04188 0.61021 0.09976 0.0
C4355 C 0.03776 0.59563 0.11076 0.0
C4356 C 0.03215 0.62532 0.10269 0.0
C4357 C 0.03652 0.6417 0.09308 0.0
C4358 C 0.05298 0.6487 0.09496 0.0
C4359 C 0.05706 0.66409 0.0857 0.0
C4360 C 0.04471 0.67267 0.0747 0.0
C4361 C 0.02826 0.6659 0.07296 0.0
C4362 C 0.02413 0.65049 0.08214 0.0
C4363 C 0.9891 0.60964 0.17423 0.0
C4364 C 0.97259 0.61438 0.16804 0.0
C4365 C 0.00257 0.60827 0.16084 0.0
C4366 C 0.99987 0.61158 0.14094 0.0
C4367 C 0.98344 0.61625 0.13469 0.0
C4368 C 0.96995 0.61752 0.14803 0.0
C4369 C 0.01421 0.61058 0.12667 0.0
C4370 C 0.01831 0.62518 0.11577 0.0
C4371 C 0.02417 0.59565 0.12419 0.0
C4372 C 0.02053 0.57976 0.13513 0.0
C4373 C 0.0043 0.57211 0.13426 0.0
C4374 C 1.00097 0.55718 0.14479 0.0
C4375 C 0.01382 0.54972 0.15609 0.0
C4376 C 0.03005 0.55715 0.15686 0.0
C4377 C 0.03343 0.5721 0.1464 0.0
H4378 H 0.01122 0.53816 0.16423 0.0
H4379 H 0.04789 0.68458 0.06754 0.0
H4380 H 0.11299 0.32841 0.80493 0.0
H4381 H 0.1135 0.30439 0.82745 0.0
H4382 H 0.16585 0.31581 0.84216 0.0
H4383 H 0.16558 0.33985 0.81919 0.0
H4384 H 0.16129 0.28193 0.83871 0.0
H4385 H 0.13288 0.32708 0.87252 0.0
H4386 H 0.11168 0.35013 0.87641 0.0
H4387 H 0.07089 0.31379 0.87059 0.0
H4388 H 0.09186 0.29054 0.86635 0.0
H4389 H 0.16078 0.22845 0.9232 0.0
H4390 H 0.16283 0.25293 0.9011 0.0
H4391 H 0.11054 0.24511 0.88338 0.0
H4392 H 0.10821 0.22103 0.90588 0.0
H4393 H 0.11625 0.27811 0.8895 0.0
H4394 H 0.1447 0.23322 0.85454 0.0
H4395 H 0.16591 0.21034 0.84948 0.0
H4396 H 0.20669 0.24642 0.85719 0.0
H4397 H 0.18571 0.26947 0.8626 0.0
C4398 C 0.1247 0.32581 0.81281 0.0
C4399 C 0.13925 0.33615 0.81023 0.0
C4400 C 0.12492 0.31208 0.82582 0.0
C4401 C 0.13961 0.30842 0.8368 0.0
C4402 C 0.15433 0.31841 0.83392 0.0
C4403 C 0.15415 0.33217 0.82079 0.0
C4404 C 0.1394 0.29431 0.85142 0.0
C4405 C 0.15162 0.28125 0.85003 0.0
C4406 C 0.1266 0.2932 0.86599 0.0
C4407 C 0.11394 0.30708 0.869 0.0
C4408 C 0.11939 0.32401 0.87198 0.0
C4409 C 0.10741 0.33712 0.87424 0.0
C4410 C 0.08995 0.33344 0.87371 0.0
C4411 C 0.08443 0.31663 0.87099 0.0
C4412 C 0.09635 0.30347 0.86868 0.0
C4413 C 0.14968 0.23198 0.91469 0.0
C4414 C 0.13435 0.22265 0.9163 0.0
C4415 C 0.15091 0.24592 0.90191 0.0
C4416 C 0.13688 0.25081 0.89038 0.0
C4417 C 0.12156 0.24159 0.89205 0.0
C4418 C 0.12031 0.22768 0.90481 0.0
C4419 C 0.13806 0.2656 0.87669 0.0
C4420 C 0.126 0.27883 0.87827 0.0
C4421 C 0.15104 0.26686 0.86234 0.0
C4422 C 0.16365 0.25302 0.85918 0.0
C4423 C 0.1582 0.23624 0.85533 0.0
C4424 C 0.17017 0.22324 0.85237 0.0
C4425 C 0.18764 0.22691 0.85306 0.0
C4426 C 0.19316 0.24359 0.85669 0.0
C4427 C 0.18124 0.25662 0.8597 0.0
H4428 H 0.19689 0.21684 0.85074 0.0
H4429 H 0.08069 0.34361 0.87543 0.0
H4430 H 0.51327 0.36523 0.68238 0.0
H4431 H 0.49022 0.36734 0.65857 0.0
H4432 H 0.51663 0.40855 0.62967 0.0
H4433 H 0.53967 0.40683 0.65386 0.0
H4434 H 0.48185 0.41483 0.63347 0.0
H4435 H 0.51763 0.36893 0.61069 0.0
H4436 H 0.53345 0.34183 0.61397 0.0
H4437 H 0.48679 0.31555 0.62772 0.0
H4438 H 0.47074 0.34256 0.62481 0.0
H4439 H 0.42503 0.41313 0.55188 0.0
H4440 H 0.45017 0.41379 0.5732 0.0
H4441 H 0.43544 0.36503 0.59756 0.0
H4442 H 0.41133 0.36377 0.57516 0.0
H4443 H 0.46635 0.36374 0.59459 0.0
H4444 H 0.43045 0.4084 0.62055 0.0
H4445 H 0.41366 0.43507 0.61936 0.0
H4446 H 0.45851 0.46304 0.60244 0.0
H4447 H 0.4755 0.43649 0.60329 0.0
C4448 C 0.51414 0.37491 0.67113 0.0
C4449 C 0.52838 0.38588 0.67011 0.0
C4450 C 0.50098 0.37599 0.65739 0.0
C4451 C 0.50174 0.38799 0.64218 0.0
C4452 C 0.51578 0.39916 0.64123 0.0
C4453 C 0.52901 0.39805 0.65499 0.0
C4454 C 0.48796 0.38862 0.62718 0.0
C4455 C 0.47857 0.40374 0.62475 0.0
C4456 C 0.4834 0.37406 0.61613 0.0
C4457 C 0.49301 0.35778 0.61765 0.0
C4458 C 0.51077 0.35739 0.61453 0.0
C4459 C 0.51977 0.34205 0.61631 0.0
C4460 C 0.51114 0.32698 0.62108 0.0
C4461 C 0.49347 0.32723 0.62404 0.0
C4462 C 0.48441 0.34254 0.6223 0.0
C4463 C 0.42726 0.40257 0.56179 0.0
C4464 C 0.41627 0.38838 0.56182 0.0
C4465 C 0.44156 0.403 0.57415 0.0
C4466 C 0.44472 0.38961 0.58745 0.0
C4467 C 0.43353 0.37553 0.58749 0.0
C4468 C 0.41966 0.37483 0.57469 0.0
C4469 C 0.4597 0.38988 0.60111 0.0
C4470 C 0.46948 0.37491 0.60324 0.0
C4471 C 0.46436 0.4045 0.61217 0.0
C4472 C 0.45419 0.42045 0.61181 0.0
C4473 C 0.43669 0.42023 0.61648 0.0
C4474 C 0.42715 0.43532 0.61586 0.0
C4475 C 0.435 0.45073 0.61078 0.0
C4476 C 0.45243 0.45109 0.60635 0.0
C4477 C 0.46203 0.43603 0.6069 0.0
H4478 H 0.42759 0.4624 0.61031 0.0
H4479 H 0.51813 0.31511 0.62246 0.0
H4480 H 0.15484 0.06979 0.2748 0.0
H4481 H 0.15503 0.03863 0.2742 0.0
H4482 H 0.11254 0.03906 0.2339 0.0
H4483 H 0.11176 0.07041 0.23559 0.0
H4484 H 0.106 0.01926 0.26292 0.0
H4485 H 0.15485 0.02627 0.22094 0.0
H4486 H 0.18308 0.03768 0.21162 0.0
H4487 H 0.20568 0.01403 0.26191 0.0
H4488 H 0.17754 0.00268 0.27168 0.0
H4489 H 0.10755 0.93257 0.23669 0.0
H4490 H 0.10788 0.96343 0.23959 0.0
H4491 H 0.14764 0.96012 0.28305 0.0
H4492 H 0.14776 0.92901 0.2799 0.0
H4493 H 0.15609 0.98121 0.25399 0.0
H4494 H 0.10754 0.97354 0.29537 0.0
H4495 H 0.07936 0.96221 0.30491 0.0
H4496 H 0.05625 0.98711 0.25572 0.0
H4497 H 0.08435 0.99839 0.24571 0.0
C4498 C 0.14591 0.06314 0.26541 0.0
C4499 C 0.13346 0.07213 0.25497 0.0
C4500 C 0.14603 0.04541 0.26502 0.0
C4501 C 0.13397 0.03658 0.25377 0.0
C4502 C 0.12199 0.04571 0.2426 0.0
C4503 C 0.1216 0.06348 0.24341 0.0
C4504 C 0.13271 0.01789 0.2553 0.0
C4505 C 0.11688 0.0109 0.26061 0.0
C4506 C 0.14711 0.00713 0.25314 0.0
C4507 C 0.16407 0.01373 0.2471 0.0
C4508 C 0.16583 0.02358 0.23007 0.0
C4509 C 0.18181 0.03003 0.2247 0.0
C4510 C 0.19616 0.02661 0.23619 0.0
C4511 C 0.19456 0.01668 0.25303 0.0
C4512 C 0.1786 0.01022 0.25848 0.0
C4513 C 0.11614 0.93831 0.24719 0.0
C4514 C 0.12774 0.92838 0.25798 0.0
C4515 C 0.11624 0.95597 0.24888 0.0
C4516 C 0.12772 0.96395 0.2616 0.0
C4517 C 0.13871 0.95407 0.27316 0.0
C4518 C 0.13871 0.93635 0.27138 0.0
C4519 C 0.12933 0.98263 0.26128 0.0
C4520 C 0.14523 0.9896 0.25629 0.0
C4521 C 0.115 0.99338 0.26369 0.0
C4522 C 0.09807 0.98671 0.26973 0.0
C4523 C 0.09647 0.9765 0.28651 0.0
C4524 C 0.08051 0.9701 0.29201 0.0
C4525 C 0.06603 0.97392 0.28091 0.0
C4526 C 0.06748 0.98417 0.2643 0.0
C4527 C 0.08342 0.99058 0.25872 0.0
H4528 H 0.05368 0.96895 0.2852 0.0
H4529 H 0.20852 0.03162 0.23201 0.0
H4530 H 0.18175 0.9051 0.52364 0.0
H4531 H 0.21289 0.90518 0.52229 0.0
H4532 H 0.2118 0.85943 0.48698 0.0
H4533 H 0.18047 0.85878 0.48959 0.0
H4534 H 0.23263 0.85555 0.5153 0.0
H4535 H 0.22244 0.90105 0.46995 0.0
H4536 H 0.21068 0.92841 0.45838 0.0
H4537 H 0.23784 0.95508 0.50345 0.0
H4538 H 0.24963 0.92784 0.51547 0.0
H4539 H 0.3195 0.8556 0.48934 0.0
H4540 H 0.2886 0.85589 0.49183 0.0
H4541 H 0.29103 0.89983 0.52974 0.0
H4542 H 0.32215 0.89981 0.52718 0.0
H4543 H 0.26974 0.9052 0.50022 0.0
H4544 H 0.27774 0.86028 0.54715 0.0
H4545 H 0.28954 0.83313 0.55949 0.0
H4546 H 0.26625 0.80611 0.51191 0.0
H4547 H 0.25445 0.83315 0.4992 0.0
C4548 C 0.18825 0.89529 0.5153 0.0
C4549 C 0.17906 0.88201 0.50654 0.0
C4550 C 0.20596 0.89538 0.51443 0.0
C4551 C 0.21462 0.88248 0.50424 0.0
C4552 C 0.2053 0.86953 0.49485 0.0
C4553 C 0.18754 0.86916 0.49623 0.0
C4554 C 0.23339 0.8816 0.50504 0.0
C4555 C 0.24075 0.86634 0.51166 0.0
C4556 C 0.24389 0.89591 0.50106 0.0
C4557 C 0.23691 0.91234 0.49366 0.0
C4558 C 0.22588 0.91272 0.47746 0.0
C4559 C 0.2192 0.92823 0.47081 0.0
C4560 C 0.2235 0.94348 0.48018 0.0
C4561 C 0.23453 0.94326 0.49619 0.0
C4562 C 0.24124 0.92778 0.50291 0.0
C4563 C 0.31354 0.86516 0.49851 0.0
C4564 C 0.32326 0.87776 0.50797 0.0
C4565 C 0.29585 0.86529 0.49993 0.0
C4566 C 0.28758 0.8779 0.51093 0.0
C4567 C 0.29725 0.89003 0.52112 0.0
C4568 C 0.315 0.88994 0.51971 0.0
C4569 C 0.26885 0.87918 0.51045 0.0
C4570 C 0.26154 0.89449 0.50388 0.0
C4571 C 0.25833 0.86498 0.51454 0.0
C4572 C 0.26531 0.84872 0.52219 0.0
C4573 C 0.27523 0.84855 0.53927 0.0
C4574 C 0.28189 0.83319 0.54634 0.0
C4575 C 0.27867 0.81791 0.53647 0.0
C4576 C 0.26874 0.81795 0.51954 0.0
C4577 C 0.26203 0.83328 0.51242 0.0
H4578 H 0.28386 0.80602 0.54196 0.0
H4579 H 0.2183 0.95547 0.47502 0.0
H4580 H 0.39765 0.93019 0.74682 0.0
H4581 H 0.39921 0.96137 0.74458 0.0
H4582 H 0.34502 0.96467 0.75606 0.0
H4583 H 0.34325 0.93355 0.75673 0.0
H4584 H 0.35455 0.99129 0.73572 0.0
H4585 H 0.37361 0.96306 0.79344 0.0
H4586 H 0.39037 0.94072 0.81008 0.0
H4587 H 0.43696 0.96418 0.79054 0.0
H4588 H 0.42043 0.98644 0.77333 0.0
H4589 H 0.35352 0.07034 0.77926 0.0
H4590 H 0.35476 0.03938 0.78334 0.0
H4591 H 0.40362 0.03817 0.75432 0.0
H4592 H 0.40263 0.06911 0.75024 0.0
H4593 H 0.39675 0.01065 0.7852 0.0
H4594 H 0.3754 0.03511 0.72348 0.0
H4595 H 0.35828 0.05743 0.70788 0.0
H4596 H 0.31379 0.04089 0.73937 0.0
H4597 H 0.3309 0.01829 0.75535 0.0
C4598 C 0.38602 0.93763 0.74803 0.0
C4599 C 0.37039 0.9297 0.75212 0.0
C4600 C 0.38689 0.95536 0.74684 0.0
C4601 C 0.37233 0.96525 0.75087 0.0
C4602 C 0.35642 0.95725 0.75305 0.0
C4603 C 0.35543 0.9395 0.75349 0.0
C4604 C 0.3741 0.98345 0.75596 0.0
C4605 C 0.36361 0.99542 0.74671 0.0
C4606 C 0.3858 0.98885 0.7705 0.0
C4607 C 0.39581 0.97634 0.78201 0.0
C4608 C 0.38743 0.96342 0.79266 0.0
C4609 C 0.39688 0.95072 0.80208 0.0
C4610 C 0.41472 0.95096 0.80124 0.0
C4611 C 0.42314 0.96397 0.79109 0.0
C4612 C 0.41375 0.97664 0.78149 0.0
C4613 C 0.36481 0.0636 0.77434 0.0
C4614 C 0.37776 0.07208 0.76396 0.0
C4615 C 0.36556 0.04593 0.77685 0.0
C4616 C 0.37923 0.0366 0.76899 0.0
C4617 C 0.39304 0.04523 0.76056 0.0
C4618 C 0.39231 0.06288 0.75801 0.0
C4619 C 0.37712 0.01825 0.76509 0.0
C4620 C 0.38755 0.00632 0.77449 0.0
C4621 C 0.36502 0.01274 0.75117 0.0
C4622 C 0.35435 0.02512 0.74051 0.0
C4623 C 0.36194 0.03621 0.727 0.0
C4624 C 0.35225 0.04899 0.71819 0.0
C4625 C 0.33492 0.05075 0.72267 0.0
C4626 C 0.32722 0.03958 0.73595 0.0
C4627 C 0.33689 0.02672 0.74484 0.0
H4628 H 0.32743 0.06067 0.71575 0.0
H4629 H 0.42202 0.94113 0.80859 0.0
H4630 H 0.18124 0.09325 0.01286 0.0
H4631 H 0.21231 0.0906 0.01083 0.0
H4632 H 0.21549 0.14133 0.98635 0.0
H4633 H 0.18448 0.14392 0.98778 0.0
H4634 H 0.23636 0.11885 0.96741 0.0
H4635 H 0.22127 0.13354 0.03427 0.0
H4636 H 0.20618 0.1277 0.06487 0.0
H4637 H 0.2336 0.08036 0.07115 0.0
H4638 H 0.24834 0.08571 0.03998 0.0
H4639 H 0.31776 0.14379 0.02411 0.0
H4640 H 0.28716 0.14184 0.01837 0.0
H4641 H 0.2951 0.09871 0.98027 0.0
H4642 H 0.3259 0.10054 0.98582 0.0
H4643 H 0.26905 0.1127 0.02898 0.0
H4644 H 0.26083 0.10027 0.94737 0.0
H4645 H 0.27495 0.10704 0.91612 0.0
H4646 H 0.29492 0.15344 0.9406 0.0
H4647 H 0.28072 0.14703 0.97186 0.0
C4648 C 0.18858 0.10391 1.00724 0.0
C4649 C 0.1805 0.1189 1.00075 0.0
C4650 C 0.20626 0.10229 1.0059 0.0
C4651 C 0.21608 0.11576 0.99839 0.0
C4652 C 0.20805 0.13073 0.99196 0.0
C4653 C 0.19038 0.13228 0.99306 0.0
C4654 C 0.23484 0.11492 0.99841 0.0
C4655 C 0.24355 0.11753 0.98083 0.0
C4656 C 0.24414 0.11282 0.01587 0.0
C4657 C 0.23571 0.10992 0.0348 0.0
C4658 C 0.22398 0.12184 0.04216 0.0
C4659 C 0.21549 0.1186 0.05963 0.0
C4660 C 0.21895 0.10366 0.07014 0.0
C4661 C 0.23091 0.09193 0.06308 0.0
C4662 C 0.23928 0.09502 0.04545 0.0
C4663 C 0.31309 0.13408 0.01422 0.0
C4664 C 0.3242 0.12217 1.0056 0.0
C4665 C 0.29562 0.13297 0.01102 0.0
C4666 C 0.28904 0.12004 0.99911 0.0
C4667 C 0.30009 0.10877 0.98951 0.0
C4668 C 0.31763 0.10984 0.99272 0.0
C4669 C 0.2705 0.11763 0.99813 0.0
C4670 C 0.26189 0.11405 0.0155 0.0
C4671 C 0.26134 0.1191 0.98054 0.0
C4672 C 0.26992 0.12306 0.96192 0.0
C4673 C 0.26827 0.11189 0.94604 0.0
C4674 C 0.27627 0.11567 0.92835 0.0
C4675 C 0.28589 0.13062 0.9264 0.0
C4676 C 0.28752 0.14183 0.94214 0.0
C4677 C 0.27954 0.13811 0.95986 0.0
H4678 H 0.29204 0.13354 0.91266 0.0
H4679 H 0.21239 0.10114 0.08372 0.0
H4680 H 0.89372 0.06957 0.78434 0.0
H4681 H 0.8929 0.03864 0.78298 0.0
H4682 H 0.85399 0.04093 0.73843 0.0
H4683 H 0.85433 0.07216 0.74008 0.0
H4684 H 0.84491 0.02001 0.76704 0.0
H4685 H 0.89438 0.02738 0.72747 0.0
H4686 H 0.92261 0.03898 0.7185 0.0
H4687 H 0.94488 0.01553 0.76911 0.0
H4688 H 0.91672 0.00399 0.77853 0.0
H4689 H 0.8486 0.93269 0.74147 0.0
H4690 H 0.8485 0.96379 0.74368 0.0
H4691 H 0.88647 0.96137 0.78936 0.0
H4692 H 0.88697 0.93003 0.78651 0.0
H4693 H 0.89563 0.98237 0.76059 0.0
H4694 H 0.84412 0.97394 0.79856 0.0
H4695 H 0.81555 0.96157 0.80421 0.0
H4696 H 0.79673 0.98626 0.75256 0.0
H4697 H 0.82525 0.99859 0.74645 0.0
C4698 C 0.88519 0.06358 0.77395 0.0
C4699 C 0.87402 0.0733 0.76236 0.0
C4700 C 0.88479 0.04587 0.77318 0.0
C4701 C 0.87345 0.03757 0.76055 0.0
C4702 C 0.86279 0.0472 0.74831 0.0
C4703 C 0.86307 0.06498 0.7492 0.0
C4704 C 0.87197 0.01886 0.76125 0.0
C4705 C 0.85595 0.01174 0.76542 0.0
C4706 C 0.88645 0.0082 0.75948 0.0
C4707 C 0.90343 0.01496 0.75378 0.0
C4708 C 0.90528 0.0248 0.73675 0.0
C4709 C 0.92127 0.03135 0.73158 0.0
C4710 C 0.93552 0.02803 0.74325 0.0
C4711 C 0.93383 0.0181 0.76009 0.0
C4712 C 0.91786 0.01154 0.76535 0.0
C4713 C 0.85656 0.93887 0.75229 0.0
C4714 C 0.8676 0.92932 0.76406 0.0
C4715 C 0.85648 0.95656 0.7536 0.0
C4716 C 0.86728 0.9648 0.76691 0.0
C4717 C 0.87796 0.95514 0.77914 0.0
C4718 C 0.87819 0.93738 0.77763 0.0
C4719 C 0.86862 0.98352 0.76661 0.0
C4720 C 0.88463 0.99065 0.76247 0.0
C4721 C 0.85407 0.99414 0.76807 0.0
C4722 C 0.8368 0.98717 0.77206 0.0
C4723 C 0.83388 0.9767 0.7884 0.0
C4724 C 0.81771 0.96969 0.79167 0.0
C4725 C 0.80433 0.97313 0.77875 0.0
C4726 C 0.80709 0.98363 0.76256 0.0
C4727 C 0.82325 0.99067 0.75922 0.0
H4728 H 0.79182 0.96766 0.78129 0.0
H4729 H 0.94789 0.03311 0.73922 0.0
H4730 H 0.68474 0.13739 0.48484 0.0
H4731 H 0.71479 0.12863 0.48451 0.0
H4732 H 0.70386 0.08955 0.52712 0.0
H4733 H 0.67363 0.09774 0.52676 0.0
H4734 H 0.72925 0.11977 0.53567 0.0
H4735 H 0.71667 0.07317 0.49387 0.0
H4736 H 0.70382 0.059 0.46537 0.0
H4737 H 0.73414 0.09011 0.42702 0.0
H4738 H 0.74686 0.10469 0.45534 0.0
H4739 H 0.82062 0.10501 0.53475 0.0
H4740 H 0.7897 0.10005 0.53687 0.0
H4741 H 0.78256 0.1267 0.48247 0.0
H4742 H 0.81316 0.13193 0.48026 0.0
H4743 H 0.76595 0.09575 0.48343 0.0
H4744 H 0.7735 0.14582 0.52292 0.0
H4745 H 0.78459 0.1632 0.55006 0.0
H4746 H 0.76247 0.12831 0.59136 0.0
H4747 H 0.75162 0.11048 0.56442 0.0
C4748 C 0.68868 0.12651 0.49354 0.0
C4749 C 0.67701 0.11814 0.50573 0.0
C4750 C 0.70575 0.12154 0.49337 0.0
C4751 C 0.71137 0.10846 0.50577 0.0
C4752 C 0.6996 0.09956 0.51733 0.0
C4753 C 0.68239 0.1042 0.51706 0.0
C4754 C 0.72981 0.10606 0.50851 0.0
C4755 C 0.73735 0.11403 0.5246 0.0
C4756 C 0.74013 0.09903 0.49372 0.0
C4757 C 0.73257 0.09018 0.4767 0.0
C4758 C 0.72044 0.07714 0.47936 0.0
C4759 C 0.7132 0.06899 0.46324 0.0
C4760 C 0.71811 0.07368 0.44439 0.0
C4761 C 0.7303 0.0865 0.44162 0.0
C4762 C 0.73753 0.09472 0.4577 0.0
C4763 C 0.8124 0.10999 0.52339 0.0
C4764 C 0.81927 0.11897 0.50744 0.0
C4765 C 0.79481 0.1071 0.52459 0.0
C4766 C 0.78397 0.11298 0.50974 0.0
C4767 C 0.7908 0.12207 0.49398 0.0
C4768 C 0.80826 0.12517 0.49288 0.0
C4769 C 0.76543 0.1098 0.51042 0.0
C4770 C 0.7579 0.10093 0.49488 0.0
C4771 C 0.75506 0.11625 0.52558 0.0
C4772 C 0.76207 0.12664 0.5417 0.0
C4773 C 0.77128 0.14169 0.53779 0.0
C4774 C 0.77747 0.15165 0.55313 0.0
C4775 C 0.77433 0.14681 0.57243 0.0
C4776 C 0.76499 0.13199 0.57641 0.0
C4777 C 0.75885 0.12193 0.56112 0.0
H4778 H 0.77906 0.15459 0.58429 0.0
H4779 H 0.71251 0.06734 0.43191 0.0
H4780 H 0.6227 0.07021 0.22277 0.0
H4781 H 0.62467 0.03929 0.22347 0.0
H4782 H 0.64075 0.0412 0.28371 0.0
H4783 H 0.63993 0.07255 0.2826 0.0
H4784 H 0.65873 0.01881 0.26569 0.0
H4785 H 0.59875 0.02973 0.26936 0.0
H4786 H 0.57111 0.04233 0.25982 0.0
H4787 H 0.57433 0.01764 0.20402 0.0
H4788 H 0.60211 0.00507 0.21313 0.0
H4789 H 0.62744 0.93588 0.29162 0.0
H4790 H 0.62955 0.96672 0.28684 0.0
H4791 H 0.64099 0.95896 0.22593 0.0
H4792 H 0.63945 0.9278 0.23074 0.0
H4793 H 0.61027 0.98348 0.24216 0.0
H4794 H 0.67106 0.97134 0.24174 0.0
H4795 H 0.6971 0.95785 0.25488 0.0
H4796 H 0.69 0.9842 0.3092 0.0
H4797 H 0.66375 0.99762 0.29648 0.0
C4798 C 0.6265 0.06405 0.23625 0.0
C4799 C 0.63094 0.07366 0.25276 0.0
C4800 C 0.62759 0.04637 0.23663 0.0
C4801 C 0.63245 0.03793 0.25377 0.0
C4802 C 0.63689 0.0475 0.27035 0.0
C4803 C 0.63631 0.06533 0.26978 0.0
C4804 C 0.63307 0.01911 0.25417 0.0
C4805 C 0.64806 0.01112 0.26069 0.0
C4806 C 0.61925 0.00905 0.24738 0.0
C4807 C 0.60256 0.01659 0.24187 0.0
C4808 C 0.59361 0.02709 0.255 0.0
C4809 C 0.57791 0.03421 0.24968 0.0
C4810 C 0.57098 0.03082 0.23131 0.0
C4811 C 0.57972 0.02027 0.21824 0.0
C4812 C 0.59543 0.01313 0.22348 0.0
C4813 C 0.63034 0.94075 0.27719 0.0
C4814 C 0.6331 0.92964 0.26144 0.0
C4815 C 0.63167 0.95828 0.27455 0.0
C4816 C 0.63551 0.96488 0.25612 0.0
C4817 C 0.63813 0.95389 0.24027 0.0
C4818 C 0.63721 0.93624 0.243 0.0
C4819 C 0.63585 0.98341 0.25355 0.0
C4820 C 0.62097 0.9913 0.24682 0.0
C4821 C 0.64956 0.99332 0.26059 0.0
C4822 C 0.66537 0.98534 0.26822 0.0
C4823 C 0.67496 0.97411 0.25655 0.0
C4824 C 0.68978 0.96651 0.26391 0.0
C4825 C 0.69519 0.97014 0.28288 0.0
C4826 C 0.6858 0.9814 0.29452 0.0
C4827 C 0.67095 0.98901 0.28723 0.0
H4828 H 0.70668 0.96426 0.28854 0.0
H4829 H 0.55882 0.03634 0.22722 0.0
H4830 H 0.67952 0.88995 0.03416 0.0
H4831 H 0.7108 0.89016 0.03645 0.0
H4832 H 0.71425 0.87236 0.97694 0.0
H4833 H 0.68328 0.87127 0.97499 0.0
H4834 H 0.73611 0.85637 0.99717 0.0
H4835 H 0.72032 0.91521 0.9905 0.0
H4836 H 0.705 0.94173 0.99894 0.0
H4837 H 0.72914 0.94222 0.05517 0.0
H4838 H 0.7444 0.91554 0.04717 0.0
H4839 H 0.82379 0.87885 0.98225 0.0
H4840 H 0.79245 0.88027 0.97912 0.0
H4841 H 0.78793 0.88542 0.04155 0.0
H4842 H 0.81889 0.88266 0.04483 0.0
H4843 H 0.76711 0.9082 0.01919 0.0
H4844 H 0.78198 0.84779 0.02427 0.0
H4845 H 0.79741 0.82192 0.01382 0.0
H4846 H 0.77504 0.82603 0.95681 0.0
H4847 H 0.75963 0.85207 0.96692 0.0
C4848 C 0.68705 0.88594 0.02171 0.0
C4849 C 0.67912 0.88045 1.00451 0.0
C4850 C 0.70484 0.88618 0.02295 0.0
C4851 C 0.7148 0.88149 1.00675 0.0
C4852 C 0.7068 0.87593 0.98963 0.0
C4853 C 0.68912 0.87529 0.98856 0.0
C4854 C 0.73359 0.88232 1.00745 0.0
C4855 C 0.74284 0.86781 1.00174 0.0
C4856 C 0.74239 0.89718 0.01355 0.0
C4857 C 0.73337 0.91331 0.01831 0.0
C4858 C 0.72227 0.92092 1.00471 0.0
C4859 C 0.71361 0.93598 0.00941 0.0
C4860 C 0.71606 0.94363 0.0276 0.0
C4861 C 0.72723 0.93627 0.0411 0.0
C4862 C 0.7359 0.92118 0.03649 0.0
C4863 C 0.81596 0.88004 0.99522 0.0
C4864 C 0.82344 0.88025 0.01376 0.0
C4865 C 0.79824 0.88096 0.99344 0.0
C4866 C 0.78806 0.88264 0.01019 0.0
C4867 C 0.79565 0.8837 0.0286 0.0
C4868 C 0.81324 0.88211 0.03043 0.0
C4869 C 0.76939 0.88235 1.00879 0.0
C4870 C 0.76024 0.89689 0.01448 0.0
C4871 C 0.76066 0.86767 1.00229 0.0
C4872 C 0.76979 0.85194 0.9963 0.0
C4873 C 0.78045 0.84324 0.00949 0.0
C4874 C 0.78917 0.82854 1.00363 0.0
C4875 C 0.78724 0.82235 0.98464 0.0
C4876 C 0.77654 0.83084 0.9715 0.0
C4877 C 0.7678 0.84556 0.9773 0.0
H4878 H 0.79401 0.81096 0.98013 0.0
H4879 H 0.70933 0.95529 0.03122 0.0
H4880 H 0.6109 0.57088 0.74184 0.0
H4881 H 0.6122 0.53962 0.7409 0.0
H4882 H 0.66335 0.54129 0.76459 0.0
H4883 H 0.66254 0.57246 0.76378 0.0
H4884 H 0.66124 0.51483 0.74419 0.0
H4885 H 0.62707 0.53842 0.79402 0.0
H4886 H 0.60489 0.55782 0.80665 0.0
H4887 H 0.56639 0.52983 0.77548 0.0
H4888 H 0.58846 0.51057 0.76214 0.0
H4889 H 0.65288 0.42953 0.77904 0.0
H4890 H 0.65505 0.46058 0.78172 0.0
H4891 H 0.6096 0.46618 0.74672 0.0
H4892 H 0.60727 0.43526 0.7439 0.0
H4893 H 0.611 0.48902 0.7772 0.0
H4894 H 0.65082 0.46636 0.72666 0.0
H4895 H 0.67634 0.45075 0.71536 0.0
H4896 H 0.70749 0.47782 0.7564 0.0
H4897 H 0.6823 0.49403 0.76762 0.0
C4898 C 0.62262 0.56447 0.746 0.0
C4899 C 0.63665 0.57379 0.75278 0.0
C4900 C 0.62331 0.54669 0.74573 0.0
C4901 C 0.63764 0.53816 0.75338 0.0
C4902 C 0.65214 0.54759 0.75874 0.0
C4903 C 0.6517 0.56535 0.75823 0.0
C4904 C 0.63685 0.51969 0.75766 0.0
C4905 C 0.65036 0.50923 0.75165 0.0
C4906 C 0.62289 0.51244 0.7679 0.0
C4907 C 0.60943 0.52316 0.77695 0.0
C4908 C 0.61387 0.53642 0.78984 0.0
C4909 C 0.60134 0.54745 0.79702 0.0
C4910 C 0.58425 0.54513 0.79174 0.0
C4911 C 0.57965 0.53165 0.77946 0.0
C4912 C 0.59217 0.52069 0.77206 0.0
C4913 C 0.64317 0.43735 0.77218 0.0
C4914 C 0.63002 0.42996 0.76103 0.0
C4915 C 0.6445 0.45506 0.77367 0.0
C4916 C 0.6327 0.46556 0.76403 0.0
C4917 C 0.61893 0.45822 0.75404 0.0
C4918 C 0.61762 0.44055 0.75247 0.0
C4919 C 0.63512 0.48417 0.76313 0.0
C4920 C 0.62195 0.49469 0.76997 0.0
C4921 C 0.64979 0.49155 0.75451 0.0
C4922 C 0.66467 0.48134 0.74805 0.0
C4923 C 0.66308 0.46897 0.73332 0.0
C4924 C 0.67748 0.46002 0.72691 0.0
C4925 C 0.69344 0.46314 0.73527 0.0
C4926 C 0.6951 0.47536 0.74997 0.0
C4927 C 0.6808 0.48451 0.75628 0.0
H4928 H 0.70455 0.45615 0.73028 0.0
H4929 H 0.57456 0.55374 0.79721 0.0
H4930 H 0.81778 0.40688 1.00632 0.0
H4931 H 0.78671 0.40521 1.00763 0.0
H4932 H 0.78975 0.35022 0.01238 0.0
H4933 H 0.82091 0.35185 0.0097 0.0
H4934 H 0.76741 0.3577 0.98714 0.0
H4935 H 0.77866 0.378 0.05116 0.0
H4936 H 0.79113 0.39682 0.07623 0.0
H4937 H 0.76283 0.43938 0.05351 0.0
H4938 H 0.75078 0.42106 0.02776 0.0
H4939 H 0.67911 0.35196 0.0168 0.0
H4940 H 0.71019 0.3504 0.01356 0.0
H4941 H 0.71136 0.4028 0.99402 0.0
H4942 H 0.68031 0.40447 0.99702 0.0
H4943 H 0.731 0.39503 0.02822 0.0
H4944 H 0.7215 0.37533 0.96328 0.0
H4945 H 0.70935 0.35695 0.93767 0.0
H4946 H 0.73389 0.31315 0.96303 0.0
H4947 H 0.74592 0.33126 0.98906 0.0
C4948 C 0.81179 0.39449 1.00806 0.0
C4949 C 0.82157 0.37949 1.00813 0.0
C4950 C 0.79406 0.39353 1.00884 0.0
C4951 C 0.78592 0.3776 0.01046 0.0
C4952 C 0.79579 0.36263 0.01117 0.0
C4953 C 0.81351 0.36356 0.00978 0.0
C4954 C 0.76711 0.37654 0.01009 0.0
C4955 C 0.75946 0.3656 0.99646 0.0
C4956 C 0.75674 0.38716 0.02188 0.0
C4957 C 0.7639 0.39816 0.03745 0.0
C4958 C 0.77521 0.39141 0.05139 0.0
C4959 C 0.78221 0.40199 0.06572 0.0
C4960 C 0.77771 0.41924 0.06652 0.0
C4961 C 0.76629 0.426 0.0529 0.0
C4962 C 0.75942 0.41555 0.03839 0.0
C4963 C 0.68596 0.36301 0.01139 0.0
C4964 C 0.67739 0.37838 1.00732 0.0
C4965 C 0.70364 0.36208 0.00951 0.0
C4966 C 0.71288 0.37653 1.0037 0.0
C4967 C 0.7043 0.39157 0.99856 0.0
C4968 C 0.6866 0.39246 1.00019 0.0
C4969 C 0.73156 0.37652 1.00507 0.0
C4970 C 0.73907 0.38708 0.01907 0.0
C4971 C 0.74176 0.36554 0.99372 0.0
C4972 C 0.73438 0.35459 0.97828 0.0
C4973 C 0.72409 0.36174 0.96357 0.0
C4974 C 0.71728 0.35138 0.94894 0.0
C4975 C 0.72079 0.33388 0.94877 0.0
C4976 C 0.73115 0.32671 0.96322 0.0
C4977 C 0.73796 0.33701 0.97791 0.0
H4978 H 0.71553 0.32588 0.9374 0.0
H4979 H 0.78309 0.42737 0.07769 0.0
H4980 H 0.84433 0.57078 0.2712 0.0
H4981 H 0.83977 0.53998 0.26961 0.0
H4982 H 0.8872 0.5341 0.23815 0.0
H4983 H 0.89172 0.56489 0.23925 0.0
H4984 H 0.86071 0.51684 0.22103 0.0
H4985 H 0.88387 0.52459 0.28691 0.0
H4986 H 0.88243 0.53832 0.31926 0.0
H4987 H 0.8324 0.51717 0.3284 0.0
H4988 H 0.83347 0.50355 0.29598 0.0
H4989 H 0.89464 0.43512 0.23766 0.0
H4990 H 0.88635 0.46511 0.23317 0.0
H4991 H 0.83886 0.4556 0.26339 0.0
H4992 H 0.84704 0.42592 0.26792 0.0
H4993 H 0.85749 0.4804 0.28017 0.0
H4994 H 0.83652 0.4673 0.21833 0.0
H4995 H 0.8355 0.45475 0.18544 0.0
H4996 H 0.8783 0.48555 0.16799 0.0
H4997 H 0.8799 0.49794 0.20096 0.0
C4998 C 0.85394 0.56292 0.2642 0.0
C4999 C 0.86844 0.57025 0.25542 0.0
C5000 C 0.85125 0.54535 0.26323 0.0
C5001 C 0.86314 0.53488 0.25373 0.0
C5002 C 0.87783 0.54208 0.24541 0.0
C5003 C 0.88047 0.55963 0.24624 0.0
C5004 C 0.86046 0.51634 0.25242 0.0
C5005 C 0.86013 0.5088 0.23392 0.0
C5006 C 0.85876 0.50605 0.26922 0.0
C5007 C 0.85864 0.51332 0.28903 0.0
C5008 C 0.87258 0.52291 0.29585 0.0
C5009 C 0.87181 0.53067 0.31416 0.0
C5010 C 0.85724 0.52875 0.32575 0.0
C5011 C 0.8436 0.51873 0.31931 0.0
C5012 C 0.84428 0.51099 0.30101 0.0
C5013 C 0.88231 0.43944 0.24288 0.0
C5014 C 0.87148 0.42838 0.253 0.0
C5015 C 0.87751 0.45642 0.24022 0.0
C5016 C 0.86197 0.46239 0.2479 0.0
C5017 C 0.85081 0.45111 0.25724 0.0
C5018 C 0.85549 0.43417 0.25969 0.0
C5019 C 0.85872 0.4808 0.24876 0.0
C5020 C 0.8578 0.48836 0.2672 0.0
C5021 C 0.8591 0.49106 0.23189 0.0
C5022 C 0.85838 0.48349 0.21213 0.0
C5023 C 0.84584 0.47126 0.20755 0.0
C5024 C 0.84515 0.46417 0.18888 0.0
C5025 C 0.85683 0.46934 0.17464 0.0
C5026 C 0.86927 0.48155 0.17904 0.0
C5027 C 0.87008 0.48861 0.19772 0.0
H5028 H 0.85624 0.46389 0.16016 0.0
H5029 H 0.85641 0.53515 0.33963 0.0
H5030 H 0.68367 0.59671 0.51844 0.0
H5031 H 0.71473 0.59835 0.52058 0.0
H5032 H 0.71258 0.6526 0.50921 0.0
H5033 H 0.68153 0.65087 0.50624 0.0
H5034 H 0.73381 0.63868 0.48563 0.0
H5035 H 0.72522 0.63561 0.55416 0.0
H5036 H 0.71406 0.62448 0.58529 0.0
H5037 H 0.7397 0.57673 0.57541 0.0
H5038 H 0.75079 0.58749 0.54407 0.0
H5039 H 0.82252 0.65128 0.51514 0.0
H5040 H 0.7913 0.65215 0.51262 0.0
H5041 H 0.79051 0.5982 0.49986 0.0
H5042 H 0.82169 0.59726 0.50184 0.0
H5043 H 0.77139 0.61282 0.53586 0.0
H5044 H 0.77892 0.61685 0.46621 0.0
H5045 H 0.79064 0.62941 0.43608 0.0
H5046 H 0.76729 0.67756 0.45003 0.0
H5047 H 0.75571 0.66533 0.48047 0.0
C5048 C 0.68981 0.60905 0.5169 0.0
C5049 C 0.68031 0.62366 0.5121 0.0
C5050 C 0.70755 0.60998 0.51816 0.0
C5051 C 0.71594 0.62561 0.5151 0.0
C5052 C 0.70633 0.64041 0.5115 0.0
C5053 C 0.68864 0.63942 0.50988 0.0
C5054 C 0.73474 0.62621 0.5137 0.0
C5055 C 0.74199 0.63329 0.49682 0.0
C5056 C 0.74543 0.61884 0.52802 0.0
C5057 C 0.73868 0.61229 0.54673 0.0
C5058 C 0.72833 0.62268 0.55856 0.0
C5059 C 0.72205 0.61645 0.57625 0.0
C5060 C 0.72613 0.59989 0.5823 0.0
C5061 C 0.73652 0.58953 0.57069 0.0
C5062 C 0.74282 0.5957 0.55297 0.0
C5063 C 0.81569 0.63972 0.5113 0.0
C5064 C 0.82442 0.62421 0.50871 0.0
C5065 C 0.79795 0.64025 0.50986 0.0
C5066 C 0.78883 0.62522 0.50613 0.0
C5067 C 0.79751 0.60988 0.50269 0.0
C5068 C 0.81526 0.60941 0.50373 0.0
C5069 C 0.77019 0.62519 0.5079 0.0
C5070 C 0.76306 0.61825 0.52482 0.0
C5071 C 0.75964 0.63289 0.4938 0.0
C5072 C 0.76668 0.64026 0.47568 0.0
C5073 C 0.77649 0.63018 0.46296 0.0
C5074 C 0.78306 0.63722 0.44581 0.0
C5075 C 0.77976 0.65429 0.44117 0.0
C5076 C 0.76987 0.66435 0.45367 0.0
C5077 C 0.7633 0.65738 0.47086 0.0
H5078 H 0.78484 0.65972 0.42786 0.0
H5079 H 0.72127 0.5951 0.59604 0.0
H5080 H 0.38955 0.5692 0.23373 0.0
H5081 H 0.38195 0.53894 0.23121 0.0
H5082 H 0.34121 0.54643 0.27271 0.0
H5083 H 0.34823 0.57692 0.27449 0.0
H5084 H 0.3738 0.52334 0.28109 0.0
H5085 H 0.32662 0.53382 0.23919 0.0
H5086 H 0.31166 0.54542 0.21052 0.0
H5087 H 0.34331 0.51528 0.17277 0.0
H5088 H 0.35919 0.50423 0.20107 0.0
H5089 H 0.35683 0.43224 0.28215 0.0
H5090 H 0.35348 0.4634 0.28341 0.0
H5091 H 0.38235 0.46822 0.23008 0.0
H5092 H 0.38599 0.43731 0.22884 0.0
H5093 H 0.35072 0.48531 0.22966 0.0
H5094 H 0.39972 0.47713 0.26928 0.0
H5095 H 0.41778 0.4674 0.29643 0.0
H5096 H 0.3866 0.49534 0.33679 0.0
H5097 H 0.36739 0.50397 0.31021 0.0
C5098 C 0.3785 0.56449 0.24161 0.0
C5099 C 0.3694 0.57522 0.25423 0.0
C5100 C 0.37418 0.54729 0.24017 0.0
C5101 C 0.36102 0.54062 0.25173 0.0
C5102 C 0.35125 0.55152 0.26351 0.0
C5103 C 0.35524 0.56888 0.26448 0.0
C5104 C 0.35988 0.52202 0.25415 0.0
C5105 C 0.36831 0.51491 0.2702 0.0
C5106 C 0.35335 0.51135 0.23941 0.0
C5107 C 0.34424 0.51837 0.22228 0.0
C5108 C 0.33068 0.52996 0.22475 0.0
C5109 C 0.32205 0.53645 0.20854 0.0
C5110 C 0.32667 0.53123 0.1898 0.0
C5111 C 0.33995 0.51951 0.18724 0.0
C5112 C 0.3488 0.51317 0.20336 0.0
C5113 C 0.36267 0.43999 0.27088 0.0
C5114 C 0.37174 0.43239 0.25546 0.0
C5115 C 0.36071 0.45772 0.2716 0.0
C5116 C 0.36757 0.46796 0.25675 0.0
C5117 C 0.3769 0.46043 0.24159 0.0
C5118 C 0.37911 0.4428 0.24103 0.0
C5119 C 0.36475 0.48656 0.25662 0.0
C5120 C 0.35577 0.49366 0.2409 0.0
C5121 C 0.3711 0.49729 0.27151 0.0
C5122 C 0.3818 0.49082 0.28774 0.0
C5123 C 0.39628 0.48065 0.28402 0.0
C5124 C 0.40672 0.4753 0.29937 0.0
C5125 C 0.40313 0.48045 0.31843 0.0
C5126 C 0.38907 0.49093 0.32216 0.0
C5127 C 0.3783 0.49593 0.30697 0.0
H5128 H 0.41136 0.47651 0.33028 0.0
H5129 H 0.31989 0.53616 0.17725 0.0
H5130 H 0.31872 0.64886 1.00289 0.0
H5131 H 0.28778 0.64815 1.00787 0.0
H5132 H 0.29136 0.59636 0.02894 0.0
H5133 H 0.32234 0.59703 0.02456 0.0
H5134 H 0.26943 0.61455 0.98765 0.0
H5135 H 0.27406 0.60191 0.05837 0.0
H5136 H 0.28481 0.60728 0.09159 0.0
H5137 H 0.26932 0.65983 0.08728 0.0
H5138 H 0.25848 0.65467 0.05397 0.0
H5139 H 0.1805 0.59744 1.0014 0.0
H5140 H 0.21163 0.59647 1.00236 0.0
H5141 H 0.21287 0.64852 0.02313 0.0
H5142 H 0.18169 0.64943 0.02278 0.0
H5143 H 0.23282 0.62798 0.04473 0.0
H5144 H 0.22132 0.637 0.97651 0.0
H5145 H 0.20778 0.62924 0.94539 0.0
H5146 H 0.23682 0.58268 0.94365 0.0
H5147 H 0.24968 0.58961 0.97548 0.0
C5148 C 0.31297 0.63749 1.00908 0.0
C5149 C 0.32288 0.62298 0.01325 0.0
C5150 C 0.29537 0.63713 0.01196 0.0
C5151 C 0.28749 0.62227 0.01891 0.0
C5152 C 0.29737 0.60803 0.02393 0.0
C5153 C 0.31503 0.60845 0.02134 0.0
C5154 C 0.26884 0.62094 0.01813 0.0
C5155 C 0.26134 0.61725 1.00013 0.0
C5156 C 0.25852 0.62464 0.03436 0.0
C5157 C 0.26583 0.62801 0.05371 0.0
C5158 C 0.27327 0.61467 0.06442 0.0
C5159 C 0.27927 0.61765 0.08327 0.0
C5160 C 0.27786 0.63393 0.0915 0.0
C5161 C 0.27046 0.64725 0.08087 0.0
C5162 C 0.26438 0.64431 0.06203 0.0
C5163 C 0.1874 0.60881 1.00577 0.0
C5164 C 0.17871 0.62357 0.01189 0.0
C5165 C 0.20517 0.60818 1.00643 0.0
C5166 C 0.21447 0.62243 0.01279 0.0
C5167 C 0.20584 0.63737 0.01828 0.0
C5168 C 0.18808 0.63793 0.01789 0.0
C5169 C 0.23322 0.62174 0.0141 0.0
C5170 C 0.24079 0.62514 0.03218 0.0
C5171 C 0.24359 0.61757 0.99789 0.0
C5172 C 0.2363 0.61373 0.97848 0.0
C5173 C 0.22467 0.625 0.96962 0.0
C5174 C 0.21705 0.62071 0.95189 0.0
C5175 C 0.22148 0.60551 0.94249 0.0
C5176 C 0.23339 0.59446 0.95094 0.0
C5177 C 0.24074 0.59849 0.96891 0.0
H5178 H 0.21569 0.60231 0.92864 0.0
H5179 H 0.28241 0.6362 0.10617 0.0
H5180 H 0.11657 0.43067 0.73108 0.0
H5181 H 0.1205 0.46172 0.72659 0.0
H5182 H 0.15731 0.4621 0.77345 0.0
H5183 H 0.15372 0.43133 0.7776 0.0
H5184 H 0.11867 0.48175 0.77095 0.0
H5185 H 0.17708 0.4712 0.74795 0.0
H5186 H 0.19803 0.45907 0.72505 0.0
H5187 H 0.17537 0.48741 0.67813 0.0
H5188 H 0.15348 0.49879 0.70052 0.0
H5189 H 0.15962 0.57151 0.76687 0.0
H5190 H 0.16188 0.54036 0.76623 0.0
H5191 H 0.11045 0.53689 0.74393 0.0
H5192 H 0.10799 0.56794 0.7445 0.0
H5193 H 0.15815 0.51866 0.73302 0.0
H5194 H 0.09218 0.50286 0.7673 0.0
H5195 H 0.07253 0.5146 0.79205 0.0
H5196 H 0.11455 0.53966 0.8204 0.0
H5197 H 0.13445 0.5278 0.79606 0.0
C5198 C 0.12576 0.43747 0.73998 0.0
C5199 C 0.13487 0.42903 0.75465 0.0
C5200 C 0.12811 0.45499 0.73732 0.0
C5201 C 0.13953 0.46389 0.74937 0.0
C5202 C 0.14886 0.45524 0.76369 0.0
C5203 C 0.14667 0.43783 0.76619 0.0
C5204 C 0.13911 0.48248 0.74999 0.0
C5205 C 0.12718 0.48988 0.76255 0.0
C5206 C 0.15059 0.49277 0.73937 0.0
C5207 C 0.16333 0.48542 0.72582 0.0
C5208 C 0.17616 0.47437 0.73264 0.0
C5209 C 0.18823 0.46765 0.71973 0.0
C5210 C 0.18783 0.47223 0.70005 0.0
C5211 C 0.1754 0.48357 0.69326 0.0
C5212 C 0.16311 0.49008 0.70603 0.0
C5213 C 0.14868 0.5641 0.76216 0.0
C5214 C 0.13358 0.5721 0.75581 0.0
C5215 C 0.1501 0.54639 0.76157 0.0
C5216 C 0.13637 0.53654 0.75491 0.0
C5217 C 0.12114 0.54443 0.74911 0.0
C5218 C 0.11975 0.56211 0.74954 0.0
C5219 C 0.13776 0.51791 0.75415 0.0
C5220 C 0.14965 0.51053 0.74142 0.0
C5221 C 0.12659 0.50751 0.76506 0.0
C5222 C 0.11472 0.51468 0.7797 0.0
C5223 C 0.0972 0.51087 0.77884 0.0
C5224 C 0.08603 0.51752 0.7928 0.0
C5225 C 0.09228 0.52794 0.80773 0.0
C5226 C 0.10971 0.53167 0.80877 0.0
C5227 C 0.12093 0.52503 0.79487 0.0
H5228 H 0.0836 0.53308 0.81853 0.0
H5229 H 0.19729 0.46715 0.69009 0.0
H5230 H 0.17597 0.4032 0.49187 0.0
H5231 H 0.20623 0.41096 0.49316 0.0
H5232 H 0.21394 0.37472 0.53978 0.0
H5233 H 0.18383 0.36635 0.53786 0.0
H5234 H 0.23351 0.40735 0.54193 0.0
H5235 H 0.21905 0.35961 0.50136 0.0
H5236 H 0.20393 0.34443 0.47511 0.0
H5237 H 0.22516 0.37887 0.4329 0.0
H5238 H 0.23955 0.39503 0.45905 0.0
H5239 H 0.31387 0.36881 0.53919 0.0
H5240 H 0.2834 0.37472 0.53803 0.0
H5241 H 0.29082 0.40692 0.48765 0.0
H5242 H 0.32165 0.40119 0.48874 0.0
H5243 H 0.26367 0.38254 0.48485 0.0
H5244 H 0.28404 0.42545 0.52803 0.0
H5245 H 0.29909 0.43801 0.55612 0.0
H5246 H 0.26778 0.40887 0.59538 0.0
H5247 H 0.25315 0.39546 0.56759 0.0
C5248 C 0.18399 0.39735 0.50282 0.0
C5249 C 0.17777 0.38419 0.51475 0.0
C5250 C 0.20123 0.40176 0.5035 0.0
C5251 C 0.21217 0.3933 0.51648 0.0
C5252 C 0.20557 0.38139 0.52975 0.0
C5253 C 0.18847 0.37661 0.52864 0.0
C5254 C 0.23076 0.3948 0.51429 0.0
C5255 C 0.24019 0.40201 0.52947 0.0
C5256 C 0.23925 0.38793 0.49787 0.0
C5257 C 0.22998 0.37881 0.48222 0.0
C5258 C 0.22006 0.36431 0.48655 0.0
C5259 C 0.21163 0.35553 0.47168 0.0
C5260 C 0.2134 0.36085 0.45235 0.0
C5261 C 0.22353 0.37502 0.44789 0.0
C5262 C 0.23175 0.38405 0.46274 0.0
C5263 C 0.30908 0.37702 0.5277 0.0
C5264 C 0.32015 0.3845 0.51398 0.0
C5265 C 0.29169 0.38052 0.52722 0.0
C5266 C 0.28503 0.39147 0.51298 0.0
C5267 C 0.29587 0.39857 0.49885 0.0
C5268 C 0.3134 0.39523 0.49945 0.0
C5269 C 0.26656 0.39487 0.51268 0.0
C5270 C 0.25708 0.38843 0.49705 0.0
C5271 C 0.25807 0.40205 0.52895 0.0
C5272 C 0.26752 0.40941 0.54568 0.0
C5273 C 0.28059 0.42146 0.54264 0.0
C5274 C 0.28907 0.42871 0.55853 0.0
C5275 C 0.28441 0.42421 0.57752 0.0
C5276 C 0.27147 0.41225 0.58068 0.0
C5277 C 0.26311 0.40478 0.56486 0.0
H5278 H 0.29071 0.43012 0.58982 0.0
H5279 H 0.2071 0.35387 0.44081 0.0
H5280 H 0.13474 0.14998 0.04999 0.0
H5281 H 0.13456 0.15315 0.08554 0.0
H5282 H 0.10499 0.10688 0.09083 0.0
H5283 H 0.10514 0.10359 0.05543 0.0
H5284 H 0.09254 0.13172 0.11413 0.0
H5285 H 0.14845 0.10774 0.10025 0.0
H5286 H 0.1782 0.10533 0.0886 0.0
H5287 H 0.19059 0.15312 0.1159 0.0
H5288 H 0.1609 0.15595 0.1274 0.0
H5289 H 0.10249 0.1136 0.2149 0.0
H5290 H 0.10064 0.11424 0.17946 0.0
H5291 H 0.13843 0.15443 0.17777 0.0
H5292 H 0.1411 0.153 0.21322 0.0
H5293 H 0.14629 0.13415 0.15218 0.0
H5294 H 0.09235 0.15928 0.16679 0.0
H5295 H 0.064 0.16189 0.1822 0.0
H5296 H 0.04795 0.11525 0.15479 0.0
H5297 H 0.0763 0.11224 0.13945 0.0
C5298 C 0.12803 0.14057 0.05869 0.0
C5299 C 0.11987 0.12657 0.04978 0.0
C5300 C 0.12809 0.14232 0.07905 0.0
C5301 C 0.11992 0.13015 0.09091 0.0
C5302 C 0.11142 0.11641 0.08202 0.0
C5303 C 0.11151 0.11456 0.06173 0.0
C5304 C 0.12 0.13172 0.11257 0.0
C5305 C 0.1043 0.13215 0.12248 0.0
C5306 C 0.13528 0.13289 0.12351 0.0
C5307 C 0.15243 0.13213 0.11449 0.0
C5308 C 0.15742 0.11791 0.10337 0.0
C5309 C 0.17431 0.11643 0.09691 0.0
C5310 C 0.18627 0.12903 0.10164 0.0
C5311 C 0.18131 0.14337 0.11231 0.0
C5312 C 0.16447 0.14493 0.11874 0.0
C5313 C 0.1102 0.12279 0.20701 0.0
C5314 C 0.12185 0.13337 0.21693 0.0
C5315 C 0.10906 0.12321 0.18665 0.0
C5316 C 0.11914 0.13461 0.17572 0.0
C5317 C 0.13047 0.1455 0.18572 0.0
C5318 C 0.13193 0.14476 0.20605 0.0
C5319 C 0.11883 0.13439 0.1539 0.0
C5320 C 0.13447 0.13406 0.14392 0.0
C5321 C 0.1035 0.13375 0.1429 0.0
C5322 C 0.08648 0.13547 0.15213 0.0
C5323 C 0.08281 0.14952 0.16418 0.0
C5324 C 0.06674 0.15108 0.17288 0.0
C5325 C 0.05419 0.13872 0.16952 0.0
C5326 C 0.05768 0.1248 0.15741 0.0
C5327 C 0.07375 0.12316 0.1487 0.0
H5328 H 0.04175 0.13996 0.17626 0.0
H5329 H 0.19946 0.12765 0.09734 0.0
H5330 H 0.13538 0.85362 0.46473 0.0
H5331 H 0.13523 0.85177 0.42911 0.0
H5332 H 0.10021 0.89418 0.4262 0.0
H5333 H 0.10065 0.8965 0.4619 0.0
H5334 H 0.09391 0.86088 0.40071 0.0
H5335 H 0.13344 0.90658 0.41612 0.0
H5336 H 0.15775 0.91887 0.43414 0.0
H5337 H 0.19067 0.87953 0.41184 0.0
H5338 H 0.16642 0.86682 0.39397 0.0
H5339 H 0.10078 0.87955 0.29927 0.0
H5340 H 0.09778 0.88038 0.33471 0.0
H5341 H 0.1473 0.85673 0.34098 0.0
H5342 H 0.15063 0.85643 0.30563 0.0
H5343 H 0.14559 0.88091 0.3655 0.0
H5344 H 0.10751 0.83526 0.34951 0.0
H5345 H 0.08359 0.82106 0.33266 0.0
H5346 H 0.04851 0.85771 0.35655 0.0
H5347 H 0.07229 0.87228 0.37332 0.0
C5348 C 0.12741 0.8624 0.45658 0.0
C5349 C 0.11792 0.87515 0.4662 0.0
C5350 C 0.12741 0.86135 0.43621 0.0
C5351 C 0.11771 0.87283 0.42508 0.0
C5352 C 0.10772 0.88517 0.43459 0.0
C5353 C 0.108 0.88647 0.45497 0.0
C5354 C 0.1187 0.8724 0.40349 0.0
C5355 C 0.10507 0.86547 0.39291 0.0
C5356 C 0.13347 0.87793 0.39347 0.0
C5357 C 0.14809 0.88563 0.40395 0.0
C5358 C 0.14582 0.90045 0.41524 0.0
C5359 C 0.15959 0.90751 0.42539 0.0
C5360 C 0.17574 0.89995 0.4242 0.0
C5361 C 0.17815 0.88535 0.41279 0.0
C5362 C 0.1644 0.87821 0.40265 0.0
C5363 C 0.11093 0.87427 0.30817 0.0
C5364 C 0.12589 0.86777 0.29951 0.0
C5365 C 0.10919 0.87474 0.3285 0.0
C5366 C 0.12222 0.86843 0.34067 0.0
C5367 C 0.13704 0.8617 0.33201 0.0
C5368 C 0.13887 0.86141 0.31172 0.0
C5369 C 0.12072 0.86931 0.36237 0.0
C5370 C 0.13433 0.87632 0.3731 0.0
C5371 C 0.10597 0.86364 0.37253 0.0
C5372 C 0.09168 0.85495 0.36248 0.0
C5373 C 0.09471 0.84036 0.35103 0.0
C5374 C 0.08118 0.83224 0.34152 0.0
C5375 C 0.06455 0.83851 0.34348 0.0
C5376 C 0.06141 0.85289 0.35501 0.0
C5377 C 0.0749 0.86108 0.36453 0.0
H5378 H 0.05409 0.83219 0.33611 0.0
H5379 H 0.18639 0.90542 0.43208 0.0
H5380 H 0.35182 0.88463 0.71167 0.0
H5381 H 0.3546 0.88446 0.67642 0.0
H5382 H 0.40037 0.85386 0.68126 0.0
H5383 H 0.39841 0.85554 0.71701 0.0
H5384 H 0.40544 0.8735 0.65398 0.0
H5385 H 0.35648 0.83826 0.6665 0.0
H5386 H 0.32848 0.83112 0.6809 0.0
H5387 H 0.30542 0.87319 0.65051 0.0
H5388 H 0.33331 0.88067 0.63601 0.0
H5389 H 0.38813 0.84854 0.54993 0.0
H5390 H 0.38769 0.84517 0.58567 0.0
H5391 H 0.37585 0.89863 0.59209 0.0
H5392 H 0.37684 0.90228 0.5568 0.0
H5393 H 0.35433 0.864 0.61255 0.0
H5394 H 0.40593 0.90125 0.60618 0.0
H5395 H 0.43411 0.9069 0.59139 0.0
H5396 H 0.45177 0.85757 0.61007 0.0
H5397 H 0.42352 0.85152 0.62461 0.0
C5398 C 0.36242 0.87774 0.70521 0.0
C5399 C 0.37471 0.86977 0.71704 0.0
C5400 C 0.36392 0.8775 0.68495 0.0
C5401 C 0.37729 0.86852 0.67588 0.0
C5402 C 0.38978 0.86071 0.68776 0.0
C5403 C 0.38864 0.86156 0.70818 0.0
C5404 C 0.37842 0.8678 0.65409 0.0
C5405 C 0.39423 0.87111 0.64509 0.0
C5406 C 0.36389 0.86483 0.64209 0.0
C5407 C 0.34701 0.86007 0.65028 0.0
C5408 C 0.34544 0.84599 0.6629 0.0
C5409 C 0.32959 0.8419 0.67108 0.0
C5410 C 0.31519 0.85171 0.66662 0.0
C5411 C 0.31658 0.86559 0.65389 0.0
C5412 C 0.3324 0.86974 0.64567 0.0
C5413 C 0.38568 0.8596 0.559 0.0
C5414 C 0.38284 0.87573 0.55051 0.0
C5415 C 0.38537 0.85765 0.57936 0.0
C5416 C 0.3819 0.8717 0.59144 0.0
C5417 C 0.37879 0.88769 0.583 0.0
C5418 C 0.37946 0.88974 0.5628 0.0
C5419 C 0.38114 0.86983 0.61292 0.0
C5420 C 0.36544 0.86608 0.62171 0.0
C5421 C 0.3957 0.87217 0.62472 0.0
C5422 C 0.4126 0.87583 0.61612 0.0
C5423 C 0.41576 0.89153 0.60687 0.0
C5424 C 0.43174 0.89482 0.5986 0.0
C5425 C 0.4447 0.88257 0.5997 0.0
C5426 C 0.44171 0.86702 0.60915 0.0
C5427 C 0.42571 0.86365 0.61739 0.0
H5428 H 0.45708 0.88514 0.5933 0.0
H5429 H 0.30294 0.84857 0.67303 0.0
H5430 H 0.40286 0.12049 0.80317 0.0
H5431 H 0.40473 0.12116 0.83887 0.0
H5432 H 0.35712 0.14871 0.84158 0.0
H5433 H 0.3549 0.14781 0.80606 0.0
H5434 H 0.40262 0.15134 0.86648 0.0
H5435 H 0.33781 0.13281 0.86484 0.0
H5436 H 0.31652 0.11529 0.8473 0.0
H5437 H 0.35166 0.07311 0.84624 0.0
H5438 H 0.37324 0.09059 0.8634 0.0
H5439 H 0.38085 0.15449 0.96881 0.0
H5440 H 0.3806 0.15753 0.93319 0.0
H5441 H 0.38786 0.10319 0.92705 0.0
H5442 H 0.3882 0.10002 0.96236 0.0
H5443 H 0.36245 0.11445 0.90351 0.0
H5444 H 0.42044 0.13071 0.91856 0.0
H5445 H 0.44282 0.14762 0.93493 0.0
H5446 H 0.42276 0.1936 0.90948 0.0
H5447 H 0.4001 0.17697 0.89319 0.0
C5448 C 0.39289 0.12691 0.81132 0.0
C5449 C 0.37872 0.13411 0.80168 0.0
C5450 C 0.39396 0.12722 0.83174 0.0
C5451 C 0.38092 0.13473 0.84288 0.0
C5452 C 0.36714 0.14252 0.83329 0.0
C5453 C 0.36598 0.14211 0.81294 0.0
C5454 C 0.38142 0.13395 0.86452 0.0
C5455 C 0.39374 0.14344 0.87463 0.0
C5456 C 0.37001 0.12351 0.87514 0.0
C5457 C 0.35708 0.11297 0.86518 0.0
C5458 C 0.34095 0.11981 0.86078 0.0
C5459 C 0.32888 0.10992 0.85089 0.0
C5460 C 0.33275 0.09311 0.84563 0.0
C5461 C 0.34871 0.08616 0.85026 0.0
C5462 C 0.36088 0.09606 0.85999 0.0
C5463 C 0.38264 0.14322 0.95989 0.0
C5464 C 0.38472 0.12704 0.96858 0.0
C5465 C 0.38246 0.14497 0.93951 0.0
C5466 C 0.38424 0.13058 0.9274 0.0
C5467 C 0.38644 0.11448 0.93604 0.0
C5468 C 0.38677 0.11273 0.95632 0.0
C5469 C 0.38354 0.1321 0.90574 0.0
C5470 C 0.37123 0.12259 0.89553 0.0
C5471 C 0.39492 0.14267 0.8951 0.0
C5472 C 0.4085 0.15264 0.90486 0.0
C5473 C 0.42072 0.14445 0.9166 0.0
C5474 C 0.43347 0.15397 0.92584 0.0
C5475 C 0.43418 0.17168 0.92329 0.0
C5476 C 0.42217 0.17989 0.91147 0.0
C5477 C 0.40939 0.17042 0.90223 0.0
H5478 H 0.44406 0.17903 0.93045 0.0
H5479 H 0.32338 0.08546 0.838 0.0
H5480 H 0.8624 0.84662 0.80539 0.0
H5481 H 0.86509 0.84572 0.84091 0.0
H5482 H 0.89658 0.89104 0.83914 0.0
H5483 H 0.89501 0.89109 0.80366 0.0
H5484 H 0.90846 0.87366 0.86517 0.0
H5485 H 0.85047 0.88914 0.85212 0.0
H5486 H 0.82169 0.8863 0.83796 0.0
H5487 H 0.81451 0.83888 0.86842 0.0
H5488 H 0.8434 0.84133 0.88257 0.0
H5489 H 0.89497 0.90033 0.96309 0.0
H5490 H 0.89462 0.89747 0.92769 0.0
H5491 H 0.87391 0.84663 0.93313 0.0
H5492 H 0.87399 0.84944 0.96868 0.0
H5493 H 0.85676 0.86553 0.90598 0.0
H5494 H 0.91614 0.85323 0.92041 0.0
H5495 H 0.94417 0.85963 0.93515 0.0
H5496 H 0.94713 0.90625 0.90223 0.0
H5497 H 0.91903 0.90022 0.88748 0.0
C5498 C 0.87011 0.85621 0.81262 0.0
C5499 C 0.87859 0.86883 0.80173 0.0
C5500 C 0.87146 0.85585 0.83298 0.0
C5501 C 0.88067 0.86859 0.84298 0.0
C5502 C 0.88939 0.88102 0.83198 0.0
C5503 C 0.8885 0.88104 0.81162 0.0
C5504 C 0.88127 0.86909 0.86479 0.0
C5505 C 0.89705 0.87209 0.87397 0.0
C5506 C 0.86653 0.86682 0.8766 0.0
C5507 C 0.84915 0.86532 0.8682 0.0
C5508 C 0.84279 0.87805 0.85568 0.0
C5509 C 0.82645 0.87651 0.84767 0.0
C5510 C 0.81629 0.86238 0.8522 0.0
C5511 C 0.82242 0.84979 0.86486 0.0
C5512 C 0.83877 0.85125 0.87289 0.0
C5513 C 0.89054 0.88843 0.95683 0.0
C5514 C 0.88467 0.87505 0.96883 0.0
C5515 C 0.89036 0.88682 0.93653 0.0
C5516 C 0.8844 0.87177 0.92771 0.0
C5517 C 0.87862 0.85834 0.93961 0.0
C5518 C 0.87881 0.85993 0.95995 0.0
C5519 C 0.88384 0.87023 0.90608 0.0
C5520 C 0.8681 0.86703 0.89702 0.0
C5521 C 0.89848 0.87286 0.89435 0.0
C5522 C 0.91547 0.87632 0.90295 0.0
C5523 C 0.92275 0.86488 0.91639 0.0
C5524 C 0.93864 0.86844 0.92474 0.0
C5525 C 0.94741 0.88335 0.91966 0.0
C5526 C 0.94033 0.89471 0.90616 0.0
C5527 C 0.92444 0.89122 0.89778 0.0
H5528 H 0.95971 0.88609 0.92616 0.0
H5529 H 0.80365 0.86119 0.84593 0.0
H5530 H 0.84706 0.13796 0.71321 0.0
H5531 H 0.84953 0.13791 0.67783 0.0
H5532 H 0.90414 0.13186 0.68249 0.0
H5533 H 0.90183 0.13191 0.71817 0.0
H5534 H 0.89537 0.1549 0.65382 0.0
H5535 H 0.88011 0.09777 0.67186 0.0
H5536 H 0.86308 0.0757 0.68866 0.0
H5537 H 0.81829 0.09159 0.65731 0.0
H5538 H 0.83504 0.11389 0.64049 0.0
H5539 H 0.89937 0.10956 0.55699 0.0
H5540 H 0.8993 0.11252 0.5926 0.0
H5541 H 0.86045 0.15136 0.5884 0.0
H5542 H 0.86083 0.14895 0.55279 0.0
H5543 H 0.86249 0.11159 0.61656 0.0
H5544 H 0.87801 0.17296 0.60438 0.0
H5545 H 0.89598 0.19444 0.58787 0.0
H5546 H 0.94119 0.16913 0.60858 0.0
H5547 H 0.9234 0.14727 0.62483 0.0
C5548 C 0.85967 0.13685 0.70682 0.0
C5549 C 0.87428 0.135 0.71864 0.0
C5550 C 0.86102 0.1367 0.68652 0.0
C5551 C 0.87698 0.13466 0.67749 0.0
C5552 C 0.89168 0.1334 0.68916 0.0
C5553 C 0.89034 0.13344 0.70956 0.0
C5554 C 0.87816 0.13347 0.65588 0.0
C5555 C 0.88823 0.14536 0.64575 0.0
C5556 C 0.86884 0.12109 0.6452 0.0
C5557 C 0.85878 0.10758 0.65507 0.0
C5558 C 0.86661 0.09662 0.66865 0.0
C5559 C 0.85701 0.08406 0.67815 0.0
C5560 C 0.83961 0.08227 0.67408 0.0
C5561 C 0.83177 0.093 0.66045 0.0
C5562 C 0.84131 0.10558 0.65091 0.0
C5563 C 0.89105 0.11897 0.56361 0.0
C5564 C 0.88029 0.12919 0.55202 0.0
C5565 C 0.891 0.12061 0.58395 0.0
C5566 C 0.88006 0.13234 0.59307 0.0
C5567 C 0.86928 0.14253 0.5816 0.0
C5568 C 0.86954 0.14113 0.56124 0.0
C5569 C 0.87931 0.13326 0.61464 0.0
C5570 C 0.86949 0.12118 0.62473 0.0
C5571 C 0.88879 0.14544 0.62528 0.0
C5572 C 0.89944 0.15835 0.6154 0.0
C5573 C 0.89178 0.17183 0.6051 0.0
C5574 C 0.90193 0.1841 0.59587 0.0
C5575 C 0.91973 0.1831 0.59707 0.0
C5576 C 0.92741 0.16984 0.60756 0.0
C5577 C 0.91731 0.1575 0.61675 0.0
H5578 H 0.92757 0.19264 0.58996 0.0
H5579 H 0.8322 0.07255 0.68147 0.0
H5580 H 0.61822 0.09866 0.46008 0.0
H5581 H 0.61782 0.10225 0.42496 0.0
H5582 H 0.6135 0.15687 0.43202 0.0
H5583 H 0.6147 0.15345 0.46744 0.0
H5584 H 0.59803 0.11239 0.39897 0.0
H5585 H 0.63243 0.1778 0.39535 0.0
H5586 H 0.65348 0.19453 0.41414 0.0
H5587 H 0.67394 0.14828 0.43852 0.0
H5588 H 0.65315 0.1313 0.41971 0.0
H5589 H 0.59828 0.13539 0.29879 0.0
H5590 H 0.59425 0.13582 0.33421 0.0
H5591 H 0.64896 0.13432 0.34224 0.0
H5592 H 0.65302 0.13488 0.30717 0.0
H5593 H 0.63803 0.1533 0.36786 0.0
H5594 H 0.62038 0.09769 0.34699 0.0
H5595 H 0.6038 0.07644 0.32837 0.0
H5596 H 0.5572 0.09572 0.35314 0.0
H5597 H 0.57352 0.11722 0.37171 0.0
C5598 C 0.61696 0.11148 0.4543 0.0
C5599 C 0.6165 0.12577 0.46677 0.0
C5600 C 0.61674 0.11351 0.43407 0.0
C5601 C 0.61592 0.12986 0.42568 0.0
C5602 C 0.61456 0.14413 0.43806 0.0
C5603 C 0.61504 0.14213 0.45837 0.0
C5604 C 0.61701 0.13181 0.40405 0.0
C5605 C 0.60673 0.12142 0.3922 0.0
C5606 C 0.6286 0.14325 0.39501 0.0
C5607 C 0.64111 0.15334 0.40635 0.0
C5608 C 0.64145 0.17123 0.40471 0.0
C5609 C 0.65333 0.18075 0.41536 0.0
C5610 C 0.665 0.17248 0.42757 0.0
C5611 C 0.66485 0.15467 0.42912 0.0
C5612 C 0.65301 0.1451 0.4185 0.0
C5613 C 0.60943 0.13539 0.30813 0.0
C5614 C 0.62596 0.1352 0.30007 0.0
C5615 C 0.60712 0.13545 0.32843 0.0
C5616 C 0.62129 0.1348 0.34108 0.0
C5617 C 0.63777 0.1349 0.33296 0.0
C5618 C 0.64008 0.13521 0.31278 0.0
C5619 C 0.61915 0.13376 0.36272 0.0
C5620 C 0.6292 0.14438 0.37459 0.0
C5621 C 0.60794 0.12194 0.37177 0.0
C5622 C 0.59812 0.10918 0.3605 0.0
C5623 C 0.60658 0.09748 0.34831 0.0
C5624 C 0.59724 0.08538 0.3378 0.0
C5625 C 0.57945 0.08477 0.33951 0.0
C5626 C 0.57097 0.09623 0.35178 0.0
C5627 C 0.58025 0.10838 0.3623 0.0
H5628 H 0.57224 0.07538 0.33137 0.0
H5629 H 0.67418 0.17988 0.43581 0.0
H5630 H 0.63098 0.85164 0.05138 0.0
H5631 H 0.63149 0.84893 0.08686 0.0
H5632 H 0.60551 0.89735 0.09222 0.0
H5633 H 0.60556 0.90043 0.05684 0.0
H5634 H 0.62905 0.89704 0.11723 0.0
H5635 H 0.58589 0.85643 0.101 0.0
H5636 H 0.57295 0.83167 0.08443 0.0
H5637 H 0.6111 0.79867 0.10912 0.0
H5638 H 0.62442 0.8233 0.12561 0.0
H5639 H 0.60499 0.88766 0.21706 0.0
H5640 H 0.60273 0.88787 0.18145 0.0
H5641 H 0.64231 0.84971 0.17773 0.0
H5642 H 0.64497 0.8497 0.21338 0.0
H5643 H 0.61191 0.84441 0.15256 0.0
H5644 H 0.65425 0.88662 0.16933 0.0
H5645 H 0.6648 0.9118 0.18722 0.0
H5646 H 0.62509 0.94257 0.16198 0.0
H5647 H 0.61408 0.91745 0.14425 0.0
C5648 C 0.62515 0.8616 0.06009 0.0
C5649 C 0.6181 0.87619 0.05117 0.0
C5650 C 0.62541 0.86002 0.08045 0.0
C5651 C 0.61833 0.87282 0.09239 0.0
C5652 C 0.61107 0.88727 0.08345 0.0
C5653 C 0.611 0.88896 0.06314 0.0
C5654 C 0.619 0.87151 0.11414 0.0
C5655 C 0.62504 0.88558 0.12486 0.0
C5656 C 0.61412 0.85651 0.12435 0.0
C5657 C 0.60626 0.84172 0.11434 0.0
C5658 C 0.59161 0.84392 0.10275 0.0
C5659 C 0.58419 0.8299 0.0934 0.0
C5660 C 0.59123 0.81361 0.09567 0.0
C5661 C 0.60569 0.8113 0.10733 0.0
C5662 C 0.61317 0.82527 0.11669 0.0
C5663 C 0.61304 0.8791 0.20872 0.0
C5664 C 0.6251 0.86858 0.21809 0.0
C5665 C 0.61179 0.87932 0.18836 0.0
C5666 C 0.62239 0.86885 0.17697 0.0
C5667 C 0.634 0.85786 0.18627 0.0
C5668 C 0.6355 0.85788 0.20663 0.0
C5669 C 0.62182 0.86989 0.15535 0.0
C5670 C 0.61586 0.85581 0.14475 0.0
C5671 C 0.62648 0.88496 0.14527 0.0
C5672 C 0.63321 0.90012 0.15568 0.0
C5673 C 0.64767 0.89872 0.16776 0.0
C5674 C 0.65374 0.91298 0.17784 0.0
C5675 C 0.64558 0.92877 0.1758 0.0
C5676 C 0.63137 0.93033 0.16359 0.0
C5677 C 0.6252 0.91608 0.15352 0.0
H5678 H 0.65029 0.9398 0.18365 0.0
H5679 H 0.58545 0.80278 0.08843 0.0
H5680 H 0.60467 0.61455 0.71707 0.0
H5681 H 0.60279 0.61499 0.68147 0.0
H5682 H 0.64061 0.65499 0.67925 0.0
H5683 H 0.64287 0.65441 0.71492 0.0
H5684 H 0.61063 0.6592 0.65335 0.0
H5685 H 0.65474 0.61913 0.67034 0.0
H5686 H 0.66667 0.59451 0.68816 0.0
H5687 H 0.62873 0.56169 0.66279 0.0
H5688 H 0.61637 0.58623 0.6451 0.0
H5689 H 0.63151 0.65235 0.55242 0.0
H5690 H 0.63149 0.65529 0.58787 0.0
H5691 H 0.6064 0.6064 0.59328 0.0
H5692 H 0.60694 0.60311 0.55796 0.0
H5693 H 0.63037 0.60744 0.61817 0.0
H5694 H 0.58581 0.64674 0.60134 0.0
H5695 H 0.57259 0.6712 0.5844 0.0
H5696 H 0.60965 0.70504 0.60968 0.0
H5697 H 0.62324 0.68073 0.62655 0.0
C5698 C 0.61236 0.62369 0.70907 0.0
C5699 C 0.62386 0.63454 0.71885 0.0
C5700 C 0.61133 0.62384 0.68872 0.0
C5701 C 0.62161 0.63497 0.67778 0.0
C5702 C 0.63256 0.64633 0.68748 0.0
C5703 C 0.63383 0.64597 0.70784 0.0
C5704 C 0.62151 0.63411 0.6562 0.0
C5705 C 0.61513 0.64799 0.64558 0.0
C5706 C 0.62702 0.61933 0.64617 0.0
C5707 C 0.6345 0.60454 0.65662 0.0
C5708 C 0.64883 0.6067 0.66873 0.0
C5709 C 0.65569 0.59276 0.67877 0.0
C5710 C 0.64842 0.57655 0.67667 0.0
C5711 C 0.63432 0.57426 0.66444 0.0
C5712 C 0.62738 0.58818 0.65441 0.0
C5713 C 0.62573 0.64234 0.56113 0.0
C5714 C 0.6191 0.62755 0.55228 0.0
C5715 C 0.62571 0.64405 0.58146 0.0
C5716 C 0.61875 0.63117 0.59336 0.0
C5717 C 0.61185 0.61654 0.58449 0.0
C5718 C 0.61206 0.61473 0.56423 0.0
C5719 C 0.61925 0.63252 0.61504 0.0
C5720 C 0.62579 0.6187 0.62578 0.0
C5721 C 0.61372 0.64732 0.62516 0.0
C5722 C 0.60563 0.66191 0.61501 0.0
C5723 C 0.59122 0.65938 0.60314 0.0
C5724 C 0.58365 0.67322 0.59358 0.0
C5725 C 0.59031 0.68966 0.59591 0.0
C5726 C 0.60453 0.6923 0.60785 0.0
C5727 C 0.61216 0.6785 0.61742 0.0
H5728 H 0.58442 0.70035 0.5885 0.0
H5729 H 0.65374 0.56577 0.68446 0.0
H5730 H 0.60201 0.3844 0.80261 0.0
H5731 H 0.59938 0.38461 0.83815 0.0
H5732 H 0.64437 0.35309 0.84292 0.0
H5733 H 0.6473 0.35302 0.80734 0.0
H5734 H 0.61635 0.34313 0.86777 0.0
H5735 H 0.6492 0.3928 0.85045 0.0
H5736 H 0.65477 0.4196 0.83265 0.0
H5737 H 0.60989 0.44213 0.85794 0.0
H5738 H 0.60385 0.41531 0.87557 0.0
H5739 H 0.63345 0.35419 0.96849 0.0
H5740 H 0.63416 0.35148 0.93312 0.0
H5741 H 0.60018 0.39472 0.92784 0.0
H5742 H 0.60036 0.39812 0.96325 0.0
H5743 H 0.62241 0.39837 0.90251 0.0
H5744 H 0.58855 0.3495 0.91936 0.0
H5745 H 0.58145 0.32261 0.9363 0.0
H5746 H 0.62584 0.29863 0.91161 0.0
H5747 H 0.63332 0.32546 0.89474 0.0
C5748 C 0.6112 0.37727 0.81116 0.0
C5749 C 0.62483 0.36861 0.8021 0.0
C5750 C 0.60973 0.37751 0.83149 0.0
C5751 C 0.62174 0.36896 0.84314 0.0
C5752 C 0.63497 0.35977 0.83416 0.0
C5753 C 0.63662 0.35974 0.81384 0.0
C5754 C 0.6208 0.37008 0.86471 0.0
C5755 C 0.61783 0.35516 0.87544 0.0
C5756 C 0.6223 0.38585 0.87461 0.0
C5757 C 0.62596 0.40198 0.86411 0.0
C5758 C 0.64042 0.40341 0.85204 0.0
C5759 C 0.64368 0.41861 0.84201 0.0
C5760 C 0.63266 0.43254 0.8441 0.0
C5761 C 0.61839 0.43131 0.85628 0.0
C5762 C 0.61504 0.41611 0.86629 0.0
C5763 C 0.62588 0.36294 0.95982 0.0
C5764 C 0.61666 0.37625 0.96872 0.0
C5765 C 0.62625 0.36134 0.93951 0.0
C5766 C 0.61694 0.37266 0.92761 0.0
C5767 C 0.60747 0.38577 0.93656 0.0
C5768 C 0.60745 0.38764 0.95686 0.0
C5769 C 0.61769 0.37137 0.90587 0.0
C5770 C 0.62074 0.38629 0.895 0.0
C5771 C 0.61601 0.35561 0.89582 0.0
C5772 C 0.61157 0.33951 0.90597 0.0
C5773 C 0.59686 0.33852 0.91767 0.0
C5774 C 0.59276 0.32329 0.92724 0.0
C5775 C 0.60321 0.30894 0.92508 0.0
C5776 C 0.61777 0.30977 0.9133 0.0
C5777 C 0.62194 0.32497 0.90372 0.0
H5778 H 0.60001 0.29715 0.93249 0.0
H5779 H 0.6352 0.44431 0.83632 0.0
H5780 H 0.89569 0.39774 0.05741 0.0
H5781 H 0.8957 0.39408 0.09284 0.0
H5782 H 0.86739 0.34713 0.08679 0.0
H5783 H 0.86742 0.35057 0.05132 0.0
H5784 H 0.85371 0.36996 0.11476 0.0
H5785 H 0.90798 0.34453 0.09814 0.0
H5786 H 0.93644 0.34412 0.08269 0.0
H5787 H 0.95142 0.38786 0.11639 0.0
H5788 H 0.92295 0.38866 0.13184 0.0
H5789 H 0.85668 0.34878 0.21487 0.0
H5790 H 0.85877 0.34724 0.17932 0.0
H5791 H 0.89958 0.38442 0.18043 0.0
H5792 H 0.89844 0.38482 0.21588 0.0
H5793 H 0.90671 0.36503 0.15399 0.0
H5794 H 0.85347 0.39258 0.16973 0.0
H5795 H 0.82501 0.39511 0.18495 0.0
H5796 H 0.80755 0.35145 0.1527 0.0
H5797 H 0.83601 0.34846 0.13758 0.0
C5798 C 0.88965 0.38651 0.06357 0.0
C5799 C 0.88169 0.37437 0.05149 0.0
C5800 C 0.88966 0.38446 0.08383 0.0
C5801 C 0.8816 0.3703 0.09242 0.0
C5802 C 0.8737 0.35812 0.08043 0.0
C5803 C 0.87386 0.36005 0.06015 0.0
C5804 C 0.88113 0.36841 0.11394 0.0
C5805 C 0.86525 0.36866 0.12339 0.0
C5806 C 0.8962 0.36725 0.12516 0.0
C5807 C 0.91332 0.36674 0.11599 0.0
C5808 C 0.91731 0.35413 0.10213 0.0
C5809 C 0.93345 0.35382 0.0934 0.0
C5810 C 0.94572 0.36598 0.09852 0.0
C5811 C 0.9419 0.37846 0.11242 0.0
C5812 C 0.92578 0.37884 0.12118 0.0
C5813 C 0.86633 0.35631 0.20749 0.0
C5814 C 0.8775 0.36677 0.21817 0.0
C5815 C 0.86736 0.35566 0.18712 0.0
C5816 C 0.87899 0.36611 0.17695 0.0
C5817 C 0.89046 0.3762 0.18774 0.0
C5818 C 0.88984 0.37639 0.20809 0.0
C5819 C 0.87921 0.36683 0.15518 0.0
C5820 C 0.89506 0.36635 0.14555 0.0
C5821 C 0.86408 0.36823 0.14384 0.0
C5822 C 0.84693 0.37016 0.15274 0.0
C5823 C 0.84359 0.38345 0.166 0.0
C5824 C 0.82746 0.38496 0.17461 0.0
C5825 C 0.81453 0.37337 0.16989 0.0
C5826 C 0.81762 0.36035 0.15642 0.0
C5827 C 0.83375 0.35874 0.14784 0.0
H5828 H 0.8021 0.37445 0.17666 0.0
H5829 H 0.95821 0.36572 0.09174 0.0
H5830 H 0.8562 0.64858 0.30743 0.0
H5831 H 0.85939 0.64871 0.34301 0.0
H5832 H 0.90139 0.61331 0.33842 0.0
H5833 H 0.89854 0.61335 0.30288 0.0
H5834 H 0.87609 0.6038 0.36622 0.0
H5835 H 0.91075 0.6521 0.34927 0.0
H5836 H 0.91703 0.67974 0.33357 0.0
H5837 H 0.87669 0.70347 0.36629 0.0
H5838 H 0.87 0.67588 0.38198 0.0
H5839 H 0.90122 0.60414 0.46479 0.0
H5840 H 0.90121 0.60618 0.4293 0.0
H5841 H 0.86913 0.65096 0.43258 0.0
H5842 H 0.86989 0.64949 0.46816 0.0
H5843 H 0.88962 0.65565 0.40483 0.0
H5844 H 0.85371 0.60773 0.42087 0.0
H5845 H 0.84627 0.58007 0.43598 0.0
H5846 H 0.88741 0.55578 0.4052 0.0
H5847 H 0.89504 0.58326 0.38982 0.0
C5848 C 0.86625 0.64099 0.31397 0.0
C5849 C 0.87721 0.63109 0.30226 0.0
C5850 C 0.86805 0.64107 0.3343 0.0
C5851 C 0.88066 0.63105 0.34336 0.0
C5852 C 0.89161 0.62116 0.33173 0.0
C5853 C 0.89002 0.62131 0.3114 0.0
C5854 C 0.88217 0.63057 0.36498 0.0
C5855 C 0.87926 0.61508 0.37468 0.0
C5856 C 0.88584 0.64536 0.37604 0.0
C5857 C 0.88975 0.66191 0.3666 0.0
C5858 C 0.9031 0.66318 0.35296 0.0
C5859 C 0.90676 0.67884 0.3441 0.0
C5860 C 0.89723 0.69334 0.34888 0.0
C5861 C 0.88404 0.69222 0.36257 0.0
C5862 C 0.88031 0.67658 0.37145 0.0
C5863 C 0.89436 0.61458 0.45797 0.0
C5864 C 0.8856 0.62667 0.46937 0.0
C5865 C 0.89417 0.61561 0.4376 0.0
C5866 C 0.88474 0.62843 0.42807 0.0
C5867 C 0.87644 0.64087 0.43946 0.0
C5868 C 0.87692 0.64005 0.45987 0.0
C5869 C 0.88344 0.62883 0.40631 0.0
C5870 C 0.8864 0.64433 0.3965 0.0
C5871 C 0.87959 0.61406 0.39514 0.0
C5872 C 0.87501 0.59755 0.40433 0.0
C5873 C 0.8612 0.59649 0.41738 0.0
C5874 C 0.85691 0.58084 0.42594 0.0
C5875 C 0.86633 0.56618 0.42147 0.0
C5876 C 0.88008 0.56713 0.40853 0.0
C5877 C 0.88435 0.58272 0.39985 0.0
H5878 H 0.86295 0.55405 0.42796 0.0
H5879 H 0.90009 0.70547 0.34201 0.0
H5880 H 0.40353 0.37383 0.302 0.0
H5881 H 0.40602 0.37379 0.33763 0.0
H5882 H 0.35133 0.36865 0.34274 0.0
H5883 H 0.34871 0.36865 0.30732 0.0
H5884 H 0.36329 0.39315 0.367 0.0
H5885 H 0.37729 0.33489 0.35115 0.0
H5886 H 0.39325 0.31198 0.33447 0.0
H5887 H 0.43998 0.32964 0.36036 0.0
H5888 H 0.42432 0.35282 0.37696 0.0
H5889 H 0.36539 0.35246 0.46634 0.0
H5890 H 0.36572 0.3515 0.43061 0.0
H5891 H 0.4 0.39457 0.42929 0.0
H5892 H 0.39947 0.39593 0.46492 0.0
H5893 H 0.39859 0.35127 0.40354 0.0
H5894 H 0.38365 0.41521 0.4096 0.0
H5895 H 0.36688 0.43739 0.42666 0.0
H5896 H 0.32133 0.40738 0.41966 0.0
H5897 H 0.33798 0.3849 0.40292 0.0
C5898 C 0.39205 0.37249 0.31069 0.0
C5899 C 0.37594 0.37106 0.30171 0.0
C5900 C 0.39349 0.37249 0.33108 0.0
C5901 C 0.37886 0.37114 0.34289 0.0
C5902 C 0.3628 0.3697 0.33396 0.0
C5903 C 0.36136 0.36956 0.31364 0.0
C5904 C 0.38016 0.37145 0.36455 0.0
C5905 C 0.37105 0.38398 0.3749 0.0
C5906 C 0.39028 0.35957 0.37503 0.0
C5907 C 0.39968 0.34567 0.3651 0.0
C5908 C 0.391 0.33396 0.35314 0.0
C5909 C 0.39998 0.32092 0.34373 0.0
C5910 C 0.41763 0.31939 0.3463 0.0
C5911 C 0.42632 0.33087 0.35834 0.0
C5912 C 0.4174 0.34395 0.36776 0.0
C5913 C 0.37317 0.36162 0.45849 0.0
C5914 C 0.38242 0.37428 0.46855 0.0
C5915 C 0.37327 0.36109 0.43806 0.0
C5916 C 0.38265 0.37315 0.42734 0.0
C5917 C 0.3924 0.38537 0.4373 0.0
C5918 C 0.39218 0.38603 0.45769 0.0
C5919 C 0.38203 0.3731 0.40573 0.0
C5920 C 0.39108 0.36054 0.39549 0.0
C5921 C 0.372 0.38499 0.39529 0.0
C5922 C 0.36205 0.39834 0.40537 0.0
C5923 C 0.3701 0.4133 0.41193 0.0
C5924 C 0.36063 0.42592 0.4215 0.0
C5925 C 0.34307 0.42376 0.42433 0.0
C5926 C 0.33494 0.40899 0.41756 0.0
C5927 C 0.34439 0.3963 0.40808 0.0
H5928 H 0.33575 0.43355 0.4317 0.0
H5929 H 0.42456 0.30928 0.33901 0.0
H5930 H 0.40325 0.6248 0.21663 0.0
H5931 H 0.40575 0.6249 0.18125 0.0
H5932 H 0.35496 0.64601 0.17653 0.0
H5933 H 0.35208 0.64522 0.21194 0.0
H5934 H 0.35735 0.62246 0.1517 0.0
H5935 H 0.39408 0.66942 0.16697 0.0
H5936 H 0.4178 0.68443 0.18328 0.0
H5937 H 0.45369 0.64902 0.15853 0.0
H5938 H 0.43014 0.63365 0.14229 0.0
H5939 H 0.36469 0.64842 0.05177 0.0
H5940 H 0.36479 0.65059 0.08741 0.0
H5941 H 0.40357 0.61159 0.09056 0.0
H5942 H 0.40318 0.60892 0.05488 0.0
H5943 H 0.40777 0.64417 0.11545 0.0
H5944 H 0.36967 0.59771 0.09986 0.0
H5945 H 0.34537 0.58438 0.0828 0.0
H5946 H 0.31123 0.62112 0.10823 0.0
H5947 H 0.33538 0.63496 0.12494 0.0
C5948 C 0.39272 0.62983 0.20814 0.0
C5949 C 0.37751 0.6352 0.21727 0.0
C5950 C 0.39418 0.62988 0.18779 0.0
C5951 C 0.38065 0.63569 0.17604 0.0
C5952 C 0.36562 0.64146 0.18516 0.0
C5953 C 0.36404 0.64115 0.20549 0.0
C5954 C 0.38179 0.635 0.1543 0.0
C5955 C 0.3683 0.62748 0.14386 0.0
C5956 C 0.39619 0.64113 0.14384 0.0
C5957 C 0.41035 0.6503 0.15359 0.0
C5958 C 0.40702 0.66476 0.16514 0.0
C5959 C 0.42043 0.67334 0.17435 0.0
C5960 C 0.43723 0.66765 0.17199 0.0
C5961 C 0.44066 0.65339 0.16037 0.0
C5962 C 0.4273 0.64475 0.15115 0.0
C5963 C 0.37346 0.6405 0.06 0.0
C5964 C 0.38405 0.62858 0.05049 0.0
C5965 C 0.37342 0.6417 0.08036 0.0
C5966 C 0.38417 0.63124 0.09156 0.0
C5967 C 0.39522 0.61979 0.08213 0.0
C5968 C 0.39498 0.61829 0.06177 0.0
C5969 C 0.38334 0.63182 0.11316 0.0
C5970 C 0.39687 0.63925 0.12347 0.0
C5971 C 0.3689 0.62582 0.12348 0.0
C5972 C 0.35437 0.61754 0.11338 0.0
C5973 C 0.35701 0.60311 0.10156 0.0
C5974 C 0.34325 0.59544 0.09197 0.0
C5975 C 0.32676 0.60197 0.0943 0.0
C5976 C 0.324 0.61614 0.10629 0.0
C5977 C 0.33772 0.62391 0.11581 0.0
H5978 H 0.31611 0.596 0.08689 0.0
H5979 H 0.4476 0.67432 0.17913 0.0
H5980 H 0.09958 0.63381 0.80125 0.0
H5981 H 0.09624 0.63338 0.83687 0.0
H5982 H 0.15084 0.62901 0.84352 0.0
H5983 H 0.15433 0.62972 0.80817 0.0
H5984 H 0.1323 0.60536 0.86617 0.0
H5985 H 0.13323 0.66567 0.85246 0.0
H5986 H 0.12358 0.69211 0.83631 0.0
H5987 H 0.07345 0.68556 0.86071 0.0
H5988 H 0.08274 0.65889 0.87674 0.0
H5989 H 0.14579 0.62196 0.96557 0.0
H5990 H 0.14597 0.62364 0.92992 0.0
H5991 H 0.09176 0.63386 0.93021 0.0
H5992 H 0.09167 0.63227 0.96613 0.0
H5993 H 0.10785 0.6537 0.90378 0.0
H5994 H 0.10665 0.59444 0.91895 0.0
H5995 H 0.11565 0.56776 0.9351 0.0
H5996 H 0.16495 0.57144 0.90791 0.0
H5997 H 0.15636 0.59832 0.89185 0.0
C5998 C 0.11088 0.63295 0.81031 0.0
C5999 C 0.12723 0.63203 0.80181 0.0
C6000 C 0.10895 0.63267 0.83065 0.0
C6001 C 0.12331 0.63119 0.84285 0.0
C6002 C 0.1396 0.63017 0.8344 0.0
C6003 C 0.14156 0.63074 0.81415 0.0
C6004 C 0.12146 0.63058 0.86444 0.0
C6005 C 0.1271 0.61598 0.87442 0.0
C6006 C 0.11421 0.64421 0.87516 0.0
C6007 C 0.10861 0.66019 0.86555 0.0
C6008 C 0.1201 0.66978 0.8542 0.0
C6009 C 0.11471 0.68482 0.84511 0.0
C6010 C 0.09789 0.69048 0.84742 0.0
C6011 C 0.08645 0.68113 0.85889 0.0
C6012 C 0.09177 0.66605 0.86797 0.0
C6013 C 0.13397 0.62474 0.95798 0.0
C6014 C 0.11873 0.62707 0.96843 0.0
C6015 C 0.13404 0.62558 0.93764 0.0
C6016 C 0.11883 0.62861 0.92732 0.0
C6017 C 0.10364 0.63144 0.93784 0.0
C6018 C 0.10357 0.63055 0.95829 0.0
C6019 C 0.11887 0.62854 0.90559 0.0
C6020 C 0.11292 0.64299 0.89557 0.0
C6021 C 0.12569 0.61468 0.8948 0.0
C6022 C 0.13091 0.59848 0.90435 0.0
C6023 C 0.11946 0.58964 0.91654 0.0
C6024 C 0.12448 0.57447 0.92566 0.0
C6025 C 0.14088 0.56794 0.92257 0.0
C6026 C 0.15227 0.57653 0.91031 0.0
C6027 C 0.14733 0.59173 0.90119 0.0
H6028 H 0.14475 0.55619 0.92963 0.0
H6029 H 0.09374 0.70214 0.84038 0.0
H6030 H 0.10319 0.3863 0.71698 0.0
H6031 H 0.10109 0.38645 0.68166 0.0
H6032 H 0.14252 0.35012 0.6781 0.0
H6033 H 0.14536 0.35077 0.71364 0.0
H6034 H 0.14734 0.37141 0.65166 0.0
H6035 H 0.09768 0.33998 0.66924 0.0
H6036 H 0.07081 0.33354 0.68653 0.0
H6037 H 0.04757 0.37832 0.66183 0.0
H6038 H 0.0744 0.38515 0.64461 0.0
H6039 H 0.12946 0.34996 0.55275 0.0
H6040 H 0.12884 0.34752 0.58822 0.0
H6041 H 0.10595 0.39747 0.59241 0.0
H6042 H 0.10677 0.40026 0.5568 0.0
H6043 H 0.09149 0.36814 0.61756 0.0
H6044 H 0.14419 0.39923 0.60185 0.0
H6045 H 0.17069 0.40214 0.58257 0.0
H6046 H 0.18718 0.35263 0.60203 0.0
H6047 H 0.16089 0.34956 0.62155 0.0
C6048 C 0.1117 0.37811 0.70875 0.0
C6049 C 0.1243 0.3683 0.7182 0.0
C6050 C 0.11044 0.37816 0.68845 0.0
C6051 C 0.12136 0.36799 0.67706 0.0
C6052 C 0.13386 0.35804 0.68649 0.0
C6053 C 0.1354 0.35829 0.70683 0.0
C6054 C 0.1201 0.36826 0.65536 0.0
C6055 C 0.13509 0.37044 0.64434 0.0
C6056 C 0.10419 0.36717 0.64548 0.0
C6057 C 0.08807 0.36315 0.65581 0.0
C6058 C 0.08687 0.34851 0.66762 0.0
C6059 C 0.07165 0.34478 0.67739 0.0
C6060 C 0.0575 0.35554 0.67532 0.0
C6061 C 0.05854 0.37002 0.66344 0.0
C6062 C 0.07375 0.37381 0.65366 0.0
C6063 C 0.12391 0.36031 0.5611 0.0
C6064 C 0.11802 0.37528 0.55187 0.0
C6065 C 0.1237 0.35891 0.58139 0.0
C6066 C 0.11742 0.37234 0.59283 0.0
C6067 C 0.11082 0.38697 0.58374 0.0
C6068 C 0.11128 0.38852 0.56342 0.0
C6069 C 0.11858 0.3714 0.61431 0.0
C6070 C 0.10362 0.36908 0.62514 0.0
C6071 C 0.13449 0.37194 0.62398 0.0
C6072 C 0.15062 0.37415 0.61305 0.0
C6073 C 0.15353 0.38901 0.60203 0.0
C6074 C 0.16853 0.39071 0.59112 0.0
C6075 C 0.18068 0.37761 0.59115 0.0
C6076 C 0.17788 0.36285 0.60217 0.0
C6077 C 0.16297 0.36114 0.61321 0.0
H6078 H 0.19224 0.37889 0.58259 0.0
H6079 H 0.04572 0.35263 0.6829 0.0
loop_
_geom_bond_atom_site_label_1
_geom_bond_atom_site_label_2
_geom_bond_distance
_geom_bond_site_symmetry_2
_ccdc_geom_bond_type
Eu0 C9 2.828 . S
Eu0 O11 2.392 . S
Eu0 O13 2.418 . S
Eu0 O18 2.373 . S
Eu0 O21 2.488 . S
Eu0 O22 2.471 . S
Eu0 O23 2.349 . S
Eu1 O10 2.373 . S
Eu1 O14 2.488 . S
Eu1 O15 2.471 . S
Eu1 O16 2.349 . S
Eu1 O19 2.392 . S
Eu1 O20 2.418 . S
Eu1 C30 2.828 . S
C2 O20 1.244 . S
C2 O23 1.265 . S
C3 C4 1.379 . S
C3 C7 1.373 . S
C3 C9 1.505 . S
C4 C3 1.379 . S
C4 C6 1.369 . S
C4 H32 0.930 . S
C5 C7 1.383 . S
C5 C8 1.382 . S
C5 H33 0.930 . S
C6 C4 1.369 . S
C6 C8 1.392 . S
C6 H34 0.930 . S
C7 C3 1.373 . S
C7 C5 1.383 . S
C7 H35 0.931 . S
C8 C5 1.382 . S
C8 C6 1.392 . S
C9 Eu0 2.828 . S
C9 C3 1.505 . S
C9 O21 1.249 . S
C9 O22 1.244 . S
O10 Eu1 2.373 . S
O10 C12 1.258 . S
O11 Eu0 2.392 . S
O11 C12 1.242 . S
C12 O10 1.258 . S
C12 O11 1.242 . S
O13 Eu0 2.418 . S
O13 C17 1.244 . S
O14 Eu1 2.488 . S
O14 C30 1.249 . S
O15 Eu1 2.471 . S
O15 C30 1.244 . S
O16 Eu1 2.349 . S
O16 C17 1.265 . S
C17 O13 1.244 . S
C17 O16 1.265 . S
O18 Eu0 2.373 . S
O18 C31 1.258 . S
O19 Eu1 2.392 . S
O19 C31 1.242 . S
O20 Eu1 2.418 . S
O20 C2 1.244 . S
O21 Eu0 2.488 . S
O21 C9 1.249 . S
O22 Eu0 2.471 . S
O22 C9 1.244 . S
O23 Eu0 2.349 . S
O23 C2 1.265 . S
C24 C25 1.379 . S
C24 C28 1.373 . S
C24 C30 1.505 . S
C25 C24 1.379 . S
C25 C27 1.369 . S
C25 H36 0.930 . S
C26 C28 1.383 . S
C26 C29 1.382 . S
C26 H37 0.930 . S
C27 C25 1.369 . S
C27 C29 1.392 . S
C27 H38 0.930 . S
C28 C24 1.373 . S
C28 C26 1.383 . S
C28 H39 0.931 . S
C29 C26 1.382 . S
C29 C27 1.392 . S
C30 Eu1 2.828 . S
C30 O14 1.249 . S
C30 O15 1.244 . S
C30 C24 1.505 . S
C31 O18 1.258 . S
C31 O19 1.242 . S
H32 C4 0.930 . S
H33 C5 0.930 . S
H34 C6 0.930 . S
H35 C7 0.931 . S
H36 C25 0.930 . S
H37 C26 0.930 . S
H38 C27 0.930 . S
H39 C28 0.931 . S
Eu40 C49 2.828 . S
Eu40 O51 2.392 . S
Eu40 O53 2.418 . S
Eu40 O58 2.373 . S
Eu40 O61 2.488 . S
Eu40 O62 2.471 . S
Eu40 O63 2.349 . S
Eu41 O50 2.373 . S
Eu41 O54 2.488 . S
Eu41 O55 2.471 . S
Eu41 O56 2.349 . S
Eu41 O59 2.392 . S
Eu41 O60 2.418 . S
Eu41 C70 2.828 . S
C42 O60 1.244 . S
C42 O63 1.265 . S
C43 C44 1.379 . S
C43 C47 1.373 . S
C43 C49 1.505 . S
C44 C43 1.379 . S
C44 C46 1.369 . S
C44 H72 0.930 . S
C45 C47 1.383 . S
C45 C48 1.382 . S
C45 H73 0.930 . S
C46 C44 1.369 . S
C46 C48 1.392 . S
C46 H74 0.930 . S
C47 C43 1.373 . S
C47 C45 1.383 . S
C47 H75 0.931 . S
C48 C45 1.382 . S
C48 C46 1.392 . S
C49 Eu40 2.828 . S
C49 C43 1.505 . S
C49 O61 1.249 . S
C49 O62 1.244 . S
O50 Eu41 2.373 . S
O50 C52 1.258 . S
O51 Eu40 2.392 . S
O51 C52 1.242 . S
C52 O50 1.258 . S
C52 O51 1.242 . S
O53 Eu40 2.418 . S
O53 C57 1.244 . S
O54 Eu41 2.488 . S
O54 C70 1.249 . S
O55 Eu41 2.471 . S
O55 C70 1.244 . S
O56 Eu41 2.349 . S
O56 C57 1.265 . S
C57 O53 1.244 . S
C57 O56 1.265 . S
O58 Eu40 2.373 . S
O58 C71 1.258 . S
O59 Eu41 2.392 . S
O59 C71 1.242 . S
O60 Eu41 2.418 . S
O60 C42 1.244 . S
O61 Eu40 2.488 . S
O61 C49 1.249 . S
O62 Eu40 2.471 . S
O62 C49 1.244 . S
O63 Eu40 2.349 . S
O63 C42 1.265 . S
C64 C65 1.379 . S
C64 C68 1.373 . S
C64 C70 1.505 . S
C65 C64 1.379 . S
C65 C67 1.369 . S
C65 H76 0.930 . S
C66 C68 1.383 . S
C66 C69 1.382 . S
C66 H77 0.930 . S
C67 C65 1.369 . S
C67 C69 1.392 . S
C67 H78 0.930 . S
C68 C64 1.373 . S
C68 C66 1.383 . S
C68 H79 0.931 . S
C69 C66 1.382 . S
C69 C67 1.392 . S
C70 Eu41 2.828 . S
C70 O54 1.249 . S
C70 O55 1.244 . S
C70 C64 1.505 . S
C71 O58 1.258 . S
C71 O59 1.242 . S
H72 C44 0.930 . S
H73 C45 0.930 . S
H74 C46 0.930 . S
H75 C47 0.931 . S
H76 C65 0.930 . S
H77 C66 0.930 . S
H78 C67 0.930 . S
H79 C68 0.931 . S
Eu80 C89 2.828 . S
Eu80 O91 2.392 . S
Eu80 O93 2.418 . S
Eu80 O98 2.373 . S
Eu80 O101 2.488 . S
Eu80 O102 2.471 . S
Eu80 O103 2.349 . S
Eu81 O90 2.373 . S
Eu81 O94 2.488 . S
Eu81 O95 2.471 . S
Eu81 O96 2.349 . S
Eu81 O99 2.392 . S
Eu81 O100 2.418 . S
Eu81 C110 2.828 . S
C82 O100 1.244 . S
C82 O103 1.265 . S
C83 C84 1.379 . S
C83 C87 1.373 . S
C83 C89 1.505 . S
C84 C83 1.379 . S
C84 C86 1.369 . S
C84 H112 0.930 . S
C85 C87 1.383 . S
C85 C88 1.382 . S
C85 H113 0.930 . S
C86 C84 1.369 . S
C86 C88 1.392 . S
C86 H114 0.930 . S
C87 C83 1.373 . S
C87 C85 1.383 . S
C87 H115 0.931 . S
C88 C85 1.382 . S
C88 C86 1.392 . S
C89 Eu80 2.828 . S
C89 C83 1.505 . S
C89 O101 1.249 . S
C89 O102 1.244 . S
O90 Eu81 2.373 . S
O90 C92 1.258 . S
O91 Eu80 2.392 . S
O91 C92 1.242 . S
C92 O90 1.258 . S
C92 O91 1.242 . S
O93 Eu80 2.418 . S
O93 C97 1.244 . S
O94 Eu81 2.488 . S
O94 C110 1.249 . S
O95 Eu81 2.471 . S
O95 C110 1.244 . S
O96 Eu81 2.349 . S
O96 C97 1.265 . S
C97 O93 1.244 . S
C97 O96 1.265 . S
O98 Eu80 2.373 . S
O98 C111 1.258 . S
O99 Eu81 2.392 . S
O99 C111 1.242 . S
O100 Eu81 2.418 . S
O100 C82 1.244 . S
O101 Eu80 2.488 . S
O101 C89 1.249 . S
O102 Eu80 2.471 . S
O102 C89 1.244 . S
O103 Eu80 2.349 . S
O103 C82 1.265 . S
C104 C105 1.379 . S
C104 C108 1.373 . S
C104 C110 1.505 . S
C105 C104 1.379 . S
C105 C107 1.369 . S
C105 H116 0.930 . S
C106 C108 1.383 . S
C106 C109 1.382 . S
C106 H117 0.930 . S
C107 C105 1.369 . S
C107 C109 1.392 . S
C107 H118 0.930 . S
C108 C104 1.373 . S
C108 C106 1.383 . S
C108 H119 0.931 . S
C109 C106 1.382 . S
C109 C107 1.392 . S
C110 Eu81 2.828 . S
C110 O94 1.249 . S
C110 O95 1.244 . S
C110 C104 1.505 . S
C111 O98 1.258 . S
C111 O99 1.242 . S
H112 C84 0.930 . S
H113 C85 0.930 . S
H114 C86 0.930 . S
H115 C87 0.931 . S
H116 C105 0.930 . S
H117 C106 0.930 . S
H118 C107 0.930 . S
H119 C108 0.931 . S
Eu120 C129 2.828 . S
Eu120 O131 2.392 . S
Eu120 O133 2.418 . S
Eu120 O138 2.373 . S
Eu120 O141 2.488 . S
Eu120 O142 2.471 . S
Eu120 O143 2.349 . S
Eu121 O130 2.373 . S
Eu121 O134 2.488 . S
Eu121 O135 2.471 . S
Eu121 O136 2.349 . S
Eu121 O139 2.368 1_554 S
Eu121 O140 2.418 . S
Eu121 C150 2.828 . S
C122 O140 1.244 . S
C122 O143 1.265 . S
C123 C124 1.379 . S
C123 C127 1.373 . S
C123 C129 1.505 1_556 S
C124 C123 1.379 . S
C124 C126 1.369 . S
C124 H152 0.930 . S
C125 C127 1.383 . S
C125 C128 1.382 . S
C125 H153 0.930 . S
C126 C124 1.369 . S
C126 C128 1.392 . S
C126 H154 0.930 . S
C127 C123 1.373 . S
C127 C125 1.383 . S
C127 H155 0.931 . S
C128 C125 1.382 . S
C128 C126 1.392 . S
C129 Eu120 2.828 . S
C129 C123 1.505 1_554 S
C129 O141 1.249 . S
C129 O142 1.244 . S
O130 Eu121 2.373 . S
O130 C132 1.258 . S
O131 Eu120 2.392 . S
O131 C132 1.242 . S
C132 O130 1.258 . S
C132 O131 1.242 . S
O133 Eu120 2.418 . S
O133 C137 1.244 . S
O134 Eu121 2.488 . S
O134 C150 1.249 . S
O135 Eu121 2.471 . S
O135 C150 1.244 . S
O136 Eu121 2.349 . S
O136 C137 1.265 . S
C137 O133 1.244 . S
C137 O136 1.265 . S
O138 Eu120 2.373 . S
O138 C151 1.258 1_554 S
O139 Eu121 2.368 1_556 S
O139 C151 1.252 . S
O140 Eu121 2.418 . S
O140 C122 1.244 . S
O141 Eu120 2.488 . S
O141 C129 1.249 . S
O142 Eu120 2.471 . S
O142 C129 1.244 . S
O143 Eu120 2.349 . S
O143 C122 1.265 . S
C144 C145 1.379 . S
C144 C148 1.373 . S
C144 C150 1.505 . S
C145 C144 1.379 . S
C145 C147 1.369 . S
C145 H156 0.930 . S
C146 C148 1.383 . S
C146 C149 1.382 . S
C146 H157 0.930 . S
C147 C145 1.369 . S
C147 C149 1.392 . S
C147 H158 0.930 . S
C148 C144 1.373 . S
C148 C146 1.383 . S
C148 H159 0.931 . S
C149 C146 1.382 . S
C149 C147 1.392 . S
C150 Eu121 2.828 . S
C150 O134 1.249 . S
C150 O135 1.244 . S
C150 C144 1.505 . S
C151 O138 1.258 1_556 S
C151 O139 1.252 . S
H152 C124 0.930 . S
H153 C125 0.930 . S
H154 C126 0.930 . S
H155 C127 0.931 . S
H156 C145 0.930 . S
H157 C146 0.930 . S
H158 C147 0.930 . S
H159 C148 0.931 . S
Eu160 C169 2.828 . S
Eu160 O171 2.392 . S
Eu160 O173 2.418 . S
Eu160 O178 2.373 . S
Eu160 O181 2.488 . S
Eu160 O182 2.471 . S
Eu160 O183 2.349 . S
Eu161 O170 2.373 . S
Eu161 O174 2.488 . S
Eu161 O175 2.471 . S
Eu161 O176 2.349 . S
Eu161 O179 2.392 . S
Eu161 O180 2.418 . S
Eu161 C190 2.828 . S
C162 O180 1.244 . S
C162 O183 1.265 . S
C163 C164 1.379 . S
C163 C167 1.373 . S
C163 C169 1.505 . S
C164 C163 1.379 . S
C164 C166 1.369 . S
C164 H192 0.930 . S
C165 C167 1.383 . S
C165 C168 1.382 . S
C165 H193 0.930 . S
C166 C164 1.369 . S
C166 C168 1.392 . S
C166 H194 0.930 . S
C167 C163 1.373 . S
C167 C165 1.383 . S
C167 H195 0.931 . S
C168 C165 1.382 . S
C168 C166 1.392 . S
C169 Eu160 2.828 . S
C169 C163 1.505 . S
C169 O181 1.249 . S
C169 O182 1.244 . S
O170 Eu161 2.373 . S
O170 C172 1.258 . S
O171 Eu160 2.392 . S
O171 C172 1.242 . S
C172 O170 1.258 . S
C172 O171 1.242 . S
O173 Eu160 2.418 . S
O173 C177 1.244 . S
O174 Eu161 2.488 . S
O174 C190 1.249 . S
O175 Eu161 2.471 . S
O175 C190 1.244 . S
O176 Eu161 2.349 . S
O176 C177 1.265 . S
C177 O173 1.244 . S
C177 O176 1.265 . S
O178 Eu160 2.373 . S
O178 C191 1.258 . S
O179 Eu161 2.392 . S
O179 C191 1.242 . S
O180 Eu161 2.418 . S
O180 C162 1.244 . S
O181 Eu160 2.488 . S
O181 C169 1.249 . S
O182 Eu160 2.471 . S
O182 C169 1.244 . S
O183 Eu160 2.349 . S
O183 C162 1.265 . S
C184 C185 1.379 . S
C184 C188 1.373 . S
C184 C190 1.505 . S
C185 C184 1.379 . S
C185 C187 1.369 . S
C185 H196 0.930 . S
C186 C188 1.383 . S
C186 C189 1.382 . S
C186 H197 0.930 . S
C187 C185 1.369 . S
C187 C189 1.392 . S
C187 H198 0.930 . S
C188 C184 1.373 . S
C188 C186 1.383 . S
C188 H199 0.931 . S
C189 C186 1.382 . S
C189 C187 1.392 . S
C190 Eu161 2.828 . S
C190 O174 1.249 . S
C190 O175 1.244 . S
C190 C184 1.505 . S
C191 O178 1.258 . S
C191 O179 1.242 . S
H192 C164 0.930 . S
H193 C165 0.930 . S
H194 C166 0.930 . S
H195 C167 0.931 . S
H196 C185 0.930 . S
H197 C186 0.930 . S
H198 C187 0.930 . S
H199 C188 0.931 . S
Eu200 C209 2.828 . S
Eu200 O211 2.392 . S
Eu200 O213 2.418 . S
Eu200 O218 2.373 . S
Eu200 O221 2.488 . S
Eu200 O222 2.471 . S
Eu200 O223 2.349 . S
Eu201 O210 2.373 . S
Eu201 O214 2.488 . S
Eu201 O215 2.471 . S
Eu201 O216 2.349 . S
Eu201 O219 2.392 . S
Eu201 O220 2.418 . S
Eu201 C230 2.828 . S
C202 O220 1.244 . S
C202 O223 1.265 . S
C203 C204 1.379 . S
C203 C207 1.373 . S
C203 C209 1.505 . S
C204 C203 1.379 . S
C204 C206 1.369 . S
C204 H232 0.930 . S
C205 C207 1.383 . S
C205 C208 1.382 . S
C205 H233 0.930 . S
C206 C204 1.369 . S
C206 C208 1.392 . S
C206 H234 0.930 . S
C207 C203 1.373 . S
C207 C205 1.383 . S
C207 H235 0.931 . S
C208 C205 1.382 . S
C208 C206 1.392 . S
C209 Eu200 2.828 . S
C209 C203 1.505 . S
C209 O221 1.249 . S
C209 O222 1.244 . S
O210 Eu201 2.373 . S
O210 C212 1.258 . S
O211 Eu200 2.392 . S
O211 C212 1.242 . S
C212 O210 1.258 . S
C212 O211 1.242 . S
O213 Eu200 2.418 . S
O213 C217 1.244 . S
O214 Eu201 2.488 . S
O214 C230 1.249 . S
O215 Eu201 2.471 . S
O215 C230 1.244 . S
O216 Eu201 2.349 . S
O216 C217 1.265 . S
C217 O213 1.244 . S
C217 O216 1.265 . S
O218 Eu200 2.373 . S
O218 C231 1.258 . S
O219 Eu201 2.392 . S
O219 C231 1.242 . S
O220 Eu201 2.418 . S
O220 C202 1.244 . S
O221 Eu200 2.488 . S
O221 C209 1.249 . S
O222 Eu200 2.471 . S
O222 C209 1.244 . S
O223 Eu200 2.349 . S
O223 C202 1.265 . S
C224 C225 1.379 . S
C224 C228 1.373 . S
C224 C230 1.505 . S
C225 C224 1.379 . S
C225 C227 1.369 . S
C225 H236 0.930 . S
C226 C228 1.383 . S
C226 C229 1.382 . S
C226 H237 0.930 . S
C227 C225 1.369 . S
C227 C229 1.392 . S
C227 H238 0.930 . S
C228 C224 1.373 . S
C228 C226 1.383 . S
C228 H239 0.931 . S
C229 C226 1.382 . S
C229 C227 1.392 . S
C230 Eu201 2.828 . S
C230 O214 1.249 . S
C230 O215 1.244 . S
C230 C224 1.505 . S
C231 O218 1.258 . S
C231 O219 1.242 . S
H232 C204 0.930 . S
H233 C205 0.930 . S
H234 C206 0.930 . S
H235 C207 0.931 . S
H236 C225 0.930 . S
H237 C226 0.930 . S
H238 C227 0.930 . S
H239 C228 0.931 . S
Eu240 C249 2.828 . S
Eu240 O251 2.392 . S
Eu240 O253 2.418 . S
Eu240 O258 2.373 . S
Eu240 O261 2.488 . S
Eu240 O262 2.471 . S
Eu240 O263 2.349 . S
Eu241 O250 2.373 . S
Eu241 O254 2.488 . S
Eu241 O255 2.471 . S
Eu241 O256 2.349 . S
Eu241 O259 2.392 . S
Eu241 O260 2.418 . S
Eu241 C270 2.828 . S
C242 O260 1.244 . S
C242 O263 1.265 . S
C243 C244 1.379 . S
C243 C247 1.373 . S
C243 C249 1.505 . S
C244 C243 1.379 . S
C244 C246 1.369 . S
C244 H272 0.930 . S
C245 C247 1.383 . S
C245 C248 1.382 . S
C245 H273 0.930 . S
C246 C244 1.369 . S
C246 C248 1.392 . S
C246 H274 0.930 . S
C247 C243 1.373 . S
C247 C245 1.383 . S
C247 H275 0.931 . S
C248 C245 1.382 . S
C248 C246 1.392 . S
C249 Eu240 2.828 . S
C249 C243 1.505 . S
C249 O261 1.249 . S
C249 O262 1.244 . S
O250 Eu241 2.373 . S
O250 C252 1.258 . S
O251 Eu240 2.392 . S
O251 C252 1.242 . S
C252 O250 1.258 . S
C252 O251 1.242 . S
O253 Eu240 2.418 . S
O253 C257 1.244 . S
O254 Eu241 2.488 . S
O254 C270 1.249 . S
O255 Eu241 2.471 . S
O255 C270 1.244 . S
O256 Eu241 2.349 . S
O256 C257 1.265 . S
C257 O253 1.244 . S
C257 O256 1.265 . S
O258 Eu240 2.373 . S
O258 C271 1.258 . S
O259 Eu241 2.392 . S
O259 C271 1.242 . S
O260 Eu241 2.418 . S
O260 C242 1.244 . S
O261 Eu240 2.488 . S
O261 C249 1.249 . S
O262 Eu240 2.471 . S
O262 C249 1.244 . S
O263 Eu240 2.349 . S
O263 C242 1.265 . S
C264 C265 1.379 . S
C264 C268 1.373 . S
C264 C270 1.505 . S
C265 C264 1.379 . S
C265 C267 1.369 . S
C265 H276 0.930 . S
C266 C268 1.383 . S
C266 C269 1.382 . S
C266 H277 0.930 . S
C267 C265 1.369 . S
C267 C269 1.392 . S
C267 H278 0.930 . S
C268 C264 1.373 . S
C268 C266 1.383 . S
C268 H279 0.931 . S
C269 C266 1.382 . S
C269 C267 1.392 . S
C270 Eu241 2.828 . S
C270 O254 1.249 . S
C270 O255 1.244 . S
C270 C264 1.505 . S
C271 O258 1.258 . S
C271 O259 1.242 . S
H272 C244 0.930 . S
H273 C245 0.930 . S
H274 C246 0.930 . S
H275 C247 0.931 . S
H276 C265 0.930 . S
H277 C266 0.930 . S
H278 C267 0.930 . S
H279 C268 0.931 . S
Eu280 C289 2.828 . S
Eu280 O291 2.392 . S
Eu280 O293 2.418 . S
Eu280 O298 2.373 . S
Eu280 O301 2.488 . S
Eu280 O302 2.471 . S
Eu280 O303 2.349 . S
Eu281 O290 2.373 . S
Eu281 O294 2.488 . S
Eu281 O295 2.471 . S
Eu281 O296 2.349 . S
Eu281 O299 2.368 1_556 S
Eu281 O300 2.418 . S
Eu281 C310 2.828 . S
C282 O300 1.244 . S
C282 O303 1.265 . S
C283 C284 1.379 . S
C283 C287 1.373 . S
C283 C289 1.505 1_554 S
C284 C283 1.379 . S
C284 C286 1.369 . S
C284 H312 0.930 . S
C285 C287 1.383 . S
C285 C288 1.382 . S
C285 H313 0.930 . S
C286 C284 1.369 . S
C286 C288 1.392 . S
C286 H314 0.930 . S
C287 C283 1.373 . S
C287 C285 1.383 . S
C287 H315 0.931 . S
C288 C285 1.382 . S
C288 C286 1.392 . S
C289 Eu280 2.828 . S
C289 C283 1.505 1_556 S
C289 O301 1.249 . S
C289 O302 1.244 . S
O290 Eu281 2.373 . S
O290 C292 1.258 . S
O291 Eu280 2.392 . S
O291 C292 1.242 . S
C292 O290 1.258 . S
C292 O291 1.242 . S
O293 Eu280 2.418 . S
O293 C297 1.244 . S
O294 Eu281 2.488 . S
O294 C310 1.249 . S
O295 Eu281 2.471 . S
O295 C310 1.244 . S
O296 Eu281 2.349 . S
O296 C297 1.265 . S
C297 O293 1.244 . S
C297 O296 1.265 . S
O298 Eu280 2.373 . S
O298 C311 1.258 1_556 S
O299 Eu281 2.368 1_554 S
O299 C311 1.252 . S
O300 Eu281 2.418 . S
O300 C282 1.244 . S
O301 Eu280 2.488 . S
O301 C289 1.249 . S
O302 Eu280 2.471 . S
O302 C289 1.244 . S
O303 Eu280 2.349 . S
O303 C282 1.265 . S
C304 C305 1.379 . S
C304 C308 1.373 . S
C304 C310 1.505 . S
C305 C304 1.379 . S
C305 C307 1.369 . S
C305 H316 0.930 . S
C306 C308 1.383 . S
C306 C309 1.382 . S
C306 H317 0.930 . S
C307 C305 1.369 . S
C307 C309 1.392 . S
C307 H318 0.930 . S
C308 C304 1.373 . S
C308 C306 1.383 . S
C308 H319 0.931 . S
C309 C306 1.382 . S
C309 C307 1.392 . S
C310 Eu281 2.828 . S
C310 O294 1.249 . S
C310 O295 1.244 . S
C310 C304 1.505 . S
C311 O298 1.258 1_554 S
C311 O299 1.252 . S
H312 C284 0.930 . S
H313 C285 0.930 . S
H314 C286 0.930 . S
H315 C287 0.931 . S
H316 C305 0.930 . S
H317 C306 0.930 . S
H318 C307 0.930 . S
H319 C308 0.931 . S
Eu320 C329 2.828 . S
Eu320 O331 2.392 . S
Eu320 O333 2.418 . S
Eu320 O338 2.373 . S
Eu320 O341 2.488 . S
Eu320 O342 2.471 . S
Eu320 O343 2.349 . S
Eu321 O330 2.373 . S
Eu321 O334 2.488 . S
Eu321 O335 2.471 . S
Eu321 O336 2.349 . S
Eu321 O339 2.392 . S
Eu321 O340 2.418 . S
Eu321 C350 2.828 . S
C322 O340 1.244 . S
C322 O343 1.265 . S
C323 C324 1.379 . S
C323 C327 1.373 . S
C323 C329 1.505 . S
C324 C323 1.379 . S
C324 C326 1.369 . S
C324 H352 0.930 . S
C325 C327 1.383 . S
C325 C328 1.382 . S
C325 H353 0.930 . S
C326 C324 1.369 . S
C326 C328 1.392 . S
C326 H354 0.930 . S
C327 C323 1.373 . S
C327 C325 1.383 . S
C327 H355 0.931 . S
C328 C325 1.382 . S
C328 C326 1.392 . S
C329 Eu320 2.828 . S
C329 C323 1.505 . S
C329 O341 1.249 . S
C329 O342 1.244 . S
O330 Eu321 2.373 . S
O330 C332 1.258 . S
O331 Eu320 2.392 . S
O331 C332 1.242 . S
C332 O330 1.258 . S
C332 O331 1.242 . S
O333 Eu320 2.418 . S
O333 C337 1.244 . S
O334 Eu321 2.488 . S
O334 C350 1.249 . S
O335 Eu321 2.471 . S
O335 C350 1.244 . S
O336 Eu321 2.349 . S
O336 C337 1.265 . S
C337 O333 1.244 . S
C337 O336 1.265 . S
O338 Eu320 2.373 . S
O338 C351 1.258 . S
O339 Eu321 2.392 . S
O339 C351 1.242 . S
O340 Eu321 2.418 . S
O340 C322 1.244 . S
O341 Eu320 2.488 . S
O341 C329 1.249 . S
O342 Eu320 2.471 . S
O342 C329 1.244 . S
O343 Eu320 2.349 . S
O343 C322 1.265 . S
C344 C345 1.379 . S
C344 C348 1.373 . S
C344 C350 1.505 . S
C345 C344 1.379 . S
C345 C347 1.369 . S
C345 H356 0.930 . S
C346 C348 1.383 . S
C346 C349 1.382 . S
C346 H357 0.930 . S
C347 C345 1.369 . S
C347 C349 1.392 . S
C347 H358 0.930 . S
C348 C344 1.373 . S
C348 C346 1.383 . S
C348 H359 0.931 . S
C349 C346 1.382 . S
C349 C347 1.392 . S
C350 Eu321 2.828 . S
C350 O334 1.249 . S
C350 O335 1.244 . S
C350 C344 1.505 . S
C351 O338 1.258 . S
C351 O339 1.242 . S
H352 C324 0.930 . S
H353 C325 0.930 . S
H354 C326 0.930 . S
H355 C327 0.931 . S
H356 C345 0.930 . S
H357 C346 0.930 . S
H358 C347 0.930 . S
H359 C348 0.931 . S
Eu360 C369 2.828 . S
Eu360 O371 2.392 . S
Eu360 O373 2.418 . S
Eu360 O378 2.373 . S
Eu360 O381 2.488 . S
Eu360 O382 2.471 . S
Eu360 O383 2.349 . S
Eu361 O370 2.373 . S
Eu361 O374 2.488 . S
Eu361 O375 2.471 . S
Eu361 O376 2.349 . S
Eu361 O379 2.392 . S
Eu361 O380 2.418 . S
Eu361 C390 2.828 . S
C362 O380 1.244 . S
C362 O383 1.265 . S
C363 C364 1.379 . S
C363 C367 1.373 . S
C363 C369 1.505 . S
C364 C363 1.379 . S
C364 C366 1.369 . S
C364 H392 0.930 . S
C365 C367 1.383 . S
C365 C368 1.382 . S
C365 H393 0.930 . S
C366 C364 1.369 . S
C366 C368 1.392 . S
C366 H394 0.930 . S
C367 C363 1.373 . S
C367 C365 1.383 . S
C367 H395 0.931 . S
C368 C365 1.382 . S
C368 C366 1.392 . S
C369 Eu360 2.828 . S
C369 C363 1.505 . S
C369 O381 1.249 . S
C369 O382 1.244 . S
O370 Eu361 2.373 . S
O370 C372 1.258 . S
O371 Eu360 2.392 . S
O371 C372 1.242 . S
C372 O370 1.258 . S
C372 O371 1.242 . S
O373 Eu360 2.418 . S
O373 C377 1.244 . S
O374 Eu361 2.488 . S
O374 C390 1.249 . S
O375 Eu361 2.471 . S
O375 C390 1.244 . S
O376 Eu361 2.349 . S
O376 C377 1.265 . S
C377 O373 1.244 . S
C377 O376 1.265 . S
O378 Eu360 2.373 . S
O378 C391 1.258 . S
O379 Eu361 2.392 . S
O379 C391 1.242 . S
O380 Eu361 2.418 . S
O380 C362 1.244 . S
O381 Eu360 2.488 . S
O381 C369 1.249 . S
O382 Eu360 2.471 . S
O382 C369 1.244 . S
O383 Eu360 2.349 . S
O383 C362 1.265 . S
C384 C385 1.379 . S
C384 C388 1.373 . S
C384 C390 1.505 . S
C385 C384 1.379 . S
C385 C387 1.369 . S
C385 H396 0.930 . S
C386 C388 1.383 . S
C386 C389 1.382 . S
C386 H397 0.930 . S
C387 C385 1.369 . S
C387 C389 1.392 . S
C387 H398 0.930 . S
C388 C384 1.373 . S
C388 C386 1.383 . S
C388 H399 0.931 . S
C389 C386 1.382 . S
C389 C387 1.392 . S
C390 Eu361 2.828 . S
C390 O374 1.249 . S
C390 O375 1.244 . S
C390 C384 1.505 . S
C391 O378 1.258 . S
C391 O379 1.242 . S
H392 C364 0.930 . S
H393 C365 0.930 . S
H394 C366 0.930 . S
H395 C367 0.931 . S
H396 C385 0.930 . S
H397 C386 0.930 . S
H398 C387 0.930 . S
H399 C388 0.931 . S
Eu400 C409 2.828 . S
Eu400 O411 2.392 . S
Eu400 O413 2.418 . S
Eu400 O418 2.373 . S
Eu400 O421 2.488 . S
Eu400 O422 2.471 . S
Eu400 O423 2.349 . S
Eu401 O410 2.373 . S
Eu401 O414 2.488 . S
Eu401 O415 2.471 . S
Eu401 O416 2.349 . S
Eu401 O419 2.392 . S
Eu401 O420 2.418 . S
Eu401 C430 2.828 . S
C402 O420 1.244 . S
C402 O423 1.265 . S
C403 C404 1.379 . S
C403 C407 1.373 . S
C403 C409 1.505 . S
C404 C403 1.379 . S
C404 C406 1.369 . S
C404 H432 0.930 . S
C405 C407 1.383 . S
C405 C408 1.382 . S
C405 H433 0.930 . S
C406 C404 1.369 . S
C406 C408 1.392 . S
C406 H434 0.930 . S
C407 C403 1.373 . S
C407 C405 1.383 . S
C407 H435 0.931 . S
C408 C405 1.382 . S
C408 C406 1.392 . S
C409 Eu400 2.828 . S
C409 C403 1.505 . S
C409 O421 1.249 . S
C409 O422 1.244 . S
O410 Eu401 2.373 . S
O410 C412 1.258 . S
O411 Eu400 2.392 . S
O411 C412 1.242 . S
C412 O410 1.258 . S
C412 O411 1.242 . S
O413 Eu400 2.418 . S
O413 C417 1.244 . S
O414 Eu401 2.488 . S
O414 C430 1.249 . S
O415 Eu401 2.471 . S
O415 C430 1.244 . S
O416 Eu401 2.349 . S
O416 C417 1.265 . S
C417 O413 1.244 . S
C417 O416 1.265 . S
O418 Eu400 2.373 . S
O418 C431 1.258 . S
O419 Eu401 2.392 . S
O419 C431 1.242 . S
O420 Eu401 2.418 . S
O420 C402 1.244 . S
O421 Eu400 2.488 . S
O421 C409 1.249 . S
O422 Eu400 2.471 . S
O422 C409 1.244 . S
O423 Eu400 2.349 . S
O423 C402 1.265 . S
C424 C425 1.379 . S
C424 C428 1.373 . S
C424 C430 1.505 . S
C425 C424 1.379 . S
C425 C427 1.369 . S
C425 H436 0.930 . S
C426 C428 1.383 . S
C426 C429 1.382 . S
C426 H437 0.930 . S
C427 C425 1.369 . S
C427 C429 1.392 . S
C427 H438 0.930 . S
C428 C424 1.373 . S
C428 C426 1.383 . S
C428 H439 0.931 . S
C429 C426 1.382 . S
C429 C427 1.392 . S
C430 Eu401 2.828 . S
C430 O414 1.249 . S
C430 O415 1.244 . S
C430 C424 1.505 . S
C431 O418 1.258 . S
C431 O419 1.242 . S
H432 C404 0.930 . S
H433 C405 0.930 . S
H434 C406 0.930 . S
H435 C407 0.931 . S
H436 C425 0.930 . S
H437 C426 0.930 . S
H438 C427 0.930 . S
H439 C428 0.931 . S
Eu440 C449 2.828 . S
Eu440 O451 2.368 1_556 S
Eu440 O453 2.418 . S
Eu440 O458 2.373 . S
Eu440 O461 2.488 . S
Eu440 O462 2.471 . S
Eu440 O463 2.349 . S
Eu441 O450 2.373 . S
Eu441 O454 2.488 . S
Eu441 O455 2.471 . S
Eu441 O456 2.349 . S
Eu441 O459 2.392 . S
Eu441 O460 2.418 . S
Eu441 C470 2.828 . S
C442 O460 1.244 . S
C442 O463 1.265 . S
C443 C444 1.379 . S
C443 C447 1.373 . S
C443 C449 1.505 . S
C444 C443 1.379 . S
C444 C446 1.369 . S
C444 H472 0.930 . S
C445 C447 1.383 . S
C445 C448 1.382 . S
C445 H473 0.930 . S
C446 C444 1.369 . S
C446 C448 1.392 . S
C446 H474 0.930 . S
C447 C443 1.373 . S
C447 C445 1.383 . S
C447 H475 0.931 . S
C448 C445 1.382 . S
C448 C446 1.392 . S
C449 Eu440 2.828 . S
C449 C443 1.505 . S
C449 O461 1.249 . S
C449 O462 1.244 . S
O450 Eu441 2.373 . S
O450 C452 1.258 1_556 S
O451 Eu440 2.368 1_554 S
O451 C452 1.252 . S
C452 O450 1.258 1_554 S
C452 O451 1.252 . S
O453 Eu440 2.418 . S
O453 C457 1.244 . S
O454 Eu441 2.488 . S
O454 C470 1.249 . S
O455 Eu441 2.471 . S
O455 C470 1.244 . S
O456 Eu441 2.349 . S
O456 C457 1.265 . S
C457 O453 1.244 . S
C457 O456 1.265 . S
O458 Eu440 2.373 . S
O458 C471 1.258 . S
O459 Eu441 2.392 . S
O459 C471 1.242 . S
O460 Eu441 2.418 . S
O460 C442 1.244 . S
O461 Eu440 2.488 . S
O461 C449 1.249 . S
O462 Eu440 2.471 . S
O462 C449 1.244 . S
O463 Eu440 2.349 . S
O463 C442 1.265 . S
C464 C465 1.379 . S
C464 C468 1.373 . S
C464 C470 1.505 1_554 S
C465 C464 1.379 . S
C465 C467 1.369 . S
C465 H476 0.930 . S
C466 C468 1.383 . S
C466 C469 1.382 . S
C466 H477 0.930 . S
C467 C465 1.369 . S
C467 C469 1.392 . S
C467 H478 0.930 . S
C468 C464 1.373 . S
C468 C466 1.383 . S
C468 H479 0.931 . S
C469 C466 1.382 . S
C469 C467 1.392 . S
C470 Eu441 2.828 . S
C470 O454 1.249 . S
C470 O455 1.244 . S
C470 C464 1.505 1_556 S
C471 O458 1.258 . S
C471 O459 1.242 . S
H472 C444 0.930 . S
H473 C445 0.930 . S
H474 C446 0.930 . S
H475 C447 0.931 . S
H476 C465 0.930 . S
H477 C466 0.930 . S
H478 C467 0.930 . S
H479 C468 0.931 . S
Eu480 C489 2.828 . S
Eu480 O491 2.392 . S
Eu480 O493 2.418 . S
Eu480 O498 2.373 . S
Eu480 O501 2.488 . S
Eu480 O502 2.471 . S
Eu480 O503 2.349 . S
Eu481 O490 2.373 . S
Eu481 O494 2.488 . S
Eu481 O495 2.471 . S
Eu481 O496 2.349 . S
Eu481 O499 2.392 . S
Eu481 O500 2.418 . S
Eu481 C510 2.828 . S
C482 O500 1.244 . S
C482 O503 1.265 . S
C483 C484 1.379 . S
C483 C487 1.373 . S
C483 C489 1.505 . S
C484 C483 1.379 . S
C484 C486 1.369 . S
C484 H512 0.930 . S
C485 C487 1.383 . S
C485 C488 1.382 . S
C485 H513 0.930 . S
C486 C484 1.369 . S
C486 C488 1.392 . S
C486 H514 0.930 . S
C487 C483 1.373 . S
C487 C485 1.383 . S
C487 H515 0.931 . S
C488 C485 1.382 . S
C488 C486 1.392 . S
C489 Eu480 2.828 . S
C489 C483 1.505 . S
C489 O501 1.249 . S
C489 O502 1.244 . S
O490 Eu481 2.373 . S
O490 C492 1.258 . S
O491 Eu480 2.392 . S
O491 C492 1.242 . S
C492 O490 1.258 . S
C492 O491 1.242 . S
O493 Eu480 2.418 . S
O493 C497 1.244 . S
O494 Eu481 2.488 . S
O494 C510 1.249 . S
O495 Eu481 2.471 . S
O495 C510 1.244 . S
O496 Eu481 2.349 . S
O496 C497 1.265 . S
C497 O493 1.244 . S
C497 O496 1.265 . S
O498 Eu480 2.373 . S
O498 C511 1.258 . S
O499 Eu481 2.392 . S
O499 C511 1.242 . S
O500 Eu481 2.418 . S
O500 C482 1.244 . S
O501 Eu480 2.488 . S
O501 C489 1.249 . S
O502 Eu480 2.471 . S
O502 C489 1.244 . S
O503 Eu480 2.349 . S
O503 C482 1.265 . S
C504 C505 1.379 . S
C504 C508 1.373 . S
C504 C510 1.505 . S
C505 C504 1.379 . S
C505 C507 1.369 . S
C505 H516 0.930 . S
C506 C508 1.383 . S
C506 C509 1.382 . S
C506 H517 0.930 . S
C507 C505 1.369 . S
C507 C509 1.392 . S
C507 H518 0.930 . S
C508 C504 1.373 . S
C508 C506 1.383 . S
C508 H519 0.931 . S
C509 C506 1.382 . S
C509 C507 1.392 . S
C510 Eu481 2.828 . S
C510 O494 1.249 . S
C510 O495 1.244 . S
C510 C504 1.505 . S
C511 O498 1.258 . S
C511 O499 1.242 . S
H512 C484 0.930 . S
H513 C485 0.930 . S
H514 C486 0.930 . S
H515 C487 0.931 . S
H516 C505 0.930 . S
H517 C506 0.930 . S
H518 C507 0.930 . S
H519 C508 0.931 . S
Eu520 C529 2.828 . S
Eu520 O531 2.392 . S
Eu520 O533 2.418 . S
Eu520 O538 2.373 . S
Eu520 O541 2.488 . S
Eu520 O542 2.471 . S
Eu520 O543 2.349 . S
Eu521 O530 2.373 . S
Eu521 O534 2.488 . S
Eu521 O535 2.471 . S
Eu521 O536 2.349 . S
Eu521 O539 2.392 . S
Eu521 O540 2.418 . S
Eu521 C550 2.828 . S
C522 O540 1.244 . S
C522 O543 1.265 . S
C523 C524 1.379 . S
C523 C527 1.373 . S
C523 C529 1.505 . S
C524 C523 1.379 . S
C524 C526 1.369 . S
C524 H552 0.930 . S
C525 C527 1.383 . S
C525 C528 1.382 . S
C525 H553 0.930 . S
C526 C524 1.369 . S
C526 C528 1.392 . S
C526 H554 0.930 . S
C527 C523 1.373 . S
C527 C525 1.383 . S
C527 H555 0.931 . S
C528 C525 1.382 . S
C528 C526 1.392 . S
C529 Eu520 2.828 . S
C529 C523 1.505 . S
C529 O541 1.249 . S
C529 O542 1.244 . S
O530 Eu521 2.373 . S
O530 C532 1.258 . S
O531 Eu520 2.392 . S
O531 C532 1.242 . S
C532 O530 1.258 . S
C532 O531 1.242 . S
O533 Eu520 2.418 . S
O533 C537 1.244 . S
O534 Eu521 2.488 . S
O534 C550 1.249 . S
O535 Eu521 2.471 . S
O535 C550 1.244 . S
O536 Eu521 2.349 . S
O536 C537 1.265 . S
C537 O533 1.244 . S
C537 O536 1.265 . S
O538 Eu520 2.373 . S
O538 C551 1.258 . S
O539 Eu521 2.392 . S
O539 C551 1.242 . S
O540 Eu521 2.418 . S
O540 C522 1.244 . S
O541 Eu520 2.488 . S
O541 C529 1.249 . S
O542 Eu520 2.471 . S
O542 C529 1.244 . S
O543 Eu520 2.349 . S
O543 C522 1.265 . S
C544 C545 1.379 . S
C544 C548 1.373 . S
C544 C550 1.505 . S
C545 C544 1.379 . S
C545 C547 1.369 . S
C545 H556 0.930 . S
C546 C548 1.383 . S
C546 C549 1.382 . S
C546 H557 0.930 . S
C547 C545 1.369 . S
C547 C549 1.392 . S
C547 H558 0.930 . S
C548 C544 1.373 . S
C548 C546 1.383 . S
C548 H559 0.931 . S
C549 C546 1.382 . S
C549 C547 1.392 . S
C550 Eu521 2.828 . S
C550 O534 1.249 . S
C550 O535 1.244 . S
C550 C544 1.505 . S
C551 O538 1.258 . S
C551 O539 1.242 . S
H552 C524 0.930 . S
H553 C525 0.930 . S
H554 C526 0.930 . S
H555 C527 0.931 . S
H556 C545 0.930 . S
H557 C546 0.930 . S
H558 C547 0.930 . S
H559 C548 0.931 . S
Eu560 C569 2.828 . S
Eu560 O571 2.392 . S
Eu560 O573 2.418 . S
Eu560 O578 2.373 . S
Eu560 O581 2.488 . S
Eu560 O582 2.471 . S
Eu560 O583 2.349 . S
Eu561 O570 2.373 . S
Eu561 O574 2.488 . S
Eu561 O575 2.471 . S
Eu561 O576 2.349 . S
Eu561 O579 2.392 . S
Eu561 O580 2.418 . S
Eu561 C590 2.828 . S
C562 O580 1.244 . S
C562 O583 1.265 . S
C563 C564 1.379 . S
C563 C567 1.373 . S
C563 C569 1.505 . S
C564 C563 1.379 . S
C564 C566 1.369 . S
C564 H592 0.930 . S
C565 C567 1.383 . S
C565 C568 1.382 . S
C565 H593 0.930 . S
C566 C564 1.369 . S
C566 C568 1.392 . S
C566 H594 0.930 . S
C567 C563 1.373 . S
C567 C565 1.383 . S
C567 H595 0.931 . S
C568 C565 1.382 . S
C568 C566 1.392 . S
C569 Eu560 2.828 . S
C569 C563 1.505 . S
C569 O581 1.249 . S
C569 O582 1.244 . S
O570 Eu561 2.373 . S
O570 C572 1.258 . S
O571 Eu560 2.392 . S
O571 C572 1.242 . S
C572 O570 1.258 . S
C572 O571 1.242 . S
O573 Eu560 2.418 . S
O573 C577 1.244 . S
O574 Eu561 2.488 . S
O574 C590 1.249 . S
O575 Eu561 2.471 . S
O575 C590 1.244 . S
O576 Eu561 2.349 . S
O576 C577 1.265 . S
C577 O573 1.244 . S
C577 O576 1.265 . S
O578 Eu560 2.373 . S
O578 C591 1.258 . S
O579 Eu561 2.392 . S
O579 C591 1.242 . S
O580 Eu561 2.418 . S
O580 C562 1.244 . S
O581 Eu560 2.488 . S
O581 C569 1.249 . S
O582 Eu560 2.471 . S
O582 C569 1.244 . S
O583 Eu560 2.349 . S
O583 C562 1.265 . S
C584 C585 1.379 . S
C584 C588 1.373 . S
C584 C590 1.505 . S
C585 C584 1.379 . S
C585 C587 1.369 . S
C585 H596 0.930 . S
C586 C588 1.383 . S
C586 C589 1.382 . S
C586 H597 0.930 . S
C587 C585 1.369 . S
C587 C589 1.392 . S
C587 H598 0.930 . S
C588 C584 1.373 . S
C588 C586 1.383 . S
C588 H599 0.931 . S
C589 C586 1.382 . S
C589 C587 1.392 . S
C590 Eu561 2.828 . S
C590 O574 1.249 . S
C590 O575 1.244 . S
C590 C584 1.505 . S
C591 O578 1.258 . S
C591 O579 1.242 . S
H592 C564 0.930 . S
H593 C565 0.930 . S
H594 C566 0.930 . S
H595 C567 0.931 . S
H596 C585 0.930 . S
H597 C586 0.930 . S
H598 C587 0.930 . S
H599 C588 0.931 . S
Eu600 C609 2.828 . S
Eu600 O611 2.368 1_554 S
Eu600 O613 2.418 . S
Eu600 O618 2.373 . S
Eu600 O621 2.488 . S
Eu600 O622 2.471 . S
Eu600 O623 2.349 . S
Eu601 O610 2.373 . S
Eu601 O614 2.488 . S
Eu601 O615 2.471 . S
Eu601 O616 2.349 . S
Eu601 O619 2.392 . S
Eu601 O620 2.418 . S
Eu601 C630 2.828 . S
C602 O620 1.244 . S
C602 O623 1.265 . S
C603 C604 1.379 . S
C603 C607 1.373 . S
C603 C609 1.505 . S
C604 C603 1.379 . S
C604 C606 1.369 . S
C604 H632 0.930 . S
C605 C607 1.383 . S
C605 C608 1.382 . S
C605 H633 0.930 . S
C606 C604 1.369 . S
C606 C608 1.392 . S
C606 H634 0.930 . S
C607 C603 1.373 . S
C607 C605 1.383 . S
C607 H635 0.931 . S
C608 C605 1.382 . S
C608 C606 1.392 . S
C609 Eu600 2.828 . S
C609 C603 1.505 . S
C609 O621 1.249 . S
C609 O622 1.244 . S
O610 Eu601 2.373 . S
O610 C612 1.258 1_554 S
O611 Eu600 2.368 1_556 S
O611 C612 1.252 . S
C612 O610 1.258 1_556 S
C612 O611 1.252 . S
O613 Eu600 2.418 . S
O613 C617 1.244 . S
O614 Eu601 2.488 . S
O614 C630 1.249 . S
O615 Eu601 2.471 . S
O615 C630 1.244 . S
O616 Eu601 2.349 . S
O616 C617 1.265 . S
C617 O613 1.244 . S
C617 O616 1.265 . S
O618 Eu600 2.373 . S
O618 C631 1.258 . S
O619 Eu601 2.392 . S
O619 C631 1.242 . S
O620 Eu601 2.418 . S
O620 C602 1.244 . S
O621 Eu600 2.488 . S
O621 C609 1.249 . S
O622 Eu600 2.471 . S
O622 C609 1.244 . S
O623 Eu600 2.349 . S
O623 C602 1.265 . S
C624 C625 1.379 . S
C624 C628 1.373 . S
C624 C630 1.505 1_556 S
C625 C624 1.379 . S
C625 C627 1.369 . S
C625 H636 0.930 . S
C626 C628 1.383 . S
C626 C629 1.382 . S
C626 H637 0.930 . S
C627 C625 1.369 . S
C627 C629 1.392 . S
C627 H638 0.930 . S
C628 C624 1.373 . S
C628 C626 1.383 . S
C628 H639 0.931 . S
C629 C626 1.382 . S
C629 C627 1.392 . S
C630 Eu601 2.828 . S
C630 O614 1.249 . S
C630 O615 1.244 . S
C630 C624 1.505 1_554 S
C631 O618 1.258 . S
C631 O619 1.242 . S
H632 C604 0.930 . S
H633 C605 0.930 . S
H634 C606 0.930 . S
H635 C607 0.931 . S
H636 C625 0.930 . S
H637 C626 0.930 . S
H638 C627 0.930 . S
H639 C628 0.931 . S
Eu640 C649 2.828 . S
Eu640 O651 2.392 . S
Eu640 O653 2.418 . S
Eu640 O658 2.373 . S
Eu640 O661 2.488 . S
Eu640 O662 2.471 . S
Eu640 O663 2.349 . S
Eu641 O650 2.373 . S
Eu641 O654 2.488 . S
Eu641 O655 2.471 . S
Eu641 O656 2.349 . S
Eu641 O659 2.392 . S
Eu641 O660 2.418 . S
Eu641 C670 2.828 . S
C642 O660 1.244 . S
C642 O663 1.265 . S
C643 C644 1.379 . S
C643 C647 1.373 . S
C643 C649 1.505 . S
C644 C643 1.379 . S
C644 C646 1.369 . S
C644 H672 0.930 . S
C645 C647 1.383 . S
C645 C648 1.382 . S
C645 H673 0.930 . S
C646 C644 1.369 . S
C646 C648 1.392 . S
C646 H674 0.930 . S
C647 C643 1.373 . S
C647 C645 1.383 . S
C647 H675 0.931 . S
C648 C645 1.382 . S
C648 C646 1.392 . S
C649 Eu640 2.828 . S
C649 C643 1.505 . S
C649 O661 1.249 . S
C649 O662 1.244 . S
O650 Eu641 2.373 . S
O650 C652 1.258 . S
O651 Eu640 2.392 . S
O651 C652 1.242 . S
C652 O650 1.258 . S
C652 O651 1.242 . S
O653 Eu640 2.418 . S
O653 C657 1.244 . S
O654 Eu641 2.488 . S
O654 C670 1.249 . S
O655 Eu641 2.471 . S
O655 C670 1.244 . S
O656 Eu641 2.349 . S
O656 C657 1.265 . S
C657 O653 1.244 . S
C657 O656 1.265 . S
O658 Eu640 2.373 . S
O658 C671 1.258 . S
O659 Eu641 2.392 . S
O659 C671 1.242 . S
O660 Eu641 2.418 . S
O660 C642 1.244 . S
O661 Eu640 2.488 . S
O661 C649 1.249 . S
O662 Eu640 2.471 . S
O662 C649 1.244 . S
O663 Eu640 2.349 . S
O663 C642 1.265 . S
C664 C665 1.379 . S
C664 C668 1.373 . S
C664 C670 1.505 . S
C665 C664 1.379 . S
C665 C667 1.369 . S
C665 H676 0.930 . S
C666 C668 1.383 . S
C666 C669 1.382 . S
C666 H677 0.930 . S
C667 C665 1.369 . S
C667 C669 1.392 . S
C667 H678 0.930 . S
C668 C664 1.373 . S
C668 C666 1.383 . S
C668 H679 0.931 . S
C669 C666 1.382 . S
C669 C667 1.392 . S
C670 Eu641 2.828 . S
C670 O654 1.249 . S
C670 O655 1.244 . S
C670 C664 1.505 . S
C671 O658 1.258 . S
C671 O659 1.242 . S
H672 C644 0.930 . S
H673 C645 0.930 . S
H674 C646 0.930 . S
H675 C647 0.931 . S
H676 C665 0.930 . S
H677 C666 0.930 . S
H678 C667 0.930 . S
H679 C668 0.931 . S
Eu680 C689 2.828 . S
Eu680 O691 2.392 . S
Eu680 O693 2.418 . S
Eu680 O698 2.373 . S
Eu680 O701 2.488 . S
Eu680 O702 2.471 . S
Eu680 O703 2.349 . S
Eu681 O690 2.373 . S
Eu681 O694 2.488 . S
Eu681 O695 2.471 . S
Eu681 O696 2.349 . S
Eu681 O699 2.368 1_554 S
Eu681 O700 2.418 . S
Eu681 C710 2.828 . S
C682 O700 1.244 . S
C682 O703 1.265 . S
C683 C684 1.379 . S
C683 C687 1.373 . S
C683 C689 1.505 1_556 S
C684 C683 1.379 . S
C684 C686 1.369 . S
C684 H712 0.930 . S
C685 C687 1.383 . S
C685 C688 1.382 . S
C685 H713 0.930 . S
C686 C684 1.369 . S
C686 C688 1.392 . S
C686 H714 0.930 . S
C687 C683 1.373 . S
C687 C685 1.383 . S
C687 H715 0.931 . S
C688 C685 1.382 . S
C688 C686 1.392 . S
C689 Eu680 2.828 . S
C689 C683 1.505 1_554 S
C689 O701 1.249 . S
C689 O702 1.244 . S
O690 Eu681 2.373 . S
O690 C692 1.258 . S
O691 Eu680 2.392 . S
O691 C692 1.242 . S
C692 O690 1.258 . S
C692 O691 1.242 . S
O693 Eu680 2.418 . S
O693 C697 1.244 . S
O694 Eu681 2.488 . S
O694 C710 1.249 . S
O695 Eu681 2.471 . S
O695 C710 1.244 . S
O696 Eu681 2.349 . S
O696 C697 1.265 . S
C697 O693 1.244 . S
C697 O696 1.265 . S
O698 Eu680 2.373 . S
O698 C711 1.258 1_554 S
O699 Eu681 2.368 1_556 S
O699 C711 1.252 . S
O700 Eu681 2.418 . S
O700 C682 1.244 . S
O701 Eu680 2.488 . S
O701 C689 1.249 . S
O702 Eu680 2.471 . S
O702 C689 1.244 . S
O703 Eu680 2.349 . S
O703 C682 1.265 . S
C704 C705 1.379 . S
C704 C708 1.373 . S
C704 C710 1.505 . S
C705 C704 1.379 . S
C705 C707 1.369 . S
C705 H716 0.930 . S
C706 C708 1.383 . S
C706 C709 1.382 . S
C706 H717 0.930 . S
C707 C705 1.369 . S
C707 C709 1.392 . S
C707 H718 0.930 . S
C708 C704 1.373 . S
C708 C706 1.383 . S
C708 H719 0.931 . S
C709 C706 1.382 . S
C709 C707 1.392 . S
C710 Eu681 2.828 . S
C710 O694 1.249 . S
C710 O695 1.244 . S
C710 C704 1.505 . S
C711 O698 1.258 1_556 S
C711 O699 1.252 . S
H712 C684 0.930 . S
H713 C685 0.930 . S
H714 C686 0.930 . S
H715 C687 0.931 . S
H716 C705 0.930 . S
H717 C706 0.930 . S
H718 C707 0.930 . S
H719 C708 0.931 . S
Eu720 C729 2.828 . S
Eu720 O731 2.392 . S
Eu720 O733 2.418 . S
Eu720 O738 2.373 . S
Eu720 O741 2.488 . S
Eu720 O742 2.471 . S
Eu720 O743 2.349 . S
Eu721 O730 2.373 . S
Eu721 O734 2.488 . S
Eu721 O735 2.471 . S
Eu721 O736 2.349 . S
Eu721 O739 2.392 . S
Eu721 O740 2.418 . S
Eu721 C750 2.828 . S
C722 O740 1.244 . S
C722 O743 1.265 . S
C723 C724 1.379 . S
C723 C727 1.373 . S
C723 C729 1.505 . S
C724 C723 1.379 . S
C724 C726 1.369 . S
C724 H752 0.930 . S
C725 C727 1.383 . S
C725 C728 1.382 . S
C725 H753 0.930 . S
C726 C724 1.369 . S
C726 C728 1.392 . S
C726 H754 0.930 . S
C727 C723 1.373 . S
C727 C725 1.383 . S
C727 H755 0.931 . S
C728 C725 1.382 . S
C728 C726 1.392 . S
C729 Eu720 2.828 . S
C729 C723 1.505 . S
C729 O741 1.249 . S
C729 O742 1.244 . S
O730 Eu721 2.373 . S
O730 C732 1.258 . S
O731 Eu720 2.392 . S
O731 C732 1.242 . S
C732 O730 1.258 . S
C732 O731 1.242 . S
O733 Eu720 2.418 . S
O733 C737 1.244 . S
O734 Eu721 2.488 . S
O734 C750 1.249 . S
O735 Eu721 2.471 . S
O735 C750 1.244 . S
O736 Eu721 2.349 . S
O736 C737 1.265 . S
C737 O733 1.244 . S
C737 O736 1.265 . S
O738 Eu720 2.373 . S
O738 C751 1.258 . S
O739 Eu721 2.392 . S
O739 C751 1.242 . S
O740 Eu721 2.418 . S
O740 C722 1.244 . S
O741 Eu720 2.488 . S
O741 C729 1.249 . S
O742 Eu720 2.471 . S
O742 C729 1.244 . S
O743 Eu720 2.349 . S
O743 C722 1.265 . S
C744 C745 1.379 . S
C744 C748 1.373 . S
C744 C750 1.505 . S
C745 C744 1.379 . S
C745 C747 1.369 . S
C745 H756 0.930 . S
C746 C748 1.383 . S
C746 C749 1.382 . S
C746 H757 0.930 . S
C747 C745 1.369 . S
C747 C749 1.392 . S
C747 H758 0.930 . S
C748 C744 1.373 . S
C748 C746 1.383 . S
C748 H759 0.931 . S
C749 C746 1.382 . S
C749 C747 1.392 . S
C750 Eu721 2.828 . S
C750 O734 1.249 . S
C750 O735 1.244 . S
C750 C744 1.505 . S
C751 O738 1.258 . S
C751 O739 1.242 . S
H752 C724 0.930 . S
H753 C725 0.930 . S
H754 C726 0.930 . S
H755 C727 0.931 . S
H756 C745 0.930 . S
H757 C746 0.930 . S
H758 C747 0.930 . S
H759 C748 0.931 . S
Eu760 C769 2.828 . S
Eu760 O771 2.392 . S
Eu760 O773 2.418 . S
Eu760 O778 2.373 . S
Eu760 O781 2.488 . S
Eu760 O782 2.471 . S
Eu760 O783 2.349 . S
Eu761 O770 2.373 . S
Eu761 O774 2.488 . S
Eu761 O775 2.471 . S
Eu761 O776 2.349 . S
Eu761 O779 2.392 . S
Eu761 O780 2.418 . S
Eu761 C790 2.828 . S
C762 O780 1.244 . S
C762 O783 1.265 . S
C763 C764 1.379 . S
C763 C767 1.373 . S
C763 C769 1.505 . S
C764 C763 1.379 . S
C764 C766 1.369 . S
C764 H792 0.930 . S
C765 C767 1.383 . S
C765 C768 1.382 . S
C765 H793 0.930 . S
C766 C764 1.369 . S
C766 C768 1.392 . S
C766 H794 0.930 . S
C767 C763 1.373 . S
C767 C765 1.383 . S
C767 H795 0.931 . S
C768 C765 1.382 . S
C768 C766 1.392 . S
C769 Eu760 2.828 . S
C769 C763 1.505 . S
C769 O781 1.249 . S
C769 O782 1.244 . S
O770 Eu761 2.373 . S
O770 C772 1.258 . S
O771 Eu760 2.392 . S
O771 C772 1.242 . S
C772 O770 1.258 . S
C772 O771 1.242 . S
O773 Eu760 2.418 . S
O773 C777 1.244 . S
O774 Eu761 2.488 . S
O774 C790 1.249 . S
O775 Eu761 2.471 . S
O775 C790 1.244 . S
O776 Eu761 2.349 . S
O776 C777 1.265 . S
C777 O773 1.244 . S
C777 O776 1.265 . S
O778 Eu760 2.373 . S
O778 C791 1.258 . S
O779 Eu761 2.392 . S
O779 C791 1.242 . S
O780 Eu761 2.418 . S
O780 C762 1.244 . S
O781 Eu760 2.488 . S
O781 C769 1.249 . S
O782 Eu760 2.471 . S
O782 C769 1.244 . S
O783 Eu760 2.349 . S
O783 C762 1.265 . S
C784 C785 1.379 . S
C784 C788 1.373 . S
C784 C790 1.505 . S
C785 C784 1.379 . S
C785 C787 1.369 . S
C785 H796 0.930 . S
C786 C788 1.383 . S
C786 C789 1.382 . S
C786 H797 0.930 . S
C787 C785 1.369 . S
C787 C789 1.392 . S
C787 H798 0.930 . S
C788 C784 1.373 . S
C788 C786 1.383 . S
C788 H799 0.931 . S
C789 C786 1.382 . S
C789 C787 1.392 . S
C790 Eu761 2.828 . S
C790 O774 1.249 . S
C790 O775 1.244 . S
C790 C784 1.505 . S
C791 O778 1.258 . S
C791 O779 1.242 . S
H792 C764 0.930 . S
H793 C765 0.930 . S
H794 C766 0.930 . S
H795 C767 0.931 . S
H796 C785 0.930 . S
H797 C786 0.930 . S
H798 C787 0.930 . S
H799 C788 0.931 . S
Eu800 C809 2.828 . S
Eu800 O811 2.392 . S
Eu800 O813 2.418 . S
Eu800 O818 2.373 . S
Eu800 O821 2.488 . S
Eu800 O822 2.471 . S
Eu800 O823 2.349 . S
Eu801 O810 2.373 . S
Eu801 O814 2.488 . S
Eu801 O815 2.471 . S
Eu801 O816 2.349 . S
Eu801 O819 2.392 . S
Eu801 O820 2.418 . S
Eu801 C830 2.828 . S
C802 O820 1.244 . S
C802 O823 1.265 . S
C803 C804 1.379 . S
C803 C807 1.373 . S
C803 C809 1.505 . S
C804 C803 1.379 . S
C804 C806 1.369 . S
C804 H832 0.930 . S
C805 C807 1.383 . S
C805 C808 1.382 . S
C805 H833 0.930 . S
C806 C804 1.369 . S
C806 C808 1.392 . S
C806 H834 0.930 . S
C807 C803 1.373 . S
C807 C805 1.383 . S
C807 H835 0.931 . S
C808 C805 1.382 . S
C808 C806 1.392 . S
C809 Eu800 2.828 . S
C809 C803 1.505 . S
C809 O821 1.249 . S
C809 O822 1.244 . S
O810 Eu801 2.373 . S
O810 C812 1.258 . S
O811 Eu800 2.392 . S
O811 C812 1.242 . S
C812 O810 1.258 . S
C812 O811 1.242 . S
O813 Eu800 2.418 . S
O813 C817 1.244 . S
O814 Eu801 2.488 . S
O814 C830 1.249 . S
O815 Eu801 2.471 . S
O815 C830 1.244 . S
O816 Eu801 2.349 . S
O816 C817 1.265 . S
C817 O813 1.244 . S
C817 O816 1.265 . S
O818 Eu800 2.373 . S
O818 C831 1.258 . S
O819 Eu801 2.392 . S
O819 C831 1.242 . S
O820 Eu801 2.418 . S
O820 C802 1.244 . S
O821 Eu800 2.488 . S
O821 C809 1.249 . S
O822 Eu800 2.471 . S
O822 C809 1.244 . S
O823 Eu800 2.349 . S
O823 C802 1.265 . S
C824 C825 1.379 . S
C824 C828 1.373 . S
C824 C830 1.505 . S
C825 C824 1.379 . S
C825 C827 1.369 . S
C825 H836 0.930 . S
C826 C828 1.383 . S
C826 C829 1.382 . S
C826 H837 0.930 . S
C827 C825 1.369 . S
C827 C829 1.392 . S
C827 H838 0.930 . S
C828 C824 1.373 . S
C828 C826 1.383 . S
C828 H839 0.931 . S
C829 C826 1.382 . S
C829 C827 1.392 . S
C830 Eu801 2.828 . S
C830 O814 1.249 . S
C830 O815 1.244 . S
C830 C824 1.505 . S
C831 O818 1.258 . S
C831 O819 1.242 . S
H832 C804 0.930 . S
H833 C805 0.930 . S
H834 C806 0.930 . S
H835 C807 0.931 . S
H836 C825 0.930 . S
H837 C826 0.930 . S
H838 C827 0.930 . S
H839 C828 0.931 . S
Eu840 C849 2.828 . S
Eu840 O851 2.392 . S
Eu840 O853 2.418 . S
Eu840 O858 2.373 . S
Eu840 O861 2.488 . S
Eu840 O862 2.471 . S
Eu840 O863 2.349 . S
Eu841 O850 2.373 . S
Eu841 O854 2.488 . S
Eu841 O855 2.471 . S
Eu841 O856 2.349 . S
Eu841 O859 2.368 1_556 S
Eu841 O860 2.418 . S
Eu841 C870 2.828 . S
C842 O860 1.244 . S
C842 O863 1.265 . S
C843 C844 1.379 . S
C843 C847 1.373 . S
C843 C849 1.505 1_554 S
C844 C843 1.379 . S
C844 C846 1.369 . S
C844 H872 0.930 . S
C845 C847 1.383 . S
C845 C848 1.382 . S
C845 H873 0.930 . S
C846 C844 1.369 . S
C846 C848 1.392 . S
C846 H874 0.930 . S
C847 C843 1.373 . S
C847 C845 1.383 . S
C847 H875 0.931 . S
C848 C845 1.382 . S
C848 C846 1.392 . S
C849 Eu840 2.828 . S
C849 C843 1.505 1_556 S
C849 O861 1.249 . S
C849 O862 1.244 . S
O850 Eu841 2.373 . S
O850 C852 1.258 . S
O851 Eu840 2.392 . S
O851 C852 1.242 . S
C852 O850 1.258 . S
C852 O851 1.242 . S
O853 Eu840 2.418 . S
O853 C857 1.244 . S
O854 Eu841 2.488 . S
O854 C870 1.249 . S
O855 Eu841 2.471 . S
O855 C870 1.244 . S
O856 Eu841 2.349 . S
O856 C857 1.265 . S
C857 O853 1.244 . S
C857 O856 1.265 . S
O858 Eu840 2.373 . S
O858 C871 1.258 1_556 S
O859 Eu841 2.368 1_554 S
O859 C871 1.252 . S
O860 Eu841 2.418 . S
O860 C842 1.244 . S
O861 Eu840 2.488 . S
O861 C849 1.249 . S
O862 Eu840 2.471 . S
O862 C849 1.244 . S
O863 Eu840 2.349 . S
O863 C842 1.265 . S
C864 C865 1.379 . S
C864 C868 1.373 . S
C864 C870 1.505 . S
C865 C864 1.379 . S
C865 C867 1.369 . S
C865 H876 0.930 . S
C866 C868 1.383 . S
C866 C869 1.382 . S
C866 H877 0.930 . S
C867 C865 1.369 . S
C867 C869 1.392 . S
C867 H878 0.930 . S
C868 C864 1.373 . S
C868 C866 1.383 . S
C868 H879 0.931 . S
C869 C866 1.382 . S
C869 C867 1.392 . S
C870 Eu841 2.828 . S
C870 O854 1.249 . S
C870 O855 1.244 . S
C870 C864 1.505 . S
C871 O858 1.258 1_554 S
C871 O859 1.252 . S
H872 C844 0.930 . S
H873 C845 0.930 . S
H874 C846 0.930 . S
H875 C847 0.931 . S
H876 C865 0.930 . S
H877 C866 0.930 . S
H878 C867 0.930 . S
H879 C868 0.931 . S
Eu880 C889 2.828 . S
Eu880 O891 2.392 . S
Eu880 O893 2.418 . S
Eu880 O898 2.373 . S
Eu880 O901 2.488 . S
Eu880 O902 2.471 . S
Eu880 O903 2.349 . S
Eu881 O890 2.373 . S
Eu881 O894 2.488 . S
Eu881 O895 2.471 . S
Eu881 O896 2.349 . S
Eu881 O899 2.392 . S
Eu881 O900 2.418 . S
Eu881 C910 2.828 . S
C882 O900 1.244 . S
C882 O903 1.265 . S
C883 C884 1.379 . S
C883 C887 1.373 . S
C883 C889 1.505 . S
C884 C883 1.379 . S
C884 C886 1.369 . S
C884 H912 0.930 . S
C885 C887 1.383 . S
C885 C888 1.382 . S
C885 H913 0.930 . S
C886 C884 1.369 . S
C886 C888 1.392 . S
C886 H914 0.930 . S
C887 C883 1.373 . S
C887 C885 1.383 . S
C887 H915 0.931 . S
C888 C885 1.382 . S
C888 C886 1.392 . S
C889 Eu880 2.828 . S
C889 C883 1.505 . S
C889 O901 1.249 . S
C889 O902 1.244 . S
O890 Eu881 2.373 . S
O890 C892 1.258 . S
O891 Eu880 2.392 . S
O891 C892 1.242 . S
C892 O890 1.258 . S
C892 O891 1.242 . S
O893 Eu880 2.418 . S
O893 C897 1.244 . S
O894 Eu881 2.488 . S
O894 C910 1.249 . S
O895 Eu881 2.471 . S
O895 C910 1.244 . S
O896 Eu881 2.349 . S
O896 C897 1.265 . S
C897 O893 1.244 . S
C897 O896 1.265 . S
O898 Eu880 2.373 . S
O898 C911 1.258 . S
O899 Eu881 2.392 . S
O899 C911 1.242 . S
O900 Eu881 2.418 . S
O900 C882 1.244 . S
O901 Eu880 2.488 . S
O901 C889 1.249 . S
O902 Eu880 2.471 . S
O902 C889 1.244 . S
O903 Eu880 2.349 . S
O903 C882 1.265 . S
C904 C905 1.379 . S
C904 C908 1.373 . S
C904 C910 1.505 . S
C905 C904 1.379 . S
C905 C907 1.369 . S
C905 H916 0.930 . S
C906 C908 1.383 . S
C906 C909 1.382 . S
C906 H917 0.930 . S
C907 C905 1.369 . S
C907 C909 1.392 . S
C907 H918 0.930 . S
C908 C904 1.373 . S
C908 C906 1.383 . S
C908 H919 0.931 . S
C909 C906 1.382 . S
C909 C907 1.392 . S
C910 Eu881 2.828 . S
C910 O894 1.249 . S
C910 O895 1.244 . S
C910 C904 1.505 . S
C911 O898 1.258 . S
C911 O899 1.242 . S
H912 C884 0.930 . S
H913 C885 0.930 . S
H914 C886 0.930 . S
H915 C887 0.931 . S
H916 C905 0.930 . S
H917 C906 0.930 . S
H918 C907 0.930 . S
H919 C908 0.931 . S
Eu920 C929 2.828 . S
Eu920 O931 2.392 . S
Eu920 O933 2.418 . S
Eu920 O938 2.373 . S
Eu920 O941 2.488 . S
Eu920 O942 2.471 . S
Eu920 O943 2.349 . S
Eu921 O930 2.373 . S
Eu921 O934 2.488 . S
Eu921 O935 2.471 . S
Eu921 O936 2.349 . S
Eu921 O939 2.392 . S
Eu921 O940 2.418 . S
Eu921 C950 2.828 . S
C922 O940 1.244 . S
C922 O943 1.265 . S
C923 C924 1.379 . S
C923 C927 1.373 . S
C923 C929 1.505 . S
C924 C923 1.379 . S
C924 C926 1.369 . S
C924 H952 0.930 . S
C925 C927 1.383 . S
C925 C928 1.382 . S
C925 H953 0.930 . S
C926 C924 1.369 . S
C926 C928 1.392 . S
C926 H954 0.930 . S
C927 C923 1.373 . S
C927 C925 1.383 . S
C927 H955 0.931 . S
C928 C925 1.382 . S
C928 C926 1.392 . S
C929 Eu920 2.828 . S
C929 C923 1.505 . S
C929 O941 1.249 . S
C929 O942 1.244 . S
O930 Eu921 2.373 . S
O930 C932 1.258 . S
O931 Eu920 2.392 . S
O931 C932 1.242 . S
C932 O930 1.258 . S
C932 O931 1.242 . S
O933 Eu920 2.418 . S
O933 C937 1.244 . S
O934 Eu921 2.488 . S
O934 C950 1.249 . S
O935 Eu921 2.471 . S
O935 C950 1.244 . S
O936 Eu921 2.349 . S
O936 C937 1.265 . S
C937 O933 1.244 . S
C937 O936 1.265 . S
O938 Eu920 2.373 . S
O938 C951 1.258 . S
O939 Eu921 2.392 . S
O939 C951 1.242 . S
O940 Eu921 2.418 . S
O940 C922 1.244 . S
O941 Eu920 2.488 . S
O941 C929 1.249 . S
O942 Eu920 2.471 . S
O942 C929 1.244 . S
O943 Eu920 2.349 . S
O943 C922 1.265 . S
C944 C945 1.379 . S
C944 C948 1.373 . S
C944 C950 1.505 . S
C945 C944 1.379 . S
C945 C947 1.369 . S
C945 H956 0.930 . S
C946 C948 1.383 . S
C946 C949 1.382 . S
C946 H957 0.930 . S
C947 C945 1.369 . S
C947 C949 1.392 . S
C947 H958 0.930 . S
C948 C944 1.373 . S
C948 C946 1.383 . S
C948 H959 0.931 . S
C949 C946 1.382 . S
C949 C947 1.392 . S
C950 Eu921 2.828 . S
C950 O934 1.249 . S
C950 O935 1.244 . S
C950 C944 1.505 . S
C951 O938 1.258 . S
C951 O939 1.242 . S
H952 C924 0.930 . S
H953 C925 0.930 . S
H954 C926 0.930 . S
H955 C927 0.931 . S
H956 C945 0.930 . S
H957 C946 0.930 . S
H958 C947 0.930 . S
H959 C948 0.931 . S
Eu960 C969 2.828 . S
Eu960 O971 2.392 . S
Eu960 O973 2.418 . S
Eu960 O978 2.373 . S
Eu960 O981 2.488 . S
Eu960 O982 2.471 . S
Eu960 O983 2.349 . S
Eu961 O970 2.373 . S
Eu961 O974 2.488 . S
Eu961 O975 2.471 . S
Eu961 O976 2.349 . S
Eu961 O979 2.392 . S
Eu961 O980 2.418 . S
Eu961 C990 2.828 . S
C962 O980 1.244 . S
C962 O983 1.265 . S
C963 C964 1.379 . S
C963 C967 1.373 . S
C963 C969 1.505 . S
C964 C963 1.379 . S
C964 C966 1.369 . S
C964 H992 0.930 . S
C965 C967 1.383 . S
C965 C968 1.382 . S
C965 H993 0.930 . S
C966 C964 1.369 . S
C966 C968 1.392 . S
C966 H994 0.930 . S
C967 C963 1.373 . S
C967 C965 1.383 . S
C967 H995 0.931 . S
C968 C965 1.382 . S
C968 C966 1.392 . S
C969 Eu960 2.828 . S
C969 C963 1.505 . S
C969 O981 1.249 . S
C969 O982 1.244 . S
O970 Eu961 2.373 . S
O970 C972 1.258 . S
O971 Eu960 2.392 . S
O971 C972 1.242 . S
C972 O970 1.258 . S
C972 O971 1.242 . S
O973 Eu960 2.418 . S
O973 C977 1.244 . S
O974 Eu961 2.488 . S
O974 C990 1.249 . S
O975 Eu961 2.471 . S
O975 C990 1.244 . S
O976 Eu961 2.349 . S
O976 C977 1.265 . S
C977 O973 1.244 . S
C977 O976 1.265 . S
O978 Eu960 2.373 . S
O978 C991 1.258 . S
O979 Eu961 2.392 . S
O979 C991 1.242 . S
O980 Eu961 2.418 . S
O980 C962 1.244 . S
O981 Eu960 2.488 . S
O981 C969 1.249 . S
O982 Eu960 2.471 . S
O982 C969 1.244 . S
O983 Eu960 2.349 . S
O983 C962 1.265 . S
C984 C985 1.379 . S
C984 C988 1.373 . S
C984 C990 1.505 . S
C985 C984 1.379 . S
C985 C987 1.369 . S
C985 H996 0.930 . S
C986 C988 1.383 . S
C986 C989 1.382 . S
C986 H997 0.930 . S
C987 C985 1.369 . S
C987 C989 1.392 . S
C987 H998 0.930 . S
C988 C984 1.373 . S
C988 C986 1.383 . S
C988 H999 0.931 . S
C989 C986 1.382 . S
C989 C987 1.392 . S
C990 Eu961 2.828 . S
C990 O974 1.249 . S
C990 O975 1.244 . S
C990 C984 1.505 . S
C991 O978 1.258 . S
C991 O979 1.242 . S
H992 C964 0.930 . S
H993 C965 0.930 . S
H994 C966 0.930 . S
H995 C967 0.931 . S
H996 C985 0.930 . S
H997 C986 0.930 . S
H998 C987 0.930 . S
H999 C988 0.931 . S
Eu1000 C1009 2.828 . S
Eu1000 O1011 2.368 1_556 S
Eu1000 O1013 2.418 . S
Eu1000 O1018 2.373 . S
Eu1000 O1021 2.488 . S
Eu1000 O1022 2.471 . S
Eu1000 O1023 2.349 . S
Eu1001 O1010 2.373 . S
Eu1001 O1014 2.488 . S
Eu1001 O1015 2.471 . S
Eu1001 O1016 2.349 . S
Eu1001 O1019 2.392 . S
Eu1001 O1020 2.418 . S
Eu1001 C1030 2.828 . S
C1002 O1020 1.244 . S
C1002 O1023 1.265 . S
C1003 C1004 1.379 . S
C1003 C1007 1.373 . S
C1003 C1009 1.505 . S
C1004 C1003 1.379 . S
C1004 C1006 1.369 . S
C1004 H1032 0.930 . S
C1005 C1007 1.383 . S
C1005 C1008 1.382 . S
C1005 H1033 0.930 . S
C1006 C1004 1.369 . S
C1006 C1008 1.392 . S
C1006 H1034 0.930 . S
C1007 C1003 1.373 . S
C1007 C1005 1.383 . S
C1007 H1035 0.931 . S
C1008 C1005 1.382 . S
C1008 C1006 1.392 . S
C1009 Eu1000 2.828 . S
C1009 C1003 1.505 . S
C1009 O1021 1.249 . S
C1009 O1022 1.244 . S
O1010 Eu1001 2.373 . S
O1010 C1012 1.258 1_556 S
O1011 Eu1000 2.368 1_554 S
O1011 C1012 1.252 . S
C1012 O1010 1.258 1_554 S
C1012 O1011 1.252 . S
O1013 Eu1000 2.418 . S
O1013 C1017 1.244 . S
O1014 Eu1001 2.488 . S
O1014 C1030 1.249 . S
O1015 Eu1001 2.471 . S
O1015 C1030 1.244 . S
O1016 Eu1001 2.349 . S
O1016 C1017 1.265 . S
C1017 O1013 1.244 . S
C1017 O1016 1.265 . S
O1018 Eu1000 2.373 . S
O1018 C1031 1.258 . S
O1019 Eu1001 2.392 . S
O1019 C1031 1.242 . S
O1020 Eu1001 2.418 . S
O1020 C1002 1.244 . S
O1021 Eu1000 2.488 . S
O1021 C1009 1.249 . S
O1022 Eu1000 2.471 . S
O1022 C1009 1.244 . S
O1023 Eu1000 2.349 . S
O1023 C1002 1.265 . S
C1024 C1025 1.379 . S
C1024 C1028 1.373 . S
C1024 C1030 1.505 1_554 S
C1025 C1024 1.379 . S
C1025 C1027 1.369 . S
C1025 H1036 0.930 . S
C1026 C1028 1.383 . S
C1026 C1029 1.382 . S
C1026 H1037 0.930 . S
C1027 C1025 1.369 . S
C1027 C1029 1.392 . S
C1027 H1038 0.930 . S
C1028 C1024 1.373 . S
C1028 C1026 1.383 . S
C1028 H1039 0.931 . S
C1029 C1026 1.382 . S
C1029 C1027 1.392 . S
C1030 Eu1001 2.828 . S
C1030 O1014 1.249 . S
C1030 O1015 1.244 . S
C1030 C1024 1.505 1_556 S
C1031 O1018 1.258 . S
C1031 O1019 1.242 . S
H1032 C1004 0.930 . S
H1033 C1005 0.930 . S
H1034 C1006 0.930 . S
H1035 C1007 0.931 . S
H1036 C1025 0.930 . S
H1037 C1026 0.930 . S
H1038 C1027 0.930 . S
H1039 C1028 0.931 . S
Eu1040 C1049 2.828 . S
Eu1040 O1051 2.392 . S
Eu1040 O1053 2.418 . S
Eu1040 O1058 2.373 . S
Eu1040 O1061 2.488 . S
Eu1040 O1062 2.471 . S
Eu1040 O1063 2.349 . S
Eu1041 O1050 2.373 . S
Eu1041 O1054 2.488 . S
Eu1041 O1055 2.471 . S
Eu1041 O1056 2.349 . S
Eu1041 O1059 2.392 . S
Eu1041 O1060 2.418 . S
Eu1041 C1070 2.828 . S
C1042 O1060 1.244 . S
C1042 O1063 1.265 . S
C1043 C1044 1.379 . S
C1043 C1047 1.373 . S
C1043 C1049 1.505 . S
C1044 C1043 1.379 . S
C1044 C1046 1.369 . S
C1044 H1072 0.930 . S
C1045 C1047 1.383 . S
C1045 C1048 1.382 . S
C1045 H1073 0.930 . S
C1046 C1044 1.369 . S
C1046 C1048 1.392 . S
C1046 H1074 0.930 . S
C1047 C1043 1.373 . S
C1047 C1045 1.383 . S
C1047 H1075 0.931 . S
C1048 C1045 1.382 . S
C1048 C1046 1.392 . S
C1049 Eu1040 2.828 . S
C1049 C1043 1.505 . S
C1049 O1061 1.249 . S
C1049 O1062 1.244 . S
O1050 Eu1041 2.373 . S
O1050 C1052 1.258 . S
O1051 Eu1040 2.392 . S
O1051 C1052 1.242 . S
C1052 O1050 1.258 . S
C1052 O1051 1.242 . S
O1053 Eu1040 2.418 . S
O1053 C1057 1.244 . S
O1054 Eu1041 2.488 . S
O1054 C1070 1.249 . S
O1055 Eu1041 2.471 . S
O1055 C1070 1.244 . S
O1056 Eu1041 2.349 . S
O1056 C1057 1.265 . S
C1057 O1053 1.244 . S
C1057 O1056 1.265 . S
O1058 Eu1040 2.373 . S
O1058 C1071 1.258 . S
O1059 Eu1041 2.392 . S
O1059 C1071 1.242 . S
O1060 Eu1041 2.418 . S
O1060 C1042 1.244 . S
O1061 Eu1040 2.488 . S
O1061 C1049 1.249 . S
O1062 Eu1040 2.471 . S
O1062 C1049 1.244 . S
O1063 Eu1040 2.349 . S
O1063 C1042 1.265 . S
C1064 C1065 1.379 . S
C1064 C1068 1.373 . S
C1064 C1070 1.505 . S
C1065 C1064 1.379 . S
C1065 C1067 1.369 . S
C1065 H1076 0.930 . S
C1066 C1068 1.383 . S
C1066 C1069 1.382 . S
C1066 H1077 0.930 . S
C1067 C1065 1.369 . S
C1067 C1069 1.392 . S
C1067 H1078 0.930 . S
C1068 C1064 1.373 . S
C1068 C1066 1.383 . S
C1068 H1079 0.931 . S
C1069 C1066 1.382 . S
C1069 C1067 1.392 . S
C1070 Eu1041 2.828 . S
C1070 O1054 1.249 . S
C1070 O1055 1.244 . S
C1070 C1064 1.505 . S
C1071 O1058 1.258 . S
C1071 O1059 1.242 . S
H1072 C1044 0.930 . S
H1073 C1045 0.930 . S
H1074 C1046 0.930 . S
H1075 C1047 0.931 . S
H1076 C1065 0.930 . S
H1077 C1066 0.930 . S
H1078 C1067 0.930 . S
H1079 C1068 0.931 . S
Eu1080 C1089 2.828 . S
Eu1080 O1091 2.392 . S
Eu1080 O1093 2.418 . S
Eu1080 O1098 2.373 . S
Eu1080 O1101 2.488 . S
Eu1080 O1102 2.471 . S
Eu1080 O1103 2.349 . S
Eu1081 O1090 2.373 . S
Eu1081 O1094 2.488 . S
Eu1081 O1095 2.471 . S
Eu1081 O1096 2.349 . S
Eu1081 O1099 2.392 . S
Eu1081 O1100 2.418 . S
Eu1081 C1110 2.828 . S
C1082 O1100 1.244 . S
C1082 O1103 1.265 . S
C1083 C1084 1.379 . S
C1083 C1087 1.373 . S
C1083 C1089 1.505 . S
C1084 C1083 1.379 . S
C1084 C1086 1.369 . S
C1084 H1112 0.930 . S
C1085 C1087 1.383 . S
C1085 C1088 1.382 . S
C1085 H1113 0.930 . S
C1086 C1084 1.369 . S
C1086 C1088 1.392 . S
C1086 H1114 0.930 . S
C1087 C1083 1.373 . S
C1087 C1085 1.383 . S
C1087 H1115 0.931 . S
C1088 C1085 1.382 . S
C1088 C1086 1.392 . S
C1089 Eu1080 2.828 . S
C1089 C1083 1.505 . S
C1089 O1101 1.249 . S
C1089 O1102 1.244 . S
O1090 Eu1081 2.373 . S
O1090 C1092 1.258 . S
O1091 Eu1080 2.392 . S
O1091 C1092 1.242 . S
C1092 O1090 1.258 . S
C1092 O1091 1.242 . S
O1093 Eu1080 2.418 . S
O1093 C1097 1.244 . S
O1094 Eu1081 2.488 . S
O1094 C1110 1.249 . S
O1095 Eu1081 2.471 . S
O1095 C1110 1.244 . S
O1096 Eu1081 2.349 . S
O1096 C1097 1.265 . S
C1097 O1093 1.244 . S
C1097 O1096 1.265 . S
O1098 Eu1080 2.373 . S
O1098 C1111 1.258 . S
O1099 Eu1081 2.392 . S
O1099 C1111 1.242 . S
O1100 Eu1081 2.418 . S
O1100 C1082 1.244 . S
O1101 Eu1080 2.488 . S
O1101 C1089 1.249 . S
O1102 Eu1080 2.471 . S
O1102 C1089 1.244 . S
O1103 Eu1080 2.349 . S
O1103 C1082 1.265 . S
C1104 C1105 1.379 . S
C1104 C1108 1.373 . S
C1104 C1110 1.505 . S
C1105 C1104 1.379 . S
C1105 C1107 1.369 . S
C1105 H1116 0.930 . S
C1106 C1108 1.383 . S
C1106 C1109 1.382 . S
C1106 H1117 0.930 . S
C1107 C1105 1.369 . S
C1107 C1109 1.392 . S
C1107 H1118 0.930 . S
C1108 C1104 1.373 . S
C1108 C1106 1.383 . S
C1108 H1119 0.931 . S
C1109 C1106 1.382 . S
C1109 C1107 1.392 . S
C1110 Eu1081 2.828 . S
C1110 O1094 1.249 . S
C1110 O1095 1.244 . S
C1110 C1104 1.505 . S
C1111 O1098 1.258 . S
C1111 O1099 1.242 . S
H1112 C1084 0.930 . S
H1113 C1085 0.930 . S
H1114 C1086 0.930 . S
H1115 C1087 0.931 . S
H1116 C1105 0.930 . S
H1117 C1106 0.930 . S
H1118 C1107 0.930 . S
H1119 C1108 0.931 . S
Eu1120 C1129 2.828 . S
Eu1120 O1131 2.392 . S
Eu1120 O1133 2.418 . S
Eu1120 O1138 2.373 . S
Eu1120 O1141 2.488 . S
Eu1120 O1142 2.471 . S
Eu1120 O1143 2.349 . S
Eu1121 O1130 2.373 . S
Eu1121 O1134 2.488 . S
Eu1121 O1135 2.471 . S
Eu1121 O1136 2.349 . S
Eu1121 O1139 2.392 . S
Eu1121 O1140 2.418 . S
Eu1121 C1150 2.828 . S
C1122 O1140 1.244 . S
C1122 O1143 1.265 . S
C1123 C1124 1.379 . S
C1123 C1127 1.373 . S
C1123 C1129 1.505 . S
C1124 C1123 1.379 . S
C1124 C1126 1.369 . S
C1124 H1152 0.930 . S
C1125 C1127 1.383 . S
C1125 C1128 1.382 . S
C1125 H1153 0.930 . S
C1126 C1124 1.369 . S
C1126 C1128 1.392 . S
C1126 H1154 0.930 . S
C1127 C1123 1.373 . S
C1127 C1125 1.383 . S
C1127 H1155 0.931 . S
C1128 C1125 1.382 . S
C1128 C1126 1.392 . S
C1129 Eu1120 2.828 . S
C1129 C1123 1.505 . S
C1129 O1141 1.249 . S
C1129 O1142 1.244 . S
O1130 Eu1121 2.373 . S
O1130 C1132 1.258 . S
O1131 Eu1120 2.392 . S
O1131 C1132 1.242 . S
C1132 O1130 1.258 . S
C1132 O1131 1.242 . S
O1133 Eu1120 2.418 . S
O1133 C1137 1.244 . S
O1134 Eu1121 2.488 . S
O1134 C1150 1.249 . S
O1135 Eu1121 2.471 . S
O1135 C1150 1.244 . S
O1136 Eu1121 2.349 . S
O1136 C1137 1.265 . S
C1137 O1133 1.244 . S
C1137 O1136 1.265 . S
O1138 Eu1120 2.373 . S
O1138 C1151 1.258 . S
O1139 Eu1121 2.392 . S
O1139 C1151 1.242 . S
O1140 Eu1121 2.418 . S
O1140 C1122 1.244 . S
O1141 Eu1120 2.488 . S
O1141 C1129 1.249 . S
O1142 Eu1120 2.471 . S
O1142 C1129 1.244 . S
O1143 Eu1120 2.349 . S
O1143 C1122 1.265 . S
C1144 C1145 1.379 . S
C1144 C1148 1.373 . S
C1144 C1150 1.505 . S
C1145 C1144 1.379 . S
C1145 C1147 1.369 . S
C1145 H1156 0.930 . S
C1146 C1148 1.383 . S
C1146 C1149 1.382 . S
C1146 H1157 0.930 . S
C1147 C1145 1.369 . S
C1147 C1149 1.392 . S
C1147 H1158 0.930 . S
C1148 C1144 1.373 . S
C1148 C1146 1.383 . S
C1148 H1159 0.931 . S
C1149 C1146 1.382 . S
C1149 C1147 1.392 . S
C1150 Eu1121 2.828 . S
C1150 O1134 1.249 . S
C1150 O1135 1.244 . S
C1150 C1144 1.505 . S
C1151 O1138 1.258 . S
C1151 O1139 1.242 . S
H1152 C1124 0.930 . S
H1153 C1125 0.930 . S
H1154 C1126 0.930 . S
H1155 C1127 0.931 . S
H1156 C1145 0.930 . S
H1157 C1146 0.930 . S
H1158 C1147 0.930 . S
H1159 C1148 0.931 . S
Eu1160 C1169 2.828 . S
Eu1160 O1171 2.368 1_554 S
Eu1160 O1173 2.418 . S
Eu1160 O1178 2.373 . S
Eu1160 O1181 2.488 . S
Eu1160 O1182 2.471 . S
Eu1160 O1183 2.349 . S
Eu1161 O1170 2.373 . S
Eu1161 O1174 2.488 . S
Eu1161 O1175 2.471 . S
Eu1161 O1176 2.349 . S
Eu1161 O1179 2.392 . S
Eu1161 O1180 2.418 . S
Eu1161 C1190 2.828 . S
C1162 O1180 1.244 . S
C1162 O1183 1.265 . S
C1163 C1164 1.379 . S
C1163 C1167 1.373 . S
C1163 C1169 1.505 . S
C1164 C1163 1.379 . S
C1164 C1166 1.369 . S
C1164 H1192 0.930 . S
C1165 C1167 1.383 . S
C1165 C1168 1.382 . S
C1165 H1193 0.930 . S
C1166 C1164 1.369 . S
C1166 C1168 1.392 . S
C1166 H1194 0.930 . S
C1167 C1163 1.373 . S
C1167 C1165 1.383 . S
C1167 H1195 0.931 . S
C1168 C1165 1.382 . S
C1168 C1166 1.392 . S
C1169 Eu1160 2.828 . S
C1169 C1163 1.505 . S
C1169 O1181 1.249 . S
C1169 O1182 1.244 . S
O1170 Eu1161 2.373 . S
O1170 C1172 1.258 1_554 S
O1171 Eu1160 2.368 1_556 S
O1171 C1172 1.252 . S
C1172 O1170 1.258 1_556 S
C1172 O1171 1.252 . S
O1173 Eu1160 2.418 . S
O1173 C1177 1.244 . S
O1174 Eu1161 2.488 . S
O1174 C1190 1.249 . S
O1175 Eu1161 2.471 . S
O1175 C1190 1.244 . S
O1176 Eu1161 2.349 . S
O1176 C1177 1.265 . S
C1177 O1173 1.244 . S
C1177 O1176 1.265 . S
O1178 Eu1160 2.373 . S
O1178 C1191 1.258 . S
O1179 Eu1161 2.392 . S
O1179 C1191 1.242 . S
O1180 Eu1161 2.418 . S
O1180 C1162 1.244 . S
O1181 Eu1160 2.488 . S
O1181 C1169 1.249 . S
O1182 Eu1160 2.471 . S
O1182 C1169 1.244 . S
O1183 Eu1160 2.349 . S
O1183 C1162 1.265 . S
C1184 C1185 1.379 . S
C1184 C1188 1.373 . S
C1184 C1190 1.505 1_556 S
C1185 C1184 1.379 . S
C1185 C1187 1.369 . S
C1185 H1196 0.930 . S
C1186 C1188 1.383 . S
C1186 C1189 1.382 . S
C1186 H1197 0.930 . S
C1187 C1185 1.369 . S
C1187 C1189 1.392 . S
C1187 H1198 0.930 . S
C1188 C1184 1.373 . S
C1188 C1186 1.383 . S
C1188 H1199 0.931 . S
C1189 C1186 1.382 . S
C1189 C1187 1.392 . S
C1190 Eu1161 2.828 . S
C1190 O1174 1.249 . S
C1190 O1175 1.244 . S
C1190 C1184 1.505 1_554 S
C1191 O1178 1.258 . S
C1191 O1179 1.242 . S
H1192 C1164 0.930 . S
H1193 C1165 0.930 . S
H1194 C1166 0.930 . S
H1195 C1167 0.931 . S
H1196 C1185 0.930 . S
H1197 C1186 0.930 . S
H1198 C1187 0.930 . S
H1199 C1188 0.931 . S
Eu1200 C1209 2.828 . S
Eu1200 O1211 2.392 . S
Eu1200 O1213 2.418 . S
Eu1200 O1218 2.373 . S
Eu1200 O1221 2.488 . S
Eu1200 O1222 2.471 . S
Eu1200 O1223 2.349 . S
Eu1201 O1210 2.373 . S
Eu1201 O1214 2.488 . S
Eu1201 O1215 2.471 . S
Eu1201 O1216 2.349 . S
Eu1201 O1219 2.392 . S
Eu1201 O1220 2.418 . S
Eu1201 C1230 2.828 . S
C1202 O1220 1.244 . S
C1202 O1223 1.265 . S
C1203 C1204 1.379 . S
C1203 C1207 1.373 . S
C1203 C1209 1.505 . S
C1204 C1203 1.379 . S
C1204 C1206 1.369 . S
C1204 H1232 0.930 . S
C1205 C1207 1.383 . S
C1205 C1208 1.382 . S
C1205 H1233 0.930 . S
C1206 C1204 1.369 . S
C1206 C1208 1.392 . S
C1206 H1234 0.930 . S
C1207 C1203 1.373 . S
C1207 C1205 1.383 . S
C1207 H1235 0.931 . S
C1208 C1205 1.382 . S
C1208 C1206 1.392 . S
C1209 Eu1200 2.828 . S
C1209 C1203 1.505 . S
C1209 O1221 1.249 . S
C1209 O1222 1.244 . S
O1210 Eu1201 2.373 . S
O1210 C1212 1.258 . S
O1211 Eu1200 2.392 . S
O1211 C1212 1.242 . S
C1212 O1210 1.258 . S
C1212 O1211 1.242 . S
O1213 Eu1200 2.418 . S
O1213 C1217 1.244 . S
O1214 Eu1201 2.488 . S
O1214 C1230 1.249 . S
O1215 Eu1201 2.471 . S
O1215 C1230 1.244 . S
O1216 Eu1201 2.349 . S
O1216 C1217 1.265 . S
C1217 O1213 1.244 . S
C1217 O1216 1.265 . S
O1218 Eu1200 2.373 . S
O1218 C1231 1.258 . S
O1219 Eu1201 2.392 . S
O1219 C1231 1.242 . S
O1220 Eu1201 2.418 . S
O1220 C1202 1.244 . S
O1221 Eu1200 2.488 . S
O1221 C1209 1.249 . S
O1222 Eu1200 2.471 . S
O1222 C1209 1.244 . S
O1223 Eu1200 2.349 . S
O1223 C1202 1.265 . S
C1224 C1225 1.379 . S
C1224 C1228 1.373 . S
C1224 C1230 1.505 . S
C1225 C1224 1.379 . S
C1225 C1227 1.369 . S
C1225 H1236 0.930 . S
C1226 C1228 1.383 . S
C1226 C1229 1.382 . S
C1226 H1237 0.930 . S
C1227 C1225 1.369 . S
C1227 C1229 1.392 . S
C1227 H1238 0.930 . S
C1228 C1224 1.373 . S
C1228 C1226 1.383 . S
C1228 H1239 0.931 . S
C1229 C1226 1.382 . S
C1229 C1227 1.392 . S
C1230 Eu1201 2.828 . S
C1230 O1214 1.249 . S
C1230 O1215 1.244 . S
C1230 C1224 1.505 . S
C1231 O1218 1.258 . S
C1231 O1219 1.242 . S
H1232 C1204 0.930 . S
H1233 C1205 0.930 . S
H1234 C1206 0.930 . S
H1235 C1207 0.931 . S
H1236 C1225 0.930 . S
H1237 C1226 0.930 . S
H1238 C1227 0.930 . S
H1239 C1228 0.931 . S
Eu1240 C1249 2.828 . S
Eu1240 O1251 2.392 . S
Eu1240 O1253 2.418 . S
Eu1240 O1258 2.373 . S
Eu1240 O1261 2.488 . S
Eu1240 O1262 2.471 . S
Eu1240 O1263 2.349 . S
Eu1241 O1250 2.373 . S
Eu1241 O1254 2.488 . S
Eu1241 O1255 2.471 . S
Eu1241 O1256 2.349 . S
Eu1241 O1259 2.392 . S
Eu1241 O1260 2.418 . S
Eu1241 C1270 2.828 . S
C1242 O1260 1.244 . S
C1242 O1263 1.265 . S
C1243 C1244 1.379 . S
C1243 C1247 1.373 . S
C1243 C1249 1.505 . S
C1244 C1243 1.379 . S
C1244 C1246 1.369 . S
C1244 H1272 0.930 . S
C1245 C1247 1.383 . S
C1245 C1248 1.382 . S
C1245 H1273 0.930 . S
C1246 C1244 1.369 . S
C1246 C1248 1.392 . S
C1246 H1274 0.930 . S
C1247 C1243 1.373 . S
C1247 C1245 1.383 . S
C1247 H1275 0.931 . S
C1248 C1245 1.382 . S
C1248 C1246 1.392 . S
C1249 Eu1240 2.828 . S
C1249 C1243 1.505 . S
C1249 O1261 1.249 . S
C1249 O1262 1.244 . S
O1250 Eu1241 2.373 . S
O1250 C1252 1.258 . S
O1251 Eu1240 2.392 . S
O1251 C1252 1.242 . S
C1252 O1250 1.258 . S
C1252 O1251 1.242 . S
O1253 Eu1240 2.418 . S
O1253 C1257 1.244 . S
O1254 Eu1241 2.488 . S
O1254 C1270 1.249 . S
O1255 Eu1241 2.471 . S
O1255 C1270 1.244 . S
O1256 Eu1241 2.349 . S
O1256 C1257 1.265 . S
C1257 O1253 1.244 . S
C1257 O1256 1.265 . S
O1258 Eu1240 2.373 . S
O1258 C1271 1.258 . S
O1259 Eu1241 2.392 . S
O1259 C1271 1.242 . S
O1260 Eu1241 2.418 . S
O1260 C1242 1.244 . S
O1261 Eu1240 2.488 . S
O1261 C1249 1.249 . S
O1262 Eu1240 2.471 . S
O1262 C1249 1.244 . S
O1263 Eu1240 2.349 . S
O1263 C1242 1.265 . S
C1264 C1265 1.379 . S
C1264 C1268 1.373 . S
C1264 C1270 1.505 . S
C1265 C1264 1.379 . S
C1265 C1267 1.369 . S
C1265 H1276 0.930 . S
C1266 C1268 1.383 . S
C1266 C1269 1.382 . S
C1266 H1277 0.930 . S
C1267 C1265 1.369 . S
C1267 C1269 1.392 . S
C1267 H1278 0.930 . S
C1268 C1264 1.373 . S
C1268 C1266 1.383 . S
C1268 H1279 0.931 . S
C1269 C1266 1.382 . S
C1269 C1267 1.392 . S
C1270 Eu1241 2.828 . S
C1270 O1254 1.249 . S
C1270 O1255 1.244 . S
C1270 C1264 1.505 . S
C1271 O1258 1.258 . S
C1271 O1259 1.242 . S
H1272 C1244 0.930 . S
H1273 C1245 0.930 . S
H1274 C1246 0.930 . S
H1275 C1247 0.931 . S
H1276 C1265 0.930 . S
H1277 C1266 0.930 . S
H1278 C1267 0.930 . S
H1279 C1268 0.931 . S
H1280 C1298 0.951 . S
H1281 C1300 0.951 . S
H1282 C1302 0.950 . S
H1283 C1303 0.950 . S
H1284 C1305 0.950 . S
H1285 C1308 0.950 . S
H1286 C1309 0.950 . S
H1287 C1311 0.950 . S
H1288 C1312 0.950 . S
H1289 C1313 0.951 . S
H1290 C1315 0.951 . S
H1291 C1317 0.950 . S
H1292 C1318 0.950 . S
H1293 C1320 0.950 . S
H1294 C1323 0.950 . S
H1295 C1324 0.950 . S
H1296 C1326 0.950 . S
H1297 C1327 0.950 . S
C1298 H1280 0.951 . S
C1298 C1299 1.366 . S
C1298 C1300 1.388 . S
C1299 C1298 1.366 . S
C1299 C1303 1.385 . S
C1300 H1281 0.951 . S
C1300 C1298 1.388 . S
C1300 C1301 1.366 . S
C1301 C1300 1.366 . S
C1301 C1302 1.414 . S
C1301 C1304 1.499 . S
C1302 H1282 0.950 . S
C1302 C1301 1.414 . S
C1302 C1303 1.374 . S
C1303 H1283 0.950 . S
C1303 C1299 1.385 . S
C1303 C1302 1.374 . S
C1304 C1301 1.499 . S
C1304 C1305 1.373 . S
C1304 C1306 1.389 . S
C1305 H1284 0.950 . S
C1305 C1304 1.373 . S
C1305 C1321 1.377 . S
C1306 C1304 1.389 . S
C1306 C1307 1.524 . S
C1306 C1320 1.377 . S
C1307 C1306 1.524 . S
C1307 C1308 1.397 . S
C1307 C1312 1.363 . S
C1308 H1285 0.950 . S
C1308 C1307 1.397 . S
C1308 C1309 1.334 . S
C1309 H1286 0.950 . S
C1309 C1308 1.334 . S
C1309 C1310 1.287 . S
C1310 C1309 1.287 . S
C1310 C1311 1.524 . S
C1310 H1329 0.913 . S
C1311 H1287 0.950 . S
C1311 C1310 1.524 . S
C1311 C1312 1.415 . S
C1312 H1288 0.950 . S
C1312 C1307 1.363 . S
C1312 C1311 1.415 . S
C1313 H1289 0.951 . S
C1313 C1314 1.366 . S
C1313 C1315 1.388 . S
C1314 C1313 1.366 . S
C1314 C1318 1.385 . S
C1315 H1290 0.951 . S
C1315 C1313 1.388 . S
C1315 C1316 1.366 . S
C1316 C1315 1.366 . S
C1316 C1317 1.414 . S
C1316 C1319 1.499 . S
C1317 H1291 0.950 . S
C1317 C1316 1.414 . S
C1317 C1318 1.374 . S
C1318 H1292 0.950 . S
C1318 C1314 1.385 . S
C1318 C1317 1.374 . S
C1319 C1316 1.499 . S
C1319 C1320 1.373 . S
C1319 C1321 1.389 . S
C1320 H1293 0.950 . S
C1320 C1306 1.377 . S
C1320 C1319 1.373 . S
C1321 C1305 1.377 . S
C1321 C1319 1.389 . S
C1321 C1322 1.524 . S
C1322 C1321 1.524 . S
C1322 C1323 1.397 . S
C1322 C1327 1.363 . S
C1323 H1294 0.950 . S
C1323 C1322 1.397 . S
C1323 C1324 1.334 . S
C1324 H1295 0.950 . S
C1324 C1323 1.334 . S
C1324 C1325 1.287 . S
C1325 C1324 1.287 . S
C1325 C1326 1.524 . S
C1325 H1328 0.999 . S
C1326 H1296 0.950 . S
C1326 C1325 1.524 . S
C1326 C1327 1.415 . S
C1327 H1297 0.950 . S
C1327 C1322 1.363 . S
C1327 C1326 1.415 . S
H1328 C1325 0.999 . S
H1329 C1310 0.913 . S
H1330 C1348 0.951 . S
H1331 C1350 0.951 . S
H1332 C1352 0.950 . S
H1333 C1353 0.950 . S
H1334 C1355 0.950 . S
H1335 C1358 0.950 . S
H1336 C1359 0.950 . S
H1337 C1361 0.950 . S
H1338 C1362 0.950 . S
H1339 C1363 0.951 . S
H1340 C1365 0.951 . S
H1341 C1367 0.950 . S
H1342 C1368 0.950 . S
H1343 C1370 0.950 . S
H1344 C1373 0.950 1_565 S
H1345 C1374 0.950 . S
H1346 C1376 0.950 . S
H1347 C1377 0.950 . S
C1348 H1330 0.951 . S
C1348 C1349 1.366 . S
C1348 C1350 1.388 . S
C1349 C1348 1.366 . S
C1349 C1353 1.385 . S
C1350 H1331 0.951 . S
C1350 C1348 1.388 . S
C1350 C1351 1.366 . S
C1351 C1350 1.366 . S
C1351 C1352 1.414 . S
C1351 C1354 1.499 . S
C1352 H1332 0.950 . S
C1352 C1351 1.414 . S
C1352 C1353 1.374 . S
C1353 H1333 0.950 . S
C1353 C1349 1.385 . S
C1353 C1352 1.374 . S
C1354 C1351 1.499 . S
C1354 C1355 1.373 . S
C1354 C1356 1.389 . S
C1355 H1334 0.950 . S
C1355 C1354 1.373 . S
C1355 C1371 1.377 . S
C1356 C1354 1.389 . S
C1356 C1357 1.524 . S
C1356 C1370 1.377 . S
C1357 C1356 1.524 . S
C1357 C1358 1.397 . S
C1357 C1362 1.363 . S
C1358 H1335 0.950 . S
C1358 C1357 1.397 . S
C1358 C1359 1.334 . S
C1359 H1336 0.950 . S
C1359 C1358 1.334 . S
C1359 C1360 1.287 . S
C1360 C1359 1.287 . S
C1360 C1361 1.524 . S
C1360 H1379 0.913 . S
C1361 H1337 0.950 . S
C1361 C1360 1.524 . S
C1361 C1362 1.415 . S
C1362 H1338 0.950 . S
C1362 C1357 1.363 . S
C1362 C1361 1.415 . S
C1363 H1339 0.951 . S
C1363 C1364 1.366 . S
C1363 C1365 1.388 1_565 S
C1364 C1363 1.366 . S
C1364 C1368 1.385 . S
C1365 H1340 0.951 . S
C1365 C1363 1.388 1_545 S
C1365 C1366 1.366 . S
C1366 C1365 1.366 . S
C1366 C1367 1.414 1_545 S
C1366 C1369 1.499 . S
C1367 H1341 0.950 . S
C1367 C1366 1.414 1_565 S
C1367 C1368 1.374 . S
C1368 H1342 0.950 . S
C1368 C1364 1.385 . S
C1368 C1367 1.374 . S
C1369 C1366 1.499 . S
C1369 C1370 1.373 . S
C1369 C1371 1.389 . S
C1370 H1343 0.950 . S
C1370 C1356 1.377 . S
C1370 C1369 1.373 . S
C1371 C1355 1.377 . S
C1371 C1369 1.389 . S
C1371 C1372 1.524 . S
C1372 C1371 1.524 . S
C1372 C1373 1.397 . S
C1372 C1377 1.363 . S
C1373 H1344 0.950 1_545 S
C1373 C1372 1.397 . S
C1373 C1374 1.334 1_545 S
C1374 H1345 0.950 . S
C1374 C1373 1.334 1_565 S
C1374 C1375 1.287 1_565 S
C1375 C1374 1.287 1_545 S
C1375 C1376 1.524 . S
C1375 H1378 0.999 . S
C1376 H1346 0.950 . S
C1376 C1375 1.524 . S
C1376 C1377 1.415 . S
C1377 H1347 0.950 . S
C1377 C1372 1.363 . S
C1377 C1376 1.415 . S
H1378 C1375 0.999 . S
H1379 C1360 0.913 . S
H1380 C1398 0.951 . S
H1381 C1400 0.951 . S
H1382 C1402 0.950 . S
H1383 C1403 0.950 . S
H1384 C1405 0.950 . S
H1385 C1408 0.950 . S
H1386 C1409 0.950 . S
H1387 C1411 0.950 . S
H1388 C1412 0.950 . S
H1389 C1413 0.951 . S
H1390 C1415 0.951 . S
H1391 C1417 0.950 . S
H1392 C1418 0.950 . S
H1393 C1420 0.950 . S
H1394 C1423 0.950 . S
H1395 C1424 0.950 . S
H1396 C1426 0.950 . S
H1397 C1427 0.950 . S
C1398 H1380 0.951 . S
C1398 C1399 1.366 . S
C1398 C1400 1.388 . S
C1399 C1398 1.366 . S
C1399 C1403 1.385 . S
C1400 H1381 0.951 . S
C1400 C1398 1.388 . S
C1400 C1401 1.366 . S
C1401 C1400 1.366 . S
C1401 C1402 1.414 . S
C1401 C1404 1.499 . S
C1402 H1382 0.950 . S
C1402 C1401 1.414 . S
C1402 C1403 1.374 . S
C1403 H1383 0.950 . S
C1403 C1399 1.385 . S
C1403 C1402 1.374 . S
C1404 C1401 1.499 . S
C1404 C1405 1.373 . S
C1404 C1406 1.389 . S
C1405 H1384 0.950 . S
C1405 C1404 1.373 . S
C1405 C1421 1.377 . S
C1406 C1404 1.389 . S
C1406 C1407 1.524 . S
C1406 C1420 1.377 . S
C1407 C1406 1.524 . S
C1407 C1408 1.397 . S
C1407 C1412 1.363 . S
C1408 H1385 0.950 . S
C1408 C1407 1.397 . S
C1408 C1409 1.334 . S
C1409 H1386 0.950 . S
C1409 C1408 1.334 . S
C1409 C1410 1.287 . S
C1410 C1409 1.287 . S
C1410 C1411 1.524 . S
C1410 H1429 0.913 . S
C1411 H1387 0.950 . S
C1411 C1410 1.524 . S
C1411 C1412 1.415 . S
C1412 H1388 0.950 . S
C1412 C1407 1.363 . S
C1412 C1411 1.415 . S
C1413 H1389 0.951 . S
C1413 C1414 1.366 . S
C1413 C1415 1.388 . S
C1414 C1413 1.366 . S
C1414 C1418 1.385 . S
C1415 H1390 0.951 . S
C1415 C1413 1.388 . S
C1415 C1416 1.366 . S
C1416 C1415 1.366 . S
C1416 C1417 1.414 . S
C1416 C1419 1.499 . S
C1417 H1391 0.950 . S
C1417 C1416 1.414 . S
C1417 C1418 1.374 . S
C1418 H1392 0.950 . S
C1418 C1414 1.385 . S
C1418 C1417 1.374 . S
C1419 C1416 1.499 . S
C1419 C1420 1.373 . S
C1419 C1421 1.389 . S
C1420 H1393 0.950 . S
C1420 C1406 1.377 . S
C1420 C1419 1.373 . S
C1421 C1405 1.377 . S
C1421 C1419 1.389 . S
C1421 C1422 1.524 . S
C1422 C1421 1.524 . S
C1422 C1423 1.397 . S
C1422 C1427 1.363 . S
C1423 H1394 0.950 . S
C1423 C1422 1.397 . S
C1423 C1424 1.334 . S
C1424 H1395 0.950 . S
C1424 C1423 1.334 . S
C1424 C1425 1.287 . S
C1425 C1424 1.287 . S
C1425 C1426 1.524 . S
C1425 H1428 0.999 . S
C1426 H1396 0.950 . S
C1426 C1425 1.524 . S
C1426 C1427 1.415 . S
C1427 H1397 0.950 . S
C1427 C1422 1.363 . S
C1427 C1426 1.415 . S
H1428 C1425 0.999 . S
H1429 C1410 0.913 . S
H1430 C1448 0.951 . S
H1431 C1450 0.951 . S
H1432 C1452 0.950 . S
H1433 C1453 0.950 . S
H1434 C1455 0.950 . S
H1435 C1458 0.950 . S
H1436 C1459 0.950 . S
H1437 C1461 0.989 . S
H1438 C1462 0.930 1_545 S
H1439 C1463 0.951 . S
H1440 C1465 0.951 . S
H1441 C1467 0.950 . S
H1442 C1468 0.950 . S
H1443 C1470 0.950 . S
H1444 C1473 0.950 . S
H1445 C1474 0.950 . S
H1446 C1476 0.950 . S
H1447 C1477 0.950 . S
C1448 H1430 0.951 . S
C1448 C1449 1.366 . S
C1448 C1450 1.388 . S
C1449 C1448 1.366 . S
C1449 C1453 1.385 . S
C1450 H1431 0.951 . S
C1450 C1448 1.388 . S
C1450 C1451 1.366 . S
C1451 C1450 1.366 . S
C1451 C1452 1.414 . S
C1451 C1454 1.499 . S
C1452 H1432 0.950 . S
C1452 C1451 1.414 . S
C1452 C1453 1.374 . S
C1453 H1433 0.950 . S
C1453 C1449 1.385 . S
C1453 C1452 1.374 . S
C1454 C1451 1.499 . S
C1454 C1455 1.373 . S
C1454 C1456 1.389 . S
C1455 H1434 0.950 . S
C1455 C1454 1.373 . S
C1455 C1471 1.377 . S
C1456 C1454 1.389 . S
C1456 C1457 1.524 . S
C1456 C1470 1.377 . S
C1457 C1456 1.524 . S
C1457 C1458 1.397 . S
C1457 C1462 1.363 . S
C1458 H1435 0.950 . S
C1458 C1457 1.397 . S
C1458 C1459 1.334 . S
C1459 H1436 0.950 . S
C1459 C1458 1.334 . S
C1459 C1460 1.287 . S
C1460 C1459 1.287 . S
C1460 C1461 1.497 1_565 S
C1460 H1479 0.913 . S
C1461 H1437 0.989 . S
C1461 C1460 1.497 1_545 S
C1461 C1462 1.399 1_545 S
C1462 H1438 0.930 1_565 S
C1462 C1457 1.363 . S
C1462 C1461 1.399 1_565 S
C1463 H1439 0.951 . S
C1463 C1464 1.366 . S
C1463 C1465 1.388 1_545 S
C1464 C1463 1.366 . S
C1464 C1468 1.385 . S
C1465 H1440 0.951 . S
C1465 C1463 1.388 1_565 S
C1465 C1466 1.366 . S
C1466 C1465 1.366 . S
C1466 C1467 1.414 1_565 S
C1466 C1469 1.499 . S
C1467 H1441 0.950 . S
C1467 C1466 1.414 1_545 S
C1467 C1468 1.374 . S
C1468 H1442 0.950 . S
C1468 C1464 1.385 . S
C1468 C1467 1.374 . S
C1469 C1466 1.499 . S
C1469 C1470 1.373 . S
C1469 C1471 1.389 . S
C1470 H1443 0.950 . S
C1470 C1456 1.377 . S
C1470 C1469 1.373 . S
C1471 C1455 1.377 . S
C1471 C1469 1.389 . S
C1471 C1472 1.524 . S
C1472 C1471 1.524 . S
C1472 C1473 1.397 . S
C1472 C1477 1.363 . S
C1473 H1444 0.950 . S
C1473 C1472 1.397 . S
C1473 C1474 1.334 . S
C1474 H1445 0.950 . S
C1474 C1473 1.334 . S
C1474 C1475 1.287 . S
C1475 C1474 1.287 . S
C1475 C1476 1.524 . S
C1475 H1478 0.999 . S
C1476 H1446 0.950 . S
C1476 C1475 1.524 . S
C1476 C1477 1.415 . S
C1477 H1447 0.950 . S
C1477 C1472 1.363 . S
C1477 C1476 1.415 . S
H1478 C1475 0.999 . S
H1479 C1460 0.913 . S
H1480 C1498 0.951 . S
H1481 C1500 0.951 . S
H1482 C1502 0.950 . S
H1483 C1503 0.950 . S
H1484 C1505 0.950 . S
H1485 C1508 0.950 . S
H1486 C1509 0.950 . S
H1487 C1511 0.950 . S
H1488 C1512 0.950 . S
H1489 C1513 0.951 . S
H1490 C1515 0.951 . S
H1491 C1517 0.950 . S
H1492 C1518 0.950 . S
H1493 C1520 0.950 . S
H1494 C1523 0.950 . S
H1495 C1524 0.950 . S
H1496 C1526 0.950 . S
H1497 C1527 0.950 . S
C1498 H1480 0.951 . S
C1498 C1499 1.366 . S
C1498 C1500 1.388 . S
C1499 C1498 1.366 . S
C1499 C1503 1.385 . S
C1500 H1481 0.951 . S
C1500 C1498 1.388 . S
C1500 C1501 1.366 . S
C1501 C1500 1.366 . S
C1501 C1502 1.414 . S
C1501 C1504 1.499 . S
C1502 H1482 0.950 . S
C1502 C1501 1.414 . S
C1502 C1503 1.374 . S
C1503 H1483 0.950 . S
C1503 C1499 1.385 . S
C1503 C1502 1.374 . S
C1504 C1501 1.499 . S
C1504 C1505 1.373 . S
C1504 C1506 1.389 . S
C1505 H1484 0.950 . S
C1505 C1504 1.373 . S
C1505 C1521 1.377 . S
C1506 C1504 1.389 . S
C1506 C1507 1.524 . S
C1506 C1520 1.377 . S
C1507 C1506 1.524 . S
C1507 C1508 1.397 . S
C1507 C1512 1.363 . S
C1508 H1485 0.950 . S
C1508 C1507 1.397 . S
C1508 C1509 1.334 . S
C1509 H1486 0.950 . S
C1509 C1508 1.334 . S
C1509 C1510 1.287 . S
C1510 C1509 1.287 . S
C1510 C1511 1.524 . S
C1510 H1529 0.913 . S
C1511 H1487 0.950 . S
C1511 C1510 1.524 . S
C1511 C1512 1.415 . S
C1512 H1488 0.950 . S
C1512 C1507 1.363 . S
C1512 C1511 1.415 . S
C1513 H1489 0.951 . S
C1513 C1514 1.366 . S
C1513 C1515 1.388 . S
C1514 C1513 1.366 . S
C1514 C1518 1.385 . S
C1515 H1490 0.951 . S
C1515 C1513 1.388 . S
C1515 C1516 1.366 . S
C1516 C1515 1.366 . S
C1516 C1517 1.414 . S
C1516 C1519 1.499 . S
C1517 H1491 0.950 . S
C1517 C1516 1.414 . S
C1517 C1518 1.374 . S
C1518 H1492 0.950 . S
C1518 C1514 1.385 . S
C1518 C1517 1.374 . S
C1519 C1516 1.499 . S
C1519 C1520 1.373 . S
C1519 C1521 1.389 . S
C1520 H1493 0.950 . S
C1520 C1506 1.377 . S
C1520 C1519 1.373 . S
C1521 C1505 1.377 . S
C1521 C1519 1.389 . S
C1521 C1522 1.524 . S
C1522 C1521 1.524 . S
C1522 C1523 1.397 . S
C1522 C1527 1.363 . S
C1523 H1494 0.950 . S
C1523 C1522 1.397 . S
C1523 C1524 1.334 . S
C1524 H1495 0.950 . S
C1524 C1523 1.334 . S
C1524 C1525 1.287 . S
C1525 C1524 1.287 . S
C1525 C1526 1.524 . S
C1525 H1528 0.999 . S
C1526 H1496 0.950 . S
C1526 C1525 1.524 . S
C1526 C1527 1.415 . S
C1527 H1497 0.950 . S
C1527 C1522 1.363 . S
C1527 C1526 1.415 . S
H1528 C1525 0.999 . S
H1529 C1510 0.913 . S
H1530 C1548 0.951 . S
H1531 C1550 0.951 . S
H1532 C1552 0.950 . S
H1533 C1553 0.950 . S
H1534 C1555 0.950 . S
H1535 C1558 0.950 . S
H1536 C1559 0.950 . S
H1537 C1561 0.950 . S
H1538 C1562 0.950 . S
H1539 C1563 0.951 . S
H1540 C1565 0.951 . S
H1541 C1567 0.950 . S
H1542 C1568 0.950 . S
H1543 C1570 0.950 . S
H1544 C1573 0.950 . S
H1545 C1574 0.950 . S
H1546 C1576 0.950 1_565 S
H1547 C1577 0.996 . S
C1548 H1530 0.951 . S
C1548 C1549 1.366 . S
C1548 C1550 1.388 1_565 S
C1549 C1548 1.366 . S
C1549 C1553 1.385 . S
C1550 H1531 0.951 . S
C1550 C1548 1.388 1_545 S
C1550 C1551 1.366 . S
C1551 C1550 1.366 . S
C1551 C1552 1.414 1_545 S
C1551 C1554 1.499 . S
C1552 H1532 0.950 . S
C1552 C1551 1.414 1_565 S
C1552 C1553 1.374 . S
C1553 H1533 0.950 . S
C1553 C1549 1.385 . S
C1553 C1552 1.374 . S
C1554 C1551 1.499 . S
C1554 C1555 1.373 . S
C1554 C1556 1.389 . S
C1555 H1534 0.950 . S
C1555 C1554 1.373 . S
C1555 C1571 1.377 . S
C1556 C1554 1.389 . S
C1556 C1557 1.524 . S
C1556 C1570 1.377 . S
C1557 C1556 1.524 . S
C1557 C1558 1.397 . S
C1557 C1562 1.363 . S
C1558 H1535 0.950 . S
C1558 C1557 1.397 . S
C1558 C1559 1.334 . S
C1559 H1536 0.950 . S
C1559 C1558 1.334 . S
C1559 C1560 1.287 . S
C1560 C1559 1.287 . S
C1560 C1561 1.524 . S
C1560 H1579 0.913 . S
C1561 H1537 0.950 . S
C1561 C1560 1.524 . S
C1561 C1562 1.415 . S
C1562 H1538 0.950 . S
C1562 C1557 1.363 . S
C1562 C1561 1.415 . S
C1563 H1539 0.951 . S
C1563 C1564 1.366 . S
C1563 C1565 1.388 . S
C1564 C1563 1.366 . S
C1564 C1568 1.385 . S
C1565 H1540 0.951 . S
C1565 C1563 1.388 . S
C1565 C1566 1.366 . S
C1566 C1565 1.366 . S
C1566 C1567 1.414 . S
C1566 C1569 1.499 . S
C1567 H1541 0.950 . S
C1567 C1566 1.414 . S
C1567 C1568 1.374 . S
C1568 H1542 0.950 . S
C1568 C1564 1.385 . S
C1568 C1567 1.374 . S
C1569 C1566 1.499 . S
C1569 C1570 1.373 . S
C1569 C1571 1.389 . S
C1570 H1543 0.950 . S
C1570 C1556 1.377 . S
C1570 C1569 1.373 . S
C1571 C1555 1.377 . S
C1571 C1569 1.389 . S
C1571 C1572 1.524 . S
C1572 C1571 1.524 . S
C1572 C1573 1.397 . S
C1572 C1577 1.363 . S
C1573 H1544 0.950 . S
C1573 C1572 1.397 . S
C1573 C1574 1.334 . S
C1574 H1545 0.950 . S
C1574 C1573 1.334 . S
C1574 C1575 1.287 . S
C1575 C1574 1.287 . S
C1575 C1576 1.524 . S
C1575 H1578 0.999 . S
C1576 H1546 0.950 1_545 S
C1576 C1575 1.524 . S
C1576 C1577 1.415 . S
C1577 H1547 0.996 . S
C1577 C1572 1.363 . S
C1577 C1576 1.415 . S
H1578 C1575 0.999 . S
H1579 C1560 0.913 . S
H1580 C1598 0.951 . S
H1581 C1600 0.951 . S
H1582 C1602 0.950 . S
H1583 C1603 0.950 . S
H1584 C1605 0.950 . S
H1585 C1608 0.950 . S
H1586 C1609 0.950 . S
H1587 C1611 0.950 . S
H1588 C1612 0.950 . S
H1589 C1613 0.951 . S
H1590 C1615 0.951 . S
H1591 C1617 0.950 . S
H1592 C1618 0.950 . S
H1593 C1620 0.950 . S
H1594 C1623 0.950 . S
H1595 C1624 0.950 . S
H1596 C1626 0.950 . S
H1597 C1627 0.950 . S
C1598 H1580 0.951 . S
C1598 C1599 1.366 . S
C1598 C1600 1.388 . S
C1599 C1598 1.366 . S
C1599 C1603 1.385 . S
C1600 H1581 0.951 . S
C1600 C1598 1.388 . S
C1600 C1601 1.366 . S
C1601 C1600 1.366 . S
C1601 C1602 1.414 . S
C1601 C1604 1.499 . S
C1602 H1582 0.950 . S
C1602 C1601 1.414 . S
C1602 C1603 1.374 . S
C1603 H1583 0.950 . S
C1603 C1599 1.385 . S
C1603 C1602 1.374 . S
C1604 C1601 1.499 . S
C1604 C1605 1.373 . S
C1604 C1606 1.389 . S
C1605 H1584 0.950 . S
C1605 C1604 1.373 . S
C1605 C1621 1.377 . S
C1606 C1604 1.389 . S
C1606 C1607 1.524 . S
C1606 C1620 1.377 . S
C1607 C1606 1.524 . S
C1607 C1608 1.397 . S
C1607 C1612 1.363 . S
C1608 H1585 0.950 . S
C1608 C1607 1.397 . S
C1608 C1609 1.334 . S
C1609 H1586 0.950 . S
C1609 C1608 1.334 . S
C1609 C1610 1.287 . S
C1610 C1609 1.287 . S
C1610 C1611 1.524 . S
C1610 H1629 0.913 . S
C1611 H1587 0.950 . S
C1611 C1610 1.524 . S
C1611 C1612 1.415 . S
C1612 H1588 0.950 . S
C1612 C1607 1.363 . S
C1612 C1611 1.415 . S
C1613 H1589 0.951 . S
C1613 C1614 1.366 . S
C1613 C1615 1.388 . S
C1614 C1613 1.366 . S
C1614 C1618 1.385 . S
C1615 H1590 0.951 . S
C1615 C1613 1.388 . S
C1615 C1616 1.366 . S
C1616 C1615 1.366 . S
C1616 C1617 1.414 . S
C1616 C1619 1.499 . S
C1617 H1591 0.950 . S
C1617 C1616 1.414 . S
C1617 C1618 1.374 . S
C1618 H1592 0.950 . S
C1618 C1614 1.385 . S
C1618 C1617 1.374 . S
C1619 C1616 1.499 . S
C1619 C1620 1.373 . S
C1619 C1621 1.389 . S
C1620 H1593 0.950 . S
C1620 C1606 1.377 . S
C1620 C1619 1.373 . S
C1621 C1605 1.377 . S
C1621 C1619 1.389 . S
C1621 C1622 1.524 . S
C1622 C1621 1.524 . S
C1622 C1623 1.397 . S
C1622 C1627 1.363 . S
C1623 H1594 0.950 . S
C1623 C1622 1.397 . S
C1623 C1624 1.334 . S
C1624 H1595 0.950 . S
C1624 C1623 1.334 . S
C1624 C1625 1.287 . S
C1625 C1624 1.287 . S
C1625 C1626 1.524 . S
C1625 H1628 0.999 . S
C1626 H1596 0.950 . S
C1626 C1625 1.524 . S
C1626 C1627 1.415 . S
C1627 H1597 0.950 . S
C1627 C1622 1.363 . S
C1627 C1626 1.415 . S
H1628 C1625 0.999 . S
H1629 C1610 0.913 . S
H1630 C1648 0.951 . S
H1631 C1650 0.951 . S
H1632 C1652 0.950 . S
H1633 C1653 0.950 . S
H1634 C1655 0.950 . S
H1635 C1658 0.950 . S
H1636 C1659 0.950 . S
H1637 C1661 0.950 . S
H1638 C1662 0.950 . S
H1639 C1663 0.951 . S
H1640 C1665 0.951 . S
H1641 C1667 0.950 . S
H1642 C1668 0.950 . S
H1643 C1670 0.950 . S
H1644 C1673 0.957 . S
H1645 C1674 0.950 1_545 S
H1646 C1676 0.950 . S
H1647 C1677 0.950 . S
C1648 H1630 0.951 . S
C1648 C1649 1.366 . S
C1648 C1650 1.388 . S
C1649 C1648 1.366 . S
C1649 C1653 1.385 . S
C1650 H1631 0.951 . S
C1650 C1648 1.388 . S
C1650 C1651 1.366 . S
C1651 C1650 1.366 . S
C1651 C1652 1.414 . S
C1651 C1654 1.499 . S
C1652 H1632 0.950 . S
C1652 C1651 1.414 . S
C1652 C1653 1.374 . S
C1653 H1633 0.950 . S
C1653 C1649 1.385 . S
C1653 C1652 1.374 . S
C1654 C1651 1.499 . S
C1654 C1655 1.373 . S
C1654 C1656 1.389 . S
C1655 H1634 0.950 . S
C1655 C1654 1.373 . S
C1655 C1671 1.377 . S
C1656 C1654 1.389 . S
C1656 C1657 1.524 . S
C1656 C1670 1.377 . S
C1657 C1656 1.524 . S
C1657 C1658 1.397 . S
C1657 C1662 1.363 . S
C1658 H1635 0.950 . S
C1658 C1657 1.397 . S
C1658 C1659 1.334 . S
C1659 H1636 0.950 . S
C1659 C1658 1.334 . S
C1659 C1660 1.287 . S
C1660 C1659 1.287 . S
C1660 C1661 1.524 . S
C1660 H1679 0.913 . S
C1661 H1637 0.950 . S
C1661 C1660 1.524 . S
C1661 C1662 1.415 . S
C1662 H1638 0.950 . S
C1662 C1657 1.363 . S
C1662 C1661 1.415 . S
C1663 H1639 0.951 . S
C1663 C1664 1.366 . S
C1663 C1665 1.388 1_545 S
C1664 C1663 1.366 . S
C1664 C1668 1.385 . S
C1665 H1640 0.951 . S
C1665 C1663 1.388 1_565 S
C1665 C1666 1.366 . S
C1666 C1665 1.366 . S
C1666 C1667 1.414 1_565 S
C1666 C1669 1.499 . S
C1667 H1641 0.950 . S
C1667 C1666 1.414 1_545 S
C1667 C1668 1.374 . S
C1668 H1642 0.950 . S
C1668 C1664 1.385 . S
C1668 C1667 1.374 . S
C1669 C1666 1.499 . S
C1669 C1670 1.373 . S
C1669 C1671 1.389 . S
C1670 H1643 0.950 . S
C1670 C1656 1.377 . S
C1670 C1669 1.373 . S
C1671 C1655 1.377 . S
C1671 C1669 1.389 . S
C1671 C1672 1.524 . S
C1672 C1671 1.524 . S
C1672 C1673 1.397 . S
C1672 C1677 1.363 . S
C1673 H1644 0.957 . S
C1673 C1672 1.397 . S
C1673 C1674 1.334 . S
C1674 H1645 0.950 1_565 S
C1674 C1673 1.334 . S
C1674 C1675 1.287 . S
C1675 C1674 1.287 . S
C1675 C1676 1.524 . S
C1675 H1678 0.999 . S
C1676 H1646 0.950 . S
C1676 C1675 1.524 . S
C1676 C1677 1.415 . S
C1677 H1647 0.950 . S
C1677 C1672 1.363 . S
C1677 C1676 1.415 . S
H1678 C1675 0.999 . S
H1679 C1660 0.913 . S
H1680 C1698 0.951 . S
H1681 C1700 0.951 . S
H1682 C1702 0.950 . S
H1683 C1703 0.950 . S
H1684 C1705 0.950 . S
H1685 C1708 0.950 . S
H1686 C1709 0.950 . S
H1687 C1711 0.950 . S
H1688 C1712 0.950 . S
H1689 C1713 0.951 . S
H1690 C1715 0.951 . S
H1691 C1717 0.950 . S
H1692 C1718 0.950 . S
H1693 C1720 0.950 . S
H1694 C1723 0.950 . S
H1695 C1724 0.950 . S
H1696 C1726 0.950 . S
H1697 C1727 0.950 . S
C1698 H1680 0.951 . S
C1698 C1699 1.366 . S
C1698 C1700 1.388 . S
C1699 C1698 1.366 . S
C1699 C1703 1.385 . S
C1700 H1681 0.951 . S
C1700 C1698 1.388 . S
C1700 C1701 1.366 . S
C1701 C1700 1.366 . S
C1701 C1702 1.414 . S
C1701 C1704 1.499 . S
C1702 H1682 0.950 . S
C1702 C1701 1.414 . S
C1702 C1703 1.374 . S
C1703 H1683 0.950 . S
C1703 C1699 1.385 . S
C1703 C1702 1.374 . S
C1704 C1701 1.499 . S
C1704 C1705 1.373 . S
C1704 C1706 1.389 . S
C1705 H1684 0.950 . S
C1705 C1704 1.373 . S
C1705 C1721 1.377 . S
C1706 C1704 1.389 . S
C1706 C1707 1.524 . S
C1706 C1720 1.377 . S
C1707 C1706 1.524 . S
C1707 C1708 1.397 . S
C1707 C1712 1.363 . S
C1708 H1685 0.950 . S
C1708 C1707 1.397 . S
C1708 C1709 1.334 . S
C1709 H1686 0.950 . S
C1709 C1708 1.334 . S
C1709 C1710 1.287 . S
C1710 C1709 1.287 . S
C1710 C1711 1.524 . S
C1710 H1729 0.913 . S
C1711 H1687 0.950 . S
C1711 C1710 1.524 . S
C1711 C1712 1.415 . S
C1712 H1688 0.950 . S
C1712 C1707 1.363 . S
C1712 C1711 1.415 . S
C1713 H1689 0.951 . S
C1713 C1714 1.366 . S
C1713 C1715 1.388 . S
C1714 C1713 1.366 . S
C1714 C1718 1.385 . S
C1715 H1690 0.951 . S
C1715 C1713 1.388 . S
C1715 C1716 1.366 . S
C1716 C1715 1.366 . S
C1716 C1717 1.414 . S
C1716 C1719 1.499 . S
C1717 H1691 0.950 . S
C1717 C1716 1.414 . S
C1717 C1718 1.374 . S
C1718 H1692 0.950 . S
C1718 C1714 1.385 . S
C1718 C1717 1.374 . S
C1719 C1716 1.499 . S
C1719 C1720 1.373 . S
C1719 C1721 1.389 . S
C1720 H1693 0.950 . S
C1720 C1706 1.377 . S
C1720 C1719 1.373 . S
C1721 C1705 1.377 . S
C1721 C1719 1.389 . S
C1721 C1722 1.524 . S
C1722 C1721 1.524 . S
C1722 C1723 1.397 . S
C1722 C1727 1.363 . S
C1723 H1694 0.950 . S
C1723 C1722 1.397 . S
C1723 C1724 1.334 . S
C1724 H1695 0.950 . S
C1724 C1723 1.334 . S
C1724 C1725 1.287 . S
C1725 C1724 1.287 . S
C1725 C1726 1.524 . S
C1725 H1728 0.999 . S
C1726 H1696 0.950 . S
C1726 C1725 1.524 . S
C1726 C1727 1.415 . S
C1727 H1697 0.950 . S
C1727 C1722 1.363 . S
C1727 C1726 1.415 . S
H1728 C1725 0.999 . S
H1729 C1710 0.913 . S
H1730 C1748 0.951 . S
H1731 C1750 0.951 . S
H1732 C1752 0.950 . S
H1733 C1753 0.950 . S
H1734 C1755 0.992 . S
H1735 C1758 0.950 . S
H1736 C1759 0.950 . S
H1737 C1761 0.950 . S
H1738 C1762 0.950 . S
H1739 C1763 0.951 . S
H1740 C1765 0.951 . S
H1741 C1767 0.950 . S
H1742 C1768 0.950 . S
H1743 C1770 0.950 . S
H1744 C1773 0.950 . S
H1745 C1774 0.950 . S
H1746 C1776 0.950 . S
H1747 C1777 0.950 . S
C1748 H1730 0.951 . S
C1748 C1749 1.366 . S
C1748 C1750 1.388 1_545 S
C1749 C1748 1.366 . S
C1749 C1753 1.385 . S
C1750 H1731 0.951 . S
C1750 C1748 1.388 1_565 S
C1750 C1751 1.366 . S
C1751 C1750 1.366 . S
C1751 C1752 1.414 1_565 S
C1751 C1754 1.499 . S
C1752 H1732 0.950 . S
C1752 C1751 1.414 1_545 S
C1752 C1753 1.374 . S
C1753 H1733 0.950 . S
C1753 C1749 1.385 . S
C1753 C1752 1.374 . S
C1754 C1751 1.499 . S
C1754 C1755 1.373 . S
C1754 C1756 1.389 . S
C1755 H1734 0.992 . S
C1755 C1754 1.373 . S
C1755 C1771 1.377 . S
C1756 C1754 1.389 . S
C1756 C1757 1.524 . S
C1756 C1770 1.377 . S
C1757 C1756 1.524 . S
C1757 C1758 1.397 . S
C1757 C1762 1.363 . S
C1758 H1735 0.950 . S
C1758 C1757 1.397 . S
C1758 C1759 1.334 . S
C1759 H1736 0.950 . S
C1759 C1758 1.334 . S
C1759 C1760 1.287 . S
C1760 C1759 1.287 . S
C1760 C1761 1.524 . S
C1760 H1779 0.913 . S
C1761 H1737 0.950 . S
C1761 C1760 1.524 . S
C1761 C1762 1.415 . S
C1762 H1738 0.950 . S
C1762 C1757 1.363 . S
C1762 C1761 1.415 . S
C1763 H1739 0.951 . S
C1763 C1764 1.366 . S
C1763 C1765 1.388 . S
C1764 C1763 1.366 . S
C1764 C1768 1.385 . S
C1765 H1740 0.951 . S
C1765 C1763 1.388 . S
C1765 C1766 1.366 . S
C1766 C1765 1.366 . S
C1766 C1767 1.414 . S
C1766 C1769 1.499 . S
C1767 H1741 0.950 . S
C1767 C1766 1.414 . S
C1767 C1768 1.374 . S
C1768 H1742 0.950 . S
C1768 C1764 1.385 . S
C1768 C1767 1.374 . S
C1769 C1766 1.499 . S
C1769 C1770 1.373 . S
C1769 C1771 1.389 . S
C1770 H1743 0.950 . S
C1770 C1756 1.377 . S
C1770 C1769 1.373 . S
C1771 C1755 1.377 . S
C1771 C1769 1.389 . S
C1771 C1772 1.524 . S
C1772 C1771 1.524 . S
C1772 C1773 1.397 . S
C1772 C1777 1.363 . S
C1773 H1744 0.950 . S
C1773 C1772 1.397 . S
C1773 C1774 1.334 . S
C1774 H1745 0.950 . S
C1774 C1773 1.334 . S
C1774 C1775 1.287 . S
C1775 C1774 1.287 . S
C1775 C1776 1.524 1_565 S
C1775 H1778 1.023 . S
C1776 H1746 0.950 . S
C1776 C1775 1.524 1_545 S
C1776 C1777 1.415 1_545 S
C1777 H1747 0.950 . S
C1777 C1772 1.363 . S
C1777 C1776 1.415 1_565 S
H1778 C1775 1.023 . S
H1779 C1760 0.913 . S
H1780 C1798 0.951 . S
H1781 C1800 0.951 . S
H1782 C1802 0.950 . S
H1783 C1803 0.950 . S
H1784 C1805 0.950 . S
H1785 C1808 0.950 . S
H1786 C1809 0.950 . S
H1787 C1811 0.950 . S
H1788 C1812 0.950 . S
H1789 C1813 0.951 . S
H1790 C1815 0.951 . S
H1791 C1817 0.950 . S
H1792 C1818 0.950 . S
H1793 C1820 0.950 . S
H1794 C1823 0.950 . S
H1795 C1824 0.950 . S
H1796 C1826 0.950 . S
H1797 C1827 0.950 . S
C1798 H1780 0.951 . S
C1798 C1799 1.366 . S
C1798 C1800 1.388 . S
C1799 C1798 1.366 . S
C1799 C1803 1.385 . S
C1800 H1781 0.951 . S
C1800 C1798 1.388 . S
C1800 C1801 1.366 . S
C1801 C1800 1.366 . S
C1801 C1802 1.414 . S
C1801 C1804 1.499 . S
C1802 H1782 0.950 . S
C1802 C1801 1.414 . S
C1802 C1803 1.374 . S
C1803 H1783 0.950 . S
C1803 C1799 1.385 . S
C1803 C1802 1.374 . S
C1804 C1801 1.499 . S
C1804 C1805 1.373 . S
C1804 C1806 1.389 . S
C1805 H1784 0.950 . S
C1805 C1804 1.373 . S
C1805 C1821 1.377 . S
C1806 C1804 1.389 . S
C1806 C1807 1.524 . S
C1806 C1820 1.377 . S
C1807 C1806 1.524 . S
C1807 C1808 1.397 . S
C1807 C1812 1.363 . S
C1808 H1785 0.950 . S
C1808 C1807 1.397 . S
C1808 C1809 1.334 . S
C1809 H1786 0.950 . S
C1809 C1808 1.334 . S
C1809 C1810 1.287 . S
C1810 C1809 1.287 . S
C1810 C1811 1.524 . S
C1810 H1829 0.913 . S
C1811 H1787 0.950 . S
C1811 C1810 1.524 . S
C1811 C1812 1.415 . S
C1812 H1788 0.950 . S
C1812 C1807 1.363 . S
C1812 C1811 1.415 . S
C1813 H1789 0.951 . S
C1813 C1814 1.366 . S
C1813 C1815 1.388 . S
C1814 C1813 1.366 . S
C1814 C1818 1.385 . S
C1815 H1790 0.951 . S
C1815 C1813 1.388 . S
C1815 C1816 1.366 . S
C1816 C1815 1.366 . S
C1816 C1817 1.414 . S
C1816 C1819 1.499 . S
C1817 H1791 0.950 . S
C1817 C1816 1.414 . S
C1817 C1818 1.374 . S
C1818 H1792 0.950 . S
C1818 C1814 1.385 . S
C1818 C1817 1.374 . S
C1819 C1816 1.499 . S
C1819 C1820 1.373 . S
C1819 C1821 1.389 . S
C1820 H1793 0.950 . S
C1820 C1806 1.377 . S
C1820 C1819 1.373 . S
C1821 C1805 1.377 . S
C1821 C1819 1.389 . S
C1821 C1822 1.524 . S
C1822 C1821 1.524 . S
C1822 C1823 1.397 . S
C1822 C1827 1.363 . S
C1823 H1794 0.950 . S
C1823 C1822 1.397 . S
C1823 C1824 1.334 . S
C1824 H1795 0.950 . S
C1824 C1823 1.334 . S
C1824 C1825 1.287 . S
C1825 C1824 1.287 . S
C1825 C1826 1.524 . S
C1825 H1828 0.999 . S
C1826 H1796 0.950 . S
C1826 C1825 1.524 . S
C1826 C1827 1.415 . S
C1827 H1797 0.950 . S
C1827 C1822 1.363 . S
C1827 C1826 1.415 . S
H1828 C1825 0.999 . S
H1829 C1810 0.913 . S
H1830 C1848 0.951 . S
H1831 C1850 0.951 . S
H1832 C1852 0.950 . S
H1833 C1853 0.950 . S
H1834 C1855 0.950 . S
H1835 C1858 0.950 . S
H1836 C1859 0.950 . S
H1837 C1861 0.950 . S
H1838 C1862 0.950 . S
H1839 C1863 0.951 . S
H1840 C1865 0.951 . S
H1841 C1867 0.950 . S
H1842 C1868 0.950 . S
H1843 C1870 0.950 . S
H1844 C1873 0.950 . S
H1845 C1874 0.950 . S
H1846 C1876 0.950 . S
H1847 C1877 0.950 . S
C1848 H1830 0.951 . S
C1848 C1849 1.366 . S
C1848 C1850 1.388 . S
C1849 C1848 1.366 . S
C1849 C1853 1.385 . S
C1850 H1831 0.951 . S
C1850 C1848 1.388 . S
C1850 C1851 1.366 1_565 S
C1851 C1850 1.366 1_545 S
C1851 C1852 1.414 . S
C1851 C1854 1.499 . S
C1852 H1832 0.950 . S
C1852 C1851 1.414 . S
C1852 C1853 1.374 1_545 S
C1853 H1833 0.950 . S
C1853 C1849 1.385 . S
C1853 C1852 1.374 1_565 S
C1854 C1851 1.499 . S
C1854 C1855 1.373 . S
C1854 C1856 1.389 . S
C1855 H1834 0.950 . S
C1855 C1854 1.373 . S
C1855 C1871 1.377 . S
C1856 C1854 1.389 . S
C1856 C1857 1.524 . S
C1856 C1870 1.377 . S
C1857 C1856 1.524 . S
C1857 C1858 1.397 . S
C1857 C1862 1.363 1_545 S
C1858 H1835 0.950 . S
C1858 C1857 1.397 . S
C1858 C1859 1.334 1_545 S
C1859 H1836 0.950 . S
C1859 C1858 1.334 1_565 S
C1859 C1860 1.287 . S
C1860 C1859 1.287 . S
C1860 C1861 1.524 . S
C1860 H1879 0.913 . S
C1861 H1837 0.950 . S
C1861 C1860 1.524 . S
C1861 C1862 1.415 . S
C1862 H1838 0.950 . S
C1862 C1857 1.363 1_565 S
C1862 C1861 1.415 . S
C1863 H1839 0.951 . S
C1863 C1864 1.366 . S
C1863 C1865 1.388 . S
C1864 C1863 1.366 . S
C1864 C1868 1.385 . S
C1865 H1840 0.951 . S
C1865 C1863 1.388 . S
C1865 C1866 1.366 . S
C1866 C1865 1.366 . S
C1866 C1867 1.414 . S
C1866 C1869 1.499 . S
C1867 H1841 0.950 . S
C1867 C1866 1.414 . S
C1867 C1868 1.374 . S
C1868 H1842 0.950 . S
C1868 C1864 1.385 . S
C1868 C1867 1.374 . S
C1869 C1866 1.499 . S
C1869 C1870 1.373 . S
C1869 C1871 1.389 . S
C1870 H1843 0.950 . S
C1870 C1856 1.377 . S
C1870 C1869 1.373 . S
C1871 C1855 1.377 . S
C1871 C1869 1.389 . S
C1871 C1872 1.524 . S
C1872 C1871 1.524 . S
C1872 C1873 1.397 . S
C1872 C1877 1.363 . S
C1873 H1844 0.950 . S
C1873 C1872 1.397 . S
C1873 C1874 1.334 . S
C1874 H1845 0.950 . S
C1874 C1873 1.334 . S
C1874 C1875 1.287 . S
C1875 C1874 1.287 . S
C1875 C1876 1.524 . S
C1875 H1878 0.999 . S
C1876 H1846 0.950 . S
C1876 C1875 1.524 . S
C1876 C1877 1.415 . S
C1877 H1847 0.950 . S
C1877 C1872 1.363 . S
C1877 C1876 1.415 . S
H1878 C1875 0.999 . S
H1879 C1860 0.913 . S
H1880 C1898 0.951 . S
H1881 C1900 0.951 . S
H1882 C1902 0.950 . S
H1883 C1903 0.950 . S
H1884 C1905 0.950 . S
H1885 C1908 0.950 . S
H1886 C1909 0.950 . S
H1887 C1911 0.950 . S
H1888 C1912 0.950 . S
H1889 C1913 0.951 . S
H1890 C1915 0.951 . S
H1891 C1917 0.950 . S
H1892 C1918 0.950 . S
H1893 C1920 0.950 . S
H1894 C1923 0.950 . S
H1895 C1924 0.950 . S
H1896 C1926 0.950 . S
H1897 C1927 0.950 . S
C1898 H1880 0.951 . S
C1898 C1899 1.366 . S
C1898 C1900 1.388 . S
C1899 C1898 1.366 . S
C1899 C1903 1.385 . S
C1900 H1881 0.951 . S
C1900 C1898 1.388 . S
C1900 C1901 1.366 . S
C1901 C1900 1.366 . S
C1901 C1902 1.414 . S
C1901 C1904 1.499 . S
C1902 H1882 0.950 . S
C1902 C1901 1.414 . S
C1902 C1903 1.374 . S
C1903 H1883 0.950 . S
C1903 C1899 1.385 . S
C1903 C1902 1.374 . S
C1904 C1901 1.499 . S
C1904 C1905 1.373 . S
C1904 C1906 1.389 . S
C1905 H1884 0.950 . S
C1905 C1904 1.373 . S
C1905 C1921 1.377 . S
C1906 C1904 1.389 . S
C1906 C1907 1.524 . S
C1906 C1920 1.377 . S
C1907 C1906 1.524 . S
C1907 C1908 1.397 . S
C1907 C1912 1.363 . S
C1908 H1885 0.950 . S
C1908 C1907 1.397 . S
C1908 C1909 1.334 . S
C1909 H1886 0.950 . S
C1909 C1908 1.334 . S
C1909 C1910 1.287 . S
C1910 C1909 1.287 . S
C1910 C1911 1.524 . S
C1910 H1929 0.913 . S
C1911 H1887 0.950 . S
C1911 C1910 1.524 . S
C1911 C1912 1.415 . S
C1912 H1888 0.950 . S
C1912 C1907 1.363 . S
C1912 C1911 1.415 . S
C1913 H1889 0.951 . S
C1913 C1914 1.366 . S
C1913 C1915 1.388 . S
C1914 C1913 1.366 . S
C1914 C1918 1.385 . S
C1915 H1890 0.951 . S
C1915 C1913 1.388 . S
C1915 C1916 1.366 . S
C1916 C1915 1.366 . S
C1916 C1917 1.414 . S
C1916 C1919 1.499 . S
C1917 H1891 0.950 . S
C1917 C1916 1.414 . S
C1917 C1918 1.374 . S
C1918 H1892 0.950 . S
C1918 C1914 1.385 . S
C1918 C1917 1.374 . S
C1919 C1916 1.499 . S
C1919 C1920 1.373 . S
C1919 C1921 1.389 . S
C1920 H1893 0.950 . S
C1920 C1906 1.377 . S
C1920 C1919 1.373 . S
C1921 C1905 1.377 . S
C1921 C1919 1.389 . S
C1921 C1922 1.524 . S
C1922 C1921 1.524 . S
C1922 C1923 1.397 . S
C1922 C1927 1.363 . S
C1923 H1894 0.950 . S
C1923 C1922 1.397 . S
C1923 C1924 1.334 . S
C1924 H1895 0.950 . S
C1924 C1923 1.334 . S
C1924 C1925 1.287 . S
C1925 C1924 1.287 . S
C1925 C1926 1.524 . S
C1925 H1928 0.999 . S
C1926 H1896 0.950 . S
C1926 C1925 1.524 . S
C1926 C1927 1.415 . S
C1927 H1897 0.950 . S
C1927 C1922 1.363 . S
C1927 C1926 1.415 . S
H1928 C1925 0.999 . S
H1929 C1910 0.913 . S
H1930 C1948 0.951 . S
H1931 C1950 0.951 . S
H1932 C1952 0.993 . S
H1933 C1953 0.950 . S
H1934 C1955 0.950 . S
H1935 C1958 0.950 . S
H1936 C1959 0.950 . S
H1937 C1961 0.950 . S
H1938 C1962 0.927 1_565 S
H1939 C1963 0.951 . S
H1940 C1965 0.951 . S
H1941 C1967 0.950 . S
H1942 C1968 0.950 . S
H1943 C1970 0.950 . S
H1944 C1973 0.950 . S
H1945 C1974 0.950 . S
H1946 C1976 0.950 . S
H1947 C1977 0.950 . S
C1948 H1930 0.951 . S
C1948 C1949 1.366 . S
C1948 C1950 1.388 . S
C1949 C1948 1.366 . S
C1949 C1953 1.385 . S
C1950 H1931 0.951 . S
C1950 C1948 1.388 . S
C1950 C1951 1.366 1_545 S
C1951 C1950 1.366 1_565 S
C1951 C1952 1.423 . S
C1951 C1954 1.499 . S
C1952 H1932 0.993 . S
C1952 C1951 1.423 . S
C1952 C1953 1.327 1_565 S
C1953 H1933 0.950 . S
C1953 C1949 1.385 . S
C1953 C1952 1.327 1_545 S
C1954 C1951 1.499 . S
C1954 C1955 1.373 . S
C1954 C1956 1.389 . S
C1955 H1934 0.950 . S
C1955 C1954 1.373 . S
C1955 C1971 1.377 . S
C1956 C1954 1.389 . S
C1956 C1957 1.524 1_565 S
C1956 C1970 1.377 . S
C1957 C1956 1.524 1_545 S
C1957 C1958 1.397 . S
C1957 C1962 1.363 . S
C1958 H1935 0.950 . S
C1958 C1957 1.397 . S
C1958 C1959 1.334 . S
C1959 H1936 0.950 . S
C1959 C1958 1.334 . S
C1959 C1960 1.287 . S
C1960 C1959 1.287 . S
C1960 C1961 1.524 . S
C1960 H1979 0.913 . S
C1961 H1937 0.950 . S
C1961 C1960 1.524 . S
C1961 C1962 1.415 . S
C1962 H1938 0.927 1_545 S
C1962 C1957 1.363 . S
C1962 C1961 1.415 . S
C1963 H1939 0.951 . S
C1963 C1964 1.366 . S
C1963 C1965 1.388 . S
C1964 C1963 1.366 . S
C1964 C1968 1.385 . S
C1965 H1940 0.951 . S
C1965 C1963 1.388 . S
C1965 C1966 1.366 . S
C1966 C1965 1.366 . S
C1966 C1967 1.414 . S
C1966 C1969 1.499 . S
C1967 H1941 0.950 . S
C1967 C1966 1.414 . S
C1967 C1968 1.374 . S
C1968 H1942 0.950 . S
C1968 C1964 1.385 . S
C1968 C1967 1.374 . S
C1969 C1966 1.499 . S
C1969 C1970 1.373 . S
C1969 C1971 1.389 . S
C1970 H1943 0.950 . S
C1970 C1956 1.377 . S
C1970 C1969 1.373 . S
C1971 C1955 1.377 . S
C1971 C1969 1.389 . S
C1971 C1972 1.524 . S
C1972 C1971 1.524 . S
C1972 C1973 1.397 . S
C1972 C1977 1.363 . S
C1973 H1944 0.950 . S
C1973 C1972 1.397 . S
C1973 C1974 1.334 . S
C1974 H1945 0.950 . S
C1974 C1973 1.334 . S
C1974 C1975 1.287 . S
C1975 C1974 1.287 . S
C1975 C1976 1.524 . S
C1975 H1978 0.999 . S
C1976 H1946 0.950 . S
C1976 C1975 1.524 . S
C1976 C1977 1.415 . S
C1977 H1947 0.950 . S
C1977 C1972 1.363 . S
C1977 C1976 1.415 . S
H1978 C1975 0.999 . S
H1979 C1960 0.913 . S
H1980 C1998 0.951 . S
H1981 C2000 0.951 . S
H1982 C2002 0.950 . S
H1983 C2003 0.950 . S
H1984 C2005 0.950 . S
H1985 C2008 0.950 . S
H1986 C2009 0.950 . S
H1987 C2011 0.950 . S
H1988 C2012 0.950 . S
H1989 C2013 0.951 . S
H1990 C2015 0.951 . S
H1991 C2017 0.950 . S
H1992 C2018 0.950 . S
H1993 C2020 0.950 . S
H1994 C2023 0.950 . S
H1995 C2024 0.950 . S
H1996 C2026 0.950 . S
H1997 C2027 0.950 . S
C1998 H1980 0.951 . S
C1998 C1999 1.366 . S
C1998 C2000 1.388 . S
C1999 C1998 1.366 . S
C1999 C2003 1.385 . S
C2000 H1981 0.951 . S
C2000 C1998 1.388 . S
C2000 C2001 1.366 . S
C2001 C2000 1.366 . S
C2001 C2002 1.414 . S
C2001 C2004 1.499 . S
C2002 H1982 0.950 . S
C2002 C2001 1.414 . S
C2002 C2003 1.374 . S
C2003 H1983 0.950 . S
C2003 C1999 1.385 . S
C2003 C2002 1.374 . S
C2004 C2001 1.499 . S
C2004 C2005 1.373 . S
C2004 C2006 1.389 . S
C2005 H1984 0.950 . S
C2005 C2004 1.373 . S
C2005 C2021 1.377 . S
C2006 C2004 1.389 . S
C2006 C2007 1.524 . S
C2006 C2020 1.377 . S
C2007 C2006 1.524 . S
C2007 C2008 1.397 . S
C2007 C2012 1.363 . S
C2008 H1985 0.950 . S
C2008 C2007 1.397 . S
C2008 C2009 1.334 . S
C2009 H1986 0.950 . S
C2009 C2008 1.334 . S
C2009 C2010 1.287 . S
C2010 C2009 1.287 . S
C2010 C2011 1.524 . S
C2010 H2029 0.913 . S
C2011 H1987 0.950 . S
C2011 C2010 1.524 . S
C2011 C2012 1.415 . S
C2012 H1988 0.950 . S
C2012 C2007 1.363 . S
C2012 C2011 1.415 . S
C2013 H1989 0.951 . S
C2013 C2014 1.366 . S
C2013 C2015 1.388 . S
C2014 C2013 1.366 . S
C2014 C2018 1.385 . S
C2015 H1990 0.951 . S
C2015 C2013 1.388 . S
C2015 C2016 1.366 . S
C2016 C2015 1.366 . S
C2016 C2017 1.414 . S
C2016 C2019 1.499 . S
C2017 H1991 0.950 . S
C2017 C2016 1.414 . S
C2017 C2018 1.374 . S
C2018 H1992 0.950 . S
C2018 C2014 1.385 . S
C2018 C2017 1.374 . S
C2019 C2016 1.499 . S
C2019 C2020 1.373 . S
C2019 C2021 1.389 . S
C2020 H1993 0.950 . S
C2020 C2006 1.377 . S
C2020 C2019 1.373 . S
C2021 C2005 1.377 . S
C2021 C2019 1.389 . S
C2021 C2022 1.524 . S
C2022 C2021 1.524 . S
C2022 C2023 1.397 . S
C2022 C2027 1.363 . S
C2023 H1994 0.950 . S
C2023 C2022 1.397 . S
C2023 C2024 1.334 . S
C2024 H1995 0.950 . S
C2024 C2023 1.334 . S
C2024 C2025 1.287 . S
C2025 C2024 1.287 . S
C2025 C2026 1.524 . S
C2025 H2028 0.999 . S
C2026 H1996 0.950 . S
C2026 C2025 1.524 . S
C2026 C2027 1.415 . S
C2027 H1997 0.950 . S
C2027 C2022 1.363 . S
C2027 C2026 1.415 . S
H2028 C2025 0.999 . S
H2029 C2010 0.913 . S
H2030 C2048 0.951 . S
H2031 C2050 0.951 . S
H2032 C2052 0.950 . S
H2033 C2053 0.950 . S
H2034 C2055 0.950 . S
H2035 C2058 0.950 . S
H2036 C2059 0.950 . S
H2037 C2061 0.950 . S
H2038 C2062 0.950 . S
H2039 C2063 0.951 . S
H2040 C2065 0.930 1_545 S
H2041 C2067 0.931 1_545 S
H2042 C2068 0.950 . S
H2043 C2070 0.950 . S
H2044 C2073 0.950 . S
H2045 C2074 0.950 . S
H2046 C2076 0.950 . S
H2047 C2077 0.967 . S
C2048 H2030 0.951 . S
C2048 C2049 1.366 . S
C2048 C2050 1.388 . S
C2049 C2048 1.366 . S
C2049 C2053 1.385 . S
C2050 H2031 0.951 . S
C2050 C2048 1.388 . S
C2050 C2051 1.366 . S
C2051 C2050 1.366 . S
C2051 C2052 1.414 . S
C2051 C2054 1.499 . S
C2052 H2032 0.950 . S
C2052 C2051 1.414 . S
C2052 C2053 1.374 . S
C2053 H2033 0.950 . S
C2053 C2049 1.385 . S
C2053 C2052 1.374 . S
C2054 C2051 1.499 . S
C2054 C2055 1.373 . S
C2054 C2056 1.389 . S
C2055 H2034 0.950 . S
C2055 C2054 1.373 . S
C2055 C2071 1.377 . S
C2056 C2054 1.389 . S
C2056 C2057 1.524 . S
C2056 C2070 1.377 . S
C2057 C2056 1.524 . S
C2057 C2058 1.397 . S
C2057 C2062 1.363 . S
C2058 H2035 0.950 . S
C2058 C2057 1.397 . S
C2058 C2059 1.334 . S
C2059 H2036 0.950 . S
C2059 C2058 1.334 . S
C2059 C2060 1.287 . S
C2060 C2059 1.287 . S
C2060 C2061 1.524 . S
C2060 H2079 0.913 . S
C2061 H2037 0.950 . S
C2061 C2060 1.524 . S
C2061 C2062 1.415 . S
C2062 H2038 0.950 . S
C2062 C2057 1.363 . S
C2062 C2061 1.415 . S
C2063 H2039 0.951 . S
C2063 C2064 1.366 . S
C2063 C2065 1.388 . S
C2064 C2063 1.366 . S
C2064 C2068 1.385 . S
C2065 H2040 0.930 1_565 S
C2065 C2063 1.388 . S
C2065 C2066 1.366 1_565 S
C2066 C2065 1.366 1_545 S
C2066 C2067 1.414 1_545 S
C2066 C2069 1.499 . S
C2067 H2041 0.931 1_565 S
C2067 C2066 1.414 1_565 S
C2067 C2068 1.374 . S
C2068 H2042 0.950 . S
C2068 C2064 1.385 . S
C2068 C2067 1.374 . S
C2069 C2066 1.499 . S
C2069 C2070 1.373 . S
C2069 C2071 1.389 . S
C2070 H2043 0.950 . S
C2070 C2056 1.377 . S
C2070 C2069 1.373 . S
C2071 C2055 1.377 . S
C2071 C2069 1.389 . S
C2071 C2072 1.482 1_545 S
C2072 C2071 1.482 1_565 S
C2072 C2073 1.442 . S
C2072 C2077 1.360 1_565 S
C2073 H2044 0.950 . S
C2073 C2072 1.442 . S
C2073 C2074 1.334 . S
C2074 H2045 0.950 . S
C2074 C2073 1.334 . S
C2074 C2075 1.287 . S
C2075 C2074 1.287 . S
C2075 C2076 1.524 . S
C2075 H2078 0.999 . S
C2076 H2046 0.950 . S
C2076 C2075 1.524 . S
C2076 C2077 1.400 1_565 S
C2077 H2047 0.967 . S
C2077 C2072 1.360 1_545 S
C2077 C2076 1.400 1_545 S
H2078 C2075 0.999 . S
H2079 C2060 0.913 . S
H2080 C2098 0.951 . S
H2081 C2100 0.951 . S
H2082 C2102 0.950 . S
H2083 C2103 0.950 . S
H2084 C2105 0.950 . S
H2085 C2108 0.950 . S
H2086 C2109 0.950 . S
H2087 C2111 0.950 . S
H2088 C2112 0.950 . S
H2089 C2113 0.951 . S
H2090 C2115 0.951 . S
H2091 C2117 0.950 . S
H2092 C2118 0.950 . S
H2093 C2120 0.950 . S
H2094 C2123 0.950 . S
H2095 C2124 0.950 . S
H2096 C2126 0.950 . S
H2097 C2127 0.950 . S
C2098 H2080 0.951 . S
C2098 C2099 1.366 . S
C2098 C2100 1.388 . S
C2099 C2098 1.366 . S
C2099 C2103 1.385 . S
C2100 H2081 0.951 . S
C2100 C2098 1.388 . S
C2100 C2101 1.366 . S
C2101 C2100 1.366 . S
C2101 C2102 1.414 . S
C2101 C2104 1.499 . S
C2102 H2082 0.950 . S
C2102 C2101 1.414 . S
C2102 C2103 1.374 . S
C2103 H2083 0.950 . S
C2103 C2099 1.385 . S
C2103 C2102 1.374 . S
C2104 C2101 1.499 . S
C2104 C2105 1.373 . S
C2104 C2106 1.389 . S
C2105 H2084 0.950 . S
C2105 C2104 1.373 . S
C2105 C2121 1.377 . S
C2106 C2104 1.389 . S
C2106 C2107 1.524 . S
C2106 C2120 1.377 . S
C2107 C2106 1.524 . S
C2107 C2108 1.397 . S
C2107 C2112 1.363 . S
C2108 H2085 0.950 . S
C2108 C2107 1.397 . S
C2108 C2109 1.334 . S
C2109 H2086 0.950 . S
C2109 C2108 1.334 . S
C2109 C2110 1.287 . S
C2110 C2109 1.287 . S
C2110 C2111 1.524 . S
C2110 H2129 0.913 . S
C2111 H2087 0.950 . S
C2111 C2110 1.524 . S
C2111 C2112 1.415 . S
C2112 H2088 0.950 . S
C2112 C2107 1.363 . S
C2112 C2111 1.415 . S
C2113 H2089 0.951 . S
C2113 C2114 1.366 . S
C2113 C2115 1.388 . S
C2114 C2113 1.366 . S
C2114 C2118 1.385 . S
C2115 H2090 0.951 . S
C2115 C2113 1.388 . S
C2115 C2116 1.366 . S
C2116 C2115 1.366 . S
C2116 C2117 1.414 . S
C2116 C2119 1.499 . S
C2117 H2091 0.950 . S
C2117 C2116 1.414 . S
C2117 C2118 1.374 . S
C2118 H2092 0.950 . S
C2118 C2114 1.385 . S
C2118 C2117 1.374 . S
C2119 C2116 1.499 . S
C2119 C2120 1.373 . S
C2119 C2121 1.389 . S
C2120 H2093 0.950 . S
C2120 C2106 1.377 . S
C2120 C2119 1.373 . S
C2121 C2105 1.377 . S
C2121 C2119 1.389 . S
C2121 C2122 1.524 . S
C2122 C2121 1.524 . S
C2122 C2123 1.397 . S
C2122 C2127 1.363 . S
C2123 H2094 0.950 . S
C2123 C2122 1.397 . S
C2123 C2124 1.334 . S
C2124 H2095 0.950 . S
C2124 C2123 1.334 . S
C2124 C2125 1.287 . S
C2125 C2124 1.287 . S
C2125 C2126 1.524 . S
C2125 H2128 0.999 . S
C2126 H2096 0.950 . S
C2126 C2125 1.524 . S
C2126 C2127 1.415 . S
C2127 H2097 0.950 . S
C2127 C2122 1.363 . S
C2127 C2126 1.415 . S
H2128 C2125 0.999 . S
H2129 C2110 0.913 . S
H2130 C2148 0.951 . S
H2131 C2150 0.951 . S
H2132 C2152 0.950 . S
H2133 C2153 0.950 . S
H2134 C2155 0.950 . S
H2135 C2158 0.950 . S
H2136 C2159 0.950 . S
H2137 C2161 0.950 . S
H2138 C2162 0.950 . S
H2139 C2163 0.951 . S
H2140 C2165 0.951 . S
H2141 C2167 0.950 . S
H2142 C2168 0.950 . S
H2143 C2170 0.950 . S
H2144 C2173 0.950 . S
H2145 C2174 0.950 . S
H2146 C2176 0.950 . S
H2147 C2177 0.950 . S
C2148 H2130 0.951 . S
C2148 C2149 1.366 . S
C2148 C2150 1.388 . S
C2149 C2148 1.366 . S
C2149 C2153 1.385 . S
C2150 H2131 0.951 . S
C2150 C2148 1.388 . S
C2150 C2151 1.366 . S
C2151 C2150 1.366 . S
C2151 C2152 1.414 . S
C2151 C2154 1.499 . S
C2152 H2132 0.950 . S
C2152 C2151 1.414 . S
C2152 C2153 1.374 . S
C2153 H2133 0.950 . S
C2153 C2149 1.385 . S
C2153 C2152 1.374 . S
C2154 C2151 1.499 . S
C2154 C2155 1.373 . S
C2154 C2156 1.389 . S
C2155 H2134 0.950 . S
C2155 C2154 1.373 . S
C2155 C2171 1.377 . S
C2156 C2154 1.389 . S
C2156 C2157 1.524 . S
C2156 C2170 1.377 . S
C2157 C2156 1.524 . S
C2157 C2158 1.397 . S
C2157 C2162 1.363 . S
C2158 H2135 0.950 . S
C2158 C2157 1.397 . S
C2158 C2159 1.334 . S
C2159 H2136 0.950 . S
C2159 C2158 1.334 . S
C2159 C2160 1.287 . S
C2160 C2159 1.287 . S
C2160 C2161 1.524 . S
C2160 H2179 0.913 . S
C2161 H2137 0.950 . S
C2161 C2160 1.524 . S
C2161 C2162 1.415 . S
C2162 H2138 0.950 . S
C2162 C2157 1.363 . S
C2162 C2161 1.415 . S
C2163 H2139 0.951 . S
C2163 C2164 1.366 . S
C2163 C2165 1.388 . S
C2164 C2163 1.366 . S
C2164 C2168 1.385 . S
C2165 H2140 0.951 . S
C2165 C2163 1.388 . S
C2165 C2166 1.366 . S
C2166 C2165 1.366 . S
C2166 C2167 1.414 . S
C2166 C2169 1.499 . S
C2167 H2141 0.950 . S
C2167 C2166 1.414 . S
C2167 C2168 1.374 . S
C2168 H2142 0.950 . S
C2168 C2164 1.385 . S
C2168 C2167 1.374 . S
C2169 C2166 1.499 . S
C2169 C2170 1.373 . S
C2169 C2171 1.389 . S
C2170 H2143 0.950 . S
C2170 C2156 1.377 . S
C2170 C2169 1.373 . S
C2171 C2155 1.377 . S
C2171 C2169 1.389 . S
C2171 C2172 1.524 . S
C2172 C2171 1.524 . S
C2172 C2173 1.397 . S
C2172 C2177 1.363 . S
C2173 H2144 0.950 . S
C2173 C2172 1.397 . S
C2173 C2174 1.334 . S
C2174 H2145 0.950 . S
C2174 C2173 1.334 . S
C2174 C2175 1.287 . S
C2175 C2174 1.287 . S
C2175 C2176 1.524 . S
C2175 H2178 0.999 . S
C2176 H2146 0.950 . S
C2176 C2175 1.524 . S
C2176 C2177 1.415 . S
C2177 H2147 0.950 . S
C2177 C2172 1.363 . S
C2177 C2176 1.415 . S
H2178 C2175 0.999 . S
H2179 C2160 0.913 . S
H2180 C2198 0.951 . S
H2181 C2200 0.951 . S
H2182 C2202 0.950 . S
H2183 C2203 0.950 . S
H2184 C2205 0.950 . S
H2185 C2208 0.950 . S
H2186 C2209 0.950 . S
H2187 C2211 0.950 . S
H2188 C2212 0.950 . S
H2189 C2213 0.951 . S
H2190 C2215 0.951 . S
H2191 C2217 0.950 . S
H2192 C2218 0.950 . S
H2193 C2220 0.950 . S
H2194 C2223 0.950 . S
H2195 C2224 0.950 . S
H2196 C2226 0.950 . S
H2197 C2227 0.950 . S
C2198 H2180 0.951 . S
C2198 C2199 1.366 . S
C2198 C2200 1.388 . S
C2199 C2198 1.366 . S
C2199 C2203 1.385 . S
C2200 H2181 0.951 . S
C2200 C2198 1.388 . S
C2200 C2201 1.366 . S
C2201 C2200 1.366 . S
C2201 C2202 1.414 . S
C2201 C2204 1.499 . S
C2202 H2182 0.950 . S
C2202 C2201 1.414 . S
C2202 C2203 1.374 . S
C2203 H2183 0.950 . S
C2203 C2199 1.385 . S
C2203 C2202 1.374 . S
C2204 C2201 1.499 . S
C2204 C2205 1.373 . S
C2204 C2206 1.389 . S
C2205 H2184 0.950 . S
C2205 C2204 1.373 . S
C2205 C2221 1.377 . S
C2206 C2204 1.389 . S
C2206 C2207 1.524 . S
C2206 C2220 1.377 . S
C2207 C2206 1.524 . S
C2207 C2208 1.397 . S
C2207 C2212 1.363 . S
C2208 H2185 0.950 . S
C2208 C2207 1.397 . S
C2208 C2209 1.334 . S
C2209 H2186 0.950 . S
C2209 C2208 1.334 . S
C2209 C2210 1.287 . S
C2210 C2209 1.287 . S
C2210 C2211 1.524 . S
C2210 H2229 0.913 . S
C2211 H2187 0.950 . S
C2211 C2210 1.524 . S
C2211 C2212 1.415 . S
C2212 H2188 0.950 . S
C2212 C2207 1.363 . S
C2212 C2211 1.415 . S
C2213 H2189 0.951 . S
C2213 C2214 1.366 . S
C2213 C2215 1.388 . S
C2214 C2213 1.366 . S
C2214 C2218 1.385 . S
C2215 H2190 0.951 . S
C2215 C2213 1.388 . S
C2215 C2216 1.366 . S
C2216 C2215 1.366 . S
C2216 C2217 1.414 . S
C2216 C2219 1.499 . S
C2217 H2191 0.950 . S
C2217 C2216 1.414 . S
C2217 C2218 1.374 . S
C2218 H2192 0.950 . S
C2218 C2214 1.385 . S
C2218 C2217 1.374 . S
C2219 C2216 1.499 . S
C2219 C2220 1.373 . S
C2219 C2221 1.389 . S
C2220 H2193 0.950 . S
C2220 C2206 1.377 . S
C2220 C2219 1.373 . S
C2221 C2205 1.377 . S
C2221 C2219 1.389 . S
C2221 C2222 1.524 . S
C2222 C2221 1.524 . S
C2222 C2223 1.397 . S
C2222 C2227 1.363 . S
C2223 H2194 0.950 . S
C2223 C2222 1.397 . S
C2223 C2224 1.334 . S
C2224 H2195 0.950 . S
C2224 C2223 1.334 . S
C2224 C2225 1.287 . S
C2225 C2224 1.287 . S
C2225 C2226 1.524 . S
C2225 H2228 0.999 . S
C2226 H2196 0.950 . S
C2226 C2225 1.524 . S
C2226 C2227 1.415 . S
C2227 H2197 0.950 . S
C2227 C2222 1.363 . S
C2227 C2226 1.415 . S
H2228 C2225 0.999 . S
H2229 C2210 0.913 . S
H2230 C2248 0.951 . S
H2231 C2250 0.951 . S
H2232 C2252 0.950 . S
H2233 C2253 0.950 . S
H2234 C2255 0.950 . S
H2235 C2258 0.950 . S
H2236 C2259 0.950 . S
H2237 C2261 0.950 . S
H2238 C2262 0.950 . S
H2239 C2263 0.951 . S
H2240 C2265 0.951 . S
H2241 C2267 0.950 . S
H2242 C2268 0.950 . S
H2243 C2270 0.950 . S
H2244 C2273 0.950 . S
H2245 C2274 0.950 . S
H2246 C2276 0.950 . S
H2247 C2277 0.950 . S
C2248 H2230 0.951 . S
C2248 C2249 1.366 . S
C2248 C2250 1.388 . S
C2249 C2248 1.366 . S
C2249 C2253 1.385 . S
C2250 H2231 0.951 . S
C2250 C2248 1.388 . S
C2250 C2251 1.366 . S
C2251 C2250 1.366 . S
C2251 C2252 1.414 . S
C2251 C2254 1.499 . S
C2252 H2232 0.950 . S
C2252 C2251 1.414 . S
C2252 C2253 1.374 . S
C2253 H2233 0.950 . S
C2253 C2249 1.385 . S
C2253 C2252 1.374 . S
C2254 C2251 1.499 . S
C2254 C2255 1.373 . S
C2254 C2256 1.389 . S
C2255 H2234 0.950 . S
C2255 C2254 1.373 . S
C2255 C2271 1.377 . S
C2256 C2254 1.389 . S
C2256 C2257 1.524 . S
C2256 C2270 1.377 . S
C2257 C2256 1.524 . S
C2257 C2258 1.397 . S
C2257 C2262 1.363 . S
C2258 H2235 0.950 . S
C2258 C2257 1.397 . S
C2258 C2259 1.334 . S
C2259 H2236 0.950 . S
C2259 C2258 1.334 . S
C2259 C2260 1.287 . S
C2260 C2259 1.287 . S
C2260 C2261 1.524 . S
C2260 H2279 0.913 . S
C2261 H2237 0.950 . S
C2261 C2260 1.524 . S
C2261 C2262 1.415 . S
C2262 H2238 0.950 . S
C2262 C2257 1.363 . S
C2262 C2261 1.415 . S
C2263 H2239 0.951 . S
C2263 C2264 1.366 . S
C2263 C2265 1.388 . S
C2264 C2263 1.366 . S
C2264 C2268 1.385 . S
C2265 H2240 0.951 . S
C2265 C2263 1.388 . S
C2265 C2266 1.366 . S
C2266 C2265 1.366 . S
C2266 C2267 1.414 . S
C2266 C2269 1.499 . S
C2267 H2241 0.950 . S
C2267 C2266 1.414 . S
C2267 C2268 1.374 . S
C2268 H2242 0.950 . S
C2268 C2264 1.385 . S
C2268 C2267 1.374 . S
C2269 C2266 1.499 . S
C2269 C2270 1.373 . S
C2269 C2271 1.389 . S
C2270 H2243 0.950 . S
C2270 C2256 1.377 . S
C2270 C2269 1.373 . S
C2271 C2255 1.377 . S
C2271 C2269 1.389 . S
C2271 C2272 1.524 . S
C2272 C2271 1.524 . S
C2272 C2273 1.397 . S
C2272 C2277 1.363 . S
C2273 H2244 0.950 . S
C2273 C2272 1.397 . S
C2273 C2274 1.334 . S
C2274 H2245 0.950 . S
C2274 C2273 1.334 . S
C2274 C2275 1.287 . S
C2275 C2274 1.287 . S
C2275 C2276 1.524 . S
C2275 H2278 0.999 . S
C2276 H2246 0.950 . S
C2276 C2275 1.524 . S
C2276 C2277 1.415 . S
C2277 H2247 0.950 . S
C2277 C2272 1.363 . S
C2277 C2276 1.415 . S
H2278 C2275 0.999 . S
H2279 C2260 0.913 . S
H2280 C2298 0.951 . S
H2281 C2300 0.951 . S
H2282 C2302 0.950 . S
H2283 C2303 0.950 . S
H2284 C2305 0.950 . S
H2285 C2308 0.950 . S
H2286 C2309 0.950 . S
H2287 C2311 0.950 . S
H2288 C2312 0.950 . S
H2289 C2313 0.951 . S
H2290 C2315 0.951 . S
H2291 C2317 0.950 . S
H2292 C2318 0.950 . S
H2293 C2320 0.950 . S
H2294 C2323 0.950 . S
H2295 C2324 0.950 . S
H2296 C2326 0.950 . S
H2297 C2327 0.950 . S
C2298 H2280 0.951 . S
C2298 C2299 1.366 . S
C2298 C2300 1.388 . S
C2299 C2298 1.366 . S
C2299 C2303 1.385 . S
C2300 H2281 0.951 . S
C2300 C2298 1.388 . S
C2300 C2301 1.366 . S
C2301 C2300 1.366 . S
C2301 C2302 1.414 . S
C2301 C2304 1.499 . S
C2302 H2282 0.950 . S
C2302 C2301 1.414 . S
C2302 C2303 1.374 . S
C2303 H2283 0.950 . S
C2303 C2299 1.385 . S
C2303 C2302 1.374 . S
C2304 C2301 1.499 . S
C2304 C2305 1.373 . S
C2304 C2306 1.389 . S
C2305 H2284 0.950 . S
C2305 C2304 1.373 . S
C2305 C2321 1.377 . S
C2306 C2304 1.389 . S
C2306 C2307 1.524 . S
C2306 C2320 1.377 . S
C2307 C2306 1.524 . S
C2307 C2308 1.397 . S
C2307 C2312 1.363 . S
C2308 H2285 0.950 . S
C2308 C2307 1.397 . S
C2308 C2309 1.334 . S
C2309 H2286 0.950 . S
C2309 C2308 1.334 . S
C2309 C2310 1.287 . S
C2310 C2309 1.287 . S
C2310 C2311 1.524 . S
C2310 H2329 0.913 . S
C2311 H2287 0.950 . S
C2311 C2310 1.524 . S
C2311 C2312 1.415 . S
C2312 H2288 0.950 . S
C2312 C2307 1.363 . S
C2312 C2311 1.415 . S
C2313 H2289 0.951 . S
C2313 C2314 1.366 . S
C2313 C2315 1.388 . S
C2314 C2313 1.366 . S
C2314 C2318 1.385 . S
C2315 H2290 0.951 . S
C2315 C2313 1.388 . S
C2315 C2316 1.366 . S
C2316 C2315 1.366 . S
C2316 C2317 1.414 . S
C2316 C2319 1.499 . S
C2317 H2291 0.950 . S
C2317 C2316 1.414 . S
C2317 C2318 1.374 . S
C2318 H2292 0.950 . S
C2318 C2314 1.385 . S
C2318 C2317 1.374 . S
C2319 C2316 1.499 . S
C2319 C2320 1.373 . S
C2319 C2321 1.389 . S
C2320 H2293 0.950 . S
C2320 C2306 1.377 . S
C2320 C2319 1.373 . S
C2321 C2305 1.377 . S
C2321 C2319 1.389 . S
C2321 C2322 1.524 . S
C2322 C2321 1.524 . S
C2322 C2323 1.397 . S
C2322 C2327 1.363 . S
C2323 H2294 0.950 . S
C2323 C2322 1.397 . S
C2323 C2324 1.334 . S
C2324 H2295 0.950 . S
C2324 C2323 1.334 . S
C2324 C2325 1.287 . S
C2325 C2324 1.287 . S
C2325 C2326 1.524 . S
C2325 H2328 0.999 . S
C2326 H2296 0.950 . S
C2326 C2325 1.524 . S
C2326 C2327 1.415 . S
C2327 H2297 0.950 . S
C2327 C2322 1.363 . S
C2327 C2326 1.415 . S
H2328 C2325 0.999 . S
H2329 C2310 0.913 . S
H2330 C2348 0.951 . S
H2331 C2350 0.951 . S
H2332 C2352 0.950 . S
H2333 C2353 0.950 . S
H2334 C2355 0.950 . S
H2335 C2358 0.950 . S
H2336 C2359 0.950 . S
H2337 C2361 0.950 . S
H2338 C2362 0.950 . S
H2339 C2363 0.951 . S
H2340 C2365 0.951 . S
H2341 C2367 0.950 . S
H2342 C2368 0.950 . S
H2343 C2370 0.950 . S
H2344 C2373 0.950 . S
H2345 C2374 0.950 . S
H2346 C2376 0.950 . S
H2347 C2377 0.950 . S
C2348 H2330 0.951 . S
C2348 C2349 1.366 . S
C2348 C2350 1.388 . S
C2349 C2348 1.366 . S
C2349 C2353 1.385 . S
C2350 H2331 0.951 . S
C2350 C2348 1.388 . S
C2350 C2351 1.366 . S
C2351 C2350 1.366 . S
C2351 C2352 1.414 . S
C2351 C2354 1.499 . S
C2352 H2332 0.950 . S
C2352 C2351 1.414 . S
C2352 C2353 1.374 . S
C2353 H2333 0.950 . S
C2353 C2349 1.385 . S
C2353 C2352 1.374 . S
C2354 C2351 1.499 . S
C2354 C2355 1.373 . S
C2354 C2356 1.389 . S
C2355 H2334 0.950 . S
C2355 C2354 1.373 . S
C2355 C2371 1.377 . S
C2356 C2354 1.389 . S
C2356 C2357 1.524 . S
C2356 C2370 1.377 . S
C2357 C2356 1.524 . S
C2357 C2358 1.397 . S
C2357 C2362 1.363 . S
C2358 H2335 0.950 . S
C2358 C2357 1.397 . S
C2358 C2359 1.334 . S
C2359 H2336 0.950 . S
C2359 C2358 1.334 . S
C2359 C2360 1.287 . S
C2360 C2359 1.287 . S
C2360 C2361 1.524 . S
C2360 H2379 0.913 . S
C2361 H2337 0.950 . S
C2361 C2360 1.524 . S
C2361 C2362 1.415 . S
C2362 H2338 0.950 . S
C2362 C2357 1.363 . S
C2362 C2361 1.415 . S
C2363 H2339 0.951 . S
C2363 C2364 1.366 . S
C2363 C2365 1.388 . S
C2364 C2363 1.366 . S
C2364 C2368 1.385 . S
C2365 H2340 0.951 . S
C2365 C2363 1.388 . S
C2365 C2366 1.366 . S
C2366 C2365 1.366 . S
C2366 C2367 1.414 . S
C2366 C2369 1.499 . S
C2367 H2341 0.950 . S
C2367 C2366 1.414 . S
C2367 C2368 1.374 . S
C2368 H2342 0.950 . S
C2368 C2364 1.385 . S
C2368 C2367 1.374 . S
C2369 C2366 1.499 . S
C2369 C2370 1.373 . S
C2369 C2371 1.389 . S
C2370 H2343 0.950 . S
C2370 C2356 1.377 . S
C2370 C2369 1.373 . S
C2371 C2355 1.377 . S
C2371 C2369 1.389 . S
C2371 C2372 1.524 . S
C2372 C2371 1.524 . S
C2372 C2373 1.397 . S
C2372 C2377 1.363 . S
C2373 H2344 0.950 . S
C2373 C2372 1.397 . S
C2373 C2374 1.334 . S
C2374 H2345 0.950 . S
C2374 C2373 1.334 . S
C2374 C2375 1.287 . S
C2375 C2374 1.287 . S
C2375 C2376 1.524 . S
C2375 H2378 0.999 . S
C2376 H2346 0.950 . S
C2376 C2375 1.524 . S
C2376 C2377 1.415 . S
C2377 H2347 0.950 . S
C2377 C2372 1.363 . S
C2377 C2376 1.415 . S
H2378 C2375 0.999 . S
H2379 C2360 0.913 . S
H2380 C2398 0.951 . S
H2381 C2400 0.951 . S
H2382 C2402 0.950 . S
H2383 C2403 0.950 . S
H2384 C2405 0.950 . S
H2385 C2408 0.950 . S
H2386 C2409 0.950 . S
H2387 C2411 0.950 . S
H2388 C2412 0.950 . S
H2389 C2413 0.951 . S
H2390 C2415 0.951 . S
H2391 C2417 0.950 . S
H2392 C2418 0.950 . S
H2393 C2420 0.950 . S
H2394 C2423 0.950 . S
H2395 C2424 0.950 . S
H2396 C2426 0.950 . S
H2397 C2427 0.950 . S
C2398 H2380 0.951 . S
C2398 C2399 1.366 . S
C2398 C2400 1.388 . S
C2399 C2398 1.366 . S
C2399 C2403 1.385 . S
C2400 H2381 0.951 . S
C2400 C2398 1.388 . S
C2400 C2401 1.366 . S
C2401 C2400 1.366 . S
C2401 C2402 1.414 . S
C2401 C2404 1.499 . S
C2402 H2382 0.950 . S
C2402 C2401 1.414 . S
C2402 C2403 1.374 . S
C2403 H2383 0.950 . S
C2403 C2399 1.385 . S
C2403 C2402 1.374 . S
C2404 C2401 1.499 . S
C2404 C2405 1.373 . S
C2404 C2406 1.389 . S
C2405 H2384 0.950 . S
C2405 C2404 1.373 . S
C2405 C2421 1.377 . S
C2406 C2404 1.389 . S
C2406 C2407 1.524 . S
C2406 C2420 1.377 . S
C2407 C2406 1.524 . S
C2407 C2408 1.397 . S
C2407 C2412 1.363 . S
C2408 H2385 0.950 . S
C2408 C2407 1.397 . S
C2408 C2409 1.334 . S
C2409 H2386 0.950 . S
C2409 C2408 1.334 . S
C2409 C2410 1.287 . S
C2410 C2409 1.287 . S
C2410 C2411 1.524 . S
C2410 H2429 0.913 . S
C2411 H2387 0.950 . S
C2411 C2410 1.524 . S
C2411 C2412 1.415 . S
C2412 H2388 0.950 . S
C2412 C2407 1.363 . S
C2412 C2411 1.415 . S
C2413 H2389 0.951 . S
C2413 C2414 1.366 . S
C2413 C2415 1.388 . S
C2414 C2413 1.366 . S
C2414 C2418 1.385 . S
C2415 H2390 0.951 . S
C2415 C2413 1.388 . S
C2415 C2416 1.366 . S
C2416 C2415 1.366 . S
C2416 C2417 1.414 . S
C2416 C2419 1.499 . S
C2417 H2391 0.950 . S
C2417 C2416 1.414 . S
C2417 C2418 1.374 . S
C2418 H2392 0.950 . S
C2418 C2414 1.385 . S
C2418 C2417 1.374 . S
C2419 C2416 1.499 . S
C2419 C2420 1.373 . S
C2419 C2421 1.389 . S
C2420 H2393 0.950 . S
C2420 C2406 1.377 . S
C2420 C2419 1.373 . S
C2421 C2405 1.377 . S
C2421 C2419 1.389 . S
C2421 C2422 1.524 . S
C2422 C2421 1.524 . S
C2422 C2423 1.397 . S
C2422 C2427 1.363 . S
C2423 H2394 0.950 . S
C2423 C2422 1.397 . S
C2423 C2424 1.334 . S
C2424 H2395 0.950 . S
C2424 C2423 1.334 . S
C2424 C2425 1.287 . S
C2425 C2424 1.287 . S
C2425 C2426 1.524 . S
C2425 H2428 0.999 . S
C2426 H2396 0.950 . S
C2426 C2425 1.524 . S
C2426 C2427 1.415 . S
C2427 H2397 0.950 . S
C2427 C2422 1.363 . S
C2427 C2426 1.415 . S
H2428 C2425 0.999 . S
H2429 C2410 0.913 . S
H2430 C2448 0.951 . S
H2431 C2450 0.951 . S
H2432 C2452 0.950 . S
H2433 C2453 0.950 . S
H2434 C2455 0.950 . S
H2435 C2458 0.950 . S
H2436 C2459 0.950 . S
H2437 C2461 0.950 . S
H2438 C2462 0.950 . S
H2439 C2463 0.951 . S
H2440 C2465 0.951 . S
H2441 C2467 0.950 . S
H2442 C2468 0.950 . S
H2443 C2470 0.950 . S
H2444 C2473 0.950 . S
H2445 C2474 0.950 . S
H2446 C2476 0.950 . S
H2447 C2477 0.950 . S
C2448 H2430 0.951 . S
C2448 C2449 1.366 . S
C2448 C2450 1.388 . S
C2449 C2448 1.366 . S
C2449 C2453 1.385 . S
C2450 H2431 0.951 . S
C2450 C2448 1.388 . S
C2450 C2451 1.366 . S
C2451 C2450 1.366 . S
C2451 C2452 1.414 . S
C2451 C2454 1.499 . S
C2452 H2432 0.950 . S
C2452 C2451 1.414 . S
C2452 C2453 1.374 . S
C2453 H2433 0.950 . S
C2453 C2449 1.385 . S
C2453 C2452 1.374 . S
C2454 C2451 1.499 . S
C2454 C2455 1.373 . S
C2454 C2456 1.389 . S
C2455 H2434 0.950 . S
C2455 C2454 1.373 . S
C2455 C2471 1.377 . S
C2456 C2454 1.389 . S
C2456 C2457 1.524 . S
C2456 C2470 1.377 . S
C2457 C2456 1.524 . S
C2457 C2458 1.397 . S
C2457 C2462 1.363 . S
C2458 H2435 0.950 . S
C2458 C2457 1.397 . S
C2458 C2459 1.334 . S
C2459 H2436 0.950 . S
C2459 C2458 1.334 . S
C2459 C2460 1.287 . S
C2460 C2459 1.287 . S
C2460 C2461 1.524 . S
C2460 H2479 0.913 . S
C2461 H2437 0.950 . S
C2461 C2460 1.524 . S
C2461 C2462 1.415 . S
C2462 H2438 0.950 . S
C2462 C2457 1.363 . S
C2462 C2461 1.415 . S
C2463 H2439 0.951 . S
C2463 C2464 1.366 . S
C2463 C2465 1.388 . S
C2464 C2463 1.366 . S
C2464 C2468 1.385 . S
C2465 H2440 0.951 . S
C2465 C2463 1.388 . S
C2465 C2466 1.366 . S
C2466 C2465 1.366 . S
C2466 C2467 1.414 . S
C2466 C2469 1.499 . S
C2467 H2441 0.950 . S
C2467 C2466 1.414 . S
C2467 C2468 1.374 . S
C2468 H2442 0.950 . S
C2468 C2464 1.385 . S
C2468 C2467 1.374 . S
C2469 C2466 1.499 . S
C2469 C2470 1.373 . S
C2469 C2471 1.389 . S
C2470 H2443 0.950 . S
C2470 C2456 1.377 . S
C2470 C2469 1.373 . S
C2471 C2455 1.377 . S
C2471 C2469 1.389 . S
C2471 C2472 1.524 . S
C2472 C2471 1.524 . S
C2472 C2473 1.397 . S
C2472 C2477 1.363 . S
C2473 H2444 0.950 . S
C2473 C2472 1.397 . S
C2473 C2474 1.334 . S
C2474 H2445 0.950 . S
C2474 C2473 1.334 . S
C2474 C2475 1.287 . S
C2475 C2474 1.287 . S
C2475 C2476 1.524 . S
C2475 H2478 0.999 . S
C2476 H2446 0.950 . S
C2476 C2475 1.524 . S
C2476 C2477 1.415 . S
C2477 H2447 0.950 . S
C2477 C2472 1.363 . S
C2477 C2476 1.415 . S
H2478 C2475 0.999 . S
H2479 C2460 0.913 . S
H2480 C2498 0.951 . S
H2481 C2500 0.951 . S
H2482 C2502 0.950 . S
H2483 C2503 0.950 . S
H2484 C2505 0.950 . S
H2485 C2508 0.950 . S
H2486 C2509 0.950 . S
H2487 C2511 0.950 . S
H2488 C2512 0.950 . S
H2489 C2513 0.951 . S
H2490 C2515 0.951 . S
H2491 C2517 0.950 . S
H2492 C2518 0.950 . S
H2493 C2520 0.950 . S
H2494 C2523 0.950 . S
H2495 C2524 0.950 . S
H2496 C2526 0.950 . S
H2497 C2527 0.950 . S
C2498 H2480 0.951 . S
C2498 C2499 1.366 . S
C2498 C2500 1.388 . S
C2499 C2498 1.366 . S
C2499 C2503 1.385 . S
C2500 H2481 0.951 . S
C2500 C2498 1.388 . S
C2500 C2501 1.366 . S
C2501 C2500 1.366 . S
C2501 C2502 1.414 . S
C2501 C2504 1.499 . S
C2502 H2482 0.950 . S
C2502 C2501 1.414 . S
C2502 C2503 1.374 . S
C2503 H2483 0.950 . S
C2503 C2499 1.385 . S
C2503 C2502 1.374 . S
C2504 C2501 1.499 . S
C2504 C2505 1.373 . S
C2504 C2506 1.389 . S
C2505 H2484 0.950 . S
C2505 C2504 1.373 . S
C2505 C2521 1.377 . S
C2506 C2504 1.389 . S
C2506 C2507 1.524 . S
C2506 C2520 1.377 . S
C2507 C2506 1.524 . S
C2507 C2508 1.397 . S
C2507 C2512 1.363 . S
C2508 H2485 0.950 . S
C2508 C2507 1.397 . S
C2508 C2509 1.334 . S
C2509 H2486 0.950 . S
C2509 C2508 1.334 . S
C2509 C2510 1.287 . S
C2510 C2509 1.287 . S
C2510 C2511 1.524 . S
C2510 H2529 0.913 . S
C2511 H2487 0.950 . S
C2511 C2510 1.524 . S
C2511 C2512 1.415 . S
C2512 H2488 0.950 . S
C2512 C2507 1.363 . S
C2512 C2511 1.415 . S
C2513 H2489 0.951 . S
C2513 C2514 1.366 . S
C2513 C2515 1.388 . S
C2514 C2513 1.366 . S
C2514 C2518 1.385 . S
C2515 H2490 0.951 . S
C2515 C2513 1.388 . S
C2515 C2516 1.366 . S
C2516 C2515 1.366 . S
C2516 C2517 1.414 . S
C2516 C2519 1.499 . S
C2517 H2491 0.950 . S
C2517 C2516 1.414 . S
C2517 C2518 1.374 . S
C2518 H2492 0.950 . S
C2518 C2514 1.385 . S
C2518 C2517 1.374 . S
C2519 C2516 1.499 . S
C2519 C2520 1.373 . S
C2519 C2521 1.389 . S
C2520 H2493 0.950 . S
C2520 C2506 1.377 . S
C2520 C2519 1.373 . S
C2521 C2505 1.377 . S
C2521 C2519 1.389 . S
C2521 C2522 1.524 . S
C2522 C2521 1.524 . S
C2522 C2523 1.397 . S
C2522 C2527 1.363 . S
C2523 H2494 0.950 . S
C2523 C2522 1.397 . S
C2523 C2524 1.334 . S
C2524 H2495 0.950 . S
C2524 C2523 1.334 . S
C2524 C2525 1.287 . S
C2525 C2524 1.287 . S
C2525 C2526 1.524 . S
C2525 H2528 0.999 . S
C2526 H2496 0.950 . S
C2526 C2525 1.524 . S
C2526 C2527 1.415 . S
C2527 H2497 0.950 . S
C2527 C2522 1.363 . S
C2527 C2526 1.415 . S
H2528 C2525 0.999 . S
H2529 C2510 0.913 . S
H2530 C2548 0.951 . S
H2531 C2550 0.951 . S
H2532 C2552 0.950 . S
H2533 C2553 0.950 . S
H2534 C2555 0.950 . S
H2535 C2558 0.950 . S
H2536 C2559 0.950 . S
H2537 C2561 0.950 . S
H2538 C2562 0.950 . S
H2539 C2563 0.951 . S
H2540 C2565 0.951 . S
H2541 C2567 0.950 . S
H2542 C2568 0.950 . S
H2543 C2570 0.950 . S
H2544 C2573 0.950 . S
H2545 C2574 0.950 . S
H2546 C2576 0.950 . S
H2547 C2577 0.950 . S
C2548 H2530 0.951 . S
C2548 C2549 1.366 . S
C2548 C2550 1.388 . S
C2549 C2548 1.366 . S
C2549 C2553 1.385 . S
C2550 H2531 0.951 . S
C2550 C2548 1.388 . S
C2550 C2551 1.366 . S
C2551 C2550 1.366 . S
C2551 C2552 1.414 . S
C2551 C2554 1.499 . S
C2552 H2532 0.950 . S
C2552 C2551 1.414 . S
C2552 C2553 1.374 . S
C2553 H2533 0.950 . S
C2553 C2549 1.385 . S
C2553 C2552 1.374 . S
C2554 C2551 1.499 . S
C2554 C2555 1.373 . S
C2554 C2556 1.389 . S
C2555 H2534 0.950 . S
C2555 C2554 1.373 . S
C2555 C2571 1.377 . S
C2556 C2554 1.389 . S
C2556 C2557 1.524 . S
C2556 C2570 1.377 . S
C2557 C2556 1.524 . S
C2557 C2558 1.397 . S
C2557 C2562 1.363 . S
C2558 H2535 0.950 . S
C2558 C2557 1.397 . S
C2558 C2559 1.334 . S
C2559 H2536 0.950 . S
C2559 C2558 1.334 . S
C2559 C2560 1.287 . S
C2560 C2559 1.287 . S
C2560 C2561 1.524 . S
C2560 H2579 0.913 . S
C2561 H2537 0.950 . S
C2561 C2560 1.524 . S
C2561 C2562 1.415 . S
C2562 H2538 0.950 . S
C2562 C2557 1.363 . S
C2562 C2561 1.415 . S
C2563 H2539 0.951 . S
C2563 C2564 1.366 . S
C2563 C2565 1.388 . S
C2564 C2563 1.366 . S
C2564 C2568 1.385 . S
C2565 H2540 0.951 . S
C2565 C2563 1.388 . S
C2565 C2566 1.366 . S
C2566 C2565 1.366 . S
C2566 C2567 1.414 . S
C2566 C2569 1.499 . S
C2567 H2541 0.950 . S
C2567 C2566 1.414 . S
C2567 C2568 1.374 . S
C2568 H2542 0.950 . S
C2568 C2564 1.385 . S
C2568 C2567 1.374 . S
C2569 C2566 1.499 . S
C2569 C2570 1.373 . S
C2569 C2571 1.389 . S
C2570 H2543 0.950 . S
C2570 C2556 1.377 . S
C2570 C2569 1.373 . S
C2571 C2555 1.377 . S
C2571 C2569 1.389 . S
C2571 C2572 1.524 . S
C2572 C2571 1.524 . S
C2572 C2573 1.397 . S
C2572 C2577 1.363 . S
C2573 H2544 0.950 . S
C2573 C2572 1.397 . S
C2573 C2574 1.334 . S
C2574 H2545 0.950 . S
C2574 C2573 1.334 . S
C2574 C2575 1.287 . S
C2575 C2574 1.287 . S
C2575 C2576 1.524 . S
C2575 H2578 0.999 . S
C2576 H2546 0.950 . S
C2576 C2575 1.524 . S
C2576 C2577 1.415 . S
C2577 H2547 0.950 . S
C2577 C2572 1.363 . S
C2577 C2576 1.415 . S
H2578 C2575 0.999 . S
H2579 C2560 0.913 . S
H2580 C2598 0.951 . S
H2581 C2600 0.951 . S
H2582 C2602 0.950 . S
H2583 C2603 0.950 . S
H2584 C2605 0.950 . S
H2585 C2608 0.950 . S
H2586 C2609 0.950 . S
H2587 C2611 0.950 . S
H2588 C2612 0.950 . S
H2589 C2613 0.951 . S
H2590 C2615 0.951 . S
H2591 C2617 0.950 . S
H2592 C2618 0.950 . S
H2593 C2620 0.950 . S
H2594 C2623 0.950 . S
H2595 C2624 0.950 . S
H2596 C2626 0.950 . S
H2597 C2627 0.950 . S
C2598 H2580 0.951 . S
C2598 C2599 1.366 . S
C2598 C2600 1.388 . S
C2599 C2598 1.366 . S
C2599 C2603 1.385 . S
C2600 H2581 0.951 . S
C2600 C2598 1.388 . S
C2600 C2601 1.366 . S
C2601 C2600 1.366 . S
C2601 C2602 1.414 . S
C2601 C2604 1.499 . S
C2602 H2582 0.950 . S
C2602 C2601 1.414 . S
C2602 C2603 1.374 . S
C2603 H2583 0.950 . S
C2603 C2599 1.385 . S
C2603 C2602 1.374 . S
C2604 C2601 1.499 . S
C2604 C2605 1.373 . S
C2604 C2606 1.389 . S
C2605 H2584 0.950 . S
C2605 C2604 1.373 . S
C2605 C2621 1.377 . S
C2606 C2604 1.389 . S
C2606 C2607 1.524 . S
C2606 C2620 1.377 . S
C2607 C2606 1.524 . S
C2607 C2608 1.397 . S
C2607 C2612 1.363 . S
C2608 H2585 0.950 . S
C2608 C2607 1.397 . S
C2608 C2609 1.334 . S
C2609 H2586 0.950 . S
C2609 C2608 1.334 . S
C2609 C2610 1.287 . S
C2610 C2609 1.287 . S
C2610 C2611 1.524 . S
C2610 H2629 0.913 . S
C2611 H2587 0.950 . S
C2611 C2610 1.524 . S
C2611 C2612 1.415 . S
C2612 H2588 0.950 . S
C2612 C2607 1.363 . S
C2612 C2611 1.415 . S
C2613 H2589 0.951 . S
C2613 C2614 1.366 . S
C2613 C2615 1.388 . S
C2614 C2613 1.366 . S
C2614 C2618 1.385 . S
C2615 H2590 0.951 . S
C2615 C2613 1.388 . S
C2615 C2616 1.366 . S
C2616 C2615 1.366 . S
C2616 C2617 1.414 . S
C2616 C2619 1.499 . S
C2617 H2591 0.950 . S
C2617 C2616 1.414 . S
C2617 C2618 1.374 . S
C2618 H2592 0.950 . S
C2618 C2614 1.385 . S
C2618 C2617 1.374 . S
C2619 C2616 1.499 . S
C2619 C2620 1.373 . S
C2619 C2621 1.389 . S
C2620 H2593 0.950 . S
C2620 C2606 1.377 . S
C2620 C2619 1.373 . S
C2621 C2605 1.377 . S
C2621 C2619 1.389 . S
C2621 C2622 1.524 . S
C2622 C2621 1.524 . S
C2622 C2623 1.397 . S
C2622 C2627 1.363 . S
C2623 H2594 0.950 . S
C2623 C2622 1.397 . S
C2623 C2624 1.334 . S
C2624 H2595 0.950 . S
C2624 C2623 1.334 . S
C2624 C2625 1.287 . S
C2625 C2624 1.287 . S
C2625 C2626 1.524 . S
C2625 H2628 0.999 . S
C2626 H2596 0.950 . S
C2626 C2625 1.524 . S
C2626 C2627 1.415 . S
C2627 H2597 0.950 . S
C2627 C2622 1.363 . S
C2627 C2626 1.415 . S
H2628 C2625 0.999 . S
H2629 C2610 0.913 . S
H2630 C2648 0.951 . S
H2631 C2650 0.951 . S
H2632 C2652 0.950 . S
H2633 C2653 0.950 . S
H2634 C2655 0.950 . S
H2635 C2658 0.950 . S
H2636 C2659 0.950 . S
H2637 C2661 0.950 . S
H2638 C2662 0.950 . S
H2639 C2663 0.951 . S
H2640 C2665 0.951 . S
H2641 C2667 0.950 . S
H2642 C2668 0.950 . S
H2643 C2670 0.950 . S
H2644 C2673 0.950 . S
H2645 C2674 0.950 . S
H2646 C2676 0.950 . S
H2647 C2677 0.950 . S
C2648 H2630 0.951 . S
C2648 C2649 1.366 . S
C2648 C2650 1.388 . S
C2649 C2648 1.366 . S
C2649 C2653 1.385 . S
C2650 H2631 0.951 . S
C2650 C2648 1.388 . S
C2650 C2651 1.366 . S
C2651 C2650 1.366 . S
C2651 C2652 1.414 . S
C2651 C2654 1.499 . S
C2652 H2632 0.950 . S
C2652 C2651 1.414 . S
C2652 C2653 1.374 . S
C2653 H2633 0.950 . S
C2653 C2649 1.385 . S
C2653 C2652 1.374 . S
C2654 C2651 1.499 . S
C2654 C2655 1.373 . S
C2654 C2656 1.389 . S
C2655 H2634 0.950 . S
C2655 C2654 1.373 . S
C2655 C2671 1.377 . S
C2656 C2654 1.389 . S
C2656 C2657 1.524 . S
C2656 C2670 1.377 . S
C2657 C2656 1.524 . S
C2657 C2658 1.397 . S
C2657 C2662 1.363 . S
C2658 H2635 0.950 . S
C2658 C2657 1.397 . S
C2658 C2659 1.334 . S
C2659 H2636 0.950 . S
C2659 C2658 1.334 . S
C2659 C2660 1.287 . S
C2660 C2659 1.287 . S
C2660 C2661 1.524 . S
C2660 H2679 0.913 . S
C2661 H2637 0.950 . S
C2661 C2660 1.524 . S
C2661 C2662 1.415 . S
C2662 H2638 0.950 . S
C2662 C2657 1.363 . S
C2662 C2661 1.415 . S
C2663 H2639 0.951 . S
C2663 C2664 1.366 . S
C2663 C2665 1.388 . S
C2664 C2663 1.366 . S
C2664 C2668 1.385 . S
C2665 H2640 0.951 . S
C2665 C2663 1.388 . S
C2665 C2666 1.366 . S
C2666 C2665 1.366 . S
C2666 C2667 1.414 . S
C2666 C2669 1.499 . S
C2667 H2641 0.950 . S
C2667 C2666 1.414 . S
C2667 C2668 1.374 . S
C2668 H2642 0.950 . S
C2668 C2664 1.385 . S
C2668 C2667 1.374 . S
C2669 C2666 1.499 . S
C2669 C2670 1.373 . S
C2669 C2671 1.389 . S
C2670 H2643 0.950 . S
C2670 C2656 1.377 . S
C2670 C2669 1.373 . S
C2671 C2655 1.377 . S
C2671 C2669 1.389 . S
C2671 C2672 1.524 . S
C2672 C2671 1.524 . S
C2672 C2673 1.397 . S
C2672 C2677 1.363 . S
C2673 H2644 0.950 . S
C2673 C2672 1.397 . S
C2673 C2674 1.334 . S
C2674 H2645 0.950 . S
C2674 C2673 1.334 . S
C2674 C2675 1.287 . S
C2675 C2674 1.287 . S
C2675 C2676 1.524 . S
C2675 H2678 0.999 . S
C2676 H2646 0.950 . S
C2676 C2675 1.524 . S
C2676 C2677 1.415 . S
C2677 H2647 0.950 . S
C2677 C2672 1.363 . S
C2677 C2676 1.415 . S
H2678 C2675 0.999 . S
H2679 C2660 0.913 . S
H2680 C2698 0.951 . S
H2681 C2700 0.951 . S
H2682 C2702 0.950 . S
H2683 C2703 0.950 . S
H2684 C2705 0.950 . S
H2685 C2708 0.950 . S
H2686 C2709 0.950 . S
H2687 C2711 0.950 . S
H2688 C2712 0.950 . S
H2689 C2713 0.951 . S
H2690 C2715 0.951 . S
H2691 C2717 0.950 . S
H2692 C2718 0.950 . S
H2693 C2720 0.950 . S
H2694 C2723 0.950 . S
H2695 C2724 0.950 . S
H2696 C2726 0.950 . S
H2697 C2727 0.950 . S
C2698 H2680 0.951 . S
C2698 C2699 1.366 . S
C2698 C2700 1.388 . S
C2699 C2698 1.366 . S
C2699 C2703 1.385 . S
C2700 H2681 0.951 . S
C2700 C2698 1.388 . S
C2700 C2701 1.366 . S
C2701 C2700 1.366 . S
C2701 C2702 1.414 . S
C2701 C2704 1.499 . S
C2702 H2682 0.950 . S
C2702 C2701 1.414 . S
C2702 C2703 1.374 . S
C2703 H2683 0.950 . S
C2703 C2699 1.385 . S
C2703 C2702 1.374 . S
C2704 C2701 1.499 . S
C2704 C2705 1.373 . S
C2704 C2706 1.389 . S
C2705 H2684 0.950 . S
C2705 C2704 1.373 . S
C2705 C2721 1.377 . S
C2706 C2704 1.389 . S
C2706 C2707 1.524 . S
C2706 C2720 1.377 . S
C2707 C2706 1.524 . S
C2707 C2708 1.397 . S
C2707 C2712 1.363 . S
C2708 H2685 0.950 . S
C2708 C2707 1.397 . S
C2708 C2709 1.334 . S
C2709 H2686 0.950 . S
C2709 C2708 1.334 . S
C2709 C2710 1.287 . S
C2710 C2709 1.287 . S
C2710 C2711 1.524 . S
C2710 H2729 0.913 . S
C2711 H2687 0.950 . S
C2711 C2710 1.524 . S
C2711 C2712 1.415 . S
C2712 H2688 0.950 . S
C2712 C2707 1.363 . S
C2712 C2711 1.415 . S
C2713 H2689 0.951 . S
C2713 C2714 1.366 . S
C2713 C2715 1.388 . S
C2714 C2713 1.366 . S
C2714 C2718 1.385 . S
C2715 H2690 0.951 . S
C2715 C2713 1.388 . S
C2715 C2716 1.366 . S
C2716 C2715 1.366 . S
C2716 C2717 1.414 . S
C2716 C2719 1.499 . S
C2717 H2691 0.950 . S
C2717 C2716 1.414 . S
C2717 C2718 1.374 . S
C2718 H2692 0.950 . S
C2718 C2714 1.385 . S
C2718 C2717 1.374 . S
C2719 C2716 1.499 . S
C2719 C2720 1.373 . S
C2719 C2721 1.389 . S
C2720 H2693 0.950 . S
C2720 C2706 1.377 . S
C2720 C2719 1.373 . S
C2721 C2705 1.377 . S
C2721 C2719 1.389 . S
C2721 C2722 1.524 . S
C2722 C2721 1.524 . S
C2722 C2723 1.397 . S
C2722 C2727 1.363 . S
C2723 H2694 0.950 . S
C2723 C2722 1.397 . S
C2723 C2724 1.334 . S
C2724 H2695 0.950 . S
C2724 C2723 1.334 . S
C2724 C2725 1.287 . S
C2725 C2724 1.287 . S
C2725 C2726 1.524 . S
C2725 H2728 0.999 . S
C2726 H2696 0.950 . S
C2726 C2725 1.524 . S
C2726 C2727 1.415 . S
C2727 H2697 0.950 . S
C2727 C2722 1.363 . S
C2727 C2726 1.415 . S
H2728 C2725 0.999 . S
H2729 C2710 0.913 . S
H2730 C2748 0.951 . S
H2731 C2750 0.951 . S
H2732 C2752 0.950 . S
H2733 C2753 0.950 . S
H2734 C2755 0.950 . S
H2735 C2758 0.950 . S
H2736 C2759 0.950 . S
H2737 C2761 0.950 . S
H2738 C2762 0.950 . S
H2739 C2763 0.951 . S
H2740 C2765 0.951 . S
H2741 C2767 0.950 . S
H2742 C2768 0.950 . S
H2743 C2770 0.950 . S
H2744 C2773 0.950 . S
H2745 C2774 0.950 . S
H2746 C2776 0.950 . S
H2747 C2777 0.950 . S
C2748 H2730 0.951 . S
C2748 C2749 1.366 . S
C2748 C2750 1.388 . S
C2749 C2748 1.366 . S
C2749 C2753 1.385 . S
C2750 H2731 0.951 . S
C2750 C2748 1.388 . S
C2750 C2751 1.366 . S
C2751 C2750 1.366 . S
C2751 C2752 1.414 . S
C2751 C2754 1.499 . S
C2752 H2732 0.950 . S
C2752 C2751 1.414 . S
C2752 C2753 1.374 . S
C2753 H2733 0.950 . S
C2753 C2749 1.385 . S
C2753 C2752 1.374 . S
C2754 C2751 1.499 . S
C2754 C2755 1.373 . S
C2754 C2756 1.389 . S
C2755 H2734 0.950 . S
C2755 C2754 1.373 . S
C2755 C2771 1.377 . S
C2756 C2754 1.389 . S
C2756 C2757 1.524 . S
C2756 C2770 1.377 . S
C2757 C2756 1.524 . S
C2757 C2758 1.397 . S
C2757 C2762 1.363 . S
C2758 H2735 0.950 . S
C2758 C2757 1.397 . S
C2758 C2759 1.334 . S
C2759 H2736 0.950 . S
C2759 C2758 1.334 . S
C2759 C2760 1.287 . S
C2760 C2759 1.287 . S
C2760 C2761 1.524 . S
C2760 H2779 0.913 . S
C2761 H2737 0.950 . S
C2761 C2760 1.524 . S
C2761 C2762 1.415 . S
C2762 H2738 0.950 . S
C2762 C2757 1.363 . S
C2762 C2761 1.415 . S
C2763 H2739 0.951 . S
C2763 C2764 1.366 . S
C2763 C2765 1.388 . S
C2764 C2763 1.366 . S
C2764 C2768 1.385 . S
C2765 H2740 0.951 . S
C2765 C2763 1.388 . S
C2765 C2766 1.366 . S
C2766 C2765 1.366 . S
C2766 C2767 1.414 . S
C2766 C2769 1.499 . S
C2767 H2741 0.950 . S
C2767 C2766 1.414 . S
C2767 C2768 1.374 . S
C2768 H2742 0.950 . S
C2768 C2764 1.385 . S
C2768 C2767 1.374 . S
C2769 C2766 1.499 . S
C2769 C2770 1.373 . S
C2769 C2771 1.389 . S
C2770 H2743 0.950 . S
C2770 C2756 1.377 . S
C2770 C2769 1.373 . S
C2771 C2755 1.377 . S
C2771 C2769 1.389 . S
C2771 C2772 1.524 . S
C2772 C2771 1.524 . S
C2772 C2773 1.397 . S
C2772 C2777 1.363 . S
C2773 H2744 0.950 . S
C2773 C2772 1.397 . S
C2773 C2774 1.334 . S
C2774 H2745 0.950 . S
C2774 C2773 1.334 . S
C2774 C2775 1.287 . S
C2775 C2774 1.287 . S
C2775 C2776 1.524 . S
C2775 H2778 0.999 . S
C2776 H2746 0.950 . S
C2776 C2775 1.524 . S
C2776 C2777 1.415 . S
C2777 H2747 0.950 . S
C2777 C2772 1.363 . S
C2777 C2776 1.415 . S
H2778 C2775 0.999 . S
H2779 C2760 0.913 . S
H2780 C2798 0.951 . S
H2781 C2800 0.951 . S
H2782 C2802 0.950 . S
H2783 C2803 0.950 . S
H2784 C2805 0.950 . S
H2785 C2808 0.950 . S
H2786 C2809 0.950 . S
H2787 C2811 0.950 . S
H2788 C2812 0.950 . S
H2789 C2813 0.951 . S
H2790 C2815 0.951 . S
H2791 C2817 0.950 . S
H2792 C2818 0.950 . S
H2793 C2820 0.950 . S
H2794 C2823 0.950 . S
H2795 C2824 0.950 . S
H2796 C2826 0.950 . S
H2797 C2827 0.950 . S
C2798 H2780 0.951 . S
C2798 C2799 1.366 . S
C2798 C2800 1.388 . S
C2799 C2798 1.366 . S
C2799 C2803 1.385 . S
C2800 H2781 0.951 . S
C2800 C2798 1.388 . S
C2800 C2801 1.366 . S
C2801 C2800 1.366 . S
C2801 C2802 1.414 . S
C2801 C2804 1.499 . S
C2802 H2782 0.950 . S
C2802 C2801 1.414 . S
C2802 C2803 1.374 . S
C2803 H2783 0.950 . S
C2803 C2799 1.385 . S
C2803 C2802 1.374 . S
C2804 C2801 1.499 . S
C2804 C2805 1.373 . S
C2804 C2806 1.389 . S
C2805 H2784 0.950 . S
C2805 C2804 1.373 . S
C2805 C2821 1.377 . S
C2806 C2804 1.389 . S
C2806 C2807 1.524 . S
C2806 C2820 1.377 . S
C2807 C2806 1.524 . S
C2807 C2808 1.397 . S
C2807 C2812 1.363 . S
C2808 H2785 0.950 . S
C2808 C2807 1.397 . S
C2808 C2809 1.334 . S
C2809 H2786 0.950 . S
C2809 C2808 1.334 . S
C2809 C2810 1.287 . S
C2810 C2809 1.287 . S
C2810 C2811 1.524 . S
C2810 H2829 0.913 . S
C2811 H2787 0.950 . S
C2811 C2810 1.524 . S
C2811 C2812 1.415 . S
C2812 H2788 0.950 . S
C2812 C2807 1.363 . S
C2812 C2811 1.415 . S
C2813 H2789 0.951 . S
C2813 C2814 1.366 . S
C2813 C2815 1.388 . S
C2814 C2813 1.366 . S
C2814 C2818 1.385 . S
C2815 H2790 0.951 . S
C2815 C2813 1.388 . S
C2815 C2816 1.366 . S
C2816 C2815 1.366 . S
C2816 C2817 1.414 . S
C2816 C2819 1.499 . S
C2817 H2791 0.950 . S
C2817 C2816 1.414 . S
C2817 C2818 1.374 . S
C2818 H2792 0.950 . S
C2818 C2814 1.385 . S
C2818 C2817 1.374 . S
C2819 C2816 1.499 . S
C2819 C2820 1.373 . S
C2819 C2821 1.389 . S
C2820 H2793 0.950 . S
C2820 C2806 1.377 . S
C2820 C2819 1.373 . S
C2821 C2805 1.377 . S
C2821 C2819 1.389 . S
C2821 C2822 1.524 . S
C2822 C2821 1.524 . S
C2822 C2823 1.397 . S
C2822 C2827 1.363 . S
C2823 H2794 0.950 . S
C2823 C2822 1.397 . S
C2823 C2824 1.334 . S
C2824 H2795 0.950 . S
C2824 C2823 1.334 . S
C2824 C2825 1.287 . S
C2825 C2824 1.287 . S
C2825 C2826 1.524 . S
C2825 H2828 0.999 . S
C2826 H2796 0.950 . S
C2826 C2825 1.524 . S
C2826 C2827 1.415 . S
C2827 H2797 0.950 . S
C2827 C2822 1.363 . S
C2827 C2826 1.415 . S
H2828 C2825 0.999 . S
H2829 C2810 0.913 . S
H2830 C2848 0.951 . S
H2831 C2850 0.951 . S
H2832 C2852 0.950 . S
H2833 C2853 0.950 . S
H2834 C2855 0.950 . S
H2835 C2858 0.950 . S
H2836 C2859 0.950 . S
H2837 C2861 0.950 . S
H2838 C2862 0.950 . S
H2839 C2863 0.951 . S
H2840 C2865 0.951 . S
H2841 C2867 0.950 . S
H2842 C2868 0.950 . S
H2843 C2870 0.950 . S
H2844 C2873 0.950 . S
H2845 C2874 0.950 . S
H2846 C2876 0.950 . S
H2847 C2877 0.950 . S
C2848 H2830 0.951 . S
C2848 C2849 1.366 . S
C2848 C2850 1.388 . S
C2849 C2848 1.366 . S
C2849 C2853 1.385 . S
C2850 H2831 0.951 . S
C2850 C2848 1.388 . S
C2850 C2851 1.366 . S
C2851 C2850 1.366 . S
C2851 C2852 1.414 . S
C2851 C2854 1.499 . S
C2852 H2832 0.950 . S
C2852 C2851 1.414 . S
C2852 C2853 1.374 . S
C2853 H2833 0.950 . S
C2853 C2849 1.385 . S
C2853 C2852 1.374 . S
C2854 C2851 1.499 . S
C2854 C2855 1.373 . S
C2854 C2856 1.389 . S
C2855 H2834 0.950 . S
C2855 C2854 1.373 . S
C2855 C2871 1.377 . S
C2856 C2854 1.389 . S
C2856 C2857 1.524 . S
C2856 C2870 1.377 . S
C2857 C2856 1.524 . S
C2857 C2858 1.397 . S
C2857 C2862 1.363 . S
C2858 H2835 0.950 . S
C2858 C2857 1.397 . S
C2858 C2859 1.334 . S
C2859 H2836 0.950 . S
C2859 C2858 1.334 . S
C2859 C2860 1.287 . S
C2860 C2859 1.287 . S
C2860 C2861 1.524 . S
C2860 H2879 0.913 . S
C2861 H2837 0.950 . S
C2861 C2860 1.524 . S
C2861 C2862 1.415 . S
C2862 H2838 0.950 . S
C2862 C2857 1.363 . S
C2862 C2861 1.415 . S
C2863 H2839 0.951 . S
C2863 C2864 1.366 . S
C2863 C2865 1.388 . S
C2864 C2863 1.366 . S
C2864 C2868 1.385 . S
C2865 H2840 0.951 . S
C2865 C2863 1.388 . S
C2865 C2866 1.366 . S
C2866 C2865 1.366 . S
C2866 C2867 1.414 . S
C2866 C2869 1.499 . S
C2867 H2841 0.950 . S
C2867 C2866 1.414 . S
C2867 C2868 1.374 . S
C2868 H2842 0.950 . S
C2868 C2864 1.385 . S
C2868 C2867 1.374 . S
C2869 C2866 1.499 . S
C2869 C2870 1.373 . S
C2869 C2871 1.389 . S
C2870 H2843 0.950 . S
C2870 C2856 1.377 . S
C2870 C2869 1.373 . S
C2871 C2855 1.377 . S
C2871 C2869 1.389 . S
C2871 C2872 1.524 . S
C2872 C2871 1.524 . S
C2872 C2873 1.397 . S
C2872 C2877 1.363 . S
C2873 H2844 0.950 . S
C2873 C2872 1.397 . S
C2873 C2874 1.334 . S
C2874 H2845 0.950 . S
C2874 C2873 1.334 . S
C2874 C2875 1.287 . S
C2875 C2874 1.287 . S
C2875 C2876 1.524 . S
C2875 H2878 0.999 . S
C2876 H2846 0.950 . S
C2876 C2875 1.524 . S
C2876 C2877 1.415 . S
C2877 H2847 0.950 . S
C2877 C2872 1.363 . S
C2877 C2876 1.415 . S
H2878 C2875 0.999 . S
H2879 C2860 0.913 . S
H2880 C2898 0.951 . S
H2881 C2900 0.951 . S
H2882 C2902 0.950 . S
H2883 C2903 0.950 . S
H2884 C2905 0.950 . S
H2885 C2908 0.950 . S
H2886 C2909 0.950 . S
H2887 C2911 0.950 . S
H2888 C2912 0.950 . S
H2889 C2913 0.951 . S
H2890 C2915 0.951 . S
H2891 C2917 0.950 . S
H2892 C2918 0.950 . S
H2893 C2920 0.950 . S
H2894 C2923 0.950 . S
H2895 C2924 0.950 . S
H2896 C2926 0.950 . S
H2897 C2927 0.950 . S
C2898 H2880 0.951 . S
C2898 C2899 1.366 . S
C2898 C2900 1.388 . S
C2899 C2898 1.366 . S
C2899 C2903 1.385 . S
C2900 H2881 0.951 . S
C2900 C2898 1.388 . S
C2900 C2901 1.366 . S
C2901 C2900 1.366 . S
C2901 C2902 1.414 . S
C2901 C2904 1.499 . S
C2902 H2882 0.950 . S
C2902 C2901 1.414 . S
C2902 C2903 1.374 . S
C2903 H2883 0.950 . S
C2903 C2899 1.385 . S
C2903 C2902 1.374 . S
C2904 C2901 1.499 . S
C2904 C2905 1.373 . S
C2904 C2906 1.389 . S
C2905 H2884 0.950 . S
C2905 C2904 1.373 . S
C2905 C2921 1.377 . S
C2906 C2904 1.389 . S
C2906 C2907 1.524 . S
C2906 C2920 1.377 . S
C2907 C2906 1.524 . S
C2907 C2908 1.397 . S
C2907 C2912 1.363 . S
C2908 H2885 0.950 . S
C2908 C2907 1.397 . S
C2908 C2909 1.334 . S
C2909 H2886 0.950 . S
C2909 C2908 1.334 . S
C2909 C2910 1.287 . S
C2910 C2909 1.287 . S
C2910 C2911 1.524 . S
C2910 H2929 0.913 . S
C2911 H2887 0.950 . S
C2911 C2910 1.524 . S
C2911 C2912 1.415 . S
C2912 H2888 0.950 . S
C2912 C2907 1.363 . S
C2912 C2911 1.415 . S
C2913 H2889 0.951 . S
C2913 C2914 1.366 . S
C2913 C2915 1.388 . S
C2914 C2913 1.366 . S
C2914 C2918 1.385 . S
C2915 H2890 0.951 . S
C2915 C2913 1.388 . S
C2915 C2916 1.366 . S
C2916 C2915 1.366 . S
C2916 C2917 1.414 . S
C2916 C2919 1.499 . S
C2917 H2891 0.950 . S
C2917 C2916 1.414 . S
C2917 C2918 1.374 . S
C2918 H2892 0.950 . S
C2918 C2914 1.385 . S
C2918 C2917 1.374 . S
C2919 C2916 1.499 . S
C2919 C2920 1.373 . S
C2919 C2921 1.389 . S
C2920 H2893 0.950 . S
C2920 C2906 1.377 . S
C2920 C2919 1.373 . S
C2921 C2905 1.377 . S
C2921 C2919 1.389 . S
C2921 C2922 1.524 . S
C2922 C2921 1.524 . S
C2922 C2923 1.397 . S
C2922 C2927 1.363 . S
C2923 H2894 0.950 . S
C2923 C2922 1.397 . S
C2923 C2924 1.334 . S
C2924 H2895 0.950 . S
C2924 C2923 1.334 . S
C2924 C2925 1.287 . S
C2925 C2924 1.287 . S
C2925 C2926 1.524 . S
C2925 H2928 0.999 . S
C2926 H2896 0.950 . S
C2926 C2925 1.524 . S
C2926 C2927 1.415 . S
C2927 H2897 0.950 . S
C2927 C2922 1.363 . S
C2927 C2926 1.415 . S
H2928 C2925 0.999 . S
H2929 C2910 0.913 . S
H2930 C2948 0.951 . S
H2931 C2950 0.951 . S
H2932 C2952 0.950 . S
H2933 C2953 0.950 . S
H2934 C2955 0.950 . S
H2935 C2958 0.950 . S
H2936 C2959 0.950 . S
H2937 C2961 0.950 . S
H2938 C2962 0.950 . S
H2939 C2963 0.951 . S
H2940 C2965 0.951 . S
H2941 C2967 0.950 . S
H2942 C2968 0.950 . S
H2943 C2970 0.950 . S
H2944 C2973 0.950 . S
H2945 C2974 0.950 . S
H2946 C2976 0.950 . S
H2947 C2977 0.950 . S
C2948 H2930 0.951 . S
C2948 C2949 1.366 . S
C2948 C2950 1.388 . S
C2949 C2948 1.366 . S
C2949 C2953 1.385 . S
C2950 H2931 0.951 . S
C2950 C2948 1.388 . S
C2950 C2951 1.366 . S
C2951 C2950 1.366 . S
C2951 C2952 1.414 . S
C2951 C2954 1.499 . S
C2952 H2932 0.950 . S
C2952 C2951 1.414 . S
C2952 C2953 1.374 . S
C2953 H2933 0.950 . S
C2953 C2949 1.385 . S
C2953 C2952 1.374 . S
C2954 C2951 1.499 . S
C2954 C2955 1.373 . S
C2954 C2956 1.389 . S
C2955 H2934 0.950 . S
C2955 C2954 1.373 . S
C2955 C2971 1.377 . S
C2956 C2954 1.389 . S
C2956 C2957 1.524 . S
C2956 C2970 1.377 . S
C2957 C2956 1.524 . S
C2957 C2958 1.397 . S
C2957 C2962 1.363 . S
C2958 H2935 0.950 . S
C2958 C2957 1.397 . S
C2958 C2959 1.334 . S
C2959 H2936 0.950 . S
C2959 C2958 1.334 . S
C2959 C2960 1.287 . S
C2960 C2959 1.287 . S
C2960 C2961 1.524 . S
C2960 H2979 0.913 . S
C2961 H2937 0.950 . S
C2961 C2960 1.524 . S
C2961 C2962 1.415 . S
C2962 H2938 0.950 . S
C2962 C2957 1.363 . S
C2962 C2961 1.415 . S
C2963 H2939 0.951 . S
C2963 C2964 1.366 . S
C2963 C2965 1.388 . S
C2964 C2963 1.366 . S
C2964 C2968 1.385 . S
C2965 H2940 0.951 . S
C2965 C2963 1.388 . S
C2965 C2966 1.366 1_655 S
C2966 C2965 1.366 1_455 S
C2966 C2967 1.414 . S
C2966 C2969 1.499 . S
C2967 H2941 0.950 . S
C2967 C2966 1.414 . S
C2967 C2968 1.374 1_455 S
C2968 H2942 0.950 . S
C2968 C2964 1.385 . S
C2968 C2967 1.374 1_655 S
C2969 C2966 1.499 . S
C2969 C2970 1.373 . S
C2969 C2971 1.389 . S
C2970 H2943 0.950 . S
C2970 C2956 1.377 . S
C2970 C2969 1.373 . S
C2971 C2955 1.377 . S
C2971 C2969 1.389 . S
C2971 C2972 1.524 . S
C2972 C2971 1.524 . S
C2972 C2973 1.397 . S
C2972 C2977 1.363 . S
C2973 H2944 0.950 . S
C2973 C2972 1.397 . S
C2973 C2974 1.334 1_455 S
C2974 H2945 0.950 . S
C2974 C2973 1.334 1_655 S
C2974 C2975 1.287 . S
C2975 C2974 1.287 . S
C2975 C2976 1.524 . S
C2975 H2978 0.999 . S
C2976 H2946 0.950 . S
C2976 C2975 1.524 . S
C2976 C2977 1.415 1_655 S
C2977 H2947 0.950 . S
C2977 C2972 1.363 . S
C2977 C2976 1.415 1_455 S
H2978 C2975 0.999 . S
H2979 C2960 0.913 . S
H2980 C2998 0.951 . S
H2981 C3000 0.951 . S
H2982 C3002 0.950 . S
H2983 C3003 0.950 . S
H2984 C3005 0.950 . S
H2985 C3008 0.950 . S
H2986 C3009 0.950 . S
H2987 C3011 0.950 . S
H2988 C3012 0.950 . S
H2989 C3013 0.951 . S
H2990 C3015 0.951 . S
H2991 C3017 0.950 . S
H2992 C3018 0.950 . S
H2993 C3020 0.950 . S
H2994 C3023 0.950 . S
H2995 C3024 0.950 . S
H2996 C3026 0.950 . S
H2997 C3027 0.950 . S
C2998 H2980 0.951 . S
C2998 C2999 1.366 . S
C2998 C3000 1.388 . S
C2999 C2998 1.366 . S
C2999 C3003 1.385 . S
C3000 H2981 0.951 . S
C3000 C2998 1.388 . S
C3000 C3001 1.366 . S
C3001 C3000 1.366 . S
C3001 C3002 1.414 . S
C3001 C3004 1.499 . S
C3002 H2982 0.950 . S
C3002 C3001 1.414 . S
C3002 C3003 1.374 . S
C3003 H2983 0.950 . S
C3003 C2999 1.385 . S
C3003 C3002 1.374 . S
C3004 C3001 1.499 . S
C3004 C3005 1.373 . S
C3004 C3006 1.389 . S
C3005 H2984 0.950 . S
C3005 C3004 1.373 . S
C3005 C3021 1.377 . S
C3006 C3004 1.389 . S
C3006 C3007 1.524 . S
C3006 C3020 1.377 . S
C3007 C3006 1.524 . S
C3007 C3008 1.397 . S
C3007 C3012 1.363 . S
C3008 H2985 0.950 . S
C3008 C3007 1.397 . S
C3008 C3009 1.334 . S
C3009 H2986 0.950 . S
C3009 C3008 1.334 . S
C3009 C3010 1.287 . S
C3010 C3009 1.287 . S
C3010 C3011 1.524 . S
C3010 H3029 0.913 . S
C3011 H2987 0.950 . S
C3011 C3010 1.524 . S
C3011 C3012 1.415 . S
C3012 H2988 0.950 . S
C3012 C3007 1.363 . S
C3012 C3011 1.415 . S
C3013 H2989 0.951 . S
C3013 C3014 1.366 . S
C3013 C3015 1.388 . S
C3014 C3013 1.366 . S
C3014 C3018 1.385 . S
C3015 H2990 0.951 . S
C3015 C3013 1.388 . S
C3015 C3016 1.366 . S
C3016 C3015 1.366 . S
C3016 C3017 1.414 . S
C3016 C3019 1.499 . S
C3017 H2991 0.950 . S
C3017 C3016 1.414 . S
C3017 C3018 1.374 . S
C3018 H2992 0.950 . S
C3018 C3014 1.385 . S
C3018 C3017 1.374 . S
C3019 C3016 1.499 . S
C3019 C3020 1.373 . S
C3019 C3021 1.389 . S
C3020 H2993 0.950 . S
C3020 C3006 1.377 . S
C3020 C3019 1.373 . S
C3021 C3005 1.377 . S
C3021 C3019 1.389 . S
C3021 C3022 1.524 . S
C3022 C3021 1.524 . S
C3022 C3023 1.397 . S
C3022 C3027 1.363 . S
C3023 H2994 0.950 . S
C3023 C3022 1.397 . S
C3023 C3024 1.334 . S
C3024 H2995 0.950 . S
C3024 C3023 1.334 . S
C3024 C3025 1.287 . S
C3025 C3024 1.287 . S
C3025 C3026 1.524 . S
C3025 H3028 0.999 . S
C3026 H2996 0.950 . S
C3026 C3025 1.524 . S
C3026 C3027 1.415 . S
C3027 H2997 0.950 . S
C3027 C3022 1.363 . S
C3027 C3026 1.415 . S
H3028 C3025 0.999 . S
H3029 C3010 0.913 . S
H3030 C3048 0.951 . S
H3031 C3050 0.951 . S
H3032 C3052 0.950 . S
H3033 C3053 0.950 . S
H3034 C3055 0.950 . S
H3035 C3058 0.950 . S
H3036 C3059 0.950 . S
H3037 C3061 0.950 . S
H3038 C3062 0.950 . S
H3039 C3063 0.951 . S
H3040 C3065 0.951 . S
H3041 C3067 0.950 . S
H3042 C3068 0.950 . S
H3043 C3070 0.950 . S
H3044 C3073 0.950 . S
H3045 C3074 0.950 . S
H3046 C3076 0.950 . S
H3047 C3077 0.950 . S
C3048 H3030 0.951 . S
C3048 C3049 1.366 . S
C3048 C3050 1.388 . S
C3049 C3048 1.366 . S
C3049 C3053 1.385 . S
C3050 H3031 0.951 . S
C3050 C3048 1.388 . S
C3050 C3051 1.366 . S
C3051 C3050 1.366 . S
C3051 C3052 1.414 . S
C3051 C3054 1.499 . S
C3052 H3032 0.950 . S
C3052 C3051 1.414 . S
C3052 C3053 1.374 . S
C3053 H3033 0.950 . S
C3053 C3049 1.385 . S
C3053 C3052 1.374 . S
C3054 C3051 1.499 . S
C3054 C3055 1.373 . S
C3054 C3056 1.389 . S
C3055 H3034 0.950 . S
C3055 C3054 1.373 . S
C3055 C3071 1.377 . S
C3056 C3054 1.389 . S
C3056 C3057 1.524 . S
C3056 C3070 1.377 . S
C3057 C3056 1.524 . S
C3057 C3058 1.397 . S
C3057 C3062 1.363 . S
C3058 H3035 0.950 . S
C3058 C3057 1.397 . S
C3058 C3059 1.334 . S
C3059 H3036 0.950 . S
C3059 C3058 1.334 . S
C3059 C3060 1.287 . S
C3060 C3059 1.287 . S
C3060 C3061 1.524 . S
C3060 H3079 0.913 . S
C3061 H3037 0.950 . S
C3061 C3060 1.524 . S
C3061 C3062 1.415 . S
C3062 H3038 0.950 . S
C3062 C3057 1.363 . S
C3062 C3061 1.415 . S
C3063 H3039 0.951 . S
C3063 C3064 1.366 . S
C3063 C3065 1.388 . S
C3064 C3063 1.366 . S
C3064 C3068 1.385 . S
C3065 H3040 0.951 . S
C3065 C3063 1.388 . S
C3065 C3066 1.366 . S
C3066 C3065 1.366 . S
C3066 C3067 1.414 . S
C3066 C3069 1.499 . S
C3067 H3041 0.950 . S
C3067 C3066 1.414 . S
C3067 C3068 1.374 . S
C3068 H3042 0.950 . S
C3068 C3064 1.385 . S
C3068 C3067 1.374 . S
C3069 C3066 1.499 . S
C3069 C3070 1.373 . S
C3069 C3071 1.389 . S
C3070 H3043 0.950 . S
C3070 C3056 1.377 . S
C3070 C3069 1.373 . S
C3071 C3055 1.377 . S
C3071 C3069 1.389 . S
C3071 C3072 1.524 . S
C3072 C3071 1.524 . S
C3072 C3073 1.397 . S
C3072 C3077 1.363 . S
C3073 H3044 0.950 . S
C3073 C3072 1.397 . S
C3073 C3074 1.334 . S
C3074 H3045 0.950 . S
C3074 C3073 1.334 . S
C3074 C3075 1.287 . S
C3075 C3074 1.287 . S
C3075 C3076 1.524 . S
C3075 H3078 0.999 . S
C3076 H3046 0.950 . S
C3076 C3075 1.524 . S
C3076 C3077 1.415 . S
C3077 H3047 0.950 . S
C3077 C3072 1.363 . S
C3077 C3076 1.415 . S
H3078 C3075 0.999 . S
H3079 C3060 0.913 . S
H3080 C3098 0.951 . S
H3081 C3100 0.951 . S
H3082 C3102 0.950 . S
H3083 C3103 0.950 . S
H3084 C3105 0.950 . S
H3085 C3108 0.950 . S
H3086 C3109 0.950 . S
H3087 C3111 0.950 . S
H3088 C3112 0.950 . S
H3089 C3113 0.951 . S
H3090 C3115 0.951 . S
H3091 C3117 0.950 . S
H3092 C3118 0.950 . S
H3093 C3120 0.950 . S
H3094 C3123 0.950 . S
H3095 C3124 0.950 . S
H3096 C3126 0.950 . S
H3097 C3127 0.950 . S
C3098 H3080 0.951 . S
C3098 C3099 1.366 . S
C3098 C3100 1.388 . S
C3099 C3098 1.366 . S
C3099 C3103 1.385 . S
C3100 H3081 0.951 . S
C3100 C3098 1.388 . S
C3100 C3101 1.366 . S
C3101 C3100 1.366 . S
C3101 C3102 1.414 . S
C3101 C3104 1.499 . S
C3102 H3082 0.950 . S
C3102 C3101 1.414 . S
C3102 C3103 1.374 . S
C3103 H3083 0.950 . S
C3103 C3099 1.385 . S
C3103 C3102 1.374 . S
C3104 C3101 1.499 . S
C3104 C3105 1.373 . S
C3104 C3106 1.389 . S
C3105 H3084 0.950 . S
C3105 C3104 1.373 . S
C3105 C3121 1.377 . S
C3106 C3104 1.389 . S
C3106 C3107 1.524 . S
C3106 C3120 1.377 . S
C3107 C3106 1.524 . S
C3107 C3108 1.397 . S
C3107 C3112 1.363 . S
C3108 H3085 0.950 . S
C3108 C3107 1.397 . S
C3108 C3109 1.334 . S
C3109 H3086 0.950 . S
C3109 C3108 1.334 . S
C3109 C3110 1.287 . S
C3110 C3109 1.287 . S
C3110 C3111 1.524 . S
C3110 H3129 0.913 . S
C3111 H3087 0.950 . S
C3111 C3110 1.524 . S
C3111 C3112 1.415 . S
C3112 H3088 0.950 . S
C3112 C3107 1.363 . S
C3112 C3111 1.415 . S
C3113 H3089 0.951 . S
C3113 C3114 1.366 . S
C3113 C3115 1.388 . S
C3114 C3113 1.366 . S
C3114 C3118 1.385 . S
C3115 H3090 0.951 . S
C3115 C3113 1.388 . S
C3115 C3116 1.366 . S
C3116 C3115 1.366 . S
C3116 C3117 1.414 . S
C3116 C3119 1.499 . S
C3117 H3091 0.950 . S
C3117 C3116 1.414 . S
C3117 C3118 1.374 . S
C3118 H3092 0.950 . S
C3118 C3114 1.385 . S
C3118 C3117 1.374 . S
C3119 C3116 1.499 . S
C3119 C3120 1.373 . S
C3119 C3121 1.389 . S
C3120 H3093 0.950 . S
C3120 C3106 1.377 . S
C3120 C3119 1.373 . S
C3121 C3105 1.377 . S
C3121 C3119 1.389 . S
C3121 C3122 1.524 . S
C3122 C3121 1.524 . S
C3122 C3123 1.397 . S
C3122 C3127 1.363 . S
C3123 H3094 0.950 . S
C3123 C3122 1.397 . S
C3123 C3124 1.334 . S
C3124 H3095 0.950 . S
C3124 C3123 1.334 . S
C3124 C3125 1.287 . S
C3125 C3124 1.287 . S
C3125 C3126 1.524 . S
C3125 H3128 0.999 . S
C3126 H3096 0.950 . S
C3126 C3125 1.524 . S
C3126 C3127 1.415 . S
C3127 H3097 0.950 . S
C3127 C3122 1.363 . S
C3127 C3126 1.415 . S
H3128 C3125 0.999 . S
H3129 C3110 0.913 . S
H3130 C3148 0.951 . S
H3131 C3150 0.951 . S
H3132 C3152 0.950 . S
H3133 C3153 0.950 . S
H3134 C3155 0.950 . S
H3135 C3158 0.950 . S
H3136 C3159 0.950 . S
H3137 C3161 0.950 . S
H3138 C3162 0.950 . S
H3139 C3163 0.951 . S
H3140 C3165 0.951 . S
H3141 C3167 0.950 . S
H3142 C3168 0.950 . S
H3143 C3170 0.950 . S
H3144 C3173 0.950 . S
H3145 C3174 0.950 . S
H3146 C3176 0.950 . S
H3147 C3177 0.950 . S
C3148 H3130 0.951 . S
C3148 C3149 1.366 . S
C3148 C3150 1.388 . S
C3149 C3148 1.366 . S
C3149 C3153 1.385 . S
C3150 H3131 0.951 . S
C3150 C3148 1.388 . S
C3150 C3151 1.366 . S
C3151 C3150 1.366 . S
C3151 C3152 1.414 . S
C3151 C3154 1.499 . S
C3152 H3132 0.950 . S
C3152 C3151 1.414 . S
C3152 C3153 1.374 . S
C3153 H3133 0.950 . S
C3153 C3149 1.385 . S
C3153 C3152 1.374 . S
C3154 C3151 1.499 . S
C3154 C3155 1.373 . S
C3154 C3156 1.389 . S
C3155 H3134 0.950 . S
C3155 C3154 1.373 . S
C3155 C3171 1.377 . S
C3156 C3154 1.389 . S
C3156 C3157 1.524 . S
C3156 C3170 1.377 . S
C3157 C3156 1.524 . S
C3157 C3158 1.397 . S
C3157 C3162 1.363 . S
C3158 H3135 0.950 . S
C3158 C3157 1.397 . S
C3158 C3159 1.334 . S
C3159 H3136 0.950 . S
C3159 C3158 1.334 . S
C3159 C3160 1.287 . S
C3160 C3159 1.287 . S
C3160 C3161 1.524 . S
C3160 H3179 0.913 . S
C3161 H3137 0.950 . S
C3161 C3160 1.524 . S
C3161 C3162 1.415 . S
C3162 H3138 0.950 . S
C3162 C3157 1.363 . S
C3162 C3161 1.415 . S
C3163 H3139 0.951 . S
C3163 C3164 1.366 . S
C3163 C3165 1.388 . S
C3164 C3163 1.366 . S
C3164 C3168 1.385 . S
C3165 H3140 0.951 . S
C3165 C3163 1.388 . S
C3165 C3166 1.366 . S
C3166 C3165 1.366 . S
C3166 C3167 1.414 . S
C3166 C3169 1.499 . S
C3167 H3141 0.950 . S
C3167 C3166 1.414 . S
C3167 C3168 1.374 . S
C3168 H3142 0.950 . S
C3168 C3164 1.385 . S
C3168 C3167 1.374 . S
C3169 C3166 1.499 . S
C3169 C3170 1.373 . S
C3169 C3171 1.389 . S
C3170 H3143 0.950 . S
C3170 C3156 1.377 . S
C3170 C3169 1.373 . S
C3171 C3155 1.377 . S
C3171 C3169 1.389 . S
C3171 C3172 1.524 . S
C3172 C3171 1.524 . S
C3172 C3173 1.397 . S
C3172 C3177 1.363 . S
C3173 H3144 0.950 . S
C3173 C3172 1.397 . S
C3173 C3174 1.334 . S
C3174 H3145 0.950 . S
C3174 C3173 1.334 . S
C3174 C3175 1.287 . S
C3175 C3174 1.287 . S
C3175 C3176 1.524 . S
C3175 H3178 0.999 . S
C3176 H3146 0.950 . S
C3176 C3175 1.524 . S
C3176 C3177 1.415 . S
C3177 H3147 0.950 . S
C3177 C3172 1.363 . S
C3177 C3176 1.415 . S
H3178 C3175 0.999 . S
H3179 C3160 0.913 . S
H3180 C3198 0.951 . S
H3181 C3200 0.951 . S
H3182 C3202 0.950 . S
H3183 C3203 0.950 . S
H3184 C3205 0.950 . S
H3185 C3208 0.950 . S
H3186 C3209 0.950 . S
H3187 C3211 0.950 . S
H3188 C3212 0.950 . S
H3189 C3213 0.951 . S
H3190 C3215 0.951 . S
H3191 C3217 0.950 . S
H3192 C3218 0.950 . S
H3193 C3220 0.950 . S
H3194 C3223 0.950 . S
H3195 C3224 0.950 . S
H3196 C3226 0.950 . S
H3197 C3227 0.950 . S
C3198 H3180 0.951 . S
C3198 C3199 1.366 . S
C3198 C3200 1.388 . S
C3199 C3198 1.366 . S
C3199 C3203 1.385 . S
C3200 H3181 0.951 . S
C3200 C3198 1.388 . S
C3200 C3201 1.366 . S
C3201 C3200 1.366 . S
C3201 C3202 1.414 . S
C3201 C3204 1.499 . S
C3202 H3182 0.950 . S
C3202 C3201 1.414 . S
C3202 C3203 1.374 . S
C3203 H3183 0.950 . S
C3203 C3199 1.385 . S
C3203 C3202 1.374 . S
C3204 C3201 1.499 . S
C3204 C3205 1.373 . S
C3204 C3206 1.389 . S
C3205 H3184 0.950 . S
C3205 C3204 1.373 . S
C3205 C3221 1.377 . S
C3206 C3204 1.389 . S
C3206 C3207 1.524 . S
C3206 C3220 1.377 . S
C3207 C3206 1.524 . S
C3207 C3208 1.397 . S
C3207 C3212 1.363 . S
C3208 H3185 0.950 . S
C3208 C3207 1.397 . S
C3208 C3209 1.334 . S
C3209 H3186 0.950 . S
C3209 C3208 1.334 . S
C3209 C3210 1.287 . S
C3210 C3209 1.287 . S
C3210 C3211 1.524 . S
C3210 H3229 0.913 . S
C3211 H3187 0.950 . S
C3211 C3210 1.524 . S
C3211 C3212 1.415 . S
C3212 H3188 0.950 . S
C3212 C3207 1.363 . S
C3212 C3211 1.415 . S
C3213 H3189 0.951 . S
C3213 C3214 1.366 . S
C3213 C3215 1.388 . S
C3214 C3213 1.366 . S
C3214 C3218 1.385 . S
C3215 H3190 0.951 . S
C3215 C3213 1.388 . S
C3215 C3216 1.366 . S
C3216 C3215 1.366 . S
C3216 C3217 1.414 . S
C3216 C3219 1.499 . S
C3217 H3191 0.950 . S
C3217 C3216 1.414 . S
C3217 C3218 1.374 . S
C3218 H3192 0.950 . S
C3218 C3214 1.385 . S
C3218 C3217 1.374 . S
C3219 C3216 1.499 . S
C3219 C3220 1.373 . S
C3219 C3221 1.389 . S
C3220 H3193 0.950 . S
C3220 C3206 1.377 . S
C3220 C3219 1.373 . S
C3221 C3205 1.377 . S
C3221 C3219 1.389 . S
C3221 C3222 1.524 . S
C3222 C3221 1.524 . S
C3222 C3223 1.397 . S
C3222 C3227 1.363 . S
C3223 H3194 0.950 . S
C3223 C3222 1.397 . S
C3223 C3224 1.334 . S
C3224 H3195 0.950 . S
C3224 C3223 1.334 . S
C3224 C3225 1.287 . S
C3225 C3224 1.287 . S
C3225 C3226 1.524 . S
C3225 H3228 0.999 . S
C3226 H3196 0.950 . S
C3226 C3225 1.524 . S
C3226 C3227 1.415 . S
C3227 H3197 0.950 . S
C3227 C3222 1.363 . S
C3227 C3226 1.415 . S
H3228 C3225 0.999 . S
H3229 C3210 0.913 . S
H3230 C3248 0.951 . S
H3231 C3250 0.951 . S
H3232 C3252 0.950 . S
H3233 C3253 0.950 . S
H3234 C3255 0.950 . S
H3235 C3258 0.950 . S
H3236 C3259 0.950 . S
H3237 C3261 0.950 . S
H3238 C3262 0.950 . S
H3239 C3263 0.951 . S
H3240 C3265 0.971 . S
H3241 C3267 0.930 1_455 S
H3242 C3268 0.950 . S
H3243 C3270 0.950 . S
H3244 C3273 0.950 . S
H3245 C3274 0.950 . S
H3246 C3276 0.950 . S
H3247 C3277 0.950 . S
C3248 H3230 0.951 . S
C3248 C3249 1.366 . S
C3248 C3250 1.388 . S
C3249 C3248 1.366 . S
C3249 C3253 1.385 . S
C3250 H3231 0.951 . S
C3250 C3248 1.388 . S
C3250 C3251 1.366 . S
C3251 C3250 1.366 . S
C3251 C3252 1.414 . S
C3251 C3254 1.499 . S
C3252 H3232 0.950 . S
C3252 C3251 1.414 . S
C3252 C3253 1.374 . S
C3253 H3233 0.950 . S
C3253 C3249 1.385 . S
C3253 C3252 1.374 . S
C3254 C3251 1.499 . S
C3254 C3255 1.373 . S
C3254 C3256 1.389 . S
C3255 H3234 0.950 . S
C3255 C3254 1.373 . S
C3255 C3271 1.377 . S
C3256 C3254 1.389 . S
C3256 C3257 1.524 . S
C3256 C3270 1.377 . S
C3257 C3256 1.524 . S
C3257 C3258 1.397 . S
C3257 C3262 1.363 . S
C3258 H3235 0.950 . S
C3258 C3257 1.397 . S
C3258 C3259 1.334 . S
C3259 H3236 0.950 . S
C3259 C3258 1.334 . S
C3259 C3260 1.287 . S
C3260 C3259 1.287 . S
C3260 C3261 1.524 . S
C3260 H3279 0.913 . S
C3261 H3237 0.950 . S
C3261 C3260 1.524 . S
C3261 C3262 1.415 . S
C3262 H3238 0.950 . S
C3262 C3257 1.363 . S
C3262 C3261 1.415 . S
C3263 H3239 0.951 . S
C3263 C3264 1.366 . S
C3263 C3265 1.388 . S
C3264 C3263 1.366 . S
C3264 C3268 1.385 . S
C3265 H3240 0.971 . S
C3265 C3263 1.388 . S
C3265 C3266 1.366 1_655 S
C3266 C3265 1.366 1_455 S
C3266 C3267 1.402 1_455 S
C3266 C3269 1.499 . S
C3267 H3241 0.930 1_655 S
C3267 C3266 1.402 1_655 S
C3267 C3268 1.407 . S
C3268 H3242 0.950 . S
C3268 C3264 1.385 . S
C3268 C3267 1.407 . S
C3269 C3266 1.499 . S
C3269 C3270 1.373 . S
C3269 C3271 1.389 . S
C3270 H3243 0.950 . S
C3270 C3256 1.377 . S
C3270 C3269 1.373 . S
C3271 C3255 1.377 . S
C3271 C3269 1.389 . S
C3271 C3272 1.524 . S
C3272 C3271 1.524 . S
C3272 C3273 1.397 1_455 S
C3272 C3277 1.363 . S
C3273 H3244 0.950 . S
C3273 C3272 1.397 1_655 S
C3273 C3274 1.334 . S
C3274 H3245 0.950 . S
C3274 C3273 1.334 . S
C3274 C3275 1.287 . S
C3275 C3274 1.287 . S
C3275 C3276 1.524 . S
C3275 H3278 0.999 . S
C3276 H3246 0.950 . S
C3276 C3275 1.524 . S
C3276 C3277 1.415 1_655 S
C3277 H3247 0.950 . S
C3277 C3272 1.363 . S
C3277 C3276 1.415 1_455 S
H3278 C3275 0.999 . S
H3279 C3260 0.913 . S
H3280 C3298 0.951 . S
H3281 C3300 0.951 . S
H3282 C3302 0.950 . S
H3283 C3303 0.950 . S
H3284 C3305 0.950 . S
H3285 C3308 0.950 . S
H3286 C3309 0.950 . S
H3287 C3311 0.950 . S
H3288 C3312 0.950 . S
H3289 C3313 0.951 . S
H3290 C3315 0.951 . S
H3291 C3317 0.950 . S
H3292 C3318 0.950 . S
H3293 C3320 0.950 . S
H3294 C3323 0.950 . S
H3295 C3324 0.950 . S
H3296 C3326 0.950 . S
H3297 C3327 0.950 . S
C3298 H3280 0.951 . S
C3298 C3299 1.366 . S
C3298 C3300 1.388 . S
C3299 C3298 1.366 . S
C3299 C3303 1.385 . S
C3300 H3281 0.951 . S
C3300 C3298 1.388 . S
C3300 C3301 1.366 . S
C3301 C3300 1.366 . S
C3301 C3302 1.414 . S
C3301 C3304 1.499 . S
C3302 H3282 0.950 . S
C3302 C3301 1.414 . S
C3302 C3303 1.374 . S
C3303 H3283 0.950 . S
C3303 C3299 1.385 . S
C3303 C3302 1.374 . S
C3304 C3301 1.499 . S
C3304 C3305 1.373 . S
C3304 C3306 1.389 . S
C3305 H3284 0.950 . S
C3305 C3304 1.373 . S
C3305 C3321 1.377 . S
C3306 C3304 1.389 . S
C3306 C3307 1.524 . S
C3306 C3320 1.377 . S
C3307 C3306 1.524 . S
C3307 C3308 1.397 . S
C3307 C3312 1.363 . S
C3308 H3285 0.950 . S
C3308 C3307 1.397 . S
C3308 C3309 1.334 . S
C3309 H3286 0.950 . S
C3309 C3308 1.334 . S
C3309 C3310 1.287 . S
C3310 C3309 1.287 . S
C3310 C3311 1.524 . S
C3310 H3329 0.913 . S
C3311 H3287 0.950 . S
C3311 C3310 1.524 . S
C3311 C3312 1.415 . S
C3312 H3288 0.950 . S
C3312 C3307 1.363 . S
C3312 C3311 1.415 . S
C3313 H3289 0.951 . S
C3313 C3314 1.366 . S
C3313 C3315 1.388 . S
C3314 C3313 1.366 . S
C3314 C3318 1.385 . S
C3315 H3290 0.951 . S
C3315 C3313 1.388 . S
C3315 C3316 1.366 . S
C3316 C3315 1.366 . S
C3316 C3317 1.414 . S
C3316 C3319 1.499 . S
C3317 H3291 0.950 . S
C3317 C3316 1.414 . S
C3317 C3318 1.374 . S
C3318 H3292 0.950 . S
C3318 C3314 1.385 . S
C3318 C3317 1.374 . S
C3319 C3316 1.499 . S
C3319 C3320 1.373 . S
C3319 C3321 1.389 . S
C3320 H3293 0.950 . S
C3320 C3306 1.377 . S
C3320 C3319 1.373 . S
C3321 C3305 1.377 . S
C3321 C3319 1.389 . S
C3321 C3322 1.524 . S
C3322 C3321 1.524 . S
C3322 C3323 1.397 . S
C3322 C3327 1.363 . S
C3323 H3294 0.950 . S
C3323 C3322 1.397 . S
C3323 C3324 1.334 . S
C3324 H3295 0.950 . S
C3324 C3323 1.334 . S
C3324 C3325 1.287 . S
C3325 C3324 1.287 . S
C3325 C3326 1.524 . S
C3325 H3328 0.999 . S
C3326 H3296 0.950 . S
C3326 C3325 1.524 . S
C3326 C3327 1.415 . S
C3327 H3297 0.950 . S
C3327 C3322 1.363 . S
C3327 C3326 1.415 . S
H3328 C3325 0.999 . S
H3329 C3310 0.913 . S
H3330 C3348 0.951 . S
H3331 C3350 0.951 . S
H3332 C3352 0.950 . S
H3333 C3353 0.950 . S
H3334 C3355 0.950 . S
H3335 C3358 0.950 . S
H3336 C3359 0.950 . S
H3337 C3361 0.950 . S
H3338 C3362 0.950 . S
H3339 C3363 0.951 . S
H3340 C3365 0.951 . S
H3341 C3367 0.950 . S
H3342 C3368 0.950 . S
H3343 C3370 0.950 . S
H3344 C3373 0.950 . S
H3345 C3374 0.950 . S
H3346 C3376 0.950 . S
H3347 C3377 0.950 . S
C3348 H3330 0.951 . S
C3348 C3349 1.366 . S
C3348 C3350 1.388 1_455 S
C3349 C3348 1.366 . S
C3349 C3353 1.385 . S
C3350 H3331 0.951 . S
C3350 C3348 1.388 1_655 S
C3350 C3351 1.366 . S
C3351 C3350 1.366 . S
C3351 C3352 1.414 1_655 S
C3351 C3354 1.499 . S
C3352 H3332 0.950 . S
C3352 C3351 1.414 1_455 S
C3352 C3353 1.374 . S
C3353 H3333 0.950 . S
C3353 C3349 1.385 . S
C3353 C3352 1.374 . S
C3354 C3351 1.499 . S
C3354 C3355 1.373 . S
C3354 C3356 1.389 . S
C3355 H3334 0.950 . S
C3355 C3354 1.373 . S
C3355 C3371 1.377 . S
C3356 C3354 1.389 . S
C3356 C3357 1.524 . S
C3356 C3370 1.377 . S
C3357 C3356 1.524 . S
C3357 C3358 1.397 . S
C3357 C3362 1.363 . S
C3358 H3335 0.950 . S
C3358 C3357 1.397 . S
C3358 C3359 1.334 . S
C3359 H3336 0.950 . S
C3359 C3358 1.334 . S
C3359 C3360 1.287 . S
C3360 C3359 1.287 . S
C3360 C3361 1.524 . S
C3360 H3379 0.913 . S
C3361 H3337 0.950 . S
C3361 C3360 1.524 . S
C3361 C3362 1.415 . S
C3362 H3338 0.950 . S
C3362 C3357 1.363 . S
C3362 C3361 1.415 . S
C3363 H3339 0.951 . S
C3363 C3364 1.366 . S
C3363 C3365 1.388 . S
C3364 C3363 1.366 . S
C3364 C3368 1.385 . S
C3365 H3340 0.951 . S
C3365 C3363 1.388 . S
C3365 C3366 1.366 . S
C3366 C3365 1.366 . S
C3366 C3367 1.414 . S
C3366 C3369 1.499 . S
C3367 H3341 0.950 . S
C3367 C3366 1.414 . S
C3367 C3368 1.374 . S
C3368 H3342 0.950 . S
C3368 C3364 1.385 . S
C3368 C3367 1.374 . S
C3369 C3366 1.499 . S
C3369 C3370 1.373 . S
C3369 C3371 1.389 . S
C3370 H3343 0.950 . S
C3370 C3356 1.377 . S
C3370 C3369 1.373 . S
C3371 C3355 1.377 . S
C3371 C3369 1.389 . S
C3371 C3372 1.524 . S
C3372 C3371 1.524 . S
C3372 C3373 1.397 . S
C3372 C3377 1.363 . S
C3373 H3344 0.950 . S
C3373 C3372 1.397 . S
C3373 C3374 1.334 . S
C3374 H3345 0.950 . S
C3374 C3373 1.334 . S
C3374 C3375 1.287 . S
C3375 C3374 1.287 . S
C3375 C3376 1.524 . S
C3375 H3378 0.999 . S
C3376 H3346 0.950 . S
C3376 C3375 1.524 . S
C3376 C3377 1.415 . S
C3377 H3347 0.950 . S
C3377 C3372 1.363 . S
C3377 C3376 1.415 . S
H3378 C3375 0.999 . S
H3379 C3360 0.913 . S
H3380 C3398 0.951 . S
H3381 C3400 0.951 . S
H3382 C3402 0.950 . S
H3383 C3403 0.950 . S
H3384 C3405 0.950 . S
H3385 C3408 0.950 . S
H3386 C3409 0.950 . S
H3387 C3411 0.950 . S
H3388 C3412 0.950 . S
H3389 C3413 0.951 . S
H3390 C3415 0.951 . S
H3391 C3417 0.950 . S
H3392 C3418 0.950 . S
H3393 C3420 0.950 . S
H3394 C3423 0.950 . S
H3395 C3424 0.950 . S
H3396 C3426 0.950 . S
H3397 C3427 0.950 . S
C3398 H3380 0.951 . S
C3398 C3399 1.366 . S
C3398 C3400 1.388 . S
C3399 C3398 1.366 . S
C3399 C3403 1.385 . S
C3400 H3381 0.951 . S
C3400 C3398 1.388 . S
C3400 C3401 1.366 . S
C3401 C3400 1.366 . S
C3401 C3402 1.414 . S
C3401 C3404 1.499 . S
C3402 H3382 0.950 . S
C3402 C3401 1.414 . S
C3402 C3403 1.374 . S
C3403 H3383 0.950 . S
C3403 C3399 1.385 . S
C3403 C3402 1.374 . S
C3404 C3401 1.499 . S
C3404 C3405 1.373 . S
C3404 C3406 1.389 . S
C3405 H3384 0.950 . S
C3405 C3404 1.373 . S
C3405 C3421 1.377 . S
C3406 C3404 1.389 . S
C3406 C3407 1.524 . S
C3406 C3420 1.377 . S
C3407 C3406 1.524 . S
C3407 C3408 1.397 . S
C3407 C3412 1.363 . S
C3408 H3385 0.950 . S
C3408 C3407 1.397 . S
C3408 C3409 1.334 . S
C3409 H3386 0.950 . S
C3409 C3408 1.334 . S
C3409 C3410 1.287 . S
C3410 C3409 1.287 . S
C3410 C3411 1.524 . S
C3410 H3429 0.913 . S
C3411 H3387 0.950 . S
C3411 C3410 1.524 . S
C3411 C3412 1.415 . S
C3412 H3388 0.950 . S
C3412 C3407 1.363 . S
C3412 C3411 1.415 . S
C3413 H3389 0.951 . S
C3413 C3414 1.366 . S
C3413 C3415 1.388 . S
C3414 C3413 1.366 . S
C3414 C3418 1.385 . S
C3415 H3390 0.951 . S
C3415 C3413 1.388 . S
C3415 C3416 1.366 . S
C3416 C3415 1.366 . S
C3416 C3417 1.414 . S
C3416 C3419 1.499 . S
C3417 H3391 0.950 . S
C3417 C3416 1.414 . S
C3417 C3418 1.374 . S
C3418 H3392 0.950 . S
C3418 C3414 1.385 . S
C3418 C3417 1.374 . S
C3419 C3416 1.499 . S
C3419 C3420 1.373 . S
C3419 C3421 1.389 . S
C3420 H3393 0.950 . S
C3420 C3406 1.377 . S
C3420 C3419 1.373 . S
C3421 C3405 1.377 . S
C3421 C3419 1.389 . S
C3421 C3422 1.524 . S
C3422 C3421 1.524 . S
C3422 C3423 1.397 . S
C3422 C3427 1.363 . S
C3423 H3394 0.950 . S
C3423 C3422 1.397 . S
C3423 C3424 1.334 . S
C3424 H3395 0.950 . S
C3424 C3423 1.334 . S
C3424 C3425 1.287 . S
C3425 C3424 1.287 . S
C3425 C3426 1.524 . S
C3425 H3428 0.999 . S
C3426 H3396 0.950 . S
C3426 C3425 1.524 . S
C3426 C3427 1.415 . S
C3427 H3397 0.950 . S
C3427 C3422 1.363 . S
C3427 C3426 1.415 . S
H3428 C3425 0.999 . S
H3429 C3410 0.913 . S
H3430 C3448 0.951 . S
H3431 C3450 0.951 . S
H3432 C3452 0.950 . S
H3433 C3453 0.950 . S
H3434 C3455 0.950 . S
H3435 C3458 0.950 . S
H3436 C3459 0.950 . S
H3437 C3461 0.950 . S
H3438 C3462 0.950 . S
H3439 C3463 0.951 . S
H3440 C3465 0.951 . S
H3441 C3467 0.950 . S
H3442 C3468 0.950 . S
H3443 C3470 0.950 . S
H3444 C3473 0.950 . S
H3445 C3474 0.950 . S
H3446 C3476 0.950 . S
H3447 C3477 0.950 . S
C3448 H3430 0.951 . S
C3448 C3449 1.366 . S
C3448 C3450 1.388 . S
C3449 C3448 1.366 . S
C3449 C3453 1.385 . S
C3450 H3431 0.951 . S
C3450 C3448 1.388 . S
C3450 C3451 1.366 . S
C3451 C3450 1.366 . S
C3451 C3452 1.414 . S
C3451 C3454 1.499 . S
C3452 H3432 0.950 . S
C3452 C3451 1.414 . S
C3452 C3453 1.374 . S
C3453 H3433 0.950 . S
C3453 C3449 1.385 . S
C3453 C3452 1.374 . S
C3454 C3451 1.499 . S
C3454 C3455 1.373 . S
C3454 C3456 1.389 . S
C3455 H3434 0.950 . S
C3455 C3454 1.373 . S
C3455 C3471 1.377 . S
C3456 C3454 1.389 . S
C3456 C3457 1.524 . S
C3456 C3470 1.377 . S
C3457 C3456 1.524 . S
C3457 C3458 1.397 . S
C3457 C3462 1.363 . S
C3458 H3435 0.950 . S
C3458 C3457 1.397 . S
C3458 C3459 1.334 . S
C3459 H3436 0.950 . S
C3459 C3458 1.334 . S
C3459 C3460 1.287 . S
C3460 C3459 1.287 . S
C3460 C3461 1.524 . S
C3460 H3479 0.913 . S
C3461 H3437 0.950 . S
C3461 C3460 1.524 . S
C3461 C3462 1.415 . S
C3462 H3438 0.950 . S
C3462 C3457 1.363 . S
C3462 C3461 1.415 . S
C3463 H3439 0.951 . S
C3463 C3464 1.366 . S
C3463 C3465 1.388 . S
C3464 C3463 1.366 . S
C3464 C3468 1.385 . S
C3465 H3440 0.951 . S
C3465 C3463 1.388 . S
C3465 C3466 1.366 . S
C3466 C3465 1.366 . S
C3466 C3467 1.414 . S
C3466 C3469 1.499 . S
C3467 H3441 0.950 . S
C3467 C3466 1.414 . S
C3467 C3468 1.374 . S
C3468 H3442 0.950 . S
C3468 C3464 1.385 . S
C3468 C3467 1.374 . S
C3469 C3466 1.499 . S
C3469 C3470 1.373 . S
C3469 C3471 1.389 . S
C3470 H3443 0.950 . S
C3470 C3456 1.377 . S
C3470 C3469 1.373 . S
C3471 C3455 1.377 . S
C3471 C3469 1.389 . S
C3471 C3472 1.524 . S
C3472 C3471 1.524 . S
C3472 C3473 1.397 . S
C3472 C3477 1.363 . S
C3473 H3444 0.950 . S
C3473 C3472 1.397 . S
C3473 C3474 1.334 . S
C3474 H3445 0.950 . S
C3474 C3473 1.334 . S
C3474 C3475 1.287 . S
C3475 C3474 1.287 . S
C3475 C3476 1.524 . S
C3475 H3478 0.999 . S
C3476 H3446 0.950 . S
C3476 C3475 1.524 . S
C3476 C3477 1.415 . S
C3477 H3447 0.950 . S
C3477 C3472 1.363 . S
C3477 C3476 1.415 . S
H3478 C3475 0.999 . S
H3479 C3460 0.913 . S
H3480 C3498 0.951 . S
H3481 C3500 0.951 . S
H3482 C3502 0.950 . S
H3483 C3503 0.950 . S
H3484 C3505 0.950 . S
H3485 C3508 0.950 . S
H3486 C3509 0.950 . S
H3487 C3511 0.950 . S
H3488 C3512 0.950 . S
H3489 C3513 0.951 . S
H3490 C3515 0.951 . S
H3491 C3517 0.950 . S
H3492 C3518 0.950 . S
H3493 C3520 0.950 . S
H3494 C3523 0.950 . S
H3495 C3524 0.950 . S
H3496 C3526 0.950 . S
H3497 C3527 0.950 . S
C3498 H3480 0.951 . S
C3498 C3499 1.366 . S
C3498 C3500 1.388 . S
C3499 C3498 1.366 . S
C3499 C3503 1.385 . S
C3500 H3481 0.951 . S
C3500 C3498 1.388 . S
C3500 C3501 1.366 . S
C3501 C3500 1.366 . S
C3501 C3502 1.414 . S
C3501 C3504 1.499 . S
C3502 H3482 0.950 . S
C3502 C3501 1.414 . S
C3502 C3503 1.374 . S
C3503 H3483 0.950 . S
C3503 C3499 1.385 . S
C3503 C3502 1.374 . S
C3504 C3501 1.499 . S
C3504 C3505 1.373 . S
C3504 C3506 1.389 . S
C3505 H3484 0.950 . S
C3505 C3504 1.373 . S
C3505 C3521 1.377 . S
C3506 C3504 1.389 . S
C3506 C3507 1.524 . S
C3506 C3520 1.377 . S
C3507 C3506 1.524 . S
C3507 C3508 1.397 . S
C3507 C3512 1.363 . S
C3508 H3485 0.950 . S
C3508 C3507 1.397 . S
C3508 C3509 1.334 . S
C3509 H3486 0.950 . S
C3509 C3508 1.334 . S
C3509 C3510 1.287 . S
C3510 C3509 1.287 . S
C3510 C3511 1.524 . S
C3510 H3529 0.913 . S
C3511 H3487 0.950 . S
C3511 C3510 1.524 . S
C3511 C3512 1.415 . S
C3512 H3488 0.950 . S
C3512 C3507 1.363 . S
C3512 C3511 1.415 . S
C3513 H3489 0.951 . S
C3513 C3514 1.366 . S
C3513 C3515 1.388 . S
C3514 C3513 1.366 . S
C3514 C3518 1.385 . S
C3515 H3490 0.951 . S
C3515 C3513 1.388 . S
C3515 C3516 1.366 . S
C3516 C3515 1.366 . S
C3516 C3517 1.414 . S
C3516 C3519 1.499 . S
C3517 H3491 0.950 . S
C3517 C3516 1.414 . S
C3517 C3518 1.374 . S
C3518 H3492 0.950 . S
C3518 C3514 1.385 . S
C3518 C3517 1.374 . S
C3519 C3516 1.499 . S
C3519 C3520 1.373 . S
C3519 C3521 1.389 . S
C3520 H3493 0.950 . S
C3520 C3506 1.377 . S
C3520 C3519 1.373 . S
C3521 C3505 1.377 . S
C3521 C3519 1.389 . S
C3521 C3522 1.524 . S
C3522 C3521 1.524 . S
C3522 C3523 1.397 . S
C3522 C3527 1.363 . S
C3523 H3494 0.950 . S
C3523 C3522 1.397 . S
C3523 C3524 1.334 . S
C3524 H3495 0.950 . S
C3524 C3523 1.334 . S
C3524 C3525 1.287 . S
C3525 C3524 1.287 . S
C3525 C3526 1.524 . S
C3525 H3528 0.999 . S
C3526 H3496 0.950 . S
C3526 C3525 1.524 . S
C3526 C3527 1.415 . S
C3527 H3497 0.950 . S
C3527 C3522 1.363 . S
C3527 C3526 1.415 . S
H3528 C3525 0.999 . S
H3529 C3510 0.913 . S
H3530 C3548 0.951 . S
H3531 C3550 0.951 . S
H3532 C3552 0.950 . S
H3533 C3553 0.950 . S
H3534 C3555 0.950 . S
H3535 C3558 0.950 . S
H3536 C3559 0.950 . S
H3537 C3561 0.950 . S
H3538 C3562 0.950 . S
H3539 C3563 0.951 . S
H3540 C3565 0.951 . S
H3541 C3567 0.950 . S
H3542 C3568 0.950 . S
H3543 C3570 0.950 . S
H3544 C3573 0.950 . S
H3545 C3574 0.950 . S
H3546 C3576 0.950 . S
H3547 C3577 0.950 . S
C3548 H3530 0.951 . S
C3548 C3549 1.366 . S
C3548 C3550 1.388 . S
C3549 C3548 1.366 . S
C3549 C3553 1.385 . S
C3550 H3531 0.951 . S
C3550 C3548 1.388 . S
C3550 C3551 1.366 . S
C3551 C3550 1.366 . S
C3551 C3552 1.414 . S
C3551 C3554 1.499 . S
C3552 H3532 0.950 . S
C3552 C3551 1.414 . S
C3552 C3553 1.374 . S
C3553 H3533 0.950 . S
C3553 C3549 1.385 . S
C3553 C3552 1.374 . S
C3554 C3551 1.499 . S
C3554 C3555 1.373 . S
C3554 C3556 1.389 . S
C3555 H3534 0.950 . S
C3555 C3554 1.373 . S
C3555 C3571 1.377 . S
C3556 C3554 1.389 . S
C3556 C3557 1.524 . S
C3556 C3570 1.377 . S
C3557 C3556 1.524 . S
C3557 C3558 1.397 . S
C3557 C3562 1.363 . S
C3558 H3535 0.950 . S
C3558 C3557 1.397 . S
C3558 C3559 1.334 . S
C3559 H3536 0.950 . S
C3559 C3558 1.334 . S
C3559 C3560 1.287 . S
C3560 C3559 1.287 . S
C3560 C3561 1.524 . S
C3560 H3579 0.913 . S
C3561 H3537 0.950 . S
C3561 C3560 1.524 . S
C3561 C3562 1.415 . S
C3562 H3538 0.950 . S
C3562 C3557 1.363 . S
C3562 C3561 1.415 . S
C3563 H3539 0.951 . S
C3563 C3564 1.366 . S
C3563 C3565 1.388 . S
C3564 C3563 1.366 . S
C3564 C3568 1.385 . S
C3565 H3540 0.951 . S
C3565 C3563 1.388 . S
C3565 C3566 1.366 . S
C3566 C3565 1.366 . S
C3566 C3567 1.414 . S
C3566 C3569 1.499 . S
C3567 H3541 0.950 . S
C3567 C3566 1.414 . S
C3567 C3568 1.374 . S
C3568 H3542 0.950 . S
C3568 C3564 1.385 . S
C3568 C3567 1.374 . S
C3569 C3566 1.499 . S
C3569 C3570 1.373 . S
C3569 C3571 1.389 . S
C3570 H3543 0.950 . S
C3570 C3556 1.377 . S
C3570 C3569 1.373 . S
C3571 C3555 1.377 . S
C3571 C3569 1.389 . S
C3571 C3572 1.524 . S
C3572 C3571 1.524 . S
C3572 C3573 1.397 . S
C3572 C3577 1.363 . S
C3573 H3544 0.950 . S
C3573 C3572 1.397 . S
C3573 C3574 1.334 . S
C3574 H3545 0.950 . S
C3574 C3573 1.334 . S
C3574 C3575 1.287 . S
C3575 C3574 1.287 . S
C3575 C3576 1.524 . S
C3575 H3578 0.999 . S
C3576 H3546 0.950 . S
C3576 C3575 1.524 . S
C3576 C3577 1.415 . S
C3577 H3547 0.950 . S
C3577 C3572 1.363 . S
C3577 C3576 1.415 . S
H3578 C3575 0.999 . S
H3579 C3560 0.913 . S
H3580 C3598 0.951 . S
H3581 C3600 0.951 . S
H3582 C3602 0.950 . S
H3583 C3603 0.950 . S
H3584 C3605 0.950 . S
H3585 C3608 0.950 . S
H3586 C3609 0.950 . S
H3587 C3611 0.950 . S
H3588 C3612 0.950 . S
H3589 C3613 0.951 . S
H3590 C3615 0.951 . S
H3591 C3617 0.950 . S
H3592 C3618 0.950 . S
H3593 C3620 0.950 . S
H3594 C3623 0.950 . S
H3595 C3624 0.950 . S
H3596 C3626 0.950 . S
H3597 C3627 0.950 . S
C3598 H3580 0.951 . S
C3598 C3599 1.366 . S
C3598 C3600 1.388 . S
C3599 C3598 1.366 . S
C3599 C3603 1.385 . S
C3600 H3581 0.951 . S
C3600 C3598 1.388 . S
C3600 C3601 1.366 . S
C3601 C3600 1.366 . S
C3601 C3602 1.414 . S
C3601 C3604 1.499 . S
C3602 H3582 0.950 . S
C3602 C3601 1.414 . S
C3602 C3603 1.374 . S
C3603 H3583 0.950 . S
C3603 C3599 1.385 . S
C3603 C3602 1.374 . S
C3604 C3601 1.499 . S
C3604 C3605 1.373 . S
C3604 C3606 1.389 . S
C3605 H3584 0.950 . S
C3605 C3604 1.373 . S
C3605 C3621 1.377 . S
C3606 C3604 1.389 . S
C3606 C3607 1.524 . S
C3606 C3620 1.377 . S
C3607 C3606 1.524 . S
C3607 C3608 1.397 . S
C3607 C3612 1.363 . S
C3608 H3585 0.950 . S
C3608 C3607 1.397 . S
C3608 C3609 1.334 . S
C3609 H3586 0.950 . S
C3609 C3608 1.334 . S
C3609 C3610 1.287 . S
C3610 C3609 1.287 . S
C3610 C3611 1.524 . S
C3610 H3629 0.913 . S
C3611 H3587 0.950 . S
C3611 C3610 1.524 . S
C3611 C3612 1.415 . S
C3612 H3588 0.950 . S
C3612 C3607 1.363 . S
C3612 C3611 1.415 . S
C3613 H3589 0.951 . S
C3613 C3614 1.366 . S
C3613 C3615 1.388 . S
C3614 C3613 1.366 . S
C3614 C3618 1.385 . S
C3615 H3590 0.951 . S
C3615 C3613 1.388 . S
C3615 C3616 1.366 . S
C3616 C3615 1.366 . S
C3616 C3617 1.414 . S
C3616 C3619 1.499 . S
C3617 H3591 0.950 . S
C3617 C3616 1.414 . S
C3617 C3618 1.374 . S
C3618 H3592 0.950 . S
C3618 C3614 1.385 . S
C3618 C3617 1.374 . S
C3619 C3616 1.499 . S
C3619 C3620 1.373 . S
C3619 C3621 1.389 . S
C3620 H3593 0.950 . S
C3620 C3606 1.377 . S
C3620 C3619 1.373 . S
C3621 C3605 1.377 . S
C3621 C3619 1.389 . S
C3621 C3622 1.524 . S
C3622 C3621 1.524 . S
C3622 C3623 1.397 . S
C3622 C3627 1.363 . S
C3623 H3594 0.950 . S
C3623 C3622 1.397 . S
C3623 C3624 1.334 . S
C3624 H3595 0.950 . S
C3624 C3623 1.334 . S
C3624 C3625 1.287 . S
C3625 C3624 1.287 . S
C3625 C3626 1.524 . S
C3625 H3628 0.999 . S
C3626 H3596 0.950 . S
C3626 C3625 1.524 . S
C3626 C3627 1.415 . S
C3627 H3597 0.950 . S
C3627 C3622 1.363 . S
C3627 C3626 1.415 . S
H3628 C3625 0.999 . S
H3629 C3610 0.913 . S
H3630 C3648 0.951 . S
H3631 C3650 0.951 . S
H3632 C3652 0.950 . S
H3633 C3653 0.950 . S
H3634 C3655 0.950 . S
H3635 C3658 0.950 . S
H3636 C3659 0.950 . S
H3637 C3661 0.950 . S
H3638 C3662 0.950 . S
H3639 C3663 0.951 . S
H3640 C3665 0.951 . S
H3641 C3667 0.950 . S
H3642 C3668 0.950 . S
H3643 C3670 0.950 . S
H3644 C3673 0.950 . S
H3645 C3674 0.950 1_455 S
H3646 C3676 0.948 1_455 S
H3647 C3677 0.950 . S
C3648 H3630 0.951 . S
C3648 C3649 1.366 . S
C3648 C3650 1.388 . S
C3649 C3648 1.366 . S
C3649 C3653 1.385 . S
C3650 H3631 0.951 . S
C3650 C3648 1.388 . S
C3650 C3651 1.366 . S
C3651 C3650 1.366 . S
C3651 C3652 1.414 . S
C3651 C3654 1.499 . S
C3652 H3632 0.950 . S
C3652 C3651 1.414 . S
C3652 C3653 1.374 . S
C3653 H3633 0.950 . S
C3653 C3649 1.385 . S
C3653 C3652 1.374 . S
C3654 C3651 1.499 . S
C3654 C3655 1.373 . S
C3654 C3656 1.389 . S
C3655 H3634 0.950 . S
C3655 C3654 1.373 . S
C3655 C3671 1.377 . S
C3656 C3654 1.389 . S
C3656 C3657 1.524 . S
C3656 C3670 1.377 . S
C3657 C3656 1.524 . S
C3657 C3658 1.397 . S
C3657 C3662 1.363 . S
C3658 H3635 0.950 . S
C3658 C3657 1.397 . S
C3658 C3659 1.334 . S
C3659 H3636 0.950 . S
C3659 C3658 1.334 . S
C3659 C3660 1.287 . S
C3660 C3659 1.287 . S
C3660 C3661 1.524 . S
C3660 H3679 0.913 . S
C3661 H3637 0.950 . S
C3661 C3660 1.524 . S
C3661 C3662 1.415 . S
C3662 H3638 0.950 . S
C3662 C3657 1.363 . S
C3662 C3661 1.415 . S
C3663 H3639 0.951 . S
C3663 C3664 1.366 . S
C3663 C3665 1.388 . S
C3664 C3663 1.366 . S
C3664 C3668 1.385 . S
C3665 H3640 0.951 . S
C3665 C3663 1.388 . S
C3665 C3666 1.366 1_455 S
C3666 C3665 1.366 1_655 S
C3666 C3667 1.414 . S
C3666 C3669 1.499 . S
C3667 H3641 0.950 . S
C3667 C3666 1.414 . S
C3667 C3668 1.374 1_655 S
C3668 H3642 0.950 . S
C3668 C3664 1.385 . S
C3668 C3667 1.374 1_455 S
C3669 C3666 1.499 . S
C3669 C3670 1.373 . S
C3669 C3671 1.389 . S
C3670 H3643 0.950 . S
C3670 C3656 1.377 . S
C3670 C3669 1.373 . S
C3671 C3655 1.377 . S
C3671 C3669 1.389 . S
C3671 C3672 1.524 . S
C3672 C3671 1.524 . S
C3672 C3673 1.397 . S
C3672 C3677 1.363 . S
C3673 H3644 0.950 . S
C3673 C3672 1.397 . S
C3673 C3674 1.334 . S
C3674 H3645 0.950 1_655 S
C3674 C3673 1.334 . S
C3674 C3675 1.287 1_655 S
C3675 C3674 1.287 1_455 S
C3675 C3676 1.523 1_455 S
C3675 H3678 0.999 . S
C3676 H3646 0.948 1_655 S
C3676 C3675 1.523 1_655 S
C3676 C3677 1.418 . S
C3677 H3647 0.950 . S
C3677 C3672 1.363 . S
C3677 C3676 1.418 . S
H3678 C3675 0.999 . S
H3679 C3660 0.913 . S
H3680 C3698 0.951 . S
H3681 C3700 0.951 . S
H3682 C3702 0.950 . S
H3683 C3703 0.950 . S
H3684 C3705 0.950 . S
H3685 C3708 0.950 . S
H3686 C3709 0.950 . S
H3687 C3711 0.950 . S
H3688 C3712 0.950 . S
H3689 C3713 0.951 . S
H3690 C3715 0.951 . S
H3691 C3717 0.950 . S
H3692 C3718 0.950 . S
H3693 C3720 0.950 . S
H3694 C3723 0.950 . S
H3695 C3724 0.950 . S
H3696 C3726 0.950 . S
H3697 C3727 0.950 . S
C3698 H3680 0.951 . S
C3698 C3699 1.366 . S
C3698 C3700 1.388 . S
C3699 C3698 1.366 . S
C3699 C3703 1.385 . S
C3700 H3681 0.951 . S
C3700 C3698 1.388 . S
C3700 C3701 1.366 . S
C3701 C3700 1.366 . S
C3701 C3702 1.414 . S
C3701 C3704 1.499 . S
C3702 H3682 0.950 . S
C3702 C3701 1.414 . S
C3702 C3703 1.374 . S
C3703 H3683 0.950 . S
C3703 C3699 1.385 . S
C3703 C3702 1.374 . S
C3704 C3701 1.499 . S
C3704 C3705 1.373 . S
C3704 C3706 1.389 . S
C3705 H3684 0.950 . S
C3705 C3704 1.373 . S
C3705 C3721 1.377 . S
C3706 C3704 1.389 . S
C3706 C3707 1.524 . S
C3706 C3720 1.377 . S
C3707 C3706 1.524 . S
C3707 C3708 1.397 . S
C3707 C3712 1.363 . S
C3708 H3685 0.950 . S
C3708 C3707 1.397 . S
C3708 C3709 1.334 . S
C3709 H3686 0.950 . S
C3709 C3708 1.334 . S
C3709 C3710 1.287 . S
C3710 C3709 1.287 . S
C3710 C3711 1.524 . S
C3710 H3729 0.913 . S
C3711 H3687 0.950 . S
C3711 C3710 1.524 . S
C3711 C3712 1.415 . S
C3712 H3688 0.950 . S
C3712 C3707 1.363 . S
C3712 C3711 1.415 . S
C3713 H3689 0.951 . S
C3713 C3714 1.366 . S
C3713 C3715 1.388 . S
C3714 C3713 1.366 . S
C3714 C3718 1.385 . S
C3715 H3690 0.951 . S
C3715 C3713 1.388 . S
C3715 C3716 1.366 . S
C3716 C3715 1.366 . S
C3716 C3717 1.414 . S
C3716 C3719 1.499 . S
C3717 H3691 0.950 . S
C3717 C3716 1.414 . S
C3717 C3718 1.374 . S
C3718 H3692 0.950 . S
C3718 C3714 1.385 . S
C3718 C3717 1.374 . S
C3719 C3716 1.499 . S
C3719 C3720 1.373 . S
C3719 C3721 1.389 . S
C3720 H3693 0.950 . S
C3720 C3706 1.377 . S
C3720 C3719 1.373 . S
C3721 C3705 1.377 . S
C3721 C3719 1.389 . S
C3721 C3722 1.524 . S
C3722 C3721 1.524 . S
C3722 C3723 1.397 . S
C3722 C3727 1.363 . S
C3723 H3694 0.950 . S
C3723 C3722 1.397 . S
C3723 C3724 1.334 . S
C3724 H3695 0.950 . S
C3724 C3723 1.334 . S
C3724 C3725 1.287 . S
C3725 C3724 1.287 . S
C3725 C3726 1.524 . S
C3725 H3728 0.999 . S
C3726 H3696 0.950 . S
C3726 C3725 1.524 . S
C3726 C3727 1.415 . S
C3727 H3697 0.950 . S
C3727 C3722 1.363 . S
C3727 C3726 1.415 . S
H3728 C3725 0.999 . S
H3729 C3710 0.913 . S
H3730 C3748 0.951 . S
H3731 C3750 0.951 . S
H3732 C3752 0.950 . S
H3733 C3753 0.950 . S
H3734 C3755 0.950 . S
H3735 C3758 0.950 . S
H3736 C3759 0.950 . S
H3737 C3761 0.950 . S
H3738 C3762 0.950 . S
H3739 C3763 0.951 . S
H3740 C3765 0.951 . S
H3741 C3767 0.950 . S
H3742 C3768 0.950 . S
H3743 C3770 0.950 . S
H3744 C3773 0.950 . S
H3745 C3774 0.950 . S
H3746 C3776 0.950 . S
H3747 C3777 0.950 . S
C3748 H3730 0.951 . S
C3748 C3749 1.366 . S
C3748 C3750 1.388 . S
C3749 C3748 1.366 . S
C3749 C3753 1.385 . S
C3750 H3731 0.951 . S
C3750 C3748 1.388 . S
C3750 C3751 1.366 . S
C3751 C3750 1.366 . S
C3751 C3752 1.414 . S
C3751 C3754 1.499 . S
C3752 H3732 0.950 . S
C3752 C3751 1.414 . S
C3752 C3753 1.374 . S
C3753 H3733 0.950 . S
C3753 C3749 1.385 . S
C3753 C3752 1.374 . S
C3754 C3751 1.499 . S
C3754 C3755 1.373 . S
C3754 C3756 1.389 . S
C3755 H3734 0.950 . S
C3755 C3754 1.373 . S
C3755 C3771 1.377 . S
C3756 C3754 1.389 . S
C3756 C3757 1.524 . S
C3756 C3770 1.377 . S
C3757 C3756 1.524 . S
C3757 C3758 1.397 . S
C3757 C3762 1.363 . S
C3758 H3735 0.950 . S
C3758 C3757 1.397 . S
C3758 C3759 1.334 . S
C3759 H3736 0.950 . S
C3759 C3758 1.334 . S
C3759 C3760 1.287 . S
C3760 C3759 1.287 . S
C3760 C3761 1.524 . S
C3760 H3779 0.913 . S
C3761 H3737 0.950 . S
C3761 C3760 1.524 . S
C3761 C3762 1.415 . S
C3762 H3738 0.950 . S
C3762 C3757 1.363 . S
C3762 C3761 1.415 . S
C3763 H3739 0.951 . S
C3763 C3764 1.366 . S
C3763 C3765 1.388 . S
C3764 C3763 1.366 . S
C3764 C3768 1.385 . S
C3765 H3740 0.951 . S
C3765 C3763 1.388 . S
C3765 C3766 1.366 . S
C3766 C3765 1.366 . S
C3766 C3767 1.414 . S
C3766 C3769 1.499 . S
C3767 H3741 0.950 . S
C3767 C3766 1.414 . S
C3767 C3768 1.374 . S
C3768 H3742 0.950 . S
C3768 C3764 1.385 . S
C3768 C3767 1.374 . S
C3769 C3766 1.499 . S
C3769 C3770 1.373 . S
C3769 C3771 1.389 . S
C3770 H3743 0.950 . S
C3770 C3756 1.377 . S
C3770 C3769 1.373 . S
C3771 C3755 1.377 . S
C3771 C3769 1.389 . S
C3771 C3772 1.524 . S
C3772 C3771 1.524 . S
C3772 C3773 1.397 . S
C3772 C3777 1.363 . S
C3773 H3744 0.950 . S
C3773 C3772 1.397 . S
C3773 C3774 1.334 . S
C3774 H3745 0.950 . S
C3774 C3773 1.334 . S
C3774 C3775 1.287 . S
C3775 C3774 1.287 . S
C3775 C3776 1.524 . S
C3775 H3778 0.999 . S
C3776 H3746 0.950 . S
C3776 C3775 1.524 . S
C3776 C3777 1.415 . S
C3777 H3747 0.950 . S
C3777 C3772 1.363 . S
C3777 C3776 1.415 . S
H3778 C3775 0.999 . S
H3779 C3760 0.913 . S
H3780 C3798 0.951 . S
H3781 C3800 0.951 . S
H3782 C3802 0.950 . S
H3783 C3803 0.950 . S
H3784 C3805 0.950 . S
H3785 C3808 0.950 . S
H3786 C3809 0.950 . S
H3787 C3811 0.950 . S
H3788 C3812 0.950 . S
H3789 C3813 0.951 . S
H3790 C3815 0.951 . S
H3791 C3817 0.950 . S
H3792 C3818 0.950 . S
H3793 C3820 0.950 . S
H3794 C3823 0.950 . S
H3795 C3824 0.950 . S
H3796 C3826 0.950 . S
H3797 C3827 0.950 . S
C3798 H3780 0.951 . S
C3798 C3799 1.366 . S
C3798 C3800 1.388 . S
C3799 C3798 1.366 . S
C3799 C3803 1.385 . S
C3800 H3781 0.951 . S
C3800 C3798 1.388 . S
C3800 C3801 1.366 . S
C3801 C3800 1.366 . S
C3801 C3802 1.414 . S
C3801 C3804 1.499 . S
C3802 H3782 0.950 . S
C3802 C3801 1.414 . S
C3802 C3803 1.374 . S
C3803 H3783 0.950 . S
C3803 C3799 1.385 . S
C3803 C3802 1.374 . S
C3804 C3801 1.499 . S
C3804 C3805 1.373 . S
C3804 C3806 1.389 . S
C3805 H3784 0.950 . S
C3805 C3804 1.373 . S
C3805 C3821 1.377 . S
C3806 C3804 1.389 . S
C3806 C3807 1.524 . S
C3806 C3820 1.377 . S
C3807 C3806 1.524 . S
C3807 C3808 1.397 . S
C3807 C3812 1.363 . S
C3808 H3785 0.950 . S
C3808 C3807 1.397 . S
C3808 C3809 1.334 . S
C3809 H3786 0.950 . S
C3809 C3808 1.334 . S
C3809 C3810 1.287 . S
C3810 C3809 1.287 . S
C3810 C3811 1.524 . S
C3810 H3829 0.913 . S
C3811 H3787 0.950 . S
C3811 C3810 1.524 . S
C3811 C3812 1.415 . S
C3812 H3788 0.950 . S
C3812 C3807 1.363 . S
C3812 C3811 1.415 . S
C3813 H3789 0.951 . S
C3813 C3814 1.366 . S
C3813 C3815 1.388 . S
C3814 C3813 1.366 . S
C3814 C3818 1.385 . S
C3815 H3790 0.951 . S
C3815 C3813 1.388 . S
C3815 C3816 1.366 . S
C3816 C3815 1.366 . S
C3816 C3817 1.414 . S
C3816 C3819 1.499 . S
C3817 H3791 0.950 . S
C3817 C3816 1.414 . S
C3817 C3818 1.374 . S
C3818 H3792 0.950 . S
C3818 C3814 1.385 . S
C3818 C3817 1.374 . S
C3819 C3816 1.499 . S
C3819 C3820 1.373 . S
C3819 C3821 1.389 . S
C3820 H3793 0.950 . S
C3820 C3806 1.377 . S
C3820 C3819 1.373 . S
C3821 C3805 1.377 . S
C3821 C3819 1.389 . S
C3821 C3822 1.524 . S
C3822 C3821 1.524 . S
C3822 C3823 1.397 . S
C3822 C3827 1.363 . S
C3823 H3794 0.950 . S
C3823 C3822 1.397 . S
C3823 C3824 1.334 . S
C3824 H3795 0.950 . S
C3824 C3823 1.334 . S
C3824 C3825 1.287 . S
C3825 C3824 1.287 . S
C3825 C3826 1.524 . S
C3825 H3828 0.999 . S
C3826 H3796 0.950 . S
C3826 C3825 1.524 . S
C3826 C3827 1.415 . S
C3827 H3797 0.950 . S
C3827 C3822 1.363 . S
C3827 C3826 1.415 . S
H3828 C3825 0.999 . S
H3829 C3810 0.913 . S
H3830 C3848 0.951 . S
H3831 C3850 0.951 . S
H3832 C3852 0.950 . S
H3833 C3853 0.950 . S
H3834 C3855 0.950 . S
H3835 C3858 0.950 . S
H3836 C3859 0.950 . S
H3837 C3861 0.950 . S
H3838 C3862 0.950 . S
H3839 C3863 0.951 . S
H3840 C3865 0.951 . S
H3841 C3867 0.950 . S
H3842 C3868 0.950 . S
H3843 C3870 0.950 . S
H3844 C3873 0.950 . S
H3845 C3874 0.950 . S
H3846 C3876 0.950 . S
H3847 C3877 0.950 . S
C3848 H3830 0.951 . S
C3848 C3849 1.366 . S
C3848 C3850 1.388 . S
C3849 C3848 1.366 . S
C3849 C3853 1.385 . S
C3850 H3831 0.951 . S
C3850 C3848 1.388 . S
C3850 C3851 1.366 . S
C3851 C3850 1.366 . S
C3851 C3852 1.414 . S
C3851 C3854 1.499 . S
C3852 H3832 0.950 . S
C3852 C3851 1.414 . S
C3852 C3853 1.374 . S
C3853 H3833 0.950 . S
C3853 C3849 1.385 . S
C3853 C3852 1.374 . S
C3854 C3851 1.499 . S
C3854 C3855 1.373 . S
C3854 C3856 1.389 . S
C3855 H3834 0.950 . S
C3855 C3854 1.373 . S
C3855 C3871 1.377 . S
C3856 C3854 1.389 . S
C3856 C3857 1.524 . S
C3856 C3870 1.377 . S
C3857 C3856 1.524 . S
C3857 C3858 1.397 . S
C3857 C3862 1.363 . S
C3858 H3835 0.950 . S
C3858 C3857 1.397 . S
C3858 C3859 1.334 . S
C3859 H3836 0.950 . S
C3859 C3858 1.334 . S
C3859 C3860 1.287 . S
C3860 C3859 1.287 . S
C3860 C3861 1.524 . S
C3860 H3879 0.913 . S
C3861 H3837 0.950 . S
C3861 C3860 1.524 . S
C3861 C3862 1.415 . S
C3862 H3838 0.950 . S
C3862 C3857 1.363 . S
C3862 C3861 1.415 . S
C3863 H3839 0.951 . S
C3863 C3864 1.366 . S
C3863 C3865 1.388 1_455 S
C3864 C3863 1.366 . S
C3864 C3868 1.385 . S
C3865 H3840 0.951 . S
C3865 C3863 1.388 1_655 S
C3865 C3866 1.366 . S
C3866 C3865 1.366 . S
C3866 C3867 1.414 1_655 S
C3866 C3869 1.499 . S
C3867 H3841 0.950 . S
C3867 C3866 1.414 1_455 S
C3867 C3868 1.374 . S
C3868 H3842 0.950 . S
C3868 C3864 1.385 . S
C3868 C3867 1.374 . S
C3869 C3866 1.499 . S
C3869 C3870 1.373 . S
C3869 C3871 1.389 . S
C3870 H3843 0.950 . S
C3870 C3856 1.377 . S
C3870 C3869 1.373 . S
C3871 C3855 1.377 . S
C3871 C3869 1.389 . S
C3871 C3872 1.524 . S
C3872 C3871 1.524 . S
C3872 C3873 1.397 . S
C3872 C3877 1.363 . S
C3873 H3844 0.950 . S
C3873 C3872 1.397 . S
C3873 C3874 1.334 . S
C3874 H3845 0.950 . S
C3874 C3873 1.334 . S
C3874 C3875 1.287 . S
C3875 C3874 1.287 . S
C3875 C3876 1.524 . S
C3875 H3878 0.999 . S
C3876 H3846 0.950 . S
C3876 C3875 1.524 . S
C3876 C3877 1.415 . S
C3877 H3847 0.950 . S
C3877 C3872 1.363 . S
C3877 C3876 1.415 . S
H3878 C3875 0.999 . S
H3879 C3860 0.913 . S
H3880 C3898 0.951 . S
H3881 C3900 0.951 . S
H3882 C3902 0.950 . S
H3883 C3903 0.950 . S
H3884 C3905 0.950 . S
H3885 C3908 0.950 . S
H3886 C3909 0.950 . S
H3887 C3911 0.950 . S
H3888 C3912 0.950 . S
H3889 C3913 0.951 . S
H3890 C3915 0.951 . S
H3891 C3917 0.950 . S
H3892 C3918 0.950 . S
H3893 C3920 0.950 . S
H3894 C3923 0.950 . S
H3895 C3924 0.950 . S
H3896 C3926 0.950 . S
H3897 C3927 0.950 . S
C3898 H3880 0.951 . S
C3898 C3899 1.366 . S
C3898 C3900 1.388 . S
C3899 C3898 1.366 . S
C3899 C3903 1.385 . S
C3900 H3881 0.951 . S
C3900 C3898 1.388 . S
C3900 C3901 1.366 . S
C3901 C3900 1.366 . S
C3901 C3902 1.414 . S
C3901 C3904 1.499 . S
C3902 H3882 0.950 . S
C3902 C3901 1.414 . S
C3902 C3903 1.374 . S
C3903 H3883 0.950 . S
C3903 C3899 1.385 . S
C3903 C3902 1.374 . S
C3904 C3901 1.499 . S
C3904 C3905 1.373 . S
C3904 C3906 1.389 . S
C3905 H3884 0.950 . S
C3905 C3904 1.373 . S
C3905 C3921 1.377 . S
C3906 C3904 1.389 . S
C3906 C3907 1.524 . S
C3906 C3920 1.377 . S
C3907 C3906 1.524 . S
C3907 C3908 1.397 . S
C3907 C3912 1.363 . S
C3908 H3885 0.950 . S
C3908 C3907 1.397 . S
C3908 C3909 1.334 . S
C3909 H3886 0.950 . S
C3909 C3908 1.334 . S
C3909 C3910 1.287 . S
C3910 C3909 1.287 . S
C3910 C3911 1.524 . S
C3910 H3929 0.913 . S
C3911 H3887 0.950 . S
C3911 C3910 1.524 . S
C3911 C3912 1.415 . S
C3912 H3888 0.950 . S
C3912 C3907 1.363 . S
C3912 C3911 1.415 . S
C3913 H3889 0.951 . S
C3913 C3914 1.366 . S
C3913 C3915 1.388 . S
C3914 C3913 1.366 . S
C3914 C3918 1.385 . S
C3915 H3890 0.951 . S
C3915 C3913 1.388 . S
C3915 C3916 1.366 . S
C3916 C3915 1.366 . S
C3916 C3917 1.414 . S
C3916 C3919 1.499 . S
C3917 H3891 0.950 . S
C3917 C3916 1.414 . S
C3917 C3918 1.374 . S
C3918 H3892 0.950 . S
C3918 C3914 1.385 . S
C3918 C3917 1.374 . S
C3919 C3916 1.499 . S
C3919 C3920 1.373 . S
C3919 C3921 1.389 . S
C3920 H3893 0.950 . S
C3920 C3906 1.377 . S
C3920 C3919 1.373 . S
C3921 C3905 1.377 . S
C3921 C3919 1.389 . S
C3921 C3922 1.524 . S
C3922 C3921 1.524 . S
C3922 C3923 1.397 . S
C3922 C3927 1.363 . S
C3923 H3894 0.950 . S
C3923 C3922 1.397 . S
C3923 C3924 1.334 . S
C3924 H3895 0.950 . S
C3924 C3923 1.334 . S
C3924 C3925 1.287 . S
C3925 C3924 1.287 . S
C3925 C3926 1.524 . S
C3925 H3928 0.999 . S
C3926 H3896 0.950 . S
C3926 C3925 1.524 . S
C3926 C3927 1.415 . S
C3927 H3897 0.950 . S
C3927 C3922 1.363 . S
C3927 C3926 1.415 . S
H3928 C3925 0.999 . S
H3929 C3910 0.913 . S
H3930 C3948 0.951 . S
H3931 C3950 0.951 . S
H3932 C3952 0.950 . S
H3933 C3953 0.950 . S
H3934 C3955 0.950 . S
H3935 C3958 0.950 . S
H3936 C3959 0.950 . S
H3937 C3961 0.950 . S
H3938 C3962 0.950 . S
H3939 C3963 0.951 . S
H3940 C3965 0.951 1_655 S
H3941 C3967 0.950 1_655 S
H3942 C3968 0.950 . S
H3943 C3970 0.950 . S
H3944 C3973 0.950 . S
H3945 C3974 0.950 . S
H3946 C3976 0.950 . S
H3947 C3977 0.950 . S
C3948 H3930 0.951 . S
C3948 C3949 1.366 . S
C3948 C3950 1.388 . S
C3949 C3948 1.366 . S
C3949 C3953 1.385 . S
C3950 H3931 0.951 . S
C3950 C3948 1.388 . S
C3950 C3951 1.366 . S
C3951 C3950 1.366 . S
C3951 C3952 1.414 . S
C3951 C3954 1.499 . S
C3952 H3932 0.950 . S
C3952 C3951 1.414 . S
C3952 C3953 1.374 . S
C3953 H3933 0.950 . S
C3953 C3949 1.385 . S
C3953 C3952 1.374 . S
C3954 C3951 1.499 . S
C3954 C3955 1.373 . S
C3954 C3956 1.389 . S
C3955 H3934 0.950 . S
C3955 C3954 1.373 . S
C3955 C3971 1.377 . S
C3956 C3954 1.389 . S
C3956 C3957 1.524 . S
C3956 C3970 1.377 . S
C3957 C3956 1.524 . S
C3957 C3958 1.397 . S
C3957 C3962 1.363 . S
C3958 H3935 0.950 . S
C3958 C3957 1.397 . S
C3958 C3959 1.334 . S
C3959 H3936 0.950 . S
C3959 C3958 1.334 . S
C3959 C3960 1.287 . S
C3960 C3959 1.287 . S
C3960 C3961 1.524 . S
C3960 H3979 0.913 . S
C3961 H3937 0.950 . S
C3961 C3960 1.524 . S
C3961 C3962 1.415 . S
C3962 H3938 0.950 . S
C3962 C3957 1.363 . S
C3962 C3961 1.415 . S
C3963 H3939 0.951 . S
C3963 C3964 1.366 . S
C3963 C3965 1.388 . S
C3964 C3963 1.366 . S
C3964 C3968 1.385 . S
C3965 H3940 0.951 1_455 S
C3965 C3963 1.388 . S
C3965 C3966 1.366 1_455 S
C3966 C3965 1.366 1_655 S
C3966 C3967 1.414 1_655 S
C3966 C3969 1.499 . S
C3967 H3941 0.950 1_455 S
C3967 C3966 1.414 1_455 S
C3967 C3968 1.374 . S
C3968 H3942 0.950 . S
C3968 C3964 1.385 . S
C3968 C3967 1.374 . S
C3969 C3966 1.499 . S
C3969 C3970 1.373 . S
C3969 C3971 1.389 . S
C3970 H3943 0.950 . S
C3970 C3956 1.377 . S
C3970 C3969 1.373 . S
C3971 C3955 1.377 . S
C3971 C3969 1.389 . S
C3971 C3972 1.524 . S
C3972 C3971 1.524 . S
C3972 C3973 1.397 . S
C3972 C3977 1.363 . S
C3973 H3944 0.950 . S
C3973 C3972 1.397 . S
C3973 C3974 1.334 . S
C3974 H3945 0.950 . S
C3974 C3973 1.334 . S
C3974 C3975 1.287 . S
C3975 C3974 1.287 . S
C3975 C3976 1.524 . S
C3975 H3978 0.999 . S
C3976 H3946 0.950 . S
C3976 C3975 1.524 . S
C3976 C3977 1.415 . S
C3977 H3947 0.950 . S
C3977 C3972 1.363 . S
C3977 C3976 1.415 . S
H3978 C3975 0.999 . S
H3979 C3960 0.913 . S
H3980 C3998 0.951 . S
H3981 C4000 0.951 . S
H3982 C4002 0.950 . S
H3983 C4003 0.950 . S
H3984 C4005 0.950 . S
H3985 C4008 0.950 . S
H3986 C4009 0.950 . S
H3987 C4011 0.950 . S
H3988 C4012 0.950 . S
H3989 C4013 0.951 . S
H3990 C4015 0.951 . S
H3991 C4017 0.950 . S
H3992 C4018 0.950 . S
H3993 C4020 0.950 . S
H3994 C4023 0.950 . S
H3995 C4024 0.950 . S
H3996 C4026 0.950 . S
H3997 C4027 0.950 . S
C3998 H3980 0.951 . S
C3998 C3999 1.366 . S
C3998 C4000 1.388 . S
C3999 C3998 1.366 . S
C3999 C4003 1.385 . S
C4000 H3981 0.951 . S
C4000 C3998 1.388 . S
C4000 C4001 1.366 . S
C4001 C4000 1.366 . S
C4001 C4002 1.414 . S
C4001 C4004 1.499 . S
C4002 H3982 0.950 . S
C4002 C4001 1.414 . S
C4002 C4003 1.374 . S
C4003 H3983 0.950 . S
C4003 C3999 1.385 . S
C4003 C4002 1.374 . S
C4004 C4001 1.499 . S
C4004 C4005 1.373 . S
C4004 C4006 1.389 . S
C4005 H3984 0.950 . S
C4005 C4004 1.373 . S
C4005 C4021 1.377 . S
C4006 C4004 1.389 . S
C4006 C4007 1.524 . S
C4006 C4020 1.377 . S
C4007 C4006 1.524 . S
C4007 C4008 1.397 . S
C4007 C4012 1.363 . S
C4008 H3985 0.950 . S
C4008 C4007 1.397 . S
C4008 C4009 1.334 . S
C4009 H3986 0.950 . S
C4009 C4008 1.334 . S
C4009 C4010 1.287 . S
C4010 C4009 1.287 . S
C4010 C4011 1.524 . S
C4010 H4029 0.913 . S
C4011 H3987 0.950 . S
C4011 C4010 1.524 . S
C4011 C4012 1.415 . S
C4012 H3988 0.950 . S
C4012 C4007 1.363 . S
C4012 C4011 1.415 . S
C4013 H3989 0.951 . S
C4013 C4014 1.366 . S
C4013 C4015 1.388 . S
C4014 C4013 1.366 . S
C4014 C4018 1.385 . S
C4015 H3990 0.951 . S
C4015 C4013 1.388 . S
C4015 C4016 1.366 . S
C4016 C4015 1.366 . S
C4016 C4017 1.414 . S
C4016 C4019 1.499 . S
C4017 H3991 0.950 . S
C4017 C4016 1.414 . S
C4017 C4018 1.374 . S
C4018 H3992 0.950 . S
C4018 C4014 1.385 . S
C4018 C4017 1.374 . S
C4019 C4016 1.499 . S
C4019 C4020 1.373 . S
C4019 C4021 1.389 . S
C4020 H3993 0.950 . S
C4020 C4006 1.377 . S
C4020 C4019 1.373 . S
C4021 C4005 1.377 . S
C4021 C4019 1.389 . S
C4021 C4022 1.524 . S
C4022 C4021 1.524 . S
C4022 C4023 1.397 . S
C4022 C4027 1.363 . S
C4023 H3994 0.950 . S
C4023 C4022 1.397 . S
C4023 C4024 1.334 . S
C4024 H3995 0.950 . S
C4024 C4023 1.334 . S
C4024 C4025 1.287 . S
C4025 C4024 1.287 . S
C4025 C4026 1.524 . S
C4025 H4028 0.999 . S
C4026 H3996 0.950 . S
C4026 C4025 1.524 . S
C4026 C4027 1.415 . S
C4027 H3997 0.950 . S
C4027 C4022 1.363 . S
C4027 C4026 1.415 . S
H4028 C4025 0.999 . S
H4029 C4010 0.913 . S
H4030 C4048 0.951 . S
H4031 C4050 0.951 . S
H4032 C4052 0.950 . S
H4033 C4053 0.950 . S
H4034 C4055 0.950 . S
H4035 C4058 0.950 . S
H4036 C4059 0.950 . S
H4037 C4061 0.950 . S
H4038 C4062 0.950 . S
H4039 C4063 0.951 . S
H4040 C4065 0.951 . S
H4041 C4067 0.950 . S
H4042 C4068 0.950 . S
H4043 C4070 0.950 . S
H4044 C4073 0.950 . S
H4045 C4074 0.950 . S
H4046 C4076 0.950 . S
H4047 C4077 0.950 . S
C4048 H4030 0.951 . S
C4048 C4049 1.366 . S
C4048 C4050 1.388 . S
C4049 C4048 1.366 . S
C4049 C4053 1.385 . S
C4050 H4031 0.951 . S
C4050 C4048 1.388 . S
C4050 C4051 1.366 . S
C4051 C4050 1.366 . S
C4051 C4052 1.414 . S
C4051 C4054 1.499 . S
C4052 H4032 0.950 . S
C4052 C4051 1.414 . S
C4052 C4053 1.374 . S
C4053 H4033 0.950 . S
C4053 C4049 1.385 . S
C4053 C4052 1.374 . S
C4054 C4051 1.499 . S
C4054 C4055 1.373 . S
C4054 C4056 1.389 . S
C4055 H4034 0.950 . S
C4055 C4054 1.373 . S
C4055 C4071 1.377 . S
C4056 C4054 1.389 . S
C4056 C4057 1.524 . S
C4056 C4070 1.377 . S
C4057 C4056 1.524 . S
C4057 C4058 1.397 . S
C4057 C4062 1.363 . S
C4058 H4035 0.950 . S
C4058 C4057 1.397 . S
C4058 C4059 1.334 . S
C4059 H4036 0.950 . S
C4059 C4058 1.334 . S
C4059 C4060 1.287 . S
C4060 C4059 1.287 . S
C4060 C4061 1.524 . S
C4060 H4079 0.913 . S
C4061 H4037 0.950 . S
C4061 C4060 1.524 . S
C4061 C4062 1.415 . S
C4062 H4038 0.950 . S
C4062 C4057 1.363 . S
C4062 C4061 1.415 . S
C4063 H4039 0.951 . S
C4063 C4064 1.366 . S
C4063 C4065 1.388 . S
C4064 C4063 1.366 . S
C4064 C4068 1.385 . S
C4065 H4040 0.951 . S
C4065 C4063 1.388 . S
C4065 C4066 1.366 . S
C4066 C4065 1.366 . S
C4066 C4067 1.414 . S
C4066 C4069 1.499 . S
C4067 H4041 0.950 . S
C4067 C4066 1.414 . S
C4067 C4068 1.374 . S
C4068 H4042 0.950 . S
C4068 C4064 1.385 . S
C4068 C4067 1.374 . S
C4069 C4066 1.499 . S
C4069 C4070 1.373 . S
C4069 C4071 1.389 . S
C4070 H4043 0.950 . S
C4070 C4056 1.377 . S
C4070 C4069 1.373 . S
C4071 C4055 1.377 . S
C4071 C4069 1.389 . S
C4071 C4072 1.524 . S
C4072 C4071 1.524 . S
C4072 C4073 1.397 . S
C4072 C4077 1.363 . S
C4073 H4044 0.950 . S
C4073 C4072 1.397 . S
C4073 C4074 1.334 . S
C4074 H4045 0.950 . S
C4074 C4073 1.334 . S
C4074 C4075 1.287 . S
C4075 C4074 1.287 . S
C4075 C4076 1.524 . S
C4075 H4078 0.999 . S
C4076 H4046 0.950 . S
C4076 C4075 1.524 . S
C4076 C4077 1.415 . S
C4077 H4047 0.950 . S
C4077 C4072 1.363 . S
C4077 C4076 1.415 . S
H4078 C4075 0.999 . S
H4079 C4060 0.913 . S
H4080 C4098 0.951 . S
H4081 C4100 0.951 . S
H4082 C4102 0.950 . S
H4083 C4103 0.950 . S
H4084 C4105 0.950 . S
H4085 C4108 0.950 . S
H4086 C4109 0.950 . S
H4087 C4111 0.950 . S
H4088 C4112 0.950 . S
H4089 C4113 0.951 . S
H4090 C4115 0.951 . S
H4091 C4117 0.950 . S
H4092 C4118 0.950 . S
H4093 C4120 0.950 . S
H4094 C4123 0.950 . S
H4095 C4124 0.950 . S
H4096 C4126 0.950 . S
H4097 C4127 0.950 . S
C4098 H4080 0.951 . S
C4098 C4099 1.366 . S
C4098 C4100 1.388 . S
C4099 C4098 1.366 . S
C4099 C4103 1.385 . S
C4100 H4081 0.951 . S
C4100 C4098 1.388 . S
C4100 C4101 1.366 . S
C4101 C4100 1.366 . S
C4101 C4102 1.414 . S
C4101 C4104 1.499 . S
C4102 H4082 0.950 . S
C4102 C4101 1.414 . S
C4102 C4103 1.374 . S
C4103 H4083 0.950 . S
C4103 C4099 1.385 . S
C4103 C4102 1.374 . S
C4104 C4101 1.499 . S
C4104 C4105 1.373 . S
C4104 C4106 1.389 . S
C4105 H4084 0.950 . S
C4105 C4104 1.373 . S
C4105 C4121 1.377 . S
C4106 C4104 1.389 . S
C4106 C4107 1.524 . S
C4106 C4120 1.377 . S
C4107 C4106 1.524 . S
C4107 C4108 1.397 . S
C4107 C4112 1.363 . S
C4108 H4085 0.950 . S
C4108 C4107 1.397 . S
C4108 C4109 1.334 . S
C4109 H4086 0.950 . S
C4109 C4108 1.334 . S
C4109 C4110 1.287 . S
C4110 C4109 1.287 . S
C4110 C4111 1.524 . S
C4110 H4129 0.913 . S
C4111 H4087 0.950 . S
C4111 C4110 1.524 . S
C4111 C4112 1.415 . S
C4112 H4088 0.950 . S
C4112 C4107 1.363 . S
C4112 C4111 1.415 . S
C4113 H4089 0.951 . S
C4113 C4114 1.366 . S
C4113 C4115 1.388 . S
C4114 C4113 1.366 . S
C4114 C4118 1.385 . S
C4115 H4090 0.951 . S
C4115 C4113 1.388 . S
C4115 C4116 1.366 . S
C4116 C4115 1.366 . S
C4116 C4117 1.414 . S
C4116 C4119 1.499 . S
C4117 H4091 0.950 . S
C4117 C4116 1.414 . S
C4117 C4118 1.374 . S
C4118 H4092 0.950 . S
C4118 C4114 1.385 . S
C4118 C4117 1.374 . S
C4119 C4116 1.499 . S
C4119 C4120 1.373 . S
C4119 C4121 1.389 . S
C4120 H4093 0.950 . S
C4120 C4106 1.377 . S
C4120 C4119 1.373 . S
C4121 C4105 1.377 . S
C4121 C4119 1.389 . S
C4121 C4122 1.524 . S
C4122 C4121 1.524 . S
C4122 C4123 1.397 . S
C4122 C4127 1.363 . S
C4123 H4094 0.950 . S
C4123 C4122 1.397 . S
C4123 C4124 1.334 . S
C4124 H4095 0.950 . S
C4124 C4123 1.334 . S
C4124 C4125 1.287 . S
C4125 C4124 1.287 . S
C4125 C4126 1.524 . S
C4125 H4128 0.999 . S
C4126 H4096 0.950 . S
C4126 C4125 1.524 . S
C4126 C4127 1.415 . S
C4127 H4097 0.950 . S
C4127 C4122 1.363 . S
C4127 C4126 1.415 . S
H4128 C4125 0.999 . S
H4129 C4110 0.913 . S
H4130 C4148 0.951 . S
H4131 C4150 0.951 . S
H4132 C4152 0.950 . S
H4133 C4153 0.950 . S
H4134 C4155 0.950 . S
H4135 C4158 0.950 . S
H4136 C4159 0.950 . S
H4137 C4161 0.950 . S
H4138 C4162 0.950 . S
H4139 C4163 0.951 . S
H4140 C4165 0.951 . S
H4141 C4167 0.950 . S
H4142 C4168 0.950 . S
H4143 C4170 0.950 . S
H4144 C4173 0.950 . S
H4145 C4174 0.950 . S
H4146 C4176 0.950 . S
H4147 C4177 0.950 . S
C4148 H4130 0.951 . S
C4148 C4149 1.366 . S
C4148 C4150 1.388 . S
C4149 C4148 1.366 . S
C4149 C4153 1.385 . S
C4150 H4131 0.951 . S
C4150 C4148 1.388 . S
C4150 C4151 1.366 . S
C4151 C4150 1.366 . S
C4151 C4152 1.414 . S
C4151 C4154 1.499 . S
C4152 H4132 0.950 . S
C4152 C4151 1.414 . S
C4152 C4153 1.374 . S
C4153 H4133 0.950 . S
C4153 C4149 1.385 . S
C4153 C4152 1.374 . S
C4154 C4151 1.499 . S
C4154 C4155 1.373 . S
C4154 C4156 1.389 . S
C4155 H4134 0.950 . S
C4155 C4154 1.373 . S
C4155 C4171 1.377 . S
C4156 C4154 1.389 . S
C4156 C4157 1.524 . S
C4156 C4170 1.377 . S
C4157 C4156 1.524 . S
C4157 C4158 1.397 . S
C4157 C4162 1.363 . S
C4158 H4135 0.950 . S
C4158 C4157 1.397 . S
C4158 C4159 1.334 . S
C4159 H4136 0.950 . S
C4159 C4158 1.334 . S
C4159 C4160 1.287 . S
C4160 C4159 1.287 . S
C4160 C4161 1.524 . S
C4160 H4179 0.913 . S
C4161 H4137 0.950 . S
C4161 C4160 1.524 . S
C4161 C4162 1.415 . S
C4162 H4138 0.950 . S
C4162 C4157 1.363 . S
C4162 C4161 1.415 . S
C4163 H4139 0.951 . S
C4163 C4164 1.366 . S
C4163 C4165 1.388 . S
C4164 C4163 1.366 . S
C4164 C4168 1.385 . S
C4165 H4140 0.951 . S
C4165 C4163 1.388 . S
C4165 C4166 1.366 . S
C4166 C4165 1.366 . S
C4166 C4167 1.414 . S
C4166 C4169 1.499 . S
C4167 H4141 0.950 . S
C4167 C4166 1.414 . S
C4167 C4168 1.374 . S
C4168 H4142 0.950 . S
C4168 C4164 1.385 . S
C4168 C4167 1.374 . S
C4169 C4166 1.499 . S
C4169 C4170 1.373 . S
C4169 C4171 1.389 . S
C4170 H4143 0.950 . S
C4170 C4156 1.377 . S
C4170 C4169 1.373 . S
C4171 C4155 1.377 . S
C4171 C4169 1.389 . S
C4171 C4172 1.524 . S
C4172 C4171 1.524 . S
C4172 C4173 1.397 . S
C4172 C4177 1.363 . S
C4173 H4144 0.950 . S
C4173 C4172 1.397 . S
C4173 C4174 1.334 . S
C4174 H4145 0.950 . S
C4174 C4173 1.334 . S
C4174 C4175 1.287 . S
C4175 C4174 1.287 . S
C4175 C4176 1.524 . S
C4175 H4178 0.999 . S
C4176 H4146 0.950 . S
C4176 C4175 1.524 . S
C4176 C4177 1.415 . S
C4177 H4147 0.950 . S
C4177 C4172 1.363 . S
C4177 C4176 1.415 . S
H4178 C4175 0.999 . S
H4179 C4160 0.913 . S
H4180 C4198 0.951 . S
H4181 C4200 0.951 . S
H4182 C4202 0.950 . S
H4183 C4203 0.950 . S
H4184 C4205 0.950 . S
H4185 C4208 0.950 . S
H4186 C4209 0.950 . S
H4187 C4211 0.950 . S
H4188 C4212 0.950 . S
H4189 C4213 0.951 . S
H4190 C4215 0.951 . S
H4191 C4217 0.950 . S
H4192 C4218 0.950 . S
H4193 C4220 0.950 . S
H4194 C4223 0.950 . S
H4195 C4224 0.950 . S
H4196 C4226 0.950 . S
H4197 C4227 0.950 . S
C4198 H4180 0.951 . S
C4198 C4199 1.366 . S
C4198 C4200 1.388 . S
C4199 C4198 1.366 . S
C4199 C4203 1.385 . S
C4200 H4181 0.951 . S
C4200 C4198 1.388 . S
C4200 C4201 1.366 . S
C4201 C4200 1.366 . S
C4201 C4202 1.414 . S
C4201 C4204 1.499 . S
C4202 H4182 0.950 . S
C4202 C4201 1.414 . S
C4202 C4203 1.374 . S
C4203 H4183 0.950 . S
C4203 C4199 1.385 . S
C4203 C4202 1.374 . S
C4204 C4201 1.499 . S
C4204 C4205 1.373 . S
C4204 C4206 1.389 . S
C4205 H4184 0.950 . S
C4205 C4204 1.373 . S
C4205 C4221 1.377 . S
C4206 C4204 1.389 . S
C4206 C4207 1.524 . S
C4206 C4220 1.377 . S
C4207 C4206 1.524 . S
C4207 C4208 1.397 . S
C4207 C4212 1.363 . S
C4208 H4185 0.950 . S
C4208 C4207 1.397 . S
C4208 C4209 1.334 . S
C4209 H4186 0.950 . S
C4209 C4208 1.334 . S
C4209 C4210 1.287 . S
C4210 C4209 1.287 . S
C4210 C4211 1.524 . S
C4210 H4229 0.913 . S
C4211 H4187 0.950 . S
C4211 C4210 1.524 . S
C4211 C4212 1.415 . S
C4212 H4188 0.950 . S
C4212 C4207 1.363 . S
C4212 C4211 1.415 . S
C4213 H4189 0.951 . S
C4213 C4214 1.366 . S
C4213 C4215 1.388 . S
C4214 C4213 1.366 . S
C4214 C4218 1.385 . S
C4215 H4190 0.951 . S
C4215 C4213 1.388 . S
C4215 C4216 1.366 . S
C4216 C4215 1.366 . S
C4216 C4217 1.414 . S
C4216 C4219 1.499 . S
C4217 H4191 0.950 . S
C4217 C4216 1.414 . S
C4217 C4218 1.374 . S
C4218 H4192 0.950 . S
C4218 C4214 1.385 . S
C4218 C4217 1.374 . S
C4219 C4216 1.499 . S
C4219 C4220 1.373 . S
C4219 C4221 1.389 . S
C4220 H4193 0.950 . S
C4220 C4206 1.377 . S
C4220 C4219 1.373 . S
C4221 C4205 1.377 . S
C4221 C4219 1.389 . S
C4221 C4222 1.524 . S
C4222 C4221 1.524 . S
C4222 C4223 1.397 . S
C4222 C4227 1.363 . S
C4223 H4194 0.950 . S
C4223 C4222 1.397 . S
C4223 C4224 1.334 . S
C4224 H4195 0.950 . S
C4224 C4223 1.334 . S
C4224 C4225 1.287 . S
C4225 C4224 1.287 . S
C4225 C4226 1.524 . S
C4225 H4228 0.999 . S
C4226 H4196 0.950 . S
C4226 C4225 1.524 . S
C4226 C4227 1.415 . S
C4227 H4197 0.950 . S
C4227 C4222 1.363 . S
C4227 C4226 1.415 . S
H4228 C4225 0.999 . S
H4229 C4210 0.913 . S
H4230 C4248 0.951 . S
H4231 C4250 0.951 . S
H4232 C4252 0.950 . S
H4233 C4253 0.950 . S
H4234 C4255 0.950 . S
H4235 C4258 0.950 . S
H4236 C4259 0.950 . S
H4237 C4261 0.950 . S
H4238 C4262 0.950 . S
H4239 C4263 0.951 . S
H4240 C4265 0.951 . S
H4241 C4267 0.950 . S
H4242 C4268 0.950 . S
H4243 C4270 0.950 . S
H4244 C4273 0.950 . S
H4245 C4274 0.950 . S
H4246 C4276 0.950 . S
H4247 C4277 0.950 . S
C4248 H4230 0.951 . S
C4248 C4249 1.366 . S
C4248 C4250 1.388 1_655 S
C4249 C4248 1.366 . S
C4249 C4253 1.385 . S
C4250 H4231 0.951 . S
C4250 C4248 1.388 1_455 S
C4250 C4251 1.366 . S
C4251 C4250 1.366 . S
C4251 C4252 1.414 1_455 S
C4251 C4254 1.499 . S
C4252 H4232 0.950 . S
C4252 C4251 1.414 1_655 S
C4252 C4253 1.374 . S
C4253 H4233 0.950 . S
C4253 C4249 1.385 . S
C4253 C4252 1.374 . S
C4254 C4251 1.499 . S
C4254 C4255 1.373 . S
C4254 C4256 1.389 . S
C4255 H4234 0.950 . S
C4255 C4254 1.373 . S
C4255 C4271 1.377 . S
C4256 C4254 1.389 . S
C4256 C4257 1.524 . S
C4256 C4270 1.377 . S
C4257 C4256 1.524 . S
C4257 C4258 1.397 . S
C4257 C4262 1.363 . S
C4258 H4235 0.950 . S
C4258 C4257 1.397 . S
C4258 C4259 1.334 . S
C4259 H4236 0.950 . S
C4259 C4258 1.334 . S
C4259 C4260 1.287 . S
C4260 C4259 1.287 . S
C4260 C4261 1.524 . S
C4260 H4279 0.913 . S
C4261 H4237 0.950 . S
C4261 C4260 1.524 . S
C4261 C4262 1.415 . S
C4262 H4238 0.950 . S
C4262 C4257 1.363 . S
C4262 C4261 1.415 . S
C4263 H4239 0.951 . S
C4263 C4264 1.366 . S
C4263 C4265 1.388 . S
C4264 C4263 1.366 . S
C4264 C4268 1.385 . S
C4265 H4240 0.951 . S
C4265 C4263 1.388 . S
C4265 C4266 1.366 . S
C4266 C4265 1.366 . S
C4266 C4267 1.414 . S
C4266 C4269 1.499 . S
C4267 H4241 0.950 . S
C4267 C4266 1.414 . S
C4267 C4268 1.374 . S
C4268 H4242 0.950 . S
C4268 C4264 1.385 . S
C4268 C4267 1.374 . S
C4269 C4266 1.499 . S
C4269 C4270 1.373 . S
C4269 C4271 1.389 . S
C4270 H4243 0.950 . S
C4270 C4256 1.377 . S
C4270 C4269 1.373 . S
C4271 C4255 1.377 . S
C4271 C4269 1.389 . S
C4271 C4272 1.524 . S
C4272 C4271 1.524 . S
C4272 C4273 1.397 . S
C4272 C4277 1.363 . S
C4273 H4244 0.950 . S
C4273 C4272 1.397 . S
C4273 C4274 1.334 . S
C4274 H4245 0.950 . S
C4274 C4273 1.334 . S
C4274 C4275 1.287 . S
C4275 C4274 1.287 . S
C4275 C4276 1.524 . S
C4275 H4278 0.999 . S
C4276 H4246 0.950 . S
C4276 C4275 1.524 . S
C4276 C4277 1.415 . S
C4277 H4247 0.950 . S
C4277 C4272 1.363 . S
C4277 C4276 1.415 . S
H4278 C4275 0.999 . S
H4279 C4260 0.913 . S
H4280 C4298 0.951 . S
H4281 C4300 0.951 . S
H4282 C4302 0.950 . S
H4283 C4303 0.950 . S
H4284 C4305 0.950 . S
H4285 C4308 0.950 . S
H4286 C4309 0.950 . S
H4287 C4311 0.950 . S
H4288 C4312 0.950 . S
H4289 C4313 0.951 . S
H4290 C4315 0.951 . S
H4291 C4317 0.950 . S
H4292 C4318 0.950 . S
H4293 C4320 0.950 . S
H4294 C4323 0.950 . S
H4295 C4324 0.950 . S
H4296 C4326 0.950 . S
H4297 C4327 0.950 . S
C4298 H4280 0.951 . S
C4298 C4299 1.366 . S
C4298 C4300 1.388 . S
C4299 C4298 1.366 . S
C4299 C4303 1.385 . S
C4300 H4281 0.951 . S
C4300 C4298 1.388 . S
C4300 C4301 1.366 . S
C4301 C4300 1.366 . S
C4301 C4302 1.414 . S
C4301 C4304 1.499 . S
C4302 H4282 0.950 . S
C4302 C4301 1.414 . S
C4302 C4303 1.374 . S
C4303 H4283 0.950 . S
C4303 C4299 1.385 . S
C4303 C4302 1.374 . S
C4304 C4301 1.499 . S
C4304 C4305 1.373 . S
C4304 C4306 1.389 . S
C4305 H4284 0.950 . S
C4305 C4304 1.373 . S
C4305 C4321 1.377 . S
C4306 C4304 1.389 . S
C4306 C4307 1.524 . S
C4306 C4320 1.377 . S
C4307 C4306 1.524 . S
C4307 C4308 1.397 . S
C4307 C4312 1.363 . S
C4308 H4285 0.950 . S
C4308 C4307 1.397 . S
C4308 C4309 1.334 . S
C4309 H4286 0.950 . S
C4309 C4308 1.334 . S
C4309 C4310 1.287 . S
C4310 C4309 1.287 . S
C4310 C4311 1.524 . S
C4310 H4329 0.913 . S
C4311 H4287 0.950 . S
C4311 C4310 1.524 . S
C4311 C4312 1.415 . S
C4312 H4288 0.950 . S
C4312 C4307 1.363 . S
C4312 C4311 1.415 . S
C4313 H4289 0.951 . S
C4313 C4314 1.366 . S
C4313 C4315 1.388 . S
C4314 C4313 1.366 . S
C4314 C4318 1.385 . S
C4315 H4290 0.951 . S
C4315 C4313 1.388 . S
C4315 C4316 1.366 . S
C4316 C4315 1.366 . S
C4316 C4317 1.414 . S
C4316 C4319 1.499 . S
C4317 H4291 0.950 . S
C4317 C4316 1.414 . S
C4317 C4318 1.374 . S
C4318 H4292 0.950 . S
C4318 C4314 1.385 . S
C4318 C4317 1.374 . S
C4319 C4316 1.499 . S
C4319 C4320 1.373 . S
C4319 C4321 1.389 . S
C4320 H4293 0.950 . S
C4320 C4306 1.377 . S
C4320 C4319 1.373 . S
C4321 C4305 1.377 . S
C4321 C4319 1.389 . S
C4321 C4322 1.524 . S
C4322 C4321 1.524 . S
C4322 C4323 1.397 . S
C4322 C4327 1.363 . S
C4323 H4294 0.950 . S
C4323 C4322 1.397 . S
C4323 C4324 1.334 . S
C4324 H4295 0.950 . S
C4324 C4323 1.334 . S
C4324 C4325 1.287 . S
C4325 C4324 1.287 . S
C4325 C4326 1.524 . S
C4325 H4328 0.999 . S
C4326 H4296 0.950 . S
C4326 C4325 1.524 . S
C4326 C4327 1.415 . S
C4327 H4297 0.950 . S
C4327 C4322 1.363 . S
C4327 C4326 1.415 . S
H4328 C4325 0.999 . S
H4329 C4310 0.913 . S
H4330 C4348 0.951 . S
H4331 C4350 0.951 . S
H4332 C4352 0.950 . S
H4333 C4353 0.950 . S
H4334 C4355 0.950 . S
H4335 C4358 0.950 . S
H4336 C4359 0.950 . S
H4337 C4361 0.950 . S
H4338 C4362 0.950 . S
H4339 C4363 0.951 . S
H4340 C4365 0.951 . S
H4341 C4367 0.950 . S
H4342 C4368 0.950 . S
H4343 C4370 0.950 . S
H4344 C4373 0.950 . S
H4345 C4374 0.950 . S
H4346 C4376 0.950 . S
H4347 C4377 0.950 . S
C4348 H4330 0.951 . S
C4348 C4349 1.366 . S
C4348 C4350 1.388 . S
C4349 C4348 1.366 . S
C4349 C4353 1.385 . S
C4350 H4331 0.951 . S
C4350 C4348 1.388 . S
C4350 C4351 1.366 . S
C4351 C4350 1.366 . S
C4351 C4352 1.414 . S
C4351 C4354 1.499 . S
C4352 H4332 0.950 . S
C4352 C4351 1.414 . S
C4352 C4353 1.374 . S
C4353 H4333 0.950 . S
C4353 C4349 1.385 . S
C4353 C4352 1.374 . S
C4354 C4351 1.499 . S
C4354 C4355 1.373 . S
C4354 C4356 1.389 . S
C4355 H4334 0.950 . S
C4355 C4354 1.373 . S
C4355 C4371 1.377 . S
C4356 C4354 1.389 . S
C4356 C4357 1.524 . S
C4356 C4370 1.377 . S
C4357 C4356 1.524 . S
C4357 C4358 1.397 . S
C4357 C4362 1.363 . S
C4358 H4335 0.950 . S
C4358 C4357 1.397 . S
C4358 C4359 1.334 . S
C4359 H4336 0.950 . S
C4359 C4358 1.334 . S
C4359 C4360 1.287 . S
C4360 C4359 1.287 . S
C4360 C4361 1.524 . S
C4360 H4379 0.913 . S
C4361 H4337 0.950 . S
C4361 C4360 1.524 . S
C4361 C4362 1.415 . S
C4362 H4338 0.950 . S
C4362 C4357 1.363 . S
C4362 C4361 1.415 . S
C4363 H4339 0.951 . S
C4363 C4364 1.366 . S
C4363 C4365 1.388 1_655 S
C4364 C4363 1.366 . S
C4364 C4368 1.385 . S
C4365 H4340 0.951 . S
C4365 C4363 1.388 1_455 S
C4365 C4366 1.366 . S
C4366 C4365 1.366 . S
C4366 C4367 1.414 1_455 S
C4366 C4369 1.499 . S
C4367 H4341 0.950 . S
C4367 C4366 1.414 1_655 S
C4367 C4368 1.374 . S
C4368 H4342 0.950 . S
C4368 C4364 1.385 . S
C4368 C4367 1.374 . S
C4369 C4366 1.499 . S
C4369 C4370 1.373 . S
C4369 C4371 1.389 . S
C4370 H4343 0.950 . S
C4370 C4356 1.377 . S
C4370 C4369 1.373 . S
C4371 C4355 1.377 . S
C4371 C4369 1.389 . S
C4371 C4372 1.524 . S
C4372 C4371 1.524 . S
C4372 C4373 1.397 . S
C4372 C4377 1.363 . S
C4373 H4344 0.950 . S
C4373 C4372 1.397 . S
C4373 C4374 1.334 . S
C4374 H4345 0.950 . S
C4374 C4373 1.334 . S
C4374 C4375 1.287 . S
C4375 C4374 1.287 . S
C4375 C4376 1.524 . S
C4375 H4378 0.999 . S
C4376 H4346 0.950 . S
C4376 C4375 1.524 . S
C4376 C4377 1.415 . S
C4377 H4347 0.950 . S
C4377 C4372 1.363 . S
C4377 C4376 1.415 . S
H4378 C4375 0.999 . S
H4379 C4360 0.913 . S
H4380 C4398 0.951 . S
H4381 C4400 0.951 . S
H4382 C4402 0.950 . S
H4383 C4403 0.950 . S
H4384 C4405 0.950 . S
H4385 C4408 0.950 . S
H4386 C4409 0.950 . S
H4387 C4411 0.950 . S
H4388 C4412 0.950 . S
H4389 C4413 0.951 . S
H4390 C4415 0.951 . S
H4391 C4417 0.950 . S
H4392 C4418 0.950 . S
H4393 C4420 0.950 . S
H4394 C4423 0.950 . S
H4395 C4424 0.950 . S
H4396 C4426 0.950 . S
H4397 C4427 0.950 . S
C4398 H4380 0.951 . S
C4398 C4399 1.366 . S
C4398 C4400 1.388 . S
C4399 C4398 1.366 . S
C4399 C4403 1.385 . S
C4400 H4381 0.951 . S
C4400 C4398 1.388 . S
C4400 C4401 1.366 . S
C4401 C4400 1.366 . S
C4401 C4402 1.414 . S
C4401 C4404 1.499 . S
C4402 H4382 0.950 . S
C4402 C4401 1.414 . S
C4402 C4403 1.374 . S
C4403 H4383 0.950 . S
C4403 C4399 1.385 . S
C4403 C4402 1.374 . S
C4404 C4401 1.499 . S
C4404 C4405 1.373 . S
C4404 C4406 1.389 . S
C4405 H4384 0.950 . S
C4405 C4404 1.373 . S
C4405 C4421 1.377 . S
C4406 C4404 1.389 . S
C4406 C4407 1.524 . S
C4406 C4420 1.377 . S
C4407 C4406 1.524 . S
C4407 C4408 1.397 . S
C4407 C4412 1.363 . S
C4408 H4385 0.950 . S
C4408 C4407 1.397 . S
C4408 C4409 1.334 . S
C4409 H4386 0.950 . S
C4409 C4408 1.334 . S
C4409 C4410 1.287 . S
C4410 C4409 1.287 . S
C4410 C4411 1.524 . S
C4410 H4429 0.913 . S
C4411 H4387 0.950 . S
C4411 C4410 1.524 . S
C4411 C4412 1.415 . S
C4412 H4388 0.950 . S
C4412 C4407 1.363 . S
C4412 C4411 1.415 . S
C4413 H4389 0.951 . S
C4413 C4414 1.366 . S
C4413 C4415 1.388 . S
C4414 C4413 1.366 . S
C4414 C4418 1.385 . S
C4415 H4390 0.951 . S
C4415 C4413 1.388 . S
C4415 C4416 1.366 . S
C4416 C4415 1.366 . S
C4416 C4417 1.414 . S
C4416 C4419 1.499 . S
C4417 H4391 0.950 . S
C4417 C4416 1.414 . S
C4417 C4418 1.374 . S
C4418 H4392 0.950 . S
C4418 C4414 1.385 . S
C4418 C4417 1.374 . S
C4419 C4416 1.499 . S
C4419 C4420 1.373 . S
C4419 C4421 1.389 . S
C4420 H4393 0.950 . S
C4420 C4406 1.377 . S
C4420 C4419 1.373 . S
C4421 C4405 1.377 . S
C4421 C4419 1.389 . S
C4421 C4422 1.524 . S
C4422 C4421 1.524 . S
C4422 C4423 1.397 . S
C4422 C4427 1.363 . S
C4423 H4394 0.950 . S
C4423 C4422 1.397 . S
C4423 C4424 1.334 . S
C4424 H4395 0.950 . S
C4424 C4423 1.334 . S
C4424 C4425 1.287 . S
C4425 C4424 1.287 . S
C4425 C4426 1.524 . S
C4425 H4428 0.999 . S
C4426 H4396 0.950 . S
C4426 C4425 1.524 . S
C4426 C4427 1.415 . S
C4427 H4397 0.950 . S
C4427 C4422 1.363 . S
C4427 C4426 1.415 . S
H4428 C4425 0.999 . S
H4429 C4410 0.913 . S
H4430 C4448 0.951 . S
H4431 C4450 0.951 . S
H4432 C4452 0.950 . S
H4433 C4453 0.950 . S
H4434 C4455 0.950 . S
H4435 C4458 0.950 . S
H4436 C4459 0.950 . S
H4437 C4461 0.950 . S
H4438 C4462 0.950 . S
H4439 C4463 0.951 . S
H4440 C4465 0.951 . S
H4441 C4467 0.950 . S
H4442 C4468 0.950 . S
H4443 C4470 0.950 . S
H4444 C4473 0.950 . S
H4445 C4474 0.950 . S
H4446 C4476 0.950 . S
H4447 C4477 0.950 . S
C4448 H4430 0.951 . S
C4448 C4449 1.366 . S
C4448 C4450 1.388 . S
C4449 C4448 1.366 . S
C4449 C4453 1.385 . S
C4450 H4431 0.951 . S
C4450 C4448 1.388 . S
C4450 C4451 1.366 . S
C4451 C4450 1.366 . S
C4451 C4452 1.414 . S
C4451 C4454 1.499 . S
C4452 H4432 0.950 . S
C4452 C4451 1.414 . S
C4452 C4453 1.374 . S
C4453 H4433 0.950 . S
C4453 C4449 1.385 . S
C4453 C4452 1.374 . S
C4454 C4451 1.499 . S
C4454 C4455 1.373 . S
C4454 C4456 1.389 . S
C4455 H4434 0.950 . S
C4455 C4454 1.373 . S
C4455 C4471 1.377 . S
C4456 C4454 1.389 . S
C4456 C4457 1.524 . S
C4456 C4470 1.377 . S
C4457 C4456 1.524 . S
C4457 C4458 1.397 . S
C4457 C4462 1.363 . S
C4458 H4435 0.950 . S
C4458 C4457 1.397 . S
C4458 C4459 1.334 . S
C4459 H4436 0.950 . S
C4459 C4458 1.334 . S
C4459 C4460 1.287 . S
C4460 C4459 1.287 . S
C4460 C4461 1.524 . S
C4460 H4479 0.913 . S
C4461 H4437 0.950 . S
C4461 C4460 1.524 . S
C4461 C4462 1.415 . S
C4462 H4438 0.950 . S
C4462 C4457 1.363 . S
C4462 C4461 1.415 . S
C4463 H4439 0.951 . S
C4463 C4464 1.366 . S
C4463 C4465 1.388 . S
C4464 C4463 1.366 . S
C4464 C4468 1.385 . S
C4465 H4440 0.951 . S
C4465 C4463 1.388 . S
C4465 C4466 1.366 . S
C4466 C4465 1.366 . S
C4466 C4467 1.414 . S
C4466 C4469 1.499 . S
C4467 H4441 0.950 . S
C4467 C4466 1.414 . S
C4467 C4468 1.374 . S
C4468 H4442 0.950 . S
C4468 C4464 1.385 . S
C4468 C4467 1.374 . S
C4469 C4466 1.499 . S
C4469 C4470 1.373 . S
C4469 C4471 1.389 . S
C4470 H4443 0.950 . S
C4470 C4456 1.377 . S
C4470 C4469 1.373 . S
C4471 C4455 1.377 . S
C4471 C4469 1.389 . S
C4471 C4472 1.524 . S
C4472 C4471 1.524 . S
C4472 C4473 1.397 . S
C4472 C4477 1.363 . S
C4473 H4444 0.950 . S
C4473 C4472 1.397 . S
C4473 C4474 1.334 . S
C4474 H4445 0.950 . S
C4474 C4473 1.334 . S
C4474 C4475 1.287 . S
C4475 C4474 1.287 . S
C4475 C4476 1.524 . S
C4475 H4478 0.999 . S
C4476 H4446 0.950 . S
C4476 C4475 1.524 . S
C4476 C4477 1.415 . S
C4477 H4447 0.950 . S
C4477 C4472 1.363 . S
C4477 C4476 1.415 . S
H4478 C4475 0.999 . S
H4479 C4460 0.913 . S
H4480 C4498 0.951 . S
H4481 C4500 0.951 . S
H4482 C4502 0.950 . S
H4483 C4503 0.950 . S
H4484 C4505 0.950 . S
H4485 C4508 0.950 . S
H4486 C4509 0.950 . S
H4487 C4511 0.950 . S
H4488 C4512 0.950 . S
H4489 C4513 0.951 . S
H4490 C4515 0.951 . S
H4491 C4517 0.950 . S
H4492 C4518 0.950 . S
H4493 C4520 0.950 . S
H4494 C4523 0.950 . S
H4495 C4524 0.950 . S
H4496 C4526 0.950 . S
H4497 C4527 0.950 . S
C4498 H4480 0.951 . S
C4498 C4499 1.366 . S
C4498 C4500 1.388 . S
C4499 C4498 1.366 . S
C4499 C4503 1.385 . S
C4500 H4481 0.951 . S
C4500 C4498 1.388 . S
C4500 C4501 1.366 . S
C4501 C4500 1.366 . S
C4501 C4502 1.414 . S
C4501 C4504 1.499 . S
C4502 H4482 0.950 . S
C4502 C4501 1.414 . S
C4502 C4503 1.374 . S
C4503 H4483 0.950 . S
C4503 C4499 1.385 . S
C4503 C4502 1.374 . S
C4504 C4501 1.499 . S
C4504 C4505 1.373 . S
C4504 C4506 1.389 . S
C4505 H4484 0.950 . S
C4505 C4504 1.373 . S
C4505 C4521 1.377 1_545 S
C4506 C4504 1.389 . S
C4506 C4507 1.524 . S
C4506 C4520 1.377 1_545 S
C4507 C4506 1.524 . S
C4507 C4508 1.397 . S
C4507 C4512 1.363 . S
C4508 H4485 0.950 . S
C4508 C4507 1.397 . S
C4508 C4509 1.334 . S
C4509 H4486 0.950 . S
C4509 C4508 1.334 . S
C4509 C4510 1.287 . S
C4510 C4509 1.287 . S
C4510 C4511 1.524 . S
C4510 H4529 0.913 . S
C4511 H4487 0.950 . S
C4511 C4510 1.524 . S
C4511 C4512 1.415 . S
C4512 H4488 0.950 . S
C4512 C4507 1.363 . S
C4512 C4511 1.415 . S
C4513 H4489 0.951 . S
C4513 C4514 1.366 . S
C4513 C4515 1.388 . S
C4514 C4513 1.366 . S
C4514 C4518 1.385 . S
C4515 H4490 0.951 . S
C4515 C4513 1.388 . S
C4515 C4516 1.366 . S
C4516 C4515 1.366 . S
C4516 C4517 1.414 . S
C4516 C4519 1.499 . S
C4517 H4491 0.950 . S
C4517 C4516 1.414 . S
C4517 C4518 1.374 . S
C4518 H4492 0.950 . S
C4518 C4514 1.385 . S
C4518 C4517 1.374 . S
C4519 C4516 1.499 . S
C4519 C4520 1.373 . S
C4519 C4521 1.389 . S
C4520 H4493 0.950 . S
C4520 C4506 1.377 1_565 S
C4520 C4519 1.373 . S
C4521 C4505 1.377 1_565 S
C4521 C4519 1.389 . S
C4521 C4522 1.524 . S
C4522 C4521 1.524 . S
C4522 C4523 1.397 . S
C4522 C4527 1.363 . S
C4523 H4494 0.950 . S
C4523 C4522 1.397 . S
C4523 C4524 1.334 . S
C4524 H4495 0.950 . S
C4524 C4523 1.334 . S
C4524 C4525 1.287 . S
C4525 C4524 1.287 . S
C4525 C4526 1.524 . S
C4525 H4528 0.999 . S
C4526 H4496 0.950 . S
C4526 C4525 1.524 . S
C4526 C4527 1.415 . S
C4527 H4497 0.950 . S
C4527 C4522 1.363 . S
C4527 C4526 1.415 . S
H4528 C4525 0.999 . S
H4529 C4510 0.913 . S
H4530 C4548 0.951 . S
H4531 C4550 0.951 . S
H4532 C4552 0.950 . S
H4533 C4553 0.950 . S
H4534 C4555 0.950 . S
H4535 C4558 0.950 . S
H4536 C4559 0.950 . S
H4537 C4561 0.950 . S
H4538 C4562 0.950 . S
H4539 C4563 0.951 . S
H4540 C4565 0.951 . S
H4541 C4567 0.950 . S
H4542 C4568 0.950 . S
H4543 C4570 0.950 . S
H4544 C4573 0.950 . S
H4545 C4574 0.950 . S
H4546 C4576 0.950 . S
H4547 C4577 0.950 . S
C4548 H4530 0.951 . S
C4548 C4549 1.366 . S
C4548 C4550 1.388 . S
C4549 C4548 1.366 . S
C4549 C4553 1.385 . S
C4550 H4531 0.951 . S
C4550 C4548 1.388 . S
C4550 C4551 1.366 . S
C4551 C4550 1.366 . S
C4551 C4552 1.414 . S
C4551 C4554 1.499 . S
C4552 H4532 0.950 . S
C4552 C4551 1.414 . S
C4552 C4553 1.374 . S
C4553 H4533 0.950 . S
C4553 C4549 1.385 . S
C4553 C4552 1.374 . S
C4554 C4551 1.499 . S
C4554 C4555 1.373 . S
C4554 C4556 1.389 . S
C4555 H4534 0.950 . S
C4555 C4554 1.373 . S
C4555 C4571 1.377 . S
C4556 C4554 1.389 . S
C4556 C4557 1.524 . S
C4556 C4570 1.377 . S
C4557 C4556 1.524 . S
C4557 C4558 1.397 . S
C4557 C4562 1.363 . S
C4558 H4535 0.950 . S
C4558 C4557 1.397 . S
C4558 C4559 1.334 . S
C4559 H4536 0.950 . S
C4559 C4558 1.334 . S
C4559 C4560 1.287 . S
C4560 C4559 1.287 . S
C4560 C4561 1.524 . S
C4560 H4579 0.913 . S
C4561 H4537 0.950 . S
C4561 C4560 1.524 . S
C4561 C4562 1.415 . S
C4562 H4538 0.950 . S
C4562 C4557 1.363 . S
C4562 C4561 1.415 . S
C4563 H4539 0.951 . S
C4563 C4564 1.366 . S
C4563 C4565 1.388 . S
C4564 C4563 1.366 . S
C4564 C4568 1.385 . S
C4565 H4540 0.951 . S
C4565 C4563 1.388 . S
C4565 C4566 1.366 . S
C4566 C4565 1.366 . S
C4566 C4567 1.414 . S
C4566 C4569 1.499 . S
C4567 H4541 0.950 . S
C4567 C4566 1.414 . S
C4567 C4568 1.374 . S
C4568 H4542 0.950 . S
C4568 C4564 1.385 . S
C4568 C4567 1.374 . S
C4569 C4566 1.499 . S
C4569 C4570 1.373 . S
C4569 C4571 1.389 . S
C4570 H4543 0.950 . S
C4570 C4556 1.377 . S
C4570 C4569 1.373 . S
C4571 C4555 1.377 . S
C4571 C4569 1.389 . S
C4571 C4572 1.524 . S
C4572 C4571 1.524 . S
C4572 C4573 1.397 . S
C4572 C4577 1.363 . S
C4573 H4544 0.950 . S
C4573 C4572 1.397 . S
C4573 C4574 1.334 . S
C4574 H4545 0.950 . S
C4574 C4573 1.334 . S
C4574 C4575 1.287 . S
C4575 C4574 1.287 . S
C4575 C4576 1.524 . S
C4575 H4578 0.999 . S
C4576 H4546 0.950 . S
C4576 C4575 1.524 . S
C4576 C4577 1.415 . S
C4577 H4547 0.950 . S
C4577 C4572 1.363 . S
C4577 C4576 1.415 . S
H4578 C4575 0.999 . S
H4579 C4560 0.913 . S
H4580 C4598 0.951 . S
H4581 C4600 0.951 . S
H4582 C4602 0.950 . S
H4583 C4603 0.950 . S
H4584 C4605 0.950 . S
H4585 C4608 0.950 . S
H4586 C4609 0.950 . S
H4587 C4611 0.950 . S
H4588 C4612 0.951 1_545 S
H4589 C4613 0.951 . S
H4590 C4615 0.951 . S
H4591 C4617 0.950 . S
H4592 C4618 0.950 . S
H4593 C4620 0.950 . S
H4594 C4623 0.950 . S
H4595 C4624 0.950 . S
H4596 C4626 0.950 . S
H4597 C4627 0.951 1_565 S
C4598 H4580 0.951 . S
C4598 C4599 1.366 . S
C4598 C4600 1.388 . S
C4599 C4598 1.366 . S
C4599 C4603 1.385 . S
C4600 H4581 0.951 . S
C4600 C4598 1.388 . S
C4600 C4601 1.366 . S
C4601 C4600 1.366 . S
C4601 C4602 1.414 . S
C4601 C4604 1.499 . S
C4602 H4582 0.950 . S
C4602 C4601 1.414 . S
C4602 C4603 1.374 . S
C4603 H4583 0.950 . S
C4603 C4599 1.385 . S
C4603 C4602 1.374 . S
C4604 C4601 1.499 . S
C4604 C4605 1.373 . S
C4604 C4606 1.389 . S
C4605 H4584 0.950 . S
C4605 C4604 1.373 . S
C4605 C4621 1.377 1_565 S
C4606 C4604 1.389 . S
C4606 C4607 1.524 . S
C4606 C4620 1.377 1_565 S
C4607 C4606 1.524 . S
C4607 C4608 1.397 . S
C4607 C4612 1.363 . S
C4608 H4585 0.950 . S
C4608 C4607 1.397 . S
C4608 C4609 1.334 . S
C4609 H4586 0.950 . S
C4609 C4608 1.334 . S
C4609 C4610 1.287 . S
C4610 C4609 1.287 . S
C4610 C4611 1.524 . S
C4610 H4629 0.913 . S
C4611 H4587 0.950 . S
C4611 C4610 1.524 . S
C4611 C4612 1.415 . S
C4612 H4588 0.951 1_565 S
C4612 C4607 1.363 . S
C4612 C4611 1.415 . S
C4613 H4589 0.951 . S
C4613 C4614 1.366 . S
C4613 C4615 1.388 . S
C4614 C4613 1.366 . S
C4614 C4618 1.385 . S
C4615 H4590 0.951 . S
C4615 C4613 1.388 . S
C4615 C4616 1.366 . S
C4616 C4615 1.366 . S
C4616 C4617 1.414 . S
C4616 C4619 1.499 . S
C4617 H4591 0.950 . S
C4617 C4616 1.414 . S
C4617 C4618 1.374 . S
C4618 H4592 0.950 . S
C4618 C4614 1.385 . S
C4618 C4617 1.374 . S
C4619 C4616 1.499 . S
C4619 C4620 1.373 . S
C4619 C4621 1.389 . S
C4620 H4593 0.950 . S
C4620 C4606 1.377 1_545 S
C4620 C4619 1.373 . S
C4621 C4605 1.377 1_545 S
C4621 C4619 1.389 . S
C4621 C4622 1.524 . S
C4622 C4621 1.524 . S
C4622 C4623 1.397 . S
C4622 C4627 1.363 . S
C4623 H4594 0.950 . S
C4623 C4622 1.397 . S
C4623 C4624 1.334 . S
C4624 H4595 0.950 . S
C4624 C4623 1.334 . S
C4624 C4625 1.287 . S
C4625 C4624 1.287 . S
C4625 C4626 1.524 . S
C4625 H4628 0.999 . S
C4626 H4596 0.950 . S
C4626 C4625 1.524 . S
C4626 C4627 1.415 . S
C4627 H4597 0.951 1_545 S
C4627 C4622 1.363 . S
C4627 C4626 1.415 . S
H4628 C4625 0.999 . S
H4629 C4610 0.913 . S
H4630 C4648 0.951 . S
H4631 C4650 0.951 1_554 S
H4632 C4652 0.950 . S
H4633 C4653 0.950 . S
H4634 C4655 0.950 . S
H4635 C4658 0.950 . S
H4636 C4659 0.950 . S
H4637 C4661 0.950 . S
H4638 C4662 0.950 . S
H4639 C4663 0.951 . S
H4640 C4665 0.951 1_556 S
H4641 C4667 0.950 . S
H4642 C4668 0.950 . S
H4643 C4670 0.950 . S
H4644 C4673 0.950 . S
H4645 C4674 0.950 . S
H4646 C4676 0.950 . S
H4647 C4677 0.950 . S
C4648 H4630 0.951 . S
C4648 C4649 1.366 . S
C4648 C4650 1.388 . S
C4649 C4648 1.366 . S
C4649 C4653 1.385 . S
C4650 H4631 0.951 1_556 S
C4650 C4648 1.388 . S
C4650 C4651 1.366 . S
C4651 C4650 1.366 . S
C4651 C4652 1.414 . S
C4651 C4654 1.499 . S
C4652 H4632 0.950 . S
C4652 C4651 1.414 . S
C4652 C4653 1.374 . S
C4653 H4633 0.950 . S
C4653 C4649 1.385 . S
C4653 C4652 1.374 . S
C4654 C4651 1.499 . S
C4654 C4655 1.373 . S
C4654 C4656 1.389 1_556 S
C4655 H4634 0.950 . S
C4655 C4654 1.373 . S
C4655 C4671 1.377 . S
C4656 C4654 1.389 1_554 S
C4656 C4657 1.524 . S
C4656 C4670 1.377 . S
C4657 C4656 1.524 . S
C4657 C4658 1.397 . S
C4657 C4662 1.363 . S
C4658 H4635 0.950 . S
C4658 C4657 1.397 . S
C4658 C4659 1.334 . S
C4659 H4636 0.950 . S
C4659 C4658 1.334 . S
C4659 C4660 1.287 . S
C4660 C4659 1.287 . S
C4660 C4661 1.524 . S
C4660 H4679 0.913 . S
C4661 H4637 0.950 . S
C4661 C4660 1.524 . S
C4661 C4662 1.415 . S
C4662 H4638 0.950 . S
C4662 C4657 1.363 . S
C4662 C4661 1.415 . S
C4663 H4639 0.951 . S
C4663 C4664 1.366 . S
C4663 C4665 1.388 . S
C4664 C4663 1.366 . S
C4664 C4668 1.385 . S
C4665 H4640 0.951 1_554 S
C4665 C4663 1.388 . S
C4665 C4666 1.366 . S
C4666 C4665 1.366 . S
C4666 C4667 1.414 . S
C4666 C4669 1.499 . S
C4667 H4641 0.950 . S
C4667 C4666 1.414 . S
C4667 C4668 1.374 . S
C4668 H4642 0.950 . S
C4668 C4664 1.385 . S
C4668 C4667 1.374 . S
C4669 C4666 1.499 . S
C4669 C4670 1.373 . S
C4669 C4671 1.389 1_554 S
C4670 H4643 0.950 . S
C4670 C4656 1.377 . S
C4670 C4669 1.373 . S
C4671 C4655 1.377 . S
C4671 C4669 1.389 1_556 S
C4671 C4672 1.524 . S
C4672 C4671 1.524 . S
C4672 C4673 1.397 . S
C4672 C4677 1.363 . S
C4673 H4644 0.950 . S
C4673 C4672 1.397 . S
C4673 C4674 1.334 . S
C4674 H4645 0.950 . S
C4674 C4673 1.334 . S
C4674 C4675 1.287 . S
C4675 C4674 1.287 . S
C4675 C4676 1.524 . S
C4675 H4678 0.999 . S
C4676 H4646 0.950 . S
C4676 C4675 1.524 . S
C4676 C4677 1.415 . S
C4677 H4647 0.950 . S
C4677 C4672 1.363 . S
C4677 C4676 1.415 . S
H4678 C4675 0.999 . S
H4679 C4660 0.913 . S
H4680 C4698 0.951 . S
H4681 C4700 0.951 . S
H4682 C4702 0.950 . S
H4683 C4703 0.950 . S
H4684 C4705 0.950 . S
H4685 C4708 0.950 . S
H4686 C4709 0.950 . S
H4687 C4711 0.950 . S
H4688 C4712 0.950 . S
H4689 C4713 0.951 . S
H4690 C4715 0.951 . S
H4691 C4717 0.950 . S
H4692 C4718 0.950 . S
H4693 C4720 0.950 . S
H4694 C4723 0.950 . S
H4695 C4724 0.950 . S
H4696 C4726 0.950 . S
H4697 C4727 0.950 . S
C4698 H4680 0.951 . S
C4698 C4699 1.366 . S
C4698 C4700 1.388 . S
C4699 C4698 1.366 . S
C4699 C4703 1.385 . S
C4700 H4681 0.951 . S
C4700 C4698 1.388 . S
C4700 C4701 1.366 . S
C4701 C4700 1.366 . S
C4701 C4702 1.414 . S
C4701 C4704 1.499 . S
C4702 H4682 0.950 . S
C4702 C4701 1.414 . S
C4702 C4703 1.374 . S
C4703 H4683 0.950 . S
C4703 C4699 1.385 . S
C4703 C4702 1.374 . S
C4704 C4701 1.499 . S
C4704 C4705 1.373 . S
C4704 C4706 1.389 . S
C4705 H4684 0.950 . S
C4705 C4704 1.373 . S
C4705 C4721 1.377 1_545 S
C4706 C4704 1.389 . S
C4706 C4707 1.524 . S
C4706 C4720 1.377 1_545 S
C4707 C4706 1.524 . S
C4707 C4708 1.397 . S
C4707 C4712 1.363 . S
C4708 H4685 0.950 . S
C4708 C4707 1.397 . S
C4708 C4709 1.334 . S
C4709 H4686 0.950 . S
C4709 C4708 1.334 . S
C4709 C4710 1.287 . S
C4710 C4709 1.287 . S
C4710 C4711 1.524 . S
C4710 H4729 0.913 . S
C4711 H4687 0.950 . S
C4711 C4710 1.524 . S
C4711 C4712 1.415 . S
C4712 H4688 0.950 . S
C4712 C4707 1.363 . S
C4712 C4711 1.415 . S
C4713 H4689 0.951 . S
C4713 C4714 1.366 . S
C4713 C4715 1.388 . S
C4714 C4713 1.366 . S
C4714 C4718 1.385 . S
C4715 H4690 0.951 . S
C4715 C4713 1.388 . S
C4715 C4716 1.366 . S
C4716 C4715 1.366 . S
C4716 C4717 1.414 . S
C4716 C4719 1.499 . S
C4717 H4691 0.950 . S
C4717 C4716 1.414 . S
C4717 C4718 1.374 . S
C4718 H4692 0.950 . S
C4718 C4714 1.385 . S
C4718 C4717 1.374 . S
C4719 C4716 1.499 . S
C4719 C4720 1.373 . S
C4719 C4721 1.389 . S
C4720 H4693 0.950 . S
C4720 C4706 1.377 1_565 S
C4720 C4719 1.373 . S
C4721 C4705 1.377 1_565 S
C4721 C4719 1.389 . S
C4721 C4722 1.524 . S
C4722 C4721 1.524 . S
C4722 C4723 1.397 . S
C4722 C4727 1.363 . S
C4723 H4694 0.950 . S
C4723 C4722 1.397 . S
C4723 C4724 1.334 . S
C4724 H4695 0.950 . S
C4724 C4723 1.334 . S
C4724 C4725 1.287 . S
C4725 C4724 1.287 . S
C4725 C4726 1.524 . S
C4725 H4728 0.999 . S
C4726 H4696 0.950 . S
C4726 C4725 1.524 . S
C4726 C4727 1.415 . S
C4727 H4697 0.950 . S
C4727 C4722 1.363 . S
C4727 C4726 1.415 . S
H4728 C4725 0.999 . S
H4729 C4710 0.913 . S
H4730 C4748 0.951 . S
H4731 C4750 0.951 . S
H4732 C4752 0.950 . S
H4733 C4753 0.950 . S
H4734 C4755 0.950 . S
H4735 C4758 0.950 . S
H4736 C4759 0.950 . S
H4737 C4761 0.950 . S
H4738 C4762 0.950 . S
H4739 C4763 0.951 . S
H4740 C4765 0.951 . S
H4741 C4767 0.950 . S
H4742 C4768 0.950 . S
H4743 C4770 0.950 . S
H4744 C4773 0.950 . S
H4745 C4774 0.950 . S
H4746 C4776 0.950 . S
H4747 C4777 0.950 . S
C4748 H4730 0.951 . S
C4748 C4749 1.366 . S
C4748 C4750 1.388 . S
C4749 C4748 1.366 . S
C4749 C4753 1.385 . S
C4750 H4731 0.951 . S
C4750 C4748 1.388 . S
C4750 C4751 1.366 . S
C4751 C4750 1.366 . S
C4751 C4752 1.414 . S
C4751 C4754 1.499 . S
C4752 H4732 0.950 . S
C4752 C4751 1.414 . S
C4752 C4753 1.374 . S
C4753 H4733 0.950 . S
C4753 C4749 1.385 . S
C4753 C4752 1.374 . S
C4754 C4751 1.499 . S
C4754 C4755 1.373 . S
C4754 C4756 1.389 . S
C4755 H4734 0.950 . S
C4755 C4754 1.373 . S
C4755 C4771 1.377 . S
C4756 C4754 1.389 . S
C4756 C4757 1.524 . S
C4756 C4770 1.377 . S
C4757 C4756 1.524 . S
C4757 C4758 1.397 . S
C4757 C4762 1.363 . S
C4758 H4735 0.950 . S
C4758 C4757 1.397 . S
C4758 C4759 1.334 . S
C4759 H4736 0.950 . S
C4759 C4758 1.334 . S
C4759 C4760 1.287 . S
C4760 C4759 1.287 . S
C4760 C4761 1.524 . S
C4760 H4779 0.913 . S
C4761 H4737 0.950 . S
C4761 C4760 1.524 . S
C4761 C4762 1.415 . S
C4762 H4738 0.950 . S
C4762 C4757 1.363 . S
C4762 C4761 1.415 . S
C4763 H4739 0.951 . S
C4763 C4764 1.366 . S
C4763 C4765 1.388 . S
C4764 C4763 1.366 . S
C4764 C4768 1.385 . S
C4765 H4740 0.951 . S
C4765 C4763 1.388 . S
C4765 C4766 1.366 . S
C4766 C4765 1.366 . S
C4766 C4767 1.414 . S
C4766 C4769 1.499 . S
C4767 H4741 0.950 . S
C4767 C4766 1.414 . S
C4767 C4768 1.374 . S
C4768 H4742 0.950 . S
C4768 C4764 1.385 . S
C4768 C4767 1.374 . S
C4769 C4766 1.499 . S
C4769 C4770 1.373 . S
C4769 C4771 1.389 . S
C4770 H4743 0.950 . S
C4770 C4756 1.377 . S
C4770 C4769 1.373 . S
C4771 C4755 1.377 . S
C4771 C4769 1.389 . S
C4771 C4772 1.524 . S
C4772 C4771 1.524 . S
C4772 C4773 1.397 . S
C4772 C4777 1.363 . S
C4773 H4744 0.950 . S
C4773 C4772 1.397 . S
C4773 C4774 1.334 . S
C4774 H4745 0.950 . S
C4774 C4773 1.334 . S
C4774 C4775 1.287 . S
C4775 C4774 1.287 . S
C4775 C4776 1.524 . S
C4775 H4778 0.999 . S
C4776 H4746 0.950 . S
C4776 C4775 1.524 . S
C4776 C4777 1.415 . S
C4777 H4747 0.950 . S
C4777 C4772 1.363 . S
C4777 C4776 1.415 . S
H4778 C4775 0.999 . S
H4779 C4760 0.913 . S
H4780 C4798 0.951 . S
H4781 C4800 0.951 . S
H4782 C4802 0.950 . S
H4783 C4803 0.950 . S
H4784 C4805 0.950 . S
H4785 C4808 0.950 . S
H4786 C4809 0.950 . S
H4787 C4811 0.950 . S
H4788 C4812 0.918 1_565 S
H4789 C4813 0.951 . S
H4790 C4815 0.951 . S
H4791 C4817 0.950 . S
H4792 C4818 0.950 . S
H4793 C4820 0.950 . S
H4794 C4823 0.950 . S
H4795 C4824 0.950 . S
H4796 C4826 0.950 . S
H4797 C4827 0.918 1_545 S
C4798 H4780 0.951 . S
C4798 C4799 1.366 . S
C4798 C4800 1.388 . S
C4799 C4798 1.366 . S
C4799 C4803 1.385 . S
C4800 H4781 0.951 . S
C4800 C4798 1.388 . S
C4800 C4801 1.366 . S
C4801 C4800 1.366 . S
C4801 C4802 1.414 . S
C4801 C4804 1.499 . S
C4802 H4782 0.950 . S
C4802 C4801 1.414 . S
C4802 C4803 1.374 . S
C4803 H4783 0.950 . S
C4803 C4799 1.385 . S
C4803 C4802 1.374 . S
C4804 C4801 1.499 . S
C4804 C4805 1.373 . S
C4804 C4806 1.389 . S
C4805 H4784 0.950 . S
C4805 C4804 1.373 . S
C4805 C4821 1.377 1_545 S
C4806 C4804 1.389 . S
C4806 C4807 1.524 . S
C4806 C4820 1.377 1_545 S
C4807 C4806 1.524 . S
C4807 C4808 1.397 . S
C4807 C4812 1.363 . S
C4808 H4785 0.950 . S
C4808 C4807 1.397 . S
C4808 C4809 1.334 . S
C4809 H4786 0.950 . S
C4809 C4808 1.334 . S
C4809 C4810 1.287 . S
C4810 C4809 1.287 . S
C4810 C4811 1.524 . S
C4810 H4829 0.913 . S
C4811 H4787 0.950 . S
C4811 C4810 1.524 . S
C4811 C4812 1.415 . S
C4812 H4788 0.918 1_545 S
C4812 C4807 1.363 . S
C4812 C4811 1.415 . S
C4813 H4789 0.951 . S
C4813 C4814 1.366 . S
C4813 C4815 1.388 . S
C4814 C4813 1.366 . S
C4814 C4818 1.385 . S
C4815 H4790 0.951 . S
C4815 C4813 1.388 . S
C4815 C4816 1.366 . S
C4816 C4815 1.366 . S
C4816 C4817 1.414 . S
C4816 C4819 1.499 . S
C4817 H4791 0.950 . S
C4817 C4816 1.414 . S
C4817 C4818 1.374 . S
C4818 H4792 0.950 . S
C4818 C4814 1.385 . S
C4818 C4817 1.374 . S
C4819 C4816 1.499 . S
C4819 C4820 1.373 . S
C4819 C4821 1.389 . S
C4820 H4793 0.950 . S
C4820 C4806 1.377 1_565 S
C4820 C4819 1.373 . S
C4821 C4805 1.377 1_565 S
C4821 C4819 1.389 . S
C4821 C4822 1.524 . S
C4822 C4821 1.524 . S
C4822 C4823 1.397 . S
C4822 C4827 1.363 . S
C4823 H4794 0.950 . S
C4823 C4822 1.397 . S
C4823 C4824 1.334 . S
C4824 H4795 0.950 . S
C4824 C4823 1.334 . S
C4824 C4825 1.287 . S
C4825 C4824 1.287 . S
C4825 C4826 1.524 . S
C4825 H4828 0.999 . S
C4826 H4796 0.950 . S
C4826 C4825 1.524 . S
C4826 C4827 1.415 . S
C4827 H4797 0.918 1_565 S
C4827 C4822 1.363 . S
C4827 C4826 1.415 . S
H4828 C4825 0.999 . S
H4829 C4810 0.913 . S
H4830 C4848 0.951 . S
H4831 C4850 0.951 . S
H4832 C4852 0.950 . S
H4833 C4853 0.950 . S
H4834 C4855 0.950 . S
H4835 C4858 0.950 . S
H4836 C4859 0.950 1_556 S
H4837 C4861 0.950 . S
H4838 C4862 0.950 . S
H4839 C4863 0.951 . S
H4840 C4865 0.951 . S
H4841 C4867 0.950 . S
H4842 C4868 0.950 . S
H4843 C4870 0.950 . S
H4844 C4873 0.950 . S
H4845 C4874 0.950 1_554 S
H4846 C4876 0.950 . S
H4847 C4877 0.950 . S
C4848 H4830 0.951 . S
C4848 C4849 1.366 1_554 S
C4848 C4850 1.388 . S
C4849 C4848 1.366 1_556 S
C4849 C4853 1.385 . S
C4850 H4831 0.951 . S
C4850 C4848 1.388 . S
C4850 C4851 1.366 1_554 S
C4851 C4850 1.366 1_556 S
C4851 C4852 1.414 . S
C4851 C4854 1.499 . S
C4852 H4832 0.950 . S
C4852 C4851 1.414 . S
C4852 C4853 1.374 . S
C4853 H4833 0.950 . S
C4853 C4849 1.385 . S
C4853 C4852 1.374 . S
C4854 C4851 1.499 . S
C4854 C4855 1.373 . S
C4854 C4856 1.389 1_556 S
C4855 H4834 0.950 . S
C4855 C4854 1.373 . S
C4855 C4871 1.377 . S
C4856 C4854 1.389 1_554 S
C4856 C4857 1.524 . S
C4856 C4870 1.377 . S
C4857 C4856 1.524 . S
C4857 C4858 1.397 1_554 S
C4857 C4862 1.363 . S
C4858 H4835 0.950 . S
C4858 C4857 1.397 1_556 S
C4858 C4859 1.334 1_556 S
C4859 H4836 0.950 1_554 S
C4859 C4858 1.334 1_554 S
C4859 C4860 1.287 . S
C4860 C4859 1.287 . S
C4860 C4861 1.524 . S
C4860 H4879 0.913 . S
C4861 H4837 0.950 . S
C4861 C4860 1.524 . S
C4861 C4862 1.415 . S
C4862 H4838 0.950 . S
C4862 C4857 1.363 . S
C4862 C4861 1.415 . S
C4863 H4839 0.951 . S
C4863 C4864 1.366 1_556 S
C4863 C4865 1.388 . S
C4864 C4863 1.366 1_554 S
C4864 C4868 1.385 . S
C4865 H4840 0.951 . S
C4865 C4863 1.388 . S
C4865 C4866 1.366 1_556 S
C4866 C4865 1.366 1_554 S
C4866 C4867 1.414 . S
C4866 C4869 1.499 . S
C4867 H4841 0.950 . S
C4867 C4866 1.414 . S
C4867 C4868 1.374 . S
C4868 H4842 0.950 . S
C4868 C4864 1.385 . S
C4868 C4867 1.374 . S
C4869 C4866 1.499 . S
C4869 C4870 1.373 . S
C4869 C4871 1.389 1_554 S
C4870 H4843 0.950 . S
C4870 C4856 1.377 . S
C4870 C4869 1.373 . S
C4871 C4855 1.377 . S
C4871 C4869 1.389 1_556 S
C4871 C4872 1.524 . S
C4872 C4871 1.524 . S
C4872 C4873 1.397 1_556 S
C4872 C4877 1.363 . S
C4873 H4844 0.950 . S
C4873 C4872 1.397 1_554 S
C4873 C4874 1.334 1_554 S
C4874 H4845 0.950 1_556 S
C4874 C4873 1.334 1_556 S
C4874 C4875 1.287 . S
C4875 C4874 1.287 . S
C4875 C4876 1.524 . S
C4875 H4878 0.999 . S
C4876 H4846 0.950 . S
C4876 C4875 1.524 . S
C4876 C4877 1.415 . S
C4877 H4847 0.950 . S
C4877 C4872 1.363 . S
C4877 C4876 1.415 . S
H4878 C4875 0.999 . S
H4879 C4860 0.913 . S
H4880 C4898 0.951 . S
H4881 C4900 0.951 . S
H4882 C4902 0.950 . S
H4883 C4903 0.950 . S
H4884 C4905 0.950 . S
H4885 C4908 0.950 . S
H4886 C4909 0.950 . S
H4887 C4911 0.950 . S
H4888 C4912 0.950 . S
H4889 C4913 0.951 . S
H4890 C4915 0.951 . S
H4891 C4917 0.950 . S
H4892 C4918 0.950 . S
H4893 C4920 0.950 . S
H4894 C4923 0.950 . S
H4895 C4924 0.950 . S
H4896 C4926 0.950 . S
H4897 C4927 0.950 . S
C4898 H4880 0.951 . S
C4898 C4899 1.366 . S
C4898 C4900 1.388 . S
C4899 C4898 1.366 . S
C4899 C4903 1.385 . S
C4900 H4881 0.951 . S
C4900 C4898 1.388 . S
C4900 C4901 1.366 . S
C4901 C4900 1.366 . S
C4901 C4902 1.414 . S
C4901 C4904 1.499 . S
C4902 H4882 0.950 . S
C4902 C4901 1.414 . S
C4902 C4903 1.374 . S
C4903 H4883 0.950 . S
C4903 C4899 1.385 . S
C4903 C4902 1.374 . S
C4904 C4901 1.499 . S
C4904 C4905 1.373 . S
C4904 C4906 1.389 . S
C4905 H4884 0.950 . S
C4905 C4904 1.373 . S
C4905 C4921 1.377 . S
C4906 C4904 1.389 . S
C4906 C4907 1.524 . S
C4906 C4920 1.377 . S
C4907 C4906 1.524 . S
C4907 C4908 1.397 . S
C4907 C4912 1.363 . S
C4908 H4885 0.950 . S
C4908 C4907 1.397 . S
C4908 C4909 1.334 . S
C4909 H4886 0.950 . S
C4909 C4908 1.334 . S
C4909 C4910 1.287 . S
C4910 C4909 1.287 . S
C4910 C4911 1.524 . S
C4910 H4929 0.913 . S
C4911 H4887 0.950 . S
C4911 C4910 1.524 . S
C4911 C4912 1.415 . S
C4912 H4888 0.950 . S
C4912 C4907 1.363 . S
C4912 C4911 1.415 . S
C4913 H4889 0.951 . S
C4913 C4914 1.366 . S
C4913 C4915 1.388 . S
C4914 C4913 1.366 . S
C4914 C4918 1.385 . S
C4915 H4890 0.951 . S
C4915 C4913 1.388 . S
C4915 C4916 1.366 . S
C4916 C4915 1.366 . S
C4916 C4917 1.414 . S
C4916 C4919 1.499 . S
C4917 H4891 0.950 . S
C4917 C4916 1.414 . S
C4917 C4918 1.374 . S
C4918 H4892 0.950 . S
C4918 C4914 1.385 . S
C4918 C4917 1.374 . S
C4919 C4916 1.499 . S
C4919 C4920 1.373 . S
C4919 C4921 1.389 . S
C4920 H4893 0.950 . S
C4920 C4906 1.377 . S
C4920 C4919 1.373 . S
C4921 C4905 1.377 . S
C4921 C4919 1.389 . S
C4921 C4922 1.524 . S
C4922 C4921 1.524 . S
C4922 C4923 1.397 . S
C4922 C4927 1.363 . S
C4923 H4894 0.950 . S
C4923 C4922 1.397 . S
C4923 C4924 1.334 . S
C4924 H4895 0.950 . S
C4924 C4923 1.334 . S
C4924 C4925 1.287 . S
C4925 C4924 1.287 . S
C4925 C4926 1.524 . S
C4925 H4928 0.999 . S
C4926 H4896 0.950 . S
C4926 C4925 1.524 . S
C4926 C4927 1.415 . S
C4927 H4897 0.950 . S
C4927 C4922 1.363 . S
C4927 C4926 1.415 . S
H4928 C4925 0.999 . S
H4929 C4910 0.913 . S
H4930 C4948 0.951 . S
H4931 C4950 0.951 . S
H4932 C4952 0.950 . S
H4933 C4953 0.950 . S
H4934 C4955 0.950 . S
H4935 C4958 0.950 . S
H4936 C4959 0.950 . S
H4937 C4961 0.950 . S
H4938 C4962 0.950 . S
H4939 C4963 0.951 . S
H4940 C4965 0.951 . S
H4941 C4967 0.950 . S
H4942 C4968 0.950 . S
H4943 C4970 0.950 . S
H4944 C4973 0.950 . S
H4945 C4974 0.950 . S
H4946 C4976 0.950 . S
H4947 C4977 0.950 . S
C4948 H4930 0.951 . S
C4948 C4949 1.366 . S
C4948 C4950 1.388 . S
C4949 C4948 1.366 . S
C4949 C4953 1.385 . S
C4950 H4931 0.951 . S
C4950 C4948 1.388 . S
C4950 C4951 1.366 . S
C4951 C4950 1.366 . S
C4951 C4952 1.414 . S
C4951 C4954 1.499 . S
C4952 H4932 0.950 . S
C4952 C4951 1.414 . S
C4952 C4953 1.374 . S
C4953 H4933 0.950 . S
C4953 C4949 1.385 . S
C4953 C4952 1.374 . S
C4954 C4951 1.499 . S
C4954 C4955 1.373 . S
C4954 C4956 1.389 1_556 S
C4955 H4934 0.950 . S
C4955 C4954 1.373 . S
C4955 C4971 1.377 . S
C4956 C4954 1.389 1_554 S
C4956 C4957 1.524 . S
C4956 C4970 1.377 . S
C4957 C4956 1.524 . S
C4957 C4958 1.397 . S
C4957 C4962 1.363 . S
C4958 H4935 0.950 . S
C4958 C4957 1.397 . S
C4958 C4959 1.334 . S
C4959 H4936 0.950 . S
C4959 C4958 1.334 . S
C4959 C4960 1.287 . S
C4960 C4959 1.287 . S
C4960 C4961 1.524 . S
C4960 H4979 0.913 . S
C4961 H4937 0.950 . S
C4961 C4960 1.524 . S
C4961 C4962 1.415 . S
C4962 H4938 0.950 . S
C4962 C4957 1.363 . S
C4962 C4961 1.415 . S
C4963 H4939 0.951 . S
C4963 C4964 1.366 . S
C4963 C4965 1.388 . S
C4964 C4963 1.366 . S
C4964 C4968 1.385 . S
C4965 H4940 0.951 . S
C4965 C4963 1.388 . S
C4965 C4966 1.366 . S
C4966 C4965 1.366 . S
C4966 C4967 1.414 . S
C4966 C4969 1.499 . S
C4967 H4941 0.950 . S
C4967 C4966 1.414 . S
C4967 C4968 1.374 . S
C4968 H4942 0.950 . S
C4968 C4964 1.385 . S
C4968 C4967 1.374 . S
C4969 C4966 1.499 . S
C4969 C4970 1.373 . S
C4969 C4971 1.389 1_554 S
C4970 H4943 0.950 . S
C4970 C4956 1.377 . S
C4970 C4969 1.373 . S
C4971 C4955 1.377 . S
C4971 C4969 1.389 1_556 S
C4971 C4972 1.524 . S
C4972 C4971 1.524 . S
C4972 C4973 1.397 . S
C4972 C4977 1.363 . S
C4973 H4944 0.950 . S
C4973 C4972 1.397 . S
C4973 C4974 1.334 . S
C4974 H4945 0.950 . S
C4974 C4973 1.334 . S
C4974 C4975 1.287 . S
C4975 C4974 1.287 . S
C4975 C4976 1.524 . S
C4975 H4978 0.999 . S
C4976 H4946 0.950 . S
C4976 C4975 1.524 . S
C4976 C4977 1.415 . S
C4977 H4947 0.950 . S
C4977 C4972 1.363 . S
C4977 C4976 1.415 . S
H4978 C4975 0.999 . S
H4979 C4960 0.913 . S
H4980 C4998 0.951 . S
H4981 C5000 0.951 . S
H4982 C5002 0.950 . S
H4983 C5003 0.950 . S
H4984 C5005 0.950 . S
H4985 C5008 0.950 . S
H4986 C5009 0.950 . S
H4987 C5011 0.950 . S
H4988 C5012 0.950 . S
H4989 C5013 0.951 . S
H4990 C5015 0.951 . S
H4991 C5017 0.950 . S
H4992 C5018 0.950 . S
H4993 C5020 0.950 . S
H4994 C5023 0.950 . S
H4995 C5024 0.950 . S
H4996 C5026 0.950 . S
H4997 C5027 0.950 . S
C4998 H4980 0.951 . S
C4998 C4999 1.366 . S
C4998 C5000 1.388 . S
C4999 C4998 1.366 . S
C4999 C5003 1.385 . S
C5000 H4981 0.951 . S
C5000 C4998 1.388 . S
C5000 C5001 1.366 . S
C5001 C5000 1.366 . S
C5001 C5002 1.414 . S
C5001 C5004 1.499 . S
C5002 H4982 0.950 . S
C5002 C5001 1.414 . S
C5002 C5003 1.374 . S
C5003 H4983 0.950 . S
C5003 C4999 1.385 . S
C5003 C5002 1.374 . S
C5004 C5001 1.499 . S
C5004 C5005 1.373 . S
C5004 C5006 1.389 . S
C5005 H4984 0.950 . S
C5005 C5004 1.373 . S
C5005 C5021 1.377 . S
C5006 C5004 1.389 . S
C5006 C5007 1.524 . S
C5006 C5020 1.377 . S
C5007 C5006 1.524 . S
C5007 C5008 1.397 . S
C5007 C5012 1.363 . S
C5008 H4985 0.950 . S
C5008 C5007 1.397 . S
C5008 C5009 1.334 . S
C5009 H4986 0.950 . S
C5009 C5008 1.334 . S
C5009 C5010 1.287 . S
C5010 C5009 1.287 . S
C5010 C5011 1.524 . S
C5010 H5029 0.913 . S
C5011 H4987 0.950 . S
C5011 C5010 1.524 . S
C5011 C5012 1.415 . S
C5012 H4988 0.950 . S
C5012 C5007 1.363 . S
C5012 C5011 1.415 . S
C5013 H4989 0.951 . S
C5013 C5014 1.366 . S
C5013 C5015 1.388 . S
C5014 C5013 1.366 . S
C5014 C5018 1.385 . S
C5015 H4990 0.951 . S
C5015 C5013 1.388 . S
C5015 C5016 1.366 . S
C5016 C5015 1.366 . S
C5016 C5017 1.414 . S
C5016 C5019 1.499 . S
C5017 H4991 0.950 . S
C5017 C5016 1.414 . S
C5017 C5018 1.374 . S
C5018 H4992 0.950 . S
C5018 C5014 1.385 . S
C5018 C5017 1.374 . S
C5019 C5016 1.499 . S
C5019 C5020 1.373 . S
C5019 C5021 1.389 . S
C5020 H4993 0.950 . S
C5020 C5006 1.377 . S
C5020 C5019 1.373 . S
C5021 C5005 1.377 . S
C5021 C5019 1.389 . S
C5021 C5022 1.524 . S
C5022 C5021 1.524 . S
C5022 C5023 1.397 . S
C5022 C5027 1.363 . S
C5023 H4994 0.950 . S
C5023 C5022 1.397 . S
C5023 C5024 1.334 . S
C5024 H4995 0.950 . S
C5024 C5023 1.334 . S
C5024 C5025 1.287 . S
C5025 C5024 1.287 . S
C5025 C5026 1.524 . S
C5025 H5028 0.999 . S
C5026 H4996 0.950 . S
C5026 C5025 1.524 . S
C5026 C5027 1.415 . S
C5027 H4997 0.950 . S
C5027 C5022 1.363 . S
C5027 C5026 1.415 . S
H5028 C5025 0.999 . S
H5029 C5010 0.913 . S
H5030 C5048 0.951 . S
H5031 C5050 0.951 . S
H5032 C5052 0.950 . S
H5033 C5053 0.950 . S
H5034 C5055 0.950 . S
H5035 C5058 0.950 . S
H5036 C5059 0.950 . S
H5037 C5061 0.950 . S
H5038 C5062 0.950 . S
H5039 C5063 0.951 . S
H5040 C5065 0.951 . S
H5041 C5067 0.950 . S
H5042 C5068 0.950 . S
H5043 C5070 0.950 . S
H5044 C5073 0.950 . S
H5045 C5074 0.950 . S
H5046 C5076 0.950 . S
H5047 C5077 0.950 . S
C5048 H5030 0.951 . S
C5048 C5049 1.366 . S
C5048 C5050 1.388 . S
C5049 C5048 1.366 . S
C5049 C5053 1.385 . S
C5050 H5031 0.951 . S
C5050 C5048 1.388 . S
C5050 C5051 1.366 . S
C5051 C5050 1.366 . S
C5051 C5052 1.414 . S
C5051 C5054 1.499 . S
C5052 H5032 0.950 . S
C5052 C5051 1.414 . S
C5052 C5053 1.374 . S
C5053 H5033 0.950 . S
C5053 C5049 1.385 . S
C5053 C5052 1.374 . S
C5054 C5051 1.499 . S
C5054 C5055 1.373 . S
C5054 C5056 1.389 . S
C5055 H5034 0.950 . S
C5055 C5054 1.373 . S
C5055 C5071 1.377 . S
C5056 C5054 1.389 . S
C5056 C5057 1.524 . S
C5056 C5070 1.377 . S
C5057 C5056 1.524 . S
C5057 C5058 1.397 . S
C5057 C5062 1.363 . S
C5058 H5035 0.950 . S
C5058 C5057 1.397 . S
C5058 C5059 1.334 . S
C5059 H5036 0.950 . S
C5059 C5058 1.334 . S
C5059 C5060 1.287 . S
C5060 C5059 1.287 . S
C5060 C5061 1.524 . S
C5060 H5079 0.913 . S
C5061 H5037 0.950 . S
C5061 C5060 1.524 . S
C5061 C5062 1.415 . S
C5062 H5038 0.950 . S
C5062 C5057 1.363 . S
C5062 C5061 1.415 . S
C5063 H5039 0.951 . S
C5063 C5064 1.366 . S
C5063 C5065 1.388 . S
C5064 C5063 1.366 . S
C5064 C5068 1.385 . S
C5065 H5040 0.951 . S
C5065 C5063 1.388 . S
C5065 C5066 1.366 . S
C5066 C5065 1.366 . S
C5066 C5067 1.414 . S
C5066 C5069 1.499 . S
C5067 H5041 0.950 . S
C5067 C5066 1.414 . S
C5067 C5068 1.374 . S
C5068 H5042 0.950 . S
C5068 C5064 1.385 . S
C5068 C5067 1.374 . S
C5069 C5066 1.499 . S
C5069 C5070 1.373 . S
C5069 C5071 1.389 . S
C5070 H5043 0.950 . S
C5070 C5056 1.377 . S
C5070 C5069 1.373 . S
C5071 C5055 1.377 . S
C5071 C5069 1.389 . S
C5071 C5072 1.524 . S
C5072 C5071 1.524 . S
C5072 C5073 1.397 . S
C5072 C5077 1.363 . S
C5073 H5044 0.950 . S
C5073 C5072 1.397 . S
C5073 C5074 1.334 . S
C5074 H5045 0.950 . S
C5074 C5073 1.334 . S
C5074 C5075 1.287 . S
C5075 C5074 1.287 . S
C5075 C5076 1.524 . S
C5075 H5078 0.999 . S
C5076 H5046 0.950 . S
C5076 C5075 1.524 . S
C5076 C5077 1.415 . S
C5077 H5047 0.950 . S
C5077 C5072 1.363 . S
C5077 C5076 1.415 . S
H5078 C5075 0.999 . S
H5079 C5060 0.913 . S
H5080 C5098 0.951 . S
H5081 C5100 0.951 . S
H5082 C5102 0.950 . S
H5083 C5103 0.950 . S
H5084 C5105 0.950 . S
H5085 C5108 0.950 . S
H5086 C5109 0.950 . S
H5087 C5111 0.950 . S
H5088 C5112 0.950 . S
H5089 C5113 0.951 . S
H5090 C5115 0.951 . S
H5091 C5117 0.950 . S
H5092 C5118 0.950 . S
H5093 C5120 0.950 . S
H5094 C5123 0.950 . S
H5095 C5124 0.950 . S
H5096 C5126 0.950 . S
H5097 C5127 0.950 . S
C5098 H5080 0.951 . S
C5098 C5099 1.366 . S
C5098 C5100 1.388 . S
C5099 C5098 1.366 . S
C5099 C5103 1.385 . S
C5100 H5081 0.951 . S
C5100 C5098 1.388 . S
C5100 C5101 1.366 . S
C5101 C5100 1.366 . S
C5101 C5102 1.414 . S
C5101 C5104 1.499 . S
C5102 H5082 0.950 . S
C5102 C5101 1.414 . S
C5102 C5103 1.374 . S
C5103 H5083 0.950 . S
C5103 C5099 1.385 . S
C5103 C5102 1.374 . S
C5104 C5101 1.499 . S
C5104 C5105 1.373 . S
C5104 C5106 1.389 . S
C5105 H5084 0.950 . S
C5105 C5104 1.373 . S
C5105 C5121 1.377 . S
C5106 C5104 1.389 . S
C5106 C5107 1.524 . S
C5106 C5120 1.377 . S
C5107 C5106 1.524 . S
C5107 C5108 1.397 . S
C5107 C5112 1.363 . S
C5108 H5085 0.950 . S
C5108 C5107 1.397 . S
C5108 C5109 1.334 . S
C5109 H5086 0.950 . S
C5109 C5108 1.334 . S
C5109 C5110 1.287 . S
C5110 C5109 1.287 . S
C5110 C5111 1.524 . S
C5110 H5129 0.913 . S
C5111 H5087 0.950 . S
C5111 C5110 1.524 . S
C5111 C5112 1.415 . S
C5112 H5088 0.950 . S
C5112 C5107 1.363 . S
C5112 C5111 1.415 . S
C5113 H5089 0.951 . S
C5113 C5114 1.366 . S
C5113 C5115 1.388 . S
C5114 C5113 1.366 . S
C5114 C5118 1.385 . S
C5115 H5090 0.951 . S
C5115 C5113 1.388 . S
C5115 C5116 1.366 . S
C5116 C5115 1.366 . S
C5116 C5117 1.414 . S
C5116 C5119 1.499 . S
C5117 H5091 0.950 . S
C5117 C5116 1.414 . S
C5117 C5118 1.374 . S
C5118 H5092 0.950 . S
C5118 C5114 1.385 . S
C5118 C5117 1.374 . S
C5119 C5116 1.499 . S
C5119 C5120 1.373 . S
C5119 C5121 1.389 . S
C5120 H5093 0.950 . S
C5120 C5106 1.377 . S
C5120 C5119 1.373 . S
C5121 C5105 1.377 . S
C5121 C5119 1.389 . S
C5121 C5122 1.524 . S
C5122 C5121 1.524 . S
C5122 C5123 1.397 . S
C5122 C5127 1.363 . S
C5123 H5094 0.950 . S
C5123 C5122 1.397 . S
C5123 C5124 1.334 . S
C5124 H5095 0.950 . S
C5124 C5123 1.334 . S
C5124 C5125 1.287 . S
C5125 C5124 1.287 . S
C5125 C5126 1.524 . S
C5125 H5128 0.999 . S
C5126 H5096 0.950 . S
C5126 C5125 1.524 . S
C5126 C5127 1.415 . S
C5127 H5097 0.950 . S
C5127 C5122 1.363 . S
C5127 C5126 1.415 . S
H5128 C5125 0.999 . S
H5129 C5110 0.913 . S
H5130 C5148 0.951 . S
H5131 C5150 0.952 . S
H5132 C5152 0.950 . S
H5133 C5153 0.950 . S
H5134 C5155 0.950 . S
H5135 C5158 0.950 . S
H5136 C5159 0.950 . S
H5137 C5161 0.950 . S
H5138 C5162 0.950 . S
H5139 C5163 0.951 . S
H5140 C5165 0.952 . S
H5141 C5167 0.950 . S
H5142 C5168 0.950 . S
H5143 C5170 0.950 . S
H5144 C5173 0.950 . S
H5145 C5174 0.950 . S
H5146 C5176 0.950 . S
H5147 C5177 0.950 . S
C5148 H5130 0.951 . S
C5148 C5149 1.366 . S
C5148 C5150 1.388 . S
C5149 C5148 1.366 . S
C5149 C5153 1.385 . S
C5150 H5131 0.952 . S
C5150 C5148 1.388 . S
C5150 C5151 1.366 . S
C5151 C5150 1.366 . S
C5151 C5152 1.414 . S
C5151 C5154 1.499 . S
C5152 H5132 0.950 . S
C5152 C5151 1.414 . S
C5152 C5153 1.374 . S
C5153 H5133 0.950 . S
C5153 C5149 1.385 . S
C5153 C5152 1.374 . S
C5154 C5151 1.499 . S
C5154 C5155 1.373 . S
C5154 C5156 1.389 1_556 S
C5155 H5134 0.950 . S
C5155 C5154 1.373 . S
C5155 C5171 1.377 . S
C5156 C5154 1.389 1_554 S
C5156 C5157 1.524 . S
C5156 C5170 1.377 . S
C5157 C5156 1.524 . S
C5157 C5158 1.397 . S
C5157 C5162 1.363 . S
C5158 H5135 0.950 . S
C5158 C5157 1.397 . S
C5158 C5159 1.334 . S
C5159 H5136 0.950 . S
C5159 C5158 1.334 . S
C5159 C5160 1.287 . S
C5160 C5159 1.287 . S
C5160 C5161 1.524 . S
C5160 H5179 0.913 . S
C5161 H5137 0.950 . S
C5161 C5160 1.524 . S
C5161 C5162 1.415 . S
C5162 H5138 0.950 . S
C5162 C5157 1.363 . S
C5162 C5161 1.415 . S
C5163 H5139 0.951 . S
C5163 C5164 1.366 . S
C5163 C5165 1.388 . S
C5164 C5163 1.366 . S
C5164 C5168 1.385 . S
C5165 H5140 0.952 . S
C5165 C5163 1.388 . S
C5165 C5166 1.366 . S
C5166 C5165 1.366 . S
C5166 C5167 1.414 . S
C5166 C5169 1.499 . S
C5167 H5141 0.950 . S
C5167 C5166 1.414 . S
C5167 C5168 1.374 . S
C5168 H5142 0.950 . S
C5168 C5164 1.385 . S
C5168 C5167 1.374 . S
C5169 C5166 1.499 . S
C5169 C5170 1.373 . S
C5169 C5171 1.389 1_554 S
C5170 H5143 0.950 . S
C5170 C5156 1.377 . S
C5170 C5169 1.373 . S
C5171 C5155 1.377 . S
C5171 C5169 1.389 1_556 S
C5171 C5172 1.524 . S
C5172 C5171 1.524 . S
C5172 C5173 1.397 . S
C5172 C5177 1.363 . S
C5173 H5144 0.950 . S
C5173 C5172 1.397 . S
C5173 C5174 1.334 . S
C5174 H5145 0.950 . S
C5174 C5173 1.334 . S
C5174 C5175 1.287 . S
C5175 C5174 1.287 . S
C5175 C5176 1.524 . S
C5175 H5178 0.999 . S
C5176 H5146 0.950 . S
C5176 C5175 1.524 . S
C5176 C5177 1.415 . S
C5177 H5147 0.950 . S
C5177 C5172 1.363 . S
C5177 C5176 1.415 . S
H5178 C5175 0.999 . S
H5179 C5160 0.913 . S
H5180 C5198 0.951 . S
H5181 C5200 0.951 . S
H5182 C5202 0.950 . S
H5183 C5203 0.950 . S
H5184 C5205 0.950 . S
H5185 C5208 0.950 . S
H5186 C5209 0.950 . S
H5187 C5211 0.950 . S
H5188 C5212 0.950 . S
H5189 C5213 0.951 . S
H5190 C5215 0.951 . S
H5191 C5217 0.950 . S
H5192 C5218 0.950 . S
H5193 C5220 0.950 . S
H5194 C5223 0.950 . S
H5195 C5224 0.950 . S
H5196 C5226 0.950 . S
H5197 C5227 0.950 . S
C5198 H5180 0.951 . S
C5198 C5199 1.366 . S
C5198 C5200 1.388 . S
C5199 C5198 1.366 . S
C5199 C5203 1.385 . S
C5200 H5181 0.951 . S
C5200 C5198 1.388 . S
C5200 C5201 1.366 . S
C5201 C5200 1.366 . S
C5201 C5202 1.414 . S
C5201 C5204 1.499 . S
C5202 H5182 0.950 . S
C5202 C5201 1.414 . S
C5202 C5203 1.374 . S
C5203 H5183 0.950 . S
C5203 C5199 1.385 . S
C5203 C5202 1.374 . S
C5204 C5201 1.499 . S
C5204 C5205 1.373 . S
C5204 C5206 1.389 . S
C5205 H5184 0.950 . S
C5205 C5204 1.373 . S
C5205 C5221 1.377 . S
C5206 C5204 1.389 . S
C5206 C5207 1.524 . S
C5206 C5220 1.377 . S
C5207 C5206 1.524 . S
C5207 C5208 1.397 . S
C5207 C5212 1.363 . S
C5208 H5185 0.950 . S
C5208 C5207 1.397 . S
C5208 C5209 1.334 . S
C5209 H5186 0.950 . S
C5209 C5208 1.334 . S
C5209 C5210 1.287 . S
C5210 C5209 1.287 . S
C5210 C5211 1.524 . S
C5210 H5229 0.913 . S
C5211 H5187 0.950 . S
C5211 C5210 1.524 . S
C5211 C5212 1.415 . S
C5212 H5188 0.950 . S
C5212 C5207 1.363 . S
C5212 C5211 1.415 . S
C5213 H5189 0.951 . S
C5213 C5214 1.366 . S
C5213 C5215 1.388 . S
C5214 C5213 1.366 . S
C5214 C5218 1.385 . S
C5215 H5190 0.951 . S
C5215 C5213 1.388 . S
C5215 C5216 1.366 . S
C5216 C5215 1.366 . S
C5216 C5217 1.414 . S
C5216 C5219 1.499 . S
C5217 H5191 0.950 . S
C5217 C5216 1.414 . S
C5217 C5218 1.374 . S
C5218 H5192 0.950 . S
C5218 C5214 1.385 . S
C5218 C5217 1.374 . S
C5219 C5216 1.499 . S
C5219 C5220 1.373 . S
C5219 C5221 1.389 . S
C5220 H5193 0.950 . S
C5220 C5206 1.377 . S
C5220 C5219 1.373 . S
C5221 C5205 1.377 . S
C5221 C5219 1.389 . S
C5221 C5222 1.524 . S
C5222 C5221 1.524 . S
C5222 C5223 1.397 . S
C5222 C5227 1.363 . S
C5223 H5194 0.950 . S
C5223 C5222 1.397 . S
C5223 C5224 1.334 . S
C5224 H5195 0.950 . S
C5224 C5223 1.334 . S
C5224 C5225 1.287 . S
C5225 C5224 1.287 . S
C5225 C5226 1.524 . S
C5225 H5228 0.999 . S
C5226 H5196 0.950 . S
C5226 C5225 1.524 . S
C5226 C5227 1.415 . S
C5227 H5197 0.950 . S
C5227 C5222 1.363 . S
C5227 C5226 1.415 . S
H5228 C5225 0.999 . S
H5229 C5210 0.913 . S
H5230 C5248 0.951 . S
H5231 C5250 0.951 . S
H5232 C5252 0.950 . S
H5233 C5253 0.950 . S
H5234 C5255 0.950 . S
H5235 C5258 0.950 . S
H5236 C5259 0.950 . S
H5237 C5261 0.950 . S
H5238 C5262 0.950 . S
H5239 C5263 0.951 . S
H5240 C5265 0.951 . S
H5241 C5267 0.950 . S
H5242 C5268 0.950 . S
H5243 C5270 0.950 . S
H5244 C5273 0.950 . S
H5245 C5274 0.950 . S
H5246 C5276 0.950 . S
H5247 C5277 0.950 . S
C5248 H5230 0.951 . S
C5248 C5249 1.366 . S
C5248 C5250 1.388 . S
C5249 C5248 1.366 . S
C5249 C5253 1.385 . S
C5250 H5231 0.951 . S
C5250 C5248 1.388 . S
C5250 C5251 1.366 . S
C5251 C5250 1.366 . S
C5251 C5252 1.414 . S
C5251 C5254 1.499 . S
C5252 H5232 0.950 . S
C5252 C5251 1.414 . S
C5252 C5253 1.374 . S
C5253 H5233 0.950 . S
C5253 C5249 1.385 . S
C5253 C5252 1.374 . S
C5254 C5251 1.499 . S
C5254 C5255 1.373 . S
C5254 C5256 1.389 . S
C5255 H5234 0.950 . S
C5255 C5254 1.373 . S
C5255 C5271 1.377 . S
C5256 C5254 1.389 . S
C5256 C5257 1.524 . S
C5256 C5270 1.377 . S
C5257 C5256 1.524 . S
C5257 C5258 1.397 . S
C5257 C5262 1.363 . S
C5258 H5235 0.950 . S
C5258 C5257 1.397 . S
C5258 C5259 1.334 . S
C5259 H5236 0.950 . S
C5259 C5258 1.334 . S
C5259 C5260 1.287 . S
C5260 C5259 1.287 . S
C5260 C5261 1.524 . S
C5260 H5279 0.913 . S
C5261 H5237 0.950 . S
C5261 C5260 1.524 . S
C5261 C5262 1.415 . S
C5262 H5238 0.950 . S
C5262 C5257 1.363 . S
C5262 C5261 1.415 . S
C5263 H5239 0.951 . S
C5263 C5264 1.366 . S
C5263 C5265 1.388 . S
C5264 C5263 1.366 . S
C5264 C5268 1.385 . S
C5265 H5240 0.951 . S
C5265 C5263 1.388 . S
C5265 C5266 1.366 . S
C5266 C5265 1.366 . S
C5266 C5267 1.414 . S
C5266 C5269 1.499 . S
C5267 H5241 0.950 . S
C5267 C5266 1.414 . S
C5267 C5268 1.374 . S
C5268 H5242 0.950 . S
C5268 C5264 1.385 . S
C5268 C5267 1.374 . S
C5269 C5266 1.499 . S
C5269 C5270 1.373 . S
C5269 C5271 1.389 . S
C5270 H5243 0.950 . S
C5270 C5256 1.377 . S
C5270 C5269 1.373 . S
C5271 C5255 1.377 . S
C5271 C5269 1.389 . S
C5271 C5272 1.524 . S
C5272 C5271 1.524 . S
C5272 C5273 1.397 . S
C5272 C5277 1.363 . S
C5273 H5244 0.950 . S
C5273 C5272 1.397 . S
C5273 C5274 1.334 . S
C5274 H5245 0.950 . S
C5274 C5273 1.334 . S
C5274 C5275 1.287 . S
C5275 C5274 1.287 . S
C5275 C5276 1.524 . S
C5275 H5278 0.999 . S
C5276 H5246 0.950 . S
C5276 C5275 1.524 . S
C5276 C5277 1.415 . S
C5277 H5247 0.950 . S
C5277 C5272 1.363 . S
C5277 C5276 1.415 . S
H5278 C5275 0.999 . S
H5279 C5260 0.913 . S
H5280 C5298 0.951 . S
H5281 C5300 0.951 . S
H5282 C5302 0.950 . S
H5283 C5303 0.950 . S
H5284 C5305 0.950 . S
H5285 C5308 0.950 . S
H5286 C5309 0.950 . S
H5287 C5311 0.950 . S
H5288 C5312 0.950 . S
H5289 C5313 0.951 . S
H5290 C5315 0.951 . S
H5291 C5317 0.950 . S
H5292 C5318 0.950 . S
H5293 C5320 0.950 . S
H5294 C5323 0.950 . S
H5295 C5324 0.950 . S
H5296 C5326 0.950 . S
H5297 C5327 0.950 . S
C5298 H5280 0.951 . S
C5298 C5299 1.366 . S
C5298 C5300 1.388 . S
C5299 C5298 1.366 . S
C5299 C5303 1.385 . S
C5300 H5281 0.951 . S
C5300 C5298 1.388 . S
C5300 C5301 1.366 . S
C5301 C5300 1.366 . S
C5301 C5302 1.414 . S
C5301 C5304 1.499 . S
C5302 H5282 0.950 . S
C5302 C5301 1.414 . S
C5302 C5303 1.374 . S
C5303 H5283 0.950 . S
C5303 C5299 1.385 . S
C5303 C5302 1.374 . S
C5304 C5301 1.499 . S
C5304 C5305 1.373 . S
C5304 C5306 1.389 . S
C5305 H5284 0.950 . S
C5305 C5304 1.373 . S
C5305 C5321 1.377 . S
C5306 C5304 1.389 . S
C5306 C5307 1.524 . S
C5306 C5320 1.377 . S
C5307 C5306 1.524 . S
C5307 C5308 1.397 . S
C5307 C5312 1.363 . S
C5308 H5285 0.950 . S
C5308 C5307 1.397 . S
C5308 C5309 1.334 . S
C5309 H5286 0.950 . S
C5309 C5308 1.334 . S
C5309 C5310 1.287 . S
C5310 C5309 1.287 . S
C5310 C5311 1.524 . S
C5310 H5329 0.913 . S
C5311 H5287 0.950 . S
C5311 C5310 1.524 . S
C5311 C5312 1.415 . S
C5312 H5288 0.950 . S
C5312 C5307 1.363 . S
C5312 C5311 1.415 . S
C5313 H5289 0.951 . S
C5313 C5314 1.366 . S
C5313 C5315 1.388 . S
C5314 C5313 1.366 . S
C5314 C5318 1.385 . S
C5315 H5290 0.951 . S
C5315 C5313 1.388 . S
C5315 C5316 1.366 . S
C5316 C5315 1.366 . S
C5316 C5317 1.414 . S
C5316 C5319 1.499 . S
C5317 H5291 0.950 . S
C5317 C5316 1.414 . S
C5317 C5318 1.374 . S
C5318 H5292 0.950 . S
C5318 C5314 1.385 . S
C5318 C5317 1.374 . S
C5319 C5316 1.499 . S
C5319 C5320 1.373 . S
C5319 C5321 1.389 . S
C5320 H5293 0.950 . S
C5320 C5306 1.377 . S
C5320 C5319 1.373 . S
C5321 C5305 1.377 . S
C5321 C5319 1.389 . S
C5321 C5322 1.524 . S
C5322 C5321 1.524 . S
C5322 C5323 1.397 . S
C5322 C5327 1.363 . S
C5323 H5294 0.950 . S
C5323 C5322 1.397 . S
C5323 C5324 1.334 . S
C5324 H5295 0.950 . S
C5324 C5323 1.334 . S
C5324 C5325 1.287 . S
C5325 C5324 1.287 . S
C5325 C5326 1.524 . S
C5325 H5328 0.999 . S
C5326 H5296 0.950 . S
C5326 C5325 1.524 . S
C5326 C5327 1.415 . S
C5327 H5297 0.950 . S
C5327 C5322 1.363 . S
C5327 C5326 1.415 . S
H5328 C5325 0.999 . S
H5329 C5310 0.913 . S
H5330 C5348 0.951 . S
H5331 C5350 0.951 . S
H5332 C5352 0.950 . S
H5333 C5353 0.950 . S
H5334 C5355 0.950 . S
H5335 C5358 0.950 . S
H5336 C5359 0.950 . S
H5337 C5361 0.950 . S
H5338 C5362 0.950 . S
H5339 C5363 0.951 . S
H5340 C5365 0.951 . S
H5341 C5367 0.950 . S
H5342 C5368 0.950 . S
H5343 C5370 0.950 . S
H5344 C5373 0.950 . S
H5345 C5374 0.950 . S
H5346 C5376 0.950 . S
H5347 C5377 0.950 . S
C5348 H5330 0.951 . S
C5348 C5349 1.366 . S
C5348 C5350 1.388 . S
C5349 C5348 1.366 . S
C5349 C5353 1.385 . S
C5350 H5331 0.951 . S
C5350 C5348 1.388 . S
C5350 C5351 1.366 . S
C5351 C5350 1.366 . S
C5351 C5352 1.414 . S
C5351 C5354 1.499 . S
C5352 H5332 0.950 . S
C5352 C5351 1.414 . S
C5352 C5353 1.374 . S
C5353 H5333 0.950 . S
C5353 C5349 1.385 . S
C5353 C5352 1.374 . S
C5354 C5351 1.499 . S
C5354 C5355 1.373 . S
C5354 C5356 1.389 . S
C5355 H5334 0.950 . S
C5355 C5354 1.373 . S
C5355 C5371 1.377 . S
C5356 C5354 1.389 . S
C5356 C5357 1.524 . S
C5356 C5370 1.377 . S
C5357 C5356 1.524 . S
C5357 C5358 1.397 . S
C5357 C5362 1.363 . S
C5358 H5335 0.950 . S
C5358 C5357 1.397 . S
C5358 C5359 1.334 . S
C5359 H5336 0.950 . S
C5359 C5358 1.334 . S
C5359 C5360 1.287 . S
C5360 C5359 1.287 . S
C5360 C5361 1.524 . S
C5360 H5379 0.913 . S
C5361 H5337 0.950 . S
C5361 C5360 1.524 . S
C5361 C5362 1.415 . S
C5362 H5338 0.950 . S
C5362 C5357 1.363 . S
C5362 C5361 1.415 . S
C5363 H5339 0.951 . S
C5363 C5364 1.366 . S
C5363 C5365 1.388 . S
C5364 C5363 1.366 . S
C5364 C5368 1.385 . S
C5365 H5340 0.951 . S
C5365 C5363 1.388 . S
C5365 C5366 1.366 . S
C5366 C5365 1.366 . S
C5366 C5367 1.414 . S
C5366 C5369 1.499 . S
C5367 H5341 0.950 . S
C5367 C5366 1.414 . S
C5367 C5368 1.374 . S
C5368 H5342 0.950 . S
C5368 C5364 1.385 . S
C5368 C5367 1.374 . S
C5369 C5366 1.499 . S
C5369 C5370 1.373 . S
C5369 C5371 1.389 . S
C5370 H5343 0.950 . S
C5370 C5356 1.377 . S
C5370 C5369 1.373 . S
C5371 C5355 1.377 . S
C5371 C5369 1.389 . S
C5371 C5372 1.524 . S
C5372 C5371 1.524 . S
C5372 C5373 1.397 . S
C5372 C5377 1.363 . S
C5373 H5344 0.950 . S
C5373 C5372 1.397 . S
C5373 C5374 1.334 . S
C5374 H5345 0.950 . S
C5374 C5373 1.334 . S
C5374 C5375 1.287 . S
C5375 C5374 1.287 . S
C5375 C5376 1.524 . S
C5375 H5378 0.999 . S
C5376 H5346 0.950 . S
C5376 C5375 1.524 . S
C5376 C5377 1.415 . S
C5377 H5347 0.950 . S
C5377 C5372 1.363 . S
C5377 C5376 1.415 . S
H5378 C5375 0.999 . S
H5379 C5360 0.913 . S
H5380 C5398 0.951 . S
H5381 C5400 0.951 . S
H5382 C5402 0.950 . S
H5383 C5403 0.950 . S
H5384 C5405 0.950 . S
H5385 C5408 0.950 . S
H5386 C5409 0.950 . S
H5387 C5411 0.950 . S
H5388 C5412 0.950 . S
H5389 C5413 0.951 . S
H5390 C5415 0.951 . S
H5391 C5417 0.950 . S
H5392 C5418 0.950 . S
H5393 C5420 0.950 . S
H5394 C5423 0.950 . S
H5395 C5424 0.950 . S
H5396 C5426 0.950 . S
H5397 C5427 0.950 . S
C5398 H5380 0.951 . S
C5398 C5399 1.366 . S
C5398 C5400 1.388 . S
C5399 C5398 1.366 . S
C5399 C5403 1.385 . S
C5400 H5381 0.951 . S
C5400 C5398 1.388 . S
C5400 C5401 1.366 . S
C5401 C5400 1.366 . S
C5401 C5402 1.414 . S
C5401 C5404 1.499 . S
C5402 H5382 0.950 . S
C5402 C5401 1.414 . S
C5402 C5403 1.374 . S
C5403 H5383 0.950 . S
C5403 C5399 1.385 . S
C5403 C5402 1.374 . S
C5404 C5401 1.499 . S
C5404 C5405 1.373 . S
C5404 C5406 1.389 . S
C5405 H5384 0.950 . S
C5405 C5404 1.373 . S
C5405 C5421 1.377 . S
C5406 C5404 1.389 . S
C5406 C5407 1.524 . S
C5406 C5420 1.377 . S
C5407 C5406 1.524 . S
C5407 C5408 1.397 . S
C5407 C5412 1.363 . S
C5408 H5385 0.950 . S
C5408 C5407 1.397 . S
C5408 C5409 1.334 . S
C5409 H5386 0.950 . S
C5409 C5408 1.334 . S
C5409 C5410 1.287 . S
C5410 C5409 1.287 . S
C5410 C5411 1.524 . S
C5410 H5429 0.913 . S
C5411 H5387 0.950 . S
C5411 C5410 1.524 . S
C5411 C5412 1.415 . S
C5412 H5388 0.950 . S
C5412 C5407 1.363 . S
C5412 C5411 1.415 . S
C5413 H5389 0.951 . S
C5413 C5414 1.366 . S
C5413 C5415 1.388 . S
C5414 C5413 1.366 . S
C5414 C5418 1.385 . S
C5415 H5390 0.951 . S
C5415 C5413 1.388 . S
C5415 C5416 1.366 . S
C5416 C5415 1.366 . S
C5416 C5417 1.414 . S
C5416 C5419 1.499 . S
C5417 H5391 0.950 . S
C5417 C5416 1.414 . S
C5417 C5418 1.374 . S
C5418 H5392 0.950 . S
C5418 C5414 1.385 . S
C5418 C5417 1.374 . S
C5419 C5416 1.499 . S
C5419 C5420 1.373 . S
C5419 C5421 1.389 . S
C5420 H5393 0.950 . S
C5420 C5406 1.377 . S
C5420 C5419 1.373 . S
C5421 C5405 1.377 . S
C5421 C5419 1.389 . S
C5421 C5422 1.524 . S
C5422 C5421 1.524 . S
C5422 C5423 1.397 . S
C5422 C5427 1.363 . S
C5423 H5394 0.950 . S
C5423 C5422 1.397 . S
C5423 C5424 1.334 . S
C5424 H5395 0.950 . S
C5424 C5423 1.334 . S
C5424 C5425 1.287 . S
C5425 C5424 1.287 . S
C5425 C5426 1.524 . S
C5425 H5428 0.999 . S
C5426 H5396 0.950 . S
C5426 C5425 1.524 . S
C5426 C5427 1.415 . S
C5427 H5397 0.950 . S
C5427 C5422 1.363 . S
C5427 C5426 1.415 . S
H5428 C5425 0.999 . S
H5429 C5410 0.913 . S
H5430 C5448 0.951 . S
H5431 C5450 0.951 . S
H5432 C5452 0.950 . S
H5433 C5453 0.950 . S
H5434 C5455 0.950 . S
H5435 C5458 0.950 . S
H5436 C5459 0.950 . S
H5437 C5461 0.950 . S
H5438 C5462 0.950 . S
H5439 C5463 0.951 . S
H5440 C5465 0.951 . S
H5441 C5467 0.950 . S
H5442 C5468 0.950 . S
H5443 C5470 0.950 . S
H5444 C5473 0.950 . S
H5445 C5474 0.950 . S
H5446 C5476 0.950 . S
H5447 C5477 0.950 . S
C5448 H5430 0.951 . S
C5448 C5449 1.366 . S
C5448 C5450 1.388 . S
C5449 C5448 1.366 . S
C5449 C5453 1.385 . S
C5450 H5431 0.951 . S
C5450 C5448 1.388 . S
C5450 C5451 1.366 . S
C5451 C5450 1.366 . S
C5451 C5452 1.414 . S
C5451 C5454 1.499 . S
C5452 H5432 0.950 . S
C5452 C5451 1.414 . S
C5452 C5453 1.374 . S
C5453 H5433 0.950 . S
C5453 C5449 1.385 . S
C5453 C5452 1.374 . S
C5454 C5451 1.499 . S
C5454 C5455 1.373 . S
C5454 C5456 1.389 . S
C5455 H5434 0.950 . S
C5455 C5454 1.373 . S
C5455 C5471 1.377 . S
C5456 C5454 1.389 . S
C5456 C5457 1.524 . S
C5456 C5470 1.377 . S
C5457 C5456 1.524 . S
C5457 C5458 1.397 . S
C5457 C5462 1.363 . S
C5458 H5435 0.950 . S
C5458 C5457 1.397 . S
C5458 C5459 1.334 . S
C5459 H5436 0.950 . S
C5459 C5458 1.334 . S
C5459 C5460 1.287 . S
C5460 C5459 1.287 . S
C5460 C5461 1.524 . S
C5460 H5479 0.913 . S
C5461 H5437 0.950 . S
C5461 C5460 1.524 . S
C5461 C5462 1.415 . S
C5462 H5438 0.950 . S
C5462 C5457 1.363 . S
C5462 C5461 1.415 . S
C5463 H5439 0.951 . S
C5463 C5464 1.366 . S
C5463 C5465 1.388 . S
C5464 C5463 1.366 . S
C5464 C5468 1.385 . S
C5465 H5440 0.951 . S
C5465 C5463 1.388 . S
C5465 C5466 1.366 . S
C5466 C5465 1.366 . S
C5466 C5467 1.414 . S
C5466 C5469 1.499 . S
C5467 H5441 0.950 . S
C5467 C5466 1.414 . S
C5467 C5468 1.374 . S
C5468 H5442 0.950 . S
C5468 C5464 1.385 . S
C5468 C5467 1.374 . S
C5469 C5466 1.499 . S
C5469 C5470 1.373 . S
C5469 C5471 1.389 . S
C5470 H5443 0.950 . S
C5470 C5456 1.377 . S
C5470 C5469 1.373 . S
C5471 C5455 1.377 . S
C5471 C5469 1.389 . S
C5471 C5472 1.524 . S
C5472 C5471 1.524 . S
C5472 C5473 1.397 . S
C5472 C5477 1.363 . S
C5473 H5444 0.950 . S
C5473 C5472 1.397 . S
C5473 C5474 1.334 . S
C5474 H5445 0.950 . S
C5474 C5473 1.334 . S
C5474 C5475 1.287 . S
C5475 C5474 1.287 . S
C5475 C5476 1.524 . S
C5475 H5478 0.999 . S
C5476 H5446 0.950 . S
C5476 C5475 1.524 . S
C5476 C5477 1.415 . S
C5477 H5447 0.950 . S
C5477 C5472 1.363 . S
C5477 C5476 1.415 . S
H5478 C5475 0.999 . S
H5479 C5460 0.913 . S
H5480 C5498 0.951 . S
H5481 C5500 0.951 . S
H5482 C5502 0.950 . S
H5483 C5503 0.950 . S
H5484 C5505 0.950 . S
H5485 C5508 0.950 . S
H5486 C5509 0.950 . S
H5487 C5511 0.950 . S
H5488 C5512 0.950 . S
H5489 C5513 0.951 . S
H5490 C5515 0.951 . S
H5491 C5517 0.950 . S
H5492 C5518 0.950 . S
H5493 C5520 0.950 . S
H5494 C5523 0.950 . S
H5495 C5524 0.950 . S
H5496 C5526 0.950 . S
H5497 C5527 0.950 . S
C5498 H5480 0.951 . S
C5498 C5499 1.366 . S
C5498 C5500 1.388 . S
C5499 C5498 1.366 . S
C5499 C5503 1.385 . S
C5500 H5481 0.951 . S
C5500 C5498 1.388 . S
C5500 C5501 1.366 . S
C5501 C5500 1.366 . S
C5501 C5502 1.414 . S
C5501 C5504 1.499 . S
C5502 H5482 0.950 . S
C5502 C5501 1.414 . S
C5502 C5503 1.374 . S
C5503 H5483 0.950 . S
C5503 C5499 1.385 . S
C5503 C5502 1.374 . S
C5504 C5501 1.499 . S
C5504 C5505 1.373 . S
C5504 C5506 1.389 . S
C5505 H5484 0.950 . S
C5505 C5504 1.373 . S
C5505 C5521 1.377 . S
C5506 C5504 1.389 . S
C5506 C5507 1.524 . S
C5506 C5520 1.377 . S
C5507 C5506 1.524 . S
C5507 C5508 1.397 . S
C5507 C5512 1.363 . S
C5508 H5485 0.950 . S
C5508 C5507 1.397 . S
C5508 C5509 1.334 . S
C5509 H5486 0.950 . S
C5509 C5508 1.334 . S
C5509 C5510 1.287 . S
C5510 C5509 1.287 . S
C5510 C5511 1.524 . S
C5510 H5529 0.913 . S
C5511 H5487 0.950 . S
C5511 C5510 1.524 . S
C5511 C5512 1.415 . S
C5512 H5488 0.950 . S
C5512 C5507 1.363 . S
C5512 C5511 1.415 . S
C5513 H5489 0.951 . S
C5513 C5514 1.366 . S
C5513 C5515 1.388 . S
C5514 C5513 1.366 . S
C5514 C5518 1.385 . S
C5515 H5490 0.951 . S
C5515 C5513 1.388 . S
C5515 C5516 1.366 . S
C5516 C5515 1.366 . S
C5516 C5517 1.414 . S
C5516 C5519 1.499 . S
C5517 H5491 0.950 . S
C5517 C5516 1.414 . S
C5517 C5518 1.374 . S
C5518 H5492 0.950 . S
C5518 C5514 1.385 . S
C5518 C5517 1.374 . S
C5519 C5516 1.499 . S
C5519 C5520 1.373 . S
C5519 C5521 1.389 . S
C5520 H5493 0.950 . S
C5520 C5506 1.377 . S
C5520 C5519 1.373 . S
C5521 C5505 1.377 . S
C5521 C5519 1.389 . S
C5521 C5522 1.524 . S
C5522 C5521 1.524 . S
C5522 C5523 1.397 . S
C5522 C5527 1.363 . S
C5523 H5494 0.950 . S
C5523 C5522 1.397 . S
C5523 C5524 1.334 . S
C5524 H5495 0.950 . S
C5524 C5523 1.334 . S
C5524 C5525 1.287 . S
C5525 C5524 1.287 . S
C5525 C5526 1.524 . S
C5525 H5528 0.999 . S
C5526 H5496 0.950 . S
C5526 C5525 1.524 . S
C5526 C5527 1.415 . S
C5527 H5497 0.950 . S
C5527 C5522 1.363 . S
C5527 C5526 1.415 . S
H5528 C5525 0.999 . S
H5529 C5510 0.913 . S
H5530 C5548 0.951 . S
H5531 C5550 0.951 . S
H5532 C5552 0.950 . S
H5533 C5553 0.950 . S
H5534 C5555 0.950 . S
H5535 C5558 0.950 . S
H5536 C5559 0.950 . S
H5537 C5561 0.950 . S
H5538 C5562 0.950 . S
H5539 C5563 0.951 . S
H5540 C5565 0.951 . S
H5541 C5567 0.950 . S
H5542 C5568 0.950 . S
H5543 C5570 0.950 . S
H5544 C5573 0.950 . S
H5545 C5574 0.950 . S
H5546 C5576 0.950 . S
H5547 C5577 0.950 . S
C5548 H5530 0.951 . S
C5548 C5549 1.366 . S
C5548 C5550 1.388 . S
C5549 C5548 1.366 . S
C5549 C5553 1.385 . S
C5550 H5531 0.951 . S
C5550 C5548 1.388 . S
C5550 C5551 1.366 . S
C5551 C5550 1.366 . S
C5551 C5552 1.414 . S
C5551 C5554 1.499 . S
C5552 H5532 0.950 . S
C5552 C5551 1.414 . S
C5552 C5553 1.374 . S
C5553 H5533 0.950 . S
C5553 C5549 1.385 . S
C5553 C5552 1.374 . S
C5554 C5551 1.499 . S
C5554 C5555 1.373 . S
C5554 C5556 1.389 . S
C5555 H5534 0.950 . S
C5555 C5554 1.373 . S
C5555 C5571 1.377 . S
C5556 C5554 1.389 . S
C5556 C5557 1.524 . S
C5556 C5570 1.377 . S
C5557 C5556 1.524 . S
C5557 C5558 1.397 . S
C5557 C5562 1.363 . S
C5558 H5535 0.950 . S
C5558 C5557 1.397 . S
C5558 C5559 1.334 . S
C5559 H5536 0.950 . S
C5559 C5558 1.334 . S
C5559 C5560 1.287 . S
C5560 C5559 1.287 . S
C5560 C5561 1.524 . S
C5560 H5579 0.913 . S
C5561 H5537 0.950 . S
C5561 C5560 1.524 . S
C5561 C5562 1.415 . S
C5562 H5538 0.950 . S
C5562 C5557 1.363 . S
C5562 C5561 1.415 . S
C5563 H5539 0.951 . S
C5563 C5564 1.366 . S
C5563 C5565 1.388 . S
C5564 C5563 1.366 . S
C5564 C5568 1.385 . S
C5565 H5540 0.951 . S
C5565 C5563 1.388 . S
C5565 C5566 1.366 . S
C5566 C5565 1.366 . S
C5566 C5567 1.414 . S
C5566 C5569 1.499 . S
C5567 H5541 0.950 . S
C5567 C5566 1.414 . S
C5567 C5568 1.374 . S
C5568 H5542 0.950 . S
C5568 C5564 1.385 . S
C5568 C5567 1.374 . S
C5569 C5566 1.499 . S
C5569 C5570 1.373 . S
C5569 C5571 1.389 . S
C5570 H5543 0.950 . S
C5570 C5556 1.377 . S
C5570 C5569 1.373 . S
C5571 C5555 1.377 . S
C5571 C5569 1.389 . S
C5571 C5572 1.524 . S
C5572 C5571 1.524 . S
C5572 C5573 1.397 . S
C5572 C5577 1.363 . S
C5573 H5544 0.950 . S
C5573 C5572 1.397 . S
C5573 C5574 1.334 . S
C5574 H5545 0.950 . S
C5574 C5573 1.334 . S
C5574 C5575 1.287 . S
C5575 C5574 1.287 . S
C5575 C5576 1.524 . S
C5575 H5578 0.999 . S
C5576 H5546 0.950 . S
C5576 C5575 1.524 . S
C5576 C5577 1.415 . S
C5577 H5547 0.950 . S
C5577 C5572 1.363 . S
C5577 C5576 1.415 . S
H5578 C5575 0.999 . S
H5579 C5560 0.913 . S
H5580 C5598 0.951 . S
H5581 C5600 0.951 . S
H5582 C5602 0.950 . S
H5583 C5603 0.950 . S
H5584 C5605 0.950 . S
H5585 C5608 0.950 . S
H5586 C5609 0.950 . S
H5587 C5611 0.950 . S
H5588 C5612 0.950 . S
H5589 C5613 0.951 . S
H5590 C5615 0.951 . S
H5591 C5617 0.950 . S
H5592 C5618 0.950 . S
H5593 C5620 0.950 . S
H5594 C5623 0.950 . S
H5595 C5624 0.950 . S
H5596 C5626 0.950 . S
H5597 C5627 0.950 . S
C5598 H5580 0.951 . S
C5598 C5599 1.366 . S
C5598 C5600 1.388 . S
C5599 C5598 1.366 . S
C5599 C5603 1.385 . S
C5600 H5581 0.951 . S
C5600 C5598 1.388 . S
C5600 C5601 1.366 . S
C5601 C5600 1.366 . S
C5601 C5602 1.414 . S
C5601 C5604 1.499 . S
C5602 H5582 0.950 . S
C5602 C5601 1.414 . S
C5602 C5603 1.374 . S
C5603 H5583 0.950 . S
C5603 C5599 1.385 . S
C5603 C5602 1.374 . S
C5604 C5601 1.499 . S
C5604 C5605 1.373 . S
C5604 C5606 1.389 . S
C5605 H5584 0.950 . S
C5605 C5604 1.373 . S
C5605 C5621 1.377 . S
C5606 C5604 1.389 . S
C5606 C5607 1.524 . S
C5606 C5620 1.377 . S
C5607 C5606 1.524 . S
C5607 C5608 1.397 . S
C5607 C5612 1.363 . S
C5608 H5585 0.950 . S
C5608 C5607 1.397 . S
C5608 C5609 1.334 . S
C5609 H5586 0.950 . S
C5609 C5608 1.334 . S
C5609 C5610 1.287 . S
C5610 C5609 1.287 . S
C5610 C5611 1.524 . S
C5610 H5629 0.913 . S
C5611 H5587 0.950 . S
C5611 C5610 1.524 . S
C5611 C5612 1.415 . S
C5612 H5588 0.950 . S
C5612 C5607 1.363 . S
C5612 C5611 1.415 . S
C5613 H5589 0.951 . S
C5613 C5614 1.366 . S
C5613 C5615 1.388 . S
C5614 C5613 1.366 . S
C5614 C5618 1.385 . S
C5615 H5590 0.951 . S
C5615 C5613 1.388 . S
C5615 C5616 1.366 . S
C5616 C5615 1.366 . S
C5616 C5617 1.414 . S
C5616 C5619 1.499 . S
C5617 H5591 0.950 . S
C5617 C5616 1.414 . S
C5617 C5618 1.374 . S
C5618 H5592 0.950 . S
C5618 C5614 1.385 . S
C5618 C5617 1.374 . S
C5619 C5616 1.499 . S
C5619 C5620 1.373 . S
C5619 C5621 1.389 . S
C5620 H5593 0.950 . S
C5620 C5606 1.377 . S
C5620 C5619 1.373 . S
C5621 C5605 1.377 . S
C5621 C5619 1.389 . S
C5621 C5622 1.524 . S
C5622 C5621 1.524 . S
C5622 C5623 1.397 . S
C5622 C5627 1.363 . S
C5623 H5594 0.950 . S
C5623 C5622 1.397 . S
C5623 C5624 1.334 . S
C5624 H5595 0.950 . S
C5624 C5623 1.334 . S
C5624 C5625 1.287 . S
C5625 C5624 1.287 . S
C5625 C5626 1.524 . S
C5625 H5628 0.999 . S
C5626 H5596 0.950 . S
C5626 C5625 1.524 . S
C5626 C5627 1.415 . S
C5627 H5597 0.950 . S
C5627 C5622 1.363 . S
C5627 C5626 1.415 . S
H5628 C5625 0.999 . S
H5629 C5610 0.913 . S
H5630 C5648 0.951 . S
H5631 C5650 0.951 . S
H5632 C5652 0.950 . S
H5633 C5653 0.950 . S
H5634 C5655 0.950 . S
H5635 C5658 0.950 . S
H5636 C5659 0.950 . S
H5637 C5661 0.950 . S
H5638 C5662 0.950 . S
H5639 C5663 0.951 . S
H5640 C5665 0.951 . S
H5641 C5667 0.950 . S
H5642 C5668 0.950 . S
H5643 C5670 0.950 . S
H5644 C5673 0.950 . S
H5645 C5674 0.950 . S
H5646 C5676 0.950 . S
H5647 C5677 0.950 . S
C5648 H5630 0.951 . S
C5648 C5649 1.366 . S
C5648 C5650 1.388 . S
C5649 C5648 1.366 . S
C5649 C5653 1.385 . S
C5650 H5631 0.951 . S
C5650 C5648 1.388 . S
C5650 C5651 1.366 . S
C5651 C5650 1.366 . S
C5651 C5652 1.414 . S
C5651 C5654 1.499 . S
C5652 H5632 0.950 . S
C5652 C5651 1.414 . S
C5652 C5653 1.374 . S
C5653 H5633 0.950 . S
C5653 C5649 1.385 . S
C5653 C5652 1.374 . S
C5654 C5651 1.499 . S
C5654 C5655 1.373 . S
C5654 C5656 1.389 . S
C5655 H5634 0.950 . S
C5655 C5654 1.373 . S
C5655 C5671 1.377 . S
C5656 C5654 1.389 . S
C5656 C5657 1.524 . S
C5656 C5670 1.377 . S
C5657 C5656 1.524 . S
C5657 C5658 1.397 . S
C5657 C5662 1.363 . S
C5658 H5635 0.950 . S
C5658 C5657 1.397 . S
C5658 C5659 1.334 . S
C5659 H5636 0.950 . S
C5659 C5658 1.334 . S
C5659 C5660 1.287 . S
C5660 C5659 1.287 . S
C5660 C5661 1.524 . S
C5660 H5679 0.913 . S
C5661 H5637 0.950 . S
C5661 C5660 1.524 . S
C5661 C5662 1.415 . S
C5662 H5638 0.950 . S
C5662 C5657 1.363 . S
C5662 C5661 1.415 . S
C5663 H5639 0.951 . S
C5663 C5664 1.366 . S
C5663 C5665 1.388 . S
C5664 C5663 1.366 . S
C5664 C5668 1.385 . S
C5665 H5640 0.951 . S
C5665 C5663 1.388 . S
C5665 C5666 1.366 . S
C5666 C5665 1.366 . S
C5666 C5667 1.414 . S
C5666 C5669 1.499 . S
C5667 H5641 0.950 . S
C5667 C5666 1.414 . S
C5667 C5668 1.374 . S
C5668 H5642 0.950 . S
C5668 C5664 1.385 . S
C5668 C5667 1.374 . S
C5669 C5666 1.499 . S
C5669 C5670 1.373 . S
C5669 C5671 1.389 . S
C5670 H5643 0.950 . S
C5670 C5656 1.377 . S
C5670 C5669 1.373 . S
C5671 C5655 1.377 . S
C5671 C5669 1.389 . S
C5671 C5672 1.524 . S
C5672 C5671 1.524 . S
C5672 C5673 1.397 . S
C5672 C5677 1.363 . S
C5673 H5644 0.950 . S
C5673 C5672 1.397 . S
C5673 C5674 1.334 . S
C5674 H5645 0.950 . S
C5674 C5673 1.334 . S
C5674 C5675 1.287 . S
C5675 C5674 1.287 . S
C5675 C5676 1.524 . S
C5675 H5678 0.999 . S
C5676 H5646 0.950 . S
C5676 C5675 1.524 . S
C5676 C5677 1.415 . S
C5677 H5647 0.950 . S
C5677 C5672 1.363 . S
C5677 C5676 1.415 . S
H5678 C5675 0.999 . S
H5679 C5660 0.913 . S
H5680 C5698 0.951 . S
H5681 C5700 0.951 . S
H5682 C5702 0.950 . S
H5683 C5703 0.950 . S
H5684 C5705 0.950 . S
H5685 C5708 0.950 . S
H5686 C5709 0.950 . S
H5687 C5711 0.950 . S
H5688 C5712 0.950 . S
H5689 C5713 0.951 . S
H5690 C5715 0.951 . S
H5691 C5717 0.950 . S
H5692 C5718 0.950 . S
H5693 C5720 0.950 . S
H5694 C5723 0.950 . S
H5695 C5724 0.950 . S
H5696 C5726 0.950 . S
H5697 C5727 0.950 . S
C5698 H5680 0.951 . S
C5698 C5699 1.366 . S
C5698 C5700 1.388 . S
C5699 C5698 1.366 . S
C5699 C5703 1.385 . S
C5700 H5681 0.951 . S
C5700 C5698 1.388 . S
C5700 C5701 1.366 . S
C5701 C5700 1.366 . S
C5701 C5702 1.414 . S
C5701 C5704 1.499 . S
C5702 H5682 0.950 . S
C5702 C5701 1.414 . S
C5702 C5703 1.374 . S
C5703 H5683 0.950 . S
C5703 C5699 1.385 . S
C5703 C5702 1.374 . S
C5704 C5701 1.499 . S
C5704 C5705 1.373 . S
C5704 C5706 1.389 . S
C5705 H5684 0.950 . S
C5705 C5704 1.373 . S
C5705 C5721 1.377 . S
C5706 C5704 1.389 . S
C5706 C5707 1.524 . S
C5706 C5720 1.377 . S
C5707 C5706 1.524 . S
C5707 C5708 1.397 . S
C5707 C5712 1.363 . S
C5708 H5685 0.950 . S
C5708 C5707 1.397 . S
C5708 C5709 1.334 . S
C5709 H5686 0.950 . S
C5709 C5708 1.334 . S
C5709 C5710 1.287 . S
C5710 C5709 1.287 . S
C5710 C5711 1.524 . S
C5710 H5729 0.913 . S
C5711 H5687 0.950 . S
C5711 C5710 1.524 . S
C5711 C5712 1.415 . S
C5712 H5688 0.950 . S
C5712 C5707 1.363 . S
C5712 C5711 1.415 . S
C5713 H5689 0.951 . S
C5713 C5714 1.366 . S
C5713 C5715 1.388 . S
C5714 C5713 1.366 . S
C5714 C5718 1.385 . S
C5715 H5690 0.951 . S
C5715 C5713 1.388 . S
C5715 C5716 1.366 . S
C5716 C5715 1.366 . S
C5716 C5717 1.414 . S
C5716 C5719 1.499 . S
C5717 H5691 0.950 . S
C5717 C5716 1.414 . S
C5717 C5718 1.374 . S
C5718 H5692 0.950 . S
C5718 C5714 1.385 . S
C5718 C5717 1.374 . S
C5719 C5716 1.499 . S
C5719 C5720 1.373 . S
C5719 C5721 1.389 . S
C5720 H5693 0.950 . S
C5720 C5706 1.377 . S
C5720 C5719 1.373 . S
C5721 C5705 1.377 . S
C5721 C5719 1.389 . S
C5721 C5722 1.524 . S
C5722 C5721 1.524 . S
C5722 C5723 1.397 . S
C5722 C5727 1.363 . S
C5723 H5694 0.950 . S
C5723 C5722 1.397 . S
C5723 C5724 1.334 . S
C5724 H5695 0.950 . S
C5724 C5723 1.334 . S
C5724 C5725 1.287 . S
C5725 C5724 1.287 . S
C5725 C5726 1.524 . S
C5725 H5728 0.999 . S
C5726 H5696 0.950 . S
C5726 C5725 1.524 . S
C5726 C5727 1.415 . S
C5727 H5697 0.950 . S
C5727 C5722 1.363 . S
C5727 C5726 1.415 . S
H5728 C5725 0.999 . S
H5729 C5710 0.913 . S
H5730 C5748 0.951 . S
H5731 C5750 0.951 . S
H5732 C5752 0.950 . S
H5733 C5753 0.950 . S
H5734 C5755 0.950 . S
H5735 C5758 0.950 . S
H5736 C5759 0.950 . S
H5737 C5761 0.950 . S
H5738 C5762 0.950 . S
H5739 C5763 0.951 . S
H5740 C5765 0.951 . S
H5741 C5767 0.950 . S
H5742 C5768 0.950 . S
H5743 C5770 0.950 . S
H5744 C5773 0.950 . S
H5745 C5774 0.950 . S
H5746 C5776 0.950 . S
H5747 C5777 0.950 . S
C5748 H5730 0.951 . S
C5748 C5749 1.366 . S
C5748 C5750 1.388 . S
C5749 C5748 1.366 . S
C5749 C5753 1.385 . S
C5750 H5731 0.951 . S
C5750 C5748 1.388 . S
C5750 C5751 1.366 . S
C5751 C5750 1.366 . S
C5751 C5752 1.414 . S
C5751 C5754 1.499 . S
C5752 H5732 0.950 . S
C5752 C5751 1.414 . S
C5752 C5753 1.374 . S
C5753 H5733 0.950 . S
C5753 C5749 1.385 . S
C5753 C5752 1.374 . S
C5754 C5751 1.499 . S
C5754 C5755 1.373 . S
C5754 C5756 1.389 . S
C5755 H5734 0.950 . S
C5755 C5754 1.373 . S
C5755 C5771 1.377 . S
C5756 C5754 1.389 . S
C5756 C5757 1.524 . S
C5756 C5770 1.377 . S
C5757 C5756 1.524 . S
C5757 C5758 1.397 . S
C5757 C5762 1.363 . S
C5758 H5735 0.950 . S
C5758 C5757 1.397 . S
C5758 C5759 1.334 . S
C5759 H5736 0.950 . S
C5759 C5758 1.334 . S
C5759 C5760 1.287 . S
C5760 C5759 1.287 . S
C5760 C5761 1.524 . S
C5760 H5779 0.913 . S
C5761 H5737 0.950 . S
C5761 C5760 1.524 . S
C5761 C5762 1.415 . S
C5762 H5738 0.950 . S
C5762 C5757 1.363 . S
C5762 C5761 1.415 . S
C5763 H5739 0.951 . S
C5763 C5764 1.366 . S
C5763 C5765 1.388 . S
C5764 C5763 1.366 . S
C5764 C5768 1.385 . S
C5765 H5740 0.951 . S
C5765 C5763 1.388 . S
C5765 C5766 1.366 . S
C5766 C5765 1.366 . S
C5766 C5767 1.414 . S
C5766 C5769 1.499 . S
C5767 H5741 0.950 . S
C5767 C5766 1.414 . S
C5767 C5768 1.374 . S
C5768 H5742 0.950 . S
C5768 C5764 1.385 . S
C5768 C5767 1.374 . S
C5769 C5766 1.499 . S
C5769 C5770 1.373 . S
C5769 C5771 1.389 . S
C5770 H5743 0.950 . S
C5770 C5756 1.377 . S
C5770 C5769 1.373 . S
C5771 C5755 1.377 . S
C5771 C5769 1.389 . S
C5771 C5772 1.524 . S
C5772 C5771 1.524 . S
C5772 C5773 1.397 . S
C5772 C5777 1.363 . S
C5773 H5744 0.950 . S
C5773 C5772 1.397 . S
C5773 C5774 1.334 . S
C5774 H5745 0.950 . S
C5774 C5773 1.334 . S
C5774 C5775 1.287 . S
C5775 C5774 1.287 . S
C5775 C5776 1.524 . S
C5775 H5778 0.999 . S
C5776 H5746 0.950 . S
C5776 C5775 1.524 . S
C5776 C5777 1.415 . S
C5777 H5747 0.950 . S
C5777 C5772 1.363 . S
C5777 C5776 1.415 . S
H5778 C5775 0.999 . S
H5779 C5760 0.913 . S
H5780 C5798 0.951 . S
H5781 C5800 0.951 . S
H5782 C5802 0.950 . S
H5783 C5803 0.950 . S
H5784 C5805 0.950 . S
H5785 C5808 0.950 . S
H5786 C5809 0.950 . S
H5787 C5811 0.950 . S
H5788 C5812 0.950 . S
H5789 C5813 0.951 . S
H5790 C5815 0.951 . S
H5791 C5817 0.950 . S
H5792 C5818 0.950 . S
H5793 C5820 0.950 . S
H5794 C5823 0.950 . S
H5795 C5824 0.950 . S
H5796 C5826 0.950 . S
H5797 C5827 0.950 . S
C5798 H5780 0.951 . S
C5798 C5799 1.366 . S
C5798 C5800 1.388 . S
C5799 C5798 1.366 . S
C5799 C5803 1.385 . S
C5800 H5781 0.951 . S
C5800 C5798 1.388 . S
C5800 C5801 1.366 . S
C5801 C5800 1.366 . S
C5801 C5802 1.414 . S
C5801 C5804 1.499 . S
C5802 H5782 0.950 . S
C5802 C5801 1.414 . S
C5802 C5803 1.374 . S
C5803 H5783 0.950 . S
C5803 C5799 1.385 . S
C5803 C5802 1.374 . S
C5804 C5801 1.499 . S
C5804 C5805 1.373 . S
C5804 C5806 1.389 . S
C5805 H5784 0.950 . S
C5805 C5804 1.373 . S
C5805 C5821 1.377 . S
C5806 C5804 1.389 . S
C5806 C5807 1.524 . S
C5806 C5820 1.377 . S
C5807 C5806 1.524 . S
C5807 C5808 1.397 . S
C5807 C5812 1.363 . S
C5808 H5785 0.950 . S
C5808 C5807 1.397 . S
C5808 C5809 1.334 . S
C5809 H5786 0.950 . S
C5809 C5808 1.334 . S
C5809 C5810 1.287 . S
C5810 C5809 1.287 . S
C5810 C5811 1.524 . S
C5810 H5829 0.913 . S
C5811 H5787 0.950 . S
C5811 C5810 1.524 . S
C5811 C5812 1.415 . S
C5812 H5788 0.950 . S
C5812 C5807 1.363 . S
C5812 C5811 1.415 . S
C5813 H5789 0.951 . S
C5813 C5814 1.366 . S
C5813 C5815 1.388 . S
C5814 C5813 1.366 . S
C5814 C5818 1.385 . S
C5815 H5790 0.951 . S
C5815 C5813 1.388 . S
C5815 C5816 1.366 . S
C5816 C5815 1.366 . S
C5816 C5817 1.414 . S
C5816 C5819 1.499 . S
C5817 H5791 0.950 . S
C5817 C5816 1.414 . S
C5817 C5818 1.374 . S
C5818 H5792 0.950 . S
C5818 C5814 1.385 . S
C5818 C5817 1.374 . S
C5819 C5816 1.499 . S
C5819 C5820 1.373 . S
C5819 C5821 1.389 . S
C5820 H5793 0.950 . S
C5820 C5806 1.377 . S
C5820 C5819 1.373 . S
C5821 C5805 1.377 . S
C5821 C5819 1.389 . S
C5821 C5822 1.524 . S
C5822 C5821 1.524 . S
C5822 C5823 1.397 . S
C5822 C5827 1.363 . S
C5823 H5794 0.950 . S
C5823 C5822 1.397 . S
C5823 C5824 1.334 . S
C5824 H5795 0.950 . S
C5824 C5823 1.334 . S
C5824 C5825 1.287 . S
C5825 C5824 1.287 . S
C5825 C5826 1.524 . S
C5825 H5828 0.999 . S
C5826 H5796 0.950 . S
C5826 C5825 1.524 . S
C5826 C5827 1.415 . S
C5827 H5797 0.950 . S
C5827 C5822 1.363 . S
C5827 C5826 1.415 . S
H5828 C5825 0.999 . S
H5829 C5810 0.913 . S
H5830 C5848 0.951 . S
H5831 C5850 0.951 . S
H5832 C5852 0.950 . S
H5833 C5853 0.950 . S
H5834 C5855 0.950 . S
H5835 C5858 0.950 . S
H5836 C5859 0.950 . S
H5837 C5861 0.950 . S
H5838 C5862 0.950 . S
H5839 C5863 0.951 . S
H5840 C5865 0.951 . S
H5841 C5867 0.950 . S
H5842 C5868 0.950 . S
H5843 C5870 0.950 . S
H5844 C5873 0.950 . S
H5845 C5874 0.950 . S
H5846 C5876 0.950 . S
H5847 C5877 0.950 . S
C5848 H5830 0.951 . S
C5848 C5849 1.366 . S
C5848 C5850 1.388 . S
C5849 C5848 1.366 . S
C5849 C5853 1.385 . S
C5850 H5831 0.951 . S
C5850 C5848 1.388 . S
C5850 C5851 1.366 . S
C5851 C5850 1.366 . S
C5851 C5852 1.414 . S
C5851 C5854 1.499 . S
C5852 H5832 0.950 . S
C5852 C5851 1.414 . S
C5852 C5853 1.374 . S
C5853 H5833 0.950 . S
C5853 C5849 1.385 . S
C5853 C5852 1.374 . S
C5854 C5851 1.499 . S
C5854 C5855 1.373 . S
C5854 C5856 1.389 . S
C5855 H5834 0.950 . S
C5855 C5854 1.373 . S
C5855 C5871 1.377 . S
C5856 C5854 1.389 . S
C5856 C5857 1.524 . S
C5856 C5870 1.377 . S
C5857 C5856 1.524 . S
C5857 C5858 1.397 . S
C5857 C5862 1.363 . S
C5858 H5835 0.950 . S
C5858 C5857 1.397 . S
C5858 C5859 1.334 . S
C5859 H5836 0.950 . S
C5859 C5858 1.334 . S
C5859 C5860 1.287 . S
C5860 C5859 1.287 . S
C5860 C5861 1.524 . S
C5860 H5879 0.913 . S
C5861 H5837 0.950 . S
C5861 C5860 1.524 . S
C5861 C5862 1.415 . S
C5862 H5838 0.950 . S
C5862 C5857 1.363 . S
C5862 C5861 1.415 . S
C5863 H5839 0.951 . S
C5863 C5864 1.366 . S
C5863 C5865 1.388 . S
C5864 C5863 1.366 . S
C5864 C5868 1.385 . S
C5865 H5840 0.951 . S
C5865 C5863 1.388 . S
C5865 C5866 1.366 . S
C5866 C5865 1.366 . S
C5866 C5867 1.414 . S
C5866 C5869 1.499 . S
C5867 H5841 0.950 . S
C5867 C5866 1.414 . S
C5867 C5868 1.374 . S
C5868 H5842 0.950 . S
C5868 C5864 1.385 . S
C5868 C5867 1.374 . S
C5869 C5866 1.499 . S
C5869 C5870 1.373 . S
C5869 C5871 1.389 . S
C5870 H5843 0.950 . S
C5870 C5856 1.377 . S
C5870 C5869 1.373 . S
C5871 C5855 1.377 . S
C5871 C5869 1.389 . S
C5871 C5872 1.524 . S
C5872 C5871 1.524 . S
C5872 C5873 1.397 . S
C5872 C5877 1.363 . S
C5873 H5844 0.950 . S
C5873 C5872 1.397 . S
C5873 C5874 1.334 . S
C5874 H5845 0.950 . S
C5874 C5873 1.334 . S
C5874 C5875 1.287 . S
C5875 C5874 1.287 . S
C5875 C5876 1.524 . S
C5875 H5878 0.999 . S
C5876 H5846 0.950 . S
C5876 C5875 1.524 . S
C5876 C5877 1.415 . S
C5877 H5847 0.950 . S
C5877 C5872 1.363 . S
C5877 C5876 1.415 . S
H5878 C5875 0.999 . S
H5879 C5860 0.913 . S
H5880 C5898 0.951 . S
H5881 C5900 0.951 . S
H5882 C5902 0.950 . S
H5883 C5903 0.950 . S
H5884 C5905 0.950 . S
H5885 C5908 0.950 . S
H5886 C5909 0.950 . S
H5887 C5911 0.950 . S
H5888 C5912 0.950 . S
H5889 C5913 0.951 . S
H5890 C5915 0.951 . S
H5891 C5917 0.950 . S
H5892 C5918 0.950 . S
H5893 C5920 0.950 . S
H5894 C5923 0.950 . S
H5895 C5924 0.950 . S
H5896 C5926 0.950 . S
H5897 C5927 0.950 . S
C5898 H5880 0.951 . S
C5898 C5899 1.366 . S
C5898 C5900 1.388 . S
C5899 C5898 1.366 . S
C5899 C5903 1.385 . S
C5900 H5881 0.951 . S
C5900 C5898 1.388 . S
C5900 C5901 1.366 . S
C5901 C5900 1.366 . S
C5901 C5902 1.414 . S
C5901 C5904 1.499 . S
C5902 H5882 0.950 . S
C5902 C5901 1.414 . S
C5902 C5903 1.374 . S
C5903 H5883 0.950 . S
C5903 C5899 1.385 . S
C5903 C5902 1.374 . S
C5904 C5901 1.499 . S
C5904 C5905 1.373 . S
C5904 C5906 1.389 . S
C5905 H5884 0.950 . S
C5905 C5904 1.373 . S
C5905 C5921 1.377 . S
C5906 C5904 1.389 . S
C5906 C5907 1.524 . S
C5906 C5920 1.377 . S
C5907 C5906 1.524 . S
C5907 C5908 1.397 . S
C5907 C5912 1.363 . S
C5908 H5885 0.950 . S
C5908 C5907 1.397 . S
C5908 C5909 1.334 . S
C5909 H5886 0.950 . S
C5909 C5908 1.334 . S
C5909 C5910 1.287 . S
C5910 C5909 1.287 . S
C5910 C5911 1.524 . S
C5910 H5929 0.913 . S
C5911 H5887 0.950 . S
C5911 C5910 1.524 . S
C5911 C5912 1.415 . S
C5912 H5888 0.950 . S
C5912 C5907 1.363 . S
C5912 C5911 1.415 . S
C5913 H5889 0.951 . S
C5913 C5914 1.366 . S
C5913 C5915 1.388 . S
C5914 C5913 1.366 . S
C5914 C5918 1.385 . S
C5915 H5890 0.951 . S
C5915 C5913 1.388 . S
C5915 C5916 1.366 . S
C5916 C5915 1.366 . S
C5916 C5917 1.414 . S
C5916 C5919 1.499 . S
C5917 H5891 0.950 . S
C5917 C5916 1.414 . S
C5917 C5918 1.374 . S
C5918 H5892 0.950 . S
C5918 C5914 1.385 . S
C5918 C5917 1.374 . S
C5919 C5916 1.499 . S
C5919 C5920 1.373 . S
C5919 C5921 1.389 . S
C5920 H5893 0.950 . S
C5920 C5906 1.377 . S
C5920 C5919 1.373 . S
C5921 C5905 1.377 . S
C5921 C5919 1.389 . S
C5921 C5922 1.524 . S
C5922 C5921 1.524 . S
C5922 C5923 1.397 . S
C5922 C5927 1.363 . S
C5923 H5894 0.950 . S
C5923 C5922 1.397 . S
C5923 C5924 1.334 . S
C5924 H5895 0.950 . S
C5924 C5923 1.334 . S
C5924 C5925 1.287 . S
C5925 C5924 1.287 . S
C5925 C5926 1.524 . S
C5925 H5928 0.999 . S
C5926 H5896 0.950 . S
C5926 C5925 1.524 . S
C5926 C5927 1.415 . S
C5927 H5897 0.950 . S
C5927 C5922 1.363 . S
C5927 C5926 1.415 . S
H5928 C5925 0.999 . S
H5929 C5910 0.913 . S
H5930 C5948 0.951 . S
H5931 C5950 0.951 . S
H5932 C5952 0.950 . S
H5933 C5953 0.950 . S
H5934 C5955 0.950 . S
H5935 C5958 0.950 . S
H5936 C5959 0.950 . S
H5937 C5961 0.950 . S
H5938 C5962 0.950 . S
H5939 C5963 0.951 . S
H5940 C5965 0.951 . S
H5941 C5967 0.950 . S
H5942 C5968 0.950 . S
H5943 C5970 0.950 . S
H5944 C5973 0.950 . S
H5945 C5974 0.950 . S
H5946 C5976 0.950 . S
H5947 C5977 0.950 . S
C5948 H5930 0.951 . S
C5948 C5949 1.366 . S
C5948 C5950 1.388 . S
C5949 C5948 1.366 . S
C5949 C5953 1.385 . S
C5950 H5931 0.951 . S
C5950 C5948 1.388 . S
C5950 C5951 1.366 . S
C5951 C5950 1.366 . S
C5951 C5952 1.414 . S
C5951 C5954 1.499 . S
C5952 H5932 0.950 . S
C5952 C5951 1.414 . S
C5952 C5953 1.374 . S
C5953 H5933 0.950 . S
C5953 C5949 1.385 . S
C5953 C5952 1.374 . S
C5954 C5951 1.499 . S
C5954 C5955 1.373 . S
C5954 C5956 1.389 . S
C5955 H5934 0.950 . S
C5955 C5954 1.373 . S
C5955 C5971 1.377 . S
C5956 C5954 1.389 . S
C5956 C5957 1.524 . S
C5956 C5970 1.377 . S
C5957 C5956 1.524 . S
C5957 C5958 1.397 . S
C5957 C5962 1.363 . S
C5958 H5935 0.950 . S
C5958 C5957 1.397 . S
C5958 C5959 1.334 . S
C5959 H5936 0.950 . S
C5959 C5958 1.334 . S
C5959 C5960 1.287 . S
C5960 C5959 1.287 . S
C5960 C5961 1.524 . S
C5960 H5979 0.913 . S
C5961 H5937 0.950 . S
C5961 C5960 1.524 . S
C5961 C5962 1.415 . S
C5962 H5938 0.950 . S
C5962 C5957 1.363 . S
C5962 C5961 1.415 . S
C5963 H5939 0.951 . S
C5963 C5964 1.366 . S
C5963 C5965 1.388 . S
C5964 C5963 1.366 . S
C5964 C5968 1.385 . S
C5965 H5940 0.951 . S
C5965 C5963 1.388 . S
C5965 C5966 1.366 . S
C5966 C5965 1.366 . S
C5966 C5967 1.414 . S
C5966 C5969 1.499 . S
C5967 H5941 0.950 . S
C5967 C5966 1.414 . S
C5967 C5968 1.374 . S
C5968 H5942 0.950 . S
C5968 C5964 1.385 . S
C5968 C5967 1.374 . S
C5969 C5966 1.499 . S
C5969 C5970 1.373 . S
C5969 C5971 1.389 . S
C5970 H5943 0.950 . S
C5970 C5956 1.377 . S
C5970 C5969 1.373 . S
C5971 C5955 1.377 . S
C5971 C5969 1.389 . S
C5971 C5972 1.524 . S
C5972 C5971 1.524 . S
C5972 C5973 1.397 . S
C5972 C5977 1.363 . S
C5973 H5944 0.950 . S
C5973 C5972 1.397 . S
C5973 C5974 1.334 . S
C5974 H5945 0.950 . S
C5974 C5973 1.334 . S
C5974 C5975 1.287 . S
C5975 C5974 1.287 . S
C5975 C5976 1.524 . S
C5975 H5978 0.999 . S
C5976 H5946 0.950 . S
C5976 C5975 1.524 . S
C5976 C5977 1.415 . S
C5977 H5947 0.950 . S
C5977 C5972 1.363 . S
C5977 C5976 1.415 . S
H5978 C5975 0.999 . S
H5979 C5960 0.913 . S
H5980 C5998 0.951 . S
H5981 C6000 0.951 . S
H5982 C6002 0.950 . S
H5983 C6003 0.950 . S
H5984 C6005 0.950 . S
H5985 C6008 0.950 . S
H5986 C6009 0.950 . S
H5987 C6011 0.950 . S
H5988 C6012 0.950 . S
H5989 C6013 0.951 . S
H5990 C6015 0.951 . S
H5991 C6017 0.950 . S
H5992 C6018 0.950 . S
H5993 C6020 0.950 . S
H5994 C6023 0.950 . S
H5995 C6024 0.950 . S
H5996 C6026 0.950 . S
H5997 C6027 0.950 . S
C5998 H5980 0.951 . S
C5998 C5999 1.366 . S
C5998 C6000 1.388 . S
C5999 C5998 1.366 . S
C5999 C6003 1.385 . S
C6000 H5981 0.951 . S
C6000 C5998 1.388 . S
C6000 C6001 1.366 . S
C6001 C6000 1.366 . S
C6001 C6002 1.414 . S
C6001 C6004 1.499 . S
C6002 H5982 0.950 . S
C6002 C6001 1.414 . S
C6002 C6003 1.374 . S
C6003 H5983 0.950 . S
C6003 C5999 1.385 . S
C6003 C6002 1.374 . S
C6004 C6001 1.499 . S
C6004 C6005 1.373 . S
C6004 C6006 1.389 . S
C6005 H5984 0.950 . S
C6005 C6004 1.373 . S
C6005 C6021 1.377 . S
C6006 C6004 1.389 . S
C6006 C6007 1.524 . S
C6006 C6020 1.377 . S
C6007 C6006 1.524 . S
C6007 C6008 1.397 . S
C6007 C6012 1.363 . S
C6008 H5985 0.950 . S
C6008 C6007 1.397 . S
C6008 C6009 1.334 . S
C6009 H5986 0.950 . S
C6009 C6008 1.334 . S
C6009 C6010 1.287 . S
C6010 C6009 1.287 . S
C6010 C6011 1.524 . S
C6010 H6029 0.913 . S
C6011 H5987 0.950 . S
C6011 C6010 1.524 . S
C6011 C6012 1.415 . S
C6012 H5988 0.950 . S
C6012 C6007 1.363 . S
C6012 C6011 1.415 . S
C6013 H5989 0.951 . S
C6013 C6014 1.366 . S
C6013 C6015 1.388 . S
C6014 C6013 1.366 . S
C6014 C6018 1.385 . S
C6015 H5990 0.951 . S
C6015 C6013 1.388 . S
C6015 C6016 1.366 . S
C6016 C6015 1.366 . S
C6016 C6017 1.414 . S
C6016 C6019 1.499 . S
C6017 H5991 0.950 . S
C6017 C6016 1.414 . S
C6017 C6018 1.374 . S
C6018 H5992 0.950 . S
C6018 C6014 1.385 . S
C6018 C6017 1.374 . S
C6019 C6016 1.499 . S
C6019 C6020 1.373 . S
C6019 C6021 1.389 . S
C6020 H5993 0.950 . S
C6020 C6006 1.377 . S
C6020 C6019 1.373 . S
C6021 C6005 1.377 . S
C6021 C6019 1.389 . S
C6021 C6022 1.524 . S
C6022 C6021 1.524 . S
C6022 C6023 1.397 . S
C6022 C6027 1.363 . S
C6023 H5994 0.950 . S
C6023 C6022 1.397 . S
C6023 C6024 1.334 . S
C6024 H5995 0.950 . S
C6024 C6023 1.334 . S
C6024 C6025 1.287 . S
C6025 C6024 1.287 . S
C6025 C6026 1.524 . S
C6025 H6028 0.999 . S
C6026 H5996 0.950 . S
C6026 C6025 1.524 . S
C6026 C6027 1.415 . S
C6027 H5997 0.950 . S
C6027 C6022 1.363 . S
C6027 C6026 1.415 . S
H6028 C6025 0.999 . S
H6029 C6010 0.913 . S
H6030 C6048 0.951 . S
H6031 C6050 0.951 . S
H6032 C6052 0.950 . S
H6033 C6053 0.950 . S
H6034 C6055 0.950 . S
H6035 C6058 0.950 . S
H6036 C6059 0.950 . S
H6037 C6061 0.950 . S
H6038 C6062 0.950 . S
H6039 C6063 0.951 . S
H6040 C6065 0.951 . S
H6041 C6067 0.950 . S
H6042 C6068 0.950 . S
H6043 C6070 0.950 . S
H6044 C6073 0.950 . S
H6045 C6074 0.950 . S
H6046 C6076 0.950 . S
H6047 C6077 0.950 . S
C6048 H6030 0.951 . S
C6048 C6049 1.366 . S
C6048 C6050 1.388 . S
C6049 C6048 1.366 . S
C6049 C6053 1.385 . S
C6050 H6031 0.951 . S
C6050 C6048 1.388 . S
C6050 C6051 1.366 . S
C6051 C6050 1.366 . S
C6051 C6052 1.414 . S
C6051 C6054 1.499 . S
C6052 H6032 0.950 . S
C6052 C6051 1.414 . S
C6052 C6053 1.374 . S
C6053 H6033 0.950 . S
C6053 C6049 1.385 . S
C6053 C6052 1.374 . S
C6054 C6051 1.499 . S
C6054 C6055 1.373 . S
C6054 C6056 1.389 . S
C6055 H6034 0.950 . S
C6055 C6054 1.373 . S
C6055 C6071 1.377 . S
C6056 C6054 1.389 . S
C6056 C6057 1.524 . S
C6056 C6070 1.377 . S
C6057 C6056 1.524 . S
C6057 C6058 1.397 . S
C6057 C6062 1.363 . S
C6058 H6035 0.950 . S
C6058 C6057 1.397 . S
C6058 C6059 1.334 . S
C6059 H6036 0.950 . S
C6059 C6058 1.334 . S
C6059 C6060 1.287 . S
C6060 C6059 1.287 . S
C6060 C6061 1.524 . S
C6060 H6079 0.913 . S
C6061 H6037 0.950 . S
C6061 C6060 1.524 . S
C6061 C6062 1.415 . S
C6062 H6038 0.950 . S
C6062 C6057 1.363 . S
C6062 C6061 1.415 . S
C6063 H6039 0.951 . S
C6063 C6064 1.366 . S
C6063 C6065 1.388 . S
C6064 C6063 1.366 . S
C6064 C6068 1.385 . S
C6065 H6040 0.951 . S
C6065 C6063 1.388 . S
C6065 C6066 1.366 . S
C6066 C6065 1.366 . S
C6066 C6067 1.414 . S
C6066 C6069 1.499 . S
C6067 H6041 0.950 . S
C6067 C6066 1.414 . S
C6067 C6068 1.374 . S
C6068 H6042 0.950 . S
C6068 C6064 1.385 . S
C6068 C6067 1.374 . S
C6069 C6066 1.499 . S
C6069 C6070 1.373 . S
C6069 C6071 1.389 . S
C6070 H6043 0.950 . S
C6070 C6056 1.377 . S
C6070 C6069 1.373 . S
C6071 C6055 1.377 . S
C6071 C6069 1.389 . S
C6071 C6072 1.524 . S
C6072 C6071 1.524 . S
C6072 C6073 1.397 . S
C6072 C6077 1.363 . S
C6073 H6044 0.950 . S
C6073 C6072 1.397 . S
C6073 C6074 1.334 . S
C6074 H6045 0.950 . S
C6074 C6073 1.334 . S
C6074 C6075 1.287 . S
C6075 C6074 1.287 . S
C6075 C6076 1.524 . S
C6075 H6078 0.999 . S
C6076 H6046 0.950 . S
C6076 C6075 1.524 . S
C6076 C6077 1.415 . S
C6077 H6047 0.950 . S
C6077 C6072 1.363 . S
C6077 C6076 1.415 . S
H6078 C6075 0.999 . S
H6079 C6060 0.913 . S
C1299 C8 1.180 . S
C1314 C132 1.158 . S
C1349 C12 1.158 . S
C1364 C48 1.180 . S
C1399 C88 1.180 . S
C1414 C52 1.158 . S
C1449 C92 1.159 . S
C1464 C128 1.180 . S
C1499 C212 1.159 . S
C1514 C168 1.180 . S
C1549 C208 1.180 . S
C1564 C252 1.159 . S
C1599 C292 1.159 . S
C1614 C248 1.180 . S
C1649 C172 1.158 . S
C1664 C288 1.180 . S
C1699 C349 1.180 . S
C1714 C471 1.159 . S
C1749 C389 1.180 . S
C1764 C351 1.159 . S
C1799 C429 1.180 . S
C1814 C391 1.159 . S
C1849 C469 1.180 . S
C1864 C431 1.159 . S
C1899 C509 1.180 . S
C1914 C551 1.159 . S
C1949 C549 1.180 . S
C1964 C591 1.158 . S
C1999 C631 1.159 . S
C2014 C589 1.180 . S
C2049 C511 1.158 . S
C2064 C629 1.180 . S
C2099 C648 1.180 . S
C2114 C772 1.158 . S
C2149 C652 1.158 . S
C2164 C688 1.180 . S
C2199 C692 1.158 . S
C2214 C728 1.180 . S
C2249 C768 1.180 . S
C2264 C732 1.158 . S
C2299 C808 1.180 . S
C2314 C852 1.159 . S
C2349 C892 1.159 . S
C2364 C848 1.180 . S
C2399 C888 1.180 . S
C2414 C932 1.158 . S
C2449 C812 1.159 . S
C2464 C928 1.180 . S
C2499 C1111 1.158 . S
C2514 C989 1.180 . S
C2549 C991 1.158 . S
C2564 C1029 1.180 . S
C2599 C1069 1.180 . S
C2614 C1031 1.158 . S
C2649 C1071 1.158 . S
C2664 C1109 1.180 . S
C2699 C1191 1.159 . S
C2714 C1149 1.180 . S
C2749 C1231 1.159 . S
C2764 C1189 1.180 . S
C2799 C1271 1.158 . S
C2814 C1229 1.180 . S
C2849 C1269 1.180 . S
C2864 C1151 1.158 . S
C2899 C1088 1.572 . S
C2914 C17 1.551 . S
C2949 C57 1.551 . S
C2964 C328 1.572 . S
C2999 C97 1.551 . S
C3014 C1008 1.572 . S
C3049 C137 1.551 . S
C3064 C408 1.572 . S
C3099 C177 1.552 . S
C3114 C1168 1.572 . S
C3149 C568 1.572 . S
C3164 C217 1.551 . S
C3199 C1248 1.572 . S
C3214 C257 1.551 . S
C3249 C297 1.552 . S
C3264 C488 1.572 . S
C3299 C322 1.551 . S
C3314 C789 1.572 . S
C3349 C29 1.572 . S
C3364 C362 1.551 . S
C3399 C709 1.572 . S
C3414 C402 1.552 . S
C3449 C109 1.572 . S
C3464 C442 1.551 . S
C3499 C869 1.572 . S
C3514 C482 1.552 . S
C3549 C269 1.572 . S
C3564 C522 1.552 . S
C3599 C562 1.551 . S
C3614 C949 1.572 . S
C3649 C602 1.552 . S
C3664 C189 1.572 . S
C3699 C657 1.552 . S
C3714 C448 1.572 . S
C3749 C697 1.551 . S
C3764 C968 1.572 . S
C3799 C737 1.551 . S
C3814 C368 1.572 . S
C3849 C777 1.552 . S
C3864 C1048 1.572 . S
C3899 C817 1.551 . S
C3914 C528 1.572 . S
C3949 C857 1.551 . S
C3964 C1208 1.572 . S
C3999 C608 1.572 . S
C4014 C897 1.552 . S
C4049 C937 1.551 . S
C4064 C1128 1.572 . S
C4099 C149 1.572 . S
C4114 C962 1.552 . S
C4149 C669 1.572 . S
C4164 C1002 1.552 . S
C4199 C69 1.572 . S
C4214 C1042 1.551 . S
C4249 C749 1.572 . S
C4264 C1082 1.552 . S
C4299 C229 1.572 . S
C4314 C1122 1.551 . S
C4349 C1162 1.551 . S
C4364 C909 1.572 . S
C4399 C1202 1.551 . S
C4414 C309 1.572 . S
C4449 C829 1.572 . S
C4464 C1242 1.552 . S
C4499 C2 0.332 . S
C4514 C162 0.335 . S
C4549 C42 0.332 . S
C4564 C202 0.335 . S
C4599 C82 0.335 . S
C4614 C242 0.335 . S
C4649 C282 0.333 . S
C4664 C122 0.333 . S
C4699 C497 0.335 . S
C4714 C337 0.332 . S
C4749 C537 0.332 . S
C4764 C377 0.335 . S
C4799 C417 0.336 . S
C4814 C577 0.332 . S
C4849 C457 0.332 . S
C4864 C617 0.336 . S
C4899 C642 0.336 . S
C4914 C802 0.333 . S
C4949 C842 0.332 . S
C4964 C682 0.333 . S
C4999 C882 0.333 . S
C5014 C722 0.332 . S
C5049 C922 0.332 . S
C5064 C762 0.333 . S
C5099 C1137 0.332 . S
C5114 C977 0.334 . S
C5149 C1017 0.333 . S
C5164 C1177 0.333 . S
C5199 C1217 0.332 . S
C5214 C1057 0.334 . S
C5249 C1097 0.336 . S
C5264 C1257 0.333 . S
C5299 C311 2.617 . S
C5314 C31 2.617 . S
C5349 C71 2.617 . S
C5364 C191 2.617 . S
C5399 C111 2.617 . S
C5414 C231 2.617 . S
C5449 C271 2.617 . S
C5464 C151 2.617 . S
C5499 C332 2.617 . S
C5514 C612 2.617 . S
C5549 C492 2.618 . S
C5564 C372 2.617 . S
C5599 C532 2.617 . S
C5614 C412 2.618 . S
C5649 C452 2.617 . S
C5664 C572 2.617 . S
C5699 C671 2.618 . S
C5714 C951 2.617 . S
C5749 C831 2.617 . S
C5764 C711 2.617 . S
C5799 C871 2.617 . S
C5814 C751 2.617 . S
C5849 C911 2.617 . S
C5864 C791 2.617 . S
C5899 C972 2.617 . S
C5914 C1252 2.617 . S
C5949 C1132 2.617 . S
C5964 C1012 2.617 . S
C5999 C1052 2.617 . S
C6014 C1172 2.617 . S
C6049 C1212 2.617 . S
C6064 C1092 2.618 . S
