# Generated by pormake.
# Topology fca, (5)-cn, num edge types: 1
# Building blocks:
#     Node 0, Type 0, BuildingBlock: BEQFEK_clean_sbu_0, # of connection points: 5
#     Node 1, Type 0, BuildingBlock: BEQFEK_clean_sbu_0, # of connection points: 5
#     Node 2, Type 0, BuildingBlock: BEQFEK_clean_sbu_0, # of connection points: 5
#     Node 3, Type 0, BuildingBlock: BEQFEK_clean_sbu_0, # of connection points: 5
#     Node 4, Type 0, BuildingBlock: BEQFEK_clean_sbu_0, # of connection points: 5
#     Node 5, Type 0, BuildingBlock: BEQFEK_clean_sbu_0, # of connection points: 5
#     Node 6, Type 0, BuildingBlock: BEQFEK_clean_sbu_0, # of connection points: 5
#     Node 7, Type 0, BuildingBlock: BEQFEK_clean_sbu_0, # of connection points: 5
#     Node 8, Type 0, BuildingBlock: BEQFEK_clean_sbu_0, # of connection points: 5
#     Node 9, Type 0, BuildingBlock: BEQFEK_clean_sbu_0, # of connection points: 5
#     Node 10, Type 0, BuildingBlock: BEQFEK_clean_sbu_0, # of connection points: 5
#     Node 11, Type 0, BuildingBlock: BEQFEK_clean_sbu_0, # of connection points: 5
#     Node 12, Type 0, BuildingBlock: BEQFEK_clean_sbu_0, # of connection points: 5
#     Node 13, Type 0, BuildingBlock: BEQFEK_clean_sbu_0, # of connection points: 5
#     Node 14, Type 0, BuildingBlock: BEQFEK_clean_sbu_0, # of connection points: 5
#     Node 15, Type 0, BuildingBlock: BEQFEK_clean_sbu_0, # of connection points: 5
#     Node 16, Type 0, BuildingBlock: BEQFEK_clean_sbu_0, # of connection points: 5
#     Node 17, Type 0, BuildingBlock: BEQFEK_clean_sbu_0, # of connection points: 5
#     Node 18, Type 0, BuildingBlock: BEQFEK_clean_sbu_0, # of connection points: 5
#     Node 19, Type 0, BuildingBlock: BEQFEK_clean_sbu_0, # of connection points: 5
#     Node 20, Type 0, BuildingBlock: BEQFEK_clean_sbu_0, # of connection points: 5
#     Node 21, Type 0, BuildingBlock: BEQFEK_clean_sbu_0, # of connection points: 5
#     Node 22, Type 0, BuildingBlock: BEQFEK_clean_sbu_0, # of connection points: 5
#     Node 23, Type 0, BuildingBlock: BEQFEK_clean_sbu_0, # of connection points: 5
#     Edge 24, Type (0, 0), BuildingBlock: UVAHIK_clean_linker_0, # of connection points: 2
#     Edge 25, Type (0, 0), BuildingBlock: UVAHIK_clean_linker_0, # of connection points: 2
#     Edge 26, Type (0, 0), BuildingBlock: UVAHIK_clean_linker_0, # of connection points: 2
#     Edge 27, Type (0, 0), BuildingBlock: UVAHIK_clean_linker_0, # of connection points: 2
#     Edge 28, Type (0, 0), BuildingBlock: UVAHIK_clean_linker_0, # of connection points: 2
#     Edge 29, Type (0, 0), BuildingBlock: UVAHIK_clean_linker_0, # of connection points: 2
#     Edge 30, Type (0, 0), BuildingBlock: UVAHIK_clean_linker_0, # of connection points: 2
#     Edge 31, Type (0, 0), BuildingBlock: UVAHIK_clean_linker_0, # of connection points: 2
#     Edge 32, Type (0, 0), BuildingBlock: UVAHIK_clean_linker_0, # of connection points: 2
#     Edge 33, Type (0, 0), BuildingBlock: UVAHIK_clean_linker_0, # of connection points: 2
#     Edge 34, Type (0, 0), BuildingBlock: UVAHIK_clean_linker_0, # of connection points: 2
#     Edge 35, Type (0, 0), BuildingBlock: UVAHIK_clean_linker_0, # of connection points: 2
#     Edge 36, Type (0, 0), BuildingBlock: UVAHIK_clean_linker_0, # of connection points: 2
#     Edge 37, Type (0, 0), BuildingBlock: UVAHIK_clean_linker_0, # of connection points: 2
#     Edge 38, Type (0, 0), BuildingBlock: UVAHIK_clean_linker_0, # of connection points: 2
#     Edge 39, Type (0, 0), BuildingBlock: UVAHIK_clean_linker_0, # of connection points: 2
#     Edge 40, Type (0, 0), BuildingBlock: UVAHIK_clean_linker_0, # of connection points: 2
#     Edge 41, Type (0, 0), BuildingBlock: UVAHIK_clean_linker_0, # of connection points: 2
#     Edge 42, Type (0, 0), BuildingBlock: UVAHIK_clean_linker_0, # of connection points: 2
#     Edge 43, Type (0, 0), BuildingBlock: UVAHIK_clean_linker_0, # of connection points: 2
#     Edge 44, Type (0, 0), BuildingBlock: UVAHIK_clean_linker_0, # of connection points: 2
#     Edge 45, Type (0, 0), BuildingBlock: UVAHIK_clean_linker_0, # of connection points: 2
#     Edge 46, Type (0, 0), BuildingBlock: UVAHIK_clean_linker_0, # of connection points: 2
#     Edge 47, Type (0, 0), BuildingBlock: UVAHIK_clean_linker_0, # of connection points: 2
#     Edge 48, Type (0, 0), BuildingBlock: UVAHIK_clean_linker_0, # of connection points: 2
#     Edge 49, Type (0, 0), BuildingBlock: UVAHIK_clean_linker_0, # of connection points: 2
#     Edge 50, Type (0, 0), BuildingBlock: UVAHIK_clean_linker_0, # of connection points: 2
#     Edge 51, Type (0, 0), BuildingBlock: UVAHIK_clean_linker_0, # of connection points: 2
#     Edge 52, Type (0, 0), BuildingBlock: UVAHIK_clean_linker_0, # of connection points: 2
#     Edge 53, Type (0, 0), BuildingBlock: UVAHIK_clean_linker_0, # of connection points: 2
#     Edge 54, Type (0, 0), BuildingBlock: UVAHIK_clean_linker_0, # of connection points: 2
#     Edge 55, Type (0, 0), BuildingBlock: UVAHIK_clean_linker_0, # of connection points: 2
#     Edge 56, Type (0, 0), BuildingBlock: UVAHIK_clean_linker_0, # of connection points: 2
#     Edge 57, Type (0, 0), BuildingBlock: UVAHIK_clean_linker_0, # of connection points: 2
#     Edge 58, Type (0, 0), BuildingBlock: UVAHIK_clean_linker_0, # of connection points: 2
#     Edge 59, Type (0, 0), BuildingBlock: UVAHIK_clean_linker_0, # of connection points: 2
#     Edge 60, Type (0, 0), BuildingBlock: UVAHIK_clean_linker_0, # of connection points: 2
#     Edge 61, Type (0, 0), BuildingBlock: UVAHIK_clean_linker_0, # of connection points: 2
#     Edge 62, Type (0, 0), BuildingBlock: UVAHIK_clean_linker_0, # of connection points: 2
#     Edge 63, Type (0, 0), BuildingBlock: UVAHIK_clean_linker_0, # of connection points: 2
#     Edge 64, Type (0, 0), BuildingBlock: UVAHIK_clean_linker_0, # of connection points: 2
#     Edge 65, Type (0, 0), BuildingBlock: UVAHIK_clean_linker_0, # of connection points: 2
#     Edge 66, Type (0, 0), BuildingBlock: UVAHIK_clean_linker_0, # of connection points: 2
#     Edge 67, Type (0, 0), BuildingBlock: UVAHIK_clean_linker_0, # of connection points: 2
#     Edge 68, Type (0, 0), BuildingBlock: UVAHIK_clean_linker_0, # of connection points: 2
#     Edge 69, Type (0, 0), BuildingBlock: UVAHIK_clean_linker_0, # of connection points: 2
#     Edge 70, Type (0, 0), BuildingBlock: UVAHIK_clean_linker_0, # of connection points: 2
#     Edge 71, Type (0, 0), BuildingBlock: UVAHIK_clean_linker_0, # of connection points: 2
#     Edge 72, Type (0, 0), BuildingBlock: UVAHIK_clean_linker_0, # of connection points: 2
#     Edge 73, Type (0, 0), BuildingBlock: UVAHIK_clean_linker_0, # of connection points: 2
#     Edge 74, Type (0, 0), BuildingBlock: UVAHIK_clean_linker_0, # of connection points: 2
#     Edge 75, Type (0, 0), BuildingBlock: UVAHIK_clean_linker_0, # of connection points: 2
#     Edge 76, Type (0, 0), BuildingBlock: UVAHIK_clean_linker_0, # of connection points: 2
#     Edge 77, Type (0, 0), BuildingBlock: UVAHIK_clean_linker_0, # of connection points: 2
#     Edge 78, Type (0, 0), BuildingBlock: UVAHIK_clean_linker_0, # of connection points: 2
#     Edge 79, Type (0, 0), BuildingBlock: UVAHIK_clean_linker_0, # of connection points: 2
#     Edge 80, Type (0, 0), BuildingBlock: UVAHIK_clean_linker_0, # of connection points: 2
#     Edge 81, Type (0, 0), BuildingBlock: UVAHIK_clean_linker_0, # of connection points: 2
#     Edge 82, Type (0, 0), BuildingBlock: UVAHIK_clean_linker_0, # of connection points: 2
#     Edge 83, Type (0, 0), BuildingBlock: UVAHIK_clean_linker_0, # of connection points: 2
# Relax obj value: 0.451
# Max RMSD: 0.290
# Mean RMSD: 0.290
data_MOF--net-fca--node1-BEQFEK_clean_sbu_0--edge1-UVAHIK_clean_linker_0
_symmetry_space_group_name_H-M    P1
_symmetry_Int_Tables_number       1
_symmetry_cell_setting            triclinic
loop_
_symmetry_equiv_pos_as_xyz
'x, y, z'
_cell_length_a     69.837768
_cell_length_b     69.833564
_cell_length_c     69.843766
_cell_angle_alpha  90.012973
_cell_angle_beta   89.991874
_cell_angle_gamma 89.988278
loop_
_atom_site_label
_atom_site_type_symbol
_atom_site_fract_x
_atom_site_fract_y
_atom_site_fract_z
_atom_type_partial_charge
Co0 Co 0.03421 0.37718 0.28359 0.0
Co1 Co 0.0583 0.38146 0.32103 0.0
C2 C 0.07637 0.38539 0.28225 0.0
O3 O 0.06058 0.3815 0.27405 0.0
O4 O 0.07766 0.38537 0.30043 0.0
C5 C 0.01823 0.35612 0.25124 0.0
O6 O 0.02892 0.34157 0.2565 0.0
C7 C 0.08676 0.37189 0.35063 0.0
C8 C 0.07717 0.39025 0.37457 0.0
C9 C 0.09094 0.37691 0.36944 0.0
N10 N 0.07113 0.38166 0.34509 0.0
N11 N 0.06556 0.39269 0.35941 0.0
C12 C 0.09766 0.35858 0.33784 0.0
H13 H 0.09548 0.36242 0.32261 0.0
H14 H 0.0923 0.34377 0.3399 0.0
H15 H 0.11317 0.35891 0.3413 0.0
C16 C 0.01742 0.34526 0.30609 0.0
N17 N 0.03158 0.35806 0.30289 0.0
N18 N 0.04227 0.3594 0.31836 0.0
C19 C 0.03544 0.34723 0.33174 0.0
C20 C 0.01947 0.33783 0.32442 0.0
C21 C -1e-05 0.34334 0.29372 0.0
H22 H 0.99679 0.3571 0.28652 0.0
H23 H 0.00261 0.33219 0.28272 0.0
H24 H 0.98728 0.33897 0.30219 0.0
O25 O 0.02527 0.40194 0.29389 0.0
O26 O 0.04192 0.40449 0.32088 0.0
H27 H 0.0395 0.36007 0.35923 0.0
H28 H 0.03583 0.33442 0.35999 0.0
C29 C 0.04259 0.34631 0.35191 0.0
H30 H 0.05828 0.34411 0.35185 0.0
H31 H 0.05377 0.40185 0.35887 0.0
O32 O 0.01846 0.37157 0.26086 0.0
C33 C 0.02967 0.41102 0.30908 0.0
Co34 Co 0.98171 0.64419 0.28774 0.0
Co35 Co 0.95702 0.63793 0.32446 0.0
C36 C 0.94074 0.63336 0.28436 0.0
O37 O 0.95627 0.63859 0.27636 0.0
O38 O 0.93923 0.63305 0.30254 0.0
C39 C 0.99643 0.65819 0.25114 0.0
O40 O 0.97862 0.66181 0.2463 0.0
C41 C 0.92712 0.64791 0.35224 0.0
C42 C 0.93282 0.62714 0.37542 0.0
C43 C 0.92067 0.64189 0.37008 0.0
N44 N 0.94242 0.63728 0.34742 0.0
N45 N 0.94571 0.62485 0.36129 0.0
C46 C 0.91853 0.66283 0.33948 0.0
H47 H 0.92214 0.65987 0.3243 0.0
H48 H 0.92455 0.67703 0.34324 0.0
H49 H 0.90275 0.66337 0.34133 0.0
C50 C 0.99486 0.67748 0.31 0.0
N51 N 0.98193 0.66345 0.30697 0.0
N52 N 0.97204 0.66064 0.32273 0.0
C53 C 0.97865 0.67257 0.33644 0.0
C54 C 0.99336 0.68371 0.32885 0.0
C55 C 0.01077 0.68203 0.29635 0.0
H56 H 0.00463 0.68584 0.28221 0.0
H57 H 0.01981 0.69402 0.30146 0.0
H58 H 0.01989 0.66916 0.29447 0.0
O59 O 0.99103 0.61965 0.29853 0.0
O60 O 0.97435 0.61579 0.32533 0.0
H61 H 0.9757 0.65667 0.36245 0.0
H62 H 0.98074 0.6819 0.366 0.0
C63 C 0.97293 0.67135 0.35706 0.0
H64 H 0.95737 0.67415 0.35835 0.0
H65 H 0.95671 0.61474 0.36108 0.0
O66 O 6e-05 0.65094 0.26742 0.0
C67 C 0.98699 0.61008 0.31353 0.0
Co68 Co 0.03159 0.63964 0.73158 0.0
Co69 Co 0.05807 0.63816 0.69561 0.0
C70 C 0.07412 0.6322 0.73465 0.0
O71 O 0.05759 0.63466 0.74188 0.0
O72 O 0.07678 0.63401 0.71671 0.0
C73 C 0.01484 0.65958 0.76404 0.0
O74 O 0.0251 0.67447 0.75887 0.0
C75 C 0.08681 0.64995 0.66706 0.0
C76 C 0.08039 0.62994 0.64338 0.0
C77 C 0.09254 0.64463 0.64879 0.0
N78 N 0.07186 0.63894 0.67214 0.0
N79 N 0.06816 0.62697 0.65795 0.0
C80 C 0.09595 0.66448 0.67989 0.0
H81 H 0.09214 0.66172 0.69505 0.0
H82 H 0.09074 0.67897 0.67604 0.0
H83 H 0.11174 0.66428 0.67806 0.0
C84 C 0.01532 0.67238 0.71013 0.0
N85 N 0.02969 0.65984 0.71334 0.0
N86 N 0.04112 0.65957 0.69835 0.0
C87 C 0.03445 0.67213 0.68522 0.0
C88 C 0.01795 0.68078 0.69231 0.0
C89 C 0.99723 0.67311 0.72166 0.0
H90 H 0.99872 0.6841 0.73303 0.0
H91 H 0.98475 0.6771 0.71266 0.0
H92 H 0.99435 0.65903 0.72835 0.0
O93 O 0.02295 0.61556 0.71942 0.0
O94 O 0.04246 0.61467 0.69432 0.0
H95 H 0.04044 0.66005 0.65772 0.0
H96 H 0.0348 0.68536 0.65714 0.0
C97 C 0.04216 0.6739 0.66531 0.0
H98 H 0.05761 0.6773 0.66594 0.0
H99 H 0.05731 0.61671 0.65822 0.0
O100 O 0.01541 0.64424 0.75428 0.0
C101 C 0.02916 0.60731 0.70437 0.0
Co102 Co 0.98068 0.37647 0.72454 0.0
Co103 Co 0.95243 0.37971 0.69009 0.0
C104 C 0.93887 0.38402 0.73076 0.0
O105 O 0.95565 0.38109 0.73726 0.0
O106 O 0.9355 0.3831 0.71285 0.0
C107 C 0.99702 0.36103 0.7594 0.0
O108 O 0.97976 0.35453 0.76312 0.0
C109 C 0.92169 0.36838 0.66357 0.0
C110 C 0.9264 0.38868 0.63976 0.0
C111 C 0.9147 0.37383 0.64576 0.0
N112 N 0.93689 0.37943 0.66775 0.0
N113 N 0.93955 0.39159 0.65351 0.0
C114 C 0.91374 0.35356 0.67685 0.0
H115 H 0.91746 0.35702 0.69189 0.0
H116 H 0.92012 0.33944 0.67339 0.0
H117 H 0.89796 0.35251 0.67525 0.0
C118 C 0.99436 0.34356 0.70212 0.0
N119 N 0.98074 0.35676 0.70582 0.0
N120 N 0.96926 0.35819 0.69096 0.0
C121 C 0.9754 0.34605 0.67719 0.0
C122 C 0.99151 0.3363 0.68381 0.0
C123 C 0.0118 0.34089 0.71432 0.0
H124 H 0.00741 0.33542 0.72857 0.0
H125 H 0.02222 0.33078 0.70792 0.0
H126 H 0.01896 0.35492 0.71641 0.0
O127 O 0.98843 0.40095 0.7125 0.0
O128 O 0.96791 0.40318 0.68834 0.0
H129 H 0.9692 0.35993 0.65062 0.0
H130 H 0.97472 0.33466 0.64831 0.0
C131 C 0.96751 0.34561 0.65728 0.0
H132 H 0.95202 0.3423 0.65785 0.0
H133 H 0.95037 0.40189 0.65316 0.0
O134 O -5e-05 0.37065 0.74425 0.0
C135 C 0.98171 0.40993 0.69812 0.0
Co136 Co 0.28513 0.03458 0.37721 0.0
Co137 Co 0.32218 0.05946 0.37911 0.0
C138 C 0.28428 0.07767 0.38384 0.0
O139 O 0.27637 0.06136 0.38187 0.0
O140 O 0.30231 0.07956 0.38195 0.0
C141 C 0.25235 0.018 0.35688 0.0
O142 O 0.25838 0.02668 0.34133 0.0
C143 C 0.35313 0.08668 0.37003 0.0
C144 C 0.37655 0.07508 0.38787 0.0
C145 C 0.3722 0.08962 0.37507 0.0
N146 N 0.34673 0.07114 0.37941 0.0
N147 N 0.36074 0.0644 0.39017 0.0
C148 C 0.34142 0.09733 0.35561 0.0
H149 H 0.32895 0.0886 0.35105 0.0
H150 H 0.35027 0.10109 0.34295 0.0
H151 H 0.33599 0.11075 0.36217 0.0
C152 C 0.30706 0.01661 0.34551 0.0
N153 N 0.30391 0.03138 0.35761 0.0
N154 N 0.31913 0.0425 0.35781 0.0
C155 C 0.33221 0.03542 0.34544 0.0
C156 C 0.32504 0.01873 0.33724 0.0
C157 C 0.29518 0.99875 0.34509 0.0
H158 H 0.28746 0.99688 0.35882 0.0
H159 H 0.28463 0.99977 0.33327 0.0
H160 H 0.30418 0.98591 0.3425 0.0
O161 O 0.29602 0.02544 0.40158 0.0
O162 O 0.32156 0.04426 0.40287 0.0
H163 H 0.36047 0.04039 0.35609 0.0
H164 H 0.35929 0.03697 0.33044 0.0
C165 C 0.35196 0.04335 0.34301 0.0
H166 H 0.35116 0.05906 0.34102 0.0
H167 H 0.35957 0.05236 0.39892 0.0
O168 O 0.26171 0.01947 0.37241 0.0
C169 C 0.31096 0.03138 0.41016 0.0
Co170 Co 0.72728 0.98143 0.3774 0.0
Co171 Co 0.69259 0.95342 0.38008 0.0
C172 C 0.73312 0.93951 0.38468 0.0
O173 O 0.73982 0.95626 0.38191 0.0
O174 O 0.71518 0.93634 0.38368 0.0
C175 C 0.76187 0.99842 0.36176 0.0
O176 O 0.76489 0.98182 0.35344 0.0
C177 C 0.66594 0.92288 0.3685 0.0
C178 C 0.64158 0.9284 0.38795 0.0
C179 C 0.64779 0.91636 0.37345 0.0
N180 N 0.67008 0.93814 0.37947 0.0
N181 N 0.65551 0.94127 0.39113 0.0
C182 C 0.67951 0.91448 0.3542 0.0
H183 H 0.69452 0.91777 0.35819 0.0
H184 H 0.67676 0.92092 0.33995 0.0
H185 H 0.67751 0.89874 0.35313 0.0
C186 C 0.70532 0.99537 0.34422 0.0
N187 N 0.70884 0.98171 0.35741 0.0
N188 N 0.69396 0.97022 0.35858 0.0
C189 C 0.68039 0.97637 0.34625 0.0
C190 C 0.68712 0.99252 0.33668 0.0
C191 C 0.71751 0.01286 0.34179 0.0
H192 H 0.71971 0.01978 0.35592 0.0
H193 H 0.7317 0.00855 0.33613 0.0
H194 H 0.71103 0.02342 0.33189 0.0
O195 O 0.71489 0.98918 0.40171 0.0
O196 O 0.69048 0.96892 0.40347 0.0
H197 H 0.65355 0.97029 0.35968 0.0
H198 H 0.65171 0.97567 0.33436 0.0
C199 C 0.66047 0.9685 0.3455 0.0
H200 H 0.66108 0.95299 0.34227 0.0
H201 H 0.65505 0.95227 0.40124 0.0
O202 O 0.74719 0.0007 0.37225 0.0
C203 C 0.70024 0.98265 0.41039 0.0
Co204 Co 0.28568 0.98231 0.6405 0.0
Co205 Co 0.32202 0.9563 0.63866 0.0
C206 C 0.28298 0.93975 0.63337 0.0
O207 O 0.2754 0.95611 0.63605 0.0
O208 O 0.30101 0.93751 0.63471 0.0
C209 C 0.25323 6e-05 0.66003 0.0
O210 O 0.25776 0.9898 0.67512 0.0
C211 C 0.35082 0.92726 0.64925 0.0
C212 C 0.37515 0.93604 0.63101 0.0
C213 C 0.36953 0.92253 0.64439 0.0
N214 N 0.34576 0.94293 0.63929 0.0
N215 N 0.36033 0.94803 0.62836 0.0
C216 C 0.33764 0.91676 0.66249 0.0
H217 H 0.3225 0.91937 0.65854 0.0
H218 H 0.33977 0.92208 0.6773 0.0
H219 H 0.34069 0.90116 0.66223 0.0
C220 C 0.30763 0.99917 0.67268 0.0
N221 N 0.30426 0.98465 0.66036 0.0
N222 N 0.31925 0.97321 0.66007 0.0
C223 C 0.33245 0.97992 0.67251 0.0
C224 C 0.32555 0.99661 0.68095 0.0
C225 C 0.29607 0.01725 0.67331 0.0
H226 H 0.28937 0.02001 0.6592 0.0
H227 H 0.28468 0.01578 0.68427 0.0
H228 H 0.30503 0.02977 0.6772 0.0
O229 O 0.29742 0.99067 0.61621 0.0
O230 O 0.32296 0.97176 0.6151 0.0
H231 H 0.36038 0.97435 0.6613 0.0
H232 H 0.35986 0.97827 0.68691 0.0
C233 C 0.35215 0.97177 0.67464 0.0
H234 H 0.35119 0.95612 0.67694 0.0
H235 H 0.36017 0.95972 0.61905 0.0
O236 O 0.26325 0.99892 0.64489 0.0
C237 C 0.31249 0.98476 0.6078 0.0
Co238 Co 0.72939 0.03427 0.63901 0.0
Co239 Co 0.69528 0.06311 0.63689 0.0
C240 C 0.73593 0.07608 0.6315 0.0
O241 O 0.74226 0.05917 0.63407 0.0
O242 O 0.71811 0.07973 0.63296 0.0
C243 C 0.76461 0.01716 0.65292 0.0
O244 O 0.76848 0.03407 0.66019 0.0
C245 C 0.6692 0.09418 0.64868 0.0
C246 C 0.64495 0.08938 0.62892 0.0
C247 C 0.6513 0.10121 0.64351 0.0
N248 N 0.67307 0.07885 0.63769 0.0
N249 N 0.65856 0.07613 0.62587 0.0
C250 C 0.6828 0.10223 0.66314 0.0
H251 H 0.69775 0.09838 0.65942 0.0
H252 H 0.67957 0.09602 0.6774 0.0
H253 H 0.68129 0.11803 0.66406 0.0
C254 C 0.7077 0.02086 0.67251 0.0
N255 N 0.7113 0.03449 0.65932 0.0
N256 N 0.69663 0.04626 0.65836 0.0
C257 C 0.68308 0.04032 0.67081 0.0
C258 C 0.68963 0.024 0.68024 0.0
C259 C 0.71963 0.00317 0.67471 0.0
H260 H 0.72102 0.99596 0.66062 0.0
H261 H 0.73418 0.00726 0.67958 0.0
H262 H 0.71341 0.99293 0.6851 0.0
O263 O 0.7164 0.02669 0.61499 0.0
O264 O 0.69256 0.04763 0.61352 0.0
H265 H 0.65622 0.04684 0.65764 0.0
H266 H 0.65454 0.04151 0.68299 0.0
C267 C 0.66331 0.04853 0.67176 0.0
H268 H 0.66419 0.06402 0.67496 0.0
H269 H 0.65794 0.06522 0.61569 0.0
O270 O 0.7491 0.01466 0.64375 0.0
C271 C 0.70183 0.03362 0.60649 0.0
Co272 Co 0.37709 0.29135 0.03506 0.0
Co273 Co 0.37995 0.32544 0.06379 0.0
C274 C 0.38529 0.28474 0.07671 0.0
O275 O 0.38231 0.27845 0.05986 0.0
O276 O 0.38407 0.30257 0.08039 0.0
C277 C 0.36275 0.25603 0.01874 0.0
O278 O 0.3571 0.25179 0.03617 0.0
C279 C 0.36891 0.35141 0.09515 0.0
C280 C 0.3885 0.37572 0.08998 0.0
C281 C 0.37421 0.36928 0.10213 0.0
N282 N 0.37954 0.34762 0.07955 0.0
N283 N 0.39127 0.36216 0.07661 0.0
C284 C 0.35467 0.33774 0.10347 0.0
H285 H 0.35837 0.3228 0.09955 0.0
H286 H 0.34028 0.3409 0.09755 0.0
H287 H 0.35406 0.33922 0.11929 0.0
C288 C 0.3434 0.31314 0.02231 0.0
N289 N 0.35693 0.30959 0.03561 0.0
N290 N 0.35815 0.32427 0.04734 0.0
C291 C 0.34552 0.33779 0.04168 0.0
C292 C 0.33568 0.33119 0.02562 0.0
C293 C 0.34076 0.30114 0.00471 0.0
H294 H 0.3547 0.29961 0.99725 0.0
H295 H 0.33584 0.28666 0.00897 0.0
H296 H 0.33025 0.3074 0.99462 0.0
O297 O 0.40115 0.30407 0.02703 0.0
O298 O 0.40305 0.32795 0.0479 0.0
H299 H 0.35863 0.36473 0.04799 0.0
H300 H 0.33313 0.36622 0.04332 0.0
C301 C 0.34462 0.35752 0.05 0.0
H302 H 0.34183 0.35654 0.06557 0.0
H303 H 0.40119 0.36284 0.06546 0.0
O304 O 0.37144 0.2717 0.01566 0.0
C305 C 0.40983 0.3186 0.03382 0.0
Co306 Co 0.37765 0.72762 0.9803 0.0
Co307 Co 0.38135 0.69196 0.95374 0.0
C308 C 0.38668 0.73233 0.93892 0.0
O309 O 0.38298 0.73964 0.9552 0.0
O310 O 0.38591 0.71427 0.93638 0.0
C311 C 0.36428 0.76382 0.99571 0.0
O312 O 0.35977 0.76832 0.97802 0.0
C313 C 0.36811 0.66496 0.92462 0.0
C314 C 0.38939 0.64168 0.92726 0.0
C315 C 0.3732 0.64719 0.91719 0.0
N316 N 0.38061 0.66952 0.93848 0.0
N317 N 0.39336 0.65562 0.93993 0.0
C318 C 0.35236 0.678 0.91822 0.0
H319 H 0.356 0.6931 0.92158 0.0
H320 H 0.33903 0.67437 0.92605 0.0
H321 H 0.34973 0.6764 0.90263 0.0
C322 C 0.34353 0.70675 0.99325 0.0
N323 N 0.35744 0.70943 0.98015 0.0
N324 N 0.35948 0.69372 0.96999 0.0
C325 C 0.34741 0.68022 0.97684 0.0
C326 C 0.33688 0.68802 0.99194 0.0
C327 C 0.33782 0.72145 0.00776 0.0
H328 H 0.33597 0.7355 0.00062 0.0
H329 H 0.32418 0.71757 0.01493 0.0
H330 H 0.34928 0.72285 0.01867 0.0
O331 O 0.40184 0.71514 0.98891 0.0
O332 O 0.4041 0.68982 0.96984 0.0
H333 H 0.34225 0.65012 0.98268 0.0
H334 H 0.34131 0.65705 0.95784 0.0
C335 C 0.34878 0.65946 0.97164 0.0
H336 H 0.364 0.65534 0.9698 0.0
H337 H 0.40475 0.65562 0.9496 0.0
O338 O 0.37197 0.74772 0.99922 0.0
C339 C 0.41066 0.70017 0.98328 0.0
Co340 Co 0.63902 0.29175 0.98258 0.0
Co341 Co 0.6365 0.32612 0.95416 0.0
C342 C 0.63117 0.28552 0.94079 0.0
O343 O 0.63394 0.27905 0.95761 0.0
O344 O 0.63252 0.30338 0.93732 0.0
C345 C 0.65304 0.25621 0.99871 0.0
O346 O 0.6587 0.25202 0.98127 0.0
C347 C 0.64797 0.35221 0.92309 0.0
C348 C 0.62809 0.37637 0.92785 0.0
C349 C 0.64262 0.37 0.91596 0.0
N350 N 0.63713 0.34838 0.93853 0.0
N351 N 0.62524 0.36285 0.94124 0.0
C352 C 0.66243 0.33862 0.91501 0.0
H353 H 0.65893 0.32369 0.91912 0.0
H354 H 0.67675 0.34207 0.92095 0.0
H355 H 0.66309 0.3399 0.89918 0.0
C356 C 0.6725 0.31346 0.996 0.0
N357 N 0.65919 0.30999 0.98245 0.0
N358 N 0.65809 0.3248 0.97087 0.0
C359 C 0.67058 0.33831 0.97687 0.0
C360 C 0.68019 0.33158 0.99302 0.0
C361 C 0.67491 0.30129 0.0135 0.0
H362 H 0.66089 0.29973 0.0208 0.0
H363 H 0.67984 0.28683 0.00916 0.0
H364 H 0.68533 0.30742 0.02378 0.0
O365 O 0.61491 0.30444 0.99047 0.0
O366 O 0.6132 0.32852 0.9698 0.0
H367 H 0.65745 0.36527 0.9707 0.0
H368 H 0.68288 0.36679 0.97571 0.0
C369 C 0.67151 0.35813 0.96878 0.0
H370 H 0.67449 0.35732 0.95324 0.0
H371 H 0.61511 0.36347 0.9522 0.0
O372 O 0.64445 0.27193 0.00187 0.0
C373 C 0.60628 0.31904 0.98373 0.0
Co374 Co 0.64054 0.72661 0.03441 0.0
Co375 Co 0.63739 0.69201 0.06249 0.0
C376 C 0.63181 0.73255 0.07602 0.0
O377 O 0.63513 0.73919 0.05936 0.0
O378 O 0.63296 0.71464 0.07935 0.0
C379 C 0.65529 0.76192 0.01829 0.0
O380 O 0.66116 0.766 0.03569 0.0
C381 C 0.64866 0.66554 0.09326 0.0
C382 C 0.62935 0.6411 0.08768 0.0
C383 C 0.64371 0.6474 0.09981 0.0
N384 N 0.63782 0.66957 0.07788 0.0
N385 N 0.62623 0.65497 0.07471 0.0
C386 C 0.66283 0.67921 0.10171 0.0
H387 H 0.65881 0.69418 0.09829 0.0
H388 H 0.67715 0.67648 0.09542 0.0
H389 H 0.66375 0.67731 0.11747 0.0
C390 C 0.67423 0.70491 0.02144 0.0
N391 N 0.66067 0.70834 0.03477 0.0
N392 N 0.65928 0.69343 0.04619 0.0
C393 C 0.67177 0.6799 0.04027 0.0
C394 C 0.68173 0.68672 0.02439 0.0
C395 C 0.6771 0.7172 0.0041 0.0
H396 H 0.68185 0.73165 0.00866 0.0
H397 H 0.68786 0.71116 0.99412 0.0
H398 H 0.66329 0.71874 0.9964 0.0
O399 O 0.61644 0.71407 0.02616 0.0
O400 O 0.6144 0.68976 0.04651 0.0
H401 H 0.65805 0.65313 0.04602 0.0
H402 H 0.68341 0.65111 0.04085 0.0
C403 C 0.67228 0.65991 0.04799 0.0
H404 H 0.67537 0.66037 0.06353 0.0
H405 H 0.61623 0.65442 0.06362 0.0
O406 O 0.64629 0.74642 0.01522 0.0
C407 C 0.60767 0.69945 0.03265 0.0
Co408 Co 0.53604 0.87665 0.78934 0.0
Co409 Co 0.56386 0.88005 0.82411 0.0
C410 C 0.5775 0.88612 0.78368 0.0
O411 O 0.56093 0.8826 0.77692 0.0
O412 O 0.58072 0.88496 0.8016 0.0
C413 C 0.52041 0.86305 0.7533 0.0
O414 O 0.53807 0.85844 0.74872 0.0
C415 C 0.59471 0.86894 0.8505 0.0
C416 C 0.58905 0.88816 0.875 0.0
C417 C 0.60126 0.87388 0.86863 0.0
N418 N 0.57925 0.87969 0.84653 0.0
N419 N 0.57603 0.89123 0.86117 0.0
C420 C 0.60323 0.85485 0.83678 0.0
H421 H 0.59983 0.85894 0.82182 0.0
H422 H 0.59696 0.8405 0.83942 0.0
H423 H 0.61898 0.85395 0.83871 0.0
C424 C 0.52355 0.84265 0.81069 0.0
N425 N 0.53675 0.85635 0.80738 0.0
N426 N 0.54805 0.85786 0.82237 0.0
C427 C 0.54215 0.84532 0.83586 0.0
C428 C 0.52641 0.83522 0.82893 0.0
C429 C 0.50629 0.83969 0.7983 0.0
H430 H 0.51099 0.83555 0.7837 0.0
H431 H 0.49663 0.82846 0.80398 0.0
H432 H 0.49822 0.85333 0.79719 0.0
O433 O 0.52718 0.90039 0.80218 0.0
O434 O 0.54728 0.90259 0.82668 0.0
H435 H 0.54739 0.85925 0.86264 0.0
H436 H 0.54252 0.83383 0.86471 0.0
C437 C 0.54962 0.84501 0.85594 0.0
H438 H 0.5652 0.8421 0.8557 0.0
H439 H 0.56488 0.90116 0.86176 0.0
O440 O 0.517 0.87083 0.76938 0.0
C441 C 0.53328 0.90907 0.81702 0.0
Co442 Co 0.4834 0.13777 0.7878 0.0
Co443 Co 0.45602 0.13713 0.82312 0.0
C444 C 0.44071 0.13183 0.78366 0.0
O445 O 0.45747 0.13366 0.77674 0.0
O446 O 0.43777 0.13369 0.80154 0.0
C447 C 0.50168 0.15703 0.75587 0.0
O448 O 0.49097 0.17187 0.76024 0.0
C449 C 0.42639 0.14879 0.8509 0.0
C450 C 0.43396 0.13059 0.87567 0.0
C451 C 0.42099 0.14428 0.86952 0.0
N452 N 0.44193 0.13835 0.84641 0.0
N453 N 0.4463 0.12744 0.86124 0.0
C454 C 0.41663 0.16217 0.8373 0.0
H455 H 0.41949 0.15795 0.82229 0.0
H456 H 0.42232 0.17685 0.83939 0.0
H457 H 0.40096 0.16242 0.83996 0.0
C458 C 0.50003 0.17011 0.80973 0.0
N459 N 0.48548 0.15788 0.80615 0.0
N460 N 0.47356 0.15806 0.82076 0.0
C461 C 0.48 0.1707 0.83391 0.0
C462 C 0.49699 0.17881 0.82736 0.0
C463 C 0.51843 0.17038 0.79867 0.0
H464 H 0.51737 0.18113 0.78704 0.0
H465 H 0.53072 0.17434 0.80792 0.0
H466 H 0.52127 0.15612 0.79232 0.0
O467 O 0.49094 0.11349 0.80013 0.0
O468 O 0.47082 0.11313 0.82475 0.0
H469 H 0.4777 0.18568 0.86098 0.0
H470 H 0.45567 0.17603 0.8517 0.0
C471 C 0.47122 0.1734 0.85326 0.0
H472 H 0.47319 0.16017 0.86183 0.0
H473 H 0.45773 0.11783 0.86152 0.0
O474 O 0.50066 0.14184 0.76582 0.0
C475 C 0.48414 0.10541 0.81499 0.0
Co476 Co 0.53369 0.13889 0.23016 0.0
Co477 Co 0.56102 0.13741 0.1948 0.0
C478 C 0.57623 0.13177 0.23419 0.0
O479 O 0.55954 0.1342 0.24108 0.0
O480 O 0.57923 0.13342 0.2163 0.0
C481 C 0.51555 0.15883 0.26201 0.0
O482 O 0.52534 0.17404 0.25688 0.0
C483 C 0.59073 0.14855 0.16695 0.0
C484 C 0.58293 0.13037 0.14224 0.0
C485 C 0.59602 0.14397 0.14831 0.0
N486 N 0.57512 0.13824 0.17151 0.0
N487 N 0.57063 0.12732 0.15672 0.0
C488 C 0.60062 0.16188 0.1805 0.0
H489 H 0.59789 0.1576 0.19553 0.0
H490 H 0.59491 0.17657 0.17854 0.0
H491 H 0.61627 0.16212 0.1777 0.0
C492 C 0.51752 0.17114 0.2079 0.0
N493 N 0.53201 0.15891 0.21173 0.0
N494 N 0.54399 0.15879 0.19716 0.0
C495 C 0.53766 0.17127 0.18381 0.0
C496 C 0.52068 0.17955 0.19016 0.0
C497 C 0.49897 0.17145 0.2187 0.0
H498 H 0.49635 0.15743 0.22564 0.0
H499 H 0.49959 0.18275 0.22984 0.0
H500 H 0.48673 0.17473 0.20911 0.0
O501 O 0.52553 0.11474 0.21795 0.0
O502 O 0.54554 0.11385 0.19325 0.0
H503 H 0.54426 0.16006 0.1561 0.0
H504 H 0.53989 0.1856 0.15639 0.0
C505 C 0.54635 0.17347 0.16435 0.0
H506 H 0.56192 0.17605 0.16577 0.0
H507 H 0.55911 0.11781 0.15649 0.0
O508 O 0.51692 0.14341 0.25245 0.0
C509 C 0.53207 0.10647 0.20306 0.0
Co510 Co 0.48137 0.87652 0.22658 0.0
Co511 Co 0.45356 0.87986 0.1918 0.0
C512 C 0.4395 0.88442 0.23224 0.0
O513 O 0.45618 0.88144 0.239 0.0
O514 O 0.43638 0.88347 0.21429 0.0
C515 C 0.49756 0.86159 0.26191 0.0
O516 O 0.48022 0.85561 0.26607 0.0
C517 C 0.42301 0.86921 0.1648 0.0
C518 C 0.42919 0.88872 0.14066 0.0
C519 C 0.41677 0.87446 0.14664 0.0
N520 N 0.43849 0.87978 0.16916 0.0
N521 N 0.44201 0.89149 0.15473 0.0
C522 C 0.41419 0.85497 0.17816 0.0
H523 H 0.41739 0.85879 0.19323 0.0
H524 H 0.4204 0.84062 0.17538 0.0
H525 H 0.39846 0.85422 0.17599 0.0
C526 C 0.49502 0.84342 0.20434 0.0
N527 N 0.48145 0.8567 0.20793 0.0
N528 N 0.47006 0.85813 0.193 0.0
C529 C 0.47619 0.84591 0.17932 0.0
C530 C 0.49224 0.83613 0.18602 0.0
C531 C 0.51239 0.84072 0.21663 0.0
H532 H 0.50789 0.83557 0.23096 0.0
H533 H 0.52266 0.83033 0.21042 0.0
H534 H 0.51975 0.85467 0.21849 0.0
O535 O 0.48959 0.90082 0.2145 0.0
O536 O 0.46939 0.90303 0.19009 0.0
H537 H 0.47056 0.8596 0.15252 0.0
H538 H 0.47535 0.83416 0.15059 0.0
C539 C 0.46839 0.84543 0.15937 0.0
H540 H 0.45281 0.84257 0.15988 0.0
H541 H 0.45324 0.90134 0.15445 0.0
O542 O 0.5005 0.87066 0.24642 0.0
C543 C 0.48317 0.90971 0.19993 0.0
Co544 Co 0.78751 0.533 0.87891 0.0
Co545 Co 0.82368 0.5591 0.88104 0.0
C546 C 0.78509 0.57596 0.88563 0.0
O547 O 0.77781 0.55938 0.88351 0.0
O548 O 0.80307 0.57853 0.88395 0.0
C549 C 0.75544 0.51649 0.85804 0.0
O550 O 0.76103 0.52673 0.8433 0.0
C551 C 0.85398 0.58717 0.87219 0.0
C552 C 0.87749 0.5762 0.89032 0.0
C553 C 0.87292 0.5906 0.87744 0.0
N554 N 0.84787 0.57149 0.88154 0.0
N555 N 0.86193 0.56513 0.89246 0.0
C556 C 0.84217 0.5975 0.85763 0.0
H557 H 0.8299 0.58849 0.85303 0.0
H558 H 0.85103 0.60137 0.84502 0.0
H559 H 0.83642 0.61084 0.86407 0.0
C560 C 0.80976 0.5162 0.84689 0.0
N561 N 0.80636 0.53061 0.85933 0.0
N562 N 0.82129 0.54212 0.85966 0.0
C563 C 0.83448 0.53557 0.84711 0.0
C564 C 0.82762 0.51891 0.83857 0.0
C565 C 0.79819 0.49814 0.84606 0.0
H566 H 0.79099 0.49553 0.85995 0.0
H567 H 0.78722 0.49948 0.83467 0.0
H568 H 0.80731 0.48559 0.84262 0.0
O569 O 0.79856 0.52412 0.90335 0.0
O570 O 0.82344 0.5438 0.90471 0.0
H571 H 0.86256 0.54119 0.85791 0.0
H572 H 0.8616 0.53779 0.83224 0.0
C573 C 0.85405 0.54396 0.84479 0.0
H574 H 0.85288 0.55965 0.84284 0.0
H575 H 0.86098 0.55307 0.90123 0.0
O576 O 0.76478 0.51712 0.87364 0.0
C577 C 0.81327 0.53056 0.91198 0.0
Co578 Co 0.22283 0.48163 0.8783 0.0
Co579 Co 0.1885 0.45324 0.88076 0.0
C580 C 0.22904 0.4402 0.88749 0.0
O581 O 0.2356 0.45691 0.88425 0.0
O582 O 0.21121 0.4367 0.88591 0.0
C583 C 0.25808 0.49808 0.86392 0.0
O584 O 0.26208 0.48084 0.85756 0.0
C585 C 0.16286 0.4221 0.86876 0.0
C586 C 0.13802 0.42691 0.88779 0.0
C587 C 0.14482 0.41508 0.87339 0.0
N588 N 0.16638 0.43745 0.87982 0.0
N589 N 0.15154 0.44016 0.89125 0.0
C590 C 0.17692 0.41411 0.8547 0.0
H591 H 0.19175 0.41777 0.85902 0.0
H592 H 0.1743 0.42054 0.84043 0.0
H593 H 0.17534 0.39833 0.85354 0.0
C594 C 0.20181 0.49428 0.84411 0.0
N595 N 0.20513 0.48093 0.85767 0.0
N596 N 0.1903 0.46938 0.85879 0.0
C597 C 0.17691 0.47524 0.84612 0.0
C598 C 0.18375 0.49122 0.83633 0.0
C599 C 0.21392 0.5118 0.84159 0.0
H600 H 0.21513 0.51942 0.85547 0.0
H601 H 0.2285 0.50745 0.83704 0.0
H602 H 0.20795 0.52178 0.83079 0.0
O603 O 0.20946 0.49 0.90191 0.0
O604 O 0.18527 0.46946 0.90347 0.0
H605 H 0.15004 0.46936 0.8596 0.0
H606 H 0.14821 0.47466 0.83426 0.0
C607 C 0.15694 0.46748 0.84542 0.0
H608 H 0.15746 0.45196 0.84224 0.0
H609 H 0.15061 0.45111 0.90137 0.0
O610 O 0.2426 0.50097 0.87302 0.0
C611 C 0.19459 0.48353 0.91028 0.0
Co612 Co 0.79079 0.48167 0.14241 0.0
Co613 Co 0.82545 0.45371 0.13879 0.0
C614 C 0.78489 0.44021 0.13304 0.0
O615 O 0.77817 0.45679 0.13659 0.0
O616 O 0.8028 0.43694 0.13422 0.0
C617 C 0.75531 0.49788 0.15695 0.0
O618 O 0.75091 0.48046 0.16249 0.0
C619 C 0.85183 0.42253 0.14926 0.0
C620 C 0.87554 0.42759 0.12891 0.0
C621 C 0.86948 0.41545 0.14337 0.0
N622 N 0.84779 0.43816 0.13878 0.0
N623 N 0.86199 0.44106 0.12662 0.0
C624 C 0.83854 0.41421 0.16385 0.0
H625 H 0.82356 0.41848 0.16079 0.0
H626 H 0.84237 0.41982 0.17821 0.0
H627 H 0.83977 0.39836 0.16414 0.0
C628 C 0.81272 0.49445 0.17599 0.0
N629 N 0.80919 0.48113 0.16245 0.0
N630 N 0.82414 0.46979 0.16084 0.0
C631 C 0.83781 0.47575 0.17316 0.0
C632 C 0.83105 0.4916 0.18324 0.0
C633 C 0.80039 0.51176 0.17898 0.0
H634 H 0.79886 0.51956 0.16523 0.0
H635 H 0.78594 0.50713 0.18366 0.0
H636 H 0.80638 0.52167 0.18983 0.0
O637 O 0.80325 0.49024 0.11841 0.0
O638 O 0.82764 0.47001 0.11601 0.0
H639 H 0.86449 0.47039 0.15912 0.0
H640 H 0.86668 0.47506 0.18457 0.0
C641 C 0.85783 0.4681 0.17336 0.0
H642 H 0.85746 0.45249 0.17611 0.0
H643 H 0.86239 0.45218 0.11666 0.0
O644 O 0.77103 0.50089 0.14831 0.0
C645 C 0.81788 0.48395 0.10952 0.0
Co646 Co 0.22773 0.53345 0.13721 0.0
Co647 Co 0.19283 0.56141 0.13658 0.0
C648 C 0.23211 0.57582 0.12892 0.0
O649 O 0.23863 0.55896 0.13119 0.0
O650 O 0.21442 0.57938 0.13154 0.0
C651 C 0.2602 0.51653 0.15658 0.0
O652 O 0.256 0.52801 0.17088 0.0
C653 C 0.16507 0.59154 0.14733 0.0
C654 C 0.14012 0.58295 0.12985 0.0
C655 C 0.14638 0.59665 0.14276 0.0
N656 N 0.16952 0.5755 0.13763 0.0
N657 N 0.15456 0.57052 0.12717 0.0
C658 C 0.17881 0.60202 0.16001 0.0
H659 H 0.19378 0.59884 0.15583 0.0
H660 H 0.1768 0.59721 0.17501 0.0
H661 H 0.17619 0.61769 0.15935 0.0
C662 C 0.20691 0.51874 0.17096 0.0
N663 N 0.21022 0.53276 0.15807 0.0
N664 N 0.19573 0.54483 0.15821 0.0
C665 C 0.18288 0.53896 0.17143 0.0
C666 C 0.18956 0.52227 0.18002 0.0
C667 C 0.21775 0.50021 0.17152 0.0
H668 H 0.22981 0.50154 0.18176 0.0
H669 H 0.20854 0.48819 0.17631 0.0
H670 H 0.22352 0.49676 0.15715 0.0
O671 O 0.21446 0.52461 0.11389 0.0
O672 O 0.19042 0.5454 0.11345 0.0
H673 H 0.15482 0.54519 0.16091 0.0
H674 H 0.15593 0.54152 0.18654 0.0
C675 C 0.16348 0.54768 0.17399 0.0
H676 H 0.16494 0.56333 0.17607 0.0
H677 H 0.15419 0.55861 0.11816 0.0
O678 O 0.2499 0.51654 0.14159 0.0
C679 C 0.19948 0.53144 0.10604 0.0
Co680 Co 0.87771 0.78292 0.53437 0.0
Co681 Co 0.88337 0.82109 0.55699 0.0
C682 C 0.88386 0.78333 0.57709 0.0
O683 O 0.8804 0.77466 0.56143 0.0
O684 O 0.88468 0.80154 0.5777 0.0
C685 C 0.85598 0.75063 0.5181 0.0
O686 O 0.84075 0.75668 0.52732 0.0
C687 C 0.87561 0.85281 0.58344 0.0
C688 C 0.89421 0.87552 0.57162 0.0
C689 C 0.88109 0.87179 0.58604 0.0
N690 N 0.88503 0.84582 0.5682 0.0
N691 N 0.89629 0.85938 0.56134 0.0
C692 C 0.8605 0.84186 0.59396 0.0
H693 H 0.85557 0.82948 0.58528 0.0
H694 H 0.84816 0.85127 0.59738 0.0
H695 H 0.86657 0.83634 0.60756 0.0
C696 C 0.84774 0.80658 0.5154 0.0
N697 N 0.86007 0.80331 0.52994 0.0
N698 N 0.86185 0.81907 0.54014 0.0
C699 C 0.85033 0.83269 0.53267 0.0
C700 C 0.84102 0.82528 0.51669 0.0
C701 C 0.84544 0.79359 0.49848 0.0
H702 H 0.85866 0.78514 0.49615 0.0
H703 H 0.83332 0.78368 0.50113 0.0
H704 H 0.84227 0.80182 0.48527 0.0
O705 O 0.90344 0.79094 0.52612 0.0
O706 O 0.90711 0.81829 0.54191 0.0
H707 H 0.86314 0.86023 0.53647 0.0
H708 H 0.83746 0.86092 0.5331 0.0
C709 C 0.84944 0.8529 0.53975 0.0
H710 H 0.8474 0.85291 0.55547 0.0
H711 H 0.90513 0.85772 0.54941 0.0
O712 O 0.87166 0.75978 0.51932 0.0
C713 C 0.91338 0.80558 0.53047 0.0
Co714 Co 0.88064 0.22897 0.48053 0.0
Co715 Co 0.88313 0.19276 0.45446 0.0
C716 C 0.88566 0.23147 0.43739 0.0
O717 O 0.88386 0.23875 0.45401 0.0
O718 O 0.88466 0.21343 0.43494 0.0
C719 C 0.85958 0.26066 0.49754 0.0
O720 O 0.8448 0.25492 0.48741 0.0
C721 C 0.87388 0.16226 0.42683 0.0
C722 C 0.89263 0.13897 0.43721 0.0
C723 C 0.87913 0.14334 0.42334 0.0
N724 N 0.8838 0.16856 0.44206 0.0
N725 N 0.89513 0.15465 0.44805 0.0
C726 C 0.85869 0.17381 0.4171 0.0
H727 H 0.85435 0.18609 0.42623 0.0
H728 H 0.84604 0.16476 0.41388 0.0
H729 H 0.86444 0.17953 0.40344 0.0
C730 C 0.84964 0.20599 0.4982 0.0
N731 N 0.86174 0.20958 0.48355 0.0
N732 N 0.86222 0.19459 0.47212 0.0
C733 C 0.8501 0.18115 0.47897 0.0
C734 C 0.8417 0.18793 0.49573 0.0
C735 C 0.84878 0.21772 0.51615 0.0
H736 H 0.86257 0.22518 0.51857 0.0
H737 H 0.83719 0.2285 0.5148 0.0
H738 H 0.84561 0.20867 0.52882 0.0
O739 O 0.9057 0.21866 0.48852 0.0
O740 O 0.90731 0.1937 0.46894 0.0
H741 H 0.86137 0.15334 0.47292 0.0
H742 H 0.83581 0.15368 0.4772 0.0
C743 C 0.84795 0.16153 0.47063 0.0
H744 H 0.84541 0.16267 0.45503 0.0
H745 H 0.90433 0.15575 0.45976 0.0
O746 O 0.8753 0.25153 0.49665 0.0
C747 C 0.91462 0.20421 0.4819 0.0
Co748 Co 0.14807 0.78602 0.47665 0.0
Co749 Co 0.13843 0.82418 0.45547 0.0
C750 C 0.13623 0.78586 0.43555 0.0
O751 O 0.1424 0.77708 0.45029 0.0
O752 O 0.13464 0.80405 0.4355 0.0
C753 C 0.14645 0.74913 0.49196 0.0
O754 O 0.13147 0.74858 0.48059 0.0
C755 C 0.14448 0.85578 0.42851 0.0
C756 C 0.12416 0.87743 0.43947 0.0
C757 C 0.13779 0.87429 0.42537 0.0
N758 N 0.13524 0.84851 0.44373 0.0
N759 N 0.12297 0.86143 0.45008 0.0
C760 C 0.16046 0.84561 0.41851 0.0
H761 H 0.16585 0.83361 0.42745 0.0
H762 H 0.17232 0.85569 0.4153 0.0
H763 H 0.15508 0.83961 0.40482 0.0
C764 C 0.17937 0.80969 0.49173 0.0
N765 N 0.16571 0.80659 0.47845 0.0
N766 N 0.16174 0.82278 0.46968 0.0
C767 C 0.17274 0.83677 0.47724 0.0
C768 C 0.18425 0.82901 0.49158 0.0
C769 C 0.18452 0.79532 0.50678 0.0
H770 H 0.17154 0.79169 0.51521 0.0
H771 H 0.18965 0.782 0.49979 0.0
H772 H 0.19573 0.80068 0.51665 0.0
O773 O 0.12327 0.79382 0.48793 0.0
O774 O 0.11699 0.82144 0.47347 0.0
H775 H 0.15578 0.86227 0.47669 0.0
H776 H 0.18114 0.86652 0.48019 0.0
C777 C 0.17041 0.85757 0.47264 0.0
H778 H 0.17214 0.85972 0.45703 0.0
H779 H 0.11403 0.85944 0.46188 0.0
O780 O 0.15681 0.76406 0.49209 0.0
C781 C 0.11259 0.80837 0.48536 0.0
Co782 Co 0.14431 0.23077 0.53386 0.0
Co783 Co 0.14089 0.19538 0.56095 0.0
C784 C 0.13434 0.23547 0.57535 0.0
O785 O 0.13795 0.24261 0.55897 0.0
O786 O 0.13575 0.21751 0.57823 0.0
C787 C 0.15652 0.26771 0.51901 0.0
O788 O 0.16008 0.27246 0.53686 0.0
C789 C 0.15142 0.16829 0.59152 0.0
C790 C 0.13156 0.1444 0.58549 0.0
C791 C 0.14576 0.15034 0.59798 0.0
N792 N 0.14106 0.17263 0.57589 0.0
N793 N 0.12919 0.15832 0.57241 0.0
C794 C 0.1657 0.18156 0.60041 0.0
H795 H 0.16243 0.19661 0.59655 0.0
H796 H 0.18018 0.17813 0.59486 0.0
H797 H 0.16582 0.17987 0.61621 0.0
C798 C 0.17824 0.20961 0.52089 0.0
N799 N 0.16463 0.2127 0.53424 0.0
N800 N 0.16312 0.19747 0.54521 0.0
C801 C 0.1756 0.18407 0.53898 0.0
C802 C 0.18563 0.19128 0.52331 0.0
C803 C 0.18109 0.22237 0.50388 0.0
H804 H 0.185 0.23693 0.50886 0.0
H805 H 0.19242 0.21701 0.49414 0.0
H806 H 0.16746 0.22345 0.49579 0.0
O807 O 0.12067 0.21811 0.52464 0.0
O808 O 0.11837 0.19323 0.54426 0.0
H809 H 0.1618 0.1571 0.54345 0.0
H810 H 0.18733 0.15532 0.53909 0.0
C811 C 0.17593 0.16387 0.54611 0.0
H812 H 0.17847 0.16386 0.56176 0.0
H813 H 0.11937 0.15808 0.56115 0.0
O814 O 0.14998 0.25117 0.51522 0.0
C815 C 0.11194 0.20319 0.53045 0.0
C816 C 0.11344 0.38095 0.3969 0.0
C817 C 0.10573 0.36921 0.38248 0.0
C818 C 0.12558 0.3733 0.41083 0.0
C819 C 0.15403 0.33027 0.42378 0.0
H820 H 0.13639 0.34119 0.47529 0.0
C821 C 0.15688 0.27574 0.48425 0.0
C822 C 0.15869 0.28176 0.50335 0.0
C823 C 0.15657 0.28906 0.46941 0.0
C824 C 0.14192 0.3383 0.46109 0.0
H825 H 0.10465 0.34014 0.37156 0.0
H826 H 0.12599 0.32691 0.39553 0.0
H827 H 0.12455 0.36022 0.44869 0.0
H828 H 0.16286 0.30639 0.52181 0.0
H829 H 0.16232 0.32979 0.49574 0.0
H830 H 0.17076 0.30777 0.43615 0.0
C831 C 0.12307 0.34215 0.39581 0.0
C832 C 0.13509 0.34922 0.44581 0.0
C833 C 0.11087 0.34978 0.38195 0.0
C834 C 0.1613 0.30133 0.50723 0.0
C835 C 0.16093 0.31472 0.49233 0.0
C836 C 0.16092 0.3194 0.43908 0.0
C837 C 0.13021 0.35373 0.41064 0.0
C838 C 0.14049 0.34482 0.42693 0.0
C839 C 0.15806 0.30875 0.4733 0.0
C840 C 0.15432 0.32279 0.4578 0.0
H841 H 0.10969 0.39598 0.39768 0.0
H842 H 0.13094 0.38258 0.42204 0.0
H843 H 0.15869 0.32679 0.4094 0.0
H844 H 0.15503 0.26074 0.48075 0.0
H845 H 0.15409 0.28395 0.45498 0.0
C846 C 0.89489 0.63753 0.39437 0.0
C847 C 0.90519 0.64976 0.38218 0.0
C848 C 0.88228 0.64501 0.40798 0.0
C849 C 0.85877 0.68998 0.42477 0.0
H850 H 0.87065 0.6699 0.47515 0.0
C851 C 0.83847 0.73037 0.49418 0.0
C852 C 0.855 0.73414 0.50501 0.0
C853 C 0.83888 0.71647 0.47971 0.0
C854 C 0.86692 0.67548 0.46116 0.0
H855 H 0.91013 0.67944 0.37453 0.0
H856 H 0.88823 0.69248 0.39815 0.0
H857 H 0.88138 0.65269 0.44683 0.0
H858 H 0.8844 0.7257 0.51017 0.0
H859 H 0.88501 0.70133 0.48534 0.0
H860 H 0.8455 0.71352 0.43931 0.0
C861 C 0.88944 0.67707 0.3969 0.0
C862 C 0.87294 0.66556 0.4449 0.0
C863 C 0.90202 0.66958 0.38328 0.0
C864 C 0.87149 0.7231 0.50197 0.0
C865 C 0.87178 0.70904 0.48785 0.0
C866 C 0.85269 0.69989 0.44108 0.0
C867 C 0.87986 0.66491 0.40979 0.0
C868 C 0.86967 0.67313 0.42654 0.0
C869 C 0.85567 0.7059 0.47624 0.0
C870 C 0.85749 0.69315 0.45941 0.0
H871 H 0.89704 0.62218 0.39379 0.0
H872 H 0.87496 0.63526 0.41756 0.0
H873 H 0.85579 0.69602 0.4108 0.0
H874 H 0.82562 0.73882 0.49622 0.0
H875 H 0.82628 0.71432 0.47092 0.0
C876 C 0.10813 0.67335 0.63433 0.0
C877 C 0.10709 0.6534 0.63628 0.0
C878 C 0.11944 0.6815 0.62001 0.0
C879 C 0.1378 0.6689 0.57234 0.0
H880 H 0.15694 0.72092 0.57463 0.0
C881 C 0.16401 0.73559 0.5202 0.0
C882 C 0.1493 0.73406 0.50653 0.0
C883 C 0.16477 0.72297 0.53573 0.0
C884 C 0.1521 0.70622 0.57373 0.0
H885 H 0.11781 0.62631 0.62569 0.0
H886 H 0.13814 0.64051 0.60106 0.0
H887 H 0.14872 0.70434 0.60411 0.0
H888 H 0.12467 0.71733 0.49773 0.0
H889 H 0.1257 0.69571 0.52484 0.0
H890 H 0.14112 0.67079 0.54198 0.0
C891 C 0.1299 0.6499 0.61024 0.0
C892 C 0.14711 0.6968 0.59065 0.0
C893 C 0.11837 0.64176 0.6244 0.0
C894 C 0.13614 0.71895 0.50804 0.0
C895 C 0.13684 0.70642 0.52356 0.0
C896 C 0.14299 0.67823 0.55546 0.0
C897 C 0.13004 0.66984 0.6074 0.0
C898 C 0.13912 0.67833 0.5901 0.0
C899 C 0.15083 0.70861 0.5379 0.0
C900 C 0.14939 0.6973 0.55587 0.0
H901 H 0.0992 0.68264 0.64294 0.0
H902 H 0.11885 0.69687 0.61808 0.0
H903 H 0.13164 0.65472 0.57125 0.0
H904 H 0.17448 0.747 0.51935 0.0
H905 H 0.17592 0.72485 0.54634 0.0
C906 C 0.88882 0.37671 0.62139 0.0
C907 C 0.89941 0.36515 0.634 0.0
C908 C 0.87683 0.36844 0.60769 0.0
C909 C 0.85596 0.32231 0.59079 0.0
H910 H 0.87034 0.34143 0.54067 0.0
C911 C 0.84063 0.28067 0.52053 0.0
C912 C 0.85792 0.27678 0.511 0.0
C913 C 0.83999 0.29458 0.53498 0.0
C914 C 0.86589 0.33613 0.55456 0.0
H915 H 0.90529 0.33586 0.64245 0.0
H916 H 0.88442 0.32147 0.6187 0.0
H917 H 0.87863 0.35978 0.5691 0.0
H918 H 0.88774 0.28489 0.50823 0.0
H919 H 0.88654 0.30935 0.53301 0.0
H920 H 0.84437 0.29797 0.57609 0.0
C921 C 0.88498 0.33694 0.61966 0.0
C922 C 0.87051 0.34668 0.57086 0.0
C923 C 0.89695 0.34521 0.63336 0.0
C924 C 0.87425 0.28759 0.51542 0.0
C925 C 0.87352 0.30168 0.5295 0.0
C926 C 0.85123 0.31178 0.57442 0.0
C927 C 0.87532 0.34843 0.60624 0.0
C928 C 0.86634 0.33948 0.58919 0.0
C929 C 0.85652 0.30505 0.53968 0.0
C930 C 0.85694 0.31822 0.55625 0.0
H931 H 0.8904 0.39214 0.62161 0.0
H932 H 0.86942 0.37768 0.59767 0.0
H933 H 0.85238 0.31652 0.60472 0.0
H934 H 0.82788 0.27241 0.51742 0.0
H935 H 0.82674 0.29692 0.5427 0.0
C936 C 0.49084 0.17546 0.28198 0.0
C937 C 0.50248 0.15943 0.27847 0.0
C938 C 0.47683 0.17477 0.29633 0.0
C939 C 0.43982 0.15733 0.31472 0.0
H940 H 0.45072 0.1358 0.36473 0.0
C941 C 0.40568 0.09826 0.36678 0.0
C942 C 0.3863 0.10357 0.36757 0.0
C943 C 0.41936 0.11077 0.3595 0.0
C944 C 0.44741 0.14197 0.35089 0.0
H945 H 0.50949 0.13064 0.2876 0.0
H946 H 0.48558 0.12966 0.31298 0.0
H947 H 0.47687 0.14825 0.34517 0.0
H948 H 0.36635 0.12687 0.3625 0.0
H949 H 0.39032 0.14862 0.34915 0.0
H950 H 0.41058 0.14956 0.31971 0.0
C951 C 0.48707 0.14265 0.30463 0.0
C952 C 0.46235 0.14919 0.33979 0.0
C953 C 0.50063 0.14315 0.29005 0.0
C954 C 0.381 0.12201 0.36143 0.0
C955 C 0.39477 0.13458 0.354 0.0
C956 C 0.42485 0.14992 0.32577 0.0
C957 C 0.47478 0.15827 0.30765 0.0
C958 C 0.45878 0.15607 0.32127 0.0
C959 C 0.41408 0.12902 0.35289 0.0
C960 C 0.42868 0.14127 0.34354 0.0
H961 H 0.49197 0.18811 0.27308 0.0
H962 H 0.46738 0.18691 0.29836 0.0
H963 H 0.43676 0.16247 0.30041 0.0
H964 H 0.41029 0.08418 0.37137 0.0
H965 H 0.43403 0.10585 0.35847 0.0
C966 C 0.63619 0.89842 0.34463 0.0
C967 C 0.63596 0.90127 0.36452 0.0
C968 C 0.62272 0.88645 0.33599 0.0
C969 C 0.57346 0.87184 0.34343 0.0
H970 H 0.58198 0.84365 0.29637 0.0
C971 C 0.51066 0.85218 0.29405 0.0
C972 C 0.51373 0.85823 0.27511 0.0
C973 C 0.52604 0.8508 0.30683 0.0
C974 C 0.57937 0.85136 0.30958 0.0
H975 H 0.62209 0.89315 0.39107 0.0
H976 H 0.59852 0.8722 0.37593 0.0
H977 H 0.6093 0.85313 0.31603 0.0
H978 H 0.53541 0.86639 0.25438 0.0
H979 H 0.56199 0.86423 0.27657 0.0
H980 H 0.54368 0.87108 0.33648 0.0
C981 C 0.60908 0.87926 0.36704 0.0
C982 C 0.595 0.85677 0.32081 0.0
C983 C 0.62257 0.89122 0.37568 0.0
C984 C 0.53253 0.86188 0.26893 0.0
C985 C 0.54783 0.86041 0.28162 0.0
C986 C 0.55785 0.86646 0.33219 0.0
C987 C 0.60866 0.8772 0.34704 0.0
C988 C 0.59225 0.86775 0.33744 0.0
C989 C 0.54474 0.85528 0.30082 0.0
C990 C 0.5607 0.85688 0.31473 0.0
H991 H 0.64584 0.90639 0.33553 0.0
H992 H 0.62255 0.88549 0.32051 0.0
H993 H 0.57084 0.88044 0.35607 0.0
H994 H 0.49635 0.84915 0.29917 0.0
H995 H 0.52325 0.84668 0.32151 0.0
C996 C 0.48552 0.86241 0.74593 0.0
C997 C 0.5045 0.86008 0.7397 0.0
C998 C 0.47042 0.86164 0.73293 0.0
C999 C 0.46101 0.8725 0.68305 0.0
H1000 H 0.4097 0.85625 0.69676 0.0
C1001 C 0.39623 0.89914 0.64061 0.0
C1002 C 0.38213 0.90748 0.65229 0.0
C1003 C 0.41008 0.88704 0.64846 0.0
C1004 C 0.42396 0.86075 0.69266 0.0
H1005 H 0.52248 0.85394 0.71514 0.0
H1006 H 0.49594 0.85268 0.69227 0.0
H1007 H 0.43694 0.84561 0.71595 0.0
H1008 H 0.37146 0.90954 0.68138 0.0
H1009 H 0.39541 0.88841 0.69502 0.0
H1010 H 0.44804 0.88841 0.66041 0.0
C1011 C 0.49283 0.85525 0.70725 0.0
C1012 C 0.43954 0.85466 0.70363 0.0
C1013 C 0.508 0.85593 0.72033 0.0
C1014 C 0.38168 0.90289 0.67185 0.0
C1015 C 0.39551 0.89078 0.6797 0.0
C1016 C 0.44545 0.87854 0.67208 0.0
C1017 C 0.47392 0.85855 0.71337 0.0
C1018 C 0.45814 0.86114 0.69941 0.0
C1019 C 0.41017 0.88315 0.66819 0.0
C1020 C 0.42669 0.87337 0.67724 0.0
H1021 H 0.48231 0.86542 0.76081 0.0
H1022 H 0.45608 0.8645 0.73811 0.0
H1023 H 0.47511 0.8779 0.67951 0.0
H1024 H 0.3969 0.90244 0.62546 0.0
H1025 H 0.42111 0.88126 0.63921 0.0
C1026 C 0.52496 0.17538 0.73564 0.0
C1027 C 0.51579 0.15807 0.74025 0.0
C1028 C 0.53975 0.17565 0.72209 0.0
C1029 C 0.56012 0.14877 0.68186 0.0
H1030 H 0.61012 0.16364 0.70094 0.0
C1031 C 0.62692 0.12707 0.64082 0.0
C1032 C 0.63973 0.11661 0.65227 0.0
C1033 C 0.61319 0.13893 0.6492 0.0
C1034 C 0.59622 0.15969 0.6953 0.0
H1035 H 0.51414 0.12775 0.73386 0.0
H1036 H 0.53948 0.12831 0.70993 0.0
H1037 H 0.58138 0.17145 0.7195 0.0
H1038 H 0.64863 0.11094 0.68146 0.0
H1039 H 0.62478 0.13162 0.69607 0.0
H1040 H 0.57479 0.13597 0.65833 0.0
C1041 C 0.53542 0.14161 0.71682 0.0
C1042 C 0.5798 0.16429 0.70583 0.0
C1043 C 0.52102 0.14126 0.73059 0.0
C1044 C 0.63934 0.11916 0.6722 0.0
C1045 C 0.62559 0.13102 0.68059 0.0
C1046 C 0.57645 0.14433 0.67128 0.0
C1047 C 0.54513 0.15871 0.71266 0.0
C1048 C 0.56172 0.15813 0.69956 0.0
C1049 C 0.6119 0.14043 0.66921 0.0
C1050 C 0.59473 0.14905 0.67827 0.0
H1051 H 0.52123 0.1885 0.74303 0.0
H1052 H 0.54711 0.18897 0.71912 0.0
H1053 H 0.54629 0.14395 0.67673 0.0
H1054 H 0.62697 0.12542 0.6254 0.0
H1055 H 0.60296 0.14617 0.64006 0.0
C1056 C 0.28575 0.49721 0.14127 0.0
C1057 C 0.2762 0.5029 0.15799 0.0
C1058 C 0.29998 0.48328 0.14204 0.0
C1059 C 0.31249 0.44024 0.16607 0.0
H1060 H 0.35947 0.44561 0.13696 0.0
C1061 C 0.34588 0.38096 0.12081 0.0
C1062 C 0.36575 0.38077 0.11775 0.0
C1063 C 0.33766 0.39462 0.13289 0.0
C1064 C 0.34669 0.44387 0.14557 0.0
H1065 H 0.27406 0.49878 0.18867 0.0
H1066 H 0.29877 0.47367 0.1899 0.0
H1067 H 0.34059 0.47389 0.14459 0.0
H1068 H 0.39271 0.3938 0.12588 0.0
H1069 H 0.37833 0.41768 0.14699 0.0
H1070 H 0.31796 0.41003 0.16595 0.0
C1071 C 0.29538 0.48034 0.17631 0.0
C1072 C 0.33584 0.46007 0.14981 0.0
C1073 C 0.28136 0.49468 0.17561 0.0
C1074 C 0.37733 0.39369 0.12793 0.0
C1075 C 0.36912 0.40734 0.14 0.0
C1076 C 0.32328 0.42395 0.16167 0.0
C1077 C 0.30471 0.47451 0.15948 0.0
C1078 C 0.31828 0.4583 0.1594 0.0
C1079 C 0.34914 0.40843 0.14201 0.0
C1080 C 0.34009 0.42555 0.15071 0.0
H1081 H 0.28206 0.50338 0.12752 0.0
H1082 H 0.3068 0.47884 0.12882 0.0
H1083 H 0.29893 0.43854 0.17342 0.0
H1084 H 0.33649 0.37161 0.11281 0.0
H1085 H 0.3222 0.39528 0.13386 0.0
C1086 C 0.34326 0.63501 0.90157 0.0
C1087 C 0.36332 0.63522 0.9028 0.0
C1088 C 0.33399 0.62174 0.88987 0.0
C1089 C 0.34069 0.57324 0.87312 0.0
H1090 H 0.29239 0.58265 0.84742 0.0
C1091 C 0.29006 0.51119 0.85399 0.0
C1092 C 0.27136 0.51423 0.86076 0.0
C1093 C 0.30291 0.5265 0.85259 0.0
C1094 C 0.30593 0.5798 0.85444 0.0
H1095 H 0.38943 0.62212 0.89227 0.0
H1096 H 0.37316 0.59874 0.87193 0.0
H1097 H 0.31253 0.60965 0.85683 0.0
H1098 H 0.25111 0.53582 0.87029 0.0
H1099 H 0.27344 0.56226 0.86816 0.0
H1100 H 0.33361 0.5435 0.87186 0.0
C1101 C 0.36465 0.60893 0.87996 0.0
C1102 C 0.31744 0.59524 0.85979 0.0
C1103 C 0.37393 0.62229 0.8916 0.0
C1104 C 0.26548 0.53295 0.8652 0.0
C1105 C 0.27824 0.54819 0.86374 0.0
C1106 C 0.32915 0.5578 0.86784 0.0
C1107 C 0.34457 0.60824 0.87933 0.0
C1108 C 0.33455 0.59213 0.86987 0.0
C1109 C 0.29721 0.54511 0.8578 0.0
C1110 C 0.31126 0.56097 0.8592 0.0
H1111 H 0.33459 0.64421 0.9105 0.0
H1112 H 0.31849 0.62128 0.89003 0.0
H1113 H 0.35373 0.57038 0.88101 0.0
H1114 H 0.29495 0.49693 0.85033 0.0
H1115 H 0.31741 0.52373 0.84784 0.0
C1116 C 0.73517 0.49361 0.83924 0.0
C1117 C 0.73918 0.50319 0.85648 0.0
C1118 C 0.72117 0.47925 0.83872 0.0
C1119 C 0.67963 0.46003 0.8649 0.0
H1120 H 0.69915 0.40966 0.85199 0.0
C1121 C 0.67096 0.38183 0.89741 0.0
C1122 C 0.65107 0.38135 0.90024 0.0
C1123 C 0.67907 0.39525 0.88501 0.0
C1124 C 0.69338 0.42365 0.8554 0.0
H1125 H 0.7312 0.50615 0.88631 0.0
H1126 H 0.70657 0.48155 0.88531 0.0
H1127 H 0.71767 0.43816 0.84348 0.0
H1128 H 0.62397 0.39362 0.89143 0.0
H1129 H 0.63813 0.41704 0.86968 0.0
H1130 H 0.65607 0.44571 0.87801 0.0
C1131 C 0.71421 0.48495 0.87225 0.0
C1132 C 0.70389 0.43994 0.85038 0.0
C1133 C 0.7284 0.49893 0.87286 0.0
C1134 C 0.63937 0.39375 0.88957 0.0
C1135 C 0.64747 0.40715 0.87714 0.0
C1136 C 0.66911 0.44381 0.86982 0.0
C1137 C 0.71072 0.4747 0.85531 0.0
C1138 C 0.6975 0.4582 0.85589 0.0
C1139 C 0.66745 0.40852 0.87528 0.0
C1140 C 0.67629 0.42541 0.8659 0.0
H1141 H 0.74342 0.4966 0.82645 0.0
H1142 H 0.71875 0.47147 0.82553 0.0
H1143 H 0.67437 0.47399 0.8692 0.0
H1144 H 0.68041 0.37287 0.90578 0.0
H1145 H 0.69453 0.39614 0.88419 0.0
C1146 C 0.64135 0.62224 0.12499 0.0
C1147 C 0.65255 0.63566 0.11503 0.0
C1148 C 0.64994 0.60884 0.1371 0.0
C1149 C 0.69593 0.59515 0.16026 0.0
H1150 H 0.6808 0.54367 0.14599 0.0
C1151 C 0.74823 0.53285 0.15662 0.0
C1152 C 0.74203 0.51404 0.16012 0.0
C1153 C 0.73546 0.54813 0.15779 0.0
C1154 C 0.68494 0.55788 0.15061 0.0
H1155 H 0.68154 0.64568 0.1102 0.0
H1156 H 0.69646 0.62256 0.13136 0.0
H1157 H 0.66122 0.57066 0.13616 0.0
H1158 H 0.71782 0.49659 0.16868 0.0
H1159 H 0.69535 0.52344 0.17064 0.0
H1160 H 0.72021 0.58234 0.17389 0.0
C1161 C 0.68099 0.62264 0.13022 0.0
C1162 C 0.6737 0.5734 0.14495 0.0
C1163 C 0.67241 0.63601 0.1181 0.0
C1164 C 0.72297 0.51093 0.16576 0.0
C1165 C 0.71011 0.52627 0.16685 0.0
C1166 C 0.70716 0.57962 0.16596 0.0
C1167 C 0.66992 0.60855 0.13939 0.0
C1168 C 0.6795 0.59224 0.14904 0.0
C1169 C 0.71616 0.54498 0.16247 0.0
C1170 C 0.70221 0.56088 0.16048 0.0
H1171 H 0.62599 0.62166 0.1229 0.0
H1172 H 0.64103 0.59826 0.1441 0.0
H1173 H 0.70056 0.6095 0.1639 0.0
H1174 H 0.76288 0.53577 0.15243 0.0
H1175 H 0.74056 0.56229 0.15405 0.0
C1176 C 0.9968 0.70954 0.68898 0.0
C1177 C 0.00345 0.69206 0.68164 0.0
C1178 C 0.98209 0.71955 0.67971 0.0
C1179 C 0.94132 0.71258 0.64688 0.0
H1180 H 0.94625 0.76695 0.63699 0.0
C1181 C 0.89445 0.75223 0.59159 0.0
C1182 C 0.89112 0.772 0.59363 0.0
C1183 C 0.9057 0.74231 0.60487 0.0
C1184 C 0.94436 0.75186 0.63997 0.0
H1185 H 0.99971 0.671 0.65921 0.0
H1186 H 0.97405 0.68846 0.64291 0.0
H1187 H 0.97125 0.75029 0.6547 0.0
H1188 H 0.89559 0.79639 0.61236 0.0
H1189 H 0.9146 0.77893 0.63586 0.0
H1190 H 0.91444 0.71406 0.63227 0.0
C1191 C 0.98023 0.69453 0.65577 0.0
C1192 C 0.95881 0.74228 0.65005 0.0
C1193 C 0.99507 0.68465 0.66493 0.0
C1194 C 0.89795 0.78121 0.61021 0.0
C1195 C 0.9091 0.77122 0.62359 0.0
C1196 C 0.92677 0.72218 0.63698 0.0
C1197 C 0.97351 0.71207 0.66308 0.0
C1198 C 0.95762 0.72247 0.65334 0.0
C1199 C 0.91378 0.75181 0.6207 0.0
C1200 C 0.92821 0.74191 0.63308 0.0
H1201 H 0.00288 0.71537 0.70201 0.0
H1202 H 0.97713 0.73293 0.68578 0.0
H1203 H 0.93982 0.69736 0.64949 0.0
H1204 H 0.88946 0.7446 0.57905 0.0
H1205 H 0.90898 0.72743 0.60199 0.0
C1206 C 0.0118 0.30716 0.6786 0.0
C1207 C 0.00573 0.3253 0.67246 0.0
C1208 C 0.02669 0.29763 0.66911 0.0
C1209 C 0.06832 0.30677 0.63731 0.0
H1210 H 0.06631 0.25198 0.62874 0.0
C1211 C 0.11969 0.26666 0.58581 0.0
C1212 C 0.12473 0.24761 0.59004 0.0
C1213 C 0.10691 0.27673 0.59754 0.0
C1214 C 0.0673 0.26725 0.63129 0.0
H1215 H 0.01034 0.34773 0.65159 0.0
H1216 H 0.03603 0.33097 0.63468 0.0
H1217 H 0.03987 0.26788 0.645 0.0
H1218 H 0.12138 0.22482 0.6109 0.0
H1219 H 0.09947 0.24252 0.63151 0.0
H1220 H 0.09569 0.30615 0.62343 0.0
C1221 C 0.02948 0.32413 0.64695 0.0
C1222 C 0.05206 0.27639 0.64059 0.0
C1223 C 0.01459 0.33363 0.65645 0.0
C1224 C 0.11777 0.23941 0.60708 0.0
C1225 C 0.105 0.2495 0.61882 0.0
C1226 C 0.08357 0.29763 0.62802 0.0
C1227 C 0.0359 0.30609 0.65329 0.0
C1228 C 0.05229 0.2963 0.64362 0.0
C1229 C 0.09888 0.26805 0.61385 0.0
C1230 C 0.08323 0.27774 0.62479 0.0
H1231 H 0.00529 0.30055 0.69104 0.0
H1232 H 0.03135 0.28387 0.67453 0.0
H1233 H 0.06918 0.32207 0.6397 0.0
H1234 H 0.12472 0.27348 0.57282 0.0
H1235 H 0.10252 0.29096 0.59319 0.0
C1236 C 0.90067 0.23576 0.40489 0.0
C1237 C 0.89299 0.24388 0.42169 0.0
C1238 C 0.912 0.24677 0.39249 0.0
C1239 C 0.94438 0.28792 0.39537 0.0
H1240 H 0.94621 0.28468 0.34001 0.0
C1241 C 0.99619 0.33488 0.35153 0.0
C1242 C 0.00478 0.32691 0.33521 0.0
C1243 C 0.9816 0.32511 0.36115 0.0
C1244 C 0.94606 0.28557 0.35548 0.0
H1245 H 0.88971 0.27044 0.4375 0.0
H1246 H 0.90923 0.28953 0.41585 0.0
H1247 H 0.92128 0.26746 0.35759 0.0
H1248 H 0.00473 0.30271 0.31591 0.0
H1249 H 0.9796 0.28523 0.33302 0.0
H1250 H 0.96934 0.30548 0.39351 0.0
C1251 C 0.90688 0.27456 0.41251 0.0
C1252 C 0.93169 0.27577 0.36554 0.0
C1253 C 0.89553 0.26362 0.42485 0.0
C1254 C 0.99842 0.30904 0.32859 0.0
C1255 C 0.9839 0.29915 0.3383 0.0
C1256 C 0.95879 0.29755 0.38538 0.0
C1257 C 0.9159 0.26609 0.39663 0.0
C1258 C 0.93064 0.2769 0.38561 0.0
C1259 C 0.97527 0.30706 0.35474 0.0
C1260 C 0.95984 0.29659 0.36528 0.0
H1261 H 0.89903 0.22062 0.40197 0.0
H1262 H 0.9187 0.23981 0.38036 0.0
H1263 H 0.94429 0.28874 0.41086 0.0
H1264 H 0.00049 0.34889 0.35662 0.0
H1265 H 0.97506 0.33192 0.37345 0.0
C1266 C 0.12551 0.7545 0.42158 0.0
C1267 C 0.12694 0.77455 0.42002 0.0
C1268 C 0.11285 0.74421 0.40995 0.0
C1269 C 0.08163 0.74668 0.36682 0.0
H1270 H 0.05016 0.71105 0.39549 0.0
C1271 C 0.0122 0.71367 0.33512 0.0
C1272 C 0.00822 0.69448 0.33956 0.0
C1273 C 0.0272 0.72335 0.3443 0.0
C1274 C 0.05894 0.72071 0.38714 0.0
H1275 H 0.11722 0.7992 0.40378 0.0
H1276 H 0.09526 0.78121 0.38346 0.0
H1277 H 0.07657 0.7273 0.4113 0.0
H1278 H 0.01689 0.67022 0.35674 0.0
H1279 H 0.04312 0.68693 0.37268 0.0
H1280 H 0.06396 0.74006 0.34262 0.0
C1281 C 0.10388 0.77346 0.39375 0.0
C1282 C 0.07415 0.73004 0.39623 0.0
C1283 C 0.11653 0.78379 0.40544 0.0
C1284 C 0.01945 0.68514 0.35335 0.0
C1285 C 0.03448 0.69476 0.36247 0.0
C1286 C 0.06645 0.73724 0.35766 0.0
C1287 C 0.10133 0.75365 0.39639 0.0
C1288 C 0.0857 0.74317 0.38622 0.0
C1289 C 0.03863 0.714 0.35805 0.0
C1290 C 0.05485 0.72414 0.36771 0.0
H1291 H 0.13335 0.74682 0.43254 0.0
H1292 H 0.11157 0.7289 0.41206 0.0
H1293 H 0.09031 0.75659 0.35864 0.0
H1294 H 0.00377 0.72111 0.32443 0.0
H1295 H 0.02976 0.73821 0.34068 0.0
C1296 C 0.5878 0.89916 0.75178 0.0
C1297 C 0.59212 0.8951 0.77104 0.0
C1298 C 0.59955 0.91131 0.74102 0.0
C1299 C 0.64695 0.9357 0.73965 0.0
H1300 H 0.61894 0.9745 0.71149 0.0
C1301 C 0.684 0.00347 0.70915 0.0
C1302 C 0.67808 0.00981 0.69103 0.0
C1303 C 0.67392 0.98895 0.71864 0.0
C1304 C 0.62704 0.96366 0.71905 0.0
H1305 H 0.61309 0.89957 0.79354 0.0
H1306 H 0.63352 0.92069 0.77476 0.0
H1307 H 0.60156 0.94893 0.72752 0.0
H1308 H 0.65726 0.00586 0.66844 0.0
H1309 H 0.63963 0.98055 0.68488 0.0
H1310 H 0.67245 0.95053 0.73122 0.0
C1311 C 0.62102 0.91451 0.76798 0.0
C1312 C 0.61706 0.94893 0.72823 0.0
C1313 C 0.60926 0.90237 0.77878 0.0
C1314 C 0.66186 0.00148 0.68259 0.0
C1315 C 0.6518 0.98696 0.69203 0.0
C1316 C 0.65697 0.95043 0.7304 0.0
C1317 C 0.61595 0.91968 0.74919 0.0
C1318 C 0.62685 0.93477 0.73869 0.0
C1319 C 0.65773 0.9804 0.71015 0.0
C1320 C 0.64714 0.96465 0.72002 0.0
H1321 H 0.57481 0.89375 0.74526 0.0
H1322 H 0.59544 0.91463 0.72643 0.0
H1323 H 0.65497 0.92495 0.74743 0.0
H1324 H 0.69654 0.00964 0.71587 0.0
H1325 H 0.67877 0.98447 0.73266 0.0
C1326 C 0.40741 0.11878 0.77916 0.0
C1327 C 0.42529 0.12378 0.77132 0.0
C1328 C 0.39453 0.10737 0.76883 0.0
C1329 C 0.38473 0.08644 0.72042 0.0
H1330 H 0.36162 0.04546 0.7499 0.0
C1331 C 0.35388 0.01836 0.68485 0.0
C1332 C 0.33648 0.01119 0.69192 0.0
C1333 C 0.36347 0.03311 0.69444 0.0
C1334 C 0.36776 0.05694 0.74147 0.0
H1335 H 0.44294 0.12174 0.74582 0.0
H1336 H 0.42072 0.10183 0.72801 0.0
H1337 H 0.37965 0.07044 0.76625 0.0
H1338 H 0.31533 0.01389 0.71439 0.0
H1339 H 0.33214 0.03964 0.73132 0.0
H1340 H 0.3732 0.07259 0.69559 0.0
C1341 C 0.41651 0.10676 0.74209 0.0
C1342 C 0.37806 0.07135 0.75086 0.0
C1343 C 0.42934 0.11821 0.75238 0.0
C1344 C 0.32886 0.01903 0.70879 0.0
C1345 C 0.3385 0.03373 0.71847 0.0
C1346 C 0.37452 0.07196 0.71103 0.0
C1347 C 0.3992 0.10064 0.7504 0.0
C1348 C 0.38687 0.08622 0.74046 0.0
C1349 C 0.35587 0.04106 0.71133 0.0
C1350 C 0.36607 0.05691 0.72141 0.0
H1351 H 0.40371 0.12288 0.79366 0.0
H1352 H 0.38114 0.10335 0.77554 0.0
H1353 H 0.39102 0.09779 0.71193 0.0
H1354 H 0.35988 0.01284 0.67166 0.0
H1355 H 0.3769 0.03826 0.68864 0.0
C1356 C 0.60809 0.1155 0.23852 0.0
C1357 C 0.59124 0.12309 0.24659 0.0
C1358 C 0.61991 0.10325 0.24916 0.0
C1359 C 0.61586 0.06908 0.28907 0.0
H1360 H 0.67113 0.066 0.28526 0.0
C1361 C 0.6598 0.01559 0.3344 0.0
C1362 C 0.67577 0.00686 0.32588 0.0
C1363 C 0.65 0.0303 0.32497 0.0
C1364 C 0.65567 0.06651 0.2863 0.0
H1365 H 0.57464 0.12504 0.2728 0.0
H1366 H 0.59536 0.10401 0.29132 0.0
H1367 H 0.65407 0.09196 0.26917 0.0
H1368 H 0.69405 0.00651 0.30091 0.0
H1369 H 0.67671 0.03198 0.28411 0.0
H1370 H 0.61731 0.04353 0.30587 0.0
C1371 C 0.59917 0.10712 0.27662 0.0
C1372 C 0.6459 0.08146 0.27713 0.0
C1373 C 0.58738 0.11936 0.26602 0.0
C1374 C 0.68168 0.01298 0.30768 0.0
C1375 C 0.67186 0.02768 0.2982 0.0
C1376 C 0.62559 0.05412 0.29815 0.0
C1377 C 0.61517 0.09832 0.26811 0.0
C1378 C 0.62586 0.08295 0.27842 0.0
C1379 C 0.65595 0.03665 0.30677 0.0
C1380 C 0.64563 0.0526 0.29692 0.0
H1381 H 0.61155 0.11803 0.22362 0.0
H1382 H 0.63211 0.09675 0.24213 0.0
H1383 H 0.60038 0.06949 0.29002 0.0
H1384 H 0.6552 0.01139 0.3486 0.0
H1385 H 0.63804 0.03703 0.33219 0.0
C1386 C 0.32783 0.99584 0.3097 0.0
C1387 C 0.33572 0.00391 0.32633 0.0
C1388 C 0.33744 0.98118 0.29992 0.0
C1389 C 0.37435 0.94359 0.30655 0.0
H1390 H 0.37825 0.94533 0.25123 0.0
C1391 C 0.42891 0.89813 0.26378 0.0
C1392 C 0.42441 0.89252 0.24495 0.0
C1393 C 0.41622 0.90947 0.2744 0.0
C1394 C 0.37702 0.94435 0.26666 0.0
H1395 H 0.35954 0.0026 0.34613 0.0
H1396 H 0.37649 0.97726 0.32897 0.0
H1397 H 0.36007 0.9699 0.26803 0.0
H1398 H 0.40228 0.89325 0.22317 0.0
H1399 H 0.37999 0.91253 0.24187 0.0
H1400 H 0.39136 0.9181 0.30522 0.0
C1401 C 0.36288 0.98221 0.32342 0.0
C1402 C 0.36662 0.95853 0.2763 0.0
C1403 C 0.35332 0.99693 0.33311 0.0
C1404 C 0.40631 0.8974 0.23756 0.0
C1405 C 0.39359 0.90866 0.24822 0.0
C1406 C 0.38466 0.92934 0.2969 0.0
C1407 C 0.35506 0.97412 0.30671 0.0
C1408 C 0.36535 0.95848 0.29639 0.0
C1409 C 0.39864 0.91541 0.26654 0.0
C1410 C 0.38634 0.92964 0.27682 0.0
H1411 H 0.31416 0.00084 0.30432 0.0
H1412 H 0.33091 0.97514 0.28722 0.0
H1413 H 0.37338 0.94291 0.32201 0.0
H1414 H 0.44271 0.89471 0.26998 0.0
H1415 H 0.42072 0.91442 0.28838 0.0
C1416 C 0.68423 0.65975 0.00093 0.0
C1417 C 0.69277 0.6754 0.01018 0.0
C1418 C 0.69388 0.65006 0.98629 0.0
C1419 C 0.73372 0.65566 0.95127 0.0
H1420 H 0.72866 0.60057 0.94685 0.0
C1421 C 0.78142 0.60771 0.90233 0.0
C1422 C 0.77299 0.59132 0.89415 0.0
C1423 C 0.77086 0.61962 0.91458 0.0
C1424 C 0.73001 0.616 0.94767 0.0
H1425 H 0.71802 0.69325 0.01152 0.0
H1426 H 0.73522 0.67607 0.9862 0.0
H1427 H 0.71257 0.61729 0.97279 0.0
H1428 H 0.74627 0.57574 0.89108 0.0
H1429 H 0.7279 0.59661 0.9121 0.0
H1430 H 0.75152 0.65419 0.92625 0.0
C1431 C 0.72094 0.67139 0.99002 0.0
C1432 C 0.72078 0.62561 0.96261 0.0
C1433 C 0.71122 0.68111 0.00465 0.0
C1434 C 0.75333 0.5881 0.89724 0.0
C1435 C 0.74282 0.59997 0.90947 0.0
C1436 C 0.74306 0.646 0.93634 0.0
C1437 C 0.71235 0.65579 0.98053 0.0
C1438 C 0.72245 0.64559 0.96464 0.0
C1439 C 0.75163 0.61543 0.91891 0.0
C1440 C 0.74127 0.62604 0.93431 0.0
H1441 H 0.66984 0.65532 0.00468 0.0
H1442 H 0.68663 0.63836 0.97915 0.0
H1443 H 0.73513 0.67107 0.95217 0.0
H1444 H 0.79651 0.61066 0.90032 0.0
H1445 H 0.77811 0.63141 0.92157 0.0
C1446 C 0.77999 0.40828 0.11708 0.0
C1447 C 0.7723 0.42567 0.12378 0.0
C1448 C 0.76951 0.39656 0.10463 0.0
C1449 C 0.72096 0.3882 0.08379 0.0
H1450 H 0.74988 0.36928 0.04033 0.0
C1451 C 0.68369 0.3592 0.0157 0.0
C1452 C 0.69151 0.34279 0.00711 0.0
C1453 C 0.69352 0.36871 0.03037 0.0
C1454 C 0.74159 0.37424 0.05246 0.0
H1455 H 0.74689 0.44358 0.12361 0.0
H1456 H 0.72872 0.42323 0.10195 0.0
H1457 H 0.76642 0.38574 0.06623 0.0
H1458 H 0.71574 0.32352 0.00691 0.0
H1459 H 0.733 0.34005 0.03257 0.0
H1460 H 0.69608 0.37686 0.06987 0.0
C1461 C 0.74286 0.41859 0.10632 0.0
C1462 C 0.7511 0.38365 0.06739 0.0
C1463 C 0.75333 0.43031 0.11878 0.0
C1464 C 0.7095 0.33625 0.01322 0.0
C1465 C 0.71937 0.34576 0.02788 0.0
C1466 C 0.71144 0.37879 0.06884 0.0
C1467 C 0.75104 0.40189 0.09855 0.0
C1468 C 0.74092 0.39086 0.08324 0.0
C1469 C 0.71142 0.36201 0.03681 0.0
C1470 C 0.72161 0.37178 0.0529 0.0
H1471 H 0.7945 0.40414 0.12067 0.0
H1472 H 0.77611 0.38358 0.09931 0.0
H1473 H 0.71265 0.39333 0.09585 0.0
H1474 H 0.66971 0.36439 0.01142 0.0
H1475 H 0.68706 0.38131 0.03669 0.0
C1476 C 0.31063 0.6651 0.0013 0.0
C1477 C 0.32552 0.67753 0.00662 0.0
C1478 C 0.30028 0.65506 0.01529 0.0
C1479 C 0.28712 0.65584 0.06642 0.0
H1480 H 0.27967 0.60116 0.06042 0.0
C1481 C 0.23727 0.60841 0.11424 0.0
C1482 C 0.24455 0.59035 0.11952 0.0
C1483 C 0.24757 0.62034 0.10179 0.0
C1484 C 0.2817 0.61642 0.06233 0.0
H1485 H 0.34166 0.68863 0.0307 0.0
H1486 H 0.32322 0.6717 0.05503 0.0
H1487 H 0.29601 0.61926 0.03532 0.0
H1488 H 0.26907 0.5714 0.11678 0.0
H1489 H 0.28681 0.5921 0.0951 0.0
H1490 H 0.27267 0.65295 0.09342 0.0
C1491 C 0.31938 0.66987 0.04011 0.0
C1492 C 0.29087 0.6268 0.04787 0.0
C1493 C 0.32989 0.67963 0.02616 0.0
C1494 C 0.26291 0.58512 0.11301 0.0
C1495 C 0.27305 0.59691 0.10042 0.0
C1496 C 0.27765 0.64549 0.08077 0.0
C1497 C 0.30449 0.65743 0.03486 0.0
C1498 C 0.29384 0.6466 0.04981 0.0
C1499 C 0.26525 0.61437 0.09421 0.0
C1500 C 0.27503 0.62562 0.07897 0.0
H1501 H 0.307 0.66319 0.98635 0.0
H1502 H 0.28884 0.64558 0.01081 0.0
H1503 H 0.28911 0.67111 0.06826 0.0
H1504 H 0.2232 0.61293 0.11895 0.0
H1505 H 0.24123 0.63375 0.09728 0.0
C1506 C 0.26069 0.43042 0.90159 0.0
C1507 C 0.24171 0.42572 0.89669 0.0
C1508 C 0.27132 0.41867 0.91388 0.0
C1509 C 0.26362 0.38348 0.9526 0.0
H1510 H 0.31862 0.37681 0.9494 0.0
C1511 C 0.30606 0.33592 0.00594 0.0
C1512 C 0.3241 0.34249 0.01184 0.0
C1513 C 0.29596 0.34548 0.99148 0.0
C1514 C 0.30328 0.37871 0.95063 0.0
H1515 H 0.21963 0.40408 0.89982 0.0
H1516 H 0.23829 0.38346 0.9209 0.0
H1517 H 0.30169 0.39335 0.92371 0.0
H1518 H 0.34576 0.3642 0.00741 0.0
H1519 H 0.328 0.38123 0.9825 0.0
H1520 H 0.26521 0.36901 0.97958 0.0
C1521 C 0.24479 0.39651 0.91562 0.0
C1522 C 0.29355 0.38816 0.93585 0.0
C1523 C 0.23415 0.40826 0.90333 0.0
C1524 C 0.33175 0.35899 0.00328 0.0
C1525 C 0.32168 0.36856 0.98882 0.0
C1526 C 0.27334 0.37403 0.96737 0.0
C1527 C 0.26328 0.40187 0.92157 0.0
C1528 C 0.2736 0.39078 0.93668 0.0
C1529 C 0.30373 0.36182 0.98257 0.0
C1530 C 0.29332 0.37163 0.96666 0.0
H1531 H 0.26704 0.44374 0.89679 0.0
H1532 H 0.28547 0.42333 0.91816 0.0
H1533 H 0.24831 0.38554 0.95396 0.0
H1534 H 0.29997 0.32312 0.01223 0.0
H1535 H 0.28229 0.33975 0.98693 0.0
C1536 C 0.61949 0.84517 0.88001 0.0
C1537 C 0.61649 0.86504 0.88035 0.0
C1538 C 0.63152 0.83654 0.89343 0.0
C1539 C 0.64583 0.84386 0.94278 0.0
H1540 H 0.67406 0.79682 0.93424 0.0
C1541 C 0.66487 0.7941 0.00544 0.0
C1542 C 0.65877 0.7752 0.00222 0.0
C1543 C 0.66643 0.80696 0.99015 0.0
C1544 C 0.66634 0.81002 0.93685 0.0
H1545 H 0.62439 0.89157 0.89436 0.0
H1546 H 0.64545 0.87647 0.91786 0.0
H1547 H 0.66481 0.81663 0.90695 0.0
H1548 H 0.6507 0.75462 0.98037 0.0
H1549 H 0.65316 0.77695 0.95393 0.0
H1550 H 0.64634 0.83676 0.97252 0.0
C1551 C 0.63847 0.86758 0.90724 0.0
C1552 C 0.66106 0.82135 0.92124 0.0
C1553 C 0.62645 0.8762 0.8938 0.0
C1554 C 0.65524 0.76914 0.98337 0.0
C1555 C 0.6569 0.78191 0.96815 0.0
C1556 C 0.65109 0.83253 0.95837 0.0
C1557 C 0.64066 0.84758 0.90757 0.0
C1558 C 0.65005 0.83796 0.924 0.0
C1559 C 0.66208 0.80107 0.97139 0.0
C1560 C 0.66066 0.81508 0.9555 0.0
H1561 H 0.61159 0.83606 0.87031 0.0
H1562 H 0.63257 0.82107 0.89353 0.0
H1563 H 0.6372 0.85648 0.9454 0.0
H1564 H 0.66782 0.79914 0.01981 0.0
H1565 H 0.67058 0.82162 0.99305 0.0
C1566 C 0.35441 0.22345 0.00607 0.0
C1567 C 0.35971 0.24257 0.00273 0.0
C1568 C 0.35352 0.21041 0.99087 0.0
C1569 C 0.3542 0.20677 0.93763 0.0
H1570 H 0.38546 0.16187 0.94694 0.0
C1571 C 0.4021 0.17254 0.88095 0.0
C1572 C 0.40589 0.15282 0.88161 0.0
C1573 C 0.39 0.18097 0.89443 0.0
C1574 C 0.37626 0.17403 0.94411 0.0
H1575 H 0.36695 0.26333 0.98076 0.0
H1576 H 0.36563 0.24068 0.95448 0.0
H1577 H 0.37528 0.18152 0.97374 0.0
H1578 H 0.39938 0.1263 0.89634 0.0
H1579 H 0.37815 0.14103 0.91992 0.0
H1580 H 0.35612 0.19978 0.90784 0.0
C1581 C 0.36204 0.23569 0.96871 0.0
C1582 C 0.37041 0.18532 0.95952 0.0
C1583 C 0.36303 0.24864 0.98384 0.0
C1584 C 0.39671 0.14156 0.89552 0.0
C1585 C 0.38459 0.14998 0.90902 0.0
C1586 C 0.36006 0.19548 0.9222 0.0
C1587 C 0.35774 0.21633 0.97209 0.0
C1588 C 0.36 0.20224 0.95637 0.0
C1589 C 0.38154 0.16987 0.90895 0.0
C1590 C 0.37181 0.17942 0.92523 0.0
H1591 H 0.35164 0.2184 0.02046 0.0
H1592 H 0.35003 0.1956 0.99388 0.0
H1593 H 0.34587 0.21955 0.93482 0.0
H1594 H 0.40941 0.18174 0.87086 0.0
H1595 H 0.38829 0.19639 0.89422 0.0
C1596 C 0.66124 0.22353 0.01124 0.0
C1597 C 0.65602 0.24266 0.01466 0.0
C1598 C 0.66215 0.21044 0.02638 0.0
C1599 C 0.66193 0.20668 0.07959 0.0
H1600 H 0.63059 0.16179 0.0705 0.0
C1601 C 0.61477 0.17226 0.13675 0.0
C1602 C 0.61099 0.15254 0.13608 0.0
C1603 C 0.62669 0.18073 0.12314 0.0
C1604 C 0.63981 0.17396 0.07326 0.0
H1605 H 0.6489 0.26337 0.03673 0.0
H1606 H 0.65027 0.24064 0.06293 0.0
H1607 H 0.64046 0.18153 0.04364 0.0
H1608 H 0.61731 0.12606 0.12117 0.0
H1609 H 0.63823 0.14087 0.09736 0.0
H1610 H 0.66036 0.1996 0.10938 0.0
C1611 C 0.65378 0.23568 0.04866 0.0
C1612 C 0.64548 0.18529 0.05782 0.0
C1613 C 0.65276 0.24868 0.03358 0.0
C1614 C 0.61999 0.14132 0.12201 0.0
C1615 C 0.63193 0.14979 0.10838 0.0
C1616 C 0.65625 0.19534 0.09505 0.0
C1617 C 0.65804 0.21632 0.0452 0.0
C1618 C 0.65592 0.2022 0.06091 0.0
C1619 C 0.63497 0.16968 0.10848 0.0
C1620 C 0.64448 0.17929 0.09211 0.0
H1621 H 0.66395 0.21852 0.99682 0.0
H1622 H 0.6656 0.19563 0.02332 0.0
H1623 H 0.67028 0.21946 0.08236 0.0
H1624 H 0.60759 0.18143 0.14695 0.0
H1625 H 0.6284 0.19615 0.12339 0.0
C1626 C 0.35534 0.79635 0.00818 0.0
C1627 C 0.36067 0.77726 0.01164 0.0
C1628 C 0.35358 0.80927 0.02339 0.0
C1629 C 0.35183 0.81236 0.07671 0.0
H1630 H 0.38237 0.85807 0.06912 0.0
C1631 C 0.39826 0.84615 0.13468 0.0
C1632 C 0.40161 0.86596 0.13457 0.0
C1633 C 0.38632 0.83785 0.12098 0.0
C1634 C 0.37335 0.84567 0.07145 0.0
H1635 H 0.36716 0.75645 0.0338 0.0
H1636 H 0.36441 0.77889 0.06011 0.0
H1637 H 0.3736 0.83858 0.04171 0.0
H1638 H 0.39439 0.89276 0.12067 0.0
H1639 H 0.37354 0.87822 0.09664 0.0
H1640 H 0.35267 0.8189 0.10666 0.0
C1641 C 0.3614 0.78395 0.04576 0.0
C1642 C 0.36831 0.83448 0.05569 0.0
C1643 C 0.36323 0.77111 0.03062 0.0
C1644 C 0.39207 0.87742 0.12106 0.0
C1645 C 0.38016 0.86912 0.10732 0.0
C1646 C 0.35694 0.82353 0.09249 0.0
C1647 C 0.35698 0.80327 0.04232 0.0
C1648 C 0.35822 0.81726 0.05825 0.0
C1649 C 0.37764 0.84918 0.10678 0.0
C1650 C 0.36843 0.83986 0.09008 0.0
H1651 H 0.35313 0.80146 0.9937 0.0
H1652 H 0.35001 0.82405 0.02032 0.0
H1653 H 0.34371 0.79937 0.07907 0.0
H1654 H 0.40584 0.83681 0.14441 0.0
H1655 H 0.38499 0.8224 0.12071 0.0
C1656 C 0.00017 0.64442 0.79248 0.0
C1657 C 0.00204 0.66054 0.78068 0.0
C1658 C 0.98672 0.64423 0.80718 0.0
C1659 C 0.96217 0.65153 0.84239 0.0
H1660 H 0.91049 0.65091 0.82209 0.0
C1661 C 0.88115 0.6231 0.86369 0.0
C1662 C 0.88679 0.60484 0.87004 0.0
C1663 C 0.89472 0.63593 0.85634 0.0
C1664 C 0.92471 0.65157 0.82822 0.0
H1665 H 0.99175 0.68925 0.77501 0.0
H1666 H 0.96734 0.68857 0.8005 0.0
H1667 H 0.93658 0.66383 0.80269 0.0
H1668 H 0.91116 0.58604 0.8743 0.0
H1669 H 0.93455 0.60812 0.86152 0.0
H1670 H 0.95061 0.63841 0.86749 0.0
C1671 C 0.97669 0.67634 0.79856 0.0
C1672 C 0.93964 0.65898 0.8171 0.0
C1673 C 0.99059 0.67673 0.7841 0.0
C1674 C 0.90629 0.59997 0.86954 0.0
C1675 C 0.91977 0.61273 0.86234 0.0
C1676 C 0.94728 0.64433 0.85355 0.0
C1677 C 0.97458 0.65999 0.81008 0.0
C1678 C 0.95859 0.65804 0.82373 0.0
C1679 C 0.91416 0.63079 0.8555 0.0
C1680 C 0.92859 0.64323 0.84612 0.0
H1681 H 0.00887 0.6318 0.79008 0.0
H1682 H 0.98517 0.63136 0.8157 0.0
H1683 H 0.97669 0.65082 0.84781 0.0
H1684 H 0.86638 0.62763 0.86454 0.0
H1685 H 0.89001 0.64982 0.85131 0.0
C1686 C 0.00991 0.35068 0.79132 0.0
C1687 C 0.0131 0.35747 0.77266 0.0
C1688 C 0.02516 0.34902 0.80421 0.0
C1689 C 0.07842 0.3501 0.80761 0.0
H1690 H 0.06905 0.37776 0.85479 0.0
C1691 C 0.1341 0.39717 0.84423 0.0
C1692 C 0.13354 0.39976 0.86415 0.0
C1693 C 0.121 0.38504 0.83525 0.0
C1694 C 0.07191 0.36953 0.84196 0.0
H1695 H 0.03487 0.36668 0.75248 0.0
H1696 H 0.06125 0.36403 0.77487 0.0
H1697 H 0.04222 0.36861 0.83469 0.0
H1698 H 0.11952 0.39099 0.8904 0.0
H1699 H 0.09662 0.36972 0.87469 0.0
H1700 H 0.10826 0.35204 0.81442 0.0
C1701 C 0.04709 0.35984 0.77962 0.0
C1702 C 0.05648 0.36428 0.83041 0.0
C1703 C 0.0319 0.3616 0.76683 0.0
C1704 C 0.12025 0.38927 0.875 0.0
C1705 C 0.10714 0.37713 0.86603 0.0
C1706 C 0.09387 0.35537 0.81916 0.0
C1707 C 0.04386 0.35395 0.79857 0.0
C1708 C 0.05964 0.35526 0.81271 0.0
C1709 C 0.10699 0.37537 0.84599 0.0
C1710 C 0.09081 0.36586 0.83605 0.0
H1711 H 0.99558 0.34727 0.79617 0.0
H1712 H 0.02228 0.34434 0.81871 0.0
H1713 H 0.08125 0.34282 0.7942 0.0
H1714 H 0.14369 0.40548 0.83537 0.0
H1715 H 0.12104 0.38432 0.81976 0.0
C1716 C 0.00038 0.37086 0.22438 0.0
C1717 C 0.00483 0.35448 0.23509 0.0
C1718 C 0.98614 0.37026 0.21047 0.0
C1719 C 0.94084 0.34851 0.20138 0.0
H1720 H 0.94521 0.37659 0.15369 0.0
C1721 C 0.88197 0.39628 0.17098 0.0
C1722 C 0.88093 0.39948 0.15118 0.0
C1723 C 0.89555 0.38365 0.17847 0.0
C1724 C 0.94368 0.36827 0.16669 0.0
H1725 H 0.99832 0.32446 0.23946 0.0
H1726 H 0.97271 0.32355 0.21528 0.0
H1727 H 0.97401 0.36742 0.17096 0.0
H1728 H 0.89232 0.39107 0.12357 0.0
H1729 H 0.91597 0.36888 0.13662 0.0
H1730 H 0.91043 0.35034 0.19764 0.0
C1731 C 0.98056 0.33673 0.21753 0.0
C1732 C 0.96021 0.36315 0.17663 0.0
C1733 C 0.9952 0.33724 0.23125 0.0
C1734 C 0.8929 0.38893 0.13892 0.0
C1735 C 0.90643 0.37625 0.14639 0.0
C1736 C 0.92424 0.35373 0.19146 0.0
C1737 C 0.97579 0.35333 0.2072 0.0
C1738 C 0.95891 0.354 0.19446 0.0
C1739 C 0.9084 0.37404 0.16628 0.0
C1740 C 0.9255 0.3644 0.17443 0.0
H1741 H 0.00764 0.38431 0.22708 0.0
H1742 H 0.98257 0.38334 0.20293 0.0
H1743 H 0.93946 0.34151 0.21515 0.0
H1744 H 0.87333 0.40454 0.18084 0.0
H1745 H 0.89689 0.38255 0.19387 0.0
C1746 C 0.13505 0.61717 0.16995 0.0
C1747 C 0.1343 0.6122 0.15049 0.0
C1748 C 0.12141 0.62954 0.17776 0.0
C1749 C 0.07142 0.64174 0.1703 0.0
H1750 H 0.08004 0.6754 0.21359 0.0
C1751 C 0.00881 0.66493 0.21806 0.0
C1752 C 0.01232 0.66132 0.23754 0.0
C1753 C 0.02401 0.6655 0.205 0.0
C1754 C 0.0774 0.66613 0.20144 0.0
H1755 H 0.11934 0.61699 0.12374 0.0
H1756 H 0.09552 0.63867 0.13737 0.0
H1757 H 0.10725 0.66433 0.19458 0.0
H1758 H 0.03455 0.65691 0.25881 0.0
H1759 H 0.06081 0.65758 0.23616 0.0
H1760 H 0.04178 0.64256 0.17773 0.0
C1761 C 0.10658 0.63293 0.1466 0.0
C1762 C 0.09297 0.6598 0.19057 0.0
C1763 C 0.12021 0.62055 0.13881 0.0
C1764 C 0.03133 0.6595 0.24386 0.0
C1765 C 0.04645 0.66012 0.23087 0.0
C1766 C 0.05588 0.64801 0.18118 0.0
C1767 C 0.10668 0.63708 0.16628 0.0
C1768 C 0.0902 0.64697 0.17533 0.0
C1769 C 0.04295 0.66258 0.21122 0.0
C1770 C 0.05878 0.65965 0.19733 0.0
H1771 H 0.14532 0.61056 0.17947 0.0
H1772 H 0.12168 0.63215 0.19304 0.0
H1773 H 0.06879 0.6317 0.15878 0.0
H1774 H 0.99432 0.66654 0.21279 0.0
H1775 H 0.02088 0.66762 0.18996 0.0
C1776 C 0.86736 0.88149 0.61797 0.0
C1777 C 0.87323 0.88628 0.59934 0.0
C1778 C 0.85895 0.89531 0.62981 0.0
C1779 C 0.82845 0.9231 0.64393 0.0
H1780 H 0.84224 0.97674 0.63996 0.0
C1781 C 0.77339 0.98296 0.64761 0.0
C1782 C 0.77847 0.00123 0.65434 0.0
C1783 C 0.78686 0.96827 0.64698 0.0
C1784 C 0.83837 0.96182 0.64166 0.0
H1785 H 0.87581 0.90946 0.57885 0.0
H1786 H 0.86099 0.93335 0.59922 0.0
H1787 H 0.86395 0.95243 0.62769 0.0
H1788 H 0.80138 0.01808 0.66679 0.0
H1789 H 0.82502 0.99225 0.66576 0.0
H1790 H 0.80271 0.93253 0.65761 0.0
C1791 C 0.863 0.91906 0.60489 0.0
C1792 C 0.85072 0.94789 0.63438 0.0
C1793 C 0.87138 0.9053 0.59312 0.0
C1794 C 0.79708 0.0042 0.66138 0.0
C1795 C 0.81063 0.98943 0.66074 0.0
C1796 C 0.81615 0.93704 0.65132 0.0
C1797 C 0.85641 0.91418 0.62327 0.0
C1798 C 0.84548 0.92845 0.63465 0.0
C1799 C 0.80576 0.97142 0.65311 0.0
C1800 C 0.82057 0.9566 0.64947 0.0
H1801 H 0.86925 0.86714 0.62345 0.0
H1802 H 0.85429 0.89118 0.64402 0.0
H1803 H 0.82397 0.90827 0.64439 0.0
H1804 H 0.75912 0.98013 0.64222 0.0
H1805 H 0.78265 0.95471 0.64075 0.0
C1806 C 0.86973 0.11001 0.4152 0.0
C1807 C 0.87087 0.12933 0.40976 0.0
C1808 C 0.86118 0.09657 0.40323 0.0
C1809 C 0.84819 0.06871 0.37325 0.0
H1810 H 0.7982 0.08355 0.3543 0.0
C1811 C 0.79331 0.01182 0.35049 0.0
C1812 C 0.77545 0.01447 0.35938 0.0
C1813 C 0.80663 0.02679 0.3499 0.0
C1814 C 0.8122 0.0792 0.35935 0.0
H1815 H 0.86536 0.14937 0.38668 0.0
H1816 H 0.84997 0.12586 0.36582 0.0
H1817 H 0.81991 0.10795 0.36647 0.0
H1818 H 0.75711 0.03517 0.37359 0.0
H1819 H 0.78027 0.06092 0.37293 0.0
H1820 H 0.8399 0.03981 0.36764 0.0
C1821 C 0.85541 0.12126 0.37959 0.0
C1822 C 0.82474 0.09322 0.36613 0.0
C1823 C 0.86404 0.13477 0.39163 0.0
C1824 C 0.77082 0.03258 0.36679 0.0
C1825 C 0.78405 0.04748 0.36618 0.0
C1826 C 0.83561 0.05468 0.3666 0.0
C1827 C 0.85366 0.10206 0.3854 0.0
C1828 C 0.8425 0.08801 0.37402 0.0
C1829 C 0.80227 0.04467 0.35811 0.0
C1830 C 0.81712 0.0597 0.36045 0.0
H1831 H 0.87489 0.10533 0.42906 0.0
H1832 H 0.85977 0.082 0.40835 0.0
H1833 H 0.86198 0.0643 0.37883 0.0
H1834 H 0.79722 0.99805 0.34451 0.0
H1835 H 0.82049 0.02424 0.34344 0.0
C1836 C 0.23162 0.99355 0.34081 0.0
C1837 C 0.23535 0.0056 0.35648 0.0
C1838 C 0.21697 0.97988 0.3419 0.0
C1839 C 0.17354 0.96636 0.36849 0.0
H1840 H 0.19292 0.91434 0.36691 0.0
C1841 C 0.14495 0.90827 0.41757 0.0
C1842 C 0.14485 0.889 0.41185 0.0
C1843 C 0.15234 0.92238 0.40558 0.0
C1844 C 0.18703 0.92869 0.36693 0.0
H1845 H 0.22621 0.01376 0.38497 0.0
H1846 H 0.20035 0.99041 0.38664 0.0
H1847 H 0.21234 0.94043 0.35415 0.0
H1848 H 0.15101 0.86965 0.38834 0.0
H1849 H 0.16428 0.89436 0.36741 0.0
H1850 H 0.14857 0.95484 0.38193 0.0
C1851 C 0.20875 0.99133 0.37362 0.0
C1852 C 0.19817 0.94362 0.35961 0.0
C1853 C 0.2236 0.00458 0.37273 0.0
C1854 C 0.15155 0.88425 0.39348 0.0
C1855 C 0.15898 0.89843 0.38141 0.0
C1856 C 0.16233 0.95144 0.37562 0.0
C1857 C 0.20559 0.97854 0.35844 0.0
C1858 C 0.19188 0.96265 0.36117 0.0
C1859 C 0.15968 0.91763 0.38744 0.0
C1860 C 0.16937 0.93257 0.37582 0.0
H1861 H 0.24063 0.99402 0.32819 0.0
H1862 H 0.21482 0.97008 0.33007 0.0
H1863 H 0.16832 0.98092 0.36966 0.0
H1864 H 0.13988 0.91242 0.43163 0.0
H1865 H 0.15297 0.93694 0.41089 0.0
C1866 C 0.17335 0.13775 0.61717 0.0
C1867 C 0.15357 0.13854 0.6137 0.0
C1868 C 0.18088 0.12396 0.62955 0.0
C1869 C 0.16973 0.07528 0.64372 0.0
H1870 H 0.21718 0.07984 0.6722 0.0
C1871 C 0.23285 0.02382 0.67761 0.0
C1872 C 0.23739 0.01395 0.66068 0.0
C1873 C 0.21933 0.03865 0.67732 0.0
C1874 C 0.20369 0.07837 0.66467 0.0
H1875 H 0.12604 0.12644 0.62136 0.0
H1876 H 0.13918 0.10244 0.64309 0.0
H1877 H 0.19962 0.10875 0.663 0.0
H1878 H 0.23084 0.01101 0.6305 0.0
H1879 H 0.20705 0.03645 0.63007 0.0
H1880 H 0.17433 0.045 0.64448 0.0
C1881 C 0.14889 0.11233 0.63613 0.0
C1882 C 0.19375 0.09489 0.65925 0.0
C1883 C 0.14137 0.12607 0.62371 0.0
C1884 C 0.22762 0.01845 0.64373 0.0
C1885 C 0.21391 0.0329 0.64352 0.0
C1886 C 0.1797 0.05883 0.64903 0.0
C1887 C 0.16878 0.11066 0.63862 0.0
C1888 C 0.17706 0.09352 0.64807 0.0
C1889 C 0.2099 0.04341 0.66019 0.0
C1890 C 0.19716 0.06026 0.65886 0.0
H1891 H 0.18317 0.14678 0.60932 0.0
H1892 H 0.19629 0.12286 0.63088 0.0
H1893 H 0.15701 0.07367 0.63499 0.0
H1894 H 0.24032 0.02066 0.69083 0.0
H1895 H 0.21649 0.04661 0.69032 0.0
C1896 C 0.39989 0.27874 0.10911 0.0
C1897 C 0.39375 0.27166 0.09126 0.0
C1898 C 0.41162 0.26765 0.12103 0.0
C1899 C 0.44755 0.22951 0.11695 0.0
H1900 H 0.44529 0.22821 0.17238 0.0
C1901 C 0.49973 0.18307 0.16124 0.0
C1902 C 0.50636 0.19035 0.17875 0.0
C1903 C 0.48526 0.19253 0.15111 0.0
C1904 C 0.44629 0.22861 0.15692 0.0
H1905 H 0.39397 0.24667 0.07275 0.0
H1906 H 0.41423 0.22739 0.09358 0.0
H1907 H 0.4203 0.24484 0.15441 0.0
H1908 H 0.50301 0.21302 0.19957 0.0
H1909 H 0.47808 0.22996 0.18167 0.0
H1910 H 0.47368 0.21376 0.11932 0.0
C1911 C 0.41028 0.24167 0.09818 0.0
C1912 C 0.43189 0.23808 0.14662 0.0
C1913 C 0.3985 0.2527 0.08631 0.0
C1914 C 0.49823 0.20724 0.18599 0.0
C1915 C 0.48382 0.2168 0.17581 0.0
C1916 C 0.46199 0.22018 0.12722 0.0
C1917 C 0.41753 0.24925 0.11536 0.0
C1918 C 0.43233 0.23861 0.1265 0.0
C1919 C 0.47707 0.20954 0.15823 0.0
C1920 C 0.46159 0.21958 0.14736 0.0
H1921 H 0.39653 0.29325 0.11344 0.0
H1922 H 0.41695 0.27394 0.13417 0.0
H1923 H 0.44858 0.22998 0.10149 0.0
H1924 H 0.50538 0.16977 0.1556 0.0
H1925 H 0.48022 0.18624 0.13787 0.0
C1926 C 0.61889 0.76456 0.08621 0.0
C1927 C 0.62283 0.74528 0.09059 0.0
C1928 C 0.60658 0.77537 0.09776 0.0
C1929 C 0.58121 0.77668 0.14473 0.0
H1930 H 0.54317 0.80519 0.11604 0.0
C1931 C 0.51266 0.8071 0.18043 0.0
C1932 C 0.50657 0.82534 0.1746 0.0
C1933 C 0.52736 0.79764 0.17057 0.0
C1934 C 0.55379 0.79753 0.12433 0.0
H1935 H 0.61799 0.72282 0.11152 0.0
H1936 H 0.59659 0.74167 0.1316 0.0
H1937 H 0.56907 0.78917 0.09914 0.0
H1938 H 0.51111 0.84812 0.15411 0.0
H1939 H 0.53672 0.8317 0.13685 0.0
H1940 H 0.5658 0.78498 0.16993 0.0
C1941 C 0.60299 0.74844 0.11921 0.0
C1942 C 0.56872 0.78835 0.11462 0.0
C1943 C 0.6153 0.7376 0.10764 0.0
C1944 C 0.5153 0.83389 0.15865 0.0
C1945 C 0.52999 0.82447 0.1488 0.0
C1946 C 0.56627 0.78591 0.15446 0.0
C1947 C 0.59792 0.76724 0.11403 0.0
C1948 C 0.58262 0.77776 0.12466 0.0
C1949 C 0.53633 0.80625 0.15469 0.0
C1950 C 0.55231 0.79641 0.14439 0.0
H1951 H 0.6245 0.77104 0.07329 0.0
H1952 H 0.60337 0.78996 0.0936 0.0
H1953 H 0.59174 0.76881 0.15294 0.0
H1954 H 0.50618 0.80028 0.19276 0.0
H1955 H 0.53165 0.78353 0.17538 0.0
C1956 C 0.39887 0.76417 0.92751 0.0
C1957 C 0.39564 0.74459 0.92397 0.0
C1958 C 0.41118 0.77478 0.91579 0.0
C1959 C 0.4379 0.77476 0.86965 0.0
H1960 H 0.47448 0.80513 0.89834 0.0
C1961 C 0.50657 0.80585 0.83472 0.0
C1962 C 0.51207 0.82437 0.84023 0.0
C1963 C 0.49185 0.7963 0.84446 0.0
C1964 C 0.46427 0.79694 0.89003 0.0
H1965 H 0.40173 0.7213 0.90431 0.0
H1966 H 0.42314 0.73981 0.88391 0.0
H1967 H 0.44849 0.78913 0.91508 0.0
H1968 H 0.50644 0.84759 0.85995 0.0
H1969 H 0.48078 0.83105 0.87696 0.0
H1970 H 0.45379 0.78256 0.84458 0.0
C1971 C 0.41618 0.74696 0.89578 0.0
C1972 C 0.44929 0.78777 0.89965 0.0
C1973 C 0.40386 0.73632 0.90752 0.0
C1974 C 0.50271 0.83315 0.8557 0.0
C1975 C 0.488 0.82365 0.86541 0.0
C1976 C 0.45288 0.784 0.85999 0.0
C1977 C 0.42056 0.76612 0.90021 0.0
C1978 C 0.43591 0.77654 0.88961 0.0
C1979 C 0.48227 0.80512 0.85987 0.0
C1980 C 0.4663 0.79519 0.87007 0.0
H1981 H 0.3927 0.7711 0.93994 0.0
H1982 H 0.41386 0.78963 0.91934 0.0
H1983 H 0.42778 0.76635 0.86145 0.0
H1984 H 0.51353 0.79888 0.82274 0.0
H1985 H 0.48802 0.78197 0.83994 0.0
C1986 C 0.51787 0.18368 0.85621 0.0
C1987 C 0.51123 0.19014 0.83837 0.0
C1988 C 0.53236 0.19359 0.8659 0.0
C1989 C 0.55616 0.24073 0.86917 0.0
H1990 H 0.59653 0.21202 0.89424 0.0
C1991 C 0.61778 0.2798 0.90782 0.0
C1992 C 0.62281 0.27265 0.92598 0.0
C1993 C 0.60631 0.26901 0.89539 0.0
C1994 C 0.58531 0.22028 0.88746 0.0
H1995 H 0.51458 0.21187 0.81656 0.0
H1996 H 0.53984 0.22936 0.83353 0.0
H1997 H 0.57159 0.19505 0.87663 0.0
H1998 H 0.62066 0.24791 0.94466 0.0
H1999 H 0.6006 0.22932 0.92321 0.0
H2000 H 0.56952 0.26593 0.88033 0.0
C2001 C 0.53373 0.21674 0.84015 0.0
C2002 C 0.57098 0.21053 0.87736 0.0
C2003 C 0.51931 0.20674 0.83042 0.0
C2004 C 0.61713 0.25393 0.93082 0.0
C2005 C 0.60559 0.24319 0.91843 0.0
C2006 C 0.57042 0.25048 0.87936 0.0
C2007 C 0.54054 0.21021 0.85796 0.0
C2008 C 0.55613 0.22062 0.86822 0.0
C2009 C 0.59951 0.25081 0.90079 0.0
C2010 C 0.58513 0.2404 0.88879 0.0
H2011 H 0.51215 0.1707 0.86249 0.0
H2012 H 0.53712 0.18825 0.87965 0.0
H2013 H 0.54484 0.24895 0.86249 0.0
H2014 H 0.62197 0.2941 0.90352 0.0
H2015 H 0.60233 0.27519 0.88173 0.0
C2016 C 0.0892 0.39812 0.25122 0.0
C2017 C 0.09218 0.39377 0.27066 0.0
C2018 C 0.10194 0.40996 0.2413 0.0
C2019 C 0.13759 0.44814 0.25098 0.0
H2020 H 0.14503 0.44562 0.19603 0.0
C2021 C 0.18628 0.50094 0.20865 0.0
C2022 C 0.17858 0.50824 0.19158 0.0
C2023 C 0.17686 0.48631 0.21863 0.0
C2024 C 0.14299 0.44657 0.21138 0.0
H2025 H 0.1119 0.39721 0.2944 0.0
H2026 H 0.13448 0.4173 0.27691 0.0
H2027 H 0.12815 0.41979 0.21236 0.0
H2028 H 0.15525 0.50584 0.17132 0.0
H2029 H 0.13871 0.48032 0.18874 0.0
H2030 H 0.1526 0.47491 0.2499 0.0
C2031 C 0.1219 0.4121 0.2695 0.0
C2032 C 0.13329 0.43175 0.22077 0.0
C2033 C 0.10905 0.40035 0.27949 0.0
C2034 C 0.16128 0.5007 0.18466 0.0
C2035 C 0.15197 0.48594 0.19449 0.0
C2036 C 0.14748 0.46285 0.2416 0.0
C2037 C 0.11816 0.41765 0.25047 0.0
C2038 C 0.13016 0.43245 0.24068 0.0
C2039 C 0.15972 0.47846 0.21152 0.0
C2040 C 0.15003 0.46239 0.22165 0.0
H2041 H 0.07637 0.39337 0.2439 0.0
H2042 H 0.0984 0.41394 0.22675 0.0
H2043 H 0.13522 0.44945 0.26624 0.0
H2044 H 0.19975 0.50637 0.2141 0.0
H2045 H 0.18326 0.48076 0.23161 0.0
C2046 C 0.90926 0.6161 0.28136 0.0
C2047 C 0.92567 0.62387 0.2726 0.0
C2048 C 0.89733 0.60345 0.27137 0.0
C2049 C 0.88638 0.58361 0.22283 0.0
H2050 H 0.87111 0.53873 0.25175 0.0
C2051 C 0.85805 0.5151 0.18581 0.0
C2052 C 0.84237 0.50582 0.19429 0.0
C2053 C 0.86755 0.52992 0.19542 0.0
C2054 C 0.87505 0.55125 0.24349 0.0
H2055 H 0.94151 0.62535 0.2459 0.0
H2056 H 0.92084 0.60332 0.2286 0.0
H2057 H 0.88762 0.56486 0.26787 0.0
H2058 H 0.82436 0.50456 0.21943 0.0
H2059 H 0.84093 0.53044 0.23636 0.0
H2060 H 0.87403 0.56979 0.19838 0.0
C2061 C 0.9171 0.60702 0.24319 0.0
C2062 C 0.88448 0.56632 0.25276 0.0
C2063 C 0.92902 0.61971 0.25316 0.0
C2064 C 0.83654 0.5114 0.21269 0.0
C2065 C 0.84607 0.52619 0.22236 0.0
C2066 C 0.87699 0.5685 0.21355 0.0
C2067 C 0.90146 0.5982 0.25235 0.0
C2068 C 0.89038 0.58269 0.24256 0.0
C2069 C 0.86156 0.53581 0.21375 0.0
C2070 C 0.8713 0.55205 0.22372 0.0
H2071 H 0.90612 0.61904 0.29626 0.0
H2072 H 0.88514 0.59734 0.27876 0.0
H2073 H 0.89044 0.59605 0.21454 0.0
H2074 H 0.86266 0.51122 0.17151 0.0
H2075 H 0.87957 0.5368 0.18845 0.0
C2076 C 0.08582 0.61971 0.76624 0.0
C2077 C 0.08926 0.62322 0.74669 0.0
C2078 C 0.09753 0.60718 0.77659 0.0
C2079 C 0.14347 0.58017 0.77615 0.0
H2080 H 0.11446 0.54327 0.80581 0.0
C2081 C 0.17823 0.51126 0.80704 0.0
C2082 C 0.17244 0.50551 0.8254 0.0
C2083 C 0.16856 0.52603 0.79748 0.0
C2084 C 0.12286 0.55356 0.79783 0.0
H2085 H 0.10878 0.61743 0.72321 0.0
H2086 H 0.12922 0.59565 0.74132 0.0
H2087 H 0.09792 0.56954 0.79007 0.0
H2088 H 0.15226 0.51072 0.84831 0.0
H2089 H 0.13539 0.53648 0.83179 0.0
H2090 H 0.16844 0.56412 0.78395 0.0
C2091 C 0.1174 0.60255 0.74862 0.0
C2092 C 0.11335 0.5687 0.78881 0.0
C2093 C 0.10566 0.6151 0.73822 0.0
C2094 C 0.15674 0.51465 0.83399 0.0
C2095 C 0.1471 0.52942 0.82449 0.0
C2096 C 0.15302 0.56504 0.78528 0.0
C2097 C 0.11302 0.59785 0.76771 0.0
C2098 C 0.1235 0.58222 0.77785 0.0
C2099 C 0.15294 0.53542 0.80614 0.0
C2100 C 0.14284 0.55151 0.79624 0.0
H2101 H 0.07344 0.6258 0.77332 0.0
H2102 H 0.09402 0.60426 0.79141 0.0
H2103 H 0.15175 0.59038 0.76794 0.0
H2104 H 0.1904 0.50449 0.80022 0.0
H2105 H 0.17332 0.53005 0.78328 0.0
C2106 C 0.85608 0.49752 0.83354 0.0
C2107 C 0.8384 0.5046 0.82709 0.0
C2108 C 0.86548 0.48292 0.82352 0.0
C2109 C 0.86842 0.45951 0.77616 0.0
H2110 H 0.89237 0.41824 0.80455 0.0
C2111 C 0.906 0.39762 0.73655 0.0
C2112 C 0.92404 0.39221 0.74372 0.0
C2113 C 0.89369 0.40912 0.74745 0.0
C2114 C 0.8859 0.42972 0.79638 0.0
H2115 H 0.81662 0.50198 0.80523 0.0
H2116 H 0.8331 0.47653 0.78754 0.0
H2117 H 0.87527 0.44343 0.8217 0.0
H2118 H 0.9426 0.39365 0.76861 0.0
H2119 H 0.92135 0.41376 0.78739 0.0
H2120 H 0.87939 0.44616 0.75088 0.0
C2121 C 0.8398 0.48236 0.80025 0.0
C2122 C 0.87609 0.44418 0.80623 0.0
C2123 C 0.83035 0.49688 0.81037 0.0
C2124 C 0.92884 0.39749 0.76257 0.0
C2125 C 0.91657 0.40906 0.77341 0.0
C2126 C 0.87832 0.44512 0.76631 0.0
C2127 C 0.85743 0.47508 0.80679 0.0
C2128 C 0.86736 0.45936 0.79626 0.0
C2129 C 0.8991 0.41557 0.76577 0.0
C2130 C 0.88734 0.43008 0.77628 0.0
H2131 H 0.86242 0.50294 0.84661 0.0
H2132 H 0.87911 0.47779 0.82886 0.0
H2133 H 0.86205 0.47109 0.76804 0.0
H2134 H 0.90174 0.39374 0.72215 0.0
H2135 H 0.88014 0.41342 0.74125 0.0
C2136 C 0.21486 0.18605 0.50306 0.0
C2137 C 0.19647 0.18024 0.50872 0.0
C2138 C 0.22438 0.17661 0.48811 0.0
C2139 C 0.21519 0.14566 0.44583 0.0
H2140 H 0.26937 0.13425 0.44945 0.0
C2141 C 0.25343 0.09089 0.39679 0.0
C2142 C 0.27291 0.0936 0.39233 0.0
C2143 C 0.24379 0.10369 0.40884 0.0
C2144 C 0.25431 0.13762 0.448 0.0
H2145 H 0.17356 0.16012 0.50325 0.0
H2146 H 0.19025 0.14335 0.47746 0.0
H2147 H 0.2536 0.15147 0.47536 0.0
H2148 H 0.29699 0.1129 0.39591 0.0
H2149 H 0.28006 0.13539 0.41658 0.0
H2150 H 0.21585 0.13161 0.41856 0.0
C2151 C 0.19731 0.1553 0.48437 0.0
C2152 C 0.24523 0.14746 0.46294 0.0
C2153 C 0.18784 0.16471 0.49931 0.0
C2154 C 0.28204 0.11026 0.39906 0.0
C2155 C 0.27238 0.12307 0.41114 0.0
C2156 C 0.22427 0.13584 0.43088 0.0
C2157 C 0.21564 0.16122 0.47843 0.0
C2158 C 0.2255 0.15142 0.46217 0.0
C2159 C 0.25333 0.11958 0.41674 0.0
C2160 C 0.24392 0.13149 0.43184 0.0
H2161 H 0.22171 0.19811 0.51 0.0
H2162 H 0.23839 0.18169 0.48384 0.0
H2163 H 0.20006 0.14879 0.44456 0.0
H2164 H 0.24588 0.07826 0.39189 0.0
H2165 H 0.22917 0.10045 0.41284 0.0
C2166 C 0.21332 0.83558 0.51173 0.0
C2167 C 0.19416 0.83957 0.50715 0.0
C2168 C 0.22232 0.84503 0.527 0.0
C2169 C 0.21849 0.88861 0.55709 0.0
H2170 H 0.2526 0.86126 0.5913 0.0
C2171 C 0.25138 0.92692 0.62195 0.0
C2172 C 0.27116 0.92426 0.62471 0.0
C2173 C 0.24103 0.9148 0.60979 0.0
C2174 C 0.24321 0.86915 0.58182 0.0
H2175 H 0.16922 0.85613 0.51514 0.0
H2176 H 0.18484 0.87273 0.54164 0.0
H2177 H 0.23697 0.84417 0.56507 0.0
H2178 H 0.29517 0.90573 0.61793 0.0
H2179 H 0.27721 0.88476 0.59669 0.0
H2180 H 0.22488 0.91363 0.57351 0.0
C2181 C 0.1931 0.86257 0.53333 0.0
C2182 C 0.23428 0.85935 0.56674 0.0
C2183 C 0.18413 0.8531 0.51813 0.0
C2184 C 0.27997 0.90825 0.61618 0.0
C2185 C 0.26963 0.89617 0.60395 0.0
C2186 C 0.22743 0.8984 0.5721 0.0
C2187 C 0.21231 0.85868 0.53799 0.0
C2188 C 0.22183 0.86897 0.55415 0.0
C2189 C 0.25018 0.89973 0.60001 0.0
C2190 C 0.23994 0.88884 0.58468 0.0
H2191 H 0.22131 0.82514 0.5035 0.0
H2192 H 0.23717 0.84181 0.53005 0.0
H2193 H 0.20927 0.89658 0.54751 0.0
H2194 H 0.24404 0.93898 0.62838 0.0
H2195 H 0.22596 0.91767 0.60754 0.0
C2196 C 0.76756 0.08587 0.61746 0.0
C2197 C 0.74888 0.09083 0.6232 0.0
C2198 C 0.7783 0.09818 0.60584 0.0
C2199 C 0.7708 0.13674 0.57034 0.0
H2200 H 0.82622 0.13977 0.57122 0.0
C2201 C 0.81384 0.18494 0.51812 0.0
C2202 C 0.83054 0.17706 0.5102 0.0
C2203 C 0.80401 0.1754 0.53276 0.0
C2204 C 0.81074 0.13895 0.57069 0.0
H2205 H 0.72755 0.11341 0.62244 0.0
H2206 H 0.74647 0.13503 0.60264 0.0
H2207 H 0.80945 0.12246 0.59652 0.0
H2208 H 0.85034 0.15324 0.51161 0.0
H2209 H 0.83304 0.13635 0.53693 0.0
H2210 H 0.77212 0.15313 0.54446 0.0
C2211 C 0.7526 0.12136 0.60664 0.0
C2212 C 0.80111 0.12904 0.58523 0.0
C2213 C 0.74181 0.10902 0.6182 0.0
C2214 C 0.83727 0.15945 0.5172 0.0
C2215 C 0.82751 0.14994 0.53189 0.0
C2216 C 0.78043 0.14671 0.55587 0.0
C2217 C 0.77071 0.11582 0.59974 0.0
C2218 C 0.781 0.12763 0.58516 0.0
C2219 C 0.8108 0.15783 0.53993 0.0
C2220 C 0.80053 0.14778 0.55573 0.0
H2221 H 0.77352 0.07199 0.62099 0.0
H2222 H 0.79213 0.09332 0.60079 0.0
H2223 H 0.75536 0.13568 0.56954 0.0
H2224 H 0.80849 0.19861 0.51309 0.0
H2225 H 0.79131 0.18199 0.53874 0.0
C2226 C 0.83723 0.85277 0.49384 0.0
C2227 C 0.82996 0.83584 0.5019 0.0
C2228 C 0.8272 0.86229 0.47934 0.0
C2229 C 0.77891 0.8673 0.45817 0.0
H2230 H 0.80652 0.89025 0.41582 0.0
C2231 C 0.73848 0.90643 0.39786 0.0
C2232 C 0.74592 0.92437 0.39251 0.0
C2233 C 0.74937 0.8937 0.40888 0.0
C2234 C 0.79858 0.88403 0.4276 0.0
H2235 H 0.80673 0.81539 0.50093 0.0
H2236 H 0.78912 0.83196 0.47553 0.0
H2237 H 0.82397 0.87222 0.44014 0.0
H2238 H 0.77127 0.94233 0.39353 0.0
H2239 H 0.79011 0.92028 0.41277 0.0
H2240 H 0.75357 0.87938 0.44592 0.0
C2241 C 0.80245 0.83806 0.48059 0.0
C2242 C 0.80861 0.8737 0.44157 0.0
C2243 C 0.81253 0.82852 0.49507 0.0
C2244 C 0.76501 0.92867 0.39736 0.0
C2245 C 0.77588 0.91595 0.40841 0.0
C2246 C 0.76889 0.87765 0.44424 0.0
C2247 C 0.80967 0.85507 0.4725 0.0
C2248 C 0.79892 0.86536 0.45715 0.0
C2249 C 0.76799 0.89857 0.41486 0.0
C2250 C 0.7786 0.88632 0.42884 0.0
H2251 H 0.85084 0.85851 0.49856 0.0
H2252 H 0.83311 0.87542 0.47361 0.0
H2253 H 0.771 0.86129 0.47008 0.0
H2254 H 0.72389 0.90254 0.39431 0.0
H2255 H 0.74297 0.88025 0.41319 0.0
C2256 C 0.02333 0.43927 0.33016 0.0
C2257 C 0.02198 0.43045 0.31213 0.0
C2258 C 0.01839 0.45852 0.33241 0.0
C2259 C 0.99492 0.49948 0.30731 0.0
H2260 H 0.02826 0.52999 0.33966 0.0
C2261 C 0.00195 0.58071 0.29985 0.0
C2262 C 0.99504 0.5907 0.3159 0.0
C2263 C 0.00597 0.56121 0.30111 0.0
C2264 C 0.01884 0.52155 0.33068 0.0
H2265 H 0.01387 0.43467 0.28245 0.0
H2266 H 0.00595 0.46825 0.28615 0.0
H2267 H 0.03215 0.49522 0.33872 0.0
H2268 H 0.98835 0.58849 0.34617 0.0
H2269 H 0.99605 0.55432 0.34841 0.0
H2270 H 0.98233 0.52606 0.29861 0.0
C2271 C 0.01029 0.46031 0.29874 0.0
C2272 C 0.02089 0.50165 0.33023 0.0
C2273 C 0.01492 0.44102 0.29657 0.0
C2274 C 0.99359 0.58112 0.33356 0.0
C2275 C 0.99798 0.56165 0.33487 0.0
C2276 C 0.99315 0.51936 0.30749 0.0
C2277 C 0.01229 0.46942 0.3166 0.0
C2278 C 0.00908 0.49038 0.31836 0.0
C2279 C 0.00355 0.55148 0.31849 0.0
C2280 C 0.00522 0.5305 0.31901 0.0
H2281 H 0.02858 0.43142 0.34245 0.0
H2282 H 0.01968 0.46493 0.34646 0.0
H2283 H 0.98526 0.49129 0.29837 0.0
H2284 H 0.00316 0.58766 0.28604 0.0
H2285 H 0.01037 0.55355 0.28834 0.0
C2286 C 0.00776 0.57907 0.71018 0.0
C2287 C 0.02207 0.58804 0.69923 0.0
C2288 C 0.00279 0.56003 0.70663 0.0
C2289 C 0.02392 0.51602 0.68847 0.0
H2290 H 0.97185 0.49682 0.68976 0.0
C2291 C 0.97915 0.44076 0.68013 0.0
C2292 C 0.9887 0.42942 0.69377 0.0
C2293 C 0.9839 0.46002 0.67786 0.0
C2294 C 0.98645 0.50201 0.68915 0.0
H2295 H 0.04168 0.58432 0.67534 0.0
H2296 H 0.03301 0.55112 0.6693 0.0
H2297 H 0.97758 0.53132 0.69102 0.0
H2298 H 0.0115 0.42913 0.71488 0.0
H2299 H 0.01985 0.4628 0.71079 0.0
H2300 H 0.0328 0.4867 0.68702 0.0
C2301 C 0.0258 0.55879 0.68071 0.0
C2302 C 0.98972 0.5217 0.69003 0.0
C2303 C 0.03068 0.57783 0.68414 0.0
C2304 C 0.00382 0.43749 0.70431 0.0
C2305 C 0.00866 0.45674 0.70192 0.0
C2306 C 0.02066 0.49632 0.68776 0.0
C2307 C 0.01211 0.54959 0.69217 0.0
C2308 C 0.00849 0.52887 0.68988 0.0
C2309 C 0.9984 0.46828 0.68904 0.0
C2310 C 0.00191 0.48914 0.68828 0.0
H2311 H 0.00082 0.58655 0.72186 0.0
H2312 H 0.99225 0.55322 0.71575 0.0
H2313 H 0.03855 0.52118 0.68852 0.0
H2314 H 0.96749 0.43499 0.67169 0.0
H2315 H 0.97595 0.46857 0.66765 0.0
C2316 C 0.30407 0.0103 0.43837 0.0
C2317 C 0.31539 0.02446 0.42964 0.0
C2318 C 0.30703 0.00543 0.45754 0.0
C2319 C 0.32286 0.99247 0.49629 0.0
H2320 H 0.3243 0.03573 0.53118 0.0
C2321 C 0.33128 0.98261 0.57745 0.0
C2322 C 0.31702 0.99173 0.58837 0.0
C2323 C 0.33385 0.98731 0.55823 0.0
C2324 C 0.32399 0.02355 0.52158 0.0
H2325 H 0.3393 0.04394 0.43391 0.0
H2326 H 0.34428 0.03547 0.46733 0.0
H2327 H 0.32368 0.04133 0.49664 0.0
H2328 H 0.29509 0.01376 0.58799 0.0
H2329 H 0.29976 0.02208 0.55439 0.0
H2330 H 0.32276 0.9747 0.52124 0.0
C2331 C 0.33307 0.02829 0.45938 0.0
C2332 C 0.32378 0.02672 0.50187 0.0
C2333 C 0.33023 0.03305 0.44022 0.0
C2334 C 0.30613 0.00641 0.57995 0.0
C2335 C 0.30885 0.01124 0.56075 0.0
C2336 C 0.32328 0.98929 0.516 0.0
C2337 C 0.32126 0.01473 0.4683 0.0
C2338 C 0.32295 0.01121 0.48907 0.0
C2339 C 0.32239 0.00137 0.54962 0.0
C2340 C 0.32359 0.00481 0.5288 0.0
H2341 H 0.29257 0.00338 0.43061 0.0
H2342 H 0.29768 0.99498 0.46415 0.0
H2343 H 0.3223 0.98029 0.48669 0.0
H2344 H 0.33998 0.97129 0.5835 0.0
H2345 H 0.34455 0.97968 0.54997 0.0
C2346 C 0.70654 0.01116 0.57892 0.0
C2347 C 0.69648 0.02643 0.58733 0.0
C2348 C 0.70298 0.00596 0.55995 0.0
C2349 C 0.68675 0.99311 0.52153 0.0
H2350 H 0.68749 0.03552 0.48562 0.0
C2351 C 0.6808 0.98109 0.44041 0.0
C2352 C 0.69531 0.98997 0.42962 0.0
C2353 C 0.67767 0.98633 0.45943 0.0
C2354 C 0.68718 0.02356 0.4955 0.0
H2355 H 0.67406 0.04753 0.58272 0.0
H2356 H 0.66798 0.03841 0.54962 0.0
H2357 H 0.68787 0.04194 0.51999 0.0
H2358 H 0.71718 0.01205 0.43003 0.0
H2359 H 0.71165 0.02119 0.46327 0.0
H2360 H 0.68668 0.97473 0.49704 0.0
C2361 C 0.67872 0.03064 0.55767 0.0
C2362 C 0.68722 0.02722 0.51514 0.0
C2363 C 0.68217 0.03578 0.57666 0.0
C2364 C 0.70594 0.00488 0.43796 0.0
C2365 C 0.70272 0.01019 0.45696 0.0
C2366 C 0.68655 0.98946 0.5019 0.0
C2367 C 0.68937 0.01597 0.54903 0.0
C2368 C 0.68734 0.01202 0.52833 0.0
C2369 C 0.68886 0.00064 0.46799 0.0
C2370 C 0.68711 0.00465 0.4887 0.0
H2371 H 0.7176 0.00363 0.58676 0.0
H2372 H 0.7115 0.99466 0.55358 0.0
H2373 H 0.68672 0.98116 0.53141 0.0
H2374 H 0.67225 0.96963 0.43441 0.0
H2375 H 0.66673 0.97892 0.46756 0.0
C2376 C 0.43971 0.33823 0.03551 0.0
C2377 C 0.42899 0.32376 0.02647 0.0
C2378 C 0.45873 0.34146 0.03037 0.0
C2379 C 0.49505 0.33238 0.99328 0.0
H2380 H 0.53068 0.33256 0.03593 0.0
C2381 C 0.57865 0.31372 0.00599 0.0
C2382 C 0.58704 0.32411 0.99094 0.0
C2383 C 0.5596 0.31696 0.01111 0.0
C2384 C 0.52089 0.33261 0.02391 0.0
H2385 H 0.42953 0.30212 0.00416 0.0
H2386 H 0.46279 0.30784 0.99518 0.0
H2387 H 0.49626 0.33232 0.04212 0.0
H2388 H 0.58229 0.34678 0.97016 0.0
H2389 H 0.54905 0.35232 0.97913 0.0
H2390 H 0.51968 0.33208 0.97507 0.0
C2391 C 0.45642 0.31665 0.00625 0.0
C2392 C 0.50122 0.33264 0.02743 0.0
C2393 C 0.4374 0.31332 0.01146 0.0
C2394 C 0.57625 0.33843 0.98175 0.0
C2395 C 0.55719 0.34156 0.98679 0.0
C2396 C 0.51472 0.33251 0.98976 0.0
C2397 C 0.46739 0.33041 0.016 0.0
C2398 C 0.48813 0.33222 0.01215 0.0
C2399 C 0.54857 0.33057 0.00123 0.0
C2400 C 0.52781 0.3323 0.00505 0.0
H2401 H 0.43366 0.34664 0.04705 0.0
H2402 H 0.46681 0.35234 0.03793 0.0
H2403 H 0.48526 0.33216 0.98126 0.0
H2404 H 0.58658 0.30264 0.0134 0.0
H2405 H 0.55326 0.3082 0.02223 0.0
C2406 C 0.57722 0.68083 0.03484 0.0
C2407 C 0.58835 0.69475 0.02544 0.0
C2408 C 0.55803 0.67827 0.03003 0.0
C2409 C 0.52171 0.68734 0.99327 0.0
H2410 H 0.4865 0.69022 0.03621 0.0
C2411 C 0.43827 0.70731 0.00511 0.0
C2412 C 0.42982 0.69566 0.99104 0.0
C2413 C 0.45736 0.7045 0.01039 0.0
C2414 C 0.49619 0.68934 0.02413 0.0
H2415 H 0.58835 0.71603 0.00279 0.0
H2416 H 0.55478 0.71137 0.99428 0.0
H2417 H 0.52103 0.68998 0.04205 0.0
H2418 H 0.43447 0.6712 0.97234 0.0
H2419 H 0.46771 0.66646 0.98154 0.0
H2420 H 0.49689 0.68708 0.97532 0.0
C2421 C 0.56097 0.70255 0.00543 0.0
C2422 C 0.51589 0.68904 0.02745 0.0
C2423 C 0.58016 0.70525 0.01035 0.0
C2424 C 0.44055 0.68055 0.98311 0.0
C2425 C 0.45962 0.67785 0.98829 0.0
C2426 C 0.50201 0.68742 0.98996 0.0
C2427 C 0.54962 0.68941 0.01559 0.0
C2428 C 0.52881 0.68827 0.01203 0.0
C2429 C 0.46832 0.69008 0.00162 0.0
C2430 C 0.48909 0.68865 0.00535 0.0
H2431 H 0.58309 0.6724 0.04646 0.0
H2432 H 0.54962 0.66787 0.03789 0.0
H2433 H 0.53139 0.68668 0.98117 0.0
H2434 H 0.43039 0.71902 0.01153 0.0
H2435 H 0.46379 0.71416 0.02068 0.0
C2436 C 0.50572 0.07716 0.81023 0.0
C2437 C 0.49063 0.08597 0.82022 0.0
C2438 C 0.51038 0.05805 0.81378 0.0
C2439 C 0.48813 0.01368 0.82923 0.0
H2440 H 0.54032 0.99486 0.83144 0.0
C2441 C 0.53346 0.93861 0.8372 0.0
C2442 C 0.52529 0.92797 0.82217 0.0
C2443 C 0.52799 0.95754 0.84035 0.0
C2444 C 0.52566 0.99992 0.8311 0.0
H2445 H 0.46918 0.08187 0.84239 0.0
H2446 H 0.47731 0.04849 0.84843 0.0
H2447 H 0.53439 0.02931 0.83098 0.0
H2448 H 0.50402 0.92847 0.79952 0.0
H2449 H 0.49445 0.9616 0.80509 0.0
H2450 H 0.47944 0.98426 0.82886 0.0
C2451 C 0.4854 0.05637 0.83779 0.0
C2452 C 0.5223 0.0196 0.83067 0.0
C2453 C 0.48083 0.0755 0.83437 0.0
C2454 C 0.51066 0.9363 0.81115 0.0
C2455 C 0.50511 0.95524 0.81439 0.0
C2456 C 0.49151 0.99398 0.82949 0.0
C2457 C 0.49997 0.04738 0.82729 0.0
C2458 C 0.50352 0.02664 0.82948 0.0
C2459 C 0.51414 0.96618 0.82865 0.0
C2460 C 0.51031 0.98693 0.83019 0.0
H2461 H 0.51358 0.08484 0.79929 0.0
H2462 H 0.52162 0.0514 0.8054 0.0
H2463 H 0.47351 0.01875 0.82814 0.0
H2464 H 0.54466 0.9326 0.84609 0.0
H2465 H 0.53497 0.96561 0.85162 0.0
C2466 C 0.48181 0.93989 0.18079 0.0
C2467 C 0.49058 0.92896 0.19525 0.0
C2468 C 0.48693 0.95898 0.178 0.0
C2469 C 0.5236 0.99528 0.18832 0.0
H2470 H 0.48072 0.03066 0.1885 0.0
C2471 C 0.51029 0.07846 0.20831 0.0
C2472 C 0.52515 0.08716 0.1979 0.0
C2473 C 0.50537 0.0594 0.20484 0.0
C2474 C 0.4928 0.02093 0.18836 0.0
H2475 H 0.51243 0.92917 0.21735 0.0
H2476 H 0.52142 0.96256 0.21239 0.0
H2477 H 0.47475 0.9962 0.188 0.0
H2478 H 0.54583 0.08295 0.17502 0.0
H2479 H 0.53724 0.04969 0.16912 0.0
H2480 H 0.54164 0.02002 0.18922 0.0
C2481 C 0.51055 0.9563 0.20326 0.0
C2482 C 0.48941 0.00125 0.1879 0.0
C2483 C 0.50534 0.93722 0.20614 0.0
C2484 C 0.53439 0.07667 0.18339 0.0
C2485 C 0.52956 0.05759 0.18004 0.0
C2486 C 0.52699 0.01497 0.1886 0.0
C2487 C 0.50103 0.96748 0.18951 0.0
C2488 C 0.50478 0.98826 0.18818 0.0
C2489 C 0.51528 0.04868 0.191 0.0
C2490 C 0.51161 0.02795 0.18893 0.0
H2491 H 0.47046 0.93396 0.17203 0.0
H2492 H 0.47956 0.96724 0.16713 0.0
H2493 H 0.53568 0.98554 0.18846 0.0
H2494 H 0.50286 0.08616 0.21953 0.0
H2495 H 0.49437 0.05281 0.21357 0.0
C2496 C 0.81158 0.50632 0.08221 0.0
C2497 C 0.82245 0.49142 0.09028 0.0
C2498 C 0.81401 0.51131 0.06301 0.0
C2499 C 0.82805 0.52352 0.02337 0.0
H2500 H 0.82571 0.48012 0.98869 0.0
C2501 C 0.83278 0.53264 0.94185 0.0
C2502 C 0.81791 0.52383 0.93148 0.0
C2503 C 0.83585 0.52806 0.96101 0.0
C2504 C 0.82643 0.49234 0.99822 0.0
H2505 H 0.84525 0.47093 0.08483 0.0
H2506 H 0.84933 0.47964 0.05133 0.0
H2507 H 0.82698 0.47467 0.02323 0.0
H2508 H 0.79528 0.50259 0.93284 0.0
H2509 H 0.8008 0.49449 0.96641 0.0
H2510 H 0.82708 0.5412 0.99837 0.0
C2511 C 0.83883 0.48727 0.05984 0.0
C2512 C 0.82732 0.48925 0.01793 0.0
C2513 C 0.83653 0.48238 0.07905 0.0
C2514 C 0.8068 0.50966 0.94044 0.0
C2515 C 0.80999 0.50497 0.95962 0.0
C2516 C 0.82735 0.52662 0.00365 0.0
C2517 C 0.82725 0.50142 0.05153 0.0
C2518 C 0.82791 0.50481 0.03068 0.0
C2519 C 0.82426 0.51447 0.97017 0.0
C2520 C 0.82629 0.51105 0.99093 0.0
H2521 H 0.80068 0.51361 0.09049 0.0
H2522 H 0.80485 0.52224 0.0569 0.0
H2523 H 0.82855 0.53575 0.03291 0.0
H2524 H 0.8417 0.54354 0.93537 0.0
H2525 H 0.8471 0.53538 0.96878 0.0
C2526 C 0.19958 0.50604 0.93775 0.0
C2527 C 0.18912 0.49109 0.92926 0.0
C2528 C 0.19621 0.51117 0.95677 0.0
C2529 C 0.18089 0.52354 0.99578 0.0
H2530 H 0.18197 0.48013 0.03047 0.0
C2531 C 0.17834 0.53348 0.07726 0.0
C2532 C 0.19335 0.52431 0.08708 0.0
C2533 C 0.17418 0.52865 0.05835 0.0
C2534 C 0.18154 0.49235 0.02094 0.0
H2535 H 0.16604 0.47069 0.93369 0.0
H2536 H 0.1603 0.47965 0.96688 0.0
H2537 H 0.18103 0.47467 0.99594 0.0
H2538 H 0.21496 0.50206 0.08513 0.0
H2539 H 0.2076 0.49359 0.05206 0.0
H2540 H 0.18204 0.54121 0.02076 0.0
C2541 C 0.17121 0.48722 0.95886 0.0
C2542 C 0.18083 0.48926 0.00122 0.0
C2543 C 0.17448 0.48216 0.93983 0.0
C2544 C 0.20337 0.50944 0.07795 0.0
C2545 C 0.1991 0.50453 0.05905 0.0
C2546 C 0.18142 0.52663 0.0155 0.0
C2547 C 0.18239 0.5014 0.96764 0.0
C2548 C 0.18087 0.50482 0.98846 0.0
C2549 C 0.18482 0.51445 0.04894 0.0
C2550 C 0.18212 0.51106 0.02824 0.0
H2551 H 0.2109 0.51326 0.92998 0.0
H2552 H 0.2051 0.5221 0.96325 0.0
H2553 H 0.18084 0.53576 0.98623 0.0
H2554 H 0.17022 0.54491 0.0839 0.0
H2555 H 0.16293 0.53633 0.05093 0.0
C2556 C 0.94323 0.79032 0.51821 0.0
C2557 C 0.93333 0.80691 0.52375 0.0
C2558 C 0.96281 0.79104 0.5144 0.0
C2559 C 0.00552 0.82105 0.52417 0.0
H2560 H 0.029 0.78745 0.4867 0.0
C2561 C 0.08333 0.82635 0.49531 0.0
C2562 C 0.09359 0.80905 0.49451 0.0
C2563 C 0.06416 0.82646 0.50093 0.0
C2564 C 0.02259 0.79677 0.49733 0.0
H2565 H 0.93587 0.83747 0.52863 0.0
H2566 H 0.9699 0.83893 0.5211 0.0
H2567 H 0.99431 0.78763 0.49026 0.0
H2568 H 0.09218 0.77847 0.49989 0.0
H2569 H 0.05851 0.77868 0.50935 0.0
H2570 H 0.03399 0.83065 0.53058 0.0
C2571 C 0.96272 0.82521 0.5204 0.0
C2572 C 0.00275 0.79687 0.49942 0.0
C2573 C 0.94319 0.82442 0.52452 0.0
C2574 C 0.08465 0.79202 0.50041 0.0
C2575 C 0.06539 0.7921 0.5057 0.0
C2576 C 0.02538 0.82118 0.52182 0.0
C2577 C 0.97287 0.80844 0.51573 0.0
C2578 C 0.99395 0.80892 0.51295 0.0
C2579 C 0.05491 0.80924 0.50553 0.0
C2580 C 0.03403 0.80892 0.50849 0.0
H2581 H 0.93605 0.77658 0.51767 0.0
H2582 H 0.97016 0.77778 0.51113 0.0
H2583 H 0.99931 0.83025 0.535 0.0
H2584 H 0.08991 0.83969 0.49092 0.0
H2585 H 0.05629 0.83983 0.50069 0.0
C2586 C 0.08488 0.20956 0.50779 0.0
C2587 C 0.09293 0.19843 0.5225 0.0
C2588 C 0.06583 0.20686 0.50236 0.0
C2589 C 0.02072 0.19186 0.52323 0.0
H2590 H 0.00192 0.19348 0.47102 0.0
C2591 C 0.94526 0.18602 0.47889 0.0
C2592 C 0.93439 0.20019 0.48822 0.0
C2593 C 0.96452 0.18341 0.48338 0.0
C2594 C 0.007 0.19283 0.48566 0.0
H2595 H 0.08765 0.1749 0.54216 0.0
H2596 H 0.05443 0.17032 0.53269 0.0
H2597 H 0.03642 0.19256 0.47696 0.0
H2598 H 0.93502 0.22215 0.51021 0.0
H2599 H 0.96875 0.21744 0.51816 0.0
H2600 H 0.99133 0.19253 0.53195 0.0
C2601 C 0.06282 0.18124 0.52555 0.0
C2602 C 0.02668 0.19243 0.48904 0.0
C2603 C 0.08187 0.18383 0.53088 0.0
C2604 C 0.94301 0.21115 0.50273 0.0
C2605 C 0.96228 0.20842 0.50733 0.0
C2606 C 0.00105 0.19245 0.51986 0.0
C2607 C 0.0545 0.19306 0.51162 0.0
C2608 C 0.03371 0.19208 0.50786 0.0
C2609 C 0.97327 0.19478 0.49742 0.0
C2610 C 0.99403 0.19309 0.50105 0.0
H2611 H 0.09303 0.22087 0.50099 0.0
H2612 H 0.05971 0.21621 0.49161 0.0
H2613 H 0.02579 0.19182 0.53789 0.0
H2614 H 0.93906 0.17725 0.46769 0.0
H2615 H 0.97265 0.17265 0.47571 0.0
loop_
_geom_bond_atom_site_label_1
_geom_bond_atom_site_label_2
_geom_bond_distance
_geom_bond_site_symmetry_2
_ccdc_geom_bond_type
Co0 O3 1.940 1_655 S
Co0 N17 1.997 . S
Co0 O25 1.957 1_655 S
Co0 O32 1.949 . S
Co1 O4 1.966 . S
Co1 N10 2.022 . S
Co1 N18 1.993 . S
Co1 O26 1.941 . S
C2 O3 1.258 . S
C2 O4 1.263 . S
O3 Co0 1.940 1_455 S
O3 C2 1.258 . S
O4 Co1 1.966 . S
O4 C2 1.263 . S
C5 O6 1.235 . S
C5 O32 1.289 . S
O6 C5 1.235 . S
C7 C9 1.400 . S
C7 N10 1.351 . S
C7 C12 1.501 . S
C8 C9 1.387 . S
C8 N11 1.341 . S
C9 C7 1.400 . S
C9 C8 1.387 . S
N10 Co1 2.022 . S
N10 C7 1.351 . S
N10 N11 1.365 . S
N11 C8 1.341 . S
N11 N10 1.365 . S
N11 H31 0.862 . S
C12 C7 1.501 . S
C12 H13 0.961 . S
C12 H14 0.961 . S
C12 H15 0.960 . S
H13 C12 0.961 . S
H14 C12 0.961 . S
H15 C12 0.960 . S
C16 N17 1.342 . S
C16 C20 1.401 . S
C16 C21 1.499 . S
N17 Co0 1.997 . S
N17 C16 1.342 . S
N17 N18 1.388 1_655 S
N18 Co1 1.993 . S
N18 N17 1.388 1_455 S
N18 C19 1.356 . S
C19 N18 1.356 . S
C19 C20 1.371 1_455 S
C19 C29 1.525 . S
C20 C16 1.401 . S
C20 C19 1.371 1_655 S
C21 C16 1.499 . S
C21 H22 0.959 . S
C21 H23 0.960 . S
C21 H24 0.961 . S
H22 C21 0.959 . S
H23 C21 0.960 . S
H24 C21 0.961 . S
O25 Co0 1.957 1_455 S
O25 C33 1.258 . S
O26 Co1 1.941 . S
O26 C33 1.266 . S
H27 C29 0.959 . S
H28 C29 0.961 . S
C29 C19 1.525 . S
C29 H27 0.959 . S
C29 H28 0.961 . S
C29 H30 0.960 . S
H30 C29 0.960 . S
H31 N11 0.862 . S
O32 Co0 1.949 . S
O32 C5 1.289 . S
C33 O25 1.258 . S
C33 O26 1.266 . S
Co34 O37 1.970 1_455 S
Co34 N51 1.989 . S
Co34 O59 1.967 . S
Co34 O66 1.920 . S
Co35 O38 1.966 . S
Co35 N44 2.022 . S
Co35 N52 1.993 1_655 S
Co35 O60 1.941 . S
C36 O37 1.258 . S
C36 O38 1.263 . S
O37 Co34 1.970 1_655 S
O37 C36 1.258 . S
O38 Co35 1.966 . S
O38 C36 1.263 . S
C39 O40 1.235 . S
C39 O66 1.289 . S
O40 C39 1.235 . S
C41 C43 1.400 . S
C41 N44 1.351 . S
C41 C46 1.501 . S
C42 C43 1.387 . S
C42 N45 1.341 . S
C43 C41 1.400 . S
C43 C42 1.387 . S
N44 Co35 2.022 . S
N44 C41 1.351 . S
N44 N45 1.365 . S
N45 C42 1.341 . S
N45 N44 1.365 . S
N45 H65 0.862 . S
C46 C41 1.501 . S
C46 H47 0.961 . S
C46 H48 0.961 . S
C46 H49 0.960 . S
H47 C46 0.961 . S
H48 C46 0.961 . S
H49 C46 0.960 . S
C50 N51 1.342 . S
C50 C54 1.401 . S
C50 C55 1.499 . S
N51 Co34 1.989 . S
N51 C50 1.342 . S
N51 N52 1.388 . S
N52 Co35 1.993 1_455 S
N52 N51 1.388 . S
N52 C53 1.346 . S
C53 N52 1.346 . S
C53 C54 1.396 . S
C53 C63 1.510 . S
C54 C50 1.401 . S
C54 C53 1.396 . S
C55 C50 1.499 . S
C55 H56 0.959 . S
C55 H57 0.960 . S
C55 H58 0.961 . S
H56 C55 0.959 . S
H57 C55 0.960 . S
H58 C55 0.961 . S
O59 Co34 1.967 . S
O59 C67 1.266 . S
O60 Co35 1.941 . S
O60 C67 1.257 1_655 S
H61 C63 0.959 . S
H62 C63 0.961 . S
C63 C53 1.510 . S
C63 H61 0.959 . S
C63 H62 0.961 . S
C63 H64 0.960 1_455 S
H64 C63 0.960 1_655 S
H65 N45 0.862 . S
O66 Co34 1.920 . S
O66 C39 1.289 . S
C67 O59 1.266 . S
C67 O60 1.257 1_455 S
Co68 O71 1.940 1_655 S
Co68 N85 1.997 . S
Co68 O93 1.957 1_655 S
Co68 O100 1.949 . S
Co69 O72 1.966 . S
Co69 N78 2.022 . S
Co69 N86 1.993 . S
Co69 O94 1.941 . S
C70 O71 1.258 . S
C70 O72 1.263 . S
O71 Co68 1.940 1_455 S
O71 C70 1.258 . S
O72 Co69 1.966 . S
O72 C70 1.263 . S
C73 O74 1.235 . S
C73 O100 1.289 . S
O74 C73 1.235 . S
C75 C77 1.400 . S
C75 N78 1.351 . S
C75 C80 1.501 . S
C76 C77 1.387 . S
C76 N79 1.341 . S
C77 C75 1.400 . S
C77 C76 1.387 . S
N78 Co69 2.022 . S
N78 C75 1.351 . S
N78 N79 1.365 . S
N79 C76 1.341 . S
N79 N78 1.365 . S
N79 H99 0.862 . S
C80 C75 1.501 . S
C80 H81 0.961 . S
C80 H82 0.961 . S
C80 H83 0.960 . S
H81 C80 0.961 . S
H82 C80 0.961 . S
H83 C80 0.960 . S
C84 N85 1.342 . S
C84 C88 1.401 . S
C84 C89 1.499 . S
N85 Co68 1.997 . S
N85 C84 1.342 . S
N85 N86 1.388 1_655 S
N86 Co69 1.993 . S
N86 N85 1.388 1_455 S
N86 C87 1.356 . S
C87 N86 1.356 . S
C87 C88 1.371 1_455 S
C87 C97 1.525 . S
C88 C84 1.401 . S
C88 C87 1.371 1_655 S
C89 C84 1.499 . S
C89 H90 0.959 . S
C89 H91 0.960 . S
C89 H92 0.961 . S
H90 C89 0.959 . S
H91 C89 0.960 . S
H92 C89 0.961 . S
O93 Co68 1.957 1_455 S
O93 C101 1.258 . S
O94 Co69 1.941 . S
O94 C101 1.266 . S
H95 C97 0.959 . S
H96 C97 0.961 . S
C97 C87 1.525 . S
C97 H95 0.959 . S
C97 H96 0.961 . S
C97 H98 0.960 . S
H98 C97 0.960 . S
H99 N79 0.862 . S
O100 Co68 1.949 . S
O100 C73 1.289 . S
C101 O93 1.258 . S
C101 O94 1.266 . S
Co102 O105 1.970 1_455 S
Co102 N119 1.989 . S
Co102 O127 1.967 . S
Co102 O134 1.920 . S
Co103 O106 1.966 . S
Co103 N112 2.022 . S
Co103 N120 1.993 1_655 S
Co103 O128 1.941 . S
C104 O105 1.258 . S
C104 O106 1.263 . S
O105 Co102 1.970 1_655 S
O105 C104 1.258 . S
O106 Co103 1.966 . S
O106 C104 1.263 . S
C107 O108 1.235 . S
C107 O134 1.289 . S
O108 C107 1.235 . S
C109 C111 1.400 . S
C109 N112 1.351 . S
C109 C114 1.501 . S
C110 C111 1.387 . S
C110 N113 1.341 . S
C111 C109 1.400 . S
C111 C110 1.387 . S
N112 Co103 2.022 . S
N112 C109 1.351 . S
N112 N113 1.365 . S
N113 C110 1.341 . S
N113 N112 1.365 . S
N113 H133 0.862 . S
C114 C109 1.501 . S
C114 H115 0.961 . S
C114 H116 0.961 . S
C114 H117 0.960 . S
H115 C114 0.961 . S
H116 C114 0.961 . S
H117 C114 0.960 . S
C118 N119 1.342 . S
C118 C122 1.401 . S
C118 C123 1.499 . S
N119 Co102 1.989 . S
N119 C118 1.342 . S
N119 N120 1.388 . S
N120 Co103 1.993 1_455 S
N120 N119 1.388 . S
N120 C121 1.346 . S
C121 N120 1.346 . S
C121 C122 1.396 . S
C121 C131 1.510 . S
C122 C118 1.401 . S
C122 C121 1.396 . S
C123 C118 1.499 . S
C123 H124 0.959 . S
C123 H125 0.960 . S
C123 H126 0.961 . S
H124 C123 0.959 . S
H125 C123 0.960 . S
H126 C123 0.961 . S
O127 Co102 1.967 . S
O127 C135 1.266 . S
O128 Co103 1.941 . S
O128 C135 1.257 1_655 S
H129 C131 0.959 . S
H130 C131 0.961 . S
C131 C121 1.510 . S
C131 H129 0.959 . S
C131 H130 0.961 . S
C131 H132 0.960 1_455 S
H132 C131 0.960 1_655 S
H133 N113 0.862 . S
O134 Co102 1.920 . S
O134 C107 1.289 . S
C135 O127 1.266 . S
C135 O128 1.257 1_455 S
Co136 O139 1.940 1_565 S
Co136 N153 1.997 . S
Co136 O161 1.957 1_565 S
Co136 O168 1.949 . S
Co137 O140 1.966 . S
Co137 N146 2.022 . S
Co137 N154 1.993 . S
Co137 O162 1.941 . S
C138 O139 1.258 . S
C138 O140 1.263 . S
O139 Co136 1.940 1_545 S
O139 C138 1.258 . S
O140 Co137 1.966 . S
O140 C138 1.263 . S
C141 O142 1.235 . S
C141 O168 1.289 . S
O142 C141 1.235 . S
C143 C145 1.400 . S
C143 N146 1.351 . S
C143 C148 1.501 . S
C144 C145 1.387 . S
C144 N147 1.341 . S
C145 C143 1.400 . S
C145 C144 1.387 . S
N146 Co137 2.022 . S
N146 C143 1.351 . S
N146 N147 1.365 . S
N147 C144 1.341 . S
N147 N146 1.365 . S
N147 H167 0.862 . S
C148 C143 1.501 . S
C148 H149 0.961 . S
C148 H150 0.961 . S
C148 H151 0.960 . S
H149 C148 0.961 . S
H150 C148 0.961 . S
H151 C148 0.960 . S
C152 N153 1.342 . S
C152 C156 1.401 . S
C152 C157 1.499 . S
N153 Co136 1.997 . S
N153 C152 1.342 . S
N153 N154 1.388 1_565 S
N154 Co137 1.993 . S
N154 N153 1.388 1_545 S
N154 C155 1.356 . S
C155 N154 1.356 . S
C155 C156 1.371 1_545 S
C155 C165 1.525 . S
C156 C152 1.401 . S
C156 C155 1.371 1_565 S
C157 C152 1.499 . S
C157 H158 0.959 . S
C157 H159 0.960 . S
C157 H160 0.961 . S
H158 C157 0.959 . S
H159 C157 0.960 . S
H160 C157 0.961 . S
O161 Co136 1.957 1_545 S
O161 C169 1.258 . S
O162 Co137 1.941 . S
O162 C169 1.266 . S
H163 C165 0.959 . S
H164 C165 0.961 . S
C165 C155 1.525 . S
C165 H163 0.959 . S
C165 H164 0.961 . S
C165 H166 0.960 . S
H166 C165 0.960 . S
H167 N147 0.862 . S
O168 Co136 1.949 . S
O168 C141 1.289 . S
C169 O161 1.258 . S
C169 O162 1.266 . S
Co170 O173 1.970 1_545 S
Co170 N187 1.989 . S
Co170 O195 1.967 . S
Co170 O202 1.920 . S
Co171 O174 1.966 . S
Co171 N180 2.022 . S
Co171 N188 1.993 1_565 S
Co171 O196 1.941 . S
C172 O173 1.258 . S
C172 O174 1.263 . S
O173 Co170 1.970 1_565 S
O173 C172 1.258 . S
O174 Co171 1.966 . S
O174 C172 1.263 . S
C175 O176 1.235 . S
C175 O202 1.289 . S
O176 C175 1.235 . S
C177 C179 1.400 . S
C177 N180 1.351 . S
C177 C182 1.501 . S
C178 C179 1.387 . S
C178 N181 1.341 . S
C179 C177 1.400 . S
C179 C178 1.387 . S
N180 Co171 2.022 . S
N180 C177 1.351 . S
N180 N181 1.365 . S
N181 C178 1.341 . S
N181 N180 1.365 . S
N181 H201 0.862 . S
C182 C177 1.501 . S
C182 H183 0.961 . S
C182 H184 0.961 . S
C182 H185 0.960 . S
H183 C182 0.961 . S
H184 C182 0.961 . S
H185 C182 0.960 . S
C186 N187 1.342 . S
C186 C190 1.401 . S
C186 C191 1.499 . S
N187 Co170 1.989 . S
N187 C186 1.342 . S
N187 N188 1.388 . S
N188 Co171 1.993 1_545 S
N188 N187 1.388 . S
N188 C189 1.346 . S
C189 N188 1.346 . S
C189 C190 1.396 . S
C189 C199 1.510 . S
C190 C186 1.401 . S
C190 C189 1.396 . S
C191 C186 1.499 . S
C191 H192 0.959 . S
C191 H193 0.960 . S
C191 H194 0.961 . S
H192 C191 0.959 . S
H193 C191 0.960 . S
H194 C191 0.961 . S
O195 Co170 1.967 . S
O195 C203 1.266 . S
O196 Co171 1.941 . S
O196 C203 1.257 1_565 S
H197 C199 0.959 . S
H198 C199 0.961 . S
C199 C189 1.510 . S
C199 H197 0.959 . S
C199 H198 0.961 . S
C199 H200 0.960 1_545 S
H200 C199 0.960 1_565 S
H201 N181 0.862 . S
O202 Co170 1.920 . S
O202 C175 1.289 . S
C203 O195 1.266 . S
C203 O196 1.257 1_545 S
Co204 O207 1.970 1_545 S
Co204 N221 1.989 . S
Co204 O229 1.967 . S
Co204 O236 1.920 . S
Co205 O208 1.966 . S
Co205 N214 2.022 . S
Co205 N222 1.993 1_565 S
Co205 O230 1.941 . S
C206 O207 1.258 . S
C206 O208 1.263 . S
O207 Co204 1.970 1_565 S
O207 C206 1.258 . S
O208 Co205 1.966 . S
O208 C206 1.263 . S
C209 O210 1.235 . S
C209 O236 1.289 . S
O210 C209 1.235 . S
C211 C213 1.400 . S
C211 N214 1.351 . S
C211 C216 1.501 . S
C212 C213 1.387 . S
C212 N215 1.341 . S
C213 C211 1.400 . S
C213 C212 1.387 . S
N214 Co205 2.022 . S
N214 C211 1.351 . S
N214 N215 1.365 . S
N215 C212 1.341 . S
N215 N214 1.365 . S
N215 H235 0.862 . S
C216 C211 1.501 . S
C216 H217 0.961 . S
C216 H218 0.961 . S
C216 H219 0.960 . S
H217 C216 0.961 . S
H218 C216 0.961 . S
H219 C216 0.960 . S
C220 N221 1.342 . S
C220 C224 1.401 . S
C220 C225 1.499 . S
N221 Co204 1.989 . S
N221 C220 1.342 . S
N221 N222 1.388 . S
N222 Co205 1.993 1_545 S
N222 N221 1.388 . S
N222 C223 1.346 . S
C223 N222 1.346 . S
C223 C224 1.396 . S
C223 C233 1.510 . S
C224 C220 1.401 . S
C224 C223 1.396 . S
C225 C220 1.499 . S
C225 H226 0.959 . S
C225 H227 0.960 . S
C225 H228 0.961 . S
H226 C225 0.959 . S
H227 C225 0.960 . S
H228 C225 0.961 . S
O229 Co204 1.967 . S
O229 C237 1.266 . S
O230 Co205 1.941 . S
O230 C237 1.257 1_565 S
H231 C233 0.959 . S
H232 C233 0.961 . S
C233 C223 1.510 . S
C233 H231 0.959 . S
C233 H232 0.961 . S
C233 H234 0.960 1_545 S
H234 C233 0.960 1_565 S
H235 N215 0.862 . S
O236 Co204 1.920 . S
O236 C209 1.289 . S
C237 O229 1.266 . S
C237 O230 1.257 1_545 S
Co238 O241 1.940 1_565 S
Co238 N255 1.997 . S
Co238 O263 1.957 1_565 S
Co238 O270 1.949 . S
Co239 O242 1.966 . S
Co239 N248 2.022 . S
Co239 N256 1.993 . S
Co239 O264 1.941 . S
C240 O241 1.258 . S
C240 O242 1.263 . S
O241 Co238 1.940 1_545 S
O241 C240 1.258 . S
O242 Co239 1.966 . S
O242 C240 1.263 . S
C243 O244 1.235 . S
C243 O270 1.289 . S
O244 C243 1.235 . S
C245 C247 1.400 . S
C245 N248 1.351 . S
C245 C250 1.501 . S
C246 C247 1.387 . S
C246 N249 1.341 . S
C247 C245 1.400 . S
C247 C246 1.387 . S
N248 Co239 2.022 . S
N248 C245 1.351 . S
N248 N249 1.365 . S
N249 C246 1.341 . S
N249 N248 1.365 . S
N249 H269 0.862 . S
C250 C245 1.501 . S
C250 H251 0.961 . S
C250 H252 0.961 . S
C250 H253 0.960 . S
H251 C250 0.961 . S
H252 C250 0.961 . S
H253 C250 0.960 . S
C254 N255 1.342 . S
C254 C258 1.401 . S
C254 C259 1.499 . S
N255 Co238 1.997 . S
N255 C254 1.342 . S
N255 N256 1.388 1_565 S
N256 Co239 1.993 . S
N256 N255 1.388 1_545 S
N256 C257 1.356 . S
C257 N256 1.356 . S
C257 C258 1.371 1_545 S
C257 C267 1.525 . S
C258 C254 1.401 . S
C258 C257 1.371 1_565 S
C259 C254 1.499 . S
C259 H260 0.959 . S
C259 H261 0.960 . S
C259 H262 0.961 . S
H260 C259 0.959 . S
H261 C259 0.960 . S
H262 C259 0.961 . S
O263 Co238 1.957 1_545 S
O263 C271 1.258 . S
O264 Co239 1.941 . S
O264 C271 1.266 . S
H265 C267 0.959 . S
H266 C267 0.961 . S
C267 C257 1.525 . S
C267 H265 0.959 . S
C267 H266 0.961 . S
C267 H268 0.960 . S
H268 C267 0.960 . S
H269 N249 0.862 . S
O270 Co238 1.949 . S
O270 C243 1.289 . S
C271 O263 1.258 . S
C271 O264 1.266 . S
Co272 O275 1.940 1_556 S
Co272 N289 1.997 . S
Co272 O297 1.957 1_556 S
Co272 O304 1.949 . S
Co273 O276 1.966 . S
Co273 N282 2.022 . S
Co273 N290 1.993 . S
Co273 O298 1.941 . S
C274 O275 1.258 . S
C274 O276 1.263 . S
O275 Co272 1.940 1_554 S
O275 C274 1.258 . S
O276 Co273 1.966 . S
O276 C274 1.263 . S
C277 O278 1.235 . S
C277 O304 1.289 . S
O278 C277 1.235 . S
C279 C281 1.400 . S
C279 N282 1.351 . S
C279 C284 1.501 . S
C280 C281 1.387 . S
C280 N283 1.341 . S
C281 C279 1.400 . S
C281 C280 1.387 . S
N282 Co273 2.022 . S
N282 C279 1.351 . S
N282 N283 1.365 . S
N283 C280 1.341 . S
N283 N282 1.365 . S
N283 H303 0.862 . S
C284 C279 1.501 . S
C284 H285 0.961 . S
C284 H286 0.961 . S
C284 H287 0.960 . S
H285 C284 0.961 . S
H286 C284 0.961 . S
H287 C284 0.960 . S
C288 N289 1.342 . S
C288 C292 1.401 . S
C288 C293 1.499 . S
N289 Co272 1.997 . S
N289 C288 1.342 . S
N289 N290 1.388 1_556 S
N290 Co273 1.993 . S
N290 N289 1.388 1_554 S
N290 C291 1.356 . S
C291 N290 1.356 . S
C291 C292 1.371 1_554 S
C291 C301 1.525 . S
C292 C288 1.401 . S
C292 C291 1.371 1_556 S
C293 C288 1.499 . S
C293 H294 0.959 . S
C293 H295 0.960 . S
C293 H296 0.961 . S
H294 C293 0.959 . S
H295 C293 0.960 . S
H296 C293 0.961 . S
O297 Co272 1.957 1_554 S
O297 C305 1.258 . S
O298 Co273 1.941 . S
O298 C305 1.266 . S
H299 C301 0.959 . S
H300 C301 0.961 . S
C301 C291 1.525 . S
C301 H299 0.959 . S
C301 H300 0.961 . S
C301 H302 0.960 . S
H302 C301 0.960 . S
H303 N283 0.862 . S
O304 Co272 1.949 . S
O304 C277 1.289 . S
C305 O297 1.258 . S
C305 O298 1.266 . S
Co306 O309 1.970 1_554 S
Co306 N323 1.989 . S
Co306 O331 1.967 . S
Co306 O338 1.920 . S
Co307 O310 1.966 . S
Co307 N316 2.022 . S
Co307 N324 1.993 1_556 S
Co307 O332 1.941 . S
C308 O309 1.258 . S
C308 O310 1.263 . S
O309 Co306 1.970 1_556 S
O309 C308 1.258 . S
O310 Co307 1.966 . S
O310 C308 1.263 . S
C311 O312 1.235 . S
C311 O338 1.289 . S
O312 C311 1.235 . S
C313 C315 1.400 . S
C313 N316 1.351 . S
C313 C318 1.501 . S
C314 C315 1.387 . S
C314 N317 1.341 . S
C315 C313 1.400 . S
C315 C314 1.387 . S
N316 Co307 2.022 . S
N316 C313 1.351 . S
N316 N317 1.365 . S
N317 C314 1.341 . S
N317 N316 1.365 . S
N317 H337 0.862 . S
C318 C313 1.501 . S
C318 H319 0.961 . S
C318 H320 0.961 . S
C318 H321 0.960 . S
H319 C318 0.961 . S
H320 C318 0.961 . S
H321 C318 0.960 . S
C322 N323 1.342 . S
C322 C326 1.401 . S
C322 C327 1.499 . S
N323 Co306 1.989 . S
N323 C322 1.342 . S
N323 N324 1.388 . S
N324 Co307 1.993 1_554 S
N324 N323 1.388 . S
N324 C325 1.346 . S
C325 N324 1.346 . S
C325 C326 1.396 . S
C325 C335 1.510 . S
C326 C322 1.401 . S
C326 C325 1.396 . S
C327 C322 1.499 . S
C327 H328 0.959 . S
C327 H329 0.960 . S
C327 H330 0.961 . S
H328 C327 0.959 . S
H329 C327 0.960 . S
H330 C327 0.961 . S
O331 Co306 1.967 . S
O331 C339 1.266 . S
O332 Co307 1.941 . S
O332 C339 1.257 1_556 S
H333 C335 0.959 . S
H334 C335 0.961 . S
C335 C325 1.510 . S
C335 H333 0.959 . S
C335 H334 0.961 . S
C335 H336 0.960 1_554 S
H336 C335 0.960 1_556 S
H337 N317 0.862 . S
O338 Co306 1.920 . S
O338 C311 1.289 . S
C339 O331 1.266 . S
C339 O332 1.257 1_554 S
Co340 O343 1.970 1_554 S
Co340 N357 1.989 . S
Co340 O365 1.967 . S
Co340 O372 1.920 . S
Co341 O344 1.966 . S
Co341 N350 2.022 . S
Co341 N358 1.993 1_556 S
Co341 O366 1.941 . S
C342 O343 1.258 . S
C342 O344 1.263 . S
O343 Co340 1.970 1_556 S
O343 C342 1.258 . S
O344 Co341 1.966 . S
O344 C342 1.263 . S
C345 O346 1.235 . S
C345 O372 1.289 . S
O346 C345 1.235 . S
C347 C349 1.400 . S
C347 N350 1.351 . S
C347 C352 1.501 . S
C348 C349 1.387 . S
C348 N351 1.341 . S
C349 C347 1.400 . S
C349 C348 1.387 . S
N350 Co341 2.022 . S
N350 C347 1.351 . S
N350 N351 1.365 . S
N351 C348 1.341 . S
N351 N350 1.365 . S
N351 H371 0.862 . S
C352 C347 1.501 . S
C352 H353 0.961 . S
C352 H354 0.961 . S
C352 H355 0.960 . S
H353 C352 0.961 . S
H354 C352 0.961 . S
H355 C352 0.960 . S
C356 N357 1.342 . S
C356 C360 1.401 . S
C356 C361 1.499 . S
N357 Co340 1.989 . S
N357 C356 1.342 . S
N357 N358 1.388 . S
N358 Co341 1.993 1_554 S
N358 N357 1.388 . S
N358 C359 1.346 . S
C359 N358 1.346 . S
C359 C360 1.396 . S
C359 C369 1.510 . S
C360 C356 1.401 . S
C360 C359 1.396 . S
C361 C356 1.499 . S
C361 H362 0.959 . S
C361 H363 0.960 . S
C361 H364 0.961 . S
H362 C361 0.959 . S
H363 C361 0.960 . S
H364 C361 0.961 . S
O365 Co340 1.967 . S
O365 C373 1.266 . S
O366 Co341 1.941 . S
O366 C373 1.257 1_556 S
H367 C369 0.959 . S
H368 C369 0.961 . S
C369 C359 1.510 . S
C369 H367 0.959 . S
C369 H368 0.961 . S
C369 H370 0.960 1_554 S
H370 C369 0.960 1_556 S
H371 N351 0.862 . S
O372 Co340 1.920 . S
O372 C345 1.289 . S
C373 O365 1.266 . S
C373 O366 1.257 1_554 S
Co374 O377 1.940 1_556 S
Co374 N391 1.997 . S
Co374 O399 1.957 1_556 S
Co374 O406 1.949 . S
Co375 O378 1.966 . S
Co375 N384 2.022 . S
Co375 N392 1.993 . S
Co375 O400 1.941 . S
C376 O377 1.258 . S
C376 O378 1.263 . S
O377 Co374 1.940 1_554 S
O377 C376 1.258 . S
O378 Co375 1.966 . S
O378 C376 1.263 . S
C379 O380 1.235 . S
C379 O406 1.289 . S
O380 C379 1.235 . S
C381 C383 1.400 . S
C381 N384 1.351 . S
C381 C386 1.501 . S
C382 C383 1.387 . S
C382 N385 1.341 . S
C383 C381 1.400 . S
C383 C382 1.387 . S
N384 Co375 2.022 . S
N384 C381 1.351 . S
N384 N385 1.365 . S
N385 C382 1.341 . S
N385 N384 1.365 . S
N385 H405 0.862 . S
C386 C381 1.501 . S
C386 H387 0.961 . S
C386 H388 0.961 . S
C386 H389 0.960 . S
H387 C386 0.961 . S
H388 C386 0.961 . S
H389 C386 0.960 . S
C390 N391 1.342 . S
C390 C394 1.401 . S
C390 C395 1.499 . S
N391 Co374 1.997 . S
N391 C390 1.342 . S
N391 N392 1.388 1_556 S
N392 Co375 1.993 . S
N392 N391 1.388 1_554 S
N392 C393 1.356 . S
C393 N392 1.356 . S
C393 C394 1.371 1_554 S
C393 C403 1.525 . S
C394 C390 1.401 . S
C394 C393 1.371 1_556 S
C395 C390 1.499 . S
C395 H396 0.959 . S
C395 H397 0.960 . S
C395 H398 0.961 . S
H396 C395 0.959 . S
H397 C395 0.960 . S
H398 C395 0.961 . S
O399 Co374 1.957 1_554 S
O399 C407 1.258 . S
O400 Co375 1.941 . S
O400 C407 1.266 . S
H401 C403 0.959 . S
H402 C403 0.961 . S
C403 C393 1.525 . S
C403 H401 0.959 . S
C403 H402 0.961 . S
C403 H404 0.960 . S
H404 C403 0.960 . S
H405 N385 0.862 . S
O406 Co374 1.949 . S
O406 C379 1.289 . S
C407 O399 1.258 . S
C407 O400 1.266 . S
Co408 O411 1.970 . S
Co408 N425 1.989 . S
Co408 O433 1.967 . S
Co408 O440 1.920 . S
Co409 O412 1.966 . S
Co409 N418 2.022 . S
Co409 N426 1.993 . S
Co409 O434 1.941 . S
C410 O411 1.258 . S
C410 O412 1.263 . S
O411 Co408 1.970 . S
O411 C410 1.258 . S
O412 Co409 1.966 . S
O412 C410 1.263 . S
C413 O414 1.235 . S
C413 O440 1.289 . S
O414 C413 1.235 . S
C415 C417 1.400 . S
C415 N418 1.351 . S
C415 C420 1.501 . S
C416 C417 1.387 . S
C416 N419 1.341 . S
C417 C415 1.400 . S
C417 C416 1.387 . S
N418 Co409 2.022 . S
N418 C415 1.351 . S
N418 N419 1.365 . S
N419 C416 1.341 . S
N419 N418 1.365 . S
N419 H439 0.862 . S
C420 C415 1.501 . S
C420 H421 0.961 . S
C420 H422 0.961 . S
C420 H423 0.960 . S
H421 C420 0.961 . S
H422 C420 0.961 . S
H423 C420 0.960 . S
C424 N425 1.342 . S
C424 C428 1.401 . S
C424 C429 1.499 . S
N425 Co408 1.989 . S
N425 C424 1.342 . S
N425 N426 1.388 . S
N426 Co409 1.993 . S
N426 N425 1.388 . S
N426 C427 1.346 . S
C427 N426 1.346 . S
C427 C428 1.396 . S
C427 C437 1.510 . S
C428 C424 1.401 . S
C428 C427 1.396 . S
C429 C424 1.499 . S
C429 H430 0.959 . S
C429 H431 0.960 . S
C429 H432 0.961 . S
H430 C429 0.959 . S
H431 C429 0.960 . S
H432 C429 0.961 . S
O433 Co408 1.967 . S
O433 C441 1.258 . S
O434 Co409 1.941 . S
O434 C441 1.266 . S
H435 C437 0.959 . S
H436 C437 0.961 . S
C437 C427 1.510 . S
C437 H435 0.959 . S
C437 H436 0.961 . S
C437 H438 0.960 . S
H438 C437 0.960 . S
H439 N419 0.862 . S
O440 Co408 1.920 . S
O440 C413 1.289 . S
C441 O433 1.258 . S
C441 O434 1.266 . S
Co442 O445 1.970 . S
Co442 N459 1.989 . S
Co442 O467 1.967 . S
Co442 O474 1.920 . S
Co443 O446 1.966 . S
Co443 N452 2.022 . S
Co443 N460 1.993 . S
Co443 O468 1.941 . S
C444 O445 1.258 . S
C444 O446 1.263 . S
O445 Co442 1.970 . S
O445 C444 1.258 . S
O446 Co443 1.966 . S
O446 C444 1.263 . S
C447 O448 1.235 . S
C447 O474 1.289 . S
O448 C447 1.235 . S
C449 C451 1.400 . S
C449 N452 1.351 . S
C449 C454 1.501 . S
C450 C451 1.387 . S
C450 N453 1.341 . S
C451 C449 1.400 . S
C451 C450 1.387 . S
N452 Co443 2.022 . S
N452 C449 1.351 . S
N452 N453 1.365 . S
N453 C450 1.341 . S
N453 N452 1.365 . S
N453 H473 0.862 . S
C454 C449 1.501 . S
C454 H455 0.961 . S
C454 H456 0.961 . S
C454 H457 0.960 . S
H455 C454 0.961 . S
H456 C454 0.961 . S
H457 C454 0.960 . S
C458 N459 1.342 . S
C458 C462 1.401 . S
C458 C463 1.499 . S
N459 Co442 1.989 . S
N459 C458 1.342 . S
N459 N460 1.388 . S
N460 Co443 1.993 . S
N460 N459 1.388 . S
N460 C461 1.346 . S
C461 N460 1.346 . S
C461 C462 1.396 . S
C461 C471 1.510 . S
C462 C458 1.401 . S
C462 C461 1.396 . S
C463 C458 1.499 . S
C463 H464 0.959 . S
C463 H465 0.960 . S
C463 H466 0.961 . S
H464 C463 0.959 . S
H465 C463 0.960 . S
H466 C463 0.961 . S
O467 Co442 1.967 . S
O467 C475 1.258 . S
O468 Co443 1.941 . S
O468 C475 1.266 . S
H469 C471 0.959 . S
H470 C471 0.961 . S
C471 C461 1.510 . S
C471 H469 0.959 . S
C471 H470 0.961 . S
C471 H472 0.960 . S
H472 C471 0.960 . S
H473 N453 0.862 . S
O474 Co442 1.920 . S
O474 C447 1.289 . S
C475 O467 1.258 . S
C475 O468 1.266 . S
Co476 O479 1.970 . S
Co476 N493 1.989 . S
Co476 O501 1.967 . S
Co476 O508 1.920 . S
Co477 O480 1.966 . S
Co477 N486 2.022 . S
Co477 N494 1.993 . S
Co477 O502 1.941 . S
C478 O479 1.258 . S
C478 O480 1.263 . S
O479 Co476 1.970 . S
O479 C478 1.258 . S
O480 Co477 1.966 . S
O480 C478 1.263 . S
C481 O482 1.235 . S
C481 O508 1.289 . S
O482 C481 1.235 . S
C483 C485 1.400 . S
C483 N486 1.351 . S
C483 C488 1.501 . S
C484 C485 1.387 . S
C484 N487 1.341 . S
C485 C483 1.400 . S
C485 C484 1.387 . S
N486 Co477 2.022 . S
N486 C483 1.351 . S
N486 N487 1.365 . S
N487 C484 1.341 . S
N487 N486 1.365 . S
N487 H507 0.862 . S
C488 C483 1.501 . S
C488 H489 0.961 . S
C488 H490 0.961 . S
C488 H491 0.960 . S
H489 C488 0.961 . S
H490 C488 0.961 . S
H491 C488 0.960 . S
C492 N493 1.342 . S
C492 C496 1.401 . S
C492 C497 1.499 . S
N493 Co476 1.989 . S
N493 C492 1.342 . S
N493 N494 1.388 . S
N494 Co477 1.993 . S
N494 N493 1.388 . S
N494 C495 1.346 . S
C495 N494 1.346 . S
C495 C496 1.396 . S
C495 C505 1.510 . S
C496 C492 1.401 . S
C496 C495 1.396 . S
C497 C492 1.499 . S
C497 H498 0.959 . S
C497 H499 0.960 . S
C497 H500 0.961 . S
H498 C497 0.959 . S
H499 C497 0.960 . S
H500 C497 0.961 . S
O501 Co476 1.967 . S
O501 C509 1.258 . S
O502 Co477 1.941 . S
O502 C509 1.266 . S
H503 C505 0.959 . S
H504 C505 0.961 . S
C505 C495 1.510 . S
C505 H503 0.959 . S
C505 H504 0.961 . S
C505 H506 0.960 . S
H506 C505 0.960 . S
H507 N487 0.862 . S
O508 Co476 1.920 . S
O508 C481 1.289 . S
C509 O501 1.258 . S
C509 O502 1.266 . S
Co510 O513 1.970 . S
Co510 N527 1.989 . S
Co510 O535 1.967 . S
Co510 O542 1.920 . S
Co511 O514 1.966 . S
Co511 N520 2.022 . S
Co511 N528 1.993 . S
Co511 O536 1.941 . S
C512 O513 1.258 . S
C512 O514 1.263 . S
O513 Co510 1.970 . S
O513 C512 1.258 . S
O514 Co511 1.966 . S
O514 C512 1.263 . S
C515 O516 1.235 . S
C515 O542 1.289 . S
O516 C515 1.235 . S
C517 C519 1.400 . S
C517 N520 1.351 . S
C517 C522 1.501 . S
C518 C519 1.387 . S
C518 N521 1.341 . S
C519 C517 1.400 . S
C519 C518 1.387 . S
N520 Co511 2.022 . S
N520 C517 1.351 . S
N520 N521 1.365 . S
N521 C518 1.341 . S
N521 N520 1.365 . S
N521 H541 0.862 . S
C522 C517 1.501 . S
C522 H523 0.961 . S
C522 H524 0.961 . S
C522 H525 0.960 . S
H523 C522 0.961 . S
H524 C522 0.961 . S
H525 C522 0.960 . S
C526 N527 1.342 . S
C526 C530 1.401 . S
C526 C531 1.499 . S
N527 Co510 1.989 . S
N527 C526 1.342 . S
N527 N528 1.388 . S
N528 Co511 1.993 . S
N528 N527 1.388 . S
N528 C529 1.346 . S
C529 N528 1.346 . S
C529 C530 1.396 . S
C529 C539 1.510 . S
C530 C526 1.401 . S
C530 C529 1.396 . S
C531 C526 1.499 . S
C531 H532 0.959 . S
C531 H533 0.960 . S
C531 H534 0.961 . S
H532 C531 0.959 . S
H533 C531 0.960 . S
H534 C531 0.961 . S
O535 Co510 1.967 . S
O535 C543 1.258 . S
O536 Co511 1.941 . S
O536 C543 1.266 . S
H537 C539 0.959 . S
H538 C539 0.961 . S
C539 C529 1.510 . S
C539 H537 0.959 . S
C539 H538 0.961 . S
C539 H540 0.960 . S
H540 C539 0.960 . S
H541 N521 0.862 . S
O542 Co510 1.920 . S
O542 C515 1.289 . S
C543 O535 1.258 . S
C543 O536 1.266 . S
Co544 O547 1.970 . S
Co544 N561 1.989 . S
Co544 O569 1.967 . S
Co544 O576 1.920 . S
Co545 O548 1.966 . S
Co545 N554 2.022 . S
Co545 N562 1.993 . S
Co545 O570 1.941 . S
C546 O547 1.258 . S
C546 O548 1.263 . S
O547 Co544 1.970 . S
O547 C546 1.258 . S
O548 Co545 1.966 . S
O548 C546 1.263 . S
C549 O550 1.235 . S
C549 O576 1.289 . S
O550 C549 1.235 . S
C551 C553 1.400 . S
C551 N554 1.351 . S
C551 C556 1.501 . S
C552 C553 1.387 . S
C552 N555 1.341 . S
C553 C551 1.400 . S
C553 C552 1.387 . S
N554 Co545 2.022 . S
N554 C551 1.351 . S
N554 N555 1.365 . S
N555 C552 1.341 . S
N555 N554 1.365 . S
N555 H575 0.862 . S
C556 C551 1.501 . S
C556 H557 0.961 . S
C556 H558 0.961 . S
C556 H559 0.960 . S
H557 C556 0.961 . S
H558 C556 0.961 . S
H559 C556 0.960 . S
C560 N561 1.342 . S
C560 C564 1.401 . S
C560 C565 1.499 . S
N561 Co544 1.989 . S
N561 C560 1.342 . S
N561 N562 1.388 . S
N562 Co545 1.993 . S
N562 N561 1.388 . S
N562 C563 1.346 . S
C563 N562 1.346 . S
C563 C564 1.396 . S
C563 C573 1.510 . S
C564 C560 1.401 . S
C564 C563 1.396 . S
C565 C560 1.499 . S
C565 H566 0.959 . S
C565 H567 0.960 . S
C565 H568 0.961 . S
H566 C565 0.959 . S
H567 C565 0.960 . S
H568 C565 0.961 . S
O569 Co544 1.967 . S
O569 C577 1.258 . S
O570 Co545 1.941 . S
O570 C577 1.266 . S
H571 C573 0.959 . S
H572 C573 0.961 . S
C573 C563 1.510 . S
C573 H571 0.959 . S
C573 H572 0.961 . S
C573 H574 0.960 . S
H574 C573 0.960 . S
H575 N555 0.862 . S
O576 Co544 1.920 . S
O576 C549 1.289 . S
C577 O569 1.258 . S
C577 O570 1.266 . S
Co578 O581 1.970 . S
Co578 N595 1.989 . S
Co578 O603 1.967 . S
Co578 O610 1.920 . S
Co579 O582 1.966 . S
Co579 N588 2.022 . S
Co579 N596 1.993 . S
Co579 O604 1.941 . S
C580 O581 1.258 . S
C580 O582 1.263 . S
O581 Co578 1.970 . S
O581 C580 1.258 . S
O582 Co579 1.966 . S
O582 C580 1.263 . S
C583 O584 1.235 . S
C583 O610 1.289 . S
O584 C583 1.235 . S
C585 C587 1.400 . S
C585 N588 1.351 . S
C585 C590 1.501 . S
C586 C587 1.387 . S
C586 N589 1.341 . S
C587 C585 1.400 . S
C587 C586 1.387 . S
N588 Co579 2.022 . S
N588 C585 1.351 . S
N588 N589 1.365 . S
N589 C586 1.341 . S
N589 N588 1.365 . S
N589 H609 0.862 . S
C590 C585 1.501 . S
C590 H591 0.961 . S
C590 H592 0.961 . S
C590 H593 0.960 . S
H591 C590 0.961 . S
H592 C590 0.961 . S
H593 C590 0.960 . S
C594 N595 1.342 . S
C594 C598 1.401 . S
C594 C599 1.499 . S
N595 Co578 1.989 . S
N595 C594 1.342 . S
N595 N596 1.388 . S
N596 Co579 1.993 . S
N596 N595 1.388 . S
N596 C597 1.346 . S
C597 N596 1.346 . S
C597 C598 1.396 . S
C597 C607 1.510 . S
C598 C594 1.401 . S
C598 C597 1.396 . S
C599 C594 1.499 . S
C599 H600 0.959 . S
C599 H601 0.960 . S
C599 H602 0.961 . S
H600 C599 0.959 . S
H601 C599 0.960 . S
H602 C599 0.961 . S
O603 Co578 1.967 . S
O603 C611 1.258 . S
O604 Co579 1.941 . S
O604 C611 1.266 . S
H605 C607 0.959 . S
H606 C607 0.961 . S
C607 C597 1.510 . S
C607 H605 0.959 . S
C607 H606 0.961 . S
C607 H608 0.960 . S
H608 C607 0.960 . S
H609 N589 0.862 . S
O610 Co578 1.920 . S
O610 C583 1.289 . S
C611 O603 1.258 . S
C611 O604 1.266 . S
Co612 O615 1.970 . S
Co612 N629 1.989 . S
Co612 O637 1.967 . S
Co612 O644 1.920 . S
Co613 O616 1.966 . S
Co613 N622 2.022 . S
Co613 N630 1.993 . S
Co613 O638 1.941 . S
C614 O615 1.258 . S
C614 O616 1.263 . S
O615 Co612 1.970 . S
O615 C614 1.258 . S
O616 Co613 1.966 . S
O616 C614 1.263 . S
C617 O618 1.235 . S
C617 O644 1.289 . S
O618 C617 1.235 . S
C619 C621 1.400 . S
C619 N622 1.351 . S
C619 C624 1.501 . S
C620 C621 1.387 . S
C620 N623 1.341 . S
C621 C619 1.400 . S
C621 C620 1.387 . S
N622 Co613 2.022 . S
N622 C619 1.351 . S
N622 N623 1.365 . S
N623 C620 1.341 . S
N623 N622 1.365 . S
N623 H643 0.862 . S
C624 C619 1.501 . S
C624 H625 0.961 . S
C624 H626 0.961 . S
C624 H627 0.960 . S
H625 C624 0.961 . S
H626 C624 0.961 . S
H627 C624 0.960 . S
C628 N629 1.342 . S
C628 C632 1.401 . S
C628 C633 1.499 . S
N629 Co612 1.989 . S
N629 C628 1.342 . S
N629 N630 1.388 . S
N630 Co613 1.993 . S
N630 N629 1.388 . S
N630 C631 1.346 . S
C631 N630 1.346 . S
C631 C632 1.396 . S
C631 C641 1.510 . S
C632 C628 1.401 . S
C632 C631 1.396 . S
C633 C628 1.499 . S
C633 H634 0.959 . S
C633 H635 0.960 . S
C633 H636 0.961 . S
H634 C633 0.959 . S
H635 C633 0.960 . S
H636 C633 0.961 . S
O637 Co612 1.967 . S
O637 C645 1.258 . S
O638 Co613 1.941 . S
O638 C645 1.266 . S
H639 C641 0.959 . S
H640 C641 0.961 . S
C641 C631 1.510 . S
C641 H639 0.959 . S
C641 H640 0.961 . S
C641 H642 0.960 . S
H642 C641 0.960 . S
H643 N623 0.862 . S
O644 Co612 1.920 . S
O644 C617 1.289 . S
C645 O637 1.258 . S
C645 O638 1.266 . S
Co646 O649 1.970 . S
Co646 N663 1.989 . S
Co646 O671 1.967 . S
Co646 O678 1.920 . S
Co647 O650 1.966 . S
Co647 N656 2.022 . S
Co647 N664 1.993 . S
Co647 O672 1.941 . S
C648 O649 1.258 . S
C648 O650 1.263 . S
O649 Co646 1.970 . S
O649 C648 1.258 . S
O650 Co647 1.966 . S
O650 C648 1.263 . S
C651 O652 1.235 . S
C651 O678 1.289 . S
O652 C651 1.235 . S
C653 C655 1.400 . S
C653 N656 1.351 . S
C653 C658 1.501 . S
C654 C655 1.387 . S
C654 N657 1.341 . S
C655 C653 1.400 . S
C655 C654 1.387 . S
N656 Co647 2.022 . S
N656 C653 1.351 . S
N656 N657 1.365 . S
N657 C654 1.341 . S
N657 N656 1.365 . S
N657 H677 0.862 . S
C658 C653 1.501 . S
C658 H659 0.961 . S
C658 H660 0.961 . S
C658 H661 0.960 . S
H659 C658 0.961 . S
H660 C658 0.961 . S
H661 C658 0.960 . S
C662 N663 1.342 . S
C662 C666 1.401 . S
C662 C667 1.499 . S
N663 Co646 1.989 . S
N663 C662 1.342 . S
N663 N664 1.388 . S
N664 Co647 1.993 . S
N664 N663 1.388 . S
N664 C665 1.346 . S
C665 N664 1.346 . S
C665 C666 1.396 . S
C665 C675 1.510 . S
C666 C662 1.401 . S
C666 C665 1.396 . S
C667 C662 1.499 . S
C667 H668 0.959 . S
C667 H669 0.960 . S
C667 H670 0.961 . S
H668 C667 0.959 . S
H669 C667 0.960 . S
H670 C667 0.961 . S
O671 Co646 1.967 . S
O671 C679 1.258 . S
O672 Co647 1.941 . S
O672 C679 1.266 . S
H673 C675 0.959 . S
H674 C675 0.961 . S
C675 C665 1.510 . S
C675 H673 0.959 . S
C675 H674 0.961 . S
C675 H676 0.960 . S
H676 C675 0.960 . S
H677 N657 0.862 . S
O678 Co646 1.920 . S
O678 C651 1.289 . S
C679 O671 1.258 . S
C679 O672 1.266 . S
Co680 O683 1.970 . S
Co680 N697 1.989 . S
Co680 O705 1.967 . S
Co680 O712 1.920 . S
Co681 O684 1.966 . S
Co681 N690 2.022 . S
Co681 N698 1.993 . S
Co681 O706 1.941 . S
C682 O683 1.258 . S
C682 O684 1.263 . S
O683 Co680 1.970 . S
O683 C682 1.258 . S
O684 Co681 1.966 . S
O684 C682 1.263 . S
C685 O686 1.235 . S
C685 O712 1.289 . S
O686 C685 1.235 . S
C687 C689 1.400 . S
C687 N690 1.351 . S
C687 C692 1.501 . S
C688 C689 1.387 . S
C688 N691 1.341 . S
C689 C687 1.400 . S
C689 C688 1.387 . S
N690 Co681 2.022 . S
N690 C687 1.351 . S
N690 N691 1.365 . S
N691 C688 1.341 . S
N691 N690 1.365 . S
N691 H711 0.862 . S
C692 C687 1.501 . S
C692 H693 0.961 . S
C692 H694 0.961 . S
C692 H695 0.960 . S
H693 C692 0.961 . S
H694 C692 0.961 . S
H695 C692 0.960 . S
C696 N697 1.342 . S
C696 C700 1.401 . S
C696 C701 1.499 . S
N697 Co680 1.989 . S
N697 C696 1.342 . S
N697 N698 1.388 . S
N698 Co681 1.993 . S
N698 N697 1.388 . S
N698 C699 1.346 . S
C699 N698 1.346 . S
C699 C700 1.396 . S
C699 C709 1.510 . S
C700 C696 1.401 . S
C700 C699 1.396 . S
C701 C696 1.499 . S
C701 H702 0.959 . S
C701 H703 0.960 . S
C701 H704 0.961 . S
H702 C701 0.959 . S
H703 C701 0.960 . S
H704 C701 0.961 . S
O705 Co680 1.967 . S
O705 C713 1.258 . S
O706 Co681 1.941 . S
O706 C713 1.266 . S
H707 C709 0.959 . S
H708 C709 0.961 . S
C709 C699 1.510 . S
C709 H707 0.959 . S
C709 H708 0.961 . S
C709 H710 0.960 . S
H710 C709 0.960 . S
H711 N691 0.862 . S
O712 Co680 1.920 . S
O712 C685 1.289 . S
C713 O705 1.258 . S
C713 O706 1.266 . S
Co714 O717 1.970 . S
Co714 N731 1.989 . S
Co714 O739 1.967 . S
Co714 O746 1.920 . S
Co715 O718 1.966 . S
Co715 N724 2.022 . S
Co715 N732 1.993 . S
Co715 O740 1.941 . S
C716 O717 1.258 . S
C716 O718 1.263 . S
O717 Co714 1.970 . S
O717 C716 1.258 . S
O718 Co715 1.966 . S
O718 C716 1.263 . S
C719 O720 1.235 . S
C719 O746 1.289 . S
O720 C719 1.235 . S
C721 C723 1.400 . S
C721 N724 1.351 . S
C721 C726 1.501 . S
C722 C723 1.387 . S
C722 N725 1.341 . S
C723 C721 1.400 . S
C723 C722 1.387 . S
N724 Co715 2.022 . S
N724 C721 1.351 . S
N724 N725 1.365 . S
N725 C722 1.341 . S
N725 N724 1.365 . S
N725 H745 0.862 . S
C726 C721 1.501 . S
C726 H727 0.961 . S
C726 H728 0.961 . S
C726 H729 0.960 . S
H727 C726 0.961 . S
H728 C726 0.961 . S
H729 C726 0.960 . S
C730 N731 1.342 . S
C730 C734 1.401 . S
C730 C735 1.499 . S
N731 Co714 1.989 . S
N731 C730 1.342 . S
N731 N732 1.388 . S
N732 Co715 1.993 . S
N732 N731 1.388 . S
N732 C733 1.346 . S
C733 N732 1.346 . S
C733 C734 1.396 . S
C733 C743 1.510 . S
C734 C730 1.401 . S
C734 C733 1.396 . S
C735 C730 1.499 . S
C735 H736 0.959 . S
C735 H737 0.960 . S
C735 H738 0.961 . S
H736 C735 0.959 . S
H737 C735 0.960 . S
H738 C735 0.961 . S
O739 Co714 1.967 . S
O739 C747 1.258 . S
O740 Co715 1.941 . S
O740 C747 1.266 . S
H741 C743 0.959 . S
H742 C743 0.961 . S
C743 C733 1.510 . S
C743 H741 0.959 . S
C743 H742 0.961 . S
C743 H744 0.960 . S
H744 C743 0.960 . S
H745 N725 0.862 . S
O746 Co714 1.920 . S
O746 C719 1.289 . S
C747 O739 1.258 . S
C747 O740 1.266 . S
Co748 O751 1.970 . S
Co748 N765 1.989 . S
Co748 O773 1.967 . S
Co748 O780 1.920 . S
Co749 O752 1.966 . S
Co749 N758 2.022 . S
Co749 N766 1.993 . S
Co749 O774 1.941 . S
C750 O751 1.258 . S
C750 O752 1.263 . S
O751 Co748 1.970 . S
O751 C750 1.258 . S
O752 Co749 1.966 . S
O752 C750 1.263 . S
C753 O754 1.235 . S
C753 O780 1.289 . S
O754 C753 1.235 . S
C755 C757 1.400 . S
C755 N758 1.351 . S
C755 C760 1.501 . S
C756 C757 1.387 . S
C756 N759 1.341 . S
C757 C755 1.400 . S
C757 C756 1.387 . S
N758 Co749 2.022 . S
N758 C755 1.351 . S
N758 N759 1.365 . S
N759 C756 1.341 . S
N759 N758 1.365 . S
N759 H779 0.862 . S
C760 C755 1.501 . S
C760 H761 0.961 . S
C760 H762 0.961 . S
C760 H763 0.960 . S
H761 C760 0.961 . S
H762 C760 0.961 . S
H763 C760 0.960 . S
C764 N765 1.342 . S
C764 C768 1.401 . S
C764 C769 1.499 . S
N765 Co748 1.989 . S
N765 C764 1.342 . S
N765 N766 1.388 . S
N766 Co749 1.993 . S
N766 N765 1.388 . S
N766 C767 1.346 . S
C767 N766 1.346 . S
C767 C768 1.396 . S
C767 C777 1.510 . S
C768 C764 1.401 . S
C768 C767 1.396 . S
C769 C764 1.499 . S
C769 H770 0.959 . S
C769 H771 0.960 . S
C769 H772 0.961 . S
H770 C769 0.959 . S
H771 C769 0.960 . S
H772 C769 0.961 . S
O773 Co748 1.967 . S
O773 C781 1.258 . S
O774 Co749 1.941 . S
O774 C781 1.266 . S
H775 C777 0.959 . S
H776 C777 0.961 . S
C777 C767 1.510 . S
C777 H775 0.959 . S
C777 H776 0.961 . S
C777 H778 0.960 . S
H778 C777 0.960 . S
H779 N759 0.862 . S
O780 Co748 1.920 . S
O780 C753 1.289 . S
C781 O773 1.258 . S
C781 O774 1.266 . S
Co782 O785 1.970 . S
Co782 N799 1.989 . S
Co782 O807 1.967 . S
Co782 O814 1.920 . S
Co783 O786 1.966 . S
Co783 N792 2.022 . S
Co783 N800 1.993 . S
Co783 O808 1.941 . S
C784 O785 1.258 . S
C784 O786 1.263 . S
O785 Co782 1.970 . S
O785 C784 1.258 . S
O786 Co783 1.966 . S
O786 C784 1.263 . S
C787 O788 1.235 . S
C787 O814 1.289 . S
O788 C787 1.235 . S
C789 C791 1.400 . S
C789 N792 1.351 . S
C789 C794 1.501 . S
C790 C791 1.387 . S
C790 N793 1.341 . S
C791 C789 1.400 . S
C791 C790 1.387 . S
N792 Co783 2.022 . S
N792 C789 1.351 . S
N792 N793 1.365 . S
N793 C790 1.341 . S
N793 N792 1.365 . S
N793 H813 0.862 . S
C794 C789 1.501 . S
C794 H795 0.961 . S
C794 H796 0.961 . S
C794 H797 0.960 . S
H795 C794 0.961 . S
H796 C794 0.961 . S
H797 C794 0.960 . S
C798 N799 1.342 . S
C798 C802 1.401 . S
C798 C803 1.499 . S
N799 Co782 1.989 . S
N799 C798 1.342 . S
N799 N800 1.388 . S
N800 Co783 1.993 . S
N800 N799 1.388 . S
N800 C801 1.346 . S
C801 N800 1.346 . S
C801 C802 1.396 . S
C801 C811 1.510 . S
C802 C798 1.401 . S
C802 C801 1.396 . S
C803 C798 1.499 . S
C803 H804 0.959 . S
C803 H805 0.960 . S
C803 H806 0.961 . S
H804 C803 0.959 . S
H805 C803 0.960 . S
H806 C803 0.961 . S
O807 Co782 1.967 . S
O807 C815 1.258 . S
O808 Co783 1.941 . S
O808 C815 1.266 . S
H809 C811 0.959 . S
H810 C811 0.961 . S
C811 C801 1.510 . S
C811 H809 0.959 . S
C811 H810 0.961 . S
C811 H812 0.960 . S
H812 C811 0.960 . S
H813 N793 0.862 . S
O814 Co782 1.920 . S
O814 C787 1.289 . S
C815 O807 1.258 . S
C815 O808 1.266 . S
C816 C817 1.349 . S
C816 C818 1.327 . S
C816 H841 0.950 . S
C817 C816 1.349 . S
C817 C833 1.349 . S
C818 C816 1.327 . S
C818 C837 1.429 . S
C818 H842 0.950 . S
C819 C836 1.574 . S
C819 C838 1.368 . S
C819 H843 0.949 . S
H820 C824 0.949 . S
C821 C822 1.349 . S
C821 C823 1.327 . S
C821 H844 0.950 . S
C822 C821 1.349 . S
C822 C834 1.349 . S
C823 C821 1.327 . S
C823 C839 1.429 . S
C823 H845 0.950 . S
C824 H820 0.949 . S
C824 C832 1.574 . S
C824 C840 1.368 . S
H825 C833 0.950 . S
H826 C831 0.950 . S
H827 C832 0.949 . S
H828 C834 0.950 . S
H829 C835 0.950 . S
H830 C836 0.949 . S
C831 H826 0.950 . S
C831 C833 1.327 . S
C831 C837 1.429 . S
C832 C824 1.574 . S
C832 H827 0.949 . S
C832 C838 1.368 . S
C833 C817 1.349 . S
C833 H825 0.950 . S
C833 C831 1.327 . S
C834 C822 1.349 . S
C834 H828 0.950 . S
C834 C835 1.327 . S
C835 H829 0.950 . S
C835 C834 1.327 . S
C835 C839 1.429 . S
C836 C819 1.574 . S
C836 H830 0.949 . S
C836 C840 1.368 . S
C837 C818 1.429 . S
C837 C831 1.429 . S
C837 C838 1.523 . S
C838 C819 1.368 . S
C838 C832 1.368 . S
C838 C837 1.523 . S
C839 C823 1.429 . S
C839 C835 1.429 . S
C839 C840 1.523 . S
C840 C824 1.368 . S
C840 C836 1.368 . S
C840 C839 1.523 . S
H841 C816 0.950 . S
H842 C818 0.950 . S
H843 C819 0.949 . S
H844 C821 0.950 . S
H845 C823 0.950 . S
C846 C847 1.349 . S
C846 C848 1.327 . S
C846 H871 0.950 . S
C847 C846 1.349 . S
C847 C863 1.349 . S
C848 C846 1.327 . S
C848 C867 1.429 . S
C848 H872 0.950 . S
C849 C866 1.574 . S
C849 C868 1.368 . S
C849 H873 0.949 . S
H850 C854 0.949 . S
C851 C852 1.349 . S
C851 C853 1.327 . S
C851 H874 0.950 . S
C852 C851 1.349 . S
C852 C864 1.349 . S
C853 C851 1.327 . S
C853 C869 1.429 . S
C853 H875 0.950 . S
C854 H850 0.949 . S
C854 C862 1.574 . S
C854 C870 1.368 . S
H855 C863 0.950 . S
H856 C861 0.950 . S
H857 C862 0.949 . S
H858 C864 0.950 . S
H859 C865 0.950 . S
H860 C866 0.949 . S
C861 H856 0.950 . S
C861 C863 1.327 . S
C861 C867 1.429 . S
C862 C854 1.574 . S
C862 H857 0.949 . S
C862 C868 1.368 . S
C863 C847 1.349 . S
C863 H855 0.950 . S
C863 C861 1.327 . S
C864 C852 1.349 . S
C864 H858 0.950 . S
C864 C865 1.327 . S
C865 H859 0.950 . S
C865 C864 1.327 . S
C865 C869 1.429 . S
C866 C849 1.574 . S
C866 H860 0.949 . S
C866 C870 1.368 . S
C867 C848 1.429 . S
C867 C861 1.429 . S
C867 C868 1.523 . S
C868 C849 1.368 . S
C868 C862 1.368 . S
C868 C867 1.523 . S
C869 C853 1.429 . S
C869 C865 1.429 . S
C869 C870 1.523 . S
C870 C854 1.368 . S
C870 C866 1.368 . S
C870 C869 1.523 . S
H871 C846 0.950 . S
H872 C848 0.950 . S
H873 C849 0.949 . S
H874 C851 0.950 . S
H875 C853 0.950 . S
C876 C877 1.349 . S
C876 C878 1.327 . S
C876 H901 0.950 . S
C877 C876 1.349 . S
C877 C893 1.349 . S
C878 C876 1.327 . S
C878 C897 1.429 . S
C878 H902 0.950 . S
C879 C896 1.574 . S
C879 C898 1.368 . S
C879 H903 0.949 . S
H880 C884 0.949 . S
C881 C882 1.349 . S
C881 C883 1.327 . S
C881 H904 0.950 . S
C882 C881 1.349 . S
C882 C894 1.349 . S
C883 C881 1.327 . S
C883 C899 1.429 . S
C883 H905 0.950 . S
C884 H880 0.949 . S
C884 C892 1.574 . S
C884 C900 1.368 . S
H885 C893 0.950 . S
H886 C891 0.950 . S
H887 C892 0.949 . S
H888 C894 0.950 . S
H889 C895 0.950 . S
H890 C896 0.949 . S
C891 H886 0.950 . S
C891 C893 1.327 . S
C891 C897 1.429 . S
C892 C884 1.574 . S
C892 H887 0.949 . S
C892 C898 1.368 . S
C893 C877 1.349 . S
C893 H885 0.950 . S
C893 C891 1.327 . S
C894 C882 1.349 . S
C894 H888 0.950 . S
C894 C895 1.327 . S
C895 H889 0.950 . S
C895 C894 1.327 . S
C895 C899 1.429 . S
C896 C879 1.574 . S
C896 H890 0.949 . S
C896 C900 1.368 . S
C897 C878 1.429 . S
C897 C891 1.429 . S
C897 C898 1.523 . S
C898 C879 1.368 . S
C898 C892 1.368 . S
C898 C897 1.523 . S
C899 C883 1.429 . S
C899 C895 1.429 . S
C899 C900 1.523 . S
C900 C884 1.368 . S
C900 C896 1.368 . S
C900 C899 1.523 . S
H901 C876 0.950 . S
H902 C878 0.950 . S
H903 C879 0.949 . S
H904 C881 0.950 . S
H905 C883 0.950 . S
C906 C907 1.349 . S
C906 C908 1.327 . S
C906 H931 0.950 . S
C907 C906 1.349 . S
C907 C923 1.349 . S
C908 C906 1.327 . S
C908 C927 1.429 . S
C908 H932 0.950 . S
C909 C926 1.574 . S
C909 C928 1.368 . S
C909 H933 0.949 . S
H910 C914 0.949 . S
C911 C912 1.349 . S
C911 C913 1.327 . S
C911 H934 0.950 . S
C912 C911 1.349 . S
C912 C924 1.349 . S
C913 C911 1.327 . S
C913 C929 1.429 . S
C913 H935 0.950 . S
C914 H910 0.949 . S
C914 C922 1.574 . S
C914 C930 1.368 . S
H915 C923 0.950 . S
H916 C921 0.950 . S
H917 C922 0.949 . S
H918 C924 0.950 . S
H919 C925 0.950 . S
H920 C926 0.949 . S
C921 H916 0.950 . S
C921 C923 1.327 . S
C921 C927 1.429 . S
C922 C914 1.574 . S
C922 H917 0.949 . S
C922 C928 1.368 . S
C923 C907 1.349 . S
C923 H915 0.950 . S
C923 C921 1.327 . S
C924 C912 1.349 . S
C924 H918 0.950 . S
C924 C925 1.327 . S
C925 H919 0.950 . S
C925 C924 1.327 . S
C925 C929 1.429 . S
C926 C909 1.574 . S
C926 H920 0.949 . S
C926 C930 1.368 . S
C927 C908 1.429 . S
C927 C921 1.429 . S
C927 C928 1.523 . S
C928 C909 1.368 . S
C928 C922 1.368 . S
C928 C927 1.523 . S
C929 C913 1.429 . S
C929 C925 1.429 . S
C929 C930 1.523 . S
C930 C914 1.368 . S
C930 C926 1.368 . S
C930 C929 1.523 . S
H931 C906 0.950 . S
H932 C908 0.950 . S
H933 C909 0.949 . S
H934 C911 0.950 . S
H935 C913 0.950 . S
C936 C937 1.349 . S
C936 C938 1.327 . S
C936 H961 0.950 . S
C937 C936 1.349 . S
C937 C953 1.349 . S
C938 C936 1.327 . S
C938 C957 1.429 . S
C938 H962 0.950 . S
C939 C956 1.574 . S
C939 C958 1.368 . S
C939 H963 0.949 . S
H940 C944 0.949 . S
C941 C942 1.349 . S
C941 C943 1.327 . S
C941 H964 0.950 . S
C942 C941 1.349 . S
C942 C954 1.349 . S
C943 C941 1.327 . S
C943 C959 1.429 . S
C943 H965 0.950 . S
C944 H940 0.949 . S
C944 C952 1.574 . S
C944 C960 1.368 . S
H945 C953 0.950 . S
H946 C951 0.950 . S
H947 C952 0.949 . S
H948 C954 0.950 . S
H949 C955 0.950 . S
H950 C956 0.949 . S
C951 H946 0.950 . S
C951 C953 1.327 . S
C951 C957 1.429 . S
C952 C944 1.574 . S
C952 H947 0.949 . S
C952 C958 1.368 . S
C953 C937 1.349 . S
C953 H945 0.950 . S
C953 C951 1.327 . S
C954 C942 1.349 . S
C954 H948 0.950 . S
C954 C955 1.327 . S
C955 H949 0.950 . S
C955 C954 1.327 . S
C955 C959 1.429 . S
C956 C939 1.574 . S
C956 H950 0.949 . S
C956 C960 1.368 . S
C957 C938 1.429 . S
C957 C951 1.429 . S
C957 C958 1.523 . S
C958 C939 1.368 . S
C958 C952 1.368 . S
C958 C957 1.523 . S
C959 C943 1.429 . S
C959 C955 1.429 . S
C959 C960 1.523 . S
C960 C944 1.368 . S
C960 C956 1.368 . S
C960 C959 1.523 . S
H961 C936 0.950 . S
H962 C938 0.950 . S
H963 C939 0.949 . S
H964 C941 0.950 . S
H965 C943 0.950 . S
C966 C967 1.349 . S
C966 C968 1.327 . S
C966 H991 0.950 . S
C967 C966 1.349 . S
C967 C983 1.349 . S
C968 C966 1.327 . S
C968 C987 1.429 . S
C968 H992 0.950 . S
C969 C986 1.574 . S
C969 C988 1.368 . S
C969 H993 0.949 . S
H970 C974 0.949 . S
C971 C972 1.349 . S
C971 C973 1.327 . S
C971 H994 0.950 . S
C972 C971 1.349 . S
C972 C984 1.349 . S
C973 C971 1.327 . S
C973 C989 1.429 . S
C973 H995 0.950 . S
C974 H970 0.949 . S
C974 C982 1.574 . S
C974 C990 1.368 . S
H975 C983 0.950 . S
H976 C981 0.950 . S
H977 C982 0.949 . S
H978 C984 0.950 . S
H979 C985 0.950 . S
H980 C986 0.949 . S
C981 H976 0.950 . S
C981 C983 1.327 . S
C981 C987 1.429 . S
C982 C974 1.574 . S
C982 H977 0.949 . S
C982 C988 1.368 . S
C983 C967 1.349 . S
C983 H975 0.950 . S
C983 C981 1.327 . S
C984 C972 1.349 . S
C984 H978 0.950 . S
C984 C985 1.327 . S
C985 H979 0.950 . S
C985 C984 1.327 . S
C985 C989 1.429 . S
C986 C969 1.574 . S
C986 H980 0.949 . S
C986 C990 1.368 . S
C987 C968 1.429 . S
C987 C981 1.429 . S
C987 C988 1.523 . S
C988 C969 1.368 . S
C988 C982 1.368 . S
C988 C987 1.523 . S
C989 C973 1.429 . S
C989 C985 1.429 . S
C989 C990 1.523 . S
C990 C974 1.368 . S
C990 C986 1.368 . S
C990 C989 1.523 . S
H991 C966 0.950 . S
H992 C968 0.950 . S
H993 C969 0.949 . S
H994 C971 0.950 . S
H995 C973 0.950 . S
C996 C997 1.349 . S
C996 C998 1.327 . S
C996 H1021 0.950 . S
C997 C996 1.349 . S
C997 C1013 1.349 . S
C998 C996 1.327 . S
C998 C1017 1.429 . S
C998 H1022 0.950 . S
C999 C1016 1.574 . S
C999 C1018 1.368 . S
C999 H1023 0.949 . S
H1000 C1004 0.949 . S
C1001 C1002 1.349 . S
C1001 C1003 1.327 . S
C1001 H1024 0.950 . S
C1002 C1001 1.349 . S
C1002 C1014 1.349 . S
C1003 C1001 1.327 . S
C1003 C1019 1.429 . S
C1003 H1025 0.950 . S
C1004 H1000 0.949 . S
C1004 C1012 1.574 . S
C1004 C1020 1.368 . S
H1005 C1013 0.950 . S
H1006 C1011 0.950 . S
H1007 C1012 0.949 . S
H1008 C1014 0.950 . S
H1009 C1015 0.950 . S
H1010 C1016 0.949 . S
C1011 H1006 0.950 . S
C1011 C1013 1.327 . S
C1011 C1017 1.429 . S
C1012 C1004 1.574 . S
C1012 H1007 0.949 . S
C1012 C1018 1.368 . S
C1013 C997 1.349 . S
C1013 H1005 0.950 . S
C1013 C1011 1.327 . S
C1014 C1002 1.349 . S
C1014 H1008 0.950 . S
C1014 C1015 1.327 . S
C1015 H1009 0.950 . S
C1015 C1014 1.327 . S
C1015 C1019 1.429 . S
C1016 C999 1.574 . S
C1016 H1010 0.949 . S
C1016 C1020 1.368 . S
C1017 C998 1.429 . S
C1017 C1011 1.429 . S
C1017 C1018 1.523 . S
C1018 C999 1.368 . S
C1018 C1012 1.368 . S
C1018 C1017 1.523 . S
C1019 C1003 1.429 . S
C1019 C1015 1.429 . S
C1019 C1020 1.523 . S
C1020 C1004 1.368 . S
C1020 C1016 1.368 . S
C1020 C1019 1.523 . S
H1021 C996 0.950 . S
H1022 C998 0.950 . S
H1023 C999 0.949 . S
H1024 C1001 0.950 . S
H1025 C1003 0.950 . S
C1026 C1027 1.349 . S
C1026 C1028 1.327 . S
C1026 H1051 0.950 . S
C1027 C1026 1.349 . S
C1027 C1043 1.349 . S
C1028 C1026 1.327 . S
C1028 C1047 1.429 . S
C1028 H1052 0.950 . S
C1029 C1046 1.574 . S
C1029 C1048 1.368 . S
C1029 H1053 0.949 . S
H1030 C1034 0.949 . S
C1031 C1032 1.349 . S
C1031 C1033 1.327 . S
C1031 H1054 0.950 . S
C1032 C1031 1.349 . S
C1032 C1044 1.349 . S
C1033 C1031 1.327 . S
C1033 C1049 1.429 . S
C1033 H1055 0.950 . S
C1034 H1030 0.949 . S
C1034 C1042 1.574 . S
C1034 C1050 1.368 . S
H1035 C1043 0.950 . S
H1036 C1041 0.950 . S
H1037 C1042 0.949 . S
H1038 C1044 0.950 . S
H1039 C1045 0.950 . S
H1040 C1046 0.949 . S
C1041 H1036 0.950 . S
C1041 C1043 1.327 . S
C1041 C1047 1.429 . S
C1042 C1034 1.574 . S
C1042 H1037 0.949 . S
C1042 C1048 1.368 . S
C1043 C1027 1.349 . S
C1043 H1035 0.950 . S
C1043 C1041 1.327 . S
C1044 C1032 1.349 . S
C1044 H1038 0.950 . S
C1044 C1045 1.327 . S
C1045 H1039 0.950 . S
C1045 C1044 1.327 . S
C1045 C1049 1.429 . S
C1046 C1029 1.574 . S
C1046 H1040 0.949 . S
C1046 C1050 1.368 . S
C1047 C1028 1.429 . S
C1047 C1041 1.429 . S
C1047 C1048 1.523 . S
C1048 C1029 1.368 . S
C1048 C1042 1.368 . S
C1048 C1047 1.523 . S
C1049 C1033 1.429 . S
C1049 C1045 1.429 . S
C1049 C1050 1.523 . S
C1050 C1034 1.368 . S
C1050 C1046 1.368 . S
C1050 C1049 1.523 . S
H1051 C1026 0.950 . S
H1052 C1028 0.950 . S
H1053 C1029 0.949 . S
H1054 C1031 0.950 . S
H1055 C1033 0.950 . S
C1056 C1057 1.349 . S
C1056 C1058 1.327 . S
C1056 H1081 0.950 . S
C1057 C1056 1.349 . S
C1057 C1073 1.349 . S
C1058 C1056 1.327 . S
C1058 C1077 1.429 . S
C1058 H1082 0.950 . S
C1059 C1076 1.574 . S
C1059 C1078 1.368 . S
C1059 H1083 0.949 . S
H1060 C1064 0.949 . S
C1061 C1062 1.349 . S
C1061 C1063 1.327 . S
C1061 H1084 0.950 . S
C1062 C1061 1.349 . S
C1062 C1074 1.349 . S
C1063 C1061 1.327 . S
C1063 C1079 1.429 . S
C1063 H1085 0.950 . S
C1064 H1060 0.949 . S
C1064 C1072 1.574 . S
C1064 C1080 1.368 . S
H1065 C1073 0.950 . S
H1066 C1071 0.950 . S
H1067 C1072 0.949 . S
H1068 C1074 0.950 . S
H1069 C1075 0.950 . S
H1070 C1076 0.949 . S
C1071 H1066 0.950 . S
C1071 C1073 1.327 . S
C1071 C1077 1.429 . S
C1072 C1064 1.574 . S
C1072 H1067 0.949 . S
C1072 C1078 1.368 . S
C1073 C1057 1.349 . S
C1073 H1065 0.950 . S
C1073 C1071 1.327 . S
C1074 C1062 1.349 . S
C1074 H1068 0.950 . S
C1074 C1075 1.327 . S
C1075 H1069 0.950 . S
C1075 C1074 1.327 . S
C1075 C1079 1.429 . S
C1076 C1059 1.574 . S
C1076 H1070 0.949 . S
C1076 C1080 1.368 . S
C1077 C1058 1.429 . S
C1077 C1071 1.429 . S
C1077 C1078 1.523 . S
C1078 C1059 1.368 . S
C1078 C1072 1.368 . S
C1078 C1077 1.523 . S
C1079 C1063 1.429 . S
C1079 C1075 1.429 . S
C1079 C1080 1.523 . S
C1080 C1064 1.368 . S
C1080 C1076 1.368 . S
C1080 C1079 1.523 . S
H1081 C1056 0.950 . S
H1082 C1058 0.950 . S
H1083 C1059 0.949 . S
H1084 C1061 0.950 . S
H1085 C1063 0.950 . S
C1086 C1087 1.349 . S
C1086 C1088 1.327 . S
C1086 H1111 0.950 . S
C1087 C1086 1.349 . S
C1087 C1103 1.349 . S
C1088 C1086 1.327 . S
C1088 C1107 1.429 . S
C1088 H1112 0.950 . S
C1089 C1106 1.574 . S
C1089 C1108 1.368 . S
C1089 H1113 0.949 . S
H1090 C1094 0.949 . S
C1091 C1092 1.349 . S
C1091 C1093 1.327 . S
C1091 H1114 0.950 . S
C1092 C1091 1.349 . S
C1092 C1104 1.349 . S
C1093 C1091 1.327 . S
C1093 C1109 1.429 . S
C1093 H1115 0.950 . S
C1094 H1090 0.949 . S
C1094 C1102 1.574 . S
C1094 C1110 1.368 . S
H1095 C1103 0.950 . S
H1096 C1101 0.950 . S
H1097 C1102 0.949 . S
H1098 C1104 0.950 . S
H1099 C1105 0.950 . S
H1100 C1106 0.949 . S
C1101 H1096 0.950 . S
C1101 C1103 1.327 . S
C1101 C1107 1.429 . S
C1102 C1094 1.574 . S
C1102 H1097 0.949 . S
C1102 C1108 1.368 . S
C1103 C1087 1.349 . S
C1103 H1095 0.950 . S
C1103 C1101 1.327 . S
C1104 C1092 1.349 . S
C1104 H1098 0.950 . S
C1104 C1105 1.327 . S
C1105 H1099 0.950 . S
C1105 C1104 1.327 . S
C1105 C1109 1.429 . S
C1106 C1089 1.574 . S
C1106 H1100 0.949 . S
C1106 C1110 1.368 . S
C1107 C1088 1.429 . S
C1107 C1101 1.429 . S
C1107 C1108 1.523 . S
C1108 C1089 1.368 . S
C1108 C1102 1.368 . S
C1108 C1107 1.523 . S
C1109 C1093 1.429 . S
C1109 C1105 1.429 . S
C1109 C1110 1.523 . S
C1110 C1094 1.368 . S
C1110 C1106 1.368 . S
C1110 C1109 1.523 . S
H1111 C1086 0.950 . S
H1112 C1088 0.950 . S
H1113 C1089 0.949 . S
H1114 C1091 0.950 . S
H1115 C1093 0.950 . S
C1116 C1117 1.349 . S
C1116 C1118 1.327 . S
C1116 H1141 0.950 . S
C1117 C1116 1.349 . S
C1117 C1133 1.349 . S
C1118 C1116 1.327 . S
C1118 C1137 1.429 . S
C1118 H1142 0.950 . S
C1119 C1136 1.574 . S
C1119 C1138 1.368 . S
C1119 H1143 0.949 . S
H1120 C1124 0.949 . S
C1121 C1122 1.349 . S
C1121 C1123 1.327 . S
C1121 H1144 0.950 . S
C1122 C1121 1.349 . S
C1122 C1134 1.349 . S
C1123 C1121 1.327 . S
C1123 C1139 1.429 . S
C1123 H1145 0.950 . S
C1124 H1120 0.949 . S
C1124 C1132 1.574 . S
C1124 C1140 1.368 . S
H1125 C1133 0.950 . S
H1126 C1131 0.950 . S
H1127 C1132 0.949 . S
H1128 C1134 0.950 . S
H1129 C1135 0.950 . S
H1130 C1136 0.949 . S
C1131 H1126 0.950 . S
C1131 C1133 1.327 . S
C1131 C1137 1.429 . S
C1132 C1124 1.574 . S
C1132 H1127 0.949 . S
C1132 C1138 1.368 . S
C1133 C1117 1.349 . S
C1133 H1125 0.950 . S
C1133 C1131 1.327 . S
C1134 C1122 1.349 . S
C1134 H1128 0.950 . S
C1134 C1135 1.327 . S
C1135 H1129 0.950 . S
C1135 C1134 1.327 . S
C1135 C1139 1.429 . S
C1136 C1119 1.574 . S
C1136 H1130 0.949 . S
C1136 C1140 1.368 . S
C1137 C1118 1.429 . S
C1137 C1131 1.429 . S
C1137 C1138 1.523 . S
C1138 C1119 1.368 . S
C1138 C1132 1.368 . S
C1138 C1137 1.523 . S
C1139 C1123 1.429 . S
C1139 C1135 1.429 . S
C1139 C1140 1.523 . S
C1140 C1124 1.368 . S
C1140 C1136 1.368 . S
C1140 C1139 1.523 . S
H1141 C1116 0.950 . S
H1142 C1118 0.950 . S
H1143 C1119 0.949 . S
H1144 C1121 0.950 . S
H1145 C1123 0.950 . S
C1146 C1147 1.349 . S
C1146 C1148 1.327 . S
C1146 H1171 0.950 . S
C1147 C1146 1.349 . S
C1147 C1163 1.349 . S
C1148 C1146 1.327 . S
C1148 C1167 1.429 . S
C1148 H1172 0.950 . S
C1149 C1166 1.574 . S
C1149 C1168 1.368 . S
C1149 H1173 0.949 . S
H1150 C1154 0.949 . S
C1151 C1152 1.349 . S
C1151 C1153 1.327 . S
C1151 H1174 0.950 . S
C1152 C1151 1.349 . S
C1152 C1164 1.349 . S
C1153 C1151 1.327 . S
C1153 C1169 1.429 . S
C1153 H1175 0.950 . S
C1154 H1150 0.949 . S
C1154 C1162 1.574 . S
C1154 C1170 1.368 . S
H1155 C1163 0.950 . S
H1156 C1161 0.950 . S
H1157 C1162 0.949 . S
H1158 C1164 0.950 . S
H1159 C1165 0.950 . S
H1160 C1166 0.949 . S
C1161 H1156 0.950 . S
C1161 C1163 1.327 . S
C1161 C1167 1.429 . S
C1162 C1154 1.574 . S
C1162 H1157 0.949 . S
C1162 C1168 1.368 . S
C1163 C1147 1.349 . S
C1163 H1155 0.950 . S
C1163 C1161 1.327 . S
C1164 C1152 1.349 . S
C1164 H1158 0.950 . S
C1164 C1165 1.327 . S
C1165 H1159 0.950 . S
C1165 C1164 1.327 . S
C1165 C1169 1.429 . S
C1166 C1149 1.574 . S
C1166 H1160 0.949 . S
C1166 C1170 1.368 . S
C1167 C1148 1.429 . S
C1167 C1161 1.429 . S
C1167 C1168 1.523 . S
C1168 C1149 1.368 . S
C1168 C1162 1.368 . S
C1168 C1167 1.523 . S
C1169 C1153 1.429 . S
C1169 C1165 1.429 . S
C1169 C1170 1.523 . S
C1170 C1154 1.368 . S
C1170 C1166 1.368 . S
C1170 C1169 1.523 . S
H1171 C1146 0.950 . S
H1172 C1148 0.950 . S
H1173 C1149 0.949 . S
H1174 C1151 0.950 . S
H1175 C1153 0.950 . S
C1176 C1177 1.349 . S
C1176 C1178 1.327 . S
C1176 H1201 0.950 . S
C1177 C1176 1.349 . S
C1177 C1193 1.349 . S
C1178 C1176 1.327 . S
C1178 C1197 1.429 . S
C1178 H1202 0.950 . S
C1179 C1196 1.574 . S
C1179 C1198 1.368 . S
C1179 H1203 0.949 . S
H1180 C1184 0.949 . S
C1181 C1182 1.349 . S
C1181 C1183 1.327 . S
C1181 H1204 0.950 . S
C1182 C1181 1.349 . S
C1182 C1194 1.349 . S
C1183 C1181 1.327 . S
C1183 C1199 1.429 . S
C1183 H1205 0.950 . S
C1184 H1180 0.949 . S
C1184 C1192 1.574 . S
C1184 C1200 1.368 . S
H1185 C1193 0.950 . S
H1186 C1191 0.950 . S
H1187 C1192 0.949 . S
H1188 C1194 0.950 . S
H1189 C1195 0.950 . S
H1190 C1196 0.949 . S
C1191 H1186 0.950 . S
C1191 C1193 1.327 . S
C1191 C1197 1.429 . S
C1192 C1184 1.574 . S
C1192 H1187 0.949 . S
C1192 C1198 1.368 . S
C1193 C1177 1.349 . S
C1193 H1185 0.950 . S
C1193 C1191 1.327 . S
C1194 C1182 1.349 . S
C1194 H1188 0.950 . S
C1194 C1195 1.327 . S
C1195 H1189 0.950 . S
C1195 C1194 1.327 . S
C1195 C1199 1.429 . S
C1196 C1179 1.574 . S
C1196 H1190 0.949 . S
C1196 C1200 1.368 . S
C1197 C1178 1.429 . S
C1197 C1191 1.429 . S
C1197 C1198 1.523 . S
C1198 C1179 1.368 . S
C1198 C1192 1.368 . S
C1198 C1197 1.523 . S
C1199 C1183 1.429 . S
C1199 C1195 1.429 . S
C1199 C1200 1.523 . S
C1200 C1184 1.368 . S
C1200 C1196 1.368 . S
C1200 C1199 1.523 . S
H1201 C1176 0.950 . S
H1202 C1178 0.950 . S
H1203 C1179 0.949 . S
H1204 C1181 0.950 . S
H1205 C1183 0.950 . S
C1206 C1207 1.349 . S
C1206 C1208 1.327 . S
C1206 H1231 0.950 . S
C1207 C1206 1.349 . S
C1207 C1223 1.349 . S
C1208 C1206 1.327 . S
C1208 C1227 1.429 . S
C1208 H1232 0.950 . S
C1209 C1226 1.574 . S
C1209 C1228 1.368 . S
C1209 H1233 0.949 . S
H1210 C1214 0.949 . S
C1211 C1212 1.349 . S
C1211 C1213 1.327 . S
C1211 H1234 0.950 . S
C1212 C1211 1.349 . S
C1212 C1224 1.349 . S
C1213 C1211 1.327 . S
C1213 C1229 1.429 . S
C1213 H1235 0.950 . S
C1214 H1210 0.949 . S
C1214 C1222 1.574 . S
C1214 C1230 1.368 . S
H1215 C1223 0.950 . S
H1216 C1221 0.950 . S
H1217 C1222 0.949 . S
H1218 C1224 0.950 . S
H1219 C1225 0.950 . S
H1220 C1226 0.949 . S
C1221 H1216 0.950 . S
C1221 C1223 1.327 . S
C1221 C1227 1.429 . S
C1222 C1214 1.574 . S
C1222 H1217 0.949 . S
C1222 C1228 1.368 . S
C1223 C1207 1.349 . S
C1223 H1215 0.950 . S
C1223 C1221 1.327 . S
C1224 C1212 1.349 . S
C1224 H1218 0.950 . S
C1224 C1225 1.327 . S
C1225 H1219 0.950 . S
C1225 C1224 1.327 . S
C1225 C1229 1.429 . S
C1226 C1209 1.574 . S
C1226 H1220 0.949 . S
C1226 C1230 1.368 . S
C1227 C1208 1.429 . S
C1227 C1221 1.429 . S
C1227 C1228 1.523 . S
C1228 C1209 1.368 . S
C1228 C1222 1.368 . S
C1228 C1227 1.523 . S
C1229 C1213 1.429 . S
C1229 C1225 1.429 . S
C1229 C1230 1.523 . S
C1230 C1214 1.368 . S
C1230 C1226 1.368 . S
C1230 C1229 1.523 . S
H1231 C1206 0.950 . S
H1232 C1208 0.950 . S
H1233 C1209 0.949 . S
H1234 C1211 0.950 . S
H1235 C1213 0.950 . S
C1236 C1237 1.349 . S
C1236 C1238 1.327 . S
C1236 H1261 0.950 . S
C1237 C1236 1.349 . S
C1237 C1253 1.349 . S
C1238 C1236 1.327 . S
C1238 C1257 1.429 . S
C1238 H1262 0.950 . S
C1239 C1256 1.574 . S
C1239 C1258 1.368 . S
C1239 H1263 0.949 . S
H1240 C1244 0.949 . S
C1241 C1242 1.349 . S
C1241 C1243 1.327 . S
C1241 H1264 0.950 . S
C1242 C1241 1.349 . S
C1242 C1254 1.349 . S
C1243 C1241 1.327 . S
C1243 C1259 1.429 . S
C1243 H1265 0.950 . S
C1244 H1240 0.949 . S
C1244 C1252 1.574 . S
C1244 C1260 1.368 . S
H1245 C1253 0.950 . S
H1246 C1251 0.950 . S
H1247 C1252 0.949 . S
H1248 C1254 0.950 . S
H1249 C1255 0.950 . S
H1250 C1256 0.949 . S
C1251 H1246 0.950 . S
C1251 C1253 1.327 . S
C1251 C1257 1.429 . S
C1252 C1244 1.574 . S
C1252 H1247 0.949 . S
C1252 C1258 1.368 . S
C1253 C1237 1.349 . S
C1253 H1245 0.950 . S
C1253 C1251 1.327 . S
C1254 C1242 1.349 . S
C1254 H1248 0.950 . S
C1254 C1255 1.327 . S
C1255 H1249 0.950 . S
C1255 C1254 1.327 . S
C1255 C1259 1.429 . S
C1256 C1239 1.574 . S
C1256 H1250 0.949 . S
C1256 C1260 1.368 . S
C1257 C1238 1.429 . S
C1257 C1251 1.429 . S
C1257 C1258 1.523 . S
C1258 C1239 1.368 . S
C1258 C1252 1.368 . S
C1258 C1257 1.523 . S
C1259 C1243 1.429 . S
C1259 C1255 1.429 . S
C1259 C1260 1.523 . S
C1260 C1244 1.368 . S
C1260 C1256 1.368 . S
C1260 C1259 1.523 . S
H1261 C1236 0.950 . S
H1262 C1238 0.950 . S
H1263 C1239 0.949 . S
H1264 C1241 0.950 . S
H1265 C1243 0.950 . S
C1266 C1267 1.349 . S
C1266 C1268 1.327 . S
C1266 H1291 0.950 . S
C1267 C1266 1.349 . S
C1267 C1283 1.349 . S
C1268 C1266 1.327 . S
C1268 C1287 1.429 . S
C1268 H1292 0.950 . S
C1269 C1286 1.574 . S
C1269 C1288 1.368 . S
C1269 H1293 0.949 . S
H1270 C1274 0.949 . S
C1271 C1272 1.349 . S
C1271 C1273 1.327 . S
C1271 H1294 0.950 . S
C1272 C1271 1.349 . S
C1272 C1284 1.349 . S
C1273 C1271 1.327 . S
C1273 C1289 1.429 . S
C1273 H1295 0.950 . S
C1274 H1270 0.949 . S
C1274 C1282 1.574 . S
C1274 C1290 1.368 . S
H1275 C1283 0.950 . S
H1276 C1281 0.950 . S
H1277 C1282 0.949 . S
H1278 C1284 0.950 . S
H1279 C1285 0.950 . S
H1280 C1286 0.949 . S
C1281 H1276 0.950 . S
C1281 C1283 1.327 . S
C1281 C1287 1.429 . S
C1282 C1274 1.574 . S
C1282 H1277 0.949 . S
C1282 C1288 1.368 . S
C1283 C1267 1.349 . S
C1283 H1275 0.950 . S
C1283 C1281 1.327 . S
C1284 C1272 1.349 . S
C1284 H1278 0.950 . S
C1284 C1285 1.327 . S
C1285 H1279 0.950 . S
C1285 C1284 1.327 . S
C1285 C1289 1.429 . S
C1286 C1269 1.574 . S
C1286 H1280 0.949 . S
C1286 C1290 1.368 . S
C1287 C1268 1.429 . S
C1287 C1281 1.429 . S
C1287 C1288 1.523 . S
C1288 C1269 1.368 . S
C1288 C1282 1.368 . S
C1288 C1287 1.523 . S
C1289 C1273 1.429 . S
C1289 C1285 1.429 . S
C1289 C1290 1.523 . S
C1290 C1274 1.368 . S
C1290 C1286 1.368 . S
C1290 C1289 1.523 . S
H1291 C1266 0.950 . S
H1292 C1268 0.950 . S
H1293 C1269 0.949 . S
H1294 C1271 0.950 . S
H1295 C1273 0.950 . S
C1296 C1297 1.349 . S
C1296 C1298 1.327 . S
C1296 H1321 0.950 . S
C1297 C1296 1.349 . S
C1297 C1313 1.349 . S
C1298 C1296 1.327 . S
C1298 C1317 1.429 . S
C1298 H1322 0.950 . S
C1299 C1316 1.574 . S
C1299 C1318 1.368 . S
C1299 H1323 0.949 . S
H1300 C1304 0.949 . S
C1301 C1302 1.349 . S
C1301 C1303 1.327 . S
C1301 H1324 0.950 . S
C1302 C1301 1.349 . S
C1302 C1314 1.349 . S
C1303 C1301 1.327 . S
C1303 C1319 1.429 . S
C1303 H1325 0.950 . S
C1304 H1300 0.949 . S
C1304 C1312 1.574 . S
C1304 C1320 1.368 . S
H1305 C1313 0.950 . S
H1306 C1311 0.950 . S
H1307 C1312 0.949 . S
H1308 C1314 0.950 . S
H1309 C1315 0.950 . S
H1310 C1316 0.949 . S
C1311 H1306 0.950 . S
C1311 C1313 1.327 . S
C1311 C1317 1.429 . S
C1312 C1304 1.574 . S
C1312 H1307 0.949 . S
C1312 C1318 1.368 . S
C1313 C1297 1.349 . S
C1313 H1305 0.950 . S
C1313 C1311 1.327 . S
C1314 C1302 1.349 . S
C1314 H1308 0.950 . S
C1314 C1315 1.327 . S
C1315 H1309 0.950 . S
C1315 C1314 1.327 . S
C1315 C1319 1.429 . S
C1316 C1299 1.574 . S
C1316 H1310 0.949 . S
C1316 C1320 1.368 . S
C1317 C1298 1.429 . S
C1317 C1311 1.429 . S
C1317 C1318 1.523 . S
C1318 C1299 1.368 . S
C1318 C1312 1.368 . S
C1318 C1317 1.523 . S
C1319 C1303 1.429 . S
C1319 C1315 1.429 . S
C1319 C1320 1.523 . S
C1320 C1304 1.368 . S
C1320 C1316 1.368 . S
C1320 C1319 1.523 . S
H1321 C1296 0.950 . S
H1322 C1298 0.950 . S
H1323 C1299 0.949 . S
H1324 C1301 0.950 . S
H1325 C1303 0.950 . S
C1326 C1327 1.349 . S
C1326 C1328 1.327 . S
C1326 H1351 0.950 . S
C1327 C1326 1.349 . S
C1327 C1343 1.349 . S
C1328 C1326 1.327 . S
C1328 C1347 1.429 . S
C1328 H1352 0.950 . S
C1329 C1346 1.574 . S
C1329 C1348 1.368 . S
C1329 H1353 0.949 . S
H1330 C1334 0.949 . S
C1331 C1332 1.349 . S
C1331 C1333 1.327 . S
C1331 H1354 0.950 . S
C1332 C1331 1.349 . S
C1332 C1344 1.349 . S
C1333 C1331 1.327 . S
C1333 C1349 1.429 . S
C1333 H1355 0.950 . S
C1334 H1330 0.949 . S
C1334 C1342 1.574 . S
C1334 C1350 1.368 . S
H1335 C1343 0.950 . S
H1336 C1341 0.950 . S
H1337 C1342 0.949 . S
H1338 C1344 0.950 . S
H1339 C1345 0.950 . S
H1340 C1346 0.949 . S
C1341 H1336 0.950 . S
C1341 C1343 1.327 . S
C1341 C1347 1.429 . S
C1342 C1334 1.574 . S
C1342 H1337 0.949 . S
C1342 C1348 1.368 . S
C1343 C1327 1.349 . S
C1343 H1335 0.950 . S
C1343 C1341 1.327 . S
C1344 C1332 1.349 . S
C1344 H1338 0.950 . S
C1344 C1345 1.327 . S
C1345 H1339 0.950 . S
C1345 C1344 1.327 . S
C1345 C1349 1.429 . S
C1346 C1329 1.574 . S
C1346 H1340 0.949 . S
C1346 C1350 1.368 . S
C1347 C1328 1.429 . S
C1347 C1341 1.429 . S
C1347 C1348 1.523 . S
C1348 C1329 1.368 . S
C1348 C1342 1.368 . S
C1348 C1347 1.523 . S
C1349 C1333 1.429 . S
C1349 C1345 1.429 . S
C1349 C1350 1.523 . S
C1350 C1334 1.368 . S
C1350 C1346 1.368 . S
C1350 C1349 1.523 . S
H1351 C1326 0.950 . S
H1352 C1328 0.950 . S
H1353 C1329 0.949 . S
H1354 C1331 0.950 . S
H1355 C1333 0.950 . S
C1356 C1357 1.349 . S
C1356 C1358 1.327 . S
C1356 H1381 0.950 . S
C1357 C1356 1.349 . S
C1357 C1373 1.349 . S
C1358 C1356 1.327 . S
C1358 C1377 1.429 . S
C1358 H1382 0.950 . S
C1359 C1376 1.574 . S
C1359 C1378 1.368 . S
C1359 H1383 0.949 . S
H1360 C1364 0.949 . S
C1361 C1362 1.349 . S
C1361 C1363 1.327 . S
C1361 H1384 0.950 . S
C1362 C1361 1.349 . S
C1362 C1374 1.349 . S
C1363 C1361 1.327 . S
C1363 C1379 1.429 . S
C1363 H1385 0.950 . S
C1364 H1360 0.949 . S
C1364 C1372 1.574 . S
C1364 C1380 1.368 . S
H1365 C1373 0.950 . S
H1366 C1371 0.950 . S
H1367 C1372 0.949 . S
H1368 C1374 0.950 . S
H1369 C1375 0.950 . S
H1370 C1376 0.949 . S
C1371 H1366 0.950 . S
C1371 C1373 1.327 . S
C1371 C1377 1.429 . S
C1372 C1364 1.574 . S
C1372 H1367 0.949 . S
C1372 C1378 1.368 . S
C1373 C1357 1.349 . S
C1373 H1365 0.950 . S
C1373 C1371 1.327 . S
C1374 C1362 1.349 . S
C1374 H1368 0.950 . S
C1374 C1375 1.327 . S
C1375 H1369 0.950 . S
C1375 C1374 1.327 . S
C1375 C1379 1.429 . S
C1376 C1359 1.574 . S
C1376 H1370 0.949 . S
C1376 C1380 1.368 . S
C1377 C1358 1.429 . S
C1377 C1371 1.429 . S
C1377 C1378 1.523 . S
C1378 C1359 1.368 . S
C1378 C1372 1.368 . S
C1378 C1377 1.523 . S
C1379 C1363 1.429 . S
C1379 C1375 1.429 . S
C1379 C1380 1.523 . S
C1380 C1364 1.368 . S
C1380 C1376 1.368 . S
C1380 C1379 1.523 . S
H1381 C1356 0.950 . S
H1382 C1358 0.950 . S
H1383 C1359 0.949 . S
H1384 C1361 0.950 . S
H1385 C1363 0.950 . S
C1386 C1387 1.349 . S
C1386 C1388 1.327 . S
C1386 H1411 0.950 . S
C1387 C1386 1.349 . S
C1387 C1403 1.349 . S
C1388 C1386 1.327 . S
C1388 C1407 1.429 . S
C1388 H1412 0.950 . S
C1389 C1406 1.574 . S
C1389 C1408 1.368 . S
C1389 H1413 0.949 . S
H1390 C1394 0.949 . S
C1391 C1392 1.349 . S
C1391 C1393 1.327 . S
C1391 H1414 0.950 . S
C1392 C1391 1.349 . S
C1392 C1404 1.349 . S
C1393 C1391 1.327 . S
C1393 C1409 1.429 . S
C1393 H1415 0.950 . S
C1394 H1390 0.949 . S
C1394 C1402 1.574 . S
C1394 C1410 1.368 . S
H1395 C1403 0.950 . S
H1396 C1401 0.950 . S
H1397 C1402 0.949 . S
H1398 C1404 0.950 . S
H1399 C1405 0.950 . S
H1400 C1406 0.949 . S
C1401 H1396 0.950 . S
C1401 C1403 1.327 . S
C1401 C1407 1.429 . S
C1402 C1394 1.574 . S
C1402 H1397 0.949 . S
C1402 C1408 1.368 . S
C1403 C1387 1.349 . S
C1403 H1395 0.950 . S
C1403 C1401 1.327 . S
C1404 C1392 1.349 . S
C1404 H1398 0.950 . S
C1404 C1405 1.327 . S
C1405 H1399 0.950 . S
C1405 C1404 1.327 . S
C1405 C1409 1.429 . S
C1406 C1389 1.574 . S
C1406 H1400 0.949 . S
C1406 C1410 1.368 . S
C1407 C1388 1.429 . S
C1407 C1401 1.429 . S
C1407 C1408 1.523 . S
C1408 C1389 1.368 . S
C1408 C1402 1.368 . S
C1408 C1407 1.523 . S
C1409 C1393 1.429 . S
C1409 C1405 1.429 . S
C1409 C1410 1.523 . S
C1410 C1394 1.368 . S
C1410 C1406 1.368 . S
C1410 C1409 1.523 . S
H1411 C1386 0.950 . S
H1412 C1388 0.950 . S
H1413 C1389 0.949 . S
H1414 C1391 0.950 . S
H1415 C1393 0.950 . S
C1416 C1417 1.349 . S
C1416 C1418 1.327 . S
C1416 H1441 0.950 . S
C1417 C1416 1.349 . S
C1417 C1433 1.349 . S
C1418 C1416 1.327 . S
C1418 C1437 1.429 . S
C1418 H1442 0.950 . S
C1419 C1436 1.574 . S
C1419 C1438 1.368 . S
C1419 H1443 0.949 . S
H1420 C1424 0.949 . S
C1421 C1422 1.349 . S
C1421 C1423 1.327 . S
C1421 H1444 0.950 . S
C1422 C1421 1.349 . S
C1422 C1434 1.349 . S
C1423 C1421 1.327 . S
C1423 C1439 1.429 . S
C1423 H1445 0.950 . S
C1424 H1420 0.949 . S
C1424 C1432 1.574 . S
C1424 C1440 1.368 . S
H1425 C1433 0.950 . S
H1426 C1431 0.950 . S
H1427 C1432 0.949 . S
H1428 C1434 0.950 . S
H1429 C1435 0.950 . S
H1430 C1436 0.949 . S
C1431 H1426 0.950 . S
C1431 C1433 1.327 . S
C1431 C1437 1.429 . S
C1432 C1424 1.574 . S
C1432 H1427 0.949 . S
C1432 C1438 1.368 . S
C1433 C1417 1.349 . S
C1433 H1425 0.950 . S
C1433 C1431 1.327 . S
C1434 C1422 1.349 . S
C1434 H1428 0.950 . S
C1434 C1435 1.327 . S
C1435 H1429 0.950 . S
C1435 C1434 1.327 . S
C1435 C1439 1.429 . S
C1436 C1419 1.574 . S
C1436 H1430 0.949 . S
C1436 C1440 1.368 . S
C1437 C1418 1.429 . S
C1437 C1431 1.429 . S
C1437 C1438 1.523 . S
C1438 C1419 1.368 . S
C1438 C1432 1.368 . S
C1438 C1437 1.523 . S
C1439 C1423 1.429 . S
C1439 C1435 1.429 . S
C1439 C1440 1.523 . S
C1440 C1424 1.368 . S
C1440 C1436 1.368 . S
C1440 C1439 1.523 . S
H1441 C1416 0.950 . S
H1442 C1418 0.950 . S
H1443 C1419 0.949 . S
H1444 C1421 0.950 . S
H1445 C1423 0.950 . S
C1446 C1447 1.349 . S
C1446 C1448 1.327 . S
C1446 H1471 0.950 . S
C1447 C1446 1.349 . S
C1447 C1463 1.349 . S
C1448 C1446 1.327 . S
C1448 C1467 1.429 . S
C1448 H1472 0.950 . S
C1449 C1466 1.574 . S
C1449 C1468 1.368 . S
C1449 H1473 0.949 . S
H1450 C1454 0.949 . S
C1451 C1452 1.349 . S
C1451 C1453 1.327 . S
C1451 H1474 0.950 . S
C1452 C1451 1.349 . S
C1452 C1464 1.349 . S
C1453 C1451 1.327 . S
C1453 C1469 1.429 . S
C1453 H1475 0.950 . S
C1454 H1450 0.949 . S
C1454 C1462 1.574 . S
C1454 C1470 1.368 . S
H1455 C1463 0.950 . S
H1456 C1461 0.950 . S
H1457 C1462 0.949 . S
H1458 C1464 0.950 . S
H1459 C1465 0.950 . S
H1460 C1466 0.949 . S
C1461 H1456 0.950 . S
C1461 C1463 1.327 . S
C1461 C1467 1.429 . S
C1462 C1454 1.574 . S
C1462 H1457 0.949 . S
C1462 C1468 1.368 . S
C1463 C1447 1.349 . S
C1463 H1455 0.950 . S
C1463 C1461 1.327 . S
C1464 C1452 1.349 . S
C1464 H1458 0.950 . S
C1464 C1465 1.327 . S
C1465 H1459 0.950 . S
C1465 C1464 1.327 . S
C1465 C1469 1.429 . S
C1466 C1449 1.574 . S
C1466 H1460 0.949 . S
C1466 C1470 1.368 . S
C1467 C1448 1.429 . S
C1467 C1461 1.429 . S
C1467 C1468 1.523 . S
C1468 C1449 1.368 . S
C1468 C1462 1.368 . S
C1468 C1467 1.523 . S
C1469 C1453 1.429 . S
C1469 C1465 1.429 . S
C1469 C1470 1.523 . S
C1470 C1454 1.368 . S
C1470 C1466 1.368 . S
C1470 C1469 1.523 . S
H1471 C1446 0.950 . S
H1472 C1448 0.950 . S
H1473 C1449 0.949 . S
H1474 C1451 0.950 . S
H1475 C1453 0.950 . S
C1476 C1477 1.349 . S
C1476 C1478 1.327 . S
C1476 H1501 0.950 . S
C1477 C1476 1.349 . S
C1477 C1493 1.349 . S
C1478 C1476 1.327 . S
C1478 C1497 1.429 . S
C1478 H1502 0.950 . S
C1479 C1496 1.574 . S
C1479 C1498 1.368 . S
C1479 H1503 0.949 . S
H1480 C1484 0.949 . S
C1481 C1482 1.349 . S
C1481 C1483 1.327 . S
C1481 H1504 0.950 . S
C1482 C1481 1.349 . S
C1482 C1494 1.349 . S
C1483 C1481 1.327 . S
C1483 C1499 1.429 . S
C1483 H1505 0.950 . S
C1484 H1480 0.949 . S
C1484 C1492 1.574 . S
C1484 C1500 1.368 . S
H1485 C1493 0.950 . S
H1486 C1491 0.950 . S
H1487 C1492 0.949 . S
H1488 C1494 0.950 . S
H1489 C1495 0.950 . S
H1490 C1496 0.949 . S
C1491 H1486 0.950 . S
C1491 C1493 1.327 . S
C1491 C1497 1.429 . S
C1492 C1484 1.574 . S
C1492 H1487 0.949 . S
C1492 C1498 1.368 . S
C1493 C1477 1.349 . S
C1493 H1485 0.950 . S
C1493 C1491 1.327 . S
C1494 C1482 1.349 . S
C1494 H1488 0.950 . S
C1494 C1495 1.327 . S
C1495 H1489 0.950 . S
C1495 C1494 1.327 . S
C1495 C1499 1.429 . S
C1496 C1479 1.574 . S
C1496 H1490 0.949 . S
C1496 C1500 1.368 . S
C1497 C1478 1.429 . S
C1497 C1491 1.429 . S
C1497 C1498 1.523 . S
C1498 C1479 1.368 . S
C1498 C1492 1.368 . S
C1498 C1497 1.523 . S
C1499 C1483 1.429 . S
C1499 C1495 1.429 . S
C1499 C1500 1.523 . S
C1500 C1484 1.368 . S
C1500 C1496 1.368 . S
C1500 C1499 1.523 . S
H1501 C1476 0.950 . S
H1502 C1478 0.950 . S
H1503 C1479 0.949 . S
H1504 C1481 0.950 . S
H1505 C1483 0.950 . S
C1506 C1507 1.349 . S
C1506 C1508 1.327 . S
C1506 H1531 0.950 . S
C1507 C1506 1.349 . S
C1507 C1523 1.349 . S
C1508 C1506 1.327 . S
C1508 C1527 1.429 . S
C1508 H1532 0.950 . S
C1509 C1526 1.574 . S
C1509 C1528 1.368 . S
C1509 H1533 0.949 . S
H1510 C1514 0.949 . S
C1511 C1512 1.349 . S
C1511 C1513 1.327 . S
C1511 H1534 0.950 . S
C1512 C1511 1.349 . S
C1512 C1524 1.349 . S
C1513 C1511 1.327 . S
C1513 C1529 1.429 . S
C1513 H1535 0.950 . S
C1514 H1510 0.949 . S
C1514 C1522 1.574 . S
C1514 C1530 1.368 . S
H1515 C1523 0.950 . S
H1516 C1521 0.950 . S
H1517 C1522 0.949 . S
H1518 C1524 0.950 . S
H1519 C1525 0.950 . S
H1520 C1526 0.949 . S
C1521 H1516 0.950 . S
C1521 C1523 1.327 . S
C1521 C1527 1.429 . S
C1522 C1514 1.574 . S
C1522 H1517 0.949 . S
C1522 C1528 1.368 . S
C1523 C1507 1.349 . S
C1523 H1515 0.950 . S
C1523 C1521 1.327 . S
C1524 C1512 1.349 . S
C1524 H1518 0.950 . S
C1524 C1525 1.327 . S
C1525 H1519 0.950 . S
C1525 C1524 1.327 . S
C1525 C1529 1.429 . S
C1526 C1509 1.574 . S
C1526 H1520 0.949 . S
C1526 C1530 1.368 . S
C1527 C1508 1.429 . S
C1527 C1521 1.429 . S
C1527 C1528 1.523 . S
C1528 C1509 1.368 . S
C1528 C1522 1.368 . S
C1528 C1527 1.523 . S
C1529 C1513 1.429 . S
C1529 C1525 1.429 . S
C1529 C1530 1.523 . S
C1530 C1514 1.368 . S
C1530 C1526 1.368 . S
C1530 C1529 1.523 . S
H1531 C1506 0.950 . S
H1532 C1508 0.950 . S
H1533 C1509 0.949 . S
H1534 C1511 0.950 . S
H1535 C1513 0.950 . S
C1536 C1537 1.349 . S
C1536 C1538 1.327 . S
C1536 H1561 0.950 . S
C1537 C1536 1.349 . S
C1537 C1553 1.349 . S
C1538 C1536 1.327 . S
C1538 C1557 1.429 . S
C1538 H1562 0.950 . S
C1539 C1556 1.574 . S
C1539 C1558 1.368 . S
C1539 H1563 0.949 . S
H1540 C1544 0.949 . S
C1541 C1542 1.349 . S
C1541 C1543 1.327 . S
C1541 H1564 0.950 . S
C1542 C1541 1.349 . S
C1542 C1554 1.349 . S
C1543 C1541 1.327 . S
C1543 C1559 1.429 . S
C1543 H1565 0.950 . S
C1544 H1540 0.949 . S
C1544 C1552 1.574 . S
C1544 C1560 1.368 . S
H1545 C1553 0.950 . S
H1546 C1551 0.950 . S
H1547 C1552 0.949 . S
H1548 C1554 0.950 . S
H1549 C1555 0.950 . S
H1550 C1556 0.949 . S
C1551 H1546 0.950 . S
C1551 C1553 1.327 . S
C1551 C1557 1.429 . S
C1552 C1544 1.574 . S
C1552 H1547 0.949 . S
C1552 C1558 1.368 . S
C1553 C1537 1.349 . S
C1553 H1545 0.950 . S
C1553 C1551 1.327 . S
C1554 C1542 1.349 . S
C1554 H1548 0.950 . S
C1554 C1555 1.327 . S
C1555 H1549 0.950 . S
C1555 C1554 1.327 . S
C1555 C1559 1.429 . S
C1556 C1539 1.574 . S
C1556 H1550 0.949 . S
C1556 C1560 1.368 . S
C1557 C1538 1.429 . S
C1557 C1551 1.429 . S
C1557 C1558 1.523 . S
C1558 C1539 1.368 . S
C1558 C1552 1.368 . S
C1558 C1557 1.523 . S
C1559 C1543 1.429 . S
C1559 C1555 1.429 . S
C1559 C1560 1.523 . S
C1560 C1544 1.368 . S
C1560 C1556 1.368 . S
C1560 C1559 1.523 . S
H1561 C1536 0.950 . S
H1562 C1538 0.950 . S
H1563 C1539 0.949 . S
H1564 C1541 0.950 . S
H1565 C1543 0.950 . S
C1566 C1567 1.349 . S
C1566 C1568 1.327 . S
C1566 H1591 0.950 . S
C1567 C1566 1.349 . S
C1567 C1583 1.349 . S
C1568 C1566 1.327 . S
C1568 C1587 1.429 . S
C1568 H1592 0.950 . S
C1569 C1586 1.574 . S
C1569 C1588 1.368 . S
C1569 H1593 0.949 . S
H1570 C1574 0.949 . S
C1571 C1572 1.349 . S
C1571 C1573 1.327 . S
C1571 H1594 0.950 . S
C1572 C1571 1.349 . S
C1572 C1584 1.349 . S
C1573 C1571 1.327 . S
C1573 C1589 1.429 . S
C1573 H1595 0.950 . S
C1574 H1570 0.949 . S
C1574 C1582 1.574 . S
C1574 C1590 1.368 . S
H1575 C1583 0.950 . S
H1576 C1581 0.950 . S
H1577 C1582 0.949 . S
H1578 C1584 0.950 . S
H1579 C1585 0.950 . S
H1580 C1586 0.949 . S
C1581 H1576 0.950 . S
C1581 C1583 1.327 . S
C1581 C1587 1.429 . S
C1582 C1574 1.574 . S
C1582 H1577 0.949 . S
C1582 C1588 1.368 . S
C1583 C1567 1.349 . S
C1583 H1575 0.950 . S
C1583 C1581 1.327 . S
C1584 C1572 1.349 . S
C1584 H1578 0.950 . S
C1584 C1585 1.327 . S
C1585 H1579 0.950 . S
C1585 C1584 1.327 . S
C1585 C1589 1.429 . S
C1586 C1569 1.574 . S
C1586 H1580 0.949 . S
C1586 C1590 1.368 . S
C1587 C1568 1.429 . S
C1587 C1581 1.429 . S
C1587 C1588 1.523 . S
C1588 C1569 1.368 . S
C1588 C1582 1.368 . S
C1588 C1587 1.523 . S
C1589 C1573 1.429 . S
C1589 C1585 1.429 . S
C1589 C1590 1.523 . S
C1590 C1574 1.368 . S
C1590 C1586 1.368 . S
C1590 C1589 1.523 . S
H1591 C1566 0.950 . S
H1592 C1568 0.950 . S
H1593 C1569 0.949 . S
H1594 C1571 0.950 . S
H1595 C1573 0.950 . S
C1596 C1597 1.349 . S
C1596 C1598 1.327 . S
C1596 H1621 0.950 . S
C1597 C1596 1.349 . S
C1597 C1613 1.349 . S
C1598 C1596 1.327 . S
C1598 C1617 1.429 . S
C1598 H1622 0.950 . S
C1599 C1616 1.574 . S
C1599 C1618 1.368 . S
C1599 H1623 0.949 . S
H1600 C1604 0.949 . S
C1601 C1602 1.349 . S
C1601 C1603 1.327 . S
C1601 H1624 0.950 . S
C1602 C1601 1.349 . S
C1602 C1614 1.349 . S
C1603 C1601 1.327 . S
C1603 C1619 1.429 . S
C1603 H1625 0.950 . S
C1604 H1600 0.949 . S
C1604 C1612 1.574 . S
C1604 C1620 1.368 . S
H1605 C1613 0.950 . S
H1606 C1611 0.950 . S
H1607 C1612 0.949 . S
H1608 C1614 0.950 . S
H1609 C1615 0.950 . S
H1610 C1616 0.949 . S
C1611 H1606 0.950 . S
C1611 C1613 1.327 . S
C1611 C1617 1.429 . S
C1612 C1604 1.574 . S
C1612 H1607 0.949 . S
C1612 C1618 1.368 . S
C1613 C1597 1.349 . S
C1613 H1605 0.950 . S
C1613 C1611 1.327 . S
C1614 C1602 1.349 . S
C1614 H1608 0.950 . S
C1614 C1615 1.327 . S
C1615 H1609 0.950 . S
C1615 C1614 1.327 . S
C1615 C1619 1.429 . S
C1616 C1599 1.574 . S
C1616 H1610 0.949 . S
C1616 C1620 1.368 . S
C1617 C1598 1.429 . S
C1617 C1611 1.429 . S
C1617 C1618 1.523 . S
C1618 C1599 1.368 . S
C1618 C1612 1.368 . S
C1618 C1617 1.523 . S
C1619 C1603 1.429 . S
C1619 C1615 1.429 . S
C1619 C1620 1.523 . S
C1620 C1604 1.368 . S
C1620 C1616 1.368 . S
C1620 C1619 1.523 . S
H1621 C1596 0.950 . S
H1622 C1598 0.950 . S
H1623 C1599 0.949 . S
H1624 C1601 0.950 . S
H1625 C1603 0.950 . S
C1626 C1627 1.349 . S
C1626 C1628 1.327 . S
C1626 H1651 0.950 . S
C1627 C1626 1.349 . S
C1627 C1643 1.349 . S
C1628 C1626 1.327 . S
C1628 C1647 1.429 . S
C1628 H1652 0.950 . S
C1629 C1646 1.574 . S
C1629 C1648 1.368 . S
C1629 H1653 0.949 . S
H1630 C1634 0.949 . S
C1631 C1632 1.349 . S
C1631 C1633 1.327 . S
C1631 H1654 0.950 . S
C1632 C1631 1.349 . S
C1632 C1644 1.349 . S
C1633 C1631 1.327 . S
C1633 C1649 1.429 . S
C1633 H1655 0.950 . S
C1634 H1630 0.949 . S
C1634 C1642 1.574 . S
C1634 C1650 1.368 . S
H1635 C1643 0.950 . S
H1636 C1641 0.950 . S
H1637 C1642 0.949 . S
H1638 C1644 0.950 . S
H1639 C1645 0.950 . S
H1640 C1646 0.949 . S
C1641 H1636 0.950 . S
C1641 C1643 1.327 . S
C1641 C1647 1.429 . S
C1642 C1634 1.574 . S
C1642 H1637 0.949 . S
C1642 C1648 1.368 . S
C1643 C1627 1.349 . S
C1643 H1635 0.950 . S
C1643 C1641 1.327 . S
C1644 C1632 1.349 . S
C1644 H1638 0.950 . S
C1644 C1645 1.327 . S
C1645 H1639 0.950 . S
C1645 C1644 1.327 . S
C1645 C1649 1.429 . S
C1646 C1629 1.574 . S
C1646 H1640 0.949 . S
C1646 C1650 1.368 . S
C1647 C1628 1.429 . S
C1647 C1641 1.429 . S
C1647 C1648 1.523 . S
C1648 C1629 1.368 . S
C1648 C1642 1.368 . S
C1648 C1647 1.523 . S
C1649 C1633 1.429 . S
C1649 C1645 1.429 . S
C1649 C1650 1.523 . S
C1650 C1634 1.368 . S
C1650 C1646 1.368 . S
C1650 C1649 1.523 . S
H1651 C1626 0.950 . S
H1652 C1628 0.950 . S
H1653 C1629 0.949 . S
H1654 C1631 0.950 . S
H1655 C1633 0.950 . S
C1656 C1657 1.349 . S
C1656 C1658 1.327 . S
C1656 H1681 0.950 . S
C1657 C1656 1.349 . S
C1657 C1673 1.349 . S
C1658 C1656 1.327 . S
C1658 C1677 1.429 . S
C1658 H1682 0.950 . S
C1659 C1676 1.574 . S
C1659 C1678 1.368 . S
C1659 H1683 0.949 . S
H1660 C1664 0.949 . S
C1661 C1662 1.349 . S
C1661 C1663 1.327 . S
C1661 H1684 0.950 . S
C1662 C1661 1.349 . S
C1662 C1674 1.349 . S
C1663 C1661 1.327 . S
C1663 C1679 1.429 . S
C1663 H1685 0.950 . S
C1664 H1660 0.949 . S
C1664 C1672 1.574 . S
C1664 C1680 1.368 . S
H1665 C1673 0.950 . S
H1666 C1671 0.950 . S
H1667 C1672 0.949 . S
H1668 C1674 0.950 . S
H1669 C1675 0.950 . S
H1670 C1676 0.949 . S
C1671 H1666 0.950 . S
C1671 C1673 1.327 . S
C1671 C1677 1.429 . S
C1672 C1664 1.574 . S
C1672 H1667 0.949 . S
C1672 C1678 1.368 . S
C1673 C1657 1.349 . S
C1673 H1665 0.950 . S
C1673 C1671 1.327 . S
C1674 C1662 1.349 . S
C1674 H1668 0.950 . S
C1674 C1675 1.327 . S
C1675 H1669 0.950 . S
C1675 C1674 1.327 . S
C1675 C1679 1.429 . S
C1676 C1659 1.574 . S
C1676 H1670 0.949 . S
C1676 C1680 1.368 . S
C1677 C1658 1.429 . S
C1677 C1671 1.429 . S
C1677 C1678 1.523 . S
C1678 C1659 1.368 . S
C1678 C1672 1.368 . S
C1678 C1677 1.523 . S
C1679 C1663 1.429 . S
C1679 C1675 1.429 . S
C1679 C1680 1.523 . S
C1680 C1664 1.368 . S
C1680 C1676 1.368 . S
C1680 C1679 1.523 . S
H1681 C1656 0.950 . S
H1682 C1658 0.950 . S
H1683 C1659 0.949 . S
H1684 C1661 0.950 . S
H1685 C1663 0.950 . S
C1686 C1687 1.349 . S
C1686 C1688 1.327 . S
C1686 H1711 0.950 . S
C1687 C1686 1.349 . S
C1687 C1703 1.349 . S
C1688 C1686 1.327 . S
C1688 C1707 1.429 . S
C1688 H1712 0.950 . S
C1689 C1706 1.574 . S
C1689 C1708 1.368 . S
C1689 H1713 0.949 . S
H1690 C1694 0.949 . S
C1691 C1692 1.349 . S
C1691 C1693 1.327 . S
C1691 H1714 0.950 . S
C1692 C1691 1.349 . S
C1692 C1704 1.349 . S
C1693 C1691 1.327 . S
C1693 C1709 1.429 . S
C1693 H1715 0.950 . S
C1694 H1690 0.949 . S
C1694 C1702 1.574 . S
C1694 C1710 1.368 . S
H1695 C1703 0.950 . S
H1696 C1701 0.950 . S
H1697 C1702 0.949 . S
H1698 C1704 0.950 . S
H1699 C1705 0.950 . S
H1700 C1706 0.949 . S
C1701 H1696 0.950 . S
C1701 C1703 1.327 . S
C1701 C1707 1.429 . S
C1702 C1694 1.574 . S
C1702 H1697 0.949 . S
C1702 C1708 1.368 . S
C1703 C1687 1.349 . S
C1703 H1695 0.950 . S
C1703 C1701 1.327 . S
C1704 C1692 1.349 . S
C1704 H1698 0.950 . S
C1704 C1705 1.327 . S
C1705 H1699 0.950 . S
C1705 C1704 1.327 . S
C1705 C1709 1.429 . S
C1706 C1689 1.574 . S
C1706 H1700 0.949 . S
C1706 C1710 1.368 . S
C1707 C1688 1.429 . S
C1707 C1701 1.429 . S
C1707 C1708 1.523 . S
C1708 C1689 1.368 . S
C1708 C1702 1.368 . S
C1708 C1707 1.523 . S
C1709 C1693 1.429 . S
C1709 C1705 1.429 . S
C1709 C1710 1.523 . S
C1710 C1694 1.368 . S
C1710 C1706 1.368 . S
C1710 C1709 1.523 . S
H1711 C1686 0.950 . S
H1712 C1688 0.950 . S
H1713 C1689 0.949 . S
H1714 C1691 0.950 . S
H1715 C1693 0.950 . S
C1716 C1717 1.349 . S
C1716 C1718 1.327 . S
C1716 H1741 0.950 . S
C1717 C1716 1.349 . S
C1717 C1733 1.349 . S
C1718 C1716 1.327 . S
C1718 C1737 1.429 . S
C1718 H1742 0.950 . S
C1719 C1736 1.574 . S
C1719 C1738 1.368 . S
C1719 H1743 0.949 . S
H1720 C1724 0.949 . S
C1721 C1722 1.349 . S
C1721 C1723 1.327 . S
C1721 H1744 0.950 . S
C1722 C1721 1.349 . S
C1722 C1734 1.349 . S
C1723 C1721 1.327 . S
C1723 C1739 1.429 . S
C1723 H1745 0.950 . S
C1724 H1720 0.949 . S
C1724 C1732 1.574 . S
C1724 C1740 1.368 . S
H1725 C1733 0.950 . S
H1726 C1731 0.950 . S
H1727 C1732 0.949 . S
H1728 C1734 0.950 . S
H1729 C1735 0.950 . S
H1730 C1736 0.949 . S
C1731 H1726 0.950 . S
C1731 C1733 1.327 . S
C1731 C1737 1.429 . S
C1732 C1724 1.574 . S
C1732 H1727 0.949 . S
C1732 C1738 1.368 . S
C1733 C1717 1.349 . S
C1733 H1725 0.950 . S
C1733 C1731 1.327 . S
C1734 C1722 1.349 . S
C1734 H1728 0.950 . S
C1734 C1735 1.327 . S
C1735 H1729 0.950 . S
C1735 C1734 1.327 . S
C1735 C1739 1.429 . S
C1736 C1719 1.574 . S
C1736 H1730 0.949 . S
C1736 C1740 1.368 . S
C1737 C1718 1.429 . S
C1737 C1731 1.429 . S
C1737 C1738 1.523 . S
C1738 C1719 1.368 . S
C1738 C1732 1.368 . S
C1738 C1737 1.523 . S
C1739 C1723 1.429 . S
C1739 C1735 1.429 . S
C1739 C1740 1.523 . S
C1740 C1724 1.368 . S
C1740 C1736 1.368 . S
C1740 C1739 1.523 . S
H1741 C1716 0.950 . S
H1742 C1718 0.950 . S
H1743 C1719 0.949 . S
H1744 C1721 0.950 . S
H1745 C1723 0.950 . S
C1746 C1747 1.349 . S
C1746 C1748 1.327 . S
C1746 H1771 0.950 . S
C1747 C1746 1.349 . S
C1747 C1763 1.349 . S
C1748 C1746 1.327 . S
C1748 C1767 1.429 . S
C1748 H1772 0.950 . S
C1749 C1766 1.574 . S
C1749 C1768 1.368 . S
C1749 H1773 0.949 . S
H1750 C1754 0.949 . S
C1751 C1752 1.349 . S
C1751 C1753 1.327 . S
C1751 H1774 0.950 . S
C1752 C1751 1.349 . S
C1752 C1764 1.349 . S
C1753 C1751 1.327 . S
C1753 C1769 1.429 . S
C1753 H1775 0.950 . S
C1754 H1750 0.949 . S
C1754 C1762 1.574 . S
C1754 C1770 1.368 . S
H1755 C1763 0.950 . S
H1756 C1761 0.950 . S
H1757 C1762 0.949 . S
H1758 C1764 0.950 . S
H1759 C1765 0.950 . S
H1760 C1766 0.949 . S
C1761 H1756 0.950 . S
C1761 C1763 1.327 . S
C1761 C1767 1.429 . S
C1762 C1754 1.574 . S
C1762 H1757 0.949 . S
C1762 C1768 1.368 . S
C1763 C1747 1.349 . S
C1763 H1755 0.950 . S
C1763 C1761 1.327 . S
C1764 C1752 1.349 . S
C1764 H1758 0.950 . S
C1764 C1765 1.327 . S
C1765 H1759 0.950 . S
C1765 C1764 1.327 . S
C1765 C1769 1.429 . S
C1766 C1749 1.574 . S
C1766 H1760 0.949 . S
C1766 C1770 1.368 . S
C1767 C1748 1.429 . S
C1767 C1761 1.429 . S
C1767 C1768 1.523 . S
C1768 C1749 1.368 . S
C1768 C1762 1.368 . S
C1768 C1767 1.523 . S
C1769 C1753 1.429 . S
C1769 C1765 1.429 . S
C1769 C1770 1.523 . S
C1770 C1754 1.368 . S
C1770 C1766 1.368 . S
C1770 C1769 1.523 . S
H1771 C1746 0.950 . S
H1772 C1748 0.950 . S
H1773 C1749 0.949 . S
H1774 C1751 0.950 . S
H1775 C1753 0.950 . S
C1776 C1777 1.349 . S
C1776 C1778 1.327 . S
C1776 H1801 0.950 . S
C1777 C1776 1.349 . S
C1777 C1793 1.349 . S
C1778 C1776 1.327 . S
C1778 C1797 1.429 . S
C1778 H1802 0.950 . S
C1779 C1796 1.574 . S
C1779 C1798 1.368 . S
C1779 H1803 0.949 . S
H1780 C1784 0.949 . S
C1781 C1782 1.349 . S
C1781 C1783 1.327 . S
C1781 H1804 0.950 . S
C1782 C1781 1.349 . S
C1782 C1794 1.349 . S
C1783 C1781 1.327 . S
C1783 C1799 1.429 . S
C1783 H1805 0.950 . S
C1784 H1780 0.949 . S
C1784 C1792 1.574 . S
C1784 C1800 1.368 . S
H1785 C1793 0.950 . S
H1786 C1791 0.950 . S
H1787 C1792 0.949 . S
H1788 C1794 0.950 . S
H1789 C1795 0.950 . S
H1790 C1796 0.949 . S
C1791 H1786 0.950 . S
C1791 C1793 1.327 . S
C1791 C1797 1.429 . S
C1792 C1784 1.574 . S
C1792 H1787 0.949 . S
C1792 C1798 1.368 . S
C1793 C1777 1.349 . S
C1793 H1785 0.950 . S
C1793 C1791 1.327 . S
C1794 C1782 1.349 . S
C1794 H1788 0.950 . S
C1794 C1795 1.327 . S
C1795 H1789 0.950 . S
C1795 C1794 1.327 . S
C1795 C1799 1.429 . S
C1796 C1779 1.574 . S
C1796 H1790 0.949 . S
C1796 C1800 1.368 . S
C1797 C1778 1.429 . S
C1797 C1791 1.429 . S
C1797 C1798 1.523 . S
C1798 C1779 1.368 . S
C1798 C1792 1.368 . S
C1798 C1797 1.523 . S
C1799 C1783 1.429 . S
C1799 C1795 1.429 . S
C1799 C1800 1.523 . S
C1800 C1784 1.368 . S
C1800 C1796 1.368 . S
C1800 C1799 1.523 . S
H1801 C1776 0.950 . S
H1802 C1778 0.950 . S
H1803 C1779 0.949 . S
H1804 C1781 0.950 . S
H1805 C1783 0.950 . S
C1806 C1807 1.349 . S
C1806 C1808 1.327 . S
C1806 H1831 0.950 . S
C1807 C1806 1.349 . S
C1807 C1823 1.349 . S
C1808 C1806 1.327 . S
C1808 C1827 1.429 . S
C1808 H1832 0.950 . S
C1809 C1826 1.574 . S
C1809 C1828 1.368 . S
C1809 H1833 0.949 . S
H1810 C1814 0.949 . S
C1811 C1812 1.349 . S
C1811 C1813 1.327 . S
C1811 H1834 0.950 . S
C1812 C1811 1.349 . S
C1812 C1824 1.349 . S
C1813 C1811 1.327 . S
C1813 C1829 1.429 . S
C1813 H1835 0.950 . S
C1814 H1810 0.949 . S
C1814 C1822 1.574 . S
C1814 C1830 1.368 . S
H1815 C1823 0.950 . S
H1816 C1821 0.950 . S
H1817 C1822 0.949 . S
H1818 C1824 0.950 . S
H1819 C1825 0.950 . S
H1820 C1826 0.949 . S
C1821 H1816 0.950 . S
C1821 C1823 1.327 . S
C1821 C1827 1.429 . S
C1822 C1814 1.574 . S
C1822 H1817 0.949 . S
C1822 C1828 1.368 . S
C1823 C1807 1.349 . S
C1823 H1815 0.950 . S
C1823 C1821 1.327 . S
C1824 C1812 1.349 . S
C1824 H1818 0.950 . S
C1824 C1825 1.327 . S
C1825 H1819 0.950 . S
C1825 C1824 1.327 . S
C1825 C1829 1.429 . S
C1826 C1809 1.574 . S
C1826 H1820 0.949 . S
C1826 C1830 1.368 . S
C1827 C1808 1.429 . S
C1827 C1821 1.429 . S
C1827 C1828 1.523 . S
C1828 C1809 1.368 . S
C1828 C1822 1.368 . S
C1828 C1827 1.523 . S
C1829 C1813 1.429 . S
C1829 C1825 1.429 . S
C1829 C1830 1.523 . S
C1830 C1814 1.368 . S
C1830 C1826 1.368 . S
C1830 C1829 1.523 . S
H1831 C1806 0.950 . S
H1832 C1808 0.950 . S
H1833 C1809 0.949 . S
H1834 C1811 0.950 . S
H1835 C1813 0.950 . S
C1836 C1837 1.349 . S
C1836 C1838 1.327 . S
C1836 H1861 0.950 . S
C1837 C1836 1.349 . S
C1837 C1853 1.349 . S
C1838 C1836 1.327 . S
C1838 C1857 1.429 . S
C1838 H1862 0.950 . S
C1839 C1856 1.574 . S
C1839 C1858 1.368 . S
C1839 H1863 0.949 . S
H1840 C1844 0.949 . S
C1841 C1842 1.349 . S
C1841 C1843 1.327 . S
C1841 H1864 0.950 . S
C1842 C1841 1.349 . S
C1842 C1854 1.349 . S
C1843 C1841 1.327 . S
C1843 C1859 1.429 . S
C1843 H1865 0.950 . S
C1844 H1840 0.949 . S
C1844 C1852 1.574 . S
C1844 C1860 1.368 . S
H1845 C1853 0.950 . S
H1846 C1851 0.950 . S
H1847 C1852 0.949 . S
H1848 C1854 0.950 . S
H1849 C1855 0.950 . S
H1850 C1856 0.949 . S
C1851 H1846 0.950 . S
C1851 C1853 1.327 . S
C1851 C1857 1.429 . S
C1852 C1844 1.574 . S
C1852 H1847 0.949 . S
C1852 C1858 1.368 . S
C1853 C1837 1.349 . S
C1853 H1845 0.950 . S
C1853 C1851 1.327 . S
C1854 C1842 1.349 . S
C1854 H1848 0.950 . S
C1854 C1855 1.327 . S
C1855 H1849 0.950 . S
C1855 C1854 1.327 . S
C1855 C1859 1.429 . S
C1856 C1839 1.574 . S
C1856 H1850 0.949 . S
C1856 C1860 1.368 . S
C1857 C1838 1.429 . S
C1857 C1851 1.429 . S
C1857 C1858 1.523 . S
C1858 C1839 1.368 . S
C1858 C1852 1.368 . S
C1858 C1857 1.523 . S
C1859 C1843 1.429 . S
C1859 C1855 1.429 . S
C1859 C1860 1.523 . S
C1860 C1844 1.368 . S
C1860 C1856 1.368 . S
C1860 C1859 1.523 . S
H1861 C1836 0.950 . S
H1862 C1838 0.950 . S
H1863 C1839 0.949 . S
H1864 C1841 0.950 . S
H1865 C1843 0.950 . S
C1866 C1867 1.349 . S
C1866 C1868 1.327 . S
C1866 H1891 0.950 . S
C1867 C1866 1.349 . S
C1867 C1883 1.349 . S
C1868 C1866 1.327 . S
C1868 C1887 1.429 . S
C1868 H1892 0.950 . S
C1869 C1886 1.574 . S
C1869 C1888 1.368 . S
C1869 H1893 0.949 . S
H1870 C1874 0.949 . S
C1871 C1872 1.349 . S
C1871 C1873 1.327 . S
C1871 H1894 0.950 . S
C1872 C1871 1.349 . S
C1872 C1884 1.349 . S
C1873 C1871 1.327 . S
C1873 C1889 1.429 . S
C1873 H1895 0.950 . S
C1874 H1870 0.949 . S
C1874 C1882 1.574 . S
C1874 C1890 1.368 . S
H1875 C1883 0.950 . S
H1876 C1881 0.950 . S
H1877 C1882 0.949 . S
H1878 C1884 0.950 . S
H1879 C1885 0.950 . S
H1880 C1886 0.949 . S
C1881 H1876 0.950 . S
C1881 C1883 1.327 . S
C1881 C1887 1.429 . S
C1882 C1874 1.574 . S
C1882 H1877 0.949 . S
C1882 C1888 1.368 . S
C1883 C1867 1.349 . S
C1883 H1875 0.950 . S
C1883 C1881 1.327 . S
C1884 C1872 1.349 . S
C1884 H1878 0.950 . S
C1884 C1885 1.327 . S
C1885 H1879 0.950 . S
C1885 C1884 1.327 . S
C1885 C1889 1.429 . S
C1886 C1869 1.574 . S
C1886 H1880 0.949 . S
C1886 C1890 1.368 . S
C1887 C1868 1.429 . S
C1887 C1881 1.429 . S
C1887 C1888 1.523 . S
C1888 C1869 1.368 . S
C1888 C1882 1.368 . S
C1888 C1887 1.523 . S
C1889 C1873 1.429 . S
C1889 C1885 1.429 . S
C1889 C1890 1.523 . S
C1890 C1874 1.368 . S
C1890 C1886 1.368 . S
C1890 C1889 1.523 . S
H1891 C1866 0.950 . S
H1892 C1868 0.950 . S
H1893 C1869 0.949 . S
H1894 C1871 0.950 . S
H1895 C1873 0.950 . S
C1896 C1897 1.349 . S
C1896 C1898 1.327 . S
C1896 H1921 0.950 . S
C1897 C1896 1.349 . S
C1897 C1913 1.349 . S
C1898 C1896 1.327 . S
C1898 C1917 1.429 . S
C1898 H1922 0.950 . S
C1899 C1916 1.574 . S
C1899 C1918 1.368 . S
C1899 H1923 0.949 . S
H1900 C1904 0.949 . S
C1901 C1902 1.349 . S
C1901 C1903 1.327 . S
C1901 H1924 0.950 . S
C1902 C1901 1.349 . S
C1902 C1914 1.349 . S
C1903 C1901 1.327 . S
C1903 C1919 1.429 . S
C1903 H1925 0.950 . S
C1904 H1900 0.949 . S
C1904 C1912 1.574 . S
C1904 C1920 1.368 . S
H1905 C1913 0.950 . S
H1906 C1911 0.950 . S
H1907 C1912 0.949 . S
H1908 C1914 0.950 . S
H1909 C1915 0.950 . S
H1910 C1916 0.949 . S
C1911 H1906 0.950 . S
C1911 C1913 1.327 . S
C1911 C1917 1.429 . S
C1912 C1904 1.574 . S
C1912 H1907 0.949 . S
C1912 C1918 1.368 . S
C1913 C1897 1.349 . S
C1913 H1905 0.950 . S
C1913 C1911 1.327 . S
C1914 C1902 1.349 . S
C1914 H1908 0.950 . S
C1914 C1915 1.327 . S
C1915 H1909 0.950 . S
C1915 C1914 1.327 . S
C1915 C1919 1.429 . S
C1916 C1899 1.574 . S
C1916 H1910 0.949 . S
C1916 C1920 1.368 . S
C1917 C1898 1.429 . S
C1917 C1911 1.429 . S
C1917 C1918 1.523 . S
C1918 C1899 1.368 . S
C1918 C1912 1.368 . S
C1918 C1917 1.523 . S
C1919 C1903 1.429 . S
C1919 C1915 1.429 . S
C1919 C1920 1.523 . S
C1920 C1904 1.368 . S
C1920 C1916 1.368 . S
C1920 C1919 1.523 . S
H1921 C1896 0.950 . S
H1922 C1898 0.950 . S
H1923 C1899 0.949 . S
H1924 C1901 0.950 . S
H1925 C1903 0.950 . S
C1926 C1927 1.349 . S
C1926 C1928 1.327 . S
C1926 H1951 0.950 . S
C1927 C1926 1.349 . S
C1927 C1943 1.349 . S
C1928 C1926 1.327 . S
C1928 C1947 1.429 . S
C1928 H1952 0.950 . S
C1929 C1946 1.574 . S
C1929 C1948 1.368 . S
C1929 H1953 0.949 . S
H1930 C1934 0.949 . S
C1931 C1932 1.349 . S
C1931 C1933 1.327 . S
C1931 H1954 0.950 . S
C1932 C1931 1.349 . S
C1932 C1944 1.349 . S
C1933 C1931 1.327 . S
C1933 C1949 1.429 . S
C1933 H1955 0.950 . S
C1934 H1930 0.949 . S
C1934 C1942 1.574 . S
C1934 C1950 1.368 . S
H1935 C1943 0.950 . S
H1936 C1941 0.950 . S
H1937 C1942 0.949 . S
H1938 C1944 0.950 . S
H1939 C1945 0.950 . S
H1940 C1946 0.949 . S
C1941 H1936 0.950 . S
C1941 C1943 1.327 . S
C1941 C1947 1.429 . S
C1942 C1934 1.574 . S
C1942 H1937 0.949 . S
C1942 C1948 1.368 . S
C1943 C1927 1.349 . S
C1943 H1935 0.950 . S
C1943 C1941 1.327 . S
C1944 C1932 1.349 . S
C1944 H1938 0.950 . S
C1944 C1945 1.327 . S
C1945 H1939 0.950 . S
C1945 C1944 1.327 . S
C1945 C1949 1.429 . S
C1946 C1929 1.574 . S
C1946 H1940 0.949 . S
C1946 C1950 1.368 . S
C1947 C1928 1.429 . S
C1947 C1941 1.429 . S
C1947 C1948 1.523 . S
C1948 C1929 1.368 . S
C1948 C1942 1.368 . S
C1948 C1947 1.523 . S
C1949 C1933 1.429 . S
C1949 C1945 1.429 . S
C1949 C1950 1.523 . S
C1950 C1934 1.368 . S
C1950 C1946 1.368 . S
C1950 C1949 1.523 . S
H1951 C1926 0.950 . S
H1952 C1928 0.950 . S
H1953 C1929 0.949 . S
H1954 C1931 0.950 . S
H1955 C1933 0.950 . S
C1956 C1957 1.349 . S
C1956 C1958 1.327 . S
C1956 H1981 0.950 . S
C1957 C1956 1.349 . S
C1957 C1973 1.349 . S
C1958 C1956 1.327 . S
C1958 C1977 1.429 . S
C1958 H1982 0.950 . S
C1959 C1976 1.574 . S
C1959 C1978 1.368 . S
C1959 H1983 0.949 . S
H1960 C1964 0.949 . S
C1961 C1962 1.349 . S
C1961 C1963 1.327 . S
C1961 H1984 0.950 . S
C1962 C1961 1.349 . S
C1962 C1974 1.349 . S
C1963 C1961 1.327 . S
C1963 C1979 1.429 . S
C1963 H1985 0.950 . S
C1964 H1960 0.949 . S
C1964 C1972 1.574 . S
C1964 C1980 1.368 . S
H1965 C1973 0.950 . S
H1966 C1971 0.950 . S
H1967 C1972 0.949 . S
H1968 C1974 0.950 . S
H1969 C1975 0.950 . S
H1970 C1976 0.949 . S
C1971 H1966 0.950 . S
C1971 C1973 1.327 . S
C1971 C1977 1.429 . S
C1972 C1964 1.574 . S
C1972 H1967 0.949 . S
C1972 C1978 1.368 . S
C1973 C1957 1.349 . S
C1973 H1965 0.950 . S
C1973 C1971 1.327 . S
C1974 C1962 1.349 . S
C1974 H1968 0.950 . S
C1974 C1975 1.327 . S
C1975 H1969 0.950 . S
C1975 C1974 1.327 . S
C1975 C1979 1.429 . S
C1976 C1959 1.574 . S
C1976 H1970 0.949 . S
C1976 C1980 1.368 . S
C1977 C1958 1.429 . S
C1977 C1971 1.429 . S
C1977 C1978 1.523 . S
C1978 C1959 1.368 . S
C1978 C1972 1.368 . S
C1978 C1977 1.523 . S
C1979 C1963 1.429 . S
C1979 C1975 1.429 . S
C1979 C1980 1.523 . S
C1980 C1964 1.368 . S
C1980 C1976 1.368 . S
C1980 C1979 1.523 . S
H1981 C1956 0.950 . S
H1982 C1958 0.950 . S
H1983 C1959 0.949 . S
H1984 C1961 0.950 . S
H1985 C1963 0.950 . S
C1986 C1987 1.349 . S
C1986 C1988 1.327 . S
C1986 H2011 0.950 . S
C1987 C1986 1.349 . S
C1987 C2003 1.349 . S
C1988 C1986 1.327 . S
C1988 C2007 1.429 . S
C1988 H2012 0.950 . S
C1989 C2006 1.574 . S
C1989 C2008 1.368 . S
C1989 H2013 0.949 . S
H1990 C1994 0.949 . S
C1991 C1992 1.349 . S
C1991 C1993 1.327 . S
C1991 H2014 0.950 . S
C1992 C1991 1.349 . S
C1992 C2004 1.349 . S
C1993 C1991 1.327 . S
C1993 C2009 1.429 . S
C1993 H2015 0.950 . S
C1994 H1990 0.949 . S
C1994 C2002 1.574 . S
C1994 C2010 1.368 . S
H1995 C2003 0.950 . S
H1996 C2001 0.950 . S
H1997 C2002 0.949 . S
H1998 C2004 0.950 . S
H1999 C2005 0.950 . S
H2000 C2006 0.949 . S
C2001 H1996 0.950 . S
C2001 C2003 1.327 . S
C2001 C2007 1.429 . S
C2002 C1994 1.574 . S
C2002 H1997 0.949 . S
C2002 C2008 1.368 . S
C2003 C1987 1.349 . S
C2003 H1995 0.950 . S
C2003 C2001 1.327 . S
C2004 C1992 1.349 . S
C2004 H1998 0.950 . S
C2004 C2005 1.327 . S
C2005 H1999 0.950 . S
C2005 C2004 1.327 . S
C2005 C2009 1.429 . S
C2006 C1989 1.574 . S
C2006 H2000 0.949 . S
C2006 C2010 1.368 . S
C2007 C1988 1.429 . S
C2007 C2001 1.429 . S
C2007 C2008 1.523 . S
C2008 C1989 1.368 . S
C2008 C2002 1.368 . S
C2008 C2007 1.523 . S
C2009 C1993 1.429 . S
C2009 C2005 1.429 . S
C2009 C2010 1.523 . S
C2010 C1994 1.368 . S
C2010 C2006 1.368 . S
C2010 C2009 1.523 . S
H2011 C1986 0.950 . S
H2012 C1988 0.950 . S
H2013 C1989 0.949 . S
H2014 C1991 0.950 . S
H2015 C1993 0.950 . S
C2016 C2017 1.349 . S
C2016 C2018 1.327 . S
C2016 H2041 0.950 . S
C2017 C2016 1.349 . S
C2017 C2033 1.349 . S
C2018 C2016 1.327 . S
C2018 C2037 1.429 . S
C2018 H2042 0.950 . S
C2019 C2036 1.574 . S
C2019 C2038 1.368 . S
C2019 H2043 0.949 . S
H2020 C2024 0.949 . S
C2021 C2022 1.349 . S
C2021 C2023 1.327 . S
C2021 H2044 0.950 . S
C2022 C2021 1.349 . S
C2022 C2034 1.349 . S
C2023 C2021 1.327 . S
C2023 C2039 1.429 . S
C2023 H2045 0.950 . S
C2024 H2020 0.949 . S
C2024 C2032 1.574 . S
C2024 C2040 1.368 . S
H2025 C2033 0.950 . S
H2026 C2031 0.950 . S
H2027 C2032 0.949 . S
H2028 C2034 0.950 . S
H2029 C2035 0.950 . S
H2030 C2036 0.949 . S
C2031 H2026 0.950 . S
C2031 C2033 1.327 . S
C2031 C2037 1.429 . S
C2032 C2024 1.574 . S
C2032 H2027 0.949 . S
C2032 C2038 1.368 . S
C2033 C2017 1.349 . S
C2033 H2025 0.950 . S
C2033 C2031 1.327 . S
C2034 C2022 1.349 . S
C2034 H2028 0.950 . S
C2034 C2035 1.327 . S
C2035 H2029 0.950 . S
C2035 C2034 1.327 . S
C2035 C2039 1.429 . S
C2036 C2019 1.574 . S
C2036 H2030 0.949 . S
C2036 C2040 1.368 . S
C2037 C2018 1.429 . S
C2037 C2031 1.429 . S
C2037 C2038 1.523 . S
C2038 C2019 1.368 . S
C2038 C2032 1.368 . S
C2038 C2037 1.523 . S
C2039 C2023 1.429 . S
C2039 C2035 1.429 . S
C2039 C2040 1.523 . S
C2040 C2024 1.368 . S
C2040 C2036 1.368 . S
C2040 C2039 1.523 . S
H2041 C2016 0.950 . S
H2042 C2018 0.950 . S
H2043 C2019 0.949 . S
H2044 C2021 0.950 . S
H2045 C2023 0.950 . S
C2046 C2047 1.349 . S
C2046 C2048 1.327 . S
C2046 H2071 0.950 . S
C2047 C2046 1.349 . S
C2047 C2063 1.349 . S
C2048 C2046 1.327 . S
C2048 C2067 1.429 . S
C2048 H2072 0.950 . S
C2049 C2066 1.574 . S
C2049 C2068 1.368 . S
C2049 H2073 0.949 . S
H2050 C2054 0.949 . S
C2051 C2052 1.349 . S
C2051 C2053 1.327 . S
C2051 H2074 0.950 . S
C2052 C2051 1.349 . S
C2052 C2064 1.349 . S
C2053 C2051 1.327 . S
C2053 C2069 1.429 . S
C2053 H2075 0.950 . S
C2054 H2050 0.949 . S
C2054 C2062 1.574 . S
C2054 C2070 1.368 . S
H2055 C2063 0.950 . S
H2056 C2061 0.950 . S
H2057 C2062 0.949 . S
H2058 C2064 0.950 . S
H2059 C2065 0.950 . S
H2060 C2066 0.949 . S
C2061 H2056 0.950 . S
C2061 C2063 1.327 . S
C2061 C2067 1.429 . S
C2062 C2054 1.574 . S
C2062 H2057 0.949 . S
C2062 C2068 1.368 . S
C2063 C2047 1.349 . S
C2063 H2055 0.950 . S
C2063 C2061 1.327 . S
C2064 C2052 1.349 . S
C2064 H2058 0.950 . S
C2064 C2065 1.327 . S
C2065 H2059 0.950 . S
C2065 C2064 1.327 . S
C2065 C2069 1.429 . S
C2066 C2049 1.574 . S
C2066 H2060 0.949 . S
C2066 C2070 1.368 . S
C2067 C2048 1.429 . S
C2067 C2061 1.429 . S
C2067 C2068 1.523 . S
C2068 C2049 1.368 . S
C2068 C2062 1.368 . S
C2068 C2067 1.523 . S
C2069 C2053 1.429 . S
C2069 C2065 1.429 . S
C2069 C2070 1.523 . S
C2070 C2054 1.368 . S
C2070 C2066 1.368 . S
C2070 C2069 1.523 . S
H2071 C2046 0.950 . S
H2072 C2048 0.950 . S
H2073 C2049 0.949 . S
H2074 C2051 0.950 . S
H2075 C2053 0.950 . S
C2076 C2077 1.349 . S
C2076 C2078 1.327 . S
C2076 H2101 0.950 . S
C2077 C2076 1.349 . S
C2077 C2093 1.349 . S
C2078 C2076 1.327 . S
C2078 C2097 1.429 . S
C2078 H2102 0.950 . S
C2079 C2096 1.574 . S
C2079 C2098 1.368 . S
C2079 H2103 0.949 . S
H2080 C2084 0.949 . S
C2081 C2082 1.349 . S
C2081 C2083 1.327 . S
C2081 H2104 0.950 . S
C2082 C2081 1.349 . S
C2082 C2094 1.349 . S
C2083 C2081 1.327 . S
C2083 C2099 1.429 . S
C2083 H2105 0.950 . S
C2084 H2080 0.949 . S
C2084 C2092 1.574 . S
C2084 C2100 1.368 . S
H2085 C2093 0.950 . S
H2086 C2091 0.950 . S
H2087 C2092 0.949 . S
H2088 C2094 0.950 . S
H2089 C2095 0.950 . S
H2090 C2096 0.949 . S
C2091 H2086 0.950 . S
C2091 C2093 1.327 . S
C2091 C2097 1.429 . S
C2092 C2084 1.574 . S
C2092 H2087 0.949 . S
C2092 C2098 1.368 . S
C2093 C2077 1.349 . S
C2093 H2085 0.950 . S
C2093 C2091 1.327 . S
C2094 C2082 1.349 . S
C2094 H2088 0.950 . S
C2094 C2095 1.327 . S
C2095 H2089 0.950 . S
C2095 C2094 1.327 . S
C2095 C2099 1.429 . S
C2096 C2079 1.574 . S
C2096 H2090 0.949 . S
C2096 C2100 1.368 . S
C2097 C2078 1.429 . S
C2097 C2091 1.429 . S
C2097 C2098 1.523 . S
C2098 C2079 1.368 . S
C2098 C2092 1.368 . S
C2098 C2097 1.523 . S
C2099 C2083 1.429 . S
C2099 C2095 1.429 . S
C2099 C2100 1.523 . S
C2100 C2084 1.368 . S
C2100 C2096 1.368 . S
C2100 C2099 1.523 . S
H2101 C2076 0.950 . S
H2102 C2078 0.950 . S
H2103 C2079 0.949 . S
H2104 C2081 0.950 . S
H2105 C2083 0.950 . S
C2106 C2107 1.349 . S
C2106 C2108 1.327 . S
C2106 H2131 0.950 . S
C2107 C2106 1.349 . S
C2107 C2123 1.349 . S
C2108 C2106 1.327 . S
C2108 C2127 1.429 . S
C2108 H2132 0.950 . S
C2109 C2126 1.574 . S
C2109 C2128 1.368 . S
C2109 H2133 0.949 . S
H2110 C2114 0.949 . S
C2111 C2112 1.349 . S
C2111 C2113 1.327 . S
C2111 H2134 0.950 . S
C2112 C2111 1.349 . S
C2112 C2124 1.349 . S
C2113 C2111 1.327 . S
C2113 C2129 1.429 . S
C2113 H2135 0.950 . S
C2114 H2110 0.949 . S
C2114 C2122 1.574 . S
C2114 C2130 1.368 . S
H2115 C2123 0.950 . S
H2116 C2121 0.950 . S
H2117 C2122 0.949 . S
H2118 C2124 0.950 . S
H2119 C2125 0.950 . S
H2120 C2126 0.949 . S
C2121 H2116 0.950 . S
C2121 C2123 1.327 . S
C2121 C2127 1.429 . S
C2122 C2114 1.574 . S
C2122 H2117 0.949 . S
C2122 C2128 1.368 . S
C2123 C2107 1.349 . S
C2123 H2115 0.950 . S
C2123 C2121 1.327 . S
C2124 C2112 1.349 . S
C2124 H2118 0.950 . S
C2124 C2125 1.327 . S
C2125 H2119 0.950 . S
C2125 C2124 1.327 . S
C2125 C2129 1.429 . S
C2126 C2109 1.574 . S
C2126 H2120 0.949 . S
C2126 C2130 1.368 . S
C2127 C2108 1.429 . S
C2127 C2121 1.429 . S
C2127 C2128 1.523 . S
C2128 C2109 1.368 . S
C2128 C2122 1.368 . S
C2128 C2127 1.523 . S
C2129 C2113 1.429 . S
C2129 C2125 1.429 . S
C2129 C2130 1.523 . S
C2130 C2114 1.368 . S
C2130 C2126 1.368 . S
C2130 C2129 1.523 . S
H2131 C2106 0.950 . S
H2132 C2108 0.950 . S
H2133 C2109 0.949 . S
H2134 C2111 0.950 . S
H2135 C2113 0.950 . S
C2136 C2137 1.349 . S
C2136 C2138 1.327 . S
C2136 H2161 0.950 . S
C2137 C2136 1.349 . S
C2137 C2153 1.349 . S
C2138 C2136 1.327 . S
C2138 C2157 1.429 . S
C2138 H2162 0.950 . S
C2139 C2156 1.574 . S
C2139 C2158 1.368 . S
C2139 H2163 0.949 . S
H2140 C2144 0.949 . S
C2141 C2142 1.349 . S
C2141 C2143 1.327 . S
C2141 H2164 0.950 . S
C2142 C2141 1.349 . S
C2142 C2154 1.349 . S
C2143 C2141 1.327 . S
C2143 C2159 1.429 . S
C2143 H2165 0.950 . S
C2144 H2140 0.949 . S
C2144 C2152 1.574 . S
C2144 C2160 1.368 . S
H2145 C2153 0.950 . S
H2146 C2151 0.950 . S
H2147 C2152 0.949 . S
H2148 C2154 0.950 . S
H2149 C2155 0.950 . S
H2150 C2156 0.949 . S
C2151 H2146 0.950 . S
C2151 C2153 1.327 . S
C2151 C2157 1.429 . S
C2152 C2144 1.574 . S
C2152 H2147 0.949 . S
C2152 C2158 1.368 . S
C2153 C2137 1.349 . S
C2153 H2145 0.950 . S
C2153 C2151 1.327 . S
C2154 C2142 1.349 . S
C2154 H2148 0.950 . S
C2154 C2155 1.327 . S
C2155 H2149 0.950 . S
C2155 C2154 1.327 . S
C2155 C2159 1.429 . S
C2156 C2139 1.574 . S
C2156 H2150 0.949 . S
C2156 C2160 1.368 . S
C2157 C2138 1.429 . S
C2157 C2151 1.429 . S
C2157 C2158 1.523 . S
C2158 C2139 1.368 . S
C2158 C2152 1.368 . S
C2158 C2157 1.523 . S
C2159 C2143 1.429 . S
C2159 C2155 1.429 . S
C2159 C2160 1.523 . S
C2160 C2144 1.368 . S
C2160 C2156 1.368 . S
C2160 C2159 1.523 . S
H2161 C2136 0.950 . S
H2162 C2138 0.950 . S
H2163 C2139 0.949 . S
H2164 C2141 0.950 . S
H2165 C2143 0.950 . S
C2166 C2167 1.349 . S
C2166 C2168 1.327 . S
C2166 H2191 0.950 . S
C2167 C2166 1.349 . S
C2167 C2183 1.349 . S
C2168 C2166 1.327 . S
C2168 C2187 1.429 . S
C2168 H2192 0.950 . S
C2169 C2186 1.574 . S
C2169 C2188 1.368 . S
C2169 H2193 0.949 . S
H2170 C2174 0.949 . S
C2171 C2172 1.349 . S
C2171 C2173 1.327 . S
C2171 H2194 0.950 . S
C2172 C2171 1.349 . S
C2172 C2184 1.349 . S
C2173 C2171 1.327 . S
C2173 C2189 1.429 . S
C2173 H2195 0.950 . S
C2174 H2170 0.949 . S
C2174 C2182 1.574 . S
C2174 C2190 1.368 . S
H2175 C2183 0.950 . S
H2176 C2181 0.950 . S
H2177 C2182 0.949 . S
H2178 C2184 0.950 . S
H2179 C2185 0.950 . S
H2180 C2186 0.949 . S
C2181 H2176 0.950 . S
C2181 C2183 1.327 . S
C2181 C2187 1.429 . S
C2182 C2174 1.574 . S
C2182 H2177 0.949 . S
C2182 C2188 1.368 . S
C2183 C2167 1.349 . S
C2183 H2175 0.950 . S
C2183 C2181 1.327 . S
C2184 C2172 1.349 . S
C2184 H2178 0.950 . S
C2184 C2185 1.327 . S
C2185 H2179 0.950 . S
C2185 C2184 1.327 . S
C2185 C2189 1.429 . S
C2186 C2169 1.574 . S
C2186 H2180 0.949 . S
C2186 C2190 1.368 . S
C2187 C2168 1.429 . S
C2187 C2181 1.429 . S
C2187 C2188 1.523 . S
C2188 C2169 1.368 . S
C2188 C2182 1.368 . S
C2188 C2187 1.523 . S
C2189 C2173 1.429 . S
C2189 C2185 1.429 . S
C2189 C2190 1.523 . S
C2190 C2174 1.368 . S
C2190 C2186 1.368 . S
C2190 C2189 1.523 . S
H2191 C2166 0.950 . S
H2192 C2168 0.950 . S
H2193 C2169 0.949 . S
H2194 C2171 0.950 . S
H2195 C2173 0.950 . S
C2196 C2197 1.349 . S
C2196 C2198 1.327 . S
C2196 H2221 0.950 . S
C2197 C2196 1.349 . S
C2197 C2213 1.349 . S
C2198 C2196 1.327 . S
C2198 C2217 1.429 . S
C2198 H2222 0.950 . S
C2199 C2216 1.574 . S
C2199 C2218 1.368 . S
C2199 H2223 0.949 . S
H2200 C2204 0.949 . S
C2201 C2202 1.349 . S
C2201 C2203 1.327 . S
C2201 H2224 0.950 . S
C2202 C2201 1.349 . S
C2202 C2214 1.349 . S
C2203 C2201 1.327 . S
C2203 C2219 1.429 . S
C2203 H2225 0.950 . S
C2204 H2200 0.949 . S
C2204 C2212 1.574 . S
C2204 C2220 1.368 . S
H2205 C2213 0.950 . S
H2206 C2211 0.950 . S
H2207 C2212 0.949 . S
H2208 C2214 0.950 . S
H2209 C2215 0.950 . S
H2210 C2216 0.949 . S
C2211 H2206 0.950 . S
C2211 C2213 1.327 . S
C2211 C2217 1.429 . S
C2212 C2204 1.574 . S
C2212 H2207 0.949 . S
C2212 C2218 1.368 . S
C2213 C2197 1.349 . S
C2213 H2205 0.950 . S
C2213 C2211 1.327 . S
C2214 C2202 1.349 . S
C2214 H2208 0.950 . S
C2214 C2215 1.327 . S
C2215 H2209 0.950 . S
C2215 C2214 1.327 . S
C2215 C2219 1.429 . S
C2216 C2199 1.574 . S
C2216 H2210 0.949 . S
C2216 C2220 1.368 . S
C2217 C2198 1.429 . S
C2217 C2211 1.429 . S
C2217 C2218 1.523 . S
C2218 C2199 1.368 . S
C2218 C2212 1.368 . S
C2218 C2217 1.523 . S
C2219 C2203 1.429 . S
C2219 C2215 1.429 . S
C2219 C2220 1.523 . S
C2220 C2204 1.368 . S
C2220 C2216 1.368 . S
C2220 C2219 1.523 . S
H2221 C2196 0.950 . S
H2222 C2198 0.950 . S
H2223 C2199 0.949 . S
H2224 C2201 0.950 . S
H2225 C2203 0.950 . S
C2226 C2227 1.349 . S
C2226 C2228 1.327 . S
C2226 H2251 0.950 . S
C2227 C2226 1.349 . S
C2227 C2243 1.349 . S
C2228 C2226 1.327 . S
C2228 C2247 1.429 . S
C2228 H2252 0.950 . S
C2229 C2246 1.574 . S
C2229 C2248 1.368 . S
C2229 H2253 0.949 . S
H2230 C2234 0.949 . S
C2231 C2232 1.349 . S
C2231 C2233 1.327 . S
C2231 H2254 0.950 . S
C2232 C2231 1.349 . S
C2232 C2244 1.349 . S
C2233 C2231 1.327 . S
C2233 C2249 1.429 . S
C2233 H2255 0.950 . S
C2234 H2230 0.949 . S
C2234 C2242 1.574 . S
C2234 C2250 1.368 . S
H2235 C2243 0.950 . S
H2236 C2241 0.950 . S
H2237 C2242 0.949 . S
H2238 C2244 0.950 . S
H2239 C2245 0.950 . S
H2240 C2246 0.949 . S
C2241 H2236 0.950 . S
C2241 C2243 1.327 . S
C2241 C2247 1.429 . S
C2242 C2234 1.574 . S
C2242 H2237 0.949 . S
C2242 C2248 1.368 . S
C2243 C2227 1.349 . S
C2243 H2235 0.950 . S
C2243 C2241 1.327 . S
C2244 C2232 1.349 . S
C2244 H2238 0.950 . S
C2244 C2245 1.327 . S
C2245 H2239 0.950 . S
C2245 C2244 1.327 . S
C2245 C2249 1.429 . S
C2246 C2229 1.574 . S
C2246 H2240 0.949 . S
C2246 C2250 1.368 . S
C2247 C2228 1.429 . S
C2247 C2241 1.429 . S
C2247 C2248 1.523 . S
C2248 C2229 1.368 . S
C2248 C2242 1.368 . S
C2248 C2247 1.523 . S
C2249 C2233 1.429 . S
C2249 C2245 1.429 . S
C2249 C2250 1.523 . S
C2250 C2234 1.368 . S
C2250 C2246 1.368 . S
C2250 C2249 1.523 . S
H2251 C2226 0.950 . S
H2252 C2228 0.950 . S
H2253 C2229 0.949 . S
H2254 C2231 0.950 . S
H2255 C2233 0.950 . S
C2256 C2257 1.349 . S
C2256 C2258 1.327 . S
C2256 H2281 0.950 . S
C2257 C2256 1.349 . S
C2257 C2273 1.349 . S
C2258 C2256 1.327 . S
C2258 C2277 1.429 . S
C2258 H2282 0.950 . S
C2259 C2276 1.574 . S
C2259 C2278 1.368 1_655 S
C2259 H2283 0.949 . S
H2260 C2264 0.949 . S
C2261 C2262 1.349 1_655 S
C2261 C2263 1.327 . S
C2261 H2284 0.950 . S
C2262 C2261 1.349 1_455 S
C2262 C2274 1.349 . S
C2263 C2261 1.327 . S
C2263 C2279 1.429 1_655 S
C2263 H2285 0.950 . S
C2264 H2260 0.949 . S
C2264 C2272 1.574 . S
C2264 C2280 1.368 . S
H2265 C2273 0.950 1_655 S
H2266 C2271 0.950 1_655 S
H2267 C2272 0.949 . S
H2268 C2274 0.950 . S
H2269 C2275 0.950 . S
H2270 C2276 0.949 . S
C2271 H2266 0.950 1_455 S
C2271 C2273 1.327 . S
C2271 C2277 1.429 . S
C2272 C2264 1.574 . S
C2272 H2267 0.949 . S
C2272 C2278 1.368 . S
C2273 C2257 1.349 . S
C2273 H2265 0.950 1_455 S
C2273 C2271 1.327 . S
C2274 C2262 1.349 . S
C2274 H2268 0.950 . S
C2274 C2275 1.327 . S
C2275 H2269 0.950 . S
C2275 C2274 1.327 . S
C2275 C2279 1.429 . S
C2276 C2259 1.574 . S
C2276 H2270 0.949 . S
C2276 C2280 1.368 1_655 S
C2277 C2258 1.429 . S
C2277 C2271 1.429 . S
C2277 C2278 1.523 . S
C2278 C2259 1.368 1_455 S
C2278 C2272 1.368 . S
C2278 C2277 1.523 . S
C2279 C2263 1.429 1_455 S
C2279 C2275 1.429 . S
C2279 C2280 1.523 . S
C2280 C2264 1.368 . S
C2280 C2276 1.368 1_455 S
C2280 C2279 1.523 . S
H2281 C2256 0.950 . S
H2282 C2258 0.950 . S
H2283 C2259 0.949 . S
H2284 C2261 0.950 . S
H2285 C2263 0.950 . S
C2286 C2287 1.349 . S
C2286 C2288 1.327 . S
C2286 H2311 0.950 1_455 S
C2287 C2286 1.349 . S
C2287 C2303 1.349 . S
C2288 C2286 1.327 . S
C2288 C2307 1.429 . S
C2288 H2312 0.950 1_455 S
C2289 C2306 1.574 . S
C2289 C2308 1.368 . S
C2289 H2313 0.949 . S
H2290 C2294 0.949 . S
C2291 C2292 1.349 . S
C2291 C2293 1.327 . S
C2291 H2314 0.950 . S
C2292 C2291 1.349 . S
C2292 C2304 1.349 1_455 S
C2293 C2291 1.327 . S
C2293 C2309 1.429 . S
C2293 H2315 0.950 . S
C2294 H2290 0.949 . S
C2294 C2302 1.574 . S
C2294 C2310 1.368 1_655 S
H2295 C2303 0.950 . S
H2296 C2301 0.950 . S
H2297 C2302 0.949 . S
H2298 C2304 0.950 . S
H2299 C2305 0.950 . S
H2300 C2306 0.949 . S
C2301 H2296 0.950 . S
C2301 C2303 1.327 . S
C2301 C2307 1.429 . S
C2302 C2294 1.574 . S
C2302 H2297 0.949 . S
C2302 C2308 1.368 1_655 S
C2303 C2287 1.349 . S
C2303 H2295 0.950 . S
C2303 C2301 1.327 . S
C2304 C2292 1.349 1_655 S
C2304 H2298 0.950 . S
C2304 C2305 1.327 . S
C2305 H2299 0.950 . S
C2305 C2304 1.327 . S
C2305 C2309 1.429 1_655 S
C2306 C2289 1.574 . S
C2306 H2300 0.949 . S
C2306 C2310 1.368 . S
C2307 C2288 1.429 . S
C2307 C2301 1.429 . S
C2307 C2308 1.523 . S
C2308 C2289 1.368 . S
C2308 C2302 1.368 1_455 S
C2308 C2307 1.523 . S
C2309 C2293 1.429 . S
C2309 C2305 1.429 1_455 S
C2309 C2310 1.523 . S
C2310 C2294 1.368 1_455 S
C2310 C2306 1.368 . S
C2310 C2309 1.523 . S
H2311 C2286 0.950 1_655 S
H2312 C2288 0.950 1_655 S
H2313 C2289 0.949 . S
H2314 C2291 0.950 . S
H2315 C2293 0.950 . S
C2316 C2317 1.349 . S
C2316 C2318 1.327 . S
C2316 H2341 0.950 . S
C2317 C2316 1.349 . S
C2317 C2333 1.349 . S
C2318 C2316 1.327 . S
C2318 C2337 1.429 . S
C2318 H2342 0.950 . S
C2319 C2336 1.574 . S
C2319 C2338 1.368 1_565 S
C2319 H2343 0.949 . S
H2320 C2324 0.949 . S
C2321 C2322 1.349 1_565 S
C2321 C2323 1.327 . S
C2321 H2344 0.950 . S
C2322 C2321 1.349 1_545 S
C2322 C2334 1.349 . S
C2323 C2321 1.327 . S
C2323 C2339 1.429 1_565 S
C2323 H2345 0.950 . S
C2324 H2320 0.949 . S
C2324 C2332 1.574 . S
C2324 C2340 1.368 . S
H2325 C2333 0.950 1_565 S
H2326 C2331 0.925 1_565 S
H2327 C2332 0.949 . S
H2328 C2334 0.950 . S
H2329 C2335 0.950 . S
H2330 C2336 0.949 . S
C2331 H2326 0.925 1_545 S
C2331 C2333 1.332 . S
C2331 C2337 1.450 . S
C2332 C2324 1.574 . S
C2332 H2327 0.949 . S
C2332 C2338 1.368 . S
C2333 C2317 1.349 . S
C2333 H2325 0.950 1_545 S
C2333 C2331 1.332 . S
C2334 C2322 1.349 . S
C2334 H2328 0.950 . S
C2334 C2335 1.327 . S
C2335 H2329 0.950 . S
C2335 C2334 1.327 . S
C2335 C2339 1.429 . S
C2336 C2319 1.574 . S
C2336 H2330 0.949 . S
C2336 C2340 1.368 1_565 S
C2337 C2318 1.429 . S
C2337 C2331 1.450 . S
C2337 C2338 1.523 . S
C2338 C2319 1.368 1_545 S
C2338 C2332 1.368 . S
C2338 C2337 1.523 . S
C2339 C2323 1.429 1_545 S
C2339 C2335 1.429 . S
C2339 C2340 1.523 . S
C2340 C2324 1.368 . S
C2340 C2336 1.368 1_545 S
C2340 C2339 1.523 . S
H2341 C2316 0.950 . S
H2342 C2318 0.950 . S
H2343 C2319 0.949 . S
H2344 C2321 0.950 . S
H2345 C2323 0.950 . S
C2346 C2347 1.349 . S
C2346 C2348 1.327 . S
C2346 H2371 0.950 . S
C2347 C2346 1.349 . S
C2347 C2363 1.315 1_545 S
C2348 C2346 1.327 . S
C2348 C2367 1.429 . S
C2348 H2372 0.950 . S
C2349 C2366 1.574 . S
C2349 C2368 1.368 1_565 S
C2349 H2373 0.949 . S
H2350 C2354 0.949 . S
C2351 C2352 1.349 1_565 S
C2351 C2353 1.327 . S
C2351 H2374 0.950 . S
C2352 C2351 1.349 1_545 S
C2352 C2364 1.349 . S
C2353 C2351 1.327 . S
C2353 C2369 1.429 1_565 S
C2353 H2375 0.950 . S
C2354 H2350 0.949 . S
C2354 C2362 1.574 . S
C2354 C2370 1.368 . S
H2355 C2363 0.980 . S
H2356 C2361 0.950 . S
H2357 C2362 0.949 . S
H2358 C2364 0.950 . S
H2359 C2365 0.950 . S
H2360 C2366 0.949 . S
C2361 H2356 0.950 . S
C2361 C2363 1.332 . S
C2361 C2367 1.429 1_565 S
C2362 C2354 1.574 . S
C2362 H2357 0.949 . S
C2362 C2368 1.368 . S
C2363 C2347 1.315 1_565 S
C2363 H2355 0.980 . S
C2363 C2361 1.332 . S
C2364 C2352 1.349 . S
C2364 H2358 0.950 . S
C2364 C2365 1.327 . S
C2365 H2359 0.950 . S
C2365 C2364 1.327 . S
C2365 C2369 1.429 . S
C2366 C2349 1.574 . S
C2366 H2360 0.949 . S
C2366 C2370 1.368 1_565 S
C2367 C2348 1.429 . S
C2367 C2361 1.429 1_545 S
C2367 C2368 1.523 . S
C2368 C2349 1.368 1_545 S
C2368 C2362 1.368 . S
C2368 C2367 1.523 . S
C2369 C2353 1.429 1_545 S
C2369 C2365 1.429 . S
C2369 C2370 1.523 . S
C2370 C2354 1.368 . S
C2370 C2366 1.368 1_545 S
C2370 C2369 1.523 . S
H2371 C2346 0.950 . S
H2372 C2348 0.950 . S
H2373 C2349 0.949 . S
H2374 C2351 0.950 . S
H2375 C2353 0.950 . S
C2376 C2377 1.349 . S
C2376 C2378 1.327 . S
C2376 H2401 0.950 . S
C2377 C2376 1.349 . S
C2377 C2393 1.349 . S
C2378 C2376 1.327 . S
C2378 C2397 1.429 . S
C2378 H2402 0.950 . S
C2379 C2396 1.574 . S
C2379 C2398 1.368 1_556 S
C2379 H2403 0.949 . S
H2380 C2384 0.949 . S
C2381 C2382 1.349 1_556 S
C2381 C2383 1.327 . S
C2381 H2404 0.950 . S
C2382 C2381 1.349 1_554 S
C2382 C2394 1.349 . S
C2383 C2381 1.327 . S
C2383 C2399 1.429 1_556 S
C2383 H2405 0.950 . S
C2384 H2380 0.949 . S
C2384 C2392 1.574 . S
C2384 C2400 1.368 . S
H2385 C2393 0.950 1_556 S
H2386 C2391 0.950 1_556 S
H2387 C2392 0.949 . S
H2388 C2394 0.950 . S
H2389 C2395 0.950 . S
H2390 C2396 0.949 . S
C2391 H2386 0.950 1_554 S
C2391 C2393 1.327 . S
C2391 C2397 1.429 . S
C2392 C2384 1.574 . S
C2392 H2387 0.949 . S
C2392 C2398 1.368 . S
C2393 C2377 1.349 . S
C2393 H2385 0.950 1_554 S
C2393 C2391 1.327 . S
C2394 C2382 1.349 . S
C2394 H2388 0.950 . S
C2394 C2395 1.327 . S
C2395 H2389 0.950 . S
C2395 C2394 1.327 . S
C2395 C2399 1.429 . S
C2396 C2379 1.574 . S
C2396 H2390 0.949 . S
C2396 C2400 1.368 1_556 S
C2397 C2378 1.429 . S
C2397 C2391 1.429 . S
C2397 C2398 1.523 . S
C2398 C2379 1.368 1_554 S
C2398 C2392 1.368 . S
C2398 C2397 1.523 . S
C2399 C2383 1.429 1_554 S
C2399 C2395 1.429 . S
C2399 C2400 1.523 . S
C2400 C2384 1.368 . S
C2400 C2396 1.368 1_554 S
C2400 C2399 1.523 . S
H2401 C2376 0.950 . S
H2402 C2378 0.950 . S
H2403 C2379 0.949 . S
H2404 C2381 0.950 . S
H2405 C2383 0.950 . S
C2406 C2407 1.349 . S
C2406 C2408 1.327 . S
C2406 H2431 0.950 . S
C2407 C2406 1.349 . S
C2407 C2423 1.349 . S
C2408 C2406 1.327 . S
C2408 C2427 1.429 . S
C2408 H2432 0.950 . S
C2409 C2426 1.574 . S
C2409 C2428 1.368 1_556 S
C2409 H2433 0.949 . S
H2410 C2414 0.949 . S
C2411 C2412 1.349 1_556 S
C2411 C2413 1.327 . S
C2411 H2434 0.950 . S
C2412 C2411 1.349 1_554 S
C2412 C2424 1.349 . S
C2413 C2411 1.327 . S
C2413 C2429 1.429 1_556 S
C2413 H2435 0.950 . S
C2414 H2410 0.949 . S
C2414 C2422 1.574 . S
C2414 C2430 1.368 . S
H2415 C2423 0.950 1_556 S
H2416 C2421 0.950 1_556 S
H2417 C2422 0.949 . S
H2418 C2424 0.950 . S
H2419 C2425 0.950 . S
H2420 C2426 0.949 . S
C2421 H2416 0.950 1_554 S
C2421 C2423 1.327 . S
C2421 C2427 1.429 . S
C2422 C2414 1.574 . S
C2422 H2417 0.949 . S
C2422 C2428 1.368 . S
C2423 C2407 1.349 . S
C2423 H2415 0.950 1_554 S
C2423 C2421 1.327 . S
C2424 C2412 1.349 . S
C2424 H2418 0.950 . S
C2424 C2425 1.327 . S
C2425 H2419 0.950 . S
C2425 C2424 1.327 . S
C2425 C2429 1.429 . S
C2426 C2409 1.574 . S
C2426 H2420 0.949 . S
C2426 C2430 1.368 1_556 S
C2427 C2408 1.429 . S
C2427 C2421 1.429 . S
C2427 C2428 1.523 . S
C2428 C2409 1.368 1_554 S
C2428 C2422 1.368 . S
C2428 C2427 1.523 . S
C2429 C2413 1.429 1_554 S
C2429 C2425 1.429 . S
C2429 C2430 1.523 . S
C2430 C2414 1.368 . S
C2430 C2426 1.368 1_554 S
C2430 C2429 1.523 . S
H2431 C2406 0.950 . S
H2432 C2408 0.950 . S
H2433 C2409 0.949 . S
H2434 C2411 0.950 . S
H2435 C2413 0.950 . S
C2436 C2437 1.349 . S
C2436 C2438 1.327 . S
C2436 H2461 0.950 . S
C2437 C2436 1.349 . S
C2437 C2453 1.349 . S
C2438 C2436 1.327 . S
C2438 C2457 1.429 . S
C2438 H2462 0.950 . S
C2439 C2456 1.574 1_545 S
C2439 C2458 1.368 . S
C2439 H2463 0.949 . S
H2440 C2444 0.949 . S
C2441 C2442 1.349 . S
C2441 C2443 1.327 . S
C2441 H2464 0.950 . S
C2442 C2441 1.349 . S
C2442 C2454 1.349 . S
C2443 C2441 1.327 . S
C2443 C2459 1.429 . S
C2443 H2465 0.950 . S
C2444 H2440 0.949 . S
C2444 C2452 1.574 1_565 S
C2444 C2460 1.368 . S
H2445 C2453 0.950 . S
H2446 C2451 0.950 . S
H2447 C2452 0.949 . S
H2448 C2454 0.950 . S
H2449 C2455 0.950 . S
H2450 C2456 0.949 . S
C2451 H2446 0.950 . S
C2451 C2453 1.327 . S
C2451 C2457 1.429 . S
C2452 C2444 1.574 1_545 S
C2452 H2447 0.949 . S
C2452 C2458 1.368 . S
C2453 C2437 1.349 . S
C2453 H2445 0.950 . S
C2453 C2451 1.327 . S
C2454 C2442 1.349 . S
C2454 H2448 0.950 . S
C2454 C2455 1.327 . S
C2455 H2449 0.950 . S
C2455 C2454 1.327 . S
C2455 C2459 1.429 . S
C2456 C2439 1.574 1_565 S
C2456 H2450 0.949 . S
C2456 C2460 1.368 . S
C2457 C2438 1.429 . S
C2457 C2451 1.429 . S
C2457 C2458 1.523 . S
C2458 C2439 1.368 . S
C2458 C2452 1.368 . S
C2458 C2457 1.523 . S
C2459 C2443 1.429 . S
C2459 C2455 1.429 . S
C2459 C2460 1.523 . S
C2460 C2444 1.368 . S
C2460 C2456 1.368 . S
C2460 C2459 1.523 . S
H2461 C2436 0.950 . S
H2462 C2438 0.950 . S
H2463 C2439 0.949 . S
H2464 C2441 0.950 . S
H2465 C2443 0.950 . S
C2466 C2467 1.349 . S
C2466 C2468 1.327 . S
C2466 H2491 0.950 . S
C2467 C2466 1.349 . S
C2467 C2483 1.349 . S
C2468 C2466 1.327 . S
C2468 C2487 1.429 . S
C2468 H2492 0.950 . S
C2469 C2486 1.574 1_565 S
C2469 C2488 1.368 . S
C2469 H2493 0.949 . S
H2470 C2474 0.949 . S
C2471 C2472 1.349 . S
C2471 C2473 1.327 . S
C2471 H2494 0.950 . S
C2472 C2471 1.349 . S
C2472 C2484 1.349 . S
C2473 C2471 1.327 . S
C2473 C2489 1.429 . S
C2473 H2495 0.950 . S
C2474 H2470 0.949 . S
C2474 C2482 1.574 1_545 S
C2474 C2490 1.368 . S
H2475 C2483 0.950 . S
H2476 C2481 0.950 . S
H2477 C2482 0.949 . S
H2478 C2484 0.950 . S
H2479 C2485 0.950 . S
H2480 C2486 0.949 . S
C2481 H2476 0.950 . S
C2481 C2483 1.327 . S
C2481 C2487 1.429 . S
C2482 C2474 1.574 1_565 S
C2482 H2477 0.949 . S
C2482 C2488 1.368 . S
C2483 C2467 1.349 . S
C2483 H2475 0.950 . S
C2483 C2481 1.327 . S
C2484 C2472 1.349 . S
C2484 H2478 0.950 . S
C2484 C2485 1.327 . S
C2485 H2479 0.950 . S
C2485 C2484 1.327 . S
C2485 C2489 1.429 . S
C2486 C2469 1.574 1_545 S
C2486 H2480 0.949 . S
C2486 C2490 1.368 . S
C2487 C2468 1.429 . S
C2487 C2481 1.429 . S
C2487 C2488 1.523 . S
C2488 C2469 1.368 . S
C2488 C2482 1.368 . S
C2488 C2487 1.523 . S
C2489 C2473 1.429 . S
C2489 C2485 1.429 . S
C2489 C2490 1.523 . S
C2490 C2474 1.368 . S
C2490 C2486 1.368 . S
C2490 C2489 1.523 . S
H2491 C2466 0.950 . S
H2492 C2468 0.950 . S
H2493 C2469 0.949 . S
H2494 C2471 0.950 . S
H2495 C2473 0.950 . S
C2496 C2497 1.349 . S
C2496 C2498 1.327 . S
C2496 H2521 0.950 . S
C2497 C2496 1.349 . S
C2497 C2513 1.349 . S
C2498 C2496 1.327 . S
C2498 C2517 1.429 . S
C2498 H2522 0.950 . S
C2499 C2516 1.574 1_554 S
C2499 C2518 1.368 . S
C2499 H2523 0.949 . S
H2500 C2504 0.949 . S
C2501 C2502 1.349 . S
C2501 C2503 1.327 . S
C2501 H2524 0.950 . S
C2502 C2501 1.349 . S
C2502 C2514 1.349 . S
C2503 C2501 1.327 . S
C2503 C2519 1.429 . S
C2503 H2525 0.950 . S
C2504 H2500 0.949 . S
C2504 C2512 1.574 1_556 S
C2504 C2520 1.368 . S
H2505 C2513 0.950 . S
H2506 C2511 0.950 . S
H2507 C2512 0.949 . S
H2508 C2514 0.950 . S
H2509 C2515 0.950 . S
H2510 C2516 0.949 . S
C2511 H2506 0.950 . S
C2511 C2513 1.327 . S
C2511 C2517 1.429 . S
C2512 C2504 1.574 1_554 S
C2512 H2507 0.949 . S
C2512 C2518 1.368 . S
C2513 C2497 1.349 . S
C2513 H2505 0.950 . S
C2513 C2511 1.327 . S
C2514 C2502 1.349 . S
C2514 H2508 0.950 . S
C2514 C2515 1.327 . S
C2515 H2509 0.950 . S
C2515 C2514 1.327 . S
C2515 C2519 1.429 . S
C2516 C2499 1.574 1_556 S
C2516 H2510 0.949 . S
C2516 C2520 1.368 . S
C2517 C2498 1.429 . S
C2517 C2511 1.429 . S
C2517 C2518 1.523 . S
C2518 C2499 1.368 . S
C2518 C2512 1.368 . S
C2518 C2517 1.523 . S
C2519 C2503 1.429 . S
C2519 C2515 1.429 . S
C2519 C2520 1.523 . S
C2520 C2504 1.368 . S
C2520 C2516 1.368 . S
C2520 C2519 1.523 . S
H2521 C2496 0.950 . S
H2522 C2498 0.950 . S
H2523 C2499 0.949 . S
H2524 C2501 0.950 . S
H2525 C2503 0.950 . S
C2526 C2527 1.349 . S
C2526 C2528 1.327 . S
C2526 H2551 0.950 . S
C2527 C2526 1.349 . S
C2527 C2543 1.349 . S
C2528 C2526 1.327 . S
C2528 C2547 1.429 . S
C2528 H2552 0.950 . S
C2529 C2546 1.574 1_556 S
C2529 C2548 1.368 . S
C2529 H2553 0.949 . S
H2530 C2534 0.949 . S
C2531 C2532 1.349 . S
C2531 C2533 1.327 . S
C2531 H2554 0.950 . S
C2532 C2531 1.349 . S
C2532 C2544 1.349 . S
C2533 C2531 1.327 . S
C2533 C2549 1.429 . S
C2533 H2555 0.950 . S
C2534 H2530 0.949 . S
C2534 C2542 1.574 1_554 S
C2534 C2550 1.368 . S
H2535 C2543 0.950 . S
H2536 C2541 0.950 . S
H2537 C2542 0.949 . S
H2538 C2544 0.950 . S
H2539 C2545 0.950 . S
H2540 C2546 0.949 . S
C2541 H2536 0.950 . S
C2541 C2543 1.327 . S
C2541 C2547 1.429 . S
C2542 C2534 1.574 1_556 S
C2542 H2537 0.949 . S
C2542 C2548 1.368 . S
C2543 C2527 1.349 . S
C2543 H2535 0.950 . S
C2543 C2541 1.327 . S
C2544 C2532 1.349 . S
C2544 H2538 0.950 . S
C2544 C2545 1.327 . S
C2545 H2539 0.950 . S
C2545 C2544 1.327 . S
C2545 C2549 1.429 . S
C2546 C2529 1.574 1_554 S
C2546 H2540 0.949 . S
C2546 C2550 1.368 . S
C2547 C2528 1.429 . S
C2547 C2541 1.429 . S
C2547 C2548 1.523 . S
C2548 C2529 1.368 . S
C2548 C2542 1.368 . S
C2548 C2547 1.523 . S
C2549 C2533 1.429 . S
C2549 C2545 1.429 . S
C2549 C2550 1.523 . S
C2550 C2534 1.368 . S
C2550 C2546 1.368 . S
C2550 C2549 1.523 . S
H2551 C2526 0.950 . S
H2552 C2528 0.950 . S
H2553 C2529 0.949 . S
H2554 C2531 0.950 . S
H2555 C2533 0.950 . S
C2556 C2557 1.349 . S
C2556 C2558 1.327 . S
C2556 H2581 0.950 . S
C2557 C2556 1.349 . S
C2557 C2573 1.349 . S
C2558 C2556 1.327 . S
C2558 C2577 1.429 . S
C2558 H2582 0.950 . S
C2559 C2576 1.574 1_655 S
C2559 C2578 1.368 . S
C2559 H2583 0.949 . S
H2560 C2564 0.949 . S
C2561 C2562 1.349 . S
C2561 C2563 1.327 . S
C2561 H2584 0.950 . S
C2562 C2561 1.349 . S
C2562 C2574 1.349 . S
C2563 C2561 1.327 . S
C2563 C2579 1.429 . S
C2563 H2585 0.950 . S
C2564 H2560 0.949 . S
C2564 C2572 1.574 1_455 S
C2564 C2580 1.368 . S
H2565 C2573 0.950 . S
H2566 C2571 0.950 . S
H2567 C2572 0.949 . S
H2568 C2574 0.950 . S
H2569 C2575 0.950 . S
H2570 C2576 0.949 . S
C2571 H2566 0.950 . S
C2571 C2573 1.327 . S
C2571 C2577 1.429 . S
C2572 C2564 1.574 1_655 S
C2572 H2567 0.949 . S
C2572 C2578 1.368 . S
C2573 C2557 1.349 . S
C2573 H2565 0.950 . S
C2573 C2571 1.327 . S
C2574 C2562 1.349 . S
C2574 H2568 0.950 . S
C2574 C2575 1.327 . S
C2575 H2569 0.950 . S
C2575 C2574 1.327 . S
C2575 C2579 1.429 . S
C2576 C2559 1.574 1_455 S
C2576 H2570 0.949 . S
C2576 C2580 1.368 . S
C2577 C2558 1.429 . S
C2577 C2571 1.429 . S
C2577 C2578 1.523 . S
C2578 C2559 1.368 . S
C2578 C2572 1.368 . S
C2578 C2577 1.523 . S
C2579 C2563 1.429 . S
C2579 C2575 1.429 . S
C2579 C2580 1.523 . S
C2580 C2564 1.368 . S
C2580 C2576 1.368 . S
C2580 C2579 1.523 . S
H2581 C2556 0.950 . S
H2582 C2558 0.950 . S
H2583 C2559 0.949 . S
H2584 C2561 0.950 . S
H2585 C2563 0.950 . S
C2586 C2587 1.349 . S
C2586 C2588 1.327 . S
C2586 H2611 0.950 . S
C2587 C2586 1.349 . S
C2587 C2603 1.349 . S
C2588 C2586 1.327 . S
C2588 C2607 1.429 . S
C2588 H2612 0.950 . S
C2589 C2606 1.574 1_455 S
C2589 C2608 1.368 . S
C2589 H2613 0.949 . S
H2590 C2594 0.949 . S
C2591 C2592 1.349 . S
C2591 C2593 1.327 . S
C2591 H2614 0.950 . S
C2592 C2591 1.349 . S
C2592 C2604 1.349 . S
C2593 C2591 1.327 . S
C2593 C2609 1.429 . S
C2593 H2615 0.950 . S
C2594 H2590 0.949 . S
C2594 C2602 1.574 1_655 S
C2594 C2610 1.368 . S
H2595 C2603 0.950 . S
H2596 C2601 0.950 . S
H2597 C2602 0.949 . S
H2598 C2604 0.950 . S
H2599 C2605 0.950 . S
H2600 C2606 0.949 . S
C2601 H2596 0.950 . S
C2601 C2603 1.327 . S
C2601 C2607 1.429 . S
C2602 C2594 1.574 1_455 S
C2602 H2597 0.949 . S
C2602 C2608 1.368 . S
C2603 C2587 1.349 . S
C2603 H2595 0.950 . S
C2603 C2601 1.327 . S
C2604 C2592 1.349 . S
C2604 H2598 0.950 . S
C2604 C2605 1.327 . S
C2605 H2599 0.950 . S
C2605 C2604 1.327 . S
C2605 C2609 1.429 . S
C2606 C2589 1.574 1_655 S
C2606 H2600 0.949 . S
C2606 C2610 1.368 . S
C2607 C2588 1.429 . S
C2607 C2601 1.429 . S
C2607 C2608 1.523 . S
C2608 C2589 1.368 . S
C2608 C2602 1.368 . S
C2608 C2607 1.523 . S
C2609 C2593 1.429 . S
C2609 C2605 1.429 . S
C2609 C2610 1.523 . S
C2610 C2594 1.368 . S
C2610 C2606 1.368 . S
C2610 C2609 1.523 . S
H2611 C2586 0.950 . S
H2612 C2588 0.950 . S
H2613 C2589 0.949 . S
H2614 C2591 0.950 . S
H2615 C2593 0.950 . S
C817 C9 0.583 . S
C822 C787 0.410 . S
C847 C43 0.583 . S
C852 C685 0.410 . S
C877 C77 0.583 . S
C882 C753 0.410 . S
C907 C111 0.583 . S
C912 C719 0.410 . S
C937 C481 0.410 . S
C942 C145 0.583 . S
C967 C179 0.583 . S
C972 C515 0.410 . S
C997 C413 0.410 . S
C1002 C213 0.583 . S
C1027 C447 0.410 . S
C1032 C247 0.583 . S
C1057 C651 0.410 . S
C1062 C281 0.583 . S
C1087 C315 0.583 . S
C1092 C583 0.410 . S
C1117 C549 0.410 . S
C1122 C349 0.583 . S
C1147 C383 0.583 . S
C1152 C617 0.410 . S
C1177 C88 2.046 . S
C1182 C682 1.987 . S
C1207 C122 2.046 . S
C1212 C784 1.987 . S
C1237 C716 1.987 . S
C1242 C20 2.046 . S
C1267 C750 1.987 . S
C1272 C54 2.046 . S
C1297 C410 1.987 . S
C1302 C258 2.046 . S
C1327 C444 1.987 . S
C1332 C224 2.046 . S
C1357 C478 1.987 . S
C1362 C190 2.046 . S
C1387 C156 2.046 . S
C1392 C512 1.987 . S
C1417 C394 2.046 . S
C1422 C546 1.987 . S
C1447 C614 1.987 . S
C1452 C360 2.046 . S
C1477 C326 2.046 . S
C1482 C648 1.987 . S
C1507 C580 1.987 . S
C1512 C292 2.046 . S
C1537 C417 0.583 . S
C1542 C379 0.410 . S
C1567 C277 0.410 . S
C1572 C451 0.583 . S
C1597 C345 0.410 . S
C1602 C485 0.583 . S
C1627 C311 0.410 . S
C1632 C519 0.583 . S
C1657 C73 0.410 . S
C1662 C553 0.583 . S
C1687 C107 0.410 . S
C1692 C587 0.583 . S
C1717 C5 0.410 . S
C1722 C621 0.583 . S
C1747 C655 0.583 . S
C1752 C39 0.410 . S
C1777 C689 0.583 . S
C1782 C243 0.410 . S
C1807 C723 0.583 . S
C1812 C175 0.410 . S
C1837 C141 0.410 . S
C1842 C757 0.583 . S
C1867 C791 0.583 . S
C1872 C209 0.410 . S
C1897 C274 1.987 . S
C1902 C496 2.046 . S
C1927 C376 1.987 . S
C1932 C530 2.046 . S
C1957 C308 1.987 . S
C1962 C428 2.046 . S
C1987 C462 2.046 . S
C1992 C342 1.987 . S
C2017 C2 1.987 . S
C2022 C666 2.046 . S
C2047 C36 1.987 . S
C2052 C632 2.046 . S
C2077 C70 1.987 . S
C2082 C598 2.046 . S
C2107 C564 2.046 . S
C2112 C104 1.987 . S
C2137 C802 2.046 . S
C2142 C138 1.987 . S
C2167 C768 2.046 . S
C2172 C206 1.987 . S
C2197 C240 1.987 . S
C2202 C734 2.046 . S
C2227 C700 2.046 . S
C2232 C172 1.987 . S
C2257 C33 1.376 . S
C2262 C67 1.377 . S
C2287 C101 1.376 . S
C2292 C135 1.377 . S
C2317 C169 1.376 . S
C2322 C237 1.377 . S
C2347 C271 1.376 . S
C2352 C203 1.377 . S
C2377 C305 1.376 . S
C2382 C373 1.377 . S
C2407 C407 1.376 . S
C2412 C339 1.377 . S
C2437 C475 1.376 . S
C2442 C441 1.376 . S
C2467 C543 1.376 . S
C2472 C509 1.376 . S
C2497 C645 1.376 . S
C2502 C577 1.376 . S
C2527 C611 1.376 . S
C2532 C679 1.376 . S
C2557 C713 1.376 . S
C2562 C781 1.376 . S
C2587 C815 1.376 . S
C2592 C747 1.376 . S
