# Generated by pormake.
# Topology umj, (4)-cn, num edge types: 1
# Building blocks:
#     Node 0, Type 0, BuildingBlock: ICAMEG_clean_sbu_1, # of connection points: 4
#     Node 1, Type 0, BuildingBlock: ICAMEG_clean_sbu_1, # of connection points: 4
#     Node 2, Type 0, BuildingBlock: ICAMEG_clean_sbu_1, # of connection points: 4
#     Node 3, Type 0, BuildingBlock: ICAMEG_clean_sbu_1, # of connection points: 4
#     Node 4, Type 0, BuildingBlock: ICAMEG_clean_sbu_1, # of connection points: 4
#     Node 5, Type 0, BuildingBlock: ICAMEG_clean_sbu_1, # of connection points: 4
#     Node 6, Type 0, BuildingBlock: ICAMEG_clean_sbu_1, # of connection points: 4
#     Node 7, Type 0, BuildingBlock: ICAMEG_clean_sbu_1, # of connection points: 4
#     Node 8, Type 0, BuildingBlock: ICAMEG_clean_sbu_1, # of connection points: 4
#     Node 9, Type 0, BuildingBlock: ICAMEG_clean_sbu_1, # of connection points: 4
#     Node 10, Type 0, BuildingBlock: ICAMEG_clean_sbu_1, # of connection points: 4
#     Node 11, Type 0, BuildingBlock: ICAMEG_clean_sbu_1, # of connection points: 4
#     Edge 12, Type (0, 0), BuildingBlock: XIVTED_clean_linker_0, # of connection points: 2
#     Edge 13, Type (0, 0), BuildingBlock: XIVTED_clean_linker_0, # of connection points: 2
#     Edge 14, Type (0, 0), BuildingBlock: XIVTED_clean_linker_0, # of connection points: 2
#     Edge 15, Type (0, 0), BuildingBlock: XIVTED_clean_linker_0, # of connection points: 2
#     Edge 16, Type (0, 0), BuildingBlock: XIVTED_clean_linker_0, # of connection points: 2
#     Edge 17, Type (0, 0), BuildingBlock: XIVTED_clean_linker_0, # of connection points: 2
#     Edge 18, Type (0, 0), BuildingBlock: XIVTED_clean_linker_0, # of connection points: 2
#     Edge 19, Type (0, 0), BuildingBlock: XIVTED_clean_linker_0, # of connection points: 2
#     Edge 20, Type (0, 0), BuildingBlock: XIVTED_clean_linker_0, # of connection points: 2
#     Edge 21, Type (0, 0), BuildingBlock: XIVTED_clean_linker_0, # of connection points: 2
#     Edge 22, Type (0, 0), BuildingBlock: XIVTED_clean_linker_0, # of connection points: 2
#     Edge 23, Type (0, 0), BuildingBlock: XIVTED_clean_linker_0, # of connection points: 2
#     Edge 24, Type (0, 0), BuildingBlock: XIVTED_clean_linker_0, # of connection points: 2
#     Edge 25, Type (0, 0), BuildingBlock: XIVTED_clean_linker_0, # of connection points: 2
#     Edge 26, Type (0, 0), BuildingBlock: XIVTED_clean_linker_0, # of connection points: 2
#     Edge 27, Type (0, 0), BuildingBlock: XIVTED_clean_linker_0, # of connection points: 2
#     Edge 28, Type (0, 0), BuildingBlock: XIVTED_clean_linker_0, # of connection points: 2
#     Edge 29, Type (0, 0), BuildingBlock: XIVTED_clean_linker_0, # of connection points: 2
#     Edge 30, Type (0, 0), BuildingBlock: XIVTED_clean_linker_0, # of connection points: 2
#     Edge 31, Type (0, 0), BuildingBlock: XIVTED_clean_linker_0, # of connection points: 2
#     Edge 32, Type (0, 0), BuildingBlock: XIVTED_clean_linker_0, # of connection points: 2
#     Edge 33, Type (0, 0), BuildingBlock: XIVTED_clean_linker_0, # of connection points: 2
#     Edge 34, Type (0, 0), BuildingBlock: XIVTED_clean_linker_0, # of connection points: 2
#     Edge 35, Type (0, 0), BuildingBlock: XIVTED_clean_linker_0, # of connection points: 2
# Relax obj value: 0.069
# Max RMSD: 0.248
# Mean RMSD: 0.228
data_MOF--net-umj--node1-ICAMEG_clean_sbu_1--edge1-XIVTED_clean_linker_0
_symmetry_space_group_name_H-M    P1
_symmetry_Int_Tables_number       1
_symmetry_cell_setting            triclinic
loop_
_symmetry_equiv_pos_as_xyz
'x, y, z'
_cell_length_a     30.946462
_cell_length_b     30.930112
_cell_length_c     90.004123
_cell_angle_alpha  89.997224
_cell_angle_beta   89.996197
_cell_angle_gamma 120.04905
loop_
_atom_site_label
_atom_site_type_symbol
_atom_site_fract_x
_atom_site_fract_y
_atom_site_fract_z
_atom_type_partial_charge
Co0 Co 0.08658 0.27095 0.07996 0.0
Co1 Co 0.97469 0.2346 0.06215 0.0
O2 O 0.02392 0.27027 0.07754 0.0
C3 C 0.02994 0.2296 0.10741 0.0
O4 O 0.99267 0.20115 0.09859 0.0
C5 C 0.00774 0.34027 0.05813 0.0
O6 O 0.05284 0.34662 0.05895 0.0
O7 O 0.02685 0.25776 0.04669 0.0
O8 O 0.10016 0.28053 0.05797 0.0
H9 H 0.90219 0.12361 0.0175 0.0
H10 H 0.06588 0.33861 0.09813 0.0
O11 O 0.07255 0.2604 0.10192 0.0
H12 H 0.21833 0.44908 0.06973 0.0
H13 H 0.24675 0.31617 0.10654 0.0
H14 H 0.13914 0.22732 0.06373 0.0
H15 H 0.17772 0.35751 0.0672 0.0
H16 H 0.1674 0.31534 0.10259 0.0
O17 O 0.96979 0.29638 0.059 0.0
H18 H 0.96451 0.1673 0.03723 0.0
H19 H 0.87913 0.22947 0.05394 0.0
H20 H 0.21836 0.22753 0.06716 0.0
H21 H 0.10543 0.42994 0.10105 0.0
H22 H 0.27276 0.27221 0.0887 0.0
H23 H 0.18211 0.48583 0.08674 0.0
O24 O 0.05312 0.19771 0.07718 0.0
H25 H 0.88772 0.25442 0.10657 0.0
H26 H 0.88843 0.13538 0.07026 0.0
H27 H 0.82462 0.10465 0.09003 0.0
H28 H 0.82405 0.16438 0.10837 0.0
H29 H 0.95102 0.28348 0.08669 0.0
H30 H 0.81601 0.18676 0.03433 0.0
H31 H 0.82728 0.13322 0.01597 0.0
O32 O 0.98074 0.17341 0.065 0.0
C33 C 0.07364 0.27393 0.04636 0.0
C34 C 0.89674 0.14665 0.02548 0.0
C35 C 0.84841 0.18215 0.03491 0.0
N36 N 0.9251 0.20037 0.04681 0.0
C37 C 0.9318 0.17131 0.0367 0.0
C38 C 0.88427 0.20628 0.04597 0.0
C39 C 0.85475 0.15211 0.02461 0.0
C40 C 0.09957 0.36267 0.09199 0.0
N41 N 0.11967 0.34277 0.08258 0.0
C42 C 0.12166 0.41436 0.09364 0.0
C43 C 0.16464 0.4457 0.08559 0.0
C44 C 0.18497 0.4251 0.07604 0.0
C45 C 0.1618 0.37325 0.07465 0.0
C46 C 0.22343 0.29668 0.09709 0.0
C47 C 0.16282 0.24713 0.07306 0.0
C48 C 0.17845 0.29601 0.09482 0.0
N49 N 0.14899 0.27172 0.08287 0.0
C50 C 0.20753 0.24698 0.07498 0.0
C51 C 0.238 0.27201 0.08707 0.0
C52 C 0.01308 0.16464 0.07098 0.0
C53 C 0.88747 0.22806 0.09862 0.0
C54 C 0.88837 0.16158 0.0782 0.0
C55 C 0.85213 0.14398 0.08935 0.0
C56 C 0.85181 0.17752 0.09963 0.0
N57 N 0.9232 0.2112 0.07728 0.0
C58 C 0.92308 0.24433 0.08729 0.0
Co59 Co 0.80993 0.08549 0.41315 0.0
Co60 Co 0.73357 0.9746 0.39492 0.0
O61 O 0.74749 0.02337 0.41048 0.0
C62 C 0.79318 0.02737 0.44037 0.0
O63 O 0.78373 0.99025 0.4314 0.0
C64 C 0.66272 0.00983 0.39091 0.0
O65 O 0.7021 0.0545 0.39198 0.0
O66 O 0.76391 0.02734 0.37967 0.0
O67 O 0.81471 0.1001 0.39121 0.0
H68 H 0.77163 0.90253 0.3501 0.0
H69 H 0.72153 0.06509 0.43124 0.0
O70 O 0.80577 0.07039 0.43504 0.0
H71 H 0.7663 0.21935 0.40345 0.0
H72 H 0.92599 0.24393 0.44039 0.0
H73 H 0.90668 0.1377 0.39716 0.0
H74 H 0.81627 0.17783 0.40076 0.0
H75 H 0.84684 0.16538 0.4361 0.0
O76 O 0.66758 0.97122 0.39165 0.0
H77 H 0.79078 0.96419 0.37007 0.0
H78 H 0.64226 0.88034 0.38624 0.0
H79 H 0.98635 0.21614 0.40094 0.0
H80 H 0.67071 0.10554 0.43432 0.0
H81 H -0.00365 0.26984 0.42269 0.0
H82 H 0.6929 0.18313 0.42031 0.0
O83 O 0.84884 0.05131 0.41024 0.0
H84 H 0.62426 0.88672 0.43885 0.0
H85 H 0.74428 0.8869 0.40276 0.0
H86 H 0.70935 0.8221 0.42225 0.0
H87 H 0.6489 0.8218 0.44047 0.0
H88 H 0.66034 0.95098 0.41926 0.0
H89 H 0.62133 0.81789 0.36638 0.0
H90 H 0.68636 0.82873 0.34817 0.0
O91 O 0.80027 0.97935 0.39788 0.0
C92 C 0.79499 0.07406 0.37951 0.0
C93 C 0.74304 0.89727 0.35801 0.0
C94 C 0.65866 0.8498 0.36713 0.0
N95 N 0.71783 0.9255 0.3794 0.0
C96 C 0.75372 0.93195 0.36937 0.0
C97 C 0.67069 0.88528 0.37834 0.0
C98 C 0.69517 0.8559 0.35692 0.0
C99 C 0.73176 0.09917 0.42524 0.0
N100 N 0.772 0.11928 0.41591 0.0
C101 C 0.70271 0.12177 0.42698 0.0
C102 C 0.71514 0.16527 0.4191 0.0
C103 C 0.7563 0.1856 0.40963 0.0
C104 C 0.78444 0.16192 0.40814 0.0
C105 C 0.92205 0.22092 0.43085 0.0
C106 C 0.91067 0.16109 0.40659 0.0
C107 C 0.87737 0.17639 0.42838 0.0
N108 N 0.87206 0.14733 0.41631 0.0
C109 C 0.9559 0.20535 0.4087 0.0
C110 C 0.9615 0.23544 0.42091 0.0
C111 C 0.84146 0.01127 0.40394 0.0
C112 C 0.65043 0.88636 0.43095 0.0
C113 C 0.71796 0.88696 0.41065 0.0
C114 C 0.69827 0.85016 0.42164 0.0
C115 C 0.66433 0.84999 0.43186 0.0
N116 N 0.70412 0.92248 0.40983 0.0
C117 C 0.6708 0.92251 0.41978 0.0
Co118 Co 0.72337 0.81106 0.74662 0.0
Co119 Co 0.75821 0.73573 0.72797 0.0
O120 O 0.72327 0.74885 0.74369 0.0
C121 C 0.76498 0.79365 0.77369 0.0
O122 O 0.79258 0.78437 0.76465 0.0
C123 C 0.65212 0.66499 0.72381 0.0
O124 O 0.64691 0.7043 0.72518 0.0
O125 O 0.73589 0.7667 0.71292 0.0
O126 O 0.71324 0.81644 0.72474 0.0
H127 H 0.86867 0.77607 0.68313 0.0
H128 H 0.65572 0.7219 0.76453 0.0
O129 O 0.73455 0.80633 0.76846 0.0
H130 H 0.54552 0.7668 0.73728 0.0
H131 H 0.68078 0.9258 0.77448 0.0
H132 H 0.76748 0.90831 0.73091 0.0
H133 H 0.63701 0.81728 0.73454 0.0
H134 H 0.68038 0.84694 0.76986 0.0
O135 O 0.69557 0.6698 0.72448 0.0
H136 H 0.82601 0.79419 0.70328 0.0
H137 H 0.76121 0.64488 0.71881 0.0
H138 H 0.76849 0.98769 0.73503 0.0
H139 H 0.56447 0.67056 0.76767 0.0
H140 H 0.72491 -0.00323 0.75695 0.0
H141 H 0.50871 0.69282 0.75394 0.0
O142 O 0.79645 0.85038 0.74366 0.0
H143 H 0.73652 0.62426 0.77135 0.0
H144 H 0.85663 0.7463 0.73567 0.0
H145 H 0.8864 0.71046 0.75488 0.0
H146 H 0.82612 0.64899 0.77289 0.0
H147 H 0.70844 0.66126 0.75202 0.0
H148 H 0.80286 0.62497 0.69876 0.0
H149 H 0.8572 0.69092 0.68078 0.0
O150 O 0.82015 0.80238 0.73114 0.0
C151 C 0.71987 0.79743 0.71293 0.0
C152 C 0.84527 0.74709 0.69093 0.0
C153 C 0.80828 0.66225 0.69969 0.0
N154 N 0.79168 0.72078 0.7123 0.0
C155 C 0.82119 0.75719 0.7024 0.0
C156 C 0.78476 0.67371 0.71101 0.0
C157 C 0.83877 0.69928 0.68961 0.0
C158 C 0.63172 0.73215 0.75866 0.0
N159 N 0.65165 0.77272 0.74944 0.0
C160 C 0.58007 0.70281 0.76042 0.0
C161 C 0.54881 0.71528 0.7527 0.0
C162 C 0.56944 0.75677 0.74334 0.0
C163 C 0.62125 0.78519 0.74182 0.0
C164 C 0.6998 0.92225 0.76487 0.0
C165 C 0.74812 0.91189 0.74041 0.0
C166 C 0.69976 0.87774 0.76221 0.0
N167 N 0.72346 0.87294 0.75005 0.0
C168 C 0.74897 0.95697 0.74271 0.0
C169 C 0.72455 0.96206 0.75503 0.0
C170 C 0.82924 0.84336 0.73732 0.0
C171 C 0.76311 0.65088 0.76353 0.0
C172 C 0.8302 0.71955 0.74347 0.0
C173 C 0.84725 0.69934 0.75431 0.0
C174 C 0.8134 0.66483 0.7644 0.0
N175 N 0.78082 0.70564 0.74268 0.0
C176 C 0.74739 0.67178 0.75252 0.0
Co177 Co 0.9009 0.7193 0.08041 0.0
Co178 Co 0.01184 0.75358 0.06228 0.0
O179 O 0.96314 0.71917 0.0779 0.0
C180 C 0.95899 0.76229 0.10753 0.0
O181 O -0.00412 0.78986 0.09848 0.0
C182 C 0.9778 0.64747 0.05878 0.0
O183 O 0.93285 0.64142 0.05984 0.0
O184 O 0.95905 0.72991 0.04702 0.0
O185 O 0.88631 0.70832 0.05849 0.0
H186 H 0.08308 0.86158 0.017 0.0
H187 H 0.92162 0.6524 0.09895 0.0
O188 O 0.91602 0.73134 0.10229 0.0
H189 H 0.76753 0.54094 0.07139 0.0
H190 H 0.74233 0.67731 0.10745 0.0
H191 H 0.84825 0.76251 0.06401 0.0
H192 H 0.80881 0.63235 0.06825 0.0
H193 H 0.82112 0.67711 0.1034 0.0
O194 O 0.01596 0.69129 0.05938 0.0
H195 H 0.02151 0.81951 0.03702 0.0
H196 H 0.10665 0.75733 0.05392 0.0
H197 H 0.76957 0.76329 0.06754 0.0
H198 H 0.8814 0.56125 0.10249 0.0
H199 H 0.71602 0.72045 0.0894 0.0
H200 H 0.80389 0.50485 0.0886 0.0
O201 O 0.93474 0.79235 0.07717 0.0
H202 H 0.09996 0.73535 0.10667 0.0
H203 H 0.09902 0.85287 0.06981 0.0
H204 H 0.16361 0.88425 0.08936 0.0
H205 H 0.16429 0.82528 0.10796 0.0
H206 H 0.03589 0.70564 0.087 0.0
H207 H 0.16902 0.79841 0.03401 0.0
H208 H 0.15749 0.85113 0.01541 0.0
O209 O 0.0066 0.81532 0.06486 0.0
C210 C 0.91232 0.71405 0.04682 0.0
C211 C 0.08865 0.8389 0.02508 0.0
C212 C 0.13684 0.80338 0.03461 0.0
N213 N 0.06086 0.78655 0.04672 0.0
C214 C 0.05402 0.81516 0.03647 0.0
C215 C 0.10141 0.78018 0.04584 0.0
C216 C 0.13035 0.83297 0.02418 0.0
C217 C 0.88759 0.62813 0.093 0.0
N218 N 0.86739 0.64766 0.08349 0.0
C219 C 0.86511 0.57654 0.09499 0.0
C220 C 0.82166 0.54491 0.08718 0.0
C221 C 0.80125 0.56513 0.07751 0.0
C222 C 0.82481 0.6169 0.07578 0.0
C223 C 0.76528 0.696 0.09786 0.0
C224 C 0.82494 0.74349 0.07348 0.0
C225 C 0.80994 0.69608 0.09553 0.0
N226 N 0.83893 0.71935 0.08341 0.0
C227 C 0.78053 0.7442 0.07545 0.0
C228 C 0.75054 0.7202 0.08773 0.0
C229 C 0.97469 0.82482 0.07078 0.0
C230 C 0.10016 0.76137 0.09859 0.0
C231 C 0.09914 0.827 0.07787 0.0
C232 C 0.13582 0.84496 0.08889 0.0
C233 C 0.1362 0.81185 0.09933 0.0
N234 N 0.06393 0.77744 0.07722 0.0
C235 C 0.06412 0.74473 0.08739 0.0
Co236 Co 0.18119 0.90993 0.41282 0.0
Co237 Co 0.25733 0.02172 0.39498 0.0
O238 O 0.2433 0.97259 0.41045 0.0
C239 C 0.19598 0.96704 0.44016 0.0
O240 O 0.20527 0.00428 0.43126 0.0
C241 C 0.32903 0.98754 0.39111 0.0
O242 O 0.28984 0.94273 0.3921 0.0
O243 O 0.22801 0.96943 0.37957 0.0
O244 O 0.17771 0.89602 0.39087 0.0
H245 H 0.21992 0.0943 0.35017 0.0
H246 H 0.26905 0.93093 0.43128 0.0
O247 O 0.18411 0.92431 0.43475 0.0
H248 H 0.22756 0.77798 0.40324 0.0
H249 H 0.06527 0.75014 0.4395 0.0
H250 H 0.08533 0.85714 0.39641 0.0
H251 H 0.17676 0.81854 0.40037 0.0
H252 H 0.14404 0.82941 0.43559 0.0
O253 O 0.3238 0.02594 0.39188 0.0
H254 H 0.20065 0.03212 0.36998 0.0
H255 H 0.34836 0.11681 0.3867 0.0
H256 H 0.00607 0.77799 0.39982 0.0
H257 H 0.32067 0.89143 0.43455 0.0
H258 H -0.0043 0.7239 0.4215 0.0
H259 H 0.30013 0.8145 0.42041 0.0
O260 O 0.14163 0.94336 0.40976 0.0
H261 H 0.36453 0.10893 0.43933 0.0
H262 H 0.2452 0.1085 0.40293 0.0
H263 H 0.27881 0.17268 0.4226 0.0
H264 H 0.3389 0.17311 0.44098 0.0
H265 H 0.32977 0.04527 0.41955 0.0
H266 H 0.36941 0.17979 0.36699 0.0
H267 H 0.30484 0.16879 0.34859 0.0
O268 O 0.19017 0.0161 0.39777 0.0
C269 C 0.19756 0.92257 0.37925 0.0
C270 C 0.2483 0.09963 0.35816 0.0
C271 C 0.33223 0.14758 0.36759 0.0
N272 N 0.27317 0.07121 0.37958 0.0
C273 C 0.23754 0.06466 0.36944 0.0
C274 C 0.32013 0.1118 0.37871 0.0
C275 C 0.29598 0.14139 0.35727 0.0
C276 C 0.25953 0.89713 0.42523 0.0
N277 N 0.21975 0.87686 0.41573 0.0
C278 C 0.28904 0.87507 0.42707 0.0
C279 C 0.27754 0.83195 0.41912 0.0
C280 C 0.23684 0.81145 0.40947 0.0
C281 C 0.20823 0.83459 0.40789 0.0
C282 C 0.06938 0.77332 0.42999 0.0
C283 C 0.08119 0.83359 0.4058 0.0
C284 C 0.11384 0.81826 0.42774 0.0
N285 N 0.11937 0.84754 0.4157 0.0
C286 C 0.03618 0.78892 0.40771 0.0
C287 C 0.03037 0.75862 0.41988 0.0
C288 C 0.14878 0.98352 0.4036 0.0
C289 C 0.33851 0.10923 0.43136 0.0
C290 C 0.27137 0.1085 0.41089 0.0
C291 C 0.29031 0.14495 0.42199 0.0
C292 C 0.32405 0.14519 0.43229 0.0
N293 N 0.28576 0.07339 0.41005 0.0
C294 C 0.31889 0.07342 0.42009 0.0
Co295 Co 0.26919 0.18551 0.74581 0.0
Co296 Co 0.23367 0.26078 0.72743 0.0
O297 O 0.26887 0.24758 0.74305 0.0
C298 C 0.22767 0.20199 0.77307 0.0
O299 O 0.19981 0.21131 0.76415 0.0
C300 C 0.33961 0.33199 0.72325 0.0
O301 O 0.34499 0.29273 0.72446 0.0
O302 O 0.25618 0.23039 0.71225 0.0
O303 O 0.27911 0.18057 0.72389 0.0
H304 H 0.12298 0.22084 0.68267 0.0
H305 H 0.33671 0.27449 0.76379 0.0
O306 O 0.25823 0.18972 0.76769 0.0
H307 H 0.44721 0.23099 0.73612 0.0
H308 H 0.31303 0.07092 0.77322 0.0
H309 H 0.22523 0.08853 0.72995 0.0
H310 H 0.35572 0.18007 0.73348 0.0
H311 H 0.3129 0.14962 0.76881 0.0
O312 O 0.29609 0.32698 0.72402 0.0
H313 H 0.16602 0.20264 0.70269 0.0
H314 H 0.22999 0.3515 0.71855 0.0
H315 H 0.22473 0.0093 0.73385 0.0
H316 H 0.42796 0.32625 0.76682 0.0
H317 H 0.26887 0.00016 0.75562 0.0
H318 H 0.48387 0.3047 0.75287 0.0
O319 O 0.19611 0.14596 0.74291 0.0
H320 H 0.25493 0.37127 0.77103 0.0
H321 H 0.13503 0.24942 0.73528 0.0
H322 H 0.10504 0.28467 0.75461 0.0
H323 H 0.16522 0.34605 0.77265 0.0
H324 H 0.28323 0.33484 0.75159 0.0
H325 H 0.18797 0.3715 0.69863 0.0
H326 H 0.13385 0.30581 0.68055 0.0
O327 O 0.17197 0.19386 0.73054 0.0
C328 C 0.27234 0.19977 0.71215 0.0
C329 C 0.14627 0.24971 0.69052 0.0
C330 C 0.18281 0.33429 0.69946 0.0
N331 N 0.19994 0.2758 0.71187 0.0
C332 C 0.17055 0.23956 0.70191 0.0
C333 C 0.20654 0.32279 0.7107 0.0
C334 C 0.15244 0.29741 0.68933 0.0
C335 C 0.36078 0.26453 0.75782 0.0
N336 N 0.34093 0.22413 0.74855 0.0
C337 C 0.41243 0.29412 0.75953 0.0
C338 C 0.44378 0.28205 0.75168 0.0
C339 C 0.42323 0.24071 0.74227 0.0
C340 C 0.37141 0.21204 0.74082 0.0
C341 C 0.29377 0.0745 0.76367 0.0
C342 C 0.24483 0.08492 0.73938 0.0
C343 C 0.29351 0.11892 0.76114 0.0
N344 N 0.26952 0.12375 0.74906 0.0
C345 C 0.24427 0.03993 0.74156 0.0
C346 C 0.269 0.03481 0.75379 0.0
C347 C 0.16309 0.15282 0.73664 0.0
C348 C 0.22838 0.34468 0.7632 0.0
C349 C 0.16141 0.27612 0.7431 0.0
C350 C 0.14424 0.29599 0.754 0.0
C351 C 0.17802 0.33046 0.76412 0.0
N352 N 0.21086 0.2903 0.74227 0.0
C353 C 0.24423 0.3241 0.75213 0.0
Co354 Co 0.72119 0.90753 0.57745 0.0
Co355 Co 0.75578 0.01844 0.59566 0.0
O356 O 0.72087 0.96963 0.58011 0.0
C357 C 0.76257 0.96558 0.55022 0.0
O358 O 0.79027 0.00272 0.55918 0.0
C359 C 0.64966 0.98334 0.59967 0.0
O360 O 0.64421 0.93862 0.59862 0.0
O361 O 0.73333 0.96572 0.61093 0.0
O362 O 0.71131 0.89297 0.59938 0.0
H363 H 0.86602 0.09062 0.64046 0.0
H364 H 0.65313 0.92781 0.55935 0.0
O365 O 0.73212 0.92257 0.55555 0.0
H366 H 0.54362 0.77354 0.58716 0.0
H367 H 0.67882 0.74905 0.55025 0.0
H368 H 0.76563 0.85537 0.59348 0.0
H369 H 0.63515 0.81517 0.58985 0.0
H370 H 0.67823 0.82759 0.55451 0.0
O371 O 0.69322 0.02188 0.59893 0.0
H372 H 0.82343 0.02891 0.62051 0.0
H373 H 0.75886 0.11274 0.60432 0.0
H374 H 0.76683 0.77694 0.58973 0.0
H375 H 0.56183 0.88725 0.55626 0.0
H376 H 0.72319 0.7232 0.56799 0.0
H377 H 0.50642 0.80966 0.57028 0.0
O378 O 0.79432 0.94175 0.58035 0.0
H379 H 0.73443 0.10618 0.55169 0.0
H380 H 0.85428 0.10614 0.5878 0.0
H381 H 0.8842 0.17087 0.5683 0.0
H382 H 0.82406 0.1711 0.55007 0.0
H383 H 0.70619 0.04199 0.57131 0.0
H384 H 0.80045 0.17523 0.62417 0.0
H385 H 0.85464 0.16443 0.64238 0.0
O386 O 0.81773 0.01371 0.5927 0.0
C387 C 0.71765 0.919 0.61109 0.0
C388 C 0.8427 0.09586 0.63256 0.0
C389 C 0.80583 0.14332 0.62342 0.0
N390 N 0.78921 0.06758 0.61117 0.0
C391 C 0.81865 0.06115 0.6212 0.0
C392 C 0.78234 0.10781 0.61222 0.0
C393 C 0.83624 0.13723 0.63363 0.0
C394 C 0.62928 0.89373 0.56535 0.0
N395 N 0.64943 0.87369 0.57469 0.0
C396 C 0.57761 0.87107 0.56361 0.0
C397 C 0.54653 0.82757 0.5715 0.0
C398 C 0.56738 0.8073 0.58098 0.0
C399 C 0.61922 0.83105 0.58246 0.0
C400 C 0.69786 0.77208 0.55979 0.0
C401 C 0.74626 0.83197 0.58406 0.0
C402 C 0.69773 0.81661 0.56224 0.0
N403 N 0.72146 0.8457 0.57431 0.0
C404 C 0.74721 0.78771 0.58196 0.0
C405 C 0.72276 0.7576 0.56975 0.0
C406 C 0.827 0.98181 0.58664 0.0
C407 C 0.76096 0.10657 0.5596 0.0
C408 C 0.8279 0.10605 0.57991 0.0
C409 C 0.84504 0.14281 0.56891 0.0
C410 C 0.81127 0.14294 0.55869 0.0
N411 N 0.77851 0.07053 0.58074 0.0
C412 C 0.74515 0.07046 0.57078 0.0
Co413 Co 0.81151 0.72072 0.91084 0.0
Co414 Co 0.73624 0.75718 0.92875 0.0
O415 O 0.74963 0.72158 0.9133 0.0
C416 C 0.7966 0.76286 0.88351 0.0
O417 O 0.78782 0.7911 0.89243 0.0
C418 C 0.66329 0.65153 0.93267 0.0
O419 O 0.70191 0.645 0.93178 0.0
O420 O 0.76513 0.7337 0.94415 0.0
O421 O 0.8153 0.71062 0.9328 0.0
H422 H 0.77524 0.86767 0.97353 0.0
H423 H 0.72311 0.65368 0.89257 0.0
O424 O 0.80822 0.73182 0.8889 0.0
H425 H 0.76432 0.5422 0.92067 0.0
H426 H 0.92615 0.67553 0.88408 0.0
H427 H 0.9076 0.76363 0.92711 0.0
H428 H 0.81558 0.63369 0.92339 0.0
H429 H 0.84779 0.67663 0.88807 0.0
O430 O 0.66943 0.6955 0.93188 0.0
H431 H 0.79362 0.82412 0.95371 0.0
H432 H 0.64599 0.76249 0.93707 0.0
H433 H 0.98646 0.76314 0.92363 0.0
H434 H 0.67105 0.56245 0.88945 0.0
H435 H -0.00394 0.71883 0.90198 0.0
H436 H 0.69145 0.50605 0.90361 0.0
O437 O 0.85156 0.79389 0.91374 0.0
H438 H 0.62952 0.73816 0.88438 0.0
H439 H 0.74952 0.85659 0.92079 0.0
H440 H 0.71661 0.8877 0.90109 0.0
H441 H 0.65619 0.82828 0.88271 0.0
H442 H 0.66361 0.70873 0.9042 0.0
H443 H 0.62583 0.80507 0.95678 0.0
H444 H 0.69081 0.85826 0.97515 0.0
O445 O 0.80358 0.81828 0.92592 0.0
C446 C 0.7955 0.71723 0.94443 0.0
C447 C 0.74668 0.84478 0.96555 0.0
C448 C 0.6628 0.80959 0.95616 0.0
N449 N 0.72108 0.79132 0.94416 0.0
C450 C 0.75694 0.8202 0.95428 0.0
C451 C 0.67439 0.78554 0.94504 0.0
C452 C 0.69928 0.83944 0.96646 0.0
C453 C 0.73256 0.6294 0.89864 0.0
N454 N 0.77252 0.64897 0.90807 0.0
C455 C 0.70281 0.57776 0.89688 0.0
C456 C 0.71423 0.54614 0.90485 0.0
C457 C 0.7551 0.5664 0.91443 0.0
C458 C 0.78396 0.61821 0.91593 0.0
C459 C 0.92237 0.69486 0.89357 0.0
C460 C 0.91142 0.74399 0.91773 0.0
C461 C 0.87815 0.69568 0.89587 0.0
N462 N 0.87304 0.71976 0.90788 0.0
C463 C 0.95619 0.74397 0.91579 0.0
C464 C 0.96158 0.71915 0.90363 0.0
C465 C 0.84469 0.82698 0.91995 0.0
C466 C 0.65569 0.76439 0.89236 0.0
C467 C 0.7232 0.83052 0.91283 0.0
C468 C 0.70465 0.84833 0.90172 0.0
C469 C 0.67073 0.81497 0.89141 0.0
N470 N 0.70825 0.78086 0.91369 0.0
C471 C 0.67493 0.7479 0.90365 0.0
Co472 Co 0.08343 0.81158 0.24421 0.0
Co473 Co 0.97317 0.7357 0.26278 0.0
O474 O 0.02122 0.74932 0.24702 0.0
C475 C 0.02425 0.79514 0.21722 0.0
O476 O 0.98753 0.78584 0.22633 0.0
C477 C 0.00846 0.66483 0.26659 0.0
O478 O 0.05299 0.70419 0.26523 0.0
O479 O 0.02651 0.76609 0.27783 0.0
O480 O 0.09901 0.81624 0.26608 0.0
H481 H 0.90331 0.77457 0.30796 0.0
H482 H 0.06168 0.72301 0.22598 0.0
O483 O 0.06741 0.80756 0.22238 0.0
H484 H 0.21686 0.76681 0.25304 0.0
H485 H 0.2408 0.92708 0.21644 0.0
H486 H 0.13679 0.90834 0.26018 0.0
H487 H 0.17598 0.81727 0.2561 0.0
H488 H 0.16224 0.84812 0.22094 0.0
O489 O 0.96979 0.66962 0.26603 0.0
H490 H 0.96406 0.79332 0.28775 0.0
H491 H 0.87917 0.6446 0.27176 0.0
H492 H 0.21527 0.9878 0.25618 0.0
H493 H 0.10146 0.67172 0.22252 0.0
H494 H 0.26785 -0.00248 0.23418 0.0
H495 H 0.17951 0.69342 0.23616 0.0
O496 O 0.04982 0.85086 0.24743 0.0
H497 H 0.88321 0.62576 0.21915 0.0
H498 H 0.88537 0.74661 0.25532 0.0
H499 H 0.81973 0.71148 0.2361 0.0
H500 H 0.81842 0.65062 0.21784 0.0
H501 H 0.94833 0.66205 0.23849 0.0
H502 H 0.81764 0.62406 0.29188 0.0
H503 H 0.82946 0.6894 0.31011 0.0
O504 O 0.97801 0.80252 0.25987 0.0
C505 C 0.07329 0.79677 0.27786 0.0
C506 C 0.89762 0.74585 0.30004 0.0
C507 C 0.84958 0.66135 0.29103 0.0
N508 N 0.92478 0.72026 0.2785 0.0
C509 C 0.93178 0.75631 0.28854 0.0
C510 C 0.88454 0.67317 0.27968 0.0
C511 C 0.85623 0.69803 0.30125 0.0
C512 C 0.09596 0.73303 0.23181 0.0
N513 N 0.11668 0.77327 0.24115 0.0
C514 C 0.11818 0.70371 0.22987 0.0
C515 C 0.16194 0.71587 0.23754 0.0
C516 C 0.1829 0.75703 0.24702 0.0
C517 C 0.15958 0.78543 0.24872 0.0
C518 C 0.21828 0.92326 0.22609 0.0
C519 C 0.1597 0.91219 0.25064 0.0
C520 C 0.17376 0.87869 0.22867 0.0
N521 N 0.14531 0.87354 0.24088 0.0
C522 C 0.20399 0.95731 0.24841 0.0
C523 C 0.23344 0.96276 0.23605 0.0
C524 C 0.01002 0.84374 0.25381 0.0
C525 C 0.88329 0.65212 0.22707 0.0
C526 C 0.885 0.72012 0.24741 0.0
C527 C 0.84772 0.70032 0.23657 0.0
C528 C 0.84699 0.66614 0.22633 0.0
N529 N 0.92044 0.70615 0.24807 0.0
C530 C 0.91994 0.67261 0.23809 0.0
Co531 Co 0.26892 0.08456 0.57737 0.0
Co532 Co 0.23325 0.97327 0.5955 0.0
O533 O 0.26832 0.02196 0.57993 0.0
C534 C 0.22656 0.02689 0.55012 0.0
O535 O 0.19859 0.98978 0.55906 0.0
C536 C 0.33914 0.00724 0.59935 0.0
O537 O 0.34496 0.0521 0.59828 0.0
O538 O 0.25653 0.02598 0.61079 0.0
O539 O 0.27931 0.099 0.5993 0.0
H540 H 0.1236 0.90207 0.64046 0.0
H541 H 0.33577 0.06313 0.55907 0.0
O542 O 0.25747 0.0697 0.55548 0.0
H543 H 0.44738 0.21668 0.58686 0.0
H544 H 0.31312 0.24379 0.55032 0.0
H545 H 0.22583 0.13772 0.59356 0.0
H546 H 0.35597 0.17621 0.5897 0.0
H547 H 0.31248 0.16458 0.55446 0.0
O548 O 0.29541 0.96893 0.59864 0.0
H549 H 0.16653 0.96372 0.62051 0.0
H550 H 0.22889 0.87824 0.60401 0.0
H551 H 0.22586 0.21682 0.58993 0.0
H552 H 0.42692 0.10252 0.55583 0.0
H553 H 0.26976 0.27044 0.56818 0.0
H554 H 0.48339 0.17975 0.56984 0.0
O555 O 0.19589 0.0512 0.58042 0.0
H556 H 0.25249 0.88473 0.55137 0.0
H557 H 0.13409 0.88642 0.58772 0.0
H558 H 0.10313 0.82174 0.5682 0.0
H559 H 0.16255 0.82068 0.54985 0.0
H560 H 0.28176 0.9489 0.57101 0.0
H561 H 0.18695 0.81579 0.62385 0.0
H562 H 0.1337 0.82745 0.64221 0.0
O563 O 0.17178 0.97895 0.59268 0.0
C564 C 0.2728 0.07281 0.61098 0.0
C565 C 0.14651 0.89645 0.63248 0.0
C566 C 0.18212 0.84806 0.62318 0.0
N567 N 0.19963 0.9242 0.61101 0.0
C568 C 0.17073 0.93112 0.62113 0.0
C569 C 0.20581 0.88354 0.61198 0.0
C570 C 0.15224 0.85462 0.63347 0.0
C571 C 0.36008 0.09706 0.56506 0.0
N572 N 0.34059 0.11755 0.57448 0.0
C573 C 0.41167 0.11906 0.56324 0.0
C574 C 0.44333 0.16235 0.57112 0.0
C575 C 0.42315 0.18308 0.58068 0.0
C576 C 0.37138 0.15999 0.58225 0.0
C577 C 0.29398 0.22081 0.55986 0.0
C578 C 0.24531 0.16106 0.58413 0.0
C579 C 0.29342 0.17591 0.56224 0.0
N580 N 0.26957 0.14689 0.57431 0.0
C581 C 0.24506 0.20571 0.5821 0.0
C582 C 0.26965 0.23575 0.56989 0.0
C583 C 0.16291 0.01128 0.58671 0.0
C584 C 0.22627 0.88471 0.55934 0.0
C585 C 0.16014 0.88615 0.57978 0.0
C586 C 0.14242 0.84942 0.56876 0.0
C587 C 0.17578 0.84882 0.55847 0.0
N588 N 0.20971 0.92119 0.58055 0.0
C589 C 0.24267 0.92081 0.57052 0.0
Co590 Co 0.17597 0.27358 0.91016 0.0
Co591 Co 0.25321 0.23921 0.92785 0.0
O592 O 0.23855 0.27399 0.91245 0.0
C593 C 0.19114 0.23227 0.88268 0.0
O594 O 0.20053 0.2042 0.89148 0.0
C595 C 0.32532 0.3452 0.93159 0.0
O596 O 0.28641 0.35128 0.93073 0.0
O597 O 0.22431 0.26234 0.94335 0.0
O598 O 0.17239 0.28342 0.93215 0.0
H599 H 0.21744 0.13001 0.9728 0.0
H600 H 0.26343 0.34179 0.89173 0.0
O601 O 0.17903 0.26278 0.8882 0.0
H602 H 0.22013 0.45117 0.92014 0.0
H603 H 0.05864 0.31603 0.88381 0.0
H604 H 0.08012 0.22904 0.92663 0.0
H605 H 0.17037 0.35959 0.92287 0.0
H606 H 0.13791 0.31657 0.88757 0.0
O607 O 0.31963 0.30143 0.93078 0.0
H608 H 0.19749 0.17259 0.95306 0.0
H609 H 0.34451 0.23535 0.93582 0.0
H610 H 0.00037 0.22789 0.92337 0.0
H611 H 0.31399 0.43314 0.88859 0.0
H612 H 0.98928 0.27162 0.90183 0.0
H613 H 0.29254 0.48849 0.9029 0.0
O614 O 0.13705 0.20034 0.91308 0.0
H615 H 0.35895 0.259 0.88316 0.0
H616 H 0.24105 0.14022 0.91991 0.0
H617 H 0.27407 0.10956 0.90012 0.0
H618 H 0.33344 0.16916 0.88156 0.0
H619 H 0.32478 0.28798 0.90308 0.0
H620 H 0.36624 0.19377 0.95545 0.0
H621 H 0.30236 0.14049 0.97408 0.0
O622 O 0.18623 0.1775 0.92527 0.0
C623 C 0.19305 0.27768 0.94372 0.0
C624 C 0.24552 0.15293 0.96471 0.0
C625 C 0.32906 0.18878 0.95498 0.0
N626 N 0.26962 0.20586 0.9432 0.0
C627 C 0.23437 0.17695 0.95347 0.0
C628 C 0.31658 0.21226 0.94391 0.0
C629 C 0.2932 0.15888 0.96543 0.0
C630 C 0.25352 0.3656 0.89787 0.0
N631 N 0.21381 0.34539 0.9074 0.0
C632 C 0.28243 0.41731 0.8961 0.0
C633 C 0.27041 0.44835 0.90415 0.0
C634 C 0.2298 0.42743 0.91383 0.0
C635 C 0.2018 0.37557 0.91534 0.0
C636 C 0.06306 0.29694 0.89326 0.0
C637 C 0.07566 0.24845 0.91729 0.0
C638 C 0.1078 0.29704 0.89543 0.0
N639 N 0.11372 0.27327 0.90738 0.0
C640 C 0.03038 0.24753 0.91547 0.0
C641 C 0.02417 0.27203 0.90338 0.0
C642 C 0.14475 0.16788 0.91938 0.0
C643 C 0.33324 0.2327 0.89121 0.0
C644 C 0.2669 0.16636 0.91188 0.0
C645 C 0.28551 0.1488 0.90071 0.0
C646 C 0.31886 0.18227 0.89031 0.0
N647 N 0.28122 0.21588 0.91269 0.0
C648 C 0.31395 0.24893 0.90255 0.0
Co649 Co 0.91284 0.18597 0.24468 0.0
Co650 Co 0.02376 0.26135 0.263 0.0
O651 O 0.97521 0.24811 0.24743 0.0
C652 C 0.97089 0.20282 0.21742 0.0
O653 O 0.00806 0.21218 0.22634 0.0
C654 C 0.9888 0.3323 0.26727 0.0
O655 O 0.94418 0.29295 0.26611 0.0
O656 O 0.97095 0.23075 0.27822 0.0
O657 O 0.89809 0.18091 0.26661 0.0
H658 H 0.09512 0.22148 0.30763 0.0
H659 H 0.93408 0.27498 0.22675 0.0
O660 O 0.92797 0.19033 0.22278 0.0
H661 H 0.78006 0.23094 0.25452 0.0
H662 H 0.7543 0.0712 0.2173 0.0
H663 H 0.85997 0.08892 0.26051 0.0
H664 H 0.82081 0.1802 0.25707 0.0
H665 H 0.83312 0.14999 0.2217 0.0
O666 O 0.0274 0.32744 0.26647 0.0
H667 H 0.0337 0.20317 0.28766 0.0
H668 H 0.1181 0.35222 0.27189 0.0
H669 H 0.78127 0.0096 0.25662 0.0
H670 H 0.89442 0.32657 0.2238 0.0
H671 H 0.72785 0.0004 0.23488 0.0
H672 H 0.81696 0.30475 0.2378 0.0
O673 O 0.9465 0.14655 0.24751 0.0
H674 H 0.11244 0.37203 0.21937 0.0
H675 H 0.11117 0.25036 0.25505 0.0
H676 H 0.1762 0.28575 0.23565 0.0
H677 H 0.17706 0.34704 0.21764 0.0
H678 H 0.04793 0.33547 0.23888 0.0
H679 H 0.18031 0.37231 0.29176 0.0
H680 H 0.16908 0.30659 0.30976 0.0
O681 O 0.01866 0.19453 0.25984 0.0
C682 C 0.92416 0.20008 0.27834 0.0
C683 C 0.10055 0.25037 0.29981 0.0
C684 C 0.14833 0.33505 0.29091 0.0
N685 N 0.07268 0.27644 0.27853 0.0
C686 C 0.06601 0.24016 0.28845 0.0
C687 C 0.11298 0.32349 0.2797 0.0
C688 C 0.14201 0.29815 0.30101 0.0
C689 C 0.90005 0.2649 0.23274 0.0
N690 N 0.87958 0.22444 0.24199 0.0
C691 C 0.87789 0.29439 0.23108 0.0
C692 C 0.83447 0.28217 0.23896 0.0
C693 C 0.81376 0.24077 0.24835 0.0
C694 C 0.83701 0.2122 0.24975 0.0
C695 C 0.77719 0.0748 0.22684 0.0
C696 C 0.83671 0.08529 0.25109 0.0
C697 C 0.82186 0.11927 0.22937 0.0
N698 N 0.85078 0.12414 0.24143 0.0
C699 C 0.79229 0.04025 0.24892 0.0
C700 C 0.76236 0.03509 0.23671 0.0
C701 C 0.98647 0.15351 0.25374 0.0
C702 C 0.11255 0.34549 0.22719 0.0
C703 C 0.11134 0.27702 0.24725 0.0
C704 C 0.14827 0.29698 0.2363 0.0
C705 C 0.14875 0.33139 0.22621 0.0
N706 N 0.076 0.29107 0.24814 0.0
C707 C 0.07626 0.32484 0.2383 0.0
H708 H 0.06045 0.24351 0.20307 0.0
H709 H 0.94072 0.17994 0.12188 0.0
H710 H 0.90207 0.17478 0.1949 0.0
H711 H 0.09894 0.27274 0.12983 0.0
H712 H 0.92607 0.17464 0.14858 0.0
H713 H 0.07531 0.25153 0.17634 0.0
C714 C 0.02872 0.22999 0.19565 0.0
C715 C 0.97984 0.20817 0.20123 0.0
C716 C 0.96399 0.19623 0.14451 0.0
C717 C -0.00324 0.21732 0.17057 0.0
C718 C 0.97248 0.19915 0.12925 0.0
C719 C 0.02124 0.22666 0.12361 0.0
C720 C 0.00454 0.22069 0.15427 0.0
C721 C 0.06079 0.25107 0.1337 0.0
C722 C 0.03731 0.23478 0.18038 0.0
C723 C 0.94031 0.19176 0.19108 0.0
N724 N 0.05158 0.24732 0.14856 0.0
N725 N 0.94963 0.19647 0.17623 0.0
H726 H 0.75264 0.93755 0.45456 0.0
H727 H 0.81187 0.05538 0.53602 0.0
H728 H 0.82034 0.09579 0.46299 0.0
H729 H 0.72114 0.89714 0.52761 0.0
H730 H 0.81829 0.0708 0.50934 0.0
H731 H 0.74378 0.92213 0.48124 0.0
C732 C 0.76578 0.96915 0.46203 0.0
C733 C 0.78754 0.01814 0.45654 0.0
C734 C 0.7969 0.03271 0.51331 0.0
C735 C 0.77739 0.00056 0.48715 0.0
C736 C 0.79334 0.02379 0.52855 0.0
C737 C 0.76609 0.9748 0.53405 0.0
C738 C 0.77334 0.99236 0.50344 0.0
C739 C 0.74257 0.93547 0.52385 0.0
C740 C 0.7605 0.96022 0.47727 0.0
C741 C 0.80343 0.05747 0.46675 0.0
N742 N 0.74692 0.9451 0.50901 0.0
N743 N 0.79823 0.04782 0.48158 0.0
H744 H 0.81394 0.75258 0.78777 0.0
H745 H 0.7574 0.81318 0.86929 0.0
H746 H 0.72434 0.82102 0.7964 0.0
H747 H 0.82255 0.72046 0.86091 0.0
H748 H 0.74838 0.81956 0.84263 0.0
H749 H 0.82072 0.74363 0.81445 0.0
C750 C 0.79574 0.76585 0.79528 0.0
C751 C 0.7687 0.78786 0.78985 0.0
C752 C 0.76457 0.79774 0.84659 0.0
C753 C 0.77639 0.77761 0.82044 0.0
C754 C 0.76995 0.79421 0.86183 0.0
C755 C 0.79102 0.76639 0.86734 0.0
C756 C 0.78067 0.77361 0.83673 0.0
C757 C 0.80618 0.74233 0.85714 0.0
C758 C 0.79951 0.76052 0.81052 0.0
C759 C 0.74559 0.80392 0.8001 0.0
N760 N 0.80091 0.74667 0.8423 0.0
N761 N 0.75016 0.79867 0.81492 0.0
H762 H 0.04901 0.81266 0.12152 0.0
H763 H 0.93395 0.75456 0.20332 0.0
H764 H 0.89119 0.72111 0.13033 0.0
H765 H 0.09177 0.82207 0.19437 0.0
H766 H 0.91756 0.74534 0.17668 0.0
H767 H 0.06517 0.81979 0.14815 0.0
C768 C 0.01766 0.79411 0.12906 0.0
C769 C 0.96857 0.76639 0.12369 0.0
C770 C 0.95577 0.7621 0.18053 0.0
C771 C 0.987 0.77447 0.15426 0.0
C772 C 0.96524 0.76759 0.19575 0.0
C773 C 0.01441 0.78938 0.20108 0.0
C774 C -0.00427 0.77882 0.17052 0.0
C775 C 0.05333 0.80513 0.19074 0.0
C776 C 0.027 0.79808 0.14428 0.0
C777 C 0.92957 0.74289 0.134 0.0
N778 N 0.04316 0.79973 0.17594 0.0
N779 N 0.93963 0.74764 0.14881 0.0
H780 H 0.17663 0.93732 0.5358 0.0
H781 H 0.23575 0.0565 0.45452 0.0
H782 H 0.26815 0.0956 0.52758 0.0
H783 H 0.16888 0.89818 0.46266 0.0
H784 H 0.24442 0.0714 0.48122 0.0
H785 H 0.17 0.92232 0.50909 0.0
C786 C 0.19528 0.96901 0.52838 0.0
C787 C 0.22283 0.01789 0.53393 0.0
C788 C 0.22792 0.0334 0.47719 0.0
C789 C 0.21532 0.0008 0.50329 0.0
C790 C 0.22274 0.02477 0.46193 0.0
C791 C 0.20129 0.97591 0.45635 0.0
C792 C 0.21124 0.99289 0.48699 0.0
C793 C 0.18555 0.93641 0.46649 0.0
C794 C 0.1916 0.96032 0.51311 0.0
C795 C 0.2465 0.05735 0.52377 0.0
N796 N 0.19064 0.94576 0.48134 0.0
N797 N 0.24201 0.04795 0.50893 0.0
H798 H 0.26925 0.17465 0.7955 0.0
H799 H 0.16496 0.27539 0.86036 0.0
H800 H 0.17808 0.24175 0.7875 0.0
H801 H 0.23082 0.18295 0.86811 0.0
H802 H 0.17522 0.26937 0.83358 0.0
H803 H 0.26147 0.1834 0.82226 0.0
C804 C 0.24766 0.19123 0.79937 0.0
C805 C 0.22404 0.20719 0.78927 0.0
C806 C 0.18733 0.25038 0.84116 0.0
C807 C 0.21515 0.21752 0.81981 0.0
C808 C 0.18154 0.25386 0.85643 0.0
C809 C 0.19676 0.22941 0.86647 0.0
C810 C 0.20888 0.22261 0.83592 0.0
C811 C 0.21816 0.20212 0.86078 0.0
C812 C 0.24314 0.19614 0.81463 0.0
C813 C 0.1966 0.22854 0.79489 0.0
N814 N 0.22364 0.19952 0.8459 0.0
N815 N 0.19296 0.23312 0.80977 0.0
H816 H 0.16754 0.29238 0.03868 0.0
H817 H 0.11603 0.29355 0.95148 0.0
H818 H 0.03397 0.2824 0.0202 0.0
H819 H 0.24174 0.28722 0.96986 0.0
H820 H 0.09192 0.30285 0.97667 0.0
H821 H 0.20183 0.30372 0.01353 0.0
C822 C 0.14565 0.29304 0.02938 0.0
C823 C 0.09754 0.28565 0.03155 0.0
C824 C 0.12502 0.29983 0.97514 0.0
C825 C 0.13639 0.29856 0.00281 0.0
C826 C 0.13883 0.29464 0.96076 0.0
C827 C 0.18047 0.2888 0.95855 0.0
C828 C 0.15315 0.2993 0.98735 0.0
C829 C 0.20883 0.29077 0.97102 0.0
C830 C 0.16517 0.29943 0.01503 0.0
C831 C 0.07094 0.28714 0.01907 0.0
N832 N 0.19442 0.29545 0.98487 0.0
N833 N 0.09056 0.29305 0.00526 0.0
H834 H 0.7458 0.03673 0.35334 0.0
H835 H 0.96185 0.24902 0.30451 0.0
H836 H 0.8736 0.16645 0.37199 0.0
H837 H 0.83103 0.12255 0.28581 0.0
H838 H 0.92572 0.22391 0.32914 0.0
H839 H 0.77192 0.07213 0.32866 0.0
C840 C 0.77929 0.0729 0.35227 0.0
C841 C 0.80805 0.09835 0.36477 0.0
C842 C 0.90466 0.20182 0.31967 0.0
C843 C 0.83817 0.13903 0.33639 0.0
C844 C 0.9253 0.21601 0.30556 0.0
C845 C 0.89972 0.18735 0.29305 0.0
C846 C 0.85817 0.15839 0.32139 0.0
C847 C 0.85221 0.14552 0.29513 0.0
C848 C 0.79407 0.09312 0.33813 0.0
C849 C 0.85053 0.14538 0.36267 0.0
N850 N 0.83319 0.13196 0.30907 0.0
N851 N 0.86465 0.16396 0.3487 0.0
H852 H 0.70333 0.87456 0.70583 0.0
H853 H 0.70013 0.82511 0.61836 0.0
H854 H 0.70932 0.74968 0.68658 0.0
H855 H 0.70936 0.95764 0.63748 0.0
H856 H 0.69016 0.79029 0.64338 0.0
H857 H 0.69225 0.89911 0.68087 0.0
C858 C 0.70182 0.85206 0.69641 0.0
C859 C 0.70809 0.81054 0.69829 0.0
C860 C 0.69397 0.82684 0.64205 0.0
C861 C 0.6955 0.83828 0.66977 0.0
C862 C 0.69956 0.84664 0.62777 0.0
C863 C 0.7064 0.89465 0.62582 0.0
C864 C 0.69512 0.85523 0.65442 0.0
C865 C 0.70505 0.92078 0.63844 0.0
C866 C 0.6956 0.8661 0.68216 0.0
C867 C 0.70553 0.78254 0.68567 0.0
N868 N 0.69997 0.90091 0.65219 0.0
N869 N 0.69982 0.79713 0.67196 0.0
H870 H 0.81934 0.69841 0.03926 0.0
H871 H 0.87033 0.69778 0.95202 0.0
H872 H 0.95021 0.70272 0.02069 0.0
H873 H 0.74755 0.70893 0.97063 0.0
H874 H 0.89316 0.68604 0.97713 0.0
H875 H 0.78528 0.68853 0.01413 0.0
C876 C 0.84063 0.69672 0.02995 0.0
C877 C 0.88802 0.70225 0.03208 0.0
C878 C 0.86098 0.69066 0.97567 0.0
C879 C 0.84949 0.6911 0.00336 0.0
C880 C 0.84792 0.69728 0.96133 0.0
C881 C 0.8075 0.70517 0.95922 0.0
C882 C 0.83331 0.69181 0.98792 0.0
C883 C 0.77956 0.70385 0.97171 0.0
C884 C 0.82127 0.69121 0.0156 0.0
C885 C 0.91386 0.69949 0.01959 0.0
N886 N 0.79323 0.69773 0.98551 0.0
N887 N 0.89446 0.69454 0.00578 0.0
H888 H 0.03763 0.74548 0.30377 0.0
H889 H 0.24681 0.962 0.35321 0.0
H890 H 0.16499 0.87636 0.28545 0.0
H891 H 0.12159 0.829 0.37145 0.0
H892 H 0.22268 0.92671 0.32845 0.0
H893 H 0.07314 0.77081 0.32846 0.0
C894 C 0.07333 0.7795 0.30492 0.0
C895 C 0.09803 0.80936 0.29252 0.0
C896 C 0.20068 0.905 0.33785 0.0
C897 C 0.13883 0.83861 0.32091 0.0
C898 C 0.21431 0.92515 0.35204 0.0
C899 C 0.18566 0.8987 0.36446 0.0
C900 C 0.15785 0.85813 0.33597 0.0
C901 C 0.14451 0.85086 0.36221 0.0
C902 C 0.09362 0.79383 0.31906 0.0
C903 C 0.14452 0.85245 0.2947 0.0
N904 N 0.13149 0.83232 0.3482 0.0
N905 N 0.16315 0.86614 0.30868 0.0
H906 H 0.28374 0.03476 0.63713 0.0
H907 H 0.28466 0.24917 0.68601 0.0
H908 H 0.28865 0.16591 0.61852 0.0
H909 H 0.28686 0.12162 0.70469 0.0
H910 H 0.29519 0.22374 0.66137 0.0
H911 H 0.29397 0.0704 0.66182 0.0
C912 C 0.28729 0.07129 0.63821 0.0
C913 C 0.28454 0.09709 0.62572 0.0
C914 C 0.29382 0.20149 0.67084 0.0
C915 C 0.29618 0.13804 0.6541 0.0
C916 C 0.28764 0.21586 0.68495 0.0
C917 C 0.28406 0.18698 0.69745 0.0
C918 C 0.29607 0.15764 0.66911 0.0
C919 C 0.28905 0.14477 0.69537 0.0
C920 C 0.29327 0.09164 0.65236 0.0
C921 C 0.29019 0.14456 0.62783 0.0
N922 N 0.29421 0.13102 0.68142 0.0
N923 N 0.29516 0.16327 0.6418 0.0
H924 H 0.06417 0.64337 0.05669 0.0
H925 H 0.921 0.34408 0.0571 0.0
H926 H 0.90366 0.55003 0.05818 0.0
H927 H 0.08156 0.43766 0.0567 0.0
H928 H 0.91364 0.41922 0.05628 0.0
H929 H 0.07126 0.56815 0.0555 0.0
C930 C 0.03047 0.60712 0.05671 0.0
C931 C 0.98331 0.60296 0.05755 0.0
C932 C 0.95046 0.42322 0.05631 0.0
C933 C 0.99105 0.5169 0.05622 0.0
C934 C 0.95464 0.38035 0.05677 0.0
C935 C 0.00191 0.38461 0.05699 0.0
C936 C 0.99386 0.47055 0.0561 0.0
C937 C 0.0443 0.43255 0.05655 0.0
C938 C 0.0345 0.5642 0.05603 0.0
C939 C 0.94084 0.55505 0.05754 0.0
N940 N 0.03926 0.47361 0.05616 0.0
N941 N 0.94574 0.51391 0.05692 0.0
H942 H 0.57103 0.92442 0.38917 0.0
H943 H 0.42067 0.07327 0.38967 0.0
H944 H 0.64162 0.08535 0.38989 0.0
H945 H 0.35045 0.91235 0.38972 0.0
H946 H 0.50232 0.07871 0.38852 0.0
H947 H 0.48954 0.91924 0.38813 0.0
C948 C 0.5694 0.9586 0.38904 0.0
C949 C 0.61312 0.00531 0.38964 0.0
C950 C 0.46896 0.04223 0.38873 0.0
C951 C 0.52029 -0.00022 0.38851 0.0
C952 C 0.42242 0.03917 0.38937 0.0
C953 C 0.37875 0.99236 0.38982 0.0
C954 C 0.4717 -0.00182 0.38855 0.0
C955 C 0.38312 0.9493 0.38941 0.0
C956 C 0.52293 0.95567 0.38845 0.0
C957 C 0.60888 0.04847 0.38945 0.0
N958 N 0.42874 0.95327 0.38884 0.0
N959 N 0.5633 0.04463 0.38894 0.0
H960 H 0.34612 0.42384 0.72174 0.0
H961 H 0.64545 0.57322 0.72158 0.0
H962 H 0.43602 0.35292 0.72164 0.0
H963 H 0.55568 0.64425 0.72262 0.0
H964 H 0.56887 0.49187 0.72014 0.0
H965 H 0.42267 0.50534 0.72059 0.0
C966 C 0.38187 0.4254 0.72139 0.0
C967 C 0.38469 0.38159 0.72183 0.0
C968 C 0.56603 0.52534 0.72062 0.0
C969 C 0.4722 0.47437 0.72057 0.0
C970 C 0.60972 0.57172 0.72143 0.0
C971 C 0.60695 0.61551 0.72226 0.0
C972 C 0.51938 0.52287 0.72066 0.0
C973 C 0.55966 0.61145 0.72202 0.0
C974 C 0.42554 0.47186 0.72075 0.0
C975 C 0.432 0.38573 0.72136 0.0
N976 N 0.51778 0.56596 0.72129 0.0
N977 N 0.47384 0.43127 0.7208 0.0
H978 H 0.34453 0.92128 0.60087 0.0
H979 H 0.64387 0.06896 0.60141 0.0
H980 H 0.43598 0.08214 0.60069 0.0
H981 H 0.55281 0.90808 0.60064 0.0
H982 H 0.56779 0.07454 0.60242 0.0
H983 H 0.4205 0.91544 0.60205 0.0
C984 C 0.38049 0.95529 0.60115 0.0
C985 C 0.38391 0.0022 0.60066 0.0
C986 C 0.56453 0.03803 0.60209 0.0
C987 C 0.47078 0.99591 0.60196 0.0
C988 C 0.60795 0.03487 0.60152 0.0
C989 C 0.60469 0.98806 0.60092 0.0
C990 C 0.51764 0.99405 0.60202 0.0
C991 C 0.55716 0.94504 0.60109 0.0
C992 C 0.42384 0.95199 0.60181 0.0
C993 C 0.43149 0.04512 0.60104 0.0
N994 N 0.51554 0.94909 0.60158 0.0
N995 N 0.473 0.04092 0.60162 0.0
H996 H 0.41562 0.34896 0.9335 0.0
H997 H 0.57296 0.64816 0.93378 0.0
H998 H 0.34897 0.44272 0.93246 0.0
H999 H 0.63921 0.55401 0.93389 0.0
H1000 H 0.49021 0.57323 0.93449 0.0
H1001 H 0.4981 0.42395 0.93481 0.0
C1002 C 0.41833 0.38526 0.9336 0.0
C1003 C 0.37542 0.38961 0.93286 0.0
C1004 C 0.52292 0.56906 0.93442 0.0
C1005 C 0.46944 0.47542 0.93431 0.0
C1006 C 0.57011 0.6118 0.93403 0.0
C1007 C 0.61298 0.60732 0.93375 0.0
C1008 C 0.51873 0.52164 0.93451 0.0
C1009 C 0.60718 0.55929 0.93408 0.0
C1010 C 0.46537 0.42805 0.93434 0.0
C1011 C 0.38106 0.43757 0.93302 0.0
N1012 N 0.56094 0.51835 0.9344 0.0
N1013 N 0.4272 0.4786 0.93369 0.0
H1014 H 0.92341 0.57292 0.26887 0.0
H1015 H 0.07405 0.42434 0.26864 0.0
H1016 H 0.08428 0.64431 0.26761 0.0
H1017 H 0.91312 0.3529 0.26894 0.0
H1018 H 0.07876 0.5057 0.2697 0.0
H1019 H 0.91883 0.49167 0.27031 0.0
C1020 C 0.95769 0.57152 0.26897 0.0
C1021 C 0.00421 0.61538 0.26808 0.0
C1022 C 0.04244 0.47214 0.26961 0.0
C1023 C -0.00062 0.52288 0.26969 0.0
C1024 C 0.03979 0.42576 0.26901 0.0
C1025 C 0.9932 0.38184 0.26866 0.0
C1026 C -0.00181 0.47446 0.26982 0.0
C1027 C 0.94992 0.38579 0.26917 0.0
C1028 C 0.95512 0.5252 0.26978 0.0
C1029 C 0.04753 0.61145 0.26825 0.0
N1030 N 0.95349 0.43127 0.26967 0.0
N1031 N 0.04403 0.56604 0.26899 0.0
H1032 H 0.02741 0.11715 0.09403 0.0
H1033 H 0.01111 0.89258 0.048 0.0
H1034 H 0.98011 0.09676 0.04825 0.0
H1035 H 0.95835 0.87313 0.09322 0.0
H1036 H 0.01839 0.97571 0.04769 0.0
H1037 H 0.01946 0.03427 0.09384 0.0
C1038 C 0.01508 0.09496 0.08397 0.0
C1039 C 0.004 0.1133 0.07116 0.0
C1040 C 0.0054 0.95307 0.05765 0.0
C1041 C -0.0036 0.01973 0.07075 0.0
C1042 C 0.00177 0.90615 0.05788 0.0
C1043 C 0.98417 0.87635 0.07066 0.0
C1044 C 0.99265 0.97037 0.0704 0.0
C1045 C 0.97193 0.89511 0.08315 0.0
C1046 C 0.01062 0.04791 0.08387 0.0
C1047 C 0.98837 0.08342 0.05837 0.0
N1048 N 0.97679 0.94116 0.08276 0.0
N1049 N 0.98559 0.03808 0.05841 0.0
H1050 H 0.89966 0.02013 0.42742 0.0
H1051 H 0.11659 0.02011 0.38105 0.0
H1052 H 0.87996 0.98412 0.38073 0.0
H1053 H 0.08336 0.96444 0.42599 0.0
H1054 H 0.0389 0.024 0.38076 0.0
H1055 H 0.97606 0.01499 0.42721 0.0
C1056 C 0.91132 0.01061 0.41716 0.0
C1057 C 0.88355 0.002 0.4041 0.0
C1058 C 0.04897 0.01116 0.39066 0.0
C1059 C 0.97136 -0.0022 0.40368 0.0
C1060 C 0.09334 0.00951 0.39089 0.0
C1061 C 0.10612 0.99204 0.40357 0.0
C1062 C 0.0183 0.99643 0.40331 0.0
C1063 C 0.0746 0.97804 0.416 0.0
C1064 C 0.95481 0.00784 0.41704 0.0
C1065 C 0.90021 0.99026 0.39105 0.0
N1066 N 0.03229 0.98085 0.4156 0.0
N1067 N 0.94362 0.98909 0.3911 0.0
H1068 H 0.09442 0.11936 0.71406 0.0
H1069 H 0.87831 0.90197 0.76077 0.0
H1070 H 0.11665 0.08843 0.75927 0.0
H1071 H 0.89492 0.88218 0.71411 0.0
H1072 H 0.95942 0.97904 0.76051 0.0
H1073 H 0.01314 0.0412 0.71389 0.0
C1074 C 0.08176 0.09654 0.72399 0.0
C1075 C 0.11189 0.1101 0.73671 0.0
C1076 C 0.94549 0.95762 0.75036 0.0
C1077 C 0.02004 0.02168 0.73658 0.0
C1078 C 0.89947 0.91374 0.75051 0.0
C1079 C 0.88051 0.88576 0.73748 0.0
C1080 C 0.97202 0.97432 0.73699 0.0
C1081 C 0.90889 0.90258 0.72442 0.0
C1082 C 0.03592 0.05188 0.72382 0.0
C1083 C 0.09438 0.07909 0.74925 0.0
N1084 N 0.95321 0.94635 0.72444 0.0
N1085 N 0.04944 0.03645 0.7489 0.0
H1086 H 0.87637 0.97322 0.56312 0.0
H1087 H 0.09406 0.97414 0.60924 0.0
H1088 H 0.89281 0.00912 0.60982 0.0
H1089 H 0.11651 0.03084 0.56442 0.0
H1090 H 0.01231 0.96983 0.60961 0.0
H1091 H 0.95822 0.97899 0.56326 0.0
C1092 C 0.89762 0.98282 0.57337 0.0
C1093 C 0.87843 0.99123 0.58645 0.0
C1094 C 0.03527 0.98302 0.59972 0.0
C1095 C 0.97078 0.99615 0.58679 0.0
C1096 C 0.0814 0.98491 0.59944 0.0
C1097 C 0.11172 0.00278 0.58678 0.0
C1098 C 0.01927 -0.00212 0.58711 0.0
C1099 C 0.09414 0.01696 0.57441 0.0
C1100 C 0.94406 0.98596 0.57344 0.0
C1101 C 0.90694 0.00311 0.59948 0.0
N1102 N 0.04889 0.01388 0.57484 0.0
N1103 N 0.95168 0.00462 0.59939 0.0
H1104 H 0.9058 0.87433 0.89675 0.0
H1105 H 0.11492 0.10006 0.94208 0.0
H1106 H 0.88003 0.89513 0.94261 0.0
H1107 H 0.07881 0.11946 0.89719 0.0
H1108 H 0.03945 0.01666 0.94258 0.0
H1109 H 0.9803 0.95761 0.89671 0.0
C1110 C 0.91585 0.89668 0.90678 0.0
C1111 C 0.88688 0.87836 0.91968 0.0
C1112 C 0.0484 0.03935 0.93265 0.0
C1113 C 0.97233 0.97236 0.91982 0.0
C1114 C 0.09146 0.08643 0.9323 0.0
C1115 C 0.10279 0.1163 0.91957 0.0
C1116 C 0.01768 0.02194 0.92004 0.0
C1117 C 0.0711 0.09744 0.90722 0.0
C1118 C 0.95817 0.94395 0.90675 0.0
C1119 C 0.90132 0.90844 0.93242 0.0
N1120 N 0.03013 0.0512 0.90771 0.0
N1121 N 0.94363 0.954 0.93225 0.0
H1122 H 0.97628 0.87755 0.27669 0.0
H1123 H 0.97571 0.09459 0.23027 0.0
H1124 H 0.02624 0.90752 0.23117 0.0
H1125 H 0.01409 0.11476 0.27679 0.0
H1126 H 0.97933 0.01735 0.23041 0.0
H1127 H 0.97331 0.95577 0.27704 0.0
C1128 C 0.98574 0.90016 0.26674 0.0
C1129 C 0.00138 0.88633 0.25387 0.0
C1130 C 0.98735 0.03888 0.24056 0.0
C1131 C -0.00185 0.97481 0.25419 0.0
C1132 C 0.98546 0.08287 0.24047 0.0
C1133 C -0.00486 0.11101 0.2535 0.0
C1134 C -0.00236 0.02224 0.25386 0.0
C1135 C 0.00714 0.09424 0.26649 0.0
C1136 C 0.98465 0.94485 0.26699 0.0
C1137 C 0.01403 0.91708 0.2413 0.0
N1138 N 0.00747 0.05037 0.26641 0.0
N1139 N 0.01186 0.95975 0.24174 0.0
loop_
_geom_bond_atom_site_label_1
_geom_bond_atom_site_label_2
_geom_bond_distance
_geom_bond_site_symmetry_2
_ccdc_geom_bond_type
Co0 O2 2.143 . S
Co0 O8 2.074 . S
Co0 O11 2.093 . S
Co0 O24 2.097 . S
Co0 N41 2.151 . S
Co0 N49 2.214 . S
Co1 O2 2.160 1_655 S
Co1 O7 2.058 1_655 S
Co1 O17 2.057 . S
Co1 O32 2.037 . S
Co1 N36 2.145 . S
Co1 N57 2.257 . S
O2 Co0 2.143 . S
O2 Co1 2.160 1_455 S
C3 O4 1.302 . S
C3 O11 1.224 . S
O4 C3 1.302 . S
C5 O6 1.245 1_655 S
C5 O17 1.232 . S
O6 C5 1.245 1_455 S
O7 Co1 2.058 1_455 S
O7 C33 1.269 . S
O8 Co0 2.074 . S
O8 C33 1.257 . S
H9 C34 0.930 . S
H10 C40 0.930 . S
O11 Co0 2.093 . S
O11 C3 1.224 . S
H12 C44 0.929 . S
H13 C46 0.930 . S
H14 C47 0.930 . S
H15 C45 0.929 . S
H16 C48 0.928 . S
O17 Co1 2.057 . S
O17 C5 1.232 . S
H18 C37 0.929 . S
H19 C38 0.929 . S
H20 C50 0.931 . S
H21 C42 0.929 . S
H22 C51 0.930 . S
H23 C43 0.931 . S
O24 Co0 2.097 . S
O24 C52 1.214 1_455 S
H25 C53 0.929 . S
H26 C54 0.929 . S
H27 C55 0.930 . S
H28 C56 0.929 . S
H29 C58 0.930 . S
H30 C35 0.930 . S
H31 C39 0.930 . S
O32 Co1 2.037 . S
O32 C52 1.234 . S
C33 O7 1.269 . S
C33 O8 1.257 . S
C34 H9 0.930 . S
C34 C37 1.388 . S
C34 C39 1.418 . S
C35 H30 0.930 . S
C35 C38 1.404 . S
C35 C39 1.353 . S
N36 Co1 2.145 . S
N36 C37 1.397 . S
N36 C38 1.334 . S
C37 H18 0.929 . S
C37 C34 1.388 . S
C37 N36 1.397 . S
C38 H19 0.929 . S
C38 C35 1.404 . S
C38 N36 1.334 . S
C39 H31 0.930 . S
C39 C34 1.418 . S
C39 C35 1.353 . S
C40 H10 0.930 . S
C40 N41 1.330 . S
C40 C42 1.446 . S
N41 Co0 2.151 . S
N41 C40 1.330 . S
N41 C45 1.418 . S
C42 H21 0.929 . S
C42 C40 1.446 . S
C42 C43 1.332 . S
C43 H23 0.931 . S
C43 C42 1.332 . S
C43 C44 1.267 . S
C44 H12 0.929 . S
C44 C43 1.267 . S
C44 C45 1.251 . S
C45 H15 0.929 . S
C45 N41 1.418 . S
C45 C44 1.251 . S
C46 H13 0.930 . S
C46 C48 1.406 . S
C46 C51 1.261 . S
C47 H14 0.930 . S
C47 N49 1.325 . S
C47 C50 1.357 . S
C48 H16 0.928 . S
C48 C46 1.406 . S
C48 N49 1.261 . S
N49 Co0 2.214 . S
N49 C47 1.325 . S
N49 C48 1.261 . S
C50 H20 0.931 . S
C50 C47 1.357 . S
C50 C51 1.312 . S
C51 H22 0.930 . S
C51 C46 1.261 . S
C51 C50 1.312 . S
C52 O24 1.214 1_655 S
C52 O32 1.234 . S
C53 H25 0.929 . S
C53 C56 1.391 . S
C53 C58 1.391 . S
C54 H26 0.929 . S
C54 C55 1.390 . S
C54 N57 1.391 . S
C55 H27 0.930 . S
C55 C54 1.390 . S
C55 C56 1.392 . S
C56 H28 0.929 . S
C56 C53 1.391 . S
C56 C55 1.392 . S
N57 Co1 2.257 . S
N57 C54 1.391 . S
N57 C58 1.388 . S
C58 H29 0.930 . S
C58 C53 1.391 . S
C58 N57 1.388 . S
Co59 O61 2.143 . S
Co59 O67 2.074 . S
Co59 O70 2.093 . S
Co59 O83 2.097 . S
Co59 N100 2.151 . S
Co59 N108 2.214 . S
Co60 O61 2.160 1_565 S
Co60 O66 2.058 1_565 S
Co60 O76 2.057 . S
Co60 O91 2.037 . S
Co60 N95 2.145 . S
Co60 N116 2.257 . S
O61 Co59 2.143 . S
O61 Co60 2.160 1_545 S
C62 O63 1.278 1_545 S
C62 O70 1.224 . S
O63 C62 1.278 1_565 S
C64 O65 1.245 1_565 S
C64 O76 1.232 . S
O65 C64 1.245 1_545 S
O66 Co60 2.058 1_545 S
O66 C92 1.269 . S
O67 Co59 2.074 . S
O67 C92 1.257 . S
H68 C93 0.930 . S
H69 C99 0.930 . S
O70 Co59 2.093 . S
O70 C62 1.224 . S
H71 C103 0.929 . S
H72 C105 0.930 . S
H73 C106 0.930 . S
H74 C104 0.929 . S
H75 C107 0.928 . S
O76 Co60 2.057 . S
O76 C64 1.232 . S
H77 C96 0.929 . S
H78 C97 0.929 . S
H79 C109 0.931 1_455 S
H80 C101 0.929 . S
H81 C110 0.930 . S
H82 C102 0.931 . S
O83 Co59 2.097 . S
O83 C111 1.214 1_545 S
H84 C112 0.929 . S
H85 C113 0.929 . S
H86 C114 0.930 . S
H87 C115 0.929 . S
H88 C117 0.930 . S
H89 C94 0.930 . S
H90 C98 0.930 . S
O91 Co60 2.037 . S
O91 C111 1.234 . S
C92 O66 1.269 . S
C92 O67 1.257 . S
C93 H68 0.930 . S
C93 C96 1.388 . S
C93 C98 1.418 . S
C94 H89 0.930 . S
C94 C97 1.404 . S
C94 C98 1.353 . S
N95 Co60 2.145 . S
N95 C96 1.397 . S
N95 C97 1.334 . S
C96 H77 0.929 . S
C96 C93 1.388 . S
C96 N95 1.397 . S
C97 H78 0.929 . S
C97 C94 1.404 . S
C97 N95 1.334 . S
C98 H90 0.930 . S
C98 C93 1.418 . S
C98 C94 1.353 . S
C99 H69 0.930 . S
C99 N100 1.330 . S
C99 C101 1.446 . S
N100 Co59 2.151 . S
N100 C99 1.330 . S
N100 C104 1.418 . S
C101 H80 0.929 . S
C101 C99 1.446 . S
C101 C102 1.332 . S
C102 H82 0.931 . S
C102 C101 1.332 . S
C102 C103 1.267 . S
C103 H71 0.929 . S
C103 C102 1.267 . S
C103 C104 1.251 . S
C104 H74 0.929 . S
C104 N100 1.418 . S
C104 C103 1.251 . S
C105 H72 0.930 . S
C105 C107 1.406 . S
C105 C110 1.261 1_655 S
C106 H73 0.930 . S
C106 N108 1.325 . S
C106 C109 1.357 . S
C107 H75 0.928 . S
C107 C105 1.406 . S
C107 N108 1.261 . S
N108 Co59 2.214 . S
N108 C106 1.325 . S
N108 C107 1.261 . S
C109 H79 0.931 1_655 S
C109 C106 1.357 . S
C109 C110 1.312 1_655 S
C110 H81 0.930 . S
C110 C105 1.261 1_455 S
C110 C109 1.312 1_455 S
C111 O83 1.214 1_565 S
C111 O91 1.234 . S
C112 H84 0.929 . S
C112 C115 1.391 . S
C112 C117 1.391 . S
C113 H85 0.929 . S
C113 C114 1.390 . S
C113 N116 1.391 . S
C114 H86 0.930 . S
C114 C113 1.390 . S
C114 C115 1.392 . S
C115 H87 0.929 . S
C115 C112 1.391 . S
C115 C114 1.392 . S
N116 Co60 2.257 . S
N116 C113 1.391 . S
N116 C117 1.388 . S
C117 H88 0.930 . S
C117 C112 1.391 . S
C117 N116 1.388 . S
Co118 O120 2.143 . S
Co118 O126 2.074 . S
Co118 O129 2.093 . S
Co118 O142 2.097 . S
Co118 N159 2.151 . S
Co118 N167 2.214 . S
Co119 O120 2.160 . S
Co119 O125 2.058 . S
Co119 O135 2.057 . S
Co119 O150 2.037 . S
Co119 N154 2.145 . S
Co119 N175 2.257 . S
O120 Co118 2.143 . S
O120 Co119 2.160 . S
C121 O122 1.278 . S
C121 O129 1.224 . S
O122 C121 1.278 . S
C123 O124 1.245 . S
C123 O135 1.232 . S
O124 C123 1.245 . S
O125 Co119 2.058 . S
O125 C151 1.269 . S
O126 Co118 2.074 . S
O126 C151 1.257 . S
H127 C152 0.930 . S
H128 C158 0.930 . S
O129 Co118 2.093 . S
O129 C121 1.224 . S
H130 C162 0.929 . S
H131 C164 0.930 . S
H132 C165 0.930 . S
H133 C163 0.929 . S
H134 C166 0.928 . S
O135 Co119 2.057 . S
O135 C123 1.232 . S
H136 C155 0.929 . S
H137 C156 0.929 . S
H138 C168 0.931 1_545 S
H139 C160 0.929 . S
H140 C169 0.930 . S
H141 C161 0.931 . S
O142 Co118 2.097 . S
O142 C170 1.214 . S
H143 C171 0.929 . S
H144 C172 0.929 . S
H145 C173 0.930 . S
H146 C174 0.929 . S
H147 C176 0.930 . S
H148 C153 0.930 . S
H149 C157 0.930 . S
O150 Co119 2.037 . S
O150 C170 1.234 . S
C151 O125 1.269 . S
C151 O126 1.257 . S
C152 H127 0.930 . S
C152 C155 1.388 . S
C152 C157 1.418 . S
C153 H148 0.930 . S
C153 C156 1.404 . S
C153 C157 1.353 . S
N154 Co119 2.145 . S
N154 C155 1.397 . S
N154 C156 1.334 . S
C155 H136 0.929 . S
C155 C152 1.388 . S
C155 N154 1.397 . S
C156 H137 0.929 . S
C156 C153 1.404 . S
C156 N154 1.334 . S
C157 H149 0.930 . S
C157 C152 1.418 . S
C157 C153 1.353 . S
C158 H128 0.930 . S
C158 N159 1.330 . S
C158 C160 1.446 . S
N159 Co118 2.151 . S
N159 C158 1.330 . S
N159 C163 1.418 . S
C160 H139 0.929 . S
C160 C158 1.446 . S
C160 C161 1.332 . S
C161 H141 0.931 . S
C161 C160 1.332 . S
C161 C162 1.267 . S
C162 H130 0.929 . S
C162 C161 1.267 . S
C162 C163 1.251 . S
C163 H133 0.929 . S
C163 N159 1.418 . S
C163 C162 1.251 . S
C164 H131 0.930 . S
C164 C166 1.406 . S
C164 C169 1.261 1_565 S
C165 H132 0.930 . S
C165 N167 1.325 . S
C165 C168 1.357 . S
C166 H134 0.928 . S
C166 C164 1.406 . S
C166 N167 1.261 . S
N167 Co118 2.214 . S
N167 C165 1.325 . S
N167 C166 1.261 . S
C168 H138 0.931 1_565 S
C168 C165 1.357 . S
C168 C169 1.312 1_565 S
C169 H140 0.930 . S
C169 C164 1.261 1_545 S
C169 C168 1.312 1_545 S
C170 O142 1.214 . S
C170 O150 1.234 . S
C171 H143 0.929 . S
C171 C174 1.391 . S
C171 C176 1.391 . S
C172 H144 0.929 . S
C172 C173 1.390 . S
C172 N175 1.391 . S
C173 H145 0.930 . S
C173 C172 1.390 . S
C173 C174 1.392 . S
C174 H146 0.929 . S
C174 C171 1.391 . S
C174 C173 1.392 . S
N175 Co119 2.257 . S
N175 C172 1.391 . S
N175 C176 1.388 . S
C176 H147 0.930 . S
C176 C171 1.391 . S
C176 N175 1.388 . S
Co177 O179 2.143 . S
Co177 O185 2.074 . S
Co177 O188 2.093 . S
Co177 O201 2.097 . S
Co177 N218 2.151 . S
Co177 N226 2.214 . S
Co178 O179 2.160 1_455 S
Co178 O184 2.058 1_455 S
Co178 O194 2.057 . S
Co178 O209 2.037 . S
Co178 N213 2.145 . S
Co178 N234 2.257 . S
O179 Co177 2.143 . S
O179 Co178 2.160 1_655 S
C180 O181 1.278 1_655 S
C180 O188 1.224 . S
O181 C180 1.278 1_455 S
C182 O183 1.245 1_455 S
C182 O194 1.232 . S
O183 C182 1.245 1_655 S
O184 Co178 2.058 1_655 S
O184 C210 1.269 . S
O185 Co177 2.074 . S
O185 C210 1.257 . S
H186 C211 0.930 . S
H187 C217 0.930 . S
O188 Co177 2.093 . S
O188 C180 1.224 . S
H189 C221 0.929 . S
H190 C223 0.930 . S
H191 C224 0.930 . S
H192 C222 0.929 . S
H193 C225 0.928 . S
O194 Co178 2.057 . S
O194 C182 1.232 . S
H195 C214 0.929 . S
H196 C215 0.929 . S
H197 C227 0.931 . S
H198 C219 0.929 . S
H199 C228 0.930 . S
H200 C220 0.931 . S
O201 Co177 2.097 . S
O201 C229 1.214 1_655 S
H202 C230 0.929 . S
H203 C231 0.929 . S
H204 C232 0.930 . S
H205 C233 0.929 . S
H206 C235 0.930 . S
H207 C212 0.930 . S
H208 C216 0.930 . S
O209 Co178 2.037 . S
O209 C229 1.234 . S
C210 O184 1.269 . S
C210 O185 1.257 . S
C211 H186 0.930 . S
C211 C214 1.388 . S
C211 C216 1.418 . S
C212 H207 0.930 . S
C212 C215 1.404 . S
C212 C216 1.353 . S
N213 Co178 2.145 . S
N213 C214 1.397 . S
N213 C215 1.334 . S
C214 H195 0.929 . S
C214 C211 1.388 . S
C214 N213 1.397 . S
C215 H196 0.929 . S
C215 C212 1.404 . S
C215 N213 1.334 . S
C216 H208 0.930 . S
C216 C211 1.418 . S
C216 C212 1.353 . S
C217 H187 0.930 . S
C217 N218 1.330 . S
C217 C219 1.446 . S
N218 Co177 2.151 . S
N218 C217 1.330 . S
N218 C222 1.418 . S
C219 H198 0.929 . S
C219 C217 1.446 . S
C219 C220 1.332 . S
C220 H200 0.931 . S
C220 C219 1.332 . S
C220 C221 1.267 . S
C221 H189 0.929 . S
C221 C220 1.267 . S
C221 C222 1.251 . S
C222 H192 0.929 . S
C222 N218 1.418 . S
C222 C221 1.251 . S
C223 H190 0.930 . S
C223 C225 1.406 . S
C223 C228 1.261 . S
C224 H191 0.930 . S
C224 N226 1.325 . S
C224 C227 1.357 . S
C225 H193 0.928 . S
C225 C223 1.406 . S
C225 N226 1.261 . S
N226 Co177 2.214 . S
N226 C224 1.325 . S
N226 C225 1.261 . S
C227 H197 0.931 . S
C227 C224 1.357 . S
C227 C228 1.312 . S
C228 H199 0.930 . S
C228 C223 1.261 . S
C228 C227 1.312 . S
C229 O201 1.214 1_455 S
C229 O209 1.234 . S
C230 H202 0.929 . S
C230 C233 1.391 . S
C230 C235 1.391 . S
C231 H203 0.929 . S
C231 C232 1.390 . S
C231 N234 1.391 . S
C232 H204 0.930 . S
C232 C231 1.390 . S
C232 C233 1.392 . S
C233 H205 0.929 . S
C233 C230 1.391 . S
C233 C232 1.392 . S
N234 Co178 2.257 . S
N234 C231 1.391 . S
N234 C235 1.388 . S
C235 H206 0.930 . S
C235 C230 1.391 . S
C235 N234 1.388 . S
Co236 O238 2.143 . S
Co236 O244 2.074 . S
Co236 O247 2.093 . S
Co236 O260 2.097 . S
Co236 N277 2.151 . S
Co236 N285 2.214 . S
Co237 O238 2.160 1_545 S
Co237 O243 2.058 1_545 S
Co237 O253 2.057 . S
Co237 O268 2.037 . S
Co237 N272 2.145 . S
Co237 N293 2.257 . S
O238 Co236 2.143 . S
O238 Co237 2.160 1_565 S
C239 O240 1.278 1_565 S
C239 O247 1.224 . S
O240 C239 1.278 1_545 S
C241 O242 1.245 1_545 S
C241 O253 1.232 . S
O242 C241 1.245 1_565 S
O243 Co237 2.058 1_565 S
O243 C269 1.269 . S
O244 Co236 2.074 . S
O244 C269 1.257 . S
H245 C270 0.930 . S
H246 C276 0.930 . S
O247 Co236 2.093 . S
O247 C239 1.224 . S
H248 C280 0.929 . S
H249 C282 0.930 . S
H250 C283 0.930 . S
H251 C281 0.929 . S
H252 C284 0.928 . S
O253 Co237 2.057 . S
O253 C241 1.232 . S
H254 C273 0.929 . S
H255 C274 0.929 . S
H256 C286 0.931 1_655 S
H257 C278 0.929 . S
H258 C287 0.930 . S
H259 C279 0.931 . S
O260 Co236 2.097 . S
O260 C288 1.214 1_565 S
H261 C289 0.929 . S
H262 C290 0.929 . S
H263 C291 0.930 . S
H264 C292 0.929 . S
H265 C294 0.930 . S
H266 C271 0.930 . S
H267 C275 0.930 . S
O268 Co237 2.037 . S
O268 C288 1.234 . S
C269 O243 1.269 . S
C269 O244 1.257 . S
C270 H245 0.930 . S
C270 C273 1.388 . S
C270 C275 1.418 . S
C271 H266 0.930 . S
C271 C274 1.404 . S
C271 C275 1.353 . S
N272 Co237 2.145 . S
N272 C273 1.397 . S
N272 C274 1.334 . S
C273 H254 0.929 . S
C273 C270 1.388 . S
C273 N272 1.397 . S
C274 H255 0.929 . S
C274 C271 1.404 . S
C274 N272 1.334 . S
C275 H267 0.930 . S
C275 C270 1.418 . S
C275 C271 1.353 . S
C276 H246 0.930 . S
C276 N277 1.330 . S
C276 C278 1.446 . S
N277 Co236 2.151 . S
N277 C276 1.330 . S
N277 C281 1.418 . S
C278 H257 0.929 . S
C278 C276 1.446 . S
C278 C279 1.332 . S
C279 H259 0.931 . S
C279 C278 1.332 . S
C279 C280 1.267 . S
C280 H248 0.929 . S
C280 C279 1.267 . S
C280 C281 1.251 . S
C281 H251 0.929 . S
C281 N277 1.418 . S
C281 C280 1.251 . S
C282 H249 0.930 . S
C282 C284 1.406 . S
C282 C287 1.261 1_455 S
C283 H250 0.930 . S
C283 N285 1.325 . S
C283 C286 1.357 . S
C284 H252 0.928 . S
C284 C282 1.406 . S
C284 N285 1.261 . S
N285 Co236 2.214 . S
N285 C283 1.325 . S
N285 C284 1.261 . S
C286 H256 0.931 1_455 S
C286 C283 1.357 . S
C286 C287 1.312 1_455 S
C287 H258 0.930 . S
C287 C282 1.261 1_655 S
C287 C286 1.312 1_655 S
C288 O260 1.214 1_545 S
C288 O268 1.234 . S
C289 H261 0.929 . S
C289 C292 1.391 . S
C289 C294 1.391 . S
C290 H262 0.929 . S
C290 C291 1.390 . S
C290 N293 1.391 . S
C291 H263 0.930 . S
C291 C290 1.390 . S
C291 C292 1.392 . S
C292 H264 0.929 . S
C292 C289 1.391 . S
C292 C291 1.392 . S
N293 Co237 2.257 . S
N293 C290 1.391 . S
N293 C294 1.388 . S
C294 H265 0.930 . S
C294 C289 1.391 . S
C294 N293 1.388 . S
Co295 O297 2.143 . S
Co295 O303 2.074 . S
Co295 O306 2.093 . S
Co295 O319 2.097 . S
Co295 N336 2.151 . S
Co295 N344 2.214 . S
Co296 O297 2.160 . S
Co296 O302 2.058 . S
Co296 O312 2.057 . S
Co296 O327 2.037 . S
Co296 N331 2.145 . S
Co296 N352 2.257 . S
O297 Co295 2.143 . S
O297 Co296 2.160 . S
C298 O299 1.278 . S
C298 O306 1.224 . S
O299 C298 1.278 . S
C300 O301 1.245 . S
C300 O312 1.232 . S
O301 C300 1.245 . S
O302 Co296 2.058 . S
O302 C328 1.269 . S
O303 Co295 2.074 . S
O303 C328 1.257 . S
H304 C329 0.930 . S
H305 C335 0.930 . S
O306 Co295 2.093 . S
O306 C298 1.224 . S
H307 C339 0.929 . S
H308 C341 0.930 . S
H309 C342 0.930 . S
H310 C340 0.929 . S
H311 C343 0.928 . S
O312 Co296 2.057 . S
O312 C300 1.232 . S
H313 C332 0.929 . S
H314 C333 0.929 . S
H315 C345 0.931 1_565 S
H316 C337 0.929 . S
H317 C346 0.930 . S
H318 C338 0.931 . S
O319 Co295 2.097 . S
O319 C347 1.214 . S
H320 C348 0.929 . S
H321 C349 0.929 . S
H322 C350 0.930 . S
H323 C351 0.929 . S
H324 C353 0.930 . S
H325 C330 0.930 . S
H326 C334 0.930 . S
O327 Co296 2.037 . S
O327 C347 1.234 . S
C328 O302 1.269 . S
C328 O303 1.257 . S
C329 H304 0.930 . S
C329 C332 1.388 . S
C329 C334 1.418 . S
C330 H325 0.930 . S
C330 C333 1.404 . S
C330 C334 1.353 . S
N331 Co296 2.145 . S
N331 C332 1.397 . S
N331 C333 1.334 . S
C332 H313 0.929 . S
C332 C329 1.388 . S
C332 N331 1.397 . S
C333 H314 0.929 . S
C333 C330 1.404 . S
C333 N331 1.334 . S
C334 H326 0.930 . S
C334 C329 1.418 . S
C334 C330 1.353 . S
C335 H305 0.930 . S
C335 N336 1.330 . S
C335 C337 1.446 . S
N336 Co295 2.151 . S
N336 C335 1.330 . S
N336 C340 1.418 . S
C337 H316 0.929 . S
C337 C335 1.446 . S
C337 C338 1.332 . S
C338 H318 0.931 . S
C338 C337 1.332 . S
C338 C339 1.267 . S
C339 H307 0.929 . S
C339 C338 1.267 . S
C339 C340 1.251 . S
C340 H310 0.929 . S
C340 N336 1.418 . S
C340 C339 1.251 . S
C341 H308 0.930 . S
C341 C343 1.406 . S
C341 C346 1.261 1_545 S
C342 H309 0.930 . S
C342 N344 1.325 . S
C342 C345 1.357 . S
C343 H311 0.928 . S
C343 C341 1.406 . S
C343 N344 1.261 . S
N344 Co295 2.214 . S
N344 C342 1.325 . S
N344 C343 1.261 . S
C345 H315 0.931 1_545 S
C345 C342 1.357 . S
C345 C346 1.312 1_545 S
C346 H317 0.930 . S
C346 C341 1.261 1_565 S
C346 C345 1.312 1_565 S
C347 O319 1.214 . S
C347 O327 1.234 . S
C348 H320 0.929 . S
C348 C351 1.391 . S
C348 C353 1.391 . S
C349 H321 0.929 . S
C349 C350 1.390 . S
C349 N352 1.391 . S
C350 H322 0.930 . S
C350 C349 1.390 . S
C350 C351 1.392 . S
C351 H323 0.929 . S
C351 C348 1.391 . S
C351 C350 1.392 . S
N352 Co296 2.257 . S
N352 C349 1.391 . S
N352 C353 1.388 . S
C353 H324 0.930 . S
C353 C348 1.391 . S
C353 N352 1.388 . S
Co354 O356 2.143 . S
Co354 O362 2.074 . S
Co354 O365 2.093 . S
Co354 O378 2.097 . S
Co354 N395 2.151 . S
Co354 N403 2.214 . S
Co355 O356 2.160 1_545 S
Co355 O361 2.058 1_545 S
Co355 O371 2.057 . S
Co355 O386 2.037 . S
Co355 N390 2.145 . S
Co355 N411 2.257 . S
O356 Co354 2.143 . S
O356 Co355 2.160 1_565 S
C357 O358 1.278 1_565 S
C357 O365 1.224 . S
O358 C357 1.278 1_545 S
C359 O360 1.245 1_545 S
C359 O371 1.232 . S
O360 C359 1.245 1_565 S
O361 Co355 2.058 1_565 S
O361 C387 1.269 . S
O362 Co354 2.074 . S
O362 C387 1.257 . S
H363 C388 0.930 . S
H364 C394 0.930 . S
O365 Co354 2.093 . S
O365 C357 1.224 . S
H366 C398 0.929 . S
H367 C400 0.930 . S
H368 C401 0.930 . S
H369 C399 0.929 . S
H370 C402 0.928 . S
O371 Co355 2.057 . S
O371 C359 1.232 . S
H372 C391 0.929 . S
H373 C392 0.929 . S
H374 C404 0.931 . S
H375 C396 0.929 . S
H376 C405 0.930 . S
H377 C397 0.931 . S
O378 Co354 2.097 . S
O378 C406 1.214 1_565 S
H379 C407 0.929 . S
H380 C408 0.929 . S
H381 C409 0.930 . S
H382 C410 0.929 . S
H383 C412 0.930 . S
H384 C389 0.930 . S
H385 C393 0.930 . S
O386 Co355 2.037 . S
O386 C406 1.234 . S
C387 O361 1.269 . S
C387 O362 1.257 . S
C388 H363 0.930 . S
C388 C391 1.388 . S
C388 C393 1.418 . S
C389 H384 0.930 . S
C389 C392 1.404 . S
C389 C393 1.353 . S
N390 Co355 2.145 . S
N390 C391 1.397 . S
N390 C392 1.334 . S
C391 H372 0.929 . S
C391 C388 1.388 . S
C391 N390 1.397 . S
C392 H373 0.929 . S
C392 C389 1.404 . S
C392 N390 1.334 . S
C393 H385 0.930 . S
C393 C388 1.418 . S
C393 C389 1.353 . S
C394 H364 0.930 . S
C394 N395 1.330 . S
C394 C396 1.446 . S
N395 Co354 2.151 . S
N395 C394 1.330 . S
N395 C399 1.418 . S
C396 H375 0.929 . S
C396 C394 1.446 . S
C396 C397 1.332 . S
C397 H377 0.931 . S
C397 C396 1.332 . S
C397 C398 1.267 . S
C398 H366 0.929 . S
C398 C397 1.267 . S
C398 C399 1.251 . S
C399 H369 0.929 . S
C399 N395 1.418 . S
C399 C398 1.251 . S
C400 H367 0.930 . S
C400 C402 1.406 . S
C400 C405 1.261 . S
C401 H368 0.930 . S
C401 N403 1.325 . S
C401 C404 1.357 . S
C402 H370 0.928 . S
C402 C400 1.406 . S
C402 N403 1.261 . S
N403 Co354 2.214 . S
N403 C401 1.325 . S
N403 C402 1.261 . S
C404 H374 0.931 . S
C404 C401 1.357 . S
C404 C405 1.312 . S
C405 H376 0.930 . S
C405 C400 1.261 . S
C405 C404 1.312 . S
C406 O378 1.214 1_545 S
C406 O386 1.234 . S
C407 H379 0.929 . S
C407 C410 1.391 . S
C407 C412 1.391 . S
C408 H380 0.929 . S
C408 C409 1.390 . S
C408 N411 1.391 . S
C409 H381 0.930 . S
C409 C408 1.390 . S
C409 C410 1.392 . S
C410 H382 0.929 . S
C410 C407 1.391 . S
C410 C409 1.392 . S
N411 Co355 2.257 . S
N411 C408 1.391 . S
N411 C412 1.388 . S
C412 H383 0.930 . S
C412 C407 1.391 . S
C412 N411 1.388 . S
Co413 O415 2.143 . S
Co413 O421 2.074 . S
Co413 O424 2.093 . S
Co413 O437 2.097 . S
Co413 N454 2.151 . S
Co413 N462 2.214 . S
Co414 O415 2.160 . S
Co414 O420 2.058 . S
Co414 O430 2.057 . S
Co414 O445 2.037 . S
Co414 N449 2.145 . S
Co414 N470 2.257 . S
O415 Co413 2.143 . S
O415 Co414 2.160 . S
C416 O417 1.278 . S
C416 O424 1.224 . S
O417 C416 1.278 . S
C418 O419 1.245 . S
C418 O430 1.232 . S
O419 C418 1.245 . S
O420 Co414 2.058 . S
O420 C446 1.269 . S
O421 Co413 2.074 . S
O421 C446 1.257 . S
H422 C447 0.930 . S
H423 C453 0.930 . S
O424 Co413 2.093 . S
O424 C416 1.224 . S
H425 C457 0.929 . S
H426 C459 0.930 1_455 S
H427 C460 0.930 . S
H428 C458 0.929 . S
H429 C461 0.928 . S
O430 Co414 2.057 . S
O430 C418 1.232 . S
H431 C450 0.929 . S
H432 C451 0.929 . S
H433 C463 0.931 . S
H434 C455 0.929 . S
H435 C464 0.930 . S
H436 C456 0.931 . S
O437 Co413 2.097 . S
O437 C465 1.214 . S
H438 C466 0.929 . S
H439 C467 0.929 . S
H440 C468 0.930 . S
H441 C469 0.929 . S
H442 C471 0.930 . S
H443 C448 0.930 . S
H444 C452 0.930 . S
O445 Co414 2.037 . S
O445 C465 1.234 . S
C446 O420 1.269 . S
C446 O421 1.257 . S
C447 H422 0.930 . S
C447 C450 1.388 . S
C447 C452 1.418 . S
C448 H443 0.930 . S
C448 C451 1.404 . S
C448 C452 1.353 . S
N449 Co414 2.145 . S
N449 C450 1.397 . S
N449 C451 1.334 . S
C450 H431 0.929 . S
C450 C447 1.388 . S
C450 N449 1.397 . S
C451 H432 0.929 . S
C451 C448 1.404 . S
C451 N449 1.334 . S
C452 H444 0.930 . S
C452 C447 1.418 . S
C452 C448 1.353 . S
C453 H423 0.930 . S
C453 N454 1.330 . S
C453 C455 1.446 . S
N454 Co413 2.151 . S
N454 C453 1.330 . S
N454 C458 1.418 . S
C455 H434 0.929 . S
C455 C453 1.446 . S
C455 C456 1.332 . S
C456 H436 0.931 . S
C456 C455 1.332 . S
C456 C457 1.267 . S
C457 H425 0.929 . S
C457 C456 1.267 . S
C457 C458 1.251 . S
C458 H428 0.929 . S
C458 N454 1.418 . S
C458 C457 1.251 . S
C459 H426 0.930 1_655 S
C459 C461 1.406 . S
C459 C464 1.261 1_655 S
C460 H427 0.930 . S
C460 N462 1.325 . S
C460 C463 1.357 1_655 S
C461 H429 0.928 . S
C461 C459 1.406 . S
C461 N462 1.261 . S
N462 Co413 2.214 . S
N462 C460 1.325 . S
N462 C461 1.261 . S
C463 H433 0.931 . S
C463 C460 1.357 1_455 S
C463 C464 1.312 . S
C464 H435 0.930 . S
C464 C459 1.261 1_455 S
C464 C463 1.312 . S
C465 O437 1.214 . S
C465 O445 1.234 . S
C466 H438 0.929 . S
C466 C469 1.391 . S
C466 C471 1.391 . S
C467 H439 0.929 . S
C467 C468 1.390 . S
C467 N470 1.391 . S
C468 H440 0.930 . S
C468 C467 1.390 . S
C468 C469 1.392 . S
C469 H441 0.929 . S
C469 C466 1.391 . S
C469 C468 1.392 . S
N470 Co414 2.257 . S
N470 C467 1.391 . S
N470 C471 1.388 . S
C471 H442 0.930 . S
C471 C466 1.391 . S
C471 N470 1.388 . S
Co472 O474 2.146 . S
Co472 O480 2.074 . S
Co472 O483 2.093 . S
Co472 O496 2.097 1_455 S
Co472 N513 2.151 . S
Co472 N521 2.214 . S
Co473 O474 2.152 1_655 S
Co473 O479 2.058 1_655 S
Co473 O489 2.057 . S
Co473 O504 2.037 . S
Co473 N508 2.145 . S
Co473 N529 2.257 . S
O474 Co472 2.146 . S
O474 Co473 2.152 1_455 S
C475 O476 1.278 1_455 S
C475 O483 1.224 . S
O476 C475 1.278 1_655 S
C477 O478 1.245 1_655 S
C477 O489 1.232 . S
O478 C477 1.245 1_455 S
O479 Co473 2.058 1_455 S
O479 C505 1.269 . S
O480 Co472 2.074 . S
O480 C505 1.257 . S
H481 C506 0.930 . S
H482 C512 0.930 . S
O483 Co472 2.093 . S
O483 C475 1.224 . S
H484 C516 0.929 . S
H485 C518 0.930 . S
H486 C519 0.930 . S
H487 C517 0.929 . S
H488 C520 0.928 . S
O489 Co473 2.057 . S
O489 C477 1.232 . S
H490 C509 0.929 . S
H491 C510 0.929 . S
H492 C522 0.931 1_545 S
H493 C514 0.929 . S
H494 C523 0.930 . S
H495 C515 0.931 . S
O496 Co472 2.097 1_655 S
O496 C524 1.214 . S
H497 C525 0.929 . S
H498 C526 0.929 . S
H499 C527 0.930 . S
H500 C528 0.929 . S
H501 C530 0.930 . S
H502 C507 0.930 . S
H503 C511 0.930 . S
O504 Co473 2.037 . S
O504 C524 1.234 . S
C505 O479 1.269 . S
C505 O480 1.257 . S
C506 H481 0.930 . S
C506 C509 1.388 . S
C506 C511 1.418 . S
C507 H502 0.930 . S
C507 C510 1.404 . S
C507 C511 1.353 . S
N508 Co473 2.145 . S
N508 C509 1.397 . S
N508 C510 1.334 . S
C509 H490 0.929 . S
C509 C506 1.388 . S
C509 N508 1.397 . S
C510 H491 0.929 . S
C510 C507 1.404 . S
C510 N508 1.334 . S
C511 H503 0.930 . S
C511 C506 1.418 . S
C511 C507 1.353 . S
C512 H482 0.930 . S
C512 N513 1.330 . S
C512 C514 1.446 . S
N513 Co472 2.151 . S
N513 C512 1.330 . S
N513 C517 1.418 . S
C514 H493 0.929 . S
C514 C512 1.446 . S
C514 C515 1.332 . S
C515 H495 0.931 . S
C515 C514 1.332 . S
C515 C516 1.267 . S
C516 H484 0.929 . S
C516 C515 1.267 . S
C516 C517 1.251 . S
C517 H487 0.929 . S
C517 N513 1.418 . S
C517 C516 1.251 . S
C518 H485 0.930 . S
C518 C520 1.406 . S
C518 C523 1.261 1_565 S
C519 H486 0.930 . S
C519 N521 1.325 . S
C519 C522 1.357 . S
C520 H488 0.928 . S
C520 C518 1.406 . S
C520 N521 1.261 . S
N521 Co472 2.214 . S
N521 C519 1.325 . S
N521 C520 1.261 . S
C522 H492 0.931 1_565 S
C522 C519 1.357 . S
C522 C523 1.312 1_565 S
C523 H494 0.930 . S
C523 C518 1.261 1_545 S
C523 C522 1.312 1_545 S
C524 O496 1.214 . S
C524 O504 1.234 . S
C525 H497 0.929 . S
C525 C528 1.391 . S
C525 C530 1.391 . S
C526 H498 0.929 . S
C526 C527 1.390 . S
C526 N529 1.391 . S
C527 H499 0.930 . S
C527 C526 1.390 . S
C527 C528 1.392 . S
C528 H500 0.929 . S
C528 C525 1.391 . S
C528 C527 1.392 . S
N529 Co473 2.257 . S
N529 C526 1.391 . S
N529 C530 1.388 . S
C530 H501 0.930 . S
C530 C525 1.391 . S
C530 N529 1.388 . S
Co531 O533 2.143 . S
Co531 O539 2.074 . S
Co531 O542 2.093 . S
Co531 O555 2.097 . S
Co531 N572 2.151 . S
Co531 N580 2.214 . S
Co532 O533 2.160 1_565 S
Co532 O538 2.058 1_565 S
Co532 O548 2.057 . S
Co532 O563 2.037 . S
Co532 N567 2.145 . S
Co532 N588 2.257 . S
O533 Co531 2.143 . S
O533 Co532 2.160 1_545 S
C534 O535 1.278 1_545 S
C534 O542 1.224 . S
O535 C534 1.278 1_565 S
C536 O537 1.245 1_565 S
C536 O548 1.232 . S
O537 C536 1.245 1_545 S
O538 Co532 2.058 1_545 S
O538 C564 1.269 . S
O539 Co531 2.074 . S
O539 C564 1.257 . S
H540 C565 0.930 . S
H541 C571 0.930 . S
O542 Co531 2.093 . S
O542 C534 1.224 . S
H543 C575 0.929 . S
H544 C577 0.930 . S
H545 C578 0.930 . S
H546 C576 0.929 . S
H547 C579 0.928 . S
O548 Co532 2.057 . S
O548 C536 1.232 . S
H549 C568 0.929 . S
H550 C569 0.929 . S
H551 C581 0.931 . S
H552 C573 0.929 . S
H553 C582 0.930 . S
H554 C574 0.931 . S
O555 Co531 2.097 . S
O555 C583 1.214 1_545 S
H556 C584 0.929 . S
H557 C585 0.929 . S
H558 C586 0.930 . S
H559 C587 0.929 . S
H560 C589 0.930 . S
H561 C566 0.930 . S
H562 C570 0.930 . S
O563 Co532 2.037 . S
O563 C583 1.234 . S
C564 O538 1.269 . S
C564 O539 1.257 . S
C565 H540 0.930 . S
C565 C568 1.388 . S
C565 C570 1.418 . S
C566 H561 0.930 . S
C566 C569 1.404 . S
C566 C570 1.353 . S
N567 Co532 2.145 . S
N567 C568 1.397 . S
N567 C569 1.334 . S
C568 H549 0.929 . S
C568 C565 1.388 . S
C568 N567 1.397 . S
C569 H550 0.929 . S
C569 C566 1.404 . S
C569 N567 1.334 . S
C570 H562 0.930 . S
C570 C565 1.418 . S
C570 C566 1.353 . S
C571 H541 0.930 . S
C571 N572 1.330 . S
C571 C573 1.446 . S
N572 Co531 2.151 . S
N572 C571 1.330 . S
N572 C576 1.418 . S
C573 H552 0.929 . S
C573 C571 1.446 . S
C573 C574 1.332 . S
C574 H554 0.931 . S
C574 C573 1.332 . S
C574 C575 1.267 . S
C575 H543 0.929 . S
C575 C574 1.267 . S
C575 C576 1.251 . S
C576 H546 0.929 . S
C576 N572 1.418 . S
C576 C575 1.251 . S
C577 H544 0.930 . S
C577 C579 1.406 . S
C577 C582 1.261 . S
C578 H545 0.930 . S
C578 N580 1.325 . S
C578 C581 1.357 . S
C579 H547 0.928 . S
C579 C577 1.406 . S
C579 N580 1.261 . S
N580 Co531 2.214 . S
N580 C578 1.325 . S
N580 C579 1.261 . S
C581 H551 0.931 . S
C581 C578 1.357 . S
C581 C582 1.312 . S
C582 H553 0.930 . S
C582 C577 1.261 . S
C582 C581 1.312 . S
C583 O555 1.214 1_565 S
C583 O563 1.234 . S
C584 H556 0.929 . S
C584 C587 1.391 . S
C584 C589 1.391 . S
C585 H557 0.929 . S
C585 C586 1.390 . S
C585 N588 1.391 . S
C586 H558 0.930 . S
C586 C585 1.390 . S
C586 C587 1.392 . S
C587 H559 0.929 . S
C587 C584 1.391 . S
C587 C586 1.392 . S
N588 Co532 2.257 . S
N588 C585 1.391 . S
N588 C589 1.388 . S
C589 H560 0.930 . S
C589 C584 1.391 . S
C589 N588 1.388 . S
Co590 O592 2.143 . S
Co590 O598 2.074 . S
Co590 O601 2.093 . S
Co590 O614 2.097 . S
Co590 N631 2.151 . S
Co590 N639 2.214 . S
Co591 O592 2.160 . S
Co591 O597 2.058 . S
Co591 O607 2.057 . S
Co591 O622 2.037 . S
Co591 N626 2.145 . S
Co591 N647 2.257 . S
O592 Co590 2.143 . S
O592 Co591 2.160 . S
C593 O594 1.278 . S
C593 O601 1.224 . S
O594 C593 1.278 . S
C595 O596 1.245 . S
C595 O607 1.232 . S
O596 C595 1.245 . S
O597 Co591 2.058 . S
O597 C623 1.269 . S
O598 Co590 2.074 . S
O598 C623 1.257 . S
H599 C624 0.930 . S
H600 C630 0.930 . S
O601 Co590 2.093 . S
O601 C593 1.224 . S
H602 C634 0.929 . S
H603 C636 0.930 1_655 S
H604 C637 0.930 . S
H605 C635 0.929 . S
H606 C638 0.928 . S
O607 Co591 2.057 . S
O607 C595 1.232 . S
H608 C627 0.929 . S
H609 C628 0.929 . S
H610 C640 0.931 . S
H611 C632 0.929 . S
H612 C641 0.930 . S
H613 C633 0.931 . S
O614 Co590 2.097 . S
O614 C642 1.214 . S
H615 C643 0.929 . S
H616 C644 0.929 . S
H617 C645 0.930 . S
H618 C646 0.929 . S
H619 C648 0.930 . S
H620 C625 0.930 . S
H621 C629 0.930 . S
O622 Co591 2.037 . S
O622 C642 1.234 . S
C623 O597 1.269 . S
C623 O598 1.257 . S
C624 H599 0.930 . S
C624 C627 1.388 . S
C624 C629 1.418 . S
C625 H620 0.930 . S
C625 C628 1.404 . S
C625 C629 1.353 . S
N626 Co591 2.145 . S
N626 C627 1.397 . S
N626 C628 1.334 . S
C627 H608 0.929 . S
C627 C624 1.388 . S
C627 N626 1.397 . S
C628 H609 0.929 . S
C628 C625 1.404 . S
C628 N626 1.334 . S
C629 H621 0.930 . S
C629 C624 1.418 . S
C629 C625 1.353 . S
C630 H600 0.930 . S
C630 N631 1.330 . S
C630 C632 1.446 . S
N631 Co590 2.151 . S
N631 C630 1.330 . S
N631 C635 1.418 . S
C632 H611 0.929 . S
C632 C630 1.446 . S
C632 C633 1.332 . S
C633 H613 0.931 . S
C633 C632 1.332 . S
C633 C634 1.267 . S
C634 H602 0.929 . S
C634 C633 1.267 . S
C634 C635 1.251 . S
C635 H605 0.929 . S
C635 N631 1.418 . S
C635 C634 1.251 . S
C636 H603 0.930 1_455 S
C636 C638 1.406 . S
C636 C641 1.261 1_455 S
C637 H604 0.930 . S
C637 N639 1.325 . S
C637 C640 1.357 1_455 S
C638 H606 0.928 . S
C638 C636 1.406 . S
C638 N639 1.261 . S
N639 Co590 2.214 . S
N639 C637 1.325 . S
N639 C638 1.261 . S
C640 H610 0.931 . S
C640 C637 1.357 1_655 S
C640 C641 1.312 . S
C641 H612 0.930 . S
C641 C636 1.261 1_655 S
C641 C640 1.312 . S
C642 O614 1.214 . S
C642 O622 1.234 . S
C643 H615 0.929 . S
C643 C646 1.391 . S
C643 C648 1.391 . S
C644 H616 0.929 . S
C644 C645 1.390 . S
C644 N647 1.391 . S
C645 H617 0.930 . S
C645 C644 1.390 . S
C645 C646 1.392 . S
C646 H618 0.929 . S
C646 C643 1.391 . S
C646 C645 1.392 . S
N647 Co591 2.257 . S
N647 C644 1.391 . S
N647 C648 1.388 . S
C648 H619 0.930 . S
C648 C643 1.391 . S
C648 N647 1.388 . S
Co649 O651 2.148 . S
Co649 O657 2.074 . S
Co649 O660 2.093 . S
Co649 O673 2.097 1_655 S
Co649 N690 2.151 . S
Co649 N698 2.214 . S
Co650 O651 2.146 1_455 S
Co650 O656 2.058 1_455 S
Co650 O666 2.057 . S
Co650 O681 2.037 . S
Co650 N685 2.145 . S
Co650 N706 2.257 . S
O651 Co649 2.148 . S
O651 Co650 2.146 1_655 S
C652 O653 1.278 1_655 S
C652 O660 1.224 . S
O653 C652 1.278 1_455 S
C654 O655 1.245 1_455 S
C654 O666 1.232 . S
O655 C654 1.245 1_655 S
O656 Co650 2.058 1_655 S
O656 C682 1.269 . S
O657 Co649 2.074 . S
O657 C682 1.257 . S
H658 C683 0.930 . S
H659 C689 0.930 . S
O660 Co649 2.093 . S
O660 C652 1.224 . S
H661 C693 0.929 . S
H662 C695 0.930 . S
H663 C696 0.930 . S
H664 C694 0.929 . S
H665 C697 0.928 . S
O666 Co650 2.057 . S
O666 C654 1.232 . S
H667 C686 0.929 . S
H668 C687 0.929 . S
H669 C699 0.931 1_565 S
H670 C691 0.929 . S
H671 C700 0.930 . S
H672 C692 0.931 . S
O673 Co649 2.097 1_455 S
O673 C701 1.214 . S
H674 C702 0.929 . S
H675 C703 0.929 . S
H676 C704 0.930 . S
H677 C705 0.929 . S
H678 C707 0.930 . S
H679 C684 0.930 . S
H680 C688 0.930 . S
O681 Co650 2.037 . S
O681 C701 1.234 . S
C682 O656 1.269 . S
C682 O657 1.257 . S
C683 H658 0.930 . S
C683 C686 1.388 . S
C683 C688 1.418 . S
C684 H679 0.930 . S
C684 C687 1.404 . S
C684 C688 1.353 . S
N685 Co650 2.145 . S
N685 C686 1.397 . S
N685 C687 1.334 . S
C686 H667 0.929 . S
C686 C683 1.388 . S
C686 N685 1.397 . S
C687 H668 0.929 . S
C687 C684 1.404 . S
C687 N685 1.334 . S
C688 H680 0.930 . S
C688 C683 1.418 . S
C688 C684 1.353 . S
C689 H659 0.930 . S
C689 N690 1.330 . S
C689 C691 1.446 . S
N690 Co649 2.151 . S
N690 C689 1.330 . S
N690 C694 1.418 . S
C691 H670 0.929 . S
C691 C689 1.446 . S
C691 C692 1.332 . S
C692 H672 0.931 . S
C692 C691 1.332 . S
C692 C693 1.267 . S
C693 H661 0.929 . S
C693 C692 1.267 . S
C693 C694 1.251 . S
C694 H664 0.929 . S
C694 N690 1.418 . S
C694 C693 1.251 . S
C695 H662 0.930 . S
C695 C697 1.406 . S
C695 C700 1.261 1_545 S
C696 H663 0.930 . S
C696 N698 1.325 . S
C696 C699 1.357 . S
C697 H665 0.928 . S
C697 C695 1.406 . S
C697 N698 1.261 . S
N698 Co649 2.214 . S
N698 C696 1.325 . S
N698 C697 1.261 . S
C699 H669 0.931 1_545 S
C699 C696 1.357 . S
C699 C700 1.312 1_545 S
C700 H671 0.930 . S
C700 C695 1.261 1_565 S
C700 C699 1.312 1_565 S
C701 O673 1.214 . S
C701 O681 1.234 . S
C702 H674 0.929 . S
C702 C705 1.391 . S
C702 C707 1.391 . S
C703 H675 0.929 . S
C703 C704 1.390 . S
C703 N706 1.391 . S
C704 H676 0.930 . S
C704 C703 1.390 . S
C704 C705 1.392 . S
C705 H677 0.929 . S
C705 C702 1.391 . S
C705 C704 1.392 . S
N706 Co650 2.257 . S
N706 C703 1.391 . S
N706 C707 1.388 . S
C707 H678 0.930 . S
C707 C702 1.391 . S
C707 N706 1.388 . S
H708 C714 0.930 . S
H709 C718 0.930 . S
H710 C723 0.929 . S
H711 C721 0.929 . S
H712 C716 0.929 . S
H713 C722 0.929 . S
C714 H708 0.930 . S
C714 C715 1.367 1_455 S
C714 C722 1.378 . S
C715 C714 1.367 1_655 S
C715 C723 1.433 . S
C716 H712 0.929 . S
C716 C718 1.378 . S
C716 C720 1.350 1_655 S
C717 C720 1.463 . S
C717 C722 1.350 . S
C717 N725 1.427 1_455 S
C718 H709 0.930 . S
C718 C716 1.378 . S
C718 C719 1.367 1_655 S
C719 C718 1.367 1_455 S
C719 C721 1.433 . S
C720 C716 1.350 1_455 S
C720 C717 1.463 . S
C720 N724 1.427 . S
C721 H711 0.929 . S
C721 C719 1.433 . S
C721 N724 1.384 . S
C722 H713 0.929 . S
C722 C714 1.378 . S
C722 C717 1.350 . S
C723 H710 0.929 . S
C723 C715 1.433 . S
C723 N725 1.384 . S
N724 C720 1.427 . S
N724 C721 1.384 . S
N725 C717 1.427 1_655 S
N725 C723 1.384 . S
H726 C732 0.930 . S
H727 C736 0.930 . S
H728 C741 0.929 . S
H729 C739 0.929 . S
H730 C734 0.929 . S
H731 C740 0.929 . S
C732 H726 0.930 . S
C732 C733 1.367 1_565 S
C732 C740 1.378 . S
C733 C732 1.367 1_545 S
C733 C741 1.433 . S
C734 H730 0.929 . S
C734 C736 1.378 . S
C734 C738 1.350 1_545 S
C735 C738 1.464 . S
C735 C740 1.353 . S
C735 N743 1.423 1_565 S
C736 H727 0.930 . S
C736 C734 1.378 . S
C736 C737 1.367 1_545 S
C737 C736 1.367 1_565 S
C737 C739 1.433 . S
C738 C734 1.350 1_565 S
C738 C735 1.464 . S
C738 N742 1.427 . S
C739 H729 0.929 . S
C739 C737 1.433 . S
C739 N742 1.384 . S
C740 H731 0.929 . S
C740 C732 1.378 . S
C740 C735 1.353 . S
C741 H728 0.929 . S
C741 C733 1.433 . S
C741 N743 1.384 . S
N742 C738 1.427 . S
N742 C739 1.384 . S
N743 C735 1.423 1_545 S
N743 C741 1.384 . S
H744 C750 0.930 . S
H745 C754 0.930 . S
H746 C759 0.929 . S
H747 C757 0.929 . S
H748 C752 0.929 . S
H749 C758 0.929 . S
C750 H744 0.930 . S
C750 C751 1.367 . S
C750 C758 1.378 . S
C751 C750 1.367 . S
C751 C759 1.433 . S
C752 H748 0.929 . S
C752 C754 1.378 . S
C752 C756 1.350 . S
C753 C756 1.463 . S
C753 C758 1.350 . S
C753 N761 1.427 . S
C754 H745 0.930 . S
C754 C752 1.378 . S
C754 C755 1.367 . S
C755 C754 1.367 . S
C755 C757 1.433 . S
C756 C752 1.350 . S
C756 C753 1.463 . S
C756 N760 1.427 . S
C757 H747 0.929 . S
C757 C755 1.433 . S
C757 N760 1.384 . S
C758 H749 0.929 . S
C758 C750 1.378 . S
C758 C753 1.350 . S
C759 H746 0.929 . S
C759 C751 1.433 . S
C759 N761 1.384 . S
N760 C756 1.427 . S
N760 C757 1.384 . S
N761 C753 1.427 . S
N761 C759 1.384 . S
H762 C768 0.930 . S
H763 C772 0.930 . S
H764 C777 0.929 . S
H765 C775 0.929 . S
H766 C770 0.929 . S
H767 C776 0.929 . S
C768 H762 0.930 . S
C768 C769 1.367 1_455 S
C768 C776 1.378 . S
C769 C768 1.367 1_655 S
C769 C777 1.433 . S
C770 H766 0.929 . S
C770 C772 1.378 . S
C770 C774 1.350 . S
C771 C774 1.463 . S
C771 C776 1.350 1_655 S
C771 N779 1.427 . S
C772 H763 0.930 . S
C772 C770 1.378 . S
C772 C773 1.367 1_655 S
C773 C772 1.367 1_455 S
C773 C775 1.433 . S
C774 C770 1.350 . S
C774 C771 1.463 . S
C774 N778 1.427 1_655 S
C775 H765 0.929 . S
C775 C773 1.433 . S
C775 N778 1.384 . S
C776 H767 0.929 . S
C776 C768 1.378 . S
C776 C771 1.350 1_455 S
C777 H764 0.929 . S
C777 C769 1.433 . S
C777 N779 1.384 . S
N778 C774 1.427 1_455 S
N778 C775 1.384 . S
N779 C771 1.427 . S
N779 C777 1.384 . S
H780 C786 0.930 . S
H781 C790 0.930 . S
H782 C795 0.929 . S
H783 C793 0.929 . S
H784 C788 0.929 . S
H785 C794 0.929 . S
C786 H780 0.930 . S
C786 C787 1.367 1_565 S
C786 C794 1.378 . S
C787 C786 1.367 1_545 S
C787 C795 1.433 . S
C788 H784 0.929 . S
C788 C790 1.378 . S
C788 C792 1.350 . S
C789 C792 1.463 . S
C789 C794 1.350 1_545 S
C789 N797 1.427 . S
C790 H781 0.930 . S
C790 C788 1.378 . S
C790 C791 1.367 1_545 S
C791 C790 1.367 1_565 S
C791 C793 1.433 . S
C792 C788 1.350 . S
C792 C789 1.463 . S
C792 N796 1.427 1_545 S
C793 H783 0.929 . S
C793 C791 1.433 . S
C793 N796 1.384 . S
C794 H785 0.929 . S
C794 C786 1.378 . S
C794 C789 1.350 1_565 S
C795 H782 0.929 . S
C795 C787 1.433 . S
C795 N797 1.384 . S
N796 C792 1.427 1_565 S
N796 C793 1.384 . S
N797 C789 1.427 . S
N797 C795 1.384 . S
H798 C804 0.930 . S
H799 C808 0.930 . S
H800 C813 0.929 . S
H801 C811 0.929 . S
H802 C806 0.929 . S
H803 C812 0.929 . S
C804 H798 0.930 . S
C804 C805 1.367 . S
C804 C812 1.378 . S
C805 C804 1.367 . S
C805 C813 1.433 . S
C806 H802 0.929 . S
C806 C808 1.378 . S
C806 C810 1.350 . S
C807 C810 1.463 . S
C807 C812 1.350 . S
C807 N815 1.427 . S
C808 H799 0.930 . S
C808 C806 1.378 . S
C808 C809 1.367 . S
C809 C808 1.367 . S
C809 C811 1.433 . S
C810 C806 1.350 . S
C810 C807 1.463 . S
C810 N814 1.427 . S
C811 H801 0.929 . S
C811 C809 1.433 . S
C811 N814 1.384 . S
C812 H803 0.929 . S
C812 C804 1.378 . S
C812 C807 1.350 . S
C813 H800 0.929 . S
C813 C805 1.433 . S
C813 N815 1.384 . S
N814 C810 1.427 . S
N814 C811 1.384 . S
N815 C807 1.427 . S
N815 C813 1.384 . S
H816 C822 0.930 . S
H817 C826 0.930 . S
H818 C831 0.929 . S
H819 C829 0.929 . S
H820 C824 0.929 . S
H821 C830 0.929 . S
C822 H816 0.930 . S
C822 C823 1.367 . S
C822 C830 1.378 . S
C823 C822 1.367 . S
C823 C831 1.433 . S
C824 H820 0.929 . S
C824 C826 1.378 . S
C824 C828 1.350 . S
C825 C828 1.463 1_554 S
C825 C830 1.350 . S
C825 N833 1.427 . S
C826 H817 0.930 . S
C826 C824 1.378 . S
C826 C827 1.367 . S
C827 C826 1.367 . S
C827 C829 1.433 . S
C828 C824 1.350 . S
C828 C825 1.463 1_556 S
C828 N832 1.427 . S
C829 H819 0.929 . S
C829 C827 1.433 . S
C829 N832 1.384 . S
C830 H821 0.929 . S
C830 C822 1.378 . S
C830 C825 1.350 . S
C831 H818 0.929 . S
C831 C823 1.433 . S
C831 N833 1.384 . S
N832 C828 1.427 . S
N832 C829 1.384 . S
N833 C825 1.427 . S
N833 C831 1.384 . S
H834 C840 0.930 . S
H835 C844 0.930 . S
H836 C849 0.929 . S
H837 C847 0.929 . S
H838 C842 0.929 . S
H839 C848 0.929 . S
C840 H834 0.930 . S
C840 C841 1.367 . S
C840 C848 1.378 . S
C841 C840 1.367 . S
C841 C849 1.433 . S
C842 H838 0.929 . S
C842 C844 1.378 . S
C842 C846 1.350 . S
C843 C846 1.463 . S
C843 C848 1.350 . S
C843 N851 1.427 . S
C844 H835 0.930 . S
C844 C842 1.378 . S
C844 C845 1.367 . S
C845 C844 1.367 . S
C845 C847 1.433 . S
C846 C842 1.350 . S
C846 C843 1.463 . S
C846 N850 1.427 . S
C847 H837 0.929 . S
C847 C845 1.433 . S
C847 N850 1.384 . S
C848 H839 0.929 . S
C848 C840 1.378 . S
C848 C843 1.350 . S
C849 H836 0.929 . S
C849 C841 1.433 . S
C849 N851 1.384 . S
N850 C846 1.427 . S
N850 C847 1.384 . S
N851 C843 1.427 . S
N851 C849 1.384 . S
H852 C858 0.930 . S
H853 C862 0.930 . S
H854 C867 0.929 . S
H855 C865 0.929 . S
H856 C860 0.929 . S
H857 C866 0.929 . S
C858 H852 0.930 . S
C858 C859 1.367 . S
C858 C866 1.378 . S
C859 C858 1.367 . S
C859 C867 1.433 . S
C860 H856 0.929 . S
C860 C862 1.378 . S
C860 C864 1.350 . S
C861 C864 1.463 . S
C861 C866 1.350 . S
C861 N869 1.427 . S
C862 H853 0.930 . S
C862 C860 1.378 . S
C862 C863 1.367 . S
C863 C862 1.367 . S
C863 C865 1.433 . S
C864 C860 1.350 . S
C864 C861 1.463 . S
C864 N868 1.427 . S
C865 H855 0.929 . S
C865 C863 1.433 . S
C865 N868 1.384 . S
C866 H857 0.929 . S
C866 C858 1.378 . S
C866 C861 1.350 . S
C867 H854 0.929 . S
C867 C859 1.433 . S
C867 N869 1.384 . S
N868 C864 1.427 . S
N868 C865 1.384 . S
N869 C861 1.427 . S
N869 C867 1.384 . S
H870 C876 0.930 . S
H871 C880 0.930 . S
H872 C885 0.929 . S
H873 C883 0.929 . S
H874 C878 0.929 . S
H875 C884 0.929 . S
C876 H870 0.930 . S
C876 C877 1.367 . S
C876 C884 1.378 . S
C877 C876 1.367 . S
C877 C885 1.433 . S
C878 H874 0.929 . S
C878 C880 1.378 . S
C878 C882 1.350 . S
C879 C882 1.463 1_554 S
C879 C884 1.350 . S
C879 N887 1.427 . S
C880 H871 0.930 . S
C880 C878 1.378 . S
C880 C881 1.367 . S
C881 C880 1.367 . S
C881 C883 1.433 . S
C882 C878 1.350 . S
C882 C879 1.463 1_556 S
C882 N886 1.427 . S
C883 H873 0.929 . S
C883 C881 1.433 . S
C883 N886 1.384 . S
C884 H875 0.929 . S
C884 C876 1.378 . S
C884 C879 1.350 . S
C885 H872 0.929 . S
C885 C877 1.433 . S
C885 N887 1.384 . S
N886 C882 1.427 . S
N886 C883 1.384 . S
N887 C879 1.427 . S
N887 C885 1.384 . S
H888 C894 0.930 . S
H889 C898 0.930 . S
H890 C903 0.929 . S
H891 C901 0.929 . S
H892 C896 0.929 . S
H893 C902 0.929 . S
C894 H888 0.930 . S
C894 C895 1.367 . S
C894 C902 1.378 . S
C895 C894 1.367 . S
C895 C903 1.433 . S
C896 H892 0.929 . S
C896 C898 1.378 . S
C896 C900 1.350 . S
C897 C900 1.463 . S
C897 C902 1.350 . S
C897 N905 1.427 . S
C898 H889 0.930 . S
C898 C896 1.378 . S
C898 C899 1.367 . S
C899 C898 1.367 . S
C899 C901 1.433 . S
C900 C896 1.350 . S
C900 C897 1.463 . S
C900 N904 1.427 . S
C901 H891 0.929 . S
C901 C899 1.433 . S
C901 N904 1.384 . S
C902 H893 0.929 . S
C902 C894 1.378 . S
C902 C897 1.350 . S
C903 H890 0.929 . S
C903 C895 1.433 . S
C903 N905 1.384 . S
N904 C900 1.427 . S
N904 C901 1.384 . S
N905 C897 1.427 . S
N905 C903 1.384 . S
H906 C912 0.930 . S
H907 C916 0.930 . S
H908 C921 0.929 . S
H909 C919 0.929 . S
H910 C914 0.929 . S
H911 C920 0.929 . S
C912 H906 0.930 . S
C912 C913 1.367 . S
C912 C920 1.378 . S
C913 C912 1.367 . S
C913 C921 1.433 . S
C914 H910 0.929 . S
C914 C916 1.378 . S
C914 C918 1.350 . S
C915 C918 1.463 . S
C915 C920 1.350 . S
C915 N923 1.427 . S
C916 H907 0.930 . S
C916 C914 1.378 . S
C916 C917 1.367 . S
C917 C916 1.367 . S
C917 C919 1.433 . S
C918 C914 1.350 . S
C918 C915 1.463 . S
C918 N922 1.427 . S
C919 H909 0.929 . S
C919 C917 1.433 . S
C919 N922 1.384 . S
C920 H911 0.929 . S
C920 C912 1.378 . S
C920 C915 1.350 . S
C921 H908 0.929 . S
C921 C913 1.433 . S
C921 N923 1.384 . S
N922 C918 1.427 . S
N922 C919 1.384 . S
N923 C915 1.427 . S
N923 C921 1.384 . S
H924 C930 0.930 . S
H925 C934 0.930 . S
H926 C939 0.929 1_655 S
H927 C937 0.929 . S
H928 C932 0.929 . S
H929 C938 0.929 . S
C930 H924 0.930 . S
C930 C931 1.367 . S
C930 C938 1.378 . S
C931 C930 1.367 . S
C931 C939 1.433 . S
C932 H928 0.929 . S
C932 C934 1.378 . S
C932 C936 1.350 . S
C933 C936 1.463 1_455 S
C933 C938 1.350 . S
C933 N941 1.427 1_455 S
C934 H925 0.930 . S
C934 C932 1.378 . S
C934 C935 1.367 . S
C935 C934 1.367 . S
C935 C937 1.433 1_655 S
C936 C932 1.350 . S
C936 C933 1.463 1_655 S
C936 N940 1.427 1_655 S
C937 H927 0.929 . S
C937 C935 1.433 1_455 S
C937 N940 1.384 . S
C938 H929 0.929 . S
C938 C930 1.378 . S
C938 C933 1.350 . S
C939 H926 0.929 1_455 S
C939 C931 1.433 . S
C939 N941 1.384 1_455 S
N940 C936 1.427 1_455 S
N940 C937 1.384 . S
N941 C933 1.427 1_655 S
N941 C939 1.384 1_655 S
H942 C948 0.930 . S
H943 C952 0.930 . S
H944 C957 0.929 . S
H945 C955 0.929 . S
H946 C950 0.929 . S
H947 C956 0.929 . S
C948 H942 0.930 . S
C948 C949 1.367 . S
C948 C956 1.378 . S
C949 C948 1.367 . S
C949 C957 1.433 1_565 S
C950 H946 0.929 . S
C950 C952 1.378 . S
C950 C954 1.350 . S
C951 C954 1.463 1_565 S
C951 C956 1.350 . S
C951 N959 1.427 1_565 S
C952 H943 0.930 . S
C952 C950 1.378 . S
C952 C953 1.367 . S
C953 C952 1.367 . S
C953 C955 1.433 1_545 S
C954 C950 1.350 . S
C954 C951 1.463 1_545 S
C954 N958 1.427 1_545 S
C955 H945 0.929 . S
C955 C953 1.433 1_565 S
C955 N958 1.384 . S
C956 H947 0.929 . S
C956 C948 1.378 . S
C956 C951 1.350 . S
C957 H944 0.929 . S
C957 C949 1.433 1_545 S
C957 N959 1.384 . S
N958 C954 1.427 1_565 S
N958 C955 1.384 . S
N959 C951 1.427 1_545 S
N959 C957 1.384 . S
H960 C966 0.930 . S
H961 C970 0.930 . S
H962 C975 0.929 . S
H963 C973 0.929 . S
H964 C968 0.929 . S
H965 C974 0.929 . S
C966 H960 0.930 . S
C966 C967 1.367 . S
C966 C974 1.378 . S
C967 C966 1.367 . S
C967 C975 1.433 . S
C968 H964 0.929 . S
C968 C970 1.378 . S
C968 C972 1.350 . S
C969 C972 1.463 . S
C969 C974 1.350 . S
C969 N977 1.427 . S
C970 H961 0.930 . S
C970 C968 1.378 . S
C970 C971 1.367 . S
C971 C970 1.367 . S
C971 C973 1.433 . S
C972 C968 1.350 . S
C972 C969 1.463 . S
C972 N976 1.427 . S
C973 H963 0.929 . S
C973 C971 1.433 . S
C973 N976 1.384 . S
C974 H965 0.929 . S
C974 C966 1.378 . S
C974 C969 1.350 . S
C975 H962 0.929 . S
C975 C967 1.433 . S
C975 N977 1.384 . S
N976 C972 1.427 . S
N976 C973 1.384 . S
N977 C969 1.427 . S
N977 C975 1.384 . S
H978 C984 0.930 . S
H979 C988 0.930 . S
H980 C993 0.929 . S
H981 C991 0.929 . S
H982 C986 0.929 . S
H983 C992 0.929 . S
C984 H978 0.930 . S
C984 C985 1.367 . S
C984 C992 1.378 . S
C985 C984 1.367 . S
C985 C993 1.433 1_565 S
C986 H982 0.929 . S
C986 C988 1.378 . S
C986 C990 1.350 . S
C987 C990 1.463 1_565 S
C987 C992 1.350 . S
C987 N995 1.427 1_565 S
C988 H979 0.930 . S
C988 C986 1.378 . S
C988 C989 1.367 . S
C989 C988 1.367 . S
C989 C991 1.433 1_545 S
C990 C986 1.350 . S
C990 C987 1.463 1_545 S
C990 N994 1.427 1_545 S
C991 H981 0.929 . S
C991 C989 1.433 1_565 S
C991 N994 1.384 . S
C992 H983 0.929 . S
C992 C984 1.378 . S
C992 C987 1.350 . S
C993 H980 0.929 . S
C993 C985 1.433 1_545 S
C993 N995 1.384 . S
N994 C990 1.427 1_565 S
N994 C991 1.384 . S
N995 C987 1.427 1_545 S
N995 C993 1.384 . S
H996 C1002 0.930 . S
H997 C1006 0.930 . S
H998 C1011 0.929 . S
H999 C1009 0.929 . S
H1000 C1004 0.929 . S
H1001 C1010 0.929 . S
C1002 H996 0.930 . S
C1002 C1003 1.367 . S
C1002 C1010 1.378 . S
C1003 C1002 1.367 . S
C1003 C1011 1.433 . S
C1004 H1000 0.929 . S
C1004 C1006 1.378 . S
C1004 C1008 1.350 . S
C1005 C1008 1.463 . S
C1005 C1010 1.350 . S
C1005 N1013 1.427 . S
C1006 H997 0.930 . S
C1006 C1004 1.378 . S
C1006 C1007 1.367 . S
C1007 C1006 1.367 . S
C1007 C1009 1.433 . S
C1008 C1004 1.350 . S
C1008 C1005 1.463 . S
C1008 N1012 1.427 . S
C1009 H999 0.929 . S
C1009 C1007 1.433 . S
C1009 N1012 1.384 . S
C1010 H1001 0.929 . S
C1010 C1002 1.378 . S
C1010 C1005 1.350 . S
C1011 H998 0.929 . S
C1011 C1003 1.433 . S
C1011 N1013 1.384 . S
N1012 C1008 1.427 . S
N1012 C1009 1.384 . S
N1013 C1005 1.427 . S
N1013 C1011 1.384 . S
H1014 C1020 0.930 . S
H1015 C1024 0.930 . S
H1016 C1029 0.929 . S
H1017 C1027 0.929 . S
H1018 C1022 0.929 . S
H1019 C1028 0.929 . S
C1020 H1014 0.930 . S
C1020 C1021 1.367 . S
C1020 C1028 1.378 . S
C1021 C1020 1.367 . S
C1021 C1029 1.433 1_655 S
C1022 H1018 0.929 . S
C1022 C1024 1.378 . S
C1022 C1026 1.350 . S
C1023 C1026 1.463 1_655 S
C1023 C1028 1.350 . S
C1023 N1031 1.427 1_655 S
C1024 H1015 0.930 . S
C1024 C1022 1.378 . S
C1024 C1025 1.367 . S
C1025 C1024 1.367 . S
C1025 C1027 1.433 1_455 S
C1026 C1022 1.350 . S
C1026 C1023 1.463 1_455 S
C1026 N1030 1.427 1_455 S
C1027 H1017 0.929 . S
C1027 C1025 1.433 1_655 S
C1027 N1030 1.384 . S
C1028 H1019 0.929 . S
C1028 C1020 1.378 . S
C1028 C1023 1.350 . S
C1029 H1016 0.929 . S
C1029 C1021 1.433 1_455 S
C1029 N1031 1.384 . S
N1030 C1026 1.427 1_655 S
N1030 C1027 1.384 . S
N1031 C1023 1.427 1_455 S
N1031 C1029 1.384 . S
H1032 C1038 0.930 . S
H1033 C1042 0.930 . S
H1034 C1047 0.929 . S
H1035 C1045 0.929 . S
H1036 C1040 0.929 . S
H1037 C1046 0.929 . S
C1038 H1032 0.930 . S
C1038 C1039 1.367 1_455 S
C1038 C1046 1.378 . S
C1039 C1038 1.367 1_655 S
C1039 C1047 1.433 . S
C1040 H1036 0.929 . S
C1040 C1042 1.378 . S
C1040 C1044 1.350 1_655 S
C1041 C1044 1.463 1_645 S
C1041 C1046 1.350 1_655 S
C1041 N1049 1.427 . S
C1042 H1033 0.930 . S
C1042 C1040 1.378 . S
C1042 C1043 1.367 1_655 S
C1043 C1042 1.367 1_455 S
C1043 C1045 1.433 . S
C1044 C1040 1.350 1_455 S
C1044 C1041 1.463 1_465 S
C1044 N1048 1.427 . S
C1045 H1035 0.929 . S
C1045 C1043 1.433 . S
C1045 N1048 1.384 . S
C1046 H1037 0.929 . S
C1046 C1038 1.378 . S
C1046 C1041 1.350 1_455 S
C1047 H1034 0.929 . S
C1047 C1039 1.433 . S
C1047 N1049 1.384 . S
N1048 C1044 1.427 . S
N1048 C1045 1.384 . S
N1049 C1041 1.427 . S
N1049 C1047 1.384 . S
H1050 C1056 0.930 . S
H1051 C1060 0.930 . S
H1052 C1065 0.929 . S
H1053 C1063 0.929 . S
H1054 C1058 0.929 . S
H1055 C1064 0.929 . S
C1056 H1050 0.930 . S
C1056 C1057 1.367 1_545 S
C1056 C1064 1.378 . S
C1057 C1056 1.367 1_565 S
C1057 C1065 1.433 . S
C1058 H1054 0.929 . S
C1058 C1060 1.378 . S
C1058 C1062 1.350 1_565 S
C1059 C1062 1.463 1_665 S
C1059 C1064 1.350 1_565 S
C1059 N1067 1.427 . S
C1060 H1051 0.930 . S
C1060 C1058 1.378 . S
C1060 C1061 1.367 1_565 S
C1061 C1060 1.367 1_545 S
C1061 C1063 1.433 . S
C1062 C1058 1.350 1_545 S
C1062 C1059 1.463 1_445 S
C1062 N1066 1.427 . S
C1063 H1053 0.929 . S
C1063 C1061 1.433 . S
C1063 N1066 1.384 . S
C1064 H1055 0.929 . S
C1064 C1056 1.378 . S
C1064 C1059 1.350 1_545 S
C1065 H1052 0.929 . S
C1065 C1057 1.433 . S
C1065 N1067 1.384 . S
N1066 C1062 1.427 . S
N1066 C1063 1.384 . S
N1067 C1059 1.427 . S
N1067 C1065 1.384 . S
H1068 C1074 0.930 . S
H1069 C1078 0.930 . S
H1070 C1083 0.929 . S
H1071 C1081 0.929 . S
H1072 C1076 0.929 . S
H1073 C1082 0.929 . S
C1074 H1068 0.930 . S
C1074 C1075 1.367 . S
C1074 C1082 1.378 . S
C1075 C1074 1.367 . S
C1075 C1083 1.433 . S
C1076 H1072 0.929 . S
C1076 C1078 1.378 . S
C1076 C1080 1.350 . S
C1077 C1080 1.463 1_445 S
C1077 C1082 1.350 . S
C1077 N1085 1.427 . S
C1078 H1069 0.930 . S
C1078 C1076 1.378 . S
C1078 C1079 1.367 . S
C1079 C1078 1.367 . S
C1079 C1081 1.433 . S
C1080 C1076 1.350 . S
C1080 C1077 1.463 1_665 S
C1080 N1084 1.427 . S
C1081 H1071 0.929 . S
C1081 C1079 1.433 . S
C1081 N1084 1.384 . S
C1082 H1073 0.929 . S
C1082 C1074 1.378 . S
C1082 C1077 1.350 . S
C1083 H1070 0.929 . S
C1083 C1075 1.433 . S
C1083 N1085 1.384 . S
N1084 C1080 1.427 . S
N1084 C1081 1.384 . S
N1085 C1077 1.427 . S
N1085 C1083 1.384 . S
H1086 C1092 0.930 . S
H1087 C1096 0.930 . S
H1088 C1101 0.929 . S
H1089 C1099 0.929 . S
H1090 C1094 0.929 1_655 S
H1091 C1100 0.929 1_455 S
C1092 H1086 0.930 . S
C1092 C1093 1.367 . S
C1092 C1100 1.378 . S
C1093 C1092 1.367 . S
C1093 C1101 1.433 1_545 S
C1094 H1090 0.929 1_455 S
C1094 C1096 1.378 . S
C1094 C1098 1.350 . S
C1095 C1098 1.463 1_645 S
C1095 C1100 1.350 . S
C1095 N1103 1.427 1_545 S
C1096 H1087 0.930 . S
C1096 C1094 1.378 . S
C1096 C1097 1.367 . S
C1097 C1096 1.367 . S
C1097 C1099 1.433 1_565 S
C1098 C1094 1.350 . S
C1098 C1095 1.463 1_465 S
C1098 N1102 1.427 1_565 S
C1099 H1089 0.929 . S
C1099 C1097 1.433 1_545 S
C1099 N1102 1.384 . S
C1100 H1091 0.929 1_655 S
C1100 C1092 1.378 . S
C1100 C1095 1.350 . S
C1101 H1088 0.929 . S
C1101 C1093 1.433 1_565 S
C1101 N1103 1.384 . S
N1102 C1098 1.427 1_545 S
N1102 C1099 1.384 . S
N1103 C1095 1.427 1_565 S
N1103 C1101 1.384 . S
H1104 C1110 0.930 . S
H1105 C1114 0.930 . S
H1106 C1119 0.929 . S
H1107 C1117 0.929 . S
H1108 C1112 0.929 . S
H1109 C1118 0.929 . S
C1110 H1104 0.930 . S
C1110 C1111 1.367 . S
C1110 C1118 1.378 . S
C1111 C1110 1.367 . S
C1111 C1119 1.433 . S
C1112 H1108 0.929 . S
C1112 C1114 1.378 . S
C1112 C1116 1.350 . S
C1113 C1116 1.463 1_665 S
C1113 C1118 1.350 . S
C1113 N1121 1.427 . S
C1114 H1105 0.930 . S
C1114 C1112 1.378 . S
C1114 C1115 1.367 . S
C1115 C1114 1.367 . S
C1115 C1117 1.433 . S
C1116 C1112 1.350 . S
C1116 C1113 1.463 1_445 S
C1116 N1120 1.427 . S
C1117 H1107 0.929 . S
C1117 C1115 1.433 . S
C1117 N1120 1.384 . S
C1118 H1109 0.929 . S
C1118 C1110 1.378 . S
C1118 C1113 1.350 . S
C1119 H1106 0.929 . S
C1119 C1111 1.433 . S
C1119 N1121 1.384 . S
N1120 C1116 1.427 . S
N1120 C1117 1.384 . S
N1121 C1113 1.427 . S
N1121 C1119 1.384 . S
H1122 C1128 0.930 . S
H1123 C1132 0.930 . S
H1124 C1137 0.929 . S
H1125 C1135 0.929 . S
H1126 C1130 0.929 . S
H1127 C1136 0.929 . S
C1128 H1122 0.930 . S
C1128 C1129 1.367 1_455 S
C1128 C1136 1.378 . S
C1129 C1128 1.367 1_655 S
C1129 C1137 1.433 . S
C1130 H1126 0.929 . S
C1130 C1132 1.378 . S
C1130 C1134 1.350 1_655 S
C1131 C1134 1.463 1_665 S
C1131 C1136 1.350 1_655 S
C1131 N1139 1.427 . S
C1132 H1123 0.930 . S
C1132 C1130 1.378 . S
C1132 C1133 1.367 1_655 S
C1133 C1132 1.367 1_455 S
C1133 C1135 1.433 . S
C1134 C1130 1.350 1_455 S
C1134 C1131 1.463 1_445 S
C1134 N1138 1.427 . S
C1135 H1125 0.929 . S
C1135 C1133 1.433 . S
C1135 N1138 1.384 . S
C1136 H1127 0.929 . S
C1136 C1128 1.378 . S
C1136 C1131 1.350 1_455 S
C1137 H1124 0.929 . S
C1137 C1129 1.433 . S
C1137 N1139 1.384 . S
N1138 C1134 1.427 . S
N1138 C1135 1.384 . S
N1139 C1131 1.427 . S
N1139 C1137 1.384 . S
C715 C652 1.421 . S
C719 C3 1.414 . S
C733 C62 1.426 . S
C737 C357 1.421 . S
C751 C121 1.429 . S
C755 C416 1.419 . S
C769 C180 1.417 . S
C773 C475 1.419 . S
C787 C534 1.424 . S
C791 C239 1.427 . S
C805 C298 1.431 . S
C809 C593 1.420 . S
C823 C33 1.283 . S
C827 C623 1.276 . S
C841 C92 1.305 . S
C845 C682 1.305 . S
C859 C151 1.311 . S
C863 C387 1.311 . S
C877 C210 1.282 . S
C881 C446 1.280 . S
C895 C505 1.310 . S
C899 C269 1.304 . S
C913 C564 1.308 . S
C917 C328 1.312 . S
C931 C182 1.424 . S
C935 C5 1.421 . S
C949 C64 1.507 . S
C953 C241 1.505 . S
C967 C300 1.530 . S
C971 C123 1.527 . S
C985 C536 1.482 . S
C989 C359 1.480 . S
C1003 C595 1.404 . S
C1007 C418 1.407 . S
C1021 C477 1.518 . S
C1025 C654 1.519 . S
C1039 C52 1.297 . S
C1043 C229 1.303 . S
C1057 C111 1.336 . S
C1061 C288 1.338 . S
C1075 C347 1.415 . S
C1079 C170 1.410 . S
C1093 C406 1.309 . S
C1097 C583 1.313 . S
C1111 C465 1.283 . S
C1115 C642 1.289 . S
C1129 C524 1.381 . S
C1133 C701 1.379 . S
